# Generated by pormake.
# Topology ukw, (4)-cn, num edge types: 1
# Building blocks:
#     Node 0, Type 0, BuildingBlock: GALJAG_clean_sbu_0, # of connection points: 4
#     Node 1, Type 0, BuildingBlock: GALJAG_clean_sbu_0, # of connection points: 4
#     Node 2, Type 0, BuildingBlock: GALJAG_clean_sbu_0, # of connection points: 4
#     Node 3, Type 0, BuildingBlock: GALJAG_clean_sbu_0, # of connection points: 4
#     Node 4, Type 0, BuildingBlock: GALJAG_clean_sbu_0, # of connection points: 4
#     Node 5, Type 0, BuildingBlock: GALJAG_clean_sbu_0, # of connection points: 4
#     Node 6, Type 0, BuildingBlock: GALJAG_clean_sbu_0, # of connection points: 4
#     Node 7, Type 0, BuildingBlock: GALJAG_clean_sbu_0, # of connection points: 4
#     Node 8, Type 0, BuildingBlock: GALJAG_clean_sbu_0, # of connection points: 4
#     Node 9, Type 0, BuildingBlock: GALJAG_clean_sbu_0, # of connection points: 4
#     Node 10, Type 0, BuildingBlock: GALJAG_clean_sbu_0, # of connection points: 4
#     Node 11, Type 0, BuildingBlock: GALJAG_clean_sbu_0, # of connection points: 4
#     Node 12, Type 0, BuildingBlock: GALJAG_clean_sbu_0, # of connection points: 4
#     Node 13, Type 0, BuildingBlock: GALJAG_clean_sbu_0, # of connection points: 4
#     Node 14, Type 0, BuildingBlock: GALJAG_clean_sbu_0, # of connection points: 4
#     Node 15, Type 0, BuildingBlock: GALJAG_clean_sbu_0, # of connection points: 4
#     Node 16, Type 0, BuildingBlock: GALJAG_clean_sbu_0, # of connection points: 4
#     Node 17, Type 0, BuildingBlock: GALJAG_clean_sbu_0, # of connection points: 4
#     Node 18, Type 0, BuildingBlock: GALJAG_clean_sbu_0, # of connection points: 4
#     Node 19, Type 0, BuildingBlock: GALJAG_clean_sbu_0, # of connection points: 4
#     Node 20, Type 0, BuildingBlock: GALJAG_clean_sbu_0, # of connection points: 4
#     Node 21, Type 0, BuildingBlock: GALJAG_clean_sbu_0, # of connection points: 4
#     Node 22, Type 0, BuildingBlock: GALJAG_clean_sbu_0, # of connection points: 4
#     Node 23, Type 0, BuildingBlock: GALJAG_clean_sbu_0, # of connection points: 4
#     Node 24, Type 0, BuildingBlock: GALJAG_clean_sbu_0, # of connection points: 4
#     Node 25, Type 0, BuildingBlock: GALJAG_clean_sbu_0, # of connection points: 4
#     Node 26, Type 0, BuildingBlock: GALJAG_clean_sbu_0, # of connection points: 4
#     Node 27, Type 0, BuildingBlock: GALJAG_clean_sbu_0, # of connection points: 4
#     Node 28, Type 0, BuildingBlock: GALJAG_clean_sbu_0, # of connection points: 4
#     Node 29, Type 0, BuildingBlock: GALJAG_clean_sbu_0, # of connection points: 4
#     Node 30, Type 0, BuildingBlock: GALJAG_clean_sbu_0, # of connection points: 4
#     Node 31, Type 0, BuildingBlock: GALJAG_clean_sbu_0, # of connection points: 4
#     Node 32, Type 0, BuildingBlock: GALJAG_clean_sbu_0, # of connection points: 4
#     Node 33, Type 0, BuildingBlock: GALJAG_clean_sbu_0, # of connection points: 4
#     Node 34, Type 0, BuildingBlock: GALJAG_clean_sbu_0, # of connection points: 4
#     Node 35, Type 0, BuildingBlock: GALJAG_clean_sbu_0, # of connection points: 4
#     Node 36, Type 0, BuildingBlock: GALJAG_clean_sbu_0, # of connection points: 4
#     Node 37, Type 0, BuildingBlock: GALJAG_clean_sbu_0, # of connection points: 4
#     Node 38, Type 0, BuildingBlock: GALJAG_clean_sbu_0, # of connection points: 4
#     Node 39, Type 0, BuildingBlock: GALJAG_clean_sbu_0, # of connection points: 4
#     Node 40, Type 0, BuildingBlock: GALJAG_clean_sbu_0, # of connection points: 4
#     Node 41, Type 0, BuildingBlock: GALJAG_clean_sbu_0, # of connection points: 4
#     Node 42, Type 0, BuildingBlock: GALJAG_clean_sbu_0, # of connection points: 4
#     Node 43, Type 0, BuildingBlock: GALJAG_clean_sbu_0, # of connection points: 4
#     Node 44, Type 0, BuildingBlock: GALJAG_clean_sbu_0, # of connection points: 4
#     Node 45, Type 0, BuildingBlock: GALJAG_clean_sbu_0, # of connection points: 4
#     Node 46, Type 0, BuildingBlock: GALJAG_clean_sbu_0, # of connection points: 4
#     Node 47, Type 0, BuildingBlock: GALJAG_clean_sbu_0, # of connection points: 4
#     Node 48, Type 0, BuildingBlock: GALJAG_clean_sbu_0, # of connection points: 4
#     Node 49, Type 0, BuildingBlock: GALJAG_clean_sbu_0, # of connection points: 4
#     Node 50, Type 0, BuildingBlock: GALJAG_clean_sbu_0, # of connection points: 4
#     Node 51, Type 0, BuildingBlock: GALJAG_clean_sbu_0, # of connection points: 4
#     Node 52, Type 0, BuildingBlock: GALJAG_clean_sbu_0, # of connection points: 4
#     Node 53, Type 0, BuildingBlock: GALJAG_clean_sbu_0, # of connection points: 4
#     Node 54, Type 0, BuildingBlock: GALJAG_clean_sbu_0, # of connection points: 4
#     Node 55, Type 0, BuildingBlock: GALJAG_clean_sbu_0, # of connection points: 4
#     Node 56, Type 0, BuildingBlock: GALJAG_clean_sbu_0, # of connection points: 4
#     Node 57, Type 0, BuildingBlock: GALJAG_clean_sbu_0, # of connection points: 4
#     Node 58, Type 0, BuildingBlock: GALJAG_clean_sbu_0, # of connection points: 4
#     Node 59, Type 0, BuildingBlock: GALJAG_clean_sbu_0, # of connection points: 4
#     Node 60, Type 0, BuildingBlock: GALJAG_clean_sbu_0, # of connection points: 4
#     Node 61, Type 0, BuildingBlock: GALJAG_clean_sbu_0, # of connection points: 4
#     Node 62, Type 0, BuildingBlock: GALJAG_clean_sbu_0, # of connection points: 4
#     Node 63, Type 0, BuildingBlock: GALJAG_clean_sbu_0, # of connection points: 4
#     Node 64, Type 0, BuildingBlock: GALJAG_clean_sbu_0, # of connection points: 4
#     Node 65, Type 0, BuildingBlock: GALJAG_clean_sbu_0, # of connection points: 4
#     Node 66, Type 0, BuildingBlock: GALJAG_clean_sbu_0, # of connection points: 4
#     Node 67, Type 0, BuildingBlock: GALJAG_clean_sbu_0, # of connection points: 4
#     Node 68, Type 0, BuildingBlock: GALJAG_clean_sbu_0, # of connection points: 4
#     Node 69, Type 0, BuildingBlock: GALJAG_clean_sbu_0, # of connection points: 4
#     Node 70, Type 0, BuildingBlock: GALJAG_clean_sbu_0, # of connection points: 4
#     Node 71, Type 0, BuildingBlock: GALJAG_clean_sbu_0, # of connection points: 4
#     Node 72, Type 0, BuildingBlock: GALJAG_clean_sbu_0, # of connection points: 4
#     Node 73, Type 0, BuildingBlock: GALJAG_clean_sbu_0, # of connection points: 4
#     Node 74, Type 0, BuildingBlock: GALJAG_clean_sbu_0, # of connection points: 4
#     Node 75, Type 0, BuildingBlock: GALJAG_clean_sbu_0, # of connection points: 4
#     Node 76, Type 0, BuildingBlock: GALJAG_clean_sbu_0, # of connection points: 4
#     Node 77, Type 0, BuildingBlock: GALJAG_clean_sbu_0, # of connection points: 4
#     Node 78, Type 0, BuildingBlock: GALJAG_clean_sbu_0, # of connection points: 4
#     Node 79, Type 0, BuildingBlock: GALJAG_clean_sbu_0, # of connection points: 4
#     Node 80, Type 0, BuildingBlock: GALJAG_clean_sbu_0, # of connection points: 4
#     Node 81, Type 0, BuildingBlock: GALJAG_clean_sbu_0, # of connection points: 4
#     Node 82, Type 0, BuildingBlock: GALJAG_clean_sbu_0, # of connection points: 4
#     Node 83, Type 0, BuildingBlock: GALJAG_clean_sbu_0, # of connection points: 4
#     Node 84, Type 0, BuildingBlock: GALJAG_clean_sbu_0, # of connection points: 4
#     Node 85, Type 0, BuildingBlock: GALJAG_clean_sbu_0, # of connection points: 4
#     Node 86, Type 0, BuildingBlock: GALJAG_clean_sbu_0, # of connection points: 4
#     Node 87, Type 0, BuildingBlock: GALJAG_clean_sbu_0, # of connection points: 4
#     Node 88, Type 0, BuildingBlock: GALJAG_clean_sbu_0, # of connection points: 4
#     Node 89, Type 0, BuildingBlock: GALJAG_clean_sbu_0, # of connection points: 4
#     Node 90, Type 0, BuildingBlock: GALJAG_clean_sbu_0, # of connection points: 4
#     Node 91, Type 0, BuildingBlock: GALJAG_clean_sbu_0, # of connection points: 4
#     Node 92, Type 0, BuildingBlock: GALJAG_clean_sbu_0, # of connection points: 4
#     Node 93, Type 0, BuildingBlock: GALJAG_clean_sbu_0, # of connection points: 4
#     Node 94, Type 0, BuildingBlock: GALJAG_clean_sbu_0, # of connection points: 4
#     Node 95, Type 0, BuildingBlock: GALJAG_clean_sbu_0, # of connection points: 4
#     Edge 96, Type (0, 0), BuildingBlock: AJUNOK_clean_linker_0, # of connection points: 2
#     Edge 97, Type (0, 0), BuildingBlock: AJUNOK_clean_linker_0, # of connection points: 2
#     Edge 98, Type (0, 0), BuildingBlock: AJUNOK_clean_linker_0, # of connection points: 2
#     Edge 99, Type (0, 0), BuildingBlock: AJUNOK_clean_linker_0, # of connection points: 2
#     Edge 100, Type (0, 0), BuildingBlock: AJUNOK_clean_linker_0, # of connection points: 2
#     Edge 101, Type (0, 0), BuildingBlock: AJUNOK_clean_linker_0, # of connection points: 2
#     Edge 102, Type (0, 0), BuildingBlock: AJUNOK_clean_linker_0, # of connection points: 2
#     Edge 103, Type (0, 0), BuildingBlock: AJUNOK_clean_linker_0, # of connection points: 2
#     Edge 104, Type (0, 0), BuildingBlock: AJUNOK_clean_linker_0, # of connection points: 2
#     Edge 105, Type (0, 0), BuildingBlock: AJUNOK_clean_linker_0, # of connection points: 2
#     Edge 106, Type (0, 0), BuildingBlock: AJUNOK_clean_linker_0, # of connection points: 2
#     Edge 107, Type (0, 0), BuildingBlock: AJUNOK_clean_linker_0, # of connection points: 2
#     Edge 108, Type (0, 0), BuildingBlock: AJUNOK_clean_linker_0, # of connection points: 2
#     Edge 109, Type (0, 0), BuildingBlock: AJUNOK_clean_linker_0, # of connection points: 2
#     Edge 110, Type (0, 0), BuildingBlock: AJUNOK_clean_linker_0, # of connection points: 2
#     Edge 111, Type (0, 0), BuildingBlock: AJUNOK_clean_linker_0, # of connection points: 2
#     Edge 112, Type (0, 0), BuildingBlock: AJUNOK_clean_linker_0, # of connection points: 2
#     Edge 113, Type (0, 0), BuildingBlock: AJUNOK_clean_linker_0, # of connection points: 2
#     Edge 114, Type (0, 0), BuildingBlock: AJUNOK_clean_linker_0, # of connection points: 2
#     Edge 115, Type (0, 0), BuildingBlock: AJUNOK_clean_linker_0, # of connection points: 2
#     Edge 116, Type (0, 0), BuildingBlock: AJUNOK_clean_linker_0, # of connection points: 2
#     Edge 117, Type (0, 0), BuildingBlock: AJUNOK_clean_linker_0, # of connection points: 2
#     Edge 118, Type (0, 0), BuildingBlock: AJUNOK_clean_linker_0, # of connection points: 2
#     Edge 119, Type (0, 0), BuildingBlock: AJUNOK_clean_linker_0, # of connection points: 2
#     Edge 120, Type (0, 0), BuildingBlock: AJUNOK_clean_linker_0, # of connection points: 2
#     Edge 121, Type (0, 0), BuildingBlock: AJUNOK_clean_linker_0, # of connection points: 2
#     Edge 122, Type (0, 0), BuildingBlock: AJUNOK_clean_linker_0, # of connection points: 2
#     Edge 123, Type (0, 0), BuildingBlock: AJUNOK_clean_linker_0, # of connection points: 2
#     Edge 124, Type (0, 0), BuildingBlock: AJUNOK_clean_linker_0, # of connection points: 2
#     Edge 125, Type (0, 0), BuildingBlock: AJUNOK_clean_linker_0, # of connection points: 2
#     Edge 126, Type (0, 0), BuildingBlock: AJUNOK_clean_linker_0, # of connection points: 2
#     Edge 127, Type (0, 0), BuildingBlock: AJUNOK_clean_linker_0, # of connection points: 2
#     Edge 128, Type (0, 0), BuildingBlock: AJUNOK_clean_linker_0, # of connection points: 2
#     Edge 129, Type (0, 0), BuildingBlock: AJUNOK_clean_linker_0, # of connection points: 2
#     Edge 130, Type (0, 0), BuildingBlock: AJUNOK_clean_linker_0, # of connection points: 2
#     Edge 131, Type (0, 0), BuildingBlock: AJUNOK_clean_linker_0, # of connection points: 2
#     Edge 132, Type (0, 0), BuildingBlock: AJUNOK_clean_linker_0, # of connection points: 2
#     Edge 133, Type (0, 0), BuildingBlock: AJUNOK_clean_linker_0, # of connection points: 2
#     Edge 134, Type (0, 0), BuildingBlock: AJUNOK_clean_linker_0, # of connection points: 2
#     Edge 135, Type (0, 0), BuildingBlock: AJUNOK_clean_linker_0, # of connection points: 2
#     Edge 136, Type (0, 0), BuildingBlock: AJUNOK_clean_linker_0, # of connection points: 2
#     Edge 137, Type (0, 0), BuildingBlock: AJUNOK_clean_linker_0, # of connection points: 2
#     Edge 138, Type (0, 0), BuildingBlock: AJUNOK_clean_linker_0, # of connection points: 2
#     Edge 139, Type (0, 0), BuildingBlock: AJUNOK_clean_linker_0, # of connection points: 2
#     Edge 140, Type (0, 0), BuildingBlock: AJUNOK_clean_linker_0, # of connection points: 2
#     Edge 141, Type (0, 0), BuildingBlock: AJUNOK_clean_linker_0, # of connection points: 2
#     Edge 142, Type (0, 0), BuildingBlock: AJUNOK_clean_linker_0, # of connection points: 2
#     Edge 143, Type (0, 0), BuildingBlock: AJUNOK_clean_linker_0, # of connection points: 2
#     Edge 144, Type (0, 0), BuildingBlock: AJUNOK_clean_linker_0, # of connection points: 2
#     Edge 145, Type (0, 0), BuildingBlock: AJUNOK_clean_linker_0, # of connection points: 2
#     Edge 146, Type (0, 0), BuildingBlock: AJUNOK_clean_linker_0, # of connection points: 2
#     Edge 147, Type (0, 0), BuildingBlock: AJUNOK_clean_linker_0, # of connection points: 2
#     Edge 148, Type (0, 0), BuildingBlock: AJUNOK_clean_linker_0, # of connection points: 2
#     Edge 149, Type (0, 0), BuildingBlock: AJUNOK_clean_linker_0, # of connection points: 2
#     Edge 150, Type (0, 0), BuildingBlock: AJUNOK_clean_linker_0, # of connection points: 2
#     Edge 151, Type (0, 0), BuildingBlock: AJUNOK_clean_linker_0, # of connection points: 2
#     Edge 152, Type (0, 0), BuildingBlock: AJUNOK_clean_linker_0, # of connection points: 2
#     Edge 153, Type (0, 0), BuildingBlock: AJUNOK_clean_linker_0, # of connection points: 2
#     Edge 154, Type (0, 0), BuildingBlock: AJUNOK_clean_linker_0, # of connection points: 2
#     Edge 155, Type (0, 0), BuildingBlock: AJUNOK_clean_linker_0, # of connection points: 2
#     Edge 156, Type (0, 0), BuildingBlock: AJUNOK_clean_linker_0, # of connection points: 2
#     Edge 157, Type (0, 0), BuildingBlock: AJUNOK_clean_linker_0, # of connection points: 2
#     Edge 158, Type (0, 0), BuildingBlock: AJUNOK_clean_linker_0, # of connection points: 2
#     Edge 159, Type (0, 0), BuildingBlock: AJUNOK_clean_linker_0, # of connection points: 2
#     Edge 160, Type (0, 0), BuildingBlock: AJUNOK_clean_linker_0, # of connection points: 2
#     Edge 161, Type (0, 0), BuildingBlock: AJUNOK_clean_linker_0, # of connection points: 2
#     Edge 162, Type (0, 0), BuildingBlock: AJUNOK_clean_linker_0, # of connection points: 2
#     Edge 163, Type (0, 0), BuildingBlock: AJUNOK_clean_linker_0, # of connection points: 2
#     Edge 164, Type (0, 0), BuildingBlock: AJUNOK_clean_linker_0, # of connection points: 2
#     Edge 165, Type (0, 0), BuildingBlock: AJUNOK_clean_linker_0, # of connection points: 2
#     Edge 166, Type (0, 0), BuildingBlock: AJUNOK_clean_linker_0, # of connection points: 2
#     Edge 167, Type (0, 0), BuildingBlock: AJUNOK_clean_linker_0, # of connection points: 2
#     Edge 168, Type (0, 0), BuildingBlock: AJUNOK_clean_linker_0, # of connection points: 2
#     Edge 169, Type (0, 0), BuildingBlock: AJUNOK_clean_linker_0, # of connection points: 2
#     Edge 170, Type (0, 0), BuildingBlock: AJUNOK_clean_linker_0, # of connection points: 2
#     Edge 171, Type (0, 0), BuildingBlock: AJUNOK_clean_linker_0, # of connection points: 2
#     Edge 172, Type (0, 0), BuildingBlock: AJUNOK_clean_linker_0, # of connection points: 2
#     Edge 173, Type (0, 0), BuildingBlock: AJUNOK_clean_linker_0, # of connection points: 2
#     Edge 174, Type (0, 0), BuildingBlock: AJUNOK_clean_linker_0, # of connection points: 2
#     Edge 175, Type (0, 0), BuildingBlock: AJUNOK_clean_linker_0, # of connection points: 2
#     Edge 176, Type (0, 0), BuildingBlock: AJUNOK_clean_linker_0, # of connection points: 2
#     Edge 177, Type (0, 0), BuildingBlock: AJUNOK_clean_linker_0, # of connection points: 2
#     Edge 178, Type (0, 0), BuildingBlock: AJUNOK_clean_linker_0, # of connection points: 2
#     Edge 179, Type (0, 0), BuildingBlock: AJUNOK_clean_linker_0, # of connection points: 2
#     Edge 180, Type (0, 0), BuildingBlock: AJUNOK_clean_linker_0, # of connection points: 2
#     Edge 181, Type (0, 0), BuildingBlock: AJUNOK_clean_linker_0, # of connection points: 2
#     Edge 182, Type (0, 0), BuildingBlock: AJUNOK_clean_linker_0, # of connection points: 2
#     Edge 183, Type (0, 0), BuildingBlock: AJUNOK_clean_linker_0, # of connection points: 2
#     Edge 184, Type (0, 0), BuildingBlock: AJUNOK_clean_linker_0, # of connection points: 2
#     Edge 185, Type (0, 0), BuildingBlock: AJUNOK_clean_linker_0, # of connection points: 2
#     Edge 186, Type (0, 0), BuildingBlock: AJUNOK_clean_linker_0, # of connection points: 2
#     Edge 187, Type (0, 0), BuildingBlock: AJUNOK_clean_linker_0, # of connection points: 2
#     Edge 188, Type (0, 0), BuildingBlock: AJUNOK_clean_linker_0, # of connection points: 2
#     Edge 189, Type (0, 0), BuildingBlock: AJUNOK_clean_linker_0, # of connection points: 2
#     Edge 190, Type (0, 0), BuildingBlock: AJUNOK_clean_linker_0, # of connection points: 2
#     Edge 191, Type (0, 0), BuildingBlock: AJUNOK_clean_linker_0, # of connection points: 2
#     Edge 192, Type (0, 0), BuildingBlock: AJUNOK_clean_linker_0, # of connection points: 2
#     Edge 193, Type (0, 0), BuildingBlock: AJUNOK_clean_linker_0, # of connection points: 2
#     Edge 194, Type (0, 0), BuildingBlock: AJUNOK_clean_linker_0, # of connection points: 2
#     Edge 195, Type (0, 0), BuildingBlock: AJUNOK_clean_linker_0, # of connection points: 2
#     Edge 196, Type (0, 0), BuildingBlock: AJUNOK_clean_linker_0, # of connection points: 2
#     Edge 197, Type (0, 0), BuildingBlock: AJUNOK_clean_linker_0, # of connection points: 2
#     Edge 198, Type (0, 0), BuildingBlock: AJUNOK_clean_linker_0, # of connection points: 2
#     Edge 199, Type (0, 0), BuildingBlock: AJUNOK_clean_linker_0, # of connection points: 2
#     Edge 200, Type (0, 0), BuildingBlock: AJUNOK_clean_linker_0, # of connection points: 2
#     Edge 201, Type (0, 0), BuildingBlock: AJUNOK_clean_linker_0, # of connection points: 2
#     Edge 202, Type (0, 0), BuildingBlock: AJUNOK_clean_linker_0, # of connection points: 2
#     Edge 203, Type (0, 0), BuildingBlock: AJUNOK_clean_linker_0, # of connection points: 2
#     Edge 204, Type (0, 0), BuildingBlock: AJUNOK_clean_linker_0, # of connection points: 2
#     Edge 205, Type (0, 0), BuildingBlock: AJUNOK_clean_linker_0, # of connection points: 2
#     Edge 206, Type (0, 0), BuildingBlock: AJUNOK_clean_linker_0, # of connection points: 2
#     Edge 207, Type (0, 0), BuildingBlock: AJUNOK_clean_linker_0, # of connection points: 2
#     Edge 208, Type (0, 0), BuildingBlock: AJUNOK_clean_linker_0, # of connection points: 2
#     Edge 209, Type (0, 0), BuildingBlock: AJUNOK_clean_linker_0, # of connection points: 2
#     Edge 210, Type (0, 0), BuildingBlock: AJUNOK_clean_linker_0, # of connection points: 2
#     Edge 211, Type (0, 0), BuildingBlock: AJUNOK_clean_linker_0, # of connection points: 2
#     Edge 212, Type (0, 0), BuildingBlock: AJUNOK_clean_linker_0, # of connection points: 2
#     Edge 213, Type (0, 0), BuildingBlock: AJUNOK_clean_linker_0, # of connection points: 2
#     Edge 214, Type (0, 0), BuildingBlock: AJUNOK_clean_linker_0, # of connection points: 2
#     Edge 215, Type (0, 0), BuildingBlock: AJUNOK_clean_linker_0, # of connection points: 2
#     Edge 216, Type (0, 0), BuildingBlock: AJUNOK_clean_linker_0, # of connection points: 2
#     Edge 217, Type (0, 0), BuildingBlock: AJUNOK_clean_linker_0, # of connection points: 2
#     Edge 218, Type (0, 0), BuildingBlock: AJUNOK_clean_linker_0, # of connection points: 2
#     Edge 219, Type (0, 0), BuildingBlock: AJUNOK_clean_linker_0, # of connection points: 2
#     Edge 220, Type (0, 0), BuildingBlock: AJUNOK_clean_linker_0, # of connection points: 2
#     Edge 221, Type (0, 0), BuildingBlock: AJUNOK_clean_linker_0, # of connection points: 2
#     Edge 222, Type (0, 0), BuildingBlock: AJUNOK_clean_linker_0, # of connection points: 2
#     Edge 223, Type (0, 0), BuildingBlock: AJUNOK_clean_linker_0, # of connection points: 2
#     Edge 224, Type (0, 0), BuildingBlock: AJUNOK_clean_linker_0, # of connection points: 2
#     Edge 225, Type (0, 0), BuildingBlock: AJUNOK_clean_linker_0, # of connection points: 2
#     Edge 226, Type (0, 0), BuildingBlock: AJUNOK_clean_linker_0, # of connection points: 2
#     Edge 227, Type (0, 0), BuildingBlock: AJUNOK_clean_linker_0, # of connection points: 2
#     Edge 228, Type (0, 0), BuildingBlock: AJUNOK_clean_linker_0, # of connection points: 2
#     Edge 229, Type (0, 0), BuildingBlock: AJUNOK_clean_linker_0, # of connection points: 2
#     Edge 230, Type (0, 0), BuildingBlock: AJUNOK_clean_linker_0, # of connection points: 2
#     Edge 231, Type (0, 0), BuildingBlock: AJUNOK_clean_linker_0, # of connection points: 2
#     Edge 232, Type (0, 0), BuildingBlock: AJUNOK_clean_linker_0, # of connection points: 2
#     Edge 233, Type (0, 0), BuildingBlock: AJUNOK_clean_linker_0, # of connection points: 2
#     Edge 234, Type (0, 0), BuildingBlock: AJUNOK_clean_linker_0, # of connection points: 2
#     Edge 235, Type (0, 0), BuildingBlock: AJUNOK_clean_linker_0, # of connection points: 2
#     Edge 236, Type (0, 0), BuildingBlock: AJUNOK_clean_linker_0, # of connection points: 2
#     Edge 237, Type (0, 0), BuildingBlock: AJUNOK_clean_linker_0, # of connection points: 2
#     Edge 238, Type (0, 0), BuildingBlock: AJUNOK_clean_linker_0, # of connection points: 2
#     Edge 239, Type (0, 0), BuildingBlock: AJUNOK_clean_linker_0, # of connection points: 2
#     Edge 240, Type (0, 0), BuildingBlock: AJUNOK_clean_linker_0, # of connection points: 2
#     Edge 241, Type (0, 0), BuildingBlock: AJUNOK_clean_linker_0, # of connection points: 2
#     Edge 242, Type (0, 0), BuildingBlock: AJUNOK_clean_linker_0, # of connection points: 2
#     Edge 243, Type (0, 0), BuildingBlock: AJUNOK_clean_linker_0, # of connection points: 2
#     Edge 244, Type (0, 0), BuildingBlock: AJUNOK_clean_linker_0, # of connection points: 2
#     Edge 245, Type (0, 0), BuildingBlock: AJUNOK_clean_linker_0, # of connection points: 2
#     Edge 246, Type (0, 0), BuildingBlock: AJUNOK_clean_linker_0, # of connection points: 2
#     Edge 247, Type (0, 0), BuildingBlock: AJUNOK_clean_linker_0, # of connection points: 2
#     Edge 248, Type (0, 0), BuildingBlock: AJUNOK_clean_linker_0, # of connection points: 2
#     Edge 249, Type (0, 0), BuildingBlock: AJUNOK_clean_linker_0, # of connection points: 2
#     Edge 250, Type (0, 0), BuildingBlock: AJUNOK_clean_linker_0, # of connection points: 2
#     Edge 251, Type (0, 0), BuildingBlock: AJUNOK_clean_linker_0, # of connection points: 2
#     Edge 252, Type (0, 0), BuildingBlock: AJUNOK_clean_linker_0, # of connection points: 2
#     Edge 253, Type (0, 0), BuildingBlock: AJUNOK_clean_linker_0, # of connection points: 2
#     Edge 254, Type (0, 0), BuildingBlock: AJUNOK_clean_linker_0, # of connection points: 2
#     Edge 255, Type (0, 0), BuildingBlock: AJUNOK_clean_linker_0, # of connection points: 2
#     Edge 256, Type (0, 0), BuildingBlock: AJUNOK_clean_linker_0, # of connection points: 2
#     Edge 257, Type (0, 0), BuildingBlock: AJUNOK_clean_linker_0, # of connection points: 2
#     Edge 258, Type (0, 0), BuildingBlock: AJUNOK_clean_linker_0, # of connection points: 2
#     Edge 259, Type (0, 0), BuildingBlock: AJUNOK_clean_linker_0, # of connection points: 2
#     Edge 260, Type (0, 0), BuildingBlock: AJUNOK_clean_linker_0, # of connection points: 2
#     Edge 261, Type (0, 0), BuildingBlock: AJUNOK_clean_linker_0, # of connection points: 2
#     Edge 262, Type (0, 0), BuildingBlock: AJUNOK_clean_linker_0, # of connection points: 2
#     Edge 263, Type (0, 0), BuildingBlock: AJUNOK_clean_linker_0, # of connection points: 2
#     Edge 264, Type (0, 0), BuildingBlock: AJUNOK_clean_linker_0, # of connection points: 2
#     Edge 265, Type (0, 0), BuildingBlock: AJUNOK_clean_linker_0, # of connection points: 2
#     Edge 266, Type (0, 0), BuildingBlock: AJUNOK_clean_linker_0, # of connection points: 2
#     Edge 267, Type (0, 0), BuildingBlock: AJUNOK_clean_linker_0, # of connection points: 2
#     Edge 268, Type (0, 0), BuildingBlock: AJUNOK_clean_linker_0, # of connection points: 2
#     Edge 269, Type (0, 0), BuildingBlock: AJUNOK_clean_linker_0, # of connection points: 2
#     Edge 270, Type (0, 0), BuildingBlock: AJUNOK_clean_linker_0, # of connection points: 2
#     Edge 271, Type (0, 0), BuildingBlock: AJUNOK_clean_linker_0, # of connection points: 2
#     Edge 272, Type (0, 0), BuildingBlock: AJUNOK_clean_linker_0, # of connection points: 2
#     Edge 273, Type (0, 0), BuildingBlock: AJUNOK_clean_linker_0, # of connection points: 2
#     Edge 274, Type (0, 0), BuildingBlock: AJUNOK_clean_linker_0, # of connection points: 2
#     Edge 275, Type (0, 0), BuildingBlock: AJUNOK_clean_linker_0, # of connection points: 2
#     Edge 276, Type (0, 0), BuildingBlock: AJUNOK_clean_linker_0, # of connection points: 2
#     Edge 277, Type (0, 0), BuildingBlock: AJUNOK_clean_linker_0, # of connection points: 2
#     Edge 278, Type (0, 0), BuildingBlock: AJUNOK_clean_linker_0, # of connection points: 2
#     Edge 279, Type (0, 0), BuildingBlock: AJUNOK_clean_linker_0, # of connection points: 2
#     Edge 280, Type (0, 0), BuildingBlock: AJUNOK_clean_linker_0, # of connection points: 2
#     Edge 281, Type (0, 0), BuildingBlock: AJUNOK_clean_linker_0, # of connection points: 2
#     Edge 282, Type (0, 0), BuildingBlock: AJUNOK_clean_linker_0, # of connection points: 2
#     Edge 283, Type (0, 0), BuildingBlock: AJUNOK_clean_linker_0, # of connection points: 2
#     Edge 284, Type (0, 0), BuildingBlock: AJUNOK_clean_linker_0, # of connection points: 2
#     Edge 285, Type (0, 0), BuildingBlock: AJUNOK_clean_linker_0, # of connection points: 2
#     Edge 286, Type (0, 0), BuildingBlock: AJUNOK_clean_linker_0, # of connection points: 2
#     Edge 287, Type (0, 0), BuildingBlock: AJUNOK_clean_linker_0, # of connection points: 2
# Relax obj value: 0.112
# Max RMSD: 0.145
# Mean RMSD: 0.145
data_MOF--net-ukw--node1-GALJAG_clean_sbu_0--edge1-AJUNOK_clean_linker_0
_symmetry_space_group_name_H-M    P1
_symmetry_Int_Tables_number       1
_symmetry_cell_setting            triclinic
loop_
_symmetry_equiv_pos_as_xyz
'x, y, z'
_cell_length_a     55.341617
_cell_length_b     55.345094
_cell_length_c     55.34073
_cell_angle_alpha  89.981832
_cell_angle_beta   90.01073
_cell_angle_gamma 90.027957
loop_
_atom_site_label
_atom_site_type_symbol
_atom_site_fract_x
_atom_site_fract_y
_atom_site_fract_z
_atom_type_partial_charge
In0 In 0.02767 0.09115 0.34654 0.0
O1 O 0.01564 0.12203 0.32269 0.0
O2 O 0.01074 0.08575 0.3101 0.0
C3 C 0.04088 0.10819 0.38969 0.0
C4 C 0.98665 0.07167 0.36287 0.0
C5 C 0.07188 0.08058 0.32998 0.0
O6 O 0.03172 0.12187 0.37374 0.0
O7 O 0.04396 0.08645 0.3834 0.0
O8 O 0.05847 0.06448 0.33937 0.0
O9 O 0.06266 0.10141 0.32874 0.0
C10 C 0.00781 0.10808 0.30626 0.0
O11 O 0.00229 0.05863 0.35225 0.0
O12 O 0.99201 0.0937 0.36493 0.0
In13 In 0.15324 0.77607 0.59666 0.0
O14 O 0.1213 0.76524 0.57373 0.0
O15 O 0.15636 0.7673 0.55731 0.0
C16 C 0.1405 0.78141 0.64309 0.0
C17 C 0.17537 0.73355 0.60203 0.0
C18 C 0.16154 0.82218 0.58468 0.0
O19 O 0.12486 0.77708 0.62689 0.0
O20 O 0.16189 0.78329 0.63549 0.0
O21 O 0.17876 0.80784 0.58954 0.0
O22 O 0.14063 0.81312 0.58585 0.0
C23 C 0.13416 0.76224 0.55496 0.0
O24 O 0.18744 0.75302 0.60046 0.0
O25 O 0.15272 0.73587 0.6011 0.0
In26 In 0.47513 0.91147 0.85119 0.0
O27 O 0.49506 0.94692 0.85982 0.0
O28 O 0.51524 0.91574 0.84927 0.0
C29 C 0.42756 0.91938 0.84584 0.0
C30 C 0.4871 0.89256 0.8085 0.0
C31 C 0.47653 0.89182 0.89558 0.0
O32 O 0.44269 0.93611 0.84196 0.0
O33 O 0.43647 0.89946 0.85221 0.0
O34 O 0.47739 0.87914 0.87657 0.0
O35 O 0.47516 0.91432 0.89205 0.0
C36 C 0.51556 0.93763 0.85541 0.0
O37 O 0.48548 0.87985 0.82745 0.0
O38 O 0.48103 0.91443 0.81092 0.0
In39 In 0.33913 0.21705 0.09646 0.0
O40 O 0.37066 0.22955 0.07364 0.0
O41 O 0.3355 0.22773 0.05749 0.0
C42 C 0.35464 0.21222 0.14233 0.0
C43 C 0.31401 0.25786 0.10214 0.0
C44 C 0.33174 0.17118 0.08268 0.0
O45 O 0.36901 0.2175 0.12532 0.0
O46 O 0.33303 0.20897 0.13586 0.0
O47 O 0.31445 0.18443 0.08969 0.0
O48 O 0.35231 0.181 0.083 0.0
C49 C 0.35757 0.23326 0.05517 0.0
O50 O 0.30332 0.23759 0.101 0.0
O51 O 0.33673 0.25713 0.10093 0.0
In52 In 0.02797 0.91913 0.14712 0.0
O53 O 0.01435 0.88835 0.17049 0.0
O54 O 0.01125 0.92456 0.18366 0.0
C55 C 0.03938 0.90013 0.10414 0.0
C56 C 0.98895 0.94315 0.13201 0.0
C57 C 0.0728 0.9278 0.16326 0.0
O58 O 0.02953 0.88751 0.12054 0.0
O59 O 0.04393 0.92175 0.10992 0.0
O60 O 0.06068 0.944 0.15248 0.0
O61 O 0.06212 0.90785 0.16597 0.0
C62 C 0.00734 0.90236 0.18721 0.0
O63 O 0.00521 0.95383 0.14417 0.0
O64 O 0.99281 0.92118 0.12753 0.0
In65 In 0.33725 0.7757 0.39772 0.0
O66 O 0.30101 0.75613 0.39221 0.0
O67 O 0.33417 0.73626 0.3898 0.0
C68 C 0.3317 0.82127 0.41333 0.0
C69 C 0.35484 0.75641 0.43806 0.0
C70 C 0.35315 0.78304 0.35238 0.0
O71 O 0.31386 0.80885 0.40606 0.0
O72 O 0.35183 0.81062 0.41266 0.0
O73 O 0.36728 0.7767 0.36922 0.0
O74 O 0.33146 0.78593 0.35873 0.0
C75 C 0.31142 0.73594 0.38902 0.0
O76 O 0.3682 0.76106 0.42001 0.0
O77 O 0.33294 0.76261 0.43593 0.0
In78 In 0.47006 0.08839 0.65029 0.0
O79 O 0.4817 0.12011 0.67333 0.0
O80 O 0.48081 0.08477 0.68914 0.0
C81 C 0.4635 0.10292 0.60438 0.0
C82 C 0.51151 0.06481 0.64322 0.0
C83 C 0.4247 0.07961 0.66458 0.0
O84 O 0.46934 0.11772 0.62084 0.0
O85 O 0.46072 0.08144 0.61143 0.0
O86 O 0.43869 0.06261 0.65829 0.0
O87 O 0.43359 0.10058 0.66327 0.0
C88 C 0.48572 0.10694 0.6917 0.0
O89 O 0.49164 0.05347 0.64487 0.0
O90 O 0.51014 0.08747 0.64501 0.0
In91 In 0.16437 0.22195 0.89744 0.0
O92 O 0.13263 0.23684 0.91872 0.0
O93 O 0.1682 0.24131 0.93297 0.0
C94 C 0.14544 0.20797 0.85517 0.0
C95 C 0.18922 0.2594 0.87948 0.0
C96 C 0.1739 0.1778 0.91532 0.0
O97 O 0.133 0.21932 0.87068 0.0
O98 O 0.16686 0.20321 0.86149 0.0
O99 O 0.19003 0.1904 0.90503 0.0
O100 O 0.15358 0.18794 0.91723 0.0
C101 C 0.14588 0.24531 0.93536 0.0
O102 O 0.19924 0.24461 0.89383 0.0
O103 O 0.16746 0.25502 0.87454 0.0
In104 In 0.34816 0.02144 0.0779 0.0
O105 O 0.35394 0.00502 0.04008 0.0
O106 O 0.35035 0.98162 0.07051 0.0
C107 C 0.33532 0.06809 0.07275 0.0
C108 C 0.30838 0.00517 0.09952 0.0
C109 C 0.39396 0.02405 0.09443 0.0
O110 O 0.34069 0.0551 0.05471 0.0
O111 O 0.33623 0.05747 0.09284 0.0
O112 O 0.37673 0.01723 0.10774 0.0
O113 O 0.38785 0.02975 0.07327 0.0
C114 C 0.35362 0.98359 0.04809 0.0
O115 O 0.32788 0.00893 0.1109 0.0
O116 O 0.3089 0.01016 0.0772 0.0
In117 In 0.21978 0.096 0.34296 0.0
O118 O 0.24514 0.09998 0.3103 0.0
O119 O 0.25726 0.11085 0.34538 0.0
C120 C 0.17503 0.08283 0.32941 0.0
C121 C 0.23769 0.05494 0.3606 0.0
C122 C 0.21006 0.13923 0.3623 0.0
O123 O 0.18948 0.09283 0.3147 0.0
O124 O 0.18345 0.07932 0.35027 0.0
O125 O 0.2117 0.12043 0.37526 0.0
O126 O 0.21248 0.13593 0.33987 0.0
C127 C 0.26203 0.10871 0.32319 0.0
O128 O 0.23161 0.07232 0.37419 0.0
O129 O 0.23401 0.05824 0.3383 0.0
In130 In 0.14697 0.97173 0.58951 0.0
O131 O 0.14102 0.99384 0.55493 0.0
O132 O 0.14284 0.0119 0.58913 0.0
C133 C 0.15889 0.92558 0.58113 0.0
C134 C 0.1896 0.98643 0.60575 0.0
C135 C 0.10167 0.9672 0.60633 0.0
O136 O 0.15194 0.93934 0.56417 0.0
O137 O 0.15955 0.93513 0.60182 0.0
O138 O 0.11919 0.97179 0.62034 0.0
O139 O 0.10737 0.96454 0.58443 0.0
C140 C 0.14051 0.01363 0.56654 0.0
O141 O 0.17186 0.98276 0.61985 0.0
O142 O 0.18587 0.98149 0.58374 0.0
In143 In 0.27717 0.9 0.84294 0.0
O144 O 0.26274 0.92288 0.8734 0.0
O145 O 0.26671 0.93887 0.83827 0.0
C146 C 0.28431 0.85384 0.85535 0.0
C147 C 0.23697 0.89119 0.81805 0.0
C148 C 0.32364 0.91327 0.8416 0.0
O149 O 0.27654 0.8692 0.87052 0.0
O150 O 0.28817 0.86203 0.83439 0.0
O151 O 0.31124 0.9118 0.82229 0.0
O152 O 0.31231 0.90835 0.8608 0.0
C153 C 0.25981 0.94126 0.85995 0.0
O154 O 0.25714 0.89356 0.80725 0.0
O155 O 0.23753 0.89323 0.84075 0.0
In156 In 0.35119 0.97026 0.40729 0.0
O157 O 0.36097 0.99147 0.44148 0.0
O158 O 0.35579 0.01047 0.40813 0.0
C159 C 0.33914 0.92437 0.41766 0.0
C160 C 0.30843 0.98659 0.39263 0.0
C161 C 0.39457 0.96538 0.38603 0.0
O162 O 0.3476 0.93833 0.43373 0.0
O163 O 0.33693 0.93366 0.397 0.0
O164 O 0.37526 0.96625 0.37382 0.0
O165 O 0.39178 0.96638 0.40859 0.0
C166 C 0.36087 0.01152 0.43031 0.0
O167 O 0.32567 0.98272 0.37804 0.0
O168 O 0.31269 0.98131 0.41447 0.0
In169 In 0.27759 0.09596 0.65634 0.0
O170 O 0.25181 0.10111 0.6885 0.0
O171 O 0.24143 0.11331 0.65329 0.0
C172 C 0.32179 0.08087 0.66853 0.0
C173 C 0.25948 0.05501 0.63899 0.0
C174 C 0.29086 0.13917 0.63938 0.0
O175 O 0.30765 0.09011 0.68404 0.0
O176 O 0.3132 0.07875 0.64749 0.0
O177 O 0.2822 0.1231 0.62552 0.0
O178 O 0.29319 0.13304 0.66124 0.0
C179 C 0.23598 0.11124 0.67531 0.0
O180 O 0.26677 0.07181 0.6252 0.0
O181 O 0.26201 0.05889 0.66137 0.0
In182 In 0.15052 0.03052 0.91031 0.0
O183 O 0.14666 0.00485 0.94274 0.0
O184 O 0.13391 0.99398 0.90781 0.0
C185 C 0.16682 0.07495 0.92025 0.0
C186 C 0.19097 0.01144 0.89294 0.0
C187 C 0.10618 0.04225 0.89511 0.0
O188 O 0.15772 0.0617 0.93664 0.0
O189 O 0.16759 0.06562 0.89944 0.0
O190 O 0.12227 0.03492 0.88051 0.0
O191 O 0.11295 0.04419 0.91685 0.0
C192 C 0.13682 0.98862 0.92978 0.0
O193 O 0.1741 0.01856 0.87911 0.0
O194 O 0.18745 0.01473 0.91528 0.0
In195 In 0.22043 0.90106 0.16194 0.0
O196 O 0.23976 0.89595 0.19841 0.0
O197 O 0.25994 0.89325 0.16555 0.0
C198 C 0.17543 0.91771 0.16908 0.0
C199 C 0.23914 0.94049 0.14174 0.0
C200 C 0.21205 0.85568 0.14654 0.0
O201 O 0.18854 0.91075 0.18652 0.0
O202 O 0.18516 0.91634 0.14852 0.0
O203 O 0.2204 0.87175 0.13258 0.0
O204 O 0.20776 0.86277 0.16776 0.0
C205 C 0.26004 0.89269 0.1883 0.0
O206 O 0.23351 0.92205 0.12936 0.0
O207 O 0.23431 0.93918 0.16403 0.0
In208 In 0.08605 0.3508 0.02673 0.0
O209 O 0.05117 0.35236 0.00395 0.0
O210 O 0.08263 0.37156 0.99232 0.0
C211 C 0.07504 0.33406 0.07121 0.0
C212 C 0.10621 0.31343 0.00374 0.0
C213 C 0.10643 0.39346 0.03756 0.0
O214 O 0.05987 0.34571 0.05866 0.0
O215 O 0.09507 0.3306 0.06102 0.0
O216 O 0.11897 0.37493 0.0329 0.0
O217 O 0.08387 0.39009 0.03779 0.0
C218 C 0.06093 0.36602 0.98834 0.0
O219 O 0.11857 0.3308 0.01198 0.0
O220 O 0.08376 0.31482 0.00756 0.0
In221 In 0.59279 0.14655 0.96967 0.0
O222 O 0.56 0.13859 0.99392 0.0
O223 O 0.59576 0.13061 0.00649 0.0
C224 C 0.58155 0.16173 0.92505 0.0
C225 C 0.60639 0.18788 0.98992 0.0
C226 C 0.6141 0.10459 0.95899 0.0
O227 O 0.5662 0.15073 0.93807 0.0
O228 O 0.60194 0.16489 0.9347 0.0
O229 O 0.62634 0.12355 0.9629 0.0
O230 O 0.59143 0.1072 0.95966 0.0
C231 C 0.57335 0.13022 0.01065 0.0
O232 O 0.62156 0.17202 0.98334 0.0
O233 O 0.58452 0.18297 0.98553 0.0
In234 In 0.09795 0.3349 0.21845 0.0
O235 O 0.09596 0.30007 0.24126 0.0
O236 O 0.11983 0.32855 0.25176 0.0
C237 C 0.08 0.32539 0.1741 0.0
C238 C 0.063 0.35714 0.24326 0.0
C239 C 0.14124 0.35332 0.20682 0.0
O240 O 0.0921 0.30986 0.18574 0.0
O241 O 0.07666 0.34498 0.18513 0.0
O242 O 0.12319 0.36673 0.21097 0.0
O243 O 0.13714 0.3309 0.2077 0.0
C244 C 0.11132 0.30795 0.25633 0.0
O245 O 0.08125 0.36834 0.23524 0.0
O246 O 0.06223 0.33493 0.23813 0.0
In247 In 0.90998 0.85057 0.47068 0.0
O248 O 0.9424 0.8544 0.49653 0.0
O249 O 0.90766 0.86778 0.50698 0.0
C250 C 0.92158 0.83575 0.42602 0.0
C251 C 0.89219 0.81005 0.48946 0.0
C252 C 0.89291 0.89431 0.45919 0.0
O253 O 0.93713 0.8455 0.43977 0.0
O254 O 0.9008 0.83322 0.43509 0.0
O255 O 0.87903 0.87762 0.46656 0.0
O256 O 0.91487 0.88844 0.457 0.0
C257 C 0.92952 0.86468 0.51254 0.0
O258 O 0.8786 0.82687 0.48184 0.0
O259 O 0.9146 0.81357 0.48675 0.0
In260 In 0.89622 0.15738 0.21865 0.0
O261 O 0.89171 0.19028 0.24343 0.0
O262 O 0.87919 0.15549 0.25503 0.0
C263 C 0.91156 0.16731 0.17401 0.0
C264 C 0.93715 0.14121 0.23778 0.0
C265 C 0.85228 0.14169 0.20634 0.0
O266 O 0.90318 0.18369 0.18771 0.0
O267 O 0.91257 0.14643 0.1832 0.0
O268 O 0.86814 0.12733 0.21462 0.0
O269 O 0.85899 0.1634 0.20403 0.0
C270 C 0.88178 0.17762 0.25982 0.0
O271 O 0.92041 0.12689 0.2313 0.0
O272 O 0.93323 0.16334 0.23375 0.0
In273 In 0.40997 0.64842 0.52792 0.0
O274 O 0.44262 0.64289 0.5027 0.0
O275 O 0.40795 0.62865 0.49303 0.0
C276 C 0.42066 0.66591 0.57173 0.0
C277 C 0.391 0.68735 0.50703 0.0
C278 C 0.39489 0.60507 0.54294 0.0
O279 O 0.43685 0.65702 0.55814 0.0
O280 O 0.39971 0.66663 0.56273 0.0
O281 O 0.38035 0.62021 0.53373 0.0
O282 O 0.41649 0.61221 0.54489 0.0
C283 C 0.42994 0.63106 0.48763 0.0
O284 O 0.37792 0.67045 0.51532 0.0
O285 O 0.41351 0.68465 0.50995 0.0
In286 In 0.09633 0.64818 0.27578 0.0
O287 O 0.07165 0.61803 0.26344 0.0
O288 O 0.05732 0.6539 0.26578 0.0
C289 C 0.14093 0.62935 0.28014 0.0
C290 C 0.10385 0.67255 0.23487 0.0
C291 C 0.08492 0.6578 0.3219 0.0
O292 O 0.12232 0.61606 0.27938 0.0
O293 O 0.13686 0.65171 0.27905 0.0
O294 O 0.0916 0.67435 0.30756 0.0
O295 O 0.08406 0.63694 0.31284 0.0
C296 C 0.05374 0.63199 0.26036 0.0
O297 O 0.10383 0.68322 0.25518 0.0
O298 O 0.10026 0.65004 0.23551 0.0
In299 In 0.39697 0.34679 0.77442 0.0
O300 O 0.42258 0.3767 0.76366 0.0
O301 O 0.43715 0.34155 0.7703 0.0
C302 C 0.35303 0.36707 0.77246 0.0
C303 C 0.39158 0.32003 0.73456 0.0
C304 C 0.40154 0.34136 0.82236 0.0
O305 O 0.37219 0.37955 0.77133 0.0
O306 O 0.3562 0.34455 0.77427 0.0
O307 O 0.40416 0.32346 0.80829 0.0
O308 O 0.39662 0.36107 0.81214 0.0
C309 C 0.44101 0.36314 0.76392 0.0
O310 O 0.38776 0.31117 0.75538 0.0
O311 O 0.39835 0.34179 0.73426 0.0
In312 In 0.96892 0.91348 0.65212 0.0
O313 O 0.99083 0.94893 0.65125 0.0
O314 O 0.00189 0.91907 0.62946 0.0
C315 C 0.92449 0.92148 0.67009 0.0
C316 C 0.99327 0.89481 0.6893 0.0
C317 C 0.95643 0.89532 0.60901 0.0
O318 O 0.93664 0.93807 0.66001 0.0
O319 O 0.93514 0.90139 0.67163 0.0
O320 O 0.9676 0.88271 0.62453 0.0
O321 O 0.9511 0.91649 0.61572 0.0
C322 C 0.00602 0.9403 0.63644 0.0
O323 O 0.98497 0.88162 0.67252 0.0
O324 O 0.98835 0.91699 0.68755 0.0
In325 In 0.83352 0.22077 0.39797 0.0
O326 O 0.86535 0.23135 0.42116 0.0
O327 O 0.82964 0.2379 0.43456 0.0
C328 C 0.85085 0.20713 0.35511 0.0
C329 C 0.81487 0.26216 0.38146 0.0
C330 C 0.82175 0.1767 0.41426 0.0
O331 O 0.86443 0.21621 0.37117 0.0
O332 O 0.829 0.20433 0.36115 0.0
O333 O 0.80608 0.19034 0.4045 0.0
O334 O 0.8426 0.18573 0.41624 0.0
C335 C 0.85218 0.23967 0.43794 0.0
O336 O 0.80161 0.24715 0.39271 0.0
O337 O 0.83665 0.25607 0.379 0.0
In338 In 0.52551 0.07577 0.14556 0.0
O339 O 0.50312 0.04075 0.14314 0.0
O340 O 0.49369 0.07102 0.12114 0.0
C341 C 0.5689 0.06668 0.16535 0.0
C342 C 0.50039 0.09498 0.18197 0.0
C343 C 0.54136 0.09428 0.10372 0.0
O344 O 0.55694 0.05046 0.15447 0.0
O345 O 0.55845 0.08687 0.1669 0.0
O346 O 0.52913 0.10682 0.11847 0.0
O347 O 0.54565 0.07288 0.11042 0.0
C348 C 0.48889 0.04975 0.12761 0.0
O349 O 0.50943 0.10792 0.16537 0.0
O350 O 0.5047 0.07266 0.18031 0.0
In351 In 0.65433 0.77484 0.90173 0.0
O352 O 0.62286 0.76429 0.92539 0.0
O353 O 0.65868 0.76262 0.94014 0.0
C354 C 0.63823 0.78301 0.8567 0.0
C355 C 0.67617 0.7327 0.89333 0.0
C356 C 0.66436 0.81991 0.91617 0.0
O357 O 0.62406 0.77639 0.8734 0.0
O358 O 0.65997 0.78569 0.86302 0.0
O359 O 0.68087 0.80576 0.90893 0.0
O360 O 0.64329 0.81118 0.91604 0.0
C361 C 0.63631 0.75891 0.94318 0.0
O362 O 0.68837 0.75203 0.89532 0.0
O363 O 0.65359 0.73501 0.89507 0.0
In364 In 0.96832 0.08697 0.84906 0.0
O365 O 0.99362 0.05428 0.85375 0.0
O366 O 0.00457 0.08929 0.86626 0.0
C367 C 0.9236 0.07539 0.83431 0.0
C368 C 0.98807 0.10423 0.80887 0.0
C369 C 0.95777 0.10666 0.89182 0.0
O370 O 0.93684 0.06012 0.84514 0.0
O371 O 0.93326 0.09567 0.83067 0.0
O372 O 0.9613 0.11954 0.87322 0.0
O373 O 0.95857 0.08411 0.88847 0.0
C374 C 0.00962 0.0672 0.86399 0.0
O375 O 0.98079 0.11792 0.8257 0.0
O376 O 0.98477 0.08187 0.81225 0.0
In377 In 0.65678 0.21765 0.59711 0.0
O378 O 0.69222 0.23797 0.6044 0.0
O379 O 0.65933 0.25791 0.6004 0.0
C380 C 0.66654 0.17166 0.58506 0.0
C381 C 0.64079 0.23359 0.5547 0.0
C382 C 0.63571 0.21314 0.64075 0.0
O383 O 0.68278 0.18552 0.59332 0.0
O384 O 0.64593 0.18109 0.58312 0.0
O385 O 0.62352 0.21436 0.62147 0.0
O386 O 0.65828 0.21414 0.63789 0.0
C387 C 0.68186 0.25841 0.60373 0.0
O388 O 0.62682 0.2307 0.57263 0.0
O389 O 0.66251 0.22738 0.55808 0.0
In390 In 0.52813 0.90799 0.34726 0.0
O391 O 0.51571 0.87599 0.32502 0.0
O392 O 0.51668 0.91096 0.30844 0.0
C393 C 0.53416 0.89219 0.3929 0.0
C394 C 0.48779 0.93374 0.35431 0.0
C395 C 0.57368 0.91538 0.33228 0.0
O396 O 0.52712 0.87823 0.37621 0.0
O397 O 0.53848 0.91356 0.38626 0.0
O398 O 0.56026 0.9328 0.33864 0.0
O399 O 0.56415 0.89473 0.33387 0.0
C400 C 0.51156 0.88876 0.30643 0.0
O401 O 0.50825 0.94403 0.35309 0.0
O402 O 0.48808 0.91108 0.35219 0.0
In403 In 0.84198 0.7782 0.10046 0.0
O404 O 0.80681 0.75599 0.10012 0.0
O405 O 0.83727 0.7431 0.12001 0.0
C406 C 0.82941 0.82317 0.08654 0.0
C407 C 0.86204 0.75667 0.06209 0.0
C408 C 0.86386 0.78786 0.14271 0.0
O409 O 0.8155 0.81009 0.09907 0.0
O410 O 0.849 0.81326 0.08065 0.0
O411 O 0.87571 0.78523 0.12334 0.0
O412 O 0.84123 0.78615 0.14053 0.0
C413 C 0.81574 0.73965 0.11344 0.0
O414 O 0.87443 0.76352 0.08004 0.0
O415 O 0.83972 0.76111 0.06349 0.0
In416 In 0.65423 0.96918 0.90661 0.0
O417 O 0.64675 0.99079 0.94115 0.0
O418 O 0.65059 0.00942 0.90744 0.0
C419 C 0.66488 0.92319 0.91793 0.0
C420 C 0.69666 0.98513 0.89073 0.0
C421 C 0.61044 0.96537 0.88578 0.0
O422 O 0.65666 0.93773 0.93356 0.0
O423 O 0.6678 0.93202 0.89716 0.0
O424 O 0.62966 0.9659 0.87343 0.0
O425 O 0.61351 0.96639 0.90832 0.0
C426 C 0.6471 0.01078 0.9299 0.0
O427 O 0.6792 0.9808 0.87654 0.0
O428 O 0.69297 0.97995 0.91269 0.0
In429 In 0.77783 0.89656 0.66474 0.0
O430 O 0.76651 0.91975 0.63316 0.0
O431 O 0.76062 0.93301 0.66903 0.0
C432 C 0.79102 0.85391 0.64655 0.0
C433 C 0.73665 0.88037 0.68424 0.0
C434 C 0.82174 0.91359 0.67605 0.0
O435 O 0.78192 0.87027 0.63336 0.0
O436 O 0.79415 0.85958 0.66846 0.0
O437 O 0.8088 0.90288 0.69169 0.0
O438 O 0.81229 0.9157 0.65541 0.0
C439 C 0.75837 0.93645 0.64655 0.0
O440 O 0.752 0.89158 0.69714 0.0
O441 O 0.74239 0.87765 0.66239 0.0
In442 In 0.8469 0.03019 0.40949 0.0
O443 O 0.82519 0.01541 0.37799 0.0
O444 O 0.81116 0.01172 0.41385 0.0
C445 C 0.89042 0.04423 0.39376 0.0
C446 C 0.86267 0.99042 0.43171 0.0
C447 C 0.82818 0.07394 0.41865 0.0
O448 O 0.875 0.03493 0.37956 0.0
O449 O 0.88343 0.04683 0.41535 0.0
O450 O 0.83802 0.06141 0.43515 0.0
O451 O 0.82765 0.06414 0.39805 0.0
C452 C 0.80863 0.00725 0.39161 0.0
O453 O 0.8503 0.00602 0.44312 0.0
O454 O 0.86723 0.99544 0.40997 0.0
In455 In 0.71474 0.09408 0.16139 0.0
O456 O 0.74015 0.10038 0.19374 0.0
O457 O 0.75028 0.11253 0.1584 0.0
C458 C 0.67116 0.07608 0.17185 0.0
C459 C 0.73516 0.05391 0.14496 0.0
C460 C 0.70093 0.13696 0.14413 0.0
O461 O 0.6839 0.08635 0.18795 0.0
O462 O 0.68059 0.07502 0.1511 0.0
O463 O 0.71034 0.12108 0.13055 0.0
O464 O 0.69781 0.13069 0.16588 0.0
C465 C 0.75573 0.11082 0.18045 0.0
O466 O 0.72707 0.07003 0.13078 0.0
O467 O 0.73219 0.05803 0.16723 0.0
In468 In 0.64875 0.02397 0.59337 0.0
O469 O 0.64429 -0.00084 0.56039 0.0
O470 O 0.63286 0.98705 0.59537 0.0
C471 C 0.66355 0.06858 0.58172 0.0
C472 C 0.68935 0.00474 0.61028 0.0
C473 C 0.60566 0.0341 0.61255 0.0
O474 O 0.65301 0.0552 0.56637 0.0
O475 O 0.66648 0.05927 0.60229 0.0
O476 O 0.62423 0.03135 0.62566 0.0
O477 O 0.60917 0.0327 0.59005 0.0
C478 C 0.63497 0.98247 0.57314 0.0
O479 O 0.67224 0.01107 0.62413 0.0
O480 O 0.68599 0.00884 0.58806 0.0
In481 In 0.72134 0.89777 0.3337 0.0
O482 O 0.73486 0.91842 0.3664 0.0
O483 O 0.73841 0.93457 0.33148 0.0
C484 C 0.70755 0.85461 0.35058 0.0
C485 C 0.76077 0.88336 0.3098 0.0
C486 C 0.67671 0.91369 0.32353 0.0
O487 O 0.71752 0.87007 0.36424 0.0
O488 O 0.70468 0.86117 0.32891 0.0
O489 O 0.68986 0.9038 0.3076 0.0
O490 O 0.68659 0.91641 0.34389 0.0
C491 C 0.74223 0.93616 0.35393 0.0
O492 O 0.74543 0.89713 0.2998 0.0
O493 O 0.75571 0.87682 0.331 0.0
In494 In 0.84635 0.97249 0.08777 0.0
O495 O 0.85116 0.992 0.05142 0.0
O496 O 0.84975 0.0126 0.08409 0.0
C497 C 0.83281 0.9264 0.08146 0.0
C498 C 0.80558 0.98768 0.10798 0.0
C499 C 0.89238 0.96831 0.10291 0.0
O500 O 0.83832 0.9397 0.06365 0.0
O501 O 0.83449 0.93633 0.10189 0.0
O502 O 0.87563 0.97466 0.1171 0.0
O503 O 0.88563 0.96377 0.08163 0.0
C504 C 0.85179 0.01261 0.06143 0.0
O505 O 0.82463 0.98411 0.12022 0.0
O506 O 0.80713 0.98288 0.08568 0.0
In507 In 0.77569 0.0998 0.8365 0.0
O508 O 0.76395 0.07756 0.86865 0.0
O509 O 0.76478 0.06082 0.83373 0.0
C510 C 0.78294 0.14531 0.85209 0.0
C511 C 0.73513 0.1072 0.81113 0.0
C512 C 0.82096 0.08398 0.82958 0.0
O513 O 0.77482 0.12904 0.86596 0.0
O514 O 0.78756 0.13835 0.83088 0.0
O515 O 0.80776 0.09032 0.81194 0.0
O516 O 0.81141 0.08618 0.85015 0.0
C517 C 0.76029 0.05874 0.85606 0.0
O518 O 0.75551 0.10615 0.80069 0.0
O519 O 0.73556 0.10463 0.83374 0.0
In520 In 0.91716 0.64855 0.97279 0.0
O521 O 0.88657 0.67012 0.98897 0.0
O522 O 0.9212 0.68705 0.98589 0.0
C523 C 0.89592 0.60479 0.96882 0.0
C524 C 0.94664 0.6403 0.01026 0.0
C525 C 0.92371 0.66278 0.92658 0.0
O526 O 0.88383 0.62404 0.97063 0.0
O527 O 0.91847 0.60772 0.96864 0.0
O528 O 0.94051 0.65295 0.93857 0.0
O529 O 0.90422 0.6654 0.93795 0.0
C530 C 0.89951 0.68857 0.99296 0.0
O531 O 0.95479 0.64097 0.98886 0.0
O532 O 0.92423 0.64362 0.01234 0.0
In533 In 0.41057 0.84917 0.0214 0.0
O534 O 0.44777 0.8618 0.00782 0.0
O535 O 0.42328 0.8455 0.98299 0.0
C536 C 0.41454 0.84392 0.06972 0.0
C537 C 0.3904 0.80774 0.00672 0.0
C538 C 0.38912 0.89255 0.01672 0.0
O539 O 0.43121 0.83688 0.05577 0.0
O540 O 0.39673 0.85335 0.05928 0.0
O541 O 0.37725 0.87302 0.01674 0.0
O542 O 0.4117 0.89006 0.01874 0.0
C543 C 0.44346 0.85547 0.98625 0.0
O544 O 0.37908 0.82758 0.00673 0.0
O545 O 0.41157 0.80869 0.01521 0.0
In546 In 0.8963 0.65526 0.77932 0.0
O547 O 0.9208 0.62496 0.76695 0.0
O548 O 0.93316 0.66153 0.76398 0.0
C549 C 0.85281 0.63855 0.79191 0.0
C550 C 0.88136 0.67461 0.7377 0.0
C551 C 0.9126 0.66534 0.82368 0.0
O552 O 0.86895 0.62464 0.78346 0.0
O553 O 0.85906 0.66037 0.79452 0.0
O554 O 0.90351 0.68165 0.81032 0.0
O555 O 0.91356 0.64451 0.8144 0.0
C556 C 0.93735 0.63939 0.76027 0.0
O557 O 0.8909 0.68778 0.75393 0.0
O558 O 0.87951 0.65249 0.74284 0.0
In559 In 0.08767 0.15059 0.52838 0.0
O560 O 0.0553 0.14539 0.50298 0.0
O561 O 0.09089 0.13578 0.49107 0.0
C562 C 0.07489 0.16351 0.57324 0.0
C563 C 0.10203 0.19263 0.51008 0.0
C564 C 0.10862 0.1081 0.53796 0.0
O565 O 0.06012 0.15286 0.5593 0.0
O566 O 0.09541 0.16765 0.56428 0.0
O567 O 0.12097 0.12723 0.53534 0.0
O568 O 0.08601 0.11073 0.53639 0.0
C569 C 0.06867 0.13725 0.48618 0.0
O570 O 0.11698 0.17642 0.5163 0.0
O571 O 0.08008 0.18774 0.51402 0.0
In572 In 0.10129 0.83533 0.77817 0.0
O573 O 0.10093 0.80031 0.75562 0.0
O574 O 0.12092 0.83099 0.74324 0.0
C575 C 0.08556 0.82432 0.82298 0.0
C576 C 0.06379 0.85581 0.75571 0.0
C577 C 0.14422 0.85582 0.78781 0.0
O578 O 0.0982 0.80968 0.8108 0.0
O579 O 0.08078 0.84384 0.81236 0.0
O580 O 0.12533 0.86831 0.78465 0.0
O581 O 0.14114 0.83323 0.78705 0.0
C582 C 0.11437 0.80953 0.73952 0.0
O583 O 0.08169 0.86796 0.7631 0.0
O584 O 0.06473 0.83345 0.76016 0.0
In585 In 0.59135 0.34779 0.47465 0.0
O586 O 0.55573 0.35307 0.4953 0.0
O587 O 0.58871 0.34902 0.51504 0.0
C588 C 0.58135 0.33886 0.42793 0.0
C589 C 0.6089 0.30507 0.48781 0.0
C590 C 0.61246 0.39163 0.47283 0.0
O591 O 0.5655 0.34736 0.44205 0.0
O592 O 0.60158 0.33486 0.43749 0.0
O593 O 0.62461 0.37232 0.4727 0.0
O594 O 0.5899 0.38871 0.47365 0.0
C595 C 0.56613 0.35184 0.5157 0.0
O596 O 0.62217 0.3236 0.48564 0.0
O597 O 0.58684 0.30809 0.4826 0.0
In598 In 0.90202 0.3374 0.71764 0.0
O599 O 0.9256 0.36825 0.73051 0.0
O600 O 0.93877 0.33207 0.73401 0.0
C601 C 0.85918 0.3565 0.7061 0.0
C602 C 0.88745 0.31832 0.75943 0.0
C603 C 0.91736 0.3245 0.67351 0.0
O604 O 0.87779 0.3696 0.70872 0.0
O605 O 0.86254 0.33405 0.70842 0.0
O606 O 0.90617 0.30969 0.68698 0.0
O607 O 0.92079 0.3451 0.68256 0.0
C608 C 0.94227 0.35431 0.7378 0.0
O609 O 0.89725 0.30515 0.74336 0.0
O610 O 0.88511 0.34034 0.75405 0.0
In611 In 0.59943 0.65244 0.21954 0.0
O612 O 0.59985 0.68768 0.24157 0.0
O613 O 0.61992 0.65709 0.25395 0.0
C614 C 0.58211 0.66301 0.17526 0.0
C615 C 0.56276 0.63211 0.24349 0.0
C616 C 0.64251 0.6331 0.20859 0.0
O617 O 0.59392 0.67828 0.18752 0.0
O618 O 0.57895 0.64296 0.18553 0.0
O619 O 0.62423 0.62007 0.21299 0.0
O620 O 0.63872 0.65558 0.20893 0.0
C621 C 0.61351 0.67862 0.25759 0.0
O622 O 0.58033 0.61986 0.23551 0.0
O623 O 0.56352 0.6544 0.23872 0.0
In624 In 0.52359 0.58472 0.84643 0.0
O625 O 0.49974 0.55111 0.85287 0.0
O626 O 0.48795 0.58586 0.86503 0.0
C627 C 0.56792 0.57523 0.82957 0.0
C628 C 0.50371 0.6015 0.80605 0.0
C629 C 0.53682 0.60274 0.88922 0.0
O630 O 0.55501 0.55881 0.83909 0.0
O631 O 0.55817 0.59581 0.82841 0.0
O632 O 0.52658 0.6158 0.87343 0.0
O633 O 0.54088 0.58117 0.88295 0.0
C634 C 0.48369 0.56354 0.86358 0.0
O635 O 0.51108 0.61545 0.82266 0.0
O636 O 0.50683 0.5792 0.80988 0.0
In637 In 0.65464 0.27589 0.10124 0.0
O638 O 0.68668 0.24988 0.10569 0.0
O639 O 0.6514 0.23902 0.11729 0.0
C640 C 0.66878 0.3197 0.08605 0.0
C641 C 0.63739 0.25719 0.06048 0.0
C642 C 0.63486 0.28789 0.14368 0.0
O643 O 0.68319 0.30579 0.09719 0.0
O644 O 0.6479 0.31126 0.08266 0.0
O645 O 0.62214 0.28513 0.12484 0.0
O646 O 0.65733 0.28516 0.14082 0.0
C647 C 0.6734 0.23357 0.11489 0.0
O648 O 0.62359 0.26372 0.07755 0.0
O649 O 0.65967 0.26075 0.06399 0.0
In650 In 0.9735 0.41798 0.35035 0.0
O651 O 0.99646 0.45269 0.35126 0.0
O652 O 0.00643 0.42261 0.37331 0.0
C653 C 0.92938 0.4274 0.33237 0.0
C654 C 0.99731 0.39861 0.31319 0.0
C655 C 0.95934 0.39989 0.39298 0.0
O656 O 0.94176 0.44345 0.34301 0.0
O657 O 0.93972 0.40722 0.33013 0.0
O658 O 0.97024 0.38694 0.37754 0.0
O659 O 0.95554 0.42146 0.38656 0.0
C660 C 0.01127 0.44368 0.36624 0.0
O661 O 0.9888 0.38568 0.33007 0.0
O662 O 0.99297 0.42092 0.31489 0.0
In663 In 0.83964 0.71856 0.59719 0.0
O664 O 0.87083 0.73224 0.57435 0.0
O665 O 0.83469 0.73593 0.56102 0.0
C666 C 0.85422 0.70363 0.64077 0.0
C667 C 0.81937 0.75908 0.61332 0.0
C668 C 0.82956 0.6752 0.5786 0.0
O669 O 0.86896 0.71283 0.62578 0.0
O670 O 0.83271 0.70167 0.63335 0.0
O671 O 0.81315 0.68834 0.58779 0.0
O672 O 0.85056 0.68419 0.57878 0.0
C673 C 0.85694 0.73985 0.55772 0.0
O674 O 0.80683 0.74335 0.60222 0.0
O675 O 0.84138 0.75391 0.61625 0.0
In676 In 0.52871 0.40248 0.65272 0.0
O677 O 0.51624 0.37431 0.67948 0.0
O678 O 0.51924 0.41107 0.69124 0.0
C679 C 0.53384 0.38084 0.6096 0.0
C680 C 0.48721 0.42541 0.64366 0.0
C681 C 0.57482 0.41231 0.66387 0.0
O682 O 0.53239 0.36876 0.62897 0.0
O683 O 0.53281 0.40344 0.61218 0.0
O684 O 0.56102 0.42843 0.65521 0.0
O685 O 0.56529 0.3918 0.66654 0.0
C686 C 0.5134 0.38957 0.69636 0.0
O687 O 0.50722 0.43667 0.6437 0.0
O688 O 0.48848 0.40307 0.64806 0.0
In689 In 0.83601 0.27997 0.89814 0.0
O690 O 0.86639 0.26607 0.92181 0.0
O691 O 0.83009 0.26418 0.93496 0.0
C692 C 0.85458 0.29161 0.85508 0.0
C693 C 0.81247 0.24064 0.88275 0.0
C694 C 0.82793 0.32492 0.91417 0.0
O695 O 0.86731 0.28158 0.87128 0.0
O696 O 0.83302 0.29622 0.86108 0.0
O697 O 0.8112 0.31236 0.90473 0.0
O698 O 0.84815 0.3145 0.91577 0.0
C699 C 0.85217 0.25976 0.93865 0.0
O700 O 0.80134 0.25722 0.89404 0.0
O701 O 0.83467 0.24434 0.8793 0.0
In702 In 0.97519 0.58478 0.1454 0.0
O703 O 0.98613 0.61516 0.17048 0.0
O704 O 0.97891 0.58047 0.18577 0.0
C705 C 0.97835 0.60536 0.10157 0.0
C706 C 0.01461 0.55733 0.14059 0.0
C707 C 0.92728 0.57852 0.14886 0.0
O708 O 0.97873 0.61769 0.12085 0.0
O709 O 0.97658 0.58281 0.10459 0.0
O710 O 0.94162 0.56124 0.15331 0.0
O711 O 0.93716 0.5981 0.14285 0.0
C712 C 0.98588 0.60194 0.18917 0.0
O713 O 0.9938 0.54905 0.13565 0.0
O714 O 0.01507 0.5788 0.14813 0.0
In715 In 0.65317 0.72046 0.39799 0.0
O716 O 0.62255 0.7335 0.42145 0.0
O717 O 0.65833 0.73295 0.43627 0.0
C718 C 0.64006 0.71202 0.35251 0.0
C719 C 0.67439 0.76136 0.38455 0.0
C720 C 0.65666 0.67376 0.4094 0.0
O721 O 0.62494 0.71927 0.36817 0.0
O722 O 0.6614 0.70881 0.36015 0.0
O723 O 0.67552 0.68684 0.40789 0.0
O724 O 0.63687 0.68462 0.40602 0.0
C725 C 0.63628 0.73822 0.4392 0.0
O726 O 0.68703 0.74396 0.39277 0.0
O727 O 0.65185 0.7579 0.38398 0.0
In728 In 0.84739 0.52865 0.58476 0.0
O729 O 0.85237 0.50287 0.55266 0.0
O730 O 0.8655 0.49277 0.58763 0.0
C731 C 0.83167 0.57265 0.57281 0.0
C732 C 0.80648 0.50941 0.60095 0.0
C733 C 0.89017 0.54288 0.60193 0.0
O734 O 0.84143 0.55886 0.5573 0.0
O735 O 0.8294 0.56381 0.59373 0.0
O736 O 0.87415 0.53407 0.61577 0.0
O737 O 0.8843 0.54454 0.57992 0.0
C738 C 0.86269 0.48709 0.56575 0.0
O739 O 0.82294 0.51648 0.6153 0.0
O740 O 0.81064 0.51296 0.57878 0.0
In741 In 0.71527 0.59531 0.84162 0.0
O742 O 0.74038 0.59893 0.80869 0.0
O743 O 0.75186 0.61226 0.84314 0.0
C744 C 0.67087 0.58077 0.82832 0.0
C745 C 0.73526 0.55514 0.85901 0.0
C746 C 0.70448 0.63796 0.86168 0.0
O747 O 0.68472 0.59172 0.81372 0.0
O748 O 0.67972 0.57705 0.84897 0.0
O749 O 0.70713 0.61906 0.87433 0.0
O750 O 0.70658 0.63504 0.83915 0.0
C751 C 0.7568 0.60906 0.82114 0.0
O752 O 0.72849 0.57216 0.87274 0.0
O753 O 0.73094 0.55824 0.83682 0.0
In754 In 0.65068 0.46649 0.08545 0.0
O755 O 0.67536 0.48066 0.11471 0.0
O756 O 0.6867 0.4831 0.07773 0.0
C757 C 0.60782 0.45269 0.10257 0.0
C758 C 0.63339 0.50647 0.0651 0.0
C759 C 0.668 0.4222 0.0775 0.0
O760 O 0.6235 0.46243 0.1162 0.0
O761 O 0.61418 0.44972 0.08082 0.0
O762 O 0.65863 0.43455 0.06055 0.0
O763 O 0.66876 0.4325 0.09786 0.0
C764 C 0.69127 0.48755 0.09967 0.0
O765 O 0.64376 0.49048 0.05227 0.0
O766 O 0.63206 0.502 0.08741 0.0
In767 In 0.78158 0.40314 0.33164 0.0
O768 O 0.75965 0.40052 0.29639 0.0
O769 O 0.74603 0.38448 0.32893 0.0
C770 C 0.82648 0.41998 0.32449 0.0
C771 C 0.75952 0.44235 0.34876 0.0
C772 C 0.79238 0.3589 0.34827 0.0
O773 O 0.81439 0.41055 0.30745 0.0
O774 O 0.81575 0.42096 0.34459 0.0
O775 O 0.78325 0.3749 0.36191 0.0
O776 O 0.79655 0.36573 0.32689 0.0
C777 C 0.74289 0.3888 0.3068 0.0
O778 O 0.76673 0.42557 0.36262 0.0
O779 O 0.76432 0.4395 0.32663 0.0
In780 In 0.84959 0.47357 0.91169 0.0
O781 O 0.82644 0.48689 0.881 0.0
O782 O 0.81076 0.48529 0.91634 0.0
C783 C 0.89302 0.46931 0.89009 0.0
C784 C 0.85857 0.51307 0.93815 0.0
C785 C 0.83571 0.42777 0.92054 0.0
O786 O 0.87366 0.47084 0.87812 0.0
O787 O 0.89034 0.46938 0.91268 0.0
O788 O 0.84455 0.44085 0.9371 0.0
O789 O 0.8344 0.4377 0.90016 0.0
C790 C 0.80811 0.49048 0.89422 0.0
O791 O 0.8592 0.49217 0.94753 0.0
O792 O 0.85322 0.51373 0.91602 0.0
In793 In 0.77661 0.59814 0.15109 0.0
O794 O 0.75709 0.60247 0.18742 0.0
O795 O 0.73673 0.60245 0.15439 0.0
C796 C 0.82334 0.58601 0.15247 0.0
C797 C 0.7607 0.55745 0.13156 0.0
C798 C 0.78171 0.64471 0.13913 0.0
O799 O 0.81068 0.58611 0.17163 0.0
O800 O 0.8122 0.59181 0.13342 0.0
O801 O 0.77465 0.62912 0.1239 0.0
O802 O 0.78594 0.63658 0.16006 0.0
C803 C 0.73658 0.60367 0.17713 0.0
O804 O 0.76289 0.57671 0.11931 0.0
O805 O 0.76749 0.55873 0.15337 0.0
In806 In 0.64769 0.52115 0.40866 0.0
O807 O 0.66798 0.50871 0.37541 0.0
O808 O 0.68796 0.51463 0.40792 0.0
C809 C 0.60119 0.51933 0.39444 0.0
C810 C 0.64482 0.48336 0.43876 0.0
C811 C 0.65436 0.56913 0.41239 0.0
O812 O 0.61841 0.51543 0.37988 0.0
O813 O 0.60766 0.52389 0.41584 0.0
O814 O 0.65954 0.55518 0.42978 0.0
O815 O 0.64632 0.55878 0.39378 0.0
C816 C 0.68817 0.50776 0.38614 0.0
O817 O 0.64203 0.50477 0.44642 0.0
O818 O 0.64931 0.48148 0.41653 0.0
In819 In 0.72342 0.39608 0.65136 0.0
O820 O 0.74535 0.38846 0.68564 0.0
O821 O 0.76361 0.39077 0.65162 0.0
C822 C 0.67809 0.40889 0.66305 0.0
C823 C 0.73919 0.43808 0.63411 0.0
C824 C 0.71629 0.35227 0.63151 0.0
O825 O 0.69261 0.40076 0.67878 0.0
O826 O 0.68662 0.41054 0.64202 0.0
O827 O 0.7178 0.37119 0.61878 0.0
O828 O 0.71837 0.35559 0.65394 0.0
C829 C 0.76517 0.38753 0.67412 0.0
O830 O 0.73517 0.42006 0.62055 0.0
O831 O 0.7346 0.43492 0.65628 0.0
In832 In 0.58228 0.84591 0.52923 0.0
O833 O 0.61408 0.8234 0.51664 0.0
O834 O 0.57836 0.80946 0.51182 0.0
C835 C 0.60124 0.88833 0.54255 0.0
C836 C 0.55962 0.86189 0.48951 0.0
C837 C 0.57132 0.82965 0.57358 0.0
O838 O 0.6139 0.87232 0.53217 0.0
O839 O 0.57953 0.88252 0.54656 0.0
O840 O 0.55571 0.84007 0.56043 0.0
O841 O 0.59178 0.82692 0.56391 0.0
C842 C 0.60079 0.80647 0.50881 0.0
O843 O 0.54855 0.84897 0.50488 0.0
O844 O 0.58125 0.86677 0.49465 0.0
In845 In 0.09415 0.64714 0.47152 0.0
O846 O 0.06019 0.63814 0.49334 0.0
O847 O 0.09378 0.64385 0.5118 0.0
C848 C 0.08353 0.65719 0.42535 0.0
C849 C 0.10577 0.69132 0.48607 0.0
C850 C 0.1172 0.60456 0.46788 0.0
O851 O 0.06797 0.64785 0.43934 0.0
O852 O 0.10394 0.66099 0.43469 0.0
O853 O 0.12863 0.62437 0.46865 0.0
O854 O 0.09452 0.60647 0.46872 0.0
C855 C 0.07148 0.63933 0.51329 0.0
O856 O 0.12161 0.67503 0.48296 0.0
O857 O 0.08435 0.68541 0.48074 0.0
In858 In 0.59482 0.83554 0.72081 0.0
O859 O 0.57326 0.86816 0.73315 0.0
O860 O 0.55776 0.83297 0.73716 0.0
C861 C 0.63934 0.85049 0.70881 0.0
C862 C 0.60832 0.81277 0.7612 0.0
C863 C 0.57782 0.82604 0.67646 0.0
O864 O 0.62385 0.86489 0.71762 0.0
O865 O 0.63192 0.82914 0.70559 0.0
O866 O 0.5868 0.80952 0.68958 0.0
O867 O 0.5775 0.84681 0.68586 0.0
C868 C 0.55555 0.85548 0.74029 0.0
O869 O 0.59655 0.80166 0.74493 0.0
O870 O 0.61306 0.83459 0.75672 0.0
In871 In 0.40265 0.34941 0.97472 0.0
O872 O 0.43887 0.35839 0.99279 0.0
O873 O 0.4082 0.34932 0.01468 0.0
C874 C 0.40599 0.34327 0.92682 0.0
C875 C 0.38745 0.30578 0.98807 0.0
C876 C 0.38324 0.3938 0.97561 0.0
O877 O 0.42465 0.34186 0.94008 0.0
O878 O 0.38654 0.34755 0.93782 0.0
O879 O 0.3704 0.37492 0.97734 0.0
O880 O 0.40568 0.39014 0.97368 0.0
C881 C 0.43022 0.35512 0.0138 0.0
O882 O 0.37351 0.32395 0.98778 0.0
O883 O 0.40863 0.30954 0.98039 0.0
In884 In 0.39739 0.65915 0.71894 0.0
O885 O 0.3914 0.69328 0.74195 0.0
O886 O 0.38997 0.65844 0.75867 0.0
C887 C 0.41394 0.66892 0.67443 0.0
C888 C 0.43763 0.6392 0.73567 0.0
C889 C 0.35245 0.6435 0.70936 0.0
O890 O 0.4062 0.68558 0.68813 0.0
O891 O 0.41311 0.64792 0.68325 0.0
O892 O 0.36876 0.62932 0.71681 0.0
O893 O 0.35906 0.66514 0.70655 0.0
C894 C 0.3888 0.68102 0.76117 0.0
O895 O 0.41941 0.62661 0.72971 0.0
O896 O 0.43563 0.66173 0.7322 0.0
In897 In 0.90328 0.14995 0.02553 0.0
O898 O 0.93828 0.14153 0.00511 0.0
O899 O 0.90529 0.14577 0.98534 0.0
C900 C 0.91387 0.16326 0.07102 0.0
C901 C 0.88574 0.19139 0.00877 0.0
C902 C 0.88289 0.10607 0.03026 0.0
O903 O 0.92992 0.15469 0.05715 0.0
O904 O 0.89307 0.16468 0.06194 0.0
O905 O 0.87038 0.12515 0.02958 0.0
O906 O 0.90539 0.1093 0.02923 0.0
C907 C 0.92764 0.14147 0.98479 0.0
O908 O 0.87237 0.17331 0.01309 0.0
O909 O 0.90791 0.18863 0.01364 0.0
In910 In 0.59717 0.15849 0.77577 0.0
O911 O 0.60436 0.19375 0.75507 0.0
O912 O 0.60084 0.16051 0.73555 0.0
C913 C 0.58482 0.16736 0.82192 0.0
C914 C 0.55507 0.14153 0.75996 0.0
C915 C 0.64139 0.13865 0.77999 0.0
O916 O 0.5925 0.18407 0.80825 0.0
O917 O 0.58355 0.14685 0.8122 0.0
O918 O 0.62248 0.12589 0.77877 0.0
O919 O 0.63788 0.16113 0.77946 0.0
C920 C 0.60415 0.18304 0.73478 0.0
O921 O 0.57312 0.12791 0.76363 0.0
O922 O 0.55823 0.16363 0.7649 0.0
In923 In 0.90411 0.84298 0.27706 0.0
O924 O 0.89969 0.80758 0.2557 0.0
O925 O 0.89825 0.84141 0.23706 0.0
C926 C 0.91852 0.8341 0.32265 0.0
C927 C 0.94346 0.86455 0.25992 0.0
C928 C 0.85807 0.85712 0.28341 0.0
O929 O 0.91278 0.81717 0.30835 0.0
O930 O 0.91728 0.85505 0.31374 0.0
O931 O 0.8745 0.87198 0.27778 0.0
O932 O 0.86515 0.83566 0.28626 0.0
C933 C 0.89744 0.81872 0.23578 0.0
O934 O 0.92456 0.87628 0.26537 0.0
O935 O 0.94274 0.84214 0.26443 0.0
In936 In 0.47093 0.40596 0.15036 0.0
O937 O 0.48341 0.37813 0.17739 0.0
O938 O 0.4846 0.41556 0.18731 0.0
C939 C 0.46205 0.38612 0.10728 0.0
C940 C 0.51276 0.42448 0.13577 0.0
C941 C 0.42533 0.41526 0.16319 0.0
O942 O 0.46623 0.37324 0.1258 0.0
O943 O 0.46169 0.40867 0.1109 0.0
O944 O 0.43873 0.43163 0.15423 0.0
O945 O 0.43523 0.39489 0.16578 0.0
C946 C 0.48897 0.39389 0.1931 0.0
O947 O 0.4958 0.43829 0.14284 0.0
O948 O 0.50839 0.4021 0.13657 0.0
In949 In 0.33649 0.71793 0.89906 0.0
O950 O 0.30251 0.74165 0.89534 0.0
O951 O 0.3365 0.75437 0.88188 0.0
C952 C 0.32395 0.67334 0.9138 0.0
C953 C 0.35418 0.73803 0.93918 0.0
C954 C 0.35713 0.708 0.85631 0.0
O955 O 0.30948 0.68641 0.90181 0.0
O956 O 0.34409 0.68292 0.91827 0.0
O957 O 0.36962 0.71101 0.87526 0.0
O958 O 0.33456 0.70922 0.85924 0.0
C959 C 0.31424 0.75827 0.88473 0.0
O960 O 0.36776 0.73069 0.92229 0.0
O961 O 0.33183 0.73478 0.93584 0.0
In962 In 0.02681 0.59092 0.65027 0.0
O963 O 0.01446 0.62131 0.67452 0.0
O964 O 0.01095 0.58489 0.68715 0.0
C965 C 0.03901 0.61003 0.60762 0.0
C966 C 0.98496 0.57261 0.63491 0.0
C967 C 0.07105 0.57822 0.66527 0.0
O968 O 0.0355 0.62315 0.62606 0.0
O969 O 0.03688 0.58756 0.61101 0.0
O970 O 0.0571 0.56303 0.65523 0.0
O971 O 0.0623 0.59907 0.66795 0.0
C972 C 0.00751 0.60712 0.69112 0.0
O973 O 0.00103 0.55898 0.64405 0.0
O974 O 0.99023 0.59478 0.63392 0.0
In975 In 0.15451 0.275 0.39825 0.0
O976 O 0.18953 0.25339 0.39323 0.0
O977 O 0.15572 0.23469 0.39434 0.0
C978 C 0.16415 0.32085 0.41067 0.0
C979 C 0.13513 0.26078 0.43981 0.0
C980 C 0.13887 0.2799 0.35248 0.0
O981 O 0.18082 0.30632 0.40475 0.0
O982 O 0.14308 0.31216 0.41024 0.0
O983 O 0.12443 0.27528 0.3696 0.0
O984 O 0.16063 0.2824 0.35877 0.0
C985 C 0.17836 0.23339 0.39229 0.0
O986 O 0.12239 0.26442 0.42109 0.0
O987 O 0.15744 0.26521 0.43752 0.0
In988 In 0.47024 0.57608 0.35058 0.0
O989 O 0.49022 0.53953 0.35097 0.0
O990 O 0.50311 0.56858 0.37289 0.0
C991 C 0.42519 0.57101 0.33303 0.0
C992 C 0.49501 0.59417 0.31339 0.0
C993 C 0.45822 0.594 0.39391 0.0
O994 O 0.43654 0.55351 0.34249 0.0
O995 O 0.43698 0.59048 0.33173 0.0
O996 O 0.46941 0.60667 0.37843 0.0
O997 O 0.45302 0.57283 0.38713 0.0
C998 C 0.50593 0.54716 0.3658 0.0
O999 O 0.48796 0.60737 0.33072 0.0
O1000 O 0.48885 0.57226 0.3147 0.0
In1001 In 0.1598 0.71995 0.10171 0.0
O1002 O 0.19361 0.74405 0.10464 0.0
O1003 O 0.16062 0.75529 0.12127 0.0
C1004 C 0.17236 0.67554 0.08643 0.0
C1005 C 0.14138 0.74129 0.06264 0.0
C1006 C 0.13836 0.70759 0.14331 0.0
O1007 O 0.18679 0.68859 0.09851 0.0
O1008 O 0.1524 0.68533 0.08162 0.0
O1009 O 0.12631 0.71157 0.12428 0.0
O1010 O 0.16098 0.70947 0.14112 0.0
C1011 C 0.18245 0.75998 0.11676 0.0
O1012 O 0.12824 0.73428 0.08001 0.0
O1013 O 0.16368 0.73702 0.06494 0.0
In1014 In 0.02549 0.41277 0.84784 0.0
O1015 O 0.01332 0.38004 0.82676 0.0
O1016 O 0.01365 0.41443 0.80897 0.0
C1017 C 0.03179 0.39795 0.89376 0.0
C1018 C 0.98529 0.43864 0.85498 0.0
C1019 C 0.07114 0.42033 0.83328 0.0
O1020 O 0.02551 0.38342 0.87726 0.0
O1021 O 0.03512 0.41935 0.88677 0.0
O1022 O 0.05751 0.4377 0.83929 0.0
O1023 O 0.06165 0.39966 0.83455 0.0
C1024 C 0.00896 0.39207 0.80775 0.0
O1025 O 0.00572 0.44888 0.85321 0.0
O1026 O 0.98546 0.41596 0.85308 0.0
In1027 In 0.34441 0.27551 0.59694 0.0
O1028 O 0.37667 0.26272 0.57526 0.0
O1029 O 0.34144 0.25957 0.55967 0.0
C1030 C 0.36201 0.28624 0.64075 0.0
C1031 C 0.32301 0.23419 0.60977 0.0
C1032 C 0.33269 0.31994 0.58129 0.0
O1033 O 0.37576 0.28299 0.62274 0.0
O1034 O 0.33967 0.28492 0.63632 0.0
O1035 O 0.31728 0.30652 0.59166 0.0
O1036 O 0.35335 0.31074 0.57884 0.0
C1037 C 0.36387 0.25589 0.55754 0.0
O1038 O 0.31108 0.25078 0.59931 0.0
O1039 O 0.34499 0.23883 0.61359 0.0
In1040 In 0.15362 0.47086 0.41164 0.0
O1041 O 0.17686 0.48286 0.38035 0.0
O1042 O 0.1929 0.48026 0.41553 0.0
C1043 C 0.10781 0.46813 0.39562 0.0
C1044 C 0.14911 0.5113 0.43762 0.0
C1045 C 0.16489 0.42416 0.41797 0.0
O1046 O 0.12515 0.47292 0.38149 0.0
O1047 O 0.11389 0.46445 0.41727 0.0
O1048 O 0.15849 0.43736 0.43555 0.0
O1049 O 0.16549 0.43456 0.39771 0.0
C1050 C 0.19535 0.48603 0.39354 0.0
O1051 O 0.14955 0.49078 0.44787 0.0
O1052 O 0.1505 0.51101 0.4149 0.0
In1053 In 0.27689 0.39498 0.1533 0.0
O1054 O 0.2554 0.3854 0.18739 0.0
O1055 O 0.23656 0.39085 0.15404 0.0
C1056 C 0.32234 0.40809 0.16396 0.0
C1057 C 0.26171 0.438 0.13835 0.0
C1058 C 0.2827 0.35173 0.13202 0.0
O1059 O 0.30844 0.39951 0.18003 0.0
O1060 O 0.31339 0.40932 0.14308 0.0
O1061 O 0.28095 0.37099 0.11983 0.0
O1062 O 0.2818 0.35447 0.1546 0.0
C1063 C 0.23536 0.3858 0.17623 0.0
O1064 O 0.2649 0.42052 0.12387 0.0
O1065 O 0.26675 0.43367 0.16023 0.0
In1066 In 0.34437 0.525 0.91417 0.0
O1067 O 0.34978 0.50703 0.9513 0.0
O1068 O 0.35118 0.48538 0.91935 0.0
C1069 C 0.32827 0.57038 0.92028 0.0
C1070 C 0.30489 0.50656 0.89375 0.0
C1071 C 0.38977 0.53355 0.89874 0.0
O1072 O 0.33434 0.55728 0.93804 0.0
O1073 O 0.33004 0.56037 0.89988 0.0
O1074 O 0.37398 0.52443 0.88496 0.0
O1075 O 0.38254 0.53798 0.91987 0.0
C1076 C 0.35233 0.48624 0.94206 0.0
O1077 O 0.32379 0.51118 0.88164 0.0
O1078 O 0.30584 0.51212 0.91589 0.0
In1079 In 0.21804 0.59759 0.65481 0.0
O1080 O 0.24137 0.6015 0.68894 0.0
O1081 O 0.25384 0.61631 0.65545 0.0
C1082 C 0.17391 0.58145 0.66719 0.0
C1083 C 0.23973 0.55812 0.63768 0.0
C1084 C 0.20623 0.63958 0.63374 0.0
O1085 O 0.18683 0.59337 0.68186 0.0
O1086 O 0.18344 0.57776 0.64687 0.0
O1087 O 0.2096 0.62056 0.62148 0.0
O1088 O 0.20824 0.63714 0.65632 0.0
C1089 C 0.25783 0.61275 0.6776 0.0
O1090 O 0.23294 0.57513 0.62395 0.0
O1091 O 0.23505 0.56101 0.65982 0.0
In1092 In 0.15366 0.52655 0.09024 0.0
O1093 O 0.14426 0.50639 0.05528 0.0
O1094 O 0.14992 0.48631 0.08789 0.0
C1095 C 0.16702 0.5725 0.08223 0.0
C1096 C 0.19559 0.51038 0.107 0.0
C1097 C 0.1092 0.53014 0.10924 0.0
O1098 O 0.16042 0.55894 0.06499 0.0
O1099 O 0.16624 0.56296 0.10288 0.0
O1100 O 0.12772 0.52766 0.12241 0.0
O1101 O 0.11337 0.53171 0.08691 0.0
C1102 C 0.14462 0.48596 0.06574 0.0
O1103 O 0.17763 0.5142 0.1207 0.0
O1104 O 0.19238 0.51536 0.0849 0.0
In1105 In 0.22007 0.40028 0.83058 0.0
O1106 O 0.23848 0.3978 0.79335 0.0
O1107 O 0.25981 0.39522 0.8255 0.0
C1108 C 0.17407 0.41473 0.82465 0.0
C1109 C 0.23734 0.43967 0.85208 0.0
C1110 C 0.21545 0.35408 0.8455 0.0
O1111 O 0.18667 0.40751 0.80698 0.0
O1112 O 0.18466 0.41452 0.8448 0.0
O1113 O 0.22186 0.37074 0.85974 0.0
O1114 O 0.21112 0.36098 0.82424 0.0
C1115 C 0.25924 0.39551 0.80276 0.0
O1116 O 0.23251 0.42054 0.86374 0.0
O1117 O 0.23268 0.43901 0.82971 0.0
In1118 In 0.35065 0.46751 0.5915 0.0
O1119 O 0.35676 0.49254 0.55898 0.0
O1120 O 0.3669 0.5042 0.59453 0.0
C1121 C 0.336 0.42294 0.57932 0.0
C1122 C 0.30969 0.48784 0.60634 0.0
C1123 C 0.39338 0.45662 0.6112 0.0
O1124 O 0.3461 0.43677 0.56407 0.0
O1125 O 0.33314 0.43191 0.60007 0.0
O1126 O 0.37465 0.45939 0.62409 0.0
O1127 O 0.39019 0.45847 0.58867 0.0
C1128 C 0.36579 0.50897 0.57226 0.0
O1129 O 0.32596 0.48128 0.6211 0.0
O1130 O 0.31392 0.48313 0.58441 0.0
In1131 In 0.27687 0.59771 0.33785 0.0
O1132 O 0.25635 0.6036 0.30215 0.0
O1133 O 0.23649 0.60051 0.33512 0.0
C1134 C 0.32257 0.58395 0.3283 0.0
C1135 C 0.2615 0.55642 0.35714 0.0
C1136 C 0.28153 0.64195 0.35784 0.0
O1137 O 0.30935 0.59305 0.31198 0.0
O1138 O 0.31288 0.58247 0.3488 0.0
O1139 O 0.2797 0.62302 0.37043 0.0
O1140 O 0.28119 0.63849 0.33533 0.0
C1141 C 0.23591 0.6033 0.31254 0.0
O1142 O 0.26487 0.57527 0.36968 0.0
O1143 O 0.26636 0.55844 0.33488 0.0
In1144 In 0.41748 0.14797 0.46714 0.0
O1145 O 0.45128 0.14394 0.49117 0.0
O1146 O 0.41703 0.13062 0.50345 0.0
C1147 C 0.42805 0.16257 0.42199 0.0
C1148 C 0.40061 0.18799 0.4879 0.0
C1149 C 0.39742 0.10503 0.45742 0.0
O1150 O 0.44362 0.15192 0.43501 0.0
O1151 O 0.40794 0.16609 0.43206 0.0
O1152 O 0.38468 0.12368 0.46113 0.0
O1153 O 0.41999 0.10842 0.45764 0.0
C1154 C 0.43922 0.13347 0.50768 0.0
O1155 O 0.38677 0.17108 0.48105 0.0
O1156 O 0.42278 0.18488 0.4834 0.0
In1157 In 0.90861 0.34676 0.52688 0.0
O1158 O 0.94155 0.35305 0.50215 0.0
O1159 O 0.90646 0.365 0.49113 0.0
C1160 C 0.91943 0.32954 0.57079 0.0
C1161 C 0.89069 0.30693 0.50692 0.0
C1162 C 0.89173 0.39004 0.53998 0.0
O1163 O 0.93558 0.3384 0.5571 0.0
O1164 O 0.89839 0.32916 0.56198 0.0
O1165 O 0.87806 0.37412 0.53078 0.0
O1166 O 0.91337 0.38358 0.54337 0.0
C1167 C 0.92866 0.36358 0.48632 0.0
O1168 O 0.87717 0.32359 0.51494 0.0
O1169 O 0.91311 0.31035 0.50965 0.0
In1170 In 0.3989 0.15876 0.27596 0.0
O1171 O 0.41659 0.12507 0.26057 0.0
O1172 O 0.43349 0.15919 0.25454 0.0
C1173 C 0.35668 0.14032 0.29108 0.0
C1174 C 0.38281 0.18605 0.23912 0.0
C1175 C 0.41947 0.1679 0.31916 0.0
O1176 O 0.37118 0.1282 0.27819 0.0
O1177 O 0.36386 0.16126 0.29668 0.0
O1178 O 0.40785 0.18394 0.30767 0.0
O1179 O 0.42107 0.14784 0.3085 0.0
C1180 C 0.4338 0.13668 0.25096 0.0
O1181 O 0.3997 0.19341 0.2527 0.0
O1182 O 0.37383 0.166 0.24494 0.0
In1183 In 0.58513 0.64623 0.02713 0.0
O1184 O 0.61583 0.67069 0.01574 0.0
O1185 O 0.5795 0.68387 0.01345 0.0
C1186 C 0.60066 0.60192 0.03822 0.0
C1187 C 0.5657 0.63327 0.98502 0.0
C1188 C 0.57555 0.66038 0.07225 0.0
O1189 O 0.61511 0.61811 0.03077 0.0
O1190 O 0.57888 0.60846 0.0403 0.0
O1191 O 0.55898 0.65233 0.05855 0.0
O1192 O 0.59633 0.66155 0.06287 0.0
C1193 C 0.60172 0.6878 0.00986 0.0
O1194 O 0.55261 0.64227 0.00163 0.0
O1195 O 0.5878 0.63092 0.99007 0.0
In1196 In 0.59998 0.34604 0.27844 0.0
O1197 O 0.57705 0.37769 0.26667 0.0
O1198 O 0.56076 0.3426 0.26912 0.0
C1199 C 0.64632 0.35992 0.28253 0.0
C1200 C 0.60507 0.32164 0.23716 0.0
C1201 C 0.58702 0.33894 0.32451 0.0
O1202 O 0.62975 0.37496 0.27772 0.0
O1203 O 0.63915 0.33853 0.28576 0.0
O1204 O 0.59231 0.32139 0.31076 0.0
O1205 O 0.58876 0.35961 0.31504 0.0
C1206 C 0.55837 0.36468 0.26369 0.0
O1207 O 0.60434 0.31067 0.25729 0.0
O1208 O 0.60352 0.34434 0.23821 0.0
In1209 In 0.08995 0.84891 0.97019 0.0
O1210 O 0.05612 0.85407 0.99386 0.0
O1211 O 0.09012 0.86863 0.00524 0.0
C1212 C 0.0808 0.8315 0.92595 0.0
C1213 C 0.10641 0.80948 0.99216 0.0
C1214 C 0.10741 0.89196 0.95705 0.0
O1215 O 0.06427 0.84085 0.93881 0.0
O1216 O 0.10137 0.83058 0.93579 0.0
O1217 O 0.12078 0.87614 0.96686 0.0
O1218 O 0.08581 0.88555 0.95327 0.0
C1219 C 0.06802 0.86558 0.00978 0.0
O1220 O 0.12058 0.82578 0.98445 0.0
O1221 O 0.08426 0.81294 0.98788 0.0
In1222 In 0.39778 0.84191 0.22148 0.0
O1223 O 0.42257 0.8708 0.23624 0.0
O1224 O 0.43676 0.83517 0.23165 0.0
C1225 C 0.35365 0.86168 0.2187 0.0
C1226 C 0.38715 0.81439 0.2595 0.0
C1227 C 0.40759 0.83924 0.17405 0.0
O1228 O 0.37232 0.87426 0.22283 0.0
O1229 O 0.35737 0.83933 0.21597 0.0
O1230 O 0.40623 0.82023 0.18681 0.0
O1231 O 0.40426 0.8587 0.18538 0.0
C1232 C 0.44032 0.85659 0.23871 0.0
O1233 O 0.3893 0.80514 0.2386 0.0
O1234 O 0.39035 0.83691 0.26083 0.0
In1235 In 0.09711 0.15703 0.71978 0.0
O1236 O 0.10196 0.19011 0.74441 0.0
O1237 O 0.11553 0.15564 0.75556 0.0
C1238 C 0.07902 0.16656 0.67604 0.0
C1239 C 0.05734 0.13959 0.74014 0.0
C1240 C 0.14036 0.14147 0.70522 0.0
O1241 O 0.08824 0.18311 0.689 0.0
O1242 O 0.07888 0.14575 0.68541 0.0
O1243 O 0.12513 0.12719 0.71471 0.0
O1244 O 0.13343 0.16311 0.70294 0.0
C1245 C 0.11266 0.17769 0.7605 0.0
O1246 O 0.07428 0.12581 0.73313 0.0
O1247 O 0.06053 0.16185 0.7362 0.0
C1248 C 0.11124 0.0606 0.33865 0.0
C1249 C 0.09775 0.07684 0.32459 0.0
C1250 C 0.13656 0.06144 0.33867 0.0
C1251 C 0.14922 0.07821 0.32429 0.0
H1252 H 0.10226 0.04852 0.35117 0.0
H1253 H 0.14624 0.04978 0.35107 0.0
S1254 S 0.12219 0.12167 0.28112 0.0
N1255 N 0.09878 0.10807 0.29368 0.0
N1256 N 0.14641 0.10925 0.29336 0.0
C1257 C 0.13598 0.09287 0.30839 0.0
C1258 C 0.11019 0.0923 0.30866 0.0
C1259 C 0.14786 0.88563 0.56369 0.0
C1260 C 0.16347 0.89955 0.57804 0.0
C1261 C 0.1483 0.86033 0.56493 0.0
C1262 C 0.16481 0.8482 0.58001 0.0
H1263 H 0.13409 0.89431 0.5528 0.0
H1264 H 0.13497 0.85021 0.55476 0.0
S1265 S 0.21148 0.87655 0.61873 0.0
N1266 N 0.19716 0.89956 0.60621 0.0
N1267 N 0.19856 0.85194 0.60782 0.0
C1268 C 0.18177 0.8619 0.59293 0.0
C1269 C 0.18092 0.88765 0.59215 0.0
C1270 C 0.3877 0.91501 0.86497 0.0
C1271 C 0.40122 0.92242 0.84489 0.0
C1272 C 0.36258 0.91325 0.86382 0.0
C1273 C 0.34994 0.91824 0.8423 0.0
H1274 H 0.39673 0.90982 0.88157 0.0
H1275 H 0.35314 0.90689 0.87975 0.0
S1276 S 0.37718 0.93944 0.78481 0.0
N1277 N 0.40048 0.93598 0.80318 0.0
N1278 N 0.35293 0.93211 0.80066 0.0
C1279 C 0.36322 0.92647 0.82221 0.0
C1280 C 0.38896 0.92871 0.82359 0.0
C1281 C 0.3144 0.13046 0.09086 0.0
C1282 C 0.32898 0.14544 0.07649 0.0
C1283 C 0.31556 0.10525 0.08857 0.0
C1284 C 0.33076 0.0943 0.07137 0.0
H1285 H 0.30333 0.13815 0.10505 0.0
H1286 H 0.30519 0.09421 0.10099 0.0
S1287 S 0.37019 0.1259 0.02744 0.0
N1288 N 0.35759 0.14782 0.04327 0.0
N1289 N 0.35904 0.10045 0.03836 0.0
C1290 C 0.34398 0.10919 0.05567 0.0
C1291 C 0.34329 0.1348 0.05842 0.0
C1292 C 0.11398 0.94245 0.15277 0.0
C1293 C 0.09873 0.93014 0.16889 0.0
C1294 C 0.13911 0.93951 0.15395 0.0
C1295 C 0.1498 0.92464 0.17162 0.0
H1296 H 0.10642 0.95286 0.13801 0.0
H1297 H 0.15017 0.94801 0.14021 0.0
S1298 S 0.11779 0.89152 0.22023 0.0
N1299 N 0.09605 0.9046 0.20452 0.0
N1300 N 0.14336 0.89968 0.20718 0.0
C1301 C 0.13486 0.91402 0.18915 0.0
C1302 C 0.10926 0.9166 0.18764 0.0
C1303 C 0.3161 0.88725 0.40728 0.0
C1304 C 0.334 0.8985 0.42144 0.0
C1305 C 0.314 0.86203 0.40639 0.0
C1306 C 0.33017 0.84724 0.41917 0.0
H1307 H 0.30432 0.898 0.39592 0.0
H1308 H 0.30083 0.85411 0.39426 0.0
S1309 S 0.3784 0.86778 0.46098 0.0
N1310 N 0.36648 0.89303 0.45043 0.0
N1311 N 0.36308 0.84554 0.44824 0.0
C1312 C 0.34711 0.85827 0.43461 0.0
C1313 C 0.34888 0.88396 0.43591 0.0
C1314 C 0.38531 0.05906 0.65757 0.0
C1315 C 0.39901 0.07603 0.67052 0.0
C1316 C 0.36 0.05946 0.65854 0.0
C1317 C 0.34768 0.07642 0.67295 0.0
H1318 H 0.39405 0.0467 0.64517 0.0
H1319 H 0.34999 0.04732 0.64689 0.0
S1320 S 0.37563 0.12201 0.71325 0.0
N1321 N 0.39874 0.10838 0.7002 0.0
N1322 N 0.35117 0.10866 0.70255 0.0
C1323 C 0.36128 0.09191 0.68773 0.0
C1324 C 0.387 0.09185 0.68634 0.0
C1325 C 0.15859 0.11535 0.93832 0.0
C1326 C 0.17322 0.10058 0.9238 0.0
C1327 C 0.16022 0.14061 0.93685 0.0
C1328 C 0.17684 0.15188 0.92117 0.0
H1329 H 0.14452 0.10744 0.9494 0.0
H1330 H 0.14744 0.15137 0.94704 0.0
S1331 S 0.2219 0.1209 0.88248 0.0
N1332 N 0.20669 0.09875 0.89547 0.0
N1333 N 0.21019 0.14618 0.89314 0.0
C1334 C 0.19311 0.13722 0.90834 0.0
C1335 C 0.19115 0.11154 0.90952 0.0
C1336 C 0.0885 0.30873 0.13315 0.0
C1337 C 0.0739 0.323 0.1482 0.0
C1338 C 0.08743 0.31117 0.10796 0.0
C1339 C 0.07148 0.32767 0.09694 0.0
H1340 H 0.10215 0.297 0.14085 0.0
H1341 H 0.10017 0.301 0.09711 0.0
S1342 S 0.02637 0.36591 0.12834 0.0
N1343 N 0.0408 0.35181 0.15033 0.0
N1344 N 0.03854 0.35608 0.10294 0.0
C1345 C 0.05515 0.34026 0.11171 0.0
C1346 C 0.05645 0.33801 0.13738 0.0
C1347 C 0.56365 0.15208 0.88493 0.0
C1348 C 0.57773 0.1675 0.8993 0.0
C1349 C 0.56483 0.15332 0.85966 0.0
C1350 C 0.57977 0.17031 0.84796 0.0
H1351 H 0.5531 0.13778 0.89316 0.0
H1352 H 0.55491 0.14005 0.84923 0.0
S1353 S 0.61699 0.21737 0.87763 0.0
N1354 N 0.6048 0.20212 0.90021 0.0
N1355 N 0.60658 0.20475 0.85267 0.0
C1356 C 0.59215 0.18728 0.86214 0.0
C1357 C 0.59126 0.18577 0.88787 0.0
C1358 C 0.93774 0.84775 0.36103 0.0
C1359 C 0.92371 0.83053 0.3486 0.0
C1360 C 0.93895 0.8479 0.38635 0.0
C1361 C 0.92567 0.83118 0.40007 0.0
H1362 H 0.94694 0.86194 0.35114 0.0
H1363 H 0.94879 0.86233 0.3952 0.0
S1364 S 0.88846 0.78077 0.3763 0.0
N1365 N 0.89839 0.7948 0.3519 0.0
N1366 N 0.89999 0.79557 0.39952 0.0
C1367 C 0.91289 0.81292 0.38786 0.0
C1368 C 0.9121 0.81244 0.36208 0.0
C1369 C 0.93209 0.15477 0.136 0.0
C1370 C 0.9166 0.17093 0.14809 0.0
C1371 C 0.93291 0.15387 0.1107 0.0
C1372 C 0.91784 0.16875 0.09675 0.0
H1373 H 0.94269 0.14182 0.14617 0.0
H1374 H 0.94395 0.14018 0.10211 0.0
S1375 S 0.87646 0.21628 0.11951 0.0
N1376 N 0.88798 0.204 0.14415 0.0
N1377 N 0.88905 0.20191 0.09659 0.0
C1378 C 0.90366 0.1862 0.10857 0.0
C1379 C 0.90317 0.18743 0.13429 0.0
C1380 C 0.40738 0.68874 0.63453 0.0
C1381 C 0.4207 0.67265 0.64891 0.0
C1382 C 0.40897 0.68784 0.60924 0.0
C1383 C 0.42436 0.67125 0.59761 0.0
H1384 H 0.39421 0.70069 0.64271 0.0
H1385 H 0.39702 0.69922 0.5987 0.0
S1386 S 0.46573 0.6279 0.62749 0.0
N1387 N 0.45165 0.64152 0.65 0.0
N1388 N 0.45512 0.64032 0.60251 0.0
C1389 C 0.43945 0.65672 0.6119 0.0
C1390 C 0.43746 0.65727 0.63759 0.0
C1391 C 0.06581 0.6445 0.38603 0.0
C1392 C 0.07958 0.66111 0.39933 0.0
C1393 C 0.0665 0.64453 0.36072 0.0
C1394 C 0.08057 0.66148 0.34794 0.0
H1395 H 0.05584 0.63034 0.39517 0.0
H1396 H 0.05681 0.63048 0.35111 0.0
S1397 S 0.11682 0.71107 0.37459 0.0
N1398 N 0.10557 0.69652 0.3981 0.0
N1399 N 0.10637 0.69693 0.35047 0.0
C1400 C 0.09271 0.67947 0.36104 0.0
C1401 C 0.09237 0.67916 0.3868 0.0
C1402 C 0.38874 0.35618 0.86239 0.0
C1403 C 0.403 0.34008 0.84892 0.0
C1404 C 0.39014 0.35694 0.88752 0.0
C1405 C 0.40626 0.34205 0.90024 0.0
H1406 H 0.37623 0.36829 0.85343 0.0
H1407 H 0.37862 0.36957 0.89707 0.0
S1408 S 0.44768 0.29673 0.8736 0.0
N1409 N 0.43363 0.30862 0.85006 0.0
N1410 N 0.43676 0.31057 0.89771 0.0
C1411 C 0.42082 0.32592 0.88713 0.0
C1412 C 0.41899 0.32474 0.86134 0.0
C1413 C 0.88764 0.90628 0.69124 0.0
C1414 C 0.89859 0.92384 0.67638 0.0
C1415 C 0.86241 0.90453 0.6931 0.0
C1416 C 0.84735 0.92002 0.67982 0.0
H1417 H 0.89859 0.89291 0.70044 0.0
H1418 H 0.85474 0.88974 0.7034 0.0
S1419 S 0.86684 0.97128 0.64129 0.0
N1420 N 0.89233 0.95892 0.65067 0.0
N1421 N 0.84495 0.95524 0.65373 0.0
C1422 C 0.85803 0.93884 0.66651 0.0
C1423 C 0.88368 0.94088 0.66492 0.0
C1424 C 0.83278 0.13938 0.43675 0.0
C1425 C 0.81778 0.15086 0.4197 0.0
C1426 C 0.83432 0.11412 0.43797 0.0
C1427 C 0.82128 0.09953 0.4218 0.0
H1428 H 0.84452 0.15 0.44828 0.0
H1429 H 0.84727 0.10611 0.45028 0.0
S1430 S 0.77685 0.12057 0.37622 0.0
N1431 N 0.78742 0.14567 0.38841 0.0
N1432 N 0.7907 0.09818 0.39029 0.0
C1433 C 0.80475 0.11072 0.40605 0.0
C1434 C 0.80287 0.13644 0.40512 0.0
C1435 C 0.63045 0.08324 0.18962 0.0
C1436 C 0.64577 0.06885 0.17544 0.0
C1437 C 0.60527 0.08104 0.18776 0.0
C1438 C 0.59465 0.06409 0.17199 0.0
H1439 H 0.63785 0.09763 0.20064 0.0
H1440 H 0.59406 0.09371 0.1976 0.0
S1441 S 0.62722 0.01929 0.13433 0.0
N1442 N 0.64882 0.03508 0.14756 0.0
N1443 N 0.60152 0.03056 0.14444 0.0
C1444 C 0.60985 0.04796 0.15965 0.0
C1445 C 0.63545 0.05047 0.16125 0.0
C1446 C 0.68472 0.88423 0.90756 0.0
C1447 C 0.66844 0.89712 0.92224 0.0
C1448 C 0.68489 0.85891 0.90732 0.0
C1449 C 0.66837 0.84572 0.92134 0.0
H1450 H 0.69662 0.89377 0.89528 0.0
H1451 H 0.69674 0.84971 0.89474 0.0
S1452 S 0.62421 0.87075 0.96505 0.0
N1453 N 0.63731 0.89478 0.95312 0.0
N1454 N 0.63712 0.84715 0.95216 0.0
C1455 C 0.65319 0.85833 0.93733 0.0
C1456 C 0.65337 0.8841 0.93794 0.0
C1457 C 0.86128 0.08809 0.80998 0.0
C1458 C 0.84647 0.07671 0.82713 0.0
C1459 C 0.88649 0.0859 0.81124 0.0
C1460 C 0.89763 0.07186 0.82933 0.0
H1461 H 0.85352 0.10022 0.79672 0.0
H1462 H 0.89739 0.09641 0.79881 0.0
S1463 S 0.86641 0.03521 0.87586 0.0
N1464 N 0.84437 0.04864 0.86087 0.0
N1465 N 0.89175 0.0441 0.86283 0.0
C1466 C 0.88288 0.05855 0.84507 0.0
C1467 C 0.85725 0.06113 0.84409 0.0
C1468 C 0.65357 0.13362 0.56492 0.0
C1469 C 0.67013 0.14572 0.58001 0.0
C1470 C 0.65305 0.10834 0.56363 0.0
C1471 C 0.66881 0.09438 0.57775 0.0
H1472 H 0.64006 0.14371 0.55496 0.0
H1473 H 0.63902 0.09975 0.55302 0.0
S1474 S 0.71788 0.11724 0.6173 0.0
N1475 N 0.7046 0.14188 0.60694 0.0
N1476 N 0.70332 0.0943 0.60495 0.0
C1477 C 0.68669 0.10625 0.59138 0.0
C1478 C 0.68746 0.13199 0.59239 0.0
C1479 C 0.61363 0.93579 0.33691 0.0
C1480 C 0.59931 0.91821 0.3255 0.0
C1481 C 0.63889 0.93534 0.33472 0.0
C1482 C 0.65053 0.91773 0.32055 0.0
H1483 H 0.60546 0.94887 0.34896 0.0
H1484 H 0.64944 0.94811 0.34517 0.0
S1485 S 0.62079 0.86975 0.28451 0.0
N1486 N 0.59829 0.88414 0.29781 0.0
N1487 N 0.64568 0.88374 0.29318 0.0
C1488 C 0.63625 0.90136 0.30746 0.0
C1489 C 0.61062 0.90147 0.3101 0.0
C1490 C 0.83861 0.86091 0.06375 0.0
C1491 C 0.82526 0.84913 0.08196 0.0
C1492 C 0.83936 0.8862 0.06231 0.0
C1493 C 0.82718 0.90046 0.07936 0.0
H1494 H 0.84955 0.85055 0.05126 0.0
H1495 H 0.85094 0.89455 0.04891 0.0
S1496 S 0.78707 0.87861 0.12841 0.0
N1497 N 0.79733 0.85373 0.11555 0.0
N1498 N 0.79922 0.90124 0.11322 0.0
C1499 C 0.81238 0.88896 0.09652 0.0
C1500 C 0.81126 0.86325 0.09771 0.0
C1501 C 0.93882 0.65261 0.88541 0.0
C1502 C 0.92509 0.66776 0.9004 0.0
C1503 C 0.93579 0.65309 0.86026 0.0
C1504 C 0.91932 0.66907 0.84925 0.0
H1505 H 0.95065 0.6391 0.8932 0.0
H1506 H 0.94557 0.64003 0.84945 0.0
S1507 S 0.88187 0.71495 0.88043 0.0
N1508 N 0.89638 0.70095 0.90244 0.0
N1509 N 0.89115 0.70222 0.8551 0.0
C1510 C 0.9071 0.68576 0.86391 0.0
C1511 C 0.90985 0.68498 0.88954 0.0
C1512 C 0.40407 0.86086 0.10956 0.0
C1513 C 0.41531 0.84241 0.0963 0.0
C1514 C 0.40214 0.85957 0.13464 0.0
C1515 C 0.41091 0.83953 0.14755 0.0
H1516 H 0.39648 0.87644 0.10044 0.0
H1517 H 0.39313 0.87427 0.14391 0.0
S1518 S 0.44226 0.78646 0.12134 0.0
N1519 N 0.43596 0.8037 0.09775 0.0
N1520 N 0.43175 0.80092 0.14527 0.0
C1521 C 0.42242 0.82094 0.1346 0.0
C1522 C 0.42484 0.82251 0.10887 0.0
C1523 C 0.08531 0.1867 0.63637 0.0
C1524 C 0.07247 0.16994 0.65043 0.0
C1525 C 0.08441 0.1857 0.61109 0.0
C1526 C 0.07033 0.16823 0.59908 0.0
H1527 H 0.09764 0.19934 0.64482 0.0
H1528 H 0.09596 0.19779 0.60089 0.0
S1529 S 0.02997 0.12323 0.6279 0.0
N1530 N 0.04282 0.1375 0.65075 0.0
N1531 N 0.04081 0.13597 0.60317 0.0
C1532 C 0.05551 0.15303 0.61296 0.0
C1533 C 0.05671 0.15379 0.6387 0.0
C1534 C 0.09624 0.80829 0.86367 0.0
C1535 C 0.08009 0.82113 0.84891 0.0
C1536 C 0.09518 0.81036 0.8889 0.0
C1537 C 0.07771 0.82501 0.90021 0.0
H1538 H 0.11093 0.79809 0.85572 0.0
H1539 H 0.109 0.80147 0.89954 0.0
S1540 S 0.02866 0.8588 0.86957 0.0
N1541 N 0.04424 0.84646 0.84733 0.0
N1542 N 0.04199 0.84998 0.89477 0.0
C1543 C 0.06003 0.83601 0.88571 0.0
C1544 C 0.06132 0.83419 0.86001 0.0
C1545 C 0.59167 0.31841 0.38931 0.0
C1546 C 0.57802 0.33596 0.40167 0.0
C1547 C 0.59302 0.31828 0.36403 0.0
C1548 C 0.58127 0.3361 0.35035 0.0
H1549 H 0.60223 0.30531 0.39932 0.0
H1550 H 0.60463 0.30517 0.35529 0.0
S1551 S 0.54122 0.38443 0.37382 0.0
N1552 N 0.55067 0.37011 0.39824 0.0
N1553 N 0.55376 0.37035 0.35069 0.0
C1554 C 0.56642 0.35286 0.36238 0.0
C1555 C 0.56462 0.35264 0.38809 0.0
C1556 C 0.90608 0.3069 0.63371 0.0
C1557 C 0.92256 0.32011 0.64775 0.0
C1558 C 0.90642 0.30855 0.60843 0.0
C1559 C 0.92351 0.32311 0.5964 0.0
H1560 H 0.89156 0.29693 0.64228 0.0
H1561 H 0.89229 0.29952 0.59833 0.0
S1562 S 0.97331 0.35755 0.62504 0.0
N1563 N 0.95837 0.34554 0.64792 0.0
N1564 N 0.95934 0.34822 0.60037 0.0
C1565 C 0.94162 0.33432 0.61017 0.0
C1566 C 0.94104 0.33295 0.63591 0.0
C1567 C 0.58985 0.68201 0.1352 0.0
C1568 C 0.57576 0.66655 0.14957 0.0
C1569 C 0.58832 0.68118 0.10994 0.0
C1570 C 0.57229 0.66526 0.09825 0.0
H1571 H 0.60345 0.69349 0.14337 0.0
H1572 H 0.6007 0.69217 0.09948 0.0
S1573 S 0.52875 0.62391 0.12787 0.0
N1574 N 0.54331 0.63688 0.15047 0.0
N1575 N 0.54014 0.63574 0.10295 0.0
C1576 C 0.55652 0.65137 0.11244 0.0
C1577 C 0.55836 0.6519 0.13816 0.0
C1578 C 0.60791 0.55648 0.83802 0.0
C1579 C 0.59382 0.5722 0.82396 0.0
C1580 C 0.63318 0.55815 0.83789 0.0
C1581 C 0.6452 0.57529 0.82339 0.0
H1582 H 0.59939 0.54419 0.85067 0.0
H1583 H 0.6433 0.54688 0.8503 0.0
S1584 S 0.61651 0.61751 0.78004 0.0
N1585 N 0.59364 0.60321 0.79283 0.0
N1586 N 0.64119 0.606 0.79225 0.0
C1587 C 0.6314 0.58939 0.80746 0.0
C1588 C 0.60565 0.58794 0.80786 0.0
C1589 C 0.66019 0.38178 0.05952 0.0
C1590 C 0.6738 0.39628 0.07526 0.0
C1591 C 0.66022 0.35659 0.06191 0.0
C1592 C 0.67418 0.34506 0.07981 0.0
H1593 H 0.6479 0.38995 0.04665 0.0
H1594 H 0.6481 0.34616 0.05061 0.0
S1595 S 0.71636 0.37485 0.12243 0.0
N1596 N 0.70406 0.39733 0.10712 0.0
N1597 N 0.70443 0.34986 0.11127 0.0
C1598 C 0.68976 0.35922 0.09394 0.0
C1599 C 0.68946 0.3849 0.09176 0.0
C1600 C 0.86753 0.41276 0.30742 0.0
C1601 C 0.85229 0.4264 0.32243 0.0
C1602 C 0.89273 0.41447 0.30955 0.0
C1603 C 0.9035 0.43025 0.32637 0.0
H1604 H 0.86001 0.39939 0.29526 0.0
H1605 H 0.90384 0.40245 0.29881 0.0
S1606 S 0.87136 0.47247 0.36723 0.0
N1607 N 0.8496 0.458 0.35281 0.0
N1608 N 0.89695 0.46163 0.35638 0.0
C1609 C 0.88844 0.44551 0.33993 0.0
C1610 C 0.8628 0.44345 0.33808 0.0
C1611 C 0.80898 0.63567 0.58448 0.0
C1612 C 0.82573 0.64977 0.57165 0.0
C1613 C 0.80966 0.61039 0.58314 0.0
C1614 C 0.82675 0.59848 0.56855 0.0
H1615 H 0.79666 0.64404 0.59717 0.0
H1616 H 0.79773 0.60009 0.59476 0.0
S1617 S 0.87173 0.6275 0.52832 0.0
N1618 N 0.85786 0.65027 0.54169 0.0
N1619 N 0.85875 0.60275 0.53879 0.0
C1620 C 0.84192 0.61246 0.55379 0.0
C1621 C 0.84152 0.63816 0.55548 0.0
C1622 C 0.6143 0.43038 0.65215 0.0
C1623 C 0.6009 0.41577 0.66794 0.0
C1624 C 0.6396 0.42922 0.65183 0.0
C1625 C 0.65228 0.41379 0.66762 0.0
H1626 H 0.60521 0.4414 0.63875 0.0
H1627 H 0.64923 0.43959 0.6383 0.0
S1628 S 0.62547 0.37484 0.71502 0.0
N1629 N 0.60202 0.38749 0.70156 0.0
N1630 N 0.64963 0.38577 0.70132 0.0
C1631 C 0.63914 0.40077 0.68495 0.0
C1632 C 0.61339 0.40162 0.68499 0.0
C1633 C 0.84247 0.36174 0.93567 0.0
C1634 C 0.82553 0.35084 0.92007 0.0
C1635 C 0.84428 0.38695 0.93754 0.0
C1636 C 0.82953 0.40202 0.92348 0.0
H1637 H 0.85527 0.35072 0.94558 0.0
H1638 H 0.85851 0.3946 0.94861 0.0
S1639 S 0.78014 0.38268 0.88249 0.0
N1640 N 0.79186 0.35716 0.89257 0.0
N1641 N 0.79566 0.40453 0.89562 0.0
C1642 C 0.81135 0.39141 0.90923 0.0
C1643 C 0.80922 0.36578 0.90766 0.0
C1644 C 0.88782 0.58757 0.13059 0.0
C1645 C 0.90082 0.57662 0.14937 0.0
C1646 C 0.86275 0.58968 0.13165 0.0
C1647 C 0.84964 0.58143 0.15182 0.0
H1648 H 0.8972 0.59508 0.11512 0.0
H1649 H 0.8537 0.59869 0.11681 0.0
S1650 S 0.87531 0.55051 0.20546 0.0
N1651 N 0.89903 0.55642 0.18829 0.0
N1652 N 0.85153 0.56093 0.19068 0.0
C1653 C 0.86236 0.56986 0.17055 0.0
C1654 C 0.88806 0.56726 0.16921 0.0
C1655 C 0.63784 0.60891 0.40103 0.0
C1656 C 0.65549 0.59572 0.41358 0.0
C1657 C 0.63842 0.63407 0.40032 0.0
C1658 C 0.65699 0.64717 0.41167 0.0
H1659 H 0.62334 0.59969 0.39162 0.0
H1660 H 0.62438 0.64332 0.39026 0.0
S1661 S 0.70758 0.62123 0.44706 0.0
N1662 N 0.69188 0.59743 0.43812 0.0
N1663 N 0.69346 0.64517 0.43609 0.0
C1664 C 0.67485 0.6343 0.42434 0.0
C1665 C 0.67393 0.60846 0.42555 0.0
C1666 C 0.58328 0.80787 0.61112 0.0
C1667 C 0.5678 0.82443 0.59953 0.0
C1668 C 0.5848 0.80679 0.63639 0.0
C1669 C 0.57125 0.8226 0.65085 0.0
H1670 H 0.59533 0.79662 0.60057 0.0
H1671 H 0.59806 0.79489 0.64451 0.0
S1672 S 0.52556 0.86678 0.62962 0.0
N1673 N 0.53652 0.85483 0.60457 0.0
N1674 N 0.53979 0.85321 0.65206 0.0
C1675 C 0.55433 0.83786 0.63959 0.0
C1676 C 0.55246 0.83865 0.61388 0.0
C1677 C 0.38733 0.40165 0.18304 0.0
C1678 C 0.39918 0.41812 0.16763 0.0
C1679 C 0.36207 0.39989 0.18346 0.0
C1680 C 0.34791 0.41425 0.16812 0.0
H1681 H 0.3977 0.3891 0.19393 0.0
H1682 H 0.35374 0.38599 0.19446 0.0
S1683 S 0.36977 0.46262 0.12716 0.0
N1684 N 0.39463 0.45109 0.13898 0.0
N1685 N 0.34714 0.44746 0.13935 0.0
C1686 C 0.35939 0.43207 0.15407 0.0
C1687 C 0.38507 0.43414 0.15396 0.0
C1688 C 0.30797 0.63296 0.90211 0.0
C1689 C 0.3197 0.6476 0.91918 0.0
C1690 C 0.30948 0.60771 0.90352 0.0
C1691 C 0.32232 0.59631 0.92232 0.0
H1692 H 0.29922 0.641 0.88655 0.0
H1693 H 0.30157 0.59707 0.88911 0.0
S1694 S 0.35287 0.62676 0.97356 0.0
N1695 N 0.34226 0.64908 0.95683 0.0
N1696 N 0.34453 0.6016 0.95984 0.0
C1697 C 0.33219 0.61076 0.94069 0.0
C1698 C 0.33105 0.63645 0.939 0.0
C1699 C 0.13445 0.59032 0.68686 0.0
C1700 C 0.14824 0.57559 0.67151 0.0
C1701 C 0.10916 0.58953 0.6862 0.0
C1702 C 0.09684 0.57376 0.67046 0.0
H1703 H 0.14312 0.60389 0.69799 0.0
H1704 H 0.0992 0.60245 0.69701 0.0
S1705 S 0.12486 0.52822 0.6302 0.0
N1706 N 0.14796 0.54237 0.64273 0.0
N1707 N 0.10037 0.54071 0.64178 0.0
C1708 C 0.11045 0.55717 0.65696 0.0
C1709 C 0.13621 0.55817 0.65739 0.0
C1710 C 0.1529 0.38394 0.43407 0.0
C1711 C 0.16864 0.39789 0.4199 0.0
C1712 C 0.15245 0.35871 0.43187 0.0
C1713 C 0.16819 0.34664 0.41595 0.0
H1714 H 0.1397 0.39263 0.44563 0.0
H1715 H 0.13905 0.34865 0.44201 0.0
S1716 S 0.21487 0.37494 0.37721 0.0
N1717 N 0.20163 0.3979 0.39092 0.0
N1718 N 0.20139 0.35036 0.38748 0.0
C1719 C 0.18528 0.36028 0.40313 0.0
C1720 C 0.18533 0.38599 0.40491 0.0
C1721 C 0.38883 0.58865 0.31289 0.0
C1722 C 0.39906 0.57034 0.32737 0.0
C1723 C 0.36369 0.59178 0.31146 0.0
C1724 C 0.34806 0.57699 0.32487 0.0
H1725 H 0.40036 0.60142 0.30354 0.0
H1726 H 0.35661 0.60691 0.30126 0.0
S1727 S 0.36535 0.52462 0.36294 0.0
N1728 N 0.39131 0.53561 0.35315 0.0
N1729 N 0.34418 0.54188 0.35094 0.0
C1730 C 0.35792 0.55762 0.33802 0.0
C1731 C 0.38343 0.55416 0.33912 0.0
C1732 C 0.16049 0.61265 0.06284 0.0
C1733 C 0.17318 0.59827 0.07941 0.0
C1734 C 0.16184 0.63793 0.06401 0.0
C1735 C 0.17626 0.64959 0.08149 0.0
H1736 H 0.14807 0.60444 0.05012 0.0
H1737 H 0.15045 0.64842 0.05203 0.0
S1738 S 0.2162 0.61968 0.12616 0.0
N1739 N 0.20286 0.59719 0.11178 0.0
N1740 N 0.20578 0.64468 0.11364 0.0
C1741 C 0.19079 0.63531 0.09659 0.0
C1742 C 0.18911 0.60961 0.09566 0.0
C1743 C 0.13302 0.40568 0.80868 0.0
C1744 C 0.1481 0.42028 0.82293 0.0
C1745 C 0.10783 0.40683 0.81113 0.0
C1746 C 0.09695 0.4231 0.82738 0.0
H1747 H 0.14072 0.39209 0.79689 0.0
H1748 H 0.09682 0.3942 0.801 0.0
S1749 S 0.12856 0.46728 0.86647 0.0
N1750 N 0.15049 0.4528 0.85233 0.0
N1751 N 0.10307 0.45557 0.85624 0.0
C1752 C 0.11178 0.43911 0.84026 0.0
C1753 C 0.13743 0.43752 0.83823 0.0
C1754 C 0.31489 0.38484 0.59068 0.0
C1755 C 0.33064 0.39714 0.57489 0.0
C1756 C 0.31374 0.35954 0.59103 0.0
C1757 C 0.32863 0.34573 0.57586 0.0
H1758 H 0.30439 0.39479 0.60387 0.0
H1759 H 0.30264 0.35083 0.6046 0.0
S1760 S 0.36988 0.3691 0.52846 0.0
N1761 N 0.35889 0.3936 0.54146 0.0
N1762 N 0.3571 0.34601 0.54241 0.0
C1763 C 0.34282 0.35779 0.55854 0.0
C1764 C 0.34372 0.38355 0.55795 0.0
C1765 C 0.41612 0.18509 0.38495 0.0
C1766 C 0.43124 0.16785 0.39599 0.0
C1767 C 0.41411 0.1866 0.35975 0.0
C1768 C 0.42683 0.17061 0.34472 0.0
H1769 H 0.4047 0.19663 0.39589 0.0
H1770 H 0.40111 0.19911 0.35215 0.0
S1771 S 0.47157 0.12473 0.36446 0.0
N1772 N 0.46143 0.13659 0.38989 0.0
N1773 N 0.45736 0.13908 0.34248 0.0
C1774 C 0.44351 0.15467 0.35544 0.0
C1775 C 0.44582 0.15339 0.38112 0.0
C1776 C 0.97902 0.10031 0.27269 0.0
C1777 C 0.99333 0.11681 0.2857 0.0
C1778 C 0.96173 0.10831 0.2561 0.0
C1779 C 0.95832 0.13307 0.25178 0.0
H1780 H 0.9802 0.0811 0.27625 0.0
H1781 H 0.95027 0.09501 0.24743 0.0
S1782 S 0.99391 0.1834 0.27844 0.0
N1783 N 0.00493 0.15881 0.29122 0.0
N1784 N 0.97263 0.17397 0.25979 0.0
C1785 C 0.97384 0.14968 0.26327 0.0
C1786 C 0.99131 0.14151 0.28033 0.0
C1787 C 0.14214 0.73942 0.51722 0.0
C1788 C 0.12526 0.74922 0.53351 0.0
C1789 C 0.13531 0.7218 0.50048 0.0
C1790 C 0.11131 0.71375 0.49917 0.0
H1791 H 0.16113 0.744 0.51852 0.0
H1792 H 0.14917 0.71348 0.48944 0.0
S1793 S 0.05946 0.73668 0.53499 0.0
N1794 N 0.08301 0.75183 0.54528 0.0
N1795 N 0.07002 0.71896 0.51345 0.0
C1796 C 0.09381 0.72511 0.51369 0.0
C1797 C 0.10083 0.74283 0.53099 0.0
C1798 C 0.51985 0.84992 0.767 0.0
C1799 C 0.53496 0.86561 0.75385 0.0
C1800 C 0.50295 0.85888 0.78348 0.0
C1801 C 0.50026 0.88384 0.78708 0.0
H1802 H 0.52202 0.83051 0.76566 0.0
H1803 H 0.49277 0.84615 0.79434 0.0
S1804 S 0.53315 0.93257 0.75474 0.0
N1805 N 0.54452 0.90729 0.74375 0.0
N1806 N 0.51241 0.92422 0.77448 0.0
C1807 C 0.51386 0.89977 0.77263 0.0
C1808 C 0.53135 0.89062 0.75608 0.0
C1809 C 0.3563 0.27746 0.00355 0.0
C1810 C 0.38078 0.28339 0.00076 0.0
C1811 C 0.34909 0.25954 0.01982 0.0
C1812 C 0.36612 0.24733 0.03425 0.0
H1813 H 0.34251 0.28756 0.99398 0.0
H1814 H 0.32991 0.2565 0.02229 0.0
S1815 S 0.43268 0.25443 0.03183 0.0
N1816 N 0.42231 0.27409 0.01193 0.0
N1817 N 0.40865 0.24072 0.043 0.0
C1818 C 0.39078 0.25193 0.03044 0.0
C1819 C 0.39815 0.26991 0.01353 0.0
C1820 C 0.99308 0.86879 0.21355 0.0
C1821 C 0.99385 0.89363 0.20846 0.0
C1822 C 0.97798 0.8597 0.23165 0.0
C1823 C 0.96287 0.87512 0.24507 0.0
H1824 H 0.0036 0.85614 0.20294 0.0
H1825 H 0.97717 0.8403 0.23414 0.0
S1826 S 0.95997 0.9419 0.24045 0.0
N1827 N 0.97979 0.93379 0.21969 0.0
N1828 N 0.95113 0.91659 0.25352 0.0
C1829 C 0.96449 0.90013 0.24113 0.0
C1830 C 0.98006 0.90943 0.22285 0.0
C1831 C 0.39708 0.72196 0.47898 0.0
C1832 C 0.38117 0.70746 0.49254 0.0
C1833 C 0.38837 0.7387 0.46218 0.0
C1834 C 0.36345 0.74179 0.45859 0.0
H1835 H 0.41646 0.71962 0.48048 0.0
H1836 H 0.40127 0.74869 0.45136 0.0
S1837 S 0.31421 0.71005 0.49134 0.0
N1838 N 0.33933 0.69855 0.50259 0.0
N1839 N 0.32289 0.7303 0.47122 0.0
C1840 C 0.34731 0.7285 0.47309 0.0
C1841 C 0.3562 0.71123 0.49002 0.0
C1842 C 0.50414 0.14076 0.71498 0.0
C1843 C 0.49904 0.11596 0.71296 0.0
C1844 C 0.52102 0.14919 0.7318 0.0
C1845 C 0.53357 0.13305 0.74688 0.0
H1846 H 0.49605 0.15361 0.70263 0.0
H1847 H 0.52548 0.16826 0.73175 0.0
S1848 S 0.52401 0.06697 0.75148 0.0
N1849 N 0.50555 0.07575 0.72975 0.0
N1850 N 0.53771 0.09171 0.76096 0.0
C1851 C 0.52729 0.10852 0.74639 0.0
C1852 C 0.50985 0.09994 0.72953 0.0
C1853 C 0.11114 0.26348 0.95749 0.0
C1854 C 0.13623 0.26053 0.95501 0.0
C1855 C 0.10157 0.27989 0.97415 0.0
C1856 C 0.11676 0.29412 0.98874 0.0
H1857 H 0.09877 0.25352 0.94604 0.0
H1858 H 0.08213 0.28209 0.97488 0.0
S1859 S 0.18369 0.29168 0.99086 0.0
N1860 N 0.1761 0.27191 0.96986 0.0
N1861 N 0.15802 0.30296 0.00098 0.0
C1862 C 0.14184 0.29061 0.98722 0.0
C1863 C 0.1516 0.27374 0.97041 0.0
C1864 C 0.2719 0.97915 0.0961 0.0
C1865 C 0.28779 0.99256 0.11071 0.0
C1866 C 0.25516 0.96321 0.10635 0.0
C1867 C 0.25348 0.96049 0.13154 0.0
H1868 H 0.27336 0.97984 0.07659 0.0
H1869 H 0.24416 0.95223 0.09444 0.0
S1870 S 0.28886 0.994 0.17768 0.0
N1871 N 0.29932 0.00387 0.15155 0.0
N1872 N 0.26752 0.97427 0.17092 0.0
C1873 C 0.26802 0.97517 0.14637 0.0
C1874 C 0.28531 0.99112 0.13591 0.0
C1875 C 0.28184 0.00321 0.36052 0.0
C1876 C 0.28659 -0.0001 0.38522 0.0
C1877 C 0.2645 0.01984 0.35275 0.0
C1878 C 0.25155 0.03398 0.36943 0.0
H1879 H 0.29241 0.99378 0.34701 0.0
H1880 H 0.26241 0.02267 0.33349 0.0
S1881 S 0.25458 0.02948 0.43621 0.0
N1882 N 0.27483 0.00989 0.42644 0.0
N1883 N 0.24243 0.04148 0.41174 0.0
C1884 C 0.25474 0.02948 0.3942 0.0
C1885 C 0.27222 0.01232 0.40214 0.0
C1886 C 0.21525 0.0033 0.6385 0.0
C1887 C 0.21133 -0.0004 0.61372 0.0
C1888 C 0.23232 0.02008 0.64655 0.0
C1889 C 0.24584 0.03395 0.63008 0.0
H1890 H 0.20419 0.99411 0.6518 0.0
H1891 H 0.23378 0.02322 0.66582 0.0
S1892 S 0.24505 0.0284 0.56332 0.0
N1893 N 0.22448 0.00894 0.57274 0.0
N1894 N 0.25638 0.04078 0.58798 0.0
C1895 C 0.2435 0.02904 0.6053 0.0
C1896 C 0.22629 0.01174 0.59708 0.0
C1897 C 0.24135 0.96567 0.8928 0.0
C1898 C 0.24598 0.96252 0.86806 0.0
C1899 C 0.22463 0.98283 0.90076 0.0
C1900 C 0.2117 0.99719 0.88423 0.0
H1901 H 0.24991 0.95411 0.90607 0.0
H1902 H 0.22086 0.98381 0.91995 0.0
S1903 S 0.21947 0.99813 0.81772 0.0
N1904 N 0.23821 0.97694 0.82719 0.0
N1905 N 0.20643 0.00896 0.84225 0.0
C1906 C 0.21731 0.99536 0.85957 0.0
C1907 C 0.23459 0.97808 0.85145 0.0
C1908 C 0.64564 0.2309 0.02511 0.0
C1909 C 0.62876 0.24335 0.03946 0.0
C1910 C 0.63815 0.21395 0.00799 0.0
C1911 C 0.61351 0.20902 0.00445 0.0
H1912 H 0.66486 0.23322 0.028 0.0
H1913 H 0.65183 0.20388 0.99827 0.0
S1914 S 0.56203 0.23966 0.03465 0.0
N1915 N 0.58632 0.25175 0.04707 0.0
N1916 N 0.57211 0.22001 0.01461 0.0
C1917 C 0.59638 0.22278 0.01725 0.0
C1918 C 0.60404 0.23992 0.03487 0.0
C1919 C 0.01334 0.36369 0.28972 0.0
C1920 C 0.01265 0.38872 0.29379 0.0
C1921 C 0.02909 0.35375 0.27263 0.0
C1922 C 0.04493 0.36847 0.25923 0.0
H1923 H 0.00188 0.35163 0.30005 0.0
H1924 H 0.02934 0.33429 0.27048 0.0
S1925 S 0.04966 0.43524 0.26257 0.0
N1926 N 0.02862 0.42816 0.2825 0.0
N1927 N 0.05841 0.40939 0.25056 0.0
C1928 C 0.04405 0.39358 0.26272 0.0
C1929 C 0.02784 0.40374 0.27995 0.0
C1930 C 0.89054 0.75897 0.53462 0.0
C1931 C 0.86567 0.75468 0.53733 0.0
C1932 C 0.89905 0.77592 0.5179 0.0
C1933 C 0.88297 0.78934 0.50347 0.0
H1934 H 0.90351 0.74991 0.54614 0.0
H1935 H 0.9183 0.77938 0.51723 0.0
S1936 S 0.81635 0.78259 0.50129 0.0
N1937 N 0.82517 0.76338 0.52233 0.0
N1938 N 0.84127 0.79546 0.49114 0.0
C1939 C 0.85819 0.78414 0.50489 0.0
C1940 C 0.84951 0.76673 0.52176 0.0
C1941 C 0.00288 0.63413 0.21543 0.0
C1942 C 0.99785 0.60953 0.21172 0.0
C1943 C 0.01954 0.64145 0.23296 0.0
C1944 C 0.03203 0.62435 0.24702 0.0
H1945 H 0.99504 0.64773 0.20373 0.0
H1946 H 0.02401 0.66047 0.23412 0.0
S1947 S 0.02241 0.55811 0.24715 0.0
N1948 N 0.00414 0.56832 0.22588 0.0
N1949 N 0.03597 0.58217 0.25844 0.0
C1950 C 0.02565 0.59992 0.24497 0.0
C1951 C 0.00835 0.59247 0.22741 0.0
C1952 C 0.47815 0.3527 0.7412 0.0
C1953 C 0.46386 0.37041 0.75248 0.0
C1954 C 0.49581 0.35916 0.72432 0.0
C1955 C 0.5 0.38352 0.71855 0.0
H1956 H 0.47433 0.33367 0.7438 0.0
H1957 H 0.5051 0.34492 0.71463 0.0
S1958 S 0.47093 0.43676 0.74719 0.0
N1959 N 0.45748 0.41322 0.75965 0.0
N1960 N 0.49114 0.42552 0.72834 0.0
C1961 C 0.48775 0.40144 0.7318 0.0
C1962 C 0.46949 0.39483 0.74869 0.0
C1963 C 0.01166 0.86042 0.71181 0.0
C1964 C 0.00941 0.88545 0.70832 0.0
C1965 C 0.02865 0.85105 0.72801 0.0
C1966 C 0.04421 0.86638 0.74105 0.0
H1967 H 0.00058 0.84793 0.70158 0.0
H1968 H 0.03016 0.8316 0.72964 0.0
S1969 S 0.04467 0.93338 0.73943 0.0
N1970 N 0.02334 0.92552 0.72013 0.0
N1971 N 0.05545 0.90782 0.75038 0.0
C1972 C 0.04161 0.89147 0.73835 0.0
C1973 C 0.02414 0.90104 0.72203 0.0
C1974 C 0.84677 0.26811 0.47223 0.0
C1975 C 0.86216 0.25322 0.45854 0.0
C1976 C 0.85611 0.28452 0.48898 0.0
C1977 C 0.88114 0.28649 0.49276 0.0
H1978 H 0.82745 0.26806 0.46909 0.0
H1979 H 0.84367 0.29649 0.49819 0.0
S1980 S 0.92874 0.24863 0.46443 0.0
N1981 N 0.9033 0.23933 0.45194 0.0
N1982 N 0.92095 0.27006 0.48365 0.0
C1983 C 0.89658 0.27034 0.48061 0.0
C1984 C 0.88705 0.25372 0.46341 0.0
C1985 C 0.46703 0.14011 0.22088 0.0
C1986 C 0.45199 0.12535 0.23513 0.0
C1987 C 0.48303 0.1301 0.20408 0.0
C1988 C 0.48474 0.10497 0.20109 0.0
H1989 H 0.46601 0.15961 0.22218 0.0
H1990 H 0.49385 0.1422 0.19313 0.0
S1991 S 0.45027 0.05836 0.23495 0.0
N1992 N 0.44048 0.08432 0.24586 0.0
N1993 N 0.4707 0.06542 0.21441 0.0
C1994 C 0.47038 0.08995 0.21578 0.0
C1995 C 0.45394 0.10016 0.23277 0.0
C1996 C 0.63511 0.71282 0.9931 0.0
C1997 C 0.61024 0.70946 0.99687 0.0
C1998 C 0.64352 0.73041 0.97704 0.0
C1999 C 0.62732 0.74503 0.96401 0.0
H2000 H 0.64817 0.70101 0.00165 0.0
H2001 H 0.66278 0.73138 0.97365 0.0
S2002 S 0.56068 0.74615 0.97035 0.0
N2003 N 0.56961 0.72438 0.98868 0.0
N2004 N 0.58556 0.7572 0.95814 0.0
C2005 C 0.60255 0.74319 0.96903 0.0
C2006 C 0.59396 0.72545 0.98558 0.0
C2007 C 0.03417 0.10585 0.75881 0.0
C2008 C 0.03664 0.13072 0.75436 0.0
C2009 C 0.01719 0.09727 0.77543 0.0
C2010 C 0.00228 0.11331 0.78832 0.0
H2011 H 0.04611 0.09296 0.7502 0.0
H2012 H 0.01671 0.07806 0.77914 0.0
S2013 S -0.00084 0.17978 0.78068 0.0
N2014 N 0.02081 0.17108 0.76212 0.0
N2015 N 0.9891 0.15485 0.79361 0.0
C2016 C 0.0034 0.13804 0.78285 0.0
C2017 C 0.02054 0.14678 0.76577 0.0
C2018 C 0.60078 0.26825 0.51208 0.0
C2019 C 0.61749 0.28303 0.4999 0.0
C2020 C 0.60855 0.25084 0.52866 0.0
C2021 C 0.63327 0.24739 0.53325 0.0
H2022 H 0.58154 0.27131 0.5102 0.0
H2023 H 0.59509 0.24098 0.5389 0.0
S2024 S 0.68426 0.2788 0.50298 0.0
N2025 N 0.65977 0.2912 0.4913 0.0
N2026 N 0.6745 0.25812 0.52215 0.0
C2027 C 0.65019 0.26047 0.51948 0.0
C2028 C 0.64225 0.27844 0.50287 0.0
C2029 C 0.48531 0.89619 0.27085 0.0
C2030 C 0.49767 0.87961 0.28564 0.0
C2031 C 0.4677 0.88841 0.25451 0.0
C2032 C 0.46219 0.86378 0.25205 0.0
H2033 H 0.48803 0.91545 0.273 0.0
H2034 H 0.45757 0.90188 0.24453 0.0
S2035 S 0.49207 0.81288 0.28389 0.0
N2036 N 0.50513 0.83733 0.29494 0.0
N2037 N 0.47229 0.8226 0.26377 0.0
C2038 C 0.47587 0.84686 0.26519 0.0
C2039 C 0.49357 0.85482 0.28214 0.0
C2040 C 0.8566 0.72869 0.0274 0.0
C2041 C 0.87223 0.74227 0.04214 0.0
C2042 C 0.86565 0.71215 0.01061 0.0
C2043 C 0.89064 0.70888 0.00768 0.0
H2044 H 0.83719 0.72996 0.0296 0.0
H2045 H 0.85295 0.70127 0.00041 0.0
S2046 S 0.93922 0.74189 0.04008 0.0
N2047 N 0.91388 0.75272 0.05151 0.0
N2048 N 0.93096 0.72183 0.01961 0.0
C2049 C 0.9065 0.7234 0.02124 0.0
C2050 C 0.89727 0.74004 0.0386 0.0
C2051 C 0.73799 0.02026 0.84987 0.0
C2052 C 0.74851 0.03698 0.86589 0.0
C2053 C 0.72254 0.00214 0.85829 0.0
C2054 C 0.71742 -0.00013 0.88302 0.0
H2055 H 0.74043 0.02208 0.83053 0.0
H2056 H 0.71356 0.99066 0.84521 0.0
S2057 S 0.74336 0.03678 0.93269 0.0
N2058 N 0.75494 0.04847 0.9078 0.0
N2059 N 0.72616 0.0141 0.92374 0.0
C2060 C 0.7295 0.0151 0.89943 0.0
C2061 C 0.74498 0.03379 0.89081 0.0
C2062 C 0.73008 0.97066 0.65283 0.0
C2063 C 0.74443 0.95696 0.63696 0.0
C2064 C 0.7132 0.98723 0.64404 0.0
C2065 C 0.71026 0.99084 0.61909 0.0
H2066 H 0.73088 0.96765 0.67216 0.0
H2067 H 0.70167 0.99646 0.65688 0.0
S2068 S 0.74625 0.9623 0.57019 0.0
N2069 N 0.75668 0.9501 0.59533 0.0
N2070 N 0.72508 0.98149 0.5787 0.0
C2071 C 0.72587 0.9787 0.6031 0.0
C2072 C 0.74294 0.96166 0.61207 0.0
C2073 C 0.76937 0.97161 0.34861 0.0
C2074 C 0.75646 0.95621 0.36421 0.0
C2075 C 0.78554 0.9888 0.35766 0.0
C2076 C 0.78917 0.99139 0.38263 0.0
H2077 H 0.76777 0.96977 0.32918 0.0
H2078 H 0.79576 -0.00036 0.34495 0.0
S2079 S 0.75806 0.95698 0.43119 0.0
N2080 N 0.74712 0.94572 0.40583 0.0
N2081 N 0.77733 0.97821 0.42295 0.0
C2082 C 0.77542 0.97697 0.39849 0.0
C2083 C 0.75911 0.95931 0.38924 0.0
C2084 C 0.7519 0.02923 0.11133 0.0
C2085 C 0.74968 0.03335 0.13628 0.0
C2086 C 0.76891 0.01288 0.10236 0.0
C2087 C 0.78448 0.00032 0.11804 0.0
H2088 H 0.74122 0.03952 0.09855 0.0
H2089 H 0.77087 0.01127 0.08295 0.0
S2090 S 0.78339 0.00175 0.18499 0.0
N2091 N 0.7624 0.02124 0.17668 0.0
N2092 N 0.79468 0.99076 0.15967 0.0
C2093 C 0.78123 0.00287 0.14305 0.0
C2094 C 0.76372 0.01933 0.15223 0.0
C2095 C 0.34753 0.76802 0.9719 0.0
C2096 C 0.36331 0.75221 0.95979 0.0
C2097 C 0.3563 0.78499 0.98842 0.0
C2098 C 0.38107 0.78644 0.99375 0.0
H2099 H 0.32845 0.76834 0.96751 0.0
H2100 H 0.34372 0.7978 0.99623 0.0
S2101 S 0.42932 0.74658 0.96966 0.0
N2102 N 0.40442 0.73724 0.95612 0.0
N2103 N 0.42094 0.76887 0.98763 0.0
C2104 C 0.39677 0.76939 0.98329 0.0
C2105 C 0.38787 0.75235 0.96615 0.0
C2106 C 0.96169 0.60661 0.74144 0.0
C2107 C 0.95856 0.63132 0.74631 0.0
C2108 C 0.97886 0.5988 0.72466 0.0
C2109 C 0.99332 0.61545 0.71201 0.0
H2110 H 0.95003 0.59326 0.74976 0.0
H2111 H 0.97977 0.57968 0.72058 0.0
S2112 S 0.99497 0.68179 0.72106 0.0
N2113 N 0.97352 0.67219 0.73944 0.0
N2114 N 0.00559 0.65739 0.70761 0.0
C2115 C 0.99167 0.64002 0.71802 0.0
C2116 C 0.97434 0.64799 0.73528 0.0
C2117 C 0.134 0.21981 0.49403 0.0
C2118 C 0.10938 0.21402 0.49602 0.0
C2119 C 0.142 0.23669 0.47703 0.0
C2120 C 0.12567 0.24807 0.46121 0.0
H2121 H 0.14733 0.21037 0.50481 0.0
H2122 H 0.16129 0.23954 0.47523 0.0
S2123 S 0.05896 0.242 0.46168 0.0
N2124 N 0.06838 0.22326 0.48289 0.0
N2125 N 0.08357 0.25473 0.45062 0.0
C2126 C 0.10084 0.24393 0.46434 0.0
C2127 C 0.09265 0.22694 0.48186 0.0
C2128 C 0.96705 0.38805 0.75424 0.0
C2129 C 0.96273 0.3631 0.75242 0.0
C2130 C 0.98346 0.39718 0.77114 0.0
C2131 C 0.99587 0.38169 0.78702 0.0
H2132 H 0.95695 0.40071 0.74324 0.0
H2133 H 0.98533 0.4166 0.77267 0.0
S2134 S 0.99336 0.31475 0.78747 0.0
N2135 N 0.97411 0.32285 0.76617 0.0
N2136 N 0.00472 0.34015 0.79821 0.0
C2137 C 0.99295 0.35664 0.78432 0.0
C2138 C 0.97643 0.3473 0.76691 0.0
C2139 C 0.52939 0.63736 0.27314 0.0
C2140 C 0.54392 0.62179 0.25925 0.0
C2141 C 0.51318 0.62825 0.29026 0.0
C2142 C 0.51068 0.60327 0.29386 0.0
H2143 H 0.5311 0.65678 0.2714 0.0
H2144 H 0.50282 0.64091 0.30101 0.0
S2145 S 0.54347 0.5548 0.26103 0.0
N2146 N 0.55404 0.58019 0.24945 0.0
N2147 N 0.52334 0.56299 0.28144 0.0
C2148 C 0.52443 0.58745 0.27944 0.0
C2149 C 0.54113 0.59674 0.26218 0.0
C2150 C 0.48781 0.63551 0.78137 0.0
C2151 C 0.49025 0.61049 0.78489 0.0
C2152 C 0.47198 0.64466 0.76396 0.0
C2153 C 0.45786 0.6291 0.74966 0.0
H2154 H 0.49737 0.64817 0.79283 0.0
H2155 H 0.46975 0.66407 0.7628 0.0
S2156 S 0.46028 0.56217 0.74923 0.0
N2157 N 0.47943 0.57026 0.77063 0.0
N2158 N 0.44937 0.5876 0.73809 0.0
C2159 C 0.46141 0.60408 0.75175 0.0
C2160 C 0.47771 0.59473 0.76934 0.0
C2161 C 0.89338 0.22577 0.98098 0.0
C2162 C 0.87697 0.21234 0.99499 0.0
C2163 C 0.88521 0.24216 0.96358 0.0
C2164 C 0.86038 0.24587 0.95984 0.0
H2165 H 0.91264 0.2225 0.98234 0.0
H2166 H 0.89844 0.25115 0.95228 0.0
S2167 S 0.81025 0.21804 0.99477 0.0
N2168 N 0.83499 0.20582 0.00608 0.0
N2169 N 0.8195 0.23694 0.97363 0.0
C2170 C 0.84385 0.23404 0.97516 0.0
C2171 C 0.85219 0.21716 0.99269 0.0
C2172 C 0.6028 0.75587 0.46333 0.0
C2173 C 0.6277 0.75205 0.46028 0.0
C2174 C 0.59422 0.7725 0.48026 0.0
C2175 C 0.61026 0.78611 0.49454 0.0
H2176 H 0.58984 0.74673 0.45185 0.0
H2177 H 0.57492 0.7756 0.48118 0.0
S2178 S 0.677 0.78049 0.49585 0.0
N2179 N 0.66824 0.76127 0.47478 0.0
N2180 N 0.65201 0.79283 0.50645 0.0
C2181 C 0.63511 0.7813 0.49285 0.0
C2182 C 0.64386 0.76415 0.47576 0.0
C2183 C 0.76545 0.47364 0.64197 0.0
C2184 C 0.75209 0.45967 0.62547 0.0
C2185 C 0.78203 0.49094 0.63392 0.0
C2186 C 0.78558 0.49502 0.60912 0.0
H2187 H 0.76429 0.47015 0.6612 0.0
H2188 H 0.79297 0.50027 0.6472 0.0
S2189 S 0.75177 0.4661 0.55881 0.0
N2190 N 0.74116 0.45308 0.58347 0.0
N2191 N 0.77202 0.4859 0.5682 0.0
C2192 C 0.77073 0.48266 0.59252 0.0
C2193 C 0.75406 0.46487 0.60074 0.0
C2194 C 0.77201 0.51624 0.90123 0.0
C2195 C 0.78649 0.50297 0.88513 0.0
C2196 C 0.75429 0.53209 0.89266 0.0
C2197 C 0.75028 0.53494 0.86774 0.0
H2198 H 0.77536 0.51553 0.92051 0.0
H2199 H 0.74449 0.543 0.90562 0.0
S2200 S 0.78082 0.5012 0.81842 0.0
N2201 N 0.79387 0.49147 0.84341 0.0
N2202 N 0.76029 0.52097 0.8272 0.0
C2203 C 0.76329 0.52023 0.85158 0.0
C2204 C 0.78151 0.50432 0.86031 0.0
C2205 C 0.71794 0.50465 0.13153 0.0
C2206 C 0.71231 0.50215 0.10692 0.0
C2207 C 0.73517 0.52143 0.13922 0.0
C2208 C 0.74707 0.53651 0.12257 0.0
H2209 H 0.70827 0.49431 0.14506 0.0
H2210 H 0.73801 0.52362 0.15847 0.0
S2211 S 0.74116 0.5349 0.05591 0.0
N2212 N 0.72192 0.51431 0.06568 0.0
N2213 N 0.75402 0.54621 0.08033 0.0
C2214 C 0.74281 0.53311 0.09783 0.0
C2215 C 0.72548 0.51579 0.08994 0.0
C2216 C 0.743 0.46764 0.38213 0.0
C2217 C 0.74418 0.46237 0.35734 0.0
C2218 C 0.72593 0.48397 0.39111 0.0
C2219 C 0.70916 0.49521 0.37565 0.0
H2220 H 0.75476 0.45844 0.3948 0.0
H2221 H 0.72493 0.48662 0.41048 0.0
S2222 S 0.70633 0.48948 0.30899 0.0
N2223 N 0.72859 0.47139 0.31716 0.0
N2224 N 0.69614 0.50167 0.33423 0.0
C2225 C 0.71105 0.49118 0.35069 0.0
C2226 C 0.72868 0.47485 0.34148 0.0
C2227 C 0.52186 0.35622 0.23915 0.0
C2228 C 0.53702 0.37328 0.25037 0.0
C2229 C 0.50509 0.36328 0.22166 0.0
C2230 C 0.50266 0.38764 0.21505 0.0
H2231 H 0.52406 0.33708 0.24259 0.0
H2232 H 0.49487 0.34938 0.21239 0.0
S2233 S 0.53498 0.43973 0.24239 0.0
N2234 N 0.54639 0.4158 0.25606 0.0
N2235 N 0.51449 0.42924 0.22341 0.0
C2236 C 0.51607 0.40512 0.2278 0.0
C2237 C 0.53338 0.39788 0.24543 0.0
C2238 C 0.14808 0.76899 0.02789 0.0
C2239 C 0.13193 0.75572 0.04237 0.0
C2240 C 0.13965 0.7856 0.01083 0.0
C2241 C 0.11477 0.78933 0.00746 0.0
H2242 H 0.16742 0.76739 0.03049 0.0
H2243 H 0.15274 0.79617 0.00081 0.0
S2244 S 0.06502 0.75693 0.03883 0.0
N2245 N 0.08996 0.74583 0.05083 0.0
N2246 N 0.07401 0.77687 0.01855 0.0
C2247 C 0.09841 0.77507 0.02076 0.0
C2248 C 0.10702 0.75831 0.0383 0.0
C2249 C 0.36687 0.21169 0.50578 0.0
C2250 C 0.39184 0.20838 0.50265 0.0
C2251 C 0.358 0.22825 0.52264 0.0
C2252 C 0.37378 0.24189 0.53717 0.0
H2253 H 0.35405 0.20076 0.49581 0.0
H2254 H 0.33862 0.22943 0.52512 0.0
S2255 S 0.4407 0.24217 0.53391 0.0
N2256 N 0.43226 0.22186 0.51376 0.0
N2257 N 0.41547 0.25281 0.54572 0.0
C2258 C 0.39875 0.23986 0.53322 0.0
C2259 C 0.40782 0.22314 0.51585 0.0
C2260 C 0.22023 0.50244 0.35994 0.0
C2261 C 0.21643 0.49976 0.38488 0.0
C2262 C 0.2365 0.51963 0.35108 0.0
C2263 C 0.24913 0.535 0.36691 0.0
H2264 H 0.20967 0.49205 0.34713 0.0
H2265 H 0.23788 0.52198 0.3317 0.0
S2266 S 0.24796 0.53308 0.43385 0.0
N2267 N 0.22862 0.51201 0.42537 0.0
N2268 N 0.25887 0.54468 0.40862 0.0
C2269 C 0.24685 0.53129 0.39189 0.0
C2270 C 0.23057 0.51353 0.40093 0.0
C2271 C 0.22984 0.48283 0.09842 0.0
C2272 C 0.21678 0.49666 0.11525 0.0
C2273 C 0.24583 0.46487 0.10609 0.0
C2274 C 0.24952 0.46041 0.1308 0.0
H2275 H 0.22637 0.48458 0.07923 0.0
H2276 H 0.25428 0.45353 0.09256 0.0
S2277 S 0.22331 0.49511 0.18187 0.0
N2278 N 0.21111 0.50721 0.15748 0.0
N2279 N 0.24156 0.47369 0.17202 0.0
C2280 C 0.23847 0.47581 0.14775 0.0
C2281 C 0.22194 0.49391 0.13992 0.0
C2282 C 0.28269 0.49005 0.85828 0.0
C2283 C 0.28452 0.49281 0.88345 0.0
C2284 C 0.26604 0.47394 0.84817 0.0
C2285 C 0.25097 0.45976 0.86292 0.0
H2286 H 0.29482 0.4997 0.84632 0.0
H2287 H 0.26603 0.47158 0.82873 0.0
S2288 S 0.24682 0.46208 0.92971 0.0
N2289 N 0.26825 0.48167 0.92282 0.0
N2290 N 0.23729 0.451 0.9037 0.0
C2291 C 0.25163 0.46332 0.888 0.0
C2292 C 0.26832 0.47999 0.89831 0.0
C2293 C 0.28461 0.50684 0.63845 0.0
C2294 C 0.28888 0.50273 0.61378 0.0
C2295 C 0.26761 0.52392 0.646 0.0
C2296 C 0.25446 0.53767 0.62913 0.0
H2297 H 0.29512 0.49749 0.65207 0.0
H2298 H 0.26565 0.52715 0.66521 0.0
S2299 S 0.25679 0.53177 0.56245 0.0
N2300 N 0.27688 0.51213 0.57246 0.0
N2301 N 0.24512 0.54448 0.58676 0.0
C2302 C 0.2575 0.53276 0.60444 0.0
C2303 C 0.27466 0.51519 0.59673 0.0
C2304 C 0.06531 0.10396 0.42696 0.0
C2305 C 0.04723 0.11639 0.41422 0.0
C2306 C 0.07165 0.11068 0.45043 0.0
C2307 C 0.05976 0.12971 0.46229 0.0
H2308 H 0.07493 0.0891 0.41861 0.0
H2309 H 0.08605 0.10087 0.45937 0.0
S2310 S 0.01062 0.16758 0.43721 0.0
N2311 N 0.01721 0.14848 0.41523 0.0
N2312 N 0.02888 0.16078 0.45984 0.0
C2313 C 0.0413 0.14204 0.45004 0.0
C2314 C 0.03514 0.1355 0.42582 0.0
C2315 C 0.10424 0.78826 0.7011 0.0
C2316 C 0.12167 0.79724 0.71721 0.0
C2317 C 0.11053 0.78235 0.67721 0.0
C2318 C 0.13445 0.78511 0.66889 0.0
H2319 H 0.08545 0.78728 0.7065 0.0
H2320 H 0.09644 0.77645 0.66498 0.0
S2321 S 0.18702 0.80542 0.70551 0.0
N2322 N 0.16382 0.80686 0.72416 0.0
N2323 N 0.17595 0.79538 0.6797 0.0
C2324 C 0.15223 0.79264 0.68551 0.0
C2325 C 0.14573 0.79883 0.70958 0.0
C2326 C 0.45774 0.84818 0.94445 0.0
C2327 C 0.45829 0.86261 0.96535 0.0
C2328 C 0.46564 0.85717 0.92216 0.0
C2329 C 0.47385 0.8811 0.91992 0.0
H2330 H 0.44981 0.83028 0.94506 0.0
H2331 H 0.46362 0.84583 0.90633 0.0
S2332 S 0.48163 0.9252 0.96984 0.0
N2333 N 0.47012 0.90101 0.98301 0.0
N2334 N 0.48463 0.91817 0.94099 0.0
C2335 C 0.47622 0.8951 0.94103 0.0
C2336 C 0.46854 0.88576 0.96383 0.0
C2337 C 0.3451 0.20019 0.18454 0.0
C2338 C 0.36212 0.20902 0.16784 0.0
C2339 C 0.35172 0.19449 0.20821 0.0
C2340 C 0.37554 0.19774 0.21632 0.0
H2341 H 0.32663 0.19667 0.17909 0.0
H2342 H 0.33826 0.18652 0.22001 0.0
S2343 S 0.42656 0.22246 0.18069 0.0
N2344 N 0.40357 0.2224 0.16163 0.0
N2345 N 0.41594 0.21182 0.20648 0.0
C2346 C 0.39247 0.20794 0.2004 0.0
C2347 C 0.38579 0.21351 0.17604 0.0
C2348 C 0.06098 0.90429 0.0651 0.0
C2349 C 0.04511 0.89091 0.07974 0.0
C2350 C 0.06738 0.89627 0.04208 0.0
C2351 C 0.05785 0.87478 0.03254 0.0
H2352 H 0.06903 0.9209 0.07164 0.0
H2353 H 0.08026 0.90684 0.03177 0.0
S2354 S 0.01481 0.83348 0.06291 0.0
N2355 N 0.01941 0.85531 0.08276 0.0
N2356 N 0.03133 0.84041 0.03902 0.0
C2357 C 0.04137 0.86151 0.04653 0.0
C2358 C 0.03508 0.8695 0.07029 0.0
C2359 C 0.38605 0.78642 0.32139 0.0
C2360 C 0.36132 0.7877 0.3273 0.0
C2361 C 0.39438 0.79331 0.29843 0.0
C2362 C 0.37819 0.80121 0.28059 0.0
H2363 H 0.39918 0.78106 0.33488 0.0
H2364 H 0.41365 0.79357 0.29499 0.0
S2365 S 0.31183 0.80692 0.28612 0.0
N2366 N 0.3207 0.79668 0.31271 0.0
N2367 N 0.33662 0.80946 0.26973 0.0
C2368 C 0.35346 0.80161 0.28581 0.0
C2369 C 0.34493 0.79483 0.30912 0.0
C2370 C 0.46128 0.14026 0.54653 0.0
C2371 C 0.44948 0.12455 0.53048 0.0
C2372 C 0.46619 0.13308 0.57043 0.0
C2373 C 0.45964 0.10992 0.57881 0.0
H2374 H 0.46553 0.15856 0.54101 0.0
H2375 H 0.47465 0.14592 0.58255 0.0
S2376 S 0.43002 0.06168 0.54263 0.0
N2377 N 0.4325 0.08472 0.52387 0.0
N2378 N 0.44205 0.07091 0.56831 0.0
C2379 C 0.44885 0.09376 0.56236 0.0
C2380 C 0.44367 0.10119 0.5383 0.0
C2381 C 0.14065 0.17579 0.79528 0.0
C2382 C 0.12115 0.18734 0.78382 0.0
C2383 C 0.14824 0.18269 0.81832 0.0
C2384 C 0.13635 0.20115 0.83104 0.0
H2385 H 0.15014 0.16115 0.7864 0.0
H2386 H 0.16338 0.17321 0.82633 0.0
S2387 S 0.08438 0.23728 0.80897 0.0
N2388 N 0.09026 0.21839 0.78662 0.0
N2389 N 0.10431 0.23124 0.83038 0.0
C2390 C 0.11686 0.213 0.8198 0.0
C2391 C 0.10935 0.20618 0.79603 0.0
C2392 C 0.4597 0.04219 0.09484 0.0
C2393 C 0.46681 0.03794 0.1188 0.0
C2394 C 0.43644 0.03645 0.08695 0.0
C2395 C 0.4192 0.02665 0.10286 0.0
H2396 H 0.47192 0.051 0.08232 0.0
H2397 H 0.43167 0.0408 0.06847 0.0
S2398 S 0.42953 0.01059 0.16718 0.0
N2399 N 0.45559 0.02199 0.1581 0.0
N2400 N 0.41147 0.01135 0.14341 0.0
C2401 C 0.42648 0.02112 0.12663 0.0
C2402 C 0.45043 0.02672 0.13457 0.0
C2403 C 0.1884 0.16603 0.39119 0.0
C2404 C 0.20505 0.16335 0.37227 0.0
C2405 C 0.18073 0.18904 0.39843 0.0
C2406 C 0.19006 0.21003 0.38751 0.0
H2407 H 0.18024 0.15028 0.39949 0.0
H2408 H 0.16684 0.1904 0.41216 0.0
S2409 S 0.23611 0.2126 0.33906 0.0
N2410 N 0.23194 0.18344 0.3439 0.0
N2411 N 0.2181 0.22675 0.35819 0.0
C2412 C 0.20791 0.20761 0.36972 0.0
C2413 C 0.21525 0.18419 0.36189 0.0
C2414 C 0.03558 0.95028 0.60473 0.0
C2415 C 0.02832 0.95252 0.6289 0.0
C2416 C 0.05905 0.95616 0.5976 0.0
C2417 C 0.07638 0.96403 0.61448 0.0
H2418 H 0.02328 0.94291 0.59138 0.0
H2419 H 0.06386 0.95345 0.57882 0.0
S2420 S 0.06583 0.97411 0.67994 0.0
N2421 N 0.03957 0.96432 0.66961 0.0
N2422 N 0.08412 0.97515 0.65634 0.0
C2423 C 0.06902 0.96741 0.6386 0.0
C2424 C 0.04485 0.96171 0.64579 0.0
C2425 C 0.28826 0.79484 0.89055 0.0
C2426 C 0.30347 0.78086 0.87583 0.0
C2427 C 0.28167 0.8184 0.88367 0.0
C2428 C 0.28978 0.82843 0.8617 0.0
H2429 H 0.28246 0.78802 0.90796 0.0
H2430 H 0.27057 0.82898 0.89583 0.0
S2431 S 0.32824 0.79782 0.81596 0.0
N2432 N 0.32526 0.77785 0.83791 0.0
N2433 N 0.31262 0.82167 0.82465 0.0
C2434 C 0.30403 0.81399 0.84636 0.0
C2435 C 0.31095 0.7903 0.85353 0.0
C2436 C 0.44381 0.93846 0.34749 0.0
C2437 C 0.46495 0.94635 0.35921 0.0
C2438 C 0.42096 0.94619 0.35514 0.0
C2439 C 0.41856 0.96146 0.37523 0.0
H2440 H 0.4449 0.92541 0.33293 0.0
H2441 H 0.40509 0.93888 0.34631 0.0
S2442 S 0.4684 0.98887 0.41072 0.0
N2443 N 0.48221 0.97188 0.39043 0.0
N2444 N 0.43917 0.98585 0.40545 0.0
C2445 C 0.43961 0.97049 0.38629 0.0
C2446 C 0.46289 0.96308 0.37809 0.0
C2447 C 0.31567 0.17606 0.64435 0.0
C2448 C 0.29803 0.16347 0.63114 0.0
C2449 C 0.32309 0.19915 0.63744 0.0
C2450 C 0.31281 0.2108 0.61736 0.0
H2451 H 0.32419 0.16785 0.65996 0.0
H2452 H 0.33711 0.20793 0.64793 0.0
S2453 S 0.26511 0.18615 0.57735 0.0
N2454 N 0.26994 0.16449 0.59735 0.0
N2455 N 0.28364 0.20842 0.58461 0.0
C2456 C 0.29469 0.19877 0.60429 0.0
C2457 C 0.2874 0.17492 0.61109 0.0
C2458 C 0.07191 0.03906 0.86552 0.0
C2459 C 0.08103 0.04754 0.88775 0.0
C2460 C 0.04804 0.04407 0.85837 0.0
C2461 C 0.03281 0.058 0.87309 0.0
H2462 H 0.08331 0.02863 0.85352 0.0
H2463 H 0.04186 0.03795 0.84083 0.0
S2464 S 0.0473 0.08346 0.9333 0.0
N2465 N 0.0723 0.06962 0.92481 0.0
N2466 N 0.02786 0.07932 0.91107 0.0
C2467 C 0.04148 0.06606 0.8955 0.0
C2468 C 0.0655 0.06075 0.90292 0.0
C2469 C 0.19172 0.81632 0.15362 0.0
C2470 C 0.20668 0.83064 0.1389 0.0
C2471 C 0.18489 0.79307 0.14662 0.0
C2472 C 0.19312 0.78297 0.12485 0.0
H2473 H 0.18456 0.82335 0.17042 0.0
H2474 H 0.17264 0.78305 0.15817 0.0
S2475 S 0.23377 0.81219 0.0804 0.0
N2476 N 0.23034 0.83266 0.10187 0.0
N2477 N 0.21773 0.78848 0.08894 0.0
C2478 C 0.20887 0.79657 0.11034 0.0
C2479 C 0.21555 0.82056 0.11729 0.0
C2480 C 0.13996 0.41928 0.05307 0.0
C2481 C 0.11718 0.41743 0.04203 0.0
C2482 C 0.14944 0.44186 0.05951 0.0
C2483 C 0.13684 0.4633 0.05434 0.0
H2484 H 0.14999 0.40315 0.05779 0.0
H2485 H 0.16641 0.44253 0.06927 0.0
S2486 S 0.07749 0.46834 0.02388 0.0
N2487 N 0.0828 0.43899 0.02509 0.0
N2488 N 0.10114 0.48147 0.0365 0.0
C2489 C 0.11472 0.4618 0.04211 0.0
C2490 C 0.10473 0.43881 0.03614 0.0
C2491 C 0.62137 0.03679 0.95579 0.0
C2492 C 0.64187 0.03418 0.94115 0.0
C2493 C 0.61291 0.05981 0.96205 0.0
C2494 C 0.62504 0.08081 0.95435 0.0
H2495 H 0.61095 0.02108 0.96111 0.0
H2496 H 0.59641 0.06118 0.9725 0.0
S2497 S 0.68117 0.08323 0.91795 0.0
N2498 N 0.67509 0.05412 0.92047 0.0
N2499 N 0.65968 0.09742 0.93305 0.0
C2500 C 0.64649 0.07833 0.9411 0.0
C2501 C 0.65477 0.05494 0.93425 0.0
C2502 C 0.16808 0.38368 0.18718 0.0
C2503 C 0.16549 0.36292 0.20151 0.0
C2504 C 0.19101 0.39157 0.17986 0.0
C2505 C 0.21206 0.37941 0.18732 0.0
H2506 H 0.15228 0.39323 0.18066 0.0
H2507 H 0.19226 0.40698 0.16784 0.0
S2508 S 0.21497 0.32547 0.22682 0.0
N2509 N 0.18579 0.33112 0.22404 0.0
N2510 N 0.22897 0.34655 0.21096 0.0
C2511 C 0.20977 0.35946 0.20275 0.0
C2512 C 0.18641 0.35102 0.20966 0.0
C2513 C 0.89992 0.93432 0.44019 0.0
C2514 C 0.8847 0.91913 0.45373 0.0
C2515 C 0.89293 0.95778 0.43417 0.0
C2516 C 0.87068 0.96721 0.44185 0.0
H2517 H 0.9172 0.92787 0.43364 0.0
H2518 H 0.90491 0.96853 0.423 0.0
S2519 S 0.82452 0.9354 0.47842 0.0
N2520 N 0.84648 0.91543 0.47521 0.0
N2521 N 0.83353 0.95998 0.46406 0.0
C2522 C 0.85553 0.95263 0.45603 0.0
C2523 C 0.86247 0.92844 0.46188 0.0
C2524 C 0.81687 0.11374 0.21123 0.0
C2525 C 0.8274 0.13416 0.20026 0.0
C2526 C 0.79299 0.10685 0.20587 0.0
C2527 C 0.77919 0.11996 0.18906 0.0
H2528 H 0.82711 0.10307 0.22406 0.0
H2529 H 0.78565 0.09073 0.2142 0.0
S2530 S 0.79816 0.17497 0.15576 0.0
N2531 N 0.82188 0.16764 0.17228 0.0
N2532 N 0.77739 0.1545 0.162 0.0
C2533 C 0.78942 0.14053 0.17827 0.0
C2534 C 0.81345 0.14769 0.18391 0.0
C2535 C 0.3676 0.56906 0.53947 0.0
C2536 C 0.38771 0.58041 0.55017 0.0
C2537 C 0.36113 0.5453 0.54572 0.0
C2538 C 0.37433 0.53246 0.56319 0.0
H2539 H 0.35689 0.57853 0.52609 0.0
H2540 H 0.34529 0.53727 0.53748 0.0
S2541 S 0.42872 0.55373 0.59607 0.0
N2542 N 0.42108 0.57665 0.57857 0.0
N2543 N 0.40864 0.53237 0.59059 0.0
C2544 C 0.39456 0.54351 0.57379 0.0
C2545 C 0.40134 0.56741 0.56721 0.0
C2546 C 0.19221 0.59426 0.3081 0.0
C2547 C 0.21271 0.60702 0.30008 0.0
C2548 C 0.169 0.60041 0.30008 0.0
C2549 C 0.16551 0.61999 0.28434 0.0
H2550 H 0.19407 0.57999 0.32138 0.0
H2551 H 0.15362 0.5908 0.30747 0.0
S2552 S 0.21338 0.65784 0.25658 0.0
N2553 N 0.22825 0.63872 0.27403 0.0
N2554 N 0.18449 0.65093 0.25954 0.0
C2555 C 0.18594 0.63212 0.27527 0.0
C2556 C 0.20962 0.62544 0.28298 0.0
C2557 C 0.28498 0.37132 0.77524 0.0
C2558 C 0.28162 0.39233 0.78899 0.0
C2559 C 0.30828 0.36403 0.76841 0.0
C2560 C 0.32874 0.37778 0.77478 0.0
H2561 H 0.26985 0.35946 0.77152 0.0
H2562 H 0.31039 0.34687 0.75923 0.0
S2563 S 0.32872 0.43578 0.80828 0.0
N2564 N 0.29999 0.42777 0.80709 0.0
N2565 N 0.34371 0.41458 0.79358 0.0
C2566 C 0.32526 0.39989 0.78672 0.0
C2567 C 0.30165 0.40701 0.79406 0.0
C2568 C 0.92658 0.89196 0.54778 0.0
C2569 C 0.93843 0.87262 0.53636 0.0
C2570 C 0.93263 0.89901 0.57122 0.0
C2571 C 0.9505 0.88674 0.58443 0.0
H2572 H 0.91235 0.90174 0.53854 0.0
H2573 H 0.92293 0.91405 0.57916 0.0
S2574 S 0.98709 0.83494 0.56269 0.0
N2575 N 0.96912 0.84144 0.53974 0.0
N2576 N 0.98037 0.85448 0.58425 0.0
C2577 C 0.96265 0.8674 0.57324 0.0
C2578 C 0.9567 0.86043 0.54906 0.0
C2579 C 0.84668 0.18277 0.31782 0.0
C2580 C 0.85934 0.20053 0.33077 0.0
C2581 C 0.85387 0.17603 0.29462 0.0
C2582 C 0.87367 0.18716 0.28326 0.0
H2583 H 0.83129 0.17367 0.32582 0.0
H2584 H 0.84387 0.16186 0.28553 0.0
S2585 S 0.91229 0.23541 0.30899 0.0
N2586 N 0.89234 0.2296 0.33044 0.0
N2587 N 0.90561 0.21714 0.28634 0.0
C2588 C 0.88619 0.20538 0.29568 0.0
C2589 C 0.87912 0.21197 0.31962 0.0
C2590 C 0.53733 0.12264 0.06855 0.0
C2591 C 0.54945 0.10337 0.07995 0.0
C2592 C 0.54442 0.13079 0.04554 0.0
C2593 C 0.56414 0.12022 0.03355 0.0
H2594 H 0.52216 0.13132 0.07735 0.0
H2595 H 0.53489 0.14583 0.03742 0.0
S2596 S 0.60158 0.06909 0.05542 0.0
N2597 N 0.58179 0.07374 0.07722 0.0
N2598 N 0.59528 0.08927 0.03439 0.0
C2599 C 0.57626 0.1009 0.04471 0.0
C2600 C 0.56888 0.09242 0.06783 0.0
C2601 C 0.64549 0.80262 0.81708 0.0
C2602 C 0.63037 0.78842 0.83176 0.0
C2603 C 0.63845 0.80945 0.79386 0.0
C2604 C 0.61625 0.80194 0.78414 0.0
H2605 H 0.66265 0.80921 0.82382 0.0
H2606 H 0.65033 0.82114 0.78356 0.0
S2607 S 0.57066 0.76335 0.81435 0.0
N2608 N 0.5925 0.76621 0.83454 0.0
N2609 N 0.57949 0.77878 0.79035 0.0
C2610 C 0.60131 0.78692 0.79809 0.0
C2611 C 0.6083 0.78027 0.82208 0.0
C2612 C 0.93265 0.14706 0.94067 0.0
C2613 C 0.93934 0.13487 0.96195 0.0
C2614 C 0.93974 0.13849 0.91795 0.0
C2615 C 0.95303 0.11701 0.91584 0.0
H2616 H 0.92122 0.16294 0.94159 0.0
H2617 H 0.93372 0.14804 0.90195 0.0
S2618 S 0.97618 0.07922 0.96615 0.0
N2619 N 0.96124 0.10125 0.97965 0.0
N2620 N 0.97394 0.08455 0.93686 0.0
C2621 C 0.96057 0.10514 0.93702 0.0
C2622 C 0.95389 0.11425 0.96015 0.0
C2623 C 0.62949 0.20957 0.70879 0.0
C2624 C 0.60892 0.19502 0.71158 0.0
C2625 C 0.6375 0.21627 0.68569 0.0
C2626 C 0.62487 0.20909 0.66478 0.0
H2627 H 0.64034 0.21439 0.72436 0.0
H2628 H 0.65417 0.22644 0.68414 0.0
S2629 S 0.56836 0.17311 0.66299 0.0
N2630 N 0.57509 0.17506 0.692 0.0
N2631 N 0.58964 0.18835 0.64863 0.0
C2632 C 0.60331 0.19599 0.66755 0.0
C2633 C 0.59548 0.18874 0.69099 0.0
C2634 C 0.55107 0.89974 0.43379 0.0
C2635 C 0.53806 0.88444 0.41821 0.0
C2636 C 0.55677 0.89265 0.45732 0.0
C2637 C 0.54929 0.87018 0.46644 0.0
H2638 H 0.55769 0.91708 0.42754 0.0
H2639 H 0.56772 0.90463 0.46829 0.0
S2640 S 0.51337 0.82406 0.43384 0.0
N2641 N 0.5168 0.84615 0.41402 0.0
N2642 N 0.52729 0.83302 0.4587 0.0
C2643 C 0.5353 0.85511 0.4516 0.0
C2644 C 0.52978 0.86217 0.42734 0.0
C2645 C 0.87278 0.79109 0.21042 0.0
C2646 C 0.89246 0.80691 0.21257 0.0
C2647 C 0.86409 0.78438 0.18758 0.0
C2648 C 0.8752 0.79281 0.16629 0.0
H2649 H 0.86309 0.78518 0.22637 0.0
H2650 H 0.84815 0.77303 0.18657 0.0
S2651 S 0.9288 0.83278 0.1626 0.0
N2652 N 0.9237 0.82975 0.19186 0.0
N2653 N 0.90797 0.81634 0.14891 0.0
C2654 C 0.89586 0.80736 0.1683 0.0
C2655 C 0.90433 0.81465 0.1915 0.0
C2656 C 0.56565 0.96885 0.88893 0.0
C2657 C 0.58612 0.96239 0.87523 0.0
C2658 C 0.54228 0.96285 0.88121 0.0
C2659 C 0.53873 0.94983 0.85977 0.0
H2660 H 0.56775 0.97774 0.90624 0.0
H2661 H 0.52713 0.96683 0.89296 0.0
S2662 S 0.58583 0.93116 0.81596 0.0
N2663 N 0.60099 0.94453 0.83794 0.0
N2664 N 0.55707 0.93269 0.82377 0.0
C2665 C 0.55884 0.94467 0.84515 0.0
C2666 C 0.58257 0.95112 0.85278 0.0
C2667 C 0.82076 0.79278 0.64253 0.0
C2668 C 0.80993 0.7823 0.62209 0.0
C2669 C 0.81434 0.81589 0.65027 0.0
C2670 C 0.7972 0.82963 0.63757 0.0
H2671 H 0.8345 0.78309 0.65257 0.0
H2672 H 0.82323 0.82321 0.6661 0.0
S2673 S 0.76324 0.81024 0.58311 0.0
N2674 N 0.78086 0.787 0.58954 0.0
N2675 N 0.76897 0.83092 0.60386 0.0
C2676 C 0.78601 0.81932 0.61719 0.0
C2677 C 0.79228 0.79548 0.60954 0.0
C2678 C 0.92579 0.04023 0.36562 0.0
C2679 C 0.91521 0.0508 0.38622 0.0
C2680 C 0.94956 0.04597 0.35869 0.0
C2681 C 0.96325 0.06276 0.37194 0.0
H2682 H 0.91567 0.02742 0.35482 0.0
H2683 H 0.95693 0.03792 0.34244 0.0
S2684 S 0.94425 0.09494 0.42757 0.0
N2685 N 0.92066 0.07829 0.42011 0.0
N2686 N 0.96495 0.08928 0.40688 0.0
C2687 C 0.953 0.07313 0.39271 0.0
C2688 C 0.92907 0.06711 0.39991 0.0
C2689 C 0.67004 0.19763 0.14129 0.0
C2690 C 0.68212 0.20956 0.1224 0.0
C2691 C 0.67631 0.17415 0.14806 0.0
C2692 C 0.69454 0.16146 0.13582 0.0
H2693 H 0.65555 0.20653 0.151 0.0
H2694 H 0.66655 0.16576 0.16282 0.0
S2695 S 0.73185 0.18462 0.08518 0.0
N2696 N 0.71345 0.2072 0.09174 0.0
N2697 N 0.72499 0.16259 0.10414 0.0
C2698 C 0.70685 0.17312 0.11688 0.0
C2699 C 0.70075 0.19734 0.11028 0.0
C2700 C 0.57879 0.05481 0.64202 0.0
C2701 C 0.58151 0.03889 0.62249 0.0
C2702 C 0.55577 0.06219 0.64948 0.0
C2703 C 0.53483 0.05325 0.63815 0.0
H2704 H 0.59452 0.06261 0.65069 0.0
H2705 H 0.55434 0.07556 0.66371 0.0
S2706 S 0.53238 0.00915 0.58794 0.0
N2707 N 0.56153 0.01312 0.59303 0.0
N2708 N 0.51817 0.0264 0.60773 0.0
C2709 C 0.53729 0.03612 0.61969 0.0
C2710 C 0.56072 0.02911 0.61165 0.0
C2711 C 0.70315 0.79637 0.38693 0.0
C2712 C 0.68449 0.78402 0.37494 0.0
C2713 C 0.71048 0.81946 0.37917 0.0
C2714 C 0.69967 0.83052 0.35894 0.0
H2715 H 0.71151 0.78854 0.4028 0.0
H2716 H 0.7247 0.82865 0.389 0.0
S2717 S 0.65073 0.80488 0.32089 0.0
N2718 N 0.65586 0.78408 0.34162 0.0
N2719 N 0.66977 0.82704 0.32688 0.0
C2720 C 0.68142 0.81796 0.34654 0.0
C2721 C 0.6738 0.79479 0.35459 0.0
C2722 C 0.95779 0.94906 0.10082 0.0
C2723 C 0.96626 0.95436 0.1241 0.0
C2724 C 0.93416 0.95463 0.09397 0.0
C2725 C 0.91788 0.96525 0.11035 0.0
H2726 H 0.96929 0.93969 0.08803 0.0
H2727 H 0.92839 0.9496 0.07596 0.0
S2728 S 0.93178 0.98367 0.17334 0.0
N2729 N 0.95727 0.97181 0.16331 0.0
N2730 N 0.91242 0.98206 0.15065 0.0
C2731 C 0.92644 0.97154 0.13349 0.0
C2732 C 0.95078 0.96616 0.14032 0.0
C2733 C 0.80929 0.20828 0.85226 0.0
C2734 C 0.80134 0.21802 0.87428 0.0
C2735 C 0.80252 0.18507 0.84506 0.0
C2736 C 0.78793 0.17042 0.85984 0.0
H2737 H 0.82139 0.2185 0.84072 0.0
H2738 H 0.80954 0.1783 0.82809 0.0
S2739 S 0.76158 0.18797 0.91895 0.0
N2740 N 0.77731 0.21191 0.91047 0.0
N2741 N 0.76481 0.16779 0.89717 0.0
C2742 C 0.77924 0.1802 0.88166 0.0
C2743 C 0.78585 0.20416 0.88881 0.0
C2744 C 0.86226 0.57922 0.95339 0.0
C2745 C 0.88472 0.58088 0.96509 0.0
C2746 C 0.85311 0.5568 0.94602 0.0
C2747 C 0.86575 0.53529 0.95079 0.0
H2748 H 0.85237 0.59541 0.94857 0.0
H2749 H 0.83648 0.55636 0.93568 0.0
S2750 S 0.92403 0.52966 0.98317 0.0
N2751 N 0.91858 0.55901 0.98266 0.0
N2752 N 0.90088 0.51678 0.9694 0.0
C2753 C 0.88736 0.53652 0.96395 0.0
C2754 C 0.897 0.55939 0.97094 0.0
C2755 C 0.35486 0.91837 0.02993 0.0
C2756 C 0.37749 0.91647 0.01858 0.0
C2757 C 0.34611 0.9408 0.03765 0.0
C2758 C 0.35934 0.9621 0.03361 0.0
H2759 H 0.34475 0.90228 0.0347 0.0
H2760 H 0.3296 0.94133 0.04817 0.0
S2761 S 0.41772 0.96724 0.00135 0.0
N2762 N 0.41171 0.938 0.00132 0.0
N2763 N 0.39478 0.98032 0.01526 0.0
C2764 C 0.38081 0.96075 0.02024 0.0
C2765 C 0.39004 0.93783 0.01286 0.0
C2766 C 0.79149 0.63719 0.82168 0.0
C2767 C 0.78038 0.61675 0.81152 0.0
C2768 C 0.81483 0.64405 0.81501 0.0
C2769 C 0.82822 0.63042 0.79831 0.0
H2770 H 0.78209 0.64795 0.83507 0.0
H2771 H 0.8226 0.65994 0.8234 0.0
S2772 S 0.80724 0.57538 0.7663 0.0
N2773 N 0.78417 0.5831 0.78362 0.0
N2774 N 0.82854 0.59572 0.77132 0.0
C2775 C 0.81731 0.60997 0.78784 0.0
C2776 C 0.79322 0.60323 0.79434 0.0
C2777 C 0.10753 0.06332 0.53398 0.0
C2778 C 0.11942 0.08418 0.54245 0.0
C2779 C 0.11574 0.04017 0.54014 0.0
C2780 C 0.13573 0.03724 0.55543 0.0
H2781 H 0.09138 0.06491 0.52302 0.0
H2782 H 0.10549 0.02458 0.5342 0.0
S2783 S 0.1742 0.08581 0.58093 0.0
N2784 N 0.15328 0.10031 0.5653 0.0
N2785 N 0.16819 0.05675 0.57765 0.0
C2786 C 0.14839 0.05786 0.56314 0.0
C2787 C 0.14038 0.08139 0.55642 0.0
C2788 C 0.19281 0.89654 0.81315 0.0
C2789 C 0.21421 0.88486 0.80596 0.0
C2790 C 0.17013 0.88778 0.80608 0.0
C2791 C 0.16816 0.86658 0.79231 0.0
H2792 H 0.19362 0.91208 0.82504 0.0
H2793 H 0.15406 0.89689 0.81254 0.0
S2794 S 0.2188 0.83025 0.76766 0.0
N2795 N 0.23214 0.85212 0.78301 0.0
N2796 N 0.18946 0.83503 0.77035 0.0
C2797 C 0.18945 0.85528 0.78423 0.0
C2798 C 0.21254 0.86461 0.79089 0.0
C2799 C 0.65303 0.44037 0.44803 0.0
C2800 C 0.64001 0.46157 0.45318 0.0
C2801 C 0.64502 0.41781 0.45623 0.0
C2802 C 0.62338 0.4157 0.4693 0.0
H2803 H 0.66879 0.44108 0.43642 0.0
H2804 H 0.6549 0.40183 0.45075 0.0
S2805 S 0.58428 0.46607 0.48992 0.0
N2806 N 0.60596 0.4794 0.47431 0.0
N2807 N 0.59046 0.43688 0.48928 0.0
C2808 C 0.61113 0.43693 0.47602 0.0
C2809 C 0.61959 0.45996 0.46809 0.0
C2810 C 0.80973 0.39257 0.67598 0.0
C2811 C 0.7886 0.38194 0.68536 0.0
C2812 C 0.83266 0.38516 0.68376 0.0
C2813 C 0.83513 0.36636 0.70057 0.0
H2814 H 0.80853 0.40634 0.66211 0.0
H2815 H 0.84851 0.39334 0.67567 0.0
S2816 S 0.78552 0.33374 0.73169 0.0
N2817 N 0.77158 0.35289 0.71351 0.0
N2818 N 0.81473 0.33827 0.72753 0.0
C2819 C 0.81417 0.35615 0.71069 0.0
C2820 C 0.79084 0.36415 0.70325 0.0
C2821 C 0.71055 0.62929 0.20302 0.0
C2822 C 0.71376 0.60789 0.18986 0.0
C2823 C 0.68734 0.63695 0.20964 0.0
C2824 C 0.66674 0.62319 0.20372 0.0
H2825 H 0.72583 0.64096 0.20674 0.0
H2826 H 0.68544 0.65411 0.21887 0.0
S2827 S 0.66616 0.56458 0.17135 0.0
N2828 N 0.69497 0.57236 0.17229 0.0
N2829 N 0.65136 0.58625 0.18558 0.0
C2830 C 0.66997 0.60096 0.19196 0.0
C2831 C 0.69352 0.59346 0.18477 0.0
C2832 C 0.56218 0.59971 0.92594 0.0
C2833 C 0.54344 0.61143 0.91352 0.0
C2834 C 0.5688 0.60679 0.94921 0.0
C2835 C 0.55661 0.62555 0.96122 0.0
H2836 H 0.57208 0.58507 0.91752 0.0
H2837 H 0.58364 0.59742 0.9579 0.0
S2838 S 0.50573 0.66163 0.93693 0.0
N2839 N 0.51245 0.64257 0.91495 0.0
N2840 N 0.5247 0.65562 0.9592 0.0
C2841 C 0.53752 0.63722 0.94926 0.0
C2842 C 0.53102 0.63027 0.92524 0.0
C2843 C 0.63608 0.28563 0.18858 0.0
C2844 C 0.6246 0.29397 0.16745 0.0
C2845 C 0.62834 0.29311 0.2115 0.0
C2846 C 0.60929 0.30964 0.21389 0.0
H2847 H 0.65153 0.27368 0.18735 0.0
H2848 H 0.63826 0.28713 0.22729 0.0
S2849 S 0.57229 0.33564 0.16446 0.0
N2850 N 0.59215 0.31824 0.15053 0.0
N2851 N 0.57818 0.33307 0.19361 0.0
C2852 C 0.59706 0.31736 0.19302 0.0
C2853 C 0.60455 0.3093 0.16975 0.0
C2854 C 0.96295 0.3704 0.4273 0.0
C2855 C 0.95196 0.39095 0.41705 0.0
C2856 C 0.95625 0.36208 0.45037 0.0
C2857 C 0.93807 0.37383 0.46361 0.0
H2858 H 0.97683 0.36073 0.41748 0.0
H2859 H 0.96475 0.34596 0.45752 0.0
S2860 S 0.9042 0.4287 0.44523 0.0
N2861 N 0.92248 0.42314 0.42234 0.0
N2862 N 0.90976 0.40736 0.4653 0.0
C2863 C 0.92722 0.39454 0.45369 0.0
C2864 C 0.93419 0.40314 0.4305 0.0
C2865 C 0.88662 0.7012 0.70137 0.0
C2866 C 0.87336 0.68353 0.71391 0.0
C2867 C 0.88069 0.70737 0.67743 0.0
C2868 C 0.86105 0.69637 0.66554 0.0
H2869 H 0.9021 0.70972 0.70982 0.0
H2870 H 0.89141 0.72094 0.66826 0.0
S2871 S 0.82022 0.64963 0.69102 0.0
N2872 N 0.83956 0.65549 0.71295 0.0
N2873 N 0.82818 0.66731 0.66835 0.0
C2874 C 0.84742 0.67905 0.67816 0.0
C2875 C 0.85363 0.67258 0.70226 0.0
C2876 C 0.53008 0.38201 0.56479 0.0
C2877 C 0.53826 0.36999 0.58568 0.0
C2878 C 0.53747 0.37465 0.5417 0.0
C2879 C 0.55375 0.35543 0.53892 0.0
H2880 H 0.51863 0.39781 0.56635 0.0
H2881 H 0.5318 0.38512 0.52616 0.0
S2882 S 0.57872 0.31668 0.58754 0.0
N2883 N 0.56173 0.3366 0.60188 0.0
N2884 N 0.5763 0.32327 0.55852 0.0
C2885 C 0.56098 0.34244 0.55951 0.0
C2886 C 0.55303 0.34958 0.58294 0.0
C2887 C 0.85878 0.32067 0.79353 0.0
C2888 C 0.87894 0.30943 0.783 0.0
C2889 C 0.85112 0.31462 0.81679 0.0
C2890 C 0.86361 0.2974 0.83065 0.0
H2891 H 0.84883 0.33441 0.78374 0.0
H2892 H 0.83547 0.32384 0.82408 0.0
S2893 S 0.91757 0.26266 0.81127 0.0
N2894 N 0.91116 0.28005 0.78785 0.0
N2895 N 0.89702 0.26884 0.83204 0.0
C2896 C 0.88379 0.28587 0.82032 0.0
C2897 C 0.89136 0.29179 0.79633 0.0
C2898 C 0.9581 0.64812 0.05268 0.0
C2899 C 0.96113 0.63427 0.03163 0.0
C2900 C 0.96585 0.63952 0.07517 0.0
C2901 C 0.97621 0.61644 0.07739 0.0
H2902 H 0.9484 0.66512 0.05193 0.0
H2903 H 0.96193 0.65021 0.09109 0.0
S2904 S 0.99035 0.5743 0.02721 0.0
N2905 N 0.97726 0.59759 0.01388 0.0
N2906 N 0.99134 0.58095 0.0563 0.0
C2907 C 0.98085 0.60315 0.0562 0.0
C2908 C 0.97341 0.6122 0.03323 0.0
C2909 C 0.64334 0.68505 0.29005 0.0
C2910 C 0.62091 0.69106 0.27985 0.0
C2911 C 0.6496 0.69276 0.31321 0.0
C2912 C 0.63347 0.70644 0.32727 0.0
H2913 H 0.65592 0.67362 0.28032 0.0
H2914 H 0.66688 0.68709 0.32046 0.0
S2915 S 0.57312 0.72844 0.30804 0.0
N2916 N 0.58308 0.71275 0.28468 0.0
N2917 N 0.59468 0.72713 0.32867 0.0
C2918 C 0.61134 0.71348 0.3169 0.0
C2919 C 0.60511 0.70586 0.29302 0.0
C2920 C 0.92533 0.53903 0.63026 0.0
C2921 C 0.91429 0.55045 0.61039 0.0
C2922 C 0.94876 0.54551 0.63768 0.0
C2923 C 0.96151 0.56396 0.62575 0.0
H2924 H 0.91594 0.52484 0.63993 0.0
H2925 H 0.95665 0.53653 0.65318 0.0
S2926 S 0.94058 0.59934 0.57277 0.0
N2927 N 0.918 0.58082 0.57884 0.0
N2928 N 0.96162 0.59329 0.59302 0.0
C2929 C 0.95064 0.57544 0.60588 0.0
C2930 C 0.9271 0.56861 0.59813 0.0
C2931 C 0.70234 0.70593 0.86855 0.0
C2932 C 0.68675 0.70893 0.88828 0.0
C2933 C 0.70843 0.68274 0.86039 0.0
C2934 C 0.6996 0.66194 0.87211 0.0
H2935 H 0.70869 0.72151 0.85853 0.0
H2936 H 0.71975 0.68108 0.8445 0.0
S2937 S 0.65992 0.6605 0.92601 0.0
N2938 N 0.6636 0.68954 0.92016 0.0
N2939 N 0.67584 0.64592 0.90539 0.0
C2940 C 0.68516 0.66479 0.89273 0.0
C2941 C 0.6785 0.68835 0.90066 0.0
C2942 C 0.57248 0.45769 0.1305 0.0
C2943 C 0.58349 0.44572 0.11093 0.0
C2944 C 0.54895 0.45163 0.13796 0.0
C2945 C 0.53606 0.4331 0.12635 0.0
H2946 H 0.58201 0.47194 0.13996 0.0
H2947 H 0.54113 0.46092 0.15331 0.0
S2948 S 0.55658 0.39658 0.07407 0.0
N2949 N 0.57941 0.41488 0.07987 0.0
N2950 N 0.5356 0.40326 0.09416 0.0
C2951 C 0.54681 0.42118 0.10671 0.0
C2952 C 0.57044 0.42755 0.09892 0.0
C2953 C 0.78715 0.32473 0.37782 0.0
C2954 C 0.79715 0.33377 0.35619 0.0
C2955 C 0.79163 0.30087 0.38542 0.0
C2956 C 0.80651 0.28551 0.37177 0.0
H2957 H 0.77593 0.33619 0.38903 0.0
H2958 H 0.78428 0.29478 0.40252 0.0
S2959 S 0.83593 0.29973 0.31327 0.0
N2960 N 0.82167 0.32481 0.32076 0.0
N2961 N 0.83024 0.28039 0.33523 0.0
C2962 C 0.81605 0.2941 0.34989 0.0
C2963 C 0.81134 0.31813 0.34204 0.0
C2964 C 0.91872 0.45177 0.85767 0.0
C2965 C 0.91684 0.46565 0.87882 0.0
C2966 C 0.94133 0.44437 0.84906 0.0
C2967 C 0.96274 0.4513 0.86085 0.0
H2968 H 0.90261 0.44526 0.84863 0.0
H2969 H 0.94203 0.43229 0.83366 0.0
S2970 S 0.96762 0.48998 0.9152 0.0
N2971 N 0.93826 0.48763 0.91029 0.0
N2972 N 0.98085 0.47435 0.89348 0.0
C2973 C 0.96121 0.46666 0.88091 0.0
C2974 C 0.93817 0.47368 0.89008 0.0
C2975 C 0.79992 0.68437 0.14944 0.0
C2976 C 0.78688 0.67017 0.13287 0.0
C2977 C 0.80802 0.70745 0.14329 0.0
C2978 C 0.80299 0.71745 0.12053 0.0
H2979 H 0.8049 0.67726 0.16699 0.0
H2980 H 0.81898 0.71726 0.15621 0.0
S2981 S 0.76761 0.6889 0.07142 0.0
N2982 N 0.76791 0.66847 0.09321 0.0
N2983 N 0.78288 0.71234 0.08187 0.0
C2984 C 0.78875 0.70419 0.10427 0.0
C2985 C 0.78078 0.68039 0.11038 0.0
C2986 C 0.53488 0.53487 0.39731 0.0
C2987 C 0.52758 0.53366 0.37307 0.0
C2988 C 0.55831 0.52847 0.40419 0.0
C2989 C 0.57554 0.52115 0.38698 0.0
H2990 H 0.52276 0.54209 0.41089 0.0
H2991 H 0.5633 0.5307 0.42299 0.0
S2992 S 0.56454 0.51299 0.3213 0.0
N2993 N 0.53845 0.52277 0.33202 0.0
N2994 N 0.58289 0.51102 0.34478 0.0
C2995 C 0.56796 0.51834 0.36283 0.0
C2996 C 0.54385 0.52455 0.35591 0.0
C2997 C 0.71005 0.28431 0.62734 0.0
C2998 C 0.69435 0.28151 0.60765 0.0
C2999 C 0.71793 0.30736 0.63435 0.0
C3000 C 0.71082 0.32817 0.62152 0.0
H3001 H 0.715 0.26885 0.63828 0.0
H3002 H 0.72904 0.30897 0.65039 0.0
S3003 S 0.67206 0.32977 0.56688 0.0
N3004 N 0.67336 0.30089 0.57432 0.0
N3005 N 0.68882 0.34414 0.58699 0.0
C3006 C 0.69648 0.32532 0.60078 0.0
C3007 C 0.68805 0.30196 0.59399 0.0
C3008 C 0.59862 0.92525 0.56771 0.0
C3009 C 0.61058 0.91233 0.54944 0.0
C3010 C 0.60653 0.94812 0.57476 0.0
C3011 C 0.6264 0.95922 0.56351 0.0
H3012 H 0.58319 0.91749 0.57694 0.0
H3013 H 0.59696 0.95721 0.58924 0.0
S3014 S 0.66357 0.93346 0.51421 0.0
N3015 N 0.64317 0.91239 0.51991 0.0
N3016 N 0.65775 0.95593 0.53298 0.0
C3017 C 0.63829 0.94683 0.54486 0.0
C3018 C 0.63049 0.9232 0.53793 0.0
C3019 C 0.11694 0.55979 0.47237 0.0
C3020 C 0.12887 0.58085 0.46445 0.0
C3021 C 0.1251 0.53678 0.46563 0.0
C3022 C 0.14513 0.53423 0.45033 0.0
H3023 H 0.10054 0.56114 0.48298 0.0
H3024 H 0.11459 0.5211 0.47083 0.0
S3025 S 0.18422 0.58326 0.4268 0.0
N3026 N 0.1632 0.59742 0.44257 0.0
N3027 N 0.17803 0.55416 0.42922 0.0
C3028 C 0.15811 0.55497 0.44357 0.0
C3029 C 0.15013 0.57834 0.45084 0.0
C3030 C 0.67466 0.87871 0.71339 0.0
C3031 C 0.66457 0.85757 0.70337 0.0
C3032 C 0.69867 0.88545 0.70841 0.0
C3033 C 0.71313 0.87143 0.69297 0.0
H3034 H 0.66393 0.89016 0.72507 0.0
H3035 H 0.7056 0.90218 0.71585 0.0
S3036 S 0.69582 0.81405 0.66299 0.0
N3037 N 0.67145 0.82226 0.67806 0.0
N3038 N 0.71618 0.83513 0.66852 0.0
C3039 C 0.70344 0.85006 0.68331 0.0
C3040 C 0.67925 0.84307 0.68854 0.0
C3041 C 0.34366 0.44333 0.95103 0.0
C3042 C 0.35721 0.46422 0.95601 0.0
C3043 C 0.35113 0.42065 0.95939 0.0
C3044 C 0.37284 0.41809 0.9723 0.0
H3045 H 0.32779 0.4444 0.93959 0.0
H3046 H 0.34081 0.40486 0.95412 0.0
S3047 S 0.41365 0.4676 0.9917 0.0
N3048 N 0.39205 0.48137 0.97636 0.0
N3049 N 0.40673 0.43855 0.99141 0.0
C3050 C 0.38583 0.43904 0.97854 0.0
C3051 C 0.37784 0.46221 0.97054 0.0
C3052 C 0.31378 0.65003 0.68763 0.0
C3053 C 0.32769 0.63563 0.70327 0.0
C3054 C 0.29079 0.64275 0.68022 0.0
C3055 C 0.28056 0.62109 0.68858 0.0
H3056 H 0.32099 0.66674 0.68041 0.0
H3057 H 0.28107 0.65402 0.66748 0.0
S3058 S 0.30874 0.57753 0.73086 0.0
N3059 N 0.32922 0.59903 0.72761 0.0
N3060 N 0.28547 0.58564 0.71399 0.0
C3061 C 0.29375 0.60692 0.70496 0.0
C3062 C 0.31749 0.6141 0.71219 0.0
C3063 C 0.85173 0.07922 0.04837 0.0
C3064 C 0.87242 0.08189 0.03395 0.0
C3065 C 0.8441 0.0563 0.05586 0.0
C3066 C 0.85647 0.03534 0.04857 0.0
H3067 H 0.84234 0.09497 0.05522 0.0
H3068 H 0.82907 0.05501 0.06836 0.0
S3069 S 0.90974 0.03253 0.00824 0.0
N3070 N 0.90391 0.06169 0.01089 0.0
N3071 N 0.88897 0.01848 0.02445 0.0
C3072 C 0.87598 0.03764 0.03261 0.0
C3073 C 0.88414 0.06101 0.02544 0.0
C3074 C 0.69121 0.10009 0.80602 0.0
C3075 C 0.71222 0.11241 0.79873 0.0
C3076 C 0.6683 0.10771 0.79844 0.0
C3077 C 0.66564 0.12837 0.78395 0.0
H3078 H 0.69246 0.085 0.81844 0.0
H3079 H 0.65253 0.09827 0.80521 0.0
S3080 S 0.71511 0.16583 0.75856 0.0
N3081 N 0.72912 0.14501 0.77474 0.0
N3082 N 0.68594 0.15998 0.76112 0.0
C3083 C 0.68657 0.14018 0.77564 0.0
C3084 C 0.70994 0.13201 0.78285 0.0
C3085 C 0.81709 0.84727 0.29875 0.0
C3086 C 0.83254 0.86392 0.28736 0.0
C3087 C 0.79335 0.85341 0.30463 0.0
C3088 C 0.78394 0.87625 0.29893 0.0
H3089 H 0.82359 0.82958 0.30403 0.0
H3090 H 0.78247 0.84037 0.31441 0.0
S3091 S 0.81609 0.92581 0.26745 0.0
N3092 N 0.83628 0.9039 0.26935 0.0
N3093 N 0.79123 0.91525 0.28018 0.0
C3094 C 0.79865 0.89271 0.28644 0.0
C3095 C 0.8231 0.8866 0.28074 0.0
C3096 C 0.46133 0.3906 0.06249 0.0
C3097 C 0.45761 0.37598 0.08301 0.0
C3098 C 0.45452 0.38273 0.0394 0.0
C3099 C 0.4434 0.3602 0.03624 0.0
H3100 H 0.46883 0.40859 0.06436 0.0
H3101 H 0.45639 0.39503 0.02427 0.0
S3102 S 0.43188 0.31412 0.08344 0.0
N3103 N 0.44423 0.33695 0.09819 0.0
N3104 N 0.4307 0.32254 0.05483 0.0
C3105 C 0.44081 0.34488 0.0563 0.0
C3106 C 0.44815 0.35267 0.07973 0.0
C3107 C 0.36422 0.70711 0.78829 0.0
C3108 C 0.38391 0.6915 0.78505 0.0
C3109 C 0.35607 0.71288 0.81158 0.0
C3110 C 0.36773 0.70369 0.83227 0.0
H3111 H 0.3542 0.71368 0.7728 0.0
H3112 H 0.34018 0.72417 0.81342 0.0
S3113 S 0.4215 0.66386 0.83314 0.0
N3114 N 0.41569 0.66799 0.80414 0.0
N3115 N 0.40094 0.67965 0.84794 0.0
C3116 C 0.38834 0.68929 0.8292 0.0
C3117 C 0.39626 0.68295 0.80553 0.0
C3118 C 0.04458 0.61488 0.53971 0.0
C3119 C 0.06028 0.63457 0.53686 0.0
C3120 C 0.03731 0.60743 0.56279 0.0
C3121 C 0.04503 0.61983 0.58363 0.0
H3122 H 0.03896 0.60439 0.52416 0.0
H3123 H 0.02593 0.59157 0.56438 0.0
S3124 S 0.08432 0.67404 0.58539 0.0
N3125 N 0.08218 0.66726 0.5564 0.0
N3126 N 0.06781 0.65373 0.59978 0.0
C3127 C 0.05957 0.64041 0.58087 0.0
C3128 C 0.06741 0.64765 0.55744 0.0
C3129 C 0.1487 0.29128 0.3102 0.0
C3130 C 0.13136 0.28336 0.32704 0.0
C3131 C 0.14216 0.29749 0.28665 0.0
C3132 C 0.11813 0.29561 0.27882 0.0
H3133 H 0.16739 0.29374 0.31547 0.0
H3134 H 0.15589 0.3048 0.27474 0.0
S3135 S 0.06611 0.27378 0.31482 0.0
N3136 N 0.08926 0.27239 0.33365 0.0
N3137 N 0.07708 0.28388 0.28895 0.0
C3138 C 0.10079 0.28631 0.29483 0.0
C3139 C 0.10738 0.28025 0.31908 0.0
C3140 C 0.46204 0.62441 0.42744 0.0
C3141 C 0.45195 0.60285 0.41837 0.0
C3142 C 0.45594 0.63303 0.45056 0.0
C3143 C 0.43932 0.6205 0.46508 0.0
H3144 H 0.47459 0.63478 0.41657 0.0
H3145 H 0.46353 0.65 0.45669 0.0
S3146 S 0.40889 0.56257 0.45051 0.0
N3147 N 0.42539 0.56867 0.42644 0.0
N3148 N 0.41386 0.585 0.4695 0.0
C3149 C 0.42963 0.59867 0.45649 0.0
C3150 C 0.43595 0.58981 0.43322 0.0
C3151 C 0.13843 0.70809 0.18827 0.0
C3152 C 0.12719 0.70105 0.16656 0.0
C3153 C 0.12962 0.70024 0.21068 0.0
C3154 C 0.10971 0.68461 0.21197 0.0
H3155 H 0.15445 0.71934 0.18791 0.0
H3156 H 0.13929 0.70529 0.22695 0.0
S3157 S 0.07306 0.66206 0.16062 0.0
N3158 N 0.09417 0.67891 0.14788 0.0
N3159 N 0.07817 0.66337 0.19001 0.0
C3160 C 0.09781 0.67812 0.1905 0.0
C3161 C 0.1064 0.68658 0.16775 0.0
C3162 C 0.03828 0.35883 0.94998 0.0
C3163 C 0.04883 0.37495 0.96649 0.0
C3164 C 0.03204 0.36652 0.92657 0.0
C3165 C 0.036 0.39057 0.91916 0.0
H3166 H 0.03623 0.33993 0.95465 0.0
H3167 H 0.02486 0.35336 0.91399 0.0
S3168 S 0.06052 0.44018 0.95724 0.0
N3169 N 0.06118 0.41613 0.97485 0.0
N3170 N 0.04907 0.43086 0.93133 0.0
C3171 C 0.04514 0.4071 0.93622 0.0
C3172 C 0.05168 0.39919 0.95979 0.0
C3173 C 0.3924 0.30522 0.66804 0.0
C3174 C 0.37113 0.2917 0.66518 0.0
C3175 C 0.39965 0.31322 0.69094 0.0
C3176 C 0.38626 0.30738 0.71176 0.0
H3177 H 0.40282 0.31071 0.6524 0.0
H3178 H 0.41543 0.32475 0.69228 0.0
S3179 S 0.33073 0.27007 0.71412 0.0
N3180 N 0.33772 0.27124 0.68513 0.0
N3181 N 0.3518 0.28577 0.72827 0.0
C3182 C 0.36586 0.29254 0.70931 0.0
C3183 C 0.35815 0.28486 0.68594 0.0
C3184 C 0.06511 0.4577 0.40473 0.0
C3185 C 0.08234 0.4657 0.3878 0.0
C3186 C 0.04147 0.45234 0.39777 0.0
C3187 C 0.03394 0.45524 0.37375 0.0
H3188 H 0.07014 0.45448 0.42337 0.0
H3189 H 0.02922 0.44488 0.41112 0.0
S3190 S 0.07108 0.47752 0.32274 0.0
N3191 N 0.08969 0.47772 0.34611 0.0
N3192 N 0.04482 0.46787 0.33318 0.0
C3193 C 0.05037 0.46461 0.35687 0.0
C3194 C 0.07471 0.46978 0.36386 0.0
C3195 C 0.27893 0.30691 0.13332 0.0
C3196 C 0.287 0.32779 0.12119 0.0
C3197 C 0.28593 0.2838 0.12565 0.0
C3198 C 0.30167 0.281 0.10601 0.0
H3199 H 0.26784 0.30849 0.14938 0.0
H3200 H 0.28042 0.26823 0.13617 0.0
S3201 S 0.32631 0.32958 0.06701 0.0
N3202 N 0.30988 0.34397 0.08735 0.0
N3203 N 0.32376 0.30055 0.0735 0.0
C3204 C 0.30885 0.30158 0.09299 0.0
C3205 C 0.30128 0.32503 0.10043 0.0
C3206 C 0.42464 0.52918 0.86991 0.0
C3207 C 0.41454 0.53975 0.89076 0.0
C3208 C 0.44781 0.53583 0.86175 0.0
C3209 C 0.46127 0.55356 0.87395 0.0
H3210 H 0.4145 0.51591 0.85971 0.0
H3211 H 0.45474 0.52784 0.84528 0.0
S3212 S 0.44351 0.58601 0.92984 0.0
N3213 N 0.4204 0.56814 0.92385 0.0
N3214 N 0.46345 0.58079 0.90831 0.0
C3215 C 0.45162 0.56378 0.89507 0.0
C3216 C 0.42836 0.55684 0.90354 0.0
C3217 C 0.21079 0.68426 0.63282 0.0
C3218 C 0.20063 0.66318 0.62286 0.0
C3219 C 0.20394 0.70722 0.6246 0.0
C3220 C 0.18621 0.70975 0.60666 0.0
H3221 H 0.22375 0.68299 0.64745 0.0
H3222 H 0.21147 0.72305 0.63333 0.0
S3223 S 0.15499 0.66025 0.57398 0.0
N3224 N 0.17316 0.64625 0.59311 0.0
N3225 N 0.15946 0.68944 0.57832 0.0
C3226 C 0.17651 0.68882 0.59599 0.0
C3227 C 0.18396 0.66547 0.60392 0.0
C3228 C 0.08097 0.54304 0.14179 0.0
C3229 C 0.08455 0.53251 0.119 0.0
C3230 C 0.05774 0.54938 0.14954 0.0
C3231 C 0.03735 0.54481 0.13505 0.0
H3232 H 0.09628 0.54786 0.153 0.0
H3233 H 0.05583 0.55903 0.16648 0.0
S3234 S 0.03688 0.51448 0.0754 0.0
N3235 N 0.06572 0.51557 0.08305 0.0
N3236 N 0.02196 0.52705 0.09799 0.0
C3237 C 0.0405 0.53248 0.11315 0.0
C3238 C 0.06419 0.52647 0.105 0.0
C3239 C 0.21727 0.32147 0.87708 0.0
C3240 C 0.21214 0.32862 0.85316 0.0
C3241 C 0.21178 0.29804 0.88523 0.0
C3242 C 0.20083 0.28119 0.86973 0.0
H3243 H 0.22475 0.3343 0.88983 0.0
H3244 H 0.21467 0.29361 0.90408 0.0
S3245 S 0.18626 0.28966 0.80496 0.0
N3246 N 0.19763 0.31586 0.81357 0.0
N3247 N 0.18694 0.27224 0.82916 0.0
C3248 C 0.19689 0.28762 0.84556 0.0
C3249 C 0.20265 0.31123 0.83717 0.0
C3250 C 0.41976 0.43527 0.64077 0.0
C3251 C 0.4174 0.45141 0.62137 0.0
C3252 C 0.44264 0.42771 0.64855 0.0
C3253 C 0.46384 0.43662 0.63766 0.0
H3254 H 0.40386 0.42751 0.64917 0.0
H3255 H 0.44374 0.41433 0.66281 0.0
S3256 S 0.46721 0.48132 0.58795 0.0
N3257 N 0.43797 0.47737 0.5925 0.0
N3258 N 0.48103 0.46376 0.60774 0.0
C3259 C 0.46171 0.45391 0.61926 0.0
C3260 C 0.43843 0.46114 0.61092 0.0
C3261 C 0.27966 0.68691 0.35452 0.0
C3262 C 0.28528 0.66623 0.36829 0.0
C3263 C 0.28612 0.7101 0.36249 0.0
C3264 C 0.29872 0.71319 0.38425 0.0
H3265 H 0.271 0.68509 0.33706 0.0
H3266 H 0.28275 0.72544 0.3508 0.0
S3267 S 0.31615 0.66545 0.42779 0.0
N3268 N 0.30251 0.65074 0.40567 0.0
N3269 N 0.31534 0.69428 0.42014 0.0
C3270 C 0.30338 0.69291 0.39871 0.0
C3271 C 0.29643 0.66939 0.39088 0.0
C3272 C 0.3647 0.07861 0.44124 0.0
C3273 C 0.38691 0.0809 0.45328 0.0
C3274 C 0.3557 0.0558 0.43492 0.0
C3275 C 0.36821 0.03459 0.44119 0.0
H3276 H 0.35479 0.09454 0.43564 0.0
H3277 H 0.33918 0.05474 0.42446 0.0
S3278 S 0.42604 0.03079 0.4746 0.0
N3279 N 0.4206 0.06005 0.47236 0.0
N3280 N 0.40312 0.01715 0.4612 0.0
C3281 C 0.3897 0.03657 0.45442 0.0
C3282 C 0.39922 0.05978 0.46027 0.0
C3283 C 0.89656 0.42815 0.56301 0.0
C3284 C 0.88367 0.41477 0.54572 0.0
C3285 C 0.88991 0.45178 0.56877 0.0
C3286 C 0.87043 0.46316 0.5571 0.0
H3287 H 0.91173 0.42018 0.57249 0.0
H3288 H 0.90006 0.46119 0.58263 0.0
S3289 S 0.83138 0.43638 0.50976 0.0
N3290 N 0.8508 0.41473 0.51651 0.0
N3291 N 0.83854 0.45958 0.52714 0.0
C3292 C 0.85769 0.45028 0.53935 0.0
C3293 C 0.86421 0.42593 0.53376 0.0
C3294 C 0.32149 0.14185 0.31884 0.0
C3295 C 0.33271 0.13134 0.29865 0.0
C3296 C 0.29857 0.13442 0.32634 0.0
C3297 C 0.2857 0.11651 0.3137 0.0
H3298 H 0.33058 0.15582 0.3291 0.0
H3299 H 0.2908 0.14293 0.34217 0.0
S3300 S 0.30676 0.08362 0.25933 0.0
N3301 N 0.32923 0.10215 0.26596 0.0
N3302 N 0.28568 0.08851 0.2799 0.0
C3303 C 0.29649 0.10602 0.29328 0.0
C3304 C 0.32015 0.11331 0.28584 0.0
C3305 C 0.6299 0.56747 0.03438 0.0
C3306 C 0.60832 0.57699 0.04395 0.0
C3307 C 0.63737 0.54383 0.03997 0.0
C3308 C 0.62366 0.52928 0.0556 0.0
H3309 H 0.64114 0.57838 0.02264 0.0
H3310 H 0.65443 0.53734 0.03291 0.0
S3311 S 0.56549 0.54522 0.0847 0.0
N3312 N 0.57298 0.5695 0.06908 0.0
N3313 N 0.5873 0.52548 0.07984 0.0
C3314 C 0.60187 0.53838 0.06482 0.0
C3315 C 0.59412 0.56215 0.05893 0.0
C3316 C 0.67966 0.39078 0.28194 0.0
C3317 C 0.67213 0.36664 0.28506 0.0
C3318 C 0.70361 0.39775 0.28681 0.0
C3319 C 0.7206 0.38078 0.29498 0.0
H3320 H 0.6668 0.40454 0.27665 0.0
H3321 H 0.7084 0.41671 0.28574 0.0
S3322 S 0.71108 0.31517 0.30367 0.0
N3323 N 0.68455 0.32547 0.29475 0.0
N3324 N 0.72914 0.33889 0.30432 0.0
C3325 C 0.71372 0.35652 0.29689 0.0
C3326 C 0.68957 0.34935 0.29179 0.0
C3327 C 0.10985 0.95311 0.92704 0.0
C3328 C 0.12919 0.96472 0.93871 0.0
C3329 C 0.10309 0.9296 0.93317 0.0
C3330 C 0.11572 0.91654 0.95089 0.0
H3331 H 0.09983 0.96226 0.91292 0.0
H3332 H 0.08801 0.92148 0.92368 0.0
S3333 S 0.16768 0.9388 0.98696 0.0
N3334 N 0.16075 0.96168 0.96907 0.0
N3335 N 0.14831 0.91702 0.98042 0.0
C3336 C 0.1351 0.92791 0.96282 0.0
C3337 C 0.14173 0.95216 0.95683 0.0
C3338 C 0.30877 0.85822 0.22046 0.0
C3339 C 0.32942 0.8722 0.21532 0.0
C3340 C 0.28564 0.86612 0.21376 0.0
C3341 C 0.2826 0.88799 0.20132 0.0
H3342 H 0.31061 0.84063 0.22886 0.0
H3343 H 0.27032 0.85428 0.21674 0.0
S3344 S 0.33038 0.93189 0.18491 0.0
N3345 N 0.34499 0.90977 0.19864 0.0
N3346 N 0.30157 0.92411 0.18526 0.0
C3347 C 0.30286 0.90264 0.19713 0.0
C3348 C 0.32631 0.89489 0.20439 0.0
C3349 C 0.17633 0.11418 0.70896 0.0
C3350 C 0.16479 0.13388 0.69772 0.0
C3351 C 0.19993 0.10743 0.70245 0.0
C3352 C 0.21242 0.11988 0.68418 0.0
H3353 H 0.16715 0.10408 0.723 0.0
H3354 H 0.20814 0.09199 0.71124 0.0
S3355 S 0.19029 0.17277 0.6494 0.0
N3356 N 0.16782 0.1659 0.66776 0.0
N3357 N 0.2118 0.15299 0.65529 0.0
C3358 C 0.2011 0.13965 0.67295 0.0
C3359 C 0.17736 0.1467 0.67978 0.0
loop_
_geom_bond_atom_site_label_1
_geom_bond_atom_site_label_2
_geom_bond_distance
_geom_bond_site_symmetry_2
_ccdc_geom_bond_type
In0 O1 2.294 . S
In0 O2 2.326 . S
In0 O6 2.266 . S
In0 O7 2.326 . S
In0 O8 2.266 . S
In0 O9 2.326 . S
In0 O11 2.294 . S
In0 O12 2.326 1_455 S
O1 In0 2.294 . S
O1 C10 1.240 . S
O2 In0 2.326 . S
O2 C10 1.252 . S
C3 O6 1.252 . S
C3 O7 1.260 . S
C4 O11 1.240 1_655 S
C4 O12 1.252 . S
C5 O8 1.252 . S
C5 O9 1.260 . S
O6 In0 2.266 . S
O6 C3 1.252 . S
O7 In0 2.326 . S
O7 C3 1.260 . S
O8 In0 2.266 . S
O8 C5 1.252 . S
O9 In0 2.326 . S
O9 C5 1.260 . S
C10 O1 1.240 . S
C10 O2 1.252 . S
O11 In0 2.294 . S
O11 C4 1.240 1_455 S
O12 In0 2.326 1_655 S
O12 C4 1.252 . S
In13 O14 2.294 . S
In13 O15 2.326 . S
In13 O19 2.266 . S
In13 O20 2.326 . S
In13 O21 2.266 . S
In13 O22 2.326 . S
In13 O24 2.294 . S
In13 O25 2.326 . S
O14 In13 2.294 . S
O14 C23 1.240 . S
O15 In13 2.326 . S
O15 C23 1.252 . S
C16 O19 1.252 . S
C16 O20 1.260 . S
C17 O24 1.240 . S
C17 O25 1.252 . S
C18 O21 1.252 . S
C18 O22 1.260 . S
O19 In13 2.266 . S
O19 C16 1.252 . S
O20 In13 2.326 . S
O20 C16 1.260 . S
O21 In13 2.266 . S
O21 C18 1.252 . S
O22 In13 2.326 . S
O22 C18 1.260 . S
C23 O14 1.240 . S
C23 O15 1.252 . S
O24 In13 2.294 . S
O24 C17 1.240 . S
O25 In13 2.326 . S
O25 C17 1.252 . S
In26 O27 2.294 . S
In26 O28 2.326 . S
In26 O32 2.266 . S
In26 O33 2.326 . S
In26 O34 2.266 . S
In26 O35 2.326 . S
In26 O37 2.294 . S
In26 O38 2.326 . S
O27 In26 2.294 . S
O27 C36 1.240 . S
O28 In26 2.326 . S
O28 C36 1.252 . S
C29 O32 1.252 . S
C29 O33 1.260 . S
C30 O37 1.240 . S
C30 O38 1.252 . S
C31 O34 1.252 . S
C31 O35 1.260 . S
O32 In26 2.266 . S
O32 C29 1.252 . S
O33 In26 2.326 . S
O33 C29 1.260 . S
O34 In26 2.266 . S
O34 C31 1.252 . S
O35 In26 2.326 . S
O35 C31 1.260 . S
C36 O27 1.240 . S
C36 O28 1.252 . S
O37 In26 2.294 . S
O37 C30 1.240 . S
O38 In26 2.326 . S
O38 C30 1.252 . S
In39 O40 2.294 . S
In39 O41 2.326 . S
In39 O45 2.266 . S
In39 O46 2.326 . S
In39 O47 2.266 . S
In39 O48 2.326 . S
In39 O50 2.294 . S
In39 O51 2.326 . S
O40 In39 2.294 . S
O40 C49 1.240 . S
O41 In39 2.326 . S
O41 C49 1.252 . S
C42 O45 1.252 . S
C42 O46 1.260 . S
C43 O50 1.240 . S
C43 O51 1.252 . S
C44 O47 1.252 . S
C44 O48 1.260 . S
O45 In39 2.266 . S
O45 C42 1.252 . S
O46 In39 2.326 . S
O46 C42 1.260 . S
O47 In39 2.266 . S
O47 C44 1.252 . S
O48 In39 2.326 . S
O48 C44 1.260 . S
C49 O40 1.240 . S
C49 O41 1.252 . S
O50 In39 2.294 . S
O50 C43 1.240 . S
O51 In39 2.326 . S
O51 C43 1.252 . S
In52 O53 2.294 . S
In52 O54 2.326 . S
In52 O58 2.266 . S
In52 O59 2.326 . S
In52 O60 2.266 . S
In52 O61 2.326 . S
In52 O63 2.294 . S
In52 O64 2.326 1_455 S
O53 In52 2.294 . S
O53 C62 1.240 . S
O54 In52 2.326 . S
O54 C62 1.252 . S
C55 O58 1.252 . S
C55 O59 1.260 . S
C56 O63 1.240 1_655 S
C56 O64 1.252 . S
C57 O60 1.252 . S
C57 O61 1.260 . S
O58 In52 2.266 . S
O58 C55 1.252 . S
O59 In52 2.326 . S
O59 C55 1.260 . S
O60 In52 2.266 . S
O60 C57 1.252 . S
O61 In52 2.326 . S
O61 C57 1.260 . S
C62 O53 1.240 . S
C62 O54 1.252 . S
O63 In52 2.294 . S
O63 C56 1.240 1_455 S
O64 In52 2.326 1_655 S
O64 C56 1.252 . S
In65 O66 2.294 . S
In65 O67 2.326 . S
In65 O71 2.266 . S
In65 O72 2.326 . S
In65 O73 2.266 . S
In65 O74 2.326 . S
In65 O76 2.294 . S
In65 O77 2.326 . S
O66 In65 2.294 . S
O66 C75 1.240 . S
O67 In65 2.326 . S
O67 C75 1.252 . S
C68 O71 1.252 . S
C68 O72 1.260 . S
C69 O76 1.240 . S
C69 O77 1.252 . S
C70 O73 1.252 . S
C70 O74 1.260 . S
O71 In65 2.266 . S
O71 C68 1.252 . S
O72 In65 2.326 . S
O72 C68 1.260 . S
O73 In65 2.266 . S
O73 C70 1.252 . S
O74 In65 2.326 . S
O74 C70 1.260 . S
C75 O66 1.240 . S
C75 O67 1.252 . S
O76 In65 2.294 . S
O76 C69 1.240 . S
O77 In65 2.326 . S
O77 C69 1.252 . S
In78 O79 2.294 . S
In78 O80 2.326 . S
In78 O84 2.266 . S
In78 O85 2.326 . S
In78 O86 2.266 . S
In78 O87 2.326 . S
In78 O89 2.294 . S
In78 O90 2.326 . S
O79 In78 2.294 . S
O79 C88 1.240 . S
O80 In78 2.326 . S
O80 C88 1.252 . S
C81 O84 1.252 . S
C81 O85 1.260 . S
C82 O89 1.240 . S
C82 O90 1.252 . S
C83 O86 1.252 . S
C83 O87 1.260 . S
O84 In78 2.266 . S
O84 C81 1.252 . S
O85 In78 2.326 . S
O85 C81 1.260 . S
O86 In78 2.266 . S
O86 C83 1.252 . S
O87 In78 2.326 . S
O87 C83 1.260 . S
C88 O79 1.240 . S
C88 O80 1.252 . S
O89 In78 2.294 . S
O89 C82 1.240 . S
O90 In78 2.326 . S
O90 C82 1.252 . S
In91 O92 2.294 . S
In91 O93 2.326 . S
In91 O97 2.266 . S
In91 O98 2.326 . S
In91 O99 2.266 . S
In91 O100 2.326 . S
In91 O102 2.294 . S
In91 O103 2.326 . S
O92 In91 2.294 . S
O92 C101 1.240 . S
O93 In91 2.326 . S
O93 C101 1.252 . S
C94 O97 1.252 . S
C94 O98 1.260 . S
C95 O102 1.240 . S
C95 O103 1.252 . S
C96 O99 1.252 . S
C96 O100 1.260 . S
O97 In91 2.266 . S
O97 C94 1.252 . S
O98 In91 2.326 . S
O98 C94 1.260 . S
O99 In91 2.266 . S
O99 C96 1.252 . S
O100 In91 2.326 . S
O100 C96 1.260 . S
C101 O92 1.240 . S
C101 O93 1.252 . S
O102 In91 2.294 . S
O102 C95 1.240 . S
O103 In91 2.326 . S
O103 C95 1.252 . S
In104 O105 2.294 . S
In104 O106 2.326 1_545 S
In104 O110 2.266 . S
In104 O111 2.326 . S
In104 O112 2.266 . S
In104 O113 2.326 . S
In104 O115 2.294 . S
In104 O116 2.326 . S
O105 In104 2.294 . S
O105 C114 1.240 1_545 S
O106 In104 2.326 1_565 S
O106 C114 1.252 . S
C107 O110 1.252 . S
C107 O111 1.260 . S
C108 O115 1.240 . S
C108 O116 1.252 . S
C109 O112 1.252 . S
C109 O113 1.260 . S
O110 In104 2.266 . S
O110 C107 1.252 . S
O111 In104 2.326 . S
O111 C107 1.260 . S
O112 In104 2.266 . S
O112 C109 1.252 . S
O113 In104 2.326 . S
O113 C109 1.260 . S
C114 O105 1.240 1_565 S
C114 O106 1.252 . S
O115 In104 2.294 . S
O115 C108 1.240 . S
O116 In104 2.326 . S
O116 C108 1.252 . S
In117 O118 2.294 . S
In117 O119 2.326 . S
In117 O123 2.266 . S
In117 O124 2.326 . S
In117 O125 2.266 . S
In117 O126 2.326 . S
In117 O128 2.294 . S
In117 O129 2.326 . S
O118 In117 2.294 . S
O118 C127 1.240 . S
O119 In117 2.326 . S
O119 C127 1.252 . S
C120 O123 1.252 . S
C120 O124 1.260 . S
C121 O128 1.240 . S
C121 O129 1.252 . S
C122 O125 1.252 . S
C122 O126 1.260 . S
O123 In117 2.266 . S
O123 C120 1.252 . S
O124 In117 2.326 . S
O124 C120 1.260 . S
O125 In117 2.266 . S
O125 C122 1.252 . S
O126 In117 2.326 . S
O126 C122 1.260 . S
C127 O118 1.240 . S
C127 O119 1.252 . S
O128 In117 2.294 . S
O128 C121 1.240 . S
O129 In117 2.326 . S
O129 C121 1.252 . S
In130 O131 2.294 . S
In130 O132 2.326 1_565 S
In130 O136 2.266 . S
In130 O137 2.326 . S
In130 O138 2.266 . S
In130 O139 2.326 . S
In130 O141 2.294 . S
In130 O142 2.326 . S
O131 In130 2.294 . S
O131 C140 1.240 1_565 S
O132 In130 2.326 1_545 S
O132 C140 1.252 . S
C133 O136 1.252 . S
C133 O137 1.260 . S
C134 O141 1.240 . S
C134 O142 1.252 . S
C135 O138 1.252 . S
C135 O139 1.260 . S
O136 In130 2.266 . S
O136 C133 1.252 . S
O137 In130 2.326 . S
O137 C133 1.260 . S
O138 In130 2.266 . S
O138 C135 1.252 . S
O139 In130 2.326 . S
O139 C135 1.260 . S
C140 O131 1.240 1_545 S
C140 O132 1.252 . S
O141 In130 2.294 . S
O141 C134 1.240 . S
O142 In130 2.326 . S
O142 C134 1.252 . S
In143 O144 2.294 . S
In143 O145 2.326 . S
In143 O149 2.266 . S
In143 O150 2.326 . S
In143 O151 2.266 . S
In143 O152 2.326 . S
In143 O154 2.294 . S
In143 O155 2.326 . S
O144 In143 2.294 . S
O144 C153 1.240 . S
O145 In143 2.326 . S
O145 C153 1.252 . S
C146 O149 1.252 . S
C146 O150 1.260 . S
C147 O154 1.240 . S
C147 O155 1.252 . S
C148 O151 1.252 . S
C148 O152 1.260 . S
O149 In143 2.266 . S
O149 C146 1.252 . S
O150 In143 2.326 . S
O150 C146 1.260 . S
O151 In143 2.266 . S
O151 C148 1.252 . S
O152 In143 2.326 . S
O152 C148 1.260 . S
C153 O144 1.240 . S
C153 O145 1.252 . S
O154 In143 2.294 . S
O154 C147 1.240 . S
O155 In143 2.326 . S
O155 C147 1.252 . S
In156 O157 2.294 . S
In156 O158 2.326 1_565 S
In156 O162 2.266 . S
In156 O163 2.326 . S
In156 O164 2.266 . S
In156 O165 2.326 . S
In156 O167 2.294 . S
In156 O168 2.326 . S
O157 In156 2.294 . S
O157 C166 1.240 1_565 S
O158 In156 2.326 1_545 S
O158 C166 1.252 . S
C159 O162 1.252 . S
C159 O163 1.260 . S
C160 O167 1.240 . S
C160 O168 1.252 . S
C161 O164 1.252 . S
C161 O165 1.260 . S
O162 In156 2.266 . S
O162 C159 1.252 . S
O163 In156 2.326 . S
O163 C159 1.260 . S
O164 In156 2.266 . S
O164 C161 1.252 . S
O165 In156 2.326 . S
O165 C161 1.260 . S
C166 O157 1.240 1_545 S
C166 O158 1.252 . S
O167 In156 2.294 . S
O167 C160 1.240 . S
O168 In156 2.326 . S
O168 C160 1.252 . S
In169 O170 2.294 . S
In169 O171 2.326 . S
In169 O175 2.266 . S
In169 O176 2.326 . S
In169 O177 2.266 . S
In169 O178 2.326 . S
In169 O180 2.294 . S
In169 O181 2.326 . S
O170 In169 2.294 . S
O170 C179 1.240 . S
O171 In169 2.326 . S
O171 C179 1.252 . S
C172 O175 1.252 . S
C172 O176 1.260 . S
C173 O180 1.240 . S
C173 O181 1.252 . S
C174 O177 1.252 . S
C174 O178 1.260 . S
O175 In169 2.266 . S
O175 C172 1.252 . S
O176 In169 2.326 . S
O176 C172 1.260 . S
O177 In169 2.266 . S
O177 C174 1.252 . S
O178 In169 2.326 . S
O178 C174 1.260 . S
C179 O170 1.240 . S
C179 O171 1.252 . S
O180 In169 2.294 . S
O180 C173 1.240 . S
O181 In169 2.326 . S
O181 C173 1.252 . S
In182 O183 2.294 . S
In182 O184 2.326 1_545 S
In182 O188 2.266 . S
In182 O189 2.326 . S
In182 O190 2.266 . S
In182 O191 2.326 . S
In182 O193 2.294 . S
In182 O194 2.326 . S
O183 In182 2.294 . S
O183 C192 1.240 1_545 S
O184 In182 2.326 1_565 S
O184 C192 1.252 . S
C185 O188 1.252 . S
C185 O189 1.260 . S
C186 O193 1.240 . S
C186 O194 1.252 . S
C187 O190 1.252 . S
C187 O191 1.260 . S
O188 In182 2.266 . S
O188 C185 1.252 . S
O189 In182 2.326 . S
O189 C185 1.260 . S
O190 In182 2.266 . S
O190 C187 1.252 . S
O191 In182 2.326 . S
O191 C187 1.260 . S
C192 O183 1.240 1_565 S
C192 O184 1.252 . S
O193 In182 2.294 . S
O193 C186 1.240 . S
O194 In182 2.326 . S
O194 C186 1.252 . S
In195 O196 2.294 . S
In195 O197 2.326 . S
In195 O201 2.266 . S
In195 O202 2.326 . S
In195 O203 2.266 . S
In195 O204 2.326 . S
In195 O206 2.294 . S
In195 O207 2.326 . S
O196 In195 2.294 . S
O196 C205 1.240 . S
O197 In195 2.326 . S
O197 C205 1.252 . S
C198 O201 1.252 . S
C198 O202 1.260 . S
C199 O206 1.240 . S
C199 O207 1.252 . S
C200 O203 1.252 . S
C200 O204 1.260 . S
O201 In195 2.266 . S
O201 C198 1.252 . S
O202 In195 2.326 . S
O202 C198 1.260 . S
O203 In195 2.266 . S
O203 C200 1.252 . S
O204 In195 2.326 . S
O204 C200 1.260 . S
C205 O196 1.240 . S
C205 O197 1.252 . S
O206 In195 2.294 . S
O206 C199 1.240 . S
O207 In195 2.326 . S
O207 C199 1.252 . S
In208 O209 2.294 . S
In208 O210 2.326 1_554 S
In208 O214 2.266 . S
In208 O215 2.326 . S
In208 O216 2.266 . S
In208 O217 2.326 . S
In208 O219 2.294 . S
In208 O220 2.326 . S
O209 In208 2.294 . S
O209 C218 1.240 1_554 S
O210 In208 2.326 1_556 S
O210 C218 1.252 . S
C211 O214 1.252 . S
C211 O215 1.260 . S
C212 O219 1.240 . S
C212 O220 1.252 . S
C213 O216 1.252 . S
C213 O217 1.260 . S
O214 In208 2.266 . S
O214 C211 1.252 . S
O215 In208 2.326 . S
O215 C211 1.260 . S
O216 In208 2.266 . S
O216 C213 1.252 . S
O217 In208 2.326 . S
O217 C213 1.260 . S
C218 O209 1.240 1_556 S
C218 O210 1.252 . S
O219 In208 2.294 . S
O219 C212 1.240 . S
O220 In208 2.326 . S
O220 C212 1.252 . S
In221 O222 2.294 . S
In221 O223 2.326 1_556 S
In221 O227 2.266 . S
In221 O228 2.326 . S
In221 O229 2.266 . S
In221 O230 2.326 . S
In221 O232 2.294 . S
In221 O233 2.326 . S
O222 In221 2.294 . S
O222 C231 1.240 1_556 S
O223 In221 2.326 1_554 S
O223 C231 1.252 . S
C224 O227 1.252 . S
C224 O228 1.260 . S
C225 O232 1.240 . S
C225 O233 1.252 . S
C226 O229 1.252 . S
C226 O230 1.260 . S
O227 In221 2.266 . S
O227 C224 1.252 . S
O228 In221 2.326 . S
O228 C224 1.260 . S
O229 In221 2.266 . S
O229 C226 1.252 . S
O230 In221 2.326 . S
O230 C226 1.260 . S
C231 O222 1.240 1_554 S
C231 O223 1.252 . S
O232 In221 2.294 . S
O232 C225 1.240 . S
O233 In221 2.326 . S
O233 C225 1.252 . S
In234 O235 2.294 . S
In234 O236 2.326 . S
In234 O240 2.266 . S
In234 O241 2.326 . S
In234 O242 2.266 . S
In234 O243 2.326 . S
In234 O245 2.294 . S
In234 O246 2.326 . S
O235 In234 2.294 . S
O235 C244 1.240 . S
O236 In234 2.326 . S
O236 C244 1.252 . S
C237 O240 1.252 . S
C237 O241 1.260 . S
C238 O245 1.240 . S
C238 O246 1.252 . S
C239 O242 1.252 . S
C239 O243 1.260 . S
O240 In234 2.266 . S
O240 C237 1.252 . S
O241 In234 2.326 . S
O241 C237 1.260 . S
O242 In234 2.266 . S
O242 C239 1.252 . S
O243 In234 2.326 . S
O243 C239 1.260 . S
C244 O235 1.240 . S
C244 O236 1.252 . S
O245 In234 2.294 . S
O245 C238 1.240 . S
O246 In234 2.326 . S
O246 C238 1.252 . S
In247 O248 2.294 . S
In247 O249 2.326 . S
In247 O253 2.266 . S
In247 O254 2.326 . S
In247 O255 2.266 . S
In247 O256 2.326 . S
In247 O258 2.294 . S
In247 O259 2.326 . S
O248 In247 2.294 . S
O248 C257 1.240 . S
O249 In247 2.326 . S
O249 C257 1.252 . S
C250 O253 1.252 . S
C250 O254 1.260 . S
C251 O258 1.240 . S
C251 O259 1.252 . S
C252 O255 1.252 . S
C252 O256 1.260 . S
O253 In247 2.266 . S
O253 C250 1.252 . S
O254 In247 2.326 . S
O254 C250 1.260 . S
O255 In247 2.266 . S
O255 C252 1.252 . S
O256 In247 2.326 . S
O256 C252 1.260 . S
C257 O248 1.240 . S
C257 O249 1.252 . S
O258 In247 2.294 . S
O258 C251 1.240 . S
O259 In247 2.326 . S
O259 C251 1.252 . S
In260 O261 2.294 . S
In260 O262 2.326 . S
In260 O266 2.266 . S
In260 O267 2.326 . S
In260 O268 2.266 . S
In260 O269 2.326 . S
In260 O271 2.294 . S
In260 O272 2.326 . S
O261 In260 2.294 . S
O261 C270 1.240 . S
O262 In260 2.326 . S
O262 C270 1.252 . S
C263 O266 1.252 . S
C263 O267 1.260 . S
C264 O271 1.240 . S
C264 O272 1.252 . S
C265 O268 1.252 . S
C265 O269 1.260 . S
O266 In260 2.266 . S
O266 C263 1.252 . S
O267 In260 2.326 . S
O267 C263 1.260 . S
O268 In260 2.266 . S
O268 C265 1.252 . S
O269 In260 2.326 . S
O269 C265 1.260 . S
C270 O261 1.240 . S
C270 O262 1.252 . S
O271 In260 2.294 . S
O271 C264 1.240 . S
O272 In260 2.326 . S
O272 C264 1.252 . S
In273 O274 2.294 . S
In273 O275 2.326 . S
In273 O279 2.266 . S
In273 O280 2.326 . S
In273 O281 2.266 . S
In273 O282 2.326 . S
In273 O284 2.294 . S
In273 O285 2.326 . S
O274 In273 2.294 . S
O274 C283 1.240 . S
O275 In273 2.326 . S
O275 C283 1.252 . S
C276 O279 1.252 . S
C276 O280 1.260 . S
C277 O284 1.240 . S
C277 O285 1.252 . S
C278 O281 1.252 . S
C278 O282 1.260 . S
O279 In273 2.266 . S
O279 C276 1.252 . S
O280 In273 2.326 . S
O280 C276 1.260 . S
O281 In273 2.266 . S
O281 C278 1.252 . S
O282 In273 2.326 . S
O282 C278 1.260 . S
C283 O274 1.240 . S
C283 O275 1.252 . S
O284 In273 2.294 . S
O284 C277 1.240 . S
O285 In273 2.326 . S
O285 C277 1.252 . S
In286 O287 2.294 . S
In286 O288 2.326 . S
In286 O292 2.266 . S
In286 O293 2.326 . S
In286 O294 2.266 . S
In286 O295 2.326 . S
In286 O297 2.294 . S
In286 O298 2.326 . S
O287 In286 2.294 . S
O287 C296 1.240 . S
O288 In286 2.326 . S
O288 C296 1.252 . S
C289 O292 1.252 . S
C289 O293 1.260 . S
C290 O297 1.240 . S
C290 O298 1.252 . S
C291 O294 1.252 . S
C291 O295 1.260 . S
O292 In286 2.266 . S
O292 C289 1.252 . S
O293 In286 2.326 . S
O293 C289 1.260 . S
O294 In286 2.266 . S
O294 C291 1.252 . S
O295 In286 2.326 . S
O295 C291 1.260 . S
C296 O287 1.240 . S
C296 O288 1.252 . S
O297 In286 2.294 . S
O297 C290 1.240 . S
O298 In286 2.326 . S
O298 C290 1.252 . S
In299 O300 2.294 . S
In299 O301 2.326 . S
In299 O305 2.266 . S
In299 O306 2.326 . S
In299 O307 2.266 . S
In299 O308 2.326 . S
In299 O310 2.294 . S
In299 O311 2.326 . S
O300 In299 2.294 . S
O300 C309 1.240 . S
O301 In299 2.326 . S
O301 C309 1.252 . S
C302 O305 1.252 . S
C302 O306 1.260 . S
C303 O310 1.240 . S
C303 O311 1.252 . S
C304 O307 1.252 . S
C304 O308 1.260 . S
O305 In299 2.266 . S
O305 C302 1.252 . S
O306 In299 2.326 . S
O306 C302 1.260 . S
O307 In299 2.266 . S
O307 C304 1.252 . S
O308 In299 2.326 . S
O308 C304 1.260 . S
C309 O300 1.240 . S
C309 O301 1.252 . S
O310 In299 2.294 . S
O310 C303 1.240 . S
O311 In299 2.326 . S
O311 C303 1.252 . S
In312 O313 2.294 . S
In312 O314 2.326 1_655 S
In312 O318 2.266 . S
In312 O319 2.326 . S
In312 O320 2.266 . S
In312 O321 2.326 . S
In312 O323 2.294 . S
In312 O324 2.326 . S
O313 In312 2.294 . S
O313 C322 1.240 1_655 S
O314 In312 2.326 1_455 S
O314 C322 1.252 . S
C315 O318 1.252 . S
C315 O319 1.260 . S
C316 O323 1.240 . S
C316 O324 1.252 . S
C317 O320 1.252 . S
C317 O321 1.260 . S
O318 In312 2.266 . S
O318 C315 1.252 . S
O319 In312 2.326 . S
O319 C315 1.260 . S
O320 In312 2.266 . S
O320 C317 1.252 . S
O321 In312 2.326 . S
O321 C317 1.260 . S
C322 O313 1.240 1_455 S
C322 O314 1.252 . S
O323 In312 2.294 . S
O323 C316 1.240 . S
O324 In312 2.326 . S
O324 C316 1.252 . S
In325 O326 2.294 . S
In325 O327 2.326 . S
In325 O331 2.266 . S
In325 O332 2.326 . S
In325 O333 2.266 . S
In325 O334 2.326 . S
In325 O336 2.294 . S
In325 O337 2.326 . S
O326 In325 2.294 . S
O326 C335 1.240 . S
O327 In325 2.326 . S
O327 C335 1.252 . S
C328 O331 1.252 . S
C328 O332 1.260 . S
C329 O336 1.240 . S
C329 O337 1.252 . S
C330 O333 1.252 . S
C330 O334 1.260 . S
O331 In325 2.266 . S
O331 C328 1.252 . S
O332 In325 2.326 . S
O332 C328 1.260 . S
O333 In325 2.266 . S
O333 C330 1.252 . S
O334 In325 2.326 . S
O334 C330 1.260 . S
C335 O326 1.240 . S
C335 O327 1.252 . S
O336 In325 2.294 . S
O336 C329 1.240 . S
O337 In325 2.326 . S
O337 C329 1.252 . S
In338 O339 2.294 . S
In338 O340 2.326 . S
In338 O344 2.266 . S
In338 O345 2.326 . S
In338 O346 2.266 . S
In338 O347 2.326 . S
In338 O349 2.294 . S
In338 O350 2.326 . S
O339 In338 2.294 . S
O339 C348 1.240 . S
O340 In338 2.326 . S
O340 C348 1.252 . S
C341 O344 1.252 . S
C341 O345 1.260 . S
C342 O349 1.240 . S
C342 O350 1.252 . S
C343 O346 1.252 . S
C343 O347 1.260 . S
O344 In338 2.266 . S
O344 C341 1.252 . S
O345 In338 2.326 . S
O345 C341 1.260 . S
O346 In338 2.266 . S
O346 C343 1.252 . S
O347 In338 2.326 . S
O347 C343 1.260 . S
C348 O339 1.240 . S
C348 O340 1.252 . S
O349 In338 2.294 . S
O349 C342 1.240 . S
O350 In338 2.326 . S
O350 C342 1.252 . S
In351 O352 2.294 . S
In351 O353 2.326 . S
In351 O357 2.266 . S
In351 O358 2.326 . S
In351 O359 2.266 . S
In351 O360 2.326 . S
In351 O362 2.294 . S
In351 O363 2.326 . S
O352 In351 2.294 . S
O352 C361 1.240 . S
O353 In351 2.326 . S
O353 C361 1.252 . S
C354 O357 1.252 . S
C354 O358 1.260 . S
C355 O362 1.240 . S
C355 O363 1.252 . S
C356 O359 1.252 . S
C356 O360 1.260 . S
O357 In351 2.266 . S
O357 C354 1.252 . S
O358 In351 2.326 . S
O358 C354 1.260 . S
O359 In351 2.266 . S
O359 C356 1.252 . S
O360 In351 2.326 . S
O360 C356 1.260 . S
C361 O352 1.240 . S
C361 O353 1.252 . S
O362 In351 2.294 . S
O362 C355 1.240 . S
O363 In351 2.326 . S
O363 C355 1.252 . S
In364 O365 2.294 . S
In364 O366 2.326 1_655 S
In364 O370 2.266 . S
In364 O371 2.326 . S
In364 O372 2.266 . S
In364 O373 2.326 . S
In364 O375 2.294 . S
In364 O376 2.326 . S
O365 In364 2.294 . S
O365 C374 1.240 1_655 S
O366 In364 2.326 1_455 S
O366 C374 1.252 . S
C367 O370 1.252 . S
C367 O371 1.260 . S
C368 O375 1.240 . S
C368 O376 1.252 . S
C369 O372 1.252 . S
C369 O373 1.260 . S
O370 In364 2.266 . S
O370 C367 1.252 . S
O371 In364 2.326 . S
O371 C367 1.260 . S
O372 In364 2.266 . S
O372 C369 1.252 . S
O373 In364 2.326 . S
O373 C369 1.260 . S
C374 O365 1.240 1_455 S
C374 O366 1.252 . S
O375 In364 2.294 . S
O375 C368 1.240 . S
O376 In364 2.326 . S
O376 C368 1.252 . S
In377 O378 2.294 . S
In377 O379 2.326 . S
In377 O383 2.266 . S
In377 O384 2.326 . S
In377 O385 2.266 . S
In377 O386 2.326 . S
In377 O388 2.294 . S
In377 O389 2.326 . S
O378 In377 2.294 . S
O378 C387 1.240 . S
O379 In377 2.326 . S
O379 C387 1.252 . S
C380 O383 1.252 . S
C380 O384 1.260 . S
C381 O388 1.240 . S
C381 O389 1.252 . S
C382 O385 1.252 . S
C382 O386 1.260 . S
O383 In377 2.266 . S
O383 C380 1.252 . S
O384 In377 2.326 . S
O384 C380 1.260 . S
O385 In377 2.266 . S
O385 C382 1.252 . S
O386 In377 2.326 . S
O386 C382 1.260 . S
C387 O378 1.240 . S
C387 O379 1.252 . S
O388 In377 2.294 . S
O388 C381 1.240 . S
O389 In377 2.326 . S
O389 C381 1.252 . S
In390 O391 2.294 . S
In390 O392 2.326 . S
In390 O396 2.266 . S
In390 O397 2.326 . S
In390 O398 2.266 . S
In390 O399 2.326 . S
In390 O401 2.294 . S
In390 O402 2.326 . S
O391 In390 2.294 . S
O391 C400 1.240 . S
O392 In390 2.326 . S
O392 C400 1.252 . S
C393 O396 1.252 . S
C393 O397 1.260 . S
C394 O401 1.240 . S
C394 O402 1.252 . S
C395 O398 1.252 . S
C395 O399 1.260 . S
O396 In390 2.266 . S
O396 C393 1.252 . S
O397 In390 2.326 . S
O397 C393 1.260 . S
O398 In390 2.266 . S
O398 C395 1.252 . S
O399 In390 2.326 . S
O399 C395 1.260 . S
C400 O391 1.240 . S
C400 O392 1.252 . S
O401 In390 2.294 . S
O401 C394 1.240 . S
O402 In390 2.326 . S
O402 C394 1.252 . S
In403 O404 2.294 . S
In403 O405 2.326 . S
In403 O409 2.266 . S
In403 O410 2.326 . S
In403 O411 2.266 . S
In403 O412 2.326 . S
In403 O414 2.294 . S
In403 O415 2.326 . S
O404 In403 2.294 . S
O404 C413 1.240 . S
O405 In403 2.326 . S
O405 C413 1.252 . S
C406 O409 1.252 . S
C406 O410 1.260 . S
C407 O414 1.240 . S
C407 O415 1.252 . S
C408 O411 1.252 . S
C408 O412 1.260 . S
O409 In403 2.266 . S
O409 C406 1.252 . S
O410 In403 2.326 . S
O410 C406 1.260 . S
O411 In403 2.266 . S
O411 C408 1.252 . S
O412 In403 2.326 . S
O412 C408 1.260 . S
C413 O404 1.240 . S
C413 O405 1.252 . S
O414 In403 2.294 . S
O414 C407 1.240 . S
O415 In403 2.326 . S
O415 C407 1.252 . S
In416 O417 2.294 . S
In416 O418 2.326 1_565 S
In416 O422 2.266 . S
In416 O423 2.326 . S
In416 O424 2.266 . S
In416 O425 2.326 . S
In416 O427 2.294 . S
In416 O428 2.326 . S
O417 In416 2.294 . S
O417 C426 1.240 1_565 S
O418 In416 2.326 1_545 S
O418 C426 1.252 . S
C419 O422 1.252 . S
C419 O423 1.260 . S
C420 O427 1.240 . S
C420 O428 1.252 . S
C421 O424 1.252 . S
C421 O425 1.260 . S
O422 In416 2.266 . S
O422 C419 1.252 . S
O423 In416 2.326 . S
O423 C419 1.260 . S
O424 In416 2.266 . S
O424 C421 1.252 . S
O425 In416 2.326 . S
O425 C421 1.260 . S
C426 O417 1.240 1_545 S
C426 O418 1.252 . S
O427 In416 2.294 . S
O427 C420 1.240 . S
O428 In416 2.326 . S
O428 C420 1.252 . S
In429 O430 2.294 . S
In429 O431 2.326 . S
In429 O435 2.266 . S
In429 O436 2.326 . S
In429 O437 2.266 . S
In429 O438 2.326 . S
In429 O440 2.294 . S
In429 O441 2.326 . S
O430 In429 2.294 . S
O430 C439 1.240 . S
O431 In429 2.326 . S
O431 C439 1.252 . S
C432 O435 1.252 . S
C432 O436 1.260 . S
C433 O440 1.240 . S
C433 O441 1.252 . S
C434 O437 1.252 . S
C434 O438 1.260 . S
O435 In429 2.266 . S
O435 C432 1.252 . S
O436 In429 2.326 . S
O436 C432 1.260 . S
O437 In429 2.266 . S
O437 C434 1.252 . S
O438 In429 2.326 . S
O438 C434 1.260 . S
C439 O430 1.240 . S
C439 O431 1.252 . S
O440 In429 2.294 . S
O440 C433 1.240 . S
O441 In429 2.326 . S
O441 C433 1.252 . S
In442 O443 2.294 . S
In442 O444 2.326 . S
In442 O448 2.266 . S
In442 O449 2.326 . S
In442 O450 2.266 . S
In442 O451 2.326 . S
In442 O453 2.294 . S
In442 O454 2.326 1_545 S
O443 In442 2.294 . S
O443 C452 1.240 . S
O444 In442 2.326 . S
O444 C452 1.252 . S
C445 O448 1.252 . S
C445 O449 1.260 . S
C446 O453 1.240 1_565 S
C446 O454 1.252 . S
C447 O450 1.252 . S
C447 O451 1.260 . S
O448 In442 2.266 . S
O448 C445 1.252 . S
O449 In442 2.326 . S
O449 C445 1.260 . S
O450 In442 2.266 . S
O450 C447 1.252 . S
O451 In442 2.326 . S
O451 C447 1.260 . S
C452 O443 1.240 . S
C452 O444 1.252 . S
O453 In442 2.294 . S
O453 C446 1.240 1_545 S
O454 In442 2.326 1_565 S
O454 C446 1.252 . S
In455 O456 2.294 . S
In455 O457 2.326 . S
In455 O461 2.266 . S
In455 O462 2.326 . S
In455 O463 2.266 . S
In455 O464 2.326 . S
In455 O466 2.294 . S
In455 O467 2.326 . S
O456 In455 2.294 . S
O456 C465 1.240 . S
O457 In455 2.326 . S
O457 C465 1.252 . S
C458 O461 1.252 . S
C458 O462 1.260 . S
C459 O466 1.240 . S
C459 O467 1.252 . S
C460 O463 1.252 . S
C460 O464 1.260 . S
O461 In455 2.266 . S
O461 C458 1.252 . S
O462 In455 2.326 . S
O462 C458 1.260 . S
O463 In455 2.266 . S
O463 C460 1.252 . S
O464 In455 2.326 . S
O464 C460 1.260 . S
C465 O456 1.240 . S
C465 O457 1.252 . S
O466 In455 2.294 . S
O466 C459 1.240 . S
O467 In455 2.326 . S
O467 C459 1.252 . S
In468 O469 2.294 . S
In468 O470 2.326 1_545 S
In468 O474 2.266 . S
In468 O475 2.326 . S
In468 O476 2.266 . S
In468 O477 2.326 . S
In468 O479 2.294 . S
In468 O480 2.326 . S
O469 In468 2.294 . S
O469 C478 1.240 1_545 S
O470 In468 2.326 1_565 S
O470 C478 1.252 . S
C471 O474 1.252 . S
C471 O475 1.260 . S
C472 O479 1.240 . S
C472 O480 1.252 . S
C473 O476 1.252 . S
C473 O477 1.260 . S
O474 In468 2.266 . S
O474 C471 1.252 . S
O475 In468 2.326 . S
O475 C471 1.260 . S
O476 In468 2.266 . S
O476 C473 1.252 . S
O477 In468 2.326 . S
O477 C473 1.260 . S
C478 O469 1.240 1_565 S
C478 O470 1.252 . S
O479 In468 2.294 . S
O479 C472 1.240 . S
O480 In468 2.326 . S
O480 C472 1.252 . S
In481 O482 2.294 . S
In481 O483 2.326 . S
In481 O487 2.266 . S
In481 O488 2.326 . S
In481 O489 2.266 . S
In481 O490 2.326 . S
In481 O492 2.294 . S
In481 O493 2.326 . S
O482 In481 2.294 . S
O482 C491 1.240 . S
O483 In481 2.326 . S
O483 C491 1.252 . S
C484 O487 1.252 . S
C484 O488 1.260 . S
C485 O492 1.240 . S
C485 O493 1.252 . S
C486 O489 1.252 . S
C486 O490 1.260 . S
O487 In481 2.266 . S
O487 C484 1.252 . S
O488 In481 2.326 . S
O488 C484 1.260 . S
O489 In481 2.266 . S
O489 C486 1.252 . S
O490 In481 2.326 . S
O490 C486 1.260 . S
C491 O482 1.240 . S
C491 O483 1.252 . S
O492 In481 2.294 . S
O492 C485 1.240 . S
O493 In481 2.326 . S
O493 C485 1.252 . S
In494 O495 2.294 . S
In494 O496 2.326 1_565 S
In494 O500 2.266 . S
In494 O501 2.326 . S
In494 O502 2.266 . S
In494 O503 2.326 . S
In494 O505 2.294 . S
In494 O506 2.326 . S
O495 In494 2.294 . S
O495 C504 1.240 1_565 S
O496 In494 2.326 1_545 S
O496 C504 1.252 . S
C497 O500 1.252 . S
C497 O501 1.260 . S
C498 O505 1.240 . S
C498 O506 1.252 . S
C499 O502 1.252 . S
C499 O503 1.260 . S
O500 In494 2.266 . S
O500 C497 1.252 . S
O501 In494 2.326 . S
O501 C497 1.260 . S
O502 In494 2.266 . S
O502 C499 1.252 . S
O503 In494 2.326 . S
O503 C499 1.260 . S
C504 O495 1.240 1_545 S
C504 O496 1.252 . S
O505 In494 2.294 . S
O505 C498 1.240 . S
O506 In494 2.326 . S
O506 C498 1.252 . S
In507 O508 2.294 . S
In507 O509 2.326 . S
In507 O513 2.266 . S
In507 O514 2.326 . S
In507 O515 2.266 . S
In507 O516 2.326 . S
In507 O518 2.294 . S
In507 O519 2.326 . S
O508 In507 2.294 . S
O508 C517 1.240 . S
O509 In507 2.326 . S
O509 C517 1.252 . S
C510 O513 1.252 . S
C510 O514 1.260 . S
C511 O518 1.240 . S
C511 O519 1.252 . S
C512 O515 1.252 . S
C512 O516 1.260 . S
O513 In507 2.266 . S
O513 C510 1.252 . S
O514 In507 2.326 . S
O514 C510 1.260 . S
O515 In507 2.266 . S
O515 C512 1.252 . S
O516 In507 2.326 . S
O516 C512 1.260 . S
C517 O508 1.240 . S
C517 O509 1.252 . S
O518 In507 2.294 . S
O518 C511 1.240 . S
O519 In507 2.326 . S
O519 C511 1.252 . S
In520 O521 2.294 . S
In520 O522 2.326 . S
In520 O526 2.266 . S
In520 O527 2.326 . S
In520 O528 2.266 . S
In520 O529 2.326 . S
In520 O531 2.294 . S
In520 O532 2.326 1_556 S
O521 In520 2.294 . S
O521 C530 1.240 . S
O522 In520 2.326 . S
O522 C530 1.252 . S
C523 O526 1.252 . S
C523 O527 1.260 . S
C524 O531 1.240 1_554 S
C524 O532 1.252 . S
C525 O528 1.252 . S
C525 O529 1.260 . S
O526 In520 2.266 . S
O526 C523 1.252 . S
O527 In520 2.326 . S
O527 C523 1.260 . S
O528 In520 2.266 . S
O528 C525 1.252 . S
O529 In520 2.326 . S
O529 C525 1.260 . S
C530 O521 1.240 . S
C530 O522 1.252 . S
O531 In520 2.294 . S
O531 C524 1.240 1_556 S
O532 In520 2.326 1_554 S
O532 C524 1.252 . S
In533 O534 2.294 . S
In533 O535 2.326 1_554 S
In533 O539 2.266 . S
In533 O540 2.326 . S
In533 O541 2.266 . S
In533 O542 2.326 . S
In533 O544 2.294 . S
In533 O545 2.326 . S
O534 In533 2.294 . S
O534 C543 1.240 1_554 S
O535 In533 2.326 1_556 S
O535 C543 1.252 . S
C536 O539 1.252 . S
C536 O540 1.260 . S
C537 O544 1.240 . S
C537 O545 1.252 . S
C538 O541 1.252 . S
C538 O542 1.260 . S
O539 In533 2.266 . S
O539 C536 1.252 . S
O540 In533 2.326 . S
O540 C536 1.260 . S
O541 In533 2.266 . S
O541 C538 1.252 . S
O542 In533 2.326 . S
O542 C538 1.260 . S
C543 O534 1.240 1_556 S
C543 O535 1.252 . S
O544 In533 2.294 . S
O544 C537 1.240 . S
O545 In533 2.326 . S
O545 C537 1.252 . S
In546 O547 2.294 . S
In546 O548 2.326 . S
In546 O552 2.266 . S
In546 O553 2.326 . S
In546 O554 2.266 . S
In546 O555 2.326 . S
In546 O557 2.294 . S
In546 O558 2.326 . S
O547 In546 2.294 . S
O547 C556 1.240 . S
O548 In546 2.326 . S
O548 C556 1.252 . S
C549 O552 1.252 . S
C549 O553 1.260 . S
C550 O557 1.240 . S
C550 O558 1.252 . S
C551 O554 1.252 . S
C551 O555 1.260 . S
O552 In546 2.266 . S
O552 C549 1.252 . S
O553 In546 2.326 . S
O553 C549 1.260 . S
O554 In546 2.266 . S
O554 C551 1.252 . S
O555 In546 2.326 . S
O555 C551 1.260 . S
C556 O547 1.240 . S
C556 O548 1.252 . S
O557 In546 2.294 . S
O557 C550 1.240 . S
O558 In546 2.326 . S
O558 C550 1.252 . S
In559 O560 2.294 . S
In559 O561 2.326 . S
In559 O565 2.266 . S
In559 O566 2.326 . S
In559 O567 2.266 . S
In559 O568 2.326 . S
In559 O570 2.294 . S
In559 O571 2.326 . S
O560 In559 2.294 . S
O560 C569 1.240 . S
O561 In559 2.326 . S
O561 C569 1.252 . S
C562 O565 1.252 . S
C562 O566 1.260 . S
C563 O570 1.240 . S
C563 O571 1.252 . S
C564 O567 1.252 . S
C564 O568 1.260 . S
O565 In559 2.266 . S
O565 C562 1.252 . S
O566 In559 2.326 . S
O566 C562 1.260 . S
O567 In559 2.266 . S
O567 C564 1.252 . S
O568 In559 2.326 . S
O568 C564 1.260 . S
C569 O560 1.240 . S
C569 O561 1.252 . S
O570 In559 2.294 . S
O570 C563 1.240 . S
O571 In559 2.326 . S
O571 C563 1.252 . S
In572 O573 2.294 . S
In572 O574 2.326 . S
In572 O578 2.266 . S
In572 O579 2.326 . S
In572 O580 2.266 . S
In572 O581 2.326 . S
In572 O583 2.294 . S
In572 O584 2.326 . S
O573 In572 2.294 . S
O573 C582 1.240 . S
O574 In572 2.326 . S
O574 C582 1.252 . S
C575 O578 1.252 . S
C575 O579 1.260 . S
C576 O583 1.240 . S
C576 O584 1.252 . S
C577 O580 1.252 . S
C577 O581 1.260 . S
O578 In572 2.266 . S
O578 C575 1.252 . S
O579 In572 2.326 . S
O579 C575 1.260 . S
O580 In572 2.266 . S
O580 C577 1.252 . S
O581 In572 2.326 . S
O581 C577 1.260 . S
C582 O573 1.240 . S
C582 O574 1.252 . S
O583 In572 2.294 . S
O583 C576 1.240 . S
O584 In572 2.326 . S
O584 C576 1.252 . S
In585 O586 2.294 . S
In585 O587 2.326 . S
In585 O591 2.266 . S
In585 O592 2.326 . S
In585 O593 2.266 . S
In585 O594 2.326 . S
In585 O596 2.294 . S
In585 O597 2.326 . S
O586 In585 2.294 . S
O586 C595 1.240 . S
O587 In585 2.326 . S
O587 C595 1.252 . S
C588 O591 1.252 . S
C588 O592 1.260 . S
C589 O596 1.240 . S
C589 O597 1.252 . S
C590 O593 1.252 . S
C590 O594 1.260 . S
O591 In585 2.266 . S
O591 C588 1.252 . S
O592 In585 2.326 . S
O592 C588 1.260 . S
O593 In585 2.266 . S
O593 C590 1.252 . S
O594 In585 2.326 . S
O594 C590 1.260 . S
C595 O586 1.240 . S
C595 O587 1.252 . S
O596 In585 2.294 . S
O596 C589 1.240 . S
O597 In585 2.326 . S
O597 C589 1.252 . S
In598 O599 2.294 . S
In598 O600 2.326 . S
In598 O604 2.266 . S
In598 O605 2.326 . S
In598 O606 2.266 . S
In598 O607 2.326 . S
In598 O609 2.294 . S
In598 O610 2.326 . S
O599 In598 2.294 . S
O599 C608 1.240 . S
O600 In598 2.326 . S
O600 C608 1.252 . S
C601 O604 1.252 . S
C601 O605 1.260 . S
C602 O609 1.240 . S
C602 O610 1.252 . S
C603 O606 1.252 . S
C603 O607 1.260 . S
O604 In598 2.266 . S
O604 C601 1.252 . S
O605 In598 2.326 . S
O605 C601 1.260 . S
O606 In598 2.266 . S
O606 C603 1.252 . S
O607 In598 2.326 . S
O607 C603 1.260 . S
C608 O599 1.240 . S
C608 O600 1.252 . S
O609 In598 2.294 . S
O609 C602 1.240 . S
O610 In598 2.326 . S
O610 C602 1.252 . S
In611 O612 2.294 . S
In611 O613 2.326 . S
In611 O617 2.266 . S
In611 O618 2.326 . S
In611 O619 2.266 . S
In611 O620 2.326 . S
In611 O622 2.294 . S
In611 O623 2.326 . S
O612 In611 2.294 . S
O612 C621 1.240 . S
O613 In611 2.326 . S
O613 C621 1.252 . S
C614 O617 1.252 . S
C614 O618 1.260 . S
C615 O622 1.240 . S
C615 O623 1.252 . S
C616 O619 1.252 . S
C616 O620 1.260 . S
O617 In611 2.266 . S
O617 C614 1.252 . S
O618 In611 2.326 . S
O618 C614 1.260 . S
O619 In611 2.266 . S
O619 C616 1.252 . S
O620 In611 2.326 . S
O620 C616 1.260 . S
C621 O612 1.240 . S
C621 O613 1.252 . S
O622 In611 2.294 . S
O622 C615 1.240 . S
O623 In611 2.326 . S
O623 C615 1.252 . S
In624 O625 2.294 . S
In624 O626 2.326 . S
In624 O630 2.266 . S
In624 O631 2.326 . S
In624 O632 2.266 . S
In624 O633 2.326 . S
In624 O635 2.294 . S
In624 O636 2.326 . S
O625 In624 2.294 . S
O625 C634 1.240 . S
O626 In624 2.326 . S
O626 C634 1.252 . S
C627 O630 1.252 . S
C627 O631 1.260 . S
C628 O635 1.240 . S
C628 O636 1.252 . S
C629 O632 1.252 . S
C629 O633 1.260 . S
O630 In624 2.266 . S
O630 C627 1.252 . S
O631 In624 2.326 . S
O631 C627 1.260 . S
O632 In624 2.266 . S
O632 C629 1.252 . S
O633 In624 2.326 . S
O633 C629 1.260 . S
C634 O625 1.240 . S
C634 O626 1.252 . S
O635 In624 2.294 . S
O635 C628 1.240 . S
O636 In624 2.326 . S
O636 C628 1.252 . S
In637 O638 2.294 . S
In637 O639 2.326 . S
In637 O643 2.266 . S
In637 O644 2.326 . S
In637 O645 2.266 . S
In637 O646 2.326 . S
In637 O648 2.294 . S
In637 O649 2.326 . S
O638 In637 2.294 . S
O638 C647 1.240 . S
O639 In637 2.326 . S
O639 C647 1.252 . S
C640 O643 1.252 . S
C640 O644 1.260 . S
C641 O648 1.240 . S
C641 O649 1.252 . S
C642 O645 1.252 . S
C642 O646 1.260 . S
O643 In637 2.266 . S
O643 C640 1.252 . S
O644 In637 2.326 . S
O644 C640 1.260 . S
O645 In637 2.266 . S
O645 C642 1.252 . S
O646 In637 2.326 . S
O646 C642 1.260 . S
C647 O638 1.240 . S
C647 O639 1.252 . S
O648 In637 2.294 . S
O648 C641 1.240 . S
O649 In637 2.326 . S
O649 C641 1.252 . S
In650 O651 2.294 . S
In650 O652 2.326 1_655 S
In650 O656 2.266 . S
In650 O657 2.326 . S
In650 O658 2.266 . S
In650 O659 2.326 . S
In650 O661 2.294 . S
In650 O662 2.326 . S
O651 In650 2.294 . S
O651 C660 1.240 1_655 S
O652 In650 2.326 1_455 S
O652 C660 1.252 . S
C653 O656 1.252 . S
C653 O657 1.260 . S
C654 O661 1.240 . S
C654 O662 1.252 . S
C655 O658 1.252 . S
C655 O659 1.260 . S
O656 In650 2.266 . S
O656 C653 1.252 . S
O657 In650 2.326 . S
O657 C653 1.260 . S
O658 In650 2.266 . S
O658 C655 1.252 . S
O659 In650 2.326 . S
O659 C655 1.260 . S
C660 O651 1.240 1_455 S
C660 O652 1.252 . S
O661 In650 2.294 . S
O661 C654 1.240 . S
O662 In650 2.326 . S
O662 C654 1.252 . S
In663 O664 2.294 . S
In663 O665 2.326 . S
In663 O669 2.266 . S
In663 O670 2.326 . S
In663 O671 2.266 . S
In663 O672 2.326 . S
In663 O674 2.294 . S
In663 O675 2.326 . S
O664 In663 2.294 . S
O664 C673 1.240 . S
O665 In663 2.326 . S
O665 C673 1.252 . S
C666 O669 1.252 . S
C666 O670 1.260 . S
C667 O674 1.240 . S
C667 O675 1.252 . S
C668 O671 1.252 . S
C668 O672 1.260 . S
O669 In663 2.266 . S
O669 C666 1.252 . S
O670 In663 2.326 . S
O670 C666 1.260 . S
O671 In663 2.266 . S
O671 C668 1.252 . S
O672 In663 2.326 . S
O672 C668 1.260 . S
C673 O664 1.240 . S
C673 O665 1.252 . S
O674 In663 2.294 . S
O674 C667 1.240 . S
O675 In663 2.326 . S
O675 C667 1.252 . S
In676 O677 2.294 . S
In676 O678 2.326 . S
In676 O682 2.266 . S
In676 O683 2.326 . S
In676 O684 2.266 . S
In676 O685 2.326 . S
In676 O687 2.294 . S
In676 O688 2.326 . S
O677 In676 2.294 . S
O677 C686 1.240 . S
O678 In676 2.326 . S
O678 C686 1.252 . S
C679 O682 1.252 . S
C679 O683 1.260 . S
C680 O687 1.240 . S
C680 O688 1.252 . S
C681 O684 1.252 . S
C681 O685 1.260 . S
O682 In676 2.266 . S
O682 C679 1.252 . S
O683 In676 2.326 . S
O683 C679 1.260 . S
O684 In676 2.266 . S
O684 C681 1.252 . S
O685 In676 2.326 . S
O685 C681 1.260 . S
C686 O677 1.240 . S
C686 O678 1.252 . S
O687 In676 2.294 . S
O687 C680 1.240 . S
O688 In676 2.326 . S
O688 C680 1.252 . S
In689 O690 2.294 . S
In689 O691 2.326 . S
In689 O695 2.266 . S
In689 O696 2.326 . S
In689 O697 2.266 . S
In689 O698 2.326 . S
In689 O700 2.294 . S
In689 O701 2.326 . S
O690 In689 2.294 . S
O690 C699 1.240 . S
O691 In689 2.326 . S
O691 C699 1.252 . S
C692 O695 1.252 . S
C692 O696 1.260 . S
C693 O700 1.240 . S
C693 O701 1.252 . S
C694 O697 1.252 . S
C694 O698 1.260 . S
O695 In689 2.266 . S
O695 C692 1.252 . S
O696 In689 2.326 . S
O696 C692 1.260 . S
O697 In689 2.266 . S
O697 C694 1.252 . S
O698 In689 2.326 . S
O698 C694 1.260 . S
C699 O690 1.240 . S
C699 O691 1.252 . S
O700 In689 2.294 . S
O700 C693 1.240 . S
O701 In689 2.326 . S
O701 C693 1.252 . S
In702 O703 2.294 . S
In702 O704 2.326 . S
In702 O708 2.266 . S
In702 O709 2.326 . S
In702 O710 2.266 . S
In702 O711 2.326 . S
In702 O713 2.294 . S
In702 O714 2.326 1_655 S
O703 In702 2.294 . S
O703 C712 1.240 . S
O704 In702 2.326 . S
O704 C712 1.252 . S
C705 O708 1.252 . S
C705 O709 1.260 . S
C706 O713 1.240 1_455 S
C706 O714 1.252 . S
C707 O710 1.252 . S
C707 O711 1.260 . S
O708 In702 2.266 . S
O708 C705 1.252 . S
O709 In702 2.326 . S
O709 C705 1.260 . S
O710 In702 2.266 . S
O710 C707 1.252 . S
O711 In702 2.326 . S
O711 C707 1.260 . S
C712 O703 1.240 . S
C712 O704 1.252 . S
O713 In702 2.294 . S
O713 C706 1.240 1_655 S
O714 In702 2.326 1_455 S
O714 C706 1.252 . S
In715 O716 2.294 . S
In715 O717 2.326 . S
In715 O721 2.266 . S
In715 O722 2.326 . S
In715 O723 2.266 . S
In715 O724 2.326 . S
In715 O726 2.294 . S
In715 O727 2.326 . S
O716 In715 2.294 . S
O716 C725 1.240 . S
O717 In715 2.326 . S
O717 C725 1.252 . S
C718 O721 1.252 . S
C718 O722 1.260 . S
C719 O726 1.240 . S
C719 O727 1.252 . S
C720 O723 1.252 . S
C720 O724 1.260 . S
O721 In715 2.266 . S
O721 C718 1.252 . S
O722 In715 2.326 . S
O722 C718 1.260 . S
O723 In715 2.266 . S
O723 C720 1.252 . S
O724 In715 2.326 . S
O724 C720 1.260 . S
C725 O716 1.240 . S
C725 O717 1.252 . S
O726 In715 2.294 . S
O726 C719 1.240 . S
O727 In715 2.326 . S
O727 C719 1.252 . S
In728 O729 2.294 . S
In728 O730 2.326 . S
In728 O734 2.266 . S
In728 O735 2.326 . S
In728 O736 2.266 . S
In728 O737 2.326 . S
In728 O739 2.294 . S
In728 O740 2.326 . S
O729 In728 2.294 . S
O729 C738 1.240 . S
O730 In728 2.326 . S
O730 C738 1.252 . S
C731 O734 1.252 . S
C731 O735 1.260 . S
C732 O739 1.240 . S
C732 O740 1.252 . S
C733 O736 1.252 . S
C733 O737 1.260 . S
O734 In728 2.266 . S
O734 C731 1.252 . S
O735 In728 2.326 . S
O735 C731 1.260 . S
O736 In728 2.266 . S
O736 C733 1.252 . S
O737 In728 2.326 . S
O737 C733 1.260 . S
C738 O729 1.240 . S
C738 O730 1.252 . S
O739 In728 2.294 . S
O739 C732 1.240 . S
O740 In728 2.326 . S
O740 C732 1.252 . S
In741 O742 2.294 . S
In741 O743 2.326 . S
In741 O747 2.266 . S
In741 O748 2.326 . S
In741 O749 2.266 . S
In741 O750 2.326 . S
In741 O752 2.294 . S
In741 O753 2.326 . S
O742 In741 2.294 . S
O742 C751 1.240 . S
O743 In741 2.326 . S
O743 C751 1.252 . S
C744 O747 1.252 . S
C744 O748 1.260 . S
C745 O752 1.240 . S
C745 O753 1.252 . S
C746 O749 1.252 . S
C746 O750 1.260 . S
O747 In741 2.266 . S
O747 C744 1.252 . S
O748 In741 2.326 . S
O748 C744 1.260 . S
O749 In741 2.266 . S
O749 C746 1.252 . S
O750 In741 2.326 . S
O750 C746 1.260 . S
C751 O742 1.240 . S
C751 O743 1.252 . S
O752 In741 2.294 . S
O752 C745 1.240 . S
O753 In741 2.326 . S
O753 C745 1.252 . S
In754 O755 2.294 . S
In754 O756 2.326 . S
In754 O760 2.266 . S
In754 O761 2.326 . S
In754 O762 2.266 . S
In754 O763 2.326 . S
In754 O765 2.294 . S
In754 O766 2.326 . S
O755 In754 2.294 . S
O755 C764 1.240 . S
O756 In754 2.326 . S
O756 C764 1.252 . S
C757 O760 1.252 . S
C757 O761 1.260 . S
C758 O765 1.240 . S
C758 O766 1.252 . S
C759 O762 1.252 . S
C759 O763 1.260 . S
O760 In754 2.266 . S
O760 C757 1.252 . S
O761 In754 2.326 . S
O761 C757 1.260 . S
O762 In754 2.266 . S
O762 C759 1.252 . S
O763 In754 2.326 . S
O763 C759 1.260 . S
C764 O755 1.240 . S
C764 O756 1.252 . S
O765 In754 2.294 . S
O765 C758 1.240 . S
O766 In754 2.326 . S
O766 C758 1.252 . S
In767 O768 2.294 . S
In767 O769 2.326 . S
In767 O773 2.266 . S
In767 O774 2.326 . S
In767 O775 2.266 . S
In767 O776 2.326 . S
In767 O778 2.294 . S
In767 O779 2.326 . S
O768 In767 2.294 . S
O768 C777 1.240 . S
O769 In767 2.326 . S
O769 C777 1.252 . S
C770 O773 1.252 . S
C770 O774 1.260 . S
C771 O778 1.240 . S
C771 O779 1.252 . S
C772 O775 1.252 . S
C772 O776 1.260 . S
O773 In767 2.266 . S
O773 C770 1.252 . S
O774 In767 2.326 . S
O774 C770 1.260 . S
O775 In767 2.266 . S
O775 C772 1.252 . S
O776 In767 2.326 . S
O776 C772 1.260 . S
C777 O768 1.240 . S
C777 O769 1.252 . S
O778 In767 2.294 . S
O778 C771 1.240 . S
O779 In767 2.326 . S
O779 C771 1.252 . S
In780 O781 2.294 . S
In780 O782 2.326 . S
In780 O786 2.266 . S
In780 O787 2.326 . S
In780 O788 2.266 . S
In780 O789 2.326 . S
In780 O791 2.294 . S
In780 O792 2.326 . S
O781 In780 2.294 . S
O781 C790 1.240 . S
O782 In780 2.326 . S
O782 C790 1.252 . S
C783 O786 1.252 . S
C783 O787 1.260 . S
C784 O791 1.240 . S
C784 O792 1.252 . S
C785 O788 1.252 . S
C785 O789 1.260 . S
O786 In780 2.266 . S
O786 C783 1.252 . S
O787 In780 2.326 . S
O787 C783 1.260 . S
O788 In780 2.266 . S
O788 C785 1.252 . S
O789 In780 2.326 . S
O789 C785 1.260 . S
C790 O781 1.240 . S
C790 O782 1.252 . S
O791 In780 2.294 . S
O791 C784 1.240 . S
O792 In780 2.326 . S
O792 C784 1.252 . S
In793 O794 2.294 . S
In793 O795 2.326 . S
In793 O799 2.266 . S
In793 O800 2.326 . S
In793 O801 2.266 . S
In793 O802 2.326 . S
In793 O804 2.294 . S
In793 O805 2.326 . S
O794 In793 2.294 . S
O794 C803 1.240 . S
O795 In793 2.326 . S
O795 C803 1.252 . S
C796 O799 1.252 . S
C796 O800 1.260 . S
C797 O804 1.240 . S
C797 O805 1.252 . S
C798 O801 1.252 . S
C798 O802 1.260 . S
O799 In793 2.266 . S
O799 C796 1.252 . S
O800 In793 2.326 . S
O800 C796 1.260 . S
O801 In793 2.266 . S
O801 C798 1.252 . S
O802 In793 2.326 . S
O802 C798 1.260 . S
C803 O794 1.240 . S
C803 O795 1.252 . S
O804 In793 2.294 . S
O804 C797 1.240 . S
O805 In793 2.326 . S
O805 C797 1.252 . S
In806 O807 2.294 . S
In806 O808 2.326 . S
In806 O812 2.266 . S
In806 O813 2.326 . S
In806 O814 2.266 . S
In806 O815 2.326 . S
In806 O817 2.294 . S
In806 O818 2.326 . S
O807 In806 2.294 . S
O807 C816 1.240 . S
O808 In806 2.326 . S
O808 C816 1.252 . S
C809 O812 1.252 . S
C809 O813 1.260 . S
C810 O817 1.240 . S
C810 O818 1.252 . S
C811 O814 1.252 . S
C811 O815 1.260 . S
O812 In806 2.266 . S
O812 C809 1.252 . S
O813 In806 2.326 . S
O813 C809 1.260 . S
O814 In806 2.266 . S
O814 C811 1.252 . S
O815 In806 2.326 . S
O815 C811 1.260 . S
C816 O807 1.240 . S
C816 O808 1.252 . S
O817 In806 2.294 . S
O817 C810 1.240 . S
O818 In806 2.326 . S
O818 C810 1.252 . S
In819 O820 2.294 . S
In819 O821 2.326 . S
In819 O825 2.266 . S
In819 O826 2.326 . S
In819 O827 2.266 . S
In819 O828 2.326 . S
In819 O830 2.294 . S
In819 O831 2.326 . S
O820 In819 2.294 . S
O820 C829 1.240 . S
O821 In819 2.326 . S
O821 C829 1.252 . S
C822 O825 1.252 . S
C822 O826 1.260 . S
C823 O830 1.240 . S
C823 O831 1.252 . S
C824 O827 1.252 . S
C824 O828 1.260 . S
O825 In819 2.266 . S
O825 C822 1.252 . S
O826 In819 2.326 . S
O826 C822 1.260 . S
O827 In819 2.266 . S
O827 C824 1.252 . S
O828 In819 2.326 . S
O828 C824 1.260 . S
C829 O820 1.240 . S
C829 O821 1.252 . S
O830 In819 2.294 . S
O830 C823 1.240 . S
O831 In819 2.326 . S
O831 C823 1.252 . S
In832 O833 2.294 . S
In832 O834 2.326 . S
In832 O838 2.266 . S
In832 O839 2.326 . S
In832 O840 2.266 . S
In832 O841 2.326 . S
In832 O843 2.294 . S
In832 O844 2.326 . S
O833 In832 2.294 . S
O833 C842 1.240 . S
O834 In832 2.326 . S
O834 C842 1.252 . S
C835 O838 1.252 . S
C835 O839 1.260 . S
C836 O843 1.240 . S
C836 O844 1.252 . S
C837 O840 1.252 . S
C837 O841 1.260 . S
O838 In832 2.266 . S
O838 C835 1.252 . S
O839 In832 2.326 . S
O839 C835 1.260 . S
O840 In832 2.266 . S
O840 C837 1.252 . S
O841 In832 2.326 . S
O841 C837 1.260 . S
C842 O833 1.240 . S
C842 O834 1.252 . S
O843 In832 2.294 . S
O843 C836 1.240 . S
O844 In832 2.326 . S
O844 C836 1.252 . S
In845 O846 2.294 . S
In845 O847 2.326 . S
In845 O851 2.266 . S
In845 O852 2.326 . S
In845 O853 2.266 . S
In845 O854 2.326 . S
In845 O856 2.294 . S
In845 O857 2.326 . S
O846 In845 2.294 . S
O846 C855 1.240 . S
O847 In845 2.326 . S
O847 C855 1.252 . S
C848 O851 1.252 . S
C848 O852 1.260 . S
C849 O856 1.240 . S
C849 O857 1.252 . S
C850 O853 1.252 . S
C850 O854 1.260 . S
O851 In845 2.266 . S
O851 C848 1.252 . S
O852 In845 2.326 . S
O852 C848 1.260 . S
O853 In845 2.266 . S
O853 C850 1.252 . S
O854 In845 2.326 . S
O854 C850 1.260 . S
C855 O846 1.240 . S
C855 O847 1.252 . S
O856 In845 2.294 . S
O856 C849 1.240 . S
O857 In845 2.326 . S
O857 C849 1.252 . S
In858 O859 2.294 . S
In858 O860 2.326 . S
In858 O864 2.266 . S
In858 O865 2.326 . S
In858 O866 2.266 . S
In858 O867 2.326 . S
In858 O869 2.294 . S
In858 O870 2.326 . S
O859 In858 2.294 . S
O859 C868 1.240 . S
O860 In858 2.326 . S
O860 C868 1.252 . S
C861 O864 1.252 . S
C861 O865 1.260 . S
C862 O869 1.240 . S
C862 O870 1.252 . S
C863 O866 1.252 . S
C863 O867 1.260 . S
O864 In858 2.266 . S
O864 C861 1.252 . S
O865 In858 2.326 . S
O865 C861 1.260 . S
O866 In858 2.266 . S
O866 C863 1.252 . S
O867 In858 2.326 . S
O867 C863 1.260 . S
C868 O859 1.240 . S
C868 O860 1.252 . S
O869 In858 2.294 . S
O869 C862 1.240 . S
O870 In858 2.326 . S
O870 C862 1.252 . S
In871 O872 2.294 . S
In871 O873 2.326 1_556 S
In871 O877 2.266 . S
In871 O878 2.326 . S
In871 O879 2.266 . S
In871 O880 2.326 . S
In871 O882 2.294 . S
In871 O883 2.326 . S
O872 In871 2.294 . S
O872 C881 1.240 1_556 S
O873 In871 2.326 1_554 S
O873 C881 1.252 . S
C874 O877 1.252 . S
C874 O878 1.260 . S
C875 O882 1.240 . S
C875 O883 1.252 . S
C876 O879 1.252 . S
C876 O880 1.260 . S
O877 In871 2.266 . S
O877 C874 1.252 . S
O878 In871 2.326 . S
O878 C874 1.260 . S
O879 In871 2.266 . S
O879 C876 1.252 . S
O880 In871 2.326 . S
O880 C876 1.260 . S
C881 O872 1.240 1_554 S
C881 O873 1.252 . S
O882 In871 2.294 . S
O882 C875 1.240 . S
O883 In871 2.326 . S
O883 C875 1.252 . S
In884 O885 2.294 . S
In884 O886 2.326 . S
In884 O890 2.266 . S
In884 O891 2.326 . S
In884 O892 2.266 . S
In884 O893 2.326 . S
In884 O895 2.294 . S
In884 O896 2.326 . S
O885 In884 2.294 . S
O885 C894 1.240 . S
O886 In884 2.326 . S
O886 C894 1.252 . S
C887 O890 1.252 . S
C887 O891 1.260 . S
C888 O895 1.240 . S
C888 O896 1.252 . S
C889 O892 1.252 . S
C889 O893 1.260 . S
O890 In884 2.266 . S
O890 C887 1.252 . S
O891 In884 2.326 . S
O891 C887 1.260 . S
O892 In884 2.266 . S
O892 C889 1.252 . S
O893 In884 2.326 . S
O893 C889 1.260 . S
C894 O885 1.240 . S
C894 O886 1.252 . S
O895 In884 2.294 . S
O895 C888 1.240 . S
O896 In884 2.326 . S
O896 C888 1.252 . S
In897 O898 2.294 . S
In897 O899 2.326 1_554 S
In897 O903 2.266 . S
In897 O904 2.326 . S
In897 O905 2.266 . S
In897 O906 2.326 . S
In897 O908 2.294 . S
In897 O909 2.326 . S
O898 In897 2.294 . S
O898 C907 1.240 1_554 S
O899 In897 2.326 1_556 S
O899 C907 1.252 . S
C900 O903 1.252 . S
C900 O904 1.260 . S
C901 O908 1.240 . S
C901 O909 1.252 . S
C902 O905 1.252 . S
C902 O906 1.260 . S
O903 In897 2.266 . S
O903 C900 1.252 . S
O904 In897 2.326 . S
O904 C900 1.260 . S
O905 In897 2.266 . S
O905 C902 1.252 . S
O906 In897 2.326 . S
O906 C902 1.260 . S
C907 O898 1.240 1_556 S
C907 O899 1.252 . S
O908 In897 2.294 . S
O908 C901 1.240 . S
O909 In897 2.326 . S
O909 C901 1.252 . S
In910 O911 2.294 . S
In910 O912 2.326 . S
In910 O916 2.266 . S
In910 O917 2.326 . S
In910 O918 2.266 . S
In910 O919 2.326 . S
In910 O921 2.294 . S
In910 O922 2.326 . S
O911 In910 2.294 . S
O911 C920 1.240 . S
O912 In910 2.326 . S
O912 C920 1.252 . S
C913 O916 1.252 . S
C913 O917 1.260 . S
C914 O921 1.240 . S
C914 O922 1.252 . S
C915 O918 1.252 . S
C915 O919 1.260 . S
O916 In910 2.266 . S
O916 C913 1.252 . S
O917 In910 2.326 . S
O917 C913 1.260 . S
O918 In910 2.266 . S
O918 C915 1.252 . S
O919 In910 2.326 . S
O919 C915 1.260 . S
C920 O911 1.240 . S
C920 O912 1.252 . S
O921 In910 2.294 . S
O921 C914 1.240 . S
O922 In910 2.326 . S
O922 C914 1.252 . S
In923 O924 2.294 . S
In923 O925 2.326 . S
In923 O929 2.266 . S
In923 O930 2.326 . S
In923 O931 2.266 . S
In923 O932 2.326 . S
In923 O934 2.294 . S
In923 O935 2.326 . S
O924 In923 2.294 . S
O924 C933 1.240 . S
O925 In923 2.326 . S
O925 C933 1.252 . S
C926 O929 1.252 . S
C926 O930 1.260 . S
C927 O934 1.240 . S
C927 O935 1.252 . S
C928 O931 1.252 . S
C928 O932 1.260 . S
O929 In923 2.266 . S
O929 C926 1.252 . S
O930 In923 2.326 . S
O930 C926 1.260 . S
O931 In923 2.266 . S
O931 C928 1.252 . S
O932 In923 2.326 . S
O932 C928 1.260 . S
C933 O924 1.240 . S
C933 O925 1.252 . S
O934 In923 2.294 . S
O934 C927 1.240 . S
O935 In923 2.326 . S
O935 C927 1.252 . S
In936 O937 2.294 . S
In936 O938 2.326 . S
In936 O942 2.266 . S
In936 O943 2.326 . S
In936 O944 2.266 . S
In936 O945 2.326 . S
In936 O947 2.294 . S
In936 O948 2.326 . S
O937 In936 2.294 . S
O937 C946 1.240 . S
O938 In936 2.326 . S
O938 C946 1.252 . S
C939 O942 1.252 . S
C939 O943 1.260 . S
C940 O947 1.240 . S
C940 O948 1.252 . S
C941 O944 1.252 . S
C941 O945 1.260 . S
O942 In936 2.266 . S
O942 C939 1.252 . S
O943 In936 2.326 . S
O943 C939 1.260 . S
O944 In936 2.266 . S
O944 C941 1.252 . S
O945 In936 2.326 . S
O945 C941 1.260 . S
C946 O937 1.240 . S
C946 O938 1.252 . S
O947 In936 2.294 . S
O947 C940 1.240 . S
O948 In936 2.326 . S
O948 C940 1.252 . S
In949 O950 2.294 . S
In949 O951 2.326 . S
In949 O955 2.266 . S
In949 O956 2.326 . S
In949 O957 2.266 . S
In949 O958 2.326 . S
In949 O960 2.294 . S
In949 O961 2.326 . S
O950 In949 2.294 . S
O950 C959 1.240 . S
O951 In949 2.326 . S
O951 C959 1.252 . S
C952 O955 1.252 . S
C952 O956 1.260 . S
C953 O960 1.240 . S
C953 O961 1.252 . S
C954 O957 1.252 . S
C954 O958 1.260 . S
O955 In949 2.266 . S
O955 C952 1.252 . S
O956 In949 2.326 . S
O956 C952 1.260 . S
O957 In949 2.266 . S
O957 C954 1.252 . S
O958 In949 2.326 . S
O958 C954 1.260 . S
C959 O950 1.240 . S
C959 O951 1.252 . S
O960 In949 2.294 . S
O960 C953 1.240 . S
O961 In949 2.326 . S
O961 C953 1.252 . S
In962 O963 2.294 . S
In962 O964 2.326 . S
In962 O968 2.266 . S
In962 O969 2.326 . S
In962 O970 2.266 . S
In962 O971 2.326 . S
In962 O973 2.294 . S
In962 O974 2.326 1_455 S
O963 In962 2.294 . S
O963 C972 1.240 . S
O964 In962 2.326 . S
O964 C972 1.252 . S
C965 O968 1.252 . S
C965 O969 1.260 . S
C966 O973 1.240 1_655 S
C966 O974 1.252 . S
C967 O970 1.252 . S
C967 O971 1.260 . S
O968 In962 2.266 . S
O968 C965 1.252 . S
O969 In962 2.326 . S
O969 C965 1.260 . S
O970 In962 2.266 . S
O970 C967 1.252 . S
O971 In962 2.326 . S
O971 C967 1.260 . S
C972 O963 1.240 . S
C972 O964 1.252 . S
O973 In962 2.294 . S
O973 C966 1.240 1_455 S
O974 In962 2.326 1_655 S
O974 C966 1.252 . S
In975 O976 2.294 . S
In975 O977 2.326 . S
In975 O981 2.266 . S
In975 O982 2.326 . S
In975 O983 2.266 . S
In975 O984 2.326 . S
In975 O986 2.294 . S
In975 O987 2.326 . S
O976 In975 2.294 . S
O976 C985 1.240 . S
O977 In975 2.326 . S
O977 C985 1.252 . S
C978 O981 1.252 . S
C978 O982 1.260 . S
C979 O986 1.240 . S
C979 O987 1.252 . S
C980 O983 1.252 . S
C980 O984 1.260 . S
O981 In975 2.266 . S
O981 C978 1.252 . S
O982 In975 2.326 . S
O982 C978 1.260 . S
O983 In975 2.266 . S
O983 C980 1.252 . S
O984 In975 2.326 . S
O984 C980 1.260 . S
C985 O976 1.240 . S
C985 O977 1.252 . S
O986 In975 2.294 . S
O986 C979 1.240 . S
O987 In975 2.326 . S
O987 C979 1.252 . S
In988 O989 2.294 . S
In988 O990 2.326 . S
In988 O994 2.266 . S
In988 O995 2.326 . S
In988 O996 2.266 . S
In988 O997 2.326 . S
In988 O999 2.294 . S
In988 O1000 2.326 . S
O989 In988 2.294 . S
O989 C998 1.240 . S
O990 In988 2.326 . S
O990 C998 1.252 . S
C991 O994 1.252 . S
C991 O995 1.260 . S
C992 O999 1.240 . S
C992 O1000 1.252 . S
C993 O996 1.252 . S
C993 O997 1.260 . S
O994 In988 2.266 . S
O994 C991 1.252 . S
O995 In988 2.326 . S
O995 C991 1.260 . S
O996 In988 2.266 . S
O996 C993 1.252 . S
O997 In988 2.326 . S
O997 C993 1.260 . S
C998 O989 1.240 . S
C998 O990 1.252 . S
O999 In988 2.294 . S
O999 C992 1.240 . S
O1000 In988 2.326 . S
O1000 C992 1.252 . S
In1001 O1002 2.294 . S
In1001 O1003 2.326 . S
In1001 O1007 2.266 . S
In1001 O1008 2.326 . S
In1001 O1009 2.266 . S
In1001 O1010 2.326 . S
In1001 O1012 2.294 . S
In1001 O1013 2.326 . S
O1002 In1001 2.294 . S
O1002 C1011 1.240 . S
O1003 In1001 2.326 . S
O1003 C1011 1.252 . S
C1004 O1007 1.252 . S
C1004 O1008 1.260 . S
C1005 O1012 1.240 . S
C1005 O1013 1.252 . S
C1006 O1009 1.252 . S
C1006 O1010 1.260 . S
O1007 In1001 2.266 . S
O1007 C1004 1.252 . S
O1008 In1001 2.326 . S
O1008 C1004 1.260 . S
O1009 In1001 2.266 . S
O1009 C1006 1.252 . S
O1010 In1001 2.326 . S
O1010 C1006 1.260 . S
C1011 O1002 1.240 . S
C1011 O1003 1.252 . S
O1012 In1001 2.294 . S
O1012 C1005 1.240 . S
O1013 In1001 2.326 . S
O1013 C1005 1.252 . S
In1014 O1015 2.294 . S
In1014 O1016 2.326 . S
In1014 O1020 2.266 . S
In1014 O1021 2.326 . S
In1014 O1022 2.266 . S
In1014 O1023 2.326 . S
In1014 O1025 2.294 . S
In1014 O1026 2.326 1_455 S
O1015 In1014 2.294 . S
O1015 C1024 1.240 . S
O1016 In1014 2.326 . S
O1016 C1024 1.252 . S
C1017 O1020 1.252 . S
C1017 O1021 1.260 . S
C1018 O1025 1.240 1_655 S
C1018 O1026 1.252 . S
C1019 O1022 1.252 . S
C1019 O1023 1.260 . S
O1020 In1014 2.266 . S
O1020 C1017 1.252 . S
O1021 In1014 2.326 . S
O1021 C1017 1.260 . S
O1022 In1014 2.266 . S
O1022 C1019 1.252 . S
O1023 In1014 2.326 . S
O1023 C1019 1.260 . S
C1024 O1015 1.240 . S
C1024 O1016 1.252 . S
O1025 In1014 2.294 . S
O1025 C1018 1.240 1_455 S
O1026 In1014 2.326 1_655 S
O1026 C1018 1.252 . S
In1027 O1028 2.294 . S
In1027 O1029 2.326 . S
In1027 O1033 2.266 . S
In1027 O1034 2.326 . S
In1027 O1035 2.266 . S
In1027 O1036 2.326 . S
In1027 O1038 2.294 . S
In1027 O1039 2.326 . S
O1028 In1027 2.294 . S
O1028 C1037 1.240 . S
O1029 In1027 2.326 . S
O1029 C1037 1.252 . S
C1030 O1033 1.252 . S
C1030 O1034 1.260 . S
C1031 O1038 1.240 . S
C1031 O1039 1.252 . S
C1032 O1035 1.252 . S
C1032 O1036 1.260 . S
O1033 In1027 2.266 . S
O1033 C1030 1.252 . S
O1034 In1027 2.326 . S
O1034 C1030 1.260 . S
O1035 In1027 2.266 . S
O1035 C1032 1.252 . S
O1036 In1027 2.326 . S
O1036 C1032 1.260 . S
C1037 O1028 1.240 . S
C1037 O1029 1.252 . S
O1038 In1027 2.294 . S
O1038 C1031 1.240 . S
O1039 In1027 2.326 . S
O1039 C1031 1.252 . S
In1040 O1041 2.294 . S
In1040 O1042 2.326 . S
In1040 O1046 2.266 . S
In1040 O1047 2.326 . S
In1040 O1048 2.266 . S
In1040 O1049 2.326 . S
In1040 O1051 2.294 . S
In1040 O1052 2.326 . S
O1041 In1040 2.294 . S
O1041 C1050 1.240 . S
O1042 In1040 2.326 . S
O1042 C1050 1.252 . S
C1043 O1046 1.252 . S
C1043 O1047 1.260 . S
C1044 O1051 1.240 . S
C1044 O1052 1.252 . S
C1045 O1048 1.252 . S
C1045 O1049 1.260 . S
O1046 In1040 2.266 . S
O1046 C1043 1.252 . S
O1047 In1040 2.326 . S
O1047 C1043 1.260 . S
O1048 In1040 2.266 . S
O1048 C1045 1.252 . S
O1049 In1040 2.326 . S
O1049 C1045 1.260 . S
C1050 O1041 1.240 . S
C1050 O1042 1.252 . S
O1051 In1040 2.294 . S
O1051 C1044 1.240 . S
O1052 In1040 2.326 . S
O1052 C1044 1.252 . S
In1053 O1054 2.294 . S
In1053 O1055 2.326 . S
In1053 O1059 2.266 . S
In1053 O1060 2.326 . S
In1053 O1061 2.266 . S
In1053 O1062 2.326 . S
In1053 O1064 2.294 . S
In1053 O1065 2.326 . S
O1054 In1053 2.294 . S
O1054 C1063 1.240 . S
O1055 In1053 2.326 . S
O1055 C1063 1.252 . S
C1056 O1059 1.252 . S
C1056 O1060 1.260 . S
C1057 O1064 1.240 . S
C1057 O1065 1.252 . S
C1058 O1061 1.252 . S
C1058 O1062 1.260 . S
O1059 In1053 2.266 . S
O1059 C1056 1.252 . S
O1060 In1053 2.326 . S
O1060 C1056 1.260 . S
O1061 In1053 2.266 . S
O1061 C1058 1.252 . S
O1062 In1053 2.326 . S
O1062 C1058 1.260 . S
C1063 O1054 1.240 . S
C1063 O1055 1.252 . S
O1064 In1053 2.294 . S
O1064 C1057 1.240 . S
O1065 In1053 2.326 . S
O1065 C1057 1.252 . S
In1066 O1067 2.294 . S
In1066 O1068 2.326 . S
In1066 O1072 2.266 . S
In1066 O1073 2.326 . S
In1066 O1074 2.266 . S
In1066 O1075 2.326 . S
In1066 O1077 2.294 . S
In1066 O1078 2.326 . S
O1067 In1066 2.294 . S
O1067 C1076 1.240 . S
O1068 In1066 2.326 . S
O1068 C1076 1.252 . S
C1069 O1072 1.252 . S
C1069 O1073 1.260 . S
C1070 O1077 1.240 . S
C1070 O1078 1.252 . S
C1071 O1074 1.252 . S
C1071 O1075 1.260 . S
O1072 In1066 2.266 . S
O1072 C1069 1.252 . S
O1073 In1066 2.326 . S
O1073 C1069 1.260 . S
O1074 In1066 2.266 . S
O1074 C1071 1.252 . S
O1075 In1066 2.326 . S
O1075 C1071 1.260 . S
C1076 O1067 1.240 . S
C1076 O1068 1.252 . S
O1077 In1066 2.294 . S
O1077 C1070 1.240 . S
O1078 In1066 2.326 . S
O1078 C1070 1.252 . S
In1079 O1080 2.294 . S
In1079 O1081 2.326 . S
In1079 O1085 2.266 . S
In1079 O1086 2.326 . S
In1079 O1087 2.266 . S
In1079 O1088 2.326 . S
In1079 O1090 2.294 . S
In1079 O1091 2.326 . S
O1080 In1079 2.294 . S
O1080 C1089 1.240 . S
O1081 In1079 2.326 . S
O1081 C1089 1.252 . S
C1082 O1085 1.252 . S
C1082 O1086 1.260 . S
C1083 O1090 1.240 . S
C1083 O1091 1.252 . S
C1084 O1087 1.252 . S
C1084 O1088 1.260 . S
O1085 In1079 2.266 . S
O1085 C1082 1.252 . S
O1086 In1079 2.326 . S
O1086 C1082 1.260 . S
O1087 In1079 2.266 . S
O1087 C1084 1.252 . S
O1088 In1079 2.326 . S
O1088 C1084 1.260 . S
C1089 O1080 1.240 . S
C1089 O1081 1.252 . S
O1090 In1079 2.294 . S
O1090 C1083 1.240 . S
O1091 In1079 2.326 . S
O1091 C1083 1.252 . S
In1092 O1093 2.294 . S
In1092 O1094 2.326 . S
In1092 O1098 2.266 . S
In1092 O1099 2.326 . S
In1092 O1100 2.266 . S
In1092 O1101 2.326 . S
In1092 O1103 2.294 . S
In1092 O1104 2.326 . S
O1093 In1092 2.294 . S
O1093 C1102 1.240 . S
O1094 In1092 2.326 . S
O1094 C1102 1.252 . S
C1095 O1098 1.252 . S
C1095 O1099 1.260 . S
C1096 O1103 1.240 . S
C1096 O1104 1.252 . S
C1097 O1100 1.252 . S
C1097 O1101 1.260 . S
O1098 In1092 2.266 . S
O1098 C1095 1.252 . S
O1099 In1092 2.326 . S
O1099 C1095 1.260 . S
O1100 In1092 2.266 . S
O1100 C1097 1.252 . S
O1101 In1092 2.326 . S
O1101 C1097 1.260 . S
C1102 O1093 1.240 . S
C1102 O1094 1.252 . S
O1103 In1092 2.294 . S
O1103 C1096 1.240 . S
O1104 In1092 2.326 . S
O1104 C1096 1.252 . S
In1105 O1106 2.294 . S
In1105 O1107 2.326 . S
In1105 O1111 2.266 . S
In1105 O1112 2.326 . S
In1105 O1113 2.266 . S
In1105 O1114 2.326 . S
In1105 O1116 2.294 . S
In1105 O1117 2.326 . S
O1106 In1105 2.294 . S
O1106 C1115 1.240 . S
O1107 In1105 2.326 . S
O1107 C1115 1.252 . S
C1108 O1111 1.252 . S
C1108 O1112 1.260 . S
C1109 O1116 1.240 . S
C1109 O1117 1.252 . S
C1110 O1113 1.252 . S
C1110 O1114 1.260 . S
O1111 In1105 2.266 . S
O1111 C1108 1.252 . S
O1112 In1105 2.326 . S
O1112 C1108 1.260 . S
O1113 In1105 2.266 . S
O1113 C1110 1.252 . S
O1114 In1105 2.326 . S
O1114 C1110 1.260 . S
C1115 O1106 1.240 . S
C1115 O1107 1.252 . S
O1116 In1105 2.294 . S
O1116 C1109 1.240 . S
O1117 In1105 2.326 . S
O1117 C1109 1.252 . S
In1118 O1119 2.294 . S
In1118 O1120 2.326 . S
In1118 O1124 2.266 . S
In1118 O1125 2.326 . S
In1118 O1126 2.266 . S
In1118 O1127 2.326 . S
In1118 O1129 2.294 . S
In1118 O1130 2.326 . S
O1119 In1118 2.294 . S
O1119 C1128 1.240 . S
O1120 In1118 2.326 . S
O1120 C1128 1.252 . S
C1121 O1124 1.252 . S
C1121 O1125 1.260 . S
C1122 O1129 1.240 . S
C1122 O1130 1.252 . S
C1123 O1126 1.252 . S
C1123 O1127 1.260 . S
O1124 In1118 2.266 . S
O1124 C1121 1.252 . S
O1125 In1118 2.326 . S
O1125 C1121 1.260 . S
O1126 In1118 2.266 . S
O1126 C1123 1.252 . S
O1127 In1118 2.326 . S
O1127 C1123 1.260 . S
C1128 O1119 1.240 . S
C1128 O1120 1.252 . S
O1129 In1118 2.294 . S
O1129 C1122 1.240 . S
O1130 In1118 2.326 . S
O1130 C1122 1.252 . S
In1131 O1132 2.294 . S
In1131 O1133 2.326 . S
In1131 O1137 2.266 . S
In1131 O1138 2.326 . S
In1131 O1139 2.266 . S
In1131 O1140 2.326 . S
In1131 O1142 2.294 . S
In1131 O1143 2.326 . S
O1132 In1131 2.294 . S
O1132 C1141 1.240 . S
O1133 In1131 2.326 . S
O1133 C1141 1.252 . S
C1134 O1137 1.252 . S
C1134 O1138 1.260 . S
C1135 O1142 1.240 . S
C1135 O1143 1.252 . S
C1136 O1139 1.252 . S
C1136 O1140 1.260 . S
O1137 In1131 2.266 . S
O1137 C1134 1.252 . S
O1138 In1131 2.326 . S
O1138 C1134 1.260 . S
O1139 In1131 2.266 . S
O1139 C1136 1.252 . S
O1140 In1131 2.326 . S
O1140 C1136 1.260 . S
C1141 O1132 1.240 . S
C1141 O1133 1.252 . S
O1142 In1131 2.294 . S
O1142 C1135 1.240 . S
O1143 In1131 2.326 . S
O1143 C1135 1.252 . S
In1144 O1145 2.294 . S
In1144 O1146 2.326 . S
In1144 O1150 2.266 . S
In1144 O1151 2.326 . S
In1144 O1152 2.266 . S
In1144 O1153 2.326 . S
In1144 O1155 2.294 . S
In1144 O1156 2.326 . S
O1145 In1144 2.294 . S
O1145 C1154 1.240 . S
O1146 In1144 2.326 . S
O1146 C1154 1.252 . S
C1147 O1150 1.252 . S
C1147 O1151 1.260 . S
C1148 O1155 1.240 . S
C1148 O1156 1.252 . S
C1149 O1152 1.252 . S
C1149 O1153 1.260 . S
O1150 In1144 2.266 . S
O1150 C1147 1.252 . S
O1151 In1144 2.326 . S
O1151 C1147 1.260 . S
O1152 In1144 2.266 . S
O1152 C1149 1.252 . S
O1153 In1144 2.326 . S
O1153 C1149 1.260 . S
C1154 O1145 1.240 . S
C1154 O1146 1.252 . S
O1155 In1144 2.294 . S
O1155 C1148 1.240 . S
O1156 In1144 2.326 . S
O1156 C1148 1.252 . S
In1157 O1158 2.294 . S
In1157 O1159 2.326 . S
In1157 O1163 2.266 . S
In1157 O1164 2.326 . S
In1157 O1165 2.266 . S
In1157 O1166 2.326 . S
In1157 O1168 2.294 . S
In1157 O1169 2.326 . S
O1158 In1157 2.294 . S
O1158 C1167 1.240 . S
O1159 In1157 2.326 . S
O1159 C1167 1.252 . S
C1160 O1163 1.252 . S
C1160 O1164 1.260 . S
C1161 O1168 1.240 . S
C1161 O1169 1.252 . S
C1162 O1165 1.252 . S
C1162 O1166 1.260 . S
O1163 In1157 2.266 . S
O1163 C1160 1.252 . S
O1164 In1157 2.326 . S
O1164 C1160 1.260 . S
O1165 In1157 2.266 . S
O1165 C1162 1.252 . S
O1166 In1157 2.326 . S
O1166 C1162 1.260 . S
C1167 O1158 1.240 . S
C1167 O1159 1.252 . S
O1168 In1157 2.294 . S
O1168 C1161 1.240 . S
O1169 In1157 2.326 . S
O1169 C1161 1.252 . S
In1170 O1171 2.294 . S
In1170 O1172 2.326 . S
In1170 O1176 2.266 . S
In1170 O1177 2.326 . S
In1170 O1178 2.266 . S
In1170 O1179 2.326 . S
In1170 O1181 2.294 . S
In1170 O1182 2.326 . S
O1171 In1170 2.294 . S
O1171 C1180 1.240 . S
O1172 In1170 2.326 . S
O1172 C1180 1.252 . S
C1173 O1176 1.252 . S
C1173 O1177 1.260 . S
C1174 O1181 1.240 . S
C1174 O1182 1.252 . S
C1175 O1178 1.252 . S
C1175 O1179 1.260 . S
O1176 In1170 2.266 . S
O1176 C1173 1.252 . S
O1177 In1170 2.326 . S
O1177 C1173 1.260 . S
O1178 In1170 2.266 . S
O1178 C1175 1.252 . S
O1179 In1170 2.326 . S
O1179 C1175 1.260 . S
C1180 O1171 1.240 . S
C1180 O1172 1.252 . S
O1181 In1170 2.294 . S
O1181 C1174 1.240 . S
O1182 In1170 2.326 . S
O1182 C1174 1.252 . S
In1183 O1184 2.294 . S
In1183 O1185 2.326 . S
In1183 O1189 2.266 . S
In1183 O1190 2.326 . S
In1183 O1191 2.266 . S
In1183 O1192 2.326 . S
In1183 O1194 2.294 . S
In1183 O1195 2.326 1_554 S
O1184 In1183 2.294 . S
O1184 C1193 1.240 . S
O1185 In1183 2.326 . S
O1185 C1193 1.252 . S
C1186 O1189 1.252 . S
C1186 O1190 1.260 . S
C1187 O1194 1.240 1_556 S
C1187 O1195 1.252 . S
C1188 O1191 1.252 . S
C1188 O1192 1.260 . S
O1189 In1183 2.266 . S
O1189 C1186 1.252 . S
O1190 In1183 2.326 . S
O1190 C1186 1.260 . S
O1191 In1183 2.266 . S
O1191 C1188 1.252 . S
O1192 In1183 2.326 . S
O1192 C1188 1.260 . S
C1193 O1184 1.240 . S
C1193 O1185 1.252 . S
O1194 In1183 2.294 . S
O1194 C1187 1.240 1_554 S
O1195 In1183 2.326 1_556 S
O1195 C1187 1.252 . S
In1196 O1197 2.294 . S
In1196 O1198 2.326 . S
In1196 O1202 2.266 . S
In1196 O1203 2.326 . S
In1196 O1204 2.266 . S
In1196 O1205 2.326 . S
In1196 O1207 2.294 . S
In1196 O1208 2.326 . S
O1197 In1196 2.294 . S
O1197 C1206 1.240 . S
O1198 In1196 2.326 . S
O1198 C1206 1.252 . S
C1199 O1202 1.252 . S
C1199 O1203 1.260 . S
C1200 O1207 1.240 . S
C1200 O1208 1.252 . S
C1201 O1204 1.252 . S
C1201 O1205 1.260 . S
O1202 In1196 2.266 . S
O1202 C1199 1.252 . S
O1203 In1196 2.326 . S
O1203 C1199 1.260 . S
O1204 In1196 2.266 . S
O1204 C1201 1.252 . S
O1205 In1196 2.326 . S
O1205 C1201 1.260 . S
C1206 O1197 1.240 . S
C1206 O1198 1.252 . S
O1207 In1196 2.294 . S
O1207 C1200 1.240 . S
O1208 In1196 2.326 . S
O1208 C1200 1.252 . S
In1209 O1210 2.294 . S
In1209 O1211 2.326 1_556 S
In1209 O1215 2.266 . S
In1209 O1216 2.326 . S
In1209 O1217 2.266 . S
In1209 O1218 2.326 . S
In1209 O1220 2.294 . S
In1209 O1221 2.326 . S
O1210 In1209 2.294 . S
O1210 C1219 1.240 1_556 S
O1211 In1209 2.326 1_554 S
O1211 C1219 1.252 . S
C1212 O1215 1.252 . S
C1212 O1216 1.260 . S
C1213 O1220 1.240 . S
C1213 O1221 1.252 . S
C1214 O1217 1.252 . S
C1214 O1218 1.260 . S
O1215 In1209 2.266 . S
O1215 C1212 1.252 . S
O1216 In1209 2.326 . S
O1216 C1212 1.260 . S
O1217 In1209 2.266 . S
O1217 C1214 1.252 . S
O1218 In1209 2.326 . S
O1218 C1214 1.260 . S
C1219 O1210 1.240 1_554 S
C1219 O1211 1.252 . S
O1220 In1209 2.294 . S
O1220 C1213 1.240 . S
O1221 In1209 2.326 . S
O1221 C1213 1.252 . S
In1222 O1223 2.294 . S
In1222 O1224 2.326 . S
In1222 O1228 2.266 . S
In1222 O1229 2.326 . S
In1222 O1230 2.266 . S
In1222 O1231 2.326 . S
In1222 O1233 2.294 . S
In1222 O1234 2.326 . S
O1223 In1222 2.294 . S
O1223 C1232 1.240 . S
O1224 In1222 2.326 . S
O1224 C1232 1.252 . S
C1225 O1228 1.252 . S
C1225 O1229 1.260 . S
C1226 O1233 1.240 . S
C1226 O1234 1.252 . S
C1227 O1230 1.252 . S
C1227 O1231 1.260 . S
O1228 In1222 2.266 . S
O1228 C1225 1.252 . S
O1229 In1222 2.326 . S
O1229 C1225 1.260 . S
O1230 In1222 2.266 . S
O1230 C1227 1.252 . S
O1231 In1222 2.326 . S
O1231 C1227 1.260 . S
C1232 O1223 1.240 . S
C1232 O1224 1.252 . S
O1233 In1222 2.294 . S
O1233 C1226 1.240 . S
O1234 In1222 2.326 . S
O1234 C1226 1.252 . S
In1235 O1236 2.294 . S
In1235 O1237 2.326 . S
In1235 O1241 2.266 . S
In1235 O1242 2.326 . S
In1235 O1243 2.266 . S
In1235 O1244 2.326 . S
In1235 O1246 2.294 . S
In1235 O1247 2.326 . S
O1236 In1235 2.294 . S
O1236 C1245 1.240 . S
O1237 In1235 2.326 . S
O1237 C1245 1.252 . S
C1238 O1241 1.252 . S
C1238 O1242 1.260 . S
C1239 O1246 1.240 . S
C1239 O1247 1.252 . S
C1240 O1243 1.252 . S
C1240 O1244 1.260 . S
O1241 In1235 2.266 . S
O1241 C1238 1.252 . S
O1242 In1235 2.326 . S
O1242 C1238 1.260 . S
O1243 In1235 2.266 . S
O1243 C1240 1.252 . S
O1244 In1235 2.326 . S
O1244 C1240 1.260 . S
C1245 O1236 1.240 . S
C1245 O1237 1.252 . S
O1246 In1235 2.294 . S
O1246 C1239 1.240 . S
O1247 In1235 2.326 . S
O1247 C1239 1.252 . S
C1248 C1249 1.369 . S
C1248 C1250 1.419 . S
C1248 H1252 0.930 . S
C1249 C1248 1.369 . S
C1249 C1258 1.429 . S
C1250 C1248 1.419 . S
C1250 C1251 1.363 . S
C1250 H1253 0.929 . S
C1251 C1250 1.363 . S
C1251 C1257 1.428 . S
H1252 C1248 0.930 . S
H1253 C1250 0.929 . S
S1254 N1255 1.613 . S
S1254 N1256 1.610 . S
N1255 S1254 1.613 . S
N1255 C1258 1.350 . S
N1256 S1254 1.610 . S
N1256 C1257 1.351 . S
C1257 C1251 1.428 . S
C1257 N1256 1.351 . S
C1257 C1258 1.434 . S
C1258 C1249 1.429 . S
C1258 N1255 1.350 . S
C1258 C1257 1.434 . S
C1259 C1260 1.369 . S
C1259 C1261 1.419 . S
C1259 H1263 0.930 . S
C1260 C1259 1.369 . S
C1260 C1269 1.429 . S
C1261 C1259 1.419 . S
C1261 C1262 1.363 . S
C1261 H1264 0.929 . S
C1262 C1261 1.363 . S
C1262 C1268 1.428 . S
H1263 C1259 0.930 . S
H1264 C1261 0.929 . S
S1265 N1266 1.613 . S
S1265 N1267 1.610 . S
N1266 S1265 1.613 . S
N1266 C1269 1.350 . S
N1267 S1265 1.610 . S
N1267 C1268 1.351 . S
C1268 C1262 1.428 . S
C1268 N1267 1.351 . S
C1268 C1269 1.434 . S
C1269 C1260 1.429 . S
C1269 N1266 1.350 . S
C1269 C1268 1.434 . S
C1270 C1271 1.369 . S
C1270 C1272 1.419 . S
C1270 H1274 0.930 . S
C1271 C1270 1.369 . S
C1271 C1280 1.429 . S
C1272 C1270 1.419 . S
C1272 C1273 1.363 . S
C1272 H1275 0.929 . S
C1273 C1272 1.363 . S
C1273 C1279 1.428 . S
H1274 C1270 0.930 . S
H1275 C1272 0.929 . S
S1276 N1277 1.613 . S
S1276 N1278 1.610 . S
N1277 S1276 1.613 . S
N1277 C1280 1.350 . S
N1278 S1276 1.610 . S
N1278 C1279 1.351 . S
C1279 C1273 1.428 . S
C1279 N1278 1.351 . S
C1279 C1280 1.434 . S
C1280 C1271 1.429 . S
C1280 N1277 1.350 . S
C1280 C1279 1.434 . S
C1281 C1282 1.369 . S
C1281 C1283 1.419 . S
C1281 H1285 0.930 . S
C1282 C1281 1.369 . S
C1282 C1291 1.429 . S
C1283 C1281 1.419 . S
C1283 C1284 1.363 . S
C1283 H1286 0.929 . S
C1284 C1283 1.363 . S
C1284 C1290 1.428 . S
H1285 C1281 0.930 . S
H1286 C1283 0.929 . S
S1287 N1288 1.613 . S
S1287 N1289 1.610 . S
N1288 S1287 1.613 . S
N1288 C1291 1.350 . S
N1289 S1287 1.610 . S
N1289 C1290 1.351 . S
C1290 C1284 1.428 . S
C1290 N1289 1.351 . S
C1290 C1291 1.434 . S
C1291 C1282 1.429 . S
C1291 N1288 1.350 . S
C1291 C1290 1.434 . S
C1292 C1293 1.369 . S
C1292 C1294 1.419 . S
C1292 H1296 0.930 . S
C1293 C1292 1.369 . S
C1293 C1302 1.429 . S
C1294 C1292 1.419 . S
C1294 C1295 1.363 . S
C1294 H1297 0.929 . S
C1295 C1294 1.363 . S
C1295 C1301 1.428 . S
H1296 C1292 0.930 . S
H1297 C1294 0.929 . S
S1298 N1299 1.613 . S
S1298 N1300 1.610 . S
N1299 S1298 1.613 . S
N1299 C1302 1.350 . S
N1300 S1298 1.610 . S
N1300 C1301 1.351 . S
C1301 C1295 1.428 . S
C1301 N1300 1.351 . S
C1301 C1302 1.434 . S
C1302 C1293 1.429 . S
C1302 N1299 1.350 . S
C1302 C1301 1.434 . S
C1303 C1304 1.369 . S
C1303 C1305 1.419 . S
C1303 H1307 0.930 . S
C1304 C1303 1.369 . S
C1304 C1313 1.429 . S
C1305 C1303 1.419 . S
C1305 C1306 1.363 . S
C1305 H1308 0.929 . S
C1306 C1305 1.363 . S
C1306 C1312 1.428 . S
H1307 C1303 0.930 . S
H1308 C1305 0.929 . S
S1309 N1310 1.613 . S
S1309 N1311 1.610 . S
N1310 S1309 1.613 . S
N1310 C1313 1.350 . S
N1311 S1309 1.610 . S
N1311 C1312 1.351 . S
C1312 C1306 1.428 . S
C1312 N1311 1.351 . S
C1312 C1313 1.434 . S
C1313 C1304 1.429 . S
C1313 N1310 1.350 . S
C1313 C1312 1.434 . S
C1314 C1315 1.369 . S
C1314 C1316 1.419 . S
C1314 H1318 0.930 . S
C1315 C1314 1.369 . S
C1315 C1324 1.429 . S
C1316 C1314 1.419 . S
C1316 C1317 1.363 . S
C1316 H1319 0.929 . S
C1317 C1316 1.363 . S
C1317 C1323 1.428 . S
H1318 C1314 0.930 . S
H1319 C1316 0.929 . S
S1320 N1321 1.613 . S
S1320 N1322 1.610 . S
N1321 S1320 1.613 . S
N1321 C1324 1.350 . S
N1322 S1320 1.610 . S
N1322 C1323 1.351 . S
C1323 C1317 1.428 . S
C1323 N1322 1.351 . S
C1323 C1324 1.434 . S
C1324 C1315 1.429 . S
C1324 N1321 1.350 . S
C1324 C1323 1.434 . S
C1325 C1326 1.369 . S
C1325 C1327 1.419 . S
C1325 H1329 0.930 . S
C1326 C1325 1.369 . S
C1326 C1335 1.429 . S
C1327 C1325 1.419 . S
C1327 C1328 1.363 . S
C1327 H1330 0.929 . S
C1328 C1327 1.363 . S
C1328 C1334 1.428 . S
H1329 C1325 0.930 . S
H1330 C1327 0.929 . S
S1331 N1332 1.613 . S
S1331 N1333 1.610 . S
N1332 S1331 1.613 . S
N1332 C1335 1.350 . S
N1333 S1331 1.610 . S
N1333 C1334 1.351 . S
C1334 C1328 1.428 . S
C1334 N1333 1.351 . S
C1334 C1335 1.434 . S
C1335 C1326 1.429 . S
C1335 N1332 1.350 . S
C1335 C1334 1.434 . S
C1336 C1337 1.369 . S
C1336 C1338 1.419 . S
C1336 H1340 0.930 . S
C1337 C1336 1.369 . S
C1337 C1346 1.429 . S
C1338 C1336 1.419 . S
C1338 C1339 1.363 . S
C1338 H1341 0.929 . S
C1339 C1338 1.363 . S
C1339 C1345 1.428 . S
H1340 C1336 0.930 . S
H1341 C1338 0.929 . S
S1342 N1343 1.613 . S
S1342 N1344 1.610 . S
N1343 S1342 1.613 . S
N1343 C1346 1.350 . S
N1344 S1342 1.610 . S
N1344 C1345 1.351 . S
C1345 C1339 1.428 . S
C1345 N1344 1.351 . S
C1345 C1346 1.434 . S
C1346 C1337 1.429 . S
C1346 N1343 1.350 . S
C1346 C1345 1.434 . S
C1347 C1348 1.369 . S
C1347 C1349 1.419 . S
C1347 H1351 0.930 . S
C1348 C1347 1.369 . S
C1348 C1357 1.429 . S
C1349 C1347 1.419 . S
C1349 C1350 1.363 . S
C1349 H1352 0.929 . S
C1350 C1349 1.363 . S
C1350 C1356 1.428 . S
H1351 C1347 0.930 . S
H1352 C1349 0.929 . S
S1353 N1354 1.613 . S
S1353 N1355 1.610 . S
N1354 S1353 1.613 . S
N1354 C1357 1.350 . S
N1355 S1353 1.610 . S
N1355 C1356 1.351 . S
C1356 C1350 1.428 . S
C1356 N1355 1.351 . S
C1356 C1357 1.434 . S
C1357 C1348 1.429 . S
C1357 N1354 1.350 . S
C1357 C1356 1.434 . S
C1358 C1359 1.369 . S
C1358 C1360 1.419 . S
C1358 H1362 0.930 . S
C1359 C1358 1.369 . S
C1359 C1368 1.429 . S
C1360 C1358 1.419 . S
C1360 C1361 1.363 . S
C1360 H1363 0.929 . S
C1361 C1360 1.363 . S
C1361 C1367 1.428 . S
H1362 C1358 0.930 . S
H1363 C1360 0.929 . S
S1364 N1365 1.613 . S
S1364 N1366 1.610 . S
N1365 S1364 1.613 . S
N1365 C1368 1.350 . S
N1366 S1364 1.610 . S
N1366 C1367 1.351 . S
C1367 C1361 1.428 . S
C1367 N1366 1.351 . S
C1367 C1368 1.434 . S
C1368 C1359 1.429 . S
C1368 N1365 1.350 . S
C1368 C1367 1.434 . S
C1369 C1370 1.369 . S
C1369 C1371 1.419 . S
C1369 H1373 0.930 . S
C1370 C1369 1.369 . S
C1370 C1379 1.429 . S
C1371 C1369 1.419 . S
C1371 C1372 1.363 . S
C1371 H1374 0.929 . S
C1372 C1371 1.363 . S
C1372 C1378 1.428 . S
H1373 C1369 0.930 . S
H1374 C1371 0.929 . S
S1375 N1376 1.613 . S
S1375 N1377 1.610 . S
N1376 S1375 1.613 . S
N1376 C1379 1.350 . S
N1377 S1375 1.610 . S
N1377 C1378 1.351 . S
C1378 C1372 1.428 . S
C1378 N1377 1.351 . S
C1378 C1379 1.434 . S
C1379 C1370 1.429 . S
C1379 N1376 1.350 . S
C1379 C1378 1.434 . S
C1380 C1381 1.369 . S
C1380 C1382 1.419 . S
C1380 H1384 0.930 . S
C1381 C1380 1.369 . S
C1381 C1390 1.429 . S
C1382 C1380 1.419 . S
C1382 C1383 1.363 . S
C1382 H1385 0.929 . S
C1383 C1382 1.363 . S
C1383 C1389 1.428 . S
H1384 C1380 0.930 . S
H1385 C1382 0.929 . S
S1386 N1387 1.613 . S
S1386 N1388 1.610 . S
N1387 S1386 1.613 . S
N1387 C1390 1.350 . S
N1388 S1386 1.610 . S
N1388 C1389 1.351 . S
C1389 C1383 1.428 . S
C1389 N1388 1.351 . S
C1389 C1390 1.434 . S
C1390 C1381 1.429 . S
C1390 N1387 1.350 . S
C1390 C1389 1.434 . S
C1391 C1392 1.369 . S
C1391 C1393 1.419 . S
C1391 H1395 0.930 . S
C1392 C1391 1.369 . S
C1392 C1401 1.429 . S
C1393 C1391 1.419 . S
C1393 C1394 1.363 . S
C1393 H1396 0.929 . S
C1394 C1393 1.363 . S
C1394 C1400 1.428 . S
H1395 C1391 0.930 . S
H1396 C1393 0.929 . S
S1397 N1398 1.613 . S
S1397 N1399 1.610 . S
N1398 S1397 1.613 . S
N1398 C1401 1.350 . S
N1399 S1397 1.610 . S
N1399 C1400 1.351 . S
C1400 C1394 1.428 . S
C1400 N1399 1.351 . S
C1400 C1401 1.434 . S
C1401 C1392 1.429 . S
C1401 N1398 1.350 . S
C1401 C1400 1.434 . S
C1402 C1403 1.369 . S
C1402 C1404 1.419 . S
C1402 H1406 0.930 . S
C1403 C1402 1.369 . S
C1403 C1412 1.429 . S
C1404 C1402 1.419 . S
C1404 C1405 1.363 . S
C1404 H1407 0.929 . S
C1405 C1404 1.363 . S
C1405 C1411 1.428 . S
H1406 C1402 0.930 . S
H1407 C1404 0.929 . S
S1408 N1409 1.613 . S
S1408 N1410 1.610 . S
N1409 S1408 1.613 . S
N1409 C1412 1.350 . S
N1410 S1408 1.610 . S
N1410 C1411 1.351 . S
C1411 C1405 1.428 . S
C1411 N1410 1.351 . S
C1411 C1412 1.434 . S
C1412 C1403 1.429 . S
C1412 N1409 1.350 . S
C1412 C1411 1.434 . S
C1413 C1414 1.369 . S
C1413 C1415 1.419 . S
C1413 H1417 0.930 . S
C1414 C1413 1.369 . S
C1414 C1423 1.429 . S
C1415 C1413 1.419 . S
C1415 C1416 1.363 . S
C1415 H1418 0.929 . S
C1416 C1415 1.363 . S
C1416 C1422 1.428 . S
H1417 C1413 0.930 . S
H1418 C1415 0.929 . S
S1419 N1420 1.613 . S
S1419 N1421 1.610 . S
N1420 S1419 1.613 . S
N1420 C1423 1.350 . S
N1421 S1419 1.610 . S
N1421 C1422 1.351 . S
C1422 C1416 1.428 . S
C1422 N1421 1.351 . S
C1422 C1423 1.434 . S
C1423 C1414 1.429 . S
C1423 N1420 1.350 . S
C1423 C1422 1.434 . S
C1424 C1425 1.369 . S
C1424 C1426 1.419 . S
C1424 H1428 0.930 . S
C1425 C1424 1.369 . S
C1425 C1434 1.429 . S
C1426 C1424 1.419 . S
C1426 C1427 1.363 . S
C1426 H1429 0.929 . S
C1427 C1426 1.363 . S
C1427 C1433 1.428 . S
H1428 C1424 0.930 . S
H1429 C1426 0.929 . S
S1430 N1431 1.613 . S
S1430 N1432 1.610 . S
N1431 S1430 1.613 . S
N1431 C1434 1.350 . S
N1432 S1430 1.610 . S
N1432 C1433 1.351 . S
C1433 C1427 1.428 . S
C1433 N1432 1.351 . S
C1433 C1434 1.434 . S
C1434 C1425 1.429 . S
C1434 N1431 1.350 . S
C1434 C1433 1.434 . S
C1435 C1436 1.369 . S
C1435 C1437 1.419 . S
C1435 H1439 0.930 . S
C1436 C1435 1.369 . S
C1436 C1445 1.429 . S
C1437 C1435 1.419 . S
C1437 C1438 1.363 . S
C1437 H1440 0.929 . S
C1438 C1437 1.363 . S
C1438 C1444 1.428 . S
H1439 C1435 0.930 . S
H1440 C1437 0.929 . S
S1441 N1442 1.613 . S
S1441 N1443 1.610 . S
N1442 S1441 1.613 . S
N1442 C1445 1.350 . S
N1443 S1441 1.610 . S
N1443 C1444 1.351 . S
C1444 C1438 1.428 . S
C1444 N1443 1.351 . S
C1444 C1445 1.434 . S
C1445 C1436 1.429 . S
C1445 N1442 1.350 . S
C1445 C1444 1.434 . S
C1446 C1447 1.369 . S
C1446 C1448 1.419 . S
C1446 H1450 0.930 . S
C1447 C1446 1.369 . S
C1447 C1456 1.429 . S
C1448 C1446 1.419 . S
C1448 C1449 1.363 . S
C1448 H1451 0.929 . S
C1449 C1448 1.363 . S
C1449 C1455 1.428 . S
H1450 C1446 0.930 . S
H1451 C1448 0.929 . S
S1452 N1453 1.613 . S
S1452 N1454 1.610 . S
N1453 S1452 1.613 . S
N1453 C1456 1.350 . S
N1454 S1452 1.610 . S
N1454 C1455 1.351 . S
C1455 C1449 1.428 . S
C1455 N1454 1.351 . S
C1455 C1456 1.434 . S
C1456 C1447 1.429 . S
C1456 N1453 1.350 . S
C1456 C1455 1.434 . S
C1457 C1458 1.369 . S
C1457 C1459 1.419 . S
C1457 H1461 0.930 . S
C1458 C1457 1.369 . S
C1458 C1467 1.429 . S
C1459 C1457 1.419 . S
C1459 C1460 1.363 . S
C1459 H1462 0.929 . S
C1460 C1459 1.363 . S
C1460 C1466 1.428 . S
H1461 C1457 0.930 . S
H1462 C1459 0.929 . S
S1463 N1464 1.613 . S
S1463 N1465 1.610 . S
N1464 S1463 1.613 . S
N1464 C1467 1.350 . S
N1465 S1463 1.610 . S
N1465 C1466 1.351 . S
C1466 C1460 1.428 . S
C1466 N1465 1.351 . S
C1466 C1467 1.434 . S
C1467 C1458 1.429 . S
C1467 N1464 1.350 . S
C1467 C1466 1.434 . S
C1468 C1469 1.369 . S
C1468 C1470 1.419 . S
C1468 H1472 0.930 . S
C1469 C1468 1.369 . S
C1469 C1478 1.429 . S
C1470 C1468 1.419 . S
C1470 C1471 1.363 . S
C1470 H1473 0.929 . S
C1471 C1470 1.363 . S
C1471 C1477 1.428 . S
H1472 C1468 0.930 . S
H1473 C1470 0.929 . S
S1474 N1475 1.613 . S
S1474 N1476 1.610 . S
N1475 S1474 1.613 . S
N1475 C1478 1.350 . S
N1476 S1474 1.610 . S
N1476 C1477 1.351 . S
C1477 C1471 1.428 . S
C1477 N1476 1.351 . S
C1477 C1478 1.434 . S
C1478 C1469 1.429 . S
C1478 N1475 1.350 . S
C1478 C1477 1.434 . S
C1479 C1480 1.369 . S
C1479 C1481 1.419 . S
C1479 H1483 0.930 . S
C1480 C1479 1.369 . S
C1480 C1489 1.429 . S
C1481 C1479 1.419 . S
C1481 C1482 1.363 . S
C1481 H1484 0.929 . S
C1482 C1481 1.363 . S
C1482 C1488 1.428 . S
H1483 C1479 0.930 . S
H1484 C1481 0.929 . S
S1485 N1486 1.613 . S
S1485 N1487 1.610 . S
N1486 S1485 1.613 . S
N1486 C1489 1.350 . S
N1487 S1485 1.610 . S
N1487 C1488 1.351 . S
C1488 C1482 1.428 . S
C1488 N1487 1.351 . S
C1488 C1489 1.434 . S
C1489 C1480 1.429 . S
C1489 N1486 1.350 . S
C1489 C1488 1.434 . S
C1490 C1491 1.369 . S
C1490 C1492 1.419 . S
C1490 H1494 0.930 . S
C1491 C1490 1.369 . S
C1491 C1500 1.429 . S
C1492 C1490 1.419 . S
C1492 C1493 1.363 . S
C1492 H1495 0.929 . S
C1493 C1492 1.363 . S
C1493 C1499 1.428 . S
H1494 C1490 0.930 . S
H1495 C1492 0.929 . S
S1496 N1497 1.613 . S
S1496 N1498 1.610 . S
N1497 S1496 1.613 . S
N1497 C1500 1.350 . S
N1498 S1496 1.610 . S
N1498 C1499 1.351 . S
C1499 C1493 1.428 . S
C1499 N1498 1.351 . S
C1499 C1500 1.434 . S
C1500 C1491 1.429 . S
C1500 N1497 1.350 . S
C1500 C1499 1.434 . S
C1501 C1502 1.369 . S
C1501 C1503 1.419 . S
C1501 H1505 0.930 . S
C1502 C1501 1.369 . S
C1502 C1511 1.429 . S
C1503 C1501 1.419 . S
C1503 C1504 1.363 . S
C1503 H1506 0.929 . S
C1504 C1503 1.363 . S
C1504 C1510 1.428 . S
H1505 C1501 0.930 . S
H1506 C1503 0.929 . S
S1507 N1508 1.613 . S
S1507 N1509 1.610 . S
N1508 S1507 1.613 . S
N1508 C1511 1.350 . S
N1509 S1507 1.610 . S
N1509 C1510 1.351 . S
C1510 C1504 1.428 . S
C1510 N1509 1.351 . S
C1510 C1511 1.434 . S
C1511 C1502 1.429 . S
C1511 N1508 1.350 . S
C1511 C1510 1.434 . S
C1512 C1513 1.369 . S
C1512 C1514 1.419 . S
C1512 H1516 0.930 . S
C1513 C1512 1.369 . S
C1513 C1522 1.429 . S
C1514 C1512 1.419 . S
C1514 C1515 1.363 . S
C1514 H1517 0.929 . S
C1515 C1514 1.363 . S
C1515 C1521 1.428 . S
H1516 C1512 0.930 . S
H1517 C1514 0.929 . S
S1518 N1519 1.613 . S
S1518 N1520 1.610 . S
N1519 S1518 1.613 . S
N1519 C1522 1.350 . S
N1520 S1518 1.610 . S
N1520 C1521 1.351 . S
C1521 C1515 1.428 . S
C1521 N1520 1.351 . S
C1521 C1522 1.434 . S
C1522 C1513 1.429 . S
C1522 N1519 1.350 . S
C1522 C1521 1.434 . S
C1523 C1524 1.369 . S
C1523 C1525 1.419 . S
C1523 H1527 0.930 . S
C1524 C1523 1.369 . S
C1524 C1533 1.429 . S
C1525 C1523 1.419 . S
C1525 C1526 1.363 . S
C1525 H1528 0.929 . S
C1526 C1525 1.363 . S
C1526 C1532 1.428 . S
H1527 C1523 0.930 . S
H1528 C1525 0.929 . S
S1529 N1530 1.613 . S
S1529 N1531 1.610 . S
N1530 S1529 1.613 . S
N1530 C1533 1.350 . S
N1531 S1529 1.610 . S
N1531 C1532 1.351 . S
C1532 C1526 1.428 . S
C1532 N1531 1.351 . S
C1532 C1533 1.434 . S
C1533 C1524 1.429 . S
C1533 N1530 1.350 . S
C1533 C1532 1.434 . S
C1534 C1535 1.369 . S
C1534 C1536 1.419 . S
C1534 H1538 0.930 . S
C1535 C1534 1.369 . S
C1535 C1544 1.429 . S
C1536 C1534 1.419 . S
C1536 C1537 1.363 . S
C1536 H1539 0.929 . S
C1537 C1536 1.363 . S
C1537 C1543 1.428 . S
H1538 C1534 0.930 . S
H1539 C1536 0.929 . S
S1540 N1541 1.613 . S
S1540 N1542 1.610 . S
N1541 S1540 1.613 . S
N1541 C1544 1.350 . S
N1542 S1540 1.610 . S
N1542 C1543 1.351 . S
C1543 C1537 1.428 . S
C1543 N1542 1.351 . S
C1543 C1544 1.434 . S
C1544 C1535 1.429 . S
C1544 N1541 1.350 . S
C1544 C1543 1.434 . S
C1545 C1546 1.369 . S
C1545 C1547 1.419 . S
C1545 H1549 0.930 . S
C1546 C1545 1.369 . S
C1546 C1555 1.429 . S
C1547 C1545 1.419 . S
C1547 C1548 1.363 . S
C1547 H1550 0.929 . S
C1548 C1547 1.363 . S
C1548 C1554 1.428 . S
H1549 C1545 0.930 . S
H1550 C1547 0.929 . S
S1551 N1552 1.613 . S
S1551 N1553 1.610 . S
N1552 S1551 1.613 . S
N1552 C1555 1.350 . S
N1553 S1551 1.610 . S
N1553 C1554 1.351 . S
C1554 C1548 1.428 . S
C1554 N1553 1.351 . S
C1554 C1555 1.434 . S
C1555 C1546 1.429 . S
C1555 N1552 1.350 . S
C1555 C1554 1.434 . S
C1556 C1557 1.369 . S
C1556 C1558 1.419 . S
C1556 H1560 0.930 . S
C1557 C1556 1.369 . S
C1557 C1566 1.429 . S
C1558 C1556 1.419 . S
C1558 C1559 1.363 . S
C1558 H1561 0.929 . S
C1559 C1558 1.363 . S
C1559 C1565 1.428 . S
H1560 C1556 0.930 . S
H1561 C1558 0.929 . S
S1562 N1563 1.613 . S
S1562 N1564 1.610 . S
N1563 S1562 1.613 . S
N1563 C1566 1.350 . S
N1564 S1562 1.610 . S
N1564 C1565 1.351 . S
C1565 C1559 1.428 . S
C1565 N1564 1.351 . S
C1565 C1566 1.434 . S
C1566 C1557 1.429 . S
C1566 N1563 1.350 . S
C1566 C1565 1.434 . S
C1567 C1568 1.369 . S
C1567 C1569 1.419 . S
C1567 H1571 0.930 . S
C1568 C1567 1.369 . S
C1568 C1577 1.429 . S
C1569 C1567 1.419 . S
C1569 C1570 1.363 . S
C1569 H1572 0.929 . S
C1570 C1569 1.363 . S
C1570 C1576 1.428 . S
H1571 C1567 0.930 . S
H1572 C1569 0.929 . S
S1573 N1574 1.613 . S
S1573 N1575 1.610 . S
N1574 S1573 1.613 . S
N1574 C1577 1.350 . S
N1575 S1573 1.610 . S
N1575 C1576 1.351 . S
C1576 C1570 1.428 . S
C1576 N1575 1.351 . S
C1576 C1577 1.434 . S
C1577 C1568 1.429 . S
C1577 N1574 1.350 . S
C1577 C1576 1.434 . S
C1578 C1579 1.369 . S
C1578 C1580 1.419 . S
C1578 H1582 0.930 . S
C1579 C1578 1.369 . S
C1579 C1588 1.429 . S
C1580 C1578 1.419 . S
C1580 C1581 1.363 . S
C1580 H1583 0.929 . S
C1581 C1580 1.363 . S
C1581 C1587 1.428 . S
H1582 C1578 0.930 . S
H1583 C1580 0.929 . S
S1584 N1585 1.613 . S
S1584 N1586 1.610 . S
N1585 S1584 1.613 . S
N1585 C1588 1.350 . S
N1586 S1584 1.610 . S
N1586 C1587 1.351 . S
C1587 C1581 1.428 . S
C1587 N1586 1.351 . S
C1587 C1588 1.434 . S
C1588 C1579 1.429 . S
C1588 N1585 1.350 . S
C1588 C1587 1.434 . S
C1589 C1590 1.369 . S
C1589 C1591 1.419 . S
C1589 H1593 0.930 . S
C1590 C1589 1.369 . S
C1590 C1599 1.429 . S
C1591 C1589 1.419 . S
C1591 C1592 1.363 . S
C1591 H1594 0.929 . S
C1592 C1591 1.363 . S
C1592 C1598 1.428 . S
H1593 C1589 0.930 . S
H1594 C1591 0.929 . S
S1595 N1596 1.613 . S
S1595 N1597 1.610 . S
N1596 S1595 1.613 . S
N1596 C1599 1.350 . S
N1597 S1595 1.610 . S
N1597 C1598 1.351 . S
C1598 C1592 1.428 . S
C1598 N1597 1.351 . S
C1598 C1599 1.434 . S
C1599 C1590 1.429 . S
C1599 N1596 1.350 . S
C1599 C1598 1.434 . S
C1600 C1601 1.369 . S
C1600 C1602 1.419 . S
C1600 H1604 0.930 . S
C1601 C1600 1.369 . S
C1601 C1610 1.429 . S
C1602 C1600 1.419 . S
C1602 C1603 1.363 . S
C1602 H1605 0.929 . S
C1603 C1602 1.363 . S
C1603 C1609 1.428 . S
H1604 C1600 0.930 . S
H1605 C1602 0.929 . S
S1606 N1607 1.613 . S
S1606 N1608 1.610 . S
N1607 S1606 1.613 . S
N1607 C1610 1.350 . S
N1608 S1606 1.610 . S
N1608 C1609 1.351 . S
C1609 C1603 1.428 . S
C1609 N1608 1.351 . S
C1609 C1610 1.434 . S
C1610 C1601 1.429 . S
C1610 N1607 1.350 . S
C1610 C1609 1.434 . S
C1611 C1612 1.369 . S
C1611 C1613 1.419 . S
C1611 H1615 0.930 . S
C1612 C1611 1.369 . S
C1612 C1621 1.429 . S
C1613 C1611 1.419 . S
C1613 C1614 1.363 . S
C1613 H1616 0.929 . S
C1614 C1613 1.363 . S
C1614 C1620 1.428 . S
H1615 C1611 0.930 . S
H1616 C1613 0.929 . S
S1617 N1618 1.613 . S
S1617 N1619 1.610 . S
N1618 S1617 1.613 . S
N1618 C1621 1.350 . S
N1619 S1617 1.610 . S
N1619 C1620 1.351 . S
C1620 C1614 1.428 . S
C1620 N1619 1.351 . S
C1620 C1621 1.434 . S
C1621 C1612 1.429 . S
C1621 N1618 1.350 . S
C1621 C1620 1.434 . S
C1622 C1623 1.369 . S
C1622 C1624 1.419 . S
C1622 H1626 0.930 . S
C1623 C1622 1.369 . S
C1623 C1632 1.429 . S
C1624 C1622 1.419 . S
C1624 C1625 1.363 . S
C1624 H1627 0.929 . S
C1625 C1624 1.363 . S
C1625 C1631 1.428 . S
H1626 C1622 0.930 . S
H1627 C1624 0.929 . S
S1628 N1629 1.613 . S
S1628 N1630 1.610 . S
N1629 S1628 1.613 . S
N1629 C1632 1.350 . S
N1630 S1628 1.610 . S
N1630 C1631 1.351 . S
C1631 C1625 1.428 . S
C1631 N1630 1.351 . S
C1631 C1632 1.434 . S
C1632 C1623 1.429 . S
C1632 N1629 1.350 . S
C1632 C1631 1.434 . S
C1633 C1634 1.369 . S
C1633 C1635 1.419 . S
C1633 H1637 0.930 . S
C1634 C1633 1.369 . S
C1634 C1643 1.429 . S
C1635 C1633 1.419 . S
C1635 C1636 1.363 . S
C1635 H1638 0.929 . S
C1636 C1635 1.363 . S
C1636 C1642 1.428 . S
H1637 C1633 0.930 . S
H1638 C1635 0.929 . S
S1639 N1640 1.613 . S
S1639 N1641 1.610 . S
N1640 S1639 1.613 . S
N1640 C1643 1.350 . S
N1641 S1639 1.610 . S
N1641 C1642 1.351 . S
C1642 C1636 1.428 . S
C1642 N1641 1.351 . S
C1642 C1643 1.434 . S
C1643 C1634 1.429 . S
C1643 N1640 1.350 . S
C1643 C1642 1.434 . S
C1644 C1645 1.369 . S
C1644 C1646 1.419 . S
C1644 H1648 0.930 . S
C1645 C1644 1.369 . S
C1645 C1654 1.429 . S
C1646 C1644 1.419 . S
C1646 C1647 1.363 . S
C1646 H1649 0.929 . S
C1647 C1646 1.363 . S
C1647 C1653 1.428 . S
H1648 C1644 0.930 . S
H1649 C1646 0.929 . S
S1650 N1651 1.613 . S
S1650 N1652 1.610 . S
N1651 S1650 1.613 . S
N1651 C1654 1.350 . S
N1652 S1650 1.610 . S
N1652 C1653 1.351 . S
C1653 C1647 1.428 . S
C1653 N1652 1.351 . S
C1653 C1654 1.434 . S
C1654 C1645 1.429 . S
C1654 N1651 1.350 . S
C1654 C1653 1.434 . S
C1655 C1656 1.369 . S
C1655 C1657 1.419 . S
C1655 H1659 0.930 . S
C1656 C1655 1.369 . S
C1656 C1665 1.429 . S
C1657 C1655 1.419 . S
C1657 C1658 1.363 . S
C1657 H1660 0.929 . S
C1658 C1657 1.363 . S
C1658 C1664 1.428 . S
H1659 C1655 0.930 . S
H1660 C1657 0.929 . S
S1661 N1662 1.613 . S
S1661 N1663 1.610 . S
N1662 S1661 1.613 . S
N1662 C1665 1.350 . S
N1663 S1661 1.610 . S
N1663 C1664 1.351 . S
C1664 C1658 1.428 . S
C1664 N1663 1.351 . S
C1664 C1665 1.434 . S
C1665 C1656 1.429 . S
C1665 N1662 1.350 . S
C1665 C1664 1.434 . S
C1666 C1667 1.369 . S
C1666 C1668 1.419 . S
C1666 H1670 0.930 . S
C1667 C1666 1.369 . S
C1667 C1676 1.429 . S
C1668 C1666 1.419 . S
C1668 C1669 1.363 . S
C1668 H1671 0.929 . S
C1669 C1668 1.363 . S
C1669 C1675 1.428 . S
H1670 C1666 0.930 . S
H1671 C1668 0.929 . S
S1672 N1673 1.613 . S
S1672 N1674 1.610 . S
N1673 S1672 1.613 . S
N1673 C1676 1.350 . S
N1674 S1672 1.610 . S
N1674 C1675 1.351 . S
C1675 C1669 1.428 . S
C1675 N1674 1.351 . S
C1675 C1676 1.434 . S
C1676 C1667 1.429 . S
C1676 N1673 1.350 . S
C1676 C1675 1.434 . S
C1677 C1678 1.369 . S
C1677 C1679 1.419 . S
C1677 H1681 0.930 . S
C1678 C1677 1.369 . S
C1678 C1687 1.429 . S
C1679 C1677 1.419 . S
C1679 C1680 1.363 . S
C1679 H1682 0.929 . S
C1680 C1679 1.363 . S
C1680 C1686 1.428 . S
H1681 C1677 0.930 . S
H1682 C1679 0.929 . S
S1683 N1684 1.613 . S
S1683 N1685 1.610 . S
N1684 S1683 1.613 . S
N1684 C1687 1.350 . S
N1685 S1683 1.610 . S
N1685 C1686 1.351 . S
C1686 C1680 1.428 . S
C1686 N1685 1.351 . S
C1686 C1687 1.434 . S
C1687 C1678 1.429 . S
C1687 N1684 1.350 . S
C1687 C1686 1.434 . S
C1688 C1689 1.369 . S
C1688 C1690 1.419 . S
C1688 H1692 0.930 . S
C1689 C1688 1.369 . S
C1689 C1698 1.429 . S
C1690 C1688 1.419 . S
C1690 C1691 1.363 . S
C1690 H1693 0.929 . S
C1691 C1690 1.363 . S
C1691 C1697 1.428 . S
H1692 C1688 0.930 . S
H1693 C1690 0.929 . S
S1694 N1695 1.613 . S
S1694 N1696 1.610 . S
N1695 S1694 1.613 . S
N1695 C1698 1.350 . S
N1696 S1694 1.610 . S
N1696 C1697 1.351 . S
C1697 C1691 1.428 . S
C1697 N1696 1.351 . S
C1697 C1698 1.434 . S
C1698 C1689 1.429 . S
C1698 N1695 1.350 . S
C1698 C1697 1.434 . S
C1699 C1700 1.369 . S
C1699 C1701 1.419 . S
C1699 H1703 0.930 . S
C1700 C1699 1.369 . S
C1700 C1709 1.429 . S
C1701 C1699 1.419 . S
C1701 C1702 1.363 . S
C1701 H1704 0.929 . S
C1702 C1701 1.363 . S
C1702 C1708 1.428 . S
H1703 C1699 0.930 . S
H1704 C1701 0.929 . S
S1705 N1706 1.613 . S
S1705 N1707 1.610 . S
N1706 S1705 1.613 . S
N1706 C1709 1.350 . S
N1707 S1705 1.610 . S
N1707 C1708 1.351 . S
C1708 C1702 1.428 . S
C1708 N1707 1.351 . S
C1708 C1709 1.434 . S
C1709 C1700 1.429 . S
C1709 N1706 1.350 . S
C1709 C1708 1.434 . S
C1710 C1711 1.369 . S
C1710 C1712 1.419 . S
C1710 H1714 0.930 . S
C1711 C1710 1.369 . S
C1711 C1720 1.429 . S
C1712 C1710 1.419 . S
C1712 C1713 1.363 . S
C1712 H1715 0.929 . S
C1713 C1712 1.363 . S
C1713 C1719 1.428 . S
H1714 C1710 0.930 . S
H1715 C1712 0.929 . S
S1716 N1717 1.613 . S
S1716 N1718 1.610 . S
N1717 S1716 1.613 . S
N1717 C1720 1.350 . S
N1718 S1716 1.610 . S
N1718 C1719 1.351 . S
C1719 C1713 1.428 . S
C1719 N1718 1.351 . S
C1719 C1720 1.434 . S
C1720 C1711 1.429 . S
C1720 N1717 1.350 . S
C1720 C1719 1.434 . S
C1721 C1722 1.369 . S
C1721 C1723 1.419 . S
C1721 H1725 0.930 . S
C1722 C1721 1.369 . S
C1722 C1731 1.429 . S
C1723 C1721 1.419 . S
C1723 C1724 1.363 . S
C1723 H1726 0.929 . S
C1724 C1723 1.363 . S
C1724 C1730 1.428 . S
H1725 C1721 0.930 . S
H1726 C1723 0.929 . S
S1727 N1728 1.613 . S
S1727 N1729 1.610 . S
N1728 S1727 1.613 . S
N1728 C1731 1.350 . S
N1729 S1727 1.610 . S
N1729 C1730 1.351 . S
C1730 C1724 1.428 . S
C1730 N1729 1.351 . S
C1730 C1731 1.434 . S
C1731 C1722 1.429 . S
C1731 N1728 1.350 . S
C1731 C1730 1.434 . S
C1732 C1733 1.369 . S
C1732 C1734 1.419 . S
C1732 H1736 0.930 . S
C1733 C1732 1.369 . S
C1733 C1742 1.429 . S
C1734 C1732 1.419 . S
C1734 C1735 1.363 . S
C1734 H1737 0.929 . S
C1735 C1734 1.363 . S
C1735 C1741 1.428 . S
H1736 C1732 0.930 . S
H1737 C1734 0.929 . S
S1738 N1739 1.613 . S
S1738 N1740 1.610 . S
N1739 S1738 1.613 . S
N1739 C1742 1.350 . S
N1740 S1738 1.610 . S
N1740 C1741 1.351 . S
C1741 C1735 1.428 . S
C1741 N1740 1.351 . S
C1741 C1742 1.434 . S
C1742 C1733 1.429 . S
C1742 N1739 1.350 . S
C1742 C1741 1.434 . S
C1743 C1744 1.369 . S
C1743 C1745 1.419 . S
C1743 H1747 0.930 . S
C1744 C1743 1.369 . S
C1744 C1753 1.429 . S
C1745 C1743 1.419 . S
C1745 C1746 1.363 . S
C1745 H1748 0.929 . S
C1746 C1745 1.363 . S
C1746 C1752 1.428 . S
H1747 C1743 0.930 . S
H1748 C1745 0.929 . S
S1749 N1750 1.613 . S
S1749 N1751 1.610 . S
N1750 S1749 1.613 . S
N1750 C1753 1.350 . S
N1751 S1749 1.610 . S
N1751 C1752 1.351 . S
C1752 C1746 1.428 . S
C1752 N1751 1.351 . S
C1752 C1753 1.434 . S
C1753 C1744 1.429 . S
C1753 N1750 1.350 . S
C1753 C1752 1.434 . S
C1754 C1755 1.369 . S
C1754 C1756 1.419 . S
C1754 H1758 0.930 . S
C1755 C1754 1.369 . S
C1755 C1764 1.429 . S
C1756 C1754 1.419 . S
C1756 C1757 1.363 . S
C1756 H1759 0.929 . S
C1757 C1756 1.363 . S
C1757 C1763 1.428 . S
H1758 C1754 0.930 . S
H1759 C1756 0.929 . S
S1760 N1761 1.613 . S
S1760 N1762 1.610 . S
N1761 S1760 1.613 . S
N1761 C1764 1.350 . S
N1762 S1760 1.610 . S
N1762 C1763 1.351 . S
C1763 C1757 1.428 . S
C1763 N1762 1.351 . S
C1763 C1764 1.434 . S
C1764 C1755 1.429 . S
C1764 N1761 1.350 . S
C1764 C1763 1.434 . S
C1765 C1766 1.369 . S
C1765 C1767 1.419 . S
C1765 H1769 0.930 . S
C1766 C1765 1.369 . S
C1766 C1775 1.429 . S
C1767 C1765 1.419 . S
C1767 C1768 1.363 . S
C1767 H1770 0.929 . S
C1768 C1767 1.363 . S
C1768 C1774 1.428 . S
H1769 C1765 0.930 . S
H1770 C1767 0.929 . S
S1771 N1772 1.613 . S
S1771 N1773 1.610 . S
N1772 S1771 1.613 . S
N1772 C1775 1.350 . S
N1773 S1771 1.610 . S
N1773 C1774 1.351 . S
C1774 C1768 1.428 . S
C1774 N1773 1.351 . S
C1774 C1775 1.434 . S
C1775 C1766 1.429 . S
C1775 N1772 1.350 . S
C1775 C1774 1.434 . S
C1776 C1777 1.369 . S
C1776 C1778 1.419 . S
C1776 H1780 0.930 . S
C1777 C1776 1.369 . S
C1777 C1786 1.429 . S
C1778 C1776 1.419 . S
C1778 C1779 1.363 . S
C1778 H1781 0.929 . S
C1779 C1778 1.363 . S
C1779 C1785 1.428 . S
H1780 C1776 0.930 . S
H1781 C1778 0.929 . S
S1782 N1783 1.613 . S
S1782 N1784 1.610 . S
N1783 S1782 1.613 . S
N1783 C1786 1.350 . S
N1784 S1782 1.610 . S
N1784 C1785 1.351 . S
C1785 C1779 1.428 . S
C1785 N1784 1.351 . S
C1785 C1786 1.434 . S
C1786 C1777 1.429 . S
C1786 N1783 1.350 . S
C1786 C1785 1.434 . S
C1787 C1788 1.369 . S
C1787 C1789 1.419 . S
C1787 H1791 0.930 . S
C1788 C1787 1.369 . S
C1788 C1797 1.429 . S
C1789 C1787 1.419 . S
C1789 C1790 1.363 . S
C1789 H1792 0.929 . S
C1790 C1789 1.363 . S
C1790 C1796 1.428 . S
H1791 C1787 0.930 . S
H1792 C1789 0.929 . S
S1793 N1794 1.613 . S
S1793 N1795 1.610 . S
N1794 S1793 1.613 . S
N1794 C1797 1.350 . S
N1795 S1793 1.610 . S
N1795 C1796 1.351 . S
C1796 C1790 1.428 . S
C1796 N1795 1.351 . S
C1796 C1797 1.434 . S
C1797 C1788 1.429 . S
C1797 N1794 1.350 . S
C1797 C1796 1.434 . S
C1798 C1799 1.369 . S
C1798 C1800 1.419 . S
C1798 H1802 0.930 . S
C1799 C1798 1.369 . S
C1799 C1808 1.429 . S
C1800 C1798 1.419 . S
C1800 C1801 1.363 . S
C1800 H1803 0.929 . S
C1801 C1800 1.363 . S
C1801 C1807 1.428 . S
H1802 C1798 0.930 . S
H1803 C1800 0.929 . S
S1804 N1805 1.613 . S
S1804 N1806 1.610 . S
N1805 S1804 1.613 . S
N1805 C1808 1.350 . S
N1806 S1804 1.610 . S
N1806 C1807 1.351 . S
C1807 C1801 1.428 . S
C1807 N1806 1.351 . S
C1807 C1808 1.434 . S
C1808 C1799 1.429 . S
C1808 N1805 1.350 . S
C1808 C1807 1.434 . S
C1809 C1810 1.369 . S
C1809 C1811 1.419 . S
C1809 H1813 0.930 1_554 S
C1810 C1809 1.369 . S
C1810 C1819 1.429 . S
C1811 C1809 1.419 . S
C1811 C1812 1.363 . S
C1811 H1814 0.929 . S
C1812 C1811 1.363 . S
C1812 C1818 1.428 . S
H1813 C1809 0.930 1_556 S
H1814 C1811 0.929 . S
S1815 N1816 1.613 . S
S1815 N1817 1.610 . S
N1816 S1815 1.613 . S
N1816 C1819 1.350 . S
N1817 S1815 1.610 . S
N1817 C1818 1.351 . S
C1818 C1812 1.428 . S
C1818 N1817 1.351 . S
C1818 C1819 1.434 . S
C1819 C1810 1.429 . S
C1819 N1816 1.350 . S
C1819 C1818 1.434 . S
C1820 C1821 1.369 . S
C1820 C1822 1.419 . S
C1820 H1824 0.930 1_655 S
C1821 C1820 1.369 . S
C1821 C1830 1.429 . S
C1822 C1820 1.419 . S
C1822 C1823 1.363 . S
C1822 H1825 0.929 . S
C1823 C1822 1.363 . S
C1823 C1829 1.428 . S
H1824 C1820 0.930 1_455 S
H1825 C1822 0.929 . S
S1826 N1827 1.613 . S
S1826 N1828 1.610 . S
N1827 S1826 1.613 . S
N1827 C1830 1.350 . S
N1828 S1826 1.610 . S
N1828 C1829 1.351 . S
C1829 C1823 1.428 . S
C1829 N1828 1.351 . S
C1829 C1830 1.434 . S
C1830 C1821 1.429 . S
C1830 N1827 1.350 . S
C1830 C1829 1.434 . S
C1831 C1832 1.369 . S
C1831 C1833 1.419 . S
C1831 H1835 0.930 . S
C1832 C1831 1.369 . S
C1832 C1841 1.429 . S
C1833 C1831 1.419 . S
C1833 C1834 1.363 . S
C1833 H1836 0.929 . S
C1834 C1833 1.363 . S
C1834 C1840 1.428 . S
H1835 C1831 0.930 . S
H1836 C1833 0.929 . S
S1837 N1838 1.613 . S
S1837 N1839 1.610 . S
N1838 S1837 1.613 . S
N1838 C1841 1.350 . S
N1839 S1837 1.610 . S
N1839 C1840 1.351 . S
C1840 C1834 1.428 . S
C1840 N1839 1.351 . S
C1840 C1841 1.434 . S
C1841 C1832 1.429 . S
C1841 N1838 1.350 . S
C1841 C1840 1.434 . S
C1842 C1843 1.369 . S
C1842 C1844 1.419 . S
C1842 H1846 0.930 . S
C1843 C1842 1.369 . S
C1843 C1852 1.429 . S
C1844 C1842 1.419 . S
C1844 C1845 1.363 . S
C1844 H1847 0.929 . S
C1845 C1844 1.363 . S
C1845 C1851 1.428 . S
H1846 C1842 0.930 . S
H1847 C1844 0.929 . S
S1848 N1849 1.613 . S
S1848 N1850 1.610 . S
N1849 S1848 1.613 . S
N1849 C1852 1.350 . S
N1850 S1848 1.610 . S
N1850 C1851 1.351 . S
C1851 C1845 1.428 . S
C1851 N1850 1.351 . S
C1851 C1852 1.434 . S
C1852 C1843 1.429 . S
C1852 N1849 1.350 . S
C1852 C1851 1.434 . S
C1853 C1854 1.369 . S
C1853 C1855 1.419 . S
C1853 H1857 0.930 . S
C1854 C1853 1.369 . S
C1854 C1863 1.429 . S
C1855 C1853 1.419 . S
C1855 C1856 1.363 . S
C1855 H1858 0.929 1_556 S
C1856 C1855 1.363 . S
C1856 C1862 1.428 . S
H1857 C1853 0.930 . S
H1858 C1855 0.929 1_554 S
S1859 N1860 1.613 . S
S1859 N1861 1.610 . S
N1860 S1859 1.613 . S
N1860 C1863 1.350 . S
N1861 S1859 1.610 . S
N1861 C1862 1.351 . S
C1862 C1856 1.428 . S
C1862 N1861 1.351 . S
C1862 C1863 1.434 . S
C1863 C1854 1.429 . S
C1863 N1860 1.350 . S
C1863 C1862 1.434 . S
C1864 C1865 1.369 . S
C1864 C1866 1.419 . S
C1864 H1868 0.930 . S
C1865 C1864 1.369 . S
C1865 C1874 1.429 . S
C1866 C1864 1.419 . S
C1866 C1867 1.363 . S
C1866 H1869 0.929 . S
C1867 C1866 1.363 . S
C1867 C1873 1.428 . S
H1868 C1864 0.930 . S
H1869 C1866 0.929 . S
S1870 N1871 1.613 . S
S1870 N1872 1.610 . S
N1871 S1870 1.613 . S
N1871 C1874 1.350 . S
N1872 S1870 1.610 . S
N1872 C1873 1.351 . S
C1873 C1867 1.428 . S
C1873 N1872 1.351 . S
C1873 C1874 1.434 . S
C1874 C1865 1.429 . S
C1874 N1871 1.350 . S
C1874 C1873 1.434 . S
C1875 C1876 1.369 . S
C1875 C1877 1.419 . S
C1875 H1879 0.930 1_545 S
C1876 C1875 1.369 . S
C1876 C1885 1.429 . S
C1877 C1875 1.419 . S
C1877 C1878 1.363 . S
C1877 H1880 0.929 . S
C1878 C1877 1.363 . S
C1878 C1884 1.428 . S
H1879 C1875 0.930 1_565 S
H1880 C1877 0.929 . S
S1881 N1882 1.613 . S
S1881 N1883 1.610 . S
N1882 S1881 1.613 . S
N1882 C1885 1.350 . S
N1883 S1881 1.610 . S
N1883 C1884 1.351 . S
C1884 C1878 1.428 . S
C1884 N1883 1.351 . S
C1884 C1885 1.434 . S
C1885 C1876 1.429 . S
C1885 N1882 1.350 . S
C1885 C1884 1.434 . S
C1886 C1887 1.369 . S
C1886 C1888 1.419 . S
C1886 H1890 0.930 . S
C1887 C1886 1.369 . S
C1887 C1896 1.429 . S
C1888 C1886 1.419 . S
C1888 C1889 1.363 . S
C1888 H1891 0.929 . S
C1889 C1888 1.363 . S
C1889 C1895 1.428 . S
H1890 C1886 0.930 . S
H1891 C1888 0.929 . S
S1892 N1893 1.613 1_545 S
S1892 N1894 1.610 . S
N1893 S1892 1.613 1_565 S
N1893 C1896 1.350 1_565 S
N1894 S1892 1.610 . S
N1894 C1895 1.351 . S
C1895 C1889 1.428 . S
C1895 N1894 1.351 . S
C1895 C1896 1.434 . S
C1896 C1887 1.429 . S
C1896 N1893 1.350 1_545 S
C1896 C1895 1.434 . S
C1897 C1898 1.369 . S
C1897 C1899 1.419 . S
C1897 H1901 0.930 . S
C1898 C1897 1.369 . S
C1898 C1907 1.429 . S
C1899 C1897 1.419 . S
C1899 C1900 1.363 . S
C1899 H1902 0.929 . S
C1900 C1899 1.363 . S
C1900 C1906 1.428 . S
H1901 C1897 0.930 . S
H1902 C1899 0.929 . S
S1903 N1904 1.613 1_545 S
S1903 N1905 1.610 . S
N1904 S1903 1.613 1_565 S
N1904 C1907 1.350 . S
N1905 S1903 1.610 . S
N1905 C1906 1.351 1_545 S
C1906 C1900 1.428 . S
C1906 N1905 1.351 1_565 S
C1906 C1907 1.434 . S
C1907 C1898 1.429 . S
C1907 N1904 1.350 . S
C1907 C1906 1.434 . S
C1908 C1909 1.369 . S
C1908 C1910 1.419 . S
C1908 H1912 0.930 . S
C1909 C1908 1.369 . S
C1909 C1918 1.429 . S
C1910 C1908 1.419 . S
C1910 C1911 1.363 . S
C1910 H1913 0.929 1_554 S
C1911 C1910 1.363 . S
C1911 C1917 1.428 . S
H1912 C1908 0.930 . S
H1913 C1910 0.929 1_556 S
S1914 N1915 1.613 . S
S1914 N1916 1.610 . S
N1915 S1914 1.613 . S
N1915 C1918 1.350 . S
N1916 S1914 1.610 . S
N1916 C1917 1.351 . S
C1917 C1911 1.428 . S
C1917 N1916 1.351 . S
C1917 C1918 1.434 . S
C1918 C1909 1.429 . S
C1918 N1915 1.350 . S
C1918 C1917 1.434 . S
C1919 C1920 1.369 . S
C1919 C1921 1.419 . S
C1919 H1923 0.930 1_455 S
C1920 C1919 1.369 . S
C1920 C1929 1.429 . S
C1921 C1919 1.419 . S
C1921 C1922 1.363 . S
C1921 H1924 0.929 . S
C1922 C1921 1.363 . S
C1922 C1928 1.428 . S
H1923 C1919 0.930 1_655 S
H1924 C1921 0.929 . S
S1925 N1926 1.613 . S
S1925 N1927 1.610 . S
N1926 S1925 1.613 . S
N1926 C1929 1.350 . S
N1927 S1925 1.610 . S
N1927 C1928 1.351 . S
C1928 C1922 1.428 . S
C1928 N1927 1.351 . S
C1928 C1929 1.434 . S
C1929 C1920 1.429 . S
C1929 N1926 1.350 . S
C1929 C1928 1.434 . S
C1930 C1931 1.369 . S
C1930 C1932 1.419 . S
C1930 H1934 0.930 . S
C1931 C1930 1.369 . S
C1931 C1940 1.429 . S
C1932 C1930 1.419 . S
C1932 C1933 1.363 . S
C1932 H1935 0.929 . S
C1933 C1932 1.363 . S
C1933 C1939 1.428 . S
H1934 C1930 0.930 . S
H1935 C1932 0.929 . S
S1936 N1937 1.613 . S
S1936 N1938 1.610 . S
N1937 S1936 1.613 . S
N1937 C1940 1.350 . S
N1938 S1936 1.610 . S
N1938 C1939 1.351 . S
C1939 C1933 1.428 . S
C1939 N1938 1.351 . S
C1939 C1940 1.434 . S
C1940 C1931 1.429 . S
C1940 N1937 1.350 . S
C1940 C1939 1.434 . S
C1941 C1942 1.369 . S
C1941 C1943 1.419 . S
C1941 H1945 0.930 1_455 S
C1942 C1941 1.369 . S
C1942 C1951 1.429 . S
C1943 C1941 1.419 . S
C1943 C1944 1.363 . S
C1943 H1946 0.929 . S
C1944 C1943 1.363 . S
C1944 C1950 1.428 . S
H1945 C1941 0.930 1_655 S
H1946 C1943 0.929 . S
S1947 N1948 1.613 . S
S1947 N1949 1.610 . S
N1948 S1947 1.613 . S
N1948 C1951 1.350 . S
N1949 S1947 1.610 . S
N1949 C1950 1.351 . S
C1950 C1944 1.428 . S
C1950 N1949 1.351 . S
C1950 C1951 1.434 . S
C1951 C1942 1.429 . S
C1951 N1948 1.350 . S
C1951 C1950 1.434 . S
C1952 C1953 1.369 . S
C1952 C1954 1.419 . S
C1952 H1956 0.930 . S
C1953 C1952 1.369 . S
C1953 C1962 1.429 . S
C1954 C1952 1.419 . S
C1954 C1955 1.363 . S
C1954 H1957 0.929 . S
C1955 C1954 1.363 . S
C1955 C1961 1.428 . S
H1956 C1952 0.930 . S
H1957 C1954 0.929 . S
S1958 N1959 1.613 . S
S1958 N1960 1.610 . S
N1959 S1958 1.613 . S
N1959 C1962 1.350 . S
N1960 S1958 1.610 . S
N1960 C1961 1.351 . S
C1961 C1955 1.428 . S
C1961 N1960 1.351 . S
C1961 C1962 1.434 . S
C1962 C1953 1.429 . S
C1962 N1959 1.350 . S
C1962 C1961 1.434 . S
C1963 C1964 1.369 . S
C1963 C1965 1.419 . S
C1963 H1967 0.930 1_455 S
C1964 C1963 1.369 . S
C1964 C1973 1.429 . S
C1965 C1963 1.419 . S
C1965 C1966 1.363 . S
C1965 H1968 0.929 . S
C1966 C1965 1.363 . S
C1966 C1972 1.428 . S
H1967 C1963 0.930 1_655 S
H1968 C1965 0.929 . S
S1969 N1970 1.613 . S
S1969 N1971 1.610 . S
N1970 S1969 1.613 . S
N1970 C1973 1.350 . S
N1971 S1969 1.610 . S
N1971 C1972 1.351 . S
C1972 C1966 1.428 . S
C1972 N1971 1.351 . S
C1972 C1973 1.434 . S
C1973 C1964 1.429 . S
C1973 N1970 1.350 . S
C1973 C1972 1.434 . S
C1974 C1975 1.369 . S
C1974 C1976 1.419 . S
C1974 H1978 0.930 . S
C1975 C1974 1.369 . S
C1975 C1984 1.429 . S
C1976 C1974 1.419 . S
C1976 C1977 1.363 . S
C1976 H1979 0.929 . S
C1977 C1976 1.363 . S
C1977 C1983 1.428 . S
H1978 C1974 0.930 . S
H1979 C1976 0.929 . S
S1980 N1981 1.613 . S
S1980 N1982 1.610 . S
N1981 S1980 1.613 . S
N1981 C1984 1.350 . S
N1982 S1980 1.610 . S
N1982 C1983 1.351 . S
C1983 C1977 1.428 . S
C1983 N1982 1.351 . S
C1983 C1984 1.434 . S
C1984 C1975 1.429 . S
C1984 N1981 1.350 . S
C1984 C1983 1.434 . S
C1985 C1986 1.369 . S
C1985 C1987 1.419 . S
C1985 H1989 0.930 . S
C1986 C1985 1.369 . S
C1986 C1995 1.429 . S
C1987 C1985 1.419 . S
C1987 C1988 1.363 . S
C1987 H1990 0.929 . S
C1988 C1987 1.363 . S
C1988 C1994 1.428 . S
H1989 C1985 0.930 . S
H1990 C1987 0.929 . S
S1991 N1992 1.613 . S
S1991 N1993 1.610 . S
N1992 S1991 1.613 . S
N1992 C1995 1.350 . S
N1993 S1991 1.610 . S
N1993 C1994 1.351 . S
C1994 C1988 1.428 . S
C1994 N1993 1.351 . S
C1994 C1995 1.434 . S
C1995 C1986 1.429 . S
C1995 N1992 1.350 . S
C1995 C1994 1.434 . S
C1996 C1997 1.369 . S
C1996 C1998 1.419 . S
C1996 H2000 0.930 . S
C1997 C1996 1.369 . S
C1997 C2006 1.429 . S
C1998 C1996 1.419 . S
C1998 C1999 1.363 . S
C1998 H2001 0.929 . S
C1999 C1998 1.363 . S
C1999 C2005 1.428 . S
H2000 C1996 0.930 . S
H2001 C1998 0.929 . S
S2002 N2003 1.613 1_556 S
S2002 N2004 1.610 . S
N2003 S2002 1.613 1_554 S
N2003 C2006 1.350 1_554 S
N2004 S2002 1.610 . S
N2004 C2005 1.351 . S
C2005 C1999 1.428 . S
C2005 N2004 1.351 . S
C2005 C2006 1.434 . S
C2006 C1997 1.429 . S
C2006 N2003 1.350 1_556 S
C2006 C2005 1.434 . S
C2007 C2008 1.369 . S
C2007 C2009 1.419 . S
C2007 H2011 0.930 . S
C2008 C2007 1.369 . S
C2008 C2017 1.429 . S
C2009 C2007 1.419 . S
C2009 C2010 1.363 . S
C2009 H2012 0.929 . S
C2010 C2009 1.363 . S
C2010 C2016 1.428 . S
H2011 C2007 0.930 . S
H2012 C2009 0.929 . S
S2013 N2014 1.613 . S
S2013 N2015 1.610 . S
N2014 S2013 1.613 . S
N2014 C2017 1.350 . S
N2015 S2013 1.610 . S
N2015 C2016 1.351 . S
C2016 C2010 1.428 . S
C2016 N2015 1.351 . S
C2016 C2017 1.434 . S
C2017 C2008 1.429 . S
C2017 N2014 1.350 . S
C2017 C2016 1.434 . S
C2018 C2019 1.369 . S
C2018 C2020 1.419 . S
C2018 H2022 0.930 . S
C2019 C2018 1.369 . S
C2019 C2028 1.429 . S
C2020 C2018 1.419 . S
C2020 C2021 1.363 . S
C2020 H2023 0.929 . S
C2021 C2020 1.363 . S
C2021 C2027 1.428 . S
H2022 C2018 0.930 . S
H2023 C2020 0.929 . S
S2024 N2025 1.613 . S
S2024 N2026 1.610 . S
N2025 S2024 1.613 . S
N2025 C2028 1.350 . S
N2026 S2024 1.610 . S
N2026 C2027 1.351 . S
C2027 C2021 1.428 . S
C2027 N2026 1.351 . S
C2027 C2028 1.434 . S
C2028 C2019 1.429 . S
C2028 N2025 1.350 . S
C2028 C2027 1.434 . S
C2029 C2030 1.369 . S
C2029 C2031 1.419 . S
C2029 H2033 0.930 . S
C2030 C2029 1.369 . S
C2030 C2039 1.429 . S
C2031 C2029 1.419 . S
C2031 C2032 1.363 . S
C2031 H2034 0.929 . S
C2032 C2031 1.363 . S
C2032 C2038 1.428 . S
H2033 C2029 0.930 . S
H2034 C2031 0.929 . S
S2035 N2036 1.613 . S
S2035 N2037 1.610 . S
N2036 S2035 1.613 . S
N2036 C2039 1.350 . S
N2037 S2035 1.610 . S
N2037 C2038 1.351 . S
C2038 C2032 1.428 . S
C2038 N2037 1.351 . S
C2038 C2039 1.434 . S
C2039 C2030 1.429 . S
C2039 N2036 1.350 . S
C2039 C2038 1.434 . S
C2040 C2041 1.369 . S
C2040 C2042 1.419 . S
C2040 H2044 0.930 . S
C2041 C2040 1.369 . S
C2041 C2050 1.429 . S
C2042 C2040 1.419 . S
C2042 C2043 1.363 . S
C2042 H2045 0.929 1_554 S
C2043 C2042 1.363 . S
C2043 C2049 1.428 . S
H2044 C2040 0.930 . S
H2045 C2042 0.929 1_556 S
S2046 N2047 1.613 . S
S2046 N2048 1.610 . S
N2047 S2046 1.613 . S
N2047 C2050 1.350 . S
N2048 S2046 1.610 . S
N2048 C2049 1.351 . S
C2049 C2043 1.428 . S
C2049 N2048 1.351 . S
C2049 C2050 1.434 . S
C2050 C2041 1.429 . S
C2050 N2047 1.350 . S
C2050 C2049 1.434 . S
C2051 C2052 1.369 . S
C2051 C2053 1.419 . S
C2051 H2055 0.930 . S
C2052 C2051 1.369 . S
C2052 C2061 1.429 . S
C2053 C2051 1.419 . S
C2053 C2054 1.363 . S
C2053 H2056 0.929 . S
C2054 C2053 1.363 . S
C2054 C2060 1.428 . S
H2055 C2051 0.930 . S
H2056 C2053 0.929 . S
S2057 N2058 1.613 1_565 S
S2057 N2059 1.610 . S
N2058 S2057 1.613 1_545 S
N2058 C2061 1.350 . S
N2059 S2057 1.610 . S
N2059 C2060 1.351 1_565 S
C2060 C2054 1.428 . S
C2060 N2059 1.351 1_545 S
C2060 C2061 1.434 . S
C2061 C2052 1.429 . S
C2061 N2058 1.350 . S
C2061 C2060 1.434 . S
C2062 C2063 1.369 . S
C2062 C2064 1.419 . S
C2062 H2066 0.930 . S
C2063 C2062 1.369 . S
C2063 C2072 1.429 . S
C2064 C2062 1.419 . S
C2064 C2065 1.363 . S
C2064 H2067 0.929 . S
C2065 C2064 1.363 . S
C2065 C2071 1.428 . S
H2066 C2062 0.930 . S
H2067 C2064 0.929 . S
S2068 N2069 1.613 . S
S2068 N2070 1.610 . S
N2069 S2068 1.613 . S
N2069 C2072 1.350 . S
N2070 S2068 1.610 . S
N2070 C2071 1.351 . S
C2071 C2065 1.428 . S
C2071 N2070 1.351 . S
C2071 C2072 1.434 . S
C2072 C2063 1.429 . S
C2072 N2069 1.350 . S
C2072 C2071 1.434 . S
C2073 C2074 1.369 . S
C2073 C2075 1.419 . S
C2073 H2077 0.930 . S
C2074 C2073 1.369 . S
C2074 C2083 1.429 . S
C2075 C2073 1.419 . S
C2075 C2076 1.363 . S
C2075 H2078 0.929 1_565 S
C2076 C2075 1.363 . S
C2076 C2082 1.428 . S
H2077 C2073 0.930 . S
H2078 C2075 0.929 1_545 S
S2079 N2080 1.613 . S
S2079 N2081 1.610 . S
N2080 S2079 1.613 . S
N2080 C2083 1.350 . S
N2081 S2079 1.610 . S
N2081 C2082 1.351 . S
C2082 C2076 1.428 . S
C2082 N2081 1.351 . S
C2082 C2083 1.434 . S
C2083 C2074 1.429 . S
C2083 N2080 1.350 . S
C2083 C2082 1.434 . S
C2084 C2085 1.369 . S
C2084 C2086 1.419 . S
C2084 H2088 0.930 . S
C2085 C2084 1.369 . S
C2085 C2094 1.429 . S
C2086 C2084 1.419 . S
C2086 C2087 1.363 . S
C2086 H2089 0.929 . S
C2087 C2086 1.363 . S
C2087 C2093 1.428 . S
H2088 C2084 0.930 . S
H2089 C2086 0.929 . S
S2090 N2091 1.613 . S
S2090 N2092 1.624 . S
N2091 S2090 1.613 . S
N2091 C2094 1.350 . S
N2092 S2090 1.624 . S
N2092 C2093 1.374 . S
C2093 C2087 1.428 . S
C2093 N2092 1.374 . S
C2093 C2094 1.434 . S
C2094 C2085 1.429 . S
C2094 N2091 1.350 . S
C2094 C2093 1.434 . S
C2095 C2096 1.369 . S
C2095 C2097 1.419 . S
C2095 H2099 0.930 . S
C2096 C2095 1.369 . S
C2096 C2105 1.429 . S
C2097 C2095 1.419 . S
C2097 C2098 1.363 . S
C2097 H2100 0.929 1_556 S
C2098 C2097 1.363 . S
C2098 C2104 1.428 . S
H2099 C2095 0.930 . S
H2100 C2097 0.929 1_554 S
S2101 N2102 1.613 . S
S2101 N2103 1.610 . S
N2102 S2101 1.613 . S
N2102 C2105 1.350 . S
N2103 S2101 1.610 . S
N2103 C2104 1.351 . S
C2104 C2098 1.428 . S
C2104 N2103 1.351 . S
C2104 C2105 1.434 . S
C2105 C2096 1.429 . S
C2105 N2102 1.350 . S
C2105 C2104 1.434 . S
C2106 C2107 1.369 . S
C2106 C2108 1.419 . S
C2106 H2110 0.930 . S
C2107 C2106 1.369 . S
C2107 C2116 1.429 . S
C2108 C2106 1.419 . S
C2108 C2109 1.363 . S
C2108 H2111 0.929 . S
C2109 C2108 1.363 . S
C2109 C2115 1.428 . S
H2110 C2106 0.930 . S
H2111 C2108 0.929 . S
S2112 N2113 1.613 1_455 S
S2112 N2114 1.610 . S
N2113 S2112 1.613 1_655 S
N2113 C2116 1.350 . S
N2114 S2112 1.610 . S
N2114 C2115 1.351 1_455 S
C2115 C2109 1.428 . S
C2115 N2114 1.351 1_655 S
C2115 C2116 1.434 . S
C2116 C2107 1.429 . S
C2116 N2113 1.350 . S
C2116 C2115 1.434 . S
C2117 C2118 1.369 . S
C2117 C2119 1.419 . S
C2117 H2121 0.930 . S
C2118 C2117 1.369 . S
C2118 C2127 1.429 . S
C2119 C2117 1.419 . S
C2119 C2120 1.363 . S
C2119 H2122 0.929 . S
C2120 C2119 1.363 . S
C2120 C2126 1.428 . S
H2121 C2117 0.930 . S
H2122 C2119 0.929 . S
S2123 N2124 1.613 . S
S2123 N2125 1.610 . S
N2124 S2123 1.613 . S
N2124 C2127 1.350 . S
N2125 S2123 1.610 . S
N2125 C2126 1.351 . S
C2126 C2120 1.428 . S
C2126 N2125 1.351 . S
C2126 C2127 1.434 . S
C2127 C2118 1.429 . S
C2127 N2124 1.350 . S
C2127 C2126 1.434 . S
C2128 C2129 1.369 . S
C2128 C2130 1.419 . S
C2128 H2132 0.930 . S
C2129 C2128 1.369 . S
C2129 C2138 1.429 . S
C2130 C2128 1.419 . S
C2130 C2131 1.363 . S
C2130 H2133 0.929 . S
C2131 C2130 1.363 . S
C2131 C2137 1.428 . S
H2132 C2128 0.930 . S
H2133 C2130 0.929 . S
S2134 N2135 1.613 . S
S2134 N2136 1.610 1_655 S
N2135 S2134 1.613 . S
N2135 C2138 1.350 . S
N2136 S2134 1.610 1_455 S
N2136 C2137 1.351 1_455 S
C2137 C2131 1.428 . S
C2137 N2136 1.351 1_655 S
C2137 C2138 1.434 . S
C2138 C2129 1.429 . S
C2138 N2135 1.350 . S
C2138 C2137 1.434 . S
C2139 C2140 1.369 . S
C2139 C2141 1.419 . S
C2139 H2143 0.930 . S
C2140 C2139 1.369 . S
C2140 C2149 1.429 . S
C2141 C2139 1.419 . S
C2141 C2142 1.363 . S
C2141 H2144 0.929 . S
C2142 C2141 1.363 . S
C2142 C2148 1.428 . S
H2143 C2139 0.930 . S
H2144 C2141 0.929 . S
S2145 N2146 1.613 . S
S2145 N2147 1.610 . S
N2146 S2145 1.613 . S
N2146 C2149 1.350 . S
N2147 S2145 1.610 . S
N2147 C2148 1.351 . S
C2148 C2142 1.428 . S
C2148 N2147 1.351 . S
C2148 C2149 1.434 . S
C2149 C2140 1.429 . S
C2149 N2146 1.350 . S
C2149 C2148 1.434 . S
C2150 C2151 1.369 . S
C2150 C2152 1.419 . S
C2150 H2154 0.930 . S
C2151 C2150 1.369 . S
C2151 C2160 1.429 . S
C2152 C2150 1.419 . S
C2152 C2153 1.363 . S
C2152 H2155 0.929 . S
C2153 C2152 1.363 . S
C2153 C2159 1.428 . S
H2154 C2150 0.930 . S
H2155 C2152 0.929 . S
S2156 N2157 1.613 . S
S2156 N2158 1.610 . S
N2157 S2156 1.613 . S
N2157 C2160 1.350 . S
N2158 S2156 1.610 . S
N2158 C2159 1.351 . S
C2159 C2153 1.428 . S
C2159 N2158 1.351 . S
C2159 C2160 1.434 . S
C2160 C2151 1.429 . S
C2160 N2157 1.350 . S
C2160 C2159 1.434 . S
C2161 C2162 1.369 . S
C2161 C2163 1.419 . S
C2161 H2165 0.930 . S
C2162 C2161 1.369 . S
C2162 C2171 1.429 . S
C2163 C2161 1.419 . S
C2163 C2164 1.363 . S
C2163 H2166 0.929 . S
C2164 C2163 1.363 . S
C2164 C2170 1.428 . S
H2165 C2161 0.930 . S
H2166 C2163 0.929 . S
S2167 N2168 1.613 . S
S2167 N2169 1.610 1_554 S
N2168 S2167 1.613 . S
N2168 C2171 1.350 1_554 S
N2169 S2167 1.610 1_556 S
N2169 C2170 1.351 . S
C2170 C2164 1.428 . S
C2170 N2169 1.351 . S
C2170 C2171 1.434 . S
C2171 C2162 1.429 . S
C2171 N2168 1.350 1_556 S
C2171 C2170 1.434 . S
C2172 C2173 1.369 . S
C2172 C2174 1.419 . S
C2172 H2176 0.930 . S
C2173 C2172 1.369 . S
C2173 C2182 1.429 . S
C2174 C2172 1.419 . S
C2174 C2175 1.363 . S
C2174 H2177 0.929 . S
C2175 C2174 1.363 . S
C2175 C2181 1.428 . S
H2176 C2172 0.930 . S
H2177 C2174 0.929 . S
S2178 N2179 1.613 . S
S2178 N2180 1.610 . S
N2179 S2178 1.613 . S
N2179 C2182 1.350 . S
N2180 S2178 1.610 . S
N2180 C2181 1.351 . S
C2181 C2175 1.428 . S
C2181 N2180 1.351 . S
C2181 C2182 1.434 . S
C2182 C2173 1.429 . S
C2182 N2179 1.350 . S
C2182 C2181 1.434 . S
C2183 C2184 1.369 . S
C2183 C2185 1.419 . S
C2183 H2187 0.930 . S
C2184 C2183 1.369 . S
C2184 C2193 1.429 . S
C2185 C2183 1.419 . S
C2185 C2186 1.363 . S
C2185 H2188 0.929 . S
C2186 C2185 1.363 . S
C2186 C2192 1.428 . S
H2187 C2183 0.930 . S
H2188 C2185 0.929 . S
S2189 N2190 1.613 . S
S2189 N2191 1.610 . S
N2190 S2189 1.613 . S
N2190 C2193 1.350 . S
N2191 S2189 1.610 . S
N2191 C2192 1.351 . S
C2192 C2186 1.428 . S
C2192 N2191 1.351 . S
C2192 C2193 1.434 . S
C2193 C2184 1.429 . S
C2193 N2190 1.350 . S
C2193 C2192 1.434 . S
C2194 C2195 1.369 . S
C2194 C2196 1.419 . S
C2194 H2198 0.930 . S
C2195 C2194 1.369 . S
C2195 C2204 1.429 . S
C2196 C2194 1.419 . S
C2196 C2197 1.363 . S
C2196 H2199 0.929 . S
C2197 C2196 1.363 . S
C2197 C2203 1.428 . S
H2198 C2194 0.930 . S
H2199 C2196 0.929 . S
S2200 N2201 1.613 . S
S2200 N2202 1.610 . S
N2201 S2200 1.613 . S
N2201 C2204 1.350 . S
N2202 S2200 1.610 . S
N2202 C2203 1.351 . S
C2203 C2197 1.428 . S
C2203 N2202 1.351 . S
C2203 C2204 1.434 . S
C2204 C2195 1.429 . S
C2204 N2201 1.350 . S
C2204 C2203 1.434 . S
C2205 C2206 1.369 . S
C2205 C2207 1.419 . S
C2205 H2209 0.930 . S
C2206 C2205 1.369 . S
C2206 C2215 1.429 . S
C2207 C2205 1.419 . S
C2207 C2208 1.363 . S
C2207 H2210 0.929 . S
C2208 C2207 1.363 . S
C2208 C2214 1.428 . S
H2209 C2205 0.930 . S
H2210 C2207 0.929 . S
S2211 N2212 1.613 . S
S2211 N2213 1.610 . S
N2212 S2211 1.613 . S
N2212 C2215 1.350 . S
N2213 S2211 1.610 . S
N2213 C2214 1.351 . S
C2214 C2208 1.428 . S
C2214 N2213 1.351 . S
C2214 C2215 1.434 . S
C2215 C2206 1.429 . S
C2215 N2212 1.350 . S
C2215 C2214 1.434 . S
C2216 C2217 1.369 . S
C2216 C2218 1.419 . S
C2216 H2220 0.930 . S
C2217 C2216 1.369 . S
C2217 C2226 1.429 . S
C2218 C2216 1.419 . S
C2218 C2219 1.363 . S
C2218 H2221 0.929 . S
C2219 C2218 1.363 . S
C2219 C2225 1.428 . S
H2220 C2216 0.930 . S
H2221 C2218 0.929 . S
S2222 N2223 1.613 . S
S2222 N2224 1.610 . S
N2223 S2222 1.613 . S
N2223 C2226 1.350 . S
N2224 S2222 1.610 . S
N2224 C2225 1.351 . S
C2225 C2219 1.428 . S
C2225 N2224 1.351 . S
C2225 C2226 1.434 . S
C2226 C2217 1.429 . S
C2226 N2223 1.350 . S
C2226 C2225 1.434 . S
C2227 C2228 1.369 . S
C2227 C2229 1.419 . S
C2227 H2231 0.930 . S
C2228 C2227 1.369 . S
C2228 C2237 1.429 . S
C2229 C2227 1.419 . S
C2229 C2230 1.363 . S
C2229 H2232 0.929 . S
C2230 C2229 1.363 . S
C2230 C2236 1.428 . S
H2231 C2227 0.930 . S
H2232 C2229 0.929 . S
S2233 N2234 1.613 . S
S2233 N2235 1.610 . S
N2234 S2233 1.613 . S
N2234 C2237 1.350 . S
N2235 S2233 1.610 . S
N2235 C2236 1.351 . S
C2236 C2230 1.428 . S
C2236 N2235 1.351 . S
C2236 C2237 1.434 . S
C2237 C2228 1.429 . S
C2237 N2234 1.350 . S
C2237 C2236 1.434 . S
C2238 C2239 1.369 . S
C2238 C2240 1.419 . S
C2238 H2242 0.930 . S
C2239 C2238 1.369 . S
C2239 C2248 1.429 . S
C2240 C2238 1.419 . S
C2240 C2241 1.363 . S
C2240 H2243 0.929 1_554 S
C2241 C2240 1.363 . S
C2241 C2247 1.428 . S
H2242 C2238 0.930 . S
H2243 C2240 0.929 1_556 S
S2244 N2245 1.613 . S
S2244 N2246 1.610 . S
N2245 S2244 1.613 . S
N2245 C2248 1.350 . S
N2246 S2244 1.610 . S
N2246 C2247 1.351 . S
C2247 C2241 1.428 . S
C2247 N2246 1.351 . S
C2247 C2248 1.434 . S
C2248 C2239 1.429 . S
C2248 N2245 1.350 . S
C2248 C2247 1.434 . S
C2249 C2250 1.369 . S
C2249 C2251 1.419 . S
C2249 H2253 0.930 . S
C2250 C2249 1.369 . S
C2250 C2259 1.429 . S
C2251 C2249 1.419 . S
C2251 C2252 1.363 . S
C2251 H2254 0.929 . S
C2252 C2251 1.363 . S
C2252 C2258 1.428 . S
H2253 C2249 0.930 . S
H2254 C2251 0.929 . S
S2255 N2256 1.613 . S
S2255 N2257 1.610 . S
N2256 S2255 1.613 . S
N2256 C2259 1.350 . S
N2257 S2255 1.610 . S
N2257 C2258 1.351 . S
C2258 C2252 1.428 . S
C2258 N2257 1.351 . S
C2258 C2259 1.434 . S
C2259 C2250 1.429 . S
C2259 N2256 1.350 . S
C2259 C2258 1.434 . S
C2260 C2261 1.369 . S
C2260 C2262 1.419 . S
C2260 H2264 0.930 . S
C2261 C2260 1.369 . S
C2261 C2270 1.429 . S
C2262 C2260 1.419 . S
C2262 C2263 1.363 . S
C2262 H2265 0.929 . S
C2263 C2262 1.363 . S
C2263 C2269 1.428 . S
H2264 C2260 0.930 . S
H2265 C2262 0.929 . S
S2266 N2267 1.613 . S
S2266 N2268 1.610 . S
N2267 S2266 1.613 . S
N2267 C2270 1.350 . S
N2268 S2266 1.610 . S
N2268 C2269 1.351 . S
C2269 C2263 1.428 . S
C2269 N2268 1.351 . S
C2269 C2270 1.434 . S
C2270 C2261 1.429 . S
C2270 N2267 1.350 . S
C2270 C2269 1.434 . S
C2271 C2272 1.369 . S
C2271 C2273 1.419 . S
C2271 H2275 0.930 . S
C2272 C2271 1.369 . S
C2272 C2281 1.429 . S
C2273 C2271 1.419 . S
C2273 C2274 1.363 . S
C2273 H2276 0.929 . S
C2274 C2273 1.363 . S
C2274 C2280 1.428 . S
H2275 C2271 0.930 . S
H2276 C2273 0.929 . S
S2277 N2278 1.613 . S
S2277 N2279 1.610 . S
N2278 S2277 1.613 . S
N2278 C2281 1.350 . S
N2279 S2277 1.610 . S
N2279 C2280 1.351 . S
C2280 C2274 1.428 . S
C2280 N2279 1.351 . S
C2280 C2281 1.434 . S
C2281 C2272 1.429 . S
C2281 N2278 1.350 . S
C2281 C2280 1.434 . S
C2282 C2283 1.369 . S
C2282 C2284 1.419 . S
C2282 H2286 0.930 . S
C2283 C2282 1.369 . S
C2283 C2292 1.429 . S
C2284 C2282 1.419 . S
C2284 C2285 1.363 . S
C2284 H2287 0.929 . S
C2285 C2284 1.363 . S
C2285 C2291 1.428 . S
H2286 C2282 0.930 . S
H2287 C2284 0.929 . S
S2288 N2289 1.613 . S
S2288 N2290 1.610 . S
N2289 S2288 1.613 . S
N2289 C2292 1.350 . S
N2290 S2288 1.610 . S
N2290 C2291 1.351 . S
C2291 C2285 1.428 . S
C2291 N2290 1.351 . S
C2291 C2292 1.434 . S
C2292 C2283 1.429 . S
C2292 N2289 1.350 . S
C2292 C2291 1.434 . S
C2293 C2294 1.369 . S
C2293 C2295 1.419 . S
C2293 H2297 0.930 . S
C2294 C2293 1.369 . S
C2294 C2303 1.429 . S
C2295 C2293 1.419 . S
C2295 C2296 1.363 . S
C2295 H2298 0.929 . S
C2296 C2295 1.363 . S
C2296 C2302 1.428 . S
H2297 C2293 0.930 . S
H2298 C2295 0.929 . S
S2299 N2300 1.613 . S
S2299 N2301 1.610 . S
N2300 S2299 1.613 . S
N2300 C2303 1.350 . S
N2301 S2299 1.610 . S
N2301 C2302 1.351 . S
C2302 C2296 1.428 . S
C2302 N2301 1.351 . S
C2302 C2303 1.434 . S
C2303 C2294 1.429 . S
C2303 N2300 1.350 . S
C2303 C2302 1.434 . S
C2304 C2305 1.369 . S
C2304 C2306 1.419 . S
C2304 H2308 0.930 . S
C2305 C2304 1.369 . S
C2305 C2314 1.429 . S
C2306 C2304 1.419 . S
C2306 C2307 1.363 . S
C2306 H2309 0.929 . S
C2307 C2306 1.363 . S
C2307 C2313 1.428 . S
H2308 C2304 0.930 . S
H2309 C2306 0.929 . S
S2310 N2311 1.613 1_655 S
S2310 N2312 1.610 1_655 S
N2311 S2310 1.613 1_455 S
N2311 C2314 1.350 . S
N2312 S2310 1.610 1_455 S
N2312 C2313 1.351 . S
C2313 C2307 1.428 . S
C2313 N2312 1.351 . S
C2313 C2314 1.434 . S
C2314 C2305 1.429 . S
C2314 N2311 1.350 . S
C2314 C2313 1.434 . S
C2315 C2316 1.369 . S
C2315 C2317 1.419 . S
C2315 H2319 0.930 . S
C2316 C2315 1.369 . S
C2316 C2325 1.429 . S
C2317 C2315 1.419 . S
C2317 C2318 1.363 . S
C2317 H2320 0.929 . S
C2318 C2317 1.363 . S
C2318 C2324 1.428 . S
H2319 C2315 0.930 . S
H2320 C2317 0.929 . S
S2321 N2322 1.613 . S
S2321 N2323 1.610 . S
N2322 S2321 1.613 . S
N2322 C2325 1.350 . S
N2323 S2321 1.610 . S
N2323 C2324 1.351 . S
C2324 C2318 1.428 . S
C2324 N2323 1.351 . S
C2324 C2325 1.434 . S
C2325 C2316 1.429 . S
C2325 N2322 1.350 . S
C2325 C2324 1.434 . S
C2326 C2327 1.369 . S
C2326 C2328 1.419 . S
C2326 H2330 0.930 . S
C2327 C2326 1.369 . S
C2327 C2336 1.429 . S
C2328 C2326 1.419 . S
C2328 C2329 1.363 . S
C2328 H2331 0.929 . S
C2329 C2328 1.363 . S
C2329 C2335 1.428 . S
H2330 C2326 0.930 . S
H2331 C2328 0.929 . S
S2332 N2333 1.613 . S
S2332 N2334 1.610 . S
N2333 S2332 1.613 . S
N2333 C2336 1.350 . S
N2334 S2332 1.610 . S
N2334 C2335 1.351 . S
C2335 C2329 1.428 . S
C2335 N2334 1.351 . S
C2335 C2336 1.434 . S
C2336 C2327 1.429 . S
C2336 N2333 1.350 . S
C2336 C2335 1.434 . S
C2337 C2338 1.369 . S
C2337 C2339 1.419 . S
C2337 H2341 0.930 . S
C2338 C2337 1.369 . S
C2338 C2347 1.429 . S
C2339 C2337 1.419 . S
C2339 C2340 1.363 . S
C2339 H2342 0.929 . S
C2340 C2339 1.363 . S
C2340 C2346 1.428 . S
H2341 C2337 0.930 . S
H2342 C2339 0.929 . S
S2343 N2344 1.613 . S
S2343 N2345 1.610 . S
N2344 S2343 1.613 . S
N2344 C2347 1.350 . S
N2345 S2343 1.610 . S
N2345 C2346 1.351 . S
C2346 C2340 1.428 . S
C2346 N2345 1.351 . S
C2346 C2347 1.434 . S
C2347 C2338 1.429 . S
C2347 N2344 1.350 . S
C2347 C2346 1.434 . S
C2348 C2349 1.369 . S
C2348 C2350 1.419 . S
C2348 H2352 0.930 . S
C2349 C2348 1.369 . S
C2349 C2358 1.429 . S
C2350 C2348 1.419 . S
C2350 C2351 1.363 . S
C2350 H2353 0.929 . S
C2351 C2350 1.363 . S
C2351 C2357 1.428 . S
H2352 C2348 0.930 . S
H2353 C2350 0.929 . S
S2354 N2355 1.613 . S
S2354 N2356 1.610 . S
N2355 S2354 1.613 . S
N2355 C2358 1.350 . S
N2356 S2354 1.610 . S
N2356 C2357 1.351 . S
C2357 C2351 1.428 . S
C2357 N2356 1.351 . S
C2357 C2358 1.434 . S
C2358 C2349 1.429 . S
C2358 N2355 1.350 . S
C2358 C2357 1.434 . S
C2359 C2360 1.369 . S
C2359 C2361 1.419 . S
C2359 H2363 0.930 . S
C2360 C2359 1.369 . S
C2360 C2369 1.429 . S
C2361 C2359 1.419 . S
C2361 C2362 1.363 . S
C2361 H2364 0.929 . S
C2362 C2361 1.363 . S
C2362 C2368 1.428 . S
H2363 C2359 0.930 . S
H2364 C2361 0.929 . S
S2365 N2366 1.613 . S
S2365 N2367 1.610 . S
N2366 S2365 1.613 . S
N2366 C2369 1.350 . S
N2367 S2365 1.610 . S
N2367 C2368 1.351 . S
C2368 C2362 1.428 . S
C2368 N2367 1.351 . S
C2368 C2369 1.434 . S
C2369 C2360 1.429 . S
C2369 N2366 1.350 . S
C2369 C2368 1.434 . S
C2370 C2371 1.369 . S
C2370 C2372 1.419 . S
C2370 H2374 0.930 . S
C2371 C2370 1.369 . S
C2371 C2380 1.429 . S
C2372 C2370 1.419 . S
C2372 C2373 1.363 . S
C2372 H2375 0.929 . S
C2373 C2372 1.363 . S
C2373 C2379 1.428 . S
H2374 C2370 0.930 . S
H2375 C2372 0.929 . S
S2376 N2377 1.613 . S
S2376 N2378 1.610 . S
N2377 S2376 1.613 . S
N2377 C2380 1.350 . S
N2378 S2376 1.610 . S
N2378 C2379 1.351 . S
C2379 C2373 1.428 . S
C2379 N2378 1.351 . S
C2379 C2380 1.434 . S
C2380 C2371 1.429 . S
C2380 N2377 1.350 . S
C2380 C2379 1.434 . S
C2381 C2382 1.369 . S
C2381 C2383 1.419 . S
C2381 H2385 0.930 . S
C2382 C2381 1.369 . S
C2382 C2391 1.429 . S
C2383 C2381 1.419 . S
C2383 C2384 1.363 . S
C2383 H2386 0.929 . S
C2384 C2383 1.363 . S
C2384 C2390 1.428 . S
H2385 C2381 0.930 . S
H2386 C2383 0.929 . S
S2387 N2388 1.613 . S
S2387 N2389 1.610 . S
N2388 S2387 1.613 . S
N2388 C2391 1.350 . S
N2389 S2387 1.610 . S
N2389 C2390 1.351 . S
C2390 C2384 1.428 . S
C2390 N2389 1.351 . S
C2390 C2391 1.434 . S
C2391 C2382 1.429 . S
C2391 N2388 1.350 . S
C2391 C2390 1.434 . S
C2392 C2393 1.369 . S
C2392 C2394 1.419 . S
C2392 H2396 0.930 . S
C2393 C2392 1.369 . S
C2393 C2402 1.429 . S
C2394 C2392 1.419 . S
C2394 C2395 1.363 . S
C2394 H2397 0.929 . S
C2395 C2394 1.363 . S
C2395 C2401 1.428 . S
H2396 C2392 0.930 . S
H2397 C2394 0.929 . S
S2398 N2399 1.613 . S
S2398 N2400 1.610 . S
N2399 S2398 1.613 . S
N2399 C2402 1.350 . S
N2400 S2398 1.610 . S
N2400 C2401 1.351 . S
C2401 C2395 1.428 . S
C2401 N2400 1.351 . S
C2401 C2402 1.434 . S
C2402 C2393 1.429 . S
C2402 N2399 1.350 . S
C2402 C2401 1.434 . S
C2403 C2404 1.369 . S
C2403 C2405 1.419 . S
C2403 H2407 0.930 . S
C2404 C2403 1.369 . S
C2404 C2413 1.429 . S
C2405 C2403 1.419 . S
C2405 C2406 1.363 . S
C2405 H2408 0.929 . S
C2406 C2405 1.363 . S
C2406 C2412 1.428 . S
H2407 C2403 0.930 . S
H2408 C2405 0.929 . S
S2409 N2410 1.613 . S
S2409 N2411 1.610 . S
N2410 S2409 1.613 . S
N2410 C2413 1.350 . S
N2411 S2409 1.610 . S
N2411 C2412 1.351 . S
C2412 C2406 1.428 . S
C2412 N2411 1.351 . S
C2412 C2413 1.434 . S
C2413 C2404 1.429 . S
C2413 N2410 1.350 . S
C2413 C2412 1.434 . S
C2414 C2415 1.369 . S
C2414 C2416 1.419 . S
C2414 H2418 0.930 . S
C2415 C2414 1.369 . S
C2415 C2424 1.429 . S
C2416 C2414 1.419 . S
C2416 C2417 1.363 . S
C2416 H2419 0.929 . S
C2417 C2416 1.363 . S
C2417 C2423 1.428 . S
H2418 C2414 0.930 . S
H2419 C2416 0.929 . S
S2420 N2421 1.613 1_545 S
S2420 N2422 1.610 1_545 S
N2421 S2420 1.613 1_565 S
N2421 C2424 1.350 . S
N2422 S2420 1.610 1_565 S
N2422 C2423 1.351 . S
C2423 C2417 1.428 . S
C2423 N2422 1.351 . S
C2423 C2424 1.434 . S
C2424 C2415 1.429 . S
C2424 N2421 1.350 . S
C2424 C2423 1.434 . S
C2425 C2426 1.369 . S
C2425 C2427 1.419 . S
C2425 H2429 0.930 . S
C2426 C2425 1.369 . S
C2426 C2435 1.429 . S
C2427 C2425 1.419 . S
C2427 C2428 1.363 . S
C2427 H2430 0.929 . S
C2428 C2427 1.363 . S
C2428 C2434 1.428 . S
H2429 C2425 0.930 . S
H2430 C2427 0.929 . S
S2431 N2432 1.613 . S
S2431 N2433 1.610 . S
N2432 S2431 1.613 . S
N2432 C2435 1.350 . S
N2433 S2431 1.610 . S
N2433 C2434 1.351 . S
C2434 C2428 1.428 . S
C2434 N2433 1.351 . S
C2434 C2435 1.434 . S
C2435 C2426 1.429 . S
C2435 N2432 1.350 . S
C2435 C2434 1.434 . S
C2436 C2437 1.369 . S
C2436 C2438 1.419 . S
C2436 H2440 0.930 . S
C2437 C2436 1.369 . S
C2437 C2446 1.429 . S
C2438 C2436 1.419 . S
C2438 C2439 1.363 . S
C2438 H2441 0.929 . S
C2439 C2438 1.363 . S
C2439 C2445 1.428 . S
H2440 C2436 0.930 . S
H2441 C2438 0.929 . S
S2442 N2443 1.613 1_545 S
S2442 N2444 1.610 1_545 S
N2443 S2442 1.613 1_565 S
N2443 C2446 1.350 . S
N2444 S2442 1.610 1_565 S
N2444 C2445 1.351 . S
C2445 C2439 1.428 . S
C2445 N2444 1.351 . S
C2445 C2446 1.434 . S
C2446 C2437 1.429 . S
C2446 N2443 1.350 . S
C2446 C2445 1.434 . S
C2447 C2448 1.369 . S
C2447 C2449 1.419 . S
C2447 H2451 0.930 . S
C2448 C2447 1.369 . S
C2448 C2457 1.429 . S
C2449 C2447 1.419 . S
C2449 C2450 1.363 . S
C2449 H2452 0.929 . S
C2450 C2449 1.363 . S
C2450 C2456 1.428 . S
H2451 C2447 0.930 . S
H2452 C2449 0.929 . S
S2453 N2454 1.613 . S
S2453 N2455 1.610 . S
N2454 S2453 1.613 . S
N2454 C2457 1.350 . S
N2455 S2453 1.610 . S
N2455 C2456 1.351 . S
C2456 C2450 1.428 . S
C2456 N2455 1.351 . S
C2456 C2457 1.434 . S
C2457 C2448 1.429 . S
C2457 N2454 1.350 . S
C2457 C2456 1.434 . S
C2458 C2459 1.369 . S
C2458 C2460 1.419 . S
C2458 H2462 0.930 . S
C2459 C2458 1.369 . S
C2459 C2468 1.429 . S
C2460 C2458 1.419 . S
C2460 C2461 1.363 . S
C2460 H2463 0.929 . S
C2461 C2460 1.363 . S
C2461 C2467 1.428 . S
H2462 C2458 0.930 . S
H2463 C2460 0.929 . S
S2464 N2465 1.613 . S
S2464 N2466 1.610 . S
N2465 S2464 1.613 . S
N2465 C2468 1.350 . S
N2466 S2464 1.610 . S
N2466 C2467 1.351 . S
C2467 C2461 1.428 . S
C2467 N2466 1.351 . S
C2467 C2468 1.434 . S
C2468 C2459 1.429 . S
C2468 N2465 1.350 . S
C2468 C2467 1.434 . S
C2469 C2470 1.369 . S
C2469 C2471 1.419 . S
C2469 H2473 0.930 . S
C2470 C2469 1.369 . S
C2470 C2479 1.429 . S
C2471 C2469 1.419 . S
C2471 C2472 1.363 . S
C2471 H2474 0.929 . S
C2472 C2471 1.363 . S
C2472 C2478 1.428 . S
H2473 C2469 0.930 . S
H2474 C2471 0.929 . S
S2475 N2476 1.613 . S
S2475 N2477 1.610 . S
N2476 S2475 1.613 . S
N2476 C2479 1.350 . S
N2477 S2475 1.610 . S
N2477 C2478 1.351 . S
C2478 C2472 1.428 . S
C2478 N2477 1.351 . S
C2478 C2479 1.434 . S
C2479 C2470 1.429 . S
C2479 N2476 1.350 . S
C2479 C2478 1.434 . S
C2480 C2481 1.369 . S
C2480 C2482 1.419 . S
C2480 H2484 0.930 . S
C2481 C2480 1.369 . S
C2481 C2490 1.429 . S
C2482 C2480 1.419 . S
C2482 C2483 1.363 . S
C2482 H2485 0.929 . S
C2483 C2482 1.363 . S
C2483 C2489 1.428 . S
H2484 C2480 0.930 . S
H2485 C2482 0.929 . S
S2486 N2487 1.613 . S
S2486 N2488 1.610 . S
N2487 S2486 1.613 . S
N2487 C2490 1.350 . S
N2488 S2486 1.610 . S
N2488 C2489 1.351 . S
C2489 C2483 1.428 . S
C2489 N2488 1.351 . S
C2489 C2490 1.434 . S
C2490 C2481 1.429 . S
C2490 N2487 1.350 . S
C2490 C2489 1.434 . S
C2491 C2492 1.369 . S
C2491 C2493 1.419 . S
C2491 H2495 0.930 . S
C2492 C2491 1.369 . S
C2492 C2501 1.429 . S
C2493 C2491 1.419 . S
C2493 C2494 1.363 . S
C2493 H2496 0.929 . S
C2494 C2493 1.363 . S
C2494 C2500 1.428 . S
H2495 C2491 0.930 . S
H2496 C2493 0.929 . S
S2497 N2498 1.613 . S
S2497 N2499 1.610 . S
N2498 S2497 1.613 . S
N2498 C2501 1.350 . S
N2499 S2497 1.610 . S
N2499 C2500 1.351 . S
C2500 C2494 1.428 . S
C2500 N2499 1.351 . S
C2500 C2501 1.434 . S
C2501 C2492 1.429 . S
C2501 N2498 1.350 . S
C2501 C2500 1.434 . S
C2502 C2503 1.369 . S
C2502 C2504 1.419 . S
C2502 H2506 0.930 . S
C2503 C2502 1.369 . S
C2503 C2512 1.429 . S
C2504 C2502 1.419 . S
C2504 C2505 1.363 . S
C2504 H2507 0.929 . S
C2505 C2504 1.363 . S
C2505 C2511 1.428 . S
H2506 C2502 0.930 . S
H2507 C2504 0.929 . S
S2508 N2509 1.613 . S
S2508 N2510 1.610 . S
N2509 S2508 1.613 . S
N2509 C2512 1.350 . S
N2510 S2508 1.610 . S
N2510 C2511 1.351 . S
C2511 C2505 1.428 . S
C2511 N2510 1.351 . S
C2511 C2512 1.434 . S
C2512 C2503 1.429 . S
C2512 N2509 1.350 . S
C2512 C2511 1.434 . S
C2513 C2514 1.369 . S
C2513 C2515 1.419 . S
C2513 H2517 0.930 . S
C2514 C2513 1.369 . S
C2514 C2523 1.429 . S
C2515 C2513 1.419 . S
C2515 C2516 1.363 . S
C2515 H2518 0.929 . S
C2516 C2515 1.363 . S
C2516 C2522 1.428 . S
H2517 C2513 0.930 . S
H2518 C2515 0.929 . S
S2519 N2520 1.613 . S
S2519 N2521 1.610 . S
N2520 S2519 1.613 . S
N2520 C2523 1.350 . S
N2521 S2519 1.610 . S
N2521 C2522 1.351 . S
C2522 C2516 1.428 . S
C2522 N2521 1.351 . S
C2522 C2523 1.434 . S
C2523 C2514 1.429 . S
C2523 N2520 1.350 . S
C2523 C2522 1.434 . S
C2524 C2525 1.369 . S
C2524 C2526 1.419 . S
C2524 H2528 0.930 . S
C2525 C2524 1.369 . S
C2525 C2534 1.429 . S
C2526 C2524 1.419 . S
C2526 C2527 1.363 . S
C2526 H2529 0.929 . S
C2527 C2526 1.363 . S
C2527 C2533 1.428 . S
H2528 C2524 0.930 . S
H2529 C2526 0.929 . S
S2530 N2531 1.613 . S
S2530 N2532 1.610 . S
N2531 S2530 1.613 . S
N2531 C2534 1.350 . S
N2532 S2530 1.610 . S
N2532 C2533 1.351 . S
C2533 C2527 1.428 . S
C2533 N2532 1.351 . S
C2533 C2534 1.434 . S
C2534 C2525 1.429 . S
C2534 N2531 1.350 . S
C2534 C2533 1.434 . S
C2535 C2536 1.369 . S
C2535 C2537 1.419 . S
C2535 H2539 0.930 . S
C2536 C2535 1.369 . S
C2536 C2545 1.429 . S
C2537 C2535 1.419 . S
C2537 C2538 1.363 . S
C2537 H2540 0.929 . S
C2538 C2537 1.363 . S
C2538 C2544 1.428 . S
H2539 C2535 0.930 . S
H2540 C2537 0.929 . S
S2541 N2542 1.613 . S
S2541 N2543 1.610 . S
N2542 S2541 1.613 . S
N2542 C2545 1.350 . S
N2543 S2541 1.610 . S
N2543 C2544 1.351 . S
C2544 C2538 1.428 . S
C2544 N2543 1.351 . S
C2544 C2545 1.434 . S
C2545 C2536 1.429 . S
C2545 N2542 1.350 . S
C2545 C2544 1.434 . S
C2546 C2547 1.369 . S
C2546 C2548 1.419 . S
C2546 H2550 0.930 . S
C2547 C2546 1.369 . S
C2547 C2556 1.429 . S
C2548 C2546 1.419 . S
C2548 C2549 1.363 . S
C2548 H2551 0.929 . S
C2549 C2548 1.363 . S
C2549 C2555 1.428 . S
H2550 C2546 0.930 . S
H2551 C2548 0.929 . S
S2552 N2553 1.613 . S
S2552 N2554 1.610 . S
N2553 S2552 1.613 . S
N2553 C2556 1.350 . S
N2554 S2552 1.610 . S
N2554 C2555 1.351 . S
C2555 C2549 1.428 . S
C2555 N2554 1.351 . S
C2555 C2556 1.434 . S
C2556 C2547 1.429 . S
C2556 N2553 1.350 . S
C2556 C2555 1.434 . S
C2557 C2558 1.369 . S
C2557 C2559 1.419 . S
C2557 H2561 0.930 . S
C2558 C2557 1.369 . S
C2558 C2567 1.429 . S
C2559 C2557 1.419 . S
C2559 C2560 1.363 . S
C2559 H2562 0.929 . S
C2560 C2559 1.363 . S
C2560 C2566 1.428 . S
H2561 C2557 0.930 . S
H2562 C2559 0.929 . S
S2563 N2564 1.613 . S
S2563 N2565 1.610 . S
N2564 S2563 1.613 . S
N2564 C2567 1.350 . S
N2565 S2563 1.610 . S
N2565 C2566 1.351 . S
C2566 C2560 1.428 . S
C2566 N2565 1.351 . S
C2566 C2567 1.434 . S
C2567 C2558 1.429 . S
C2567 N2564 1.350 . S
C2567 C2566 1.434 . S
C2568 C2569 1.369 . S
C2568 C2570 1.419 . S
C2568 H2572 0.930 . S
C2569 C2568 1.369 . S
C2569 C2578 1.429 . S
C2570 C2568 1.419 . S
C2570 C2571 1.363 . S
C2570 H2573 0.929 . S
C2571 C2570 1.363 . S
C2571 C2577 1.428 . S
H2572 C2568 0.930 . S
H2573 C2570 0.929 . S
S2574 N2575 1.613 . S
S2574 N2576 1.610 . S
N2575 S2574 1.613 . S
N2575 C2578 1.350 . S
N2576 S2574 1.610 . S
N2576 C2577 1.351 . S
C2577 C2571 1.428 . S
C2577 N2576 1.351 . S
C2577 C2578 1.434 . S
C2578 C2569 1.429 . S
C2578 N2575 1.350 . S
C2578 C2577 1.434 . S
C2579 C2580 1.369 . S
C2579 C2581 1.419 . S
C2579 H2583 0.930 . S
C2580 C2579 1.369 . S
C2580 C2589 1.429 . S
C2581 C2579 1.419 . S
C2581 C2582 1.363 . S
C2581 H2584 0.929 . S
C2582 C2581 1.363 . S
C2582 C2588 1.428 . S
H2583 C2579 0.930 . S
H2584 C2581 0.929 . S
S2585 N2586 1.613 . S
S2585 N2587 1.610 . S
N2586 S2585 1.613 . S
N2586 C2589 1.350 . S
N2587 S2585 1.610 . S
N2587 C2588 1.351 . S
C2588 C2582 1.428 . S
C2588 N2587 1.351 . S
C2588 C2589 1.434 . S
C2589 C2580 1.429 . S
C2589 N2586 1.350 . S
C2589 C2588 1.434 . S
C2590 C2591 1.369 . S
C2590 C2592 1.419 . S
C2590 H2594 0.930 . S
C2591 C2590 1.369 . S
C2591 C2600 1.429 . S
C2592 C2590 1.419 . S
C2592 C2593 1.363 . S
C2592 H2595 0.929 . S
C2593 C2592 1.363 . S
C2593 C2599 1.428 . S
H2594 C2590 0.930 . S
H2595 C2592 0.929 . S
S2596 N2597 1.613 . S
S2596 N2598 1.610 . S
N2597 S2596 1.613 . S
N2597 C2600 1.350 . S
N2598 S2596 1.610 . S
N2598 C2599 1.351 . S
C2599 C2593 1.428 . S
C2599 N2598 1.351 . S
C2599 C2600 1.434 . S
C2600 C2591 1.429 . S
C2600 N2597 1.350 . S
C2600 C2599 1.434 . S
C2601 C2602 1.369 . S
C2601 C2603 1.419 . S
C2601 H2605 0.930 . S
C2602 C2601 1.369 . S
C2602 C2611 1.429 . S
C2603 C2601 1.419 . S
C2603 C2604 1.363 . S
C2603 H2606 0.929 . S
C2604 C2603 1.363 . S
C2604 C2610 1.428 . S
H2605 C2601 0.930 . S
H2606 C2603 0.929 . S
S2607 N2608 1.613 . S
S2607 N2609 1.610 . S
N2608 S2607 1.613 . S
N2608 C2611 1.350 . S
N2609 S2607 1.610 . S
N2609 C2610 1.351 . S
C2610 C2604 1.428 . S
C2610 N2609 1.351 . S
C2610 C2611 1.434 . S
C2611 C2602 1.429 . S
C2611 N2608 1.350 . S
C2611 C2610 1.434 . S
C2612 C2613 1.369 . S
C2612 C2614 1.419 . S
C2612 H2616 0.930 . S
C2613 C2612 1.369 . S
C2613 C2622 1.429 . S
C2614 C2612 1.419 . S
C2614 C2615 1.363 . S
C2614 H2617 0.929 . S
C2615 C2614 1.363 . S
C2615 C2621 1.428 . S
H2616 C2612 0.930 . S
H2617 C2614 0.929 . S
S2618 N2619 1.613 . S
S2618 N2620 1.610 . S
N2619 S2618 1.613 . S
N2619 C2622 1.350 . S
N2620 S2618 1.610 . S
N2620 C2621 1.351 . S
C2621 C2615 1.428 . S
C2621 N2620 1.351 . S
C2621 C2622 1.434 . S
C2622 C2613 1.429 . S
C2622 N2619 1.350 . S
C2622 C2621 1.434 . S
C2623 C2624 1.369 . S
C2623 C2625 1.419 . S
C2623 H2627 0.930 . S
C2624 C2623 1.369 . S
C2624 C2633 1.429 . S
C2625 C2623 1.419 . S
C2625 C2626 1.363 . S
C2625 H2628 0.929 . S
C2626 C2625 1.363 . S
C2626 C2632 1.428 . S
H2627 C2623 0.930 . S
H2628 C2625 0.929 . S
S2629 N2630 1.613 . S
S2629 N2631 1.610 . S
N2630 S2629 1.613 . S
N2630 C2633 1.350 . S
N2631 S2629 1.610 . S
N2631 C2632 1.351 . S
C2632 C2626 1.428 . S
C2632 N2631 1.351 . S
C2632 C2633 1.434 . S
C2633 C2624 1.429 . S
C2633 N2630 1.350 . S
C2633 C2632 1.434 . S
C2634 C2635 1.369 . S
C2634 C2636 1.419 . S
C2634 H2638 0.930 . S
C2635 C2634 1.369 . S
C2635 C2644 1.429 . S
C2636 C2634 1.419 . S
C2636 C2637 1.363 . S
C2636 H2639 0.929 . S
C2637 C2636 1.363 . S
C2637 C2643 1.428 . S
H2638 C2634 0.930 . S
H2639 C2636 0.929 . S
S2640 N2641 1.613 . S
S2640 N2642 1.610 . S
N2641 S2640 1.613 . S
N2641 C2644 1.350 . S
N2642 S2640 1.610 . S
N2642 C2643 1.351 . S
C2643 C2637 1.428 . S
C2643 N2642 1.351 . S
C2643 C2644 1.434 . S
C2644 C2635 1.429 . S
C2644 N2641 1.350 . S
C2644 C2643 1.434 . S
C2645 C2646 1.369 . S
C2645 C2647 1.419 . S
C2645 H2649 0.930 . S
C2646 C2645 1.369 . S
C2646 C2655 1.429 . S
C2647 C2645 1.419 . S
C2647 C2648 1.363 . S
C2647 H2650 0.929 . S
C2648 C2647 1.363 . S
C2648 C2654 1.428 . S
H2649 C2645 0.930 . S
H2650 C2647 0.929 . S
S2651 N2652 1.613 . S
S2651 N2653 1.610 . S
N2652 S2651 1.613 . S
N2652 C2655 1.350 . S
N2653 S2651 1.610 . S
N2653 C2654 1.351 . S
C2654 C2648 1.428 . S
C2654 N2653 1.351 . S
C2654 C2655 1.434 . S
C2655 C2646 1.429 . S
C2655 N2652 1.350 . S
C2655 C2654 1.434 . S
C2656 C2657 1.369 . S
C2656 C2658 1.419 . S
C2656 H2660 0.930 . S
C2657 C2656 1.369 . S
C2657 C2666 1.429 . S
C2658 C2656 1.419 . S
C2658 C2659 1.363 . S
C2658 H2661 0.929 . S
C2659 C2658 1.363 . S
C2659 C2665 1.428 . S
H2660 C2656 0.930 . S
H2661 C2658 0.929 . S
S2662 N2663 1.613 . S
S2662 N2664 1.610 . S
N2663 S2662 1.613 . S
N2663 C2666 1.350 . S
N2664 S2662 1.610 . S
N2664 C2665 1.351 . S
C2665 C2659 1.428 . S
C2665 N2664 1.351 . S
C2665 C2666 1.434 . S
C2666 C2657 1.429 . S
C2666 N2663 1.350 . S
C2666 C2665 1.434 . S
C2667 C2668 1.369 . S
C2667 C2669 1.419 . S
C2667 H2671 0.930 . S
C2668 C2667 1.369 . S
C2668 C2677 1.429 . S
C2669 C2667 1.419 . S
C2669 C2670 1.363 . S
C2669 H2672 0.929 . S
C2670 C2669 1.363 . S
C2670 C2676 1.428 . S
H2671 C2667 0.930 . S
H2672 C2669 0.929 . S
S2673 N2674 1.613 . S
S2673 N2675 1.610 . S
N2674 S2673 1.613 . S
N2674 C2677 1.350 . S
N2675 S2673 1.610 . S
N2675 C2676 1.351 . S
C2676 C2670 1.428 . S
C2676 N2675 1.351 . S
C2676 C2677 1.434 . S
C2677 C2668 1.429 . S
C2677 N2674 1.350 . S
C2677 C2676 1.434 . S
C2678 C2679 1.369 . S
C2678 C2680 1.419 . S
C2678 H2682 0.930 . S
C2679 C2678 1.369 . S
C2679 C2688 1.429 . S
C2680 C2678 1.419 . S
C2680 C2681 1.363 . S
C2680 H2683 0.929 . S
C2681 C2680 1.363 . S
C2681 C2687 1.428 . S
H2682 C2678 0.930 . S
H2683 C2680 0.929 . S
S2684 N2685 1.613 . S
S2684 N2686 1.610 . S
N2685 S2684 1.613 . S
N2685 C2688 1.350 . S
N2686 S2684 1.610 . S
N2686 C2687 1.351 . S
C2687 C2681 1.428 . S
C2687 N2686 1.351 . S
C2687 C2688 1.434 . S
C2688 C2679 1.429 . S
C2688 N2685 1.350 . S
C2688 C2687 1.434 . S
C2689 C2690 1.369 . S
C2689 C2691 1.419 . S
C2689 H2693 0.930 . S
C2690 C2689 1.369 . S
C2690 C2699 1.429 . S
C2691 C2689 1.419 . S
C2691 C2692 1.363 . S
C2691 H2694 0.929 . S
C2692 C2691 1.363 . S
C2692 C2698 1.428 . S
H2693 C2689 0.930 . S
H2694 C2691 0.929 . S
S2695 N2696 1.613 . S
S2695 N2697 1.610 . S
N2696 S2695 1.613 . S
N2696 C2699 1.350 . S
N2697 S2695 1.610 . S
N2697 C2698 1.351 . S
C2698 C2692 1.428 . S
C2698 N2697 1.351 . S
C2698 C2699 1.434 . S
C2699 C2690 1.429 . S
C2699 N2696 1.350 . S
C2699 C2698 1.434 . S
C2700 C2701 1.369 . S
C2700 C2702 1.419 . S
C2700 H2704 0.930 . S
C2701 C2700 1.369 . S
C2701 C2710 1.429 . S
C2702 C2700 1.419 . S
C2702 C2703 1.363 . S
C2702 H2705 0.929 . S
C2703 C2702 1.363 . S
C2703 C2709 1.428 . S
H2704 C2700 0.930 . S
H2705 C2702 0.929 . S
S2706 N2707 1.613 . S
S2706 N2708 1.610 . S
N2707 S2706 1.613 . S
N2707 C2710 1.350 . S
N2708 S2706 1.610 . S
N2708 C2709 1.351 . S
C2709 C2703 1.428 . S
C2709 N2708 1.351 . S
C2709 C2710 1.434 . S
C2710 C2701 1.429 . S
C2710 N2707 1.350 . S
C2710 C2709 1.434 . S
C2711 C2712 1.369 . S
C2711 C2713 1.419 . S
C2711 H2715 0.930 . S
C2712 C2711 1.369 . S
C2712 C2721 1.429 . S
C2713 C2711 1.419 . S
C2713 C2714 1.363 . S
C2713 H2716 0.929 . S
C2714 C2713 1.363 . S
C2714 C2720 1.428 . S
H2715 C2711 0.930 . S
H2716 C2713 0.929 . S
S2717 N2718 1.613 . S
S2717 N2719 1.610 . S
N2718 S2717 1.613 . S
N2718 C2721 1.350 . S
N2719 S2717 1.610 . S
N2719 C2720 1.351 . S
C2720 C2714 1.428 . S
C2720 N2719 1.351 . S
C2720 C2721 1.434 . S
C2721 C2712 1.429 . S
C2721 N2718 1.350 . S
C2721 C2720 1.434 . S
C2722 C2723 1.369 . S
C2722 C2724 1.419 . S
C2722 H2726 0.930 . S
C2723 C2722 1.369 . S
C2723 C2732 1.429 . S
C2724 C2722 1.419 . S
C2724 C2725 1.363 . S
C2724 H2727 0.929 . S
C2725 C2724 1.363 . S
C2725 C2731 1.428 . S
H2726 C2722 0.930 . S
H2727 C2724 0.929 . S
S2728 N2729 1.613 . S
S2728 N2730 1.610 . S
N2729 S2728 1.613 . S
N2729 C2732 1.350 . S
N2730 S2728 1.610 . S
N2730 C2731 1.351 . S
C2731 C2725 1.428 . S
C2731 N2730 1.351 . S
C2731 C2732 1.434 . S
C2732 C2723 1.429 . S
C2732 N2729 1.350 . S
C2732 C2731 1.434 . S
C2733 C2734 1.369 . S
C2733 C2735 1.419 . S
C2733 H2737 0.930 . S
C2734 C2733 1.369 . S
C2734 C2743 1.429 . S
C2735 C2733 1.419 . S
C2735 C2736 1.363 . S
C2735 H2738 0.929 . S
C2736 C2735 1.363 . S
C2736 C2742 1.428 . S
H2737 C2733 0.930 . S
H2738 C2735 0.929 . S
S2739 N2740 1.613 . S
S2739 N2741 1.610 . S
N2740 S2739 1.613 . S
N2740 C2743 1.350 . S
N2741 S2739 1.610 . S
N2741 C2742 1.351 . S
C2742 C2736 1.428 . S
C2742 N2741 1.351 . S
C2742 C2743 1.434 . S
C2743 C2734 1.429 . S
C2743 N2740 1.350 . S
C2743 C2742 1.434 . S
C2744 C2745 1.369 . S
C2744 C2746 1.419 . S
C2744 H2748 0.930 . S
C2745 C2744 1.369 . S
C2745 C2754 1.429 . S
C2746 C2744 1.419 . S
C2746 C2747 1.363 . S
C2746 H2749 0.929 . S
C2747 C2746 1.363 . S
C2747 C2753 1.428 . S
H2748 C2744 0.930 . S
H2749 C2746 0.929 . S
S2750 N2751 1.613 . S
S2750 N2752 1.610 . S
N2751 S2750 1.613 . S
N2751 C2754 1.350 . S
N2752 S2750 1.610 . S
N2752 C2753 1.351 . S
C2753 C2747 1.428 . S
C2753 N2752 1.351 . S
C2753 C2754 1.434 . S
C2754 C2745 1.429 . S
C2754 N2751 1.350 . S
C2754 C2753 1.434 . S
C2755 C2756 1.369 . S
C2755 C2757 1.419 . S
C2755 H2759 0.930 . S
C2756 C2755 1.369 . S
C2756 C2765 1.429 . S
C2757 C2755 1.419 . S
C2757 C2758 1.363 . S
C2757 H2760 0.929 . S
C2758 C2757 1.363 . S
C2758 C2764 1.428 . S
H2759 C2755 0.930 . S
H2760 C2757 0.929 . S
S2761 N2762 1.613 1_556 S
S2761 N2763 1.610 1_556 S
N2762 S2761 1.613 1_554 S
N2762 C2765 1.350 . S
N2763 S2761 1.610 1_554 S
N2763 C2764 1.351 . S
C2764 C2758 1.428 . S
C2764 N2763 1.351 . S
C2764 C2765 1.434 . S
C2765 C2756 1.429 . S
C2765 N2762 1.350 . S
C2765 C2764 1.434 . S
C2766 C2767 1.369 . S
C2766 C2768 1.419 . S
C2766 H2770 0.930 . S
C2767 C2766 1.369 . S
C2767 C2776 1.429 . S
C2768 C2766 1.419 . S
C2768 C2769 1.363 . S
C2768 H2771 0.929 . S
C2769 C2768 1.363 . S
C2769 C2775 1.428 . S
H2770 C2766 0.930 . S
H2771 C2768 0.929 . S
S2772 N2773 1.613 . S
S2772 N2774 1.610 . S
N2773 S2772 1.613 . S
N2773 C2776 1.350 . S
N2774 S2772 1.610 . S
N2774 C2775 1.351 . S
C2775 C2769 1.428 . S
C2775 N2774 1.351 . S
C2775 C2776 1.434 . S
C2776 C2767 1.429 . S
C2776 N2773 1.350 . S
C2776 C2775 1.434 . S
C2777 C2778 1.369 . S
C2777 C2779 1.419 . S
C2777 H2781 0.930 . S
C2778 C2777 1.369 . S
C2778 C2787 1.429 . S
C2779 C2777 1.419 . S
C2779 C2780 1.363 . S
C2779 H2782 0.929 . S
C2780 C2779 1.363 . S
C2780 C2786 1.428 . S
H2781 C2777 0.930 . S
H2782 C2779 0.929 . S
S2783 N2784 1.613 . S
S2783 N2785 1.610 . S
N2784 S2783 1.613 . S
N2784 C2787 1.350 . S
N2785 S2783 1.610 . S
N2785 C2786 1.351 . S
C2786 C2780 1.428 . S
C2786 N2785 1.351 . S
C2786 C2787 1.434 . S
C2787 C2778 1.429 . S
C2787 N2784 1.350 . S
C2787 C2786 1.434 . S
C2788 C2789 1.369 . S
C2788 C2790 1.419 . S
C2788 H2792 0.930 . S
C2789 C2788 1.369 . S
C2789 C2798 1.429 . S
C2790 C2788 1.419 . S
C2790 C2791 1.363 . S
C2790 H2793 0.929 . S
C2791 C2790 1.363 . S
C2791 C2797 1.428 . S
H2792 C2788 0.930 . S
H2793 C2790 0.929 . S
S2794 N2795 1.613 . S
S2794 N2796 1.610 . S
N2795 S2794 1.613 . S
N2795 C2798 1.350 . S
N2796 S2794 1.610 . S
N2796 C2797 1.351 . S
C2797 C2791 1.428 . S
C2797 N2796 1.351 . S
C2797 C2798 1.434 . S
C2798 C2789 1.429 . S
C2798 N2795 1.350 . S
C2798 C2797 1.434 . S
C2799 C2800 1.369 . S
C2799 C2801 1.419 . S
C2799 H2803 0.930 . S
C2800 C2799 1.369 . S
C2800 C2809 1.429 . S
C2801 C2799 1.419 . S
C2801 C2802 1.363 . S
C2801 H2804 0.929 . S
C2802 C2801 1.363 . S
C2802 C2808 1.428 . S
H2803 C2799 0.930 . S
H2804 C2801 0.929 . S
S2805 N2806 1.613 . S
S2805 N2807 1.610 . S
N2806 S2805 1.613 . S
N2806 C2809 1.350 . S
N2807 S2805 1.610 . S
N2807 C2808 1.351 . S
C2808 C2802 1.428 . S
C2808 N2807 1.351 . S
C2808 C2809 1.434 . S
C2809 C2800 1.429 . S
C2809 N2806 1.350 . S
C2809 C2808 1.434 . S
C2810 C2811 1.369 . S
C2810 C2812 1.419 . S
C2810 H2814 0.930 . S
C2811 C2810 1.369 . S
C2811 C2820 1.429 . S
C2812 C2810 1.419 . S
C2812 C2813 1.363 . S
C2812 H2815 0.929 . S
C2813 C2812 1.363 . S
C2813 C2819 1.428 . S
H2814 C2810 0.930 . S
H2815 C2812 0.929 . S
S2816 N2817 1.613 . S
S2816 N2818 1.610 . S
N2817 S2816 1.613 . S
N2817 C2820 1.350 . S
N2818 S2816 1.610 . S
N2818 C2819 1.351 . S
C2819 C2813 1.428 . S
C2819 N2818 1.351 . S
C2819 C2820 1.434 . S
C2820 C2811 1.429 . S
C2820 N2817 1.350 . S
C2820 C2819 1.434 . S
C2821 C2822 1.369 . S
C2821 C2823 1.419 . S
C2821 H2825 0.930 . S
C2822 C2821 1.369 . S
C2822 C2831 1.429 . S
C2823 C2821 1.419 . S
C2823 C2824 1.363 . S
C2823 H2826 0.929 . S
C2824 C2823 1.363 . S
C2824 C2830 1.428 . S
H2825 C2821 0.930 . S
H2826 C2823 0.929 . S
S2827 N2828 1.613 . S
S2827 N2829 1.610 . S
N2828 S2827 1.613 . S
N2828 C2831 1.350 . S
N2829 S2827 1.610 . S
N2829 C2830 1.351 . S
C2830 C2824 1.428 . S
C2830 N2829 1.351 . S
C2830 C2831 1.434 . S
C2831 C2822 1.429 . S
C2831 N2828 1.350 . S
C2831 C2830 1.434 . S
C2832 C2833 1.369 . S
C2832 C2834 1.419 . S
C2832 H2836 0.930 . S
C2833 C2832 1.369 . S
C2833 C2842 1.429 . S
C2834 C2832 1.419 . S
C2834 C2835 1.363 . S
C2834 H2837 0.929 . S
C2835 C2834 1.363 . S
C2835 C2841 1.428 . S
H2836 C2832 0.930 . S
H2837 C2834 0.929 . S
S2838 N2839 1.613 . S
S2838 N2840 1.610 . S
N2839 S2838 1.613 . S
N2839 C2842 1.350 . S
N2840 S2838 1.610 . S
N2840 C2841 1.351 . S
C2841 C2835 1.428 . S
C2841 N2840 1.351 . S
C2841 C2842 1.434 . S
C2842 C2833 1.429 . S
C2842 N2839 1.350 . S
C2842 C2841 1.434 . S
C2843 C2844 1.369 . S
C2843 C2845 1.419 . S
C2843 H2847 0.930 . S
C2844 C2843 1.369 . S
C2844 C2853 1.429 . S
C2845 C2843 1.419 . S
C2845 C2846 1.363 . S
C2845 H2848 0.929 . S
C2846 C2845 1.363 . S
C2846 C2852 1.428 . S
H2847 C2843 0.930 . S
H2848 C2845 0.929 . S
S2849 N2850 1.613 . S
S2849 N2851 1.610 . S
N2850 S2849 1.613 . S
N2850 C2853 1.350 . S
N2851 S2849 1.610 . S
N2851 C2852 1.351 . S
C2852 C2846 1.428 . S
C2852 N2851 1.351 . S
C2852 C2853 1.434 . S
C2853 C2844 1.429 . S
C2853 N2850 1.350 . S
C2853 C2852 1.434 . S
C2854 C2855 1.369 . S
C2854 C2856 1.419 . S
C2854 H2858 0.930 . S
C2855 C2854 1.369 . S
C2855 C2864 1.429 . S
C2856 C2854 1.419 . S
C2856 C2857 1.363 . S
C2856 H2859 0.929 . S
C2857 C2856 1.363 . S
C2857 C2863 1.428 . S
H2858 C2854 0.930 . S
H2859 C2856 0.929 . S
S2860 N2861 1.613 . S
S2860 N2862 1.610 . S
N2861 S2860 1.613 . S
N2861 C2864 1.350 . S
N2862 S2860 1.610 . S
N2862 C2863 1.351 . S
C2863 C2857 1.428 . S
C2863 N2862 1.351 . S
C2863 C2864 1.434 . S
C2864 C2855 1.429 . S
C2864 N2861 1.350 . S
C2864 C2863 1.434 . S
C2865 C2866 1.369 . S
C2865 C2867 1.419 . S
C2865 H2869 0.930 . S
C2866 C2865 1.369 . S
C2866 C2875 1.429 . S
C2867 C2865 1.419 . S
C2867 C2868 1.363 . S
C2867 H2870 0.929 . S
C2868 C2867 1.363 . S
C2868 C2874 1.428 . S
H2869 C2865 0.930 . S
H2870 C2867 0.929 . S
S2871 N2872 1.613 . S
S2871 N2873 1.610 . S
N2872 S2871 1.613 . S
N2872 C2875 1.350 . S
N2873 S2871 1.610 . S
N2873 C2874 1.351 . S
C2874 C2868 1.428 . S
C2874 N2873 1.351 . S
C2874 C2875 1.434 . S
C2875 C2866 1.429 . S
C2875 N2872 1.350 . S
C2875 C2874 1.434 . S
C2876 C2877 1.369 . S
C2876 C2878 1.419 . S
C2876 H2880 0.930 . S
C2877 C2876 1.369 . S
C2877 C2886 1.429 . S
C2878 C2876 1.419 . S
C2878 C2879 1.363 . S
C2878 H2881 0.929 . S
C2879 C2878 1.363 . S
C2879 C2885 1.428 . S
H2880 C2876 0.930 . S
H2881 C2878 0.929 . S
S2882 N2883 1.613 . S
S2882 N2884 1.610 . S
N2883 S2882 1.613 . S
N2883 C2886 1.350 . S
N2884 S2882 1.610 . S
N2884 C2885 1.351 . S
C2885 C2879 1.428 . S
C2885 N2884 1.351 . S
C2885 C2886 1.434 . S
C2886 C2877 1.429 . S
C2886 N2883 1.350 . S
C2886 C2885 1.434 . S
C2887 C2888 1.369 . S
C2887 C2889 1.419 . S
C2887 H2891 0.930 . S
C2888 C2887 1.369 . S
C2888 C2897 1.429 . S
C2889 C2887 1.419 . S
C2889 C2890 1.363 . S
C2889 H2892 0.929 . S
C2890 C2889 1.363 . S
C2890 C2896 1.428 . S
H2891 C2887 0.930 . S
H2892 C2889 0.929 . S
S2893 N2894 1.613 . S
S2893 N2895 1.610 . S
N2894 S2893 1.613 . S
N2894 C2897 1.350 . S
N2895 S2893 1.610 . S
N2895 C2896 1.351 . S
C2896 C2890 1.428 . S
C2896 N2895 1.351 . S
C2896 C2897 1.434 . S
C2897 C2888 1.429 . S
C2897 N2894 1.350 . S
C2897 C2896 1.434 . S
C2898 C2899 1.369 . S
C2898 C2900 1.419 . S
C2898 H2902 0.930 . S
C2899 C2898 1.369 . S
C2899 C2908 1.429 . S
C2900 C2898 1.419 . S
C2900 C2901 1.363 . S
C2900 H2903 0.929 . S
C2901 C2900 1.363 . S
C2901 C2907 1.428 . S
H2902 C2898 0.930 . S
H2903 C2900 0.929 . S
S2904 N2905 1.613 . S
S2904 N2906 1.610 . S
N2905 S2904 1.613 . S
N2905 C2908 1.350 . S
N2906 S2904 1.610 . S
N2906 C2907 1.351 . S
C2907 C2901 1.428 . S
C2907 N2906 1.351 . S
C2907 C2908 1.434 . S
C2908 C2899 1.429 . S
C2908 N2905 1.350 . S
C2908 C2907 1.434 . S
C2909 C2910 1.369 . S
C2909 C2911 1.419 . S
C2909 H2913 0.930 . S
C2910 C2909 1.369 . S
C2910 C2919 1.429 . S
C2911 C2909 1.419 . S
C2911 C2912 1.363 . S
C2911 H2914 0.929 . S
C2912 C2911 1.363 . S
C2912 C2918 1.428 . S
H2913 C2909 0.930 . S
H2914 C2911 0.929 . S
S2915 N2916 1.613 . S
S2915 N2917 1.610 . S
N2916 S2915 1.613 . S
N2916 C2919 1.350 . S
N2917 S2915 1.610 . S
N2917 C2918 1.351 . S
C2918 C2912 1.428 . S
C2918 N2917 1.351 . S
C2918 C2919 1.434 . S
C2919 C2910 1.429 . S
C2919 N2916 1.350 . S
C2919 C2918 1.434 . S
C2920 C2921 1.369 . S
C2920 C2922 1.419 . S
C2920 H2924 0.930 . S
C2921 C2920 1.369 . S
C2921 C2930 1.429 . S
C2922 C2920 1.419 . S
C2922 C2923 1.363 . S
C2922 H2925 0.929 . S
C2923 C2922 1.363 . S
C2923 C2929 1.428 . S
H2924 C2920 0.930 . S
H2925 C2922 0.929 . S
S2926 N2927 1.613 . S
S2926 N2928 1.610 . S
N2927 S2926 1.613 . S
N2927 C2930 1.350 . S
N2928 S2926 1.610 . S
N2928 C2929 1.351 . S
C2929 C2923 1.428 . S
C2929 N2928 1.351 . S
C2929 C2930 1.434 . S
C2930 C2921 1.429 . S
C2930 N2927 1.350 . S
C2930 C2929 1.434 . S
C2931 C2932 1.369 . S
C2931 C2933 1.419 . S
C2931 H2935 0.930 . S
C2932 C2931 1.369 . S
C2932 C2941 1.429 . S
C2933 C2931 1.419 . S
C2933 C2934 1.363 . S
C2933 H2936 0.929 . S
C2934 C2933 1.363 . S
C2934 C2940 1.428 . S
H2935 C2931 0.930 . S
H2936 C2933 0.929 . S
S2937 N2938 1.613 . S
S2937 N2939 1.610 . S
N2938 S2937 1.613 . S
N2938 C2941 1.350 . S
N2939 S2937 1.610 . S
N2939 C2940 1.351 . S
C2940 C2934 1.428 . S
C2940 N2939 1.351 . S
C2940 C2941 1.434 . S
C2941 C2932 1.429 . S
C2941 N2938 1.350 . S
C2941 C2940 1.434 . S
C2942 C2943 1.369 . S
C2942 C2944 1.419 . S
C2942 H2946 0.930 . S
C2943 C2942 1.369 . S
C2943 C2952 1.429 . S
C2944 C2942 1.419 . S
C2944 C2945 1.363 . S
C2944 H2947 0.929 . S
C2945 C2944 1.363 . S
C2945 C2951 1.428 . S
H2946 C2942 0.930 . S
H2947 C2944 0.929 . S
S2948 N2949 1.613 . S
S2948 N2950 1.610 . S
N2949 S2948 1.613 . S
N2949 C2952 1.350 . S
N2950 S2948 1.610 . S
N2950 C2951 1.351 . S
C2951 C2945 1.428 . S
C2951 N2950 1.351 . S
C2951 C2952 1.434 . S
C2952 C2943 1.429 . S
C2952 N2949 1.350 . S
C2952 C2951 1.434 . S
C2953 C2954 1.369 . S
C2953 C2955 1.419 . S
C2953 H2957 0.930 . S
C2954 C2953 1.369 . S
C2954 C2963 1.429 . S
C2955 C2953 1.419 . S
C2955 C2956 1.363 . S
C2955 H2958 0.929 . S
C2956 C2955 1.363 . S
C2956 C2962 1.428 . S
H2957 C2953 0.930 . S
H2958 C2955 0.929 . S
S2959 N2960 1.613 . S
S2959 N2961 1.610 . S
N2960 S2959 1.613 . S
N2960 C2963 1.350 . S
N2961 S2959 1.610 . S
N2961 C2962 1.351 . S
C2962 C2956 1.428 . S
C2962 N2961 1.351 . S
C2962 C2963 1.434 . S
C2963 C2954 1.429 . S
C2963 N2960 1.350 . S
C2963 C2962 1.434 . S
C2964 C2965 1.369 . S
C2964 C2966 1.419 . S
C2964 H2968 0.930 . S
C2965 C2964 1.369 . S
C2965 C2974 1.429 . S
C2966 C2964 1.419 . S
C2966 C2967 1.363 . S
C2966 H2969 0.929 . S
C2967 C2966 1.363 . S
C2967 C2973 1.428 . S
H2968 C2964 0.930 . S
H2969 C2966 0.929 . S
S2970 N2971 1.613 . S
S2970 N2972 1.610 . S
N2971 S2970 1.613 . S
N2971 C2974 1.350 . S
N2972 S2970 1.610 . S
N2972 C2973 1.351 . S
C2973 C2967 1.428 . S
C2973 N2972 1.351 . S
C2973 C2974 1.434 . S
C2974 C2965 1.429 . S
C2974 N2971 1.350 . S
C2974 C2973 1.434 . S
C2975 C2976 1.369 . S
C2975 C2977 1.419 . S
C2975 H2979 0.930 . S
C2976 C2975 1.369 . S
C2976 C2985 1.429 . S
C2977 C2975 1.419 . S
C2977 C2978 1.363 . S
C2977 H2980 0.929 . S
C2978 C2977 1.363 . S
C2978 C2984 1.428 . S
H2979 C2975 0.930 . S
H2980 C2977 0.929 . S
S2981 N2982 1.613 . S
S2981 N2983 1.610 . S
N2982 S2981 1.613 . S
N2982 C2985 1.350 . S
N2983 S2981 1.610 . S
N2983 C2984 1.351 . S
C2984 C2978 1.428 . S
C2984 N2983 1.351 . S
C2984 C2985 1.434 . S
C2985 C2976 1.429 . S
C2985 N2982 1.350 . S
C2985 C2984 1.434 . S
C2986 C2987 1.369 . S
C2986 C2988 1.419 . S
C2986 H2990 0.930 . S
C2987 C2986 1.369 . S
C2987 C2996 1.429 . S
C2988 C2986 1.419 . S
C2988 C2989 1.363 . S
C2988 H2991 0.929 . S
C2989 C2988 1.363 . S
C2989 C2995 1.428 . S
H2990 C2986 0.930 . S
H2991 C2988 0.929 . S
S2992 N2993 1.613 . S
S2992 N2994 1.610 . S
N2993 S2992 1.613 . S
N2993 C2996 1.350 . S
N2994 S2992 1.610 . S
N2994 C2995 1.351 . S
C2995 C2989 1.428 . S
C2995 N2994 1.351 . S
C2995 C2996 1.434 . S
C2996 C2987 1.429 . S
C2996 N2993 1.350 . S
C2996 C2995 1.434 . S
C2997 C2998 1.369 . S
C2997 C2999 1.419 . S
C2997 H3001 0.930 . S
C2998 C2997 1.369 . S
C2998 C3007 1.429 . S
C2999 C2997 1.419 . S
C2999 C3000 1.363 . S
C2999 H3002 0.929 . S
C3000 C2999 1.363 . S
C3000 C3006 1.428 . S
H3001 C2997 0.930 . S
H3002 C2999 0.929 . S
S3003 N3004 1.613 . S
S3003 N3005 1.610 . S
N3004 S3003 1.613 . S
N3004 C3007 1.350 . S
N3005 S3003 1.610 . S
N3005 C3006 1.351 . S
C3006 C3000 1.428 . S
C3006 N3005 1.351 . S
C3006 C3007 1.434 . S
C3007 C2998 1.429 . S
C3007 N3004 1.350 . S
C3007 C3006 1.434 . S
C3008 C3009 1.369 . S
C3008 C3010 1.419 . S
C3008 H3012 0.930 . S
C3009 C3008 1.369 . S
C3009 C3018 1.429 . S
C3010 C3008 1.419 . S
C3010 C3011 1.363 . S
C3010 H3013 0.929 . S
C3011 C3010 1.363 . S
C3011 C3017 1.428 . S
H3012 C3008 0.930 . S
H3013 C3010 0.929 . S
S3014 N3015 1.613 . S
S3014 N3016 1.610 . S
N3015 S3014 1.613 . S
N3015 C3018 1.350 . S
N3016 S3014 1.610 . S
N3016 C3017 1.351 . S
C3017 C3011 1.428 . S
C3017 N3016 1.351 . S
C3017 C3018 1.434 . S
C3018 C3009 1.429 . S
C3018 N3015 1.350 . S
C3018 C3017 1.434 . S
C3019 C3020 1.369 . S
C3019 C3021 1.419 . S
C3019 H3023 0.930 . S
C3020 C3019 1.369 . S
C3020 C3029 1.429 . S
C3021 C3019 1.419 . S
C3021 C3022 1.363 . S
C3021 H3024 0.929 . S
C3022 C3021 1.363 . S
C3022 C3028 1.428 . S
H3023 C3019 0.930 . S
H3024 C3021 0.929 . S
S3025 N3026 1.613 . S
S3025 N3027 1.610 . S
N3026 S3025 1.613 . S
N3026 C3029 1.350 . S
N3027 S3025 1.610 . S
N3027 C3028 1.351 . S
C3028 C3022 1.428 . S
C3028 N3027 1.351 . S
C3028 C3029 1.434 . S
C3029 C3020 1.429 . S
C3029 N3026 1.350 . S
C3029 C3028 1.434 . S
C3030 C3031 1.369 . S
C3030 C3032 1.419 . S
C3030 H3034 0.930 . S
C3031 C3030 1.369 . S
C3031 C3040 1.429 . S
C3032 C3030 1.419 . S
C3032 C3033 1.363 . S
C3032 H3035 0.929 . S
C3033 C3032 1.363 . S
C3033 C3039 1.428 . S
H3034 C3030 0.930 . S
H3035 C3032 0.929 . S
S3036 N3037 1.613 . S
S3036 N3038 1.610 . S
N3037 S3036 1.613 . S
N3037 C3040 1.350 . S
N3038 S3036 1.610 . S
N3038 C3039 1.351 . S
C3039 C3033 1.428 . S
C3039 N3038 1.351 . S
C3039 C3040 1.434 . S
C3040 C3031 1.429 . S
C3040 N3037 1.350 . S
C3040 C3039 1.434 . S
C3041 C3042 1.369 . S
C3041 C3043 1.419 . S
C3041 H3045 0.930 . S
C3042 C3041 1.369 . S
C3042 C3051 1.429 . S
C3043 C3041 1.419 . S
C3043 C3044 1.363 . S
C3043 H3046 0.929 . S
C3044 C3043 1.363 . S
C3044 C3050 1.428 . S
H3045 C3041 0.930 . S
H3046 C3043 0.929 . S
S3047 N3048 1.613 . S
S3047 N3049 1.610 . S
N3048 S3047 1.613 . S
N3048 C3051 1.350 . S
N3049 S3047 1.610 . S
N3049 C3050 1.351 . S
C3050 C3044 1.428 . S
C3050 N3049 1.351 . S
C3050 C3051 1.434 . S
C3051 C3042 1.429 . S
C3051 N3048 1.350 . S
C3051 C3050 1.434 . S
C3052 C3053 1.369 . S
C3052 C3054 1.419 . S
C3052 H3056 0.930 . S
C3053 C3052 1.369 . S
C3053 C3062 1.429 . S
C3054 C3052 1.419 . S
C3054 C3055 1.363 . S
C3054 H3057 0.929 . S
C3055 C3054 1.363 . S
C3055 C3061 1.428 . S
H3056 C3052 0.930 . S
H3057 C3054 0.929 . S
S3058 N3059 1.613 . S
S3058 N3060 1.610 . S
N3059 S3058 1.613 . S
N3059 C3062 1.350 . S
N3060 S3058 1.610 . S
N3060 C3061 1.351 . S
C3061 C3055 1.428 . S
C3061 N3060 1.351 . S
C3061 C3062 1.434 . S
C3062 C3053 1.429 . S
C3062 N3059 1.350 . S
C3062 C3061 1.434 . S
C3063 C3064 1.369 . S
C3063 C3065 1.419 . S
C3063 H3067 0.930 . S
C3064 C3063 1.369 . S
C3064 C3073 1.429 . S
C3065 C3063 1.419 . S
C3065 C3066 1.363 . S
C3065 H3068 0.929 . S
C3066 C3065 1.363 . S
C3066 C3072 1.428 . S
H3067 C3063 0.930 . S
H3068 C3065 0.929 . S
S3069 N3070 1.613 1_556 S
S3069 N3071 1.610 1_556 S
N3070 S3069 1.613 1_554 S
N3070 C3073 1.350 . S
N3071 S3069 1.610 1_554 S
N3071 C3072 1.351 . S
C3072 C3066 1.428 . S
C3072 N3071 1.351 . S
C3072 C3073 1.434 . S
C3073 C3064 1.429 . S
C3073 N3070 1.350 . S
C3073 C3072 1.434 . S
C3074 C3075 1.369 . S
C3074 C3076 1.419 . S
C3074 H3078 0.930 . S
C3075 C3074 1.369 . S
C3075 C3084 1.429 . S
C3076 C3074 1.419 . S
C3076 C3077 1.363 . S
C3076 H3079 0.929 . S
C3077 C3076 1.363 . S
C3077 C3083 1.428 . S
H3078 C3074 0.930 . S
H3079 C3076 0.929 . S
S3080 N3081 1.613 . S
S3080 N3082 1.610 . S
N3081 S3080 1.613 . S
N3081 C3084 1.350 . S
N3082 S3080 1.610 . S
N3082 C3083 1.351 . S
C3083 C3077 1.428 . S
C3083 N3082 1.351 . S
C3083 C3084 1.434 . S
C3084 C3075 1.429 . S
C3084 N3081 1.350 . S
C3084 C3083 1.434 . S
C3085 C3086 1.369 . S
C3085 C3087 1.419 . S
C3085 H3089 0.930 . S
C3086 C3085 1.369 . S
C3086 C3095 1.429 . S
C3087 C3085 1.419 . S
C3087 C3088 1.363 . S
C3087 H3090 0.929 . S
C3088 C3087 1.363 . S
C3088 C3094 1.428 . S
H3089 C3085 0.930 . S
H3090 C3087 0.929 . S
S3091 N3092 1.613 . S
S3091 N3093 1.610 . S
N3092 S3091 1.613 . S
N3092 C3095 1.350 . S
N3093 S3091 1.610 . S
N3093 C3094 1.351 . S
C3094 C3088 1.428 . S
C3094 N3093 1.351 . S
C3094 C3095 1.434 . S
C3095 C3086 1.429 . S
C3095 N3092 1.350 . S
C3095 C3094 1.434 . S
C3096 C3097 1.369 . S
C3096 C3098 1.419 . S
C3096 H3100 0.930 . S
C3097 C3096 1.369 . S
C3097 C3106 1.429 . S
C3098 C3096 1.419 . S
C3098 C3099 1.363 . S
C3098 H3101 0.929 . S
C3099 C3098 1.363 . S
C3099 C3105 1.428 . S
H3100 C3096 0.930 . S
H3101 C3098 0.929 . S
S3102 N3103 1.613 . S
S3102 N3104 1.610 . S
N3103 S3102 1.613 . S
N3103 C3106 1.350 . S
N3104 S3102 1.610 . S
N3104 C3105 1.351 . S
C3105 C3099 1.428 . S
C3105 N3104 1.351 . S
C3105 C3106 1.434 . S
C3106 C3097 1.429 . S
C3106 N3103 1.350 . S
C3106 C3105 1.434 . S
C3107 C3108 1.369 . S
C3107 C3109 1.419 . S
C3107 H3111 0.930 . S
C3108 C3107 1.369 . S
C3108 C3117 1.429 . S
C3109 C3107 1.419 . S
C3109 C3110 1.363 . S
C3109 H3112 0.929 . S
C3110 C3109 1.363 . S
C3110 C3116 1.428 . S
H3111 C3107 0.930 . S
H3112 C3109 0.929 . S
S3113 N3114 1.613 . S
S3113 N3115 1.610 . S
N3114 S3113 1.613 . S
N3114 C3117 1.350 . S
N3115 S3113 1.610 . S
N3115 C3116 1.351 . S
C3116 C3110 1.428 . S
C3116 N3115 1.351 . S
C3116 C3117 1.434 . S
C3117 C3108 1.429 . S
C3117 N3114 1.350 . S
C3117 C3116 1.434 . S
C3118 C3119 1.369 . S
C3118 C3120 1.419 . S
C3118 H3122 0.930 . S
C3119 C3118 1.369 . S
C3119 C3128 1.429 . S
C3120 C3118 1.419 . S
C3120 C3121 1.363 . S
C3120 H3123 0.929 . S
C3121 C3120 1.363 . S
C3121 C3127 1.428 . S
H3122 C3118 0.930 . S
H3123 C3120 0.929 . S
S3124 N3125 1.613 . S
S3124 N3126 1.610 . S
N3125 S3124 1.613 . S
N3125 C3128 1.350 . S
N3126 S3124 1.610 . S
N3126 C3127 1.351 . S
C3127 C3121 1.428 . S
C3127 N3126 1.351 . S
C3127 C3128 1.434 . S
C3128 C3119 1.429 . S
C3128 N3125 1.350 . S
C3128 C3127 1.434 . S
C3129 C3130 1.369 . S
C3129 C3131 1.419 . S
C3129 H3133 0.930 . S
C3130 C3129 1.369 . S
C3130 C3139 1.429 . S
C3131 C3129 1.419 . S
C3131 C3132 1.363 . S
C3131 H3134 0.929 . S
C3132 C3131 1.363 . S
C3132 C3138 1.428 . S
H3133 C3129 0.930 . S
H3134 C3131 0.929 . S
S3135 N3136 1.613 . S
S3135 N3137 1.610 . S
N3136 S3135 1.613 . S
N3136 C3139 1.350 . S
N3137 S3135 1.610 . S
N3137 C3138 1.351 . S
C3138 C3132 1.428 . S
C3138 N3137 1.351 . S
C3138 C3139 1.434 . S
C3139 C3130 1.429 . S
C3139 N3136 1.350 . S
C3139 C3138 1.434 . S
C3140 C3141 1.369 . S
C3140 C3142 1.419 . S
C3140 H3144 0.930 . S
C3141 C3140 1.369 . S
C3141 C3150 1.429 . S
C3142 C3140 1.419 . S
C3142 C3143 1.363 . S
C3142 H3145 0.929 . S
C3143 C3142 1.363 . S
C3143 C3149 1.428 . S
H3144 C3140 0.930 . S
H3145 C3142 0.929 . S
S3146 N3147 1.613 . S
S3146 N3148 1.610 . S
N3147 S3146 1.613 . S
N3147 C3150 1.350 . S
N3148 S3146 1.610 . S
N3148 C3149 1.351 . S
C3149 C3143 1.428 . S
C3149 N3148 1.351 . S
C3149 C3150 1.434 . S
C3150 C3141 1.429 . S
C3150 N3147 1.350 . S
C3150 C3149 1.434 . S
C3151 C3152 1.369 . S
C3151 C3153 1.419 . S
C3151 H3155 0.930 . S
C3152 C3151 1.369 . S
C3152 C3161 1.429 . S
C3153 C3151 1.419 . S
C3153 C3154 1.363 . S
C3153 H3156 0.929 . S
C3154 C3153 1.363 . S
C3154 C3160 1.428 . S
H3155 C3151 0.930 . S
H3156 C3153 0.929 . S
S3157 N3158 1.613 . S
S3157 N3159 1.610 . S
N3158 S3157 1.613 . S
N3158 C3161 1.350 . S
N3159 S3157 1.610 . S
N3159 C3160 1.351 . S
C3160 C3154 1.428 . S
C3160 N3159 1.351 . S
C3160 C3161 1.434 . S
C3161 C3152 1.429 . S
C3161 N3158 1.350 . S
C3161 C3160 1.434 . S
C3162 C3163 1.369 . S
C3162 C3164 1.419 . S
C3162 H3166 0.930 . S
C3163 C3162 1.369 . S
C3163 C3172 1.429 . S
C3164 C3162 1.419 . S
C3164 C3165 1.363 . S
C3164 H3167 0.929 . S
C3165 C3164 1.363 . S
C3165 C3171 1.428 . S
H3166 C3162 0.930 . S
H3167 C3164 0.929 . S
S3168 N3169 1.613 . S
S3168 N3170 1.610 . S
N3169 S3168 1.613 . S
N3169 C3172 1.350 . S
N3170 S3168 1.610 . S
N3170 C3171 1.351 . S
C3171 C3165 1.428 . S
C3171 N3170 1.351 . S
C3171 C3172 1.434 . S
C3172 C3163 1.429 . S
C3172 N3169 1.350 . S
C3172 C3171 1.434 . S
C3173 C3174 1.369 . S
C3173 C3175 1.419 . S
C3173 H3177 0.930 . S
C3174 C3173 1.369 . S
C3174 C3183 1.429 . S
C3175 C3173 1.419 . S
C3175 C3176 1.363 . S
C3175 H3178 0.929 . S
C3176 C3175 1.363 . S
C3176 C3182 1.428 . S
H3177 C3173 0.930 . S
H3178 C3175 0.929 . S
S3179 N3180 1.613 . S
S3179 N3181 1.610 . S
N3180 S3179 1.613 . S
N3180 C3183 1.350 . S
N3181 S3179 1.610 . S
N3181 C3182 1.351 . S
C3182 C3176 1.428 . S
C3182 N3181 1.351 . S
C3182 C3183 1.434 . S
C3183 C3174 1.429 . S
C3183 N3180 1.350 . S
C3183 C3182 1.434 . S
C3184 C3185 1.369 . S
C3184 C3186 1.419 . S
C3184 H3188 0.930 . S
C3185 C3184 1.369 . S
C3185 C3194 1.429 . S
C3186 C3184 1.419 . S
C3186 C3187 1.363 . S
C3186 H3189 0.929 . S
C3187 C3186 1.363 . S
C3187 C3193 1.428 . S
H3188 C3184 0.930 . S
H3189 C3186 0.929 . S
S3190 N3191 1.613 . S
S3190 N3192 1.610 . S
N3191 S3190 1.613 . S
N3191 C3194 1.350 . S
N3192 S3190 1.610 . S
N3192 C3193 1.351 . S
C3193 C3187 1.428 . S
C3193 N3192 1.351 . S
C3193 C3194 1.434 . S
C3194 C3185 1.429 . S
C3194 N3191 1.350 . S
C3194 C3193 1.434 . S
C3195 C3196 1.369 . S
C3195 C3197 1.419 . S
C3195 H3199 0.930 . S
C3196 C3195 1.369 . S
C3196 C3205 1.429 . S
C3197 C3195 1.419 . S
C3197 C3198 1.363 . S
C3197 H3200 0.929 . S
C3198 C3197 1.363 . S
C3198 C3204 1.428 . S
H3199 C3195 0.930 . S
H3200 C3197 0.929 . S
S3201 N3202 1.613 . S
S3201 N3203 1.610 . S
N3202 S3201 1.613 . S
N3202 C3205 1.350 . S
N3203 S3201 1.610 . S
N3203 C3204 1.351 . S
C3204 C3198 1.428 . S
C3204 N3203 1.351 . S
C3204 C3205 1.434 . S
C3205 C3196 1.429 . S
C3205 N3202 1.350 . S
C3205 C3204 1.434 . S
C3206 C3207 1.369 . S
C3206 C3208 1.419 . S
C3206 H3210 0.930 . S
C3207 C3206 1.369 . S
C3207 C3216 1.429 . S
C3208 C3206 1.419 . S
C3208 C3209 1.363 . S
C3208 H3211 0.929 . S
C3209 C3208 1.363 . S
C3209 C3215 1.428 . S
H3210 C3206 0.930 . S
H3211 C3208 0.929 . S
S3212 N3213 1.613 . S
S3212 N3214 1.610 . S
N3213 S3212 1.613 . S
N3213 C3216 1.350 . S
N3214 S3212 1.610 . S
N3214 C3215 1.351 . S
C3215 C3209 1.428 . S
C3215 N3214 1.351 . S
C3215 C3216 1.434 . S
C3216 C3207 1.429 . S
C3216 N3213 1.350 . S
C3216 C3215 1.434 . S
C3217 C3218 1.369 . S
C3217 C3219 1.419 . S
C3217 H3221 0.930 . S
C3218 C3217 1.369 . S
C3218 C3227 1.429 . S
C3219 C3217 1.419 . S
C3219 C3220 1.363 . S
C3219 H3222 0.929 . S
C3220 C3219 1.363 . S
C3220 C3226 1.428 . S
H3221 C3217 0.930 . S
H3222 C3219 0.929 . S
S3223 N3224 1.613 . S
S3223 N3225 1.610 . S
N3224 S3223 1.613 . S
N3224 C3227 1.350 . S
N3225 S3223 1.610 . S
N3225 C3226 1.351 . S
C3226 C3220 1.428 . S
C3226 N3225 1.351 . S
C3226 C3227 1.434 . S
C3227 C3218 1.429 . S
C3227 N3224 1.350 . S
C3227 C3226 1.434 . S
C3228 C3229 1.369 . S
C3228 C3230 1.419 . S
C3228 H3232 0.930 . S
C3229 C3228 1.369 . S
C3229 C3238 1.429 . S
C3230 C3228 1.419 . S
C3230 C3231 1.363 . S
C3230 H3233 0.929 . S
C3231 C3230 1.363 . S
C3231 C3237 1.428 . S
H3232 C3228 0.930 . S
H3233 C3230 0.929 . S
S3234 N3235 1.613 . S
S3234 N3236 1.610 . S
N3235 S3234 1.613 . S
N3235 C3238 1.350 . S
N3236 S3234 1.610 . S
N3236 C3237 1.351 . S
C3237 C3231 1.428 . S
C3237 N3236 1.351 . S
C3237 C3238 1.434 . S
C3238 C3229 1.429 . S
C3238 N3235 1.350 . S
C3238 C3237 1.434 . S
C3239 C3240 1.369 . S
C3239 C3241 1.419 . S
C3239 H3243 0.930 . S
C3240 C3239 1.369 . S
C3240 C3249 1.429 . S
C3241 C3239 1.419 . S
C3241 C3242 1.363 . S
C3241 H3244 0.929 . S
C3242 C3241 1.363 . S
C3242 C3248 1.428 . S
H3243 C3239 0.930 . S
H3244 C3241 0.929 . S
S3245 N3246 1.613 . S
S3245 N3247 1.610 . S
N3246 S3245 1.613 . S
N3246 C3249 1.350 . S
N3247 S3245 1.610 . S
N3247 C3248 1.351 . S
C3248 C3242 1.428 . S
C3248 N3247 1.351 . S
C3248 C3249 1.434 . S
C3249 C3240 1.429 . S
C3249 N3246 1.350 . S
C3249 C3248 1.434 . S
C3250 C3251 1.369 . S
C3250 C3252 1.419 . S
C3250 H3254 0.930 . S
C3251 C3250 1.369 . S
C3251 C3260 1.429 . S
C3252 C3250 1.419 . S
C3252 C3253 1.363 . S
C3252 H3255 0.929 . S
C3253 C3252 1.363 . S
C3253 C3259 1.428 . S
H3254 C3250 0.930 . S
H3255 C3252 0.929 . S
S3256 N3257 1.613 . S
S3256 N3258 1.610 . S
N3257 S3256 1.613 . S
N3257 C3260 1.350 . S
N3258 S3256 1.610 . S
N3258 C3259 1.351 . S
C3259 C3253 1.428 . S
C3259 N3258 1.351 . S
C3259 C3260 1.434 . S
C3260 C3251 1.429 . S
C3260 N3257 1.350 . S
C3260 C3259 1.434 . S
C3261 C3262 1.369 . S
C3261 C3263 1.419 . S
C3261 H3265 0.930 . S
C3262 C3261 1.369 . S
C3262 C3271 1.429 . S
C3263 C3261 1.419 . S
C3263 C3264 1.363 . S
C3263 H3266 0.929 . S
C3264 C3263 1.363 . S
C3264 C3270 1.428 . S
H3265 C3261 0.930 . S
H3266 C3263 0.929 . S
S3267 N3268 1.613 . S
S3267 N3269 1.610 . S
N3268 S3267 1.613 . S
N3268 C3271 1.350 . S
N3269 S3267 1.610 . S
N3269 C3270 1.351 . S
C3270 C3264 1.428 . S
C3270 N3269 1.351 . S
C3270 C3271 1.434 . S
C3271 C3262 1.429 . S
C3271 N3268 1.350 . S
C3271 C3270 1.434 . S
C3272 C3273 1.369 . S
C3272 C3274 1.419 . S
C3272 H3276 0.930 . S
C3273 C3272 1.369 . S
C3273 C3282 1.429 . S
C3274 C3272 1.419 . S
C3274 C3275 1.363 . S
C3274 H3277 0.929 . S
C3275 C3274 1.363 . S
C3275 C3281 1.428 . S
H3276 C3272 0.930 . S
H3277 C3274 0.929 . S
S3278 N3279 1.613 . S
S3278 N3280 1.610 . S
N3279 S3278 1.613 . S
N3279 C3282 1.350 . S
N3280 S3278 1.610 . S
N3280 C3281 1.351 . S
C3281 C3275 1.428 . S
C3281 N3280 1.351 . S
C3281 C3282 1.434 . S
C3282 C3273 1.429 . S
C3282 N3279 1.350 . S
C3282 C3281 1.434 . S
C3283 C3284 1.369 . S
C3283 C3285 1.419 . S
C3283 H3287 0.930 . S
C3284 C3283 1.369 . S
C3284 C3293 1.429 . S
C3285 C3283 1.419 . S
C3285 C3286 1.363 . S
C3285 H3288 0.929 . S
C3286 C3285 1.363 . S
C3286 C3292 1.428 . S
H3287 C3283 0.930 . S
H3288 C3285 0.929 . S
S3289 N3290 1.613 . S
S3289 N3291 1.610 . S
N3290 S3289 1.613 . S
N3290 C3293 1.350 . S
N3291 S3289 1.610 . S
N3291 C3292 1.351 . S
C3292 C3286 1.428 . S
C3292 N3291 1.351 . S
C3292 C3293 1.434 . S
C3293 C3284 1.429 . S
C3293 N3290 1.350 . S
C3293 C3292 1.434 . S
C3294 C3295 1.369 . S
C3294 C3296 1.419 . S
C3294 H3298 0.930 . S
C3295 C3294 1.369 . S
C3295 C3304 1.429 . S
C3296 C3294 1.419 . S
C3296 C3297 1.363 . S
C3296 H3299 0.929 . S
C3297 C3296 1.363 . S
C3297 C3303 1.428 . S
H3298 C3294 0.930 . S
H3299 C3296 0.929 . S
S3300 N3301 1.613 . S
S3300 N3302 1.610 . S
N3301 S3300 1.613 . S
N3301 C3304 1.350 . S
N3302 S3300 1.610 . S
N3302 C3303 1.351 . S
C3303 C3297 1.428 . S
C3303 N3302 1.351 . S
C3303 C3304 1.434 . S
C3304 C3295 1.429 . S
C3304 N3301 1.350 . S
C3304 C3303 1.434 . S
C3305 C3306 1.369 . S
C3305 C3307 1.419 . S
C3305 H3309 0.930 . S
C3306 C3305 1.369 . S
C3306 C3315 1.429 . S
C3307 C3305 1.419 . S
C3307 C3308 1.363 . S
C3307 H3310 0.929 . S
C3308 C3307 1.363 . S
C3308 C3314 1.428 . S
H3309 C3305 0.930 . S
H3310 C3307 0.929 . S
S3311 N3312 1.613 . S
S3311 N3313 1.610 . S
N3312 S3311 1.613 . S
N3312 C3315 1.350 . S
N3313 S3311 1.610 . S
N3313 C3314 1.351 . S
C3314 C3308 1.428 . S
C3314 N3313 1.351 . S
C3314 C3315 1.434 . S
C3315 C3306 1.429 . S
C3315 N3312 1.350 . S
C3315 C3314 1.434 . S
C3316 C3317 1.369 . S
C3316 C3318 1.419 . S
C3316 H3320 0.930 . S
C3317 C3316 1.369 . S
C3317 C3326 1.429 . S
C3318 C3316 1.419 . S
C3318 C3319 1.363 . S
C3318 H3321 0.929 . S
C3319 C3318 1.363 . S
C3319 C3325 1.428 . S
H3320 C3316 0.930 . S
H3321 C3318 0.929 . S
S3322 N3323 1.613 . S
S3322 N3324 1.610 . S
N3323 S3322 1.613 . S
N3323 C3326 1.350 . S
N3324 S3322 1.610 . S
N3324 C3325 1.351 . S
C3325 C3319 1.428 . S
C3325 N3324 1.351 . S
C3325 C3326 1.434 . S
C3326 C3317 1.429 . S
C3326 N3323 1.350 . S
C3326 C3325 1.434 . S
C3327 C3328 1.369 . S
C3327 C3329 1.419 . S
C3327 H3331 0.930 . S
C3328 C3327 1.369 . S
C3328 C3337 1.429 . S
C3329 C3327 1.419 . S
C3329 C3330 1.363 . S
C3329 H3332 0.929 . S
C3330 C3329 1.363 . S
C3330 C3336 1.428 . S
H3331 C3327 0.930 . S
H3332 C3329 0.929 . S
S3333 N3334 1.613 1_554 S
S3333 N3335 1.610 1_554 S
N3334 S3333 1.613 1_556 S
N3334 C3337 1.350 . S
N3335 S3333 1.610 1_556 S
N3335 C3336 1.351 . S
C3336 C3330 1.428 . S
C3336 N3335 1.351 . S
C3336 C3337 1.434 . S
C3337 C3328 1.429 . S
C3337 N3334 1.350 . S
C3337 C3336 1.434 . S
C3338 C3339 1.369 . S
C3338 C3340 1.419 . S
C3338 H3342 0.930 . S
C3339 C3338 1.369 . S
C3339 C3348 1.429 . S
C3340 C3338 1.419 . S
C3340 C3341 1.363 . S
C3340 H3343 0.929 . S
C3341 C3340 1.363 . S
C3341 C3347 1.428 . S
H3342 C3338 0.930 . S
H3343 C3340 0.929 . S
S3344 N3345 1.613 . S
S3344 N3346 1.610 . S
N3345 S3344 1.613 . S
N3345 C3348 1.350 . S
N3346 S3344 1.610 . S
N3346 C3347 1.351 . S
C3347 C3341 1.428 . S
C3347 N3346 1.351 . S
C3347 C3348 1.434 . S
C3348 C3339 1.429 . S
C3348 N3345 1.350 . S
C3348 C3347 1.434 . S
C3349 C3350 1.369 . S
C3349 C3351 1.419 . S
C3349 H3353 0.930 . S
C3350 C3349 1.369 . S
C3350 C3359 1.429 . S
C3351 C3349 1.419 . S
C3351 C3352 1.363 . S
C3351 H3354 0.929 . S
C3352 C3351 1.363 . S
C3352 C3358 1.428 . S
H3353 C3349 0.930 . S
H3354 C3351 0.929 . S
S3355 N3356 1.613 . S
S3355 N3357 1.610 . S
N3356 S3355 1.613 . S
N3356 C3359 1.350 . S
N3357 S3355 1.610 . S
N3357 C3358 1.351 . S
C3358 C3352 1.428 . S
C3358 N3357 1.351 . S
C3358 C3359 1.434 . S
C3359 C3350 1.429 . S
C3359 N3356 1.350 . S
C3359 C3358 1.434 . S
C1249 C5 1.465 . S
C1251 C120 1.465 . S
C1260 C133 1.465 . S
C1262 C18 1.465 . S
C1271 C29 1.465 . S
C1273 C148 1.464 . S
C1282 C44 1.465 . S
C1284 C107 1.465 . S
C1293 C57 1.465 . S
C1295 C198 1.465 . S
C1304 C159 1.459 . S
C1306 C68 1.460 . S
C1315 C83 1.465 . S
C1317 C172 1.465 . S
C1326 C185 1.460 . S
C1328 C96 1.461 . S
C1337 C237 1.460 . S
C1339 C211 1.461 . S
C1348 C224 1.462 . S
C1350 C913 1.463 . S
C1359 C926 1.465 . S
C1361 C250 1.464 . S
C1370 C263 1.459 . S
C1372 C900 1.460 . S
C1381 C887 1.465 . S
C1383 C276 1.465 . S
C1392 C848 1.463 . S
C1394 C291 1.464 . S
C1403 C304 1.465 . S
C1405 C874 1.464 . S
C1414 C315 1.465 . S
C1416 C434 1.463 . S
C1425 C330 1.461 . S
C1427 C447 1.460 . S
C1436 C458 1.463 . S
C1438 C341 1.464 . S
C1447 C419 1.465 . S
C1449 C356 1.464 . S
C1458 C512 1.461 . S
C1460 C367 1.463 . S
C1469 C380 1.462 . S
C1471 C471 1.461 . S
C1480 C395 1.460 . S
C1482 C486 1.462 . S
C1491 C406 1.460 . S
C1493 C497 1.460 . S
C1502 C525 1.459 . S
C1504 C551 1.461 . S
C1513 C536 1.465 . S
C1515 C1227 1.465 . S
C1524 C1238 1.459 . S
C1526 C562 1.460 . S
C1535 C575 1.461 . S
C1537 C1212 1.462 . S
C1546 C588 1.461 . S
C1548 C1201 1.460 . S
C1557 C603 1.459 . S
C1559 C1160 1.460 . S
C1568 C614 1.459 . S
C1570 C1188 1.460 . S
C1579 C627 1.464 . S
C1581 C744 1.464 . S
C1590 C759 1.463 . S
C1592 C640 1.464 . S
C1601 C770 1.465 . S
C1603 C653 1.465 . S
C1612 C668 1.463 . S
C1614 C731 1.464 . S
C1623 C681 1.459 . S
C1625 C822 1.461 . S
C1634 C694 1.464 . S
C1636 C785 1.463 . S
C1645 C707 1.465 . S
C1647 C796 1.464 . S
C1656 C811 1.465 . S
C1658 C720 1.464 . S
C1667 C837 1.465 . S
C1669 C863 1.464 . S
C1678 C941 1.465 . S
C1680 C1056 1.463 . S
C1689 C952 1.465 . S
C1691 C1069 1.465 . S
C1700 C1082 1.460 . S
C1702 C967 1.462 . S
C1711 C1045 1.462 . S
C1713 C978 1.463 . S
C1722 C991 1.465 . S
C1724 C1134 1.465 . S
C1733 C1095 1.462 . S
C1735 C1004 1.463 . S
C1744 C1108 1.460 . S
C1746 C1019 1.462 . S
C1755 C1121 1.464 . S
C1757 C1032 1.462 . S
C1766 C1147 1.465 . S
C1768 C1175 1.464 . S
C1777 C10 1.490 1_655 S
C1779 C264 1.490 . S
C1788 C23 1.490 . S
C1790 C849 1.490 . S
C1799 C868 1.490 . S
C1801 C30 1.490 . S
C1810 C875 1.490 1_554 S
C1812 C49 1.490 . S
C1821 C62 1.490 1_655 S
C1823 C927 1.490 . S
C1832 C277 1.490 . S
C1834 C69 1.490 . S
C1843 C88 1.491 . S
C1845 C914 1.492 . S
C1854 C101 1.490 . S
C1856 C212 1.491 1_556 S
C1865 C108 1.491 1_565 S
C1867 C199 1.491 . S
C1876 C160 1.490 1_545 S
C1878 C121 1.491 . S
C1887 C134 1.493 1_545 S
C1889 C173 1.493 . S
C1898 C153 1.493 . S
C1900 C186 1.493 1_565 S
C1909 C641 1.490 . S
C1911 C225 1.490 1_554 S
C1920 C654 1.490 1_455 S
C1922 C238 1.491 . S
C1931 C673 1.491 . S
C1933 C251 1.492 . S
C1942 C712 1.490 1_455 S
C1944 C296 1.491 . S
C1953 C309 1.493 . S
C1955 C686 1.492 . S
C1964 C316 1.490 1_455 S
C1966 C576 1.490 . S
C1975 C335 1.493 . S
C1977 C1161 1.493 . S
C1986 C1180 1.493 . S
C1988 C342 1.493 . S
C1997 C1193 1.492 1_556 S
C1999 C361 1.493 . S
C2008 C1239 1.490 . S
C2010 C368 1.491 1_455 S
C2019 C589 1.493 . S
C2021 C381 1.492 . S
C2030 C400 1.490 . S
C2032 C1232 1.490 . S
C2041 C407 1.491 . S
C2043 C530 1.491 1_554 S
C2052 C517 1.493 . S
C2054 C420 1.493 1_545 S
C2063 C439 1.493 . S
C2065 C472 1.492 1_565 S
C2074 C491 1.492 . S
C2076 C452 1.491 1_565 S
C2085 C459 1.491 . S
C2087 C498 1.491 1_545 S
C2096 C953 1.492 . S
C2098 C537 1.491 1_556 S
C2107 C556 1.492 . S
C2109 C972 1.492 1_655 S
C2118 C563 1.490 . S
C2120 C979 1.490 . S
C2129 C608 1.491 . S
C2131 C1024 1.492 1_655 S
C2140 C615 1.491 . S
C2142 C992 1.491 . S
C2151 C628 1.491 . S
C2153 C888 1.491 . S
C2162 C901 1.492 1_556 S
C2164 C699 1.492 . S
C2173 C725 1.493 . S
C2175 C842 1.493 . S
C2184 C823 1.490 . S
C2186 C732 1.490 . S
C2195 C790 1.490 . S
C2197 C745 1.490 . S
C2206 C764 1.491 . S
C2208 C797 1.491 . S
C2217 C771 1.492 . S
C2219 C816 1.492 . S
C2228 C1206 1.492 . S
C2230 C946 1.492 . S
C2239 C1005 1.491 . S
C2241 C1213 1.491 1_554 S
C2250 C1148 1.491 . S
C2252 C1037 1.492 . S
C2261 C1050 1.490 . S
C2263 C1135 1.491 . S
C2272 C1096 1.491 . S
C2274 C1057 1.491 . S
C2283 C1070 1.493 . S
C2285 C1109 1.493 . S
C2294 C1122 1.490 . S
C2296 C1083 1.490 . S
C2305 C3 1.423 . S
C2307 C569 1.373 . S
C2316 C582 1.364 . S
C2318 C16 1.427 . S
C2327 C543 1.369 . S
C2329 C31 1.424 . S
C2338 C42 1.423 . S
C2340 C1174 1.372 . S
C2349 C55 1.427 . S
C2351 C1219 1.367 . S
C2360 C70 1.427 . S
C2362 C1226 1.365 . S
C2371 C1154 1.365 . S
C2373 C81 1.426 . S
C2382 C1245 1.375 . S
C2384 C94 1.422 . S
C2393 C348 1.372 . S
C2395 C109 1.424 . S
C2404 C122 1.422 . S
C2406 C985 1.373 . S
C2415 C322 1.375 . S
C2417 C135 1.422 . S
C2426 C959 1.364 . S
C2428 C146 1.427 . S
C2437 C394 1.373 . S
C2439 C161 1.423 . S
C2448 C174 1.422 . S
C2450 C1031 1.374 . S
C2459 C187 1.424 . S
C2461 C374 1.369 . S
C2470 C200 1.423 . S
C2472 C1011 1.372 . S
C2481 C213 1.423 . S
C2483 C1102 1.371 . S
C2492 C426 1.369 . S
C2494 C226 1.425 . S
C2503 C239 1.422 . S
C2505 C1063 1.373 . S
C2514 C252 1.422 . S
C2516 C446 1.374 . S
C2525 C265 1.427 . S
C2527 C465 1.366 . S
C2536 C278 1.426 . S
C2538 C1128 1.366 . S
C2547 C1141 1.369 . S
C2549 C289 1.424 . S
C2558 C1115 1.365 . S
C2560 C302 1.427 . S
C2569 C257 1.372 . S
C2571 C317 1.424 . S
C2580 C328 1.421 . S
C2582 C270 1.374 . S
C2591 C343 1.428 . S
C2593 C231 1.365 . S
C2602 C354 1.421 . S
C2604 C862 1.374 . S
C2613 C907 1.371 . S
C2615 C369 1.424 . S
C2624 C920 1.363 . S
C2626 C382 1.427 . S
C2635 C393 1.422 . S
C2637 C836 1.373 . S
C2646 C933 1.363 . S
C2648 C408 1.427 . S
C2657 C421 1.426 . S
C2659 C36 1.367 . S
C2668 C667 1.374 . S
C2670 C432 1.423 . S
C2679 C445 1.428 . S
C2681 C4 1.365 . S
C2690 C647 1.367 . S
C2692 C460 1.426 . S
C2701 C473 1.425 . S
C2703 C82 1.369 . S
C2712 C719 1.366 . S
C2714 C484 1.426 . S
C2723 C56 1.367 . S
C2725 C499 1.426 . S
C2734 C693 1.375 . S
C2736 C510 1.422 . S
C2745 C523 1.425 . S
C2747 C784 1.368 . S
C2756 C538 1.423 . S
C2758 C114 1.372 . S
C2767 C751 1.366 . S
C2769 C549 1.426 . S
C2778 C564 1.427 . S
C2780 C140 1.367 . S
C2789 C147 1.373 . S
C2791 C577 1.423 . S
C2800 C810 1.375 . S
C2802 C590 1.422 . S
C2811 C829 1.375 . S
C2813 C601 1.422 . S
C2822 C803 1.367 . S
C2824 C616 1.426 . S
C2833 C629 1.424 . S
C2835 C1187 1.371 . S
C2844 C642 1.428 . S
C2846 C1200 1.365 . S
C2855 C655 1.424 . S
C2857 C1167 1.370 . S
C2866 C550 1.363 . S
C2868 C666 1.427 . S
C2877 C679 1.427 . S
C2879 C595 1.367 . S
C2888 C602 1.375 . S
C2890 C692 1.422 . S
C2899 C524 1.367 . S
C2901 C705 1.425 . S
C2910 C621 1.374 . S
C2912 C718 1.422 . S
C2921 C733 1.426 . S
C2923 C966 1.366 . S
C2932 C355 1.367 . S
C2934 C746 1.426 . S
C2943 C757 1.426 . S
C2945 C940 1.367 . S
C2954 C772 1.424 . S
C2956 C329 1.369 . S
C2965 C783 1.422 . S
C2967 C1018 1.373 . S
C2976 C798 1.426 . S
C2978 C413 1.369 . S
C2987 C998 1.375 . S
C2989 C809 1.422 . S
C2998 C387 1.371 . S
C3000 C824 1.425 . S
C3009 C835 1.422 . S
C3011 C478 1.374 . S
C3020 C850 1.426 . S
C3022 C1044 1.368 . S
C3031 C861 1.424 . S
C3033 C433 1.370 . S
C3042 C1076 1.369 . S
C3044 C876 1.424 . S
C3053 C889 1.422 . S
C3055 C1089 1.373 . S
C3064 C902 1.422 . S
C3066 C504 1.373 . S
C3075 C511 1.372 . S
C3077 C915 1.423 . S
C3086 C928 1.426 . S
C3088 C485 1.368 . S
C3097 C939 1.425 . S
C3099 C881 1.368 . S
C3108 C894 1.363 . S
C3110 C954 1.427 . S
C3119 C855 1.364 . S
C3121 C965 1.427 . S
C3130 C980 1.422 . S
C3132 C244 1.373 . S
C3141 C993 1.427 . S
C3143 C283 1.366 . S
C3152 C1006 1.425 . S
C3154 C290 1.368 . S
C3163 C218 1.366 . S
C3165 C1017 1.426 . S
C3174 C1030 1.423 . S
C3176 C303 1.371 . S
C3185 C1043 1.425 . S
C3187 C660 1.369 . S
C3196 C1058 1.427 . S
C3198 C43 1.366 . S
C3207 C1071 1.427 . S
C3209 C634 1.366 . S
C3218 C1084 1.426 . S
C3220 C17 1.368 . S
C3229 C1097 1.425 . S
C3231 C706 1.369 . S
C3240 C1110 1.424 . S
C3242 C95 1.370 . S
C3251 C1123 1.426 . S
C3253 C680 1.367 . S
C3262 C1136 1.428 . S
C3264 C75 1.365 . S
C3273 C1149 1.423 . S
C3275 C166 1.371 . S
C3284 C1162 1.422 . S
C3286 C738 1.373 . S
C3295 C1173 1.422 . S
C3297 C127 1.374 . S
C3306 C1186 1.426 . S
C3308 C758 1.368 . S
C3317 C1199 1.426 . S
C3319 C777 1.367 . S
C3328 C192 1.373 . S
C3330 C1214 1.423 . S
C3339 C1225 1.426 . S
C3341 C205 1.368 . S
C3350 C1240 1.428 . S
C3352 C179 1.365 . S
