# Generated by pormake.
# Topology snp, (6)-cn, num edge types: 1
# Building blocks:
#     Node 0, Type 0, BuildingBlock: PAMTOO_clean_sbu_0, # of connection points: 6
#     Node 1, Type 0, BuildingBlock: PAMTOO_clean_sbu_0, # of connection points: 6
#     Node 2, Type 0, BuildingBlock: PAMTOO_clean_sbu_0, # of connection points: 6
#     Node 3, Type 0, BuildingBlock: PAMTOO_clean_sbu_0, # of connection points: 6
#     Edge 4, Type (0, 0), BuildingBlock: FUNLAD_clean_linker_0, # of connection points: 2
#     Edge 5, Type (0, 0), BuildingBlock: FUNLAD_clean_linker_0, # of connection points: 2
#     Edge 6, Type (0, 0), BuildingBlock: FUNLAD_clean_linker_0, # of connection points: 2
#     Edge 7, Type (0, 0), BuildingBlock: FUNLAD_clean_linker_0, # of connection points: 2
#     Edge 8, Type (0, 0), BuildingBlock: FUNLAD_clean_linker_0, # of connection points: 2
#     Edge 9, Type (0, 0), BuildingBlock: FUNLAD_clean_linker_0, # of connection points: 2
#     Edge 10, Type (0, 0), BuildingBlock: FUNLAD_clean_linker_0, # of connection points: 2
#     Edge 11, Type (0, 0), BuildingBlock: FUNLAD_clean_linker_0, # of connection points: 2
#     Edge 12, Type (0, 0), BuildingBlock: FUNLAD_clean_linker_0, # of connection points: 2
#     Edge 13, Type (0, 0), BuildingBlock: FUNLAD_clean_linker_0, # of connection points: 2
#     Edge 14, Type (0, 0), BuildingBlock: FUNLAD_clean_linker_0, # of connection points: 2
#     Edge 15, Type (0, 0), BuildingBlock: FUNLAD_clean_linker_0, # of connection points: 2
# Relax obj value: 0.670
# Max RMSD: 0.189
# Mean RMSD: 0.189
data_MOF--net-snp--node1-PAMTOO_clean_sbu_0--edge1-FUNLAD_clean_linker_0
_symmetry_space_group_name_H-M    P1
_symmetry_Int_Tables_number       1
_symmetry_cell_setting            triclinic
loop_
_symmetry_equiv_pos_as_xyz
'x, y, z'
_cell_length_a     28.373117
_cell_length_b     29.467904
_cell_length_c     32.589645
_cell_angle_alpha  93.222957
_cell_angle_beta   95.372248
_cell_angle_gamma 89.594804
loop_
_atom_site_label
_atom_site_type_symbol
_atom_site_fract_x
_atom_site_fract_y
_atom_site_fract_z
_atom_type_partial_charge
Dy0 Dy 0.20714 0.97959 0.13963 0.0
Dy1 Dy 0.27505 0.06244 0.16993 0.0
C2 C 0.31593 0.97553 1.13089 0.0
O3 O 0.19736 0.98627 0.20616 0.0
O4 O 0.2676 0.02129 0.22776 0.0
O5 O 0.18078 0.91376 0.15187 0.0
O6 O 0.16039 0.94259 1.09332 0.0
O7 O 0.21045 0.08395 0.19695 0.0
O8 O 0.15852 0.03922 0.15365 0.0
O9 O 0.23383 0.08489 1.11088 0.0
O10 O 0.21777 0.01399 1.0813 0.0
O11 O 0.29701 0.13264 0.17409 0.0
O12 O 0.34613 0.07982 0.19477 0.0
C13 C 0.22963 0.99822 0.236 0.0
O14 O 0.28304 0.9543 0.14785 0.0
O15 O 0.30911 0.01811 1.12402 0.0
C16 C 0.17697 0.86425 1.09362 0.0
C17 C 0.2111 0.78254 1.05827 0.0
C18 C 0.16605 0.78429 1.07312 0.0
C19 C 0.14919 0.8249 1.09084 0.0
C20 C 0.22192 0.86262 1.07906 0.0
C21 C 0.2388 0.82221 1.0615 0.0
C22 C 0.16114 0.90622 1.11444 0.0
C23 C 0.16762 0.07371 0.18114 0.0
C24 C 0.21949 0.05825 1.07815 0.0
C25 C 0.35787 0.15393 0.22553 0.0
C26 C 0.39293 0.21487 0.29054 0.0
C27 C 0.3682 0.17554 0.29861 0.0
C28 C 0.35068 0.14533 0.26631 0.0
C29 C 0.38293 0.19271 0.21735 0.0
C30 C 0.40026 0.22307 0.24959 0.0
C31 C 0.33927 0.12335 0.19094 0.0
H32 H 0.14397 0.75427 1.07114 0.0
H33 H 0.11468 0.82552 1.10256 0.0
H34 H 0.24403 0.89266 1.08134 0.0
H35 H 0.27316 0.82238 1.04956 0.0
H36 H 0.3612 0.16879 0.32979 0.0
H37 H 0.33111 0.11563 0.27309 0.0
H38 H 0.38877 0.19971 0.18593 0.0
H39 H 0.41926 0.25297 0.2425 0.0
Dy40 Dy 0.08858 0.21822 0.64164 0.0
Dy41 Dy 0.97803 0.22406 0.66291 0.0
C42 C 1.03439 0.31257 0.6474 0.0
O43 O 0.0929 0.21979 0.71171 0.0
O44 O 1.01512 0.21846 0.72697 0.0
O45 O 0.15734 0.24735 0.65778 0.0
O46 O 0.1478 0.19402 0.60898 0.0
O47 O 0.99558 0.15037 0.66032 0.0
O48 O 0.07634 0.15403 0.67167 0.0
O49 O 0.9738 0.20553 0.59427 0.0
O50 O 0.0506 0.18648 0.58326 0.0
O51 O 0.91642 0.20793 0.69339 0.0
O52 O 0.91121 0.25607 0.64523 0.0
C53 C 0.06097 0.21683 0.73857 0.0
O54 O 0.06074 0.2868 0.62477 0.0
O55 O 1.0081 0.29411 0.67276 0.0
C56 C 0.20415 0.25142 0.60307 0.0
C57 C 0.25921 0.30615 0.55809 0.0
C58 C 0.21158 0.31721 0.56256 0.0
C59 C 0.18424 0.28996 0.58478 0.0
C60 C 0.25159 0.24045 0.5991 0.0
C61 C 0.2789 0.26748 0.5767 0.0
C62 C 0.17658 0.22419 0.62841 0.0
C63 C 0.03603 0.13406 0.67615 0.0
C64 C 1.00519 0.18819 0.57033 0.0
C65 C 0.86777 0.27192 0.7016 0.0
C66 C 0.82477 0.33441 0.75505 0.0
C67 C 0.87409 0.32741 0.75952 0.0
C68 C 0.89536 0.29663 0.73294 0.0
C69 C 0.81896 0.27986 0.69576 0.0
C70 C 0.79755 0.31098 0.72227 0.0
C71 C 0.89039 0.23868 0.67469 0.0
H72 H 0.19541 0.34685 0.54885 0.0
H73 H 0.14765 0.29906 0.5879 0.0
H74 H 0.26749 0.21093 0.61328 0.0
H75 H 0.31512 0.25737 0.57311 0.0
H76 H 0.89618 0.344 0.78478 0.0
H77 H 0.93328 0.29126 0.73747 0.0
H78 H 0.79736 0.26153 0.67117 0.0
H79 H 0.7596 0.3159 0.7177 0.0
Dy80 Dy 0.86062 0.94373 0.14961 0.0
Dy81 Dy 0.81917 0.04213 1.11949 0.0
C82 C 0.74708 0.96307 0.13648 0.0
O83 O 0.88271 0.94938 1.08561 0.0
O84 O 0.82946 1.00155 1.05912 0.0
O85 O 0.87575 0.87434 1.13038 0.0
O86 O 0.8963 0.89925 0.19311 0.0
O87 O 0.8951 0.03789 1.1108 0.0
O88 O 0.91802 0.99633 0.16489 0.0
O89 O 0.84254 0.05177 0.18811 0.0
O90 O 0.84196 0.97883 0.20923 0.0
O91 O 0.81703 0.11394 0.13537 0.0
O92 O 0.77724 0.08635 1.07948 0.0
C93 C 0.86126 0.96907 1.05372 0.0
O94 O 0.7814 0.93259 0.13759 0.0
O95 O 0.75556 1.00654 0.13539 0.0
C96 C 0.8732 0.82251 0.18178 0.0
C97 C 0.83718 0.74269 0.21066 0.0
C98 C 0.87865 0.7413 0.19009 0.0
C99 C 0.89652 0.78096 0.17582 0.0
C100 C 0.83086 0.8239 0.20076 0.0
C101 C 0.81308 0.78437 0.21523 0.0
C102 C 0.89269 0.86389 0.16712 0.0
C103 C 0.92428 0.03178 0.14322 0.0
C104 C 0.84532 0.02303 0.21792 0.0
C105 C 0.79837 0.1648 1.08333 0.0
C106 C 0.81183 0.24733 1.04668 0.0
C107 C 0.82959 0.20629 1.02977 0.0
C108 C 0.82296 0.16524 1.04804 0.0
C109 C 0.78188 0.20569 1.10089 0.0
C110 C 0.78852 0.24662 1.08278 0.0
C111 C 0.78893 0.12271 1.10291 0.0
H112 H 0.89775 0.70972 0.18566 0.0
H113 H 0.92886 0.77928 0.16055 0.0
H114 H 0.81207 0.85571 0.20508 0.0
H115 H 0.78151 0.78691 0.2315 0.0
H116 H 0.84723 0.20567 1.00168 0.0
H117 H 0.83627 0.13394 1.03431 0.0
H118 H 0.76326 0.20589 1.12846 0.0
H119 H 0.77502 0.27765 1.09682 0.0
Dy120 Dy 0.11279 0.82756 0.65819 0.0
Dy121 Dy 1.00135 0.82578 0.61879 0.0
C122 C 0.05931 0.73418 0.63288 0.0
O123 O 0.11623 0.83837 0.59029 0.0
O124 O 0.03931 0.85707 0.5693 0.0
O125 O 0.1822 0.80005 0.65075 0.0
O126 O 0.17238 0.8505 0.70023 0.0
O127 O 1.01001 0.89163 0.65532 0.0
O128 O 0.08979 0.89962 0.65419 0.0
O129 O 0.99681 0.82753 0.68806 0.0
O130 O 0.07451 0.83382 0.71612 0.0
O131 O 0.94226 0.84617 0.57684 0.0
O132 O 0.93299 0.79562 0.62122 0.0
C133 C 0.08456 0.855 0.56287 0.0
O134 O 0.08691 0.75665 0.66127 0.0
O135 O 1.03089 0.75589 0.60655 0.0
C136 C 0.22732 0.79192 0.71352 0.0
C137 C 0.27638 0.73684 0.77114 0.0
C138 C 0.30098 0.76824 0.75013 0.0
C139 C 0.27655 0.79559 0.72146 0.0
C140 C 0.20284 0.75975 0.73335 0.0
C141 C 0.2271 0.73248 0.7619 0.0
C142 C 0.20131 0.8212 0.68438 0.0
C143 C 0.04927 0.91424 0.66631 0.0
C144 C 1.0286 0.83321 0.72033 0.0
C145 C 0.88575 0.78811 0.55877 0.0
C146 C 0.8313 0.73005 0.50162 0.0
C147 C 0.88111 0.72813 0.50452 0.0
C148 C 0.90811 0.75687 0.53296 0.0
C149 C 0.83625 0.78979 0.5565 0.0
C150 C 0.80918 0.76103 0.52813 0.0
C151 C 0.91354 0.81695 0.59002 0.0
H152 H 0.33893 0.77225 0.7564 0.0
H153 H 0.29595 0.82002 0.70598 0.0
H154 H 0.16477 0.75639 0.72734 0.0
H155 H 0.20682 0.70941 0.77806 0.0
H156 H 0.8993 0.70527 0.48408 0.0
H157 H 0.9464 0.75482 0.53475 0.0
H158 H 0.81853 0.81328 0.57678 0.0
H159 H 0.77095 0.76308 0.5269 0.0
C160 C 0.93475 0.1159 0.14863 0.0
C161 C 0.94543 0.07325 0.16488 0.0
C162 C 0.94587 0.15602 0.17204 0.0
C163 C 0.96943 0.1544 0.2115 0.0
C164 C 0.98101 0.11214 0.22776 0.0
C165 C 0.96894 0.07181 0.20468 0.0
C166 C 0.98826 0.19685 0.23282 0.0
C167 C 1.03502 0.20505 0.23821 0.0
C168 C 0.06989 0.17241 0.2226 0.0
C169 C 0.06708 0.1574 0.18061 0.0
C170 C 0.0966 0.12256 0.16716 0.0
C171 C 0.13018 0.10343 0.19536 0.0
H172 H 0.10609 0.16427 0.28306 0.0
C173 C 0.13349 0.11909 0.23712 0.0
C174 C 0.10355 0.1533 0.25063 0.0
H175 H 0.15983 0.10519 0.25927 0.0
H176 H 0.91637 0.11852 1.11819 0.0
H177 H 0.93762 0.18836 0.15876 0.0
H178 H 0.99977 0.11045 0.25817 0.0
H179 H 0.97703 0.03967 0.21833 0.0
H180 H 0.9637 0.22238 0.2434 0.0
H181 H 0.0477 0.23545 0.25612 0.0
H182 H 0.04187 0.1725 0.15832 0.0
H183 H 0.09462 0.11205 0.13465 0.0
C184 C 1.0065 0.95652 0.71991 0.0
C185 C 0.0497 0.94279 0.70515 0.0
C186 C 1.00496 0.97293 0.76071 0.0
C187 C 0.04657 0.97644 0.78746 0.0
C188 C 0.08987 0.96359 0.7729 0.0
C189 C 0.09152 0.94715 0.73198 0.0
C190 C 0.04569 1.00173 0.82781 0.0
C191 C 0.04088 0.04721 0.82974 0.0
C192 C 0.03976 0.07248 0.79178 0.0
C193 C 0.99639 0.086 0.77207 0.0
C194 C 0.99431 0.10235 0.73249 0.0
C195 C 0.03576 0.10577 0.71219 0.0
H196 H 0.11467 0.06406 0.7861 0.0
C197 C 0.079 0.09133 0.73203 0.0
C198 C 0.081 0.07523 0.77154 0.0
H199 H 0.11171 0.09406 0.71766 0.0
H200 H 0.97356 0.95306 0.70034 0.0
H201 H 0.97134 0.98367 0.7713 0.0
H202 H 0.12247 0.96729 0.79293 0.0
H203 H 0.12529 0.93615 0.72196 0.0
H204 H 0.04838 0.98335 0.85589 0.0
H205 H 0.03812 0.06558 0.85923 0.0
H206 H 0.96404 0.0829 0.78691 0.0
H207 H 0.96053 0.11395 0.71858 0.0
C208 C 0.66106 0.98027 1.12107 0.0
C209 C 0.69627 0.94962 0.13554 0.0
C210 C 0.61305 0.97059 1.12162 0.0
C211 C 0.59823 0.92973 0.13662 0.0
C212 C 0.63325 0.89884 0.15122 0.0
C213 C 0.68181 0.9084 0.15023 0.0
C214 C 0.5466 0.92085 0.13948 0.0
C215 C 0.51266 0.93691 1.11197 0.0
C216 C 0.46026 0.9379 1.1155 0.0
C217 C 0.4316 0.9586 1.08426 0.0
C218 C 0.3838 0.96759 1.08824 0.0
C219 C 0.36267 0.95543 1.12326 0.0
H220 H 0.459 0.90719 0.17458 0.0
C221 C 0.39002 0.93176 0.15341 0.0
C222 C 0.43854 0.92328 0.14975 0.0
H223 H 0.37481 0.92262 0.18106 0.0
H224 H 0.67052 0.01241 1.1095 0.0
H225 H 0.58763 0.99609 1.11137 0.0
H226 H 0.62303 0.86733 0.16346 0.0
H227 H 0.70791 0.88417 0.16191 0.0
H228 H 0.53694 0.90197 0.16504 0.0
H229 H 0.52422 0.95273 1.08531 0.0
H230 H 0.44678 0.97014 1.05739 0.0
H231 H 0.36373 0.98605 1.06459 0.0
C232 C 0.06815 0.38494 0.62413 0.0
C233 C 1.03345 0.36285 0.64388 0.0
C234 C 0.06692 0.4323 0.62089 0.0
C235 C 1.03061 0.45872 0.637 0.0
C236 C 0.99564 0.43648 0.65616 0.0
C237 C 0.99726 0.38932 0.65996 0.0
C238 C 1.02722 0.50911 0.63338 0.0
C239 C 0.06523 0.53631 0.63262 0.0
C240 C 0.06229 0.587 0.63184 0.0
C241 C 0.10038 0.61313 0.65069 0.0
C242 C 0.09924 0.66066 0.6509 0.0
C243 C 0.06039 0.6835 0.63134 0.0
H244 H 0.99383 0.59069 0.59634 0.0
C245 C 1.02263 0.65741 0.61152 0.0
C246 C 1.02339 0.60969 0.612 0.0
H247 H 0.99217 0.67387 0.59614 0.0
H248 H 0.09643 0.36567 0.61125 0.0
H249 H 0.09393 0.44793 0.60506 0.0
H250 H 0.96705 0.45574 0.66861 0.0
H251 H 0.96972 0.37355 0.67511 0.0
H252 H 0.99242 0.52455 0.63424 0.0
H253 H 0.10039 0.52134 0.63578 0.0
H254 H 0.13099 0.59673 0.6659 0.0
H255 H 0.12909 0.67954 0.66628 0.0
C256 C 0.33609 0.33904 0.54117 0.0
C257 C 0.28726 0.33211 0.53118 0.0
C258 C 0.36428 0.35409 0.51174 0.0
C259 C 0.34399 0.36218 0.47176 0.0
C260 C 0.29455 0.36074 0.46365 0.0
C261 C 0.26644 0.34553 0.49293 0.0
C262 C 0.37253 0.36317 0.43594 0.0
C263 C 0.41073 0.33602 0.43336 0.0
C264 C 0.41846 0.30959 0.39443 0.0
C265 C 0.40379 0.3254 0.35531 0.0
C266 C 0.39843 0.29497 0.32072 0.0
C267 C 0.40799 0.24846 0.32468 0.0
H268 H 0.44518 0.25117 0.42692 0.0
C269 C 0.42767 0.2338 0.36281 0.0
C270 C 0.43314 0.26418 0.39729 0.0
H271 H 0.43654 0.19835 0.36646 0.0
H272 H 0.3529 0.33053 0.57099 0.0
H273 H 0.40212 0.35667 0.51957 0.0
H274 H 0.2779 0.36721 0.43322 0.0
H275 H 0.22894 0.34084 0.4842 0.0
H276 H 0.35413 0.375 0.4078 0.0
H277 H 0.42786 0.32269 0.46139 0.0
H278 H 0.3938 0.36056 0.35169 0.0
H279 H 0.3837 0.30736 0.29157 0.0
C280 C 0.82513 0.39844 0.80939 0.0
C281 C 0.80196 0.36088 0.78797 0.0
C282 C 0.81218 0.41392 0.84807 0.0
C283 C 0.77567 0.39214 0.86563 0.0
C284 C 0.74792 0.35967 0.84142 0.0
C285 C 0.76116 0.34382 0.80304 0.0
C286 C 0.77226 0.39426 0.91077 0.0
C287 C 0.81191 0.39209 0.93689 0.0
C288 C 0.81438 0.36296 0.97271 0.0
C289 C 0.85555 0.33699 0.98089 0.0
C290 C 0.85562 0.3007 1.00661 0.0
C291 C 0.81464 0.29005 1.02507 0.0
H292 H 0.74298 0.37527 0.98965 0.0
C293 C 0.77492 0.31876 1.02006 0.0
C294 C 0.77482 0.35503 0.99424 0.0
H295 H 0.74284 0.31166 1.03409 0.0
H296 H 0.85561 0.41352 0.7978 0.0
H297 H 0.83312 0.44027 0.86552 0.0
H298 H 0.71919 0.34275 0.85408 0.0
H299 H 0.74219 0.31511 0.7874 0.0
H300 H 0.73883 0.38333 0.92061 0.0
H301 H 0.84564 0.40049 0.92595 0.0
H302 H 0.88672 0.34263 0.96502 0.0
H303 H 0.88714 0.27987 1.01074 0.0
C304 C 0.81653 0.65796 0.45735 0.0
C305 C 0.803 0.7026 0.46863 0.0
C306 C 0.79606 0.6358 0.42103 0.0
C307 C 0.76206 0.65825 0.39512 0.0
C308 C 0.74472 0.70057 0.40902 0.0
C309 C 0.76514 0.72268 0.44525 0.0
C310 C 0.75065 0.64388 0.35085 0.0
C311 C 0.7836 0.62383 0.32859 0.0
C312 C 0.79437 0.64219 0.28896 0.0
C313 C 0.84222 0.64619 0.28206 0.0
C314 C 0.85599 0.67629 0.25393 0.0
C315 C 0.82203 0.70253 0.23167 0.0
H316 H 0.72261 0.65991 0.26592 0.0
C317 C 0.77377 0.69388 0.23448 0.0
C318 C 0.75998 0.66379 0.26279 0.0
H319 H 0.7467 0.71239 0.21659 0.0
H320 H 0.84453 0.64099 0.47559 0.0
H321 H 0.80888 0.6023 0.41232 0.0
H322 H 0.71823 0.71855 0.38999 0.0
H323 H 0.75366 0.75695 0.45307 0.0
H324 H 0.72211 0.66262 0.3349 0.0
H325 H 0.81222 0.60517 0.34449 0.0
H326 H 0.86951 0.62957 0.3014 0.0
H327 H 0.89348 0.68184 0.25251 0.0
C328 C 0.2863 0.66872 0.81421 0.0
C329 C 0.30023 0.71285 0.80624 0.0
C330 C 0.29815 0.65142 0.8529 0.0
C331 C 0.32394 0.67821 0.88422 0.0
C332 C 0.34349 0.71934 0.8742 0.0
C333 C 0.3315 0.7367 0.83565 0.0
C334 C 0.32279 0.66998 0.92865 0.0
C335 C 0.28301 0.65467 0.9429 0.0
C336 C 0.26444 0.67656 0.9803 0.0
C337 C 0.21549 0.68474 0.979 0.0
C338 C 0.19745 0.71684 1.00655 0.0
C339 C 0.22805 0.741 1.03625 0.0
H340 H 0.33188 0.68962 1.01622 0.0
C341 C 0.27617 0.72865 1.04085 0.0
C342 C 0.29425 0.69656 1.0132 0.0
H343 H 0.30034 0.74564 1.06441 0.0
H344 H 0.26353 0.64884 0.79154 0.0
H345 H 0.28424 0.61863 0.85906 0.0
H346 H 0.36401 0.74044 0.89757 0.0
H347 H 0.34315 0.77067 0.83054 0.0
H348 H 0.34799 0.68944 0.94965 0.0
H349 H 0.25707 0.63664 0.92147 0.0
H350 H 0.19158 0.66946 0.95425 0.0
H351 H 0.16018 0.72534 1.00227 0.0
C352 C 0.91403 0.92404 1.00741 0.0
C353 C 0.87678 0.95564 1.01149 0.0
C354 C 0.92949 0.91084 0.96864 0.0
C355 C 0.9083 0.92869 0.93211 0.0
C356 C 0.87084 0.96005 0.93609 0.0
C357 C 0.85551 0.97353 0.97505 0.0
C358 C 0.92266 0.91407 0.88955 0.0
C359 C 0.96459 0.89379 0.88194 0.0
C360 C 0.97943 0.87822 0.83982 0.0
C361 C 1.02762 0.86871 0.83563 0.0
C362 C 0.04338 0.85317 0.79752 0.0
C363 C 1.01141 0.84592 0.76204 0.0
H364 H 0.90982 0.87671 0.80587 0.0
C365 C 0.96302 0.85488 0.76626 0.0
C366 C 0.94729 0.87079 0.80437 0.0
H367 H 0.93707 0.85031 0.7398 0.0
H368 H 0.93152 0.90907 1.03441 0.0
H369 H 0.95749 0.88585 0.96761 0.0
H370 H 0.85324 0.97439 0.90883 0.0
H371 H 0.8268 0.99778 0.97651 0.0
H372 H 0.89782 0.92164 0.86345 0.0
H373 H 0.9907 0.8893 0.9079 0.0
H374 H 0.05358 0.87377 0.86203 0.0
H375 H 0.08088 0.84736 0.79585 0.0
C376 C 0.17687 0.96312 0.28391 0.0
C377 C 0.22012 0.98486 0.2788 0.0
C378 C 0.16603 0.94874 0.32231 0.0
C379 C 0.19779 0.95559 0.35794 0.0
C380 C 0.24123 0.97729 0.35312 0.0
C381 C 0.25217 0.9919 0.31428 0.0
C382 C 0.18745 0.93886 0.39965 0.0
C383 C 0.14344 0.92767 0.40972 0.0
C384 C 0.13068 0.90948 0.45005 0.0
C385 C 0.08238 0.90654 0.4568 0.0
C386 C 0.06768 0.88889 0.49283 0.0
C387 C 0.10068 0.87298 0.52377 0.0
H388 H 0.20142 0.89444 0.47733 0.0
C389 C 0.14916 0.87566 0.51714 0.0
C390 C 0.16396 0.89361 0.48098 0.0
H391 H 0.17595 0.86397 0.54005 0.0
H392 H 0.1508 0.95655 0.25784 0.0
H393 H 0.13285 0.93124 0.32333 0.0
H394 H 0.26697 0.98297 0.37958 0.0
H395 H 0.28581 1.00826 0.31204 0.0
H396 H 0.21728 0.93648 0.42282 0.0
H397 H 0.11361 0.93297 0.38718 0.0
H398 H 0.05545 0.91806 0.4339 0.0
H399 H 1.03013 0.88772 0.49631 0.0
C400 C 0.12434 0.18931 0.79219 0.0
C401 C 0.07761 0.20475 0.78215 0.0
C402 C 0.1391 0.17394 0.83165 0.0
C403 C 0.10783 0.17395 0.86285 0.0
C404 C 0.06144 0.19013 0.85306 0.0
C405 C 0.04639 0.2047 0.81336 0.0
C406 C 0.12278 0.15925 0.90609 0.0
C407 C 0.1568 0.12765 0.91532 0.0
C408 C 0.1713 0.11123 0.958 0.0
C409 C 0.18946 0.06686 0.96154 0.0
C410 C 0.20489 0.05016 1.00019 0.0
C411 C 0.20412 0.07758 1.03697 0.0
H412 H 0.15722 0.17345 0.99359 0.0
C413 C 0.18668 0.12238 1.03361 0.0
C414 C 0.17009 0.13884 0.99478 0.0
H415 H 0.18514 0.14456 1.0611 0.0
H416 H 0.14954 0.18811 0.76918 0.0
H417 H 0.17533 0.16265 0.83773 0.0
H418 H 0.0363 0.19092 0.87615 0.0
H419 H 1.01008 0.21576 0.80711 0.0
H420 H 0.10317 0.1734 0.93088 0.0
H421 H 0.17333 0.11063 0.88991 0.0
H422 H 0.1914 0.04463 0.93412 0.0
H423 H 0.21795 0.01557 1.00114 0.0
C424 C 0.87679 0.08529 0.27055 0.0
C425 C 0.85856 0.0409 0.26187 0.0
C426 C 0.89294 0.10103 0.31114 0.0
C427 C 0.89037 0.07329 0.34473 0.0
C428 C 0.87097 0.02945 0.3362 0.0
C429 C 0.85601 0.01327 0.2955 0.0
C430 C 0.9052 0.08954 0.38899 0.0
C431 C 0.94083 0.11953 0.40078 0.0
C432 C 0.95657 0.13511 0.44504 0.0
C433 C 1.00399 0.14839 0.45577 0.0
C434 C 1.01982 0.16479 0.49618 0.0
C435 C 0.98845 0.16979 0.52721 0.0
H436 H 0.88827 0.13056 0.46928 0.0
C437 C 0.94082 0.15692 0.51644 0.0
C438 C 0.92521 0.13949 0.47618 0.0
H439 H 0.91544 0.16008 0.53928 0.0
H440 H 0.87937 0.10785 0.24576 0.0
H441 H 0.90662 0.13529 0.31617 0.0
H442 H 0.86795 1.00721 0.36118 0.0
H443 H 0.84236 0.97899 0.29043 0.0
H444 H 0.88754 0.07416 0.4129 0.0
H445 H 0.96129 0.13169 0.37708 0.0
H446 H 1.02915 0.14591 0.43271 0.0
H447 H 0.05663 0.17434 0.5029 0.0
loop_
_geom_bond_atom_site_label_1
_geom_bond_atom_site_label_2
_geom_bond_distance
_geom_bond_site_symmetry_2
_ccdc_geom_bond_type
Dy0 O3 2.307 . S
Dy0 O5 2.395 1_554 S
Dy0 O6 2.379 1_554 S
Dy0 O8 2.339 . S
Dy0 O10 2.298 1_564 S
Dy0 O14 2.275 1_565 S
Dy0 C22 2.738 1_554 S
Dy1 O4 2.298 . S
Dy1 O7 2.275 . S
Dy1 O9 2.307 . S
Dy1 O11 2.395 . S
Dy1 O12 2.379 . S
Dy1 O15 2.339 . S
Dy1 C31 2.738 . S
C2 O14 1.254 . S
C2 O15 1.257 . S
O3 Dy0 2.307 . S
O3 C13 1.266 . S
O4 Dy1 2.298 . S
O4 C13 1.236 1_545 S
O5 Dy0 2.395 1_556 S
O5 C22 1.255 . S
O6 Dy0 2.379 1_556 S
O6 C22 1.249 . S
O7 Dy1 2.275 . S
O7 C23 1.254 . S
O8 Dy0 2.339 . S
O8 C23 1.257 1_565 S
O9 Dy1 2.307 . S
O9 C24 1.266 1_554 S
O10 Dy0 2.298 1_546 S
O10 C24 1.236 . S
O11 Dy1 2.395 . S
O11 C31 1.255 . S
O12 Dy1 2.379 . S
O12 C31 1.249 . S
C13 O3 1.266 . S
C13 O4 1.236 1_565 S
O14 Dy0 2.275 1_545 S
O14 C2 1.254 . S
O15 Dy1 2.339 . S
O15 C2 1.257 . S
C16 C19 1.344 . S
C16 C20 1.328 . S
C16 C22 1.516 . S
C17 C18 1.304 . S
C17 C21 1.323 . S
C18 C17 1.304 . S
C18 C19 1.371 . S
C18 H32 0.930 . S
C19 C16 1.344 . S
C19 C18 1.371 . S
C19 H33 0.931 . S
C20 C16 1.328 . S
C20 C21 1.433 . S
C20 H34 0.931 . S
C21 C17 1.323 . S
C21 C20 1.433 . S
C21 H35 0.933 . S
C22 Dy0 2.738 1_556 S
C22 O5 1.255 . S
C22 O6 1.249 . S
C22 C16 1.516 . S
C23 O7 1.254 . S
C23 O8 1.257 1_545 S
C24 O9 1.266 1_556 S
C24 O10 1.236 . S
C25 C28 1.344 . S
C25 C29 1.328 . S
C25 C31 1.516 . S
C26 C27 1.304 . S
C26 C30 1.323 . S
C27 C26 1.304 . S
C27 C28 1.371 . S
C27 H36 0.930 . S
C28 C25 1.344 . S
C28 C27 1.371 . S
C28 H37 0.931 . S
C29 C25 1.328 . S
C29 C30 1.433 . S
C29 H38 0.931 . S
C30 C26 1.323 . S
C30 C29 1.433 . S
C30 H39 0.933 . S
C31 Dy1 2.738 . S
C31 O11 1.255 . S
C31 O12 1.249 . S
C31 C25 1.516 . S
H32 C18 0.930 . S
H33 C19 0.931 . S
H34 C20 0.931 . S
H35 C21 0.933 . S
H36 C27 0.930 . S
H37 C28 0.931 . S
H38 C29 0.931 . S
H39 C30 0.933 . S
Dy40 O43 2.307 . S
Dy40 O45 2.395 . S
Dy40 O46 2.379 . S
Dy40 O48 2.339 . S
Dy40 O50 2.298 . S
Dy40 O54 2.275 . S
Dy40 C62 2.738 . S
Dy41 O44 2.298 1_655 S
Dy41 O47 2.275 1_655 S
Dy41 O49 2.307 . S
Dy41 O51 2.395 . S
Dy41 O52 2.379 . S
Dy41 O55 2.339 . S
Dy41 C71 2.738 . S
C42 O54 1.254 . S
C42 O55 1.257 1_455 S
O43 Dy40 2.307 . S
O43 C53 1.266 . S
O44 Dy41 2.298 1_455 S
O44 C53 1.236 . S
O45 Dy40 2.395 . S
O45 C62 1.255 . S
O46 Dy40 2.379 . S
O46 C62 1.249 . S
O47 Dy41 2.275 1_455 S
O47 C63 1.254 . S
O48 Dy40 2.339 . S
O48 C63 1.257 . S
O49 Dy41 2.307 . S
O49 C64 1.266 . S
O50 Dy40 2.298 . S
O50 C64 1.236 1_455 S
O51 Dy41 2.395 . S
O51 C71 1.255 . S
O52 Dy41 2.379 . S
O52 C71 1.249 . S
C53 O43 1.266 . S
C53 O44 1.236 . S
O54 Dy40 2.275 . S
O54 C42 1.254 . S
O55 Dy41 2.339 . S
O55 C42 1.257 1_655 S
C56 C59 1.344 . S
C56 C60 1.328 . S
C56 C62 1.516 . S
C57 C58 1.304 . S
C57 C61 1.323 . S
C58 C57 1.304 . S
C58 C59 1.371 . S
C58 H72 0.930 . S
C59 C56 1.344 . S
C59 C58 1.371 . S
C59 H73 0.931 . S
C60 C56 1.328 . S
C60 C61 1.433 . S
C60 H74 0.931 . S
C61 C57 1.323 . S
C61 C60 1.433 . S
C61 H75 0.933 . S
C62 Dy40 2.738 . S
C62 O45 1.255 . S
C62 O46 1.249 . S
C62 C56 1.516 . S
C63 O47 1.254 . S
C63 O48 1.257 . S
C64 O49 1.266 . S
C64 O50 1.236 1_655 S
C65 C68 1.344 . S
C65 C69 1.328 . S
C65 C71 1.516 . S
C66 C67 1.304 . S
C66 C70 1.323 . S
C67 C66 1.304 . S
C67 C68 1.371 . S
C67 H76 0.930 . S
C68 C65 1.344 . S
C68 C67 1.371 . S
C68 H77 0.931 . S
C69 C65 1.328 . S
C69 C70 1.433 . S
C69 H78 0.931 . S
C70 C66 1.323 . S
C70 C69 1.433 . S
C70 H79 0.933 . S
C71 Dy41 2.738 . S
C71 O51 1.255 . S
C71 O52 1.249 . S
C71 C65 1.516 . S
H72 C58 0.930 . S
H73 C59 0.931 . S
H74 C60 0.931 . S
H75 C61 0.933 . S
H76 C67 0.930 . S
H77 C68 0.931 . S
H78 C69 0.931 . S
H79 C70 0.933 . S
Dy80 O83 2.307 1_554 S
Dy80 O85 2.395 . S
Dy80 O86 2.379 . S
Dy80 O88 2.339 . S
Dy80 O90 2.298 1_565 S
Dy80 O94 2.275 . S
Dy80 C102 2.738 . S
Dy81 O84 2.298 1_545 S
Dy81 O87 2.275 1_556 S
Dy81 O89 2.307 1_556 S
Dy81 O91 2.395 . S
Dy81 O92 2.379 . S
Dy81 O95 2.339 . S
Dy81 C111 2.738 . S
C82 O94 1.254 1_545 S
C82 O95 1.257 1_554 S
O83 Dy80 2.307 1_556 S
O83 C93 1.266 . S
O84 Dy81 2.298 1_565 S
O84 C93 1.236 . S
O85 Dy80 2.395 . S
O85 C102 1.255 . S
O86 Dy80 2.379 . S
O86 C102 1.249 . S
O87 Dy81 2.275 1_554 S
O87 C103 1.254 1_545 S
O88 Dy80 2.339 . S
O88 C103 1.257 . S
O89 Dy81 2.307 1_554 S
O89 C104 1.266 . S
O90 Dy80 2.298 1_545 S
O90 C104 1.236 . S
O91 Dy81 2.395 . S
O91 C111 1.255 . S
O92 Dy81 2.379 . S
O92 C111 1.249 . S
C93 O83 1.266 . S
C93 O84 1.236 . S
O94 Dy80 2.275 . S
O94 C82 1.254 1_565 S
O95 Dy81 2.339 . S
O95 C82 1.257 1_556 S
C96 C99 1.344 . S
C96 C100 1.328 . S
C96 C102 1.516 . S
C97 C98 1.304 . S
C97 C101 1.323 . S
C98 C97 1.304 . S
C98 C99 1.371 . S
C98 H112 0.930 . S
C99 C96 1.344 . S
C99 C98 1.371 . S
C99 H113 0.931 . S
C100 C96 1.328 . S
C100 C101 1.433 . S
C100 H114 0.931 . S
C101 C97 1.323 . S
C101 C100 1.433 . S
C101 H115 0.933 . S
C102 Dy80 2.738 . S
C102 O85 1.255 . S
C102 O86 1.249 . S
C102 C96 1.516 . S
C103 O87 1.254 1_565 S
C103 O88 1.257 . S
C104 O89 1.266 . S
C104 O90 1.236 . S
C105 C108 1.344 . S
C105 C109 1.328 . S
C105 C111 1.516 . S
C106 C107 1.304 . S
C106 C110 1.323 . S
C107 C106 1.304 . S
C107 C108 1.371 . S
C107 H116 0.930 . S
C108 C105 1.344 . S
C108 C107 1.371 . S
C108 H117 0.931 . S
C109 C105 1.328 . S
C109 C110 1.433 . S
C109 H118 0.931 . S
C110 C106 1.323 . S
C110 C109 1.433 . S
C110 H119 0.933 . S
C111 Dy81 2.738 . S
C111 O91 1.255 . S
C111 O92 1.249 . S
C111 C105 1.516 . S
H112 C98 0.930 . S
H113 C99 0.931 . S
H114 C100 0.931 . S
H115 C101 0.933 . S
H116 C107 0.930 . S
H117 C108 0.931 . S
H118 C109 0.931 . S
H119 C110 0.933 . S
Dy120 O123 2.307 . S
Dy120 O125 2.395 . S
Dy120 O126 2.379 . S
Dy120 O128 2.339 . S
Dy120 O130 2.298 1_455 S
Dy120 O134 2.275 . S
Dy120 C142 2.738 . S
Dy121 O124 2.298 1_655 S
Dy121 O127 2.275 . S
Dy121 O129 2.307 . S
Dy121 O131 2.395 . S
Dy121 O132 2.379 . S
Dy121 O135 2.339 . S
Dy121 C151 2.738 . S
C122 O134 1.254 1_655 S
C122 O135 1.257 . S
O123 Dy120 2.307 . S
O123 C133 1.266 . S
O124 Dy121 2.298 1_455 S
O124 C133 1.236 . S
O125 Dy120 2.395 . S
O125 C142 1.255 . S
O126 Dy120 2.379 . S
O126 C142 1.249 . S
O127 Dy121 2.275 . S
O127 C143 1.254 1_655 S
O128 Dy120 2.339 . S
O128 C143 1.257 . S
O129 Dy121 2.307 . S
O129 C144 1.266 . S
O130 Dy120 2.298 1_655 S
O130 C144 1.236 . S
O131 Dy121 2.395 . S
O131 C151 1.255 . S
O132 Dy121 2.379 . S
O132 C151 1.249 . S
C133 O123 1.266 . S
C133 O124 1.236 . S
O134 Dy120 2.275 . S
O134 C122 1.254 1_455 S
O135 Dy121 2.339 . S
O135 C122 1.257 . S
C136 C139 1.344 . S
C136 C140 1.328 . S
C136 C142 1.516 . S
C137 C138 1.304 . S
C137 C141 1.323 . S
C138 C137 1.304 . S
C138 C139 1.371 . S
C138 H152 0.930 . S
C139 C136 1.344 . S
C139 C138 1.371 . S
C139 H153 0.931 . S
C140 C136 1.328 . S
C140 C141 1.433 . S
C140 H154 0.931 . S
C141 C137 1.323 . S
C141 C140 1.433 . S
C141 H155 0.933 . S
C142 Dy120 2.738 . S
C142 O125 1.255 . S
C142 O126 1.249 . S
C142 C136 1.516 . S
C143 O127 1.254 1_455 S
C143 O128 1.257 . S
C144 O129 1.266 . S
C144 O130 1.236 . S
C145 C148 1.344 . S
C145 C149 1.328 . S
C145 C151 1.516 . S
C146 C147 1.304 . S
C146 C150 1.323 . S
C147 C146 1.304 . S
C147 C148 1.371 . S
C147 H156 0.930 . S
C148 C145 1.344 . S
C148 C147 1.371 . S
C148 H157 0.931 . S
C149 C145 1.328 . S
C149 C150 1.433 . S
C149 H158 0.931 . S
C150 C146 1.323 . S
C150 C149 1.433 . S
C150 H159 0.933 . S
C151 Dy121 2.738 . S
C151 O131 1.255 . S
C151 O132 1.249 . S
C151 C145 1.516 . S
H152 C138 0.930 . S
H153 C139 0.931 . S
H154 C140 0.931 . S
H155 C141 0.933 . S
H156 C147 0.930 . S
H157 C148 0.931 . S
H158 C149 0.931 . S
H159 C150 0.933 . S
C160 C161 1.386 1_556 S
C160 C162 1.383 . S
C160 H176 0.951 . S
C161 C160 1.386 1_554 S
C161 C165 1.383 1_545 S
C162 C160 1.383 . S
C162 C163 1.402 1_556 S
C162 H177 0.951 . S
C163 C162 1.402 1_554 S
C163 C164 1.375 1_545 S
C163 C166 1.481 . S
C164 C163 1.375 1_565 S
C164 C165 1.367 . S
C164 H178 0.951 . S
C165 C161 1.383 1_565 S
C165 C164 1.367 . S
C165 H179 0.950 . S
C166 C163 1.481 . S
C166 C167 1.297 1_655 S
C166 H180 0.950 1_655 S
C167 C166 1.297 1_455 S
C167 C168 1.479 . S
C167 H181 0.950 . S
C168 C167 1.479 . S
C168 C169 1.375 . S
C168 C174 1.404 . S
C169 C168 1.375 . S
C169 C170 1.369 . S
C169 H182 0.950 1_554 S
C170 C169 1.369 . S
C170 C171 1.392 . S
C170 H183 0.951 1_554 S
C171 C170 1.392 . S
C171 C173 1.384 . S
H172 C174 0.949 . S
C173 C171 1.384 . S
C173 C174 1.385 . S
C173 H175 0.950 . S
C174 C168 1.404 . S
C174 H172 0.949 . S
C174 C173 1.385 . S
H175 C173 0.950 . S
H176 C160 0.951 . S
H177 C162 0.951 . S
H178 C164 0.951 . S
H179 C165 0.950 . S
H180 C166 0.950 1_455 S
H181 C167 0.950 . S
H182 C169 0.950 1_556 S
H183 C170 0.951 1_556 S
C184 C185 1.386 1_655 S
C184 C186 1.383 . S
C184 H200 0.951 . S
C185 C184 1.386 1_455 S
C185 C189 1.383 . S
C186 C184 1.383 . S
C186 C187 1.402 1_655 S
C186 H201 0.951 . S
C187 C186 1.402 1_455 S
C187 C188 1.375 . S
C187 C190 1.481 . S
C188 C187 1.375 . S
C188 C189 1.367 . S
C188 H202 0.951 . S
C189 C185 1.383 . S
C189 C188 1.367 . S
C189 H203 0.950 . S
C190 C187 1.481 . S
C190 C191 1.297 1_465 S
C190 H204 0.950 1_565 S
C191 C190 1.297 1_645 S
C191 C192 1.479 1_655 S
C191 H205 0.950 . S
C192 C191 1.479 1_455 S
C192 C193 1.375 1_455 S
C192 C198 1.404 . S
C193 C192 1.375 1_655 S
C193 C194 1.369 . S
C193 H206 0.950 . S
C194 C193 1.369 . S
C194 C195 1.392 1_655 S
C194 H207 0.951 . S
C195 C194 1.392 1_455 S
C195 C197 1.384 . S
H196 C198 0.949 . S
C197 C195 1.384 . S
C197 C198 1.385 . S
C197 H199 0.950 . S
C198 C192 1.404 . S
C198 H196 0.949 . S
C198 C197 1.385 . S
H199 C197 0.950 . S
H200 C184 0.951 . S
H201 C186 0.951 . S
H202 C188 0.951 . S
H203 C189 0.950 . S
H204 C190 0.950 1_545 S
H205 C191 0.950 . S
H206 C193 0.950 . S
H207 C194 0.951 . S
C208 C209 1.386 1_545 S
C208 C210 1.383 . S
C208 H224 0.951 . S
C209 C208 1.386 1_565 S
C209 C213 1.383 . S
C210 C208 1.383 . S
C210 C211 1.402 1_545 S
C210 H225 0.951 . S
C211 C210 1.402 1_565 S
C211 C212 1.375 . S
C211 C214 1.481 . S
C212 C211 1.375 . S
C212 C213 1.367 . S
C212 H226 0.951 . S
C213 C209 1.383 . S
C213 C212 1.367 . S
C213 H227 0.950 . S
C214 C211 1.481 . S
C214 C215 1.297 1_565 S
C214 H228 0.950 . S
C215 C214 1.297 1_545 S
C215 C216 1.479 . S
C215 H229 0.944 1_554 S
C216 C215 1.479 . S
C216 C217 1.375 . S
C216 C222 1.404 1_545 S
C217 C216 1.375 . S
C217 C218 1.369 . S
C217 H230 0.950 . S
C218 C217 1.369 . S
C218 C219 1.392 . S
C218 H231 0.951 . S
C219 C218 1.392 . S
C219 C221 1.384 1_545 S
H220 C222 0.949 . S
C221 C219 1.384 1_565 S
C221 C222 1.385 . S
C221 H223 0.950 . S
C222 C216 1.404 1_565 S
C222 H220 0.949 . S
C222 C221 1.385 . S
H223 C221 0.950 . S
H224 C208 0.951 . S
H225 C210 0.951 . S
H226 C212 0.951 . S
H227 C213 0.950 . S
H228 C214 0.950 . S
H229 C215 0.944 1_556 S
H230 C217 0.950 . S
H231 C218 0.951 . S
C232 C233 1.386 . S
C232 C234 1.383 . S
C232 H248 0.951 . S
C233 C232 1.386 . S
C233 C237 1.386 . S
C234 C232 1.383 . S
C234 C235 1.402 . S
C234 H249 0.951 . S
C235 C234 1.402 . S
C235 C236 1.375 1_455 S
C235 C238 1.481 . S
C236 C235 1.375 1_655 S
C236 C237 1.366 1_655 S
C236 H250 0.951 . S
C237 C233 1.386 . S
C237 C236 1.366 1_455 S
C237 H251 0.947 1_455 S
C238 C235 1.481 . S
C238 C239 1.297 . S
C238 H252 0.950 1_455 S
C239 C238 1.297 . S
C239 C240 1.479 . S
C239 H253 0.950 . S
C240 C239 1.479 . S
C240 C241 1.375 . S
C240 C246 1.404 . S
C241 C240 1.375 . S
C241 C242 1.369 . S
C241 H254 0.950 . S
C242 C241 1.369 . S
C242 C243 1.392 . S
C242 H255 0.951 . S
C243 C242 1.392 . S
C243 C245 1.384 1_455 S
H244 C246 0.949 1_655 S
C245 C243 1.384 1_655 S
C245 C246 1.385 1_655 S
C245 H247 0.950 . S
C246 C240 1.404 . S
C246 H244 0.949 1_455 S
C246 C245 1.385 1_455 S
H247 C245 0.950 . S
H248 C232 0.951 . S
H249 C234 0.951 . S
H250 C236 0.951 . S
H251 C237 0.947 1_655 S
H252 C238 0.950 1_655 S
H253 C239 0.950 . S
H254 C241 0.950 . S
H255 C242 0.951 . S
C256 C257 1.386 . S
C256 C258 1.383 . S
C256 H272 0.951 . S
C257 C256 1.386 . S
C257 C261 1.383 . S
C258 C256 1.383 . S
C258 C259 1.402 . S
C258 H273 0.951 . S
C259 C258 1.402 . S
C259 C260 1.375 . S
C259 C262 1.481 . S
C260 C259 1.375 . S
C260 C261 1.367 . S
C260 H274 0.951 . S
C261 C257 1.383 . S
C261 C260 1.367 . S
C261 H275 0.950 . S
C262 C259 1.481 . S
C262 C263 1.297 . S
C262 H276 0.950 . S
C263 C262 1.297 . S
C263 C264 1.479 . S
C263 H277 0.950 . S
C264 C263 1.479 . S
C264 C265 1.375 . S
C264 C270 1.404 . S
C265 C264 1.375 . S
C265 C266 1.369 . S
C265 H278 0.950 . S
C266 C265 1.369 . S
C266 C267 1.392 . S
C266 H279 0.951 . S
C267 C266 1.392 . S
C267 C269 1.384 . S
H268 C270 0.949 . S
C269 C267 1.384 . S
C269 C270 1.385 . S
C269 H271 0.950 . S
C270 C264 1.404 . S
C270 H268 0.949 . S
C270 C269 1.385 . S
H271 C269 0.950 . S
H272 C256 0.951 . S
H273 C258 0.951 . S
H274 C260 0.951 . S
H275 C261 0.950 . S
H276 C262 0.950 . S
H277 C263 0.950 . S
H278 C265 0.950 . S
H279 C266 0.951 . S
C280 C281 1.386 . S
C280 C282 1.383 . S
C280 H296 0.951 . S
C281 C280 1.386 . S
C281 C285 1.383 . S
C282 C280 1.383 . S
C282 C283 1.402 . S
C282 H297 0.951 . S
C283 C282 1.402 . S
C283 C284 1.375 . S
C283 C286 1.481 . S
C284 C283 1.375 . S
C284 C285 1.367 . S
C284 H298 0.951 . S
C285 C281 1.383 . S
C285 C284 1.367 . S
C285 H299 0.950 . S
C286 C283 1.481 . S
C286 C287 1.297 . S
C286 H300 0.950 . S
C287 C286 1.297 . S
C287 C288 1.479 . S
C287 H301 0.950 . S
C288 C287 1.479 . S
C288 C289 1.375 . S
C288 C294 1.404 . S
C289 C288 1.375 . S
C289 C290 1.369 . S
C289 H302 0.950 . S
C290 C289 1.369 . S
C290 C291 1.392 . S
C290 H303 0.951 . S
C291 C290 1.392 . S
C291 C293 1.384 . S
H292 C294 0.949 . S
C293 C291 1.384 . S
C293 C294 1.385 . S
C293 H295 0.950 . S
C294 C288 1.404 . S
C294 H292 0.949 . S
C294 C293 1.385 . S
H295 C293 0.950 . S
H296 C280 0.951 . S
H297 C282 0.951 . S
H298 C284 0.951 . S
H299 C285 0.950 . S
H300 C286 0.950 . S
H301 C287 0.950 . S
H302 C289 0.950 . S
H303 C290 0.951 . S
C304 C305 1.386 . S
C304 C306 1.383 . S
C304 H320 0.951 . S
C305 C304 1.386 . S
C305 C309 1.383 . S
C306 C304 1.383 . S
C306 C307 1.402 . S
C306 H321 0.951 . S
C307 C306 1.402 . S
C307 C308 1.375 . S
C307 C310 1.481 . S
C308 C307 1.375 . S
C308 C309 1.367 . S
C308 H322 0.951 . S
C309 C305 1.383 . S
C309 C308 1.367 . S
C309 H323 0.950 . S
C310 C307 1.481 . S
C310 C311 1.297 . S
C310 H324 0.950 . S
C311 C310 1.297 . S
C311 C312 1.479 . S
C311 H325 0.950 . S
C312 C311 1.479 . S
C312 C313 1.375 . S
C312 C318 1.404 . S
C313 C312 1.375 . S
C313 C314 1.369 . S
C313 H326 0.950 . S
C314 C313 1.369 . S
C314 C315 1.392 . S
C314 H327 0.951 . S
C315 C314 1.392 . S
C315 C317 1.384 . S
H316 C318 0.949 . S
C317 C315 1.384 . S
C317 C318 1.385 . S
C317 H319 0.950 . S
C318 C312 1.404 . S
C318 H316 0.949 . S
C318 C317 1.385 . S
H319 C317 0.950 . S
H320 C304 0.951 . S
H321 C306 0.951 . S
H322 C308 0.951 . S
H323 C309 0.950 . S
H324 C310 0.950 . S
H325 C311 0.950 . S
H326 C313 0.950 . S
H327 C314 0.951 . S
C328 C329 1.386 . S
C328 C330 1.383 . S
C328 H344 0.951 . S
C329 C328 1.386 . S
C329 C333 1.383 . S
C330 C328 1.383 . S
C330 C331 1.402 . S
C330 H345 0.951 . S
C331 C330 1.402 . S
C331 C332 1.375 . S
C331 C334 1.481 . S
C332 C331 1.375 . S
C332 C333 1.367 . S
C332 H346 0.951 . S
C333 C329 1.383 . S
C333 C332 1.367 . S
C333 H347 0.950 . S
C334 C331 1.481 . S
C334 C335 1.297 . S
C334 H348 0.950 . S
C335 C334 1.297 . S
C335 C336 1.479 . S
C335 H349 0.950 . S
C336 C335 1.479 . S
C336 C337 1.375 . S
C336 C342 1.404 . S
C337 C336 1.375 . S
C337 C338 1.369 . S
C337 H350 0.950 . S
C338 C337 1.369 . S
C338 C339 1.392 . S
C338 H351 0.951 . S
C339 C338 1.392 . S
C339 C341 1.384 . S
H340 C342 0.949 . S
C341 C339 1.384 . S
C341 C342 1.385 . S
C341 H343 0.950 . S
C342 C336 1.404 . S
C342 H340 0.949 . S
C342 C341 1.385 . S
H343 C341 0.950 . S
H344 C328 0.951 . S
H345 C330 0.951 . S
H346 C332 0.951 . S
H347 C333 0.950 . S
H348 C334 0.950 . S
H349 C335 0.950 . S
H350 C337 0.950 . S
H351 C338 0.951 . S
C352 C353 1.386 . S
C352 C354 1.383 . S
C352 H368 0.951 . S
C353 C352 1.386 . S
C353 C357 1.383 . S
C354 C352 1.383 . S
C354 C355 1.402 . S
C354 H369 0.951 . S
C355 C354 1.402 . S
C355 C356 1.375 . S
C355 C358 1.481 . S
C356 C355 1.375 . S
C356 C357 1.367 . S
C356 H370 0.951 . S
C357 C353 1.383 . S
C357 C356 1.367 . S
C357 H371 0.950 . S
C358 C355 1.481 . S
C358 C359 1.297 . S
C358 H372 0.950 . S
C359 C358 1.297 . S
C359 C360 1.479 . S
C359 H373 0.950 . S
C360 C359 1.479 . S
C360 C361 1.375 . S
C360 C366 1.404 . S
C361 C360 1.375 . S
C361 C362 1.369 . S
C361 H374 0.950 . S
C362 C361 1.369 . S
C362 C363 1.392 . S
C362 H375 0.951 . S
C363 C362 1.392 . S
C363 C365 1.384 . S
H364 C366 0.949 . S
C365 C363 1.384 . S
C365 C366 1.385 . S
C365 H367 0.950 . S
C366 C360 1.404 . S
C366 H364 0.949 . S
C366 C365 1.385 . S
H367 C365 0.950 . S
H368 C352 0.951 . S
H369 C354 0.951 . S
H370 C356 0.951 . S
H371 C357 0.950 . S
H372 C358 0.950 . S
H373 C359 0.950 . S
H374 C361 0.950 . S
H375 C362 0.951 . S
C376 C377 1.386 . S
C376 C378 1.383 . S
C376 H392 0.951 . S
C377 C376 1.386 . S
C377 C381 1.383 . S
C378 C376 1.383 . S
C378 C379 1.402 . S
C378 H393 0.951 . S
C379 C378 1.402 . S
C379 C380 1.375 . S
C379 C382 1.481 . S
C380 C379 1.375 . S
C380 C381 1.367 . S
C380 H394 0.951 . S
C381 C377 1.383 . S
C381 C380 1.367 . S
C381 H395 0.950 . S
C382 C379 1.481 . S
C382 C383 1.297 . S
C382 H396 0.950 . S
C383 C382 1.297 . S
C383 C384 1.479 . S
C383 H397 0.950 . S
C384 C383 1.479 . S
C384 C385 1.375 . S
C384 C390 1.404 . S
C385 C384 1.375 . S
C385 C386 1.369 . S
C385 H398 0.950 . S
C386 C385 1.369 . S
C386 C387 1.392 . S
C386 H399 0.951 . S
C387 C386 1.392 . S
C387 C389 1.384 . S
H388 C390 0.949 . S
C389 C387 1.384 . S
C389 C390 1.385 . S
C389 H391 0.950 . S
C390 C384 1.404 . S
C390 H388 0.949 . S
C390 C389 1.385 . S
H391 C389 0.950 . S
H392 C376 0.951 . S
H393 C378 0.951 . S
H394 C380 0.951 . S
H395 C381 0.950 . S
H396 C382 0.950 . S
H397 C383 0.950 . S
H398 C385 0.950 . S
H399 C386 0.951 . S
C400 C401 1.386 . S
C400 C402 1.383 . S
C400 H416 0.951 . S
C401 C400 1.386 . S
C401 C405 1.383 . S
C402 C400 1.383 . S
C402 C403 1.402 . S
C402 H417 0.951 . S
C403 C402 1.402 . S
C403 C404 1.375 . S
C403 C406 1.481 . S
C404 C403 1.375 . S
C404 C405 1.367 . S
C404 H418 0.951 . S
C405 C401 1.383 . S
C405 C404 1.367 . S
C405 H419 0.950 . S
C406 C403 1.481 . S
C406 C407 1.297 . S
C406 H420 0.950 . S
C407 C406 1.297 . S
C407 C408 1.479 . S
C407 H421 0.950 . S
C408 C407 1.479 . S
C408 C409 1.375 . S
C408 C414 1.404 . S
C409 C408 1.375 . S
C409 C410 1.369 . S
C409 H422 0.950 . S
C410 C409 1.369 . S
C410 C411 1.392 . S
C410 H423 0.951 . S
C411 C410 1.392 . S
C411 C413 1.384 . S
H412 C414 0.949 . S
C413 C411 1.384 . S
C413 C414 1.385 . S
C413 H415 0.950 . S
C414 C408 1.404 . S
C414 H412 0.949 . S
C414 C413 1.385 . S
H415 C413 0.950 . S
H416 C400 0.951 . S
H417 C402 0.951 . S
H418 C404 0.951 . S
H419 C405 0.950 . S
H420 C406 0.950 . S
H421 C407 0.950 . S
H422 C409 0.950 . S
H423 C410 0.951 . S
C424 C425 1.386 . S
C424 C426 1.383 . S
C424 H440 0.951 . S
C425 C424 1.386 . S
C425 C429 1.383 . S
C426 C424 1.383 . S
C426 C427 1.402 . S
C426 H441 0.951 . S
C427 C426 1.402 . S
C427 C428 1.375 . S
C427 C430 1.481 . S
C428 C427 1.375 . S
C428 C429 1.367 . S
C428 H442 0.951 . S
C429 C425 1.383 . S
C429 C428 1.367 . S
C429 H443 0.950 . S
C430 C427 1.481 . S
C430 C431 1.297 . S
C430 H444 0.950 . S
C431 C430 1.297 . S
C431 C432 1.479 . S
C431 H445 0.950 . S
C432 C431 1.479 . S
C432 C433 1.375 . S
C432 C438 1.404 . S
C433 C432 1.375 . S
C433 C434 1.369 . S
C433 H446 0.950 . S
C434 C433 1.369 . S
C434 C435 1.392 . S
C434 H447 0.951 . S
C435 C434 1.392 . S
C435 C437 1.384 . S
H436 C438 0.949 . S
C437 C435 1.384 . S
C437 C438 1.385 . S
C437 H439 0.950 . S
C438 C432 1.404 . S
C438 H436 0.949 . S
C438 C437 1.385 . S
H439 C437 0.950 . S
H440 C424 0.951 . S
H441 C426 0.951 . S
H442 C428 0.951 . S
H443 C429 0.950 . S
H444 C430 0.950 . S
H445 C431 0.950 . S
H446 C433 0.950 . S
H447 C434 0.951 . S
C161 C103 0.332 1_545 S
C171 C23 0.582 . S
C185 C143 0.321 . S
C195 C63 0.578 . S
C209 C82 0.587 1_565 S
C219 C2 0.603 . S
C233 C42 0.588 . S
C243 C122 0.570 1_455 S
C257 C57 1.091 . S
C267 C26 1.197 . S
C281 C66 1.006 . S
C291 C106 1.004 . S
C305 C146 1.137 . S
C315 C97 1.188 . S
C329 C137 1.294 . S
C339 C17 1.347 . S
C353 C93 4.520 . S
C363 C144 4.469 . S
C377 C13 4.841 . S
C387 C133 4.833 . S
C401 C53 4.520 . S
C411 C24 4.469 . S
C425 C104 4.201 . S
C435 C64 4.194 . S
