# Generated by pormake.
# Topology crs, (6)-cn, num edge types: 1
# Building blocks:
#     Node 0, Type 0, BuildingBlock: CUWYAW_clean_sbu_0, # of connection points: 6
#     Node 1, Type 0, BuildingBlock: CUWYAW_clean_sbu_0, # of connection points: 6
#     Node 2, Type 0, BuildingBlock: CUWYAW_clean_sbu_0, # of connection points: 6
#     Node 3, Type 0, BuildingBlock: CUWYAW_clean_sbu_0, # of connection points: 6
#     Node 4, Type 0, BuildingBlock: CUWYAW_clean_sbu_0, # of connection points: 6
#     Node 5, Type 0, BuildingBlock: CUWYAW_clean_sbu_0, # of connection points: 6
#     Node 6, Type 0, BuildingBlock: CUWYAW_clean_sbu_0, # of connection points: 6
#     Node 7, Type 0, BuildingBlock: CUWYAW_clean_sbu_0, # of connection points: 6
#     Node 8, Type 0, BuildingBlock: CUWYAW_clean_sbu_0, # of connection points: 6
#     Node 9, Type 0, BuildingBlock: CUWYAW_clean_sbu_0, # of connection points: 6
#     Node 10, Type 0, BuildingBlock: CUWYAW_clean_sbu_0, # of connection points: 6
#     Node 11, Type 0, BuildingBlock: CUWYAW_clean_sbu_0, # of connection points: 6
#     Node 12, Type 0, BuildingBlock: CUWYAW_clean_sbu_0, # of connection points: 6
#     Node 13, Type 0, BuildingBlock: CUWYAW_clean_sbu_0, # of connection points: 6
#     Node 14, Type 0, BuildingBlock: CUWYAW_clean_sbu_0, # of connection points: 6
#     Node 15, Type 0, BuildingBlock: CUWYAW_clean_sbu_0, # of connection points: 6
#     Edge 16, Type (0, 0), BuildingBlock: UVAHIK_clean_linker_0, # of connection points: 2
#     Edge 17, Type (0, 0), BuildingBlock: UVAHIK_clean_linker_0, # of connection points: 2
#     Edge 18, Type (0, 0), BuildingBlock: UVAHIK_clean_linker_0, # of connection points: 2
#     Edge 19, Type (0, 0), BuildingBlock: UVAHIK_clean_linker_0, # of connection points: 2
#     Edge 20, Type (0, 0), BuildingBlock: UVAHIK_clean_linker_0, # of connection points: 2
#     Edge 21, Type (0, 0), BuildingBlock: UVAHIK_clean_linker_0, # of connection points: 2
#     Edge 22, Type (0, 0), BuildingBlock: UVAHIK_clean_linker_0, # of connection points: 2
#     Edge 23, Type (0, 0), BuildingBlock: UVAHIK_clean_linker_0, # of connection points: 2
#     Edge 24, Type (0, 0), BuildingBlock: UVAHIK_clean_linker_0, # of connection points: 2
#     Edge 25, Type (0, 0), BuildingBlock: UVAHIK_clean_linker_0, # of connection points: 2
#     Edge 26, Type (0, 0), BuildingBlock: UVAHIK_clean_linker_0, # of connection points: 2
#     Edge 27, Type (0, 0), BuildingBlock: UVAHIK_clean_linker_0, # of connection points: 2
#     Edge 28, Type (0, 0), BuildingBlock: UVAHIK_clean_linker_0, # of connection points: 2
#     Edge 29, Type (0, 0), BuildingBlock: UVAHIK_clean_linker_0, # of connection points: 2
#     Edge 30, Type (0, 0), BuildingBlock: UVAHIK_clean_linker_0, # of connection points: 2
#     Edge 31, Type (0, 0), BuildingBlock: UVAHIK_clean_linker_0, # of connection points: 2
#     Edge 32, Type (0, 0), BuildingBlock: UVAHIK_clean_linker_0, # of connection points: 2
#     Edge 33, Type (0, 0), BuildingBlock: UVAHIK_clean_linker_0, # of connection points: 2
#     Edge 34, Type (0, 0), BuildingBlock: UVAHIK_clean_linker_0, # of connection points: 2
#     Edge 35, Type (0, 0), BuildingBlock: UVAHIK_clean_linker_0, # of connection points: 2
#     Edge 36, Type (0, 0), BuildingBlock: UVAHIK_clean_linker_0, # of connection points: 2
#     Edge 37, Type (0, 0), BuildingBlock: UVAHIK_clean_linker_0, # of connection points: 2
#     Edge 38, Type (0, 0), BuildingBlock: UVAHIK_clean_linker_0, # of connection points: 2
#     Edge 39, Type (0, 0), BuildingBlock: UVAHIK_clean_linker_0, # of connection points: 2
#     Edge 40, Type (0, 0), BuildingBlock: UVAHIK_clean_linker_0, # of connection points: 2
#     Edge 41, Type (0, 0), BuildingBlock: UVAHIK_clean_linker_0, # of connection points: 2
#     Edge 42, Type (0, 0), BuildingBlock: UVAHIK_clean_linker_0, # of connection points: 2
#     Edge 43, Type (0, 0), BuildingBlock: UVAHIK_clean_linker_0, # of connection points: 2
#     Edge 44, Type (0, 0), BuildingBlock: UVAHIK_clean_linker_0, # of connection points: 2
#     Edge 45, Type (0, 0), BuildingBlock: UVAHIK_clean_linker_0, # of connection points: 2
#     Edge 46, Type (0, 0), BuildingBlock: UVAHIK_clean_linker_0, # of connection points: 2
#     Edge 47, Type (0, 0), BuildingBlock: UVAHIK_clean_linker_0, # of connection points: 2
#     Edge 48, Type (0, 0), BuildingBlock: UVAHIK_clean_linker_0, # of connection points: 2
#     Edge 49, Type (0, 0), BuildingBlock: UVAHIK_clean_linker_0, # of connection points: 2
#     Edge 50, Type (0, 0), BuildingBlock: UVAHIK_clean_linker_0, # of connection points: 2
#     Edge 51, Type (0, 0), BuildingBlock: UVAHIK_clean_linker_0, # of connection points: 2
#     Edge 52, Type (0, 0), BuildingBlock: UVAHIK_clean_linker_0, # of connection points: 2
#     Edge 53, Type (0, 0), BuildingBlock: UVAHIK_clean_linker_0, # of connection points: 2
#     Edge 54, Type (0, 0), BuildingBlock: UVAHIK_clean_linker_0, # of connection points: 2
#     Edge 55, Type (0, 0), BuildingBlock: UVAHIK_clean_linker_0, # of connection points: 2
#     Edge 56, Type (0, 0), BuildingBlock: UVAHIK_clean_linker_0, # of connection points: 2
#     Edge 57, Type (0, 0), BuildingBlock: UVAHIK_clean_linker_0, # of connection points: 2
#     Edge 58, Type (0, 0), BuildingBlock: UVAHIK_clean_linker_0, # of connection points: 2
#     Edge 59, Type (0, 0), BuildingBlock: UVAHIK_clean_linker_0, # of connection points: 2
#     Edge 60, Type (0, 0), BuildingBlock: UVAHIK_clean_linker_0, # of connection points: 2
#     Edge 61, Type (0, 0), BuildingBlock: UVAHIK_clean_linker_0, # of connection points: 2
#     Edge 62, Type (0, 0), BuildingBlock: UVAHIK_clean_linker_0, # of connection points: 2
#     Edge 63, Type (0, 0), BuildingBlock: UVAHIK_clean_linker_0, # of connection points: 2
# Relax obj value: 0.404
# Max RMSD: 0.343
# Mean RMSD: 0.292
data_MOF--net-crs--node1-CUWYAW_clean_sbu_0--edge1-UVAHIK_clean_linker_0
_symmetry_space_group_name_H-M    P1
_symmetry_Int_Tables_number       1
_symmetry_cell_setting            triclinic
loop_
_symmetry_equiv_pos_as_xyz
'x, y, z'
_cell_length_a     65.579179
_cell_length_b     70.406797
_cell_length_c     52.126332
_cell_angle_alpha  77.35018
_cell_angle_beta   78.839219
_cell_angle_gamma 69.492645
loop_
_atom_site_label
_atom_site_type_symbol
_atom_site_fract_x
_atom_site_fract_y
_atom_site_fract_z
_atom_type_partial_charge
C0 C 0.03898 1.0121 0.95842 0.0
Eu1 Eu -0.00097 0.01804 0.98142 0.0
C2 C 0.05563 0.01972 0.96396 0.0
C3 C 0.06909 0.02735 0.943 0.0
C4 C 0.0815 0.03858 0.94764 0.0
C5 C 0.08055 0.04238 0.97334 0.0
C6 C 0.06811 0.03356 0.99451 0.0
C7 C 0.05564 0.02249 0.98983 0.0
C8 C 0.9607 0.04015 0.96206 0.0
C9 C 0.97848 0.05483 0.01531 0.0
C10 C 0.91829 0.02308 0.0456 0.0
Eu11 Eu 0.9577 0.01827 0.02118 0.0
C12 C 0.90178 0.01527 0.04005 0.0
C13 C 0.88974 1.00592 0.06099 0.0
C14 C 0.87811 0.99412 0.05596 0.0
C15 C 0.87844 0.99145 0.02987 0.0
C16 C 0.88926 1.00205 0.00884 0.0
C17 C 0.90095 0.01371 0.01388 0.0
C18 C -0.00344 0.99692 0.04032 0.0
C19 C 0.97691 0.98252 0.98551 0.0
O20 O 0.03318 0.99846 0.97709 0.0
O21 O 0.02213 0.02649 0.94869 0.0
O22 O 0.97884 0.04429 0.95355 0.0
O23 O 0.96436 0.02327 0.97763 0.0
O24 O -0.0033 0.04318 0.00322 0.0
O25 O 0.9605 0.04941 0.02189 0.0
O26 O 0.92342 0.03733 0.02741 0.0
O27 O 0.93558 1.00873 0.05435 0.0
O28 O 0.97875 0.99221 0.04881 0.0
O29 O -0.00782 0.01373 0.02481 0.0
O30 O 0.95914 0.99401 0.99848 0.0
O31 O -0.00486 0.98754 0.97908 0.0
H32 H 0.06904 0.02562 0.92286 0.0
H33 H 0.09076 0.04533 0.93088 0.0
H34 H 0.06729 0.03594 0.01457 0.0
H35 H 0.0451 0.01706 0.00631 0.0
H36 H 0.89046 1.00667 0.08133 0.0
H37 H 0.8701 0.98601 0.07262 0.0
H38 H 0.88955 1.00058 0.9885 0.0
H39 H 0.91039 0.02047 0.99736 0.0
C40 C -0.01062 0.22583 0.22064 0.0
Eu41 Eu -0.01141 0.25477 0.24493 0.0
C42 C -0.00792 0.21978 0.19456 0.0
C43 C 0.97872 0.23186 0.175 0.0
C44 C 0.97919 0.2241 0.15229 0.0
C45 C -0.00696 0.20419 0.14876 0.0
C46 C 0.00728 0.19269 0.16768 0.0
C47 C 0.00676 0.20041 0.19036 0.0
C48 C 0.95927 0.29351 0.24148 0.0
C49 C 0.02103 0.28046 0.21301 0.0
C50 C 0.0001 0.30987 0.29845 0.0
Eu51 Eu -0.00059 0.28243 0.27243 0.0
C52 C 0.00112 0.31279 0.32529 0.0
C53 C 0.0174 0.29917 0.34064 0.0
C54 C 0.01961 0.3037 0.36459 0.0
C55 C 0.00553 0.32185 0.37368 0.0
C56 C -0.01131 0.33496 0.35878 0.0
C57 C -0.01344 0.33048 0.33481 0.0
C58 C 0.02785 0.24311 0.27644 0.0
C59 C 0.96541 0.25809 0.30348 0.0
O60 O 0.00677 0.22656 0.22863 0.0
O61 O 0.97147 0.24042 0.22736 0.0
O62 O 0.95414 0.27708 0.24311 0.0
O63 O 0.97986 0.2891 0.23952 0.0
O64 O 0.01559 0.26368 0.21566 0.0
O65 O 0.01291 0.29288 0.23075 0.0
O66 O 0.98194 0.30809 0.29405 0.0
O67 O 0.01765 0.29767 0.28664 0.0
O68 O 0.03375 0.25918 0.27411 0.0
O69 O 0.00728 0.24837 0.27838 0.0
O70 O 0.9714 0.27455 0.3009 0.0
O71 O 0.97363 0.24536 0.28615 0.0
H72 H 0.96731 0.24692 0.17769 0.0
H73 H 0.96823 0.23342 0.1379 0.0
H74 H 0.01795 0.17721 0.16578 0.0
H75 H 0.01712 0.19081 0.20526 0.0
H76 H 0.0288 0.28533 0.33381 0.0
H77 H 0.0326 0.2932 0.37576 0.0
H78 H 0.97775 0.34919 0.36501 0.0
H79 H 0.97396 0.34123 0.32324 0.0
C80 C 0.68805 0.2469 0.4673 0.0
Eu81 Eu 0.71996 0.2562 0.47863 0.0
C82 C 0.67878 0.22996 0.47653 0.0
C83 C 0.67518 0.22034 0.45776 0.0
C84 C 0.66771 0.20341 0.4659 0.0
C85 C 0.66354 0.1959 0.49299 0.0
C86 C 0.66675 0.20577 0.51184 0.0
C87 C 0.67446 0.2226 0.50369 0.0
C88 C 0.76101 0.24807 0.45204 0.0
C89 C 0.745 0.21986 0.5241 0.0
C90 C 0.78667 0.27142 0.5151 0.0
Eu91 Eu 0.75375 0.26273 0.50538 0.0
C92 C 0.79147 0.29036 0.51475 0.0
C93 C 0.77469 0.30814 0.52134 0.0
C94 C 0.77958 0.32591 0.52141 0.0
C95 C 0.80126 0.32628 0.51454 0.0
C96 C 0.81792 0.30861 0.50731 0.0
C97 C 0.81305 0.29077 0.50749 0.0
C98 C 0.7131 0.27114 0.53274 0.0
C99 C 0.72768 0.29966 0.46013 0.0
O100 O 0.68524 0.25935 0.48396 0.0
O101 O 0.70783 0.242 0.45429 0.0
O102 O 0.74337 0.25691 0.44056 0.0
O103 O 0.75619 0.24329 0.47663 0.0
O104 O 0.72705 0.22881 0.51224 0.0
O105 O 0.76024 0.22881 0.52085 0.0
O106 O 0.78539 0.26775 0.49203 0.0
O107 O 0.77127 0.26759 0.53347 0.0
O108 O 0.73098 0.26362 0.54381 0.0
O109 O 0.71741 0.27553 0.50794 0.0
O110 O 0.74429 0.29196 0.47446 0.0
O111 O 0.71401 0.2895 0.46059 0.0
H112 H 0.67845 0.22576 0.43675 0.0
H113 H 0.66515 0.1962 0.45098 0.0
H114 H 0.66381 0.20016 0.53284 0.0
H115 H 0.67734 0.22962 0.51859 0.0
H116 H 0.75784 0.30825 0.5266 0.0
H117 H 0.7664 0.33939 0.52676 0.0
H118 H 0.83479 0.30842 0.50212 0.0
H119 H 0.82616 0.27723 0.50217 0.0
C120 C 0.71939 0.99961 0.66622 0.0
Eu121 Eu 0.7333 0.99915 0.70996 0.0
C122 C 0.69878 1.00975 0.65468 0.0
C123 C 0.6797 0.01986 0.67024 0.0
C124 C 0.65934 0.0264 0.66106 0.0
C125 C 0.65771 0.02264 0.63629 0.0
C126 C 0.67701 0.01347 0.62014 0.0
C127 C 0.69743 1.00708 0.62929 0.0
C128 C 0.73232 0.97089 0.75477 0.0
C129 C 0.69728 0.03301 0.74419 0.0
C130 C 0.75363 1.00637 0.80794 0.0
Eu131 Eu 0.74585 1.00803 0.76032 0.0
C132 C 0.76814 0.01336 0.81893 0.0
C133 C 0.78166 0.02374 0.80206 0.0
C134 C 0.79485 0.03114 0.81257 0.0
C135 C 0.79482 0.02818 0.84014 0.0
C136 C 0.7813 0.01762 0.85696 0.0
C137 C 0.76802 1.0103 0.84639 0.0
C138 C 0.75594 0.03442 0.71624 0.0
C139 C 0.78188 0.97567 0.72415 0.0
O140 O 0.73072 1.01126 0.66787 0.0
O141 O 0.71807 0.9863 0.68779 0.0
O142 O 0.73842 0.96652 0.731 0.0
O143 O 0.72587 0.99018 0.75393 0.0
O144 O 0.70329 0.02545 0.72178 0.0
O145 O 0.70984 0.02654 0.76341 0.0
O146 O 0.76331 0.99135 0.79424 0.0
O147 O 0.73786 0.02106 0.79652 0.0
O148 O 0.75986 0.03408 0.73979 0.0
O149 O 0.74802 0.02031 0.71777 0.0
O150 O 0.77472 0.98093 0.74802 0.0
O151 O 0.76999 0.98386 0.70423 0.0
H152 H 0.68036 0.02158 0.69011 0.0
H153 H 0.64476 0.03313 0.67411 0.0
H154 H 0.6762 1.01052 0.60088 0.0
H155 H 0.712 0.99918 0.6171 0.0
H156 H 0.78189 0.02625 0.78079 0.0
H157 H 0.80486 0.03941 0.7991 0.0
H158 H 0.78117 0.0148 0.87825 0.0
H159 H 0.75763 1.00231 0.85964 0.0
C160 C 0.46607 0.74124 0.21277 0.0
Eu161 Eu 0.48183 0.7603 0.23757 0.0
C162 C 0.47108 0.73135 0.18927 0.0
C163 C 0.45379 0.73365 0.17554 0.0
C164 C 0.45757 0.72353 0.15407 0.0
C165 C 0.47876 0.71085 0.14595 0.0
C166 C 0.49623 0.70897 0.15935 0.0
C167 C 0.49243 0.71922 0.18084 0.0
C168 C 0.46291 0.80122 0.23963 0.0
C169 C 0.52143 0.77619 0.21195 0.0
C170 C 0.51418 0.79327 0.29993 0.0
Eu171 Eu 0.49985 0.77384 0.27394 0.0
C172 C 0.50631 0.80366 0.32318 0.0
C173 C 0.52163 0.80558 0.33692 0.0
C174 C 0.51461 0.81541 0.35908 0.0
C175 C 0.49209 0.82353 0.36788 0.0
C176 C 0.47673 0.82144 0.35413 0.0
C177 C 0.4838 0.81147 0.33199 0.0
C178 C 0.51879 0.73292 0.2715 0.0
C179 C 0.46056 0.75766 0.29943 0.0
O180 O 0.47811 0.73201 0.23198 0.0
O181 O 0.46155 0.76116 0.2085 0.0
O182 O 0.46867 0.7934 0.21802 0.0
O183 O 0.46736 0.78714 0.25938 0.0
O184 O 0.51176 0.76314 0.20989 0.0
O185 O 0.51717 0.78429 0.23377 0.0
O186 O 0.50399 0.80209 0.27906 0.0
O187 O 0.51839 0.77337 0.30468 0.0
O188 O 0.51336 0.74058 0.29321 0.0
O189 O 0.5143 0.74712 0.25195 0.0
O190 O 0.46965 0.77119 0.3012 0.0
O191 O 0.4653 0.74924 0.27786 0.0
H192 H 0.43721 0.74295 0.18183 0.0
H193 H 0.44371 0.72503 0.14447 0.0
H194 H 0.51275 0.69942 0.15339 0.0
H195 H 0.50604 0.7174 0.1911 0.0
H196 H 0.53906 0.79958 0.33039 0.0
H197 H 0.52683 0.81707 0.36896 0.0
H198 H 0.4593 0.82743 0.36055 0.0
H199 H 0.47174 0.80993 0.32171 0.0
C200 C 0.18753 0.75485 0.48766 0.0
Eu201 Eu 0.2218 0.76239 0.49541 0.0
C202 C 0.182 0.73605 0.48993 0.0
C203 C 0.19818 0.71673 0.49363 0.0
C204 C 0.19295 0.69884 0.49542 0.0
C205 C 0.17143 0.7 0.4935 0.0
C206 C 0.15522 0.71944 0.49013 0.0
C207 C 0.16048 0.73732 0.48837 0.0
C208 C 0.26202 0.75193 0.46714 0.0
C209 C 0.24804 0.725 0.54009 0.0
C210 C 0.29149 0.77566 0.52839 0.0
Eu211 Eu 0.25778 0.76745 0.52009 0.0
C212 C 0.29901 0.7937 0.52029 0.0
C213 C 0.28424 0.81316 0.51223 0.0
C214 C 0.29143 0.83027 0.50436 0.0
C215 C 0.31353 0.82825 0.50448 0.0
C216 C 0.32831 0.80864 0.51236 0.0
C217 C 0.32109 0.7915 0.52018 0.0
C218 C 0.21714 0.77787 0.54767 0.0
C219 C 0.23199 0.80445 0.47532 0.0
O220 O 0.18946 0.75929 0.50997 0.0
O221 O 0.20318 0.75728 0.46876 0.0
O222 O 0.24395 0.76033 0.4565 0.0
O223 O 0.25804 0.74805 0.49204 0.0
O224 O 0.23078 0.73347 0.52686 0.0
O225 O 0.2628 0.73426 0.5383 0.0
O226 O 0.29206 0.76607 0.5093 0.0
O227 O 0.27336 0.77801 0.54491 0.0
O228 O 0.23493 0.76865 0.55878 0.0
O229 O 0.22173 0.78192 0.52295 0.0
O230 O 0.25013 0.79504 0.48673 0.0
O231 O 0.21623 0.79608 0.47918 0.0
H232 H 0.2149 0.71549 0.49496 0.0
H233 H 0.20574 0.68411 0.49835 0.0
H234 H 0.13856 0.72088 0.48824 0.0
H235 H 0.14781 0.75215 0.48554 0.0
H236 H 0.26712 0.81515 0.51207 0.0
H237 H 0.27969 0.84507 0.49802 0.0
H238 H 0.34538 0.8066 0.51294 0.0
H239 H 0.33271 0.77656 0.52626 0.0
C240 C 0.23333 0.50607 0.66724 0.0
Eu241 Eu 0.23983 0.50317 0.71569 0.0
C242 C 0.21814 0.52061 0.64932 0.0
C243 C 0.21534 0.51426 0.62702 0.0
C244 C 0.19751 0.5257 0.61323 0.0
C245 C 0.18214 0.54358 0.62176 0.0
C246 C 0.18615 0.55085 0.64274 0.0
C247 C 0.20409 0.53941 0.65642 0.0
C248 C 0.236 0.47341 0.75783 0.0
C249 C 0.20042 0.53694 0.74748 0.0
C250 C 0.24752 0.50846 0.82118 0.0
Eu251 Eu 0.24601 0.51048 0.77118 0.0
C252 C 0.25096 0.52188 0.83659 0.0
C253 C 0.25009 0.54209 0.82514 0.0
C254 C 0.25627 0.55392 0.83856 0.0
C255 C 0.26341 0.54568 0.86361 0.0
C256 C 0.26318 0.52576 0.87552 0.0
C257 C 0.25704 0.51394 0.86204 0.0
C258 C 0.2571 0.53893 0.73054 0.0
C259 C 0.28514 0.47789 0.73832 0.0
O260 O 0.24804 0.51247 0.67332 0.0
O261 O 0.22405 0.49615 0.68774 0.0
O262 O 0.24401 0.46988 0.7339 0.0
O263 O 0.22913 0.49253 0.75817 0.0
O264 O 0.20862 0.52939 0.7251 0.0
O265 O 0.21094 0.53058 0.76861 0.0
O266 O 0.26457 0.50009 0.8048 0.0
O267 O 0.22918 0.51549 0.81063 0.0
O268 O 0.25844 0.53837 0.75523 0.0
O269 O 0.25105 0.52412 0.72971 0.0
O270 O 0.27498 0.48241 0.76189 0.0
O271 O 0.27619 0.48718 0.7163 0.0
H272 H 0.22604 0.49973 0.62137 0.0
H273 H 0.19478 0.51953 0.59737 0.0
H274 H 0.17468 0.56465 0.6496 0.0
H275 H 0.20618 0.54459 0.67352 0.0
H276 H 0.24537 0.54845 0.80547 0.0
H277 H 0.25614 0.56925 0.82901 0.0
H278 H 0.26891 0.51886 0.89461 0.0
H279 H 0.25788 0.49832 0.87105 0.0
C280 C 0.05363 0.50311 0.46338 0.0
Eu281 Eu 0.0136 0.50638 0.48405 0.0
C282 C 0.06665 0.51662 0.46237 0.0
C283 C 0.08802 0.50818 0.46928 0.0
C284 C 0.09945 0.52102 0.47174 0.0
C285 C 0.08965 0.54251 0.46723 0.0
C286 C 0.06835 0.55089 0.45993 0.0
C287 C 0.05694 0.53808 0.4576 0.0
C288 C 0.97845 0.50542 0.46522 0.0
C289 C 0.9795 0.55099 0.4926 0.0
C290 C 0.93137 0.51279 0.54617 0.0
Eu291 Eu 0.97186 0.50815 0.52568 0.0
C292 C 0.91536 0.50244 0.5455 0.0
C293 C 0.91411 0.48509 0.56433 0.0
C294 C 0.90037 0.47432 0.56218 0.0
C295 C 0.88764 0.48067 0.54117 0.0
C296 C 0.88816 0.49849 0.52302 0.0
C297 C 0.90177 0.50934 0.52524 0.0
C298 C 0.00683 0.51012 0.54424 0.0
C299 C 0.00553 0.4635 0.51586 0.0
O300 O 0.04861 0.49374 0.48719 0.0
O301 O 0.03709 0.51056 0.44937 0.0
O302 O -0.0067 0.51265 0.45032 0.0
O303 O 0.98439 0.49728 0.48756 0.0
O304 O 0.0001 0.54043 0.48502 0.0
O305 O 0.96524 0.54165 0.5057 0.0
O306 O 0.93702 0.52347 0.52367 0.0
O307 O 0.9481 0.50221 0.55935 0.0
O308 O -0.00797 0.50294 0.55939 0.0
O309 O 0.00078 0.51766 0.52186 0.0
O310 O 0.98498 0.4742 0.52355 0.0
O311 O 0.02001 0.47274 0.50325 0.0
H312 H 0.09566 0.49166 0.47344 0.0
H313 H 0.11589 0.51416 0.47725 0.0
H314 H 0.06023 0.56736 0.45679 0.0
H315 H 0.04027 0.54501 0.45285 0.0
H316 H 0.92414 0.4795 0.58035 0.0
H317 H 0.9003 0.46059 0.57643 0.0
H318 H 0.87827 0.50386 0.50686 0.0
H319 H 0.90207 0.52282 0.51061 0.0
C320 C 0.18083 0.25744 0.98387 0.0
Eu321 Eu 0.21785 0.26107 0.98947 0.0
C322 C 0.17344 0.23978 0.98556 0.0
C323 C 0.18834 0.21975 0.98907 0.0
C324 C 0.18145 0.20293 0.99005 0.0
C325 C 0.15952 0.20587 0.9876 0.0
C326 C 0.1446 0.226 0.98442 0.0
C327 C 0.15154 0.24283 0.98338 0.0
C328 C 0.25666 0.24598 0.9593 0.0
C329 C 0.24301 0.22214 0.03227 0.0
C330 C 0.29464 0.26497 0.01636 0.0
Eu331 Eu 0.25778 0.26144 0.01 0.0
C332 C 0.30123 0.2824 0.01832 0.0
C333 C 0.28557 0.30199 0.01851 0.0
C334 C 0.29165 0.31845 0.02145 0.0
C335 C 0.31351 0.31558 0.02416 0.0
C336 C 0.32919 0.29593 0.02354 0.0
C337 C 0.32307 0.27946 0.02069 0.0
C338 C 0.21882 0.27712 0.0398 0.0
C339 C 0.23337 0.29988 0.96606 0.0
O340 O 0.18501 0.26007 0.00613 0.0
O341 O 0.1959 0.25963 0.96406 0.0
O342 O 0.23842 0.25649 0.9497 0.0
O343 O 0.25331 0.24276 0.98421 0.0
O344 O 0.22422 0.23351 0.02313 0.0
O345 O 0.26054 0.22818 0.02544 0.0
O346 O 0.28965 0.26498 0.99325 0.0
O347 O 0.2806 0.26022 0.036 0.0
O348 O 0.23697 0.26673 0.0496 0.0
O349 O 0.22237 0.27998 0.01492 0.0
O350 O 0.2519 0.28863 0.9759 0.0
O351 O 0.21567 0.29406 0.97262 0.0
H352 H 0.20533 0.21715 0.9909 0.0
H353 H 0.19325 0.18761 0.99287 0.0
H354 H 0.12766 0.22876 0.9822 0.0
H355 H 0.13987 0.25822 0.98064 0.0
H356 H 0.26862 0.30449 0.0166 0.0
H357 H 0.27927 0.33344 0.02149 0.0
H358 H 0.34611 0.29321 0.02583 0.0
H359 H 0.33531 0.26439 0.02063 0.0
C360 C 0.22335 0.01444 0.18529 0.0
Eu361 Eu 0.23291 1.01225 0.2324 0.0
C362 C 0.20524 1.01226 0.1749 0.0
C363 C 0.1892 1.00517 0.19211 0.0
C364 C 0.17261 1.00207 0.18198 0.0
C365 C 0.17177 1.00611 0.1545 0.0
C366 C 0.18771 0.01354 0.13739 0.0
C367 C 0.20435 0.01655 0.14755 0.0
C368 C 0.2253 0.98352 0.27414 0.0
C369 C 0.19282 0.0442 0.26569 0.0
C370 C 0.25081 0.01777 0.32881 0.0
Eu371 Eu 0.23925 0.01966 0.2829 0.0
C372 C 0.27224 1.01232 0.33794 0.0
C373 C 0.29152 1.004 0.32139 0.0
C374 C 0.31199 1.00036 0.32891 0.0
C375 C 0.31354 1.00533 0.35296 0.0
C376 C 0.2942 0.0134 0.36974 0.0
C377 C 0.27366 0.01681 0.36229 0.0
C378 C 0.24603 0.04819 0.24028 0.0
C379 C 0.27944 0.98837 0.24996 0.0
O380 O 0.21868 0.03049 0.19669 0.0
O381 O 0.23541 0.99771 0.19867 0.0
O382 O 0.23378 0.97988 0.25051 0.0
O383 O 0.21929 1.00259 0.27453 0.0
O384 O 0.20225 0.03905 0.24224 0.0
O385 O 0.20275 0.0352 0.28697 0.0
O386 O 0.24635 1.00287 0.32236 0.0
O387 O 0.24574 0.03457 0.31145 0.0
O388 O 0.23577 0.05246 0.26316 0.0
O389 O 0.25295 0.02898 0.24086 0.0
O390 O 0.26941 0.99265 0.27347 0.0
O391 O 0.26977 0.99792 0.22865 0.0
H392 H 0.18968 1.00183 0.21334 0.0
H393 H 0.16039 0.99659 0.19565 0.0
H394 H 0.1876 0.0166 0.11612 0.0
H395 H 0.21669 0.02197 0.13404 0.0
H396 H 0.29079 1.00091 0.30225 0.0
H397 H 0.32659 0.99446 0.3154 0.0
H398 H 0.29497 0.0173 0.38843 0.0
H399 H 0.25891 0.0234 0.3752 0.0
C400 C 0.46899 0.21867 0.7071 0.0
Eu401 Eu 0.47887 0.24349 0.72925 0.0
C402 C 0.47529 0.21044 0.68217 0.0
C403 C 0.46143 0.20196 0.67465 0.0
C404 C 0.46718 0.19371 0.65125 0.0
C405 C 0.48693 0.19382 0.6349 0.0
C406 C 0.50076 0.20248 0.64245 0.0
C407 C 0.49494 0.2108 0.6659 0.0
C408 C 0.45916 0.28461 0.72798 0.0
C409 C 0.51697 0.26283 0.70398 0.0
C410 C 0.50118 0.29087 0.78895 0.0
Eu411 Eu 0.49538 0.26444 0.76576 0.0
C412 C 0.49062 0.30539 0.80776 0.0
C413 C 0.50093 0.30291 0.82998 0.0
C414 C 0.49246 0.31693 0.84755 0.0
C415 C 0.47341 0.33384 0.84332 0.0
C416 C 0.4628 0.33614 0.82125 0.0
C417 C 0.47135 0.32202 0.80356 0.0
C418 C 0.52289 0.22505 0.76308 0.0
C419 C 0.45746 0.24397 0.79175 0.0
O420 O 0.48402 0.2125 0.7231 0.0
O421 O 0.45803 0.23831 0.70541 0.0
O422 O 0.46329 0.27558 0.7074 0.0
O423 O 0.46481 0.27147 0.74824 0.0
O424 O 0.50867 0.24841 0.703 0.0
O425 O 0.51154 0.27297 0.72426 0.0
O426 O 0.49495 0.29563 0.76522 0.0
O427 O 0.50539 0.27133 0.79898 0.0
O428 O 0.52538 0.23688 0.77723 0.0
O429 O 0.50602 0.23485 0.75204 0.0
O430 O 0.46791 0.25641 0.79414 0.0
O431 O 0.46026 0.23625 0.76978 0.0
H432 H 0.44623 0.20154 0.68703 0.0
H433 H 0.45636 0.18684 0.64627 0.0
H434 H 0.516 0.2029 0.63019 0.0
H435 H 0.50579 0.21741 0.67141 0.0
H436 H 0.51594 0.29031 0.83345 0.0
H437 H 0.50137 0.3149 0.86395 0.0
H438 H 0.44804 0.34895 0.81751 0.0
H439 H 0.46312 0.32432 0.78649 0.0
C440 C 0.9824 0.71145 0.70237 0.0
Eu441 Eu 0.98157 0.74072 0.72585 0.0
C442 C 0.97973 0.70794 0.67646 0.0
C443 C 0.95936 0.71608 0.66659 0.0
C444 C 0.95687 0.71101 0.64314 0.0
C445 C 0.9747 0.69778 0.62906 0.0
C446 C -0.00481 0.69015 0.63859 0.0
C447 C -0.00236 0.69512 0.66208 0.0
C448 C 0.95469 0.78091 0.71943 0.0
C449 C 0.01442 0.76737 0.69871 0.0
C450 C -0.00169 0.7899 0.78926 0.0
Eu451 Eu -0.00581 0.76656 0.75964 0.0
C452 C -0.01189 0.80244 0.81043 0.0
C453 C -0.00072 0.79836 0.8324 0.0
C454 C -0.00786 0.81159 0.85102 0.0
C455 C 0.97362 0.82926 0.84809 0.0
C456 C 0.96182 0.83285 0.82666 0.0
C457 C 0.96901 0.81955 0.80794 0.0
C458 C 0.02342 0.72879 0.75351 0.0
C459 C 0.95732 0.74439 0.78518 0.0
O460 O 1e-05 0.7159 0.70347 0.0
O461 O 0.96485 0.72179 0.71657 0.0
O462 O 0.95347 0.76721 0.70719 0.0
O463 O 0.97017 0.77241 0.73313 0.0
O464 O 0.00836 0.75128 0.6987 0.0
O465 O 0.00789 0.77797 0.71855 0.0
O466 O -0.00833 0.79692 0.76577 0.0
O467 O 0.00334 0.76989 0.79599 0.0
O468 O 0.02886 0.74464 0.75427 0.0
O469 O 0.00279 0.73325 0.75745 0.0
O470 O 0.96451 0.75984 0.78483 0.0
O471 O 0.9644 0.73269 0.76651 0.0
H472 H 0.94522 0.72603 0.67721 0.0
H473 H 0.94092 0.71724 0.63618 0.0
H474 H 0.00917 0.67966 0.62847 0.0
H475 H 0.01346 0.68849 0.66937 0.0
H476 H 0.01417 0.78536 0.83457 0.0
H477 H 0.00188 0.80848 0.86695 0.0
H478 H 0.94733 0.84619 0.82401 0.0
H479 H 0.96007 0.82304 0.79116 0.0
C480 C 0.72739 0.51382 0.17278 0.0
Eu481 Eu 0.73454 0.50907 0.2216 0.0
C482 C 0.71064 0.51136 0.15993 0.0
C483 C 0.70214 0.49506 0.16974 0.0
C484 C 0.68621 0.49289 0.15736 0.0
C485 C 0.67823 0.50716 0.13516 0.0
C486 C 0.68665 0.52361 0.12562 0.0
C487 C 0.70277 0.52563 0.13785 0.0
C488 C 0.72465 0.4793 0.2602 0.0
C489 C 0.69323 0.53989 0.25465 0.0
C490 C 0.74527 0.50664 0.32464 0.0
Eu491 Eu 0.73812 0.51327 0.27558 0.0
C492 C 0.76511 0.50016 0.33766 0.0
C493 C 0.78239 0.50797 0.32656 0.0
C494 C 0.80133 0.5015 0.33874 0.0
C495 C 0.80359 0.48679 0.36204 0.0
C496 C 0.78635 0.47875 0.37289 0.0
C497 C 0.76723 0.48543 0.36079 0.0
C498 C 0.74703 0.54343 0.23688 0.0
C499 C 0.78047 0.48445 0.24183 0.0
O500 O 0.72082 0.52892 0.18633 0.0
O501 O 0.74039 0.49699 0.18495 0.0
O502 O 0.73408 0.47646 0.23656 0.0
O503 O 0.71898 0.49811 0.26177 0.0
O504 O 0.70389 0.53595 0.23112 0.0
O505 O 0.70184 0.52957 0.27646 0.0
O506 O 0.74297 0.49276 0.31344 0.0
O507 O 0.74037 0.52486 0.30998 0.0
O508 O 0.73712 0.54628 0.26044 0.0
O509 O 0.75337 0.52455 0.23531 0.0
O510 O 0.7699 0.48788 0.26551 0.0
O511 O 0.77127 0.49458 0.22031 0.0
H512 H 0.70784 0.48393 0.18694 0.0
H513 H 0.68035 0.47989 0.16506 0.0
H514 H 0.68059 0.53511 0.1089 0.0
H515 H 0.70901 0.53841 0.13017 0.0
H516 H 0.78124 0.51917 0.3085 0.0
H517 H 0.81403 0.50838 0.33011 0.0
H518 H 0.78765 0.46724 0.39063 0.0
H519 H 0.75414 0.47903 0.3694 0.0
C520 C 0.68379 0.75438 0.98413 0.0
Eu521 Eu 0.72046 0.75882 0.98948 0.0
C522 C 0.67587 0.73703 0.98589 0.0
C523 C 0.69053 0.71688 0.98719 0.0
C524 C 0.68289 0.70055 0.98784 0.0
C525 C 0.66046 0.70414 0.9874 0.0
C526 C 0.64582 0.72435 0.9866 0.0
C527 C 0.65349 0.74066 0.98582 0.0
C528 C 0.75956 0.74521 0.9594 0.0
C529 C 0.74645 0.72058 0.03281 0.0
C530 C 0.79559 0.76656 0.01587 0.0
Eu531 Eu 0.75941 0.76124 0.01042 0.0
C532 C 0.80202 0.78479 0.01416 0.0
C533 C 0.7863 0.80443 0.01161 0.0
C534 C 0.79228 0.82176 0.0108 0.0
C535 C 0.81413 0.81973 0.01247 0.0
C536 C 0.82989 0.79998 0.01457 0.0
C537 C 0.82385 0.78265 0.01543 0.0
C538 C 0.7202 0.77491 0.04031 0.0
C539 C 0.73333 0.79948 0.96709 0.0
O540 O 0.6879 0.75713 0.00638 0.0
O541 O 0.69893 0.75637 0.96433 0.0
O542 O 0.74115 0.75469 0.94975 0.0
O543 O 0.75632 0.74199 0.98435 0.0
O544 O 0.72809 0.73064 0.02203 0.0
O545 O 0.76305 0.72799 0.02775 0.0
O546 O 0.79177 0.76354 0.99363 0.0
O547 O 0.78076 0.76381 0.03573 0.0
O548 O 0.73852 0.76529 0.0501 0.0
O549 O 0.72364 0.77812 0.01539 0.0
O550 O 0.75175 0.78947 0.97777 0.0
O551 O 0.71681 0.79199 0.97226 0.0
H552 H 0.70788 0.71384 0.98744 0.0
H553 H 0.6945 0.68513 0.98874 0.0
H554 H 0.6285 0.72763 0.98593 0.0
H555 H 0.64199 0.75614 0.98483 0.0
H556 H 0.76933 0.80633 0.01061 0.0
H557 H 0.77969 0.83668 0.00948 0.0
H558 H 0.84691 0.79791 0.01548 0.0
H559 H 0.8362 0.76758 0.01724 0.0
C560 C 0.54951 0.98879 0.50986 0.0
Eu561 Eu 0.50961 1.00194 0.49815 0.0
C562 C 0.56363 1.00007 0.51391 0.0
C563 C 0.57505 1.00943 0.49204 0.0
C564 C 0.58562 0.02262 0.49547 0.0
C565 C 0.58496 0.02675 0.5208 0.0
C566 C 0.57466 0.01656 0.54283 0.0
C567 C 0.56426 1.00318 0.53944 0.0
C568 C 0.49795 1.00566 0.44998 0.0
C569 C 0.49444 0.0526 0.48678 0.0
C570 C 0.42114 0.04142 0.48013 0.0
Eu571 Eu 0.46118 0.02842 0.49136 0.0
C572 C 0.40699 0.03003 0.47644 0.0
C573 C 0.39547 0.02101 0.49855 0.0
C574 C 0.38506 1.00752 0.49564 0.0
C575 C 0.38593 1.00279 0.47059 0.0
C576 C 0.39617 1.01278 0.44827 0.0
C577 C 0.40646 0.02641 0.45114 0.0
C578 C 0.47292 0.02479 0.53948 0.0
C579 C 0.47659 0.97772 0.5023 0.0
O580 O 0.53243 0.98882 0.5277 0.0
O581 O 0.54482 0.99173 0.48572 0.0
O582 O 0.51197 0.9893 0.46118 0.0
O583 O 0.49189 0.01972 0.46398 0.0
O584 O 0.50821 0.03476 0.49642 0.0
O585 O 0.47556 0.05419 0.47956 0.0
O586 O 0.43808 0.04147 0.46208 0.0
O587 O 0.42604 0.03849 0.50416 0.0
O588 O 0.45888 0.04112 0.52827 0.0
O589 O 0.47889 1.01071 0.52551 0.0
O590 O 0.46292 0.99553 0.49235 0.0
O591 O 0.49509 0.97633 0.51029 0.0
H592 H 0.57515 1.0072 0.47209 0.0
H593 H 0.59349 0.0303 0.47817 0.0
H594 H 0.57442 0.01915 0.56262 0.0
H595 H 0.55618 0.99575 0.55672 0.0
H596 H 0.39523 0.02366 0.51832 0.0
H597 H 0.37722 1.00003 0.51317 0.0
H598 H 0.3965 1.00978 0.42869 0.0
H599 H 0.41459 0.03358 0.43366 0.0
C600 C 0.51968 0.53116 0.93487 0.0
Eu601 Eu 0.48458 0.53073 0.96736 0.0
C602 C 0.53409 0.54322 0.93487 0.0
C603 C 0.55661 0.53341 0.93639 0.0
C604 C 0.56947 0.5441 0.94146 0.0
C605 C 0.55988 0.5647 0.94528 0.0
C606 C 0.53757 0.57468 0.94259 0.0
C607 C 0.52481 0.56408 0.93753 0.0
C608 C 0.4419 0.54915 0.96061 0.0
C609 C 0.46679 0.56478 0.00565 0.0
C610 C 0.42 0.52058 0.053 0.0
Eu611 Eu 0.4526 0.52358 0.01692 0.0
C612 C 0.40424 0.51008 0.05266 0.0
C613 C 0.39525 0.50036 0.0763 0.0
C614 C 0.38426 0.48665 0.07556 0.0
C615 C 0.38232 0.48242 0.05113 0.0
C616 C 0.39021 0.49316 0.02756 0.0
C617 C 0.40121 0.50668 0.02832 0.0
C618 C 0.49597 0.50756 0.02301 0.0
C619 C 0.46828 0.49101 0.97701 0.0
O620 O 0.51961 0.51668 0.95549 0.0
O621 O 0.4999 0.54171 0.92871 0.0
O622 O 0.45744 0.55626 0.94778 0.0
O623 O 0.4498 0.53162 0.97401 0.0
O624 O 0.48292 0.55618 0.98805 0.0
O625 O 0.45177 0.55605 0.01772 0.0
O626 O 0.41907 0.53711 0.03524 0.0
O627 O 0.44011 0.50823 0.05448 0.0
O628 O 0.48158 0.49882 0.03515 0.0
O629 O 0.48649 0.52455 0.01002 0.0
O630 O 0.45212 0.50005 0.99419 0.0
O631 O 0.48425 0.49876 0.96622 0.0
H632 H 0.56403 0.51726 0.93483 0.0
H633 H 0.58663 0.53602 0.94352 0.0
H634 H 0.52981 0.59064 0.945 0.0
H635 H 0.50744 0.57207 0.93682 0.0
H636 H 0.39777 0.50249 0.09528 0.0
H637 H 0.37847 0.47849 0.09406 0.0
H638 H 0.38872 0.49044 0.00844 0.0
H639 H 0.40844 0.51352 0.00981 0.0
C640 C -0.0011 0.07691 0.02257 0.0
C641 C 0.97886 0.07347 0.02362 0.0
C642 C -0.00053 0.09386 0.03185 0.0
C643 C 0.96692 0.13022 0.07737 0.0
H644 H 0.00938 0.15846 0.04633 0.0
C645 C 0.97009 0.19637 0.12189 0.0
C646 C -0.00901 0.19443 0.12728 0.0
C647 C 0.96782 0.18453 0.10504 0.0
C648 C -0.00255 0.1507 0.05518 0.0
H649 H 0.94363 0.08561 0.03413 0.0
H650 H 0.94454 0.11544 0.04974 0.0
H651 H 0.00658 0.13212 0.02471 0.0
H652 H 0.02594 0.17966 0.11766 0.0
H653 H 0.02195 0.15878 0.08838 0.0
H654 H 0.95796 0.14856 0.10796 0.0
C655 C 0.9599 0.10476 0.0424 0.0
C656 C -0.00412 0.13557 0.04288 0.0
C657 C 0.95935 0.0877 0.03334 0.0
C658 C 0.00962 0.18131 0.11413 0.0
C659 C 0.00734 0.16949 0.09719 0.0
C660 C 0.96839 0.1454 0.08953 0.0
C661 C 0.98 0.10787 0.04218 0.0
C662 C 0.98076 0.12498 0.05401 0.0
C663 C -0.01362 0.1705 0.09315 0.0
C664 C 0.98381 0.15566 0.07875 0.0
H665 H 0.01427 0.06621 0.01524 0.0
H666 H 0.01527 0.09559 0.03169 0.0
H667 H 0.95541 0.12213 0.08684 0.0
H668 H 0.95539 0.20619 0.13184 0.0
H669 H 0.95147 0.18584 0.102 0.0
C670 C 0.80164 0.23666 0.45242 0.0
C671 C 0.78326 0.24733 0.43895 0.0
C672 C 0.82257 0.23702 0.44047 0.0
C673 C 0.85007 0.26764 0.38806 0.0
H674 H 0.90053 0.21804 0.39182 0.0
C675 C 0.94109 0.23745 0.32746 0.0
C676 C 0.94786 0.25473 0.32478 0.0
C677 C 0.92253 0.23568 0.3449 0.0
C678 C 0.88659 0.23202 0.39063 0.0
H679 H 0.77229 0.26636 0.40232 0.0
H680 H 0.80879 0.26683 0.38133 0.0
H681 H 0.86463 0.21667 0.41443 0.0
H682 H 0.9411 0.28316 0.33947 0.0
H683 H 0.9088 0.27998 0.37007 0.0
H684 H 0.87178 0.2829 0.36366 0.0
C685 C 0.80706 0.25845 0.40126 0.0
C686 C 0.86608 0.23127 0.40374 0.0
C687 C 0.78619 0.25802 0.41316 0.0
C688 C 0.9363 0.26969 0.34094 0.0
C689 C 0.91769 0.26794 0.35835 0.0
C690 C 0.87056 0.26841 0.37507 0.0
C691 C 0.82546 0.2481 0.41484 0.0
C692 C 0.84752 0.24902 0.40225 0.0
C693 C 0.91028 0.25117 0.36005 0.0
C694 C 0.88901 0.25057 0.3759 0.0
H695 H 0.79981 0.22828 0.47233 0.0
H696 H 0.8364 0.229 0.4515 0.0
H697 H 0.83615 0.28164 0.38685 0.0
H698 H 0.94962 0.2256 0.31535 0.0
H699 H 0.91719 0.22264 0.34557 0.0
C700 C 0.7705 0.06296 0.69329 0.0
C701 C 0.75731 0.05095 0.69336 0.0
C702 C 0.77028 0.0801 0.67359 0.0
C703 C 0.75159 0.107 0.60743 0.0
H704 H 0.75775 0.1537 0.62937 0.0
C705 C 0.73312 0.1886 0.54275 0.0
C706 C 0.74763 0.19958 0.5418 0.0
C707 C 0.735 0.16992 0.56007 0.0
C708 C 0.75624 0.14075 0.62278 0.0
H709 H 0.73352 0.04753 0.67273 0.0
H710 H 0.7327 0.07771 0.63853 0.0
H711 H 0.7595 0.12246 0.66124 0.0
H712 H 0.77564 0.19922 0.55843 0.0
H713 H 0.7788 0.16677 0.58874 0.0
H714 H 0.74772 0.12575 0.56904 0.0
C715 C 0.74372 0.07363 0.65331 0.0
C716 C 0.75732 0.12268 0.6411 0.0
C717 C 0.74417 0.05625 0.67292 0.0
C718 C 0.76418 0.19124 0.55854 0.0
C719 C 0.76591 0.17266 0.57608 0.0
C720 C 0.75028 0.12519 0.58914 0.0
C721 C 0.75653 0.08605 0.65357 0.0
C722 C 0.75517 0.10542 0.63375 0.0
C723 C 0.75128 0.16177 0.57719 0.0
C724 C 0.7527 0.14229 0.59654 0.0
H725 H 0.78084 0.05925 0.70876 0.0
H726 H 0.78086 0.08878 0.67427 0.0
H727 H 0.75012 0.09408 0.60075 0.0
H728 H 0.72014 0.1945 0.5302 0.0
H729 H 0.72333 0.1621 0.56051 0.0
C730 C 0.92055 0.05524 0.9612 0.0
C731 C 0.94165 0.04841 0.94753 0.0
C732 C 0.90216 0.05941 0.94863 0.0
C733 C 0.88367 0.06509 0.88336 0.0
H734 H 0.84289 0.03817 0.92568 0.0
C735 C 0.83064 0.03389 0.83894 0.0
C736 C 0.80913 0.03575 0.85127 0.0
C737 C 0.84446 0.04022 0.84994 0.0
C738 C 0.85385 0.04612 0.91373 0.0
H739 H 0.9605 0.04173 0.90979 0.0
H740 H 0.92842 0.04866 0.88766 0.0
H741 H 0.87145 0.04152 0.94618 0.0
H742 H 0.78499 0.0465 0.88423 0.0
H743 H 0.80935 0.05723 0.90371 0.0
H744 H 0.86654 0.06876 0.85061 0.0
C745 C 0.92588 0.05112 0.90799 0.0
C746 C 0.87021 0.0481 0.92549 0.0
C747 C 0.94425 0.0471 0.9206 0.0
C748 C 0.8016 0.04451 0.87453 0.0
C749 C 0.81548 0.05075 0.88561 0.0
C750 C 0.86735 0.06301 0.87157 0.0
C751 C 0.90466 0.05664 0.92216 0.0
C752 C 0.8856 0.05722 0.91032 0.0
C753 C 0.83712 0.04845 0.87356 0.0
C754 C 0.85259 0.0531 0.88654 0.0
H755 H 0.91828 0.05685 0.98179 0.0
H756 H 0.88603 0.06409 0.9599 0.0
H757 H 0.89509 0.07245 0.87126 0.0
H758 H 0.83706 0.02694 0.82122 0.0
H759 H 0.86118 0.03793 0.84047 0.0
C760 C 0.01223 0.99462 0.08091 0.0
C761 C 0.01525 0.99002 0.05534 0.0
C762 C 0.03037 0.99234 0.09303 0.0
C763 C 0.0866 0.99381 0.07379 0.0
H764 H 0.08967 0.97913 0.14944 0.0
C765 C 0.14368 0.01661 0.12323 0.0
C766 C 0.15451 1.00233 0.14366 0.0
C767 C 0.12756 1.01297 0.11285 0.0
C768 C 0.0892 0.98305 0.12823 0.0
H769 H 0.0391 0.97794 0.02315 0.0
H770 H 0.07094 0.97372 0.04427 0.0
H771 H 0.06041 0.97451 0.13129 0.0
H772 H 0.15716 0.97291 0.16899 0.0
H773 H 0.12906 0.96649 0.15074 0.0
H774 H 0.11538 1.00227 0.07065 0.0
C775 C 0.05466 0.9795 0.05481 0.0
C776 C 0.07233 0.98058 0.11788 0.0
C777 C 0.03651 0.98185 0.04272 0.0
C778 C 0.14887 0.98433 0.1535 0.0
C779 C 0.13279 0.98066 0.14305 0.0
C780 C 0.10346 0.99625 0.08412 0.0
C781 C 0.05176 0.9854 0.0797 0.0
C782 C 0.0707 0.98616 0.09058 0.0
C783 C 0.12197 0.99493 0.12258 0.0
C784 C 0.10478 0.99118 0.1115 0.0
H785 H -0.00414 1.00119 0.09079 0.0
H786 H 0.02755 0.99719 0.1121 0.0
H787 H 0.08565 0.99855 0.05272 0.0
H788 H 0.14746 0.03075 0.11552 0.0
H789 H 0.11925 0.02447 0.09744 0.0
C790 C -0.00631 0.4328 0.51956 0.0
C791 C 0.01074 0.44137 0.51506 0.0
C792 C -0.00275 0.41394 0.512 0.0
C793 C 0.03316 0.38416 0.4614 0.0
H794 H -0.00255 0.34863 0.48901 0.0
C795 C 0.03075 0.32644 0.40067 0.0
C796 C 0.00939 0.32811 0.39729 0.0
C797 C 0.03416 0.33507 0.42055 0.0
C798 C 0.0076 0.35838 0.48113 0.0
H799 H 0.04553 0.43564 0.50211 0.0
H800 H 0.05193 0.40238 0.48975 0.0
H801 H -0.00147 0.37269 0.51576 0.0
H802 H 0.97505 0.33882 0.41334 0.0
H803 H 0.98095 0.35411 0.44784 0.0
H804 H 0.04171 0.37036 0.42652 0.0
C805 C 0.03558 0.41062 0.49818 0.0
C806 C 0.00821 0.37218 0.49642 0.0
C807 C 0.03196 0.42963 0.50548 0.0
C808 C -0.00834 0.33751 0.41524 0.0
C809 C -0.00492 0.34607 0.43519 0.0
C810 C 0.03267 0.37029 0.44626 0.0
C811 C 0.01802 0.40306 0.50006 0.0
C812 C 0.02047 0.38571 0.48639 0.0
C813 C 0.0163 0.34549 0.43756 0.0
C814 C 0.0194 0.35767 0.4556 0.0
H815 H 0.97712 0.44135 0.527 0.0
H816 H 0.98327 0.40874 0.5137 0.0
H817 H 0.04248 0.39453 0.4527 0.0
H818 H 0.04475 0.31941 0.38709 0.0
H819 H 0.05072 0.33419 0.42205 0.0
C820 C 0.6892 0.26506 0.57469 0.0
C821 C 0.69109 0.27314 0.54756 0.0
C822 C 0.66868 0.26639 0.58919 0.0
C823 C 0.61182 0.27243 0.58322 0.0
H824 H 0.60154 0.28455 0.65459 0.0
C825 C 0.54057 0.28434 0.68076 0.0
C826 C 0.53366 0.26732 0.68218 0.0
C827 C 0.55763 0.28766 0.66162 0.0
C828 C 0.60393 0.28144 0.63459 0.0
H829 H 0.67302 0.28915 0.51427 0.0
H830 H 0.63682 0.29141 0.53974 0.0
H831 H 0.63526 0.28595 0.62636 0.0
H832 H 0.53873 0.24087 0.66389 0.0
H833 H 0.56882 0.24642 0.63086 0.0
H834 H 0.58036 0.26791 0.59159 0.0
C835 C 0.65134 0.2839 0.54968 0.0
C836 C 0.62342 0.282 0.6185 0.0
C837 C 0.672 0.28263 0.53513 0.0
C838 C 0.54364 0.25414 0.66336 0.0
C839 C 0.56083 0.25739 0.64429 0.0
C840 C 0.59223 0.27187 0.59938 0.0
C841 C 0.64949 0.27587 0.57693 0.0
C842 C 0.62779 0.27713 0.59283 0.0
C843 C 0.56833 0.27396 0.64355 0.0
C844 C 0.5882 0.2761 0.6254 0.0
H845 H 0.70365 0.25752 0.58478 0.0
H846 H 0.66788 0.25971 0.61001 0.0
H847 H 0.61476 0.26853 0.56356 0.0
H848 H 0.53306 0.29497 0.69471 0.0
H849 H 0.56268 0.30081 0.66127 0.0
C850 C 0.73786 0.93434 0.77574 0.0
C851 C 0.73177 0.95503 0.77878 0.0
C852 C 0.73702 0.91898 0.79764 0.0
C853 C 0.73646 0.9058 0.87038 0.0
H854 H 0.71428 0.86347 0.86202 0.0
C855 C 0.74851 0.82792 0.94307 0.0
C856 C 0.73142 0.81928 0.94849 0.0
C857 C 0.74731 0.84579 0.92424 0.0
C858 C 0.72033 0.87522 0.8649 0.0
H859 H 0.72052 0.97575 0.8075 0.0
H860 H 0.7191 0.9487 0.84617 0.0
H861 H 0.71423 0.89216 0.82618 0.0
H862 H 0.69936 0.82323 0.93869 0.0
H863 H 0.69724 0.85431 0.90613 0.0
H864 H 0.74258 0.8887 0.90921 0.0
C865 C 0.7245 0.94445 0.82662 0.0
C866 C 0.72052 0.89162 0.84416 0.0
C867 C 0.72521 0.95995 0.8045 0.0
C868 C 0.71289 0.82932 0.93503 0.0
C869 C 0.71173 0.84713 0.91617 0.0
C870 C 0.7364 0.88926 0.89116 0.0
C871 C 0.73015 0.92376 0.8234 0.0
C872 C 0.72879 0.90705 0.84644 0.0
C873 C 0.72904 0.8555 0.91021 0.0
C874 C 0.72844 0.87365 0.88865 0.0
H875 H 0.74319 0.92994 0.75626 0.0
H876 H 0.74193 0.90323 0.79436 0.0
H877 H 0.74304 0.91733 0.87281 0.0
H878 H 0.76305 0.82067 0.95302 0.0
H879 H 0.76105 0.85163 0.9201 0.0
C880 C 0.19495 0.27518 0.08307 0.0
C881 C 0.19692 0.28188 0.05557 0.0
C882 C 0.17428 0.27835 0.09802 0.0
C883 C 0.12893 0.29595 0.12712 0.0
H884 H 0.08484 0.28291 0.10077 0.0
C885 C 0.04458 0.30177 0.18842 0.0
C886 C 0.03751 0.28472 0.19069 0.0
C887 C 0.06204 0.30439 0.16939 0.0
C888 C 0.09698 0.28663 0.10839 0.0
H889 H 0.1789 0.29769 0.02217 0.0
H890 H 0.14261 0.3032 0.04835 0.0
H891 H 0.11966 0.28191 0.07296 0.0
H892 H 0.04263 0.25755 0.17388 0.0
H893 H 0.07313 0.26203 0.14092 0.0
H894 H 0.1067 0.29993 0.16287 0.0
C895 C 0.15708 0.29532 0.0583 0.0
C896 C 0.11684 0.28625 0.09236 0.0
C897 C 0.17782 0.29224 0.04334 0.0
C898 C 0.04764 0.27086 0.17271 0.0
C899 C 0.06509 0.27349 0.15368 0.0
C900 C 0.10909 0.29638 0.14309 0.0
C901 C 0.15509 0.28827 0.0858 0.0
C902 C 0.1332 0.29055 0.10174 0.0
C903 C 0.07283 0.29002 0.15219 0.0
C904 C 0.093 0.29141 0.1341 0.0
H905 H 0.2094 0.26709 0.09301 0.0
H906 H 0.17335 0.27248 0.11909 0.0
H907 H 0.1411 0.29957 0.13481 0.0
H908 H 0.03709 0.31282 0.20184 0.0
H909 H 0.06736 0.31747 0.16849 0.0
C910 C 0.71286 0.46591 0.30794 0.0
C911 C 0.7224 0.46234 0.28213 0.0
C912 C 0.71187 0.44939 0.32847 0.0
C913 C 0.71468 0.39437 0.34001 0.0
H914 H 0.72822 0.39277 0.40976 0.0
C915 C 0.70803 0.32811 0.42593 0.0
C916 C 0.72486 0.31993 0.44229 0.0
C917 C 0.70624 0.34642 0.40786 0.0
C918 C 0.72448 0.39291 0.39037 0.0
H919 H 0.73825 0.43862 0.25767 0.0
H920 H 0.7365 0.41009 0.29308 0.0
H921 H 0.72791 0.42274 0.37543 0.0
H922 H 0.75275 0.3251 0.45267 0.0
H923 H 0.74972 0.35688 0.42111 0.0
H924 H 0.71178 0.36443 0.35455 0.0
C925 C 0.72957 0.42555 0.29763 0.0
C926 C 0.72405 0.41024 0.37073 0.0
C927 C 0.73066 0.44197 0.27728 0.0
C928 C 0.73954 0.33088 0.44047 0.0
C929 C 0.73773 0.34923 0.42241 0.0
C930 C 0.71502 0.37713 0.35961 0.0
C931 C 0.7202 0.42895 0.32357 0.0
C932 C 0.71938 0.41112 0.34516 0.0
C933 C 0.72122 0.35715 0.40556 0.0
C934 C 0.72009 0.37603 0.38505 0.0
H935 H 0.70628 0.48144 0.3123 0.0
H936 H 0.70437 0.45265 0.34812 0.0
H937 H 0.71074 0.39453 0.32071 0.0
H938 H 0.69634 0.32022 0.42676 0.0
H939 H 0.69307 0.35215 0.39561 0.0
C940 C 0.50005 1.00755 0.57175 0.0
C941 C 0.48495 0.02543 0.56016 0.0
C942 C 0.5144 1.00884 0.5874 0.0
C943 C 0.53861 0.04745 0.59554 0.0
H944 H 0.57304 1.00017 0.64035 0.0
C945 C 0.61812 0.04366 0.63338 0.0
C946 C 0.63586 0.02584 0.62907 0.0
C947 C 0.59701 0.04539 0.62943 0.0
C948 C 0.56347 0.01353 0.62795 0.0
H949 H 0.47084 0.05844 0.55853 0.0
H950 H 0.495 0.06068 0.58678 0.0
H951 H 0.53883 0.99997 0.62911 0.0
H952 H 0.64546 0.99601 0.61697 0.0
H953 H 0.60874 0.99914 0.60979 0.0
H954 H 0.56324 0.06107 0.5951 0.0
C955 C 0.49683 0.0457 0.58272 0.0
C956 C 0.54392 0.01339 0.6213 0.0
C957 C 0.48274 0.0444 0.56675 0.0
C958 C 0.63218 1.01002 0.62015 0.0
C959 C 0.61111 1.01167 0.61647 0.0
C960 C 0.55787 0.04778 0.60283 0.0
C961 C 0.51367 0.02808 0.5921 0.0
C962 C 0.53175 0.02993 0.6039 0.0
C963 C 0.59328 0.02919 0.6215 0.0
C964 C 0.57099 0.03042 0.61797 0.0
H965 H 0.50147 0.99267 0.56767 0.0
H966 H 0.5269 0.99479 0.59428 0.0
H967 H 0.53002 0.06049 0.58193 0.0
H968 H 0.62055 0.0561 0.64017 0.0
H969 H 0.58352 0.05912 0.63324 0.0
C970 C -0.00635 0.95214 0.96169 0.0
C971 C 0.97531 0.96501 0.97553 0.0
C972 C -0.00841 0.93648 0.95089 0.0
C973 C 0.9509 0.92246 0.9264 0.0
H974 H -0.00481 0.86861 0.9295 0.0
C975 C 0.97077 0.83836 0.893 0.0
C976 C 0.96812 0.84468 0.86596 0.0
C977 C 0.969 0.85265 0.90883 0.0
C978 C 0.98255 0.8835 0.92872 0.0
H979 H 0.94049 0.97115 0.9894 0.0
H980 H 0.93702 0.9439 0.97052 0.0
H981 H -0.00189 0.89382 0.95297 0.0
H982 H 0.96049 0.87119 0.83476 0.0
H983 H 0.95701 0.89612 0.86252 0.0
H984 H 0.93551 0.91222 0.90182 0.0
C985 C 0.95292 0.94603 0.96786 0.0
C986 C 0.98436 0.89799 0.94191 0.0
C987 C 0.95499 0.96158 0.9788 0.0
C988 C 0.96237 0.86579 0.85555 0.0
C989 C 0.96044 0.88009 0.87145 0.0
C990 C 0.94919 0.90802 0.91301 0.0
C991 C 0.97114 0.93345 0.95356 0.0
C992 C 0.96866 0.91769 0.9407 0.0
C993 C 0.96434 0.87361 0.89805 0.0
C994 C 0.9651 0.88845 0.91385 0.0
H995 H 0.00952 0.95435 0.95883 0.0
H996 H 0.00589 0.92711 0.93978 0.0
H997 H 0.93862 0.93757 0.92495 0.0
H998 H 0.97479 0.82227 0.90178 0.0
H999 H 0.9717 0.84726 0.9294 0.0
C1000 C 0.07865 0.07194 0.99403 0.0
C1001 C 0.09052 0.0572 0.97764 0.0
C1002 C 0.08698 0.08703 0.99658 0.0
C1003 C 0.13754 0.10095 0.98657 0.0
H1004 H 0.09677 0.15657 0.9825 0.0
C1005 C 0.16551 0.17213 0.97385 0.0
C1006 C 0.15233 0.18804 0.98793 0.0
C1007 C 0.15852 0.15558 0.97362 0.0
C1008 C 0.10831 0.1411 0.98404 0.0
H1009 H 0.12078 0.04643 0.95167 0.0
H1010 H 0.13529 0.07306 0.95589 0.0
H1011 H 0.08386 0.12853 0.98052 0.0
H1012 H 0.12177 0.19877 0.0134 0.0
H1013 H 0.10959 0.16983 0.01313 0.0
H1014 H 0.16202 0.1136 0.99002 0.0
C1015 C 0.11957 0.07277 0.96691 0.0
C1016 C 0.10091 0.12502 0.98289 0.0
C1017 C 0.11119 0.05764 0.96431 0.0
C1018 C 0.13213 0.18691 0.00203 0.0
C1019 C 0.12516 0.17033 0.00186 0.0
C1020 C 0.14495 0.11706 0.98778 0.0
C1021 C 0.10738 0.08782 0.98276 0.0
C1022 C 0.11542 0.10477 0.98417 0.0
C1023 C 0.13821 0.15455 0.9875 0.0
C1024 C 0.13041 0.13732 0.98654 0.0
H1025 H 0.06253 0.07225 0.00428 0.0
H1026 H 0.07732 0.09825 0.00921 0.0
H1027 H 0.14906 0.08547 0.98787 0.0
H1028 H 0.18104 0.17271 0.9625 0.0
H1029 H 0.16881 0.14384 0.96204 0.0
C1030 C 0.66437 0.5704 0.23333 0.0
C1031 C 0.67244 0.55751 0.25641 0.0
C1032 C 0.64624 0.58832 0.23496 0.0
C1033 C 0.61603 0.62565 0.28067 0.0
H1034 H 0.57266 0.64542 0.23167 0.0
C1035 C 0.54041 0.69784 0.29257 0.0
C1036 C 0.53402 0.71179 0.26952 0.0
C1037 C 0.55601 0.67841 0.29093 0.0
C1038 C 0.58474 0.64024 0.24537 0.0
H1039 H 0.66709 0.55313 0.29938 0.0
H1040 H 0.63539 0.58408 0.30222 0.0
H1041 H 0.60187 0.61257 0.22904 0.0
H1042 H 0.5385 0.71604 0.22661 0.0
H1043 H 0.56593 0.68218 0.22366 0.0
H1044 H 0.59915 0.65331 0.29684 0.0
C1045 C 0.64332 0.58057 0.28279 0.0
C1046 C 0.60152 0.62135 0.24387 0.0
C1047 C 0.66143 0.56267 0.28116 0.0
C1048 C 0.54311 0.70563 0.24475 0.0
C1049 C 0.55877 0.68617 0.24308 0.0
C1050 C 0.59931 0.64449 0.28215 0.0
C1051 C 0.63569 0.59387 0.25972 0.0
C1052 C 0.61742 0.61378 0.26152 0.0
C1053 C 0.5657 0.67238 0.26617 0.0
C1054 C 0.58339 0.65209 0.26455 0.0
H1055 H 0.67245 0.56701 0.2139 0.0
H1056 H 0.64102 0.5982 0.21675 0.0
H1057 H 0.62819 0.62062 0.29424 0.0
H1058 H 0.53359 0.70204 0.31197 0.0
H1059 H 0.56053 0.66812 0.30916 0.0
C1060 C 0.34129 0.84566 0.48148 0.0
C1061 C 0.32097 0.84661 0.49697 0.0
C1062 C 0.34835 0.8629 0.47487 0.0
C1063 C 0.36483 0.89736 0.47929 0.0
H1064 H 0.32334 0.95186 0.4622 0.0
C1065 C 0.39134 0.96991 0.45543 0.0
C1066 C 0.3776 0.98635 0.4682 0.0
C1067 C 0.38441 0.95331 0.45524 0.0
C1068 C 0.3351 0.93675 0.46706 0.0
H1069 H 0.29226 0.86637 0.5179 0.0
H1070 H 0.30455 0.89637 0.50643 0.0
H1071 H 0.3114 0.92179 0.46888 0.0
H1072 H 0.3458 0.9986 0.49049 0.0
H1073 H 0.33363 0.96954 0.49043 0.0
H1074 H 0.38843 0.91232 0.47794 0.0
C1075 C 0.31487 0.88243 0.49896 0.0
C1076 C 0.32826 0.91953 0.47091 0.0
C1077 C 0.30783 0.86521 0.50556 0.0
C1078 C 0.35664 0.98612 0.4804 0.0
C1079 C 0.34965 0.96956 0.48018 0.0
C1080 C 0.37167 0.91459 0.47544 0.0
C1081 C 0.33524 0.88147 0.4836 0.0
C1082 C 0.34295 0.89965 0.47749 0.0
C1083 C 0.36358 0.95283 0.46791 0.0
C1084 C 0.35679 0.9345 0.46969 0.0
H1085 H 0.35166 0.83163 0.47424 0.0
H1086 H 0.36401 0.86174 0.46275 0.0
H1087 H 0.37649 0.88229 0.48462 0.0
H1088 H 0.40777 0.96953 0.44647 0.0
H1089 H 0.39548 0.94073 0.4455 0.0
C1090 C 0.06212 0.70592 0.74676 0.0
C1091 C 0.03964 0.7082 0.75091 0.0
C1092 C 0.07794 0.68659 0.74584 0.0
C1093 C 0.08797 0.63329 0.7365 0.0
H1094 H 0.13765 0.62186 0.77407 0.0
C1095 C 0.17026 0.56238 0.77217 0.0
C1096 C 0.17923 0.55418 0.74861 0.0
C1097 C 0.15168 0.5799 0.77279 0.0
C1098 C 0.12382 0.62463 0.76368 0.0
H1099 H 0.01606 0.69202 0.75642 0.0
H1100 H 0.04388 0.65794 0.75488 0.0
H1101 H 0.10833 0.65453 0.77433 0.0
H1102 H 0.1748 0.55768 0.70745 0.0
H1103 H 0.14249 0.58841 0.70849 0.0
H1104 H 0.10362 0.60316 0.726 0.0
C1105 C 0.04922 0.67124 0.7523 0.0
C1106 C 0.10708 0.64354 0.76356 0.0
C1107 C 0.03328 0.69071 0.75329 0.0
C1108 C 0.16848 0.56355 0.72594 0.0
C1109 C 0.14983 0.58115 0.72656 0.0
C1110 C 0.10486 0.6143 0.73652 0.0
C1111 C 0.07177 0.66891 0.74905 0.0
C1112 C 0.089 0.64824 0.74981 0.0
C1113 C 0.14147 0.58983 0.74987 0.0
C1114 C 0.12305 0.60974 0.75009 0.0
H1115 H 0.06759 0.7191 0.74454 0.0
H1116 H 0.0951 0.6855 0.7427 0.0
H1117 H 0.07434 0.63643 0.72562 0.0
H1118 H 0.17788 0.55556 0.79014 0.0
H1119 H 0.14546 0.58584 0.79126 0.0
C1120 C 0.82065 0.35225 0.49529 0.0
C1121 C 0.80666 0.34478 0.51583 0.0
C1122 C 0.8266 0.36906 0.49724 0.0
C1123 C 0.8343 0.39442 0.54669 0.0
H1124 H 0.8351 0.43943 0.48872 0.0
C1125 C 0.86152 0.4607 0.55899 0.0
C1126 C 0.87477 0.46811 0.53748 0.0
C1127 C 0.85066 0.44763 0.55588 0.0
C1128 C 0.83519 0.42687 0.50502 0.0
H1129 H 0.78775 0.34914 0.55433 0.0
H1130 H 0.7983 0.37841 0.55782 0.0
H1131 H 0.82111 0.41266 0.48381 0.0
H1132 H 0.88684 0.46791 0.49577 0.0
H1133 H 0.86842 0.44471 0.49038 0.0
H1134 H 0.84911 0.40793 0.56761 0.0
C1135 C 0.80459 0.3713 0.54021 0.0
C1136 C 0.8271 0.41161 0.50221 0.0
C1137 C 0.79844 0.35466 0.53813 0.0
C1138 C 0.87654 0.4626 0.51262 0.0
C1139 C 0.8659 0.44933 0.50955 0.0
C1140 C 0.84261 0.4095 0.5494 0.0
C1141 C 0.81889 0.37853 0.51991 0.0
C1142 C 0.82664 0.39521 0.52301 0.0
C1143 C 0.85308 0.4414 0.53125 0.0
C1144 C 0.84325 0.42591 0.52859 0.0
H1145 H 0.82708 0.34502 0.47779 0.0
H1146 H 0.83777 0.37425 0.48139 0.0
H1147 H 0.83445 0.38177 0.5629 0.0
H1148 H 0.85966 0.46495 0.57828 0.0
H1149 H 0.84051 0.44225 0.57288 0.0
C1150 C 0.31142 0.96507 0.22397 0.0
C1151 C 0.30086 0.9715 0.24825 0.0
C1152 C 0.33049 0.94786 0.2231 0.0
C1153 C 0.35945 0.90011 0.26578 0.0
H1154 H 0.40807 0.89769 0.20953 0.0
C1155 C 0.43785 0.8287 0.26565 0.0
C1156 C 0.44696 0.82212 0.24114 0.0
C1157 C 0.42141 0.8478 0.26688 0.0
C1158 C 0.39456 0.898 0.22528 0.0
H1159 H 0.30262 0.96507 0.29061 0.0
H1160 H 0.33575 0.93548 0.289 0.0
H1161 H 0.37685 0.92928 0.21049 0.0
H1162 H 0.44643 0.83067 0.19867 0.0
H1163 H 0.4177 0.86367 0.20077 0.0
H1164 H 0.37684 0.86879 0.28035 0.0
C1165 C 0.32918 0.94349 0.27064 0.0
C1166 C 0.37663 0.91617 0.22581 0.0
C1167 C 0.31021 0.96064 0.2715 0.0
C1168 C 0.43976 0.83529 0.21788 0.0
C1169 C 0.42332 0.85432 0.2191 0.0
C1170 C 0.37731 0.88194 0.2652 0.0
C1171 C 0.33941 0.93663 0.24651 0.0
C1172 C 0.35879 0.91746 0.24604 0.0
C1173 C 0.41368 0.86078 0.24363 0.0
C1174 C 0.39511 0.88056 0.24488 0.0
H1175 H 0.30466 0.97299 0.20569 0.0
H1176 H 0.33782 0.94297 0.20418 0.0
H1177 H 0.34586 0.90038 0.28143 0.0
H1178 H 0.44314 0.81893 0.28392 0.0
H1179 H 0.4147 0.85235 0.28611 0.0
C1180 C 0.31497 0.44903 0.76033 0.0
C1181 C 0.30592 0.46023 0.73703 0.0
C1182 C 0.33327 0.43122 0.75954 0.0
C1183 C 0.37907 0.40209 0.71397 0.0
H1184 H 0.37805 0.3556 0.76952 0.0
C1185 C 0.43676 0.31898 0.70584 0.0
C1186 C 0.44456 0.30605 0.72895 0.0
C1187 C 0.42146 0.33862 0.70707 0.0
C1188 C 0.37883 0.36848 0.75404 0.0
H1189 H 0.30957 0.46159 0.69446 0.0
H1190 H 0.3413 0.43053 0.69313 0.0
H1191 H 0.34859 0.3882 0.77113 0.0
H1192 H 0.44295 0.30377 0.77137 0.0
H1193 H 0.41654 0.33813 0.77352 0.0
H1194 H 0.40919 0.38221 0.69671 0.0
C1195 C 0.33439 0.43562 0.71203 0.0
C1196 C 0.36187 0.38725 0.75497 0.0
C1197 C 0.31608 0.45345 0.71281 0.0
C1198 C 0.43722 0.31338 0.75321 0.0
C1199 C 0.42192 0.33302 0.75446 0.0
C1200 C 0.39603 0.38329 0.71304 0.0
C1201 C 0.34306 0.42407 0.73545 0.0
C1202 C 0.36166 0.40431 0.73487 0.0
C1203 C 0.41357 0.34582 0.73145 0.0
C1204 C 0.39608 0.36618 0.73298 0.0
H1205 H 0.30767 0.45375 0.77936 0.0
H1206 H 0.33967 0.42298 0.77793 0.0
H1207 H 0.37968 0.41493 0.69835 0.0
H1208 H 0.44207 0.31375 0.68686 0.0
H1209 H 0.41528 0.34789 0.68898 0.0
C1210 C 0.17636 0.79113 0.54849 0.0
C1211 C 0.19487 0.77952 0.56137 0.0
C1212 C 0.15534 0.79148 0.56092 0.0
C1213 C 0.1124 0.7976 0.59944 0.0
H1214 H 0.10547 0.74527 0.63473 0.0
C1215 C 0.0387 0.78865 0.67693 0.0
C1216 C 0.03117 0.77218 0.67722 0.0
C1217 C 0.05685 0.79122 0.65922 0.0
C1218 C 0.10705 0.75998 0.6247 0.0
H1219 H 0.20604 0.75961 0.59743 0.0
H1220 H 0.16938 0.76021 0.61914 0.0
H1221 H 0.14111 0.74643 0.61145 0.0
H1222 H 0.036 0.7463 0.65785 0.0
H1223 H 0.06759 0.75085 0.627 0.0
H1224 H 0.07829 0.81116 0.61304 0.0
C1225 C 0.17108 0.76888 0.59938 0.0
C1226 C 0.12752 0.76066 0.61165 0.0
C1227 C 0.19203 0.76867 0.58706 0.0
C1228 C 0.04141 0.75907 0.65834 0.0
C1229 C 0.05961 0.76159 0.64074 0.0
C1230 C 0.09189 0.79694 0.61273 0.0
C1231 C 0.15255 0.7801 0.58634 0.0
C1232 C 0.13048 0.77949 0.59913 0.0
C1233 C 0.0679 0.77733 0.64151 0.0
C1234 C 0.08906 0.77812 0.62566 0.0
H1235 H 0.17815 0.79965 0.52865 0.0
H1236 H 0.14135 0.80018 0.55037 0.0
H1237 H 0.11424 0.81233 0.59001 0.0
H1238 H 0.03116 0.79909 0.69111 0.0
H1239 H 0.06291 0.80343 0.66038 0.0
C1240 C 0.23339 0.94636 0.29302 0.0
C1241 C 0.22397 0.96693 0.29698 0.0
C1242 C 0.23336 0.93018 0.31401 0.0
C1243 C 0.24397 0.89937 0.36398 0.0
H1244 H 0.19202 0.89813 0.41371 0.0
C1245 C 0.24699 0.83303 0.45225 0.0
C1246 C 0.22973 0.82465 0.45757 0.0
C1247 C 0.24552 0.85148 0.43469 0.0
C1248 C 0.20666 0.89821 0.39994 0.0
H1249 H 0.20682 0.98664 0.32625 0.0
H1250 H 0.20654 0.9581 0.36331 0.0
H1251 H 0.19085 0.92838 0.37933 0.0
H1252 H 0.19709 0.82959 0.44876 0.0
H1253 H 0.19459 0.86175 0.41792 0.0
H1254 H 0.25973 0.86921 0.38398 0.0
C1255 C 0.21397 0.95462 0.34373 0.0
C1256 C 0.20604 0.91565 0.38041 0.0
C1257 C 0.21416 0.97095 0.32257 0.0
C1258 C 0.21072 0.83553 0.44519 0.0
C1259 C 0.20923 0.85407 0.42759 0.0
C1260 C 0.24464 0.88208 0.38353 0.0
C1261 C 0.22382 0.93401 0.33971 0.0
C1262 C 0.22463 0.91632 0.36193 0.0
C1263 C 0.22674 0.86217 0.42183 0.0
C1264 C 0.22596 0.88113 0.40167 0.0
H1265 H 0.24107 0.94266 0.27359 0.0
H1266 H 0.24076 0.91458 0.31003 0.0
H1267 H 0.25867 0.8994 0.3503 0.0
H1268 H 0.26189 0.8252 0.46137 0.0
H1269 H 0.25921 0.85735 0.43111 0.0
C1270 C -0.01209 0.6885 0.58347 0.0
C1271 C 0.97174 0.69064 0.60566 0.0
C1272 C -0.01345 0.67917 0.56307 0.0
C1273 C 0.94996 0.65969 0.53664 0.0
H1274 H 0.00444 0.61724 0.51871 0.0
C1275 C 0.95498 0.58387 0.50774 0.0
C1276 C 0.974 0.57331 0.49235 0.0
C1277 C 0.9527 0.60303 0.51356 0.0
C1278 C -0.01084 0.62932 0.52284 0.0
H1279 H 0.94095 0.68548 0.62327 0.0
H1280 H 0.93866 0.66905 0.58791 0.0
H1281 H 0.00432 0.64217 0.54423 0.0
H1282 H 0.00424 0.57573 0.46832 0.0
H1283 H 0.0 0.60928 0.47802 0.0
H1284 H 0.9347 0.64611 0.51611 0.0
C1285 C 0.95224 0.67486 0.58598 0.0
C1286 C -0.01091 0.64366 0.53758 0.0
C1287 C 0.95357 0.68425 0.60633 0.0
C1288 C -0.01047 0.58329 0.48058 0.0
C1289 C -0.01282 0.60249 0.48628 0.0
C1290 C 0.95003 0.6453 0.52184 0.0
C1291 C 0.96903 0.67168 0.56447 0.0
C1292 C 0.96941 0.65867 0.5453 0.0
C1293 C 0.96931 0.61208 0.50396 0.0
C1294 C 0.96955 0.62959 0.51539 0.0
H1295 H 0.00192 0.6936 0.58218 0.0
H1296 H -0.00045 0.67731 0.54655 0.0
H1297 H 0.93458 0.67127 0.54192 0.0
H1298 H 0.94262 0.57671 0.51702 0.0
H1299 H 0.93873 0.60992 0.52727 0.0
C1300 C 0.30312 0.73885 0.46422 0.0
C1301 C 0.28402 0.74924 0.452 0.0
C1302 C 0.32383 0.73716 0.44965 0.0
C1303 C 0.36393 0.74777 0.41741 0.0
H1304 H 0.37372 0.73879 0.34461 0.0
C1305 C 0.43404 0.76549 0.34036 0.0
C1306 C 0.44349 0.75312 0.32057 0.0
C1307 C 0.41638 0.76243 0.35869 0.0
C1308 C 0.37146 0.74101 0.36501 0.0
H1309 H 0.27149 0.76585 0.4151 0.0
H1310 H 0.3074 0.76304 0.38981 0.0
H1311 H 0.33959 0.73769 0.37206 0.0
H1312 H 0.44268 0.72708 0.30543 0.0
H1313 H 0.41226 0.72147 0.33766 0.0
H1314 H 0.39595 0.75098 0.4103 0.0
C1315 C 0.30655 0.75595 0.41047 0.0
C1316 C 0.35173 0.74064 0.38066 0.0
C1317 C 0.28595 0.75765 0.42499 0.0
C1318 C 0.43559 0.73705 0.32023 0.0
C1319 C 0.41806 0.73389 0.33864 0.0
C1320 C 0.38375 0.7481 0.40173 0.0
C1321 C 0.32575 0.74572 0.42259 0.0
C1322 C 0.34756 0.74437 0.40689 0.0
C1323 C 0.40789 0.74684 0.3577 0.0
C1324 C 0.38763 0.74499 0.37522 0.0
H1325 H 0.30205 0.73207 0.485 0.0
H1326 H 0.33832 0.72902 0.45949 0.0
H1327 H 0.36117 0.75081 0.4375 0.0
H1328 H 0.43974 0.77803 0.34114 0.0
H1329 H 0.40882 0.77282 0.37292 0.0
C1330 C 0.26305 0.06027 0.19467 0.0
C1331 C 0.24654 0.06402 0.21635 0.0
C1332 C 0.26365 0.07593 0.1728 0.0
C1333 C 0.22953 0.12225 0.1354 0.0
H1334 H 0.27955 0.142 0.11829 0.0
C1335 C 0.22494 0.19938 0.06559 0.0
C1336 C 0.24416 0.20255 0.05086 0.0
C1337 C 0.22592 0.18147 0.08414 0.0
C1338 C 0.26558 0.13651 0.12223 0.0
H1339 H 0.21729 0.08674 0.23173 0.0
H1340 H 0.21787 0.11367 0.19323 0.0
H1341 H 0.28026 0.11204 0.15253 0.0
H1342 H 0.27947 0.18902 0.04358 0.0
H1343 H 0.28119 0.15733 0.0748 0.0
H1344 H 0.21495 0.14605 0.10484 0.0
C1345 C 0.23058 0.09884 0.19333 0.0
C1346 C 0.26602 0.11933 0.14205 0.0
C1347 C 0.23032 0.08345 0.2154 0.0
C1348 C 0.26436 0.18713 0.05474 0.0
C1349 C 0.26532 0.16897 0.07291 0.0
C1350 C 0.22927 0.1391 0.11518 0.0
C1351 C 0.24736 0.09536 0.17193 0.0
C1352 C 0.24784 0.11225 0.14915 0.0
C1353 C 0.24613 0.16588 0.08818 0.0
C1354 C 0.24711 0.14685 0.10856 0.0
H1355 H 0.27573 0.04542 0.1949 0.0
H1356 H 0.27673 0.07284 0.1565 0.0
H1357 H 0.21535 0.117 0.14036 0.0
H1358 H 0.20911 0.21103 0.06332 0.0
H1359 H 0.21075 0.18017 0.09573 0.0
C1360 C 0.80067 0.73134 0.95504 0.0
C1361 C 0.78129 0.74126 0.94327 0.0
C1362 C 0.82119 0.72886 0.93965 0.0
C1363 C 0.86077 0.7386 0.90495 0.0
H1364 H 0.86987 0.7262 0.83389 0.0
C1365 C 0.92999 0.7543 0.82488 0.0
C1366 C 0.93989 0.74071 0.80653 0.0
C1367 C 0.91229 0.75185 0.84357 0.0
C1368 C 0.86777 0.7294 0.8538 0.0
H1369 H 0.76808 0.75601 0.90623 0.0
H1370 H 0.80369 0.75177 0.87946 0.0
H1371 H 0.83594 0.72585 0.86256 0.0
H1372 H 0.93948 0.71332 0.79426 0.0
H1373 H 0.90884 0.70891 0.82705 0.0
H1374 H 0.89267 0.74212 0.89615 0.0
C1375 C 0.80318 0.74571 0.90046 0.0
C1376 C 0.84818 0.72944 0.87014 0.0
C1377 C 0.78276 0.74823 0.91582 0.0
C1378 C 0.93216 0.72419 0.80793 0.0
C1379 C 0.91449 0.72171 0.82667 0.0
C1380 C 0.8804 0.73856 0.88859 0.0
C1381 C 0.82266 0.73612 0.91218 0.0
C1382 C 0.84428 0.73436 0.89575 0.0
C1383 C 0.90409 0.73572 0.84441 0.0
C1384 C 0.88402 0.73423 0.86267 0.0
H1385 H 0.79999 0.72572 0.97616 0.0
H1386 H 0.83588 0.72122 0.94923 0.0
H1387 H 0.85824 0.74259 0.92451 0.0
H1388 H 0.93548 0.76722 0.82438 0.0
H1389 H 0.90453 0.76307 0.85672 0.0
C1390 C 0.24808 0.56025 0.68613 0.0
C1391 C 0.25855 0.55617 0.70876 0.0
C1392 C 0.24775 0.57779 0.66693 0.0
C1393 C 0.25631 0.62903 0.65805 0.0
H1394 H 0.25515 0.62971 0.58378 0.0
C1395 C 0.26547 0.69742 0.57658 0.0
C1396 C 0.25054 0.70475 0.55778 0.0
C1397 C 0.26697 0.67893 0.59419 0.0
C1398 C 0.25534 0.6298 0.60449 0.0
H1399 H 0.27739 0.56694 0.72869 0.0
H1400 H 0.27777 0.59686 0.69492 0.0
H1401 H 0.25731 0.59811 0.61552 0.0
H1402 H 0.22577 0.69792 0.5426 0.0
H1403 H 0.22868 0.66555 0.573 0.0
H1404 H 0.25477 0.66063 0.64682 0.0
C1405 C 0.26912 0.58703 0.69215 0.0
C1406 C 0.25649 0.61166 0.62279 0.0
C1407 C 0.26914 0.5697 0.71147 0.0
C1408 C 0.23747 0.69282 0.55675 0.0
C1409 C 0.23919 0.67417 0.57413 0.0
C1410 C 0.25545 0.64704 0.63971 0.0
C1411 C 0.25809 0.59162 0.66975 0.0
C1412 C 0.25699 0.61095 0.64993 0.0
C1413 C 0.25379 0.66709 0.59329 0.0
C1414 C 0.25493 0.64771 0.61268 0.0
H1415 H 0.23943 0.55032 0.68375 0.0
H1416 H 0.23877 0.58079 0.65031 0.0
H1417 H 0.25607 0.62947 0.67873 0.0
H1418 H 0.27577 0.70617 0.57805 0.0
H1419 H 0.27854 0.67386 0.60851 0.0
C1420 C 0.35334 0.9857 0.35594 0.0
C1421 C 0.33524 1.00341 0.35943 0.0
C1422 C 0.37415 0.98459 0.36021 0.0
C1423 C 0.40685 0.01713 0.36198 0.0
H1424 H 0.43958 0.97066 0.40928 0.0
C1425 C 0.47069 0.02299 0.41792 0.0
C1426 C 0.48579 1.00506 0.4294 0.0
C1427 C 0.45611 0.0218 0.40252 0.0
C1428 C 0.43117 0.98354 0.39535 0.0
H1429 H 0.32463 0.03378 0.37013 0.0
H1430 H 0.36095 0.03179 0.37776 0.0
H1431 H 0.40639 0.97007 0.39606 0.0
H1432 H 0.49961 0.97202 0.43116 0.0
H1433 H 0.47499 0.96993 0.40338 0.0
H1434 H 0.43161 0.03059 0.36078 0.0
C1435 C 0.35907 0.01885 0.37154 0.0
C1436 C 0.41195 0.98322 0.388 0.0
C1437 C 0.33826 0.01988 0.36754 0.0
C1438 C 0.48774 0.98611 0.42297 0.0
C1439 C 0.4734 0.9849 0.40729 0.0
C1440 C 0.42633 0.01729 0.36882 0.0
C1441 C 0.37723 1.00128 0.36768 0.0
C1442 C 0.39917 1.00034 0.37214 0.0
C1443 C 0.45659 1.0026 0.39801 0.0
C1444 C 0.43831 1.00086 0.38651 0.0
H1445 H 0.35141 0.97275 0.34981 0.0
H1446 H 0.38788 0.97084 0.35721 0.0
H1447 H 0.39753 0.03033 0.34912 0.0
H1448 H 0.4694 0.03785 0.42195 0.0
H1449 H 0.44362 0.03588 0.39571 0.0
C1450 C 0.83498 0.83706 0.02974 0.0
C1451 C 0.82033 0.83807 0.01266 0.0
C1452 C 0.84062 0.85433 0.03026 0.0
C1453 C 0.82176 0.91082 0.01445 0.0
H1454 H 0.88253 0.90421 0.01754 0.0
C1455 C 0.85005 0.97345 0.03907 0.0
C1456 C 0.86973 0.97595 0.02486 0.0
C1457 C 0.84311 0.95754 0.03589 0.0
C1458 C 0.86551 0.90636 0.01644 0.0
H1459 H 0.80029 0.85803 0.98252 0.0
H1460 H 0.81006 0.88826 0.98359 0.0
H1461 H 0.87248 0.87454 0.01505 0.0
H1462 H 0.89741 0.96379 0.99595 0.0
H1463 H 0.88509 0.93641 0.99007 0.0
H1464 H 0.81488 0.94272 0.01571 0.0
C1465 C 0.81699 0.87411 0.99675 0.0
C1466 C 0.85973 0.88931 0.01532 0.0
C1467 C 0.8114 0.8568 0.99615 0.0
C1468 C 0.88201 0.96251 0.00694 0.0
C1469 C 0.87511 0.94663 0.00381 0.0
C1470 C 0.82755 0.92789 0.01569 0.0
C1471 C 0.83169 0.87304 0.01379 0.0
C1472 C 0.83779 0.89132 0.01441 0.0
C1473 C 0.85578 0.94375 0.01856 0.0
C1474 C 0.8495 0.92583 0.01672 0.0
H1475 H 0.84183 0.82301 0.04308 0.0
H1476 H 0.85172 0.85311 0.04391 0.0
H1477 H 0.80469 0.9128 0.01396 0.0
H1478 H 0.84018 0.98363 0.0529 0.0
H1479 H 0.82821 0.95564 0.04764 0.0
C1480 C 0.63804 0.17766 0.52079 0.0
C1481 C 0.65621 0.17758 0.50138 0.0
C1482 C 0.63054 0.16067 0.52757 0.0
C1483 C 0.64717 0.10536 0.52528 0.0
H1484 H 0.58559 0.11552 0.52207 0.0
C1485 C 0.61502 0.0424 0.512 0.0
C1486 C 0.59388 0.04259 0.52392 0.0
C1487 C 0.62277 0.0582 0.51348 0.0
C1488 C 0.60274 0.11235 0.52361 0.0
H1489 H 0.68128 0.1595 0.4746 0.0
H1490 H 0.66829 0.1298 0.48654 0.0
H1491 H 0.599 0.14442 0.5176 0.0
H1492 H 0.56408 0.05949 0.54609 0.0
H1493 H 0.57783 0.08668 0.54982 0.0
H1494 H 0.65102 0.07332 0.53116 0.0
C1495 C 0.65981 0.14297 0.49646 0.0
C1496 C 0.61041 0.12895 0.52098 0.0
C1497 C 0.66712 0.16002 0.48945 0.0
C1498 C 0.58069 0.05871 0.53753 0.0
C1499 C 0.58846 0.07445 0.53919 0.0
C1500 C 0.63948 0.08875 0.52817 0.0
C1501 C 0.64131 0.14321 0.51536 0.0
C1502 C 0.63278 0.12562 0.5212 0.0
C1503 C 0.60953 0.07452 0.52693 0.0
C1504 C 0.61726 0.09205 0.52675 0.0
H1505 H 0.62932 0.19105 0.5302 0.0
H1506 H 0.61629 0.1612 0.54228 0.0
H1507 H 0.66445 0.10236 0.5259 0.0
H1508 H 0.62543 0.03018 0.50123 0.0
H1509 H 0.6389 0.05792 0.50335 0.0
C1510 C 0.81204 0.45701 0.26263 0.0
C1511 C 0.80213 0.46788 0.23974 0.0
C1512 C 0.83103 0.43983 0.26122 0.0
C1513 C 0.87658 0.40812 0.25156 0.0
H1514 H 0.87694 0.3702 0.2075 0.0
C1515 C 0.94912 0.3319 0.23919 0.0
C1516 C 0.943 0.31452 0.23989 0.0
C1517 C 0.93327 0.35156 0.23808 0.0
C1518 C 0.87712 0.38058 0.21997 0.0
H1519 H 0.80509 0.46952 0.19722 0.0
H1520 H 0.83824 0.43972 0.19474 0.0
H1521 H 0.84735 0.40285 0.20767 0.0
H1522 H 0.91549 0.30415 0.2402 0.0
H1523 H 0.88808 0.33814 0.2382 0.0
H1524 H 0.90613 0.38547 0.26435 0.0
C1525 C 0.83115 0.44432 0.21388 0.0
C1526 C 0.86024 0.39947 0.21983 0.0
C1527 C 0.8122 0.46155 0.21527 0.0
C1528 C 0.92079 0.31722 0.23948 0.0
C1529 C 0.90506 0.33677 0.23819 0.0
C1530 C 0.89358 0.38922 0.25159 0.0
C1531 C 0.84061 0.43297 0.23691 0.0
C1532 C 0.85955 0.41344 0.23585 0.0
C1533 C 0.91102 0.35426 0.23741 0.0
C1534 C 0.8939 0.37505 0.23608 0.0
H1535 H 0.80478 0.46139 0.28185 0.0
H1536 H 0.83767 0.43144 0.27942 0.0
H1537 H 0.87674 0.41855 0.26397 0.0
H1538 H 0.9661 0.33029 0.23959 0.0
H1539 H 0.93848 0.36468 0.23739 0.0
C1540 C 0.11244 0.55195 0.49275 0.0
C1541 C 0.10129 0.55625 0.47063 0.0
C1542 C 0.12256 0.56547 0.49642 0.0
C1543 C 0.14315 0.60801 0.46083 0.0
H1544 H 0.1343 0.62297 0.53044 0.0
C1545 C 0.18044 0.66558 0.48004 0.0
C1546 C 0.16606 0.68109 0.49405 0.0
C1547 C 0.17479 0.6484 0.47911 0.0
C1548 C 0.1369 0.61894 0.51089 0.0
H1549 H 0.09233 0.57784 0.43479 0.0
H1550 H 0.1096 0.60158 0.44145 0.0
H1551 H 0.12019 0.59662 0.52438 0.0
H1552 H 0.13487 0.69028 0.51899 0.0
H1553 H 0.12483 0.66045 0.51696 0.0
H1554 H 0.1592 0.63073 0.44711 0.0
C1555 C 0.11078 0.58767 0.4558 0.0
C1556 C 0.12902 0.60371 0.50748 0.0
C1557 C 0.10068 0.57419 0.45213 0.0
C1558 C 0.14618 0.67873 0.50775 0.0
C1559 C 0.14055 0.66151 0.50686 0.0
C1560 C 0.15108 0.62315 0.46426 0.0
C1561 C 0.12174 0.58353 0.47806 0.0
C1562 C 0.13172 0.59836 0.48229 0.0
C1563 C 0.15465 0.64631 0.49219 0.0
C1564 C 0.14775 0.62902 0.48923 0.0
H1565 H 0.11296 0.53835 0.50751 0.0
H1566 H 0.13108 0.56177 0.51357 0.0
H1567 H 0.14576 0.60401 0.44126 0.0
H1568 H 0.1958 0.667 0.46911 0.0
H1569 H 0.18611 0.63684 0.46787 0.0
C1570 C 0.66345 0.05919 0.72625 0.0
C1571 C 0.67642 0.05042 0.74713 0.0
C1572 C 0.64518 0.07698 0.72798 0.0
C1573 C 0.62476 0.12244 0.76089 0.0
H1574 H 0.56877 0.13119 0.73816 0.0
C1575 C 0.55173 0.19374 0.78074 0.0
C1576 C 0.53768 0.20383 0.76131 0.0
C1577 C 0.56726 0.17443 0.77876 0.0
C1578 C 0.58439 0.12911 0.74428 0.0
H1579 H 0.67968 0.05332 0.78663 0.0
H1580 H 0.648 0.08423 0.78954 0.0
H1581 H 0.59825 0.09835 0.73547 0.0
H1582 H 0.52863 0.20154 0.7246 0.0
H1583 H 0.55624 0.1677 0.7207 0.0
H1584 H 0.61141 0.15311 0.76917 0.0
C1585 C 0.65207 0.07742 0.77172 0.0
C1586 C 0.60125 0.11024 0.74282 0.0
C1587 C 0.6702 0.05958 0.7701 0.0
C1588 C 0.53912 0.19398 0.74001 0.0
C1589 C 0.55495 0.1746 0.73783 0.0
C1590 C 0.60807 0.14126 0.76213 0.0
C1591 C 0.63957 0.08657 0.7505 0.0
C1592 C 0.62155 0.10661 0.75145 0.0
C1593 C 0.56951 0.16474 0.75699 0.0
C1594 C 0.5875 0.14481 0.75425 0.0
H1595 H 0.66776 0.05276 0.70815 0.0
H1596 H 0.636 0.08368 0.71121 0.0
H1597 H 0.64035 0.12038 0.76706 0.0
H1598 H 0.55088 0.20088 0.79751 0.0
H1599 H 0.57765 0.16717 0.79432 0.0
C1600 C 0.75911 0.55672 0.18925 0.0
C1601 C 0.74872 0.56045 0.21476 0.0
C1602 C 0.75978 0.57318 0.16851 0.0
C1603 C 0.73094 0.62891 0.14839 0.0
H1604 H 0.78331 0.62796 0.09847 0.0
C1605 C 0.76686 0.68971 0.06397 0.0
C1606 C 0.74802 0.70078 0.05135 0.0
C1607 C 0.76762 0.67176 0.08255 0.0
C1608 C 0.76856 0.62852 0.1123 0.0
H1609 H 0.73102 0.58437 0.23846 0.0
H1610 H 0.7322 0.61283 0.20263 0.0
H1611 H 0.78347 0.59837 0.1335 0.0
H1612 H 0.71537 0.70114 0.04811 0.0
H1613 H 0.71676 0.67002 0.08022 0.0
H1614 H 0.71609 0.65907 0.12762 0.0
C1615 C 0.7397 0.5973 0.19841 0.0
C1616 C 0.76859 0.61145 0.13225 0.0
C1617 C 0.73916 0.58092 0.21906 0.0
C1618 C 0.73015 0.69316 0.05746 0.0
C1619 C 0.73088 0.67531 0.07606 0.0
C1620 C 0.73087 0.64587 0.12841 0.0
C1621 C 0.74989 0.59372 0.17277 0.0
C1622 C 0.74982 0.61147 0.15073 0.0
C1623 C 0.74952 0.66444 0.08914 0.0
C1624 C 0.74969 0.64601 0.11011 0.0
H1625 H 0.76654 0.54111 0.18527 0.0
H1626 H 0.76763 0.56982 0.149 0.0
H1627 H 0.71608 0.62946 0.16201 0.0
H1628 H 0.78093 0.69508 0.05984 0.0
H1629 H 0.78219 0.66394 0.09232 0.0
C1630 C 0.95854 0.50544 0.42884 0.0
C1631 C 0.96074 0.50159 0.45589 0.0
C1632 C 0.94254 0.50019 0.42036 0.0
C1633 C 0.88937 0.49373 0.44146 0.0
H1634 H 0.9046 0.46 0.38657 0.0
C1635 C 0.82182 0.47825 0.40314 0.0
C1636 C 0.82348 0.48081 0.37539 0.0
C1637 C 0.83995 0.47586 0.41533 0.0
C1638 C 0.90003 0.46954 0.4018 0.0
H1639 H 0.94809 0.48939 0.49529 0.0
H1640 H 0.92002 0.48059 0.48044 0.0
H1641 H 0.93343 0.46744 0.40204 0.0
H1642 H 0.84602 0.48075 0.33893 0.0
H1643 H 0.87707 0.47793 0.35983 0.0
H1644 H 0.856 0.4969 0.44051 0.0
C1645 C 0.93054 0.48767 0.4659 0.0
C1646 C 0.91654 0.47376 0.41061 0.0
C1647 C 0.94659 0.49271 0.47432 0.0
C1648 C 0.84401 0.47943 0.36029 0.0
C1649 C 0.86199 0.47743 0.37239 0.0
C1650 C 0.87283 0.48982 0.43239 0.0
C1651 C 0.92845 0.49129 0.43889 0.0
C1652 C 0.91126 0.4861 0.43024 0.0
C1653 C 0.85999 0.47633 0.39998 0.0
C1654 C 0.8779 0.47797 0.4121 0.0
H1655 H 0.96936 0.51216 0.41427 0.0
H1656 H 0.94103 0.50322 0.3994 0.0
H1657 H 0.88497 0.50335 0.4566 0.0
H1658 H 0.80628 0.47917 0.41542 0.0
H1659 H 0.83798 0.47447 0.4367 0.0
C1660 C 0.14134 0.55476 0.63097 0.0
C1661 C 0.16032 0.55185 0.61231 0.0
C1662 C 0.12141 0.55622 0.62367 0.0
C1663 C 0.09155 0.56042 0.56846 0.0
H1664 H 0.07453 0.51532 0.61357 0.0
C1665 C 0.03827 0.52346 0.53454 0.0
C1666 C 0.02358 0.5156 0.55338 0.0
C1667 C 0.05315 0.53041 0.54241 0.0
C1668 C 0.0786 0.52827 0.60105 0.0
H1669 H 0.17272 0.55088 0.57078 0.0
H1670 H 0.13787 0.55328 0.55811 0.0
H1671 H 0.10197 0.52635 0.62569 0.0
H1672 H 0.01258 0.50906 0.59527 0.0
H1673 H 0.038 0.522 0.60927 0.0
H1674 H 0.06819 0.5624 0.54376 0.0
C1675 C 0.13842 0.55438 0.57832 0.0
C1676 C 0.09438 0.53459 0.60802 0.0
C1677 C 0.15841 0.55285 0.58562 0.0
C1678 C 0.02398 0.51478 0.58038 0.0
C1679 C 0.03859 0.52218 0.58832 0.0
C1680 C 0.07545 0.55432 0.56167 0.0
C1681 C 0.12011 0.55491 0.5976 0.0
C1682 C 0.10126 0.55049 0.59161 0.0
C1683 C 0.05332 0.53017 0.5694 0.0
C1684 C 0.06909 0.53787 0.57763 0.0
H1685 H 0.14225 0.55397 0.65172 0.0
H1686 H 0.10742 0.55689 0.63882 0.0
H1687 H 0.0966 0.57272 0.5555 0.0
H1688 H 0.03808 0.52453 0.51357 0.0
H1689 H 0.06453 0.53592 0.52724 0.0
C1690 C 0.54759 0.7957 0.19143 0.0
C1691 C 0.53873 0.78032 0.19084 0.0
C1692 C 0.56526 0.7984 0.17289 0.0
C1693 C 0.59815 0.78406 0.10902 0.0
H1694 H 0.64406 0.79267 0.13747 0.0
C1695 C 0.69666 0.77124 0.08347 0.0
C1696 C 0.69837 0.77891 0.05621 0.0
C1697 C 0.67613 0.77392 0.09858 0.0
C1698 C 0.63144 0.79019 0.12921 0.0
H1699 H 0.54105 0.75612 0.16977 0.0
H1700 H 0.57216 0.76049 0.13786 0.0
H1701 H 0.60994 0.79253 0.16563 0.0
H1702 H 0.68004 0.79581 0.02338 0.0
H1703 H 0.64395 0.80073 0.04991 0.0
H1704 H 0.6202 0.78075 0.07293 0.0
C1705 C 0.56524 0.77075 0.15232 0.0
C1706 C 0.6117 0.7904 0.14527 0.0
C1707 C 0.54745 0.76815 0.17074 0.0
C1708 C 0.67914 0.78966 0.04437 0.0
C1709 C 0.65852 0.79237 0.05953 0.0
C1710 C 0.61798 0.78377 0.09296 0.0
C1711 C 0.57463 0.78567 0.15345 0.0
C1712 C 0.5949 0.78706 0.13552 0.0
C1713 C 0.65678 0.78443 0.08682 0.0
C1714 C 0.635 0.7865 0.10301 0.0
H1715 H 0.54111 0.80548 0.20649 0.0
H1716 H 0.57177 0.81033 0.17403 0.0
H1717 H 0.58547 0.78171 0.10075 0.0
H1718 H 0.71122 0.76279 0.09308 0.0
H1719 H 0.67545 0.76728 0.11941 0.0
C1720 C 0.64423 0.4978 0.13724 0.0
C1721 C 0.66115 0.50492 0.1221 0.0
C1722 C 0.62814 0.49579 0.12497 0.0
C1723 C 0.59899 0.51755 0.06817 0.0
H1724 H 0.58435 0.46718 0.081 0.0
C1725 C 0.53198 0.51336 0.01629 0.0
C1726 C 0.51778 0.5028 0.03099 0.0
C1727 C 0.55144 0.51116 0.02536 0.0
C1728 C 0.58802 0.48144 0.07743 0.0
H1729 H 0.67456 0.51507 0.08205 0.0
H1730 H 0.64587 0.51232 0.06084 0.0
H1731 H 0.61414 0.46845 0.1017 0.0
H1732 H 0.51289 0.4813 0.06639 0.0
H1733 H 0.54628 0.47828 0.08317 0.0
H1734 H 0.57237 0.53107 0.04521 0.0
C1735 C 0.64527 0.50823 0.08219 0.0
C1736 C 0.60515 0.48209 0.08918 0.0
C1737 C 0.66157 0.50994 0.09439 0.0
C1738 C 0.52368 0.48948 0.05458 0.0
C1739 C 0.54291 0.4877 0.06409 0.0
C1740 C 0.58162 0.51706 0.05686 0.0
C1741 C 0.62845 0.50115 0.09739 0.0
C1742 C 0.61075 0.50015 0.08459 0.0
C1743 C 0.5568 0.4989 0.04987 0.0
C1744 C 0.57589 0.49899 0.06128 0.0
H1745 H 0.64313 0.49416 0.15864 0.0
H1746 H 0.61511 0.49056 0.13709 0.0
H1747 H 0.60285 0.53173 0.06467 0.0
H1748 H 0.52775 0.52389 0.99816 0.0
H1749 H 0.56196 0.51957 0.01342 0.0
C1750 C 0.35532 0.46287 0.0664 0.0
C1751 C 0.37414 0.46552 0.04996 0.0
C1752 C 0.34804 0.44666 0.06509 0.0
C1753 C 0.36769 0.39572 0.04457 0.0
H1754 H 0.30638 0.40519 0.04063 0.0
C1755 C 0.33944 0.33604 0.0144 0.0
C1756 C 0.31986 0.33294 0.02794 0.0
C1757 C 0.34555 0.35223 0.01821 0.0
C1758 C 0.32351 0.40223 0.04207 0.0
H1759 H 0.4004 0.45299 0.01978 0.0
H1760 H 0.38761 0.42503 0.01733 0.0
H1761 H 0.3179 0.4334 0.04601 0.0
H1762 H 0.29142 0.34428 0.05627 0.0
H1763 H 0.30217 0.37249 0.06306 0.0
H1764 H 0.3734 0.36463 0.04064 0.0
C1765 C 0.37847 0.43538 0.03124 0.0
C1766 C 0.33009 0.41838 0.04515 0.0
C1767 C 0.38563 0.45157 0.03242 0.0
C1768 C 0.30647 0.34644 0.04529 0.0
C1769 C 0.31262 0.36261 0.04916 0.0
C1770 C 0.36112 0.37958 0.04159 0.0
C1771 C 0.35964 0.4327 0.04757 0.0
C1772 C 0.35229 0.41535 0.04609 0.0
C1773 C 0.33228 0.36565 0.03573 0.0
C1774 C 0.33901 0.38269 0.03998 0.0
H1775 H 0.34614 0.47341 0.08006 0.0
H1776 H 0.33354 0.44489 0.07802 0.0
H1777 H 0.38487 0.39283 0.0457 0.0
H1778 H 0.34993 0.32608 0.0006 0.0
H1779 H 0.36059 0.35437 0.00715 0.0
C1780 C 0.06597 0.21837 0.27059 0.0
C1781 C 0.04324 0.22186 0.27598 0.0
C1782 C 0.08069 0.1985 0.26944 0.0
C1783 C 0.08659 0.14334 0.29104 0.0
H1784 H 0.13618 0.13584 0.23559 0.0
C1785 C 0.16382 0.07426 0.24411 0.0
C1786 C 0.17237 0.06221 0.26735 0.0
C1787 C 0.14655 0.09283 0.24511 0.0
C1788 C 0.12233 0.13757 0.25108 0.0
H1789 H 0.01809 0.2072 0.28457 0.0
H1790 H 0.04384 0.17236 0.28271 0.0
H1791 H 0.10925 0.16989 0.23721 0.0
H1792 H 0.16866 0.05999 0.31005 0.0
H1793 H 0.13845 0.09228 0.31179 0.0
H1794 H 0.0998 0.11095 0.30493 0.0
C1795 C 0.0503 0.18502 0.27947 0.0
C1796 C 0.10699 0.15719 0.25218 0.0
C1797 C 0.03553 0.20498 0.28043 0.0
C1798 C 0.1625 0.0688 0.29175 0.0
C1799 C 0.14511 0.08734 0.29276 0.0
C1800 C 0.10207 0.1237 0.29007 0.0
C1801 C 0.07309 0.18153 0.27379 0.0
C1802 C 0.08897 0.16039 0.27225 0.0
C1803 C 0.13722 0.09984 0.26938 0.0
C1804 C 0.1202 0.12055 0.2701 0.0
H1805 H 0.07244 0.23105 0.26708 0.0
H1806 H 0.09811 0.1964 0.26537 0.0
H1807 H 0.07301 0.14524 0.30687 0.0
H1808 H 0.17095 0.06975 0.22493 0.0
H1809 H 0.14069 0.10186 0.22674 0.0
C1810 C 0.21319 0.33502 0.94254 0.0
C1811 C 0.23294 0.31891 0.94658 0.0
C1812 C 0.21303 0.35263 0.92352 0.0
C1813 C 0.2406 0.36927 0.86014 0.0
H1814 H 0.21967 0.42429 0.8774 0.0
C1815 C 0.25136 0.43731 0.78047 0.0
C1816 C 0.23593 0.45698 0.78115 0.0
C1817 C 0.25096 0.42121 0.80156 0.0
C1818 C 0.22523 0.40914 0.87197 0.0
H1819 H 0.26796 0.30863 0.93359 0.0
H1820 H 0.26748 0.33895 0.89985 0.0
H1821 H 0.2181 0.39506 0.91221 0.0
H1822 H 0.20813 0.47536 0.80463 0.0
H1823 H 0.2065 0.44706 0.84094 0.0
H1824 H 0.2468 0.38294 0.81994 0.0
C1825 C 0.25222 0.33812 0.91174 0.0
C1826 C 0.22443 0.39236 0.89207 0.0
C1827 C 0.25248 0.3208 0.93114 0.0
C1828 C 0.22025 0.46033 0.80362 0.0
C1829 C 0.21946 0.44404 0.82454 0.0
C1830 C 0.24092 0.38601 0.83997 0.0
C1831 C 0.23252 0.35422 0.90769 0.0
C1832 C 0.23237 0.37224 0.88639 0.0
C1833 C 0.23469 0.42409 0.82375 0.0
C1834 C 0.23356 0.40627 0.8455 0.0
H1835 H 0.19787 0.33404 0.95411 0.0
H1836 H 0.1976 0.36478 0.92072 0.0
H1837 H 0.24658 0.35394 0.85514 0.0
H1838 H 0.26389 0.43436 0.76357 0.0
H1839 H 0.26355 0.40648 0.80031 0.0
C1840 C 0.29763 0.23062 0.9549 0.0
C1841 C 0.27849 0.24293 0.94361 0.0
C1842 C 0.31832 0.22889 0.94028 0.0
C1843 C 0.35861 0.22008 0.89686 0.0
H1844 H 0.36854 0.27111 0.86099 0.0
C1845 C 0.42969 0.22618 0.81279 0.0
C1846 C 0.44011 0.24047 0.81329 0.0
C1847 C 0.41159 0.22468 0.8314 0.0
C1848 C 0.36609 0.25674 0.87107 0.0
H1849 H 0.26587 0.26291 0.90825 0.0
H1850 H 0.30193 0.26009 0.88292 0.0
H1851 H 0.33343 0.27202 0.88786 0.0
H1852 H 0.44018 0.26376 0.83453 0.0
H1853 H 0.40854 0.26122 0.86673 0.0
H1854 H 0.39122 0.20482 0.87952 0.0
C1855 C 0.30097 0.25176 0.90298 0.0
C1856 C 0.34594 0.25726 0.88625 0.0
C1857 C 0.28035 0.25326 0.91742 0.0
C1858 C 0.43257 0.25261 0.83348 0.0
C1859 C 0.41436 0.25125 0.85187 0.0
C1860 C 0.37872 0.21955 0.88132 0.0
C1861 C 0.32016 0.2397 0.91432 0.0
C1862 C 0.34194 0.23895 0.89914 0.0
C1863 C 0.40341 0.23758 0.85069 0.0
C1864 C 0.38262 0.23789 0.86822 0.0
H1865 H 0.2966 0.22254 0.9751 0.0
H1866 H 0.33288 0.21956 0.9495 0.0
H1867 H 0.35588 0.20575 0.90654 0.0
H1868 H 0.43512 0.21654 0.79758 0.0
H1869 H 0.4034 0.21407 0.82995 0.0
C1870 C 0.41486 0.56685 0.9282 0.0
C1871 C 0.41929 0.55719 0.954 0.0
C1872 C 0.39375 0.5721 0.92133 0.0
C1873 C 0.34513 0.55528 0.9431 0.0
H1874 H 0.32027 0.59928 0.88743 0.0
C1875 C 0.27016 0.55598 0.90351 0.0
C1876 C 0.27364 0.55658 0.87593 0.0
C1877 C 0.28326 0.56243 0.9156 0.0
C1878 C 0.32696 0.58701 0.90315 0.0
H1879 H 0.40497 0.54744 0.99323 0.0
H1880 H 0.36812 0.55697 0.98188 0.0
H1881 H 0.35291 0.59857 0.90428 0.0
H1882 H 0.2924 0.56587 0.83922 0.0
H1883 H 0.31527 0.57698 0.86028 0.0
H1884 H 0.31983 0.54329 0.94149 0.0
C1885 C 0.38096 0.55976 0.96655 0.0
C1886 C 0.34568 0.58655 0.9127 0.0
C1887 C 0.40208 0.55423 0.97317 0.0
C1888 C 0.28919 0.56536 0.8605 0.0
C1889 C 0.30231 0.57177 0.87258 0.0
C1890 C 0.32643 0.55582 0.93371 0.0
C1891 C 0.37669 0.56806 0.94032 0.0
C1892 C 0.35528 0.57038 0.93236 0.0
C1893 C 0.30012 0.56952 0.90033 0.0
C1894 C 0.31744 0.57138 0.91319 0.0
H1895 H 0.42793 0.56937 0.91302 0.0
H1896 H 0.39112 0.57832 0.90087 0.0
H1897 H 0.35226 0.54234 0.95784 0.0
H1898 H 0.25801 0.54963 0.91584 0.0
H1899 H 0.28095 0.56087 0.93701 0.0
C1900 C 0.66369 0.67251 0.97009 0.0
C1901 C 0.65234 0.68706 0.98688 0.0
C1902 C 0.6551 0.65739 0.96804 0.0
C1903 C 0.60222 0.64787 0.97774 0.0
H1904 H 0.63822 0.59205 0.96957 0.0
C1905 C 0.56326 0.58778 0.97328 0.0
C1906 C 0.5726 0.57577 0.9531 0.0
C1907 C 0.57422 0.59962 0.97944 0.0
C1908 C 0.62801 0.60763 0.97165 0.0
H1909 H 0.62372 0.69651 0.01574 0.0
H1910 H 0.60882 0.67004 0.01237 0.0
H1911 H 0.65518 0.61596 0.97703 0.0
H1912 H 0.60118 0.56602 0.92433 0.0
H1913 H 0.62041 0.58692 0.93499 0.0
H1914 H 0.57512 0.63973 0.97214 0.0
C1915 C 0.6241 0.67059 0.00031 0.0
C1916 C 0.6377 0.62132 0.97592 0.0
C1917 C 0.63263 0.68573 0.00228 0.0
C1918 C 0.59362 0.57512 0.93999 0.0
C1919 C 0.60462 0.58705 0.94613 0.0
C1920 C 0.59257 0.63423 0.97353 0.0
C1921 C 0.63502 0.65648 0.98281 0.0
C1922 C 0.62489 0.6416 0.979 0.0
C1923 C 0.5948 0.59976 0.96555 0.0
C1924 C 0.60532 0.61396 0.97045 0.0
H1925 H 0.67881 0.67327 0.95778 0.0
H1926 H 0.6638 0.64691 0.95416 0.0
H1927 H 0.59195 0.66351 0.97942 0.0
H1928 H 0.54729 0.5882 0.98417 0.0
H1929 H 0.56645 0.60887 0.99492 0.0
C1930 C 0.93833 0.81448 0.7368 0.0
C1931 C 0.93959 0.80234 0.71809 0.0
C1932 C 0.92272 0.8342 0.73635 0.0
C1933 C 0.86995 0.86612 0.70973 0.0
H1934 H 0.88109 0.91084 0.73047 0.0
C1935 C 0.80797 0.94837 0.69852 0.0
C1936 C 0.80267 0.95829 0.72074 0.0
C1937 C 0.82594 0.93035 0.69703 0.0
C1938 C 0.8777 0.89847 0.72473 0.0
H1939 H 0.9261 0.80151 0.68375 0.0
H1940 H 0.89959 0.83592 0.68228 0.0
H1941 H 0.91 0.87756 0.73014 0.0
H1942 H 0.8129 0.9574 0.75829 0.0
H1943 H 0.84433 0.92615 0.7555 0.0
H1944 H 0.83776 0.88705 0.70413 0.0
C1945 C 0.91004 0.83019 0.69788 0.0
C1946 C 0.89427 0.87932 0.72464 0.0
C1947 C 0.92541 0.81047 0.69854 0.0
C1948 C 0.81643 0.9502 0.74087 0.0
C1949 C 0.83453 0.93229 0.73925 0.0
C1950 C 0.85353 0.88526 0.70958 0.0
C1951 C 0.90815 0.84226 0.71703 0.0
C1952 C 0.89064 0.86283 0.71713 0.0
C1953 C 0.83923 0.92187 0.71759 0.0
C1954 C 0.85715 0.9017 0.71709 0.0
H1955 H 0.94894 0.80852 0.75224 0.0
H1956 H 0.9217 0.84284 0.75163 0.0
H1957 H 0.86621 0.85377 0.70447 0.0
H1958 H 0.79778 0.95408 0.68264 0.0
H1959 H 0.82927 0.92287 0.67989 0.0
C1960 C 0.51471 0.17118 0.60455 0.0
C1961 C 0.49322 0.1842 0.61064 0.0
C1962 C 0.51984 0.16011 0.58363 0.0
C1963 C 0.49801 0.15457 0.52551 0.0
H1964 H 0.52839 0.09658 0.54647 0.0
C1965 C 0.48245 0.09013 0.48924 0.0
C1966 C 0.49932 0.07127 0.48824 0.0
C1967 C 0.4861 0.10635 0.497 0.0
C1968 C 0.52032 0.11277 0.53989 0.0
H1969 H 0.4607 0.19698 0.59836 0.0
H1970 H 0.4694 0.17735 0.56246 0.0
H1971 H 0.5271 0.12092 0.57369 0.0
H1972 H 0.53386 0.05527 0.49198 0.0
H1973 H 0.54024 0.08363 0.50501 0.0
H1974 H 0.49037 0.14615 0.49231 0.0
C1975 C 0.48241 0.17575 0.5736 0.0
C1976 C 0.51959 0.12678 0.55557 0.0
C1977 C 0.47731 0.1868 0.59444 0.0
C1978 C 0.5204 0.06955 0.49287 0.0
C1979 C 0.52406 0.08576 0.50049 0.0
C1980 C 0.49871 0.14053 0.50984 0.0
C1981 C 0.50357 0.16185 0.56837 0.0
C1982 C 0.50779 0.14775 0.54906 0.0
C1983 C 0.50673 0.10402 0.50375 0.0
C1984 C 0.50926 0.11939 0.51733 0.0
H1985 H 0.52734 0.16881 0.61669 0.0
H1986 H 0.53637 0.14972 0.5799 0.0
H1987 H 0.48917 0.17069 0.51966 0.0
H1988 H 0.46603 0.09192 0.48591 0.0
H1989 H 0.47233 0.12017 0.49948 0.0
C1990 C 0.46738 0.34372 0.88827 0.0
C1991 C 0.46591 0.3496 0.86093 0.0
C1992 C 0.46411 0.35841 0.90411 0.0
C1993 C 0.44239 0.41364 0.90804 0.0
H1994 H 0.49167 0.4017 0.94661 0.0
C1995 C 0.48501 0.46145 0.95198 0.0
C1996 C 0.46705 0.47316 0.9676 0.0
C1997 C 0.48331 0.44532 0.9419 0.0
C1998 C 0.47778 0.40518 0.93603 0.0
H1999 H 0.45838 0.37571 0.82918 0.0
H2000 H 0.45223 0.40139 0.85702 0.0
H2001 H 0.48966 0.37571 0.92379 0.0
H2002 H 0.43331 0.4769 0.98528 0.0
H2003 H 0.43034 0.44889 0.96732 0.0
H2004 H 0.43074 0.4433 0.91994 0.0
C2005 C 0.45601 0.38537 0.86611 0.0
C2006 C 0.47651 0.39028 0.92318 0.0
C2007 C 0.45948 0.37065 0.85018 0.0
C2008 C 0.44747 0.46818 0.9733 0.0
C2009 C 0.44569 0.45223 0.96293 0.0
C2010 C 0.44351 0.42847 0.92121 0.0
C2011 C 0.45903 0.37931 0.89301 0.0
C2012 C 0.45899 0.39447 0.90872 0.0
C2013 C 0.46355 0.44075 0.947 0.0
C2014 C 0.46142 0.42448 0.93492 0.0
H2015 H 0.47181 0.32766 0.89728 0.0
H2016 H 0.46618 0.35337 0.92491 0.0
H2017 H 0.4287 0.41722 0.89707 0.0
H2018 H 0.50031 0.46487 0.9473 0.0
H2019 H 0.49727 0.43677 0.9295 0.0
C2020 C 0.46794 0.85395 0.38906 0.0
C2021 C 0.48488 0.83496 0.39056 0.0
C2022 C 0.46327 0.86607 0.40875 0.0
C2023 C 0.49225 0.87555 0.45509 0.0
H2024 H 0.43503 0.91253 0.47771 0.0
C2025 C 0.48619 0.9393 0.51041 0.0
C2026 C 0.47239 0.95878 0.50042 0.0
C2027 C 0.4845 0.92156 0.50436 0.0
C2028 C 0.45114 0.90229 0.47159 0.0
H2029 H 0.50891 0.81298 0.41496 0.0
H2030 H 0.50078 0.83414 0.44932 0.0
H2031 H 0.43773 0.88583 0.45293 0.0
H2032 H 0.44494 0.97479 0.47769 0.0
H2033 H 0.44255 0.94413 0.46653 0.0
H2034 H 0.50584 0.89249 0.47227 0.0
C2035 C 0.4914 0.83984 0.43267 0.0
C2036 C 0.45266 0.887 0.45743 0.0
C2037 C 0.49609 0.82775 0.41299 0.0
C2038 C 0.45591 0.96005 0.48575 0.0
C2039 C 0.4544 0.94237 0.47945 0.0
C2040 C 0.49075 0.89086 0.46905 0.0
C2041 C 0.47544 0.85942 0.43034 0.0
C2042 C 0.47328 0.87376 0.44852 0.0
C2043 C 0.46916 0.92294 0.48792 0.0
C2044 C 0.47023 0.90475 0.47694 0.0
H2045 H 0.45911 0.85997 0.37195 0.0
H2046 H 0.45102 0.88116 0.40623 0.0
H2047 H 0.50841 0.86586 0.44814 0.0
H2048 H 0.49888 0.93778 0.522 0.0
H2049 H 0.4958 0.90679 0.51172 0.0
C2050 C 0.4847 0.59122 0.00345 0.0
C2051 C 0.46744 0.58318 0.01428 0.0
C2052 C 0.48675 0.60728 0.01327 0.0
C2053 C 0.49566 0.62945 0.05155 0.0
H2054 H 0.44524 0.67482 0.07225 0.0
C2055 C 0.49443 0.67757 0.12842 0.0
C2056 C 0.48203 0.69855 0.12488 0.0
C2057 C 0.49473 0.6652 0.11067 0.0
C2058 C 0.45955 0.66242 0.06622 0.0
H2059 H 0.43835 0.58625 0.04325 0.0
H2060 H 0.44199 0.61429 0.06046 0.0
H2061 H 0.44053 0.65052 0.04884 0.0
H2062 H 0.46162 0.72335 0.0989 0.0
H2063 H 0.46214 0.70171 0.06787 0.0
H2064 H 0.51463 0.64123 0.06923 0.0
C2065 C 0.45385 0.60821 0.04425 0.0
C2066 C 0.45679 0.64838 0.0531 0.0
C2067 C 0.45182 0.59208 0.03448 0.0
C2068 C 0.471 0.70715 0.10238 0.0
C2069 C 0.47128 0.69478 0.08465 0.0
C2070 C 0.49841 0.64346 0.06476 0.0
C2071 C 0.47156 0.61572 0.03405 0.0
C2072 C 0.47475 0.63157 0.04599 0.0
C2073 C 0.48263 0.67357 0.08903 0.0
C2074 C 0.48032 0.65992 0.07258 0.0
H2075 H 0.497 0.58481 0.98779 0.0
H2076 H 0.5004 0.61292 0.00478 0.0
H2077 H 0.50979 0.61655 0.0465 0.0
H2078 H 0.50291 0.67046 0.14571 0.0
H2079 H 0.50346 0.64888 0.11472 0.0
loop_
_geom_bond_atom_site_label_1
_geom_bond_atom_site_label_2
_geom_bond_distance
_geom_bond_site_symmetry_2
_ccdc_geom_bond_type
C0 Eu1 2.835 . S
C0 C2 1.500 . S
C0 O20 1.257 . S
C0 O21 1.260 . S
Eu1 C0 2.835 . S
Eu1 O20 2.473 . S
Eu1 O21 2.480 . S
Eu1 O22 2.430 1_455 S
Eu1 O23 2.670 1_455 S
Eu1 O24 2.387 1_456 S
Eu1 O29 2.355 1_546 S
Eu1 O31 2.374 1_545 S
C2 C0 1.500 . S
C2 C3 1.377 . S
C2 C7 1.377 . S
C3 C2 1.377 . S
C3 C4 1.395 . S
C3 H32 0.931 . S
C4 C3 1.395 . S
C4 C5 1.383 . S
C4 H33 0.931 . S
C5 C4 1.383 . S
C5 C6 1.394 . S
C6 C5 1.394 . S
C6 C7 1.378 . S
C6 H34 0.931 . S
C7 C2 1.377 . S
C7 C6 1.378 . S
C7 H35 0.903 1_556 S
C8 O22 1.259 . S
C8 O23 1.270 . S
C9 O24 1.261 . S
C9 O25 1.251 . S
C10 Eu11 2.835 . S
C10 C12 1.500 . S
C10 O26 1.257 . S
C10 O27 1.260 . S
Eu11 C10 2.835 . S
Eu11 O23 2.355 1_564 S
Eu11 O25 2.374 1_565 S
Eu11 O26 2.473 . S
Eu11 O27 2.480 . S
Eu11 O28 2.430 1_655 S
Eu11 O29 2.670 1_655 S
Eu11 O30 2.404 1_655 S
C12 C10 1.500 . S
C12 C13 1.377 . S
C12 C17 1.377 . S
C13 C12 1.377 . S
C13 C14 1.395 . S
C13 H36 0.931 . S
C14 C13 1.395 . S
C14 C15 1.383 . S
C14 H37 0.931 . S
C15 C14 1.383 . S
C15 C16 1.394 . S
C16 C15 1.394 . S
C16 C17 1.378 . S
C16 H38 0.931 . S
C17 C12 1.377 . S
C17 C16 1.378 . S
C17 H39 0.928 1_554 S
C18 O28 1.259 . S
C18 O29 1.270 . S
C19 O30 1.237 1_556 S
C19 O31 1.251 . S
O20 C0 1.257 . S
O20 Eu1 2.473 . S
O21 C0 1.260 . S
O21 Eu1 2.480 . S
O22 Eu1 2.430 1_655 S
O22 C8 1.259 . S
O23 Eu1 2.670 1_655 S
O23 C8 1.270 . S
O23 Eu11 2.355 1_546 S
O24 Eu1 2.387 1_654 S
O24 C9 1.261 . S
O25 C9 1.251 . S
O25 Eu11 2.374 1_545 S
O26 C10 1.257 . S
O26 Eu11 2.473 . S
O27 C10 1.260 . S
O27 Eu11 2.480 . S
O28 Eu11 2.430 1_455 S
O28 C18 1.259 . S
O29 Eu1 2.355 1_564 S
O29 Eu11 2.670 1_455 S
O29 C18 1.270 . S
O30 Eu11 2.404 1_455 S
O30 C19 1.237 1_554 S
O31 Eu1 2.374 1_565 S
O31 C19 1.251 . S
H32 C3 0.931 . S
H33 C4 0.931 . S
H34 C6 0.931 . S
H35 C7 0.903 1_554 S
H36 C13 0.931 . S
H37 C14 0.931 . S
H38 C16 0.931 . S
H39 C17 0.928 1_556 S
C40 Eu41 2.835 . S
C40 C42 1.500 1_655 S
C40 O60 1.257 1_655 S
C40 O61 1.260 . S
Eu41 C40 2.835 . S
Eu41 O60 2.473 1_655 S
Eu41 O61 2.480 . S
Eu41 O62 2.430 . S
Eu41 O63 2.670 . S
Eu41 O64 2.394 1_655 S
Eu41 O69 2.355 1_655 S
Eu41 O71 2.374 . S
C42 C40 1.500 1_455 S
C42 C43 1.377 1_455 S
C42 C47 1.377 . S
C43 C42 1.377 1_655 S
C43 C44 1.395 . S
C43 H72 0.931 . S
C44 C43 1.395 . S
C44 C45 1.383 1_655 S
C44 H73 0.931 . S
C45 C44 1.383 1_455 S
C45 C46 1.394 . S
C46 C45 1.394 . S
C46 C47 1.378 . S
C46 H74 0.931 . S
C47 C42 1.377 . S
C47 C46 1.378 . S
C47 H75 0.931 . S
C48 O62 1.259 . S
C48 O63 1.270 . S
C49 O64 1.251 . S
C49 O65 1.251 . S
C50 Eu51 2.835 . S
C50 C52 1.503 1_455 S
C50 O66 1.257 1_455 S
C50 O67 1.260 . S
Eu51 C50 2.835 . S
Eu51 O63 2.355 1_455 S
Eu51 O65 2.374 . S
Eu51 O66 2.473 1_455 S
Eu51 O67 2.480 . S
Eu51 O68 2.430 . S
Eu51 O69 2.670 . S
Eu51 O70 2.394 1_455 S
C52 C50 1.503 1_655 S
C52 C53 1.356 1_655 S
C52 C57 1.395 . S
C53 C52 1.356 1_455 S
C53 C54 1.395 . S
C53 H76 0.931 . S
C54 C53 1.395 . S
C54 C55 1.383 1_455 S
C54 H77 0.931 . S
C55 C54 1.383 1_655 S
C55 C56 1.394 . S
C56 C55 1.394 . S
C56 C57 1.378 . S
C56 H78 0.931 . S
C57 C52 1.395 . S
C57 C56 1.378 . S
C57 H79 0.931 . S
C58 O68 1.259 . S
C58 O69 1.270 . S
C59 O70 1.251 . S
C59 O71 1.251 . S
O60 C40 1.257 1_455 S
O60 Eu41 2.473 1_455 S
O61 C40 1.260 . S
O61 Eu41 2.480 . S
O62 Eu41 2.430 . S
O62 C48 1.259 . S
O63 Eu41 2.670 . S
O63 C48 1.270 . S
O63 Eu51 2.355 1_655 S
O64 Eu41 2.394 1_455 S
O64 C49 1.251 . S
O65 C49 1.251 . S
O65 Eu51 2.374 . S
O66 C50 1.257 1_655 S
O66 Eu51 2.473 1_655 S
O67 C50 1.260 . S
O67 Eu51 2.480 . S
O68 Eu51 2.430 . S
O68 C58 1.259 . S
O69 Eu41 2.355 1_455 S
O69 Eu51 2.670 . S
O69 C58 1.270 . S
O70 Eu51 2.394 1_655 S
O70 C59 1.251 . S
O71 Eu41 2.374 . S
O71 C59 1.251 . S
H72 C43 0.931 . S
H73 C44 0.931 . S
H74 C46 0.931 . S
H75 C47 0.931 . S
H76 C53 0.931 . S
H77 C54 0.931 . S
H78 C56 0.931 . S
H79 C57 0.931 . S
C80 Eu81 2.835 . S
C80 C82 1.500 . S
C80 O100 1.257 . S
C80 O101 1.260 . S
Eu81 C80 2.835 . S
Eu81 O100 2.473 . S
Eu81 O101 2.480 . S
Eu81 O102 2.430 . S
Eu81 O103 2.670 . S
Eu81 O104 2.394 . S
Eu81 O109 2.355 . S
Eu81 O111 2.374 . S
C82 C80 1.500 . S
C82 C83 1.377 . S
C82 C87 1.377 . S
C83 C82 1.377 . S
C83 C84 1.395 . S
C83 H112 0.931 . S
C84 C83 1.395 . S
C84 C85 1.383 . S
C84 H113 0.931 . S
C85 C84 1.383 . S
C85 C86 1.394 . S
C86 C85 1.394 . S
C86 C87 1.378 . S
C86 H114 0.931 . S
C87 C82 1.377 . S
C87 C86 1.378 . S
C87 H115 0.931 . S
C88 O102 1.259 . S
C88 O103 1.270 . S
C89 O104 1.251 . S
C89 O105 1.251 . S
C90 Eu91 2.835 . S
C90 C92 1.500 . S
C90 O106 1.257 . S
C90 O107 1.260 . S
Eu91 C90 2.835 . S
Eu91 O103 2.355 . S
Eu91 O105 2.374 . S
Eu91 O106 2.473 . S
Eu91 O107 2.480 . S
Eu91 O108 2.430 . S
Eu91 O109 2.670 . S
Eu91 O110 2.394 . S
C92 C90 1.500 . S
C92 C93 1.377 . S
C92 C97 1.377 . S
C93 C92 1.377 . S
C93 C94 1.395 . S
C93 H116 0.931 . S
C94 C93 1.395 . S
C94 C95 1.383 . S
C94 H117 0.931 . S
C95 C94 1.383 . S
C95 C96 1.394 . S
C96 C95 1.394 . S
C96 C97 1.378 . S
C96 H118 0.931 . S
C97 C92 1.377 . S
C97 C96 1.378 . S
C97 H119 0.931 . S
C98 O108 1.259 . S
C98 O109 1.270 . S
C99 O110 1.251 . S
C99 O111 1.251 . S
O100 C80 1.257 . S
O100 Eu81 2.473 . S
O101 C80 1.260 . S
O101 Eu81 2.480 . S
O102 Eu81 2.430 . S
O102 C88 1.259 . S
O103 Eu81 2.670 . S
O103 C88 1.270 . S
O103 Eu91 2.355 . S
O104 Eu81 2.394 . S
O104 C89 1.251 . S
O105 C89 1.251 . S
O105 Eu91 2.374 . S
O106 C90 1.257 . S
O106 Eu91 2.473 . S
O107 C90 1.260 . S
O107 Eu91 2.480 . S
O108 Eu91 2.430 . S
O108 C98 1.259 . S
O109 Eu81 2.355 . S
O109 Eu91 2.670 . S
O109 C98 1.270 . S
O110 Eu91 2.394 . S
O110 C99 1.251 . S
O111 Eu81 2.374 . S
O111 C99 1.251 . S
H112 C83 0.931 . S
H113 C84 0.931 . S
H114 C86 0.931 . S
H115 C87 0.931 . S
H116 C93 0.931 . S
H117 C94 0.931 . S
H118 C96 0.931 . S
H119 C97 0.931 . S
C120 Eu121 2.834 . S
C120 C122 1.501 1_565 S
C120 O140 1.247 1_565 S
C120 O141 1.270 . S
Eu121 C120 2.834 . S
Eu121 O140 2.473 1_565 S
Eu121 O141 2.480 . S
Eu121 O142 2.430 . S
Eu121 O143 2.670 . S
Eu121 O144 2.394 1_565 S
Eu121 O149 2.355 1_565 S
Eu121 O151 2.374 . S
C122 C120 1.501 1_545 S
C122 C123 1.377 1_545 S
C122 C127 1.377 . S
C123 C122 1.377 1_565 S
C123 C124 1.395 . S
C123 H152 0.931 . S
C124 C123 1.395 . S
C124 C125 1.383 1_565 S
C124 H153 0.931 . S
C125 C124 1.383 1_545 S
C125 C126 1.394 . S
C126 C125 1.394 . S
C126 C127 1.378 . S
C126 H154 0.931 . S
C127 C122 1.377 . S
C127 C126 1.378 . S
C127 H155 0.931 . S
C128 O142 1.259 . S
C128 O143 1.270 . S
C129 O144 1.251 . S
C129 O145 1.251 . S
C130 Eu131 2.835 . S
C130 C132 1.500 1_545 S
C130 O146 1.257 1_545 S
C130 O147 1.260 . S
Eu131 C130 2.835 . S
Eu131 O143 2.355 1_545 S
Eu131 O145 2.374 . S
Eu131 O146 2.473 1_545 S
Eu131 O147 2.480 . S
Eu131 O148 2.430 . S
Eu131 O149 2.670 . S
Eu131 O150 2.394 1_545 S
C132 C130 1.500 1_565 S
C132 C133 1.377 1_565 S
C132 C137 1.377 . S
C133 C132 1.377 1_545 S
C133 C134 1.395 . S
C133 H156 0.931 . S
C134 C133 1.395 . S
C134 C135 1.383 1_545 S
C134 H157 0.931 . S
C135 C134 1.383 1_565 S
C135 C136 1.394 . S
C136 C135 1.394 . S
C136 C137 1.378 . S
C136 H158 0.931 . S
C137 C132 1.377 . S
C137 C136 1.378 . S
C137 H159 0.931 . S
C138 O148 1.259 . S
C138 O149 1.270 . S
C139 O150 1.251 . S
C139 O151 1.251 . S
O140 C120 1.247 1_545 S
O140 Eu121 2.473 1_545 S
O141 C120 1.270 . S
O141 Eu121 2.480 . S
O142 Eu121 2.430 . S
O142 C128 1.259 . S
O143 Eu121 2.670 . S
O143 C128 1.270 . S
O143 Eu131 2.355 1_565 S
O144 Eu121 2.394 1_545 S
O144 C129 1.251 . S
O145 C129 1.251 . S
O145 Eu131 2.374 . S
O146 C130 1.257 1_565 S
O146 Eu131 2.473 1_565 S
O147 C130 1.260 . S
O147 Eu131 2.480 . S
O148 Eu131 2.430 . S
O148 C138 1.259 . S
O149 Eu121 2.355 1_545 S
O149 Eu131 2.670 . S
O149 C138 1.270 . S
O150 Eu131 2.394 1_565 S
O150 C139 1.251 . S
O151 Eu121 2.374 . S
O151 C139 1.251 . S
H152 C123 0.931 . S
H153 C124 0.931 . S
H154 C126 0.931 . S
H155 C127 0.931 . S
H156 C133 0.931 . S
H157 C134 0.931 . S
H158 C136 0.931 . S
H159 C137 0.931 . S
C160 Eu161 2.835 . S
C160 C162 1.500 . S
C160 O180 1.257 . S
C160 O181 1.260 . S
Eu161 C160 2.835 . S
Eu161 O180 2.473 . S
Eu161 O181 2.480 . S
Eu161 O182 2.430 . S
Eu161 O183 2.670 . S
Eu161 O184 2.394 . S
Eu161 O189 2.355 . S
Eu161 O191 2.374 . S
C162 C160 1.500 . S
C162 C163 1.377 . S
C162 C167 1.377 . S
C163 C162 1.377 . S
C163 C164 1.395 . S
C163 H192 0.931 . S
C164 C163 1.395 . S
C164 C165 1.383 . S
C164 H193 0.931 . S
C165 C164 1.383 . S
C165 C166 1.394 . S
C166 C165 1.394 . S
C166 C167 1.378 . S
C166 H194 0.931 . S
C167 C162 1.377 . S
C167 C166 1.378 . S
C167 H195 0.931 . S
C168 O182 1.259 . S
C168 O183 1.270 . S
C169 O184 1.251 . S
C169 O185 1.251 . S
C170 Eu171 2.835 . S
C170 C172 1.500 . S
C170 O186 1.257 . S
C170 O187 1.260 . S
Eu171 C170 2.835 . S
Eu171 O183 2.355 . S
Eu171 O185 2.374 . S
Eu171 O186 2.473 . S
Eu171 O187 2.480 . S
Eu171 O188 2.430 . S
Eu171 O189 2.670 . S
Eu171 O190 2.394 . S
C172 C170 1.500 . S
C172 C173 1.377 . S
C172 C177 1.377 . S
C173 C172 1.377 . S
C173 C174 1.395 . S
C173 H196 0.931 . S
C174 C173 1.395 . S
C174 C175 1.383 . S
C174 H197 0.931 . S
C175 C174 1.383 . S
C175 C176 1.394 . S
C176 C175 1.394 . S
C176 C177 1.378 . S
C176 H198 0.931 . S
C177 C172 1.377 . S
C177 C176 1.378 . S
C177 H199 0.931 . S
C178 O188 1.259 . S
C178 O189 1.270 . S
C179 O190 1.251 . S
C179 O191 1.251 . S
O180 C160 1.257 . S
O180 Eu161 2.473 . S
O181 C160 1.260 . S
O181 Eu161 2.480 . S
O182 Eu161 2.430 . S
O182 C168 1.259 . S
O183 Eu161 2.670 . S
O183 C168 1.270 . S
O183 Eu171 2.355 . S
O184 Eu161 2.394 . S
O184 C169 1.251 . S
O185 C169 1.251 . S
O185 Eu171 2.374 . S
O186 C170 1.257 . S
O186 Eu171 2.473 . S
O187 C170 1.260 . S
O187 Eu171 2.480 . S
O188 Eu171 2.430 . S
O188 C178 1.259 . S
O189 Eu161 2.355 . S
O189 Eu171 2.670 . S
O189 C178 1.270 . S
O190 Eu171 2.394 . S
O190 C179 1.251 . S
O191 Eu161 2.374 . S
O191 C179 1.251 . S
H192 C163 0.931 . S
H193 C164 0.931 . S
H194 C166 0.931 . S
H195 C167 0.931 . S
H196 C173 0.931 . S
H197 C174 0.931 . S
H198 C176 0.931 . S
H199 C177 0.931 . S
C200 Eu201 2.835 . S
C200 C202 1.500 . S
C200 O220 1.257 . S
C200 O221 1.260 . S
Eu201 C200 2.835 . S
Eu201 O220 2.473 . S
Eu201 O221 2.480 . S
Eu201 O222 2.430 . S
Eu201 O223 2.670 . S
Eu201 O224 2.394 . S
Eu201 O229 2.355 . S
Eu201 O231 2.374 . S
C202 C200 1.500 . S
C202 C203 1.377 . S
C202 C207 1.377 . S
C203 C202 1.377 . S
C203 C204 1.395 . S
C203 H232 0.931 . S
C204 C203 1.395 . S
C204 C205 1.383 . S
C204 H233 0.931 . S
C205 C204 1.383 . S
C205 C206 1.394 . S
C206 C205 1.394 . S
C206 C207 1.378 . S
C206 H234 0.931 . S
C207 C202 1.377 . S
C207 C206 1.378 . S
C207 H235 0.931 . S
C208 O222 1.259 . S
C208 O223 1.270 . S
C209 O224 1.251 . S
C209 O225 1.251 . S
C210 Eu211 2.835 . S
C210 C212 1.500 . S
C210 O226 1.257 . S
C210 O227 1.260 . S
Eu211 C210 2.835 . S
Eu211 O223 2.355 . S
Eu211 O225 2.374 . S
Eu211 O226 2.473 . S
Eu211 O227 2.480 . S
Eu211 O228 2.430 . S
Eu211 O229 2.670 . S
Eu211 O230 2.394 . S
C212 C210 1.500 . S
C212 C213 1.377 . S
C212 C217 1.377 . S
C213 C212 1.377 . S
C213 C214 1.395 . S
C213 H236 0.931 . S
C214 C213 1.395 . S
C214 C215 1.383 . S
C214 H237 0.931 . S
C215 C214 1.383 . S
C215 C216 1.394 . S
C216 C215 1.394 . S
C216 C217 1.378 . S
C216 H238 0.931 . S
C217 C212 1.377 . S
C217 C216 1.378 . S
C217 H239 0.931 . S
C218 O228 1.259 . S
C218 O229 1.270 . S
C219 O230 1.251 . S
C219 O231 1.251 . S
O220 C200 1.257 . S
O220 Eu201 2.473 . S
O221 C200 1.260 . S
O221 Eu201 2.480 . S
O222 Eu201 2.430 . S
O222 C208 1.259 . S
O223 Eu201 2.670 . S
O223 C208 1.270 . S
O223 Eu211 2.355 . S
O224 Eu201 2.394 . S
O224 C209 1.251 . S
O225 C209 1.251 . S
O225 Eu211 2.374 . S
O226 C210 1.257 . S
O226 Eu211 2.473 . S
O227 C210 1.260 . S
O227 Eu211 2.480 . S
O228 Eu211 2.430 . S
O228 C218 1.259 . S
O229 Eu201 2.355 . S
O229 Eu211 2.670 . S
O229 C218 1.270 . S
O230 Eu211 2.394 . S
O230 C219 1.251 . S
O231 Eu201 2.374 . S
O231 C219 1.251 . S
H232 C203 0.931 . S
H233 C204 0.931 . S
H234 C206 0.931 . S
H235 C207 0.931 . S
H236 C213 0.931 . S
H237 C214 0.931 . S
H238 C216 0.931 . S
H239 C217 0.931 . S
C240 Eu241 2.835 . S
C240 C242 1.500 . S
C240 O260 1.257 . S
C240 O261 1.260 . S
Eu241 C240 2.835 . S
Eu241 O260 2.473 . S
Eu241 O261 2.480 . S
Eu241 O262 2.430 . S
Eu241 O263 2.670 . S
Eu241 O264 2.394 . S
Eu241 O269 2.355 . S
Eu241 O271 2.374 . S
C242 C240 1.500 . S
C242 C243 1.377 . S
C242 C247 1.377 . S
C243 C242 1.377 . S
C243 C244 1.395 . S
C243 H272 0.931 . S
C244 C243 1.395 . S
C244 C245 1.383 . S
C244 H273 0.931 . S
C245 C244 1.383 . S
C245 C246 1.394 . S
C246 C245 1.394 . S
C246 C247 1.378 . S
C246 H274 0.931 . S
C247 C242 1.377 . S
C247 C246 1.378 . S
C247 H275 0.931 . S
C248 O262 1.259 . S
C248 O263 1.270 . S
C249 O264 1.251 . S
C249 O265 1.251 . S
C250 Eu251 2.835 . S
C250 C252 1.500 . S
C250 O266 1.257 . S
C250 O267 1.260 . S
Eu251 C250 2.835 . S
Eu251 O263 2.355 . S
Eu251 O265 2.374 . S
Eu251 O266 2.473 . S
Eu251 O267 2.480 . S
Eu251 O268 2.430 . S
Eu251 O269 2.670 . S
Eu251 O270 2.394 . S
C252 C250 1.500 . S
C252 C253 1.377 . S
C252 C257 1.377 . S
C253 C252 1.377 . S
C253 C254 1.395 . S
C253 H276 0.931 . S
C254 C253 1.395 . S
C254 C255 1.383 . S
C254 H277 0.931 . S
C255 C254 1.383 . S
C255 C256 1.394 . S
C256 C255 1.394 . S
C256 C257 1.378 . S
C256 H278 0.931 . S
C257 C252 1.377 . S
C257 C256 1.378 . S
C257 H279 0.931 . S
C258 O268 1.259 . S
C258 O269 1.270 . S
C259 O270 1.251 . S
C259 O271 1.251 . S
O260 C240 1.257 . S
O260 Eu241 2.473 . S
O261 C240 1.260 . S
O261 Eu241 2.480 . S
O262 Eu241 2.430 . S
O262 C248 1.259 . S
O263 Eu241 2.670 . S
O263 C248 1.270 . S
O263 Eu251 2.355 . S
O264 Eu241 2.394 . S
O264 C249 1.251 . S
O265 C249 1.251 . S
O265 Eu251 2.374 . S
O266 C250 1.257 . S
O266 Eu251 2.473 . S
O267 C250 1.260 . S
O267 Eu251 2.480 . S
O268 Eu251 2.430 . S
O268 C258 1.259 . S
O269 Eu241 2.355 . S
O269 Eu251 2.670 . S
O269 C258 1.270 . S
O270 Eu251 2.394 . S
O270 C259 1.251 . S
O271 Eu241 2.374 . S
O271 C259 1.251 . S
H272 C243 0.931 . S
H273 C244 0.931 . S
H274 C246 0.931 . S
H275 C247 0.931 . S
H276 C253 0.931 . S
H277 C254 0.931 . S
H278 C256 0.931 . S
H279 C257 0.931 . S
C280 Eu281 2.835 . S
C280 C282 1.500 . S
C280 O300 1.257 . S
C280 O301 1.260 . S
Eu281 C280 2.835 . S
Eu281 O300 2.473 . S
Eu281 O301 2.480 . S
Eu281 O302 2.430 1_455 S
Eu281 O303 2.670 1_455 S
Eu281 O304 2.394 1_455 S
Eu281 O309 2.355 . S
Eu281 O311 2.374 . S
C282 C280 1.500 . S
C282 C283 1.377 . S
C282 C287 1.377 . S
C283 C282 1.377 . S
C283 C284 1.395 . S
C283 H312 0.931 . S
C284 C283 1.395 . S
C284 C285 1.383 . S
C284 H313 0.931 . S
C285 C284 1.383 . S
C285 C286 1.394 . S
C286 C285 1.394 . S
C286 C287 1.378 . S
C286 H314 0.931 . S
C287 C282 1.377 . S
C287 C286 1.378 . S
C287 H315 0.931 . S
C288 O302 1.259 . S
C288 O303 1.270 . S
C289 O304 1.251 . S
C289 O305 1.251 . S
C290 Eu291 2.835 . S
C290 C292 1.500 . S
C290 O306 1.257 . S
C290 O307 1.260 . S
Eu291 C290 2.835 . S
Eu291 O303 2.355 . S
Eu291 O305 2.374 . S
Eu291 O306 2.473 . S
Eu291 O307 2.480 . S
Eu291 O308 2.430 1_655 S
Eu291 O309 2.670 1_655 S
Eu291 O310 2.394 1_655 S
C292 C290 1.500 . S
C292 C293 1.377 . S
C292 C297 1.377 . S
C293 C292 1.377 . S
C293 C294 1.395 . S
C293 H316 0.931 . S
C294 C293 1.395 . S
C294 C295 1.383 . S
C294 H317 0.931 . S
C295 C294 1.383 . S
C295 C296 1.394 . S
C296 C295 1.394 . S
C296 C297 1.378 . S
C296 H318 0.931 . S
C297 C292 1.377 . S
C297 C296 1.378 . S
C297 H319 0.931 . S
C298 O308 1.259 . S
C298 O309 1.270 . S
C299 O310 1.251 . S
C299 O311 1.251 . S
O300 C280 1.257 . S
O300 Eu281 2.473 . S
O301 C280 1.260 . S
O301 Eu281 2.480 . S
O302 Eu281 2.430 1_655 S
O302 C288 1.259 . S
O303 Eu281 2.670 1_655 S
O303 C288 1.270 . S
O303 Eu291 2.355 . S
O304 Eu281 2.394 1_655 S
O304 C289 1.251 . S
O305 C289 1.251 . S
O305 Eu291 2.374 . S
O306 C290 1.257 . S
O306 Eu291 2.473 . S
O307 C290 1.260 . S
O307 Eu291 2.480 . S
O308 Eu291 2.430 1_455 S
O308 C298 1.259 . S
O309 Eu281 2.355 . S
O309 Eu291 2.670 1_455 S
O309 C298 1.270 . S
O310 Eu291 2.394 1_455 S
O310 C299 1.251 . S
O311 Eu281 2.374 . S
O311 C299 1.251 . S
H312 C283 0.931 . S
H313 C284 0.931 . S
H314 C286 0.931 . S
H315 C287 0.931 . S
H316 C293 0.931 . S
H317 C294 0.931 . S
H318 C296 0.931 . S
H319 C297 0.931 . S
C320 Eu321 2.835 . S
C320 C322 1.500 . S
C320 O340 1.257 . S
C320 O341 1.260 . S
Eu321 C320 2.835 . S
Eu321 O340 2.473 . S
Eu321 O341 2.480 . S
Eu321 O342 2.430 . S
Eu321 O343 2.670 . S
Eu321 O344 2.394 1_556 S
Eu321 O349 2.355 1_556 S
Eu321 O351 2.374 . S
C322 C320 1.500 . S
C322 C323 1.377 . S
C322 C327 1.377 1_556 S
C323 C322 1.377 . S
C323 C324 1.395 . S
C323 H352 0.931 . S
C324 C323 1.395 . S
C324 C325 1.383 . S
C324 H353 0.931 . S
C325 C324 1.383 . S
C325 C326 1.394 1_556 S
C326 C325 1.394 1_554 S
C326 C327 1.378 . S
C326 H354 0.931 . S
C327 C322 1.377 1_554 S
C327 C326 1.378 . S
C327 H355 0.931 . S
C328 O342 1.259 . S
C328 O343 1.270 . S
C329 O344 1.251 . S
C329 O345 1.251 . S
C330 Eu331 2.835 . S
C330 C332 1.500 . S
C330 O346 1.257 . S
C330 O347 1.260 . S
Eu331 C330 2.835 . S
Eu331 O343 2.355 1_554 S
Eu331 O345 2.374 . S
Eu331 O346 2.473 . S
Eu331 O347 2.480 . S
Eu331 O348 2.430 . S
Eu331 O349 2.670 . S
Eu331 O350 2.394 1_554 S
C332 C330 1.500 . S
C332 C333 1.377 . S
C332 C337 1.377 1_554 S
C333 C332 1.377 . S
C333 C334 1.395 . S
C333 H356 0.931 . S
C334 C333 1.395 . S
C334 C335 1.383 . S
C334 H357 0.931 . S
C335 C334 1.383 . S
C335 C336 1.394 1_554 S
C336 C335 1.394 1_556 S
C336 C337 1.378 . S
C336 H358 0.931 . S
C337 C332 1.377 1_556 S
C337 C336 1.378 . S
C337 H359 0.931 . S
C338 O348 1.259 . S
C338 O349 1.270 . S
C339 O350 1.251 . S
C339 O351 1.251 . S
O340 C320 1.257 . S
O340 Eu321 2.473 . S
O341 C320 1.260 . S
O341 Eu321 2.480 . S
O342 Eu321 2.430 . S
O342 C328 1.259 . S
O343 Eu321 2.670 . S
O343 C328 1.270 . S
O343 Eu331 2.355 1_556 S
O344 Eu321 2.394 1_554 S
O344 C329 1.251 . S
O345 C329 1.251 . S
O345 Eu331 2.374 . S
O346 C330 1.257 . S
O346 Eu331 2.473 . S
O347 C330 1.260 . S
O347 Eu331 2.480 . S
O348 Eu331 2.430 . S
O348 C338 1.259 . S
O349 Eu321 2.355 1_554 S
O349 Eu331 2.670 . S
O349 C338 1.270 . S
O350 Eu331 2.394 1_556 S
O350 C339 1.251 . S
O351 Eu321 2.374 . S
O351 C339 1.251 . S
H352 C323 0.931 . S
H353 C324 0.931 . S
H354 C326 0.931 . S
H355 C327 0.931 . S
H356 C333 0.931 . S
H357 C334 0.931 . S
H358 C336 0.931 . S
H359 C337 0.931 . S
C360 Eu361 2.834 . S
C360 C362 1.501 1_565 S
C360 O380 1.247 1_565 S
C360 O381 1.270 . S
Eu361 C360 2.834 . S
Eu361 O380 2.473 1_565 S
Eu361 O381 2.480 . S
Eu361 O382 2.430 . S
Eu361 O383 2.670 . S
Eu361 O384 2.394 1_565 S
Eu361 O389 2.355 1_565 S
Eu361 O391 2.374 . S
C362 C360 1.501 1_545 S
C362 C363 1.377 1_545 S
C362 C367 1.377 . S
C363 C362 1.377 1_565 S
C363 C364 1.395 . S
C363 H392 0.931 . S
C364 C363 1.395 . S
C364 C365 1.383 1_565 S
C364 H393 0.931 . S
C365 C364 1.383 1_545 S
C365 C366 1.394 . S
C366 C365 1.394 . S
C366 C367 1.378 . S
C366 H394 0.931 . S
C367 C362 1.377 . S
C367 C366 1.378 . S
C367 H395 0.931 . S
C368 O382 1.259 . S
C368 O383 1.270 . S
C369 O384 1.251 . S
C369 O385 1.251 . S
C370 Eu371 2.835 . S
C370 C372 1.500 1_545 S
C370 O386 1.257 1_545 S
C370 O387 1.260 . S
Eu371 C370 2.835 . S
Eu371 O383 2.355 1_545 S
Eu371 O385 2.374 . S
Eu371 O386 2.473 1_545 S
Eu371 O387 2.480 . S
Eu371 O388 2.430 . S
Eu371 O389 2.670 . S
Eu371 O390 2.394 1_545 S
C372 C370 1.500 1_565 S
C372 C373 1.377 1_565 S
C372 C377 1.377 . S
C373 C372 1.377 1_545 S
C373 C374 1.395 . S
C373 H396 0.931 . S
C374 C373 1.395 . S
C374 C375 1.383 1_545 S
C374 H397 0.931 . S
C375 C374 1.383 1_565 S
C375 C376 1.394 . S
C376 C375 1.394 . S
C376 C377 1.378 . S
C376 H398 0.931 . S
C377 C372 1.377 . S
C377 C376 1.378 . S
C377 H399 0.931 . S
C378 O388 1.259 . S
C378 O389 1.270 . S
C379 O390 1.251 . S
C379 O391 1.251 . S
O380 C360 1.247 1_545 S
O380 Eu361 2.473 1_545 S
O381 C360 1.270 . S
O381 Eu361 2.480 . S
O382 Eu361 2.430 . S
O382 C368 1.259 . S
O383 Eu361 2.670 . S
O383 C368 1.270 . S
O383 Eu371 2.355 1_565 S
O384 Eu361 2.394 1_545 S
O384 C369 1.251 . S
O385 C369 1.251 . S
O385 Eu371 2.374 . S
O386 C370 1.257 1_565 S
O386 Eu371 2.473 1_565 S
O387 C370 1.260 . S
O387 Eu371 2.480 . S
O388 Eu371 2.430 . S
O388 C378 1.259 . S
O389 Eu361 2.355 1_545 S
O389 Eu371 2.670 . S
O389 C378 1.270 . S
O390 Eu371 2.394 1_565 S
O390 C379 1.251 . S
O391 Eu361 2.374 . S
O391 C379 1.251 . S
H392 C363 0.931 . S
H393 C364 0.931 . S
H394 C366 0.931 . S
H395 C367 0.931 . S
H396 C373 0.931 . S
H397 C374 0.931 . S
H398 C376 0.931 . S
H399 C377 0.931 . S
C400 Eu401 2.835 . S
C400 C402 1.500 . S
C400 O420 1.257 . S
C400 O421 1.260 . S
Eu401 C400 2.835 . S
Eu401 O420 2.473 . S
Eu401 O421 2.480 . S
Eu401 O422 2.430 . S
Eu401 O423 2.670 . S
Eu401 O424 2.394 . S
Eu401 O429 2.355 . S
Eu401 O431 2.374 . S
C402 C400 1.500 . S
C402 C403 1.377 . S
C402 C407 1.377 . S
C403 C402 1.377 . S
C403 C404 1.395 . S
C403 H432 0.931 . S
C404 C403 1.395 . S
C404 C405 1.383 . S
C404 H433 0.931 . S
C405 C404 1.383 . S
C405 C406 1.394 . S
C406 C405 1.394 . S
C406 C407 1.378 . S
C406 H434 0.931 . S
C407 C402 1.377 . S
C407 C406 1.378 . S
C407 H435 0.931 . S
C408 O422 1.259 . S
C408 O423 1.270 . S
C409 O424 1.251 . S
C409 O425 1.251 . S
C410 Eu411 2.835 . S
C410 C412 1.500 . S
C410 O426 1.257 . S
C410 O427 1.260 . S
Eu411 C410 2.835 . S
Eu411 O423 2.355 . S
Eu411 O425 2.374 . S
Eu411 O426 2.473 . S
Eu411 O427 2.480 . S
Eu411 O428 2.430 . S
Eu411 O429 2.670 . S
Eu411 O430 2.394 . S
C412 C410 1.500 . S
C412 C413 1.377 . S
C412 C417 1.377 . S
C413 C412 1.377 . S
C413 C414 1.395 . S
C413 H436 0.931 . S
C414 C413 1.395 . S
C414 C415 1.383 . S
C414 H437 0.931 . S
C415 C414 1.383 . S
C415 C416 1.394 . S
C416 C415 1.394 . S
C416 C417 1.378 . S
C416 H438 0.931 . S
C417 C412 1.377 . S
C417 C416 1.378 . S
C417 H439 0.931 . S
C418 O428 1.259 . S
C418 O429 1.270 . S
C419 O430 1.251 . S
C419 O431 1.251 . S
O420 C400 1.257 . S
O420 Eu401 2.473 . S
O421 C400 1.260 . S
O421 Eu401 2.480 . S
O422 Eu401 2.430 . S
O422 C408 1.259 . S
O423 Eu401 2.670 . S
O423 C408 1.270 . S
O423 Eu411 2.355 . S
O424 Eu401 2.394 . S
O424 C409 1.251 . S
O425 C409 1.251 . S
O425 Eu411 2.374 . S
O426 C410 1.257 . S
O426 Eu411 2.473 . S
O427 C410 1.260 . S
O427 Eu411 2.480 . S
O428 Eu411 2.430 . S
O428 C418 1.259 . S
O429 Eu401 2.355 . S
O429 Eu411 2.670 . S
O429 C418 1.270 . S
O430 Eu411 2.394 . S
O430 C419 1.251 . S
O431 Eu401 2.374 . S
O431 C419 1.251 . S
H432 C403 0.931 . S
H433 C404 0.931 . S
H434 C406 0.931 . S
H435 C407 0.931 . S
H436 C413 0.931 . S
H437 C414 0.931 . S
H438 C416 0.931 . S
H439 C417 0.931 . S
C440 Eu441 2.835 . S
C440 C442 1.500 1_655 S
C440 O460 1.257 1_655 S
C440 O461 1.260 . S
Eu441 C440 2.835 . S
Eu441 O460 2.473 1_655 S
Eu441 O461 2.480 . S
Eu441 O462 2.430 . S
Eu441 O463 2.670 . S
Eu441 O464 2.394 1_655 S
Eu441 O469 2.355 1_655 S
Eu441 O471 2.374 . S
C442 C440 1.500 1_455 S
C442 C443 1.377 1_455 S
C442 C447 1.377 . S
C443 C442 1.377 1_655 S
C443 C444 1.395 . S
C443 H472 0.931 . S
C444 C443 1.395 . S
C444 C445 1.383 1_655 S
C444 H473 0.931 . S
C445 C444 1.383 1_455 S
C445 C446 1.394 . S
C446 C445 1.394 . S
C446 C447 1.378 . S
C446 H474 0.931 . S
C447 C442 1.377 . S
C447 C446 1.378 . S
C447 H475 0.931 . S
C448 O462 1.259 . S
C448 O463 1.270 . S
C449 O464 1.251 . S
C449 O465 1.251 . S
C450 Eu451 2.835 . S
C450 C452 1.503 1_455 S
C450 O466 1.257 1_455 S
C450 O467 1.260 . S
Eu451 C450 2.835 . S
Eu451 O463 2.355 1_455 S
Eu451 O465 2.374 . S
Eu451 O466 2.473 1_455 S
Eu451 O467 2.480 . S
Eu451 O468 2.430 . S
Eu451 O469 2.670 . S
Eu451 O470 2.394 1_455 S
C452 C450 1.503 1_655 S
C452 C453 1.356 1_655 S
C452 C457 1.395 . S
C453 C452 1.356 1_455 S
C453 C454 1.395 . S
C453 H476 0.931 . S
C454 C453 1.395 . S
C454 C455 1.383 1_455 S
C454 H477 0.931 . S
C455 C454 1.383 1_655 S
C455 C456 1.394 . S
C456 C455 1.394 . S
C456 C457 1.378 . S
C456 H478 0.931 . S
C457 C452 1.395 . S
C457 C456 1.378 . S
C457 H479 0.931 . S
C458 O468 1.259 . S
C458 O469 1.270 . S
C459 O470 1.251 . S
C459 O471 1.251 . S
O460 C440 1.257 1_455 S
O460 Eu441 2.473 1_455 S
O461 C440 1.260 . S
O461 Eu441 2.480 . S
O462 Eu441 2.430 . S
O462 C448 1.259 . S
O463 Eu441 2.670 . S
O463 C448 1.270 . S
O463 Eu451 2.355 1_655 S
O464 Eu441 2.394 1_455 S
O464 C449 1.251 . S
O465 C449 1.251 . S
O465 Eu451 2.374 . S
O466 C450 1.257 1_655 S
O466 Eu451 2.473 1_655 S
O467 C450 1.260 . S
O467 Eu451 2.480 . S
O468 Eu451 2.430 . S
O468 C458 1.259 . S
O469 Eu441 2.355 1_455 S
O469 Eu451 2.670 . S
O469 C458 1.270 . S
O470 Eu451 2.394 1_655 S
O470 C459 1.251 . S
O471 Eu441 2.374 . S
O471 C459 1.251 . S
H472 C443 0.931 . S
H473 C444 0.931 . S
H474 C446 0.931 . S
H475 C447 0.931 . S
H476 C453 0.931 . S
H477 C454 0.931 . S
H478 C456 0.931 . S
H479 C457 0.931 . S
C480 Eu481 2.835 . S
C480 C482 1.500 . S
C480 O500 1.257 . S
C480 O501 1.260 . S
Eu481 C480 2.835 . S
Eu481 O500 2.473 . S
Eu481 O501 2.480 . S
Eu481 O502 2.430 . S
Eu481 O503 2.670 . S
Eu481 O504 2.394 . S
Eu481 O509 2.355 . S
Eu481 O511 2.374 . S
C482 C480 1.500 . S
C482 C483 1.377 . S
C482 C487 1.377 . S
C483 C482 1.377 . S
C483 C484 1.395 . S
C483 H512 0.931 . S
C484 C483 1.395 . S
C484 C485 1.383 . S
C484 H513 0.931 . S
C485 C484 1.383 . S
C485 C486 1.394 . S
C486 C485 1.394 . S
C486 C487 1.378 . S
C486 H514 0.931 . S
C487 C482 1.377 . S
C487 C486 1.378 . S
C487 H515 0.931 . S
C488 O502 1.259 . S
C488 O503 1.270 . S
C489 O504 1.251 . S
C489 O505 1.251 . S
C490 Eu491 2.835 . S
C490 C492 1.500 . S
C490 O506 1.257 . S
C490 O507 1.260 . S
Eu491 C490 2.835 . S
Eu491 O503 2.355 . S
Eu491 O505 2.374 . S
Eu491 O506 2.473 . S
Eu491 O507 2.480 . S
Eu491 O508 2.430 . S
Eu491 O509 2.670 . S
Eu491 O510 2.394 . S
C492 C490 1.500 . S
C492 C493 1.377 . S
C492 C497 1.377 . S
C493 C492 1.377 . S
C493 C494 1.395 . S
C493 H516 0.931 . S
C494 C493 1.395 . S
C494 C495 1.383 . S
C494 H517 0.931 . S
C495 C494 1.383 . S
C495 C496 1.394 . S
C496 C495 1.394 . S
C496 C497 1.378 . S
C496 H518 0.931 . S
C497 C492 1.377 . S
C497 C496 1.378 . S
C497 H519 0.931 . S
C498 O508 1.259 . S
C498 O509 1.270 . S
C499 O510 1.251 . S
C499 O511 1.251 . S
O500 C480 1.257 . S
O500 Eu481 2.473 . S
O501 C480 1.260 . S
O501 Eu481 2.480 . S
O502 Eu481 2.430 . S
O502 C488 1.259 . S
O503 Eu481 2.670 . S
O503 C488 1.270 . S
O503 Eu491 2.355 . S
O504 Eu481 2.394 . S
O504 C489 1.251 . S
O505 C489 1.251 . S
O505 Eu491 2.374 . S
O506 C490 1.257 . S
O506 Eu491 2.473 . S
O507 C490 1.260 . S
O507 Eu491 2.480 . S
O508 Eu491 2.430 . S
O508 C498 1.259 . S
O509 Eu481 2.355 . S
O509 Eu491 2.670 . S
O509 C498 1.270 . S
O510 Eu491 2.394 . S
O510 C499 1.251 . S
O511 Eu481 2.374 . S
O511 C499 1.251 . S
H512 C483 0.931 . S
H513 C484 0.931 . S
H514 C486 0.931 . S
H515 C487 0.931 . S
H516 C493 0.931 . S
H517 C494 0.931 . S
H518 C496 0.931 . S
H519 C497 0.931 . S
C520 Eu521 2.835 . S
C520 C522 1.500 . S
C520 O540 1.257 . S
C520 O541 1.260 . S
Eu521 C520 2.835 . S
Eu521 O540 2.473 . S
Eu521 O541 2.480 . S
Eu521 O542 2.430 . S
Eu521 O543 2.670 . S
Eu521 O544 2.394 1_556 S
Eu521 O549 2.355 1_556 S
Eu521 O551 2.374 . S
C522 C520 1.500 . S
C522 C523 1.377 . S
C522 C527 1.377 1_556 S
C523 C522 1.377 . S
C523 C524 1.395 . S
C523 H552 0.931 . S
C524 C523 1.395 . S
C524 C525 1.383 . S
C524 H553 0.931 . S
C525 C524 1.383 . S
C525 C526 1.394 1_556 S
C526 C525 1.394 1_554 S
C526 C527 1.378 . S
C526 H554 0.931 . S
C527 C522 1.377 1_554 S
C527 C526 1.378 . S
C527 H555 0.931 . S
C528 O542 1.259 . S
C528 O543 1.270 . S
C529 O544 1.251 . S
C529 O545 1.251 . S
C530 Eu531 2.835 . S
C530 C532 1.500 . S
C530 O546 1.257 . S
C530 O547 1.260 . S
Eu531 C530 2.835 . S
Eu531 O543 2.355 1_554 S
Eu531 O545 2.374 . S
Eu531 O546 2.473 . S
Eu531 O547 2.480 . S
Eu531 O548 2.430 . S
Eu531 O549 2.670 . S
Eu531 O550 2.394 1_554 S
C532 C530 1.500 . S
C532 C533 1.377 . S
C532 C537 1.377 1_554 S
C533 C532 1.377 . S
C533 C534 1.395 . S
C533 H556 0.931 . S
C534 C533 1.395 . S
C534 C535 1.383 . S
C534 H557 0.931 . S
C535 C534 1.383 . S
C535 C536 1.394 1_554 S
C536 C535 1.394 1_556 S
C536 C537 1.378 . S
C536 H558 0.931 . S
C537 C532 1.377 1_556 S
C537 C536 1.378 . S
C537 H559 0.931 . S
C538 O548 1.259 . S
C538 O549 1.270 . S
C539 O550 1.251 . S
C539 O551 1.251 . S
O540 C520 1.257 . S
O540 Eu521 2.473 . S
O541 C520 1.260 . S
O541 Eu521 2.480 . S
O542 Eu521 2.430 . S
O542 C528 1.259 . S
O543 Eu521 2.670 . S
O543 C528 1.270 . S
O543 Eu531 2.355 1_556 S
O544 Eu521 2.394 1_554 S
O544 C529 1.251 . S
O545 C529 1.251 . S
O545 Eu531 2.374 . S
O546 C530 1.257 . S
O546 Eu531 2.473 . S
O547 C530 1.260 . S
O547 Eu531 2.480 . S
O548 Eu531 2.430 . S
O548 C538 1.259 . S
O549 Eu521 2.355 1_554 S
O549 Eu531 2.670 . S
O549 C538 1.270 . S
O550 Eu531 2.394 1_556 S
O550 C539 1.251 . S
O551 Eu521 2.374 . S
O551 C539 1.251 . S
H552 C523 0.931 . S
H553 C524 0.931 . S
H554 C526 0.931 . S
H555 C527 0.931 . S
H556 C533 0.931 . S
H557 C534 0.931 . S
H558 C536 0.931 . S
H559 C537 0.931 . S
C560 Eu561 2.835 . S
C560 C562 1.500 . S
C560 O580 1.257 . S
C560 O581 1.260 . S
Eu561 C560 2.835 . S
Eu561 O580 2.473 . S
Eu561 O581 2.480 . S
Eu561 O582 2.430 . S
Eu561 O583 2.670 . S
Eu561 O584 2.394 . S
Eu561 O589 2.355 1_545 S
Eu561 O591 2.374 1_545 S
C562 C560 1.500 . S
C562 C563 1.377 . S
C562 C567 1.377 . S
C563 C562 1.377 . S
C563 C564 1.395 . S
C563 H592 0.931 . S
C564 C563 1.395 . S
C564 C565 1.383 . S
C564 H593 0.931 . S
C565 C564 1.383 . S
C565 C566 1.394 . S
C566 C565 1.394 . S
C566 C567 1.378 . S
C566 H594 0.931 . S
C567 C562 1.377 . S
C567 C566 1.378 . S
C567 H595 0.931 . S
C568 O582 1.259 . S
C568 O583 1.270 . S
C569 O584 1.251 . S
C569 O585 1.251 . S
C570 Eu571 2.835 . S
C570 C572 1.500 . S
C570 O586 1.257 . S
C570 O587 1.260 . S
Eu571 C570 2.835 . S
Eu571 O583 2.355 1_565 S
Eu571 O585 2.374 1_565 S
Eu571 O586 2.473 . S
Eu571 O587 2.480 . S
Eu571 O588 2.430 . S
Eu571 O589 2.670 . S
Eu571 O590 2.394 . S
C572 C570 1.500 . S
C572 C573 1.377 . S
C572 C577 1.377 . S
C573 C572 1.377 . S
C573 C574 1.395 . S
C573 H596 0.931 . S
C574 C573 1.395 . S
C574 C575 1.383 . S
C574 H597 0.931 . S
C575 C574 1.383 . S
C575 C576 1.394 . S
C576 C575 1.394 . S
C576 C577 1.378 . S
C576 H598 0.931 . S
C577 C572 1.377 . S
C577 C576 1.378 . S
C577 H599 0.931 . S
C578 O588 1.259 . S
C578 O589 1.270 . S
C579 O590 1.251 . S
C579 O591 1.251 . S
O580 C560 1.257 . S
O580 Eu561 2.473 . S
O581 C560 1.260 . S
O581 Eu561 2.480 . S
O582 Eu561 2.430 . S
O582 C568 1.259 . S
O583 Eu561 2.670 . S
O583 C568 1.270 . S
O583 Eu571 2.355 1_545 S
O584 Eu561 2.394 . S
O584 C569 1.251 . S
O585 C569 1.251 . S
O585 Eu571 2.374 1_545 S
O586 C570 1.257 . S
O586 Eu571 2.473 . S
O587 C570 1.260 . S
O587 Eu571 2.480 . S
O588 Eu571 2.430 . S
O588 C578 1.259 . S
O589 Eu561 2.355 1_565 S
O589 Eu571 2.670 . S
O589 C578 1.270 . S
O590 Eu571 2.394 . S
O590 C579 1.251 . S
O591 Eu561 2.374 1_565 S
O591 C579 1.251 . S
H592 C563 0.931 . S
H593 C564 0.931 . S
H594 C566 0.931 . S
H595 C567 0.931 . S
H596 C573 0.931 . S
H597 C574 0.931 . S
H598 C576 0.931 . S
H599 C577 0.931 . S
C600 Eu601 2.835 . S
C600 C602 1.500 . S
C600 O620 1.257 . S
C600 O621 1.260 . S
Eu601 C600 2.835 . S
Eu601 O620 2.473 . S
Eu601 O621 2.480 . S
Eu601 O622 2.430 . S
Eu601 O623 2.670 . S
Eu601 O624 2.388 1_556 S
Eu601 O629 2.355 1_556 S
Eu601 O631 2.374 . S
C602 C600 1.500 . S
C602 C603 1.377 . S
C602 C607 1.377 . S
C603 C602 1.377 . S
C603 C604 1.395 . S
C603 H632 0.931 . S
C604 C603 1.395 . S
C604 C605 1.383 . S
C604 H633 0.931 . S
C605 C604 1.383 . S
C605 C606 1.394 . S
C606 C605 1.394 . S
C606 C607 1.378 . S
C606 H634 0.931 . S
C607 C602 1.377 . S
C607 C606 1.378 . S
C607 H635 0.903 1_556 S
C608 O622 1.259 . S
C608 O623 1.270 . S
C609 O624 1.260 . S
C609 O625 1.251 . S
C610 Eu611 2.835 . S
C610 C612 1.500 . S
C610 O626 1.257 . S
C610 O627 1.260 . S
Eu611 C610 2.835 . S
Eu611 O623 2.355 1_554 S
Eu611 O625 2.374 . S
Eu611 O626 2.473 . S
Eu611 O627 2.480 . S
Eu611 O628 2.430 . S
Eu611 O629 2.670 . S
Eu611 O630 2.403 . S
C612 C610 1.500 . S
C612 C613 1.377 . S
C612 C617 1.377 . S
C613 C612 1.377 . S
C613 C614 1.395 . S
C613 H636 0.931 . S
C614 C613 1.395 . S
C614 C615 1.383 . S
C614 H637 0.931 . S
C615 C614 1.383 . S
C615 C616 1.394 . S
C616 C615 1.394 . S
C616 C617 1.378 . S
C616 H638 0.931 . S
C617 C612 1.377 . S
C617 C616 1.378 . S
C617 H639 0.928 1_554 S
C618 O628 1.259 . S
C618 O629 1.270 . S
C619 O630 1.237 1_556 S
C619 O631 1.251 . S
O620 C600 1.257 . S
O620 Eu601 2.473 . S
O621 C600 1.260 . S
O621 Eu601 2.480 . S
O622 Eu601 2.430 . S
O622 C608 1.259 . S
O623 Eu601 2.670 . S
O623 C608 1.270 . S
O623 Eu611 2.355 1_556 S
O624 Eu601 2.388 1_554 S
O624 C609 1.260 . S
O625 C609 1.251 . S
O625 Eu611 2.374 . S
O626 C610 1.257 . S
O626 Eu611 2.473 . S
O627 C610 1.260 . S
O627 Eu611 2.480 . S
O628 Eu611 2.430 . S
O628 C618 1.259 . S
O629 Eu601 2.355 1_554 S
O629 Eu611 2.670 . S
O629 C618 1.270 . S
O630 Eu611 2.403 . S
O630 C619 1.237 1_554 S
O631 Eu601 2.374 . S
O631 C619 1.251 . S
H632 C603 0.931 . S
H633 C604 0.931 . S
H634 C606 0.931 . S
H635 C607 0.903 1_554 S
H636 C613 0.931 . S
H637 C614 0.931 . S
H638 C616 0.931 . S
H639 C617 0.928 1_556 S
C640 C641 1.343 1_455 S
C640 C642 1.331 . S
C640 H665 0.952 . S
C641 C640 1.343 1_655 S
C641 C657 1.349 . S
C642 C640 1.331 . S
C642 C661 1.429 1_455 S
C642 H666 0.950 . S
C643 C660 1.574 . S
C643 C662 1.368 . S
C643 H667 0.949 . S
H644 C648 0.949 . S
C645 C646 1.349 1_655 S
C645 C647 1.327 . S
C645 H668 0.950 . S
C646 C645 1.349 1_455 S
C646 C658 1.349 . S
C647 C645 1.327 . S
C647 C663 1.429 1_655 S
C647 H669 0.950 . S
C648 H644 0.949 . S
C648 C656 1.574 . S
C648 C664 1.389 . S
H649 C657 0.950 . S
H650 C655 0.950 . S
H651 C656 0.949 . S
H652 C658 0.950 . S
H653 C659 0.950 . S
H654 C660 0.949 . S
C655 H650 0.950 . S
C655 C657 1.327 . S
C655 C661 1.429 . S
C656 C648 1.574 . S
C656 H651 0.949 . S
C656 C662 1.368 1_455 S
C657 C641 1.349 . S
C657 H649 0.950 . S
C657 C655 1.327 . S
C658 C646 1.349 . S
C658 H652 0.950 . S
C658 C659 1.327 . S
C659 H653 0.950 . S
C659 C658 1.327 . S
C659 C663 1.429 . S
C660 C643 1.574 . S
C660 H654 0.949 . S
C660 C664 1.331 1_655 S
C661 C642 1.429 1_655 S
C661 C655 1.429 . S
C661 C662 1.523 . S
C662 C643 1.368 . S
C662 C656 1.368 1_655 S
C662 C661 1.523 . S
C663 C647 1.429 1_455 S
C663 C659 1.429 . S
C663 C664 1.547 . S
C664 C648 1.389 . S
C664 C660 1.331 1_455 S
C664 C663 1.547 . S
H665 C640 0.952 . S
H666 C642 0.950 . S
H667 C643 0.949 . S
H668 C645 0.950 . S
H669 C647 0.950 . S
C670 C671 1.349 . S
C670 C672 1.327 . S
C670 H695 0.950 . S
C671 C670 1.349 . S
C671 C687 1.349 . S
C672 C670 1.327 . S
C672 C691 1.429 . S
C672 H696 0.950 . S
C673 C690 1.574 . S
C673 C692 1.368 . S
C673 H697 0.949 . S
H674 C678 0.949 . S
C675 C676 1.349 . S
C675 C677 1.327 . S
C675 H698 0.950 . S
C676 C675 1.349 . S
C676 C688 1.349 . S
C677 C675 1.327 . S
C677 C693 1.429 . S
C677 H699 0.950 . S
C678 H674 0.949 . S
C678 C686 1.574 . S
C678 C694 1.368 . S
H679 C687 0.950 . S
H680 C685 0.950 . S
H681 C686 0.949 . S
H682 C688 0.950 . S
H683 C689 0.950 . S
H684 C690 0.949 . S
C685 H680 0.950 . S
C685 C687 1.327 . S
C685 C691 1.429 . S
C686 C678 1.574 . S
C686 H681 0.949 . S
C686 C692 1.368 . S
C687 C671 1.349 . S
C687 H679 0.950 . S
C687 C685 1.327 . S
C688 C676 1.349 . S
C688 H682 0.950 . S
C688 C689 1.327 . S
C689 H683 0.950 . S
C689 C688 1.327 . S
C689 C693 1.429 . S
C690 C673 1.574 . S
C690 H684 0.949 . S
C690 C694 1.368 . S
C691 C672 1.429 . S
C691 C685 1.429 . S
C691 C692 1.523 . S
C692 C673 1.368 . S
C692 C686 1.368 . S
C692 C691 1.523 . S
C693 C677 1.429 . S
C693 C689 1.429 . S
C693 C694 1.523 . S
C694 C678 1.368 . S
C694 C690 1.368 . S
C694 C693 1.523 . S
H695 C670 0.950 . S
H696 C672 0.950 . S
H697 C673 0.949 . S
H698 C675 0.950 . S
H699 C677 0.950 . S
C700 C701 1.349 . S
C700 C702 1.327 . S
C700 H725 0.950 . S
C701 C700 1.349 . S
C701 C717 1.349 . S
C702 C700 1.327 . S
C702 C721 1.429 . S
C702 H726 0.950 . S
C703 C720 1.574 . S
C703 C722 1.368 . S
C703 H727 0.949 . S
H704 C708 0.949 . S
C705 C706 1.349 . S
C705 C707 1.327 . S
C705 H728 0.950 . S
C706 C705 1.349 . S
C706 C718 1.349 . S
C707 C705 1.327 . S
C707 C723 1.429 . S
C707 H729 0.950 . S
C708 H704 0.949 . S
C708 C716 1.574 . S
C708 C724 1.368 . S
H709 C717 0.950 . S
H710 C715 0.950 . S
H711 C716 0.949 . S
H712 C718 0.950 . S
H713 C719 0.950 . S
H714 C720 0.949 . S
C715 H710 0.950 . S
C715 C717 1.327 . S
C715 C721 1.429 . S
C716 C708 1.574 . S
C716 H711 0.949 . S
C716 C722 1.368 . S
C717 C701 1.349 . S
C717 H709 0.950 . S
C717 C715 1.327 . S
C718 C706 1.349 . S
C718 H712 0.950 . S
C718 C719 1.327 . S
C719 H713 0.950 . S
C719 C718 1.327 . S
C719 C723 1.429 . S
C720 C703 1.574 . S
C720 H714 0.949 . S
C720 C724 1.368 . S
C721 C702 1.429 . S
C721 C715 1.429 . S
C721 C722 1.523 . S
C722 C703 1.368 . S
C722 C716 1.368 . S
C722 C721 1.523 . S
C723 C707 1.429 . S
C723 C719 1.429 . S
C723 C724 1.523 . S
C724 C708 1.368 . S
C724 C720 1.368 . S
C724 C723 1.523 . S
H725 C700 0.950 . S
H726 C702 0.950 . S
H727 C703 0.949 . S
H728 C705 0.950 . S
H729 C707 0.950 . S
C730 C731 1.349 . S
C730 C732 1.327 . S
C730 H755 0.964 . S
C731 C730 1.349 . S
C731 C747 1.349 . S
C732 C730 1.327 . S
C732 C751 1.429 . S
C732 H756 0.950 . S
C733 C750 1.574 . S
C733 C752 1.368 . S
C733 H757 0.949 . S
H734 C738 0.949 . S
C735 C736 1.349 . S
C735 C737 1.327 . S
C735 H758 0.950 . S
C736 C735 1.349 . S
C736 C748 1.349 . S
C737 C735 1.327 . S
C737 C753 1.429 . S
C737 H759 0.950 1_565 S
C738 H734 0.949 . S
C738 C746 1.592 . S
C738 C754 1.368 . S
H739 C747 0.950 . S
H740 C745 0.950 . S
H741 C746 0.950 . S
H742 C748 0.950 . S
H743 C749 0.950 . S
H744 C750 0.949 . S
C745 H740 0.950 . S
C745 C747 1.327 . S
C745 C751 1.429 . S
C746 C738 1.592 . S
C746 H741 0.950 . S
C746 C752 1.350 1_565 S
C747 C731 1.349 . S
C747 H739 0.950 . S
C747 C745 1.327 . S
C748 C736 1.349 . S
C748 H742 0.950 . S
C748 C749 1.327 . S
C749 H743 0.950 . S
C749 C748 1.327 . S
C749 C753 1.429 . S
C750 C733 1.574 . S
C750 H744 0.949 . S
C750 C754 1.368 1_545 S
C751 C732 1.429 . S
C751 C745 1.429 . S
C751 C752 1.523 . S
C752 C733 1.368 . S
C752 C746 1.350 1_545 S
C752 C751 1.523 . S
C753 C737 1.429 . S
C753 C749 1.429 . S
C753 C754 1.523 . S
C754 C738 1.368 . S
C754 C750 1.368 1_565 S
C754 C753 1.523 . S
H755 C730 0.964 . S
H756 C732 0.950 . S
H757 C733 0.949 . S
H758 C735 0.950 . S
H759 C737 0.950 1_545 S
C760 C761 1.349 . S
C760 C762 1.327 . S
C760 H785 0.950 . S
C761 C760 1.349 . S
C761 C777 1.349 . S
C762 C760 1.327 . S
C762 C781 1.429 . S
C762 H786 0.950 . S
C763 C780 1.574 . S
C763 C782 1.368 1_545 S
C763 H787 0.949 . S
H764 C768 0.949 . S
C765 C766 1.349 . S
C765 C767 1.327 . S
C765 H788 0.950 . S
C766 C765 1.349 . S
C766 C778 1.335 1_545 S
C767 C765 1.327 . S
C767 C783 1.429 . S
C767 H789 0.950 . S
C768 H764 0.949 . S
C768 C776 1.574 . S
C768 C784 1.368 1_565 S
H769 C777 0.950 1_545 S
H770 C775 0.950 . S
H771 C776 0.949 . S
H772 C778 0.956 . S
H773 C779 0.950 . S
H774 C780 0.949 . S
C775 H770 0.950 . S
C775 C777 1.327 1_545 S
C775 C781 1.429 1_545 S
C776 C768 1.574 . S
C776 H771 0.949 . S
C776 C782 1.368 . S
C777 C761 1.349 . S
C777 H769 0.950 1_565 S
C777 C775 1.327 1_565 S
C778 C766 1.335 1_565 S
C778 H772 0.956 . S
C778 C779 1.335 . S
C779 H773 0.950 . S
C779 C778 1.335 . S
C779 C783 1.429 1_565 S
C780 C763 1.574 . S
C780 H774 0.949 . S
C780 C784 1.368 . S
C781 C762 1.429 . S
C781 C775 1.429 1_565 S
C781 C782 1.523 . S
C782 C763 1.368 1_565 S
C782 C776 1.368 . S
C782 C781 1.523 . S
C783 C767 1.429 . S
C783 C779 1.429 1_545 S
C783 C784 1.523 . S
C784 C768 1.368 1_545 S
C784 C780 1.368 . S
C784 C783 1.523 . S
H785 C760 0.950 . S
H786 C762 0.950 . S
H787 C763 0.949 . S
H788 C765 0.950 . S
H789 C767 0.950 . S
C790 C791 1.349 1_655 S
C790 C792 1.327 . S
C790 H815 0.950 . S
C791 C790 1.349 1_455 S
C791 C807 1.349 . S
C792 C790 1.327 . S
C792 C811 1.429 1_655 S
C792 H816 0.950 . S
C793 C810 1.574 . S
C793 C812 1.368 . S
C793 H817 0.949 . S
H794 C798 0.949 . S
C795 C796 1.349 1_455 S
C795 C797 1.327 . S
C795 H818 0.950 . S
C796 C795 1.349 1_655 S
C796 C808 1.349 . S
C797 C795 1.327 . S
C797 C813 1.429 1_455 S
C797 H819 0.950 . S
C798 H794 0.949 . S
C798 C806 1.574 . S
C798 C814 1.365 1_655 S
H799 C807 0.950 . S
H800 C805 0.950 . S
H801 C806 0.949 . S
H802 C808 0.950 . S
H803 C809 0.950 . S
H804 C810 0.949 . S
C805 H800 0.950 . S
C805 C807 1.327 . S
C805 C811 1.429 . S
C806 C798 1.574 . S
C806 H801 0.949 . S
C806 C812 1.368 1_655 S
C807 C791 1.349 . S
C807 H799 0.950 . S
C807 C805 1.327 . S
C808 C796 1.349 . S
C808 H802 0.950 . S
C808 C809 1.327 . S
C809 H803 0.950 . S
C809 C808 1.327 . S
C809 C813 1.429 . S
C810 C793 1.574 . S
C810 H804 0.949 . S
C810 C814 1.373 . S
C811 C792 1.429 1_455 S
C811 C805 1.429 . S
C811 C812 1.523 . S
C812 C793 1.368 . S
C812 C806 1.368 1_455 S
C812 C811 1.523 . S
C813 C797 1.429 1_655 S
C813 C809 1.429 . S
C813 C814 1.520 1_655 S
C814 C798 1.365 1_455 S
C814 C810 1.373 . S
C814 C813 1.520 1_455 S
H815 C790 0.950 . S
H816 C792 0.950 . S
H817 C793 0.949 . S
H818 C795 0.950 . S
H819 C797 0.950 . S
C820 C821 1.349 . S
C820 C822 1.327 . S
C820 H845 0.950 . S
C821 C820 1.349 . S
C821 C837 1.349 . S
C822 C820 1.327 . S
C822 C841 1.429 . S
C822 H846 0.950 . S
C823 C840 1.574 . S
C823 C842 1.368 . S
C823 H847 0.949 . S
H824 C828 0.949 . S
C825 C826 1.349 . S
C825 C827 1.327 . S
C825 H848 0.950 . S
C826 C825 1.349 . S
C826 C838 1.349 . S
C827 C825 1.327 . S
C827 C843 1.429 . S
C827 H849 0.950 . S
C828 H824 0.949 . S
C828 C836 1.574 . S
C828 C844 1.368 . S
H829 C837 0.950 . S
H830 C835 0.950 . S
H831 C836 0.949 . S
H832 C838 0.950 . S
H833 C839 0.950 . S
H834 C840 0.949 . S
C835 H830 0.950 . S
C835 C837 1.327 . S
C835 C841 1.429 . S
C836 C828 1.574 . S
C836 H831 0.949 . S
C836 C842 1.368 . S
C837 C821 1.349 . S
C837 H829 0.950 . S
C837 C835 1.327 . S
C838 C826 1.349 . S
C838 H832 0.950 . S
C838 C839 1.327 . S
C839 H833 0.950 . S
C839 C838 1.327 . S
C839 C843 1.429 . S
C840 C823 1.574 . S
C840 H834 0.949 . S
C840 C844 1.368 . S
C841 C822 1.429 . S
C841 C835 1.429 . S
C841 C842 1.523 . S
C842 C823 1.368 . S
C842 C836 1.368 . S
C842 C841 1.523 . S
C843 C827 1.429 . S
C843 C839 1.429 . S
C843 C844 1.523 . S
C844 C828 1.368 . S
C844 C840 1.368 . S
C844 C843 1.523 . S
H845 C820 0.950 . S
H846 C822 0.950 . S
H847 C823 0.949 . S
H848 C825 0.950 . S
H849 C827 0.950 . S
C850 C851 1.349 . S
C850 C852 1.327 . S
C850 H875 0.950 . S
C851 C850 1.349 . S
C851 C867 1.349 . S
C852 C850 1.327 . S
C852 C871 1.429 . S
C852 H876 0.950 . S
C853 C870 1.574 . S
C853 C872 1.368 . S
C853 H877 0.949 . S
H854 C858 0.949 . S
C855 C856 1.349 . S
C855 C857 1.327 . S
C855 H878 0.950 . S
C856 C855 1.349 . S
C856 C868 1.349 . S
C857 C855 1.327 . S
C857 C873 1.429 . S
C857 H879 0.950 . S
C858 H854 0.949 . S
C858 C866 1.574 . S
C858 C874 1.368 . S
H859 C867 0.950 . S
H860 C865 0.950 . S
H861 C866 0.949 . S
H862 C868 0.950 . S
H863 C869 0.950 . S
H864 C870 0.949 . S
C865 H860 0.950 . S
C865 C867 1.327 . S
C865 C871 1.429 . S
C866 C858 1.574 . S
C866 H861 0.949 . S
C866 C872 1.368 . S
C867 C851 1.349 . S
C867 H859 0.950 . S
C867 C865 1.327 . S
C868 C856 1.349 . S
C868 H862 0.950 . S
C868 C869 1.327 . S
C869 H863 0.950 . S
C869 C868 1.327 . S
C869 C873 1.429 . S
C870 C853 1.574 . S
C870 H864 0.949 . S
C870 C874 1.368 . S
C871 C852 1.429 . S
C871 C865 1.429 . S
C871 C872 1.523 . S
C872 C853 1.368 . S
C872 C866 1.368 . S
C872 C871 1.523 . S
C873 C857 1.429 . S
C873 C869 1.429 . S
C873 C874 1.523 . S
C874 C858 1.368 . S
C874 C870 1.368 . S
C874 C873 1.523 . S
H875 C850 0.950 . S
H876 C852 0.950 . S
H877 C853 0.949 . S
H878 C855 0.950 . S
H879 C857 0.950 . S
C880 C881 1.349 . S
C880 C882 1.327 . S
C880 H905 0.950 . S
C881 C880 1.349 . S
C881 C897 1.349 . S
C882 C880 1.327 . S
C882 C901 1.429 . S
C882 H906 0.950 . S
C883 C900 1.574 . S
C883 C902 1.368 . S
C883 H907 0.949 . S
H884 C888 0.949 . S
C885 C886 1.349 . S
C885 C887 1.327 . S
C885 H908 0.950 . S
C886 C885 1.349 . S
C886 C898 1.349 . S
C887 C885 1.327 . S
C887 C903 1.429 . S
C887 H909 0.950 . S
C888 H884 0.949 . S
C888 C896 1.574 . S
C888 C904 1.368 . S
H889 C897 0.950 . S
H890 C895 0.950 . S
H891 C896 0.949 . S
H892 C898 0.950 . S
H893 C899 0.950 . S
H894 C900 0.949 . S
C895 H890 0.950 . S
C895 C897 1.327 . S
C895 C901 1.429 . S
C896 C888 1.574 . S
C896 H891 0.949 . S
C896 C902 1.368 . S
C897 C881 1.349 . S
C897 H889 0.950 . S
C897 C895 1.327 . S
C898 C886 1.349 . S
C898 H892 0.950 . S
C898 C899 1.327 . S
C899 H893 0.950 . S
C899 C898 1.327 . S
C899 C903 1.429 . S
C900 C883 1.574 . S
C900 H894 0.949 . S
C900 C904 1.368 . S
C901 C882 1.429 . S
C901 C895 1.429 . S
C901 C902 1.523 . S
C902 C883 1.368 . S
C902 C896 1.368 . S
C902 C901 1.523 . S
C903 C887 1.429 . S
C903 C899 1.429 . S
C903 C904 1.523 . S
C904 C888 1.368 . S
C904 C900 1.368 . S
C904 C903 1.523 . S
H905 C880 0.950 . S
H906 C882 0.950 . S
H907 C883 0.949 . S
H908 C885 0.950 . S
H909 C887 0.950 . S
C910 C911 1.349 . S
C910 C912 1.327 . S
C910 H935 0.950 . S
C911 C910 1.349 . S
C911 C927 1.349 . S
C912 C910 1.327 . S
C912 C931 1.429 . S
C912 H936 0.950 . S
C913 C930 1.574 . S
C913 C932 1.368 . S
C913 H937 0.949 . S
H914 C918 0.949 . S
C915 C916 1.349 . S
C915 C917 1.327 . S
C915 H938 0.950 . S
C916 C915 1.349 . S
C916 C928 1.349 . S
C917 C915 1.327 . S
C917 C933 1.429 . S
C917 H939 0.950 . S
C918 H914 0.949 . S
C918 C926 1.574 . S
C918 C934 1.368 . S
H919 C927 0.950 . S
H920 C925 0.950 . S
H921 C926 0.949 . S
H922 C928 0.950 . S
H923 C929 0.950 . S
H924 C930 0.949 . S
C925 H920 0.950 . S
C925 C927 1.327 . S
C925 C931 1.429 . S
C926 C918 1.574 . S
C926 H921 0.949 . S
C926 C932 1.368 . S
C927 C911 1.349 . S
C927 H919 0.950 . S
C927 C925 1.327 . S
C928 C916 1.349 . S
C928 H922 0.950 . S
C928 C929 1.327 . S
C929 H923 0.950 . S
C929 C928 1.327 . S
C929 C933 1.429 . S
C930 C913 1.574 . S
C930 H924 0.949 . S
C930 C934 1.368 . S
C931 C912 1.429 . S
C931 C925 1.429 . S
C931 C932 1.523 . S
C932 C913 1.368 . S
C932 C926 1.368 . S
C932 C931 1.523 . S
C933 C917 1.429 . S
C933 C929 1.429 . S
C933 C934 1.523 . S
C934 C918 1.368 . S
C934 C930 1.368 . S
C934 C933 1.523 . S
H935 C910 0.950 . S
H936 C912 0.950 . S
H937 C913 0.949 . S
H938 C915 0.950 . S
H939 C917 0.950 . S
C940 C941 1.349 . S
C940 C942 1.327 . S
C940 H965 0.950 . S
C941 C940 1.349 . S
C941 C957 1.349 . S
C942 C940 1.327 . S
C942 C961 1.429 . S
C942 H966 0.950 . S
C943 C960 1.574 . S
C943 C962 1.368 1_545 S
C943 H967 0.949 . S
H944 C948 0.949 . S
C945 C946 1.349 . S
C945 C947 1.327 . S
C945 H968 0.950 . S
C946 C945 1.349 . S
C946 C958 1.349 . S
C947 C945 1.327 . S
C947 C963 1.429 . S
C947 H969 0.950 . S
C948 H944 0.949 . S
C948 C956 1.574 . S
C948 C964 1.368 1_565 S
H949 C957 0.950 . S
H950 C955 0.950 1_545 S
H951 C956 0.949 . S
H952 C958 0.950 1_565 S
H953 C959 0.948 . S
H954 C960 0.949 . S
C955 H950 0.950 1_565 S
C955 C957 1.327 . S
C955 C961 1.429 . S
C956 C948 1.574 . S
C956 H951 0.949 . S
C956 C962 1.368 . S
C957 C941 1.349 . S
C957 H949 0.950 . S
C957 C955 1.327 . S
C958 C946 1.349 . S
C958 H952 0.950 1_545 S
C958 C959 1.329 1_545 S
C959 H953 0.948 . S
C959 C958 1.329 1_565 S
C959 C963 1.429 1_565 S
C960 C943 1.574 . S
C960 H954 0.949 . S
C960 C964 1.368 . S
C961 C942 1.429 . S
C961 C955 1.429 . S
C961 C962 1.523 . S
C962 C943 1.368 1_565 S
C962 C956 1.368 . S
C962 C961 1.523 . S
C963 C947 1.429 . S
C963 C959 1.429 1_545 S
C963 C964 1.523 . S
C964 C948 1.368 1_545 S
C964 C960 1.368 . S
C964 C963 1.523 . S
H965 C940 0.950 . S
H966 C942 0.950 . S
H967 C943 0.949 . S
H968 C945 0.950 . S
H969 C947 0.950 . S
C970 C971 1.349 . S
C970 C972 1.327 . S
C970 H995 0.950 . S
C971 C970 1.349 . S
C971 C987 1.349 . S
C972 C970 1.327 . S
C972 C991 1.429 . S
C972 H996 0.950 . S
C973 C990 1.574 . S
C973 C992 1.368 1_655 S
C973 H997 0.949 . S
H974 C978 0.949 . S
C975 C976 1.349 . S
C975 C977 1.327 . S
C975 H998 0.950 . S
C976 C975 1.349 . S
C976 C988 1.349 . S
C977 C975 1.327 . S
C977 C993 1.429 . S
C977 H999 0.950 . S
C978 H974 0.949 . S
C978 C986 1.574 . S
C978 C994 1.371 . S
H979 C987 0.950 1_554 S
H980 C985 0.950 1_655 S
H981 C986 0.949 . S
H982 C988 0.950 1_455 S
H983 C989 0.950 . S
H984 C990 0.949 . S
C985 H980 0.950 1_455 S
C985 C987 1.327 . S
C985 C991 1.429 . S
C986 C978 1.574 . S
C986 H981 0.949 . S
C986 C992 1.368 . S
C987 C971 1.349 . S
C987 H979 0.950 1_556 S
C987 C985 1.327 . S
C988 C976 1.349 . S
C988 H982 0.950 1_655 S
C988 C989 1.327 1_655 S
C989 H983 0.950 . S
C989 C988 1.327 1_455 S
C989 C993 1.429 1_455 S
C990 C973 1.574 . S
C990 H984 0.949 . S
C990 C994 1.368 1_655 S
C991 C972 1.429 . S
C991 C985 1.429 . S
C991 C992 1.523 . S
C992 C973 1.368 1_455 S
C992 C986 1.368 . S
C992 C991 1.523 . S
C993 C977 1.429 . S
C993 C989 1.429 1_655 S
C993 C994 1.520 1_655 S
C994 C978 1.371 . S
C994 C990 1.368 1_455 S
C994 C993 1.520 1_455 S
H995 C970 0.950 . S
H996 C972 0.950 . S
H997 C973 0.949 . S
H998 C975 0.950 . S
H999 C977 0.950 . S
C1000 C1001 1.349 . S
C1000 C1002 1.327 . S
C1000 H1025 0.950 . S
C1001 C1000 1.349 . S
C1001 C1017 1.349 . S
C1002 C1000 1.327 . S
C1002 C1021 1.429 . S
C1002 H1026 0.950 . S
C1003 C1020 1.574 . S
C1003 C1022 1.368 . S
C1003 H1027 0.949 . S
H1004 C1008 0.949 1_554 S
C1005 C1006 1.349 . S
C1005 C1007 1.327 . S
C1005 H1028 0.950 . S
C1006 C1005 1.349 . S
C1006 C1018 1.349 1_556 S
C1007 C1005 1.327 . S
C1007 C1023 1.429 . S
C1007 H1029 0.950 . S
C1008 H1004 0.949 1_556 S
C1008 C1016 1.574 . S
C1008 C1024 1.368 . S
H1009 C1017 0.950 . S
H1010 C1015 0.950 . S
H1011 C1016 0.949 1_554 S
H1012 C1018 0.950 . S
H1013 C1019 0.935 1_554 S
H1014 C1020 0.949 . S
C1015 H1010 0.950 . S
C1015 C1017 1.327 . S
C1015 C1021 1.429 . S
C1016 C1008 1.574 . S
C1016 H1011 0.949 1_556 S
C1016 C1022 1.368 . S
C1017 C1001 1.349 . S
C1017 H1009 0.950 . S
C1017 C1015 1.327 . S
C1018 C1006 1.349 1_554 S
C1018 H1012 0.950 . S
C1018 C1019 1.319 1_554 S
C1019 H1013 0.935 1_556 S
C1019 C1018 1.319 1_556 S
C1019 C1023 1.451 . S
C1020 C1003 1.574 . S
C1020 H1014 0.949 . S
C1020 C1024 1.368 . S
C1021 C1002 1.429 . S
C1021 C1015 1.429 . S
C1021 C1022 1.523 . S
C1022 C1003 1.368 . S
C1022 C1016 1.368 . S
C1022 C1021 1.523 . S
C1023 C1007 1.429 . S
C1023 C1019 1.451 . S
C1023 C1024 1.523 . S
C1024 C1008 1.368 . S
C1024 C1020 1.368 . S
C1024 C1023 1.523 . S
H1025 C1000 0.950 . S
H1026 C1002 0.950 . S
H1027 C1003 0.949 . S
H1028 C1005 0.950 . S
H1029 C1007 0.950 . S
C1030 C1031 1.349 . S
C1030 C1032 1.327 . S
C1030 H1055 0.950 . S
C1031 C1030 1.349 . S
C1031 C1047 1.349 . S
C1032 C1030 1.327 . S
C1032 C1051 1.429 . S
C1032 H1056 0.950 . S
C1033 C1050 1.574 . S
C1033 C1052 1.368 . S
C1033 H1057 0.949 . S
H1034 C1038 0.949 . S
C1035 C1036 1.349 . S
C1035 C1037 1.327 . S
C1035 H1058 0.950 . S
C1036 C1035 1.349 . S
C1036 C1048 1.349 . S
C1037 C1035 1.327 . S
C1037 C1053 1.429 . S
C1037 H1059 0.950 . S
C1038 H1034 0.949 . S
C1038 C1046 1.574 . S
C1038 C1054 1.368 . S
H1039 C1047 0.950 . S
H1040 C1045 0.950 . S
H1041 C1046 0.949 . S
H1042 C1048 0.950 . S
H1043 C1049 0.950 . S
H1044 C1050 0.949 . S
C1045 H1040 0.950 . S
C1045 C1047 1.327 . S
C1045 C1051 1.429 . S
C1046 C1038 1.574 . S
C1046 H1041 0.949 . S
C1046 C1052 1.368 . S
C1047 C1031 1.349 . S
C1047 H1039 0.950 . S
C1047 C1045 1.327 . S
C1048 C1036 1.349 . S
C1048 H1042 0.950 . S
C1048 C1049 1.327 . S
C1049 H1043 0.950 . S
C1049 C1048 1.327 . S
C1049 C1053 1.429 . S
C1050 C1033 1.574 . S
C1050 H1044 0.949 . S
C1050 C1054 1.368 . S
C1051 C1032 1.429 . S
C1051 C1045 1.429 . S
C1051 C1052 1.523 . S
C1052 C1033 1.368 . S
C1052 C1046 1.368 . S
C1052 C1051 1.523 . S
C1053 C1037 1.429 . S
C1053 C1049 1.429 . S
C1053 C1054 1.523 . S
C1054 C1038 1.368 . S
C1054 C1050 1.368 . S
C1054 C1053 1.523 . S
H1055 C1030 0.950 . S
H1056 C1032 0.950 . S
H1057 C1033 0.949 . S
H1058 C1035 0.950 . S
H1059 C1037 0.950 . S
C1060 C1061 1.349 . S
C1060 C1062 1.327 . S
C1060 H1085 0.950 . S
C1061 C1060 1.349 . S
C1061 C1077 1.349 . S
C1062 C1060 1.327 . S
C1062 C1081 1.429 . S
C1062 H1086 0.950 . S
C1063 C1080 1.574 . S
C1063 C1082 1.368 . S
C1063 H1087 0.949 . S
H1064 C1068 0.949 . S
C1065 C1066 1.349 . S
C1065 C1067 1.327 . S
C1065 H1088 0.950 . S
C1066 C1065 1.349 . S
C1066 C1078 1.349 . S
C1067 C1065 1.327 . S
C1067 C1083 1.429 . S
C1067 H1089 0.950 . S
C1068 H1064 0.949 . S
C1068 C1076 1.574 . S
C1068 C1084 1.368 . S
H1069 C1077 0.950 . S
H1070 C1075 0.950 . S
H1071 C1076 0.949 . S
H1072 C1078 0.950 . S
H1073 C1079 0.950 . S
H1074 C1080 0.949 . S
C1075 H1070 0.950 . S
C1075 C1077 1.327 . S
C1075 C1081 1.429 . S
C1076 C1068 1.574 . S
C1076 H1071 0.949 . S
C1076 C1082 1.368 . S
C1077 C1061 1.349 . S
C1077 H1069 0.950 . S
C1077 C1075 1.327 . S
C1078 C1066 1.349 . S
C1078 H1072 0.950 . S
C1078 C1079 1.327 . S
C1079 H1073 0.950 . S
C1079 C1078 1.327 . S
C1079 C1083 1.429 . S
C1080 C1063 1.574 . S
C1080 H1074 0.949 . S
C1080 C1084 1.368 . S
C1081 C1062 1.429 . S
C1081 C1075 1.429 . S
C1081 C1082 1.523 . S
C1082 C1063 1.368 . S
C1082 C1076 1.368 . S
C1082 C1081 1.523 . S
C1083 C1067 1.429 . S
C1083 C1079 1.429 . S
C1083 C1084 1.523 . S
C1084 C1068 1.368 . S
C1084 C1080 1.368 . S
C1084 C1083 1.523 . S
H1085 C1060 0.950 . S
H1086 C1062 0.950 . S
H1087 C1063 0.949 . S
H1088 C1065 0.950 . S
H1089 C1067 0.950 . S
C1090 C1091 1.349 . S
C1090 C1092 1.327 . S
C1090 H1115 0.950 . S
C1091 C1090 1.349 . S
C1091 C1107 1.349 . S
C1092 C1090 1.327 . S
C1092 C1111 1.429 . S
C1092 H1116 0.950 . S
C1093 C1110 1.574 . S
C1093 C1112 1.368 . S
C1093 H1117 0.949 . S
H1094 C1098 0.949 . S
C1095 C1096 1.349 . S
C1095 C1097 1.327 . S
C1095 H1118 0.950 . S
C1096 C1095 1.349 . S
C1096 C1108 1.349 . S
C1097 C1095 1.327 . S
C1097 C1113 1.429 . S
C1097 H1119 0.950 . S
C1098 H1094 0.949 . S
C1098 C1106 1.574 . S
C1098 C1114 1.368 . S
H1099 C1107 0.950 . S
H1100 C1105 0.950 . S
H1101 C1106 0.949 . S
H1102 C1108 0.950 . S
H1103 C1109 0.950 . S
H1104 C1110 0.949 . S
C1105 H1100 0.950 . S
C1105 C1107 1.327 . S
C1105 C1111 1.429 . S
C1106 C1098 1.574 . S
C1106 H1101 0.949 . S
C1106 C1112 1.368 . S
C1107 C1091 1.349 . S
C1107 H1099 0.950 . S
C1107 C1105 1.327 . S
C1108 C1096 1.349 . S
C1108 H1102 0.950 . S
C1108 C1109 1.327 . S
C1109 H1103 0.950 . S
C1109 C1108 1.327 . S
C1109 C1113 1.429 . S
C1110 C1093 1.574 . S
C1110 H1104 0.949 . S
C1110 C1114 1.368 . S
C1111 C1092 1.429 . S
C1111 C1105 1.429 . S
C1111 C1112 1.523 . S
C1112 C1093 1.368 . S
C1112 C1106 1.368 . S
C1112 C1111 1.523 . S
C1113 C1097 1.429 . S
C1113 C1109 1.429 . S
C1113 C1114 1.523 . S
C1114 C1098 1.368 . S
C1114 C1110 1.368 . S
C1114 C1113 1.523 . S
H1115 C1090 0.950 . S
H1116 C1092 0.950 . S
H1117 C1093 0.949 . S
H1118 C1095 0.950 . S
H1119 C1097 0.950 . S
C1120 C1121 1.349 . S
C1120 C1122 1.327 . S
C1120 H1145 0.950 . S
C1121 C1120 1.349 . S
C1121 C1137 1.349 . S
C1122 C1120 1.327 . S
C1122 C1141 1.429 . S
C1122 H1146 0.950 . S
C1123 C1140 1.574 . S
C1123 C1142 1.368 . S
C1123 H1147 0.949 . S
H1124 C1128 0.949 . S
C1125 C1126 1.349 . S
C1125 C1127 1.327 . S
C1125 H1148 0.950 . S
C1126 C1125 1.349 . S
C1126 C1138 1.349 . S
C1127 C1125 1.327 . S
C1127 C1143 1.429 . S
C1127 H1149 0.950 . S
C1128 H1124 0.949 . S
C1128 C1136 1.574 . S
C1128 C1144 1.368 . S
H1129 C1137 0.950 . S
H1130 C1135 0.950 . S
H1131 C1136 0.949 . S
H1132 C1138 0.950 . S
H1133 C1139 0.950 . S
H1134 C1140 0.949 . S
C1135 H1130 0.950 . S
C1135 C1137 1.327 . S
C1135 C1141 1.429 . S
C1136 C1128 1.574 . S
C1136 H1131 0.949 . S
C1136 C1142 1.368 . S
C1137 C1121 1.349 . S
C1137 H1129 0.950 . S
C1137 C1135 1.327 . S
C1138 C1126 1.349 . S
C1138 H1132 0.950 . S
C1138 C1139 1.327 . S
C1139 H1133 0.950 . S
C1139 C1138 1.327 . S
C1139 C1143 1.429 . S
C1140 C1123 1.574 . S
C1140 H1134 0.949 . S
C1140 C1144 1.368 . S
C1141 C1122 1.429 . S
C1141 C1135 1.429 . S
C1141 C1142 1.523 . S
C1142 C1123 1.368 . S
C1142 C1136 1.368 . S
C1142 C1141 1.523 . S
C1143 C1127 1.429 . S
C1143 C1139 1.429 . S
C1143 C1144 1.523 . S
C1144 C1128 1.368 . S
C1144 C1140 1.368 . S
C1144 C1143 1.523 . S
H1145 C1120 0.950 . S
H1146 C1122 0.950 . S
H1147 C1123 0.949 . S
H1148 C1125 0.950 . S
H1149 C1127 0.950 . S
C1150 C1151 1.349 . S
C1150 C1152 1.327 . S
C1150 H1175 0.950 . S
C1151 C1150 1.349 . S
C1151 C1167 1.349 . S
C1152 C1150 1.327 . S
C1152 C1171 1.429 . S
C1152 H1176 0.950 . S
C1153 C1170 1.574 . S
C1153 C1172 1.368 . S
C1153 H1177 0.949 . S
H1154 C1158 0.949 . S
C1155 C1156 1.349 . S
C1155 C1157 1.327 . S
C1155 H1178 0.950 . S
C1156 C1155 1.349 . S
C1156 C1168 1.349 . S
C1157 C1155 1.327 . S
C1157 C1173 1.429 . S
C1157 H1179 0.950 . S
C1158 H1154 0.949 . S
C1158 C1166 1.574 . S
C1158 C1174 1.368 . S
H1159 C1167 0.950 . S
H1160 C1165 0.950 . S
H1161 C1166 0.949 . S
H1162 C1168 0.950 . S
H1163 C1169 0.950 . S
H1164 C1170 0.949 . S
C1165 H1160 0.950 . S
C1165 C1167 1.327 . S
C1165 C1171 1.429 . S
C1166 C1158 1.574 . S
C1166 H1161 0.949 . S
C1166 C1172 1.368 . S
C1167 C1151 1.349 . S
C1167 H1159 0.950 . S
C1167 C1165 1.327 . S
C1168 C1156 1.349 . S
C1168 H1162 0.950 . S
C1168 C1169 1.327 . S
C1169 H1163 0.950 . S
C1169 C1168 1.327 . S
C1169 C1173 1.429 . S
C1170 C1153 1.574 . S
C1170 H1164 0.949 . S
C1170 C1174 1.368 . S
C1171 C1152 1.429 . S
C1171 C1165 1.429 . S
C1171 C1172 1.523 . S
C1172 C1153 1.368 . S
C1172 C1166 1.368 . S
C1172 C1171 1.523 . S
C1173 C1157 1.429 . S
C1173 C1169 1.429 . S
C1173 C1174 1.523 . S
C1174 C1158 1.368 . S
C1174 C1170 1.368 . S
C1174 C1173 1.523 . S
H1175 C1150 0.950 . S
H1176 C1152 0.950 . S
H1177 C1153 0.949 . S
H1178 C1155 0.950 . S
H1179 C1157 0.950 . S
C1180 C1181 1.349 . S
C1180 C1182 1.327 . S
C1180 H1205 0.950 . S
C1181 C1180 1.349 . S
C1181 C1197 1.349 . S
C1182 C1180 1.327 . S
C1182 C1201 1.429 . S
C1182 H1206 0.950 . S
C1183 C1200 1.574 . S
C1183 C1202 1.368 . S
C1183 H1207 0.949 . S
H1184 C1188 0.949 . S
C1185 C1186 1.349 . S
C1185 C1187 1.327 . S
C1185 H1208 0.950 . S
C1186 C1185 1.349 . S
C1186 C1198 1.349 . S
C1187 C1185 1.327 . S
C1187 C1203 1.429 . S
C1187 H1209 0.950 . S
C1188 H1184 0.949 . S
C1188 C1196 1.574 . S
C1188 C1204 1.368 . S
H1189 C1197 0.950 . S
H1190 C1195 0.950 . S
H1191 C1196 0.949 . S
H1192 C1198 0.950 . S
H1193 C1199 0.950 . S
H1194 C1200 0.949 . S
C1195 H1190 0.950 . S
C1195 C1197 1.327 . S
C1195 C1201 1.429 . S
C1196 C1188 1.574 . S
C1196 H1191 0.949 . S
C1196 C1202 1.368 . S
C1197 C1181 1.349 . S
C1197 H1189 0.950 . S
C1197 C1195 1.327 . S
C1198 C1186 1.349 . S
C1198 H1192 0.950 . S
C1198 C1199 1.327 . S
C1199 H1193 0.950 . S
C1199 C1198 1.327 . S
C1199 C1203 1.429 . S
C1200 C1183 1.574 . S
C1200 H1194 0.949 . S
C1200 C1204 1.368 . S
C1201 C1182 1.429 . S
C1201 C1195 1.429 . S
C1201 C1202 1.523 . S
C1202 C1183 1.368 . S
C1202 C1196 1.368 . S
C1202 C1201 1.523 . S
C1203 C1187 1.429 . S
C1203 C1199 1.429 . S
C1203 C1204 1.523 . S
C1204 C1188 1.368 . S
C1204 C1200 1.368 . S
C1204 C1203 1.523 . S
H1205 C1180 0.950 . S
H1206 C1182 0.950 . S
H1207 C1183 0.949 . S
H1208 C1185 0.950 . S
H1209 C1187 0.950 . S
C1210 C1211 1.349 . S
C1210 C1212 1.327 . S
C1210 H1235 0.950 . S
C1211 C1210 1.349 . S
C1211 C1227 1.349 . S
C1212 C1210 1.327 . S
C1212 C1231 1.429 . S
C1212 H1236 0.950 . S
C1213 C1230 1.574 . S
C1213 C1232 1.368 . S
C1213 H1237 0.949 . S
H1214 C1218 0.949 . S
C1215 C1216 1.349 . S
C1215 C1217 1.327 . S
C1215 H1238 0.950 . S
C1216 C1215 1.349 . S
C1216 C1228 1.349 . S
C1217 C1215 1.327 . S
C1217 C1233 1.429 . S
C1217 H1239 0.950 . S
C1218 H1214 0.949 . S
C1218 C1226 1.574 . S
C1218 C1234 1.368 . S
H1219 C1227 0.950 . S
H1220 C1225 0.950 . S
H1221 C1226 0.949 . S
H1222 C1228 0.950 . S
H1223 C1229 0.950 . S
H1224 C1230 0.949 . S
C1225 H1220 0.950 . S
C1225 C1227 1.327 . S
C1225 C1231 1.429 . S
C1226 C1218 1.574 . S
C1226 H1221 0.949 . S
C1226 C1232 1.368 . S
C1227 C1211 1.349 . S
C1227 H1219 0.950 . S
C1227 C1225 1.327 . S
C1228 C1216 1.349 . S
C1228 H1222 0.950 . S
C1228 C1229 1.327 . S
C1229 H1223 0.950 . S
C1229 C1228 1.327 . S
C1229 C1233 1.429 . S
C1230 C1213 1.574 . S
C1230 H1224 0.949 . S
C1230 C1234 1.368 . S
C1231 C1212 1.429 . S
C1231 C1225 1.429 . S
C1231 C1232 1.523 . S
C1232 C1213 1.368 . S
C1232 C1226 1.368 . S
C1232 C1231 1.523 . S
C1233 C1217 1.429 . S
C1233 C1229 1.429 . S
C1233 C1234 1.523 . S
C1234 C1218 1.368 . S
C1234 C1230 1.368 . S
C1234 C1233 1.523 . S
H1235 C1210 0.950 . S
H1236 C1212 0.950 . S
H1237 C1213 0.949 . S
H1238 C1215 0.950 . S
H1239 C1217 0.950 . S
C1240 C1241 1.349 . S
C1240 C1242 1.327 . S
C1240 H1265 0.950 . S
C1241 C1240 1.349 . S
C1241 C1257 1.349 . S
C1242 C1240 1.327 . S
C1242 C1261 1.429 . S
C1242 H1266 0.950 . S
C1243 C1260 1.574 . S
C1243 C1262 1.368 . S
C1243 H1267 0.949 . S
H1244 C1248 0.949 . S
C1245 C1246 1.349 . S
C1245 C1247 1.327 . S
C1245 H1268 0.950 . S
C1246 C1245 1.349 . S
C1246 C1258 1.349 . S
C1247 C1245 1.327 . S
C1247 C1263 1.429 . S
C1247 H1269 0.950 . S
C1248 H1244 0.949 . S
C1248 C1256 1.574 . S
C1248 C1264 1.368 . S
H1249 C1257 0.950 . S
H1250 C1255 0.950 . S
H1251 C1256 0.949 . S
H1252 C1258 0.950 . S
H1253 C1259 0.950 . S
H1254 C1260 0.949 . S
C1255 H1250 0.950 . S
C1255 C1257 1.327 . S
C1255 C1261 1.429 . S
C1256 C1248 1.574 . S
C1256 H1251 0.949 . S
C1256 C1262 1.368 . S
C1257 C1241 1.349 . S
C1257 H1249 0.950 . S
C1257 C1255 1.327 . S
C1258 C1246 1.349 . S
C1258 H1252 0.950 . S
C1258 C1259 1.327 . S
C1259 H1253 0.950 . S
C1259 C1258 1.327 . S
C1259 C1263 1.429 . S
C1260 C1243 1.574 . S
C1260 H1254 0.949 . S
C1260 C1264 1.368 . S
C1261 C1242 1.429 . S
C1261 C1255 1.429 . S
C1261 C1262 1.523 . S
C1262 C1243 1.368 . S
C1262 C1256 1.368 . S
C1262 C1261 1.523 . S
C1263 C1247 1.429 . S
C1263 C1259 1.429 . S
C1263 C1264 1.523 . S
C1264 C1248 1.368 . S
C1264 C1260 1.368 . S
C1264 C1263 1.523 . S
H1265 C1240 0.950 . S
H1266 C1242 0.950 . S
H1267 C1243 0.949 . S
H1268 C1245 0.950 . S
H1269 C1247 0.950 . S
C1270 C1271 1.349 . S
C1270 C1272 1.327 . S
C1270 H1295 0.950 . S
C1271 C1270 1.349 . S
C1271 C1287 1.349 1_455 S
C1272 C1270 1.327 . S
C1272 C1291 1.429 . S
C1272 H1296 0.950 . S
C1273 C1290 1.574 . S
C1273 C1292 1.329 1_655 S
C1273 H1297 0.949 . S
H1274 C1278 0.949 . S
C1275 C1276 1.349 . S
C1275 C1277 1.327 . S
C1275 H1298 0.950 . S
C1276 C1275 1.349 . S
C1276 C1288 1.349 1_655 S
C1277 C1275 1.327 . S
C1277 C1293 1.429 . S
C1277 H1299 0.950 . S
C1278 H1274 0.949 . S
C1278 C1286 1.574 . S
C1278 C1294 1.368 1_455 S
H1279 C1287 0.950 . S
H1280 C1285 0.950 . S
H1281 C1286 0.949 . S
H1282 C1288 0.950 . S
H1283 C1289 0.950 . S
H1284 C1290 0.949 . S
C1285 H1280 0.950 . S
C1285 C1287 1.327 . S
C1285 C1291 1.429 1_655 S
C1286 C1278 1.574 . S
C1286 H1281 0.949 . S
C1286 C1292 1.391 . S
C1287 C1271 1.349 1_655 S
C1287 H1279 0.950 . S
C1287 C1285 1.327 . S
C1288 C1276 1.349 1_455 S
C1288 H1282 0.950 . S
C1288 C1289 1.327 . S
C1289 H1283 0.950 . S
C1289 C1288 1.327 . S
C1289 C1293 1.429 1_455 S
C1290 C1273 1.574 . S
C1290 H1284 0.949 . S
C1290 C1294 1.368 . S
C1291 C1272 1.429 . S
C1291 C1285 1.429 1_455 S
C1291 C1292 1.547 . S
C1292 C1273 1.329 1_455 S
C1292 C1286 1.391 . S
C1292 C1291 1.547 . S
C1293 C1277 1.429 . S
C1293 C1289 1.429 1_655 S
C1293 C1294 1.523 . S
C1294 C1278 1.368 1_655 S
C1294 C1290 1.368 . S
C1294 C1293 1.523 . S
H1295 C1270 0.950 . S
H1296 C1272 0.950 . S
H1297 C1273 0.949 . S
H1298 C1275 0.950 . S
H1299 C1277 0.950 . S
C1300 C1301 1.349 . S
C1300 C1302 1.327 . S
C1300 H1325 0.950 . S
C1301 C1300 1.349 . S
C1301 C1317 1.349 . S
C1302 C1300 1.327 . S
C1302 C1321 1.429 . S
C1302 H1326 0.950 . S
C1303 C1320 1.574 . S
C1303 C1322 1.368 . S
C1303 H1327 0.949 . S
H1304 C1308 0.949 . S
C1305 C1306 1.349 . S
C1305 C1307 1.327 . S
C1305 H1328 0.950 . S
C1306 C1305 1.349 . S
C1306 C1318 1.349 . S
C1307 C1305 1.327 . S
C1307 C1323 1.429 . S
C1307 H1329 0.950 . S
C1308 H1304 0.949 . S
C1308 C1316 1.574 . S
C1308 C1324 1.368 . S
H1309 C1317 0.950 . S
H1310 C1315 0.950 . S
H1311 C1316 0.949 . S
H1312 C1318 0.950 . S
H1313 C1319 0.950 . S
H1314 C1320 0.949 . S
C1315 H1310 0.950 . S
C1315 C1317 1.327 . S
C1315 C1321 1.429 . S
C1316 C1308 1.574 . S
C1316 H1311 0.949 . S
C1316 C1322 1.368 . S
C1317 C1301 1.349 . S
C1317 H1309 0.950 . S
C1317 C1315 1.327 . S
C1318 C1306 1.349 . S
C1318 H1312 0.950 . S
C1318 C1319 1.327 . S
C1319 H1313 0.950 . S
C1319 C1318 1.327 . S
C1319 C1323 1.429 . S
C1320 C1303 1.574 . S
C1320 H1314 0.949 . S
C1320 C1324 1.368 . S
C1321 C1302 1.429 . S
C1321 C1315 1.429 . S
C1321 C1322 1.523 . S
C1322 C1303 1.368 . S
C1322 C1316 1.368 . S
C1322 C1321 1.523 . S
C1323 C1307 1.429 . S
C1323 C1319 1.429 . S
C1323 C1324 1.523 . S
C1324 C1308 1.368 . S
C1324 C1320 1.368 . S
C1324 C1323 1.523 . S
H1325 C1300 0.950 . S
H1326 C1302 0.950 . S
H1327 C1303 0.949 . S
H1328 C1305 0.950 . S
H1329 C1307 0.950 . S
C1330 C1331 1.349 . S
C1330 C1332 1.327 . S
C1330 H1355 0.950 . S
C1331 C1330 1.349 . S
C1331 C1347 1.349 . S
C1332 C1330 1.327 . S
C1332 C1351 1.429 . S
C1332 H1356 0.950 . S
C1333 C1350 1.574 . S
C1333 C1352 1.368 . S
C1333 H1357 0.949 . S
H1334 C1338 0.949 . S
C1335 C1336 1.349 . S
C1335 C1337 1.327 . S
C1335 H1358 0.950 . S
C1336 C1335 1.349 . S
C1336 C1348 1.349 . S
C1337 C1335 1.327 . S
C1337 C1353 1.429 . S
C1337 H1359 0.950 . S
C1338 H1334 0.949 . S
C1338 C1346 1.574 . S
C1338 C1354 1.368 . S
H1339 C1347 0.950 . S
H1340 C1345 0.950 . S
H1341 C1346 0.949 . S
H1342 C1348 0.950 . S
H1343 C1349 0.950 . S
H1344 C1350 0.949 . S
C1345 H1340 0.950 . S
C1345 C1347 1.327 . S
C1345 C1351 1.429 . S
C1346 C1338 1.574 . S
C1346 H1341 0.949 . S
C1346 C1352 1.368 . S
C1347 C1331 1.349 . S
C1347 H1339 0.950 . S
C1347 C1345 1.327 . S
C1348 C1336 1.349 . S
C1348 H1342 0.950 . S
C1348 C1349 1.327 . S
C1349 H1343 0.950 . S
C1349 C1348 1.327 . S
C1349 C1353 1.429 . S
C1350 C1333 1.574 . S
C1350 H1344 0.949 . S
C1350 C1354 1.368 . S
C1351 C1332 1.429 . S
C1351 C1345 1.429 . S
C1351 C1352 1.523 . S
C1352 C1333 1.368 . S
C1352 C1346 1.368 . S
C1352 C1351 1.523 . S
C1353 C1337 1.429 . S
C1353 C1349 1.429 . S
C1353 C1354 1.523 . S
C1354 C1338 1.368 . S
C1354 C1350 1.368 . S
C1354 C1353 1.523 . S
H1355 C1330 0.950 . S
H1356 C1332 0.950 . S
H1357 C1333 0.949 . S
H1358 C1335 0.950 . S
H1359 C1337 0.950 . S
C1360 C1361 1.349 . S
C1360 C1362 1.327 . S
C1360 H1385 0.950 . S
C1361 C1360 1.349 . S
C1361 C1377 1.349 . S
C1362 C1360 1.327 . S
C1362 C1381 1.429 . S
C1362 H1386 0.950 . S
C1363 C1380 1.574 . S
C1363 C1382 1.368 . S
C1363 H1387 0.949 . S
H1364 C1368 0.949 . S
C1365 C1366 1.349 . S
C1365 C1367 1.327 . S
C1365 H1388 0.950 . S
C1366 C1365 1.349 . S
C1366 C1378 1.349 . S
C1367 C1365 1.327 . S
C1367 C1383 1.429 . S
C1367 H1389 0.950 . S
C1368 H1364 0.949 . S
C1368 C1376 1.574 . S
C1368 C1384 1.368 . S
H1369 C1377 0.950 . S
H1370 C1375 0.950 . S
H1371 C1376 0.949 . S
H1372 C1378 0.950 . S
H1373 C1379 0.950 . S
H1374 C1380 0.949 . S
C1375 H1370 0.950 . S
C1375 C1377 1.327 . S
C1375 C1381 1.429 . S
C1376 C1368 1.574 . S
C1376 H1371 0.949 . S
C1376 C1382 1.368 . S
C1377 C1361 1.349 . S
C1377 H1369 0.950 . S
C1377 C1375 1.327 . S
C1378 C1366 1.349 . S
C1378 H1372 0.950 . S
C1378 C1379 1.327 . S
C1379 H1373 0.950 . S
C1379 C1378 1.327 . S
C1379 C1383 1.429 . S
C1380 C1363 1.574 . S
C1380 H1374 0.949 . S
C1380 C1384 1.368 . S
C1381 C1362 1.429 . S
C1381 C1375 1.429 . S
C1381 C1382 1.523 . S
C1382 C1363 1.368 . S
C1382 C1376 1.368 . S
C1382 C1381 1.523 . S
C1383 C1367 1.429 . S
C1383 C1379 1.429 . S
C1383 C1384 1.523 . S
C1384 C1368 1.368 . S
C1384 C1380 1.368 . S
C1384 C1383 1.523 . S
H1385 C1360 0.950 . S
H1386 C1362 0.950 . S
H1387 C1363 0.949 . S
H1388 C1365 0.950 . S
H1389 C1367 0.950 . S
C1390 C1391 1.349 . S
C1390 C1392 1.327 . S
C1390 H1415 0.950 . S
C1391 C1390 1.349 . S
C1391 C1407 1.349 . S
C1392 C1390 1.327 . S
C1392 C1411 1.429 . S
C1392 H1416 0.950 . S
C1393 C1410 1.574 . S
C1393 C1412 1.368 . S
C1393 H1417 0.949 . S
H1394 C1398 0.949 . S
C1395 C1396 1.349 . S
C1395 C1397 1.327 . S
C1395 H1418 0.950 . S
C1396 C1395 1.349 . S
C1396 C1408 1.349 . S
C1397 C1395 1.327 . S
C1397 C1413 1.429 . S
C1397 H1419 0.950 . S
C1398 H1394 0.949 . S
C1398 C1406 1.574 . S
C1398 C1414 1.368 . S
H1399 C1407 0.950 . S
H1400 C1405 0.950 . S
H1401 C1406 0.949 . S
H1402 C1408 0.950 . S
H1403 C1409 0.950 . S
H1404 C1410 0.949 . S
C1405 H1400 0.950 . S
C1405 C1407 1.327 . S
C1405 C1411 1.429 . S
C1406 C1398 1.574 . S
C1406 H1401 0.949 . S
C1406 C1412 1.368 . S
C1407 C1391 1.349 . S
C1407 H1399 0.950 . S
C1407 C1405 1.327 . S
C1408 C1396 1.349 . S
C1408 H1402 0.950 . S
C1408 C1409 1.327 . S
C1409 H1403 0.950 . S
C1409 C1408 1.327 . S
C1409 C1413 1.429 . S
C1410 C1393 1.574 . S
C1410 H1404 0.949 . S
C1410 C1414 1.368 . S
C1411 C1392 1.429 . S
C1411 C1405 1.429 . S
C1411 C1412 1.523 . S
C1412 C1393 1.368 . S
C1412 C1406 1.368 . S
C1412 C1411 1.523 . S
C1413 C1397 1.429 . S
C1413 C1409 1.429 . S
C1413 C1414 1.523 . S
C1414 C1398 1.368 . S
C1414 C1410 1.368 . S
C1414 C1413 1.523 . S
H1415 C1390 0.950 . S
H1416 C1392 0.950 . S
H1417 C1393 0.949 . S
H1418 C1395 0.950 . S
H1419 C1397 0.950 . S
C1420 C1421 1.349 . S
C1420 C1422 1.327 . S
C1420 H1445 0.950 . S
C1421 C1420 1.349 . S
C1421 C1437 1.360 . S
C1422 C1420 1.327 . S
C1422 C1441 1.429 . S
C1422 H1446 0.950 . S
C1423 C1440 1.574 . S
C1423 C1442 1.368 1_545 S
C1423 H1447 0.949 . S
H1424 C1428 0.949 . S
C1425 C1426 1.349 . S
C1425 C1427 1.327 . S
C1425 H1448 0.950 . S
C1426 C1425 1.349 . S
C1426 C1438 1.349 . S
C1427 C1425 1.327 . S
C1427 C1443 1.429 . S
C1427 H1449 0.950 . S
C1428 H1424 0.949 . S
C1428 C1436 1.574 . S
C1428 C1444 1.368 1_565 S
H1429 C1437 0.946 1_545 S
H1430 C1435 0.950 . S
H1431 C1436 0.949 . S
H1432 C1438 0.950 1_565 S
H1433 C1439 0.911 1_565 S
H1434 C1440 0.949 . S
C1435 H1430 0.950 . S
C1435 C1437 1.320 1_545 S
C1435 C1441 1.429 1_545 S
C1436 C1428 1.574 . S
C1436 H1431 0.949 . S
C1436 C1442 1.368 . S
C1437 C1421 1.360 . S
C1437 H1429 0.946 1_565 S
C1437 C1435 1.320 1_565 S
C1438 C1426 1.349 . S
C1438 H1432 0.950 1_545 S
C1438 C1439 1.353 . S
C1439 H1433 0.911 1_545 S
C1439 C1438 1.353 . S
C1439 C1443 1.442 . S
C1440 C1423 1.574 . S
C1440 H1434 0.949 . S
C1440 C1444 1.368 . S
C1441 C1422 1.429 . S
C1441 C1435 1.429 1_565 S
C1441 C1442 1.523 . S
C1442 C1423 1.368 1_565 S
C1442 C1436 1.368 . S
C1442 C1441 1.523 . S
C1443 C1427 1.429 . S
C1443 C1439 1.442 . S
C1443 C1444 1.523 . S
C1444 C1428 1.368 1_545 S
C1444 C1440 1.368 . S
C1444 C1443 1.523 . S
H1445 C1420 0.950 . S
H1446 C1422 0.950 . S
H1447 C1423 0.949 . S
H1448 C1425 0.950 . S
H1449 C1427 0.950 . S
C1450 C1451 1.349 . S
C1450 C1452 1.327 . S
C1450 H1475 0.960 . S
C1451 C1450 1.349 . S
C1451 C1467 1.349 . S
C1452 C1450 1.327 . S
C1452 C1471 1.429 . S
C1452 H1476 0.950 . S
C1453 C1470 1.574 . S
C1453 C1472 1.368 . S
C1453 H1477 0.949 . S
H1454 C1458 0.949 . S
C1455 C1456 1.349 . S
C1455 C1457 1.327 . S
C1455 H1478 0.950 . S
C1456 C1455 1.349 . S
C1456 C1468 1.349 . S
C1457 C1455 1.327 . S
C1457 C1473 1.429 . S
C1457 H1479 0.950 . S
C1458 H1454 0.949 . S
C1458 C1466 1.574 . S
C1458 C1474 1.368 . S
H1459 C1467 0.950 . S
H1460 C1465 0.950 . S
H1461 C1466 0.949 . S
H1462 C1468 0.950 . S
H1463 C1469 0.950 . S
H1464 C1470 0.949 . S
C1465 H1460 0.950 . S
C1465 C1467 1.327 . S
C1465 C1471 1.429 . S
C1466 C1458 1.574 . S
C1466 H1461 0.949 . S
C1466 C1472 1.368 . S
C1467 C1451 1.349 . S
C1467 H1459 0.950 . S
C1467 C1465 1.327 . S
C1468 C1456 1.349 . S
C1468 H1462 0.950 . S
C1468 C1469 1.327 . S
C1469 H1463 0.950 . S
C1469 C1468 1.327 . S
C1469 C1473 1.429 . S
C1470 C1453 1.574 . S
C1470 H1464 0.949 . S
C1470 C1474 1.368 . S
C1471 C1452 1.429 . S
C1471 C1465 1.429 . S
C1471 C1472 1.523 . S
C1472 C1453 1.368 . S
C1472 C1466 1.368 . S
C1472 C1471 1.523 . S
C1473 C1457 1.429 . S
C1473 C1469 1.429 . S
C1473 C1474 1.523 . S
C1474 C1458 1.368 . S
C1474 C1470 1.368 . S
C1474 C1473 1.523 . S
H1475 C1450 0.960 . S
H1476 C1452 0.950 . S
H1477 C1453 0.949 . S
H1478 C1455 0.950 . S
H1479 C1457 0.950 . S
C1480 C1481 1.349 . S
C1480 C1482 1.327 . S
C1480 H1505 0.950 . S
C1481 C1480 1.349 . S
C1481 C1497 1.349 . S
C1482 C1480 1.327 . S
C1482 C1501 1.429 . S
C1482 H1506 0.950 . S
C1483 C1500 1.574 . S
C1483 C1502 1.368 . S
C1483 H1507 0.949 . S
H1484 C1488 0.949 . S
C1485 C1486 1.349 . S
C1485 C1487 1.327 . S
C1485 H1508 0.950 . S
C1486 C1485 1.349 . S
C1486 C1498 1.349 . S
C1487 C1485 1.327 . S
C1487 C1503 1.429 . S
C1487 H1509 0.950 . S
C1488 H1484 0.949 . S
C1488 C1496 1.574 . S
C1488 C1504 1.368 . S
H1489 C1497 0.950 . S
H1490 C1495 0.950 . S
H1491 C1496 0.949 . S
H1492 C1498 0.950 . S
H1493 C1499 0.950 . S
H1494 C1500 0.949 . S
C1495 H1490 0.950 . S
C1495 C1497 1.327 . S
C1495 C1501 1.429 . S
C1496 C1488 1.574 . S
C1496 H1491 0.949 . S
C1496 C1502 1.368 . S
C1497 C1481 1.349 . S
C1497 H1489 0.950 . S
C1497 C1495 1.327 . S
C1498 C1486 1.349 . S
C1498 H1492 0.950 . S
C1498 C1499 1.327 . S
C1499 H1493 0.950 . S
C1499 C1498 1.327 . S
C1499 C1503 1.429 . S
C1500 C1483 1.574 . S
C1500 H1494 0.949 . S
C1500 C1504 1.368 . S
C1501 C1482 1.429 . S
C1501 C1495 1.429 . S
C1501 C1502 1.523 . S
C1502 C1483 1.368 . S
C1502 C1496 1.368 . S
C1502 C1501 1.523 . S
C1503 C1487 1.429 . S
C1503 C1499 1.429 . S
C1503 C1504 1.523 . S
C1504 C1488 1.368 . S
C1504 C1500 1.368 . S
C1504 C1503 1.523 . S
H1505 C1480 0.950 . S
H1506 C1482 0.950 . S
H1507 C1483 0.949 . S
H1508 C1485 0.950 . S
H1509 C1487 0.950 . S
C1510 C1511 1.349 . S
C1510 C1512 1.327 . S
C1510 H1535 0.950 . S
C1511 C1510 1.349 . S
C1511 C1527 1.349 . S
C1512 C1510 1.327 . S
C1512 C1531 1.429 . S
C1512 H1536 0.950 . S
C1513 C1530 1.574 . S
C1513 C1532 1.368 . S
C1513 H1537 0.949 . S
H1514 C1518 0.949 . S
C1515 C1516 1.349 . S
C1515 C1517 1.327 . S
C1515 H1538 0.950 . S
C1516 C1515 1.349 . S
C1516 C1528 1.349 . S
C1517 C1515 1.327 . S
C1517 C1533 1.429 . S
C1517 H1539 0.950 . S
C1518 H1514 0.949 . S
C1518 C1526 1.574 . S
C1518 C1534 1.368 . S
H1519 C1527 0.950 . S
H1520 C1525 0.950 . S
H1521 C1526 0.949 . S
H1522 C1528 0.950 . S
H1523 C1529 0.950 . S
H1524 C1530 0.949 . S
C1525 H1520 0.950 . S
C1525 C1527 1.327 . S
C1525 C1531 1.429 . S
C1526 C1518 1.574 . S
C1526 H1521 0.949 . S
C1526 C1532 1.368 . S
C1527 C1511 1.349 . S
C1527 H1519 0.950 . S
C1527 C1525 1.327 . S
C1528 C1516 1.349 . S
C1528 H1522 0.950 . S
C1528 C1529 1.327 . S
C1529 H1523 0.950 . S
C1529 C1528 1.327 . S
C1529 C1533 1.429 . S
C1530 C1513 1.574 . S
C1530 H1524 0.949 . S
C1530 C1534 1.368 . S
C1531 C1512 1.429 . S
C1531 C1525 1.429 . S
C1531 C1532 1.523 . S
C1532 C1513 1.368 . S
C1532 C1526 1.368 . S
C1532 C1531 1.523 . S
C1533 C1517 1.429 . S
C1533 C1529 1.429 . S
C1533 C1534 1.523 . S
C1534 C1518 1.368 . S
C1534 C1530 1.368 . S
C1534 C1533 1.523 . S
H1535 C1510 0.950 . S
H1536 C1512 0.950 . S
H1537 C1513 0.949 . S
H1538 C1515 0.950 . S
H1539 C1517 0.950 . S
C1540 C1541 1.349 . S
C1540 C1542 1.327 . S
C1540 H1565 0.950 . S
C1541 C1540 1.349 . S
C1541 C1557 1.349 . S
C1542 C1540 1.327 . S
C1542 C1561 1.429 . S
C1542 H1566 0.950 . S
C1543 C1560 1.574 . S
C1543 C1562 1.368 . S
C1543 H1567 0.949 . S
H1544 C1548 0.949 . S
C1545 C1546 1.349 . S
C1545 C1547 1.327 . S
C1545 H1568 0.950 . S
C1546 C1545 1.349 . S
C1546 C1558 1.349 . S
C1547 C1545 1.327 . S
C1547 C1563 1.429 . S
C1547 H1569 0.950 . S
C1548 H1544 0.949 . S
C1548 C1556 1.574 . S
C1548 C1564 1.368 . S
H1549 C1557 0.950 . S
H1550 C1555 0.950 . S
H1551 C1556 0.949 . S
H1552 C1558 0.950 . S
H1553 C1559 0.950 . S
H1554 C1560 0.949 . S
C1555 H1550 0.950 . S
C1555 C1557 1.327 . S
C1555 C1561 1.429 . S
C1556 C1548 1.574 . S
C1556 H1551 0.949 . S
C1556 C1562 1.368 . S
C1557 C1541 1.349 . S
C1557 H1549 0.950 . S
C1557 C1555 1.327 . S
C1558 C1546 1.349 . S
C1558 H1552 0.950 . S
C1558 C1559 1.327 . S
C1559 H1553 0.950 . S
C1559 C1558 1.327 . S
C1559 C1563 1.429 . S
C1560 C1543 1.574 . S
C1560 H1554 0.949 . S
C1560 C1564 1.368 . S
C1561 C1542 1.429 . S
C1561 C1555 1.429 . S
C1561 C1562 1.523 . S
C1562 C1543 1.368 . S
C1562 C1556 1.368 . S
C1562 C1561 1.523 . S
C1563 C1547 1.429 . S
C1563 C1559 1.429 . S
C1563 C1564 1.523 . S
C1564 C1548 1.368 . S
C1564 C1560 1.368 . S
C1564 C1563 1.523 . S
H1565 C1540 0.950 . S
H1566 C1542 0.950 . S
H1567 C1543 0.949 . S
H1568 C1545 0.950 . S
H1569 C1547 0.950 . S
C1570 C1571 1.349 . S
C1570 C1572 1.327 . S
C1570 H1595 0.950 . S
C1571 C1570 1.349 . S
C1571 C1587 1.349 . S
C1572 C1570 1.327 . S
C1572 C1591 1.429 . S
C1572 H1596 0.950 . S
C1573 C1590 1.574 . S
C1573 C1592 1.368 . S
C1573 H1597 0.949 . S
H1574 C1578 0.949 . S
C1575 C1576 1.349 . S
C1575 C1577 1.327 . S
C1575 H1598 0.950 . S
C1576 C1575 1.349 . S
C1576 C1588 1.349 . S
C1577 C1575 1.327 . S
C1577 C1593 1.429 . S
C1577 H1599 0.950 . S
C1578 H1574 0.949 . S
C1578 C1586 1.574 . S
C1578 C1594 1.368 . S
H1579 C1587 0.950 . S
H1580 C1585 0.950 . S
H1581 C1586 0.949 . S
H1582 C1588 0.950 . S
H1583 C1589 0.950 . S
H1584 C1590 0.949 . S
C1585 H1580 0.950 . S
C1585 C1587 1.327 . S
C1585 C1591 1.429 . S
C1586 C1578 1.574 . S
C1586 H1581 0.949 . S
C1586 C1592 1.368 . S
C1587 C1571 1.349 . S
C1587 H1579 0.950 . S
C1587 C1585 1.327 . S
C1588 C1576 1.349 . S
C1588 H1582 0.950 . S
C1588 C1589 1.327 . S
C1589 H1583 0.950 . S
C1589 C1588 1.327 . S
C1589 C1593 1.429 . S
C1590 C1573 1.574 . S
C1590 H1584 0.949 . S
C1590 C1594 1.368 . S
C1591 C1572 1.429 . S
C1591 C1585 1.429 . S
C1591 C1592 1.523 . S
C1592 C1573 1.368 . S
C1592 C1586 1.368 . S
C1592 C1591 1.523 . S
C1593 C1577 1.429 . S
C1593 C1589 1.429 . S
C1593 C1594 1.523 . S
C1594 C1578 1.368 . S
C1594 C1590 1.368 . S
C1594 C1593 1.523 . S
H1595 C1570 0.950 . S
H1596 C1572 0.950 . S
H1597 C1573 0.949 . S
H1598 C1575 0.950 . S
H1599 C1577 0.950 . S
C1600 C1601 1.349 . S
C1600 C1602 1.327 . S
C1600 H1625 0.950 . S
C1601 C1600 1.349 . S
C1601 C1617 1.349 . S
C1602 C1600 1.327 . S
C1602 C1621 1.429 . S
C1602 H1626 0.950 . S
C1603 C1620 1.574 . S
C1603 C1622 1.368 . S
C1603 H1627 0.949 . S
H1604 C1608 0.949 . S
C1605 C1606 1.349 . S
C1605 C1607 1.327 . S
C1605 H1628 0.950 . S
C1606 C1605 1.349 . S
C1606 C1618 1.349 . S
C1607 C1605 1.327 . S
C1607 C1623 1.429 . S
C1607 H1629 0.950 . S
C1608 H1604 0.949 . S
C1608 C1616 1.574 . S
C1608 C1624 1.368 . S
H1609 C1617 0.950 . S
H1610 C1615 0.950 . S
H1611 C1616 0.949 . S
H1612 C1618 0.950 . S
H1613 C1619 0.950 . S
H1614 C1620 0.949 . S
C1615 H1610 0.950 . S
C1615 C1617 1.327 . S
C1615 C1621 1.429 . S
C1616 C1608 1.574 . S
C1616 H1611 0.949 . S
C1616 C1622 1.368 . S
C1617 C1601 1.349 . S
C1617 H1609 0.950 . S
C1617 C1615 1.327 . S
C1618 C1606 1.349 . S
C1618 H1612 0.950 . S
C1618 C1619 1.327 . S
C1619 H1613 0.950 . S
C1619 C1618 1.327 . S
C1619 C1623 1.429 . S
C1620 C1603 1.574 . S
C1620 H1614 0.949 . S
C1620 C1624 1.368 . S
C1621 C1602 1.429 . S
C1621 C1615 1.429 . S
C1621 C1622 1.523 . S
C1622 C1603 1.368 . S
C1622 C1616 1.368 . S
C1622 C1621 1.523 . S
C1623 C1607 1.429 . S
C1623 C1619 1.429 . S
C1623 C1624 1.523 . S
C1624 C1608 1.368 . S
C1624 C1620 1.368 . S
C1624 C1623 1.523 . S
H1625 C1600 0.950 . S
H1626 C1602 0.950 . S
H1627 C1603 0.949 . S
H1628 C1605 0.950 . S
H1629 C1607 0.950 . S
C1630 C1631 1.349 . S
C1630 C1632 1.327 . S
C1630 H1655 0.950 . S
C1631 C1630 1.349 . S
C1631 C1647 1.349 . S
C1632 C1630 1.327 . S
C1632 C1651 1.429 . S
C1632 H1656 0.950 . S
C1633 C1650 1.574 . S
C1633 C1652 1.368 . S
C1633 H1657 0.949 . S
H1634 C1638 0.949 . S
C1635 C1636 1.349 . S
C1635 C1637 1.327 . S
C1635 H1658 0.950 . S
C1636 C1635 1.349 . S
C1636 C1648 1.349 . S
C1637 C1635 1.327 . S
C1637 C1653 1.429 . S
C1637 H1659 0.950 . S
C1638 H1634 0.949 . S
C1638 C1646 1.574 . S
C1638 C1654 1.368 . S
H1639 C1647 0.950 . S
H1640 C1645 0.950 . S
H1641 C1646 0.949 . S
H1642 C1648 0.950 . S
H1643 C1649 0.950 . S
H1644 C1650 0.949 . S
C1645 H1640 0.950 . S
C1645 C1647 1.327 . S
C1645 C1651 1.429 . S
C1646 C1638 1.574 . S
C1646 H1641 0.949 . S
C1646 C1652 1.368 . S
C1647 C1631 1.349 . S
C1647 H1639 0.950 . S
C1647 C1645 1.327 . S
C1648 C1636 1.349 . S
C1648 H1642 0.950 . S
C1648 C1649 1.327 . S
C1649 H1643 0.950 . S
C1649 C1648 1.327 . S
C1649 C1653 1.429 . S
C1650 C1633 1.574 . S
C1650 H1644 0.949 . S
C1650 C1654 1.368 . S
C1651 C1632 1.429 . S
C1651 C1645 1.429 . S
C1651 C1652 1.523 . S
C1652 C1633 1.368 . S
C1652 C1646 1.368 . S
C1652 C1651 1.523 . S
C1653 C1637 1.429 . S
C1653 C1649 1.429 . S
C1653 C1654 1.523 . S
C1654 C1638 1.368 . S
C1654 C1650 1.368 . S
C1654 C1653 1.523 . S
H1655 C1630 0.950 . S
H1656 C1632 0.950 . S
H1657 C1633 0.949 . S
H1658 C1635 0.950 . S
H1659 C1637 0.950 . S
C1660 C1661 1.349 . S
C1660 C1662 1.327 . S
C1660 H1685 0.950 . S
C1661 C1660 1.349 . S
C1661 C1677 1.349 . S
C1662 C1660 1.327 . S
C1662 C1681 1.429 . S
C1662 H1686 0.950 . S
C1663 C1680 1.574 . S
C1663 C1682 1.368 . S
C1663 H1687 0.949 . S
H1664 C1668 0.949 . S
C1665 C1666 1.349 . S
C1665 C1667 1.327 . S
C1665 H1688 0.950 . S
C1666 C1665 1.349 . S
C1666 C1678 1.349 . S
C1667 C1665 1.327 . S
C1667 C1683 1.429 . S
C1667 H1689 0.950 . S
C1668 H1664 0.949 . S
C1668 C1676 1.574 . S
C1668 C1684 1.368 . S
H1669 C1677 0.950 . S
H1670 C1675 0.950 . S
H1671 C1676 0.949 . S
H1672 C1678 0.950 . S
H1673 C1679 0.950 . S
H1674 C1680 0.949 . S
C1675 H1670 0.950 . S
C1675 C1677 1.327 . S
C1675 C1681 1.429 . S
C1676 C1668 1.574 . S
C1676 H1671 0.949 . S
C1676 C1682 1.368 . S
C1677 C1661 1.349 . S
C1677 H1669 0.950 . S
C1677 C1675 1.327 . S
C1678 C1666 1.349 . S
C1678 H1672 0.950 . S
C1678 C1679 1.327 . S
C1679 H1673 0.950 . S
C1679 C1678 1.327 . S
C1679 C1683 1.429 . S
C1680 C1663 1.574 . S
C1680 H1674 0.949 . S
C1680 C1684 1.368 . S
C1681 C1662 1.429 . S
C1681 C1675 1.429 . S
C1681 C1682 1.523 . S
C1682 C1663 1.368 . S
C1682 C1676 1.368 . S
C1682 C1681 1.523 . S
C1683 C1667 1.429 . S
C1683 C1679 1.429 . S
C1683 C1684 1.523 . S
C1684 C1668 1.368 . S
C1684 C1680 1.368 . S
C1684 C1683 1.523 . S
H1685 C1660 0.950 . S
H1686 C1662 0.950 . S
H1687 C1663 0.949 . S
H1688 C1665 0.950 . S
H1689 C1667 0.950 . S
C1690 C1691 1.349 . S
C1690 C1692 1.327 . S
C1690 H1715 0.950 . S
C1691 C1690 1.349 . S
C1691 C1707 1.349 . S
C1692 C1690 1.327 . S
C1692 C1711 1.429 . S
C1692 H1716 0.950 . S
C1693 C1710 1.574 . S
C1693 C1712 1.368 . S
C1693 H1717 0.949 . S
H1694 C1698 0.949 . S
C1695 C1696 1.349 . S
C1695 C1697 1.327 . S
C1695 H1718 0.950 . S
C1696 C1695 1.349 . S
C1696 C1708 1.349 . S
C1697 C1695 1.327 . S
C1697 C1713 1.429 . S
C1697 H1719 0.950 . S
C1698 H1694 0.949 . S
C1698 C1706 1.574 . S
C1698 C1714 1.368 . S
H1699 C1707 0.950 . S
H1700 C1705 0.950 . S
H1701 C1706 0.949 . S
H1702 C1708 0.950 . S
H1703 C1709 0.950 . S
H1704 C1710 0.949 . S
C1705 H1700 0.950 . S
C1705 C1707 1.327 . S
C1705 C1711 1.429 . S
C1706 C1698 1.574 . S
C1706 H1701 0.949 . S
C1706 C1712 1.368 . S
C1707 C1691 1.349 . S
C1707 H1699 0.950 . S
C1707 C1705 1.327 . S
C1708 C1696 1.349 . S
C1708 H1702 0.950 . S
C1708 C1709 1.327 . S
C1709 H1703 0.950 . S
C1709 C1708 1.327 . S
C1709 C1713 1.429 . S
C1710 C1693 1.574 . S
C1710 H1704 0.949 . S
C1710 C1714 1.368 . S
C1711 C1692 1.429 . S
C1711 C1705 1.429 . S
C1711 C1712 1.523 . S
C1712 C1693 1.368 . S
C1712 C1706 1.368 . S
C1712 C1711 1.523 . S
C1713 C1697 1.429 . S
C1713 C1709 1.429 . S
C1713 C1714 1.523 . S
C1714 C1698 1.368 . S
C1714 C1710 1.368 . S
C1714 C1713 1.523 . S
H1715 C1690 0.950 . S
H1716 C1692 0.950 . S
H1717 C1693 0.949 . S
H1718 C1695 0.950 . S
H1719 C1697 0.950 . S
C1720 C1721 1.349 . S
C1720 C1722 1.327 . S
C1720 H1745 0.950 . S
C1721 C1720 1.349 . S
C1721 C1737 1.349 . S
C1722 C1720 1.327 . S
C1722 C1741 1.429 . S
C1722 H1746 0.950 . S
C1723 C1740 1.574 . S
C1723 C1742 1.368 . S
C1723 H1747 0.949 . S
H1724 C1728 0.949 . S
C1725 C1726 1.349 . S
C1725 C1727 1.327 . S
C1725 H1748 0.950 . S
C1726 C1725 1.349 . S
C1726 C1738 1.349 . S
C1727 C1725 1.327 . S
C1727 C1743 1.429 . S
C1727 H1749 0.950 . S
C1728 H1724 0.949 . S
C1728 C1736 1.574 . S
C1728 C1744 1.368 . S
H1729 C1737 0.950 . S
H1730 C1735 0.950 . S
H1731 C1736 0.949 . S
H1732 C1738 0.950 . S
H1733 C1739 0.950 . S
H1734 C1740 0.949 . S
C1735 H1730 0.950 . S
C1735 C1737 1.327 . S
C1735 C1741 1.429 . S
C1736 C1728 1.574 . S
C1736 H1731 0.949 . S
C1736 C1742 1.368 . S
C1737 C1721 1.349 . S
C1737 H1729 0.950 . S
C1737 C1735 1.327 . S
C1738 C1726 1.349 . S
C1738 H1732 0.950 . S
C1738 C1739 1.327 . S
C1739 H1733 0.950 . S
C1739 C1738 1.327 . S
C1739 C1743 1.429 . S
C1740 C1723 1.574 . S
C1740 H1734 0.949 . S
C1740 C1744 1.368 . S
C1741 C1722 1.429 . S
C1741 C1735 1.429 . S
C1741 C1742 1.523 . S
C1742 C1723 1.368 . S
C1742 C1736 1.368 . S
C1742 C1741 1.523 . S
C1743 C1727 1.429 . S
C1743 C1739 1.429 . S
C1743 C1744 1.523 . S
C1744 C1728 1.368 . S
C1744 C1740 1.368 . S
C1744 C1743 1.523 . S
H1745 C1720 0.950 . S
H1746 C1722 0.950 . S
H1747 C1723 0.949 . S
H1748 C1725 0.950 . S
H1749 C1727 0.950 . S
C1750 C1751 1.349 . S
C1750 C1752 1.327 . S
C1750 H1775 0.950 . S
C1751 C1750 1.349 . S
C1751 C1767 1.349 . S
C1752 C1750 1.327 . S
C1752 C1771 1.429 . S
C1752 H1776 0.950 . S
C1753 C1770 1.574 . S
C1753 C1772 1.368 . S
C1753 H1777 0.949 1_554 S
H1754 C1758 0.949 . S
C1755 C1756 1.349 1_556 S
C1755 C1757 1.327 1_556 S
C1755 H1778 0.950 . S
C1756 C1755 1.349 1_554 S
C1756 C1768 1.349 . S
C1757 C1755 1.327 1_554 S
C1757 C1773 1.429 . S
C1757 H1779 0.950 1_554 S
C1758 H1754 0.949 . S
C1758 C1766 1.574 . S
C1758 C1774 1.368 . S
H1759 C1767 0.950 . S
H1760 C1765 0.950 . S
H1761 C1766 0.949 . S
H1762 C1768 0.950 . S
H1763 C1769 0.950 . S
H1764 C1770 0.949 1_556 S
C1765 H1760 0.950 . S
C1765 C1767 1.327 . S
C1765 C1771 1.429 . S
C1766 C1758 1.574 . S
C1766 H1761 0.949 . S
C1766 C1772 1.368 . S
C1767 C1751 1.349 . S
C1767 H1759 0.950 . S
C1767 C1765 1.327 . S
C1768 C1756 1.349 . S
C1768 H1762 0.950 . S
C1768 C1769 1.327 . S
C1769 H1763 0.950 . S
C1769 C1768 1.327 . S
C1769 C1773 1.429 . S
C1770 C1753 1.574 . S
C1770 H1764 0.949 1_554 S
C1770 C1774 1.368 . S
C1771 C1752 1.429 . S
C1771 C1765 1.429 . S
C1771 C1772 1.523 . S
C1772 C1753 1.368 . S
C1772 C1766 1.368 . S
C1772 C1771 1.523 . S
C1773 C1757 1.429 . S
C1773 C1769 1.429 . S
C1773 C1774 1.523 . S
C1774 C1758 1.368 . S
C1774 C1770 1.368 . S
C1774 C1773 1.523 . S
H1775 C1750 0.950 . S
H1776 C1752 0.950 . S
H1777 C1753 0.949 1_556 S
H1778 C1755 0.950 . S
H1779 C1757 0.950 1_556 S
C1780 C1781 1.349 . S
C1780 C1782 1.327 . S
C1780 H1805 0.950 . S
C1781 C1780 1.349 . S
C1781 C1797 1.349 . S
C1782 C1780 1.327 . S
C1782 C1801 1.429 . S
C1782 H1806 0.950 . S
C1783 C1800 1.574 . S
C1783 C1802 1.368 . S
C1783 H1807 0.949 . S
H1784 C1788 0.949 . S
C1785 C1786 1.349 . S
C1785 C1787 1.327 . S
C1785 H1808 0.950 . S
C1786 C1785 1.349 . S
C1786 C1798 1.349 . S
C1787 C1785 1.327 . S
C1787 C1803 1.429 . S
C1787 H1809 0.950 . S
C1788 H1784 0.949 . S
C1788 C1796 1.574 . S
C1788 C1804 1.368 . S
H1789 C1797 0.950 . S
H1790 C1795 0.950 . S
H1791 C1796 0.949 . S
H1792 C1798 0.950 . S
H1793 C1799 0.950 . S
H1794 C1800 0.949 . S
C1795 H1790 0.950 . S
C1795 C1797 1.327 . S
C1795 C1801 1.429 . S
C1796 C1788 1.574 . S
C1796 H1791 0.949 . S
C1796 C1802 1.368 . S
C1797 C1781 1.349 . S
C1797 H1789 0.950 . S
C1797 C1795 1.327 . S
C1798 C1786 1.349 . S
C1798 H1792 0.950 . S
C1798 C1799 1.327 . S
C1799 H1793 0.950 . S
C1799 C1798 1.327 . S
C1799 C1803 1.429 . S
C1800 C1783 1.574 . S
C1800 H1794 0.949 . S
C1800 C1804 1.368 . S
C1801 C1782 1.429 . S
C1801 C1795 1.429 . S
C1801 C1802 1.523 . S
C1802 C1783 1.368 . S
C1802 C1796 1.368 . S
C1802 C1801 1.523 . S
C1803 C1787 1.429 . S
C1803 C1799 1.429 . S
C1803 C1804 1.523 . S
C1804 C1788 1.368 . S
C1804 C1800 1.368 . S
C1804 C1803 1.523 . S
H1805 C1780 0.950 . S
H1806 C1782 0.950 . S
H1807 C1783 0.949 . S
H1808 C1785 0.950 . S
H1809 C1787 0.950 . S
C1810 C1811 1.349 . S
C1810 C1812 1.327 . S
C1810 H1835 0.950 . S
C1811 C1810 1.349 . S
C1811 C1827 1.349 . S
C1812 C1810 1.327 . S
C1812 C1831 1.429 . S
C1812 H1836 0.950 . S
C1813 C1830 1.574 . S
C1813 C1832 1.368 . S
C1813 H1837 0.949 . S
H1814 C1818 0.949 . S
C1815 C1816 1.349 . S
C1815 C1817 1.327 . S
C1815 H1838 0.950 . S
C1816 C1815 1.349 . S
C1816 C1828 1.349 . S
C1817 C1815 1.327 . S
C1817 C1833 1.429 . S
C1817 H1839 0.950 . S
C1818 H1814 0.949 . S
C1818 C1826 1.574 . S
C1818 C1834 1.368 . S
H1819 C1827 0.950 . S
H1820 C1825 0.950 . S
H1821 C1826 0.949 . S
H1822 C1828 0.950 . S
H1823 C1829 0.950 . S
H1824 C1830 0.949 . S
C1825 H1820 0.950 . S
C1825 C1827 1.327 . S
C1825 C1831 1.429 . S
C1826 C1818 1.574 . S
C1826 H1821 0.949 . S
C1826 C1832 1.368 . S
C1827 C1811 1.349 . S
C1827 H1819 0.950 . S
C1827 C1825 1.327 . S
C1828 C1816 1.349 . S
C1828 H1822 0.950 . S
C1828 C1829 1.327 . S
C1829 H1823 0.950 . S
C1829 C1828 1.327 . S
C1829 C1833 1.429 . S
C1830 C1813 1.574 . S
C1830 H1824 0.949 . S
C1830 C1834 1.368 . S
C1831 C1812 1.429 . S
C1831 C1825 1.429 . S
C1831 C1832 1.523 . S
C1832 C1813 1.368 . S
C1832 C1826 1.368 . S
C1832 C1831 1.523 . S
C1833 C1817 1.429 . S
C1833 C1829 1.429 . S
C1833 C1834 1.523 . S
C1834 C1818 1.368 . S
C1834 C1830 1.368 . S
C1834 C1833 1.523 . S
H1835 C1810 0.950 . S
H1836 C1812 0.950 . S
H1837 C1813 0.949 . S
H1838 C1815 0.950 . S
H1839 C1817 0.950 . S
C1840 C1841 1.349 . S
C1840 C1842 1.327 . S
C1840 H1865 0.950 . S
C1841 C1840 1.349 . S
C1841 C1857 1.349 . S
C1842 C1840 1.327 . S
C1842 C1861 1.429 . S
C1842 H1866 0.950 . S
C1843 C1860 1.574 . S
C1843 C1862 1.368 . S
C1843 H1867 0.949 . S
H1844 C1848 0.949 . S
C1845 C1846 1.349 . S
C1845 C1847 1.327 . S
C1845 H1868 0.950 . S
C1846 C1845 1.349 . S
C1846 C1858 1.349 . S
C1847 C1845 1.327 . S
C1847 C1863 1.429 . S
C1847 H1869 0.950 . S
C1848 H1844 0.949 . S
C1848 C1856 1.574 . S
C1848 C1864 1.368 . S
H1849 C1857 0.950 . S
H1850 C1855 0.950 . S
H1851 C1856 0.949 . S
H1852 C1858 0.950 . S
H1853 C1859 0.950 . S
H1854 C1860 0.949 . S
C1855 H1850 0.950 . S
C1855 C1857 1.327 . S
C1855 C1861 1.429 . S
C1856 C1848 1.574 . S
C1856 H1851 0.949 . S
C1856 C1862 1.368 . S
C1857 C1841 1.349 . S
C1857 H1849 0.950 . S
C1857 C1855 1.327 . S
C1858 C1846 1.349 . S
C1858 H1852 0.950 . S
C1858 C1859 1.327 . S
C1859 H1853 0.950 . S
C1859 C1858 1.327 . S
C1859 C1863 1.429 . S
C1860 C1843 1.574 . S
C1860 H1854 0.949 . S
C1860 C1864 1.368 . S
C1861 C1842 1.429 . S
C1861 C1855 1.429 . S
C1861 C1862 1.523 . S
C1862 C1843 1.368 . S
C1862 C1856 1.368 . S
C1862 C1861 1.523 . S
C1863 C1847 1.429 . S
C1863 C1859 1.429 . S
C1863 C1864 1.523 . S
C1864 C1848 1.368 . S
C1864 C1860 1.368 . S
C1864 C1863 1.523 . S
H1865 C1840 0.950 . S
H1866 C1842 0.950 . S
H1867 C1843 0.949 . S
H1868 C1845 0.950 . S
H1869 C1847 0.950 . S
C1870 C1871 1.349 . S
C1870 C1872 1.327 . S
C1870 H1895 0.950 . S
C1871 C1870 1.349 . S
C1871 C1887 1.349 . S
C1872 C1870 1.327 . S
C1872 C1891 1.429 . S
C1872 H1896 0.950 . S
C1873 C1890 1.574 . S
C1873 C1892 1.368 . S
C1873 H1897 0.949 . S
H1874 C1878 0.949 . S
C1875 C1876 1.349 . S
C1875 C1877 1.327 . S
C1875 H1898 0.950 . S
C1876 C1875 1.349 . S
C1876 C1888 1.349 . S
C1877 C1875 1.327 . S
C1877 C1893 1.429 . S
C1877 H1899 0.950 . S
C1878 H1874 0.949 . S
C1878 C1886 1.574 . S
C1878 C1894 1.368 . S
H1879 C1887 0.980 . S
H1880 C1885 0.950 . S
H1881 C1886 0.949 . S
H1882 C1888 0.950 . S
H1883 C1889 0.950 . S
H1884 C1890 0.949 . S
C1885 H1880 0.950 . S
C1885 C1887 1.327 . S
C1885 C1891 1.429 . S
C1886 C1878 1.574 . S
C1886 H1881 0.949 . S
C1886 C1892 1.368 . S
C1887 C1871 1.349 . S
C1887 H1879 0.980 . S
C1887 C1885 1.327 . S
C1888 C1876 1.349 . S
C1888 H1882 0.950 . S
C1888 C1889 1.327 . S
C1889 H1883 0.950 . S
C1889 C1888 1.327 . S
C1889 C1893 1.429 . S
C1890 C1873 1.574 . S
C1890 H1884 0.949 . S
C1890 C1894 1.368 . S
C1891 C1872 1.429 . S
C1891 C1885 1.429 . S
C1891 C1892 1.523 . S
C1892 C1873 1.368 . S
C1892 C1886 1.368 . S
C1892 C1891 1.523 . S
C1893 C1877 1.429 . S
C1893 C1889 1.429 . S
C1893 C1894 1.523 . S
C1894 C1878 1.368 . S
C1894 C1890 1.368 . S
C1894 C1893 1.523 . S
H1895 C1870 0.950 . S
H1896 C1872 0.950 . S
H1897 C1873 0.949 . S
H1898 C1875 0.950 . S
H1899 C1877 0.950 . S
C1900 C1901 1.349 . S
C1900 C1902 1.327 . S
C1900 H1925 0.950 . S
C1901 C1900 1.349 . S
C1901 C1917 1.349 . S
C1902 C1900 1.327 . S
C1902 C1921 1.429 . S
C1902 H1926 0.950 . S
C1903 C1920 1.574 . S
C1903 C1922 1.368 . S
C1903 H1927 0.949 1_556 S
H1904 C1908 0.949 . S
C1905 C1906 1.349 . S
C1905 C1907 1.327 . S
C1905 H1928 0.950 . S
C1906 C1905 1.349 . S
C1906 C1918 1.349 . S
C1907 C1905 1.327 . S
C1907 C1923 1.429 . S
C1907 H1929 0.950 . S
C1908 H1904 0.949 . S
C1908 C1916 1.574 . S
C1908 C1924 1.368 . S
H1909 C1917 0.950 1_554 S
H1910 C1915 0.950 1_554 S
H1911 C1916 0.949 . S
H1912 C1918 0.950 . S
H1913 C1919 0.950 . S
H1914 C1920 0.949 . S
C1915 H1910 0.950 1_556 S
C1915 C1917 1.327 . S
C1915 C1921 1.429 . S
C1916 C1908 1.574 . S
C1916 H1911 0.949 . S
C1916 C1922 1.368 . S
C1917 C1901 1.349 . S
C1917 H1909 0.950 1_556 S
C1917 C1915 1.327 . S
C1918 C1906 1.349 . S
C1918 H1912 0.950 . S
C1918 C1919 1.327 . S
C1919 H1913 0.950 . S
C1919 C1918 1.327 . S
C1919 C1923 1.429 . S
C1920 C1903 1.574 . S
C1920 H1914 0.949 . S
C1920 C1924 1.368 . S
C1921 C1902 1.429 . S
C1921 C1915 1.429 . S
C1921 C1922 1.523 . S
C1922 C1903 1.368 . S
C1922 C1916 1.368 . S
C1922 C1921 1.523 . S
C1923 C1907 1.429 . S
C1923 C1919 1.429 . S
C1923 C1924 1.523 . S
C1924 C1908 1.368 . S
C1924 C1920 1.368 . S
C1924 C1923 1.523 . S
H1925 C1900 0.950 . S
H1926 C1902 0.950 . S
H1927 C1903 0.949 1_554 S
H1928 C1905 0.950 . S
H1929 C1907 0.950 . S
C1930 C1931 1.349 . S
C1930 C1932 1.327 . S
C1930 H1955 0.950 . S
C1931 C1930 1.349 . S
C1931 C1947 1.349 . S
C1932 C1930 1.327 . S
C1932 C1951 1.429 . S
C1932 H1956 0.950 . S
C1933 C1950 1.574 . S
C1933 C1952 1.368 . S
C1933 H1957 0.949 . S
H1934 C1938 0.949 . S
C1935 C1936 1.349 . S
C1935 C1937 1.327 . S
C1935 H1958 0.950 . S
C1936 C1935 1.349 . S
C1936 C1948 1.349 . S
C1937 C1935 1.327 . S
C1937 C1953 1.429 . S
C1937 H1959 0.950 . S
C1938 H1934 0.949 . S
C1938 C1946 1.574 . S
C1938 C1954 1.368 . S
H1939 C1947 0.950 . S
H1940 C1945 0.950 . S
H1941 C1946 0.949 . S
H1942 C1948 0.950 . S
H1943 C1949 0.950 . S
H1944 C1950 0.949 . S
C1945 H1940 0.950 . S
C1945 C1947 1.327 . S
C1945 C1951 1.429 . S
C1946 C1938 1.574 . S
C1946 H1941 0.949 . S
C1946 C1952 1.368 . S
C1947 C1931 1.349 . S
C1947 H1939 0.950 . S
C1947 C1945 1.327 . S
C1948 C1936 1.349 . S
C1948 H1942 0.950 . S
C1948 C1949 1.327 . S
C1949 H1943 0.950 . S
C1949 C1948 1.327 . S
C1949 C1953 1.429 . S
C1950 C1933 1.574 . S
C1950 H1944 0.949 . S
C1950 C1954 1.368 . S
C1951 C1932 1.429 . S
C1951 C1945 1.429 . S
C1951 C1952 1.523 . S
C1952 C1933 1.368 . S
C1952 C1946 1.368 . S
C1952 C1951 1.523 . S
C1953 C1937 1.429 . S
C1953 C1949 1.429 . S
C1953 C1954 1.523 . S
C1954 C1938 1.368 . S
C1954 C1950 1.368 . S
C1954 C1953 1.523 . S
H1955 C1930 0.950 . S
H1956 C1932 0.950 . S
H1957 C1933 0.949 . S
H1958 C1935 0.950 . S
H1959 C1937 0.950 . S
C1960 C1961 1.349 . S
C1960 C1962 1.327 . S
C1960 H1985 0.950 . S
C1961 C1960 1.349 . S
C1961 C1977 1.349 . S
C1962 C1960 1.327 . S
C1962 C1981 1.429 . S
C1962 H1986 0.950 . S
C1963 C1980 1.574 . S
C1963 C1982 1.368 . S
C1963 H1987 0.949 . S
H1964 C1968 0.949 . S
C1965 C1966 1.349 . S
C1965 C1967 1.327 . S
C1965 H1988 0.950 . S
C1966 C1965 1.349 . S
C1966 C1978 1.349 . S
C1967 C1965 1.327 . S
C1967 C1983 1.429 . S
C1967 H1989 0.950 . S
C1968 H1964 0.949 . S
C1968 C1976 1.574 . S
C1968 C1984 1.368 . S
H1969 C1977 0.950 . S
H1970 C1975 0.950 . S
H1971 C1976 0.949 . S
H1972 C1978 0.950 . S
H1973 C1979 0.950 . S
H1974 C1980 0.949 . S
C1975 H1970 0.950 . S
C1975 C1977 1.327 . S
C1975 C1981 1.429 . S
C1976 C1968 1.574 . S
C1976 H1971 0.949 . S
C1976 C1982 1.368 . S
C1977 C1961 1.349 . S
C1977 H1969 0.950 . S
C1977 C1975 1.327 . S
C1978 C1966 1.349 . S
C1978 H1972 0.950 . S
C1978 C1979 1.327 . S
C1979 H1973 0.950 . S
C1979 C1978 1.327 . S
C1979 C1983 1.429 . S
C1980 C1963 1.574 . S
C1980 H1974 0.949 . S
C1980 C1984 1.368 . S
C1981 C1962 1.429 . S
C1981 C1975 1.429 . S
C1981 C1982 1.523 . S
C1982 C1963 1.368 . S
C1982 C1976 1.368 . S
C1982 C1981 1.523 . S
C1983 C1967 1.429 . S
C1983 C1979 1.429 . S
C1983 C1984 1.523 . S
C1984 C1968 1.368 . S
C1984 C1980 1.368 . S
C1984 C1983 1.523 . S
H1985 C1960 0.950 . S
H1986 C1962 0.950 . S
H1987 C1963 0.949 . S
H1988 C1965 0.950 . S
H1989 C1967 0.950 . S
C1990 C1991 1.349 . S
C1990 C1992 1.327 . S
C1990 H2015 0.950 . S
C1991 C1990 1.349 . S
C1991 C2007 1.349 . S
C1992 C1990 1.327 . S
C1992 C2011 1.429 . S
C1992 H2016 0.950 . S
C1993 C2010 1.574 . S
C1993 C2012 1.368 . S
C1993 H2017 0.949 . S
H1994 C1998 0.949 . S
C1995 C1996 1.349 . S
C1995 C1997 1.327 . S
C1995 H2018 0.950 . S
C1996 C1995 1.349 . S
C1996 C2008 1.349 . S
C1997 C1995 1.327 . S
C1997 C2013 1.429 . S
C1997 H2019 0.950 . S
C1998 H1994 0.949 . S
C1998 C2006 1.574 . S
C1998 C2014 1.368 . S
H1999 C2007 0.950 . S
H2000 C2005 0.950 . S
H2001 C2006 0.949 . S
H2002 C2008 0.950 . S
H2003 C2009 0.950 . S
H2004 C2010 0.949 . S
C2005 H2000 0.950 . S
C2005 C2007 1.327 . S
C2005 C2011 1.429 . S
C2006 C1998 1.574 . S
C2006 H2001 0.949 . S
C2006 C2012 1.368 . S
C2007 C1991 1.349 . S
C2007 H1999 0.950 . S
C2007 C2005 1.327 . S
C2008 C1996 1.349 . S
C2008 H2002 0.950 . S
C2008 C2009 1.327 . S
C2009 H2003 0.950 . S
C2009 C2008 1.327 . S
C2009 C2013 1.429 . S
C2010 C1993 1.574 . S
C2010 H2004 0.949 . S
C2010 C2014 1.368 . S
C2011 C1992 1.429 . S
C2011 C2005 1.429 . S
C2011 C2012 1.523 . S
C2012 C1993 1.368 . S
C2012 C2006 1.368 . S
C2012 C2011 1.523 . S
C2013 C1997 1.429 . S
C2013 C2009 1.429 . S
C2013 C2014 1.523 . S
C2014 C1998 1.368 . S
C2014 C2010 1.368 . S
C2014 C2013 1.523 . S
H2015 C1990 0.950 . S
H2016 C1992 0.950 . S
H2017 C1993 0.949 . S
H2018 C1995 0.950 . S
H2019 C1997 0.950 . S
C2020 C2021 1.349 . S
C2020 C2022 1.327 . S
C2020 H2045 0.950 . S
C2021 C2020 1.349 . S
C2021 C2037 1.349 . S
C2022 C2020 1.327 . S
C2022 C2041 1.429 . S
C2022 H2046 0.950 . S
C2023 C2040 1.574 . S
C2023 C2042 1.368 . S
C2023 H2047 0.949 . S
H2024 C2028 0.949 . S
C2025 C2026 1.349 . S
C2025 C2027 1.327 . S
C2025 H2048 0.950 . S
C2026 C2025 1.349 . S
C2026 C2038 1.349 . S
C2027 C2025 1.327 . S
C2027 C2043 1.429 . S
C2027 H2049 0.950 . S
C2028 H2024 0.949 . S
C2028 C2036 1.574 . S
C2028 C2044 1.368 . S
H2029 C2037 0.950 . S
H2030 C2035 0.950 . S
H2031 C2036 0.949 . S
H2032 C2038 0.950 . S
H2033 C2039 0.950 . S
H2034 C2040 0.949 . S
C2035 H2030 0.950 . S
C2035 C2037 1.327 . S
C2035 C2041 1.429 . S
C2036 C2028 1.574 . S
C2036 H2031 0.949 . S
C2036 C2042 1.368 . S
C2037 C2021 1.349 . S
C2037 H2029 0.950 . S
C2037 C2035 1.327 . S
C2038 C2026 1.349 . S
C2038 H2032 0.950 . S
C2038 C2039 1.327 . S
C2039 H2033 0.950 . S
C2039 C2038 1.327 . S
C2039 C2043 1.429 . S
C2040 C2023 1.574 . S
C2040 H2034 0.949 . S
C2040 C2044 1.368 . S
C2041 C2022 1.429 . S
C2041 C2035 1.429 . S
C2041 C2042 1.523 . S
C2042 C2023 1.368 . S
C2042 C2036 1.368 . S
C2042 C2041 1.523 . S
C2043 C2027 1.429 . S
C2043 C2039 1.429 . S
C2043 C2044 1.523 . S
C2044 C2028 1.368 . S
C2044 C2040 1.368 . S
C2044 C2043 1.523 . S
H2045 C2020 0.950 . S
H2046 C2022 0.950 . S
H2047 C2023 0.949 . S
H2048 C2025 0.950 . S
H2049 C2027 0.950 . S
C2050 C2051 1.349 . S
C2050 C2052 1.327 . S
C2050 H2075 0.950 . S
C2051 C2050 1.349 . S
C2051 C2067 1.349 . S
C2052 C2050 1.327 . S
C2052 C2071 1.429 . S
C2052 H2076 0.950 . S
C2053 C2070 1.574 . S
C2053 C2072 1.368 . S
C2053 H2077 0.949 . S
H2054 C2058 0.949 . S
C2055 C2056 1.349 . S
C2055 C2057 1.327 . S
C2055 H2078 0.950 . S
C2056 C2055 1.349 . S
C2056 C2068 1.349 . S
C2057 C2055 1.327 . S
C2057 C2073 1.429 . S
C2057 H2079 0.950 . S
C2058 H2054 0.949 . S
C2058 C2066 1.574 . S
C2058 C2074 1.368 . S
H2059 C2067 0.950 . S
H2060 C2065 0.950 . S
H2061 C2066 0.949 . S
H2062 C2068 0.950 . S
H2063 C2069 0.950 . S
H2064 C2070 0.949 . S
C2065 H2060 0.950 . S
C2065 C2067 1.327 . S
C2065 C2071 1.429 . S
C2066 C2058 1.574 . S
C2066 H2061 0.949 . S
C2066 C2072 1.368 . S
C2067 C2051 1.349 . S
C2067 H2059 0.950 . S
C2067 C2065 1.327 . S
C2068 C2056 1.349 . S
C2068 H2062 0.950 . S
C2068 C2069 1.327 . S
C2069 H2063 0.950 . S
C2069 C2068 1.327 . S
C2069 C2073 1.429 . S
C2070 C2053 1.574 . S
C2070 H2064 0.949 . S
C2070 C2074 1.368 . S
C2071 C2052 1.429 . S
C2071 C2065 1.429 . S
C2071 C2072 1.523 . S
C2072 C2053 1.368 . S
C2072 C2066 1.368 . S
C2072 C2071 1.523 . S
C2073 C2057 1.429 . S
C2073 C2069 1.429 . S
C2073 C2074 1.523 . S
C2074 C2058 1.368 . S
C2074 C2070 1.368 . S
C2074 C2073 1.523 . S
H2075 C2050 0.950 . S
H2076 C2052 0.950 . S
H2077 C2053 0.949 . S
H2078 C2055 0.950 . S
H2079 C2057 0.950 . S
C641 C9 0.998 . S
C646 C45 0.981 . S
C671 C88 1.305 . S
C676 C59 1.314 . S
C701 C138 1.853 . S
C706 C89 1.957 . S
C731 C8 0.536 . S
C736 C135 0.440 . S
C761 C18 0.536 . S
C766 C365 0.440 . S
C791 C299 0.998 . S
C796 C55 0.981 . S
C821 C98 1.304 . S
C826 C409 1.314 . S
C851 C128 1.853 . S
C856 C539 1.957 . S
C881 C338 1.305 . S
C886 C49 1.314 . S
C911 C488 1.853 . S
C916 C99 1.957 . S
C941 C578 0.536 . S
C946 C125 0.440 . S
C971 C19 0.998 . S
C976 C455 0.981 . S
C1001 C5 0.397 . S
C1006 C325 0.316 . S
C1031 C489 1.965 . S
C1036 C178 1.922 . S
C1061 C215 0.316 . S
C1066 C575 0.398 . S
C1091 C458 1.922 . S
C1096 C249 1.964 . S
C1121 C95 0.316 . S
C1126 C295 0.397 . S
C1151 C379 1.964 . S
C1156 C168 1.922 . S
C1181 C259 1.965 . S
C1186 C408 1.922 . S
C1211 C218 1.304 . S
C1216 C449 1.314 . S
C1241 C368 1.853 . S
C1246 C219 1.957 . S
C1271 C445 0.981 . S
C1276 C289 0.998 . S
C1301 C208 1.305 . S
C1306 C179 1.314 . S
C1331 C378 1.854 . S
C1336 C329 1.957 . S
C1361 C528 1.304 . S
C1366 C459 1.314 . S
C1391 C258 1.853 . S
C1396 C209 1.957 . S
C1421 C375 0.440 . S
C1426 C568 0.536 . S
C1451 C535 0.316 . S
C1456 C15 0.398 . S
C1481 C85 0.316 . S
C1486 C565 0.397 . S
C1511 C499 1.965 . S
C1516 C48 1.922 . S
C1541 C285 0.398 . S
C1546 C205 0.316 . S
C1571 C129 1.965 . S
C1576 C418 1.923 . S
C1601 C498 1.853 . S
C1606 C529 1.957 . S
C1631 C288 0.536 . S
C1636 C495 0.440 . S
C1661 C245 0.439 . S
C1666 C298 0.536 . S
C1691 C169 1.314 . S
C1696 C538 1.304 . S
C1721 C485 0.440 . S
C1726 C618 0.536 . S
C1751 C615 0.398 . S
C1756 C335 0.316 . S
C1781 C58 1.922 . S
C1786 C369 1.965 . S
C1811 C339 1.957 . S
C1816 C248 1.853 . S
C1841 C328 1.304 . S
C1846 C419 1.314 . S
C1871 C608 0.536 . S
C1876 C255 0.440 . S
C1901 C525 0.316 . S
C1906 C605 0.397 . S
C1931 C448 1.922 . S
C1936 C139 1.965 . S
C1961 C405 0.981 . S
C1966 C569 0.998 . S
C1991 C415 0.981 . S
C1996 C619 0.997 . S
C2021 C175 0.981 . S
C2026 C579 0.998 . S
C2051 C609 0.998 . S
C2056 C165 0.981 . S
