# Generated by pormake.
# Topology wfa, (4)-cn, num edge types: 1
# Building blocks:
#     Node 0, Type 0, BuildingBlock: QUQFOY_clean_sbu_1, # of connection points: 4
#     Node 1, Type 0, BuildingBlock: QUQFOY_clean_sbu_1, # of connection points: 4
#     Node 2, Type 0, BuildingBlock: QUQFOY_clean_sbu_1, # of connection points: 4
#     Node 3, Type 0, BuildingBlock: QUQFOY_clean_sbu_1, # of connection points: 4
#     Node 4, Type 0, BuildingBlock: QUQFOY_clean_sbu_1, # of connection points: 4
#     Node 5, Type 0, BuildingBlock: QUQFOY_clean_sbu_1, # of connection points: 4
#     Node 6, Type 0, BuildingBlock: QUQFOY_clean_sbu_1, # of connection points: 4
#     Node 7, Type 0, BuildingBlock: QUQFOY_clean_sbu_1, # of connection points: 4
#     Node 8, Type 0, BuildingBlock: QUQFOY_clean_sbu_1, # of connection points: 4
#     Node 9, Type 0, BuildingBlock: QUQFOY_clean_sbu_1, # of connection points: 4
#     Node 10, Type 0, BuildingBlock: QUQFOY_clean_sbu_1, # of connection points: 4
#     Node 11, Type 0, BuildingBlock: QUQFOY_clean_sbu_1, # of connection points: 4
#     Node 12, Type 0, BuildingBlock: QUQFOY_clean_sbu_1, # of connection points: 4
#     Node 13, Type 0, BuildingBlock: QUQFOY_clean_sbu_1, # of connection points: 4
#     Node 14, Type 0, BuildingBlock: QUQFOY_clean_sbu_1, # of connection points: 4
#     Node 15, Type 0, BuildingBlock: QUQFOY_clean_sbu_1, # of connection points: 4
#     Edge 16, Type (0, 0), BuildingBlock: OJICUG_clean_linker_0, # of connection points: 2
#     Edge 17, Type (0, 0), BuildingBlock: OJICUG_clean_linker_0, # of connection points: 2
#     Edge 18, Type (0, 0), BuildingBlock: OJICUG_clean_linker_0, # of connection points: 2
#     Edge 19, Type (0, 0), BuildingBlock: OJICUG_clean_linker_0, # of connection points: 2
#     Edge 20, Type (0, 0), BuildingBlock: OJICUG_clean_linker_0, # of connection points: 2
#     Edge 21, Type (0, 0), BuildingBlock: OJICUG_clean_linker_0, # of connection points: 2
#     Edge 22, Type (0, 0), BuildingBlock: OJICUG_clean_linker_0, # of connection points: 2
#     Edge 23, Type (0, 0), BuildingBlock: OJICUG_clean_linker_0, # of connection points: 2
#     Edge 24, Type (0, 0), BuildingBlock: OJICUG_clean_linker_0, # of connection points: 2
#     Edge 25, Type (0, 0), BuildingBlock: OJICUG_clean_linker_0, # of connection points: 2
#     Edge 26, Type (0, 0), BuildingBlock: OJICUG_clean_linker_0, # of connection points: 2
#     Edge 27, Type (0, 0), BuildingBlock: OJICUG_clean_linker_0, # of connection points: 2
#     Edge 28, Type (0, 0), BuildingBlock: OJICUG_clean_linker_0, # of connection points: 2
#     Edge 29, Type (0, 0), BuildingBlock: OJICUG_clean_linker_0, # of connection points: 2
#     Edge 30, Type (0, 0), BuildingBlock: OJICUG_clean_linker_0, # of connection points: 2
#     Edge 31, Type (0, 0), BuildingBlock: OJICUG_clean_linker_0, # of connection points: 2
#     Edge 32, Type (0, 0), BuildingBlock: OJICUG_clean_linker_0, # of connection points: 2
#     Edge 33, Type (0, 0), BuildingBlock: OJICUG_clean_linker_0, # of connection points: 2
#     Edge 34, Type (0, 0), BuildingBlock: OJICUG_clean_linker_0, # of connection points: 2
#     Edge 35, Type (0, 0), BuildingBlock: OJICUG_clean_linker_0, # of connection points: 2
#     Edge 36, Type (0, 0), BuildingBlock: OJICUG_clean_linker_0, # of connection points: 2
#     Edge 37, Type (0, 0), BuildingBlock: OJICUG_clean_linker_0, # of connection points: 2
#     Edge 38, Type (0, 0), BuildingBlock: OJICUG_clean_linker_0, # of connection points: 2
#     Edge 39, Type (0, 0), BuildingBlock: OJICUG_clean_linker_0, # of connection points: 2
#     Edge 40, Type (0, 0), BuildingBlock: OJICUG_clean_linker_0, # of connection points: 2
#     Edge 41, Type (0, 0), BuildingBlock: OJICUG_clean_linker_0, # of connection points: 2
#     Edge 42, Type (0, 0), BuildingBlock: OJICUG_clean_linker_0, # of connection points: 2
#     Edge 43, Type (0, 0), BuildingBlock: OJICUG_clean_linker_0, # of connection points: 2
#     Edge 44, Type (0, 0), BuildingBlock: OJICUG_clean_linker_0, # of connection points: 2
#     Edge 45, Type (0, 0), BuildingBlock: OJICUG_clean_linker_0, # of connection points: 2
#     Edge 46, Type (0, 0), BuildingBlock: OJICUG_clean_linker_0, # of connection points: 2
#     Edge 47, Type (0, 0), BuildingBlock: OJICUG_clean_linker_0, # of connection points: 2
# Relax obj value: 0.072
# Max RMSD: 0.139
# Mean RMSD: 0.139
data_MOF--net-wfa--node1-QUQFOY_clean_sbu_1--edge1-OJICUG_clean_linker_0
_symmetry_space_group_name_H-M    P1
_symmetry_Int_Tables_number       1
_symmetry_cell_setting            triclinic
loop_
_symmetry_equiv_pos_as_xyz
'x, y, z'
_cell_length_a     36.234859
_cell_length_b     36.176186
_cell_length_c     18.349228
_cell_angle_alpha  90.031919
_cell_angle_beta   89.987343
_cell_angle_gamma 90.013181
loop_
_atom_site_label
_atom_site_type_symbol
_atom_site_fract_x
_atom_site_fract_y
_atom_site_fract_z
_atom_type_partial_charge
O0 O 0.73649 1.03235 0.15344 0.0
Cd1 Cd 0.73579 0.07133 0.07407 0.0
Cd2 Cd 0.66188 0.07476 0.10715 0.0
O3 O 0.68444 0.05176 0.20174 0.0
O4 O 0.78628 0.06748 0.03089 0.0
O5 O 0.73523 0.05573 0.96904 0.0
C6 C 0.77088 0.05653 0.97142 0.0
C7 C 0.60496 0.05557 0.05682 0.0
C8 C 0.71537 1.0353 0.20819 0.0
C9 C 0.70299 0.14375 0.12187 0.0
O10 O 0.6723 0.13053 0.10086 0.0
O11 O 0.732 0.1241 0.118 0.0
O12 O 0.60667 0.07262 0.11839 0.0
O13 O 0.6358 0.0479 0.02485 0.0
O14 O 0.54875 0.74381 0.15531 0.0
Cd15 Cd 0.50941 0.74381 0.07673 0.0
Cd16 Cd 0.50602 0.66943 0.10785 0.0
O17 O 0.52816 0.69209 0.20324 0.0
O18 O 0.513 0.79448 0.03403 0.0
O19 O 0.52437 0.74343 0.97149 0.0
C20 C 0.52356 0.77913 0.97417 0.0
C21 C 0.52538 0.61236 0.05807 0.0
C22 C 0.54492 0.72289 0.21017 0.0
C23 C 0.4373 0.71023 0.12308 0.0
O24 O 0.45045 0.68001 0.09925 0.0
O25 O 0.45697 0.73932 0.12151 0.0
O26 O 0.5079 0.61413 0.11913 0.0
O27 O 0.53344 0.64324 0.02645 0.0
O28 O 0.83572 0.544 0.14561 0.0
Cd29 Cd 0.83654 0.50468 0.0668 0.0
Cd30 Cd 0.91071 0.50229 0.09895 0.0
O31 O 0.88763 0.52437 0.19402 0.0
O32 O 0.786 0.50767 0.02367 0.0
O33 O 0.83691 0.51982 0.9616 0.0
C34 C 0.80128 0.51858 0.96403 0.0
C35 C 0.96753 0.52231 0.04953 0.0
C36 C 0.85662 0.54069 0.20059 0.0
C37 C 0.87079 0.43298 0.11404 0.0
O38 O 0.90085 0.44649 0.09044 0.0
O39 O 0.84149 0.45226 0.11175 0.0
O40 O 0.96587 0.50487 0.11064 0.0
O41 O 0.93667 0.52996 0.01764 0.0
O42 O 1.03183 0.83797 0.14491 0.0
Cd43 Cd 0.07158 0.83695 0.06703 0.0
Cd44 Cd 0.07689 0.91108 0.09844 0.0
O45 O 0.05342 0.88921 0.19316 0.0
O46 O 0.06701 0.78635 0.02419 0.0
O47 O 0.05728 0.83762 0.96141 0.0
C48 C 0.05721 0.80191 0.96409 0.0
C49 C 0.05889 0.96817 0.04702 0.0
C50 C 1.03591 0.85884 0.19983 0.0
C51 C 0.14413 0.86846 0.11684 0.0
O52 O 0.13226 0.89907 0.09236 0.0
O53 O 0.1237 0.83994 0.11354 0.0
O54 O 0.07587 0.96647 0.10861 0.0
O55 O 0.05067 0.93725 0.01563 0.0
O56 O 0.23602 0.04426 0.32683 0.0
Cd57 Cd 0.23621 1.00497 0.4057 0.0
Cd58 Cd 0.16237 1.00011 0.37301 0.0
O59 O 0.18454 1.02345 0.27842 0.0
O60 O 0.28672 1.00944 0.4486 0.0
O61 O 0.23559 1.02002 0.51104 0.0
C62 C 0.27124 1.01978 0.50842 0.0
C63 C 0.10535 1.01863 0.42384 0.0
C64 C 0.21512 0.04058 0.27192 0.0
C65 C 0.20461 0.93219 0.35655 0.0
O66 O 0.17381 0.94454 0.37893 0.0
O67 O 0.23322 0.95243 0.36062 0.0
O68 O 0.10712 1.00154 0.36231 0.0
O69 O 0.13618 1.02665 0.45554 0.0
O70 O 0.52921 0.24362 0.32552 0.0
Cd71 Cd 0.56882 0.24411 0.40362 0.0
Cd72 Cd 0.57285 0.16976 0.37258 0.0
O73 O 0.55024 0.19211 0.27743 0.0
O74 O 0.56494 0.29477 0.44641 0.0
O75 O 0.55423 0.24364 0.50907 0.0
C76 C 0.55472 0.27935 0.50639 0.0
C77 C 0.55399 0.1127 0.42297 0.0
C78 C 0.53316 0.22272 0.27062 0.0
C79 C 0.64097 0.21119 0.35575 0.0
O80 O 0.62833 0.18095 0.38051 0.0
O81 O 0.62103 0.24008 0.35778 0.0
O82 O 0.57131 0.11442 0.36175 0.0
O83 O 0.54583 0.1436 0.45446 0.0
O84 O 0.33561 0.53203 0.31948 0.0
Cd85 Cd 0.3368 0.571 0.39891 0.0
Cd86 Cd 0.41088 0.57314 0.36632 0.0
O87 O 0.38775 0.55116 0.2712 0.0
O88 O 0.28625 0.56798 0.44204 0.0
O89 O 0.33711 0.55537 0.50386 0.0
C90 C 0.30148 0.55676 0.50148 0.0
C91 C 0.46764 0.55291 0.41568 0.0
C92 C 0.35661 0.53509 0.26459 0.0
C93 C 0.37118 0.64285 0.35272 0.0
O94 O 0.40139 0.629 0.37469 0.0
O95 O 0.34179 0.6237 0.35521 0.0
O96 O 0.46603 0.57032 0.35454 0.0
O97 O 0.43676 0.54538 0.44763 0.0
O98 O 0.05013 0.33781 0.31469 0.0
Cd99 Cd 1.01092 0.3374 0.39357 0.0
Cd100 Cd 1.00635 0.41155 0.36203 0.0
O101 O 1.02895 0.38927 0.26676 0.0
O102 O 1.01528 0.28678 0.43625 0.0
O103 O 1.02598 0.33797 0.49877 0.0
C104 C 1.02564 0.30226 0.49609 0.0
C105 C 1.02515 0.46867 0.41246 0.0
C106 C 0.04606 0.35868 0.25983 0.0
C107 C 0.93822 0.36964 0.34674 0.0
O108 O 0.95087 0.40027 0.36963 0.0
O109 O 0.95835 0.3409 0.34916 0.0
O110 O 1.00781 0.4669 0.35128 0.0
O111 O 1.03334 0.43779 0.44393 0.0
O112 O 0.33154 0.04598 0.82708 0.0
Cd113 Cd 0.33173 1.00622 0.90496 0.0
Cd114 Cd 0.40603 1.00337 0.87353 0.0
O115 O 0.38322 1.02577 0.7786 0.0
O116 O 0.28115 1.00938 0.94795 0.0
O117 O 0.33211 1.02082 0.01044 0.0
C118 C 0.29646 1.01986 0.00786 0.0
C119 C 0.46296 1.02289 0.92322 0.0
C120 C 0.3524 0.04246 0.77207 0.0
C121 C 0.36567 0.9345 0.85687 0.0
O122 O 0.39565 0.94764 0.88164 0.0
O123 O 0.33652 0.95401 0.85887 0.0
O124 O 0.46122 1.00552 0.86201 0.0
O125 O 0.43214 1.03074 0.95509 0.0
O126 O 0.53099 0.33922 0.82567 0.0
Cd127 Cd 0.57044 0.33897 0.90409 0.0
Cd128 Cd 0.57504 0.41301 0.87196 0.0
O129 O 0.55138 0.39098 0.77752 0.0
O130 O 0.56611 0.28837 0.94697 0.0
O131 O 0.55562 0.33958 0.00951 0.0
C132 C 0.55587 0.30387 0.00686 0.0
C133 C 0.55683 0.47012 0.9233 0.0
C134 C 0.53434 0.36033 0.77096 0.0
C135 C 0.64293 0.3708 0.85456 0.0
O136 O 0.63056 0.40162 0.87703 0.0
O137 O 0.62279 0.3421 0.85857 0.0
O138 O 0.57363 0.46837 0.86151 0.0
O139 O 0.5489 0.43923 0.95498 0.0
O140 O 0.24077 0.53246 0.81966 0.0
Cd141 Cd 0.2402 0.57187 0.89831 0.0
Cd142 Cd 0.16624 0.57511 0.86571 0.0
O143 O 0.1889 0.55212 0.77114 0.0
O144 O 0.2907 0.56827 0.94149 0.0
O145 O 0.23964 0.55678 0.00355 0.0
C146 C 0.27529 0.55757 0.00113 0.0
C147 C 0.10939 0.55577 0.9161 0.0
C148 C 0.21978 0.53555 0.76477 0.0
C149 C 0.20711 0.644 0.84978 0.0
O150 O 0.1766 0.63089 0.87202 0.0
O151 O 0.23615 0.62437 0.85332 0.0
O152 O 0.11104 0.57281 0.85455 0.0
O153 O 0.14026 0.5482 0.94801 0.0
O154 O 0.04715 0.24323 0.8151 0.0
Cd155 Cd 1.00848 0.24114 0.8948 0.0
Cd156 Cd 1.00752 0.16696 0.86145 0.0
O157 O 1.0304 0.19008 0.76713 0.0
O158 O 1.01113 0.29173 0.93828 0.0
O159 O 1.02459 0.24087 -0.00048 0.0
C160 C 1.02286 0.27654 -0.00264 0.0
C161 C 1.02741 0.11017 0.91166 0.0
C162 C 0.04563 0.22169 0.76072 0.0
C163 C 0.93711 0.20619 0.84771 0.0
O164 O 0.95155 0.17576 0.86708 0.0
O165 O 0.95572 0.23591 0.85177 0.0
O166 O 1.01079 0.11174 0.8497 0.0
O167 O 1.0344 0.14112 0.94401 0.0
O168 O 0.8314 1.02989 0.6533 0.0
Cd169 Cd 0.83205 0.06933 0.57485 0.0
Cd170 Cd 0.9064 0.07146 0.60622 0.0
O171 O 0.8833 0.04967 0.70152 0.0
O172 O 0.78148 0.06645 0.53187 0.0
O173 O 0.83236 0.05428 0.46964 0.0
C174 C 0.79672 0.05557 0.47215 0.0
C175 C 0.9633 0.05136 0.55722 0.0
C176 C 0.85232 1.03331 0.70822 0.0
C177 C 0.86677 0.14097 0.62098 0.0
O178 O 0.89663 0.12725 0.5969 0.0
O179 O 0.8374 0.12176 0.61977 0.0
O180 O 0.96155 0.06899 0.61815 0.0
O181 O 0.93248 0.04354 0.52531 0.0
O182 O 0.54551 0.83872 0.65517 0.0
Cd183 Cd 0.50654 0.83963 0.57591 0.0
Cd184 Cd 0.50351 0.91367 0.60897 0.0
O185 O 0.5269 0.8912 0.70329 0.0
O186 O 0.51026 0.78905 0.53263 0.0
O187 O 0.52217 0.84017 0.47091 0.0
C188 C 0.52129 0.80446 0.47324 0.0
C189 C 0.52246 0.97062 0.55804 0.0
C190 C 0.5431 0.86009 0.70971 0.0
C191 C 0.4344 0.87266 0.62418 0.0
O192 O 0.44776 0.90344 0.60385 0.0
O193 O 0.45387 0.84352 0.61987 0.0
O194 O 0.50578 0.96897 0.61996 0.0
O195 O 0.52994 0.93968 0.52605 0.0
O196 O 0.74034 0.54389 0.64567 0.0
Cd197 Cd 0.74036 0.50424 0.56744 0.0
Cd198 Cd 0.66634 0.50033 0.59957 0.0
O199 O 0.68887 0.52324 0.69429 0.0
O200 O 0.79086 0.50807 0.52428 0.0
O201 O 0.73974 0.5189 0.46198 0.0
C202 C 0.77539 0.51838 0.46444 0.0
C203 C 0.60945 0.51943 0.54914 0.0
C204 C 0.71954 0.54021 0.70073 0.0
C205 C 0.70763 0.43207 0.61659 0.0
O206 O 0.67726 0.44468 0.59262 0.0
O207 O 0.7365 0.45197 0.61341 0.0
O208 O 0.61111 0.50222 0.61051 0.0
O209 O 0.64033 0.52728 0.51744 0.0
O210 O 1.03215 0.74217 0.64467 0.0
Cd211 Cd 0.07168 0.74226 0.56636 0.0
Cd212 Cd 0.07544 0.668 0.59787 0.0
O213 O 0.05248 0.69038 0.69273 0.0
O214 O 0.06791 0.79291 0.52354 0.0
O215 O 0.05692 0.74181 0.46095 0.0
C216 C 0.05753 0.77751 0.46363 0.0
C217 C 0.05664 0.61091 0.54726 0.0
C218 C 1.03564 0.72114 0.69945 0.0
C219 C 0.14376 0.70935 0.61485 0.0
O220 O 0.13101 0.67894 0.5911 0.0
O221 O 0.12393 0.7383 0.61203 0.0
O222 O 0.07374 0.61267 0.60872 0.0
O223 O 0.04868 0.6418 0.5156 0.0
C224 C 0.6606 0.22023 0.22807 0.0
C225 C 0.6696 0.20815 0.29882 0.0
H226 H 0.6645 0.20854 0.11375 0.0
C227 C 0.69872 0.183 0.30761 0.0
H228 H 0.63795 0.23931 0.2195 0.0
C229 C 0.71496 0.16644 0.2466 0.0
C230 C 0.7012 0.17375 0.1763 0.0
H231 H 0.70595 0.17301 0.36141 0.0
H232 H 0.73429 0.14403 0.25546 0.0
C233 C 0.67577 0.2026 0.16717 0.0
C234 C 0.39959 0.70149 0.30945 0.0
C235 C 0.3741 0.67283 0.29855 0.0
H236 H 0.43845 0.73804 0.25972 0.0
C237 C 0.36145 0.66564 0.22738 0.0
H238 H 0.41003 0.7073 0.36359 0.0
C239 C 0.37876 0.68217 0.16752 0.0
C240 C 0.40785 0.70718 0.17829 0.0
H241 H 0.34212 0.64336 0.21722 0.0
H242 H 0.37232 0.67228 0.11324 0.0
C243 C 0.41582 0.71911 0.24963 0.0
C244 C 0.89972 0.37523 0.16046 0.0
C245 C 0.87411 0.40389 0.17001 0.0
H246 H 0.939 0.33973 0.21175 0.0
C247 C 0.8617 0.41212 0.24093 0.0
H248 H 0.90997 0.36862 0.10653 0.0
C249 C 0.87935 0.39666 0.30148 0.0
C250 C 0.90856 0.3717 0.29177 0.0
H251 H 0.84228 0.43443 0.25007 0.0
H252 H 0.87306 0.40736 0.35524 0.0
C253 C 0.91631 0.35868 0.22106 0.0
C254 C 0.20156 0.89582 0.16828 0.0
C255 C 0.17232 0.87061 0.17479 0.0
H256 H 0.23683 0.93391 0.22361 0.0
C257 C 0.16282 0.85745 0.24456 0.0
H258 H 0.20921 0.9066 0.11531 0.0
C259 C 0.17759 0.87412 0.30689 0.0
C260 C 0.20311 0.90309 0.30016 0.0
H261 H 0.1401 0.83827 0.25143 0.0
H262 H 0.16595 0.86735 0.35962 0.0
C263 C 0.21738 0.91142 0.23067 0.0
C264 C 0.39445 0.87687 0.80928 0.0
C265 C 0.36918 0.90585 0.8 0.0
H266 H 0.43381 0.84145 0.75784 0.0
C267 C 0.35738 0.91477 0.72903 0.0
H268 H 0.40424 0.86973 0.86326 0.0
C269 C 0.37534 0.89965 0.66846 0.0
C270 C 0.40424 0.87434 0.67814 0.0
H271 H 0.33822 0.93733 0.7201 0.0
H272 H 0.36958 0.91087 0.61492 0.0
C273 C 0.41134 0.86066 0.74858 0.0
C274 C 0.67955 0.3746 0.6666 0.0
C275 C 0.70504 0.40356 0.67393 0.0
H276 H 0.64105 0.33938 0.7209 0.0
C277 C 0.71812 0.41259 0.744 0.0
H278 H 0.66881 0.36734 0.61338 0.0
C279 C 0.70121 0.39764 0.80588 0.0
C280 C 0.67206 0.37239 0.79838 0.0
H281 H 0.73749 0.43511 0.75148 0.0
H282 H 0.70798 0.40894 0.85892 0.0
C283 C 0.6637 0.35858 0.72853 0.0
C284 C 0.2017 0.68152 0.66275 0.0
C285 C 0.17263 0.70675 0.67135 0.0
H286 H 0.23758 0.64303 0.71536 0.0
C287 C 0.16397 0.71943 0.7419 0.0
H288 H 0.20866 0.67107 0.60913 0.0
C289 C 0.17947 0.70233 0.80304 0.0
C290 C 0.2049 0.67343 0.79429 0.0
H291 H 0.14136 0.73857 0.75033 0.0
H292 H 0.16849 0.70875 0.8565 0.0
C293 C 0.21827 0.6655 0.72393 0.0
C294 C 0.91282 0.21653 0.72383 0.0
C295 C 0.90643 0.20372 0.79516 0.0
H296 H 0.90481 0.20592 0.60991 0.0
C297 C 0.87783 0.17829 0.80711 0.0
H298 H 0.93508 0.23578 0.71292 0.0
C299 C 0.85944 0.16228 0.74796 0.0
C300 C 0.87054 0.17039 0.67618 0.0
H301 H 0.87266 0.16769 0.86138 0.0
H302 H 0.84056 0.13967 0.75865 0.0
C303 C 0.89553 0.19942 0.66456 0.0
C304 C 0.83143 0.05355 0.90539 0.0
C305 C 0.79353 0.04523 0.90811 0.0
H306 H 0.88042 0.0553 0.84024 0.0
C307 C 0.77737 1.02647 0.84928 0.0
H308 H 0.84482 0.06751 0.95042 0.0
C309 C 0.79798 1.01861 0.78685 0.0
C310 C 0.83508 1.02994 0.78127 0.0
H311 H 0.74845 1.01891 0.85043 0.0
H312 H 0.78401 1.00594 0.74101 0.0
C313 C 0.852 0.04608 0.84251 0.0
C314 C 0.55969 0.80635 0.78845 0.0
C315 C 0.54778 0.84331 0.78288 0.0
H316 H 0.56058 0.75691 0.85244 0.0
C317 C 0.53215 0.86027 0.84459 0.0
H318 H 0.57204 0.79238 0.74226 0.0
C319 C 0.52556 0.83975 0.90794 0.0
C320 C 0.53427 0.80189 0.91062 0.0
H321 H 0.52253 0.88859 0.84236 0.0
H322 H 0.51186 0.85311 0.95334 0.0
C323 C 0.55269 0.78579 0.85133 0.0
C324 C 0.7407 0.52068 0.898 0.0
C325 C 0.7785 0.52942 0.90061 0.0
H326 H 0.69171 0.51825 0.83297 0.0
C327 C 0.79445 0.5482 0.8416 0.0
H328 H 0.72746 0.50668 0.94316 0.0
C329 C 0.77374 0.55569 0.77914 0.0
C330 C 0.73676 0.54396 0.77372 0.0
H331 H 0.82329 0.55607 0.84265 0.0
H332 H 0.78757 0.56838 0.73318 0.0
C333 C 0.72003 0.52779 0.83511 0.0
C334 C 1.02797 0.79577 0.84124 0.0
C335 C 0.04624 0.77938 0.90035 0.0
H336 H 1.00819 0.78949 0.73241 0.0
C337 C 0.05443 0.7414 0.89744 0.0
H338 H 1.02051 0.82476 0.84253 0.0
C339 C 0.04737 0.721 0.83412 0.0
C340 C 1.03174 0.73815 0.77265 0.0
H341 H 0.06802 0.72784 0.94268 0.0
H342 H 0.05652 0.69252 0.83175 0.0
C343 C 1.02047 0.77532 0.7784 0.0
C344 C 0.27751 0.04942 0.63099 0.0
C345 C 0.2938 1.031 0.5719 0.0
H346 H 0.28396 0.06957 0.73958 0.0
C347 C 0.33174 1.02289 0.57455 0.0
H348 H 0.24854 0.05681 0.6299 0.0
C349 C 0.35223 1.03022 0.63759 0.0
C350 C 0.33519 0.04602 0.69905 0.0
H351 H 0.34523 1.00917 0.52933 0.0
H352 H 0.38069 1.02114 0.63976 0.0
C353 C 0.29804 0.05717 0.69357 0.0
C354 C 0.55255 0.33992 0.57288 0.0
C355 C 0.54394 0.30203 0.57004 0.0
H356 H 0.55525 0.38879 0.63852 0.0
C357 C 0.52548 0.28587 0.62919 0.0
H358 H 0.56629 0.35332 0.5276 0.0
C359 C 0.51827 0.30641 0.69205 0.0
C360 C 0.53001 0.34343 0.69776 0.0
H361 H 0.51769 0.25696 0.62795 0.0
H362 H 0.50586 0.29239 0.7381 0.0
C363 C 0.54575 0.36042 0.6362 0.0
C364 C 0.24084 0.55457 0.56734 0.0
C365 C 0.27865 0.54583 0.56478 0.0
H366 H 0.19187 0.55714 0.6324 0.0
C367 C 0.29455 0.52707 0.62381 0.0
H368 H 0.22763 0.56854 0.52214 0.0
C369 C 0.27384 0.51967 0.68632 0.0
C370 C 0.23689 0.53149 0.69175 0.0
H371 H 0.32339 0.51917 0.62279 0.0
H372 H 0.28765 0.50703 0.73235 0.0
C373 C 0.22017 0.54756 0.63027 0.0
C374 C 0.05469 0.29601 0.61906 0.0
C375 C 1.03661 0.27965 0.55966 0.0
H376 H 0.07385 0.28972 0.72831 0.0
C377 C 1.02839 0.24167 0.56231 0.0
H378 H 0.0622 0.32499 0.61798 0.0
C379 C 1.03509 0.22126 0.62574 0.0
C380 C 0.05033 0.23846 0.68757 0.0
H381 H 1.01496 0.22812 0.51682 0.0
H382 H 1.02582 0.19282 0.62796 0.0
C383 C 0.0618 0.27557 0.68203 0.0
C384 C 0.21536 1.02863 0.13733 0.0
C385 C 0.23216 0.04465 0.19883 0.0
H386 H 0.22267 1.00784 0.02894 0.0
C387 C 0.26909 0.0565 0.19327 0.0
H388 H 0.18706 1.01903 0.13955 0.0
C389 C 0.28972 0.04921 0.13059 0.0
C390 C 0.27373 1.03054 0.07147 0.0
H391 H 0.28297 0.0691 0.23929 0.0
H392 H 0.31854 0.05714 0.12945 0.0
C393 C 0.23594 1.02174 0.07419 0.0
C394 C 0.51833 0.27699 0.19177 0.0
C395 C 0.52966 0.23985 0.19748 0.0
H396 H 0.51855 0.32651 0.12796 0.0
C397 C 0.54568 0.22282 0.13622 0.0
H398 H 0.50576 0.29107 0.23762 0.0
C399 C 0.55301 0.24332 0.07318 0.0
C400 C 0.54471 0.28127 0.07034 0.0
H401 H 0.55489 0.19436 0.13857 0.0
H402 H 0.56688 0.22984 0.02812 0.0
C403 C 0.52609 0.29754 0.12921 0.0
C404 C 0.35637 0.54747 0.13019 0.0
C405 C 0.33942 0.53151 0.19155 0.0
H406 H 0.34924 0.56861 0.02208 0.0
C407 C 0.30232 0.52017 0.18603 0.0
H408 H 0.3848 0.55669 0.13241 0.0
C409 C 0.28174 0.52788 0.12353 0.0
C410 C 0.29792 0.54647 0.06456 0.0
H411 H 0.28833 0.50764 0.23197 0.0
H412 H 0.25281 0.52032 0.12243 0.0
C413 C 0.33583 0.55478 0.06723 0.0
C414 C 0.05349 0.28368 0.11874 0.0
C415 C 1.03408 0.29946 0.06039 0.0
H416 H 0.07454 0.29079 0.22646 0.0
C417 C 1.02514 0.33727 0.06324 0.0
H418 H 0.06155 0.25485 0.11745 0.0
C419 C 1.03265 0.35806 0.12584 0.0
C420 C 0.04943 0.34147 0.18671 0.0
H421 H 1.01068 0.3504 0.01854 0.0
H422 H 1.02295 0.38636 0.12827 0.0
C423 C 0.06138 0.30452 0.18091 0.0
C424 C 0.7692 1.01901 0.28681 0.0
C425 C 0.73232 1.03101 0.28129 0.0
H426 H 0.81864 1.01815 0.35059 0.0
C427 C 0.71555 0.04701 0.34285 0.0
H428 H 0.78303 1.0064 0.24073 0.0
C429 C 0.73616 0.05378 0.40599 0.0
C430 C 0.77392 0.04488 0.40865 0.0
H431 H 0.6873 0.05672 0.34064 0.0
H432 H 0.72293 0.06771 0.45128 0.0
C433 C 0.78984 1.02618 0.3495 0.0
C434 C 0.52424 0.74383 0.40713 0.0
C435 C 0.53265 0.78176 0.41 0.0
H436 H 0.52254 0.69477 0.34191 0.0
C437 C 0.55161 0.79789 0.35143 0.0
H438 H 0.51013 0.73045 0.45198 0.0
C439 C 0.5596 0.77723 0.28908 0.0
C440 C 0.54817 0.74011 0.2833 0.0
H441 H 0.55925 0.82684 0.35272 0.0
H442 H 0.57242 0.7912 0.24341 0.0
C443 C 0.53183 0.72321 0.34433 0.0
C444 C 0.78171 0.54778 0.34173 0.0
C445 C 0.79796 0.52937 0.40082 0.0
H446 H 0.78821 0.56785 0.23313 0.0
C447 C 0.83588 0.52116 0.39811 0.0
H448 H 0.75276 0.55525 0.34284 0.0
C449 C 0.85639 0.52841 0.33505 0.0
C450 C 0.83939 0.54423 0.27362 0.0
H451 H 0.84935 0.50746 0.44334 0.0
H452 H 0.88484 0.51928 0.33285 0.0
C453 C 0.80225 0.55544 0.27912 0.0
C454 C 1.02039 0.80473 0.27864 0.0
C455 C 1.03208 0.84177 0.27296 0.0
H456 H 1.02009 0.75522 0.34245 0.0
C457 C 0.04818 0.85866 0.33429 0.0
H458 H 1.00775 0.79077 0.23275 0.0
C459 C 0.05527 0.8381 0.39734 0.0
C460 C 0.04662 0.80022 0.40015 0.0
H461 H 0.05766 0.88704 0.33198 0.0
H462 H 0.06922 0.85145 0.44244 0.0
C463 C 1.0279 0.78412 0.34123 0.0
C464 C 0.50126 0.0494 0.02524 0.0
C465 C 0.49927 1.03196 0.95687 0.0
H466 H 0.53594 0.07026 0.11044 0.0
C467 C 0.53243 1.02195 0.92199 0.0
H468 H 0.47634 0.05735 0.05383 0.0
C469 C 0.56668 1.0292 0.95461 0.0
C470 C 0.56867 0.04662 0.023 0.0
H471 H 0.53199 1.00832 0.86943 0.0
H472 H 0.5916 1.02124 0.92603 0.0
C473 C 0.5355 0.05664 0.05786 0.0
C474 C 0.55861 0.53968 0.92297 0.0
C475 C 0.54834 0.50648 0.95756 0.0
H476 H 0.55975 0.59892 0.92745 0.0
C477 C 0.53102 0.50849 0.02602 0.0
H478 H 0.57216 0.53923 0.87036 0.0
C479 C 0.52406 0.54279 0.05891 0.0
C480 C 0.53426 0.57599 0.02425 0.0
H481 H 0.52289 0.48354 0.05439 0.0
H482 H 0.51047 0.54324 0.11148 0.0
C483 C 0.55166 0.57398 0.95587 0.0
C484 C 1.00572 0.54911 0.94767 0.0
C485 C 1.00379 0.53163 0.01597 0.0
H486 H 0.04031 0.57016 0.86253 0.0
C487 C 1.03699 0.5218 0.05085 0.0
H488 H 0.98076 0.55692 0.91908 0.0
C489 C 0.07121 0.52924 0.01827 0.0
C490 C 0.07313 0.54668 0.94991 0.0
H491 H 1.03661 0.50816 0.10337 0.0
H492 H 0.09616 0.52141 0.04683 0.0
C493 C 0.03993 0.55654 0.91508 0.0
C494 C 0.05339 0.072 0.01442 0.0
C495 C 1.0364 0.07389 0.94564 0.0
H496 H 0.07359 1.03739 0.10036 0.0
C497 C 1.02663 0.04061 0.91072 0.0
H498 H 0.06115 0.09702 0.04304 0.0
C499 C 1.03356 1.00637 0.94377 0.0
C500 C 0.05047 1.00449 0.01262 0.0
H501 H 1.01336 0.04096 0.85784 0.0
H502 H 1.02573 0.98137 0.91519 0.0
C503 C 0.06036 1.03775 0.04744 0.0
C504 C 0.06702 0.04494 0.52603 0.0
C505 C 0.06904 1.02738 0.45778 0.0
H506 H 1.0323 0.066 0.61101 0.0
C507 C 1.03589 1.01716 0.42309 0.0
H508 H 0.09192 0.05305 0.55449 0.0
C509 C 1.00164 1.02443 0.45566 0.0
C510 C 0.99961 0.04209 0.52382 0.0
H511 H 1.03635 1.00343 0.37063 0.0
H512 H 0.97673 1.01638 0.42715 0.0
C513 C 1.03276 0.05221 0.5586 0.0
C514 C 0.54837 1.00886 0.45529 0.0
C515 C 0.53118 1.00693 0.52388 0.0
H516 H 0.5688 0.04352 0.36961 0.0
C517 C 0.52112 0.04017 0.55859 0.0
H518 H 0.55635 0.98387 0.42683 0.0
C519 C 0.52807 0.07443 0.5256 0.0
C520 C 0.54527 0.07636 0.45703 0.0
H521 H 0.50768 0.03979 0.61131 0.0
H522 H 0.52009 0.09941 0.55408 0.0
C523 C 0.55535 0.04312 0.42233 0.0
C524 C 0.53998 0.51848 0.54999 0.0
C525 C 0.5732 0.52845 0.51528 0.0
H526 H 0.48081 0.51805 0.54591 0.0
C527 C 0.5713 0.54597 0.44701 0.0
H528 H 0.54035 0.50479 0.60247 0.0
C529 C 0.5371 0.55341 0.41442 0.0
C530 C 0.50388 0.54351 0.4492 0.0
H531 H 0.59627 0.55389 0.41853 0.0
H532 H 0.53674 0.56713 0.36197 0.0
C533 C 0.50578 0.52593 0.5174 0.0
C534 C 1.03052 0.57254 0.44488 0.0
C535 C 0.04796 0.57455 0.51319 0.0
H536 H 1.0099 0.53779 0.35947 0.0
C537 C 0.05829 0.54135 0.54769 0.0
H538 H 1.02233 0.59748 0.41657 0.0
C539 C 0.05132 0.50705 0.51478 0.0
C540 C 1.03386 0.50504 0.44648 0.0
H541 H 0.07194 0.5418 0.60019 0.0
H542 H 0.05951 0.48211 0.54309 0.0
C543 C 1.02354 0.53824 0.41198 0.0
loop_
_geom_bond_atom_site_label_1
_geom_bond_atom_site_label_2
_geom_bond_distance
_geom_bond_site_symmetry_2
_ccdc_geom_bond_type
O0 Cd1 2.223 . S
O0 C8 1.315 . S
Cd1 O0 2.223 . S
Cd1 O4 2.297 1_554 S
Cd1 O5 2.439 1_554 S
Cd1 O11 2.240 . S
Cd2 O3 2.240 . S
Cd2 O10 2.223 . S
Cd2 O12 2.297 1_545 S
Cd2 O13 2.438 1_554 S
O3 Cd2 2.240 . S
O3 C8 1.279 . S
O4 Cd1 2.297 1_556 S
O4 C6 1.247 . S
O5 Cd1 2.439 1_556 S
O5 C6 1.208 . S
C6 O4 1.247 . S
C6 O5 1.208 . S
C7 O12 1.247 . S
C7 O13 1.208 1_564 S
C8 O0 1.315 . S
C8 O3 1.279 . S
C9 O10 1.315 . S
C9 O11 1.279 . S
O10 Cd2 2.223 . S
O10 C9 1.315 . S
O11 Cd1 2.240 . S
O11 C9 1.279 . S
O12 Cd2 2.297 1_565 S
O12 C7 1.247 . S
O13 Cd2 2.438 1_556 S
O13 C7 1.208 1_546 S
O14 Cd15 2.223 . S
O14 C22 1.315 . S
Cd15 O14 2.223 . S
Cd15 O18 2.297 1_554 S
Cd15 O19 2.439 1_554 S
Cd15 O25 2.240 . S
Cd16 O17 2.240 . S
Cd16 O24 2.223 . S
Cd16 O26 2.297 . S
Cd16 O27 2.439 1_554 S
O17 Cd16 2.240 . S
O17 C22 1.279 . S
O18 Cd15 2.297 1_556 S
O18 C20 1.247 . S
O19 Cd15 2.439 1_556 S
O19 C20 1.208 . S
C20 O18 1.247 . S
C20 O19 1.208 . S
C21 O26 1.247 . S
C21 O27 1.208 1_554 S
C22 O14 1.315 . S
C22 O17 1.279 . S
C23 O24 1.315 . S
C23 O25 1.279 . S
O24 Cd16 2.223 . S
O24 C23 1.315 . S
O25 Cd15 2.240 . S
O25 C23 1.279 . S
O26 Cd16 2.297 . S
O26 C21 1.247 . S
O27 Cd16 2.439 1_556 S
O27 C21 1.208 1_556 S
O28 Cd29 2.223 . S
O28 C36 1.315 . S
Cd29 O28 2.223 . S
Cd29 O32 2.297 1_554 S
Cd29 O33 2.439 1_554 S
Cd29 O39 2.240 . S
Cd30 O31 2.240 . S
Cd30 O38 2.223 . S
Cd30 O40 2.297 . S
Cd30 O41 2.438 1_554 S
O31 Cd30 2.240 . S
O31 C36 1.279 . S
O32 Cd29 2.297 1_556 S
O32 C34 1.247 . S
O33 Cd29 2.439 1_556 S
O33 C34 1.208 . S
C34 O32 1.247 . S
C34 O33 1.208 . S
C35 O40 1.247 . S
C35 O41 1.208 1_554 S
C36 O28 1.315 . S
C36 O31 1.279 . S
C37 O38 1.315 . S
C37 O39 1.279 . S
O38 Cd30 2.223 . S
O38 C37 1.315 . S
O39 Cd29 2.240 . S
O39 C37 1.279 . S
O40 Cd30 2.297 . S
O40 C35 1.247 . S
O41 Cd30 2.438 1_556 S
O41 C35 1.208 1_556 S
O42 Cd43 2.223 . S
O42 C50 1.315 . S
Cd43 O42 2.223 . S
Cd43 O46 2.297 1_554 S
Cd43 O47 2.439 1_554 S
Cd43 O53 2.240 . S
Cd44 O45 2.240 . S
Cd44 O52 2.223 . S
Cd44 O54 2.297 1_455 S
Cd44 O55 2.439 1_554 S
O45 Cd44 2.240 . S
O45 C50 1.279 . S
O46 Cd43 2.297 1_556 S
O46 C48 1.247 . S
O47 Cd43 2.439 1_556 S
O47 C48 1.208 . S
C48 O46 1.247 . S
C48 O47 1.208 . S
C49 O54 1.247 . S
C49 O55 1.208 1_654 S
C50 O42 1.315 . S
C50 O45 1.279 . S
C51 O52 1.315 . S
C51 O53 1.279 . S
O52 Cd44 2.223 . S
O52 C51 1.315 . S
O53 Cd43 2.240 . S
O53 C51 1.279 . S
O54 Cd44 2.297 1_655 S
O54 C49 1.247 . S
O55 Cd44 2.439 1_556 S
O55 C49 1.208 1_456 S
O56 Cd57 2.223 . S
O56 C64 1.315 . S
Cd57 O56 2.223 . S
Cd57 O60 2.297 . S
Cd57 O61 2.439 . S
Cd57 O67 2.240 . S
Cd58 O59 2.240 . S
Cd58 O66 2.223 . S
Cd58 O68 2.297 1_565 S
Cd58 O69 2.439 . S
O59 Cd58 2.240 . S
O59 C64 1.279 . S
O60 Cd57 2.297 . S
O60 C62 1.247 . S
O61 Cd57 2.439 . S
O61 C62 1.208 . S
C62 O60 1.247 . S
C62 O61 1.208 . S
C63 O68 1.247 . S
C63 O69 1.208 1_545 S
C64 O56 1.315 . S
C64 O59 1.279 . S
C65 O66 1.315 . S
C65 O67 1.279 . S
O66 Cd58 2.223 . S
O66 C65 1.315 . S
O67 Cd57 2.240 . S
O67 C65 1.279 . S
O68 Cd58 2.297 1_545 S
O68 C63 1.247 . S
O69 Cd58 2.439 . S
O69 C63 1.208 1_565 S
O70 Cd71 2.223 . S
O70 C78 1.315 . S
Cd71 O70 2.223 . S
Cd71 O74 2.297 . S
Cd71 O75 2.439 . S
Cd71 O81 2.240 . S
Cd72 O73 2.240 . S
Cd72 O80 2.223 . S
Cd72 O82 2.297 . S
Cd72 O83 2.439 . S
O73 Cd72 2.240 . S
O73 C78 1.279 . S
O74 Cd71 2.297 . S
O74 C76 1.247 . S
O75 Cd71 2.439 . S
O75 C76 1.208 . S
C76 O74 1.247 . S
C76 O75 1.208 . S
C77 O82 1.247 . S
C77 O83 1.208 . S
C78 O70 1.315 . S
C78 O73 1.279 . S
C79 O80 1.315 . S
C79 O81 1.279 . S
O80 Cd72 2.223 . S
O80 C79 1.315 . S
O81 Cd71 2.240 . S
O81 C79 1.279 . S
O82 Cd72 2.297 . S
O82 C77 1.247 . S
O83 Cd72 2.439 . S
O83 C77 1.208 . S
O84 Cd85 2.223 . S
O84 C92 1.315 . S
Cd85 O84 2.223 . S
Cd85 O88 2.297 . S
Cd85 O89 2.439 . S
Cd85 O95 2.240 . S
Cd86 O87 2.240 . S
Cd86 O94 2.223 . S
Cd86 O96 2.297 . S
Cd86 O97 2.439 . S
O87 Cd86 2.240 . S
O87 C92 1.279 . S
O88 Cd85 2.297 . S
O88 C90 1.247 . S
O89 Cd85 2.439 . S
O89 C90 1.208 . S
C90 O88 1.247 . S
C90 O89 1.208 . S
C91 O96 1.247 . S
C91 O97 1.208 . S
C92 O84 1.315 . S
C92 O87 1.279 . S
C93 O94 1.315 . S
C93 O95 1.279 . S
O94 Cd86 2.223 . S
O94 C93 1.315 . S
O95 Cd85 2.240 . S
O95 C93 1.279 . S
O96 Cd86 2.297 . S
O96 C91 1.247 . S
O97 Cd86 2.439 . S
O97 C91 1.208 . S
O98 Cd99 2.223 . S
O98 C106 1.315 . S
Cd99 O98 2.223 . S
Cd99 O102 2.297 . S
Cd99 O103 2.439 . S
Cd99 O109 2.240 . S
Cd100 O101 2.240 . S
Cd100 O108 2.223 . S
Cd100 O110 2.297 1_655 S
Cd100 O111 2.439 . S
O101 Cd100 2.240 . S
O101 C106 1.279 . S
O102 Cd99 2.297 . S
O102 C104 1.247 . S
O103 Cd99 2.439 . S
O103 C104 1.208 . S
C104 O102 1.247 . S
C104 O103 1.208 . S
C105 O110 1.247 . S
C105 O111 1.208 1_455 S
C106 O98 1.315 . S
C106 O101 1.279 . S
C107 O108 1.315 . S
C107 O109 1.279 . S
O108 Cd100 2.223 . S
O108 C107 1.315 . S
O109 Cd99 2.240 . S
O109 C107 1.279 . S
O110 Cd100 2.297 1_455 S
O110 C105 1.247 . S
O111 Cd100 2.439 . S
O111 C105 1.208 1_655 S
O112 Cd113 2.223 . S
O112 C120 1.315 . S
Cd113 O112 2.223 . S
Cd113 O116 2.297 1_556 S
Cd113 O117 2.439 1_556 S
Cd113 O123 2.240 . S
Cd114 O115 2.240 . S
Cd114 O122 2.223 . S
Cd114 O124 2.297 1_565 S
Cd114 O125 2.438 1_556 S
O115 Cd114 2.240 . S
O115 C120 1.279 . S
O116 Cd113 2.297 1_554 S
O116 C118 1.247 . S
O117 Cd113 2.439 1_554 S
O117 C118 1.208 . S
C118 O116 1.247 . S
C118 O117 1.208 . S
C119 O124 1.247 . S
C119 O125 1.208 1_546 S
C120 O112 1.315 . S
C120 O115 1.279 . S
C121 O122 1.315 . S
C121 O123 1.279 . S
O122 Cd114 2.223 . S
O122 C121 1.315 . S
O123 Cd113 2.240 . S
O123 C121 1.279 . S
O124 Cd114 2.297 1_545 S
O124 C119 1.247 . S
O125 Cd114 2.438 1_554 S
O125 C119 1.208 1_564 S
O126 Cd127 2.223 . S
O126 C134 1.315 . S
Cd127 O126 2.223 . S
Cd127 O130 2.297 1_556 S
Cd127 O131 2.439 1_556 S
Cd127 O137 2.240 . S
Cd128 O129 2.240 . S
Cd128 O136 2.223 . S
Cd128 O138 2.297 . S
Cd128 O139 2.439 1_556 S
O129 Cd128 2.240 . S
O129 C134 1.279 . S
O130 Cd127 2.297 1_554 S
O130 C132 1.247 . S
O131 Cd127 2.439 1_554 S
O131 C132 1.208 . S
C132 O130 1.247 . S
C132 O131 1.208 . S
C133 O138 1.247 . S
C133 O139 1.208 1_556 S
C134 O126 1.315 . S
C134 O129 1.279 . S
C135 O136 1.315 . S
C135 O137 1.279 . S
O136 Cd128 2.223 . S
O136 C135 1.315 . S
O137 Cd127 2.240 . S
O137 C135 1.279 . S
O138 Cd128 2.297 . S
O138 C133 1.247 . S
O139 Cd128 2.439 1_554 S
O139 C133 1.208 1_554 S
O140 Cd141 2.223 . S
O140 C148 1.315 . S
Cd141 O140 2.223 . S
Cd141 O144 2.297 1_556 S
Cd141 O145 2.439 1_556 S
Cd141 O151 2.240 . S
Cd142 O143 2.240 . S
Cd142 O150 2.223 . S
Cd142 O152 2.297 . S
Cd142 O153 2.438 1_556 S
O143 Cd142 2.240 . S
O143 C148 1.279 . S
O144 Cd141 2.297 1_554 S
O144 C146 1.247 . S
O145 Cd141 2.439 1_554 S
O145 C146 1.208 . S
C146 O144 1.247 . S
C146 O145 1.208 . S
C147 O152 1.247 . S
C147 O153 1.208 1_556 S
C148 O140 1.315 . S
C148 O143 1.279 . S
C149 O150 1.315 . S
C149 O151 1.279 . S
O150 Cd142 2.223 . S
O150 C149 1.315 . S
O151 Cd141 2.240 . S
O151 C149 1.279 . S
O152 Cd142 2.297 . S
O152 C147 1.247 . S
O153 Cd142 2.438 1_554 S
O153 C147 1.208 1_554 S
O154 Cd155 2.223 . S
O154 C162 1.315 . S
Cd155 O154 2.223 . S
Cd155 O158 2.297 1_556 S
Cd155 O159 2.439 1_556 S
Cd155 O165 2.240 . S
Cd156 O157 2.240 . S
Cd156 O164 2.223 . S
Cd156 O166 2.297 1_655 S
Cd156 O167 2.439 1_556 S
O157 Cd156 2.240 . S
O157 C162 1.279 . S
O158 Cd155 2.297 1_554 S
O158 C160 1.247 . S
O159 Cd155 2.439 1_554 S
O159 C160 1.208 . S
C160 O158 1.247 . S
C160 O159 1.208 . S
C161 O166 1.247 . S
C161 O167 1.208 1_456 S
C162 O154 1.315 . S
C162 O157 1.279 . S
C163 O164 1.315 . S
C163 O165 1.279 . S
O164 Cd156 2.223 . S
O164 C163 1.315 . S
O165 Cd155 2.240 . S
O165 C163 1.279 . S
O166 Cd156 2.297 1_455 S
O166 C161 1.247 . S
O167 Cd156 2.439 1_554 S
O167 C161 1.208 1_654 S
O168 Cd169 2.223 . S
O168 C176 1.315 . S
Cd169 O168 2.223 . S
Cd169 O172 2.297 . S
Cd169 O173 2.439 . S
Cd169 O179 2.240 . S
Cd170 O171 2.240 . S
Cd170 O178 2.223 . S
Cd170 O180 2.297 1_545 S
Cd170 O181 2.439 . S
O171 Cd170 2.240 . S
O171 C176 1.279 . S
O172 Cd169 2.297 . S
O172 C174 1.247 . S
O173 Cd169 2.439 . S
O173 C174 1.208 . S
C174 O172 1.247 . S
C174 O173 1.208 . S
C175 O180 1.247 . S
C175 O181 1.208 1_565 S
C176 O168 1.315 . S
C176 O171 1.279 . S
C177 O178 1.315 . S
C177 O179 1.279 . S
O178 Cd170 2.223 . S
O178 C177 1.315 . S
O179 Cd169 2.240 . S
O179 C177 1.279 . S
O180 Cd170 2.297 1_565 S
O180 C175 1.247 . S
O181 Cd170 2.439 . S
O181 C175 1.208 1_545 S
O182 Cd183 2.223 . S
O182 C190 1.315 . S
Cd183 O182 2.223 . S
Cd183 O186 2.297 . S
Cd183 O187 2.439 . S
Cd183 O193 2.240 . S
Cd184 O185 2.240 . S
Cd184 O192 2.223 . S
Cd184 O194 2.297 . S
Cd184 O195 2.439 . S
O185 Cd184 2.240 . S
O185 C190 1.279 . S
O186 Cd183 2.297 . S
O186 C188 1.247 . S
O187 Cd183 2.439 . S
O187 C188 1.208 . S
C188 O186 1.247 . S
C188 O187 1.208 . S
C189 O194 1.247 . S
C189 O195 1.208 . S
C190 O182 1.315 . S
C190 O185 1.279 . S
C191 O192 1.315 . S
C191 O193 1.279 . S
O192 Cd184 2.223 . S
O192 C191 1.315 . S
O193 Cd183 2.240 . S
O193 C191 1.279 . S
O194 Cd184 2.297 . S
O194 C189 1.247 . S
O195 Cd184 2.439 . S
O195 C189 1.208 . S
O196 Cd197 2.223 . S
O196 C204 1.315 . S
Cd197 O196 2.223 . S
Cd197 O200 2.297 . S
Cd197 O201 2.439 . S
Cd197 O207 2.240 . S
Cd198 O199 2.240 . S
Cd198 O206 2.223 . S
Cd198 O208 2.297 . S
Cd198 O209 2.439 . S
O199 Cd198 2.240 . S
O199 C204 1.279 . S
O200 Cd197 2.297 . S
O200 C202 1.247 . S
O201 Cd197 2.439 . S
O201 C202 1.208 . S
C202 O200 1.247 . S
C202 O201 1.208 . S
C203 O208 1.247 . S
C203 O209 1.208 . S
C204 O196 1.315 . S
C204 O199 1.279 . S
C205 O206 1.315 . S
C205 O207 1.279 . S
O206 Cd198 2.223 . S
O206 C205 1.315 . S
O207 Cd197 2.240 . S
O207 C205 1.279 . S
O208 Cd198 2.297 . S
O208 C203 1.247 . S
O209 Cd198 2.439 . S
O209 C203 1.208 . S
O210 Cd211 2.223 . S
O210 C218 1.315 . S
Cd211 O210 2.223 . S
Cd211 O214 2.297 . S
Cd211 O215 2.439 . S
Cd211 O221 2.240 . S
Cd212 O213 2.240 . S
Cd212 O220 2.223 . S
Cd212 O222 2.297 1_455 S
Cd212 O223 2.439 . S
O213 Cd212 2.240 . S
O213 C218 1.279 . S
O214 Cd211 2.297 . S
O214 C216 1.247 . S
O215 Cd211 2.439 . S
O215 C216 1.208 . S
C216 O214 1.247 . S
C216 O215 1.208 . S
C217 O222 1.247 . S
C217 O223 1.208 1_655 S
C218 O210 1.315 . S
C218 O213 1.279 . S
C219 O220 1.315 . S
C219 O221 1.279 . S
O220 Cd212 2.223 . S
O220 C219 1.315 . S
O221 Cd211 2.240 . S
O221 C219 1.279 . S
O222 Cd212 2.297 1_655 S
O222 C217 1.247 . S
O223 Cd212 2.439 . S
O223 C217 1.208 1_455 S
C224 C225 1.387 . S
C224 H228 0.950 . S
C224 C233 1.390 . S
C225 C224 1.387 . S
C225 C227 1.387 . S
H226 C233 0.950 . S
C227 C225 1.387 . S
C227 C229 1.390 . S
C227 H231 0.950 . S
H228 C224 0.950 . S
C229 C227 1.390 . S
C229 C230 1.387 . S
C229 H232 0.950 . S
C230 C229 1.387 . S
C230 C233 1.387 . S
H231 C227 0.950 . S
H232 C229 0.950 . S
C233 C224 1.390 . S
C233 H226 0.950 . S
C233 C230 1.387 . S
C234 C235 1.387 . S
C234 H238 0.950 . S
C234 C243 1.390 . S
C235 C234 1.387 . S
C235 C237 1.387 . S
H236 C243 0.950 . S
C237 C235 1.387 . S
C237 C239 1.390 . S
C237 H241 0.950 . S
H238 C234 0.950 . S
C239 C237 1.390 . S
C239 C240 1.387 . S
C239 H242 0.950 . S
C240 C239 1.387 . S
C240 C243 1.387 . S
H241 C237 0.950 . S
H242 C239 0.950 . S
C243 C234 1.390 . S
C243 H236 0.950 . S
C243 C240 1.387 . S
C244 C245 1.387 . S
C244 H248 0.950 . S
C244 C253 1.390 . S
C245 C244 1.387 . S
C245 C247 1.387 . S
H246 C253 0.950 . S
C247 C245 1.387 . S
C247 C249 1.390 . S
C247 H251 0.950 . S
H248 C244 0.950 . S
C249 C247 1.390 . S
C249 C250 1.387 . S
C249 H252 0.950 . S
C250 C249 1.387 . S
C250 C253 1.387 . S
H251 C247 0.950 . S
H252 C249 0.950 . S
C253 C244 1.390 . S
C253 H246 0.950 . S
C253 C250 1.387 . S
C254 C255 1.387 . S
C254 H258 0.950 . S
C254 C263 1.390 . S
C255 C254 1.387 . S
C255 C257 1.387 . S
H256 C263 0.950 . S
C257 C255 1.387 . S
C257 C259 1.390 . S
C257 H261 0.950 . S
H258 C254 0.950 . S
C259 C257 1.390 . S
C259 C260 1.387 . S
C259 H262 0.950 . S
C260 C259 1.387 . S
C260 C263 1.387 . S
H261 C257 0.950 . S
H262 C259 0.950 . S
C263 C254 1.390 . S
C263 H256 0.950 . S
C263 C260 1.387 . S
C264 C265 1.387 . S
C264 H268 0.950 . S
C264 C273 1.390 . S
C265 C264 1.387 . S
C265 C267 1.387 . S
H266 C273 0.950 . S
C267 C265 1.387 . S
C267 C269 1.390 . S
C267 H271 0.950 . S
H268 C264 0.950 . S
C269 C267 1.390 . S
C269 C270 1.387 . S
C269 H272 0.950 . S
C270 C269 1.387 . S
C270 C273 1.387 . S
H271 C267 0.950 . S
H272 C269 0.950 . S
C273 C264 1.390 . S
C273 H266 0.950 . S
C273 C270 1.387 . S
C274 C275 1.387 . S
C274 H278 0.950 . S
C274 C283 1.390 . S
C275 C274 1.387 . S
C275 C277 1.387 . S
H276 C283 0.950 . S
C277 C275 1.387 . S
C277 C279 1.390 . S
C277 H281 0.950 . S
H278 C274 0.950 . S
C279 C277 1.390 . S
C279 C280 1.387 . S
C279 H282 0.950 . S
C280 C279 1.387 . S
C280 C283 1.387 . S
H281 C277 0.950 . S
H282 C279 0.950 . S
C283 C274 1.390 . S
C283 H276 0.950 . S
C283 C280 1.387 . S
C284 C285 1.387 . S
C284 H288 0.950 . S
C284 C293 1.390 . S
C285 C284 1.387 . S
C285 C287 1.387 . S
H286 C293 0.950 . S
C287 C285 1.387 . S
C287 C289 1.390 . S
C287 H291 0.950 . S
H288 C284 0.950 . S
C289 C287 1.390 . S
C289 C290 1.387 . S
C289 H292 0.950 . S
C290 C289 1.387 . S
C290 C293 1.387 . S
H291 C287 0.950 . S
H292 C289 0.950 . S
C293 C284 1.390 . S
C293 H286 0.950 . S
C293 C290 1.387 . S
C294 C295 1.387 . S
C294 H298 0.950 . S
C294 C303 1.390 . S
C295 C294 1.387 . S
C295 C297 1.387 . S
H296 C303 0.950 . S
C297 C295 1.387 . S
C297 C299 1.390 . S
C297 H301 0.950 . S
H298 C294 0.950 . S
C299 C297 1.390 . S
C299 C300 1.387 . S
C299 H302 0.950 . S
C300 C299 1.387 . S
C300 C303 1.387 . S
H301 C297 0.950 . S
H302 C299 0.950 . S
C303 C294 1.390 . S
C303 H296 0.950 . S
C303 C300 1.387 . S
C304 C305 1.387 . S
C304 H308 0.950 . S
C304 C313 1.390 . S
C305 C304 1.387 . S
C305 C307 1.387 . S
H306 C313 0.950 . S
C307 C305 1.387 . S
C307 C309 1.396 . S
C307 H311 0.950 1_545 S
H308 C304 0.950 . S
C309 C307 1.396 . S
C309 C310 1.414 . S
C309 H312 0.917 1_545 S
C310 C309 1.414 . S
C310 C313 1.387 . S
H311 C307 0.950 1_565 S
H312 C309 0.917 1_565 S
C313 C304 1.390 . S
C313 H306 0.950 . S
C313 C310 1.387 . S
C314 C315 1.387 . S
C314 H318 0.950 . S
C314 C323 1.390 . S
C315 C314 1.387 . S
C315 C317 1.387 . S
H316 C323 0.950 . S
C317 C315 1.387 . S
C317 C319 1.390 . S
C317 H321 0.950 . S
H318 C314 0.950 . S
C319 C317 1.390 . S
C319 C320 1.387 . S
C319 H322 0.950 . S
C320 C319 1.387 . S
C320 C323 1.387 . S
H321 C317 0.950 . S
H322 C319 0.950 . S
C323 C314 1.390 . S
C323 H316 0.950 . S
C323 C320 1.387 . S
C324 C325 1.387 . S
C324 H328 0.950 . S
C324 C333 1.390 . S
C325 C324 1.387 . S
C325 C327 1.387 . S
H326 C333 0.950 . S
C327 C325 1.387 . S
C327 C329 1.390 . S
C327 H331 0.950 . S
H328 C324 0.950 . S
C329 C327 1.390 . S
C329 C330 1.387 . S
C329 H332 0.950 . S
C330 C329 1.387 . S
C330 C333 1.387 . S
H331 C327 0.950 . S
H332 C329 0.950 . S
C333 C324 1.390 . S
C333 H326 0.950 . S
C333 C330 1.387 . S
C334 C335 1.387 . S
C334 H338 0.950 . S
C334 C343 1.390 . S
C335 C334 1.387 . S
C335 C337 1.387 . S
H336 C343 0.950 . S
C337 C335 1.387 . S
C337 C339 1.390 . S
C337 H341 0.950 . S
H338 C334 0.950 . S
C339 C337 1.390 . S
C339 C340 1.387 . S
C339 H342 0.950 1_455 S
C340 C339 1.387 . S
C340 C343 1.387 . S
H341 C337 0.950 . S
H342 C339 0.950 1_655 S
C343 C334 1.390 . S
C343 H336 0.950 . S
C343 C340 1.387 . S
C344 C345 1.387 . S
C344 H348 0.950 . S
C344 C353 1.390 . S
C345 C344 1.387 . S
C345 C347 1.387 . S
H346 C353 0.950 . S
C347 C345 1.387 . S
C347 C349 1.390 . S
C347 H351 0.950 1_565 S
H348 C344 0.950 . S
C349 C347 1.390 . S
C349 C350 1.387 . S
C349 H352 0.950 1_565 S
C350 C349 1.387 . S
C350 C353 1.387 . S
H351 C347 0.950 1_545 S
H352 C349 0.950 1_545 S
C353 C344 1.390 . S
C353 H346 0.950 . S
C353 C350 1.387 . S
C354 C355 1.387 . S
C354 H358 0.950 . S
C354 C363 1.390 . S
C355 C354 1.387 . S
C355 C357 1.387 . S
H356 C363 0.950 . S
C357 C355 1.387 . S
C357 C359 1.390 . S
C357 H361 0.950 . S
H358 C354 0.950 . S
C359 C357 1.390 . S
C359 C360 1.387 . S
C359 H362 0.950 . S
C360 C359 1.387 . S
C360 C363 1.387 . S
H361 C357 0.950 . S
H362 C359 0.950 . S
C363 C354 1.390 . S
C363 H356 0.950 . S
C363 C360 1.387 . S
C364 C365 1.387 . S
C364 H368 0.950 . S
C364 C373 1.390 . S
C365 C364 1.387 . S
C365 C367 1.387 . S
H366 C373 0.950 . S
C367 C365 1.387 . S
C367 C369 1.390 . S
C367 H371 0.950 . S
H368 C364 0.950 . S
C369 C367 1.390 . S
C369 C370 1.387 . S
C369 H372 0.950 . S
C370 C369 1.387 . S
C370 C373 1.387 . S
H371 C367 0.950 . S
H372 C369 0.950 . S
C373 C364 1.390 . S
C373 H366 0.950 . S
C373 C370 1.387 . S
C374 C375 1.387 . S
C374 H378 0.950 1_655 S
C374 C383 1.390 . S
C375 C374 1.387 . S
C375 C377 1.387 . S
H376 C383 0.950 1_455 S
C377 C375 1.387 . S
C377 C379 1.390 . S
C377 H381 0.950 . S
H378 C374 0.950 1_455 S
C379 C377 1.390 . S
C379 C380 1.387 . S
C379 H382 0.950 . S
C380 C379 1.387 . S
C380 C383 1.387 . S
H381 C377 0.950 . S
H382 C379 0.950 . S
C383 C374 1.390 . S
C383 H376 0.950 1_655 S
C383 C380 1.387 . S
C384 C385 1.387 . S
C384 H388 0.950 1_565 S
C384 C393 1.390 . S
C385 C384 1.387 . S
C385 C387 1.387 . S
H386 C393 0.950 1_545 S
C387 C385 1.387 . S
C387 C389 1.390 . S
C387 H391 0.950 . S
H388 C384 0.950 1_545 S
C389 C387 1.390 . S
C389 C390 1.387 . S
C389 H392 0.950 . S
C390 C389 1.387 . S
C390 C393 1.387 . S
H391 C387 0.950 . S
H392 C389 0.950 . S
C393 C384 1.390 . S
C393 H386 0.950 1_565 S
C393 C390 1.387 . S
C394 C395 1.387 . S
C394 H398 0.950 . S
C394 C403 1.390 . S
C395 C394 1.387 . S
C395 C397 1.387 . S
H396 C403 0.950 . S
C397 C395 1.387 . S
C397 C399 1.390 . S
C397 H401 0.950 . S
H398 C394 0.950 . S
C399 C397 1.390 . S
C399 C400 1.387 . S
C399 H402 0.950 . S
C400 C399 1.387 . S
C400 C403 1.387 . S
H401 C397 0.950 . S
H402 C399 0.950 . S
C403 C394 1.390 . S
C403 H396 0.950 . S
C403 C400 1.387 . S
C404 C405 1.387 . S
C404 H408 0.950 . S
C404 C413 1.390 . S
C405 C404 1.387 . S
C405 C407 1.387 . S
H406 C413 0.950 . S
C407 C405 1.387 . S
C407 C409 1.390 . S
C407 H411 0.950 . S
H408 C404 0.950 . S
C409 C407 1.390 . S
C409 C410 1.387 . S
C409 H412 0.950 . S
C410 C409 1.387 . S
C410 C413 1.387 . S
H411 C407 0.950 . S
H412 C409 0.950 . S
C413 C404 1.390 . S
C413 H406 0.950 . S
C413 C410 1.387 . S
C414 C415 1.387 . S
C414 H418 0.950 1_655 S
C414 C423 1.390 . S
C415 C414 1.387 . S
C415 C417 1.387 . S
H416 C423 0.950 1_455 S
C417 C415 1.387 . S
C417 C419 1.390 . S
C417 H421 0.950 . S
H418 C414 0.950 1_455 S
C419 C417 1.390 . S
C419 C420 1.387 . S
C419 H422 0.950 . S
C420 C419 1.387 . S
C420 C423 1.387 . S
H421 C417 0.950 . S
H422 C419 0.950 . S
C423 C414 1.390 . S
C423 H416 0.950 1_655 S
C423 C420 1.387 . S
C424 C425 1.387 . S
C424 H428 0.950 . S
C424 C433 1.390 . S
C425 C424 1.387 . S
C425 C427 1.387 . S
H426 C433 0.950 . S
C427 C425 1.387 . S
C427 C429 1.390 . S
C427 H431 0.950 1_545 S
H428 C424 0.950 . S
C429 C427 1.390 . S
C429 C430 1.387 . S
C429 H432 0.950 1_545 S
C430 C429 1.387 . S
C430 C433 1.387 . S
H431 C427 0.950 1_565 S
H432 C429 0.950 1_565 S
C433 C424 1.390 . S
C433 H426 0.950 . S
C433 C430 1.387 . S
C434 C435 1.387 . S
C434 H438 0.950 . S
C434 C443 1.390 . S
C435 C434 1.387 . S
C435 C437 1.387 . S
H436 C443 0.950 . S
C437 C435 1.387 . S
C437 C439 1.390 . S
C437 H441 0.950 . S
H438 C434 0.950 . S
C439 C437 1.390 . S
C439 C440 1.387 . S
C439 H442 0.950 . S
C440 C439 1.387 . S
C440 C443 1.387 . S
H441 C437 0.950 . S
H442 C439 0.950 . S
C443 C434 1.390 . S
C443 H436 0.950 . S
C443 C440 1.387 . S
C444 C445 1.387 . S
C444 H448 0.950 . S
C444 C453 1.390 . S
C445 C444 1.387 . S
C445 C447 1.387 . S
H446 C453 0.950 . S
C447 C445 1.387 . S
C447 C449 1.390 . S
C447 H451 0.950 . S
H448 C444 0.950 . S
C449 C447 1.390 . S
C449 C450 1.387 . S
C449 H452 0.950 . S
C450 C449 1.387 . S
C450 C453 1.387 . S
H451 C447 0.950 . S
H452 C449 0.950 . S
C453 C444 1.390 . S
C453 H446 0.950 . S
C453 C450 1.387 . S
C454 C455 1.387 . S
C454 H458 0.950 . S
C454 C463 1.390 . S
C455 C454 1.387 . S
C455 C457 1.387 . S
H456 C463 0.950 . S
C457 C455 1.387 . S
C457 C459 1.390 . S
C457 H461 0.950 . S
H458 C454 0.950 . S
C459 C457 1.390 . S
C459 C460 1.387 . S
C459 H462 0.950 . S
C460 C459 1.387 . S
C460 C463 1.387 . S
H461 C457 0.950 . S
H462 C459 0.950 . S
C463 C454 1.390 . S
C463 H456 0.950 . S
C463 C460 1.387 . S
C464 C465 1.387 1_564 S
C464 H468 0.950 . S
C464 C473 1.390 . S
C465 C464 1.387 1_546 S
C465 C467 1.387 . S
H466 C473 0.950 . S
C467 C465 1.387 . S
C467 C469 1.390 . S
C467 H471 0.950 . S
H468 C464 0.950 . S
C469 C467 1.390 . S
C469 C470 1.387 1_546 S
C469 H472 0.950 . S
C470 C469 1.387 1_564 S
C470 C473 1.387 . S
H471 C467 0.950 . S
H472 C469 0.950 . S
C473 C464 1.390 . S
C473 H466 0.950 . S
C473 C470 1.387 . S
C474 C475 1.387 . S
C474 H478 0.950 . S
C474 C483 1.390 . S
C475 C474 1.387 . S
C475 C477 1.387 1_556 S
H476 C483 0.950 . S
C477 C475 1.387 1_554 S
C477 C479 1.390 . S
C477 H481 0.950 . S
H478 C474 0.950 . S
C479 C477 1.390 . S
C479 C480 1.387 . S
C479 H482 0.950 . S
C480 C479 1.387 . S
C480 C483 1.387 1_554 S
H481 C477 0.950 . S
H482 C479 0.950 . S
C483 C474 1.390 . S
C483 H476 0.950 . S
C483 C480 1.387 1_556 S
C484 C485 1.387 1_556 S
C484 H488 0.950 . S
C484 C493 1.390 1_655 S
C485 C484 1.387 1_554 S
C485 C487 1.387 . S
H486 C493 0.950 . S
C487 C485 1.387 . S
C487 C489 1.390 1_655 S
C487 H491 0.950 . S
H488 C484 0.950 . S
C489 C487 1.390 1_455 S
C489 C490 1.387 1_554 S
C489 H492 0.950 . S
C490 C489 1.387 1_556 S
C490 C493 1.387 . S
H491 C487 0.950 . S
H492 C489 0.950 . S
C493 C484 1.390 1_455 S
C493 H486 0.950 . S
C493 C490 1.387 . S
C494 C495 1.387 1_554 S
C494 H498 0.950 . S
C494 C503 1.386 1_445 S
C495 C494 1.387 1_556 S
C495 C497 1.391 . S
H496 C503 0.951 . S
C497 C495 1.391 . S
C497 C499 1.386 1_445 S
C497 H501 0.951 . S
H498 C494 0.950 . S
C499 C497 1.386 1_665 S
C499 C500 1.387 1_556 S
C499 H502 0.950 . S
C500 C499 1.387 1_554 S
C500 C503 1.391 . S
H501 C497 0.951 . S
H502 C499 0.950 . S
C503 C494 1.386 1_665 S
C503 H496 0.951 . S
C503 C500 1.391 . S
C504 C505 1.387 . S
C504 H508 0.950 . S
C504 C513 1.390 1_455 S
C505 C504 1.387 . S
C505 C507 1.387 1_545 S
H506 C513 0.950 . S
C507 C505 1.387 1_565 S
C507 C509 1.390 1_455 S
C507 H511 0.950 . S
H508 C504 0.950 . S
C509 C507 1.390 1_655 S
C509 C510 1.387 . S
C509 H512 0.950 . S
C510 C509 1.387 . S
C510 C513 1.387 1_565 S
H511 C507 0.950 . S
H512 C509 0.950 . S
C513 C504 1.390 1_655 S
C513 H506 0.950 . S
C513 C510 1.387 1_545 S
C514 C515 1.387 . S
C514 H518 0.950 . S
C514 C523 1.390 1_565 S
C515 C514 1.387 . S
C515 C517 1.387 . S
H516 C523 0.950 . S
C517 C515 1.387 . S
C517 C519 1.390 1_565 S
C517 H521 0.950 . S
H518 C514 0.950 . S
C519 C517 1.390 1_545 S
C519 C520 1.387 . S
C519 H522 0.950 . S
C520 C519 1.387 . S
C520 C523 1.387 . S
H521 C517 0.950 . S
H522 C519 0.950 . S
C523 C514 1.390 1_545 S
C523 H516 0.950 . S
C523 C520 1.387 . S
C524 C525 1.387 . S
C524 H528 0.950 . S
C524 C533 1.390 . S
C525 C524 1.387 . S
C525 C527 1.387 . S
H526 C533 0.950 . S
C527 C525 1.387 . S
C527 C529 1.390 . S
C527 H531 0.950 . S
H528 C524 0.950 . S
C529 C527 1.390 . S
C529 C530 1.387 . S
C529 H532 0.950 . S
C530 C529 1.387 . S
C530 C533 1.387 . S
H531 C527 0.950 . S
H532 C529 0.950 . S
C533 C524 1.390 . S
C533 H526 0.950 . S
C533 C530 1.387 . S
C534 C535 1.387 . S
C534 H538 0.950 . S
C534 C543 1.392 . S
C535 C534 1.387 . S
C535 C537 1.386 1_655 S
H536 C543 0.950 . S
C537 C535 1.386 1_455 S
C537 C539 1.392 . S
C537 H541 0.950 . S
H538 C534 0.950 . S
C539 C537 1.392 . S
C539 C540 1.387 . S
C539 H542 0.950 . S
C540 C539 1.387 . S
C540 C543 1.386 1_455 S
H541 C537 0.950 . S
H542 C539 0.950 . S
C543 C534 1.392 . S
C543 H536 0.950 . S
C543 C540 1.386 1_655 S
C225 C79 0.777 . S
C230 C9 0.779 . S
C235 C93 0.780 . S
C240 C23 0.775 . S
C245 C37 0.780 . S
C250 C107 0.776 . S
C255 C51 0.782 . S
C260 C65 0.777 . S
C265 C121 0.778 . S
C270 C191 0.783 . S
C275 C205 0.779 . S
C280 C135 0.782 . S
C285 C219 0.777 . S
C290 C149 0.783 . S
C295 C163 0.782 . S
C300 C177 0.778 . S
C305 C6 1.580 . S
C310 C176 1.518 . S
C315 C190 1.516 . S
C320 C20 1.579 . S
C325 C34 1.580 . S
C330 C204 1.517 . S
C335 C48 1.580 . S
C340 C218 1.517 . S
C345 C62 1.579 . S
C350 C120 1.518 . S
C355 C76 1.580 . S
C360 C134 1.519 . S
C365 C90 1.579 . S
C370 C148 1.518 . S
C375 C104 1.580 . S
C380 C162 1.517 . S
C385 C64 1.517 . S
C390 C118 1.580 . S
C395 C78 1.519 . S
C400 C132 1.579 . S
C405 C92 1.517 . S
C410 C146 1.580 . S
C415 C160 1.580 . S
C420 C106 1.517 . S
C425 C8 1.518 . S
C430 C174 1.579 . S
C435 C188 1.580 . S
C440 C22 1.516 . S
C445 C202 1.579 . S
C450 C36 1.518 . S
C455 C50 1.519 . S
C460 C216 1.580 . S
C465 C119 1.590 . S
C470 C7 1.590 . S
C475 C133 1.590 . S
C480 C21 1.590 . S
C485 C35 1.587 . S
C490 C147 1.587 . S
C495 C161 1.591 . S
C500 C49 1.591 . S
C505 C63 1.590 . S
C510 C175 1.590 . S
C515 C189 1.589 . S
C520 C77 1.589 . S
C525 C203 1.590 . S
C530 C91 1.590 . S
C535 C217 1.589 . S
C540 C105 1.589 . S
