# Generated by pormake.
# Topology uos, (4)-cn, num edge types: 1
# Building blocks:
#     Node 0, Type 0, BuildingBlock: CEKHIL_clean_sbu_0, # of connection points: 4
#     Node 1, Type 0, BuildingBlock: CEKHIL_clean_sbu_0, # of connection points: 4
#     Node 2, Type 0, BuildingBlock: CEKHIL_clean_sbu_0, # of connection points: 4
#     Node 3, Type 0, BuildingBlock: CEKHIL_clean_sbu_0, # of connection points: 4
#     Node 4, Type 0, BuildingBlock: CEKHIL_clean_sbu_0, # of connection points: 4
#     Node 5, Type 0, BuildingBlock: CEKHIL_clean_sbu_0, # of connection points: 4
#     Node 6, Type 0, BuildingBlock: CEKHIL_clean_sbu_0, # of connection points: 4
#     Node 7, Type 0, BuildingBlock: CEKHIL_clean_sbu_0, # of connection points: 4
#     Node 8, Type 0, BuildingBlock: CEKHIL_clean_sbu_0, # of connection points: 4
#     Node 9, Type 0, BuildingBlock: CEKHIL_clean_sbu_0, # of connection points: 4
#     Node 10, Type 0, BuildingBlock: CEKHIL_clean_sbu_0, # of connection points: 4
#     Node 11, Type 0, BuildingBlock: CEKHIL_clean_sbu_0, # of connection points: 4
#     Node 12, Type 0, BuildingBlock: CEKHIL_clean_sbu_0, # of connection points: 4
#     Node 13, Type 0, BuildingBlock: CEKHIL_clean_sbu_0, # of connection points: 4
#     Node 14, Type 0, BuildingBlock: CEKHIL_clean_sbu_0, # of connection points: 4
#     Node 15, Type 0, BuildingBlock: CEKHIL_clean_sbu_0, # of connection points: 4
#     Node 16, Type 0, BuildingBlock: CEKHIL_clean_sbu_0, # of connection points: 4
#     Node 17, Type 0, BuildingBlock: CEKHIL_clean_sbu_0, # of connection points: 4
#     Node 18, Type 0, BuildingBlock: CEKHIL_clean_sbu_0, # of connection points: 4
#     Node 19, Type 0, BuildingBlock: CEKHIL_clean_sbu_0, # of connection points: 4
#     Node 20, Type 0, BuildingBlock: CEKHIL_clean_sbu_0, # of connection points: 4
#     Node 21, Type 0, BuildingBlock: CEKHIL_clean_sbu_0, # of connection points: 4
#     Node 22, Type 0, BuildingBlock: CEKHIL_clean_sbu_0, # of connection points: 4
#     Node 23, Type 0, BuildingBlock: CEKHIL_clean_sbu_0, # of connection points: 4
#     Node 24, Type 0, BuildingBlock: CEKHIL_clean_sbu_0, # of connection points: 4
#     Node 25, Type 0, BuildingBlock: CEKHIL_clean_sbu_0, # of connection points: 4
#     Node 26, Type 0, BuildingBlock: CEKHIL_clean_sbu_0, # of connection points: 4
#     Node 27, Type 0, BuildingBlock: CEKHIL_clean_sbu_0, # of connection points: 4
#     Node 28, Type 0, BuildingBlock: CEKHIL_clean_sbu_0, # of connection points: 4
#     Node 29, Type 0, BuildingBlock: CEKHIL_clean_sbu_0, # of connection points: 4
#     Node 30, Type 0, BuildingBlock: CEKHIL_clean_sbu_0, # of connection points: 4
#     Node 31, Type 0, BuildingBlock: CEKHIL_clean_sbu_0, # of connection points: 4
#     Edge 32, Type (0, 0), BuildingBlock: OJICUG_clean_linker_0, # of connection points: 2
#     Edge 33, Type (0, 0), BuildingBlock: OJICUG_clean_linker_0, # of connection points: 2
#     Edge 34, Type (0, 0), BuildingBlock: OJICUG_clean_linker_0, # of connection points: 2
#     Edge 35, Type (0, 0), BuildingBlock: OJICUG_clean_linker_0, # of connection points: 2
#     Edge 36, Type (0, 0), BuildingBlock: OJICUG_clean_linker_0, # of connection points: 2
#     Edge 37, Type (0, 0), BuildingBlock: OJICUG_clean_linker_0, # of connection points: 2
#     Edge 38, Type (0, 0), BuildingBlock: OJICUG_clean_linker_0, # of connection points: 2
#     Edge 39, Type (0, 0), BuildingBlock: OJICUG_clean_linker_0, # of connection points: 2
#     Edge 40, Type (0, 0), BuildingBlock: OJICUG_clean_linker_0, # of connection points: 2
#     Edge 41, Type (0, 0), BuildingBlock: OJICUG_clean_linker_0, # of connection points: 2
#     Edge 42, Type (0, 0), BuildingBlock: OJICUG_clean_linker_0, # of connection points: 2
#     Edge 43, Type (0, 0), BuildingBlock: OJICUG_clean_linker_0, # of connection points: 2
#     Edge 44, Type (0, 0), BuildingBlock: OJICUG_clean_linker_0, # of connection points: 2
#     Edge 45, Type (0, 0), BuildingBlock: OJICUG_clean_linker_0, # of connection points: 2
#     Edge 46, Type (0, 0), BuildingBlock: OJICUG_clean_linker_0, # of connection points: 2
#     Edge 47, Type (0, 0), BuildingBlock: OJICUG_clean_linker_0, # of connection points: 2
#     Edge 48, Type (0, 0), BuildingBlock: OJICUG_clean_linker_0, # of connection points: 2
#     Edge 49, Type (0, 0), BuildingBlock: OJICUG_clean_linker_0, # of connection points: 2
#     Edge 50, Type (0, 0), BuildingBlock: OJICUG_clean_linker_0, # of connection points: 2
#     Edge 51, Type (0, 0), BuildingBlock: OJICUG_clean_linker_0, # of connection points: 2
#     Edge 52, Type (0, 0), BuildingBlock: OJICUG_clean_linker_0, # of connection points: 2
#     Edge 53, Type (0, 0), BuildingBlock: OJICUG_clean_linker_0, # of connection points: 2
#     Edge 54, Type (0, 0), BuildingBlock: OJICUG_clean_linker_0, # of connection points: 2
#     Edge 55, Type (0, 0), BuildingBlock: OJICUG_clean_linker_0, # of connection points: 2
#     Edge 56, Type (0, 0), BuildingBlock: OJICUG_clean_linker_0, # of connection points: 2
#     Edge 57, Type (0, 0), BuildingBlock: OJICUG_clean_linker_0, # of connection points: 2
#     Edge 58, Type (0, 0), BuildingBlock: OJICUG_clean_linker_0, # of connection points: 2
#     Edge 59, Type (0, 0), BuildingBlock: OJICUG_clean_linker_0, # of connection points: 2
#     Edge 60, Type (0, 0), BuildingBlock: OJICUG_clean_linker_0, # of connection points: 2
#     Edge 61, Type (0, 0), BuildingBlock: OJICUG_clean_linker_0, # of connection points: 2
#     Edge 62, Type (0, 0), BuildingBlock: OJICUG_clean_linker_0, # of connection points: 2
#     Edge 63, Type (0, 0), BuildingBlock: OJICUG_clean_linker_0, # of connection points: 2
#     Edge 64, Type (0, 0), BuildingBlock: OJICUG_clean_linker_0, # of connection points: 2
#     Edge 65, Type (0, 0), BuildingBlock: OJICUG_clean_linker_0, # of connection points: 2
#     Edge 66, Type (0, 0), BuildingBlock: OJICUG_clean_linker_0, # of connection points: 2
#     Edge 67, Type (0, 0), BuildingBlock: OJICUG_clean_linker_0, # of connection points: 2
#     Edge 68, Type (0, 0), BuildingBlock: OJICUG_clean_linker_0, # of connection points: 2
#     Edge 69, Type (0, 0), BuildingBlock: OJICUG_clean_linker_0, # of connection points: 2
#     Edge 70, Type (0, 0), BuildingBlock: OJICUG_clean_linker_0, # of connection points: 2
#     Edge 71, Type (0, 0), BuildingBlock: OJICUG_clean_linker_0, # of connection points: 2
#     Edge 72, Type (0, 0), BuildingBlock: OJICUG_clean_linker_0, # of connection points: 2
#     Edge 73, Type (0, 0), BuildingBlock: OJICUG_clean_linker_0, # of connection points: 2
#     Edge 74, Type (0, 0), BuildingBlock: OJICUG_clean_linker_0, # of connection points: 2
#     Edge 75, Type (0, 0), BuildingBlock: OJICUG_clean_linker_0, # of connection points: 2
#     Edge 76, Type (0, 0), BuildingBlock: OJICUG_clean_linker_0, # of connection points: 2
#     Edge 77, Type (0, 0), BuildingBlock: OJICUG_clean_linker_0, # of connection points: 2
#     Edge 78, Type (0, 0), BuildingBlock: OJICUG_clean_linker_0, # of connection points: 2
#     Edge 79, Type (0, 0), BuildingBlock: OJICUG_clean_linker_0, # of connection points: 2
#     Edge 80, Type (0, 0), BuildingBlock: OJICUG_clean_linker_0, # of connection points: 2
#     Edge 81, Type (0, 0), BuildingBlock: OJICUG_clean_linker_0, # of connection points: 2
#     Edge 82, Type (0, 0), BuildingBlock: OJICUG_clean_linker_0, # of connection points: 2
#     Edge 83, Type (0, 0), BuildingBlock: OJICUG_clean_linker_0, # of connection points: 2
#     Edge 84, Type (0, 0), BuildingBlock: OJICUG_clean_linker_0, # of connection points: 2
#     Edge 85, Type (0, 0), BuildingBlock: OJICUG_clean_linker_0, # of connection points: 2
#     Edge 86, Type (0, 0), BuildingBlock: OJICUG_clean_linker_0, # of connection points: 2
#     Edge 87, Type (0, 0), BuildingBlock: OJICUG_clean_linker_0, # of connection points: 2
#     Edge 88, Type (0, 0), BuildingBlock: OJICUG_clean_linker_0, # of connection points: 2
#     Edge 89, Type (0, 0), BuildingBlock: OJICUG_clean_linker_0, # of connection points: 2
#     Edge 90, Type (0, 0), BuildingBlock: OJICUG_clean_linker_0, # of connection points: 2
#     Edge 91, Type (0, 0), BuildingBlock: OJICUG_clean_linker_0, # of connection points: 2
#     Edge 92, Type (0, 0), BuildingBlock: OJICUG_clean_linker_0, # of connection points: 2
#     Edge 93, Type (0, 0), BuildingBlock: OJICUG_clean_linker_0, # of connection points: 2
#     Edge 94, Type (0, 0), BuildingBlock: OJICUG_clean_linker_0, # of connection points: 2
#     Edge 95, Type (0, 0), BuildingBlock: OJICUG_clean_linker_0, # of connection points: 2
# Relax obj value: 0.047
# Max RMSD: 0.072
# Mean RMSD: 0.072
data_MOF--net-uos--node1-CEKHIL_clean_sbu_0--edge1-OJICUG_clean_linker_0
_symmetry_space_group_name_H-M    P1
_symmetry_Int_Tables_number       1
_symmetry_cell_setting            triclinic
loop_
_symmetry_equiv_pos_as_xyz
'x, y, z'
_cell_length_a     61.839903
_cell_length_b     61.845295
_cell_length_c     16.44294
_cell_angle_alpha  90.021525
_cell_angle_beta   89.99249
_cell_angle_gamma 89.996943
loop_
_atom_site_label
_atom_site_type_symbol
_atom_site_fract_x
_atom_site_fract_y
_atom_site_fract_z
_atom_type_partial_charge
Co0 Co 0.17015 0.17127 0.1202 0.0
O1 O 0.14431 0.16521 0.05851 0.0
O2 O 0.17434 0.14643 0.04676 0.0
C3 C 0.16904 0.2076 0.09907 0.0
O4 O 0.2003 0.17381 0.17357 0.0
Co5 Co 0.16742 0.20184 0.27265 0.0
O6 O 0.19908 0.20232 0.25932 0.0
C7 C 0.15503 0.15572 0.28705 0.0
C8 C 0.15451 0.14962 0.02263 0.0
C9 C 0.20948 0.18759 0.22181 0.0
O10 O 0.15992 0.15185 0.21199 0.0
O11 O 0.15602 0.17446 0.31978 0.0
O12 O 0.17752 0.19501 0.04435 0.0
O13 O 0.16041 0.19778 0.15981 0.0
Co14 Co 0.08757 0.91991 0.36818 0.0
O15 O 0.09344 0.89414 0.30584 0.0
O16 O 0.11247 0.92404 0.29499 0.0
C17 C 0.05124 0.91913 0.34679 0.0
O18 O 0.08524 0.94998 0.42238 0.0
Co19 Co 0.05694 0.9171 0.5204 0.0
O20 O 0.05672 0.94879 0.50805 0.0
C21 C 0.10295 0.90429 0.53463 0.0
C22 C 0.10911 0.90428 0.27031 0.0
C23 C 0.07151 0.95917 0.47085 0.0
O24 O 0.10688 0.90934 0.45978 0.0
O25 O 0.0842 0.90535 0.56729 0.0
O26 O 0.06391 0.92762 0.29239 0.0
O27 O 0.06097 0.91031 0.40734 0.0
Co28 Co 0.33906 0.83782 0.62009 0.0
O29 O 0.36493 0.8439 0.55863 0.0
O30 O 0.3349 0.86267 0.54677 0.0
C31 C 0.34019 0.8015 0.59874 0.0
O32 O 0.30888 0.83527 0.67317 0.0
Co33 Co 0.34169 0.80723 0.77238 0.0
O34 O 0.31004 0.80673 0.75869 0.0
C35 C 0.35411 0.85334 0.78712 0.0
C36 C 0.35474 0.85949 0.52276 0.0
C37 C 0.29966 0.82146 0.72117 0.0
O38 O 0.34924 0.85722 0.71208 0.0
O39 O 0.35311 0.83459 0.81973 0.0
O40 O 0.33173 0.8141 0.54404 0.0
O41 O 0.34878 0.81131 0.65961 0.0
Co42 Co 0.4215 0.08922 0.87023 0.0
O43 O 0.41549 0.11506 0.80852 0.0
O44 O 0.39661 0.08509 0.79705 0.0
C45 C 0.45783 0.09022 0.84868 0.0
O46 O 0.42398 0.05909 0.92373 0.0
Co47 Co 0.45217 0.09194 0.02235 0.0
O48 O 0.4525 0.06027 1.00935 0.0
C49 C 0.40609 0.10447 0.03715 0.0
C50 C 0.39985 0.1049 0.77282 0.0
C51 C 0.43774 0.04989 0.97199 0.0
O52 O 0.40217 0.09955 0.96218 0.0
O53 O 0.42485 0.10346 0.06969 0.0
O54 O 0.44517 0.08174 0.79416 0.0
O55 O 0.44807 0.0989 0.9095 0.0
Co56 Co 0.16974 0.83744 0.91004 0.0
O57 O 0.1439 0.84347 0.97171 0.0
O58 O 0.1738 0.86251 0.98247 0.0
C59 C 0.16894 0.80117 0.93273 0.0
O60 O 0.19986 0.83496 0.85643 0.0
Co61 Co 0.16704 0.80646 0.75882 0.0
O62 O 0.19873 0.80629 0.77145 0.0
C63 C 0.15434 0.85244 0.74277 0.0
C64 C 0.15401 0.85923 1.00692 0.0
C65 C 0.20908 0.82115 0.80841 0.0
O66 O 0.15931 0.85653 0.81758 0.0
O67 O 0.15538 0.83362 0.71073 0.0
O68 O 0.17736 0.81399 0.9868 0.0
O69 O 0.16017 0.81074 0.87169 0.0
Co70 Co 0.4213 0.92008 0.16176 0.0
O71 O 0.41527 0.89425 0.22349 0.0
O72 O 0.39644 0.92425 0.23513 0.0
C73 C 0.45763 0.91903 0.18303 0.0
O74 O 0.4238 0.95021 0.10829 0.0
Co75 Co 0.45188 0.91731 1.00939 0.0
O76 O 0.45231 0.94898 0.02256 0.0
C77 C 0.40577 0.90489 0.99491 0.0
C78 C 0.39967 0.90444 0.25932 0.0
C79 C 0.43758 0.95939 0.06002 0.0
O80 O 0.4019 0.9098 0.06995 0.0
O81 O 0.42451 0.90588 0.96222 0.0
O82 O 0.44501 0.92751 0.23767 0.0
O83 O 0.44783 0.91036 0.12228 0.0
Co84 Co 0.33927 0.17154 0.41207 0.0
O85 O 0.36509 0.16552 0.4739 0.0
O86 O 0.33511 0.14664 0.48519 0.0
C87 C 0.34027 0.20786 0.4337 0.0
O88 O 0.30915 0.17403 0.35842 0.0
Co89 Co 0.34206 0.20221 0.26002 0.0
O90 O 0.31038 0.20255 0.27281 0.0
C91 C 0.35455 0.15612 0.24518 0.0
C92 C 0.35491 0.14988 0.50952 0.0
C93 C 0.29998 0.1878 0.31009 0.0
O94 O 0.34961 0.1522 0.32015 0.0
O95 O 0.35356 0.17489 0.21267 0.0
O96 O 0.33178 0.1952 0.48816 0.0
O97 O 0.34897 0.1981 0.37291 0.0
Co98 Co 0.08796 0.08894 0.66166 0.0
O99 O 0.09399 0.11479 0.72338 0.0
O100 O 0.11283 0.0848 0.73495 0.0
C101 C 0.05163 0.09 0.68311 0.0
O102 O 0.08544 0.0588 0.60815 0.0
Co103 Co 0.05733 0.09171 0.50945 0.0
O104 O 0.05694 0.06004 0.52241 0.0
C105 C 0.10344 0.10412 0.49478 0.0
C106 C 0.1096 0.10462 0.75916 0.0
C107 C 0.07167 0.04963 0.55981 0.0
O108 O 0.10733 0.09922 0.56977 0.0
O109 O 0.08468 0.10314 0.46218 0.0
O110 O 0.06426 0.08152 0.73767 0.0
O111 O 0.06142 0.09866 0.62232 0.0
Co112 Co 0.83913 0.83797 0.91035 0.0
O113 O 0.86494 0.84404 0.97211 0.0
O114 O 0.83495 0.86291 0.98333 0.0
C115 C 0.84014 0.80167 0.93225 0.0
O116 O 0.80901 0.83542 0.85674 0.0
Co117 Co 0.84195 0.80721 0.75849 0.0
O118 O 0.81027 0.80686 0.77125 0.0
C119 C 0.85441 0.8533 0.74337 0.0
C120 C 0.85476 0.85969 1.00766 0.0
C121 C 0.79985 0.82163 0.80848 0.0
O122 O 0.84946 0.85725 0.8183 0.0
O123 O 0.85344 0.83451 0.71095 0.0
O124 O 0.83165 0.81436 0.98661 0.0
O125 O 0.84884 0.81138 0.87139 0.0
Co126 Co 0.92164 0.08943 0.66158 0.0
O127 O 0.91566 0.11523 0.72361 0.0
O128 O 0.89672 0.08528 0.73467 0.0
C129 C 0.95797 0.09033 0.6832 0.0
O130 O 0.92409 0.05933 0.60769 0.0
Co131 Co 0.95234 0.09226 0.50954 0.0
O132 O 0.95259 0.06057 0.52194 0.0
C133 C 0.90626 0.10478 0.49479 0.0
C134 C 0.89999 0.10507 0.75914 0.0
C135 C 0.93783 0.05016 0.55919 0.0
O136 O 0.90233 0.09984 0.56973 0.0
O137 O 0.92503 0.10379 0.46226 0.0
O138 O 0.94529 0.08185 0.73761 0.0
O139 O 0.94823 0.09909 0.62251 0.0
Co140 Co 0.67013 0.17144 0.41202 0.0
O141 O 0.6443 0.16544 0.47386 0.0
O142 O 0.67429 0.14657 0.48528 0.0
C143 C 0.66913 0.20777 0.43342 0.0
O144 O 0.70026 0.17393 0.3584 0.0
Co145 Co 0.66735 0.20205 0.25978 0.0
O146 O 0.69903 0.20244 0.27277 0.0
C147 C 0.65486 0.15596 0.24521 0.0
C148 C 0.65448 0.14982 0.50958 0.0
C149 C 0.70944 0.1877 0.31013 0.0
O150 O 0.6598 0.15207 0.32018 0.0
O151 O 0.65585 0.17471 0.21258 0.0
O152 O 0.67761 0.19514 0.48797 0.0
O153 O 0.66043 0.19799 0.37269 0.0
Co154 Co 0.5876 0.91998 0.16057 0.0
O155 O 0.59364 0.89414 0.22221 0.0
O156 O 0.61252 0.92411 0.23363 0.0
C157 C 0.55129 0.919 0.18231 0.0
O158 O 0.58511 0.95012 0.10718 0.0
Co159 Co 0.5569 0.91729 1.00859 0.0
O160 O 0.55656 0.94896 0.02169 0.0
C161 C 0.60297 0.90476 0.99353 0.0
C162 C 0.60928 0.9043 0.25785 0.0
C163 C 0.57133 0.95934 0.05903 0.0
O164 O 0.60691 0.90967 0.06851 0.0
O165 O 0.58419 0.90578 0.96107 0.0
O166 O 0.56397 0.92745 0.23679 0.0
O167 O 0.56102 0.91032 0.12142 0.0
Co168 Co 0.83929 0.17167 0.12003 0.0
O169 O 0.86514 0.16567 0.05826 0.0
O170 O 0.83517 0.14677 0.0468 0.0
C171 C 0.84028 0.20799 0.09857 0.0
O172 O 0.80916 0.17413 0.17358 0.0
Co173 Co 0.84199 0.20234 0.27221 0.0
O174 O 0.81031 0.20265 0.25927 0.0
C175 C 0.85456 0.15627 0.2869 0.0
C176 C 0.85498 0.15002 0.02255 0.0
C177 C 0.79994 0.18788 0.22189 0.0
O178 O 0.84964 0.15234 0.21193 0.0
O179 O 0.85353 0.17503 0.31946 0.0
O180 O 0.83181 0.19534 0.04402 0.0
O181 O 0.84896 0.19823 0.15935 0.0
Co182 Co 0.5878 0.08923 0.87025 0.0
O183 O 0.59386 0.11508 0.80868 0.0
O184 O 0.61271 0.08508 0.7971 0.0
C185 C 0.55149 0.09026 0.84864 0.0
O186 O 0.58527 0.05908 0.92356 0.0
Co187 Co 0.55712 0.09193 0.02234 0.0
O188 O 0.55671 0.06027 1.00903 0.0
C189 C 0.60321 0.1044 0.0373 0.0
C190 C 0.60949 0.1049 0.77296 0.0
C191 C 0.57146 0.04988 0.97165 0.0
O192 O 0.60714 0.09949 0.9623 0.0
O193 O 0.58444 0.1034 0.06981 0.0
O194 O 0.56415 0.0818 0.79409 0.0
O195 O 0.56124 0.09892 0.90952 0.0
Co196 Co 0.66998 0.8378 0.61869 0.0
O197 O 0.64415 0.84376 0.55688 0.0
O198 O 0.6741 0.86268 0.54545 0.0
C199 C 0.66906 0.80147 0.5973 0.0
O200 O 0.70012 0.83538 0.67222 0.0
Co201 Co 0.66731 0.80719 0.77093 0.0
O202 O 0.69898 0.80685 0.75778 0.0
C203 C 0.65469 0.85325 0.78552 0.0
C204 C 0.6543 0.8594 0.52117 0.0
C205 C 0.70934 0.82161 0.72041 0.0
O206 O 0.65961 0.85715 0.71054 0.0
O207 O 0.65573 0.8345 0.81814 0.0
O208 O 0.67751 0.81412 0.54272 0.0
O209 O 0.66035 0.81124 0.65805 0.0
Co210 Co 0.92126 0.92038 0.36863 0.0
O211 O 0.91526 0.89455 0.30682 0.0
O212 O 0.89637 0.92452 0.29543 0.0
C213 C 0.95758 0.9194 0.34712 0.0
O214 O 0.92373 0.95051 0.42223 0.0
Co215 Co 0.9519 0.91765 0.52079 0.0
O216 O 0.9523 0.94931 0.50767 0.0
C217 C 0.90584 0.90507 0.53545 0.0
C218 C 0.89963 0.90471 0.27113 0.0
C219 C 0.93753 0.9597 0.47038 0.0
O220 O 0.90192 0.91003 0.46051 0.0
O221 O 0.9246 0.90609 0.56802 0.0
O222 O 0.94493 0.92787 0.29261 0.0
O223 O 0.94782 0.91071 0.40789 0.0
Co224 Co 0.67032 0.67151 0.61962 0.0
O225 O 0.64453 0.66548 0.55768 0.0
O226 O 0.67451 0.6466 0.54648 0.0
C227 C 0.66932 0.70782 0.59799 0.0
O228 O 0.70042 0.67402 0.67345 0.0
Co229 Co 0.66743 0.70219 0.77169 0.0
O230 O 0.69912 0.70255 0.75909 0.0
C231 C 0.65496 0.65611 0.7864 0.0
C232 C 0.65471 0.64984 0.52206 0.0
C233 C 0.70956 0.6878 0.72185 0.0
O234 O 0.65994 0.65218 0.71147 0.0
O235 O 0.65593 0.67487 0.81894 0.0
O236 O 0.67783 0.69516 0.54358 0.0
O237 O 0.6606 0.69808 0.65873 0.0
Co238 Co 0.58786 0.41999 0.86982 0.0
O239 O 0.59384 0.39417 0.80794 0.0
O240 O 0.61273 0.42414 0.79653 0.0
C241 C 0.55153 0.41901 0.84849 0.0
O242 O 0.58541 0.45012 0.92343 0.0
Co243 Co 0.55725 0.41728 0.02211 0.0
O244 O 0.5569 0.44895 1.00917 0.0
C245 C 0.60333 0.40472 0.03658 0.0
C246 C 0.60947 0.40433 0.77221 0.0
C247 C 0.57165 0.45933 0.97175 0.0
O248 O 0.60722 0.40965 0.9616 0.0
O249 O 0.58458 0.40574 0.06924 0.0
O250 O 0.56416 0.42748 0.79392 0.0
O251 O 0.56131 0.41032 0.90921 0.0
Co252 Co 0.83934 0.33796 0.12034 0.0
O253 O 0.86515 0.34401 0.05845 0.0
O254 O 0.83514 0.36286 0.04726 0.0
C255 C 0.84035 0.30164 0.09869 0.0
O256 O 0.80923 0.33543 0.17402 0.0
Co257 Co 0.84218 0.30731 0.27239 0.0
O258 O 0.8105 0.30689 0.2595 0.0
C259 C 0.85464 0.35339 0.28719 0.0
C260 C 0.85495 0.35963 0.02287 0.0
C261 C 0.80007 0.32163 0.22224 0.0
O262 O 0.84968 0.3573 0.21225 0.0
O263 O 0.85367 0.33463 0.31973 0.0
O264 O 0.83186 0.3143 0.04426 0.0
O265 O 0.84906 0.3114 0.15946 0.0
Co266 Co 0.92182 0.58956 0.37089 0.0
O267 O 0.91578 0.61538 0.30907 0.0
O268 O 0.89697 0.58536 0.29752 0.0
C269 C 0.95816 0.59062 0.3497 0.0
O270 O 0.92432 0.55944 0.42447 0.0
Co271 Co 0.9524 0.59236 0.52326 0.0
O272 O 0.95277 0.56068 0.51046 0.0
C273 C 0.90627 0.60473 0.53772 0.0
C274 C 0.90017 0.60518 0.27329 0.0
C275 C 0.93805 0.55027 0.47296 0.0
O276 O 0.9024 0.59984 0.46267 0.0
O277 O 0.92501 0.60376 0.57041 0.0
O278 O 0.94556 0.58213 0.29505 0.0
O279 O 0.94834 0.59929 0.41039 0.0
Co280 Co 0.67014 0.33773 0.41137 0.0
O281 O 0.64428 0.34375 0.473 0.0
O282 O 0.67424 0.36264 0.48452 0.0
C283 C 0.66916 0.30142 0.43297 0.0
O284 O 0.70029 0.33527 0.35803 0.0
Co285 Co 0.66752 0.30704 0.25928 0.0
O286 O 0.69919 0.30671 0.27251 0.0
C287 C 0.65494 0.3531 0.24437 0.0
C288 C 0.65443 0.35939 0.50871 0.0
C289 C 0.70953 0.32149 0.3099 0.0
O290 O 0.65983 0.35704 0.31936 0.0
O291 O 0.65598 0.33433 0.21185 0.0
O292 O 0.6776 0.31409 0.48751 0.0
O293 O 0.6605 0.31116 0.37209 0.0
Co294 Co 0.92145 0.42039 0.66221 0.0
O295 O 0.91543 0.39453 0.72373 0.0
O296 O 0.89653 0.42448 0.73531 0.0
C297 C 0.95776 0.41939 0.68401 0.0
O298 O 0.92395 0.45055 0.60893 0.0
Co299 Co 0.95217 0.41774 0.51024 0.0
O300 O 0.95256 0.4494 0.52366 0.0
C301 C 0.90612 0.40515 0.49516 0.0
C302 C 0.89978 0.40467 0.75945 0.0
C303 C 0.93778 0.45977 0.56095 0.0
O304 O 0.90216 0.41008 0.57011 0.0
O305 O 0.9249 0.40618 0.46272 0.0
O306 O 0.94507 0.42784 0.73849 0.0
O307 O 0.94804 0.41074 0.62306 0.0
Co308 Co 0.83937 0.67168 0.91253 0.0
O309 O 0.86523 0.6657 0.97422 0.0
O310 O 0.83527 0.64682 0.9859 0.0
C311 C 0.84037 0.70801 0.93377 0.0
O312 O 0.80922 0.67412 0.85908 0.0
Co313 Co 0.84205 0.70227 0.76018 0.0
O314 O 0.81038 0.70261 0.77333 0.0
C315 C 0.85455 0.65618 0.74563 0.0
C316 C 0.85509 0.65007 1.01005 0.0
C317 C 0.80001 0.68787 0.81078 0.0
O318 O 0.84967 0.65229 0.82067 0.0
O319 O 0.85352 0.67492 0.71298 0.0
O320 O 0.83191 0.6954 0.98844 0.0
O321 O 0.84903 0.69821 0.87302 0.0
Co322 Co 0.58809 0.58918 0.16133 0.0
O323 O 0.59412 0.61502 0.22303 0.0
O324 O 0.61302 0.58505 0.23434 0.0
C325 C 0.55178 0.59016 0.18315 0.0
O326 O 0.58558 0.55904 0.10781 0.0
Co327 Co 0.55736 0.59191 1.00941 0.0
O328 O 0.557 0.56024 0.02245 0.0
C329 C 0.60342 0.60445 0.99434 0.0
C330 C 0.60978 0.60487 0.25862 0.0
C331 C 0.57178 0.54985 0.05969 0.0
O332 O 0.60738 0.59951 0.06927 0.0
O333 O 0.58465 0.60344 0.96191 0.0
O334 O 0.56446 0.5817 0.23757 0.0
O335 O 0.5615 0.59885 0.12228 0.0
Co336 Co 0.33924 0.33782 0.41237 0.0
O337 O 0.3651 0.34386 0.47397 0.0
O338 O 0.33511 0.36271 0.4856 0.0
C339 C 0.34027 0.30151 0.43386 0.0
O340 O 0.30909 0.33531 0.35908 0.0
Co341 Co 0.34191 0.30717 0.26018 0.0
O342 O 0.31025 0.30675 0.2736 0.0
C343 C 0.35444 0.35324 0.24541 0.0
C344 C 0.35493 0.35949 0.50975 0.0
C345 C 0.29987 0.3215 0.31103 0.0
O346 O 0.34953 0.35716 0.3204 0.0
O347 O 0.35342 0.33448 0.21284 0.0
O348 O 0.33182 0.31416 0.48845 0.0
O349 O 0.34892 0.31127 0.37301 0.0
Co350 Co 0.42178 0.5892 0.16266 0.0
O351 O 0.41578 0.61504 0.22446 0.0
O352 O 0.3969 0.58507 0.23591 0.0
C353 C 0.45811 0.59019 0.18402 0.0
O354 O 0.42424 0.55906 0.10911 0.0
Co355 Co 0.45242 0.59188 1.01042 0.0
O356 O 0.45276 0.56021 0.02344 0.0
C357 C 0.40636 0.60446 0.99582 0.0
C358 C 0.40014 0.60488 0.26017 0.0
C359 C 0.438 0.54985 0.06083 0.0
O360 O 0.40243 0.59954 0.0708 0.0
O361 O 0.42511 0.60343 0.96323 0.0
O362 O 0.44548 0.58173 0.23861 0.0
O363 O 0.44834 0.59887 0.12327 0.0
Co364 Co 0.1706 0.67116 0.91555 0.0
O365 O 0.1448 0.66518 0.97756 0.0
O366 O 0.17484 0.64643 0.98941 0.0
C367 C 0.16944 0.70752 0.93604 0.0
O368 O 0.20072 0.67365 0.86183 0.0
Co369 Co 0.16776 0.70153 0.76262 0.0
O370 O 0.19943 0.70206 0.77574 0.0
C371 C 0.15537 0.65539 0.74915 0.0
C372 C 0.15502 0.64965 1.01363 0.0
C373 C 0.20987 0.68739 0.81334 0.0
O374 O 0.16031 0.65161 0.82421 0.0
O375 O 0.15634 0.67409 0.71612 0.0
O376 O 0.17799 0.69503 0.9909 0.0
O377 O 0.16081 0.69759 0.87554 0.0
Co378 Co 0.08775 0.41996 0.66449 0.0
O379 O 0.09369 0.39412 0.72628 0.0
O380 O 0.1126 0.42407 0.73787 0.0
C381 C 0.05141 0.41904 0.68563 0.0
O382 O 0.08536 0.4501 0.61105 0.0
Co383 Co 0.05719 0.41735 0.51205 0.0
O384 O 0.05682 0.44901 0.52548 0.0
C385 C 0.10324 0.40468 0.49771 0.0
C386 C 0.10931 0.40427 0.7621 0.0
C387 C 0.07159 0.45935 0.56294 0.0
O388 O 0.10713 0.4096 0.57272 0.0
O389 O 0.08451 0.40575 0.46498 0.0
O390 O 0.06404 0.42748 0.74032 0.0
O391 O 0.0612 0.41034 0.62491 0.0
Co392 Co 0.33952 0.67153 0.62112 0.0
O393 O 0.36532 0.66555 0.55908 0.0
O394 O 0.33538 0.64659 0.54808 0.0
C395 C 0.34041 0.70784 0.59936 0.0
O396 O 0.30943 0.67398 0.67511 0.0
Co397 Co 0.34238 0.70227 0.77306 0.0
O398 O 0.31068 0.70249 0.76082 0.0
C399 C 0.35491 0.6562 0.78792 0.0
C400 C 0.35517 0.64988 0.52358 0.0
C401 C 0.30027 0.68771 0.72365 0.0
O402 O 0.34995 0.65225 0.713 0.0
O403 O 0.35392 0.67497 0.82041 0.0
O404 O 0.33192 0.69515 0.54503 0.0
O405 O 0.34918 0.69814 0.66008 0.0
Co406 Co 0.08811 0.58917 0.37396 0.0
O407 O 0.09431 0.61503 0.31263 0.0
O408 O 0.11308 0.58499 0.3011 0.0
C409 C 0.05182 0.59032 0.35177 0.0
O410 O 0.08545 0.55902 0.42716 0.0
Co411 Co 0.05729 0.59198 0.52561 0.0
O412 O 0.05688 0.56031 0.51258 0.0
C413 C 0.10343 0.60419 0.54132 0.0
C414 C 0.10994 0.60483 0.27703 0.0
C415 C 0.07162 0.54987 0.47531 0.0
O416 O 0.10739 0.59933 0.46631 0.0
O417 O 0.08462 0.60327 0.57358 0.0
O418 O 0.06452 0.58184 0.29741 0.0
O419 O 0.06153 0.59894 0.41283 0.0
Co420 Co 0.16991 0.33756 0.12258 0.0
O421 O 0.14405 0.3436 0.06099 0.0
O422 O 0.17401 0.36251 0.04967 0.0
C423 C 0.16895 0.30126 0.10062 0.0
O424 O 0.20006 0.33508 0.17593 0.0
Co425 Co 0.16725 0.30682 0.2744 0.0
O426 O 0.19893 0.30652 0.26135 0.0
C427 C 0.15469 0.35287 0.28972 0.0
C428 C 0.1542 0.35926 0.02543 0.0
C429 C 0.20929 0.3213 0.22405 0.0
O430 O 0.15959 0.35683 0.21476 0.0
O431 O 0.15572 0.33409 0.32209 0.0
O432 O 0.17739 0.31397 0.04622 0.0
O433 O 0.16027 0.31096 0.16158 0.0
Co434 Co 0.42155 0.42005 0.8707 0.0
O435 O 0.41552 0.39423 0.80886 0.0
O436 O 0.39665 0.42422 0.79759 0.0
C437 C 0.45787 0.41905 0.84905 0.0
O438 O 0.42406 0.45017 0.92436 0.0
Co439 Co 0.45222 0.41725 0.02276 0.0
O440 O 0.45261 0.44893 1.00988 0.0
C441 C 0.40614 0.40477 0.03757 0.0
C442 C 0.39989 0.40441 0.77323 0.0
C443 C 0.43786 0.45934 0.9726 0.0
O444 O 0.40222 0.40972 0.96262 0.0
O445 O 0.4249 0.40576 0.0701 0.0
O446 O 0.4452 0.42754 0.79461 0.0
O447 O 0.44812 0.41035 0.90983 0.0
C448 C 0.26554 0.1671 0.28007 0.0
C449 C 0.27649 0.18678 0.29257 0.0
H450 H 0.23564 0.15177 0.24454 0.0
C451 C 0.26545 0.20624 0.27798 0.0
H452 H 0.27381 0.15187 0.28944 0.0
C453 C 0.24403 0.20618 0.25209 0.0
C454 C 0.23298 0.18666 0.23891 0.0
H455 H 0.27346 0.22167 0.28643 0.0
H456 H 0.23602 0.22156 0.24265 0.0
C457 C 0.24393 0.16704 0.25275 0.0
C458 C 0.09221 0.99356 0.50163 0.0
C459 C 0.07254 0.98265 0.48848 0.0
H460 H 0.10753 0.02341 0.53784 0.0
C461 C 0.05307 0.99372 0.50255 0.0
H462 H 0.10746 0.98526 0.49266 0.0
C463 C 0.05311 0.01512 0.52862 0.0
C464 C 0.07262 0.02613 0.54246 0.0
H465 H 0.03765 0.98574 0.4936 0.0
H466 H 0.03772 0.02315 0.53769 0.0
C467 C 0.09226 0.01516 0.5291 0.0
C468 C 0.24351 0.84189 0.77864 0.0
C469 C 0.23257 0.82219 0.79095 0.0
H470 H 0.27342 0.85726 0.74357 0.0
C471 C 0.24366 0.80275 0.77648 0.0
H472 H 0.23522 0.85711 0.78794 0.0
C473 C 0.2651 0.80283 0.75091 0.0
C474 C 0.27614 0.82237 0.73795 0.0
H475 H 0.23566 0.78731 0.78482 0.0
H476 H 0.27315 0.78746 0.74156 0.0
C477 C 0.26515 0.84198 0.75163 0.0
C478 C 0.4562 0.01533 1.00339 0.0
C479 C 0.43673 0.0264 0.98931 0.0
H480 H 0.47155 0.98588 0.03831 0.0
C481 C 0.41705 0.01547 1.00224 0.0
H482 H 0.47162 0.02333 0.99463 0.0
C483 C 0.41701 0.99385 0.02949 0.0
C484 C 0.43664 0.98289 0.04284 0.0
H485 H 0.40181 0.02376 0.99329 0.0
H486 H 0.40174 0.98559 0.03808 0.0
C487 C 0.45615 0.99391 0.02922 0.0
C488 C 0.76537 0.84225 0.77846 0.0
C489 C 0.77636 0.82259 0.79103 0.0
H490 H 0.73544 0.85751 0.74293 0.0
C491 C 0.76535 0.80311 0.7766 0.0
H492 H 0.77361 0.8575 0.7877 0.0
C493 C 0.74393 0.80311 0.75079 0.0
C494 C 0.73284 0.82261 0.73754 0.0
H495 H 0.77339 0.7877 0.78511 0.0
H496 H 0.73594 0.78771 0.74144 0.0
C497 C 0.74375 0.84225 0.75122 0.0
C498 C 0.917 0.99413 0.50189 0.0
C499 C 0.9366 0.9832 0.48756 0.0
H500 H 0.90186 0.02399 0.53909 0.0
C501 C 0.95614 0.99425 0.50032 0.0
H502 H 0.90171 0.98584 0.49399 0.0
C503 C 0.95623 0.01566 0.52635 0.0
C504 C 0.93679 0.02669 0.54146 0.0
H505 H 0.97151 0.98625 0.49048 0.0
H506 H 0.97167 0.02367 0.5345 0.0
C507 C 0.91709 0.01574 0.52933 0.0
C508 C 0.74396 0.20627 0.2792 0.0
C509 C 0.73293 0.18676 0.29287 0.0
H510 H 0.77336 0.22175 0.24453 0.0
C511 C 0.74391 0.16713 0.2795 0.0
H512 H 0.73592 0.22167 0.2883 0.0
C513 C 0.76553 0.16718 0.2522 0.0
C514 C 0.77645 0.18686 0.23924 0.0
H515 H 0.73565 0.15186 0.28811 0.0
H516 H 0.77383 0.15194 0.24324 0.0
C517 C 0.76537 0.20632 0.25332 0.0
C518 C 0.59204 0.0154 1.00191 0.0
C519 C 0.57241 0.02638 0.98871 0.0
H520 H 0.60725 0.98548 0.03782 0.0
C521 C 0.5529 0.01534 1.00228 0.0
H522 H 0.60731 0.02367 0.99334 0.0
C523 C 0.55286 0.9939 0.02791 0.0
C524 C 0.57233 0.98283 0.04185 0.0
H525 H 0.5375 0.02337 0.99329 0.0
H526 H 0.53744 0.9859 0.03665 0.0
C527 C 0.59201 0.99377 0.02897 0.0
C528 C 0.74402 0.6672 0.75229 0.0
C529 C 0.73304 0.68684 0.73948 0.0
H530 H 0.77393 0.65195 0.78823 0.0
C531 C 0.74403 0.70633 0.75393 0.0
H532 H 0.73579 0.65194 0.74304 0.0
C533 C 0.76543 0.70634 0.78001 0.0
C534 C 0.77652 0.68686 0.7935 0.0
H535 H 0.736 0.72174 0.74525 0.0
H536 H 0.77341 0.72175 0.78936 0.0
C537 C 0.76562 0.6672 0.77978 0.0
C538 C 0.55319 0.49388 1.0031 0.0
C539 C 0.57266 0.48282 0.98904 0.0
H540 H 0.53782 0.52334 0.03797 0.0
C541 C 0.59233 0.49376 1.00192 0.0
H542 H 0.53777 0.48588 0.99436 0.0
C543 C 0.59236 0.51539 0.02912 0.0
C544 C 0.57273 0.52635 0.04246 0.0
H545 H 0.60758 0.48547 0.99297 0.0
H546 H 0.60763 0.52366 0.03769 0.0
C547 C 0.55322 0.51531 0.02888 0.0
C548 C 0.74414 0.30303 0.27931 0.0
C549 C 0.73303 0.3225 0.2928 0.0
H550 H 0.77363 0.28766 0.24494 0.0
C551 C 0.74394 0.34217 0.27945 0.0
H552 H 0.73616 0.28761 0.28839 0.0
C553 C 0.76557 0.3422 0.25233 0.0
C554 C 0.77658 0.32256 0.23955 0.0
H555 H 0.73561 0.35741 0.28794 0.0
H556 H 0.7738 0.35747 0.24336 0.0
C557 C 0.76558 0.30306 0.25362 0.0
C558 C 0.95637 0.49435 0.53154 0.0
C559 C 0.93684 0.48327 0.54399 0.0
H560 H 0.9719 0.5238 0.49782 0.0
C561 C 0.91724 0.49419 0.52951 0.0
H562 H 0.97175 0.48635 0.54148 0.0
C563 C 0.91733 0.5158 0.50227 0.0
C564 C 0.93703 0.52679 0.49048 0.0
H565 H 0.90195 0.48588 0.53715 0.0
H566 H 0.9021 0.52404 0.49239 0.0
C567 C 0.95647 0.51577 0.50572 0.0
C568 C 0.26532 0.30292 0.28075 0.0
C569 C 0.27636 0.32243 0.29411 0.0
H570 H 0.23587 0.28744 0.24663 0.0
C571 C 0.26537 0.34206 0.28084 0.0
H572 H 0.27336 0.28753 0.28979 0.0
C573 C 0.24373 0.342 0.25389 0.0
C574 C 0.23278 0.32232 0.24121 0.0
H575 H 0.27364 0.35733 0.28925 0.0
H576 H 0.23543 0.35724 0.24497 0.0
C577 C 0.24387 0.30286 0.25523 0.0
C578 C 0.41731 0.51544 0.03035 0.0
C579 C 0.43698 0.52635 0.04355 0.0
H580 H 0.40201 0.48557 0.99424 0.0
C581 C 0.45645 0.51527 0.02975 0.0
H582 H 0.40207 0.52374 0.03909 0.0
C583 C 0.45642 0.49385 1.00388 0.0
C584 C 0.43691 0.48283 0.98996 0.0
H585 H 0.47187 0.52325 0.03872 0.0
H586 H 0.47182 0.48581 0.99497 0.0
C587 C 0.41728 0.49382 1.00306 0.0
C588 C 0.26575 0.7061 0.75633 0.0
C589 C 0.27681 0.68666 0.74156 0.0
H590 H 0.23634 0.72139 0.79217 0.0
C591 C 0.2659 0.66696 0.75432 0.0
H592 H 0.27372 0.72154 0.74771 0.0
C593 C 0.24432 0.66687 0.78202 0.0
C594 C 0.23336 0.68648 0.796 0.0
H595 H 0.27419 0.65174 0.74485 0.0
H596 H 0.23607 0.65159 0.79039 0.0
C597 C 0.24437 0.70601 0.78262 0.0
C598 C 0.05309 0.49398 0.53327 0.0
C599 C 0.07259 0.48285 0.546 0.0
H600 H 0.03767 0.52347 0.49944 0.0
C601 C 0.09224 0.49373 0.53193 0.0
H602 H 0.03769 0.48601 0.54292 0.0
C603 C 0.09222 0.51535 0.50479 0.0
C604 C 0.07257 0.52638 0.49272 0.0
H605 H 0.10749 0.48538 0.53982 0.0
H606 H 0.10748 0.52356 0.49522 0.0
C607 C 0.05308 0.5154 0.50756 0.0
C608 C 0.15222 0.11797 0.92253 0.0
C609 C 0.14379 0.13729 0.95533 0.0
H610 H 0.14803 0.09213 0.83534 0.0
C611 C 0.12439 0.14537 0.92266 0.0
H612 H 0.16713 0.11127 0.94617 0.0
C613 C 0.11376 0.13471 0.85931 0.0
C614 C 0.12191 0.11536 0.82647 0.0
H615 H 0.11734 0.1602 0.94563 0.0
H616 H 0.0989 0.14171 0.83647 0.0
C617 C 0.14128 0.10699 0.85912 0.0
C618 C 0.12376 0.86364 0.10628 0.0
C619 C 0.14324 0.87162 0.07395 0.0
H620 H 0.09822 0.86736 0.19223 0.0
C621 C 0.15174 0.89088 0.10701 0.0
H622 H 0.11665 0.84886 0.08309 0.0
C623 C 0.14081 0.90186 0.17046 0.0
C624 C 0.12138 0.89356 0.20283 0.0
H625 H 0.16671 0.89751 0.08364 0.0
H626 H 0.14763 0.91666 0.19451 0.0
C627 C 0.11314 0.87429 0.16963 0.0
C628 C 0.36799 0.90207 0.35924 0.0
C629 C 0.38738 0.89371 0.32667 0.0
H630 H 0.34212 0.8978 0.44621 0.0
C631 C 0.39554 0.87439 0.35962 0.0
H632 H 0.36122 0.91692 0.33538 0.0
C633 C 0.38491 0.86375 0.42297 0.0
C634 C 0.36549 0.87181 0.45553 0.0
H635 H 0.41042 0.8674 0.33685 0.0
H636 H 0.39197 0.84894 0.44601 0.0
C637 C 0.35704 0.89111 0.42265 0.0
C638 C 0.3682 0.10724 0.6728 0.0
C639 C 0.38753 0.11564 0.70558 0.0
H640 H 0.34237 0.11147 0.58564 0.0
C641 C 0.39564 0.13503 0.67293 0.0
H642 H 0.36148 0.09234 0.69642 0.0
C643 C 0.385 0.14567 0.60962 0.0
C644 C 0.36564 0.13756 0.57679 0.0
H645 H 0.41048 0.14205 0.69589 0.0
H646 H 0.39202 0.16053 0.5868 0.0
C647 C 0.35724 0.1182 0.60941 0.0
C648 C 0.88486 0.86396 0.10766 0.0
C649 C 0.86547 0.87203 0.07491 0.0
H650 H 0.91034 0.86761 0.19391 0.0
C651 C 0.85704 0.89137 0.10764 0.0
H652 H 0.89191 0.84912 0.08475 0.0
C653 C 0.86798 0.90234 0.17108 0.0
C654 C 0.88733 0.89397 0.2038 0.0
H655 H 0.84215 0.89807 0.08393 0.0
H656 H 0.86123 0.91722 0.19481 0.0
C657 C 0.89548 0.87461 0.17102 0.0
C658 C 0.85732 0.11838 0.92242 0.0
C659 C 0.86574 0.1377 0.95529 0.0
H660 H 0.86155 0.09256 0.83517 0.0
C661 C 0.88514 0.14579 0.9227 0.0
H662 H 0.84241 0.11167 0.946 0.0
C663 C 0.89579 0.13515 0.85936 0.0
C664 C 0.88767 0.1158 0.82644 0.0
H665 H 0.89218 0.16062 0.94572 0.0
H666 H 0.91066 0.14215 0.83659 0.0
C667 C 0.86829 0.10742 0.85901 0.0
C668 C 0.64115 0.1072 0.67287 0.0
C669 C 0.62183 0.11564 0.70576 0.0
H670 H 0.66697 0.11138 0.58561 0.0
C671 C 0.61377 0.13506 0.6732 0.0
H672 H 0.64784 0.09228 0.69643 0.0
C673 C 0.62442 0.14569 0.60987 0.0
C674 C 0.64375 0.13753 0.57692 0.0
H675 H 0.59896 0.14212 0.69624 0.0
H676 H 0.61743 0.16056 0.58711 0.0
C677 C 0.65211 0.11815 0.60947 0.0
C678 C 0.6242 0.86354 0.42103 0.0
C679 C 0.64355 0.87169 0.45387 0.0
H680 H 0.59872 0.86712 0.33475 0.0
C681 C 0.65192 0.89106 0.42123 0.0
H682 H 0.61721 0.84868 0.44387 0.0
C683 C 0.64095 0.902 0.35783 0.0
C684 C 0.62162 0.89356 0.32505 0.0
H685 H 0.66678 0.89781 0.445 0.0
H686 H 0.64765 0.9169 0.3342 0.0
C687 C 0.61355 0.87416 0.35771 0.0
C688 C 0.62466 0.64566 0.4218 0.0
C689 C 0.64401 0.63753 0.45471 0.0
H690 H 0.5992 0.64206 0.33546 0.0
C691 C 0.65239 0.61815 0.42211 0.0
H692 H 0.61766 0.66053 0.44459 0.0
C693 C 0.64143 0.60719 0.35868 0.0
C694 C 0.62211 0.61561 0.32584 0.0
H695 H 0.66725 0.61141 0.44594 0.0
H696 H 0.64814 0.59228 0.33508 0.0
C697 C 0.61403 0.63502 0.35846 0.0
C698 C 0.61364 0.37426 0.67195 0.0
C699 C 0.62177 0.39361 0.70486 0.0
H700 H 0.61724 0.3488 0.58557 0.0
C701 C 0.64114 0.40199 0.67224 0.0
H702 H 0.59877 0.36726 0.69478 0.0
C703 C 0.65209 0.39104 0.60879 0.0
C704 C 0.64367 0.37172 0.57594 0.0
H705 H 0.64788 0.41686 0.69606 0.0
H706 H 0.667 0.39775 0.58518 0.0
C707 C 0.62427 0.36363 0.60858 0.0
C708 C 0.8956 0.37452 0.85926 0.0
C709 C 0.88748 0.39391 0.82669 0.0
H710 H 0.89203 0.34901 0.94536 0.0
C711 C 0.86815 0.4023 0.85959 0.0
H712 H 0.91044 0.3675 0.83621 0.0
C713 C 0.85722 0.39132 0.92302 0.0
C714 C 0.86564 0.37197 0.95556 0.0
H715 H 0.86141 0.41719 0.83603 0.0
H716 H 0.84235 0.39804 0.94689 0.0
C717 C 0.885 0.36386 0.92261 0.0
C718 C 0.86848 0.60748 0.17339 0.0
C719 C 0.88783 0.6159 0.20603 0.0
H720 H 0.84261 0.61167 0.08639 0.0
C721 C 0.89591 0.63528 0.17325 0.0
H722 H 0.86178 0.59259 0.19711 0.0
C723 C 0.88524 0.6459 0.10997 0.0
C724 C 0.86586 0.63778 0.07729 0.0
H725 H 0.91075 0.64232 0.1961 0.0
H726 H 0.89223 0.66076 0.08704 0.0
C727 C 0.85749 0.61842 0.11004 0.0
C728 C 0.38507 0.36372 0.60961 0.0
C729 C 0.36567 0.37181 0.57701 0.0
H730 H 0.41058 0.36734 0.69576 0.0
C731 C 0.35725 0.39113 0.60989 0.0
H732 H 0.39211 0.34889 0.58657 0.0
C733 C 0.3682 0.40208 0.67333 0.0
C734 C 0.38757 0.39369 0.70591 0.0
H735 H 0.34234 0.39783 0.5863 0.0
H736 H 0.36146 0.41694 0.69718 0.0
C737 C 0.39571 0.37435 0.67297 0.0
C738 C 0.38523 0.6457 0.4233 0.0
C739 C 0.3659 0.63755 0.45626 0.0
H740 H 0.41069 0.6421 0.33693 0.0
C741 C 0.35754 0.61816 0.42373 0.0
H742 H 0.39222 0.66058 0.44605 0.0
C743 C 0.3685 0.6072 0.36032 0.0
C744 C 0.38781 0.61563 0.32742 0.0
H745 H 0.34269 0.61141 0.4476 0.0
H746 H 0.36181 0.59228 0.33677 0.0
C747 C 0.39588 0.63505 0.35998 0.0
C748 C 0.12504 0.64566 0.11434 0.0
C749 C 0.14432 0.63742 0.08117 0.0
H750 H 0.0996 0.64217 0.20082 0.0
C751 C 0.1526 0.61799 0.11358 0.0
H752 H 0.11812 0.66058 0.09172 0.0
C753 C 0.14161 0.60706 0.17697 0.0
C754 C 0.12235 0.61557 0.20999 0.0
H755 H 0.16741 0.61116 0.08955 0.0
H756 H 0.14823 0.59209 0.20036 0.0
C757 C 0.11438 0.63505 0.17766 0.0
C758 C 0.11344 0.37418 0.86224 0.0
C759 C 0.12159 0.39353 0.82943 0.0
H760 H 0.11701 0.34871 0.94852 0.0
C761 C 0.14096 0.4019 0.86212 0.0
H762 H 0.09857 0.36719 0.83936 0.0
C763 C 0.15189 0.39093 0.92553 0.0
C764 C 0.14346 0.37161 0.95827 0.0
H765 H 0.14772 0.41676 0.83837 0.0
H766 H 0.1668 0.39762 0.94919 0.0
C767 C 0.12406 0.36354 0.92558 0.0
C768 C 0.17971 0.26591 0.03348 0.0
C769 C 0.16978 0.27732 0.09748 0.0
H770 H 0.18738 0.23462 0.98321 0.0
C771 C 0.16003 0.26559 0.16068 0.0
H772 H 0.18735 0.27453 0.98389 0.0
C773 C 0.16004 0.24313 0.16028 0.0
C774 C 0.16981 0.23155 0.09668 0.0
H775 H 0.15215 0.27375 0.21089 0.0
H776 H 0.15217 0.23485 0.21021 0.0
C777 C 0.17973 0.24312 0.03308 0.0
C778 C 0.99316 0.91042 0.40773 0.0
C779 C 0.98152 0.92018 0.34434 0.0
H780 H 0.02383 0.90247 0.45771 0.0
C781 C 0.99303 0.93007 0.28049 0.0
H782 H 0.98494 0.90258 0.45785 0.0
C783 C 0.01582 0.93 0.28042 0.0
C784 C 0.02729 0.92005 0.34418 0.0
H785 H 0.98447 0.93772 0.23077 0.0
H786 H 0.0244 0.93761 0.23064 0.0
C787 C 0.01563 0.91035 0.40765 0.0
C788 C 0.34924 0.76596 0.65955 0.0
C789 C 0.33944 0.77755 0.59611 0.0
H790 H 0.3572 0.73533 0.7098 0.0
C791 C 0.32952 0.766 0.53245 0.0
H792 H 0.35711 0.77422 0.70953 0.0
C793 C 0.32957 0.74322 0.53262 0.0
C794 C 0.33954 0.73178 0.59645 0.0
H795 H 0.32184 0.77452 0.4827 0.0
H796 H 0.32193 0.7346 0.483 0.0
C797 C 0.34929 0.7435 0.65972 0.0
C798 C 0.49327 0.07948 0.78213 0.0
C799 C 0.48177 0.08943 0.84589 0.0
H800 H 0.52463 0.07183 0.73243 0.0
C801 C 0.49342 0.09922 0.90923 0.0
H802 H 0.48471 0.07181 0.73245 0.0
C803 C 0.51588 0.09923 0.90922 0.0
C804 C 0.52754 0.08946 0.84586 0.0
H805 H 0.4852 0.10711 0.95927 0.0
H806 H 0.5241 0.10713 0.95925 0.0
C807 C 0.51606 0.0795 0.78211 0.0
C808 C 0.16013 0.76537 0.87348 0.0
C809 C 0.16988 0.77724 0.93633 0.0
H810 H 0.15237 0.73453 0.82463 0.0
C811 C 0.17992 0.76597 1.00042 0.0
H812 H 0.15217 0.77342 0.82322 0.0
C813 C 0.18004 0.74319 1.00125 0.0
C814 C 0.17012 0.73148 0.938 0.0
H815 H 0.18756 0.77471 0.04974 0.0
H816 H 0.18777 0.73479 0.05118 0.0
C817 C 0.16025 0.74291 0.8743 0.0
C818 C 0.49319 0.91006 0.12211 0.0
C819 C 0.48157 0.91982 0.1856 0.0
H820 H 0.52385 0.90217 0.0718 0.0
C821 C 0.4931 0.92975 0.2493 0.0
H822 H 0.48494 0.90218 0.07211 0.0
C823 C 0.51589 0.92975 0.24912 0.0
C824 C 0.52735 0.91981 0.18524 0.0
H825 H 0.48457 0.93741 0.29909 0.0
H826 H 0.52448 0.9374 0.29878 0.0
C827 C 0.51566 0.91005 0.12193 0.0
C828 C 0.32952 0.24329 0.50028 0.0
C829 C 0.33946 0.2318 0.4365 0.0
H830 H 0.32186 0.27464 0.55003 0.0
C831 C 0.34924 0.24345 0.37317 0.0
H832 H 0.32185 0.23472 0.54996 0.0
C833 C 0.34924 0.26592 0.37321 0.0
C834 C 0.33947 0.27757 0.43659 0.0
H835 H 0.35713 0.23524 0.32312 0.0
H836 H 0.35713 0.27413 0.32319 0.0
C837 C 0.32952 0.26607 0.50033 0.0
C838 C 0.99337 0.07944 0.74963 0.0
C839 C 0.98191 0.08944 0.68593 0.0
H840 H 0.0247 0.07166 0.79926 0.0
C841 C 0.9936 0.09918 0.6226 0.0
H842 H 0.98478 0.0718 0.7993 0.0
C843 C 0.01606 0.0991 0.62256 0.0
C844 C 0.02768 0.08927 0.68587 0.0
H845 H 0.9854 0.10711 0.5726 0.0
H846 H 0.0243 0.10696 0.57255 0.0
C847 C 0.01616 0.07936 0.74961 0.0
C848 C 0.84926 0.74355 0.87263 0.0
C849 C 0.83951 0.73196 0.93618 0.0
H850 H 0.85707 0.77419 0.82206 0.0
C851 C 0.82953 0.7435 0.99973 0.0
H852 H 0.85718 0.73529 0.82274 0.0
C853 C 0.82947 0.76629 0.99933 0.0
C854 C 0.83939 0.77772 0.93538 0.0
H855 H 0.82188 0.73498 0.04955 0.0
H856 H 0.82178 0.7749 0.04887 0.0
C857 C 0.8492 0.76602 0.87223 0.0
C858 C 0.66021 0.24334 0.37258 0.0
C859 C 0.66995 0.23171 0.43606 0.0
H860 H 0.65236 0.274 0.32235 0.0
C861 C 0.67988 0.24323 0.4998 0.0
H862 H 0.65234 0.2351 0.32255 0.0
C863 C 0.67988 0.26601 0.49969 0.0
C864 C 0.66997 0.27748 0.43583 0.0
H865 H 0.68751 0.23468 0.54958 0.0
H866 H 0.68752 0.2746 0.54939 0.0
C867 C 0.66022 0.2658 0.37247 0.0
C868 C 0.82956 0.26622 0.03216 0.0
C869 C 0.83953 0.2777 0.0959 0.0
H870 H 0.82187 0.23487 0.98244 0.0
C871 C 0.84931 0.26604 0.15921 0.0
H872 H 0.8219 0.27479 0.9825 0.0
C873 C 0.84928 0.24358 0.15918 0.0
C874 C 0.83949 0.23193 0.09583 0.0
H875 H 0.85721 0.27425 0.20924 0.0
H876 H 0.85717 0.23535 0.20919 0.0
C877 C 0.82954 0.24343 0.03212 0.0
C878 C 0.67999 0.74324 0.53124 0.0
C879 C 0.67008 0.73176 0.59509 0.0
H880 H 0.68756 0.77458 0.4813 0.0
C881 C 0.66027 0.74343 0.65836 0.0
H882 H 0.68767 0.73467 0.48161 0.0
C883 C 0.6602 0.76589 0.65818 0.0
C884 C 0.66994 0.77753 0.59472 0.0
H885 H 0.6524 0.73522 0.70847 0.0
H886 H 0.65228 0.77412 0.70815 0.0
C887 C 0.67992 0.76603 0.53106 0.0
C888 C 0.51595 0.41007 0.90932 0.0
C889 C 0.52758 0.41984 0.84589 0.0
H890 H 0.48528 0.4022 0.95954 0.0
C891 C 0.51607 0.42978 0.78221 0.0
H892 H 0.52418 0.40219 0.9593 0.0
C893 C 0.49328 0.42979 0.78235 0.0
C894 C 0.48181 0.41986 0.84617 0.0
H895 H 0.52462 0.43743 0.73246 0.0
H896 H 0.4847 0.43745 0.73271 0.0
C897 C 0.49349 0.41008 0.90946 0.0
C898 C 0.99367 0.57974 0.28402 0.0
C899 C 0.98211 0.58979 0.34737 0.0
H900 H 0.02508 0.57191 0.23518 0.0
C901 C 0.99369 0.59962 0.41082 0.0
H902 H 0.98516 0.57204 0.23427 0.0
C903 C 0.01616 0.59953 0.41135 0.0
C904 C 0.02788 0.58964 0.34843 0.0
H905 H 0.98542 0.60759 0.46054 0.0
H906 H 0.02432 0.60745 0.46146 0.0
C907 C 0.01646 0.57966 0.28454 0.0
C908 C 0.9934 0.41039 0.62382 0.0
C909 C 0.9817 0.42014 0.68713 0.0
H910 H 0.02411 0.40242 0.57423 0.0
C911 C 0.99315 0.42998 0.75125 0.0
H912 H 0.98521 0.40259 0.57351 0.0
C913 C 0.01594 0.42988 0.75166 0.0
C914 C 0.02747 0.41995 0.68797 0.0
H915 H 0.98455 0.43762 0.80091 0.0
H916 H 0.02447 0.43746 0.80163 0.0
C917 C 0.01586 0.41029 0.62424 0.0
C918 C 0.49359 0.57943 0.25024 0.0
C919 C 0.48206 0.58938 0.18659 0.0
H920 H 0.52497 0.57177 0.29963 0.0
C921 C 0.49368 0.59914 0.12311 0.0
H922 H 0.48505 0.57178 0.30001 0.0
C923 C 0.51614 0.59913 0.12289 0.0
C924 C 0.52783 0.58936 0.18614 0.0
H925 H 0.48543 0.60702 0.07315 0.0
H926 H 0.52433 0.607 0.07277 0.0
C927 C 0.51638 0.57942 0.25001 0.0
C928 C 0.13239 0.12272 0.30617 0.0
C929 C 0.14629 0.13834 0.33882 0.0
H930 H 0.10782 0.09934 0.33127 0.0
C931 C 0.14902 0.13948 0.42381 0.0
H932 H 0.13004 0.12147 0.24104 0.0
C933 C 0.13647 0.12671 0.47555 0.0
C934 C 0.1208 0.11287 0.44292 0.0
H935 H 0.1599 0.15124 0.45046 0.0
H936 H 0.13776 0.12903 0.54069 0.0
C937 C 0.11962 0.11018 0.35792 0.0
C938 C 0.13558 0.88113 0.55363 0.0
C939 C 0.12024 0.89534 0.58625 0.0
H940 H 0.15867 0.85628 0.57883 0.0
C941 C 0.11925 0.89822 0.67119 0.0
H942 H 0.13669 0.87865 0.48853 0.0
C943 C 0.13193 0.88559 0.72298 0.0
C944 C 0.14553 0.86969 0.69047 0.0
H945 H 0.10769 0.90932 0.6978 0.0
H946 H 0.12976 0.88707 0.78813 0.0
C947 C 0.14803 0.86827 0.60543 0.0
C948 C 0.38953 0.89887 0.85813 0.0
C949 C 0.38839 0.89615 0.94312 0.0
H950 H 0.37906 0.88763 0.74125 0.0
C951 C 0.37275 0.88227 0.97575 0.0
H952 H 0.40131 0.90974 0.83149 0.0
C953 C 0.36018 0.86952 0.92399 0.0
C954 C 0.36287 0.8707 0.83899 0.0
H955 H 0.37149 0.87993 0.04088 0.0
H956 H 0.34932 0.85773 0.95063 0.0
C957 C 0.37674 0.88634 0.80638 0.0
C958 C 0.37314 0.12717 0.05648 0.0
C959 C 0.38876 0.11327 0.08905 0.0
H960 H 0.34976 0.15175 0.08169 0.0
C961 C 0.38993 0.11056 0.17404 0.0
H962 H 0.37186 0.12951 0.99136 0.0
C963 C 0.37718 0.12312 0.22584 0.0
C964 C 0.36331 0.13878 0.19328 0.0
H965 H 0.4017 0.09968 0.20063 0.0
H966 H 0.37951 0.12184 0.29097 0.0
C967 C 0.36061 0.13996 0.10828 0.0
C968 C 0.88964 0.89898 0.67222 0.0
C969 C 0.88852 0.89623 0.58723 0.0
H970 H 0.87921 0.88771 0.78912 0.0
C971 C 0.87299 0.88222 0.55462 0.0
H972 H 0.90134 0.90993 0.69884 0.0
C973 C 0.86051 0.86938 0.60639 0.0
C974 C 0.86316 0.87063 0.6914 0.0
H975 H 0.87177 0.87984 0.48949 0.0
H976 H 0.84973 0.85752 0.57977 0.0
C977 C 0.87692 0.88638 0.72399 0.0
C978 C 0.86067 0.14013 0.42374 0.0
C979 C 0.86338 0.13895 0.33875 0.0
H980 H 0.87195 0.12972 0.54064 0.0
C981 C 0.87731 0.12336 0.30614 0.0
H982 H 0.84976 0.15188 0.45036 0.0
C983 C 0.89012 0.11085 0.35791 0.0
C984 C 0.88892 0.11355 0.44291 0.0
H985 H 0.87965 0.12208 0.24101 0.0
H986 H 0.90193 0.10001 0.33128 0.0
C987 C 0.87324 0.12739 0.47551 0.0
C988 C 0.63212 0.12303 0.22603 0.0
C989 C 0.64607 0.13861 0.19342 0.0
H990 H 0.6075 0.09969 0.20088 0.0
C991 C 0.64881 0.13973 0.10843 0.0
H992 H 0.62975 0.1218 0.29115 0.0
C993 C 0.63625 0.12697 0.05666 0.0
C994 C 0.62055 0.11316 0.08924 0.0
H995 H 0.65973 0.15146 0.08181 0.0
H996 H 0.63757 0.12926 0.99152 0.0
C997 C 0.61933 0.11051 0.17425 0.0
C998 C 0.6486 0.86945 0.92232 0.0
C999 C 0.64585 0.87058 0.83734 0.0
H1000 H 0.63735 0.8799 0.03924 0.0
C1001 C 0.63187 0.88612 0.80474 0.0
H1002 H 0.65954 0.85774 0.94893 0.0
C1003 C 0.61906 0.89863 0.85654 0.0
C1004 C 0.6203 0.89599 0.94155 0.0
H1005 H 0.6295 0.88736 0.73962 0.0
H1006 H 0.60722 0.90943 0.82993 0.0
C1007 C 0.63602 0.88219 0.97411 0.0
C1008 C 0.63638 0.62714 0.97499 0.0
C1009 C 0.62074 0.61326 0.9424 0.0
H1010 H 0.65978 0.6517 0.94984 0.0
C1011 C 0.61953 0.61058 0.8574 0.0
H1012 H 0.63769 0.62945 0.04012 0.0
C1013 C 0.63229 0.62314 0.80562 0.0
C1014 C 0.64619 0.63876 0.83823 0.0
H1015 H 0.60774 0.59972 0.83078 0.0
H1016 H 0.62994 0.62187 0.74049 0.0
C1017 C 0.64891 0.63992 0.92322 0.0
C1018 C 0.6488 0.3692 0.10744 0.0
C1019 C 0.64614 0.37042 0.19245 0.0
H1020 H 0.6375 0.37961 0.99057 0.0
C1021 C 0.63231 0.3861 0.22508 0.0
H1022 H 0.65963 0.35738 0.08079 0.0
C1023 C 0.61954 0.39866 0.17334 0.0
C1024 C 0.62067 0.39592 0.08835 0.0
H1025 H 0.63002 0.38742 0.29022 0.0
H1026 H 0.6078 0.40957 0.2 0.0
C1027 C 0.63626 0.38198 0.0557 0.0
C1028 C 0.89003 0.39897 0.35823 0.0
C1029 C 0.88882 0.39631 0.44323 0.0
H1030 H 0.87964 0.38766 0.24132 0.0
C1031 C 0.8732 0.38241 0.47581 0.0
H1032 H 0.9018 0.40985 0.33161 0.0
C1033 C 0.86069 0.36959 0.42403 0.0
C1034 C 0.86341 0.37075 0.33904 0.0
H1035 H 0.8719 0.38009 0.54094 0.0
H1036 H 0.84983 0.35781 0.45066 0.0
C1037 C 0.87729 0.38639 0.30645 0.0
C1038 C 0.87724 0.62322 0.72635 0.0
C1039 C 0.86332 0.63883 0.69378 0.0
H1040 H 0.90185 0.59988 0.70117 0.0
C1041 C 0.86061 0.63999 0.60878 0.0
H1042 H 0.87958 0.62195 0.79148 0.0
C1043 C 0.87319 0.62726 0.55699 0.0
C1044 C 0.88888 0.61343 0.58957 0.0
H1045 H 0.84971 0.65174 0.58218 0.0
H1046 H 0.87191 0.62959 0.49186 0.0
C1047 C 0.89004 0.61071 0.67456 0.0
C1048 C 0.36056 0.3694 0.10857 0.0
C1049 C 0.36325 0.37057 0.19357 0.0
H1050 H 0.37184 0.37982 0.99168 0.0
C1051 C 0.37717 0.38618 0.22619 0.0
H1052 H 0.34967 0.35764 0.08193 0.0
C1053 C 0.38997 0.3987 0.17444 0.0
C1054 C 0.38879 0.396 0.08943 0.0
H1055 H 0.3795 0.38745 0.29132 0.0
H1056 H 0.40177 0.40954 0.20108 0.0
C1057 C 0.37312 0.38215 0.05681 0.0
C1058 C 0.39018 0.61055 0.85902 0.0
C1059 C 0.38903 0.61329 0.94401 0.0
H1060 H 0.37977 0.62182 0.74212 0.0
C1061 C 0.37348 0.62727 0.97662 0.0
H1062 H 0.4019 0.59962 0.8324 0.0
C1063 C 0.36099 0.64009 0.92485 0.0
C1064 C 0.36367 0.63887 0.83984 0.0
H1065 H 0.37223 0.62963 0.04175 0.0
H1066 H 0.35019 0.65193 0.95147 0.0
C1067 C 0.37746 0.62315 0.80725 0.0
C1068 C 0.14949 0.63889 0.61282 0.0
C1069 C 0.14655 0.63798 0.69774 0.0
H1070 H 0.1383 0.62841 0.49589 0.0
C1071 C 0.13228 0.62271 0.73039 0.0
H1072 H 0.16064 0.6504 0.58622 0.0
C1073 C 0.11937 0.61031 0.6786 0.0
C1074 C 0.12079 0.61279 0.59355 0.0
H1075 H 0.12975 0.62166 0.79548 0.0
H1076 H 0.10732 0.59974 0.7052 0.0
C1077 C 0.1368 0.62626 0.56105 0.0
C1078 C 0.13222 0.38598 0.30924 0.0
C1079 C 0.14593 0.37019 0.3418 0.0
H1080 H 0.10785 0.40959 0.33439 0.0
C1081 C 0.14852 0.36891 0.42682 0.0
H1082 H 0.12997 0.38735 0.2441 0.0
C1083 C 0.13605 0.38175 0.4786 0.0
C1084 C 0.12057 0.39581 0.44599 0.0
H1085 H 0.15927 0.35702 0.45343 0.0
H1086 H 0.13723 0.37935 0.54372 0.0
C1087 C 0.11951 0.3986 0.36102 0.0
loop_
_geom_bond_atom_site_label_1
_geom_bond_atom_site_label_2
_geom_bond_distance
_geom_bond_site_symmetry_2
_ccdc_geom_bond_type
Co0 O1 2.216 . S
Co0 O2 2.091 . S
Co0 O4 2.004 . S
Co0 O10 2.021 . S
Co0 O12 2.137 . S
Co0 O13 2.244 . S
O1 Co0 2.216 . S
O1 C8 1.247 . S
O2 Co0 2.091 . S
O2 C8 1.261 . S
C3 O12 1.247 . S
C3 O13 1.272 . S
O4 Co0 2.004 . S
O4 C9 1.259 . S
Co5 O6 2.061 . S
Co5 O11 2.052 . S
Co5 O13 2.135 . S
O6 Co5 2.061 . S
O6 C9 1.235 . S
C7 O10 1.238 . S
C7 O11 1.241 . S
C8 O1 1.247 . S
C8 O2 1.261 . S
C9 O4 1.259 . S
C9 O6 1.235 . S
O10 Co0 2.021 . S
O10 C7 1.238 . S
O11 Co5 2.052 . S
O11 C7 1.241 . S
O12 Co0 2.137 . S
O12 C3 1.247 . S
O13 Co0 2.244 . S
O13 C3 1.272 . S
O13 Co5 2.135 . S
Co14 O15 2.216 . S
Co14 O16 2.091 . S
Co14 O18 2.004 . S
Co14 O24 2.021 . S
Co14 O26 2.137 . S
Co14 O27 2.244 . S
O15 Co14 2.216 . S
O15 C22 1.247 . S
O16 Co14 2.091 . S
O16 C22 1.261 . S
C17 O26 1.247 . S
C17 O27 1.272 . S
O18 Co14 2.004 . S
O18 C23 1.259 . S
Co19 O20 2.061 . S
Co19 O25 2.052 . S
Co19 O27 2.135 . S
O20 Co19 2.061 . S
O20 C23 1.235 . S
C21 O24 1.238 . S
C21 O25 1.241 . S
C22 O15 1.247 . S
C22 O16 1.261 . S
C23 O18 1.259 . S
C23 O20 1.235 . S
O24 Co14 2.021 . S
O24 C21 1.238 . S
O25 Co19 2.052 . S
O25 C21 1.241 . S
O26 Co14 2.137 . S
O26 C17 1.247 . S
O27 Co14 2.244 . S
O27 C17 1.272 . S
O27 Co19 2.135 . S
Co28 O29 2.216 . S
Co28 O30 2.091 . S
Co28 O32 2.004 . S
Co28 O38 2.021 . S
Co28 O40 2.137 . S
Co28 O41 2.244 . S
O29 Co28 2.216 . S
O29 C36 1.247 . S
O30 Co28 2.091 . S
O30 C36 1.261 . S
C31 O40 1.247 . S
C31 O41 1.272 . S
O32 Co28 2.004 . S
O32 C37 1.259 . S
Co33 O34 2.061 . S
Co33 O39 2.052 . S
Co33 O41 2.135 . S
O34 Co33 2.061 . S
O34 C37 1.235 . S
C35 O38 1.238 . S
C35 O39 1.241 . S
C36 O29 1.247 . S
C36 O30 1.261 . S
C37 O32 1.259 . S
C37 O34 1.235 . S
O38 Co28 2.021 . S
O38 C35 1.238 . S
O39 Co33 2.052 . S
O39 C35 1.241 . S
O40 Co28 2.137 . S
O40 C31 1.247 . S
O41 Co28 2.244 . S
O41 C31 1.272 . S
O41 Co33 2.135 . S
Co42 O43 2.216 . S
Co42 O44 2.091 . S
Co42 O46 2.004 . S
Co42 O52 2.021 . S
Co42 O54 2.137 . S
Co42 O55 2.244 . S
O43 Co42 2.216 . S
O43 C50 1.247 . S
O44 Co42 2.091 . S
O44 C50 1.261 . S
C45 O54 1.247 . S
C45 O55 1.272 . S
O46 Co42 2.004 . S
O46 C51 1.259 . S
Co47 O48 2.061 . S
Co47 O53 2.052 . S
Co47 O55 2.135 1_554 S
O48 Co47 2.061 . S
O48 C51 1.235 1_554 S
C49 O52 1.238 1_554 S
C49 O53 1.241 . S
C50 O43 1.247 . S
C50 O44 1.261 . S
C51 O46 1.259 . S
C51 O48 1.235 1_556 S
O52 Co42 2.021 . S
O52 C49 1.238 1_556 S
O53 Co47 2.052 . S
O53 C49 1.241 . S
O54 Co42 2.137 . S
O54 C45 1.247 . S
O55 Co42 2.244 . S
O55 C45 1.272 . S
O55 Co47 2.135 1_556 S
Co56 O57 2.216 . S
Co56 O58 2.091 . S
Co56 O60 2.004 . S
Co56 O66 2.021 . S
Co56 O68 2.137 . S
Co56 O69 2.244 . S
O57 Co56 2.216 . S
O57 C64 1.247 . S
O58 Co56 2.091 . S
O58 C64 1.261 . S
C59 O68 1.247 . S
C59 O69 1.272 . S
O60 Co56 2.004 . S
O60 C65 1.259 . S
Co61 O62 2.061 . S
Co61 O67 2.052 . S
Co61 O69 2.135 . S
O62 Co61 2.061 . S
O62 C65 1.235 . S
C63 O66 1.238 . S
C63 O67 1.241 . S
C64 O57 1.247 . S
C64 O58 1.261 . S
C65 O60 1.259 . S
C65 O62 1.235 . S
O66 Co56 2.021 . S
O66 C63 1.238 . S
O67 Co61 2.052 . S
O67 C63 1.241 . S
O68 Co56 2.137 . S
O68 C59 1.247 . S
O69 Co56 2.244 . S
O69 C59 1.272 . S
O69 Co61 2.135 . S
Co70 O71 2.216 . S
Co70 O72 2.091 . S
Co70 O74 2.004 . S
Co70 O80 2.021 . S
Co70 O82 2.137 . S
Co70 O83 2.244 . S
O71 Co70 2.216 . S
O71 C78 1.247 . S
O72 Co70 2.091 . S
O72 C78 1.261 . S
C73 O82 1.247 . S
C73 O83 1.272 . S
O74 Co70 2.004 . S
O74 C79 1.259 . S
Co75 O76 2.061 . S
Co75 O81 2.052 . S
Co75 O83 2.135 1_556 S
O76 Co75 2.061 . S
O76 C79 1.235 1_556 S
C77 O80 1.238 1_556 S
C77 O81 1.241 . S
C78 O71 1.247 . S
C78 O72 1.261 . S
C79 O74 1.259 . S
C79 O76 1.235 1_554 S
O80 Co70 2.021 . S
O80 C77 1.238 1_554 S
O81 Co75 2.052 . S
O81 C77 1.241 . S
O82 Co70 2.137 . S
O82 C73 1.247 . S
O83 Co70 2.244 . S
O83 C73 1.272 . S
O83 Co75 2.135 1_554 S
Co84 O85 2.216 . S
Co84 O86 2.091 . S
Co84 O88 2.004 . S
Co84 O94 2.021 . S
Co84 O96 2.137 . S
Co84 O97 2.244 . S
O85 Co84 2.216 . S
O85 C92 1.247 . S
O86 Co84 2.091 . S
O86 C92 1.261 . S
C87 O96 1.247 . S
C87 O97 1.272 . S
O88 Co84 2.004 . S
O88 C93 1.259 . S
Co89 O90 2.061 . S
Co89 O95 2.052 . S
Co89 O97 2.135 . S
O90 Co89 2.061 . S
O90 C93 1.235 . S
C91 O94 1.238 . S
C91 O95 1.241 . S
C92 O85 1.247 . S
C92 O86 1.261 . S
C93 O88 1.259 . S
C93 O90 1.235 . S
O94 Co84 2.021 . S
O94 C91 1.238 . S
O95 Co89 2.052 . S
O95 C91 1.241 . S
O96 Co84 2.137 . S
O96 C87 1.247 . S
O97 Co84 2.244 . S
O97 C87 1.272 . S
O97 Co89 2.135 . S
Co98 O99 2.216 . S
Co98 O100 2.091 . S
Co98 O102 2.004 . S
Co98 O108 2.021 . S
Co98 O110 2.137 . S
Co98 O111 2.244 . S
O99 Co98 2.216 . S
O99 C106 1.247 . S
O100 Co98 2.091 . S
O100 C106 1.261 . S
C101 O110 1.247 . S
C101 O111 1.272 . S
O102 Co98 2.004 . S
O102 C107 1.259 . S
Co103 O104 2.061 . S
Co103 O109 2.052 . S
Co103 O111 2.135 . S
O104 Co103 2.061 . S
O104 C107 1.235 . S
C105 O108 1.238 . S
C105 O109 1.241 . S
C106 O99 1.247 . S
C106 O100 1.261 . S
C107 O102 1.259 . S
C107 O104 1.235 . S
O108 Co98 2.021 . S
O108 C105 1.238 . S
O109 Co103 2.052 . S
O109 C105 1.241 . S
O110 Co98 2.137 . S
O110 C101 1.247 . S
O111 Co98 2.244 . S
O111 C101 1.272 . S
O111 Co103 2.135 . S
Co112 O113 2.216 . S
Co112 O114 2.091 . S
Co112 O116 2.004 . S
Co112 O122 2.021 . S
Co112 O124 2.137 . S
Co112 O125 2.244 . S
O113 Co112 2.216 . S
O113 C120 1.247 . S
O114 Co112 2.091 . S
O114 C120 1.261 . S
C115 O124 1.247 . S
C115 O125 1.272 . S
O116 Co112 2.004 . S
O116 C121 1.259 . S
Co117 O118 2.061 . S
Co117 O123 2.052 . S
Co117 O125 2.135 . S
O118 Co117 2.061 . S
O118 C121 1.235 . S
C119 O122 1.238 . S
C119 O123 1.241 . S
C120 O113 1.247 . S
C120 O114 1.261 . S
C121 O116 1.259 . S
C121 O118 1.235 . S
O122 Co112 2.021 . S
O122 C119 1.238 . S
O123 Co117 2.052 . S
O123 C119 1.241 . S
O124 Co112 2.137 . S
O124 C115 1.247 . S
O125 Co112 2.244 . S
O125 C115 1.272 . S
O125 Co117 2.135 . S
Co126 O127 2.216 . S
Co126 O128 2.091 . S
Co126 O130 2.004 . S
Co126 O136 2.021 . S
Co126 O138 2.137 . S
Co126 O139 2.244 . S
O127 Co126 2.216 . S
O127 C134 1.247 . S
O128 Co126 2.091 . S
O128 C134 1.261 . S
C129 O138 1.247 . S
C129 O139 1.272 . S
O130 Co126 2.004 . S
O130 C135 1.259 . S
Co131 O132 2.061 . S
Co131 O137 2.052 . S
Co131 O139 2.135 . S
O132 Co131 2.061 . S
O132 C135 1.235 . S
C133 O136 1.238 . S
C133 O137 1.241 . S
C134 O127 1.247 . S
C134 O128 1.261 . S
C135 O130 1.259 . S
C135 O132 1.235 . S
O136 Co126 2.021 . S
O136 C133 1.238 . S
O137 Co131 2.052 . S
O137 C133 1.241 . S
O138 Co126 2.137 . S
O138 C129 1.247 . S
O139 Co126 2.244 . S
O139 C129 1.272 . S
O139 Co131 2.135 . S
Co140 O141 2.216 . S
Co140 O142 2.091 . S
Co140 O144 2.004 . S
Co140 O150 2.021 . S
Co140 O152 2.137 . S
Co140 O153 2.244 . S
O141 Co140 2.216 . S
O141 C148 1.247 . S
O142 Co140 2.091 . S
O142 C148 1.261 . S
C143 O152 1.247 . S
C143 O153 1.272 . S
O144 Co140 2.004 . S
O144 C149 1.259 . S
Co145 O146 2.061 . S
Co145 O151 2.052 . S
Co145 O153 2.135 . S
O146 Co145 2.061 . S
O146 C149 1.235 . S
C147 O150 1.238 . S
C147 O151 1.241 . S
C148 O141 1.247 . S
C148 O142 1.261 . S
C149 O144 1.259 . S
C149 O146 1.235 . S
O150 Co140 2.021 . S
O150 C147 1.238 . S
O151 Co145 2.052 . S
O151 C147 1.241 . S
O152 Co140 2.137 . S
O152 C143 1.247 . S
O153 Co140 2.244 . S
O153 C143 1.272 . S
O153 Co145 2.135 . S
Co154 O155 2.216 . S
Co154 O156 2.091 . S
Co154 O158 2.004 . S
Co154 O164 2.021 . S
Co154 O166 2.137 . S
Co154 O167 2.244 . S
O155 Co154 2.216 . S
O155 C162 1.247 . S
O156 Co154 2.091 . S
O156 C162 1.261 . S
C157 O166 1.247 . S
C157 O167 1.272 . S
O158 Co154 2.004 . S
O158 C163 1.259 . S
Co159 O160 2.061 . S
Co159 O165 2.052 . S
Co159 O167 2.135 1_556 S
O160 Co159 2.061 . S
O160 C163 1.235 1_556 S
C161 O164 1.238 1_556 S
C161 O165 1.241 . S
C162 O155 1.247 . S
C162 O156 1.261 . S
C163 O158 1.259 . S
C163 O160 1.235 1_554 S
O164 Co154 2.021 . S
O164 C161 1.238 1_554 S
O165 Co159 2.052 . S
O165 C161 1.241 . S
O166 Co154 2.137 . S
O166 C157 1.247 . S
O167 Co154 2.244 . S
O167 C157 1.272 . S
O167 Co159 2.135 1_554 S
Co168 O169 2.216 . S
Co168 O170 2.091 . S
Co168 O172 2.004 . S
Co168 O178 2.021 . S
Co168 O180 2.137 . S
Co168 O181 2.244 . S
O169 Co168 2.216 . S
O169 C176 1.247 . S
O170 Co168 2.091 . S
O170 C176 1.261 . S
C171 O180 1.247 . S
C171 O181 1.272 . S
O172 Co168 2.004 . S
O172 C177 1.259 . S
Co173 O174 2.061 . S
Co173 O179 2.052 . S
Co173 O181 2.135 . S
O174 Co173 2.061 . S
O174 C177 1.235 . S
C175 O178 1.238 . S
C175 O179 1.241 . S
C176 O169 1.247 . S
C176 O170 1.261 . S
C177 O172 1.259 . S
C177 O174 1.235 . S
O178 Co168 2.021 . S
O178 C175 1.238 . S
O179 Co173 2.052 . S
O179 C175 1.241 . S
O180 Co168 2.137 . S
O180 C171 1.247 . S
O181 Co168 2.244 . S
O181 C171 1.272 . S
O181 Co173 2.135 . S
Co182 O183 2.216 . S
Co182 O184 2.091 . S
Co182 O186 2.004 . S
Co182 O192 2.021 . S
Co182 O194 2.137 . S
Co182 O195 2.244 . S
O183 Co182 2.216 . S
O183 C190 1.247 . S
O184 Co182 2.091 . S
O184 C190 1.261 . S
C185 O194 1.247 . S
C185 O195 1.272 . S
O186 Co182 2.004 . S
O186 C191 1.259 . S
Co187 O188 2.061 . S
Co187 O193 2.052 . S
Co187 O195 2.135 1_554 S
O188 Co187 2.061 . S
O188 C191 1.235 1_554 S
C189 O192 1.238 1_554 S
C189 O193 1.241 . S
C190 O183 1.247 . S
C190 O184 1.261 . S
C191 O186 1.259 . S
C191 O188 1.235 1_556 S
O192 Co182 2.021 . S
O192 C189 1.238 1_556 S
O193 Co187 2.052 . S
O193 C189 1.241 . S
O194 Co182 2.137 . S
O194 C185 1.247 . S
O195 Co182 2.244 . S
O195 C185 1.272 . S
O195 Co187 2.135 1_556 S
Co196 O197 2.216 . S
Co196 O198 2.091 . S
Co196 O200 2.004 . S
Co196 O206 2.021 . S
Co196 O208 2.137 . S
Co196 O209 2.244 . S
O197 Co196 2.216 . S
O197 C204 1.247 . S
O198 Co196 2.091 . S
O198 C204 1.261 . S
C199 O208 1.247 . S
C199 O209 1.272 . S
O200 Co196 2.004 . S
O200 C205 1.259 . S
Co201 O202 2.061 . S
Co201 O207 2.052 . S
Co201 O209 2.135 . S
O202 Co201 2.061 . S
O202 C205 1.235 . S
C203 O206 1.238 . S
C203 O207 1.241 . S
C204 O197 1.247 . S
C204 O198 1.261 . S
C205 O200 1.259 . S
C205 O202 1.235 . S
O206 Co196 2.021 . S
O206 C203 1.238 . S
O207 Co201 2.052 . S
O207 C203 1.241 . S
O208 Co196 2.137 . S
O208 C199 1.247 . S
O209 Co196 2.244 . S
O209 C199 1.272 . S
O209 Co201 2.135 . S
Co210 O211 2.216 . S
Co210 O212 2.091 . S
Co210 O214 2.004 . S
Co210 O220 2.021 . S
Co210 O222 2.137 . S
Co210 O223 2.244 . S
O211 Co210 2.216 . S
O211 C218 1.247 . S
O212 Co210 2.091 . S
O212 C218 1.261 . S
C213 O222 1.247 . S
C213 O223 1.272 . S
O214 Co210 2.004 . S
O214 C219 1.259 . S
Co215 O216 2.061 . S
Co215 O221 2.052 . S
Co215 O223 2.135 . S
O216 Co215 2.061 . S
O216 C219 1.235 . S
C217 O220 1.238 . S
C217 O221 1.241 . S
C218 O211 1.247 . S
C218 O212 1.261 . S
C219 O214 1.259 . S
C219 O216 1.235 . S
O220 Co210 2.021 . S
O220 C217 1.238 . S
O221 Co215 2.052 . S
O221 C217 1.241 . S
O222 Co210 2.137 . S
O222 C213 1.247 . S
O223 Co210 2.244 . S
O223 C213 1.272 . S
O223 Co215 2.135 . S
Co224 O225 2.216 . S
Co224 O226 2.091 . S
Co224 O228 2.004 . S
Co224 O234 2.021 . S
Co224 O236 2.137 . S
Co224 O237 2.244 . S
O225 Co224 2.216 . S
O225 C232 1.247 . S
O226 Co224 2.091 . S
O226 C232 1.261 . S
C227 O236 1.247 . S
C227 O237 1.272 . S
O228 Co224 2.004 . S
O228 C233 1.259 . S
Co229 O230 2.061 . S
Co229 O235 2.052 . S
Co229 O237 2.135 . S
O230 Co229 2.061 . S
O230 C233 1.235 . S
C231 O234 1.238 . S
C231 O235 1.241 . S
C232 O225 1.247 . S
C232 O226 1.261 . S
C233 O228 1.259 . S
C233 O230 1.235 . S
O234 Co224 2.021 . S
O234 C231 1.238 . S
O235 Co229 2.052 . S
O235 C231 1.241 . S
O236 Co224 2.137 . S
O236 C227 1.247 . S
O237 Co224 2.244 . S
O237 C227 1.272 . S
O237 Co229 2.135 . S
Co238 O239 2.216 . S
Co238 O240 2.091 . S
Co238 O242 2.004 . S
Co238 O248 2.021 . S
Co238 O250 2.137 . S
Co238 O251 2.244 . S
O239 Co238 2.216 . S
O239 C246 1.247 . S
O240 Co238 2.091 . S
O240 C246 1.261 . S
C241 O250 1.247 . S
C241 O251 1.272 . S
O242 Co238 2.004 . S
O242 C247 1.259 . S
Co243 O244 2.061 . S
Co243 O249 2.052 . S
Co243 O251 2.135 1_554 S
O244 Co243 2.061 . S
O244 C247 1.235 1_554 S
C245 O248 1.238 1_554 S
C245 O249 1.241 . S
C246 O239 1.247 . S
C246 O240 1.261 . S
C247 O242 1.259 . S
C247 O244 1.235 1_556 S
O248 Co238 2.021 . S
O248 C245 1.238 1_556 S
O249 Co243 2.052 . S
O249 C245 1.241 . S
O250 Co238 2.137 . S
O250 C241 1.247 . S
O251 Co238 2.244 . S
O251 C241 1.272 . S
O251 Co243 2.135 1_556 S
Co252 O253 2.216 . S
Co252 O254 2.091 . S
Co252 O256 2.004 . S
Co252 O262 2.021 . S
Co252 O264 2.137 . S
Co252 O265 2.244 . S
O253 Co252 2.216 . S
O253 C260 1.247 . S
O254 Co252 2.091 . S
O254 C260 1.261 . S
C255 O264 1.247 . S
C255 O265 1.272 . S
O256 Co252 2.004 . S
O256 C261 1.259 . S
Co257 O258 2.061 . S
Co257 O263 2.052 . S
Co257 O265 2.135 . S
O258 Co257 2.061 . S
O258 C261 1.235 . S
C259 O262 1.238 . S
C259 O263 1.241 . S
C260 O253 1.247 . S
C260 O254 1.261 . S
C261 O256 1.259 . S
C261 O258 1.235 . S
O262 Co252 2.021 . S
O262 C259 1.238 . S
O263 Co257 2.052 . S
O263 C259 1.241 . S
O264 Co252 2.137 . S
O264 C255 1.247 . S
O265 Co252 2.244 . S
O265 C255 1.272 . S
O265 Co257 2.135 . S
Co266 O267 2.216 . S
Co266 O268 2.091 . S
Co266 O270 2.004 . S
Co266 O276 2.021 . S
Co266 O278 2.137 . S
Co266 O279 2.244 . S
O267 Co266 2.216 . S
O267 C274 1.247 . S
O268 Co266 2.091 . S
O268 C274 1.261 . S
C269 O278 1.247 . S
C269 O279 1.272 . S
O270 Co266 2.004 . S
O270 C275 1.259 . S
Co271 O272 2.061 . S
Co271 O277 2.052 . S
Co271 O279 2.135 . S
O272 Co271 2.061 . S
O272 C275 1.235 . S
C273 O276 1.238 . S
C273 O277 1.241 . S
C274 O267 1.247 . S
C274 O268 1.261 . S
C275 O270 1.259 . S
C275 O272 1.235 . S
O276 Co266 2.021 . S
O276 C273 1.238 . S
O277 Co271 2.052 . S
O277 C273 1.241 . S
O278 Co266 2.137 . S
O278 C269 1.247 . S
O279 Co266 2.244 . S
O279 C269 1.272 . S
O279 Co271 2.135 . S
Co280 O281 2.216 . S
Co280 O282 2.091 . S
Co280 O284 2.004 . S
Co280 O290 2.021 . S
Co280 O292 2.137 . S
Co280 O293 2.244 . S
O281 Co280 2.216 . S
O281 C288 1.247 . S
O282 Co280 2.091 . S
O282 C288 1.261 . S
C283 O292 1.247 . S
C283 O293 1.272 . S
O284 Co280 2.004 . S
O284 C289 1.259 . S
Co285 O286 2.061 . S
Co285 O291 2.052 . S
Co285 O293 2.135 . S
O286 Co285 2.061 . S
O286 C289 1.235 . S
C287 O290 1.238 . S
C287 O291 1.241 . S
C288 O281 1.247 . S
C288 O282 1.261 . S
C289 O284 1.259 . S
C289 O286 1.235 . S
O290 Co280 2.021 . S
O290 C287 1.238 . S
O291 Co285 2.052 . S
O291 C287 1.241 . S
O292 Co280 2.137 . S
O292 C283 1.247 . S
O293 Co280 2.244 . S
O293 C283 1.272 . S
O293 Co285 2.135 . S
Co294 O295 2.216 . S
Co294 O296 2.091 . S
Co294 O298 2.004 . S
Co294 O304 2.021 . S
Co294 O306 2.137 . S
Co294 O307 2.244 . S
O295 Co294 2.216 . S
O295 C302 1.247 . S
O296 Co294 2.091 . S
O296 C302 1.261 . S
C297 O306 1.247 . S
C297 O307 1.272 . S
O298 Co294 2.004 . S
O298 C303 1.259 . S
Co299 O300 2.061 . S
Co299 O305 2.052 . S
Co299 O307 2.135 . S
O300 Co299 2.061 . S
O300 C303 1.235 . S
C301 O304 1.238 . S
C301 O305 1.241 . S
C302 O295 1.247 . S
C302 O296 1.261 . S
C303 O298 1.259 . S
C303 O300 1.235 . S
O304 Co294 2.021 . S
O304 C301 1.238 . S
O305 Co299 2.052 . S
O305 C301 1.241 . S
O306 Co294 2.137 . S
O306 C297 1.247 . S
O307 Co294 2.244 . S
O307 C297 1.272 . S
O307 Co299 2.135 . S
Co308 O309 2.216 . S
Co308 O310 2.091 . S
Co308 O312 2.004 . S
Co308 O318 2.021 . S
Co308 O320 2.137 . S
Co308 O321 2.244 . S
O309 Co308 2.216 . S
O309 C316 1.247 . S
O310 Co308 2.091 . S
O310 C316 1.261 . S
C311 O320 1.247 . S
C311 O321 1.272 . S
O312 Co308 2.004 . S
O312 C317 1.259 . S
Co313 O314 2.061 . S
Co313 O319 2.052 . S
Co313 O321 2.135 . S
O314 Co313 2.061 . S
O314 C317 1.235 . S
C315 O318 1.238 . S
C315 O319 1.241 . S
C316 O309 1.247 . S
C316 O310 1.261 . S
C317 O312 1.259 . S
C317 O314 1.235 . S
O318 Co308 2.021 . S
O318 C315 1.238 . S
O319 Co313 2.052 . S
O319 C315 1.241 . S
O320 Co308 2.137 . S
O320 C311 1.247 . S
O321 Co308 2.244 . S
O321 C311 1.272 . S
O321 Co313 2.135 . S
Co322 O323 2.216 . S
Co322 O324 2.091 . S
Co322 O326 2.004 . S
Co322 O332 2.021 . S
Co322 O334 2.137 . S
Co322 O335 2.244 . S
O323 Co322 2.216 . S
O323 C330 1.247 . S
O324 Co322 2.091 . S
O324 C330 1.261 . S
C325 O334 1.247 . S
C325 O335 1.272 . S
O326 Co322 2.004 . S
O326 C331 1.259 . S
Co327 O328 2.061 . S
Co327 O333 2.052 . S
Co327 O335 2.135 1_556 S
O328 Co327 2.061 . S
O328 C331 1.235 1_556 S
C329 O332 1.238 1_556 S
C329 O333 1.241 . S
C330 O323 1.247 . S
C330 O324 1.261 . S
C331 O326 1.259 . S
C331 O328 1.235 1_554 S
O332 Co322 2.021 . S
O332 C329 1.238 1_554 S
O333 Co327 2.052 . S
O333 C329 1.241 . S
O334 Co322 2.137 . S
O334 C325 1.247 . S
O335 Co322 2.244 . S
O335 C325 1.272 . S
O335 Co327 2.135 1_554 S
Co336 O337 2.216 . S
Co336 O338 2.091 . S
Co336 O340 2.004 . S
Co336 O346 2.021 . S
Co336 O348 2.137 . S
Co336 O349 2.244 . S
O337 Co336 2.216 . S
O337 C344 1.247 . S
O338 Co336 2.091 . S
O338 C344 1.261 . S
C339 O348 1.247 . S
C339 O349 1.272 . S
O340 Co336 2.004 . S
O340 C345 1.259 . S
Co341 O342 2.061 . S
Co341 O347 2.052 . S
Co341 O349 2.135 . S
O342 Co341 2.061 . S
O342 C345 1.235 . S
C343 O346 1.238 . S
C343 O347 1.241 . S
C344 O337 1.247 . S
C344 O338 1.261 . S
C345 O340 1.259 . S
C345 O342 1.235 . S
O346 Co336 2.021 . S
O346 C343 1.238 . S
O347 Co341 2.052 . S
O347 C343 1.241 . S
O348 Co336 2.137 . S
O348 C339 1.247 . S
O349 Co336 2.244 . S
O349 C339 1.272 . S
O349 Co341 2.135 . S
Co350 O351 2.216 . S
Co350 O352 2.091 . S
Co350 O354 2.004 . S
Co350 O360 2.021 . S
Co350 O362 2.137 . S
Co350 O363 2.244 . S
O351 Co350 2.216 . S
O351 C358 1.247 . S
O352 Co350 2.091 . S
O352 C358 1.261 . S
C353 O362 1.247 . S
C353 O363 1.272 . S
O354 Co350 2.004 . S
O354 C359 1.259 . S
Co355 O356 2.061 . S
Co355 O361 2.052 . S
Co355 O363 2.135 1_556 S
O356 Co355 2.061 . S
O356 C359 1.235 1_556 S
C357 O360 1.238 1_556 S
C357 O361 1.241 . S
C358 O351 1.247 . S
C358 O352 1.261 . S
C359 O354 1.259 . S
C359 O356 1.235 1_554 S
O360 Co350 2.021 . S
O360 C357 1.238 1_554 S
O361 Co355 2.052 . S
O361 C357 1.241 . S
O362 Co350 2.137 . S
O362 C353 1.247 . S
O363 Co350 2.244 . S
O363 C353 1.272 . S
O363 Co355 2.135 1_554 S
Co364 O365 2.216 . S
Co364 O366 2.091 . S
Co364 O368 2.004 . S
Co364 O374 2.021 . S
Co364 O376 2.137 . S
Co364 O377 2.244 . S
O365 Co364 2.216 . S
O365 C372 1.247 . S
O366 Co364 2.091 . S
O366 C372 1.261 . S
C367 O376 1.247 . S
C367 O377 1.272 . S
O368 Co364 2.004 . S
O368 C373 1.259 . S
Co369 O370 2.061 . S
Co369 O375 2.052 . S
Co369 O377 2.135 . S
O370 Co369 2.061 . S
O370 C373 1.235 . S
C371 O374 1.238 . S
C371 O375 1.241 . S
C372 O365 1.247 . S
C372 O366 1.261 . S
C373 O368 1.259 . S
C373 O370 1.235 . S
O374 Co364 2.021 . S
O374 C371 1.238 . S
O375 Co369 2.052 . S
O375 C371 1.241 . S
O376 Co364 2.137 . S
O376 C367 1.247 . S
O377 Co364 2.244 . S
O377 C367 1.272 . S
O377 Co369 2.135 . S
Co378 O379 2.216 . S
Co378 O380 2.091 . S
Co378 O382 2.004 . S
Co378 O388 2.021 . S
Co378 O390 2.137 . S
Co378 O391 2.244 . S
O379 Co378 2.216 . S
O379 C386 1.247 . S
O380 Co378 2.091 . S
O380 C386 1.261 . S
C381 O390 1.247 . S
C381 O391 1.272 . S
O382 Co378 2.004 . S
O382 C387 1.259 . S
Co383 O384 2.061 . S
Co383 O389 2.052 . S
Co383 O391 2.135 . S
O384 Co383 2.061 . S
O384 C387 1.235 . S
C385 O388 1.238 . S
C385 O389 1.241 . S
C386 O379 1.247 . S
C386 O380 1.261 . S
C387 O382 1.259 . S
C387 O384 1.235 . S
O388 Co378 2.021 . S
O388 C385 1.238 . S
O389 Co383 2.052 . S
O389 C385 1.241 . S
O390 Co378 2.137 . S
O390 C381 1.247 . S
O391 Co378 2.244 . S
O391 C381 1.272 . S
O391 Co383 2.135 . S
Co392 O393 2.216 . S
Co392 O394 2.091 . S
Co392 O396 2.004 . S
Co392 O402 2.021 . S
Co392 O404 2.137 . S
Co392 O405 2.244 . S
O393 Co392 2.216 . S
O393 C400 1.247 . S
O394 Co392 2.091 . S
O394 C400 1.261 . S
C395 O404 1.247 . S
C395 O405 1.272 . S
O396 Co392 2.004 . S
O396 C401 1.259 . S
Co397 O398 2.061 . S
Co397 O403 2.052 . S
Co397 O405 2.135 . S
O398 Co397 2.061 . S
O398 C401 1.235 . S
C399 O402 1.238 . S
C399 O403 1.241 . S
C400 O393 1.247 . S
C400 O394 1.261 . S
C401 O396 1.259 . S
C401 O398 1.235 . S
O402 Co392 2.021 . S
O402 C399 1.238 . S
O403 Co397 2.052 . S
O403 C399 1.241 . S
O404 Co392 2.137 . S
O404 C395 1.247 . S
O405 Co392 2.244 . S
O405 C395 1.272 . S
O405 Co397 2.135 . S
Co406 O407 2.216 . S
Co406 O408 2.091 . S
Co406 O410 2.004 . S
Co406 O416 2.021 . S
Co406 O418 2.137 . S
Co406 O419 2.244 . S
O407 Co406 2.216 . S
O407 C414 1.247 . S
O408 Co406 2.091 . S
O408 C414 1.261 . S
C409 O418 1.247 . S
C409 O419 1.272 . S
O410 Co406 2.004 . S
O410 C415 1.259 . S
Co411 O412 2.061 . S
Co411 O417 2.052 . S
Co411 O419 2.135 . S
O412 Co411 2.061 . S
O412 C415 1.235 . S
C413 O416 1.238 . S
C413 O417 1.241 . S
C414 O407 1.247 . S
C414 O408 1.261 . S
C415 O410 1.259 . S
C415 O412 1.235 . S
O416 Co406 2.021 . S
O416 C413 1.238 . S
O417 Co411 2.052 . S
O417 C413 1.241 . S
O418 Co406 2.137 . S
O418 C409 1.247 . S
O419 Co406 2.244 . S
O419 C409 1.272 . S
O419 Co411 2.135 . S
Co420 O421 2.216 . S
Co420 O422 2.091 . S
Co420 O424 2.004 . S
Co420 O430 2.021 . S
Co420 O432 2.137 . S
Co420 O433 2.244 . S
O421 Co420 2.216 . S
O421 C428 1.247 . S
O422 Co420 2.091 . S
O422 C428 1.261 . S
C423 O432 1.247 . S
C423 O433 1.272 . S
O424 Co420 2.004 . S
O424 C429 1.259 . S
Co425 O426 2.061 . S
Co425 O431 2.052 . S
Co425 O433 2.135 . S
O426 Co425 2.061 . S
O426 C429 1.235 . S
C427 O430 1.238 . S
C427 O431 1.241 . S
C428 O421 1.247 . S
C428 O422 1.261 . S
C429 O424 1.259 . S
C429 O426 1.235 . S
O430 Co420 2.021 . S
O430 C427 1.238 . S
O431 Co425 2.052 . S
O431 C427 1.241 . S
O432 Co420 2.137 . S
O432 C423 1.247 . S
O433 Co420 2.244 . S
O433 C423 1.272 . S
O433 Co425 2.135 . S
Co434 O435 2.216 . S
Co434 O436 2.091 . S
Co434 O438 2.004 . S
Co434 O444 2.021 . S
Co434 O446 2.137 . S
Co434 O447 2.244 . S
O435 Co434 2.216 . S
O435 C442 1.247 . S
O436 Co434 2.091 . S
O436 C442 1.261 . S
C437 O446 1.247 . S
C437 O447 1.272 . S
O438 Co434 2.004 . S
O438 C443 1.259 . S
Co439 O440 2.061 . S
Co439 O445 2.052 . S
Co439 O447 2.135 1_554 S
O440 Co439 2.061 . S
O440 C443 1.235 1_554 S
C441 O444 1.238 1_554 S
C441 O445 1.241 . S
C442 O435 1.247 . S
C442 O436 1.261 . S
C443 O438 1.259 . S
C443 O440 1.235 1_556 S
O444 Co434 2.021 . S
O444 C441 1.238 1_556 S
O445 Co439 2.052 . S
O445 C441 1.241 . S
O446 Co434 2.137 . S
O446 C437 1.247 . S
O447 Co434 2.244 . S
O447 C437 1.272 . S
O447 Co439 2.135 1_556 S
C448 C449 1.387 . S
C448 H452 0.950 . S
C448 C457 1.390 . S
C449 C448 1.387 . S
C449 C451 1.387 . S
H450 C457 0.950 . S
C451 C449 1.387 . S
C451 C453 1.390 . S
C451 H455 0.950 . S
H452 C448 0.950 . S
C453 C451 1.390 . S
C453 C454 1.387 . S
C453 H456 0.950 . S
C454 C453 1.387 . S
C454 C457 1.387 . S
H455 C451 0.950 . S
H456 C453 0.950 . S
C457 C448 1.390 . S
C457 H450 0.950 . S
C457 C454 1.387 . S
C458 C459 1.387 . S
C458 H462 0.950 . S
C458 C467 1.390 1_565 S
C459 C458 1.387 . S
C459 C461 1.387 . S
H460 C467 0.950 . S
C461 C459 1.387 . S
C461 C463 1.390 1_565 S
C461 H465 0.950 . S
H462 C458 0.950 . S
C463 C461 1.390 1_545 S
C463 C464 1.387 . S
C463 H466 0.950 . S
C464 C463 1.387 . S
C464 C467 1.387 . S
H465 C461 0.950 . S
H466 C463 0.950 . S
C467 C458 1.390 1_545 S
C467 H460 0.950 . S
C467 C464 1.387 . S
C468 C469 1.387 . S
C468 H472 0.950 . S
C468 C477 1.390 . S
C469 C468 1.387 . S
C469 C471 1.387 . S
H470 C477 0.950 . S
C471 C469 1.387 . S
C471 C473 1.390 . S
C471 H475 0.950 . S
H472 C468 0.950 . S
C473 C471 1.390 . S
C473 C474 1.387 . S
C473 H476 0.950 . S
C474 C473 1.387 . S
C474 C477 1.387 . S
H475 C471 0.950 . S
H476 C473 0.950 . S
C477 C468 1.390 . S
C477 H470 0.950 . S
C477 C474 1.387 . S
C478 C479 1.387 . S
C478 H482 0.950 . S
C478 C487 1.390 1_546 S
C479 C478 1.387 . S
C479 C481 1.387 . S
H480 C487 0.950 . S
C481 C479 1.387 . S
C481 C483 1.390 1_546 S
C481 H485 0.950 . S
H482 C478 0.950 . S
C483 C481 1.390 1_564 S
C483 C484 1.387 . S
C483 H486 0.950 . S
C484 C483 1.387 . S
C484 C487 1.387 . S
H485 C481 0.950 . S
H486 C483 0.950 . S
C487 C478 1.390 1_564 S
C487 H480 0.950 . S
C487 C484 1.387 . S
C488 C489 1.387 . S
C488 H492 0.950 . S
C488 C497 1.390 . S
C489 C488 1.387 . S
C489 C491 1.387 . S
H490 C497 0.950 . S
C491 C489 1.387 . S
C491 C493 1.390 . S
C491 H495 0.950 . S
H492 C488 0.950 . S
C493 C491 1.390 . S
C493 C494 1.387 . S
C493 H496 0.950 . S
C494 C493 1.387 . S
C494 C497 1.387 . S
H495 C491 0.950 . S
H496 C493 0.950 . S
C497 C488 1.390 . S
C497 H490 0.950 . S
C497 C494 1.387 . S
C498 C499 1.387 . S
C498 H502 0.950 . S
C498 C507 1.390 1_565 S
C499 C498 1.387 . S
C499 C501 1.387 . S
H500 C507 0.950 . S
C501 C499 1.387 . S
C501 C503 1.390 1_565 S
C501 H505 0.950 . S
H502 C498 0.950 . S
C503 C501 1.390 1_545 S
C503 C504 1.387 . S
C503 H506 0.950 . S
C504 C503 1.387 . S
C504 C507 1.387 . S
H505 C501 0.950 . S
H506 C503 0.950 . S
C507 C498 1.390 1_545 S
C507 H500 0.950 . S
C507 C504 1.387 . S
C508 C509 1.387 . S
C508 H512 0.950 . S
C508 C517 1.390 . S
C509 C508 1.387 . S
C509 C511 1.387 . S
H510 C517 0.950 . S
C511 C509 1.387 . S
C511 C513 1.390 . S
C511 H515 0.950 . S
H512 C508 0.950 . S
C513 C511 1.390 . S
C513 C514 1.387 . S
C513 H516 0.950 . S
C514 C513 1.387 . S
C514 C517 1.387 . S
H515 C511 0.950 . S
H516 C513 0.950 . S
C517 C508 1.390 . S
C517 H510 0.950 . S
C517 C514 1.387 . S
C518 C519 1.387 . S
C518 H522 0.950 . S
C518 C527 1.390 1_546 S
C519 C518 1.387 . S
C519 C521 1.387 . S
H520 C527 0.950 . S
C521 C519 1.387 . S
C521 C523 1.390 1_546 S
C521 H525 0.950 . S
H522 C518 0.950 . S
C523 C521 1.390 1_564 S
C523 C524 1.387 . S
C523 H526 0.950 . S
C524 C523 1.387 . S
C524 C527 1.387 . S
H525 C521 0.950 . S
H526 C523 0.950 . S
C527 C518 1.390 1_564 S
C527 H520 0.950 . S
C527 C524 1.387 . S
C528 C529 1.387 . S
C528 H532 0.950 . S
C528 C537 1.390 . S
C529 C528 1.387 . S
C529 C531 1.387 . S
H530 C537 0.950 . S
C531 C529 1.387 . S
C531 C533 1.390 . S
C531 H535 0.950 . S
H532 C528 0.950 . S
C533 C531 1.390 . S
C533 C534 1.387 . S
C533 H536 0.950 . S
C534 C533 1.387 . S
C534 C537 1.387 . S
H535 C531 0.950 . S
H536 C533 0.950 . S
C537 C528 1.390 . S
C537 H530 0.950 . S
C537 C534 1.387 . S
C538 C539 1.387 . S
C538 H542 0.950 . S
C538 C547 1.390 1_556 S
C539 C538 1.387 . S
C539 C541 1.387 . S
H540 C547 0.950 . S
C541 C539 1.387 . S
C541 C543 1.390 1_556 S
C541 H545 0.950 . S
H542 C538 0.950 . S
C543 C541 1.390 1_554 S
C543 C544 1.387 . S
C543 H546 0.950 . S
C544 C543 1.387 . S
C544 C547 1.387 . S
H545 C541 0.950 . S
H546 C543 0.950 . S
C547 C538 1.390 1_554 S
C547 H540 0.950 . S
C547 C544 1.387 . S
C548 C549 1.387 . S
C548 H552 0.950 . S
C548 C557 1.390 . S
C549 C548 1.387 . S
C549 C551 1.387 . S
H550 C557 0.950 . S
C551 C549 1.387 . S
C551 C553 1.390 . S
C551 H555 0.950 . S
H552 C548 0.950 . S
C553 C551 1.390 . S
C553 C554 1.387 . S
C553 H556 0.950 . S
C554 C553 1.387 . S
C554 C557 1.387 . S
H555 C551 0.950 . S
H556 C553 0.950 . S
C557 C548 1.390 . S
C557 H550 0.950 . S
C557 C554 1.387 . S
C558 C559 1.387 . S
C558 H562 0.950 . S
C558 C567 1.390 . S
C559 C558 1.387 . S
C559 C561 1.387 . S
H560 C567 0.950 . S
C561 C559 1.387 . S
C561 C563 1.390 . S
C561 H565 0.950 . S
H562 C558 0.950 . S
C563 C561 1.390 . S
C563 C564 1.387 . S
C563 H566 0.950 . S
C564 C563 1.387 . S
C564 C567 1.387 . S
H565 C561 0.950 . S
H566 C563 0.950 . S
C567 C558 1.390 . S
C567 H560 0.950 . S
C567 C564 1.387 . S
C568 C569 1.387 . S
C568 H572 0.950 . S
C568 C577 1.390 . S
C569 C568 1.387 . S
C569 C571 1.387 . S
H570 C577 0.950 . S
C571 C569 1.387 . S
C571 C573 1.390 . S
C571 H575 0.950 . S
H572 C568 0.950 . S
C573 C571 1.390 . S
C573 C574 1.387 . S
C573 H576 0.950 . S
C574 C573 1.387 . S
C574 C577 1.387 . S
H575 C571 0.950 . S
H576 C573 0.950 . S
C577 C568 1.390 . S
C577 H570 0.950 . S
C577 C574 1.387 . S
C578 C579 1.387 . S
C578 H582 0.950 . S
C578 C587 1.390 1_554 S
C579 C578 1.387 . S
C579 C581 1.387 . S
H580 C587 0.950 . S
C581 C579 1.387 . S
C581 C583 1.390 1_554 S
C581 H585 0.950 . S
H582 C578 0.950 . S
C583 C581 1.390 1_556 S
C583 C584 1.387 . S
C583 H586 0.950 . S
C584 C583 1.387 . S
C584 C587 1.387 . S
H585 C581 0.950 . S
H586 C583 0.950 . S
C587 C578 1.390 1_556 S
C587 H580 0.950 . S
C587 C584 1.387 . S
C588 C589 1.387 . S
C588 H592 0.950 . S
C588 C597 1.390 . S
C589 C588 1.387 . S
C589 C591 1.387 . S
H590 C597 0.950 . S
C591 C589 1.387 . S
C591 C593 1.390 . S
C591 H595 0.950 . S
H592 C588 0.950 . S
C593 C591 1.390 . S
C593 C594 1.387 . S
C593 H596 0.950 . S
C594 C593 1.387 . S
C594 C597 1.387 . S
H595 C591 0.950 . S
H596 C593 0.950 . S
C597 C588 1.390 . S
C597 H590 0.950 . S
C597 C594 1.387 . S
C598 C599 1.387 . S
C598 H602 0.950 . S
C598 C607 1.390 . S
C599 C598 1.387 . S
C599 C601 1.387 . S
H600 C607 0.950 . S
C601 C599 1.387 . S
C601 C603 1.390 . S
C601 H605 0.950 . S
H602 C598 0.950 . S
C603 C601 1.390 . S
C603 C604 1.387 . S
C603 H606 0.950 . S
C604 C603 1.387 . S
C604 C607 1.387 . S
H605 C601 0.950 . S
H606 C603 0.950 . S
C607 C598 1.390 . S
C607 H600 0.950 . S
C607 C604 1.387 . S
C608 C609 1.387 . S
C608 H612 0.950 . S
C608 C617 1.390 . S
C609 C608 1.387 . S
C609 C611 1.387 . S
H610 C617 0.950 . S
C611 C609 1.387 . S
C611 C613 1.390 . S
C611 H615 0.950 . S
H612 C608 0.950 . S
C613 C611 1.390 . S
C613 C614 1.387 . S
C613 H616 0.950 . S
C614 C613 1.387 . S
C614 C617 1.387 . S
H615 C611 0.950 . S
H616 C613 0.950 . S
C617 C608 1.390 . S
C617 H610 0.950 . S
C617 C614 1.387 . S
C618 C619 1.387 . S
C618 H622 0.950 . S
C618 C627 1.390 . S
C619 C618 1.387 . S
C619 C621 1.387 . S
H620 C627 0.950 . S
C621 C619 1.387 . S
C621 C623 1.390 . S
C621 H625 0.950 . S
H622 C618 0.950 . S
C623 C621 1.390 . S
C623 C624 1.387 . S
C623 H626 0.950 . S
C624 C623 1.387 . S
C624 C627 1.387 . S
H625 C621 0.950 . S
H626 C623 0.950 . S
C627 C618 1.390 . S
C627 H620 0.950 . S
C627 C624 1.387 . S
C628 C629 1.387 . S
C628 H632 0.950 . S
C628 C637 1.390 . S
C629 C628 1.387 . S
C629 C631 1.387 . S
H630 C637 0.950 . S
C631 C629 1.387 . S
C631 C633 1.390 . S
C631 H635 0.950 . S
H632 C628 0.950 . S
C633 C631 1.390 . S
C633 C634 1.387 . S
C633 H636 0.950 . S
C634 C633 1.387 . S
C634 C637 1.387 . S
H635 C631 0.950 . S
H636 C633 0.950 . S
C637 C628 1.390 . S
C637 H630 0.950 . S
C637 C634 1.387 . S
C638 C639 1.387 . S
C638 H642 0.950 . S
C638 C647 1.390 . S
C639 C638 1.387 . S
C639 C641 1.387 . S
H640 C647 0.950 . S
C641 C639 1.387 . S
C641 C643 1.390 . S
C641 H645 0.950 . S
H642 C638 0.950 . S
C643 C641 1.390 . S
C643 C644 1.387 . S
C643 H646 0.950 . S
C644 C643 1.387 . S
C644 C647 1.387 . S
H645 C641 0.950 . S
H646 C643 0.950 . S
C647 C638 1.390 . S
C647 H640 0.950 . S
C647 C644 1.387 . S
C648 C649 1.387 . S
C648 H652 0.950 . S
C648 C657 1.390 . S
C649 C648 1.387 . S
C649 C651 1.387 . S
H650 C657 0.950 . S
C651 C649 1.387 . S
C651 C653 1.390 . S
C651 H655 0.946 1_554 S
H652 C648 0.950 . S
C653 C651 1.390 . S
C653 C654 1.387 . S
C653 H656 0.950 . S
C654 C653 1.387 . S
C654 C657 1.387 . S
H655 C651 0.946 1_556 S
H656 C653 0.950 . S
C657 C648 1.390 . S
C657 H650 0.950 . S
C657 C654 1.387 . S
C658 C659 1.387 . S
C658 H662 0.950 . S
C658 C667 1.390 . S
C659 C658 1.387 . S
C659 C661 1.387 . S
H660 C667 0.950 . S
C661 C659 1.387 . S
C661 C663 1.390 . S
C661 H665 0.950 1_556 S
H662 C658 0.950 . S
C663 C661 1.390 . S
C663 C664 1.387 . S
C663 H666 0.950 . S
C664 C663 1.387 . S
C664 C667 1.387 . S
H665 C661 0.950 1_554 S
H666 C663 0.950 . S
C667 C658 1.390 . S
C667 H660 0.950 . S
C667 C664 1.387 . S
C668 C669 1.387 . S
C668 H672 0.950 . S
C668 C677 1.390 . S
C669 C668 1.387 . S
C669 C671 1.387 . S
H670 C677 0.950 . S
C671 C669 1.387 . S
C671 C673 1.390 . S
C671 H675 0.950 . S
H672 C668 0.950 . S
C673 C671 1.390 . S
C673 C674 1.387 . S
C673 H676 0.950 . S
C674 C673 1.387 . S
C674 C677 1.387 . S
H675 C671 0.950 . S
H676 C673 0.950 . S
C677 C668 1.390 . S
C677 H670 0.950 . S
C677 C674 1.387 . S
C678 C679 1.387 . S
C678 H682 0.950 . S
C678 C687 1.390 . S
C679 C678 1.387 . S
C679 C681 1.387 . S
H680 C687 0.950 . S
C681 C679 1.387 . S
C681 C683 1.390 . S
C681 H685 0.950 . S
H682 C678 0.950 . S
C683 C681 1.390 . S
C683 C684 1.387 . S
C683 H686 0.950 . S
C684 C683 1.387 . S
C684 C687 1.387 . S
H685 C681 0.950 . S
H686 C683 0.950 . S
C687 C678 1.390 . S
C687 H680 0.950 . S
C687 C684 1.387 . S
C688 C689 1.387 . S
C688 H692 0.950 . S
C688 C697 1.390 . S
C689 C688 1.387 . S
C689 C691 1.387 . S
H690 C697 0.950 . S
C691 C689 1.387 . S
C691 C693 1.390 . S
C691 H695 0.950 . S
H692 C688 0.950 . S
C693 C691 1.390 . S
C693 C694 1.387 . S
C693 H696 0.950 . S
C694 C693 1.387 . S
C694 C697 1.387 . S
H695 C691 0.950 . S
H696 C693 0.950 . S
C697 C688 1.390 . S
C697 H690 0.950 . S
C697 C694 1.387 . S
C698 C699 1.387 . S
C698 H702 0.950 . S
C698 C707 1.390 . S
C699 C698 1.387 . S
C699 C701 1.387 . S
H700 C707 0.950 . S
C701 C699 1.387 . S
C701 C703 1.390 . S
C701 H705 0.950 . S
H702 C698 0.950 . S
C703 C701 1.390 . S
C703 C704 1.387 . S
C703 H706 0.950 . S
C704 C703 1.387 . S
C704 C707 1.387 . S
H705 C701 0.950 . S
H706 C703 0.950 . S
C707 C698 1.390 . S
C707 H700 0.950 . S
C707 C704 1.387 . S
C708 C709 1.387 . S
C708 H712 0.950 . S
C708 C717 1.390 . S
C709 C708 1.387 . S
C709 C711 1.387 . S
H710 C717 0.950 . S
C711 C709 1.387 . S
C711 C713 1.390 . S
C711 H715 0.950 . S
H712 C708 0.950 . S
C713 C711 1.390 . S
C713 C714 1.387 . S
C713 H716 0.950 . S
C714 C713 1.387 . S
C714 C717 1.387 . S
H715 C711 0.950 . S
H716 C713 0.950 . S
C717 C708 1.390 . S
C717 H710 0.950 . S
C717 C714 1.387 . S
C718 C719 1.387 . S
C718 H722 0.950 . S
C718 C727 1.390 . S
C719 C718 1.387 . S
C719 C721 1.387 . S
H720 C727 0.950 . S
C721 C719 1.387 . S
C721 C723 1.390 . S
C721 H725 0.950 . S
H722 C718 0.950 . S
C723 C721 1.390 . S
C723 C724 1.387 . S
C723 H726 0.950 . S
C724 C723 1.387 . S
C724 C727 1.387 . S
H725 C721 0.950 . S
H726 C723 0.950 . S
C727 C718 1.390 . S
C727 H720 0.950 . S
C727 C724 1.387 . S
C728 C729 1.387 . S
C728 H732 0.950 . S
C728 C737 1.390 . S
C729 C728 1.387 . S
C729 C731 1.387 . S
H730 C737 0.950 . S
C731 C729 1.387 . S
C731 C733 1.390 . S
C731 H735 0.950 . S
H732 C728 0.950 . S
C733 C731 1.390 . S
C733 C734 1.387 . S
C733 H736 0.950 . S
C734 C733 1.387 . S
C734 C737 1.387 . S
H735 C731 0.950 . S
H736 C733 0.950 . S
C737 C728 1.390 . S
C737 H730 0.950 . S
C737 C734 1.387 . S
C738 C739 1.387 . S
C738 H742 0.950 . S
C738 C747 1.390 . S
C739 C738 1.387 . S
C739 C741 1.387 . S
H740 C747 0.950 . S
C741 C739 1.387 . S
C741 C743 1.390 . S
C741 H745 0.950 . S
H742 C738 0.950 . S
C743 C741 1.390 . S
C743 C744 1.387 . S
C743 H746 0.950 . S
C744 C743 1.387 . S
C744 C747 1.387 . S
H745 C741 0.950 . S
H746 C743 0.950 . S
C747 C738 1.390 . S
C747 H740 0.950 . S
C747 C744 1.387 . S
C748 C749 1.387 . S
C748 H752 0.950 . S
C748 C757 1.390 . S
C749 C748 1.387 . S
C749 C751 1.387 . S
H750 C757 0.950 . S
C751 C749 1.387 . S
C751 C753 1.390 . S
C751 H755 0.950 1_554 S
H752 C748 0.950 . S
C753 C751 1.390 . S
C753 C754 1.387 . S
C753 H756 0.950 . S
C754 C753 1.387 . S
C754 C757 1.387 . S
H755 C751 0.950 1_556 S
H756 C753 0.950 . S
C757 C748 1.390 . S
C757 H750 0.950 . S
C757 C754 1.387 . S
C758 C759 1.387 . S
C758 H762 0.950 . S
C758 C767 1.390 . S
C759 C758 1.387 . S
C759 C761 1.387 . S
H760 C767 0.950 . S
C761 C759 1.387 . S
C761 C763 1.390 . S
C761 H765 0.950 . S
H762 C758 0.950 . S
C763 C761 1.390 . S
C763 C764 1.387 . S
C763 H766 0.950 . S
C764 C763 1.387 . S
C764 C767 1.387 . S
H765 C761 0.950 . S
H766 C763 0.950 . S
C767 C758 1.390 . S
C767 H760 0.950 . S
C767 C764 1.387 . S
C768 C769 1.387 . S
C768 H772 0.950 1_554 S
C768 C777 1.390 . S
C769 C768 1.387 . S
C769 C771 1.387 . S
H770 C777 0.950 1_556 S
C771 C769 1.387 . S
C771 C773 1.390 . S
C771 H775 0.950 . S
H772 C768 0.950 1_556 S
C773 C771 1.390 . S
C773 C774 1.387 . S
C773 H776 0.950 . S
C774 C773 1.387 . S
C774 C777 1.387 . S
H775 C771 0.950 . S
H776 C773 0.950 . S
C777 C768 1.390 . S
C777 H770 0.950 1_554 S
C777 C774 1.387 . S
C778 C779 1.387 . S
C778 H782 0.950 . S
C778 C787 1.390 1_655 S
C779 C778 1.387 . S
C779 C781 1.387 . S
H780 C787 0.950 . S
C781 C779 1.387 . S
C781 C783 1.390 1_655 S
C781 H785 0.950 . S
H782 C778 0.950 . S
C783 C781 1.390 1_455 S
C783 C784 1.387 . S
C783 H786 0.950 . S
C784 C783 1.387 . S
C784 C787 1.387 . S
H785 C781 0.950 . S
H786 C783 0.950 . S
C787 C778 1.390 1_455 S
C787 H780 0.950 . S
C787 C784 1.387 . S
C788 C789 1.387 . S
C788 H792 0.950 . S
C788 C797 1.390 . S
C789 C788 1.387 . S
C789 C791 1.387 . S
H790 C797 0.950 . S
C791 C789 1.387 . S
C791 C793 1.390 . S
C791 H795 0.950 . S
H792 C788 0.950 . S
C793 C791 1.390 . S
C793 C794 1.387 . S
C793 H796 0.950 . S
C794 C793 1.387 . S
C794 C797 1.387 . S
H795 C791 0.950 . S
H796 C793 0.950 . S
C797 C788 1.390 . S
C797 H790 0.950 . S
C797 C794 1.387 . S
C798 C799 1.387 . S
C798 H802 0.950 . S
C798 C807 1.390 . S
C799 C798 1.387 . S
C799 C801 1.387 . S
H800 C807 0.950 . S
C801 C799 1.387 . S
C801 C803 1.390 . S
C801 H805 0.950 . S
H802 C798 0.950 . S
C803 C801 1.390 . S
C803 C804 1.387 . S
C803 H806 0.950 . S
C804 C803 1.387 . S
C804 C807 1.387 . S
H805 C801 0.950 . S
H806 C803 0.950 . S
C807 C798 1.390 . S
C807 H800 0.950 . S
C807 C804 1.387 . S
C808 C809 1.387 . S
C808 H812 0.950 . S
C808 C817 1.390 . S
C809 C808 1.387 . S
C809 C811 1.387 . S
H810 C817 0.950 . S
C811 C809 1.387 . S
C811 C813 1.390 . S
C811 H815 0.950 1_556 S
H812 C808 0.950 . S
C813 C811 1.390 . S
C813 C814 1.387 . S
C813 H816 0.950 1_556 S
C814 C813 1.387 . S
C814 C817 1.387 . S
H815 C811 0.950 1_554 S
H816 C813 0.950 1_554 S
C817 C808 1.390 . S
C817 H810 0.950 . S
C817 C814 1.387 . S
C818 C819 1.387 . S
C818 H822 0.950 . S
C818 C827 1.390 . S
C819 C818 1.387 . S
C819 C821 1.387 . S
H820 C827 0.950 . S
C821 C819 1.387 . S
C821 C823 1.390 . S
C821 H825 0.950 . S
H822 C818 0.950 . S
C823 C821 1.390 . S
C823 C824 1.387 . S
C823 H826 0.950 . S
C824 C823 1.387 . S
C824 C827 1.387 . S
H825 C821 0.950 . S
H826 C823 0.950 . S
C827 C818 1.390 . S
C827 H820 0.950 . S
C827 C824 1.387 . S
C828 C829 1.387 . S
C828 H832 0.950 . S
C828 C837 1.390 . S
C829 C828 1.387 . S
C829 C831 1.387 . S
H830 C837 0.950 . S
C831 C829 1.387 . S
C831 C833 1.390 . S
C831 H835 0.950 . S
H832 C828 0.950 . S
C833 C831 1.390 . S
C833 C834 1.387 . S
C833 H836 0.950 . S
C834 C833 1.387 . S
C834 C837 1.387 . S
H835 C831 0.950 . S
H836 C833 0.950 . S
C837 C828 1.390 . S
C837 H830 0.950 . S
C837 C834 1.387 . S
C838 C839 1.387 . S
C838 H842 0.950 . S
C838 C847 1.390 1_655 S
C839 C838 1.387 . S
C839 C841 1.387 . S
H840 C847 0.950 . S
C841 C839 1.387 . S
C841 C843 1.390 1_655 S
C841 H845 0.950 . S
H842 C838 0.950 . S
C843 C841 1.390 1_455 S
C843 C844 1.387 . S
C843 H846 0.950 . S
C844 C843 1.387 . S
C844 C847 1.387 . S
H845 C841 0.950 . S
H846 C843 0.950 . S
C847 C838 1.390 1_455 S
C847 H840 0.950 . S
C847 C844 1.387 . S
C848 C849 1.387 . S
C848 H852 0.950 . S
C848 C857 1.390 . S
C849 C848 1.387 . S
C849 C851 1.387 . S
H850 C857 0.950 . S
C851 C849 1.387 . S
C851 C853 1.390 . S
C851 H855 0.950 1_556 S
H852 C848 0.950 . S
C853 C851 1.390 . S
C853 C854 1.387 . S
C853 H856 0.950 1_556 S
C854 C853 1.387 . S
C854 C857 1.387 . S
H855 C851 0.950 1_554 S
H856 C853 0.950 1_554 S
C857 C848 1.390 . S
C857 H850 0.950 . S
C857 C854 1.387 . S
C858 C859 1.387 . S
C858 H862 0.950 . S
C858 C867 1.390 . S
C859 C858 1.387 . S
C859 C861 1.387 . S
H860 C867 0.950 . S
C861 C859 1.387 . S
C861 C863 1.390 . S
C861 H865 0.950 . S
H862 C858 0.950 . S
C863 C861 1.390 . S
C863 C864 1.387 . S
C863 H866 0.950 . S
C864 C863 1.387 . S
C864 C867 1.387 . S
H865 C861 0.950 . S
H866 C863 0.950 . S
C867 C858 1.390 . S
C867 H860 0.950 . S
C867 C864 1.387 . S
C868 C869 1.387 . S
C868 H872 0.950 1_554 S
C868 C877 1.390 . S
C869 C868 1.387 . S
C869 C871 1.387 . S
H870 C877 0.950 1_556 S
C871 C869 1.387 . S
C871 C873 1.390 . S
C871 H875 0.950 . S
H872 C868 0.950 1_556 S
C873 C871 1.390 . S
C873 C874 1.387 . S
C873 H876 0.950 . S
C874 C873 1.387 . S
C874 C877 1.387 . S
H875 C871 0.950 . S
H876 C873 0.950 . S
C877 C868 1.390 . S
C877 H870 0.950 1_554 S
C877 C874 1.387 . S
C878 C879 1.387 . S
C878 H882 0.950 . S
C878 C887 1.390 . S
C879 C878 1.387 . S
C879 C881 1.387 . S
H880 C887 0.950 . S
C881 C879 1.387 . S
C881 C883 1.390 . S
C881 H885 0.950 . S
H882 C878 0.950 . S
C883 C881 1.390 . S
C883 C884 1.387 . S
C883 H886 0.950 . S
C884 C883 1.387 . S
C884 C887 1.387 . S
H885 C881 0.950 . S
H886 C883 0.950 . S
C887 C878 1.390 . S
C887 H880 0.950 . S
C887 C884 1.387 . S
C888 C889 1.387 . S
C888 H892 0.950 . S
C888 C897 1.390 . S
C889 C888 1.387 . S
C889 C891 1.387 . S
H890 C897 0.950 . S
C891 C889 1.387 . S
C891 C893 1.390 . S
C891 H895 0.950 . S
H892 C888 0.950 . S
C893 C891 1.390 . S
C893 C894 1.387 . S
C893 H896 0.950 . S
C894 C893 1.387 . S
C894 C897 1.387 . S
H895 C891 0.950 . S
H896 C893 0.950 . S
C897 C888 1.390 . S
C897 H890 0.950 . S
C897 C894 1.387 . S
C898 C899 1.387 . S
C898 H902 0.950 . S
C898 C907 1.390 1_655 S
C899 C898 1.387 . S
C899 C901 1.387 . S
H900 C907 0.950 . S
C901 C899 1.387 . S
C901 C903 1.390 1_655 S
C901 H905 0.950 . S
H902 C898 0.950 . S
C903 C901 1.390 1_455 S
C903 C904 1.387 . S
C903 H906 0.950 . S
C904 C903 1.387 . S
C904 C907 1.387 . S
H905 C901 0.950 . S
H906 C903 0.950 . S
C907 C898 1.390 1_455 S
C907 H900 0.950 . S
C907 C904 1.387 . S
C908 C909 1.387 . S
C908 H912 0.950 . S
C908 C917 1.390 1_655 S
C909 C908 1.387 . S
C909 C911 1.387 . S
H910 C917 0.950 . S
C911 C909 1.387 . S
C911 C913 1.390 1_655 S
C911 H915 0.950 . S
H912 C908 0.950 . S
C913 C911 1.390 1_455 S
C913 C914 1.387 . S
C913 H916 0.950 . S
C914 C913 1.387 . S
C914 C917 1.387 . S
H915 C911 0.950 . S
H916 C913 0.950 . S
C917 C908 1.390 1_455 S
C917 H910 0.950 . S
C917 C914 1.387 . S
C918 C919 1.387 . S
C918 H922 0.950 . S
C918 C927 1.390 . S
C919 C918 1.387 . S
C919 C921 1.387 . S
H920 C927 0.950 . S
C921 C919 1.387 . S
C921 C923 1.390 . S
C921 H925 0.950 . S
H922 C918 0.950 . S
C923 C921 1.390 . S
C923 C924 1.387 . S
C923 H926 0.950 . S
C924 C923 1.387 . S
C924 C927 1.387 . S
H925 C921 0.950 . S
H926 C923 0.950 . S
C927 C918 1.390 . S
C927 H920 0.950 . S
C927 C924 1.387 . S
C928 C929 1.387 . S
C928 H932 0.950 . S
C928 C937 1.390 . S
C929 C928 1.387 . S
C929 C931 1.387 . S
H930 C937 0.950 . S
C931 C929 1.387 . S
C931 C933 1.390 . S
C931 H935 0.950 . S
H932 C928 0.950 . S
C933 C931 1.390 . S
C933 C934 1.387 . S
C933 H936 0.950 . S
C934 C933 1.387 . S
C934 C937 1.387 . S
H935 C931 0.950 . S
H936 C933 0.950 . S
C937 C928 1.390 . S
C937 H930 0.950 . S
C937 C934 1.387 . S
C938 C939 1.387 . S
C938 H942 0.950 . S
C938 C947 1.390 . S
C939 C938 1.387 . S
C939 C941 1.387 . S
H940 C947 0.950 . S
C941 C939 1.387 . S
C941 C943 1.390 . S
C941 H945 0.950 . S
H942 C938 0.950 . S
C943 C941 1.390 . S
C943 C944 1.387 . S
C943 H946 0.950 . S
C944 C943 1.387 . S
C944 C947 1.387 . S
H945 C941 0.950 . S
H946 C943 0.950 . S
C947 C938 1.390 . S
C947 H940 0.950 . S
C947 C944 1.387 . S
C948 C949 1.387 . S
C948 H952 0.950 . S
C948 C957 1.390 . S
C949 C948 1.387 . S
C949 C951 1.387 . S
H950 C957 0.950 . S
C951 C949 1.387 . S
C951 C953 1.390 . S
C951 H955 0.950 . S
H952 C948 0.950 . S
C953 C951 1.390 . S
C953 C954 1.387 . S
C953 H956 0.950 . S
C954 C953 1.387 . S
C954 C957 1.387 . S
H955 C951 0.950 . S
H956 C953 0.950 . S
C957 C948 1.390 . S
C957 H950 0.950 . S
C957 C954 1.387 . S
C958 C959 1.387 . S
C958 H962 0.950 . S
C958 C967 1.390 . S
C959 C958 1.387 . S
C959 C961 1.387 . S
H960 C967 0.950 . S
C961 C959 1.387 . S
C961 C963 1.390 . S
C961 H965 0.950 . S
H962 C958 0.950 . S
C963 C961 1.390 . S
C963 C964 1.387 . S
C963 H966 0.950 . S
C964 C963 1.387 . S
C964 C967 1.387 . S
H965 C961 0.950 . S
H966 C963 0.950 . S
C967 C958 1.390 . S
C967 H960 0.950 . S
C967 C964 1.387 . S
C968 C969 1.387 . S
C968 H972 0.950 . S
C968 C977 1.390 . S
C969 C968 1.387 . S
C969 C971 1.387 . S
H970 C977 0.950 . S
C971 C969 1.387 . S
C971 C973 1.390 . S
C971 H975 0.950 . S
H972 C968 0.950 . S
C973 C971 1.390 . S
C973 C974 1.387 . S
C973 H976 0.950 . S
C974 C973 1.387 . S
C974 C977 1.387 . S
H975 C971 0.950 . S
H976 C973 0.950 . S
C977 C968 1.390 . S
C977 H970 0.950 . S
C977 C974 1.387 . S
C978 C979 1.387 . S
C978 H982 0.950 . S
C978 C987 1.390 . S
C979 C978 1.387 . S
C979 C981 1.387 . S
H980 C987 0.950 . S
C981 C979 1.387 . S
C981 C983 1.390 . S
C981 H985 0.950 . S
H982 C978 0.950 . S
C983 C981 1.390 . S
C983 C984 1.387 . S
C983 H986 0.950 . S
C984 C983 1.387 . S
C984 C987 1.387 . S
H985 C981 0.950 . S
H986 C983 0.950 . S
C987 C978 1.390 . S
C987 H980 0.950 . S
C987 C984 1.387 . S
C988 C989 1.387 . S
C988 H992 0.950 . S
C988 C997 1.390 . S
C989 C988 1.387 . S
C989 C991 1.387 . S
H990 C997 0.950 . S
C991 C989 1.387 . S
C991 C993 1.390 . S
C991 H995 0.950 . S
H992 C988 0.950 . S
C993 C991 1.390 . S
C993 C994 1.387 . S
C993 H996 0.950 . S
C994 C993 1.387 . S
C994 C997 1.387 . S
H995 C991 0.950 . S
H996 C993 0.950 . S
C997 C988 1.390 . S
C997 H990 0.950 . S
C997 C994 1.387 . S
C998 C999 1.387 . S
C998 H1002 0.950 . S
C998 C1007 1.390 . S
C999 C998 1.387 . S
C999 C1001 1.387 . S
H1000 C1007 0.950 . S
C1001 C999 1.387 . S
C1001 C1003 1.390 . S
C1001 H1005 0.950 . S
H1002 C998 0.950 . S
C1003 C1001 1.390 . S
C1003 C1004 1.387 . S
C1003 H1006 0.950 . S
C1004 C1003 1.387 . S
C1004 C1007 1.387 . S
H1005 C1001 0.950 . S
H1006 C1003 0.950 . S
C1007 C998 1.390 . S
C1007 H1000 0.950 . S
C1007 C1004 1.387 . S
C1008 C1009 1.387 . S
C1008 H1012 0.950 . S
C1008 C1017 1.390 . S
C1009 C1008 1.387 . S
C1009 C1011 1.387 . S
H1010 C1017 0.950 . S
C1011 C1009 1.387 . S
C1011 C1013 1.390 . S
C1011 H1015 0.950 . S
H1012 C1008 0.950 . S
C1013 C1011 1.390 . S
C1013 C1014 1.387 . S
C1013 H1016 0.950 . S
C1014 C1013 1.387 . S
C1014 C1017 1.387 . S
H1015 C1011 0.950 . S
H1016 C1013 0.950 . S
C1017 C1008 1.390 . S
C1017 H1010 0.950 . S
C1017 C1014 1.387 . S
C1018 C1019 1.387 . S
C1018 H1022 0.950 . S
C1018 C1027 1.390 . S
C1019 C1018 1.387 . S
C1019 C1021 1.387 . S
H1020 C1027 0.950 . S
C1021 C1019 1.387 . S
C1021 C1023 1.390 . S
C1021 H1025 0.950 . S
H1022 C1018 0.950 . S
C1023 C1021 1.390 . S
C1023 C1024 1.387 . S
C1023 H1026 0.950 . S
C1024 C1023 1.387 . S
C1024 C1027 1.387 . S
H1025 C1021 0.950 . S
H1026 C1023 0.950 . S
C1027 C1018 1.390 . S
C1027 H1020 0.950 . S
C1027 C1024 1.387 . S
C1028 C1029 1.387 . S
C1028 H1032 0.950 . S
C1028 C1037 1.390 . S
C1029 C1028 1.387 . S
C1029 C1031 1.387 . S
H1030 C1037 0.950 . S
C1031 C1029 1.387 . S
C1031 C1033 1.390 . S
C1031 H1035 0.950 . S
H1032 C1028 0.950 . S
C1033 C1031 1.390 . S
C1033 C1034 1.387 . S
C1033 H1036 0.950 . S
C1034 C1033 1.387 . S
C1034 C1037 1.387 . S
H1035 C1031 0.950 . S
H1036 C1033 0.950 . S
C1037 C1028 1.390 . S
C1037 H1030 0.950 . S
C1037 C1034 1.387 . S
C1038 C1039 1.387 . S
C1038 H1042 0.950 . S
C1038 C1047 1.390 . S
C1039 C1038 1.387 . S
C1039 C1041 1.387 . S
H1040 C1047 0.950 . S
C1041 C1039 1.387 . S
C1041 C1043 1.390 . S
C1041 H1045 0.950 . S
H1042 C1038 0.950 . S
C1043 C1041 1.390 . S
C1043 C1044 1.387 . S
C1043 H1046 0.950 . S
C1044 C1043 1.387 . S
C1044 C1047 1.387 . S
H1045 C1041 0.950 . S
H1046 C1043 0.950 . S
C1047 C1038 1.390 . S
C1047 H1040 0.950 . S
C1047 C1044 1.387 . S
C1048 C1049 1.387 . S
C1048 H1052 0.950 . S
C1048 C1057 1.390 . S
C1049 C1048 1.387 . S
C1049 C1051 1.387 . S
H1050 C1057 0.950 . S
C1051 C1049 1.387 . S
C1051 C1053 1.390 . S
C1051 H1055 0.950 . S
H1052 C1048 0.950 . S
C1053 C1051 1.390 . S
C1053 C1054 1.387 . S
C1053 H1056 0.950 . S
C1054 C1053 1.387 . S
C1054 C1057 1.387 . S
H1055 C1051 0.950 . S
H1056 C1053 0.950 . S
C1057 C1048 1.390 . S
C1057 H1050 0.950 . S
C1057 C1054 1.387 . S
C1058 C1059 1.387 . S
C1058 H1062 0.950 . S
C1058 C1067 1.390 . S
C1059 C1058 1.387 . S
C1059 C1061 1.387 . S
H1060 C1067 0.950 . S
C1061 C1059 1.387 . S
C1061 C1063 1.390 . S
C1061 H1065 0.950 . S
H1062 C1058 0.950 . S
C1063 C1061 1.390 . S
C1063 C1064 1.387 . S
C1063 H1066 0.950 . S
C1064 C1063 1.387 . S
C1064 C1067 1.387 . S
H1065 C1061 0.950 . S
H1066 C1063 0.950 . S
C1067 C1058 1.390 . S
C1067 H1060 0.950 . S
C1067 C1064 1.387 . S
C1068 C1069 1.387 . S
C1068 H1072 0.950 . S
C1068 C1077 1.390 . S
C1069 C1068 1.387 . S
C1069 C1071 1.387 . S
H1070 C1077 0.950 . S
C1071 C1069 1.387 . S
C1071 C1073 1.390 . S
C1071 H1075 0.950 . S
H1072 C1068 0.950 . S
C1073 C1071 1.390 . S
C1073 C1074 1.387 . S
C1073 H1076 0.950 . S
C1074 C1073 1.387 . S
C1074 C1077 1.387 . S
H1075 C1071 0.950 . S
H1076 C1073 0.950 . S
C1077 C1068 1.390 . S
C1077 H1070 0.950 . S
C1077 C1074 1.387 . S
C1078 C1079 1.387 . S
C1078 H1082 0.950 . S
C1078 C1087 1.390 . S
C1079 C1078 1.387 . S
C1079 C1081 1.387 . S
H1080 C1087 0.950 . S
C1081 C1079 1.387 . S
C1081 C1083 1.390 . S
C1081 H1085 0.950 . S
H1082 C1078 0.950 . S
C1083 C1081 1.390 . S
C1083 C1084 1.387 . S
C1083 H1086 0.950 . S
C1084 C1083 1.387 . S
C1084 C1087 1.387 . S
H1085 C1081 0.950 . S
H1086 C1083 0.950 . S
C1087 C1078 1.390 . S
C1087 H1080 0.950 . S
C1087 C1084 1.387 . S
C449 C93 1.485 . S
C454 C9 1.485 . S
C459 C23 1.485 . S
C464 C107 1.485 . S
C469 C65 1.485 . S
C474 C37 1.485 . S
C479 C51 1.487 . S
C484 C79 1.487 . S
C489 C121 1.487 . S
C494 C205 1.487 . S
C499 C219 1.487 . S
C504 C135 1.487 . S
C509 C149 1.485 . S
C514 C177 1.485 . S
C519 C191 1.487 . S
C524 C163 1.487 . S
C529 C233 1.485 . S
C534 C317 1.485 . S
C539 C247 1.487 . S
C544 C331 1.487 . S
C549 C289 1.487 . S
C554 C261 1.487 . S
C559 C303 1.487 . S
C564 C275 1.487 . S
C569 C345 1.485 . S
C574 C429 1.485 . S
C579 C359 1.487 . S
C584 C443 1.487 . S
C589 C401 1.485 . S
C594 C373 1.485 . S
C599 C387 1.485 . S
C604 C415 1.485 . S
C609 C8 1.492 1_556 S
C614 C106 1.492 . S
C619 C64 1.492 1_554 S
C624 C22 1.492 . S
C629 C78 1.492 . S
C634 C36 1.492 . S
C639 C50 1.492 . S
C644 C92 1.492 . S
C649 C120 1.492 1_554 S
C654 C218 1.492 . S
C659 C176 1.492 1_556 S
C664 C134 1.492 . S
C669 C190 1.492 . S
C674 C148 1.492 . S
C679 C204 1.492 . S
C684 C162 1.492 . S
C689 C232 1.492 . S
C694 C330 1.492 . S
C699 C246 1.492 . S
C704 C288 1.492 . S
C709 C302 1.492 . S
C714 C260 1.492 1_556 S
C719 C274 1.492 . S
C724 C316 1.492 1_554 S
C729 C344 1.492 . S
C734 C442 1.492 . S
C739 C400 1.492 . S
C744 C358 1.492 . S
C749 C372 1.492 1_554 S
C754 C414 1.492 . S
C759 C386 1.492 . S
C764 C428 1.492 1_556 S
C769 C423 1.499 . S
C774 C3 1.498 . S
C779 C213 1.498 . S
C784 C17 1.499 . S
C789 C31 1.499 . S
C794 C395 1.498 . S
C799 C45 1.498 . S
C804 C185 1.499 . S
C809 C59 1.499 . S
C814 C367 1.498 . S
C819 C73 1.499 . S
C824 C157 1.498 . S
C829 C87 1.498 . S
C834 C339 1.499 . S
C839 C129 1.499 . S
C844 C101 1.498 . S
C849 C311 1.499 . S
C854 C115 1.498 . S
C859 C143 1.498 . S
C864 C283 1.499 . S
C869 C255 1.498 . S
C874 C171 1.499 . S
C879 C227 1.498 . S
C884 C199 1.499 . S
C889 C241 1.499 . S
C894 C437 1.498 . S
C899 C269 1.498 . S
C904 C409 1.499 . S
C909 C297 1.499 . S
C914 C381 1.498 . S
C919 C353 1.499 . S
C924 C325 1.498 . S
C929 C7 1.453 . S
C934 C105 1.454 . S
C939 C21 1.451 . S
C944 C63 1.451 . S
C949 C77 1.454 . S
C954 C35 1.453 . S
C959 C49 1.451 . S
C964 C91 1.452 . S
C969 C217 1.451 . S
C974 C119 1.452 . S
C979 C175 1.452 . S
C984 C133 1.453 . S
C989 C147 1.454 . S
C994 C189 1.453 . S
C999 C203 1.451 . S
C1004 C161 1.451 . S
C1009 C329 1.452 . S
C1014 C231 1.453 . S
C1019 C287 1.451 . S
C1024 C245 1.451 . S
C1029 C301 1.454 . S
C1034 C259 1.453 . S
C1039 C315 1.451 . S
C1044 C273 1.451 . S
C1049 C343 1.453 . S
C1054 C441 1.454 . S
C1059 C357 1.451 . S
C1064 C399 1.451 . S
C1069 C371 1.451 . S
C1074 C413 1.451 . S
C1079 C427 1.451 . S
C1084 C385 1.451 . S
