# Generated by pormake.
# Topology uol, (4)-cn, num edge types: 1
# Building blocks:
#     Node 0, Type 0, BuildingBlock: ICAMEG_clean_sbu_1, # of connection points: 4
#     Node 1, Type 0, BuildingBlock: ICAMEG_clean_sbu_1, # of connection points: 4
#     Node 2, Type 0, BuildingBlock: ICAMEG_clean_sbu_1, # of connection points: 4
#     Node 3, Type 0, BuildingBlock: ICAMEG_clean_sbu_1, # of connection points: 4
#     Node 4, Type 0, BuildingBlock: ICAMEG_clean_sbu_1, # of connection points: 4
#     Node 5, Type 0, BuildingBlock: ICAMEG_clean_sbu_1, # of connection points: 4
#     Node 6, Type 0, BuildingBlock: ICAMEG_clean_sbu_1, # of connection points: 4
#     Node 7, Type 0, BuildingBlock: ICAMEG_clean_sbu_1, # of connection points: 4
#     Node 8, Type 0, BuildingBlock: ICAMEG_clean_sbu_1, # of connection points: 4
#     Node 9, Type 0, BuildingBlock: ICAMEG_clean_sbu_1, # of connection points: 4
#     Node 10, Type 0, BuildingBlock: ICAMEG_clean_sbu_1, # of connection points: 4
#     Node 11, Type 0, BuildingBlock: ICAMEG_clean_sbu_1, # of connection points: 4
#     Edge 12, Type (0, 0), BuildingBlock: KIFKEQ_clean_linker_1, # of connection points: 2
#     Edge 13, Type (0, 0), BuildingBlock: KIFKEQ_clean_linker_1, # of connection points: 2
#     Edge 14, Type (0, 0), BuildingBlock: KIFKEQ_clean_linker_1, # of connection points: 2
#     Edge 15, Type (0, 0), BuildingBlock: KIFKEQ_clean_linker_1, # of connection points: 2
#     Edge 16, Type (0, 0), BuildingBlock: KIFKEQ_clean_linker_1, # of connection points: 2
#     Edge 17, Type (0, 0), BuildingBlock: KIFKEQ_clean_linker_1, # of connection points: 2
#     Edge 18, Type (0, 0), BuildingBlock: KIFKEQ_clean_linker_1, # of connection points: 2
#     Edge 19, Type (0, 0), BuildingBlock: KIFKEQ_clean_linker_1, # of connection points: 2
#     Edge 20, Type (0, 0), BuildingBlock: KIFKEQ_clean_linker_1, # of connection points: 2
#     Edge 21, Type (0, 0), BuildingBlock: KIFKEQ_clean_linker_1, # of connection points: 2
#     Edge 22, Type (0, 0), BuildingBlock: KIFKEQ_clean_linker_1, # of connection points: 2
#     Edge 23, Type (0, 0), BuildingBlock: KIFKEQ_clean_linker_1, # of connection points: 2
#     Edge 24, Type (0, 0), BuildingBlock: KIFKEQ_clean_linker_1, # of connection points: 2
#     Edge 25, Type (0, 0), BuildingBlock: KIFKEQ_clean_linker_1, # of connection points: 2
#     Edge 26, Type (0, 0), BuildingBlock: KIFKEQ_clean_linker_1, # of connection points: 2
#     Edge 27, Type (0, 0), BuildingBlock: KIFKEQ_clean_linker_1, # of connection points: 2
#     Edge 28, Type (0, 0), BuildingBlock: KIFKEQ_clean_linker_1, # of connection points: 2
#     Edge 29, Type (0, 0), BuildingBlock: KIFKEQ_clean_linker_1, # of connection points: 2
#     Edge 30, Type (0, 0), BuildingBlock: KIFKEQ_clean_linker_1, # of connection points: 2
#     Edge 31, Type (0, 0), BuildingBlock: KIFKEQ_clean_linker_1, # of connection points: 2
#     Edge 32, Type (0, 0), BuildingBlock: KIFKEQ_clean_linker_1, # of connection points: 2
#     Edge 33, Type (0, 0), BuildingBlock: KIFKEQ_clean_linker_1, # of connection points: 2
#     Edge 34, Type (0, 0), BuildingBlock: KIFKEQ_clean_linker_1, # of connection points: 2
#     Edge 35, Type (0, 0), BuildingBlock: KIFKEQ_clean_linker_1, # of connection points: 2
# Relax obj value: 0.050
# Max RMSD: 0.108
# Mean RMSD: 0.108
data_MOF--net-uol--node1-ICAMEG_clean_sbu_1--edge1-KIFKEQ_clean_linker_1
_symmetry_space_group_name_H-M    P1
_symmetry_Int_Tables_number       1
_symmetry_cell_setting            triclinic
loop_
_symmetry_equiv_pos_as_xyz
'x, y, z'
_cell_length_a     35.632869
_cell_length_b     35.642775
_cell_length_c     72.748879
_cell_angle_alpha  89.973558
_cell_angle_beta   90.006658
_cell_angle_gamma 119.99873
loop_
_atom_site_label
_atom_site_type_symbol
_atom_site_fract_x
_atom_site_fract_y
_atom_site_fract_z
_atom_type_partial_charge
Co0 Co 0.06791 0.28314 0.116 0.0
Co1 Co 0.163 0.38018 0.12131 0.0
O2 O 0.09995 0.34446 0.12252 0.0
C3 C 0.03795 0.28361 0.15365 0.0
O4 O 0.07903 0.30692 0.15814 0.0
C5 C 0.13089 0.42836 0.09952 0.0
O6 O 0.10385 0.3914 0.09165 0.0
O7 O 0.16377 0.36109 0.0957 0.0
O8 O 0.10809 0.29267 0.09502 0.0
H9 H 0.31389 0.41154 0.1069 0.0
H10 H 0.02011 0.33081 0.12046 0.0
O11 O 0.02721 0.27194 0.13703 0.0
H12 H 0.99416 0.27887 0.05637 0.0
H13 H 0.93217 0.13943 0.10645 0.0
H14 H 0.09193 0.21758 0.1053 0.0
H15 H 0.03855 0.26196 0.07707 0.0
H16 H 0.97393 0.2173 0.11397 0.0
O17 O 0.15725 0.42984 0.11172 0.0
H18 H 0.23435 0.36624 0.10885 0.0
H19 H 0.22577 0.47216 0.13074 0.0
H20 H 0.05148 0.13983 0.09754 0.0
H21 H 0.97519 0.34814 0.10028 0.0
H22 H 0.971 0.10023 0.09809 0.0
H23 H 0.9621 0.32221 0.06796 0.0
O24 O 0.10523 0.27062 0.13225 0.0
H25 H 0.10967 0.435 0.17292 0.0
H26 H 0.21231 0.38647 0.15542 0.0
H27 H 0.21061 0.40806 0.18747 0.0
H28 H 0.15906 0.43262 0.19639 0.0
H29 H 0.11218 0.41275 0.14105 0.0
H30 H 0.30521 0.51872 0.12889 0.0
H31 H 0.34983 0.48838 0.11696 0.0
O32 O 0.17026 0.33144 0.13086 0.0
C33 C 0.14242 0.32402 0.0881 0.0
C34 C 0.29482 0.42509 0.11219 0.0
C35 C 0.28994 0.48526 0.1245 0.0
N36 N 0.22551 0.41642 0.12008 0.0
C37 C 0.24978 0.39956 0.11338 0.0
C38 C 0.24498 0.45876 0.1255 0.0
C39 C 0.31496 0.46821 0.11782 0.0
C40 C 0.01416 0.31903 0.10647 0.0
N41 N 0.03176 0.29526 0.09997 0.0
C42 C 0.98887 0.32911 0.09509 0.0
C43 C 0.9816 0.31462 0.07694 0.0
C44 C 0.99962 0.29033 0.07043 0.0
C45 C 0.02482 0.28095 0.0822 0.0
C46 C 0.96723 0.15637 0.1061 0.0
C47 C 0.05692 0.20066 0.10541 0.0
C48 C 0.99104 0.20044 0.11035 0.0
N49 N 0.03531 0.22207 0.10983 0.0
C50 C 0.03419 0.1566 0.10107 0.0
C51 C 0.98903 0.13439 0.10141 0.0
C52 C 0.14585 0.29185 0.13546 0.0
C53 C 0.13236 0.42448 0.16919 0.0
C54 C 0.18971 0.39701 0.1592 0.0
C55 C 0.18896 0.40928 0.17737 0.0
C56 C 0.16004 0.42308 0.18236 0.0
N57 N 0.16253 0.39858 0.14635 0.0
C58 C 0.13406 0.41202 0.15115 0.0
Co59 Co 0.7857 0.06631 0.28185 0.0
Co60 Co 0.78162 0.15994 0.28794 0.0
O61 O 0.75538 0.09709 0.28858 0.0
C62 C 0.75456 0.0348 0.31922 0.0
O63 O 0.77165 0.07572 0.32385 0.0
C64 C 0.70258 0.12908 0.26538 0.0
O65 O 0.71588 0.10674 0.25578 0.0
O66 O 0.80216 0.16239 0.26227 0.0
O67 O 0.81633 0.10766 0.26122 0.0
H68 H 0.8988 0.31257 0.27461 0.0
H69 H 0.6901 0.01763 0.28578 0.0
O70 O 0.75615 0.02458 0.30257 0.0
H71 H 0.71858 0.99465 0.22162 0.0
H72 H 0.79657 0.9325 0.27132 0.0
H73 H 0.8759 0.09225 0.27131 0.0
H74 H 0.77906 0.03858 0.24275 0.0
H75 H 0.75915 0.97286 0.27913 0.0
O76 O 0.72543 0.15282 0.27866 0.0
H77 H 0.86623 0.23314 0.27588 0.0
H78 H 0.75023 0.22058 0.29805 0.0
H79 H 0.91451 0.05323 0.26327 0.0
H80 H 0.62864 0.9732 0.26516 0.0
H81 H 0.87477 0.97275 0.26324 0.0
H82 H 0.64273 0.96158 0.23281 0.0
O83 O 0.83491 0.10349 0.2984 0.0
H84 H 0.67319 0.1026 0.33947 0.0
H85 H 0.82382 0.20813 0.32234 0.0
H86 H 0.80017 0.20459 0.35446 0.0
H87 H 0.72433 0.15159 0.3632 0.0
H88 H 0.69831 0.10692 0.30754 0.0
H89 H 0.78142 0.29987 0.2969 0.0
H90 H 0.85629 0.34643 0.28518 0.0
O91 O 0.83814 0.16811 0.2973 0.0
C92 C 0.81879 0.14197 0.25454 0.0
C93 C 0.86621 0.29265 0.27982 0.0
C94 C 0.80031 0.28551 0.2923 0.0
N95 N 0.80657 0.22232 0.28721 0.0
C96 C 0.84766 0.24767 0.28063 0.0
C97 C 0.7828 0.24064 0.2929 0.0
C98 C 0.84233 0.31162 0.28573 0.0
C99 C 0.69647 0.01236 0.27177 0.0
N100 N 0.73808 0.03044 0.2655 0.0
C101 C 0.66155 0.98733 0.26014 0.0
C102 C 0.66948 0.98088 0.24198 0.0
C103 C 0.71203 0.99945 0.23569 0.0
C104 C 0.74613 0.02435 0.24771 0.0
C105 C 0.8142 0.96756 0.27122 0.0
C106 C 0.85831 0.05724 0.27117 0.0
C107 C 0.7932 0.99058 0.27565 0.0
N108 N 0.81521 0.03486 0.27544 0.0
C109 C 0.88038 0.03532 0.26668 0.0
C110 C 0.85808 0.99017 0.26668 0.0
C111 C 0.85378 0.14401 0.30177 0.0
C112 C 0.70628 0.12591 0.33582 0.0
C113 C 0.79081 0.18488 0.32604 0.0
C114 C 0.77757 0.1831 0.34425 0.0
C115 C 0.73501 0.15337 0.34914 0.0
N116 N 0.76241 0.1579 0.31306 0.0
C117 C 0.72064 0.12864 0.31775 0.0
Co118 Co 0.71986 0.78512 0.4482 0.0
Co119 Co 0.62158 0.78011 0.45397 0.0
O120 O 0.65872 0.75446 0.45488 0.0
C121 C 0.72049 0.75513 0.4858 0.0
O122 O 0.69648 0.77212 0.49028 0.0
C123 C 0.57436 0.7009 0.43151 0.0
O124 O 0.61022 0.71432 0.42205 0.0
O125 O 0.63985 0.80048 0.42829 0.0
O126 O 0.70883 0.81482 0.4273 0.0
H127 H 0.58472 0.89606 0.44005 0.0
H128 H 0.67374 0.68967 0.45261 0.0
O129 O 0.73234 0.75642 0.46917 0.0
H130 H 0.7256 0.71683 0.38849 0.0
H131 H 0.86536 0.79736 0.43822 0.0
H132 H 0.78345 0.8752 0.43725 0.0
H133 H 0.74141 0.7777 0.40925 0.0
H134 H 0.78753 0.75947 0.44598 0.0
O135 O 0.57303 0.72369 0.4447 0.0
H136 H 0.63221 0.86423 0.44162 0.0
H137 H 0.52923 0.74795 0.46383 0.0
H138 H 0.86113 0.91426 0.42925 0.0
H139 H 0.65746 0.62783 0.43236 0.0
H140 H 0.90261 0.87528 0.42971 0.0
H141 H 0.68338 0.64126 0.40004 0.0
O142 O 0.7313 0.83465 0.46444 0.0
H143 H 0.57088 0.67226 0.50572 0.0
H144 H 0.61459 0.8223 0.48817 0.0
H145 H 0.59425 0.79887 0.52031 0.0
H146 H 0.57211 0.72333 0.52925 0.0
H147 H 0.59186 0.69715 0.47377 0.0
H148 H 0.48051 0.7784 0.46237 0.0
H149 H 0.50826 0.85304 0.45048 0.0
O150 O 0.66937 0.83686 0.46328 0.0
C151 C 0.67687 0.81695 0.42053 0.0
C152 C 0.57229 0.86357 0.44533 0.0
C153 C 0.51379 0.79751 0.45783 0.0
N154 N 0.58364 0.80447 0.45299 0.0
C155 C 0.59907 0.84543 0.44631 0.0
C156 C 0.5415 0.78042 0.4586 0.0
C157 C 0.52939 0.83939 0.45116 0.0
C158 C 0.68546 0.69575 0.43861 0.0
N159 N 0.7087 0.73721 0.43215 0.0
C160 C 0.676 0.66062 0.42719 0.0
C161 C 0.6905 0.66817 0.40905 0.0
C162 C 0.71417 0.71057 0.40256 0.0
C163 C 0.72295 0.7449 0.41436 0.0
C164 C 0.8476 0.81466 0.43791 0.0
C165 C 0.80121 0.85794 0.43733 0.0
C166 C 0.80355 0.7934 0.44231 0.0
N167 N 0.78088 0.81499 0.44184 0.0
C168 C 0.84522 0.88026 0.43286 0.0
C169 C 0.86848 0.85838 0.43314 0.0
C170 C 0.70919 0.8531 0.46771 0.0
C171 C 0.58034 0.70522 0.50198 0.0
C172 C 0.60512 0.78941 0.49197 0.0
C173 C 0.59354 0.7763 0.51018 0.0
C174 C 0.5811 0.73391 0.51518 0.0
N175 N 0.6042 0.76105 0.47909 0.0
C176 C 0.59208 0.71945 0.48389 0.0
Co177 Co 0.93409 0.71877 0.61521 0.0
Co178 Co 0.84039 0.62087 0.6208 0.0
O179 O 0.90322 0.65757 0.62176 0.0
C180 C 0.96472 0.7185 0.65272 0.0
O181 O 0.92369 0.69476 0.65724 0.0
C182 C 0.87197 0.57331 0.59833 0.0
O183 O 0.89453 0.60911 0.58884 0.0
O184 O 0.83861 0.63943 0.59514 0.0
O185 O 0.89338 0.70835 0.59436 0.0
H186 H 0.688 0.58537 0.60681 0.0
H187 H 0.9828 0.67193 0.61934 0.0
O188 O 0.97526 0.73063 0.63612 0.0
H189 H 0.00778 0.72474 0.55536 0.0
H190 H 0.06803 0.86383 0.60544 0.0
H191 H 0.90825 0.78302 0.60456 0.0
H192 H 0.96307 0.74071 0.57627 0.0
H193 H 0.0276 0.78591 0.613 0.0
O194 O 0.84788 0.57214 0.61151 0.0
H195 H 0.76738 0.63234 0.60848 0.0
H196 H 0.77959 0.52859 0.63053 0.0
H197 H 0.94735 0.86079 0.59676 0.0
H198 H 0.02801 0.65548 0.59893 0.0
H199 H 0.02784 0.90173 0.59717 0.0
H200 H 0.04065 0.68188 0.56667 0.0
O201 O 0.89628 0.73036 0.63156 0.0
H202 H 0.89653 0.56905 0.67253 0.0
H203 H 0.79112 0.614 0.65498 0.0
H204 H 0.7938 0.59328 0.6871 0.0
H205 H 0.84674 0.57051 0.69604 0.0
H206 H 0.89305 0.59042 0.64061 0.0
H207 H 0.70034 0.48037 0.62896 0.0
H208 H 0.65398 0.50878 0.6171 0.0
O209 O 0.83183 0.66886 0.63018 0.0
C210 C 0.85929 0.67658 0.58751 0.0
C211 C 0.70783 0.57266 0.61207 0.0
C212 C 0.71477 0.51371 0.62448 0.0
N213 N 0.77803 0.58334 0.61977 0.0
C214 C 0.75279 0.59914 0.61311 0.0
C215 C 0.75962 0.54114 0.62531 0.0
C216 C 0.68878 0.52968 0.61783 0.0
C217 C 0.9885 0.68386 0.60537 0.0
N218 N 0.97055 0.70745 0.59903 0.0
C219 C 0.01397 0.6743 0.59386 0.0
C220 C 0.021 0.68907 0.57575 0.0
C221 C 0.00255 0.7131 0.56939 0.0
C222 C 0.9772 0.72197 0.58128 0.0
C223 C 0.03296 0.84631 0.60515 0.0
C224 C 0.94327 0.80053 0.60462 0.0
C225 C 0.0099 0.80221 0.60943 0.0
N226 N 0.96562 0.77985 0.60899 0.0
C227 C 0.96523 0.8446 0.60026 0.0
C228 C 0.01039 0.86756 0.60051 0.0
C229 C 0.85565 0.70853 0.63474 0.0
C230 C 0.87324 0.57878 0.66879 0.0
C231 C 0.81434 0.60426 0.65878 0.0
C232 C 0.81564 0.59247 0.67698 0.0
C233 C 0.84533 0.57967 0.68198 0.0
N234 N 0.84176 0.60321 0.64591 0.0
C235 C 0.87099 0.59075 0.65072 0.0
Co236 Co 0.21388 0.93183 0.78159 0.0
Co237 Co 0.21922 0.83886 0.78792 0.0
O238 O 0.24469 0.90167 0.78855 0.0
C239 C 0.2431 0.96341 0.81917 0.0
O240 O 0.22629 0.92257 0.82391 0.0
C241 C 0.29856 0.87078 0.76544 0.0
O242 O 0.28499 0.89291 0.75585 0.0
O243 O 0.19852 0.83597 0.76222 0.0
O244 O 0.18446 0.89073 0.76083 0.0
H245 H 0.10339 0.68557 0.7748 0.0
H246 H 0.30928 0.98158 0.78611 0.0
O247 O 0.24222 0.97346 0.80243 0.0
H248 H 0.28248 0.00493 0.72174 0.0
H249 H 0.20099 0.06445 0.77081 0.0
H250 H 0.12374 0.90473 0.77048 0.0
H251 H 0.22149 0.96007 0.74251 0.0
H252 H 0.23915 0.02498 0.77891 0.0
O253 O 0.27574 0.84676 0.77867 0.0
H254 H 0.13498 0.76488 0.77602 0.0
H255 H 0.25186 0.77919 0.79802 0.0
H256 H 0.08441 0.94286 0.76214 0.0
H257 H 0.37124 0.02695 0.76585 0.0
H258 H 0.12309 0.02332 0.76226 0.0
H259 H 0.358 0.03877 0.73341 0.0
O260 O 0.16431 0.89389 0.79785 0.0
H261 H 0.32753 0.89769 0.83946 0.0
H262 H 0.17751 0.79033 0.82234 0.0
H263 H 0.20128 0.79425 0.85446 0.0
H264 H 0.27682 0.84817 0.8632 0.0
H265 H 0.3023 0.89294 0.80753 0.0
H266 H 0.22165 0.70004 0.79691 0.0
H267 H 0.14684 0.65266 0.7853 0.0
O268 O 0.16247 0.82991 0.7973 0.0
C269 C 0.18218 0.85642 0.75428 0.0
C270 C 0.13597 0.70586 0.77996 0.0
C271 C 0.20236 0.71398 0.79234 0.0
N272 N 0.19505 0.77657 0.78725 0.0
C273 C 0.15398 0.75077 0.78073 0.0
C274 C 0.21932 0.75878 0.79291 0.0
C275 C 0.16038 0.68742 0.78583 0.0
C276 C 0.30328 0.98692 0.77205 0.0
N277 N 0.26185 0.96843 0.76552 0.0
C278 C 0.33848 0.01249 0.76063 0.0
C279 C 0.33103 0.01905 0.74242 0.0
C280 C 0.28867 1.00006 0.73586 0.0
C281 C 0.25427 0.97462 0.74767 0.0
C282 C 0.18382 0.02939 0.77064 0.0
C283 C 0.14087 0.93974 0.77042 0.0
C284 C 0.20524 0.00688 0.77523 0.0
N285 N 0.18381 0.96261 0.77494 0.0
C286 C 0.1184 0.96115 0.76575 0.0
C287 C 0.14011 0.00629 0.76584 0.0
C288 C 0.14612 0.85352 0.8015 0.0
C289 C 0.29458 0.87397 0.83582 0.0
C290 C 0.21039 0.81397 0.82604 0.0
C291 C 0.2237 0.81597 0.84424 0.0
C292 C 0.26609 0.84622 0.84913 0.0
N293 N 0.23856 0.84123 0.81305 0.0
C294 C 0.28015 0.87101 0.81774 0.0
Co295 Co 0.27922 0.2156 0.94821 0.0
Co296 Co 0.37748 0.21937 0.95253 0.0
O297 O 0.34093 0.24583 0.95427 0.0
C298 C 0.28051 0.24559 0.98604 0.0
O299 O 0.30453 0.22844 0.99027 0.0
C300 C 0.42386 0.30129 0.93155 0.0
O301 O 0.38626 0.29349 0.92512 0.0
O302 O 0.3574 0.19938 0.92705 0.0
O303 O 0.28857 0.1855 0.92696 0.0
H304 H 0.40993 0.10103 0.93726 0.0
H305 H 0.32462 0.31101 0.95286 0.0
O306 O 0.26817 0.24446 0.96951 0.0
H307 H 0.27057 0.28432 0.88907 0.0
H308 H 0.13372 0.20458 0.94013 0.0
H309 H 0.21444 0.12564 0.93768 0.0
H310 H 0.25644 0.22334 0.90948 0.0
H311 H 0.21196 0.24198 0.94704 0.0
O312 O 0.42637 0.27488 0.94257 0.0
H313 H 0.36398 0.13443 0.93987 0.0
H314 H 0.47019 0.2497 0.96108 0.0
H315 H 0.13632 0.08706 0.93052 0.0
H316 H 0.33902 0.37291 0.93299 0.0
H317 H 0.09543 0.1266 0.93172 0.0
H318 H 0.31205 0.35973 0.90082 0.0
O319 O 0.26832 0.1661 0.96432 0.0
H320 H 0.43347 0.32788 0.00398 0.0
H321 H 0.38636 0.17711 0.98638 0.0
H322 H 0.40938 0.20083 0.01828 0.0
H323 H 0.43324 0.27674 0.02725 0.0
H324 H 0.40982 0.30268 0.97226 0.0
H325 H 0.5174 0.21768 0.95857 0.0
H326 H 0.48724 0.14275 0.94666 0.0
O327 O 0.32974 0.16315 0.96242 0.0
C328 C 0.31999 0.18317 0.91972 0.0
C329 C 0.42341 0.13364 0.94254 0.0
C330 C 0.48374 0.19913 0.95448 0.0
N331 N 0.41428 0.1938 0.95079 0.0
C332 C 0.39751 0.15267 0.9441 0.0
C333 C 0.45687 0.21712 0.95584 0.0
C334 C 0.46679 0.15709 0.9478 0.0
C335 C 0.31235 0.305 0.93894 0.0
N336 N 0.28964 0.26362 0.93235 0.0
C337 C 0.3208 0.34019 0.92773 0.0
C338 C 0.30573 0.33277 0.90967 0.0
C339 C 0.2825 0.29047 0.90306 0.0
C340 C 0.27474 0.25608 0.91466 0.0
C341 C 0.15121 0.18704 0.93949 0.0
C342 C 0.19695 0.14315 0.93807 0.0
C343 C 0.19551 0.20803 0.9434 0.0
N344 N 0.21785 0.18614 0.94252 0.0
C345 C 0.15268 0.12109 0.93407 0.0
C346 C 0.12975 0.14329 0.93477 0.0
C347 C 0.2903 0.14745 0.96736 0.0
C348 C 0.42328 0.29476 0.00022 0.0
C349 C 0.3966 0.21016 0.99018 0.0
C350 C 0.40968 0.22343 0.00826 0.0
C351 C 0.42308 0.26603 0.01328 0.0
N352 N 0.397 0.23857 0.97745 0.0
C353 C 0.41002 0.28036 0.98227 0.0
Co354 Co 0.72207 0.93311 0.71746 0.0
Co355 Co 0.62264 0.84162 0.71126 0.0
O356 O 0.66062 0.90442 0.7112 0.0
C357 C 0.72092 0.96863 0.68106 0.0
O358 O 0.69341 0.92865 0.67616 0.0
C359 C 0.57556 0.87238 0.73476 0.0
O360 O 0.61101 0.89344 0.7446 0.0
O361 O 0.64082 0.83731 0.73672 0.0
O362 O 0.71071 0.8899 0.73735 0.0
H363 H 0.58355 0.6872 0.72269 0.0
H364 H 0.67776 0.98458 0.71551 0.0
O365 O 0.73526 0.97678 0.69748 0.0
H366 H 0.73164 0.00136 0.77913 0.0
H367 H 0.86956 0.06288 0.72842 0.0
H368 H 0.78434 0.90335 0.7261 0.0
H369 H 0.74537 0.95764 0.75674 0.0
H370 H 0.79146 0.02548 0.72118 0.0
O371 O 0.57456 0.84959 0.72109 0.0
H372 H 0.63197 0.76645 0.72212 0.0
H373 H 0.53005 0.78325 0.70118 0.0
H374 H 0.86225 0.93938 0.73354 0.0
H375 H 0.66355 0.02887 0.73741 0.0
H376 H 0.9054 0.01974 0.73473 0.0
H377 H 0.69051 0.03739 0.76949 0.0
O378 O 0.73176 0.89629 0.69982 0.0
H379 H 0.57264 0.90364 0.66118 0.0
H380 H 0.61502 0.79496 0.67619 0.0
H381 H 0.59475 0.80086 0.64435 0.0
H382 H 0.5733 0.85546 0.63668 0.0
H383 H 0.59359 0.89697 0.6928 0.0
H384 H 0.48042 0.70419 0.70165 0.0
H385 H 0.50717 0.65558 0.7124 0.0
O386 O 0.66982 0.83235 0.70128 0.0
C387 C 0.67835 0.85611 0.74409 0.0
C388 C 0.57155 0.70803 0.71791 0.0
C389 C 0.51366 0.71757 0.70613 0.0
N390 N 0.58397 0.7794 0.71145 0.0
C391 C 0.59886 0.75291 0.7175 0.0
C392 C 0.54189 0.76231 0.70592 0.0
C393 C 0.52869 0.69031 0.71215 0.0
C394 C 0.68991 0.98848 0.7294 0.0
N395 N 0.71257 0.9688 0.73482 0.0
C396 C 0.68163 0.01345 0.74176 0.0
C397 C 0.69671 0.01816 0.75977 0.0
C398 C 0.71977 0.99793 0.76519 0.0
C399 C 0.72737 0.97315 0.75246 0.0
C400 C 0.85107 0.02785 0.728 0.0
C401 C 0.80283 0.93831 0.72675 0.0
C402 C 0.80686 0.0065 0.7239 0.0
N403 N 0.78328 0.96227 0.72345 0.0
C404 C 0.84696 0.95854 0.7309 0.0
C405 C 0.87116 0.00362 0.73155 0.0
C406 C 0.7093 0.8559 0.69636 0.0
C407 C 0.5818 0.87963 0.66436 0.0
C408 C 0.60588 0.81892 0.67295 0.0
C409 C 0.59432 0.82202 0.65491 0.0
C410 C 0.58225 0.85264 0.65062 0.0
N411 N 0.60534 0.8455 0.68636 0.0
C412 C 0.5935 0.87557 0.68226 0.0
Co413 Co 0.78683 0.72109 0.88414 0.0
Co414 Co 0.78348 0.62288 0.88112 0.0
O415 O 0.75668 0.65903 0.87885 0.0
C416 C 0.75512 0.71679 0.84634 0.0
O417 O 0.7722 0.69255 0.84242 0.0
C418 C 0.70208 0.57766 0.90249 0.0
O419 O 0.71008 0.61561 0.90854 0.0
O420 O 0.80401 0.64467 0.90639 0.0
O421 O 0.81782 0.71343 0.90553 0.0
H422 H 0.9027 0.59215 0.89708 0.0
H423 H 0.69123 0.67497 0.88005 0.0
O424 O 0.75706 0.73047 0.86269 0.0
H425 H 0.7199 0.73352 0.9431 0.0
H426 H 0.79739 0.86676 0.8903 0.0
H427 H 0.87705 0.78686 0.89388 0.0
H428 H 0.78027 0.7465 0.92255 0.0
H429 H 0.76006 0.78808 0.88442 0.0
O430 O 0.72825 0.57452 0.89155 0.0
H431 H 0.86891 0.63762 0.89379 0.0
H432 H 0.75334 0.52976 0.87373 0.0
H433 H 0.91558 0.86543 0.9 0.0
H434 H 0.62991 0.66167 0.90007 0.0
H435 H 0.87569 0.90592 0.89823 0.0
H436 H 0.64408 0.69092 0.93187 0.0
O437 O 0.83585 0.73107 0.86792 0.0
H438 H 0.67384 0.56316 0.83013 0.0
H439 H 0.82518 0.61209 0.84752 0.0
H440 H 0.80082 0.58695 0.81587 0.0
H441 H 0.72462 0.56217 0.80701 0.0
H442 H 0.69967 0.58893 0.86159 0.0
H443 H 0.78576 0.48303 0.87693 0.0
H444 H 0.86104 0.51426 0.88861 0.0
O445 O 0.83941 0.67014 0.87077 0.0
C446 C 0.82045 0.6826 0.91321 0.0
C447 C 0.86994 0.57821 0.89191 0.0
C448 C 0.80428 0.51695 0.88062 0.0
N449 N 0.80936 0.58646 0.88341 0.0
C450 C 0.85068 0.60382 0.88996 0.0
C451 C 0.78607 0.54355 0.87887 0.0
C452 C 0.84652 0.53449 0.88717 0.0
C453 C 0.69767 0.68822 0.8938 0.0
N454 N 0.73927 0.71156 0.9001 0.0
C455 C 0.66281 0.6804 0.9051 0.0
C456 C 0.67078 0.69674 0.92296 0.0
C457 C 0.71331 0.7206 0.92928 0.0
C458 C 0.74736 0.7277 0.9176 0.0
C459 C 0.81509 0.84945 0.89118 0.0
C460 C 0.85939 0.80418 0.89324 0.0
C461 C 0.79414 0.80491 0.88785 0.0
N462 N 0.81624 0.78282 0.88904 0.0
C463 C 0.88142 0.8487 0.89665 0.0
C464 C 0.85902 0.8714 0.89563 0.0
C465 C 0.85474 0.70916 0.86529 0.0
C466 C 0.70708 0.57375 0.83384 0.0
C467 C 0.792 0.60147 0.84376 0.0
C468 C 0.77837 0.58718 0.82583 0.0
C469 C 0.73561 0.57326 0.82087 0.0
N470 N 0.76379 0.60173 0.85642 0.0
C471 C 0.72184 0.5882 0.85166 0.0
Co472 Co 0.07118 0.78763 0.0523 0.0
Co473 Co 0.16527 0.78456 0.04427 0.0
O474 O 0.10224 0.75846 0.04413 0.0
C475 C 0.04097 0.7635 0.01411 0.0
O476 O 0.08194 0.78107 0.00945 0.0
C477 C 0.13319 0.70442 0.06614 0.0
O478 O 0.10706 0.71507 0.07436 0.0
O479 O 0.16936 0.80564 0.06994 0.0
O480 O 0.11121 0.81378 0.07368 0.0
H481 H 0.31863 0.90246 0.05572 0.0
H482 H 0.02239 0.6932 0.04499 0.0
O483 O 0.03047 0.76231 0.03093 0.0
H484 H 0.99541 0.70889 0.11025 0.0
H485 H 0.93727 0.79749 0.06438 0.0
H486 H 0.09697 0.8751 0.06668 0.0
H487 H 0.04076 0.77329 0.09123 0.0
H488 H 0.97768 0.76141 0.05459 0.0
O489 O 0.15916 0.7289 0.05374 0.0
H490 H 0.23912 0.86974 0.05532 0.0
H491 H 0.22545 0.75297 0.03359 0.0
H492 H 0.05785 0.9123 0.07673 0.0
H493 H 0.97653 0.62792 0.06346 0.0
H494 H 0.97741 0.87343 0.07561 0.0
H495 H 0.96292 0.63555 0.09636 0.0
O496 O 0.10938 0.83995 0.03732 0.0
H497 H 0.1047 0.67499 0.99328 0.0
H498 H 0.21153 0.82588 0.0094 0.0
H499 H 0.20605 0.80146 0.97729 0.0
H500 H 0.15238 0.7255 0.96907 0.0
H501 H 0.11102 0.70087 0.0252 0.0
H502 H 0.30481 0.7843 0.03389 0.0
H503 H 0.35197 0.85963 0.04495 0.0
O504 O 0.17263 0.84054 0.03489 0.0
C505 C 0.1472 0.81816 0.07918 0.0
C506 C 0.29844 0.86966 0.05081 0.0
C507 C 0.29068 0.80331 0.03858 0.0
N508 N 0.22771 0.80963 0.0443 0.0
C509 C 0.25341 0.851 0.0505 0.0
C510 C 0.24576 0.78572 0.03848 0.0
C511 C 0.31712 0.84559 0.04478 0.0
C512 C 0.01625 0.69679 0.05925 0.0
N513 N 0.03411 0.737 0.06701 0.0
C514 C 0.99041 0.6597 0.06966 0.0
C515 C 0.98285 0.664 0.08812 0.0
C516 C 0.0011 0.70514 0.09593 0.0
C517 C 0.02684 0.74149 0.08511 0.0
C518 C 0.97231 0.81474 0.06496 0.0
C519 C 0.06196 0.85789 0.06626 0.0
C520 C 0.99537 0.79451 0.05941 0.0
N521 N 0.03962 0.81603 0.06021 0.0
C522 C 0.03999 0.87916 0.07192 0.0
C523 C 0.99486 0.85734 0.07127 0.0
C524 C 0.149 0.85767 0.03237 0.0
C525 C 0.1283 0.70813 0.9967 0.0
C526 C 0.18803 0.79279 0.00592 0.0
C527 C 0.18514 0.77914 0.98772 0.0
C528 C 0.15503 0.7365 0.98312 0.0
N529 N 0.16179 0.76473 0.01917 0.0
C530 C 0.13215 0.72291 0.01476 0.0
Co531 Co 0.27923 0.06608 0.21971 0.0
Co532 Co 0.3778 0.15807 0.21146 0.0
O533 O 0.33981 0.09528 0.21202 0.0
C534 C 0.27655 0.03221 0.18248 0.0
O535 O 0.30346 0.07238 0.17758 0.0
C536 C 0.42578 0.12805 0.23475 0.0
O537 O 0.39048 0.10691 0.24468 0.0
O538 O 0.36113 0.16403 0.237 0.0
O539 O 0.29334 0.10798 0.24037 0.0
H540 H 0.41739 0.31315 0.22123 0.0
H541 H 0.32407 0.01574 0.21462 0.0
O542 O 0.2636 0.02352 0.19907 0.0
H543 H 0.27715 0.99354 0.27941 0.0
H544 H 0.1332 0.9355 0.23222 0.0
H545 H 0.21869 0.09514 0.23224 0.0
H546 H 0.26025 0.03824 0.25891 0.0
H547 H 0.21014 0.97345 0.22299 0.0
O548 O 0.42643 0.15066 0.22106 0.0
H549 H 0.36898 0.23391 0.22162 0.0
H550 H 0.46986 0.21579 0.20044 0.0
H551 H 0.14196 0.05852 0.24172 0.0
H552 H 0.34139 0.97048 0.23459 0.0
H553 H 0.09868 0.97813 0.24174 0.0
H554 H 0.31797 0.95924 0.26726 0.0
O555 O 0.26692 0.10374 0.20349 0.0
H556 H 0.42449 0.09287 0.16149 0.0
H557 H 0.38342 0.20271 0.17603 0.0
H558 H 0.40164 0.19485 0.14409 0.0
H559 H 0.4224 0.13964 0.13665 0.0
H560 H 0.40564 0.10154 0.19321 0.0
H561 H 0.51949 0.29485 0.19995 0.0
H562 H 0.49326 0.34411 0.21034 0.0
O563 O 0.33009 0.16657 0.2018 0.0
C564 C 0.32566 0.14338 0.24593 0.0
C565 C 0.42916 0.29204 0.21661 0.0
C566 C 0.48648 0.28175 0.20469 0.0
N567 N 0.41646 0.22028 0.21092 0.0
C568 C 0.40186 0.24714 0.21675 0.0
C569 C 0.45826 0.23702 0.20504 0.0
C570 C 0.47174 0.30938 0.21052 0.0
C571 C 0.31348 0.0107 0.22878 0.0
N572 N 0.29106 0.02949 0.23558 0.0
C573 C 0.3235 0.98517 0.24004 0.0
C574 C 0.3104 0.97893 0.25837 0.0
C575 C 0.28753 0.99818 0.2652 0.0
C576 C 0.27815 0.02356 0.25355 0.0
C577 C 0.15174 0.97055 0.2323 0.0
C578 C 0.20014 0.06014 0.23233 0.0
C579 C 0.19528 0.9922 0.22705 0.0
N580 N 0.21894 0.03645 0.22721 0.0
C581 C 0.15667 0.03959 0.23766 0.0
C582 C 0.1324 0.99448 0.23764 0.0
C583 C 0.28953 0.14338 0.19868 0.0
C584 C 0.41563 0.11714 0.16456 0.0
C585 C 0.39232 0.17853 0.1729 0.0
C586 C 0.4027 0.1743 0.15479 0.0
C587 C 0.41438 0.14334 0.15063 0.0
N588 N 0.39366 0.15274 0.18649 0.0
C589 C 0.40511 0.12233 0.18252 0.0
Co590 Co 0.21348 0.2805 0.38614 0.0
Co591 Co 0.22104 0.37887 0.37596 0.0
O592 O 0.24508 0.34035 0.37757 0.0
C593 C 0.24262 0.27522 0.34881 0.0
O594 O 0.2297 0.30233 0.34382 0.0
C595 C 0.29807 0.42636 0.39971 0.0
O596 O 0.28316 0.39103 0.40968 0.0
O597 O 0.19682 0.36337 0.40132 0.0
O598 O 0.18772 0.29708 0.40684 0.0
H599 H 0.10633 0.42075 0.38253 0.0
H600 H 0.30832 0.32399 0.37996 0.0
O601 O 0.23863 0.26277 0.36548 0.0
H602 H 0.28725 0.2816 0.44532 0.0
H603 H 0.19656 0.13454 0.40025 0.0
H604 H 0.12462 0.22214 0.40004 0.0
H605 H 0.22454 0.26391 0.42539 0.0
H606 H 0.23586 0.21068 0.38994 0.0
O607 O 0.27681 0.42731 0.38581 0.0
H608 H 0.13607 0.37149 0.38429 0.0
H609 H 0.25742 0.47079 0.36431 0.0
H610 H 0.08422 0.14623 0.41062 0.0
H611 H 0.37196 0.34203 0.39934 0.0
H612 H 0.12024 0.1019 0.41076 0.0
H613 H 0.36162 0.32091 0.4323 0.0
O614 O 0.16254 0.26748 0.37038 0.0
H615 H 0.33552 0.42211 0.32728 0.0
H616 H 0.18441 0.38371 0.33977 0.0
H617 H 0.21231 0.40033 0.30802 0.0
H618 H 0.28838 0.41971 0.30162 0.0
H619 H 0.30621 0.40492 0.3588 0.0
H620 H 0.22912 0.52126 0.36245 0.0
H621 H 0.15301 0.49626 0.37155 0.0
O622 O 0.16517 0.33125 0.3661 0.0
C623 C 0.18372 0.32957 0.41129 0.0
C624 C 0.13952 0.43201 0.37849 0.0
C625 C 0.20845 0.48843 0.36725 0.0
N626 N 0.19834 0.41816 0.37433 0.0
C627 C 0.1565 0.40423 0.37943 0.0
C628 C 0.22433 0.45973 0.36837 0.0
C629 C 0.16574 0.47438 0.37234 0.0
C630 C 0.30356 0.31441 0.39425 0.0
N631 N 0.26277 0.29287 0.40154 0.0
C632 C 0.33972 0.32483 0.40517 0.0
C633 C 0.3339 0.31302 0.42367 0.0
C634 C 0.29218 0.291 0.43099 0.0
C635 C 0.2568 0.28118 0.41966 0.0
C636 C 0.18055 0.15355 0.40029 0.0
C637 C 0.14059 0.20312 0.40018 0.0
C638 C 0.2026 0.19663 0.39442 0.0
N639 N 0.18263 0.22088 0.39452 0.0
C640 C 0.11751 0.16013 0.40613 0.0
C641 C 0.13773 0.13526 0.40619 0.0
C642 C 0.14664 0.2902 0.36432 0.0
C643 C 0.30236 0.41384 0.32991 0.0
C644 C 0.21753 0.39207 0.33709 0.0
C645 C 0.23317 0.40152 0.31909 0.0
C646 C 0.27587 0.41242 0.31551 0.0
N647 N 0.24372 0.39356 0.35114 0.0
C648 C 0.28564 0.40427 0.34774 0.0
Co649 Co 0.93082 0.21278 0.55066 0.0
Co650 Co 0.83799 0.21897 0.5432 0.0
O651 O 0.9011 0.24426 0.5435 0.0
C652 C 0.97555 0.26267 0.51629 0.0
O653 O 0.9467 0.27487 0.51434 0.0
C654 C 0.86846 0.29613 0.56692 0.0
O655 O 0.8902 0.28192 0.5764 0.0
O656 O 0.83271 0.19577 0.5685 0.0
O657 O 0.88893 0.18425 0.57136 0.0
H658 H 0.68352 0.10205 0.55321 0.0
H659 H 0.98002 0.309 0.54708 0.0
O660 O 0.97391 0.23932 0.5299 0.0
H661 H 0.00404 0.27882 0.61078 0.0
H662 H 0.06066 0.19553 0.56256 0.0
H663 H 0.90103 0.12247 0.56229 0.0
H664 H 0.95938 0.21896 0.58957 0.0
H665 H 0.02336 0.23552 0.55392 0.0
O666 O 0.84508 0.27435 0.55338 0.0
H667 H 0.76289 0.13361 0.55318 0.0
H668 H 0.7793 0.25282 0.5331 0.0
H669 H 0.93701 0.08136 0.57118 0.0
H670 H 0.02521 0.36975 0.56774 0.0
H671 H 0.01739 0.11792 0.57134 0.0
H672 H 0.03745 0.3549 0.59988 0.0
O673 O 0.89331 0.16398 0.53404 0.0
H674 H 0.89506 0.33415 0.49423 0.0
H675 H 0.79453 0.17988 0.50759 0.0
H676 H 0.79936 0.20719 0.47606 0.0
H677 H 0.84978 0.28488 0.46921 0.0
H678 H 0.88996 0.30534 0.52549 0.0
H679 H 0.70011 0.22264 0.53303 0.0
H680 H 0.65164 0.14668 0.54308 0.0
O681 O 0.82988 0.16325 0.53308 0.0
C682 C 0.85355 0.18085 0.57716 0.0
C683 C 0.70429 0.13513 0.54874 0.0
C684 C 0.71361 0.20284 0.53743 0.0
N685 N 0.77568 0.19486 0.54298 0.0
C686 C 0.74925 0.15314 0.54863 0.0
C687 C 0.75843 0.21976 0.53752 0.0
C688 C 0.68643 0.16021 0.54307 0.0
C689 C 0.98563 0.30212 0.56091 0.0
N690 N 0.96752 0.26034 0.56697 0.0
C691 C 0.01107 0.33674 0.57261 0.0
C692 C 0.01785 0.32839 0.59066 0.0
C693 C 0.9991 0.28572 0.59678 0.0
C694 C 0.97379 0.25194 0.5847 0.0
C695 C 0.02561 0.17926 0.56257 0.0
C696 C 0.93603 0.13867 0.56245 0.0
C697 C 0.00431 0.20171 0.55766 0.0
N698 N 0.96007 0.18142 0.55774 0.0
C699 C 0.95622 0.1152 0.56744 0.0
C700 C 0.00132 0.13572 0.56751 0.0
C701 C 0.85353 0.14665 0.52945 0.0
C702 C 0.87297 0.30022 0.49704 0.0
C703 C 0.81705 0.2136 0.5047 0.0
C704 C 0.81939 0.22894 0.48682 0.0
C705 C 0.84761 0.27256 0.483 0.0
N706 N 0.84219 0.24089 0.51839 0.0
C707 C 0.86974 0.28374 0.51475 0.0
H708 H 0.06912 0.63394 0.08408 0.0
H709 H 0.19516 0.68272 0.05915 0.0
H710 H 0.06781 0.56643 0.09189 0.0
H711 H 0.19392 0.61555 0.06715 0.0
H712 H 0.19448 0.51176 0.10567 0.0
H713 H 0.19434 0.57815 0.09749 0.0
H714 H 0.06663 0.50235 0.07404 0.0
H715 H 0.06681 0.43564 0.08202 0.0
C716 C 0.09657 0.63033 0.08034 0.0
C717 C 0.1323 0.66368 0.07105 0.0
C718 C 0.09567 0.59162 0.0847 0.0
C719 C 0.13079 0.58586 0.08014 0.0
C720 C 0.16656 0.61928 0.07094 0.0
C721 C 0.16716 0.65763 0.0663 0.0
C722 C 0.16636 0.5092 0.09875 0.0
C723 C 0.13069 0.46847 0.09444 0.0
C724 C 0.1664 0.54722 0.09401 0.0
C725 C 0.1305 0.54534 0.08513 0.0
C726 C 0.09461 0.50466 0.08097 0.0
C727 C 0.09486 0.46656 0.08544 0.0
H728 H 0.65747 0.1564 0.28649 0.0
H729 H 0.65306 0.09595 0.23443 0.0
H730 H 0.5892 0.15347 0.27915 0.0
H731 H 0.58482 0.0934 0.22708 0.0
H732 H 0.49689 0.15231 0.21315 0.0
H733 H 0.56246 0.15 0.22063 0.0
H734 H 0.50958 0.09645 0.27394 0.0
H735 H 0.44359 0.09838 0.26645 0.0
C736 C 0.64194 0.14247 0.27348 0.0
C737 C 0.6608 0.12658 0.26099 0.0
C738 C 0.6027 0.14055 0.26935 0.0
C739 C 0.58174 0.12323 0.25255 0.0
C740 C 0.60046 0.10719 0.24008 0.0
C741 C 0.63943 0.10853 0.24432 0.0
C742 C 0.49914 0.13994 0.22647 0.0
C743 C 0.46509 0.12569 0.23925 0.0
C744 C 0.53659 0.13837 0.23068 0.0
C745 C 0.54111 0.12307 0.24786 0.0
C746 C 0.50705 0.10867 0.26064 0.0
C747 C 0.46925 0.10964 0.25632 0.0
H748 H 0.5587 0.6516 0.40054 0.0
H749 H 0.50148 0.65581 0.45233 0.0
H750 H 0.49291 0.58372 0.39289 0.0
H751 H 0.43607 0.58795 0.4447 0.0
H752 H 0.34462 0.44309 0.4316 0.0
H753 H 0.41288 0.50835 0.43937 0.0
H754 H 0.41435 0.56238 0.38608 0.0
H755 H 0.34615 0.49752 0.37831 0.0
C756 C 0.53222 0.63798 0.41032 0.0
C757 C 0.53521 0.6592 0.42699 0.0
C758 C 0.49455 0.59924 0.40591 0.0
C759 C 0.45943 0.58062 0.41821 0.0
C760 C 0.46277 0.60138 0.43503 0.0
C761 C 0.50013 0.64039 0.43932 0.0
C762 C 0.35956 0.46885 0.42153 0.0
C763 C 0.33986 0.46524 0.40439 0.0
C764 C 0.39852 0.50622 0.42601 0.0
C765 C 0.41887 0.54037 0.41332 0.0
C766 C 0.39957 0.5364 0.39606 0.0
C767 C 0.36037 0.49937 0.39168 0.0
H768 H 0.90456 0.55687 0.56723 0.0
H769 H 0.84498 0.50107 0.61948 0.0
H770 H 0.90631 0.49084 0.5597 0.0
H771 H 0.84714 0.43545 0.61197 0.0
H772 H 0.90018 0.34359 0.59849 0.0
H773 H 0.90374 0.41216 0.6062 0.0
H774 H 0.84793 0.41197 0.5535 0.0
H775 H 0.84396 0.34346 0.54582 0.0
C776 C 0.89206 0.53066 0.57713 0.0
C777 C 0.8744 0.53408 0.59389 0.0
C778 C 0.89294 0.49286 0.5728 0.0
C779 C 0.87685 0.45809 0.58526 0.0
C780 C 0.86007 0.46189 0.60218 0.0
C781 C 0.85859 0.49936 0.6064 0.0
C782 C 0.88875 0.35823 0.58855 0.0
C783 C 0.87156 0.33799 0.5716 0.0
C784 C 0.89068 0.39737 0.59298 0.0
C785 C 0.87615 0.41733 0.58043 0.0
C786 C 0.8597 0.39748 0.56337 0.0
C787 C 0.85716 0.3581 0.55905 0.0
H788 H 0.50463 0.84883 0.71317 0.0
H789 H 0.55798 0.902 0.76653 0.0
H790 H 0.43924 0.85136 0.7207 0.0
H791 H 0.49211 0.90417 0.77409 0.0
H792 H 0.34395 0.84376 0.78655 0.0
H793 H 0.41246 0.8472 0.77924 0.0
H794 H 0.41687 0.90781 0.72728 0.0
H795 H 0.34837 0.90473 0.7346 0.0
C796 C 0.50244 0.86111 0.72651 0.0
C797 C 0.53644 0.87504 0.7393 0.0
C798 C 0.46508 0.86281 0.73076 0.0
C799 C 0.4606 0.87795 0.74797 0.0
C800 C 0.49462 0.89208 0.76075 0.0
C801 C 0.53235 0.89099 0.7564 0.0
C802 C 0.35954 0.85793 0.77357 0.0
C803 C 0.34058 0.87377 0.7611 0.0
C804 C 0.39893 0.86015 0.76947 0.0
C805 C 0.41996 0.87774 0.7527 0.0
C806 C 0.40119 0.89382 0.74026 0.0
C807 C 0.36206 0.89216 0.74448 0.0
H808 H 0.4365 0.38297 0.9322 0.0
H809 H 0.5003 0.31019 0.92024 0.0
H810 H 0.50369 0.45034 0.92651 0.0
H811 H 0.56644 0.37666 0.91254 0.0
H812 H 0.69245 0.50132 0.91439 0.0
H813 H 0.62559 0.4357 0.92222 0.0
H814 H 0.55294 0.49905 0.90741 0.0
H815 H 0.62068 0.56575 0.90159 0.0
C816 C 0.46492 0.38159 0.92793 0.0
C817 C 0.46353 0.3417 0.92667 0.0
C818 C 0.50357 0.42023 0.92449 0.0
C819 C 0.54138 0.41977 0.91904 0.0
C820 C 0.53901 0.37919 0.91726 0.0
C821 C 0.50085 0.34078 0.92141 0.0
C822 C 0.66201 0.50103 0.91308 0.0
C823 C 0.66147 0.53837 0.90754 0.0
C824 C 0.62337 0.46316 0.9173 0.0
C825 C 0.58296 0.4611 0.91531 0.0
C826 C 0.5829 0.49895 0.9096 0.0
C827 C 0.62176 0.53731 0.90609 0.0
H828 H 0.31989 0.22986 0.19424 0.0
H829 H 0.20971 0.10425 0.18201 0.0
H830 H 0.28427 0.26471 0.17959 0.0
H831 H 0.17469 0.13925 0.16643 0.0
H832 H 0.23162 0.31632 0.13643 0.0
H833 H 0.26523 0.27926 0.15098 0.0
H834 H 0.13995 0.1802 0.17078 0.0
H835 H 0.10601 0.21641 0.15536 0.0
C836 C 0.2882 0.20959 0.18823 0.0
C837 C 0.26773 0.1642 0.18928 0.0
C838 C 0.26779 0.22966 0.17968 0.0
C839 C 0.2266 0.20494 0.17165 0.0
C840 C 0.20611 0.15944 0.17267 0.0
C841 C 0.22632 0.13931 0.18149 0.0
C842 C 0.21118 0.28665 0.14389 0.0
C843 C 0.16611 0.26942 0.14476 0.0
C844 C 0.23054 0.26543 0.15236 0.0
C845 C 0.20547 0.22675 0.16222 0.0
C846 C 0.1603 0.20952 0.1631 0.0
C847 C 0.14083 0.23046 0.15437 0.0
H848 H 0.9157 0.22946 0.30156 0.0
H849 H 0.88881 0.10511 0.32263 0.0
H850 H 0.98658 0.26356 0.31591 0.0
H851 H 0.95913 0.13962 0.33793 0.0
H852 H 0.10469 0.20866 0.34926 0.0
H853 H 0.0345 0.17294 0.33383 0.0
H854 H 0.02093 0.2851 0.3441 0.0
H855 H 0.09162 0.32134 0.35848 0.0
C856 C 0.92473 0.20945 0.30947 0.0
C857 C 0.89653 0.16458 0.31099 0.0
C858 C 0.96542 0.22908 0.31783 0.0
C859 C 0.97876 0.20454 0.32826 0.0
C860 C 0.95041 0.15956 0.3298 0.0
C861 C 0.9099 0.13976 0.32114 0.0
C862 C 0.0867 0.22567 0.34813 0.0
C863 C 0.10394 0.26796 0.35502 0.0
C864 C 0.04626 0.20507 0.3394 0.0
C865 C 0.02183 0.22606 0.3376 0.0
C866 C 0.03902 0.26816 0.34476 0.0
C867 C 0.07963 0.28894 0.35317 0.0
H868 H 0.76714 0.08942 0.52529 0.0
H869 H 0.89348 0.10742 0.51234 0.0
H870 H 0.73311 0.01858 0.51096 0.0
H871 H 0.85931 0.03712 0.49711 0.0
H872 H 0.7852 0.89106 0.48722 0.0
H873 H 0.82024 0.96173 0.50217 0.0
H874 H 0.71819 0.98372 0.48263 0.0
H875 H 0.68232 0.91254 0.46856 0.0
C876 C 0.78771 0.07851 0.51916 0.0
C877 C 0.83308 0.1042 0.51996 0.0
C878 C 0.76813 0.03783 0.51081 0.0
C879 C 0.79333 0.02195 0.50275 0.0
C880 C 0.83878 0.04786 0.50342 0.0
C881 C 0.85843 0.08837 0.51203 0.0
C882 C 0.77024 0.911 0.48619 0.0
C883 C 0.73083 0.89602 0.47679 0.0
C884 C 0.7905 0.95171 0.49465 0.0
C885 C 0.77212 0.97863 0.49368 0.0
C886 C 0.73293 0.96367 0.48406 0.0
C887 C 0.7124 0.92281 0.47587 0.0
H888 H 0.76917 0.68093 0.63655 0.0
H889 H 0.89429 0.78576 0.65336 0.0
H890 H 0.73424 0.71728 0.65055 0.0
H891 H 0.85909 0.82136 0.66818 0.0
H892 H 0.68022 0.76924 0.69342 0.0
H893 H 0.7162 0.73432 0.67905 0.0
H894 H 0.82175 0.85945 0.66255 0.0
H895 H 0.78653 0.89457 0.67773 0.0
C896 C 0.78925 0.71155 0.64342 0.0
C897 C 0.83458 0.73038 0.64384 0.0
C898 C 0.76913 0.73236 0.65157 0.0
C899 C 0.79372 0.77228 0.66061 0.0
C900 C 0.8391 0.79103 0.6611 0.0
C901 C 0.85931 0.77045 0.65272 0.0
C902 C 0.71104 0.78937 0.68669 0.0
C903 C 0.73045 0.83475 0.68674 0.0
C904 C 0.73165 0.76928 0.67833 0.0
C905 C 0.77195 0.79396 0.66956 0.0
C906 C 0.79113 0.83938 0.66943 0.0
C907 C 0.77075 0.85954 0.67801 0.0
H908 H 0.91375 0.68158 0.86347 0.0
H909 H 0.89175 0.78453 0.84538 0.0
H910 H 0.98413 0.71701 0.84856 0.0
H911 H 0.96151 0.81911 0.82973 0.0
H912 H 0.08851 0.76692 0.80493 0.0
H913 H 0.01794 0.73239 0.81967 0.0
H914 H 0.03714 0.8581 0.83481 0.0
H915 H 0.10711 0.89275 0.81931 0.0
C916 C 0.92372 0.71157 0.85614 0.0
C917 C 0.89705 0.7302 0.85565 0.0
C918 C 0.96409 0.73182 0.84747 0.0
C919 C 0.97867 0.77098 0.83786 0.0
C920 C 0.95179 0.78941 0.83725 0.0
C921 C 0.91158 0.7694 0.84612 0.0
C922 C 0.07775 0.78726 0.8114 0.0
C923 C 0.10354 0.83265 0.81092 0.0
C924 C 0.03726 0.76739 0.81998 0.0
C925 C 0.02169 0.79235 0.82852 0.0
C926 C 0.04765 0.83779 0.82812 0.0
C927 C 0.08797 0.85771 0.81934 0.0
H928 H 0.10819 0.89673 0.01583 0.0
H929 H 0.23513 0.91544 0.02799 0.0
H930 H 0.14162 0.96631 -5e-05 0.0
H931 H 0.26848 0.98555 0.01298 0.0
H932 H 0.21565 0.11145 0.98776 0.0
H933 H 0.18138 0.04218 0.00385 0.0
H934 H 0.28155 0.01772 0.98398 0.0
H935 H 0.3167 0.08759 0.9687 0.0
C936 C 0.14322 0.91588 0.01528 0.0
C937 C 0.16895 0.90039 0.0231 0.0
C938 C 0.16244 0.95594 0.00626 0.0
C939 C 0.20786 0.98169 0.00507 0.0
C940 C 0.23345 0.96634 0.0132 0.0
C941 C 0.21428 0.92612 0.02196 0.0
C942 C 0.23036 0.09126 0.98687 0.0
C943 C 0.26903 0.10518 0.97701 0.0
C944 C 0.21055 0.05136 0.99601 0.0
C945 C 0.22864 0.02418 0.9953 0.0
C946 C 0.26708 0.03804 0.98522 0.0
C947 C 0.28718 0.07812 0.97632 0.0
H948 H 0.12009 0.24538 0.07312 0.0
H949 H 0.20667 0.3828 0.06539 0.0
H950 H 0.15609 0.2301 0.04821 0.0
H951 H 0.24188 0.36699 0.03997 0.0
H952 H 0.24779 0.30016 0.98238 0.0
H953 H 0.21457 0.3224 0.00639 0.0
H954 H 0.24107 0.24941 0.04646 0.0
H955 H 0.27516 0.22798 0.0227 0.0
C956 C 0.14631 0.2724 0.06595 0.0
C957 C 0.16062 0.31537 0.07136 0.0
C958 C 0.16702 0.26353 0.05175 0.0
C959 C 0.20188 0.29738 0.04237 0.0
C960 C 0.21504 0.3404 0.04708 0.0
C961 C 0.19487 0.34935 0.06159 0.0
C962 C 0.24699 0.28933 0.99636 0.0
C963 C 0.26397 0.26224 0.00067 0.0
C964 C 0.22812 0.30214 0.01005 0.0
C965 C 0.22512 0.2873 0.02815 0.0
C966 C 0.24285 0.261 0.03253 0.0
C967 C 0.2625 0.24895 0.01897 0.0
H968 H 0.82513 0.20787 0.23261 0.0
H969 H 0.87507 0.12018 0.23909 0.0
H970 H 0.8767 0.24434 0.20745 0.0
H971 H 0.92684 0.1574 0.21449 0.0
H972 H 0.04908 0.27772 0.19038 0.0
H973 H 0.99286 0.24324 0.21383 0.0
H974 H 0.89455 0.21759 0.1733 0.0
H975 H 0.95072 0.25121 0.14956 0.0
C976 C 0.84668 0.1961 0.2286 0.0
C977 C 0.846 0.16116 0.23795 0.0
C978 C 0.87612 0.21699 0.21424 0.0
C979 C 0.90586 0.20383 0.20928 0.0
C980 C 0.90443 0.16832 0.21823 0.0
C981 C 0.87457 0.14692 0.23227 0.0
C982 C 0.01556 0.2652 0.18647 0.0
C983 C 0.00429 0.26697 0.16812 0.0
C984 C 0.98346 0.24535 0.19987 0.0
C985 C 0.93957 0.22772 0.19527 0.0
C986 C 0.92826 0.23109 0.17712 0.0
C987 C 0.96034 0.25017 0.1636 0.0
H988 H 0.70141 0.94735 0.3148 0.0
H989 H 0.76972 0.04565 0.35605 0.0
H990 H 0.67857 0.89103 0.33852 0.0
H991 H 0.74774 0.98933 0.37946 0.0
H992 H 0.75475 0.87189 0.40457 0.0
H993 H 0.7692 0.92296 0.37968 0.0
H994 H 0.63219 0.87403 0.37319 0.0
H995 H 0.61716 0.82318 0.39864 0.0
C996 C 0.71124 0.95692 0.32892 0.0
C997 C 0.73748 0.0009 0.33357 0.0
C998 C 0.69807 0.92475 0.34242 0.0
C999 C 0.71168 0.93608 0.36068 0.0
C1000 C 0.73705 0.97996 0.36541 0.0
C1001 C 0.74946 0.01211 0.35203 0.0
C1002 C 0.72748 0.87148 0.39781 0.0
C1003 C 0.68473 0.84352 0.40375 0.0
C1004 C 0.7359 0.9009 0.38359 0.0
C1005 C 0.70181 0.90246 0.37472 0.0
C1006 C 0.65894 0.87327 0.37991 0.0
C1007 C 0.65045 0.84427 0.39444 0.0
H1008 H 0.79405 0.61734 0.56524 0.0
H1009 H 0.88193 0.75483 0.57201 0.0
H1010 H 0.75864 0.63282 0.53976 0.0
H1011 H 0.84574 0.76974 0.54709 0.0
H1012 H 0.7251 0.77116 0.52257 0.0
H1013 H 0.75911 0.74921 0.54614 0.0
H1014 H 0.78747 0.67872 0.50555 0.0
H1015 H 0.75433 0.70152 0.48169 0.0
C1016 C 0.80609 0.65071 0.56123 0.0
C1017 C 0.84075 0.68482 0.57076 0.0
C1018 C 0.78582 0.65947 0.54668 0.0
C1019 C 0.79933 0.70243 0.5417 0.0
C1020 C 0.83459 0.73637 0.55083 0.0
C1021 C 0.85537 0.72769 0.56506 0.0
C1022 C 0.73816 0.75064 0.51866 0.0
C1023 C 0.73725 0.73825 0.50026 0.0
C1024 C 0.75772 0.73825 0.53214 0.0
C1025 C 0.77592 0.71249 0.52756 0.0
C1026 C 0.77351 0.69853 0.50935 0.0
C1027 C 0.75471 0.71168 0.49575 0.0
H1028 H 0.12901 0.88071 0.73761 0.0
H1029 H 0.17413 0.78868 0.7331 0.0
H1030 H 0.07794 0.84419 0.71273 0.0
H1031 H 0.1233 0.75296 0.70762 0.0
H1032 H 0.05211 0.75208 0.64842 0.0
H1033 H 0.10826 0.78446 0.67224 0.0
H1034 H 0.00978 0.75523 0.71313 0.0
H1035 H 0.95358 0.72194 0.68961 0.0
C1036 C 0.12863 0.85315 0.73117 0.0
C1037 C 0.15559 0.83749 0.73751 0.0
C1038 C 0.09922 0.83223 0.71695 0.0
C1039 C 0.09667 0.79576 0.70846 0.0
C1040 C 0.12484 0.7811 0.71405 0.0
C1041 C 0.15384 0.80157 0.72859 0.0
C1042 C 0.04245 0.75206 0.66254 0.0
C1043 C 0.99846 0.73463 0.66715 0.0
C1044 C 0.07452 0.7704 0.67611 0.0
C1045 C 0.06309 0.77232 0.69439 0.0
C1046 C 0.0192 0.75409 0.69907 0.0
C1047 C 0.98713 0.735 0.68562 0.0
H1048 H 0.24109 0.12615 0.90505 0.0
H1049 H 0.37855 0.17833 0.89666 0.0
H1050 H 0.2257 0.0744 0.88033 0.0
H1051 H 0.36263 0.12684 0.87147 0.0
H1052 H 0.29651 0.05074 0.81473 0.0
H1053 H 0.31788 0.10732 0.83817 0.0
H1054 H 0.2455 0.00956 0.87897 0.0
H1055 H 0.22495 0.95297 0.85581 0.0
C1056 C 0.26808 0.12718 0.89777 0.0
C1057 C 0.31112 0.15631 0.90297 0.0
C1058 C 0.25916 0.09734 0.88367 0.0
C1059 C 0.293 0.09652 0.87419 0.0
C1060 C 0.33604 0.12693 0.87865 0.0
C1061 C 0.34506 0.15633 0.89304 0.0
C1062 C 0.28559 0.04135 0.82876 0.0
C1063 C 0.259 0.99744 0.83344 0.0
C1064 C 0.29788 0.07367 0.84211 0.0
C1065 C 0.28298 0.06262 0.86025 0.0
C1066 C 0.25708 0.01878 0.86501 0.0
C1067 C 0.24556 0.98646 0.85177 0.0
H1068 H 0.61836 0.79265 0.76686 0.0
H1069 H 0.75635 0.87321 0.75805 0.0
H1070 H 0.63275 0.75573 0.79208 0.0
H1071 H 0.77012 0.83562 0.78271 0.0
H1072 H 0.76942 0.71748 0.80949 0.0
H1073 H 0.74742 0.75016 0.78532 0.0
H1074 H 0.67915 0.78309 0.82527 0.0
H1075 H 0.70191 0.75124 0.84968 0.0
C1076 C 0.65162 0.80267 0.77033 0.0
C1077 C 0.68616 0.83589 0.76038 0.0
C1078 C 0.65977 0.78154 0.78473 0.0
C1079 C 0.70248 0.79265 0.78911 0.0
C1080 C 0.73689 0.82622 0.77942 0.0
C1081 C 0.72889 0.84787 0.76536 0.0
C1082 C 0.74928 0.73118 0.81313 0.0
C1083 C 0.73763 0.73205 0.8315 0.0
C1084 C 0.73685 0.74997 0.79931 0.0
C1085 C 0.7118 0.76918 0.80353 0.0
C1086 C 0.69836 0.7683 0.82172 0.0
C1087 C 0.71152 0.75026 0.83564 0.0
H1088 H 0.87763 0.7625 0.927 0.0
H1089 H 0.82625 0.62576 0.93699 0.0
H1090 H 0.92975 0.77968 0.95176 0.0
H1091 H 0.87816 0.64344 0.96215 0.0
H1092 H 0.95381 0.70845 0.01812 0.0
H1093 H 0.89746 0.68687 0.99457 0.0
H1094 H 0.99517 0.76349 0.95439 0.0
H1095 H 0.05156 0.78439 0.97769 0.0
C1096 C 0.87689 0.73605 0.93463 0.0
C1097 C 0.84781 0.69268 0.92989 0.0
C1098 C 0.90697 0.74599 0.94874 0.0
C1099 C 0.90813 0.71287 0.95869 0.0
C1100 C 0.87783 0.66953 0.95464 0.0
C1101 C 0.84818 0.65949 0.94025 0.0
C1102 C 0.96326 0.72038 0.00422 0.0
C1103 C 0.0071 0.74817 0.99975 0.0
C1104 C 0.93105 0.70794 0.99078 0.0
C1105 C 0.94207 0.72382 0.97276 0.0
C1106 C 0.98588 0.75114 0.96825 0.0
C1107 C 0.01812 0.76286 0.98156 0.0
H1108 H 0.23082 0.85382 0.09159 0.0
H1109 H 0.10619 0.83895 0.10571 0.0
H1110 H 0.26351 0.9026 0.11769 0.0
H1111 H 0.13899 0.88737 0.1318 0.0
H1112 H 0.20733 0.95025 0.18575 0.0
H1113 H 0.17673 0.89392 0.16221 0.0
H1114 H 0.27664 0.97853 0.12429 0.0
H1115 H 0.30727 0.03504 0.14778 0.0
C1116 C 0.21021 0.86029 0.1004 0.0
C1117 C 0.16585 0.84256 0.09646 0.0
C1118 C 0.22906 0.88847 0.11527 0.0
C1119 C 0.20385 0.89897 0.12669 0.0
C1120 C 0.15917 0.87965 0.1233 0.0
C1121 C 0.14042 0.85197 0.1083 0.0
C1122 C 0.22301 0.95674 0.17245 0.0
C1123 C 0.25959 0.99721 0.16859 0.0
C1124 C 0.20536 0.92453 0.15897 0.0
C1125 C 0.22428 0.93186 0.14143 0.0
C1126 C 0.26162 0.97184 0.13775 0.0
C1127 C 0.27895 0.00429 0.15115 0.0
H1128 H 0.26346 0.10371 0.27236 0.0
H1129 H 0.37445 0.22723 0.25802 0.0
H1130 H 0.24856 0.13723 0.29834 0.0
H1131 H 0.35902 0.26078 0.28405 0.0
H1132 H 0.27082 0.30577 0.31413 0.0
H1133 H 0.29659 0.27488 0.29071 0.0
H1134 H 0.28047 0.17481 0.32872 0.0
H1135 H 0.25485 0.20569 0.3522 0.0
C1136 C 0.28509 0.13787 0.27488 0.0
C1137 C 0.32011 0.16275 0.26303 0.0
C1138 C 0.27657 0.15704 0.28983 0.0
C1139 C 0.30251 0.20164 0.29316 0.0
C1140 C 0.33831 0.22637 0.28169 0.0
C1141 C 0.34726 0.20706 0.26686 0.0
C1142 C 0.27304 0.27734 0.31753 0.0
C1143 C 0.2605 0.25799 0.33497 0.0
C1144 C 0.28812 0.25989 0.30417 0.0
C1145 C 0.29048 0.22243 0.3079 0.0
C1146 C 0.27872 0.20355 0.32544 0.0
C1147 C 0.26418 0.22132 0.33889 0.0
H1148 H 0.18164 0.288 0.44315 0.0
H1149 H 0.13094 0.36291 0.41783 0.0
H1150 H 0.13669 0.27657 0.47006 0.0
H1151 H 0.08332 0.34876 0.44387 0.0
H1152 H 0.01491 0.33779 0.49671 0.0
H1153 H 0.071 0.35931 0.47342 0.0
H1154 H 0.06768 0.23702 0.48055 0.0
H1155 H 0.01437 0.21767 0.50487 0.0
C1156 C 0.16076 0.30195 0.44335 0.0
C1157 C 0.15976 0.32626 0.42836 0.0
C1158 C 0.13448 0.29501 0.45871 0.0
C1159 C 0.10549 0.31108 0.45925 0.0
C1160 C 0.10549 0.33635 0.44433 0.0
C1161 C 0.13271 0.34433 0.42923 0.0
C1162 C 0.02664 0.31584 0.49335 0.0
C1163 C 0.01033 0.27608 0.50252 0.0
C1164 C 0.0586 0.32793 0.47986 0.0
C1165 C 0.07405 0.2999 0.47477 0.0
C1166 C 0.05767 0.26013 0.48419 0.0
C1167 C 0.02669 0.2487 0.49807 0.0
H1168 H 0.68828 0.96709 0.6469 0.0
H1169 H 0.79237 0.04931 0.68379 0.0
H1170 H 0.71983 0.02286 0.62311 0.0
H1171 H 0.82391 0.10485 0.65993 0.0
H1172 H 0.89256 0.1553 0.60278 0.0
H1173 H 0.85896 0.10762 0.62904 0.0
H1174 H 0.73719 0.10038 0.61633 0.0
H1175 H 0.77073 0.1485 0.59009 0.0
C1176 C 0.71766 0.99718 0.64998 0.0
C1177 C 0.73794 0.00369 0.66719 0.0
C1178 C 0.73556 0.02919 0.6364 0.0
C1179 C 0.77438 0.06811 0.63967 0.0
C1180 C 0.79413 0.07502 0.65701 0.0
C1181 C 0.77593 0.04328 0.67068 0.0
C1182 C 0.85879 0.14414 0.60569 0.0
C1183 C 0.83438 0.15573 0.59425 0.0
C1184 C 0.83959 0.11691 0.6208 0.0
C1185 C 0.79543 0.10019 0.62468 0.0
C1186 C 0.77122 0.11256 0.61356 0.0
C1187 C 0.79056 0.14032 0.59859 0.0
loop_
_geom_bond_atom_site_label_1
_geom_bond_atom_site_label_2
_geom_bond_distance
_geom_bond_site_symmetry_2
_ccdc_geom_bond_type
Co0 O2 2.143 . S
Co0 O8 2.074 . S
Co0 O11 2.093 . S
Co0 O24 2.097 . S
Co0 N41 2.151 . S
Co0 N49 2.214 . S
Co1 O2 2.160 . S
Co1 O7 2.058 . S
Co1 O17 2.057 . S
Co1 O32 2.037 . S
Co1 N36 2.145 . S
Co1 N57 2.257 . S
O2 Co0 2.143 . S
O2 Co1 2.160 . S
C3 O4 1.278 . S
C3 O11 1.224 . S
O4 C3 1.278 . S
C5 O6 1.245 . S
C5 O17 1.232 . S
O6 C5 1.245 . S
O7 Co1 2.058 . S
O7 C33 1.269 . S
O8 Co0 2.074 . S
O8 C33 1.257 . S
H9 C34 0.930 . S
H10 C40 0.930 . S
O11 Co0 2.093 . S
O11 C3 1.224 . S
H12 C44 0.929 . S
H13 C46 0.930 . S
H14 C47 0.930 . S
H15 C45 0.929 . S
H16 C48 0.928 . S
O17 Co1 2.057 . S
O17 C5 1.232 . S
H18 C37 0.929 . S
H19 C38 0.929 . S
H20 C50 0.931 . S
H21 C42 0.929 . S
H22 C51 0.930 . S
H23 C43 0.931 . S
O24 Co0 2.097 . S
O24 C52 1.214 . S
H25 C53 0.929 . S
H26 C54 0.929 . S
H27 C55 0.930 . S
H28 C56 0.929 . S
H29 C58 0.930 . S
H30 C35 0.930 . S
H31 C39 0.930 . S
O32 Co1 2.037 . S
O32 C52 1.234 . S
C33 O7 1.269 . S
C33 O8 1.257 . S
C34 H9 0.930 . S
C34 C37 1.388 . S
C34 C39 1.418 . S
C35 H30 0.930 . S
C35 C38 1.404 . S
C35 C39 1.353 . S
N36 Co1 2.145 . S
N36 C37 1.397 . S
N36 C38 1.334 . S
C37 H18 0.929 . S
C37 C34 1.388 . S
C37 N36 1.397 . S
C38 H19 0.929 . S
C38 C35 1.404 . S
C38 N36 1.334 . S
C39 H31 0.930 . S
C39 C34 1.418 . S
C39 C35 1.353 . S
C40 H10 0.930 . S
C40 N41 1.330 . S
C40 C42 1.446 1_455 S
N41 Co0 2.151 . S
N41 C40 1.330 . S
N41 C45 1.418 . S
C42 H21 0.929 . S
C42 C40 1.446 1_655 S
C42 C43 1.332 . S
C43 H23 0.931 . S
C43 C42 1.332 . S
C43 C44 1.267 1_655 S
C44 H12 0.929 . S
C44 C43 1.267 1_455 S
C44 C45 1.251 . S
C45 H15 0.929 . S
C45 N41 1.418 . S
C45 C44 1.251 . S
C46 H13 0.930 . S
C46 C48 1.406 . S
C46 C51 1.261 . S
C47 H14 0.930 . S
C47 N49 1.325 . S
C47 C50 1.357 . S
C48 H16 0.928 . S
C48 C46 1.406 . S
C48 N49 1.261 . S
N49 Co0 2.214 . S
N49 C47 1.325 . S
N49 C48 1.261 . S
C50 H20 0.931 . S
C50 C47 1.357 . S
C50 C51 1.312 . S
C51 H22 0.930 . S
C51 C46 1.261 . S
C51 C50 1.312 . S
C52 O24 1.214 . S
C52 O32 1.234 . S
C53 H25 0.929 . S
C53 C56 1.391 . S
C53 C58 1.391 . S
C54 H26 0.929 . S
C54 C55 1.390 . S
C54 N57 1.391 . S
C55 H27 0.930 . S
C55 C54 1.390 . S
C55 C56 1.392 . S
C56 H28 0.929 . S
C56 C53 1.391 . S
C56 C55 1.392 . S
N57 Co1 2.257 . S
N57 C54 1.391 . S
N57 C58 1.388 . S
C58 H29 0.930 . S
C58 C53 1.391 . S
C58 N57 1.388 . S
Co59 O61 2.143 . S
Co59 O67 2.074 . S
Co59 O70 2.093 . S
Co59 O83 2.097 . S
Co59 N100 2.151 . S
Co59 N108 2.214 . S
Co60 O61 2.160 . S
Co60 O66 2.058 . S
Co60 O76 2.057 . S
Co60 O91 2.037 . S
Co60 N95 2.145 . S
Co60 N116 2.257 . S
O61 Co59 2.143 . S
O61 Co60 2.160 . S
C62 O63 1.278 . S
C62 O70 1.224 . S
O63 C62 1.278 . S
C64 O65 1.245 . S
C64 O76 1.232 . S
O65 C64 1.245 . S
O66 Co60 2.058 . S
O66 C92 1.269 . S
O67 Co59 2.074 . S
O67 C92 1.257 . S
H68 C93 0.930 . S
H69 C99 0.930 . S
O70 Co59 2.093 . S
O70 C62 1.224 . S
H71 C103 0.930 . S
H72 C105 0.930 . S
H73 C106 0.930 . S
H74 C104 0.929 . S
H75 C107 0.928 . S
O76 Co60 2.057 . S
O76 C64 1.232 . S
H77 C96 0.929 . S
H78 C97 0.929 . S
H79 C109 0.931 . S
H80 C101 0.929 . S
H81 C110 0.930 . S
H82 C102 0.931 . S
O83 Co59 2.097 . S
O83 C111 1.214 . S
H84 C112 0.929 . S
H85 C113 0.929 . S
H86 C114 0.930 . S
H87 C115 0.929 . S
H88 C117 0.930 . S
H89 C94 0.930 . S
H90 C98 0.930 . S
O91 Co60 2.037 . S
O91 C111 1.234 . S
C92 O66 1.269 . S
C92 O67 1.257 . S
C93 H68 0.930 . S
C93 C96 1.388 . S
C93 C98 1.418 . S
C94 H89 0.930 . S
C94 C97 1.404 . S
C94 C98 1.353 . S
N95 Co60 2.145 . S
N95 C96 1.397 . S
N95 C97 1.334 . S
C96 H77 0.929 . S
C96 C93 1.388 . S
C96 N95 1.397 . S
C97 H78 0.929 . S
C97 C94 1.404 . S
C97 N95 1.334 . S
C98 H90 0.930 . S
C98 C93 1.418 . S
C98 C94 1.353 . S
C99 H69 0.930 . S
C99 N100 1.330 . S
C99 C101 1.446 1_545 S
N100 Co59 2.151 . S
N100 C99 1.330 . S
N100 C104 1.418 . S
C101 H80 0.929 . S
C101 C99 1.446 1_565 S
C101 C102 1.332 . S
C102 H82 0.931 . S
C102 C101 1.332 . S
C102 C103 1.267 1_565 S
C103 H71 0.930 . S
C103 C102 1.267 1_545 S
C103 C104 1.251 . S
C104 H74 0.929 . S
C104 N100 1.418 . S
C104 C103 1.251 . S
C105 H72 0.930 . S
C105 C107 1.406 . S
C105 C110 1.261 . S
C106 H73 0.930 . S
C106 N108 1.325 . S
C106 C109 1.357 . S
C107 H75 0.928 . S
C107 C105 1.406 . S
C107 N108 1.261 . S
N108 Co59 2.214 . S
N108 C106 1.325 . S
N108 C107 1.261 . S
C109 H79 0.931 . S
C109 C106 1.357 . S
C109 C110 1.312 . S
C110 H81 0.930 . S
C110 C105 1.261 . S
C110 C109 1.312 . S
C111 O83 1.214 . S
C111 O91 1.234 . S
C112 H84 0.929 . S
C112 C115 1.391 . S
C112 C117 1.391 . S
C113 H85 0.929 . S
C113 C114 1.390 . S
C113 N116 1.391 . S
C114 H86 0.930 . S
C114 C113 1.390 . S
C114 C115 1.392 . S
C115 H87 0.929 . S
C115 C112 1.391 . S
C115 C114 1.392 . S
N116 Co60 2.257 . S
N116 C113 1.391 . S
N116 C117 1.388 . S
C117 H88 0.930 . S
C117 C112 1.391 . S
C117 N116 1.388 . S
Co118 O120 2.143 . S
Co118 O126 2.074 . S
Co118 O129 2.093 . S
Co118 O142 2.097 . S
Co118 N159 2.151 . S
Co118 N167 2.214 . S
Co119 O120 2.160 . S
Co119 O125 2.058 . S
Co119 O135 2.057 . S
Co119 O150 2.037 . S
Co119 N154 2.145 . S
Co119 N175 2.257 . S
O120 Co118 2.143 . S
O120 Co119 2.160 . S
C121 O122 1.278 . S
C121 O129 1.224 . S
O122 C121 1.278 . S
C123 O124 1.245 . S
C123 O135 1.232 . S
O124 C123 1.245 . S
O125 Co119 2.058 . S
O125 C151 1.269 . S
O126 Co118 2.074 . S
O126 C151 1.257 . S
H127 C152 0.930 . S
H128 C158 0.930 . S
O129 Co118 2.093 . S
O129 C121 1.224 . S
H130 C162 0.929 . S
H131 C164 0.930 . S
H132 C165 0.930 . S
H133 C163 0.929 . S
H134 C166 0.928 . S
O135 Co119 2.057 . S
O135 C123 1.232 . S
H136 C155 0.929 . S
H137 C156 0.929 . S
H138 C168 0.931 . S
H139 C160 0.929 . S
H140 C169 0.930 . S
H141 C161 0.931 . S
O142 Co118 2.097 . S
O142 C170 1.214 . S
H143 C171 0.929 . S
H144 C172 0.929 . S
H145 C173 0.930 . S
H146 C174 0.929 . S
H147 C176 0.930 . S
H148 C153 0.930 . S
H149 C157 0.930 . S
O150 Co119 2.037 . S
O150 C170 1.234 . S
C151 O125 1.269 . S
C151 O126 1.257 . S
C152 H127 0.930 . S
C152 C155 1.388 . S
C152 C157 1.418 . S
C153 H148 0.930 . S
C153 C156 1.404 . S
C153 C157 1.353 . S
N154 Co119 2.145 . S
N154 C155 1.397 . S
N154 C156 1.334 . S
C155 H136 0.929 . S
C155 C152 1.388 . S
C155 N154 1.397 . S
C156 H137 0.929 . S
C156 C153 1.404 . S
C156 N154 1.334 . S
C157 H149 0.930 . S
C157 C152 1.418 . S
C157 C153 1.353 . S
C158 H128 0.930 . S
C158 N159 1.330 . S
C158 C160 1.446 . S
N159 Co118 2.151 . S
N159 C158 1.330 . S
N159 C163 1.418 . S
C160 H139 0.929 . S
C160 C158 1.446 . S
C160 C161 1.332 . S
C161 H141 0.931 . S
C161 C160 1.332 . S
C161 C162 1.267 . S
C162 H130 0.929 . S
C162 C161 1.267 . S
C162 C163 1.251 . S
C163 H133 0.929 . S
C163 N159 1.418 . S
C163 C162 1.251 . S
C164 H131 0.930 . S
C164 C166 1.406 . S
C164 C169 1.261 . S
C165 H132 0.930 . S
C165 N167 1.325 . S
C165 C168 1.357 . S
C166 H134 0.928 . S
C166 C164 1.406 . S
C166 N167 1.261 . S
N167 Co118 2.214 . S
N167 C165 1.325 . S
N167 C166 1.261 . S
C168 H138 0.931 . S
C168 C165 1.357 . S
C168 C169 1.312 . S
C169 H140 0.930 . S
C169 C164 1.261 . S
C169 C168 1.312 . S
C170 O142 1.214 . S
C170 O150 1.234 . S
C171 H143 0.929 . S
C171 C174 1.391 . S
C171 C176 1.391 . S
C172 H144 0.929 . S
C172 C173 1.390 . S
C172 N175 1.391 . S
C173 H145 0.930 . S
C173 C172 1.390 . S
C173 C174 1.392 . S
C174 H146 0.929 . S
C174 C171 1.391 . S
C174 C173 1.392 . S
N175 Co119 2.257 . S
N175 C172 1.391 . S
N175 C176 1.388 . S
C176 H147 0.930 . S
C176 C171 1.391 . S
C176 N175 1.388 . S
Co177 O179 2.143 . S
Co177 O185 2.074 . S
Co177 O188 2.093 . S
Co177 O201 2.097 . S
Co177 N218 2.151 . S
Co177 N226 2.214 . S
Co178 O179 2.160 . S
Co178 O184 2.058 . S
Co178 O194 2.057 . S
Co178 O209 2.037 . S
Co178 N213 2.145 . S
Co178 N234 2.257 . S
O179 Co177 2.143 . S
O179 Co178 2.160 . S
C180 O181 1.278 . S
C180 O188 1.224 . S
O181 C180 1.278 . S
C182 O183 1.245 . S
C182 O194 1.232 . S
O183 C182 1.245 . S
O184 Co178 2.058 . S
O184 C210 1.269 . S
O185 Co177 2.074 . S
O185 C210 1.257 . S
H186 C211 0.930 . S
H187 C217 0.930 . S
O188 Co177 2.093 . S
O188 C180 1.224 . S
H189 C221 0.929 . S
H190 C223 0.930 . S
H191 C224 0.930 . S
H192 C222 0.929 . S
H193 C225 0.928 . S
O194 Co178 2.057 . S
O194 C182 1.232 . S
H195 C214 0.929 . S
H196 C215 0.929 . S
H197 C227 0.931 . S
H198 C219 0.929 . S
H199 C228 0.930 . S
H200 C220 0.931 . S
O201 Co177 2.097 . S
O201 C229 1.214 . S
H202 C230 0.929 . S
H203 C231 0.929 . S
H204 C232 0.930 . S
H205 C233 0.929 . S
H206 C235 0.930 . S
H207 C212 0.930 . S
H208 C216 0.930 . S
O209 Co178 2.037 . S
O209 C229 1.234 . S
C210 O184 1.269 . S
C210 O185 1.257 . S
C211 H186 0.930 . S
C211 C214 1.388 . S
C211 C216 1.418 . S
C212 H207 0.930 . S
C212 C215 1.404 . S
C212 C216 1.353 . S
N213 Co178 2.145 . S
N213 C214 1.397 . S
N213 C215 1.334 . S
C214 H195 0.929 . S
C214 C211 1.388 . S
C214 N213 1.397 . S
C215 H196 0.929 . S
C215 C212 1.404 . S
C215 N213 1.334 . S
C216 H208 0.930 . S
C216 C211 1.418 . S
C216 C212 1.353 . S
C217 H187 0.930 . S
C217 N218 1.330 . S
C217 C219 1.446 1_655 S
N218 Co177 2.151 . S
N218 C217 1.330 . S
N218 C222 1.418 . S
C219 H198 0.929 . S
C219 C217 1.446 1_455 S
C219 C220 1.332 . S
C220 H200 0.931 . S
C220 C219 1.332 . S
C220 C221 1.267 1_455 S
C221 H189 0.929 . S
C221 C220 1.267 1_655 S
C221 C222 1.251 . S
C222 H192 0.929 . S
C222 N218 1.418 . S
C222 C221 1.251 . S
C223 H190 0.930 . S
C223 C225 1.406 . S
C223 C228 1.261 . S
C224 H191 0.930 . S
C224 N226 1.325 . S
C224 C227 1.357 . S
C225 H193 0.928 . S
C225 C223 1.406 . S
C225 N226 1.261 . S
N226 Co177 2.214 . S
N226 C224 1.325 . S
N226 C225 1.261 . S
C227 H197 0.931 . S
C227 C224 1.357 . S
C227 C228 1.312 . S
C228 H199 0.930 . S
C228 C223 1.261 . S
C228 C227 1.312 . S
C229 O201 1.214 . S
C229 O209 1.234 . S
C230 H202 0.929 . S
C230 C233 1.391 . S
C230 C235 1.391 . S
C231 H203 0.929 . S
C231 C232 1.390 . S
C231 N234 1.391 . S
C232 H204 0.930 . S
C232 C231 1.390 . S
C232 C233 1.392 . S
C233 H205 0.929 . S
C233 C230 1.391 . S
C233 C232 1.392 . S
N234 Co178 2.257 . S
N234 C231 1.391 . S
N234 C235 1.388 . S
C235 H206 0.930 . S
C235 C230 1.391 . S
C235 N234 1.388 . S
Co236 O238 2.143 . S
Co236 O244 2.074 . S
Co236 O247 2.093 . S
Co236 O260 2.097 . S
Co236 N277 2.151 . S
Co236 N285 2.214 . S
Co237 O238 2.160 . S
Co237 O243 2.058 . S
Co237 O253 2.057 . S
Co237 O268 2.037 . S
Co237 N272 2.145 . S
Co237 N293 2.257 . S
O238 Co236 2.143 . S
O238 Co237 2.160 . S
C239 O240 1.278 . S
C239 O247 1.224 . S
O240 C239 1.278 . S
C241 O242 1.245 . S
C241 O253 1.232 . S
O242 C241 1.245 . S
O243 Co237 2.058 . S
O243 C269 1.269 . S
O244 Co236 2.074 . S
O244 C269 1.257 . S
H245 C270 0.930 . S
H246 C276 0.930 . S
O247 Co236 2.093 . S
O247 C239 1.224 . S
H248 C280 0.931 . S
H249 C282 0.930 . S
H250 C283 0.930 . S
H251 C281 0.929 . S
H252 C284 0.928 . S
O253 Co237 2.057 . S
O253 C241 1.232 . S
H254 C273 0.929 . S
H255 C274 0.929 . S
H256 C286 0.931 . S
H257 C278 0.929 . S
H258 C287 0.930 . S
H259 C279 0.931 . S
O260 Co236 2.097 . S
O260 C288 1.214 . S
H261 C289 0.929 . S
H262 C290 0.929 . S
H263 C291 0.930 . S
H264 C292 0.929 . S
H265 C294 0.930 . S
H266 C271 0.930 . S
H267 C275 0.930 . S
O268 Co237 2.037 . S
O268 C288 1.234 . S
C269 O243 1.269 . S
C269 O244 1.257 . S
C270 H245 0.930 . S
C270 C273 1.388 . S
C270 C275 1.418 . S
C271 H266 0.930 . S
C271 C274 1.404 . S
C271 C275 1.353 . S
N272 Co237 2.145 . S
N272 C273 1.397 . S
N272 C274 1.334 . S
C273 H254 0.929 . S
C273 C270 1.388 . S
C273 N272 1.397 . S
C274 H255 0.929 . S
C274 C271 1.404 . S
C274 N272 1.334 . S
C275 H267 0.930 . S
C275 C270 1.418 . S
C275 C271 1.353 . S
C276 H246 0.930 . S
C276 N277 1.330 . S
C276 C278 1.446 1_565 S
N277 Co236 2.151 . S
N277 C276 1.330 . S
N277 C281 1.418 . S
C278 H257 0.929 . S
C278 C276 1.446 1_545 S
C278 C279 1.332 . S
C279 H259 0.931 . S
C279 C278 1.332 . S
C279 C280 1.267 1_545 S
C280 H248 0.931 . S
C280 C279 1.267 1_565 S
C280 C281 1.251 . S
C281 H251 0.929 . S
C281 N277 1.418 . S
C281 C280 1.251 . S
C282 H249 0.930 . S
C282 C284 1.406 . S
C282 C287 1.261 . S
C283 H250 0.930 . S
C283 N285 1.325 . S
C283 C286 1.357 . S
C284 H252 0.928 . S
C284 C282 1.406 . S
C284 N285 1.261 . S
N285 Co236 2.214 . S
N285 C283 1.325 . S
N285 C284 1.261 . S
C286 H256 0.931 . S
C286 C283 1.357 . S
C286 C287 1.312 . S
C287 H258 0.930 . S
C287 C282 1.261 . S
C287 C286 1.312 . S
C288 O260 1.214 . S
C288 O268 1.234 . S
C289 H261 0.929 . S
C289 C292 1.391 . S
C289 C294 1.391 . S
C290 H262 0.929 . S
C290 C291 1.390 . S
C290 N293 1.391 . S
C291 H263 0.930 . S
C291 C290 1.390 . S
C291 C292 1.392 . S
C292 H264 0.929 . S
C292 C289 1.391 . S
C292 C291 1.392 . S
N293 Co237 2.257 . S
N293 C290 1.391 . S
N293 C294 1.388 . S
C294 H265 0.930 . S
C294 C289 1.391 . S
C294 N293 1.388 . S
Co295 O297 2.143 . S
Co295 O303 2.074 . S
Co295 O306 2.093 . S
Co295 O319 2.097 . S
Co295 N336 2.151 . S
Co295 N344 2.214 . S
Co296 O297 2.160 . S
Co296 O302 2.058 . S
Co296 O312 2.057 . S
Co296 O327 2.037 . S
Co296 N331 2.145 . S
Co296 N352 2.257 . S
O297 Co295 2.143 . S
O297 Co296 2.160 . S
C298 O299 1.278 . S
C298 O306 1.224 . S
O299 C298 1.278 . S
C300 O301 1.245 . S
C300 O312 1.232 . S
O301 C300 1.245 . S
O302 Co296 2.058 . S
O302 C328 1.269 . S
O303 Co295 2.074 . S
O303 C328 1.257 . S
H304 C329 0.930 . S
H305 C335 0.930 . S
O306 Co295 2.093 . S
O306 C298 1.224 . S
H307 C339 0.929 . S
H308 C341 0.930 . S
H309 C342 0.930 . S
H310 C340 0.929 . S
H311 C343 0.928 . S
O312 Co296 2.057 . S
O312 C300 1.232 . S
H313 C332 0.929 . S
H314 C333 0.929 . S
H315 C345 0.931 . S
H316 C337 0.929 . S
H317 C346 0.930 . S
H318 C338 0.931 . S
O319 Co295 2.097 . S
O319 C347 1.214 . S
H320 C348 0.929 . S
H321 C349 0.929 . S
H322 C350 0.930 . S
H323 C351 0.929 . S
H324 C353 0.930 . S
H325 C330 0.930 . S
H326 C334 0.930 . S
O327 Co296 2.037 . S
O327 C347 1.234 . S
C328 O302 1.269 . S
C328 O303 1.257 . S
C329 H304 0.930 . S
C329 C332 1.388 . S
C329 C334 1.418 . S
C330 H325 0.930 . S
C330 C333 1.404 . S
C330 C334 1.353 . S
N331 Co296 2.145 . S
N331 C332 1.397 . S
N331 C333 1.334 . S
C332 H313 0.929 . S
C332 C329 1.388 . S
C332 N331 1.397 . S
C333 H314 0.929 . S
C333 C330 1.404 . S
C333 N331 1.334 . S
C334 H326 0.930 . S
C334 C329 1.418 . S
C334 C330 1.353 . S
C335 H305 0.930 . S
C335 N336 1.330 . S
C335 C337 1.446 . S
N336 Co295 2.151 . S
N336 C335 1.330 . S
N336 C340 1.418 . S
C337 H316 0.929 . S
C337 C335 1.446 . S
C337 C338 1.332 . S
C338 H318 0.931 . S
C338 C337 1.332 . S
C338 C339 1.267 . S
C339 H307 0.929 . S
C339 C338 1.267 . S
C339 C340 1.251 . S
C340 H310 0.929 . S
C340 N336 1.418 . S
C340 C339 1.251 . S
C341 H308 0.930 . S
C341 C343 1.406 . S
C341 C346 1.261 . S
C342 H309 0.930 . S
C342 N344 1.325 . S
C342 C345 1.357 . S
C343 H311 0.928 . S
C343 C341 1.406 . S
C343 N344 1.261 . S
N344 Co295 2.214 . S
N344 C342 1.325 . S
N344 C343 1.261 . S
C345 H315 0.931 . S
C345 C342 1.357 . S
C345 C346 1.312 . S
C346 H317 0.930 . S
C346 C341 1.261 . S
C346 C345 1.312 . S
C347 O319 1.214 . S
C347 O327 1.234 . S
C348 H320 0.929 . S
C348 C351 1.391 . S
C348 C353 1.391 1_554 S
C349 H321 0.929 . S
C349 C350 1.390 1_556 S
C349 N352 1.391 . S
C350 H322 0.930 . S
C350 C349 1.390 1_554 S
C350 C351 1.392 . S
C351 H323 0.929 . S
C351 C348 1.391 . S
C351 C350 1.392 . S
N352 Co296 2.257 . S
N352 C349 1.391 . S
N352 C353 1.388 . S
C353 H324 0.930 . S
C353 C348 1.391 1_556 S
C353 N352 1.388 . S
Co354 O356 2.143 . S
Co354 O362 2.074 . S
Co354 O365 2.093 . S
Co354 O378 2.097 . S
Co354 N395 2.151 . S
Co354 N403 2.214 . S
Co355 O356 2.160 . S
Co355 O361 2.058 . S
Co355 O371 2.057 . S
Co355 O386 2.037 . S
Co355 N390 2.145 . S
Co355 N411 2.257 . S
O356 Co354 2.143 . S
O356 Co355 2.160 . S
C357 O358 1.278 . S
C357 O365 1.224 . S
O358 C357 1.278 . S
C359 O360 1.245 . S
C359 O371 1.232 . S
O360 C359 1.245 . S
O361 Co355 2.058 . S
O361 C387 1.269 . S
O362 Co354 2.074 . S
O362 C387 1.257 . S
H363 C388 0.930 . S
H364 C394 0.930 . S
O365 Co354 2.093 . S
O365 C357 1.224 . S
H366 C398 0.929 . S
H367 C400 0.930 . S
H368 C401 0.930 . S
H369 C399 0.929 . S
H370 C402 0.928 . S
O371 Co355 2.057 . S
O371 C359 1.232 . S
H372 C391 0.929 . S
H373 C392 0.929 . S
H374 C404 0.931 . S
H375 C396 0.929 . S
H376 C405 0.930 . S
H377 C397 0.931 . S
O378 Co354 2.097 . S
O378 C406 1.214 . S
H379 C407 0.929 . S
H380 C408 0.929 . S
H381 C409 0.930 . S
H382 C410 0.929 . S
H383 C412 0.930 . S
H384 C389 0.930 . S
H385 C393 0.930 . S
O386 Co355 2.037 . S
O386 C406 1.234 . S
C387 O361 1.269 . S
C387 O362 1.257 . S
C388 H363 0.930 . S
C388 C391 1.388 . S
C388 C393 1.418 . S
C389 H384 0.930 . S
C389 C392 1.404 . S
C389 C393 1.353 . S
N390 Co355 2.145 . S
N390 C391 1.397 . S
N390 C392 1.334 . S
C391 H372 0.929 . S
C391 C388 1.388 . S
C391 N390 1.397 . S
C392 H373 0.929 . S
C392 C389 1.404 . S
C392 N390 1.334 . S
C393 H385 0.930 . S
C393 C388 1.418 . S
C393 C389 1.353 . S
C394 H364 0.930 . S
C394 N395 1.330 . S
C394 C396 1.446 1_565 S
N395 Co354 2.151 . S
N395 C394 1.330 . S
N395 C399 1.418 . S
C396 H375 0.929 . S
C396 C394 1.446 1_545 S
C396 C397 1.332 . S
C397 H377 0.931 . S
C397 C396 1.332 . S
C397 C398 1.267 1_545 S
C398 H366 0.929 . S
C398 C397 1.267 1_565 S
C398 C399 1.251 . S
C399 H369 0.929 . S
C399 N395 1.418 . S
C399 C398 1.251 . S
C400 H367 0.930 . S
C400 C402 1.406 . S
C400 C405 1.261 . S
C401 H368 0.930 . S
C401 N403 1.325 . S
C401 C404 1.357 . S
C402 H370 0.928 . S
C402 C400 1.406 . S
C402 N403 1.261 . S
N403 Co354 2.214 . S
N403 C401 1.325 . S
N403 C402 1.261 . S
C404 H374 0.931 . S
C404 C401 1.357 . S
C404 C405 1.312 . S
C405 H376 0.930 . S
C405 C400 1.261 . S
C405 C404 1.312 . S
C406 O378 1.214 . S
C406 O386 1.234 . S
C407 H379 0.929 . S
C407 C410 1.391 . S
C407 C412 1.391 . S
C408 H380 0.929 . S
C408 C409 1.390 . S
C408 N411 1.391 . S
C409 H381 0.930 . S
C409 C408 1.390 . S
C409 C410 1.392 . S
C410 H382 0.929 . S
C410 C407 1.391 . S
C410 C409 1.392 . S
N411 Co355 2.257 . S
N411 C408 1.391 . S
N411 C412 1.388 . S
C412 H383 0.930 . S
C412 C407 1.391 . S
C412 N411 1.388 . S
Co413 O415 2.143 . S
Co413 O421 2.074 . S
Co413 O424 2.093 . S
Co413 O437 2.097 . S
Co413 N454 2.151 . S
Co413 N462 2.214 . S
Co414 O415 2.160 . S
Co414 O420 2.058 . S
Co414 O430 2.057 . S
Co414 O445 2.037 . S
Co414 N449 2.145 . S
Co414 N470 2.257 . S
O415 Co413 2.143 . S
O415 Co414 2.160 . S
C416 O417 1.278 . S
C416 O424 1.224 . S
O417 C416 1.278 . S
C418 O419 1.245 . S
C418 O430 1.232 . S
O419 C418 1.245 . S
O420 Co414 2.058 . S
O420 C446 1.269 . S
O421 Co413 2.074 . S
O421 C446 1.257 . S
H422 C447 0.930 . S
H423 C453 0.930 . S
O424 Co413 2.093 . S
O424 C416 1.224 . S
H425 C457 0.929 . S
H426 C459 0.930 . S
H427 C460 0.930 . S
H428 C458 0.929 . S
H429 C461 0.928 . S
O430 Co414 2.057 . S
O430 C418 1.232 . S
H431 C450 0.929 . S
H432 C451 0.929 . S
H433 C463 0.931 . S
H434 C455 0.929 . S
H435 C464 0.930 . S
H436 C456 0.931 . S
O437 Co413 2.097 . S
O437 C465 1.214 . S
H438 C466 0.929 . S
H439 C467 0.929 . S
H440 C468 0.930 . S
H441 C469 0.929 . S
H442 C471 0.930 . S
H443 C448 0.930 . S
H444 C452 0.930 . S
O445 Co414 2.037 . S
O445 C465 1.234 . S
C446 O420 1.269 . S
C446 O421 1.257 . S
C447 H422 0.930 . S
C447 C450 1.388 . S
C447 C452 1.418 . S
C448 H443 0.930 . S
C448 C451 1.404 . S
C448 C452 1.353 . S
N449 Co414 2.145 . S
N449 C450 1.397 . S
N449 C451 1.334 . S
C450 H431 0.929 . S
C450 C447 1.388 . S
C450 N449 1.397 . S
C451 H432 0.929 . S
C451 C448 1.404 . S
C451 N449 1.334 . S
C452 H444 0.930 . S
C452 C447 1.418 . S
C452 C448 1.353 . S
C453 H423 0.930 . S
C453 N454 1.330 . S
C453 C455 1.446 . S
N454 Co413 2.151 . S
N454 C453 1.330 . S
N454 C458 1.418 . S
C455 H434 0.929 . S
C455 C453 1.446 . S
C455 C456 1.332 . S
C456 H436 0.931 . S
C456 C455 1.332 . S
C456 C457 1.267 . S
C457 H425 0.929 . S
C457 C456 1.267 . S
C457 C458 1.251 . S
C458 H428 0.929 . S
C458 N454 1.418 . S
C458 C457 1.251 . S
C459 H426 0.930 . S
C459 C461 1.406 . S
C459 C464 1.261 . S
C460 H427 0.930 . S
C460 N462 1.325 . S
C460 C463 1.357 . S
C461 H429 0.928 . S
C461 C459 1.406 . S
C461 N462 1.261 . S
N462 Co413 2.214 . S
N462 C460 1.325 . S
N462 C461 1.261 . S
C463 H433 0.931 . S
C463 C460 1.357 . S
C463 C464 1.312 . S
C464 H435 0.930 . S
C464 C459 1.261 . S
C464 C463 1.312 . S
C465 O437 1.214 . S
C465 O445 1.234 . S
C466 H438 0.929 . S
C466 C469 1.391 . S
C466 C471 1.391 . S
C467 H439 0.929 . S
C467 C468 1.390 . S
C467 N470 1.391 . S
C468 H440 0.930 . S
C468 C467 1.390 . S
C468 C469 1.392 . S
C469 H441 0.929 . S
C469 C466 1.391 . S
C469 C468 1.392 . S
N470 Co414 2.257 . S
N470 C467 1.391 . S
N470 C471 1.388 . S
C471 H442 0.930 . S
C471 C466 1.391 . S
C471 N470 1.388 . S
Co472 O474 2.143 . S
Co472 O480 2.074 . S
Co472 O483 2.093 . S
Co472 O496 2.097 . S
Co472 N513 2.151 . S
Co472 N521 2.214 . S
Co473 O474 2.160 . S
Co473 O479 2.058 . S
Co473 O489 2.057 . S
Co473 O504 2.037 . S
Co473 N508 2.145 . S
Co473 N529 2.257 . S
O474 Co472 2.143 . S
O474 Co473 2.160 . S
C475 O476 1.278 . S
C475 O483 1.224 . S
O476 C475 1.278 . S
C477 O478 1.245 . S
C477 O489 1.232 . S
O478 C477 1.245 . S
O479 Co473 2.058 . S
O479 C505 1.269 . S
O480 Co472 2.074 . S
O480 C505 1.257 . S
H481 C506 0.930 . S
H482 C512 0.930 . S
O483 Co472 2.093 . S
O483 C475 1.224 . S
H484 C516 0.930 . S
H485 C518 0.930 . S
H486 C519 0.930 . S
H487 C517 0.929 . S
H488 C520 0.928 . S
O489 Co473 2.057 . S
O489 C477 1.232 . S
H490 C509 0.929 . S
H491 C510 0.929 . S
H492 C522 0.931 . S
H493 C514 0.929 . S
H494 C523 0.930 . S
H495 C515 0.931 . S
O496 Co472 2.097 . S
O496 C524 1.214 . S
H497 C525 0.929 . S
H498 C526 0.929 . S
H499 C527 0.930 . S
H500 C528 0.929 . S
H501 C530 0.930 . S
H502 C507 0.930 . S
H503 C511 0.930 . S
O504 Co473 2.037 . S
O504 C524 1.234 . S
C505 O479 1.269 . S
C505 O480 1.257 . S
C506 H481 0.930 . S
C506 C509 1.388 . S
C506 C511 1.418 . S
C507 H502 0.930 . S
C507 C510 1.404 . S
C507 C511 1.353 . S
N508 Co473 2.145 . S
N508 C509 1.397 . S
N508 C510 1.334 . S
C509 H490 0.929 . S
C509 C506 1.388 . S
C509 N508 1.397 . S
C510 H491 0.929 . S
C510 C507 1.404 . S
C510 N508 1.334 . S
C511 H503 0.930 . S
C511 C506 1.418 . S
C511 C507 1.353 . S
C512 H482 0.930 . S
C512 N513 1.330 . S
C512 C514 1.446 1_455 S
N513 Co472 2.151 . S
N513 C512 1.330 . S
N513 C517 1.418 . S
C514 H493 0.929 . S
C514 C512 1.446 1_655 S
C514 C515 1.332 . S
C515 H495 0.931 . S
C515 C514 1.332 . S
C515 C516 1.267 1_655 S
C516 H484 0.930 . S
C516 C515 1.267 1_455 S
C516 C517 1.251 . S
C517 H487 0.929 . S
C517 N513 1.418 . S
C517 C516 1.251 . S
C518 H485 0.930 . S
C518 C520 1.406 . S
C518 C523 1.261 . S
C519 H486 0.930 . S
C519 N521 1.325 . S
C519 C522 1.357 . S
C520 H488 0.928 . S
C520 C518 1.406 . S
C520 N521 1.261 . S
N521 Co472 2.214 . S
N521 C519 1.325 . S
N521 C520 1.261 . S
C522 H492 0.931 . S
C522 C519 1.357 . S
C522 C523 1.312 . S
C523 H494 0.930 . S
C523 C518 1.261 . S
C523 C522 1.312 . S
C524 O496 1.214 . S
C524 O504 1.234 . S
C525 H497 0.929 . S
C525 C528 1.391 . S
C525 C530 1.391 1_556 S
C526 H498 0.929 . S
C526 C527 1.390 1_554 S
C526 N529 1.391 . S
C527 H499 0.930 . S
C527 C526 1.390 1_556 S
C527 C528 1.392 . S
C528 H500 0.929 . S
C528 C525 1.391 . S
C528 C527 1.392 . S
N529 Co473 2.257 . S
N529 C526 1.391 . S
N529 C530 1.388 . S
C530 H501 0.930 . S
C530 C525 1.391 1_554 S
C530 N529 1.388 . S
Co531 O533 2.143 . S
Co531 O539 2.074 . S
Co531 O542 2.093 . S
Co531 O555 2.097 . S
Co531 N572 2.151 . S
Co531 N580 2.214 . S
Co532 O533 2.160 . S
Co532 O538 2.058 . S
Co532 O548 2.057 . S
Co532 O563 2.037 . S
Co532 N567 2.145 . S
Co532 N588 2.257 . S
O533 Co531 2.143 . S
O533 Co532 2.160 . S
C534 O535 1.278 . S
C534 O542 1.224 . S
O535 C534 1.278 . S
C536 O537 1.245 . S
C536 O548 1.232 . S
O537 C536 1.245 . S
O538 Co532 2.058 . S
O538 C564 1.269 . S
O539 Co531 2.074 . S
O539 C564 1.257 . S
H540 C565 0.930 . S
H541 C571 0.930 . S
O542 Co531 2.093 . S
O542 C534 1.224 . S
H543 C575 0.929 . S
H544 C577 0.930 . S
H545 C578 0.930 . S
H546 C576 0.929 . S
H547 C579 0.928 . S
O548 Co532 2.057 . S
O548 C536 1.232 . S
H549 C568 0.929 . S
H550 C569 0.929 . S
H551 C581 0.931 . S
H552 C573 0.929 . S
H553 C582 0.930 . S
H554 C574 0.931 . S
O555 Co531 2.097 . S
O555 C583 1.214 . S
H556 C584 0.929 . S
H557 C585 0.929 . S
H558 C586 0.930 . S
H559 C587 0.929 . S
H560 C589 0.930 . S
H561 C566 0.930 . S
H562 C570 0.930 . S
O563 Co532 2.037 . S
O563 C583 1.234 . S
C564 O538 1.269 . S
C564 O539 1.257 . S
C565 H540 0.930 . S
C565 C568 1.388 . S
C565 C570 1.418 . S
C566 H561 0.930 . S
C566 C569 1.404 . S
C566 C570 1.353 . S
N567 Co532 2.145 . S
N567 C568 1.397 . S
N567 C569 1.334 . S
C568 H549 0.929 . S
C568 C565 1.388 . S
C568 N567 1.397 . S
C569 H550 0.929 . S
C569 C566 1.404 . S
C569 N567 1.334 . S
C570 H562 0.930 . S
C570 C565 1.418 . S
C570 C566 1.353 . S
C571 H541 0.930 . S
C571 N572 1.330 . S
C571 C573 1.446 1_545 S
N572 Co531 2.151 . S
N572 C571 1.330 . S
N572 C576 1.418 . S
C573 H552 0.929 . S
C573 C571 1.446 1_565 S
C573 C574 1.332 . S
C574 H554 0.931 . S
C574 C573 1.332 . S
C574 C575 1.267 1_565 S
C575 H543 0.929 . S
C575 C574 1.267 1_545 S
C575 C576 1.251 . S
C576 H546 0.929 . S
C576 N572 1.418 . S
C576 C575 1.251 . S
C577 H544 0.930 . S
C577 C579 1.406 . S
C577 C582 1.261 . S
C578 H545 0.930 . S
C578 N580 1.325 . S
C578 C581 1.357 . S
C579 H547 0.928 . S
C579 C577 1.406 . S
C579 N580 1.261 . S
N580 Co531 2.214 . S
N580 C578 1.325 . S
N580 C579 1.261 . S
C581 H551 0.931 . S
C581 C578 1.357 . S
C581 C582 1.312 . S
C582 H553 0.930 . S
C582 C577 1.261 . S
C582 C581 1.312 . S
C583 O555 1.214 . S
C583 O563 1.234 . S
C584 H556 0.929 . S
C584 C587 1.391 . S
C584 C589 1.391 . S
C585 H557 0.929 . S
C585 C586 1.390 . S
C585 N588 1.391 . S
C586 H558 0.930 . S
C586 C585 1.390 . S
C586 C587 1.392 . S
C587 H559 0.929 . S
C587 C584 1.391 . S
C587 C586 1.392 . S
N588 Co532 2.257 . S
N588 C585 1.391 . S
N588 C589 1.388 . S
C589 H560 0.930 . S
C589 C584 1.391 . S
C589 N588 1.388 . S
Co590 O592 2.143 . S
Co590 O598 2.074 . S
Co590 O601 2.093 . S
Co590 O614 2.097 . S
Co590 N631 2.151 . S
Co590 N639 2.214 . S
Co591 O592 2.160 . S
Co591 O597 2.058 . S
Co591 O607 2.057 . S
Co591 O622 2.037 . S
Co591 N626 2.145 . S
Co591 N647 2.257 . S
O592 Co590 2.143 . S
O592 Co591 2.160 . S
C593 O594 1.278 . S
C593 O601 1.224 . S
O594 C593 1.278 . S
C595 O596 1.245 . S
C595 O607 1.232 . S
O596 C595 1.245 . S
O597 Co591 2.058 . S
O597 C623 1.269 . S
O598 Co590 2.074 . S
O598 C623 1.257 . S
H599 C624 0.930 . S
H600 C630 0.930 . S
O601 Co590 2.093 . S
O601 C593 1.224 . S
H602 C634 0.929 . S
H603 C636 0.930 . S
H604 C637 0.930 . S
H605 C635 0.929 . S
H606 C638 0.928 . S
O607 Co591 2.057 . S
O607 C595 1.232 . S
H608 C627 0.929 . S
H609 C628 0.929 . S
H610 C640 0.931 . S
H611 C632 0.929 . S
H612 C641 0.930 . S
H613 C633 0.931 . S
O614 Co590 2.097 . S
O614 C642 1.214 . S
H615 C643 0.929 . S
H616 C644 0.929 . S
H617 C645 0.930 . S
H618 C646 0.929 . S
H619 C648 0.930 . S
H620 C625 0.930 . S
H621 C629 0.930 . S
O622 Co591 2.037 . S
O622 C642 1.234 . S
C623 O597 1.269 . S
C623 O598 1.257 . S
C624 H599 0.930 . S
C624 C627 1.388 . S
C624 C629 1.418 . S
C625 H620 0.930 . S
C625 C628 1.404 . S
C625 C629 1.353 . S
N626 Co591 2.145 . S
N626 C627 1.397 . S
N626 C628 1.334 . S
C627 H608 0.929 . S
C627 C624 1.388 . S
C627 N626 1.397 . S
C628 H609 0.929 . S
C628 C625 1.404 . S
C628 N626 1.334 . S
C629 H621 0.930 . S
C629 C624 1.418 . S
C629 C625 1.353 . S
C630 H600 0.930 . S
C630 N631 1.330 . S
C630 C632 1.446 . S
N631 Co590 2.151 . S
N631 C630 1.330 . S
N631 C635 1.418 . S
C632 H611 0.929 . S
C632 C630 1.446 . S
C632 C633 1.332 . S
C633 H613 0.931 . S
C633 C632 1.332 . S
C633 C634 1.267 . S
C634 H602 0.929 . S
C634 C633 1.267 . S
C634 C635 1.251 . S
C635 H605 0.929 . S
C635 N631 1.418 . S
C635 C634 1.251 . S
C636 H603 0.930 . S
C636 C638 1.406 . S
C636 C641 1.261 . S
C637 H604 0.930 . S
C637 N639 1.325 . S
C637 C640 1.357 . S
C638 H606 0.928 . S
C638 C636 1.406 . S
C638 N639 1.261 . S
N639 Co590 2.214 . S
N639 C637 1.325 . S
N639 C638 1.261 . S
C640 H610 0.931 . S
C640 C637 1.357 . S
C640 C641 1.312 . S
C641 H612 0.930 . S
C641 C636 1.261 . S
C641 C640 1.312 . S
C642 O614 1.214 . S
C642 O622 1.234 . S
C643 H615 0.929 . S
C643 C646 1.391 . S
C643 C648 1.391 . S
C644 H616 0.929 . S
C644 C645 1.390 . S
C644 N647 1.391 . S
C645 H617 0.930 . S
C645 C644 1.390 . S
C645 C646 1.392 . S
C646 H618 0.929 . S
C646 C643 1.391 . S
C646 C645 1.392 . S
N647 Co591 2.257 . S
N647 C644 1.391 . S
N647 C648 1.388 . S
C648 H619 0.930 . S
C648 C643 1.391 . S
C648 N647 1.388 . S
Co649 O651 2.143 . S
Co649 O657 2.074 . S
Co649 O660 2.093 . S
Co649 O673 2.097 . S
Co649 N690 2.151 . S
Co649 N698 2.214 . S
Co650 O651 2.160 . S
Co650 O656 2.058 . S
Co650 O666 2.057 . S
Co650 O681 2.037 . S
Co650 N685 2.145 . S
Co650 N706 2.257 . S
O651 Co649 2.143 . S
O651 Co650 2.160 . S
C652 O653 1.278 . S
C652 O660 1.224 . S
O653 C652 1.278 . S
C654 O655 1.245 . S
C654 O666 1.232 . S
O655 C654 1.245 . S
O656 Co650 2.058 . S
O656 C682 1.269 . S
O657 Co649 2.074 . S
O657 C682 1.257 . S
H658 C683 0.930 . S
H659 C689 0.930 . S
O660 Co649 2.093 . S
O660 C652 1.224 . S
H661 C693 0.930 . S
H662 C695 0.930 . S
H663 C696 0.930 . S
H664 C694 0.929 . S
H665 C697 0.928 . S
O666 Co650 2.057 . S
O666 C654 1.232 . S
H667 C686 0.929 . S
H668 C687 0.929 . S
H669 C699 0.931 . S
H670 C691 0.929 . S
H671 C700 0.930 . S
H672 C692 0.931 . S
O673 Co649 2.097 . S
O673 C701 1.214 . S
H674 C702 0.929 . S
H675 C703 0.929 . S
H676 C704 0.930 . S
H677 C705 0.929 . S
H678 C707 0.930 . S
H679 C684 0.930 . S
H680 C688 0.930 . S
O681 Co650 2.037 . S
O681 C701 1.234 . S
C682 O656 1.269 . S
C682 O657 1.257 . S
C683 H658 0.930 . S
C683 C686 1.388 . S
C683 C688 1.418 . S
C684 H679 0.930 . S
C684 C687 1.404 . S
C684 C688 1.353 . S
N685 Co650 2.145 . S
N685 C686 1.397 . S
N685 C687 1.334 . S
C686 H667 0.929 . S
C686 C683 1.388 . S
C686 N685 1.397 . S
C687 H668 0.929 . S
C687 C684 1.404 . S
C687 N685 1.334 . S
C688 H680 0.930 . S
C688 C683 1.418 . S
C688 C684 1.353 . S
C689 H659 0.930 . S
C689 N690 1.330 . S
C689 C691 1.446 1_655 S
N690 Co649 2.151 . S
N690 C689 1.330 . S
N690 C694 1.418 . S
C691 H670 0.929 . S
C691 C689 1.446 1_455 S
C691 C692 1.332 . S
C692 H672 0.931 . S
C692 C691 1.332 . S
C692 C693 1.267 1_455 S
C693 H661 0.930 . S
C693 C692 1.267 1_655 S
C693 C694 1.251 . S
C694 H664 0.929 . S
C694 N690 1.418 . S
C694 C693 1.251 . S
C695 H662 0.930 . S
C695 C697 1.406 . S
C695 C700 1.261 . S
C696 H663 0.930 . S
C696 N698 1.325 . S
C696 C699 1.357 . S
C697 H665 0.928 . S
C697 C695 1.406 . S
C697 N698 1.261 . S
N698 Co649 2.214 . S
N698 C696 1.325 . S
N698 C697 1.261 . S
C699 H669 0.931 . S
C699 C696 1.357 . S
C699 C700 1.312 . S
C700 H671 0.930 . S
C700 C695 1.261 . S
C700 C699 1.312 . S
C701 O673 1.214 . S
C701 O681 1.234 . S
C702 H674 0.929 . S
C702 C705 1.391 . S
C702 C707 1.391 . S
C703 H675 0.929 . S
C703 C704 1.390 . S
C703 N706 1.391 . S
C704 H676 0.930 . S
C704 C703 1.390 . S
C704 C705 1.392 . S
C705 H677 0.929 . S
C705 C702 1.391 . S
C705 C704 1.392 . S
N706 Co650 2.257 . S
N706 C703 1.391 . S
N706 C707 1.388 . S
C707 H678 0.930 . S
C707 C702 1.391 . S
C707 N706 1.388 . S
H708 C716 0.950 . S
H709 C721 0.950 . S
H710 C718 0.950 . S
H711 C720 0.950 . S
H712 C722 0.950 . S
H713 C724 0.950 . S
H714 C726 0.950 . S
H715 C727 0.950 . S
C716 H708 0.950 . S
C716 C717 1.386 . S
C716 C718 1.391 . S
C717 C716 1.386 . S
C717 C721 1.393 . S
C718 H710 0.950 . S
C718 C716 1.391 . S
C718 C719 1.400 . S
C719 C718 1.400 . S
C719 C720 1.398 . S
C719 C725 1.491 . S
C720 H711 0.950 . S
C720 C719 1.398 . S
C720 C721 1.391 . S
C721 H709 0.950 . S
C721 C717 1.393 . S
C721 C720 1.391 . S
C722 H712 0.950 . S
C722 C723 1.386 . S
C722 C724 1.391 . S
C723 C722 1.386 . S
C723 C727 1.393 . S
C724 H713 0.950 . S
C724 C722 1.391 . S
C724 C725 1.400 . S
C725 C719 1.491 . S
C725 C724 1.400 . S
C725 C726 1.398 . S
C726 H714 0.950 . S
C726 C725 1.398 . S
C726 C727 1.391 . S
C727 H715 0.950 . S
C727 C723 1.393 . S
C727 C726 1.391 . S
H728 C736 0.950 . S
H729 C741 0.950 . S
H730 C738 0.950 . S
H731 C740 0.950 . S
H732 C742 0.950 . S
H733 C744 0.950 . S
H734 C746 0.950 . S
H735 C747 0.950 . S
C736 H728 0.950 . S
C736 C737 1.386 . S
C736 C738 1.391 . S
C737 C736 1.386 . S
C737 C741 1.393 . S
C738 H730 0.950 . S
C738 C736 1.391 . S
C738 C739 1.400 . S
C739 C738 1.400 . S
C739 C740 1.398 . S
C739 C745 1.491 . S
C740 H731 0.950 . S
C740 C739 1.398 . S
C740 C741 1.391 . S
C741 H729 0.950 . S
C741 C737 1.393 . S
C741 C740 1.391 . S
C742 H732 0.950 . S
C742 C743 1.386 . S
C742 C744 1.391 . S
C743 C742 1.386 . S
C743 C747 1.393 . S
C744 H733 0.950 . S
C744 C742 1.391 . S
C744 C745 1.400 . S
C745 C739 1.491 . S
C745 C744 1.400 . S
C745 C746 1.398 . S
C746 H734 0.950 . S
C746 C745 1.398 . S
C746 C747 1.391 . S
C747 H735 0.950 . S
C747 C743 1.393 . S
C747 C746 1.391 . S
H748 C756 0.950 . S
H749 C761 0.950 . S
H750 C758 0.950 . S
H751 C760 0.950 . S
H752 C762 0.950 . S
H753 C764 0.950 . S
H754 C766 0.950 . S
H755 C767 0.950 . S
C756 H748 0.950 . S
C756 C757 1.386 . S
C756 C758 1.391 . S
C757 C756 1.386 . S
C757 C761 1.393 . S
C758 H750 0.950 . S
C758 C756 1.391 . S
C758 C759 1.400 . S
C759 C758 1.400 . S
C759 C760 1.398 . S
C759 C765 1.491 . S
C760 H751 0.950 . S
C760 C759 1.398 . S
C760 C761 1.391 . S
C761 H749 0.950 . S
C761 C757 1.393 . S
C761 C760 1.391 . S
C762 H752 0.950 . S
C762 C763 1.386 . S
C762 C764 1.391 . S
C763 C762 1.386 . S
C763 C767 1.393 . S
C764 H753 0.950 . S
C764 C762 1.391 . S
C764 C765 1.400 . S
C765 C759 1.491 . S
C765 C764 1.400 . S
C765 C766 1.398 . S
C766 H754 0.950 . S
C766 C765 1.398 . S
C766 C767 1.391 . S
C767 H755 0.950 . S
C767 C763 1.393 . S
C767 C766 1.391 . S
H768 C776 0.950 . S
H769 C781 0.950 . S
H770 C778 0.950 . S
H771 C780 0.950 . S
H772 C782 0.950 . S
H773 C784 0.950 . S
H774 C786 0.950 . S
H775 C787 0.950 . S
C776 H768 0.950 . S
C776 C777 1.386 . S
C776 C778 1.391 . S
C777 C776 1.386 . S
C777 C781 1.393 . S
C778 H770 0.950 . S
C778 C776 1.391 . S
C778 C779 1.400 . S
C779 C778 1.400 . S
C779 C780 1.398 . S
C779 C785 1.491 . S
C780 H771 0.950 . S
C780 C779 1.398 . S
C780 C781 1.391 . S
C781 H769 0.950 . S
C781 C777 1.393 . S
C781 C780 1.391 . S
C782 H772 0.950 . S
C782 C783 1.386 . S
C782 C784 1.391 . S
C783 C782 1.386 . S
C783 C787 1.393 . S
C784 H773 0.950 . S
C784 C782 1.391 . S
C784 C785 1.400 . S
C785 C779 1.491 . S
C785 C784 1.400 . S
C785 C786 1.398 . S
C786 H774 0.950 . S
C786 C785 1.398 . S
C786 C787 1.391 . S
C787 H775 0.950 . S
C787 C783 1.393 . S
C787 C786 1.391 . S
H788 C796 0.950 . S
H789 C801 0.950 . S
H790 C798 0.950 . S
H791 C800 0.950 . S
H792 C802 0.950 . S
H793 C804 0.950 . S
H794 C806 0.950 . S
H795 C807 0.950 . S
C796 H788 0.950 . S
C796 C797 1.386 . S
C796 C798 1.391 . S
C797 C796 1.386 . S
C797 C801 1.393 . S
C798 H790 0.950 . S
C798 C796 1.391 . S
C798 C799 1.400 . S
C799 C798 1.400 . S
C799 C800 1.398 . S
C799 C805 1.491 . S
C800 H791 0.950 . S
C800 C799 1.398 . S
C800 C801 1.391 . S
C801 H789 0.950 . S
C801 C797 1.393 . S
C801 C800 1.391 . S
C802 H792 0.950 . S
C802 C803 1.386 . S
C802 C804 1.391 . S
C803 C802 1.386 . S
C803 C807 1.393 . S
C804 H793 0.950 . S
C804 C802 1.391 . S
C804 C805 1.400 . S
C805 C799 1.491 . S
C805 C804 1.400 . S
C805 C806 1.398 . S
C806 H794 0.950 . S
C806 C805 1.398 . S
C806 C807 1.391 . S
C807 H795 0.950 . S
C807 C803 1.393 . S
C807 C806 1.391 . S
H808 C816 0.950 . S
H809 C821 0.950 . S
H810 C818 0.950 . S
H811 C820 0.950 . S
H812 C822 0.950 . S
H813 C824 0.950 . S
H814 C826 0.950 . S
H815 C827 0.950 . S
C816 H808 0.950 . S
C816 C817 1.386 . S
C816 C818 1.391 . S
C817 C816 1.386 . S
C817 C821 1.393 . S
C818 H810 0.950 . S
C818 C816 1.391 . S
C818 C819 1.400 . S
C819 C818 1.400 . S
C819 C820 1.398 . S
C819 C825 1.491 . S
C820 H811 0.950 . S
C820 C819 1.398 . S
C820 C821 1.391 . S
C821 H809 0.950 . S
C821 C817 1.393 . S
C821 C820 1.391 . S
C822 H812 0.950 . S
C822 C823 1.386 . S
C822 C824 1.391 . S
C823 C822 1.386 . S
C823 C827 1.393 . S
C824 H813 0.950 . S
C824 C822 1.391 . S
C824 C825 1.400 . S
C825 C819 1.491 . S
C825 C824 1.400 . S
C825 C826 1.398 . S
C826 H814 0.950 . S
C826 C825 1.398 . S
C826 C827 1.391 . S
C827 H815 0.950 . S
C827 C823 1.393 . S
C827 C826 1.391 . S
H828 C836 0.950 . S
H829 C841 0.950 . S
H830 C838 0.950 . S
H831 C840 0.950 . S
H832 C842 0.950 . S
H833 C844 0.950 . S
H834 C846 0.950 . S
H835 C847 0.950 . S
C836 H828 0.950 . S
C836 C837 1.386 . S
C836 C838 1.391 . S
C837 C836 1.386 . S
C837 C841 1.393 . S
C838 H830 0.950 . S
C838 C836 1.391 . S
C838 C839 1.400 . S
C839 C838 1.400 . S
C839 C840 1.398 . S
C839 C845 1.491 . S
C840 H831 0.950 . S
C840 C839 1.398 . S
C840 C841 1.391 . S
C841 H829 0.950 . S
C841 C837 1.393 . S
C841 C840 1.391 . S
C842 H832 0.950 . S
C842 C843 1.386 . S
C842 C844 1.391 . S
C843 C842 1.386 . S
C843 C847 1.393 . S
C844 H833 0.950 . S
C844 C842 1.391 . S
C844 C845 1.400 . S
C845 C839 1.491 . S
C845 C844 1.400 . S
C845 C846 1.398 . S
C846 H834 0.950 . S
C846 C845 1.398 . S
C846 C847 1.391 . S
C847 H835 0.950 . S
C847 C843 1.393 . S
C847 C846 1.391 . S
H848 C856 0.950 . S
H849 C861 0.950 . S
H850 C858 0.950 . S
H851 C860 0.950 . S
H852 C862 0.950 . S
H853 C864 0.950 . S
H854 C866 0.950 . S
H855 C867 0.950 . S
C856 H848 0.950 . S
C856 C857 1.386 . S
C856 C858 1.391 . S
C857 C856 1.386 . S
C857 C861 1.393 . S
C858 H850 0.950 . S
C858 C856 1.391 . S
C858 C859 1.400 . S
C859 C858 1.400 . S
C859 C860 1.398 . S
C859 C865 1.491 1_655 S
C860 H851 0.950 . S
C860 C859 1.398 . S
C860 C861 1.391 . S
C861 H849 0.950 . S
C861 C857 1.393 . S
C861 C860 1.391 . S
C862 H852 0.950 . S
C862 C863 1.386 . S
C862 C864 1.391 . S
C863 C862 1.386 . S
C863 C867 1.393 . S
C864 H853 0.950 . S
C864 C862 1.391 . S
C864 C865 1.400 . S
C865 C859 1.491 1_455 S
C865 C864 1.400 . S
C865 C866 1.398 . S
C866 H854 0.950 . S
C866 C865 1.398 . S
C866 C867 1.391 . S
C867 H855 0.950 . S
C867 C863 1.393 . S
C867 C866 1.391 . S
H868 C876 0.950 . S
H869 C881 0.950 . S
H870 C878 0.950 . S
H871 C880 0.950 . S
H872 C882 0.950 . S
H873 C884 0.950 . S
H874 C886 0.950 . S
H875 C887 0.950 . S
C876 H868 0.950 . S
C876 C877 1.386 . S
C876 C878 1.391 . S
C877 C876 1.386 . S
C877 C881 1.393 . S
C878 H870 0.950 . S
C878 C876 1.391 . S
C878 C879 1.400 . S
C879 C878 1.400 . S
C879 C880 1.398 . S
C879 C885 1.491 1_545 S
C880 H871 0.950 . S
C880 C879 1.398 . S
C880 C881 1.391 . S
C881 H869 0.950 . S
C881 C877 1.393 . S
C881 C880 1.391 . S
C882 H872 0.950 . S
C882 C883 1.386 . S
C882 C884 1.391 . S
C883 C882 1.386 . S
C883 C887 1.393 . S
C884 H873 0.950 . S
C884 C882 1.391 . S
C884 C885 1.400 . S
C885 C879 1.491 1_565 S
C885 C884 1.400 . S
C885 C886 1.398 . S
C886 H874 0.950 . S
C886 C885 1.398 . S
C886 C887 1.391 . S
C887 H875 0.950 . S
C887 C883 1.393 . S
C887 C886 1.391 . S
H888 C896 0.950 . S
H889 C901 0.950 . S
H890 C898 0.950 . S
H891 C900 0.950 . S
H892 C902 0.950 . S
H893 C904 0.950 . S
H894 C906 0.950 . S
H895 C907 0.950 . S
C896 H888 0.950 . S
C896 C897 1.386 . S
C896 C898 1.391 . S
C897 C896 1.386 . S
C897 C901 1.393 . S
C898 H890 0.950 . S
C898 C896 1.391 . S
C898 C899 1.400 . S
C899 C898 1.400 . S
C899 C900 1.398 . S
C899 C905 1.491 . S
C900 H891 0.950 . S
C900 C899 1.398 . S
C900 C901 1.391 . S
C901 H889 0.950 . S
C901 C897 1.393 . S
C901 C900 1.391 . S
C902 H892 0.950 . S
C902 C903 1.386 . S
C902 C904 1.391 . S
C903 C902 1.386 . S
C903 C907 1.393 . S
C904 H893 0.950 . S
C904 C902 1.391 . S
C904 C905 1.400 . S
C905 C899 1.491 . S
C905 C904 1.400 . S
C905 C906 1.398 . S
C906 H894 0.950 . S
C906 C905 1.398 . S
C906 C907 1.391 . S
C907 H895 0.950 . S
C907 C903 1.393 . S
C907 C906 1.391 . S
H908 C916 0.950 . S
H909 C921 0.950 . S
H910 C918 0.950 . S
H911 C920 0.950 . S
H912 C922 0.950 . S
H913 C924 0.950 . S
H914 C926 0.950 . S
H915 C927 0.950 . S
C916 H908 0.950 . S
C916 C917 1.386 . S
C916 C918 1.391 . S
C917 C916 1.386 . S
C917 C921 1.393 . S
C918 H910 0.950 . S
C918 C916 1.391 . S
C918 C919 1.400 . S
C919 C918 1.400 . S
C919 C920 1.398 . S
C919 C925 1.491 1_655 S
C920 H911 0.950 . S
C920 C919 1.398 . S
C920 C921 1.391 . S
C921 H909 0.950 . S
C921 C917 1.393 . S
C921 C920 1.391 . S
C922 H912 0.950 . S
C922 C923 1.386 . S
C922 C924 1.391 . S
C923 C922 1.386 . S
C923 C927 1.393 . S
C924 H913 0.950 . S
C924 C922 1.391 . S
C924 C925 1.400 . S
C925 C919 1.491 1_455 S
C925 C924 1.400 . S
C925 C926 1.398 . S
C926 H914 0.950 . S
C926 C925 1.398 . S
C926 C927 1.391 . S
C927 H915 0.950 . S
C927 C923 1.393 . S
C927 C926 1.391 . S
H928 C936 0.950 1_556 S
H929 C941 0.950 . S
H930 C938 0.950 . S
H931 C940 0.950 . S
H932 C942 0.950 1_554 S
H933 C944 0.950 . S
H934 C946 0.950 . S
H935 C947 0.950 . S
C936 H928 0.950 1_554 S
C936 C937 1.386 . S
C936 C938 1.391 1_554 S
C937 C936 1.386 . S
C937 C941 1.393 . S
C938 H930 0.950 . S
C938 C936 1.391 1_556 S
C938 C939 1.400 1_556 S
C939 C938 1.400 1_554 S
C939 C940 1.398 . S
C939 C945 1.491 1_564 S
C940 H931 0.950 . S
C940 C939 1.398 . S
C940 C941 1.391 . S
C941 H929 0.950 . S
C941 C937 1.393 . S
C941 C940 1.391 . S
C942 H932 0.950 1_556 S
C942 C943 1.386 . S
C942 C944 1.391 1_556 S
C943 C942 1.386 . S
C943 C947 1.393 . S
C944 H933 0.950 . S
C944 C942 1.391 1_554 S
C944 C945 1.400 1_554 S
C945 C939 1.491 1_546 S
C945 C944 1.400 1_556 S
C945 C946 1.398 . S
C946 H934 0.950 . S
C946 C945 1.398 . S
C946 C947 1.391 . S
C947 H935 0.950 . S
C947 C943 1.393 . S
C947 C946 1.391 . S
H948 C956 0.950 . S
H949 C961 0.950 . S
H950 C958 0.950 . S
H951 C960 0.950 . S
H952 C962 0.950 . S
H953 C964 0.950 . S
H954 C966 0.950 . S
H955 C967 0.950 . S
C956 H948 0.950 . S
C956 C957 1.386 . S
C956 C958 1.391 . S
C957 C956 1.386 . S
C957 C961 1.393 . S
C958 H950 0.950 . S
C958 C956 1.391 . S
C958 C959 1.400 . S
C959 C958 1.400 . S
C959 C960 1.398 . S
C959 C965 1.491 . S
C960 H951 0.950 . S
C960 C959 1.398 . S
C960 C961 1.391 . S
C961 H949 0.950 . S
C961 C957 1.393 . S
C961 C960 1.391 . S
C962 H952 0.950 . S
C962 C963 1.384 1_556 S
C962 C964 1.391 1_556 S
C963 C962 1.384 1_554 S
C963 C967 1.401 . S
C964 H953 0.950 . S
C964 C962 1.391 1_554 S
C964 C965 1.400 . S
C965 C959 1.491 . S
C965 C964 1.400 . S
C965 C966 1.398 . S
C966 H954 0.950 . S
C966 C965 1.398 . S
C966 C967 1.391 . S
C967 H955 0.950 . S
C967 C963 1.401 . S
C967 C966 1.391 . S
H968 C976 0.950 . S
H969 C981 0.950 . S
H970 C978 0.950 . S
H971 C980 0.950 . S
H972 C982 0.950 . S
H973 C984 0.947 1_455 S
H974 C986 0.950 . S
H975 C987 0.950 . S
C976 H968 0.950 . S
C976 C977 1.386 . S
C976 C978 1.391 . S
C977 C976 1.386 . S
C977 C981 1.393 . S
C978 H970 0.950 . S
C978 C976 1.391 . S
C978 C979 1.400 . S
C979 C978 1.400 . S
C979 C980 1.398 . S
C979 C985 1.491 . S
C980 H971 0.950 . S
C980 C979 1.398 . S
C980 C981 1.391 . S
C981 H969 0.950 . S
C981 C977 1.393 . S
C981 C980 1.391 . S
C982 H972 0.950 . S
C982 C983 1.386 . S
C982 C984 1.382 1_455 S
C983 C982 1.386 . S
C983 C987 1.393 1_455 S
C984 H973 0.947 1_655 S
C984 C982 1.382 1_655 S
C984 C985 1.413 . S
C985 C979 1.491 . S
C985 C984 1.413 . S
C985 C986 1.398 . S
C986 H974 0.950 . S
C986 C985 1.398 . S
C986 C987 1.391 . S
C987 H975 0.950 . S
C987 C983 1.393 1_655 S
C987 C986 1.391 . S
H988 C996 0.950 . S
H989 C1001 0.950 . S
H990 C998 0.950 . S
H991 C1000 0.950 1_545 S
H992 C1002 0.950 . S
H993 C1004 0.950 . S
H994 C1006 0.950 . S
H995 C1007 0.950 . S
C996 H988 0.950 . S
C996 C997 1.386 1_565 S
C996 C998 1.391 . S
C997 C996 1.386 1_545 S
C997 C1001 1.393 . S
C998 H990 0.950 . S
C998 C996 1.391 . S
C998 C999 1.400 . S
C999 C998 1.400 . S
C999 C1000 1.398 . S
C999 C1005 1.491 . S
C1000 H991 0.950 1_565 S
C1000 C999 1.398 . S
C1000 C1001 1.391 1_565 S
C1001 H989 0.950 . S
C1001 C997 1.393 . S
C1001 C1000 1.391 1_545 S
C1002 H992 0.950 . S
C1002 C1003 1.386 . S
C1002 C1004 1.391 . S
C1003 C1002 1.386 . S
C1003 C1007 1.393 . S
C1004 H993 0.950 . S
C1004 C1002 1.391 . S
C1004 C1005 1.400 . S
C1005 C999 1.491 . S
C1005 C1004 1.400 . S
C1005 C1006 1.398 . S
C1006 H994 0.950 . S
C1006 C1005 1.398 . S
C1006 C1007 1.391 . S
C1007 H995 0.950 . S
C1007 C1003 1.393 . S
C1007 C1006 1.391 . S
H1008 C1016 0.950 . S
H1009 C1021 0.950 . S
H1010 C1018 0.950 . S
H1011 C1020 0.950 . S
H1012 C1022 0.950 . S
H1013 C1024 0.950 . S
H1014 C1026 0.950 . S
H1015 C1027 0.950 . S
C1016 H1008 0.950 . S
C1016 C1017 1.386 . S
C1016 C1018 1.391 . S
C1017 C1016 1.386 . S
C1017 C1021 1.393 . S
C1018 H1010 0.950 . S
C1018 C1016 1.391 . S
C1018 C1019 1.400 . S
C1019 C1018 1.400 . S
C1019 C1020 1.398 . S
C1019 C1025 1.491 . S
C1020 H1011 0.950 . S
C1020 C1019 1.398 . S
C1020 C1021 1.391 . S
C1021 H1009 0.950 . S
C1021 C1017 1.393 . S
C1021 C1020 1.391 . S
C1022 H1012 0.950 . S
C1022 C1023 1.386 . S
C1022 C1024 1.391 . S
C1023 C1022 1.386 . S
C1023 C1027 1.393 . S
C1024 H1013 0.950 . S
C1024 C1022 1.391 . S
C1024 C1025 1.400 . S
C1025 C1019 1.491 . S
C1025 C1024 1.400 . S
C1025 C1026 1.398 . S
C1026 H1014 0.950 . S
C1026 C1025 1.398 . S
C1026 C1027 1.391 . S
C1027 H1015 0.950 . S
C1027 C1023 1.393 . S
C1027 C1026 1.391 . S
H1028 C1036 0.950 . S
H1029 C1041 0.950 . S
H1030 C1038 0.950 . S
H1031 C1040 0.950 . S
H1032 C1042 0.950 . S
H1033 C1044 0.950 . S
H1034 C1046 0.950 1_655 S
H1035 C1047 0.950 . S
C1036 H1028 0.950 . S
C1036 C1037 1.386 . S
C1036 C1038 1.391 . S
C1037 C1036 1.386 . S
C1037 C1041 1.393 . S
C1038 H1030 0.950 . S
C1038 C1036 1.391 . S
C1038 C1039 1.400 . S
C1039 C1038 1.400 . S
C1039 C1040 1.398 . S
C1039 C1045 1.491 . S
C1040 H1031 0.950 . S
C1040 C1039 1.398 . S
C1040 C1041 1.391 . S
C1041 H1029 0.950 . S
C1041 C1037 1.393 . S
C1041 C1040 1.391 . S
C1042 H1032 0.950 . S
C1042 C1043 1.386 1_455 S
C1042 C1044 1.391 . S
C1043 C1042 1.386 1_655 S
C1043 C1047 1.393 . S
C1044 H1033 0.950 . S
C1044 C1042 1.391 . S
C1044 C1045 1.400 . S
C1045 C1039 1.491 . S
C1045 C1044 1.400 . S
C1045 C1046 1.398 . S
C1046 H1034 0.950 1_455 S
C1046 C1045 1.398 . S
C1046 C1047 1.391 1_455 S
C1047 H1035 0.950 . S
C1047 C1043 1.393 . S
C1047 C1046 1.391 1_655 S
H1048 C1056 0.950 . S
H1049 C1061 0.950 . S
H1050 C1058 0.950 . S
H1051 C1060 0.950 . S
H1052 C1062 0.950 . S
H1053 C1064 0.950 . S
H1054 C1066 0.953 . S
H1055 C1067 0.950 . S
C1056 H1048 0.950 . S
C1056 C1057 1.386 . S
C1056 C1058 1.391 . S
C1057 C1056 1.386 . S
C1057 C1061 1.393 . S
C1058 H1050 0.950 . S
C1058 C1056 1.391 . S
C1058 C1059 1.400 . S
C1059 C1058 1.400 . S
C1059 C1060 1.398 . S
C1059 C1065 1.491 . S
C1060 H1051 0.950 . S
C1060 C1059 1.398 . S
C1060 C1061 1.391 . S
C1061 H1049 0.950 . S
C1061 C1057 1.393 . S
C1061 C1060 1.391 . S
C1062 H1052 0.950 . S
C1062 C1063 1.386 1_545 S
C1062 C1064 1.391 . S
C1063 C1062 1.386 1_565 S
C1063 C1067 1.393 . S
C1064 H1053 0.950 . S
C1064 C1062 1.391 . S
C1064 C1065 1.400 . S
C1065 C1059 1.491 . S
C1065 C1064 1.400 . S
C1065 C1066 1.382 1_545 S
C1066 H1054 0.953 . S
C1066 C1065 1.382 1_565 S
C1066 C1067 1.405 . S
C1067 H1055 0.950 . S
C1067 C1063 1.393 . S
C1067 C1066 1.405 . S
H1068 C1076 0.950 . S
H1069 C1081 0.950 . S
H1070 C1078 0.950 . S
H1071 C1080 0.950 . S
H1072 C1082 0.950 . S
H1073 C1084 0.950 . S
H1074 C1086 0.950 . S
H1075 C1087 0.950 . S
C1076 H1068 0.950 . S
C1076 C1077 1.386 . S
C1076 C1078 1.391 . S
C1077 C1076 1.386 . S
C1077 C1081 1.393 . S
C1078 H1070 0.950 . S
C1078 C1076 1.391 . S
C1078 C1079 1.400 . S
C1079 C1078 1.400 . S
C1079 C1080 1.398 . S
C1079 C1085 1.491 . S
C1080 H1071 0.950 . S
C1080 C1079 1.398 . S
C1080 C1081 1.391 . S
C1081 H1069 0.950 . S
C1081 C1077 1.393 . S
C1081 C1080 1.391 . S
C1082 H1072 0.950 . S
C1082 C1083 1.386 . S
C1082 C1084 1.391 . S
C1083 C1082 1.386 . S
C1083 C1087 1.393 . S
C1084 H1073 0.950 . S
C1084 C1082 1.391 . S
C1084 C1085 1.400 . S
C1085 C1079 1.491 . S
C1085 C1084 1.400 . S
C1085 C1086 1.398 . S
C1086 H1074 0.950 . S
C1086 C1085 1.398 . S
C1086 C1087 1.391 . S
C1087 H1075 0.950 . S
C1087 C1083 1.393 . S
C1087 C1086 1.391 . S
H1088 C1096 0.950 . S
H1089 C1101 0.950 . S
H1090 C1098 0.950 . S
H1091 C1100 0.950 . S
H1092 C1102 0.950 . S
H1093 C1104 0.950 . S
H1094 C1106 0.957 . S
H1095 C1107 0.950 . S
C1096 H1088 0.950 . S
C1096 C1097 1.386 . S
C1096 C1098 1.391 . S
C1097 C1096 1.386 . S
C1097 C1101 1.393 . S
C1098 H1090 0.950 . S
C1098 C1096 1.391 . S
C1098 C1099 1.400 . S
C1099 C1098 1.400 . S
C1099 C1100 1.398 . S
C1099 C1105 1.491 . S
C1100 H1091 0.950 . S
C1100 C1099 1.398 . S
C1100 C1101 1.391 . S
C1101 H1089 0.950 . S
C1101 C1097 1.393 . S
C1101 C1100 1.391 . S
C1102 H1092 0.950 . S
C1102 C1103 1.383 1_654 S
C1102 C1104 1.391 1_554 S
C1103 C1102 1.383 1_456 S
C1103 C1107 1.404 . S
C1104 H1093 0.950 . S
C1104 C1102 1.391 1_556 S
C1104 C1105 1.400 . S
C1105 C1099 1.491 . S
C1105 C1104 1.400 . S
C1105 C1106 1.375 1_655 S
C1106 H1094 0.957 . S
C1106 C1105 1.375 1_455 S
C1106 C1107 1.407 . S
C1107 H1095 0.950 . S
C1107 C1103 1.404 . S
C1107 C1106 1.407 . S
H1108 C1116 0.950 . S
H1109 C1121 0.950 . S
H1110 C1118 0.950 . S
H1111 C1120 0.950 . S
H1112 C1122 0.950 . S
H1113 C1124 0.950 . S
H1114 C1126 0.950 . S
H1115 C1127 0.950 1_545 S
C1116 H1108 0.950 . S
C1116 C1117 1.386 . S
C1116 C1118 1.391 . S
C1117 C1116 1.386 . S
C1117 C1121 1.393 . S
C1118 H1110 0.950 . S
C1118 C1116 1.391 . S
C1118 C1119 1.400 . S
C1119 C1118 1.400 . S
C1119 C1120 1.398 . S
C1119 C1125 1.491 . S
C1120 H1111 0.950 . S
C1120 C1119 1.398 . S
C1120 C1121 1.391 . S
C1121 H1109 0.950 . S
C1121 C1117 1.393 . S
C1121 C1120 1.391 . S
C1122 H1112 0.950 . S
C1122 C1123 1.386 . S
C1122 C1124 1.391 1_545 S
C1123 C1122 1.386 . S
C1123 C1127 1.393 1_545 S
C1124 H1113 0.950 . S
C1124 C1122 1.391 1_565 S
C1124 C1125 1.400 . S
C1125 C1119 1.491 . S
C1125 C1124 1.400 . S
C1125 C1126 1.398 . S
C1126 H1114 0.950 . S
C1126 C1125 1.398 . S
C1126 C1127 1.391 . S
C1127 H1115 0.950 1_565 S
C1127 C1123 1.393 1_565 S
C1127 C1126 1.391 . S
H1128 C1136 0.950 . S
H1129 C1141 0.950 . S
H1130 C1138 0.950 . S
H1131 C1140 0.950 . S
H1132 C1142 0.950 . S
H1133 C1144 0.950 . S
H1134 C1146 0.950 . S
H1135 C1147 0.950 . S
C1136 H1128 0.950 . S
C1136 C1137 1.386 . S
C1136 C1138 1.391 . S
C1137 C1136 1.386 . S
C1137 C1141 1.393 . S
C1138 H1130 0.950 . S
C1138 C1136 1.391 . S
C1138 C1139 1.400 . S
C1139 C1138 1.400 . S
C1139 C1140 1.398 . S
C1139 C1145 1.491 . S
C1140 H1131 0.950 . S
C1140 C1139 1.398 . S
C1140 C1141 1.391 . S
C1141 H1129 0.950 . S
C1141 C1137 1.393 . S
C1141 C1140 1.391 . S
C1142 H1132 0.950 . S
C1142 C1143 1.386 . S
C1142 C1144 1.391 . S
C1143 C1142 1.386 . S
C1143 C1147 1.393 . S
C1144 H1133 0.950 . S
C1144 C1142 1.391 . S
C1144 C1145 1.400 . S
C1145 C1139 1.491 . S
C1145 C1144 1.400 . S
C1145 C1146 1.398 . S
C1146 H1134 0.950 . S
C1146 C1145 1.398 . S
C1146 C1147 1.391 . S
C1147 H1135 0.950 . S
C1147 C1143 1.393 . S
C1147 C1146 1.391 . S
H1148 C1156 0.950 . S
H1149 C1161 0.950 . S
H1150 C1158 0.950 . S
H1151 C1160 0.950 . S
H1152 C1162 0.950 . S
H1153 C1164 0.950 . S
H1154 C1166 0.950 1_655 S
H1155 C1167 0.950 . S
C1156 H1148 0.950 . S
C1156 C1157 1.386 . S
C1156 C1158 1.391 . S
C1157 C1156 1.386 . S
C1157 C1161 1.393 . S
C1158 H1150 0.950 . S
C1158 C1156 1.391 . S
C1158 C1159 1.400 . S
C1159 C1158 1.400 . S
C1159 C1160 1.398 . S
C1159 C1165 1.491 . S
C1160 H1151 0.950 . S
C1160 C1159 1.398 . S
C1160 C1161 1.391 . S
C1161 H1149 0.950 . S
C1161 C1157 1.393 . S
C1161 C1160 1.391 . S
C1162 H1152 0.950 . S
C1162 C1163 1.386 1_455 S
C1162 C1164 1.391 . S
C1163 C1162 1.386 1_655 S
C1163 C1167 1.393 . S
C1164 H1153 0.950 . S
C1164 C1162 1.391 . S
C1164 C1165 1.400 . S
C1165 C1159 1.491 . S
C1165 C1164 1.400 . S
C1165 C1166 1.398 . S
C1166 H1154 0.950 1_455 S
C1166 C1165 1.398 . S
C1166 C1167 1.391 1_455 S
C1167 H1155 0.950 . S
C1167 C1163 1.393 . S
C1167 C1166 1.391 1_655 S
H1168 C1176 0.950 . S
H1169 C1181 0.950 . S
H1170 C1178 0.950 . S
H1171 C1180 0.950 . S
H1172 C1182 0.950 . S
H1173 C1184 0.950 . S
H1174 C1186 0.950 . S
H1175 C1187 0.950 . S
C1176 H1168 0.950 . S
C1176 C1177 1.386 . S
C1176 C1178 1.391 1_565 S
C1177 C1176 1.386 . S
C1177 C1181 1.393 1_565 S
C1178 H1170 0.950 . S
C1178 C1176 1.391 1_545 S
C1178 C1179 1.400 . S
C1179 C1178 1.400 . S
C1179 C1180 1.398 . S
C1179 C1185 1.491 . S
C1180 H1171 0.950 . S
C1180 C1179 1.398 . S
C1180 C1181 1.391 . S
C1181 H1169 0.950 . S
C1181 C1177 1.393 1_545 S
C1181 C1180 1.391 . S
C1182 H1172 0.950 . S
C1182 C1183 1.386 . S
C1182 C1184 1.391 . S
C1183 C1182 1.386 . S
C1183 C1187 1.393 . S
C1184 H1173 0.950 . S
C1184 C1182 1.391 . S
C1184 C1185 1.400 . S
C1185 C1179 1.491 . S
C1185 C1184 1.400 . S
C1185 C1186 1.398 . S
C1186 H1174 0.950 . S
C1186 C1185 1.398 . S
C1186 C1187 1.391 . S
C1187 H1175 0.950 . S
C1187 C1183 1.393 . S
C1187 C1186 1.391 . S
C717 C477 1.326 . S
C723 C5 1.327 . S
C737 C64 1.323 . S
C743 C536 1.321 . S
C757 C123 1.322 . S
C763 C595 1.324 . S
C777 C182 1.323 . S
C783 C654 1.325 . S
C797 C359 1.323 . S
C803 C241 1.321 . S
C817 C300 1.327 . S
C823 C418 1.326 . S
C837 C583 1.038 . S
C843 C52 1.029 . S
C857 C111 1.037 . S
C863 C642 1.031 . S
C877 C701 1.037 . S
C883 C170 1.030 . S
C897 C229 1.039 . S
C903 C406 1.027 . S
C917 C465 1.038 . S
C923 C288 1.029 . S
C937 C524 1.027 . S
C943 C347 1.039 . S
C957 C33 1.541 . S
C963 C298 1.510 1_554 S
C977 C92 1.533 . S
C983 C3 1.499 . S
C997 C62 1.497 . S
C1003 C151 1.537 . S
C1017 C210 1.533 . S
C1023 C121 1.500 . S
C1037 C269 1.543 . S
C1043 C180 1.508 . S
C1057 C328 1.543 . S
C1063 C239 1.512 . S
C1077 C387 1.532 . S
C1083 C416 1.501 . S
C1097 C446 1.542 . S
C1103 C475 1.507 1_556 S
C1117 C505 1.533 . S
C1123 C534 1.516 . S
C1137 C564 1.540 . S
C1143 C593 1.499 . S
C1157 C623 1.543 . S
C1163 C652 1.507 . S
C1177 C357 1.518 . S
C1183 C682 1.534 . S
