# Generated by pormake.
# Topology uog, (4)-cn, num edge types: 1
# Building blocks:
#     Node 0, Type 0, BuildingBlock: NAWXER_clean_sbu_0, # of connection points: 4
#     Node 1, Type 0, BuildingBlock: NAWXER_clean_sbu_0, # of connection points: 4
#     Node 2, Type 0, BuildingBlock: NAWXER_clean_sbu_0, # of connection points: 4
#     Node 3, Type 0, BuildingBlock: NAWXER_clean_sbu_0, # of connection points: 4
#     Node 4, Type 0, BuildingBlock: NAWXER_clean_sbu_0, # of connection points: 4
#     Node 5, Type 0, BuildingBlock: NAWXER_clean_sbu_0, # of connection points: 4
#     Edge 6, Type (0, 0), BuildingBlock: XUDNAN_clean_linker_2, # of connection points: 2
#     Edge 7, Type (0, 0), BuildingBlock: XUDNAN_clean_linker_2, # of connection points: 2
#     Edge 8, Type (0, 0), BuildingBlock: XUDNAN_clean_linker_2, # of connection points: 2
#     Edge 9, Type (0, 0), BuildingBlock: XUDNAN_clean_linker_2, # of connection points: 2
#     Edge 10, Type (0, 0), BuildingBlock: XUDNAN_clean_linker_2, # of connection points: 2
#     Edge 11, Type (0, 0), BuildingBlock: XUDNAN_clean_linker_2, # of connection points: 2
#     Edge 12, Type (0, 0), BuildingBlock: XUDNAN_clean_linker_2, # of connection points: 2
#     Edge 13, Type (0, 0), BuildingBlock: XUDNAN_clean_linker_2, # of connection points: 2
#     Edge 14, Type (0, 0), BuildingBlock: XUDNAN_clean_linker_2, # of connection points: 2
#     Edge 15, Type (0, 0), BuildingBlock: XUDNAN_clean_linker_2, # of connection points: 2
#     Edge 16, Type (0, 0), BuildingBlock: XUDNAN_clean_linker_2, # of connection points: 2
#     Edge 17, Type (0, 0), BuildingBlock: XUDNAN_clean_linker_2, # of connection points: 2
# Relax obj value: 0.013
# Max RMSD: 0.240
# Mean RMSD: 0.240
data_MOF--net-uog--node1-NAWXER_clean_sbu_0--edge1-XUDNAN_clean_linker_2
_symmetry_space_group_name_H-M    P1
_symmetry_Int_Tables_number       1
_symmetry_cell_setting            triclinic
loop_
_symmetry_equiv_pos_as_xyz
'x, y, z'
_cell_length_a     29.044919
_cell_length_b     28.870582
_cell_length_c     43.10444
_cell_angle_alpha  89.921491
_cell_angle_beta   89.994956
_cell_angle_gamma 120.09971
loop_
_atom_site_label
_atom_site_type_symbol
_atom_site_fract_x
_atom_site_fract_y
_atom_site_fract_z
_atom_type_partial_charge
C0 C 0.55401 0.36174 0.17068 0.0
C1 C 0.54764 0.1946 0.1947 0.0
O2 O 0.51564 0.31492 0.17545 0.0
Zn3 Zn 0.55494 0.27987 0.18299 0.0
O4 O 0.60192 0.37034 0.17202 0.0
Zn5 Zn 0.63602 0.31841 0.18088 0.0
O6 O 0.67487 0.32362 0.14454 0.0
O7 O 0.58802 0.27879 0.13728 0.0
O8 O 0.59644 0.2317 0.19113 0.0
O9 O 0.51117 0.20624 0.19214 0.0
O10 O 0.59556 0.31215 0.22741 0.0
O11 O 0.68064 0.35086 0.21542 0.0
C12 C 0.63552 0.29728 0.12678 0.0
C13 C 0.64472 0.33881 0.23559 0.0
C14 C 0.31345 0.61743 0.56255 0.0
C15 C 0.29763 0.61908 0.4497 0.0
O16 O 0.32962 0.65819 0.54509 0.0
Zn17 Zn 0.30527 0.61892 0.50629 0.0
O18 O 0.28921 0.57042 0.55072 0.0
Zn19 Zn 0.26313 0.53532 0.50573 0.0
O20 O 0.29627 0.49402 0.50088 0.0
O21 O 0.35397 0.58072 0.50206 0.0
O22 O 0.27396 0.57171 0.46111 0.0
O23 O 0.32159 0.65913 0.46762 0.0
O24 O 0.21873 0.58184 0.51143 0.0
O25 O 0.18878 0.49491 0.51057 0.0
C26 C 0.34402 0.53213 0.49986 0.0
C27 C 0.1798 0.53337 0.51318 0.0
C28 C 0.69479 0.28864 0.90377 0.0
C29 C 0.70074 0.33233 0.79465 0.0
O30 O 0.67397 0.31228 0.8898 0.0
Zn31 Zn 0.69948 0.31079 0.84909 0.0
O32 O 0.72202 0.27265 0.88826 0.0
Zn33 Zn 0.7441 0.2731 0.84002 0.0
O34 O 0.8218 0.31419 0.84117 0.0
O35 O 0.78422 0.36196 0.85267 0.0
O36 O 0.72487 0.30587 0.79949 0.0
O37 O 0.68121 0.34457 0.81739 0.0
O38 O 0.65363 0.22776 0.83658 0.0
O39 O 0.70885 0.19681 0.83068 0.0
C40 C 0.82636 0.35873 0.84901 0.0
C41 C 0.66171 0.18898 0.8304 0.0
C42 C 0.37917 0.68061 0.22718 0.0
C43 C 0.41112 0.72368 0.11772 0.0
O44 O 0.34698 0.66619 0.20459 0.0
Zn45 Zn 0.39734 0.70115 0.17236 0.0
O46 O 0.42946 0.70919 0.22197 0.0
Zn47 Zn 0.47953 0.74264 0.18066 0.0
O48 O 0.51799 0.81891 0.18979 0.0
O49 O 0.43143 0.78481 0.18385 0.0
O50 O 0.4554 0.74304 0.13257 0.0
O51 O 0.36768 0.69641 0.13227 0.0
O52 O 0.43452 0.65354 0.1676 0.0
O53 O 0.51946 0.70452 0.17866 0.0
C54 C 0.47757 0.825 0.18975 0.0
C55 C 0.48098 0.65923 0.17067 0.0
C56 C 0.65173 0.47908 0.50904 0.0
C57 C 0.81992 0.4813 0.52309 0.0
O58 O 0.69731 0.52069 0.51218 0.0
Zn59 Zn 0.73707 0.48298 0.51655 0.0
O60 O 0.64713 0.43262 0.51045 0.0
Zn61 Zn 0.69507 0.39675 0.51598 0.0
O62 O 0.67047 0.35725 0.55451 0.0
O63 O 0.71094 0.44497 0.56097 0.0
O64 O 0.77895 0.43435 0.52143 0.0
O65 O 0.81449 0.52226 0.5208 0.0
O66 O 0.72685 0.44679 0.47178 0.0
O67 O 0.6818 0.3587 0.47697 0.0
C68 C 0.68673 0.39749 0.57235 0.0
C69 C 0.70509 0.39992 0.45971 0.0
C70 C 0.3606 0.82253 0.82498 0.0
C71 C 0.19528 0.6596 0.84757 0.0
O72 O 0.31301 0.81299 0.82588 0.0
Zn73 Zn 0.28036 0.73971 0.83631 0.0
O74 O 0.37025 0.78436 0.83048 0.0
Zn75 Zn 0.32007 0.6982 0.84166 0.0
O76 O 0.33347 0.66383 0.80814 0.0
O77 O 0.29135 0.70583 0.79353 0.0
O78 O 0.23352 0.64932 0.84817 0.0
O79 O 0.20566 0.70683 0.84176 0.0
O80 O 0.31094 0.74215 0.88301 0.0
O81 O 0.34919 0.69274 0.88023 0.0
C82 C 0.31285 0.67759 0.78676 0.0
C83 C 0.33665 0.72181 0.89589 0.0
H84 H 0.6064 0.14429 0.18452 0.0
H85 H 0.45381 0.11686 0.21828 0.0
H86 H 0.42295 0.02105 0.22423 0.0
H87 H 0.55529 0.02721 0.13958 0.0
H88 H 0.60776 0.01299 0.14797 0.0
H89 H 0.62095 0.08089 0.14929 0.0
H90 H 0.65475 0.09002 0.20578 0.0
H91 H 0.64189 0.02212 0.2046 0.0
H92 H 0.6125 0.04234 0.23466 0.0
H93 H 0.40454 0.92819 0.22185 0.0
H94 H 0.40057 0.8421 0.21286 0.0
H95 H 0.56483 0.92636 0.18157 0.0
C96 C 0.56698 0.11822 0.1938 0.0
C97 C 0.53258 0.13821 0.20099 0.0
C98 C 0.48088 0.10262 0.21253 0.0
C99 C 0.46296 0.04804 0.21611 0.0
C100 C 0.49716 0.02935 0.20817 0.0
C101 C 0.54819 0.06315 0.19745 0.0
C102 C 0.57535 0.03153 0.18895 0.0
C103 C 0.59073 0.03858 0.1544 0.0
C104 C 0.62401 0.04746 0.20974 0.0
C105 C 0.53109 0.97481 0.1959 0.0
C106 C 0.48653 0.97482 0.20711 0.0
C107 C 0.43938 0.92759 0.21351 0.0
C108 C 0.43745 0.87886 0.20818 0.0
C109 C 0.48243 0.87749 0.19669 0.0
C110 C 0.53011 0.92622 0.19084 0.0
H111 H 0.45078 0.59385 0.51488 0.0
H112 H 0.33373 0.44114 0.47544 0.0
H113 H 0.40206 0.41535 0.47038 0.0
H114 H 0.56517 0.61131 0.46782 0.0
H115 H 0.61162 0.6394 0.49951 0.0
H116 H 0.55489 0.64892 0.49765 0.0
H117 H 0.52617 0.60814 0.55265 0.0
H118 H 0.58265 0.59837 0.55464 0.0
H119 H 0.51647 0.54243 0.56037 0.0
H120 H 0.47857 0.40241 0.4726 0.0
H121 H 0.56163 0.40222 0.4822 0.0
H122 H 0.63262 0.56266 0.5206 0.0
C123 C 0.43995 0.55543 0.50472 0.0
C124 C 0.38695 0.5195 0.49551 0.0
C125 C 0.37397 0.46919 0.48278 0.0
C126 C 0.41255 0.45423 0.47965 0.0
C127 C 0.46406 0.48994 0.48937 0.0
C128 C 0.47816 0.5395 0.50164 0.0
C129 C 0.53601 0.56846 0.51195 0.0
C130 C 0.56887 0.62009 0.4931 0.0
C131 C 0.54056 0.58001 0.54698 0.0
C132 C 0.55155 0.52683 0.50407 0.0
C133 C 0.50925 0.48218 0.49084 0.0
C134 C 0.51221 0.43723 0.4827 0.0
C135 C 0.55958 0.43748 0.48844 0.0
C136 C 0.60361 0.48238 0.50223 0.0
C137 C 0.59977 0.52802 0.50978 0.0
H138 H 0.92667 0.37384 0.83568 0.0
H139 H 0.84602 0.45387 0.87324 0.0
H140 H 0.93209 0.53622 0.87998 0.0
H141 H 0.04497 0.44058 0.88598 0.0
H142 H 0.09032 0.44614 0.85572 0.0
H143 H 0.02254 0.3915 0.85539 0.0
H144 H 1.01014 0.41808 0.79993 0.0
H145 H 0.07783 0.47272 0.80008 0.0
H146 H 0.02407 0.4854 0.79259 0.0
H147 H 0.02427 0.61116 0.87979 0.0
H148 H 0.1194 0.676 0.87267 0.0
H149 H 0.14432 0.55019 0.83615 0.0
C150 C 0.92726 0.40853 0.84565 0.0
C151 C 0.87932 0.40715 0.85395 0.0
C152 C 0.8819 0.45367 0.86663 0.0
C153 C 0.93072 0.50076 0.87067 0.0
C154 C 0.97699 0.501 0.86204 0.0
C155 C 0.976 0.45629 0.84985 0.0
C156 C 0.03193 0.46871 0.84135 0.0
C157 C 0.0484 0.4347 0.86077 0.0
C158 C 0.03623 0.46076 0.80641 0.0
C159 C 0.06412 0.52753 0.85023 0.0
C160 C 0.03129 0.54494 0.86223 0.0
C161 C 0.05053 0.59797 0.87072 0.0
C162 C 0.10466 0.63454 0.8665 0.0
C163 C 0.13935 0.61816 0.85402 0.0
C164 C 0.1189 0.56365 0.84621 0.0
H165 H 0.13306 0.595 0.50123 0.0
H166 H 0.10276 0.44367 0.54063 0.0
H167 H 1.01033 0.41923 0.55141 0.0
H168 H 0.04484 0.61618 0.55413 0.0
H169 H 0.02151 0.64274 0.52403 0.0
H170 H 0.08751 0.65175 0.52181 0.0
H171 H 0.06622 0.60768 0.46746 0.0
H172 H 1.00028 0.59862 0.4695 0.0
H173 H 1.00895 0.54188 0.46263 0.0
H174 H 0.92156 0.40749 0.55521 0.0
H175 H 0.83725 0.40703 0.55007 0.0
H176 H 0.92042 0.56477 0.50755 0.0
C177 C 0.10701 0.55714 0.51252 0.0
C178 C 0.12508 0.52123 0.52014 0.0
C179 C 0.08974 0.47166 0.53443 0.0
C180 C 0.03722 0.45752 0.54086 0.0
C181 C 0.02035 0.49324 0.53278 0.0
C182 C 0.05378 0.54193 0.51883 0.0
C183 C 0.02363 0.57074 0.51066 0.0
C184 C 0.0457 0.62349 0.52874 0.0
C185 C 0.02484 0.58027 0.47547 0.0
C186 C 0.96803 0.52998 0.52167 0.0
C187 C 0.96765 0.48601 0.53467 0.0
C188 C 0.92124 0.44179 0.54531 0.0
C189 C 0.8735 0.44188 0.54214 0.0
C190 C 0.87226 0.48582 0.52838 0.0
C191 C 0.92035 0.53096 0.5185 0.0
H192 H 0.46758 0.87136 0.84027 0.0
H193 H 0.3502 0.89888 0.79452 0.0
H194 H 0.41758 0.99347 0.78687 0.0
H195 H 0.52907 0.99174 0.88181 0.0
H196 H 0.59612 1.00403 0.87822 0.0
H197 H 0.54087 0.93653 0.87697 0.0
H198 H 0.57308 0.92208 0.82374 0.0
H199 H 0.62866 0.98959 0.82488 0.0
H200 H 0.5838 0.96762 0.79227 0.0
H201 H 0.4924 0.08558 0.78915 0.0
H202 H 0.57326 0.1717 0.79993 0.0
H203 H 0.64568 0.08797 0.8432 0.0
C204 C 0.45658 0.89712 0.82798 0.0
C205 C 0.40362 0.87767 0.81791 0.0
C206 C 0.39041 0.91284 0.80251 0.0
C207 C 0.42847 0.96666 0.79792 0.0
C208 C 0.47984 0.98498 0.80876 0.0
C209 C 0.49431 0.95148 0.8233 0.0
C210 C 0.55158 0.98291 0.83455 0.0
C211 C 0.55455 0.97854 0.86999 0.0
C212 C 0.58634 0.96445 0.81786 0.0
C213 C 0.56624 0.03928 0.82475 0.0
C214 C 0.52413 0.03916 0.80974 0.0
C215 C 0.52603 0.08624 0.8004 0.0
C216 C 0.57201 0.13495 0.80676 0.0
C217 C 0.61575 0.13639 0.82215 0.0
C218 C 0.61316 0.08785 0.83085 0.0
H219 H 0.56439 0.64382 0.18853 0.0
H220 H 0.41398 0.56907 0.13894 0.0
H221 H 0.42183 0.48934 0.12989 0.0
H222 H 0.62991 0.58716 0.14044 0.0
H223 H 0.66246 0.57671 0.17308 0.0
H224 H 0.64817 0.63069 0.17369 0.0
H225 H 0.59645 0.59442 0.22523 0.0
H226 H 0.61063 0.54046 0.2248 0.0
H227 H 0.54273 0.52602 0.22723 0.0
H228 H 0.4409 0.41562 0.12921 0.0
H229 H 0.46986 0.34986 0.13776 0.0
H230 H 0.60904 0.46921 0.18734 0.0
C231 C 0.5336 0.61095 0.17537 0.0
C232 C 0.48856 0.61289 0.16438 0.0
C233 C 0.44874 0.56866 0.14768 0.0
C234 C 0.45294 0.52317 0.14226 0.0
C235 C 0.49724 0.52216 0.15364 0.0
C236 C 0.53698 0.56466 0.16986 0.0
C237 C 0.57864 0.55122 0.18107 0.0
C238 C 0.63302 0.58868 0.16618 0.0
C239 C 0.5823 0.55314 0.2167 0.0
C240 C 0.55538 0.49424 0.1691 0.0
C241 C 0.5086 0.47879 0.15314 0.0
C242 C 0.47777 0.42736 0.14133 0.0
C243 C 0.49452 0.39025 0.14638 0.0
C244 C 0.54185 0.40451 0.16298 0.0
C245 C 0.57327 0.45758 0.17402 0.0
H246 H 0.62486 0.29931 0.94192 0.0
H247 H 0.75153 0.2609 0.94256 0.0
H248 H 0.7453 0.25293 0.99961 0.0
H249 H 0.66365 0.37905 1.00915 0.0
H250 H 0.59706 0.35564 0.02313 0.0
H251 H 0.60897 0.35509 0.9822 0.0
H252 H 0.54001 0.25367 0.98006 0.0
H253 H 0.5278 0.25391 0.02105 0.0
H254 H 0.54734 0.2083 1.00562 0.0
H255 H 0.73191 0.25806 0.05623 0.0
H256 H 0.70857 0.27078 0.10934 0.0
H257 H 0.58659 0.30031 0.07269 0.0
C258 C 0.65095 0.28872 0.95404 0.0
C259 C 0.68882 0.28084 0.93778 0.0
C260 C 0.72214 0.26695 0.95448 0.0
C261 C 0.71889 0.26233 0.98689 0.0
C262 C 0.68158 0.27093 1.0022 0.0
C263 C 0.64775 0.28323 0.98637 0.0
C264 C 0.61208 0.29171 1.00857 0.0
C265 C 0.621 0.34876 1.00558 0.0
C266 C 0.55332 0.24936 1.00352 0.0
C267 C 0.63216 0.28366 0.03942 0.0
C268 C 0.6723 0.27174 0.0351 0.0
C269 C 0.69994 0.26643 0.05992 0.0
C270 C 0.68655 0.2739 0.08995 0.0
C271 C 0.64547 0.28588 0.09496 0.0
C272 C 0.61736 0.29002 0.06941 0.0
H273 H 0.42939 0.72537 0.28268 0.0
H274 H 0.28064 0.60065 0.24375 0.0
H275 H 0.24283 0.57503 0.29627 0.0
H276 H 0.42912 0.65255 0.35058 0.0
H277 H 0.45587 0.7099 0.37588 0.0
H278 H 0.47162 0.71874 0.33512 0.0
H279 H 0.43617 0.78493 0.33128 0.0
H280 H 0.41991 0.77594 0.37201 0.0
H281 H 0.36927 0.76384 0.3438 0.0
H282 H 0.22194 0.55991 0.35239 0.0
H283 H 0.21889 0.55684 0.4096 0.0
H284 H 0.37868 0.69406 0.41322 0.0
C285 C 0.38898 0.69254 0.28528 0.0
C286 C 0.35802 0.6649 0.25908 0.0
C287 C 0.3051 0.6225 0.26342 0.0
C288 C 0.2832 0.60763 0.29317 0.0
C289 C 0.31445 0.63588 0.31844 0.0
C290 C 0.36611 0.67753 0.31493 0.0
C291 C 0.39077 0.70115 0.34618 0.0
C292 C 0.43974 0.69521 0.35229 0.0
C293 C 0.40485 0.75996 0.34844 0.0
C294 C 0.34509 0.66574 0.36773 0.0
C295 C 0.30155 0.62834 0.35112 0.0
C296 C 0.2555 0.58934 0.36569 0.0
C297 C 0.25412 0.58791 0.39815 0.0
C298 C 0.29821 0.62561 0.41572 0.0
C299 C 0.34397 0.66556 0.40029 0.0
H300 H 0.7083 0.28928 0.73921 0.0
H301 H 0.6795 0.41092 0.77842 0.0
H302 H 0.66855 0.43755 0.7258 0.0
H303 H 0.7823 0.36406 0.67269 0.0
H304 H 0.75361 0.3074 0.64685 0.0
H305 H 0.75898 0.29759 0.68766 0.0
H306 H 0.65762 0.2303 0.69004 0.0
H307 H 0.6519 0.24016 0.64924 0.0
H308 H 0.61163 0.25086 0.67692 0.0
H309 H 0.6658 0.45462 0.66942 0.0
H310 H 0.66841 0.45908 0.61218 0.0
H311 H 0.69293 0.32283 0.60887 0.0
C312 C 0.69983 0.3216 0.73667 0.0
C313 C 0.69498 0.34822 0.7629 0.0
C314 C 0.68331 0.38993 0.75867 0.0
C315 C 0.677 0.40534 0.72888 0.0
C316 C 0.68176 0.37819 0.70354 0.0
C317 C 0.69256 0.337 0.70704 0.0
C318 C 0.6954 0.3144 0.67581 0.0
C319 C 0.75087 0.3213 0.67044 0.0
C320 C 0.65152 0.25543 0.67284 0.0
C321 C 0.68533 0.34993 0.65424 0.0
C322 C 0.67777 0.38655 0.67081 0.0
C323 C 0.67093 0.42571 0.65617 0.0
C324 C 0.6725 0.42796 0.62371 0.0
C325 C 0.68006 0.39083 0.60625 0.0
C326 C 0.6858 0.35085 0.62172 0.0
H327 H 0.28081 0.67592 0.94894 0.0
H328 H 0.4356 0.79527 0.91441 0.0
H329 H 0.47162 0.81149 0.96792 0.0
H330 H 0.28597 0.74203 0.02268 0.0
H331 H 0.25311 0.67986 0.04394 0.0
H332 H 0.239 0.68104 1.00335 0.0
H333 H 0.26418 0.60818 0.99269 0.0
H334 H 0.27882 0.60713 0.03318 0.0
H335 H 0.32871 0.61972 1.00433 0.0
H336 H 0.49186 0.81012 0.02467 0.0
H337 H 0.49419 0.79381 0.08084 0.0
H338 H 0.32592 0.67497 0.07825 0.0
C339 C 0.32191 0.70624 0.95292 0.0
C340 C 0.35551 0.73513 0.92798 0.0
C341 C 0.40941 0.77345 0.93355 0.0
C342 C 0.43011 0.78275 0.96376 0.0
C343 C 0.39628 0.75308 0.98799 0.0
C344 C 0.34325 0.71578 0.98295 0.0
C345 C 0.3161 0.68749 0.01279 0.0
C346 C 0.27088 0.69828 0.02118 0.0
C347 C 0.29577 0.62706 1.0106 0.0
C348 C 0.36209 0.71457 0.03534 0.0
C349 C 0.40801 0.7522 0.02061 0.0
C350 C 0.45602 0.78104 0.03652 0.0
C351 C 0.45702 0.77136 0.06839 0.0
C352 C 0.41026 0.73329 0.084 0.0
C353 C 0.3623 0.70468 0.0671 0.0
H354 H 0.62887 0.32316 0.4216 0.0
H355 H 0.78374 0.46782 0.42122 0.0
H356 H 0.78437 0.46694 0.36405 0.0
H357 H 0.64983 0.26009 0.35342 0.0
H358 H 0.58296 0.23402 0.33922 0.0
H359 H 0.59611 0.24347 0.38026 0.0
H360 H 0.55248 0.30269 0.38233 0.0
H361 H 0.53972 0.29391 0.34125 0.0
H362 H 0.57697 0.36035 0.35728 0.0
H363 H 0.76854 0.45225 0.30785 0.0
H364 H 0.73692 0.42456 0.25445 0.0
H365 H 0.58952 0.29174 0.28968 0.0
C366 C 0.66325 0.35394 0.40938 0.0
C367 C 0.70656 0.3953 0.42571 0.0
C368 C 0.75031 0.43574 0.40907 0.0
C369 C 0.75103 0.43558 0.37664 0.0
C370 C 0.70737 0.39504 0.36117 0.0
C371 C 0.66421 0.35493 0.37682 0.0
C372 C 0.62151 0.31765 0.35424 0.0
C373 C 0.61206 0.26042 0.35695 0.0
C374 C 0.56961 0.31874 0.35907 0.0
C375 C 0.64758 0.34322 0.32354 0.0
C376 C 0.69724 0.38759 0.32827 0.0
C377 C 0.72973 0.41762 0.30379 0.0
C378 C 0.71138 0.40154 0.27355 0.0
C379 C 0.66074 0.35615 0.26795 0.0
C380 C 0.62814 0.32695 0.29332 0.0
H381 H 0.30279 0.72285 0.73258 0.0
H382 H 0.32798 0.59635 0.76791 0.0
H383 H 0.33439 0.57019 0.71443 0.0
H384 H 0.22354 0.65109 0.66628 0.0
H385 H 0.25265 0.7086 0.64097 0.0
H386 H 0.24948 0.71734 0.68212 0.0
H387 H 0.35142 0.78208 0.68319 0.0
H388 H 0.35496 0.77321 0.64206 0.0
H389 H 0.39521 0.75994 0.66838 0.0
H390 H 0.33476 0.55514 0.65787 0.0
H391 H 0.33062 0.55306 0.60069 0.0
H392 H 0.31055 0.69219 0.60087 0.0
C393 C 0.30934 0.68948 0.729 0.0
C394 C 0.31469 0.66149 0.75442 0.0
C395 C 0.32385 0.61843 0.74881 0.0
C396 C 0.32757 0.60325 0.71852 0.0
C397 C 0.32267 0.63188 0.69401 0.0
C398 C 0.31395 0.67419 0.69878 0.0
C399 C 0.31069 0.69836 0.66813 0.0
C400 C 0.25582 0.69354 0.66415 0.0
C401 C 0.35576 0.75687 0.66528 0.0
C402 C 0.31833 0.66257 0.64548 0.0
C403 C 0.32498 0.62442 0.66102 0.0
C404 C 0.33014 0.58511 0.64539 0.0
C405 C 0.32773 0.58423 0.61296 0.0
C406 C 0.32091 0.6228 0.59647 0.0
C407 C 0.31692 0.66295 0.61294 0.0
loop_
_geom_bond_atom_site_label_1
_geom_bond_atom_site_label_2
_geom_bond_distance
_geom_bond_site_symmetry_2
_ccdc_geom_bond_type
C0 O2 1.247 . S
C0 O4 1.258 . S
C1 O8 1.247 . S
C1 O9 1.258 . S
O2 C0 1.247 . S
O2 Zn3 2.028 . S
Zn3 O2 2.028 . S
Zn3 O7 2.035 . S
Zn3 O9 2.035 . S
Zn3 O10 2.028 . S
O4 C0 1.258 . S
O4 Zn5 2.035 . S
Zn5 O4 2.035 . S
Zn5 O6 2.028 . S
Zn5 O8 2.028 . S
Zn5 O11 2.035 . S
O6 Zn5 2.028 . S
O6 C12 1.247 . S
O7 Zn3 2.035 . S
O7 C12 1.258 . S
O8 C1 1.247 . S
O8 Zn5 2.028 . S
O9 C1 1.258 . S
O9 Zn3 2.035 . S
O10 Zn3 2.028 . S
O10 C13 1.247 . S
O11 Zn5 2.035 . S
O11 C13 1.258 . S
C12 O6 1.247 . S
C12 O7 1.258 . S
C13 O10 1.247 . S
C13 O11 1.258 . S
C14 O16 1.247 . S
C14 O18 1.258 . S
C15 O22 1.247 . S
C15 O23 1.258 . S
O16 C14 1.247 . S
O16 Zn17 2.028 . S
Zn17 O16 2.028 . S
Zn17 O21 2.035 . S
Zn17 O23 2.035 . S
Zn17 O24 2.028 . S
O18 C14 1.258 . S
O18 Zn19 2.035 . S
Zn19 O18 2.035 . S
Zn19 O20 2.028 . S
Zn19 O22 2.028 . S
Zn19 O25 2.035 . S
O20 Zn19 2.028 . S
O20 C26 1.247 . S
O21 Zn17 2.035 . S
O21 C26 1.258 . S
O22 C15 1.247 . S
O22 Zn19 2.028 . S
O23 C15 1.258 . S
O23 Zn17 2.035 . S
O24 Zn17 2.028 . S
O24 C27 1.247 . S
O25 Zn19 2.035 . S
O25 C27 1.258 . S
C26 O20 1.247 . S
C26 O21 1.258 . S
C27 O24 1.247 . S
C27 O25 1.258 . S
C28 O30 1.247 . S
C28 O32 1.258 . S
C29 O36 1.247 . S
C29 O37 1.258 . S
O30 C28 1.247 . S
O30 Zn31 2.028 . S
Zn31 O30 2.028 . S
Zn31 O35 2.035 . S
Zn31 O37 2.035 . S
Zn31 O38 2.028 . S
O32 C28 1.258 . S
O32 Zn33 2.035 . S
Zn33 O32 2.035 . S
Zn33 O34 2.028 . S
Zn33 O36 2.028 . S
Zn33 O39 2.035 . S
O34 Zn33 2.028 . S
O34 C40 1.247 . S
O35 Zn31 2.035 . S
O35 C40 1.258 . S
O36 C29 1.247 . S
O36 Zn33 2.028 . S
O37 C29 1.258 . S
O37 Zn31 2.035 . S
O38 Zn31 2.028 . S
O38 C41 1.247 . S
O39 Zn33 2.035 . S
O39 C41 1.258 . S
C40 O34 1.247 . S
C40 O35 1.258 . S
C41 O38 1.247 . S
C41 O39 1.258 . S
C42 O44 1.247 . S
C42 O46 1.258 . S
C43 O50 1.247 . S
C43 O51 1.258 . S
O44 C42 1.247 . S
O44 Zn45 2.028 . S
Zn45 O44 2.028 . S
Zn45 O49 2.035 . S
Zn45 O51 2.035 . S
Zn45 O52 2.028 . S
O46 C42 1.258 . S
O46 Zn47 2.035 . S
Zn47 O46 2.035 . S
Zn47 O48 2.028 . S
Zn47 O50 2.028 . S
Zn47 O53 2.035 . S
O48 Zn47 2.028 . S
O48 C54 1.247 . S
O49 Zn45 2.035 . S
O49 C54 1.258 . S
O50 C43 1.247 . S
O50 Zn47 2.028 . S
O51 C43 1.258 . S
O51 Zn45 2.035 . S
O52 Zn45 2.028 . S
O52 C55 1.247 . S
O53 Zn47 2.035 . S
O53 C55 1.258 . S
C54 O48 1.247 . S
C54 O49 1.258 . S
C55 O52 1.247 . S
C55 O53 1.258 . S
C56 O58 1.247 . S
C56 O60 1.258 . S
C57 O64 1.247 . S
C57 O65 1.258 . S
O58 C56 1.247 . S
O58 Zn59 2.028 . S
Zn59 O58 2.028 . S
Zn59 O63 2.035 . S
Zn59 O65 2.035 . S
Zn59 O66 2.028 . S
O60 C56 1.258 . S
O60 Zn61 2.035 . S
Zn61 O60 2.035 . S
Zn61 O62 2.028 . S
Zn61 O64 2.028 . S
Zn61 O67 2.035 . S
O62 Zn61 2.028 . S
O62 C68 1.247 . S
O63 Zn59 2.035 . S
O63 C68 1.258 . S
O64 C57 1.247 . S
O64 Zn61 2.028 . S
O65 C57 1.258 . S
O65 Zn59 2.035 . S
O66 Zn59 2.028 . S
O66 C69 1.247 . S
O67 Zn61 2.035 . S
O67 C69 1.258 . S
C68 O62 1.247 . S
C68 O63 1.258 . S
C69 O66 1.247 . S
C69 O67 1.258 . S
C70 O72 1.247 . S
C70 O74 1.258 . S
C71 O78 1.247 . S
C71 O79 1.258 . S
O72 C70 1.247 . S
O72 Zn73 2.028 . S
Zn73 O72 2.028 . S
Zn73 O77 2.035 . S
Zn73 O79 2.035 . S
Zn73 O80 2.028 . S
O74 C70 1.258 . S
O74 Zn75 2.035 . S
Zn75 O74 2.035 . S
Zn75 O76 2.028 . S
Zn75 O78 2.028 . S
Zn75 O81 2.035 . S
O76 Zn75 2.028 . S
O76 C82 1.247 . S
O77 Zn73 2.035 . S
O77 C82 1.258 . S
O78 C71 1.247 . S
O78 Zn75 2.028 . S
O79 C71 1.258 . S
O79 Zn73 2.035 . S
O80 Zn73 2.028 . S
O80 C83 1.247 . S
O81 Zn75 2.035 . S
O81 C83 1.258 . S
C82 O76 1.247 . S
C82 O77 1.258 . S
C83 O80 1.247 . S
C83 O81 1.258 . S
H84 C96 0.930 . S
H85 C98 0.930 . S
H86 C99 0.930 . S
H87 C103 0.959 . S
H88 C103 0.959 1_565 S
H89 C103 0.961 . S
H90 C104 0.960 . S
H91 C104 0.961 1_565 S
H92 C104 0.959 1_565 S
H93 C107 0.929 . S
H94 C108 0.931 . S
H95 C110 0.930 . S
C96 H84 0.930 . S
C96 C97 1.399 . S
C96 C101 1.399 . S
C97 C96 1.399 . S
C97 C98 1.376 . S
C98 H85 0.930 . S
C98 C97 1.376 . S
C98 C99 1.388 . S
C99 H86 0.930 . S
C99 C98 1.388 . S
C99 C100 1.390 . S
C100 C99 1.390 . S
C100 C101 1.394 . S
C100 C106 1.465 1_545 S
C101 C96 1.399 . S
C101 C100 1.394 . S
C101 C102 1.516 . S
C102 C101 1.516 . S
C102 C103 1.502 . S
C102 C104 1.561 . S
C102 C105 1.526 1_545 S
C103 H87 0.959 . S
C103 H88 0.959 1_545 S
C103 H89 0.961 . S
C103 C102 1.502 . S
C104 H90 0.960 . S
C104 H91 0.961 1_545 S
C104 H92 0.959 1_545 S
C104 C102 1.561 . S
C105 C102 1.526 1_565 S
C105 C106 1.396 . S
C105 C110 1.390 . S
C106 C100 1.465 1_565 S
C106 C105 1.396 . S
C106 C107 1.399 . S
C107 H93 0.929 . S
C107 C106 1.399 . S
C107 C108 1.385 . S
C108 H94 0.931 . S
C108 C107 1.385 . S
C108 C109 1.389 . S
C109 C108 1.389 . S
C109 C110 1.387 . S
C110 H95 0.930 . S
C110 C105 1.390 . S
C110 C109 1.387 . S
H111 C123 0.930 . S
H112 C125 0.930 . S
H113 C126 0.930 . S
H114 C130 0.959 . S
H115 C130 0.959 . S
H116 C130 0.961 . S
H117 C131 0.960 . S
H118 C131 0.961 . S
H119 C131 0.959 . S
H120 C134 0.929 . S
H121 C135 0.931 . S
H122 C137 0.930 . S
C123 H111 0.930 . S
C123 C124 1.399 . S
C123 C128 1.399 . S
C124 C123 1.399 . S
C124 C125 1.376 . S
C125 H112 0.930 . S
C125 C124 1.376 . S
C125 C126 1.388 . S
C126 H113 0.930 . S
C126 C125 1.388 . S
C126 C127 1.390 . S
C127 C126 1.390 . S
C127 C128 1.394 . S
C127 C133 1.465 . S
C128 C123 1.399 . S
C128 C127 1.394 . S
C128 C129 1.516 . S
C129 C128 1.516 . S
C129 C130 1.502 . S
C129 C131 1.561 . S
C129 C132 1.526 . S
C130 H114 0.959 . S
C130 H115 0.959 . S
C130 H116 0.961 . S
C130 C129 1.502 . S
C131 H117 0.960 . S
C131 H118 0.961 . S
C131 H119 0.959 . S
C131 C129 1.561 . S
C132 C129 1.526 . S
C132 C133 1.396 . S
C132 C137 1.390 . S
C133 C127 1.465 . S
C133 C132 1.396 . S
C133 C134 1.399 . S
C134 H120 0.929 . S
C134 C133 1.399 . S
C134 C135 1.385 . S
C135 H121 0.931 . S
C135 C134 1.385 . S
C135 C136 1.389 . S
C136 C135 1.389 . S
C136 C137 1.387 . S
C137 H122 0.930 . S
C137 C132 1.390 . S
C137 C136 1.387 . S
H138 C150 0.930 . S
H139 C152 0.930 . S
H140 C153 0.930 . S
H141 C157 0.959 . S
H142 C157 0.959 . S
H143 C157 0.961 1_655 S
H144 C158 0.960 . S
H145 C158 0.961 1_455 S
H146 C158 0.959 . S
H147 C161 0.929 . S
H148 C162 0.931 . S
H149 C164 0.930 . S
C150 H138 0.930 . S
C150 C151 1.399 . S
C150 C155 1.399 . S
C151 C150 1.399 . S
C151 C152 1.376 . S
C152 H139 0.930 . S
C152 C151 1.376 . S
C152 C153 1.388 . S
C153 H140 0.930 . S
C153 C152 1.388 . S
C153 C154 1.390 . S
C154 C153 1.390 . S
C154 C155 1.394 . S
C154 C160 1.465 1_655 S
C155 C150 1.399 . S
C155 C154 1.394 . S
C155 C156 1.516 1_655 S
C156 C155 1.516 1_455 S
C156 C157 1.502 . S
C156 C158 1.561 1_455 S
C156 C159 1.526 . S
C157 H141 0.959 . S
C157 H142 0.959 . S
C157 H143 0.961 1_455 S
C157 C156 1.502 . S
C158 H144 0.960 . S
C158 H145 0.961 1_655 S
C158 H146 0.959 . S
C158 C156 1.561 1_655 S
C159 C156 1.526 . S
C159 C160 1.396 . S
C159 C164 1.390 . S
C160 C154 1.465 1_455 S
C160 C159 1.396 . S
C160 C161 1.399 . S
C161 H147 0.929 . S
C161 C160 1.399 . S
C161 C162 1.385 . S
C162 H148 0.931 . S
C162 C161 1.385 . S
C162 C163 1.389 . S
C163 C162 1.389 . S
C163 C164 1.387 . S
C164 H149 0.930 . S
C164 C159 1.390 . S
C164 C163 1.387 . S
H165 C177 0.930 . S
H166 C179 0.930 . S
H167 C180 0.930 . S
H168 C184 0.959 . S
H169 C184 0.959 1_655 S
H170 C184 0.961 . S
H171 C185 0.960 1_455 S
H172 C185 0.961 . S
H173 C185 0.959 . S
H174 C188 0.929 . S
H175 C189 0.931 . S
H176 C191 0.930 . S
C177 H165 0.930 . S
C177 C178 1.399 . S
C177 C182 1.399 . S
C178 C177 1.399 . S
C178 C179 1.376 . S
C179 H166 0.930 . S
C179 C178 1.376 . S
C179 C180 1.388 . S
C180 H167 0.930 . S
C180 C179 1.388 . S
C180 C181 1.390 . S
C181 C180 1.390 . S
C181 C182 1.394 . S
C181 C187 1.465 1_455 S
C182 C177 1.399 . S
C182 C181 1.394 . S
C182 C183 1.516 . S
C183 C182 1.516 . S
C183 C184 1.502 . S
C183 C185 1.561 1_455 S
C183 C186 1.526 1_455 S
C184 H168 0.959 . S
C184 H169 0.959 1_455 S
C184 H170 0.961 . S
C184 C183 1.502 . S
C185 H171 0.960 1_655 S
C185 H172 0.961 . S
C185 H173 0.959 . S
C185 C183 1.561 1_655 S
C186 C183 1.526 1_655 S
C186 C187 1.396 . S
C186 C191 1.390 . S
C187 C181 1.465 1_655 S
C187 C186 1.396 . S
C187 C188 1.399 . S
C188 H174 0.929 . S
C188 C187 1.399 . S
C188 C189 1.385 . S
C189 H175 0.931 . S
C189 C188 1.385 . S
C189 C190 1.389 . S
C190 C189 1.389 . S
C190 C191 1.387 . S
C191 H176 0.930 . S
C191 C186 1.390 . S
C191 C190 1.387 . S
H192 C204 0.930 . S
H193 C206 0.930 . S
H194 C207 0.930 . S
H195 C211 0.959 . S
H196 C211 0.959 1_545 S
H197 C211 0.961 . S
H198 C212 0.960 1_565 S
H199 C212 0.961 . S
H200 C212 0.959 . S
H201 C215 0.929 . S
H202 C216 0.931 . S
H203 C218 0.930 . S
C204 H192 0.930 . S
C204 C205 1.399 . S
C204 C209 1.399 . S
C205 C204 1.399 . S
C205 C206 1.376 . S
C206 H193 0.930 . S
C206 C205 1.376 . S
C206 C207 1.388 . S
C207 H194 0.930 . S
C207 C206 1.388 . S
C207 C208 1.390 . S
C208 C207 1.390 . S
C208 C209 1.394 . S
C208 C214 1.465 1_565 S
C209 C204 1.399 . S
C209 C208 1.394 . S
C209 C210 1.516 . S
C210 C209 1.516 . S
C210 C211 1.502 . S
C210 C212 1.561 1_565 S
C210 C213 1.526 1_565 S
C211 H195 0.959 . S
C211 H196 0.959 1_565 S
C211 H197 0.961 . S
C211 C210 1.502 . S
C212 H198 0.960 1_545 S
C212 H199 0.961 . S
C212 H200 0.959 . S
C212 C210 1.561 1_545 S
C213 C210 1.526 1_545 S
C213 C214 1.396 . S
C213 C218 1.390 . S
C214 C208 1.465 1_545 S
C214 C213 1.396 . S
C214 C215 1.399 . S
C215 H201 0.929 . S
C215 C214 1.399 . S
C215 C216 1.385 . S
C216 H202 0.931 . S
C216 C215 1.385 . S
C216 C217 1.389 . S
C217 C216 1.389 . S
C217 C218 1.387 . S
C218 H203 0.930 . S
C218 C213 1.390 . S
C218 C217 1.387 . S
H219 C231 0.930 . S
H220 C233 0.930 . S
H221 C234 0.930 . S
H222 C238 0.959 . S
H223 C238 0.959 . S
H224 C238 0.961 . S
H225 C239 0.960 . S
H226 C239 0.961 . S
H227 C239 0.959 . S
H228 C242 0.929 . S
H229 C243 0.931 . S
H230 C245 0.930 . S
C231 H219 0.930 . S
C231 C232 1.399 . S
C231 C236 1.399 . S
C232 C231 1.399 . S
C232 C233 1.376 . S
C233 H220 0.930 . S
C233 C232 1.376 . S
C233 C234 1.388 . S
C234 H221 0.930 . S
C234 C233 1.388 . S
C234 C235 1.390 . S
C235 C234 1.390 . S
C235 C236 1.394 . S
C235 C241 1.465 . S
C236 C231 1.399 . S
C236 C235 1.394 . S
C236 C237 1.516 . S
C237 C236 1.516 . S
C237 C238 1.502 . S
C237 C239 1.561 . S
C237 C240 1.526 . S
C238 H222 0.959 . S
C238 H223 0.959 . S
C238 H224 0.961 . S
C238 C237 1.502 . S
C239 H225 0.960 . S
C239 H226 0.961 . S
C239 H227 0.959 . S
C239 C237 1.561 . S
C240 C237 1.526 . S
C240 C241 1.396 . S
C240 C245 1.390 . S
C241 C235 1.465 . S
C241 C240 1.396 . S
C241 C242 1.399 . S
C242 H228 0.929 . S
C242 C241 1.399 . S
C242 C243 1.385 . S
C243 H229 0.931 . S
C243 C242 1.385 . S
C243 C244 1.389 . S
C244 C243 1.389 . S
C244 C245 1.387 . S
C245 H230 0.930 . S
C245 C240 1.390 . S
C245 C244 1.387 . S
H246 C258 0.930 . S
H247 C260 0.930 . S
H248 C261 0.930 . S
H249 C265 0.959 . S
H250 C265 0.959 . S
H251 C265 0.961 . S
H252 C266 0.960 1_556 S
H253 C266 0.961 . S
H254 C266 0.959 . S
H255 C269 0.929 . S
H256 C270 0.931 . S
H257 C272 0.930 . S
C258 H246 0.930 . S
C258 C259 1.399 . S
C258 C263 1.399 . S
C259 C258 1.399 . S
C259 C260 1.376 . S
C260 H247 0.930 . S
C260 C259 1.376 . S
C260 C261 1.388 . S
C261 H248 0.930 . S
C261 C260 1.388 . S
C261 C262 1.390 . S
C262 C261 1.390 . S
C262 C263 1.394 . S
C262 C268 1.465 1_556 S
C263 C258 1.399 . S
C263 C262 1.394 . S
C263 C264 1.516 . S
C264 C263 1.516 . S
C264 C265 1.502 . S
C264 C266 1.561 1_556 S
C264 C267 1.526 1_556 S
C265 H249 0.959 . S
C265 H250 0.959 . S
C265 H251 0.961 . S
C265 C264 1.502 . S
C266 H252 0.960 1_554 S
C266 H253 0.961 . S
C266 H254 0.959 . S
C266 C264 1.561 1_554 S
C267 C264 1.526 1_554 S
C267 C268 1.396 . S
C267 C272 1.390 . S
C268 C262 1.465 1_554 S
C268 C267 1.396 . S
C268 C269 1.399 . S
C269 H255 0.929 . S
C269 C268 1.399 . S
C269 C270 1.385 . S
C270 H256 0.931 . S
C270 C269 1.385 . S
C270 C271 1.389 . S
C271 C270 1.389 . S
C271 C272 1.387 . S
C272 H257 0.930 . S
C272 C267 1.390 . S
C272 C271 1.387 . S
H273 C285 0.930 . S
H274 C287 0.930 . S
H275 C288 0.930 . S
H276 C292 0.959 . S
H277 C292 0.959 . S
H278 C292 0.961 . S
H279 C293 0.960 . S
H280 C293 0.961 . S
H281 C293 0.959 . S
H282 C296 0.929 . S
H283 C297 0.931 . S
H284 C299 0.930 . S
C285 H273 0.930 . S
C285 C286 1.399 . S
C285 C290 1.399 . S
C286 C285 1.399 . S
C286 C287 1.376 . S
C287 H274 0.930 . S
C287 C286 1.376 . S
C287 C288 1.388 . S
C288 H275 0.930 . S
C288 C287 1.388 . S
C288 C289 1.390 . S
C289 C288 1.390 . S
C289 C290 1.394 . S
C289 C295 1.465 . S
C290 C285 1.399 . S
C290 C289 1.394 . S
C290 C291 1.516 . S
C291 C290 1.516 . S
C291 C292 1.502 . S
C291 C293 1.561 . S
C291 C294 1.526 . S
C292 H276 0.959 . S
C292 H277 0.959 . S
C292 H278 0.961 . S
C292 C291 1.502 . S
C293 H279 0.960 . S
C293 H280 0.961 . S
C293 H281 0.959 . S
C293 C291 1.561 . S
C294 C291 1.526 . S
C294 C295 1.396 . S
C294 C299 1.390 . S
C295 C289 1.465 . S
C295 C294 1.396 . S
C295 C296 1.399 . S
C296 H282 0.929 . S
C296 C295 1.399 . S
C296 C297 1.385 . S
C297 H283 0.931 . S
C297 C296 1.385 . S
C297 C298 1.389 . S
C298 C297 1.389 . S
C298 C299 1.387 . S
C299 H284 0.930 . S
C299 C294 1.390 . S
C299 C298 1.387 . S
H300 C312 0.930 . S
H301 C314 0.930 . S
H302 C315 0.930 . S
H303 C319 0.959 . S
H304 C319 0.959 . S
H305 C319 0.961 . S
H306 C320 0.960 . S
H307 C320 0.961 . S
H308 C320 0.959 . S
H309 C323 0.929 . S
H310 C324 0.931 . S
H311 C326 0.930 . S
C312 H300 0.930 . S
C312 C313 1.399 . S
C312 C317 1.399 . S
C313 C312 1.399 . S
C313 C314 1.376 . S
C314 H301 0.930 . S
C314 C313 1.376 . S
C314 C315 1.388 . S
C315 H302 0.930 . S
C315 C314 1.388 . S
C315 C316 1.390 . S
C316 C315 1.390 . S
C316 C317 1.394 . S
C316 C322 1.465 . S
C317 C312 1.399 . S
C317 C316 1.394 . S
C317 C318 1.516 . S
C318 C317 1.516 . S
C318 C319 1.502 . S
C318 C320 1.561 . S
C318 C321 1.526 . S
C319 H303 0.959 . S
C319 H304 0.959 . S
C319 H305 0.961 . S
C319 C318 1.502 . S
C320 H306 0.960 . S
C320 H307 0.961 . S
C320 H308 0.959 . S
C320 C318 1.561 . S
C321 C318 1.526 . S
C321 C322 1.396 . S
C321 C326 1.390 . S
C322 C316 1.465 . S
C322 C321 1.396 . S
C322 C323 1.399 . S
C323 H309 0.929 . S
C323 C322 1.399 . S
C323 C324 1.385 . S
C324 H310 0.931 . S
C324 C323 1.385 . S
C324 C325 1.389 . S
C325 C324 1.389 . S
C325 C326 1.387 . S
C326 H311 0.930 . S
C326 C321 1.390 . S
C326 C325 1.387 . S
H327 C339 0.930 . S
H328 C341 0.930 . S
H329 C342 0.930 . S
H330 C346 0.959 . S
H331 C346 0.959 . S
H332 C346 0.961 . S
H333 C347 0.960 . S
H334 C347 0.961 1_554 S
H335 C347 0.959 . S
H336 C350 0.929 . S
H337 C351 0.931 . S
H338 C353 0.930 . S
C339 H327 0.930 . S
C339 C340 1.399 . S
C339 C344 1.399 . S
C340 C339 1.399 . S
C340 C341 1.376 . S
C341 H328 0.930 . S
C341 C340 1.376 . S
C341 C342 1.388 . S
C342 H329 0.930 . S
C342 C341 1.388 . S
C342 C343 1.390 . S
C343 C342 1.390 . S
C343 C344 1.394 . S
C343 C349 1.465 1_556 S
C344 C339 1.399 . S
C344 C343 1.394 . S
C344 C345 1.516 1_556 S
C345 C344 1.516 1_554 S
C345 C346 1.502 . S
C345 C347 1.561 1_554 S
C345 C348 1.526 . S
C346 H330 0.959 . S
C346 H331 0.959 . S
C346 H332 0.961 . S
C346 C345 1.502 . S
C347 H333 0.960 . S
C347 H334 0.961 1_556 S
C347 H335 0.959 . S
C347 C345 1.561 1_556 S
C348 C345 1.526 . S
C348 C349 1.396 . S
C348 C353 1.390 . S
C349 C343 1.465 1_554 S
C349 C348 1.396 . S
C349 C350 1.399 . S
C350 H336 0.929 . S
C350 C349 1.399 . S
C350 C351 1.385 . S
C351 H337 0.931 . S
C351 C350 1.385 . S
C351 C352 1.389 . S
C352 C351 1.389 . S
C352 C353 1.387 . S
C353 H338 0.930 . S
C353 C348 1.390 . S
C353 C352 1.387 . S
H354 C366 0.930 . S
H355 C368 0.930 . S
H356 C369 0.930 . S
H357 C373 0.959 . S
H358 C373 0.959 . S
H359 C373 0.961 . S
H360 C374 0.960 . S
H361 C374 0.961 . S
H362 C374 0.959 . S
H363 C377 0.929 . S
H364 C378 0.931 . S
H365 C380 0.930 . S
C366 H354 0.930 . S
C366 C367 1.399 . S
C366 C371 1.399 . S
C367 C366 1.399 . S
C367 C368 1.376 . S
C368 H355 0.930 . S
C368 C367 1.376 . S
C368 C369 1.388 . S
C369 H356 0.930 . S
C369 C368 1.388 . S
C369 C370 1.390 . S
C370 C369 1.390 . S
C370 C371 1.394 . S
C370 C376 1.465 . S
C371 C366 1.399 . S
C371 C370 1.394 . S
C371 C372 1.516 . S
C372 C371 1.516 . S
C372 C373 1.502 . S
C372 C374 1.561 . S
C372 C375 1.526 . S
C373 H357 0.959 . S
C373 H358 0.959 . S
C373 H359 0.961 . S
C373 C372 1.502 . S
C374 H360 0.960 . S
C374 H361 0.961 . S
C374 H362 0.959 . S
C374 C372 1.561 . S
C375 C372 1.526 . S
C375 C376 1.396 . S
C375 C380 1.390 . S
C376 C370 1.465 . S
C376 C375 1.396 . S
C376 C377 1.399 . S
C377 H363 0.929 . S
C377 C376 1.399 . S
C377 C378 1.385 . S
C378 H364 0.931 . S
C378 C377 1.385 . S
C378 C379 1.389 . S
C379 C378 1.389 . S
C379 C380 1.387 . S
C380 H365 0.930 . S
C380 C375 1.390 . S
C380 C379 1.387 . S
H381 C393 0.930 . S
H382 C395 0.930 . S
H383 C396 0.930 . S
H384 C400 0.959 . S
H385 C400 0.959 . S
H386 C400 0.961 . S
H387 C401 0.960 . S
H388 C401 0.961 . S
H389 C401 0.959 . S
H390 C404 0.929 . S
H391 C405 0.931 . S
H392 C407 0.930 . S
C393 H381 0.930 . S
C393 C394 1.399 . S
C393 C398 1.399 . S
C394 C393 1.399 . S
C394 C395 1.376 . S
C395 H382 0.930 . S
C395 C394 1.376 . S
C395 C396 1.388 . S
C396 H383 0.930 . S
C396 C395 1.388 . S
C396 C397 1.390 . S
C397 C396 1.390 . S
C397 C398 1.394 . S
C397 C403 1.465 . S
C398 C393 1.399 . S
C398 C397 1.394 . S
C398 C399 1.516 . S
C399 C398 1.516 . S
C399 C400 1.502 . S
C399 C401 1.561 . S
C399 C402 1.526 . S
C400 H384 0.959 . S
C400 H385 0.959 . S
C400 H386 0.961 . S
C400 C399 1.502 . S
C401 H387 0.960 . S
C401 H388 0.961 . S
C401 H389 0.959 . S
C401 C399 1.561 . S
C402 C399 1.526 . S
C402 C403 1.396 . S
C402 C407 1.390 . S
C403 C397 1.465 . S
C403 C402 1.396 . S
C403 C404 1.399 . S
C404 H390 0.929 . S
C404 C403 1.399 . S
C404 C405 1.385 . S
C405 H391 0.931 . S
C405 C404 1.385 . S
C405 C406 1.389 . S
C406 C405 1.389 . S
C406 C407 1.387 . S
C407 H392 0.930 . S
C407 C402 1.390 . S
C407 C406 1.387 . S
C97 C1 1.679 . S
C109 C54 1.721 . S
C124 C26 1.683 . S
C136 C56 1.715 . S
C151 C40 1.710 . S
C163 C71 1.687 . S
C178 C27 1.687 . S
C190 C57 1.716 . S
C205 C70 1.685 . S
C217 C41 1.715 . S
C232 C55 1.713 . S
C244 C0 1.683 . S
C259 C28 1.778 . S
C271 C12 1.753 . S
C286 C42 1.750 . S
C298 C15 1.794 . S
C313 C29 1.752 . S
C325 C68 1.791 . S
C340 C83 1.768 . S
C352 C43 1.795 . S
C367 C69 1.797 . S
C379 C13 1.758 . S
C394 C82 1.749 . S
C406 C14 1.785 . S
