# Generated by pormake.
# Topology wmc, (6)-cn, num edge types: 1
# Building blocks:
#     Node 0, Type 0, BuildingBlock: IZENUY_clean_sbu_0, # of connection points: 6
#     Node 1, Type 0, BuildingBlock: IZENUY_clean_sbu_0, # of connection points: 6
#     Node 2, Type 0, BuildingBlock: IZENUY_clean_sbu_0, # of connection points: 6
#     Node 3, Type 0, BuildingBlock: IZENUY_clean_sbu_0, # of connection points: 6
#     Node 4, Type 0, BuildingBlock: IZENUY_clean_sbu_0, # of connection points: 6
#     Node 5, Type 0, BuildingBlock: IZENUY_clean_sbu_0, # of connection points: 6
#     Node 6, Type 0, BuildingBlock: IZENUY_clean_sbu_0, # of connection points: 6
#     Node 7, Type 0, BuildingBlock: IZENUY_clean_sbu_0, # of connection points: 6
#     Node 8, Type 0, BuildingBlock: IZENUY_clean_sbu_0, # of connection points: 6
#     Node 9, Type 0, BuildingBlock: IZENUY_clean_sbu_0, # of connection points: 6
#     Node 10, Type 0, BuildingBlock: IZENUY_clean_sbu_0, # of connection points: 6
#     Node 11, Type 0, BuildingBlock: IZENUY_clean_sbu_0, # of connection points: 6
#     Node 12, Type 0, BuildingBlock: IZENUY_clean_sbu_0, # of connection points: 6
#     Node 13, Type 0, BuildingBlock: IZENUY_clean_sbu_0, # of connection points: 6
#     Node 14, Type 0, BuildingBlock: IZENUY_clean_sbu_0, # of connection points: 6
#     Node 15, Type 0, BuildingBlock: IZENUY_clean_sbu_0, # of connection points: 6
#     Node 16, Type 0, BuildingBlock: IZENUY_clean_sbu_0, # of connection points: 6
#     Node 17, Type 0, BuildingBlock: IZENUY_clean_sbu_0, # of connection points: 6
#     Edge 18, Type (0, 0), BuildingBlock: KIFKEQ_clean_linker_1, # of connection points: 2
#     Edge 19, Type (0, 0), BuildingBlock: KIFKEQ_clean_linker_1, # of connection points: 2
#     Edge 20, Type (0, 0), BuildingBlock: KIFKEQ_clean_linker_1, # of connection points: 2
#     Edge 21, Type (0, 0), BuildingBlock: KIFKEQ_clean_linker_1, # of connection points: 2
#     Edge 22, Type (0, 0), BuildingBlock: KIFKEQ_clean_linker_1, # of connection points: 2
#     Edge 23, Type (0, 0), BuildingBlock: KIFKEQ_clean_linker_1, # of connection points: 2
#     Edge 24, Type (0, 0), BuildingBlock: KIFKEQ_clean_linker_1, # of connection points: 2
#     Edge 25, Type (0, 0), BuildingBlock: KIFKEQ_clean_linker_1, # of connection points: 2
#     Edge 26, Type (0, 0), BuildingBlock: KIFKEQ_clean_linker_1, # of connection points: 2
#     Edge 27, Type (0, 0), BuildingBlock: KIFKEQ_clean_linker_1, # of connection points: 2
#     Edge 28, Type (0, 0), BuildingBlock: KIFKEQ_clean_linker_1, # of connection points: 2
#     Edge 29, Type (0, 0), BuildingBlock: KIFKEQ_clean_linker_1, # of connection points: 2
#     Edge 30, Type (0, 0), BuildingBlock: KIFKEQ_clean_linker_1, # of connection points: 2
#     Edge 31, Type (0, 0), BuildingBlock: KIFKEQ_clean_linker_1, # of connection points: 2
#     Edge 32, Type (0, 0), BuildingBlock: KIFKEQ_clean_linker_1, # of connection points: 2
#     Edge 33, Type (0, 0), BuildingBlock: KIFKEQ_clean_linker_1, # of connection points: 2
#     Edge 34, Type (0, 0), BuildingBlock: KIFKEQ_clean_linker_1, # of connection points: 2
#     Edge 35, Type (0, 0), BuildingBlock: KIFKEQ_clean_linker_1, # of connection points: 2
#     Edge 36, Type (0, 0), BuildingBlock: KIFKEQ_clean_linker_1, # of connection points: 2
#     Edge 37, Type (0, 0), BuildingBlock: KIFKEQ_clean_linker_1, # of connection points: 2
#     Edge 38, Type (0, 0), BuildingBlock: KIFKEQ_clean_linker_1, # of connection points: 2
#     Edge 39, Type (0, 0), BuildingBlock: KIFKEQ_clean_linker_1, # of connection points: 2
#     Edge 40, Type (0, 0), BuildingBlock: KIFKEQ_clean_linker_1, # of connection points: 2
#     Edge 41, Type (0, 0), BuildingBlock: KIFKEQ_clean_linker_1, # of connection points: 2
#     Edge 42, Type (0, 0), BuildingBlock: KIFKEQ_clean_linker_1, # of connection points: 2
#     Edge 43, Type (0, 0), BuildingBlock: KIFKEQ_clean_linker_1, # of connection points: 2
#     Edge 44, Type (0, 0), BuildingBlock: KIFKEQ_clean_linker_1, # of connection points: 2
#     Edge 45, Type (0, 0), BuildingBlock: KIFKEQ_clean_linker_1, # of connection points: 2
#     Edge 46, Type (0, 0), BuildingBlock: KIFKEQ_clean_linker_1, # of connection points: 2
#     Edge 47, Type (0, 0), BuildingBlock: KIFKEQ_clean_linker_1, # of connection points: 2
#     Edge 48, Type (0, 0), BuildingBlock: KIFKEQ_clean_linker_1, # of connection points: 2
#     Edge 49, Type (0, 0), BuildingBlock: KIFKEQ_clean_linker_1, # of connection points: 2
#     Edge 50, Type (0, 0), BuildingBlock: KIFKEQ_clean_linker_1, # of connection points: 2
#     Edge 51, Type (0, 0), BuildingBlock: KIFKEQ_clean_linker_1, # of connection points: 2
#     Edge 52, Type (0, 0), BuildingBlock: KIFKEQ_clean_linker_1, # of connection points: 2
#     Edge 53, Type (0, 0), BuildingBlock: KIFKEQ_clean_linker_1, # of connection points: 2
#     Edge 54, Type (0, 0), BuildingBlock: KIFKEQ_clean_linker_1, # of connection points: 2
#     Edge 55, Type (0, 0), BuildingBlock: KIFKEQ_clean_linker_1, # of connection points: 2
#     Edge 56, Type (0, 0), BuildingBlock: KIFKEQ_clean_linker_1, # of connection points: 2
#     Edge 57, Type (0, 0), BuildingBlock: KIFKEQ_clean_linker_1, # of connection points: 2
#     Edge 58, Type (0, 0), BuildingBlock: KIFKEQ_clean_linker_1, # of connection points: 2
#     Edge 59, Type (0, 0), BuildingBlock: KIFKEQ_clean_linker_1, # of connection points: 2
#     Edge 60, Type (0, 0), BuildingBlock: KIFKEQ_clean_linker_1, # of connection points: 2
#     Edge 61, Type (0, 0), BuildingBlock: KIFKEQ_clean_linker_1, # of connection points: 2
#     Edge 62, Type (0, 0), BuildingBlock: KIFKEQ_clean_linker_1, # of connection points: 2
#     Edge 63, Type (0, 0), BuildingBlock: KIFKEQ_clean_linker_1, # of connection points: 2
#     Edge 64, Type (0, 0), BuildingBlock: KIFKEQ_clean_linker_1, # of connection points: 2
#     Edge 65, Type (0, 0), BuildingBlock: KIFKEQ_clean_linker_1, # of connection points: 2
#     Edge 66, Type (0, 0), BuildingBlock: KIFKEQ_clean_linker_1, # of connection points: 2
#     Edge 67, Type (0, 0), BuildingBlock: KIFKEQ_clean_linker_1, # of connection points: 2
#     Edge 68, Type (0, 0), BuildingBlock: KIFKEQ_clean_linker_1, # of connection points: 2
#     Edge 69, Type (0, 0), BuildingBlock: KIFKEQ_clean_linker_1, # of connection points: 2
#     Edge 70, Type (0, 0), BuildingBlock: KIFKEQ_clean_linker_1, # of connection points: 2
#     Edge 71, Type (0, 0), BuildingBlock: KIFKEQ_clean_linker_1, # of connection points: 2
# Relax obj value: 0.349
# Max RMSD: 0.273
# Mean RMSD: 0.273
data_MOF--net-wmc--node1-IZENUY_clean_sbu_0--edge1-KIFKEQ_clean_linker_1
_symmetry_space_group_name_H-M    P1
_symmetry_Int_Tables_number       1
_symmetry_cell_setting            triclinic
loop_
_symmetry_equiv_pos_as_xyz
'x, y, z'
_cell_length_a     45.945007
_cell_length_b     45.987183
_cell_length_c     30.265806
_cell_angle_alpha  89.903665
_cell_angle_beta   89.891398
_cell_angle_gamma 119.95457
loop_
_atom_site_label
_atom_site_type_symbol
_atom_site_fract_x
_atom_site_fract_y
_atom_site_fract_z
_atom_type_partial_charge
Fe0 Fe 0.66816 0.13792 0.97485 0.0
Fe1 Fe 0.61061 0.14535 0.01618 0.0
O2 O 0.65395 0.15807 0.01219 0.0
Fe3 Fe 0.68272 0.19268 0.04449 0.0
O4 O 0.71686 0.20909 0.00513 0.0
O5 O 0.69613 0.17758 0.94629 0.0
O6 O 0.63682 0.1313 0.93279 0.0
C7 C 0.61919 0.14514 0.92675 0.0
C8 C 0.7135 0.15528 0.05034 0.0
O9 O 0.61003 0.15666 0.95855 0.0
C10 C 0.62926 0.15373 0.10244 0.0
O11 O 0.63923 0.09522 0.9975 0.0
O12 O 0.59521 0.10215 0.00096 0.0
O13 O 0.6987 0.16812 0.07099 0.0
O14 O 0.70369 0.14329 0.01145 0.0
C15 C 0.63952 0.21435 0.01923 0.0
O16 O 0.60964 0.13345 0.07376 0.0
O17 O 0.65376 0.18194 0.09116 0.0
C18 C 0.60733 0.08302 0.99909 0.0
O19 O 0.61658 0.18614 0.03206 0.0
O20 O 0.66941 0.22026 0.01832 0.0
C21 C 0.71749 0.20456 0.96441 0.0
Fe22 Fe 0.93521 0.55073 0.96695 0.0
Fe23 Fe 0.94378 0.49262 0.00319 0.0
O24 O 0.92084 0.51401 0.00022 0.0
Fe25 Fe 0.88289 0.4983 0.02964 0.0
O26 O 0.86061 0.49156 0.97876 0.0
O27 O 0.89211 0.54285 0.95404 0.0
O28 O 0.93207 0.52728 0.918 0.0
C29 C 0.94582 0.50977 0.91203 0.0
C30 C 0.9114 0.5699 0.03741 0.0
O31 O 0.95686 0.50026 0.94425 0.0
C32 C 0.92198 0.49192 0.09177 0.0
O33 O 0.98129 0.56353 0.97087 0.0
O34 O 0.97995 0.53029 0.02258 0.0
O35 O 0.8869 0.53991 0.03846 0.0
O36 O 0.93764 0.57692 0.01473 0.0
C37 C 0.88014 0.43898 0.99899 0.0
O38 O 0.93355 0.48072 0.06219 0.0
O39 O 0.90374 0.50414 0.08167 0.0
C40 C 0.99692 0.55309 0.99536 0.0
O41 O 0.90932 0.4539 0.98348 0.0
O42 O 0.87101 0.45357 0.02655 0.0
C43 C 0.86487 0.51475 0.95295 0.0
Fe44 Fe 0.52562 0.40263 0.98092 0.0
Fe45 Fe 0.59085 0.46097 0.01983 0.0
O46 O 0.56072 0.41749 0.01679 0.0
Fe47 Fe 0.5678 0.38913 0.04848 0.0
O48 O 0.54931 0.35467 0.00984 0.0
O49 O 0.53785 0.37536 0.95155 0.0
O50 O 0.54895 0.43383 0.93808 0.0
C51 C 0.58015 0.45215 0.9304 0.0
C52 C 0.49983 0.35784 0.05772 0.0
O53 O 0.60158 0.46192 0.96139 0.0
C54 C 0.58241 0.44212 0.10626 0.0
O55 O 0.51154 0.43117 0.00423 0.0
O56 O 0.56222 0.47559 0.00628 0.0
O57 O 0.52794 0.37289 0.07704 0.0
O58 O 0.49667 0.36709 0.01878 0.0
C59 C 0.63174 0.43293 0.02059 0.0
O60 O 0.58089 0.46165 0.07799 0.0
O61 O 0.58697 0.41834 0.0943 0.0
C62 C 0.53095 0.46312 0.00546 0.0
O63 O 0.62639 0.45567 0.03391 0.0
O64 O 0.60806 0.40292 0.02026 0.0
C65 C 0.54426 0.35431 0.96913 0.0
Fe66 Fe 0.93001 0.46072 0.50509 0.0
Fe67 Fe 0.88217 0.39041 0.54105 0.0
O68 O 0.91662 0.4173 0.50641 0.0
Fe69 Fe 0.93592 0.40083 0.47142 0.0
O70 O 0.94433 0.43075 0.42649 0.0
O71 O 0.91899 0.45861 0.44673 0.0
O72 O 0.88941 0.45602 0.51899 0.0
C73 C 0.86121 0.43249 0.5074 0.0
C74 C 0.99149 0.4613 0.49323 0.0
O75 O 0.85439 0.40259 0.51301 0.0
C76 C 0.91828 0.35867 0.55056 0.0
O77 O 0.94193 0.46467 0.56288 0.0
O78 O 0.89378 0.42184 0.5848 0.0
O79 O 0.97866 0.42931 0.49392 0.0
O80 O 0.97302 0.47419 0.49099 0.0
C81 C 0.8684 0.3541 0.46306 0.0
O82 O 0.90665 0.37513 0.56986 0.0
O83 O 0.92909 0.36621 0.51074 0.0
C84 C 0.9222 0.44707 0.59355 0.0
O85 O 0.86532 0.35464 0.50423 0.0
O86 O 0.89571 0.37383 0.44395 0.0
C87 C 0.93079 0.44811 0.41686 0.0
Fe88 Fe 0.61187 0.47833 0.5196 0.0
Fe89 Fe 0.68457 0.50211 0.54464 0.0
O90 O 0.65507 0.5083 0.51393 0.0
Fe91 Fe 0.66893 0.54234 0.47614 0.0
O92 O 0.63637 0.51869 0.43525 0.0
O93 O 0.60874 0.4669 0.46142 0.0
O94 O 0.61835 0.44322 0.53197 0.0
C95 C 0.64086 0.4385 0.51564 0.0
C96 C 0.60961 0.53832 0.50407 0.0
O97 O 0.67105 0.4618 0.51704 0.0
C98 C 0.71528 0.56993 0.5509 0.0
O99 O 0.613 0.4887 0.57794 0.0
O100 O 0.65645 0.4825 0.59187 0.0
O101 O 0.6415 0.55747 0.50007 0.0
O102 O 0.59698 0.50708 0.50765 0.0
C103 C 0.71612 0.52238 0.46339 0.0
O104 O 0.70052 0.54235 0.5719 0.0
O105 O 0.70556 0.57184 0.51174 0.0
C106 C 0.63244 0.48626 0.60533 0.0
O107 O 0.7182 0.52096 0.50446 0.0
O108 O 0.69457 0.52822 0.44621 0.0
C109 C 0.61727 0.4875 0.42967 0.0
Fe110 Fe 0.59476 0.14828 0.51574 0.0
Fe111 Fe 0.57118 0.19693 0.54327 0.0
O112 O 0.56418 0.16093 0.51286 0.0
Fe113 Fe 0.52856 0.1397 0.47804 0.0
O114 O 0.55076 0.13028 0.43514 0.0
O115 O 0.6037 0.15595 0.45682 0.0
O116 O 0.62999 0.19004 0.52594 0.0
C117 C 0.63389 0.21701 0.50991 0.0
C118 C 0.5346 0.08557 0.50548 0.0
O119 O 0.61041 0.22358 0.51292 0.0
C120 C 0.50376 0.15955 0.55502 0.0
O121 O 0.58685 0.13976 0.57464 0.0
O122 O 0.59257 0.18922 0.58869 0.0
O123 O 0.515 0.0979 0.50339 0.0
O124 O 0.56594 0.10446 0.50558 0.0
C125 C 0.54726 0.20623 0.46373 0.0
O126 O 0.53219 0.17292 0.57364 0.0
O127 O 0.5003 0.14726 0.51599 0.0
C128 C 0.5891 0.16157 0.60197 0.0
O129 O 0.55057 0.2107 0.50462 0.0
O130 O 0.54089 0.17859 0.44702 0.0
C131 C 0.58179 0.14307 0.42677 0.0
Fe132 Fe 0.34569 0.46964 0.31214 0.0
Fe133 Fe 0.27725 0.46069 0.34083 0.0
O134 O 0.32146 0.48204 0.34482 0.0
Fe135 Fe 0.34136 0.51623 0.38122 0.0
O136 O 0.36255 0.54392 0.33546 0.0
O137 O 0.38224 0.51302 0.30743 0.0
O138 O 0.33009 0.47792 0.26175 0.0
C139 C 0.29956 0.46586 0.25193 0.0
C140 C 0.38292 0.48595 0.3881 0.0
O141 O 0.2766 0.45247 0.28099 0.0
C142 C 0.28963 0.47223 0.43268 0.0
O143 O 0.31129 0.42387 0.30867 0.0
O144 O 0.27553 0.42224 0.35704 0.0
O145 O 0.37732 0.51017 0.39255 0.0
O146 O 0.36527 0.46217 0.36112 0.0
C147 C 0.28914 0.5245 0.3458 0.0
O148 O 0.27026 0.46603 0.39981 0.0
O149 O 0.321 0.48971 0.42832 0.0
C150 C 0.28337 0.40703 0.32953 0.0
O151 O 0.27678 0.49788 0.32402 0.0
O152 O 0.30942 0.52946 0.37701 0.0
C153 C 0.3832 0.54108 0.31105 0.0
Fe154 Fe 0.60698 0.8912 0.31946 0.0
Fe155 Fe 0.61548 0.83236 0.35202 0.0
O156 O 0.59328 0.85454 0.35246 0.0
Fe157 Fe 0.55684 0.83979 0.38502 0.0
O158 O 0.53207 0.83365 0.3362 0.0
O159 O 0.564 0.88492 0.31155 0.0
O160 O 0.60014 0.86693 0.27014 0.0
C161 C 0.61283 0.84877 0.26166 0.0
C162 C 0.58766 0.9115 0.39324 0.0
O163 O 0.62564 0.83952 0.29203 0.0
C164 C 0.59821 0.83276 0.44261 0.0
O165 O 0.65289 0.90259 0.31828 0.0
O166 O 0.65305 0.86965 0.36907 0.0
O167 O 0.56265 0.88186 0.39536 0.0
O168 O 0.61268 0.91788 0.36812 0.0
C169 C 0.55148 0.77954 0.35312 0.0
O170 O 0.608 0.82091 0.4116 0.0
O171 O 0.58 0.84539 0.43477 0.0
C172 C 0.66914 0.89163 0.34055 0.0
O173 O 0.57954 0.79398 0.33442 0.0
O174 O 0.5439 0.79477 0.38164 0.0
C175 C 0.53586 0.85774 0.31242 0.0
Fe176 Fe 0.18553 0.7309 0.32049 0.0
Fe177 Fe 0.24408 0.79863 0.35125 0.0
O178 O 0.22244 0.75441 0.35248 0.0
Fe179 Fe 0.23802 0.7338 0.38552 0.0
O180 O 0.24441 0.71491 0.33715 0.0
O181 O 0.19315 0.6952 0.31175 0.0
O182 O 0.20879 0.74885 0.27012 0.0
C183 C 0.22559 0.77982 0.26168 0.0
C184 C 0.1665 0.6911 0.39423 0.0
O185 O 0.23495 0.8014 0.2924 0.0
C186 C 0.24485 0.78284 0.4413 0.0
O187 O 0.17295 0.76447 0.32135 0.0
O188 O 0.20691 0.79811 0.37103 0.0
O189 O 0.19654 0.69691 0.39664 0.0
O190 O 0.15952 0.70937 0.36952 0.0
C191 C 0.29735 0.7885 0.35064 0.0
O192 O 0.25749 0.80355 0.40956 0.0
O193 O 0.23194 0.7518 0.43503 0.0
C194 C 0.1835 0.79115 0.34453 0.0
O195 O 0.28216 0.8011 0.33127 0.0
O196 O 0.2828 0.76671 0.38076 0.0
C197 C 0.22061 0.69471 0.31298 0.0
Fe198 Fe 0.61074 0.73738 0.81957 0.0
Fe199 Fe 0.60494 0.79729 0.8547 0.0
O200 O 0.59139 0.75372 0.85489 0.0
Fe201 Fe 0.5569 0.72677 0.88925 0.0
O202 O 0.53949 0.69106 0.85257 0.0
O203 O 0.57046 0.7092 0.79258 0.0
O204 O 0.61806 0.76699 0.77487 0.0
C205 C 0.60522 0.78513 0.76605 0.0
C206 C 0.59285 0.69474 0.89821 0.0
O207 O 0.59383 0.7958 0.79636 0.0
C208 C 0.59649 0.7832 0.94279 0.0
O209 O 0.65391 0.76656 0.84081 0.0
O210 O 0.64785 0.81114 0.83991 0.0
O211 O 0.58112 0.71106 0.91763 0.0
O212 O 0.60465 0.70305 0.85891 0.0
C213 C 0.53572 0.76953 0.85989 0.0
O214 O 0.61699 0.80067 0.91268 0.0
O215 O 0.56847 0.75782 0.93321 0.0
C216 C 0.66657 0.79856 0.84009 0.0
O217 O 0.56455 0.79297 0.86937 0.0
O218 O 0.52943 0.73957 0.8619 0.0
C219 C 0.54332 0.68911 0.81188 0.0
Fe220 Fe 0.2692 0.83151 0.85196 0.0
Fe221 Fe 0.33166 0.83435 0.8901 0.0
O222 O 0.31333 0.84996 0.85292 0.0
Fe223 Fe 0.33905 0.88363 0.81648 0.0
O224 O 0.31951 0.85766 0.76897 0.0
O225 O 0.26706 0.83633 0.79158 0.0
O226 O 0.26323 0.791 0.83849 0.0
C227 C 0.2746 0.7756 0.85994 0.0
C228 C 0.28151 0.89261 0.83439 0.0
O229 O 0.2963 0.79043 0.88991 0.0
C230 C 0.37918 0.90542 0.8898 0.0
O231 O 0.26362 0.82253 0.91188 0.0
O232 O 0.31527 0.8456 0.93699 0.0
O233 O 0.30818 0.8998 0.81232 0.0
O234 O 0.27334 0.87153 0.86486 0.0
C235 C 0.36915 0.84249 0.81715 0.0
O236 O 0.37082 0.87497 0.89707 0.0
O237 O 0.36233 0.91234 0.86242 0.0
C238 C 0.2845 0.835 0.94338 0.0
O239 O 0.34857 0.82236 0.84492 0.0
O240 O 0.37212 0.87136 0.81139 0.0
C241 C 0.28845 0.842 0.76134 0.0
Fe242 Fe 0.1902 0.47272 0.81278 0.0
Fe243 Fe 0.25202 0.46787 0.84145 0.0
O244 O 0.22862 0.48879 0.84271 0.0
Fe245 Fe 0.24372 0.52599 0.87341 0.0
O246 O 0.24643 0.54882 0.82371 0.0
O247 O 0.1946 0.51471 0.80305 0.0
O248 O 0.21198 0.47782 0.76115 0.0
C249 C 0.23049 0.46549 0.75261 0.0
C250 C 0.17191 0.49365 0.88686 0.0
O251 O 0.24193 0.45495 0.78307 0.0
C252 C 0.25554 0.48745 0.93095 0.0
O253 O 0.18014 0.42743 0.81492 0.0
O254 O 0.21637 0.43068 0.86317 0.0
O255 O 0.20148 0.51895 0.88737 0.0
O256 O 0.16552 0.46811 0.86321 0.0
C257 C 0.30357 0.53239 0.83613 0.0
O258 O 0.26684 0.47805 0.8991 0.0
O259 O 0.24153 0.5046 0.92435 0.0
C260 C 0.19257 0.41287 0.83787 0.0
O261 O 0.28883 0.50364 0.81954 0.0
O262 O 0.289 0.54048 0.86526 0.0
C263 C 0.2208 0.54363 0.80248 0.0
Fe264 Fe 1.01003 0.80541 0.63423 0.0
Fe265 Fe 0.94127 0.79365 0.66631 0.0
O266 O 0.98555 0.81762 0.66668 0.0
Fe267 Fe 1.00542 0.85412 0.69897 0.0
O268 O 1.02304 0.87902 0.65008 0.0
O269 O 0.04479 0.84931 0.62482 0.0
O270 O 0.99143 0.81 0.5844 0.0
C271 C 0.96045 0.79538 0.57611 0.0
C272 C 0.05019 0.82741 0.70736 0.0
O273 O 0.93873 0.78244 0.60692 0.0
C274 C 0.95748 0.81139 0.75651 0.0
O275 O 0.97748 0.75886 0.63504 0.0
O276 O 0.94357 0.75787 0.68547 0.0
O277 O 1.04331 0.85096 0.70959 0.0
O278 O 1.0324 0.80187 0.68298 0.0
C279 C 0.94927 0.85641 0.66512 0.0
O280 O 0.93638 0.80145 0.72507 0.0
O281 O 0.98832 0.83058 0.74919 0.0
C282 C 0.95087 0.74203 0.65841 0.0
O283 O 0.93668 0.82817 0.64715 0.0
O284 O 0.97172 0.86475 0.69439 0.0
C285 C 1.04345 0.87632 0.62517 0.0
Fe286 Fe 0.27266 0.21391 0.64632 0.0
Fe287 Fe 0.26908 0.15187 0.69151 0.0
O288 O 0.25444 0.18073 0.68554 0.0
Fe289 Fe 0.21926 0.17424 0.71775 0.0
O290 O 0.20258 0.19161 0.67826 0.0
O291 O 0.23184 0.19817 0.6185 0.0
O292 O 0.28117 0.18982 0.60551 0.0
C293 C 0.27007 0.15865 0.60115 0.0
C294 C 0.25542 0.24221 0.72186 0.0
O295 O 0.25951 0.13876 0.63386 0.0
C296 C 0.25807 0.16161 0.77735 0.0
O297 O 0.31607 0.23072 0.66795 0.0
O298 O 0.31207 0.18123 0.67716 0.0
O299 O 0.24341 0.215 0.74353 0.0
O300 O 0.26571 0.24358 0.68196 0.0
C301 C 0.20054 0.11049 0.69104 0.0
O302 O 0.27964 0.16388 0.74936 0.0
O303 O 0.2296 0.15614 0.76461 0.0
C304 C 0.32976 0.21245 0.67205 0.0
O305 O 0.2284 0.11642 0.70636 0.0
O306 O 0.19281 0.13324 0.69184 0.0
C307 C 0.20478 0.19214 0.63707 0.0
Fe308 Fe 0.85957 0.0696 0.64583 0.0
Fe309 Fe 0.92665 0.12967 0.67671 0.0
O310 O 0.89626 0.08617 0.67923 0.0
Fe311 Fe 0.90436 0.05966 0.71389 0.0
O312 O 0.88554 1.02362 0.67777 0.0
O313 O 0.87 0.04033 0.61866 0.0
O314 O 0.88099 0.09829 0.59963 0.0
C315 C 0.9118 0.11576 0.58928 0.0
C316 C 0.83643 1.02802 0.72552 0.0
O317 O 0.93458 0.1265 0.61841 0.0
C318 C 0.92147 0.11703 0.76523 0.0
O319 O 0.84683 0.0996 0.66773 0.0
O320 O 0.89755 0.14372 0.66269 0.0
O321 O 0.86493 0.04429 0.74366 0.0
O322 O 0.83205 0.03612 0.6866 0.0
C323 C 0.96731 0.10148 0.67924 0.0
O324 O 0.91962 0.13467 0.73449 0.0
O325 O 0.92419 0.09144 0.75711 0.0
C326 C 0.86634 0.13149 0.66541 0.0
O327 O 0.96264 0.12512 0.69017 0.0
O328 O 0.94415 0.07168 0.68521 0.0
C329 C 0.8776 1.02057 0.63767 0.0
Fe330 Fe 0.2705 0.06946 0.15169 0.0
Fe331 Fe 0.26502 0.12893 0.19026 0.0
O332 O 0.25101 0.08521 0.18776 0.0
Fe333 Fe 0.21584 0.05752 0.22062 0.0
O334 O 0.19887 1.02252 0.18295 0.0
O335 O 0.23053 0.04152 0.12379 0.0
O336 O 0.27786 0.09989 0.10829 0.0
C337 C 0.26633 0.11936 0.10077 0.0
C338 C 0.25225 1.02583 0.22917 0.0
O339 O 0.25532 0.12987 0.1318 0.0
C340 C 0.25506 0.11099 0.27727 0.0
O341 O 0.31355 0.09807 0.1733 0.0
O342 O 0.30807 0.14293 0.17626 0.0
O343 O 0.23952 0.04119 0.24873 0.0
O344 O 0.26441 0.03471 0.19012 0.0
C345 C 0.19603 0.10144 0.19203 0.0
O346 O 0.27593 0.13002 0.24845 0.0
O347 O 0.22656 0.08727 0.26593 0.0
C348 C 0.32647 0.13004 0.17418 0.0
O349 O 0.22437 0.12424 0.2045 0.0
O350 O 0.18934 0.07131 0.19283 0.0
C351 C 0.20332 1.02088 0.14243 0.0
Fe352 Fe 1.00784 0.21896 0.13661 0.0
Fe353 Fe 0.94077 0.16469 0.17731 0.0
O354 O 0.98489 0.18421 0.173 0.0
Fe355 Fe 1.00627 0.16888 0.20477 0.0
O356 O 1.02043 0.15847 0.15528 0.0
O357 O 1.04169 0.20852 0.12549 0.0
O358 O 0.98621 0.19338 0.08955 0.0
C359 C 0.95479 0.17628 0.08521 0.0
C360 C 0.05154 0.24014 0.2064 0.0
O361 O 0.9349 0.16972 0.11774 0.0
C362 C 0.96239 0.16727 0.26609 0.0
O363 O 0.97579 0.23366 0.13831 0.0
O364 O 0.94504 0.20426 0.19316 0.0
O365 O 0.04491 0.2099 0.21003 0.0
O366 O 1.03295 0.24713 0.18232 0.0
C367 C 0.94775 0.10937 0.17928 0.0
O368 O 0.93939 0.15543 0.23703 0.0
O369 O 0.99265 0.17845 0.25561 0.0
C370 C 0.95026 0.22518 0.1634 0.0
O371 O 0.93426 0.12427 0.1615 0.0
O372 O 0.97208 0.12476 0.20564 0.0
C373 C 1.03965 0.17985 0.1276 0.0
Fe374 Fe 0.91138 0.79444 0.16623 0.0
Fe375 Fe 0.90548 0.85358 0.20031 0.0
O376 O 0.88977 0.81723 0.1677 0.0
Fe377 Fe 0.85268 0.80408 0.13576 0.0
O378 O 0.87607 0.81012 0.08544 0.0
O379 O 0.90316 0.78417 0.10668 0.0
O380 O 0.95008 0.82996 0.14768 0.0
C381 C 0.96513 0.8582 0.16574 0.0
C382 C 0.851 0.74146 0.15734 0.0
O383 O 0.95037 0.86614 0.19467 0.0
C384 C 0.83367 0.82419 0.21023 0.0
O385 O 0.92373 0.80163 0.22507 0.0
O386 O 0.90047 0.8302 0.25019 0.0
O387 O 0.84035 0.75801 0.13517 0.0
O388 O 0.87398 0.75734 0.18453 0.0
C389 C 0.88722 0.87509 0.12823 0.0
O390 O 0.86374 0.84847 0.21233 0.0
O391 O 0.8266 0.79911 0.18513 0.0
C392 C 0.91244 0.81121 0.25686 0.0
O393 O 0.91121 0.87847 0.15178 0.0
O394 O 0.85974 0.84728 0.12761 0.0
C395 C 0.89365 0.79684 0.07647 0.0
H396 H 0.66257 0.25762 0.94815 0.0
H397 H 0.59282 0.22512 0.05738 0.0
H398 H 0.63628 0.2884 0.91708 0.0
H399 H 0.56741 0.25613 0.02776 0.0
H400 H 0.50587 0.28679 0.96552 0.0
H401 H 0.53129 0.2514 0.96861 0.0
H402 H 0.62626 0.33545 0.92724 0.0
H403 H 0.59944 0.36973 0.92046 0.0
C404 C 0.64229 0.25785 0.96607 0.0
C405 C 0.62978 0.2391 0.00522 0.0
C406 C 0.62695 0.27511 0.94807 0.0
C407 C 0.5989 0.27384 0.96904 0.0
C408 C 0.58795 0.2566 0.00954 0.0
C409 C 0.60295 0.2393 0.02711 0.0
C410 C 0.53148 0.29694 0.95393 0.0
C411 C 0.55099 0.33116 0.94367 0.0
C412 C 0.54644 0.277 0.95699 0.0
C413 C 0.58134 0.29115 0.95073 0.0
C414 C 0.5995 0.32383 0.93323 0.0
C415 C 0.58413 0.34348 0.92899 0.0
H416 H 0.7839 0.22682 0.96145 0.0
H417 H 0.70802 0.24939 0.91861 0.0
H418 H 0.82554 0.28639 0.96098 0.0
H419 H 0.74951 0.30934 0.91863 0.0
H420 H 0.81218 0.40055 0.01359 0.0
H421 H 0.77438 0.34355 0.98744 0.0
H422 H 0.85781 0.34187 0.92408 0.0
H423 H 0.89557 0.39854 0.95028 0.0
C424 C 0.77669 0.24444 0.94903 0.0
C425 C 0.74289 0.23358 0.93966 0.0
C426 C 0.80041 0.27869 0.94948 0.0
C427 C 0.79057 0.30261 0.94094 0.0
C428 C 0.75766 0.29148 0.92618 0.0
C429 C 0.73406 0.25715 0.92518 0.0
C430 C 0.82245 0.38799 0.9942 0.0
C431 C 0.85697 0.40401 0.98459 0.0
C432 C 0.80074 0.35553 0.97862 0.0
C433 C 0.81309 0.33831 0.95332 0.0
C434 C 0.84754 0.35443 0.94349 0.0
C435 C 0.86916 0.3869 0.95872 0.0
H436 H 0.64949 0.41051 0.94741 0.0
H437 H 0.69037 0.48026 0.05548 0.0
H438 H 0.705 0.43604 0.91294 0.0
H439 H 0.746 0.50474 0.02294 0.0
H440 H 0.84102 0.55826 0.95956 0.0
H441 H 0.78122 0.53916 0.96652 0.0
H442 H 0.75779 0.44119 0.91898 0.0
H443 H 0.81713 0.4611 0.90963 0.0
C444 C 0.67054 0.43063 0.96434 0.0
C445 C 0.66574 0.4431 0.00427 0.0
C446 C 0.70236 0.4456 0.94445 0.0
C447 C 0.73011 0.47306 0.96454 0.0
C448 C 0.72522 0.48456 0.00543 0.0
C449 C 0.69344 0.47002 0.02473 0.0
C450 C 0.82298 0.53342 0.94784 0.0
C451 C 0.83356 0.51096 0.9347 0.0
C452 C 0.78866 0.52207 0.95297 0.0
C453 C 0.76463 0.48806 0.9455 0.0
C454 C 0.77531 0.46737 0.92564 0.0
C455 C 0.80948 0.47888 0.91987 0.0
H456 H 0.6954 0.46218 0.42509 0.0
H457 H 0.78297 0.55779 0.45187 0.0
H458 H 0.73022 0.43575 0.42288 0.0
H459 H 0.81771 0.53201 0.4506 0.0
H460 H 0.87858 0.48496 0.4529 0.0
H461 H 0.84326 0.50433 0.42036 0.0
H462 H 0.75597 0.42093 0.48055 0.0
H463 H 0.7917 0.39995 0.51046 0.0
C464 C 0.72243 0.47792 0.42768 0.0
C465 C 0.73667 0.51214 0.43795 0.0
C466 C 0.7423 0.46263 0.42763 0.0
C467 C 0.77678 0.48145 0.43755 0.0
C468 C 0.79141 0.51649 0.44242 0.0
C469 C 0.77156 0.53161 0.44259 0.0
C470 C 0.85175 0.47035 0.45864 0.0
C471 C 0.83797 0.44131 0.4851 0.0
C472 C 0.83144 0.4816 0.44005 0.0
C473 C 0.79677 0.46486 0.44863 0.0
C474 C 0.78256 0.43453 0.47298 0.0
C475 C 0.80299 0.42262 0.49061 0.0
H476 H 0.51113 0.23711 0.45615 0.0
H477 H 0.60524 0.24471 0.41939 0.0
H478 H 0.53715 0.29739 0.45622 0.0
H479 H 0.63189 0.30585 0.41779 0.0
H480 H 0.67332 0.40169 0.50792 0.0
H481 H 0.65041 0.34585 0.47486 0.0
H482 H 0.56349 0.35091 0.43086 0.0
H483 H 0.58438 0.40394 0.4678 0.0
C484 C 0.53691 0.25179 0.44482 0.0
C485 C 0.55605 0.23629 0.4375 0.0
C486 C 0.55224 0.2867 0.44538 0.0
C487 C 0.58713 0.30696 0.43814 0.0
C488 C 0.60524 0.29121 0.42471 0.0
C489 C 0.58975 0.2561 0.42431 0.0
C490 C 0.64935 0.39065 0.49112 0.0
C491 C 0.63029 0.4068 0.49152 0.0
C492 C 0.63632 0.35883 0.47156 0.0
C493 C 0.60452 0.34323 0.4508 0.0
C494 C 0.5873 0.36121 0.44786 0.0
C495 C 0.59954 0.39199 0.46886 0.0
H496 H 0.66734 0.19603 0.45819 0.0
H497 H 0.67139 0.28636 0.5059 0.0
H498 H 0.72173 0.2287 0.42384 0.0
H499 H 0.72813 0.31956 0.47459 0.0
H500 H 0.83074 0.37463 0.41935 0.0
H501 H 0.76939 0.34149 0.41611 0.0
H502 H 0.77413 0.25376 0.45702 0.0
H503 H 0.83475 0.28681 0.45944 0.0
C504 C 0.67986 0.22306 0.46113 0.0
C505 C 0.66534 0.23862 0.48543 0.0
C506 C 0.71129 0.24184 0.44157 0.0
C507 C 0.72992 0.27671 0.44741 0.0
C508 C 0.71451 0.2927 0.46925 0.0
C509 C 0.68219 0.27376 0.48765 0.0
C510 C 0.81854 0.34776 0.42471 0.0
C511 C 0.83732 0.333 0.4389 0.0
C512 C 0.78337 0.32894 0.42395 0.0
C513 C 0.76659 0.29504 0.43708 0.0
C514 C 0.78588 0.27964 0.44619 0.0
C515 C 0.82084 0.29846 0.44715 0.0
H516 H 0.17889 0.63169 0.34201 0.0
H517 H 0.26695 0.69096 0.26186 0.0
H518 H 0.19356 0.58732 0.34701 0.0
H519 H 0.28087 0.64603 0.26542 0.0
H520 H 0.27111 0.53714 0.26613 0.0
H521 H 0.24907 0.57463 0.24939 0.0
H522 H 0.25686 0.60169 0.38702 0.0
H523 H 0.27994 0.56487 0.40382 0.0
C524 C 0.20029 0.63436 0.32344 0.0
C525 C 0.22159 0.66438 0.30097 0.0
C526 C 0.20892 0.60929 0.32688 0.0
C527 C 0.23845 0.61366 0.30694 0.0
C528 C 0.25795 0.64223 0.28093 0.0
C529 C 0.24982 0.66767 0.27847 0.0
C530 C 0.26818 0.55117 0.29281 0.0
C531 C 0.27724 0.54824 0.33629 0.0
C532 C 0.25554 0.57245 0.28317 0.0
C533 C 0.25093 0.59046 0.31704 0.0
C534 C 0.25988 0.58757 0.36055 0.0
C535 C 0.27333 0.56687 0.37006 0.0
H536 H 0.54613 0.74873 0.27488 0.0
H537 H 0.50511 0.73012 0.40718 0.0
H538 H 0.50926 0.6895 0.25649 0.0
H539 H 0.46892 0.6705 0.38885 0.0
H540 H 0.44496 0.56216 0.34448 0.0
H541 H 0.48886 0.62115 0.35223 0.0
H542 H 0.43331 0.65085 0.26656 0.0
H543 H 0.38878 0.59201 0.26019 0.0
C544 C 0.52936 0.7319 0.30008 0.0
C545 C 0.52841 0.74393 0.34251 0.0
C546 C 0.50842 0.69815 0.28949 0.0
C547 C 0.4868 0.6757 0.32146 0.0
C548 C 0.4858 0.68752 0.36392 0.0
C549 C 0.50621 0.72152 0.37426 0.0
C550 C 0.44298 0.58116 0.32564 0.0
C551 C 0.41393 0.5727 0.30105 0.0
C552 C 0.46775 0.61482 0.33063 0.0
C553 C 0.46407 0.64021 0.31023 0.0
C554 C 0.43655 0.63152 0.28243 0.0
C555 C 0.41139 0.59797 0.27834 0.0
H556 H 0.51512 0.89962 0.34289 0.0
H557 H 0.48537 0.81247 0.26125 0.0
H558 H 0.45622 0.88548 0.34882 0.0
H559 H 0.42667 0.79911 0.26581 0.0
H560 H 0.32845 0.81384 0.27203 0.0
H561 H 0.38794 0.83649 0.25372 0.0
H562 H 0.40672 0.81673 0.38685 0.0
H563 H 0.34698 0.79305 0.40508 0.0
C564 C 0.49623 0.87859 0.32416 0.0
C565 C 0.50466 0.85736 0.30102 0.0
C566 C 0.4626 0.87028 0.32808 0.0
C567 C 0.43722 0.84116 0.30798 0.0
C568 C 0.44598 0.82176 0.28138 0.0
C569 C 0.47947 0.82957 0.27837 0.0
C570 C 0.3453 0.81435 0.29742 0.0
C571 C 0.33316 0.80167 0.34001 0.0
C572 C 0.3792 0.82734 0.28688 0.0
C573 C 0.40165 0.82864 0.31908 0.0
C574 C 0.38972 0.81624 0.36173 0.0
C575 C 0.35563 0.8025 0.37201 0.0
H576 H 0.48144 0.7361 0.80477 0.0
H577 H 0.5328 0.82404 0.88684 0.0
H578 H 0.44403 0.75591 0.77834 0.0
H579 H 0.49482 0.84295 0.86275 0.0
H580 H 0.43703 0.88437 0.80546 0.0
H581 H 0.47894 0.8664 0.80611 0.0
H582 H 0.3994 0.76277 0.79972 0.0
H583 H 0.3583 0.78094 0.79632 0.0
C584 C 0.48433 0.75933 0.81768 0.0
C585 C 0.50995 0.77844 0.8479 0.0
C586 C 0.46302 0.77085 0.80245 0.0
C587 C 0.46658 0.80146 0.81775 0.0
C588 C 0.49185 0.81996 0.84884 0.0
C589 C 0.51334 0.80877 0.86335 0.0
C590 C 0.42878 0.85793 0.802 0.0
C591 C 0.39446 0.83404 0.80146 0.0
C592 C 0.45269 0.84746 0.80334 0.0
C593 C 0.44259 0.81296 0.8047 0.0
C594 C 0.4084 0.78946 0.79894 0.0
C595 C 0.38469 0.79991 0.79704 0.0
H596 H 0.26299 0.59815 0.754 0.0
H597 H 0.17531 0.55785 0.83803 0.0
H598 H 0.27202 0.65482 0.76532 0.0
H599 H 0.18525 0.61469 0.85089 0.0
H600 H 0.2682 0.72429 0.91359 0.0
H601 H 0.24772 0.66567 0.89177 0.0
H602 H 0.23464 0.68939 0.75797 0.0
H603 H 0.25403 0.74732 0.77962 0.0
C604 C 0.24482 0.60132 0.77318 0.0
C605 C 0.2182 0.57373 0.79455 0.0
C606 C 0.25023 0.63366 0.78014 0.0
C607 C 0.2296 0.63886 0.8095 0.0
C608 C 0.20153 0.61111 0.82833 0.0
C609 C 0.19556 0.57865 0.82036 0.0
C610 C 0.2607 0.71683 0.87969 0.0
C611 C 0.26248 0.74021 0.8484 0.0
C612 C 0.24879 0.68341 0.86732 0.0
C613 C 0.23935 0.67325 0.82334 0.0
C614 C 0.24147 0.69667 0.79209 0.0
C615 C 0.25255 0.72972 0.80459 0.0
H616 H 0.3441 0.51737 0.78692 0.0
H617 H 0.34334 0.59975 0.85444 0.0
H618 H 0.40233 0.55416 0.76535 0.0
H619 H 0.402 0.63672 0.83246 0.0
H620 H 0.50063 0.70154 0.76585 0.0
H621 H 0.4399 0.66269 0.7643 0.0
H622 H 0.45608 0.58274 0.80928 0.0
H623 H 0.51644 0.62186 0.81192 0.0
C624 C 0.35627 0.54339 0.79707 0.0
C625 C 0.33903 0.55551 0.8229 0.0
C626 C 0.38968 0.56446 0.78454 0.0
C627 C 0.4067 0.59833 0.79695 0.0
C628 C 0.38935 0.61078 0.82185 0.0
C629 C 0.3559 0.58955 0.83489 0.0
C630 C 0.49123 0.67522 0.77293 0.0
C631 C 0.51316 0.66451 0.78834 0.0
C632 C 0.45647 0.65316 0.77295 0.0
C633 C 0.44321 0.61984 0.78749 0.0
C634 C 0.4655 0.60823 0.79779 0.0
C635 C 0.50016 0.63046 0.79859 0.0
H636 H 0.83323 0.95416 0.63918 0.0
H637 H 0.93051 1.02845 0.59016 0.0
H638 H 0.85033 0.91176 0.63676 0.0
H639 H 0.94798 0.98621 0.58806 0.0
H640 H 0.89243 0.84102 0.61865 0.0
H641 H 0.87252 0.87889 0.5953 0.0
H642 H 0.95826 0.9616 0.65768 0.0
H643 H 0.97824 0.92377 0.68122 0.0
C644 C 0.85749 0.96082 0.62508 0.0
C645 C 0.88037 0.99432 0.61409 0.0
C646 C 0.86752 0.93669 0.62431 0.0
C647 C 0.90075 0.94591 0.61316 0.0
C648 C 0.92236 0.97857 0.59737 0.0
C649 C 0.91215 1.00256 0.59761 0.0
C650 C 0.90708 0.8673 0.62742 0.0
C651 C 0.9368 0.87935 0.65222 0.0
C652 C 0.89568 0.88895 0.61386 0.0
C653 C 0.914 0.92322 0.62419 0.0
C654 C 0.94392 0.93538 0.64852 0.0
C655 C 0.95512 0.91365 0.66257 0.0
H656 H 0.13223 0.07799 0.67593 0.0
H657 H 0.22066 0.06903 0.65734 0.0
H658 H 0.09771 1.02175 0.64517 0.0
H659 H 0.18691 1.01422 0.62457 0.0
H660 H 0.10929 0.9009 0.64307 0.0
H661 H 0.14975 0.9603 0.65021 0.0
H662 H 0.08115 0.98465 0.58424 0.0
H663 H 1.04018 0.92493 0.57906 0.0
C664 C 0.14427 0.06417 0.66485 0.0
C665 C 0.17893 0.07749 0.67026 0.0
C666 C 0.12464 0.03211 0.64665 0.0
C667 C 0.13947 1.01314 0.63269 0.0
C668 C 0.17444 1.02754 0.63594 0.0
C669 C 0.19381 0.05908 0.65482 0.0
C670 C 0.10366 0.91892 0.628 0.0
C671 C 0.07177 0.90846 0.61041 0.0
C672 C 0.12672 0.95315 0.63247 0.0
C673 C 0.1184 0.97746 0.61884 0.0
C674 C 0.08801 0.9667 0.5963 0.0
C675 C 0.06483 0.9325 0.59238 0.0
H676 H 1.00477 0.06958 0.68627 0.0
H677 H 1.00307 0.15308 0.62371 0.0
H678 H 0.06211 0.09053 0.6584 0.0
H679 H 0.05877 0.17273 0.59379 0.0
H680 H 0.17244 0.22681 0.62655 0.0
H681 H 0.11181 0.20091 0.62596 0.0
H682 H 0.1031 0.10437 0.60052 0.0
H683 H 0.1644 0.1309 0.6018 0.0
C684 C 1.01633 0.09189 0.66575 0.0
C685 C 0.9998 0.11012 0.6581 0.0
C686 C 0.04908 0.10383 0.64939 0.0
C687 C 0.0655 0.13381 0.62436 0.0
C688 C 0.04755 0.15023 0.61395 0.0
C689 C 1.01544 0.13883 0.63104 0.0
C690 C 0.15763 0.20048 0.618 0.0
C691 C 0.17314 0.18105 0.61333 0.0
C692 C 0.12264 0.18534 0.61822 0.0
C693 C 0.10223 0.15026 0.61394 0.0
C694 C 0.11791 0.13131 0.60467 0.0
C695 C 0.15307 0.14663 0.60422 0.0
H696 H 0.14978 0.07319 0.12564 0.0
H697 H 0.18951 0.15346 0.22089 0.0
H698 H 0.11707 0.09608 0.09199 0.0
H699 H 0.15585 0.17533 0.18946 0.0
H700 H 0.10757 0.22273 0.12553 0.0
H701 H 0.1487 0.20403 0.13104 0.0
H702 H 0.07067 0.10243 0.10267 0.0
H703 H 1.03067 0.12169 0.09443 0.0
C704 C 0.15088 0.09526 0.13995 0.0
C705 C 0.17192 0.11138 0.17602 0.0
C706 C 0.13236 0.10861 0.12053 0.0
C707 C 0.13414 0.13807 0.13733 0.0
C708 C 0.1546 0.15343 0.17433 0.0
C709 C 0.17344 0.14047 0.19307 0.0
C710 C 0.09983 0.19687 0.1178 0.0
C711 C 0.06593 0.17356 0.11013 0.0
C712 C 0.12315 0.18585 0.1221 0.0
C713 C 0.11274 0.15135 0.11942 0.0
C714 C 0.07981 0.12907 0.10543 0.0
C715 C 0.05676 0.14017 0.10044 0.0
H716 H 0.93964 0.92852 0.08986 0.0
H717 H 0.8398 0.89335 0.14117 0.0
H718 H 0.95206 0.98641 0.09693 0.0
H719 H 0.8523 0.95148 0.1486 0.0
H720 H 0.88918 0.06614 0.13743 0.0
H721 H 0.87079 1.00889 0.11313 0.0
H722 H 0.95975 1.01527 0.17055 0.0
H723 H 0.97822 0.07239 0.19486 0.0
C724 C 0.91987 0.93322 0.10075 0.0
C725 C 0.88884 0.90662 0.11507 0.0
C726 C 0.92713 0.9663 0.10543 0.0
C727 C 0.90348 0.97335 0.12452 0.0
C728 C 0.87103 0.94669 0.13396 0.0
C729 C 0.86372 0.91342 0.12924 0.0
C730 C 0.90471 0.05522 0.14516 0.0
C731 C 0.93515 0.07376 0.16824 0.0
C732 C 0.89415 1.0225 0.13115 0.0
C733 C 0.91408 1.00789 0.13934 0.0
C734 C 0.94421 1.0262 0.16301 0.0
C735 C 0.95458 0.05874 0.17745 0.0
H736 H 0.17953 0.95413 0.14343 0.0
H737 H 0.15922 0.03013 0.09438 0.0
H738 H 0.11974 0.91285 0.14095 0.0
H739 H 0.09905 0.98909 0.0928 0.0
H740 H 1.00347 0.92571 0.18265 0.0
H741 H 0.06187 0.96359 0.16084 0.0
H742 H 0.06563 0.88115 0.0986 0.0
H743 H 1.00743 0.84334 0.12014 0.0
C744 C 0.16243 0.96146 0.12946 0.0
C745 C 0.17399 0.99518 0.1185 0.0
C746 C 0.12806 0.93796 0.12874 0.0
C747 C 0.1046 0.94793 0.11769 0.0
C748 C 0.1165 0.98082 0.10215 0.0
C749 C 0.15098 1.00416 0.10216 0.0
C750 C 1.01675 0.91568 0.16435 0.0
C751 C 1.0008 0.88143 0.15356 0.0
C752 C 0.05006 0.93744 0.15132 0.0
C753 C 0.06829 0.92538 0.12763 0.0
C754 C 0.05229 0.89119 0.11676 0.0
C755 C 1.01893 0.86955 0.12926 0.0
H756 H 0.63756 0.18904 0.382 0.0
H757 H 0.54758 0.09272 0.36842 0.0
H758 H 0.64947 0.18857 0.30357 0.0
H759 H 0.56022 0.091 0.29087 0.0
H760 H 0.56836 0.11993 0.14449 0.0
H761 H 0.55848 0.11516 0.22413 0.0
H762 H 0.66578 0.16596 0.24652 0.0
H763 H 0.67532 0.17234 0.1672 0.0
C764 C 0.62089 0.16736 0.36244 0.0
C765 C 0.59168 0.14098 0.38114 0.0
C766 C 0.62766 0.16695 0.31746 0.0
C767 C 0.60565 0.13979 0.29054 0.0
C768 C 0.57729 0.1127 0.3101 0.0
C769 C 0.5702 0.1135 0.35472 0.0
C770 C 0.58968 0.12973 0.16662 0.0
C771 C 0.62253 0.14681 0.14994 0.0
C772 C 0.58413 0.12691 0.21229 0.0
C773 C 0.61138 0.14048 0.24202 0.0
C774 C 0.6442 0.15604 0.22487 0.0
C775 C 0.64969 0.15947 0.17939 0.0
H776 H 0.97358 0.45094 0.35281 0.0
H777 H 0.88997 0.46727 0.3752 0.0
H778 H 0.9738 0.46368 0.27498 0.0
H779 H 0.88927 0.47888 0.29649 0.0
H780 H 0.91462 0.52591 0.16022 0.0
H781 H 0.91854 0.51773 0.23882 0.0
H782 H 0.94247 0.43997 0.20992 0.0
H783 H 0.93972 0.44911 0.13092 0.0
C784 C 0.95514 0.4572 0.34103 0.0
C785 C 0.93169 0.45805 0.37017 0.0
C786 C 0.95511 0.46427 0.29623 0.0
C787 C 0.93136 0.47198 0.27917 0.0
C788 C 0.90822 0.47343 0.3085 0.0
C789 C 0.90852 0.46672 0.35362 0.0
C790 C 0.92092 0.50716 0.17062 0.0
C791 C 0.92675 0.48803 0.13931 0.0
C792 C 0.92291 0.50231 0.21578 0.0
C793 C 0.93051 0.47799 0.23091 0.0
C794 C 0.93696 0.45924 0.19954 0.0
C795 C 0.93531 0.46437 0.1542 0.0
H796 H 0.61129 0.43327 0.38531 0.0
H797 H 0.59408 0.51693 0.37356 0.0
H798 H 0.5988 0.42111 0.30691 0.0
H799 H 0.57972 0.50399 0.29616 0.0
H800 H 0.60478 0.50176 0.14987 0.0
H801 H 0.6083 0.51003 0.22978 0.0
H802 H 0.55966 0.40257 0.24947 0.0
H803 H 0.55794 0.39473 0.16997 0.0
C804 C 0.60376 0.44833 0.36619 0.0
C805 C 0.60377 0.47608 0.38518 0.0
C806 C 0.59657 0.44146 0.32126 0.0
C807 C 0.58866 0.4619 0.29488 0.0
C808 C 0.58663 0.48832 0.31498 0.0
C809 C 0.59449 0.49555 0.35948 0.0
C810 C 0.59466 0.48003 0.17145 0.0
C811 C 0.58155 0.44772 0.15396 0.0
C812 C 0.59644 0.48464 0.21725 0.0
C813 C 0.58448 0.45692 0.24627 0.0
C814 C 0.5699 0.42452 0.22833 0.0
C815 C 0.56873 0.42002 0.18275 0.0
H816 H 0.94948 0.4558 0.88056 0.0
H817 H 0.95308 0.54758 0.83968 0.0
H818 H 0.94966 0.44091 0.80268 0.0
H819 H 0.95333 0.53288 0.76265 0.0
H820 H 0.89215 0.40912 0.66657 0.0
H821 H 0.90506 0.42507 0.74376 0.0
H822 H 0.98575 0.52248 0.70393 0.0
H823 H 0.97285 0.50657 0.62627 0.0
C824 C 0.951 0.47303 0.85501 0.0
C825 C 0.95086 0.50259 0.86604 0.0
C826 C 0.95092 0.46448 0.81057 0.0
C827 C 0.95136 0.48571 0.77667 0.0
C828 C 0.95326 0.51617 0.78797 0.0
C829 C 0.95283 0.52443 0.83212 0.0
C830 C 0.91273 0.43393 0.67418 0.0
C831 C 0.93113 0.4568 0.64027 0.0
C832 C 0.92039 0.44287 0.71844 0.0
C833 C 0.94644 0.47496 0.72984 0.0
C834 C 0.96543 0.49759 0.69601 0.0
C835 C 0.95801 0.48851 0.65161 0.0
H836 H 0.58903 0.50085 0.64946 0.0
H837 H 0.66223 0.46934 0.67037 0.0
H838 H 0.57974 0.49908 0.72915 0.0
H839 H 0.65216 0.46645 0.74934 0.0
H840 H 0.64383 0.48365 0.89411 0.0
H841 H 0.6586 0.49707 0.81598 0.0
H842 H 0.55375 0.45746 0.78458 0.0
H843 H 0.53933 0.4454 0.86172 0.0
C844 C 0.60295 0.49334 0.67098 0.0
C845 C 0.62608 0.48491 0.65348 0.0
C846 C 0.59766 0.49232 0.71666 0.0
C847 C 0.61519 0.48256 0.74577 0.0
C848 C 0.63865 0.47464 0.72814 0.0
C849 C 0.64412 0.47592 0.68266 0.0
C850 C 0.62411 0.47837 0.87051 0.0
C851 C 0.59042 0.46321 0.88418 0.0
C852 C 0.63248 0.4858 0.82572 0.0
C853 C 0.60731 0.4782 0.79387 0.0
C854 C 0.57387 0.46414 0.80803 0.0
C855 C 0.56557 0.45685 0.85248 0.0
H856 H 0.61843 0.19667 0.8833 0.0
H857 H 0.59473 0.09388 0.86873 0.0
H858 H 0.60872 0.19924 0.80438 0.0
H859 H 0.58299 0.0954 0.79081 0.0
H860 H 0.60962 0.12273 0.64577 0.0
H861 H 0.61316 0.11768 0.72559 0.0
H862 H 0.57096 0.18235 0.74558 0.0
H863 H 0.56925 0.1887 0.66613 0.0
C864 C 0.61015 0.17437 0.86334 0.0
C865 C 0.60749 0.14517 0.88171 0.0
C866 C 0.60454 0.17571 0.81816 0.0
C867 C 0.59552 0.14761 0.7909 0.0
C868 C 0.59088 0.11782 0.81032 0.0
C869 C 0.59721 0.11678 0.85508 0.0
C870 C 0.60108 0.13573 0.66738 0.0
C871 C 0.5896 0.1564 0.64991 0.0
C872 C 0.60284 0.13271 0.71315 0.0
C873 C 0.59243 0.14973 0.74225 0.0
C874 C 0.57993 0.16952 0.7244 0.0
C875 C 0.5788 0.17303 0.67881 0.0
H876 H 0.23818 0.47798 0.46778 0.0
H877 H 0.31123 0.44839 0.49909 0.0
H878 H 0.22214 0.47286 0.54532 0.0
H879 H 0.29358 0.44043 0.57614 0.0
H880 H 0.28806 0.4734 0.71615 0.0
H881 H 0.29965 0.47084 0.63822 0.0
H882 H 0.19671 0.44184 0.60698 0.0
H883 H 0.18634 0.44714 0.68463 0.0
C884 C 0.25 0.46933 0.49124 0.0
C885 C 0.27596 0.46372 0.47778 0.0
C886 C 0.24077 0.46621 0.5358 0.0
C887 C 0.25674 0.45652 0.56762 0.0
C888 C 0.28137 0.44896 0.5532 0.0
C889 C 0.29125 0.45308 0.50893 0.0
C890 C 0.26799 0.46633 0.69244 0.0
C891 C 0.23648 0.46081 0.70609 0.0
C892 C 0.27444 0.46455 0.64767 0.0
C893 C 0.24917 0.45622 0.61571 0.0
C894 C 0.21714 0.44924 0.63009 0.0
C895 C 0.21104 0.452 0.67467 0.0
H896 H 0.61212 0.78656 0.4801 0.0
H897 H 0.59758 0.87007 0.51134 0.0
H898 H 0.61476 0.77663 0.55903 0.0
H899 H 0.6011 0.86083 0.58969 0.0
H900 H 0.56755 0.80862 0.72504 0.0
H901 H 0.56811 0.82147 0.64638 0.0
H902 H 0.6478 0.79904 0.6242 0.0
H903 H 0.64655 0.78539 0.70175 0.0
C904 C 0.61015 0.80314 0.50377 0.0
C905 C 0.60441 0.82889 0.48956 0.0
C906 C 0.61163 0.79751 0.549 0.0
C907 C 0.60774 0.81774 0.58078 0.0
C908 C 0.60336 0.84428 0.56627 0.0
C909 C 0.60164 0.84972 0.52129 0.0
C910 C 0.5853 0.80673 0.70331 0.0
C911 C 0.60678 0.79578 0.71956 0.0
C912 C 0.58572 0.81413 0.65828 0.0
C913 C 0.60785 0.811 0.62885 0.0
C914 C 0.62993 0.80099 0.6456 0.0
C915 C 0.62932 0.79337 0.69026 0.0
H916 H 0.24099 0.7829 0.72604 0.0
H917 H 0.31205 0.8858 0.69338 0.0
H918 H 0.22864 0.77016 0.64784 0.0
H919 H 0.29779 0.87437 0.61564 0.0
H920 H 0.29969 0.83507 0.47877 0.0
H921 H 0.30776 0.85029 0.5565 0.0
H922 H 0.20486 0.77363 0.58349 0.0
H923 H 0.19823 0.75686 0.50625 0.0
C924 C 0.2533 0.80289 0.70196 0.0
C925 C 0.2777 0.83509 0.71519 0.0
C926 C 0.2461 0.7958 0.6571 0.0
C927 C 0.26247 0.82115 0.62487 0.0
C928 C 0.28548 0.85388 0.63898 0.0
C929 C 0.29345 0.8606 0.68356 0.0
C930 C 0.27885 0.8218 0.50148 0.0
C931 C 0.24847 0.79478 0.48694 0.0
C932 C 0.28327 0.83059 0.54609 0.0
C933 C 0.25699 0.81317 0.57683 0.0
C934 C 0.22602 0.78709 0.56138 0.0
C935 C 0.22202 0.77766 0.51705 0.0
H936 H 0.55024 0.76246 0.00851 0.0
H937 H 0.65626 0.82786 0.98301 0.0
H938 H 0.55854 0.7793 0.08536 0.0
H939 H 0.66444 0.8446 0.0614 0.0
H940 H 0.65005 0.82309 0.22385 0.0
H941 H 0.65064 0.80915 0.14542 0.0
H942 H 0.5799 0.84221 0.11615 0.0
H943 H 0.57924 0.85621 0.19317 0.0
C944 C 0.57543 0.78034 0.01929 0.0
C945 C 0.60259 0.79405 0.98947 0.0
C946 C 0.58009 0.78989 0.06339 0.0
C947 C 0.61206 0.81314 0.07903 0.0
C948 C 0.63958 0.82645 0.04987 0.0
C949 C 0.63484 0.81714 0.00516 0.0
C950 C 0.63481 0.82751 0.20054 0.0
C951 C 0.61447 0.84058 0.2148 0.0
C952 C 0.63542 0.81984 0.15579 0.0
C953 C 0.61533 0.82472 0.12511 0.0
C954 C 0.59557 0.83826 0.1393 0.0
C955 C 0.59522 0.8462 0.18349 0.0
H956 H 0.32211 0.86688 0.01562 0.0
H957 H 0.22032 0.79726 0.97532 0.0
H958 H 0.30482 0.85657 0.09271 0.0
H959 H 0.20295 0.78726 0.05284 0.0
H960 H 0.25908 0.84415 0.22913 0.0
H961 H 0.26977 0.86155 0.15163 0.0
H962 H 0.21584 0.75763 0.11152 0.0
H963 H 0.20497 0.74022 0.18837 0.0
C964 C 0.2959 0.84977 0.0232 0.0
C965 C 0.27267 0.83246 0.9894 0.0
C966 C 0.28596 0.8441 0.06741 0.0
C967 C 0.25261 0.82089 0.07878 0.0
C968 C 0.22894 0.80498 0.04495 0.0
C969 C 0.23884 0.81083 0.00062 0.0
C970 C 0.2494 0.82505 0.20374 0.0
C971 C 0.23144 0.7908 0.21497 0.0
C972 C 0.25549 0.83502 0.15943 0.0
C973 C 0.24353 0.81094 0.12557 0.0
C974 C 0.22491 0.77679 0.13683 0.0
C975 C 0.21898 0.76683 0.18097 0.0
H976 H 0.3114 0.49059 0.967 0.0
H977 H 0.21085 0.46869 0.99819 0.0
H978 H 0.32098 0.48387 0.04452 0.0
H979 H 0.2189 0.45893 0.07499 0.0
H980 H 0.25386 0.48042 0.21723 0.0
H981 H 0.24283 0.48424 0.13944 0.0
H982 H 0.31249 0.45045 0.10387 0.0
H983 H 0.32536 0.44969 0.18166 0.0
C984 C 0.29112 0.48357 0.99049 0.0
C985 C 0.26052 0.48036 0.97691 0.0
C986 C 0.29641 0.47943 0.03502 0.0
C987 C 0.27079 0.47093 0.06674 0.0
C988 C 0.23968 0.46644 0.05229 0.0
C989 C 0.23484 0.47166 0.00809 0.0
C990 C 0.26662 0.47376 0.19254 0.0
C991 C 0.29056 0.46501 0.20515 0.0
C992 C 0.26017 0.47565 0.1478 0.0
C993 C 0.27678 0.46776 0.11466 0.0
C994 C 0.29983 0.4577 0.12788 0.0
C995 C 0.30702 0.45689 0.17255 0.0
H996 H 0.89302 0.78244 0.78869 0.0
H997 H 0.99608 0.82196 0.82958 0.0
H998 H 0.87533 0.77339 0.86612 0.0
H999 H 0.97842 0.81325 0.90656 0.0
H1000 H 0.93262 0.77246 0.04184 0.0
H1001 H 0.94565 0.77028 0.96385 0.0
H1002 H 0.88353 0.8124 0.9272 0.0
H1003 H 0.87037 0.81442 0.00436 0.0
C1004 C 0.91184 0.78894 0.81409 0.0
C1005 C 0.94599 0.80333 0.80296 0.0
C1006 C 0.90173 0.78384 0.85841 0.0
C1007 C 0.92552 0.79277 0.89241 0.0
C1008 C 0.95946 0.80583 0.88115 0.0
C1009 C 0.96958 0.81112 0.83698 0.0
C1010 C 0.92161 0.78105 0.01708 0.0
C1011 C 0.90069 0.79386 0.02942 0.0
C1012 C 0.92909 0.77983 0.97247 0.0
C1013 C 0.91555 0.79112 0.93941 0.0
C1014 C 0.89397 0.80306 0.95178 0.0
C1015 C 0.88669 0.80449 0.99617 0.0
H1016 H 0.21596 0.15771 0.84311 0.0
H1017 H 0.31299 0.16639 0.82084 0.0
H1018 H 0.22196 0.15363 0.92182 0.0
H1019 H 0.31953 0.16341 0.90067 0.0
H1020 H 0.29197 0.10321 0.03022 0.0
H1021 H 0.29426 0.11948 0.95409 0.0
H1022 H 0.24992 0.17996 0.98926 0.0
H1023 H 0.2466 0.16263 0.06661 0.0
C1024 C 0.23882 0.15908 0.85503 0.0
C1025 C 0.26374 0.16165 0.82549 0.0
C1026 C 0.24242 0.1572 0.90044 0.0
C1027 C 0.27112 0.15803 0.91769 0.0
C1028 C 0.29682 0.16216 0.88835 0.0
C1029 C 0.29315 0.16391 0.84265 0.0
C1030 C 0.28276 0.12014 0.02213 0.0
C1031 C 0.26873 0.13135 0.05471 0.0
C1032 C 0.28453 0.12983 0.97824 0.0
C1033 C 0.27246 0.15116 0.96542 0.0
C1034 C 0.25918 0.16321 0.99804 0.0
C1035 C 0.25731 0.15337 0.04233 0.0
H1036 H 0.95977 0.1786 0.80251 0.0
H1037 H 0.88365 0.07669 0.83158 0.0
H1038 H 0.96342 0.19248 0.8807 0.0
H1039 H 0.88466 0.09079 0.90917 0.0
H1040 H 0.92598 0.11429 0.0497 0.0
H1041 H 0.91494 0.10016 0.97176 0.0
H1042 H 0.94239 0.20305 0.94252 0.0
H1043 H 0.95656 0.21726 0.01987 0.0
C1044 C 0.94331 0.15944 0.82576 0.0
C1045 C 0.92176 0.1266 0.81151 0.0
C1046 C 0.94504 0.16734 0.87063 0.0
C1047 C 0.92442 0.14275 0.9019 0.0
C1048 C 0.90169 0.11023 0.88672 0.0
C1049 C 0.90084 0.10214 0.84217 0.0
C1050 C 0.92897 0.13355 0.02642 0.0
C1051 C 0.94158 0.16665 0.04043 0.0
C1052 C 0.92255 0.12556 0.98166 0.0
C1053 C 0.92792 0.15048 0.95017 0.0
C1054 C 0.93875 0.18329 0.96519 0.0
C1055 C 0.94621 0.1914 0.0097 0.0
H1056 H 0.23221 0.0641 0.34171 0.0
H1057 H 0.29326 0.17086 0.32026 0.0
H1058 H 0.23928 0.07238 0.42103 0.0
H1059 H 0.29896 0.17964 0.40007 0.0
H1060 H 0.3218 0.18752 0.54349 0.0
H1061 H 0.32193 0.17416 0.46588 0.0
H1062 H 0.22036 0.0911 0.47985 0.0
H1063 H 0.22139 0.10363 0.55845 0.0
C1064 C 0.24709 0.08945 0.35415 0.0
C1065 C 0.26198 0.11692 0.32495 0.0
C1066 C 0.25096 0.09422 0.39969 0.0
C1067 C 0.26934 0.12668 0.41732 0.0
C1068 C 0.285 0.15417 0.38787 0.0
C1069 C 0.28165 0.14929 0.34208 0.0
C1070 C 0.29983 0.16598 0.53004 0.0
C1071 C 0.27157 0.1466 0.55671 0.0
C1072 C 0.2997 0.15853 0.4854 0.0
C1073 C 0.27095 0.13196 0.46607 0.0
C1074 C 0.24314 0.11158 0.49347 0.0
C1075 C 0.2436 0.11867 0.53854 0.0
H1076 H 1.00378 0.20172 0.33424 0.0
H1077 H 0.90215 0.1244 0.30517 0.0
H1078 H 0.99203 0.19218 0.413 0.0
H1079 H 0.89068 0.11389 0.38394 0.0
H1080 H 0.87092 0.11962 0.52788 0.0
H1081 H 0.88307 0.1356 0.45079 0.0
H1082 H 0.9834 0.15142 0.46779 0.0
H1083 H 0.97151 0.13667 0.54595 0.0
C1084 C 0.97886 0.18272 0.34475 0.0
C1085 C 0.95388 0.16371 0.31356 0.0
C1086 C 0.97222 0.17706 0.38989 0.0
C1087 C 0.94055 0.15203 0.4049 0.0
C1088 C 0.91526 0.13367 0.37363 0.0
C1089 C 0.9218 0.13962 0.32843 0.0
C1090 C 0.89565 0.12662 0.51525 0.0
C1091 C 0.92025 0.1267 0.54289 0.0
C1092 C 0.90254 0.13562 0.47091 0.0
C1093 C 0.93407 0.14448 0.45285 0.0
C1094 C 0.95895 0.14513 0.48071 0.0
C1095 C 0.95216 0.13653 0.52542 0.0
H1096 H 0.88417 0.82121 0.33031 0.0
H1097 H 0.94706 0.78108 0.28823 0.0
H1098 H 0.89222 0.8112 0.40698 0.0
H1099 H 0.95473 0.77064 0.36541 0.0
H1100 H 1.00075 0.811 0.50365 0.0
H1101 H 0.9855 0.80863 0.42668 0.0
H1102 H 0.88154 0.76823 0.46407 0.0
H1103 H 0.8969 0.77085 0.54209 0.0
C1104 C 0.8995 0.80995 0.33737 0.0
C1105 C 0.91544 0.80244 0.3031 0.0
C1106 C 0.90378 0.80388 0.38139 0.0
C1107 C 0.92419 0.79025 0.39229 0.0
C1108 C 0.93912 0.78151 0.358 0.0
C1109 C 0.93469 0.78744 0.31382 0.0
C1110 C 0.97453 0.80134 0.4957 0.0
C1111 C 0.95006 0.79144 0.52919 0.0
C1112 C 0.96577 0.79968 0.45138 0.0
C1113 C 0.93233 0.78821 0.43924 0.0
C1114 C 0.90759 0.77742 0.47252 0.0
C1115 C 0.91635 0.77886 0.51712 0.0
H1116 H 0.40965 0.90191 0.96539 0.0
H1117 H 0.42595 0.96808 0.85545 0.0
H1118 H 0.46651 0.9394 0.9915 0.0
H1119 H 0.4834 1.00602 0.88177 0.0
H1120 H 0.59541 0.05346 0.91774 0.0
H1121 H 0.53972 1.01124 0.89093 0.0
H1122 H 0.50232 0.99354 0.0248 0.0
H1123 H 0.55757 0.03618 0.0509 0.0
C1124 C 0.4252 0.92479 0.94699 0.0
C1125 C 0.4126 0.93187 0.90839 0.0
C1126 C 0.45811 0.94643 0.96206 0.0
C1127 C 0.48023 0.97597 0.93887 0.0
C1128 C 0.46757 0.9834 0.90045 0.0
C1129 C 0.43427 0.96185 0.88563 0.0
C1130 C 0.57572 0.03941 0.94165 0.0
C1131 C 0.58166 0.04781 0.98681 0.0
C1132 C 0.54337 1.01568 0.92614 0.0
C1133 C 0.51582 0.999 0.95538 0.0
C1134 C 0.52252 1.00545 0.00091 0.0
C1135 C 0.55464 0.02958 0.0162 0.0
H1136 H 1.02026 0.55698 0.90943 0.0
H1137 H 1.04315 0.54667 0.0446 0.0
H1138 H 0.06086 0.54064 0.88408 0.0
H1139 H 0.08382 0.53091 0.01952 0.0
H1140 H 0.17602 0.53082 0.95907 0.0
H1141 H 0.13728 0.54923 0.98361 0.0
H1142 H 0.06773 0.4899 0.88129 0.0
H1143 H 0.10695 0.47137 0.85662 0.0
C1144 C 1.03468 0.55237 0.93387 0.0
C1145 C 1.0284 0.55366 0.97932 0.0
C1146 C 0.05762 0.5423 0.91925 0.0
C1147 C 0.07564 0.53386 0.94955 0.0
C1148 C 0.07078 0.5372 0.99489 0.0
C1149 C 0.04752 0.54662 0.00941 0.0
C1150 C 0.15215 0.52102 0.94227 0.0
C1151 C 0.1446 0.49897 0.90624 0.0
C1152 C 0.12983 0.53177 0.95632 0.0
C1153 C 0.09911 0.52141 0.93452 0.0
C1154 C 0.09119 0.49887 0.89881 0.0
C1155 C 0.11346 0.48766 0.88508 0.0
H1156 H 0.5637 0.6671 0.9786 0.0
H1157 H 0.59886 0.64315 0.85947 0.0
H1158 H 0.54018 0.60953 0.00405 0.0
H1159 H 0.57629 0.58549 0.88566 0.0
H1160 H 0.51436 0.47636 0.92426 0.0
H1161 H 0.52895 0.53248 0.89854 0.0
H1162 H 0.54852 0.56785 0.03318 0.0
H1163 H 0.53308 0.5117 0.05829 0.0
C1164 C 0.56715 0.6498 0.95805 0.0
C1165 C 0.58377 0.66054 0.91688 0.0
C1166 C 0.55345 0.61634 0.9728 0.0
C1167 C 0.55573 0.59191 0.94717 0.0
C1168 C 0.57309 0.60285 0.90639 0.0
C1169 C 0.58675 0.6364 0.89154 0.0
C1170 C 0.51962 0.49559 0.94864 0.0
C1171 C 0.52111 0.48869 0.99376 0.0
C1172 C 0.52927 0.52838 0.93371 0.0
C1173 C 0.54091 0.55571 0.96333 0.0
C1174 C 0.53966 0.54808 0.0088 0.0
C1175 C 0.53004 0.51535 0.02359 0.0
H1176 H 1.02092 0.47591 0.41225 0.0
H1177 H 1.0391 0.50665 0.54825 0.0
H1178 H 0.06296 0.5326 0.38895 0.0
H1179 H 0.08127 0.56323 0.52542 0.0
H1180 H 0.17099 0.65975 0.46811 0.0
H1181 H 0.13451 0.60195 0.49203 0.0
H1182 H 0.0662 0.58762 0.38574 0.0
H1183 H 0.1032 0.6459 0.36157 0.0
C1184 C 1.0354 0.49416 0.43742 0.0
C1185 C 1.02718 0.48598 0.48238 0.0
C1186 C 0.05884 0.52717 0.42396 0.0
C1187 C 0.0753 0.55318 0.45507 0.0
C1188 C 0.06941 0.54423 0.50019 0.0
C1189 C 0.04564 0.51133 0.51353 0.0
C1190 C 0.14782 0.64456 0.45027 0.0
C1191 C 0.13998 0.658 0.41318 0.0
C1192 C 0.12684 0.61114 0.46397 0.0
C1193 C 0.09729 0.58948 0.44078 0.0
C1194 C 0.08893 0.60312 0.40422 0.0
C1195 C 0.10984 0.63687 0.39077 0.0
H1196 H 0.599 0.55853 0.42339 0.0
H1197 H 0.55859 0.53315 0.55503 0.0
H1198 H 0.5432 0.54363 0.39508 0.0
H1199 H 0.50328 0.51898 0.52755 0.0
H1200 H 0.40937 0.5145 0.4674 0.0
H1201 H 0.46588 0.5347 0.49538 0.0
H1202 H 0.48845 0.49257 0.38202 0.0
H1203 H 0.43133 0.47246 0.35371 0.0
C1204 C 0.57864 0.55144 0.44669 0.0
C1205 C 0.58387 0.54785 0.4918 0.0
C1206 C 0.54625 0.542 0.43029 0.0
C1207 C 0.51799 0.52924 0.45863 0.0
C1208 C 0.52396 0.52865 0.50428 0.0
C1209 C 0.55613 0.53756 0.52041 0.0
C1210 C 0.42604 0.50877 0.44878 0.0
C1211 C 0.41513 0.49109 0.40856 0.0
C1212 C 0.45879 0.52061 0.46485 0.0
C1213 C 0.48245 0.51574 0.44115 0.0
C1214 C 0.4714 0.49739 0.40121 0.0
C1215 C 0.43827 0.48514 0.38529 0.0
H1216 H 0.55763 0.90857 0.47182 0.0
H1217 H 0.60239 0.97376 0.35952 0.0
H1218 H 0.53725 0.94494 0.4995 0.0
H1219 H 0.58197 1.01066 0.38737 0.0
H1220 H 0.51486 0.05431 0.42563 0.0
H1221 H 0.52984 1.01322 0.39861 0.0
H1222 H 0.55335 0.99865 0.53182 0.0
H1223 H 0.53905 0.04008 0.55813 0.0
C1224 C 0.56389 0.93123 0.45349 0.0
C1225 C 0.5824 0.93839 0.41377 0.0
C1226 C 0.55195 0.95212 0.46935 0.0
C1227 C 0.55747 0.9809 0.44577 0.0
C1228 C 0.57665 0.98857 0.40638 0.0
C1229 C 0.58906 0.96775 0.39075 0.0
C1230 C 0.52156 0.04107 0.44943 0.0
C1231 C 0.52476 0.05014 0.49439 0.0
C1232 C 0.53113 1.01807 0.43375 0.0
C1233 C 0.54367 1.0028 0.46268 0.0
C1234 C 0.54386 1.00956 0.50819 0.0
C1235 C 0.53485 0.03293 0.52362 0.0
H1236 H 0.22969 0.35715 0.37287 0.0
H1237 H 0.26738 0.39031 0.24105 0.0
H1238 H 0.17426 0.3191 0.34349 0.0
H1239 H 0.21142 0.35176 0.21109 0.0
H1240 H 0.09663 0.30568 0.1777 0.0
H1241 H 0.15403 0.34318 0.20507 0.0
H1242 H 0.13965 0.26974 0.30446 0.0
H1243 H 0.08303 0.23332 0.27808 0.0
C1244 C 0.2265 0.35543 0.33733 0.0
C1245 C 0.25362 0.37666 0.30961 0.0
C1246 C 0.19433 0.33364 0.32027 0.0
C1247 C 0.18761 0.33216 0.27459 0.0
C1248 C 0.21509 0.3523 0.24646 0.0
C1249 C 0.24758 0.374 0.26364 0.0
C1250 C 0.10551 0.29796 0.20602 0.0
C1251 C 0.08464 0.26641 0.22583 0.0
C1252 C 0.13878 0.31925 0.22135 0.0
C1253 C 0.15212 0.30981 0.25722 0.0
C1254 C 0.13075 0.27855 0.27731 0.0
C1255 C 0.09793 0.25742 0.26198 0.0
H1256 H 0.68843 0.89519 0.2522 0.0
H1257 H 0.71509 0.88087 0.38359 0.0
H1258 H 0.72593 0.8767 0.22113 0.0
H1259 H 0.75235 0.86265 0.35298 0.0
H1260 H 0.83948 0.85817 0.28618 0.0
H1261 H 0.80323 0.87808 0.31527 0.0
H1262 H 0.73207 0.8265 0.21092 0.0
H1263 H 0.76911 0.80665 0.1813 0.0
C1264 C 0.70301 0.88916 0.27461 0.0
C1265 C 0.69873 0.89012 0.32075 0.0
C1266 C 0.72417 0.87784 0.25669 0.0
C1267 C 0.74234 0.86762 0.28421 0.0
C1268 C 0.73929 0.87035 0.33023 0.0
C1269 C 0.71792 0.88116 0.34801 0.0
C1270 C 0.81579 0.85038 0.26974 0.0
C1271 C 0.80726 0.83013 0.23162 0.0
C1272 C 0.79482 0.86199 0.28652 0.0
C1273 C 0.76434 0.85425 0.26576 0.0
C1274 C 0.75537 0.83348 0.22788 0.0
C1275 C 0.77638 0.82148 0.21122 0.0
H1276 H 0.19207 0.84508 0.3916 0.0
H1277 H 0.17672 0.80787 0.25816 0.0
H1278 H 0.20999 0.90105 0.36438 0.0
H1279 H 0.19362 0.8642 0.2303 0.0
H1280 H 0.26108 0.97571 0.19096 0.0
H1281 H 0.2399 0.91822 0.21745 0.0
H1282 H 0.20036 0.94061 0.334 0.0
H1283 H 0.22283 0.99781 0.30879 0.0
C1284 C 0.19117 0.84855 0.3563 0.0
C1285 C 0.18248 0.82144 0.32739 0.0
C1286 C 0.20174 0.88107 0.34041 0.0
C1287 C 0.20389 0.88806 0.29471 0.0
C1288 C 0.19315 0.86047 0.26567 0.0
C1289 C 0.18256 0.82772 0.28173 0.0
C1290 C 0.2486 0.96859 0.22278 0.0
C1291 C 0.2443 0.99208 0.24776 0.0
C1292 C 0.23576 0.93519 0.23774 0.0
C1293 C 0.21794 0.92392 0.27812 0.0
C1294 C 0.21425 0.94774 0.30322 0.0
C1295 C 0.22728 0.981 0.28854 0.0
H1296 H 0.83851 1.00176 0.80675 0.0
H1297 H 0.77835 0.97591 0.6887 0.0
H1298 H 0.80434 0.94468 0.83414 0.0
H1299 H 0.74326 0.91878 0.71675 0.0
H1300 H 0.69615 0.81023 0.75866 0.0
H1301 H 0.7376 0.86585 0.73122 0.0
H1302 H 0.75419 0.90364 0.86468 0.0
H1303 H 0.71342 0.84801 0.8915 0.0
C1304 C 0.81752 0.98415 0.78683 0.0
C1305 C 0.81135 0.99422 0.7454 0.0
C1306 C 0.7977 0.95098 0.80271 0.0
C1307 C 0.77068 0.92616 0.77794 0.0
C1308 C 0.76403 0.93644 0.73687 0.0
C1309 C 0.78393 0.96971 0.72094 0.0
C1310 C 0.71021 0.82988 0.78244 0.0
C1311 C 0.70201 0.82379 0.82773 0.0
C1312 C 0.73335 0.86239 0.7665 0.0
C1313 C 0.74926 0.89025 0.79525 0.0
C1314 C 0.74309 0.88344 0.84093 0.0
C1315 C 0.71995 0.851 0.85671 0.0
H1316 H 0.09506 0.80589 0.68177 0.0
H1317 H 0.08192 0.86765 0.7776 0.0
H1318 H 0.15236 0.82603 0.70969 0.0
H1319 H 0.1385 0.888 0.80463 0.0
H1320 H 0.26584 0.89229 0.74514 0.0
H1321 H 0.21003 0.8748 0.71443 0.0
H1322 H 0.17283 0.87364 0.8458 0.0
H1323 H 0.22801 0.8908 0.87596 0.0
C1324 C 0.104 0.82321 0.70926 0.0
C1325 C 0.08324 0.83461 0.72764 0.0
C1326 C 0.13724 0.83532 0.72488 0.0
C1327 C 0.15072 0.85898 0.75966 0.0
C1328 C 0.12949 0.86963 0.77835 0.0
C1329 C 0.09668 0.85782 0.76268 0.0
C1330 C 0.24604 0.88931 0.76734 0.0
C1331 C 0.25198 0.89332 0.81331 0.0
C1332 C 0.21364 0.87858 0.74974 0.0
C1333 C 0.18617 0.87215 0.77738 0.0
C1334 C 0.19286 0.87834 0.82293 0.0
C1335 C 0.22492 0.88858 0.84042 0.0
H1336 H 0.23166 0.24512 0.80393 0.0
H1337 H 0.26132 0.29906 0.68019 0.0
H1338 H 0.21126 0.28138 0.82993 0.0
H1339 H 0.24221 0.33697 0.70728 0.0
H1340 H 0.20689 0.37116 0.88491 0.0
H1341 H 0.22357 0.3323 0.85714 0.0
H1342 H 0.19685 0.34559 0.72488 0.0
H1343 H 0.18131 0.38597 0.75308 0.0
C1344 C 0.23462 0.26527 0.7824 0.0
C1345 C 0.24862 0.26896 0.7398 0.0
C1346 C 0.22283 0.28642 0.79756 0.0
C1347 C 0.22478 0.31265 0.77111 0.0
C1348 C 0.23954 0.31693 0.72875 0.0
C1349 C 0.25116 0.29544 0.71335 0.0
C1350 C 0.20357 0.36514 0.85002 0.0
C1351 C 0.19222 0.3817 0.82162 0.0
C1352 C 0.21336 0.34268 0.8338 0.0
C1353 C 0.21205 0.33543 0.7883 0.0
C1354 C 0.19899 0.35067 0.75998 0.0
C1355 C 0.18922 0.37338 0.77635 0.0
H1356 H 0.74586 0.57015 0.62887 0.0
H1357 H 0.76381 0.62909 0.51043 0.0
H1358 H 0.80327 0.60649 0.65175 0.0
H1359 H 0.82155 0.66707 0.53461 0.0
H1360 H 0.9332 0.71883 0.57198 0.0
H1361 H 0.87687 0.67797 0.54574 0.0
H1362 H 0.84224 0.65598 0.68098 0.0
H1363 H 0.89818 0.69538 0.70651 0.0
C1364 C 0.76178 0.59141 0.60796 0.0
C1365 C 0.74942 0.59646 0.56773 0.0
C1366 C 0.79521 0.61263 0.62132 0.0
C1367 C 0.81799 0.64035 0.59545 0.0
C1368 C 0.80547 0.64592 0.55552 0.0
C1369 C 0.77189 0.62433 0.54185 0.0
C1370 C 0.91388 0.70422 0.5961 0.0
C1371 C 0.92081 0.71034 0.64163 0.0
C1372 C 0.88108 0.68119 0.581 0.0
C1373 C 0.85403 0.66337 0.61086 0.0
C1374 C 0.86174 0.66834 0.65634 0.0
C1375 C 0.89429 0.69111 0.67127 0.0
H1376 H 0.36003 0.23317 0.59088 0.0
H1377 H 0.37649 0.20874 0.72222 0.0
H1378 H 0.40224 0.22029 0.56213 0.0
H1379 H 0.41801 0.19547 0.69426 0.0
H1380 H 0.50393 0.1856 0.63673 0.0
H1381 H 0.46874 0.20707 0.66433 0.0
H1382 H 0.40929 0.17377 0.5454 0.0
H1383 H 0.44573 0.15332 0.5169 0.0
C1384 C 0.37389 0.22675 0.61404 0.0
C1385 C 0.36516 0.22289 0.65921 0.0
C1386 C 0.39755 0.21831 0.59737 0.0
C1387 C 0.41355 0.20591 0.62538 0.0
C1388 C 0.40688 0.205 0.67109 0.0
C1389 C 0.38324 0.2133 0.68754 0.0
C1390 C 0.48313 0.18235 0.61643 0.0
C1391 C 0.47785 0.16718 0.57445 0.0
C1392 C 0.46268 0.19483 0.63247 0.0
C1393 C 0.43576 0.19264 0.60743 0.0
C1394 C 0.42994 0.17675 0.56574 0.0
C1395 C 0.4506 0.16432 0.54956 0.0
H1396 H 0.92409 0.30677 0.51269 0.0
H1397 H 0.8925 0.33301 0.63312 0.0
H1398 H 0.90403 0.25016 0.54145 0.0
H1399 H 0.87166 0.27641 0.66137 0.0
H1400 H 0.87125 0.18174 0.71736 0.0
H1401 H 0.884 0.23679 0.69048 0.0
H1402 H 0.85718 0.19702 0.55844 0.0
H1403 H 0.84501 0.14198 0.58587 0.0
C1404 C 0.91328 0.30075 0.54555 0.0
C1405 C 0.9105 0.32519 0.57046 0.0
C1406 C 0.9011 0.2678 0.56193 0.0
C1407 C 0.88558 0.25781 0.60395 0.0
C1408 C 0.88353 0.28256 0.62916 0.0
C1409 C 0.89567 0.31542 0.6128 0.0
C1410 C 0.86606 0.18416 0.68305 0.0
C1411 C 0.85576 0.15662 0.65435 0.0
C1412 C 0.87409 0.21623 0.66721 0.0
C1413 C 0.87246 0.22228 0.62174 0.0
C1414 C 0.85964 0.19409 0.59349 0.0
C1415 C 0.85148 0.16194 0.6095 0.0
H1416 H 0.35462 0.14094 0.09183 0.0
H1417 H 0.37418 0.17968 0.22423 0.0
H1418 H 0.39665 0.19602 0.06344 0.0
H1419 H 0.41517 0.23477 0.19654 0.0
H1420 H 0.4999 0.33131 0.1391 0.0
H1421 H 0.46477 0.27461 0.16625 0.0
H1422 H 0.40494 0.24959 0.0477 0.0
H1423 H 0.44151 0.30653 0.0195 0.0
C1424 C 0.36928 0.16067 0.11527 0.0
C1425 C 0.36167 0.15505 0.16075 0.0
C1426 C 0.39273 0.19289 0.0988 0.0
C1427 C 0.40943 0.22087 0.12719 0.0
C1428 C 0.40359 0.21447 0.173 0.0
C1429 C 0.38026 0.18233 0.18931 0.0
C1430 C 0.47903 0.31401 0.11876 0.0
C1431 C 0.47375 0.32425 0.07693 0.0
C1432 C 0.45858 0.28102 0.13458 0.0
C1433 C 0.43155 0.25654 0.10955 0.0
C1434 C 0.42567 0.267 0.06807 0.0
C1435 C 0.4464 0.30013 0.05204 0.0
H1436 H 0.89424 0.21153 0.21048 0.0
H1437 H 0.93304 0.23379 0.07758 0.0
H1438 H 0.83824 0.19296 0.18351 0.0
H1439 H 0.87641 0.21604 0.04989 0.0
H1440 H 0.76468 0.14959 0.00851 0.0
H1441 H 0.82231 0.17029 0.03429 0.0
H1442 H 0.79824 0.20273 0.15594 0.0
H1443 H 0.74106 0.18074 0.1313 0.0
C1444 C 0.89108 0.21354 0.17534 0.0
C1445 C 0.91877 0.22429 0.14647 0.0
C1446 C 0.85847 0.20267 0.15958 0.0
C1447 C 0.85179 0.20236 0.11402 0.0
C1448 C 0.87983 0.21498 0.0851 0.0
C1449 C 0.91271 0.22585 0.10107 0.0
C1450 C 0.77146 0.16033 0.04125 0.0
C1451 C 0.74747 0.16277 0.06783 0.0
C1452 C 0.80496 0.17291 0.05588 0.0
C1453 C 0.81584 0.18859 0.09756 0.0
C1454 C 0.79152 0.19046 0.12412 0.0
C1455 C 0.75822 0.17772 0.10975 0.0
H1456 H 0.8721 0.56338 0.10839 0.0
H1457 H 0.93403 0.63587 0.00983 0.0
H1458 H 0.85347 0.60134 0.13499 0.0
H1459 H 0.91531 0.67444 0.03677 0.0
H1460 H 0.84888 0.7223 0.06966 0.0
H1461 H 0.86531 0.68261 0.04097 0.0
H1462 H 0.87141 0.65285 0.17429 0.0
H1463 H 0.85558 0.6926 0.20263 0.0
C1464 C 0.88228 0.58776 0.09274 0.0
C1465 C 0.90507 0.59645 0.05716 0.0
C1466 C 0.87145 0.60969 0.10809 0.0
C1467 C 0.88255 0.64126 0.08821 0.0
C1468 C 0.90575 0.6503 0.05285 0.0
C1469 C 0.91701 0.62836 0.03776 0.0
C1470 C 0.85268 0.70656 0.09284 0.0
C1471 C 0.85029 0.71061 0.13873 0.0
C1472 C 0.86281 0.68413 0.07634 0.0
C1473 C 0.87023 0.66443 0.10508 0.0
C1474 C 0.86588 0.66717 0.15075 0.0
C1475 C 0.85639 0.68991 0.16717 0.0
loop_
_geom_bond_atom_site_label_1
_geom_bond_atom_site_label_2
_geom_bond_distance
_geom_bond_site_symmetry_2
_ccdc_geom_bond_type
Fe0 O2 1.918 1_556 S
Fe0 O5 1.997 . S
Fe0 O6 2.002 . S
Fe0 O11 1.976 . S
Fe0 O14 1.996 1_556 S
Fe1 O2 1.918 . S
Fe1 O9 1.997 1_554 S
Fe1 O12 1.996 1_554 S
Fe1 O16 1.976 . S
Fe1 O19 2.002 . S
O2 Fe0 1.918 1_554 S
O2 Fe1 1.918 . S
O2 Fe3 1.918 . S
Fe3 O2 1.918 . S
Fe3 O4 2.002 . S
Fe3 O13 1.976 . S
Fe3 O17 1.996 . S
Fe3 O20 1.997 . S
O4 Fe3 2.002 . S
O4 C21 1.295 1_554 S
O5 Fe0 1.997 . S
O5 C21 1.235 . S
O6 Fe0 2.002 . S
O6 C7 1.295 . S
C7 O6 1.295 . S
C7 O9 1.235 . S
C8 O13 1.287 . S
C8 O14 1.255 . S
O9 Fe1 1.997 1_556 S
O9 C7 1.235 . S
C10 O16 1.287 . S
C10 O17 1.255 . S
O11 Fe0 1.976 . S
O11 C18 1.287 . S
O12 Fe1 1.996 1_556 S
O12 C18 1.255 . S
O13 Fe3 1.976 . S
O13 C8 1.287 . S
O14 Fe0 1.996 1_554 S
O14 C8 1.255 . S
C15 O19 1.295 . S
C15 O20 1.235 . S
O16 Fe1 1.976 . S
O16 C10 1.287 . S
O17 Fe3 1.996 . S
O17 C10 1.255 . S
C18 O11 1.287 . S
C18 O12 1.255 . S
O19 Fe1 2.002 . S
O19 C15 1.295 . S
O20 Fe3 1.997 . S
O20 C15 1.235 . S
C21 O4 1.295 1_556 S
C21 O5 1.235 . S
Fe22 O24 1.918 1_556 S
Fe22 O27 1.997 . S
Fe22 O28 2.002 . S
Fe22 O33 1.976 . S
Fe22 O36 1.996 1_556 S
Fe23 O24 1.918 . S
Fe23 O31 1.997 1_554 S
Fe23 O34 1.996 1_554 S
Fe23 O38 1.976 . S
Fe23 O41 2.002 . S
O24 Fe22 1.918 1_554 S
O24 Fe23 1.918 . S
O24 Fe25 1.918 . S
Fe25 O24 1.918 . S
Fe25 O26 2.002 . S
Fe25 O35 1.976 . S
Fe25 O39 1.996 . S
Fe25 O42 1.997 . S
O26 Fe25 2.002 . S
O26 C43 1.295 1_554 S
O27 Fe22 1.997 . S
O27 C43 1.235 . S
O28 Fe22 2.002 . S
O28 C29 1.295 . S
C29 O28 1.295 . S
C29 O31 1.235 . S
C30 O35 1.287 . S
C30 O36 1.255 . S
O31 Fe23 1.997 1_556 S
O31 C29 1.235 . S
C32 O38 1.287 . S
C32 O39 1.255 . S
O33 Fe22 1.976 . S
O33 C40 1.287 . S
O34 Fe23 1.996 1_556 S
O34 C40 1.255 . S
O35 Fe25 1.976 . S
O35 C30 1.287 . S
O36 Fe22 1.996 1_554 S
O36 C30 1.255 . S
C37 O41 1.295 . S
C37 O42 1.235 . S
O38 Fe23 1.976 . S
O38 C32 1.287 . S
O39 Fe25 1.996 . S
O39 C32 1.255 . S
C40 O33 1.287 . S
C40 O34 1.255 . S
O41 Fe23 2.002 . S
O41 C37 1.295 . S
O42 Fe25 1.997 . S
O42 C37 1.235 . S
C43 O26 1.295 1_556 S
C43 O27 1.235 . S
Fe44 O46 1.918 1_556 S
Fe44 O49 1.997 . S
Fe44 O50 2.002 . S
Fe44 O55 1.976 . S
Fe44 O58 1.996 1_556 S
Fe45 O46 1.918 . S
Fe45 O53 1.997 1_554 S
Fe45 O56 1.996 1_554 S
Fe45 O60 1.976 . S
Fe45 O63 2.002 . S
O46 Fe44 1.918 1_554 S
O46 Fe45 1.918 . S
O46 Fe47 1.918 . S
Fe47 O46 1.918 . S
Fe47 O48 2.002 . S
Fe47 O57 1.976 . S
Fe47 O61 1.996 . S
Fe47 O64 1.997 . S
O48 Fe47 2.002 . S
O48 C65 1.295 1_554 S
O49 Fe44 1.997 . S
O49 C65 1.235 . S
O50 Fe44 2.002 . S
O50 C51 1.295 . S
C51 O50 1.295 . S
C51 O53 1.235 . S
C52 O57 1.287 . S
C52 O58 1.255 . S
O53 Fe45 1.997 1_556 S
O53 C51 1.235 . S
C54 O60 1.287 . S
C54 O61 1.255 . S
O55 Fe44 1.976 . S
O55 C62 1.287 . S
O56 Fe45 1.996 1_556 S
O56 C62 1.255 . S
O57 Fe47 1.976 . S
O57 C52 1.287 . S
O58 Fe44 1.996 1_554 S
O58 C52 1.255 . S
C59 O63 1.295 . S
C59 O64 1.235 . S
O60 Fe45 1.976 . S
O60 C54 1.287 . S
O61 Fe47 1.996 . S
O61 C54 1.255 . S
C62 O55 1.287 . S
C62 O56 1.255 . S
O63 Fe45 2.002 . S
O63 C59 1.295 . S
O64 Fe47 1.997 . S
O64 C59 1.235 . S
C65 O48 1.295 1_556 S
C65 O49 1.235 . S
Fe66 O68 1.918 . S
Fe66 O71 1.997 . S
Fe66 O72 2.002 . S
Fe66 O77 1.976 . S
Fe66 O80 1.996 . S
Fe67 O68 1.918 . S
Fe67 O75 1.997 . S
Fe67 O78 1.996 . S
Fe67 O82 1.976 . S
Fe67 O85 2.002 . S
O68 Fe66 1.918 . S
O68 Fe67 1.918 . S
O68 Fe69 1.918 . S
Fe69 O68 1.918 . S
Fe69 O70 2.002 . S
Fe69 O79 1.976 . S
Fe69 O83 1.996 . S
Fe69 O86 1.997 . S
O70 Fe69 2.002 . S
O70 C87 1.295 . S
O71 Fe66 1.997 . S
O71 C87 1.235 . S
O72 Fe66 2.002 . S
O72 C73 1.295 . S
C73 O72 1.295 . S
C73 O75 1.235 . S
C74 O79 1.287 . S
C74 O80 1.255 . S
O75 Fe67 1.997 . S
O75 C73 1.235 . S
C76 O82 1.287 . S
C76 O83 1.255 . S
O77 Fe66 1.976 . S
O77 C84 1.287 . S
O78 Fe67 1.996 . S
O78 C84 1.255 . S
O79 Fe69 1.976 . S
O79 C74 1.287 . S
O80 Fe66 1.996 . S
O80 C74 1.255 . S
C81 O85 1.295 . S
C81 O86 1.235 . S
O82 Fe67 1.976 . S
O82 C76 1.287 . S
O83 Fe69 1.996 . S
O83 C76 1.255 . S
C84 O77 1.287 . S
C84 O78 1.255 . S
O85 Fe67 2.002 . S
O85 C81 1.295 . S
O86 Fe69 1.997 . S
O86 C81 1.235 . S
C87 O70 1.295 . S
C87 O71 1.235 . S
Fe88 O90 1.918 . S
Fe88 O93 1.997 . S
Fe88 O94 2.002 . S
Fe88 O99 1.976 . S
Fe88 O102 1.996 . S
Fe89 O90 1.918 . S
Fe89 O97 1.997 . S
Fe89 O100 1.996 . S
Fe89 O104 1.976 . S
Fe89 O107 2.002 . S
O90 Fe88 1.918 . S
O90 Fe89 1.918 . S
O90 Fe91 1.918 . S
Fe91 O90 1.918 . S
Fe91 O92 2.002 . S
Fe91 O101 1.976 . S
Fe91 O105 1.996 . S
Fe91 O108 1.997 . S
O92 Fe91 2.002 . S
O92 C109 1.295 . S
O93 Fe88 1.997 . S
O93 C109 1.235 . S
O94 Fe88 2.002 . S
O94 C95 1.295 . S
C95 O94 1.295 . S
C95 O97 1.235 . S
C96 O101 1.287 . S
C96 O102 1.255 . S
O97 Fe89 1.997 . S
O97 C95 1.235 . S
C98 O104 1.287 . S
C98 O105 1.255 . S
O99 Fe88 1.976 . S
O99 C106 1.287 . S
O100 Fe89 1.996 . S
O100 C106 1.255 . S
O101 Fe91 1.976 . S
O101 C96 1.287 . S
O102 Fe88 1.996 . S
O102 C96 1.255 . S
C103 O107 1.295 . S
C103 O108 1.235 . S
O104 Fe89 1.976 . S
O104 C98 1.287 . S
O105 Fe91 1.996 . S
O105 C98 1.255 . S
C106 O99 1.287 . S
C106 O100 1.255 . S
O107 Fe89 2.002 . S
O107 C103 1.295 . S
O108 Fe91 1.997 . S
O108 C103 1.235 . S
C109 O92 1.295 . S
C109 O93 1.235 . S
Fe110 O112 1.918 . S
Fe110 O115 1.997 . S
Fe110 O116 2.002 . S
Fe110 O121 1.976 . S
Fe110 O124 1.996 . S
Fe111 O112 1.918 . S
Fe111 O119 1.997 . S
Fe111 O122 1.996 . S
Fe111 O126 1.976 . S
Fe111 O129 2.002 . S
O112 Fe110 1.918 . S
O112 Fe111 1.918 . S
O112 Fe113 1.918 . S
Fe113 O112 1.918 . S
Fe113 O114 2.002 . S
Fe113 O123 1.976 . S
Fe113 O127 1.996 . S
Fe113 O130 1.997 . S
O114 Fe113 2.002 . S
O114 C131 1.295 . S
O115 Fe110 1.997 . S
O115 C131 1.235 . S
O116 Fe110 2.002 . S
O116 C117 1.295 . S
C117 O116 1.295 . S
C117 O119 1.235 . S
C118 O123 1.287 . S
C118 O124 1.255 . S
O119 Fe111 1.997 . S
O119 C117 1.235 . S
C120 O126 1.287 . S
C120 O127 1.255 . S
O121 Fe110 1.976 . S
O121 C128 1.287 . S
O122 Fe111 1.996 . S
O122 C128 1.255 . S
O123 Fe113 1.976 . S
O123 C118 1.287 . S
O124 Fe110 1.996 . S
O124 C118 1.255 . S
C125 O129 1.295 . S
C125 O130 1.235 . S
O126 Fe111 1.976 . S
O126 C120 1.287 . S
O127 Fe113 1.996 . S
O127 C120 1.255 . S
C128 O121 1.287 . S
C128 O122 1.255 . S
O129 Fe111 2.002 . S
O129 C125 1.295 . S
O130 Fe113 1.997 . S
O130 C125 1.235 . S
C131 O114 1.295 . S
C131 O115 1.235 . S
Fe132 O134 1.918 . S
Fe132 O137 1.997 . S
Fe132 O138 2.002 . S
Fe132 O143 1.976 . S
Fe132 O146 1.996 . S
Fe133 O134 1.918 . S
Fe133 O141 1.997 . S
Fe133 O144 1.996 . S
Fe133 O148 1.976 . S
Fe133 O151 2.002 . S
O134 Fe132 1.918 . S
O134 Fe133 1.918 . S
O134 Fe135 1.918 . S
Fe135 O134 1.918 . S
Fe135 O136 2.002 . S
Fe135 O145 1.976 . S
Fe135 O149 1.996 . S
Fe135 O152 1.997 . S
O136 Fe135 2.002 . S
O136 C153 1.295 . S
O137 Fe132 1.997 . S
O137 C153 1.235 . S
O138 Fe132 2.002 . S
O138 C139 1.295 . S
C139 O138 1.295 . S
C139 O141 1.235 . S
C140 O145 1.287 . S
C140 O146 1.255 . S
O141 Fe133 1.997 . S
O141 C139 1.235 . S
C142 O148 1.287 . S
C142 O149 1.255 . S
O143 Fe132 1.976 . S
O143 C150 1.287 . S
O144 Fe133 1.996 . S
O144 C150 1.255 . S
O145 Fe135 1.976 . S
O145 C140 1.287 . S
O146 Fe132 1.996 . S
O146 C140 1.255 . S
C147 O151 1.295 . S
C147 O152 1.235 . S
O148 Fe133 1.976 . S
O148 C142 1.287 . S
O149 Fe135 1.996 . S
O149 C142 1.255 . S
C150 O143 1.287 . S
C150 O144 1.255 . S
O151 Fe133 2.002 . S
O151 C147 1.295 . S
O152 Fe135 1.997 . S
O152 C147 1.235 . S
C153 O136 1.295 . S
C153 O137 1.235 . S
Fe154 O156 1.918 . S
Fe154 O159 1.997 . S
Fe154 O160 2.002 . S
Fe154 O165 1.976 . S
Fe154 O168 1.996 . S
Fe155 O156 1.918 . S
Fe155 O163 1.997 . S
Fe155 O166 1.996 . S
Fe155 O170 1.976 . S
Fe155 O173 2.002 . S
O156 Fe154 1.918 . S
O156 Fe155 1.918 . S
O156 Fe157 1.918 . S
Fe157 O156 1.918 . S
Fe157 O158 2.002 . S
Fe157 O167 1.976 . S
Fe157 O171 1.996 . S
Fe157 O174 1.997 . S
O158 Fe157 2.002 . S
O158 C175 1.295 . S
O159 Fe154 1.997 . S
O159 C175 1.235 . S
O160 Fe154 2.002 . S
O160 C161 1.295 . S
C161 O160 1.295 . S
C161 O163 1.235 . S
C162 O167 1.287 . S
C162 O168 1.255 . S
O163 Fe155 1.997 . S
O163 C161 1.235 . S
C164 O170 1.287 . S
C164 O171 1.255 . S
O165 Fe154 1.976 . S
O165 C172 1.287 . S
O166 Fe155 1.996 . S
O166 C172 1.255 . S
O167 Fe157 1.976 . S
O167 C162 1.287 . S
O168 Fe154 1.996 . S
O168 C162 1.255 . S
C169 O173 1.295 . S
C169 O174 1.235 . S
O170 Fe155 1.976 . S
O170 C164 1.287 . S
O171 Fe157 1.996 . S
O171 C164 1.255 . S
C172 O165 1.287 . S
C172 O166 1.255 . S
O173 Fe155 2.002 . S
O173 C169 1.295 . S
O174 Fe157 1.997 . S
O174 C169 1.235 . S
C175 O158 1.295 . S
C175 O159 1.235 . S
Fe176 O178 1.918 . S
Fe176 O181 1.997 . S
Fe176 O182 2.002 . S
Fe176 O187 1.976 . S
Fe176 O190 1.996 . S
Fe177 O178 1.918 . S
Fe177 O185 1.997 . S
Fe177 O188 1.996 . S
Fe177 O192 1.976 . S
Fe177 O195 2.002 . S
O178 Fe176 1.918 . S
O178 Fe177 1.918 . S
O178 Fe179 1.918 . S
Fe179 O178 1.918 . S
Fe179 O180 2.002 . S
Fe179 O189 1.976 . S
Fe179 O193 1.996 . S
Fe179 O196 1.997 . S
O180 Fe179 2.002 . S
O180 C197 1.295 . S
O181 Fe176 1.997 . S
O181 C197 1.235 . S
O182 Fe176 2.002 . S
O182 C183 1.295 . S
C183 O182 1.295 . S
C183 O185 1.235 . S
C184 O189 1.287 . S
C184 O190 1.255 . S
O185 Fe177 1.997 . S
O185 C183 1.235 . S
C186 O192 1.287 . S
C186 O193 1.255 . S
O187 Fe176 1.976 . S
O187 C194 1.287 . S
O188 Fe177 1.996 . S
O188 C194 1.255 . S
O189 Fe179 1.976 . S
O189 C184 1.287 . S
O190 Fe176 1.996 . S
O190 C184 1.255 . S
C191 O195 1.295 . S
C191 O196 1.235 . S
O192 Fe177 1.976 . S
O192 C186 1.287 . S
O193 Fe179 1.996 . S
O193 C186 1.255 . S
C194 O187 1.287 . S
C194 O188 1.255 . S
O195 Fe177 2.002 . S
O195 C191 1.295 . S
O196 Fe179 1.997 . S
O196 C191 1.235 . S
C197 O180 1.295 . S
C197 O181 1.235 . S
Fe198 O200 1.918 . S
Fe198 O203 1.997 . S
Fe198 O204 2.002 . S
Fe198 O209 1.976 . S
Fe198 O212 1.996 . S
Fe199 O200 1.918 . S
Fe199 O207 1.997 . S
Fe199 O210 1.996 . S
Fe199 O214 1.976 . S
Fe199 O217 2.002 . S
O200 Fe198 1.918 . S
O200 Fe199 1.918 . S
O200 Fe201 1.918 . S
Fe201 O200 1.918 . S
Fe201 O202 2.002 . S
Fe201 O211 1.976 . S
Fe201 O215 1.996 . S
Fe201 O218 1.997 . S
O202 Fe201 2.002 . S
O202 C219 1.295 . S
O203 Fe198 1.997 . S
O203 C219 1.235 . S
O204 Fe198 2.002 . S
O204 C205 1.295 . S
C205 O204 1.295 . S
C205 O207 1.235 . S
C206 O211 1.287 . S
C206 O212 1.255 . S
O207 Fe199 1.997 . S
O207 C205 1.235 . S
C208 O214 1.287 . S
C208 O215 1.255 . S
O209 Fe198 1.976 . S
O209 C216 1.287 . S
O210 Fe199 1.996 . S
O210 C216 1.255 . S
O211 Fe201 1.976 . S
O211 C206 1.287 . S
O212 Fe198 1.996 . S
O212 C206 1.255 . S
C213 O217 1.295 . S
C213 O218 1.235 . S
O214 Fe199 1.976 . S
O214 C208 1.287 . S
O215 Fe201 1.996 . S
O215 C208 1.255 . S
C216 O209 1.287 . S
C216 O210 1.255 . S
O217 Fe199 2.002 . S
O217 C213 1.295 . S
O218 Fe201 1.997 . S
O218 C213 1.235 . S
C219 O202 1.295 . S
C219 O203 1.235 . S
Fe220 O222 1.918 . S
Fe220 O225 1.997 . S
Fe220 O226 2.002 . S
Fe220 O231 1.976 . S
Fe220 O234 1.996 . S
Fe221 O222 1.918 . S
Fe221 O229 1.997 . S
Fe221 O232 1.996 . S
Fe221 O236 1.976 . S
Fe221 O239 2.002 . S
O222 Fe220 1.918 . S
O222 Fe221 1.918 . S
O222 Fe223 1.918 . S
Fe223 O222 1.918 . S
Fe223 O224 2.002 . S
Fe223 O233 1.976 . S
Fe223 O237 1.996 . S
Fe223 O240 1.997 . S
O224 Fe223 2.002 . S
O224 C241 1.295 . S
O225 Fe220 1.997 . S
O225 C241 1.235 . S
O226 Fe220 2.002 . S
O226 C227 1.295 . S
C227 O226 1.295 . S
C227 O229 1.235 . S
C228 O233 1.287 . S
C228 O234 1.255 . S
O229 Fe221 1.997 . S
O229 C227 1.235 . S
C230 O236 1.287 . S
C230 O237 1.255 . S
O231 Fe220 1.976 . S
O231 C238 1.287 . S
O232 Fe221 1.996 . S
O232 C238 1.255 . S
O233 Fe223 1.976 . S
O233 C228 1.287 . S
O234 Fe220 1.996 . S
O234 C228 1.255 . S
C235 O239 1.295 . S
C235 O240 1.235 . S
O236 Fe221 1.976 . S
O236 C230 1.287 . S
O237 Fe223 1.996 . S
O237 C230 1.255 . S
C238 O231 1.287 . S
C238 O232 1.255 . S
O239 Fe221 2.002 . S
O239 C235 1.295 . S
O240 Fe223 1.997 . S
O240 C235 1.235 . S
C241 O224 1.295 . S
C241 O225 1.235 . S
Fe242 O244 1.918 . S
Fe242 O247 1.997 . S
Fe242 O248 2.002 . S
Fe242 O253 1.976 . S
Fe242 O256 1.996 . S
Fe243 O244 1.918 . S
Fe243 O251 1.997 . S
Fe243 O254 1.996 . S
Fe243 O258 1.976 . S
Fe243 O261 2.002 . S
O244 Fe242 1.918 . S
O244 Fe243 1.918 . S
O244 Fe245 1.918 . S
Fe245 O244 1.918 . S
Fe245 O246 2.002 . S
Fe245 O255 1.976 . S
Fe245 O259 1.996 . S
Fe245 O262 1.997 . S
O246 Fe245 2.002 . S
O246 C263 1.295 . S
O247 Fe242 1.997 . S
O247 C263 1.235 . S
O248 Fe242 2.002 . S
O248 C249 1.295 . S
C249 O248 1.295 . S
C249 O251 1.235 . S
C250 O255 1.287 . S
C250 O256 1.255 . S
O251 Fe243 1.997 . S
O251 C249 1.235 . S
C252 O258 1.287 . S
C252 O259 1.255 . S
O253 Fe242 1.976 . S
O253 C260 1.287 . S
O254 Fe243 1.996 . S
O254 C260 1.255 . S
O255 Fe245 1.976 . S
O255 C250 1.287 . S
O256 Fe242 1.996 . S
O256 C250 1.255 . S
C257 O261 1.295 . S
C257 O262 1.235 . S
O258 Fe243 1.976 . S
O258 C252 1.287 . S
O259 Fe245 1.996 . S
O259 C252 1.255 . S
C260 O253 1.287 . S
C260 O254 1.255 . S
O261 Fe243 2.002 . S
O261 C257 1.295 . S
O262 Fe245 1.997 . S
O262 C257 1.235 . S
C263 O246 1.295 . S
C263 O247 1.235 . S
Fe264 O266 1.918 . S
Fe264 O269 1.997 . S
Fe264 O270 2.002 . S
Fe264 O275 1.976 . S
Fe264 O278 1.996 . S
Fe265 O266 1.918 . S
Fe265 O273 1.997 . S
Fe265 O276 1.996 . S
Fe265 O280 1.976 . S
Fe265 O283 2.002 . S
O266 Fe264 1.918 . S
O266 Fe265 1.918 . S
O266 Fe267 1.918 . S
Fe267 O266 1.918 . S
Fe267 O268 1.991 1_655 S
Fe267 O277 1.976 . S
Fe267 O281 1.996 . S
Fe267 O284 1.997 . S
O268 Fe267 1.991 1_455 S
O268 C285 1.305 . S
O269 Fe264 1.997 . S
O269 C285 1.235 1_655 S
O270 Fe264 2.002 . S
O270 C271 1.295 . S
C271 O270 1.295 . S
C271 O273 1.235 . S
C272 O277 1.287 . S
C272 O278 1.255 . S
O273 Fe265 1.997 . S
O273 C271 1.235 . S
C274 O280 1.287 . S
C274 O281 1.255 . S
O275 Fe264 1.976 . S
O275 C282 1.287 . S
O276 Fe265 1.996 . S
O276 C282 1.255 . S
O277 Fe267 1.976 . S
O277 C272 1.287 . S
O278 Fe264 1.996 . S
O278 C272 1.255 . S
C279 O283 1.295 . S
C279 O284 1.235 . S
O280 Fe265 1.976 . S
O280 C274 1.287 . S
O281 Fe267 1.996 . S
O281 C274 1.255 . S
C282 O275 1.287 . S
C282 O276 1.255 . S
O283 Fe265 2.002 . S
O283 C279 1.295 . S
O284 Fe267 1.997 . S
O284 C279 1.235 . S
C285 O268 1.305 . S
C285 O269 1.235 1_455 S
Fe286 O288 1.918 . S
Fe286 O291 1.997 . S
Fe286 O292 2.002 . S
Fe286 O297 1.976 . S
Fe286 O300 1.996 . S
Fe287 O288 1.918 . S
Fe287 O295 1.997 . S
Fe287 O298 1.996 . S
Fe287 O302 1.976 . S
Fe287 O305 2.002 . S
O288 Fe286 1.918 . S
O288 Fe287 1.918 . S
O288 Fe289 1.918 . S
Fe289 O288 1.918 . S
Fe289 O290 2.002 . S
Fe289 O299 1.976 . S
Fe289 O303 1.996 . S
Fe289 O306 1.997 . S
O290 Fe289 2.002 . S
O290 C307 1.295 . S
O291 Fe286 1.997 . S
O291 C307 1.235 . S
O292 Fe286 2.002 . S
O292 C293 1.295 . S
C293 O292 1.295 . S
C293 O295 1.235 . S
C294 O299 1.287 . S
C294 O300 1.255 . S
O295 Fe287 1.997 . S
O295 C293 1.235 . S
C296 O302 1.287 . S
C296 O303 1.255 . S
O297 Fe286 1.976 . S
O297 C304 1.287 . S
O298 Fe287 1.996 . S
O298 C304 1.255 . S
O299 Fe289 1.976 . S
O299 C294 1.287 . S
O300 Fe286 1.996 . S
O300 C294 1.255 . S
C301 O305 1.295 . S
C301 O306 1.235 . S
O302 Fe287 1.976 . S
O302 C296 1.287 . S
O303 Fe289 1.996 . S
O303 C296 1.255 . S
C304 O297 1.287 . S
C304 O298 1.255 . S
O305 Fe287 2.002 . S
O305 C301 1.295 . S
O306 Fe289 1.997 . S
O306 C301 1.235 . S
C307 O290 1.295 . S
C307 O291 1.235 . S
Fe308 O310 1.918 . S
Fe308 O313 1.997 . S
Fe308 O314 2.002 . S
Fe308 O319 1.976 . S
Fe308 O322 1.996 . S
Fe309 O310 1.918 . S
Fe309 O317 1.997 . S
Fe309 O320 1.996 . S
Fe309 O324 1.976 . S
Fe309 O327 2.002 . S
O310 Fe308 1.918 . S
O310 Fe309 1.918 . S
O310 Fe311 1.918 . S
Fe311 O310 1.918 . S
Fe311 O312 1.982 1_545 S
Fe311 O321 1.976 . S
Fe311 O325 1.996 . S
Fe311 O328 1.997 . S
O312 Fe311 1.982 1_565 S
O312 C329 1.298 . S
O313 Fe308 1.997 . S
O313 C329 1.235 1_545 S
O314 Fe308 2.002 . S
O314 C315 1.295 . S
C315 O314 1.295 . S
C315 O317 1.235 . S
C316 O321 1.287 . S
C316 O322 1.255 . S
O317 Fe309 1.997 . S
O317 C315 1.235 . S
C318 O324 1.287 . S
C318 O325 1.255 . S
O319 Fe308 1.976 . S
O319 C326 1.287 . S
O320 Fe309 1.996 . S
O320 C326 1.255 . S
O321 Fe311 1.976 . S
O321 C316 1.287 . S
O322 Fe308 1.996 . S
O322 C316 1.255 . S
C323 O327 1.295 . S
C323 O328 1.235 . S
O324 Fe309 1.976 . S
O324 C318 1.287 . S
O325 Fe311 1.996 . S
O325 C318 1.255 . S
C326 O319 1.287 . S
C326 O320 1.255 . S
O327 Fe309 2.002 . S
O327 C323 1.295 . S
O328 Fe311 1.997 . S
O328 C323 1.235 . S
C329 O312 1.298 . S
C329 O313 1.235 1_565 S
Fe330 O332 1.918 . S
Fe330 O335 1.997 . S
Fe330 O336 2.002 . S
Fe330 O341 1.976 . S
Fe330 O344 1.996 . S
Fe331 O332 1.918 . S
Fe331 O339 1.997 . S
Fe331 O342 1.996 . S
Fe331 O346 1.976 . S
Fe331 O349 2.002 . S
O332 Fe330 1.918 . S
O332 Fe331 1.918 . S
O332 Fe333 1.918 . S
Fe333 O332 1.918 . S
Fe333 O334 1.991 1_545 S
Fe333 O343 1.976 . S
Fe333 O347 1.996 . S
Fe333 O350 1.997 . S
O334 Fe333 1.991 1_565 S
O334 C351 1.305 . S
O335 Fe330 1.997 . S
O335 C351 1.235 1_545 S
O336 Fe330 2.002 . S
O336 C337 1.295 . S
C337 O336 1.295 . S
C337 O339 1.235 . S
C338 O343 1.287 . S
C338 O344 1.255 . S
O339 Fe331 1.997 . S
O339 C337 1.235 . S
C340 O346 1.287 . S
C340 O347 1.255 . S
O341 Fe330 1.976 . S
O341 C348 1.287 . S
O342 Fe331 1.996 . S
O342 C348 1.255 . S
O343 Fe333 1.976 . S
O343 C338 1.287 . S
O344 Fe330 1.996 . S
O344 C338 1.255 . S
C345 O349 1.295 . S
C345 O350 1.235 . S
O346 Fe331 1.976 . S
O346 C340 1.287 . S
O347 Fe333 1.996 . S
O347 C340 1.255 . S
C348 O341 1.287 . S
C348 O342 1.255 . S
O349 Fe331 2.002 . S
O349 C345 1.295 . S
O350 Fe333 1.997 . S
O350 C345 1.235 . S
C351 O334 1.305 . S
C351 O335 1.235 1_565 S
Fe352 O354 1.918 . S
Fe352 O357 1.997 . S
Fe352 O358 2.002 . S
Fe352 O363 1.976 . S
Fe352 O366 1.996 . S
Fe353 O354 1.918 . S
Fe353 O361 1.997 . S
Fe353 O364 1.996 . S
Fe353 O368 1.976 . S
Fe353 O371 2.002 . S
O354 Fe352 1.918 . S
O354 Fe353 1.918 . S
O354 Fe355 1.918 . S
Fe355 O354 1.918 . S
Fe355 O356 1.982 1_655 S
Fe355 O365 1.976 . S
Fe355 O369 1.996 . S
Fe355 O372 1.997 . S
O356 Fe355 1.982 1_455 S
O356 C373 1.298 . S
O357 Fe352 1.997 . S
O357 C373 1.235 1_655 S
O358 Fe352 2.002 . S
O358 C359 1.295 . S
C359 O358 1.295 . S
C359 O361 1.235 . S
C360 O365 1.287 . S
C360 O366 1.255 . S
O361 Fe353 1.997 . S
O361 C359 1.235 . S
C362 O368 1.287 . S
C362 O369 1.255 . S
O363 Fe352 1.976 . S
O363 C370 1.287 . S
O364 Fe353 1.996 . S
O364 C370 1.255 . S
O365 Fe355 1.976 . S
O365 C360 1.287 . S
O366 Fe352 1.996 . S
O366 C360 1.255 . S
C367 O371 1.295 . S
C367 O372 1.235 . S
O368 Fe353 1.976 . S
O368 C362 1.287 . S
O369 Fe355 1.996 . S
O369 C362 1.255 . S
C370 O363 1.287 . S
C370 O364 1.255 . S
O371 Fe353 2.002 . S
O371 C367 1.295 . S
O372 Fe355 1.997 . S
O372 C367 1.235 . S
C373 O356 1.298 . S
C373 O357 1.235 1_455 S
Fe374 O376 1.918 . S
Fe374 O379 1.997 . S
Fe374 O380 2.002 . S
Fe374 O385 1.976 . S
Fe374 O388 1.996 . S
Fe375 O376 1.918 . S
Fe375 O383 1.997 . S
Fe375 O386 1.996 . S
Fe375 O390 1.976 . S
Fe375 O393 2.002 . S
O376 Fe374 1.918 . S
O376 Fe375 1.918 . S
O376 Fe377 1.918 . S
Fe377 O376 1.918 . S
Fe377 O378 2.002 . S
Fe377 O387 1.976 . S
Fe377 O391 1.996 . S
Fe377 O394 1.997 . S
O378 Fe377 2.002 . S
O378 C395 1.295 . S
O379 Fe374 1.997 . S
O379 C395 1.235 . S
O380 Fe374 2.002 . S
O380 C381 1.295 . S
C381 O380 1.295 . S
C381 O383 1.235 . S
C382 O387 1.287 . S
C382 O388 1.255 . S
O383 Fe375 1.997 . S
O383 C381 1.235 . S
C384 O390 1.287 . S
C384 O391 1.255 . S
O385 Fe374 1.976 . S
O385 C392 1.287 . S
O386 Fe375 1.996 . S
O386 C392 1.255 . S
O387 Fe377 1.976 . S
O387 C382 1.287 . S
O388 Fe374 1.996 . S
O388 C382 1.255 . S
C389 O393 1.295 . S
C389 O394 1.235 . S
O390 Fe375 1.976 . S
O390 C384 1.287 . S
O391 Fe377 1.996 . S
O391 C384 1.255 . S
C392 O385 1.287 . S
C392 O386 1.255 . S
O393 Fe375 2.002 . S
O393 C389 1.295 . S
O394 Fe377 1.997 . S
O394 C389 1.235 . S
C395 O378 1.295 . S
C395 O379 1.235 . S
H396 C404 0.950 . S
H397 C409 0.950 . S
H398 C406 0.950 1_556 S
H399 C408 0.950 . S
H400 C410 0.950 . S
H401 C412 0.950 . S
H402 C414 0.950 . S
H403 C415 0.950 . S
C404 H396 0.950 . S
C404 C405 1.386 . S
C404 C406 1.391 . S
C405 C404 1.386 . S
C405 C409 1.393 . S
C406 H398 0.950 1_554 S
C406 C404 1.391 . S
C406 C407 1.400 . S
C407 C406 1.400 . S
C407 C408 1.398 . S
C407 C413 1.491 1_554 S
C408 H399 0.950 . S
C408 C407 1.398 . S
C408 C409 1.391 . S
C409 H397 0.950 . S
C409 C405 1.393 . S
C409 C408 1.391 . S
C410 H400 0.950 . S
C410 C411 1.386 . S
C410 C412 1.391 . S
C411 C410 1.386 . S
C411 C415 1.393 . S
C412 H401 0.950 . S
C412 C410 1.391 . S
C412 C413 1.400 . S
C413 C407 1.491 1_556 S
C413 C412 1.400 . S
C413 C414 1.398 . S
C414 H402 0.950 . S
C414 C413 1.398 . S
C414 C415 1.391 . S
C415 H403 0.950 . S
C415 C411 1.393 . S
C415 C414 1.391 . S
H416 C424 0.950 . S
H417 C429 0.950 . S
H418 C426 0.950 . S
H419 C428 0.950 1_554 S
H420 C430 0.950 . S
H421 C432 0.950 . S
H422 C434 0.950 . S
H423 C435 0.950 1_556 S
C424 H416 0.950 . S
C424 C425 1.386 . S
C424 C426 1.391 . S
C425 C424 1.386 . S
C425 C429 1.393 . S
C426 H418 0.950 . S
C426 C424 1.391 . S
C426 C427 1.400 . S
C427 C426 1.400 . S
C427 C428 1.398 . S
C427 C433 1.491 1_556 S
C428 H419 0.950 1_556 S
C428 C427 1.398 . S
C428 C429 1.391 . S
C429 H417 0.950 . S
C429 C425 1.393 . S
C429 C428 1.391 . S
C430 H420 0.950 . S
C430 C431 1.386 . S
C430 C432 1.391 . S
C431 C430 1.386 . S
C431 C435 1.393 . S
C432 H421 0.950 . S
C432 C430 1.391 . S
C432 C433 1.400 . S
C433 C427 1.491 1_554 S
C433 C432 1.400 . S
C433 C434 1.398 1_554 S
C434 H422 0.950 . S
C434 C433 1.398 1_556 S
C434 C435 1.391 1_556 S
C435 H423 0.950 1_554 S
C435 C431 1.393 . S
C435 C434 1.391 1_554 S
H436 C444 0.950 . S
H437 C449 0.950 . S
H438 C446 0.950 . S
H439 C448 0.950 . S
H440 C450 0.950 . S
H441 C452 0.950 . S
H442 C454 0.950 . S
H443 C455 0.950 . S
C444 H436 0.950 . S
C444 C445 1.386 1_556 S
C444 C446 1.391 . S
C445 C444 1.386 1_554 S
C445 C449 1.393 . S
C446 H438 0.950 . S
C446 C444 1.391 . S
C446 C447 1.400 1_556 S
C447 C446 1.400 1_554 S
C447 C448 1.398 . S
C447 C453 1.491 1_554 S
C448 H439 0.950 . S
C448 C447 1.398 . S
C448 C449 1.391 . S
C449 H437 0.950 . S
C449 C445 1.393 . S
C449 C448 1.391 . S
C450 H440 0.950 . S
C450 C451 1.386 1_554 S
C450 C452 1.391 . S
C451 C450 1.386 1_556 S
C451 C455 1.393 . S
C452 H441 0.950 . S
C452 C450 1.391 . S
C452 C453 1.400 1_554 S
C453 C447 1.491 1_556 S
C453 C452 1.400 1_556 S
C453 C454 1.398 . S
C454 H442 0.950 . S
C454 C453 1.398 . S
C454 C455 1.391 . S
C455 H443 0.950 . S
C455 C451 1.393 . S
C455 C454 1.391 . S
H456 C464 0.950 . S
H457 C469 0.950 . S
H458 C466 0.950 . S
H459 C468 0.950 . S
H460 C470 0.950 . S
H461 C472 0.950 . S
H462 C474 0.950 . S
H463 C475 0.950 . S
C464 H456 0.950 . S
C464 C465 1.386 . S
C464 C466 1.391 . S
C465 C464 1.386 . S
C465 C469 1.393 . S
C466 H458 0.950 . S
C466 C464 1.391 . S
C466 C467 1.400 . S
C467 C466 1.400 . S
C467 C468 1.398 . S
C467 C473 1.491 . S
C468 H459 0.950 . S
C468 C467 1.398 . S
C468 C469 1.391 . S
C469 H457 0.950 . S
C469 C465 1.393 . S
C469 C468 1.391 . S
C470 H460 0.950 . S
C470 C471 1.386 . S
C470 C472 1.391 . S
C471 C470 1.386 . S
C471 C475 1.393 . S
C472 H461 0.950 . S
C472 C470 1.391 . S
C472 C473 1.400 . S
C473 C467 1.491 . S
C473 C472 1.400 . S
C473 C474 1.398 . S
C474 H462 0.950 . S
C474 C473 1.398 . S
C474 C475 1.391 . S
C475 H463 0.950 . S
C475 C471 1.393 . S
C475 C474 1.391 . S
H476 C484 0.950 . S
H477 C489 0.950 . S
H478 C486 0.950 . S
H479 C488 0.950 . S
H480 C490 0.950 . S
H481 C492 0.950 . S
H482 C494 0.950 . S
H483 C495 0.950 . S
C484 H476 0.950 . S
C484 C485 1.386 . S
C484 C486 1.391 . S
C485 C484 1.386 . S
C485 C489 1.393 . S
C486 H478 0.950 . S
C486 C484 1.391 . S
C486 C487 1.400 . S
C487 C486 1.400 . S
C487 C488 1.398 . S
C487 C493 1.491 . S
C488 H479 0.950 . S
C488 C487 1.398 . S
C488 C489 1.391 . S
C489 H477 0.950 . S
C489 C485 1.393 . S
C489 C488 1.391 . S
C490 H480 0.950 . S
C490 C491 1.386 . S
C490 C492 1.391 . S
C491 C490 1.386 . S
C491 C495 1.393 . S
C492 H481 0.950 . S
C492 C490 1.391 . S
C492 C493 1.400 . S
C493 C487 1.491 . S
C493 C492 1.400 . S
C493 C494 1.398 . S
C494 H482 0.950 . S
C494 C493 1.398 . S
C494 C495 1.391 . S
C495 H483 0.950 . S
C495 C491 1.393 . S
C495 C494 1.391 . S
H496 C504 0.950 . S
H497 C509 0.950 . S
H498 C506 0.950 . S
H499 C508 0.950 . S
H500 C510 0.950 . S
H501 C512 0.950 . S
H502 C514 0.950 . S
H503 C515 0.950 . S
C504 H496 0.950 . S
C504 C505 1.386 . S
C504 C506 1.391 . S
C505 C504 1.386 . S
C505 C509 1.393 . S
C506 H498 0.950 . S
C506 C504 1.391 . S
C506 C507 1.400 . S
C507 C506 1.400 . S
C507 C508 1.398 . S
C507 C513 1.491 . S
C508 H499 0.950 . S
C508 C507 1.398 . S
C508 C509 1.391 . S
C509 H497 0.950 . S
C509 C505 1.393 . S
C509 C508 1.391 . S
C510 H500 0.950 . S
C510 C511 1.386 . S
C510 C512 1.391 . S
C511 C510 1.386 . S
C511 C515 1.393 . S
C512 H501 0.950 . S
C512 C510 1.391 . S
C512 C513 1.400 . S
C513 C507 1.491 . S
C513 C512 1.400 . S
C513 C514 1.398 . S
C514 H502 0.950 . S
C514 C513 1.398 . S
C514 C515 1.391 . S
C515 H503 0.950 . S
C515 C511 1.393 . S
C515 C514 1.391 . S
H516 C524 0.950 . S
H517 C529 0.950 . S
H518 C526 0.950 . S
H519 C528 0.950 . S
H520 C530 0.950 . S
H521 C532 0.950 . S
H522 C534 0.950 . S
H523 C535 0.950 . S
C524 H516 0.950 . S
C524 C525 1.386 . S
C524 C526 1.391 . S
C525 C524 1.386 . S
C525 C529 1.393 . S
C526 H518 0.950 . S
C526 C524 1.391 . S
C526 C527 1.400 . S
C527 C526 1.400 . S
C527 C528 1.398 . S
C527 C533 1.491 . S
C528 H519 0.950 . S
C528 C527 1.398 . S
C528 C529 1.391 . S
C529 H517 0.950 . S
C529 C525 1.393 . S
C529 C528 1.391 . S
C530 H520 0.950 . S
C530 C531 1.386 . S
C530 C532 1.391 . S
C531 C530 1.386 . S
C531 C535 1.393 . S
C532 H521 0.950 . S
C532 C530 1.391 . S
C532 C533 1.400 . S
C533 C527 1.491 . S
C533 C532 1.400 . S
C533 C534 1.398 . S
C534 H522 0.950 . S
C534 C533 1.398 . S
C534 C535 1.391 . S
C535 H523 0.950 . S
C535 C531 1.393 . S
C535 C534 1.391 . S
H536 C544 0.950 . S
H537 C549 0.950 . S
H538 C546 0.950 . S
H539 C548 0.950 . S
H540 C550 0.950 . S
H541 C552 0.950 . S
H542 C554 0.950 . S
H543 C555 0.950 . S
C544 H536 0.950 . S
C544 C545 1.386 . S
C544 C546 1.391 . S
C545 C544 1.386 . S
C545 C549 1.393 . S
C546 H538 0.950 . S
C546 C544 1.391 . S
C546 C547 1.400 . S
C547 C546 1.400 . S
C547 C548 1.398 . S
C547 C553 1.491 . S
C548 H539 0.950 . S
C548 C547 1.398 . S
C548 C549 1.391 . S
C549 H537 0.950 . S
C549 C545 1.393 . S
C549 C548 1.391 . S
C550 H540 0.950 . S
C550 C551 1.386 . S
C550 C552 1.391 . S
C551 C550 1.386 . S
C551 C555 1.393 . S
C552 H541 0.950 . S
C552 C550 1.391 . S
C552 C553 1.400 . S
C553 C547 1.491 . S
C553 C552 1.400 . S
C553 C554 1.398 . S
C554 H542 0.950 . S
C554 C553 1.398 . S
C554 C555 1.391 . S
C555 H543 0.950 . S
C555 C551 1.393 . S
C555 C554 1.391 . S
H556 C564 0.950 . S
H557 C569 0.950 . S
H558 C566 0.950 . S
H559 C568 0.950 . S
H560 C570 0.950 . S
H561 C572 0.950 . S
H562 C574 0.950 . S
H563 C575 0.950 . S
C564 H556 0.950 . S
C564 C565 1.386 . S
C564 C566 1.391 . S
C565 C564 1.386 . S
C565 C569 1.393 . S
C566 H558 0.950 . S
C566 C564 1.391 . S
C566 C567 1.400 . S
C567 C566 1.400 . S
C567 C568 1.398 . S
C567 C573 1.491 . S
C568 H559 0.950 . S
C568 C567 1.398 . S
C568 C569 1.391 . S
C569 H557 0.950 . S
C569 C565 1.393 . S
C569 C568 1.391 . S
C570 H560 0.950 . S
C570 C571 1.386 . S
C570 C572 1.391 . S
C571 C570 1.386 . S
C571 C575 1.393 . S
C572 H561 0.950 . S
C572 C570 1.391 . S
C572 C573 1.400 . S
C573 C567 1.491 . S
C573 C572 1.400 . S
C573 C574 1.398 . S
C574 H562 0.950 . S
C574 C573 1.398 . S
C574 C575 1.391 . S
C575 H563 0.950 . S
C575 C571 1.393 . S
C575 C574 1.391 . S
H576 C584 0.950 . S
H577 C589 0.950 . S
H578 C586 0.950 . S
H579 C588 0.950 . S
H580 C590 0.950 . S
H581 C592 0.950 . S
H582 C594 0.950 . S
H583 C595 0.950 . S
C584 H576 0.950 . S
C584 C585 1.386 . S
C584 C586 1.391 . S
C585 C584 1.386 . S
C585 C589 1.393 . S
C586 H578 0.950 . S
C586 C584 1.391 . S
C586 C587 1.400 . S
C587 C586 1.400 . S
C587 C588 1.398 . S
C587 C593 1.491 . S
C588 H579 0.950 . S
C588 C587 1.398 . S
C588 C589 1.391 . S
C589 H577 0.950 . S
C589 C585 1.393 . S
C589 C588 1.391 . S
C590 H580 0.950 . S
C590 C591 1.386 . S
C590 C592 1.391 . S
C591 C590 1.386 . S
C591 C595 1.393 . S
C592 H581 0.950 . S
C592 C590 1.391 . S
C592 C593 1.400 . S
C593 C587 1.491 . S
C593 C592 1.400 . S
C593 C594 1.398 . S
C594 H582 0.950 . S
C594 C593 1.398 . S
C594 C595 1.391 . S
C595 H583 0.950 . S
C595 C591 1.393 . S
C595 C594 1.391 . S
H596 C604 0.950 . S
H597 C609 0.950 . S
H598 C606 0.950 . S
H599 C608 0.950 . S
H600 C610 0.950 . S
H601 C612 0.950 . S
H602 C614 0.950 . S
H603 C615 0.950 . S
C604 H596 0.950 . S
C604 C605 1.386 . S
C604 C606 1.391 . S
C605 C604 1.386 . S
C605 C609 1.393 . S
C606 H598 0.950 . S
C606 C604 1.391 . S
C606 C607 1.400 . S
C607 C606 1.400 . S
C607 C608 1.398 . S
C607 C613 1.491 . S
C608 H599 0.950 . S
C608 C607 1.398 . S
C608 C609 1.391 . S
C609 H597 0.950 . S
C609 C605 1.393 . S
C609 C608 1.391 . S
C610 H600 0.950 . S
C610 C611 1.386 . S
C610 C612 1.391 . S
C611 C610 1.386 . S
C611 C615 1.393 . S
C612 H601 0.950 . S
C612 C610 1.391 . S
C612 C613 1.400 . S
C613 C607 1.491 . S
C613 C612 1.400 . S
C613 C614 1.398 . S
C614 H602 0.950 . S
C614 C613 1.398 . S
C614 C615 1.391 . S
C615 H603 0.950 . S
C615 C611 1.393 . S
C615 C614 1.391 . S
H616 C624 0.950 . S
H617 C629 0.950 . S
H618 C626 0.950 . S
H619 C628 0.950 . S
H620 C630 0.950 . S
H621 C632 0.950 . S
H622 C634 0.950 . S
H623 C635 0.950 . S
C624 H616 0.950 . S
C624 C625 1.386 . S
C624 C626 1.391 . S
C625 C624 1.386 . S
C625 C629 1.393 . S
C626 H618 0.950 . S
C626 C624 1.391 . S
C626 C627 1.400 . S
C627 C626 1.400 . S
C627 C628 1.398 . S
C627 C633 1.491 . S
C628 H619 0.950 . S
C628 C627 1.398 . S
C628 C629 1.391 . S
C629 H617 0.950 . S
C629 C625 1.393 . S
C629 C628 1.391 . S
C630 H620 0.950 . S
C630 C631 1.386 . S
C630 C632 1.391 . S
C631 C630 1.386 . S
C631 C635 1.393 . S
C632 H621 0.950 . S
C632 C630 1.391 . S
C632 C633 1.400 . S
C633 C627 1.491 . S
C633 C632 1.400 . S
C633 C634 1.398 . S
C634 H622 0.950 . S
C634 C633 1.398 . S
C634 C635 1.391 . S
C635 H623 0.950 . S
C635 C631 1.393 . S
C635 C634 1.391 . S
H636 C644 0.950 . S
H637 C649 0.950 1_545 S
H638 C646 0.950 . S
H639 C648 0.950 . S
H640 C650 0.950 . S
H641 C652 0.950 . S
H642 C654 0.950 . S
H643 C655 0.950 . S
C644 H636 0.950 . S
C644 C645 1.386 . S
C644 C646 1.391 . S
C645 C644 1.386 . S
C645 C649 1.393 . S
C646 H638 0.950 . S
C646 C644 1.391 . S
C646 C647 1.400 . S
C647 C646 1.400 . S
C647 C648 1.398 . S
C647 C653 1.491 . S
C648 H639 0.950 . S
C648 C647 1.398 . S
C648 C649 1.391 . S
C649 H637 0.950 1_565 S
C649 C645 1.393 . S
C649 C648 1.391 . S
C650 H640 0.950 . S
C650 C651 1.386 . S
C650 C652 1.391 . S
C651 C650 1.386 . S
C651 C655 1.393 . S
C652 H641 0.950 . S
C652 C650 1.391 . S
C652 C653 1.400 . S
C653 C647 1.491 . S
C653 C652 1.400 . S
C653 C654 1.398 . S
C654 H642 0.950 . S
C654 C653 1.398 . S
C654 C655 1.391 . S
C655 H643 0.950 . S
C655 C651 1.393 . S
C655 C654 1.391 . S
H656 C664 0.950 . S
H657 C669 0.950 . S
H658 C666 0.955 1_565 S
H659 C668 0.950 . S
H660 C670 0.950 . S
H661 C672 0.950 . S
H662 C674 0.950 . S
H663 C675 0.950 1_655 S
C664 H656 0.950 . S
C664 C665 1.386 . S
C664 C666 1.409 . S
C665 C664 1.386 . S
C665 C669 1.393 . S
C666 H658 0.955 1_545 S
C666 C664 1.409 . S
C666 C667 1.379 1_545 S
C667 C666 1.379 1_565 S
C667 C668 1.398 . S
C667 C673 1.491 . S
C668 H659 0.950 . S
C668 C667 1.398 . S
C668 C669 1.391 1_565 S
C669 H657 0.950 . S
C669 C665 1.393 . S
C669 C668 1.391 1_545 S
C670 H660 0.950 . S
C670 C671 1.386 . S
C670 C672 1.391 . S
C671 C670 1.386 . S
C671 C675 1.393 . S
C672 H661 0.950 . S
C672 C670 1.391 . S
C672 C673 1.400 . S
C673 C667 1.491 . S
C673 C672 1.400 . S
C673 C674 1.398 . S
C674 H662 0.950 . S
C674 C673 1.398 . S
C674 C675 1.391 . S
C675 H663 0.950 1_455 S
C675 C671 1.393 . S
C675 C674 1.391 . S
H676 C684 0.950 . S
H677 C689 0.950 . S
H678 C686 0.950 . S
H679 C688 0.950 . S
H680 C690 0.950 . S
H681 C692 0.950 . S
H682 C694 0.950 . S
H683 C695 0.950 . S
C684 H676 0.950 . S
C684 C685 1.386 . S
C684 C686 1.391 1_655 S
C685 C684 1.386 . S
C685 C689 1.393 . S
C686 H678 0.950 . S
C686 C684 1.391 1_455 S
C686 C687 1.400 . S
C687 C686 1.400 . S
C687 C688 1.398 . S
C687 C693 1.491 . S
C688 H679 0.950 . S
C688 C687 1.398 . S
C688 C689 1.391 1_455 S
C689 H677 0.950 . S
C689 C685 1.393 . S
C689 C688 1.391 1_655 S
C690 H680 0.950 . S
C690 C691 1.386 . S
C690 C692 1.391 . S
C691 C690 1.386 . S
C691 C695 1.393 . S
C692 H681 0.950 . S
C692 C690 1.391 . S
C692 C693 1.400 . S
C693 C687 1.491 . S
C693 C692 1.400 . S
C693 C694 1.398 . S
C694 H682 0.950 . S
C694 C693 1.398 . S
C694 C695 1.391 . S
C695 H683 0.950 . S
C695 C691 1.393 . S
C695 C694 1.391 . S
H696 C704 0.950 . S
H697 C709 0.950 . S
H698 C706 0.950 . S
H699 C708 0.950 . S
H700 C710 0.950 . S
H701 C712 0.950 . S
H702 C714 0.950 . S
H703 C715 0.950 . S
C704 H696 0.950 . S
C704 C705 1.386 . S
C704 C706 1.391 . S
C705 C704 1.386 . S
C705 C709 1.393 . S
C706 H698 0.950 . S
C706 C704 1.391 . S
C706 C707 1.400 . S
C707 C706 1.400 . S
C707 C708 1.398 . S
C707 C713 1.491 . S
C708 H699 0.950 . S
C708 C707 1.398 . S
C708 C709 1.391 . S
C709 H697 0.950 . S
C709 C705 1.393 . S
C709 C708 1.391 . S
C710 H700 0.950 . S
C710 C711 1.386 . S
C710 C712 1.391 . S
C711 C710 1.386 . S
C711 C715 1.393 . S
C712 H701 0.950 . S
C712 C710 1.391 . S
C712 C713 1.400 . S
C713 C707 1.491 . S
C713 C712 1.400 . S
C713 C714 1.398 . S
C714 H702 0.950 . S
C714 C713 1.398 . S
C714 C715 1.391 . S
C715 H703 0.950 . S
C715 C711 1.393 . S
C715 C714 1.391 . S
H716 C724 0.950 . S
H717 C729 0.950 . S
H718 C726 0.950 . S
H719 C728 0.950 . S
H720 C730 0.950 . S
H721 C732 0.950 . S
H722 C734 0.950 . S
H723 C735 0.950 . S
C724 H716 0.950 . S
C724 C725 1.386 . S
C724 C726 1.391 . S
C725 C724 1.386 . S
C725 C729 1.393 . S
C726 H718 0.950 . S
C726 C724 1.391 . S
C726 C727 1.400 . S
C727 C726 1.400 . S
C727 C728 1.398 . S
C727 C733 1.491 . S
C728 H719 0.950 . S
C728 C727 1.398 . S
C728 C729 1.391 . S
C729 H717 0.950 . S
C729 C725 1.393 . S
C729 C728 1.391 . S
C730 H720 0.950 . S
C730 C731 1.386 . S
C730 C732 1.391 1_545 S
C731 C730 1.386 . S
C731 C735 1.393 . S
C732 H721 0.950 . S
C732 C730 1.391 1_565 S
C732 C733 1.400 . S
C733 C727 1.491 . S
C733 C732 1.400 . S
C733 C734 1.398 . S
C734 H722 0.950 . S
C734 C733 1.398 . S
C734 C735 1.391 1_565 S
C735 H723 0.950 . S
C735 C731 1.393 . S
C735 C734 1.391 1_545 S
H736 C744 0.950 . S
H737 C749 0.950 1_545 S
H738 C746 0.950 . S
H739 C748 0.950 . S
H740 C750 0.950 . S
H741 C752 0.950 . S
H742 C754 0.950 . S
H743 C755 0.950 . S
C744 H736 0.950 . S
C744 C745 1.386 . S
C744 C746 1.391 . S
C745 C744 1.386 . S
C745 C749 1.393 . S
C746 H738 0.950 . S
C746 C744 1.391 . S
C746 C747 1.400 . S
C747 C746 1.400 . S
C747 C748 1.398 . S
C747 C753 1.491 . S
C748 H739 0.950 . S
C748 C747 1.398 . S
C748 C749 1.391 . S
C749 H737 0.950 1_565 S
C749 C745 1.393 . S
C749 C748 1.391 . S
C750 H740 0.950 . S
C750 C751 1.386 . S
C750 C752 1.391 1_655 S
C751 C750 1.386 . S
C751 C755 1.393 . S
C752 H741 0.950 . S
C752 C750 1.391 1_455 S
C752 C753 1.400 . S
C753 C747 1.491 . S
C753 C752 1.400 . S
C753 C754 1.398 . S
C754 H742 0.950 . S
C754 C753 1.398 . S
C754 C755 1.391 1_455 S
C755 H743 0.950 . S
C755 C751 1.393 . S
C755 C754 1.391 1_655 S
H756 C764 0.950 . S
H757 C769 0.950 . S
H758 C766 0.950 . S
H759 C768 0.950 . S
H760 C770 0.950 . S
H761 C772 0.950 . S
H762 C774 0.950 . S
H763 C775 0.950 . S
C764 H756 0.950 . S
C764 C765 1.386 . S
C764 C766 1.391 . S
C765 C764 1.386 . S
C765 C769 1.393 . S
C766 H758 0.950 . S
C766 C764 1.391 . S
C766 C767 1.400 . S
C767 C766 1.400 . S
C767 C768 1.398 . S
C767 C773 1.491 . S
C768 H759 0.950 . S
C768 C767 1.398 . S
C768 C769 1.391 . S
C769 H757 0.950 . S
C769 C765 1.393 . S
C769 C768 1.391 . S
C770 H760 0.950 . S
C770 C771 1.386 . S
C770 C772 1.391 . S
C771 C770 1.386 . S
C771 C775 1.393 . S
C772 H761 0.950 . S
C772 C770 1.391 . S
C772 C773 1.400 . S
C773 C767 1.491 . S
C773 C772 1.400 . S
C773 C774 1.398 . S
C774 H762 0.950 . S
C774 C773 1.398 . S
C774 C775 1.391 . S
C775 H763 0.950 . S
C775 C771 1.393 . S
C775 C774 1.391 . S
H776 C784 0.950 . S
H777 C789 0.950 . S
H778 C786 0.950 . S
H779 C788 0.950 . S
H780 C790 0.950 . S
H781 C792 0.950 . S
H782 C794 0.950 . S
H783 C795 0.950 . S
C784 H776 0.950 . S
C784 C785 1.386 . S
C784 C786 1.391 . S
C785 C784 1.386 . S
C785 C789 1.393 . S
C786 H778 0.950 . S
C786 C784 1.391 . S
C786 C787 1.400 . S
C787 C786 1.400 . S
C787 C788 1.398 . S
C787 C793 1.491 . S
C788 H779 0.950 . S
C788 C787 1.398 . S
C788 C789 1.391 . S
C789 H777 0.950 . S
C789 C785 1.393 . S
C789 C788 1.391 . S
C790 H780 0.950 . S
C790 C791 1.386 . S
C790 C792 1.391 . S
C791 C790 1.386 . S
C791 C795 1.393 . S
C792 H781 0.950 . S
C792 C790 1.391 . S
C792 C793 1.400 . S
C793 C787 1.491 . S
C793 C792 1.400 . S
C793 C794 1.398 . S
C794 H782 0.950 . S
C794 C793 1.398 . S
C794 C795 1.391 . S
C795 H783 0.950 . S
C795 C791 1.393 . S
C795 C794 1.391 . S
H796 C804 0.950 . S
H797 C809 0.950 . S
H798 C806 0.950 . S
H799 C808 0.950 . S
H800 C810 0.950 . S
H801 C812 0.950 . S
H802 C814 0.950 . S
H803 C815 0.950 . S
C804 H796 0.950 . S
C804 C805 1.386 . S
C804 C806 1.391 . S
C805 C804 1.386 . S
C805 C809 1.393 . S
C806 H798 0.950 . S
C806 C804 1.391 . S
C806 C807 1.400 . S
C807 C806 1.400 . S
C807 C808 1.398 . S
C807 C813 1.491 . S
C808 H799 0.950 . S
C808 C807 1.398 . S
C808 C809 1.391 . S
C809 H797 0.950 . S
C809 C805 1.393 . S
C809 C808 1.391 . S
C810 H800 0.950 . S
C810 C811 1.386 . S
C810 C812 1.391 . S
C811 C810 1.386 . S
C811 C815 1.393 . S
C812 H801 0.950 . S
C812 C810 1.391 . S
C812 C813 1.400 . S
C813 C807 1.491 . S
C813 C812 1.400 . S
C813 C814 1.398 . S
C814 H802 0.950 . S
C814 C813 1.398 . S
C814 C815 1.391 . S
C815 H803 0.950 . S
C815 C811 1.393 . S
C815 C814 1.391 . S
H816 C824 0.950 . S
H817 C829 0.950 . S
H818 C826 0.950 . S
H819 C828 0.950 . S
H820 C830 0.950 . S
H821 C832 0.950 . S
H822 C834 0.950 . S
H823 C835 0.950 . S
C824 H816 0.950 . S
C824 C825 1.386 . S
C824 C826 1.391 . S
C825 C824 1.386 . S
C825 C829 1.393 . S
C826 H818 0.950 . S
C826 C824 1.391 . S
C826 C827 1.400 . S
C827 C826 1.400 . S
C827 C828 1.398 . S
C827 C833 1.491 . S
C828 H819 0.950 . S
C828 C827 1.398 . S
C828 C829 1.391 . S
C829 H817 0.950 . S
C829 C825 1.393 . S
C829 C828 1.391 . S
C830 H820 0.950 . S
C830 C831 1.386 . S
C830 C832 1.391 . S
C831 C830 1.386 . S
C831 C835 1.393 . S
C832 H821 0.950 . S
C832 C830 1.391 . S
C832 C833 1.400 . S
C833 C827 1.491 . S
C833 C832 1.400 . S
C833 C834 1.398 . S
C834 H822 0.950 . S
C834 C833 1.398 . S
C834 C835 1.391 . S
C835 H823 0.950 . S
C835 C831 1.393 . S
C835 C834 1.391 . S
H836 C844 0.950 . S
H837 C849 0.950 . S
H838 C846 0.950 . S
H839 C848 0.950 . S
H840 C850 0.950 . S
H841 C852 0.950 . S
H842 C854 0.950 . S
H843 C855 0.950 . S
C844 H836 0.950 . S
C844 C845 1.386 . S
C844 C846 1.391 . S
C845 C844 1.386 . S
C845 C849 1.393 . S
C846 H838 0.950 . S
C846 C844 1.391 . S
C846 C847 1.400 . S
C847 C846 1.400 . S
C847 C848 1.398 . S
C847 C853 1.491 . S
C848 H839 0.950 . S
C848 C847 1.398 . S
C848 C849 1.391 . S
C849 H837 0.950 . S
C849 C845 1.393 . S
C849 C848 1.391 . S
C850 H840 0.950 . S
C850 C851 1.386 . S
C850 C852 1.391 . S
C851 C850 1.386 . S
C851 C855 1.393 . S
C852 H841 0.950 . S
C852 C850 1.391 . S
C852 C853 1.400 . S
C853 C847 1.491 . S
C853 C852 1.400 . S
C853 C854 1.398 . S
C854 H842 0.950 . S
C854 C853 1.398 . S
C854 C855 1.391 . S
C855 H843 0.950 . S
C855 C851 1.393 . S
C855 C854 1.391 . S
H856 C864 0.950 . S
H857 C869 0.950 . S
H858 C866 0.950 . S
H859 C868 0.950 . S
H860 C870 0.950 . S
H861 C872 0.950 . S
H862 C874 0.950 . S
H863 C875 0.950 . S
C864 H856 0.950 . S
C864 C865 1.386 . S
C864 C866 1.391 . S
C865 C864 1.386 . S
C865 C869 1.393 . S
C866 H858 0.950 . S
C866 C864 1.391 . S
C866 C867 1.400 . S
C867 C866 1.400 . S
C867 C868 1.398 . S
C867 C873 1.491 . S
C868 H859 0.950 . S
C868 C867 1.398 . S
C868 C869 1.391 . S
C869 H857 0.950 . S
C869 C865 1.393 . S
C869 C868 1.391 . S
C870 H860 0.950 . S
C870 C871 1.386 . S
C870 C872 1.391 . S
C871 C870 1.386 . S
C871 C875 1.393 . S
C872 H861 0.950 . S
C872 C870 1.391 . S
C872 C873 1.400 . S
C873 C867 1.491 . S
C873 C872 1.400 . S
C873 C874 1.398 . S
C874 H862 0.950 . S
C874 C873 1.398 . S
C874 C875 1.391 . S
C875 H863 0.950 . S
C875 C871 1.393 . S
C875 C874 1.391 . S
H876 C884 0.950 . S
H877 C889 0.950 . S
H878 C886 0.950 . S
H879 C888 0.950 . S
H880 C890 0.950 . S
H881 C892 0.950 . S
H882 C894 0.950 . S
H883 C895 0.950 . S
C884 H876 0.950 . S
C884 C885 1.386 . S
C884 C886 1.391 . S
C885 C884 1.386 . S
C885 C889 1.393 . S
C886 H878 0.950 . S
C886 C884 1.391 . S
C886 C887 1.400 . S
C887 C886 1.400 . S
C887 C888 1.398 . S
C887 C893 1.491 . S
C888 H879 0.950 . S
C888 C887 1.398 . S
C888 C889 1.391 . S
C889 H877 0.950 . S
C889 C885 1.393 . S
C889 C888 1.391 . S
C890 H880 0.950 . S
C890 C891 1.386 . S
C890 C892 1.391 . S
C891 C890 1.386 . S
C891 C895 1.393 . S
C892 H881 0.950 . S
C892 C890 1.391 . S
C892 C893 1.400 . S
C893 C887 1.491 . S
C893 C892 1.400 . S
C893 C894 1.398 . S
C894 H882 0.950 . S
C894 C893 1.398 . S
C894 C895 1.391 . S
C895 H883 0.950 . S
C895 C891 1.393 . S
C895 C894 1.391 . S
H896 C904 0.950 . S
H897 C909 0.950 . S
H898 C906 0.950 . S
H899 C908 0.950 . S
H900 C910 0.950 . S
H901 C912 0.950 . S
H902 C914 0.950 . S
H903 C915 0.950 . S
C904 H896 0.950 . S
C904 C905 1.386 . S
C904 C906 1.391 . S
C905 C904 1.386 . S
C905 C909 1.393 . S
C906 H898 0.950 . S
C906 C904 1.391 . S
C906 C907 1.400 . S
C907 C906 1.400 . S
C907 C908 1.398 . S
C907 C913 1.491 . S
C908 H899 0.950 . S
C908 C907 1.398 . S
C908 C909 1.391 . S
C909 H897 0.950 . S
C909 C905 1.393 . S
C909 C908 1.391 . S
C910 H900 0.950 . S
C910 C911 1.386 . S
C910 C912 1.391 . S
C911 C910 1.386 . S
C911 C915 1.393 . S
C912 H901 0.950 . S
C912 C910 1.391 . S
C912 C913 1.400 . S
C913 C907 1.491 . S
C913 C912 1.400 . S
C913 C914 1.398 . S
C914 H902 0.950 . S
C914 C913 1.398 . S
C914 C915 1.391 . S
C915 H903 0.950 . S
C915 C911 1.393 . S
C915 C914 1.391 . S
H916 C924 0.950 . S
H917 C929 0.950 . S
H918 C926 0.950 . S
H919 C928 0.950 . S
H920 C930 0.950 . S
H921 C932 0.950 . S
H922 C934 0.950 . S
H923 C935 0.950 . S
C924 H916 0.950 . S
C924 C925 1.386 . S
C924 C926 1.391 . S
C925 C924 1.386 . S
C925 C929 1.393 . S
C926 H918 0.950 . S
C926 C924 1.391 . S
C926 C927 1.400 . S
C927 C926 1.400 . S
C927 C928 1.398 . S
C927 C933 1.491 . S
C928 H919 0.950 . S
C928 C927 1.398 . S
C928 C929 1.391 . S
C929 H917 0.950 . S
C929 C925 1.393 . S
C929 C928 1.391 . S
C930 H920 0.950 . S
C930 C931 1.386 . S
C930 C932 1.391 . S
C931 C930 1.386 . S
C931 C935 1.393 . S
C932 H921 0.950 . S
C932 C930 1.391 . S
C932 C933 1.400 . S
C933 C927 1.491 . S
C933 C932 1.400 . S
C933 C934 1.398 . S
C934 H922 0.950 . S
C934 C933 1.398 . S
C934 C935 1.391 . S
C935 H923 0.950 . S
C935 C931 1.393 . S
C935 C934 1.391 . S
H936 C944 0.950 . S
H937 C949 0.950 . S
H938 C946 0.950 . S
H939 C948 0.950 . S
H940 C950 0.950 . S
H941 C952 0.950 . S
H942 C954 0.950 . S
H943 C955 0.950 . S
C944 H936 0.950 . S
C944 C945 1.386 . S
C944 C946 1.391 1_556 S
C945 C944 1.386 . S
C945 C949 1.393 . S
C946 H938 0.950 . S
C946 C944 1.391 1_554 S
C946 C947 1.400 . S
C947 C946 1.400 . S
C947 C948 1.398 . S
C947 C953 1.491 . S
C948 H939 0.950 . S
C948 C947 1.398 . S
C948 C949 1.391 1_554 S
C949 H937 0.950 . S
C949 C945 1.393 . S
C949 C948 1.391 1_556 S
C950 H940 0.950 . S
C950 C951 1.386 . S
C950 C952 1.391 . S
C951 C950 1.386 . S
C951 C955 1.393 . S
C952 H941 0.950 . S
C952 C950 1.391 . S
C952 C953 1.400 . S
C953 C947 1.491 . S
C953 C952 1.400 . S
C953 C954 1.398 . S
C954 H942 0.950 . S
C954 C953 1.398 . S
C954 C955 1.391 . S
C955 H943 0.950 . S
C955 C951 1.393 . S
C955 C954 1.391 . S
H956 C964 0.950 . S
H957 C969 0.957 . S
H958 C966 0.950 . S
H959 C968 0.950 . S
H960 C970 0.950 . S
H961 C972 0.950 . S
H962 C974 0.950 . S
H963 C975 0.950 . S
C964 H956 0.950 . S
C964 C965 1.386 . S
C964 C966 1.391 1_556 S
C965 C964 1.386 . S
C965 C969 1.404 . S
C966 H958 0.950 . S
C966 C964 1.391 1_554 S
C966 C967 1.400 . S
C967 C966 1.400 . S
C967 C968 1.398 . S
C967 C973 1.491 . S
C968 H959 0.950 . S
C968 C967 1.398 . S
C968 C969 1.372 1_554 S
C969 H957 0.957 . S
C969 C965 1.404 . S
C969 C968 1.372 1_556 S
C970 H960 0.950 . S
C970 C971 1.386 . S
C970 C972 1.391 . S
C971 C970 1.386 . S
C971 C975 1.393 . S
C972 H961 0.950 . S
C972 C970 1.391 . S
C972 C973 1.400 . S
C973 C967 1.491 . S
C973 C972 1.400 . S
C973 C974 1.398 . S
C974 H962 0.950 . S
C974 C973 1.398 . S
C974 C975 1.391 . S
C975 H963 0.950 . S
C975 C971 1.393 . S
C975 C974 1.391 . S
H976 C984 0.950 . S
H977 C989 0.950 . S
H978 C986 0.950 . S
H979 C988 0.950 . S
H980 C990 0.950 . S
H981 C992 0.950 . S
H982 C994 0.950 . S
H983 C995 0.950 . S
C984 H976 0.950 . S
C984 C985 1.386 . S
C984 C986 1.391 1_556 S
C985 C984 1.386 . S
C985 C989 1.393 . S
C986 H978 0.950 . S
C986 C984 1.391 1_554 S
C986 C987 1.400 . S
C987 C986 1.400 . S
C987 C988 1.398 . S
C987 C993 1.491 . S
C988 H979 0.950 . S
C988 C987 1.398 . S
C988 C989 1.391 1_554 S
C989 H977 0.950 . S
C989 C985 1.393 . S
C989 C988 1.391 1_556 S
C990 H980 0.950 . S
C990 C991 1.386 . S
C990 C992 1.391 . S
C991 C990 1.386 . S
C991 C995 1.393 . S
C992 H981 0.950 . S
C992 C990 1.391 . S
C992 C993 1.400 . S
C993 C987 1.491 . S
C993 C992 1.400 . S
C993 C994 1.398 . S
C994 H982 0.950 . S
C994 C993 1.398 . S
C994 C995 1.391 . S
C995 H983 0.950 . S
C995 C991 1.393 . S
C995 C994 1.391 . S
H996 C1004 0.950 . S
H997 C1009 0.950 . S
H998 C1006 0.950 . S
H999 C1008 0.950 . S
H1000 C1010 0.950 . S
H1001 C1012 0.950 . S
H1002 C1014 0.950 . S
H1003 C1015 0.950 . S
C1004 H996 0.950 . S
C1004 C1005 1.386 . S
C1004 C1006 1.391 . S
C1005 C1004 1.386 . S
C1005 C1009 1.393 . S
C1006 H998 0.950 . S
C1006 C1004 1.391 . S
C1006 C1007 1.400 . S
C1007 C1006 1.400 . S
C1007 C1008 1.398 . S
C1007 C1013 1.491 . S
C1008 H999 0.950 . S
C1008 C1007 1.398 . S
C1008 C1009 1.391 . S
C1009 H997 0.950 . S
C1009 C1005 1.393 . S
C1009 C1008 1.391 . S
C1010 H1000 0.950 . S
C1010 C1011 1.386 . S
C1010 C1012 1.391 1_554 S
C1011 C1010 1.386 . S
C1011 C1015 1.393 . S
C1012 H1001 0.950 . S
C1012 C1010 1.391 1_556 S
C1012 C1013 1.400 . S
C1013 C1007 1.491 . S
C1013 C1012 1.400 . S
C1013 C1014 1.398 . S
C1014 H1002 0.950 . S
C1014 C1013 1.398 . S
C1014 C1015 1.391 1_556 S
C1015 H1003 0.950 . S
C1015 C1011 1.393 . S
C1015 C1014 1.391 1_554 S
H1016 C1024 0.950 . S
H1017 C1029 0.950 . S
H1018 C1026 0.950 . S
H1019 C1028 0.950 . S
H1020 C1030 0.950 . S
H1021 C1032 0.950 . S
H1022 C1034 0.950 . S
H1023 C1035 0.950 . S
C1024 H1016 0.950 . S
C1024 C1025 1.386 . S
C1024 C1026 1.391 . S
C1025 C1024 1.386 . S
C1025 C1029 1.393 . S
C1026 H1018 0.950 . S
C1026 C1024 1.391 . S
C1026 C1027 1.400 . S
C1027 C1026 1.400 . S
C1027 C1028 1.398 . S
C1027 C1033 1.491 . S
C1028 H1019 0.950 . S
C1028 C1027 1.398 . S
C1028 C1029 1.391 . S
C1029 H1017 0.950 . S
C1029 C1025 1.393 . S
C1029 C1028 1.391 . S
C1030 H1020 0.950 . S
C1030 C1031 1.386 . S
C1030 C1032 1.391 1_554 S
C1031 C1030 1.386 . S
C1031 C1035 1.393 . S
C1032 H1021 0.950 . S
C1032 C1030 1.391 1_556 S
C1032 C1033 1.400 . S
C1033 C1027 1.491 . S
C1033 C1032 1.400 . S
C1033 C1034 1.398 . S
C1034 H1022 0.950 . S
C1034 C1033 1.398 . S
C1034 C1035 1.391 1_556 S
C1035 H1023 0.950 . S
C1035 C1031 1.393 . S
C1035 C1034 1.391 1_554 S
H1036 C1044 0.950 . S
H1037 C1049 0.950 . S
H1038 C1046 0.950 . S
H1039 C1048 0.950 . S
H1040 C1050 0.950 . S
H1041 C1052 0.950 . S
H1042 C1054 0.950 . S
H1043 C1055 0.950 . S
C1044 H1036 0.950 . S
C1044 C1045 1.386 . S
C1044 C1046 1.391 . S
C1045 C1044 1.386 . S
C1045 C1049 1.393 . S
C1046 H1038 0.950 . S
C1046 C1044 1.391 . S
C1046 C1047 1.400 . S
C1047 C1046 1.400 . S
C1047 C1048 1.398 . S
C1047 C1053 1.491 . S
C1048 H1039 0.950 . S
C1048 C1047 1.398 . S
C1048 C1049 1.391 . S
C1049 H1037 0.950 . S
C1049 C1045 1.393 . S
C1049 C1048 1.391 . S
C1050 H1040 0.950 . S
C1050 C1051 1.386 . S
C1050 C1052 1.391 1_554 S
C1051 C1050 1.386 . S
C1051 C1055 1.393 . S
C1052 H1041 0.950 . S
C1052 C1050 1.391 1_556 S
C1052 C1053 1.400 . S
C1053 C1047 1.491 . S
C1053 C1052 1.400 . S
C1053 C1054 1.398 . S
C1054 H1042 0.950 . S
C1054 C1053 1.398 . S
C1054 C1055 1.391 1_556 S
C1055 H1043 0.950 . S
C1055 C1051 1.393 . S
C1055 C1054 1.391 1_554 S
H1056 C1064 0.950 . S
H1057 C1069 0.950 . S
H1058 C1066 0.950 . S
H1059 C1068 0.950 . S
H1060 C1070 0.950 . S
H1061 C1072 0.950 . S
H1062 C1074 0.950 . S
H1063 C1075 0.950 . S
C1064 H1056 0.950 . S
C1064 C1065 1.386 . S
C1064 C1066 1.391 . S
C1065 C1064 1.386 . S
C1065 C1069 1.393 . S
C1066 H1058 0.950 . S
C1066 C1064 1.391 . S
C1066 C1067 1.400 . S
C1067 C1066 1.400 . S
C1067 C1068 1.398 . S
C1067 C1073 1.491 . S
C1068 H1059 0.950 . S
C1068 C1067 1.398 . S
C1068 C1069 1.391 . S
C1069 H1057 0.950 . S
C1069 C1065 1.393 . S
C1069 C1068 1.391 . S
C1070 H1060 0.950 . S
C1070 C1071 1.386 . S
C1070 C1072 1.391 . S
C1071 C1070 1.386 . S
C1071 C1075 1.393 . S
C1072 H1061 0.950 . S
C1072 C1070 1.391 . S
C1072 C1073 1.400 . S
C1073 C1067 1.491 . S
C1073 C1072 1.400 . S
C1073 C1074 1.398 . S
C1074 H1062 0.950 . S
C1074 C1073 1.398 . S
C1074 C1075 1.391 . S
C1075 H1063 0.950 . S
C1075 C1071 1.393 . S
C1075 C1074 1.391 . S
H1076 C1084 0.950 . S
H1077 C1089 0.950 . S
H1078 C1086 0.950 . S
H1079 C1088 0.950 . S
H1080 C1090 0.950 . S
H1081 C1092 0.950 . S
H1082 C1094 0.950 . S
H1083 C1095 0.950 . S
C1084 H1076 0.950 . S
C1084 C1085 1.386 . S
C1084 C1086 1.391 . S
C1085 C1084 1.386 . S
C1085 C1089 1.393 . S
C1086 H1078 0.950 . S
C1086 C1084 1.391 . S
C1086 C1087 1.400 . S
C1087 C1086 1.400 . S
C1087 C1088 1.398 . S
C1087 C1093 1.491 . S
C1088 H1079 0.950 . S
C1088 C1087 1.398 . S
C1088 C1089 1.391 . S
C1089 H1077 0.950 . S
C1089 C1085 1.393 . S
C1089 C1088 1.391 . S
C1090 H1080 0.950 . S
C1090 C1091 1.386 . S
C1090 C1092 1.391 . S
C1091 C1090 1.386 . S
C1091 C1095 1.393 . S
C1092 H1081 0.950 . S
C1092 C1090 1.391 . S
C1092 C1093 1.400 . S
C1093 C1087 1.491 . S
C1093 C1092 1.400 . S
C1093 C1094 1.398 . S
C1094 H1082 0.950 . S
C1094 C1093 1.398 . S
C1094 C1095 1.391 . S
C1095 H1083 0.950 . S
C1095 C1091 1.393 . S
C1095 C1094 1.391 . S
H1096 C1104 0.950 . S
H1097 C1109 0.950 . S
H1098 C1106 0.950 . S
H1099 C1108 0.950 . S
H1100 C1110 0.950 . S
H1101 C1112 0.950 . S
H1102 C1114 0.950 . S
H1103 C1115 0.950 . S
C1104 H1096 0.950 . S
C1104 C1105 1.386 . S
C1104 C1106 1.391 . S
C1105 C1104 1.386 . S
C1105 C1109 1.393 . S
C1106 H1098 0.950 . S
C1106 C1104 1.391 . S
C1106 C1107 1.400 . S
C1107 C1106 1.400 . S
C1107 C1108 1.398 . S
C1107 C1113 1.491 . S
C1108 H1099 0.950 . S
C1108 C1107 1.398 . S
C1108 C1109 1.391 . S
C1109 H1097 0.950 . S
C1109 C1105 1.393 . S
C1109 C1108 1.391 . S
C1110 H1100 0.950 . S
C1110 C1111 1.386 . S
C1110 C1112 1.391 . S
C1111 C1110 1.386 . S
C1111 C1115 1.393 . S
C1112 H1101 0.950 . S
C1112 C1110 1.391 . S
C1112 C1113 1.400 . S
C1113 C1107 1.491 . S
C1113 C1112 1.400 . S
C1113 C1114 1.398 . S
C1114 H1102 0.950 . S
C1114 C1113 1.398 . S
C1114 C1115 1.391 . S
C1115 H1103 0.950 . S
C1115 C1111 1.393 . S
C1115 C1114 1.391 . S
H1116 C1124 0.950 . S
H1117 C1129 0.950 . S
H1118 C1126 0.950 . S
H1119 C1128 0.950 . S
H1120 C1130 0.950 . S
H1121 C1132 0.950 . S
H1122 C1134 0.949 . S
H1123 C1135 0.950 1_554 S
C1124 H1116 0.950 . S
C1124 C1125 1.386 . S
C1124 C1126 1.391 . S
C1125 C1124 1.386 . S
C1125 C1129 1.393 . S
C1126 H1118 0.950 . S
C1126 C1124 1.391 . S
C1126 C1127 1.400 . S
C1127 C1126 1.400 . S
C1127 C1128 1.398 . S
C1127 C1133 1.491 . S
C1128 H1119 0.950 . S
C1128 C1127 1.398 . S
C1128 C1129 1.391 . S
C1129 H1117 0.950 . S
C1129 C1125 1.393 . S
C1129 C1128 1.391 . S
C1130 H1120 0.950 . S
C1130 C1131 1.386 . S
C1130 C1132 1.391 1_545 S
C1131 C1130 1.386 . S
C1131 C1135 1.393 . S
C1132 H1121 0.950 . S
C1132 C1130 1.391 1_565 S
C1132 C1133 1.400 . S
C1133 C1127 1.491 . S
C1133 C1132 1.400 . S
C1133 C1134 1.400 . S
C1134 H1122 0.949 . S
C1134 C1133 1.400 . S
C1134 C1135 1.390 1_565 S
C1135 H1123 0.950 1_556 S
C1135 C1131 1.393 . S
C1135 C1134 1.390 1_545 S
H1136 C1144 0.950 . S
H1137 C1149 0.950 1_554 S
H1138 C1146 0.950 . S
H1139 C1148 0.950 . S
H1140 C1150 0.950 . S
H1141 C1152 0.950 . S
H1142 C1154 0.950 . S
H1143 C1155 0.950 . S
C1144 H1136 0.950 . S
C1144 C1145 1.386 . S
C1144 C1146 1.391 . S
C1145 C1144 1.386 . S
C1145 C1149 1.393 1_655 S
C1146 H1138 0.950 . S
C1146 C1144 1.391 . S
C1146 C1147 1.400 1_655 S
C1147 C1146 1.400 1_455 S
C1147 C1148 1.398 . S
C1147 C1153 1.491 . S
C1148 H1139 0.950 . S
C1148 C1147 1.398 . S
C1148 C1149 1.391 . S
C1149 H1137 0.950 1_556 S
C1149 C1145 1.393 1_455 S
C1149 C1148 1.391 . S
C1150 H1140 0.950 . S
C1150 C1151 1.386 . S
C1150 C1152 1.391 . S
C1151 C1150 1.386 . S
C1151 C1155 1.393 . S
C1152 H1141 0.950 . S
C1152 C1150 1.391 . S
C1152 C1153 1.400 . S
C1153 C1147 1.491 . S
C1153 C1152 1.400 . S
C1153 C1154 1.398 . S
C1154 H1142 0.950 . S
C1154 C1153 1.398 . S
C1154 C1155 1.391 . S
C1155 H1143 0.950 . S
C1155 C1151 1.393 . S
C1155 C1154 1.391 . S
H1156 C1164 0.950 . S
H1157 C1169 0.950 . S
H1158 C1166 0.950 . S
H1159 C1168 0.950 . S
H1160 C1170 0.950 . S
H1161 C1172 0.950 . S
H1162 C1174 0.950 . S
H1163 C1175 0.950 . S
C1164 H1156 0.950 . S
C1164 C1165 1.386 . S
C1164 C1166 1.391 . S
C1165 C1164 1.386 . S
C1165 C1169 1.393 . S
C1166 H1158 0.950 . S
C1166 C1164 1.391 . S
C1166 C1167 1.400 . S
C1167 C1166 1.400 . S
C1167 C1168 1.398 . S
C1167 C1173 1.491 . S
C1168 H1159 0.950 . S
C1168 C1167 1.398 . S
C1168 C1169 1.391 . S
C1169 H1157 0.950 . S
C1169 C1165 1.393 . S
C1169 C1168 1.391 . S
C1170 H1160 0.950 . S
C1170 C1171 1.386 . S
C1170 C1172 1.391 . S
C1171 C1170 1.386 . S
C1171 C1175 1.393 . S
C1172 H1161 0.950 . S
C1172 C1170 1.391 . S
C1172 C1173 1.400 . S
C1173 C1167 1.491 . S
C1173 C1172 1.400 . S
C1173 C1174 1.398 . S
C1174 H1162 0.950 . S
C1174 C1173 1.398 . S
C1174 C1175 1.391 . S
C1175 H1163 0.950 . S
C1175 C1171 1.393 . S
C1175 C1174 1.391 . S
H1176 C1184 0.950 . S
H1177 C1189 0.950 . S
H1178 C1186 0.950 . S
H1179 C1188 0.950 . S
H1180 C1190 0.950 . S
H1181 C1192 0.950 . S
H1182 C1194 0.950 . S
H1183 C1195 0.950 . S
C1184 H1176 0.950 . S
C1184 C1185 1.386 . S
C1184 C1186 1.391 . S
C1185 C1184 1.386 . S
C1185 C1189 1.393 1_655 S
C1186 H1178 0.950 . S
C1186 C1184 1.391 . S
C1186 C1187 1.400 1_655 S
C1187 C1186 1.400 1_455 S
C1187 C1188 1.398 . S
C1187 C1193 1.491 . S
C1188 H1179 0.950 . S
C1188 C1187 1.398 . S
C1188 C1189 1.391 . S
C1189 H1177 0.950 . S
C1189 C1185 1.393 1_455 S
C1189 C1188 1.391 . S
C1190 H1180 0.950 . S
C1190 C1191 1.386 . S
C1190 C1192 1.391 . S
C1191 C1190 1.386 . S
C1191 C1195 1.393 . S
C1192 H1181 0.950 . S
C1192 C1190 1.391 . S
C1192 C1193 1.400 . S
C1193 C1187 1.491 . S
C1193 C1192 1.400 . S
C1193 C1194 1.398 . S
C1194 H1182 0.950 . S
C1194 C1193 1.398 . S
C1194 C1195 1.391 . S
C1195 H1183 0.950 . S
C1195 C1191 1.393 . S
C1195 C1194 1.391 . S
H1196 C1204 0.950 . S
H1197 C1209 0.950 . S
H1198 C1206 0.950 . S
H1199 C1208 0.950 . S
H1200 C1210 0.950 . S
H1201 C1212 0.950 . S
H1202 C1214 0.950 . S
H1203 C1215 0.950 . S
C1204 H1196 0.950 . S
C1204 C1205 1.386 . S
C1204 C1206 1.391 . S
C1205 C1204 1.386 . S
C1205 C1209 1.393 . S
C1206 H1198 0.950 . S
C1206 C1204 1.391 . S
C1206 C1207 1.400 . S
C1207 C1206 1.400 . S
C1207 C1208 1.398 . S
C1207 C1213 1.491 . S
C1208 H1199 0.950 . S
C1208 C1207 1.398 . S
C1208 C1209 1.391 . S
C1209 H1197 0.950 . S
C1209 C1205 1.393 . S
C1209 C1208 1.391 . S
C1210 H1200 0.950 . S
C1210 C1211 1.386 . S
C1210 C1212 1.391 . S
C1211 C1210 1.386 . S
C1211 C1215 1.393 . S
C1212 H1201 0.950 . S
C1212 C1210 1.391 . S
C1212 C1213 1.400 . S
C1213 C1207 1.491 . S
C1213 C1212 1.400 . S
C1213 C1214 1.398 . S
C1214 H1202 0.950 . S
C1214 C1213 1.398 . S
C1214 C1215 1.391 . S
C1215 H1203 0.950 . S
C1215 C1211 1.393 . S
C1215 C1214 1.391 . S
H1216 C1224 0.950 . S
H1217 C1229 0.950 . S
H1218 C1226 0.950 . S
H1219 C1228 0.950 . S
H1220 C1230 0.950 . S
H1221 C1232 0.950 . S
H1222 C1234 0.950 . S
H1223 C1235 0.950 . S
C1224 H1216 0.950 . S
C1224 C1225 1.386 . S
C1224 C1226 1.391 . S
C1225 C1224 1.386 . S
C1225 C1229 1.393 . S
C1226 H1218 0.950 . S
C1226 C1224 1.391 . S
C1226 C1227 1.400 . S
C1227 C1226 1.400 . S
C1227 C1228 1.398 . S
C1227 C1233 1.491 . S
C1228 H1219 0.950 . S
C1228 C1227 1.398 . S
C1228 C1229 1.391 . S
C1229 H1217 0.950 . S
C1229 C1225 1.393 . S
C1229 C1228 1.391 . S
C1230 H1220 0.950 . S
C1230 C1231 1.386 . S
C1230 C1232 1.391 1_545 S
C1231 C1230 1.386 . S
C1231 C1235 1.393 . S
C1232 H1221 0.950 . S
C1232 C1230 1.391 1_565 S
C1232 C1233 1.400 . S
C1233 C1227 1.491 . S
C1233 C1232 1.400 . S
C1233 C1234 1.398 . S
C1234 H1222 0.950 . S
C1234 C1233 1.398 . S
C1234 C1235 1.391 1_565 S
C1235 H1223 0.950 . S
C1235 C1231 1.393 . S
C1235 C1234 1.391 1_545 S
H1236 C1244 0.950 . S
H1237 C1249 0.950 . S
H1238 C1246 0.950 . S
H1239 C1248 0.950 . S
H1240 C1250 0.950 . S
H1241 C1252 0.950 . S
H1242 C1254 0.950 . S
H1243 C1255 0.950 . S
C1244 H1236 0.950 . S
C1244 C1245 1.386 . S
C1244 C1246 1.391 . S
C1245 C1244 1.386 . S
C1245 C1249 1.393 . S
C1246 H1238 0.950 . S
C1246 C1244 1.391 . S
C1246 C1247 1.400 . S
C1247 C1246 1.400 . S
C1247 C1248 1.398 . S
C1247 C1253 1.491 . S
C1248 H1239 0.950 . S
C1248 C1247 1.398 . S
C1248 C1249 1.391 . S
C1249 H1237 0.950 . S
C1249 C1245 1.393 . S
C1249 C1248 1.391 . S
C1250 H1240 0.950 . S
C1250 C1251 1.386 . S
C1250 C1252 1.391 . S
C1251 C1250 1.386 . S
C1251 C1255 1.393 . S
C1252 H1241 0.950 . S
C1252 C1250 1.391 . S
C1252 C1253 1.400 . S
C1253 C1247 1.491 . S
C1253 C1252 1.400 . S
C1253 C1254 1.398 . S
C1254 H1242 0.950 . S
C1254 C1253 1.398 . S
C1254 C1255 1.391 . S
C1255 H1243 0.950 . S
C1255 C1251 1.393 . S
C1255 C1254 1.391 . S
H1256 C1264 0.950 . S
H1257 C1269 0.950 . S
H1258 C1266 0.950 . S
H1259 C1268 0.950 . S
H1260 C1270 0.950 . S
H1261 C1272 0.950 . S
H1262 C1274 0.950 . S
H1263 C1275 0.950 . S
C1264 H1256 0.950 . S
C1264 C1265 1.386 . S
C1264 C1266 1.391 . S
C1265 C1264 1.386 . S
C1265 C1269 1.393 . S
C1266 H1258 0.950 . S
C1266 C1264 1.391 . S
C1266 C1267 1.400 . S
C1267 C1266 1.400 . S
C1267 C1268 1.398 . S
C1267 C1273 1.491 . S
C1268 H1259 0.950 . S
C1268 C1267 1.398 . S
C1268 C1269 1.391 . S
C1269 H1257 0.950 . S
C1269 C1265 1.393 . S
C1269 C1268 1.391 . S
C1270 H1260 0.950 . S
C1270 C1271 1.386 . S
C1270 C1272 1.391 . S
C1271 C1270 1.386 . S
C1271 C1275 1.393 . S
C1272 H1261 0.950 . S
C1272 C1270 1.391 . S
C1272 C1273 1.400 . S
C1273 C1267 1.491 . S
C1273 C1272 1.400 . S
C1273 C1274 1.398 . S
C1274 H1262 0.950 . S
C1274 C1273 1.398 . S
C1274 C1275 1.391 . S
C1275 H1263 0.950 . S
C1275 C1271 1.393 . S
C1275 C1274 1.391 . S
H1276 C1284 0.950 . S
H1277 C1289 0.950 . S
H1278 C1286 0.950 . S
H1279 C1288 0.950 . S
H1280 C1290 0.950 . S
H1281 C1292 0.950 . S
H1282 C1294 0.950 . S
H1283 C1295 0.950 . S
C1284 H1276 0.950 . S
C1284 C1285 1.386 . S
C1284 C1286 1.391 . S
C1285 C1284 1.386 . S
C1285 C1289 1.393 . S
C1286 H1278 0.950 . S
C1286 C1284 1.391 . S
C1286 C1287 1.400 . S
C1287 C1286 1.400 . S
C1287 C1288 1.398 . S
C1287 C1293 1.491 . S
C1288 H1279 0.950 . S
C1288 C1287 1.398 . S
C1288 C1289 1.391 . S
C1289 H1277 0.950 . S
C1289 C1285 1.393 . S
C1289 C1288 1.391 . S
C1290 H1280 0.950 . S
C1290 C1291 1.386 . S
C1290 C1292 1.391 . S
C1291 C1290 1.386 . S
C1291 C1295 1.393 . S
C1292 H1281 0.950 . S
C1292 C1290 1.391 . S
C1292 C1293 1.400 . S
C1293 C1287 1.491 . S
C1293 C1292 1.400 . S
C1293 C1294 1.398 . S
C1294 H1282 0.950 . S
C1294 C1293 1.398 . S
C1294 C1295 1.391 . S
C1295 H1283 0.950 . S
C1295 C1291 1.393 . S
C1295 C1294 1.391 . S
H1296 C1304 0.950 . S
H1297 C1309 0.950 . S
H1298 C1306 0.950 . S
H1299 C1308 0.950 . S
H1300 C1310 0.950 . S
H1301 C1312 0.950 . S
H1302 C1314 0.950 . S
H1303 C1315 0.950 . S
C1304 H1296 0.950 . S
C1304 C1305 1.386 . S
C1304 C1306 1.391 . S
C1305 C1304 1.386 . S
C1305 C1309 1.393 . S
C1306 H1298 0.950 . S
C1306 C1304 1.391 . S
C1306 C1307 1.400 . S
C1307 C1306 1.400 . S
C1307 C1308 1.398 . S
C1307 C1313 1.491 . S
C1308 H1299 0.950 . S
C1308 C1307 1.398 . S
C1308 C1309 1.391 . S
C1309 H1297 0.950 . S
C1309 C1305 1.393 . S
C1309 C1308 1.391 . S
C1310 H1300 0.950 . S
C1310 C1311 1.386 . S
C1310 C1312 1.391 . S
C1311 C1310 1.386 . S
C1311 C1315 1.393 . S
C1312 H1301 0.950 . S
C1312 C1310 1.391 . S
C1312 C1313 1.400 . S
C1313 C1307 1.491 . S
C1313 C1312 1.400 . S
C1313 C1314 1.398 . S
C1314 H1302 0.950 . S
C1314 C1313 1.398 . S
C1314 C1315 1.391 . S
C1315 H1303 0.950 . S
C1315 C1311 1.393 . S
C1315 C1314 1.391 . S
H1316 C1324 0.950 . S
H1317 C1329 0.950 . S
H1318 C1326 0.950 . S
H1319 C1328 0.950 . S
H1320 C1330 0.950 . S
H1321 C1332 0.950 . S
H1322 C1334 0.950 . S
H1323 C1335 0.950 . S
C1324 H1316 0.950 . S
C1324 C1325 1.386 . S
C1324 C1326 1.391 . S
C1325 C1324 1.386 . S
C1325 C1329 1.393 . S
C1326 H1318 0.950 . S
C1326 C1324 1.391 . S
C1326 C1327 1.400 . S
C1327 C1326 1.400 . S
C1327 C1328 1.398 . S
C1327 C1333 1.491 . S
C1328 H1319 0.950 . S
C1328 C1327 1.398 . S
C1328 C1329 1.391 . S
C1329 H1317 0.950 . S
C1329 C1325 1.393 . S
C1329 C1328 1.391 . S
C1330 H1320 0.950 . S
C1330 C1331 1.386 . S
C1330 C1332 1.391 . S
C1331 C1330 1.386 . S
C1331 C1335 1.393 . S
C1332 H1321 0.950 . S
C1332 C1330 1.391 . S
C1332 C1333 1.400 . S
C1333 C1327 1.491 . S
C1333 C1332 1.400 . S
C1333 C1334 1.398 . S
C1334 H1322 0.950 . S
C1334 C1333 1.398 . S
C1334 C1335 1.391 . S
C1335 H1323 0.950 . S
C1335 C1331 1.393 . S
C1335 C1334 1.391 . S
H1336 C1344 0.950 . S
H1337 C1349 0.950 . S
H1338 C1346 0.950 . S
H1339 C1348 0.950 . S
H1340 C1350 0.950 . S
H1341 C1352 0.950 . S
H1342 C1354 0.950 . S
H1343 C1355 0.950 . S
C1344 H1336 0.950 . S
C1344 C1345 1.386 . S
C1344 C1346 1.391 . S
C1345 C1344 1.386 . S
C1345 C1349 1.393 . S
C1346 H1338 0.950 . S
C1346 C1344 1.391 . S
C1346 C1347 1.400 . S
C1347 C1346 1.400 . S
C1347 C1348 1.398 . S
C1347 C1353 1.491 . S
C1348 H1339 0.950 . S
C1348 C1347 1.398 . S
C1348 C1349 1.391 . S
C1349 H1337 0.950 . S
C1349 C1345 1.393 . S
C1349 C1348 1.391 . S
C1350 H1340 0.950 . S
C1350 C1351 1.386 . S
C1350 C1352 1.391 . S
C1351 C1350 1.386 . S
C1351 C1355 1.393 . S
C1352 H1341 0.950 . S
C1352 C1350 1.391 . S
C1352 C1353 1.400 . S
C1353 C1347 1.491 . S
C1353 C1352 1.400 . S
C1353 C1354 1.398 . S
C1354 H1342 0.950 . S
C1354 C1353 1.398 . S
C1354 C1355 1.391 . S
C1355 H1343 0.950 . S
C1355 C1351 1.393 . S
C1355 C1354 1.391 . S
H1356 C1364 0.950 . S
H1357 C1369 0.950 . S
H1358 C1366 0.950 . S
H1359 C1368 0.950 . S
H1360 C1370 0.950 . S
H1361 C1372 0.950 . S
H1362 C1374 0.950 . S
H1363 C1375 0.950 . S
C1364 H1356 0.950 . S
C1364 C1365 1.386 . S
C1364 C1366 1.391 . S
C1365 C1364 1.386 . S
C1365 C1369 1.393 . S
C1366 H1358 0.950 . S
C1366 C1364 1.391 . S
C1366 C1367 1.400 . S
C1367 C1366 1.400 . S
C1367 C1368 1.398 . S
C1367 C1373 1.491 . S
C1368 H1359 0.950 . S
C1368 C1367 1.398 . S
C1368 C1369 1.391 . S
C1369 H1357 0.950 . S
C1369 C1365 1.393 . S
C1369 C1368 1.391 . S
C1370 H1360 0.950 . S
C1370 C1371 1.386 . S
C1370 C1372 1.391 . S
C1371 C1370 1.386 . S
C1371 C1375 1.393 . S
C1372 H1361 0.950 . S
C1372 C1370 1.391 . S
C1372 C1373 1.400 . S
C1373 C1367 1.491 . S
C1373 C1372 1.400 . S
C1373 C1374 1.398 . S
C1374 H1362 0.950 . S
C1374 C1373 1.398 . S
C1374 C1375 1.391 . S
C1375 H1363 0.950 . S
C1375 C1371 1.393 . S
C1375 C1374 1.391 . S
H1376 C1384 0.950 . S
H1377 C1389 0.950 . S
H1378 C1386 0.950 . S
H1379 C1388 0.950 . S
H1380 C1390 0.950 . S
H1381 C1392 0.950 . S
H1382 C1394 0.950 . S
H1383 C1395 0.950 . S
C1384 H1376 0.950 . S
C1384 C1385 1.386 . S
C1384 C1386 1.391 . S
C1385 C1384 1.386 . S
C1385 C1389 1.393 . S
C1386 H1378 0.950 . S
C1386 C1384 1.391 . S
C1386 C1387 1.400 . S
C1387 C1386 1.400 . S
C1387 C1388 1.398 . S
C1387 C1393 1.491 . S
C1388 H1379 0.950 . S
C1388 C1387 1.398 . S
C1388 C1389 1.391 . S
C1389 H1377 0.950 . S
C1389 C1385 1.393 . S
C1389 C1388 1.391 . S
C1390 H1380 0.950 . S
C1390 C1391 1.386 . S
C1390 C1392 1.391 . S
C1391 C1390 1.386 . S
C1391 C1395 1.393 . S
C1392 H1381 0.950 . S
C1392 C1390 1.391 . S
C1392 C1393 1.400 . S
C1393 C1387 1.491 . S
C1393 C1392 1.400 . S
C1393 C1394 1.398 . S
C1394 H1382 0.950 . S
C1394 C1393 1.398 . S
C1394 C1395 1.391 . S
C1395 H1383 0.950 . S
C1395 C1391 1.393 . S
C1395 C1394 1.391 . S
H1396 C1404 0.950 . S
H1397 C1409 0.950 . S
H1398 C1406 0.950 . S
H1399 C1408 0.950 . S
H1400 C1410 0.950 . S
H1401 C1412 0.950 . S
H1402 C1414 0.950 . S
H1403 C1415 0.950 . S
C1404 H1396 0.950 . S
C1404 C1405 1.386 . S
C1404 C1406 1.391 . S
C1405 C1404 1.386 . S
C1405 C1409 1.393 . S
C1406 H1398 0.950 . S
C1406 C1404 1.391 . S
C1406 C1407 1.400 . S
C1407 C1406 1.400 . S
C1407 C1408 1.398 . S
C1407 C1413 1.491 . S
C1408 H1399 0.950 . S
C1408 C1407 1.398 . S
C1408 C1409 1.391 . S
C1409 H1397 0.950 . S
C1409 C1405 1.393 . S
C1409 C1408 1.391 . S
C1410 H1400 0.950 . S
C1410 C1411 1.386 . S
C1410 C1412 1.391 . S
C1411 C1410 1.386 . S
C1411 C1415 1.393 . S
C1412 H1401 0.950 . S
C1412 C1410 1.391 . S
C1412 C1413 1.400 . S
C1413 C1407 1.491 . S
C1413 C1412 1.400 . S
C1413 C1414 1.398 . S
C1414 H1402 0.950 . S
C1414 C1413 1.398 . S
C1414 C1415 1.391 . S
C1415 H1403 0.950 . S
C1415 C1411 1.393 . S
C1415 C1414 1.391 . S
H1416 C1424 0.950 . S
H1417 C1429 0.950 . S
H1418 C1426 0.950 . S
H1419 C1428 0.950 . S
H1420 C1430 0.950 . S
H1421 C1432 0.950 . S
H1422 C1434 0.950 . S
H1423 C1435 0.950 . S
C1424 H1416 0.950 . S
C1424 C1425 1.386 . S
C1424 C1426 1.391 . S
C1425 C1424 1.386 . S
C1425 C1429 1.393 . S
C1426 H1418 0.950 . S
C1426 C1424 1.391 . S
C1426 C1427 1.400 . S
C1427 C1426 1.400 . S
C1427 C1428 1.398 . S
C1427 C1433 1.491 . S
C1428 H1419 0.950 . S
C1428 C1427 1.398 . S
C1428 C1429 1.391 . S
C1429 H1417 0.950 . S
C1429 C1425 1.393 . S
C1429 C1428 1.391 . S
C1430 H1420 0.950 . S
C1430 C1431 1.386 . S
C1430 C1432 1.391 . S
C1431 C1430 1.386 . S
C1431 C1435 1.393 . S
C1432 H1421 0.950 . S
C1432 C1430 1.391 . S
C1432 C1433 1.400 . S
C1433 C1427 1.491 . S
C1433 C1432 1.400 . S
C1433 C1434 1.398 . S
C1434 H1422 0.950 . S
C1434 C1433 1.398 . S
C1434 C1435 1.391 . S
C1435 H1423 0.950 . S
C1435 C1431 1.393 . S
C1435 C1434 1.391 . S
H1436 C1444 0.950 . S
H1437 C1449 0.950 . S
H1438 C1446 0.950 . S
H1439 C1448 0.950 . S
H1440 C1450 0.950 . S
H1441 C1452 0.950 . S
H1442 C1454 0.950 . S
H1443 C1455 0.950 . S
C1444 H1436 0.950 . S
C1444 C1445 1.386 . S
C1444 C1446 1.391 . S
C1445 C1444 1.386 . S
C1445 C1449 1.393 . S
C1446 H1438 0.950 . S
C1446 C1444 1.391 . S
C1446 C1447 1.400 . S
C1447 C1446 1.400 . S
C1447 C1448 1.398 . S
C1447 C1453 1.491 . S
C1448 H1439 0.950 . S
C1448 C1447 1.398 . S
C1448 C1449 1.391 . S
C1449 H1437 0.950 . S
C1449 C1445 1.393 . S
C1449 C1448 1.391 . S
C1450 H1440 0.950 . S
C1450 C1451 1.386 . S
C1450 C1452 1.391 . S
C1451 C1450 1.386 . S
C1451 C1455 1.393 . S
C1452 H1441 0.950 . S
C1452 C1450 1.391 . S
C1452 C1453 1.400 . S
C1453 C1447 1.491 . S
C1453 C1452 1.400 . S
C1453 C1454 1.398 . S
C1454 H1442 0.950 . S
C1454 C1453 1.398 . S
C1454 C1455 1.391 . S
C1455 H1443 0.950 . S
C1455 C1451 1.393 . S
C1455 C1454 1.391 . S
H1456 C1464 0.950 . S
H1457 C1469 0.950 . S
H1458 C1466 0.950 . S
H1459 C1468 0.950 . S
H1460 C1470 0.950 . S
H1461 C1472 0.950 . S
H1462 C1474 0.950 . S
H1463 C1475 0.950 . S
C1464 H1456 0.950 . S
C1464 C1465 1.386 . S
C1464 C1466 1.391 . S
C1465 C1464 1.386 . S
C1465 C1469 1.393 . S
C1466 H1458 0.950 . S
C1466 C1464 1.391 . S
C1466 C1467 1.400 . S
C1467 C1466 1.400 . S
C1467 C1468 1.398 . S
C1467 C1473 1.491 . S
C1468 H1459 0.950 . S
C1468 C1467 1.398 . S
C1468 C1469 1.391 . S
C1469 H1457 0.950 . S
C1469 C1465 1.393 . S
C1469 C1468 1.391 . S
C1470 H1460 0.950 . S
C1470 C1471 1.386 . S
C1470 C1472 1.391 . S
C1471 C1470 1.386 . S
C1471 C1475 1.393 . S
C1472 H1461 0.950 . S
C1472 C1470 1.391 . S
C1472 C1473 1.400 . S
C1473 C1467 1.491 . S
C1473 C1472 1.400 . S
C1473 C1474 1.398 . S
C1474 H1462 0.950 . S
C1474 C1473 1.398 . S
C1474 C1475 1.391 . S
C1475 H1463 0.950 . S
C1475 C1471 1.393 . S
C1475 C1474 1.391 . S
C405 C15 0.767 . S
C411 C65 0.739 . S
C425 C21 0.791 . S
C431 C37 0.781 . S
C445 C59 0.773 . S
C451 C43 0.775 . S
C465 C103 0.789 . S
C471 C73 0.781 . S
C485 C125 0.742 . S
C491 C95 0.769 . S
C505 C117 0.777 . S
C511 C81 0.754 . S
C525 C197 0.779 . S
C531 C147 0.789 . S
C545 C169 0.764 . S
C551 C153 0.741 . S
C565 C175 0.805 . S
C571 C191 0.792 . S
C585 C213 0.794 . S
C591 C235 0.806 . S
C605 C263 0.803 . S
C611 C227 0.795 . S
C625 C257 0.771 . S
C631 C219 0.744 . S
C645 C329 0.799 . S
C651 C279 0.786 . S
C665 C301 0.766 . S
C671 C285 0.739 . S
C685 C323 0.777 . S
C691 C307 0.754 . S
C705 C345 0.794 . S
C711 C373 0.794 . S
C725 C389 0.804 . S
C731 C367 0.791 . S
C745 C351 0.745 . S
C751 C381 0.772 . S
C765 C131 1.132 . S
C771 C10 1.117 . S
C785 C87 1.142 . S
C791 C32 1.134 . S
C805 C109 1.156 . S
C811 C54 1.148 . S
C825 C29 1.157 . S
C831 C84 1.148 . S
C845 C106 1.140 . S
C851 C51 1.153 . S
C865 C7 1.128 . S
C871 C128 1.115 . S
C885 C142 1.135 . S
C891 C249 1.142 . S
C905 C164 1.149 . S
C911 C205 1.157 . S
C925 C241 1.128 . S
C931 C186 1.114 . S
C945 C208 1.121 . S
C951 C161 1.137 . S
C965 C238 1.119 . S
C971 C183 1.130 . S
C985 C252 1.126 . S
C991 C139 1.141 . S
C1005 C274 1.145 . S
C1011 C395 1.152 . S
C1025 C296 1.143 . S
C1031 C337 1.155 . S
C1045 C318 1.141 . S
C1051 C359 1.147 . S
C1065 C340 1.146 . S
C1071 C293 1.153 . S
C1085 C362 1.147 . S
C1091 C315 1.154 . S
C1105 C392 1.132 . S
C1111 C271 1.140 . S
C1125 C230 2.101 . S
C1131 C18 2.024 . S
C1145 C40 2.045 . S
C1151 C250 2.114 . S
C1165 C206 2.102 . S
C1171 C62 2.037 . S
C1185 C74 2.037 . S
C1191 C184 2.102 . S
C1205 C96 2.023 . S
C1211 C140 2.099 . S
C1225 C162 2.109 . S
C1231 C118 2.045 . S
C1245 C150 2.025 . S
C1251 C360 2.102 1_455 S
C1265 C172 2.047 . S
C1271 C384 2.110 . S
C1285 C194 2.023 . S
C1291 C338 2.098 1_565 S
C1305 C316 2.109 1_565 S
C1311 C216 2.046 . S
C1325 C272 2.101 1_455 S
C1331 C228 2.035 . S
C1345 C294 2.110 . S
C1351 C260 2.035 . S
C1365 C98 2.097 . S
C1371 C282 2.024 . S
C1385 C304 2.045 . S
C1391 C120 2.114 . S
C1405 C76 2.111 . S
C1411 C326 2.047 . S
C1425 C348 2.031 . S
C1431 C52 2.098 . S
C1445 C370 2.039 . S
C1451 C8 2.112 . S
C1465 C30 2.103 . S
C1471 C382 2.039 . S
