# Generated by pormake.
# Topology ukg, (4)-cn, num edge types: 1
# Building blocks:
#     Node 0, Type 0, BuildingBlock: GALJAG_clean_sbu_0, # of connection points: 4
#     Node 1, Type 0, BuildingBlock: GALJAG_clean_sbu_0, # of connection points: 4
#     Node 2, Type 0, BuildingBlock: GALJAG_clean_sbu_0, # of connection points: 4
#     Node 3, Type 0, BuildingBlock: GALJAG_clean_sbu_0, # of connection points: 4
#     Node 4, Type 0, BuildingBlock: GALJAG_clean_sbu_0, # of connection points: 4
#     Node 5, Type 0, BuildingBlock: GALJAG_clean_sbu_0, # of connection points: 4
#     Node 6, Type 0, BuildingBlock: GALJAG_clean_sbu_0, # of connection points: 4
#     Node 7, Type 0, BuildingBlock: GALJAG_clean_sbu_0, # of connection points: 4
#     Edge 8, Type (0, 0), BuildingBlock: OJICUG_clean_linker_0, # of connection points: 2
#     Edge 9, Type (0, 0), BuildingBlock: OJICUG_clean_linker_0, # of connection points: 2
#     Edge 10, Type (0, 0), BuildingBlock: OJICUG_clean_linker_0, # of connection points: 2
#     Edge 11, Type (0, 0), BuildingBlock: OJICUG_clean_linker_0, # of connection points: 2
#     Edge 12, Type (0, 0), BuildingBlock: OJICUG_clean_linker_0, # of connection points: 2
#     Edge 13, Type (0, 0), BuildingBlock: OJICUG_clean_linker_0, # of connection points: 2
#     Edge 14, Type (0, 0), BuildingBlock: OJICUG_clean_linker_0, # of connection points: 2
#     Edge 15, Type (0, 0), BuildingBlock: OJICUG_clean_linker_0, # of connection points: 2
#     Edge 16, Type (0, 0), BuildingBlock: OJICUG_clean_linker_0, # of connection points: 2
#     Edge 17, Type (0, 0), BuildingBlock: OJICUG_clean_linker_0, # of connection points: 2
#     Edge 18, Type (0, 0), BuildingBlock: OJICUG_clean_linker_0, # of connection points: 2
#     Edge 19, Type (0, 0), BuildingBlock: OJICUG_clean_linker_0, # of connection points: 2
#     Edge 20, Type (0, 0), BuildingBlock: OJICUG_clean_linker_0, # of connection points: 2
#     Edge 21, Type (0, 0), BuildingBlock: OJICUG_clean_linker_0, # of connection points: 2
#     Edge 22, Type (0, 0), BuildingBlock: OJICUG_clean_linker_0, # of connection points: 2
#     Edge 23, Type (0, 0), BuildingBlock: OJICUG_clean_linker_0, # of connection points: 2
# Relax obj value: 0.111
# Max RMSD: 0.188
# Mean RMSD: 0.187
data_MOF--net-ukg--node1-GALJAG_clean_sbu_0--edge1-OJICUG_clean_linker_0
_symmetry_space_group_name_H-M    P1
_symmetry_Int_Tables_number       1
_symmetry_cell_setting            triclinic
loop_
_symmetry_equiv_pos_as_xyz
'x, y, z'
_cell_length_a     22.370073
_cell_length_b     22.396054
_cell_length_c     27.429967
_cell_angle_alpha  90.049196
_cell_angle_beta   89.89815
_cell_angle_gamma 90.329008
loop_
_atom_site_label
_atom_site_type_symbol
_atom_site_fract_x
_atom_site_fract_y
_atom_site_fract_z
_atom_type_partial_charge
In0 In -0.00093 0.66071 0.15994 0.0
O1 O 0.97541 0.62902 0.08265 0.0
O2 O 0.00613 0.56434 0.13312 0.0
C3 C 0.9616 0.77491 0.15941 0.0
C4 C 0.11642 0.68488 0.16143 0.0
C5 C 0.93218 0.6275 0.23752 0.0
O6 O 0.93259 0.73376 0.13816 0.0
O7 O 0.01032 0.75866 0.17784 0.0
O8 O -0.01338 0.6131 0.23396 0.0
O9 O 0.91197 0.65584 0.2016 0.0
C10 C -0.01108 0.5751 0.09027 0.0
O11 O 0.08838 0.66807 0.19918 0.0
O12 O 0.08563 0.68684 0.1229 0.0
In13 In 0.32475 0.50239 0.67529 0.0
O14 O 0.30921 0.59137 0.71334 0.0
O15 O 0.29776 0.58702 0.63629 0.0
C16 C 0.36303 0.4509 0.75873 0.0
C17 C 0.40793 0.4874 0.60396 0.0
C18 C 0.21484 0.45227 0.6737 0.0
O19 O 0.38463 0.49992 0.74402 0.0
O20 O 0.32438 0.42826 0.7311 0.0
O21 O 0.2611 0.42425 0.66042 0.0
O22 O 0.2238 0.50647 0.6839 0.0
C23 C 0.29516 0.61824 0.67456 0.0
O24 O 0.35444 0.46994 0.59946 0.0
O25 O 0.41959 0.51095 0.64459 0.0
In26 In 0.47086 0.8103 0.17062 0.0
O27 O 0.49924 0.8406 0.09368 0.0
O28 O 0.46222 0.90497 0.14189 0.0
C29 C 0.50501 0.69578 0.17908 0.0
C30 C 0.35404 0.78452 0.16617 0.0
C31 C 0.53565 0.85121 0.24636 0.0
O32 O 0.53248 0.73155 0.15089 0.0
O33 O 0.4606 0.71774 0.20079 0.0
O34 O 0.48119 0.86478 0.24137 0.0
O35 O 0.55694 0.81928 0.2128 0.0
C36 C 0.48294 0.89412 0.10004 0.0
O37 O 0.37801 0.80528 0.20444 0.0
O38 O 0.38858 0.77956 0.12992 0.0
In39 In 0.15662 0.96745 0.669 0.0
O40 O 0.16988 0.87818 0.70765 0.0
O41 O 0.19693 0.88587 0.63352 0.0
C42 C 0.10192 0.00675 0.75111 0.0
C43 C 0.08027 0.97504 0.59267 0.0
C44 C 0.25531 0.03721 0.67132 0.0
O45 O 0.15689 -0.00481 0.74949 0.0
O46 O 0.07412 -0.00469 0.71225 0.0
O47 O 0.20313 0.05858 0.6713 0.0
O48 O 0.25725 0.98164 0.66446 0.0
C49 C 0.19372 0.85363 0.67106 0.0
O50 O 0.12837 0.00508 0.59429 0.0
O51 O 0.07134 0.94198 0.62915 0.0
In52 In 0.96926 0.31022 0.86842 0.0
O53 O 0.87653 0.30543 0.83462 0.0
O54 O 0.88661 0.28029 0.90924 0.0
C55 C 0.03395 0.35091 0.79238 0.0
C56 C 0.98209 0.39386 0.93914 0.0
C57 C 0.00315 0.19556 0.86008 0.0
O58 O 0.97965 0.36495 0.79784 0.0
O59 O 0.05514 0.31857 0.82561 0.0
O60 O 0.03078 0.23147 0.88801 0.0
O61 O 0.95867 0.21745 0.83857 0.0
C62 C 0.85226 0.28514 0.87297 0.0
O63 O -0.00209 0.34019 0.94533 0.0
O64 O 0.96143 0.40494 0.89739 0.0
In65 In 0.65741 0.46773 0.3702 0.0
O66 O 0.67091 0.37849 0.33139 0.0
O67 O 0.69743 0.38611 0.40558 0.0
C68 C 0.60334 0.50718 0.28806 0.0
C69 C 0.58053 0.47527 0.44642 0.0
C70 C 0.75621 0.53733 0.36823 0.0
O71 O 0.65831 0.49572 0.28979 0.0
O72 O 0.57523 0.49558 0.3268 0.0
O73 O 0.70407 0.55879 0.36823 0.0
O74 O 0.75801 0.48174 0.37495 0.0
C75 C 0.69449 0.3539 0.36798 0.0
O76 O 0.62864 0.5053 0.44494 0.0
O77 O 0.57184 0.44226 0.40984 0.0
In78 In 0.49717 0.16125 0.87966 0.0
O79 O 0.4738 0.12934 0.95699 0.0
O80 O 0.50485 0.06491 0.90626 0.0
C81 C 0.45896 0.27521 0.88019 0.0
C82 C 0.61439 0.18606 0.87799 0.0
C83 C 0.43058 0.1277 0.80215 0.0
O84 O 0.43002 0.23388 0.90131 0.0
O85 O 0.508 0.25927 0.86197 0.0
O86 O 0.48517 0.1138 0.80548 0.0
O87 O 0.41011 0.15568 0.83826 0.0
C88 C 0.48767 0.07551 0.9492 0.0
O89 O 0.58655 0.16891 0.8403 0.0
O90 O 0.58347 0.1881 0.91654 0.0
In91 In 0.82601 0.00283 0.36351 0.0
O92 O 0.81041 0.09171 0.32545 0.0
O93 O 0.79888 0.08753 0.40252 0.0
C94 C 0.86496 0.95165 0.27994 0.0
C95 C 0.90868 -0.01237 0.43494 0.0
C96 C 0.71626 0.95236 0.36515 0.0
O97 O 0.88708 0.00015 0.29528 0.0
O98 O 0.82536 0.92941 0.30695 0.0
O99 O 0.76264 0.92436 0.37802 0.0
O100 O 0.72502 0.0067 0.35537 0.0
C101 C 0.79627 0.11866 0.36425 0.0
O102 O 0.85519 0.97004 0.43925 0.0
O103 O 0.92058 0.01142 0.39446 0.0
C104 C 0.96694 0.49891 0.96792 0.0
C105 C 0.98504 0.44009 0.97786 0.0
H106 H 0.95377 0.58746 0.99548 0.0
C107 C 0.00417 0.42597 0.0252 0.0
H108 H 0.95182 0.51128 0.93184 0.0
C109 C 0.00502 0.46971 0.06179 0.0
C110 C -0.01317 0.52851 0.05179 0.0
H111 H 0.01819 0.38107 0.03407 0.0
H112 H 0.02006 0.45746 0.09792 0.0
C113 C 0.96788 0.5426 1.00442 0.0
C114 C 0.5089 0.51137 0.56862 0.0
C115 C 0.45281 0.48304 0.56428 0.0
H116 H 0.59317 0.53167 0.53466 0.0
C117 C 0.43948 0.45197 0.52115 0.0
H118 H 0.52044 0.53585 0.60138 0.0
C119 C 0.48121 0.44931 0.48317 0.0
C120 C 0.53706 0.47812 0.48723 0.0
H121 H 0.3967 0.42975 0.51665 0.0
H122 H 0.46944 0.425 0.45037 0.0
C123 C 0.5505 0.50917 0.53039 0.0
C124 C 0.50445 0.92649 1.01392 0.0
C125 C 0.48536 0.94041 0.06139 0.0
H126 H 0.51979 0.95816 0.94118 0.0
C127 C 0.46676 -0.00095 0.07154 0.0
H128 H 0.51884 0.88172 1.0049 0.0
C129 C 0.46717 0.04277 0.0351 0.0
C130 C 0.48608 0.02888 0.98761 0.0
H131 H 0.45166 0.01127 0.10772 0.0
H132 H 0.4527 0.08749 0.0442 0.0
C133 C 0.50476 0.97026 0.97741 0.0
C134 C 0.93972 0.95189 0.51766 0.0
C135 C 0.9533 0.98314 0.47467 0.0
H136 H 0.96925 0.92467 0.58837 0.0
C137 C 0.0094 0.01152 0.47052 0.0
H138 H 0.89693 0.92962 0.52201 0.0
C139 C 0.05076 0.0092 0.50879 0.0
C140 C 0.03707 0.97799 0.5518 0.0
H141 H 0.02113 0.03615 0.43787 0.0
H142 H 0.09343 0.03175 0.50466 0.0
C143 C 0.98122 0.94911 0.55568 0.0
C144 C 0.20471 0.72328 0.2077 0.0
C145 C 0.17814 0.70796 0.16302 0.0
H146 H 0.281 0.7611 0.24366 0.0
C147 C 0.2092 0.71935 0.11947 0.0
H148 H 0.18139 0.7156 0.24178 0.0
C149 C 0.26601 0.74529 0.12054 0.0
C150 C 0.29245 0.76106 0.16515 0.0
H151 H 0.18956 0.70832 0.08451 0.0
H152 H 0.28924 0.75297 0.08641 0.0
C153 C 0.2613 0.74999 0.20873 0.0
C154 C 0.254 0.70721 0.71782 0.0
C155 C 0.27172 0.67947 0.67423 0.0
H156 H 0.21418 0.78407 0.75093 0.0
C157 C 0.26334 0.70923 0.62979 0.0
H158 H 0.25957 0.68496 0.75256 0.0
C159 C 0.23762 0.76575 0.62889 0.0
C160 C 0.21918 0.79323 0.67236 0.0
H161 H 0.27643 0.68875 0.59563 0.0
H162 H 0.23189 0.78776 0.59407 0.0
C163 C 0.22758 0.76357 0.71687 0.0
C164 C 0.70291 0.22411 0.83162 0.0
C165 C 0.67608 0.20921 0.87634 0.0
H166 H 0.7795 0.26141 0.79555 0.0
C167 C 0.70693 0.22094 0.91986 0.0
H168 H 0.67976 0.21617 0.79755 0.0
C169 C 0.76381 0.24672 0.91872 0.0
C170 C 0.79055 0.262 0.87406 0.0
H171 H 0.68709 0.21025 0.95486 0.0
H172 H 0.78689 0.25463 0.95283 0.0
C173 C 0.75958 0.25067 0.8305 0.0
C174 C 0.72863 0.26385 0.32207 0.0
C175 C 0.72 0.29353 0.36661 0.0
H176 H 0.76088 0.18525 0.2863 0.0
C177 C 0.73831 0.2661 0.41005 0.0
H178 H 0.71534 0.28431 0.28802 0.0
C179 C 0.76412 0.20963 0.40909 0.0
C180 C 0.77274 0.17985 0.36463 0.0
H181 H 0.7324 0.28812 0.44489 0.0
H182 H 0.77711 0.1892 0.44323 0.0
C183 C 0.75515 0.20752 0.32106 0.0
C184 C 0.79772 0.62243 0.32043 0.0
C185 C 0.80767 0.56958 0.3466 0.0
H186 H 0.82945 0.68166 0.26489 0.0
C187 C 0.86346 0.5412 0.34221 0.0
H188 H 0.75529 0.64534 0.32288 0.0
C189 C 0.90622 0.56224 0.30892 0.0
C190 C 0.8934 0.61143 0.27917 0.0
H191 H 0.87239 0.50032 0.36191 0.0
H192 H 0.94735 0.53761 0.3041 0.0
C193 C 0.83996 0.64284 0.28675 0.0
C194 C 0.44453 0.42156 0.81579 0.0
C195 C 0.38439 0.41825 0.8018 0.0
H196 H 0.51592 0.37783 0.85326 0.0
C197 C 0.34662 0.37588 0.82403 0.0
H198 H 0.47442 0.45395 0.79921 0.0
C199 C 0.36992 0.33332 0.85579 0.0
C200 C 0.43158 0.33176 0.86478 0.0
H201 H 0.29982 0.37294 0.81411 0.0
H202 H 0.34076 0.298 0.86888 0.0
C203 C 0.46815 0.37815 0.84681 0.0
C204 C 0.56615 0.92994 0.30624 0.0
C205 C 0.57351 0.87257 0.28669 0.0
H206 H 0.60651 0.00075 0.34758 0.0
C207 C 0.62215 0.83786 0.30179 0.0
H208 H 0.52887 0.95742 0.29516 0.0
C209 C 0.66549 0.86182 0.33278 0.0
C210 C 0.66172 0.9215 0.34809 0.0
H211 H 0.62832 0.79315 0.28756 0.0
H212 H 0.7046 0.83534 0.34095 0.0
C213 C 0.6104 0.95455 0.33635 0.0
C214 C -0.01125 0.09838 0.81816 0.0
C215 C 0.02597 0.13648 0.84547 0.0
H216 H 0.98383 0.02631 0.76713 0.0
C217 C 0.08693 0.12288 0.84967 0.0
H218 H 0.9414 0.1074 0.81474 0.0
C219 C 0.11128 0.07597 0.82239 0.0
C220 C 0.0749 0.04242 0.79059 0.0
H221 H 0.11662 0.15155 0.87043 0.0
H222 H 0.15924 0.06955 0.82295 0.0
C223 C 0.013 0.05188 0.79086 0.0
C224 C 0.12029 0.33758 0.73651 0.0
C225 C 0.0718 0.37237 0.752 0.0
H226 H 0.20274 0.33507 0.6971 0.0
C227 C 0.06464 0.42991 0.73284 0.0
H228 H 0.12631 0.29274 0.75044 0.0
C229 C 0.10898 0.45458 0.70276 0.0
C230 C 0.16019 0.42144 0.69067 0.0
H231 H 0.02748 0.45745 0.74422 0.0
H232 H 0.10527 0.50089 0.69185 0.0
C233 C 0.16372 0.36162 0.70555 0.0
C234 C 0.61313 0.57646 0.2169 0.0
C235 C 0.57656 0.54285 0.24858 0.0
H236 H 0.61867 0.65202 0.16894 0.0
C237 C 0.51465 0.55218 0.24818 0.0
H238 H 0.6611 0.57013 0.21645 0.0
C239 C 0.49051 0.59861 0.22088 0.0
C240 C 0.52786 0.63676 0.19367 0.0
H241 H 0.48535 0.52655 0.27182 0.0
H242 H 0.44312 0.60754 0.2242 0.0
C243 C 0.58888 0.6233 0.1896 0.0
C244 C 0.40505 0.06247 0.73062 0.0
C245 C 0.39197 0.11155 0.76052 0.0
H246 H 0.37159 0.00056 0.67748 0.0
C247 C 0.33842 0.14276 0.75311 0.0
H248 H 0.44627 0.038 0.73532 0.0
C249 C 0.29635 0.12229 0.7194 0.0
C250 C 0.30658 0.06955 0.69305 0.0
H251 H 0.3277 0.18148 0.7751 0.0
H252 H 0.25384 0.14505 0.71707 0.0
C253 C 0.36245 0.04136 0.69731 0.0
C254 C 0.87268 0.8341 0.18275 0.0
C255 C 0.93451 0.83178 0.17458 0.0
H256 H 0.80207 0.87461 0.22353 0.0
C257 C 0.97119 0.87776 0.19304 0.0
H258 H 0.84342 0.79912 0.16924 0.0
C259 C 0.94737 0.92149 0.22378 0.0
C260 C 0.88687 0.91891 0.23699 0.0
H261 H 0.0191 0.87688 0.1872 0.0
H262 H 0.97726 0.9535 0.24078 0.0
C263 C 0.84913 0.87699 0.21422 0.0
loop_
_geom_bond_atom_site_label_1
_geom_bond_atom_site_label_2
_geom_bond_distance
_geom_bond_site_symmetry_2
_ccdc_geom_bond_type
In0 O1 2.293 1_455 S
In0 O2 2.327 . S
In0 O6 2.264 1_455 S
In0 O7 2.325 1_455 S
In0 O8 2.266 1_455 S
In0 O9 2.323 1_455 S
In0 O11 2.297 . S
In0 O12 2.329 . S
O1 In0 2.293 1_655 S
O1 C10 1.240 1_655 S
O2 In0 2.327 . S
O2 C10 1.252 . S
C3 O6 1.252 . S
C3 O7 1.260 . S
C4 O11 1.240 . S
C4 O12 1.252 . S
C5 O8 1.252 . S
C5 O9 1.260 . S
O6 In0 2.264 1_655 S
O6 C3 1.252 . S
O7 In0 2.325 1_655 S
O7 C3 1.260 . S
O8 In0 2.266 1_655 S
O8 C5 1.252 . S
O9 In0 2.323 1_655 S
O9 C5 1.260 . S
C10 O1 1.240 1_455 S
C10 O2 1.252 . S
O11 In0 2.297 . S
O11 C4 1.240 . S
O12 In0 2.329 . S
O12 C4 1.252 . S
In13 O14 2.294 . S
In13 O15 2.326 . S
In13 O19 2.266 . S
In13 O20 2.326 . S
In13 O21 2.266 . S
In13 O22 2.326 . S
In13 O24 2.294 . S
In13 O25 2.326 . S
O14 In13 2.294 . S
O14 C23 1.240 . S
O15 In13 2.326 . S
O15 C23 1.252 . S
C16 O19 1.252 . S
C16 O20 1.260 . S
C17 O24 1.240 . S
C17 O25 1.252 . S
C18 O21 1.252 . S
C18 O22 1.260 . S
O19 In13 2.266 . S
O19 C16 1.252 . S
O20 In13 2.326 . S
O20 C16 1.260 . S
O21 In13 2.266 . S
O21 C18 1.252 . S
O22 In13 2.326 . S
O22 C18 1.260 . S
C23 O14 1.240 . S
C23 O15 1.252 . S
O24 In13 2.294 . S
O24 C17 1.240 . S
O25 In13 2.326 . S
O25 C17 1.252 . S
In26 O27 2.294 . S
In26 O28 2.326 . S
In26 O32 2.266 . S
In26 O33 2.326 . S
In26 O34 2.266 . S
In26 O35 2.326 . S
In26 O37 2.294 . S
In26 O38 2.326 . S
O27 In26 2.294 . S
O27 C36 1.240 . S
O28 In26 2.326 . S
O28 C36 1.252 . S
C29 O32 1.252 . S
C29 O33 1.260 . S
C30 O37 1.240 . S
C30 O38 1.252 . S
C31 O34 1.252 . S
C31 O35 1.260 . S
O32 In26 2.266 . S
O32 C29 1.252 . S
O33 In26 2.326 . S
O33 C29 1.260 . S
O34 In26 2.266 . S
O34 C31 1.252 . S
O35 In26 2.326 . S
O35 C31 1.260 . S
C36 O27 1.240 . S
C36 O28 1.252 . S
O37 In26 2.294 . S
O37 C30 1.240 . S
O38 In26 2.326 . S
O38 C30 1.252 . S
In39 O40 2.297 . S
In39 O41 2.329 . S
In39 O45 2.266 1_565 S
In39 O46 2.323 1_565 S
In39 O47 2.264 1_565 S
In39 O48 2.325 1_565 S
In39 O50 2.293 1_565 S
In39 O51 2.327 . S
O40 In39 2.297 . S
O40 C49 1.240 . S
O41 In39 2.329 . S
O41 C49 1.252 . S
C42 O45 1.252 . S
C42 O46 1.260 . S
C43 O50 1.240 1_565 S
C43 O51 1.252 . S
C44 O47 1.252 . S
C44 O48 1.260 . S
O45 In39 2.266 1_545 S
O45 C42 1.252 . S
O46 In39 2.323 1_545 S
O46 C42 1.260 . S
O47 In39 2.264 1_545 S
O47 C44 1.252 . S
O48 In39 2.325 1_545 S
O48 C44 1.260 . S
C49 O40 1.240 . S
C49 O41 1.252 . S
O50 In39 2.293 1_545 S
O50 C43 1.240 1_545 S
O51 In39 2.327 . S
O51 C43 1.252 . S
In52 O53 2.297 . S
In52 O54 2.329 . S
In52 O58 2.266 1_655 S
In52 O59 2.323 1_655 S
In52 O60 2.264 1_655 S
In52 O61 2.325 1_655 S
In52 O63 2.293 1_655 S
In52 O64 2.327 . S
O53 In52 2.297 . S
O53 C62 1.240 . S
O54 In52 2.329 . S
O54 C62 1.252 . S
C55 O58 1.252 . S
C55 O59 1.260 . S
C56 O63 1.240 1_655 S
C56 O64 1.252 . S
C57 O60 1.252 . S
C57 O61 1.260 . S
O58 In52 2.266 1_455 S
O58 C55 1.252 . S
O59 In52 2.323 1_455 S
O59 C55 1.260 . S
O60 In52 2.264 1_455 S
O60 C57 1.252 . S
O61 In52 2.325 1_455 S
O61 C57 1.260 . S
C62 O53 1.240 . S
C62 O54 1.252 . S
O63 In52 2.293 1_455 S
O63 C56 1.240 1_455 S
O64 In52 2.327 . S
O64 C56 1.252 . S
In65 O66 2.294 . S
In65 O67 2.326 . S
In65 O71 2.266 . S
In65 O72 2.326 . S
In65 O73 2.266 . S
In65 O74 2.326 . S
In65 O76 2.294 . S
In65 O77 2.326 . S
O66 In65 2.294 . S
O66 C75 1.240 . S
O67 In65 2.326 . S
O67 C75 1.252 . S
C68 O71 1.252 . S
C68 O72 1.260 . S
C69 O76 1.240 . S
C69 O77 1.252 . S
C70 O73 1.252 . S
C70 O74 1.260 . S
O71 In65 2.266 . S
O71 C68 1.252 . S
O72 In65 2.326 . S
O72 C68 1.260 . S
O73 In65 2.266 . S
O73 C70 1.252 . S
O74 In65 2.326 . S
O74 C70 1.260 . S
C75 O66 1.240 . S
C75 O67 1.252 . S
O76 In65 2.294 . S
O76 C69 1.240 . S
O77 In65 2.326 . S
O77 C69 1.252 . S
In78 O79 2.294 . S
In78 O80 2.326 . S
In78 O84 2.266 . S
In78 O85 2.326 . S
In78 O86 2.266 . S
In78 O87 2.326 . S
In78 O89 2.294 . S
In78 O90 2.326 . S
O79 In78 2.294 . S
O79 C88 1.240 . S
O80 In78 2.326 . S
O80 C88 1.252 . S
C81 O84 1.252 . S
C81 O85 1.260 . S
C82 O89 1.240 . S
C82 O90 1.252 . S
C83 O86 1.252 . S
C83 O87 1.260 . S
O84 In78 2.266 . S
O84 C81 1.252 . S
O85 In78 2.326 . S
O85 C81 1.260 . S
O86 In78 2.266 . S
O86 C83 1.252 . S
O87 In78 2.326 . S
O87 C83 1.260 . S
C88 O79 1.240 . S
C88 O80 1.252 . S
O89 In78 2.294 . S
O89 C82 1.240 . S
O90 In78 2.326 . S
O90 C82 1.252 . S
In91 O92 2.297 . S
In91 O93 2.329 . S
In91 O97 2.266 1_545 S
In91 O98 2.323 1_545 S
In91 O99 2.264 1_545 S
In91 O100 2.325 1_545 S
In91 O102 2.293 1_545 S
In91 O103 2.327 . S
O92 In91 2.297 . S
O92 C101 1.240 . S
O93 In91 2.329 . S
O93 C101 1.252 . S
C94 O97 1.252 . S
C94 O98 1.260 . S
C95 O102 1.240 1_545 S
C95 O103 1.252 . S
C96 O99 1.252 . S
C96 O100 1.260 . S
O97 In91 2.266 1_565 S
O97 C94 1.252 . S
O98 In91 2.323 1_565 S
O98 C94 1.260 . S
O99 In91 2.264 1_565 S
O99 C96 1.252 . S
O100 In91 2.325 1_565 S
O100 C96 1.260 . S
C101 O92 1.240 . S
C101 O93 1.252 . S
O102 In91 2.293 1_565 S
O102 C95 1.240 1_565 S
O103 In91 2.327 . S
O103 C95 1.252 . S
C104 C105 1.387 . S
C104 H108 0.950 . S
C104 C113 1.390 1_556 S
C105 C104 1.387 . S
C105 C107 1.387 1_655 S
H106 C113 0.950 . S
C107 C105 1.387 1_455 S
C107 C109 1.390 1_556 S
C107 H111 0.950 . S
H108 C104 0.950 . S
C109 C107 1.390 1_554 S
C109 C110 1.387 . S
C109 H112 0.950 . S
C110 C109 1.387 . S
C110 C113 1.387 1_455 S
H111 C107 0.950 . S
H112 C109 0.950 . S
C113 C104 1.390 1_554 S
C113 H106 0.950 . S
C113 C110 1.387 1_655 S
C114 C115 1.387 . S
C114 H118 0.950 . S
C114 C123 1.390 . S
C115 C114 1.387 . S
C115 C117 1.387 . S
H116 C123 0.950 . S
C117 C115 1.387 . S
C117 C119 1.390 . S
C117 H121 0.950 . S
H118 C114 0.950 . S
C119 C117 1.390 . S
C119 C120 1.387 . S
C119 H122 0.950 . S
C120 C119 1.387 . S
C120 C123 1.387 . S
H121 C117 0.950 . S
H122 C119 0.950 . S
C123 C114 1.390 . S
C123 H116 0.950 . S
C123 C120 1.387 . S
C124 C125 1.387 1_556 S
C124 H128 0.950 . S
C124 C133 1.390 1_565 S
C125 C124 1.387 1_554 S
C125 C127 1.387 . S
H126 C133 0.950 . S
C127 C125 1.387 . S
C127 C129 1.390 1_565 S
C127 H131 0.950 . S
H128 C124 0.950 . S
C129 C127 1.390 1_545 S
C129 C130 1.387 1_554 S
C129 H132 0.950 . S
C130 C129 1.387 1_556 S
C130 C133 1.387 . S
H131 C127 0.950 . S
H132 C129 0.950 . S
C133 C124 1.390 1_545 S
C133 H126 0.950 . S
C133 C130 1.387 . S
C134 C135 1.387 1_565 S
C134 H138 0.950 . S
C134 C143 1.390 1_655 S
C135 C134 1.387 1_545 S
C135 C137 1.387 . S
H136 C143 0.950 . S
C137 C135 1.387 . S
C137 C139 1.390 1_655 S
C137 H141 0.950 . S
H138 C134 0.950 . S
C139 C137 1.390 1_455 S
C139 C140 1.387 1_545 S
C139 H142 0.950 . S
C140 C139 1.387 1_565 S
C140 C143 1.387 . S
H141 C137 0.950 . S
H142 C139 0.950 . S
C143 C134 1.390 1_455 S
C143 H136 0.950 . S
C143 C140 1.387 . S
C144 C145 1.387 . S
C144 H148 0.950 . S
C144 C153 1.390 . S
C145 C144 1.387 . S
C145 C147 1.387 . S
H146 C153 0.950 . S
C147 C145 1.387 . S
C147 C149 1.390 . S
C147 H151 0.950 . S
H148 C144 0.950 . S
C149 C147 1.390 . S
C149 C150 1.387 . S
C149 H152 0.950 . S
C150 C149 1.387 . S
C150 C153 1.387 . S
H151 C147 0.950 . S
H152 C149 0.950 . S
C153 C144 1.390 . S
C153 H146 0.950 . S
C153 C150 1.387 . S
C154 C155 1.387 . S
C154 H158 0.950 . S
C154 C163 1.390 . S
C155 C154 1.387 . S
C155 C157 1.387 . S
H156 C163 0.950 . S
C157 C155 1.387 . S
C157 C159 1.390 . S
C157 H161 0.950 . S
H158 C154 0.950 . S
C159 C157 1.390 . S
C159 C160 1.387 . S
C159 H162 0.950 . S
C160 C159 1.387 . S
C160 C163 1.387 . S
H161 C157 0.950 . S
H162 C159 0.950 . S
C163 C154 1.390 . S
C163 H156 0.950 . S
C163 C160 1.387 . S
C164 C165 1.387 . S
C164 H168 0.950 . S
C164 C173 1.390 . S
C165 C164 1.387 . S
C165 C167 1.387 . S
H166 C173 0.950 . S
C167 C165 1.387 . S
C167 C169 1.390 . S
C167 H171 0.950 . S
H168 C164 0.950 . S
C169 C167 1.390 . S
C169 C170 1.387 . S
C169 H172 0.950 . S
C170 C169 1.387 . S
C170 C173 1.387 . S
H171 C167 0.950 . S
H172 C169 0.950 . S
C173 C164 1.390 . S
C173 H166 0.950 . S
C173 C170 1.387 . S
C174 C175 1.387 . S
C174 H178 0.950 . S
C174 C183 1.390 . S
C175 C174 1.387 . S
C175 C177 1.387 . S
H176 C183 0.950 . S
C177 C175 1.387 . S
C177 C179 1.390 . S
C177 H181 0.950 . S
H178 C174 0.950 . S
C179 C177 1.390 . S
C179 C180 1.387 . S
C179 H182 0.950 . S
C180 C179 1.387 . S
C180 C183 1.387 . S
H181 C177 0.950 . S
H182 C179 0.950 . S
C183 C174 1.390 . S
C183 H176 0.950 . S
C183 C180 1.387 . S
C184 C185 1.387 . S
C184 H188 0.950 . S
C184 C193 1.390 . S
C185 C184 1.387 . S
C185 C187 1.387 . S
H186 C193 0.950 . S
C187 C185 1.387 . S
C187 C189 1.390 . S
C187 H191 0.950 . S
H188 C184 0.950 . S
C189 C187 1.390 . S
C189 C190 1.387 . S
C189 H192 0.950 . S
C190 C189 1.387 . S
C190 C193 1.387 . S
H191 C187 0.950 . S
H192 C189 0.950 . S
C193 C184 1.390 . S
C193 H186 0.950 . S
C193 C190 1.387 . S
C194 C195 1.387 . S
C194 H198 0.950 . S
C194 C203 1.390 . S
C195 C194 1.387 . S
C195 C197 1.387 . S
H196 C203 0.950 . S
C197 C195 1.387 . S
C197 C199 1.390 . S
C197 H201 0.950 . S
H198 C194 0.950 . S
C199 C197 1.390 . S
C199 C200 1.387 . S
C199 H202 0.950 . S
C200 C199 1.387 . S
C200 C203 1.387 . S
H201 C197 0.950 . S
H202 C199 0.950 . S
C203 C194 1.390 . S
C203 H196 0.950 . S
C203 C200 1.387 . S
C204 C205 1.387 . S
C204 H208 0.950 . S
C204 C213 1.390 . S
C205 C204 1.387 . S
C205 C207 1.387 . S
H206 C213 0.950 1_545 S
C207 C205 1.387 . S
C207 C209 1.390 . S
C207 H211 0.950 . S
H208 C204 0.950 . S
C209 C207 1.390 . S
C209 C210 1.387 . S
C209 H212 0.950 . S
C210 C209 1.387 . S
C210 C213 1.387 . S
H211 C207 0.950 . S
H212 C209 0.950 . S
C213 C204 1.390 . S
C213 H206 0.950 1_565 S
C213 C210 1.387 . S
C214 C215 1.387 . S
C214 H218 0.950 1_455 S
C214 C223 1.390 . S
C215 C214 1.387 . S
C215 C217 1.387 . S
H216 C223 0.950 . S
C217 C215 1.387 . S
C217 C219 1.390 . S
C217 H221 0.950 . S
H218 C214 0.950 1_655 S
C219 C217 1.390 . S
C219 C220 1.387 . S
C219 H222 0.950 . S
C220 C219 1.387 . S
C220 C223 1.387 . S
H221 C217 0.950 . S
H222 C219 0.950 . S
C223 C214 1.390 . S
C223 H216 0.950 . S
C223 C220 1.387 . S
C224 C225 1.387 . S
C224 H228 0.950 . S
C224 C233 1.390 . S
C225 C224 1.387 . S
C225 C227 1.387 . S
H226 C233 0.950 . S
C227 C225 1.387 . S
C227 C229 1.390 . S
C227 H231 0.950 . S
H228 C224 0.950 . S
C229 C227 1.390 . S
C229 C230 1.387 . S
C229 H232 0.950 . S
C230 C229 1.387 . S
C230 C233 1.387 . S
H231 C227 0.950 . S
H232 C229 0.950 . S
C233 C224 1.390 . S
C233 H226 0.950 . S
C233 C230 1.387 . S
C234 C235 1.387 . S
C234 H238 0.950 . S
C234 C243 1.390 . S
C235 C234 1.387 . S
C235 C237 1.387 . S
H236 C243 0.950 . S
C237 C235 1.387 . S
C237 C239 1.390 . S
C237 H241 0.950 . S
H238 C234 0.950 . S
C239 C237 1.390 . S
C239 C240 1.387 . S
C239 H242 0.950 . S
C240 C239 1.387 . S
C240 C243 1.387 . S
H241 C237 0.950 . S
H242 C239 0.950 . S
C243 C234 1.390 . S
C243 H236 0.950 . S
C243 C240 1.387 . S
C244 C245 1.387 . S
C244 H248 0.950 . S
C244 C253 1.390 . S
C245 C244 1.387 . S
C245 C247 1.387 . S
H246 C253 0.950 1_565 S
C247 C245 1.387 . S
C247 C249 1.390 . S
C247 H251 0.950 . S
H248 C244 0.950 . S
C249 C247 1.390 . S
C249 C250 1.387 . S
C249 H252 0.950 . S
C250 C249 1.387 . S
C250 C253 1.387 . S
H251 C247 0.950 . S
H252 C249 0.950 . S
C253 C244 1.390 . S
C253 H246 0.950 1_545 S
C253 C250 1.387 . S
C254 C255 1.387 . S
C254 H258 0.950 . S
C254 C263 1.390 . S
C255 C254 1.387 . S
C255 C257 1.387 . S
H256 C263 0.950 . S
C257 C255 1.387 . S
C257 C259 1.390 . S
C257 H261 0.950 1_655 S
H258 C254 0.950 . S
C259 C257 1.390 . S
C259 C260 1.387 . S
C259 H262 0.950 . S
C260 C259 1.387 . S
C260 C263 1.387 . S
H261 C257 0.950 1_455 S
H262 C259 0.950 . S
C263 C254 1.390 . S
C263 H256 0.950 . S
C263 C260 1.387 . S
C105 C56 1.754 . S
C110 C10 1.754 . S
C115 C17 1.764 . S
C120 C69 1.764 . S
C125 C36 1.753 . S
C130 C88 1.753 . S
C135 C95 1.749 . S
C140 C43 1.749 . S
C145 C4 1.644 . S
C150 C30 1.642 . S
C155 C23 1.644 . S
C160 C49 1.642 . S
C165 C82 1.645 . S
C170 C62 1.643 . S
C175 C75 1.645 . S
C180 C101 1.643 . S
C185 C70 1.223 . S
C190 C5 1.286 . S
C195 C16 1.292 . S
C200 C81 1.232 . S
C205 C31 1.277 . S
C210 C96 1.224 . S
C215 C57 1.217 . S
C220 C42 1.273 . S
C225 C55 1.286 . S
C230 C18 1.229 . S
C235 C68 1.290 . S
C240 C29 1.231 . S
C245 C83 1.276 . S
C250 C44 1.219 . S
C255 C3 1.218 . S
C260 C94 1.274 . S
