# Generated by pormake.
# Topology utm, (3)-cn, num edge types: 1
# Building blocks:
#     Node 0, Type 0, BuildingBlock: WUSLED_clean_sbu_0, # of connection points: 3
#     Node 1, Type 0, BuildingBlock: WUSLED_clean_sbu_0, # of connection points: 3
#     Node 2, Type 0, BuildingBlock: WUSLED_clean_sbu_0, # of connection points: 3
#     Node 3, Type 0, BuildingBlock: WUSLED_clean_sbu_0, # of connection points: 3
#     Node 4, Type 0, BuildingBlock: WUSLED_clean_sbu_0, # of connection points: 3
#     Node 5, Type 0, BuildingBlock: WUSLED_clean_sbu_0, # of connection points: 3
#     Node 6, Type 0, BuildingBlock: WUSLED_clean_sbu_0, # of connection points: 3
#     Node 7, Type 0, BuildingBlock: WUSLED_clean_sbu_0, # of connection points: 3
#     Node 8, Type 0, BuildingBlock: WUSLED_clean_sbu_0, # of connection points: 3
#     Node 9, Type 0, BuildingBlock: WUSLED_clean_sbu_0, # of connection points: 3
#     Node 10, Type 0, BuildingBlock: WUSLED_clean_sbu_0, # of connection points: 3
#     Node 11, Type 0, BuildingBlock: WUSLED_clean_sbu_0, # of connection points: 3
#     Node 12, Type 0, BuildingBlock: WUSLED_clean_sbu_0, # of connection points: 3
#     Node 13, Type 0, BuildingBlock: WUSLED_clean_sbu_0, # of connection points: 3
#     Node 14, Type 0, BuildingBlock: WUSLED_clean_sbu_0, # of connection points: 3
#     Node 15, Type 0, BuildingBlock: WUSLED_clean_sbu_0, # of connection points: 3
#     Node 16, Type 0, BuildingBlock: WUSLED_clean_sbu_0, # of connection points: 3
#     Node 17, Type 0, BuildingBlock: WUSLED_clean_sbu_0, # of connection points: 3
#     Node 18, Type 0, BuildingBlock: WUSLED_clean_sbu_0, # of connection points: 3
#     Node 19, Type 0, BuildingBlock: WUSLED_clean_sbu_0, # of connection points: 3
#     Node 20, Type 0, BuildingBlock: WUSLED_clean_sbu_0, # of connection points: 3
#     Node 21, Type 0, BuildingBlock: WUSLED_clean_sbu_0, # of connection points: 3
#     Node 22, Type 0, BuildingBlock: WUSLED_clean_sbu_0, # of connection points: 3
#     Node 23, Type 0, BuildingBlock: WUSLED_clean_sbu_0, # of connection points: 3
#     Node 24, Type 0, BuildingBlock: WUSLED_clean_sbu_0, # of connection points: 3
#     Node 25, Type 0, BuildingBlock: WUSLED_clean_sbu_0, # of connection points: 3
#     Node 26, Type 0, BuildingBlock: WUSLED_clean_sbu_0, # of connection points: 3
#     Node 27, Type 0, BuildingBlock: WUSLED_clean_sbu_0, # of connection points: 3
#     Node 28, Type 0, BuildingBlock: WUSLED_clean_sbu_0, # of connection points: 3
#     Node 29, Type 0, BuildingBlock: WUSLED_clean_sbu_0, # of connection points: 3
#     Node 30, Type 0, BuildingBlock: WUSLED_clean_sbu_0, # of connection points: 3
#     Node 31, Type 0, BuildingBlock: WUSLED_clean_sbu_0, # of connection points: 3
#     Edge 32, Type (0, 0), BuildingBlock: ZUJKAS_clean_linker_0, # of connection points: 2
#     Edge 33, Type (0, 0), BuildingBlock: ZUJKAS_clean_linker_0, # of connection points: 2
#     Edge 34, Type (0, 0), BuildingBlock: ZUJKAS_clean_linker_0, # of connection points: 2
#     Edge 35, Type (0, 0), BuildingBlock: ZUJKAS_clean_linker_0, # of connection points: 2
#     Edge 36, Type (0, 0), BuildingBlock: ZUJKAS_clean_linker_0, # of connection points: 2
#     Edge 37, Type (0, 0), BuildingBlock: ZUJKAS_clean_linker_0, # of connection points: 2
#     Edge 38, Type (0, 0), BuildingBlock: ZUJKAS_clean_linker_0, # of connection points: 2
#     Edge 39, Type (0, 0), BuildingBlock: ZUJKAS_clean_linker_0, # of connection points: 2
#     Edge 40, Type (0, 0), BuildingBlock: ZUJKAS_clean_linker_0, # of connection points: 2
#     Edge 41, Type (0, 0), BuildingBlock: ZUJKAS_clean_linker_0, # of connection points: 2
#     Edge 42, Type (0, 0), BuildingBlock: ZUJKAS_clean_linker_0, # of connection points: 2
#     Edge 43, Type (0, 0), BuildingBlock: ZUJKAS_clean_linker_0, # of connection points: 2
#     Edge 44, Type (0, 0), BuildingBlock: ZUJKAS_clean_linker_0, # of connection points: 2
#     Edge 45, Type (0, 0), BuildingBlock: ZUJKAS_clean_linker_0, # of connection points: 2
#     Edge 46, Type (0, 0), BuildingBlock: ZUJKAS_clean_linker_0, # of connection points: 2
#     Edge 47, Type (0, 0), BuildingBlock: ZUJKAS_clean_linker_0, # of connection points: 2
#     Edge 48, Type (0, 0), BuildingBlock: ZUJKAS_clean_linker_0, # of connection points: 2
#     Edge 49, Type (0, 0), BuildingBlock: ZUJKAS_clean_linker_0, # of connection points: 2
#     Edge 50, Type (0, 0), BuildingBlock: ZUJKAS_clean_linker_0, # of connection points: 2
#     Edge 51, Type (0, 0), BuildingBlock: ZUJKAS_clean_linker_0, # of connection points: 2
#     Edge 52, Type (0, 0), BuildingBlock: ZUJKAS_clean_linker_0, # of connection points: 2
#     Edge 53, Type (0, 0), BuildingBlock: ZUJKAS_clean_linker_0, # of connection points: 2
#     Edge 54, Type (0, 0), BuildingBlock: ZUJKAS_clean_linker_0, # of connection points: 2
#     Edge 55, Type (0, 0), BuildingBlock: ZUJKAS_clean_linker_0, # of connection points: 2
#     Edge 56, Type (0, 0), BuildingBlock: ZUJKAS_clean_linker_0, # of connection points: 2
#     Edge 57, Type (0, 0), BuildingBlock: ZUJKAS_clean_linker_0, # of connection points: 2
#     Edge 58, Type (0, 0), BuildingBlock: ZUJKAS_clean_linker_0, # of connection points: 2
#     Edge 59, Type (0, 0), BuildingBlock: ZUJKAS_clean_linker_0, # of connection points: 2
#     Edge 60, Type (0, 0), BuildingBlock: ZUJKAS_clean_linker_0, # of connection points: 2
#     Edge 61, Type (0, 0), BuildingBlock: ZUJKAS_clean_linker_0, # of connection points: 2
#     Edge 62, Type (0, 0), BuildingBlock: ZUJKAS_clean_linker_0, # of connection points: 2
#     Edge 63, Type (0, 0), BuildingBlock: ZUJKAS_clean_linker_0, # of connection points: 2
#     Edge 64, Type (0, 0), BuildingBlock: ZUJKAS_clean_linker_0, # of connection points: 2
#     Edge 65, Type (0, 0), BuildingBlock: ZUJKAS_clean_linker_0, # of connection points: 2
#     Edge 66, Type (0, 0), BuildingBlock: ZUJKAS_clean_linker_0, # of connection points: 2
#     Edge 67, Type (0, 0), BuildingBlock: ZUJKAS_clean_linker_0, # of connection points: 2
#     Edge 68, Type (0, 0), BuildingBlock: ZUJKAS_clean_linker_0, # of connection points: 2
#     Edge 69, Type (0, 0), BuildingBlock: ZUJKAS_clean_linker_0, # of connection points: 2
#     Edge 70, Type (0, 0), BuildingBlock: ZUJKAS_clean_linker_0, # of connection points: 2
#     Edge 71, Type (0, 0), BuildingBlock: ZUJKAS_clean_linker_0, # of connection points: 2
#     Edge 72, Type (0, 0), BuildingBlock: ZUJKAS_clean_linker_0, # of connection points: 2
#     Edge 73, Type (0, 0), BuildingBlock: ZUJKAS_clean_linker_0, # of connection points: 2
#     Edge 74, Type (0, 0), BuildingBlock: ZUJKAS_clean_linker_0, # of connection points: 2
#     Edge 75, Type (0, 0), BuildingBlock: ZUJKAS_clean_linker_0, # of connection points: 2
#     Edge 76, Type (0, 0), BuildingBlock: ZUJKAS_clean_linker_0, # of connection points: 2
#     Edge 77, Type (0, 0), BuildingBlock: ZUJKAS_clean_linker_0, # of connection points: 2
#     Edge 78, Type (0, 0), BuildingBlock: ZUJKAS_clean_linker_0, # of connection points: 2
#     Edge 79, Type (0, 0), BuildingBlock: ZUJKAS_clean_linker_0, # of connection points: 2
# Relax obj value: 0.006
# Max RMSD: 0.009
# Mean RMSD: 0.009
data_MOF--net-utm--node1-WUSLED_clean_sbu_0--edge1-ZUJKAS_clean_linker_0
_symmetry_space_group_name_H-M    P1
_symmetry_Int_Tables_number       1
_symmetry_cell_setting            triclinic
loop_
_symmetry_equiv_pos_as_xyz
'x, y, z'
_cell_length_a     121.14841
_cell_length_b     121.14359
_cell_length_c     95.145237
_cell_angle_alpha  89.994727
_cell_angle_beta   90.037994
_cell_angle_gamma 89.986329
loop_
_atom_site_label
_atom_site_type_symbol
_atom_site_fract_x
_atom_site_fract_y
_atom_site_fract_z
_atom_type_partial_charge
C0 C 0.17233 0.30314 0.14313 0.0
C1 C 0.17011 0.30822 0.13015 0.0
C2 C 0.15353 0.31704 0.13997 0.0
C3 C 0.16076 0.31508 0.12857 0.0
C4 C 0.15572 0.31159 0.15273 0.0
C5 C 0.16496 0.30479 0.15426 0.0
U6 U 0.20016 0.28619 0.13718 0.0
O7 O 0.21475 0.28709 0.15094 0.0
O8 O 0.20532 0.27161 0.1495 0.0
C9 C 0.21388 0.27674 0.15492 0.0
C10 C 0.18242 0.29661 0.14615 0.0
C11 C 0.21749 0.27381 0.16926 0.0
C12 C 0.21746 0.27575 0.19474 0.0
C13 C 0.21293 0.27837 0.18151 0.0
C14 C 0.231 0.26404 0.1835 0.0
C15 C 0.22667 0.26863 0.19591 0.0
C16 C 0.22642 0.26655 0.17043 0.0
C17 C 0.21162 0.28189 0.09841 0.0
C18 C 0.22922 0.27648 0.08809 0.0
C19 C 0.21359 0.28045 0.07309 0.0
C20 C 0.20716 0.28261 0.0849 0.0
C21 C 0.2248 0.27758 0.07441 0.0
C22 C 0.22268 0.27864 0.10002 0.0
C23 C 0.20445 0.2854 0.11013 0.0
O24 O 0.18248 0.28606 0.1429 0.0
O25 O 0.19205 0.30142 0.14448 0.0
O26 O 0.20803 0.29331 0.11842 0.0
O27 O 0.19857 0.27786 0.11665 0.0
H28 H 0.17569 0.30709 0.12138 0.0
H29 H 0.15942 0.31913 0.11857 0.0
H30 H 0.15028 0.31257 0.16167 0.0
H31 H 0.16646 0.30093 0.16436 0.0
H32 H 0.21373 0.27933 0.20401 0.0
H33 H 0.20601 0.28401 0.18085 0.0
H34 H 0.2382 0.25876 0.18371 0.0
H35 H 0.23013 0.26301 0.16109 0.0
H36 H 0.23781 0.27434 0.08961 0.0
H37 H 0.2097 0.28107 0.06288 0.0
H38 H 0.19863 0.28507 0.08342 0.0
H39 H 0.22632 0.27806 0.1104 0.0
C40 C 0.95762 0.91995 0.39162 0.0
C41 C 0.95328 0.91753 0.37826 0.0
C42 C 0.94367 0.9012 0.38768 0.0
C43 C 0.94641 0.90823 0.37631 0.0
C44 C 0.94819 0.90373 0.40093 0.0
C45 C 0.95507 0.91289 0.4028 0.0
U46 U 0.97506 0.94767 0.38648 0.0
O47 O 0.97408 0.96216 0.40045 0.0
O48 O 0.98946 0.95252 0.39933 0.0
C49 C 0.98436 0.96115 0.40463 0.0
C50 C 0.96435 0.92989 0.39487 0.0
C51 C 0.98737 0.96507 0.41884 0.0
C52 C 0.98786 0.96396 0.44443 0.0
C53 C 0.98495 0.95937 0.43131 0.0
C54 C 0.99548 0.97989 0.43263 0.0
C55 C 0.99312 0.97438 0.44531 0.0
C56 C 0.99273 0.97526 0.41968 0.0
C57 C 0.97919 0.9596 0.3477 0.0
C58 C 0.98876 0.97516 0.33686 0.0
C59 C 0.97678 0.96356 0.32287 0.0
C60 C 0.97451 0.95713 0.33464 0.0
C61 C 0.98379 0.97277 0.32378 0.0
C62 C 0.98645 0.96863 0.34879 0.0
C63 C 0.97599 0.95239 0.35954 0.0
O64 O 0.9749 0.92987 0.39163 0.0
O65 O 0.95969 0.93963 0.39345 0.0
O66 O 0.96795 0.95571 0.36778 0.0
O67 O 0.98364 0.94664 0.36605 0.0
H68 H 0.95512 0.92285 0.36942 0.0
H69 H 0.9433 0.90657 0.36586 0.0
H70 H 0.9462 0.89885 0.41009 0.0
H71 H 0.95823 0.91461 0.41324 0.0
H72 H 0.98601 0.95927 0.45381 0.0
H73 H 0.98083 0.95145 0.43091 0.0
H74 H 0.99918 0.98801 0.43254 0.0
H75 H 0.99464 0.97984 0.41019 0.0
H76 H 0.99419 0.98221 0.33796 0.0
H77 H 0.97301 0.96125 0.31297 0.0
H78 H 0.96898 0.95015 0.33353 0.0
H79 H 0.9902 0.97067 0.35879 0.0
C80 C 0.34277 0.7078 0.63806 0.0
C81 C 0.34659 0.70459 0.62473 0.0
C82 C 0.36164 0.69404 0.63562 0.0
C83 C 0.356 0.69779 0.62353 0.0
C84 C 0.35784 0.69757 0.64883 0.0
C85 C 0.34857 0.70434 0.65 0.0
U86 U 0.31463 0.7258 0.63558 0.0
O87 O 0.30181 0.72386 0.65189 0.0
O88 O 0.31184 0.73923 0.65096 0.0
C89 C 0.30415 0.7335 0.65744 0.0
C90 C 0.33274 0.71451 0.64041 0.0
C91 C 0.29813 0.73784 0.66969 0.0
C92 C 0.29759 0.74195 0.6947 0.0
C93 C 0.30349 0.73884 0.68268 0.0
C94 C 0.28095 0.74347 0.68076 0.0
C95 C 0.2862 0.74417 0.69394 0.0
C96 C 0.28684 0.74026 0.66877 0.0
C97 C 0.30065 0.73157 0.59767 0.0
C98 C 0.28327 0.73667 0.58656 0.0
C99 C 0.29922 0.73249 0.57225 0.0
C100 C 0.30541 0.73058 0.58436 0.0
C101 C 0.28799 0.73537 0.57308 0.0
C102 C 0.28954 0.73475 0.59878 0.0
C103 C 0.30752 0.72837 0.60979 0.0
O104 O 0.33279 0.72515 0.63778 0.0
O105 O 0.32295 0.70989 0.63959 0.0
O106 O 0.3044 0.72015 0.61787 0.0
O107 O 0.31402 0.7356 0.61595 0.0
H108 H 0.34224 0.70719 0.61535 0.0
H109 H 0.35867 0.69521 0.61318 0.0
H110 H 0.36205 0.69509 0.65837 0.0
H111 H 0.34582 0.70679 0.66038 0.0
H112 H 0.30191 0.74226 0.70467 0.0
H113 H 0.31219 0.73689 0.68361 0.0
H114 H 0.27224 0.7453 0.6797 0.0
H115 H 0.28256 0.73955 0.65881 0.0
H116 H 0.27464 0.7388 0.58771 0.0
H117 H 0.30333 0.73169 0.5622 0.0
H118 H 0.31397 0.72812 0.58328 0.0
H119 H 0.28568 0.73551 0.60899 0.0
C120 C 0.5523 0.09274 0.88931 0.0
C121 C 0.55945 0.09348 0.8777 0.0
C122 C 0.56637 0.11149 0.88586 0.0
C123 C 0.56637 0.10277 0.87597 0.0
C124 C 0.55887 0.11078 0.89714 0.0
C125 C 0.55201 0.10157 0.89882 0.0
U126 U 0.53555 0.06456 0.88473 0.0
O127 O 0.53675 0.05026 0.89895 0.0
O128 O 0.52108 0.05932 0.89727 0.0
C129 C 0.5264 0.05098 0.90297 0.0
C130 C 0.54586 0.08265 0.89293 0.0
C131 C 0.52349 0.04749 0.91745 0.0
C132 C 0.5277 0.04483 0.9423 0.0
C133 C 0.53016 0.04968 0.92922 0.0
C134 C 0.51172 0.03592 0.93213 0.0
C135 C 0.51851 0.03779 0.94384 0.0
C136 C 0.51421 0.04068 0.91911 0.0
C137 C 0.53181 0.05276 0.84574 0.0
C138 C 0.52195 0.03772 0.83417 0.0
C139 C 0.53501 0.04877 0.82106 0.0
C140 C 0.5371 0.05506 0.83302 0.0
C141 C 0.52754 0.03991 0.82146 0.0
C142 C 0.5241 0.04409 0.84629 0.0
C143 C 0.53477 0.05986 0.85778 0.0
O144 O 0.53527 0.08238 0.88992 0.0
O145 O 0.55072 0.07301 0.89161 0.0
O146 O 0.54283 0.05664 0.86607 0.0
O147 O 0.52698 0.06544 0.86427 0.0
H148 H 0.55992 0.08677 0.8702 0.0
H149 H 0.57202 0.10288 0.86716 0.0
H150 H 0.55827 0.11733 0.90482 0.0
H151 H 0.54661 0.10123 0.90788 0.0
H152 H 0.53305 0.04647 0.95119 0.0
H153 H 0.5374 0.05486 0.92822 0.0
H154 H 0.50466 0.03047 0.93292 0.0
H155 H 0.50903 0.03874 0.91016 0.0
H156 H 0.51616 0.03093 0.83483 0.0
H157 H 0.53928 0.05089 0.81144 0.0
H158 H 0.54298 0.06178 0.83231 0.0
H159 H 0.51986 0.0422 0.85601 0.0
C160 C 0.17246 0.70876 0.37634 0.0
C161 C 0.17002 0.70457 0.38978 0.0
C162 C 0.15393 0.6948 0.38033 0.0
C163 C 0.16075 0.69767 0.39177 0.0
C164 C 0.15634 0.69916 0.36705 0.0
C165 C 0.16544 0.7061 0.36512 0.0
U166 U 0.20007 0.72612 0.38183 0.0
O167 O 0.21476 0.72523 0.36822 0.0
O168 O 0.20505 0.74058 0.36915 0.0
C169 C 0.21377 0.73552 0.36403 0.0
C170 C 0.18243 0.71541 0.37303 0.0
C171 C 0.21788 0.73855 0.34991 0.0
C172 C 0.21713 0.73905 0.32429 0.0
C173 C 0.21236 0.73613 0.3373 0.0
C174 C 0.23289 0.74666 0.33647 0.0
C175 C 0.22757 0.74432 0.32364 0.0
C176 C 0.22808 0.74391 0.3493 0.0
C177 C 0.21138 0.73069 0.42066 0.0
C178 C 0.22904 0.73575 0.4311 0.0
C179 C 0.21317 0.73258 0.44599 0.0
C180 C 0.20677 0.7304 0.43413 0.0
C181 C 0.22443 0.73522 0.44472 0.0
C182 C 0.22258 0.73347 0.41915 0.0
C183 C 0.20428 0.72709 0.40891 0.0
O184 O 0.18238 0.72598 0.37615 0.0
O185 O 0.19214 0.71075 0.37468 0.0
O186 O 0.20794 0.71918 0.4007 0.0
O187 O 0.19838 0.73457 0.40229 0.0
H188 H 0.17533 0.70646 0.39861 0.0
H189 H 0.15908 0.69434 0.40211 0.0
H190 H 0.15125 0.69708 0.35808 0.0
H191 H 0.16714 0.70921 0.35467 0.0
H192 H 0.21256 0.73721 0.31481 0.0
H193 H 0.20443 0.732 0.3375 0.0
H194 H 0.24101 0.75034 0.33678 0.0
H195 H 0.23252 0.74581 0.3589 0.0
H196 H 0.23764 0.7379 0.42966 0.0
H197 H 0.20932 0.73183 0.4562 0.0
H198 H 0.19818 0.72815 0.43554 0.0
H199 H 0.22633 0.7337 0.40883 0.0
C200 C 0.55257 0.91949 0.62589 0.0
C201 C 0.55618 0.91634 0.63937 0.0
C202 C 0.56661 0.90079 0.62934 0.0
C203 C 0.5631 0.90703 0.64108 0.0
C204 C 0.56268 0.90392 0.61601 0.0
C205 C 0.5558 0.91309 0.61435 0.0
U206 U 0.53535 0.94734 0.63146 0.0
O207 O 0.53624 0.96171 0.61734 0.0
O208 O 0.52072 0.95239 0.61907 0.0
C209 C 0.52588 0.96083 0.61341 0.0
C210 C 0.54582 0.92947 0.62289 0.0
C211 C 0.52286 0.96433 0.599 0.0
C212 C 0.52643 0.96628 0.57391 0.0
C213 C 0.52903 0.96156 0.58703 0.0
C214 C 0.51148 0.97647 0.58463 0.0
C215 C 0.5177 0.97397 0.57256 0.0
C216 C 0.514 0.97167 0.59759 0.0
C217 C 0.53172 0.95917 0.67036 0.0
C218 C 0.52216 0.97458 0.68153 0.0
C219 C 0.53443 0.96301 0.69517 0.0
C220 C 0.53659 0.95666 0.68329 0.0
C221 C 0.52733 0.97216 0.69448 0.0
C222 C 0.52437 0.96814 0.6695 0.0
C223 C 0.53477 0.95202 0.65841 0.0
O224 O 0.53532 0.92951 0.62641 0.0
O225 O 0.55055 0.93918 0.62412 0.0
O226 O 0.5427 0.95535 0.65001 0.0
O227 O 0.52702 0.9463 0.65204 0.0
H228 H 0.55381 0.92114 0.64848 0.0
H229 H 0.56597 0.90492 0.65152 0.0
H230 H 0.56493 0.89926 0.60674 0.0
H231 H 0.55309 0.91528 0.60386 0.0
H232 H 0.53132 0.96395 0.56488 0.0
H233 H 0.53595 0.95594 0.58785 0.0
H234 H 0.50487 0.98247 0.58429 0.0
H235 H 0.5092 0.97404 0.60672 0.0
H236 H 0.51666 0.98159 0.68062 0.0
H237 H 0.53836 0.96071 0.70496 0.0
H238 H 0.54219 0.94972 0.68423 0.0
H239 H 0.52047 0.9702 0.6596 0.0
C240 C 0.34267 0.30371 0.87766 0.0
C241 C 0.34595 0.30731 0.89107 0.0
C242 C 0.36136 0.31747 0.88065 0.0
C243 C 0.35532 0.31411 0.89255 0.0
C244 C 0.35809 0.31369 0.86737 0.0
C245 C 0.34891 0.30683 0.86593 0.0
U246 U 0.31449 0.28595 0.87965 0.0
O247 O 0.30178 0.28816 0.8632 0.0
O248 O 0.3114 0.27254 0.86437 0.0
C249 C 0.3036 0.27825 0.85809 0.0
C250 C 0.33266 0.29711 0.87496 0.0
C251 C 0.29822 0.27434 0.84513 0.0
C252 C 0.29716 0.27298 0.81969 0.0
C253 C 0.30285 0.27619 0.83185 0.0
C254 C 0.28225 0.26589 0.83399 0.0
C255 C 0.28667 0.26794 0.82056 0.0
C256 C 0.28797 0.26907 0.84611 0.0
C257 C 0.30063 0.28007 0.91767 0.0
C258 C 0.28324 0.27552 0.92906 0.0
C259 C 0.29957 0.27869 0.94312 0.0
C260 C 0.30566 0.28054 0.9309 0.0
C261 C 0.28825 0.27622 0.94244 0.0
C262 C 0.28937 0.27748 0.91676 0.0
C263 C 0.3074 0.28323 0.90542 0.0
O264 O 0.33265 0.28643 0.87739 0.0
O265 O 0.32291 0.3018 0.87589 0.0
O266 O 0.30428 0.2915 0.89742 0.0
O267 O 0.31387 0.27602 0.8992 0.0
H268 H 0.34122 0.30502 0.90027 0.0
H269 H 0.35767 0.317 0.9029 0.0
H270 H 0.36259 0.31615 0.85805 0.0
H271 H 0.34652 0.30414 0.8555 0.0
H272 H 0.301 0.27447 0.8096 0.0
H273 H 0.31079 0.28023 0.83088 0.0
H274 H 0.27419 0.26217 0.83519 0.0
H275 H 0.28426 0.2676 0.8563 0.0
H276 H 0.27457 0.27348 0.92807 0.0
H277 H 0.30373 0.27954 0.95314 0.0
H278 H 0.31432 0.28267 0.93184 0.0
H279 H 0.28531 0.27711 0.90663 0.0
C280 C 0.95755 0.09352 0.13051 0.0
C281 C 0.95422 0.09713 0.1439 0.0
C282 C 0.94363 0.11222 0.13325 0.0
C283 C 0.94736 0.10649 0.14525 0.0
C284 C 0.94714 0.10861 0.11998 0.0
C285 C 0.95406 0.09944 0.11866 0.0
U286 U 0.97545 0.06527 0.13268 0.0
O287 O 0.97323 0.05254 0.11625 0.0
O288 O 0.98878 0.06227 0.11725 0.0
C289 C 0.98294 0.05467 0.11076 0.0
C290 C 0.96427 0.0835 0.12801 0.0
C291 C 0.98717 0.04867 0.09841 0.0
C292 C 0.99011 0.04767 0.07315 0.0
C293 C 0.98697 0.05363 0.08512 0.0
C294 C 0.99411 0.0318 0.08771 0.0
C295 C 0.99365 0.03661 0.07421 0.0
C296 C 0.99082 0.03774 0.09964 0.0
C297 C 0.98076 0.05139 0.17093 0.0
C298 C 0.99085 0.03705 0.18351 0.0
C299 C 0.97705 0.04791 0.19562 0.0
C300 C 0.97502 0.05381 0.18331 0.0
C301 C 0.98487 0.03935 0.1959 0.0
C302 C 0.98879 0.04303 0.17107 0.0
C303 C 0.9779 0.05791 0.15836 0.0
O304 O 0.97491 0.08347 0.13069 0.0
O305 O 0.95962 0.07372 0.1287 0.0
O306 O 0.96947 0.05513 0.15043 0.0
O307 O 0.98532 0.06416 0.15215 0.0
H308 H 0.95679 0.09267 0.15321 0.0
H309 H 0.94471 0.10907 0.15561 0.0
H310 H 0.94443 0.11286 0.11057 0.0
H311 H 0.95653 0.09682 0.10823 0.0
H312 H 0.9894 0.05169 0.06304 0.0
H313 H 0.98408 0.06204 0.08394 0.0
H314 H 0.99701 0.02342 0.08912 0.0
H315 H 0.99105 0.03376 0.10984 0.0
H316 H 0.9969 0.03048 0.18333 0.0
H317 H 0.97246 0.05011 0.20497 0.0
H318 H 0.96887 0.06031 0.18346 0.0
H319 H 0.99334 0.04106 0.16161 0.0
C320 C 0.84361 0.71113 0.87952 0.0
C321 C 0.84546 0.70534 0.89208 0.0
C322 C 0.86203 0.69669 0.88203 0.0
C323 C 0.85462 0.69822 0.89334 0.0
C324 C 0.86012 0.70271 0.86961 0.0
C325 C 0.85109 0.70982 0.86842 0.0
U326 U 0.81538 0.72909 0.88099 0.0
O327 O 0.8126 0.7423 0.8653 0.0
O328 O 0.80289 0.72673 0.86433 0.0
C329 C 0.80512 0.73638 0.85872 0.0
C330 C 0.83365 0.71789 0.87683 0.0
C331 C 0.79925 0.7405 0.84622 0.0
C332 C 0.79885 0.74389 0.82106 0.0
C333 C 0.80459 0.74082 0.83323 0.0
C334 C 0.78232 0.74649 0.83484 0.0
C335 C 0.78748 0.74661 0.82147 0.0
C336 C 0.78813 0.74349 0.84699 0.0
C337 C 0.80094 0.7345 0.9189 0.0
C338 C 0.78709 0.74512 0.93164 0.0
C339 C 0.79631 0.72981 0.943 0.0
C340 C 0.80245 0.72795 0.93086 0.0
C341 C 0.7884 0.73828 0.94353 0.0
C342 C 0.79331 0.74323 0.91937 0.0
C343 C 0.80757 0.7317 0.9064 0.0
O344 O 0.82387 0.71326 0.87749 0.0
O345 O 0.83364 0.72857 0.87929 0.0
O346 O 0.81388 0.73912 0.90029 0.0
O347 O 0.80501 0.72316 0.89853 0.0
H348 H 0.83977 0.70618 0.90079 0.0
H349 H 0.85584 0.69389 0.90317 0.0
H350 H 0.8654 0.70168 0.86053 0.0
H351 H 0.84976 0.71411 0.85857 0.0
H352 H 0.80357 0.74409 0.81147 0.0
H353 H 0.81321 0.73853 0.83243 0.0
H354 H 0.77369 0.74833 0.83619 0.0
H355 H 0.78384 0.74328 0.85698 0.0
H356 H 0.78105 0.75171 0.93169 0.0
H357 H 0.79776 0.72454 0.95201 0.0
H358 H 0.8084 0.72126 0.93078 0.0
H359 H 0.79206 0.74843 0.91025 0.0
C360 C 0.05288 0.09492 0.63008 0.0
C361 C 0.05384 0.1008 0.64275 0.0
C362 C 0.06702 0.11357 0.6318 0.0
C363 C 0.06085 0.11009 0.64359 0.0
C364 C 0.06571 0.10775 0.61913 0.0
C365 C 0.05876 0.09858 0.61831 0.0
U366 U 0.03408 0.06716 0.63261 0.0
O367 O 0.02103 0.06456 0.61664 0.0
O368 O 0.03624 0.05427 0.6164 0.0
C369 C 0.02679 0.05675 0.61043 0.0
C370 C 0.04592 0.08497 0.6283 0.0
C371 C 0.02267 0.05076 0.59801 0.0
C372 C 0.0192 0.05023 0.57283 0.0
C373 C 0.02203 0.05611 0.58499 0.0
C374 C 0.01726 0.03359 0.58666 0.0
C375 C 0.01689 0.03884 0.57343 0.0
C376 C 0.02017 0.03948 0.59879 0.0
C377 C 0.02772 0.05329 0.67056 0.0
C378 C 0.02096 0.03654 0.68183 0.0
C379 C 0.0283 0.05142 0.69597 0.0
C380 C 0.03023 0.05757 0.68383 0.0
C381 C 0.02384 0.04072 0.6952 0.0
C382 C 0.02293 0.04277 0.66958 0.0
C383 C 0.03097 0.05994 0.65825 0.0
O384 O 0.05028 0.07506 0.62899 0.0
O385 O 0.03525 0.08532 0.63074 0.0
O386 O 0.02387 0.06649 0.65192 0.0
O387 O 0.03933 0.0568 0.65043 0.0
H388 H 0.04932 0.09816 0.65197 0.0
H389 H 0.06165 0.11437 0.65353 0.0
H390 H 0.07009 0.11028 0.60975 0.0
H391 H 0.05804 0.09427 0.60838 0.0
H392 H 0.01884 0.05466 0.56295 0.0
H393 H 0.02399 0.06481 0.58415 0.0
H394 H 0.01568 0.02483 0.58761 0.0
H395 H 0.0207 0.03517 0.60875 0.0
H396 H 0.01756 0.02832 0.68076 0.0
H397 H 0.03038 0.0551 0.706 0.0
H398 H 0.03391 0.06569 0.68482 0.0
H399 H 0.02095 0.03929 0.6594 0.0
C400 C 0.66789 0.30203 0.38123 0.0
C401 C 0.66205 0.30298 0.39392 0.0
C402 C 0.64933 0.31631 0.38312 0.0
C403 C 0.6528 0.31005 0.39485 0.0
C404 C 0.65511 0.31503 0.37043 0.0
C405 C 0.66424 0.30801 0.36952 0.0
U406 U 0.69583 0.28333 0.38297 0.0
O407 O 0.69836 0.2702 0.36711 0.0
O408 O 0.70812 0.28573 0.36605 0.0
C409 C 0.70575 0.27614 0.36039 0.0
C410 C 0.67786 0.2951 0.37944 0.0
C411 C 0.71153 0.27198 0.34782 0.0
C412 C 0.71303 0.27138 0.32236 0.0
C413 C 0.70727 0.27438 0.3345 0.0
C414 C 0.72736 0.2632 0.3367 0.0
C415 C 0.72326 0.2659 0.32325 0.0
C416 C 0.72157 0.26625 0.34889 0.0
C417 C 0.71032 0.2774 0.42077 0.0
C418 C 0.72617 0.2692 0.43258 0.0
C419 C 0.71286 0.27978 0.4459 0.0
C420 C 0.70678 0.28161 0.43368 0.0
C421 C 0.72278 0.27374 0.44555 0.0
C422 C 0.71999 0.27104 0.42026 0.0
C423 C 0.70382 0.28032 0.40822 0.0
O424 O 0.68776 0.2995 0.37969 0.0
O425 O 0.67762 0.28442 0.38186 0.0
O426 O 0.69717 0.27315 0.40221 0.0
O427 O 0.70664 0.28875 0.40033 0.0
H428 H 0.66469 0.29841 0.40311 0.0
H429 H 0.64857 0.31084 0.40482 0.0
H430 H 0.6526 0.31948 0.36109 0.0
H431 H 0.66854 0.30733 0.35957 0.0
H432 H 0.70947 0.27342 0.31225 0.0
H433 H 0.69953 0.27879 0.33348 0.0
H434 H 0.73523 0.25906 0.33784 0.0
H435 H 0.72503 0.26435 0.3591 0.0
H436 H 0.73378 0.26455 0.43181 0.0
H437 H 0.70974 0.28315 0.45566 0.0
H438 H 0.69929 0.28649 0.43431 0.0
H439 H 0.72287 0.2677 0.41036 0.0
C440 C 0.46208 0.91773 0.12847 0.0
C441 C 0.45855 0.91427 0.14186 0.0
C442 C 0.44763 0.8992 0.13133 0.0
C443 C 0.45143 0.90507 0.14327 0.0
C444 C 0.45154 0.90261 0.1181 0.0
C445 C 0.45858 0.91169 0.11672 0.0
U446 U 0.47984 0.94544 0.13403 0.0
O447 O 0.49393 0.95037 0.12065 0.0
O448 O 0.47857 0.96008 0.12033 0.0
C449 C 0.48875 0.95909 0.11573 0.0
C450 C 0.46896 0.9277 0.12576 0.0
C451 C 0.49152 0.96345 0.10161 0.0
C452 C 0.49358 0.9622 0.07612 0.0
C453 C 0.49094 0.95725 0.08913 0.0
C454 C 0.49741 0.97943 0.08799 0.0
C455 C 0.49669 0.9734 0.07546 0.0
C456 C 0.49492 0.9745 0.10087 0.0
C457 C 0.4841 0.95753 0.17278 0.0
C458 C 0.49466 0.9722 0.18413 0.0
C459 C 0.48058 0.96245 0.19712 0.0
C460 C 0.47836 0.95598 0.18536 0.0
C461 C 0.48879 0.97067 0.19685 0.0
C462 C 0.49231 0.9657 0.17217 0.0
C463 C 0.481 0.95021 0.16096 0.0
O464 O 0.46437 0.93746 0.12722 0.0
O465 O 0.47951 0.92758 0.12902 0.0
O466 O 0.48871 0.94462 0.15432 0.0
O467 O 0.47279 0.95331 0.15286 0.0
H468 H 0.46111 0.91877 0.15113 0.0
H469 H 0.44864 0.90279 0.15367 0.0
H470 H 0.44918 0.89824 0.10864 0.0
H471 H 0.46123 0.91411 0.10629 0.0
H472 H 0.49294 0.95737 0.06657 0.0
H473 H 0.48838 0.94869 0.08943 0.0
H474 H 0.49986 0.98803 0.08781 0.0
H475 H 0.49553 0.97942 0.11035 0.0
H476 H 0.50115 0.9783 0.18338 0.0
H477 H 0.47554 0.96109 0.20633 0.0
H478 H 0.47197 0.94974 0.18608 0.0
H479 H 0.4969 0.96703 0.16256 0.0
C480 C 0.84216 0.30021 0.63975 0.0
C481 C 0.84472 0.30474 0.62653 0.0
C482 C 0.86047 0.31479 0.6367 0.0
C483 C 0.85384 0.31192 0.62501 0.0
C484 C 0.85797 0.30988 0.64971 0.0
C485 C 0.84898 0.30276 0.65118 0.0
U486 U 0.81447 0.28269 0.63423 0.0
O487 O 0.80948 0.26828 0.64704 0.0
O488 O 0.80001 0.28376 0.6482 0.0
C489 C 0.80092 0.27347 0.65239 0.0
C490 C 0.83223 0.29338 0.64271 0.0
C491 C 0.79698 0.27051 0.66663 0.0
C492 C 0.79645 0.27235 0.69218 0.0
C493 C 0.80139 0.27485 0.67913 0.0
C494 C 0.78294 0.261 0.68033 0.0
C495 C 0.78697 0.26557 0.69291 0.0
C496 C 0.78785 0.26346 0.66744 0.0
C497 C 0.80264 0.27894 0.59527 0.0
C498 C 0.78848 0.26812 0.5833 0.0
C499 C 0.79755 0.28313 0.57115 0.0
C500 C 0.80393 0.28521 0.58303 0.0
C501 C 0.78964 0.27467 0.57112 0.0
C502 C 0.79492 0.27026 0.59536 0.0
C503 C 0.80983 0.28189 0.60726 0.0
O504 O 0.82249 0.29802 0.64134 0.0
O505 O 0.8323 0.28285 0.63935 0.0
O506 O 0.8154 0.27411 0.61377 0.0
O507 O 0.80663 0.28996 0.61552 0.0
H508 H 0.83958 0.30292 0.61751 0.0
H509 H 0.85545 0.31552 0.6148 0.0
H510 H 0.86296 0.31156 0.65891 0.0
H511 H 0.84722 0.29935 0.66148 0.0
H512 H 0.79982 0.27606 0.7016 0.0
H513 H 0.80845 0.28033 0.67877 0.0
H514 H 0.7759 0.25549 0.68036 0.0
H515 H 0.78433 0.25997 0.65796 0.0
H516 H 0.78243 0.26154 0.5836 0.0
H517 H 0.79883 0.28819 0.56191 0.0
H518 H 0.80993 0.29184 0.58266 0.0
H519 H 0.79383 0.26525 0.60467 0.0
C520 C 0.46186 0.09515 0.38709 0.0
C521 C 0.45783 0.0984 0.37391 0.0
C522 C 0.44779 0.11382 0.38479 0.0
C523 C 0.45089 0.10769 0.37276 0.0
C524 C 0.45204 0.11047 0.39788 0.0
C525 C 0.459 0.10133 0.39897 0.0
U526 U 0.47975 0.0669 0.38533 0.0
O527 O 0.49288 0.06384 0.40107 0.0
O528 O 0.47707 0.05453 0.40203 0.0
C529 C 0.48689 0.0563 0.40743 0.0
C530 C 0.4685 0.0851 0.38939 0.0
C531 C 0.49045 0.05092 0.42056 0.0
C532 C 0.48961 0.0489 0.44594 0.0
C533 C 0.48673 0.05463 0.43368 0.0
C534 C 0.50023 0.0359 0.43216 0.0
C535 C 0.49624 0.03937 0.44532 0.0
C536 C 0.49732 0.04162 0.4199 0.0
C537 C 0.48617 0.05267 0.34759 0.0
C538 C 0.49131 0.03528 0.33657 0.0
C539 C 0.48703 0.05114 0.32212 0.0
C540 C 0.48517 0.05739 0.33422 0.0
C541 C 0.49002 0.03995 0.32306 0.0
C542 C 0.48935 0.04157 0.34874 0.0
C543 C 0.48293 0.0595 0.35977 0.0
O544 O 0.46384 0.07535 0.38837 0.0
O545 O 0.47923 0.08511 0.3873 0.0
O546 O 0.49007 0.06597 0.36611 0.0
O547 O 0.47449 0.05652 0.36756 0.0
H548 H 0.45993 0.09373 0.36458 0.0
H549 H 0.44796 0.11005 0.36244 0.0
H550 H 0.44975 0.11468 0.40747 0.0
H551 H 0.46195 0.09889 0.40927 0.0
H552 H 0.48655 0.05189 0.45594 0.0
H553 H 0.48148 0.06184 0.43442 0.0
H554 H 0.5053 0.02857 0.43129 0.0
H555 H 0.50026 0.03864 0.40984 0.0
H556 H 0.49377 0.02674 0.33776 0.0
H557 H 0.48575 0.05504 0.31201 0.0
H558 H 0.48261 0.06592 0.3331 0.0
H559 H 0.49015 0.03775 0.35898 0.0
C560 C 0.66732 0.71185 0.13838 0.0
C561 C 0.66276 0.70921 0.12524 0.0
C562 C 0.64869 0.69774 0.13668 0.0
C563 C 0.65347 0.70223 0.1244 0.0
C564 C 0.6532 0.70074 0.14974 0.0
C565 C 0.66238 0.70766 0.15055 0.0
U566 U 0.69574 0.72957 0.13629 0.0
O567 O 0.69902 0.74274 0.15193 0.0
O568 O 0.70804 0.72676 0.15303 0.0
C569 C 0.70646 0.73665 0.15833 0.0
C570 C 0.67746 0.71846 0.1402 0.0
C571 C 0.71204 0.74022 0.1713 0.0
C572 C 0.71466 0.7391 0.19658 0.0
C573 C 0.70882 0.73613 0.18445 0.0
C574 C 0.72686 0.75048 0.18258 0.0
C575 C 0.72388 0.74617 0.19578 0.0
C576 C 0.72099 0.74751 0.17047 0.0
C577 C 0.70982 0.73533 0.09822 0.0
C578 C 0.72503 0.74423 0.08591 0.0
C579 C 0.71249 0.73229 0.07323 0.0
C580 C 0.70657 0.73044 0.08557 0.0
C581 C 0.72193 0.73904 0.07322 0.0
C582 C 0.71902 0.74237 0.09835 0.0
C583 C 0.70347 0.7325 0.11091 0.0
O584 O 0.68718 0.71372 0.13951 0.0
O585 O 0.67751 0.72917 0.13793 0.0
O586 O 0.69714 0.73982 0.11715 0.0
O587 O 0.70611 0.7239 0.11862 0.0
H588 H 0.66647 0.71234 0.11569 0.0
H589 H 0.65026 0.70008 0.11414 0.0
H590 H 0.64966 0.69772 0.15945 0.0
H591 H 0.66575 0.70964 0.1608 0.0
H592 H 0.71199 0.73581 0.20659 0.0
H593 H 0.70187 0.73054 0.18531 0.0
H594 H 0.73394 0.75587 0.18154 0.0
H595 H 0.72359 0.75074 0.16038 0.0
H596 H 0.73228 0.74943 0.08635 0.0
H597 H 0.70963 0.72837 0.06368 0.0
H598 H 0.69944 0.72505 0.08524 0.0
H599 H 0.72166 0.74625 0.10804 0.0
C600 C 0.05073 0.91737 0.88827 0.0
C601 C 0.05528 0.91478 0.87507 0.0
C602 C 0.06486 0.89871 0.88516 0.0
C603 C 0.06224 0.90549 0.87352 0.0
C604 C 0.05992 0.90124 0.89815 0.0
C605 C 0.05301 0.9104 0.89964 0.0
U606 U 0.03357 0.94529 0.88279 0.0
O607 O 0.01946 0.95042 0.896 0.0
O608 O 0.03496 0.95991 0.89647 0.0
C609 C 0.02475 0.95904 0.901 0.0
C610 C 0.04416 0.92746 0.89124 0.0
C611 C 0.02208 0.96323 0.91521 0.0
C612 C 0.02172 0.96233 0.94084 0.0
C613 C 0.02409 0.9574 0.92773 0.0
C614 C 0.01509 0.97866 0.9289 0.0
C615 C 0.01738 0.97315 0.94157 0.0
C616 C 0.01745 0.97378 0.91598 0.0
C617 C 0.02887 0.95722 0.84422 0.0
C618 C 0.02192 0.97457 0.83468 0.0
C619 C 0.02884 0.96047 0.81898 0.0
C620 C 0.0311 0.95369 0.83049 0.0
C621 C 0.02435 0.97101 0.82094 0.0
C622 C 0.02412 0.96769 0.8463 0.0
C623 C 0.03233 0.94982 0.85578 0.0
O624 O 0.04893 0.93711 0.88954 0.0
O625 O 0.03357 0.92752 0.8882 0.0
O626 O 0.02474 0.94414 0.8625 0.0
O627 O 0.04048 0.9531 0.86387 0.0
H628 H 0.05365 0.92003 0.86609 0.0
H629 H 0.06587 0.90388 0.86334 0.0
H630 H 0.0614 0.89614 0.9073 0.0
H631 H 0.04958 0.91218 0.90991 0.0
H632 H 0.0236 0.9578 0.95035 0.0
H633 H 0.02763 0.9492 0.92739 0.0
H634 H 0.01145 0.98682 0.92891 0.0
H635 H 0.01571 0.97839 0.90646 0.0
H636 H 0.01846 0.9827 0.83641 0.0
H637 H 0.03087 0.95758 0.80851 0.0
H638 H 0.03483 0.94568 0.82866 0.0
H639 H 0.02235 0.9706 0.85682 0.0
C640 C 0.66988 0.80171 0.64044 0.0
C641 C 0.66747 0.80622 0.62717 0.0
C642 C 0.65097 0.81548 0.63668 0.0
C643 C 0.65809 0.813 0.62531 0.0
C644 C 0.65349 0.81078 0.64984 0.0
C645 C 0.66273 0.804 0.65163 0.0
U646 U 0.69788 0.78478 0.63503 0.0
O647 O 0.71221 0.78573 0.64924 0.0
O648 O 0.703 0.77014 0.64734 0.0
C649 C 0.71141 0.77533 0.65304 0.0
C650 C 0.67992 0.79509 0.64362 0.0
C651 C 0.7151 0.77215 0.66731 0.0
C652 C 0.71697 0.77514 0.69255 0.0
C653 C 0.71206 0.77785 0.67957 0.0
C654 C 0.72771 0.7609 0.68115 0.0
C655 C 0.72507 0.76677 0.69345 0.0
C656 C 0.7228 0.76358 0.66832 0.0
C657 C 0.70993 0.7812 0.59627 0.0
C658 C 0.7251 0.77113 0.58529 0.0
C659 C 0.71443 0.7842 0.57168 0.0
C660 C 0.70791 0.78641 0.5834 0.0
C661 C 0.72314 0.77661 0.57246 0.0
C662 C 0.71856 0.77345 0.5972 0.0
C663 C 0.70262 0.78426 0.60808 0.0
O664 O 0.68007 0.78459 0.64014 0.0
O665 O 0.68958 0.79991 0.64235 0.0
O666 O 0.70585 0.79222 0.6165 0.0
O667 O 0.69693 0.77648 0.61442 0.0
H668 H 0.67286 0.8046 0.61833 0.0
H669 H 0.65644 0.81628 0.61494 0.0
H670 H 0.64852 0.81257 0.659 0.0
H671 H 0.66445 0.80071 0.66199 0.0
H672 H 0.71473 0.7799 0.70174 0.0
H673 H 0.70615 0.78455 0.67905 0.0
H674 H 0.73364 0.75422 0.68136 0.0
H675 H 0.72528 0.75906 0.659 0.0
H676 H 0.73181 0.76526 0.58617 0.0
H677 H 0.71267 0.78848 0.56193 0.0
H678 H 0.70125 0.79234 0.58242 0.0
H679 H 0.72026 0.76929 0.60704 0.0
C680 C 0.45984 0.42004 0.88619 0.0
C681 C 0.45331 0.41892 0.87409 0.0
C682 C 0.44599 0.40133 0.88288 0.0
C683 C 0.44648 0.40961 0.87242 0.0
C684 C 0.45273 0.40253 0.89482 0.0
C685 C 0.45957 0.41172 0.89639 0.0
U686 U 0.47725 0.44838 0.88493 0.0
O687 O 0.47513 0.46093 0.90161 0.0
O688 O 0.49073 0.45129 0.90012 0.0
C689 C 0.48502 0.45894 0.90668 0.0
C690 C 0.46632 0.43003 0.8895 0.0
C691 C 0.48919 0.46434 0.91947 0.0
C692 C 0.492 0.46465 0.94474 0.0
C693 C 0.48875 0.45905 0.93254 0.0
C694 C 0.49644 0.48078 0.93085 0.0
C695 C 0.49574 0.47566 0.94411 0.0
C696 C 0.49316 0.47517 0.91868 0.0
C697 C 0.48252 0.46246 0.84687 0.0
C698 C 0.48978 0.47883 0.83528 0.0
C699 C 0.48133 0.46432 0.82151 0.0
C700 C 0.47943 0.45829 0.83375 0.0
C701 C 0.48652 0.47471 0.82201 0.0
C702 C 0.48775 0.47277 0.84764 0.0
C703 C 0.47966 0.45579 0.85929 0.0
O704 O 0.477 0.4302 0.88705 0.0
O705 O 0.46155 0.43974 0.88872 0.0
O706 O 0.47137 0.45872 0.86738 0.0
O707 O 0.48702 0.44938 0.86534 0.0
H708 H 0.45335 0.42528 0.86609 0.0
H709 H 0.44155 0.40894 0.86297 0.0
H710 H 0.45248 0.39656 0.90328 0.0
H711 H 0.46444 0.41249 0.9059 0.0
H712 H 0.49154 0.46033 0.95468 0.0
H713 H 0.48571 0.45066 0.93335 0.0
H714 H 0.49916 0.48926 0.92989 0.0
H715 H 0.49353 0.47939 0.90865 0.0
H716 H 0.49394 0.4867 0.83617 0.0
H717 H 0.47841 0.46089 0.81169 0.0
H718 H 0.47531 0.45038 0.83296 0.0
H719 H 0.4902 0.47614 0.85771 0.0
C720 C 0.84042 0.21076 0.14158 0.0
C721 C 0.84143 0.20436 0.12932 0.0
C722 C 0.85925 0.19699 0.13748 0.0
C723 C 0.85077 0.19758 0.12728 0.0
C724 C 0.85819 0.20362 0.14956 0.0
C725 C 0.84895 0.2104 0.15152 0.0
U726 U 0.81222 0.22733 0.13699 0.0
O727 O 0.79791 0.2261 0.15118 0.0
O728 O 0.807 0.24178 0.14955 0.0
C729 C 0.79862 0.23647 0.15514 0.0
C730 C 0.83034 0.21713 0.14528 0.0
C731 C 0.79497 0.23945 0.16947 0.0
C732 C 0.7947 0.23739 0.19495 0.0
C733 C 0.79929 0.23473 0.18177 0.0
C734 C 0.78154 0.24945 0.18359 0.0
C735 C 0.78563 0.2447 0.19604 0.0
C736 C 0.78618 0.24691 0.17057 0.0
C737 C 0.80023 0.23126 0.09824 0.0
C738 C 0.78453 0.24065 0.08751 0.0
C739 C 0.79657 0.22932 0.07328 0.0
C740 C 0.80294 0.22694 0.08508 0.0
C741 C 0.78728 0.23625 0.0742 0.0
C742 C 0.79096 0.23817 0.09947 0.0
C743 C 0.80749 0.22812 0.11005 0.0
O744 O 0.83002 0.22771 0.14221 0.0
O745 O 0.82072 0.21222 0.14393 0.0
O746 O 0.80427 0.22007 0.11834 0.0
O747 O 0.81314 0.23585 0.11652 0.0
H748 H 0.83495 0.20445 0.12148 0.0
H749 H 0.85129 0.19277 0.11772 0.0
H750 H 0.86431 0.20333 0.15784 0.0
H751 H 0.84833 0.21515 0.16113 0.0
H752 H 0.79826 0.23367 0.20425 0.0
H753 H 0.80609 0.22894 0.18118 0.0
H754 H 0.77446 0.2549 0.18373 0.0
H755 H 0.78265 0.25057 0.1612 0.0
H756 H 0.77751 0.2461 0.08869 0.0
H757 H 0.79888 0.22547 0.06345 0.0
H758 H 0.81003 0.22155 0.08391 0.0
H759 H 0.78872 0.24163 0.10957 0.0
C760 C 0.05485 0.59197 0.38829 0.0
C761 C 0.06154 0.593 0.37633 0.0
C762 C 0.069 0.61054 0.38518 0.0
C763 C 0.0685 0.60223 0.37475 0.0
C764 C 0.06211 0.60942 0.397 0.0
C765 C 0.05513 0.60032 0.39846 0.0
U766 U 0.03703 0.56382 0.38699 0.0
O767 O 0.03911 0.55121 0.40361 0.0
O768 O 0.02356 0.56094 0.40221 0.0
C769 C 0.02923 0.55322 0.4087 0.0
C770 C 0.04824 0.58203 0.39153 0.0
C771 C 0.02509 0.54775 0.42145 0.0
C772 C 0.02311 0.54679 0.44684 0.0
C773 C 0.02647 0.5525 0.43476 0.0
C774 C 0.01664 0.5317 0.43236 0.0
C775 C 0.01824 0.53624 0.44584 0.0
C776 C 0.02008 0.53739 0.42033 0.0
C777 C 0.03132 0.54996 0.34886 0.0
C778 C 0.02459 0.5334 0.33714 0.0
C779 C 0.03214 0.54844 0.32344 0.0
C780 C 0.03399 0.5544 0.33574 0.0
C781 C 0.02758 0.53777 0.32392 0.0
C782 C 0.02648 0.53944 0.34955 0.0
C783 C 0.03431 0.5565 0.36135 0.0
O784 O 0.03754 0.58201 0.38923 0.0
O785 O 0.05287 0.57225 0.39063 0.0
O786 O 0.04262 0.55345 0.36934 0.0
O787 O 0.02709 0.56302 0.36748 0.0
H788 H 0.06151 0.58662 0.36835 0.0
H789 H 0.07351 0.60281 0.36537 0.0
H790 H 0.06233 0.6154 0.40545 0.0
H791 H 0.05015 0.59963 0.40789 0.0
H792 H 0.02468 0.55054 0.45697 0.0
H793 H 0.03038 0.5605 0.43584 0.0
H794 H 0.01273 0.52374 0.43103 0.0
H795 H 0.01891 0.53361 0.41011 0.0
H796 H 0.02112 0.52519 0.33795 0.0
H797 H 0.03432 0.55223 0.31352 0.0
H798 H 0.0377 0.56252 0.33499 0.0
H799 H 0.02438 0.53585 0.35961 0.0
C800 C 0.6702 0.21061 0.87495 0.0
C801 C 0.66882 0.20421 0.88715 0.0
C802 C 0.65139 0.19657 0.878 0.0
C803 C 0.6595 0.1973 0.88868 0.0
C804 C 0.65275 0.20331 0.86606 0.0
C805 C 0.66198 0.21016 0.86459 0.0
U806 U 0.69821 0.22765 0.8802 0.0
O807 O 0.71264 0.2266 0.86615 0.0
O808 O 0.70329 0.24214 0.86757 0.0
C809 C 0.7118 0.23694 0.86215 0.0
C810 C 0.68032 0.21713 0.87174 0.0
C811 C 0.71581 0.24008 0.84799 0.0
C812 C 0.71696 0.23805 0.8225 0.0
C813 C 0.71195 0.23533 0.83544 0.0
C814 C 0.72947 0.25037 0.83456 0.0
C815 C 0.72597 0.24545 0.82195 0.0
C816 C 0.72447 0.24771 0.84734 0.0
C817 C 0.70983 0.23208 0.9191 0.0
C818 C 0.72632 0.24018 0.92958 0.0
C819 C 0.71257 0.23159 0.94439 0.0
C820 C 0.70623 0.22917 0.93255 0.0
C821 C 0.72273 0.23712 0.94317 0.0
C822 C 0.71992 0.23767 0.91761 0.0
C823 C 0.70274 0.22868 0.90722 0.0
O824 O 0.68044 0.22772 0.87474 0.0
O825 O 0.68998 0.21234 0.87337 0.0
O826 O 0.70623 0.22069 0.89901 0.0
O827 O 0.69693 0.23623 0.90062 0.0
H828 H 0.67505 0.20433 0.89531 0.0
H829 H 0.6589 0.19224 0.89802 0.0
H830 H 0.64667 0.20334 0.85773 0.0
H831 H 0.66282 0.215 0.85506 0.0
H832 H 0.71402 0.23405 0.81304 0.0
H833 H 0.70528 0.22939 0.83566 0.0
H834 H 0.73616 0.25629 0.83463 0.0
H835 H 0.72758 0.2515 0.85687 0.0
H836 H 0.73403 0.24456 0.92818 0.0
H837 H 0.70956 0.22881 0.9545 0.0
H838 H 0.69851 0.2248 0.93393 0.0
H839 H 0.72287 0.24001 0.90729 0.0
C840 C 0.05516 0.42056 0.13038 0.0
C841 C 0.05833 0.41695 0.14381 0.0
C842 C 0.06882 0.40159 0.13339 0.0
C843 C 0.06506 0.40751 0.1453 0.0
C844 C 0.0655 0.40538 0.12005 0.0
C845 C 0.05874 0.41464 0.11862 0.0
U846 U 0.03721 0.44866 0.13251 0.0
O847 O 0.03924 0.4613 0.11596 0.0
O848 O 0.0236 0.45176 0.11744 0.0
C849 C 0.0293 0.45946 0.11097 0.0
C850 C 0.04847 0.43054 0.12771 0.0
C851 C 0.02523 0.46502 0.09819 0.0
C852 C 0.02476 0.46711 0.07279 0.0
C853 C 0.02821 0.46133 0.08478 0.0
C854 C 0.01507 0.48019 0.0875 0.0
C855 C 0.0182 0.47671 0.07393 0.0
C856 C 0.01858 0.47442 0.09946 0.0
C857 C 0.03133 0.46255 0.17046 0.0
C858 C 0.02735 0.48017 0.18167 0.0
C859 C 0.02941 0.46373 0.19587 0.0
C860 C 0.03131 0.45754 0.18373 0.0
C861 C 0.02752 0.47514 0.19503 0.0
C862 C 0.02923 0.47392 0.16945 0.0
C863 C 0.03459 0.45566 0.15836 0.0
O864 O 0.0378 0.4305 0.13022 0.0
O865 O 0.05309 0.44032 0.12859 0.0
O866 O 0.04278 0.45886 0.15028 0.0
O867 O 0.0274 0.44915 0.15216 0.0
H868 H 0.05565 0.42139 0.15307 0.0
H869 H 0.06724 0.40486 0.1558 0.0
H870 H 0.06833 0.40142 0.11053 0.0
H871 H 0.05645 0.41733 0.10815 0.0
H872 H 0.02758 0.46419 0.06267 0.0
H873 H 0.03337 0.45409 0.08357 0.0
H874 H 0.00986 0.48735 0.08896 0.0
H875 H 0.01617 0.47738 0.10976 0.0
H876 H 0.02584 0.48895 0.18071 0.0
H877 H 0.02975 0.45962 0.20598 0.0
H878 H 0.03306 0.4488 0.18476 0.0
H879 H 0.02926 0.47798 0.15931 0.0
C880 C 0.84019 0.80219 0.37662 0.0
C881 C 0.84337 0.80584 0.39007 0.0
C882 C 0.8588 0.81634 0.3799 0.0
C883 C 0.85264 0.81281 0.3917 0.0
C884 C 0.85565 0.81238 0.3666 0.0
C885 C 0.84652 0.80544 0.36502 0.0
U886 U 0.81248 0.78481 0.3824 0.0
O887 O 0.79803 0.78566 0.36839 0.0
O888 O 0.80748 0.77021 0.36996 0.0
C889 C 0.79899 0.77533 0.36436 0.0
C890 C 0.83022 0.79541 0.37371 0.0
C891 C 0.79557 0.77242 0.3499 0.0
C892 C 0.79398 0.776 0.32476 0.0
C893 C 0.7986 0.77853 0.33797 0.0
C894 C 0.78341 0.76126 0.33531 0.0
C895 C 0.78617 0.76741 0.32328 0.0
C896 C 0.78808 0.7637 0.34836 0.0
C897 C 0.80096 0.78092 0.42144 0.0
C898 C 0.78492 0.77241 0.43253 0.0
C899 C 0.79802 0.78268 0.44658 0.0
C900 C 0.80427 0.78481 0.43461 0.0
C901 C 0.78814 0.77663 0.44576 0.0
C902 C 0.79128 0.77457 0.42041 0.0
C903 C 0.80795 0.78409 0.40938 0.0
O904 O 0.83027 0.7849 0.37717 0.0
O905 O 0.8205 0.80009 0.37508 0.0
O906 O 0.80446 0.79199 0.40104 0.0
O907 O 0.81373 0.77643 0.40294 0.0
H908 H 0.83862 0.80345 0.39921 0.0
H909 H 0.85479 0.8157 0.40211 0.0
H910 H 0.86025 0.81468 0.3573 0.0
H911 H 0.84429 0.8027 0.35455 0.0
H912 H 0.7965 0.78084 0.31576 0.0
H913 H 0.80435 0.78533 0.33889 0.0
H914 H 0.7773 0.75475 0.33484 0.0
H915 H 0.78551 0.75896 0.35745 0.0
H916 H 0.77735 0.76774 0.43146 0.0
H917 H 0.801 0.78581 0.45654 0.0
H918 H 0.81176 0.78964 0.43566 0.0
H919 H 0.78858 0.77145 0.41032 0.0
C920 C 0.46031 0.59095 0.62559 0.0
C921 C 0.45532 0.59286 0.6387 0.0
C922 C 0.4467 0.60989 0.62978 0.0
C923 C 0.44861 0.60226 0.64078 0.0
C924 C 0.4519 0.60789 0.6168 0.0
C925 C 0.4586 0.59863 0.61479 0.0
U926 U 0.47684 0.5628 0.63069 0.0
O927 O 0.47575 0.54843 0.61659 0.0
O928 O 0.49144 0.55745 0.61846 0.0
C929 C 0.48614 0.54913 0.6127 0.0
C930 C 0.46675 0.58088 0.6221 0.0
C931 C 0.4891 0.54571 0.59823 0.0
C932 C 0.48476 0.54272 0.57348 0.0
C933 C 0.48227 0.54761 0.58652 0.0
C934 C 0.50107 0.53435 0.58356 0.0
C935 C 0.49411 0.53589 0.57192 0.0
C936 C 0.49856 0.53916 0.59653 0.0
C937 C 0.48031 0.55096 0.66952 0.0
C938 C 0.49 0.53556 0.68046 0.0
C939 C 0.47784 0.54704 0.69434 0.0
C940 C 0.47553 0.5534 0.68251 0.0
C941 C 0.48514 0.53803 0.69359 0.0
C942 C 0.4876 0.54198 0.66849 0.0
C943 C 0.47729 0.55821 0.65767 0.0
O944 O 0.47727 0.58058 0.62546 0.0
O945 O 0.46181 0.57128 0.62337 0.0
O946 O 0.46932 0.55497 0.64925 0.0
O947 O 0.48512 0.56381 0.6513 0.0
H948 H 0.45648 0.58705 0.64723 0.0
H949 H 0.44493 0.6035 0.65102 0.0
H950 H 0.45054 0.61329 0.60791 0.0
H951 H 0.46227 0.5973 0.60455 0.0
H952 H 0.47928 0.54413 0.56467 0.0
H953 H 0.47489 0.55258 0.58756 0.0
H954 H 0.50825 0.52906 0.58279 0.0
H955 H 0.50387 0.53745 0.60544 0.0
H956 H 0.49575 0.52877 0.67944 0.0
H957 H 0.47366 0.54912 0.70403 0.0
H958 H 0.46986 0.56028 0.68352 0.0
H959 H 0.49143 0.53997 0.65853 0.0
C960 C 0.34423 0.21244 0.38102 0.0
C961 C 0.34801 0.20882 0.39418 0.0
C962 C 0.36268 0.19809 0.38279 0.0
C963 C 0.35721 0.20172 0.39506 0.0
C964 C 0.35895 0.20209 0.36975 0.0
C965 C 0.34986 0.20912 0.3689 0.0
U966 U 0.31608 0.23056 0.38291 0.0
O967 O 0.31332 0.24378 0.36727 0.0
O968 O 0.30379 0.22811 0.366 0.0
C969 C 0.30581 0.2379 0.36069 0.0
C970 C 0.33422 0.21921 0.37907 0.0
C971 C 0.30032 0.24187 0.34785 0.0
C972 C 0.29905 0.24271 0.32242 0.0
C973 C 0.3048 0.23967 0.33458 0.0
C974 C 0.28442 0.25044 0.33667 0.0
C975 C 0.2887 0.24796 0.32327 0.0
C976 C 0.29019 0.24738 0.34883 0.0
C977 C 0.30171 0.23612 0.42085 0.0
C978 C 0.28587 0.24411 0.43285 0.0
C979 C 0.29936 0.23358 0.44597 0.0
C980 C 0.30538 0.23187 0.43369 0.0
C981 C 0.2894 0.23955 0.44574 0.0
C982 C 0.29197 0.24239 0.42046 0.0
C983 C 0.30816 0.23335 0.40822 0.0
O984 O 0.32442 0.2146 0.37961 0.0
O985 O 0.3343 0.22989 0.3815 0.0
O986 O 0.31469 0.24063 0.40223 0.0
O987 O 0.30541 0.22491 0.40029 0.0
H988 H 0.34376 0.21128 0.40368 0.0
H989 H 0.3598 0.1988 0.4053 0.0
H990 H 0.36305 0.19976 0.36008 0.0
H991 H 0.3471 0.21187 0.35864 0.0
H992 H 0.30273 0.24088 0.31232 0.0
H993 H 0.31264 0.23545 0.33362 0.0
H994 H 0.27646 0.25439 0.33778 0.0
H995 H 0.2866 0.2491 0.35903 0.0
H996 H 0.27822 0.24871 0.43221 0.0
H997 H 0.30255 0.23017 0.45568 0.0
H998 H 0.31292 0.22706 0.43421 0.0
H999 H 0.289 0.24574 0.41061 0.0
C1000 C 0.55032 0.59419 0.13217 0.0
C1001 C 0.55494 0.597 0.14521 0.0
C1002 C 0.56421 0.61298 0.13456 0.0
C1003 C 0.56178 0.60635 0.14641 0.0
C1004 C 0.55936 0.6101 0.12163 0.0
C1005 C 0.5525 0.60088 0.12051 0.0
U1006 U 0.53256 0.56596 0.13439 0.0
O1007 O 0.51943 0.56293 0.11874 0.0
O1008 O 0.53498 0.55317 0.11806 0.0
C1009 C 0.52525 0.55518 0.11254 0.0
C1010 C 0.54372 0.58414 0.12975 0.0
C1011 C 0.52134 0.54968 0.09967 0.0
C1012 C 0.51883 0.54931 0.07434 0.0
C1013 C 0.52161 0.55504 0.08663 0.0
C1014 C 0.51515 0.5329 0.08807 0.0
C1015 C 0.51571 0.5381 0.07486 0.0
C1016 C 0.518 0.53863 0.10032 0.0
C1017 C 0.52656 0.55191 0.17228 0.0
C1018 C 0.52181 0.53441 0.18331 0.0
C1019 C 0.52559 0.55041 0.19775 0.0
C1020 C 0.5274 0.55667 0.18565 0.0
C1021 C 0.5229 0.53915 0.19678 0.0
C1022 C 0.52365 0.54074 0.17113 0.0
C1023 C 0.52975 0.5588 0.16014 0.0
O1024 O 0.54842 0.5744 0.13083 0.0
O1025 O 0.53303 0.58413 0.13209 0.0
O1026 O 0.5225 0.5652 0.15383 0.0
O1027 O 0.53809 0.55578 0.15222 0.0
H1028 H 0.55335 0.59194 0.15438 0.0
H1029 H 0.56517 0.60835 0.15662 0.0
H1030 H 0.56111 0.61473 0.11218 0.0
H1031 H 0.54908 0.59881 0.11032 0.0
H1032 H 0.51917 0.55366 0.06441 0.0
H1033 H 0.52419 0.56358 0.08592 0.0
H1034 H 0.5129 0.52428 0.08893 0.0
H1035 H 0.5178 0.53434 0.11031 0.0
H1036 H 0.51962 0.52579 0.18218 0.0
H1037 H 0.52666 0.55432 0.20789 0.0
H1038 H 0.52976 0.56526 0.18677 0.0
H1039 H 0.52299 0.53688 0.1609 0.0
C1040 C 0.16893 0.80012 0.87888 0.0
C1041 C 0.16429 0.80247 0.89205 0.0
C1042 C 0.14997 0.81391 0.88087 0.0
C1043 C 0.15488 0.80928 0.89303 0.0
C1044 C 0.15472 0.81134 0.86777 0.0
C1045 C 0.16399 0.80453 0.86683 0.0
U1046 U 0.19698 0.78184 0.88151 0.0
O1047 O 0.19969 0.76862 0.8658 0.0
O1048 O 0.20977 0.78396 0.8652 0.0
C1049 C 0.20739 0.77441 0.85943 0.0
C1050 C 0.17894 0.7933 0.8769 0.0
C1051 C 0.2134 0.77022 0.84707 0.0
C1052 C 0.21356 0.76526 0.82229 0.0
C1053 C 0.20774 0.76797 0.83454 0.0
C1054 C 0.23073 0.76645 0.83517 0.0
C1055 C 0.22518 0.76459 0.82236 0.0
C1056 C 0.22492 0.76937 0.84733 0.0
C1057 C 0.21106 0.77635 0.91959 0.0
C1058 C 0.22712 0.76843 0.93128 0.0
C1059 C 0.21358 0.77858 0.94476 0.0
C1060 C 0.20745 0.78037 0.93257 0.0
C1061 C 0.22363 0.77276 0.94433 0.0
C1062 C 0.22089 0.77023 0.91898 0.0
C1063 C 0.2044 0.77925 0.90714 0.0
O1064 O 0.18877 0.79783 0.87756 0.0
O1065 O 0.1788 0.78266 0.87962 0.0
O1066 O 0.198 0.77192 0.901 0.0
O1067 O 0.20729 0.78761 0.89915 0.0
H1068 H 0.16793 0.7991 0.90152 0.0
H1069 H 0.15145 0.81084 0.90333 0.0
H1070 H 0.1515 0.81482 0.85814 0.0
H1071 H 0.16745 0.80284 0.85654 0.0
H1072 H 0.20892 0.76408 0.81268 0.0
H1073 H 0.19884 0.76873 0.83409 0.0
H1074 H 0.23962 0.76574 0.83586 0.0
H1075 H 0.22945 0.77106 0.85691 0.0
H1076 H 0.23482 0.76395 0.93045 0.0
H1077 H 0.21038 0.78178 0.95456 0.0
H1078 H 0.19985 0.78506 0.93328 0.0
H1079 H 0.22383 0.76704 0.90903 0.0
C1080 C 0.9597 0.41819 0.63024 0.0
C1081 C 0.9568 0.41404 0.6435 0.0
C1082 C 0.94574 0.39939 0.63244 0.0
C1083 C 0.94991 0.40469 0.64458 0.0
C1084 C 0.94885 0.40365 0.61925 0.0
C1085 C 0.95574 0.41285 0.61821 0.0
U1086 U 0.9778 0.4463 0.63272 0.0
O1087 O 0.991 0.44923 0.6171 0.0
O1088 O 0.97547 0.45903 0.61633 0.0
C1089 C 0.98509 0.4568 0.61065 0.0
C1090 C 0.96646 0.42821 0.6281 0.0
C1091 C 0.98919 0.46272 0.5982 0.0
C1092 C 0.99131 0.46371 0.57283 0.0
C1093 C 0.98846 0.45779 0.58493 0.0
C1094 C 0.99613 0.47945 0.58722 0.0
C1095 C 0.9951 0.47469 0.57374 0.0
C1096 C 0.99311 0.47356 0.5993 0.0
C1097 C 0.98367 0.46055 0.67048 0.0
C1098 C 0.99146 0.47713 0.68104 0.0
C1099 C 0.98231 0.46361 0.69569 0.0
C1100 C 0.98024 0.45713 0.68385 0.0
C1101 C 0.98782 0.47371 0.69439 0.0
C1102 C 0.98942 0.47056 0.6691 0.0
C1103 C 0.98047 0.45354 0.65847 0.0
O1104 O 0.96187 0.43801 0.62891 0.0
O1105 O 0.97712 0.42812 0.63068 0.0
O1106 O 0.98779 0.44724 0.65217 0.0
O1107 O 0.97209 0.45646 0.65051 0.0
H1108 H 0.95979 0.41802 0.65295 0.0
H1109 H 0.9479 0.40163 0.65495 0.0
H1110 H 0.94573 0.40011 0.60961 0.0
H1111 H 0.95783 0.41595 0.60786 0.0
H1112 H 0.99015 0.45973 0.56276 0.0
H1113 H 0.98535 0.44945 0.58387 0.0
H1114 H 0.99925 0.48776 0.58851 0.0
H1115 H 0.99373 0.47751 0.60948 0.0
H1116 H 0.99572 0.48493 0.67984 0.0
H1117 H 0.97936 0.46085 0.70585 0.0
H1118 H 0.97575 0.44945 0.68512 0.0
H1119 H 0.99213 0.47337 0.65886 0.0
C1120 C 0.34426 0.79935 0.14102 0.0
C1121 C 0.34735 0.80295 0.12753 0.0
C1122 C 0.36299 0.81346 0.13741 0.0
C1123 C 0.35664 0.80989 0.12574 0.0
C1124 C 0.35977 0.80966 0.15079 0.0
C1125 C 0.35065 0.80272 0.15251 0.0
U1126 U 0.31635 0.78194 0.13608 0.0
O1127 O 0.3114 0.76779 0.14936 0.0
O1128 O 0.30194 0.78331 0.15014 0.0
C1129 C 0.30284 0.77308 0.15455 0.0
C1130 C 0.33429 0.79259 0.1441 0.0
C1131 C 0.29865 0.77021 0.16871 0.0
C1132 C 0.29963 0.76934 0.1943 0.0
C1133 C 0.30446 0.77206 0.18126 0.0
C1134 C 0.28326 0.76296 0.18228 0.0
C1135 C 0.28887 0.76479 0.19503 0.0
C1136 C 0.2881 0.76555 0.1694 0.0
C1137 C 0.30381 0.77797 0.09751 0.0
C1138 C 0.28926 0.76724 0.08615 0.0
C1139 C 0.29821 0.78208 0.07354 0.0
C1140 C 0.30489 0.78415 0.08516 0.0
C1141 C 0.29023 0.77371 0.07387 0.0
C1142 C 0.29599 0.76939 0.09796 0.0
C1143 C 0.3113 0.78093 0.10921 0.0
O1144 O 0.32457 0.79728 0.14286 0.0
O1145 O 0.33425 0.78204 0.14081 0.0
O1146 O 0.31686 0.77314 0.11573 0.0
O1147 O 0.30838 0.78915 0.11741 0.0
H1148 H 0.34256 0.80048 0.11844 0.0
H1149 H 0.35882 0.8124 0.1152 0.0
H1150 H 0.36407 0.8123 0.16018 0.0
H1151 H 0.34842 0.80014 0.16304 0.0
H1152 H 0.30438 0.77075 0.20376 0.0
H1153 H 0.31266 0.77562 0.18099 0.0
H1154 H 0.27491 0.75982 0.18209 0.0
H1155 H 0.28344 0.76408 0.15986 0.0
H1156 H 0.28316 0.76073 0.08672 0.0
H1157 H 0.29932 0.78709 0.06421 0.0
H1158 H 0.31095 0.79071 0.0845 0.0
H1159 H 0.29505 0.76445 0.10737 0.0
C1160 C 0.96021 0.59258 0.8888 0.0
C1161 C 0.95869 0.59739 0.87547 0.0
C1162 C 0.94586 0.61102 0.88548 0.0
C1163 C 0.95159 0.60657 0.87384 0.0
C1164 C 0.94773 0.60626 0.89875 0.0
C1165 C 0.95475 0.59721 0.90034 0.0
U1166 U 0.97824 0.56526 0.88306 0.0
O1167 O 0.99273 0.5605 0.89589 0.0
O1168 O 0.97744 0.55072 0.89688 0.0
C1169 C 0.98769 0.55182 0.90115 0.0
C1170 C 0.96727 0.5828 0.89164 0.0
C1171 C 0.99055 0.54799 0.91546 0.0
C1172 C 0.98822 0.54738 0.94091 0.0
C1173 C 0.98588 0.5523 0.92781 0.0
C1174 C 1.00008 0.53412 0.9294 0.0
C1175 C 0.99517 0.53803 0.94184 0.0
C1176 C 0.99776 0.539 0.91646 0.0
C1177 C 0.98259 0.55359 0.84424 0.0
C1178 C 0.98911 0.53639 0.83384 0.0
C1179 C 0.98257 0.55116 0.8189 0.0
C1180 C 0.98054 0.55763 0.83072 0.0
C1181 C 0.98664 0.54033 0.82021 0.0
C1182 C 0.98706 0.54296 0.84579 0.0
C1183 C 0.97917 0.5607 0.85608 0.0
O1184 O 0.9628 0.57297 0.89038 0.0
O1185 O 0.97776 0.58307 0.88811 0.0
O1186 O 0.98669 0.56663 0.86256 0.0
O1187 O 0.97128 0.55713 0.86437 0.0
H1188 H 0.96286 0.594 0.86638 0.0
H1189 H 0.95037 0.61 0.86345 0.0
H1190 H 0.94375 0.60955 0.90803 0.0
H1191 H 0.95587 0.59375 0.91075 0.0
H1192 H 0.98424 0.55065 0.9502 0.0
H1193 H 0.98026 0.55924 0.92729 0.0
H1194 H 0.00866 0.52721 0.92958 0.0
H1195 H 1.00148 0.53556 0.90708 0.0
H1196 H 0.99222 0.5281 0.83534 0.0
H1197 H 0.98087 0.5547 0.80869 0.0
H1198 H 0.97714 0.56583 0.82928 0.0
H1199 H 0.9887 0.53966 0.85617 0.0
C1200 C 0.16968 0.21336 0.63905 0.0
C1201 C 0.16845 0.20751 0.62638 0.0
C1202 C 0.15131 0.19904 0.63502 0.0
C1203 C 0.15933 0.20043 0.62438 0.0
C1204 C 0.15256 0.20514 0.6475 0.0
C1205 C 0.16157 0.21218 0.64944 0.0
U1206 U 0.19752 0.23036 0.63419 0.0
O1207 O 0.20276 0.24469 0.64694 0.0
O1208 O 0.21202 0.22907 0.64807 0.0
C1209 C 0.21125 0.23937 0.65227 0.0
C1210 C 0.17962 0.21995 0.64266 0.0
C1211 C 0.215 0.24214 0.66661 0.0
C1212 C 0.21455 0.24074 0.69215 0.0
C1213 C 0.20995 0.23825 0.67892 0.0
C1214 C 0.22918 0.25095 0.68078 0.0
C1215 C 0.22434 0.24705 0.69327 0.0
C1216 C 0.22453 0.24859 0.66772 0.0
C1217 C 0.20956 0.23408 0.59548 0.0
C1218 C 0.22413 0.24473 0.5841 0.0
C1219 C 0.21494 0.23004 0.57145 0.0
C1220 C 0.20833 0.22797 0.58311 0.0
C1221 C 0.22301 0.23833 0.5718 0.0
C1222 C 0.21746 0.24258 0.59595 0.0
C1223 C 0.20216 0.23113 0.60723 0.0
O1224 O 0.18929 0.21518 0.64131 0.0
O1225 O 0.17974 0.23051 0.63947 0.0
O1226 O 0.19668 0.23897 0.61375 0.0
O1227 O 0.20519 0.22297 0.61546 0.0
H1228 H 0.17461 0.20824 0.6182 0.0
H1229 H 0.15862 0.19601 0.61454 0.0
H1230 H 0.14676 0.20421 0.65606 0.0
H1231 H 0.16239 0.2165 0.65936 0.0
H1232 H 0.21041 0.2377 0.70146 0.0
H1233 H 0.20256 0.23325 0.6783 0.0
H1234 H 0.23683 0.25555 0.68091 0.0
H1235 H 0.22861 0.25162 0.65835 0.0
H1236 H 0.2303 0.25118 0.58467 0.0
H1237 H 0.21373 0.22509 0.56209 0.0
H1238 H 0.2022 0.22147 0.58246 0.0
H1239 H 0.21852 0.24746 0.60539 0.0
C1240 C 0.55001 0.41929 0.39025 0.0
C1241 C 0.55616 0.41812 0.37781 0.0
C1242 C 0.56426 0.40078 0.38649 0.0
C1243 C 0.5632 0.40894 0.37594 0.0
C1244 C 0.55785 0.40196 0.39872 0.0
C1245 C 0.55086 0.41105 0.40053 0.0
U1246 U 0.5326 0.44706 0.38554 0.0
O1247 O 0.51844 0.45197 0.39881 0.0
O1248 O 0.5338 0.46167 0.39929 0.0
C1249 C 0.52361 0.46065 0.40384 0.0
C1250 C 0.54343 0.42929 0.39377 0.0
C1251 C 0.52092 0.46472 0.41812 0.0
C1252 C 0.51995 0.46328 0.44368 0.0
C1253 C 0.52245 0.45855 0.4305 0.0
C1254 C 0.51437 0.48019 0.43216 0.0
C1255 C 0.51604 0.47422 0.44458 0.0
C1256 C 0.51673 0.47547 0.41912 0.0
C1257 C 0.5277 0.45886 0.34687 0.0
C1258 C 0.52215 0.47649 0.33667 0.0
C1259 C 0.52677 0.46116 0.32152 0.0
C1260 C 0.52881 0.45461 0.33329 0.0
C1261 C 0.52366 0.4723 0.32293 0.0
C1262 C 0.52418 0.46983 0.34856 0.0
C1263 C 0.53122 0.45165 0.35858 0.0
O1264 O 0.54807 0.439 0.39209 0.0
O1265 O 0.5328 0.42929 0.39097 0.0
O1266 O 0.52375 0.4458 0.36527 0.0
O1267 O 0.53932 0.45508 0.36666 0.0
H1268 H 0.55569 0.42437 0.36969 0.0
H1269 H 0.56787 0.40829 0.36629 0.0
H1270 H 0.5585 0.39603 0.4072 0.0
H1271 H 0.54631 0.4118 0.41029 0.0
H1272 H 0.52134 0.45853 0.45316 0.0
H1273 H 0.52565 0.45022 0.42999 0.0
H1274 H 0.51134 0.4886 0.43255 0.0
H1275 H 0.51542 0.48036 0.40972 0.0
H1276 H 0.51983 0.48502 0.33832 0.0
H1277 H 0.52768 0.45739 0.31128 0.0
H1278 H 0.53149 0.44616 0.33173 0.0
H1279 H 0.52329 0.47332 0.35897 0.0
H1280 H 0.27577 0.26614 0.31734 0.0
H1281 H 0.26491 0.26966 0.29605 0.0
H1282 H 0.27642 0.23905 0.27826 0.0
H1283 H 0.28698 0.23529 0.29953 0.0
H1284 H 0.27203 0.2711 0.2673 0.0
H1285 H 0.24271 0.23646 0.27519 0.0
H1286 H 0.25112 0.24194 0.28923 0.0
H1287 H 0.25708 0.2329 0.27632 0.0
C1288 C 0.27591 0.2601 0.30896 0.0
C1289 C 0.28226 0.2504 0.31023 0.0
C1290 C 0.26976 0.26217 0.29675 0.0
C1291 C 0.26972 0.25454 0.28564 0.0
C1292 C 0.27617 0.24497 0.28678 0.0
H1293 H 0.2373 0.24958 0.20448 0.0
H1294 H 0.24765 0.24648 0.22607 0.0
C1295 C 0.28233 0.24291 0.29893 0.0
C1296 C 0.26292 0.25653 0.27286 0.0
H1297 H 0.24155 0.24596 0.25359 0.0
C1298 C 0.26531 0.26566 0.26435 0.0
C1299 C 0.25422 0.24937 0.26894 0.0
C1300 C 0.25103 0.23966 0.27793 0.0
C1301 C 0.25938 0.26769 0.25191 0.0
C1302 C 0.25061 0.26059 0.24803 0.0
C1303 C 0.24823 0.25145 0.25655 0.0
C1304 C 0.24394 0.26243 0.23507 0.0
C1305 C 0.26285 0.2772 0.24273 0.0
C1306 C 0.23816 0.27235 0.233 0.0
C1307 C 0.23239 0.27428 0.22048 0.0
C1308 C 0.2321 0.26627 0.20976 0.0
C1309 C 0.23753 0.25613 0.2122 0.0
C1310 C 0.24339 0.25426 0.22466 0.0
H1311 H 0.2713 0.28011 0.24532 0.0
H1312 H 0.26261 0.27483 0.23146 0.0
H1313 H 0.25708 0.2842 0.24432 0.0
H1314 H 0.2382 0.27868 0.24103 0.0
H1315 H 0.22843 0.28221 0.2191 0.0
H1316 H 0.98301 0.97164 0.4713 0.0
H1317 H 0.98685 0.98141 0.49318 0.0
H1318 H 0.01592 0.99944 0.47296 0.0
H1319 H 0.01271 0.98936 0.45133 0.0
H1320 H 0.00969 0.9838 0.50966 0.0
H1321 H 0.99246 0.02677 0.4882 0.0
H1322 H 0.9894 0.01376 0.47982 0.0
H1323 H 1.00282 0.0199 0.47792 0.0
C1324 C 0.98974 0.9775 0.47144 0.0
C1325 C 0.99589 0.97975 0.45917 0.0
C1326 C 0.99186 0.98317 0.48402 0.0
C1327 C 1.00002 0.99137 0.48463 0.0
C1328 C 0.00936 0.99338 0.47266 0.0
H1329 H 0.02559 0.04174 0.54694 0.0
H1330 H 0.02198 0.03099 0.52577 0.0
C1331 C 1.00447 0.9876 0.46017 0.0
C1332 C 1.00176 0.99797 0.49768 0.0
H1333 H 1.0007 0.02718 0.51067 0.0
C1334 C 0.00829 0.99264 0.50992 0.0
C1335 C 1.00007 0.01242 0.49801 0.0
C1336 C 0.99589 0.01857 0.48533 0.0
C1337 C 0.01039 0.99857 0.52236 0.0
C1338 C 0.00861 0.01302 0.52274 0.0
C1339 C 1.00208 0.01834 0.51047 0.0
C1340 C 0.0105 0.01975 0.53567 0.0
C1341 C 0.01493 0.99244 0.53485 0.0
C1342 C 1.00213 0.01726 0.5483 0.0
C1343 C 1.00411 0.02346 0.56048 0.0
C1344 C 0.01446 0.03241 0.56032 0.0
C1345 C 0.0197 0.03504 0.54754 0.0
C1346 C 0.0177 0.02883 0.53538 0.0
H1347 H 0.01869 0.98444 0.53174 0.0
H1348 H 0.02126 0.99744 0.5404 0.0
H1349 H 0.00811 0.99067 0.54229 0.0
H1350 H 0.99625 0.01054 0.54874 0.0
H1351 H 0.9997 0.0213 0.56997 0.0
H1352 H 0.21917 0.75169 0.79962 0.0
H1353 H 0.22948 0.74848 0.77797 0.0
H1354 H 0.25575 0.76928 0.79316 0.0
H1355 H 0.24556 0.77263 0.81469 0.0
H1356 H 0.23633 0.76181 0.75783 0.0
H1357 H 0.27348 0.74324 0.78202 0.0
H1358 H 0.26094 0.74553 0.79179 0.0
H1359 H 0.27048 0.75671 0.7888 0.0
C1360 C 0.22713 0.75564 0.7984 0.0
C1361 C 0.23151 0.76235 0.80913 0.0
C1362 C 0.23306 0.75373 0.78599 0.0
C1363 C 0.24356 0.75838 0.78402 0.0
C1364 C 0.24788 0.76522 0.79458 0.0
H1365 H 0.29238 0.75696 0.71654 0.0
H1366 H 0.28189 0.76071 0.73796 0.0
C1367 C 0.24198 0.76713 0.80697 0.0
C1368 C 0.24984 0.75639 0.77076 0.0
H1369 H 0.27481 0.74788 0.75795 0.0
C1370 C 0.24472 0.75868 0.75787 0.0
C1371 C 0.26084 0.75241 0.77072 0.0
C1372 C 0.26672 0.74923 0.78407 0.0
C1373 C 0.25031 0.75732 0.74504 0.0
C1374 C 0.26129 0.75329 0.74499 0.0
C1375 C 0.26642 0.75102 0.75789 0.0
C1376 C 0.26757 0.75121 0.73174 0.0
C1377 C 0.24447 0.7606 0.73171 0.0
C1378 C 0.26314 0.7445 0.72111 0.0
C1379 C 0.26909 0.74241 0.70879 0.0
C1380 C 0.27974 0.74679 0.70689 0.0
C1381 C 0.28424 0.75338 0.71764 0.0
C1382 C 0.27823 0.75556 0.72991 0.0
H1383 H 0.23776 0.76664 0.7338 0.0
H1384 H 0.25029 0.76429 0.72402 0.0
H1385 H 0.24064 0.75318 0.72692 0.0
H1386 H 0.25515 0.74065 0.72242 0.0
H1387 H 0.26544 0.73708 0.70093 0.0
H1388 H 0.53275 0.02547 0.95967 0.0
H1389 H 0.52872 0.01478 0.98085 0.0
H1390 H 0.49525 0.02699 0.98034 0.0
H1391 H 0.49908 0.0369 0.95851 0.0
H1392 H 0.52414 0.01844 1.00537 0.0
H1393 H 0.48693 0.99386 0.98615 0.0
H1394 H 0.49525 1.00221 0.97467 0.0
H1395 H 0.485 0.01138 0.98589 0.0
C1396 C 0.52451 0.02581 0.96407 0.0
C1397 C 0.51622 0.03196 0.95736 0.0
C1398 C 0.52218 0.01968 0.97622 0.0
C1399 C 0.51153 0.01969 0.98217 0.0
C1400 C 0.50338 0.02628 0.97575 0.0
H1401 H 0.48512 0.9905 0.06436 0.0
H1402 H 0.48888 1.00082 0.04269 0.0
C1403 C 0.50562 0.03212 0.96334 0.0
C1404 C 0.50917 0.01305 0.99521 0.0
H1405 H 0.49049 0.99249 0.01421 0.0
C1406 C 0.51684 0.01332 1.00633 0.0
C1407 C 0.4996 1.00342 0.99678 0.0
C1408 C 0.49129 1.00189 0.98517 0.0
C1409 C 0.51513 1.00431 0.02241 0.0
C1410 C 0.50556 0.99776 0.02398 0.0
C1411 C 0.49784 0.99752 0.01303 0.0
C1412 C 0.50328 0.99127 0.03702 0.0
C1413 C 0.52363 0.00803 0.03395 0.0
C1414 C 0.51 0.98231 0.04097 0.0
C1415 C 0.50772 0.97625 0.05324 0.0
C1416 C 0.49875 0.97913 0.06185 0.0
C1417 C 0.49205 0.98807 0.05787 0.0
C1418 C 0.49421 0.99398 0.04551 0.0
H1419 H 0.52933 0.0151 0.03235 0.0
H1420 H 0.51955 0.00894 0.04433 0.0
H1421 H 0.52856 0.99743 0.03415 0.0
H1422 H 0.51698 0.97997 0.03453 0.0
H1423 H 0.51308 0.96947 0.05615 0.0
H1424 H 0.24306 0.76068 0.31807 0.0
H1425 H 0.25339 0.76386 0.29665 0.0
H1426 H 0.23488 0.73837 0.27575 0.0
H1427 H 0.22491 0.73449 0.29742 0.0
H1428 H 0.26666 0.74815 0.28153 0.0
H1429 H 0.23282 0.76525 0.24876 0.0
H1430 H 0.23228 0.765 0.26773 0.0
H1431 H 0.22975 0.75261 0.25788 0.0
C1432 C 0.24122 0.7555 0.30913 0.0
C1433 C 0.23314 0.7471 0.30988 0.0
C1434 C 0.24712 0.75749 0.29673 0.0
C1435 C 0.24493 0.75139 0.28455 0.0
C1436 C 0.23665 0.74329 0.28498 0.0
H1437 H 0.27296 0.74894 0.20069 0.0
H1438 H 0.26265 0.74604 0.22224 0.0
C1439 C 0.23088 0.74112 0.29748 0.0
C1440 C 0.25158 0.7533 0.27156 0.0
H1441 H 0.24975 0.76176 0.23734 0.0
C1442 C 0.26296 0.75118 0.27189 0.0
C1443 C 0.2468 0.75727 0.25898 0.0
C1444 C 0.23476 0.76027 0.25824 0.0
C1445 C 0.26962 0.75267 0.2599 0.0
C1446 C 0.26483 0.75659 0.24728 0.0
C1447 C 0.25345 0.75875 0.24698 0.0
C1448 C 0.27145 0.75834 0.23423 0.0
C1449 C 0.28167 0.74972 0.26068 0.0
C1450 C 0.27992 0.76625 0.23369 0.0
C1451 C 0.28573 0.76819 0.22115 0.0
C1452 C 0.28328 0.76222 0.20882 0.0
C1453 C 0.27497 0.75405 0.20964 0.0
C1454 C 0.26907 0.75225 0.22209 0.0
H1455 H 0.28363 0.74482 0.27023 0.0
H1456 H 0.28417 0.74492 0.25126 0.0
H1457 H 0.28665 0.75739 0.26095 0.0
H1458 H 0.28183 0.77118 0.24287 0.0
H1459 H 0.29189 0.77466 0.2211 0.0
H1460 H 0.49763 0.98132 0.56224 0.0
H1461 H 0.49405 0.99166 0.54076 0.0
H1462 H 0.52861 0.99024 0.53024 0.0
H1463 H 0.53233 0.98002 0.55173 0.0
H1464 H 0.50081 0.01406 0.53202 0.0
H1465 H 0.516 0.98024 0.49399 0.0
H1466 H 0.51379 0.97702 0.51227 0.0
H1467 H 0.52625 0.98389 0.50674 0.0
C1468 C 0.50453 0.98321 0.55544 0.0
C1469 C 0.51532 0.97973 0.55889 0.0
C1470 C 0.50243 0.9891 0.54305 0.0
C1471 C 0.511 0.99159 0.53365 0.0
C1472 C 0.52175 0.98814 0.53703 0.0
H1473 H 0.51591 0.0303 0.45413 0.0
H1474 H 0.51943 0.01987 0.47578 0.0
C1475 C 0.52388 0.98225 0.54941 0.0
C1476 C 0.50875 0.99809 0.52059 0.0
H1477 H 0.51254 0.99815 0.48497 0.0
C1478 C 0.50333 0.01117 0.52172 0.0
C1479 C 0.51201 0.99439 0.5071 0.0
C1480 C 0.51723 0.98324 0.50491 0.0
C1481 C 0.50134 0.01785 0.50988 0.0
C1482 C 0.50468 0.01419 0.49639 0.0
C1483 C 0.51004 1.00107 0.49526 0.0
C1484 C 0.50257 0.02071 0.4833 0.0
C1485 C 0.49599 0.02894 0.51212 0.0
C1486 C 0.49193 0.02456 0.48008 0.0
C1487 C 0.48996 0.03068 0.46787 0.0
C1488 C 0.49852 0.03287 0.45831 0.0
C1489 C 0.50913 0.02875 0.46127 0.0
C1490 C 0.51114 0.0228 0.47367 0.0
H1491 H 0.4972 0.03193 0.52306 0.0
H1492 H 0.49936 0.03522 0.50479 0.0
H1493 H 0.48697 0.0282 0.51034 0.0
H1494 H 0.48503 0.0227 0.48691 0.0
H1495 H 0.48164 0.0335 0.46576 0.0
H1496 H 0.27245 0.25044 0.8158 0.0
H1497 H 0.26183 0.24644 0.79454 0.0
H1498 H 0.27553 0.27529 0.77461 0.0
H1499 H 0.28606 0.2794 0.7957 0.0
H1500 H 0.2461 0.25793 0.78129 0.0
H1501 H 0.2812 0.25303 0.74468 0.0
H1502 H 0.28298 0.25325 0.76351 0.0
H1503 H 0.28151 0.26596 0.75384 0.0
C1504 C 0.27321 0.25597 0.80693 0.0
C1505 C 0.28027 0.26521 0.80754 0.0
C1506 C 0.26715 0.25363 0.79472 0.0
C1507 C 0.26804 0.26041 0.7828 0.0
C1508 C 0.27496 0.26968 0.78344 0.0
H1509 H 0.23699 0.26507 0.70105 0.0
H1510 H 0.24726 0.26785 0.72269 0.0
C1511 C 0.28101 0.27203 0.79559 0.0
C1512 C 0.26143 0.25808 0.76989 0.0
H1513 H 0.26346 0.25475 0.73429 0.0
C1514 C 0.24992 0.25712 0.77104 0.0
C1515 C 0.26636 0.25705 0.75646 0.0
C1516 C 0.2787 0.25726 0.75454 0.0
C1517 C 0.24322 0.25549 0.75913 0.0
C1518 C 0.24814 0.2546 0.7457 0.0
C1519 C 0.25965 0.25548 0.74456 0.0
C1520 C 0.24152 0.2529 0.73267 0.0
C1521 C 0.23089 0.25511 0.76098 0.0
C1522 C 0.23483 0.24352 0.73096 0.0
C1523 C 0.22905 0.24174 0.71839 0.0
C1524 C 0.22981 0.2493 0.70717 0.0
C1525 C 0.23635 0.25883 0.70914 0.0
C1526 C 0.2422 0.26052 0.72163 0.0
H1527 H 0.2283 0.25856 0.77128 0.0
H1528 H 0.22667 0.25978 0.75248 0.0
H1529 H 0.22808 0.2464 0.76049 0.0
H1530 H 0.23433 0.23739 0.73921 0.0
H1531 H 0.22432 0.23422 0.71735 0.0
H1532 H 0.00989 0.96459 0.96683 0.0
H1533 H 1.00346 0.97458 0.98881 0.0
H1534 H 0.01734 0.0077 0.96939 0.0
H1535 H 0.02079 0.995 0.94761 0.0
H1536 H 0.01924 0.98581 1.00629 0.0
H1537 H 0.98605 0.01835 0.98475 0.0
H1538 H 0.99051 1.00349 0.97503 0.0
H1539 H 0.9989 0.01871 0.97548 0.0
C1540 C 0.01157 0.97336 0.96724 0.0
C1541 C 0.01548 0.97897 0.95528 0.0
C1542 C 0.00951 0.97909 0.97982 0.0
C1543 C 0.01126 0.99056 0.98072 0.0
C1544 C 0.01543 0.99607 0.96891 0.0
H1545 H 1.00281 0.04393 0.04927 0.0
H1546 H 0.00942 0.03338 0.02798 0.0
C1547 C 0.01746 0.9904 0.95639 0.0
C1548 C 0.00906 0.99673 0.99405 0.0
H1549 H 0.99298 0.0223 0.01106 0.0
C1550 C 0.01405 0.9931 1.00654 0.0
C1551 C 0.99949 0.00923 0.99448 0.0
C1552 C 0.99336 0.01334 0.98174 0.0
C1553 C 0.01269 0.99887 0.02289 0.0
C1554 C 1.00314 0.01137 0.0233 0.0
C1555 C 0.99814 0.01499 0.01083 0.0
C1556 C 1.00111 0.01773 0.03652 0.0
C1557 C 0.01882 0.99484 0.03567 0.0
C1558 C 0.9967 0.01256 0.04846 0.0
C1559 C 0.99446 0.01861 0.06068 0.0
C1560 C 0.99649 0.03006 0.06129 0.0
C1561 C 1.00092 0.03521 0.04927 0.0
C1562 C 1.00313 0.02914 0.03704 0.0
H1563 H 0.02596 0.98956 0.03275 0.0
H1564 H 0.02187 1.00185 0.0421 0.0
H1565 H 0.01317 0.98979 0.04221 0.0
H1566 H 0.99466 1.00095 0.04825 0.0
H1567 H 0.99079 0.0143 0.06948 0.0
H1568 H 0.74683 0.76087 0.69683 0.0
H1569 H 0.75676 0.75697 0.71848 0.0
H1570 H 0.72742 0.76403 0.74245 0.0
H1571 H 0.71719 0.76734 0.7207 0.0
H1572 H 0.76175 0.76994 0.73937 0.0
H1573 H 0.7364 0.73591 0.76082 0.0
H1574 H 0.73492 0.74079 0.743 0.0
H1575 H 0.72849 0.74812 0.7573 0.0
C1576 C 0.74235 0.76135 0.70664 0.0
C1577 C 0.73111 0.76436 0.70688 0.0
C1578 C 0.74812 0.75921 0.71909 0.0
C1579 C 0.74285 0.76002 0.73218 0.0
C1580 C 0.73165 0.76306 0.73251 0.0
H1581 H 0.76612 0.75546 0.8184 0.0
H1582 H 0.75574 0.75853 0.79719 0.0
C1583 C 0.72583 0.76514 0.72002 0.0
C1584 C 0.74929 0.75819 0.74539 0.0
H1585 H 0.74976 0.74361 0.77619 0.0
C1586 C 0.75913 0.76412 0.74736 0.0
C1587 C 0.74596 0.75061 0.75589 0.0
C1588 C 0.73593 0.74341 0.75411 0.0
C1589 C 0.76557 0.76284 0.75956 0.0
C1590 C 0.76217 0.75534 0.77009 0.0
C1591 C 0.75234 0.74941 0.76816 0.0
C1592 C 0.76874 0.75345 0.78312 0.0
C1593 C 0.77582 0.76974 0.76121 0.0
C1594 C 0.77955 0.74941 0.78241 0.0
C1595 C 0.78559 0.74728 0.79467 0.0
C1596 C 0.78106 0.74924 0.80817 0.0
C1597 C 0.77016 0.75347 0.80865 0.0
C1598 C 0.76409 0.75539 0.79635 0.0
H1599 H 0.77577 0.77699 0.75405 0.0
H1600 H 0.77669 0.77272 0.7722 0.0
H1601 H 0.78315 0.76464 0.75863 0.0
H1602 H 0.78328 0.7476 0.77233 0.0
H1603 H 0.7937 0.74382 0.79323 0.0
H1604 H 0.73587 0.24751 0.31718 0.0
H1605 H 0.74675 0.24391 0.29595 0.0
H1606 H 0.73607 0.27492 0.27846 0.0
H1607 H 0.72544 0.27873 0.29967 0.0
H1608 H 0.73966 0.24294 0.26695 0.0
H1609 H 0.76994 0.27661 0.2757 0.0
H1610 H 0.76142 0.27113 0.28961 0.0
H1611 H 0.75566 0.28051 0.27694 0.0
C1612 C 0.7359 0.25362 0.30888 0.0
C1613 C 0.72975 0.26344 0.31023 0.0
C1614 C 0.74208 0.25151 0.29669 0.0
C1615 C 0.74236 0.25921 0.28567 0.0
C1616 C 0.73613 0.26892 0.2869 0.0
H1617 H 0.77526 0.26391 0.20464 0.0
H1618 H 0.76487 0.26714 0.22616 0.0
C1619 C 0.72993 0.27102 0.29902 0.0
C1620 C 0.74917 0.25716 0.27289 0.0
H1621 H 0.77096 0.26728 0.25398 0.0
C1622 C 0.74655 0.24821 0.26417 0.0
C1623 C 0.75811 0.26408 0.26916 0.0
C1624 C 0.76155 0.27358 0.27837 0.0
C1625 C 0.75249 0.24614 0.25173 0.0
C1626 C 0.7615 0.253 0.24805 0.0
C1627 C 0.7641 0.26197 0.25678 0.0
C1628 C 0.76819 0.25108 0.23511 0.0
C1629 C 0.74879 0.23685 0.24233 0.0
C1630 C 0.77377 0.24106 0.233 0.0
C1631 C 0.77959 0.23906 0.22052 0.0
C1632 C 0.78011 0.24711 0.20986 0.0
C1633 C 0.77486 0.25733 0.21231 0.0
C1634 C 0.76897 0.25927 0.22474 0.0
H1635 H 0.74028 0.23408 0.24488 0.0
H1636 H 0.74906 0.23939 0.23112 0.0
H1637 H 0.75441 0.2297 0.24373 0.0
H1638 H 0.77355 0.23469 0.24098 0.0
H1639 H 0.7834 0.23106 0.21914 0.0
H1640 H 0.74826 0.24838 0.81824 0.0
H1641 H 0.75827 0.25232 0.79664 0.0
H1642 H 0.7278 0.25131 0.7733 0.0
H1643 H 0.7176 0.24776 0.79506 0.0
H1644 H 0.76046 0.23999 0.77335 0.0
H1645 H 0.74088 0.2797 0.75881 0.0
H1646 H 0.73937 0.27363 0.77602 0.0
H1647 H 0.73125 0.26865 0.76151 0.0
C1648 C 0.7436 0.24919 0.80859 0.0
C1649 C 0.73204 0.24781 0.80852 0.0
C1650 C 0.74939 0.25136 0.79617 0.0
C1651 C 0.74384 0.25228 0.78328 0.0
C1652 C 0.7323 0.25088 0.78311 0.0
H1653 H 0.76461 0.26354 0.69709 0.0
H1654 H 0.75473 0.25982 0.71881 0.0
C1655 C 0.72648 0.24869 0.79557 0.0
C1656 C 0.75023 0.25427 0.77006 0.0
H1657 H 0.75275 0.27171 0.74196 0.0
C1658 C 0.75879 0.24697 0.76653 0.0
C1659 C 0.74812 0.26335 0.76109 0.0
C1660 C 0.73948 0.27185 0.76458 0.0
C1661 C 0.76508 0.24834 0.75421 0.0
C1662 C 0.76298 0.25742 0.74522 0.0
C1663 C 0.75442 0.26474 0.74878 0.0
C1664 C 0.7693 0.25935 0.73192 0.0
C1665 C 0.77369 0.2398 0.75072 0.0
C1666 C 0.78087 0.2604 0.73189 0.0
C1667 C 0.78664 0.26239 0.71933 0.0
C1668 C 0.78097 0.26347 0.70647 0.0
C1669 C 0.76937 0.26253 0.70663 0.0
C1670 C 0.76364 0.2605 0.71914 0.0
H1671 H 0.7722 0.23193 0.75642 0.0
H1672 H 0.77384 0.23806 0.73926 0.0
H1673 H 0.78192 0.24292 0.7539 0.0
H1674 H 0.78547 0.25983 0.74162 0.0
H1675 H 0.79555 0.263 0.7197 0.0
H1676 H 0.78046 0.78208 0.3023 0.0
H1677 H 0.77028 0.77838 0.28071 0.0
H1678 H 0.76897 0.7438 0.29117 0.0
H1679 H 0.77912 0.74737 0.31275 0.0
H1680 H 0.7738 0.76685 0.25825 0.0
H1681 H 0.7373 0.74836 0.284 0.0
H1682 H 0.74818 0.75487 0.29392 0.0
H1683 H 0.74974 0.7409 0.28765 0.0
C1684 C 0.77812 0.77365 0.30001 0.0
C1685 C 0.78055 0.76508 0.30953 0.0
C1686 C 0.7722 0.77155 0.28764 0.0
C1687 C 0.76848 0.76085 0.28444 0.0
C1688 C 0.77127 0.75221 0.29361 0.0
H1689 H 0.72992 0.73195 0.21668 0.0
H1690 H 0.74081 0.73577 0.23763 0.0
C1691 C 0.77715 0.75429 0.30601 0.0
C1692 C 0.76187 0.75877 0.27142 0.0
H1693 H 0.73793 0.74723 0.25927 0.0
C1694 C 0.76592 0.76261 0.25851 0.0
C1695 C 0.7516 0.75317 0.27161 0.0
C1696 C 0.7464 0.74918 0.28506 0.0
C1697 C 0.76018 0.76083 0.24585 0.0
C1698 C 0.74987 0.75528 0.24604 0.0
C1699 C 0.74582 0.75146 0.25898 0.0
C1700 C 0.74325 0.75311 0.23304 0.0
C1701 C 0.76549 0.76461 0.23238 0.0
C1702 C 0.74075 0.76157 0.22341 0.0
C1703 C 0.73462 0.75934 0.21122 0.0
C1704 C 0.73053 0.74867 0.2086 0.0
C1705 C 0.73282 0.74029 0.21841 0.0
C1706 C 0.73909 0.74247 0.23043 0.0
H1707 H 0.77459 0.76528 0.2335 0.0
H1708 H 0.76367 0.75886 0.2236 0.0
H1709 H 0.76231 0.77292 0.22965 0.0
H1710 H 0.7434 0.76995 0.22537 0.0
H1711 H 0.73286 0.76604 0.20403 0.0
H1712 H 0.5265 0.53964 0.04963 0.0
H1713 H 0.52301 0.52932 0.02807 0.0
H1714 H 0.49683 0.51148 0.04867 0.0
H1715 H 0.49996 0.5221 0.07014 0.0
H1716 H 0.52452 0.5075 0.02308 0.0
H1717 H 0.48155 0.52097 0.01316 0.0
H1718 H 0.49039 0.52778 0.02572 0.0
H1719 H 0.48352 0.5151 0.03029 0.0
C1720 C 0.51985 0.53368 0.04954 0.0
C1721 C 0.51346 0.53181 0.06166 0.0
C1722 C 0.51793 0.5277 0.03721 0.0
C1723 C 0.50955 0.51972 0.03662 0.0
C1724 C 0.50319 0.51776 0.04871 0.0
H1725 H 0.48544 0.47436 0.96969 0.0
H1726 H 0.48955 0.48457 0.99109 0.0
C1727 C 0.5051 0.52375 0.06108 0.0
C1728 C 0.50773 0.51325 0.02351 0.0
H1729 H 0.48823 0.50629 0.99554 0.0
C1730 C 0.51659 0.50728 0.01781 0.0
C1731 C 0.49739 0.51294 0.01659 0.0
C1732 C 0.4877 0.51962 0.02166 0.0
C1733 C 0.51537 0.50085 1.002 0.0
C1734 C 0.50501 0.5005 0.99513 0.0
C1735 C 0.49617 0.50651 1.0008 0.0
C1736 C 0.50306 0.49388 0.98216 0.0
C1737 C 0.52506 0.4942 0.99687 0.0
C1738 C 0.50927 0.49568 0.96991 0.0
C1739 C 0.50703 0.48971 0.95761 0.0
C1740 C 0.49845 0.48186 0.95726 0.0
C1741 C 0.49226 0.48013 0.96957 0.0
C1742 C 0.49453 0.48606 0.98183 0.0
H1743 H 0.53135 0.49303 1.00525 0.0
H1744 H 0.52238 0.48597 0.99306 0.0
H1745 H 0.52907 0.49863 0.98804 0.0
H1746 H 0.51573 0.50184 0.96975 0.0
H1747 H 0.51205 0.49124 0.94841 0.0
H1748 H 0.01055 0.54417 0.47119 0.0
H1749 H 1.00417 0.53384 0.49279 0.0
H1750 H 0.01498 0.50349 0.47145 0.0
H1751 H 0.01903 0.51372 0.45004 0.0
H1752 H 0.98942 0.51655 0.49884 0.0
H1753 H 0.03571 0.5027 0.50519 0.0
H1754 H 0.03183 0.51398 0.49381 0.0
H1755 H 0.02976 0.49994 0.48825 0.0
C1756 C 0.0117 0.53531 0.47107 0.0
C1757 C 0.01524 0.52987 0.45879 0.0
C1758 C 0.00961 0.5294 0.48344 0.0
C1759 C 0.01099 0.51791 0.48384 0.0
C1760 C 0.01409 0.51239 0.4715 0.0
H1761 H 1.00306 0.46723 0.54822 0.0
H1762 H 0.00876 0.47773 0.52666 0.0
C1763 C 0.01625 0.51828 0.45916 0.0
C1764 C 0.00936 0.5117 0.49718 0.0
H1765 H 0.02263 0.49496 0.52069 0.0
C1766 C 0.99606 0.51187 0.50366 0.0
C1767 C 0.01801 0.5056 0.50348 0.0
C1768 C 0.02949 0.50558 0.49743 0.0
C1769 C 0.99403 0.5059 0.51607 0.0
C1770 C 1.00268 0.49976 0.52236 0.0
C1771 C 0.01599 0.49962 0.51588 0.0
C1772 C 1.00109 0.49342 0.53562 0.0
C1773 C 0.98255 0.50592 0.52211 0.0
C1774 C 0.99768 0.49874 0.54797 0.0
C1775 C 0.99584 0.49273 0.56031 0.0
C1776 C 0.99755 0.48122 0.5607 0.0
C1777 C 1.00134 0.47599 0.54837 0.0
C1778 C 1.00307 0.48202 0.536 0.0
H1779 H 0.97633 0.50871 0.51428 0.0
H1780 H 0.98022 0.49756 0.52586 0.0
H1781 H 0.98223 0.51167 0.53117 0.0
H1782 H 0.99638 0.50759 0.54808 0.0
H1783 H 0.99282 0.49713 0.56941 0.0
H1784 H 0.99654 0.54654 0.96881 0.0
H1785 H 0.99971 0.53647 0.99078 0.0
H1786 H 1.00125 0.50588 0.96778 0.0
H1787 H 0.99794 0.51572 0.94597 0.0
H1788 H 0.98777 0.52 1.00349 0.0
H1789 H 0.03217 0.50381 0.99031 0.0
H1790 H 0.02578 0.51491 0.98061 0.0
H1791 H 0.0219 0.50081 0.97728 0.0
C1792 C 0.99751 0.53767 0.96839 0.0
C1793 C 0.9971 0.53204 0.95545 0.0
C1794 C 0.99938 0.53191 0.98099 0.0
C1795 C 1.00099 0.52042 0.98095 0.0
C1796 C 1.00042 0.51478 0.96811 0.0
H1797 H 0.01437 0.46904 0.04701 0.0
H1798 H 0.01068 0.4797 0.02584 0.0
C1799 C 0.99852 0.52048 0.95556 0.0
C1800 C 1.00292 0.51423 0.9943 0.0
H1801 H 0.02351 0.49616 0.01401 0.0
C1802 C 0.99502 0.51488 1.00504 0.0
C1803 C 0.01523 0.50745 0.99635 0.0
C1804 C 0.02431 0.50676 0.98559 0.0
C1805 C 0.99609 0.50876 0.0212 0.0
C1806 C 0.00838 0.50197 0.02322 0.0
C1807 C 0.01629 0.50133 0.01249 0.0
C1808 C 0.01021 0.4955 0.03636 0.0
C1809 C 0.98702 0.50933 0.03197 0.0
C1810 C 0.01125 0.5008 0.04941 0.0
C1811 C 0.0136 0.49474 0.0616 0.0
C1812 C 0.01498 0.48318 0.06107 0.0
C1813 C 0.01368 0.47791 0.04796 0.0
C1814 C 0.01145 0.484 0.03577 0.0
H1815 H 0.97928 0.51277 0.02749 0.0
H1816 H 0.98526 0.50102 0.03634 0.0
H1817 H 0.98966 0.51477 0.04073 0.0
H1818 H 0.01059 0.5097 0.05012 0.0
H1819 H 0.01472 0.49922 0.07133 0.0
H1820 H 0.5 0.47012 0.46428 0.0
H1821 H 0.4962 0.48075 0.4858 0.0
H1822 H 0.5245 0.50129 0.47732 0.0
H1823 H 0.52787 0.49111 0.45556 0.0
H1824 H 0.50673 0.48448 0.5093 0.0
H1825 H 0.50279 0.52498 0.48296 0.0
H1826 H 0.50326 0.5122 0.47327 0.0
H1827 H 0.51582 0.51857 0.47946 0.0
C1828 C 0.50539 0.47691 0.46709 0.0
C1829 C 0.51422 0.47981 0.4583 0.0
C1830 C 0.50321 0.48301 0.47936 0.0
C1831 C 0.50986 0.4921 0.48309 0.0
C1832 C 0.51895 0.49466 0.4745 0.0
H1833 H 0.51376 0.53418 0.55772 0.0
H1834 H 0.5176 0.52361 0.53622 0.0
C1835 C 0.52098 0.48873 0.46215 0.0
C1836 C 0.50741 0.49881 0.49595 0.0
H1837 H 0.50399 0.52532 0.50783 0.0
C1838 C 0.50604 0.4934 0.5089 0.0
C1839 C 0.5065 0.51049 0.49561 0.0
C1840 C 0.50706 0.51689 0.48206 0.0
C1841 C 0.50402 0.49932 0.52137 0.0
C1842 C 0.50329 0.51096 0.521 0.0
C1843 C 0.50463 0.51639 0.50813 0.0
C1844 C 0.50091 0.51758 0.53384 0.0
C1845 C 0.50287 0.49315 0.535 0.0
C1846 C 0.49022 0.51786 0.5395 0.0
C1847 C 0.48797 0.52402 0.55165 0.0
C1848 C 0.49639 0.52994 0.55848 0.0
C1849 C 0.50709 0.52968 0.55273 0.0
C1850 C 0.5093 0.52366 0.54045 0.0
H1851 H 0.50484 0.48424 0.53384 0.0
H1852 H 0.50841 0.49679 0.54306 0.0
H1853 H 0.49426 0.49394 0.53887 0.0
H1854 H 0.48361 0.51327 0.53454 0.0
H1855 H 0.47967 0.52394 0.55589 0.0
H1856 H 0.08439 0.3969 0.15395 0.0
H1857 H 0.09732 0.38145 0.1549 0.0
H1858 H 0.08381 0.3685 0.11645 0.0
H1859 H 0.07049 0.3835 0.11568 0.0
H1860 H 0.09346 0.35719 0.154 0.0
H1861 H 0.11735 0.37257 0.10818 0.0
H1862 H 0.10806 0.38132 0.11799 0.0
H1863 H 0.10267 0.37125 0.10596 0.0
C1864 C 0.08395 0.3907 0.14579 0.0
C1865 C 0.07636 0.39173 0.13461 0.0
C1866 C 0.09146 0.38187 0.14631 0.0
C1867 C 0.0917 0.3739 0.1356 0.0
C1868 C 0.08396 0.37466 0.12469 0.0
H1869 H 0.13969 0.32113 0.11735 0.0
H1870 H 0.1242 0.33412 0.11609 0.0
C1871 C 0.07637 0.38338 0.12424 0.0
C1872 C 0.10022 0.36498 0.13564 0.0
H1873 H 0.1232 0.35587 0.11823 0.0
C1874 C 0.09998 0.35691 0.14619 0.0
C1875 C 0.1086 0.36444 0.12532 0.0
C1876 C 0.1093 0.37287 0.11374 0.0
C1877 C 0.10787 0.34836 0.14668 0.0
C1878 C 0.11656 0.34809 0.1367 0.0
C1879 C 0.11664 0.35605 0.12598 0.0
C1880 C 0.12584 0.33991 0.1375 0.0
C1881 C 0.10661 0.33952 0.15767 0.0
C1882 C 0.13212 0.33889 0.14984 0.0
C1883 C 0.141 0.33151 0.15057 0.0
C1884 C 0.14398 0.32494 0.13894 0.0
C1885 C 0.13776 0.32607 0.1265 0.0
C1886 C 0.12883 0.33347 0.12579 0.0
H1887 H 0.09791 0.33881 0.16124 0.0
H1888 H 0.10933 0.33136 0.15363 0.0
H1889 H 0.11172 0.34167 0.16695 0.0
H1890 H 0.13032 0.344 0.15888 0.0
H1891 H 0.1457 0.33118 0.16024 0.0
H1892 H 0.86359 0.83372 0.36252 0.0
H1893 H 0.87884 0.84681 0.36397 0.0
H1894 H 0.89061 0.83075 0.40148 0.0
H1895 H 0.87533 0.81743 0.40001 0.0
H1896 H 0.88334 0.86142 0.3864 0.0
H1897 H 0.91883 0.83338 0.37699 0.0
H1898 H 0.90485 0.82975 0.37224 0.0
H1899 H 0.90913 0.82922 0.39029 0.0
C1900 C 0.86948 0.83283 0.37101 0.0
C1901 C 0.86819 0.82441 0.38111 0.0
C1902 C 0.8782 0.84039 0.37185 0.0
C1903 C 0.88602 0.83974 0.38271 0.0
C1904 C 0.88482 0.83136 0.39284 0.0
H1905 H 0.94339 0.88136 0.40229 0.0
H1906 H 0.92974 0.86661 0.4012 0.0
C1907 C 0.87599 0.82381 0.39208 0.0
C1908 C 0.895 0.84823 0.38368 0.0
H1909 H 0.92301 0.85199 0.38189 0.0
C1910 C 0.89201 0.85934 0.38539 0.0
C1911 C 0.90634 0.84558 0.3825 0.0
C1912 C 0.91005 0.83385 0.3803 0.0
C1913 C 0.89998 0.86779 0.38607 0.0
C1914 C 0.91133 0.86522 0.3845 0.0
C1915 C 0.91434 0.85407 0.38297 0.0
C1916 C 0.92009 0.87402 0.38457 0.0
C1917 C 0.89611 0.87939 0.38892 0.0
C1918 C 0.91952 0.88308 0.37535 0.0
C1919 C 0.92721 0.89174 0.37616 0.0
C1920 C 0.93587 0.89154 0.38605 0.0
C1921 C 0.93672 0.88213 0.3948 0.0
C1922 C 0.92895 0.87354 0.39408 0.0
H1923 H 0.88784 0.87948 0.39398 0.0
H1924 H 0.90199 0.88386 0.39583 0.0
H1925 H 0.89542 0.88392 0.37882 0.0
H1926 H 0.91301 0.88356 0.36759 0.0
H1927 H 0.92612 0.89874 0.36923 0.0
H1928 H 0.37913 0.69391 0.61694 0.0
H1929 H 0.39461 0.68075 0.61596 0.0
H1930 H 0.38121 0.6633 0.65149 0.0
H1931 H 0.36578 0.67621 0.65246 0.0
H1932 H 0.41069 0.67395 0.63918 0.0
H1933 H 0.38446 0.63989 0.61908 0.0
H1934 H 0.38076 0.65426 0.61718 0.0
H1935 H 0.379 0.64744 0.6338 0.0
C1936 C 0.37946 0.68723 0.6245 0.0
C1937 C 0.37116 0.68615 0.63477 0.0
C1938 C 0.38837 0.67978 0.62401 0.0
C1939 C 0.38907 0.671 0.63363 0.0
C1940 C 0.38085 0.66997 0.64392 0.0
H1941 H 0.42784 0.61158 0.64599 0.0
H1942 H 0.41483 0.62692 0.64736 0.0
C1943 C 0.37204 0.67742 0.64449 0.0
C1944 C 0.39806 0.66258 0.63271 0.0
H1945 H 0.40243 0.63514 0.62634 0.0
C1946 C 0.40892 0.66548 0.63626 0.0
C1947 C 0.39579 0.65153 0.62894 0.0
C1948 C 0.3844 0.64805 0.62441 0.0
C1949 C 0.41746 0.65754 0.63651 0.0
C1950 C 0.41513 0.64641 0.63293 0.0
C1951 C 0.40428 0.64361 0.62921 0.0
C1952 C 0.42372 0.63749 0.63297 0.0
C1953 C 0.42882 0.66106 0.64109 0.0
C1954 C 0.43319 0.63824 0.62452 0.0
C1955 C 0.44078 0.6295 0.62386 0.0
C1956 C 0.43906 0.61963 0.63147 0.0
C1957 C 0.42964 0.61901 0.6401 0.0
C1958 C 0.42209 0.62779 0.64081 0.0
H1959 H 0.42863 0.66904 0.64686 0.0
H1960 H 0.43267 0.65471 0.64794 0.0
H1961 H 0.43411 0.66216 0.63168 0.0
H1962 H 0.4346 0.64549 0.61811 0.0
H1963 H 0.44798 0.6305 0.61725 0.0
H1964 H 0.57502 0.12166 0.8621 0.0
H1965 H 0.58852 0.13669 0.8609 0.0
H1966 H 0.58881 0.13871 0.90608 0.0
H1967 H 0.57598 0.12336 0.90745 0.0
H1968 H 0.58893 0.15813 0.86941 0.0
H1969 H 0.62099 0.13549 0.89914 0.0
H1970 H 0.60868 0.12884 0.8927 0.0
H1971 H 0.60831 0.13684 0.90866 0.0
C1972 C 0.57806 0.12516 0.87182 0.0
C1973 C 0.57434 0.12107 0.88487 0.0
C1974 C 0.58573 0.13389 0.87111 0.0
C1975 C 0.58997 0.13876 0.88341 0.0
C1976 C 0.58598 0.13496 0.8964 0.0
H1977 H 0.63997 0.18941 0.90161 0.0
H1978 H 0.62478 0.17614 0.90288 0.0
C1979 C 0.57842 0.12622 0.89714 0.0
C1980 C 0.59867 0.14762 0.88275 0.0
H1981 H 0.62452 0.15434 0.89471 0.0
C1982 C 0.59673 0.15725 0.87488 0.0
C1983 C 0.6089 0.14663 0.88991 0.0
C1984 C 0.61191 0.13635 0.89797 0.0
C1985 C 0.60459 0.16586 0.8742 0.0
C1986 C 0.61481 0.16482 0.88134 0.0
C1987 C 0.61671 0.15524 0.88925 0.0
C1988 C 0.62378 0.17338 0.88047 0.0
C1989 C 0.60174 0.17618 0.86616 0.0
C1990 C 0.62848 0.17625 0.86749 0.0
C1991 C 0.6373 0.18374 0.86673 0.0
C1992 C 0.64176 0.18866 0.87894 0.0
C1993 C 0.63698 0.18578 0.89195 0.0
C1994 C 0.62818 0.17822 0.8927 0.0
H1995 H 0.59271 0.1769 0.86432 0.0
H1996 H 0.60462 0.18363 0.87188 0.0
H1997 H 0.60589 0.17597 0.85578 0.0
H1998 H 0.62553 0.17244 0.8579 0.0
H1999 H 0.64081 0.18541 0.85649 0.0
H2000 H 0.08974 0.6111 0.37319 0.0
H2001 H 0.10281 0.62638 0.37259 0.0
H2002 H 0.07938 0.64711 0.3941 0.0
H2003 H 0.06622 0.63194 0.39469 0.0
H2004 H 0.10248 0.64636 0.36115 0.0
H2005 H 0.10528 0.65198 0.41886 0.0
H2006 H 0.09832 0.64033 0.41108 0.0
H2007 H 0.09164 0.6536 0.41183 0.0
C2008 C 0.08726 0.61891 0.37769 0.0
C2009 C 0.07686 0.62011 0.38413 0.0
C2010 C 0.09482 0.62768 0.37742 0.0
C2011 C 0.09228 0.63789 0.38365 0.0
C2012 C 0.08179 0.63924 0.38968 0.0
H2013 H 0.13371 0.69772 0.39291 0.0
H2014 H 0.11817 0.6846 0.39354 0.0
C2015 C 0.07422 0.63049 0.38998 0.0
C2016 C 0.10059 0.64706 0.3836 0.0
H2017 H 0.1153 0.66452 0.4049 0.0
C2018 C 0.10528 0.65028 0.37075 0.0
C2019 C 0.10417 0.65244 0.39604 0.0
C2020 C 0.09966 0.64937 0.41025 0.0
C2021 C 0.11342 0.65856 0.37002 0.0
C2022 C 0.11735 0.66359 0.3825 0.0
C2023 C 0.11243 0.66063 0.39531 0.0
C2024 C 0.1268 0.6716 0.38245 0.0
C2025 C 0.1175 0.66205 0.35575 0.0
C2026 C 0.13694 0.66867 0.37629 0.0
C2027 C 0.14572 0.67618 0.37579 0.0
C2028 C 0.14472 0.68672 0.38178 0.0
C2029 C 0.13473 0.6896 0.38832 0.0
C2030 C 0.12585 0.68211 0.38865 0.0
H2031 H 0.11137 0.66013 0.34741 0.0
H2032 H 0.1193 0.67103 0.35547 0.0
H2033 H 0.12518 0.65747 0.35326 0.0
H2034 H 0.13809 0.66053 0.37182 0.0
H2035 H 0.15334 0.67375 0.37071 0.0
H2036 H 0.56778 0.88448 0.64978 0.0
H2037 H 0.581 0.86909 0.65133 0.0
H2038 H 0.59667 0.88018 0.61326 0.0
H2039 H 0.58374 0.89554 0.61173 0.0
H2040 H 0.58659 0.85151 0.63004 0.0
H2041 H 0.62191 0.87875 0.64305 0.0
H2042 H 0.60773 0.88283 0.64573 0.0
H2043 H 0.61361 0.88313 0.6284 0.0
C2044 C 0.57408 0.88369 0.64178 0.0
C2045 C 0.57462 0.89134 0.63063 0.0
C2046 C 0.58158 0.87481 0.64262 0.0
C2047 C 0.5899 0.87347 0.63245 0.0
C2048 C 0.59039 0.88103 0.62129 0.0
H2049 H 0.64855 0.83351 0.61906 0.0
H2050 H 0.63324 0.84656 0.61776 0.0
C2051 C 0.5829 0.88981 0.6204 0.0
C2052 C 0.59836 0.86448 0.63358 0.0
H2053 H 0.62614 0.86031 0.6374 0.0
C2054 C 0.59523 0.85341 0.63177 0.0
C2055 C 0.60965 0.86689 0.63579 0.0
C2056 C 0.61347 0.87852 0.63848 0.0
C2057 C 0.60312 0.8448 0.63169 0.0
C2058 C 0.61447 0.84726 0.6337 0.0
C2059 C 0.61751 0.85833 0.63571 0.0
C2060 C 0.62337 0.8386 0.63376 0.0
C2061 C 0.59924 0.83319 0.62892 0.0
C2062 C 0.62303 0.82962 0.64309 0.0
C2063 C 0.63174 0.82197 0.64369 0.0
C2064 C 0.64121 0.82316 0.63516 0.0
C2065 C 0.64144 0.83211 0.62569 0.0
C2066 C 0.63267 0.83969 0.62502 0.0
H2067 H 0.591 0.83308 0.62378 0.0
H2068 H 0.60518 0.82868 0.62215 0.0
H2069 H 0.59852 0.82873 0.63906 0.0
H2070 H 0.61614 0.82862 0.65021 0.0
H2071 H 0.63102 0.81515 0.65097 0.0
H2072 H 0.38175 0.31435 0.89258 0.0
H2073 H 0.39728 0.32751 0.89315 0.0
H2074 H 0.37735 0.35149 0.8713 0.0
H2075 H 0.36198 0.33835 0.87056 0.0
H2076 H 0.40831 0.33907 0.86985 0.0
H2077 H 0.38816 0.36764 0.90731 0.0
H2078 H 0.38399 0.35342 0.90526 0.0
H2079 H 0.37958 0.36365 0.89275 0.0
C2080 C 0.38071 0.32247 0.88801 0.0
C2081 C 0.37065 0.32542 0.8817 0.0
C2082 C 0.38959 0.32994 0.88824 0.0
C2083 C 0.38845 0.34054 0.88239 0.0
C2084 C 0.3784 0.34342 0.87603 0.0
H2085 H 0.42516 0.40083 0.87128 0.0
H2086 H 0.41208 0.3855 0.87086 0.0
C2087 C 0.36962 0.33593 0.87562 0.0
C2088 C 0.39762 0.34874 0.88303 0.0
H2089 H 0.40385 0.37452 0.89531 0.0
C2090 C 0.4074 0.34678 0.87554 0.0
C2091 C 0.39649 0.35876 0.89051 0.0
C2092 C 0.38654 0.36099 0.89954 0.0
C2093 C 0.41586 0.35477 0.87492 0.0
C2094 C 0.41451 0.36496 0.88199 0.0
C2095 C 0.40484 0.36678 0.88973 0.0
C2096 C 0.42291 0.37395 0.88137 0.0
C2097 C 0.42601 0.35242 0.86633 0.0
C2098 C 0.4334 0.37259 0.88735 0.0
C2099 C 0.44098 0.38133 0.8875 0.0
C2100 C 0.43822 0.39172 0.88177 0.0
C2101 C 0.42772 0.39297 0.8756 0.0
C2102 C 0.42017 0.38421 0.87545 0.0
H2103 H 0.42501 0.34498 0.85963 0.0
H2104 H 0.42801 0.3596 0.85952 0.0
H2105 H 0.43312 0.35103 0.87348 0.0
H2106 H 0.43568 0.36482 0.89217 0.0
H2107 H 0.449 0.37993 0.89217 0.0
H2108 H 0.94634 0.13239 0.1461 0.0
H2109 H 0.93313 0.14789 0.14672 0.0
H2110 H 0.90979 0.12853 0.12304 0.0
H2111 H 0.92299 0.1132 0.1222 0.0
H2112 H 0.9218 0.15953 0.1231 0.0
H2113 H 0.89292 0.13837 0.15927 0.0
H2114 H 0.90725 0.13447 0.15757 0.0
H2115 H 0.89738 0.13017 0.14457 0.0
C2116 C 0.93836 0.13146 0.14111 0.0
C2117 C 0.93563 0.12155 0.13424 0.0
C2118 C 0.93085 0.14034 0.14138 0.0
C2119 C 0.9204 0.13937 0.13502 0.0
C2120 C 0.91774 0.12947 0.12813 0.0
H2121 H 0.85977 0.17634 0.12522 0.0
H2122 H 0.87511 0.16328 0.12421 0.0
C2123 C 0.92528 0.12071 0.12766 0.0
C2124 C 0.91211 0.14851 0.13578 0.0
H2125 H 0.88621 0.15442 0.14798 0.0
C2126 C 0.91406 0.15847 0.12865 0.0
C2127 C 0.90202 0.1472 0.14307 0.0
C2128 C 0.89975 0.13703 0.15168 0.0
C2129 C 0.90603 0.16693 0.12824 0.0
C2130 C 0.89579 0.16544 0.13517 0.0
C2131 C 0.89397 0.15556 0.14251 0.0
C2132 C 0.88677 0.17389 0.13485 0.0
C2133 C 0.9084 0.17726 0.11999 0.0
C2134 C 0.88814 0.1843 0.14111 0.0
C2135 C 0.87937 0.19187 0.14162 0.0
C2136 C 0.86891 0.18923 0.13598 0.0
C2137 C 0.86766 0.17884 0.12951 0.0
C2138 C 0.87644 0.17128 0.12901 0.0
H2139 H 0.91583 0.17636 0.11324 0.0
H2140 H 0.90122 0.17943 0.11327 0.0
H2141 H 0.90984 0.18419 0.12738 0.0
H2142 H 0.89595 0.1865 0.14589 0.0
H2143 H 0.88081 0.1998 0.14652 0.0
H2144 H 0.86285 0.67665 0.89578 0.0
H2145 H 0.87783 0.66315 0.896 0.0
H2146 H 0.89741 0.68444 0.86972 0.0
H2147 H 0.88271 0.6982 0.86989 0.0
H2148 H 0.88691 0.65218 0.87316 0.0
H2149 H 0.91948 0.67635 0.90027 0.0
H2150 H 0.90506 0.6801 0.90096 0.0
H2151 H 0.91309 0.6831 0.88555 0.0
C2152 C 0.87041 0.67863 0.89028 0.0
C2153 C 0.87146 0.68862 0.88284 0.0
C2154 C 0.87897 0.67081 0.89032 0.0
C2155 C 0.88885 0.67277 0.88301 0.0
C2156 C 0.88998 0.68276 0.87566 0.0
H2157 H 0.94712 0.62995 0.86914 0.0
H2158 H 0.93371 0.6452 0.86784 0.0
C2159 C 0.88144 0.69059 0.87562 0.0
C2160 C 0.89772 0.66415 0.88259 0.0
H2161 H 0.92474 0.659 0.89112 0.0
C2162 C 0.89516 0.6537 0.87712 0.0
C2163 C 0.90857 0.66608 0.88761 0.0
C2164 C 0.91174 0.67698 0.89404 0.0
C2165 C 0.90309 0.64522 0.87652 0.0
C2166 C 0.91387 0.64706 0.88177 0.0
C2167 C 0.9165 0.65755 0.88705 0.0
C2168 C 0.9222 0.63796 0.88256 0.0
C2169 C 0.89994 0.63433 0.87004 0.0
C2170 C 0.92027 0.62883 0.89127 0.0
C2171 C 0.92786 0.62014 0.89201 0.0
C2172 C 0.93769 0.62029 0.88408 0.0
C2173 C 0.93962 0.62946 0.8753 0.0
C2174 C 0.932 0.63824 0.87463 0.0
H2175 H 0.89225 0.63498 0.86372 0.0
H2176 H 0.90668 0.63122 0.86318 0.0
H2177 H 0.89855 0.62818 0.87849 0.0
H2178 H 0.91284 0.62842 0.89758 0.0
H2179 H 0.92595 0.6132 0.89876 0.0
H2180 H 0.0877 0.11458 0.6204 0.0
H2181 H 0.10085 0.12974 0.62096 0.0
H2182 H 0.0777 0.14932 0.64471 0.0
H2183 H 0.06464 0.13388 0.64467 0.0
H2184 H 0.10118 0.14896 0.61078 0.0
H2185 H 0.10328 0.1551 0.66837 0.0
H2186 H 0.09607 0.14359 0.66069 0.0
H2187 H 0.08968 0.15704 0.6614 0.0
C2188 C 0.08539 0.12209 0.62581 0.0
C2189 C 0.07508 0.12294 0.63256 0.0
C2190 C 0.09296 0.13081 0.62613 0.0
C2191 C 0.0905 0.14073 0.63313 0.0
C2192 C 0.0801 0.14168 0.63968 0.0
H2193 H 0.12991 0.20102 0.64465 0.0
H2194 H 0.11506 0.18744 0.64361 0.0
C2195 C 0.07256 0.13284 0.63958 0.0
C2196 C 0.09877 0.14999 0.63316 0.0
H2197 H 0.1129 0.16794 0.65441 0.0
C2198 C 0.10375 0.15304 0.62038 0.0
C2199 C 0.10214 0.15556 0.64556 0.0
C2200 C 0.09758 0.1526 0.65978 0.0
C2201 C 0.11187 0.16134 0.61967 0.0
C2202 C 0.11542 0.16671 0.6321 0.0
C2203 C 0.11029 0.16386 0.64483 0.0
C2204 C 0.12448 0.17519 0.63221 0.0
C2205 C 0.11634 0.16444 0.60545 0.0
C2206 C 0.13486 0.17296 0.62621 0.0
C2207 C 0.14341 0.18077 0.62674 0.0
C2208 C 0.14191 0.191 0.6335 0.0
C2209 C 0.1315 0.19322 0.63949 0.0
C2210 C 0.12293 0.18543 0.63887 0.0
H2211 H 0.11039 0.16241 0.59695 0.0
H2212 H 0.11828 0.17339 0.60486 0.0
H2213 H 0.124 0.15969 0.60343 0.0
H2214 H 0.13649 0.16503 0.62142 0.0
H2215 H 0.15133 0.17861 0.62226 0.0
H2216 H 0.58513 0.40087 0.37496 0.0
H2217 H 0.59859 0.38581 0.37423 0.0
H2218 H 0.57534 0.36426 0.39467 0.0
H2219 H 0.56175 0.37918 0.39522 0.0
H2220 H 0.60737 0.37427 0.39781 0.0
H2221 H 0.58628 0.34547 0.36124 0.0
H2222 H 0.58285 0.35997 0.36224 0.0
H2223 H 0.57805 0.35061 0.37554 0.0
C2224 C 0.58276 0.39289 0.37908 0.0
C2225 C 0.57227 0.39134 0.38514 0.0
C2226 C 0.59053 0.38427 0.37874 0.0
C2227 C 0.588 0.37382 0.38428 0.0
C2228 C 0.57749 0.37217 0.39014 0.0
H2229 H 0.62909 0.31418 0.39636 0.0
H2230 H 0.61389 0.32767 0.39701 0.0
C2231 C 0.56974 0.38079 0.39058 0.0
C2232 C 0.59654 0.36486 0.38451 0.0
H2233 H 0.60258 0.33898 0.37208 0.0
C2234 C 0.6063 0.36657 0.39215 0.0
C2235 C 0.59519 0.35474 0.37725 0.0
C2236 C 0.58508 0.35255 0.36849 0.0
C2237 C 0.61465 0.35848 0.39275 0.0
C2238 C 0.61338 0.34845 0.38534 0.0
C2239 C 0.60358 0.34665 0.37781 0.0
C2240 C 0.62243 0.34005 0.38478 0.0
C2241 C 0.62476 0.36064 0.40153 0.0
C2242 C 0.63228 0.34245 0.37766 0.0
C2243 C 0.64093 0.33479 0.37725 0.0
C2244 C 0.64002 0.32447 0.38398 0.0
C2245 C 0.63014 0.32206 0.39116 0.0
C2246 C 0.62141 0.32974 0.39145 0.0
H2247 H 0.62362 0.3678 0.40868 0.0
H2248 H 0.62685 0.35324 0.40791 0.0
H2249 H 0.63185 0.36241 0.39452 0.0
H2250 H 0.63328 0.35031 0.37239 0.0
H2251 H 0.64842 0.33704 0.37175 0.0
H2252 H 0.43101 0.89365 0.11282 0.0
H2253 H 0.41794 0.87846 0.11404 0.0
H2254 H 0.43236 0.8679 0.15319 0.0
H2255 H 0.44553 0.8832 0.15209 0.0
H2256 H 0.41958 0.85696 0.11375 0.0
H2257 H 0.4011 0.8682 0.16498 0.0
H2258 H 0.4105 0.87722 0.15585 0.0
H2259 H 0.41567 0.86572 0.16592 0.0
C2260 C 0.43154 0.8881 0.1217 0.0
C2261 C 0.43946 0.88981 0.13237 0.0
C2262 C 0.42395 0.87936 0.1224 0.0
C2263 C 0.42389 0.87203 0.13384 0.0
C2264 C 0.43188 0.87358 0.14444 0.0
H2265 H 0.38168 0.81529 0.1542 0.0
H2266 H 0.39636 0.82894 0.15309 0.0
C2267 C 0.43948 0.88238 0.14378 0.0
C2268 C 0.41551 0.86283 0.13446 0.0
H2269 H 0.39521 0.85141 0.15495 0.0
C2270 C 0.41424 0.85582 0.12278 0.0
C2271 C 0.40849 0.86112 0.14619 0.0
C2272 C 0.40892 0.86852 0.15889 0.0
C2273 C 0.40631 0.84726 0.12256 0.0
C2274 C 0.39921 0.84569 0.13419 0.0
C2275 C 0.40058 0.85256 0.14596 0.0
C2276 C 0.39028 0.83705 0.13441 0.0
C2277 C 0.40583 0.83977 0.10996 0.0
C2278 C 0.38181 0.83692 0.12429 0.0
C2279 C 0.37315 0.82919 0.12503 0.0
C2280 C 0.37267 0.8213 0.13592 0.0
C2281 C 0.38138 0.82132 0.14583 0.0
C2282 C 0.38994 0.82912 0.14516 0.0
H2283 H 0.4136 0.84007 0.10378 0.0
H2284 H 0.40428 0.8311 0.11318 0.0
H2285 H 0.39898 0.84245 0.10301 0.0
H2286 H 0.38167 0.84305 0.11601 0.0
H2287 H 0.36664 0.82969 0.11727 0.0
H2288 H 0.93004 0.39483 0.65272 0.0
H2289 H 0.91677 0.37971 0.65333 0.0
H2290 H 0.92962 0.36732 0.61418 0.0
H2291 H 0.94343 0.38185 0.614 0.0
H2292 H 0.90044 0.37534 0.6365 0.0
H2293 H 0.92803 0.33901 0.63458 0.0
H2294 H 0.93313 0.35275 0.63789 0.0
H2295 H 0.93023 0.3483 0.62019 0.0
C2296 C 0.9303 0.38875 0.64441 0.0
C2297 C 0.93793 0.38972 0.63331 0.0
C2298 C 0.92257 0.38011 0.6447 0.0
C2299 C 0.9222 0.37218 0.63391 0.0
C2300 C 0.92983 0.37308 0.62286 0.0
H2301 H 0.87537 0.31831 0.61498 0.0
H2302 H 0.89032 0.332 0.61389 0.0
C2303 C 0.93764 0.38162 0.62264 0.0
C2304 C 0.91342 0.36341 0.63386 0.0
H2305 H 0.90892 0.33554 0.63097 0.0
C2306 C 0.90236 0.36664 0.63539 0.0
C2307 C 0.91578 0.352 0.63227 0.0
C2308 C 0.92744 0.34779 0.63128 0.0
C2309 C 0.89368 0.35892 0.63525 0.0
C2310 C 0.89602 0.34752 0.63376 0.0
C2311 C 0.90706 0.34426 0.63208 0.0
C2312 C 0.88711 0.33893 0.63443 0.0
C2313 C 0.88201 0.36311 0.63639 0.0
C2314 C 0.88037 0.3381 0.64637 0.0
C2315 C 0.87178 0.33038 0.64697 0.0
C2316 C 0.86969 0.3231 0.63572 0.0
C2317 C 0.87657 0.32383 0.6238 0.0
C2318 C 0.88521 0.33161 0.62321 0.0
H2319 H 0.8814 0.37195 0.6334 0.0
H2320 H 0.87635 0.35827 0.62959 0.0
H2321 H 0.8792 0.36232 0.64744 0.0
H2322 H 0.88174 0.34346 0.65531 0.0
H2323 H 0.86665 0.33027 0.65628 0.0
H2324 H 0.43023 0.11677 0.36666 0.0
H2325 H 0.41689 0.13185 0.36617 0.0
H2326 H 0.4334 0.14726 0.40116 0.0
H2327 H 0.44719 0.13267 0.40115 0.0
H2328 H 0.4024 0.1377 0.38558 0.0
H2329 H 0.4298 0.17355 0.37647 0.0
H2330 H 0.43439 0.1595 0.37413 0.0
H2331 H 0.43371 0.16546 0.39145 0.0
C2332 C 0.43126 0.12349 0.37404 0.0
C2333 C 0.4399 0.12338 0.38394 0.0
C2334 C 0.42351 0.1321 0.37383 0.0
C2335 C 0.42416 0.14085 0.3835 0.0
C2336 C 0.4328 0.1408 0.39334 0.0
H2337 H 0.3796 0.19633 0.40223 0.0
H2338 H 0.39459 0.18268 0.40276 0.0
C2339 C 0.44061 0.13227 0.39348 0.0
C2340 C 0.41547 0.14963 0.38373 0.0
H2341 H 0.41125 0.17759 0.38266 0.0
C2342 C 0.40437 0.14641 0.38485 0.0
C2343 C 0.41795 0.16105 0.38292 0.0
C2344 C 0.4296 0.16511 0.38104 0.0
C2345 C 0.39578 0.15421 0.38529 0.0
C2346 C 0.39825 0.1656 0.38437 0.0
C2347 C 0.40933 0.16887 0.3834 0.0
C2348 C 0.38936 0.17415 0.38394 0.0
C2349 C 0.38411 0.15017 0.38705 0.0
C2350 C 0.3815 0.17403 0.37311 0.0
C2351 C 0.3729 0.18173 0.37284 0.0
C2352 C 0.37195 0.18989 0.38332 0.0
C2353 C 0.37994 0.19011 0.39408 0.0
C2354 C 0.38858 0.18236 0.39433 0.0
H2355 H 0.38385 0.14162 0.39128 0.0
H2356 H 0.37939 0.15565 0.39421 0.0
H2357 H 0.37995 0.15014 0.37666 0.0
H2358 H 0.38199 0.16792 0.36482 0.0
H2359 H 0.36688 0.18114 0.36446 0.0
H2360 H 0.56376 0.63258 0.11962 0.0
H2361 H 0.57745 0.64736 0.11959 0.0
H2362 H 0.59581 0.63049 0.15187 0.0
H2363 H 0.58258 0.61535 0.15142 0.0
H2364 H 0.58496 0.66177 0.13967 0.0
H2365 H 0.6193 0.63483 0.1225 0.0
H2366 H 0.60504 0.63062 0.12151 0.0
H2367 H 0.6124 0.62988 0.13793 0.0
C2368 C 0.57078 0.63188 0.12661 0.0
C2369 C 0.57205 0.62257 0.1354 0.0
C2370 C 0.57856 0.64045 0.12667 0.0
C2371 C 0.58782 0.63998 0.13551 0.0
C2372 C 0.58889 0.63095 0.14468 0.0
H2373 H 0.64554 0.6794 0.15306 0.0
H2374 H 0.63033 0.66626 0.15253 0.0
C2375 C 0.58118 0.62234 0.14456 0.0
C2376 C 0.59648 0.64877 0.13497 0.0
H2377 H 0.62418 0.65275 0.13016 0.0
C2378 C 0.59352 0.65981 0.13749 0.0
C2379 C 0.60766 0.64629 0.13201 0.0
C2380 C 0.6113 0.63479 0.12819 0.0
C2381 C 0.60149 0.6683 0.1376 0.0
C2382 C 0.6127 0.66574 0.13498 0.0
C2383 C 0.6156 0.65474 0.13226 0.0
C2384 C 0.62165 0.67422 0.13547 0.0
C2385 C 0.59792 0.67989 0.14101 0.0
C2386 C 0.62194 0.68311 0.12597 0.0
C2387 C 0.63068 0.69074 0.12627 0.0
C2388 C 0.63932 0.68966 0.13608 0.0
C2389 C 0.63897 0.68069 0.14552 0.0
C2390 C 0.63029 0.67309 0.14518 0.0
H2391 H 0.58944 0.68015 0.14544 0.0
H2392 H 0.6037 0.68374 0.14863 0.0
H2393 H 0.59801 0.68491 0.13126 0.0
H2394 H 0.61549 0.68407 0.11819 0.0
H2395 H 0.63061 0.69754 0.11888 0.0
H2396 H 0.1331 0.81702 0.86154 0.0
H2397 H 0.11846 0.83079 0.86189 0.0
H2398 H 0.12914 0.84154 0.90285 0.0
H2399 H 0.14437 0.82846 0.90214 0.0
H2400 H 0.10101 0.83488 0.87741 0.0
H2401 H 0.12918 0.87042 0.88358 0.0
H2402 H 0.13415 0.85673 0.87974 0.0
H2403 H 0.13072 0.86059 0.89752 0.0
C2404 C 0.13255 0.82243 0.87056 0.0
C2405 C 0.14024 0.82165 0.88169 0.0
C2406 C 0.12401 0.83026 0.8708 0.0
C2407 C 0.1228 0.83751 0.88221 0.0
C2408 C 0.13006 0.83636 0.89365 0.0
H2409 H 0.08001 0.89197 0.90489 0.0
H2410 H 0.09306 0.87676 0.90372 0.0
C2411 C 0.13871 0.82866 0.89334 0.0
C2412 C 0.11409 0.84634 0.88205 0.0
H2413 H 0.11015 0.8741 0.88659 0.0
C2414 C 0.10304 0.84347 0.87934 0.0
C2415 C 0.11662 0.85761 0.88442 0.0
C2416 C 0.12832 0.86154 0.88633 0.0
C2417 C 0.09452 0.85143 0.87942 0.0
C2418 C 0.09706 0.86266 0.8821 0.0
C2419 C 0.10811 0.86552 0.88463 0.0
C2420 C 0.08847 0.87157 0.88278 0.0
C2421 C 0.08282 0.84768 0.87705 0.0
C2422 C 0.08143 0.8739 0.87137 0.0
C2423 C 0.07377 0.88264 0.87206 0.0
C2424 C 0.07297 0.88931 0.88415 0.0
C2425 C 0.0801 0.88695 0.89549 0.0
C2426 C 0.0877 0.87825 0.8948 0.0
H2427 H 0.0819 0.83865 0.87876 0.0
H2428 H 0.07704 0.85209 0.88415 0.0
H2429 H 0.08043 0.8495 0.86604 0.0
H2430 H 0.08197 0.8691 0.86181 0.0
H2431 H 0.06843 0.88411 0.86313 0.0
H2432 H 0.29481 0.26667 0.96738 0.0
H2433 H 0.28439 0.2651 0.9892 0.0
H2434 H 0.25664 0.28124 0.96961 0.0
H2435 H 0.26692 0.28272 0.94773 0.0
H2436 H 0.27673 0.27913 1.00649 0.0
H2437 H 0.24066 0.25636 0.98648 0.0
H2438 H 0.25296 0.25827 0.97611 0.0
H2439 H 0.24249 0.26887 0.97673 0.0
C2440 C 0.28647 0.26988 0.96766 0.0
C2441 C 0.28171 0.27477 0.95565 0.0
C2442 C 0.28049 0.26893 0.98019 0.0
C2443 C 0.26958 0.2728 0.98106 0.0
C2444 C 0.26486 0.27777 0.96914 0.0
H2445 H 0.22314 0.28864 0.04926 0.0
H2446 H 0.23408 0.28621 0.02809 0.0
C2447 C 0.2708 0.27865 0.95658 0.0
C2448 C 0.26333 0.27213 0.99457 0.0
H2449 H 0.23808 0.2656 0.01217 0.0
C2450 C 0.26835 0.27601 1.00693 0.0
C2451 C 0.25243 0.26794 0.99534 0.0
C2452 C 0.24688 0.26251 0.98298 0.0
C2453 C 0.26257 0.27624 0.02341 0.0
C2454 C 0.25148 0.27265 0.02394 0.0
C2455 C 0.24654 0.2685 0.01172 0.0
C2456 C 0.2447 0.27367 0.03688 0.0
C2457 C 0.26829 0.28066 0.03626 0.0
C2458 C 0.24693 0.26729 0.04887 0.0
C2459 C 0.24052 0.2685 0.06106 0.0
C2460 C 0.23175 0.27613 0.0615 0.0
C2461 C 0.2296 0.28247 0.04937 0.0
C2462 C 0.23592 0.28118 0.03721 0.0
H2463 H 0.27642 0.2844 0.03374 0.0
H2464 H 0.26305 0.28695 0.0415 0.0
H2465 H 0.26965 0.27381 0.04382 0.0
H2466 H 0.25358 0.26132 0.04878 0.0
H2467 H 0.24236 0.26333 0.07004 0.0
H2468 H 1.00418 0.03153 0.20773 0.0
H2469 H 0.00915 0.02079 0.22953 0.0
H2470 H 0.971 0.0216 0.23552 0.0
H2471 H 0.96885 0.0321 0.21385 0.0
H2472 H 0.9974 0.02666 0.25882 0.0
H2473 H 0.98058 0.98509 0.23611 0.0
H2474 H 0.98668 0.99585 0.2255 0.0
H2475 H 0.97292 0.99744 0.23221 0.0
C2476 C 0.99687 0.02936 0.21365 0.0
C2477 C 0.98635 0.03271 0.209 0.0
C2478 C 0.99807 0.0233 0.22616 0.0
C2479 C 0.98876 0.02038 0.23411 0.0
C2480 C 0.97829 0.02374 0.22953 0.0
H2481 H 0.96839 0.97884 0.30427 0.0
H2482 H 0.97092 0.9896 0.28301 0.0
C2483 C 0.9771 0.02982 0.21715 0.0
C2484 C 0.98977 0.01359 0.24707 0.0
H2485 H 0.98224 0.98576 0.26076 0.0
C2486 C 0.99421 0.0183 0.25927 0.0
C2487 C 0.98563 0.9998 0.2476 0.0
C2488 C 0.98125 0.99416 0.23465 0.0
C2489 C 0.99415 0.01257 0.27217 0.0
C2490 C 0.98962 0.99886 0.27282 0.0
C2491 C 0.98557 0.99407 0.26042 0.0
C2492 C 0.98835 0.99257 0.28625 0.0
C2493 C 0.99846 0.01837 0.28503 0.0
C2494 C 0.9973 0.99053 0.29533 0.0
C2495 C 0.99585 0.98435 0.3077 0.0
C2496 C 0.98546 0.97988 0.3111 0.0
C2497 C 0.97656 0.98195 0.30195 0.0
C2498 C 0.97799 0.98817 0.28974 0.0
H2499 H 0.99885 0.02745 0.2835 0.0
H2500 H 0.99322 0.01661 0.29433 0.0
H2501 H 0.00988 0.01542 0.28725 0.0
H2502 H 0.00839 0.9935 0.29274 0.0
H2503 H 1.00292 0.9828 0.31437 0.0
H2504 H 0.21831 0.745 0.46966 0.0
H2505 H 0.22905 0.74677 0.49117 0.0
H2506 H 0.25672 0.731 0.47093 0.0
H2507 H 0.24606 0.72928 0.44933 0.0
H2508 H 0.23693 0.73262 0.50806 0.0
H2509 H 0.2727 0.75584 0.48798 0.0
H2510 H 0.26035 0.75389 0.4777 0.0
H2511 H 0.27087 0.74334 0.47821 0.0
C2512 C 0.22669 0.74191 0.46971 0.0
C2513 C 0.23128 0.737 0.45763 0.0
C2514 C 0.23286 0.74298 0.48207 0.0
C2515 C 0.24382 0.73923 0.4827 0.0
C2516 C 0.24844 0.73434 0.47066 0.0
H2517 H 0.2902 0.72409 0.54812 0.0
H2518 H 0.27956 0.72621 0.52662 0.0
C2519 C 0.24229 0.73333 0.45826 0.0
C2520 C 0.25018 0.73987 0.49614 0.0
H2521 H 0.2753 0.74675 0.51012 0.0
C2522 C 0.24526 0.73587 0.5085 0.0
C2523 C 0.26103 0.7442 0.4969 0.0
C2524 C 0.26648 0.74967 0.48451 0.0
C2525 C 0.251 0.7357 0.52133 0.0
C2526 C 0.26201 0.73951 0.52188 0.0
C2527 C 0.26688 0.74371 0.50965 0.0
C2528 C 0.26872 0.73876 0.53492 0.0
C2529 C 0.24537 0.73116 0.53418 0.0
C2530 C 0.26628 0.74527 0.54672 0.0
C2531 C 0.27251 0.74424 0.55908 0.0
C2532 C 0.28131 0.73666 0.55991 0.0
C2533 C 0.28371 0.73022 0.54794 0.0
C2534 C 0.27756 0.73134 0.53559 0.0
H2535 H 0.23732 0.72724 0.53163 0.0
H2536 H 0.25074 0.72498 0.53942 0.0
H2537 H 0.24386 0.73797 0.54173 0.0
H2538 H 0.25957 0.75117 0.54635 0.0
H2539 H 0.27049 0.7495 0.56791 0.0
H2540 H 0.54305 0.97859 0.71335 0.0
H2541 H 0.54078 0.98952 0.73463 0.0
H2542 H 0.50605 0.993 0.72595 0.0
H2543 H 0.5082 0.98179 0.70456 0.0
H2544 H 0.53195 0.01483 0.73573 0.0
H2545 H 0.50763 0.98222 0.76786 0.0
H2546 H 0.51592 0.97779 0.75311 0.0
H2547 H 0.50321 0.985 0.75013 0.0
C2548 C 0.53487 0.98154 0.71599 0.0
C2549 C 0.52579 0.97921 0.70723 0.0
C2550 C 0.53361 0.98785 0.72816 0.0
C2551 C 0.52324 0.99196 0.73199 0.0
C2552 C 0.51412 0.98976 0.72329 0.0
H2553 H 0.50829 0.03145 0.81012 0.0
H2554 H 0.50626 0.02095 0.78815 0.0
C2555 C 0.51538 0.98346 0.711 0.0
C2556 C 0.52223 0.9989 0.74483 0.0
H2557 H 0.51281 0.99885 0.7787 0.0
C2558 C 0.52771 0.01199 0.7451 0.0
C2559 C 0.51655 0.99532 0.75696 0.0
C2560 C 0.51051 0.98447 0.75715 0.0
C2561 C 0.52774 0.01863 0.7572 0.0
C2562 C 0.52265 0.01477 0.76967 0.0
C2563 C 0.51683 1.00181 0.76925 0.0
C2564 C 0.52372 0.02082 0.7833 0.0
C2565 C 0.53306 0.02985 0.7563 0.0
C2566 C 0.53419 0.02397 0.78818 0.0
C2567 C 0.53534 0.03004 0.80055 0.0
C2568 C 0.52608 0.03293 0.80865 0.0
C2569 C 0.5156 0.02936 0.80414 0.0
C2570 C 0.51444 0.02338 0.79156 0.0
H2571 H 0.53282 0.03309 0.74538 0.0
H2572 H 0.52891 0.03589 0.7633 0.0
H2573 H 0.54186 0.02918 0.7594 0.0
H2574 H 0.54156 0.02171 0.78242 0.0
H2575 H 0.54357 0.03237 0.80387 0.0
H2576 H 0.78175 0.75738 0.95699 0.0
H2577 H 0.77084 0.7589 0.97865 0.0
H2578 H 0.76773 0.72346 0.98001 0.0
H2579 H 0.77886 0.72189 0.95891 0.0
H2580 H 0.75101 0.75411 0.98633 0.0
H2581 H 0.7781 0.72766 0.02207 0.0
H2582 H 0.78209 0.73231 1.00116 0.0
H2583 H 0.77347 0.72026 1.00332 0.0
C2584 C 0.77876 0.74992 0.96196 0.0
C2585 C 0.78136 0.73951 0.95632 0.0
C2586 C 0.77253 0.75079 0.97436 0.0
C2587 C 0.76873 0.74127 0.98133 0.0
C2588 C 0.77096 0.73093 0.97532 0.0
H2589 H 0.72629 0.72322 0.0534 0.0
H2590 H 0.73722 0.72487 0.03206 0.0
C2591 C 0.77729 0.73005 0.96313 0.0
C2592 C 0.7623 0.74204 0.99471 0.0
H2593 H 0.75992 0.73057 0.03108 0.0
C2594 C 0.75308 0.74908 0.99538 0.0
C2595 C 0.76497 0.73558 1.00666 0.0
C2596 C 0.77523 0.72861 0.01104 0.0
C2597 C 0.74623 0.74941 0.01102 0.0
C2598 C 0.74866 0.74256 0.02264 0.0
C2599 C 0.75797 0.73573 0.0221 0.0
C2600 C 0.74148 0.742 0.0353 0.0
C2601 C 0.73628 0.75685 0.01101 0.0
C2602 C 0.74023 0.7511 0.04431 0.0
C2603 C 0.73386 0.75022 0.05659 0.0
C2604 C 0.72864 0.74021 0.0601 0.0
C2605 C 0.72995 0.73115 0.05098 0.0
C2606 C 0.73629 0.73204 0.03878 0.0
H2607 H 0.73455 0.76026 0.99676 0.0
H2608 H 0.7289 0.75231 0.01482 0.0
H2609 H 0.73777 0.76387 0.01825 0.0
H2610 H 0.74431 0.75884 0.04198 0.0
H2611 H 0.733 0.7574 0.06327 0.0
H2612 H 0.00912 0.96926 0.79988 0.0
H2613 H 0.00772 0.98063 0.77849 0.0
H2614 H 0.03517 1.00034 0.79271 0.0
H2615 H 0.03649 0.98905 0.81407 0.0
H2616 H 1.00183 1.00386 0.77436 0.0
H2617 H 0.04508 0.98957 0.75387 0.0
H2618 H 0.03788 0.98255 0.76785 0.0
H2619 H 0.04565 0.99488 0.77148 0.0
C2620 C 0.01475 0.97611 0.79845 0.0
C2621 C 0.02285 0.97837 0.80862 0.0
C2622 C 0.01396 0.98259 0.78626 0.0
C2623 C 0.02142 0.99126 0.78389 0.0
C2624 C 0.0294 0.99361 0.79419 0.0
H2625 H 0.03763 0.04021 0.71809 0.0
H2626 H 0.03598 0.02927 0.73938 0.0
C2627 C 0.03011 0.98723 0.80644 0.0
C2628 C 0.02112 0.9977 0.77053 0.0
H2629 H 0.03683 1.00459 0.74204 0.0
C2630 C 0.01173 1.00398 0.76723 0.0
C2631 C 0.03018 0.99782 0.76117 0.0
C2632 C 0.04024 0.99077 0.76366 0.0
C2633 C 0.0114 0.01358 0.75512 0.0
C2634 C 0.02057 0.01385 0.7459 0.0
C2635 C 0.02981 1.00449 0.74911 0.0
C2636 C 0.02097 0.02097 0.7331 0.0
C2637 C 0.99841 0.02059 0.75259 0.0
C2638 C 0.01308 0.02001 0.72233 0.0
C2639 C 0.0139 0.02644 0.71009 0.0
C2640 C 0.02269 0.03391 0.70828 0.0
C2641 C 0.03058 0.03478 0.71911 0.0
C2642 C 0.02972 0.02842 0.73132 0.0
H2643 H 0.99342 0.0216 0.7623 0.0
H2644 H 1.00076 0.02889 0.74865 0.0
H2645 H 0.99314 0.01656 0.74456 0.0
H2646 H 1.00346 0.01415 0.72324 0.0
H2647 H 0.00762 0.02556 0.70207 0.0
H2648 H 0.73571 0.25613 0.45414 0.0
H2649 H 0.74679 0.25463 0.4756 0.0
H2650 H 0.73663 0.28734 0.48782 0.0
H2651 H 0.72568 0.28895 0.46659 0.0
H2652 H 0.76395 0.26592 0.4855 0.0
H2653 H 0.72961 0.27121 0.52299 0.0
H2654 H 0.72733 0.26867 0.50454 0.0
H2655 H 0.73022 0.28244 0.51075 0.0
C2656 C 0.73584 0.26302 0.46137 0.0
C2657 C 0.72962 0.27261 0.4586 0.0
C2658 C 0.74216 0.26213 0.4737 0.0
C2659 C 0.74235 0.27075 0.48357 0.0
C2660 C 0.73633 0.28038 0.48069 0.0
H2661 H 0.7792 0.29067 0.55603 0.0
H2662 H 0.76801 0.28865 0.53483 0.0
C2663 C 0.73003 0.28128 0.46845 0.0
C2664 C 0.74905 0.2699 0.49671 0.0
H2665 H 0.74778 0.27388 0.53228 0.0
C2666 C 0.76036 0.2675 0.49574 0.0
C2667 C 0.74442 0.27187 0.51016 0.0
C2668 C 0.73221 0.27357 0.5122 0.0
C2669 C 0.76719 0.26748 0.50772 0.0
C2670 C 0.76262 0.26992 0.52102 0.0
C2671 C 0.7513 0.27207 0.52206 0.0
C2672 C 0.76955 0.2709 0.53386 0.0
C2673 C 0.77933 0.26521 0.5061 0.0
C2674 C 0.77406 0.26155 0.54047 0.0
C2675 C 0.78043 0.26267 0.55274 0.0
C2676 C 0.78248 0.27317 0.5585 0.0
C2677 C 0.77789 0.28247 0.55181 0.0
C2678 C 0.77146 0.28133 0.53971 0.0
H2679 H 0.78183 0.26457 0.49489 0.0
H2680 H 0.78421 0.27186 0.51119 0.0
H2681 H 0.7814 0.25733 0.51144 0.0
H2682 H 0.77262 0.2534 0.53616 0.0
H2683 H 0.7839 0.25536 0.55757 0.0
H2684 H 0.49863 0.04621 0.29741 0.0
H2685 H 0.4996 0.03537 0.27575 0.0
H2686 H 0.48562 1.00451 0.29733 0.0
H2687 H 0.48433 0.01822 0.3189 0.0
H2688 H 0.51037 0.01408 0.27015 0.0
H2689 H 0.4649 0.01253 0.26321 0.0
H2690 H 0.47166 0.02279 0.27396 0.0
H2691 H 0.46986 0.00897 0.28044 0.0
C2692 C 0.49569 0.03778 0.29758 0.0
C2693 C 0.49134 0.03315 0.31001 0.0
C2694 C 0.49635 0.03156 0.28518 0.0
C2695 C 0.4926 0.02061 0.28487 0.0
C2696 C 0.4885 0.01588 0.29728 0.0
H2697 H 0.48588 0.965 0.22479 0.0
H2698 H 0.48718 0.97674 0.24536 0.0
C2699 C 0.48786 0.02207 0.30968 0.0
C2700 C 0.49265 0.01417 0.27153 0.0
H2701 H 0.47548 0.99838 0.24816 0.0
C2702 C 0.50276 0.01135 0.26527 0.0
C2703 C 0.48273 0.01064 0.26512 0.0
C2704 C 0.47165 0.01394 0.27091 0.0
C2705 C 0.50311 1.00193 0.25301 0.0
C2706 C 0.49318 0.99824 0.24678 0.0
C2707 C 0.4831 1.00118 0.25295 0.0
C2708 C 0.49301 0.99106 0.23409 0.0
C2709 C 0.51414 0.99873 0.247 0.0
C2710 C 0.49588 0.99518 0.2208 0.0
C2711 C 0.49478 0.98856 0.20875 0.0
C2712 C 0.49088 0.97761 0.20973 0.0
C2713 C 0.48848 0.97346 0.22327 0.0
C2714 C 0.48937 0.98013 0.2352 0.0
H2715 H 0.52108 1.0011 0.25401 0.0
H2716 H 0.51443 0.98968 0.24517 0.0
H2717 H 0.51528 1.00288 0.23671 0.0
H2718 H 0.49862 1.00364 0.21967 0.0
H2719 H 0.49664 0.99221 0.19865 0.0
H2720 H 0.73416 0.79232 0.5578 0.0
H2721 H 0.7452 0.79009 0.53645 0.0
H2722 H 0.73906 0.75506 0.53712 0.0
H2723 H 0.72806 0.75726 0.55873 0.0
H2724 H 0.76454 0.77579 0.53268 0.0
H2725 H 0.72989 0.76544 0.49664 0.0
H2726 H 0.72766 0.77208 0.51341 0.0
H2727 H 0.73113 0.75769 0.51272 0.0
C2728 C 0.7352 0.78413 0.55342 0.0
C2729 C 0.7303 0.77495 0.55994 0.0
C2730 C 0.7415 0.78287 0.54123 0.0
C2731 C 0.74288 0.77243 0.53509 0.0
C2732 C 0.73802 0.76321 0.54159 0.0
H2733 H 0.77571 0.75856 0.45404 0.0
H2734 H 0.76496 0.75644 0.47574 0.0
C2735 C 0.73183 0.76445 0.55397 0.0
C2736 C 0.74954 0.77135 0.52203 0.0
H2737 H 0.74755 0.76688 0.48662 0.0
C2738 C 0.76084 0.77378 0.52262 0.0
C2739 C 0.74477 0.76855 0.50894 0.0
C2740 C 0.73268 0.76583 0.50775 0.0
C2741 C 0.76744 0.77361 0.51049 0.0
C2742 C 0.76256 0.77145 0.49724 0.0
C2743 C 0.75132 0.76866 0.49671 0.0
C2744 C 0.76889 0.77266 0.48385 0.0
C2745 C 0.77966 0.77556 0.51209 0.0
C2746 C 0.77445 0.78255 0.48095 0.0
C2747 C 0.78055 0.78378 0.46862 0.0
C2748 C 0.78122 0.7752 0.45868 0.0
C2749 C 0.77538 0.76537 0.46138 0.0
C2750 C 0.76926 0.76413 0.47383 0.0
H2751 H 0.78255 0.77322 0.52277 0.0
H2752 H 0.78445 0.77077 0.50423 0.0
H2753 H 0.78143 0.78446 0.51062 0.0
H2754 H 0.77398 0.78943 0.48818 0.0
H2755 H 0.78461 0.79161 0.46679 0.0
H2756 H 0.49057 0.46687 0.79528 0.0
H2757 H 0.4919 0.47729 0.77351 0.0
H2758 H 0.48795 0.50767 0.79652 0.0
H2759 H 0.48628 0.49733 0.81838 0.0
H2760 H 0.47693 0.49032 0.76132 0.0
H2761 H 0.51419 0.51518 0.77251 0.0
H2762 H 0.51036 0.50332 0.78289 0.0
H2763 H 0.50379 0.51645 0.78583 0.0
C2764 C 0.48989 0.47576 0.79582 0.0
C2765 C 0.48823 0.48118 0.80876 0.0
C2766 C 0.49076 0.48173 0.78329 0.0
C2767 C 0.4902 0.49329 0.78334 0.0
C2768 C 0.48872 0.49877 0.79621 0.0
H2769 H 0.48618 0.54498 0.72113 0.0
H2770 H 0.48773 0.53377 0.74223 0.0
C2771 C 0.48776 0.4928 0.80876 0.0
C2772 C 0.49053 0.49954 0.76986 0.0
H2773 H 0.50352 0.52068 0.75274 0.0
C2774 C 0.48282 0.49689 0.7594 0.0
C2775 C 0.49821 0.5081 0.76729 0.0
C2776 C 0.50718 0.51087 0.77766 0.0
C2777 C 0.48233 0.50278 0.7467 0.0
C2778 C 0.48987 0.51149 0.74422 0.0
C2779 C 0.49769 0.51404 0.75461 0.0
C2780 C 0.48951 0.51828 0.73116 0.0
C2781 C 0.47344 0.49984 0.73628 0.0
C2782 C 0.4903 0.5134 0.71781 0.0
C2783 C 0.48912 0.51979 0.70561 0.0
C2784 C 0.48733 0.53125 0.70647 0.0
C2785 C 0.48717 0.53616 0.71991 0.0
C2786 C 0.48819 0.52976 0.73207 0.0
H2787 H 0.46669 0.49501 0.74123 0.0
H2788 H 0.46983 0.50736 0.73146 0.0
H2789 H 0.47707 0.4947 0.72781 0.0
H2790 H 0.49167 0.50461 0.71679 0.0
H2791 H 0.4893 0.51564 0.69553 0.0
H2792 H 0.76474 0.2397 0.07187 0.0
H2793 H 0.75387 0.24181 0.05033 0.0
H2794 H 0.78361 0.24008 0.02564 0.0
H2795 H 0.79454 0.23831 0.04693 0.0
H2796 H 0.75418 0.25685 0.02757 0.0
H2797 H 0.7655 0.21479 1.0062 0.0
H2798 H 0.76783 0.21947 0.02756 0.0
H2799 H 0.77708 0.22343 0.01365 0.0
C2800 C 0.76902 0.23994 0.0619 0.0
C2801 C 0.78057 0.23857 0.06127 0.0
C2802 C 0.76277 0.2411 0.04956 0.0
C2803 C 0.76789 0.24081 0.03633 0.0
C2804 C 0.77941 0.23999 0.03569 0.0
H2805 H 0.74541 0.23701 0.94595 0.0
H2806 H 0.75627 0.23913 0.96742 0.0
C2807 C 0.78566 0.23891 0.04796 0.0
C2808 C 0.76124 0.24094 0.02315 0.0
H2809 H 0.75586 0.22588 0.98996 0.0
C2810 C 0.75448 0.25005 0.02016 0.0
C2811 C 0.76164 0.2321 0.01344 0.0
C2812 C 0.7683 0.22184 0.0163 0.0
C2813 C 0.74839 0.25067 1.00397 0.0
C2814 C 0.74881 0.24181 0.99427 0.0
C2815 C 0.75556 0.23271 0.99731 0.0
C2816 C 0.7422 0.24162 0.98103 0.0
C2817 C 0.74177 0.26093 1.00102 0.0
C2818 C 0.73065 0.24241 0.98143 0.0
C2819 C 0.72441 0.24137 0.96912 0.0
C2820 C 0.72953 0.2393 0.95606 0.0
C2821 C 0.74113 0.23872 0.95568 0.0
C2822 C 0.74737 0.23984 0.96801 0.0
H2823 H 0.74468 0.26802 0.01097 0.0
H2824 H 0.74217 0.26316 0.98971 0.0
H2825 H 0.73302 0.25942 1.00382 0.0
H2826 H 0.7264 0.24354 0.99133 0.0
H2827 H 0.71553 0.24209 0.96991 0.0
H2828 H 0.04163 0.53727 0.30137 0.0
H2829 H 0.03989 0.5268 0.2797 0.0
H2830 H 0.00966 0.51228 0.2948 0.0
H2831 H 0.01104 0.52321 0.31638 0.0
H2832 H 0.03996 0.50486 0.2764 0.0
H2833 H 0.99749 0.52141 0.2558 0.0
H2834 H 0.00799 0.52809 0.26976 0.0
H2835 H 0.99685 0.51606 0.27337 0.0
C2836 C 0.03445 0.53206 0.30004 0.0
C2837 C 0.02642 0.53121 0.31067 0.0
C2838 C 0.03352 0.52598 0.28763 0.0
C2839 C 0.02456 0.51885 0.28546 0.0
C2840 C 0.01653 0.51791 0.29605 0.0
H2841 H 0.01445 0.47061 0.21781 0.0
H2842 H 0.01311 0.48104 0.23989 0.0
C2843 C 0.01742 0.52405 0.3085 0.0
C2844 C 0.02404 0.51209 0.27239 0.0
H2845 H 0.00848 0.50668 0.24315 0.0
C2846 C 0.03306 0.50529 0.26915 0.0
C2847 C 0.01503 0.51257 0.26292 0.0
C2848 C 1.00236 0.51999 0.26553 0.0
C2849 C 0.03333 0.49901 0.25676 0.0
C2850 C 0.02443 0.49962 0.24721 0.0
C2851 C 0.01531 0.50625 0.2505 0.0
C2852 C 0.02472 0.49365 0.2336 0.0
C2853 C 0.0431 0.49167 0.25394 0.0
C2854 C 0.0316 0.49736 0.22273 0.0
C2855 C 0.03229 0.4915 0.21008 0.0
C2856 C 0.02621 0.48174 0.20812 0.0
C2857 C 0.01926 0.47808 0.21902 0.0
C2858 C 0.01845 0.48404 0.2316 0.0
H2859 H 0.04854 0.49084 0.26329 0.0
H2860 H 0.04028 0.48332 0.2507 0.0
H2861 H 0.04802 0.49518 0.24518 0.0
H2862 H 0.03652 0.50474 0.22409 0.0
H2863 H 0.03782 0.49445 0.20196 0.0
H2864 H 0.23388 0.22234 0.55738 0.0
H2865 H 0.24524 0.2242 0.53646 0.0
H2866 H 0.23949 0.25936 0.53645 0.0
H2867 H 0.22858 0.25754 0.55803 0.0
H2868 H 0.24084 0.22941 0.51203 0.0
H2869 H 0.27101 0.26094 0.52932 0.0
H2870 H 0.26143 0.25465 0.54137 0.0
H2871 H 0.25706 0.26581 0.53009 0.0
C2872 C 0.23514 0.2305 0.55302 0.0
C2873 C 0.23039 0.2398 0.55942 0.0
C2874 C 0.24164 0.23157 0.54099 0.0
C2875 C 0.24348 0.24196 0.53485 0.0
C2876 C 0.23863 0.25129 0.54117 0.0
H2877 H 0.27688 0.25723 0.45491 0.0
H2878 H 0.26559 0.25838 0.47625 0.0
C2879 C 0.2323 0.25024 0.55347 0.0
C2880 C 0.25001 0.24271 0.52152 0.0
H2881 H 0.27155 0.2559 0.50531 0.0
C2882 C 0.24759 0.23519 0.5107 0.0
C2883 C 0.25878 0.25031 0.51949 0.0
C2884 C 0.26229 0.25831 0.53074 0.0
C2885 C 0.25369 0.23494 0.49818 0.0
C2886 C 0.2625 0.24242 0.49625 0.0
C2887 C 0.26478 0.25016 0.5068 0.0
C2888 C 0.26965 0.24198 0.48355 0.0
C2889 C 0.25055 0.2267 0.48703 0.0
C2890 C 0.27581 0.23245 0.48065 0.0
C2891 C 0.28215 0.23171 0.46844 0.0
C2892 C 0.28263 0.24055 0.45884 0.0
C2893 C 0.27661 0.2502 0.46191 0.0
C2894 C 0.27022 0.25091 0.47418 0.0
H2895 H 0.24202 0.22356 0.48853 0.0
H2896 H 0.25119 0.2304 0.47638 0.0
H2897 H 0.25626 0.21955 0.48757 0.0
H2898 H 0.27565 0.22551 0.48782 0.0
H2899 H 0.2865 0.22407 0.46643 0.0
H2900 H 0.50985 0.4903 0.31864 0.0
H2901 H 0.50836 0.50191 0.29766 0.0
H2902 H 0.533 0.48212 0.27697 0.0
H2903 H 0.53494 0.47082 0.29784 0.0
H2904 H 0.525 0.51433 0.28383 0.0
H2905 H 0.50779 0.48246 0.24835 0.0
H2906 H 0.50757 0.48115 0.26726 0.0
H2907 H 0.52 0.47821 0.25761 0.0
C2908 C 0.51504 0.48843 0.30971 0.0
C2909 C 0.52244 0.47944 0.31009 0.0
C2910 C 0.51411 0.49505 0.29765 0.0
C2911 C 0.52042 0.49278 0.28563 0.0
C2912 C 0.52782 0.48389 0.28596 0.0
H2913 H 0.53053 0.51822 0.20178 0.0
H2914 H 0.52944 0.50758 0.22351 0.0
C2915 C 0.52886 0.47736 0.298 0.0
C2916 C 0.5196 0.49983 0.27283 0.0
H2917 H 0.51425 0.49883 0.2376 0.0
C2918 C 0.52256 0.51099 0.27372 0.0
C2919 C 0.51645 0.49547 0.25964 0.0
C2920 C 0.51267 0.48369 0.25812 0.0
C2921 C 0.52291 0.51778 0.26172 0.0
C2922 C 0.5199 0.51339 0.24842 0.0
C2923 C 0.51667 0.50226 0.24766 0.0
C2924 C 0.52035 0.51999 0.23511 0.0
C2925 C 0.527 0.52944 0.26344 0.0
C2926 C 0.51544 0.53048 0.23411 0.0
C2927 C 0.51624 0.53668 0.22171 0.0
C2928 C 0.52166 0.5324 0.20982 0.0
C2929 C 0.52621 0.52175 0.21066 0.0
C2930 C 0.52561 0.51565 0.22315 0.0
H2931 H 0.53214 0.53036 0.27305 0.0
H2932 H 0.53199 0.53209 0.25426 0.0
H2933 H 0.51983 0.53506 0.26454 0.0
H2934 H 0.51089 0.5339 0.24286 0.0
H2935 H 0.51245 0.54477 0.22138 0.0
H2936 H 0.22599 0.78767 0.96591 0.0
H2937 H 0.23691 0.78597 0.9872 0.0
H2938 H 0.24789 0.75373 0.97409 0.0
H2939 H 0.23686 0.75532 0.95265 0.0
H2940 H 0.23626 0.77227 0.01226 0.0
H2941 H 0.27698 0.76748 0.98268 0.0
H2942 H 0.26473 0.77142 0.97313 0.0
H2943 H 0.26708 0.75718 0.97771 0.0
C2944 C 0.2306 0.78013 0.96752 0.0
C2945 C 0.23047 0.77163 0.9574 0.0
C2946 C 0.23694 0.77921 0.97975 0.0
C2947 C 0.24344 0.76982 0.98221 0.0
C2948 C 0.24323 0.76123 0.97228 0.0
H2949 H 0.28469 0.75447 0.06003 0.0
H2950 H 0.27322 0.7526 0.03875 0.0
C2951 C 0.23688 0.76214 0.95999 0.0
C2952 C 0.25028 0.76911 0.99527 0.0
H2953 H 0.27668 0.76582 0.01103 0.0
C2954 C 0.2451 0.77084 0.01193 0.0
C2955 C 0.26184 0.76724 0.99498 0.0
C2956 C 0.26801 0.76582 0.98138 0.0
C2957 C 0.25115 0.77083 0.02454 0.0
C2958 C 0.26267 0.76907 0.02421 0.0
C2959 C 0.26782 0.7671 0.01127 0.0
C2960 C 0.26956 0.77002 0.0371 0.0
C2961 C 0.2452 0.77266 0.03821 0.0
C2962 C 0.27133 0.78041 0.04317 0.0
C2963 C 0.27789 0.7815 0.05518 0.0
C2964 C 0.28279 0.77221 0.0615 0.0
C2965 C 0.28093 0.76176 0.0555 0.0
C2966 C 0.27445 0.76069 0.04331 0.0
H2967 H 0.2361 0.772 0.03699 0.0
H2968 H 0.24799 0.76656 0.04618 0.0
H2969 H 0.24718 0.78103 0.04223 0.0
H2970 H 0.26769 0.78772 0.03853 0.0
H2971 H 0.2791 0.78966 0.05957 0.0
H2972 H 0.97363 0.54011 0.79655 0.0
H2973 H 0.97556 0.52888 0.77557 0.0
H2974 H 1.00412 0.51296 0.79343 0.0
H2975 H 1.00238 0.52436 0.81455 0.0
H2976 H 0.99209 0.52717 0.75661 0.0
H2977 H 0.98588 0.48654 0.78233 0.0
H2978 H 0.98291 0.49941 0.7911 0.0
H2979 H 0.99693 0.49468 0.78944 0.0
C2980 C 0.98044 0.53434 0.79606 0.0
C2981 C 0.98787 0.53323 0.80739 0.0
C2982 C 0.98147 0.52784 0.78401 0.0
C2983 C 0.98986 0.5199 0.78295 0.0
C2984 C 0.99738 0.5188 0.79412 0.0
H2985 H 1.00294 0.47186 0.71557 0.0
H2986 H 1.00426 0.4832 0.73697 0.0
C2987 C 0.99637 0.52536 0.80623 0.0
C2988 C 0.99069 0.51296 0.77004 0.0
H2989 H 0.98978 0.48633 0.75812 0.0
C2990 C 0.99158 0.51824 0.75697 0.0
C2991 C 0.99013 0.50129 0.77043 0.0
C2992 C 0.98882 0.49512 0.78405 0.0
C2993 C 0.99193 0.5122 0.74436 0.0
C2994 C 0.99107 0.50055 0.74471 0.0
C2995 C 0.99041 0.49525 0.75779 0.0
C2996 C 0.99048 0.49379 0.73162 0.0
C2997 C 0.99347 0.51839 0.73079 0.0
C2998 C 0.98225 0.49584 0.72153 0.0
C2999 C 0.98162 0.4895 0.70926 0.0
C3000 C 0.98909 0.48086 0.70691 0.0
C3001 C 0.9972 0.47861 0.71708 0.0
C3002 C 0.99791 0.48504 0.72931 0.0
H3003 H 0.9972 0.52665 0.73258 0.0
H3004 H 0.99881 0.5137 0.72342 0.0
H3005 H 0.98531 0.51966 0.72574 0.0
H3006 H 0.97617 0.50225 0.72323 0.0
H3007 H 0.97514 0.4912 0.70171 0.0
loop_
_geom_bond_atom_site_label_1
_geom_bond_atom_site_label_2
_geom_bond_distance
_geom_bond_site_symmetry_2
_ccdc_geom_bond_type
C0 C1 1.264 . S
C0 C5 1.479 . S
C0 C10 1.465 . S
C1 C0 1.264 . S
C1 C3 1.339 . S
C1 H28 0.931 . S
C2 C3 1.395 . S
C2 C4 1.320 . S
C3 C1 1.339 . S
C3 C2 1.395 . S
C3 H29 0.929 . S
C4 C2 1.320 . S
C4 C5 1.405 . S
C4 H30 0.930 . S
C5 C0 1.479 . S
C5 C4 1.405 . S
C5 H31 0.931 . S
U6 O7 2.454 . S
U6 O8 2.458 . S
U6 C9 2.984 . S
U6 C10 2.847 . S
U6 C23 2.882 . S
U6 O24 2.441 . S
U6 O25 2.420 . S
U6 O26 2.455 . S
U6 O27 2.449 . S
O7 U6 2.454 . S
O7 C9 1.353 . S
O8 U6 2.458 . S
O8 C9 1.286 . S
C9 U6 2.984 . S
C9 O7 1.353 . S
C9 O8 1.286 . S
C9 C11 1.363 . S
C10 C0 1.465 . S
C10 U6 2.847 . S
C10 O24 1.249 . S
C10 O25 1.202 . S
C11 C9 1.363 . S
C11 C13 1.408 . S
C11 C16 1.342 . S
C12 C13 1.310 . S
C12 C15 1.461 . S
C12 H32 0.932 . S
C13 C11 1.408 . S
C13 C12 1.310 . S
C13 H33 0.930 . S
C14 C15 1.474 . S
C14 C16 1.285 . S
C14 H34 0.929 . S
C15 C12 1.461 . S
C15 C14 1.474 . S
C16 C11 1.342 . S
C16 C14 1.285 . S
C16 H35 0.930 . S
C17 C20 1.424 . S
C17 C22 1.245 . S
C17 C23 1.428 . S
C18 C21 1.260 . S
C18 C22 1.477 . S
C18 H36 0.932 . S
C19 C20 1.384 . S
C19 C21 1.479 . S
C19 H37 0.929 . S
C20 C17 1.424 . S
C20 C19 1.384 . S
C20 H38 0.928 . S
C21 C18 1.260 . S
C21 C19 1.479 . S
C22 C17 1.245 . S
C22 C18 1.477 . S
C22 H39 0.932 . S
C23 U6 2.882 . S
C23 C17 1.428 . S
C23 O26 1.301 . S
C23 O27 1.282 . S
O24 U6 2.441 . S
O24 C10 1.249 . S
O25 U6 2.420 . S
O25 C10 1.202 . S
O26 U6 2.455 . S
O26 C23 1.301 . S
O27 U6 2.449 . S
O27 C23 1.282 . S
H28 C1 0.931 . S
H29 C3 0.929 . S
H30 C4 0.930 . S
H31 C5 0.931 . S
H32 C12 0.932 . S
H33 C13 0.930 . S
H34 C14 0.929 . S
H35 C16 0.930 . S
H36 C18 0.932 . S
H37 C19 0.929 . S
H38 C20 0.928 . S
H39 C22 0.932 . S
C40 C41 1.264 . S
C40 C45 1.479 . S
C40 C50 1.465 . S
C41 C40 1.264 . S
C41 C43 1.339 . S
C41 H68 0.931 . S
C42 C43 1.395 . S
C42 C44 1.320 . S
C43 C41 1.339 . S
C43 C42 1.395 . S
C43 H69 0.929 . S
C44 C42 1.320 . S
C44 C45 1.405 . S
C44 H70 0.930 . S
C45 C40 1.479 . S
C45 C44 1.405 . S
C45 H71 0.931 . S
U46 O47 2.454 . S
U46 O48 2.458 . S
U46 C49 2.984 . S
U46 C50 2.847 . S
U46 C63 2.882 . S
U46 O64 2.441 . S
U46 O65 2.420 . S
U46 O66 2.455 . S
U46 O67 2.449 . S
O47 U46 2.454 . S
O47 C49 1.353 . S
O48 U46 2.458 . S
O48 C49 1.286 . S
C49 U46 2.984 . S
C49 O47 1.353 . S
C49 O48 1.286 . S
C49 C51 1.363 . S
C50 C40 1.465 . S
C50 U46 2.847 . S
C50 O64 1.249 . S
C50 O65 1.202 . S
C51 C49 1.363 . S
C51 C53 1.408 . S
C51 C56 1.342 . S
C52 C53 1.310 . S
C52 C55 1.461 . S
C52 H72 0.932 . S
C53 C51 1.408 . S
C53 C52 1.310 . S
C53 H73 0.930 . S
C54 C55 1.474 . S
C54 C56 1.285 . S
C54 H74 0.929 1_655 S
C55 C52 1.461 . S
C55 C54 1.474 . S
C56 C51 1.342 . S
C56 C54 1.285 . S
C56 H75 0.930 . S
C57 C60 1.424 . S
C57 C62 1.245 . S
C57 C63 1.428 . S
C58 C61 1.260 . S
C58 C62 1.477 . S
C58 H76 0.932 . S
C59 C60 1.384 . S
C59 C61 1.479 . S
C59 H77 0.929 . S
C60 C57 1.424 . S
C60 C59 1.384 . S
C60 H78 0.928 . S
C61 C58 1.260 . S
C61 C59 1.479 . S
C62 C57 1.245 . S
C62 C58 1.477 . S
C62 H79 0.932 . S
C63 U46 2.882 . S
C63 C57 1.428 . S
C63 O66 1.301 . S
C63 O67 1.282 . S
O64 U46 2.441 . S
O64 C50 1.249 . S
O65 U46 2.420 . S
O65 C50 1.202 . S
O66 U46 2.455 . S
O66 C63 1.301 . S
O67 U46 2.449 . S
O67 C63 1.282 . S
H68 C41 0.931 . S
H69 C43 0.929 . S
H70 C44 0.930 . S
H71 C45 0.931 . S
H72 C52 0.932 . S
H73 C53 0.930 . S
H74 C54 0.929 1_455 S
H75 C56 0.930 . S
H76 C58 0.932 . S
H77 C59 0.929 . S
H78 C60 0.928 . S
H79 C62 0.932 . S
C80 C81 1.264 . S
C80 C85 1.479 . S
C80 C90 1.465 . S
C81 C80 1.264 . S
C81 C83 1.339 . S
C81 H108 0.931 . S
C82 C83 1.395 . S
C82 C84 1.320 . S
C83 C81 1.339 . S
C83 C82 1.395 . S
C83 H109 0.929 . S
C84 C82 1.320 . S
C84 C85 1.405 . S
C84 H110 0.930 . S
C85 C80 1.479 . S
C85 C84 1.405 . S
C85 H111 0.931 . S
U86 O87 2.454 . S
U86 O88 2.458 . S
U86 C89 2.984 . S
U86 C90 2.847 . S
U86 C103 2.882 . S
U86 O104 2.441 . S
U86 O105 2.420 . S
U86 O106 2.455 . S
U86 O107 2.449 . S
O87 U86 2.454 . S
O87 C89 1.353 . S
O88 U86 2.458 . S
O88 C89 1.286 . S
C89 U86 2.984 . S
C89 O87 1.353 . S
C89 O88 1.286 . S
C89 C91 1.363 . S
C90 C80 1.465 . S
C90 U86 2.847 . S
C90 O104 1.249 . S
C90 O105 1.202 . S
C91 C89 1.363 . S
C91 C93 1.408 . S
C91 C96 1.342 . S
C92 C93 1.310 . S
C92 C95 1.461 . S
C92 H112 0.932 . S
C93 C91 1.408 . S
C93 C92 1.310 . S
C93 H113 0.930 . S
C94 C95 1.474 . S
C94 C96 1.285 . S
C94 H114 0.929 . S
C95 C92 1.461 . S
C95 C94 1.474 . S
C96 C91 1.342 . S
C96 C94 1.285 . S
C96 H115 0.930 . S
C97 C100 1.424 . S
C97 C102 1.245 . S
C97 C103 1.428 . S
C98 C101 1.260 . S
C98 C102 1.477 . S
C98 H116 0.932 . S
C99 C100 1.384 . S
C99 C101 1.479 . S
C99 H117 0.929 . S
C100 C97 1.424 . S
C100 C99 1.384 . S
C100 H118 0.928 . S
C101 C98 1.260 . S
C101 C99 1.479 . S
C102 C97 1.245 . S
C102 C98 1.477 . S
C102 H119 0.932 . S
C103 U86 2.882 . S
C103 C97 1.428 . S
C103 O106 1.301 . S
C103 O107 1.282 . S
O104 U86 2.441 . S
O104 C90 1.249 . S
O105 U86 2.420 . S
O105 C90 1.202 . S
O106 U86 2.455 . S
O106 C103 1.301 . S
O107 U86 2.449 . S
O107 C103 1.282 . S
H108 C81 0.931 . S
H109 C83 0.929 . S
H110 C84 0.930 . S
H111 C85 0.931 . S
H112 C92 0.932 . S
H113 C93 0.930 . S
H114 C94 0.929 . S
H115 C96 0.930 . S
H116 C98 0.932 . S
H117 C99 0.929 . S
H118 C100 0.928 . S
H119 C102 0.932 . S
C120 C121 1.264 . S
C120 C125 1.479 . S
C120 C130 1.465 . S
C121 C120 1.264 . S
C121 C123 1.339 . S
C121 H148 0.931 . S
C122 C123 1.395 . S
C122 C124 1.320 . S
C123 C121 1.339 . S
C123 C122 1.395 . S
C123 H149 0.929 . S
C124 C122 1.320 . S
C124 C125 1.405 . S
C124 H150 0.930 . S
C125 C120 1.479 . S
C125 C124 1.405 . S
C125 H151 0.931 . S
U126 O127 2.454 . S
U126 O128 2.458 . S
U126 C129 2.984 . S
U126 C130 2.847 . S
U126 C143 2.882 . S
U126 O144 2.441 . S
U126 O145 2.420 . S
U126 O146 2.455 . S
U126 O147 2.449 . S
O127 U126 2.454 . S
O127 C129 1.353 . S
O128 U126 2.458 . S
O128 C129 1.286 . S
C129 U126 2.984 . S
C129 O127 1.353 . S
C129 O128 1.286 . S
C129 C131 1.363 . S
C130 C120 1.465 . S
C130 U126 2.847 . S
C130 O144 1.249 . S
C130 O145 1.202 . S
C131 C129 1.363 . S
C131 C133 1.408 . S
C131 C136 1.342 . S
C132 C133 1.310 . S
C132 C135 1.461 . S
C132 H152 0.932 . S
C133 C131 1.408 . S
C133 C132 1.310 . S
C133 H153 0.930 . S
C134 C135 1.474 . S
C134 C136 1.285 . S
C134 H154 0.929 . S
C135 C132 1.461 . S
C135 C134 1.474 . S
C136 C131 1.342 . S
C136 C134 1.285 . S
C136 H155 0.930 . S
C137 C140 1.424 . S
C137 C142 1.245 . S
C137 C143 1.428 . S
C138 C141 1.260 . S
C138 C142 1.477 . S
C138 H156 0.932 . S
C139 C140 1.384 . S
C139 C141 1.479 . S
C139 H157 0.929 . S
C140 C137 1.424 . S
C140 C139 1.384 . S
C140 H158 0.928 . S
C141 C138 1.260 . S
C141 C139 1.479 . S
C142 C137 1.245 . S
C142 C138 1.477 . S
C142 H159 0.932 . S
C143 U126 2.882 . S
C143 C137 1.428 . S
C143 O146 1.301 . S
C143 O147 1.282 . S
O144 U126 2.441 . S
O144 C130 1.249 . S
O145 U126 2.420 . S
O145 C130 1.202 . S
O146 U126 2.455 . S
O146 C143 1.301 . S
O147 U126 2.449 . S
O147 C143 1.282 . S
H148 C121 0.931 . S
H149 C123 0.929 . S
H150 C124 0.930 . S
H151 C125 0.931 . S
H152 C132 0.932 . S
H153 C133 0.930 . S
H154 C134 0.929 . S
H155 C136 0.930 . S
H156 C138 0.932 . S
H157 C139 0.929 . S
H158 C140 0.928 . S
H159 C142 0.932 . S
C160 C161 1.264 . S
C160 C165 1.479 . S
C160 C170 1.465 . S
C161 C160 1.264 . S
C161 C163 1.339 . S
C161 H188 0.931 . S
C162 C163 1.395 . S
C162 C164 1.320 . S
C163 C161 1.339 . S
C163 C162 1.395 . S
C163 H189 0.929 . S
C164 C162 1.320 . S
C164 C165 1.405 . S
C164 H190 0.930 . S
C165 C160 1.479 . S
C165 C164 1.405 . S
C165 H191 0.931 . S
U166 O167 2.454 . S
U166 O168 2.458 . S
U166 C169 2.984 . S
U166 C170 2.847 . S
U166 C183 2.882 . S
U166 O184 2.441 . S
U166 O185 2.420 . S
U166 O186 2.455 . S
U166 O187 2.449 . S
O167 U166 2.454 . S
O167 C169 1.353 . S
O168 U166 2.458 . S
O168 C169 1.286 . S
C169 U166 2.984 . S
C169 O167 1.353 . S
C169 O168 1.286 . S
C169 C171 1.363 . S
C170 C160 1.465 . S
C170 U166 2.847 . S
C170 O184 1.249 . S
C170 O185 1.202 . S
C171 C169 1.363 . S
C171 C173 1.408 . S
C171 C176 1.342 . S
C172 C173 1.310 . S
C172 C175 1.461 . S
C172 H192 0.932 . S
C173 C171 1.408 . S
C173 C172 1.310 . S
C173 H193 0.930 . S
C174 C175 1.474 . S
C174 C176 1.285 . S
C174 H194 0.929 . S
C175 C172 1.461 . S
C175 C174 1.474 . S
C176 C171 1.342 . S
C176 C174 1.285 . S
C176 H195 0.930 . S
C177 C180 1.424 . S
C177 C182 1.245 . S
C177 C183 1.428 . S
C178 C181 1.260 . S
C178 C182 1.477 . S
C178 H196 0.932 . S
C179 C180 1.384 . S
C179 C181 1.479 . S
C179 H197 0.929 . S
C180 C177 1.424 . S
C180 C179 1.384 . S
C180 H198 0.928 . S
C181 C178 1.260 . S
C181 C179 1.479 . S
C182 C177 1.245 . S
C182 C178 1.477 . S
C182 H199 0.932 . S
C183 U166 2.882 . S
C183 C177 1.428 . S
C183 O186 1.301 . S
C183 O187 1.282 . S
O184 U166 2.441 . S
O184 C170 1.249 . S
O185 U166 2.420 . S
O185 C170 1.202 . S
O186 U166 2.455 . S
O186 C183 1.301 . S
O187 U166 2.449 . S
O187 C183 1.282 . S
H188 C161 0.931 . S
H189 C163 0.929 . S
H190 C164 0.930 . S
H191 C165 0.931 . S
H192 C172 0.932 . S
H193 C173 0.930 . S
H194 C174 0.929 . S
H195 C176 0.930 . S
H196 C178 0.932 . S
H197 C179 0.929 . S
H198 C180 0.928 . S
H199 C182 0.932 . S
C200 C201 1.264 . S
C200 C205 1.479 . S
C200 C210 1.465 . S
C201 C200 1.264 . S
C201 C203 1.339 . S
C201 H228 0.931 . S
C202 C203 1.395 . S
C202 C204 1.320 . S
C203 C201 1.339 . S
C203 C202 1.395 . S
C203 H229 0.929 . S
C204 C202 1.320 . S
C204 C205 1.405 . S
C204 H230 0.930 . S
C205 C200 1.479 . S
C205 C204 1.405 . S
C205 H231 0.931 . S
U206 O207 2.454 . S
U206 O208 2.458 . S
U206 C209 2.984 . S
U206 C210 2.847 . S
U206 C223 2.882 . S
U206 O224 2.441 . S
U206 O225 2.420 . S
U206 O226 2.455 . S
U206 O227 2.449 . S
O207 U206 2.454 . S
O207 C209 1.353 . S
O208 U206 2.458 . S
O208 C209 1.286 . S
C209 U206 2.984 . S
C209 O207 1.353 . S
C209 O208 1.286 . S
C209 C211 1.363 . S
C210 C200 1.465 . S
C210 U206 2.847 . S
C210 O224 1.249 . S
C210 O225 1.202 . S
C211 C209 1.363 . S
C211 C213 1.408 . S
C211 C216 1.342 . S
C212 C213 1.310 . S
C212 C215 1.461 . S
C212 H232 0.932 . S
C213 C211 1.408 . S
C213 C212 1.310 . S
C213 H233 0.930 . S
C214 C215 1.474 . S
C214 C216 1.285 . S
C214 H234 0.929 . S
C215 C212 1.461 . S
C215 C214 1.474 . S
C216 C211 1.342 . S
C216 C214 1.285 . S
C216 H235 0.930 . S
C217 C220 1.424 . S
C217 C222 1.245 . S
C217 C223 1.428 . S
C218 C221 1.260 . S
C218 C222 1.477 . S
C218 H236 0.932 . S
C219 C220 1.384 . S
C219 C221 1.479 . S
C219 H237 0.929 . S
C220 C217 1.424 . S
C220 C219 1.384 . S
C220 H238 0.928 . S
C221 C218 1.260 . S
C221 C219 1.479 . S
C222 C217 1.245 . S
C222 C218 1.477 . S
C222 H239 0.932 . S
C223 U206 2.882 . S
C223 C217 1.428 . S
C223 O226 1.301 . S
C223 O227 1.282 . S
O224 U206 2.441 . S
O224 C210 1.249 . S
O225 U206 2.420 . S
O225 C210 1.202 . S
O226 U206 2.455 . S
O226 C223 1.301 . S
O227 U206 2.449 . S
O227 C223 1.282 . S
H228 C201 0.931 . S
H229 C203 0.929 . S
H230 C204 0.930 . S
H231 C205 0.931 . S
H232 C212 0.932 . S
H233 C213 0.930 . S
H234 C214 0.929 . S
H235 C216 0.930 . S
H236 C218 0.932 . S
H237 C219 0.929 . S
H238 C220 0.928 . S
H239 C222 0.932 . S
C240 C241 1.264 . S
C240 C245 1.479 . S
C240 C250 1.465 . S
C241 C240 1.264 . S
C241 C243 1.339 . S
C241 H268 0.931 . S
C242 C243 1.395 . S
C242 C244 1.320 . S
C243 C241 1.339 . S
C243 C242 1.395 . S
C243 H269 0.929 . S
C244 C242 1.320 . S
C244 C245 1.405 . S
C244 H270 0.930 . S
C245 C240 1.479 . S
C245 C244 1.405 . S
C245 H271 0.931 . S
U246 O247 2.454 . S
U246 O248 2.458 . S
U246 C249 2.984 . S
U246 C250 2.847 . S
U246 C263 2.882 . S
U246 O264 2.441 . S
U246 O265 2.420 . S
U246 O266 2.455 . S
U246 O267 2.449 . S
O247 U246 2.454 . S
O247 C249 1.353 . S
O248 U246 2.458 . S
O248 C249 1.286 . S
C249 U246 2.984 . S
C249 O247 1.353 . S
C249 O248 1.286 . S
C249 C251 1.363 . S
C250 C240 1.465 . S
C250 U246 2.847 . S
C250 O264 1.249 . S
C250 O265 1.202 . S
C251 C249 1.363 . S
C251 C253 1.408 . S
C251 C256 1.342 . S
C252 C253 1.310 . S
C252 C255 1.461 . S
C252 H272 0.932 . S
C253 C251 1.408 . S
C253 C252 1.310 . S
C253 H273 0.930 . S
C254 C255 1.474 . S
C254 C256 1.285 . S
C254 H274 0.929 . S
C255 C252 1.461 . S
C255 C254 1.474 . S
C256 C251 1.342 . S
C256 C254 1.285 . S
C256 H275 0.930 . S
C257 C260 1.424 . S
C257 C262 1.245 . S
C257 C263 1.428 . S
C258 C261 1.260 . S
C258 C262 1.477 . S
C258 H276 0.932 . S
C259 C260 1.384 . S
C259 C261 1.479 . S
C259 H277 0.929 . S
C260 C257 1.424 . S
C260 C259 1.384 . S
C260 H278 0.928 . S
C261 C258 1.260 . S
C261 C259 1.479 . S
C262 C257 1.245 . S
C262 C258 1.477 . S
C262 H279 0.932 . S
C263 U246 2.882 . S
C263 C257 1.428 . S
C263 O266 1.301 . S
C263 O267 1.282 . S
O264 U246 2.441 . S
O264 C250 1.249 . S
O265 U246 2.420 . S
O265 C250 1.202 . S
O266 U246 2.455 . S
O266 C263 1.301 . S
O267 U246 2.449 . S
O267 C263 1.282 . S
H268 C241 0.931 . S
H269 C243 0.929 . S
H270 C244 0.930 . S
H271 C245 0.931 . S
H272 C252 0.932 . S
H273 C253 0.930 . S
H274 C254 0.929 . S
H275 C256 0.930 . S
H276 C258 0.932 . S
H277 C259 0.929 . S
H278 C260 0.928 . S
H279 C262 0.932 . S
C280 C281 1.264 . S
C280 C285 1.479 . S
C280 C290 1.465 . S
C281 C280 1.264 . S
C281 C283 1.339 . S
C281 H308 0.931 . S
C282 C283 1.395 . S
C282 C284 1.320 . S
C283 C281 1.339 . S
C283 C282 1.395 . S
C283 H309 0.929 . S
C284 C282 1.320 . S
C284 C285 1.405 . S
C284 H310 0.930 . S
C285 C280 1.479 . S
C285 C284 1.405 . S
C285 H311 0.931 . S
U286 O287 2.454 . S
U286 O288 2.458 . S
U286 C289 2.984 . S
U286 C290 2.847 . S
U286 C303 2.882 . S
U286 O304 2.441 . S
U286 O305 2.420 . S
U286 O306 2.455 . S
U286 O307 2.449 . S
O287 U286 2.454 . S
O287 C289 1.353 . S
O288 U286 2.458 . S
O288 C289 1.286 . S
C289 U286 2.984 . S
C289 O287 1.353 . S
C289 O288 1.286 . S
C289 C291 1.363 . S
C290 C280 1.465 . S
C290 U286 2.847 . S
C290 O304 1.249 . S
C290 O305 1.202 . S
C291 C289 1.363 . S
C291 C293 1.408 . S
C291 C296 1.342 . S
C292 C293 1.310 . S
C292 C295 1.461 . S
C292 H312 0.932 . S
C293 C291 1.408 . S
C293 C292 1.310 . S
C293 H313 0.930 . S
C294 C295 1.474 . S
C294 C296 1.285 . S
C294 H314 0.929 1_655 S
C295 C292 1.461 . S
C295 C294 1.474 . S
C296 C291 1.342 . S
C296 C294 1.285 . S
C296 H315 0.930 . S
C297 C300 1.424 . S
C297 C302 1.245 . S
C297 C303 1.428 . S
C298 C301 1.260 . S
C298 C302 1.477 . S
C298 H316 0.932 . S
C299 C300 1.384 . S
C299 C301 1.479 . S
C299 H317 0.929 . S
C300 C297 1.424 . S
C300 C299 1.384 . S
C300 H318 0.928 . S
C301 C298 1.260 . S
C301 C299 1.479 . S
C302 C297 1.245 . S
C302 C298 1.477 . S
C302 H319 0.932 . S
C303 U286 2.882 . S
C303 C297 1.428 . S
C303 O306 1.301 . S
C303 O307 1.282 . S
O304 U286 2.441 . S
O304 C290 1.249 . S
O305 U286 2.420 . S
O305 C290 1.202 . S
O306 U286 2.455 . S
O306 C303 1.301 . S
O307 U286 2.449 . S
O307 C303 1.282 . S
H308 C281 0.931 . S
H309 C283 0.929 . S
H310 C284 0.930 . S
H311 C285 0.931 . S
H312 C292 0.932 . S
H313 C293 0.930 . S
H314 C294 0.929 1_455 S
H315 C296 0.930 . S
H316 C298 0.932 . S
H317 C299 0.929 . S
H318 C300 0.928 . S
H319 C302 0.932 . S
C320 C321 1.264 . S
C320 C325 1.479 . S
C320 C330 1.465 . S
C321 C320 1.264 . S
C321 C323 1.339 . S
C321 H348 0.931 . S
C322 C323 1.395 . S
C322 C324 1.320 . S
C323 C321 1.339 . S
C323 C322 1.395 . S
C323 H349 0.929 . S
C324 C322 1.320 . S
C324 C325 1.405 . S
C324 H350 0.930 . S
C325 C320 1.479 . S
C325 C324 1.405 . S
C325 H351 0.931 . S
U326 O327 2.454 . S
U326 O328 2.458 . S
U326 C329 2.984 . S
U326 C330 2.847 . S
U326 C343 2.882 . S
U326 O344 2.441 . S
U326 O345 2.420 . S
U326 O346 2.455 . S
U326 O347 2.449 . S
O327 U326 2.454 . S
O327 C329 1.353 . S
O328 U326 2.458 . S
O328 C329 1.286 . S
C329 U326 2.984 . S
C329 O327 1.353 . S
C329 O328 1.286 . S
C329 C331 1.363 . S
C330 C320 1.465 . S
C330 U326 2.847 . S
C330 O344 1.249 . S
C330 O345 1.202 . S
C331 C329 1.363 . S
C331 C333 1.408 . S
C331 C336 1.342 . S
C332 C333 1.310 . S
C332 C335 1.461 . S
C332 H352 0.932 . S
C333 C331 1.408 . S
C333 C332 1.310 . S
C333 H353 0.930 . S
C334 C335 1.474 . S
C334 C336 1.285 . S
C334 H354 0.929 . S
C335 C332 1.461 . S
C335 C334 1.474 . S
C336 C331 1.342 . S
C336 C334 1.285 . S
C336 H355 0.930 . S
C337 C340 1.424 . S
C337 C342 1.245 . S
C337 C343 1.428 . S
C338 C341 1.260 . S
C338 C342 1.477 . S
C338 H356 0.932 . S
C339 C340 1.384 . S
C339 C341 1.479 . S
C339 H357 0.929 . S
C340 C337 1.424 . S
C340 C339 1.384 . S
C340 H358 0.928 . S
C341 C338 1.260 . S
C341 C339 1.479 . S
C342 C337 1.245 . S
C342 C338 1.477 . S
C342 H359 0.932 . S
C343 U326 2.882 . S
C343 C337 1.428 . S
C343 O346 1.301 . S
C343 O347 1.282 . S
O344 U326 2.441 . S
O344 C330 1.249 . S
O345 U326 2.420 . S
O345 C330 1.202 . S
O346 U326 2.455 . S
O346 C343 1.301 . S
O347 U326 2.449 . S
O347 C343 1.282 . S
H348 C321 0.931 . S
H349 C323 0.929 . S
H350 C324 0.930 . S
H351 C325 0.931 . S
H352 C332 0.932 . S
H353 C333 0.930 . S
H354 C334 0.929 . S
H355 C336 0.930 . S
H356 C338 0.932 . S
H357 C339 0.929 . S
H358 C340 0.928 . S
H359 C342 0.932 . S
C360 C361 1.264 . S
C360 C365 1.479 . S
C360 C370 1.465 . S
C361 C360 1.264 . S
C361 C363 1.339 . S
C361 H388 0.931 . S
C362 C363 1.395 . S
C362 C364 1.320 . S
C363 C361 1.339 . S
C363 C362 1.395 . S
C363 H389 0.929 . S
C364 C362 1.320 . S
C364 C365 1.405 . S
C364 H390 0.930 . S
C365 C360 1.479 . S
C365 C364 1.405 . S
C365 H391 0.931 . S
U366 O367 2.454 . S
U366 O368 2.458 . S
U366 C369 2.984 . S
U366 C370 2.847 . S
U366 C383 2.882 . S
U366 O384 2.441 . S
U366 O385 2.420 . S
U366 O386 2.455 . S
U366 O387 2.449 . S
O367 U366 2.454 . S
O367 C369 1.353 . S
O368 U366 2.458 . S
O368 C369 1.286 . S
C369 U366 2.984 . S
C369 O367 1.353 . S
C369 O368 1.286 . S
C369 C371 1.363 . S
C370 C360 1.465 . S
C370 U366 2.847 . S
C370 O384 1.249 . S
C370 O385 1.202 . S
C371 C369 1.363 . S
C371 C373 1.408 . S
C371 C376 1.342 . S
C372 C373 1.310 . S
C372 C375 1.461 . S
C372 H392 0.932 . S
C373 C371 1.408 . S
C373 C372 1.310 . S
C373 H393 0.930 . S
C374 C375 1.474 . S
C374 C376 1.285 . S
C374 H394 0.929 1_455 S
C375 C372 1.461 . S
C375 C374 1.474 . S
C376 C371 1.342 . S
C376 C374 1.285 . S
C376 H395 0.930 . S
C377 C380 1.424 . S
C377 C382 1.245 . S
C377 C383 1.428 . S
C378 C381 1.260 . S
C378 C382 1.477 . S
C378 H396 0.932 . S
C379 C380 1.384 . S
C379 C381 1.479 . S
C379 H397 0.929 . S
C380 C377 1.424 . S
C380 C379 1.384 . S
C380 H398 0.928 . S
C381 C378 1.260 . S
C381 C379 1.479 . S
C382 C377 1.245 . S
C382 C378 1.477 . S
C382 H399 0.932 . S
C383 U366 2.882 . S
C383 C377 1.428 . S
C383 O386 1.301 . S
C383 O387 1.282 . S
O384 U366 2.441 . S
O384 C370 1.249 . S
O385 U366 2.420 . S
O385 C370 1.202 . S
O386 U366 2.455 . S
O386 C383 1.301 . S
O387 U366 2.449 . S
O387 C383 1.282 . S
H388 C361 0.931 . S
H389 C363 0.929 . S
H390 C364 0.930 . S
H391 C365 0.931 . S
H392 C372 0.932 . S
H393 C373 0.930 . S
H394 C374 0.929 1_655 S
H395 C376 0.930 . S
H396 C378 0.932 . S
H397 C379 0.929 . S
H398 C380 0.928 . S
H399 C382 0.932 . S
C400 C401 1.264 . S
C400 C405 1.479 . S
C400 C410 1.465 . S
C401 C400 1.264 . S
C401 C403 1.339 . S
C401 H428 0.931 . S
C402 C403 1.395 . S
C402 C404 1.320 . S
C403 C401 1.339 . S
C403 C402 1.395 . S
C403 H429 0.929 . S
C404 C402 1.320 . S
C404 C405 1.405 . S
C404 H430 0.930 . S
C405 C400 1.479 . S
C405 C404 1.405 . S
C405 H431 0.931 . S
U406 O407 2.454 . S
U406 O408 2.458 . S
U406 C409 2.984 . S
U406 C410 2.847 . S
U406 C423 2.882 . S
U406 O424 2.441 . S
U406 O425 2.420 . S
U406 O426 2.455 . S
U406 O427 2.449 . S
O407 U406 2.454 . S
O407 C409 1.353 . S
O408 U406 2.458 . S
O408 C409 1.286 . S
C409 U406 2.984 . S
C409 O407 1.353 . S
C409 O408 1.286 . S
C409 C411 1.363 . S
C410 C400 1.465 . S
C410 U406 2.847 . S
C410 O424 1.249 . S
C410 O425 1.202 . S
C411 C409 1.363 . S
C411 C413 1.408 . S
C411 C416 1.342 . S
C412 C413 1.310 . S
C412 C415 1.461 . S
C412 H432 0.932 . S
C413 C411 1.408 . S
C413 C412 1.310 . S
C413 H433 0.930 . S
C414 C415 1.474 . S
C414 C416 1.285 . S
C414 H434 0.929 . S
C415 C412 1.461 . S
C415 C414 1.474 . S
C416 C411 1.342 . S
C416 C414 1.285 . S
C416 H435 0.930 . S
C417 C420 1.424 . S
C417 C422 1.245 . S
C417 C423 1.428 . S
C418 C421 1.260 . S
C418 C422 1.477 . S
C418 H436 0.932 . S
C419 C420 1.384 . S
C419 C421 1.479 . S
C419 H437 0.929 . S
C420 C417 1.424 . S
C420 C419 1.384 . S
C420 H438 0.928 . S
C421 C418 1.260 . S
C421 C419 1.479 . S
C422 C417 1.245 . S
C422 C418 1.477 . S
C422 H439 0.932 . S
C423 U406 2.882 . S
C423 C417 1.428 . S
C423 O426 1.301 . S
C423 O427 1.282 . S
O424 U406 2.441 . S
O424 C410 1.249 . S
O425 U406 2.420 . S
O425 C410 1.202 . S
O426 U406 2.455 . S
O426 C423 1.301 . S
O427 U406 2.449 . S
O427 C423 1.282 . S
H428 C401 0.931 . S
H429 C403 0.929 . S
H430 C404 0.930 . S
H431 C405 0.931 . S
H432 C412 0.932 . S
H433 C413 0.930 . S
H434 C414 0.929 . S
H435 C416 0.930 . S
H436 C418 0.932 . S
H437 C419 0.929 . S
H438 C420 0.928 . S
H439 C422 0.932 . S
C440 C441 1.264 . S
C440 C445 1.479 . S
C440 C450 1.465 . S
C441 C440 1.264 . S
C441 C443 1.339 . S
C441 H468 0.931 . S
C442 C443 1.395 . S
C442 C444 1.320 . S
C443 C441 1.339 . S
C443 C442 1.395 . S
C443 H469 0.929 . S
C444 C442 1.320 . S
C444 C445 1.405 . S
C444 H470 0.930 . S
C445 C440 1.479 . S
C445 C444 1.405 . S
C445 H471 0.931 . S
U446 O447 2.454 . S
U446 O448 2.458 . S
U446 C449 2.984 . S
U446 C450 2.847 . S
U446 C463 2.882 . S
U446 O464 2.441 . S
U446 O465 2.420 . S
U446 O466 2.455 . S
U446 O467 2.449 . S
O447 U446 2.454 . S
O447 C449 1.353 . S
O448 U446 2.458 . S
O448 C449 1.286 . S
C449 U446 2.984 . S
C449 O447 1.353 . S
C449 O448 1.286 . S
C449 C451 1.363 . S
C450 C440 1.465 . S
C450 U446 2.847 . S
C450 O464 1.249 . S
C450 O465 1.202 . S
C451 C449 1.363 . S
C451 C453 1.408 . S
C451 C456 1.342 . S
C452 C453 1.310 . S
C452 C455 1.461 . S
C452 H472 0.932 . S
C453 C451 1.408 . S
C453 C452 1.310 . S
C453 H473 0.930 . S
C454 C455 1.474 . S
C454 C456 1.285 . S
C454 H474 0.929 . S
C455 C452 1.461 . S
C455 C454 1.474 . S
C456 C451 1.342 . S
C456 C454 1.285 . S
C456 H475 0.930 . S
C457 C460 1.424 . S
C457 C462 1.245 . S
C457 C463 1.428 . S
C458 C461 1.260 . S
C458 C462 1.477 . S
C458 H476 0.932 . S
C459 C460 1.384 . S
C459 C461 1.479 . S
C459 H477 0.929 . S
C460 C457 1.424 . S
C460 C459 1.384 . S
C460 H478 0.928 . S
C461 C458 1.260 . S
C461 C459 1.479 . S
C462 C457 1.245 . S
C462 C458 1.477 . S
C462 H479 0.932 . S
C463 U446 2.882 . S
C463 C457 1.428 . S
C463 O466 1.301 . S
C463 O467 1.282 . S
O464 U446 2.441 . S
O464 C450 1.249 . S
O465 U446 2.420 . S
O465 C450 1.202 . S
O466 U446 2.455 . S
O466 C463 1.301 . S
O467 U446 2.449 . S
O467 C463 1.282 . S
H468 C441 0.931 . S
H469 C443 0.929 . S
H470 C444 0.930 . S
H471 C445 0.931 . S
H472 C452 0.932 . S
H473 C453 0.930 . S
H474 C454 0.929 . S
H475 C456 0.930 . S
H476 C458 0.932 . S
H477 C459 0.929 . S
H478 C460 0.928 . S
H479 C462 0.932 . S
C480 C481 1.264 . S
C480 C485 1.479 . S
C480 C490 1.465 . S
C481 C480 1.264 . S
C481 C483 1.339 . S
C481 H508 0.931 . S
C482 C483 1.395 . S
C482 C484 1.320 . S
C483 C481 1.339 . S
C483 C482 1.395 . S
C483 H509 0.929 . S
C484 C482 1.320 . S
C484 C485 1.405 . S
C484 H510 0.930 . S
C485 C480 1.479 . S
C485 C484 1.405 . S
C485 H511 0.931 . S
U486 O487 2.454 . S
U486 O488 2.458 . S
U486 C489 2.984 . S
U486 C490 2.847 . S
U486 C503 2.882 . S
U486 O504 2.441 . S
U486 O505 2.420 . S
U486 O506 2.455 . S
U486 O507 2.449 . S
O487 U486 2.454 . S
O487 C489 1.353 . S
O488 U486 2.458 . S
O488 C489 1.286 . S
C489 U486 2.984 . S
C489 O487 1.353 . S
C489 O488 1.286 . S
C489 C491 1.363 . S
C490 C480 1.465 . S
C490 U486 2.847 . S
C490 O504 1.249 . S
C490 O505 1.202 . S
C491 C489 1.363 . S
C491 C493 1.408 . S
C491 C496 1.342 . S
C492 C493 1.310 . S
C492 C495 1.461 . S
C492 H512 0.932 . S
C493 C491 1.408 . S
C493 C492 1.310 . S
C493 H513 0.930 . S
C494 C495 1.474 . S
C494 C496 1.285 . S
C494 H514 0.929 . S
C495 C492 1.461 . S
C495 C494 1.474 . S
C496 C491 1.342 . S
C496 C494 1.285 . S
C496 H515 0.930 . S
C497 C500 1.424 . S
C497 C502 1.245 . S
C497 C503 1.428 . S
C498 C501 1.260 . S
C498 C502 1.477 . S
C498 H516 0.932 . S
C499 C500 1.384 . S
C499 C501 1.479 . S
C499 H517 0.929 . S
C500 C497 1.424 . S
C500 C499 1.384 . S
C500 H518 0.928 . S
C501 C498 1.260 . S
C501 C499 1.479 . S
C502 C497 1.245 . S
C502 C498 1.477 . S
C502 H519 0.932 . S
C503 U486 2.882 . S
C503 C497 1.428 . S
C503 O506 1.301 . S
C503 O507 1.282 . S
O504 U486 2.441 . S
O504 C490 1.249 . S
O505 U486 2.420 . S
O505 C490 1.202 . S
O506 U486 2.455 . S
O506 C503 1.301 . S
O507 U486 2.449 . S
O507 C503 1.282 . S
H508 C481 0.931 . S
H509 C483 0.929 . S
H510 C484 0.930 . S
H511 C485 0.931 . S
H512 C492 0.932 . S
H513 C493 0.930 . S
H514 C494 0.929 . S
H515 C496 0.930 . S
H516 C498 0.932 . S
H517 C499 0.929 . S
H518 C500 0.928 . S
H519 C502 0.932 . S
C520 C521 1.264 . S
C520 C525 1.479 . S
C520 C530 1.465 . S
C521 C520 1.264 . S
C521 C523 1.339 . S
C521 H548 0.931 . S
C522 C523 1.395 . S
C522 C524 1.320 . S
C523 C521 1.339 . S
C523 C522 1.395 . S
C523 H549 0.929 . S
C524 C522 1.320 . S
C524 C525 1.405 . S
C524 H550 0.930 . S
C525 C520 1.479 . S
C525 C524 1.405 . S
C525 H551 0.931 . S
U526 O527 2.454 . S
U526 O528 2.458 . S
U526 C529 2.984 . S
U526 C530 2.847 . S
U526 C543 2.882 . S
U526 O544 2.441 . S
U526 O545 2.420 . S
U526 O546 2.455 . S
U526 O547 2.449 . S
O527 U526 2.454 . S
O527 C529 1.353 . S
O528 U526 2.458 . S
O528 C529 1.286 . S
C529 U526 2.984 . S
C529 O527 1.353 . S
C529 O528 1.286 . S
C529 C531 1.363 . S
C530 C520 1.465 . S
C530 U526 2.847 . S
C530 O544 1.249 . S
C530 O545 1.202 . S
C531 C529 1.363 . S
C531 C533 1.408 . S
C531 C536 1.342 . S
C532 C533 1.310 . S
C532 C535 1.461 . S
C532 H552 0.932 . S
C533 C531 1.408 . S
C533 C532 1.310 . S
C533 H553 0.930 . S
C534 C535 1.474 . S
C534 C536 1.285 . S
C534 H554 0.929 . S
C535 C532 1.461 . S
C535 C534 1.474 . S
C536 C531 1.342 . S
C536 C534 1.285 . S
C536 H555 0.930 . S
C537 C540 1.424 . S
C537 C542 1.245 . S
C537 C543 1.428 . S
C538 C541 1.260 . S
C538 C542 1.477 . S
C538 H556 0.932 . S
C539 C540 1.384 . S
C539 C541 1.479 . S
C539 H557 0.929 . S
C540 C537 1.424 . S
C540 C539 1.384 . S
C540 H558 0.928 . S
C541 C538 1.260 . S
C541 C539 1.479 . S
C542 C537 1.245 . S
C542 C538 1.477 . S
C542 H559 0.932 . S
C543 U526 2.882 . S
C543 C537 1.428 . S
C543 O546 1.301 . S
C543 O547 1.282 . S
O544 U526 2.441 . S
O544 C530 1.249 . S
O545 U526 2.420 . S
O545 C530 1.202 . S
O546 U526 2.455 . S
O546 C543 1.301 . S
O547 U526 2.449 . S
O547 C543 1.282 . S
H548 C521 0.931 . S
H549 C523 0.929 . S
H550 C524 0.930 . S
H551 C525 0.931 . S
H552 C532 0.932 . S
H553 C533 0.930 . S
H554 C534 0.929 . S
H555 C536 0.930 . S
H556 C538 0.932 . S
H557 C539 0.929 . S
H558 C540 0.928 . S
H559 C542 0.932 . S
C560 C561 1.264 . S
C560 C565 1.479 . S
C560 C570 1.465 . S
C561 C560 1.264 . S
C561 C563 1.339 . S
C561 H588 0.931 . S
C562 C563 1.395 . S
C562 C564 1.320 . S
C563 C561 1.339 . S
C563 C562 1.395 . S
C563 H589 0.929 . S
C564 C562 1.320 . S
C564 C565 1.405 . S
C564 H590 0.930 . S
C565 C560 1.479 . S
C565 C564 1.405 . S
C565 H591 0.931 . S
U566 O567 2.454 . S
U566 O568 2.458 . S
U566 C569 2.984 . S
U566 C570 2.847 . S
U566 C583 2.882 . S
U566 O584 2.441 . S
U566 O585 2.420 . S
U566 O586 2.455 . S
U566 O587 2.449 . S
O567 U566 2.454 . S
O567 C569 1.353 . S
O568 U566 2.458 . S
O568 C569 1.286 . S
C569 U566 2.984 . S
C569 O567 1.353 . S
C569 O568 1.286 . S
C569 C571 1.363 . S
C570 C560 1.465 . S
C570 U566 2.847 . S
C570 O584 1.249 . S
C570 O585 1.202 . S
C571 C569 1.363 . S
C571 C573 1.408 . S
C571 C576 1.342 . S
C572 C573 1.310 . S
C572 C575 1.461 . S
C572 H592 0.932 . S
C573 C571 1.408 . S
C573 C572 1.310 . S
C573 H593 0.930 . S
C574 C575 1.474 . S
C574 C576 1.285 . S
C574 H594 0.929 . S
C575 C572 1.461 . S
C575 C574 1.474 . S
C576 C571 1.342 . S
C576 C574 1.285 . S
C576 H595 0.930 . S
C577 C580 1.424 . S
C577 C582 1.245 . S
C577 C583 1.428 . S
C578 C581 1.260 . S
C578 C582 1.477 . S
C578 H596 0.932 . S
C579 C580 1.384 . S
C579 C581 1.479 . S
C579 H597 0.929 . S
C580 C577 1.424 . S
C580 C579 1.384 . S
C580 H598 0.928 . S
C581 C578 1.260 . S
C581 C579 1.479 . S
C582 C577 1.245 . S
C582 C578 1.477 . S
C582 H599 0.932 . S
C583 U566 2.882 . S
C583 C577 1.428 . S
C583 O586 1.301 . S
C583 O587 1.282 . S
O584 U566 2.441 . S
O584 C570 1.249 . S
O585 U566 2.420 . S
O585 C570 1.202 . S
O586 U566 2.455 . S
O586 C583 1.301 . S
O587 U566 2.449 . S
O587 C583 1.282 . S
H588 C561 0.931 . S
H589 C563 0.929 . S
H590 C564 0.930 . S
H591 C565 0.931 . S
H592 C572 0.932 . S
H593 C573 0.930 . S
H594 C574 0.929 . S
H595 C576 0.930 . S
H596 C578 0.932 . S
H597 C579 0.929 . S
H598 C580 0.928 . S
H599 C582 0.932 . S
C600 C601 1.264 . S
C600 C605 1.479 . S
C600 C610 1.465 . S
C601 C600 1.264 . S
C601 C603 1.339 . S
C601 H628 0.931 . S
C602 C603 1.395 . S
C602 C604 1.320 . S
C603 C601 1.339 . S
C603 C602 1.395 . S
C603 H629 0.929 . S
C604 C602 1.320 . S
C604 C605 1.405 . S
C604 H630 0.930 . S
C605 C600 1.479 . S
C605 C604 1.405 . S
C605 H631 0.931 . S
U606 O607 2.454 . S
U606 O608 2.458 . S
U606 C609 2.984 . S
U606 C610 2.847 . S
U606 C623 2.882 . S
U606 O624 2.441 . S
U606 O625 2.420 . S
U606 O626 2.455 . S
U606 O627 2.449 . S
O607 U606 2.454 . S
O607 C609 1.353 . S
O608 U606 2.458 . S
O608 C609 1.286 . S
C609 U606 2.984 . S
C609 O607 1.353 . S
C609 O608 1.286 . S
C609 C611 1.363 . S
C610 C600 1.465 . S
C610 U606 2.847 . S
C610 O624 1.249 . S
C610 O625 1.202 . S
C611 C609 1.363 . S
C611 C613 1.408 . S
C611 C616 1.342 . S
C612 C613 1.310 . S
C612 C615 1.461 . S
C612 H632 0.932 . S
C613 C611 1.408 . S
C613 C612 1.310 . S
C613 H633 0.930 . S
C614 C615 1.474 . S
C614 C616 1.285 . S
C614 H634 0.929 1_455 S
C615 C612 1.461 . S
C615 C614 1.474 . S
C616 C611 1.342 . S
C616 C614 1.285 . S
C616 H635 0.930 . S
C617 C620 1.424 . S
C617 C622 1.245 . S
C617 C623 1.428 . S
C618 C621 1.260 . S
C618 C622 1.477 . S
C618 H636 0.932 . S
C619 C620 1.384 . S
C619 C621 1.479 . S
C619 H637 0.929 . S
C620 C617 1.424 . S
C620 C619 1.384 . S
C620 H638 0.928 . S
C621 C618 1.260 . S
C621 C619 1.479 . S
C622 C617 1.245 . S
C622 C618 1.477 . S
C622 H639 0.932 . S
C623 U606 2.882 . S
C623 C617 1.428 . S
C623 O626 1.301 . S
C623 O627 1.282 . S
O624 U606 2.441 . S
O624 C610 1.249 . S
O625 U606 2.420 . S
O625 C610 1.202 . S
O626 U606 2.455 . S
O626 C623 1.301 . S
O627 U606 2.449 . S
O627 C623 1.282 . S
H628 C601 0.931 . S
H629 C603 0.929 . S
H630 C604 0.930 . S
H631 C605 0.931 . S
H632 C612 0.932 . S
H633 C613 0.930 . S
H634 C614 0.929 1_655 S
H635 C616 0.930 . S
H636 C618 0.932 . S
H637 C619 0.929 . S
H638 C620 0.928 . S
H639 C622 0.932 . S
C640 C641 1.264 . S
C640 C645 1.479 . S
C640 C650 1.465 . S
C641 C640 1.264 . S
C641 C643 1.339 . S
C641 H668 0.931 . S
C642 C643 1.395 . S
C642 C644 1.320 . S
C643 C641 1.339 . S
C643 C642 1.395 . S
C643 H669 0.929 . S
C644 C642 1.320 . S
C644 C645 1.405 . S
C644 H670 0.930 . S
C645 C640 1.479 . S
C645 C644 1.405 . S
C645 H671 0.931 . S
U646 O647 2.454 . S
U646 O648 2.458 . S
U646 C649 2.984 . S
U646 C650 2.847 . S
U646 C663 2.882 . S
U646 O664 2.441 . S
U646 O665 2.420 . S
U646 O666 2.455 . S
U646 O667 2.449 . S
O647 U646 2.454 . S
O647 C649 1.353 . S
O648 U646 2.458 . S
O648 C649 1.286 . S
C649 U646 2.984 . S
C649 O647 1.353 . S
C649 O648 1.286 . S
C649 C651 1.363 . S
C650 C640 1.465 . S
C650 U646 2.847 . S
C650 O664 1.249 . S
C650 O665 1.202 . S
C651 C649 1.363 . S
C651 C653 1.408 . S
C651 C656 1.342 . S
C652 C653 1.310 . S
C652 C655 1.461 . S
C652 H672 0.932 . S
C653 C651 1.408 . S
C653 C652 1.310 . S
C653 H673 0.930 . S
C654 C655 1.474 . S
C654 C656 1.285 . S
C654 H674 0.929 . S
C655 C652 1.461 . S
C655 C654 1.474 . S
C656 C651 1.342 . S
C656 C654 1.285 . S
C656 H675 0.930 . S
C657 C660 1.424 . S
C657 C662 1.245 . S
C657 C663 1.428 . S
C658 C661 1.260 . S
C658 C662 1.477 . S
C658 H676 0.932 . S
C659 C660 1.384 . S
C659 C661 1.479 . S
C659 H677 0.929 . S
C660 C657 1.424 . S
C660 C659 1.384 . S
C660 H678 0.928 . S
C661 C658 1.260 . S
C661 C659 1.479 . S
C662 C657 1.245 . S
C662 C658 1.477 . S
C662 H679 0.932 . S
C663 U646 2.882 . S
C663 C657 1.428 . S
C663 O666 1.301 . S
C663 O667 1.282 . S
O664 U646 2.441 . S
O664 C650 1.249 . S
O665 U646 2.420 . S
O665 C650 1.202 . S
O666 U646 2.455 . S
O666 C663 1.301 . S
O667 U646 2.449 . S
O667 C663 1.282 . S
H668 C641 0.931 . S
H669 C643 0.929 . S
H670 C644 0.930 . S
H671 C645 0.931 . S
H672 C652 0.932 . S
H673 C653 0.930 . S
H674 C654 0.929 . S
H675 C656 0.930 . S
H676 C658 0.932 . S
H677 C659 0.929 . S
H678 C660 0.928 . S
H679 C662 0.932 . S
C680 C681 1.264 . S
C680 C685 1.479 . S
C680 C690 1.465 . S
C681 C680 1.264 . S
C681 C683 1.339 . S
C681 H708 0.931 . S
C682 C683 1.395 . S
C682 C684 1.320 . S
C683 C681 1.339 . S
C683 C682 1.395 . S
C683 H709 0.929 . S
C684 C682 1.320 . S
C684 C685 1.405 . S
C684 H710 0.930 . S
C685 C680 1.479 . S
C685 C684 1.405 . S
C685 H711 0.931 . S
U686 O687 2.454 . S
U686 O688 2.458 . S
U686 C689 2.984 . S
U686 C690 2.847 . S
U686 C703 2.882 . S
U686 O704 2.441 . S
U686 O705 2.420 . S
U686 O706 2.455 . S
U686 O707 2.449 . S
O687 U686 2.454 . S
O687 C689 1.353 . S
O688 U686 2.458 . S
O688 C689 1.286 . S
C689 U686 2.984 . S
C689 O687 1.353 . S
C689 O688 1.286 . S
C689 C691 1.363 . S
C690 C680 1.465 . S
C690 U686 2.847 . S
C690 O704 1.249 . S
C690 O705 1.202 . S
C691 C689 1.363 . S
C691 C693 1.408 . S
C691 C696 1.342 . S
C692 C693 1.310 . S
C692 C695 1.461 . S
C692 H712 0.932 . S
C693 C691 1.408 . S
C693 C692 1.310 . S
C693 H713 0.930 . S
C694 C695 1.474 . S
C694 C696 1.285 . S
C694 H714 0.929 . S
C695 C692 1.461 . S
C695 C694 1.474 . S
C696 C691 1.342 . S
C696 C694 1.285 . S
C696 H715 0.930 . S
C697 C700 1.424 . S
C697 C702 1.245 . S
C697 C703 1.428 . S
C698 C701 1.260 . S
C698 C702 1.477 . S
C698 H716 0.932 . S
C699 C700 1.384 . S
C699 C701 1.479 . S
C699 H717 0.929 . S
C700 C697 1.424 . S
C700 C699 1.384 . S
C700 H718 0.928 . S
C701 C698 1.260 . S
C701 C699 1.479 . S
C702 C697 1.245 . S
C702 C698 1.477 . S
C702 H719 0.932 . S
C703 U686 2.882 . S
C703 C697 1.428 . S
C703 O706 1.301 . S
C703 O707 1.282 . S
O704 U686 2.441 . S
O704 C690 1.249 . S
O705 U686 2.420 . S
O705 C690 1.202 . S
O706 U686 2.455 . S
O706 C703 1.301 . S
O707 U686 2.449 . S
O707 C703 1.282 . S
H708 C681 0.931 . S
H709 C683 0.929 . S
H710 C684 0.930 . S
H711 C685 0.931 . S
H712 C692 0.932 . S
H713 C693 0.930 . S
H714 C694 0.929 . S
H715 C696 0.930 . S
H716 C698 0.932 . S
H717 C699 0.929 . S
H718 C700 0.928 . S
H719 C702 0.932 . S
C720 C721 1.264 . S
C720 C725 1.479 . S
C720 C730 1.465 . S
C721 C720 1.264 . S
C721 C723 1.339 . S
C721 H748 0.931 . S
C722 C723 1.395 . S
C722 C724 1.320 . S
C723 C721 1.339 . S
C723 C722 1.395 . S
C723 H749 0.929 . S
C724 C722 1.320 . S
C724 C725 1.405 . S
C724 H750 0.930 . S
C725 C720 1.479 . S
C725 C724 1.405 . S
C725 H751 0.931 . S
U726 O727 2.454 . S
U726 O728 2.458 . S
U726 C729 2.984 . S
U726 C730 2.847 . S
U726 C743 2.882 . S
U726 O744 2.441 . S
U726 O745 2.420 . S
U726 O746 2.455 . S
U726 O747 2.449 . S
O727 U726 2.454 . S
O727 C729 1.353 . S
O728 U726 2.458 . S
O728 C729 1.286 . S
C729 U726 2.984 . S
C729 O727 1.353 . S
C729 O728 1.286 . S
C729 C731 1.363 . S
C730 C720 1.465 . S
C730 U726 2.847 . S
C730 O744 1.249 . S
C730 O745 1.202 . S
C731 C729 1.363 . S
C731 C733 1.408 . S
C731 C736 1.342 . S
C732 C733 1.310 . S
C732 C735 1.461 . S
C732 H752 0.932 . S
C733 C731 1.408 . S
C733 C732 1.310 . S
C733 H753 0.930 . S
C734 C735 1.474 . S
C734 C736 1.285 . S
C734 H754 0.929 . S
C735 C732 1.461 . S
C735 C734 1.474 . S
C736 C731 1.342 . S
C736 C734 1.285 . S
C736 H755 0.930 . S
C737 C740 1.424 . S
C737 C742 1.245 . S
C737 C743 1.428 . S
C738 C741 1.260 . S
C738 C742 1.477 . S
C738 H756 0.932 . S
C739 C740 1.384 . S
C739 C741 1.479 . S
C739 H757 0.929 . S
C740 C737 1.424 . S
C740 C739 1.384 . S
C740 H758 0.928 . S
C741 C738 1.260 . S
C741 C739 1.479 . S
C742 C737 1.245 . S
C742 C738 1.477 . S
C742 H759 0.932 . S
C743 U726 2.882 . S
C743 C737 1.428 . S
C743 O746 1.301 . S
C743 O747 1.282 . S
O744 U726 2.441 . S
O744 C730 1.249 . S
O745 U726 2.420 . S
O745 C730 1.202 . S
O746 U726 2.455 . S
O746 C743 1.301 . S
O747 U726 2.449 . S
O747 C743 1.282 . S
H748 C721 0.931 . S
H749 C723 0.929 . S
H750 C724 0.930 . S
H751 C725 0.931 . S
H752 C732 0.932 . S
H753 C733 0.930 . S
H754 C734 0.929 . S
H755 C736 0.930 . S
H756 C738 0.932 . S
H757 C739 0.929 . S
H758 C740 0.928 . S
H759 C742 0.932 . S
C760 C761 1.264 . S
C760 C765 1.479 . S
C760 C770 1.465 . S
C761 C760 1.264 . S
C761 C763 1.339 . S
C761 H788 0.931 . S
C762 C763 1.395 . S
C762 C764 1.320 . S
C763 C761 1.339 . S
C763 C762 1.395 . S
C763 H789 0.929 . S
C764 C762 1.320 . S
C764 C765 1.405 . S
C764 H790 0.930 . S
C765 C760 1.479 . S
C765 C764 1.405 . S
C765 H791 0.931 . S
U766 O767 2.454 . S
U766 O768 2.458 . S
U766 C769 2.984 . S
U766 C770 2.847 . S
U766 C783 2.882 . S
U766 O784 2.441 . S
U766 O785 2.420 . S
U766 O786 2.455 . S
U766 O787 2.449 . S
O767 U766 2.454 . S
O767 C769 1.353 . S
O768 U766 2.458 . S
O768 C769 1.286 . S
C769 U766 2.984 . S
C769 O767 1.353 . S
C769 O768 1.286 . S
C769 C771 1.363 . S
C770 C760 1.465 . S
C770 U766 2.847 . S
C770 O784 1.249 . S
C770 O785 1.202 . S
C771 C769 1.363 . S
C771 C773 1.408 . S
C771 C776 1.342 . S
C772 C773 1.310 . S
C772 C775 1.461 . S
C772 H792 0.932 . S
C773 C771 1.408 . S
C773 C772 1.310 . S
C773 H793 0.930 . S
C774 C775 1.474 . S
C774 C776 1.285 . S
C774 H794 0.929 1_455 S
C775 C772 1.461 . S
C775 C774 1.474 . S
C776 C771 1.342 . S
C776 C774 1.285 . S
C776 H795 0.930 . S
C777 C780 1.424 . S
C777 C782 1.245 . S
C777 C783 1.428 . S
C778 C781 1.260 . S
C778 C782 1.477 . S
C778 H796 0.932 . S
C779 C780 1.384 . S
C779 C781 1.479 . S
C779 H797 0.929 . S
C780 C777 1.424 . S
C780 C779 1.384 . S
C780 H798 0.928 . S
C781 C778 1.260 . S
C781 C779 1.479 . S
C782 C777 1.245 . S
C782 C778 1.477 . S
C782 H799 0.932 . S
C783 U766 2.882 . S
C783 C777 1.428 . S
C783 O786 1.301 . S
C783 O787 1.282 . S
O784 U766 2.441 . S
O784 C770 1.249 . S
O785 U766 2.420 . S
O785 C770 1.202 . S
O786 U766 2.455 . S
O786 C783 1.301 . S
O787 U766 2.449 . S
O787 C783 1.282 . S
H788 C761 0.931 . S
H789 C763 0.929 . S
H790 C764 0.930 . S
H791 C765 0.931 . S
H792 C772 0.932 . S
H793 C773 0.930 . S
H794 C774 0.929 1_655 S
H795 C776 0.930 . S
H796 C778 0.932 . S
H797 C779 0.929 . S
H798 C780 0.928 . S
H799 C782 0.932 . S
C800 C801 1.264 . S
C800 C805 1.479 . S
C800 C810 1.465 . S
C801 C800 1.264 . S
C801 C803 1.339 . S
C801 H828 0.931 . S
C802 C803 1.395 . S
C802 C804 1.320 . S
C803 C801 1.339 . S
C803 C802 1.395 . S
C803 H829 0.929 . S
C804 C802 1.320 . S
C804 C805 1.405 . S
C804 H830 0.930 . S
C805 C800 1.479 . S
C805 C804 1.405 . S
C805 H831 0.931 . S
U806 O807 2.454 . S
U806 O808 2.458 . S
U806 C809 2.984 . S
U806 C810 2.847 . S
U806 C823 2.882 . S
U806 O824 2.441 . S
U806 O825 2.420 . S
U806 O826 2.455 . S
U806 O827 2.449 . S
O807 U806 2.454 . S
O807 C809 1.353 . S
O808 U806 2.458 . S
O808 C809 1.286 . S
C809 U806 2.984 . S
C809 O807 1.353 . S
C809 O808 1.286 . S
C809 C811 1.363 . S
C810 C800 1.465 . S
C810 U806 2.847 . S
C810 O824 1.249 . S
C810 O825 1.202 . S
C811 C809 1.363 . S
C811 C813 1.408 . S
C811 C816 1.342 . S
C812 C813 1.310 . S
C812 C815 1.461 . S
C812 H832 0.932 . S
C813 C811 1.408 . S
C813 C812 1.310 . S
C813 H833 0.930 . S
C814 C815 1.474 . S
C814 C816 1.285 . S
C814 H834 0.929 . S
C815 C812 1.461 . S
C815 C814 1.474 . S
C816 C811 1.342 . S
C816 C814 1.285 . S
C816 H835 0.930 . S
C817 C820 1.424 . S
C817 C822 1.245 . S
C817 C823 1.428 . S
C818 C821 1.260 . S
C818 C822 1.477 . S
C818 H836 0.932 . S
C819 C820 1.384 . S
C819 C821 1.479 . S
C819 H837 0.929 . S
C820 C817 1.424 . S
C820 C819 1.384 . S
C820 H838 0.928 . S
C821 C818 1.260 . S
C821 C819 1.479 . S
C822 C817 1.245 . S
C822 C818 1.477 . S
C822 H839 0.932 . S
C823 U806 2.882 . S
C823 C817 1.428 . S
C823 O826 1.301 . S
C823 O827 1.282 . S
O824 U806 2.441 . S
O824 C810 1.249 . S
O825 U806 2.420 . S
O825 C810 1.202 . S
O826 U806 2.455 . S
O826 C823 1.301 . S
O827 U806 2.449 . S
O827 C823 1.282 . S
H828 C801 0.931 . S
H829 C803 0.929 . S
H830 C804 0.930 . S
H831 C805 0.931 . S
H832 C812 0.932 . S
H833 C813 0.930 . S
H834 C814 0.929 . S
H835 C816 0.930 . S
H836 C818 0.932 . S
H837 C819 0.929 . S
H838 C820 0.928 . S
H839 C822 0.932 . S
C840 C841 1.264 . S
C840 C845 1.479 . S
C840 C850 1.465 . S
C841 C840 1.264 . S
C841 C843 1.339 . S
C841 H868 0.931 . S
C842 C843 1.395 . S
C842 C844 1.320 . S
C843 C841 1.339 . S
C843 C842 1.395 . S
C843 H869 0.929 . S
C844 C842 1.320 . S
C844 C845 1.405 . S
C844 H870 0.930 . S
C845 C840 1.479 . S
C845 C844 1.405 . S
C845 H871 0.931 . S
U846 O847 2.454 . S
U846 O848 2.458 . S
U846 C849 2.984 . S
U846 C850 2.847 . S
U846 C863 2.882 . S
U846 O864 2.441 . S
U846 O865 2.420 . S
U846 O866 2.455 . S
U846 O867 2.449 . S
O847 U846 2.454 . S
O847 C849 1.353 . S
O848 U846 2.458 . S
O848 C849 1.286 . S
C849 U846 2.984 . S
C849 O847 1.353 . S
C849 O848 1.286 . S
C849 C851 1.363 . S
C850 C840 1.465 . S
C850 U846 2.847 . S
C850 O864 1.249 . S
C850 O865 1.202 . S
C851 C849 1.363 . S
C851 C853 1.408 . S
C851 C856 1.342 . S
C852 C853 1.310 . S
C852 C855 1.461 . S
C852 H872 0.932 . S
C853 C851 1.408 . S
C853 C852 1.310 . S
C853 H873 0.930 . S
C854 C855 1.474 . S
C854 C856 1.285 . S
C854 H874 0.929 1_455 S
C855 C852 1.461 . S
C855 C854 1.474 . S
C856 C851 1.342 . S
C856 C854 1.285 . S
C856 H875 0.930 . S
C857 C860 1.424 . S
C857 C862 1.245 . S
C857 C863 1.428 . S
C858 C861 1.260 . S
C858 C862 1.477 . S
C858 H876 0.932 . S
C859 C860 1.384 . S
C859 C861 1.479 . S
C859 H877 0.929 . S
C860 C857 1.424 . S
C860 C859 1.384 . S
C860 H878 0.928 . S
C861 C858 1.260 . S
C861 C859 1.479 . S
C862 C857 1.245 . S
C862 C858 1.477 . S
C862 H879 0.932 . S
C863 U846 2.882 . S
C863 C857 1.428 . S
C863 O866 1.301 . S
C863 O867 1.282 . S
O864 U846 2.441 . S
O864 C850 1.249 . S
O865 U846 2.420 . S
O865 C850 1.202 . S
O866 U846 2.455 . S
O866 C863 1.301 . S
O867 U846 2.449 . S
O867 C863 1.282 . S
H868 C841 0.931 . S
H869 C843 0.929 . S
H870 C844 0.930 . S
H871 C845 0.931 . S
H872 C852 0.932 . S
H873 C853 0.930 . S
H874 C854 0.929 1_655 S
H875 C856 0.930 . S
H876 C858 0.932 . S
H877 C859 0.929 . S
H878 C860 0.928 . S
H879 C862 0.932 . S
C880 C881 1.264 . S
C880 C885 1.479 . S
C880 C890 1.465 . S
C881 C880 1.264 . S
C881 C883 1.339 . S
C881 H908 0.931 . S
C882 C883 1.395 . S
C882 C884 1.320 . S
C883 C881 1.339 . S
C883 C882 1.395 . S
C883 H909 0.929 . S
C884 C882 1.320 . S
C884 C885 1.405 . S
C884 H910 0.930 . S
C885 C880 1.479 . S
C885 C884 1.405 . S
C885 H911 0.931 . S
U886 O887 2.454 . S
U886 O888 2.458 . S
U886 C889 2.984 . S
U886 C890 2.847 . S
U886 C903 2.882 . S
U886 O904 2.441 . S
U886 O905 2.420 . S
U886 O906 2.455 . S
U886 O907 2.449 . S
O887 U886 2.454 . S
O887 C889 1.353 . S
O888 U886 2.458 . S
O888 C889 1.286 . S
C889 U886 2.984 . S
C889 O887 1.353 . S
C889 O888 1.286 . S
C889 C891 1.363 . S
C890 C880 1.465 . S
C890 U886 2.847 . S
C890 O904 1.249 . S
C890 O905 1.202 . S
C891 C889 1.363 . S
C891 C893 1.408 . S
C891 C896 1.342 . S
C892 C893 1.310 . S
C892 C895 1.461 . S
C892 H912 0.932 . S
C893 C891 1.408 . S
C893 C892 1.310 . S
C893 H913 0.930 . S
C894 C895 1.474 . S
C894 C896 1.285 . S
C894 H914 0.929 . S
C895 C892 1.461 . S
C895 C894 1.474 . S
C896 C891 1.342 . S
C896 C894 1.285 . S
C896 H915 0.930 . S
C897 C900 1.424 . S
C897 C902 1.245 . S
C897 C903 1.428 . S
C898 C901 1.260 . S
C898 C902 1.477 . S
C898 H916 0.932 . S
C899 C900 1.384 . S
C899 C901 1.479 . S
C899 H917 0.929 . S
C900 C897 1.424 . S
C900 C899 1.384 . S
C900 H918 0.928 . S
C901 C898 1.260 . S
C901 C899 1.479 . S
C902 C897 1.245 . S
C902 C898 1.477 . S
C902 H919 0.932 . S
C903 U886 2.882 . S
C903 C897 1.428 . S
C903 O906 1.301 . S
C903 O907 1.282 . S
O904 U886 2.441 . S
O904 C890 1.249 . S
O905 U886 2.420 . S
O905 C890 1.202 . S
O906 U886 2.455 . S
O906 C903 1.301 . S
O907 U886 2.449 . S
O907 C903 1.282 . S
H908 C881 0.931 . S
H909 C883 0.929 . S
H910 C884 0.930 . S
H911 C885 0.931 . S
H912 C892 0.932 . S
H913 C893 0.930 . S
H914 C894 0.929 . S
H915 C896 0.930 . S
H916 C898 0.932 . S
H917 C899 0.929 . S
H918 C900 0.928 . S
H919 C902 0.932 . S
C920 C921 1.264 . S
C920 C925 1.479 . S
C920 C930 1.465 . S
C921 C920 1.264 . S
C921 C923 1.339 . S
C921 H948 0.931 . S
C922 C923 1.395 . S
C922 C924 1.320 . S
C923 C921 1.339 . S
C923 C922 1.395 . S
C923 H949 0.929 . S
C924 C922 1.320 . S
C924 C925 1.405 . S
C924 H950 0.930 . S
C925 C920 1.479 . S
C925 C924 1.405 . S
C925 H951 0.931 . S
U926 O927 2.454 . S
U926 O928 2.458 . S
U926 C929 2.984 . S
U926 C930 2.847 . S
U926 C943 2.882 . S
U926 O944 2.441 . S
U926 O945 2.420 . S
U926 O946 2.455 . S
U926 O947 2.449 . S
O927 U926 2.454 . S
O927 C929 1.353 . S
O928 U926 2.458 . S
O928 C929 1.286 . S
C929 U926 2.984 . S
C929 O927 1.353 . S
C929 O928 1.286 . S
C929 C931 1.363 . S
C930 C920 1.465 . S
C930 U926 2.847 . S
C930 O944 1.249 . S
C930 O945 1.202 . S
C931 C929 1.363 . S
C931 C933 1.408 . S
C931 C936 1.342 . S
C932 C933 1.310 . S
C932 C935 1.461 . S
C932 H952 0.932 . S
C933 C931 1.408 . S
C933 C932 1.310 . S
C933 H953 0.930 . S
C934 C935 1.474 . S
C934 C936 1.285 . S
C934 H954 0.929 . S
C935 C932 1.461 . S
C935 C934 1.474 . S
C936 C931 1.342 . S
C936 C934 1.285 . S
C936 H955 0.930 . S
C937 C940 1.424 . S
C937 C942 1.245 . S
C937 C943 1.428 . S
C938 C941 1.260 . S
C938 C942 1.477 . S
C938 H956 0.932 . S
C939 C940 1.384 . S
C939 C941 1.479 . S
C939 H957 0.929 . S
C940 C937 1.424 . S
C940 C939 1.384 . S
C940 H958 0.928 . S
C941 C938 1.260 . S
C941 C939 1.479 . S
C942 C937 1.245 . S
C942 C938 1.477 . S
C942 H959 0.932 . S
C943 U926 2.882 . S
C943 C937 1.428 . S
C943 O946 1.301 . S
C943 O947 1.282 . S
O944 U926 2.441 . S
O944 C930 1.249 . S
O945 U926 2.420 . S
O945 C930 1.202 . S
O946 U926 2.455 . S
O946 C943 1.301 . S
O947 U926 2.449 . S
O947 C943 1.282 . S
H948 C921 0.931 . S
H949 C923 0.929 . S
H950 C924 0.930 . S
H951 C925 0.931 . S
H952 C932 0.932 . S
H953 C933 0.930 . S
H954 C934 0.929 . S
H955 C936 0.930 . S
H956 C938 0.932 . S
H957 C939 0.929 . S
H958 C940 0.928 . S
H959 C942 0.932 . S
C960 C961 1.264 . S
C960 C965 1.479 . S
C960 C970 1.465 . S
C961 C960 1.264 . S
C961 C963 1.339 . S
C961 H988 0.931 . S
C962 C963 1.395 . S
C962 C964 1.320 . S
C963 C961 1.339 . S
C963 C962 1.395 . S
C963 H989 0.929 . S
C964 C962 1.320 . S
C964 C965 1.405 . S
C964 H990 0.930 . S
C965 C960 1.479 . S
C965 C964 1.405 . S
C965 H991 0.931 . S
U966 O967 2.454 . S
U966 O968 2.458 . S
U966 C969 2.984 . S
U966 C970 2.847 . S
U966 C983 2.882 . S
U966 O984 2.441 . S
U966 O985 2.420 . S
U966 O986 2.455 . S
U966 O987 2.449 . S
O967 U966 2.454 . S
O967 C969 1.353 . S
O968 U966 2.458 . S
O968 C969 1.286 . S
C969 U966 2.984 . S
C969 O967 1.353 . S
C969 O968 1.286 . S
C969 C971 1.363 . S
C970 C960 1.465 . S
C970 U966 2.847 . S
C970 O984 1.249 . S
C970 O985 1.202 . S
C971 C969 1.363 . S
C971 C973 1.408 . S
C971 C976 1.342 . S
C972 C973 1.310 . S
C972 C975 1.461 . S
C972 H992 0.932 . S
C973 C971 1.408 . S
C973 C972 1.310 . S
C973 H993 0.930 . S
C974 C975 1.474 . S
C974 C976 1.285 . S
C974 H994 0.929 . S
C975 C972 1.461 . S
C975 C974 1.474 . S
C976 C971 1.342 . S
C976 C974 1.285 . S
C976 H995 0.930 . S
C977 C980 1.424 . S
C977 C982 1.245 . S
C977 C983 1.428 . S
C978 C981 1.260 . S
C978 C982 1.477 . S
C978 H996 0.932 . S
C979 C980 1.384 . S
C979 C981 1.479 . S
C979 H997 0.929 . S
C980 C977 1.424 . S
C980 C979 1.384 . S
C980 H998 0.928 . S
C981 C978 1.260 . S
C981 C979 1.479 . S
C982 C977 1.245 . S
C982 C978 1.477 . S
C982 H999 0.932 . S
C983 U966 2.882 . S
C983 C977 1.428 . S
C983 O986 1.301 . S
C983 O987 1.282 . S
O984 U966 2.441 . S
O984 C970 1.249 . S
O985 U966 2.420 . S
O985 C970 1.202 . S
O986 U966 2.455 . S
O986 C983 1.301 . S
O987 U966 2.449 . S
O987 C983 1.282 . S
H988 C961 0.931 . S
H989 C963 0.929 . S
H990 C964 0.930 . S
H991 C965 0.931 . S
H992 C972 0.932 . S
H993 C973 0.930 . S
H994 C974 0.929 . S
H995 C976 0.930 . S
H996 C978 0.932 . S
H997 C979 0.929 . S
H998 C980 0.928 . S
H999 C982 0.932 . S
C1000 C1001 1.264 . S
C1000 C1005 1.479 . S
C1000 C1010 1.465 . S
C1001 C1000 1.264 . S
C1001 C1003 1.339 . S
C1001 H1028 0.931 . S
C1002 C1003 1.395 . S
C1002 C1004 1.320 . S
C1003 C1001 1.339 . S
C1003 C1002 1.395 . S
C1003 H1029 0.929 . S
C1004 C1002 1.320 . S
C1004 C1005 1.405 . S
C1004 H1030 0.930 . S
C1005 C1000 1.479 . S
C1005 C1004 1.405 . S
C1005 H1031 0.931 . S
U1006 O1007 2.454 . S
U1006 O1008 2.458 . S
U1006 C1009 2.984 . S
U1006 C1010 2.847 . S
U1006 C1023 2.882 . S
U1006 O1024 2.441 . S
U1006 O1025 2.420 . S
U1006 O1026 2.455 . S
U1006 O1027 2.449 . S
O1007 U1006 2.454 . S
O1007 C1009 1.353 . S
O1008 U1006 2.458 . S
O1008 C1009 1.286 . S
C1009 U1006 2.984 . S
C1009 O1007 1.353 . S
C1009 O1008 1.286 . S
C1009 C1011 1.363 . S
C1010 C1000 1.465 . S
C1010 U1006 2.847 . S
C1010 O1024 1.249 . S
C1010 O1025 1.202 . S
C1011 C1009 1.363 . S
C1011 C1013 1.408 . S
C1011 C1016 1.342 . S
C1012 C1013 1.310 . S
C1012 C1015 1.461 . S
C1012 H1032 0.932 . S
C1013 C1011 1.408 . S
C1013 C1012 1.310 . S
C1013 H1033 0.930 . S
C1014 C1015 1.474 . S
C1014 C1016 1.285 . S
C1014 H1034 0.929 . S
C1015 C1012 1.461 . S
C1015 C1014 1.474 . S
C1016 C1011 1.342 . S
C1016 C1014 1.285 . S
C1016 H1035 0.930 . S
C1017 C1020 1.424 . S
C1017 C1022 1.245 . S
C1017 C1023 1.428 . S
C1018 C1021 1.260 . S
C1018 C1022 1.477 . S
C1018 H1036 0.932 . S
C1019 C1020 1.384 . S
C1019 C1021 1.479 . S
C1019 H1037 0.929 . S
C1020 C1017 1.424 . S
C1020 C1019 1.384 . S
C1020 H1038 0.928 . S
C1021 C1018 1.260 . S
C1021 C1019 1.479 . S
C1022 C1017 1.245 . S
C1022 C1018 1.477 . S
C1022 H1039 0.932 . S
C1023 U1006 2.882 . S
C1023 C1017 1.428 . S
C1023 O1026 1.301 . S
C1023 O1027 1.282 . S
O1024 U1006 2.441 . S
O1024 C1010 1.249 . S
O1025 U1006 2.420 . S
O1025 C1010 1.202 . S
O1026 U1006 2.455 . S
O1026 C1023 1.301 . S
O1027 U1006 2.449 . S
O1027 C1023 1.282 . S
H1028 C1001 0.931 . S
H1029 C1003 0.929 . S
H1030 C1004 0.930 . S
H1031 C1005 0.931 . S
H1032 C1012 0.932 . S
H1033 C1013 0.930 . S
H1034 C1014 0.929 . S
H1035 C1016 0.930 . S
H1036 C1018 0.932 . S
H1037 C1019 0.929 . S
H1038 C1020 0.928 . S
H1039 C1022 0.932 . S
C1040 C1041 1.264 . S
C1040 C1045 1.479 . S
C1040 C1050 1.465 . S
C1041 C1040 1.264 . S
C1041 C1043 1.339 . S
C1041 H1068 0.931 . S
C1042 C1043 1.395 . S
C1042 C1044 1.320 . S
C1043 C1041 1.339 . S
C1043 C1042 1.395 . S
C1043 H1069 0.929 . S
C1044 C1042 1.320 . S
C1044 C1045 1.405 . S
C1044 H1070 0.930 . S
C1045 C1040 1.479 . S
C1045 C1044 1.405 . S
C1045 H1071 0.931 . S
U1046 O1047 2.454 . S
U1046 O1048 2.458 . S
U1046 C1049 2.984 . S
U1046 C1050 2.847 . S
U1046 C1063 2.882 . S
U1046 O1064 2.441 . S
U1046 O1065 2.420 . S
U1046 O1066 2.455 . S
U1046 O1067 2.449 . S
O1047 U1046 2.454 . S
O1047 C1049 1.353 . S
O1048 U1046 2.458 . S
O1048 C1049 1.286 . S
C1049 U1046 2.984 . S
C1049 O1047 1.353 . S
C1049 O1048 1.286 . S
C1049 C1051 1.363 . S
C1050 C1040 1.465 . S
C1050 U1046 2.847 . S
C1050 O1064 1.249 . S
C1050 O1065 1.202 . S
C1051 C1049 1.363 . S
C1051 C1053 1.408 . S
C1051 C1056 1.342 . S
C1052 C1053 1.310 . S
C1052 C1055 1.461 . S
C1052 H1072 0.932 . S
C1053 C1051 1.408 . S
C1053 C1052 1.310 . S
C1053 H1073 0.930 . S
C1054 C1055 1.474 . S
C1054 C1056 1.285 . S
C1054 H1074 0.929 . S
C1055 C1052 1.461 . S
C1055 C1054 1.474 . S
C1056 C1051 1.342 . S
C1056 C1054 1.285 . S
C1056 H1075 0.930 . S
C1057 C1060 1.424 . S
C1057 C1062 1.245 . S
C1057 C1063 1.428 . S
C1058 C1061 1.260 . S
C1058 C1062 1.477 . S
C1058 H1076 0.932 . S
C1059 C1060 1.384 . S
C1059 C1061 1.479 . S
C1059 H1077 0.929 . S
C1060 C1057 1.424 . S
C1060 C1059 1.384 . S
C1060 H1078 0.928 . S
C1061 C1058 1.260 . S
C1061 C1059 1.479 . S
C1062 C1057 1.245 . S
C1062 C1058 1.477 . S
C1062 H1079 0.932 . S
C1063 U1046 2.882 . S
C1063 C1057 1.428 . S
C1063 O1066 1.301 . S
C1063 O1067 1.282 . S
O1064 U1046 2.441 . S
O1064 C1050 1.249 . S
O1065 U1046 2.420 . S
O1065 C1050 1.202 . S
O1066 U1046 2.455 . S
O1066 C1063 1.301 . S
O1067 U1046 2.449 . S
O1067 C1063 1.282 . S
H1068 C1041 0.931 . S
H1069 C1043 0.929 . S
H1070 C1044 0.930 . S
H1071 C1045 0.931 . S
H1072 C1052 0.932 . S
H1073 C1053 0.930 . S
H1074 C1054 0.929 . S
H1075 C1056 0.930 . S
H1076 C1058 0.932 . S
H1077 C1059 0.929 . S
H1078 C1060 0.928 . S
H1079 C1062 0.932 . S
C1080 C1081 1.264 . S
C1080 C1085 1.479 . S
C1080 C1090 1.465 . S
C1081 C1080 1.264 . S
C1081 C1083 1.339 . S
C1081 H1108 0.931 . S
C1082 C1083 1.395 . S
C1082 C1084 1.320 . S
C1083 C1081 1.339 . S
C1083 C1082 1.395 . S
C1083 H1109 0.929 . S
C1084 C1082 1.320 . S
C1084 C1085 1.405 . S
C1084 H1110 0.930 . S
C1085 C1080 1.479 . S
C1085 C1084 1.405 . S
C1085 H1111 0.931 . S
U1086 O1087 2.454 . S
U1086 O1088 2.458 . S
U1086 C1089 2.984 . S
U1086 C1090 2.847 . S
U1086 C1103 2.882 . S
U1086 O1104 2.441 . S
U1086 O1105 2.420 . S
U1086 O1106 2.455 . S
U1086 O1107 2.449 . S
O1087 U1086 2.454 . S
O1087 C1089 1.353 . S
O1088 U1086 2.458 . S
O1088 C1089 1.286 . S
C1089 U1086 2.984 . S
C1089 O1087 1.353 . S
C1089 O1088 1.286 . S
C1089 C1091 1.363 . S
C1090 C1080 1.465 . S
C1090 U1086 2.847 . S
C1090 O1104 1.249 . S
C1090 O1105 1.202 . S
C1091 C1089 1.363 . S
C1091 C1093 1.408 . S
C1091 C1096 1.342 . S
C1092 C1093 1.310 . S
C1092 C1095 1.461 . S
C1092 H1112 0.932 . S
C1093 C1091 1.408 . S
C1093 C1092 1.310 . S
C1093 H1113 0.930 . S
C1094 C1095 1.474 . S
C1094 C1096 1.285 . S
C1094 H1114 0.929 1_655 S
C1095 C1092 1.461 . S
C1095 C1094 1.474 . S
C1096 C1091 1.342 . S
C1096 C1094 1.285 . S
C1096 H1115 0.930 . S
C1097 C1100 1.424 . S
C1097 C1102 1.245 . S
C1097 C1103 1.428 . S
C1098 C1101 1.260 . S
C1098 C1102 1.477 . S
C1098 H1116 0.932 . S
C1099 C1100 1.384 . S
C1099 C1101 1.479 . S
C1099 H1117 0.929 . S
C1100 C1097 1.424 . S
C1100 C1099 1.384 . S
C1100 H1118 0.928 . S
C1101 C1098 1.260 . S
C1101 C1099 1.479 . S
C1102 C1097 1.245 . S
C1102 C1098 1.477 . S
C1102 H1119 0.932 . S
C1103 U1086 2.882 . S
C1103 C1097 1.428 . S
C1103 O1106 1.301 . S
C1103 O1107 1.282 . S
O1104 U1086 2.441 . S
O1104 C1090 1.249 . S
O1105 U1086 2.420 . S
O1105 C1090 1.202 . S
O1106 U1086 2.455 . S
O1106 C1103 1.301 . S
O1107 U1086 2.449 . S
O1107 C1103 1.282 . S
H1108 C1081 0.931 . S
H1109 C1083 0.929 . S
H1110 C1084 0.930 . S
H1111 C1085 0.931 . S
H1112 C1092 0.932 . S
H1113 C1093 0.930 . S
H1114 C1094 0.929 1_455 S
H1115 C1096 0.930 . S
H1116 C1098 0.932 . S
H1117 C1099 0.929 . S
H1118 C1100 0.928 . S
H1119 C1102 0.932 . S
C1120 C1121 1.264 . S
C1120 C1125 1.479 . S
C1120 C1130 1.465 . S
C1121 C1120 1.264 . S
C1121 C1123 1.339 . S
C1121 H1148 0.931 . S
C1122 C1123 1.395 . S
C1122 C1124 1.320 . S
C1123 C1121 1.339 . S
C1123 C1122 1.395 . S
C1123 H1149 0.929 . S
C1124 C1122 1.320 . S
C1124 C1125 1.405 . S
C1124 H1150 0.930 . S
C1125 C1120 1.479 . S
C1125 C1124 1.405 . S
C1125 H1151 0.931 . S
U1126 O1127 2.454 . S
U1126 O1128 2.458 . S
U1126 C1129 2.984 . S
U1126 C1130 2.847 . S
U1126 C1143 2.882 . S
U1126 O1144 2.441 . S
U1126 O1145 2.420 . S
U1126 O1146 2.455 . S
U1126 O1147 2.449 . S
O1127 U1126 2.454 . S
O1127 C1129 1.353 . S
O1128 U1126 2.458 . S
O1128 C1129 1.286 . S
C1129 U1126 2.984 . S
C1129 O1127 1.353 . S
C1129 O1128 1.286 . S
C1129 C1131 1.363 . S
C1130 C1120 1.465 . S
C1130 U1126 2.847 . S
C1130 O1144 1.249 . S
C1130 O1145 1.202 . S
C1131 C1129 1.363 . S
C1131 C1133 1.408 . S
C1131 C1136 1.342 . S
C1132 C1133 1.310 . S
C1132 C1135 1.461 . S
C1132 H1152 0.932 . S
C1133 C1131 1.408 . S
C1133 C1132 1.310 . S
C1133 H1153 0.930 . S
C1134 C1135 1.474 . S
C1134 C1136 1.285 . S
C1134 H1154 0.929 . S
C1135 C1132 1.461 . S
C1135 C1134 1.474 . S
C1136 C1131 1.342 . S
C1136 C1134 1.285 . S
C1136 H1155 0.930 . S
C1137 C1140 1.424 . S
C1137 C1142 1.245 . S
C1137 C1143 1.428 . S
C1138 C1141 1.260 . S
C1138 C1142 1.477 . S
C1138 H1156 0.932 . S
C1139 C1140 1.384 . S
C1139 C1141 1.479 . S
C1139 H1157 0.929 . S
C1140 C1137 1.424 . S
C1140 C1139 1.384 . S
C1140 H1158 0.928 . S
C1141 C1138 1.260 . S
C1141 C1139 1.479 . S
C1142 C1137 1.245 . S
C1142 C1138 1.477 . S
C1142 H1159 0.932 . S
C1143 U1126 2.882 . S
C1143 C1137 1.428 . S
C1143 O1146 1.301 . S
C1143 O1147 1.282 . S
O1144 U1126 2.441 . S
O1144 C1130 1.249 . S
O1145 U1126 2.420 . S
O1145 C1130 1.202 . S
O1146 U1126 2.455 . S
O1146 C1143 1.301 . S
O1147 U1126 2.449 . S
O1147 C1143 1.282 . S
H1148 C1121 0.931 . S
H1149 C1123 0.929 . S
H1150 C1124 0.930 . S
H1151 C1125 0.931 . S
H1152 C1132 0.932 . S
H1153 C1133 0.930 . S
H1154 C1134 0.929 . S
H1155 C1136 0.930 . S
H1156 C1138 0.932 . S
H1157 C1139 0.929 . S
H1158 C1140 0.928 . S
H1159 C1142 0.932 . S
C1160 C1161 1.264 . S
C1160 C1165 1.479 . S
C1160 C1170 1.465 . S
C1161 C1160 1.264 . S
C1161 C1163 1.339 . S
C1161 H1188 0.931 . S
C1162 C1163 1.395 . S
C1162 C1164 1.320 . S
C1163 C1161 1.339 . S
C1163 C1162 1.395 . S
C1163 H1189 0.929 . S
C1164 C1162 1.320 . S
C1164 C1165 1.405 . S
C1164 H1190 0.930 . S
C1165 C1160 1.479 . S
C1165 C1164 1.405 . S
C1165 H1191 0.931 . S
U1166 O1167 2.454 . S
U1166 O1168 2.458 . S
U1166 C1169 2.984 . S
U1166 C1170 2.847 . S
U1166 C1183 2.882 . S
U1166 O1184 2.441 . S
U1166 O1185 2.420 . S
U1166 O1186 2.455 . S
U1166 O1187 2.449 . S
O1167 U1166 2.454 . S
O1167 C1169 1.353 . S
O1168 U1166 2.458 . S
O1168 C1169 1.286 . S
C1169 U1166 2.984 . S
C1169 O1167 1.353 . S
C1169 O1168 1.286 . S
C1169 C1171 1.363 . S
C1170 C1160 1.465 . S
C1170 U1166 2.847 . S
C1170 O1184 1.249 . S
C1170 O1185 1.202 . S
C1171 C1169 1.363 . S
C1171 C1173 1.408 . S
C1171 C1176 1.342 . S
C1172 C1173 1.310 . S
C1172 C1175 1.461 . S
C1172 H1192 0.932 . S
C1173 C1171 1.408 . S
C1173 C1172 1.310 . S
C1173 H1193 0.930 . S
C1174 C1175 1.474 . S
C1174 C1176 1.285 . S
C1174 H1194 0.929 1_655 S
C1175 C1172 1.461 . S
C1175 C1174 1.474 . S
C1176 C1171 1.342 . S
C1176 C1174 1.285 . S
C1176 H1195 0.930 . S
C1177 C1180 1.424 . S
C1177 C1182 1.245 . S
C1177 C1183 1.428 . S
C1178 C1181 1.260 . S
C1178 C1182 1.477 . S
C1178 H1196 0.932 . S
C1179 C1180 1.384 . S
C1179 C1181 1.479 . S
C1179 H1197 0.929 . S
C1180 C1177 1.424 . S
C1180 C1179 1.384 . S
C1180 H1198 0.928 . S
C1181 C1178 1.260 . S
C1181 C1179 1.479 . S
C1182 C1177 1.245 . S
C1182 C1178 1.477 . S
C1182 H1199 0.932 . S
C1183 U1166 2.882 . S
C1183 C1177 1.428 . S
C1183 O1186 1.301 . S
C1183 O1187 1.282 . S
O1184 U1166 2.441 . S
O1184 C1170 1.249 . S
O1185 U1166 2.420 . S
O1185 C1170 1.202 . S
O1186 U1166 2.455 . S
O1186 C1183 1.301 . S
O1187 U1166 2.449 . S
O1187 C1183 1.282 . S
H1188 C1161 0.931 . S
H1189 C1163 0.929 . S
H1190 C1164 0.930 . S
H1191 C1165 0.931 . S
H1192 C1172 0.932 . S
H1193 C1173 0.930 . S
H1194 C1174 0.929 1_455 S
H1195 C1176 0.930 . S
H1196 C1178 0.932 . S
H1197 C1179 0.929 . S
H1198 C1180 0.928 . S
H1199 C1182 0.932 . S
C1200 C1201 1.264 . S
C1200 C1205 1.479 . S
C1200 C1210 1.465 . S
C1201 C1200 1.264 . S
C1201 C1203 1.339 . S
C1201 H1228 0.931 . S
C1202 C1203 1.395 . S
C1202 C1204 1.320 . S
C1203 C1201 1.339 . S
C1203 C1202 1.395 . S
C1203 H1229 0.929 . S
C1204 C1202 1.320 . S
C1204 C1205 1.405 . S
C1204 H1230 0.930 . S
C1205 C1200 1.479 . S
C1205 C1204 1.405 . S
C1205 H1231 0.931 . S
U1206 O1207 2.454 . S
U1206 O1208 2.458 . S
U1206 C1209 2.984 . S
U1206 C1210 2.847 . S
U1206 C1223 2.882 . S
U1206 O1224 2.441 . S
U1206 O1225 2.420 . S
U1206 O1226 2.455 . S
U1206 O1227 2.449 . S
O1207 U1206 2.454 . S
O1207 C1209 1.353 . S
O1208 U1206 2.458 . S
O1208 C1209 1.286 . S
C1209 U1206 2.984 . S
C1209 O1207 1.353 . S
C1209 O1208 1.286 . S
C1209 C1211 1.363 . S
C1210 C1200 1.465 . S
C1210 U1206 2.847 . S
C1210 O1224 1.249 . S
C1210 O1225 1.202 . S
C1211 C1209 1.363 . S
C1211 C1213 1.408 . S
C1211 C1216 1.342 . S
C1212 C1213 1.310 . S
C1212 C1215 1.461 . S
C1212 H1232 0.932 . S
C1213 C1211 1.408 . S
C1213 C1212 1.310 . S
C1213 H1233 0.930 . S
C1214 C1215 1.474 . S
C1214 C1216 1.285 . S
C1214 H1234 0.929 . S
C1215 C1212 1.461 . S
C1215 C1214 1.474 . S
C1216 C1211 1.342 . S
C1216 C1214 1.285 . S
C1216 H1235 0.930 . S
C1217 C1220 1.424 . S
C1217 C1222 1.245 . S
C1217 C1223 1.428 . S
C1218 C1221 1.260 . S
C1218 C1222 1.477 . S
C1218 H1236 0.932 . S
C1219 C1220 1.384 . S
C1219 C1221 1.479 . S
C1219 H1237 0.929 . S
C1220 C1217 1.424 . S
C1220 C1219 1.384 . S
C1220 H1238 0.928 . S
C1221 C1218 1.260 . S
C1221 C1219 1.479 . S
C1222 C1217 1.245 . S
C1222 C1218 1.477 . S
C1222 H1239 0.932 . S
C1223 U1206 2.882 . S
C1223 C1217 1.428 . S
C1223 O1226 1.301 . S
C1223 O1227 1.282 . S
O1224 U1206 2.441 . S
O1224 C1210 1.249 . S
O1225 U1206 2.420 . S
O1225 C1210 1.202 . S
O1226 U1206 2.455 . S
O1226 C1223 1.301 . S
O1227 U1206 2.449 . S
O1227 C1223 1.282 . S
H1228 C1201 0.931 . S
H1229 C1203 0.929 . S
H1230 C1204 0.930 . S
H1231 C1205 0.931 . S
H1232 C1212 0.932 . S
H1233 C1213 0.930 . S
H1234 C1214 0.929 . S
H1235 C1216 0.930 . S
H1236 C1218 0.932 . S
H1237 C1219 0.929 . S
H1238 C1220 0.928 . S
H1239 C1222 0.932 . S
C1240 C1241 1.264 . S
C1240 C1245 1.479 . S
C1240 C1250 1.465 . S
C1241 C1240 1.264 . S
C1241 C1243 1.339 . S
C1241 H1268 0.931 . S
C1242 C1243 1.395 . S
C1242 C1244 1.320 . S
C1243 C1241 1.339 . S
C1243 C1242 1.395 . S
C1243 H1269 0.929 . S
C1244 C1242 1.320 . S
C1244 C1245 1.405 . S
C1244 H1270 0.930 . S
C1245 C1240 1.479 . S
C1245 C1244 1.405 . S
C1245 H1271 0.931 . S
U1246 O1247 2.454 . S
U1246 O1248 2.458 . S
U1246 C1249 2.984 . S
U1246 C1250 2.847 . S
U1246 C1263 2.882 . S
U1246 O1264 2.441 . S
U1246 O1265 2.420 . S
U1246 O1266 2.455 . S
U1246 O1267 2.449 . S
O1247 U1246 2.454 . S
O1247 C1249 1.353 . S
O1248 U1246 2.458 . S
O1248 C1249 1.286 . S
C1249 U1246 2.984 . S
C1249 O1247 1.353 . S
C1249 O1248 1.286 . S
C1249 C1251 1.363 . S
C1250 C1240 1.465 . S
C1250 U1246 2.847 . S
C1250 O1264 1.249 . S
C1250 O1265 1.202 . S
C1251 C1249 1.363 . S
C1251 C1253 1.408 . S
C1251 C1256 1.342 . S
C1252 C1253 1.310 . S
C1252 C1255 1.461 . S
C1252 H1272 0.932 . S
C1253 C1251 1.408 . S
C1253 C1252 1.310 . S
C1253 H1273 0.930 . S
C1254 C1255 1.474 . S
C1254 C1256 1.285 . S
C1254 H1274 0.929 . S
C1255 C1252 1.461 . S
C1255 C1254 1.474 . S
C1256 C1251 1.342 . S
C1256 C1254 1.285 . S
C1256 H1275 0.930 . S
C1257 C1260 1.424 . S
C1257 C1262 1.245 . S
C1257 C1263 1.428 . S
C1258 C1261 1.260 . S
C1258 C1262 1.477 . S
C1258 H1276 0.932 . S
C1259 C1260 1.384 . S
C1259 C1261 1.479 . S
C1259 H1277 0.929 . S
C1260 C1257 1.424 . S
C1260 C1259 1.384 . S
C1260 H1278 0.928 . S
C1261 C1258 1.260 . S
C1261 C1259 1.479 . S
C1262 C1257 1.245 . S
C1262 C1258 1.477 . S
C1262 H1279 0.932 . S
C1263 U1246 2.882 . S
C1263 C1257 1.428 . S
C1263 O1266 1.301 . S
C1263 O1267 1.282 . S
O1264 U1246 2.441 . S
O1264 C1250 1.249 . S
O1265 U1246 2.420 . S
O1265 C1250 1.202 . S
O1266 U1246 2.455 . S
O1266 C1263 1.301 . S
O1267 U1246 2.449 . S
O1267 C1263 1.282 . S
H1268 C1241 0.931 . S
H1269 C1243 0.929 . S
H1270 C1244 0.930 . S
H1271 C1245 0.931 . S
H1272 C1252 0.932 . S
H1273 C1253 0.930 . S
H1274 C1254 0.929 . S
H1275 C1256 0.930 . S
H1276 C1258 0.932 . S
H1277 C1259 0.929 . S
H1278 C1260 0.928 . S
H1279 C1262 0.932 . S
H1280 C1288 0.929 . S
H1281 C1290 0.930 . S
H1282 C1292 0.930 . S
H1283 C1295 0.929 . S
H1284 C1298 0.930 . S
H1285 C1300 0.960 . S
H1286 C1300 0.960 . S
H1287 C1300 0.960 . S
C1288 H1280 0.929 . S
C1288 C1289 1.377 . S
C1288 C1290 1.384 . S
C1289 C1288 1.377 . S
C1289 C1295 1.390 . S
C1290 H1281 0.930 . S
C1290 C1288 1.384 . S
C1290 C1291 1.372 . S
C1291 C1290 1.372 . S
C1291 C1292 1.400 . S
C1291 C1296 1.490 . S
C1292 H1282 0.930 . S
C1292 C1291 1.400 . S
C1292 C1295 1.386 . S
H1293 C1309 0.930 . S
H1294 C1310 0.931 . S
C1295 H1283 0.929 . S
C1295 C1289 1.390 . S
C1295 C1292 1.386 . S
C1296 C1291 1.490 . S
C1296 C1298 1.395 . S
C1296 C1299 1.403 . S
H1297 C1303 0.930 . S
C1298 H1284 0.930 . S
C1298 C1296 1.395 . S
C1298 C1301 1.403 . S
C1299 C1296 1.403 . S
C1299 C1300 1.524 . S
C1299 C1303 1.400 . S
C1300 H1285 0.960 . S
C1300 H1286 0.960 . S
C1300 H1287 0.960 . S
C1300 C1299 1.524 . S
C1301 C1298 1.403 . S
C1301 C1302 1.392 . S
C1301 C1305 1.495 . S
C1302 C1301 1.392 . S
C1302 C1303 1.385 . S
C1302 C1304 1.478 . S
C1303 H1297 0.930 . S
C1303 C1299 1.400 . S
C1303 C1302 1.385 . S
C1304 C1302 1.478 . S
C1304 C1306 1.381 . S
C1304 C1310 1.383 . S
C1305 C1301 1.495 . S
C1305 H1311 0.959 . S
C1305 H1312 0.961 . S
C1305 H1313 0.960 . S
C1306 C1304 1.381 . S
C1306 C1307 1.394 . S
C1306 H1314 0.930 . S
C1307 C1306 1.394 . S
C1307 C1308 1.383 . S
C1307 H1315 0.929 . S
C1308 C1307 1.383 . S
C1308 C1309 1.377 . S
C1309 H1293 0.930 . S
C1309 C1308 1.377 . S
C1309 C1310 1.379 . S
C1310 H1294 0.931 . S
C1310 C1304 1.383 . S
C1310 C1309 1.379 . S
H1311 C1305 0.959 . S
H1312 C1305 0.961 . S
H1313 C1305 0.960 . S
H1314 C1306 0.930 . S
H1315 C1307 0.929 . S
H1316 C1324 0.929 . S
H1317 C1326 0.930 . S
H1318 C1328 0.930 . S
H1319 C1331 0.929 . S
H1320 C1334 0.930 . S
H1321 C1336 0.960 . S
H1322 C1336 0.960 . S
H1323 C1336 0.960 . S
C1324 H1316 0.929 . S
C1324 C1325 1.414 . S
C1324 C1326 1.384 . S
C1325 C1324 1.414 . S
C1325 C1331 1.356 1_655 S
C1326 H1317 0.930 . S
C1326 C1324 1.384 . S
C1326 C1327 1.412 . S
C1327 C1326 1.412 . S
C1327 C1328 1.363 1_655 S
C1327 C1332 1.490 . S
C1328 H1318 0.930 . S
C1328 C1327 1.363 1_455 S
C1328 C1331 1.386 . S
H1329 C1345 0.930 . S
H1330 C1346 0.931 . S
C1331 H1319 0.929 . S
C1331 C1325 1.356 1_455 S
C1331 C1328 1.386 . S
C1332 C1327 1.490 . S
C1332 C1334 1.382 1_655 S
C1332 C1335 1.416 1_565 S
H1333 C1339 0.930 . S
C1334 H1320 0.930 . S
C1334 C1332 1.382 1_455 S
C1334 C1337 1.403 . S
C1335 C1332 1.416 1_545 S
C1335 C1336 1.524 . S
C1335 C1339 1.400 . S
C1336 H1321 0.960 . S
C1336 H1322 0.960 . S
C1336 H1323 0.960 . S
C1336 C1335 1.524 . S
C1337 C1334 1.403 . S
C1337 C1338 1.415 1_565 S
C1337 C1341 1.495 . S
C1338 C1337 1.415 1_545 S
C1338 C1339 1.362 1_455 S
C1338 C1340 1.482 . S
C1339 H1333 0.930 . S
C1339 C1335 1.400 . S
C1339 C1338 1.362 1_655 S
C1340 C1338 1.482 . S
C1340 C1342 1.381 1_455 S
C1340 C1346 1.383 . S
C1341 C1337 1.495 . S
C1341 H1347 0.959 . S
C1341 H1348 0.961 . S
C1341 H1349 0.960 . S
C1342 C1340 1.381 1_655 S
C1342 C1343 1.394 . S
C1342 H1350 0.930 . S
C1343 C1342 1.394 . S
C1343 C1344 1.330 1_655 S
C1343 H1351 0.929 . S
C1344 C1343 1.330 1_455 S
C1344 C1345 1.435 . S
C1345 H1329 0.930 . S
C1345 C1344 1.435 . S
C1345 C1346 1.379 . S
C1346 H1330 0.931 . S
C1346 C1340 1.383 . S
C1346 C1345 1.379 . S
H1347 C1341 0.959 . S
H1348 C1341 0.961 . S
H1349 C1341 0.960 . S
H1350 C1342 0.930 . S
H1351 C1343 0.929 . S
H1352 C1360 0.929 . S
H1353 C1362 0.930 . S
H1354 C1364 0.930 . S
H1355 C1367 0.929 . S
H1356 C1370 0.930 . S
H1357 C1372 0.960 . S
H1358 C1372 0.960 . S
H1359 C1372 0.960 . S
C1360 H1352 0.929 . S
C1360 C1361 1.377 . S
C1360 C1362 1.384 . S
C1361 C1360 1.377 . S
C1361 C1367 1.390 . S
C1362 H1353 0.930 . S
C1362 C1360 1.384 . S
C1362 C1363 1.372 . S
C1363 C1362 1.372 . S
C1363 C1364 1.400 . S
C1363 C1368 1.490 . S
C1364 H1354 0.930 . S
C1364 C1363 1.400 . S
C1364 C1367 1.386 . S
H1365 C1381 0.930 . S
H1366 C1382 0.931 . S
C1367 H1355 0.929 . S
C1367 C1361 1.390 . S
C1367 C1364 1.386 . S
C1368 C1363 1.490 . S
C1368 C1370 1.395 . S
C1368 C1371 1.403 . S
H1369 C1375 0.930 . S
C1370 H1356 0.930 . S
C1370 C1368 1.395 . S
C1370 C1373 1.403 . S
C1371 C1368 1.403 . S
C1371 C1372 1.524 . S
C1371 C1375 1.400 . S
C1372 H1357 0.960 . S
C1372 H1358 0.960 . S
C1372 H1359 0.960 . S
C1372 C1371 1.524 . S
C1373 C1370 1.403 . S
C1373 C1374 1.392 . S
C1373 C1377 1.495 . S
C1374 C1373 1.392 . S
C1374 C1375 1.385 . S
C1374 C1376 1.478 . S
C1375 H1369 0.930 . S
C1375 C1371 1.400 . S
C1375 C1374 1.385 . S
C1376 C1374 1.478 . S
C1376 C1378 1.381 . S
C1376 C1382 1.383 . S
C1377 C1373 1.495 . S
C1377 H1383 0.959 . S
C1377 H1384 0.961 . S
C1377 H1385 0.960 . S
C1378 C1376 1.381 . S
C1378 C1379 1.394 . S
C1378 H1386 0.930 . S
C1379 C1378 1.394 . S
C1379 C1380 1.383 . S
C1379 H1387 0.929 . S
C1380 C1379 1.383 . S
C1380 C1381 1.377 . S
C1381 H1365 0.930 . S
C1381 C1380 1.377 . S
C1381 C1382 1.379 . S
C1382 H1366 0.931 . S
C1382 C1376 1.383 . S
C1382 C1381 1.379 . S
H1383 C1377 0.959 . S
H1384 C1377 0.961 . S
H1385 C1377 0.960 . S
H1386 C1378 0.930 . S
H1387 C1379 0.929 . S
H1388 C1396 0.929 . S
H1389 C1398 0.930 . S
H1390 C1400 0.930 . S
H1391 C1403 0.929 . S
H1392 C1406 0.930 . S
H1393 C1408 0.960 . S
H1394 C1408 0.960 . S
H1395 C1408 0.960 1_545 S
C1396 H1388 0.929 . S
C1396 C1397 1.377 . S
C1396 C1398 1.384 . S
C1397 C1396 1.377 . S
C1397 C1403 1.390 . S
C1398 H1389 0.930 . S
C1398 C1396 1.384 . S
C1398 C1399 1.372 . S
C1399 C1398 1.372 . S
C1399 C1400 1.400 . S
C1399 C1404 1.490 . S
C1400 H1390 0.930 . S
C1400 C1399 1.400 . S
C1400 C1403 1.386 . S
H1401 C1417 0.930 . S
H1402 C1418 0.931 . S
C1403 H1391 0.929 . S
C1403 C1397 1.390 . S
C1403 C1400 1.386 . S
C1404 C1399 1.490 . S
C1404 C1406 1.395 . S
C1404 C1407 1.403 1_545 S
H1405 C1411 0.930 . S
C1406 H1392 0.930 . S
C1406 C1404 1.395 . S
C1406 C1409 1.403 1_556 S
C1407 C1404 1.403 1_565 S
C1407 C1408 1.524 . S
C1407 C1411 1.400 1_556 S
C1408 H1393 0.960 . S
C1408 H1394 0.960 . S
C1408 H1395 0.960 1_565 S
C1408 C1407 1.524 . S
C1409 C1406 1.403 1_554 S
C1409 C1410 1.392 1_545 S
C1409 C1413 1.495 . S
C1410 C1409 1.392 1_565 S
C1410 C1411 1.385 . S
C1410 C1412 1.478 . S
C1411 H1405 0.930 . S
C1411 C1407 1.400 1_554 S
C1411 C1410 1.385 . S
C1412 C1410 1.478 . S
C1412 C1414 1.381 . S
C1412 C1418 1.383 . S
C1413 C1409 1.495 . S
C1413 H1419 0.959 . S
C1413 H1420 0.961 . S
C1413 H1421 0.960 1_545 S
C1414 C1412 1.381 . S
C1414 C1415 1.394 . S
C1414 H1422 0.930 . S
C1415 C1414 1.394 . S
C1415 C1416 1.383 . S
C1415 H1423 0.929 . S
C1416 C1415 1.383 . S
C1416 C1417 1.377 . S
C1417 H1401 0.930 . S
C1417 C1416 1.377 . S
C1417 C1418 1.379 . S
C1418 H1402 0.931 . S
C1418 C1412 1.383 . S
C1418 C1417 1.379 . S
H1419 C1413 0.959 . S
H1420 C1413 0.961 . S
H1421 C1413 0.960 1_565 S
H1422 C1414 0.930 . S
H1423 C1415 0.929 . S
H1424 C1432 0.929 . S
H1425 C1434 0.930 . S
H1426 C1436 0.930 . S
H1427 C1439 0.929 . S
H1428 C1442 0.930 . S
H1429 C1444 0.960 . S
H1430 C1444 0.960 . S
H1431 C1444 0.960 . S
C1432 H1424 0.929 . S
C1432 C1433 1.377 . S
C1432 C1434 1.384 . S
C1433 C1432 1.377 . S
C1433 C1439 1.390 . S
C1434 H1425 0.930 . S
C1434 C1432 1.384 . S
C1434 C1435 1.372 . S
C1435 C1434 1.372 . S
C1435 C1436 1.400 . S
C1435 C1440 1.490 . S
C1436 H1426 0.930 . S
C1436 C1435 1.400 . S
C1436 C1439 1.386 . S
H1437 C1453 0.930 . S
H1438 C1454 0.931 . S
C1439 H1427 0.929 . S
C1439 C1433 1.390 . S
C1439 C1436 1.386 . S
C1440 C1435 1.490 . S
C1440 C1442 1.395 . S
C1440 C1443 1.403 . S
H1441 C1447 0.930 . S
C1442 H1428 0.930 . S
C1442 C1440 1.395 . S
C1442 C1445 1.403 . S
C1443 C1440 1.403 . S
C1443 C1444 1.524 . S
C1443 C1447 1.400 . S
C1444 H1429 0.960 . S
C1444 H1430 0.960 . S
C1444 H1431 0.960 . S
C1444 C1443 1.524 . S
C1445 C1442 1.403 . S
C1445 C1446 1.392 . S
C1445 C1449 1.495 . S
C1446 C1445 1.392 . S
C1446 C1447 1.385 . S
C1446 C1448 1.478 . S
C1447 H1441 0.930 . S
C1447 C1443 1.400 . S
C1447 C1446 1.385 . S
C1448 C1446 1.478 . S
C1448 C1450 1.381 . S
C1448 C1454 1.383 . S
C1449 C1445 1.495 . S
C1449 H1455 0.959 . S
C1449 H1456 0.961 . S
C1449 H1457 0.960 . S
C1450 C1448 1.381 . S
C1450 C1451 1.394 . S
C1450 H1458 0.930 . S
C1451 C1450 1.394 . S
C1451 C1452 1.383 . S
C1451 H1459 0.929 . S
C1452 C1451 1.383 . S
C1452 C1453 1.377 . S
C1453 H1437 0.930 . S
C1453 C1452 1.377 . S
C1453 C1454 1.379 . S
C1454 H1438 0.931 . S
C1454 C1448 1.383 . S
C1454 C1453 1.379 . S
H1455 C1449 0.959 . S
H1456 C1449 0.961 . S
H1457 C1449 0.960 . S
H1458 C1450 0.930 . S
H1459 C1451 0.929 . S
H1460 C1468 0.929 . S
H1461 C1470 0.930 . S
H1462 C1472 0.930 . S
H1463 C1475 0.929 . S
H1464 C1478 0.930 . S
H1465 C1480 0.960 . S
H1466 C1480 0.960 . S
H1467 C1480 0.960 . S
C1468 H1460 0.929 . S
C1468 C1469 1.377 . S
C1468 C1470 1.384 . S
C1469 C1468 1.377 . S
C1469 C1475 1.390 . S
C1470 H1461 0.930 . S
C1470 C1468 1.384 . S
C1470 C1471 1.372 . S
C1471 C1470 1.372 . S
C1471 C1472 1.400 . S
C1471 C1476 1.490 . S
C1472 H1462 0.930 . S
C1472 C1471 1.400 . S
C1472 C1475 1.386 . S
H1473 C1489 0.930 . S
H1474 C1490 0.931 . S
C1475 H1463 0.929 . S
C1475 C1469 1.390 . S
C1475 C1472 1.386 . S
C1476 C1471 1.490 . S
C1476 C1478 1.395 1_565 S
C1476 C1479 1.403 . S
H1477 C1483 0.930 . S
C1478 H1464 0.930 . S
C1478 C1476 1.395 1_545 S
C1478 C1481 1.403 . S
C1479 C1476 1.403 . S
C1479 C1480 1.524 . S
C1479 C1483 1.400 . S
C1480 H1465 0.960 . S
C1480 H1466 0.960 . S
C1480 H1467 0.960 . S
C1480 C1479 1.524 . S
C1481 C1478 1.403 . S
C1481 C1482 1.392 . S
C1481 C1485 1.495 . S
C1482 C1481 1.392 . S
C1482 C1483 1.385 1_545 S
C1482 C1484 1.478 . S
C1483 H1477 0.930 . S
C1483 C1479 1.400 . S
C1483 C1482 1.385 1_565 S
C1484 C1482 1.478 . S
C1484 C1486 1.381 . S
C1484 C1490 1.383 . S
C1485 C1481 1.495 . S
C1485 H1491 0.959 . S
C1485 H1492 0.961 . S
C1485 H1493 0.960 . S
C1486 C1484 1.381 . S
C1486 C1487 1.394 . S
C1486 H1494 0.930 . S
C1487 C1486 1.394 . S
C1487 C1488 1.383 . S
C1487 H1495 0.929 . S
C1488 C1487 1.383 . S
C1488 C1489 1.377 . S
C1489 H1473 0.930 . S
C1489 C1488 1.377 . S
C1489 C1490 1.379 . S
C1490 H1474 0.931 . S
C1490 C1484 1.383 . S
C1490 C1489 1.379 . S
H1491 C1485 0.959 . S
H1492 C1485 0.961 . S
H1493 C1485 0.960 . S
H1494 C1486 0.930 . S
H1495 C1487 0.929 . S
H1496 C1504 0.929 . S
H1497 C1506 0.930 . S
H1498 C1508 0.930 . S
H1499 C1511 0.929 . S
H1500 C1514 0.930 . S
H1501 C1516 0.960 . S
H1502 C1516 0.960 . S
H1503 C1516 0.960 . S
C1504 H1496 0.929 . S
C1504 C1505 1.377 . S
C1504 C1506 1.384 . S
C1505 C1504 1.377 . S
C1505 C1511 1.390 . S
C1506 H1497 0.930 . S
C1506 C1504 1.384 . S
C1506 C1507 1.372 . S
C1507 C1506 1.372 . S
C1507 C1508 1.400 . S
C1507 C1512 1.490 . S
C1508 H1498 0.930 . S
C1508 C1507 1.400 . S
C1508 C1511 1.386 . S
H1509 C1525 0.930 . S
H1510 C1526 0.931 . S
C1511 H1499 0.929 . S
C1511 C1505 1.390 . S
C1511 C1508 1.386 . S
C1512 C1507 1.490 . S
C1512 C1514 1.395 . S
C1512 C1515 1.403 . S
H1513 C1519 0.930 . S
C1514 H1500 0.930 . S
C1514 C1512 1.395 . S
C1514 C1517 1.403 . S
C1515 C1512 1.403 . S
C1515 C1516 1.524 . S
C1515 C1519 1.400 . S
C1516 H1501 0.960 . S
C1516 H1502 0.960 . S
C1516 H1503 0.960 . S
C1516 C1515 1.524 . S
C1517 C1514 1.403 . S
C1517 C1518 1.392 . S
C1517 C1521 1.495 . S
C1518 C1517 1.392 . S
C1518 C1519 1.385 . S
C1518 C1520 1.478 . S
C1519 H1513 0.930 . S
C1519 C1515 1.400 . S
C1519 C1518 1.385 . S
C1520 C1518 1.478 . S
C1520 C1522 1.381 . S
C1520 C1526 1.383 . S
C1521 C1517 1.495 . S
C1521 H1527 0.959 . S
C1521 H1528 0.961 . S
C1521 H1529 0.960 . S
C1522 C1520 1.381 . S
C1522 C1523 1.394 . S
C1522 H1530 0.930 . S
C1523 C1522 1.394 . S
C1523 C1524 1.383 . S
C1523 H1531 0.929 . S
C1524 C1523 1.383 . S
C1524 C1525 1.377 . S
C1525 H1509 0.930 . S
C1525 C1524 1.377 . S
C1525 C1526 1.379 . S
C1526 H1510 0.931 . S
C1526 C1520 1.383 . S
C1526 C1525 1.379 . S
H1527 C1521 0.959 . S
H1528 C1521 0.961 . S
H1529 C1521 0.960 . S
H1530 C1522 0.930 . S
H1531 C1523 0.929 . S
H1532 C1540 0.929 . S
H1533 C1542 0.930 . S
H1534 C1544 0.930 . S
H1535 C1547 0.929 . S
H1536 C1550 0.930 . S
H1537 C1552 0.960 . S
H1538 C1552 0.960 . S
H1539 C1552 0.960 . S
C1540 H1532 0.929 . S
C1540 C1541 1.367 1_655 S
C1540 C1542 1.384 . S
C1541 C1540 1.367 1_455 S
C1541 C1547 1.399 . S
C1542 H1533 0.930 . S
C1542 C1540 1.384 . S
C1542 C1543 1.374 . S
C1543 C1542 1.374 . S
C1543 C1544 1.398 1_655 S
C1543 C1548 1.490 . S
C1544 H1534 0.930 . S
C1544 C1543 1.398 1_455 S
C1544 C1547 1.386 . S
H1545 C1561 0.930 . S
H1546 C1562 0.931 . S
C1547 H1535 0.929 . S
C1547 C1541 1.399 . S
C1547 C1544 1.386 . S
C1548 C1543 1.490 . S
C1548 C1550 1.333 1_656 S
C1548 C1551 1.399 1_565 S
H1549 C1555 0.930 . S
C1550 H1536 0.930 . S
C1550 C1548 1.333 1_454 S
C1550 C1553 1.472 . S
C1551 C1548 1.399 1_545 S
C1551 C1552 1.524 . S
C1551 C1555 1.400 1_556 S
C1552 H1537 0.960 . S
C1552 H1538 0.960 . S
C1552 H1539 0.960 . S
C1552 C1551 1.524 . S
C1553 C1550 1.472 . S
C1553 C1554 1.434 1_565 S
C1553 C1557 1.495 . S
C1554 C1553 1.434 1_545 S
C1554 C1555 1.345 1_455 S
C1554 C1556 1.477 . S
C1555 H1549 0.930 . S
C1555 C1551 1.400 1_554 S
C1555 C1554 1.345 1_655 S
C1556 C1554 1.477 . S
C1556 C1558 1.332 1_455 S
C1556 C1562 1.434 . S
C1557 C1553 1.495 . S
C1557 H1563 0.959 . S
C1557 H1564 0.961 . S
C1557 H1565 0.960 . S
C1558 C1556 1.332 1_655 S
C1558 C1559 1.394 . S
C1558 H1566 0.930 . S
C1559 C1558 1.394 . S
C1559 C1560 1.387 1_655 S
C1559 H1567 0.929 . S
C1560 C1559 1.387 1_455 S
C1560 C1561 1.373 . S
C1561 H1545 0.930 . S
C1561 C1560 1.373 . S
C1561 C1562 1.379 . S
C1562 H1546 0.931 . S
C1562 C1556 1.434 . S
C1562 C1561 1.379 . S
H1563 C1557 0.959 . S
H1564 C1557 0.961 . S
H1565 C1557 0.960 . S
H1566 C1558 0.930 . S
H1567 C1559 0.929 . S
H1568 C1576 0.929 . S
H1569 C1578 0.930 . S
H1570 C1580 0.930 . S
H1571 C1583 0.929 . S
H1572 C1586 0.930 . S
H1573 C1588 0.960 . S
H1574 C1588 0.960 . S
H1575 C1588 0.960 . S
C1576 H1568 0.929 . S
C1576 C1577 1.377 . S
C1576 C1578 1.384 . S
C1577 C1576 1.377 . S
C1577 C1583 1.390 . S
C1578 H1569 0.930 . S
C1578 C1576 1.384 . S
C1578 C1579 1.372 . S
C1579 C1578 1.372 . S
C1579 C1580 1.400 . S
C1579 C1584 1.490 . S
C1580 H1570 0.930 . S
C1580 C1579 1.400 . S
C1580 C1583 1.386 . S
H1581 C1597 0.930 . S
H1582 C1598 0.931 . S
C1583 H1571 0.929 . S
C1583 C1577 1.390 . S
C1583 C1580 1.386 . S
C1584 C1579 1.490 . S
C1584 C1586 1.395 . S
C1584 C1587 1.403 . S
H1585 C1591 0.930 . S
C1586 H1572 0.930 . S
C1586 C1584 1.395 . S
C1586 C1589 1.403 . S
C1587 C1584 1.403 . S
C1587 C1588 1.524 . S
C1587 C1591 1.400 . S
C1588 H1573 0.960 . S
C1588 H1574 0.960 . S
C1588 H1575 0.960 . S
C1588 C1587 1.524 . S
C1589 C1586 1.403 . S
C1589 C1590 1.392 . S
C1589 C1593 1.495 . S
C1590 C1589 1.392 . S
C1590 C1591 1.385 . S
C1590 C1592 1.478 . S
C1591 H1585 0.930 . S
C1591 C1587 1.400 . S
C1591 C1590 1.385 . S
C1592 C1590 1.478 . S
C1592 C1594 1.381 . S
C1592 C1598 1.383 . S
C1593 C1589 1.495 . S
C1593 H1599 0.959 . S
C1593 H1600 0.961 . S
C1593 H1601 0.960 . S
C1594 C1592 1.381 . S
C1594 C1595 1.394 . S
C1594 H1602 0.930 . S
C1595 C1594 1.394 . S
C1595 C1596 1.383 . S
C1595 H1603 0.929 . S
C1596 C1595 1.383 . S
C1596 C1597 1.377 . S
C1597 H1581 0.930 . S
C1597 C1596 1.377 . S
C1597 C1598 1.379 . S
C1598 H1582 0.931 . S
C1598 C1592 1.383 . S
C1598 C1597 1.379 . S
H1599 C1593 0.959 . S
H1600 C1593 0.961 . S
H1601 C1593 0.960 . S
H1602 C1594 0.930 . S
H1603 C1595 0.929 . S
H1604 C1612 0.929 . S
H1605 C1614 0.930 . S
H1606 C1616 0.930 . S
H1607 C1619 0.929 . S
H1608 C1622 0.930 . S
H1609 C1624 0.960 . S
H1610 C1624 0.960 . S
H1611 C1624 0.960 . S
C1612 H1604 0.929 . S
C1612 C1613 1.377 . S
C1612 C1614 1.384 . S
C1613 C1612 1.377 . S
C1613 C1619 1.390 . S
C1614 H1605 0.930 . S
C1614 C1612 1.384 . S
C1614 C1615 1.372 . S
C1615 C1614 1.372 . S
C1615 C1616 1.400 . S
C1615 C1620 1.490 . S
C1616 H1606 0.930 . S
C1616 C1615 1.400 . S
C1616 C1619 1.386 . S
H1617 C1633 0.930 . S
H1618 C1634 0.931 . S
C1619 H1607 0.929 . S
C1619 C1613 1.390 . S
C1619 C1616 1.386 . S
C1620 C1615 1.490 . S
C1620 C1622 1.395 . S
C1620 C1623 1.403 . S
H1621 C1627 0.930 . S
C1622 H1608 0.930 . S
C1622 C1620 1.395 . S
C1622 C1625 1.403 . S
C1623 C1620 1.403 . S
C1623 C1624 1.524 . S
C1623 C1627 1.400 . S
C1624 H1609 0.960 . S
C1624 H1610 0.960 . S
C1624 H1611 0.960 . S
C1624 C1623 1.524 . S
C1625 C1622 1.403 . S
C1625 C1626 1.392 . S
C1625 C1629 1.495 . S
C1626 C1625 1.392 . S
C1626 C1627 1.385 . S
C1626 C1628 1.478 . S
C1627 H1621 0.930 . S
C1627 C1623 1.400 . S
C1627 C1626 1.385 . S
C1628 C1626 1.478 . S
C1628 C1630 1.381 . S
C1628 C1634 1.383 . S
C1629 C1625 1.495 . S
C1629 H1635 0.959 . S
C1629 H1636 0.961 . S
C1629 H1637 0.960 . S
C1630 C1628 1.381 . S
C1630 C1631 1.394 . S
C1630 H1638 0.930 . S
C1631 C1630 1.394 . S
C1631 C1632 1.383 . S
C1631 H1639 0.929 . S
C1632 C1631 1.383 . S
C1632 C1633 1.377 . S
C1633 H1617 0.930 . S
C1633 C1632 1.377 . S
C1633 C1634 1.379 . S
C1634 H1618 0.931 . S
C1634 C1628 1.383 . S
C1634 C1633 1.379 . S
H1635 C1629 0.959 . S
H1636 C1629 0.961 . S
H1637 C1629 0.960 . S
H1638 C1630 0.930 . S
H1639 C1631 0.929 . S
H1640 C1648 0.929 . S
H1641 C1650 0.930 . S
H1642 C1652 0.930 . S
H1643 C1655 0.929 . S
H1644 C1658 0.930 . S
H1645 C1660 0.960 . S
H1646 C1660 0.960 . S
H1647 C1660 0.960 . S
C1648 H1640 0.929 . S
C1648 C1649 1.377 . S
C1648 C1650 1.384 . S
C1649 C1648 1.377 . S
C1649 C1655 1.390 . S
C1650 H1641 0.930 . S
C1650 C1648 1.384 . S
C1650 C1651 1.372 . S
C1651 C1650 1.372 . S
C1651 C1652 1.400 . S
C1651 C1656 1.490 . S
C1652 H1642 0.930 . S
C1652 C1651 1.400 . S
C1652 C1655 1.386 . S
H1653 C1669 0.930 . S
H1654 C1670 0.931 . S
C1655 H1643 0.929 . S
C1655 C1649 1.390 . S
C1655 C1652 1.386 . S
C1656 C1651 1.490 . S
C1656 C1658 1.395 . S
C1656 C1659 1.403 . S
H1657 C1663 0.930 . S
C1658 H1644 0.930 . S
C1658 C1656 1.395 . S
C1658 C1661 1.403 . S
C1659 C1656 1.403 . S
C1659 C1660 1.524 . S
C1659 C1663 1.400 . S
C1660 H1645 0.960 . S
C1660 H1646 0.960 . S
C1660 H1647 0.960 . S
C1660 C1659 1.524 . S
C1661 C1658 1.403 . S
C1661 C1662 1.392 . S
C1661 C1665 1.495 . S
C1662 C1661 1.392 . S
C1662 C1663 1.385 . S
C1662 C1664 1.478 . S
C1663 H1657 0.930 . S
C1663 C1659 1.400 . S
C1663 C1662 1.385 . S
C1664 C1662 1.478 . S
C1664 C1666 1.381 . S
C1664 C1670 1.383 . S
C1665 C1661 1.495 . S
C1665 H1671 0.959 . S
C1665 H1672 0.961 . S
C1665 H1673 0.960 . S
C1666 C1664 1.381 . S
C1666 C1667 1.394 . S
C1666 H1674 0.930 . S
C1667 C1666 1.394 . S
C1667 C1668 1.383 . S
C1667 H1675 0.929 . S
C1668 C1667 1.383 . S
C1668 C1669 1.377 . S
C1669 H1653 0.930 . S
C1669 C1668 1.377 . S
C1669 C1670 1.379 . S
C1670 H1654 0.931 . S
C1670 C1664 1.383 . S
C1670 C1669 1.379 . S
H1671 C1665 0.959 . S
H1672 C1665 0.961 . S
H1673 C1665 0.960 . S
H1674 C1666 0.930 . S
H1675 C1667 0.929 . S
H1676 C1684 0.929 . S
H1677 C1686 0.930 . S
H1678 C1688 0.930 . S
H1679 C1691 0.929 . S
H1680 C1694 0.930 . S
H1681 C1696 0.960 . S
H1682 C1696 0.960 . S
H1683 C1696 0.960 . S
C1684 H1676 0.929 . S
C1684 C1685 1.377 . S
C1684 C1686 1.384 . S
C1685 C1684 1.377 . S
C1685 C1691 1.390 . S
C1686 H1677 0.930 . S
C1686 C1684 1.384 . S
C1686 C1687 1.372 . S
C1687 C1686 1.372 . S
C1687 C1688 1.400 . S
C1687 C1692 1.490 . S
C1688 H1678 0.930 . S
C1688 C1687 1.400 . S
C1688 C1691 1.386 . S
H1689 C1705 0.930 . S
H1690 C1706 0.931 . S
C1691 H1679 0.929 . S
C1691 C1685 1.390 . S
C1691 C1688 1.386 . S
C1692 C1687 1.490 . S
C1692 C1694 1.395 . S
C1692 C1695 1.403 . S
H1693 C1699 0.930 . S
C1694 H1680 0.930 . S
C1694 C1692 1.395 . S
C1694 C1697 1.403 . S
C1695 C1692 1.403 . S
C1695 C1696 1.524 . S
C1695 C1699 1.400 . S
C1696 H1681 0.960 . S
C1696 H1682 0.960 . S
C1696 H1683 0.960 . S
C1696 C1695 1.524 . S
C1697 C1694 1.403 . S
C1697 C1698 1.392 . S
C1697 C1701 1.495 . S
C1698 C1697 1.392 . S
C1698 C1699 1.385 . S
C1698 C1700 1.478 . S
C1699 H1693 0.930 . S
C1699 C1695 1.400 . S
C1699 C1698 1.385 . S
C1700 C1698 1.478 . S
C1700 C1702 1.381 . S
C1700 C1706 1.383 . S
C1701 C1697 1.495 . S
C1701 H1707 0.959 . S
C1701 H1708 0.961 . S
C1701 H1709 0.960 . S
C1702 C1700 1.381 . S
C1702 C1703 1.394 . S
C1702 H1710 0.930 . S
C1703 C1702 1.394 . S
C1703 C1704 1.383 . S
C1703 H1711 0.929 . S
C1704 C1703 1.383 . S
C1704 C1705 1.377 . S
C1705 H1689 0.930 . S
C1705 C1704 1.377 . S
C1705 C1706 1.379 . S
C1706 H1690 0.931 . S
C1706 C1700 1.383 . S
C1706 C1705 1.379 . S
H1707 C1701 0.959 . S
H1708 C1701 0.961 . S
H1709 C1701 0.960 . S
H1710 C1702 0.930 . S
H1711 C1703 0.929 . S
H1712 C1720 0.929 . S
H1713 C1722 0.930 . S
H1714 C1724 0.930 . S
H1715 C1727 0.929 . S
H1716 C1730 0.930 . S
H1717 C1732 0.960 1_556 S
H1718 C1732 0.960 . S
H1719 C1732 0.960 . S
C1720 H1712 0.929 . S
C1720 C1721 1.377 . S
C1720 C1722 1.384 . S
C1721 C1720 1.377 . S
C1721 C1727 1.390 . S
C1722 H1713 0.930 . S
C1722 C1720 1.384 . S
C1722 C1723 1.372 . S
C1723 C1722 1.372 . S
C1723 C1724 1.400 . S
C1723 C1728 1.490 . S
C1724 H1714 0.930 . S
C1724 C1723 1.400 . S
C1724 C1727 1.386 . S
H1725 C1741 0.930 . S
H1726 C1742 0.931 . S
C1727 H1715 0.929 . S
C1727 C1721 1.390 . S
C1727 C1724 1.386 . S
C1728 C1723 1.490 . S
C1728 C1730 1.395 . S
C1728 C1731 1.403 . S
H1729 C1735 0.930 . S
C1730 H1716 0.930 . S
C1730 C1728 1.395 . S
C1730 C1733 1.403 1_554 S
C1731 C1728 1.403 . S
C1731 C1732 1.524 . S
C1731 C1735 1.400 1_554 S
C1732 H1717 0.960 1_554 S
C1732 H1718 0.960 . S
C1732 H1719 0.960 . S
C1732 C1731 1.524 . S
C1733 C1730 1.403 1_556 S
C1733 C1734 1.392 . S
C1733 C1737 1.495 . S
C1734 C1733 1.392 . S
C1734 C1735 1.385 . S
C1734 C1736 1.478 . S
C1735 H1729 0.930 . S
C1735 C1731 1.400 1_556 S
C1735 C1734 1.385 . S
C1736 C1734 1.478 . S
C1736 C1738 1.381 . S
C1736 C1742 1.383 . S
C1737 C1733 1.495 . S
C1737 H1743 0.959 1_556 S
C1737 H1744 0.961 . S
C1737 H1745 0.960 . S
C1738 C1736 1.381 . S
C1738 C1739 1.394 . S
C1738 H1746 0.930 . S
C1739 C1738 1.394 . S
C1739 C1740 1.383 . S
C1739 H1747 0.929 . S
C1740 C1739 1.383 . S
C1740 C1741 1.377 . S
C1741 H1725 0.930 . S
C1741 C1740 1.377 . S
C1741 C1742 1.379 . S
C1742 H1726 0.931 . S
C1742 C1736 1.383 . S
C1742 C1741 1.379 . S
H1743 C1737 0.959 1_554 S
H1744 C1737 0.961 . S
H1745 C1737 0.960 . S
H1746 C1738 0.930 . S
H1747 C1739 0.929 . S
H1748 C1756 0.929 . S
H1749 C1758 0.930 . S
H1750 C1760 0.930 . S
H1751 C1763 0.929 . S
H1752 C1766 0.930 . S
H1753 C1768 0.960 . S
H1754 C1768 0.960 . S
H1755 C1768 0.960 . S
C1756 H1748 0.929 . S
C1756 C1757 1.364 1_655 S
C1756 C1758 1.384 . S
C1757 C1756 1.364 1_455 S
C1757 C1763 1.405 . S
C1758 H1749 0.930 . S
C1758 C1756 1.384 . S
C1758 C1759 1.370 1_655 S
C1759 C1758 1.370 1_455 S
C1759 C1760 1.402 . S
C1759 C1764 1.489 1_455 S
C1760 H1750 0.930 . S
C1760 C1759 1.402 . S
C1760 C1763 1.386 . S
H1761 C1777 0.931 . S
H1762 C1778 0.924 1_455 S
C1763 H1751 0.929 . S
C1763 C1757 1.405 . S
C1763 C1760 1.386 . S
C1764 C1759 1.489 1_655 S
C1764 C1766 1.420 . S
C1764 C1767 1.379 1_655 S
H1765 C1771 0.930 . S
C1766 H1752 0.930 . S
C1766 C1764 1.420 . S
C1766 C1769 1.403 . S
C1767 C1764 1.379 1_455 S
C1767 C1768 1.524 . S
C1767 C1771 1.400 . S
C1768 H1753 0.960 . S
C1768 H1754 0.960 . S
C1768 H1755 0.960 . S
C1768 C1767 1.524 . S
C1769 C1766 1.403 . S
C1769 C1770 1.392 . S
C1769 C1773 1.495 . S
C1770 C1769 1.392 . S
C1770 C1771 1.385 1_655 S
C1770 C1772 1.478 . S
C1771 H1765 0.930 . S
C1771 C1767 1.400 . S
C1771 C1770 1.385 1_455 S
C1772 C1770 1.478 . S
C1772 C1774 1.381 . S
C1772 C1778 1.391 . S
C1773 C1769 1.495 . S
C1773 H1779 0.959 . S
C1773 H1780 0.961 . S
C1773 H1781 0.960 . S
C1774 C1772 1.381 . S
C1774 C1775 1.394 . S
C1774 H1782 0.930 . S
C1775 C1774 1.394 . S
C1775 C1776 1.383 . S
C1775 H1783 0.929 . S
C1776 C1775 1.383 . S
C1776 C1777 1.376 1_655 S
C1777 H1761 0.931 . S
C1777 C1776 1.376 1_455 S
C1777 C1778 1.378 1_455 S
C1778 H1762 0.924 1_655 S
C1778 C1772 1.391 . S
C1778 C1777 1.378 1_655 S
H1779 C1773 0.959 . S
H1780 C1773 0.961 . S
H1781 C1773 0.960 . S
H1782 C1774 0.930 . S
H1783 C1775 0.929 . S
H1784 C1792 0.929 . S
H1785 C1794 0.930 . S
H1786 C1796 0.929 . S
H1787 C1799 0.930 1_455 S
H1788 C1802 0.930 . S
H1789 C1804 0.960 . S
H1790 C1804 0.960 . S
H1791 C1804 0.960 . S
C1792 H1784 0.929 . S
C1792 C1793 1.377 . S
C1792 C1794 1.384 . S
C1793 C1792 1.377 . S
C1793 C1799 1.389 . S
C1794 H1785 0.930 . S
C1794 C1792 1.384 . S
C1794 C1795 1.372 . S
C1795 C1794 1.372 . S
C1795 C1796 1.399 1_655 S
C1795 C1800 1.490 . S
C1796 H1786 0.929 . S
C1796 C1795 1.399 1_455 S
C1796 C1799 1.386 1_455 S
H1797 C1813 0.930 . S
H1798 C1814 0.931 . S
C1799 H1787 0.930 1_655 S
C1799 C1793 1.389 . S
C1799 C1796 1.386 1_655 S
C1800 C1795 1.490 . S
C1800 C1802 1.420 . S
C1800 C1803 1.379 1_655 S
H1801 C1807 0.930 . S
C1802 H1788 0.930 . S
C1802 C1800 1.420 . S
C1802 C1805 1.403 1_556 S
C1803 C1800 1.379 1_455 S
C1803 C1804 1.524 . S
C1803 C1807 1.400 1_556 S
C1804 H1789 0.960 . S
C1804 H1790 0.960 . S
C1804 H1791 0.960 . S
C1804 C1803 1.524 . S
C1805 C1802 1.403 1_554 S
C1805 C1806 1.392 . S
C1805 C1809 1.495 . S
C1806 C1805 1.392 . S
C1806 C1807 1.385 1_655 S
C1806 C1808 1.478 . S
C1807 H1801 0.930 . S
C1807 C1803 1.400 1_554 S
C1807 C1806 1.385 1_455 S
C1808 C1806 1.478 . S
C1808 C1810 1.388 . S
C1808 C1814 1.383 . S
C1809 C1805 1.495 . S
C1809 H1815 0.959 . S
C1809 H1816 0.961 . S
C1809 H1817 0.960 . S
C1810 C1808 1.388 . S
C1810 C1811 1.391 1_655 S
C1810 H1818 0.929 . S
C1811 C1810 1.391 1_455 S
C1811 C1812 1.382 1_455 S
C1811 H1819 0.932 . S
C1812 C1811 1.382 1_655 S
C1812 C1813 1.379 . S
C1813 H1797 0.930 . S
C1813 C1812 1.379 . S
C1813 C1814 1.379 . S
C1814 H1798 0.931 . S
C1814 C1808 1.383 . S
C1814 C1813 1.379 . S
H1815 C1809 0.959 . S
H1816 C1809 0.961 . S
H1817 C1809 0.960 . S
H1818 C1810 0.929 . S
H1819 C1811 0.932 . S
H1820 C1828 0.929 . S
H1821 C1830 0.930 . S
H1822 C1832 0.930 . S
H1823 C1835 0.929 . S
H1824 C1838 0.930 . S
H1825 C1840 0.960 . S
H1826 C1840 0.960 . S
H1827 C1840 0.960 . S
C1828 H1820 0.929 . S
C1828 C1829 1.377 . S
C1828 C1830 1.384 . S
C1829 C1828 1.377 . S
C1829 C1835 1.390 . S
C1830 H1821 0.930 . S
C1830 C1828 1.384 . S
C1830 C1831 1.372 . S
C1831 C1830 1.372 . S
C1831 C1832 1.400 . S
C1831 C1836 1.490 . S
C1832 H1822 0.930 . S
C1832 C1831 1.400 . S
C1832 C1835 1.386 . S
H1833 C1849 0.930 . S
H1834 C1850 0.931 . S
C1835 H1823 0.929 . S
C1835 C1829 1.390 . S
C1835 C1832 1.386 . S
C1836 C1831 1.490 . S
C1836 C1838 1.395 . S
C1836 C1839 1.403 . S
H1837 C1843 0.930 . S
C1838 H1824 0.930 . S
C1838 C1836 1.395 . S
C1838 C1841 1.403 . S
C1839 C1836 1.403 . S
C1839 C1840 1.524 . S
C1839 C1843 1.400 . S
C1840 H1825 0.960 . S
C1840 H1826 0.960 . S
C1840 H1827 0.960 . S
C1840 C1839 1.524 . S
C1841 C1838 1.403 . S
C1841 C1842 1.392 . S
C1841 C1845 1.495 . S
C1842 C1841 1.392 . S
C1842 C1843 1.385 . S
C1842 C1844 1.478 . S
C1843 H1837 0.930 . S
C1843 C1839 1.400 . S
C1843 C1842 1.385 . S
C1844 C1842 1.478 . S
C1844 C1846 1.381 . S
C1844 C1850 1.383 . S
C1845 C1841 1.495 . S
C1845 H1851 0.959 . S
C1845 H1852 0.961 . S
C1845 H1853 0.960 . S
C1846 C1844 1.381 . S
C1846 C1847 1.394 . S
C1846 H1854 0.930 . S
C1847 C1846 1.394 . S
C1847 C1848 1.383 . S
C1847 H1855 0.929 . S
C1848 C1847 1.383 . S
C1848 C1849 1.377 . S
C1849 H1833 0.930 . S
C1849 C1848 1.377 . S
C1849 C1850 1.379 . S
C1850 H1834 0.931 . S
C1850 C1844 1.383 . S
C1850 C1849 1.379 . S
H1851 C1845 0.959 . S
H1852 C1845 0.961 . S
H1853 C1845 0.960 . S
H1854 C1846 0.930 . S
H1855 C1847 0.929 . S
H1856 C1864 0.929 . S
H1857 C1866 0.930 . S
H1858 C1868 0.930 . S
H1859 C1871 0.929 . S
H1860 C1874 0.930 . S
H1861 C1876 0.960 . S
H1862 C1876 0.960 . S
H1863 C1876 0.960 . S
C1864 H1856 0.929 . S
C1864 C1865 1.377 . S
C1864 C1866 1.384 . S
C1865 C1864 1.377 . S
C1865 C1871 1.390 . S
C1866 H1857 0.930 . S
C1866 C1864 1.384 . S
C1866 C1867 1.372 . S
C1867 C1866 1.372 . S
C1867 C1868 1.400 . S
C1867 C1872 1.490 . S
C1868 H1858 0.930 . S
C1868 C1867 1.400 . S
C1868 C1871 1.386 . S
H1869 C1885 0.930 . S
H1870 C1886 0.931 . S
C1871 H1859 0.929 . S
C1871 C1865 1.390 . S
C1871 C1868 1.386 . S
C1872 C1867 1.490 . S
C1872 C1874 1.395 . S
C1872 C1875 1.403 . S
H1873 C1879 0.930 . S
C1874 H1860 0.930 . S
C1874 C1872 1.395 . S
C1874 C1877 1.403 . S
C1875 C1872 1.403 . S
C1875 C1876 1.524 . S
C1875 C1879 1.400 . S
C1876 H1861 0.960 . S
C1876 H1862 0.960 . S
C1876 H1863 0.960 . S
C1876 C1875 1.524 . S
C1877 C1874 1.403 . S
C1877 C1878 1.392 . S
C1877 C1881 1.495 . S
C1878 C1877 1.392 . S
C1878 C1879 1.385 . S
C1878 C1880 1.478 . S
C1879 H1873 0.930 . S
C1879 C1875 1.400 . S
C1879 C1878 1.385 . S
C1880 C1878 1.478 . S
C1880 C1882 1.381 . S
C1880 C1886 1.383 . S
C1881 C1877 1.495 . S
C1881 H1887 0.959 . S
C1881 H1888 0.961 . S
C1881 H1889 0.960 . S
C1882 C1880 1.381 . S
C1882 C1883 1.394 . S
C1882 H1890 0.930 . S
C1883 C1882 1.394 . S
C1883 C1884 1.383 . S
C1883 H1891 0.929 . S
C1884 C1883 1.383 . S
C1884 C1885 1.377 . S
C1885 H1869 0.930 . S
C1885 C1884 1.377 . S
C1885 C1886 1.379 . S
C1886 H1870 0.931 . S
C1886 C1880 1.383 . S
C1886 C1885 1.379 . S
H1887 C1881 0.959 . S
H1888 C1881 0.961 . S
H1889 C1881 0.960 . S
H1890 C1882 0.930 . S
H1891 C1883 0.929 . S
H1892 C1900 0.929 . S
H1893 C1902 0.930 . S
H1894 C1904 0.930 . S
H1895 C1907 0.929 . S
H1896 C1910 0.930 . S
H1897 C1912 0.960 . S
H1898 C1912 0.960 . S
H1899 C1912 0.960 . S
C1900 H1892 0.929 . S
C1900 C1901 1.377 . S
C1900 C1902 1.384 . S
C1901 C1900 1.377 . S
C1901 C1907 1.390 . S
C1902 H1893 0.930 . S
C1902 C1900 1.384 . S
C1902 C1903 1.372 . S
C1903 C1902 1.372 . S
C1903 C1904 1.400 . S
C1903 C1908 1.490 . S
C1904 H1894 0.930 . S
C1904 C1903 1.400 . S
C1904 C1907 1.386 . S
H1905 C1921 0.930 . S
H1906 C1922 0.931 . S
C1907 H1895 0.929 . S
C1907 C1901 1.390 . S
C1907 C1904 1.386 . S
C1908 C1903 1.490 . S
C1908 C1910 1.395 . S
C1908 C1911 1.403 . S
H1909 C1915 0.930 . S
C1910 H1896 0.930 . S
C1910 C1908 1.395 . S
C1910 C1913 1.403 . S
C1911 C1908 1.403 . S
C1911 C1912 1.524 . S
C1911 C1915 1.400 . S
C1912 H1897 0.960 . S
C1912 H1898 0.960 . S
C1912 H1899 0.960 . S
C1912 C1911 1.524 . S
C1913 C1910 1.403 . S
C1913 C1914 1.392 . S
C1913 C1917 1.495 . S
C1914 C1913 1.392 . S
C1914 C1915 1.385 . S
C1914 C1916 1.478 . S
C1915 H1909 0.930 . S
C1915 C1911 1.400 . S
C1915 C1914 1.385 . S
C1916 C1914 1.478 . S
C1916 C1918 1.381 . S
C1916 C1922 1.383 . S
C1917 C1913 1.495 . S
C1917 H1923 0.959 . S
C1917 H1924 0.961 . S
C1917 H1925 0.960 . S
C1918 C1916 1.381 . S
C1918 C1919 1.394 . S
C1918 H1926 0.930 . S
C1919 C1918 1.394 . S
C1919 C1920 1.383 . S
C1919 H1927 0.929 . S
C1920 C1919 1.383 . S
C1920 C1921 1.377 . S
C1921 H1905 0.930 . S
C1921 C1920 1.377 . S
C1921 C1922 1.379 . S
C1922 H1906 0.931 . S
C1922 C1916 1.383 . S
C1922 C1921 1.379 . S
H1923 C1917 0.959 . S
H1924 C1917 0.961 . S
H1925 C1917 0.960 . S
H1926 C1918 0.930 . S
H1927 C1919 0.929 . S
H1928 C1936 0.929 . S
H1929 C1938 0.930 . S
H1930 C1940 0.930 . S
H1931 C1943 0.929 . S
H1932 C1946 0.930 . S
H1933 C1948 0.960 . S
H1934 C1948 0.960 . S
H1935 C1948 0.960 . S
C1936 H1928 0.929 . S
C1936 C1937 1.377 . S
C1936 C1938 1.384 . S
C1937 C1936 1.377 . S
C1937 C1943 1.390 . S
C1938 H1929 0.930 . S
C1938 C1936 1.384 . S
C1938 C1939 1.372 . S
C1939 C1938 1.372 . S
C1939 C1940 1.400 . S
C1939 C1944 1.490 . S
C1940 H1930 0.930 . S
C1940 C1939 1.400 . S
C1940 C1943 1.386 . S
H1941 C1957 0.930 . S
H1942 C1958 0.931 . S
C1943 H1931 0.929 . S
C1943 C1937 1.390 . S
C1943 C1940 1.386 . S
C1944 C1939 1.490 . S
C1944 C1946 1.395 . S
C1944 C1947 1.403 . S
H1945 C1951 0.930 . S
C1946 H1932 0.930 . S
C1946 C1944 1.395 . S
C1946 C1949 1.403 . S
C1947 C1944 1.403 . S
C1947 C1948 1.524 . S
C1947 C1951 1.400 . S
C1948 H1933 0.960 . S
C1948 H1934 0.960 . S
C1948 H1935 0.960 . S
C1948 C1947 1.524 . S
C1949 C1946 1.403 . S
C1949 C1950 1.392 . S
C1949 C1953 1.495 . S
C1950 C1949 1.392 . S
C1950 C1951 1.385 . S
C1950 C1952 1.478 . S
C1951 H1945 0.930 . S
C1951 C1947 1.400 . S
C1951 C1950 1.385 . S
C1952 C1950 1.478 . S
C1952 C1954 1.381 . S
C1952 C1958 1.383 . S
C1953 C1949 1.495 . S
C1953 H1959 0.959 . S
C1953 H1960 0.961 . S
C1953 H1961 0.960 . S
C1954 C1952 1.381 . S
C1954 C1955 1.394 . S
C1954 H1962 0.930 . S
C1955 C1954 1.394 . S
C1955 C1956 1.383 . S
C1955 H1963 0.929 . S
C1956 C1955 1.383 . S
C1956 C1957 1.377 . S
C1957 H1941 0.930 . S
C1957 C1956 1.377 . S
C1957 C1958 1.379 . S
C1958 H1942 0.931 . S
C1958 C1952 1.383 . S
C1958 C1957 1.379 . S
H1959 C1953 0.959 . S
H1960 C1953 0.961 . S
H1961 C1953 0.960 . S
H1962 C1954 0.930 . S
H1963 C1955 0.929 . S
H1964 C1972 0.929 . S
H1965 C1974 0.930 . S
H1966 C1976 0.930 . S
H1967 C1979 0.929 . S
H1968 C1982 0.930 . S
H1969 C1984 0.960 . S
H1970 C1984 0.960 . S
H1971 C1984 0.960 . S
C1972 H1964 0.929 . S
C1972 C1973 1.377 . S
C1972 C1974 1.384 . S
C1973 C1972 1.377 . S
C1973 C1979 1.390 . S
C1974 H1965 0.930 . S
C1974 C1972 1.384 . S
C1974 C1975 1.372 . S
C1975 C1974 1.372 . S
C1975 C1976 1.400 . S
C1975 C1980 1.490 . S
C1976 H1966 0.930 . S
C1976 C1975 1.400 . S
C1976 C1979 1.386 . S
H1977 C1993 0.930 . S
H1978 C1994 0.931 . S
C1979 H1967 0.929 . S
C1979 C1973 1.390 . S
C1979 C1976 1.386 . S
C1980 C1975 1.490 . S
C1980 C1982 1.395 . S
C1980 C1983 1.403 . S
H1981 C1987 0.930 . S
C1982 H1968 0.930 . S
C1982 C1980 1.395 . S
C1982 C1985 1.403 . S
C1983 C1980 1.403 . S
C1983 C1984 1.524 . S
C1983 C1987 1.400 . S
C1984 H1969 0.960 . S
C1984 H1970 0.960 . S
C1984 H1971 0.960 . S
C1984 C1983 1.524 . S
C1985 C1982 1.403 . S
C1985 C1986 1.392 . S
C1985 C1989 1.495 . S
C1986 C1985 1.392 . S
C1986 C1987 1.385 . S
C1986 C1988 1.478 . S
C1987 H1981 0.930 . S
C1987 C1983 1.400 . S
C1987 C1986 1.385 . S
C1988 C1986 1.478 . S
C1988 C1990 1.381 . S
C1988 C1994 1.383 . S
C1989 C1985 1.495 . S
C1989 H1995 0.959 . S
C1989 H1996 0.961 . S
C1989 H1997 0.960 . S
C1990 C1988 1.381 . S
C1990 C1991 1.394 . S
C1990 H1998 0.930 . S
C1991 C1990 1.394 . S
C1991 C1992 1.383 . S
C1991 H1999 0.929 . S
C1992 C1991 1.383 . S
C1992 C1993 1.377 . S
C1993 H1977 0.930 . S
C1993 C1992 1.377 . S
C1993 C1994 1.379 . S
C1994 H1978 0.931 . S
C1994 C1988 1.383 . S
C1994 C1993 1.379 . S
H1995 C1989 0.959 . S
H1996 C1989 0.961 . S
H1997 C1989 0.960 . S
H1998 C1990 0.930 . S
H1999 C1991 0.929 . S
H2000 C2008 0.929 . S
H2001 C2010 0.930 . S
H2002 C2012 0.930 . S
H2003 C2015 0.929 . S
H2004 C2018 0.930 . S
H2005 C2020 0.960 . S
H2006 C2020 0.960 . S
H2007 C2020 0.960 . S
C2008 H2000 0.929 . S
C2008 C2009 1.377 . S
C2008 C2010 1.384 . S
C2009 C2008 1.377 . S
C2009 C2015 1.390 . S
C2010 H2001 0.930 . S
C2010 C2008 1.384 . S
C2010 C2011 1.372 . S
C2011 C2010 1.372 . S
C2011 C2012 1.400 . S
C2011 C2016 1.490 . S
C2012 H2002 0.930 . S
C2012 C2011 1.400 . S
C2012 C2015 1.386 . S
H2013 C2029 0.930 . S
H2014 C2030 0.931 . S
C2015 H2003 0.929 . S
C2015 C2009 1.390 . S
C2015 C2012 1.386 . S
C2016 C2011 1.490 . S
C2016 C2018 1.395 . S
C2016 C2019 1.403 . S
H2017 C2023 0.930 . S
C2018 H2004 0.930 . S
C2018 C2016 1.395 . S
C2018 C2021 1.403 . S
C2019 C2016 1.403 . S
C2019 C2020 1.524 . S
C2019 C2023 1.400 . S
C2020 H2005 0.960 . S
C2020 H2006 0.960 . S
C2020 H2007 0.960 . S
C2020 C2019 1.524 . S
C2021 C2018 1.403 . S
C2021 C2022 1.392 . S
C2021 C2025 1.495 . S
C2022 C2021 1.392 . S
C2022 C2023 1.385 . S
C2022 C2024 1.478 . S
C2023 H2017 0.930 . S
C2023 C2019 1.400 . S
C2023 C2022 1.385 . S
C2024 C2022 1.478 . S
C2024 C2026 1.381 . S
C2024 C2030 1.383 . S
C2025 C2021 1.495 . S
C2025 H2031 0.959 . S
C2025 H2032 0.961 . S
C2025 H2033 0.960 . S
C2026 C2024 1.381 . S
C2026 C2027 1.394 . S
C2026 H2034 0.930 . S
C2027 C2026 1.394 . S
C2027 C2028 1.383 . S
C2027 H2035 0.929 . S
C2028 C2027 1.383 . S
C2028 C2029 1.377 . S
C2029 H2013 0.930 . S
C2029 C2028 1.377 . S
C2029 C2030 1.379 . S
C2030 H2014 0.931 . S
C2030 C2024 1.383 . S
C2030 C2029 1.379 . S
H2031 C2025 0.959 . S
H2032 C2025 0.961 . S
H2033 C2025 0.960 . S
H2034 C2026 0.930 . S
H2035 C2027 0.929 . S
H2036 C2044 0.929 . S
H2037 C2046 0.930 . S
H2038 C2048 0.930 . S
H2039 C2051 0.929 . S
H2040 C2054 0.930 . S
H2041 C2056 0.960 . S
H2042 C2056 0.960 . S
H2043 C2056 0.960 . S
C2044 H2036 0.929 . S
C2044 C2045 1.377 . S
C2044 C2046 1.384 . S
C2045 C2044 1.377 . S
C2045 C2051 1.390 . S
C2046 H2037 0.930 . S
C2046 C2044 1.384 . S
C2046 C2047 1.372 . S
C2047 C2046 1.372 . S
C2047 C2048 1.400 . S
C2047 C2052 1.490 . S
C2048 H2038 0.930 . S
C2048 C2047 1.400 . S
C2048 C2051 1.386 . S
H2049 C2065 0.930 . S
H2050 C2066 0.931 . S
C2051 H2039 0.929 . S
C2051 C2045 1.390 . S
C2051 C2048 1.386 . S
C2052 C2047 1.490 . S
C2052 C2054 1.395 . S
C2052 C2055 1.403 . S
H2053 C2059 0.930 . S
C2054 H2040 0.930 . S
C2054 C2052 1.395 . S
C2054 C2057 1.403 . S
C2055 C2052 1.403 . S
C2055 C2056 1.524 . S
C2055 C2059 1.400 . S
C2056 H2041 0.960 . S
C2056 H2042 0.960 . S
C2056 H2043 0.960 . S
C2056 C2055 1.524 . S
C2057 C2054 1.403 . S
C2057 C2058 1.392 . S
C2057 C2061 1.495 . S
C2058 C2057 1.392 . S
C2058 C2059 1.385 . S
C2058 C2060 1.478 . S
C2059 H2053 0.930 . S
C2059 C2055 1.400 . S
C2059 C2058 1.385 . S
C2060 C2058 1.478 . S
C2060 C2062 1.381 . S
C2060 C2066 1.383 . S
C2061 C2057 1.495 . S
C2061 H2067 0.959 . S
C2061 H2068 0.961 . S
C2061 H2069 0.960 . S
C2062 C2060 1.381 . S
C2062 C2063 1.394 . S
C2062 H2070 0.930 . S
C2063 C2062 1.394 . S
C2063 C2064 1.383 . S
C2063 H2071 0.929 . S
C2064 C2063 1.383 . S
C2064 C2065 1.377 . S
C2065 H2049 0.930 . S
C2065 C2064 1.377 . S
C2065 C2066 1.379 . S
C2066 H2050 0.931 . S
C2066 C2060 1.383 . S
C2066 C2065 1.379 . S
H2067 C2061 0.959 . S
H2068 C2061 0.961 . S
H2069 C2061 0.960 . S
H2070 C2062 0.930 . S
H2071 C2063 0.929 . S
H2072 C2080 0.929 . S
H2073 C2082 0.930 . S
H2074 C2084 0.930 . S
H2075 C2087 0.929 . S
H2076 C2090 0.930 . S
H2077 C2092 0.960 . S
H2078 C2092 0.960 . S
H2079 C2092 0.960 . S
C2080 H2072 0.929 . S
C2080 C2081 1.377 . S
C2080 C2082 1.384 . S
C2081 C2080 1.377 . S
C2081 C2087 1.390 . S
C2082 H2073 0.930 . S
C2082 C2080 1.384 . S
C2082 C2083 1.372 . S
C2083 C2082 1.372 . S
C2083 C2084 1.400 . S
C2083 C2088 1.490 . S
C2084 H2074 0.930 . S
C2084 C2083 1.400 . S
C2084 C2087 1.386 . S
H2085 C2101 0.930 . S
H2086 C2102 0.931 . S
C2087 H2075 0.929 . S
C2087 C2081 1.390 . S
C2087 C2084 1.386 . S
C2088 C2083 1.490 . S
C2088 C2090 1.395 . S
C2088 C2091 1.403 . S
H2089 C2095 0.930 . S
C2090 H2076 0.930 . S
C2090 C2088 1.395 . S
C2090 C2093 1.403 . S
C2091 C2088 1.403 . S
C2091 C2092 1.524 . S
C2091 C2095 1.400 . S
C2092 H2077 0.960 . S
C2092 H2078 0.960 . S
C2092 H2079 0.960 . S
C2092 C2091 1.524 . S
C2093 C2090 1.403 . S
C2093 C2094 1.392 . S
C2093 C2097 1.495 . S
C2094 C2093 1.392 . S
C2094 C2095 1.385 . S
C2094 C2096 1.478 . S
C2095 H2089 0.930 . S
C2095 C2091 1.400 . S
C2095 C2094 1.385 . S
C2096 C2094 1.478 . S
C2096 C2098 1.381 . S
C2096 C2102 1.383 . S
C2097 C2093 1.495 . S
C2097 H2103 0.959 . S
C2097 H2104 0.961 . S
C2097 H2105 0.960 . S
C2098 C2096 1.381 . S
C2098 C2099 1.394 . S
C2098 H2106 0.930 . S
C2099 C2098 1.394 . S
C2099 C2100 1.383 . S
C2099 H2107 0.929 . S
C2100 C2099 1.383 . S
C2100 C2101 1.377 . S
C2101 H2085 0.930 . S
C2101 C2100 1.377 . S
C2101 C2102 1.379 . S
C2102 H2086 0.931 . S
C2102 C2096 1.383 . S
C2102 C2101 1.379 . S
H2103 C2097 0.959 . S
H2104 C2097 0.961 . S
H2105 C2097 0.960 . S
H2106 C2098 0.930 . S
H2107 C2099 0.929 . S
H2108 C2116 0.929 . S
H2109 C2118 0.930 . S
H2110 C2120 0.930 . S
H2111 C2123 0.929 . S
H2112 C2126 0.930 . S
H2113 C2128 0.960 . S
H2114 C2128 0.960 . S
H2115 C2128 0.960 . S
C2116 H2108 0.929 . S
C2116 C2117 1.377 . S
C2116 C2118 1.384 . S
C2117 C2116 1.377 . S
C2117 C2123 1.390 . S
C2118 H2109 0.930 . S
C2118 C2116 1.384 . S
C2118 C2119 1.372 . S
C2119 C2118 1.372 . S
C2119 C2120 1.400 . S
C2119 C2124 1.490 . S
C2120 H2110 0.930 . S
C2120 C2119 1.400 . S
C2120 C2123 1.386 . S
H2121 C2137 0.930 . S
H2122 C2138 0.931 . S
C2123 H2111 0.929 . S
C2123 C2117 1.390 . S
C2123 C2120 1.386 . S
C2124 C2119 1.490 . S
C2124 C2126 1.395 . S
C2124 C2127 1.403 . S
H2125 C2131 0.930 . S
C2126 H2112 0.930 . S
C2126 C2124 1.395 . S
C2126 C2129 1.403 . S
C2127 C2124 1.403 . S
C2127 C2128 1.524 . S
C2127 C2131 1.400 . S
C2128 H2113 0.960 . S
C2128 H2114 0.960 . S
C2128 H2115 0.960 . S
C2128 C2127 1.524 . S
C2129 C2126 1.403 . S
C2129 C2130 1.392 . S
C2129 C2133 1.495 . S
C2130 C2129 1.392 . S
C2130 C2131 1.385 . S
C2130 C2132 1.478 . S
C2131 H2125 0.930 . S
C2131 C2127 1.400 . S
C2131 C2130 1.385 . S
C2132 C2130 1.478 . S
C2132 C2134 1.381 . S
C2132 C2138 1.383 . S
C2133 C2129 1.495 . S
C2133 H2139 0.959 . S
C2133 H2140 0.961 . S
C2133 H2141 0.960 . S
C2134 C2132 1.381 . S
C2134 C2135 1.394 . S
C2134 H2142 0.930 . S
C2135 C2134 1.394 . S
C2135 C2136 1.383 . S
C2135 H2143 0.929 . S
C2136 C2135 1.383 . S
C2136 C2137 1.377 . S
C2137 H2121 0.930 . S
C2137 C2136 1.377 . S
C2137 C2138 1.379 . S
C2138 H2122 0.931 . S
C2138 C2132 1.383 . S
C2138 C2137 1.379 . S
H2139 C2133 0.959 . S
H2140 C2133 0.961 . S
H2141 C2133 0.960 . S
H2142 C2134 0.930 . S
H2143 C2135 0.929 . S
H2144 C2152 0.929 . S
H2145 C2154 0.930 . S
H2146 C2156 0.930 . S
H2147 C2159 0.929 . S
H2148 C2162 0.930 . S
H2149 C2164 0.960 . S
H2150 C2164 0.960 . S
H2151 C2164 0.960 . S
C2152 H2144 0.929 . S
C2152 C2153 1.377 . S
C2152 C2154 1.384 . S
C2153 C2152 1.377 . S
C2153 C2159 1.390 . S
C2154 H2145 0.930 . S
C2154 C2152 1.384 . S
C2154 C2155 1.372 . S
C2155 C2154 1.372 . S
C2155 C2156 1.400 . S
C2155 C2160 1.490 . S
C2156 H2146 0.930 . S
C2156 C2155 1.400 . S
C2156 C2159 1.386 . S
H2157 C2173 0.930 . S
H2158 C2174 0.931 . S
C2159 H2147 0.929 . S
C2159 C2153 1.390 . S
C2159 C2156 1.386 . S
C2160 C2155 1.490 . S
C2160 C2162 1.395 . S
C2160 C2163 1.403 . S
H2161 C2167 0.930 . S
C2162 H2148 0.930 . S
C2162 C2160 1.395 . S
C2162 C2165 1.403 . S
C2163 C2160 1.403 . S
C2163 C2164 1.524 . S
C2163 C2167 1.400 . S
C2164 H2149 0.960 . S
C2164 H2150 0.960 . S
C2164 H2151 0.960 . S
C2164 C2163 1.524 . S
C2165 C2162 1.403 . S
C2165 C2166 1.392 . S
C2165 C2169 1.495 . S
C2166 C2165 1.392 . S
C2166 C2167 1.385 . S
C2166 C2168 1.478 . S
C2167 H2161 0.930 . S
C2167 C2163 1.400 . S
C2167 C2166 1.385 . S
C2168 C2166 1.478 . S
C2168 C2170 1.381 . S
C2168 C2174 1.383 . S
C2169 C2165 1.495 . S
C2169 H2175 0.959 . S
C2169 H2176 0.961 . S
C2169 H2177 0.960 . S
C2170 C2168 1.381 . S
C2170 C2171 1.394 . S
C2170 H2178 0.930 . S
C2171 C2170 1.394 . S
C2171 C2172 1.383 . S
C2171 H2179 0.929 . S
C2172 C2171 1.383 . S
C2172 C2173 1.377 . S
C2173 H2157 0.930 . S
C2173 C2172 1.377 . S
C2173 C2174 1.379 . S
C2174 H2158 0.931 . S
C2174 C2168 1.383 . S
C2174 C2173 1.379 . S
H2175 C2169 0.959 . S
H2176 C2169 0.961 . S
H2177 C2169 0.960 . S
H2178 C2170 0.930 . S
H2179 C2171 0.929 . S
H2180 C2188 0.929 . S
H2181 C2190 0.930 . S
H2182 C2192 0.930 . S
H2183 C2195 0.929 . S
H2184 C2198 0.930 . S
H2185 C2200 0.960 . S
H2186 C2200 0.960 . S
H2187 C2200 0.960 . S
C2188 H2180 0.929 . S
C2188 C2189 1.377 . S
C2188 C2190 1.384 . S
C2189 C2188 1.377 . S
C2189 C2195 1.390 . S
C2190 H2181 0.930 . S
C2190 C2188 1.384 . S
C2190 C2191 1.372 . S
C2191 C2190 1.372 . S
C2191 C2192 1.400 . S
C2191 C2196 1.490 . S
C2192 H2182 0.930 . S
C2192 C2191 1.400 . S
C2192 C2195 1.386 . S
H2193 C2209 0.930 . S
H2194 C2210 0.931 . S
C2195 H2183 0.929 . S
C2195 C2189 1.390 . S
C2195 C2192 1.386 . S
C2196 C2191 1.490 . S
C2196 C2198 1.395 . S
C2196 C2199 1.403 . S
H2197 C2203 0.930 . S
C2198 H2184 0.930 . S
C2198 C2196 1.395 . S
C2198 C2201 1.403 . S
C2199 C2196 1.403 . S
C2199 C2200 1.524 . S
C2199 C2203 1.400 . S
C2200 H2185 0.960 . S
C2200 H2186 0.960 . S
C2200 H2187 0.960 . S
C2200 C2199 1.524 . S
C2201 C2198 1.403 . S
C2201 C2202 1.392 . S
C2201 C2205 1.495 . S
C2202 C2201 1.392 . S
C2202 C2203 1.385 . S
C2202 C2204 1.478 . S
C2203 H2197 0.930 . S
C2203 C2199 1.400 . S
C2203 C2202 1.385 . S
C2204 C2202 1.478 . S
C2204 C2206 1.381 . S
C2204 C2210 1.383 . S
C2205 C2201 1.495 . S
C2205 H2211 0.959 . S
C2205 H2212 0.961 . S
C2205 H2213 0.960 . S
C2206 C2204 1.381 . S
C2206 C2207 1.394 . S
C2206 H2214 0.930 . S
C2207 C2206 1.394 . S
C2207 C2208 1.383 . S
C2207 H2215 0.929 . S
C2208 C2207 1.383 . S
C2208 C2209 1.377 . S
C2209 H2193 0.930 . S
C2209 C2208 1.377 . S
C2209 C2210 1.379 . S
C2210 H2194 0.931 . S
C2210 C2204 1.383 . S
C2210 C2209 1.379 . S
H2211 C2205 0.959 . S
H2212 C2205 0.961 . S
H2213 C2205 0.960 . S
H2214 C2206 0.930 . S
H2215 C2207 0.929 . S
H2216 C2224 0.929 . S
H2217 C2226 0.930 . S
H2218 C2228 0.930 . S
H2219 C2231 0.929 . S
H2220 C2234 0.930 . S
H2221 C2236 0.960 . S
H2222 C2236 0.960 . S
H2223 C2236 0.960 . S
C2224 H2216 0.929 . S
C2224 C2225 1.377 . S
C2224 C2226 1.384 . S
C2225 C2224 1.377 . S
C2225 C2231 1.390 . S
C2226 H2217 0.930 . S
C2226 C2224 1.384 . S
C2226 C2227 1.372 . S
C2227 C2226 1.372 . S
C2227 C2228 1.400 . S
C2227 C2232 1.490 . S
C2228 H2218 0.930 . S
C2228 C2227 1.400 . S
C2228 C2231 1.386 . S
H2229 C2245 0.930 . S
H2230 C2246 0.931 . S
C2231 H2219 0.929 . S
C2231 C2225 1.390 . S
C2231 C2228 1.386 . S
C2232 C2227 1.490 . S
C2232 C2234 1.395 . S
C2232 C2235 1.403 . S
H2233 C2239 0.930 . S
C2234 H2220 0.930 . S
C2234 C2232 1.395 . S
C2234 C2237 1.403 . S
C2235 C2232 1.403 . S
C2235 C2236 1.524 . S
C2235 C2239 1.400 . S
C2236 H2221 0.960 . S
C2236 H2222 0.960 . S
C2236 H2223 0.960 . S
C2236 C2235 1.524 . S
C2237 C2234 1.403 . S
C2237 C2238 1.392 . S
C2237 C2241 1.495 . S
C2238 C2237 1.392 . S
C2238 C2239 1.385 . S
C2238 C2240 1.478 . S
C2239 H2233 0.930 . S
C2239 C2235 1.400 . S
C2239 C2238 1.385 . S
C2240 C2238 1.478 . S
C2240 C2242 1.381 . S
C2240 C2246 1.383 . S
C2241 C2237 1.495 . S
C2241 H2247 0.959 . S
C2241 H2248 0.961 . S
C2241 H2249 0.960 . S
C2242 C2240 1.381 . S
C2242 C2243 1.394 . S
C2242 H2250 0.930 . S
C2243 C2242 1.394 . S
C2243 C2244 1.383 . S
C2243 H2251 0.929 . S
C2244 C2243 1.383 . S
C2244 C2245 1.377 . S
C2245 H2229 0.930 . S
C2245 C2244 1.377 . S
C2245 C2246 1.379 . S
C2246 H2230 0.931 . S
C2246 C2240 1.383 . S
C2246 C2245 1.379 . S
H2247 C2241 0.959 . S
H2248 C2241 0.961 . S
H2249 C2241 0.960 . S
H2250 C2242 0.930 . S
H2251 C2243 0.929 . S
H2252 C2260 0.929 . S
H2253 C2262 0.930 . S
H2254 C2264 0.930 . S
H2255 C2267 0.929 . S
H2256 C2270 0.930 . S
H2257 C2272 0.960 . S
H2258 C2272 0.960 . S
H2259 C2272 0.960 . S
C2260 H2252 0.929 . S
C2260 C2261 1.377 . S
C2260 C2262 1.384 . S
C2261 C2260 1.377 . S
C2261 C2267 1.390 . S
C2262 H2253 0.930 . S
C2262 C2260 1.384 . S
C2262 C2263 1.372 . S
C2263 C2262 1.372 . S
C2263 C2264 1.400 . S
C2263 C2268 1.490 . S
C2264 H2254 0.930 . S
C2264 C2263 1.400 . S
C2264 C2267 1.386 . S
H2265 C2281 0.930 . S
H2266 C2282 0.931 . S
C2267 H2255 0.929 . S
C2267 C2261 1.390 . S
C2267 C2264 1.386 . S
C2268 C2263 1.490 . S
C2268 C2270 1.395 . S
C2268 C2271 1.403 . S
H2269 C2275 0.930 . S
C2270 H2256 0.930 . S
C2270 C2268 1.395 . S
C2270 C2273 1.403 . S
C2271 C2268 1.403 . S
C2271 C2272 1.524 . S
C2271 C2275 1.400 . S
C2272 H2257 0.960 . S
C2272 H2258 0.960 . S
C2272 H2259 0.960 . S
C2272 C2271 1.524 . S
C2273 C2270 1.403 . S
C2273 C2274 1.392 . S
C2273 C2277 1.495 . S
C2274 C2273 1.392 . S
C2274 C2275 1.385 . S
C2274 C2276 1.478 . S
C2275 H2269 0.930 . S
C2275 C2271 1.400 . S
C2275 C2274 1.385 . S
C2276 C2274 1.478 . S
C2276 C2278 1.381 . S
C2276 C2282 1.383 . S
C2277 C2273 1.495 . S
C2277 H2283 0.959 . S
C2277 H2284 0.961 . S
C2277 H2285 0.960 . S
C2278 C2276 1.381 . S
C2278 C2279 1.394 . S
C2278 H2286 0.930 . S
C2279 C2278 1.394 . S
C2279 C2280 1.383 . S
C2279 H2287 0.929 . S
C2280 C2279 1.383 . S
C2280 C2281 1.377 . S
C2281 H2265 0.930 . S
C2281 C2280 1.377 . S
C2281 C2282 1.379 . S
C2282 H2266 0.931 . S
C2282 C2276 1.383 . S
C2282 C2281 1.379 . S
H2283 C2277 0.959 . S
H2284 C2277 0.961 . S
H2285 C2277 0.960 . S
H2286 C2278 0.930 . S
H2287 C2279 0.929 . S
H2288 C2296 0.929 . S
H2289 C2298 0.930 . S
H2290 C2300 0.930 . S
H2291 C2303 0.929 . S
H2292 C2306 0.930 . S
H2293 C2308 0.960 . S
H2294 C2308 0.960 . S
H2295 C2308 0.960 . S
C2296 H2288 0.929 . S
C2296 C2297 1.377 . S
C2296 C2298 1.384 . S
C2297 C2296 1.377 . S
C2297 C2303 1.390 . S
C2298 H2289 0.930 . S
C2298 C2296 1.384 . S
C2298 C2299 1.372 . S
C2299 C2298 1.372 . S
C2299 C2300 1.400 . S
C2299 C2304 1.490 . S
C2300 H2290 0.930 . S
C2300 C2299 1.400 . S
C2300 C2303 1.386 . S
H2301 C2317 0.930 . S
H2302 C2318 0.931 . S
C2303 H2291 0.929 . S
C2303 C2297 1.390 . S
C2303 C2300 1.386 . S
C2304 C2299 1.490 . S
C2304 C2306 1.395 . S
C2304 C2307 1.403 . S
H2305 C2311 0.930 . S
C2306 H2292 0.930 . S
C2306 C2304 1.395 . S
C2306 C2309 1.403 . S
C2307 C2304 1.403 . S
C2307 C2308 1.524 . S
C2307 C2311 1.400 . S
C2308 H2293 0.960 . S
C2308 H2294 0.960 . S
C2308 H2295 0.960 . S
C2308 C2307 1.524 . S
C2309 C2306 1.403 . S
C2309 C2310 1.392 . S
C2309 C2313 1.495 . S
C2310 C2309 1.392 . S
C2310 C2311 1.385 . S
C2310 C2312 1.478 . S
C2311 H2305 0.930 . S
C2311 C2307 1.400 . S
C2311 C2310 1.385 . S
C2312 C2310 1.478 . S
C2312 C2314 1.381 . S
C2312 C2318 1.383 . S
C2313 C2309 1.495 . S
C2313 H2319 0.959 . S
C2313 H2320 0.961 . S
C2313 H2321 0.960 . S
C2314 C2312 1.381 . S
C2314 C2315 1.394 . S
C2314 H2322 0.930 . S
C2315 C2314 1.394 . S
C2315 C2316 1.383 . S
C2315 H2323 0.929 . S
C2316 C2315 1.383 . S
C2316 C2317 1.377 . S
C2317 H2301 0.930 . S
C2317 C2316 1.377 . S
C2317 C2318 1.379 . S
C2318 H2302 0.931 . S
C2318 C2312 1.383 . S
C2318 C2317 1.379 . S
H2319 C2313 0.959 . S
H2320 C2313 0.961 . S
H2321 C2313 0.960 . S
H2322 C2314 0.930 . S
H2323 C2315 0.929 . S
H2324 C2332 0.929 . S
H2325 C2334 0.930 . S
H2326 C2336 0.930 . S
H2327 C2339 0.929 . S
H2328 C2342 0.930 . S
H2329 C2344 0.960 . S
H2330 C2344 0.960 . S
H2331 C2344 0.960 . S
C2332 H2324 0.929 . S
C2332 C2333 1.377 . S
C2332 C2334 1.384 . S
C2333 C2332 1.377 . S
C2333 C2339 1.390 . S
C2334 H2325 0.930 . S
C2334 C2332 1.384 . S
C2334 C2335 1.372 . S
C2335 C2334 1.372 . S
C2335 C2336 1.400 . S
C2335 C2340 1.490 . S
C2336 H2326 0.930 . S
C2336 C2335 1.400 . S
C2336 C2339 1.386 . S
H2337 C2353 0.930 . S
H2338 C2354 0.931 . S
C2339 H2327 0.929 . S
C2339 C2333 1.390 . S
C2339 C2336 1.386 . S
C2340 C2335 1.490 . S
C2340 C2342 1.395 . S
C2340 C2343 1.403 . S
H2341 C2347 0.930 . S
C2342 H2328 0.930 . S
C2342 C2340 1.395 . S
C2342 C2345 1.403 . S
C2343 C2340 1.403 . S
C2343 C2344 1.524 . S
C2343 C2347 1.400 . S
C2344 H2329 0.960 . S
C2344 H2330 0.960 . S
C2344 H2331 0.960 . S
C2344 C2343 1.524 . S
C2345 C2342 1.403 . S
C2345 C2346 1.392 . S
C2345 C2349 1.495 . S
C2346 C2345 1.392 . S
C2346 C2347 1.385 . S
C2346 C2348 1.478 . S
C2347 H2341 0.930 . S
C2347 C2343 1.400 . S
C2347 C2346 1.385 . S
C2348 C2346 1.478 . S
C2348 C2350 1.381 . S
C2348 C2354 1.383 . S
C2349 C2345 1.495 . S
C2349 H2355 0.959 . S
C2349 H2356 0.961 . S
C2349 H2357 0.960 . S
C2350 C2348 1.381 . S
C2350 C2351 1.394 . S
C2350 H2358 0.930 . S
C2351 C2350 1.394 . S
C2351 C2352 1.383 . S
C2351 H2359 0.929 . S
C2352 C2351 1.383 . S
C2352 C2353 1.377 . S
C2353 H2337 0.930 . S
C2353 C2352 1.377 . S
C2353 C2354 1.379 . S
C2354 H2338 0.931 . S
C2354 C2348 1.383 . S
C2354 C2353 1.379 . S
H2355 C2349 0.959 . S
H2356 C2349 0.961 . S
H2357 C2349 0.960 . S
H2358 C2350 0.930 . S
H2359 C2351 0.929 . S
H2360 C2368 0.929 . S
H2361 C2370 0.930 . S
H2362 C2372 0.930 . S
H2363 C2375 0.929 . S
H2364 C2378 0.930 . S
H2365 C2380 0.960 . S
H2366 C2380 0.960 . S
H2367 C2380 0.960 . S
C2368 H2360 0.929 . S
C2368 C2369 1.377 . S
C2368 C2370 1.384 . S
C2369 C2368 1.377 . S
C2369 C2375 1.390 . S
C2370 H2361 0.930 . S
C2370 C2368 1.384 . S
C2370 C2371 1.372 . S
C2371 C2370 1.372 . S
C2371 C2372 1.400 . S
C2371 C2376 1.490 . S
C2372 H2362 0.930 . S
C2372 C2371 1.400 . S
C2372 C2375 1.386 . S
H2373 C2389 0.930 . S
H2374 C2390 0.931 . S
C2375 H2363 0.929 . S
C2375 C2369 1.390 . S
C2375 C2372 1.386 . S
C2376 C2371 1.490 . S
C2376 C2378 1.395 . S
C2376 C2379 1.403 . S
H2377 C2383 0.930 . S
C2378 H2364 0.930 . S
C2378 C2376 1.395 . S
C2378 C2381 1.403 . S
C2379 C2376 1.403 . S
C2379 C2380 1.524 . S
C2379 C2383 1.400 . S
C2380 H2365 0.960 . S
C2380 H2366 0.960 . S
C2380 H2367 0.960 . S
C2380 C2379 1.524 . S
C2381 C2378 1.403 . S
C2381 C2382 1.392 . S
C2381 C2385 1.495 . S
C2382 C2381 1.392 . S
C2382 C2383 1.385 . S
C2382 C2384 1.478 . S
C2383 H2377 0.930 . S
C2383 C2379 1.400 . S
C2383 C2382 1.385 . S
C2384 C2382 1.478 . S
C2384 C2386 1.381 . S
C2384 C2390 1.383 . S
C2385 C2381 1.495 . S
C2385 H2391 0.959 . S
C2385 H2392 0.961 . S
C2385 H2393 0.960 . S
C2386 C2384 1.381 . S
C2386 C2387 1.394 . S
C2386 H2394 0.930 . S
C2387 C2386 1.394 . S
C2387 C2388 1.383 . S
C2387 H2395 0.929 . S
C2388 C2387 1.383 . S
C2388 C2389 1.377 . S
C2389 H2373 0.930 . S
C2389 C2388 1.377 . S
C2389 C2390 1.379 . S
C2390 H2374 0.931 . S
C2390 C2384 1.383 . S
C2390 C2389 1.379 . S
H2391 C2385 0.959 . S
H2392 C2385 0.961 . S
H2393 C2385 0.960 . S
H2394 C2386 0.930 . S
H2395 C2387 0.929 . S
H2396 C2404 0.929 . S
H2397 C2406 0.930 . S
H2398 C2408 0.930 . S
H2399 C2411 0.929 . S
H2400 C2414 0.930 . S
H2401 C2416 0.960 . S
H2402 C2416 0.960 . S
H2403 C2416 0.960 . S
C2404 H2396 0.929 . S
C2404 C2405 1.377 . S
C2404 C2406 1.384 . S
C2405 C2404 1.377 . S
C2405 C2411 1.390 . S
C2406 H2397 0.930 . S
C2406 C2404 1.384 . S
C2406 C2407 1.372 . S
C2407 C2406 1.372 . S
C2407 C2408 1.400 . S
C2407 C2412 1.490 . S
C2408 H2398 0.930 . S
C2408 C2407 1.400 . S
C2408 C2411 1.386 . S
H2409 C2425 0.930 . S
H2410 C2426 0.931 . S
C2411 H2399 0.929 . S
C2411 C2405 1.390 . S
C2411 C2408 1.386 . S
C2412 C2407 1.490 . S
C2412 C2414 1.395 . S
C2412 C2415 1.403 . S
H2413 C2419 0.930 . S
C2414 H2400 0.930 . S
C2414 C2412 1.395 . S
C2414 C2417 1.403 . S
C2415 C2412 1.403 . S
C2415 C2416 1.524 . S
C2415 C2419 1.400 . S
C2416 H2401 0.960 . S
C2416 H2402 0.960 . S
C2416 H2403 0.960 . S
C2416 C2415 1.524 . S
C2417 C2414 1.403 . S
C2417 C2418 1.392 . S
C2417 C2421 1.495 . S
C2418 C2417 1.392 . S
C2418 C2419 1.385 . S
C2418 C2420 1.478 . S
C2419 H2413 0.930 . S
C2419 C2415 1.400 . S
C2419 C2418 1.385 . S
C2420 C2418 1.478 . S
C2420 C2422 1.381 . S
C2420 C2426 1.383 . S
C2421 C2417 1.495 . S
C2421 H2427 0.959 . S
C2421 H2428 0.961 . S
C2421 H2429 0.960 . S
C2422 C2420 1.381 . S
C2422 C2423 1.394 . S
C2422 H2430 0.930 . S
C2423 C2422 1.394 . S
C2423 C2424 1.383 . S
C2423 H2431 0.929 . S
C2424 C2423 1.383 . S
C2424 C2425 1.377 . S
C2425 H2409 0.930 . S
C2425 C2424 1.377 . S
C2425 C2426 1.379 . S
C2426 H2410 0.931 . S
C2426 C2420 1.383 . S
C2426 C2425 1.379 . S
H2427 C2421 0.959 . S
H2428 C2421 0.961 . S
H2429 C2421 0.960 . S
H2430 C2422 0.930 . S
H2431 C2423 0.929 . S
H2432 C2440 0.929 . S
H2433 C2442 0.930 . S
H2434 C2444 0.930 . S
H2435 C2447 0.929 . S
H2436 C2450 0.930 . S
H2437 C2452 0.960 . S
H2438 C2452 0.960 . S
H2439 C2452 0.960 . S
C2440 H2432 0.929 . S
C2440 C2441 1.377 . S
C2440 C2442 1.384 . S
C2441 C2440 1.377 . S
C2441 C2447 1.390 . S
C2442 H2433 0.930 . S
C2442 C2440 1.384 . S
C2442 C2443 1.372 . S
C2443 C2442 1.372 . S
C2443 C2444 1.400 . S
C2443 C2448 1.490 . S
C2444 H2434 0.930 . S
C2444 C2443 1.400 . S
C2444 C2447 1.386 . S
H2445 C2461 0.930 . S
H2446 C2462 0.931 . S
C2447 H2435 0.929 . S
C2447 C2441 1.390 . S
C2447 C2444 1.386 . S
C2448 C2443 1.490 . S
C2448 C2450 1.395 1_556 S
C2448 C2451 1.403 . S
H2449 C2455 0.930 . S
C2450 H2436 0.930 . S
C2450 C2448 1.395 1_554 S
C2450 C2453 1.403 . S
C2451 C2448 1.403 . S
C2451 C2452 1.524 . S
C2451 C2455 1.331 1_556 S
C2452 H2437 0.960 . S
C2452 H2438 0.960 . S
C2452 H2439 0.960 . S
C2452 C2451 1.524 . S
C2453 C2450 1.403 . S
C2453 C2454 1.392 . S
C2453 C2457 1.495 . S
C2454 C2453 1.392 . S
C2454 C2455 1.457 . S
C2454 C2456 1.478 . S
C2455 H2449 0.930 . S
C2455 C2451 1.331 1_554 S
C2455 C2454 1.457 . S
C2456 C2454 1.478 . S
C2456 C2458 1.381 . S
C2456 C2462 1.383 . S
C2457 C2453 1.495 . S
C2457 H2463 0.959 . S
C2457 H2464 0.961 . S
C2457 H2465 0.960 . S
C2458 C2456 1.381 . S
C2458 C2459 1.394 . S
C2458 H2466 0.930 . S
C2459 C2458 1.394 . S
C2459 C2460 1.383 . S
C2459 H2467 0.929 . S
C2460 C2459 1.383 . S
C2460 C2461 1.377 . S
C2461 H2445 0.930 . S
C2461 C2460 1.377 . S
C2461 C2462 1.379 . S
C2462 H2446 0.931 . S
C2462 C2456 1.383 . S
C2462 C2461 1.379 . S
H2463 C2457 0.959 . S
H2464 C2457 0.961 . S
H2465 C2457 0.960 . S
H2466 C2458 0.930 . S
H2467 C2459 0.929 . S
H2468 C2476 0.929 1_455 S
H2469 C2478 0.930 1_455 S
H2470 C2480 0.930 . S
H2471 C2483 0.929 . S
H2472 C2486 0.930 . S
H2473 C2488 0.960 . S
H2474 C2488 0.960 . S
H2475 C2488 0.960 . S
C2476 H2468 0.929 1_655 S
C2476 C2477 1.377 . S
C2476 C2478 1.384 . S
C2477 C2476 1.377 . S
C2477 C2483 1.390 . S
C2478 H2469 0.930 1_655 S
C2478 C2476 1.384 . S
C2478 C2479 1.372 . S
C2479 C2478 1.372 . S
C2479 C2480 1.400 . S
C2479 C2484 1.490 . S
C2480 H2470 0.930 . S
C2480 C2479 1.400 . S
C2480 C2483 1.386 . S
H2481 C2497 0.930 . S
H2482 C2498 0.931 . S
C2483 H2471 0.929 . S
C2483 C2477 1.390 . S
C2483 C2480 1.386 . S
C2484 C2479 1.490 . S
C2484 C2486 1.395 . S
C2484 C2487 1.403 1_545 S
H2485 C2491 0.930 . S
C2486 H2472 0.930 . S
C2486 C2484 1.395 . S
C2486 C2489 1.403 . S
C2487 C2484 1.403 1_565 S
C2487 C2488 1.524 . S
C2487 C2491 1.400 . S
C2488 H2473 0.960 . S
C2488 H2474 0.960 . S
C2488 H2475 0.960 . S
C2488 C2487 1.524 . S
C2489 C2486 1.403 . S
C2489 C2490 1.392 1_545 S
C2489 C2493 1.495 . S
C2490 C2489 1.392 1_565 S
C2490 C2491 1.385 . S
C2490 C2492 1.478 . S
C2491 H2485 0.930 . S
C2491 C2487 1.400 . S
C2491 C2490 1.385 . S
C2492 C2490 1.478 . S
C2492 C2494 1.381 . S
C2492 C2498 1.383 . S
C2493 C2489 1.495 . S
C2493 H2499 0.959 . S
C2493 H2500 0.961 . S
C2493 H2501 0.960 1_655 S
C2494 C2492 1.381 . S
C2494 C2495 1.394 . S
C2494 H2502 0.930 1_655 S
C2495 C2494 1.394 . S
C2495 C2496 1.383 . S
C2495 H2503 0.929 1_655 S
C2496 C2495 1.383 . S
C2496 C2497 1.377 . S
C2497 H2481 0.930 . S
C2497 C2496 1.377 . S
C2497 C2498 1.379 . S
C2498 H2482 0.931 . S
C2498 C2492 1.383 . S
C2498 C2497 1.379 . S
H2499 C2493 0.959 . S
H2500 C2493 0.961 . S
H2501 C2493 0.960 1_455 S
H2502 C2494 0.930 1_455 S
H2503 C2495 0.929 1_455 S
H2504 C2512 0.929 . S
H2505 C2514 0.930 . S
H2506 C2516 0.930 . S
H2507 C2519 0.929 . S
H2508 C2522 0.930 . S
H2509 C2524 0.960 . S
H2510 C2524 0.960 . S
H2511 C2524 0.960 . S
C2512 H2504 0.929 . S
C2512 C2513 1.377 . S
C2512 C2514 1.384 . S
C2513 C2512 1.377 . S
C2513 C2519 1.390 . S
C2514 H2505 0.930 . S
C2514 C2512 1.384 . S
C2514 C2515 1.372 . S
C2515 C2514 1.372 . S
C2515 C2516 1.400 . S
C2515 C2520 1.490 . S
C2516 H2506 0.930 . S
C2516 C2515 1.400 . S
C2516 C2519 1.386 . S
H2517 C2533 0.930 . S
H2518 C2534 0.931 . S
C2519 H2507 0.929 . S
C2519 C2513 1.390 . S
C2519 C2516 1.386 . S
C2520 C2515 1.490 . S
C2520 C2522 1.395 . S
C2520 C2523 1.403 . S
H2521 C2527 0.930 . S
C2522 H2508 0.930 . S
C2522 C2520 1.395 . S
C2522 C2525 1.403 . S
C2523 C2520 1.403 . S
C2523 C2524 1.524 . S
C2523 C2527 1.400 . S
C2524 H2509 0.960 . S
C2524 H2510 0.960 . S
C2524 H2511 0.960 . S
C2524 C2523 1.524 . S
C2525 C2522 1.403 . S
C2525 C2526 1.392 . S
C2525 C2529 1.495 . S
C2526 C2525 1.392 . S
C2526 C2527 1.385 . S
C2526 C2528 1.478 . S
C2527 H2521 0.930 . S
C2527 C2523 1.400 . S
C2527 C2526 1.385 . S
C2528 C2526 1.478 . S
C2528 C2530 1.381 . S
C2528 C2534 1.383 . S
C2529 C2525 1.495 . S
C2529 H2535 0.959 . S
C2529 H2536 0.961 . S
C2529 H2537 0.960 . S
C2530 C2528 1.381 . S
C2530 C2531 1.394 . S
C2530 H2538 0.930 . S
C2531 C2530 1.394 . S
C2531 C2532 1.383 . S
C2531 H2539 0.929 . S
C2532 C2531 1.383 . S
C2532 C2533 1.377 . S
C2533 H2517 0.930 . S
C2533 C2532 1.377 . S
C2533 C2534 1.379 . S
C2534 H2518 0.931 . S
C2534 C2528 1.383 . S
C2534 C2533 1.379 . S
H2535 C2529 0.959 . S
H2536 C2529 0.961 . S
H2537 C2529 0.960 . S
H2538 C2530 0.930 . S
H2539 C2531 0.929 . S
H2540 C2548 0.929 . S
H2541 C2550 0.930 . S
H2542 C2552 0.930 . S
H2543 C2555 0.929 . S
H2544 C2558 0.930 . S
H2545 C2560 0.960 . S
H2546 C2560 0.960 . S
H2547 C2560 0.960 . S
C2548 H2540 0.929 . S
C2548 C2549 1.377 . S
C2548 C2550 1.384 . S
C2549 C2548 1.377 . S
C2549 C2555 1.390 . S
C2550 H2541 0.930 . S
C2550 C2548 1.384 . S
C2550 C2551 1.372 . S
C2551 C2550 1.372 . S
C2551 C2552 1.400 . S
C2551 C2556 1.490 . S
C2552 H2542 0.930 . S
C2552 C2551 1.400 . S
C2552 C2555 1.386 . S
H2553 C2569 0.930 . S
H2554 C2570 0.931 . S
C2555 H2543 0.929 . S
C2555 C2549 1.390 . S
C2555 C2552 1.386 . S
C2556 C2551 1.490 . S
C2556 C2558 1.395 1_565 S
C2556 C2559 1.403 . S
H2557 C2563 0.930 . S
C2558 H2544 0.930 . S
C2558 C2556 1.395 1_545 S
C2558 C2561 1.403 . S
C2559 C2556 1.403 . S
C2559 C2560 1.524 . S
C2559 C2563 1.400 . S
C2560 H2545 0.960 . S
C2560 H2546 0.960 . S
C2560 H2547 0.960 . S
C2560 C2559 1.524 . S
C2561 C2558 1.403 . S
C2561 C2562 1.392 . S
C2561 C2565 1.495 . S
C2562 C2561 1.392 . S
C2562 C2563 1.385 1_545 S
C2562 C2564 1.478 . S
C2563 H2557 0.930 . S
C2563 C2559 1.400 . S
C2563 C2562 1.385 1_565 S
C2564 C2562 1.478 . S
C2564 C2566 1.381 . S
C2564 C2570 1.383 . S
C2565 C2561 1.495 . S
C2565 H2571 0.959 . S
C2565 H2572 0.961 . S
C2565 H2573 0.960 . S
C2566 C2564 1.381 . S
C2566 C2567 1.394 . S
C2566 H2574 0.930 . S
C2567 C2566 1.394 . S
C2567 C2568 1.383 . S
C2567 H2575 0.929 . S
C2568 C2567 1.383 . S
C2568 C2569 1.377 . S
C2569 H2553 0.930 . S
C2569 C2568 1.377 . S
C2569 C2570 1.379 . S
C2570 H2554 0.931 . S
C2570 C2564 1.383 . S
C2570 C2569 1.379 . S
H2571 C2565 0.959 . S
H2572 C2565 0.961 . S
H2573 C2565 0.960 . S
H2574 C2566 0.930 . S
H2575 C2567 0.929 . S
H2576 C2584 0.929 . S
H2577 C2586 0.930 . S
H2578 C2588 0.930 . S
H2579 C2591 0.929 . S
H2580 C2594 0.930 . S
H2581 C2596 0.960 . S
H2582 C2596 0.960 . S
H2583 C2596 0.960 1_556 S
C2584 H2576 0.929 . S
C2584 C2585 1.377 . S
C2584 C2586 1.384 . S
C2585 C2584 1.377 . S
C2585 C2591 1.390 . S
C2586 H2577 0.930 . S
C2586 C2584 1.384 . S
C2586 C2587 1.372 . S
C2587 C2586 1.372 . S
C2587 C2588 1.400 . S
C2587 C2592 1.490 . S
C2588 H2578 0.930 . S
C2588 C2587 1.400 . S
C2588 C2591 1.386 . S
H2589 C2605 0.930 . S
H2590 C2606 0.931 . S
C2591 H2579 0.929 . S
C2591 C2585 1.390 . S
C2591 C2588 1.386 . S
C2592 C2587 1.490 . S
C2592 C2594 1.395 . S
C2592 C2595 1.377 1_556 S
H2593 C2599 0.930 . S
C2594 H2580 0.930 . S
C2594 C2592 1.395 . S
C2594 C2597 1.403 . S
C2595 C2592 1.377 1_554 S
C2595 C2596 1.528 . S
C2595 C2599 1.423 . S
C2596 H2581 0.960 . S
C2596 H2582 0.960 . S
C2596 H2583 0.960 1_554 S
C2596 C2595 1.528 . S
C2597 C2594 1.403 . S
C2597 C2598 1.392 1_556 S
C2597 C2601 1.495 . S
C2598 C2597 1.392 1_554 S
C2598 C2599 1.385 . S
C2598 C2600 1.478 . S
C2599 H2593 0.930 . S
C2599 C2595 1.423 . S
C2599 C2598 1.385 . S
C2600 C2598 1.478 . S
C2600 C2602 1.381 . S
C2600 C2606 1.383 . S
C2601 C2597 1.495 . S
C2601 H2607 0.959 . S
C2601 H2608 0.961 . S
C2601 H2609 0.960 1_556 S
C2602 C2600 1.381 . S
C2602 C2603 1.394 . S
C2602 H2610 0.930 . S
C2603 C2602 1.394 . S
C2603 C2604 1.383 . S
C2603 H2611 0.929 . S
C2604 C2603 1.383 . S
C2604 C2605 1.377 . S
C2605 H2589 0.930 . S
C2605 C2604 1.377 . S
C2605 C2606 1.379 . S
C2606 H2590 0.931 . S
C2606 C2600 1.383 . S
C2606 C2605 1.379 . S
H2607 C2601 0.959 . S
H2608 C2601 0.961 . S
H2609 C2601 0.960 1_554 S
H2610 C2602 0.930 . S
H2611 C2603 0.929 . S
H2612 C2620 0.948 . S
H2613 C2622 0.925 1_655 S
H2614 C2624 0.930 . S
H2615 C2627 0.929 . S
H2616 C2630 0.936 1_655 S
H2617 C2632 0.960 . S
H2618 C2632 0.960 . S
H2619 C2632 0.960 . S
C2620 H2612 0.948 . S
C2620 C2621 1.377 . S
C2620 C2622 1.384 . S
C2621 C2620 1.377 . S
C2621 C2627 1.390 . S
C2622 H2613 0.925 1_455 S
C2622 C2620 1.384 . S
C2622 C2623 1.372 . S
C2623 C2622 1.372 . S
C2623 C2624 1.400 . S
C2623 C2628 1.490 . S
C2624 H2614 0.930 . S
C2624 C2623 1.400 . S
C2624 C2627 1.386 . S
H2625 C2641 0.930 . S
H2626 C2642 0.931 . S
C2627 H2615 0.929 . S
C2627 C2621 1.390 . S
C2627 C2624 1.386 . S
C2628 C2623 1.490 . S
C2628 C2630 1.429 . S
C2628 C2631 1.403 . S
H2629 C2635 0.945 . S
C2630 H2616 0.936 1_455 S
C2630 C2628 1.429 . S
C2630 C2633 1.366 1_565 S
C2631 C2628 1.403 . S
C2631 C2632 1.524 . S
C2631 C2635 1.331 1_565 S
C2632 H2617 0.960 . S
C2632 H2618 0.960 . S
C2632 H2619 0.960 . S
C2632 C2631 1.524 . S
C2633 C2630 1.366 1_545 S
C2633 C2634 1.392 . S
C2633 C2637 1.495 1_455 S
C2634 C2633 1.392 . S
C2634 C2635 1.451 . S
C2634 C2636 1.478 . S
C2635 H2629 0.945 . S
C2635 C2631 1.331 1_545 S
C2635 C2634 1.451 . S
C2636 C2634 1.478 . S
C2636 C2638 1.381 . S
C2636 C2642 1.383 . S
C2637 C2633 1.495 1_655 S
C2637 H2643 0.959 . S
C2637 H2644 0.961 . S
C2637 H2645 0.960 . S
C2638 C2636 1.381 . S
C2638 C2639 1.394 . S
C2638 H2646 0.883 1_455 S
C2639 C2638 1.394 . S
C2639 C2640 1.383 . S
C2639 H2647 0.962 . S
C2640 C2639 1.383 . S
C2640 C2641 1.377 . S
C2641 H2625 0.930 . S
C2641 C2640 1.377 . S
C2641 C2642 1.379 . S
C2642 H2626 0.931 . S
C2642 C2636 1.383 . S
C2642 C2641 1.379 . S
H2643 C2637 0.959 . S
H2644 C2637 0.961 . S
H2645 C2637 0.960 . S
H2646 C2638 0.883 1_655 S
H2647 C2639 0.962 . S
H2648 C2656 0.929 . S
H2649 C2658 0.930 . S
H2650 C2660 0.930 . S
H2651 C2663 0.929 . S
H2652 C2666 0.930 . S
H2653 C2668 0.960 . S
H2654 C2668 0.960 . S
H2655 C2668 0.960 . S
C2656 H2648 0.929 . S
C2656 C2657 1.377 . S
C2656 C2658 1.384 . S
C2657 C2656 1.377 . S
C2657 C2663 1.390 . S
C2658 H2649 0.930 . S
C2658 C2656 1.384 . S
C2658 C2659 1.372 . S
C2659 C2658 1.372 . S
C2659 C2660 1.400 . S
C2659 C2664 1.490 . S
C2660 H2650 0.930 . S
C2660 C2659 1.400 . S
C2660 C2663 1.386 . S
H2661 C2677 0.930 . S
H2662 C2678 0.931 . S
C2663 H2651 0.929 . S
C2663 C2657 1.390 . S
C2663 C2660 1.386 . S
C2664 C2659 1.490 . S
C2664 C2666 1.395 . S
C2664 C2667 1.403 . S
H2665 C2671 0.930 . S
C2666 H2652 0.930 . S
C2666 C2664 1.395 . S
C2666 C2669 1.403 . S
C2667 C2664 1.403 . S
C2667 C2668 1.524 . S
C2667 C2671 1.400 . S
C2668 H2653 0.960 . S
C2668 H2654 0.960 . S
C2668 H2655 0.960 . S
C2668 C2667 1.524 . S
C2669 C2666 1.403 . S
C2669 C2670 1.392 . S
C2669 C2673 1.495 . S
C2670 C2669 1.392 . S
C2670 C2671 1.385 . S
C2670 C2672 1.478 . S
C2671 H2665 0.930 . S
C2671 C2667 1.400 . S
C2671 C2670 1.385 . S
C2672 C2670 1.478 . S
C2672 C2674 1.381 . S
C2672 C2678 1.383 . S
C2673 C2669 1.495 . S
C2673 H2679 0.959 . S
C2673 H2680 0.961 . S
C2673 H2681 0.960 . S
C2674 C2672 1.381 . S
C2674 C2675 1.394 . S
C2674 H2682 0.930 . S
C2675 C2674 1.394 . S
C2675 C2676 1.383 . S
C2675 H2683 0.929 . S
C2676 C2675 1.383 . S
C2676 C2677 1.377 . S
C2677 H2661 0.930 . S
C2677 C2676 1.377 . S
C2677 C2678 1.379 . S
C2678 H2662 0.931 . S
C2678 C2672 1.383 . S
C2678 C2677 1.379 . S
H2679 C2673 0.959 . S
H2680 C2673 0.961 . S
H2681 C2673 0.960 . S
H2682 C2674 0.930 . S
H2683 C2675 0.929 . S
H2684 C2692 0.929 . S
H2685 C2694 0.930 . S
H2686 C2696 0.930 . S
H2687 C2699 0.929 . S
H2688 C2702 0.930 . S
H2689 C2704 0.960 . S
H2690 C2704 0.960 . S
H2691 C2704 0.960 . S
C2692 H2684 0.929 . S
C2692 C2693 1.377 . S
C2692 C2694 1.384 . S
C2693 C2692 1.377 . S
C2693 C2699 1.390 . S
C2694 H2685 0.930 . S
C2694 C2692 1.384 . S
C2694 C2695 1.372 . S
C2695 C2694 1.372 . S
C2695 C2696 1.400 . S
C2695 C2700 1.490 . S
C2696 H2686 0.930 . S
C2696 C2695 1.400 . S
C2696 C2699 1.386 . S
H2697 C2713 0.930 . S
H2698 C2714 0.931 . S
C2699 H2687 0.929 . S
C2699 C2693 1.390 . S
C2699 C2696 1.386 . S
C2700 C2695 1.490 . S
C2700 C2702 1.395 . S
C2700 C2703 1.403 . S
H2701 C2707 0.930 . S
C2702 H2688 0.930 . S
C2702 C2700 1.395 . S
C2702 C2705 1.403 1_545 S
C2703 C2700 1.403 . S
C2703 C2704 1.524 . S
C2703 C2707 1.400 1_545 S
C2704 H2689 0.960 . S
C2704 H2690 0.960 . S
C2704 H2691 0.960 . S
C2704 C2703 1.524 . S
C2705 C2702 1.403 1_565 S
C2705 C2706 1.392 . S
C2705 C2709 1.495 . S
C2706 C2705 1.392 . S
C2706 C2707 1.385 . S
C2706 C2708 1.478 . S
C2707 H2701 0.930 . S
C2707 C2703 1.400 1_565 S
C2707 C2706 1.385 . S
C2708 C2706 1.478 . S
C2708 C2710 1.381 . S
C2708 C2714 1.383 . S
C2709 C2705 1.495 . S
C2709 H2715 0.959 . S
C2709 H2716 0.961 . S
C2709 H2717 0.960 . S
C2710 C2708 1.381 . S
C2710 C2711 1.394 . S
C2710 H2718 0.930 . S
C2711 C2710 1.394 . S
C2711 C2712 1.383 . S
C2711 H2719 0.929 . S
C2712 C2711 1.383 . S
C2712 C2713 1.377 . S
C2713 H2697 0.930 . S
C2713 C2712 1.377 . S
C2713 C2714 1.379 . S
C2714 H2698 0.931 . S
C2714 C2708 1.383 . S
C2714 C2713 1.379 . S
H2715 C2709 0.959 . S
H2716 C2709 0.961 . S
H2717 C2709 0.960 . S
H2718 C2710 0.930 . S
H2719 C2711 0.929 . S
H2720 C2728 0.929 . S
H2721 C2730 0.930 . S
H2722 C2732 0.930 . S
H2723 C2735 0.929 . S
H2724 C2738 0.930 . S
H2725 C2740 0.960 . S
H2726 C2740 0.960 . S
H2727 C2740 0.960 . S
C2728 H2720 0.929 . S
C2728 C2729 1.377 . S
C2728 C2730 1.384 . S
C2729 C2728 1.377 . S
C2729 C2735 1.390 . S
C2730 H2721 0.930 . S
C2730 C2728 1.384 . S
C2730 C2731 1.372 . S
C2731 C2730 1.372 . S
C2731 C2732 1.400 . S
C2731 C2736 1.490 . S
C2732 H2722 0.930 . S
C2732 C2731 1.400 . S
C2732 C2735 1.386 . S
H2733 C2749 0.930 . S
H2734 C2750 0.931 . S
C2735 H2723 0.929 . S
C2735 C2729 1.390 . S
C2735 C2732 1.386 . S
C2736 C2731 1.490 . S
C2736 C2738 1.395 . S
C2736 C2739 1.403 . S
H2737 C2743 0.930 . S
C2738 H2724 0.930 . S
C2738 C2736 1.395 . S
C2738 C2741 1.403 . S
C2739 C2736 1.403 . S
C2739 C2740 1.524 . S
C2739 C2743 1.400 . S
C2740 H2725 0.960 . S
C2740 H2726 0.960 . S
C2740 H2727 0.960 . S
C2740 C2739 1.524 . S
C2741 C2738 1.403 . S
C2741 C2742 1.392 . S
C2741 C2745 1.495 . S
C2742 C2741 1.392 . S
C2742 C2743 1.385 . S
C2742 C2744 1.478 . S
C2743 H2737 0.930 . S
C2743 C2739 1.400 . S
C2743 C2742 1.385 . S
C2744 C2742 1.478 . S
C2744 C2746 1.381 . S
C2744 C2750 1.383 . S
C2745 C2741 1.495 . S
C2745 H2751 0.959 . S
C2745 H2752 0.961 . S
C2745 H2753 0.960 . S
C2746 C2744 1.381 . S
C2746 C2747 1.394 . S
C2746 H2754 0.930 . S
C2747 C2746 1.394 . S
C2747 C2748 1.383 . S
C2747 H2755 0.929 . S
C2748 C2747 1.383 . S
C2748 C2749 1.377 . S
C2749 H2733 0.930 . S
C2749 C2748 1.377 . S
C2749 C2750 1.379 . S
C2750 H2734 0.931 . S
C2750 C2744 1.383 . S
C2750 C2749 1.379 . S
H2751 C2745 0.959 . S
H2752 C2745 0.961 . S
H2753 C2745 0.960 . S
H2754 C2746 0.930 . S
H2755 C2747 0.929 . S
H2756 C2764 0.929 . S
H2757 C2766 0.930 . S
H2758 C2768 0.930 . S
H2759 C2771 0.929 . S
H2760 C2774 0.930 . S
H2761 C2776 0.960 . S
H2762 C2776 0.960 . S
H2763 C2776 0.960 . S
C2764 H2756 0.929 . S
C2764 C2765 1.377 . S
C2764 C2766 1.384 . S
C2765 C2764 1.377 . S
C2765 C2771 1.390 . S
C2766 H2757 0.930 . S
C2766 C2764 1.384 . S
C2766 C2767 1.372 . S
C2767 C2766 1.372 . S
C2767 C2768 1.400 . S
C2767 C2772 1.490 . S
C2768 H2758 0.930 . S
C2768 C2767 1.400 . S
C2768 C2771 1.386 . S
H2769 C2785 0.930 . S
H2770 C2786 0.931 . S
C2771 H2759 0.929 . S
C2771 C2765 1.390 . S
C2771 C2768 1.386 . S
C2772 C2767 1.490 . S
C2772 C2774 1.395 . S
C2772 C2775 1.403 . S
H2773 C2779 0.930 . S
C2774 H2760 0.930 . S
C2774 C2772 1.395 . S
C2774 C2777 1.403 . S
C2775 C2772 1.403 . S
C2775 C2776 1.524 . S
C2775 C2779 1.400 . S
C2776 H2761 0.960 . S
C2776 H2762 0.960 . S
C2776 H2763 0.960 . S
C2776 C2775 1.524 . S
C2777 C2774 1.403 . S
C2777 C2778 1.392 . S
C2777 C2781 1.495 . S
C2778 C2777 1.392 . S
C2778 C2779 1.385 . S
C2778 C2780 1.478 . S
C2779 H2773 0.930 . S
C2779 C2775 1.400 . S
C2779 C2778 1.385 . S
C2780 C2778 1.478 . S
C2780 C2782 1.381 . S
C2780 C2786 1.383 . S
C2781 C2777 1.495 . S
C2781 H2787 0.959 . S
C2781 H2788 0.961 . S
C2781 H2789 0.960 . S
C2782 C2780 1.381 . S
C2782 C2783 1.394 . S
C2782 H2790 0.930 . S
C2783 C2782 1.394 . S
C2783 C2784 1.383 . S
C2783 H2791 0.929 . S
C2784 C2783 1.383 . S
C2784 C2785 1.377 . S
C2785 H2769 0.930 . S
C2785 C2784 1.377 . S
C2785 C2786 1.379 . S
C2786 H2770 0.931 . S
C2786 C2780 1.383 . S
C2786 C2785 1.379 . S
H2787 C2781 0.959 . S
H2788 C2781 0.961 . S
H2789 C2781 0.960 . S
H2790 C2782 0.930 . S
H2791 C2783 0.929 . S
H2792 C2800 0.929 . S
H2793 C2802 0.930 . S
H2794 C2804 0.930 . S
H2795 C2807 0.929 . S
H2796 C2810 0.930 . S
H2797 C2812 0.960 1_556 S
H2798 C2812 0.960 . S
H2799 C2812 0.960 . S
C2800 H2792 0.929 . S
C2800 C2801 1.377 . S
C2800 C2802 1.384 . S
C2801 C2800 1.377 . S
C2801 C2807 1.390 . S
C2802 H2793 0.930 . S
C2802 C2800 1.384 . S
C2802 C2803 1.372 . S
C2803 C2802 1.372 . S
C2803 C2804 1.400 . S
C2803 C2808 1.490 . S
C2804 H2794 0.930 . S
C2804 C2803 1.400 . S
C2804 C2807 1.386 . S
H2805 C2821 0.930 . S
H2806 C2822 0.931 . S
C2807 H2795 0.929 . S
C2807 C2801 1.390 . S
C2807 C2804 1.386 . S
C2808 C2803 1.490 . S
C2808 C2810 1.395 . S
C2808 C2811 1.403 . S
H2809 C2815 0.930 . S
C2810 H2796 0.930 . S
C2810 C2808 1.395 . S
C2810 C2813 1.403 1_554 S
C2811 C2808 1.403 . S
C2811 C2812 1.524 . S
C2811 C2815 1.400 1_554 S
C2812 H2797 0.960 1_554 S
C2812 H2798 0.960 . S
C2812 H2799 0.960 . S
C2812 C2811 1.524 . S
C2813 C2810 1.403 1_556 S
C2813 C2814 1.392 . S
C2813 C2817 1.495 . S
C2814 C2813 1.392 . S
C2814 C2815 1.385 . S
C2814 C2816 1.478 . S
C2815 H2809 0.930 . S
C2815 C2811 1.400 1_556 S
C2815 C2814 1.385 . S
C2816 C2814 1.478 . S
C2816 C2818 1.381 . S
C2816 C2822 1.383 . S
C2817 C2813 1.495 . S
C2817 H2823 0.959 1_556 S
C2817 H2824 0.961 . S
C2817 H2825 0.960 . S
C2818 C2816 1.381 . S
C2818 C2819 1.394 . S
C2818 H2826 0.930 . S
C2819 C2818 1.394 . S
C2819 C2820 1.383 . S
C2819 H2827 0.929 . S
C2820 C2819 1.383 . S
C2820 C2821 1.377 . S
C2821 H2805 0.930 . S
C2821 C2820 1.377 . S
C2821 C2822 1.379 . S
C2822 H2806 0.931 . S
C2822 C2816 1.383 . S
C2822 C2821 1.379 . S
H2823 C2817 0.959 1_554 S
H2824 C2817 0.961 . S
H2825 C2817 0.960 . S
H2826 C2818 0.930 . S
H2827 C2819 0.929 . S
H2828 C2836 0.929 . S
H2829 C2838 0.930 . S
H2830 C2840 0.931 1_655 S
H2831 C2843 0.914 1_655 S
H2832 C2846 0.930 . S
H2833 C2848 0.960 . S
H2834 C2848 0.960 . S
H2835 C2848 0.960 . S
C2836 H2828 0.929 . S
C2836 C2837 1.377 . S
C2836 C2838 1.384 . S
C2837 C2836 1.377 . S
C2837 C2843 1.390 . S
C2838 H2829 0.930 . S
C2838 C2836 1.384 . S
C2838 C2839 1.372 . S
C2839 C2838 1.372 . S
C2839 C2840 1.400 . S
C2839 C2844 1.490 . S
C2840 H2830 0.931 1_455 S
C2840 C2839 1.400 . S
C2840 C2843 1.386 . S
H2841 C2857 0.930 . S
H2842 C2858 0.931 . S
C2843 H2831 0.914 1_455 S
C2843 C2837 1.390 . S
C2843 C2840 1.386 . S
C2844 C2839 1.490 . S
C2844 C2846 1.395 . S
C2844 C2847 1.403 . S
H2845 C2851 1.012 . S
C2846 H2832 0.930 . S
C2846 C2844 1.395 . S
C2846 C2849 1.403 . S
C2847 C2844 1.403 . S
C2847 C2848 1.524 1_455 S
C2847 C2851 1.400 . S
C2848 H2833 0.960 . S
C2848 H2834 0.960 . S
C2848 H2835 0.960 . S
C2848 C2847 1.524 1_655 S
C2849 C2846 1.403 . S
C2849 C2850 1.392 . S
C2849 C2853 1.495 . S
C2850 C2849 1.392 . S
C2850 C2851 1.385 . S
C2850 C2852 1.478 . S
C2851 H2845 1.012 . S
C2851 C2847 1.400 . S
C2851 C2850 1.385 . S
C2852 C2850 1.478 . S
C2852 C2854 1.381 . S
C2852 C2858 1.383 . S
C2853 C2849 1.495 . S
C2853 H2859 0.959 . S
C2853 H2860 0.961 . S
C2853 H2861 0.960 . S
C2854 C2852 1.381 . S
C2854 C2855 1.394 . S
C2854 H2862 0.930 . S
C2855 C2854 1.394 . S
C2855 C2856 1.383 . S
C2855 H2863 0.929 . S
C2856 C2855 1.383 . S
C2856 C2857 1.377 . S
C2857 H2841 0.930 . S
C2857 C2856 1.377 . S
C2857 C2858 1.379 . S
C2858 H2842 0.931 . S
C2858 C2852 1.383 . S
C2858 C2857 1.379 . S
H2859 C2853 0.959 . S
H2860 C2853 0.961 . S
H2861 C2853 0.960 . S
H2862 C2854 0.930 . S
H2863 C2855 0.929 . S
H2864 C2872 0.929 . S
H2865 C2874 0.930 . S
H2866 C2876 0.930 . S
H2867 C2879 0.929 . S
H2868 C2882 0.930 . S
H2869 C2884 0.960 . S
H2870 C2884 0.960 . S
H2871 C2884 0.960 . S
C2872 H2864 0.929 . S
C2872 C2873 1.377 . S
C2872 C2874 1.384 . S
C2873 C2872 1.377 . S
C2873 C2879 1.390 . S
C2874 H2865 0.930 . S
C2874 C2872 1.384 . S
C2874 C2875 1.372 . S
C2875 C2874 1.372 . S
C2875 C2876 1.400 . S
C2875 C2880 1.490 . S
C2876 H2866 0.930 . S
C2876 C2875 1.400 . S
C2876 C2879 1.386 . S
H2877 C2893 0.930 . S
H2878 C2894 0.931 . S
C2879 H2867 0.929 . S
C2879 C2873 1.390 . S
C2879 C2876 1.386 . S
C2880 C2875 1.490 . S
C2880 C2882 1.395 . S
C2880 C2883 1.403 . S
H2881 C2887 0.930 . S
C2882 H2868 0.930 . S
C2882 C2880 1.395 . S
C2882 C2885 1.403 . S
C2883 C2880 1.403 . S
C2883 C2884 1.524 . S
C2883 C2887 1.400 . S
C2884 H2869 0.960 . S
C2884 H2870 0.960 . S
C2884 H2871 0.960 . S
C2884 C2883 1.524 . S
C2885 C2882 1.403 . S
C2885 C2886 1.392 . S
C2885 C2889 1.495 . S
C2886 C2885 1.392 . S
C2886 C2887 1.385 . S
C2886 C2888 1.478 . S
C2887 H2881 0.930 . S
C2887 C2883 1.400 . S
C2887 C2886 1.385 . S
C2888 C2886 1.478 . S
C2888 C2890 1.381 . S
C2888 C2894 1.383 . S
C2889 C2885 1.495 . S
C2889 H2895 0.959 . S
C2889 H2896 0.961 . S
C2889 H2897 0.960 . S
C2890 C2888 1.381 . S
C2890 C2891 1.394 . S
C2890 H2898 0.930 . S
C2891 C2890 1.394 . S
C2891 C2892 1.383 . S
C2891 H2899 0.929 . S
C2892 C2891 1.383 . S
C2892 C2893 1.377 . S
C2893 H2877 0.930 . S
C2893 C2892 1.377 . S
C2893 C2894 1.379 . S
C2894 H2878 0.931 . S
C2894 C2888 1.383 . S
C2894 C2893 1.379 . S
H2895 C2889 0.959 . S
H2896 C2889 0.961 . S
H2897 C2889 0.960 . S
H2898 C2890 0.930 . S
H2899 C2891 0.929 . S
H2900 C2908 0.929 . S
H2901 C2910 0.930 . S
H2902 C2912 0.930 . S
H2903 C2915 0.929 . S
H2904 C2918 0.930 . S
H2905 C2920 0.960 . S
H2906 C2920 0.960 . S
H2907 C2920 0.960 . S
C2908 H2900 0.929 . S
C2908 C2909 1.377 . S
C2908 C2910 1.384 . S
C2909 C2908 1.377 . S
C2909 C2915 1.390 . S
C2910 H2901 0.930 . S
C2910 C2908 1.384 . S
C2910 C2911 1.372 . S
C2911 C2910 1.372 . S
C2911 C2912 1.400 . S
C2911 C2916 1.490 . S
C2912 H2902 0.930 . S
C2912 C2911 1.400 . S
C2912 C2915 1.386 . S
H2913 C2929 0.930 . S
H2914 C2930 0.931 . S
C2915 H2903 0.929 . S
C2915 C2909 1.390 . S
C2915 C2912 1.386 . S
C2916 C2911 1.490 . S
C2916 C2918 1.395 . S
C2916 C2919 1.403 . S
H2917 C2923 0.930 . S
C2918 H2904 0.930 . S
C2918 C2916 1.395 . S
C2918 C2921 1.403 . S
C2919 C2916 1.403 . S
C2919 C2920 1.524 . S
C2919 C2923 1.400 . S
C2920 H2905 0.960 . S
C2920 H2906 0.960 . S
C2920 H2907 0.960 . S
C2920 C2919 1.524 . S
C2921 C2918 1.403 . S
C2921 C2922 1.392 . S
C2921 C2925 1.495 . S
C2922 C2921 1.392 . S
C2922 C2923 1.385 . S
C2922 C2924 1.478 . S
C2923 H2917 0.930 . S
C2923 C2919 1.400 . S
C2923 C2922 1.385 . S
C2924 C2922 1.478 . S
C2924 C2926 1.381 . S
C2924 C2930 1.383 . S
C2925 C2921 1.495 . S
C2925 H2931 0.959 . S
C2925 H2932 0.961 . S
C2925 H2933 0.960 . S
C2926 C2924 1.381 . S
C2926 C2927 1.394 . S
C2926 H2934 0.930 . S
C2927 C2926 1.394 . S
C2927 C2928 1.383 . S
C2927 H2935 0.929 . S
C2928 C2927 1.383 . S
C2928 C2929 1.377 . S
C2929 H2913 0.930 . S
C2929 C2928 1.377 . S
C2929 C2930 1.379 . S
C2930 H2914 0.931 . S
C2930 C2924 1.383 . S
C2930 C2929 1.379 . S
H2931 C2925 0.959 . S
H2932 C2925 0.961 . S
H2933 C2925 0.960 . S
H2934 C2926 0.930 . S
H2935 C2927 0.929 . S
H2936 C2944 0.929 . S
H2937 C2946 0.930 . S
H2938 C2948 0.930 . S
H2939 C2951 0.929 . S
H2940 C2954 0.930 . S
H2941 C2956 0.960 . S
H2942 C2956 0.960 . S
H2943 C2956 0.960 . S
C2944 H2936 0.929 . S
C2944 C2945 1.377 . S
C2944 C2946 1.384 . S
C2945 C2944 1.377 . S
C2945 C2951 1.390 . S
C2946 H2937 0.930 . S
C2946 C2944 1.384 . S
C2946 C2947 1.372 . S
C2947 C2946 1.372 . S
C2947 C2948 1.400 . S
C2947 C2952 1.490 . S
C2948 H2938 0.930 . S
C2948 C2947 1.400 . S
C2948 C2951 1.386 . S
H2949 C2965 0.930 . S
H2950 C2966 0.931 . S
C2951 H2939 0.929 . S
C2951 C2945 1.390 . S
C2951 C2948 1.386 . S
C2952 C2947 1.490 . S
C2952 C2954 1.395 1_556 S
C2952 C2955 1.403 . S
H2953 C2959 0.929 1_556 S
C2954 H2940 0.930 . S
C2954 C2952 1.395 1_554 S
C2954 C2957 1.403 . S
C2955 C2952 1.403 . S
C2955 C2956 1.524 . S
C2955 C2959 1.380 1_556 S
C2956 H2941 0.960 . S
C2956 H2942 0.960 . S
C2956 H2943 0.960 . S
C2956 C2955 1.524 . S
C2957 C2954 1.403 . S
C2957 C2958 1.392 . S
C2957 C2961 1.495 . S
C2958 C2957 1.392 . S
C2958 C2959 1.406 . S
C2958 C2960 1.478 . S
C2959 H2953 0.929 1_554 S
C2959 C2955 1.380 1_554 S
C2959 C2958 1.406 . S
C2960 C2958 1.478 . S
C2960 C2962 1.381 . S
C2960 C2966 1.383 . S
C2961 C2957 1.495 . S
C2961 H2967 0.959 . S
C2961 H2968 0.961 . S
C2961 H2969 0.960 . S
C2962 C2960 1.381 . S
C2962 C2963 1.394 . S
C2962 H2970 0.930 . S
C2963 C2962 1.394 . S
C2963 C2964 1.383 . S
C2963 H2971 0.929 . S
C2964 C2963 1.383 . S
C2964 C2965 1.377 . S
C2965 H2949 0.930 . S
C2965 C2964 1.377 . S
C2965 C2966 1.379 . S
C2966 H2950 0.931 . S
C2966 C2960 1.383 . S
C2966 C2965 1.379 . S
H2967 C2961 0.959 . S
H2968 C2961 0.961 . S
H2969 C2961 0.960 . S
H2970 C2962 0.930 . S
H2971 C2963 0.929 . S
H2972 C2980 0.929 . S
H2973 C2982 0.930 . S
H2974 C2984 0.930 . S
H2975 C2987 0.972 . S
H2976 C2990 0.930 . S
H2977 C2992 0.960 . S
H2978 C2992 0.960 . S
H2979 C2992 0.960 . S
C2980 H2972 0.929 . S
C2980 C2981 1.377 . S
C2980 C2982 1.384 . S
C2981 C2980 1.377 . S
C2981 C2987 1.390 . S
C2982 H2973 0.930 . S
C2982 C2980 1.384 . S
C2982 C2983 1.372 . S
C2983 C2982 1.372 . S
C2983 C2984 1.400 . S
C2983 C2988 1.490 . S
C2984 H2974 0.930 . S
C2984 C2983 1.400 . S
C2984 C2987 1.386 . S
H2985 C3001 0.876 1_455 S
H2986 C3002 0.863 1_455 S
C2987 H2975 0.972 . S
C2987 C2981 1.390 . S
C2987 C2984 1.386 . S
C2988 C2983 1.490 . S
C2988 C2990 1.395 . S
C2988 C2991 1.403 . S
H2989 C2995 0.930 . S
C2990 H2976 0.930 . S
C2990 C2988 1.395 . S
C2990 C2993 1.403 . S
C2991 C2988 1.403 . S
C2991 C2992 1.524 . S
C2991 C2995 1.400 . S
C2992 H2977 0.960 . S
C2992 H2978 0.960 . S
C2992 H2979 0.960 . S
C2992 C2991 1.524 . S
C2993 C2990 1.403 . S
C2993 C2994 1.392 . S
C2993 C2997 1.495 . S
C2994 C2993 1.392 . S
C2994 C2995 1.385 . S
C2994 C2996 1.478 . S
C2995 H2989 0.930 . S
C2995 C2991 1.400 . S
C2995 C2994 1.385 . S
C2996 C2994 1.478 . S
C2996 C2998 1.381 . S
C2996 C3002 1.383 . S
C2997 C2993 1.495 . S
C2997 H3003 0.959 . S
C2997 H3004 0.961 . S
C2997 H3005 0.960 . S
C2998 C2996 1.381 . S
C2998 C2999 1.394 . S
C2998 H3006 0.930 . S
C2999 C2998 1.394 . S
C2999 C3000 1.383 . S
C2999 H3007 0.929 . S
C3000 C2999 1.383 . S
C3000 C3001 1.377 . S
C3001 H2985 0.876 1_655 S
C3001 C3000 1.377 . S
C3001 C3002 1.379 . S
C3002 H2986 0.863 1_655 S
C3002 C2996 1.383 . S
C3002 C3001 1.379 . S
H3003 C2997 0.959 . S
H3004 C2997 0.961 . S
H3005 C2997 0.960 . S
H3006 C2998 0.930 . S
H3007 C2999 0.929 . S
C1289 C975 2.026 . S
C1308 C15 1.999 . S
C1325 C55 2.026 . S
C1344 C375 2.024 . S
C1361 C1055 2.029 . S
C1380 C95 2.013 . S
C1397 C135 2.017 . S
C1416 C455 2.029 . S
C1433 C175 2.022 . S
C1452 C1135 2.034 . S
C1469 C215 2.022 . S
C1488 C535 2.023 . S
C1505 C255 2.022 . S
C1524 C1215 2.030 . S
C1541 C615 2.033 . S
C1560 C295 2.019 1_455 S
C1577 C655 2.021 . S
C1596 C335 2.037 . S
C1613 C415 2.026 . S
C1632 C735 1.999 . S
C1649 C815 2.020 . S
C1668 C495 2.037 . S
C1685 C895 2.015 . S
C1704 C575 2.021 . S
C1721 C1015 2.028 . S
C1740 C695 2.030 . S
C1757 C775 2.027 . S
C1776 C1095 2.009 . S
C1793 C1175 2.034 . S
C1812 C855 2.020 1_655 S
C1829 C1255 2.029 . S
C1848 C935 2.008 . S
C1865 C842 1.761 . S
C1884 C2 1.767 . S
C1901 C882 1.763 . S
C1920 C42 1.742 . S
C1937 C82 1.765 . S
C1956 C922 1.778 . S
C1973 C122 1.761 . S
C1992 C802 1.772 . S
C2009 C762 1.760 . S
C2028 C162 1.754 . S
C2045 C202 1.764 . S
C2064 C642 1.778 . S
C2081 C242 1.766 . S
C2100 C682 1.776 . S
C2117 C282 1.766 . S
C2136 C722 1.777 . S
C2153 C322 1.804 . S
C2172 C1162 1.803 . S
C2189 C362 1.804 . S
C2208 C1202 1.803 . S
C2225 C1242 1.804 . S
C2244 C402 1.803 . S
C2261 C442 1.803 . S
C2280 C1122 1.801 . S
C2297 C1082 1.803 . S
C2316 C482 1.801 . S
C2333 C522 1.803 . S
C2352 C962 1.802 . S
C2369 C1002 1.802 . S
C2388 C562 1.796 . S
C2405 C1042 1.802 . S
C2424 C602 1.798 . S
C2441 C261 1.664 . S
C2460 C21 1.637 . S
C2477 C301 1.661 . S
C2496 C61 1.650 . S
C2513 C181 1.664 . S
C2532 C101 1.636 . S
C2549 C221 1.660 . S
C2568 C141 1.660 . S
C2585 C341 1.713 . S
C2604 C581 1.710 . S
C2621 C621 1.713 . S
C2640 C381 1.710 . S
C2657 C421 1.713 . S
C2676 C501 1.711 . S
C2693 C541 1.713 . S
C2712 C461 1.709 . S
C2729 C661 1.659 . S
C2748 C901 1.667 . S
C2765 C701 1.665 . S
C2784 C941 1.634 . S
C2801 C741 1.656 . S
C2820 C821 1.677 . S
C2837 C781 1.662 . S
C2856 C861 1.648 . S
C2873 C1221 1.713 . S
C2892 C981 1.708 . S
C2909 C1261 1.713 . S
C2928 C1021 1.711 . S
C2945 C1061 1.713 . S
C2964 C1141 1.708 . S
C2981 C1181 1.713 . S
C3000 C1101 1.708 . S
