# Generated by pormake.
# Topology zfi, (5)-cn, num edge types: 1
# Building blocks:
#     Node 0, Type 0, BuildingBlock: BEQFEK_clean_sbu_0, # of connection points: 5
#     Node 1, Type 0, BuildingBlock: BEQFEK_clean_sbu_0, # of connection points: 5
#     Node 2, Type 0, BuildingBlock: BEQFEK_clean_sbu_0, # of connection points: 5
#     Node 3, Type 0, BuildingBlock: BEQFEK_clean_sbu_0, # of connection points: 5
#     Node 4, Type 0, BuildingBlock: BEQFEK_clean_sbu_0, # of connection points: 5
#     Node 5, Type 0, BuildingBlock: BEQFEK_clean_sbu_0, # of connection points: 5
#     Node 6, Type 0, BuildingBlock: BEQFEK_clean_sbu_0, # of connection points: 5
#     Node 7, Type 0, BuildingBlock: BEQFEK_clean_sbu_0, # of connection points: 5
#     Node 8, Type 0, BuildingBlock: BEQFEK_clean_sbu_0, # of connection points: 5
#     Node 9, Type 0, BuildingBlock: BEQFEK_clean_sbu_0, # of connection points: 5
#     Node 10, Type 0, BuildingBlock: BEQFEK_clean_sbu_0, # of connection points: 5
#     Node 11, Type 0, BuildingBlock: BEQFEK_clean_sbu_0, # of connection points: 5
#     Node 12, Type 0, BuildingBlock: BEQFEK_clean_sbu_0, # of connection points: 5
#     Node 13, Type 0, BuildingBlock: BEQFEK_clean_sbu_0, # of connection points: 5
#     Node 14, Type 0, BuildingBlock: BEQFEK_clean_sbu_0, # of connection points: 5
#     Node 15, Type 0, BuildingBlock: BEQFEK_clean_sbu_0, # of connection points: 5
#     Edge 16, Type (0, 0), BuildingBlock: TEMPAE_clean_linker_10, # of connection points: 2
#     Edge 17, Type (0, 0), BuildingBlock: TEMPAE_clean_linker_10, # of connection points: 2
#     Edge 18, Type (0, 0), BuildingBlock: TEMPAE_clean_linker_10, # of connection points: 2
#     Edge 19, Type (0, 0), BuildingBlock: TEMPAE_clean_linker_10, # of connection points: 2
#     Edge 20, Type (0, 0), BuildingBlock: TEMPAE_clean_linker_10, # of connection points: 2
#     Edge 21, Type (0, 0), BuildingBlock: TEMPAE_clean_linker_10, # of connection points: 2
#     Edge 22, Type (0, 0), BuildingBlock: TEMPAE_clean_linker_10, # of connection points: 2
#     Edge 23, Type (0, 0), BuildingBlock: TEMPAE_clean_linker_10, # of connection points: 2
#     Edge 24, Type (0, 0), BuildingBlock: TEMPAE_clean_linker_10, # of connection points: 2
#     Edge 25, Type (0, 0), BuildingBlock: TEMPAE_clean_linker_10, # of connection points: 2
#     Edge 26, Type (0, 0), BuildingBlock: TEMPAE_clean_linker_10, # of connection points: 2
#     Edge 27, Type (0, 0), BuildingBlock: TEMPAE_clean_linker_10, # of connection points: 2
#     Edge 28, Type (0, 0), BuildingBlock: TEMPAE_clean_linker_10, # of connection points: 2
#     Edge 29, Type (0, 0), BuildingBlock: TEMPAE_clean_linker_10, # of connection points: 2
#     Edge 30, Type (0, 0), BuildingBlock: TEMPAE_clean_linker_10, # of connection points: 2
#     Edge 31, Type (0, 0), BuildingBlock: TEMPAE_clean_linker_10, # of connection points: 2
#     Edge 32, Type (0, 0), BuildingBlock: TEMPAE_clean_linker_10, # of connection points: 2
#     Edge 33, Type (0, 0), BuildingBlock: TEMPAE_clean_linker_10, # of connection points: 2
#     Edge 34, Type (0, 0), BuildingBlock: TEMPAE_clean_linker_10, # of connection points: 2
#     Edge 35, Type (0, 0), BuildingBlock: TEMPAE_clean_linker_10, # of connection points: 2
#     Edge 36, Type (0, 0), BuildingBlock: TEMPAE_clean_linker_10, # of connection points: 2
#     Edge 37, Type (0, 0), BuildingBlock: TEMPAE_clean_linker_10, # of connection points: 2
#     Edge 38, Type (0, 0), BuildingBlock: TEMPAE_clean_linker_10, # of connection points: 2
#     Edge 39, Type (0, 0), BuildingBlock: TEMPAE_clean_linker_10, # of connection points: 2
#     Edge 40, Type (0, 0), BuildingBlock: TEMPAE_clean_linker_10, # of connection points: 2
#     Edge 41, Type (0, 0), BuildingBlock: TEMPAE_clean_linker_10, # of connection points: 2
#     Edge 42, Type (0, 0), BuildingBlock: TEMPAE_clean_linker_10, # of connection points: 2
#     Edge 43, Type (0, 0), BuildingBlock: TEMPAE_clean_linker_10, # of connection points: 2
#     Edge 44, Type (0, 0), BuildingBlock: TEMPAE_clean_linker_10, # of connection points: 2
#     Edge 45, Type (0, 0), BuildingBlock: TEMPAE_clean_linker_10, # of connection points: 2
#     Edge 46, Type (0, 0), BuildingBlock: TEMPAE_clean_linker_10, # of connection points: 2
#     Edge 47, Type (0, 0), BuildingBlock: TEMPAE_clean_linker_10, # of connection points: 2
#     Edge 48, Type (0, 0), BuildingBlock: TEMPAE_clean_linker_10, # of connection points: 2
#     Edge 49, Type (0, 0), BuildingBlock: TEMPAE_clean_linker_10, # of connection points: 2
#     Edge 50, Type (0, 0), BuildingBlock: TEMPAE_clean_linker_10, # of connection points: 2
#     Edge 51, Type (0, 0), BuildingBlock: TEMPAE_clean_linker_10, # of connection points: 2
#     Edge 52, Type (0, 0), BuildingBlock: TEMPAE_clean_linker_10, # of connection points: 2
#     Edge 53, Type (0, 0), BuildingBlock: TEMPAE_clean_linker_10, # of connection points: 2
#     Edge 54, Type (0, 0), BuildingBlock: TEMPAE_clean_linker_10, # of connection points: 2
#     Edge 55, Type (0, 0), BuildingBlock: TEMPAE_clean_linker_10, # of connection points: 2
# Relax obj value: 0.229
# Max RMSD: 0.194
# Mean RMSD: 0.194
data_MOF--net-zfi--node1-BEQFEK_clean_sbu_0--edge1-TEMPAE_clean_linker_10
_symmetry_space_group_name_H-M    P1
_symmetry_Int_Tables_number       1
_symmetry_cell_setting            triclinic
loop_
_symmetry_equiv_pos_as_xyz
'x, y, z'
_cell_length_a     37.559111
_cell_length_b     37.577758
_cell_length_c     58.644734
_cell_angle_alpha  89.945788
_cell_angle_beta   90.027875
_cell_angle_gamma 90.014743
loop_
_atom_site_label
_atom_site_type_symbol
_atom_site_fract_x
_atom_site_fract_y
_atom_site_fract_z
_atom_type_partial_charge
Co0 Co 0.62369 0.08801 0.13324 0.0
Co1 Co 0.60072 0.01214 0.14985 0.0
C2 C 0.59038 0.07696 0.17916 0.0
O3 O 0.60387 0.09865 0.16477 0.0
O4 O 0.5874 0.04416 0.17445 0.0
C5 C 0.64095 0.16304 0.1276 0.0
O6 O 0.6195 0.16772 0.14503 0.0
C7 C 0.54493 0.95944 0.15657 0.0
C8 C 0.5761 0.91119 0.16452 0.0
C9 C 0.54171 0.92339 0.16095 0.0
N10 N 0.57965 0.96795 0.15714 0.0
N11 N 0.59812 0.93918 0.16236 0.0
C12 C 0.51555 0.9857 0.15267 0.0
H13 H 0.52441 0.01285 0.15749 0.0
H14 H 0.50799 0.98618 0.13442 0.0
H15 H 0.49164 0.97807 0.16266 0.0
C16 C 0.57788 0.06468 0.09283 0.0
N17 N 0.59183 0.06057 0.114 0.0
N18 N 0.58596 0.0276 0.12063 0.0
C19 C 0.57034 0.00929 0.10364 0.0
C20 C 0.56319 0.03226 0.08572 0.0
C21 C 0.57979 0.09848 0.07946 0.0
H22 H 0.60369 0.09774 0.06835 0.0
H23 H 0.58218 0.12162 0.09111 0.0
H24 H 0.55591 0.10142 0.06846 0.0
O25 O 0.66836 0.05974 0.13738 0.0
O26 O 0.65205 0.00662 0.15048 0.0
H27 H 0.58992 0.95765 0.1138 0.0
H28 H 0.57517 0.96047 0.08461 0.0
C29 C 0.56967 0.96941 0.10231 0.0
H30 H 0.54304 0.95931 0.107 0.0
H31 H 0.62582 0.93842 0.16364 0.0
O32 O 0.6432 0.13226 0.11866 0.0
C33 C 0.6759 0.02869 0.1446 0.0
Co34 Co 0.40235 0.63321 0.1155 0.0
Co35 Co 0.4845 0.62683 0.12481 0.0
C36 C 0.43112 0.61392 0.16189 0.0
O37 O 0.4045 0.61759 0.14848 0.0
O38 O 0.46294 0.61673 0.15463 0.0
C39 C 0.32899 0.64939 0.1196 0.0
O40 O 0.33453 0.64108 0.14107 0.0
C41 C 0.55624 0.59976 0.13764 0.0
C42 C 0.58856 0.62701 0.11141 0.0
C43 C 0.59073 0.6025 0.12903 0.0
N44 N 0.53485 0.62082 0.12508 0.0
N45 N 0.55451 0.6375 0.10978 0.0
C46 C 0.54372 0.5786 0.15773 0.0
H47 H 0.52152 0.59242 0.16636 0.0
H48 H 0.53393 0.55232 0.15181 0.0
H49 H 0.56555 0.57464 0.17023 0.0
C50 C 0.42413 0.5861 0.07581 0.0
N51 N 0.43036 0.60354 0.09562 0.0
N52 N 0.46403 0.59904 0.1012 0.0
C53 C 0.47972 0.57757 0.08585 0.0
C54 C 0.45548 0.56934 0.06883 0.0
C55 C 0.38973 0.5878 0.06302 0.0
H56 H 0.37616 0.61349 0.06632 0.0
H57 H 0.37216 0.56598 0.06903 0.0
H58 H 0.39415 0.58447 0.04443 0.0
O59 O 0.41974 0.68249 0.11485 0.0
O60 O 0.47801 0.67781 0.11892 0.0
H61 H 0.53599 0.58387 0.08177 0.0
H62 H 0.52052 0.53895 0.07778 0.0
C63 C 0.51691 0.56356 0.08797 0.0
H64 H 0.5228 0.55733 0.10603 0.0
H65 H 0.5444 0.65524 0.09769 0.0
O66 O 0.35279 0.64187 0.10495 0.0
C67 C 0.45032 0.6966 0.11597 0.0
Co68 Co 0.87029 0.41029 0.13467 0.0
Co69 Co 0.89932 0.48546 0.14874 0.0
C70 C 0.90497 0.42394 0.18061 0.0
O71 O 0.88986 0.4025 0.16675 0.0
O72 O 0.91109 0.45591 0.17488 0.0
C73 C 0.83389 0.34549 0.13747 0.0
O74 O 0.83521 0.35543 0.15891 0.0
C75 C 0.95483 0.53838 0.15715 0.0
C76 C 0.92333 0.58798 0.15799 0.0
C77 C 0.95775 0.57492 0.15933 0.0
N78 N 0.92026 0.53031 0.15435 0.0
N79 N 0.90149 0.55999 0.15529 0.0
C80 C 0.98401 0.51135 0.15856 0.0
H81 H 0.99169 0.5079 0.1767 0.0
H82 H 0.97483 0.48532 0.15181 0.0
H83 H 0.00796 0.52039 0.14917 0.0
C84 C 0.91406 0.42786 0.09257 0.0
N85 N 0.90321 0.43413 0.11423 0.0
N86 N 0.91401 0.46621 0.1202 0.0
C87 C 0.93121 0.48146 0.10251 0.0
C88 C 0.93211 0.45778 0.08442 0.0
C89 C 0.90382 0.39564 0.07918 0.0
H90 H 0.90586 0.37161 0.09011 0.0
H91 H 0.92086 0.39264 0.06384 0.0
H92 H 0.87566 0.3983 0.07369 0.0
O93 O 0.82711 0.44052 0.13723 0.0
O94 O 0.84773 0.49286 0.14885 0.0
H95 H 0.92501 0.53702 0.11016 0.0
H96 H 0.95134 0.52864 0.08509 0.0
C97 C 0.94491 0.51895 0.10243 0.0
H98 H 0.96981 0.52006 0.11246 0.0
H99 H 0.87391 0.56123 0.15343 0.0
O100 O 0.84997 0.36437 0.12261 0.0
C101 C 0.82206 0.4725 0.14355 0.0
Co102 Co 0.09023 0.86987 0.12471 0.0
Co103 Co 0.0082 0.86681 0.13336 0.0
C104 C 0.06161 0.8815 0.1712 0.0
O105 O 0.08846 0.8829 0.15789 0.0
O106 O 0.03055 0.87519 0.1635 0.0
C107 C 0.16357 0.85565 0.12739 0.0
O108 O 0.157 0.85914 0.14926 0.0
C109 C 0.93964 0.89897 0.14506 0.0
C110 C 0.90218 0.86032 0.12987 0.0
C111 C 0.90366 0.8931 0.1407 0.0
N112 N 0.9582 0.8715 0.13649 0.0
N113 N 0.93564 0.84818 0.12784 0.0
C114 C 0.95659 0.92953 0.15733 0.0
H115 H 0.98217 0.92131 0.16508 0.0
H116 H 0.96235 0.95122 0.14503 0.0
H117 H 0.93873 0.93977 0.17089 0.0
C118 C 0.06517 0.92301 0.08898 0.0
N119 N 0.0598 0.89989 0.10638 0.0
N120 N 0.02531 0.89762 0.11019 0.0
C121 C 0.00777 0.91826 0.09512 0.0
C122 C 0.03226 0.93576 0.08146 0.0
C123 C 0.101 0.93246 0.07973 0.0
H124 H 0.12141 0.93059 0.09337 0.0
H125 H 0.10078 0.95964 0.0723 0.0
H126 H 0.10807 0.91328 0.06609 0.0
O127 O 0.07581 0.81895 0.12266 0.0
O128 O 0.01707 0.81765 0.12507 0.0
H129 H 0.95798 0.89031 0.09391 0.0
H130 H 0.96073 0.92679 0.07434 0.0
C131 C 0.96821 0.91769 0.09169 0.0
H132 H 0.95536 0.93549 0.10428 0.0
H133 H 0.9432 0.82463 0.11978 0.0
O134 O 0.13985 0.86532 0.11316 0.0
C135 C 0.0466 0.8019 0.1223 0.0
Co136 Co 0.12843 0.9078 0.38565 0.0
Co137 Co 0.09643 0.98196 0.37247 0.0
C138 C 0.09069 0.92064 0.34069 0.0
O139 O 0.10737 0.89975 0.35415 0.0
O140 O 0.0839 0.95241 0.3465 0.0
C141 C 0.17321 0.85125 0.38217 0.0
O142 O 0.17825 0.8704 0.36368 0.0
C143 C 0.04058 0.03492 0.36449 0.0
C144 C 0.07231 0.08439 0.36329 0.0
C145 C 0.03788 0.07141 0.36197 0.0
N146 N 0.0751 0.02674 0.36735 0.0
N147 N 0.094 0.05636 0.36624 0.0
C148 C 0.01117 0.00813 0.36331 0.0
H149 H 0.00215 0.00576 0.34535 0.0
H150 H 0.02056 0.98171 0.3693 0.0
H151 H 0.98801 0.01693 0.37357 0.0
C152 C 0.08708 0.92413 0.42892 0.0
N153 N 0.09603 0.93053 0.40692 0.0
N154 N 0.08352 0.96206 0.40112 0.0
C155 C 0.06688 0.97679 0.41916 0.0
C156 C 0.06839 0.95337 0.43741 0.0
C157 C 0.09992 0.89273 0.44222 0.0
H158 H 0.12827 0.89693 0.44684 0.0
H159 H 0.09833 0.86841 0.43155 0.0
H160 H 0.08419 0.88915 0.45808 0.0
O161 O 0.17096 0.93893 0.38214 0.0
O162 O 0.14771 0.99051 0.37162 0.0
H163 H 0.07115 0.03269 0.41204 0.0
H164 H 0.04432 0.02269 0.43673 0.0
C165 C 0.05172 0.0137 0.4194 0.0
H166 H 0.02717 0.01414 0.409 0.0
H167 H 0.12157 0.05753 0.36801 0.0
O168 O 0.14944 0.86145 0.39625 0.0
C169 C 0.17457 0.97119 0.376 0.0
Co170 Co 0.58933 0.12731 0.39499 0.0
Co171 Co 0.50745 0.13221 0.38652 0.0
C172 C 0.55996 0.11548 0.34857 0.0
O173 O 0.58697 0.11429 0.36179 0.0
O174 O 0.52899 0.12201 0.35636 0.0
C175 C 0.66325 0.13953 0.39231 0.0
O176 O 0.65757 0.13391 0.37052 0.0
C177 C 0.43828 0.10091 0.37632 0.0
C178 C 0.40166 0.14261 0.38881 0.0
C179 C 0.40258 0.1085 0.37986 0.0
N180 N 0.45746 0.12903 0.38326 0.0
N181 N 0.43544 0.15416 0.39025 0.0
C182 C 0.45438 0.06637 0.36893 0.0
H183 H 0.48286 0.06505 0.37392 0.0
H184 H 0.43963 0.04361 0.37646 0.0
H185 H 0.45263 0.0643 0.35009 0.0
C186 C 0.56331 0.07537 0.43115 0.0
N187 N 0.5583 0.09831 0.41362 0.0
N188 N 0.52382 0.10166 0.41009 0.0
C189 C 0.50596 0.08205 0.42557 0.0
C190 C 0.53018 0.06395 0.43914 0.0
C191 C 0.59905 0.0648 0.44006 0.0
H192 H 0.61923 0.06627 0.42627 0.0
H193 H 0.59819 0.03752 0.44734 0.0
H194 H 0.60695 0.08355 0.45377 0.0
O195 O 0.57633 0.17856 0.39697 0.0
O196 O 0.51773 0.18137 0.3942 0.0
H197 H 0.45689 0.11149 0.42585 0.0
H198 H 0.45971 0.07774 0.44743 0.0
C199 C 0.46658 0.08428 0.42951 0.0
H200 H 0.45275 0.06506 0.41825 0.0
H201 H 0.44356 0.17856 0.39697 0.0
O202 O 0.63901 0.13118 0.40651 0.0
C203 C 0.54762 0.19639 0.39709 0.0
Co204 Co 0.3718 0.57716 0.37698 0.0
Co205 Co 0.39792 0.50199 0.36106 0.0
C206 C 0.40167 0.56614 0.33038 0.0
O207 O 0.38914 0.58777 0.34508 0.0
O208 O 0.40624 0.53361 0.33533 0.0
C209 C 0.32383 0.63151 0.37925 0.0
O210 O 0.31459 0.6127 0.36133 0.0
C211 C 0.45695 0.45322 0.35343 0.0
C212 C 0.42873 0.40261 0.34723 0.0
C213 C 0.46241 0.41727 0.34964 0.0
N214 N 0.4217 0.45926 0.3537 0.0
N215 N 0.40496 0.42908 0.34949 0.0
C216 C 0.4846 0.48166 0.35606 0.0
H217 H 0.49175 0.48486 0.37426 0.0
H218 H 0.50909 0.47447 0.34653 0.0
H219 H 0.47405 0.50751 0.34988 0.0
C220 C 0.42134 0.55795 0.41656 0.0
N221 N 0.40656 0.55258 0.39574 0.0
N222 N 0.41408 0.51986 0.38928 0.0
C223 C 0.43164 0.50289 0.40605 0.0
C224 C 0.43836 0.52663 0.42354 0.0
C225 C 0.41762 0.59158 0.4299 0.0
H226 H 0.41329 0.61447 0.41825 0.0
H227 H 0.4416 0.59612 0.44058 0.0
H228 H 0.39419 0.58926 0.44133 0.0
O229 O 0.32888 0.54555 0.37444 0.0
O230 O 0.34734 0.4925 0.36295 0.0
H231 H 0.41402 0.45001 0.39711 0.0
H232 H 0.43055 0.4544 0.42577 0.0
C233 C 0.43442 0.46312 0.40785 0.0
H234 H 0.46121 0.4542 0.40254 0.0
H235 H 0.37733 0.42632 0.34903 0.0
O236 O 0.35178 0.62242 0.39019 0.0
C237 C 0.32246 0.5135 0.3687 0.0
Co238 Co 0.89952 0.36534 0.39671 0.0
Co239 Co 0.98167 0.36866 0.38847 0.0
C240 C 0.9298 0.38415 0.3507 0.0
O241 O 0.90264 0.38142 0.36374 0.0
O242 O 0.9612 0.38009 0.35845 0.0
C243 C 0.82731 0.34751 0.39209 0.0
O244 O 0.83508 0.35197 0.37044 0.0
C245 C 0.05172 0.39897 0.3779 0.0
C246 C 0.08664 0.36278 0.39754 0.0
C247 C 0.08682 0.39335 0.38433 0.0
N248 N 0.03174 0.37328 0.38739 0.0
N249 N 0.05283 0.35132 0.39866 0.0
C250 C 0.03663 0.43024 0.36536 0.0
H251 H 0.0079 0.4334 0.36929 0.0
H252 H 0.05118 0.45495 0.36991 0.0
H253 H 0.03953 0.42577 0.34676 0.0
C254 C 0.92187 0.41031 0.43736 0.0
N255 N 0.92816 0.39363 0.41729 0.0
N256 N 0.96239 0.39608 0.41267 0.0
C257 C 0.97869 0.41478 0.42926 0.0
C258 C 0.95392 0.42401 0.44573 0.0
C259 C 0.88658 0.41004 0.44913 0.0
H260 H 0.86693 0.42456 0.43849 0.0
H261 H 0.88812 0.4225 0.46625 0.0
H262 H 0.87709 0.38218 0.45078 0.0
O263 O 0.91522 0.31523 0.39723 0.0
O264 O 0.97373 0.31804 0.39401 0.0
H265 H 0.03336 0.39923 0.43204 0.0
H266 H 0.02436 0.44323 0.44296 0.0
C267 C 0.01755 0.42379 0.42944 0.0
H268 H 0.02489 0.43587 0.41292 0.0
H269 H 0.04391 0.32934 0.40795 0.0
O270 O 0.84958 0.35791 0.40704 0.0
C271 C 0.94538 0.30014 0.39653 0.0
Co272 Co 0.37583 0.90074 0.89212 0.0
Co273 Co 0.39077 0.98144 0.88266 0.0
C274 C 0.40288 0.92847 0.84615 0.0
O275 O 0.39381 0.9026 0.85918 0.0
O276 O 0.40392 0.96031 0.8535 0.0
C277 C 0.35178 0.83011 0.8872 0.0
O278 O 0.35578 0.83819 0.86556 0.0
C279 C 0.41685 0.05435 0.87163 0.0
C280 C 0.3891 0.08385 0.89898 0.0
C281 C 0.41248 0.08814 0.88094 0.0
N282 N 0.39745 0.03132 0.88405 0.0
N283 N 0.38062 0.04925 0.90012 0.0
C284 C 0.43728 0.04413 0.85075 0.0
H285 H 0.42472 0.02099 0.84235 0.0
H286 H 0.46477 0.03655 0.85572 0.0
H287 H 0.43842 0.06653 0.83842 0.0
C288 C 0.42074 0.9198 0.93396 0.0
N289 N 0.40608 0.92656 0.91325 0.0
N290 N 0.41406 0.95949 0.90753 0.0
C291 C 0.435 0.97402 0.92364 0.0
C292 C 0.4393 0.94999 0.94133 0.0
C293 C 0.41483 0.88621 0.94709 0.0
H294 H 0.38767 0.87582 0.94375 0.0
H295 H 0.43428 0.86595 0.94127 0.0
H296 H 0.41861 0.89059 0.96565 0.0
O297 O 0.32741 0.92118 0.89182 0.0
O298 O 0.33923 0.97764 0.8851 0.0
H299 H 0.43328 0.03047 0.92836 0.0
H300 H 0.47665 0.0113 0.93224 0.0
C301 C 0.45194 0.01002 0.92188 0.0
H302 H 0.45866 0.01599 0.90388 0.0
H303 H 0.36369 0.03766 0.91212 0.0
O304 O 0.36382 0.85145 0.9022 0.0
C305 C 0.31703 0.95284 0.88847 0.0
Co306 Co 0.58399 0.37811 0.87846 0.0
Co307 Co 0.50975 0.40496 0.86054 0.0
C308 C 0.57527 0.40912 0.83164 0.0
O309 O 0.59518 0.39443 0.84656 0.0
O310 O 0.54279 0.41587 0.83578 0.0
C311 C 0.65739 0.35652 0.88373 0.0
O312 O 0.66205 0.37485 0.86488 0.0
C313 C 0.45747 0.46181 0.85336 0.0
C314 C 0.40937 0.4308 0.84477 0.0
C315 C 0.4215 0.46513 0.84851 0.0
N316 N 0.46596 0.42706 0.85283 0.0
N317 N 0.43725 0.40873 0.84727 0.0
C318 C 0.48376 0.49114 0.8573 0.0
H319 H 0.51137 0.48059 0.85707 0.0
H320 H 0.47889 0.50414 0.87394 0.0
H321 H 0.48059 0.51179 0.84392 0.0
C322 C 0.56289 0.42592 0.91766 0.0
N323 N 0.55824 0.41227 0.89652 0.0
N324 N 0.52574 0.4199 0.88964 0.0
C325 C 0.50811 0.43652 0.90652 0.0
C326 C 0.53125 0.44227 0.92458 0.0
C327 C 0.59637 0.42191 0.93119 0.0
H328 H 0.61958 0.41911 0.91962 0.0
H329 H 0.60023 0.44509 0.94265 0.0
H330 H 0.59446 0.39751 0.94179 0.0
O331 O 0.55372 0.33523 0.87527 0.0
O332 O 0.50229 0.35358 0.86063 0.0
H333 H 0.45561 0.41949 0.89626 0.0
H334 H 0.45884 0.4344 0.92535 0.0
C335 C 0.4683 0.43923 0.90768 0.0
H336 H 0.45972 0.46629 0.90278 0.0
H337 H 0.43642 0.38107 0.84592 0.0
O338 O 0.62725 0.3577 0.89361 0.0
C339 C 0.52272 0.32889 0.86752 0.0
Co340 Co 0.12442 0.59467 0.8956 0.0
Co341 Co 0.12217 0.513 0.88691 0.0
C342 C 0.09974 0.5663 0.85078 0.0
O343 O 0.1046 0.59333 0.86363 0.0
O344 O 0.10546 0.53491 0.85812 0.0
C345 C 0.1422 0.66735 0.89211 0.0
O346 O 0.13506 0.66148 0.87052 0.0
C347 C 0.08594 0.44558 0.87966 0.0
C348 C 0.12744 0.40725 0.89032 0.0
C349 C 0.0922 0.40979 0.88353 0.0
N350 N 0.11598 0.46341 0.88443 0.0
N351 N 0.14093 0.44036 0.89025 0.0
C352 C 0.05121 0.46314 0.87418 0.0
H353 H 0.05194 0.49172 0.87891 0.0
H354 H 0.02901 0.44961 0.88319 0.0
H355 H 0.04628 0.46109 0.85557 0.0
C356 C 0.07683 0.57156 0.93522 0.0
N357 N 0.09713 0.56534 0.91653 0.0
N358 N 0.0981 0.53076 0.91298 0.0
C359 C 0.07978 0.51397 0.92957 0.0
C360 C 0.06473 0.53907 0.94395 0.0
C361 C 0.06866 0.60782 0.94422 0.0
H362 H 0.07057 0.62788 0.93037 0.0
H363 H 0.04172 0.60842 0.952 0.0
H364 H 0.08841 0.61465 0.9576 0.0
O365 O 0.17502 0.57869 0.89359 0.0
O366 O 0.17311 0.52032 0.88962 0.0
H367 H 0.07558 0.46792 0.95157 0.0
H368 H 0.0585 0.46204 0.92323 0.0
C369 C 0.08005 0.47451 0.93335 0.0
H370 H 0.10601 0.46319 0.9282 0.0
H371 H 0.16663 0.44739 0.89532 0.0
O372 O 0.13347 0.64391 0.90676 0.0
C373 C 0.1907 0.54891 0.89166 0.0
Co374 Co 0.90189 0.12957 0.89192 0.0
Co375 Co 0.97994 0.10282 0.88331 0.0
C376 C 0.92693 0.0966 0.84668 0.0
O377 O 0.90295 0.11089 0.85922 0.0
O378 O 0.95785 0.09001 0.85448 0.0
C379 C 0.83119 0.15532 0.88545 0.0
O380 O 0.83854 0.14761 0.86412 0.0
C381 C 0.04493 0.0592 0.87762 0.0
C382 C 0.08251 0.09172 0.89789 0.0
C383 C 0.07925 0.05985 0.8863 0.0
N384 N 0.02834 0.08904 0.88448 0.0
N385 N 0.05124 0.1087 0.89605 0.0
C386 C 0.02703 0.02925 0.86537 0.0
H387 H 0.99767 0.03128 0.86708 0.0
H388 H 0.03641 0.00325 0.87207 0.0
H389 H 0.03399 0.03069 0.847 0.0
C390 C 0.91444 0.08712 0.93523 0.0
N391 N 0.92323 0.09761 0.91385 0.0
N392 N 0.95516 0.08517 0.90908 0.0
C393 C 0.96704 0.06569 0.92681 0.0
C394 C 0.94218 0.06668 0.94414 0.0
C395 C 0.88204 0.09963 0.94762 0.0
H396 H 0.88399 0.1288 0.95032 0.0
H397 H 0.85812 0.09465 0.93697 0.0
H398 H 0.87918 0.08606 0.96434 0.0
O399 O 0.92849 0.17474 0.89153 0.0
O400 O 0.98249 0.15474 0.88386 0.0
H401 H 0.0238 0.06751 0.92963 0.0
H402 H 0.0041 0.02872 0.94245 0.0
C403 C 0.00242 0.04741 0.92783 0.0
H404 H 0.00657 0.03199 0.91201 0.0
H405 H 0.04493 0.13294 0.90371 0.0
O406 O 0.85326 0.14634 0.9009 0.0
C407 C 0.96113 0.18031 0.88728 0.0
Co408 Co 0.885 0.08948 0.62862 0.0
Co409 Co 0.89727 0.00982 0.64132 0.0
C410 C 0.90574 0.06987 0.67552 0.0
O411 O 0.90085 0.09526 0.66139 0.0
O412 O 0.90501 0.03772 0.66894 0.0
C413 C 0.86077 0.16107 0.62749 0.0
O414 O 0.86909 0.1597 0.64923 0.0
C415 C 0.94678 0.95266 0.65171 0.0
C416 C 0.91068 0.9066 0.65544 0.0
C417 C 0.94617 0.91656 0.65608 0.0
N418 N 0.91313 0.96359 0.64847 0.0
N419 N 0.89159 0.93607 0.65102 0.0
C420 C 0.97854 0.97672 0.65169 0.0
H421 H 0.97032 0.00491 0.64965 0.0
H422 H 0.99692 0.96936 0.63769 0.0
H423 H 0.99335 0.97343 0.66794 0.0
C424 C 0.93548 0.06766 0.59031 0.0
N425 N 0.91739 0.06177 0.60995 0.0
N426 N 0.92022 0.0278 0.61512 0.0
C427 C 0.93852 0.01082 0.59868 0.0
C428 C 0.94996 0.03546 0.58266 0.0
C429 C 0.93782 0.10309 0.57883 0.0
H430 H 0.93534 0.12476 0.59158 0.0
H431 H 0.96331 0.10564 0.5694 0.0
H432 H 0.91558 0.10559 0.56648 0.0
O433 O 0.83757 0.0655 0.6299 0.0
O434 O 0.84645 0.00812 0.63636 0.0
H435 H 0.93861 0.96369 0.57763 0.0
H436 H 0.96396 0.96027 0.60341 0.0
C437 C 0.93917 0.97114 0.59595 0.0
H438 H 0.91592 0.95884 0.60449 0.0
H439 H 0.86398 0.93731 0.64936 0.0
O440 O 0.87014 0.13554 0.61457 0.0
C441 C 0.82564 0.03409 0.63268 0.0
Co442 Co 0.40779 0.86885 0.63059 0.0
Co443 Co 0.48691 0.89282 0.63801 0.0
C444 C 0.43428 0.90041 0.67542 0.0
O445 O 0.40931 0.88792 0.66293 0.0
O446 O 0.46555 0.9049 0.66754 0.0
C447 C 0.35164 0.82595 0.63749 0.0
O448 O 0.3729 0.82153 0.65506 0.0
C449 C 0.55116 0.93743 0.64333 0.0
C450 C 0.58903 0.90559 0.62287 0.0
C451 C 0.5853 0.93742 0.63444 0.0
N452 N 0.53504 0.90726 0.6366 0.0
N453 N 0.55812 0.888 0.62492 0.0
C454 C 0.5329 0.96712 0.6556 0.0
H455 H 0.50357 0.96471 0.65388 0.0
H456 H 0.54197 0.99326 0.64893 0.0
H457 H 0.53991 0.96573 0.67397 0.0
C458 C 0.41865 0.91219 0.58751 0.0
N459 N 0.42848 0.9006 0.60847 0.0
N460 N 0.46129 0.91142 0.6125 0.0
C461 C 0.47281 0.93081 0.59461 0.0
C462 C 0.44666 0.93156 0.57803 0.0
C463 C 0.38486 0.90158 0.57591 0.0
H464 H 0.36245 0.90272 0.58821 0.0
H465 H 0.37931 0.91902 0.56104 0.0
H466 H 0.38734 0.87368 0.56994 0.0
O467 O 0.43474 0.82405 0.63051 0.0
O468 O 0.49019 0.84074 0.63667 0.0
H469 H 0.52933 0.92657 0.59104 0.0
H470 H 0.51081 0.96568 0.57787 0.0
C471 C 0.50886 0.94759 0.59278 0.0
H472 H 0.51419 0.96345 0.60827 0.0
H473 H 0.55215 0.86364 0.6173 0.0
O474 O 0.35904 0.85053 0.62325 0.0
C475 C 0.46723 0.81648 0.63364 0.0
Co476 Co 0.6267 0.39195 0.61478 0.0
Co477 Co 0.60234 0.46972 0.62638 0.0
C478 C 0.59853 0.41602 0.66189 0.0
O479 O 0.61142 0.39272 0.64827 0.0
O480 O 0.59135 0.44752 0.65538 0.0
C481 C 0.64862 0.31958 0.61943 0.0
O482 O 0.63846 0.32449 0.64061 0.0
C483 C 0.567 0.53935 0.63467 0.0
C484 C 0.59946 0.57242 0.61133 0.0
C485 C 0.57042 0.57342 0.62579 0.0
N486 N 0.59259 0.51901 0.62536 0.0
N487 N 0.61222 0.53913 0.61181 0.0
C488 C 0.53821 0.52553 0.64989 0.0
H489 H 0.53617 0.49614 0.64851 0.0
H490 H 0.51232 0.53803 0.6455 0.0
H491 H 0.54468 0.53244 0.66781 0.0
C492 C 0.58119 0.40899 0.57318 0.0
N493 N 0.59351 0.4154 0.59452 0.0
N494 N 0.58144 0.44662 0.60112 0.0
C495 C 0.56012 0.46018 0.58487 0.0
C496 C 0.55982 0.43753 0.56631 0.0
C497 C 0.5927 0.37811 0.55894 0.0
H498 H 0.62175 0.37376 0.56104 0.0
H499 H 0.5789 0.3538 0.56506 0.0
H500 H 0.58621 0.38235 0.54067 0.0
O501 O 0.673 0.41654 0.61412 0.0
O502 O 0.65405 0.46957 0.62457 0.0
H503 H 0.55893 0.51705 0.58291 0.0
H504 H 0.51796 0.49594 0.57458 0.0
C505 C 0.54056 0.49477 0.58676 0.0
H506 H 0.53 0.49788 0.60425 0.0
H507 H 0.63359 0.52975 0.60219 0.0
O508 O 0.64145 0.34339 0.60467 0.0
C509 C 0.67922 0.44851 0.6197 0.0
Co510 Co 0.08878 0.61704 0.63513 0.0
Co511 Co 0.00685 0.61215 0.64345 0.0
C512 C 0.06002 0.59475 0.68058 0.0
O513 O 0.08681 0.59931 0.66752 0.0
O514 O 0.02846 0.59874 0.67309 0.0
C515 C 0.14989 0.65117 0.64081 0.0
O516 O 0.1308 0.65593 0.65933 0.0
C517 C 0.94109 0.57196 0.64799 0.0
C518 C 0.90143 0.61266 0.63814 0.0
C519 C 0.90544 0.57681 0.643 0.0
N520 N 0.95757 0.6034 0.64552 0.0
N521 N 0.93361 0.62786 0.64035 0.0
C522 C 0.96001 0.53747 0.65201 0.0
H523 H 0.98918 0.54077 0.6498 0.0
H524 H 0.94987 0.51666 0.64026 0.0
H525 H 0.95468 0.52847 0.66971 0.0
C526 C 0.06819 0.568 0.59565 0.0
N527 N 0.0613 0.58762 0.61453 0.0
N528 N 0.02658 0.58801 0.61782 0.0
C529 C 0.01041 0.57042 0.6007 0.0
C530 C 0.03599 0.55593 0.58648 0.0
C531 C 0.10468 0.56144 0.58646 0.0
H532 H 0.12487 0.56455 0.60015 0.0
H533 H 0.10637 0.53444 0.57887 0.0
H534 H 0.11034 0.5812 0.57287 0.0
O535 O 0.0696 0.6665 0.63459 0.0
O536 O 0.01138 0.66301 0.63918 0.0
H537 H 0.96648 0.57088 0.57686 0.0
H538 H 0.95721 0.55016 0.6037 0.0
C539 C 0.97136 0.57262 0.5955 0.0
H540 H 0.96028 0.59816 0.60162 0.0
H541 H 0.93958 0.65437 0.63678 0.0
O542 O 0.13906 0.62837 0.62625 0.0
C543 C 0.03931 0.6812 0.63603 0.0
C544 C 0.50619 0.86999 0.17024 0.0
C545 C 0.51135 0.89975 0.15633 0.0
C546 C 0.48623 0.84096 0.16251 0.0
C547 C 0.47206 0.84162 0.14013 0.0
C548 C 0.47357 0.8733 0.12715 0.0
C549 C 0.49319 0.90223 0.1355 0.0
C550 C 0.48413 0.80804 0.17723 0.0
C551 C 0.45839 0.87527 0.10335 0.0
C552 C 0.48671 0.75166 0.11379 0.0
C553 C 0.45347 0.73565 0.11702 0.0
C554 C 0.49218 0.78735 0.11948 0.0
C555 C 0.46375 0.80732 0.12889 0.0
C556 C 0.42932 0.79225 0.13026 0.0
C557 C 0.42452 0.75646 0.12419 0.0
C558 C 0.52919 0.80274 0.11713 0.0
C559 C 0.39821 0.81272 0.13988 0.0
H560 H 0.52007 0.86828 0.18643 0.0
H561 H 0.49722 0.92512 0.12461 0.0
H562 H 0.45705 0.79629 0.17653 0.0
H563 H 0.50314 0.78783 0.17075 0.0
H564 H 0.49089 0.81382 0.1953 0.0
H565 H 0.45368 0.90326 0.09802 0.0
H566 H 0.47757 0.86321 0.09122 0.0
H567 H 0.43304 0.86025 0.10206 0.0
H568 H 0.50897 0.73579 0.10786 0.0
H569 H 0.39862 0.74424 0.12658 0.0
H570 H 0.54095 0.8067 0.13431 0.0
H571 H 0.52815 0.82908 0.1086 0.0
H572 H 0.54715 0.78509 0.10722 0.0
H573 H 0.39879 0.81088 0.15876 0.0
H574 H 0.37243 0.80161 0.13388 0.0
H575 H 0.39952 0.8413 0.13519 0.0
C576 C 0.77505 0.50841 0.16229 0.0
C577 C 0.78581 0.48695 0.14406 0.0
C578 C 0.74157 0.52484 0.16218 0.0
C579 C 0.71921 0.52084 0.14293 0.0
C580 C 0.72975 0.49853 0.12468 0.0
C581 C 0.76279 0.48125 0.12568 0.0
C582 C 0.7306 0.54727 0.18234 0.0
C583 C 0.70711 0.49452 0.10354 0.0
C584 C 0.62182 0.54747 0.14354 0.0
C585 C 0.62339 0.58222 0.13478 0.0
C586 C 0.65296 0.5277 0.14731 0.0
C587 C 0.68623 0.54229 0.141 0.0
C588 C 0.68803 0.57716 0.13197 0.0
C589 C 0.65667 0.59684 0.1293 0.0
C590 C 0.65014 0.4909 0.15752 0.0
C591 C 0.72296 0.5933 0.12442 0.0
H592 H 0.79293 0.51244 0.17658 0.0
H593 H 0.77144 0.4648 0.11155 0.0
H594 H 0.73011 0.57575 0.17736 0.0
H595 H 0.70331 0.54002 0.18791 0.0
H596 H 0.74906 0.54413 0.19701 0.0
H597 H 0.71856 0.47515 0.09127 0.0
H598 H 0.67989 0.48568 0.10816 0.0
H599 H 0.70455 0.52068 0.0949 0.0
H600 H 0.59641 0.53496 0.14672 0.0
H601 H 0.65818 0.62353 0.12234 0.0
H602 H 0.66964 0.48769 0.1716 0.0
H603 H 0.65655 0.47066 0.14441 0.0
H604 H 0.62304 0.48534 0.16422 0.0
H605 H 0.74174 0.59459 0.13899 0.0
H606 H 0.71964 0.62054 0.11737 0.0
H607 H 0.73537 0.57627 0.11117 0.0
C608 C 0.01549 0.74465 0.116 0.0
C609 C 0.04675 0.76271 0.12185 0.0
C610 C 0.01144 0.70852 0.12095 0.0
C611 C 0.03936 0.69009 0.13214 0.0
C612 C 0.07243 0.70719 0.13581 0.0
C613 C 0.0758 0.74352 0.13056 0.0
C614 C 0.97591 0.69111 0.11618 0.0
C615 C 0.10314 0.68818 0.14706 0.0
C616 C 0.99285 0.62708 0.17121 0.0
C617 C 0.98939 0.59754 0.15695 0.0
C618 C 0.0138 0.65613 0.16468 0.0
C619 C 0.031 0.65559 0.14318 0.0
C620 C 0.03141 0.62388 0.13021 0.0
C621 C 0.01026 0.59511 0.13721 0.0
C622 C 0.01331 0.68916 0.17932 0.0
C623 C 0.05021 0.62186 0.10753 0.0
H624 H 0.99328 0.75932 0.10882 0.0
H625 H 0.10021 0.75736 0.13492 0.0
H626 H 0.97972 0.66531 0.10737 0.0
H627 H 0.962 0.68569 0.13252 0.0
H628 H 0.95838 0.70812 0.10548 0.0
H629 H 0.1289 0.7013 0.14308 0.0
H630 H 0.09947 0.6887 0.16583 0.0
H631 H 0.10447 0.65992 0.14168 0.0
H632 H 0.97663 0.62878 0.18648 0.0
H633 H 0.00716 0.5725 0.12593 0.0
H634 H 0.99502 0.70905 0.17164 0.0
H635 H 0.04017 0.70132 0.18023 0.0
H636 H 0.00403 0.68338 0.19693 0.0
H637 H 0.03248 0.63257 0.09402 0.0
H638 H 0.05682 0.59391 0.10305 0.0
H639 H 0.075 0.63791 0.10756 0.0
C640 C 0.876 0.95399 0.14452 0.0
C641 C 0.87252 0.91678 0.14405 0.0
C642 C 0.84603 0.97606 0.14623 0.0
C643 C 0.81172 0.96064 0.14619 0.0
C644 C 0.80791 0.92321 0.14543 0.0
C645 C 0.83834 0.90177 0.14472 0.0
C646 C 0.85108 0.01588 0.14753 0.0
C647 C 0.77165 0.90578 0.14472 0.0
C648 C 0.72792 0.00654 0.16615 0.0
C649 C 0.71295 0.01703 0.14538 0.0
C650 C 0.76151 0.99041 0.16683 0.0
C651 C 0.77953 0.98339 0.14613 0.0
C652 C 0.7649 0.99512 0.12515 0.0
C653 C 0.73183 0.01238 0.12509 0.0
C654 C 0.77692 0.97944 0.18955 0.0
C655 C 0.78285 0.98722 0.10268 0.0
H656 H 0.9018 0.96627 0.14275 0.0
H657 H 0.83529 0.8731 0.14416 0.0
H658 H 0.84184 0.02843 0.13147 0.0
H659 H 0.83489 0.02714 0.16161 0.0
H660 H 0.87939 0.02332 0.15028 0.0
H661 H 0.77336 0.87631 0.14363 0.0
H662 H 0.75625 0.91285 0.16019 0.0
H663 H 0.75646 0.91569 0.12977 0.0
H664 H 0.71297 0.01029 0.18178 0.0
H665 H 0.71971 0.02026 0.10907 0.0
H666 H 0.80524 0.98768 0.19077 0.0
H667 H 0.77607 0.95004 0.19118 0.0
H668 H 0.76202 0.99117 0.20407 0.0
H669 H 0.81097 0.99616 0.10301 0.0
H670 H 0.76918 0.00025 0.0881 0.0
H671 H 0.783 0.95804 0.09975 0.0
C672 C 0.98012 0.24446 0.40077 0.0
C673 C 0.9476 0.26102 0.39606 0.0
C674 C 0.98517 0.20837 0.3961 0.0
C675 C 0.95701 0.18847 0.38628 0.0
C676 C 0.92315 0.20426 0.38331 0.0
C677 C 0.91877 0.24052 0.38833 0.0
C678 C 0.02159 0.19236 0.40005 0.0
C679 C 0.89235 0.18386 0.37322 0.0
C680 C 0.00216 0.12234 0.34876 0.0
C681 C 0.00634 0.0941 0.36402 0.0
C682 C 0.98136 0.15183 0.35459 0.0
C683 C 0.96532 0.15315 0.37643 0.0
C684 C 0.96576 0.12269 0.39062 0.0
C685 C 0.98648 0.09332 0.38422 0.0
C686 C 0.98069 0.18342 0.33868 0.0
C687 C 0.9484 0.12281 0.41381 0.0
H688 H 0.00224 0.26013 0.40714 0.0
H689 H 0.89344 0.25323 0.38479 0.0
H690 H 0.01931 0.16693 0.40955 0.0
H691 H 0.03434 0.18648 0.3834 0.0
H692 H 0.03939 0.21047 0.40976 0.0
H693 H 0.86645 0.19598 0.37802 0.0
H694 H 0.89446 0.18437 0.35436 0.0
H695 H 0.89255 0.15562 0.37874 0.0
H696 H 0.01766 0.12274 0.33315 0.0
H697 H 0.99018 0.07162 0.39619 0.0
H698 H -0.00054 0.204 0.345 0.0
H699 H 0.95375 0.19545 0.3381 0.0
H700 H 0.98871 0.17598 0.32108 0.0
H701 H 0.96632 0.13617 0.42618 0.0
H702 H 0.94335 0.09532 0.42 0.0
H703 H 0.9229 0.13769 0.4135 0.0
C704 C 0.2403 0.96966 0.38329 0.0
C705 C 0.21045 0.98703 0.37417 0.0
C706 C 0.2739 0.98602 0.38307 0.0
C707 C 0.27759 0.02033 0.37337 0.0
C708 C 0.24791 0.0372 0.36319 0.0
C709 C 0.21469 0.0204 0.36378 0.0
C710 C 0.30504 0.96733 0.3941 0.0
C711 C 0.25087 0.07369 0.35251 0.0
C712 C 0.3462 0.08492 0.39573 0.0
C713 C 0.37186 0.08422 0.37843 0.0
C714 C 0.31611 0.06306 0.3947 0.0
C715 C 0.3114 0.0403 0.37574 0.0
C716 C 0.33757 0.03894 0.3584 0.0
C717 C 0.36762 0.06103 0.35995 0.0
C718 C 0.28888 0.06509 0.41362 0.0
C719 C 0.3332 0.01516 0.33786 0.0
H720 H 0.23723 0.94379 0.39124 0.0
H721 H 0.19187 0.0338 0.35641 0.0
H722 H 0.32839 0.96741 0.38253 0.0
H723 H 0.31289 0.98177 0.40981 0.0
H724 H 0.29866 0.93937 0.39874 0.0
H725 H 0.22602 0.08175 0.34361 0.0
H726 H 0.25677 0.09367 0.36591 0.0
H727 H 0.27315 0.07438 0.34011 0.0
H728 H 0.34968 0.10264 0.41014 0.0
H729 H 0.38716 0.06092 0.34638 0.0
H730 H 0.28333 0.03812 0.42045 0.0
H731 H 0.26347 0.07579 0.40682 0.0
H732 H 0.29776 0.08239 0.42789 0.0
H733 H 0.32698 0.98756 0.34327 0.0
H734 H 0.35744 0.01472 0.32701 0.0
H735 H 0.31049 0.02466 0.32738 0.0
C736 C 0.5789 0.25374 0.38893 0.0
C737 C 0.54887 0.23558 0.39717 0.0
C738 C 0.57661 0.28977 0.38272 0.0
C739 C 0.54362 0.30759 0.38488 0.0
C740 C 0.51478 0.29051 0.39599 0.0
C741 C 0.51778 0.25465 0.40196 0.0
C742 C 0.60856 0.30732 0.37196 0.0
C743 C 0.47933 0.30882 0.39934 0.0
C744 C 0.51448 0.40128 0.3739 0.0
C745 C 0.4945 0.39581 0.35399 0.0
C746 C 0.53549 0.37382 0.38295 0.0
C747 C 0.53608 0.34051 0.37179 0.0
C748 C 0.52051 0.33701 0.3499 0.0
C749 C 0.49956 0.36473 0.34133 0.0
C750 C 0.55318 0.37914 0.40579 0.0
C751 C 0.52182 0.30234 0.33694 0.0
H752 H 0.60331 0.23925 0.38555 0.0
H753 H 0.49484 0.24086 0.4089 0.0
H754 H 0.61019 0.29935 0.35377 0.0
H755 H 0.60722 0.33678 0.37285 0.0
H756 H 0.63337 0.29828 0.38046 0.0
H757 H 0.46109 0.29313 0.41036 0.0
H758 H 0.48312 0.33541 0.40715 0.0
H759 H 0.46624 0.31275 0.38254 0.0
H760 H 0.51087 0.42531 0.38376 0.0
H761 H 0.4845 0.3608 0.32575 0.0
H762 H 0.57794 0.36316 0.40719 0.0
H763 H 0.53478 0.37046 0.41951 0.0
H764 H 0.55965 0.40763 0.40869 0.0
H765 H 0.5492 0.29129 0.33705 0.0
H766 H 0.51306 0.3056 0.31895 0.0
H767 H 0.50404 0.28266 0.3453 0.0
C768 C 0.12443 0.43372 0.36035 0.0
C769 C 0.11783 0.41683 0.38122 0.0
C770 C 0.15547 0.4539 0.35715 0.0
C771 C 0.18029 0.4569 0.37522 0.0
C772 C 0.17294 0.44107 0.39659 0.0
C773 C 0.14184 0.42109 0.39929 0.0
C774 C 0.16252 0.47048 0.33414 0.0
C775 C 0.1987 0.4438 0.41631 0.0
C776 C 0.2786 0.46455 0.3631 0.0
C777 C 0.28548 0.5001 0.36888 0.0
C778 C 0.24413 0.45065 0.36421 0.0
C779 C 0.21579 0.47285 0.37124 0.0
C780 C 0.22219 0.50909 0.37629 0.0
C781 C 0.25708 0.52234 0.37509 0.0
C782 C 0.23832 0.41179 0.35872 0.0
C783 C 0.19248 0.53352 0.38371 0.0
H784 H 0.10614 0.43001 0.34627 0.0
H785 H 0.13651 0.40834 0.41553 0.0
H786 H 0.1712 0.49854 0.33609 0.0
H787 H 0.18443 0.45593 0.32555 0.0
H788 H 0.13867 0.46972 0.32294 0.0
H789 H 0.18753 0.43261 0.43233 0.0
H790 H 0.22351 0.42915 0.41214 0.0
H791 H 0.2061 0.47197 0.41935 0.0
H792 H 0.30031 0.44722 0.35811 0.0
H793 H 0.26213 0.54993 0.37939 0.0
H794 H 0.21686 0.40884 0.34586 0.0
H795 H 0.22969 0.39741 0.37431 0.0
H796 H 0.26277 0.39879 0.35209 0.0
H797 H 0.16958 0.53144 0.37183 0.0
H798 H 0.20114 0.56176 0.38455 0.0
H799 H 0.18289 0.52539 0.40083 0.0
C800 C 0.41194 0.15411 0.88071 0.0
C801 C 0.42932 0.1224 0.87483 0.0
C802 C 0.42853 0.18709 0.87783 0.0
C803 C 0.46302 0.18847 0.86823 0.0
C804 C 0.48022 0.1568 0.86135 0.0
C805 C 0.4635 0.124 0.86525 0.0
C806 C 0.40971 0.2203 0.88594 0.0
C807 C 0.5167 0.15745 0.85055 0.0
C808 C 0.48907 0.28052 0.84844 0.0
C809 C 0.50995 0.29209 0.86677 0.0
C810 C 0.47536 0.24588 0.848 0.0
C811 C 0.48164 0.22305 0.86676 0.0
C812 C 0.50331 0.23448 0.88512 0.0
C813 C 0.51777 0.2688 0.88469 0.0
C814 C 0.45347 0.23404 0.82778 0.0
C815 C 0.5097 0.21119 0.90573 0.0
H816 H 0.38557 0.15313 0.88819 0.0
H817 H 0.47797 0.09982 0.8616 0.0
H818 H 0.42582 0.2335 0.89937 0.0
H819 H 0.40679 0.23949 0.87169 0.0
H820 H 0.38286 0.21454 0.89299 0.0
H821 H 0.52409 0.13123 0.84321 0.0
H822 H 0.51783 0.17782 0.83685 0.0
H823 H 0.5369 0.16477 0.86352 0.0
H824 H 0.48353 0.29857 0.83444 0.0
H825 H 0.53388 0.27799 0.89886 0.0
H826 H 0.42525 0.23078 0.83295 0.0
H827 H 0.46293 0.2078 0.82157 0.0
H828 H 0.45464 0.25344 0.8135 0.0
H829 H 0.48402 0.20578 0.91443 0.0
H830 H 0.52818 0.22368 0.91817 0.0
H831 H 0.52091 0.18517 0.90047 0.0
C832 C 0.36907 0.50109 0.83764 0.0
C833 C 0.39757 0.4955 0.85257 0.0
C834 C 0.33912 0.52043 0.8446 0.0
C835 C 0.33753 0.53362 0.86719 0.0
C836 C 0.36812 0.53199 0.88124 0.0
C837 C 0.39792 0.51279 0.87374 0.0
C838 C 0.30748 0.52266 0.8288 0.0
C839 C 0.3678 0.54647 0.90522 0.0
C840 C 0.24958 0.5772 0.88271 0.0
C841 C 0.22985 0.5473 0.88954 0.0
C842 C 0.28566 0.57394 0.87667 0.0
C843 C 0.30206 0.54005 0.87755 0.0
C844 C 0.2829 0.51048 0.8862 0.0
C845 C 0.24708 0.5145 0.89204 0.0
C846 C 0.30519 0.60628 0.86796 0.0
C847 C 0.2995 0.47391 0.88789 0.0
H848 H 0.36894 0.48785 0.82121 0.0
H849 H 0.41965 0.50825 0.88548 0.0
H850 H 0.28713 0.50294 0.83417 0.0
H851 H 0.29513 0.54944 0.82961 0.0
H852 H 0.31497 0.51696 0.81084 0.0
H853 H 0.39523 0.55054 0.91183 0.0
H854 H 0.35312 0.57205 0.90604 0.0
H855 H 0.35403 0.52727 0.91659 0.0
H856 H 0.23644 0.60274 0.88087 0.0
H857 H 0.23212 0.49145 0.89772 0.0
H858 H 0.30227 0.60769 0.84915 0.0
H859 H 0.33403 0.60513 0.87198 0.0
H860 H 0.29391 0.63109 0.87528 0.0
H861 H 0.30538 0.46372 0.87054 0.0
H862 H 0.28181 0.45449 0.8966 0.0
H863 H 0.32503 0.47522 0.89736 0.0
C864 C 0.95546 0.24586 0.89422 0.0
C865 C 0.9748 0.21698 0.88554 0.0
C866 C 0.96953 0.28045 0.89341 0.0
C867 C 0.00346 0.28601 0.88354 0.0
C868 C 0.0223 0.25716 0.87387 0.0
C869 C 0.00783 0.223 0.87511 0.0
C870 C 0.94884 0.3107 0.90392 0.0
C871 C 0.05844 0.2621 0.86298 0.0
C872 C 0.04155 0.37547 0.86688 0.0
C873 C 0.06619 0.38065 0.88447 0.0
C874 C 0.019 0.34571 0.86698 0.0
C875 C 0.02131 0.32099 0.88516 0.0
C876 C 0.04474 0.32739 0.9036 0.0
C877 C 0.06715 0.35704 0.90291 0.0
C878 C 0.99443 0.33957 0.847 0.0
C879 C 0.0477 0.30183 0.92341 0.0
H880 H 0.92981 0.24133 0.90218 0.0
H881 H 0.02267 0.20088 0.86802 0.0
H882 H 0.96255 0.31979 0.91964 0.0
H883 H 0.94773 0.33371 0.89208 0.0
H884 H 0.92123 0.30277 0.90844 0.0
H885 H 0.06819 0.23742 0.85464 0.0
H886 H 0.05741 0.28361 0.85003 0.0
H887 H 0.07809 0.27017 0.87613 0.0
H888 H 0.04106 0.39372 0.85256 0.0
H889 H 0.08591 0.36147 0.91669 0.0
H890 H 0.96761 0.33137 0.85293 0.0
H891 H 0.00509 0.31766 0.83632 0.0
H892 H 0.99174 0.3637 0.83617 0.0
H893 H 0.02091 0.29514 0.93012 0.0
H894 H 0.06403 0.31282 0.93755 0.0
H895 H 0.06016 0.27667 0.91756 0.0
C896 C 0.25267 0.93474 0.89031 0.0
C897 C 0.27864 0.96128 0.88755 0.0
C898 C 0.21625 0.94315 0.8892 0.0
C899 C 0.20585 0.97885 0.88534 0.0
C900 C 0.23199 0.00551 0.88211 0.0
C901 C 0.26796 0.9964 0.88329 0.0
C902 C 0.18902 0.91409 0.89264 0.0
C903 C 0.22206 0.04399 0.87797 0.0
C904 C 0.11723 0.01514 0.86637 0.0
C905 C 0.10623 0.03157 0.88656 0.0
C906 C 0.14815 0.99415 0.86606 0.0
C907 C 0.16801 0.98975 0.88643 0.0
C908 C 0.15464 0.00319 0.90725 0.0
C909 C 0.12398 0.02422 0.90701 0.0
C910 C 0.16143 0.9799 0.84359 0.0
C911 C 0.17473 -0.0012 0.92938 0.0
H912 H 0.26075 0.90748 0.89345 0.0
H913 H 0.28777 0.01708 0.88098 0.0
H914 H 0.17529 0.91807 0.90918 0.0
H915 H 0.16842 0.91521 0.87909 0.0
H916 H 0.2013 0.88719 0.89264 0.0
H917 H 0.24568 0.06107 0.87476 0.0
H918 H 0.20393 0.0461 0.86309 0.0
H919 H 0.20768 0.05466 0.89301 0.0
H920 H 0.10335 0.02087 0.85058 0.0
H921 H 0.11492 0.03652 0.92269 0.0
H922 H 0.17305 0.95296 0.84569 0.0
H923 H 0.1827 0.99764 0.83699 0.0
H924 H 0.13981 0.97868 0.83067 0.0
H925 H 0.1849 0.97125 0.93122 0.0
H926 H 0.15786 0.00517 0.9444 0.0
H927 H 0.19802 0.01699 0.92946 0.0
C928 C 0.06437 0.7416 0.64364 0.0
C929 C 0.03644 0.7202 0.63562 0.0
C930 C 0.05937 0.77826 0.64693 0.0
C931 C 0.02585 0.79349 0.64181 0.0
C932 C 0.99868 0.77235 0.63193 0.0
C933 C 0.00425 0.73589 0.62914 0.0
C934 C 0.08904 0.79988 0.65736 0.0
C935 C 0.96277 0.7877 0.62564 0.0
C936 C 0.97737 0.86514 0.67298 0.0
C937 C 0.97594 0.89138 0.65613 0.0
C938 C 0.99813 0.83464 0.66987 0.0
C939 C 0.01678 0.83009 0.6491 0.0
C940 C 0.01859 0.85839 0.63322 0.0
C941 C 0.99801 0.88893 0.63696 0.0
C942 C 0.99642 0.80545 0.68755 0.0
C943 C 0.03847 0.85471 0.611 0.0
H944 H 0.08938 0.72943 0.64861 0.0
H945 H 0.98289 0.71939 0.62257 0.0
H946 H 0.0897 0.82728 0.65032 0.0
H947 H 0.08462 0.80195 0.67601 0.0
H948 H 0.11539 0.78716 0.65456 0.0
H949 H 0.94599 0.76841 0.61613 0.0
H950 H 0.94832 0.79554 0.64136 0.0
H951 H 0.96609 0.81191 0.61502 0.0
H952 H 0.96027 0.86731 0.68782 0.0
H953 H 0.99647 0.90907 0.62376 0.0
H954 H 0.023 0.7932 0.69005 0.0
H955 H 0.97799 0.7843 0.6816 0.0
H956 H 0.98663 0.81549 0.70422 0.0
H957 H 0.06378 0.83998 0.61341 0.0
H958 H 0.04437 0.8811 0.60331 0.0
H959 H 0.02188 0.83943 0.59877 0.0
C960 C 0.77404 0.99293 0.63545 0.0
C961 C 0.78685 0.02768 0.6327 0.0
C962 C 0.73757 0.98597 0.63633 0.0
C963 C 0.71312 0.0145 0.63437 0.0
C964 C 0.72569 0.04974 0.63165 0.0
C965 C 0.76255 0.05595 0.63086 0.0
C966 C 0.72527 0.94787 0.63907 0.0
C967 C 0.70031 0.08073 0.62962 0.0
C968 C 0.62817 0.97474 0.61344 0.0
C969 C 0.6118 0.96607 0.63413 0.0
C970 C 0.65933 0.99502 0.613 0.0
C971 C 0.67461 0.00618 0.63385 0.0
C972 C 0.65587 0.00098 0.65456 0.0
C973 C 0.62438 0.98086 0.65446 0.0
C974 C 0.67806 0.00055 0.5905 0.0
C975 C 0.67112 0.01293 0.67708 0.0
H976 H 0.79257 0.97093 0.63693 0.0
H977 H 0.77229 0.08295 0.62891 0.0
H978 H 0.70787 0.94539 0.65427 0.0
H979 H 0.70941 0.93974 0.62398 0.0
H980 H 0.74784 0.92899 0.641 0.0
H981 H 0.71438 0.10624 0.62631 0.0
H982 H 0.68096 0.07599 0.61566 0.0
H983 H 0.6848 0.0834 0.64562 0.0
H984 H 0.61783 0.9637 0.59768 0.0
H985 H 0.61145 0.97417 0.67042 0.0
H986 H 0.7 0.98092 0.5889 0.0
H987 H 0.68996 0.02751 0.58949 0.0
H988 H 0.65969 0.99689 0.57583 0.0
H989 H 0.69186 0.99374 0.68262 0.0
H990 H 0.65034 0.01417 0.69054 0.0
H991 H 0.6839 0.03942 0.67549 0.0
C992 C 0.53932 0.62505 0.60909 0.0
C993 C 0.54695 0.60442 0.62837 0.0
C994 C 0.52171 0.6576 0.61108 0.0
C995 C 0.51181 0.66988 0.63296 0.0
C996 C 0.51751 0.64818 0.65238 0.0
C997 C 0.53513 0.61547 0.64984 0.0
C998 C 0.51584 0.67983 0.58993 0.0
C999 C 0.50713 0.66048 0.67594 0.0
C1000 C 0.51424 0.77002 0.63733 0.0
C1001 C 0.47826 0.77881 0.63446 0.0
C1002 C 0.52524 0.73447 0.63788 0.0
C1003 C 0.49963 0.70709 0.6355 0.0
C1004 C 0.46314 0.71567 0.63331 0.0
C1005 C 0.45286 0.75151 0.63277 0.0
C1006 C 0.56446 0.72628 0.64023 0.0
C1007 C 0.43515 0.68709 0.63081 0.0
H1008 H 0.54817 0.61618 0.59243 0.0
H1009 H 0.54139 0.59964 0.66476 0.0
H1010 H 0.48791 0.68933 0.58913 0.0
H1011 H 0.53328 0.70366 0.59051 0.0
H1012 H 0.52181 0.66486 0.57405 0.0
H1013 H 0.50834 0.63852 0.68862 0.0
H1014 H 0.52553 0.68189 0.68152 0.0
H1015 H 0.47984 0.67176 0.67587 0.0
H1016 H 0.53399 0.79093 0.63883 0.0
H1017 H 0.42492 0.75809 0.63081 0.0
H1018 H 0.5743 0.71358 0.62436 0.0
H1019 H 0.56891 0.70718 0.65438 0.0
H1020 H 0.5806 0.75053 0.6435 0.0
H1021 H 0.4383 0.6737 0.61408 0.0
H1022 H 0.40771 0.69801 0.63187 0.0
H1023 H 0.43847 0.66649 0.6442 0.0
C1024 C 0.86008 0.55121 0.61736 0.0
C1025 C 0.8788 0.5494 0.63795 0.0
C1026 C 0.83169 0.52821 0.61302 0.0
C1027 C 0.8215 0.50336 0.62993 0.0
C1028 C 0.84207 0.49963 0.65005 0.0
C1029 C 0.87079 0.52278 0.6538 0.0
C1030 C 0.81072 0.53272 0.59122 0.0
C1031 C 0.83193 0.47343 0.66844 0.0
C1032 C 0.72199 0.49385 0.63348 0.0
C1033 C 0.71608 0.46137 0.62235 0.0
C1034 C 0.75634 0.50689 0.63679 0.0
C1035 C 0.78568 0.48719 0.62853 0.0
C1036 C 0.78018 0.45405 0.61762 0.0
C1037 C 0.74526 0.44138 0.61472 0.0
C1038 C 0.76108 0.54228 0.64869 0.0
C1039 C 0.81098 0.43254 0.60855 0.0
H1040 H 0.867 0.57142 0.60491 0.0
H1041 H 0.88556 0.52142 0.66967 0.0
H1042 H 0.80425 0.50648 0.58364 0.0
H1043 H 0.78519 0.54634 0.59503 0.0
H1044 H 0.82539 0.54883 0.57841 0.0
H1045 H 0.8541 0.46892 0.68066 0.0
H1046 H 0.80876 0.48392 0.67805 0.0
H1047 H 0.82395 0.44754 0.66095 0.0
H1048 H 0.69965 0.50927 0.63975 0.0
H1049 H 0.74082 0.41614 0.60625 0.0
H1050 H 0.77259 0.56197 0.63666 0.0
H1051 H 0.7799 0.53952 0.66317 0.0
H1052 H 0.73557 0.5531 0.6553 0.0
H1053 H 0.82313 0.44664 0.59386 0.0
H1054 H 0.80258 0.40562 0.60286 0.0
H1055 H 0.83194 0.42968 0.62176 0.0
C1056 C 0.66276 0.22604 0.12929 0.0
C1057 C 0.66779 0.19086 0.12202 0.0
C1058 C 0.69041 0.25122 0.12793 0.0
C1059 C 0.72423 0.24086 0.11951 0.0
C1060 C 0.72884 0.20595 0.1109 0.0
C1061 C 0.70049 0.18147 0.11207 0.0
C1062 C 0.68401 0.28834 0.13684 0.0
C1063 C 0.76443 0.1936 0.10198 0.0
C1064 C 0.79284 0.31463 0.10981 0.0
C1065 C 0.80997 0.31562 0.13107 0.0
C1066 C 0.76555 0.28973 0.1054 0.0
C1067 C 0.75557 0.26502 0.12256 0.0
C1068 C 0.77429 0.26473 0.14353 0.0
C1069 C 0.80096 0.29012 0.14756 0.0
C1070 C 0.74618 0.29111 0.08288 0.0
C1071 C 0.76513 0.23852 0.16218 0.0
H1072 H 0.63754 0.23362 0.13684 0.0
H1073 H 0.70476 0.15432 0.10648 0.0
H1074 H 0.69867 0.292 0.1531 0.0
H1075 H 0.69419 0.30844 0.1246 0.0
H1076 H 0.65532 0.29358 0.13999 0.0
H1077 H 0.76249 0.16756 0.09311 0.0
H1078 H 0.77583 0.21347 0.09005 0.0
H1079 H 0.78332 0.19078 0.11643 0.0
H1080 H 0.79943 0.33445 0.09705 0.0
H1081 H 0.81423 0.29058 0.16399 0.0
H1082 H 0.71866 0.30092 0.08566 0.0
H1083 H 0.74409 0.26412 0.07536 0.0
H1084 H 0.75958 0.30897 0.07045 0.0
H1085 H 0.73793 0.24401 0.16866 0.0
H1086 H 0.78403 0.23992 0.17674 0.0
H1087 H 0.76521 0.21099 0.15538 0.0
C1088 C 0.27033 0.67856 0.12664 0.0
C1089 C 0.30224 0.6771 0.11433 0.0
C1090 C 0.24794 0.70844 0.12523 0.0
C1091 C 0.25832 0.73807 0.11179 0.0
C1092 C 0.28985 0.73613 0.09862 0.0
C1093 C 0.3112 0.70547 0.09983 0.0
C1094 C 0.21405 0.709 0.13906 0.0
C1095 C 0.30237 0.76733 0.08452 0.0
C1096 C 0.18688 0.80811 0.10155 0.0
C1097 C 0.19207 0.83074 0.12029 0.0
C1098 C 0.20915 0.77856 0.09793 0.0
C1099 C 0.23766 0.77192 0.11316 0.0
C1100 C 0.24462 0.79629 0.13105 0.0
C1101 C 0.22151 0.82515 0.13454 0.0
C1102 C 0.2006 0.75312 0.0788 0.0
C1103 C 0.2753 0.79076 0.14733 0.0
H1104 H 0.26345 0.65677 0.13794 0.0
H1105 H 0.33622 0.7048 0.09062 0.0
H1106 H 0.21686 0.72817 0.15333 0.0
H1107 H 0.19139 0.71801 0.12838 0.0
H1108 H 0.20756 0.68244 0.14629 0.0
H1109 H 0.32478 0.76007 0.07307 0.0
H1110 H 0.28028 0.77815 0.07405 0.0
H1111 H 0.31146 0.78893 0.09604 0.0
H1112 H 0.16392 0.81196 0.09061 0.0
H1113 H 0.22565 0.84257 0.14904 0.0
H1114 H 0.19021 0.72789 0.08606 0.0
H1115 H 0.22496 0.74652 0.06898 0.0
H1116 H 0.18035 0.7641 0.06691 0.0
H1117 H 0.26996 0.76717 0.15819 0.0
H1118 H 0.27956 0.81414 0.15859 0.0
H1119 H 0.30024 0.78549 0.13777 0.0
C1120 C 0.31474 0.69117 0.39822 0.0
C1121 C 0.30121 0.66216 0.38594 0.0
C1122 C 0.29391 0.72197 0.40163 0.0
C1123 C 0.25878 0.72351 0.39272 0.0
C1124 C 0.24436 0.69325 0.38175 0.0
C1125 C 0.26573 0.66314 0.37844 0.0
C1126 C 0.31022 0.7536 0.41352 0.0
C1127 C 0.20705 0.69342 0.3721 0.0
C1128 C 0.19227 0.7979 0.40558 0.0
C1129 C 0.19573 0.81923 0.38604 0.0
C1130 C 0.21364 0.76734 0.4086 0.0
C1131 C 0.23888 0.75791 0.39165 0.0
C1132 C 0.24297 0.7799 0.37223 0.0
C1133 C 0.22148 0.81011 0.3697 0.0
C1134 C 0.2086 0.74467 0.42959 0.0
C1135 C 0.26932 0.7709 0.35363 0.0
H1136 H 0.34206 0.69051 0.40416 0.0
H1137 H 0.2548 0.64055 0.36931 0.0
H1138 H 0.31623 0.77461 0.40077 0.0
H1139 H 0.29129 0.76507 0.42602 0.0
H1140 H 0.33531 0.74651 0.42248 0.0
H1141 H 0.19839 0.66652 0.36653 0.0
H1142 H 0.18783 0.70348 0.38491 0.0
H1143 H 0.20593 0.71156 0.35717 0.0
H1144 H 0.17267 0.80485 0.41838 0.0
H1145 H 0.22467 0.82641 0.35458 0.0
H1146 H 0.23465 0.73942 0.43787 0.0
H1147 H 0.19721 0.71854 0.42467 0.0
H1148 H 0.19055 0.75736 0.44219 0.0
H1149 H 0.29628 0.76719 0.36097 0.0
H1150 H 0.27075 0.79186 0.34029 0.0
H1151 H 0.26159 0.74548 0.34538 0.0
C1152 C 0.8058 0.29649 0.41577 0.0
C1153 C 0.79965 0.32103 0.39814 0.0
C1154 C 0.78429 0.26607 0.41825 0.0
C1155 C 0.75546 0.26054 0.40308 0.0
C1156 C 0.74769 0.28658 0.38629 0.0
C1157 C 0.77018 0.31621 0.38382 0.0
C1158 C 0.79395 0.23869 0.43605 0.0
C1159 C 0.71691 0.28219 0.36997 0.0
C1160 C 0.72216 0.16878 0.38618 0.0
C1161 C 0.69059 0.16609 0.39877 0.0
C1162 C 0.74478 0.19834 0.38861 0.0
C1163 C 0.73501 0.22645 0.40346 0.0
C1164 C 0.70396 0.22309 0.41698 0.0
C1165 C 0.68236 0.19273 0.41469 0.0
C1166 C 0.7781 0.20038 0.37428 0.0
C1167 C 0.69199 0.25278 0.4325 0.0
H1168 H 0.82893 0.29969 0.42665 0.0
H1169 H 0.76545 0.33499 0.3701 0.0
H1170 H 0.77012 0.23073 0.44598 0.0
H1171 H 0.80426 0.21445 0.4275 0.0
H1172 H 0.81463 0.24858 0.44803 0.0
H1173 H 0.70981 0.3077 0.36152 0.0
H1174 H 0.72431 0.26273 0.35657 0.0
H1175 H 0.69307 0.27173 0.37887 0.0
H1176 H 0.72851 0.14835 0.37379 0.0
H1177 H 0.65762 0.19119 0.42416 0.0
H1178 H 0.80102 0.20932 0.38475 0.0
H1179 H 0.77428 0.22021 0.36046 0.0
H1180 H 0.7848 0.17437 0.36639 0.0
H1181 H 0.7144 0.26228 0.44321 0.0
H1182 H 0.66977 0.24445 0.44381 0.0
H1183 H 0.68286 0.27563 0.42201 0.0
C1184 C 0.1978 0.68507 0.91252 0.0
C1185 C 0.16982 0.69408 0.89774 0.0
C1186 C 0.22855 0.70633 0.91399 0.0
C1187 C 0.23096 0.73784 0.90079 0.0
C1188 C 0.20167 0.74827 0.88706 0.0
C1189 C 0.17173 0.72596 0.8854 0.0
C1190 C 0.25943 0.69368 0.92834 0.0
C1191 C 0.20268 0.78212 0.87318 0.0
C1192 C 0.30211 0.8081 0.91192 0.0
C1193 C 0.32527 0.80256 0.89348 0.0
C1194 C 0.27184 0.78654 0.91503 0.0
C1195 C 0.26505 0.75829 0.89964 0.0
C1196 C 0.28975 0.75114 0.88196 0.0
C1197 C 0.31923 0.77367 0.8789 0.0
C1198 C 0.24597 0.79546 0.93385 0.0
C1199 C 0.2841 0.7208 0.86549 0.0
H1200 H 0.19682 0.66006 0.92174 0.0
H1201 H 0.15025 0.73287 0.87386 0.0
H1202 H 0.28133 0.68479 0.91699 0.0
H1203 H 0.26996 0.71565 0.93901 0.0
H1204 H 0.2519 0.67114 0.93962 0.0
H1205 H 0.17639 0.78849 0.86551 0.0
H1206 H 0.21119 0.80484 0.88397 0.0
H1207 H 0.22244 0.77938 0.85924 0.0
H1208 H 0.30629 0.83074 0.92305 0.0
H1209 H 0.337 0.76935 0.8646 0.0
H1210 H 0.23894 0.77126 0.94371 0.0
H1211 H 0.22099 0.80594 0.92628 0.0
H1212 H 0.2568 0.81574 0.94576 0.0
H1213 H 0.27676 0.69614 0.87477 0.0
H1214 H 0.30818 0.71544 0.85505 0.0
H1215 H 0.26179 0.72737 0.85381 0.0
C1216 C 0.71828 0.32982 0.88087 0.0
C1217 C 0.68398 0.32905 0.8903 0.0
C1218 C 0.74176 0.301 0.88354 0.0
C1219 C 0.73058 0.27035 0.89568 0.0
C1220 C 0.69673 0.27019 0.90632 0.0
C1221 C 0.67392 0.29963 0.90363 0.0
C1222 C 0.77787 0.30262 0.87227 0.0
C1223 C 0.68367 0.23807 0.91933 0.0
C1224 C 0.77452 0.1856 0.87443 0.0
C1225 C 0.80178 0.18054 0.89045 0.0
C1226 C 0.74997 0.21356 0.87668 0.0
C1227 C 0.75301 0.2375 0.89524 0.0
C1228 C 0.77933 0.23145 0.91212 0.0
C1229 C 0.80326 0.20288 0.90962 0.0
C1230 C 0.7219 0.21854 0.85851 0.0
C1231 C 0.78363 0.25638 0.93209 0.0
H1232 H 0.72639 0.3525 0.87069 0.0
H1233 H 0.64743 0.29866 0.91093 0.0
H1234 H 0.79901 0.29497 0.88456 0.0
H1235 H 0.77883 0.28337 0.85795 0.0
H1236 H 0.78397 0.32956 0.86549 0.0
H1237 H 0.6588 0.24371 0.92892 0.0
H1238 H 0.67838 0.21603 0.90722 0.0
H1239 H 0.70427 0.22866 0.93148 0.0
H1240 H 0.77308 0.16834 0.85966 0.0
H1241 H 0.82439 0.19933 0.92201 0.0
H1242 H 0.72757 0.24314 0.84869 0.0
H1243 H 0.69527 0.22174 0.86643 0.0
H1244 H 0.72089 0.19579 0.84644 0.0
H1245 H 0.79414 0.28228 0.92596 0.0
H1246 H 0.80224 0.24566 0.94513 0.0
H1247 H 0.75754 0.26164 0.94028 0.0
C1248 C 0.80737 0.17613 0.60379 0.0
C1249 C 0.83289 0.18645 0.61999 0.0
C1250 C 0.77644 0.1965 0.60015 0.0
C1251 C 0.77127 0.22826 0.61271 0.0
C1252 C 0.79816 0.23996 0.62794 0.0
C1253 C 0.8284 0.21871 0.63158 0.0
C1254 C 0.74829 0.18274 0.58404 0.0
C1255 C 0.79413 0.27402 0.64133 0.0
C1256 C 0.7014 0.29768 0.59737 0.0
C1257 C 0.6759 0.29206 0.61451 0.0
C1258 C 0.73191 0.2761 0.59584 0.0
C1259 C 0.73673 0.24787 0.61156 0.0
C1260 C 0.70971 0.24045 0.62774 0.0
C1261 C 0.67983 0.26283 0.62917 0.0
C1262 C 0.76009 0.28505 0.57841 0.0
C1263 C 0.7133 0.21006 0.64446 0.0
H1264 H 0.81038 0.15093 0.595 0.0
H1265 H 0.84803 0.22678 0.64412 0.0
H1266 H 0.72526 0.17281 0.59405 0.0
H1267 H 0.73842 0.20435 0.5728 0.0
H1268 H 0.75834 0.16063 0.57325 0.0
H1269 H 0.81884 0.28116 0.65069 0.0
H1270 H 0.78698 0.29633 0.6298 0.0
H1271 H 0.77221 0.27107 0.65387 0.0
H1272 H 0.69874 0.32037 0.58607 0.0
H1273 H 0.66016 0.25823 0.64237 0.0
H1274 H 0.76881 0.26076 0.56925 0.0
H1275 H 0.78378 0.29617 0.58721 0.0
H1276 H 0.75057 0.30487 0.56573 0.0
H1277 H 0.72045 0.18515 0.6354 0.0
H1278 H 0.68839 0.20546 0.65424 0.0
H1279 H 0.73505 0.21593 0.6567 0.0
C1280 C 0.32201 0.7685 0.64668 0.0
C1281 C 0.32248 0.79992 0.6337 0.0
C1282 C 0.29482 0.74332 0.64424 0.0
C1283 C 0.26695 0.74962 0.62852 0.0
C1284 C 0.26783 0.78063 0.61469 0.0
C1285 C 0.29572 0.80543 0.61738 0.0
C1286 C 0.29514 0.71067 0.65931 0.0
C1287 C 0.23859 0.78827 0.59774 0.0
C1288 C 0.20523 0.6701 0.61936 0.0
C1289 C 0.17927 0.67652 0.63603 0.0
C1290 C 0.23328 0.6945 0.61581 0.0
C1291 C 0.235 0.72606 0.62907 0.0
C1292 C 0.20786 0.73327 0.6451 0.0
C1293 C 0.1806 0.70845 0.64844 0.0
C1294 C 0.26175 0.68593 0.59854 0.0
C1295 C 0.2083 0.76662 0.6595 0.0
H1296 H 0.34289 0.76354 0.65904 0.0
H1297 H 0.29611 0.82943 0.60712 0.0
H1298 H 0.27285 0.71219 0.67169 0.0
H1299 H 0.29118 0.6863 0.64897 0.0
H1300 H 0.32042 0.70796 0.669 0.0
H1301 H 0.24541 0.81081 0.58627 0.0
H1302 H 0.233 0.76438 0.58723 0.0
H1303 H 0.21373 0.79498 0.607 0.0
H1304 H 0.20412 0.64571 0.60953 0.0
H1305 H 0.16025 0.71418 0.66101 0.0
H1306 H 0.28704 0.6798 0.6075 0.0
H1307 H 0.26678 0.70923 0.58737 0.0
H1308 H 0.25446 0.66276 0.58775 0.0
H1309 H 0.23136 0.76583 0.67133 0.0
H1310 H 0.18363 0.7697 0.66976 0.0
H1311 H 0.21143 0.79049 0.64856 0.0
C1312 C 0.51337 0.00069 0.06611 0.0
C1313 C 0.54373 0.02237 0.06443 0.0
C1314 C 0.4963 0.98714 0.04666 0.0
C1315 C 0.50934 0.99597 0.02474 0.0
C1316 C 0.53944 0.01871 0.02286 0.0
C1317 C 0.55637 0.03155 0.04273 0.0
C1318 C 0.46439 0.9631 0.04963 0.0
C1319 C 0.55393 0.02918 0.99982 0.0
C1320 C 0.48233 0.93836 0.97362 0.0
C1321 C 0.45486 0.95869 0.96405 0.0
C1322 C 0.50021 0.94995 0.99348 0.0
C1323 C 0.49043 0.98266 1.00389 0.0
C1324 C 0.46192 0.00256 0.99459 0.0
C1325 C 0.4444 0.9902 0.97498 0.0
C1326 C 0.53005 0.92762 1.00306 0.0
C1327 C 0.45033 0.03739 1.00506 0.0
H1328 H 0.50305 0.99397 0.08283 0.0
H1329 H 0.58002 0.04791 0.04128 0.0
H1330 H 0.44073 0.9751 0.0413 0.0
H1331 H 0.46935 0.93714 0.04122 0.0
H1332 H 0.45803 0.95818 0.06786 0.0
H1333 H 0.57728 0.04721 1.00118 0.0
H1334 H 0.56195 0.00503 0.99024 0.0
H1335 H 0.53292 0.04268 0.98971 0.0
H1336 H 0.4906 0.9141 0.96516 0.0
H1337 H 0.4228 0.00575 0.96782 0.0
H1338 H 0.52471 0.92122 0.02121 0.0
H1339 H 0.55533 0.94287 1.00247 0.0
H1340 H 0.53367 0.90237 0.99351 0.0
H1341 H 0.4422 0.03318 0.02304 0.0
H1342 H 0.42777 0.04974 0.99569 0.0
H1343 H 0.47295 0.0564 1.00517 0.0
C1344 C 0.49542 0.5614 0.03526 0.0
C1345 C 0.46416 0.55171 0.0468 0.0
C1346 C 0.50693 0.54293 0.01587 0.0
C1347 C 0.48611 0.51463 1.00722 0.0
C1348 C 0.45369 0.50557 0.01824 0.0
C1349 C 0.44317 0.52412 0.03802 0.0
C1350 C 0.54168 0.55351 1.0048 0.0
C1351 C 0.43031 0.47612 0.00921 0.0
C1352 C 0.50135 0.4923 0.9448 0.0
C1353 C 0.52213 0.46132 0.94606 0.0
C1354 C 0.48867 0.50921 0.96449 0.0
C1355 C 0.49791 0.49555 0.98618 0.0
C1356 C 0.51981 0.46484 0.98765 0.0
C1357 C 0.53143 0.44788 0.96754 0.0
C1358 C 0.46524 0.54166 0.96203 0.0
C1359 C 0.53084 0.44987 0.01047 0.0
H1360 H 0.5113 0.58332 0.04165 0.0
H1361 H 0.41902 0.51654 0.0469 0.0
H1362 H 0.55978 0.53021 1.00395 0.0
H1363 H 0.53685 0.56247 0.98704 0.0
H1364 H 0.5554 0.57523 0.01417 0.0
H1365 H 0.40554 0.47291 0.01935 0.0
H1366 H 0.42298 0.48165 0.99122 0.0
H1367 H 0.44512 0.45058 0.00942 0.0
H1368 H 0.49465 0.50326 0.92825 0.0
H1369 H 0.54704 0.42372 0.96867 0.0
H1370 H 0.47877 0.56521 0.96943 0.0
H1371 H 0.44004 0.53779 0.97157 0.0
H1372 H 0.45868 0.54754 0.94393 0.0
H1373 H 0.54527 0.47045 0.0204 0.0
H1374 H 0.54824 0.42613 0.00874 0.0
H1375 H 0.5069 0.44234 0.02044 0.0
C1376 C 0.9312 0.49321 0.04831 0.0
C1377 C 0.94617 0.46556 0.06122 0.0
C1378 C 0.94833 0.50646 0.02872 0.0
C1379 C 0.981 0.4913 0.02158 0.0
C1380 C 0.99517 0.46196 0.03388 0.0
C1381 C 0.97767 0.44957 0.05364 0.0
C1382 C 0.93222 0.53774 0.01628 0.0
C1383 C 0.02949 0.44447 0.02663 0.0
C1384 C 0.01314 0.506 0.96061 0.0
C1385 C 0.04048 0.53112 0.96347 0.0
C1386 C 0.99338 0.49319 0.97923 0.0
C1387 C 0.00051 0.50627 1.00139 0.0
C1388 C 0.02683 0.53308 1.00425 0.0
C1389 C 0.0466 0.54511 0.98526 0.0
C1390 C 0.96573 0.46468 0.97526 0.0
C1391 C 0.03489 0.54823 0.02751 0.0
H1392 H 0.90691 0.5057 0.05427 0.0
H1393 H 0.98941 0.4284 0.06371 0.0
H1394 H 0.95044 0.56093 0.01741 0.0
H1395 H 0.92888 0.53143 0.99793 0.0
H1396 H 0.90594 0.54551 0.02339 0.0
H1397 H 0.03589 0.42071 0.03715 0.0
H1398 H 0.02785 0.43628 0.00848 0.0
H1399 H 0.05173 0.46377 0.0281 0.0
H1400 H 0.00791 0.49548 0.94373 0.0
H1401 H 0.06778 0.56435 0.98762 0.0
H1402 H 0.93958 0.47329 0.98209 0.0
H1403 H 0.97341 0.44009 0.98452 0.0
H1404 H 0.96254 0.45817 0.9569 0.0
H1405 H 0.01007 0.55799 0.03563 0.0
H1406 H 0.05435 0.57047 0.02671 0.0
H1407 H 0.04589 0.52704 0.03866 0.0
C1408 C 0.93352 0.0239 0.97638 0.0
C1409 C 0.9493 0.05489 0.96785 0.0
C1410 C 0.94721 0.00703 0.99599 0.0
C1411 C 0.97761 0.02135 1.0071 0.0
C1412 C 0.99238 0.05372 0.99914 0.0
C1413 C 0.97797 0.07011 0.97968 0.0
C1414 C 0.93031 0.97287 1.00412 0.0
C1415 C 0.02474 0.06995 0.01033 0.0
C1416 C 0.99861 0.98839 0.06706 0.0
C1417 C 0.02332 0.96117 0.06285 0.0
C1418 C 0.98403 0.0086 0.04919 0.0
C1419 C 0.99474 0.0018 0.02647 0.0
C1420 C 0.02126 0.97567 0.02225 0.0
C1421 C 0.0352 0.95558 0.04051 0.0
C1422 C 0.95605 0.03619 0.05454 0.0
C1423 C 0.03386 0.96796 0.99833 0.0
H1424 H 0.91182 0.01178 0.96698 0.0
H1425 H 0.99054 0.09379 0.97281 0.0
H1426 H 0.94917 0.95048 1.00164 0.0
H1427 H 0.9244 0.97447 0.02262 0.0
H1428 H 0.90528 0.96674 0.99482 0.0
H1429 H 0.03122 0.0966 1.00323 0.0
H1430 H 0.02056 0.07253 0.02897 0.0
H1431 H 0.04804 0.05224 1.00779 0.0
H1432 H 0.98954 0.99287 0.08437 0.0
H1433 H 0.05405 0.93438 0.03718 0.0
H1434 H 0.93035 0.02829 0.0467 0.0
H1435 H 0.96362 0.06228 0.04712 0.0
H1436 H 0.95199 0.03953 0.07318 0.0
H1437 H 0.01151 0.95705 0.98811 0.0
H1438 H 0.05617 0.94857 0.99803 0.0
H1439 H 0.04268 0.99289 0.9899 0.0
C1440 C 0.00027 0.00329 0.56394 0.0
C1441 C 0.97157 0.02705 0.56199 0.0
C1442 C 0.01801 0.99014 0.54462 0.0
C1443 C 0.00749 0.00166 0.52265 0.0
C1444 C 0.97966 0.02706 0.52059 0.0
C1445 C 0.96186 0.03929 0.54028 0.0
C1446 C 0.04731 0.96304 0.54773 0.0
C1447 C 0.96803 0.04056 0.49752 0.0
C1448 C 0.07172 0.99009 0.47281 0.0
C1449 C 0.05665 0.96128 0.46108 0.0
C1450 C 0.05628 0.00325 0.49295 0.0
C1451 C 0.02533 0.98679 0.50187 0.0
C1452 C 0.01125 0.95633 0.49074 0.0
C1453 C 0.02698 0.94406 0.47038 0.0
C1454 C 0.07215 0.03581 0.50408 0.0
C1455 C 0.97879 0.93746 0.4999 0.0
H1456 H 0.00832 0.99418 0.58071 0.0
H1457 H 0.93952 0.05733 0.53859 0.0
H1458 H 0.03998 0.93792 0.53898 0.0
H1459 H 0.0723 0.97277 0.53983 0.0
H1460 H 0.05254 0.95707 0.56599 0.0
H1461 H 0.94759 0.06183 0.49885 0.0
H1462 H 0.99126 0.05114 0.48799 0.0
H1463 H 0.95685 0.01829 0.48738 0.0
H1464 H 0.0946 0.00351 0.46551 0.0
H1465 H 0.01517 0.92196 0.46121 0.0
H1466 H 0.078 0.03043 0.5223 0.0
H1467 H 0.05267 0.05799 0.5035 0.0
H1468 H 0.09707 0.04461 0.49558 0.0
H1469 H 0.98286 0.93029 0.51808 0.0
H1470 H 0.97252 0.9129 0.49017 0.0
H1471 H 0.95545 0.95551 0.4991 0.0
C1472 C 0.49461 0.01307 0.45441 0.0
C1473 C 0.52092 0.03902 0.458 0.0
C1474 C 0.48074 0.99295 0.47255 0.0
C1475 C 0.49375 -0.00148 0.49491 0.0
C1476 C 0.52161 0.02348 0.49848 0.0
C1477 C 0.53483 0.0435 0.47996 0.0
C1478 C 0.45128 0.9666 0.46787 0.0
C1479 C 0.53663 0.02988 0.52199 0.0
C1480 C 0.4367 0.97616 0.54694 0.0
C1481 C 0.45224 0.94436 0.55435 0.0
C1482 C 0.44907 0.99346 0.52712 0.0
C1483 C 0.47786 0.9787 0.51461 0.0
C1484 C 0.4923 0.94557 0.52147 0.0
C1485 C 0.47924 0.9288 0.5412 0.0
C1486 C 0.43255 0.02845 0.52022 0.0
C1487 C 0.52294 0.9288 0.50876 0.0
H1488 H 0.48404 0.0093 0.43737 0.0
H1489 H 0.55492 0.06371 0.48286 0.0
H1490 H 0.45873 0.9399 0.4744 0.0
H1491 H 0.42677 0.97487 0.477 0.0
H1492 H 0.44509 0.96438 0.4494 0.0
H1493 H 0.55946 0.04869 0.52176 0.0
H1494 H 0.51558 0.04092 0.53322 0.0
H1495 H 0.54553 0.00439 0.52966 0.0
H1496 H 0.41628 0.98849 0.55734 0.0
H1497 H 0.49163 0.90444 0.54717 0.0
H1498 H 0.42479 0.02779 0.50197 0.0
H1499 H 0.45235 0.05012 0.52229 0.0
H1500 H 0.40869 0.03496 0.5306 0.0
H1501 H 0.51681 0.92704 0.4903 0.0
H1502 H 0.52927 0.90171 0.5152 0.0
H1503 H 0.547 0.9457 0.51059 0.0
C1504 C 0.44576 0.52495 0.46639 0.0
C1505 C 0.45896 0.51788 0.44453 0.0
C1506 C 0.46312 0.51141 0.48592 0.0
C1507 C 0.4941 0.49007 0.48344 0.0
C1508 C 0.50796 0.48383 0.46138 0.0
C1509 C 0.49048 0.49811 0.44232 0.0
C1510 C 0.44787 0.51924 0.50917 0.0
C1511 C 0.54076 0.46126 0.45782 0.0
C1512 C 0.55709 0.48015 0.53387 0.0
C1513 C 0.54652 0.44747 0.54329 0.0
C1514 C 0.54031 0.49422 0.51448 0.0
C1515 C 0.51259 0.47485 0.50386 0.0
C1516 C 0.50298 0.44092 0.51263 0.0
C1517 C 0.51999 0.42766 0.53235 0.0
C1518 C 0.55153 0.53038 0.50581 0.0
C1519 C 0.47404 0.41911 0.50154 0.0
H1520 H 0.42122 0.53983 0.46819 0.0
H1521 H 0.50105 0.49296 0.42544 0.0
H1522 H 0.43961 0.49404 0.5175 0.0
H1523 H 0.46848 0.53161 0.52017 0.0
H1524 H 0.4245 0.5373 0.50831 0.0
H1525 H 0.54837 0.45935 0.43956 0.0
H1526 H 0.56354 0.47245 0.46749 0.0
H1527 H 0.53598 0.43399 0.46442 0.0
H1528 H 0.57778 0.49542 0.54227 0.0
H1529 H 0.51162 0.40254 0.53972 0.0
H1530 H 0.52861 0.54898 0.50648 0.0
H1531 H 0.56 0.52852 0.48774 0.0
H1532 H 0.57375 0.54189 0.51592 0.0
H1533 H 0.44835 0.4336 0.50253 0.0
H1534 H 0.47078 0.39266 0.50975 0.0
H1535 H 0.48011 0.41513 0.4832 0.0
C1536 C 0.00259 0.50572 0.56882 0.0
C1537 C 0.02829 0.53262 0.56651 0.0
C1538 C 0.98939 0.48721 0.54984 0.0
C1539 C 0.0029 0.49497 0.52788 0.0
C1540 C 0.03031 0.52081 0.52554 0.0
C1541 C 0.04256 0.53952 0.54489 0.0
C1542 C 0.96013 0.46014 0.55324 0.0
C1543 C 0.04599 0.52933 0.50249 0.0
C1544 C 0.98983 0.42518 0.48154 0.0
C1545 C 0.96244 0.44002 0.46831 0.0
C1546 C 0.00331 0.44282 0.5008 0.0
C1547 C 0.98843 0.4758 0.50748 0.0
C1548 C 0.95942 0.49002 0.49487 0.0
C1549 C 0.9469 0.47205 0.47532 0.0
C1550 C 0.03428 0.42666 0.51357 0.0
C1551 C 0.94218 0.52464 0.50174 0.0
H1552 H 0.99183 0.49993 0.58557 0.0
H1553 H 0.06218 0.56044 0.54296 0.0
H1554 H 0.93618 0.46819 0.54343 0.0
H1555 H 0.96864 0.43382 0.54667 0.0
H1556 H 0.95256 0.45717 0.57145 0.0
H1557 H 0.06842 0.54852 0.50366 0.0
H1558 H 0.05567 0.50462 0.49421 0.0
H1559 H 0.02513 0.5408 0.49129 0.0
H1560 H 0.00173 0.40024 0.47622 0.0
H1561 H 0.92587 0.48366 0.46506 0.0
H1562 H 0.02708 0.42241 0.5317 0.0
H1563 H 0.05726 0.44522 0.51324 0.0
H1564 H 0.0428 0.40081 0.50619 0.0
H1565 H 0.93334 0.52325 0.51977 0.0
H1566 H 0.91887 0.53128 0.49087 0.0
H1567 H 0.96185 0.54659 0.50048 0.0
C1568 C 0.59594 0.09876 0.31388 0.0
C1569 C 0.56443 0.1121 0.32344 0.0
C1570 C 0.60004 0.09608 0.29006 0.0
C1571 C 0.57224 0.10761 0.27542 0.0
C1572 C 0.54081 0.12196 0.28498 0.0
C1573 C 0.53716 0.12373 0.30878 0.0
C1574 C 0.63375 0.08005 0.28056 0.0
C1575 C 0.51069 0.13496 0.27006 0.0
C1576 C 0.59359 0.12027 0.21211 0.0
C1577 C 0.58171 0.08789 0.20294 0.0
C1578 C 0.59006 0.12754 0.23561 0.0
C1579 C 0.57463 0.1017 0.25026 0.0
C1580 C 0.56148 0.06961 0.24091 0.0
C1581 C 0.56487 0.0633 0.21747 0.0
C1582 C 0.60372 0.1624 0.24489 0.0
C1583 C 0.54484 0.04127 0.25579 0.0
H1584 H 0.61721 0.08989 0.32502 0.0
H1585 H 0.51287 0.1346 0.3159 0.0
H1586 H 0.62732 0.05513 0.27129 0.0
H1587 H 0.64612 0.09854 0.26811 0.0
H1588 H 0.6535 0.07387 0.2941 0.0
H1589 H 0.48932 0.14812 0.28005 0.0
H1590 H 0.52086 0.15405 0.25717 0.0
H1591 H 0.49888 0.11222 0.26067 0.0
H1592 H 0.60672 0.1394 0.20111 0.0
H1593 H 0.55528 0.03826 0.21065 0.0
H1594 H 0.6265 0.15739 0.2565 0.0
H1595 H 0.58269 0.17577 0.25503 0.0
H1596 H 0.61259 0.18072 0.23113 0.0
H1597 H 0.56444 0.03206 0.26868 0.0
H1598 H 0.53568 0.01787 0.24582 0.0
H1599 H 0.52175 0.05236 0.26517 0.0
C1600 C 0.41956 0.55142 0.29053 0.0
C1601 C 0.4078 0.57702 0.3063 0.0
C1602 C 0.42202 0.55907 0.26723 0.0
C1603 C 0.41311 0.59346 0.25928 0.0
C1604 C 0.40214 0.61986 0.27506 0.0
C1605 C 0.3994 0.61128 0.29841 0.0
C1606 C 0.43377 0.53007 0.25104 0.0
C1607 C 0.39304 0.65702 0.26723 0.0
C1608 C 0.45395 0.61565 0.2019 0.0
C1609 C 0.4256 0.60916 0.1868 0.0
C1610 C 0.44972 0.61222 0.22554 0.0
C1611 C 0.41643 0.60155 0.23448 0.0
C1612 C 0.38748 0.59545 0.21944 0.0
C1613 C 0.39233 0.59959 0.19577 0.0
C1614 C 0.4812 0.61929 0.24094 0.0
C1615 C 0.35169 0.58353 0.22831 0.0
H1616 H 0.42621 0.52483 0.29629 0.0
H1617 H 0.39019 0.6312 0.31039 0.0
H1618 H 0.41305 0.52563 0.23786 0.0
H1619 H 0.45846 0.53826 0.24208 0.0
H1620 H 0.43892 0.50444 0.25992 0.0
H1621 H 0.38569 0.67471 0.28165 0.0
H1622 H 0.41605 0.66886 0.2581 0.0
H1623 H 0.3705 0.65608 0.25502 0.0
H1624 H 0.47964 0.6237 0.19526 0.0
H1625 H 0.37024 0.59476 0.18428 0.0
H1626 H 0.48954 0.5942 0.24937 0.0
H1627 H 0.47372 0.63829 0.25459 0.0
H1628 H 0.50437 0.63025 0.23148 0.0
H1629 H 0.35427 0.55688 0.23631 0.0
H1630 H 0.33133 0.58201 0.2146 0.0
H1631 H 0.34215 0.60208 0.24168 0.0
C1632 C 0.90041 0.38119 0.21387 0.0
C1633 C 0.9115 0.41401 0.20488 0.0
C1634 C 0.90267 0.37416 0.23747 0.0
C1635 C 0.91583 0.40073 0.25246 0.0
C1636 C 0.92768 0.43354 0.2434 0.0
C1637 C 0.92573 0.43959 0.21984 0.0
C1638 C 0.89053 0.33852 0.24644 0.0
C1639 C 0.94178 0.46272 0.25866 0.0
C1640 C 0.89324 0.40024 0.316 0.0
C1641 C 0.92539 0.38857 0.32561 0.0
C1642 C 0.88941 0.40364 0.29217 0.0
C1643 C 0.91812 0.3944 0.27759 0.0
C1644 C 0.95024 0.38174 0.28722 0.0
C1645 C 0.9536 0.37935 0.311 0.0
C1646 C 0.85495 0.41791 0.28259 0.0
C1647 C 0.98135 0.37111 0.27239 0.0
H1648 H 0.88927 0.36129 0.20256 0.0
H1649 H 0.9345 0.46508 0.21325 0.0
H1650 H 0.91223 0.32582 0.25637 0.0
H1651 H 0.86769 0.34221 0.25818 0.0
H1652 H 0.88233 0.32019 0.23254 0.0
H1653 H 0.94929 0.487 0.24897 0.0
H1654 H 0.92135 0.47005 0.27149 0.0
H1655 H 0.96551 0.45318 0.26812 0.0
H1656 H 0.87127 0.40723 0.3271 0.0
H1657 H 0.97843 0.36974 0.31815 0.0
H1658 H 0.84385 0.39906 0.2699 0.0
H1659 H 0.86002 0.4434 0.27359 0.0
H1660 H 0.83469 0.42257 0.29606 0.0
H1661 H 0.97261 0.35171 0.25928 0.0
H1662 H 0.00341 0.35911 0.28241 0.0
H1663 H 0.99179 0.39478 0.26327 0.0
C1664 C 0.09508 0.87801 0.3075 0.0
C1665 C 0.08287 0.91025 0.31669 0.0
C1666 C 0.09181 0.8708 0.284 0.0
C1667 C 0.07639 0.8966 0.26934 0.0
C1668 C 0.06315 0.92868 0.27864 0.0
C1669 C 0.06624 0.93492 0.30211 0.0
C1670 C 0.10553 0.83595 0.27476 0.0
C1671 C 0.04662 0.957 0.26369 0.0
C1672 C 0.09772 0.89858 0.20575 0.0
C1673 C 0.06623 0.88498 0.19629 0.0
C1674 C 0.10177 0.90175 0.22955 0.0
C1675 C 0.07394 0.89049 0.24423 0.0
C1676 C 0.04253 0.87589 0.23477 0.0
C1677 C 0.03894 0.87361 0.211 0.0
C1678 C 0.13545 0.91802 0.23896 0.0
C1679 C 0.0124 0.86317 0.24976 0.0
H1680 H 0.10803 0.85881 0.31853 0.0
H1681 H 0.05654 0.95992 0.30891 0.0
H1682 H 0.08435 0.82231 0.26488 0.0
H1683 H 0.12799 0.84098 0.26291 0.0
H1684 H 0.11485 0.81784 0.28851 0.0
H1685 H 0.03756 0.98048 0.27361 0.0
H1686 H 0.06622 0.96605 0.25078 0.0
H1687 H 0.02347 0.94592 0.25434 0.0
H1688 H 0.11896 0.9073 0.19456 0.0
H1689 H 0.01464 0.86261 0.20393 0.0
H1690 H 0.14788 0.89974 0.25151 0.0
H1691 H 0.12897 0.94305 0.24809 0.0
H1692 H 0.15517 0.92407 0.22538 0.0
H1693 H 0.02254 0.84422 0.26275 0.0
H1694 H 0.99097 0.84992 0.23984 0.0
H1695 H 0.00066 0.88605 0.25903 0.0
C1696 C 0.4132 0.88878 0.81195 0.0
C1697 C 0.40852 0.92283 0.82127 0.0
C1698 C 0.41678 0.88402 0.7882 0.0
C1699 C 0.41499 0.91392 0.77343 0.0
C1700 C 0.40995 0.94821 0.78276 0.0
C1701 C 0.40705 0.95224 0.80644 0.0
C1702 C 0.4227 0.84708 0.77889 0.0
C1703 C 0.40742 0.98079 0.76771 0.0
C1704 C 0.45774 0.91207 0.7147 0.0
C1705 C 0.42845 0.90584 0.7003 0.0
C1706 C 0.45379 0.91384 0.73847 0.0
C1707 C 0.41959 0.90989 0.74826 0.0
C1708 C 0.38977 0.90415 0.73389 0.0
C1709 C 0.39457 0.90194 0.7101 0.0
C1710 C 0.48633 0.91982 0.75313 0.0
C1711 C 0.35277 0.90051 0.74364 0.0
H1712 H 0.41418 0.8659 0.8232 0.0
H1713 H 0.4028 0.97866 0.81328 0.0
H1714 H 0.40124 0.8402 0.76666 0.0
H1715 H 0.44823 0.84615 0.7694 0.0
H1716 H 0.42336 0.8266 0.79256 0.0
H1717 H 0.40228 0.00546 0.77761 0.0
H1718 H 0.43254 0.9843 0.75804 0.0
H1719 H 0.3857 0.97737 0.75507 0.0
H1720 H 0.48414 0.91484 0.70745 0.0
H1721 H 0.3718 0.89696 0.69921 0.0
H1722 H 0.48871 0.89826 0.76597 0.0
H1723 H 0.4837 0.94525 0.76257 0.0
H1724 H 0.51126 0.92075 0.74295 0.0
H1725 H 0.35193 0.87814 0.75598 0.0
H1726 H 0.33241 0.89577 0.73023 0.0
H1727 H 0.34558 0.92504 0.7531 0.0
C1728 C 0.62448 0.43082 0.69925 0.0
C1729 C 0.60044 0.41014 0.68667 0.0
C1730 C 0.62522 0.42943 0.72311 0.0
C1731 C 0.6008 0.40726 0.73473 0.0
C1732 C 0.57728 0.38524 0.72203 0.0
C1733 C 0.57754 0.38676 0.69801 0.0
C1734 C 0.651 0.453 0.73587 0.0
C1735 C 0.55071 0.36142 0.73384 0.0
C1736 C 0.61217 0.38937 0.79837 0.0
C1737 C 0.58731 0.41309 0.80772 0.0
C1738 C 0.61737 0.38746 0.77462 0.0
C1739 C 0.59745 0.40997 0.76 0.0
C1740 C 0.57389 0.43534 0.76951 0.0
C1741 C 0.56908 0.43652 0.7932 0.0
C1742 C 0.64295 0.36029 0.76513 0.0
C1743 C 0.55261 0.46033 0.75461 0.0
H1744 H 0.64232 0.44878 0.69033 0.0
H1745 H 0.55894 0.3709 0.68819 0.0
H1746 H 0.63611 0.4743 0.74482 0.0
H1747 H 0.66548 0.43745 0.74902 0.0
H1748 H 0.67076 0.46566 0.72434 0.0
H1749 H 0.53636 0.34389 0.72166 0.0
H1750 H 0.56428 0.3446 0.74674 0.0
H1751 H 0.53087 0.37797 0.743 0.0
H1752 H 0.62601 0.37088 0.80946 0.0
H1753 H 0.54988 0.45496 0.80033 0.0
H1754 H 0.66176 0.37308 0.75306 0.0
H1755 H 0.62793 0.33985 0.75545 0.0
H1756 H 0.65847 0.34678 0.77875 0.0
H1757 H 0.57066 0.4758 0.74338 0.0
H1758 H 0.53633 0.47928 0.76473 0.0
H1759 H 0.53456 0.44478 0.74342 0.0
C1760 C 0.03573 0.5865 0.72012 0.0
C1761 C 0.06528 0.58804 0.70543 0.0
C1762 C 0.03995 0.58345 0.74386 0.0
C1763 C 0.07458 0.58159 0.75331 0.0
C1764 C 0.10454 0.58244 0.73861 0.0
C1765 C 0.09955 0.58575 0.71489 0.0
C1766 C 0.00728 0.58267 0.75886 0.0
C1767 C 0.14191 0.58013 0.74797 0.0
C1768 C 0.08855 0.60472 0.81614 0.0
C1769 C 0.09034 0.57086 0.82622 0.0
C1770 C 0.08306 0.60866 0.79249 0.0
C1771 C 0.07939 0.57806 0.77854 0.0
C1772 C 0.08041 0.5439 0.78869 0.0
C1773 C 0.08573 0.54074 0.81231 0.0
C1774 C 0.08176 0.64557 0.78236 0.0
C1775 C 0.0766 0.51057 0.77452 0.0
H1776 H 0.00908 0.58835 0.71312 0.0
H1777 H 0.12258 0.58703 0.70379 0.0
H1778 H 0.00676 0.55774 0.769 0.0
H1779 H 0.00813 0.60514 0.77111 0.0
H1780 H 0.9822 0.58448 0.74887 0.0
H1781 H 0.16238 0.58081 0.7343 0.0
H1782 H 0.14686 0.60258 0.75983 0.0
H1783 H 0.14517 0.55517 0.75787 0.0
H1784 H 0.09216 0.62817 0.82664 0.0
H1785 H 0.08696 0.51439 0.8198 0.0
H1786 H 0.05646 0.64936 0.77288 0.0
H1787 H 0.10381 0.64896 0.76996 0.0
H1788 H 0.08396 0.66666 0.79555 0.0
H1789 H 0.05107 0.51109 0.76501 0.0
H1790 H 0.07744 0.48599 0.78505 0.0
H1791 H 0.09831 0.5093 0.76173 0.0
C1792 C 0.88851 0.10068 0.81139 0.0
C1793 C 0.92106 0.09187 0.82174 0.0
C1794 C 0.8845 0.09952 0.7875 0.0
C1795 C 0.91384 0.08976 0.77363 0.0
C1796 C 0.94664 0.08081 0.78398 0.0
C1797 C 0.94974 0.08166 0.8078 0.0
C1798 C 0.84887 0.10852 0.7771 0.0
C1799 C 0.97863 0.07027 0.76989 0.0
C1800 C 0.90052 0.04801 0.71549 0.0
C1801 C 0.908 0.07631 0.70051 0.0
C1802 C 0.90099 0.05253 0.73917 0.0
C1803 C 0.90985 0.08609 0.74841 0.0
C1804 C 0.91724 0.11498 0.73351 0.0
C1805 C 0.91585 0.10986 0.70968 0.0
C1806 C 0.89247 0.02109 0.75432 0.0
C1807 C 0.92733 0.15104 0.74277 0.0
H1808 H 0.86625 0.10881 0.82193 0.0
H1809 H 0.97515 0.07497 0.81544 0.0
H1810 H 0.85186 0.13065 0.76472 0.0
H1811 H 0.8385 0.08524 0.76754 0.0
H1812 H 0.82891 0.11632 0.79015 0.0
H1813 H 0.00281 0.06611 0.78048 0.0
H1814 H 0.97291 0.04529 0.76052 0.0
H1815 H 0.98443 0.09112 0.75701 0.0
H1816 H 0.89377 0.02204 0.7087 0.0
H1817 H 0.92141 0.13188 0.69828 0.0
H1818 H 0.87125 0.02824 0.76664 0.0
H1819 H 0.91637 0.01357 0.76434 0.0
H1820 H 0.8836 0.99748 0.74444 0.0
H1821 H 0.90664 0.1606 0.75478 0.0
H1822 H 0.9308 0.17113 0.72904 0.0
H1823 H 0.9526 0.14893 0.75249 0.0
loop_
_geom_bond_atom_site_label_1
_geom_bond_atom_site_label_2
_geom_bond_distance
_geom_bond_site_symmetry_2
_ccdc_geom_bond_type
Co0 O3 1.970 . S
Co0 N17 1.989 . S
Co0 O25 1.967 . S
Co0 O32 1.920 . S
Co1 O4 1.966 1_565 S
Co1 N10 2.022 . S
Co1 N18 1.993 1_565 S
Co1 O26 1.941 . S
C2 O3 1.258 . S
C2 O4 1.263 . S
O3 Co0 1.970 . S
O3 C2 1.258 . S
O4 Co1 1.966 1_545 S
O4 C2 1.263 . S
C5 O6 1.235 . S
C5 O32 1.289 . S
O6 C5 1.235 . S
C7 C9 1.400 . S
C7 N10 1.351 . S
C7 C12 1.501 . S
C8 C9 1.387 . S
C8 N11 1.341 . S
C9 C7 1.400 . S
C9 C8 1.387 . S
N10 Co1 2.022 . S
N10 C7 1.351 . S
N10 N11 1.365 . S
N11 C8 1.341 . S
N11 N10 1.365 . S
N11 H31 0.862 . S
C12 C7 1.501 . S
C12 H13 0.961 . S
C12 H14 0.961 . S
C12 H15 0.960 . S
H13 C12 0.961 . S
H14 C12 0.961 . S
H15 C12 0.960 . S
C16 N17 1.342 . S
C16 C20 1.401 . S
C16 C21 1.499 . S
N17 Co0 1.989 . S
N17 C16 1.342 . S
N17 N18 1.388 . S
N18 Co1 1.993 1_545 S
N18 N17 1.388 . S
N18 C19 1.346 . S
C19 N18 1.346 . S
C19 C20 1.396 . S
C19 C29 1.510 1_545 S
C20 C16 1.401 . S
C20 C19 1.396 . S
C21 C16 1.499 . S
C21 H22 0.959 . S
C21 H23 0.960 . S
C21 H24 0.961 . S
H22 C21 0.959 . S
H23 C21 0.960 . S
H24 C21 0.961 . S
O25 Co0 1.967 . S
O25 C33 1.258 . S
O26 Co1 1.941 . S
O26 C33 1.266 1_565 S
H27 C29 0.959 . S
H28 C29 0.961 . S
C29 C19 1.510 1_565 S
C29 H27 0.959 . S
C29 H28 0.961 . S
C29 H30 0.960 . S
H30 C29 0.960 . S
H31 N11 0.862 . S
O32 Co0 1.920 . S
O32 C5 1.289 . S
C33 O25 1.258 . S
C33 O26 1.266 1_545 S
Co34 O37 1.970 . S
Co34 N51 1.989 . S
Co34 O59 1.967 . S
Co34 O66 1.920 . S
Co35 O38 1.966 . S
Co35 N44 2.022 . S
Co35 N52 1.993 . S
Co35 O60 1.941 . S
C36 O37 1.258 . S
C36 O38 1.263 . S
O37 Co34 1.970 . S
O37 C36 1.258 . S
O38 Co35 1.966 . S
O38 C36 1.263 . S
C39 O40 1.235 . S
C39 O66 1.289 . S
O40 C39 1.235 . S
C41 C43 1.400 . S
C41 N44 1.351 . S
C41 C46 1.501 . S
C42 C43 1.387 . S
C42 N45 1.341 . S
C43 C41 1.400 . S
C43 C42 1.387 . S
N44 Co35 2.022 . S
N44 C41 1.351 . S
N44 N45 1.365 . S
N45 C42 1.341 . S
N45 N44 1.365 . S
N45 H65 0.862 . S
C46 C41 1.501 . S
C46 H47 0.961 . S
C46 H48 0.961 . S
C46 H49 0.960 . S
H47 C46 0.961 . S
H48 C46 0.961 . S
H49 C46 0.960 . S
C50 N51 1.342 . S
C50 C54 1.401 . S
C50 C55 1.499 . S
N51 Co34 1.989 . S
N51 C50 1.342 . S
N51 N52 1.388 . S
N52 Co35 1.993 . S
N52 N51 1.388 . S
N52 C53 1.346 . S
C53 N52 1.346 . S
C53 C54 1.396 . S
C53 C63 1.510 . S
C54 C50 1.401 . S
C54 C53 1.396 . S
C55 C50 1.499 . S
C55 H56 0.959 . S
C55 H57 0.960 . S
C55 H58 0.961 . S
H56 C55 0.959 . S
H57 C55 0.960 . S
H58 C55 0.961 . S
O59 Co34 1.967 . S
O59 C67 1.258 . S
O60 Co35 1.941 . S
O60 C67 1.266 . S
H61 C63 0.959 . S
H62 C63 0.961 . S
C63 C53 1.510 . S
C63 H61 0.959 . S
C63 H62 0.961 . S
C63 H64 0.960 . S
H64 C63 0.960 . S
H65 N45 0.862 . S
O66 Co34 1.920 . S
O66 C39 1.289 . S
C67 O59 1.258 . S
C67 O60 1.266 . S
Co68 O71 1.970 . S
Co68 N85 1.989 . S
Co68 O93 1.967 . S
Co68 O100 1.920 . S
Co69 O72 1.966 . S
Co69 N78 2.022 . S
Co69 N86 1.993 . S
Co69 O94 1.941 . S
C70 O71 1.258 . S
C70 O72 1.263 . S
O71 Co68 1.970 . S
O71 C70 1.258 . S
O72 Co69 1.966 . S
O72 C70 1.263 . S
C73 O74 1.235 . S
C73 O100 1.289 . S
O74 C73 1.235 . S
C75 C77 1.400 . S
C75 N78 1.351 . S
C75 C80 1.501 . S
C76 C77 1.387 . S
C76 N79 1.341 . S
C77 C75 1.400 . S
C77 C76 1.387 . S
N78 Co69 2.022 . S
N78 C75 1.351 . S
N78 N79 1.365 . S
N79 C76 1.341 . S
N79 N78 1.365 . S
N79 H99 0.862 . S
C80 C75 1.501 . S
C80 H81 0.961 . S
C80 H82 0.961 . S
C80 H83 0.960 . S
H81 C80 0.961 . S
H82 C80 0.961 . S
H83 C80 0.960 . S
C84 N85 1.342 . S
C84 C88 1.401 . S
C84 C89 1.499 . S
N85 Co68 1.989 . S
N85 C84 1.342 . S
N85 N86 1.388 . S
N86 Co69 1.993 . S
N86 N85 1.388 . S
N86 C87 1.346 . S
C87 N86 1.346 . S
C87 C88 1.396 . S
C87 C97 1.510 . S
C88 C84 1.401 . S
C88 C87 1.396 . S
C89 C84 1.499 . S
C89 H90 0.959 . S
C89 H91 0.960 . S
C89 H92 0.961 . S
H90 C89 0.959 . S
H91 C89 0.960 . S
H92 C89 0.961 . S
O93 Co68 1.967 . S
O93 C101 1.258 . S
O94 Co69 1.941 . S
O94 C101 1.266 . S
H95 C97 0.959 . S
H96 C97 0.961 . S
C97 C87 1.510 . S
C97 H95 0.959 . S
C97 H96 0.961 . S
C97 H98 0.960 . S
H98 C97 0.960 . S
H99 N79 0.862 . S
O100 Co68 1.920 . S
O100 C73 1.289 . S
C101 O93 1.258 . S
C101 O94 1.266 . S
Co102 O105 1.970 . S
Co102 N119 1.989 . S
Co102 O127 1.967 . S
Co102 O134 1.920 . S
Co103 O106 1.966 1_655 S
Co103 N112 2.022 . S
Co103 N120 1.993 1_655 S
Co103 O128 1.941 . S
C104 O105 1.258 . S
C104 O106 1.263 . S
O105 Co102 1.970 . S
O105 C104 1.258 . S
O106 Co103 1.966 1_455 S
O106 C104 1.263 . S
C107 O108 1.235 . S
C107 O134 1.289 . S
O108 C107 1.235 . S
C109 C111 1.400 . S
C109 N112 1.351 . S
C109 C114 1.501 . S
C110 C111 1.387 . S
C110 N113 1.341 . S
C111 C109 1.400 . S
C111 C110 1.387 . S
N112 Co103 2.022 . S
N112 C109 1.351 . S
N112 N113 1.365 . S
N113 C110 1.341 . S
N113 N112 1.365 . S
N113 H133 0.862 . S
C114 C109 1.501 . S
C114 H115 0.961 . S
C114 H116 0.961 . S
C114 H117 0.960 . S
H115 C114 0.961 . S
H116 C114 0.961 . S
H117 C114 0.960 . S
C118 N119 1.342 . S
C118 C122 1.401 . S
C118 C123 1.499 . S
N119 Co102 1.989 . S
N119 C118 1.342 . S
N119 N120 1.388 . S
N120 Co103 1.993 1_455 S
N120 N119 1.388 . S
N120 C121 1.346 . S
C121 N120 1.346 . S
C121 C122 1.396 . S
C121 C131 1.510 1_455 S
C122 C118 1.401 . S
C122 C121 1.396 . S
C123 C118 1.499 . S
C123 H124 0.959 . S
C123 H125 0.960 . S
C123 H126 0.961 . S
H124 C123 0.959 . S
H125 C123 0.960 . S
H126 C123 0.961 . S
O127 Co102 1.967 . S
O127 C135 1.258 . S
O128 Co103 1.941 . S
O128 C135 1.266 1_655 S
H129 C131 0.959 . S
H130 C131 0.961 . S
C131 C121 1.510 1_655 S
C131 H129 0.959 . S
C131 H130 0.961 . S
C131 H132 0.960 . S
H132 C131 0.960 . S
H133 N113 0.862 . S
O134 Co102 1.920 . S
O134 C107 1.289 . S
C135 O127 1.258 . S
C135 O128 1.266 1_455 S
Co136 O139 1.970 . S
Co136 N153 1.989 . S
Co136 O161 1.967 . S
Co136 O168 1.920 . S
Co137 O140 1.966 1_545 S
Co137 N146 2.022 . S
Co137 N154 1.993 1_545 S
Co137 O162 1.941 . S
C138 O139 1.258 . S
C138 O140 1.263 . S
O139 Co136 1.970 . S
O139 C138 1.258 . S
O140 Co137 1.966 1_565 S
O140 C138 1.263 . S
C141 O142 1.235 . S
C141 O168 1.289 . S
O142 C141 1.235 . S
C143 C145 1.400 . S
C143 N146 1.351 . S
C143 C148 1.501 . S
C144 C145 1.387 . S
C144 N147 1.341 . S
C145 C143 1.400 . S
C145 C144 1.387 . S
N146 Co137 2.022 . S
N146 C143 1.351 . S
N146 N147 1.365 . S
N147 C144 1.341 . S
N147 N146 1.365 . S
N147 H167 0.862 . S
C148 C143 1.501 . S
C148 H149 0.961 . S
C148 H150 0.961 . S
C148 H151 0.960 . S
H149 C148 0.961 . S
H150 C148 0.961 . S
H151 C148 0.960 . S
C152 N153 1.342 . S
C152 C156 1.401 . S
C152 C157 1.499 . S
N153 Co136 1.989 . S
N153 C152 1.342 . S
N153 N154 1.388 . S
N154 Co137 1.993 1_565 S
N154 N153 1.388 . S
N154 C155 1.346 . S
C155 N154 1.346 . S
C155 C156 1.396 . S
C155 C165 1.510 1_565 S
C156 C152 1.401 . S
C156 C155 1.396 . S
C157 C152 1.499 . S
C157 H158 0.959 . S
C157 H159 0.960 . S
C157 H160 0.961 . S
H158 C157 0.959 . S
H159 C157 0.960 . S
H160 C157 0.961 . S
O161 Co136 1.967 . S
O161 C169 1.258 . S
O162 Co137 1.941 . S
O162 C169 1.266 1_545 S
H163 C165 0.959 . S
H164 C165 0.961 . S
C165 C155 1.510 1_545 S
C165 H163 0.959 . S
C165 H164 0.961 . S
C165 H166 0.960 . S
H166 C165 0.960 . S
H167 N147 0.862 . S
O168 Co136 1.920 . S
O168 C141 1.289 . S
C169 O161 1.258 . S
C169 O162 1.266 1_565 S
Co170 O173 1.970 . S
Co170 N187 1.989 . S
Co170 O195 1.967 . S
Co170 O202 1.920 . S
Co171 O174 1.966 . S
Co171 N180 2.022 . S
Co171 N188 1.993 . S
Co171 O196 1.941 . S
C172 O173 1.258 . S
C172 O174 1.263 . S
O173 Co170 1.970 . S
O173 C172 1.258 . S
O174 Co171 1.966 . S
O174 C172 1.263 . S
C175 O176 1.235 . S
C175 O202 1.289 . S
O176 C175 1.235 . S
C177 C179 1.400 . S
C177 N180 1.351 . S
C177 C182 1.501 . S
C178 C179 1.387 . S
C178 N181 1.341 . S
C179 C177 1.400 . S
C179 C178 1.387 . S
N180 Co171 2.022 . S
N180 C177 1.351 . S
N180 N181 1.365 . S
N181 C178 1.341 . S
N181 N180 1.365 . S
N181 H201 0.862 . S
C182 C177 1.501 . S
C182 H183 0.961 . S
C182 H184 0.961 . S
C182 H185 0.960 . S
H183 C182 0.961 . S
H184 C182 0.961 . S
H185 C182 0.960 . S
C186 N187 1.342 . S
C186 C190 1.401 . S
C186 C191 1.499 . S
N187 Co170 1.989 . S
N187 C186 1.342 . S
N187 N188 1.388 . S
N188 Co171 1.993 . S
N188 N187 1.388 . S
N188 C189 1.346 . S
C189 N188 1.346 . S
C189 C190 1.396 . S
C189 C199 1.510 . S
C190 C186 1.401 . S
C190 C189 1.396 . S
C191 C186 1.499 . S
C191 H192 0.959 . S
C191 H193 0.960 . S
C191 H194 0.961 . S
H192 C191 0.959 . S
H193 C191 0.960 . S
H194 C191 0.961 . S
O195 Co170 1.967 . S
O195 C203 1.258 . S
O196 Co171 1.941 . S
O196 C203 1.266 . S
H197 C199 0.959 . S
H198 C199 0.961 . S
C199 C189 1.510 . S
C199 H197 0.959 . S
C199 H198 0.961 . S
C199 H200 0.960 . S
H200 C199 0.960 . S
H201 N181 0.862 . S
O202 Co170 1.920 . S
O202 C175 1.289 . S
C203 O195 1.258 . S
C203 O196 1.266 . S
Co204 O207 1.970 . S
Co204 N221 1.989 . S
Co204 O229 1.967 . S
Co204 O236 1.920 . S
Co205 O208 1.966 . S
Co205 N214 2.022 . S
Co205 N222 1.993 . S
Co205 O230 1.941 . S
C206 O207 1.258 . S
C206 O208 1.263 . S
O207 Co204 1.970 . S
O207 C206 1.258 . S
O208 Co205 1.966 . S
O208 C206 1.263 . S
C209 O210 1.235 . S
C209 O236 1.289 . S
O210 C209 1.235 . S
C211 C213 1.400 . S
C211 N214 1.351 . S
C211 C216 1.501 . S
C212 C213 1.387 . S
C212 N215 1.341 . S
C213 C211 1.400 . S
C213 C212 1.387 . S
N214 Co205 2.022 . S
N214 C211 1.351 . S
N214 N215 1.365 . S
N215 C212 1.341 . S
N215 N214 1.365 . S
N215 H235 0.862 . S
C216 C211 1.501 . S
C216 H217 0.961 . S
C216 H218 0.961 . S
C216 H219 0.960 . S
H217 C216 0.961 . S
H218 C216 0.961 . S
H219 C216 0.960 . S
C220 N221 1.342 . S
C220 C224 1.401 . S
C220 C225 1.499 . S
N221 Co204 1.989 . S
N221 C220 1.342 . S
N221 N222 1.388 . S
N222 Co205 1.993 . S
N222 N221 1.388 . S
N222 C223 1.346 . S
C223 N222 1.346 . S
C223 C224 1.396 . S
C223 C233 1.510 . S
C224 C220 1.401 . S
C224 C223 1.396 . S
C225 C220 1.499 . S
C225 H226 0.959 . S
C225 H227 0.960 . S
C225 H228 0.961 . S
H226 C225 0.959 . S
H227 C225 0.960 . S
H228 C225 0.961 . S
O229 Co204 1.967 . S
O229 C237 1.258 . S
O230 Co205 1.941 . S
O230 C237 1.266 . S
H231 C233 0.959 . S
H232 C233 0.961 . S
C233 C223 1.510 . S
C233 H231 0.959 . S
C233 H232 0.961 . S
C233 H234 0.960 . S
H234 C233 0.960 . S
H235 N215 0.862 . S
O236 Co204 1.920 . S
O236 C209 1.289 . S
C237 O229 1.258 . S
C237 O230 1.266 . S
Co238 O241 1.970 . S
Co238 N255 1.989 . S
Co238 O263 1.967 . S
Co238 O270 1.920 . S
Co239 O242 1.966 1_455 S
Co239 N248 2.022 . S
Co239 N256 1.993 1_455 S
Co239 O264 1.941 . S
C240 O241 1.258 . S
C240 O242 1.263 . S
O241 Co238 1.970 . S
O241 C240 1.258 . S
O242 Co239 1.966 1_655 S
O242 C240 1.263 . S
C243 O244 1.235 . S
C243 O270 1.289 . S
O244 C243 1.235 . S
C245 C247 1.400 . S
C245 N248 1.351 . S
C245 C250 1.501 . S
C246 C247 1.387 . S
C246 N249 1.341 . S
C247 C245 1.400 . S
C247 C246 1.387 . S
N248 Co239 2.022 . S
N248 C245 1.351 . S
N248 N249 1.365 . S
N249 C246 1.341 . S
N249 N248 1.365 . S
N249 H269 0.862 . S
C250 C245 1.501 . S
C250 H251 0.961 . S
C250 H252 0.961 . S
C250 H253 0.960 . S
H251 C250 0.961 . S
H252 C250 0.961 . S
H253 C250 0.960 . S
C254 N255 1.342 . S
C254 C258 1.401 . S
C254 C259 1.499 . S
N255 Co238 1.989 . S
N255 C254 1.342 . S
N255 N256 1.388 . S
N256 Co239 1.993 1_655 S
N256 N255 1.388 . S
N256 C257 1.346 . S
C257 N256 1.346 . S
C257 C258 1.396 . S
C257 C267 1.510 1_655 S
C258 C254 1.401 . S
C258 C257 1.396 . S
C259 C254 1.499 . S
C259 H260 0.959 . S
C259 H261 0.960 . S
C259 H262 0.961 . S
H260 C259 0.959 . S
H261 C259 0.960 . S
H262 C259 0.961 . S
O263 Co238 1.967 . S
O263 C271 1.258 . S
O264 Co239 1.941 . S
O264 C271 1.266 1_455 S
H265 C267 0.959 . S
H266 C267 0.961 . S
C267 C257 1.510 1_455 S
C267 H265 0.959 . S
C267 H266 0.961 . S
C267 H268 0.960 . S
H268 C267 0.960 . S
H269 N249 0.862 . S
O270 Co238 1.920 . S
O270 C243 1.289 . S
C271 O263 1.258 . S
C271 O264 1.266 1_655 S
Co272 O275 1.970 . S
Co272 N289 1.989 . S
Co272 O297 1.967 . S
Co272 O304 1.920 . S
Co273 O276 1.966 1_545 S
Co273 N282 2.022 . S
Co273 N290 1.993 1_545 S
Co273 O298 1.941 . S
C274 O275 1.258 . S
C274 O276 1.263 . S
O275 Co272 1.970 . S
O275 C274 1.258 . S
O276 Co273 1.966 1_565 S
O276 C274 1.263 . S
C277 O278 1.235 . S
C277 O304 1.289 . S
O278 C277 1.235 . S
C279 C281 1.400 . S
C279 N282 1.351 . S
C279 C284 1.501 . S
C280 C281 1.387 . S
C280 N283 1.341 . S
C281 C279 1.400 . S
C281 C280 1.387 . S
N282 Co273 2.022 . S
N282 C279 1.351 . S
N282 N283 1.365 . S
N283 C280 1.341 . S
N283 N282 1.365 . S
N283 H303 0.862 . S
C284 C279 1.501 . S
C284 H285 0.961 . S
C284 H286 0.961 . S
C284 H287 0.960 . S
H285 C284 0.961 . S
H286 C284 0.961 . S
H287 C284 0.960 . S
C288 N289 1.342 . S
C288 C292 1.401 . S
C288 C293 1.499 . S
N289 Co272 1.989 . S
N289 C288 1.342 . S
N289 N290 1.388 . S
N290 Co273 1.993 1_565 S
N290 N289 1.388 . S
N290 C291 1.346 . S
C291 N290 1.346 . S
C291 C292 1.396 . S
C291 C301 1.510 1_565 S
C292 C288 1.401 . S
C292 C291 1.396 . S
C293 C288 1.499 . S
C293 H294 0.959 . S
C293 H295 0.960 . S
C293 H296 0.961 . S
H294 C293 0.959 . S
H295 C293 0.960 . S
H296 C293 0.961 . S
O297 Co272 1.967 . S
O297 C305 1.258 . S
O298 Co273 1.941 . S
O298 C305 1.266 1_545 S
H299 C301 0.959 . S
H300 C301 0.961 . S
C301 C291 1.510 1_545 S
C301 H299 0.959 . S
C301 H300 0.961 . S
C301 H302 0.960 . S
H302 C301 0.960 . S
H303 N283 0.862 . S
O304 Co272 1.920 . S
O304 C277 1.289 . S
C305 O297 1.258 . S
C305 O298 1.266 1_565 S
Co306 O309 1.970 . S
Co306 N323 1.989 . S
Co306 O331 1.967 . S
Co306 O338 1.920 . S
Co307 O310 1.966 . S
Co307 N316 2.022 . S
Co307 N324 1.993 . S
Co307 O332 1.941 . S
C308 O309 1.258 . S
C308 O310 1.263 . S
O309 Co306 1.970 . S
O309 C308 1.258 . S
O310 Co307 1.966 . S
O310 C308 1.263 . S
C311 O312 1.235 . S
C311 O338 1.289 . S
O312 C311 1.235 . S
C313 C315 1.400 . S
C313 N316 1.351 . S
C313 C318 1.501 . S
C314 C315 1.387 . S
C314 N317 1.341 . S
C315 C313 1.400 . S
C315 C314 1.387 . S
N316 Co307 2.022 . S
N316 C313 1.351 . S
N316 N317 1.365 . S
N317 C314 1.341 . S
N317 N316 1.365 . S
N317 H337 0.862 . S
C318 C313 1.501 . S
C318 H319 0.961 . S
C318 H320 0.961 . S
C318 H321 0.960 . S
H319 C318 0.961 . S
H320 C318 0.961 . S
H321 C318 0.960 . S
C322 N323 1.342 . S
C322 C326 1.401 . S
C322 C327 1.499 . S
N323 Co306 1.989 . S
N323 C322 1.342 . S
N323 N324 1.388 . S
N324 Co307 1.993 . S
N324 N323 1.388 . S
N324 C325 1.346 . S
C325 N324 1.346 . S
C325 C326 1.396 . S
C325 C335 1.510 . S
C326 C322 1.401 . S
C326 C325 1.396 . S
C327 C322 1.499 . S
C327 H328 0.959 . S
C327 H329 0.960 . S
C327 H330 0.961 . S
H328 C327 0.959 . S
H329 C327 0.960 . S
H330 C327 0.961 . S
O331 Co306 1.967 . S
O331 C339 1.258 . S
O332 Co307 1.941 . S
O332 C339 1.266 . S
H333 C335 0.959 . S
H334 C335 0.961 . S
C335 C325 1.510 . S
C335 H333 0.959 . S
C335 H334 0.961 . S
C335 H336 0.960 . S
H336 C335 0.960 . S
H337 N317 0.862 . S
O338 Co306 1.920 . S
O338 C311 1.289 . S
C339 O331 1.258 . S
C339 O332 1.266 . S
Co340 O343 1.970 . S
Co340 N357 1.989 . S
Co340 O365 1.967 . S
Co340 O372 1.920 . S
Co341 O344 1.966 . S
Co341 N350 2.022 . S
Co341 N358 1.993 . S
Co341 O366 1.941 . S
C342 O343 1.258 . S
C342 O344 1.263 . S
O343 Co340 1.970 . S
O343 C342 1.258 . S
O344 Co341 1.966 . S
O344 C342 1.263 . S
C345 O346 1.235 . S
C345 O372 1.289 . S
O346 C345 1.235 . S
C347 C349 1.400 . S
C347 N350 1.351 . S
C347 C352 1.501 . S
C348 C349 1.387 . S
C348 N351 1.341 . S
C349 C347 1.400 . S
C349 C348 1.387 . S
N350 Co341 2.022 . S
N350 C347 1.351 . S
N350 N351 1.365 . S
N351 C348 1.341 . S
N351 N350 1.365 . S
N351 H371 0.862 . S
C352 C347 1.501 . S
C352 H353 0.961 . S
C352 H354 0.961 . S
C352 H355 0.960 . S
H353 C352 0.961 . S
H354 C352 0.961 . S
H355 C352 0.960 . S
C356 N357 1.342 . S
C356 C360 1.401 . S
C356 C361 1.499 . S
N357 Co340 1.989 . S
N357 C356 1.342 . S
N357 N358 1.388 . S
N358 Co341 1.993 . S
N358 N357 1.388 . S
N358 C359 1.346 . S
C359 N358 1.346 . S
C359 C360 1.396 . S
C359 C369 1.510 . S
C360 C356 1.401 . S
C360 C359 1.396 . S
C361 C356 1.499 . S
C361 H362 0.959 . S
C361 H363 0.960 . S
C361 H364 0.961 . S
H362 C361 0.959 . S
H363 C361 0.960 . S
H364 C361 0.961 . S
O365 Co340 1.967 . S
O365 C373 1.258 . S
O366 Co341 1.941 . S
O366 C373 1.266 . S
H367 C369 0.959 . S
H368 C369 0.961 . S
C369 C359 1.510 . S
C369 H367 0.959 . S
C369 H368 0.961 . S
C369 H370 0.960 . S
H370 C369 0.960 . S
H371 N351 0.862 . S
O372 Co340 1.920 . S
O372 C345 1.289 . S
C373 O365 1.258 . S
C373 O366 1.266 . S
Co374 O377 1.970 . S
Co374 N391 1.989 . S
Co374 O399 1.967 . S
Co374 O406 1.920 . S
Co375 O378 1.966 1_455 S
Co375 N384 2.022 . S
Co375 N392 1.993 1_455 S
Co375 O400 1.941 . S
C376 O377 1.258 . S
C376 O378 1.263 . S
O377 Co374 1.970 . S
O377 C376 1.258 . S
O378 Co375 1.966 1_655 S
O378 C376 1.263 . S
C379 O380 1.235 . S
C379 O406 1.289 . S
O380 C379 1.235 . S
C381 C383 1.400 . S
C381 N384 1.351 . S
C381 C386 1.501 . S
C382 C383 1.387 . S
C382 N385 1.341 . S
C383 C381 1.400 . S
C383 C382 1.387 . S
N384 Co375 2.022 . S
N384 C381 1.351 . S
N384 N385 1.365 . S
N385 C382 1.341 . S
N385 N384 1.365 . S
N385 H405 0.862 . S
C386 C381 1.501 . S
C386 H387 0.961 . S
C386 H388 0.961 . S
C386 H389 0.960 . S
H387 C386 0.961 . S
H388 C386 0.961 . S
H389 C386 0.960 . S
C390 N391 1.342 . S
C390 C394 1.401 . S
C390 C395 1.499 . S
N391 Co374 1.989 . S
N391 C390 1.342 . S
N391 N392 1.388 . S
N392 Co375 1.993 1_655 S
N392 N391 1.388 . S
N392 C393 1.346 . S
C393 N392 1.346 . S
C393 C394 1.396 . S
C393 C403 1.510 1_655 S
C394 C390 1.401 . S
C394 C393 1.396 . S
C395 C390 1.499 . S
C395 H396 0.959 . S
C395 H397 0.960 . S
C395 H398 0.961 . S
H396 C395 0.959 . S
H397 C395 0.960 . S
H398 C395 0.961 . S
O399 Co374 1.967 . S
O399 C407 1.258 . S
O400 Co375 1.941 . S
O400 C407 1.266 1_455 S
H401 C403 0.959 . S
H402 C403 0.961 . S
C403 C393 1.510 1_455 S
C403 H401 0.959 . S
C403 H402 0.961 . S
C403 H404 0.960 . S
H404 C403 0.960 . S
H405 N385 0.862 . S
O406 Co374 1.920 . S
O406 C379 1.289 . S
C407 O399 1.258 . S
C407 O400 1.266 1_655 S
Co408 O411 1.970 . S
Co408 N425 1.989 . S
Co408 O433 1.967 . S
Co408 O440 1.920 . S
Co409 O412 1.966 1_565 S
Co409 N418 2.022 . S
Co409 N426 1.993 1_565 S
Co409 O434 1.941 . S
C410 O411 1.258 . S
C410 O412 1.263 . S
O411 Co408 1.970 . S
O411 C410 1.258 . S
O412 Co409 1.966 1_545 S
O412 C410 1.263 . S
C413 O414 1.235 . S
C413 O440 1.289 . S
O414 C413 1.235 . S
C415 C417 1.400 . S
C415 N418 1.351 . S
C415 C420 1.501 . S
C416 C417 1.387 . S
C416 N419 1.341 . S
C417 C415 1.400 . S
C417 C416 1.387 . S
N418 Co409 2.022 . S
N418 C415 1.351 . S
N418 N419 1.365 . S
N419 C416 1.341 . S
N419 N418 1.365 . S
N419 H439 0.862 . S
C420 C415 1.501 . S
C420 H421 0.961 . S
C420 H422 0.961 . S
C420 H423 0.960 . S
H421 C420 0.961 . S
H422 C420 0.961 . S
H423 C420 0.960 . S
C424 N425 1.342 . S
C424 C428 1.401 . S
C424 C429 1.499 . S
N425 Co408 1.989 . S
N425 C424 1.342 . S
N425 N426 1.388 . S
N426 Co409 1.993 1_545 S
N426 N425 1.388 . S
N426 C427 1.346 . S
C427 N426 1.346 . S
C427 C428 1.396 . S
C427 C437 1.510 1_545 S
C428 C424 1.401 . S
C428 C427 1.396 . S
C429 C424 1.499 . S
C429 H430 0.959 . S
C429 H431 0.960 . S
C429 H432 0.961 . S
H430 C429 0.959 . S
H431 C429 0.960 . S
H432 C429 0.961 . S
O433 Co408 1.967 . S
O433 C441 1.258 . S
O434 Co409 1.941 . S
O434 C441 1.266 1_565 S
H435 C437 0.959 . S
H436 C437 0.961 . S
C437 C427 1.510 1_565 S
C437 H435 0.959 . S
C437 H436 0.961 . S
C437 H438 0.960 . S
H438 C437 0.960 . S
H439 N419 0.862 . S
O440 Co408 1.920 . S
O440 C413 1.289 . S
C441 O433 1.258 . S
C441 O434 1.266 1_545 S
Co442 O445 1.970 . S
Co442 N459 1.989 . S
Co442 O467 1.967 . S
Co442 O474 1.920 . S
Co443 O446 1.966 . S
Co443 N452 2.022 . S
Co443 N460 1.993 . S
Co443 O468 1.941 . S
C444 O445 1.258 . S
C444 O446 1.263 . S
O445 Co442 1.970 . S
O445 C444 1.258 . S
O446 Co443 1.966 . S
O446 C444 1.263 . S
C447 O448 1.235 . S
C447 O474 1.289 . S
O448 C447 1.235 . S
C449 C451 1.400 . S
C449 N452 1.351 . S
C449 C454 1.501 . S
C450 C451 1.387 . S
C450 N453 1.341 . S
C451 C449 1.400 . S
C451 C450 1.387 . S
N452 Co443 2.022 . S
N452 C449 1.351 . S
N452 N453 1.365 . S
N453 C450 1.341 . S
N453 N452 1.365 . S
N453 H473 0.862 . S
C454 C449 1.501 . S
C454 H455 0.961 . S
C454 H456 0.961 . S
C454 H457 0.960 . S
H455 C454 0.961 . S
H456 C454 0.961 . S
H457 C454 0.960 . S
C458 N459 1.342 . S
C458 C462 1.401 . S
C458 C463 1.499 . S
N459 Co442 1.989 . S
N459 C458 1.342 . S
N459 N460 1.388 . S
N460 Co443 1.993 . S
N460 N459 1.388 . S
N460 C461 1.346 . S
C461 N460 1.346 . S
C461 C462 1.396 . S
C461 C471 1.510 . S
C462 C458 1.401 . S
C462 C461 1.396 . S
C463 C458 1.499 . S
C463 H464 0.959 . S
C463 H465 0.960 . S
C463 H466 0.961 . S
H464 C463 0.959 . S
H465 C463 0.960 . S
H466 C463 0.961 . S
O467 Co442 1.967 . S
O467 C475 1.258 . S
O468 Co443 1.941 . S
O468 C475 1.266 . S
H469 C471 0.959 . S
H470 C471 0.961 . S
C471 C461 1.510 . S
C471 H469 0.959 . S
C471 H470 0.961 . S
C471 H472 0.960 . S
H472 C471 0.960 . S
H473 N453 0.862 . S
O474 Co442 1.920 . S
O474 C447 1.289 . S
C475 O467 1.258 . S
C475 O468 1.266 . S
Co476 O479 1.970 . S
Co476 N493 1.989 . S
Co476 O501 1.967 . S
Co476 O508 1.920 . S
Co477 O480 1.966 . S
Co477 N486 2.022 . S
Co477 N494 1.993 . S
Co477 O502 1.941 . S
C478 O479 1.258 . S
C478 O480 1.263 . S
O479 Co476 1.970 . S
O479 C478 1.258 . S
O480 Co477 1.966 . S
O480 C478 1.263 . S
C481 O482 1.235 . S
C481 O508 1.289 . S
O482 C481 1.235 . S
C483 C485 1.400 . S
C483 N486 1.351 . S
C483 C488 1.501 . S
C484 C485 1.387 . S
C484 N487 1.341 . S
C485 C483 1.400 . S
C485 C484 1.387 . S
N486 Co477 2.022 . S
N486 C483 1.351 . S
N486 N487 1.365 . S
N487 C484 1.341 . S
N487 N486 1.365 . S
N487 H507 0.862 . S
C488 C483 1.501 . S
C488 H489 0.961 . S
C488 H490 0.961 . S
C488 H491 0.960 . S
H489 C488 0.961 . S
H490 C488 0.961 . S
H491 C488 0.960 . S
C492 N493 1.342 . S
C492 C496 1.401 . S
C492 C497 1.499 . S
N493 Co476 1.989 . S
N493 C492 1.342 . S
N493 N494 1.388 . S
N494 Co477 1.993 . S
N494 N493 1.388 . S
N494 C495 1.346 . S
C495 N494 1.346 . S
C495 C496 1.396 . S
C495 C505 1.510 . S
C496 C492 1.401 . S
C496 C495 1.396 . S
C497 C492 1.499 . S
C497 H498 0.959 . S
C497 H499 0.960 . S
C497 H500 0.961 . S
H498 C497 0.959 . S
H499 C497 0.960 . S
H500 C497 0.961 . S
O501 Co476 1.967 . S
O501 C509 1.258 . S
O502 Co477 1.941 . S
O502 C509 1.266 . S
H503 C505 0.959 . S
H504 C505 0.961 . S
C505 C495 1.510 . S
C505 H503 0.959 . S
C505 H504 0.961 . S
C505 H506 0.960 . S
H506 C505 0.960 . S
H507 N487 0.862 . S
O508 Co476 1.920 . S
O508 C481 1.289 . S
C509 O501 1.258 . S
C509 O502 1.266 . S
Co510 O513 1.970 . S
Co510 N527 1.989 . S
Co510 O535 1.967 . S
Co510 O542 1.920 . S
Co511 O514 1.966 1_655 S
Co511 N520 2.022 . S
Co511 N528 1.993 1_655 S
Co511 O536 1.941 . S
C512 O513 1.258 . S
C512 O514 1.263 . S
O513 Co510 1.970 . S
O513 C512 1.258 . S
O514 Co511 1.966 1_455 S
O514 C512 1.263 . S
C515 O516 1.235 . S
C515 O542 1.289 . S
O516 C515 1.235 . S
C517 C519 1.400 . S
C517 N520 1.351 . S
C517 C522 1.501 . S
C518 C519 1.387 . S
C518 N521 1.341 . S
C519 C517 1.400 . S
C519 C518 1.387 . S
N520 Co511 2.022 . S
N520 C517 1.351 . S
N520 N521 1.365 . S
N521 C518 1.341 . S
N521 N520 1.365 . S
N521 H541 0.862 . S
C522 C517 1.501 . S
C522 H523 0.961 . S
C522 H524 0.961 . S
C522 H525 0.960 . S
H523 C522 0.961 . S
H524 C522 0.961 . S
H525 C522 0.960 . S
C526 N527 1.342 . S
C526 C530 1.401 . S
C526 C531 1.499 . S
N527 Co510 1.989 . S
N527 C526 1.342 . S
N527 N528 1.388 . S
N528 Co511 1.993 1_455 S
N528 N527 1.388 . S
N528 C529 1.346 . S
C529 N528 1.346 . S
C529 C530 1.396 . S
C529 C539 1.510 1_455 S
C530 C526 1.401 . S
C530 C529 1.396 . S
C531 C526 1.499 . S
C531 H532 0.959 . S
C531 H533 0.960 . S
C531 H534 0.961 . S
H532 C531 0.959 . S
H533 C531 0.960 . S
H534 C531 0.961 . S
O535 Co510 1.967 . S
O535 C543 1.258 . S
O536 Co511 1.941 . S
O536 C543 1.266 1_655 S
H537 C539 0.959 . S
H538 C539 0.961 . S
C539 C529 1.510 1_655 S
C539 H537 0.959 . S
C539 H538 0.961 . S
C539 H540 0.960 . S
H540 C539 0.960 . S
H541 N521 0.862 . S
O542 Co510 1.920 . S
O542 C515 1.289 . S
C543 O535 1.258 . S
C543 O536 1.266 1_455 S
C544 C545 1.391 . S
C544 C546 1.394 . S
C544 H560 0.931 . S
C545 C544 1.391 . S
C545 C549 1.376 . S
C546 C544 1.394 . S
C546 C547 1.369 . S
C546 C550 1.531 . S
C547 C546 1.369 . S
C547 C548 1.410 . S
C547 C555 1.503 . S
C548 C547 1.410 . S
C548 C549 1.392 . S
C548 C551 1.511 . S
C549 C545 1.376 . S
C549 C548 1.392 . S
C549 H561 0.929 . S
C550 C546 1.531 . S
C550 H562 0.960 . S
C550 H563 0.962 . S
C550 H564 0.960 . S
C551 C548 1.511 . S
C551 H565 0.961 . S
C551 H566 0.961 . S
C551 H567 0.961 . S
C552 C553 1.370 . S
C552 C554 1.363 . S
C552 H568 0.931 . S
C553 C552 1.370 . S
C553 C557 1.408 . S
C554 C552 1.363 . S
C554 C555 1.370 . S
C554 C558 1.524 . S
C555 C547 1.503 . S
C555 C554 1.370 . S
C555 C556 1.403 . S
C556 C555 1.403 . S
C556 C557 1.404 . S
C556 C559 1.539 . S
C557 C553 1.408 . S
C557 C556 1.404 . S
C557 H569 0.930 . S
C558 C554 1.524 . S
C558 H570 0.956 . S
C558 H571 0.961 . S
C558 H572 0.961 . S
C559 C556 1.539 . S
C559 H573 0.958 . S
C559 H574 0.961 . S
C559 H575 0.960 . S
H560 C544 0.931 . S
H561 C549 0.929 . S
H562 C550 0.960 . S
H563 C550 0.962 . S
H564 C550 0.960 . S
H565 C551 0.961 . S
H566 C551 0.961 . S
H567 C551 0.961 . S
H568 C552 0.931 . S
H569 C557 0.930 . S
H570 C558 0.956 . S
H571 C558 0.961 . S
H572 C558 0.961 . S
H573 C559 0.958 . S
H574 C559 0.961 . S
H575 C559 0.960 . S
C576 C577 1.391 . S
C576 C578 1.394 . S
C576 H592 0.931 . S
C577 C576 1.391 . S
C577 C581 1.376 . S
C578 C576 1.394 . S
C578 C579 1.369 . S
C578 C582 1.531 . S
C579 C578 1.369 . S
C579 C580 1.410 . S
C579 C587 1.503 . S
C580 C579 1.410 . S
C580 C581 1.392 . S
C580 C583 1.511 . S
C581 C577 1.376 . S
C581 C580 1.392 . S
C581 H593 0.929 . S
C582 C578 1.531 . S
C582 H594 0.960 . S
C582 H595 0.962 . S
C582 H596 0.960 . S
C583 C580 1.511 . S
C583 H597 0.961 . S
C583 H598 0.961 . S
C583 H599 0.961 . S
C584 C585 1.370 . S
C584 C586 1.363 . S
C584 H600 0.931 . S
C585 C584 1.370 . S
C585 C589 1.408 . S
C586 C584 1.363 . S
C586 C587 1.370 . S
C586 C590 1.524 . S
C587 C579 1.503 . S
C587 C586 1.370 . S
C587 C588 1.403 . S
C588 C587 1.403 . S
C588 C589 1.404 . S
C588 C591 1.539 . S
C589 C585 1.408 . S
C589 C588 1.404 . S
C589 H601 0.930 . S
C590 C586 1.524 . S
C590 H602 0.956 . S
C590 H603 0.961 . S
C590 H604 0.961 . S
C591 C588 1.539 . S
C591 H605 0.958 . S
C591 H606 0.961 . S
C591 H607 0.960 . S
H592 C576 0.931 . S
H593 C581 0.929 . S
H594 C582 0.960 . S
H595 C582 0.962 . S
H596 C582 0.960 . S
H597 C583 0.961 . S
H598 C583 0.961 . S
H599 C583 0.961 . S
H600 C584 0.931 . S
H601 C589 0.930 . S
H602 C590 0.956 . S
H603 C590 0.961 . S
H604 C590 0.961 . S
H605 C591 0.958 . S
H606 C591 0.961 . S
H607 C591 0.960 . S
C608 C609 1.391 1_655 S
C608 C610 1.394 . S
C608 H624 0.931 . S
C609 C608 1.391 1_455 S
C609 C613 1.376 . S
C610 C608 1.394 . S
C610 C611 1.369 . S
C610 C614 1.531 . S
C611 C610 1.369 . S
C611 C612 1.410 1_655 S
C611 C619 1.503 . S
C612 C611 1.410 1_455 S
C612 C613 1.392 . S
C612 C615 1.511 . S
C613 C609 1.376 . S
C613 C612 1.392 . S
C613 H625 0.929 . S
C614 C610 1.531 . S
C614 H626 0.960 . S
C614 H627 0.962 . S
C614 H628 0.960 . S
C615 C612 1.511 . S
C615 H629 0.961 . S
C615 H630 0.961 . S
C615 H631 0.961 . S
C616 C617 1.370 . S
C616 C618 1.363 . S
C616 H632 0.931 . S
C617 C616 1.370 . S
C617 C621 1.408 . S
C618 C616 1.363 . S
C618 C619 1.370 . S
C618 C622 1.524 . S
C619 C611 1.503 . S
C619 C618 1.370 . S
C619 C620 1.403 . S
C620 C619 1.403 . S
C620 C621 1.404 . S
C620 C623 1.539 1_655 S
C621 C617 1.408 . S
C621 C620 1.404 . S
C621 H633 0.930 . S
C622 C618 1.524 . S
C622 H634 0.956 . S
C622 H635 0.961 . S
C622 H636 0.961 . S
C623 C620 1.539 1_455 S
C623 H637 0.958 . S
C623 H638 0.961 . S
C623 H639 0.960 . S
H624 C608 0.931 . S
H625 C613 0.929 . S
H626 C614 0.960 . S
H627 C614 0.962 . S
H628 C614 0.960 . S
H629 C615 0.961 . S
H630 C615 0.961 . S
H631 C615 0.961 . S
H632 C616 0.931 . S
H633 C621 0.930 . S
H634 C622 0.956 . S
H635 C622 0.961 . S
H636 C622 0.961 . S
H637 C623 0.958 . S
H638 C623 0.961 . S
H639 C623 0.960 . S
C640 C641 1.391 1_545 S
C640 C642 1.394 . S
C640 H656 0.931 . S
C641 C640 1.391 1_565 S
C641 C645 1.376 . S
C642 C640 1.394 . S
C642 C643 1.369 1_545 S
C642 C646 1.531 . S
C643 C642 1.369 1_565 S
C643 C644 1.410 . S
C643 C651 1.503 . S
C644 C643 1.410 . S
C644 C645 1.392 . S
C644 C647 1.511 . S
C645 C641 1.376 . S
C645 C644 1.392 . S
C645 H657 0.929 . S
C646 C642 1.531 . S
C646 H658 0.960 . S
C646 H659 0.962 . S
C646 H660 0.960 . S
C647 C644 1.511 . S
C647 H661 0.961 . S
C647 H662 0.961 . S
C647 H663 0.961 . S
C648 C649 1.370 1_565 S
C648 C650 1.363 . S
C648 H664 0.931 . S
C649 C648 1.370 1_545 S
C649 C653 1.408 . S
C650 C648 1.363 . S
C650 C651 1.370 . S
C650 C654 1.524 . S
C651 C643 1.503 . S
C651 C650 1.370 . S
C651 C652 1.403 1_565 S
C652 C651 1.403 1_545 S
C652 C653 1.404 . S
C652 C655 1.539 . S
C653 C649 1.408 . S
C653 C652 1.404 . S
C653 H665 0.930 . S
C654 C650 1.524 . S
C654 H666 0.956 . S
C654 H667 0.961 . S
C654 H668 0.961 . S
C655 C652 1.539 . S
C655 H669 0.958 . S
C655 H670 0.961 . S
C655 H671 0.960 . S
H656 C640 0.931 . S
H657 C645 0.929 . S
H658 C646 0.960 . S
H659 C646 0.962 . S
H660 C646 0.960 . S
H661 C647 0.961 . S
H662 C647 0.961 . S
H663 C647 0.961 . S
H664 C648 0.931 . S
H665 C653 0.930 . S
H666 C654 0.956 . S
H667 C654 0.961 . S
H668 C654 0.961 . S
H669 C655 0.958 . S
H670 C655 0.961 . S
H671 C655 0.960 . S
C672 C673 1.391 1_455 S
C672 C674 1.394 . S
C672 H688 0.931 . S
C673 C672 1.391 1_655 S
C673 C677 1.376 . S
C674 C672 1.394 . S
C674 C675 1.369 . S
C674 C678 1.531 . S
C675 C674 1.369 . S
C675 C676 1.410 1_455 S
C675 C683 1.503 . S
C676 C675 1.410 1_655 S
C676 C677 1.392 . S
C676 C679 1.511 . S
C677 C673 1.376 . S
C677 C676 1.392 . S
C677 H689 0.929 . S
C678 C674 1.531 . S
C678 H690 0.960 . S
C678 H691 0.962 . S
C678 H692 0.960 . S
C679 C676 1.511 . S
C679 H693 0.961 . S
C679 H694 0.961 . S
C679 H695 0.961 . S
C680 C681 1.370 . S
C680 C682 1.363 . S
C680 H696 0.931 . S
C681 C680 1.370 . S
C681 C685 1.408 . S
C682 C680 1.363 . S
C682 C683 1.370 . S
C682 C686 1.524 . S
C683 C675 1.503 . S
C683 C682 1.370 . S
C683 C684 1.403 . S
C684 C683 1.403 . S
C684 C685 1.404 . S
C684 C687 1.539 1_455 S
C685 C681 1.408 . S
C685 C684 1.404 . S
C685 H697 0.930 . S
C686 C682 1.524 . S
C686 H698 0.956 . S
C686 H699 0.961 . S
C686 H700 0.961 . S
C687 C684 1.539 1_655 S
C687 H701 0.958 1_655 S
C687 H702 0.961 . S
C687 H703 0.960 . S
H688 C672 0.931 . S
H689 C677 0.929 . S
H690 C678 0.960 . S
H691 C678 0.962 . S
H692 C678 0.960 . S
H693 C679 0.961 . S
H694 C679 0.961 . S
H695 C679 0.961 . S
H696 C680 0.931 . S
H697 C685 0.930 . S
H698 C686 0.956 . S
H699 C686 0.961 . S
H700 C686 0.961 . S
H701 C687 0.958 1_455 S
H702 C687 0.961 . S
H703 C687 0.960 . S
C704 C705 1.391 . S
C704 C706 1.394 . S
C704 H720 0.931 . S
C705 C704 1.391 . S
C705 C709 1.376 1_565 S
C706 C704 1.394 . S
C706 C707 1.370 . S
C706 C710 1.531 . S
C707 C706 1.370 . S
C707 C708 1.409 1_565 S
C707 C715 1.503 1_565 S
C708 C707 1.409 1_545 S
C708 C709 1.392 . S
C708 C711 1.511 . S
C709 C705 1.376 1_545 S
C709 C708 1.392 . S
C709 H721 0.929 . S
C710 C706 1.531 . S
C710 H722 0.960 . S
C710 H723 0.962 . S
C710 H724 0.960 . S
C711 C708 1.511 . S
C711 H725 0.961 . S
C711 H726 0.961 . S
C711 H727 0.961 . S
C712 C713 1.370 . S
C712 C714 1.363 . S
C712 H728 0.931 . S
C713 C712 1.370 . S
C713 C717 1.408 1_545 S
C714 C712 1.363 . S
C714 C715 1.370 . S
C714 C718 1.524 . S
C715 C707 1.503 1_545 S
C715 C714 1.370 . S
C715 C716 1.403 1_545 S
C716 C715 1.403 1_565 S
C716 C717 1.404 . S
C716 C719 1.539 . S
C717 C713 1.408 1_565 S
C717 C716 1.404 . S
C717 H729 0.930 . S
C718 C714 1.524 . S
C718 H730 0.956 . S
C718 H731 0.961 . S
C718 H732 0.961 . S
C719 C716 1.539 . S
C719 H733 0.958 . S
C719 H734 0.961 . S
C719 H735 0.960 . S
H720 C704 0.931 . S
H721 C709 0.929 . S
H722 C710 0.960 . S
H723 C710 0.962 . S
H724 C710 0.960 . S
H725 C711 0.961 . S
H726 C711 0.961 . S
H727 C711 0.961 . S
H728 C712 0.931 . S
H729 C717 0.930 . S
H730 C718 0.956 . S
H731 C718 0.961 . S
H732 C718 0.961 . S
H733 C719 0.958 . S
H734 C719 0.961 . S
H735 C719 0.960 . S
C736 C737 1.391 . S
C736 C738 1.394 . S
C736 H752 0.931 . S
C737 C736 1.391 . S
C737 C741 1.376 . S
C738 C736 1.394 . S
C738 C739 1.369 . S
C738 C742 1.531 . S
C739 C738 1.369 . S
C739 C740 1.410 . S
C739 C747 1.503 . S
C740 C739 1.410 . S
C740 C741 1.392 . S
C740 C743 1.511 . S
C741 C737 1.376 . S
C741 C740 1.392 . S
C741 H753 0.929 . S
C742 C738 1.531 . S
C742 H754 0.960 . S
C742 H755 0.962 . S
C742 H756 0.960 . S
C743 C740 1.511 . S
C743 H757 0.961 . S
C743 H758 0.961 . S
C743 H759 0.961 . S
C744 C745 1.370 . S
C744 C746 1.363 . S
C744 H760 0.931 . S
C745 C744 1.370 . S
C745 C749 1.408 . S
C746 C744 1.363 . S
C746 C747 1.370 . S
C746 C750 1.524 . S
C747 C739 1.503 . S
C747 C746 1.370 . S
C747 C748 1.403 . S
C748 C747 1.403 . S
C748 C749 1.404 . S
C748 C751 1.539 . S
C749 C745 1.408 . S
C749 C748 1.404 . S
C749 H761 0.930 . S
C750 C746 1.524 . S
C750 H762 0.956 . S
C750 H763 0.961 . S
C750 H764 0.961 . S
C751 C748 1.539 . S
C751 H765 0.958 . S
C751 H766 0.961 . S
C751 H767 0.960 . S
H752 C736 0.931 . S
H753 C741 0.929 . S
H754 C742 0.960 . S
H755 C742 0.962 . S
H756 C742 0.960 . S
H757 C743 0.961 . S
H758 C743 0.961 . S
H759 C743 0.961 . S
H760 C744 0.931 . S
H761 C749 0.930 . S
H762 C750 0.956 . S
H763 C750 0.961 . S
H764 C750 0.961 . S
H765 C751 0.958 . S
H766 C751 0.961 . S
H767 C751 0.960 . S
C768 C769 1.391 . S
C768 C770 1.394 . S
C768 H784 0.931 . S
C769 C768 1.391 . S
C769 C773 1.376 . S
C770 C768 1.394 . S
C770 C771 1.369 . S
C770 C774 1.531 . S
C771 C770 1.369 . S
C771 C772 1.410 . S
C771 C779 1.503 . S
C772 C771 1.410 . S
C772 C773 1.392 . S
C772 C775 1.511 . S
C773 C769 1.376 . S
C773 C772 1.392 . S
C773 H785 0.929 . S
C774 C770 1.531 . S
C774 H786 0.960 . S
C774 H787 0.962 . S
C774 H788 0.960 . S
C775 C772 1.511 . S
C775 H789 0.961 . S
C775 H790 0.961 . S
C775 H791 0.961 . S
C776 C777 1.370 . S
C776 C778 1.363 . S
C776 H792 0.931 . S
C777 C776 1.370 . S
C777 C781 1.408 . S
C778 C776 1.363 . S
C778 C779 1.370 . S
C778 C782 1.524 . S
C779 C771 1.503 . S
C779 C778 1.370 . S
C779 C780 1.403 . S
C780 C779 1.403 . S
C780 C781 1.404 . S
C780 C783 1.539 . S
C781 C777 1.408 . S
C781 C780 1.404 . S
C781 H793 0.930 . S
C782 C778 1.524 . S
C782 H794 0.956 . S
C782 H795 0.961 . S
C782 H796 0.961 . S
C783 C780 1.539 . S
C783 H797 0.958 . S
C783 H798 0.961 . S
C783 H799 0.960 . S
H784 C768 0.931 . S
H785 C773 0.929 . S
H786 C774 0.960 . S
H787 C774 0.962 . S
H788 C774 0.960 . S
H789 C775 0.961 . S
H790 C775 0.961 . S
H791 C775 0.961 . S
H792 C776 0.931 . S
H793 C781 0.930 . S
H794 C782 0.956 . S
H795 C782 0.961 . S
H796 C782 0.961 . S
H797 C783 0.958 . S
H798 C783 0.961 . S
H799 C783 0.960 . S
C800 C801 1.391 . S
C800 C802 1.394 . S
C800 H816 0.931 . S
C801 C800 1.391 . S
C801 C805 1.376 . S
C802 C800 1.394 . S
C802 C803 1.369 . S
C802 C806 1.531 . S
C803 C802 1.369 . S
C803 C804 1.410 . S
C803 C811 1.503 . S
C804 C803 1.410 . S
C804 C805 1.392 . S
C804 C807 1.511 . S
C805 C801 1.376 . S
C805 C804 1.392 . S
C805 H817 0.929 . S
C806 C802 1.531 . S
C806 H818 0.960 . S
C806 H819 0.962 . S
C806 H820 0.960 . S
C807 C804 1.511 . S
C807 H821 0.961 . S
C807 H822 0.961 . S
C807 H823 0.961 . S
C808 C809 1.370 . S
C808 C810 1.363 . S
C808 H824 0.931 . S
C809 C808 1.370 . S
C809 C813 1.408 . S
C810 C808 1.363 . S
C810 C811 1.370 . S
C810 C814 1.524 . S
C811 C803 1.503 . S
C811 C810 1.370 . S
C811 C812 1.403 . S
C812 C811 1.403 . S
C812 C813 1.404 . S
C812 C815 1.539 . S
C813 C809 1.408 . S
C813 C812 1.404 . S
C813 H825 0.930 . S
C814 C810 1.524 . S
C814 H826 0.956 . S
C814 H827 0.961 . S
C814 H828 0.961 . S
C815 C812 1.539 . S
C815 H829 0.958 . S
C815 H830 0.961 . S
C815 H831 0.960 . S
H816 C800 0.931 . S
H817 C805 0.929 . S
H818 C806 0.960 . S
H819 C806 0.962 . S
H820 C806 0.960 . S
H821 C807 0.961 . S
H822 C807 0.961 . S
H823 C807 0.961 . S
H824 C808 0.931 . S
H825 C813 0.930 . S
H826 C814 0.956 . S
H827 C814 0.961 . S
H828 C814 0.961 . S
H829 C815 0.958 . S
H830 C815 0.961 . S
H831 C815 0.960 . S
C832 C833 1.391 . S
C832 C834 1.394 . S
C832 H848 0.931 . S
C833 C832 1.391 . S
C833 C837 1.376 . S
C834 C832 1.394 . S
C834 C835 1.369 . S
C834 C838 1.531 . S
C835 C834 1.369 . S
C835 C836 1.410 . S
C835 C843 1.503 . S
C836 C835 1.410 . S
C836 C837 1.392 . S
C836 C839 1.511 . S
C837 C833 1.376 . S
C837 C836 1.392 . S
C837 H849 0.929 . S
C838 C834 1.531 . S
C838 H850 0.960 . S
C838 H851 0.962 . S
C838 H852 0.960 . S
C839 C836 1.511 . S
C839 H853 0.961 . S
C839 H854 0.961 . S
C839 H855 0.961 . S
C840 C841 1.370 . S
C840 C842 1.363 . S
C840 H856 0.931 . S
C841 C840 1.370 . S
C841 C845 1.408 . S
C842 C840 1.363 . S
C842 C843 1.370 . S
C842 C846 1.524 . S
C843 C835 1.503 . S
C843 C842 1.370 . S
C843 C844 1.403 . S
C844 C843 1.403 . S
C844 C845 1.404 . S
C844 C847 1.539 . S
C845 C841 1.408 . S
C845 C844 1.404 . S
C845 H857 0.930 . S
C846 C842 1.524 . S
C846 H858 0.956 . S
C846 H859 0.961 . S
C846 H860 0.961 . S
C847 C844 1.539 . S
C847 H861 0.958 . S
C847 H862 0.961 . S
C847 H863 0.960 . S
H848 C832 0.931 . S
H849 C837 0.929 . S
H850 C838 0.960 . S
H851 C838 0.962 . S
H852 C838 0.960 . S
H853 C839 0.961 . S
H854 C839 0.961 . S
H855 C839 0.961 . S
H856 C840 0.931 . S
H857 C845 0.930 . S
H858 C846 0.956 . S
H859 C846 0.961 . S
H860 C846 0.961 . S
H861 C847 0.958 . S
H862 C847 0.961 . S
H863 C847 0.960 . S
C864 C865 1.391 . S
C864 C866 1.394 . S
C864 H880 0.931 . S
C865 C864 1.391 . S
C865 C869 1.376 1_655 S
C866 C864 1.394 . S
C866 C867 1.369 1_655 S
C866 C870 1.531 . S
C867 C866 1.369 1_455 S
C867 C868 1.410 . S
C867 C875 1.503 . S
C868 C867 1.410 . S
C868 C869 1.392 . S
C868 C871 1.511 . S
C869 C865 1.376 1_455 S
C869 C868 1.392 . S
C869 H881 0.929 . S
C870 C866 1.531 . S
C870 H882 0.960 . S
C870 H883 0.962 . S
C870 H884 0.960 . S
C871 C868 1.511 . S
C871 H885 0.961 . S
C871 H886 0.961 . S
C871 H887 0.961 . S
C872 C873 1.370 . S
C872 C874 1.363 . S
C872 H888 0.922 1_455 S
C873 C872 1.370 . S
C873 C877 1.408 . S
C874 C872 1.363 . S
C874 C875 1.370 . S
C874 C878 1.524 1_455 S
C875 C867 1.503 . S
C875 C874 1.370 . S
C875 C876 1.403 . S
C876 C875 1.403 . S
C876 C877 1.404 . S
C876 C879 1.539 . S
C877 C873 1.408 . S
C877 C876 1.404 . S
C877 H889 0.930 . S
C878 C874 1.524 1_655 S
C878 H890 0.956 . S
C878 H891 0.956 1_655 S
C878 H892 0.961 . S
C879 C876 1.539 . S
C879 H893 0.958 . S
C879 H894 0.961 . S
C879 H895 0.960 . S
H880 C864 0.931 . S
H881 C869 0.929 . S
H882 C870 0.960 . S
H883 C870 0.962 . S
H884 C870 0.960 . S
H885 C871 0.961 . S
H886 C871 0.961 . S
H887 C871 0.961 . S
H888 C872 0.922 1_655 S
H889 C877 0.930 . S
H890 C878 0.956 . S
H891 C878 0.956 1_455 S
H892 C878 0.961 . S
H893 C879 0.958 . S
H894 C879 0.961 . S
H895 C879 0.960 . S
C896 C897 1.391 . S
C896 C898 1.394 . S
C896 H912 0.931 . S
C897 C896 1.391 . S
C897 C901 1.376 1_565 S
C898 C896 1.394 . S
C898 C899 1.369 1_565 S
C898 C902 1.531 . S
C899 C898 1.369 1_545 S
C899 C900 1.410 . S
C899 C907 1.503 . S
C900 C899 1.410 . S
C900 C901 1.392 . S
C900 C903 1.511 . S
C901 C897 1.376 1_545 S
C901 C900 1.392 . S
C901 H913 0.929 . S
C902 C898 1.531 . S
C902 H914 0.960 . S
C902 H915 0.962 . S
C902 H916 0.960 . S
C903 C900 1.511 . S
C903 H917 0.961 . S
C903 H918 0.961 . S
C903 H919 0.961 . S
C904 C905 1.370 . S
C904 C906 1.363 1_545 S
C904 H920 0.931 1_545 S
C905 C904 1.370 . S
C905 C909 1.408 . S
C906 C904 1.363 1_565 S
C906 C907 1.370 1_565 S
C906 C910 1.524 . S
C907 C899 1.503 . S
C907 C906 1.370 1_545 S
C907 C908 1.403 . S
C908 C907 1.403 . S
C908 C909 1.404 . S
C908 C911 1.539 . S
C909 C905 1.408 . S
C909 C908 1.404 . S
C909 H921 0.930 . S
C910 C906 1.524 . S
C910 H922 0.956 . S
C910 H923 0.961 . S
C910 H924 0.961 . S
C911 C908 1.539 . S
C911 H925 0.958 . S
C911 H926 0.961 . S
C911 H927 0.960 . S
H912 C896 0.931 . S
H913 C901 0.929 . S
H914 C902 0.960 . S
H915 C902 0.962 . S
H916 C902 0.960 . S
H917 C903 0.961 . S
H918 C903 0.961 . S
H919 C903 0.961 . S
H920 C904 0.931 1_565 S
H921 C909 0.930 . S
H922 C910 0.956 . S
H923 C910 0.961 . S
H924 C910 0.961 . S
H925 C911 0.958 . S
H926 C911 0.961 . S
H927 C911 0.960 . S
C928 C929 1.391 . S
C928 C930 1.394 . S
C928 H944 0.931 . S
C929 C928 1.391 . S
C929 C933 1.376 1_455 S
C930 C928 1.394 . S
C930 C931 1.369 1_455 S
C930 C934 1.531 . S
C931 C930 1.369 1_655 S
C931 C932 1.410 . S
C931 C939 1.503 . S
C932 C931 1.410 . S
C932 C933 1.392 . S
C932 C935 1.511 . S
C933 C929 1.376 1_655 S
C933 C932 1.392 . S
C933 H945 0.929 . S
C934 C930 1.531 . S
C934 H946 0.960 . S
C934 H947 0.962 . S
C934 H948 0.960 . S
C935 C932 1.511 . S
C935 H949 0.961 . S
C935 H950 0.961 . S
C935 H951 0.961 . S
C936 C937 1.370 . S
C936 C938 1.363 . S
C936 H952 0.931 . S
C937 C936 1.370 . S
C937 C941 1.408 . S
C938 C936 1.363 . S
C938 C939 1.370 . S
C938 C942 1.524 1_655 S
C939 C931 1.503 . S
C939 C938 1.370 . S
C939 C940 1.403 . S
C940 C939 1.403 . S
C940 C941 1.404 . S
C940 C943 1.539 . S
C941 C937 1.408 . S
C941 C940 1.404 . S
C941 H953 0.930 . S
C942 C938 1.524 1_455 S
C942 H954 0.956 . S
C942 H955 0.961 1_455 S
C942 H956 0.961 . S
C943 C940 1.539 . S
C943 H957 0.958 . S
C943 H958 0.961 . S
C943 H959 0.960 . S
H944 C928 0.931 . S
H945 C933 0.929 . S
H946 C934 0.960 . S
H947 C934 0.962 . S
H948 C934 0.960 . S
H949 C935 0.961 . S
H950 C935 0.961 . S
H951 C935 0.961 . S
H952 C936 0.931 . S
H953 C941 0.930 . S
H954 C942 0.956 . S
H955 C942 0.961 1_655 S
H956 C942 0.961 . S
H957 C943 0.958 . S
H958 C943 0.961 . S
H959 C943 0.960 . S
C960 C961 1.391 1_565 S
C960 C962 1.394 . S
C960 H976 0.931 . S
C961 C960 1.391 1_545 S
C961 C965 1.376 . S
C962 C960 1.394 . S
C962 C963 1.369 . S
C962 C966 1.531 . S
C963 C962 1.369 . S
C963 C964 1.410 1_565 S
C963 C971 1.503 . S
C964 C963 1.410 1_545 S
C964 C965 1.392 . S
C964 C967 1.511 . S
C965 C961 1.376 . S
C965 C964 1.392 . S
C965 H977 0.929 . S
C966 C962 1.531 . S
C966 H978 0.960 . S
C966 H979 0.962 . S
C966 H980 0.960 . S
C967 C964 1.511 . S
C967 H981 0.961 . S
C967 H982 0.961 . S
C967 H983 0.961 . S
C968 C969 1.370 . S
C968 C970 1.363 . S
C968 H984 0.931 . S
C969 C968 1.370 . S
C969 C973 1.408 . S
C970 C968 1.363 . S
C970 C971 1.370 . S
C970 C974 1.524 . S
C971 C963 1.503 . S
C971 C970 1.370 . S
C971 C972 1.403 . S
C972 C971 1.403 . S
C972 C973 1.404 . S
C972 C975 1.539 . S
C973 C969 1.408 . S
C973 C972 1.404 . S
C973 H985 0.930 . S
C974 C970 1.524 . S
C974 H986 0.956 . S
C974 H987 0.960 1_565 S
C974 H988 0.961 1_565 S
C975 C972 1.539 . S
C975 H989 0.958 . S
C975 H990 0.961 . S
C975 H991 0.960 . S
H976 C960 0.931 . S
H977 C965 0.929 . S
H978 C966 0.960 . S
H979 C966 0.962 . S
H980 C966 0.960 . S
H981 C967 0.961 . S
H982 C967 0.961 . S
H983 C967 0.961 . S
H984 C968 0.931 . S
H985 C973 0.930 . S
H986 C974 0.956 . S
H987 C974 0.960 1_545 S
H988 C974 0.961 1_545 S
H989 C975 0.958 . S
H990 C975 0.961 . S
H991 C975 0.960 . S
C992 C993 1.391 . S
C992 C994 1.394 . S
C992 H1008 0.931 . S
C993 C992 1.391 . S
C993 C997 1.376 . S
C994 C992 1.394 . S
C994 C995 1.369 . S
C994 C998 1.531 . S
C995 C994 1.369 . S
C995 C996 1.410 . S
C995 C1003 1.503 . S
C996 C995 1.410 . S
C996 C997 1.392 . S
C996 C999 1.511 . S
C997 C993 1.376 . S
C997 C996 1.392 . S
C997 H1009 0.929 . S
C998 C994 1.531 . S
C998 H1010 0.960 . S
C998 H1011 0.962 . S
C998 H1012 0.960 . S
C999 C996 1.511 . S
C999 H1013 0.961 . S
C999 H1014 0.961 . S
C999 H1015 0.961 . S
C1000 C1001 1.370 . S
C1000 C1002 1.363 . S
C1000 H1016 0.931 . S
C1001 C1000 1.370 . S
C1001 C1005 1.408 . S
C1002 C1000 1.363 . S
C1002 C1003 1.370 . S
C1002 C1006 1.524 . S
C1003 C995 1.503 . S
C1003 C1002 1.370 . S
C1003 C1004 1.403 . S
C1004 C1003 1.403 . S
C1004 C1005 1.404 . S
C1004 C1007 1.539 . S
C1005 C1001 1.408 . S
C1005 C1004 1.404 . S
C1005 H1017 0.930 . S
C1006 C1002 1.524 . S
C1006 H1018 0.956 . S
C1006 H1019 0.961 . S
C1006 H1020 0.961 . S
C1007 C1004 1.539 . S
C1007 H1021 0.958 . S
C1007 H1022 0.961 . S
C1007 H1023 0.960 . S
H1008 C992 0.931 . S
H1009 C997 0.929 . S
H1010 C998 0.960 . S
H1011 C998 0.962 . S
H1012 C998 0.960 . S
H1013 C999 0.961 . S
H1014 C999 0.961 . S
H1015 C999 0.961 . S
H1016 C1000 0.931 . S
H1017 C1005 0.930 . S
H1018 C1006 0.956 . S
H1019 C1006 0.961 . S
H1020 C1006 0.961 . S
H1021 C1007 0.958 . S
H1022 C1007 0.961 . S
H1023 C1007 0.960 . S
C1024 C1025 1.391 . S
C1024 C1026 1.394 . S
C1024 H1040 0.931 . S
C1025 C1024 1.391 . S
C1025 C1029 1.376 . S
C1026 C1024 1.394 . S
C1026 C1027 1.369 . S
C1026 C1030 1.531 . S
C1027 C1026 1.369 . S
C1027 C1028 1.410 . S
C1027 C1035 1.503 . S
C1028 C1027 1.410 . S
C1028 C1029 1.392 . S
C1028 C1031 1.511 . S
C1029 C1025 1.376 . S
C1029 C1028 1.392 . S
C1029 H1041 0.929 . S
C1030 C1026 1.531 . S
C1030 H1042 0.960 . S
C1030 H1043 0.962 . S
C1030 H1044 0.960 . S
C1031 C1028 1.511 . S
C1031 H1045 0.961 . S
C1031 H1046 0.961 . S
C1031 H1047 0.961 . S
C1032 C1033 1.370 . S
C1032 C1034 1.363 . S
C1032 H1048 0.931 . S
C1033 C1032 1.370 . S
C1033 C1037 1.408 . S
C1034 C1032 1.363 . S
C1034 C1035 1.370 . S
C1034 C1038 1.524 . S
C1035 C1027 1.503 . S
C1035 C1034 1.370 . S
C1035 C1036 1.403 . S
C1036 C1035 1.403 . S
C1036 C1037 1.404 . S
C1036 C1039 1.539 . S
C1037 C1033 1.408 . S
C1037 C1036 1.404 . S
C1037 H1049 0.930 . S
C1038 C1034 1.524 . S
C1038 H1050 0.956 . S
C1038 H1051 0.961 . S
C1038 H1052 0.961 . S
C1039 C1036 1.539 . S
C1039 H1053 0.958 . S
C1039 H1054 0.961 . S
C1039 H1055 0.960 . S
H1040 C1024 0.931 . S
H1041 C1029 0.929 . S
H1042 C1030 0.960 . S
H1043 C1030 0.962 . S
H1044 C1030 0.960 . S
H1045 C1031 0.961 . S
H1046 C1031 0.961 . S
H1047 C1031 0.961 . S
H1048 C1032 0.931 . S
H1049 C1037 0.930 . S
H1050 C1038 0.956 . S
H1051 C1038 0.961 . S
H1052 C1038 0.961 . S
H1053 C1039 0.958 . S
H1054 C1039 0.961 . S
H1055 C1039 0.960 . S
C1056 C1057 1.391 . S
C1056 C1058 1.394 . S
C1056 H1072 0.931 . S
C1057 C1056 1.391 . S
C1057 C1061 1.376 . S
C1058 C1056 1.394 . S
C1058 C1059 1.369 . S
C1058 C1062 1.531 . S
C1059 C1058 1.369 . S
C1059 C1060 1.410 . S
C1059 C1067 1.503 . S
C1060 C1059 1.410 . S
C1060 C1061 1.392 . S
C1060 C1063 1.511 . S
C1061 C1057 1.376 . S
C1061 C1060 1.392 . S
C1061 H1073 0.929 . S
C1062 C1058 1.531 . S
C1062 H1074 0.960 . S
C1062 H1075 0.962 . S
C1062 H1076 0.960 . S
C1063 C1060 1.511 . S
C1063 H1077 0.961 . S
C1063 H1078 0.961 . S
C1063 H1079 0.961 . S
C1064 C1065 1.370 . S
C1064 C1066 1.363 . S
C1064 H1080 0.931 . S
C1065 C1064 1.370 . S
C1065 C1069 1.408 . S
C1066 C1064 1.363 . S
C1066 C1067 1.370 . S
C1066 C1070 1.524 . S
C1067 C1059 1.503 . S
C1067 C1066 1.370 . S
C1067 C1068 1.403 . S
C1068 C1067 1.403 . S
C1068 C1069 1.404 . S
C1068 C1071 1.539 . S
C1069 C1065 1.408 . S
C1069 C1068 1.404 . S
C1069 H1081 0.930 . S
C1070 C1066 1.524 . S
C1070 H1082 0.956 . S
C1070 H1083 0.961 . S
C1070 H1084 0.961 . S
C1071 C1068 1.539 . S
C1071 H1085 0.958 . S
C1071 H1086 0.961 . S
C1071 H1087 0.960 . S
H1072 C1056 0.931 . S
H1073 C1061 0.929 . S
H1074 C1062 0.960 . S
H1075 C1062 0.962 . S
H1076 C1062 0.960 . S
H1077 C1063 0.961 . S
H1078 C1063 0.961 . S
H1079 C1063 0.961 . S
H1080 C1064 0.931 . S
H1081 C1069 0.930 . S
H1082 C1070 0.956 . S
H1083 C1070 0.961 . S
H1084 C1070 0.961 . S
H1085 C1071 0.958 . S
H1086 C1071 0.961 . S
H1087 C1071 0.960 . S
C1088 C1089 1.391 . S
C1088 C1090 1.394 . S
C1088 H1104 0.931 . S
C1089 C1088 1.391 . S
C1089 C1093 1.376 . S
C1090 C1088 1.394 . S
C1090 C1091 1.369 . S
C1090 C1094 1.531 . S
C1091 C1090 1.369 . S
C1091 C1092 1.410 . S
C1091 C1099 1.503 . S
C1092 C1091 1.410 . S
C1092 C1093 1.392 . S
C1092 C1095 1.511 . S
C1093 C1089 1.376 . S
C1093 C1092 1.392 . S
C1093 H1105 0.929 . S
C1094 C1090 1.531 . S
C1094 H1106 0.960 . S
C1094 H1107 0.962 . S
C1094 H1108 0.960 . S
C1095 C1092 1.511 . S
C1095 H1109 0.961 . S
C1095 H1110 0.961 . S
C1095 H1111 0.961 . S
C1096 C1097 1.370 . S
C1096 C1098 1.363 . S
C1096 H1112 0.931 . S
C1097 C1096 1.370 . S
C1097 C1101 1.408 . S
C1098 C1096 1.363 . S
C1098 C1099 1.370 . S
C1098 C1102 1.524 . S
C1099 C1091 1.503 . S
C1099 C1098 1.370 . S
C1099 C1100 1.403 . S
C1100 C1099 1.403 . S
C1100 C1101 1.404 . S
C1100 C1103 1.539 . S
C1101 C1097 1.408 . S
C1101 C1100 1.404 . S
C1101 H1113 0.930 . S
C1102 C1098 1.524 . S
C1102 H1114 0.956 . S
C1102 H1115 0.961 . S
C1102 H1116 0.961 . S
C1103 C1100 1.539 . S
C1103 H1117 0.958 . S
C1103 H1118 0.961 . S
C1103 H1119 0.960 . S
H1104 C1088 0.931 . S
H1105 C1093 0.929 . S
H1106 C1094 0.960 . S
H1107 C1094 0.962 . S
H1108 C1094 0.960 . S
H1109 C1095 0.961 . S
H1110 C1095 0.961 . S
H1111 C1095 0.961 . S
H1112 C1096 0.931 . S
H1113 C1101 0.930 . S
H1114 C1102 0.956 . S
H1115 C1102 0.961 . S
H1116 C1102 0.961 . S
H1117 C1103 0.958 . S
H1118 C1103 0.961 . S
H1119 C1103 0.960 . S
C1120 C1121 1.391 . S
C1120 C1122 1.394 . S
C1120 H1136 0.931 . S
C1121 C1120 1.391 . S
C1121 C1125 1.376 . S
C1122 C1120 1.394 . S
C1122 C1123 1.369 . S
C1122 C1126 1.531 . S
C1123 C1122 1.369 . S
C1123 C1124 1.410 . S
C1123 C1131 1.503 . S
C1124 C1123 1.410 . S
C1124 C1125 1.392 . S
C1124 C1127 1.511 . S
C1125 C1121 1.376 . S
C1125 C1124 1.392 . S
C1125 H1137 0.929 . S
C1126 C1122 1.531 . S
C1126 H1138 0.960 . S
C1126 H1139 0.962 . S
C1126 H1140 0.960 . S
C1127 C1124 1.511 . S
C1127 H1141 0.961 . S
C1127 H1142 0.961 . S
C1127 H1143 0.961 . S
C1128 C1129 1.370 . S
C1128 C1130 1.363 . S
C1128 H1144 0.931 . S
C1129 C1128 1.370 . S
C1129 C1133 1.408 . S
C1130 C1128 1.363 . S
C1130 C1131 1.370 . S
C1130 C1134 1.524 . S
C1131 C1123 1.503 . S
C1131 C1130 1.370 . S
C1131 C1132 1.403 . S
C1132 C1131 1.403 . S
C1132 C1133 1.404 . S
C1132 C1135 1.539 . S
C1133 C1129 1.408 . S
C1133 C1132 1.404 . S
C1133 H1145 0.930 . S
C1134 C1130 1.524 . S
C1134 H1146 0.956 . S
C1134 H1147 0.961 . S
C1134 H1148 0.961 . S
C1135 C1132 1.539 . S
C1135 H1149 0.958 . S
C1135 H1150 0.961 . S
C1135 H1151 0.960 . S
H1136 C1120 0.931 . S
H1137 C1125 0.929 . S
H1138 C1126 0.960 . S
H1139 C1126 0.962 . S
H1140 C1126 0.960 . S
H1141 C1127 0.961 . S
H1142 C1127 0.961 . S
H1143 C1127 0.961 . S
H1144 C1128 0.931 . S
H1145 C1133 0.930 . S
H1146 C1134 0.956 . S
H1147 C1134 0.961 . S
H1148 C1134 0.961 . S
H1149 C1135 0.958 . S
H1150 C1135 0.961 . S
H1151 C1135 0.960 . S
C1152 C1153 1.391 . S
C1152 C1154 1.394 . S
C1152 H1168 0.931 . S
C1153 C1152 1.391 . S
C1153 C1157 1.376 . S
C1154 C1152 1.394 . S
C1154 C1155 1.369 . S
C1154 C1158 1.531 . S
C1155 C1154 1.369 . S
C1155 C1156 1.410 . S
C1155 C1163 1.503 . S
C1156 C1155 1.410 . S
C1156 C1157 1.392 . S
C1156 C1159 1.511 . S
C1157 C1153 1.376 . S
C1157 C1156 1.392 . S
C1157 H1169 0.929 . S
C1158 C1154 1.531 . S
C1158 H1170 0.960 . S
C1158 H1171 0.962 . S
C1158 H1172 0.960 . S
C1159 C1156 1.511 . S
C1159 H1173 0.961 . S
C1159 H1174 0.961 . S
C1159 H1175 0.961 . S
C1160 C1161 1.370 . S
C1160 C1162 1.363 . S
C1160 H1176 0.931 . S
C1161 C1160 1.370 . S
C1161 C1165 1.408 . S
C1162 C1160 1.363 . S
C1162 C1163 1.370 . S
C1162 C1166 1.524 . S
C1163 C1155 1.503 . S
C1163 C1162 1.370 . S
C1163 C1164 1.403 . S
C1164 C1163 1.403 . S
C1164 C1165 1.404 . S
C1164 C1167 1.539 . S
C1165 C1161 1.408 . S
C1165 C1164 1.404 . S
C1165 H1177 0.930 . S
C1166 C1162 1.524 . S
C1166 H1178 0.956 . S
C1166 H1179 0.961 . S
C1166 H1180 0.961 . S
C1167 C1164 1.539 . S
C1167 H1181 0.958 . S
C1167 H1182 0.961 . S
C1167 H1183 0.960 . S
H1168 C1152 0.931 . S
H1169 C1157 0.929 . S
H1170 C1158 0.960 . S
H1171 C1158 0.962 . S
H1172 C1158 0.960 . S
H1173 C1159 0.961 . S
H1174 C1159 0.961 . S
H1175 C1159 0.961 . S
H1176 C1160 0.931 . S
H1177 C1165 0.930 . S
H1178 C1166 0.956 . S
H1179 C1166 0.961 . S
H1180 C1166 0.961 . S
H1181 C1167 0.958 . S
H1182 C1167 0.961 . S
H1183 C1167 0.960 . S
C1184 C1185 1.391 . S
C1184 C1186 1.394 . S
C1184 H1200 0.931 . S
C1185 C1184 1.391 . S
C1185 C1189 1.376 . S
C1186 C1184 1.394 . S
C1186 C1187 1.369 . S
C1186 C1190 1.531 . S
C1187 C1186 1.369 . S
C1187 C1188 1.410 . S
C1187 C1195 1.503 . S
C1188 C1187 1.410 . S
C1188 C1189 1.392 . S
C1188 C1191 1.511 . S
C1189 C1185 1.376 . S
C1189 C1188 1.392 . S
C1189 H1201 0.929 . S
C1190 C1186 1.531 . S
C1190 H1202 0.960 . S
C1190 H1203 0.962 . S
C1190 H1204 0.960 . S
C1191 C1188 1.511 . S
C1191 H1205 0.961 . S
C1191 H1206 0.961 . S
C1191 H1207 0.961 . S
C1192 C1193 1.370 . S
C1192 C1194 1.363 . S
C1192 H1208 0.931 . S
C1193 C1192 1.370 . S
C1193 C1197 1.408 . S
C1194 C1192 1.363 . S
C1194 C1195 1.370 . S
C1194 C1198 1.524 . S
C1195 C1187 1.503 . S
C1195 C1194 1.370 . S
C1195 C1196 1.403 . S
C1196 C1195 1.403 . S
C1196 C1197 1.404 . S
C1196 C1199 1.539 . S
C1197 C1193 1.408 . S
C1197 C1196 1.404 . S
C1197 H1209 0.930 . S
C1198 C1194 1.524 . S
C1198 H1210 0.956 . S
C1198 H1211 0.961 . S
C1198 H1212 0.961 . S
C1199 C1196 1.539 . S
C1199 H1213 0.958 . S
C1199 H1214 0.961 . S
C1199 H1215 0.960 . S
H1200 C1184 0.931 . S
H1201 C1189 0.929 . S
H1202 C1190 0.960 . S
H1203 C1190 0.962 . S
H1204 C1190 0.960 . S
H1205 C1191 0.961 . S
H1206 C1191 0.961 . S
H1207 C1191 0.961 . S
H1208 C1192 0.931 . S
H1209 C1197 0.930 . S
H1210 C1198 0.956 . S
H1211 C1198 0.961 . S
H1212 C1198 0.961 . S
H1213 C1199 0.958 . S
H1214 C1199 0.961 . S
H1215 C1199 0.960 . S
C1216 C1217 1.391 . S
C1216 C1218 1.394 . S
C1216 H1232 0.931 . S
C1217 C1216 1.391 . S
C1217 C1221 1.376 . S
C1218 C1216 1.394 . S
C1218 C1219 1.369 . S
C1218 C1222 1.531 . S
C1219 C1218 1.369 . S
C1219 C1220 1.410 . S
C1219 C1227 1.503 . S
C1220 C1219 1.410 . S
C1220 C1221 1.392 . S
C1220 C1223 1.511 . S
C1221 C1217 1.376 . S
C1221 C1220 1.392 . S
C1221 H1233 0.929 . S
C1222 C1218 1.531 . S
C1222 H1234 0.960 . S
C1222 H1235 0.962 . S
C1222 H1236 0.960 . S
C1223 C1220 1.511 . S
C1223 H1237 0.961 . S
C1223 H1238 0.961 . S
C1223 H1239 0.961 . S
C1224 C1225 1.370 . S
C1224 C1226 1.363 . S
C1224 H1240 0.931 . S
C1225 C1224 1.370 . S
C1225 C1229 1.408 . S
C1226 C1224 1.363 . S
C1226 C1227 1.370 . S
C1226 C1230 1.524 . S
C1227 C1219 1.503 . S
C1227 C1226 1.370 . S
C1227 C1228 1.403 . S
C1228 C1227 1.403 . S
C1228 C1229 1.404 . S
C1228 C1231 1.539 . S
C1229 C1225 1.408 . S
C1229 C1228 1.404 . S
C1229 H1241 0.930 . S
C1230 C1226 1.524 . S
C1230 H1242 0.956 . S
C1230 H1243 0.961 . S
C1230 H1244 0.961 . S
C1231 C1228 1.539 . S
C1231 H1245 0.958 . S
C1231 H1246 0.961 . S
C1231 H1247 0.960 . S
H1232 C1216 0.931 . S
H1233 C1221 0.929 . S
H1234 C1222 0.960 . S
H1235 C1222 0.962 . S
H1236 C1222 0.960 . S
H1237 C1223 0.961 . S
H1238 C1223 0.961 . S
H1239 C1223 0.961 . S
H1240 C1224 0.931 . S
H1241 C1229 0.930 . S
H1242 C1230 0.956 . S
H1243 C1230 0.961 . S
H1244 C1230 0.961 . S
H1245 C1231 0.958 . S
H1246 C1231 0.961 . S
H1247 C1231 0.960 . S
C1248 C1249 1.391 . S
C1248 C1250 1.394 . S
C1248 H1264 0.931 . S
C1249 C1248 1.391 . S
C1249 C1253 1.376 . S
C1250 C1248 1.394 . S
C1250 C1251 1.369 . S
C1250 C1254 1.531 . S
C1251 C1250 1.369 . S
C1251 C1252 1.410 . S
C1251 C1259 1.503 . S
C1252 C1251 1.410 . S
C1252 C1253 1.392 . S
C1252 C1255 1.511 . S
C1253 C1249 1.376 . S
C1253 C1252 1.392 . S
C1253 H1265 0.929 . S
C1254 C1250 1.531 . S
C1254 H1266 0.960 . S
C1254 H1267 0.962 . S
C1254 H1268 0.960 . S
C1255 C1252 1.511 . S
C1255 H1269 0.961 . S
C1255 H1270 0.961 . S
C1255 H1271 0.961 . S
C1256 C1257 1.370 . S
C1256 C1258 1.363 . S
C1256 H1272 0.931 . S
C1257 C1256 1.370 . S
C1257 C1261 1.408 . S
C1258 C1256 1.363 . S
C1258 C1259 1.370 . S
C1258 C1262 1.524 . S
C1259 C1251 1.503 . S
C1259 C1258 1.370 . S
C1259 C1260 1.403 . S
C1260 C1259 1.403 . S
C1260 C1261 1.404 . S
C1260 C1263 1.539 . S
C1261 C1257 1.408 . S
C1261 C1260 1.404 . S
C1261 H1273 0.930 . S
C1262 C1258 1.524 . S
C1262 H1274 0.956 . S
C1262 H1275 0.961 . S
C1262 H1276 0.961 . S
C1263 C1260 1.539 . S
C1263 H1277 0.958 . S
C1263 H1278 0.961 . S
C1263 H1279 0.960 . S
H1264 C1248 0.931 . S
H1265 C1253 0.929 . S
H1266 C1254 0.960 . S
H1267 C1254 0.962 . S
H1268 C1254 0.960 . S
H1269 C1255 0.961 . S
H1270 C1255 0.961 . S
H1271 C1255 0.961 . S
H1272 C1256 0.931 . S
H1273 C1261 0.930 . S
H1274 C1262 0.956 . S
H1275 C1262 0.961 . S
H1276 C1262 0.961 . S
H1277 C1263 0.958 . S
H1278 C1263 0.961 . S
H1279 C1263 0.960 . S
C1280 C1281 1.391 . S
C1280 C1282 1.394 . S
C1280 H1296 0.931 . S
C1281 C1280 1.391 . S
C1281 C1285 1.376 . S
C1282 C1280 1.394 . S
C1282 C1283 1.369 . S
C1282 C1286 1.531 . S
C1283 C1282 1.369 . S
C1283 C1284 1.410 . S
C1283 C1291 1.503 . S
C1284 C1283 1.410 . S
C1284 C1285 1.392 . S
C1284 C1287 1.511 . S
C1285 C1281 1.376 . S
C1285 C1284 1.392 . S
C1285 H1297 0.929 . S
C1286 C1282 1.531 . S
C1286 H1298 0.960 . S
C1286 H1299 0.962 . S
C1286 H1300 0.960 . S
C1287 C1284 1.511 . S
C1287 H1301 0.961 . S
C1287 H1302 0.961 . S
C1287 H1303 0.961 . S
C1288 C1289 1.370 . S
C1288 C1290 1.363 . S
C1288 H1304 0.931 . S
C1289 C1288 1.370 . S
C1289 C1293 1.408 . S
C1290 C1288 1.363 . S
C1290 C1291 1.370 . S
C1290 C1294 1.524 . S
C1291 C1283 1.503 . S
C1291 C1290 1.370 . S
C1291 C1292 1.403 . S
C1292 C1291 1.403 . S
C1292 C1293 1.404 . S
C1292 C1295 1.539 . S
C1293 C1289 1.408 . S
C1293 C1292 1.404 . S
C1293 H1305 0.930 . S
C1294 C1290 1.524 . S
C1294 H1306 0.956 . S
C1294 H1307 0.961 . S
C1294 H1308 0.961 . S
C1295 C1292 1.539 . S
C1295 H1309 0.958 . S
C1295 H1310 0.961 . S
C1295 H1311 0.960 . S
H1296 C1280 0.931 . S
H1297 C1285 0.929 . S
H1298 C1286 0.960 . S
H1299 C1286 0.962 . S
H1300 C1286 0.960 . S
H1301 C1287 0.961 . S
H1302 C1287 0.961 . S
H1303 C1287 0.961 . S
H1304 C1288 0.931 . S
H1305 C1293 0.930 . S
H1306 C1294 0.956 . S
H1307 C1294 0.961 . S
H1308 C1294 0.961 . S
H1309 C1295 0.958 . S
H1310 C1295 0.961 . S
H1311 C1295 0.960 . S
C1312 C1313 1.391 . S
C1312 C1314 1.394 . S
C1312 H1328 0.931 . S
C1313 C1312 1.391 . S
C1313 C1317 1.376 . S
C1314 C1312 1.394 . S
C1314 C1315 1.369 . S
C1314 C1318 1.531 . S
C1315 C1314 1.369 . S
C1315 C1316 1.410 . S
C1315 C1323 1.503 1_544 S
C1316 C1315 1.410 . S
C1316 C1317 1.392 . S
C1316 C1319 1.511 1_544 S
C1317 C1313 1.376 . S
C1317 C1316 1.392 . S
C1317 H1329 0.929 . S
C1318 C1314 1.531 . S
C1318 H1330 0.960 . S
C1318 H1331 0.962 . S
C1318 H1332 0.960 . S
C1319 C1316 1.511 1_566 S
C1319 H1333 0.961 . S
C1319 H1334 0.961 . S
C1319 H1335 0.961 1_565 S
C1320 C1321 1.370 . S
C1320 C1322 1.363 . S
C1320 H1336 0.931 . S
C1321 C1320 1.370 . S
C1321 C1325 1.408 1_565 S
C1322 C1320 1.363 . S
C1322 C1323 1.370 . S
C1322 C1326 1.524 1_556 S
C1323 C1315 1.503 1_566 S
C1323 C1322 1.370 . S
C1323 C1324 1.403 1_565 S
C1324 C1323 1.403 1_545 S
C1324 C1325 1.404 . S
C1324 C1327 1.539 . S
C1325 C1321 1.408 1_545 S
C1325 C1324 1.404 . S
C1325 H1337 0.930 . S
C1326 C1322 1.524 1_554 S
C1326 H1338 0.956 . S
C1326 H1339 0.961 . S
C1326 H1340 0.961 . S
C1327 C1324 1.539 . S
C1327 H1341 0.958 . S
C1327 H1342 0.961 . S
C1327 H1343 0.960 . S
H1328 C1312 0.931 . S
H1329 C1317 0.929 . S
H1330 C1318 0.960 . S
H1331 C1318 0.962 . S
H1332 C1318 0.960 . S
H1333 C1319 0.961 . S
H1334 C1319 0.961 . S
H1335 C1319 0.961 1_545 S
H1336 C1320 0.931 . S
H1337 C1325 0.930 . S
H1338 C1326 0.956 . S
H1339 C1326 0.961 . S
H1340 C1326 0.961 . S
H1341 C1327 0.958 . S
H1342 C1327 0.961 . S
H1343 C1327 0.960 . S
C1344 C1345 1.391 . S
C1344 C1346 1.394 . S
C1344 H1360 0.931 . S
C1345 C1344 1.391 . S
C1345 C1349 1.376 . S
C1346 C1344 1.394 . S
C1346 C1347 1.369 . S
C1346 C1350 1.531 . S
C1347 C1346 1.369 . S
C1347 C1348 1.410 . S
C1347 C1355 1.503 1_554 S
C1348 C1347 1.410 . S
C1348 C1349 1.392 . S
C1348 C1351 1.511 1_554 S
C1349 C1345 1.376 . S
C1349 C1348 1.392 . S
C1349 H1361 0.929 . S
C1350 C1346 1.531 . S
C1350 H1362 0.960 . S
C1350 H1363 0.962 . S
C1350 H1364 0.960 . S
C1351 C1348 1.511 1_556 S
C1351 H1365 0.961 . S
C1351 H1366 0.961 . S
C1351 H1367 0.962 . S
C1352 C1353 1.370 . S
C1352 C1354 1.363 . S
C1352 H1368 0.931 . S
C1353 C1352 1.370 . S
C1353 C1357 1.408 . S
C1354 C1352 1.363 . S
C1354 C1355 1.370 . S
C1354 C1358 1.524 . S
C1355 C1347 1.503 1_556 S
C1355 C1354 1.370 . S
C1355 C1356 1.403 . S
C1356 C1355 1.403 . S
C1356 C1357 1.404 . S
C1356 C1359 1.539 1_556 S
C1357 C1353 1.408 . S
C1357 C1356 1.404 . S
C1357 H1369 0.930 . S
C1358 C1354 1.524 . S
C1358 H1370 0.956 . S
C1358 H1371 0.961 . S
C1358 H1372 0.961 . S
C1359 C1356 1.539 1_554 S
C1359 H1373 0.958 . S
C1359 H1374 0.961 . S
C1359 H1375 0.960 . S
H1360 C1344 0.931 . S
H1361 C1349 0.929 . S
H1362 C1350 0.960 . S
H1363 C1350 0.962 . S
H1364 C1350 0.960 . S
H1365 C1351 0.961 . S
H1366 C1351 0.961 . S
H1367 C1351 0.962 . S
H1368 C1352 0.931 . S
H1369 C1357 0.930 . S
H1370 C1358 0.956 . S
H1371 C1358 0.961 . S
H1372 C1358 0.961 . S
H1373 C1359 0.958 . S
H1374 C1359 0.961 . S
H1375 C1359 0.960 . S
C1376 C1377 1.391 . S
C1376 C1378 1.394 . S
C1376 H1392 0.931 . S
C1377 C1376 1.391 . S
C1377 C1381 1.376 . S
C1378 C1376 1.394 . S
C1378 C1379 1.369 . S
C1378 C1382 1.531 1_554 S
C1379 C1378 1.369 . S
C1379 C1380 1.410 1_655 S
C1379 C1387 1.503 1_654 S
C1380 C1379 1.410 1_455 S
C1380 C1381 1.392 1_455 S
C1380 C1383 1.511 . S
C1381 C1377 1.376 . S
C1381 C1380 1.392 1_655 S
C1381 H1393 0.929 . S
C1382 C1378 1.531 1_556 S
C1382 H1394 0.960 . S
C1382 H1395 0.962 . S
C1382 H1396 0.960 1_556 S
C1383 C1380 1.511 . S
C1383 H1397 0.961 . S
C1383 H1398 0.961 . S
C1383 H1399 0.961 . S
C1384 C1385 1.370 . S
C1384 C1386 1.363 . S
C1384 H1400 0.931 . S
C1385 C1384 1.370 . S
C1385 C1389 1.408 . S
C1386 C1384 1.363 . S
C1386 C1387 1.370 . S
C1386 C1390 1.524 1_455 S
C1387 C1379 1.503 1_456 S
C1387 C1386 1.370 . S
C1387 C1388 1.403 . S
C1388 C1387 1.403 . S
C1388 C1389 1.404 . S
C1388 C1391 1.539 1_556 S
C1389 C1385 1.408 . S
C1389 C1388 1.404 . S
C1389 H1401 0.930 . S
C1390 C1386 1.524 1_655 S
C1390 H1402 0.956 . S
C1390 H1403 0.961 . S
C1390 H1404 0.961 . S
C1391 C1388 1.539 1_554 S
C1391 H1405 0.958 . S
C1391 H1406 0.961 . S
C1391 H1407 0.960 . S
H1392 C1376 0.931 . S
H1393 C1381 0.929 . S
H1394 C1382 0.960 . S
H1395 C1382 0.962 . S
H1396 C1382 0.960 1_554 S
H1397 C1383 0.961 . S
H1398 C1383 0.961 . S
H1399 C1383 0.961 . S
H1400 C1384 0.931 . S
H1401 C1389 0.930 . S
H1402 C1390 0.956 . S
H1403 C1390 0.961 . S
H1404 C1390 0.961 . S
H1405 C1391 0.958 . S
H1406 C1391 0.961 . S
H1407 C1391 0.960 . S
C1408 C1409 1.391 . S
C1408 C1410 1.394 . S
C1408 H1424 0.931 . S
C1409 C1408 1.391 . S
C1409 C1413 1.376 1_655 S
C1410 C1408 1.394 . S
C1410 C1411 1.369 . S
C1410 C1414 1.531 1_556 S
C1411 C1410 1.369 . S
C1411 C1412 1.410 1_655 S
C1411 C1419 1.503 1_646 S
C1412 C1411 1.410 1_455 S
C1412 C1413 1.392 . S
C1412 C1415 1.511 1_545 S
C1413 C1409 1.376 1_455 S
C1413 C1412 1.392 . S
C1413 H1425 0.929 . S
C1414 C1410 1.531 1_554 S
C1414 H1426 0.960 1_545 S
C1414 H1427 0.962 . S
C1414 H1428 0.960 . S
C1415 C1412 1.511 1_565 S
C1415 H1429 0.961 1_565 S
C1415 H1430 0.961 . S
C1415 H1431 0.961 . S
C1416 C1417 1.370 . S
C1416 C1418 1.363 1_565 S
C1416 H1432 0.931 . S
C1417 C1416 1.370 . S
C1417 C1421 1.408 . S
C1418 C1416 1.363 1_545 S
C1418 C1419 1.370 1_545 S
C1418 C1422 1.524 . S
C1419 C1411 1.503 1_464 S
C1419 C1418 1.370 1_565 S
C1419 C1420 1.403 . S
C1420 C1419 1.403 . S
C1420 C1421 1.404 . S
C1420 C1423 1.539 1_454 S
C1421 C1417 1.408 . S
C1421 C1420 1.404 . S
C1421 H1433 0.930 . S
C1422 C1418 1.524 . S
C1422 H1434 0.956 1_455 S
C1422 H1435 0.961 . S
C1422 H1436 0.961 . S
C1423 C1420 1.539 1_656 S
C1423 H1437 0.958 . S
C1423 H1438 0.961 1_655 S
C1423 H1439 0.960 . S
H1424 C1408 0.931 . S
H1425 C1413 0.929 . S
H1426 C1414 0.960 1_565 S
H1427 C1414 0.962 . S
H1428 C1414 0.960 . S
H1429 C1415 0.961 1_545 S
H1430 C1415 0.961 . S
H1431 C1415 0.961 . S
H1432 C1416 0.931 . S
H1433 C1421 0.930 . S
H1434 C1422 0.956 1_655 S
H1435 C1422 0.961 . S
H1436 C1422 0.961 . S
H1437 C1423 0.958 . S
H1438 C1423 0.961 1_455 S
H1439 C1423 0.960 . S
C1440 C1441 1.391 . S
C1440 C1442 1.395 1_645 S
C1440 H1456 0.931 . S
C1441 C1440 1.391 . S
C1441 C1445 1.376 . S
C1442 C1440 1.395 1_465 S
C1442 C1443 1.370 1_455 S
C1442 C1446 1.528 . S
C1443 C1442 1.370 1_655 S
C1443 C1444 1.410 1_565 S
C1443 C1451 1.503 1_655 S
C1444 C1443 1.410 1_545 S
C1444 C1445 1.392 . S
C1444 C1447 1.511 . S
C1445 C1441 1.376 . S
C1445 C1444 1.392 . S
C1445 H1457 0.929 . S
C1446 C1442 1.528 . S
C1446 H1458 0.960 . S
C1446 H1459 0.962 . S
C1446 H1460 0.960 . S
C1447 C1444 1.511 . S
C1447 H1461 0.961 . S
C1447 H1462 0.961 . S
C1447 H1463 0.961 1_545 S
C1448 C1449 1.370 1_545 S
C1448 C1450 1.363 . S
C1448 H1464 0.931 . S
C1449 C1448 1.370 1_565 S
C1449 C1453 1.408 . S
C1450 C1448 1.363 . S
C1450 C1451 1.370 1_545 S
C1450 C1454 1.524 . S
C1451 C1443 1.503 1_455 S
C1451 C1450 1.370 1_565 S
C1451 C1452 1.403 . S
C1452 C1451 1.403 . S
C1452 C1453 1.404 . S
C1452 C1455 1.539 1_455 S
C1453 C1449 1.408 . S
C1453 C1452 1.404 . S
C1453 H1465 0.930 . S
C1454 C1450 1.524 . S
C1454 H1466 0.956 . S
C1454 H1467 0.961 . S
C1454 H1468 0.961 . S
C1455 C1452 1.539 1_655 S
C1455 H1469 0.958 . S
C1455 H1470 0.961 . S
C1455 H1471 0.960 . S
H1456 C1440 0.931 . S
H1457 C1445 0.929 . S
H1458 C1446 0.960 . S
H1459 C1446 0.962 . S
H1460 C1446 0.960 . S
H1461 C1447 0.961 . S
H1462 C1447 0.961 . S
H1463 C1447 0.961 1_565 S
H1464 C1448 0.931 . S
H1465 C1453 0.930 . S
H1466 C1454 0.956 . S
H1467 C1454 0.961 . S
H1468 C1454 0.961 . S
H1469 C1455 0.958 . S
H1470 C1455 0.961 . S
H1471 C1455 0.960 . S
C1472 C1473 1.391 . S
C1472 C1474 1.394 . S
C1472 H1488 0.931 . S
C1473 C1472 1.391 . S
C1473 C1477 1.376 . S
C1474 C1472 1.394 . S
C1474 C1475 1.369 . S
C1474 C1478 1.531 1_545 S
C1475 C1474 1.369 . S
C1475 C1476 1.410 . S
C1475 C1483 1.503 1_545 S
C1476 C1475 1.410 . S
C1476 C1477 1.392 . S
C1476 C1479 1.511 . S
C1477 C1473 1.376 . S
C1477 C1476 1.392 . S
C1477 H1489 0.929 . S
C1478 C1474 1.531 1_565 S
C1478 H1490 0.960 . S
C1478 H1491 0.962 . S
C1478 H1492 0.960 . S
C1479 C1476 1.511 . S
C1479 H1493 0.961 . S
C1479 H1494 0.961 . S
C1479 H1495 0.961 . S
C1480 C1481 1.370 . S
C1480 C1482 1.359 1_565 S
C1480 H1496 0.931 . S
C1481 C1480 1.370 . S
C1481 C1485 1.408 . S
C1482 C1480 1.359 1_545 S
C1482 C1483 1.367 1_545 S
C1482 C1486 1.532 . S
C1483 C1475 1.503 1_565 S
C1483 C1482 1.367 1_565 S
C1483 C1484 1.403 . S
C1484 C1483 1.403 . S
C1484 C1485 1.404 . S
C1484 C1487 1.539 . S
C1485 C1481 1.408 . S
C1485 C1484 1.404 . S
C1485 H1497 0.930 . S
C1486 C1482 1.532 . S
C1486 H1498 0.956 . S
C1486 H1499 0.961 . S
C1486 H1500 0.961 . S
C1487 C1484 1.539 . S
C1487 H1501 0.958 . S
C1487 H1502 0.961 . S
C1487 H1503 0.960 . S
H1488 C1472 0.931 . S
H1489 C1477 0.929 . S
H1490 C1478 0.960 . S
H1491 C1478 0.962 . S
H1492 C1478 0.960 . S
H1493 C1479 0.961 . S
H1494 C1479 0.961 . S
H1495 C1479 0.961 . S
H1496 C1480 0.931 . S
H1497 C1485 0.930 . S
H1498 C1486 0.956 . S
H1499 C1486 0.961 . S
H1500 C1486 0.961 . S
H1501 C1487 0.958 . S
H1502 C1487 0.961 . S
H1503 C1487 0.960 . S
C1504 C1505 1.391 . S
C1504 C1506 1.394 . S
C1504 H1520 0.931 . S
C1505 C1504 1.391 . S
C1505 C1509 1.376 . S
C1506 C1504 1.394 . S
C1506 C1507 1.369 . S
C1506 C1510 1.531 . S
C1507 C1506 1.369 . S
C1507 C1508 1.410 . S
C1507 C1515 1.503 . S
C1508 C1507 1.410 . S
C1508 C1509 1.392 . S
C1508 C1511 1.511 . S
C1509 C1505 1.376 . S
C1509 C1508 1.392 . S
C1509 H1521 0.929 . S
C1510 C1506 1.531 . S
C1510 H1522 0.960 . S
C1510 H1523 0.962 . S
C1510 H1524 0.960 . S
C1511 C1508 1.511 . S
C1511 H1525 0.961 . S
C1511 H1526 0.961 . S
C1511 H1527 0.961 . S
C1512 C1513 1.370 . S
C1512 C1514 1.363 . S
C1512 H1528 0.931 . S
C1513 C1512 1.370 . S
C1513 C1517 1.408 . S
C1514 C1512 1.363 . S
C1514 C1515 1.370 . S
C1514 C1518 1.524 . S
C1515 C1507 1.503 . S
C1515 C1514 1.370 . S
C1515 C1516 1.403 . S
C1516 C1515 1.403 . S
C1516 C1517 1.404 . S
C1516 C1519 1.539 . S
C1517 C1513 1.408 . S
C1517 C1516 1.404 . S
C1517 H1529 0.930 . S
C1518 C1514 1.524 . S
C1518 H1530 0.956 . S
C1518 H1531 0.961 . S
C1518 H1532 0.961 . S
C1519 C1516 1.539 . S
C1519 H1533 0.958 . S
C1519 H1534 0.961 . S
C1519 H1535 0.960 . S
H1520 C1504 0.931 . S
H1521 C1509 0.929 . S
H1522 C1510 0.960 . S
H1523 C1510 0.962 . S
H1524 C1510 0.960 . S
H1525 C1511 0.961 . S
H1526 C1511 0.961 . S
H1527 C1511 0.961 . S
H1528 C1512 0.931 . S
H1529 C1517 0.930 . S
H1530 C1518 0.956 . S
H1531 C1518 0.961 . S
H1532 C1518 0.961 . S
H1533 C1519 0.958 . S
H1534 C1519 0.961 . S
H1535 C1519 0.960 . S
C1536 C1537 1.391 1_655 S
C1536 C1538 1.394 . S
C1536 H1552 0.931 . S
C1537 C1536 1.391 1_455 S
C1537 C1541 1.376 . S
C1538 C1536 1.394 . S
C1538 C1539 1.369 1_655 S
C1538 C1542 1.531 . S
C1539 C1538 1.369 1_455 S
C1539 C1540 1.410 . S
C1539 C1547 1.503 1_455 S
C1540 C1539 1.410 . S
C1540 C1541 1.392 . S
C1540 C1543 1.511 . S
C1541 C1537 1.376 . S
C1541 C1540 1.392 . S
C1541 H1553 0.929 . S
C1542 C1538 1.531 . S
C1542 H1554 0.960 . S
C1542 H1555 0.962 . S
C1542 H1556 0.960 . S
C1543 C1540 1.511 . S
C1543 H1557 0.961 . S
C1543 H1558 0.961 . S
C1543 H1559 0.961 . S
C1544 C1545 1.370 . S
C1544 C1546 1.363 1_655 S
C1544 H1560 0.931 1_655 S
C1545 C1544 1.370 . S
C1545 C1549 1.408 . S
C1546 C1544 1.363 1_455 S
C1546 C1547 1.370 1_455 S
C1546 C1550 1.524 . S
C1547 C1539 1.503 1_655 S
C1547 C1546 1.370 1_655 S
C1547 C1548 1.403 . S
C1548 C1547 1.403 . S
C1548 C1549 1.404 . S
C1548 C1551 1.539 . S
C1549 C1545 1.408 . S
C1549 C1548 1.404 . S
C1549 H1561 0.930 . S
C1550 C1546 1.524 . S
C1550 H1562 0.956 . S
C1550 H1563 0.961 . S
C1550 H1564 0.961 . S
C1551 C1548 1.539 . S
C1551 H1565 0.958 . S
C1551 H1566 0.961 . S
C1551 H1567 0.960 . S
H1552 C1536 0.931 . S
H1553 C1541 0.929 . S
H1554 C1542 0.960 . S
H1555 C1542 0.962 . S
H1556 C1542 0.960 . S
H1557 C1543 0.961 . S
H1558 C1543 0.961 . S
H1559 C1543 0.961 . S
H1560 C1544 0.931 1_455 S
H1561 C1549 0.930 . S
H1562 C1550 0.956 . S
H1563 C1550 0.961 . S
H1564 C1550 0.961 . S
H1565 C1551 0.958 . S
H1566 C1551 0.961 . S
H1567 C1551 0.960 . S
C1568 C1569 1.391 . S
C1568 C1570 1.394 . S
C1568 H1584 0.931 . S
C1569 C1568 1.391 . S
C1569 C1573 1.376 . S
C1570 C1568 1.394 . S
C1570 C1571 1.369 . S
C1570 C1574 1.531 . S
C1571 C1570 1.369 . S
C1571 C1572 1.410 . S
C1571 C1579 1.503 . S
C1572 C1571 1.410 . S
C1572 C1573 1.392 . S
C1572 C1575 1.511 . S
C1573 C1569 1.376 . S
C1573 C1572 1.392 . S
C1573 H1585 0.929 . S
C1574 C1570 1.531 . S
C1574 H1586 0.960 . S
C1574 H1587 0.962 . S
C1574 H1588 0.960 . S
C1575 C1572 1.511 . S
C1575 H1589 0.961 . S
C1575 H1590 0.961 . S
C1575 H1591 0.961 . S
C1576 C1577 1.370 . S
C1576 C1578 1.363 . S
C1576 H1592 0.931 . S
C1577 C1576 1.370 . S
C1577 C1581 1.408 . S
C1578 C1576 1.363 . S
C1578 C1579 1.370 . S
C1578 C1582 1.524 . S
C1579 C1571 1.503 . S
C1579 C1578 1.370 . S
C1579 C1580 1.403 . S
C1580 C1579 1.403 . S
C1580 C1581 1.404 . S
C1580 C1583 1.539 . S
C1581 C1577 1.408 . S
C1581 C1580 1.404 . S
C1581 H1593 0.930 . S
C1582 C1578 1.524 . S
C1582 H1594 0.956 . S
C1582 H1595 0.961 . S
C1582 H1596 0.961 . S
C1583 C1580 1.539 . S
C1583 H1597 0.958 1_545 S
C1583 H1598 0.961 1_545 S
C1583 H1599 0.960 . S
H1584 C1568 0.931 . S
H1585 C1573 0.929 . S
H1586 C1574 0.960 . S
H1587 C1574 0.962 . S
H1588 C1574 0.960 . S
H1589 C1575 0.961 . S
H1590 C1575 0.961 . S
H1591 C1575 0.961 . S
H1592 C1576 0.931 . S
H1593 C1581 0.930 . S
H1594 C1582 0.956 . S
H1595 C1582 0.961 . S
H1596 C1582 0.961 . S
H1597 C1583 0.958 1_565 S
H1598 C1583 0.961 1_565 S
H1599 C1583 0.960 . S
C1600 C1601 1.391 . S
C1600 C1602 1.394 . S
C1600 H1616 0.931 . S
C1601 C1600 1.391 . S
C1601 C1605 1.376 . S
C1602 C1600 1.394 . S
C1602 C1603 1.369 . S
C1602 C1606 1.531 . S
C1603 C1602 1.369 . S
C1603 C1604 1.410 . S
C1603 C1611 1.503 . S
C1604 C1603 1.410 . S
C1604 C1605 1.392 . S
C1604 C1607 1.511 . S
C1605 C1601 1.376 . S
C1605 C1604 1.392 . S
C1605 H1617 0.929 . S
C1606 C1602 1.531 . S
C1606 H1618 0.960 . S
C1606 H1619 0.962 . S
C1606 H1620 0.960 . S
C1607 C1604 1.511 . S
C1607 H1621 0.961 . S
C1607 H1622 0.961 . S
C1607 H1623 0.961 . S
C1608 C1609 1.370 . S
C1608 C1610 1.363 . S
C1608 H1624 0.931 . S
C1609 C1608 1.370 . S
C1609 C1613 1.408 . S
C1610 C1608 1.363 . S
C1610 C1611 1.370 . S
C1610 C1614 1.524 . S
C1611 C1603 1.503 . S
C1611 C1610 1.370 . S
C1611 C1612 1.403 . S
C1612 C1611 1.403 . S
C1612 C1613 1.404 . S
C1612 C1615 1.539 . S
C1613 C1609 1.408 . S
C1613 C1612 1.404 . S
C1613 H1625 0.930 . S
C1614 C1610 1.524 . S
C1614 H1626 0.956 . S
C1614 H1627 0.961 . S
C1614 H1628 0.961 . S
C1615 C1612 1.539 . S
C1615 H1629 0.958 . S
C1615 H1630 0.961 . S
C1615 H1631 0.960 . S
H1616 C1600 0.931 . S
H1617 C1605 0.929 . S
H1618 C1606 0.960 . S
H1619 C1606 0.962 . S
H1620 C1606 0.960 . S
H1621 C1607 0.961 . S
H1622 C1607 0.961 . S
H1623 C1607 0.961 . S
H1624 C1608 0.931 . S
H1625 C1613 0.930 . S
H1626 C1614 0.956 . S
H1627 C1614 0.961 . S
H1628 C1614 0.961 . S
H1629 C1615 0.958 . S
H1630 C1615 0.961 . S
H1631 C1615 0.960 . S
C1632 C1633 1.391 . S
C1632 C1634 1.394 . S
C1632 H1648 0.931 . S
C1633 C1632 1.391 . S
C1633 C1637 1.376 . S
C1634 C1632 1.394 . S
C1634 C1635 1.369 . S
C1634 C1638 1.531 . S
C1635 C1634 1.369 . S
C1635 C1636 1.410 . S
C1635 C1643 1.503 . S
C1636 C1635 1.410 . S
C1636 C1637 1.392 . S
C1636 C1639 1.511 . S
C1637 C1633 1.376 . S
C1637 C1636 1.392 . S
C1637 H1649 0.929 . S
C1638 C1634 1.531 . S
C1638 H1650 0.960 . S
C1638 H1651 0.962 . S
C1638 H1652 0.960 . S
C1639 C1636 1.511 . S
C1639 H1653 0.961 . S
C1639 H1654 0.961 . S
C1639 H1655 0.961 1_655 S
C1640 C1641 1.370 . S
C1640 C1642 1.363 . S
C1640 H1656 0.931 . S
C1641 C1640 1.370 . S
C1641 C1645 1.408 . S
C1642 C1640 1.363 . S
C1642 C1643 1.370 . S
C1642 C1646 1.524 . S
C1643 C1635 1.503 . S
C1643 C1642 1.370 . S
C1643 C1644 1.403 . S
C1644 C1643 1.403 . S
C1644 C1645 1.404 . S
C1644 C1647 1.539 . S
C1645 C1641 1.408 . S
C1645 C1644 1.404 . S
C1645 H1657 0.930 . S
C1646 C1642 1.524 . S
C1646 H1658 0.956 . S
C1646 H1659 0.961 . S
C1646 H1660 0.961 . S
C1647 C1644 1.539 . S
C1647 H1661 0.958 . S
C1647 H1662 0.961 . S
C1647 H1663 0.960 . S
H1648 C1632 0.931 . S
H1649 C1637 0.929 . S
H1650 C1638 0.960 . S
H1651 C1638 0.962 . S
H1652 C1638 0.960 . S
H1653 C1639 0.961 . S
H1654 C1639 0.961 . S
H1655 C1639 0.961 1_455 S
H1656 C1640 0.931 . S
H1657 C1645 0.930 . S
H1658 C1646 0.956 . S
H1659 C1646 0.961 . S
H1660 C1646 0.961 . S
H1661 C1647 0.958 . S
H1662 C1647 0.961 . S
H1663 C1647 0.960 . S
C1664 C1665 1.391 . S
C1664 C1666 1.394 . S
C1664 H1680 0.931 . S
C1665 C1664 1.391 . S
C1665 C1669 1.376 . S
C1666 C1664 1.394 . S
C1666 C1667 1.369 . S
C1666 C1670 1.531 . S
C1667 C1666 1.369 . S
C1667 C1668 1.410 . S
C1667 C1675 1.503 . S
C1668 C1667 1.410 . S
C1668 C1669 1.392 . S
C1668 C1671 1.511 . S
C1669 C1665 1.376 . S
C1669 C1668 1.392 . S
C1669 H1681 0.929 . S
C1670 C1666 1.531 . S
C1670 H1682 0.960 . S
C1670 H1683 0.962 . S
C1670 H1684 0.960 . S
C1671 C1668 1.511 . S
C1671 H1685 0.961 . S
C1671 H1686 0.961 . S
C1671 H1687 0.961 1_455 S
C1672 C1673 1.370 . S
C1672 C1674 1.363 . S
C1672 H1688 0.931 . S
C1673 C1672 1.370 . S
C1673 C1677 1.408 . S
C1674 C1672 1.363 . S
C1674 C1675 1.370 . S
C1674 C1678 1.524 . S
C1675 C1667 1.503 . S
C1675 C1674 1.370 . S
C1675 C1676 1.403 . S
C1676 C1675 1.403 . S
C1676 C1677 1.404 . S
C1676 C1679 1.539 . S
C1677 C1673 1.408 . S
C1677 C1676 1.404 . S
C1677 H1689 0.930 . S
C1678 C1674 1.524 . S
C1678 H1690 0.956 . S
C1678 H1691 0.961 . S
C1678 H1692 0.961 . S
C1679 C1676 1.539 . S
C1679 H1693 0.958 . S
C1679 H1694 0.961 . S
C1679 H1695 0.960 . S
H1680 C1664 0.931 . S
H1681 C1669 0.929 . S
H1682 C1670 0.960 . S
H1683 C1670 0.962 . S
H1684 C1670 0.960 . S
H1685 C1671 0.961 . S
H1686 C1671 0.961 . S
H1687 C1671 0.961 1_655 S
H1688 C1672 0.931 . S
H1689 C1677 0.930 . S
H1690 C1678 0.956 . S
H1691 C1678 0.961 . S
H1692 C1678 0.961 . S
H1693 C1679 0.958 . S
H1694 C1679 0.961 . S
H1695 C1679 0.960 . S
C1696 C1697 1.391 . S
C1696 C1698 1.394 . S
C1696 H1712 0.931 . S
C1697 C1696 1.391 . S
C1697 C1701 1.376 . S
C1698 C1696 1.394 . S
C1698 C1699 1.369 . S
C1698 C1702 1.531 . S
C1699 C1698 1.369 . S
C1699 C1700 1.410 . S
C1699 C1707 1.503 . S
C1700 C1699 1.410 . S
C1700 C1701 1.392 . S
C1700 C1703 1.511 . S
C1701 C1697 1.376 . S
C1701 C1700 1.392 . S
C1701 H1713 0.929 . S
C1702 C1698 1.531 . S
C1702 H1714 0.960 . S
C1702 H1715 0.962 . S
C1702 H1716 0.960 . S
C1703 C1700 1.511 . S
C1703 H1717 0.961 . S
C1703 H1718 0.961 . S
C1703 H1719 0.961 . S
C1704 C1705 1.370 . S
C1704 C1706 1.363 . S
C1704 H1720 0.931 . S
C1705 C1704 1.370 . S
C1705 C1709 1.408 . S
C1706 C1704 1.363 . S
C1706 C1707 1.370 . S
C1706 C1710 1.524 . S
C1707 C1699 1.503 . S
C1707 C1706 1.370 . S
C1707 C1708 1.403 . S
C1708 C1707 1.403 . S
C1708 C1709 1.404 . S
C1708 C1711 1.539 . S
C1709 C1705 1.408 . S
C1709 C1708 1.404 . S
C1709 H1721 0.930 . S
C1710 C1706 1.524 . S
C1710 H1722 0.956 . S
C1710 H1723 0.961 . S
C1710 H1724 0.961 . S
C1711 C1708 1.539 . S
C1711 H1725 0.958 . S
C1711 H1726 0.961 . S
C1711 H1727 0.960 . S
H1712 C1696 0.931 . S
H1713 C1701 0.929 . S
H1714 C1702 0.960 . S
H1715 C1702 0.962 . S
H1716 C1702 0.960 . S
H1717 C1703 0.961 . S
H1718 C1703 0.961 . S
H1719 C1703 0.961 . S
H1720 C1704 0.931 . S
H1721 C1709 0.930 . S
H1722 C1710 0.956 . S
H1723 C1710 0.961 . S
H1724 C1710 0.961 . S
H1725 C1711 0.958 . S
H1726 C1711 0.961 . S
H1727 C1711 0.960 . S
C1728 C1729 1.391 . S
C1728 C1730 1.394 . S
C1728 H1744 0.931 . S
C1729 C1728 1.391 . S
C1729 C1733 1.376 . S
C1730 C1728 1.394 . S
C1730 C1731 1.369 . S
C1730 C1734 1.531 . S
C1731 C1730 1.369 . S
C1731 C1732 1.410 . S
C1731 C1739 1.503 . S
C1732 C1731 1.410 . S
C1732 C1733 1.392 . S
C1732 C1735 1.511 . S
C1733 C1729 1.376 . S
C1733 C1732 1.392 . S
C1733 H1745 0.929 . S
C1734 C1730 1.531 . S
C1734 H1746 0.960 . S
C1734 H1747 0.962 . S
C1734 H1748 0.960 . S
C1735 C1732 1.511 . S
C1735 H1749 0.961 . S
C1735 H1750 0.961 . S
C1735 H1751 0.961 . S
C1736 C1737 1.370 . S
C1736 C1738 1.363 . S
C1736 H1752 0.931 . S
C1737 C1736 1.370 . S
C1737 C1741 1.408 . S
C1738 C1736 1.363 . S
C1738 C1739 1.370 . S
C1738 C1742 1.524 . S
C1739 C1731 1.503 . S
C1739 C1738 1.370 . S
C1739 C1740 1.403 . S
C1740 C1739 1.403 . S
C1740 C1741 1.404 . S
C1740 C1743 1.539 . S
C1741 C1737 1.408 . S
C1741 C1740 1.404 . S
C1741 H1753 0.930 . S
C1742 C1738 1.524 . S
C1742 H1754 0.956 . S
C1742 H1755 0.961 . S
C1742 H1756 0.961 . S
C1743 C1740 1.539 . S
C1743 H1757 0.958 . S
C1743 H1758 0.961 . S
C1743 H1759 0.960 . S
H1744 C1728 0.931 . S
H1745 C1733 0.929 . S
H1746 C1734 0.960 . S
H1747 C1734 0.962 . S
H1748 C1734 0.960 . S
H1749 C1735 0.961 . S
H1750 C1735 0.961 . S
H1751 C1735 0.961 . S
H1752 C1736 0.931 . S
H1753 C1741 0.930 . S
H1754 C1742 0.956 . S
H1755 C1742 0.961 . S
H1756 C1742 0.961 . S
H1757 C1743 0.958 . S
H1758 C1743 0.961 . S
H1759 C1743 0.960 . S
C1760 C1761 1.391 . S
C1760 C1762 1.394 . S
C1760 H1776 0.931 . S
C1761 C1760 1.391 . S
C1761 C1765 1.376 . S
C1762 C1760 1.394 . S
C1762 C1763 1.369 . S
C1762 C1766 1.531 . S
C1763 C1762 1.369 . S
C1763 C1764 1.410 . S
C1763 C1771 1.503 . S
C1764 C1763 1.410 . S
C1764 C1765 1.392 . S
C1764 C1767 1.511 . S
C1765 C1761 1.376 . S
C1765 C1764 1.392 . S
C1765 H1777 0.929 . S
C1766 C1762 1.531 . S
C1766 H1778 0.960 . S
C1766 H1779 0.962 1_455 S
C1766 H1780 0.960 1_455 S
C1767 C1764 1.511 . S
C1767 H1781 0.961 . S
C1767 H1782 0.961 . S
C1767 H1783 0.961 . S
C1768 C1769 1.370 . S
C1768 C1770 1.363 . S
C1768 H1784 0.931 . S
C1769 C1768 1.370 . S
C1769 C1773 1.408 . S
C1770 C1768 1.363 . S
C1770 C1771 1.370 . S
C1770 C1774 1.524 . S
C1771 C1763 1.503 . S
C1771 C1770 1.370 . S
C1771 C1772 1.403 . S
C1772 C1771 1.403 . S
C1772 C1773 1.404 . S
C1772 C1775 1.539 . S
C1773 C1769 1.408 . S
C1773 C1772 1.404 . S
C1773 H1785 0.930 . S
C1774 C1770 1.524 . S
C1774 H1786 0.956 . S
C1774 H1787 0.961 . S
C1774 H1788 0.961 . S
C1775 C1772 1.539 . S
C1775 H1789 0.958 . S
C1775 H1790 0.961 . S
C1775 H1791 0.960 . S
H1776 C1760 0.931 . S
H1777 C1765 0.929 . S
H1778 C1766 0.960 . S
H1779 C1766 0.962 1_655 S
H1780 C1766 0.960 1_655 S
H1781 C1767 0.961 . S
H1782 C1767 0.961 . S
H1783 C1767 0.961 . S
H1784 C1768 0.931 . S
H1785 C1773 0.930 . S
H1786 C1774 0.956 . S
H1787 C1774 0.961 . S
H1788 C1774 0.961 . S
H1789 C1775 0.958 . S
H1790 C1775 0.961 . S
H1791 C1775 0.960 . S
C1792 C1793 1.391 . S
C1792 C1794 1.394 . S
C1792 H1808 0.931 . S
C1793 C1792 1.391 . S
C1793 C1797 1.376 . S
C1794 C1792 1.394 . S
C1794 C1795 1.369 . S
C1794 C1798 1.531 . S
C1795 C1794 1.369 . S
C1795 C1796 1.410 . S
C1795 C1803 1.503 . S
C1796 C1795 1.410 . S
C1796 C1797 1.392 . S
C1796 C1799 1.511 . S
C1797 C1793 1.376 . S
C1797 C1796 1.392 . S
C1797 H1809 0.929 . S
C1798 C1794 1.531 . S
C1798 H1810 0.960 . S
C1798 H1811 0.962 . S
C1798 H1812 0.960 . S
C1799 C1796 1.511 . S
C1799 H1813 0.961 . S
C1799 H1814 0.961 . S
C1799 H1815 0.961 1_655 S
C1800 C1801 1.370 . S
C1800 C1802 1.363 . S
C1800 H1816 0.931 . S
C1801 C1800 1.370 . S
C1801 C1805 1.408 . S
C1802 C1800 1.363 . S
C1802 C1803 1.370 . S
C1802 C1806 1.524 . S
C1803 C1795 1.503 . S
C1803 C1802 1.370 . S
C1803 C1804 1.403 . S
C1804 C1803 1.403 . S
C1804 C1805 1.404 . S
C1804 C1807 1.539 . S
C1805 C1801 1.408 . S
C1805 C1804 1.404 . S
C1805 H1817 0.930 . S
C1806 C1802 1.524 . S
C1806 H1818 0.956 . S
C1806 H1819 0.961 . S
C1806 H1820 0.961 . S
C1807 C1804 1.539 . S
C1807 H1821 0.958 . S
C1807 H1822 0.961 . S
C1807 H1823 0.960 . S
H1808 C1792 0.931 . S
H1809 C1797 0.929 . S
H1810 C1798 0.960 . S
H1811 C1798 0.962 . S
H1812 C1798 0.960 . S
H1813 C1799 0.961 . S
H1814 C1799 0.961 . S
H1815 C1799 0.961 1_455 S
H1816 C1800 0.931 . S
H1817 C1805 0.930 . S
H1818 C1806 0.956 . S
H1819 C1806 0.961 . S
H1820 C1806 0.961 . S
H1821 C1807 0.958 . S
H1822 C1807 0.961 . S
H1823 C1807 0.960 . S
C545 C9 0.873 . S
C553 C67 0.833 . S
C577 C101 0.843 . S
C585 C43 0.764 . S
C609 C135 0.831 . S
C617 C77 0.811 . S
C641 C111 0.811 . S
C649 C33 0.834 . S
C673 C271 0.832 . S
C681 C145 0.807 . S
C705 C169 0.826 . S
C713 C179 0.839 . S
C737 C203 0.843 . S
C745 C213 0.767 . S
C769 C247 0.846 . S
C777 C237 0.833 . S
C801 C281 0.827 . S
C809 C339 0.833 . S
C833 C315 0.728 . S
C841 C373 0.839 . S
C865 C407 0.839 . S
C873 C349 0.769 . S
C897 C305 0.841 . S
C905 C383 0.765 . S
C929 C543 0.838 . S
C937 C417 0.772 . S
C961 C441 0.836 . S
C969 C451 0.815 . S
C993 C485 0.840 . S
C1001 C475 0.832 . S
C1025 C519 0.872 . S
C1033 C509 0.831 . S
C1057 C5 2.203 . S
C1065 C73 2.196 . S
C1089 C39 2.193 . S
C1097 C107 2.199 . S
C1121 C209 2.192 . S
C1129 C141 2.199 . S
C1153 C243 2.206 . S
C1161 C175 2.202 . S
C1185 C345 2.191 . S
C1193 C277 2.198 . S
C1217 C311 2.210 . S
C1225 C379 2.198 . S
C1249 C413 2.194 . S
C1257 C481 2.197 . S
C1281 C447 2.201 . S
C1289 C515 2.196 . S
C1313 C20 1.814 . S
C1321 C292 1.792 . S
C1345 C54 1.789 . S
C1353 C326 1.801 . S
C1377 C88 1.776 . S
C1385 C360 1.808 . S
C1409 C394 1.789 . S
C1417 C122 1.804 . S
C1441 C428 1.784 . S
C1449 C156 1.804 . S
C1473 C190 1.797 . S
C1481 C462 1.798 . S
C1505 C224 1.777 . S
C1513 C496 1.808 . S
C1537 C530 1.794 . S
C1545 C258 1.799 . S
C1569 C172 1.626 . S
C1577 C2 1.631 . S
C1601 C206 1.630 . S
C1609 C36 1.626 . S
C1633 C70 1.618 . S
C1641 C240 1.632 . S
C1665 C138 1.618 . S
C1673 C104 1.632 . S
C1697 C274 1.621 . S
C1705 C444 1.628 . S
C1729 C478 1.631 . S
C1737 C308 1.629 . S
C1761 C512 1.622 . S
C1769 C342 1.632 . S
C1793 C376 1.631 . S
C1801 C410 1.627 . S
