# Generated by pormake.
# Topology smc, (6)-cn, num edge types: 1
# Building blocks:
#     Node 0, Type 0, BuildingBlock: LEVNOQ01_clean_sbu_1, # of connection points: 6
#     Node 1, Type 0, BuildingBlock: LEVNOQ01_clean_sbu_1, # of connection points: 6
#     Node 2, Type 0, BuildingBlock: LEVNOQ01_clean_sbu_1, # of connection points: 6
#     Node 3, Type 0, BuildingBlock: LEVNOQ01_clean_sbu_1, # of connection points: 6
#     Node 4, Type 0, BuildingBlock: LEVNOQ01_clean_sbu_1, # of connection points: 6
#     Node 5, Type 0, BuildingBlock: LEVNOQ01_clean_sbu_1, # of connection points: 6
#     Node 6, Type 0, BuildingBlock: LEVNOQ01_clean_sbu_1, # of connection points: 6
#     Node 7, Type 0, BuildingBlock: LEVNOQ01_clean_sbu_1, # of connection points: 6
#     Node 8, Type 0, BuildingBlock: LEVNOQ01_clean_sbu_1, # of connection points: 6
#     Edge 9, Type (0, 0), BuildingBlock: ZUJKAS_clean_linker_0, # of connection points: 2
#     Edge 10, Type (0, 0), BuildingBlock: ZUJKAS_clean_linker_0, # of connection points: 2
#     Edge 11, Type (0, 0), BuildingBlock: ZUJKAS_clean_linker_0, # of connection points: 2
#     Edge 12, Type (0, 0), BuildingBlock: ZUJKAS_clean_linker_0, # of connection points: 2
#     Edge 13, Type (0, 0), BuildingBlock: ZUJKAS_clean_linker_0, # of connection points: 2
#     Edge 14, Type (0, 0), BuildingBlock: ZUJKAS_clean_linker_0, # of connection points: 2
#     Edge 15, Type (0, 0), BuildingBlock: ZUJKAS_clean_linker_0, # of connection points: 2
#     Edge 16, Type (0, 0), BuildingBlock: ZUJKAS_clean_linker_0, # of connection points: 2
#     Edge 17, Type (0, 0), BuildingBlock: ZUJKAS_clean_linker_0, # of connection points: 2
#     Edge 18, Type (0, 0), BuildingBlock: ZUJKAS_clean_linker_0, # of connection points: 2
#     Edge 19, Type (0, 0), BuildingBlock: ZUJKAS_clean_linker_0, # of connection points: 2
#     Edge 20, Type (0, 0), BuildingBlock: ZUJKAS_clean_linker_0, # of connection points: 2
#     Edge 21, Type (0, 0), BuildingBlock: ZUJKAS_clean_linker_0, # of connection points: 2
#     Edge 22, Type (0, 0), BuildingBlock: ZUJKAS_clean_linker_0, # of connection points: 2
#     Edge 23, Type (0, 0), BuildingBlock: ZUJKAS_clean_linker_0, # of connection points: 2
#     Edge 24, Type (0, 0), BuildingBlock: ZUJKAS_clean_linker_0, # of connection points: 2
#     Edge 25, Type (0, 0), BuildingBlock: ZUJKAS_clean_linker_0, # of connection points: 2
#     Edge 26, Type (0, 0), BuildingBlock: ZUJKAS_clean_linker_0, # of connection points: 2
#     Edge 27, Type (0, 0), BuildingBlock: ZUJKAS_clean_linker_0, # of connection points: 2
#     Edge 28, Type (0, 0), BuildingBlock: ZUJKAS_clean_linker_0, # of connection points: 2
#     Edge 29, Type (0, 0), BuildingBlock: ZUJKAS_clean_linker_0, # of connection points: 2
#     Edge 30, Type (0, 0), BuildingBlock: ZUJKAS_clean_linker_0, # of connection points: 2
#     Edge 31, Type (0, 0), BuildingBlock: ZUJKAS_clean_linker_0, # of connection points: 2
#     Edge 32, Type (0, 0), BuildingBlock: ZUJKAS_clean_linker_0, # of connection points: 2
#     Edge 33, Type (0, 0), BuildingBlock: ZUJKAS_clean_linker_0, # of connection points: 2
#     Edge 34, Type (0, 0), BuildingBlock: ZUJKAS_clean_linker_0, # of connection points: 2
#     Edge 35, Type (0, 0), BuildingBlock: ZUJKAS_clean_linker_0, # of connection points: 2
# Relax obj value: 0.146
# Max RMSD: 0.229
# Mean RMSD: 0.229
data_MOF--net-smc--node1-LEVNOQ01_clean_sbu_1--edge1-ZUJKAS_clean_linker_0
_symmetry_space_group_name_H-M    P1
_symmetry_Int_Tables_number       1
_symmetry_cell_setting            triclinic
loop_
_symmetry_equiv_pos_as_xyz
'x, y, z'
_cell_length_a     38.463781
_cell_length_b     38.455587
_cell_length_c     55.939476
_cell_angle_alpha  90.156809
_cell_angle_beta   89.971834
_cell_angle_gamma 119.77589
loop_
_atom_site_label
_atom_site_type_symbol
_atom_site_fract_x
_atom_site_fract_y
_atom_site_fract_z
_atom_type_partial_charge
O0 O 0.90467 0.37166 0.04078 0.0
Mg1 Mg 0.93763 0.4308 0.05391 0.0
O2 O 0.94819 0.38056 0.01216 0.0
Mg3 Mg 7e-05 0.44711 0.01618 0.0
O4 O -0.00322 0.44842 0.0583 0.0
O5 O 0.95479 0.43839 0.08862 0.0
O6 O 0.04915 0.51422 0.02058 0.0
O7 O 0.04549 0.42453 0.02438 0.0
Mg8 Mg 0.0657 0.47517 0.97728 0.0
O9 O 0.00446 0.44446 0.97446 0.0
O10 O 0.08993 0.53467 0.98959 0.0
O11 O 0.08654 0.43948 0.99345 0.0
O12 O 0.04555 0.46295 0.94288 0.0
C13 C 0.93637 0.48468 0.01827 0.0
C14 C 0.91532 0.35838 0.02313 0.0
C15 C -0.00978 0.44792 0.08122 0.0
C16 C 0.07839 0.54208 0.00918 0.0
C17 C 0.07427 0.42334 0.01371 0.0
C18 C 0.0097 0.44462 0.95144 0.0
O19 O 0.92718 0.47509 0.03988 0.0
O20 O 0.95778 0.47325 1.00697 0.0
O21 O 0.56685 0.65567 0.98972 0.0
Mg22 Mg 0.52619 0.5974 0.97819 0.0
O23 O 0.58073 0.63037 0.02132 0.0
Mg24 Mg 0.55905 0.56223 0.01437 0.0
O25 O 0.55395 0.56444 0.97234 0.0
O26 O 0.52791 0.58451 0.94316 0.0
O27 O 0.53501 0.4936 1.00761 0.0
O28 O 0.62645 0.58009 1.00574 0.0
Mg29 Mg 0.59141 0.52908 0.04938 0.0
O30 O 0.56447 0.56243 0.05681 0.0
O31 O 0.55541 0.4704 0.03711 0.0
O32 O 0.64976 0.56165 0.03631 0.0
O33 O 0.58662 0.53609 0.08458 0.0
C34 C 0.46372 0.54654 0.01337 0.0
C35 C 0.58329 0.66029 0.00995 0.0
C36 C 0.54817 0.5676 0.94962 0.0
C37 C 0.53553 0.46443 0.01808 0.0
C38 C 0.65524 0.57867 0.01628 0.0
C39 C 0.57058 0.55765 0.07927 0.0
O40 O 0.46985 0.56761 0.99485 0.0
O41 O 0.49172 0.54205 0.02235 0.0
O42 O 0.34348 0.92078 0.98856 0.0
Mg43 Mg 0.40273 0.94117 0.97868 0.0
O44 O 0.3675 0.95651 0.02141 0.0
Mg45 Mg 0.43614 0.00369 0.01551 0.0
O46 O 0.43588 0.00205 0.97305 0.0
O47 O 0.41445 0.95564 0.94392 0.0
O48 O 0.50486 0.04913 0.01064 0.0
O49 O 0.41875 0.05365 0.01069 0.0
Mg50 Mg 0.47237 0.06674 0.05782 0.0
O51 O 0.43627 0.0062 0.05697 0.0
O52 O 0.52948 0.08297 0.04432 0.0
O53 O 0.44149 0.09376 0.04236 0.0
O54 O 0.45651 0.04078 0.09106 0.0
C55 C 0.45206 0.92466 0.01157 0.0
C56 C 0.33795 0.92995 0.00936 0.0
C57 C 0.43219 -0.00718 0.95032 0.0
C58 C 0.53461 0.07362 0.0234 0.0
C59 C 0.42272 0.08384 0.0226 0.0
C60 C 0.43592 0.00696 0.08018 0.0
O61 O 0.4308 0.91088 0.993 0.0
O62 O 0.45677 0.95664 0.02134 0.0
O63 O 0.75754 0.77607 0.3169 0.0
Mg64 Mg 0.73236 0.81069 0.3064 0.0
O65 O 0.7182 0.7575 0.3485 0.0
Mg66 Mg 0.66995 0.77828 0.34236 0.0
O67 O 0.67189 0.7791 0.29968 0.0
O68 O 0.7194 0.80613 0.27143 0.0
O69 O 0.62387 0.80085 0.3363 0.0
O70 O 0.62182 0.71047 0.33503 0.0
Mg71 Mg 0.60697 0.7454 0.37831 0.0
O72 O 0.66741 0.77649 0.38509 0.0
O73 O 0.57942 0.77673 0.36522 0.0
O74 O 0.58476 0.68611 0.36731 0.0
O75 O 0.61957 0.75485 0.41335 0.0
C76 C 0.74588 0.87534 0.33895 0.0
C77 C 0.74708 0.75818 0.33674 0.0
C78 C 0.68207 0.78495 0.27711 0.0
C79 C 0.59289 0.79778 0.34661 0.0
C80 C 0.5945 0.68094 0.3466 0.0
C81 C 0.65698 0.77204 0.40764 0.0
O82 O 0.75837 0.8694 0.31933 0.0
O83 O 0.71617 0.84641 0.34942 0.0
O84 O 0.23439 0.98726 0.32018 0.0
Mg85 Mg 0.19775 0.92767 0.31009 0.0
O86 O 0.24867 0.96504 0.35287 0.0
Mg87 Mg 0.22822 0.89652 0.34705 0.0
O88 O 0.22732 0.89621 0.30439 0.0
O89 O 0.20158 0.91697 0.27533 0.0
O90 O 0.20611 0.8283 0.34145 0.0
O91 O 0.29656 0.91591 0.34127 0.0
Mg92 Mg 0.259 0.86498 0.38503 0.0
O93 O 0.22895 0.8962 0.38952 0.0
O94 O 0.22706 0.80646 0.37143 0.0
O95 O 0.31826 0.90045 0.37382 0.0
O96 O 0.248 0.87071 0.41966 0.0
C97 C 0.13188 0.87759 0.34233 0.0
C98 C 0.25022 -0.00617 0.34068 0.0
C99 C 0.22159 0.89974 0.28167 0.0
C100 C 0.2078 0.79991 0.35208 0.0
C101 C 0.32504 0.91644 0.35336 0.0
C102 C 0.23207 0.89147 0.41241 0.0
O103 O 0.139 0.89733 0.32319 0.0
O104 O 0.15993 0.87509 0.35289 0.0
O105 O 0.01855 0.24848 0.31921 0.0
Mg106 Mg 0.07673 0.27345 0.30491 0.0
O107 O 0.0392 0.28716 0.35145 0.0
Mg108 Mg 0.10729 0.33482 0.3463 0.0
O109 O 0.1048 0.33478 0.30444 0.0
O110 O 0.08695 0.29684 0.27134 0.0
O111 O 0.17615 0.3796 0.33995 0.0
O112 O 0.0905 0.3854 0.34347 0.0
Mg113 Mg 0.14745 0.39377 0.38687 0.0
O114 O 0.10726 0.33394 0.38847 0.0
O115 O 0.20399 0.40731 0.37442 0.0
O116 O 0.12052 0.42638 0.37399 0.0
O117 O 0.13508 0.37274 0.42078 0.0
C118 C 0.12912 0.2599 0.33746 0.0
C119 C 0.01144 0.25835 0.3395 0.0
C120 C 0.10224 0.33173 0.28123 0.0
C121 C 0.20727 0.4005 0.35268 0.0
C122 C 0.09849 0.41678 0.35552 0.0
C123 C 0.11075 0.33818 0.41164 0.0
O124 O 0.11295 0.25033 0.31701 0.0
O125 O 0.12736 0.28689 0.34981 0.0
O126 O 0.42127 0.10629 0.66085 0.0
Mg127 Mg 0.39315 0.13667 0.647 0.0
O128 O 0.38387 0.09381 0.69301 0.0
Mg129 Mg 0.33487 0.11223 0.6854 0.0
O130 O 0.33177 0.10363 0.64278 0.0
O131 O 0.37657 0.12397 0.61272 0.0
O132 O 0.28781 0.13361 0.67812 0.0
O133 O 0.28584 0.04474 0.68598 0.0
Mg134 Mg 0.27747 0.0975 0.72814 0.0
O135 O 0.33747 0.11837 0.72712 0.0
O136 O 0.26145 0.13699 0.71255 0.0
O137 O 0.24725 0.03666 0.7174 0.0
O138 O 0.30414 0.11276 0.76098 0.0
C139 C 0.40756 0.20752 0.67332 0.0
C140 C 0.41237 0.09285 0.68189 0.0
C141 C 0.33989 0.10487 0.61994 0.0
C142 C 0.26667 0.14432 0.69041 0.0
C143 C 0.2561 0.02244 0.69937 0.0
C144 C 0.33718 0.12136 0.7503 0.0
O145 O 0.41824 0.19792 0.65424 0.0
O146 O 0.38053 0.18061 0.68636 0.0
O147 O 0.87094 0.30674 0.65673 0.0
Mg148 Mg 0.84542 0.24805 0.64304 0.0
O149 O 0.90771 0.29862 0.68426 0.0
Mg150 Mg 0.89187 0.23147 0.67988 0.0
O151 O 0.88717 0.23107 0.6376 0.0
O152 O 0.85414 0.24169 0.60804 0.0
O153 O 0.87217 0.16415 0.67472 0.0
O154 O 0.95977 0.25236 0.67033 0.0
Mg155 Mg 0.93107 0.20538 0.71485 0.0
O156 O 0.89832 0.2332 0.72232 0.0
O157 O 0.90126 0.1461 0.70198 0.0
O158 O -0.01135 0.24329 0.70189 0.0
O159 O 0.92428 0.21048 0.75011 0.0
C160 C 0.79078 0.19469 0.67847 0.0
C161 C 0.89589 0.32048 0.67382 0.0
C162 C 0.88045 0.23223 0.6148 0.0
C163 C 0.87808 0.13753 0.68423 0.0
C164 C -0.00904 0.25598 0.68082 0.0
C165 C 0.9053 0.22923 0.74476 0.0
O166 O 0.79108 0.20336 0.6567 0.0
O167 O 0.82365 0.20671 0.68977 0.0
O168 O 0.75563 0.75423 0.70423 0.0
Mg169 Mg 0.79423 0.7365 0.71965 0.0
O170 O 0.75064 0.71896 0.67189 0.0
Mg171 Mg 0.77505 0.67543 0.68047 0.0
O172 O 0.76792 0.67509 0.72228 0.0
O173 O 0.78227 0.71631 0.75376 0.0
O174 O 0.8012 0.63298 0.69111 0.0
O175 O 0.71056 0.62283 0.68064 0.0
Mg176 Mg 0.77737 0.62578 0.64549 0.0
O177 O 0.77972 0.67854 0.63796 0.0
O178 O 0.83058 0.63051 0.65832 0.0
O179 O 0.72087 0.58075 0.65893 0.0
O180 O 0.78024 0.63677 0.60999 0.0
C181 C 0.86628 0.75598 0.69125 0.0
C182 C 0.74392 0.74409 0.68291 0.0
C183 C 0.76683 0.68046 0.74523 0.0
C184 C 0.82666 0.62615 0.68062 0.0
C185 C 0.69832 0.58783 0.67226 0.0
C186 C 0.7815 0.66995 0.61558 0.0
O187 O 0.85536 0.7673 0.70963 0.0
O188 O 0.84115 0.72548 0.67945 0.0
H189 H 0.42712 0.47604 0.03875 0.0
H190 H 0.35531 0.43627 0.04849 0.0
H191 H 0.33686 0.53018 0.02042 0.0
H192 H 0.40771 0.56943 0.01037 0.0
H193 H 0.29575 0.45419 0.07482 0.0
H194 H 0.27061 0.42723 0.97745 0.0
H195 H 0.31887 0.44413 0.99123 0.0
H196 H 0.30205 0.47922 0.98483 0.0
C197 C 0.40781 0.48847 0.03519 0.0
C198 C 0.42281 0.52552 0.02346 0.0
C199 C 0.3669 0.46577 0.04075 0.0
C200 C 0.34084 0.48014 0.03483 0.0
C201 C 0.35647 0.51841 0.02486 0.0
H202 H 0.11888 0.45838 0.05281 0.0
H203 H 0.18018 0.45831 0.0632 0.0
C204 C 0.39694 0.54076 0.01908 0.0
C205 C 0.29682 0.45428 0.03634 0.0
H206 H 0.21469 0.41882 1.00058 0.0
C207 C 0.27774 0.4455 0.05867 0.0
C208 C 0.27345 0.44194 0.01529 0.0
C209 C 0.29225 0.44822 0.99084 0.0
C210 C 0.23576 0.4275 0.06037 0.0
C211 C 0.21266 0.41921 0.03919 0.0
C212 C 0.23189 0.42515 0.01696 0.0
C213 C 0.17012 0.40995 0.03903 0.0
C214 C 0.21688 0.41829 0.08484 0.0
C215 C 0.14276 0.38185 0.02263 0.0
C216 C 0.10822 0.38291 0.01609 0.0
C217 C 0.09971 0.41103 0.02652 0.0
C218 C 0.12426 0.43566 0.04502 0.0
C219 C 0.15947 0.43551 0.05102 0.0
H220 H 0.2334 0.40889 0.0971 0.0
H221 H 0.21871 0.4458 0.0925 0.0
H222 H 0.185 0.39429 0.08422 0.0
H223 H 0.15004 0.36168 0.01316 0.0
H224 H 0.08996 0.36407 1.00153 0.0
H225 H 0.42201 0.84467 0.01413 0.0
H226 H 0.45797 0.80932 0.02419 0.0
H227 H 0.56445 0.92214 0.03918 0.0
H228 H 0.5276 0.95758 0.03026 0.0
H229 H 0.51848 0.8197 0.99729 0.0
H230 H 0.57022 0.85238 0.09156 0.0
H231 H 0.53169 0.86144 0.07983 0.0
H232 H 0.58349 0.89577 0.0735 0.0
C233 C 0.45279 0.86181 0.02018 0.0
C234 C 0.47223 0.90374 0.02126 0.0
C235 C 0.47331 0.84165 0.02597 0.0
C236 C 0.51396 0.86303 0.03243 0.0
C237 C 0.53295 0.90492 0.0347 0.0
H238 H 0.63523 0.7345 0.99313 0.0
H239 H 0.63231 0.79478 1.00362 0.0
C240 C 0.512 0.92515 0.02944 0.0
C241 C 0.53706 0.84155 0.03313 0.0
H242 H 0.59429 0.81687 0.06826 0.0
C243 C 0.53511 0.81921 0.01282 0.0
C244 C 0.55886 0.84106 0.05337 0.0
C245 C 0.56102 0.86365 0.0759 0.0
C246 C 0.55286 0.79515 0.0124 0.0
C247 C 0.57509 0.79481 0.03251 0.0
C248 C 0.57792 0.81782 0.05273 0.0
C249 C 0.5915 0.76717 0.0332 0.0
C250 C 0.54572 0.76872 0.99077 0.0
C251 C 0.57358 0.73357 0.04822 0.0
C252 C 0.57649 0.69958 0.04277 0.0
C253 C 0.59669 0.69886 0.02202 0.0
C254 C 0.61944 0.73444 0.00919 0.0
C255 C 0.61754 0.76876 0.01509 0.0
H256 H 0.52067 0.76596 0.97952 0.0
H257 H 0.57309 0.78184 0.97955 0.0
H258 H 0.53868 0.73815 0.99621 0.0
H259 H 0.55362 0.73185 0.06242 0.0
H260 H 0.55854 0.67238 0.05285 0.0
H261 H 0.3217 0.91293 0.05702 0.0
H262 H 0.26444 0.85226 0.07304 0.0
H263 H 0.21054 0.82415 1.00291 0.0
H264 H 0.26631 0.88531 0.98726 0.0
H265 H 0.15377 0.79207 0.03737 0.0
H266 H 0.27607 0.75718 0.05496 0.0
H267 H 0.27697 0.79751 0.07168 0.0
H268 H 0.28572 0.80244 0.03996 0.0
C269 C 0.29666 0.89488 0.04535 0.0
C270 C 0.2989 0.90335 0.02078 0.0
C271 C 0.26417 0.85987 0.05445 0.0
C272 C 0.23401 0.83281 0.03895 0.0
C273 C 0.23367 0.84422 0.01519 0.0
H274 H 0.1436 0.60694 0.99042 0.0
H275 H 0.17664 0.67579 1.00473 0.0
C276 C 0.26574 0.87923 1.0062 0.0
C277 C 0.20748 0.79009 0.04541 0.0
H278 H 0.21142 0.70377 0.05167 0.0
C279 C 0.16611 0.77274 0.04124 0.0
C280 C 0.22373 0.76484 0.05035 0.0
C281 C 0.26802 0.7812 0.05439 0.0
C282 C 0.14129 0.73094 0.03973 0.0
C283 C 0.15829 0.70605 0.04282 0.0
C284 C 0.1987 0.72317 0.04926 0.0
C285 C 0.13724 0.66364 0.035 0.0
C286 C 0.09793 0.71379 0.03276 0.0
C287 C 0.10414 0.63385 0.04739 0.0
C288 C 0.08498 0.5941 0.0392 0.0
C289 C 0.09873 0.5837 0.0185 0.0
C290 C 0.13211 0.61376 1.00636 0.0
C291 C 0.15112 0.6532 0.01455 0.0
H292 H 0.08986 0.73745 0.02976 0.0
H293 H 0.09153 0.69567 0.01618 0.0
H294 H 0.07847 0.69362 0.0471 0.0
H295 H 0.09325 0.64131 0.06336 0.0
H296 H 0.05936 0.57164 0.04898 0.0
H297 H 0.40797 0.09286 0.97545 0.0
H298 H 0.40556 0.15054 0.9586 0.0
H299 H 0.40803 0.1949 0.02989 0.0
H300 H 0.40953 0.13753 0.04663 0.0
H301 H 0.36469 0.21437 0.99887 0.0
H302 H 0.51354 0.25281 0.96039 0.0
H303 H 0.47009 0.20757 0.95058 0.0
H304 H 0.48796 0.2114 0.98068 0.0
C305 C 0.40674 0.11431 0.98748 0.0
C306 C 0.41011 0.1113 0.01235 0.0
C307 C 0.40558 0.14737 0.97783 0.0
C308 C 0.40779 0.17764 0.99298 0.0
C309 C 0.4066 0.17214 0.0178 0.0
H310 H 0.53796 0.39911 0.03405 0.0
H311 H 0.50107 0.3308 0.01927 0.0
C312 C 0.40773 0.13936 0.02738 0.0
C313 C 0.41798 0.2179 0.984 0.0
H314 H 0.50109 0.30508 0.96777 0.0
C315 C 0.39387 0.23405 0.99115 0.0
C316 C 0.45613 0.24356 0.97391 0.0
C317 C 0.48365 0.22824 0.96597 0.0
C318 C 0.40872 0.27561 0.99108 0.0
C319 C 0.44839 0.30136 0.98345 0.0
C320 C 0.47065 0.28501 0.97362 0.0
C321 C 0.47049 0.34371 0.99123 0.0
C322 C 0.38367 0.29204 1.00156 0.0
C323 C 0.46552 0.37375 0.98025 0.0
C324 C 0.48684 0.41336 0.98872 0.0
C325 C 0.51314 0.42318 0.00831 0.0
C326 C 0.51794 0.39278 0.01901 0.0
C327 C 0.49693 0.35363 0.01054 0.0
H328 H 0.3526 0.26805 1.00552 0.0
H329 H 0.39769 0.30844 0.01838 0.0
H330 H 0.38248 0.31367 0.98896 0.0
H331 H 0.44525 0.36655 0.96526 0.0
H332 H 0.48251 0.43612 0.98011 0.0
H333 H 0.56042 0.08394 0.97663 0.0
H334 H 0.63038 0.11847 0.96258 0.0
H335 H 0.67143 0.13713 0.03569 0.0
H336 H 0.60258 0.10342 0.0497 0.0
H337 H 0.68731 0.19957 0.97536 0.0
H338 H 0.74117 0.09702 1.0031 0.0
H339 H 0.68868 0.08046 0.99841 0.0
H340 H 0.71254 0.10327 0.02634 0.0
C341 C 0.58447 0.09491 0.98962 0.0
C342 C 0.57604 0.0912 0.01426 0.0
C343 C 0.62431 0.11453 0.98158 0.0
C344 C 0.65604 0.12967 0.9981 0.0
C345 C 0.64745 0.12488 0.02262 0.0
H346 H 0.86344 0.29498 0.0496 0.0
H347 H 0.80547 0.23387 0.03526 0.0
C348 C 0.608 0.10597 0.03061 0.0
C349 C 0.69831 0.15463 0.99055 0.0
H350 H 0.79072 0.16864 1.00445 0.0
C351 C 0.71011 0.19243 0.98079 0.0
C352 C 0.72788 0.14503 0.99749 0.0
C353 C 0.71688 0.10402 1.00669 0.0
C354 C 0.75059 0.22256 0.98057 0.0
C355 C 0.77981 0.21425 0.99008 0.0
C356 C 0.76831 0.17507 0.99731 0.0
C357 C 0.81955 0.24713 0.99776 0.0
C358 C 0.76123 0.26411 0.9725 0.0
C359 C 0.84786 0.27404 0.98143 0.0
C360 C 0.88139 0.30921 0.98968 0.0
C361 C 0.88669 0.31781 0.0143 0.0
C362 C 0.85995 0.28925 0.03053 0.0
C363 C 0.82685 0.25423 0.02234 0.0
H364 H 0.73443 0.26612 0.96724 0.0
H365 H 0.7771 0.28615 0.98702 0.0
H366 H 0.78164 0.27275 0.95689 0.0
H367 H 0.843 0.26888 0.96237 0.0
H368 H 0.90141 0.33087 0.97681 0.0
H369 H 0.91478 0.48252 0.97127 0.0
H370 H 0.8795 0.51539 0.95415 0.0
H371 H 0.88913 0.57371 0.02179 0.0
H372 H 0.92348 0.54085 0.03887 0.0
H373 H 0.80638 0.49989 0.9746 0.0
H374 H 0.91113 0.66268 0.97364 0.0
H375 H 0.92782 0.62622 0.97321 0.0
H376 H 0.91484 0.64058 1.00104 0.0
C377 C 0.91023 0.50321 0.9822 0.0
C378 C 0.9214 0.50889 1.00643 0.0
C379 C 0.89023 0.522 0.97242 0.0
C380 C 0.88229 0.54749 0.9866 0.0
C381 C 0.89574 0.55494 0.01034 0.0
H382 H 0.72893 0.61347 0.03657 0.0
H383 H 0.78791 0.61362 0.02035 0.0
C384 C 0.91493 0.53574 0.02018 0.0
C385 C 0.85399 0.56071 0.97865 0.0
H386 H 0.84088 0.64206 0.98185 0.0
C387 C 0.81394 0.53107 0.97524 0.0
C388 C 0.86408 0.60139 0.97952 0.0
C389 C 0.90693 0.63455 0.98181 0.0
C390 C 0.78312 0.54054 0.97554 0.0
C391 C 0.79292 0.58103 0.97863 0.0
C392 C 0.83336 0.61107 0.97959 0.0
C393 C 0.76185 0.59135 0.98546 0.0
C394 C 0.74026 0.50663 0.975 0.0
C395 C 0.72854 0.5812 0.97078 0.0
C396 C 0.69454 0.5806 0.98021 0.0
C397 C 0.69377 0.59109 1.00418 0.0
C398 C 0.72873 0.60535 0.01799 0.0
C399 C 0.7625 0.60553 0.00869 0.0
H400 H 0.73811 0.47677 0.97608 0.0
H401 H 0.723 0.50939 0.99008 0.0
H402 H 0.72588 0.50777 0.95806 0.0
H403 H 0.72758 0.57064 0.95269 0.0
H404 H 0.66777 0.56803 0.96949 0.0
H405 H 0.79402 0.73542 0.31298 0.0
H406 H 0.85303 0.73598 0.32872 0.0
H407 H 0.82073 0.75191 0.40014 0.0
H408 H 0.76123 0.75154 0.38418 0.0
H409 H 0.89132 0.8124 0.38795 0.0
H410 H 0.89437 0.67504 0.36523 0.0
H411 H 0.87872 0.69089 0.33932 0.0
H412 H 0.84816 0.67657 0.36593 0.0
C413 C 0.79852 0.73743 0.33217 0.0
C414 C 0.77341 0.74437 0.34731 0.0
C415 C 0.83225 0.73737 0.34123 0.0
C416 C 0.84153 0.74398 0.36567 0.0
C417 C 0.8142 0.74669 0.38121 0.0
H418 H 0.09922 0.81941 0.37716 0.0
H419 H 0.0291 0.78387 0.39081 0.0
C420 C 0.78012 0.74645 0.37209 0.0
C421 C 0.88312 0.75674 0.37346 0.0
H422 H 0.95956 0.73845 0.36126 0.0
C423 C 0.90596 0.79555 0.38294 0.0
C424 C 0.90251 0.73483 0.36737 0.0
C425 C 0.87941 0.69184 0.35916 0.0
C426 C 0.94789 0.8146 0.38376 0.0
C427 C 0.96744 0.79453 0.37461 0.0
C428 C 0.94457 0.75415 0.36783 0.0
C429 C 0.01039 0.8169 0.36798 0.0
C430 C 0.97101 0.85708 0.39292 0.0
C431 C 0.02285 0.84684 0.35054 0.0
C432 C 0.06238 0.86678 0.34264 0.0
C433 C 0.09055 0.85726 0.35197 0.0
C434 C 0.07825 0.82754 0.36971 0.0
C435 C 0.03829 0.80722 0.37751 0.0
H436 H 0.95346 0.86295 0.40652 0.0
H437 H 5e-05 0.86355 0.40091 0.0
H438 H 0.97714 0.87806 0.37785 0.0
H439 H 0.00166 0.85423 0.34258 0.0
H440 H 0.07072 0.88948 0.32899 0.0
H441 H 0.17147 0.27455 0.37952 0.0
H442 H 0.20693 0.24031 0.39413 0.0
H443 H 0.17091 0.16612 0.33093 0.0
H444 H 0.13563 0.19961 0.31627 0.0
H445 H 0.15537 0.12662 0.37975 0.0
H446 H 0.31236 0.24631 0.36195 0.0
H447 H 0.27711 0.25784 0.37615 0.0
H448 H 0.27136 0.24437 0.34514 0.0
C449 C 0.17116 0.25094 0.36875 0.0
C450 C 0.15065 0.23977 0.34672 0.0
C451 C 0.19152 0.23159 0.3771 0.0
C452 C 0.19157 0.20091 0.36352 0.0
C453 C 0.1712 0.18982 0.34162 0.0
H454 H 0.27785 0.06461 0.31757 0.0
H455 H 0.27446 0.12227 0.33251 0.0
C456 C 0.15103 0.20903 0.33328 0.0
C457 C 0.21165 0.17892 0.37184 0.0
H458 H 0.30096 0.1807 0.36746 0.0
C459 C 0.1874 0.13855 0.3779 0.0
C460 C 0.25336 0.19492 0.36932 0.0
C461 C 0.28037 0.23825 0.36279 0.0
C462 C 0.2031 0.11262 0.37925 0.0
C463 C 0.24451 0.12788 0.37489 0.0
C464 C 0.26937 0.16915 0.37098 0.0
C465 C 0.25988 0.1004 0.36883 0.0
C466 C 0.17438 0.06845 0.38287 0.0
C467 C 0.25615 0.07048 0.38471 0.0
C468 C 0.25764 0.03701 0.37605 0.0
C469 C 0.26331 0.0335 0.35153 0.0
C470 C 0.27278 0.06623 0.3365 0.0
C471 C 0.27103 0.09936 0.34507 0.0
H472 H 0.14261 0.06126 0.38312 0.0
H473 H 0.17793 0.05061 0.36842 0.0
H474 H 0.18086 0.05884 0.40018 0.0
H475 H 0.24847 0.07118 0.40326 0.0
H476 H 0.25025 0.0123 0.38802 0.0
H477 H 0.94064 0.21343 0.31663 0.0
H478 H 0.88263 0.15425 0.3323 0.0
H479 H 0.93522 0.18127 0.40281 0.0
H480 H -0.00574 0.2403 0.38684 0.0
H481 H 0.92191 0.11111 0.38908 0.0
H482 H 0.78309 0.11338 0.37072 0.0
H483 H 0.81285 0.12904 0.34415 0.0
H484 H 0.83124 0.15878 0.37106 0.0
C485 C 0.93918 0.2077 0.33566 0.0
C486 C 0.9721 0.2314 0.35049 0.0
C487 C 0.90567 0.17394 0.34472 0.0
C488 C 0.90419 0.16323 0.36884 0.0
C489 C 0.93547 0.18902 0.38418 0.0
H490 H 0.72096 0.90557 0.37585 0.0
H491 H 0.7556 0.97471 0.39146 0.0
C492 C 0.96913 0.22298 0.37508 0.0
C493 C 0.87501 0.12155 0.37614 0.0
H494 H 0.77963 0.04737 0.364 0.0
C495 C 0.89043 0.09746 0.38446 0.0
C496 C 0.83369 0.10339 0.37064 0.0
C497 C 0.81431 0.12776 0.36392 0.0
C498 C 0.86695 0.05558 0.3845 0.0
C499 C 0.82731 0.03738 0.3757 0.0
C500 C 0.81036 0.06137 0.37025 0.0
C501 C 0.80638 -0.00496 0.36769 0.0
C502 C 0.8857 0.0311 0.39232 0.0
C503 C 0.82325 0.98392 0.34906 0.0
C504 C 0.80363 0.94502 0.34006 0.0
C505 C 0.76651 0.91614 0.34946 0.0
C506 C 0.7496 0.92712 0.36831 0.0
C507 C 0.76927 0.96651 0.37723 0.0
H508 H 0.90946 0.04746 0.40589 0.0
H509 H 0.86297 0.00185 0.39986 0.0
H510 H 0.89985 0.02532 0.37665 0.0
H511 H 0.85147 0.00566 0.34113 0.0
H512 H 0.81761 0.9377 0.32557 0.0
H513 H 0.2244 0.74065 0.36166 0.0
H514 H 0.18883 0.67156 0.34777 0.0
H515 H 0.10884 0.69609 0.30646 0.0
H516 H 0.14493 0.76627 0.32025 0.0
H517 H 0.07119 0.62679 0.33855 0.0
H518 H 0.18555 0.62301 0.28066 0.0
H519 H 0.2068 0.64929 0.30812 0.0
H520 H 0.18501 0.66879 0.28736 0.0
C521 C 0.19951 0.73162 0.34943 0.0
C522 C 0.18738 0.75887 0.3421 0.0
C523 C 0.17941 0.69216 0.34135 0.0
C524 C 0.1466 0.67891 0.32584 0.0
C525 C 0.13442 0.70597 0.31823 0.0
H526 H 0.08382 0.42991 0.30942 0.0
H527 H 0.08005 0.48816 0.29498 0.0
C528 C 0.15502 0.74592 0.32609 0.0
C529 C 0.12383 0.63585 0.31962 0.0
H530 H 0.14174 0.56135 0.30213 0.0
C531 C 0.08587 0.61231 0.32984 0.0
C532 C 0.14252 0.61701 0.30779 0.0
C533 C 0.18206 0.6409 0.29512 0.0
C534 C 0.06844 0.57047 0.33107 0.0
C535 C 0.08991 0.55212 0.32219 0.0
C536 C 0.12541 0.5753 0.3093 0.0
C537 C 0.08128 0.5119 0.3303 0.0
C538 C 0.02841 0.54667 0.34321 0.0
C539 C 0.082 0.50522 0.35491 0.0
C540 C 0.08429 0.47225 0.36311 0.0
C541 C 0.08606 0.44524 0.34689 0.0
C542 C 0.08216 0.45006 0.32231 0.0
C543 C 0.08013 0.48339 0.31405 0.0
H544 H 0.0091 0.56 0.33959 0.0
H545 H 0.01258 0.51492 0.33721 0.0
H546 H 0.03298 0.54756 0.36284 0.0
H547 H 0.084 0.52717 0.36783 0.0
H548 H 0.08717 0.46927 0.38216 0.0
H549 H 0.23219 0.42768 0.30694 0.0
H550 H 0.30219 0.46719 0.29328 0.0
H551 H 0.34308 0.45094 0.36188 0.0
H552 H 0.27402 0.41254 0.37568 0.0
H553 H 0.36542 0.53467 0.34457 0.0
H554 H 0.40224 0.44422 0.28225 0.0
H555 H 0.35429 0.4421 0.28084 0.0
H556 H 0.36564 0.42023 0.30571 0.0
C557 C 0.25619 0.43175 0.31881 0.0
C558 C 0.24787 0.41768 0.34247 0.0
C559 C 0.29602 0.45411 0.31097 0.0
C560 C 0.32764 0.46176 0.32659 0.0
C561 C 0.31905 0.44517 0.34956 0.0
H562 H 0.56349 0.60679 0.36573 0.0
H563 H 0.50066 0.54849 0.35326 0.0
C564 C 0.27961 0.4235 0.35746 0.0
C565 C 0.36941 0.49238 0.32112 0.0
H566 H 0.45607 0.50663 0.29524 0.0
C567 C 0.38508 0.52891 0.33338 0.0
C568 C 0.39477 0.48456 0.30654 0.0
C569 C 0.37869 0.4457 0.29298 0.0
C570 C 0.42588 0.55717 0.3324 0.0
C571 C 0.4518 0.54863 0.31886 0.0
C572 C 0.436 0.51292 0.30561 0.0
C573 C 0.49555 0.57556 0.32061 0.0
C574 C 0.44143 0.59523 0.34691 0.0
C575 C 0.51482 0.6088 0.30542 0.0
C576 C 0.55119 0.64203 0.31237 0.0
C577 C 0.56799 0.64239 0.33475 0.0
C578 C 0.5511 0.60717 0.3484 0.0
C579 C 0.51525 0.57384 0.34127 0.0
H580 H 0.41683 0.59962 0.3539 0.0
H581 H 0.45893 0.59401 0.36234 0.0
H582 H 0.46171 0.62164 0.33594 0.0
H583 H 0.49982 0.61075 0.28951 0.0
H584 H 0.56341 0.66895 0.30165 0.0
H585 H 0.34573 0.92521 0.30567 0.0
H586 H 0.40407 0.92396 0.28888 0.0
H587 H 0.45154 0.93377 0.35998 0.0
H588 H 0.39428 0.93578 0.37661 0.0
H589 H 0.51153 0.96877 0.32662 0.0
H590 H 0.39532 0.81518 0.29794 0.0
H591 H 0.39356 0.85707 0.28515 0.0
H592 H 0.38276 0.84584 0.31635 0.0
C593 C 0.36925 0.9284 0.31759 0.0
C594 C 0.36471 0.92913 0.34251 0.0
C595 C 0.40251 0.92748 0.30799 0.0
C596 C 0.43148 0.92733 0.32325 0.0
C597 C 0.4294 0.93336 0.34783 0.0
H598 H 0.52424 0.79258 0.36345 0.0
H599 H 0.49065 0.82818 0.34988 0.0
C600 C 0.39642 0.93431 0.35736 0.0
C601 C 0.45985 0.91413 0.31503 0.0
H602 H 0.46047 0.82755 0.30226 0.0
C603 C 0.50072 0.93832 0.32049 0.0
C604 C 0.44561 0.87427 0.30709 0.0
C605 C 0.40196 0.84636 0.30136 0.0
C606 C 0.5268 0.92254 0.3205 0.0
C607 C 0.5116 0.88176 0.31463 0.0
C608 C 0.47188 0.85883 0.30677 0.0
C609 C 0.53294 0.86016 0.32162 0.0
C610 C 0.56936 0.94837 0.32898 0.0
C611 C 0.56796 0.86617 0.31011 0.0
C612 C 0.58755 0.84566 0.31792 0.0
C613 C 0.57234 0.81898 0.33735 0.0
C614 C 0.53699 0.81291 0.3485 0.0
C615 C 0.51759 0.8332 0.34072 0.0
H616 H 0.57623 0.97929 0.33353 0.0
H617 H 0.57481 0.93476 0.345 0.0
H618 H 0.59036 0.9501 0.31481 0.0
H619 H 0.58008 0.88666 0.29519 0.0
H620 H 0.61467 0.85092 0.30892 0.0
H621 H 0.72095 0.14074 0.6579 0.0
H622 H 0.65412 0.1098 0.67517 0.0
H623 H 0.7043 0.16476 0.74324 0.0
H624 H 0.77207 0.19612 0.72587 0.0
H625 H 0.61535 0.05958 0.71676 0.0
H626 H 0.63242 0.21232 0.7217 0.0
H627 H 0.66679 0.20298 0.70467 0.0
H628 H 0.6685 0.20321 0.73672 0.0
C629 C 0.71791 0.14581 0.67666 0.0
C630 C 0.75162 0.17136 0.69046 0.0
C631 C 0.67969 0.12785 0.68655 0.0
C632 C 0.67422 0.13531 0.71039 0.0
C633 C 0.70794 0.15887 0.72474 0.0
H634 H 0.43813 0.10973 0.728 0.0
H635 H 0.49741 0.11064 0.74475 0.0
C636 C 0.74655 0.17664 0.71484 0.0
C637 C 0.63291 0.12214 0.71863 0.0
H638 H 0.56769 0.15772 0.72269 0.0
C639 C 0.60494 0.08097 0.71881 0.0
C640 C 0.6194 0.15007 0.72144 0.0
C641 C 0.64812 0.19466 0.72108 0.0
C642 C 0.5636 0.06713 0.71978 0.0
C643 C 0.55002 0.09521 0.72014 0.0
C644 C 0.57809 0.13617 0.72235 0.0
C645 C 0.50836 0.08406 0.71354 0.0
C646 C 0.53484 0.02264 0.71917 0.0
C647 C 0.49387 0.06742 0.69085 0.0
C648 C 0.46001 0.06679 0.68136 0.0
C649 C 0.43988 0.08265 0.69441 0.0
C650 C 0.45236 0.09625 0.71787 0.0
C651 C 0.4865 0.09716 0.72735 0.0
H652 H 0.54786 0.00609 0.72828 0.0
H653 H 0.50589 0.01496 0.7278 0.0
H654 H 0.52898 0.01233 0.7003 0.0
H655 H 0.51065 0.05804 0.67959 0.0
H656 H 0.45123 0.05647 0.66315 0.0
H657 H 0.91761 0.35046 0.7195 0.0
H658 H 0.91758 0.41011 0.73555 0.0
H659 H 0.89921 0.44098 0.66448 0.0
H660 H 0.89839 0.38158 0.64852 0.0
H661 H 0.96163 0.50464 0.71464 0.0
H662 H 0.79588 0.40932 0.71344 0.0
H663 H 0.82899 0.38892 0.71694 0.0
H664 H 0.82162 0.40423 0.68797 0.0
C665 C 0.91463 0.37055 0.70728 0.0
C666 C 0.90717 0.36093 0.68285 0.0
C667 C 0.91464 0.40457 0.71646 0.0
C668 C 0.90791 0.42949 0.70117 0.0
C669 C 0.90424 0.4219 0.67654 0.0
H670 H 0.89286 0.62412 0.66612 0.0
H671 H 0.91716 0.58078 0.68091 0.0
C672 C 0.90375 0.38792 0.66746 0.0
C673 C 0.89938 0.46045 0.71049 0.0
H674 H 0.82222 0.47999 0.71214 0.0
C675 C 0.93114 0.49922 0.71484 0.0
C676 C 0.85957 0.45308 0.71119 0.0
C677 C 0.82441 0.41157 0.70733 0.0
C678 C 0.92412 0.53155 0.71777 0.0
C679 C 0.88454 0.52484 0.71563 0.0
C680 C 0.85262 0.48538 0.71366 0.0
C681 C 0.87597 0.55781 0.71075 0.0
C682 C 0.95933 0.57279 0.72207 0.0
C683 C 0.84492 0.55998 0.72273 0.0
C684 C 0.83058 0.5847 0.71407 0.0
C685 C 0.84673 0.60709 0.6931 0.0
C686 C 0.8796 0.60698 0.68222 0.0
C687 C 0.89394 0.58253 0.69088 0.0
H688 H 0.98242 0.57108 0.73312 0.0
H689 H 0.97336 0.58634 0.70468 0.0
H690 H 0.95017 0.59269 0.73114 0.0
H691 H 0.83034 0.54091 0.73797 0.0
H692 H 0.80519 0.58416 0.72282 0.0
H693 H 0.63808 0.59096 0.69713 0.0
H694 H 0.57326 0.53381 0.70923 0.0
H695 H 0.60533 0.45272 0.67553 0.0
H696 H 0.66912 0.50878 0.66317 0.0
H697 H 0.51479 0.46545 0.67207 0.0
H698 H 0.56901 0.41681 0.7498 0.0
H699 H 0.59178 0.46854 0.74037 0.0
H700 H 0.60319 0.43433 0.72497 0.0
C701 C 0.63115 0.56091 0.69226 0.0
C702 C 0.65867 0.55439 0.67911 0.0
C703 C 0.5943 0.52846 0.69925 0.0
C704 C 0.58506 0.48931 0.69348 0.0
C705 C 0.61232 0.48285 0.68033 0.0
H706 H 0.4564 0.27177 0.64601 0.0
H707 H 0.48751 0.34224 0.65656 0.0
C708 C 0.64868 0.51499 0.67316 0.0
C709 C 0.54653 0.4542 0.69992 0.0
H710 H 0.51449 0.36418 0.72697 0.0
C711 C 0.51378 0.44372 0.68478 0.0
C712 C 0.54517 0.42627 0.71675 0.0
C713 C 0.57904 0.43711 0.73409 0.0
C714 C 0.48195 0.40418 0.68391 0.0
C715 C 0.48358 0.37483 0.69827 0.0
C716 C 0.51357 0.38664 0.71572 0.0
C717 C 0.46083 0.33197 0.69178 0.0
C718 C 0.44862 0.39346 0.66616 0.0
C719 C 0.43625 0.30271 0.70835 0.0
C720 C 0.41841 0.26203 0.70237 0.0
C721 C 0.42561 0.25022 0.67991 0.0
C722 C 0.45025 0.27977 0.66346 0.0
C723 C 0.46767 0.32015 0.66935 0.0
H724 H 0.44312 0.41896 0.66354 0.0
H725 H 0.45739 0.38664 0.64862 0.0
H726 H 0.42038 0.36683 0.67204 0.0
H727 H 0.43126 0.31134 0.72591 0.0
H728 H 0.39958 0.2399 0.71543 0.0
H729 H 0.77686 0.78517 0.64234 0.0
H730 H 0.78071 0.84889 0.63282 0.0
H731 H 0.68726 0.82389 0.68397 0.0
H732 H 0.68569 0.76152 0.69489 0.0
H733 H 0.74252 0.89141 0.62252 0.0
H734 H 0.78594 0.90653 0.71854 0.0
H735 H 0.77468 0.86261 0.70134 0.0
H736 H 0.73481 0.86977 0.71267 0.0
C737 C 0.75578 0.79237 0.65071 0.0
C738 C 0.73163 0.76914 0.6697 0.0
C739 C 0.75802 0.82888 0.64527 0.0
C740 C 0.73548 0.84184 0.65847 0.0
C741 C 0.70587 0.81496 0.67418 0.0
H742 H 0.80583 0.09861 0.66103 0.0
H743 H 0.76721 0.02682 0.65146 0.0
C744 C 0.70469 0.77918 0.68027 0.0
C745 C 0.74985 0.8854 0.66017 0.0
H746 H 0.79499 0.96375 0.69925 0.0
C747 C 0.75358 0.9073 0.63931 0.0
C748 C 0.76513 0.90616 0.68207 0.0
C749 C 0.76536 0.88523 0.70488 0.0
C750 C 0.77308 0.94946 0.6397 0.0
C751 C 0.78846 0.96989 0.66158 0.0
C752 C 0.78318 0.94789 0.6825 0.0
C753 C 0.81321 0.01404 0.66342 0.0
C754 C 0.77879 0.97185 0.61662 0.0
C755 C 0.8519 0.03065 0.67311 0.0
C756 C 0.87343 0.07112 0.6791 0.0
C757 C 0.85696 0.09599 0.6752 0.0
C758 C 0.81922 0.08001 0.66415 0.0
C759 C 0.79726 0.03912 0.65852 0.0
H760 H 0.77219 0.9521 0.60075 0.0
H761 H 0.75827 0.98435 0.61631 0.0
H762 H 0.80994 -0.00277 0.6152 0.0
H763 H 0.86482 0.01184 0.67698 0.0
H764 H 0.90264 0.08274 0.68732 0.0
H765 H 0.92507 0.82939 0.70621 0.0
H766 H -0.00385 0.86265 0.69608 0.0
H767 H 0.97526 0.76356 0.65044 0.0
H768 H 0.90374 0.72994 0.66034 0.0
H769 H 0.04006 0.78945 0.68629 0.0
H770 H 0.05155 0.91363 0.63066 0.0
H771 H 0.0234 0.9062 0.65765 0.0
H772 H 0.00488 0.86753 0.6352 0.0
C773 C 0.93545 0.81479 0.69384 0.0
C774 C 0.90881 0.77711 0.68405 0.0
C775 C 0.976 0.83391 0.68798 0.0
C776 C -0.00932 0.81566 0.67233 0.0
C777 C 0.96428 0.77815 0.66239 0.0
H778 H 0.24304 0.98869 0.65479 0.0
H779 H 0.18287 0.92736 0.64198 0.0
C780 C 0.92352 0.75913 0.66805 0.0
C781 C 0.03412 0.83528 0.66776 0.0
H782 H 0.11192 0.92536 0.65081 0.0
C783 C 0.05592 0.81869 0.67793 0.0
C784 C 0.05458 0.87292 0.65641 0.0
C785 C 0.03239 0.891 0.64413 0.0
C786 C 0.09788 0.84079 0.67919 0.0
C787 C 0.1181 0.88034 0.67024 0.0
C788 C 0.09642 0.89509 0.65782 0.0
C789 C 0.15935 0.90967 0.67776 0.0
C790 C 0.11998 0.82251 0.6913 0.0
C791 C 0.16684 0.91909 0.70214 0.0
C792 C 0.20073 0.95426 0.70939 0.0
C793 C 0.22776 0.98066 0.69238 0.0
C794 C 0.22254 0.96908 0.66822 0.0
C795 C 0.18823 0.934 0.66089 0.0
H796 H 0.10412 0.78952 0.68862 0.0
H797 H 0.15108 0.8355 0.68448 0.0
H798 H 0.12123 0.82828 0.71082 0.0
H799 H 0.1447 0.90121 0.71546 0.0
H800 H 0.20417 0.9622 0.72818 0.0
H801 H 0.24706 0.19517 0.71221 0.0
H802 H 0.20889 0.22468 0.69586 0.0
H803 H 0.20401 0.17096 0.62731 0.0
H804 H 0.24313 0.14146 0.64358 0.0
H805 H 0.22163 0.27401 0.64686 0.0
H806 H 0.08369 0.12552 0.65903 0.0
H807 H 0.12759 0.1394 0.67705 0.0
H808 H 0.12807 0.12876 0.64589 0.0
C809 C 0.23841 0.19001 0.69354 0.0
C810 C 0.24768 0.16559 0.67923 0.0
C811 C 0.21685 0.20717 0.6842 0.0
C812 C 0.20371 0.19998 0.66044 0.0
C813 C 0.21418 0.17698 0.6457 0.0
H814 H -0.00479 0.22572 0.63781 0.0
H815 H 0.05182 0.2197 0.62331 0.0
C816 C 0.2364 0.16014 0.65499 0.0
C817 C 0.17528 0.21295 0.65246 0.0
H818 H 0.07534 0.18116 0.6533 0.0
C819 C 0.18957 0.25362 0.6476 0.0
C820 C 0.13359 0.18628 0.65349 0.0
C821 C 0.11697 0.14248 0.65914 0.0
C822 C 0.16307 0.26864 0.64492 0.0
C823 C 0.12144 0.24242 0.64772 0.0
C824 C 0.10721 0.20131 0.65101 0.0
C825 C 0.09252 0.25705 0.65106 0.0
C826 C 0.17993 0.31259 0.63988 0.0
C827 C 0.09714 0.28193 0.67066 0.0
C828 C 0.06487 0.28591 0.67872 0.0
C829 C 0.02747 0.26518 0.6673 0.0
C830 C 0.02402 0.2435 0.64632 0.0
C831 C 0.05629 0.23946 0.63827 0.0
H832 H 0.20843 0.32489 0.62972 0.0
H833 H 0.15841 0.31806 0.6296 0.0
H834 H 0.18647 0.32918 0.65706 0.0
H835 H 0.12437 0.2951 0.6812 0.0
H836 H 0.06809 0.30215 0.69519 0.0
H837 H 0.0684 0.37892 0.27807 0.0
H838 H 0.07104 0.41799 0.24279 0.0
H839 H 0.16313 0.39868 0.21235 0.0
H840 H 0.15976 0.35892 0.24733 0.0
H841 H 0.12901 0.48382 0.21357 0.0
H842 H 0.06615 0.33553 0.16828 0.0
H843 H 0.07041 0.34074 0.20034 0.0
H844 H 0.11396 0.35361 0.18246 0.0
C845 C 0.09059 0.38482 0.26439 0.0
C846 C 0.1142 0.3664 0.26545 0.0
C847 C 0.09184 0.40679 0.24412 0.0
C848 C 0.11667 0.41048 0.2247 0.0
C849 C 0.14329 0.39565 0.22694 0.0
H850 H 0.05759 0.44032 0.07702 0.0
H851 H 0.10021 0.44073 0.10997 0.0
C852 C 0.14167 0.37332 0.24702 0.0
C853 C 0.11022 0.42407 0.20108 0.0
H854 H 0.07116 0.38867 0.14565 0.0
C855 C 0.11684 0.46321 0.1986 0.0
C856 C 0.09454 0.39723 0.18146 0.0
C857 C 0.0855 0.35434 0.18318 0.0
C858 C 0.1072 0.47586 0.17726 0.0
C859 C 0.08959 0.44835 0.15809 0.0
C860 C 0.08485 0.40988 0.16021 0.0
C861 C 0.07027 0.45626 0.13732 0.0
C862 C 0.11553 0.51846 0.17562 0.0
C863 C 0.03993 0.46566 0.14153 0.0
C864 C 0.01593 0.46556 0.12284 0.0
C865 C 0.02128 0.45565 0.09942 0.0
C866 C 0.05305 0.44842 0.09482 0.0
C867 C 0.07724 0.44849 0.11367 0.0
H868 H 0.14229 0.5389 0.18639 0.0
H869 H 0.12042 0.52921 0.15686 0.0
H870 H 0.08965 0.5202 0.18302 0.0
H871 H 0.03302 0.47065 0.15954 0.0
H872 H -0.00823 0.47137 0.12701 0.0
H873 H 0.69812 0.79079 0.22969 0.0
H874 H 0.6544 0.75327 0.19729 0.0
H875 H 0.5545 0.69745 0.24602 0.0
H876 H 0.59963 0.73434 0.2795 0.0
H877 H 0.55138 0.64307 0.21967 0.0
H878 H 0.57683 0.76008 0.15594 0.0
H879 H 0.62581 0.77012 0.16424 0.0
H880 H 0.59291 0.77224 0.18663 0.0
C881 C 0.66675 0.77114 0.23373 0.0
C882 C 0.65256 0.76553 0.2574 0.0
C883 C 0.6414 0.74997 0.21488 0.0
C884 C 0.60059 0.72318 0.21879 0.0
C885 C 0.58575 0.71828 0.24235 0.0
H886 H 0.53264 0.6033 0.07823 0.0
H887 H 0.52394 0.63952 0.1121 0.0
C888 C 0.61153 0.73935 0.26151 0.0
C889 C 0.57594 0.69703 0.19856 0.0
H890 H 0.57337 0.69839 0.13755 0.0
C891 C 0.55511 0.65533 0.20181 0.0
C892 C 0.57849 0.71225 0.17514 0.0
C893 C 0.59431 0.75618 0.17045 0.0
C894 C 0.5419 0.62899 0.18216 0.0
C895 C 0.55164 0.6447 0.15865 0.0
C896 C 0.56733 0.68603 0.15545 0.0
C897 C 0.55247 0.62012 0.13814 0.0
C898 C 0.51909 0.58455 0.18696 0.0
C899 C 0.57182 0.59769 0.1412 0.0
C900 C 0.57624 0.57683 0.12221 0.0
C901 C 0.56248 0.57845 0.09916 0.0
C902 C 0.54332 0.60116 0.09577 0.0
C903 C 0.53835 0.62185 0.11514 0.0
H904 H 0.49822 0.57789 0.20222 0.0
H905 H 0.5016 0.56722 0.17113 0.0
H906 H 0.5404 0.57431 0.19211 0.0
H907 H 0.58487 0.59723 0.15826 0.0
H908 H 0.59174 0.5603 0.12562 0.0
H909 H 0.35554 0.96912 0.086 0.0
H910 H 0.31895 0.92768 0.12041 0.0
H911 H 0.4253 0.92627 0.1433 0.0
H912 H 0.46201 0.96839 0.10911 0.0
H913 H 0.3028 0.85469 0.14386 0.0
H914 H 0.40809 -0.00907 0.1955 0.0
H915 H 0.40471 -0.0089 0.16337 0.0
H916 H 0.43045 0.96847 0.17757 0.0
C917 C 0.37043 0.95821 0.09772 0.0
C918 C 0.4113 0.97128 0.09479 0.0
C919 C 0.34965 0.93485 0.11751 0.0
C920 C 0.36963 0.92458 0.13472 0.0
C921 C 0.40946 0.93437 0.13047 0.0
H922 H 0.28621 0.8872 0.28393 0.0
H923 H 0.32335 0.88171 0.24959 0.0
C924 C 0.43029 0.95801 0.11081 0.0
C925 C 0.35074 0.90942 0.15846 0.0
H926 H 0.35536 0.93958 0.21645 0.0
C927 C 0.31461 0.87291 0.15983 0.0
C928 C 0.36626 0.93307 0.1794 0.0
C929 C 0.40433 0.9732 0.17902 0.0
C930 C 0.29283 0.86024 0.18133 0.0
C931 C 0.3071 0.88515 0.20185 0.0
C932 C 0.34444 0.92037 0.20081 0.0
C933 C 0.28126 0.87938 0.22301 0.0
C934 C 0.25423 0.82072 0.18165 0.0
C935 C 0.24491 0.8789 0.21964 0.0
C936 C 0.22416 0.8824 0.23907 0.0
C937 C 0.23929 0.88678 0.26245 0.0
C938 C 0.27409 0.88423 0.26613 0.0
C939 C 0.29521 0.88102 0.24651 0.0
H940 H 0.25581 0.79895 0.16922 0.0
H941 H 0.24709 0.80756 0.19986 0.0
H942 H 0.2294 0.82535 0.1755 0.0
H943 H 0.23385 0.87866 0.2018 0.0
H944 H 0.19724 0.88391 0.23557 0.0
H945 H 0.45056 0.07194 0.95368 0.0
H946 H 0.45736 0.11614 0.9201 0.0
H947 H 0.44826 0.02606 0.87035 0.0
H948 H 0.44251 0.98278 0.90338 0.0
H949 H 0.4993 0.10074 0.85374 0.0
H950 H 0.35614 0.08991 0.88394 0.0
H951 H 0.39735 0.11268 0.90453 0.0
H952 H 0.37551 0.0604 0.89729 0.0
C953 C 0.45092 0.06207 0.93559 0.0
C954 C 0.44499 0.02347 0.93121 0.0
C955 C 0.45454 0.0872 0.91639 0.0
C956 C 0.45221 0.07397 0.89262 0.0
C957 C 0.44984 0.03692 0.88844 0.0
H958 H 0.3767 0.07949 0.75258 0.0
H959 H 0.41624 0.07873 0.78664 0.0
C960 C 0.44631 0.01203 0.90745 0.0
C961 C 0.44758 0.09568 0.87193 0.0
H962 H 0.37989 0.1172 0.84641 0.0
C963 C 0.4736 0.1051 0.85228 0.0
C964 C 0.41395 0.10122 0.86991 0.0
C965 C 0.3839 0.09033 0.88991 0.0
C966 C 0.46604 0.11834 0.83047 0.0
C967 C 0.43131 0.12188 0.82813 0.0
C968 C 0.40659 0.11461 0.84817 0.0
C969 C 0.41739 0.12918 0.80478 0.0
C970 C 0.49493 0.12767 0.81004 0.0
C971 C 0.40585 0.15848 0.80309 0.0
C972 C 0.38311 0.15872 0.78366 0.0
C973 C 0.37196 0.13004 0.76538 0.0
C974 C 0.38622 0.10283 0.766 0.0
C975 C 0.4087 0.10232 0.78559 0.0
H976 H 0.52564 0.13742 0.81669 0.0
H977 H 0.48522 0.10022 0.79913 0.0
H978 H 0.49597 0.15143 0.79832 0.0
H979 H 0.41194 0.17937 0.81766 0.0
H980 H 0.37173 0.17945 0.7838 0.0
H981 H -0.01053 0.47636 0.91468 0.0
H982 H 0.95069 0.44031 0.87936 0.0
H983 H 0.92126 0.32808 0.91294 0.0
H984 H 0.95889 0.36434 0.94859 0.0
H985 H 0.97487 0.40136 0.85295 0.0
H986 H 0.81887 0.29389 0.87802 0.0
H987 H 0.85177 0.33492 0.89729 0.0
H988 H 0.85355 0.28896 0.89713 0.0
C989 C 0.97294 0.44391 0.91493 0.0
C990 C 0.97638 0.42302 0.93448 0.0
C991 C 0.95105 0.42329 0.89467 0.0
C992 C 0.93275 0.38133 0.89334 0.0
C993 C 0.93404 0.36028 0.91359 0.0
H994 H 0.89492 0.20709 0.79135 0.0
H995 H 0.89316 0.24539 0.82558 0.0
C996 C 0.95549 0.38099 0.93407 0.0
C997 C 0.91875 0.36065 0.86976 0.0
H998 H 0.84392 0.27753 0.84228 0.0
C999 C 0.94578 0.37487 0.85049 0.0
C1000 C 0.8809 0.32591 0.86642 0.0
C1001 C 0.84949 0.3103 0.88577 0.0
C1002 C 0.93705 0.35429 0.82858 0.0
C1003 C 0.9 0.31854 0.82562 0.0
C1004 C 0.87223 0.30506 0.8445 0.0
C1005 C 0.89253 0.2921 0.8045 0.0
C1006 C 0.96865 0.36961 0.80928 0.0
C1007 C 0.89073 0.30454 0.7811 0.0
C1008 C 0.8915 0.28235 0.76128 0.0
C1009 C 0.89461 0.2478 0.76465 0.0
C1010 C 0.89312 0.23392 0.7881 0.0
C1011 C 0.89195 0.25571 0.80775 0.0
H1012 H -0.00223 0.39459 0.81565 0.0
H1013 H 0.97349 0.34512 0.8026 0.0
H1014 H 0.95845 0.38065 0.79401 0.0
H1015 H 0.89061 0.33231 0.77816 0.0
H1016 H 0.89215 0.29344 0.74346 0.0
H1017 H 0.79998 0.66893 0.78461 0.0
H1018 H 0.76396 0.62948 0.81952 0.0
H1019 H 0.65268 0.58098 0.78052 0.0
H1020 H 0.68921 0.61947 0.74515 0.0
H1021 H 0.71361 0.64891 0.83977 0.0
H1022 H 0.63134 0.48577 0.82166 0.0
H1023 H 0.67247 0.52074 0.80325 0.0
H1024 H 0.62323 0.51438 0.7993 0.0
C1025 C 0.76809 0.64826 0.78314 0.0
C1026 C 0.74735 0.64697 0.76223 0.0
C1027 C 0.74746 0.62589 0.80314 0.0
C1028 C 0.70552 0.60227 0.8028 0.0
C1029 C 0.68506 0.59832 0.7812 0.0
H1030 H 0.52016 0.5397 0.90492 0.0
H1031 H 0.55993 0.54081 0.87049 0.0
C1032 C 0.70593 0.62032 0.76094 0.0
C1033 C 0.68339 0.58868 0.82586 0.0
H1034 H 0.60901 0.50842 0.85546 0.0
C1035 C 0.6913 0.61801 0.84334 0.0
C1036 C 0.65385 0.5485 0.83045 0.0
C1037 C 0.64492 0.51545 0.81276 0.0
C1038 C 0.66981 0.60871 0.86484 0.0
C1039 C 0.63989 0.56864 0.86938 0.0
C1040 C 0.63225 0.53904 0.8521 0.0
C1041 C 0.61391 0.55833 0.89091 0.0
C1042 C 0.67806 0.6424 0.88199 0.0
C1043 C 0.63037 0.5657 0.91407 0.0
C1044 C 0.60757 0.56521 0.93377 0.0
C1045 C 0.56804 0.55687 0.93069 0.0
C1046 C 0.55062 0.54608 0.90783 0.0
C1047 C 0.5733 0.54663 0.88814 0.0
H1048 H 0.69591 0.67231 0.87357 0.0
H1049 H 0.64966 0.63967 0.88873 0.0
H1050 H 0.69525 0.641 0.89752 0.0
H1051 H 0.66159 0.57456 0.91669 0.0
H1052 H 0.62171 0.57496 0.951 0.0
H1053 H 0.6485 0.78998 0.45343 0.0
H1054 H 0.68687 0.79023 0.48808 0.0
H1055 H 0.76933 0.77705 0.44181 0.0
H1056 H 0.73082 0.77751 0.40675 0.0
H1057 H 0.72851 0.71473 0.47575 0.0
H1058 H 0.7955 0.86272 0.52051 0.0
H1059 H 0.74407 0.8432 0.51206 0.0
H1060 H 0.78142 0.85569 0.48928 0.0
C1061 C 0.67555 0.78845 0.45052 0.0
C1062 C 0.68639 0.78302 0.42735 0.0
C1063 C 0.69766 0.78888 0.4704 0.0
C1064 C 0.73107 0.78378 0.46762 0.0
C1065 C 0.74373 0.78125 0.44438 0.0
H1066 H 0.82252 0.684 0.57414 0.0
H1067 H 0.81735 0.71793 0.53863 0.0
C1068 C 0.72181 0.78147 0.42436 0.0
C1069 C 0.74778 0.77414 0.48893 0.0
H1070 H 0.78624 0.8073 0.54483 0.0
C1071 C 0.74192 0.73523 0.49067 0.0
C1072 C 0.7644 0.80063 0.50858 0.0
C1073 C 0.77207 0.84303 0.5075 0.0
C1074 C 0.75056 0.72143 0.51181 0.0
C1075 C 0.76699 0.74778 0.53163 0.0
C1076 C 0.77376 0.78711 0.5297 0.0
C1077 C 0.77616 0.7343 0.55454 0.0
C1078 C 0.73991 0.678 0.51304 0.0
C1079 C 0.75737 0.73504 0.57599 0.0
C1080 C 0.76126 0.71656 0.59666 0.0
C1081 C 0.78358 0.69668 0.59598 0.0
C1082 C 0.80458 0.69853 0.57502 0.0
C1083 C 0.80143 0.71769 0.55466 0.0
H1084 H 0.7174 0.65952 0.49927 0.0
H1085 H 0.76718 0.67576 0.50975 0.0
H1086 H 0.72777 0.66504 0.53087 0.0
H1087 H 0.73805 0.74807 0.57643 0.0
H1088 H 0.74482 0.7156 0.61261 0.0
H1089 H 0.18562 0.85577 0.45089 0.0
H1090 H 0.18186 0.88892 0.48736 0.0
H1091 H 0.25129 0.00391 0.45337 0.0
H1092 H 0.25441 0.97039 0.41672 0.0
H1093 H 0.24894 0.93515 0.51115 0.0
H1094 H 0.1748 0.02406 0.49291 0.0
H1095 H 0.16944 0.98416 0.47339 0.0
H1096 H 0.21312 0.03315 0.47148 0.0
C1097 C 0.19848 0.88804 0.45088 0.0
C1098 C 0.21967 0.91059 0.43087 0.0
C1099 C 0.1965 0.90699 0.47178 0.0
C1100 C 0.21609 0.94897 0.47321 0.0
C1101 C 0.23504 0.97149 0.45263 0.0
H1102 H 0.34065 0.12916 0.57459 0.0
H1103 H 0.30039 0.08851 0.5411 0.0
C1104 C 0.23666 0.95238 0.43157 0.0
C1105 C 0.2226 0.96883 0.49702 0.0
H1106 H 0.21855 0.04408 0.52734 0.0
C1107 C 0.24142 0.95834 0.51486 0.0
C1108 C 0.21306 -0.00074 0.50189 0.0
C1109 C 0.19112 0.01057 0.48398 0.0
C1110 C 0.25286 0.97871 0.53683 0.0
C1111 C 0.24466 0.01015 0.54141 0.0
C1112 C 0.22453 0.01976 0.52394 0.0
C1113 C 0.26208 0.03679 0.56261 0.0
C1114 C 0.27592 0.96804 0.55437 0.0
C1115 C 0.25257 0.02208 0.58614 0.0
C1116 C 0.27566 0.04558 0.6055 0.0
C1117 C 0.3086 0.08385 0.60151 0.0
C1118 C 0.31566 0.09957 0.57821 0.0
C1119 C 0.29256 0.07639 0.55901 0.0
H1120 H 0.28534 0.94748 0.54646 0.0
H1121 H 0.30306 -0.00455 0.56074 0.0
H1122 H 0.25679 0.953 0.57011 0.0
H1123 H 0.22877 -0.00827 0.58938 0.0
H1124 H 0.26968 0.03282 0.62323 0.0
H1125 H 0.8558 0.20493 0.56983 0.0
H1126 H 0.89656 0.20609 0.53629 0.0
H1127 H -0.00156 0.24579 0.58322 0.0
H1128 H 0.95755 0.24653 0.61686 0.0
H1129 H 0.01601 0.29376 0.54633 0.0
H1130 H 0.94096 0.13994 0.51023 0.0
H1131 H 0.90581 0.15736 0.51339 0.0
H1132 H 0.9297 0.15142 0.53957 0.0
C1133 C 0.88665 0.21297 0.57317 0.0
C1134 C 0.9035 0.22524 0.59607 0.0
C1135 C 0.90987 0.21315 0.55395 0.0
C1136 C 0.95049 0.22522 0.55716 0.0
C1137 C 0.96702 0.23578 0.5803 0.0
H1138 H 0.13683 0.31102 0.44796 0.0
H1139 H 0.09799 0.275 0.4832 0.0
C1140 C 0.94365 0.23576 0.5996 0.0
C1141 C 0.97646 0.23256 0.53582 0.0
H1142 H 0.98122 0.19282 0.48187 0.0
C1143 C 0.00892 0.27136 0.53251 0.0
C1144 C 0.9671 0.20351 0.51759 0.0
C1145 C 0.93421 0.16064 0.52051 0.0
C1146 C 0.03089 0.28248 0.51115 0.0
C1147 C 0.02055 0.2539 0.49258 0.0
C1148 C -0.01104 0.21472 0.49607 0.0
C1149 C 0.04149 0.26536 0.46918 0.0
C1150 C 0.06393 0.32537 0.50819 0.0
C1151 C 0.02208 0.26937 0.44896 0.0
C1152 C 0.04422 0.28947 0.42861 0.0
C1153 C 0.08591 0.30559 0.42829 0.0
C1154 C 0.1046 0.29839 0.4477 0.0
C1155 C 0.08251 0.27809 0.46789 0.0
H1156 H 0.06299 0.34534 0.52226 0.0
H1157 H 0.09337 0.32671 0.50934 0.0
H1158 H 0.06193 0.33712 0.49044 0.0
H1159 H -0.00955 0.25988 0.44963 0.0
H1160 H 0.02943 0.29579 0.41419 0.0
loop_
_geom_bond_atom_site_label_1
_geom_bond_atom_site_label_2
_geom_bond_distance
_geom_bond_site_symmetry_2
_ccdc_geom_bond_type
O0 Mg1 1.990 . S
O0 C14 1.253 . S
Mg1 O0 1.990 . S
Mg1 O4 2.180 1_655 S
Mg1 O5 2.117 . S
Mg1 O19 2.030 . S
O2 Mg3 2.079 1_655 S
O2 C14 1.283 . S
Mg3 O2 2.079 1_455 S
Mg3 O4 2.099 . S
Mg3 O6 2.079 . S
Mg3 O7 2.072 . S
Mg3 O9 2.099 1_554 S
Mg3 O20 2.079 1_455 S
O4 Mg1 2.180 1_455 S
O4 Mg3 2.099 . S
O4 C15 1.279 . S
O5 Mg1 2.117 . S
O5 C15 1.250 1_655 S
O6 Mg3 2.079 . S
O6 C16 1.263 1_554 S
O7 Mg3 2.072 . S
O7 C17 1.269 . S
Mg8 O9 2.180 . S
Mg8 O10 2.030 . S
Mg8 O11 1.990 . S
Mg8 O12 2.117 . S
O9 Mg3 2.099 1_556 S
O9 Mg8 2.180 . S
O9 C18 1.279 . S
O10 Mg8 2.030 . S
O10 C16 1.248 . S
O11 Mg8 1.990 . S
O11 C17 1.237 1_556 S
O12 Mg8 2.117 . S
O12 C18 1.250 . S
C13 O19 1.248 . S
C13 O20 1.264 . S
C14 O0 1.253 . S
C14 O2 1.283 . S
C15 O4 1.279 . S
C15 O5 1.250 1_455 S
C16 O6 1.263 1_556 S
C16 O10 1.248 . S
C17 O7 1.269 . S
C17 O11 1.237 1_554 S
C18 O9 1.279 . S
C18 O12 1.250 . S
O19 Mg1 2.030 . S
O19 C13 1.248 . S
O20 Mg3 2.079 1_655 S
O20 C13 1.264 . S
O21 Mg22 1.990 . S
O21 C35 1.237 1_556 S
Mg22 O21 1.990 . S
Mg22 O25 2.180 . S
Mg22 O26 2.117 . S
Mg22 O40 2.030 . S
O23 Mg24 2.072 . S
O23 C35 1.269 . S
Mg24 O23 2.072 . S
Mg24 O25 2.099 1_554 S
Mg24 O27 2.079 . S
Mg24 O28 2.079 . S
Mg24 O30 2.099 . S
Mg24 O41 2.079 . S
O25 Mg22 2.180 . S
O25 Mg24 2.099 1_556 S
O25 C36 1.279 . S
O26 Mg22 2.117 . S
O26 C36 1.250 . S
O27 Mg24 2.079 . S
O27 C37 1.264 . S
O28 Mg24 2.079 . S
O28 C38 1.283 . S
Mg29 O30 2.180 . S
Mg29 O31 2.030 . S
Mg29 O32 1.990 . S
Mg29 O33 2.117 . S
O30 Mg24 2.099 . S
O30 Mg29 2.180 . S
O30 C39 1.279 . S
O31 Mg29 2.030 . S
O31 C37 1.248 . S
O32 Mg29 1.990 . S
O32 C38 1.253 . S
O33 Mg29 2.117 . S
O33 C39 1.250 . S
C34 O40 1.249 . S
C34 O41 1.263 1_556 S
C35 O21 1.237 1_554 S
C35 O23 1.269 . S
C36 O25 1.279 . S
C36 O26 1.250 . S
C37 O27 1.264 . S
C37 O31 1.248 . S
C38 O28 1.283 . S
C38 O32 1.253 . S
C39 O30 1.279 . S
C39 O33 1.250 . S
O40 Mg22 2.030 . S
O40 C34 1.249 . S
O41 Mg24 2.079 . S
O41 C34 1.263 1_554 S
O42 Mg43 1.990 . S
O42 C56 1.237 1_556 S
Mg43 O42 1.990 . S
Mg43 O46 2.180 1_565 S
Mg43 O47 2.117 . S
Mg43 O61 2.030 . S
O44 Mg45 2.072 1_565 S
O44 C56 1.269 . S
Mg45 O44 2.072 1_545 S
Mg45 O46 2.099 1_554 S
Mg45 O48 2.079 . S
Mg45 O49 2.079 . S
Mg45 O51 2.099 . S
Mg45 O62 2.079 1_545 S
O46 Mg43 2.180 1_545 S
O46 Mg45 2.099 1_556 S
O46 C57 1.279 . S
O47 Mg43 2.117 . S
O47 C57 1.250 1_565 S
O48 Mg45 2.079 . S
O48 C58 1.264 . S
O49 Mg45 2.079 . S
O49 C59 1.283 . S
Mg50 O51 2.180 . S
Mg50 O52 2.030 . S
Mg50 O53 1.990 . S
Mg50 O54 2.117 . S
O51 Mg45 2.099 . S
O51 Mg50 2.180 . S
O51 C60 1.279 . S
O52 Mg50 2.030 . S
O52 C58 1.248 . S
O53 Mg50 1.990 . S
O53 C59 1.253 . S
O54 Mg50 2.117 . S
O54 C60 1.250 . S
C55 O61 1.249 . S
C55 O62 1.263 1_556 S
C56 O42 1.237 1_554 S
C56 O44 1.269 . S
C57 O46 1.279 . S
C57 O47 1.250 1_545 S
C58 O48 1.264 . S
C58 O52 1.248 . S
C59 O49 1.283 . S
C59 O53 1.253 . S
C60 O51 1.279 . S
C60 O54 1.250 . S
O61 Mg43 2.030 . S
O61 C55 1.249 . S
O62 Mg45 2.079 1_565 S
O62 C55 1.263 1_554 S
O63 Mg64 1.990 . S
O63 C77 1.253 . S
Mg64 O63 1.990 . S
Mg64 O67 2.180 . S
Mg64 O68 2.117 . S
Mg64 O82 2.030 . S
O65 Mg66 2.072 . S
O65 C77 1.260 . S
Mg66 O65 2.072 . S
Mg66 O67 2.099 . S
Mg66 O69 2.079 . S
Mg66 O70 2.072 . S
Mg66 O72 2.099 . S
Mg66 O83 2.079 . S
O67 Mg64 2.180 . S
O67 Mg66 2.099 . S
O67 C78 1.279 . S
O68 Mg64 2.117 . S
O68 C78 1.250 . S
O69 Mg66 2.079 . S
O69 C79 1.264 . S
O70 Mg66 2.072 . S
O70 C80 1.260 . S
Mg71 O72 2.180 . S
Mg71 O73 2.030 . S
Mg71 O74 1.990 . S
Mg71 O75 2.117 . S
O72 Mg66 2.099 . S
O72 Mg71 2.180 . S
O72 C81 1.279 . S
O73 Mg71 2.030 . S
O73 C79 1.248 . S
O74 Mg71 1.990 . S
O74 C80 1.253 . S
O75 Mg71 2.117 . S
O75 C81 1.250 . S
C76 O82 1.248 . S
C76 O83 1.264 . S
C77 O63 1.253 . S
C77 O65 1.260 . S
C78 O67 1.279 . S
C78 O68 1.250 . S
C79 O69 1.264 . S
C79 O73 1.248 . S
C80 O70 1.260 . S
C80 O74 1.253 . S
C81 O72 1.279 . S
C81 O75 1.250 . S
O82 Mg64 2.030 . S
O82 C76 1.248 . S
O83 Mg66 2.079 . S
O83 C76 1.264 . S
O84 Mg85 1.990 . S
O84 C98 1.253 . S
Mg85 O84 1.990 . S
Mg85 O88 2.180 . S
Mg85 O89 2.117 . S
Mg85 O103 2.030 . S
O86 Mg87 2.072 . S
O86 C98 1.260 . S
Mg87 O86 2.072 . S
Mg87 O88 2.099 . S
Mg87 O90 2.079 . S
Mg87 O91 2.072 . S
Mg87 O93 2.099 . S
Mg87 O104 2.079 . S
O88 Mg85 2.180 . S
O88 Mg87 2.099 . S
O88 C99 1.279 . S
O89 Mg85 2.117 . S
O89 C99 1.250 . S
O90 Mg87 2.079 . S
O90 C100 1.264 . S
O91 Mg87 2.072 . S
O91 C101 1.260 . S
Mg92 O93 2.180 . S
Mg92 O94 2.030 . S
Mg92 O95 1.990 . S
Mg92 O96 2.117 . S
O93 Mg87 2.099 . S
O93 Mg92 2.180 . S
O93 C102 1.279 . S
O94 Mg92 2.030 . S
O94 C100 1.248 . S
O95 Mg92 1.990 . S
O95 C101 1.253 . S
O96 Mg92 2.117 . S
O96 C102 1.250 . S
C97 O103 1.248 . S
C97 O104 1.264 . S
C98 O84 1.253 . S
C98 O86 1.260 . S
C99 O88 1.279 . S
C99 O89 1.250 . S
C100 O90 1.264 . S
C100 O94 1.248 . S
C101 O91 1.260 . S
C101 O95 1.253 . S
C102 O93 1.279 . S
C102 O96 1.250 . S
O103 Mg85 2.030 . S
O103 C97 1.248 . S
O104 Mg87 2.079 . S
O104 C97 1.264 . S
O105 Mg106 1.990 . S
O105 C119 1.253 . S
Mg106 O105 1.990 . S
Mg106 O109 2.180 . S
Mg106 O110 2.117 . S
Mg106 O124 2.030 . S
O107 Mg108 2.072 . S
O107 C119 1.260 . S
Mg108 O107 2.072 . S
Mg108 O109 2.099 . S
Mg108 O111 2.079 . S
Mg108 O112 2.072 . S
Mg108 O114 2.099 . S
Mg108 O125 2.079 . S
O109 Mg106 2.180 . S
O109 Mg108 2.099 . S
O109 C120 1.279 . S
O110 Mg106 2.117 . S
O110 C120 1.250 . S
O111 Mg108 2.079 . S
O111 C121 1.264 . S
O112 Mg108 2.072 . S
O112 C122 1.260 . S
Mg113 O114 2.180 . S
Mg113 O115 2.030 . S
Mg113 O116 1.990 . S
Mg113 O117 2.117 . S
O114 Mg108 2.099 . S
O114 Mg113 2.180 . S
O114 C123 1.279 . S
O115 Mg113 2.030 . S
O115 C121 1.248 . S
O116 Mg113 1.990 . S
O116 C122 1.253 . S
O117 Mg113 2.117 . S
O117 C123 1.250 . S
C118 O124 1.248 . S
C118 O125 1.264 . S
C119 O105 1.253 . S
C119 O107 1.260 . S
C120 O109 1.279 . S
C120 O110 1.250 . S
C121 O111 1.264 . S
C121 O115 1.248 . S
C122 O112 1.260 . S
C122 O116 1.253 . S
C123 O114 1.279 . S
C123 O117 1.250 . S
O124 Mg106 2.030 . S
O124 C118 1.248 . S
O125 Mg108 2.079 . S
O125 C118 1.264 . S
O126 Mg127 1.990 . S
O126 C140 1.253 . S
Mg127 O126 1.990 . S
Mg127 O130 2.180 . S
Mg127 O131 2.117 . S
Mg127 O145 2.030 . S
O128 Mg129 2.072 . S
O128 C140 1.260 . S
Mg129 O128 2.072 . S
Mg129 O130 2.099 . S
Mg129 O132 2.079 . S
Mg129 O133 2.072 . S
Mg129 O135 2.099 . S
Mg129 O146 2.079 . S
O130 Mg127 2.180 . S
O130 Mg129 2.099 . S
O130 C141 1.279 . S
O131 Mg127 2.117 . S
O131 C141 1.250 . S
O132 Mg129 2.079 . S
O132 C142 1.264 . S
O133 Mg129 2.072 . S
O133 C143 1.260 . S
Mg134 O135 2.180 . S
Mg134 O136 2.030 . S
Mg134 O137 1.990 . S
Mg134 O138 2.117 . S
O135 Mg129 2.099 . S
O135 Mg134 2.180 . S
O135 C144 1.279 . S
O136 Mg134 2.030 . S
O136 C142 1.248 . S
O137 Mg134 1.990 . S
O137 C143 1.253 . S
O138 Mg134 2.117 . S
O138 C144 1.250 . S
C139 O145 1.248 . S
C139 O146 1.264 . S
C140 O126 1.253 . S
C140 O128 1.260 . S
C141 O130 1.279 . S
C141 O131 1.250 . S
C142 O132 1.264 . S
C142 O136 1.248 . S
C143 O133 1.260 . S
C143 O137 1.253 . S
C144 O135 1.279 . S
C144 O138 1.250 . S
O145 Mg127 2.030 . S
O145 C139 1.248 . S
O146 Mg129 2.079 . S
O146 C139 1.264 . S
O147 Mg148 1.990 . S
O147 C161 1.253 . S
Mg148 O147 1.990 . S
Mg148 O151 2.180 . S
Mg148 O152 2.117 . S
Mg148 O166 2.030 . S
O149 Mg150 2.072 . S
O149 C161 1.260 . S
Mg150 O149 2.072 . S
Mg150 O151 2.099 . S
Mg150 O153 2.079 . S
Mg150 O154 2.072 . S
Mg150 O156 2.099 . S
Mg150 O167 2.079 . S
O151 Mg148 2.180 . S
O151 Mg150 2.099 . S
O151 C162 1.279 . S
O152 Mg148 2.117 . S
O152 C162 1.250 . S
O153 Mg150 2.079 . S
O153 C163 1.264 . S
O154 Mg150 2.072 . S
O154 C164 1.260 . S
Mg155 O156 2.180 . S
Mg155 O157 2.030 . S
Mg155 O158 1.990 . S
Mg155 O159 2.117 . S
O156 Mg150 2.099 . S
O156 Mg155 2.180 . S
O156 C165 1.279 . S
O157 Mg155 2.030 . S
O157 C163 1.248 . S
O158 Mg155 1.990 . S
O158 C164 1.253 . S
O159 Mg155 2.117 . S
O159 C165 1.250 . S
C160 O166 1.248 . S
C160 O167 1.264 . S
C161 O147 1.253 . S
C161 O149 1.260 . S
C162 O151 1.279 . S
C162 O152 1.250 . S
C163 O153 1.264 . S
C163 O157 1.248 . S
C164 O154 1.260 . S
C164 O158 1.253 . S
C165 O156 1.279 . S
C165 O159 1.250 . S
O166 Mg148 2.030 . S
O166 C160 1.248 . S
O167 Mg150 2.079 . S
O167 C160 1.264 . S
O168 Mg169 1.990 . S
O168 C182 1.253 . S
Mg169 O168 1.990 . S
Mg169 O172 2.180 . S
Mg169 O173 2.117 . S
Mg169 O187 2.030 . S
O170 Mg171 2.072 . S
O170 C182 1.260 . S
Mg171 O170 2.072 . S
Mg171 O172 2.099 . S
Mg171 O174 2.079 . S
Mg171 O175 2.072 . S
Mg171 O177 2.099 . S
Mg171 O188 2.079 . S
O172 Mg169 2.180 . S
O172 Mg171 2.099 . S
O172 C183 1.279 . S
O173 Mg169 2.117 . S
O173 C183 1.250 . S
O174 Mg171 2.079 . S
O174 C184 1.264 . S
O175 Mg171 2.072 . S
O175 C185 1.260 . S
Mg176 O177 2.180 . S
Mg176 O178 2.030 . S
Mg176 O179 1.990 . S
Mg176 O180 2.117 . S
O177 Mg171 2.099 . S
O177 Mg176 2.180 . S
O177 C186 1.279 . S
O178 Mg176 2.030 . S
O178 C184 1.248 . S
O179 Mg176 1.990 . S
O179 C185 1.253 . S
O180 Mg176 2.117 . S
O180 C186 1.250 . S
C181 O187 1.248 . S
C181 O188 1.264 . S
C182 O168 1.253 . S
C182 O170 1.260 . S
C183 O172 1.279 . S
C183 O173 1.250 . S
C184 O174 1.264 . S
C184 O178 1.248 . S
C185 O175 1.260 . S
C185 O179 1.253 . S
C186 O177 1.279 . S
C186 O180 1.250 . S
O187 Mg169 2.030 . S
O187 C181 1.248 . S
O188 Mg171 2.079 . S
O188 C181 1.264 . S
H189 C197 0.929 . S
H190 C199 0.930 . S
H191 C201 0.932 . S
H192 C204 0.934 . S
H193 C207 0.930 . S
H194 C209 0.960 . S
H195 C209 0.960 . S
H196 C209 0.960 . S
C197 H189 0.929 . S
C197 C198 1.377 . S
C197 C199 1.384 . S
C198 C197 1.377 . S
C198 C204 1.386 1_554 S
C199 H190 0.930 . S
C199 C197 1.384 . S
C199 C200 1.372 . S
C200 C199 1.372 . S
C200 C201 1.398 1_554 S
C200 C205 1.490 . S
C201 H191 0.932 . S
C201 C200 1.398 1_556 S
C201 C204 1.386 . S
H202 C218 0.930 . S
H203 C219 0.931 . S
C204 H192 0.934 . S
C204 C198 1.386 1_556 S
C204 C201 1.386 . S
C205 C200 1.490 . S
C205 C207 1.395 . S
C205 C208 1.403 1_554 S
H206 C212 0.930 . S
C207 H193 0.930 . S
C207 C205 1.395 . S
C207 C210 1.403 . S
C208 C205 1.403 1_556 S
C208 C209 1.524 . S
C208 C212 1.400 . S
C209 H194 0.960 . S
C209 H195 0.960 . S
C209 H196 0.960 . S
C209 C208 1.524 . S
C210 C207 1.403 . S
C210 C211 1.392 . S
C210 C214 1.495 . S
C211 C210 1.392 . S
C211 C212 1.385 1_554 S
C211 C213 1.478 . S
C212 H206 0.930 . S
C212 C208 1.400 . S
C212 C211 1.385 1_556 S
C213 C211 1.478 . S
C213 C215 1.381 . S
C213 C219 1.383 . S
C214 C210 1.495 . S
C214 H220 0.959 . S
C214 H221 0.961 . S
C214 H222 0.960 . S
C215 C213 1.381 . S
C215 C216 1.394 . S
C215 H223 0.930 . S
C216 C215 1.394 . S
C216 C217 1.383 . S
C216 H224 0.929 . S
C217 C216 1.383 . S
C217 C218 1.377 . S
C218 H202 0.930 . S
C218 C217 1.377 . S
C218 C219 1.379 . S
C219 H203 0.931 . S
C219 C213 1.383 . S
C219 C218 1.379 . S
H220 C214 0.959 . S
H221 C214 0.961 . S
H222 C214 0.960 . S
H223 C215 0.930 . S
H224 C216 0.929 . S
H225 C233 0.929 . S
H226 C235 0.930 . S
H227 C237 0.930 . S
H228 C240 0.929 . S
H229 C243 0.930 . S
H230 C245 0.960 . S
H231 C245 0.960 . S
H232 C245 0.960 . S
C233 H225 0.929 . S
C233 C234 1.377 . S
C233 C235 1.384 . S
C234 C233 1.377 . S
C234 C240 1.390 1_554 S
C235 H226 0.930 . S
C235 C233 1.384 . S
C235 C236 1.372 . S
C236 C235 1.372 . S
C236 C237 1.400 1_554 S
C236 C241 1.490 . S
C237 H227 0.930 . S
C237 C236 1.400 1_556 S
C237 C240 1.386 . S
H238 C254 0.930 . S
H239 C255 0.931 . S
C240 H228 0.929 . S
C240 C234 1.390 1_556 S
C240 C237 1.386 . S
C241 C236 1.490 . S
C241 C243 1.395 1_554 S
C241 C244 1.403 . S
H242 C248 0.930 . S
C243 H229 0.930 . S
C243 C241 1.395 1_556 S
C243 C246 1.403 . S
C244 C241 1.403 . S
C244 C245 1.524 . S
C244 C248 1.400 . S
C245 H230 0.960 . S
C245 H231 0.960 . S
C245 H232 0.960 . S
C245 C244 1.524 . S
C246 C243 1.403 . S
C246 C247 1.392 1_556 S
C246 C250 1.495 . S
C247 C246 1.392 1_554 S
C247 C248 1.385 . S
C247 C249 1.478 . S
C248 H242 0.930 . S
C248 C244 1.400 . S
C248 C247 1.385 . S
C249 C247 1.478 . S
C249 C251 1.381 . S
C249 C255 1.383 1_554 S
C250 C246 1.495 . S
C250 H256 0.959 . S
C250 H257 0.961 . S
C250 H258 0.960 . S
C251 C249 1.381 . S
C251 C252 1.394 . S
C251 H259 0.930 . S
C252 C251 1.394 . S
C252 C253 1.383 . S
C252 H260 0.929 . S
C253 C252 1.383 . S
C253 C254 1.377 1_554 S
C254 H238 0.930 . S
C254 C253 1.377 1_556 S
C254 C255 1.379 . S
C255 H239 0.931 . S
C255 C249 1.383 1_556 S
C255 C254 1.379 . S
H256 C250 0.959 . S
H257 C250 0.961 . S
H258 C250 0.960 . S
H259 C251 0.930 . S
H260 C252 0.929 . S
H261 C269 0.929 . S
H262 C271 0.930 . S
H263 C273 0.948 . S
H264 C276 0.929 . S
H265 C279 0.930 . S
H266 C281 0.960 . S
H267 C281 0.960 . S
H268 C281 0.960 . S
C269 H261 0.929 . S
C269 C270 1.377 . S
C269 C271 1.384 . S
C270 C269 1.377 . S
C270 C276 1.390 1_554 S
C271 H262 0.930 . S
C271 C269 1.384 . S
C271 C272 1.372 . S
C272 C271 1.372 . S
C272 C273 1.383 1_554 S
C272 C277 1.490 . S
C273 H263 0.948 . S
C273 C272 1.383 1_556 S
C273 C276 1.387 . S
H274 C290 0.930 . S
H275 C291 0.931 . S
C276 H264 0.929 . S
C276 C270 1.390 1_556 S
C276 C273 1.387 . S
C277 C272 1.490 . S
C277 C279 1.395 1_554 S
C277 C280 1.403 . S
H278 C284 0.930 . S
C279 H265 0.930 . S
C279 C277 1.395 1_556 S
C279 C282 1.403 . S
C280 C277 1.403 . S
C280 C281 1.524 . S
C280 C284 1.400 . S
C281 H266 0.960 . S
C281 H267 0.960 . S
C281 H268 0.960 . S
C281 C280 1.524 . S
C282 C279 1.403 . S
C282 C283 1.392 1_556 S
C282 C286 1.495 . S
C283 C282 1.392 1_554 S
C283 C284 1.385 . S
C283 C285 1.478 . S
C284 H278 0.930 . S
C284 C280 1.400 . S
C284 C283 1.385 . S
C285 C283 1.478 . S
C285 C287 1.381 . S
C285 C291 1.383 1_554 S
C286 C282 1.495 . S
C286 H292 0.959 . S
C286 H293 0.961 . S
C286 H294 0.960 . S
C287 C285 1.381 . S
C287 C288 1.394 . S
C287 H295 0.930 . S
C288 C287 1.394 . S
C288 C289 1.383 . S
C288 H296 0.929 . S
C289 C288 1.383 . S
C289 C290 1.377 1_554 S
C290 H274 0.930 . S
C290 C289 1.377 1_556 S
C290 C291 1.379 . S
C291 H275 0.931 . S
C291 C285 1.383 1_556 S
C291 C290 1.379 . S
H292 C286 0.959 . S
H293 C286 0.961 . S
H294 C286 0.960 . S
H295 C287 0.930 . S
H296 C288 0.929 . S
H297 C305 0.929 . S
H298 C307 0.930 . S
H299 C309 0.930 . S
H300 C312 0.929 . S
H301 C315 0.930 . S
H302 C317 0.960 . S
H303 C317 0.960 1_556 S
H304 C317 0.960 . S
C305 H297 0.929 . S
C305 C306 1.377 1_556 S
C305 C307 1.384 . S
C306 C305 1.377 1_554 S
C306 C312 1.390 . S
C307 H298 0.930 . S
C307 C305 1.384 . S
C307 C308 1.372 1_556 S
C308 C307 1.372 1_554 S
C308 C309 1.400 . S
C308 C313 1.490 . S
C309 H299 0.930 . S
C309 C308 1.400 . S
C309 C312 1.386 . S
H310 C326 0.930 . S
H311 C327 0.931 . S
C312 H300 0.929 . S
C312 C306 1.390 . S
C312 C309 1.386 . S
C313 C308 1.490 . S
C313 C315 1.395 . S
C313 C316 1.403 . S
H314 C320 0.930 . S
C315 H301 0.930 . S
C315 C313 1.395 . S
C315 C318 1.403 . S
C316 C313 1.403 . S
C316 C317 1.524 . S
C316 C320 1.400 . S
C317 H302 0.960 . S
C317 H303 0.960 1_554 S
C317 H304 0.960 . S
C317 C316 1.524 . S
C318 C315 1.403 . S
C318 C319 1.392 . S
C318 C322 1.495 . S
C319 C318 1.392 . S
C319 C320 1.385 . S
C319 C321 1.478 . S
C320 H314 0.930 . S
C320 C316 1.400 . S
C320 C319 1.385 . S
C321 C319 1.478 . S
C321 C323 1.381 1_554 S
C321 C327 1.383 . S
C322 C318 1.495 . S
C322 H328 0.959 . S
C322 H329 0.961 . S
C322 H330 0.960 1_554 S
C323 C321 1.381 1_556 S
C323 C324 1.394 . S
C323 H331 0.930 . S
C324 C323 1.394 . S
C324 C325 1.383 1_556 S
C324 H332 0.929 . S
C325 C324 1.383 1_554 S
C325 C326 1.377 . S
C326 H310 0.930 . S
C326 C325 1.377 . S
C326 C327 1.379 . S
C327 H311 0.931 . S
C327 C321 1.383 . S
C327 C326 1.379 . S
H328 C322 0.959 . S
H329 C322 0.961 . S
H330 C322 0.960 1_556 S
H331 C323 0.930 . S
H332 C324 0.929 . S
H333 C341 0.929 . S
H334 C343 0.930 . S
H335 C345 0.930 . S
H336 C348 0.929 . S
H337 C351 0.930 . S
H338 C353 0.960 . S
H339 C353 0.960 1_556 S
H340 C353 0.960 . S
C341 H333 0.929 . S
C341 C342 1.377 1_556 S
C341 C343 1.384 . S
C342 C341 1.377 1_554 S
C342 C348 1.390 . S
C343 H334 0.930 . S
C343 C341 1.384 . S
C343 C344 1.372 1_556 S
C344 C343 1.372 1_554 S
C344 C345 1.400 . S
C344 C349 1.490 . S
C345 H335 0.930 . S
C345 C344 1.400 . S
C345 C348 1.386 . S
H346 C362 0.930 . S
H347 C363 0.931 . S
C348 H336 0.929 . S
C348 C342 1.390 . S
C348 C345 1.386 . S
C349 C344 1.490 . S
C349 C351 1.395 . S
C349 C352 1.403 . S
H350 C356 0.930 . S
C351 H337 0.930 . S
C351 C349 1.395 . S
C351 C354 1.403 . S
C352 C349 1.403 . S
C352 C353 1.524 . S
C352 C356 1.400 . S
C353 H338 0.960 . S
C353 H339 0.960 1_554 S
C353 H340 0.960 . S
C353 C352 1.524 . S
C354 C351 1.403 . S
C354 C355 1.392 . S
C354 C358 1.495 . S
C355 C354 1.392 . S
C355 C356 1.385 . S
C355 C357 1.478 . S
C356 H350 0.930 . S
C356 C352 1.400 . S
C356 C355 1.385 . S
C357 C355 1.478 . S
C357 C359 1.381 1_554 S
C357 C363 1.383 . S
C358 C354 1.495 . S
C358 H364 0.959 . S
C358 H365 0.961 . S
C358 H366 0.960 1_554 S
C359 C357 1.381 1_556 S
C359 C360 1.394 . S
C359 H367 0.930 . S
C360 C359 1.394 . S
C360 C361 1.383 1_556 S
C360 H368 0.929 . S
C361 C360 1.383 1_554 S
C361 C362 1.377 . S
C362 H346 0.930 . S
C362 C361 1.377 . S
C362 C363 1.379 . S
C363 H347 0.931 . S
C363 C357 1.383 . S
C363 C362 1.379 . S
H364 C358 0.959 . S
H365 C358 0.961 . S
H366 C358 0.960 1_556 S
H367 C359 0.930 . S
H368 C360 0.929 . S
H369 C377 0.929 . S
H370 C379 0.930 . S
H371 C381 0.930 . S
H372 C384 0.929 . S
H373 C387 0.930 . S
H374 C389 0.960 . S
H375 C389 0.960 . S
H376 C389 0.960 1_554 S
C377 H369 0.929 . S
C377 C378 1.377 1_556 S
C377 C379 1.384 . S
C378 C377 1.377 1_554 S
C378 C384 1.390 . S
C379 H370 0.930 . S
C379 C377 1.384 . S
C379 C380 1.372 1_556 S
C380 C379 1.372 1_554 S
C380 C381 1.400 . S
C380 C385 1.490 . S
C381 H371 0.930 . S
C381 C380 1.400 . S
C381 C384 1.386 . S
H382 C398 0.930 . S
H383 C399 0.931 . S
C384 H372 0.929 . S
C384 C378 1.390 . S
C384 C381 1.386 . S
C385 C380 1.490 . S
C385 C387 1.395 . S
C385 C388 1.394 1_554 S
H386 C392 0.927 1_556 S
C387 H373 0.930 . S
C387 C385 1.395 . S
C387 C390 1.403 . S
C388 C385 1.394 1_556 S
C388 C389 1.535 . S
C388 C392 1.399 1_556 S
C389 H374 0.960 . S
C389 H375 0.960 . S
C389 H376 0.960 1_556 S
C389 C388 1.535 . S
C390 C387 1.403 . S
C390 C391 1.392 . S
C390 C394 1.495 . S
C391 C390 1.392 . S
C391 C392 1.389 . S
C391 C393 1.478 . S
C392 H386 0.927 1_554 S
C392 C388 1.399 1_554 S
C392 C391 1.389 . S
C393 C391 1.478 . S
C393 C395 1.381 1_554 S
C393 C399 1.383 . S
C394 C390 1.495 . S
C394 H400 0.959 . S
C394 H401 0.961 . S
C394 H402 0.960 . S
C395 C393 1.381 1_556 S
C395 C396 1.394 . S
C395 H403 0.930 . S
C396 C395 1.394 . S
C396 C397 1.383 1_556 S
C396 H404 0.929 . S
C397 C396 1.383 1_554 S
C397 C398 1.377 . S
C398 H382 0.930 . S
C398 C397 1.377 . S
C398 C399 1.379 . S
C399 H383 0.931 . S
C399 C393 1.383 . S
C399 C398 1.379 . S
H400 C394 0.959 . S
H401 C394 0.961 . S
H402 C394 0.960 . S
H403 C395 0.930 . S
H404 C396 0.929 . S
H405 C413 0.929 . S
H406 C415 0.930 . S
H407 C417 0.930 . S
H408 C420 0.929 . S
H409 C423 0.930 . S
H410 C425 0.960 . S
H411 C425 0.960 . S
H412 C425 0.960 . S
C413 H405 0.929 . S
C413 C414 1.377 . S
C413 C415 1.384 . S
C414 C413 1.377 . S
C414 C420 1.390 . S
C415 H406 0.930 . S
C415 C413 1.384 . S
C415 C416 1.372 . S
C416 C415 1.372 . S
C416 C417 1.400 . S
C416 C421 1.490 . S
C417 H407 0.930 . S
C417 C416 1.400 . S
C417 C420 1.386 . S
H418 C434 0.930 . S
H419 C435 0.931 . S
C420 H408 0.929 . S
C420 C414 1.390 . S
C420 C417 1.386 . S
C421 C416 1.490 . S
C421 C423 1.395 . S
C421 C424 1.403 . S
H422 C428 0.930 . S
C423 H409 0.930 . S
C423 C421 1.395 . S
C423 C426 1.403 . S
C424 C421 1.403 . S
C424 C425 1.524 . S
C424 C428 1.400 . S
C425 H410 0.960 . S
C425 H411 0.960 . S
C425 H412 0.960 . S
C425 C424 1.524 . S
C426 C423 1.403 . S
C426 C427 1.392 . S
C426 C430 1.496 . S
C427 C426 1.392 . S
C427 C428 1.385 . S
C427 C429 1.478 1_655 S
C428 H422 0.930 . S
C428 C424 1.400 . S
C428 C427 1.385 . S
C429 C427 1.478 1_455 S
C429 C431 1.381 . S
C429 C435 1.383 . S
C430 C426 1.496 . S
C430 H436 0.962 . S
C430 H437 0.959 1_655 S
C430 H438 0.957 1_655 S
C431 C429 1.381 . S
C431 C432 1.394 . S
C431 H439 0.930 . S
C432 C431 1.394 . S
C432 C433 1.383 . S
C432 H440 0.929 . S
C433 C432 1.383 . S
C433 C434 1.377 . S
C434 H418 0.930 . S
C434 C433 1.377 . S
C434 C435 1.379 . S
C435 H419 0.931 . S
C435 C429 1.383 . S
C435 C434 1.379 . S
H436 C430 0.962 . S
H437 C430 0.959 1_455 S
H438 C430 0.957 1_455 S
H439 C431 0.930 . S
H440 C432 0.929 . S
H441 C449 0.929 . S
H442 C451 0.930 . S
H443 C453 0.930 . S
H444 C456 0.929 . S
H445 C459 0.930 . S
H446 C461 0.960 . S
H447 C461 0.960 . S
H448 C461 0.960 . S
C449 H441 0.929 . S
C449 C450 1.377 . S
C449 C451 1.384 . S
C450 C449 1.377 . S
C450 C456 1.390 . S
C451 H442 0.930 . S
C451 C449 1.384 . S
C451 C452 1.372 . S
C452 C451 1.372 . S
C452 C453 1.400 . S
C452 C457 1.490 . S
C453 H443 0.930 . S
C453 C452 1.400 . S
C453 C456 1.386 . S
H454 C470 0.930 . S
H455 C471 0.931 . S
C456 H444 0.929 . S
C456 C450 1.390 . S
C456 C453 1.386 . S
C457 C452 1.490 . S
C457 C459 1.395 . S
C457 C460 1.403 . S
H458 C464 0.930 . S
C459 H445 0.930 . S
C459 C457 1.395 . S
C459 C462 1.403 . S
C460 C457 1.403 . S
C460 C461 1.524 . S
C460 C464 1.400 . S
C461 H446 0.960 . S
C461 H447 0.960 . S
C461 H448 0.960 . S
C461 C460 1.524 . S
C462 C459 1.403 . S
C462 C463 1.392 . S
C462 C466 1.495 . S
C463 C462 1.392 . S
C463 C464 1.385 . S
C463 C465 1.478 . S
C464 H458 0.930 . S
C464 C460 1.400 . S
C464 C463 1.385 . S
C465 C463 1.478 . S
C465 C467 1.381 . S
C465 C471 1.383 . S
C466 C462 1.495 . S
C466 H472 0.959 . S
C466 H473 0.961 . S
C466 H474 0.960 . S
C467 C465 1.381 . S
C467 C468 1.394 1_545 S
C467 H475 0.930 . S
C468 C467 1.394 1_565 S
C468 C469 1.383 . S
C468 H476 0.929 . S
C469 C468 1.383 . S
C469 C470 1.377 1_565 S
C470 H454 0.930 . S
C470 C469 1.377 1_545 S
C470 C471 1.379 . S
C471 H455 0.931 . S
C471 C465 1.383 . S
C471 C470 1.379 . S
H472 C466 0.959 . S
H473 C466 0.961 . S
H474 C466 0.960 . S
H475 C467 0.930 . S
H476 C468 0.929 . S
H477 C485 0.929 . S
H478 C487 0.930 . S
H479 C489 0.930 . S
H480 C492 0.929 . S
H481 C495 0.930 . S
H482 C497 0.960 . S
H483 C497 0.960 . S
H484 C497 0.960 . S
C485 H477 0.929 . S
C485 C486 1.377 . S
C485 C487 1.384 1_455 S
C486 C485 1.377 . S
C486 C492 1.390 . S
C487 H478 0.930 . S
C487 C485 1.384 1_655 S
C487 C488 1.372 . S
C488 C487 1.372 . S
C488 C489 1.400 . S
C488 C493 1.490 . S
C489 H479 0.930 . S
C489 C488 1.400 . S
C489 C492 1.386 1_655 S
H490 C506 0.930 . S
H491 C507 0.931 1_545 S
C492 H480 0.929 . S
C492 C486 1.390 . S
C492 C489 1.386 1_455 S
C493 C488 1.490 . S
C493 C495 1.395 . S
C493 C496 1.403 . S
H494 C500 0.930 . S
C495 H481 0.930 . S
C495 C493 1.395 . S
C495 C498 1.403 . S
C496 C493 1.403 . S
C496 C497 1.524 . S
C496 C500 1.400 . S
C497 H482 0.960 . S
C497 H483 0.960 . S
C497 H484 0.960 . S
C497 C496 1.524 . S
C498 C495 1.403 . S
C498 C499 1.392 . S
C498 C502 1.495 . S
C499 C498 1.392 . S
C499 C500 1.385 . S
C499 C501 1.478 . S
C500 H494 0.930 . S
C500 C496 1.400 . S
C500 C499 1.385 . S
C501 C499 1.478 . S
C501 C503 1.381 1_545 S
C501 C507 1.383 1_545 S
C502 C498 1.495 . S
C502 H508 0.959 . S
C502 H509 0.961 . S
C502 H510 0.960 . S
C503 C501 1.381 1_565 S
C503 C504 1.394 . S
C503 H511 0.930 . S
C504 C503 1.394 . S
C504 C505 1.383 . S
C504 H512 0.929 . S
C505 C504 1.383 . S
C505 C506 1.377 . S
C506 H490 0.930 . S
C506 C505 1.377 . S
C506 C507 1.379 . S
C507 H491 0.931 1_565 S
C507 C501 1.383 1_565 S
C507 C506 1.379 . S
H508 C502 0.959 . S
H509 C502 0.961 . S
H510 C502 0.960 . S
H511 C503 0.930 . S
H512 C504 0.929 . S
H513 C521 0.929 . S
H514 C523 0.930 . S
H515 C525 0.930 . S
H516 C528 0.929 . S
H517 C531 0.930 . S
H518 C533 0.960 . S
H519 C533 0.960 . S
H520 C533 0.960 . S
C521 H513 0.929 . S
C521 C522 1.377 . S
C521 C523 1.384 . S
C522 C521 1.377 . S
C522 C528 1.390 . S
C523 H514 0.930 . S
C523 C521 1.384 . S
C523 C524 1.372 . S
C524 C523 1.372 . S
C524 C525 1.400 . S
C524 C529 1.490 . S
C525 H515 0.930 . S
C525 C524 1.400 . S
C525 C528 1.386 . S
H526 C542 0.930 . S
H527 C543 0.931 . S
C528 H516 0.929 . S
C528 C522 1.390 . S
C528 C525 1.386 . S
C529 C524 1.490 . S
C529 C531 1.395 . S
C529 C532 1.403 . S
H530 C536 0.930 . S
C531 H517 0.930 . S
C531 C529 1.395 . S
C531 C534 1.403 . S
C532 C529 1.403 . S
C532 C533 1.524 . S
C532 C536 1.400 . S
C533 H518 0.960 . S
C533 H519 0.960 . S
C533 H520 0.960 . S
C533 C532 1.524 . S
C534 C531 1.403 . S
C534 C535 1.392 . S
C534 C538 1.495 . S
C535 C534 1.392 . S
C535 C536 1.385 . S
C535 C537 1.478 . S
C536 H530 0.930 . S
C536 C532 1.400 . S
C536 C535 1.385 . S
C537 C535 1.478 . S
C537 C539 1.381 . S
C537 C543 1.383 . S
C538 C534 1.495 . S
C538 H544 0.959 . S
C538 H545 0.961 . S
C538 H546 0.960 . S
C539 C537 1.381 . S
C539 C540 1.394 . S
C539 H547 0.930 . S
C540 C539 1.394 . S
C540 C541 1.383 . S
C540 H548 0.929 . S
C541 C540 1.383 . S
C541 C542 1.377 . S
C542 H526 0.930 . S
C542 C541 1.377 . S
C542 C543 1.379 . S
C543 H527 0.931 . S
C543 C537 1.383 . S
C543 C542 1.379 . S
H544 C538 0.959 . S
H545 C538 0.961 . S
H546 C538 0.960 . S
H547 C539 0.930 . S
H548 C540 0.929 . S
H549 C557 0.929 . S
H550 C559 0.930 . S
H551 C561 0.930 . S
H552 C564 0.929 . S
H553 C567 0.930 . S
H554 C569 0.960 . S
H555 C569 0.960 . S
H556 C569 0.960 . S
C557 H549 0.929 . S
C557 C558 1.377 . S
C557 C559 1.384 . S
C558 C557 1.377 . S
C558 C564 1.390 . S
C559 H550 0.930 . S
C559 C557 1.384 . S
C559 C560 1.372 . S
C560 C559 1.372 . S
C560 C561 1.400 . S
C560 C565 1.490 . S
C561 H551 0.930 . S
C561 C560 1.400 . S
C561 C564 1.386 . S
H562 C578 0.930 . S
H563 C579 0.931 . S
C564 H552 0.929 . S
C564 C558 1.390 . S
C564 C561 1.386 . S
C565 C560 1.490 . S
C565 C567 1.395 . S
C565 C568 1.403 . S
H566 C572 0.930 . S
C567 H553 0.930 . S
C567 C565 1.395 . S
C567 C570 1.403 . S
C568 C565 1.403 . S
C568 C569 1.524 . S
C568 C572 1.400 . S
C569 H554 0.960 . S
C569 H555 0.960 . S
C569 H556 0.960 . S
C569 C568 1.524 . S
C570 C567 1.403 . S
C570 C571 1.392 . S
C570 C574 1.495 . S
C571 C570 1.392 . S
C571 C572 1.385 . S
C571 C573 1.478 . S
C572 H566 0.930 . S
C572 C568 1.400 . S
C572 C571 1.385 . S
C573 C571 1.478 . S
C573 C575 1.381 . S
C573 C579 1.383 . S
C574 C570 1.495 . S
C574 H580 0.959 . S
C574 H581 0.961 . S
C574 H582 0.960 . S
C575 C573 1.381 . S
C575 C576 1.394 . S
C575 H583 0.930 . S
C576 C575 1.394 . S
C576 C577 1.383 . S
C576 H584 0.929 . S
C577 C576 1.383 . S
C577 C578 1.377 . S
C578 H562 0.930 . S
C578 C577 1.377 . S
C578 C579 1.379 . S
C579 H563 0.931 . S
C579 C573 1.383 . S
C579 C578 1.379 . S
H580 C574 0.959 . S
H581 C574 0.961 . S
H582 C574 0.960 . S
H583 C575 0.930 . S
H584 C576 0.929 . S
H585 C593 0.929 . S
H586 C595 0.930 . S
H587 C597 0.930 . S
H588 C600 0.929 . S
H589 C603 0.930 . S
H590 C605 0.960 . S
H591 C605 0.960 . S
H592 C605 0.960 . S
C593 H585 0.929 . S
C593 C594 1.377 . S
C593 C595 1.384 . S
C594 C593 1.377 . S
C594 C600 1.390 . S
C595 H586 0.930 . S
C595 C593 1.384 . S
C595 C596 1.372 . S
C596 C595 1.372 . S
C596 C597 1.400 . S
C596 C601 1.490 . S
C597 H587 0.930 . S
C597 C596 1.400 . S
C597 C600 1.386 . S
H598 C614 0.930 . S
H599 C615 0.931 . S
C600 H588 0.929 . S
C600 C594 1.390 . S
C600 C597 1.386 . S
C601 C596 1.490 . S
C601 C603 1.395 . S
C601 C604 1.403 . S
H602 C608 0.930 . S
C603 H589 0.930 . S
C603 C601 1.395 . S
C603 C606 1.403 . S
C604 C601 1.403 . S
C604 C605 1.524 . S
C604 C608 1.400 . S
C605 H590 0.960 . S
C605 H591 0.960 . S
C605 H592 0.960 . S
C605 C604 1.524 . S
C606 C603 1.403 . S
C606 C607 1.392 . S
C606 C610 1.495 . S
C607 C606 1.392 . S
C607 C608 1.385 . S
C607 C609 1.478 . S
C608 H602 0.930 . S
C608 C604 1.400 . S
C608 C607 1.385 . S
C609 C607 1.478 . S
C609 C611 1.381 . S
C609 C615 1.383 . S
C610 C606 1.495 . S
C610 H616 0.959 . S
C610 H617 0.961 . S
C610 H618 0.960 . S
C611 C609 1.381 . S
C611 C612 1.394 . S
C611 H619 0.930 . S
C612 C611 1.394 . S
C612 C613 1.383 . S
C612 H620 0.929 . S
C613 C612 1.383 . S
C613 C614 1.377 . S
C614 H598 0.930 . S
C614 C613 1.377 . S
C614 C615 1.379 . S
C615 H599 0.931 . S
C615 C609 1.383 . S
C615 C614 1.379 . S
H616 C610 0.959 . S
H617 C610 0.961 . S
H618 C610 0.960 . S
H619 C611 0.930 . S
H620 C612 0.929 . S
H621 C629 0.929 . S
H622 C631 0.930 . S
H623 C633 0.930 . S
H624 C636 0.929 . S
H625 C639 0.930 . S
H626 C641 0.960 . S
H627 C641 0.960 . S
H628 C641 0.960 . S
C629 H621 0.929 . S
C629 C630 1.377 . S
C629 C631 1.384 . S
C630 C629 1.377 . S
C630 C636 1.390 . S
C631 H622 0.930 . S
C631 C629 1.384 . S
C631 C632 1.372 . S
C632 C631 1.372 . S
C632 C633 1.400 . S
C632 C637 1.490 . S
C633 H623 0.930 . S
C633 C632 1.400 . S
C633 C636 1.386 . S
H634 C650 0.930 . S
H635 C651 0.931 . S
C636 H624 0.929 . S
C636 C630 1.390 . S
C636 C633 1.386 . S
C637 C632 1.490 . S
C637 C639 1.395 . S
C637 C640 1.403 . S
H638 C644 0.930 . S
C639 H625 0.930 . S
C639 C637 1.395 . S
C639 C642 1.403 . S
C640 C637 1.403 . S
C640 C641 1.524 . S
C640 C644 1.400 . S
C641 H626 0.960 . S
C641 H627 0.960 . S
C641 H628 0.960 . S
C641 C640 1.524 . S
C642 C639 1.403 . S
C642 C643 1.392 . S
C642 C646 1.495 . S
C643 C642 1.392 . S
C643 C644 1.385 . S
C643 C645 1.478 . S
C644 H638 0.930 . S
C644 C640 1.400 . S
C644 C643 1.385 . S
C645 C643 1.478 . S
C645 C647 1.381 . S
C645 C651 1.383 . S
C646 C642 1.495 . S
C646 H652 0.959 . S
C646 H653 0.961 . S
C646 H654 0.960 . S
C647 C645 1.381 . S
C647 C648 1.394 . S
C647 H655 0.930 . S
C648 C647 1.394 . S
C648 C649 1.383 . S
C648 H656 0.929 . S
C649 C648 1.383 . S
C649 C650 1.377 . S
C650 H634 0.930 . S
C650 C649 1.377 . S
C650 C651 1.379 . S
C651 H635 0.931 . S
C651 C645 1.383 . S
C651 C650 1.379 . S
H652 C646 0.959 . S
H653 C646 0.961 . S
H654 C646 0.960 . S
H655 C647 0.930 . S
H656 C648 0.929 . S
H657 C665 0.929 . S
H658 C667 0.930 . S
H659 C669 0.930 . S
H660 C672 0.929 . S
H661 C675 0.930 . S
H662 C677 0.960 . S
H663 C677 0.960 . S
H664 C677 0.960 . S
C665 H657 0.929 . S
C665 C666 1.377 . S
C665 C667 1.384 . S
C666 C665 1.377 . S
C666 C672 1.390 . S
C667 H658 0.930 . S
C667 C665 1.384 . S
C667 C668 1.372 . S
C668 C667 1.372 . S
C668 C669 1.400 . S
C668 C673 1.490 . S
C669 H659 0.930 . S
C669 C668 1.400 . S
C669 C672 1.386 . S
H670 C686 0.930 . S
H671 C687 0.931 . S
C672 H660 0.929 . S
C672 C666 1.390 . S
C672 C669 1.386 . S
C673 C668 1.490 . S
C673 C675 1.395 . S
C673 C676 1.403 . S
H674 C680 0.930 . S
C675 H661 0.930 . S
C675 C673 1.395 . S
C675 C678 1.403 . S
C676 C673 1.403 . S
C676 C677 1.524 . S
C676 C680 1.400 . S
C677 H662 0.960 . S
C677 H663 0.960 . S
C677 H664 0.960 . S
C677 C676 1.524 . S
C678 C675 1.403 . S
C678 C679 1.392 . S
C678 C682 1.495 . S
C679 C678 1.392 . S
C679 C680 1.385 . S
C679 C681 1.478 . S
C680 H674 0.930 . S
C680 C676 1.400 . S
C680 C679 1.385 . S
C681 C679 1.478 . S
C681 C683 1.381 . S
C681 C687 1.383 . S
C682 C678 1.495 . S
C682 H688 0.959 . S
C682 H689 0.961 . S
C682 H690 0.960 . S
C683 C681 1.381 . S
C683 C684 1.394 . S
C683 H691 0.930 . S
C684 C683 1.394 . S
C684 C685 1.383 . S
C684 H692 0.929 . S
C685 C684 1.383 . S
C685 C686 1.377 . S
C686 H670 0.930 . S
C686 C685 1.377 . S
C686 C687 1.379 . S
C687 H671 0.931 . S
C687 C681 1.383 . S
C687 C686 1.379 . S
H688 C682 0.959 . S
H689 C682 0.961 . S
H690 C682 0.960 . S
H691 C683 0.930 . S
H692 C684 0.929 . S
H693 C701 0.929 . S
H694 C703 0.930 . S
H695 C705 0.930 . S
H696 C708 0.929 . S
H697 C711 0.930 . S
H698 C713 0.960 . S
H699 C713 0.960 . S
H700 C713 0.960 . S
C701 H693 0.929 . S
C701 C702 1.377 . S
C701 C703 1.384 . S
C702 C701 1.377 . S
C702 C708 1.390 . S
C703 H694 0.930 . S
C703 C701 1.384 . S
C703 C704 1.372 . S
C704 C703 1.372 . S
C704 C705 1.400 . S
C704 C709 1.490 . S
C705 H695 0.930 . S
C705 C704 1.400 . S
C705 C708 1.386 . S
H706 C722 0.930 . S
H707 C723 0.931 . S
C708 H696 0.929 . S
C708 C702 1.390 . S
C708 C705 1.386 . S
C709 C704 1.490 . S
C709 C711 1.395 . S
C709 C712 1.403 . S
H710 C716 0.930 . S
C711 H697 0.930 . S
C711 C709 1.395 . S
C711 C714 1.403 . S
C712 C709 1.403 . S
C712 C713 1.524 . S
C712 C716 1.400 . S
C713 H698 0.960 . S
C713 H699 0.960 . S
C713 H700 0.960 . S
C713 C712 1.524 . S
C714 C711 1.403 . S
C714 C715 1.392 . S
C714 C718 1.495 . S
C715 C714 1.392 . S
C715 C716 1.385 . S
C715 C717 1.478 . S
C716 H710 0.930 . S
C716 C712 1.400 . S
C716 C715 1.385 . S
C717 C715 1.478 . S
C717 C719 1.381 . S
C717 C723 1.383 . S
C718 C714 1.495 . S
C718 H724 0.959 . S
C718 H725 0.961 . S
C718 H726 0.960 . S
C719 C717 1.381 . S
C719 C720 1.394 . S
C719 H727 0.930 . S
C720 C719 1.394 . S
C720 C721 1.383 . S
C720 H728 0.929 . S
C721 C720 1.383 . S
C721 C722 1.377 . S
C722 H706 0.930 . S
C722 C721 1.377 . S
C722 C723 1.379 . S
C723 H707 0.931 . S
C723 C717 1.383 . S
C723 C722 1.379 . S
H724 C718 0.959 . S
H725 C718 0.961 . S
H726 C718 0.960 . S
H727 C719 0.930 . S
H728 C720 0.929 . S
H729 C737 0.929 . S
H730 C739 0.930 . S
H731 C741 0.930 . S
H732 C744 0.929 . S
H733 C747 0.930 . S
H734 C749 0.960 . S
H735 C749 0.960 . S
H736 C749 0.960 . S
C737 H729 0.929 . S
C737 C738 1.377 . S
C737 C739 1.384 . S
C738 C737 1.377 . S
C738 C744 1.390 . S
C739 H730 0.930 . S
C739 C737 1.384 . S
C739 C740 1.372 . S
C740 C739 1.372 . S
C740 C741 1.400 . S
C740 C745 1.490 . S
C741 H731 0.930 . S
C741 C740 1.400 . S
C741 C744 1.386 . S
H742 C758 0.930 . S
H743 C759 0.931 . S
C744 H732 0.929 . S
C744 C738 1.390 . S
C744 C741 1.386 . S
C745 C740 1.490 . S
C745 C747 1.395 . S
C745 C748 1.403 . S
H746 C752 0.930 . S
C747 H733 0.930 . S
C747 C745 1.395 . S
C747 C750 1.403 . S
C748 C745 1.403 . S
C748 C749 1.524 . S
C748 C752 1.400 . S
C749 H734 0.960 . S
C749 H735 0.960 . S
C749 H736 0.960 . S
C749 C748 1.524 . S
C750 C747 1.403 . S
C750 C751 1.392 . S
C750 C754 1.495 . S
C751 C750 1.392 . S
C751 C752 1.385 . S
C751 C753 1.478 1_565 S
C752 H746 0.930 . S
C752 C748 1.400 . S
C752 C751 1.385 . S
C753 C751 1.478 1_545 S
C753 C755 1.381 . S
C753 C759 1.383 . S
C754 C750 1.495 . S
C754 H760 0.959 . S
C754 H761 0.961 . S
C754 H762 0.960 1_565 S
C755 C753 1.381 . S
C755 C756 1.394 . S
C755 H763 0.930 . S
C756 C755 1.394 . S
C756 C757 1.383 . S
C756 H764 0.929 . S
C757 C756 1.383 . S
C757 C758 1.377 . S
C758 H742 0.930 . S
C758 C757 1.377 . S
C758 C759 1.379 . S
C759 H743 0.931 . S
C759 C753 1.383 . S
C759 C758 1.379 . S
H760 C754 0.959 . S
H761 C754 0.961 . S
H762 C754 0.960 1_545 S
H763 C755 0.930 . S
H764 C756 0.929 . S
H765 C773 0.929 . S
H766 C775 0.930 1_455 S
H767 C777 0.930 . S
H768 C780 0.929 . S
H769 C783 0.930 . S
H770 C785 0.960 . S
H771 C785 0.960 . S
H772 C785 0.960 . S
C773 H765 0.929 . S
C773 C774 1.377 . S
C773 C775 1.384 . S
C774 C773 1.377 . S
C774 C780 1.390 . S
C775 H766 0.930 1_655 S
C775 C773 1.384 . S
C775 C776 1.372 1_655 S
C776 C775 1.372 1_455 S
C776 C777 1.400 1_455 S
C776 C781 1.490 . S
C777 H767 0.930 . S
C777 C776 1.400 1_655 S
C777 C780 1.386 . S
H778 C794 0.930 . S
H779 C795 0.931 . S
C780 H768 0.929 . S
C780 C774 1.390 . S
C780 C777 1.386 . S
C781 C776 1.490 . S
C781 C783 1.395 . S
C781 C784 1.403 . S
H782 C788 0.930 . S
C783 H769 0.930 . S
C783 C781 1.395 . S
C783 C786 1.403 . S
C784 C781 1.403 . S
C784 C785 1.524 . S
C784 C788 1.400 . S
C785 H770 0.960 . S
C785 H771 0.960 . S
C785 H772 0.960 . S
C785 C784 1.524 . S
C786 C783 1.403 . S
C786 C787 1.392 . S
C786 C790 1.495 . S
C787 C786 1.392 . S
C787 C788 1.385 . S
C787 C789 1.478 . S
C788 H782 0.930 . S
C788 C784 1.400 . S
C788 C787 1.385 . S
C789 C787 1.478 . S
C789 C791 1.381 . S
C789 C795 1.383 . S
C790 C786 1.495 . S
C790 H796 0.959 . S
C790 H797 0.961 . S
C790 H798 0.960 . S
C791 C789 1.381 . S
C791 C792 1.394 1_565 S
C791 H799 0.930 . S
C792 C791 1.394 1_545 S
C792 C793 1.383 . S
C792 H800 0.929 . S
C793 C792 1.383 . S
C793 C794 1.377 . S
C794 H778 0.930 . S
C794 C793 1.377 . S
C794 C795 1.379 1_545 S
C795 H779 0.931 . S
C795 C789 1.383 . S
C795 C794 1.379 1_565 S
H796 C790 0.959 . S
H797 C790 0.961 . S
H798 C790 0.960 . S
H799 C791 0.930 . S
H800 C792 0.929 . S
H801 C809 0.929 . S
H802 C811 0.930 . S
H803 C813 0.930 . S
H804 C816 0.929 . S
H805 C819 0.930 . S
H806 C821 0.960 . S
H807 C821 0.960 . S
H808 C821 0.960 . S
C809 H801 0.929 . S
C809 C810 1.377 . S
C809 C811 1.384 . S
C810 C809 1.377 . S
C810 C816 1.390 . S
C811 H802 0.930 . S
C811 C809 1.384 . S
C811 C812 1.372 . S
C812 C811 1.372 . S
C812 C813 1.400 . S
C812 C817 1.490 . S
C813 H803 0.930 . S
C813 C812 1.400 . S
C813 C816 1.386 . S
H814 C830 0.930 . S
H815 C831 0.931 . S
C816 H804 0.929 . S
C816 C810 1.390 . S
C816 C813 1.386 . S
C817 C812 1.490 . S
C817 C819 1.395 . S
C817 C820 1.403 . S
H818 C824 0.930 . S
C819 H805 0.930 . S
C819 C817 1.395 . S
C819 C822 1.403 . S
C820 C817 1.403 . S
C820 C821 1.524 . S
C820 C824 1.400 . S
C821 H806 0.960 . S
C821 H807 0.960 . S
C821 H808 0.960 . S
C821 C820 1.524 . S
C822 C819 1.403 . S
C822 C823 1.392 . S
C822 C826 1.495 . S
C823 C822 1.392 . S
C823 C824 1.385 . S
C823 C825 1.478 . S
C824 H818 0.930 . S
C824 C820 1.400 . S
C824 C823 1.385 . S
C825 C823 1.478 . S
C825 C827 1.381 . S
C825 C831 1.383 . S
C826 C822 1.495 . S
C826 H832 0.959 . S
C826 H833 0.961 . S
C826 H834 0.960 . S
C827 C825 1.381 . S
C827 C828 1.394 . S
C827 H835 0.930 . S
C828 C827 1.394 . S
C828 C829 1.383 1_455 S
C828 H836 0.929 . S
C829 C828 1.383 1_655 S
C829 C830 1.377 . S
C830 H814 0.930 . S
C830 C829 1.377 . S
C830 C831 1.379 1_655 S
C831 H815 0.931 . S
C831 C825 1.383 . S
C831 C830 1.379 1_455 S
H832 C826 0.959 . S
H833 C826 0.961 . S
H834 C826 0.960 . S
H835 C827 0.930 . S
H836 C828 0.929 . S
H837 C845 0.929 . S
H838 C847 0.930 . S
H839 C849 0.930 . S
H840 C852 0.929 . S
H841 C855 0.930 . S
H842 C857 0.960 . S
H843 C857 0.960 . S
H844 C857 0.960 . S
C845 H837 0.929 . S
C845 C846 1.377 . S
C845 C847 1.384 . S
C846 C845 1.377 . S
C846 C852 1.390 . S
C847 H838 0.930 . S
C847 C845 1.384 . S
C847 C848 1.372 . S
C848 C847 1.372 . S
C848 C849 1.400 . S
C848 C853 1.490 . S
C849 H839 0.930 . S
C849 C848 1.400 . S
C849 C852 1.386 . S
H850 C866 0.930 . S
H851 C867 0.931 . S
C852 H840 0.929 . S
C852 C846 1.390 . S
C852 C849 1.386 . S
C853 C848 1.490 . S
C853 C855 1.395 . S
C853 C856 1.403 . S
H854 C860 0.930 . S
C855 H841 0.930 . S
C855 C853 1.395 . S
C855 C858 1.403 . S
C856 C853 1.403 . S
C856 C857 1.524 . S
C856 C860 1.400 . S
C857 H842 0.960 . S
C857 H843 0.960 . S
C857 H844 0.960 . S
C857 C856 1.524 . S
C858 C855 1.403 . S
C858 C859 1.392 . S
C858 C862 1.495 . S
C859 C858 1.392 . S
C859 C860 1.385 . S
C859 C861 1.478 . S
C860 H854 0.930 . S
C860 C856 1.400 . S
C860 C859 1.385 . S
C861 C859 1.478 . S
C861 C863 1.381 . S
C861 C867 1.383 . S
C862 C858 1.495 . S
C862 H868 0.959 . S
C862 H869 0.961 . S
C862 H870 0.960 . S
C863 C861 1.381 . S
C863 C864 1.394 . S
C863 H871 0.930 . S
C864 C863 1.394 . S
C864 C865 1.383 . S
C864 H872 0.929 1_455 S
C865 C864 1.383 . S
C865 C866 1.377 . S
C866 H850 0.930 . S
C866 C865 1.377 . S
C866 C867 1.379 . S
C867 H851 0.931 . S
C867 C861 1.383 . S
C867 C866 1.379 . S
H868 C862 0.959 . S
H869 C862 0.961 . S
H870 C862 0.960 . S
H871 C863 0.930 . S
H872 C864 0.929 1_655 S
H873 C881 0.929 . S
H874 C883 0.930 . S
H875 C885 0.930 . S
H876 C888 0.929 . S
H877 C891 0.930 . S
H878 C893 0.960 . S
H879 C893 0.960 . S
H880 C893 0.960 . S
C881 H873 0.929 . S
C881 C882 1.377 . S
C881 C883 1.384 . S
C882 C881 1.377 . S
C882 C888 1.390 . S
C883 H874 0.930 . S
C883 C881 1.384 . S
C883 C884 1.372 . S
C884 C883 1.372 . S
C884 C885 1.400 . S
C884 C889 1.490 . S
C885 H875 0.930 . S
C885 C884 1.400 . S
C885 C888 1.386 . S
H886 C902 0.930 . S
H887 C903 0.931 . S
C888 H876 0.929 . S
C888 C882 1.390 . S
C888 C885 1.386 . S
C889 C884 1.490 . S
C889 C891 1.395 . S
C889 C892 1.403 . S
H890 C896 0.930 . S
C891 H877 0.930 . S
C891 C889 1.395 . S
C891 C894 1.403 . S
C892 C889 1.403 . S
C892 C893 1.524 . S
C892 C896 1.400 . S
C893 H878 0.960 . S
C893 H879 0.960 . S
C893 H880 0.960 . S
C893 C892 1.524 . S
C894 C891 1.403 . S
C894 C895 1.392 . S
C894 C898 1.495 . S
C895 C894 1.392 . S
C895 C896 1.385 . S
C895 C897 1.478 . S
C896 H890 0.930 . S
C896 C892 1.400 . S
C896 C895 1.385 . S
C897 C895 1.478 . S
C897 C899 1.381 . S
C897 C903 1.383 . S
C898 C894 1.495 . S
C898 H904 0.959 . S
C898 H905 0.961 . S
C898 H906 0.960 . S
C899 C897 1.381 . S
C899 C900 1.394 . S
C899 H907 0.930 . S
C900 C899 1.394 . S
C900 C901 1.383 . S
C900 H908 0.929 . S
C901 C900 1.383 . S
C901 C902 1.377 . S
C902 H886 0.930 . S
C902 C901 1.377 . S
C902 C903 1.379 . S
C903 H887 0.931 . S
C903 C897 1.383 . S
C903 C902 1.379 . S
H904 C898 0.959 . S
H905 C898 0.961 . S
H906 C898 0.960 . S
H907 C899 0.930 . S
H908 C900 0.929 . S
H909 C917 0.926 . S
H910 C919 0.930 1_545 S
H911 C921 0.930 . S
H912 C924 0.929 . S
H913 C927 0.930 . S
H914 C929 0.960 . S
H915 C929 0.966 . S
H916 C929 0.960 . S
C917 H909 0.926 . S
C917 C918 1.380 1_545 S
C917 C919 1.384 1_545 S
C918 C917 1.380 1_565 S
C918 C924 1.390 . S
C919 H910 0.930 1_565 S
C919 C917 1.384 1_565 S
C919 C920 1.372 . S
C920 C919 1.372 . S
C920 C921 1.400 . S
C920 C925 1.490 . S
C921 H911 0.930 . S
C921 C920 1.400 . S
C921 C924 1.386 . S
H922 C938 0.930 . S
H923 C939 0.931 . S
C924 H912 0.929 . S
C924 C918 1.390 . S
C924 C921 1.386 . S
C925 C920 1.490 . S
C925 C927 1.395 . S
C925 C928 1.403 . S
H926 C932 0.930 . S
C927 H913 0.930 . S
C927 C925 1.395 . S
C927 C930 1.403 . S
C928 C925 1.403 . S
C928 C929 1.524 . S
C928 C932 1.400 . S
C929 H914 0.960 . S
C929 H915 0.966 . S
C929 H916 0.960 . S
C929 C928 1.524 . S
C930 C927 1.403 . S
C930 C931 1.392 . S
C930 C934 1.495 . S
C931 C930 1.392 . S
C931 C932 1.385 . S
C931 C933 1.478 . S
C932 H926 0.930 . S
C932 C928 1.400 . S
C932 C931 1.385 . S
C933 C931 1.478 . S
C933 C935 1.381 . S
C933 C939 1.383 . S
C934 C930 1.495 . S
C934 H940 0.959 . S
C934 H941 0.961 . S
C934 H942 0.960 . S
C935 C933 1.381 . S
C935 C936 1.394 . S
C935 H943 0.930 . S
C936 C935 1.394 . S
C936 C937 1.383 . S
C936 H944 0.929 . S
C937 C936 1.383 . S
C937 C938 1.377 . S
C938 H922 0.930 . S
C938 C937 1.377 . S
C938 C939 1.379 . S
C939 H923 0.931 . S
C939 C933 1.383 . S
C939 C938 1.379 . S
H940 C934 0.959 . S
H941 C934 0.961 . S
H942 C934 0.960 . S
H943 C935 0.930 . S
H944 C936 0.929 . S
H945 C953 0.929 . S
H946 C955 0.930 . S
H947 C957 0.930 . S
H948 C960 0.929 1_565 S
H949 C963 0.930 . S
H950 C965 0.960 . S
H951 C965 0.960 . S
H952 C965 0.960 . S
C953 H945 0.929 . S
C953 C954 1.377 . S
C953 C955 1.384 . S
C954 C953 1.377 . S
C954 C960 1.390 . S
C955 H946 0.930 . S
C955 C953 1.384 . S
C955 C956 1.372 . S
C956 C955 1.372 . S
C956 C957 1.400 . S
C956 C961 1.490 . S
C957 H947 0.930 . S
C957 C956 1.400 . S
C957 C960 1.386 . S
H958 C974 0.930 . S
H959 C975 0.931 . S
C960 H948 0.929 1_545 S
C960 C954 1.390 . S
C960 C957 1.386 . S
C961 C956 1.490 . S
C961 C963 1.395 . S
C961 C964 1.403 . S
H962 C968 0.930 . S
C963 H949 0.930 . S
C963 C961 1.395 . S
C963 C966 1.403 . S
C964 C961 1.403 . S
C964 C965 1.524 . S
C964 C968 1.400 . S
C965 H950 0.960 . S
C965 H951 0.960 . S
C965 H952 0.960 . S
C965 C964 1.524 . S
C966 C963 1.403 . S
C966 C967 1.392 . S
C966 C970 1.495 . S
C967 C966 1.392 . S
C967 C968 1.385 . S
C967 C969 1.478 . S
C968 H962 0.930 . S
C968 C964 1.400 . S
C968 C967 1.385 . S
C969 C967 1.478 . S
C969 C971 1.381 . S
C969 C975 1.383 . S
C970 C966 1.495 . S
C970 H976 0.959 . S
C970 H977 0.961 . S
C970 H978 0.960 . S
C971 C969 1.381 . S
C971 C972 1.394 . S
C971 H979 0.930 . S
C972 C971 1.394 . S
C972 C973 1.383 . S
C972 H980 0.929 . S
C973 C972 1.383 . S
C973 C974 1.377 . S
C974 H958 0.930 . S
C974 C973 1.377 . S
C974 C975 1.379 . S
C975 H959 0.931 . S
C975 C969 1.383 . S
C975 C974 1.379 . S
H976 C970 0.959 . S
H977 C970 0.961 . S
H978 C970 0.960 . S
H979 C971 0.930 . S
H980 C972 0.929 . S
H981 C989 0.929 1_455 S
H982 C991 0.930 . S
H983 C993 0.930 . S
H984 C996 0.929 . S
H985 C999 0.930 1_455 S
H986 C1001 0.960 . S
H987 C1001 0.960 . S
H988 C1001 0.960 . S
C989 H981 0.929 1_655 S
C989 C990 1.377 . S
C989 C991 1.384 . S
C990 C989 1.377 . S
C990 C996 1.390 . S
C991 H982 0.930 . S
C991 C989 1.384 . S
C991 C992 1.372 . S
C992 C991 1.372 . S
C992 C993 1.400 . S
C992 C997 1.490 . S
C993 H983 0.930 . S
C993 C992 1.400 . S
C993 C996 1.386 . S
H994 C1010 0.930 . S
H995 C1011 0.931 . S
C996 H984 0.929 . S
C996 C990 1.390 . S
C996 C993 1.386 . S
C997 C992 1.490 . S
C997 C999 1.395 . S
C997 C1000 1.403 . S
H998 C1004 0.930 . S
C999 H985 0.930 1_655 S
C999 C997 1.395 . S
C999 C1002 1.403 . S
C1000 C997 1.403 . S
C1000 C1001 1.524 . S
C1000 C1004 1.400 . S
C1001 H986 0.960 . S
C1001 H987 0.960 . S
C1001 H988 0.960 . S
C1001 C1000 1.524 . S
C1002 C999 1.403 . S
C1002 C1003 1.392 . S
C1002 C1006 1.495 1_655 S
C1003 C1002 1.392 . S
C1003 C1004 1.385 . S
C1003 C1005 1.478 . S
C1004 H998 0.930 . S
C1004 C1000 1.400 . S
C1004 C1003 1.385 . S
C1005 C1003 1.478 . S
C1005 C1007 1.381 . S
C1005 C1011 1.383 . S
C1006 C1002 1.495 1_455 S
C1006 H1012 0.959 . S
C1006 H1013 0.961 . S
C1006 H1014 0.960 . S
C1007 C1005 1.381 . S
C1007 C1008 1.394 . S
C1007 H1015 0.930 . S
C1008 C1007 1.394 . S
C1008 C1009 1.383 . S
C1008 H1016 0.929 . S
C1009 C1008 1.383 . S
C1009 C1010 1.377 . S
C1010 H994 0.930 . S
C1010 C1009 1.377 . S
C1010 C1011 1.379 . S
C1011 H995 0.931 . S
C1011 C1005 1.383 . S
C1011 C1010 1.379 . S
H1012 C1006 0.959 . S
H1013 C1006 0.961 . S
H1014 C1006 0.960 . S
H1015 C1007 0.930 . S
H1016 C1008 0.929 . S
H1017 C1025 0.929 . S
H1018 C1027 0.930 . S
H1019 C1029 0.930 . S
H1020 C1032 0.929 . S
H1021 C1035 0.930 . S
H1022 C1037 0.960 . S
H1023 C1037 0.960 . S
H1024 C1037 0.960 . S
C1025 H1017 0.929 . S
C1025 C1026 1.377 . S
C1025 C1027 1.384 . S
C1026 C1025 1.377 . S
C1026 C1032 1.390 . S
C1027 H1018 0.930 . S
C1027 C1025 1.384 . S
C1027 C1028 1.372 . S
C1028 C1027 1.372 . S
C1028 C1029 1.400 . S
C1028 C1033 1.490 . S
C1029 H1019 0.930 . S
C1029 C1028 1.400 . S
C1029 C1032 1.386 . S
H1030 C1046 0.930 . S
H1031 C1047 0.931 . S
C1032 H1020 0.929 . S
C1032 C1026 1.390 . S
C1032 C1029 1.386 . S
C1033 C1028 1.490 . S
C1033 C1035 1.395 . S
C1033 C1036 1.403 . S
H1034 C1040 0.930 . S
C1035 H1021 0.930 . S
C1035 C1033 1.395 . S
C1035 C1038 1.403 . S
C1036 C1033 1.403 . S
C1036 C1037 1.524 . S
C1036 C1040 1.400 . S
C1037 H1022 0.960 . S
C1037 H1023 0.960 . S
C1037 H1024 0.960 . S
C1037 C1036 1.524 . S
C1038 C1035 1.403 . S
C1038 C1039 1.392 . S
C1038 C1042 1.495 . S
C1039 C1038 1.392 . S
C1039 C1040 1.385 . S
C1039 C1041 1.478 . S
C1040 H1034 0.930 . S
C1040 C1036 1.400 . S
C1040 C1039 1.385 . S
C1041 C1039 1.478 . S
C1041 C1043 1.381 . S
C1041 C1047 1.383 . S
C1042 C1038 1.495 . S
C1042 H1048 0.959 . S
C1042 H1049 0.961 . S
C1042 H1050 0.960 . S
C1043 C1041 1.381 . S
C1043 C1044 1.394 . S
C1043 H1051 0.930 . S
C1044 C1043 1.394 . S
C1044 C1045 1.383 . S
C1044 H1052 0.929 . S
C1045 C1044 1.383 . S
C1045 C1046 1.377 . S
C1046 H1030 0.930 . S
C1046 C1045 1.377 . S
C1046 C1047 1.379 . S
C1047 H1031 0.931 . S
C1047 C1041 1.383 . S
C1047 C1046 1.379 . S
H1048 C1042 0.959 . S
H1049 C1042 0.961 . S
H1050 C1042 0.960 . S
H1051 C1043 0.930 . S
H1052 C1044 0.929 . S
H1053 C1061 0.929 . S
H1054 C1063 0.930 . S
H1055 C1065 0.930 . S
H1056 C1068 0.929 . S
H1057 C1071 0.930 . S
H1058 C1073 0.960 . S
H1059 C1073 0.960 . S
H1060 C1073 0.960 . S
C1061 H1053 0.929 . S
C1061 C1062 1.377 . S
C1061 C1063 1.384 . S
C1062 C1061 1.377 . S
C1062 C1068 1.390 . S
C1063 H1054 0.930 . S
C1063 C1061 1.384 . S
C1063 C1064 1.372 . S
C1064 C1063 1.372 . S
C1064 C1065 1.400 . S
C1064 C1069 1.490 . S
C1065 H1055 0.930 . S
C1065 C1064 1.400 . S
C1065 C1068 1.386 . S
H1066 C1082 0.930 . S
H1067 C1083 0.931 . S
C1068 H1056 0.929 . S
C1068 C1062 1.390 . S
C1068 C1065 1.386 . S
C1069 C1064 1.490 . S
C1069 C1071 1.395 . S
C1069 C1072 1.403 . S
H1070 C1076 0.930 . S
C1071 H1057 0.930 . S
C1071 C1069 1.395 . S
C1071 C1074 1.403 . S
C1072 C1069 1.403 . S
C1072 C1073 1.524 . S
C1072 C1076 1.400 . S
C1073 H1058 0.960 . S
C1073 H1059 0.960 . S
C1073 H1060 0.960 . S
C1073 C1072 1.524 . S
C1074 C1071 1.403 . S
C1074 C1075 1.392 . S
C1074 C1078 1.495 . S
C1075 C1074 1.392 . S
C1075 C1076 1.385 . S
C1075 C1077 1.478 . S
C1076 H1070 0.930 . S
C1076 C1072 1.400 . S
C1076 C1075 1.385 . S
C1077 C1075 1.478 . S
C1077 C1079 1.381 . S
C1077 C1083 1.383 . S
C1078 C1074 1.495 . S
C1078 H1084 0.959 . S
C1078 H1085 0.961 . S
C1078 H1086 0.960 . S
C1079 C1077 1.381 . S
C1079 C1080 1.394 . S
C1079 H1087 0.930 . S
C1080 C1079 1.394 . S
C1080 C1081 1.383 . S
C1080 H1088 0.929 . S
C1081 C1080 1.383 . S
C1081 C1082 1.377 . S
C1082 H1066 0.930 . S
C1082 C1081 1.377 . S
C1082 C1083 1.379 . S
C1083 H1067 0.931 . S
C1083 C1077 1.383 . S
C1083 C1082 1.379 . S
H1084 C1078 0.959 . S
H1085 C1078 0.961 . S
H1086 C1078 0.960 . S
H1087 C1079 0.930 . S
H1088 C1080 0.929 . S
H1089 C1097 0.929 . S
H1090 C1099 0.930 . S
H1091 C1101 0.930 1_545 S
H1092 C1104 0.929 . S
H1093 C1107 0.930 . S
H1094 C1109 0.960 1_545 S
H1095 C1109 0.960 . S
H1096 C1109 0.960 1_545 S
C1097 H1089 0.929 . S
C1097 C1098 1.377 . S
C1097 C1099 1.384 . S
C1098 C1097 1.377 . S
C1098 C1104 1.390 . S
C1099 H1090 0.930 . S
C1099 C1097 1.384 . S
C1099 C1100 1.372 . S
C1100 C1099 1.372 . S
C1100 C1101 1.400 . S
C1100 C1105 1.490 . S
C1101 H1091 0.930 1_565 S
C1101 C1100 1.400 . S
C1101 C1104 1.386 . S
H1102 C1118 0.930 . S
H1103 C1119 0.931 . S
C1104 H1092 0.929 . S
C1104 C1098 1.390 . S
C1104 C1101 1.386 . S
C1105 C1100 1.490 . S
C1105 C1107 1.395 . S
C1105 C1108 1.403 1_565 S
H1106 C1112 0.930 . S
C1107 H1093 0.930 . S
C1107 C1105 1.395 . S
C1107 C1110 1.403 1_565 S
C1108 C1105 1.403 1_545 S
C1108 C1109 1.524 1_545 S
C1108 C1112 1.400 . S
C1109 H1094 0.960 1_565 S
C1109 H1095 0.960 . S
C1109 H1096 0.960 1_565 S
C1109 C1108 1.524 1_565 S
C1110 C1107 1.403 1_545 S
C1110 C1111 1.392 . S
C1110 C1114 1.495 . S
C1111 C1110 1.392 . S
C1111 C1112 1.385 . S
C1111 C1113 1.478 . S
C1112 H1106 0.930 . S
C1112 C1108 1.400 . S
C1112 C1111 1.385 . S
C1113 C1111 1.478 . S
C1113 C1115 1.381 . S
C1113 C1119 1.383 . S
C1114 C1110 1.495 . S
C1114 H1120 0.959 . S
C1114 H1121 0.961 . S
C1114 H1122 0.960 . S
C1115 C1113 1.381 . S
C1115 C1116 1.394 . S
C1115 H1123 0.930 . S
C1116 C1115 1.394 . S
C1116 C1117 1.383 . S
C1116 H1124 0.929 . S
C1117 C1116 1.383 . S
C1117 C1118 1.377 . S
C1118 H1102 0.930 . S
C1118 C1117 1.377 . S
C1118 C1119 1.379 . S
C1119 H1103 0.931 . S
C1119 C1113 1.383 . S
C1119 C1118 1.379 . S
H1120 C1114 0.959 . S
H1121 C1114 0.961 . S
H1122 C1114 0.960 . S
H1123 C1115 0.930 . S
H1124 C1116 0.929 . S
H1125 C1133 0.929 . S
H1126 C1135 0.930 . S
H1127 C1137 0.930 . S
H1128 C1140 0.929 . S
H1129 C1143 0.930 . S
H1130 C1145 0.960 . S
H1131 C1145 0.960 . S
H1132 C1145 0.960 . S
C1133 H1125 0.929 . S
C1133 C1134 1.377 . S
C1133 C1135 1.384 . S
C1134 C1133 1.377 . S
C1134 C1140 1.390 . S
C1135 H1126 0.930 . S
C1135 C1133 1.384 . S
C1135 C1136 1.372 . S
C1136 C1135 1.372 . S
C1136 C1137 1.400 . S
C1136 C1141 1.490 . S
C1137 H1127 0.930 . S
C1137 C1136 1.400 . S
C1137 C1140 1.386 . S
H1138 C1154 0.930 . S
H1139 C1155 0.931 . S
C1140 H1128 0.929 . S
C1140 C1134 1.390 . S
C1140 C1137 1.386 . S
C1141 C1136 1.490 . S
C1141 C1143 1.395 1_655 S
C1141 C1144 1.403 . S
H1142 C1148 0.930 . S
C1143 H1129 0.930 . S
C1143 C1141 1.395 1_455 S
C1143 C1146 1.403 . S
C1144 C1141 1.403 . S
C1144 C1145 1.524 . S
C1144 C1148 1.400 1_655 S
C1145 H1130 0.960 . S
C1145 H1131 0.960 . S
C1145 H1132 0.960 . S
C1145 C1144 1.524 . S
C1146 C1143 1.403 . S
C1146 C1147 1.392 . S
C1146 C1150 1.495 . S
C1147 C1146 1.392 . S
C1147 C1148 1.385 . S
C1147 C1149 1.478 . S
C1148 H1142 0.930 . S
C1148 C1144 1.400 1_455 S
C1148 C1147 1.385 . S
C1149 C1147 1.478 . S
C1149 C1151 1.381 . S
C1149 C1155 1.383 . S
C1150 C1146 1.495 . S
C1150 H1156 0.959 . S
C1150 H1157 0.961 . S
C1150 H1158 0.960 . S
C1151 C1149 1.381 . S
C1151 C1152 1.394 . S
C1151 H1159 0.930 . S
C1152 C1151 1.394 . S
C1152 C1153 1.383 . S
C1152 H1160 0.929 . S
C1153 C1152 1.383 . S
C1153 C1154 1.377 . S
C1154 H1138 0.930 . S
C1154 C1153 1.377 . S
C1154 C1155 1.379 . S
C1155 H1139 0.931 . S
C1155 C1149 1.383 . S
C1155 C1154 1.379 . S
H1156 C1150 0.959 . S
H1157 C1150 0.961 . S
H1158 C1150 0.960 . S
H1159 C1151 0.930 . S
H1160 C1152 0.929 . S
C198 C34 0.946 1_554 S
C217 C17 0.979 . S
C234 C55 0.952 1_554 S
C253 C35 0.877 . S
C270 C56 0.943 . S
C289 C16 0.939 1_554 S
C306 C59 0.931 . S
C325 C37 0.960 . S
C342 C58 0.955 . S
C361 C14 0.888 . S
C378 C13 0.955 . S
C397 C38 0.878 . S
C414 C77 0.923 . S
C433 C97 0.924 . S
C450 C118 0.955 . S
C469 C98 0.893 . S
C486 C119 0.922 . S
C505 C76 0.928 . S
C522 C100 0.940 . S
C541 C122 0.950 . S
C558 C121 0.948 . S
C577 C80 0.883 . S
C594 C101 0.928 . S
C613 C79 0.971 . S
C630 C160 0.944 . S
C649 C140 0.977 . S
C666 C161 0.919 . S
C685 C184 0.982 . S
C702 C185 0.937 . S
C721 C139 0.929 . S
C738 C182 0.915 . S
C757 C163 0.974 . S
C774 C181 0.940 . S
C793 C143 0.957 . S
C810 C142 0.945 . S
C829 C164 0.975 . S
C846 C120 1.827 . S
C865 C15 1.823 . S
C882 C78 1.828 . S
C901 C39 1.812 . S
C918 C60 1.828 1_565 S
C937 C99 1.819 . S
C954 C57 1.838 . S
C973 C144 1.864 . S
C990 C18 1.838 1_655 S
C1009 C165 1.802 . S
C1026 C183 1.837 . S
C1045 C36 1.799 . S
C1062 C81 1.830 . S
C1081 C186 1.800 . S
C1098 C102 1.836 . S
C1117 C141 1.797 . S
C1134 C162 1.830 . S
C1153 C123 1.800 . S
