# Generated by pormake.
# Topology sxb, (6)-cn, num edge types: 1
# Building blocks:
#     Node 0, Type 0, BuildingBlock: CIFDUS_clean_sbu_1, # of connection points: 6
#     Node 1, Type 0, BuildingBlock: CIFDUS_clean_sbu_1, # of connection points: 6
#     Node 2, Type 0, BuildingBlock: CIFDUS_clean_sbu_1, # of connection points: 6
#     Node 3, Type 0, BuildingBlock: CIFDUS_clean_sbu_1, # of connection points: 6
#     Edge 4, Type (0, 0), BuildingBlock: FUNLAD_clean_linker_1, # of connection points: 2
#     Edge 5, Type (0, 0), BuildingBlock: FUNLAD_clean_linker_1, # of connection points: 2
#     Edge 6, Type (0, 0), BuildingBlock: FUNLAD_clean_linker_1, # of connection points: 2
#     Edge 7, Type (0, 0), BuildingBlock: FUNLAD_clean_linker_1, # of connection points: 2
#     Edge 8, Type (0, 0), BuildingBlock: FUNLAD_clean_linker_1, # of connection points: 2
#     Edge 9, Type (0, 0), BuildingBlock: FUNLAD_clean_linker_1, # of connection points: 2
#     Edge 10, Type (0, 0), BuildingBlock: FUNLAD_clean_linker_1, # of connection points: 2
#     Edge 11, Type (0, 0), BuildingBlock: FUNLAD_clean_linker_1, # of connection points: 2
#     Edge 12, Type (0, 0), BuildingBlock: FUNLAD_clean_linker_1, # of connection points: 2
#     Edge 13, Type (0, 0), BuildingBlock: FUNLAD_clean_linker_1, # of connection points: 2
#     Edge 14, Type (0, 0), BuildingBlock: FUNLAD_clean_linker_1, # of connection points: 2
#     Edge 15, Type (0, 0), BuildingBlock: FUNLAD_clean_linker_1, # of connection points: 2
# Relax obj value: 0.095
# Max RMSD: 0.134
# Mean RMSD: 0.134
data_MOF--net-sxb--node1-CIFDUS_clean_sbu_1--edge1-FUNLAD_clean_linker_1
_symmetry_space_group_name_H-M    P1
_symmetry_Int_Tables_number       1
_symmetry_cell_setting            triclinic
loop_
_symmetry_equiv_pos_as_xyz
'x, y, z'
_cell_length_a     15.884985
_cell_length_b     29.219575
_cell_length_c     32.076719
_cell_angle_alpha  90.201014
_cell_angle_beta   103.17236
_cell_angle_gamma 90.006795
loop_
_atom_site_label
_atom_site_type_symbol
_atom_site_fract_x
_atom_site_fract_y
_atom_site_fract_z
_atom_type_partial_charge
O0 O 0.05713 0.94758 0.0158 0.0
Mn1 Mn 0.01659 0.01575 0.02365 0.0
O2 O 0.15877 0.93161 0.07549 0.0
Mn3 Mn 0.16326 0.98885 0.10011 0.0
O4 O 0.97912 0.08393 0.03447 0.0
O5 O 0.97462 0.01861 0.95741 0.0
Mn6 Mn 0.88044 0.05255 0.95273 0.0
O7 O 0.8958 0.99272 0.03109 0.0
O8 O 0.9052 0.11107 0.97229 0.0
O9 O 0.13774 0.03838 0.01623 0.0
O10 O 0.23097 0.03023 0.07978 0.0
O11 O 0.88046 0.04182 0.89825 0.0
O12 O 0.80049 0.02143 0.97475 0.0
C13 C 0.0663 0.01344 0.1294 0.0
C14 C 0.11401 0.92061 0.03859 0.0
C15 C 0.94116 0.11706 0.01128 0.0
C16 C 0.95039 0.01949 0.91533 0.0
C17 C 0.81826 0.99794 0.00884 0.0
C18 C 0.2131 0.04342 0.04103 0.0
O19 O 0.05812 0.01135 0.08822 0.0
O20 O 0.13846 0.99796 0.1523 0.0
O21 O 0.10446 0.99203 0.49074 0.0
Mn22 Mn -0.01228 0.01024 0.50825 0.0
O23 O 0.1995 0.98004 0.55143 0.0
Mn24 Mn 0.14654 0.02548 0.57479 0.0
O25 O 0.87053 0.02892 0.52522 0.0
O26 O 0.93667 0.01207 0.44242 0.0
Mn27 Mn 0.8316 0.99081 0.44112 0.0
O28 O 0.95463 0.94075 0.51252 0.0
O29 O 0.77193 0.03341 0.46418 0.0
O30 O 0.02222 0.07951 0.50506 0.0
O31 O 0.1501 0.08347 0.5523 0.0
O32 O 0.82732 0.99755 0.38571 0.0
O33 O 0.83132 0.93257 0.46287 0.0
C34 C 0.06955 0.0075 0.61563 0.0
C35 C 0.1788 0.97775 0.5112 0.0
C36 C 0.7945 0.04001 0.50402 0.0
C37 C 0.90465 0.01332 0.40072 0.0
C38 C 0.88836 0.91702 0.49393 0.0
C39 C 0.09133 0.10139 0.52325 0.0
O40 O 0.03901 0.00878 0.5739 0.0
O41 O 0.14937 0.01985 0.6303 0.0
O42 O 0.54542 0.44088 0.00757 0.0
Mn43 Mn 0.51244 0.51006 0.01551 0.0
O44 O 0.62967 0.41723 0.0692 0.0
Mn45 Mn 0.65299 0.47632 0.08864 0.0
O46 O 0.47996 0.57998 0.02241 0.0
O47 O 0.46681 0.50975 0.94926 0.0
Mn48 Mn 0.3678 0.53973 0.94283 0.0
O49 O 0.39326 0.49162 0.02677 0.0
O50 O 0.38505 0.59886 0.962 0.0
O51 O 0.63255 0.52864 1.00521 0.0
O52 O 0.73025 0.50783 0.06438 0.0
O53 O 0.37223 0.52722 0.88863 0.0
O54 O 0.29296 0.50655 0.96712 0.0
C55 C 0.57825 0.51079 0.12398 0.0
C56 C 0.58864 0.40942 0.03107 0.0
C57 C 0.42974 0.6092 0.99884 0.0
C58 C 0.44354 0.50705 0.90716 0.0
C59 C 0.31504 0.49127 1.00505 0.0
C60 C 0.71029 0.52632 0.02762 0.0
O61 O 0.55674 0.50894 0.08184 0.0
O62 O 0.6484 0.4898 0.1428 0.0
O63 O 0.60571 0.49493 0.49871 0.0
Mn64 Mn 0.48721 0.51134 0.51372 0.0
O65 O 0.70402 0.48972 0.56034 0.0
Mn66 Mn 0.64092 0.52782 0.58704 0.0
O67 O 0.36653 0.52846 0.52683 0.0
O68 O 0.43624 0.51857 0.44897 0.0
Mn69 Mn 0.3316 0.49344 0.44093 0.0
O70 O 0.45496 0.44181 0.5142 0.0
O71 O 0.27407 0.5383 0.46332 0.0
O72 O 0.52187 0.58102 0.51452 0.0
O73 O 0.63742 0.58813 0.56962 0.0
O74 O 0.36311 0.48857 0.38989 0.0
O75 O 0.32738 0.43762 0.46752 0.0
C76 C 0.55612 0.49984 0.62089 0.0
C77 C 0.68196 0.4849 0.52006 0.0
C78 C 0.29291 0.54177 0.504 0.0
C79 C 0.43644 0.50538 0.41007 0.0
C80 C 0.38547 0.4202 0.49695 0.0
C81 C 0.58417 0.60465 0.5374 0.0
O82 O 0.53473 0.50571 0.57923 0.0
O83 O 0.63238 0.51363 0.6406 0.0
H84 H 0.45717 0.66834 0.04462 0.0
C85 C 0.41423 0.65527 0.01572 0.0
H86 H 0.29792 0.6649 0.96881 0.0
H87 H 0.11276 0.79953 0.07043 0.0
H88 H 0.06696 0.72869 0.09778 0.0
H89 H 0.1343 0.65513 0.08595 0.0
H90 H 0.24856 0.65201 0.04691 0.0
C91 C 0.3428 0.67918 0.99651 0.0
C92 C 0.31595 0.72412 0.01139 0.0
C93 C 0.24933 0.72555 0.03428 0.0
C94 C 0.2103 0.76804 0.04107 0.0
C95 C 0.14452 0.76829 0.06434 0.0
C96 C 0.11753 0.72785 0.08017 0.0
C97 C 0.15539 0.68642 0.07346 0.0
C98 C 0.22057 0.68507 0.05084 0.0
H99 H 0.08967 0.86051 0.99394 0.0
C100 C 0.13418 0.87554 0.02135 0.0
H101 H 0.256 0.87069 0.06496 0.0
H102 H 0.4407 0.73363 0.96592 0.0
H103 H 0.48549 0.80436 0.9378 0.0
H104 H 0.41817 0.87796 0.94958 0.0
H105 H 0.30487 0.88124 0.9892 0.0
C106 C 0.20964 0.85425 0.03907 0.0
C107 C 0.23784 0.8092 0.025 0.0
C108 C 0.30447 0.80775 1.00212 0.0
C109 C 0.34338 0.76525 0.99529 0.0
C110 C 0.40886 0.76492 0.97185 0.0
C111 C 0.43532 0.80528 0.95566 0.0
C112 C 0.39748 0.84673 0.96234 0.0
C113 C 0.33285 0.84817 0.9853 0.0
H114 H 0.62785 0.37019 0.98012 0.0
C115 C 0.61146 0.36678 0.01104 0.0
H116 H 0.6156 0.3265 0.06515 0.0
H117 H 0.79102 0.19215 0.93474 0.0
H118 H 0.66515 0.20646 0.8785 0.0
H119 H 0.55111 0.25908 0.88974 0.0
H120 H 0.56316 0.29785 0.95757 0.0
C121 C 0.63404 0.32868 0.03461 0.0
C122 C 0.70124 0.29545 0.02677 0.0
C123 C 0.6918 0.2714 0.9874 0.0
C124 C 0.75732 0.24026 0.98125 0.0
C125 C 0.7453 0.21687 0.94144 0.0
C126 C 0.67248 0.22439 0.90872 0.0
C127 C 0.60836 0.25403 0.91504 0.0
C128 C 0.61683 0.27668 0.95404 0.0
H129 H 0.89984 0.15642 0.06182 0.0
C130 C 0.91795 0.15963 0.03129 0.0
H131 H 0.91849 0.20012 0.97765 0.0
H132 H 0.74471 0.33737 0.10591 0.0
H133 H 0.87167 0.32385 0.1617 0.0
H134 H 0.98447 0.27024 0.15077 0.0
H135 H 0.97014 0.22976 0.08363 0.0
C136 C 0.89802 0.198 0.00768 0.0
C137 C 0.83175 0.2321 0.01482 0.0
C138 C 0.84166 0.25651 0.05395 0.0
C139 C 0.77651 0.28789 0.06001 0.0
C140 C 0.78979 0.31217 0.0994 0.0
C141 C 0.8633 0.30515 0.13183 0.0
C142 C 0.92674 0.27497 0.12569 0.0
C143 C 0.91703 0.25141 0.08709 0.0
H144 H 0.0526 0.16804 0.49061 0.0
C145 C 0.10556 0.14916 0.51061 0.0
H146 H 0.23669 0.15016 0.54428 0.0
H147 H 0.29959 0.32394 0.43103 0.0
H148 H 0.2792 0.27063 0.37148 0.0
H149 H 0.22422 0.1926 0.3779 0.0
H150 H 0.18886 0.16747 0.44401 0.0
C151 C 0.18388 0.16911 0.52423 0.0
C152 C 0.2027 0.21804 0.51717 0.0
C153 C 0.22293 0.23211 0.47835 0.0
C154 C 0.25494 0.27711 0.47468 0.0
C155 C 0.27475 0.29027 0.43554 0.0
C156 C 0.26359 0.25996 0.40112 0.0
C157 C 0.23271 0.21601 0.40477 0.0
C158 C 0.21272 0.20201 0.44289 0.0
H159 H 0.42399 0.35232 0.527 0.0
C160 C 0.36977 0.37331 0.51112 0.0
H161 H 0.23415 0.37811 0.48833 0.0
H162 H 0.16696 0.20269 0.59536 0.0
H163 H 0.18697 0.25617 0.65487 0.0
H164 H 0.24391 0.33384 0.64874 0.0
H165 H 0.28117 0.35854 0.58285 0.0
C166 C 0.28833 0.35659 0.50333 0.0
C167 C 0.26695 0.30794 0.5098 0.0
C168 C 0.24606 0.29401 0.54848 0.0
C169 C 0.21385 0.24907 0.55213 0.0
C170 C 0.19276 0.23619 0.59105 0.0
C171 C 0.20356 0.26662 0.62539 0.0
C172 C 0.23545 0.31039 0.62189 0.0
C173 C 0.25643 0.32415 0.58393 0.0
H174 H 0.92742 0.85108 0.52795 0.0
C175 C 0.87347 0.87061 0.50957 0.0
H176 H 0.73896 0.87356 0.48336 0.0
H177 H 0.6473 0.66816 0.45297 0.0
H178 H 0.64135 0.69354 0.38072 0.0
H179 H 0.69374 0.77021 0.36695 0.0
H180 H 0.75364 0.82164 0.42554 0.0
C181 C 0.79234 0.85325 0.50129 0.0
C182 C 0.7697 0.80551 0.51099 0.0
C183 C 0.73344 0.7758 0.47639 0.0
C184 C 0.70159 0.73183 0.4843 0.0
C185 C 0.66965 0.70242 0.44903 0.0
C186 C 0.66641 0.71645 0.40723 0.0
C187 C 0.69598 0.75958 0.39948 0.0
C188 C 0.72971 0.78889 0.43348 0.0
H189 H 0.54792 0.67139 0.50461 0.0
C190 C 0.60005 0.65215 0.52482 0.0
H191 H 0.73207 0.65027 0.55633 0.0
H192 H 0.83105 0.85445 0.58469 0.0
H193 H 0.83557 0.82956 0.65715 0.0
H194 H 0.7793 0.75379 0.67093 0.0
H195 H 0.71801 0.70254 0.6124 0.0
C196 C 0.68038 0.6703 0.53663 0.0
C197 C 0.70429 0.71789 0.52693 0.0
C198 C 0.74039 0.7477 0.56153 0.0
C199 C 0.77308 0.79147 0.5536 0.0
C200 C 0.80667 0.82064 0.58881 0.0
C201 C 0.80931 0.80686 0.63063 0.0
C202 C 0.7777 0.76419 0.6384 0.0
C203 C 0.74319 0.73495 0.60443 0.0
H204 H 0.27902 0.04577 0.98797 0.0
C205 C 0.28713 0.05308 0.02191 0.0
H206 H 0.37452 0.06409 0.08108 0.0
H207 H 0.64526 0.91918 0.05533 0.0
H208 H 0.59065 0.88737 0.11372 0.0
H209 H 0.46692 0.92287 0.13596 0.0
H210 H 0.39721 0.99001 0.10008 0.0
C211 C 0.3671 0.05688 0.04716 0.0
C212 C 0.44286 0.03665 0.03395 0.0
C213 C 0.48309 0.99718 0.05567 0.0
C214 C 0.55483 0.97679 0.04321 0.0
C215 C 0.5922 0.93674 0.06442 0.0
C216 C 0.561 0.91787 0.09773 0.0
C217 C 0.49134 0.93783 0.11022 0.0
C218 C 0.45219 0.97672 0.08939 0.0
H219 H 0.74838 0.98965 0.05985 0.0
C220 C 0.74411 0.98373 0.02596 0.0
H221 H 0.66462 0.97151 0.96511 0.0
H222 H 0.38304 0.11298 0.98725 0.0
H223 H 0.43569 0.14377 0.92792 0.0
H224 H 0.55829 0.10775 0.90515 0.0
H225 H 0.62888 0.04119 0.94145 0.0
C226 C 0.66669 0.97808 0.99871 0.0
C227 C 0.58678 0.99611 0.0095 0.0
C228 C 0.54512 0.03487 0.98701 0.0
C229 C 0.47364 0.05541 0.99962 0.0
C230 C 0.43575 0.0952 0.97807 0.0
C231 C 0.46579 0.1135 0.94417 0.0
C232 C 0.53484 0.09325 0.9314 0.0
C233 C 0.57468 0.05472 0.9526 0.0
H234 H 0.24609 0.99733 0.46139 0.0
C235 C 0.2517 0.97623 0.48973 0.0
H236 H 0.33434 0.94152 0.54009 0.0
H237 H 0.60179 0.0301 0.42581 0.0
H238 H 0.52224 0.98753 0.36504 0.0
H239 H 0.39275 0.94307 0.36959 0.0
H240 H 0.34219 0.94136 0.43523 0.0
C241 C 0.33046 0.96289 0.51205 0.0
C242 C 0.41063 0.98823 0.50918 0.0
C243 C 0.44081 0.98814 0.47094 0.0
C244 C 0.51651 0.0133 0.46874 0.0
C245 C 0.54473 0.01226 0.42982 0.0
C246 C 0.49975 0.98763 0.39446 0.0
C247 C 0.42683 0.96265 0.39699 0.0
C248 C 0.39798 0.96238 0.4348 0.0
H249 H 0.72598 0.02559 0.55449 0.0
C250 C 0.72284 0.0459 0.52587 0.0
H251 H 0.64509 0.0823 0.47525 0.0
H252 H 0.36952 0.99773 0.5878 0.0
H253 H 0.44814 0.04104 0.64842 0.0
H254 H 0.57858 0.08482 0.64414 0.0
H255 H 0.63102 0.0852 0.57893 0.0
C256 C 0.64583 0.06129 0.50322 0.0
C257 C 0.56328 0.03782 0.50529 0.0
C258 C 0.53241 0.03839 0.54333 0.0
C259 C 0.45649 0.01342 0.54546 0.0
C260 C 0.42719 0.0152 0.58406 0.0
C261 C 0.47152 0.0403 0.61925 0.0
C262 C 0.54496 0.06491 0.61687 0.0
C263 C 0.57486 0.06444 0.57934 0.0
H264 H 0.78296 0.51333 0.97969 0.0
C265 C 0.78169 0.53508 0.00706 0.0
H266 H 0.8483 0.5773 0.05575 0.0
H267 H 0.17912 0.45498 0.09069 0.0
H268 H 0.16304 0.47647 0.16145 0.0
H269 H 0.0462 0.52847 0.1704 0.0
H270 H 0.94442 0.5581 0.10929 0.0
C271 C 0.85373 0.55606 0.02875 0.0
C272 C 0.94073 0.54054 0.02389 0.0
C273 C 0.00248 0.52543 0.06067 0.0
C274 C 0.07353 0.49798 0.05571 0.0
C275 C 0.12838 0.47898 0.09272 0.0
C276 C 0.11898 0.49037 0.13356 0.0
C277 C 0.05299 0.51942 0.13858 0.0
C278 C -0.00558 0.53614 0.10281 0.0
H279 H 0.25072 0.51013 0.05472 0.0
C280 C 0.24614 0.4866 0.028 0.0
H281 H 0.16852 0.44451 0.98241 0.0
H282 H 0.85072 0.5766 0.94839 0.0
H283 H 0.87149 0.55938 0.87737 0.0
H284 H -0.00793 0.51029 0.86798 0.0
H285 H 0.09256 0.47919 0.92878 0.0
C286 C 0.16995 0.46802 0.00881 0.0
C287 C 0.08766 0.48933 0.01423 0.0
C288 C 0.02854 0.5068 0.97754 0.0
C289 C 0.9567 0.5335 0.9826 0.0
C290 C 0.90264 0.55352 0.94592 0.0
C291 C 0.91469 0.54457 0.90506 0.0
C292 C 0.98265 0.51707 0.89981 0.0
C293 C 0.03993 0.49907 0.93541 0.0
H294 H 0.22167 0.52214 0.55159 0.0
C295 C 0.21934 0.54483 0.52458 0.0
H296 H 0.14347 0.58567 0.47713 0.0
H297 H 0.82928 0.45034 0.43746 0.0
H298 H 0.85909 0.46463 0.36798 0.0
H299 H 0.98147 0.51353 0.36092 0.0
H300 H 0.07488 0.54761 0.42287 0.0
C301 C 0.14336 0.56249 0.50347 0.0
C302 C 0.05978 0.54099 0.50692 0.0
C303 C 0.00461 0.52176 0.46964 0.0
C304 C 0.93199 0.49479 0.47332 0.0
C305 C 0.88188 0.47336 0.43615 0.0
C306 C 0.89908 0.48067 0.39608 0.0
C307 C 0.96808 0.50808 0.39215 0.0
C308 C 0.0212 0.52777 0.42833 0.0
H309 H 0.74759 0.50518 0.47051 0.0
C310 C 0.75275 0.4823 0.4976 0.0
H311 H 0.83275 0.44205 0.54408 0.0
H312 H 0.1414 0.5802 0.58301 0.0
H313 H 0.11042 0.56688 0.65245 0.0
H314 H -0.01231 0.51826 0.65955 0.0
H315 H 0.89505 0.48354 0.5977 0.0
C316 C 0.83024 0.4655 0.51764 0.0
C317 C 0.91196 0.48874 0.51383 0.0
C318 C 0.96641 0.50855 0.55103 0.0
C319 C 0.03908 0.53544 0.54734 0.0
C320 C 0.08872 0.55725 0.58441 0.0
C321 C 0.07085 0.55049 0.62443 0.0
C322 C 0.00168 0.52324 0.62838 0.0
C323 C 0.9491 0.50311 0.59227 0.0
H324 H 0.89819 0.05241 0.34416 0.0
C325 C 0.94519 0.03561 0.36937 0.0
H326 H 0.06397 1.00252 0.3852 0.0
H327 H 0.05372 0.93429 0.19789 0.0
H328 H 0.12328 0.87312 0.2429 0.0
H329 H 0.15165 0.87929 0.32147 0.0
H330 H 0.11226 0.94705 0.35532 0.0
C331 C 0.02059 0.02237 0.36102 0.0
C332 C 0.03053 0.02363 0.31526 0.0
C333 C 0.05391 0.98323 0.29584 0.0
C334 C 0.03537 0.9792 0.25025 0.0
C335 C 0.06241 0.93901 0.232 0.0
C336 C 0.1034 0.90348 0.25755 0.0
C337 C 0.11937 0.90696 0.30176 0.0
C338 C 0.09534 0.94621 0.32083 0.0
H339 H 0.02814 0.06942 0.163 0.0
C340 C 0.00585 0.03563 0.15129 0.0
H341 H 0.94649 0.97549 0.16369 0.0
H342 H 0.0173 0.11184 0.34068 0.0
H343 H 0.94583 0.17442 0.29611 0.0
H344 H 0.88478 0.16247 0.21887 0.0
H345 H 0.90008 0.08933 0.18527 0.0
C346 C 0.96857 0.0091 0.17616 0.0
C347 C -0.00925 0.01494 0.22399 0.0
C348 C 0.97324 0.0564 0.24354 0.0
C349 C -0.0003 0.0618 0.28877 0.0
C350 C -0.00756 0.10543 0.30683 0.0
C351 C 0.95215 0.14145 0.28165 0.0
C352 C 0.91823 0.13479 0.23813 0.0
C353 C 0.92826 0.09278 0.21915 0.0
H354 H 0.06567 0.99882 0.89146 0.0
C355 C -0.00422 0.99633 0.88584 0.0
H356 H 0.87743 0.98047 0.84328 0.0
H357 H 0.97491 0.06613 0.68291 0.0
H358 H 0.89994 0.12948 0.70629 0.0
H359 H 0.85758 0.12712 0.77555 0.0
H360 H 0.89181 0.06156 0.82196 0.0
C361 C 0.94732 0.98242 0.84762 0.0
C362 C 0.97786 0.98392 0.80719 0.0
C363 C 0.95441 0.02191 0.77938 0.0
C364 C 0.97661 0.02271 0.73885 0.0
C365 C 0.95729 0.06252 0.71326 0.0
C366 C 0.91449 0.09953 0.72643 0.0
C367 C 0.89076 0.09824 0.7654 0.0
C368 C 0.91062 0.06015 0.79173 0.0
H369 H 0.94824 0.9927 0.63733 0.0
C370 C 0.0183 0.99442 0.64691 0.0
H371 H 0.13074 0.98865 0.69674 0.0
H372 H 0.02998 0.90602 0.85231 0.0
H373 H 0.1032 0.84122 0.82861 0.0
H374 H 0.13755 0.84109 0.75736 0.0
H375 H 0.09898 0.90569 0.70933 0.0
C376 C 0.06045 0.98892 0.6883 0.0
C377 C 0.01983 0.98472 0.72555 0.0
C378 C 0.04127 0.94635 0.75303 0.0
C379 C 0.02086 0.94613 0.79399 0.0
C380 C 0.04386 0.90768 0.82085 0.0
C381 C 0.08589 0.87035 0.80765 0.0
C382 C 0.10536 0.87031 0.76755 0.0
C383 C 0.08335 0.90771 0.74041 0.0
H384 H 0.44606 0.55909 0.36624 0.0
C385 C 0.48277 0.53019 0.38199 0.0
H386 H 0.56921 0.47837 0.37758 0.0
H387 H 0.51037 0.42893 0.18595 0.0
H388 H 0.51759 0.3565 0.222 0.0
H389 H 0.51889 0.35263 0.29882 0.0
H390 H 0.51705 0.42101 0.34023 0.0
C391 C 0.53373 0.50708 0.36081 0.0
C392 C 0.52421 0.5104 0.31263 0.0
C393 C 0.51616 0.4694 0.28765 0.0
C394 C 0.50672 0.47141 0.24225 0.0
C395 C 0.51043 0.42988 0.2196 0.0
C396 C 0.51563 0.38773 0.24002 0.0
C397 C 0.51699 0.38558 0.28328 0.0
C398 C 0.51703 0.42561 0.30689 0.0
H399 H 0.57419 0.56359 0.16978 0.0
C400 C 0.53343 0.53702 0.15189 0.0
H401 H 0.44097 0.4874 0.15419 0.0
H402 H 0.56298 0.5955 0.34824 0.0
H403 H 0.53599 0.66829 0.31134 0.0
H404 H 0.48035 0.6711 0.23305 0.0
H405 H 0.45652 0.6012 0.19087 0.0
C406 C 0.47979 0.51471 0.17199 0.0
C407 C 0.49412 0.51414 0.22042 0.0
C408 C 0.49799 0.55495 0.24512 0.0
C409 C 0.51987 0.55318 0.29097 0.0
C410 C 0.53759 0.59479 0.31398 0.0
C411 C 0.52375 0.63679 0.29311 0.0
C412 C 0.49304 0.63838 0.24898 0.0
C413 C 0.48041 0.59805 0.22511 0.0
H414 H 0.53232 0.44444 0.65995 0.0
C415 C 0.50365 0.47655 0.6469 0.0
H416 H 0.43798 0.5348 0.65894 0.0
H417 H 0.52962 0.40366 0.83926 0.0
H418 H 0.46282 0.33891 0.79645 0.0
H419 H 0.39858 0.34771 0.71924 0.0
H420 H 0.40595 0.42042 0.68388 0.0
C421 C 0.46507 0.50237 0.67205 0.0
C422 C 0.48806 0.49797 0.72032 0.0
C423 C 0.47514 0.45669 0.74131 0.0
C424 C 0.50309 0.45302 0.78687 0.0
C425 C 0.50177 0.40937 0.80564 0.0
C426 C 0.46472 0.37184 0.78133 0.0
C427 C 0.42913 0.3767 0.73781 0.0
C428 C 0.43437 0.41852 0.71784 0.0
H429 H 0.43251 0.45453 0.86067 0.0
C430 C 0.48165 0.47664 0.87961 0.0
H431 H 0.59225 0.51423 0.88031 0.0
H432 H 0.5418 0.57942 0.69204 0.0
H433 H 0.59409 0.6458 0.7347 0.0
H434 H 0.6119 0.64491 0.81297 0.0
H435 H 0.58109 0.57745 0.849 0.0
C436 C 0.54376 0.49222 0.8609 0.0
C437 C 0.5318 0.49251 0.81249 0.0
C438 C 0.54342 0.53418 0.79135 0.0
C439 C 0.52607 0.53603 0.74563 0.0
C440 C 0.54757 0.57661 0.72613 0.0
C441 C 0.57875 0.61513 0.75032 0.0
C442 C 0.58925 0.61453 0.79436 0.0
C443 C 0.57181 0.57487 0.81475 0.0
loop_
_geom_bond_atom_site_label_1
_geom_bond_atom_site_label_2
_geom_bond_distance
_geom_bond_site_symmetry_2
_ccdc_geom_bond_type
O0 Mn1 2.163 1_566 S
O0 C14 1.244 1_556 S
Mn1 O0 2.163 1_544 S
Mn1 O4 2.160 . S
Mn1 O5 2.221 1_554 S
Mn1 O7 2.163 1_445 S
Mn1 O9 2.160 . S
Mn1 O19 2.221 . S
O2 Mn3 2.087 . S
O2 C14 1.256 . S
Mn3 O2 2.087 . S
Mn3 O10 2.089 . S
Mn3 O19 2.290 1_565 S
Mn3 O20 2.251 . S
O4 Mn1 2.160 . S
O4 C15 1.239 1_455 S
O5 Mn1 2.221 1_556 S
O5 Mn6 2.290 1_455 S
O5 C16 1.278 1_455 S
Mn6 O5 2.290 1_655 S
Mn6 O8 2.089 . S
Mn6 O11 2.251 . S
Mn6 O12 2.087 . S
O7 Mn1 2.163 1_665 S
O7 C17 1.244 1_554 S
O8 Mn6 2.089 . S
O8 C15 1.256 1_556 S
O9 Mn1 2.160 . S
O9 C18 1.239 . S
O10 Mn3 2.089 . S
O10 C18 1.256 1_565 S
O11 Mn6 2.251 . S
O11 C16 1.241 . S
O12 Mn6 2.087 . S
O12 C17 1.256 1_545 S
C13 O19 1.278 1_565 S
C13 O20 1.241 . S
C14 O0 1.244 1_554 S
C14 O2 1.256 . S
C15 O4 1.239 1_655 S
C15 O8 1.256 1_554 S
C16 O5 1.278 1_655 S
C16 O11 1.241 . S
C17 O7 1.244 1_556 S
C17 O12 1.256 1_565 S
C18 O9 1.239 . S
C18 O10 1.256 1_545 S
O19 Mn1 2.221 . S
O19 Mn3 2.290 1_545 S
O19 C13 1.278 1_545 S
O20 Mn3 2.251 . S
O20 C13 1.241 . S
O21 Mn22 2.163 1_465 S
O21 C35 1.244 . S
Mn22 O21 2.163 1_645 S
Mn22 O25 2.160 . S
Mn22 O26 2.221 . S
Mn22 O28 2.163 1_545 S
Mn22 O30 2.160 1_655 S
Mn22 O40 2.221 1_655 S
O23 Mn24 2.087 . S
O23 C35 1.256 1_545 S
Mn24 O23 2.087 . S
Mn24 O31 2.089 . S
Mn24 O40 2.290 . S
Mn24 O41 2.251 . S
O25 Mn22 2.160 . S
O25 C36 1.239 . S
O26 Mn22 2.221 . S
O26 Mn27 2.290 1_545 S
O26 C37 1.278 1_545 S
Mn27 O26 2.290 1_565 S
Mn27 O29 2.089 . S
Mn27 O32 2.251 . S
Mn27 O33 2.087 . S
O28 Mn22 2.163 1_565 S
O28 C38 1.244 . S
O29 Mn27 2.089 . S
O29 C36 1.256 1_565 S
O30 Mn22 2.160 1_455 S
O30 C39 1.239 . S
O31 Mn24 2.089 . S
O31 C39 1.256 . S
O32 Mn27 2.251 . S
O32 C37 1.241 . S
O33 Mn27 2.087 . S
O33 C38 1.256 . S
C34 O40 1.278 . S
C34 O41 1.241 . S
C35 O21 1.244 . S
C35 O23 1.256 1_565 S
C36 O25 1.239 . S
C36 O29 1.256 1_545 S
C37 O26 1.278 1_565 S
C37 O32 1.241 . S
C38 O28 1.244 . S
C38 O33 1.256 . S
C39 O30 1.239 . S
C39 O31 1.256 . S
O40 Mn22 2.221 1_455 S
O40 Mn24 2.290 . S
O40 C34 1.278 . S
O41 Mn24 2.251 . S
O41 C34 1.241 . S
O42 Mn43 2.163 1_556 S
O42 C56 1.244 1_556 S
Mn43 O42 2.163 1_554 S
Mn43 O46 2.160 . S
Mn43 O47 2.221 1_554 S
Mn43 O49 2.163 . S
Mn43 O51 2.160 . S
Mn43 O61 2.221 . S
O44 Mn45 2.087 . S
O44 C56 1.256 . S
Mn45 O44 2.087 . S
Mn45 O52 2.089 . S
Mn45 O61 2.290 . S
Mn45 O62 2.251 . S
O46 Mn43 2.160 . S
O46 C57 1.239 . S
O47 Mn43 2.221 1_556 S
O47 Mn48 2.290 . S
O47 C58 1.278 . S
Mn48 O47 2.290 . S
Mn48 O50 2.089 . S
Mn48 O53 2.251 . S
Mn48 O54 2.087 . S
O49 Mn43 2.163 . S
O49 C59 1.244 1_554 S
O50 Mn48 2.089 . S
O50 C57 1.256 1_556 S
O51 Mn43 2.160 . S
O51 C60 1.239 . S
O52 Mn45 2.089 . S
O52 C60 1.256 . S
O53 Mn48 2.251 . S
O53 C58 1.241 . S
O54 Mn48 2.087 . S
O54 C59 1.256 . S
C55 O61 1.278 . S
C55 O62 1.241 . S
C56 O42 1.244 1_554 S
C56 O44 1.256 . S
C57 O46 1.239 . S
C57 O50 1.256 1_554 S
C58 O47 1.278 . S
C58 O53 1.241 . S
C59 O49 1.244 1_556 S
C59 O54 1.256 . S
C60 O51 1.239 . S
C60 O52 1.256 . S
O61 Mn43 2.221 . S
O61 Mn45 2.290 . S
O61 C55 1.278 . S
O62 Mn45 2.251 . S
O62 C55 1.241 . S
O63 Mn64 2.163 . S
O63 C77 1.244 . S
Mn64 O63 2.163 . S
Mn64 O67 2.160 . S
Mn64 O68 2.221 . S
Mn64 O70 2.163 . S
Mn64 O72 2.160 . S
Mn64 O82 2.221 . S
O65 Mn66 2.087 . S
O65 C77 1.256 . S
Mn66 O65 2.087 . S
Mn66 O73 2.089 . S
Mn66 O82 2.290 . S
Mn66 O83 2.251 . S
O67 Mn64 2.160 . S
O67 C78 1.239 . S
O68 Mn64 2.221 . S
O68 Mn69 2.290 . S
O68 C79 1.278 . S
Mn69 O68 2.290 . S
Mn69 O71 2.089 . S
Mn69 O74 2.251 . S
Mn69 O75 2.087 . S
O70 Mn64 2.163 . S
O70 C80 1.244 . S
O71 Mn69 2.089 . S
O71 C78 1.256 . S
O72 Mn64 2.160 . S
O72 C81 1.239 . S
O73 Mn66 2.089 . S
O73 C81 1.256 . S
O74 Mn69 2.251 . S
O74 C79 1.241 . S
O75 Mn69 2.087 . S
O75 C80 1.256 . S
C76 O82 1.278 . S
C76 O83 1.241 . S
C77 O63 1.244 . S
C77 O65 1.256 . S
C78 O67 1.239 . S
C78 O71 1.256 . S
C79 O68 1.278 . S
C79 O74 1.241 . S
C80 O70 1.244 . S
C80 O75 1.256 . S
C81 O72 1.239 . S
C81 O73 1.256 . S
O82 Mn64 2.221 . S
O82 Mn66 2.290 . S
O82 C76 1.278 . S
O83 Mn66 2.251 . S
O83 C76 1.241 . S
H84 C85 0.951 . S
C85 H84 0.951 . S
C85 C91 1.265 . S
H86 C91 0.950 1_556 S
H87 C95 0.949 . S
H88 C96 0.950 . S
H89 C97 0.951 . S
H90 C98 0.951 . S
C91 C85 1.265 . S
C91 H86 0.950 1_554 S
C91 C92 1.478 . S
C92 C91 1.478 . S
C92 C93 1.397 . S
C92 C109 1.394 1_554 S
C93 C92 1.397 . S
C93 C94 1.438 . S
C93 C98 1.429 . S
C94 C93 1.438 . S
C94 C95 1.428 . S
C94 C107 1.394 . S
C95 H87 0.949 . S
C95 C94 1.428 . S
C95 C96 1.345 . S
C96 H88 0.950 . S
C96 C95 1.345 . S
C96 C97 1.424 . S
C97 H89 0.951 . S
C97 C96 1.424 . S
C97 C98 1.347 . S
C98 H90 0.951 . S
C98 C93 1.429 . S
C98 C97 1.347 . S
H99 C100 0.951 1_556 S
C100 H99 0.951 1_554 S
C100 C106 1.265 . S
H101 C106 0.950 . S
H102 C110 0.949 . S
H103 C111 0.950 . S
H104 C112 0.951 . S
H105 C113 0.951 . S
C106 C100 1.265 . S
C106 H101 0.950 . S
C106 C107 1.478 . S
C107 C94 1.394 . S
C107 C106 1.478 . S
C107 C108 1.397 1_554 S
C108 C107 1.397 1_556 S
C108 C109 1.438 . S
C108 C113 1.429 . S
C109 C92 1.394 1_556 S
C109 C108 1.438 . S
C109 C110 1.428 . S
C110 H102 0.949 . S
C110 C109 1.428 . S
C110 C111 1.345 . S
C111 H103 0.950 . S
C111 C110 1.345 . S
C111 C112 1.424 . S
C112 H104 0.951 . S
C112 C111 1.424 . S
C112 C113 1.347 . S
C113 H105 0.951 . S
C113 C108 1.429 . S
C113 C112 1.347 . S
H114 C115 0.951 . S
C115 H114 0.951 . S
C115 C121 1.267 . S
H116 C121 0.949 1_556 S
H117 C125 0.949 . S
H118 C126 0.950 . S
H119 C127 0.951 . S
H120 C128 0.951 . S
C121 C115 1.267 . S
C121 H116 0.949 1_554 S
C121 C122 1.477 . S
C122 C121 1.477 . S
C122 C123 1.397 1_554 S
C122 C139 1.394 . S
C123 C122 1.397 1_556 S
C123 C124 1.438 . S
C123 C128 1.429 . S
C124 C123 1.438 . S
C124 C125 1.428 . S
C124 C137 1.394 1_556 S
C125 H117 0.949 . S
C125 C124 1.428 . S
C125 C126 1.345 . S
C126 H118 0.950 . S
C126 C125 1.345 . S
C126 C127 1.424 . S
C127 H119 0.951 . S
C127 C126 1.424 . S
C127 C128 1.347 . S
C128 H120 0.951 . S
C128 C123 1.429 . S
C128 C127 1.347 . S
H129 C130 0.951 . S
C130 H129 0.951 . S
C130 C136 1.265 . S
H131 C136 0.950 . S
H132 C140 0.949 . S
H133 C141 0.950 . S
H134 C142 0.951 . S
H135 C143 0.951 . S
C136 C130 1.265 . S
C136 H131 0.950 . S
C136 C137 1.478 . S
C137 C124 1.394 1_554 S
C137 C136 1.478 . S
C137 C138 1.397 . S
C138 C137 1.397 . S
C138 C139 1.438 . S
C138 C143 1.429 . S
C139 C122 1.394 . S
C139 C138 1.438 . S
C139 C140 1.428 . S
C140 H132 0.949 . S
C140 C139 1.428 . S
C140 C141 1.345 . S
C141 H133 0.950 . S
C141 C140 1.345 . S
C141 C142 1.424 . S
C142 H134 0.951 . S
C142 C141 1.424 . S
C142 C143 1.347 . S
C143 H135 0.951 . S
C143 C138 1.429 . S
C143 C142 1.347 . S
H144 C145 0.951 . S
C145 H144 0.951 . S
C145 C151 1.265 . S
H146 C151 0.950 . S
H147 C155 0.949 . S
H148 C156 0.950 . S
H149 C157 0.951 . S
H150 C158 0.951 . S
C151 C145 1.265 . S
C151 H146 0.950 . S
C151 C152 1.478 . S
C152 C151 1.478 . S
C152 C153 1.397 . S
C152 C169 1.394 . S
C153 C152 1.397 . S
C153 C154 1.438 . S
C153 C158 1.429 . S
C154 C153 1.438 . S
C154 C155 1.428 . S
C154 C167 1.394 . S
C155 H147 0.949 . S
C155 C154 1.428 . S
C155 C156 1.345 . S
C156 H148 0.950 . S
C156 C155 1.345 . S
C156 C157 1.424 . S
C157 H149 0.951 . S
C157 C156 1.424 . S
C157 C158 1.347 . S
C158 H150 0.951 . S
C158 C153 1.429 . S
C158 C157 1.347 . S
H159 C160 0.951 . S
C160 H159 0.951 . S
C160 C166 1.265 . S
H161 C166 0.950 . S
H162 C170 0.949 . S
H163 C171 0.950 . S
H164 C172 0.951 . S
H165 C173 0.951 . S
C166 C160 1.265 . S
C166 H161 0.950 . S
C166 C167 1.478 . S
C167 C154 1.394 . S
C167 C166 1.478 . S
C167 C168 1.397 . S
C168 C167 1.397 . S
C168 C169 1.438 . S
C168 C173 1.429 . S
C169 C152 1.394 . S
C169 C168 1.438 . S
C169 C170 1.428 . S
C170 H162 0.949 . S
C170 C169 1.428 . S
C170 C171 1.345 . S
C171 H163 0.950 . S
C171 C170 1.345 . S
C171 C172 1.424 . S
C172 H164 0.951 . S
C172 C171 1.424 . S
C172 C173 1.347 . S
C173 H165 0.951 . S
C173 C168 1.429 . S
C173 C172 1.347 . S
H174 C175 0.951 . S
C175 H174 0.951 . S
C175 C181 1.265 . S
H176 C181 0.950 . S
H177 C185 0.949 . S
H178 C186 0.950 . S
H179 C187 0.951 . S
H180 C188 0.951 . S
C181 C175 1.265 . S
C181 H176 0.950 . S
C181 C182 1.478 . S
C182 C181 1.478 . S
C182 C183 1.397 . S
C182 C199 1.394 . S
C183 C182 1.397 . S
C183 C184 1.438 . S
C183 C188 1.429 . S
C184 C183 1.438 . S
C184 C185 1.428 . S
C184 C197 1.394 . S
C185 H177 0.949 . S
C185 C184 1.428 . S
C185 C186 1.345 . S
C186 H178 0.950 . S
C186 C185 1.345 . S
C186 C187 1.424 . S
C187 H179 0.951 . S
C187 C186 1.424 . S
C187 C188 1.347 . S
C188 H180 0.951 . S
C188 C183 1.429 . S
C188 C187 1.347 . S
H189 C190 0.951 . S
C190 H189 0.951 . S
C190 C196 1.265 . S
H191 C196 0.950 . S
H192 C200 0.949 . S
H193 C201 0.950 . S
H194 C202 0.951 . S
H195 C203 0.951 . S
C196 C190 1.265 . S
C196 H191 0.950 . S
C196 C197 1.478 . S
C197 C184 1.394 . S
C197 C196 1.478 . S
C197 C198 1.397 . S
C198 C197 1.397 . S
C198 C199 1.438 . S
C198 C203 1.429 . S
C199 C182 1.394 . S
C199 C198 1.438 . S
C199 C200 1.428 . S
C200 H192 0.949 . S
C200 C199 1.428 . S
C200 C201 1.345 . S
C201 H193 0.950 . S
C201 C200 1.345 . S
C201 C202 1.424 . S
C202 H194 0.951 . S
C202 C201 1.424 . S
C202 C203 1.347 . S
C203 H195 0.951 . S
C203 C198 1.429 . S
C203 C202 1.347 . S
H204 C205 0.951 1_556 S
C205 H204 0.951 1_554 S
C205 C211 1.265 . S
H206 C211 0.950 . S
H207 C215 0.949 . S
H208 C216 0.950 . S
H209 C217 0.951 . S
H210 C218 0.951 . S
C211 C205 1.265 . S
C211 H206 0.950 . S
C211 C212 1.478 . S
C212 C211 1.478 . S
C212 C213 1.397 1_545 S
C212 C229 1.394 1_554 S
C213 C212 1.397 1_565 S
C213 C214 1.438 . S
C213 C218 1.429 . S
C214 C213 1.438 . S
C214 C215 1.428 . S
C214 C227 1.394 . S
C215 H207 0.949 . S
C215 C214 1.428 . S
C215 C216 1.345 . S
C216 H208 0.950 . S
C216 C215 1.345 . S
C216 C217 1.424 . S
C217 H209 0.951 . S
C217 C216 1.424 . S
C217 C218 1.347 . S
C218 H210 0.951 . S
C218 C213 1.429 . S
C218 C217 1.347 . S
H219 C220 0.951 1_545 S
C220 H219 0.951 1_565 S
C220 C226 1.265 1_554 S
H221 C226 0.950 . S
H222 C230 0.949 . S
H223 C231 0.950 . S
H224 C232 0.951 . S
H225 C233 0.951 . S
C226 C220 1.265 1_556 S
C226 H221 0.950 . S
C226 C227 1.478 1_556 S
C227 C214 1.394 . S
C227 C226 1.478 1_554 S
C227 C228 1.397 1_564 S
C228 C227 1.397 1_546 S
C228 C229 1.438 . S
C228 C233 1.429 . S
C229 C212 1.394 1_556 S
C229 C228 1.438 . S
C229 C230 1.428 . S
C230 H222 0.949 . S
C230 C229 1.428 . S
C230 C231 1.345 . S
C231 H223 0.950 . S
C231 C230 1.345 . S
C231 C232 1.424 . S
C232 H224 0.951 . S
C232 C231 1.424 . S
C232 C233 1.347 . S
C233 H225 0.951 . S
C233 C228 1.429 . S
C233 C232 1.347 . S
H234 C235 0.951 1_545 S
C235 H234 0.951 1_565 S
C235 C241 1.265 . S
H236 C241 0.950 . S
H237 C245 0.949 . S
H238 C246 0.950 . S
H239 C247 0.951 . S
H240 C248 0.951 . S
C241 C235 1.265 . S
C241 H236 0.950 . S
C241 C242 1.478 . S
C242 C241 1.478 . S
C242 C243 1.397 . S
C242 C259 1.394 1_565 S
C243 C242 1.397 . S
C243 C244 1.438 1_565 S
C243 C248 1.429 . S
C244 C243 1.438 1_545 S
C244 C245 1.428 . S
C244 C257 1.394 . S
C245 H237 0.949 . S
C245 C244 1.428 . S
C245 C246 1.345 1_545 S
C246 H238 0.950 . S
C246 C245 1.345 1_565 S
C246 C247 1.424 . S
C247 H239 0.951 . S
C247 C246 1.424 . S
C247 C248 1.347 . S
C248 H240 0.951 . S
C248 C243 1.429 . S
C248 C247 1.347 . S
H249 C250 0.951 1_565 S
C250 H249 0.951 1_545 S
C250 C256 1.265 . S
H251 C256 0.950 . S
H252 C260 0.949 . S
H253 C261 0.950 . S
H254 C262 0.951 . S
H255 C263 0.951 . S
C256 C250 1.265 . S
C256 H251 0.950 . S
C256 C257 1.478 . S
C257 C244 1.394 . S
C257 C256 1.478 . S
C257 C258 1.397 . S
C258 C257 1.397 . S
C258 C259 1.438 . S
C258 C263 1.429 . S
C259 C242 1.394 1_545 S
C259 C258 1.438 . S
C259 C260 1.428 . S
C260 H252 0.949 . S
C260 C259 1.428 . S
C260 C261 1.345 . S
C261 H253 0.950 . S
C261 C260 1.345 . S
C261 C262 1.424 . S
C262 H254 0.951 . S
C262 C261 1.424 . S
C262 C263 1.347 . S
C263 H255 0.951 . S
C263 C258 1.429 . S
C263 C262 1.347 . S
H264 C265 0.951 . S
C265 H264 0.951 . S
C265 C271 1.265 . S
H266 C271 0.950 . S
H267 C275 0.949 . S
H268 C276 0.950 . S
H269 C277 0.951 . S
H270 C278 0.951 1_655 S
C271 C265 1.265 . S
C271 H266 0.950 . S
C271 C272 1.478 . S
C272 C271 1.478 . S
C272 C273 1.397 1_655 S
C272 C289 1.394 1_554 S
C273 C272 1.397 1_455 S
C273 C274 1.438 . S
C273 C278 1.429 . S
C274 C273 1.438 . S
C274 C275 1.428 . S
C274 C287 1.394 . S
C275 H267 0.949 . S
C275 C274 1.428 . S
C275 C276 1.345 . S
C276 H268 0.950 . S
C276 C275 1.345 . S
C276 C277 1.424 . S
C277 H269 0.951 . S
C277 C276 1.424 . S
C277 C278 1.347 . S
C278 H270 0.951 1_455 S
C278 C273 1.429 . S
C278 C277 1.347 . S
H279 C280 0.951 . S
C280 H279 0.951 . S
C280 C286 1.265 . S
H281 C286 0.950 1_556 S
H282 C290 0.949 . S
H283 C291 0.950 . S
H284 C292 0.951 1_455 S
H285 C293 0.951 . S
C286 C280 1.265 . S
C286 H281 0.950 1_554 S
C286 C287 1.478 . S
C287 C274 1.394 . S
C287 C286 1.478 . S
C287 C288 1.397 1_554 S
C288 C287 1.397 1_556 S
C288 C289 1.438 1_455 S
C288 C293 1.429 . S
C289 C272 1.394 1_556 S
C289 C288 1.438 1_655 S
C289 C290 1.428 . S
C290 H282 0.949 . S
C290 C289 1.428 . S
C290 C291 1.345 . S
C291 H283 0.950 . S
C291 C290 1.345 . S
C291 C292 1.424 . S
C292 H284 0.951 1_655 S
C292 C291 1.424 . S
C292 C293 1.347 1_655 S
C293 H285 0.951 . S
C293 C288 1.429 . S
C293 C292 1.347 1_455 S
H294 C295 0.951 . S
C295 H294 0.951 . S
C295 C301 1.265 . S
H296 C301 0.950 . S
H297 C305 0.949 . S
H298 C306 0.950 . S
H299 C307 0.951 . S
H300 C308 0.951 . S
C301 C295 1.265 . S
C301 H296 0.950 . S
C301 C302 1.478 . S
C302 C301 1.478 . S
C302 C303 1.397 . S
C302 C319 1.394 . S
C303 C302 1.397 . S
C303 C304 1.438 1_455 S
C303 C308 1.429 . S
C304 C303 1.438 1_655 S
C304 C305 1.428 . S
C304 C317 1.394 . S
C305 H297 0.949 . S
C305 C304 1.428 . S
C305 C306 1.345 . S
C306 H298 0.950 . S
C306 C305 1.345 . S
C306 C307 1.424 . S
C307 H299 0.951 . S
C307 C306 1.424 . S
C307 C308 1.347 1_655 S
C308 H300 0.951 . S
C308 C303 1.429 . S
C308 C307 1.347 1_455 S
H309 C310 0.951 . S
C310 H309 0.951 . S
C310 C316 1.265 . S
H311 C316 0.950 . S
H312 C320 0.949 . S
H313 C321 0.950 . S
H314 C322 0.951 . S
H315 C323 0.951 . S
C316 C310 1.265 . S
C316 H311 0.950 . S
C316 C317 1.478 . S
C317 C304 1.394 . S
C317 C316 1.478 . S
C317 C318 1.397 . S
C318 C317 1.397 . S
C318 C319 1.438 1_655 S
C318 C323 1.429 . S
C319 C302 1.394 . S
C319 C318 1.438 1_455 S
C319 C320 1.428 . S
C320 H312 0.949 . S
C320 C319 1.428 . S
C320 C321 1.345 . S
C321 H313 0.950 . S
C321 C320 1.345 . S
C321 C322 1.424 . S
C322 H314 0.951 . S
C322 C321 1.424 . S
C322 C323 1.347 1_455 S
C323 H315 0.951 . S
C323 C318 1.429 . S
C323 C322 1.347 1_655 S
H324 C325 0.951 1_655 S
C325 H324 0.951 1_455 S
C325 C331 1.265 . S
H326 C331 0.949 1_565 S
H327 C335 0.949 . S
H328 C336 0.950 . S
H329 C337 0.951 . S
H330 C338 0.951 . S
C331 C325 1.265 . S
C331 H326 0.949 1_545 S
C331 C332 1.478 . S
C332 C331 1.478 . S
C332 C333 1.397 1_545 S
C332 C349 1.394 1_455 S
C333 C332 1.397 1_565 S
C333 C334 1.438 . S
C333 C338 1.429 . S
C334 C333 1.438 . S
C334 C335 1.428 . S
C334 C347 1.392 1_465 S
C335 H327 0.949 . S
C335 C334 1.428 . S
C335 C336 1.345 . S
C336 H328 0.950 . S
C336 C335 1.345 . S
C336 C337 1.424 . S
C337 H329 0.951 . S
C337 C336 1.424 . S
C337 C338 1.347 . S
C338 H330 0.951 . S
C338 C333 1.429 . S
C338 C337 1.347 . S
H339 C340 0.951 . S
C340 H339 0.951 . S
C340 C346 1.265 1_455 S
H341 C346 0.950 . S
H342 C350 0.949 . S
H343 C351 0.950 . S
H344 C352 0.951 . S
H345 C353 0.951 . S
C346 C340 1.265 1_655 S
C346 H341 0.950 . S
C346 C347 1.478 . S
C347 C334 1.392 1_645 S
C347 C346 1.478 . S
C347 C348 1.399 . S
C348 C347 1.399 . S
C348 C349 1.438 . S
C348 C353 1.429 . S
C349 C332 1.394 1_655 S
C349 C348 1.438 . S
C349 C350 1.428 . S
C350 H342 0.949 . S
C350 C349 1.428 . S
C350 C351 1.345 . S
C351 H343 0.950 . S
C351 C350 1.345 . S
C351 C352 1.424 . S
C352 H344 0.951 . S
C352 C351 1.424 . S
C352 C353 1.347 . S
C353 H345 0.951 . S
C353 C348 1.429 . S
C353 C352 1.347 . S
H354 C355 0.951 . S
C355 H354 0.951 . S
C355 C361 1.265 1_455 S
H356 C361 0.950 . S
H357 C365 0.949 . S
H358 C366 0.950 . S
H359 C367 0.951 . S
H360 C368 0.951 . S
C361 C355 1.265 1_655 S
C361 H356 0.950 . S
C361 C362 1.478 . S
C362 C361 1.478 . S
C362 C363 1.397 1_565 S
C362 C379 1.394 1_655 S
C363 C362 1.397 1_545 S
C363 C364 1.438 . S
C363 C368 1.429 . S
C364 C363 1.438 . S
C364 C365 1.428 . S
C364 C377 1.394 1_645 S
C365 H357 0.949 . S
C365 C364 1.428 . S
C365 C366 1.345 . S
C366 H358 0.950 . S
C366 C365 1.345 . S
C366 C367 1.424 . S
C367 H359 0.951 . S
C367 C366 1.424 . S
C367 C368 1.347 . S
C368 H360 0.951 . S
C368 C363 1.429 . S
C368 C367 1.347 . S
H369 C370 0.951 1_655 S
C370 H369 0.951 1_455 S
C370 C376 1.265 . S
H371 C376 0.950 . S
H372 C380 0.949 . S
H373 C381 0.950 . S
H374 C382 0.951 . S
H375 C383 0.951 . S
C376 C370 1.265 . S
C376 H371 0.950 . S
C376 C377 1.478 . S
C377 C364 1.394 1_465 S
C377 C376 1.478 . S
C377 C378 1.397 . S
C378 C377 1.397 . S
C378 C379 1.438 . S
C378 C383 1.429 . S
C379 C362 1.394 1_455 S
C379 C378 1.438 . S
C379 C380 1.428 . S
C380 H372 0.949 . S
C380 C379 1.428 . S
C380 C381 1.345 . S
C381 H373 0.950 . S
C381 C380 1.345 . S
C381 C382 1.424 . S
C382 H374 0.951 . S
C382 C381 1.424 . S
C382 C383 1.347 . S
C383 H375 0.951 . S
C383 C378 1.429 . S
C383 C382 1.347 . S
H384 C385 0.951 . S
C385 H384 0.951 . S
C385 C391 1.265 . S
H386 C391 0.950 . S
H387 C395 0.949 . S
H388 C396 0.950 . S
H389 C397 0.951 . S
H390 C398 0.951 . S
C391 C385 1.265 . S
C391 H386 0.950 . S
C391 C392 1.478 . S
C392 C391 1.478 . S
C392 C393 1.397 . S
C392 C409 1.394 . S
C393 C392 1.397 . S
C393 C394 1.438 . S
C393 C398 1.429 . S
C394 C393 1.438 . S
C394 C395 1.428 . S
C394 C407 1.394 . S
C395 H387 0.949 . S
C395 C394 1.428 . S
C395 C396 1.345 . S
C396 H388 0.950 . S
C396 C395 1.345 . S
C396 C397 1.424 . S
C397 H389 0.951 . S
C397 C396 1.424 . S
C397 C398 1.347 . S
C398 H390 0.951 . S
C398 C393 1.429 . S
C398 C397 1.347 . S
H399 C400 0.951 . S
C400 H399 0.951 . S
C400 C406 1.265 . S
H401 C406 0.950 . S
H402 C410 0.949 . S
H403 C411 0.950 . S
H404 C412 0.951 . S
H405 C413 0.951 . S
C406 C400 1.265 . S
C406 H401 0.950 . S
C406 C407 1.478 . S
C407 C394 1.394 . S
C407 C406 1.478 . S
C407 C408 1.397 . S
C408 C407 1.397 . S
C408 C409 1.438 . S
C408 C413 1.429 . S
C409 C392 1.394 . S
C409 C408 1.438 . S
C409 C410 1.428 . S
C410 H402 0.949 . S
C410 C409 1.428 . S
C410 C411 1.345 . S
C411 H403 0.950 . S
C411 C410 1.345 . S
C411 C412 1.424 . S
C412 H404 0.951 . S
C412 C411 1.424 . S
C412 C413 1.347 . S
C413 H405 0.951 . S
C413 C408 1.429 . S
C413 C412 1.347 . S
H414 C415 0.951 . S
C415 H414 0.951 . S
C415 C421 1.265 . S
H416 C421 0.950 . S
H417 C425 0.949 . S
H418 C426 0.950 . S
H419 C427 0.951 . S
H420 C428 0.951 . S
C421 C415 1.265 . S
C421 H416 0.950 . S
C421 C422 1.478 . S
C422 C421 1.478 . S
C422 C423 1.397 . S
C422 C439 1.394 . S
C423 C422 1.397 . S
C423 C424 1.438 . S
C423 C428 1.429 . S
C424 C423 1.438 . S
C424 C425 1.428 . S
C424 C437 1.394 . S
C425 H417 0.949 . S
C425 C424 1.428 . S
C425 C426 1.345 . S
C426 H418 0.950 . S
C426 C425 1.345 . S
C426 C427 1.424 . S
C427 H419 0.951 . S
C427 C426 1.424 . S
C427 C428 1.347 . S
C428 H420 0.951 . S
C428 C423 1.429 . S
C428 C427 1.347 . S
H429 C430 0.951 . S
C430 H429 0.951 . S
C430 C436 1.265 . S
H431 C436 0.950 . S
H432 C440 0.949 . S
H433 C441 0.950 . S
H434 C442 0.951 . S
H435 C443 0.951 . S
C436 C430 1.265 . S
C436 H431 0.950 . S
C436 C437 1.478 . S
C437 C424 1.394 . S
C437 C436 1.478 . S
C437 C438 1.397 . S
C438 C437 1.397 . S
C438 C439 1.438 . S
C438 C443 1.429 . S
C439 C422 1.394 . S
C439 C438 1.438 . S
C439 C440 1.428 . S
C440 H432 0.949 . S
C440 C439 1.428 . S
C440 C441 1.345 . S
C441 H433 0.950 . S
C441 C440 1.345 . S
C441 C442 1.424 . S
C442 H434 0.951 . S
C442 C441 1.424 . S
C442 C443 1.347 . S
C443 H435 0.951 . S
C443 C438 1.429 . S
C443 C442 1.347 . S
C85 C57 1.520 . S
C100 C14 1.524 . S
C115 C56 1.443 . S
C130 C15 1.415 . S
C145 C39 1.498 . S
C160 C80 1.496 . S
C175 C38 1.521 . S
C190 C81 1.518 . S
C205 C18 0.894 . S
C220 C17 0.920 1_554 S
C235 C35 0.827 . S
C250 C36 0.799 . S
C265 C60 0.825 . S
C280 C59 0.858 1_554 S
C295 C78 0.832 . S
C310 C77 0.865 . S
C325 C37 1.198 1_445 S
C340 C13 1.210 1_545 S
C355 C16 1.375 1_465 S
C370 C34 1.375 1_565 S
C385 C79 1.227 . S
C400 C55 1.195 . S
C415 C76 1.225 . S
C430 C58 1.231 . S
