# Generated by pormake.
# Topology lcy-e, (6)-cn, num edge types: 1
# Building blocks:
#     Node 0, Type 0, BuildingBlock: OJICUG_clean_sbu_0, # of connection points: 6
#     Node 1, Type 0, BuildingBlock: OJICUG_clean_sbu_0, # of connection points: 6
#     Node 2, Type 0, BuildingBlock: OJICUG_clean_sbu_0, # of connection points: 6
#     Node 3, Type 0, BuildingBlock: OJICUG_clean_sbu_0, # of connection points: 6
#     Node 4, Type 0, BuildingBlock: OJICUG_clean_sbu_0, # of connection points: 6
#     Node 5, Type 0, BuildingBlock: OJICUG_clean_sbu_0, # of connection points: 6
#     Node 6, Type 0, BuildingBlock: OJICUG_clean_sbu_0, # of connection points: 6
#     Node 7, Type 0, BuildingBlock: OJICUG_clean_sbu_0, # of connection points: 6
#     Node 8, Type 0, BuildingBlock: OJICUG_clean_sbu_0, # of connection points: 6
#     Node 9, Type 0, BuildingBlock: OJICUG_clean_sbu_0, # of connection points: 6
#     Node 10, Type 0, BuildingBlock: OJICUG_clean_sbu_0, # of connection points: 6
#     Node 11, Type 0, BuildingBlock: OJICUG_clean_sbu_0, # of connection points: 6
#     Edge 12, Type (0, 0), BuildingBlock: UVAHIK_clean_linker_0, # of connection points: 2
#     Edge 13, Type (0, 0), BuildingBlock: UVAHIK_clean_linker_0, # of connection points: 2
#     Edge 14, Type (0, 0), BuildingBlock: UVAHIK_clean_linker_0, # of connection points: 2
#     Edge 15, Type (0, 0), BuildingBlock: UVAHIK_clean_linker_0, # of connection points: 2
#     Edge 16, Type (0, 0), BuildingBlock: UVAHIK_clean_linker_0, # of connection points: 2
#     Edge 17, Type (0, 0), BuildingBlock: UVAHIK_clean_linker_0, # of connection points: 2
#     Edge 18, Type (0, 0), BuildingBlock: UVAHIK_clean_linker_0, # of connection points: 2
#     Edge 19, Type (0, 0), BuildingBlock: UVAHIK_clean_linker_0, # of connection points: 2
#     Edge 20, Type (0, 0), BuildingBlock: UVAHIK_clean_linker_0, # of connection points: 2
#     Edge 21, Type (0, 0), BuildingBlock: UVAHIK_clean_linker_0, # of connection points: 2
#     Edge 22, Type (0, 0), BuildingBlock: UVAHIK_clean_linker_0, # of connection points: 2
#     Edge 23, Type (0, 0), BuildingBlock: UVAHIK_clean_linker_0, # of connection points: 2
#     Edge 24, Type (0, 0), BuildingBlock: UVAHIK_clean_linker_0, # of connection points: 2
#     Edge 25, Type (0, 0), BuildingBlock: UVAHIK_clean_linker_0, # of connection points: 2
#     Edge 26, Type (0, 0), BuildingBlock: UVAHIK_clean_linker_0, # of connection points: 2
#     Edge 27, Type (0, 0), BuildingBlock: UVAHIK_clean_linker_0, # of connection points: 2
#     Edge 28, Type (0, 0), BuildingBlock: UVAHIK_clean_linker_0, # of connection points: 2
#     Edge 29, Type (0, 0), BuildingBlock: UVAHIK_clean_linker_0, # of connection points: 2
#     Edge 30, Type (0, 0), BuildingBlock: UVAHIK_clean_linker_0, # of connection points: 2
#     Edge 31, Type (0, 0), BuildingBlock: UVAHIK_clean_linker_0, # of connection points: 2
#     Edge 32, Type (0, 0), BuildingBlock: UVAHIK_clean_linker_0, # of connection points: 2
#     Edge 33, Type (0, 0), BuildingBlock: UVAHIK_clean_linker_0, # of connection points: 2
#     Edge 34, Type (0, 0), BuildingBlock: UVAHIK_clean_linker_0, # of connection points: 2
#     Edge 35, Type (0, 0), BuildingBlock: UVAHIK_clean_linker_0, # of connection points: 2
#     Edge 36, Type (0, 0), BuildingBlock: UVAHIK_clean_linker_0, # of connection points: 2
#     Edge 37, Type (0, 0), BuildingBlock: UVAHIK_clean_linker_0, # of connection points: 2
#     Edge 38, Type (0, 0), BuildingBlock: UVAHIK_clean_linker_0, # of connection points: 2
#     Edge 39, Type (0, 0), BuildingBlock: UVAHIK_clean_linker_0, # of connection points: 2
#     Edge 40, Type (0, 0), BuildingBlock: UVAHIK_clean_linker_0, # of connection points: 2
#     Edge 41, Type (0, 0), BuildingBlock: UVAHIK_clean_linker_0, # of connection points: 2
#     Edge 42, Type (0, 0), BuildingBlock: UVAHIK_clean_linker_0, # of connection points: 2
#     Edge 43, Type (0, 0), BuildingBlock: UVAHIK_clean_linker_0, # of connection points: 2
#     Edge 44, Type (0, 0), BuildingBlock: UVAHIK_clean_linker_0, # of connection points: 2
#     Edge 45, Type (0, 0), BuildingBlock: UVAHIK_clean_linker_0, # of connection points: 2
#     Edge 46, Type (0, 0), BuildingBlock: UVAHIK_clean_linker_0, # of connection points: 2
#     Edge 47, Type (0, 0), BuildingBlock: UVAHIK_clean_linker_0, # of connection points: 2
# Relax obj value: 0.285
# Max RMSD: 0.291
# Mean RMSD: 0.291
data_MOF--net-lcy-e--node1-OJICUG_clean_sbu_0--edge1-UVAHIK_clean_linker_0
_symmetry_space_group_name_H-M    P1
_symmetry_Int_Tables_number       1
_symmetry_cell_setting            triclinic
loop_
_symmetry_equiv_pos_as_xyz
'x, y, z'
_cell_length_a     47.154781
_cell_length_b     47.192415
_cell_length_c     47.141
_cell_angle_alpha  90.173115
_cell_angle_beta   90.128534
_cell_angle_gamma 90.057841
loop_
_atom_site_label
_atom_site_type_symbol
_atom_site_fract_x
_atom_site_fract_y
_atom_site_fract_z
_atom_type_partial_charge
Sc0 Sc 0.12088 0.15531 0.39825 0.0
Sc1 Sc 0.15402 0.17923 0.45874 0.0
Sc2 Sc 0.09679 0.2162 0.43033 0.0
O3 O 0.12371 0.18397 0.42954 0.0
C4 C 0.11986 0.21262 0.36688 0.0
C5 C 0.18492 0.16062 0.40466 0.0
C6 C 0.15364 0.24608 0.44988 0.0
C7 C 0.1249 0.11951 0.4523 0.0
C8 C 0.05696 0.17009 0.40598 0.0
C9 C 0.10172 0.19824 0.49572 0.0
O10 O 0.13195 0.18849 0.36903 0.0
O11 O 0.18486 0.17811 0.42506 0.0
O12 O 0.13031 0.24713 0.43623 0.0
O13 O 0.10978 0.12496 0.43046 0.0
O14 O 0.06132 0.18749 0.42604 0.0
O15 O 0.12398 0.18301 0.49334 0.0
O16 O 0.0766 0.16242 0.38939 0.0
O17 O 0.14727 0.13363 0.45838 0.0
O18 O 0.09124 0.21249 0.47531 0.0
O19 O 0.16477 0.14314 0.40174 0.0
O20 O 0.10146 0.2216 0.38474 0.0
O21 O 0.16323 0.22356 0.46102 0.0
Sc22 Sc 0.07703 0.89031 0.67712 0.0
Sc23 Sc 0.01437 0.85489 0.692 0.0
Sc24 Sc 0.03553 0.91298 0.73341 0.0
O25 O 0.04203 0.88609 0.70098 0.0
C26 C 0.10068 0.89561 0.73885 0.0
C27 C 0.07099 0.82363 0.67986 0.0
C28 C 0.01405 0.85536 0.75987 0.0
C29 C 0.03134 0.87956 0.63114 0.0
C30 C 0.06213 0.9543 0.68926 0.0
C31 C 0.97353 0.90585 0.70632 0.0
O32 O 0.10242 0.88427 0.71436 0.0
O33 O 0.04756 0.82354 0.69304 0.0
O34 O 0.02699 0.8789 0.7628 0.0
O35 O 0.05118 0.89578 0.6398 0.0
O36 O 0.04192 0.94909 0.70615 0.0
O37 O 0.97892 0.8839 0.69148 0.0
O38 O 0.07972 0.93553 0.6816 0.0
O39 O 0.01928 0.86117 0.6468 0.0
O40 O 0.9913 0.91697 0.72341 0.0
O41 O 0.08093 0.84583 0.66851 0.0
O42 O 0.07972 0.91089 0.74659 0.0
O43 O 0.00674 0.84551 0.73581 0.0
Sc44 Sc 0.40852 0.76151 0.92845 0.0
Sc45 Sc 0.35763 0.78916 0.974 0.0
Sc46 Sc 0.37587 0.82437 0.91229 0.0
O47 O 0.38024 0.79152 0.93868 0.0
C48 C 0.44004 0.81649 0.91624 0.0
C49 C 0.41402 0.7612 -0.00464 0.0
C50 C 0.3796 0.85371 0.97157 0.0
C51 C 0.35547 0.72654 0.9466 0.0
C52 C 0.37843 0.77421 0.87144 0.0
C53 C 0.31298 0.81809 0.93445 0.0
O54 O 0.44069 0.7939 0.9308 0.0
O55 O 0.39451 0.77925 -0.00023 0.0
O56 O 0.388 0.85299 0.94583 0.0
O57 O 0.37569 0.72962 0.92885 0.0
O58 O 0.36275 0.79435 0.88013 0.0
O59 O 0.3186 0.7983 0.95173 0.0
O60 O 0.40184 0.76851 0.88357 0.0
O61 O 0.3489 0.74491 0.96549 0.0
O62 O 0.33203 0.83207 0.92173 0.0
O63 O 0.41877 0.75059 0.97113 0.0
O64 O 0.41961 0.82111 0.89931 0.0
O65 O 0.36554 0.83364 0.9832 0.0
Sc66 Sc 0.44046 0.15728 0.15991 0.0
Sc67 Sc 0.48799 0.166 0.21656 0.0
Sc68 Sc 0.43496 0.11358 0.22007 0.0
O69 O 0.45462 0.14542 0.19883 0.0
C70 C 0.38322 0.14831 0.19356 0.0
C71 C 0.45454 0.2168 0.18835 0.0
C72 C 0.44722 0.15741 0.26984 0.0
C73 C 0.50693 0.1599 0.15157 0.0
C74 C 0.43336 0.08992 0.15714 0.0
C75 C 0.50027 0.10212 0.23424 0.0
O76 O 0.39774 0.1621 0.17557 0.0
O77 O 0.46887 0.20687 0.20887 0.0
O78 O 0.43213 0.13762 0.2593 0.0
O79 O 0.4823 0.15415 0.14203 0.0
O80 O 0.43588 0.08587 0.18366 0.0
O81 O 0.50916 0.12677 0.22765 0.0
O82 O 0.43285 0.11446 0.1462 0.0
O83 O 0.51158 0.16633 0.17741 0.0
O84 O 0.47427 0.09511 0.23319 0.0
O85 O 0.44583 0.20166 0.16786 0.0
O86 O 0.39351 0.12893 0.20917 0.0
O87 O 0.46826 0.16819 0.2571 0.0
Sc88 Sc 0.64223 0.26859 0.51633 0.0
Sc89 Sc 0.59787 0.25192 0.57317 0.0
Sc90 Sc 0.63997 0.31237 0.57601 0.0
O91 O 0.62672 0.27756 0.55495 0.0
C92 C 0.69687 0.29279 0.54582 0.0
C93 C 0.64152 0.20862 0.54787 0.0
C94 C 0.63814 0.26852 0.62486 0.0
C95 C 0.57893 0.24873 0.50825 0.0
C96 C 0.6315 0.33573 0.51425 0.0
C97 C 0.574 0.31128 0.58873 0.0
O98 O 0.6855 0.27376 0.53051 0.0
O99 O 0.62544 0.21566 0.5684 0.0
O100 O 0.65286 0.2866 0.61143 0.0
O101 O 0.60048 0.26172 0.49862 0.0
O102 O 0.62843 0.33907 0.54092 0.0
O103 O 0.56931 0.28719 0.57754 0.0
O104 O 0.63888 0.31225 0.50302 0.0
O105 O 0.57668 0.24163 0.53409 0.0
O106 O 0.59883 0.32017 0.59446 0.0
O107 O 0.64695 0.22457 0.52684 0.0
O108 O 0.68265 0.31003 0.56073 0.0
O109 O 0.61499 0.25842 0.61527 0.0
Sc110 Sc 0.95574 0.3912 0.75741 0.0
Sc111 Sc 0.97461 0.33752 0.80449 0.0
Sc112 Sc 0.90996 0.371 0.81034 0.0
O113 O 0.94721 0.36677 0.79053 0.0
C114 C 0.92192 0.43412 0.79411 0.0
C115 C 0.01396 0.38979 0.79268 0.0
C116 C 0.95172 0.36795 0.86004 0.0
C117 C 0.98349 0.33369 0.73757 0.0
C118 C 0.89289 0.36837 0.74681 0.0
C119 C 0.91765 0.30639 0.81004 0.0
O120 O 0.94476 0.42867 0.78113 0.0
O121 O 0.0082 0.36856 0.80834 0.0
O122 O 0.93294 0.3831 0.84788 0.0
O123 O 0.96881 0.35556 0.73182 0.0
O124 O 0.88919 0.35859 0.77173 0.0
O125 O 0.94212 0.30567 0.79896 0.0
O126 O 0.91318 0.38519 0.7404 0.0
O127 O 0.98935 0.32625 0.7628 0.0
O128 O 0.90965 0.3277 0.82429 0.0
O129 O -0.00183 0.39825 0.77243 0.0
O130 O 0.90397 0.41502 0.79988 0.0
O131 O 0.96278 0.34616 0.84832 0.0
Sc132 Sc 0.87395 0.71529 0.06112 0.0
Sc133 Sc 0.82276 0.69415 0.01195 0.0
Sc134 Sc 0.83913 0.65145 0.06857 0.0
O135 O 0.84596 0.68709 0.04672 0.0
C136 C 0.90481 0.66019 0.07833 0.0
C137 C 0.88264 0.71682 0.99353 0.0
C138 C 0.84303 0.62984 0.00719 0.0
C139 C 0.82454 0.75536 0.04058 0.0
C140 C 0.8383 0.69744 0.11539 0.0
C141 C 0.77896 0.66738 0.05192 0.0
O142 O 0.90618 0.68301 0.06416 0.0
O143 O 0.86027 0.70286 0.9872 0.0
O144 O 0.85343 0.6281 0.03215 0.0
O145 O 0.84366 0.74971 0.05883 0.0
O146 O 0.82476 0.67705 0.10371 0.0
O147 O 0.78477 0.68875 0.03687 0.0
O148 O 0.86066 0.70827 0.10459 0.0
O149 O 0.81748 0.73833 0.02087 0.0
O150 O 0.79634 0.64707 0.05323 0.0
O151 O 0.88881 0.72428 0.01884 0.0
O152 O 0.8813 0.64979 0.08633 0.0
O153 O 0.82618 0.64969 -0.00037 0.0
Sc154 Sc 0.50899 0.63478 0.26886 0.0
Sc155 Sc 0.56773 0.59056 0.26407 0.0
Sc156 Sc 0.55754 0.63291 0.32341 0.0
O157 O 0.54424 0.61859 0.28563 0.0
C158 C 0.53643 0.68841 0.29554 0.0
C159 C 0.54985 0.63143 0.21536 0.0
C160 C 0.6126 0.63431 0.2875 0.0
C161 C 0.50368 0.57121 0.251 0.0
C162 C 0.49366 0.62533 0.33456 0.0
C163 C 0.57487 0.56763 0.32504 0.0
O164 O 0.52669 0.67681 0.27325 0.0
O165 O 0.56963 0.61773 0.22741 0.0
O166 O 0.59552 0.64805 0.30321 0.0
O167 O 0.49199 0.59299 0.26197 0.0
O168 O 0.51877 0.6191 0.34246 0.0
O169 O 0.56757 0.56228 0.2996 0.0
O170 O 0.48808 0.63539 0.31002 0.0
O171 O 0.53045 0.56895 0.24773 0.0
O172 O 0.57676 0.59282 0.33466 0.0
O173 O 0.52571 0.63562 0.2265 0.0
O174 O 0.5394 0.67451 0.3183 0.0
O175 O 0.60718 0.60942 0.2784 0.0
Sc176 Sc 0.22672 0.42737 0.08508 0.0
Sc177 Sc 0.20974 0.47477 0.13905 0.0
Sc178 Sc 0.16884 0.41544 0.1278 0.0
O179 O 0.20168 0.44002 0.11676 0.0
C180 C 0.16842 0.40993 0.06206 0.0
C181 C 0.22618 0.49461 0.07738 0.0
C182 C 0.14241 0.47511 0.12621 0.0
C183 C 0.27122 0.44722 0.13097 0.0
C184 C 0.21936 0.37491 0.12339 0.0
C185 C 0.1873 0.43638 0.18719 0.0
O186 O 0.18994 0.42555 0.05791 0.0
O187 O 0.21475 0.50002 0.10126 0.0
O188 O 0.14076 0.44956 0.11717 0.0
O189 O 0.26433 0.42977 0.11142 0.0
O190 O 0.19974 0.38394 0.1396 0.0
O191 O 0.20781 0.45106 0.17814 0.0
O192 O 0.22141 0.38361 0.0979 0.0
O193 O 0.25444 0.46609 0.14057 0.0
O194 O 0.16692 0.42942 0.17119 0.0
O195 O 0.23358 0.46977 0.06986 0.0
O196 O 0.16439 0.39768 0.08565 0.0
O197 O 0.16458 0.48524 0.13845 0.0
Sc198 Sc 0.67627 0.01264 0.86692 0.0
Sc199 Sc 0.72805 0.05646 0.89595 0.0
Sc200 Sc 0.66099 0.0827 0.88131 0.0
O201 O 0.68873 0.05031 0.88223 0.0
C202 C 0.65028 0.0546 0.82514 0.0
C203 C 0.7398 0.01443 0.84491 0.0
C204 C 0.71502 0.10795 0.85374 0.0
C205 C 0.71019 -0.00371 0.92227 0.0
C206 C 0.6246 0.03503 0.90475 0.0
C207 C 0.69614 0.09825 0.93601 0.0
O208 O 0.66675 0.03353 0.82713 0.0
O209 O 0.74677 0.03593 0.85964 0.0
O210 O 0.6882 0.10478 0.85226 0.0
O211 O 0.68903 0.99184 0.90579 0.0
O212 O 0.63454 0.05958 0.91015 0.0
O213 O 0.71285 0.0773 0.93378 0.0
O214 O 0.63434 0.01886 0.88526 0.0
O215 O 0.72688 0.01746 0.91969 0.0
O216 O 0.67981 0.10578 0.91601 0.0
O217 O 0.71604 0.00211 0.84758 0.0
O218 O 0.63782 0.06332 0.84713 0.0
O219 O 0.73086 0.09529 0.87175 0.0
Sc220 Sc 0.81702 0.90316 0.35192 0.0
Sc221 Sc 0.76084 0.91547 0.39712 0.0
Sc222 Sc 0.77639 0.96292 0.34292 0.0
O223 O 0.78467 0.9277 0.36449 0.0
C224 C 0.84369 0.96266 0.35219 0.0
C225 C 0.82 0.89606 0.41767 0.0
C226 C 0.76547 0.98264 0.40589 0.0
C227 C 0.76692 0.86127 0.35821 0.0
C228 C 0.79374 0.92272 0.29428 0.0
C229 C 0.71439 0.93881 0.35535 0.0
O230 O 0.84539 0.93746 0.36186 0.0
O231 O 0.79841 0.91125 0.42265 0.0
O232 O 0.7752 0.98823 0.38128 0.0
O233 O 0.78623 0.87086 0.3419 0.0
O234 O 0.77438 0.93832 0.30432 0.0
O235 O 0.72159 0.92049 0.37378 0.0
O236 O 0.81584 0.91737 0.30852 0.0
O237 O 0.76237 0.87166 0.38286 0.0
O238 O 0.73149 0.95658 0.34461 0.0
O239 O 0.82438 0.8852 0.39342 0.0
O240 O 0.82161 0.97218 0.33955 0.0
O241 O 0.75767 0.95792 0.41335 0.0
Sc242 Sc 0.32267 0.57201 0.61997 0.0
Sc243 Sc 0.2611 0.5381 0.59677 0.0
Sc244 Sc 0.30813 0.50311 0.64232 0.0
O245 O 0.29728 0.53755 0.61946 0.0
C246 C 0.36689 0.52354 0.61537 0.0
C247 C 0.30045 0.57259 0.55608 0.0
C248 C 0.28526 0.47573 0.58552 0.0
C249 C 0.26219 0.59888 0.62681 0.0
C250 C 0.32669 0.55128 0.68378 0.0
C251 C 0.24144 0.50509 0.65169 0.0
O252 O 0.35799 0.54695 0.60545 0.0
O253 O 0.28232 0.55294 0.55914 0.0
O254 O 0.3028 0.47522 0.60613 0.0
O255 O 0.28806 0.59803 0.63464 0.0
O256 O 0.31273 0.52854 0.6802 0.0
O257 O 0.23641 0.52311 0.63231 0.0
O258 O 0.33548 0.56633 0.66336 0.0
O259 O 0.25107 0.5804 0.61047 0.0
O260 O 0.26577 0.49445 0.65582 0.0
O261 O 0.31404 0.58331 0.57673 0.0
O262 O 0.35232 0.50773 0.63161 0.0
O263 O 0.26809 0.49601 0.58113 0.0
C264 C 0.20041 0.26983 0.45383 0.0
C265 C 0.17071 0.2719 0.4538 0.0
C266 C 0.21709 0.29283 0.46203 0.0
C267 C 0.21497 0.36973 0.4801 0.0
H268 H 0.27756 0.3494 0.52956 0.0
C269 C 0.27783 0.45619 0.53721 0.0
C270 C 0.28316 0.45139 0.5661 0.0
C271 C 0.26976 0.43392 0.51947 0.0
C272 C 0.26014 0.35548 0.51588 0.0
H273 H 0.13507 0.29984 0.46087 0.0
H274 H 0.16412 0.33997 0.47627 0.0
H275 H 0.25086 0.31242 0.50552 0.0
H276 H 0.28594 0.41956 0.59891 0.0
H277 H 0.27085 0.38059 0.5682 0.0
H278 H 0.22296 0.41264 0.492 0.0
C279 C 0.17467 0.3208 0.46935 0.0
C280 C 0.24503 0.33426 0.5017 0.0
C281 C 0.15795 0.29784 0.46061 0.0
C282 C 0.28213 0.42367 0.57662 0.0
C283 C 0.2735 0.40139 0.55896 0.0
C284 C 0.22987 0.39092 0.49454 0.0
C285 C 0.20443 0.31826 0.47095 0.0
C286 C 0.22198 0.34109 0.48393 0.0
C287 C 0.26621 0.40647 0.53039 0.0
C288 C 0.2524 0.38404 0.51293 0.0
H289 H 0.21074 0.25009 0.44824 0.0
H290 H 0.23992 0.29036 0.46216 0.0
H291 H 0.19764 0.37582 0.46631 0.0
H292 H 0.2788 0.47743 0.52859 0.0
H293 H 0.26519 0.43848 0.49742 0.0
C294 C 0.75346 0.97837 0.80832 0.0
C295 C 0.75966 0.00355 0.82318 0.0
C296 C 0.77195 0.9681 0.78765 0.0
C297 C 0.83193 0.98862 0.74164 0.0
H298 H 0.85352 0.90968 0.74855 0.0
C299 C 0.94124 0.94674 0.71381 0.0
C300 C 0.94489 0.91836 0.70558 0.0
C301 C 0.91425 0.95748 0.71893 0.0
C302 C 0.84724 0.93156 0.74569 0.0
H303 H 0.78991 0.038 0.82742 0.0
H304 H 0.8224 0.01981 0.7916 0.0
H305 H 0.81446 0.92796 0.7767 0.0
H306 H 0.92307 0.87962 0.69379 0.0
H307 H 0.87554 0.89848 0.70282 0.0
H308 H 0.86553 0.99243 0.71143 0.0
C309 C 0.80303 0.00821 0.79578 0.0
C310 C 0.82491 0.94208 0.76196 0.0
C311 C 0.78458 0.01845 0.81655 0.0
C312 C 0.92085 0.90155 0.70024 0.0
C313 C 0.89371 0.91229 0.70558 0.0
C314 C 0.85422 0.97807 0.72527 0.0
C315 C 0.797 0.98283 0.78126 0.0
C316 C 0.81769 0.97093 0.76084 0.0
C317 C 0.89026 0.94004 0.71603 0.0
C318 C 0.8628 0.94967 0.72792 0.0
H319 H 0.73436 0.96641 0.81273 0.0
H320 H 0.76666 0.9486 0.77667 0.0
H321 H 0.82641 0.01082 0.73992 0.0
H322 H 0.95939 0.96031 0.71774 0.0
H323 H 0.91246 0.97886 0.72715 0.0
C324 C 0.35229 0.67412 0.95073 0.0
C325 C 0.33892 0.70024 0.94648 0.0
C326 C 0.33618 0.65021 0.95762 0.0
C327 C 0.2673 0.63454 0.99132 0.0
H328 H 0.2918 0.55693 0.98072 0.0
C329 C 0.23518 0.54603 0.06803 0.0
C330 C 0.23258 0.51818 0.05783 0.0
C331 C 0.24425 0.5677 0.05007 0.0
C332 C 0.28426 0.57841 0.98353 0.0
H333 H 0.29858 0.72179 0.94327 0.0
H334 H 0.27026 0.67982 0.9535 0.0
H335 H 0.31449 0.59455 0.95389 0.0
H336 H 0.23578 0.49148 0.0204 0.0
H337 H 0.2507 0.52942 0.98891 0.0
H338 H 0.23676 0.61844 0.02052 0.0
C339 C 0.29312 0.67779 0.95289 0.0
C340 C 0.29759 0.60007 0.96839 0.0
C341 C 0.30925 0.70175 0.94671 0.0
C342 C 0.23795 0.51269 0.029 0.0
C343 C 0.24666 0.53441 0.01096 0.0
C344 C 0.25375 0.61289 0.00612 0.0
C345 C 0.30642 0.65205 0.95987 0.0
C346 C 0.28978 0.62851 0.97264 0.0
C347 C 0.25053 0.56208 0.02141 0.0
C348 C 0.26257 0.58464 0.00304 0.0
H349 H 0.37522 0.67267 0.95091 0.0
H350 H 0.34727 0.63089 0.96304 0.0
H351 H 0.26085 0.65614 -0.00444 0.0
H352 H 0.23136 0.55091 0.09016 0.0
H353 H 0.24738 0.58863 0.05902 0.0
C354 C 0.54735 0.08868 0.2553 0.0
C355 C 0.52044 0.08074 0.24518 0.0
C356 C 0.56491 0.06871 0.26838 0.0
C357 C 0.57782 0.99209 0.27515 0.0
H358 H 0.61714 0.01449 0.34399 0.0
C359 C 0.67951 0.94088 0.31648 0.0
C360 C 0.68491 0.94074 0.34574 0.0
C361 C 0.65403 0.95156 0.30605 0.0
C362 C 0.60587 0.00768 0.32511 0.0
H363 H 0.4914 0.04532 0.23981 0.0
H364 H 0.52205 0.01071 0.26247 0.0
H365 H 0.58492 0.04767 0.32105 0.0
H366 H 0.66755 0.94944 0.38727 0.0
H367 H 0.62261 0.96831 0.36902 0.0
H368 H 0.59926 0.95227 0.27895 0.0
C369 C 0.52954 0.03231 0.26039 0.0
C370 C 0.58781 0.02688 0.31171 0.0
C371 C 0.51194 0.05223 0.2475 0.0
C372 C 0.66357 0.94908 0.36463 0.0
C373 C 0.63809 0.96013 0.35416 0.0
C374 C 0.59601 0.97292 0.28848 0.0
C375 C 0.55599 0.04042 0.27138 0.0
C376 C 0.57404 0.01949 0.2863 0.0
C377 C 0.63368 0.96268 0.32473 0.0
C378 C 0.61064 0.98071 0.31332 0.0
H379 H 0.55452 0.11044 0.25387 0.0
H380 H 0.58544 0.07545 0.27628 0.0
H381 H 0.56748 0.9858 0.25557 0.0
H382 H 0.6959 0.93473 0.3016 0.0
H383 H 0.65141 0.95339 0.28329 0.0
C384 C 0.64221 0.15687 0.53893 0.0
C385 C 0.65617 0.18137 0.54829 0.0
C386 C 0.65791 0.13302 0.531 0.0
C387 C 0.72773 0.1183 0.50087 0.0
H388 H 0.70207 0.04036 0.5039 0.0
C389 C 0.75857 0.03404 0.41777 0.0
C390 C 0.76123 0.00579 0.42663 0.0
C391 C 0.75028 0.05503 0.43704 0.0
C392 C 0.70985 0.06195 0.5032 0.0
H393 H 0.69678 0.2001 0.55865 0.0
H394 H 0.72427 0.15815 0.54576 0.0
H395 H 0.67851 0.07614 0.5328 0.0
H396 H 0.7596 0.97779 0.46308 0.0
H397 H 0.74567 0.01442 0.49661 0.0
H398 H 0.75886 0.10419 0.47104 0.0
C399 C 0.70137 0.15733 0.54402 0.0
C400 C 0.69614 0.08247 0.51956 0.0
C401 C 0.68569 0.18116 0.55172 0.0
C402 C 0.75724 -0.0007 0.45546 0.0
C403 C 0.74915 0.02025 0.47469 0.0
C404 C 0.74145 0.09778 0.48454 0.0
C405 C 0.68776 0.1335 0.5323 0.0
C406 C 0.70456 0.11097 0.51815 0.0
C407 C 0.74472 0.04817 0.46554 0.0
C408 C 0.73229 0.06948 0.48508 0.0
H409 H 0.61946 0.15694 0.53563 0.0
H410 H 0.64678 0.11511 0.52183 0.0
H411 H 0.73454 0.14013 0.49895 0.0
H412 H 0.76146 0.03968 0.39571 0.0
H413 H 0.74687 0.07633 0.42926 0.0
C414 C 0.06665 0.39111 0.79422 0.0
C415 C 0.04064 0.40527 0.79654 0.0
C416 C 0.09123 0.40639 0.7877 0.0
C417 C 0.10569 0.46747 0.74451 0.0
H418 H 0.18454 0.4526 0.76211 0.0
C419 C 0.19567 0.51464 0.67687 0.0
C420 C 0.21863 0.49659 0.67126 0.0
C421 C 0.1754 0.50717 0.69713 0.0
C422 C 0.16259 0.45686 0.75686 0.0
H423 H 0.02009 0.44626 0.7977 0.0
H424 H 0.06305 0.47297 0.78711 0.0
H425 H 0.1474 0.43304 0.79245 0.0
H426 H 0.23809 0.45634 0.68191 0.0
H427 H 0.20229 0.44281 0.71617 0.0
H428 H 0.12039 0.48975 0.70812 0.0
C429 C 0.06451 0.4502 0.78957 0.0
C430 C 0.14141 0.44582 0.77436 0.0
C431 C 0.04001 0.43497 0.79578 0.0
C432 C 0.22071 0.4708 0.68592 0.0
C433 C 0.20033 0.46318 0.70583 0.0
C434 C 0.12675 0.4782 0.72689 0.0
C435 C 0.08989 0.43589 0.7836 0.0
C436 C 0.11274 0.45067 0.76806 0.0
C437 C 0.17753 0.48134 0.71188 0.0
C438 C 0.15545 0.47256 0.73248 0.0
H439 H 0.06746 0.36817 0.79452 0.0
H440 H 0.11053 0.39481 0.78318 0.0
H441 H 0.08374 0.47108 0.73873 0.0
H442 H 0.19375 0.53482 0.66615 0.0
H443 H 0.15827 0.5218 0.70146 0.0
C444 C 0.70353 0.94892 0.94564 0.0
C445 C 0.7167 0.97563 0.94496 0.0
C446 C 0.71218 0.92855 0.96533 0.0
C447 C 0.72866 0.8915 0.01555 0.0
H448 H 0.81036 0.88209 0.01716 0.0
C449 C 0.78244 0.78477 0.02906 0.0
C450 C 0.80938 0.78271 0.0417 0.0
C451 C 0.76901 0.81086 0.02657 0.0
C452 C 0.78756 0.88477 0.01769 0.0
H453 H 0.74783 0.00256 0.96591 0.0
H454 H 0.76268 0.96713 0.00013 0.0
H455 H 0.78998 0.92362 0.99471 0.0
H456 H 0.8425 0.80607 0.0635 0.0
H457 H 0.81892 0.85219 0.05892 0.0
H458 H 0.72631 0.85194 0.03753 0.0
C459 C 0.74611 0.96174 0.9851 0.0
C460 C 0.77583 0.90858 0.0047 0.0
C461 C 0.73754 0.98203 0.96544 0.0
C462 C 0.82185 0.80711 0.05346 0.0
C463 C 0.8084 0.83345 0.05075 0.0
C464 C 0.74041 0.86771 0.02865 0.0
C465 C 0.73409 0.93453 0.98478 0.0
C466 C 0.74624 0.91171 0.00262 0.0
C467 C 0.78216 0.83564 0.0366 0.0
C468 C 0.76996 0.86357 0.02889 0.0
H469 H 0.68735 0.94332 0.93026 0.0
H470 H 0.70266 0.90767 0.96439 0.0
H471 H 0.7058 0.89362 0.01474 0.0
H472 H 0.77203 0.76626 0.02021 0.0
H473 H 0.749 0.81174 0.01527 0.0
C474 C 0.49515 0.52907 0.21961 0.0
C475 C 0.48537 0.54791 0.24062 0.0
C476 C 0.47715 0.50829 0.20838 0.0
C477 C 0.42522 0.48598 0.17525 0.0
H478 H 0.37371 0.4433 0.22283 0.0
C479 C 0.32349 0.43624 0.12904 0.0
C480 C 0.29962 0.44571 0.14412 0.0
C481 C 0.35063 0.43859 0.1411 0.0
C482 C 0.3881 0.45485 0.20921 0.0
H483 H 0.44951 0.55894 0.26716 0.0
H484 H 0.41827 0.52245 0.24782 0.0
H485 H 0.41388 0.46808 0.24432 0.0
H486 H 0.28505 0.46253 0.18442 0.0
H487 H 0.33176 0.46678 0.20512 0.0
H488 H 0.39827 0.47466 0.14044 0.0
C489 C 0.43982 0.52381 0.24002 0.0
C490 C 0.41105 0.46901 0.22152 0.0
C491 C 0.45761 0.54486 0.2509 0.0
C492 C 0.3031 0.45555 0.17204 0.0
C493 C 0.32993 0.4576 0.18411 0.0
C494 C 0.40206 0.47205 0.16295 0.0
C495 C 0.44927 0.50561 0.21836 0.0
C496 C 0.42907 0.48571 0.20481 0.0
C497 C 0.35412 0.44995 0.16855 0.0
C498 C 0.38249 0.4575 0.18002 0.0
H499 H 0.51642 0.53093 0.21121 0.0
H500 H 0.48489 0.49453 0.19168 0.0
H501 H 0.4388 0.49876 0.16189 0.0
H502 H 0.32134 0.42833 0.10755 0.0
H503 H 0.3689 0.43236 0.12869 0.0
C504 C 0.43532 0.1497 0.32105 0.0
C505 C 0.4417 0.16815 0.29866 0.0
C506 C 0.43817 0.15898 0.3492 0.0
C507 C 0.45642 0.22316 0.39337 0.0
H508 H 0.50457 0.16982 0.43315 0.0
C509 C 0.5368 0.21881 0.49607 0.0
C510 C 0.55562 0.24077 0.48874 0.0
C511 C 0.51537 0.21036 0.47739 0.0
C512 C 0.49077 0.18481 0.42259 0.0
H513 H 0.45258 0.21136 0.28774 0.0
H514 H 0.45792 0.22737 0.33615 0.0
H515 H 0.47683 0.15378 0.39266 0.0
H516 H 0.56609 0.27169 0.45648 0.0
H517 H 0.52828 0.25709 0.42392 0.0
H518 H 0.47246 0.25464 0.42215 0.0
C519 C 0.45068 0.20587 0.3326 0.0
C520 C 0.47462 0.17559 0.39947 0.0
C521 C 0.44789 0.19663 0.3047 0.0
C522 C 0.55204 0.25462 0.46265 0.0
C523 C 0.53027 0.24646 0.44416 0.0
C524 C 0.47297 0.23246 0.41619 0.0
C525 C 0.44734 0.18682 0.35522 0.0
C526 C 0.45814 0.1949 0.38382 0.0
C527 C 0.512 0.22402 0.45123 0.0
C528 C 0.49101 0.21354 0.43034 0.0
H529 H 0.43043 0.12764 0.31688 0.0
H530 H 0.43488 0.14391 0.36615 0.0
H531 H 0.44344 0.23847 0.38227 0.0
H532 H 0.53901 0.20766 0.516 0.0
H533 H 0.50157 0.19299 0.48328 0.0
C534 C 0.10319 0.20032 0.54903 0.0
C535 C 0.08773 0.20148 0.52352 0.0
C536 C 0.09087 0.2098 0.57439 0.0
C537 C 0.04078 0.26341 0.59517 0.0
H538 H 0.03933 0.22922 0.66977 0.0
C539 C 0.98222 0.31738 0.68698 0.0
C540 C 0.99456 0.31613 0.71406 0.0
C541 C 0.99288 0.30083 0.66484 0.0
C542 C 0.03989 0.23921 0.64913 0.0
H543 H 0.04647 0.2103 0.50505 0.0
H544 H 0.02524 0.22673 0.54904 0.0
H545 H 0.05976 0.20301 0.62978 0.0
H546 H 0.02775 0.29653 0.73921 0.0
H547 H 0.04697 0.2685 0.70039 0.0
H548 H 0.02198 0.29987 0.61411 0.0
C549 C 0.04692 0.21913 0.54941 0.0
C550 C 0.05148 0.22412 0.62631 0.0
C551 C 0.05911 0.20972 0.52427 0.0
C552 C 0.01767 0.29787 0.71858 0.0
C553 C 0.02859 0.28162 0.69635 0.0
C554 C 0.0296 0.27858 0.6179 0.0
C555 C 0.06303 0.22044 0.5744 0.0
C556 C 0.05166 0.23603 0.59909 0.0
C557 C 0.01642 0.28299 0.66915 0.0
C558 C 0.0287 0.26661 0.64514 0.0
H559 H 0.12527 0.19402 0.54904 0.0
H560 H 0.10365 0.21058 0.5935 0.0
H561 H 0.04121 0.27327 0.57444 0.0
H562 H 0.96416 0.33096 0.68293 0.0
H563 H 0.98255 0.30198 0.64434 0.0
C564 C 0.98904 0.81451 0.78229 0.0
C565 C 0.00622 0.83873 0.78529 0.0
C566 C 0.98029 0.79929 0.80596 0.0
C567 C 0.96853 0.80743 0.88256 0.0
H568 H 0.95768 0.72597 0.87882 0.0
C569 C 0.89628 0.71932 0.94203 0.0
C570 C 0.90168 0.72645 0.97052 0.0
C571 C 0.91293 0.73072 0.92035 0.0
C572 C 0.96057 0.74871 0.8801 0.0
H573 H 0.02837 0.8654 0.81567 0.0
H574 H 0.01338 0.83841 0.8572 0.0
H575 H 0.98099 0.75042 0.8397 0.0
H576 H 0.92972 0.75023 -0.00147 0.0
H577 H 0.95846 0.77003 0.96075 0.0
H578 H 0.94797 0.80568 0.92291 0.0
C579 C 0.00632 0.83156 0.8364 0.0
C580 C 0.97386 0.76275 0.85773 0.0
C581 C 0.01499 0.84696 0.81261 0.0
C582 C 0.92474 0.74438 0.97685 0.0
C583 C 0.94121 0.75587 0.95522 0.0
C584 C 0.95548 0.79336 0.90502 0.0
C585 C 0.98862 0.80769 0.83333 0.0
C586 C 0.97749 0.79236 0.85844 0.0
C587 C 0.93517 0.74956 0.92675 0.0
C588 C 0.95095 0.76394 0.9038 0.0
H589 H 0.98173 0.80751 0.76162 0.0
H590 H 0.96624 0.78138 0.80279 0.0
H591 H 0.97057 0.83027 0.88365 0.0
H592 H 0.87877 0.70552 0.93639 0.0
H593 H 0.90773 0.72563 0.89853 0.0
C594 C 0.54477 0.63306 0.16327 0.0
C595 C 0.55493 0.6455 0.1883 0.0
C596 C 0.53973 0.64981 0.13942 0.0
C597 C 0.51127 0.71832 0.12762 0.0
H598 H 0.51941 0.69962 0.048 0.0
C599 C 0.44165 0.7703 0.04014 0.0
C600 C 0.43258 0.75173 0.01864 0.0
C601 C 0.46221 0.76155 0.05979 0.0
C602 C 0.51682 0.70507 0.07017 0.0
H603 H 0.56988 0.68421 0.20791 0.0
H604 H 0.56054 0.71378 0.16628 0.0
H605 H 0.5492 0.6759 0.08303 0.0
H606 H 0.4366 0.7092 0.0016 0.0
H607 H 0.47113 0.69365 0.03625 0.0
H608 H 0.47745 0.74579 0.11522 0.0
C609 C 0.55683 0.69115 0.16491 0.0
C610 C 0.5341 0.69169 0.09011 0.0
C611 C 0.56231 0.67429 0.18858 0.0
C612 C 0.44349 0.72409 0.01776 0.0
C613 C 0.4636 0.71529 0.03744 0.0
C614 C 0.49366 0.73139 0.10772 0.0
C615 C 0.54422 0.67925 0.14064 0.0
C616 C 0.53087 0.69758 0.11907 0.0
C617 C 0.47373 0.73403 0.05833 0.0
C618 C 0.4955 0.7241 0.07887 0.0
H619 H 0.53843 0.61098 0.16295 0.0
H620 H 0.52976 0.64018 0.12104 0.0
H621 H 0.50813 0.72298 0.14991 0.0
H622 H 0.43371 0.79182 0.04107 0.0
H623 H 0.46954 0.77652 0.07564 0.0
C624 C 0.1129 0.25666 0.33883 0.0
C625 C 0.12973 0.233 0.3453 0.0
C626 C 0.12425 0.27947 0.32402 0.0
C627 C 0.18245 0.30359 0.27848 0.0
H628 H 0.1609 0.37692 0.30907 0.0
C629 C 0.21339 0.40692 0.22215 0.0
C630 C 0.18895 0.42227 0.21486 0.0
C631 C 0.2121 0.38601 0.24312 0.0
C632 C 0.1673 0.35661 0.30044 0.0
H633 H 0.17115 0.21387 0.33959 0.0
H634 H 0.19106 0.25397 0.31344 0.0
H635 H 0.14614 0.3338 0.33326 0.0
H636 H 0.1449 0.42983 0.22507 0.0
H637 H 0.14283 0.39428 0.26232 0.0
H638 H 0.20287 0.32656 0.24511 0.0
C639 C 0.16907 0.25478 0.31999 0.0
C640 C 0.15869 0.33193 0.31413 0.0
C641 C 0.15762 0.23177 0.33481 0.0
C642 C 0.16406 0.41842 0.23058 0.0
C643 C 0.16292 0.39802 0.25185 0.0
C644 C 0.19115 0.32838 0.26477 0.0
C645 C 0.15276 0.27928 0.31543 0.0
C646 C 0.16525 0.30516 0.30272 0.0
C647 C 0.18651 0.38071 0.25741 0.0
C648 C 0.18281 0.35509 0.27512 0.0
H649 H 0.09125 0.25813 0.34634 0.0
H650 H 0.11088 0.29768 0.32001 0.0
H651 H 0.18789 0.28327 0.26926 0.0
H652 H 0.2327 0.40923 0.20995 0.0
H653 H 0.2306 0.37302 0.24709 0.0
C654 C 0.01454 0.85943 0.58558 0.0
C655 C 0.0195 0.88329 0.60263 0.0
C656 C -0.003 0.86134 0.56182 0.0
C657 C 0.95466 0.91177 0.51742 0.0
H658 H 0.90481 0.84658 0.51086 0.0
C659 C 0.84578 0.91379 0.46052 0.0
C660 C 0.84199 0.89274 0.4397 0.0
C661 C 0.86894 0.91267 0.47901 0.0
C662 C 0.9187 0.86482 0.51234 0.0
H663 H 0.01151 0.92812 0.60782 0.0
H664 H 0.97976 0.93142 0.56703 0.0
H665 H 0.94447 0.84522 0.54379 0.0
H666 H 0.85884 0.85356 0.4225 0.0
H667 H 0.89877 0.85112 0.45557 0.0
H668 H 0.92758 0.93169 0.48676 0.0
C669 C 0.98999 0.91134 0.57126 0.0
C670 C 0.94167 0.86402 0.531 0.0
C671 C 0.00819 0.90954 0.59465 0.0
C672 C 0.8612 0.87003 0.43838 0.0
C673 C 0.88403 0.86864 0.45723 0.0
C674 C 0.93132 0.91271 0.49909 0.0
C675 C 0.98327 0.88697 0.55523 0.0
C676 C 0.95998 0.88748 0.53385 0.0
C677 C 0.88835 0.89021 0.47735 0.0
C678 C 0.91315 0.88926 0.49649 0.0
H679 H 0.02318 0.83898 0.59143 0.0
H680 H 0.99316 0.84235 0.54944 0.0
H681 H 0.96844 0.93008 0.51872 0.0
H682 H 0.83149 0.93171 0.46182 0.0
H683 H 0.87175 0.92939 0.49457 0.0
C684 C 0.3065 0.56859 0.72928 0.0
C685 C 0.33033 0.56328 0.71229 0.0
C686 C 0.30835 0.58777 0.75193 0.0
C687 C 0.35858 0.62864 0.79654 0.0
H688 H 0.30624 0.69123 0.78629 0.0
C689 C 0.38836 0.73886 0.8338 0.0
C690 C 0.36837 0.75418 0.84961 0.0
C691 C 0.3803 0.7147 0.81883 0.0
C692 C 0.32071 0.67377 0.78973 0.0
H693 H 0.37505 0.57174 0.70661 0.0
H694 H 0.37863 0.60431 0.74661 0.0
H695 H 0.29829 0.64664 0.76083 0.0
H696 H 0.3239 0.75741 0.8607 0.0
H697 H 0.30966 0.7149 0.83419 0.0
H698 H 0.38151 0.65587 0.82469 0.0
C699 C 0.3585 0.59398 0.74254 0.0
C700 C 0.3161 0.6482 0.77532 0.0
C701 C 0.35651 0.57533 0.71968 0.0
C702 C 0.33968 0.74613 0.8484 0.0
C703 C 0.33159 0.7217 0.83345 0.0
C704 C 0.36315 0.65407 0.81094 0.0
C705 C 0.3342 0.60136 0.7581 0.0
C706 C 0.33554 0.62575 0.77788 0.0
C707 C 0.35209 0.70514 0.81952 0.0
C708 C 0.34487 0.67725 0.80688 0.0
H709 H 0.28599 0.55985 0.7236 0.0
H710 H 0.28936 0.59304 0.7637 0.0
H711 H 0.37368 0.61155 0.79916 0.0
H712 H 0.41059 0.74472 0.83424 0.0
H713 H 0.39642 0.70286 0.80754 0.0
C714 C 0.55906 0.16443 0.14171 0.0
C715 C 0.53139 0.15873 0.13193 0.0
C716 C 0.58217 0.1628 0.12327 0.0
C717 C 0.60005 0.16327 0.04709 0.0
H718 H 0.66806 0.12333 0.07031 0.0
C719 C 0.68992 0.0954 0.98833 0.0
C720 C 0.69182 0.11195 0.96373 0.0
C721 C 0.67713 0.10642 0.01271 0.0
C722 C 0.64928 0.13466 0.06356 0.0
H723 H 0.50645 0.14683 0.09499 0.0
H724 H 0.54669 0.14375 0.06304 0.0
H725 H 0.63013 0.13151 0.10461 0.0
H726 H 0.68546 0.15382 0.94621 0.0
H727 H 0.66448 0.17354 0.98913 0.0
H728 H 0.61805 0.16503 0.00577 0.0
C729 C 0.55047 0.1499 0.08487 0.0
C730 C 0.62765 0.13954 0.08325 0.0
C731 C 0.5274 0.1515 0.10327 0.0
C732 C 0.68388 0.14057 0.96487 0.0
C733 C 0.67164 0.15174 0.98936 0.0
C734 C 0.62152 0.15833 0.02745 0.0
C735 C 0.57811 0.15554 0.09465 0.0
C736 C 0.60249 0.15322 0.07497 0.0
C737 C 0.66644 0.13428 0.01291 0.0
C738 C 0.64614 0.14339 0.03522 0.0
H739 H 0.56296 0.17008 0.16366 0.0
H740 H 0.60319 0.16745 0.13137 0.0
H741 H 0.58114 0.17432 0.04019 0.0
H742 H 0.69576 0.07321 0.98789 0.0
H743 H 0.67346 0.09231 0.03039 0.0
C744 C 0.67715 0.24634 0.65287 0.0
C745 C 0.64907 0.25617 0.6513 0.0
C746 C 0.68534 0.22806 0.67476 0.0
C747 C 0.66324 0.19861 0.74401 0.0
H748 H 0.6874 0.12612 0.71344 0.0
C749 C 0.63277 0.09581 0.79768 0.0
C750 C 0.65341 0.07476 0.80145 0.0
C751 C 0.63814 0.11908 0.78042 0.0
C752 C 0.68122 0.14633 0.72244 0.0
H753 H 0.60827 0.25671 0.67221 0.0
H754 H 0.62268 0.2257 0.7108 0.0
H755 H 0.68857 0.16828 0.68341 0.0
H756 H 0.69549 0.06091 0.78903 0.0
H757 H 0.70472 0.10169 0.75833 0.0
H758 H 0.65473 0.17653 0.78261 0.0
C759 C 0.63836 0.23178 0.6952 0.0
C760 C 0.682 0.17049 0.70531 0.0
C761 C 0.63006 0.24947 0.67309 0.0
C762 C 0.67897 0.07659 0.78619 0.0
C763 C 0.68439 0.10004 0.76885 0.0
C764 C 0.66253 0.17455 0.7611 0.0
C765 C 0.66571 0.21997 0.69564 0.0
C766 C 0.67185 0.19658 0.7156 0.0
C767 C 0.66433 0.12192 0.76655 0.0
C768 C 0.67026 0.14795 0.75007 0.0
H769 H 0.69207 0.25098 0.63606 0.0
H770 H 0.70655 0.21927 0.67469 0.0
H771 H 0.65567 0.21854 0.75256 0.0
H772 H 0.61289 0.09494 0.80913 0.0
H773 H 0.62196 0.13523 0.7784 0.0
C774 C 0.12786 0.38381 0.04035 0.0
C775 C 0.14627 0.40719 0.04006 0.0
C776 C 0.10429 0.38294 0.02247 0.0
C777 C 0.0722 0.41592 0.95872 0.0
H778 H 0.0042 0.38022 0.98813 0.0
C779 C 0.97064 0.40589 0.89165 0.0
C780 C 0.96391 0.3772 0.88728 0.0
C781 C 0.98897 0.41378 0.91367 0.0
C782 C 0.02297 0.39047 0.97979 0.0
H783 H 0.15484 0.44778 0.02047 0.0
H784 H 0.11322 0.44661 0.98957 0.0
H785 H 0.04567 0.38557 0.01871 0.0
H786 H 0.96886 0.33464 0.9036 0.0
H787 H -2e-05 0.34854 0.94268 0.0
H788 H 0.04925 0.42072 0.91976 0.0
C789 C 0.11727 0.42866 0.00323 0.0
C790 C 0.04685 0.39327 -0.00287 0.0
C791 C 0.14117 0.42932 0.02087 0.0
C792 C 0.97371 0.3569 0.90664 0.0
C793 C 0.99146 0.36485 0.92897 0.0
C794 C 0.04814 0.41349 0.94152 0.0
C795 C 0.09824 0.40567 0.00422 0.0
C796 C 0.07205 0.40527 0.98655 0.0
C797 C 0.0002 0.39316 0.93195 0.0
C798 C 0.02359 0.40011 0.9517 0.0
H799 H 0.13139 0.36635 0.05481 0.0
H800 H 0.09065 0.36448 0.02321 0.0
H801 H 0.09123 0.42506 0.94976 0.0
H802 H 0.9636 0.42188 0.87677 0.0
H803 H -0.00461 0.43575 0.91566 0.0
C804 C 0.81166 0.89749 0.25172 0.0
C805 C 0.78861 0.90577 0.26852 0.0
C806 C 0.80865 0.87573 0.2319 0.0
C807 C 0.77085 0.80983 0.2235 0.0
H808 H 0.81206 0.8077 0.15245 0.0
C809 C 0.79633 0.71476 0.14287 0.0
C810 C 0.82593 0.7126 0.13986 0.0
C811 C 0.78456 0.73639 0.15957 0.0
C812 C 0.80013 0.8081 0.17207 0.0
H813 H 0.74397 0.89882 0.27699 0.0
H814 H 0.7388 0.86022 0.24241 0.0
H815 H 0.80324 0.85317 0.1756 0.0
H816 H 0.86637 0.72878 0.1548 0.0
H817 H 0.8459 0.76617 0.18391 0.0
H818 H 0.7691 0.76434 0.22035 0.0
C819 C 0.75907 0.87085 0.24442 0.0
C820 C 0.79511 0.83403 0.18529 0.0
C821 C 0.76197 0.89312 0.26392 0.0
C822 C 0.84349 0.73015 0.15641 0.0
C823 C 0.83182 0.75158 0.173 0.0
C824 C 0.77584 0.78374 0.21014 0.0
C825 C 0.78262 0.86146 0.22881 0.0
C826 C 0.78151 0.83509 0.21172 0.0
C827 C 0.80241 0.75578 0.17349 0.0
C828 C 0.79152 0.78274 0.18493 0.0
H829 H 0.83244 0.90677 0.25505 0.0
H830 H 0.82727 0.86878 0.22041 0.0
H831 H 0.76048 0.81003 0.24399 0.0
H832 H 0.78239 0.70148 0.13037 0.0
H833 H 0.76177 0.73926 0.15982 0.0
C834 C 0.31151 0.56219 0.50529 0.0
C835 C 0.30865 0.58188 0.52747 0.0
C836 C 0.32617 0.56962 0.48061 0.0
C837 C 0.38393 0.61765 0.46205 0.0
H838 H 0.37319 0.58846 0.38581 0.0
C839 C 0.44176 0.62603 0.3463 0.0
C840 C 0.47 0.62121 0.35474 0.0
C841 C 0.41948 0.62235 0.36545 0.0
C842 C 0.3763 0.59696 0.40696 0.0
H843 H 0.31577 0.62547 0.54018 0.0
H844 H 0.34039 0.63872 0.49685 0.0
H845 H 0.33594 0.58169 0.42133 0.0
H846 H 0.49684 0.60829 0.38989 0.0
H847 H 0.45802 0.60188 0.42315 0.0
H848 H 0.42418 0.63277 0.44795 0.0
C849 C 0.33233 0.61731 0.49878 0.0
C850 C 0.35509 0.59293 0.4273 0.0
C851 C 0.31809 0.6098 0.5235 0.0
C852 C 0.4754 0.61236 0.38267 0.0
C853 C 0.45316 0.60881 0.4018 0.0
C854 C 0.40504 0.62158 0.44184 0.0
C855 C 0.33787 0.59691 0.47775 0.0
C856 C 0.35881 0.60305 0.45514 0.0
C857 C 0.42501 0.61394 0.39345 0.0
C858 C 0.40166 0.61095 0.41422 0.0
H859 H 0.30449 0.54049 0.50793 0.0
H860 H 0.33012 0.55341 0.4648 0.0
H861 H 0.38775 0.6253 0.4834 0.0
H862 H 0.4368 0.63274 0.32491 0.0
H863 H 0.398 0.62661 0.3585 0.0
C864 C 0.21964 0.18963 0.37695 0.0
C865 C 0.20533 0.16382 0.38116 0.0
C866 C 0.23495 0.19433 0.35201 0.0
C867 C 0.24162 0.16699 0.27831 0.0
H868 H 0.31635 0.20112 0.28115 0.0
C869 C 0.3338 0.13729 0.20727 0.0
C870 C 0.35433 0.15763 0.20041 0.0
C871 C 0.30975 0.14502 0.22255 0.0
C872 C 0.29518 0.19226 0.27981 0.0
H873 H 0.19693 0.1223 0.3632 0.0
H874 H 0.22442 0.13003 0.32038 0.0
H875 H 0.28725 0.20028 0.32376 0.0
H876 H 0.36497 0.20229 0.20186 0.0
H877 H 0.32293 0.21582 0.22921 0.0
H878 H 0.25044 0.15734 0.23477 0.0
C879 C 0.22305 0.14704 0.33579 0.0
C880 C 0.27855 0.19166 0.30428 0.0
C881 C 0.20764 0.14243 0.36054 0.0
C882 C 0.34921 0.18628 0.20669 0.0
C883 C 0.32535 0.19397 0.22252 0.0
C884 C 0.25834 0.1674 0.25391 0.0
C885 C 0.23636 0.17324 0.33091 0.0
C886 C 0.25206 0.17801 0.30407 0.0
C887 C 0.30614 0.17314 0.2317 0.0
C888 C 0.28569 0.17911 0.25472 0.0
H889 H 0.21792 0.20669 0.39227 0.0
H890 H 0.2449 0.21476 0.34887 0.0
H891 H 0.22093 0.15704 0.27725 0.0
H892 H 0.33745 0.11506 0.20273 0.0
H893 H 0.29543 0.12847 0.22947 0.0
C894 C 0.13387 0.08859 0.49396 0.0
C895 C 0.11474 0.09913 0.47371 0.0
C896 C 0.124 0.07556 0.5185 0.0
C897 C 0.06316 0.04198 0.55318 0.0
H898 H 0.10185 0.06773 0.62133 0.0
C899 C 0.03865 0.99269 0.66175 0.0
C900 C 0.06333 0.98145 0.67406 0.0
C901 C 0.04069 0.0128 0.64006 0.0
C902 C 0.09072 0.06047 0.60253 0.0
H903 H 0.07026 0.10247 0.46233 0.0
H904 H 0.05296 0.07926 0.50537 0.0
H905 H 0.11388 0.08854 0.57565 0.0
H906 H 0.10914 0.98403 0.67546 0.0
H907 H 0.11274 0.01953 0.63836 0.0
H908 H 0.04068 0.01319 0.58007 0.0
C909 C 0.07561 0.08127 0.50218 0.0
C910 C 0.09773 0.07222 0.57636 0.0
C911 C 0.08553 0.09435 0.47746 0.0
C912 C 0.08982 0.99253 0.66637 0.0
C913 C 0.09183 0.01286 0.64511 0.0
C914 C 0.05614 0.03017 0.57945 0.0
C915 C 0.09477 0.07282 0.52342 0.0
C916 C 0.08472 0.06243 0.55131 0.0
C917 C 0.0674 0.02223 0.63082 0.0
C918 C 0.07052 0.03869 0.60425 0.0
H919 H 0.1565 0.09173 0.49156 0.0
H920 H 0.13929 0.06848 0.53412 0.0
H921 H 0.05275 0.0341 0.53423 0.0
H922 H 0.01799 0.98419 0.6671 0.0
H923 H 0.02152 0.01987 0.62956 0.0
C924 C 0.13526 0.86134 0.75909 0.0
C925 C 0.12211 0.88798 0.76036 0.0
C926 C 0.15277 0.85222 0.78112 0.0
C927 C 0.1719 0.8684 0.85653 0.0
H928 H 0.23546 0.81922 0.83943 0.0
C929 C 0.27425 0.85146 0.92248 0.0
C930 C 0.28358 0.82342 0.92574 0.0
C931 C 0.24957 0.85727 0.90722 0.0
C932 C 0.21749 0.83257 0.84454 0.0
H933 H 0.1176 0.92637 0.78523 0.0
H934 H 0.14971 0.91131 0.8229 0.0
H935 H 0.20476 0.83506 0.80125 0.0
H936 H 0.27396 0.77936 0.91715 0.0
H937 H 0.23105 0.78962 0.88947 0.0
H938 H 0.1864 0.86728 0.89976 0.0
C939 C 0.14561 0.89687 0.80549 0.0
C940 C 0.19979 0.84167 0.82267 0.0
C941 C 0.1275 0.90571 0.78372 0.0
C942 C 0.26689 0.80111 0.91521 0.0
C943 C 0.24254 0.80696 0.89928 0.0
C944 C 0.19009 0.85978 0.87833 0.0
C945 C 0.15817 0.86979 0.80471 0.0
C946 C 0.17677 0.85981 0.82828 0.0
C947 C 0.23431 0.83514 0.89439 0.0
C948 C 0.21302 0.84183 0.87245 0.0
H949 H 0.13104 0.84694 0.74163 0.0
H950 H 0.16141 0.83101 0.77989 0.0
H951 H 0.1541 0.88183 0.86188 0.0
H952 H 0.28699 0.86896 0.9303 0.0
H953 H 0.24372 0.87915 0.9035 0.0
C954 C 0.43862 0.03792 0.14709 0.0
C955 C 0.43087 0.06515 0.13796 0.0
C956 C 0.43629 0.0147 0.12874 0.0
C957 C 0.41234 0.96734 0.0925 0.0
H958 H 0.42384 0.97614 0.01156 0.0
C959 C 0.37083 0.88478 0.01351 0.0
C960 C 0.38693 0.87854 0.98927 0.0
C961 C 0.37834 0.90727 0.0312 0.0
C962 C 0.42089 0.97316 0.03413 0.0
H963 H 0.41446 0.08932 0.10244 0.0
H964 H 0.40948 0.04888 0.07092 0.0
H965 H 0.4346 0.01538 0.04342 0.0
H966 H 0.42362 0.89095 0.96453 0.0
H967 H 0.43721 0.92996 -0.0041 0.0
H968 H 0.39944 0.92491 0.08337 0.0
C969 C 0.41816 0.04545 0.09191 0.0
C970 C 0.42669 -0.00418 0.0524 0.0
C971 C 0.42079 0.06866 0.11011 0.0
C972 C 0.41063 0.89545 0.98294 0.0
C973 C 0.41839 0.91782 0.0009 0.0
C974 C 0.40684 0.94462 0.0743 0.0
C975 C 0.42585 0.01815 0.10096 0.0
C976 C 0.42197 0.99337 0.08176 0.0
C977 C 0.40241 0.92387 0.02538 0.0
C978 C 0.41047 0.94741 0.04483 0.0
H979 H 0.44673 0.03455 0.16833 0.0
H980 H 0.44283 0.99407 0.1363 0.0
H981 H 0.40823 0.96468 0.11493 0.0
H982 H 0.3523 0.8723 0.0188 0.0
H983 H 0.3651 0.91174 0.04941 0.0
C984 C 0.87168 0.3732 0.69843 0.0
C985 C 0.87485 0.35761 0.72355 0.0
C986 C 0.85732 0.36159 0.67521 0.0
C987 C 0.80756 0.30372 0.65544 0.0
H988 H 0.82916 0.32574 0.57925 0.0
C989 C 0.74024 0.26844 0.56241 0.0
C990 C 0.72755 0.29268 0.55084 0.0
C991 C 0.76547 0.2709 0.57787 0.0
C992 C 0.82323 0.31909 0.6004 0.0
H993 H 0.86574 0.31753 0.74402 0.0
H994 H 0.84149 0.29692 0.70334 0.0
H995 H 0.85787 0.34127 0.61962 0.0
H996 H 0.73248 0.33758 0.54314 0.0
H997 H 0.77704 0.34174 0.56916 0.0
H998 H 0.77281 0.28179 0.63617 0.0
C999 C 0.84928 0.31844 0.7017 0.0
C1000 C 0.83937 0.32828 0.62358 0.0
C1001 C 0.86316 0.33028 0.72511 0.0
C1002 C 0.74211 0.3186 0.55175 0.0
C1003 C 0.76757 0.32095 0.56666 0.0
C1004 C 0.79178 0.29415 0.63227 0.0
C1005 C 0.8463 0.33388 0.67637 0.0
C1006 C 0.83119 0.32147 0.65148 0.0
C1007 C 0.77844 0.29752 0.58138 0.0
C1008 C 0.79898 0.30241 0.60461 0.0
H1009 H 0.88048 0.39433 0.69666 0.0
H1010 H 0.85481 0.37445 0.6564 0.0
H1011 H 0.80028 0.29831 0.6765 0.0
H1012 H 0.72914 0.24832 0.56227 0.0
H1013 H 0.77356 0.25254 0.58899 0.0
C1014 C 0.94041 0.47598 0.82054 0.0
C1015 C 0.91764 0.46218 0.80706 0.0
C1016 C 0.93531 0.49837 0.83933 0.0
C1017 C 0.88349 0.55076 0.86377 0.0
H1018 H 0.90812 0.53059 0.93962 0.0
C1019 C 0.83472 0.60408 0.96161 0.0
C1020 C 0.85207 0.60938 0.98528 0.0
C1021 C 0.84458 0.58759 0.93909 0.0
C1022 C 0.90152 0.53698 0.91859 0.0
H1023 H 0.87215 0.46226 0.80061 0.0
H1024 H 0.86336 0.50214 0.83258 0.0
H1025 H 0.92388 0.50254 0.8992 0.0
H1026 H 0.89323 0.60138 0.00413 0.0
H1027 H 0.91086 0.57332 0.96448 0.0
H1028 H 0.86136 0.58534 0.88284 0.0
C1029 C 0.88502 0.49544 0.82895 0.0
C1030 C 0.91058 0.52086 0.89544 0.0
C1031 C 0.89003 0.47267 0.8107 0.0
C1032 C 0.87925 0.59731 0.98631 0.0
C1033 C 0.88934 0.58122 0.96352 0.0
C1034 C 0.87483 0.56722 0.88684 0.0
C1035 C 0.90747 0.50765 0.84431 0.0
C1036 C 0.90119 0.52729 0.86792 0.0
C1037 C 0.87226 0.57646 0.93942 0.0
C1038 C 0.88318 0.56015 0.91466 0.0
H1039 H 0.96185 0.46804 0.81834 0.0
H1040 H 0.95292 0.50756 0.85094 0.0
H1041 H 0.87607 0.55614 0.84269 0.0
H1042 H 0.81359 0.61299 0.96033 0.0
H1043 H 0.83047 0.58372 0.92135 0.0
C1044 C 0.74261 0.69509 0.07939 0.0
C1045 C 0.75662 0.6693 0.07386 0.0
C1046 C 0.72715 0.69873 0.10451 0.0
C1047 C 0.73007 0.67417 0.17698 0.0
H1048 H 0.65072 0.69372 0.18518 0.0
C1049 C 0.66028 0.63334 0.26531 0.0
C1050 C 0.6368 0.64907 0.27448 0.0
C1051 C 0.67871 0.64446 0.24513 0.0
C1052 C 0.67313 0.68906 0.18338 0.0
H1053 H 0.76307 0.62638 0.08905 0.0
H1054 H 0.73653 0.63294 0.13266 0.0
H1055 H 0.67286 0.69565 0.1383 0.0
H1056 H 0.61557 0.68967 0.27182 0.0
H1057 H 0.64764 0.70904 0.23603 0.0
H1058 H 0.73026 0.66645 0.22166 0.0
C1059 C 0.73785 0.65039 0.11783 0.0
C1060 C 0.68568 0.68999 0.15652 0.0
C1061 C 0.75288 0.64662 0.09274 0.0
C1062 C 0.63362 0.67717 0.2652 0.0
C1063 C 0.65181 0.68816 0.24455 0.0
C1064 C 0.71764 0.67339 0.20376 0.0
C1065 C 0.72587 0.67676 0.12446 0.0
C1066 C 0.71387 0.68129 0.15301 0.0
C1067 C 0.67378 0.6714 0.23344 0.0
C1068 C 0.68871 0.67956 0.20704 0.0
H1069 H 0.74506 0.713 0.06529 0.0
H1070 H 0.71784 0.71919 0.10917 0.0
H1071 H 0.75208 0.66796 0.17477 0.0
H1072 H 0.66314 0.61161 0.27211 0.0
H1073 H 0.69531 0.6309 0.23691 0.0
C1074 C 0.625 0.35592 0.46567 0.0
C1075 C 0.626 0.36001 0.49522 0.0
C1076 C 0.61967 0.3786 0.44755 0.0
C1077 C 0.58959 0.45077 0.44597 0.0
H1078 H 0.63067 0.4557 0.37493 0.0
C1079 C 0.58506 0.54892 0.37361 0.0
C1080 C 0.58134 0.54388 0.34441 0.0
C1081 C 0.5906 0.52659 0.39211 0.0
C1082 C 0.61887 0.45444 0.39458 0.0
H1083 H 0.62218 0.39127 0.52886 0.0
H1084 H 0.6134 0.43101 0.49712 0.0
H1085 H 0.64056 0.41685 0.40744 0.0
H1086 H 0.58071 0.51135 0.31176 0.0
H1087 H 0.59056 0.47232 0.34418 0.0
H1088 H 0.56815 0.4886 0.43314 0.0
C1089 C 0.61631 0.41011 0.48803 0.0
C1090 C 0.62448 0.43219 0.41319 0.0
C1091 C 0.6215 0.38735 0.50622 0.0
C1092 C 0.58348 0.51598 0.33411 0.0
C1093 C 0.58925 0.49364 0.35263 0.0
C1094 C 0.58411 0.47312 0.42742 0.0
C1095 C 0.61536 0.40597 0.45849 0.0
C1096 C 0.60982 0.43002 0.43905 0.0
C1097 C 0.59276 0.49874 0.38181 0.0
C1098 C 0.59863 0.4751 0.40151 0.0
H1099 H 0.6281 0.33511 0.45643 0.0
H1100 H 0.61856 0.37457 0.42495 0.0
H1101 H 0.57761 0.44947 0.4655 0.0
H1102 H 0.58348 0.57013 0.3823 0.0
H1103 H 0.5935 0.53115 0.41446 0.0
C1104 C 0.26654 0.3516 0.1182 0.0
C1105 C 0.24334 0.35864 0.13552 0.0
C1106 C 0.29167 0.34158 0.13005 0.0
C1107 C 0.32282 0.30627 0.19105 0.0
H1108 H 0.39248 0.33788 0.16083 0.0
C1109 C 0.42898 0.25382 0.21581 0.0
C1110 C 0.44218 0.24536 0.19048 0.0
C1111 C 0.40829 0.27507 0.21545 0.0
C1112 C 0.37324 0.32902 0.16968 0.0
H1113 H 0.22798 0.3591 0.17891 0.0
H1114 H 0.27198 0.34084 0.19958 0.0
H1115 H 0.34692 0.35852 0.14747 0.0
H1116 H 0.44667 0.2544 0.14574 0.0
H1117 H 0.41133 0.29184 0.14516 0.0
H1118 H 0.349 0.27584 0.2121 0.0
C1119 C 0.27061 0.34353 0.17681 0.0
C1120 C 0.34718 0.34073 0.16194 0.0
C1121 C 0.24539 0.35382 0.16493 0.0
C1122 C 0.43687 0.26066 0.16556 0.0
C1123 C 0.41656 0.28211 0.16528 0.0
C1124 C 0.34892 0.29449 0.19876 0.0
C1125 C 0.29424 0.33811 0.15951 0.0
C1126 C 0.32169 0.32875 0.17165 0.0
C1127 C 0.40091 0.28842 0.18985 0.0
C1128 C 0.37434 0.30508 0.18728 0.0
H1129 H 0.26577 0.35492 0.09548 0.0
H1130 H 0.3093 0.33686 0.11612 0.0
H1131 H 0.30349 0.29663 0.19883 0.0
H1132 H 0.43247 0.24212 0.23526 0.0
H1133 H 0.39677 0.27972 0.23476 0.0
C1134 C 0.86847 0.28743 0.81252 0.0
C1135 C 0.897 0.28336 0.80488 0.0
C1136 C 0.84812 0.26702 0.80621 0.0
C1137 C 0.83994 0.19178 0.79736 0.0
H1138 H 0.76325 0.21279 0.77602 0.0
C1139 C 0.75166 0.11386 0.81706 0.0
C1140 C 0.72939 0.12564 0.83278 0.0
C1141 C 0.76973 0.13123 0.80154 0.0
C1142 C 0.78456 0.20654 0.78185 0.0
H1143 H 0.92642 0.25469 0.78423 0.0
H1144 H 0.89061 0.2183 0.77391 0.0
H1145 H 0.80158 0.24745 0.77201 0.0
H1146 H 0.70649 0.16402 0.84275 0.0
H1147 H 0.73888 0.1949 0.81672 0.0
H1148 H 0.82302 0.15171 0.80912 0.0
C1149 C 0.88421 0.2376 0.7846 0.0
C1150 C 0.80649 0.22632 0.77948 0.0
C1151 C 0.90468 0.2583 0.79067 0.0
C1152 C 0.72373 0.15467 0.83082 0.0
C1153 C 0.74221 0.17223 0.81573 0.0
C1154 C 0.81805 0.17209 0.79989 0.0
C1155 C 0.85572 0.24188 0.79227 0.0
C1156 C 0.83413 0.21945 0.78835 0.0
C1157 C 0.76628 0.16079 0.80216 0.0
C1158 C 0.7899 0.17958 0.79325 0.0
H1159 H 0.86166 0.30659 0.82322 0.0
H1160 H 0.82647 0.27066 0.81293 0.0
H1161 H 0.86097 0.18598 0.80456 0.0
H1162 H 0.75594 0.0913 0.81794 0.0
H1163 H 0.78749 0.12165 0.7906 0.0
C1164 C 0.09508 0.48621 0.10443 0.0
C1165 C 0.11789 0.49425 0.12196 0.0
C1166 C 0.07263 0.50488 0.09948 0.0
C1167 C 0.05353 0.58097 0.10312 0.0
H1168 H 0.97663 0.55198 0.10109 0.0
C1169 C 0.93013 0.62265 0.10558 0.0
C1170 C 0.93096 0.6443 0.08517 0.0
C1171 C 0.9537 0.60553 0.11033 0.0
C1172 C -0.00204 0.56048 0.10183 0.0
H1173 H 0.13469 0.52817 0.14835 0.0
H1174 H 0.09533 0.56036 0.14018 0.0
H1175 H 0.01584 0.51955 0.10914 0.0
H1176 H 0.95759 0.66551 0.05437 0.0
H1177 H -0.00114 0.63522 0.06245 0.0
H1178 H 0.03547 0.62207 0.09656 0.0
C1179 C 0.09507 0.53986 0.12978 0.0
C1180 C 0.02048 0.5418 0.10606 0.0
C1181 C 0.11755 0.52128 0.13463 0.0
C1182 C 0.95631 0.64907 0.0703 0.0
C1183 C 0.97995 0.63174 0.07496 0.0
C1184 C 0.03096 0.5997 0.09895 0.0
C1185 C 0.07241 0.53196 0.11204 0.0
C1186 C 0.04853 0.55182 0.10689 0.0
C1187 C 0.97869 0.60944 0.09467 0.0
C1188 C 0.0029 0.58968 0.09846 0.0
H1189 H 0.09475 0.46567 0.09412 0.0
H1190 H 0.05566 0.49825 0.08542 0.0
H1191 H 0.07493 0.58933 0.10327 0.0
H1192 H 0.91106 0.6186 0.11769 0.0
H1193 H 0.95224 0.58902 0.12618 0.0
C1194 C 0.72481 0.83007 0.36509 0.0
C1195 C 0.746 0.84059 0.34702 0.0
C1196 C 0.70093 0.8166 0.35401 0.0
C1197 C 0.67002 0.77955 0.29364 0.0
H1198 H 0.59969 0.80814 0.32536 0.0
C1199 C 0.564 0.72487 0.26891 0.0
C1200 C 0.55046 0.71636 0.29403 0.0
C1201 C 0.58505 0.74582 0.26969 0.0
C1202 C 0.6191 0.80003 0.31617 0.0
H1203 H 0.75984 0.84279 0.30319 0.0
H1204 H 0.71798 0.81869 0.28382 0.0
H1205 H 0.64457 0.83046 0.33828 0.0
H1206 H 0.54575 0.72535 0.33886 0.0
H1207 H 0.58179 0.76207 0.34018 0.0
H1208 H 0.64463 0.74822 0.27264 0.0
C1209 C 0.71986 0.8214 0.30657 0.0
C1210 C 0.64478 0.81272 0.32363 0.0
C1211 C 0.74386 0.83508 0.3177 0.0
C1212 C 0.55593 0.73139 0.31919 0.0
C1213 C 0.57662 0.75249 0.31991 0.0
C1214 C 0.64425 0.7667 0.28627 0.0
C1215 C 0.69769 0.81312 0.32461 0.0
C1216 C 0.67055 0.80198 0.31326 0.0
C1217 C 0.59242 0.75893 0.2955 0.0
C1218 C 0.61862 0.77621 0.29825 0.0
H1219 H 0.72585 0.83358 0.38779 0.0
H1220 H 0.68449 0.80968 0.36845 0.0
H1221 H 0.68959 0.77094 0.2853 0.0
H1222 H 0.56025 0.71364 0.24921 0.0
H1223 H 0.59663 0.7506 0.25047 0.0
C1224 C 0.55231 0.35266 0.61319 0.0
C1225 C 0.55053 0.33151 0.59228 0.0
C1226 C 0.53323 0.37521 0.61328 0.0
C1227 C 0.46538 0.40078 0.58229 0.0
H1228 H 0.4961 0.47398 0.60429 0.0
C1229 C 0.39731 0.50115 0.57906 0.0
C1230 C 0.39435 0.51236 0.60646 0.0
C1231 C 0.41951 0.48248 0.57305 0.0
C1232 C 0.48739 0.45369 0.59787 0.0
H1233 H 0.52692 0.31669 0.55565 0.0
H1234 H 0.49398 0.35646 0.55525 0.0
H1235 H 0.52701 0.43256 0.60341 0.0
H1236 H 0.41267 0.51479 0.64849 0.0
H1237 H 0.45223 0.4831 0.63771 0.0
H1238 H 0.42578 0.4222 0.57661 0.0
C1239 C 0.5097 0.35543 0.57199 0.0
C1240 C 0.50491 0.42988 0.5977 0.0
C1241 C 0.52851 0.33256 0.57224 0.0
C1242 C 0.41499 0.50668 0.62709 0.0
C1243 C 0.43748 0.48854 0.62093 0.0
C1244 C 0.44799 0.4247 0.58202 0.0
C1245 C 0.51231 0.37742 0.59208 0.0
C1246 C 0.49397 0.40298 0.59057 0.0
C1247 C 0.43916 0.47529 0.59428 0.0
C1248 C 0.45873 0.45122 0.59033 0.0
H1249 H 0.56902 0.35223 0.62899 0.0
H1250 H 0.53532 0.39122 0.62965 0.0
H1251 H 0.45612 0.38045 0.57696 0.0
H1252 H 0.38119 0.50489 0.56308 0.0
H1253 H 0.42046 0.47249 0.55235 0.0
C1254 C 0.25234 0.63961 0.65989 0.0
C1255 C 0.24342 0.62135 0.63799 0.0
C1256 C 0.23367 0.65972 0.67115 0.0
C1257 C 0.15714 0.67814 0.67452 0.0
H1258 H 0.1844 0.75538 0.68089 0.0
C1259 C 0.11245 0.79724 0.66084 0.0
C1260 C 0.08862 0.79781 0.67869 0.0
C1261 C 0.13123 0.7746 0.66156 0.0
C1262 C 0.17652 0.73386 0.67936 0.0
H1263 H 0.20792 0.6101 0.61065 0.0
H1264 H 0.17593 0.64528 0.62977 0.0
H1265 H 0.21802 0.71724 0.67209 0.0
H1266 H 0.06538 0.77453 0.71075 0.0
H1267 H 0.0984 0.73442 0.71174 0.0
H1268 H 0.11541 0.6951 0.68009 0.0
C1269 C 0.19702 0.6437 0.63877 0.0
C1270 C 0.19581 0.71199 0.67464 0.0
C1271 C 0.21555 0.62371 0.62757 0.0
C1272 C 0.08349 0.77464 0.69666 0.0
C1273 C 0.10241 0.75179 0.69734 0.0
C1274 C 0.13782 0.70005 0.67919 0.0
C1275 C 0.20578 0.66186 0.66072 0.0
C1276 C 0.18618 0.68406 0.67109 0.0
C1277 C 0.12673 0.75188 0.68013 0.0
C1278 C 0.14726 0.72822 0.68053 0.0
H1279 H 0.27357 0.63816 0.66857 0.0
H1280 H 0.24098 0.67346 0.6881 0.0
H1281 H 0.1492 0.65669 0.67241 0.0
H1282 H 0.11694 0.81456 0.64649 0.0
H1283 H 0.14932 0.77487 0.64744 0.0
C1284 C 0.47835 0.83875 0.946 0.0
C1285 C 0.45999 0.83989 0.92246 0.0
C1286 C 0.49391 0.86271 0.95419 0.0
C1287 C 0.49483 0.94065 0.94611 0.0
H1288 H 0.57619 0.93406 0.9556 0.0
C1289 C 0.57419 0.02157 0.90752 0.0
C1290 C 0.60055 0.02426 0.92094 0.0
C1291 C 0.55356 0.00368 0.91877 0.0
C1292 C 0.5534 0.93633 0.95388 0.0
H1293 H 0.44425 0.86683 0.88863 0.0
H1294 H 0.47158 0.90813 0.90262 0.0
H1295 H 0.54722 0.89139 0.95327 0.0
H1296 H 0.62591 0.01209 0.95718 0.0
H1297 H 0.58974 0.98049 0.97701 0.0
H1298 H 0.50125 0.98556 0.94493 0.0
C1299 C 0.4735 0.889 0.91513 0.0
C1300 C 0.53682 0.91183 0.95243 0.0
C1301 C 0.45815 0.86516 0.90688 0.0
C1302 C 0.60541 0.01057 0.94685 0.0
C1303 C 0.58487 0.99238 0.958 0.0
C1304 C 0.51139 0.96514 0.94752 0.0
C1305 C 0.49119 0.8882 0.9391 0.0
C1306 C 0.5076 0.91376 0.94711 0.0
C1307 C 0.55926 0.98779 0.94334 0.0
C1308 C 0.541 0.96315 0.95005 0.0
H1309 H 0.48003 0.81969 0.95862 0.0
H1310 H 0.50754 0.8615 0.97267 0.0
H1311 H 0.47219 0.94271 0.94271 0.0
H1312 H 0.57036 0.03162 0.88723 0.0
H1313 H 0.53423 0.00035 0.90675 0.0
C1314 C 0.88283 0.98149 0.3827 0.0
C1315 C 0.86721 0.98266 0.35735 0.0
C1316 C 0.902 0.00308 0.38962 0.0
C1317 C 0.91943 0.0778 0.37014 0.0
H1318 H 0.98767 0.06329 0.41373 0.0
C1319 C 0.01843 0.14997 0.37606 0.0
C1320 C 0.02943 0.15571 0.40316 0.0
C1321 C -0.00448 0.13151 0.37273 0.0
C1322 C 0.96846 0.06763 0.40187 0.0
H1323 H 0.86045 0.00631 0.31863 0.0
H1324 H 0.89504 0.04297 0.32973 0.0
H1325 H 0.95592 0.02412 0.40203 0.0
H1326 H 0.02497 0.14737 0.44809 0.0
H1327 H 0.9852 0.11421 0.44214 0.0
H1328 H 0.93315 0.12113 0.36873 0.0
C1329 C 0.89168 0.02623 0.34502 0.0
C1330 C 0.9502 0.04523 0.39516 0.0
C1331 C 0.8721 0.00501 0.33842 0.0
C1332 C 0.01649 0.14359 0.42703 0.0
C1333 C 0.99401 0.1245 0.42363 0.0
C1334 C 0.93801 0.10005 0.37636 0.0
C1335 C 0.90634 0.02602 0.37107 0.0
C1336 C 0.92554 0.04994 0.37896 0.0
C1337 C 0.98376 0.11793 0.39639 0.0
C1338 C 0.96272 0.0951 0.39214 0.0
H1339 H 0.87917 0.96467 0.39786 0.0
H1340 H 0.91258 0.00223 0.41 0.0
H1341 H 0.9003 0.08253 0.35835 0.0
H1342 H 0.02827 0.15892 0.35737 0.0
H1343 H 0.98805 0.1266 0.35152 0.0
loop_
_geom_bond_atom_site_label_1
_geom_bond_atom_site_label_2
_geom_bond_distance
_geom_bond_site_symmetry_2
_ccdc_geom_bond_type
Sc0 O3 2.025 . S
Sc0 O10 2.105 . S
Sc0 O13 2.105 . S
Sc0 O16 2.105 . S
Sc0 O19 2.105 . S
Sc1 O3 2.025 . S
Sc1 O11 2.105 . S
Sc1 O15 2.105 . S
Sc1 O17 2.105 . S
Sc1 O21 2.105 . S
Sc2 O3 2.025 . S
Sc2 O12 2.105 . S
Sc2 O14 2.105 . S
Sc2 O18 2.105 . S
Sc2 O20 2.105 . S
O3 Sc0 2.025 . S
O3 Sc1 2.025 . S
O3 Sc2 2.025 . S
C4 O10 1.268 . S
C4 O20 1.268 . S
C5 O11 1.268 . S
C5 O19 1.268 . S
C6 O12 1.268 . S
C6 O21 1.268 . S
C7 O13 1.268 . S
C7 O17 1.268 . S
C8 O14 1.268 . S
C8 O16 1.268 . S
C9 O15 1.268 . S
C9 O18 1.268 . S
O10 Sc0 2.105 . S
O10 C4 1.268 . S
O11 Sc1 2.105 . S
O11 C5 1.268 . S
O12 Sc2 2.105 . S
O12 C6 1.268 . S
O13 Sc0 2.105 . S
O13 C7 1.268 . S
O14 Sc2 2.105 . S
O14 C8 1.268 . S
O15 Sc1 2.105 . S
O15 C9 1.268 . S
O16 Sc0 2.105 . S
O16 C8 1.268 . S
O17 Sc1 2.105 . S
O17 C7 1.268 . S
O18 Sc2 2.105 . S
O18 C9 1.268 . S
O19 Sc0 2.105 . S
O19 C5 1.268 . S
O20 Sc2 2.105 . S
O20 C4 1.268 . S
O21 Sc1 2.105 . S
O21 C6 1.268 . S
Sc22 O25 2.025 . S
Sc22 O32 2.105 . S
Sc22 O35 2.105 . S
Sc22 O38 2.105 . S
Sc22 O41 2.105 . S
Sc23 O25 2.025 . S
Sc23 O33 2.105 . S
Sc23 O37 2.105 1_455 S
Sc23 O39 2.105 . S
Sc23 O43 2.105 . S
Sc24 O25 2.025 . S
Sc24 O34 2.105 . S
Sc24 O36 2.105 . S
Sc24 O40 2.105 . S
Sc24 O42 2.105 . S
O25 Sc22 2.025 . S
O25 Sc23 2.025 . S
O25 Sc24 2.025 . S
C26 O32 1.268 . S
C26 O42 1.268 . S
C27 O33 1.268 . S
C27 O41 1.268 . S
C28 O34 1.268 . S
C28 O43 1.268 . S
C29 O35 1.268 . S
C29 O39 1.268 . S
C30 O36 1.268 . S
C30 O38 1.268 . S
C31 O37 1.268 . S
C31 O40 1.268 1_655 S
O32 Sc22 2.105 . S
O32 C26 1.268 . S
O33 Sc23 2.105 . S
O33 C27 1.268 . S
O34 Sc24 2.105 . S
O34 C28 1.268 . S
O35 Sc22 2.105 . S
O35 C29 1.268 . S
O36 Sc24 2.105 . S
O36 C30 1.268 . S
O37 Sc23 2.105 1_655 S
O37 C31 1.268 . S
O38 Sc22 2.105 . S
O38 C30 1.268 . S
O39 Sc23 2.105 . S
O39 C29 1.268 . S
O40 Sc24 2.105 . S
O40 C31 1.268 1_455 S
O41 Sc22 2.105 . S
O41 C27 1.268 . S
O42 Sc24 2.105 . S
O42 C26 1.268 . S
O43 Sc23 2.105 . S
O43 C28 1.268 . S
Sc44 O47 2.025 . S
Sc44 O54 2.105 . S
Sc44 O57 2.105 . S
Sc44 O60 2.105 . S
Sc44 O63 2.105 . S
Sc45 O47 2.025 . S
Sc45 O55 2.105 1_556 S
Sc45 O59 2.105 . S
Sc45 O61 2.105 . S
Sc45 O65 2.105 . S
Sc46 O47 2.025 . S
Sc46 O56 2.105 . S
Sc46 O58 2.105 . S
Sc46 O62 2.105 . S
Sc46 O64 2.105 . S
O47 Sc44 2.025 . S
O47 Sc45 2.025 . S
O47 Sc46 2.025 . S
C48 O54 1.268 . S
C48 O64 1.268 . S
C49 O55 1.268 . S
C49 O63 1.268 1_554 S
C50 O56 1.268 . S
C50 O65 1.268 . S
C51 O57 1.268 . S
C51 O61 1.268 . S
C52 O58 1.268 . S
C52 O60 1.268 . S
C53 O59 1.268 . S
C53 O62 1.268 . S
O54 Sc44 2.105 . S
O54 C48 1.268 . S
O55 Sc45 2.105 1_554 S
O55 C49 1.268 . S
O56 Sc46 2.105 . S
O56 C50 1.268 . S
O57 Sc44 2.105 . S
O57 C51 1.268 . S
O58 Sc46 2.105 . S
O58 C52 1.268 . S
O59 Sc45 2.105 . S
O59 C53 1.268 . S
O60 Sc44 2.105 . S
O60 C52 1.268 . S
O61 Sc45 2.105 . S
O61 C51 1.268 . S
O62 Sc46 2.105 . S
O62 C53 1.268 . S
O63 Sc44 2.105 . S
O63 C49 1.268 1_556 S
O64 Sc46 2.105 . S
O64 C48 1.268 . S
O65 Sc45 2.105 . S
O65 C50 1.268 . S
Sc66 O69 2.025 . S
Sc66 O76 2.105 . S
Sc66 O79 2.105 . S
Sc66 O82 2.105 . S
Sc66 O85 2.105 . S
Sc67 O69 2.025 . S
Sc67 O77 2.105 . S
Sc67 O81 2.105 . S
Sc67 O83 2.105 . S
Sc67 O87 2.105 . S
Sc68 O69 2.025 . S
Sc68 O78 2.105 . S
Sc68 O80 2.105 . S
Sc68 O84 2.105 . S
Sc68 O86 2.105 . S
O69 Sc66 2.025 . S
O69 Sc67 2.025 . S
O69 Sc68 2.025 . S
C70 O76 1.268 . S
C70 O86 1.268 . S
C71 O77 1.268 . S
C71 O85 1.268 . S
C72 O78 1.268 . S
C72 O87 1.268 . S
C73 O79 1.268 . S
C73 O83 1.268 . S
C74 O80 1.268 . S
C74 O82 1.268 . S
C75 O81 1.268 . S
C75 O84 1.268 . S
O76 Sc66 2.105 . S
O76 C70 1.268 . S
O77 Sc67 2.105 . S
O77 C71 1.268 . S
O78 Sc68 2.105 . S
O78 C72 1.268 . S
O79 Sc66 2.105 . S
O79 C73 1.268 . S
O80 Sc68 2.105 . S
O80 C74 1.268 . S
O81 Sc67 2.105 . S
O81 C75 1.268 . S
O82 Sc66 2.105 . S
O82 C74 1.268 . S
O83 Sc67 2.105 . S
O83 C73 1.268 . S
O84 Sc68 2.105 . S
O84 C75 1.268 . S
O85 Sc66 2.105 . S
O85 C71 1.268 . S
O86 Sc68 2.105 . S
O86 C70 1.268 . S
O87 Sc67 2.105 . S
O87 C72 1.268 . S
Sc88 O91 2.025 . S
Sc88 O98 2.105 . S
Sc88 O101 2.105 . S
Sc88 O104 2.105 . S
Sc88 O107 2.105 . S
Sc89 O91 2.025 . S
Sc89 O99 2.105 . S
Sc89 O103 2.105 . S
Sc89 O105 2.105 . S
Sc89 O109 2.105 . S
Sc90 O91 2.025 . S
Sc90 O100 2.105 . S
Sc90 O102 2.105 . S
Sc90 O106 2.105 . S
Sc90 O108 2.105 . S
O91 Sc88 2.025 . S
O91 Sc89 2.025 . S
O91 Sc90 2.025 . S
C92 O98 1.268 . S
C92 O108 1.268 . S
C93 O99 1.268 . S
C93 O107 1.268 . S
C94 O100 1.268 . S
C94 O109 1.268 . S
C95 O101 1.268 . S
C95 O105 1.268 . S
C96 O102 1.268 . S
C96 O104 1.268 . S
C97 O103 1.268 . S
C97 O106 1.268 . S
O98 Sc88 2.105 . S
O98 C92 1.268 . S
O99 Sc89 2.105 . S
O99 C93 1.268 . S
O100 Sc90 2.105 . S
O100 C94 1.268 . S
O101 Sc88 2.105 . S
O101 C95 1.268 . S
O102 Sc90 2.105 . S
O102 C96 1.268 . S
O103 Sc89 2.105 . S
O103 C97 1.268 . S
O104 Sc88 2.105 . S
O104 C96 1.268 . S
O105 Sc89 2.105 . S
O105 C95 1.268 . S
O106 Sc90 2.105 . S
O106 C97 1.268 . S
O107 Sc88 2.105 . S
O107 C93 1.268 . S
O108 Sc90 2.105 . S
O108 C92 1.268 . S
O109 Sc89 2.105 . S
O109 C94 1.268 . S
Sc110 O113 2.025 . S
Sc110 O120 2.105 . S
Sc110 O123 2.105 . S
Sc110 O126 2.105 . S
Sc110 O129 2.105 . S
Sc111 O113 2.025 . S
Sc111 O121 2.105 1_655 S
Sc111 O125 2.105 . S
Sc111 O127 2.105 . S
Sc111 O131 2.105 . S
Sc112 O113 2.025 . S
Sc112 O122 2.105 . S
Sc112 O124 2.105 . S
Sc112 O128 2.105 . S
Sc112 O130 2.105 . S
O113 Sc110 2.025 . S
O113 Sc111 2.025 . S
O113 Sc112 2.025 . S
C114 O120 1.268 . S
C114 O130 1.268 . S
C115 O121 1.268 . S
C115 O129 1.268 1_455 S
C116 O122 1.268 . S
C116 O131 1.268 . S
C117 O123 1.268 . S
C117 O127 1.268 . S
C118 O124 1.268 . S
C118 O126 1.268 . S
C119 O125 1.268 . S
C119 O128 1.268 . S
O120 Sc110 2.105 . S
O120 C114 1.268 . S
O121 Sc111 2.105 1_455 S
O121 C115 1.268 . S
O122 Sc112 2.105 . S
O122 C116 1.268 . S
O123 Sc110 2.105 . S
O123 C117 1.268 . S
O124 Sc112 2.105 . S
O124 C118 1.268 . S
O125 Sc111 2.105 . S
O125 C119 1.268 . S
O126 Sc110 2.105 . S
O126 C118 1.268 . S
O127 Sc111 2.105 . S
O127 C117 1.268 . S
O128 Sc112 2.105 . S
O128 C119 1.268 . S
O129 Sc110 2.105 . S
O129 C115 1.268 1_655 S
O130 Sc112 2.105 . S
O130 C114 1.268 . S
O131 Sc111 2.105 . S
O131 C116 1.268 . S
Sc132 O135 2.025 . S
Sc132 O142 2.105 . S
Sc132 O145 2.105 . S
Sc132 O148 2.105 . S
Sc132 O151 2.105 . S
Sc133 O135 2.025 . S
Sc133 O143 2.105 1_554 S
Sc133 O147 2.105 . S
Sc133 O149 2.105 . S
Sc133 O153 2.105 . S
Sc134 O135 2.025 . S
Sc134 O144 2.105 . S
Sc134 O146 2.105 . S
Sc134 O150 2.105 . S
Sc134 O152 2.105 . S
O135 Sc132 2.025 . S
O135 Sc133 2.025 . S
O135 Sc134 2.025 . S
C136 O142 1.268 . S
C136 O152 1.268 . S
C137 O143 1.268 . S
C137 O151 1.268 1_556 S
C138 O144 1.268 . S
C138 O153 1.268 . S
C139 O145 1.268 . S
C139 O149 1.268 . S
C140 O146 1.268 . S
C140 O148 1.268 . S
C141 O147 1.268 . S
C141 O150 1.268 . S
O142 Sc132 2.105 . S
O142 C136 1.268 . S
O143 Sc133 2.105 1_556 S
O143 C137 1.268 . S
O144 Sc134 2.105 . S
O144 C138 1.268 . S
O145 Sc132 2.105 . S
O145 C139 1.268 . S
O146 Sc134 2.105 . S
O146 C140 1.268 . S
O147 Sc133 2.105 . S
O147 C141 1.268 . S
O148 Sc132 2.105 . S
O148 C140 1.268 . S
O149 Sc133 2.105 . S
O149 C139 1.268 . S
O150 Sc134 2.105 . S
O150 C141 1.268 . S
O151 Sc132 2.105 . S
O151 C137 1.268 1_554 S
O152 Sc134 2.105 . S
O152 C136 1.268 . S
O153 Sc133 2.105 . S
O153 C138 1.268 . S
Sc154 O157 2.025 . S
Sc154 O164 2.105 . S
Sc154 O167 2.105 . S
Sc154 O170 2.105 . S
Sc154 O173 2.105 . S
Sc155 O157 2.025 . S
Sc155 O165 2.105 . S
Sc155 O169 2.105 . S
Sc155 O171 2.105 . S
Sc155 O175 2.105 . S
Sc156 O157 2.025 . S
Sc156 O166 2.105 . S
Sc156 O168 2.105 . S
Sc156 O172 2.105 . S
Sc156 O174 2.105 . S
O157 Sc154 2.025 . S
O157 Sc155 2.025 . S
O157 Sc156 2.025 . S
C158 O164 1.268 . S
C158 O174 1.268 . S
C159 O165 1.268 . S
C159 O173 1.268 . S
C160 O166 1.268 . S
C160 O175 1.268 . S
C161 O167 1.268 . S
C161 O171 1.268 . S
C162 O168 1.268 . S
C162 O170 1.268 . S
C163 O169 1.268 . S
C163 O172 1.268 . S
O164 Sc154 2.105 . S
O164 C158 1.268 . S
O165 Sc155 2.105 . S
O165 C159 1.268 . S
O166 Sc156 2.105 . S
O166 C160 1.268 . S
O167 Sc154 2.105 . S
O167 C161 1.268 . S
O168 Sc156 2.105 . S
O168 C162 1.268 . S
O169 Sc155 2.105 . S
O169 C163 1.268 . S
O170 Sc154 2.105 . S
O170 C162 1.268 . S
O171 Sc155 2.105 . S
O171 C161 1.268 . S
O172 Sc156 2.105 . S
O172 C163 1.268 . S
O173 Sc154 2.105 . S
O173 C159 1.268 . S
O174 Sc156 2.105 . S
O174 C158 1.268 . S
O175 Sc155 2.105 . S
O175 C160 1.268 . S
Sc176 O179 2.025 . S
Sc176 O186 2.105 . S
Sc176 O189 2.105 . S
Sc176 O192 2.105 . S
Sc176 O195 2.105 . S
Sc177 O179 2.025 . S
Sc177 O187 2.105 . S
Sc177 O191 2.105 . S
Sc177 O193 2.105 . S
Sc177 O197 2.105 . S
Sc178 O179 2.025 . S
Sc178 O188 2.105 . S
Sc178 O190 2.105 . S
Sc178 O194 2.105 . S
Sc178 O196 2.105 . S
O179 Sc176 2.025 . S
O179 Sc177 2.025 . S
O179 Sc178 2.025 . S
C180 O186 1.268 . S
C180 O196 1.268 . S
C181 O187 1.268 . S
C181 O195 1.268 . S
C182 O188 1.268 . S
C182 O197 1.268 . S
C183 O189 1.268 . S
C183 O193 1.268 . S
C184 O190 1.268 . S
C184 O192 1.268 . S
C185 O191 1.268 . S
C185 O194 1.268 . S
O186 Sc176 2.105 . S
O186 C180 1.268 . S
O187 Sc177 2.105 . S
O187 C181 1.268 . S
O188 Sc178 2.105 . S
O188 C182 1.268 . S
O189 Sc176 2.105 . S
O189 C183 1.268 . S
O190 Sc178 2.105 . S
O190 C184 1.268 . S
O191 Sc177 2.105 . S
O191 C185 1.268 . S
O192 Sc176 2.105 . S
O192 C184 1.268 . S
O193 Sc177 2.105 . S
O193 C183 1.268 . S
O194 Sc178 2.105 . S
O194 C185 1.268 . S
O195 Sc176 2.105 . S
O195 C181 1.268 . S
O196 Sc178 2.105 . S
O196 C180 1.268 . S
O197 Sc177 2.105 . S
O197 C182 1.268 . S
Sc198 O201 2.025 . S
Sc198 O208 2.105 . S
Sc198 O211 2.105 1_545 S
Sc198 O214 2.105 . S
Sc198 O217 2.105 . S
Sc199 O201 2.025 . S
Sc199 O209 2.105 . S
Sc199 O213 2.105 . S
Sc199 O215 2.105 . S
Sc199 O219 2.105 . S
Sc200 O201 2.025 . S
Sc200 O210 2.105 . S
Sc200 O212 2.105 . S
Sc200 O216 2.105 . S
Sc200 O218 2.105 . S
O201 Sc198 2.025 . S
O201 Sc199 2.025 . S
O201 Sc200 2.025 . S
C202 O208 1.268 . S
C202 O218 1.268 . S
C203 O209 1.268 . S
C203 O217 1.268 . S
C204 O210 1.268 . S
C204 O219 1.268 . S
C205 O211 1.268 . S
C205 O215 1.268 1_565 S
C206 O212 1.268 . S
C206 O214 1.268 . S
C207 O213 1.268 . S
C207 O216 1.268 . S
O208 Sc198 2.105 . S
O208 C202 1.268 . S
O209 Sc199 2.105 . S
O209 C203 1.268 . S
O210 Sc200 2.105 . S
O210 C204 1.268 . S
O211 Sc198 2.105 1_565 S
O211 C205 1.268 . S
O212 Sc200 2.105 . S
O212 C206 1.268 . S
O213 Sc199 2.105 . S
O213 C207 1.268 . S
O214 Sc198 2.105 . S
O214 C206 1.268 . S
O215 Sc199 2.105 . S
O215 C205 1.268 1_545 S
O216 Sc200 2.105 . S
O216 C207 1.268 . S
O217 Sc198 2.105 . S
O217 C203 1.268 . S
O218 Sc200 2.105 . S
O218 C202 1.268 . S
O219 Sc199 2.105 . S
O219 C204 1.268 . S
Sc220 O223 2.025 . S
Sc220 O230 2.105 . S
Sc220 O233 2.105 . S
Sc220 O236 2.105 . S
Sc220 O239 2.105 . S
Sc221 O223 2.025 . S
Sc221 O231 2.105 . S
Sc221 O235 2.105 . S
Sc221 O237 2.105 . S
Sc221 O241 2.105 . S
Sc222 O223 2.025 . S
Sc222 O232 2.105 1_565 S
Sc222 O234 2.105 . S
Sc222 O238 2.105 . S
Sc222 O240 2.105 . S
O223 Sc220 2.025 . S
O223 Sc221 2.025 . S
O223 Sc222 2.025 . S
C224 O230 1.268 . S
C224 O240 1.268 . S
C225 O231 1.268 . S
C225 O239 1.268 . S
C226 O232 1.268 . S
C226 O241 1.268 1_545 S
C227 O233 1.268 . S
C227 O237 1.268 . S
C228 O234 1.268 . S
C228 O236 1.268 . S
C229 O235 1.268 . S
C229 O238 1.268 . S
O230 Sc220 2.105 . S
O230 C224 1.268 . S
O231 Sc221 2.105 . S
O231 C225 1.268 . S
O232 Sc222 2.105 1_545 S
O232 C226 1.268 . S
O233 Sc220 2.105 . S
O233 C227 1.268 . S
O234 Sc222 2.105 . S
O234 C228 1.268 . S
O235 Sc221 2.105 . S
O235 C229 1.268 . S
O236 Sc220 2.105 . S
O236 C228 1.268 . S
O237 Sc221 2.105 . S
O237 C227 1.268 . S
O238 Sc222 2.105 . S
O238 C229 1.268 . S
O239 Sc220 2.105 . S
O239 C225 1.268 . S
O240 Sc222 2.105 . S
O240 C224 1.268 . S
O241 Sc221 2.105 . S
O241 C226 1.268 1_565 S
Sc242 O245 2.025 . S
Sc242 O252 2.105 . S
Sc242 O255 2.105 . S
Sc242 O258 2.105 . S
Sc242 O261 2.105 . S
Sc243 O245 2.025 . S
Sc243 O253 2.105 . S
Sc243 O257 2.105 . S
Sc243 O259 2.105 . S
Sc243 O263 2.105 . S
Sc244 O245 2.025 . S
Sc244 O254 2.105 . S
Sc244 O256 2.105 . S
Sc244 O260 2.105 . S
Sc244 O262 2.105 . S
O245 Sc242 2.025 . S
O245 Sc243 2.025 . S
O245 Sc244 2.025 . S
C246 O252 1.268 . S
C246 O262 1.268 . S
C247 O253 1.268 . S
C247 O261 1.268 . S
C248 O254 1.268 . S
C248 O263 1.268 . S
C249 O255 1.268 . S
C249 O259 1.268 . S
C250 O256 1.268 . S
C250 O258 1.268 . S
C251 O257 1.268 . S
C251 O260 1.268 . S
O252 Sc242 2.105 . S
O252 C246 1.268 . S
O253 Sc243 2.105 . S
O253 C247 1.268 . S
O254 Sc244 2.105 . S
O254 C248 1.268 . S
O255 Sc242 2.105 . S
O255 C249 1.268 . S
O256 Sc244 2.105 . S
O256 C250 1.268 . S
O257 Sc243 2.105 . S
O257 C251 1.268 . S
O258 Sc242 2.105 . S
O258 C250 1.268 . S
O259 Sc243 2.105 . S
O259 C249 1.268 . S
O260 Sc244 2.105 . S
O260 C251 1.268 . S
O261 Sc242 2.105 . S
O261 C247 1.268 . S
O262 Sc244 2.105 . S
O262 C246 1.268 . S
O263 Sc243 2.105 . S
O263 C248 1.268 . S
C264 C265 1.349 . S
C264 C266 1.327 . S
C264 H289 0.950 . S
C265 C264 1.349 . S
C265 C281 1.349 . S
C266 C264 1.327 . S
C266 C285 1.429 . S
C266 H290 0.950 . S
C267 C284 1.574 . S
C267 C286 1.368 . S
C267 H291 0.949 . S
H268 C272 0.949 . S
C269 C270 1.349 . S
C269 C271 1.327 . S
C269 H292 0.950 . S
C270 C269 1.349 . S
C270 C282 1.349 . S
C271 C269 1.327 . S
C271 C287 1.429 . S
C271 H293 0.950 . S
C272 H268 0.949 . S
C272 C280 1.574 . S
C272 C288 1.368 . S
H273 C281 0.950 . S
H274 C279 0.950 . S
H275 C280 0.949 . S
H276 C282 0.950 . S
H277 C283 0.950 . S
H278 C284 0.949 . S
C279 H274 0.950 . S
C279 C281 1.327 . S
C279 C285 1.429 . S
C280 C272 1.574 . S
C280 H275 0.949 . S
C280 C286 1.368 . S
C281 C265 1.349 . S
C281 H273 0.950 . S
C281 C279 1.327 . S
C282 C270 1.349 . S
C282 H276 0.950 . S
C282 C283 1.327 . S
C283 H277 0.950 . S
C283 C282 1.327 . S
C283 C287 1.429 . S
C284 C267 1.574 . S
C284 H278 0.949 . S
C284 C288 1.368 . S
C285 C266 1.429 . S
C285 C279 1.429 . S
C285 C286 1.523 . S
C286 C267 1.368 . S
C286 C280 1.368 . S
C286 C285 1.523 . S
C287 C271 1.429 . S
C287 C283 1.429 . S
C287 C288 1.523 . S
C288 C272 1.368 . S
C288 C284 1.368 . S
C288 C287 1.523 . S
H289 C264 0.950 . S
H290 C266 0.950 . S
H291 C267 0.949 . S
H292 C269 0.950 . S
H293 C271 0.950 . S
C294 C295 1.343 1_565 S
C294 C296 1.330 . S
C294 H319 0.953 . S
C295 C294 1.343 1_545 S
C295 C311 1.349 . S
C296 C294 1.330 . S
C296 C315 1.435 . S
C296 H320 0.950 . S
C297 C314 1.574 1_545 S
C297 C316 1.368 1_545 S
C297 H321 0.949 . S
H298 C302 0.949 . S
C299 C300 1.349 . S
C299 C301 1.327 . S
C299 H322 0.950 . S
C300 C299 1.349 . S
C300 C312 1.349 . S
C301 C299 1.327 . S
C301 C317 1.429 . S
C301 H323 0.950 . S
C302 H298 0.949 . S
C302 C310 1.574 . S
C302 C318 1.368 . S
H303 C311 0.950 . S
H304 C309 0.950 . S
H305 C310 0.949 . S
H306 C312 0.950 . S
H307 C313 0.950 . S
H308 C314 0.949 . S
C309 H304 0.950 . S
C309 C311 1.327 . S
C309 C315 1.415 1_545 S
C310 C302 1.574 . S
C310 H305 0.949 . S
C310 C316 1.368 . S
C311 C295 1.349 . S
C311 H303 0.950 . S
C311 C309 1.327 . S
C312 C300 1.349 . S
C312 H306 0.950 . S
C312 C313 1.327 . S
C313 H307 0.950 . S
C313 C312 1.327 . S
C313 C317 1.429 . S
C314 C297 1.574 1_565 S
C314 H308 0.949 . S
C314 C318 1.368 . S
C315 C296 1.435 . S
C315 C309 1.415 1_565 S
C315 C316 1.530 . S
C316 C297 1.368 1_565 S
C316 C310 1.368 . S
C316 C315 1.530 . S
C317 C301 1.429 . S
C317 C313 1.429 . S
C317 C318 1.523 . S
C318 C302 1.368 . S
C318 C314 1.368 . S
C318 C317 1.523 . S
H319 C294 0.953 . S
H320 C296 0.950 . S
H321 C297 0.949 . S
H322 C299 0.950 . S
H323 C301 0.950 . S
C324 C325 1.349 . S
C324 C326 1.327 . S
C324 H349 0.950 . S
C325 C324 1.349 . S
C325 C341 1.349 . S
C326 C324 1.327 . S
C326 C345 1.420 1_556 S
C326 H350 0.950 . S
C327 C344 1.574 . S
C327 C346 1.368 . S
C327 H351 0.949 . S
H328 C332 0.949 . S
C329 C330 1.349 . S
C329 C331 1.327 . S
C329 H352 0.950 . S
C330 C329 1.349 . S
C330 C342 1.349 . S
C331 C329 1.327 . S
C331 C347 1.429 . S
C331 H353 0.950 . S
C332 H328 0.949 . S
C332 C340 1.574 . S
C332 C348 1.368 . S
H333 C341 0.950 . S
H334 C339 0.950 . S
H335 C340 0.949 1_556 S
H336 C342 0.950 . S
H337 C343 0.950 . S
H338 C344 0.949 . S
C339 H334 0.950 . S
C339 C341 1.327 1_554 S
C339 C345 1.430 . S
C340 C332 1.574 . S
C340 H335 0.949 1_554 S
C340 C346 1.368 . S
C341 C325 1.349 . S
C341 H333 0.950 . S
C341 C339 1.327 1_556 S
C342 C330 1.349 . S
C342 H336 0.950 . S
C342 C343 1.327 . S
C343 H337 0.950 . S
C343 C342 1.327 . S
C343 C347 1.429 . S
C344 C327 1.574 . S
C344 H338 0.949 . S
C344 C348 1.368 . S
C345 C326 1.420 1_554 S
C345 C339 1.430 . S
C345 C346 1.530 . S
C346 C327 1.368 . S
C346 C340 1.368 . S
C346 C345 1.530 . S
C347 C331 1.429 . S
C347 C343 1.429 . S
C347 C348 1.523 . S
C348 C332 1.368 . S
C348 C344 1.368 . S
C348 C347 1.523 . S
H349 C324 0.950 . S
H350 C326 0.950 . S
H351 C327 0.949 . S
H352 C329 0.950 . S
H353 C331 0.950 . S
C354 C355 1.349 . S
C354 C356 1.327 . S
C354 H379 0.950 . S
C355 C354 1.349 . S
C355 C371 1.349 . S
C356 C354 1.327 . S
C356 C375 1.429 . S
C356 H380 0.950 . S
C357 C374 1.574 1_545 S
C357 C376 1.368 . S
C357 H381 0.949 . S
H358 C362 0.949 . S
C359 C360 1.349 . S
C359 C361 1.327 . S
C359 H382 0.950 . S
C360 C359 1.349 . S
C360 C372 1.320 1_565 S
C361 C359 1.327 . S
C361 C377 1.415 1_565 S
C361 H383 0.950 . S
C362 H358 0.949 . S
C362 C370 1.574 . S
C362 C378 1.368 . S
H363 C371 0.950 . S
H364 C369 0.950 . S
H365 C370 0.949 . S
H366 C372 0.965 . S
H367 C373 0.950 . S
H368 C374 0.949 . S
C369 H364 0.950 . S
C369 C371 1.327 . S
C369 C375 1.429 . S
C370 C362 1.574 . S
C370 H365 0.949 . S
C370 C376 1.368 . S
C371 C355 1.349 . S
C371 H363 0.950 . S
C371 C369 1.327 . S
C372 C360 1.320 1_545 S
C372 H366 0.965 . S
C372 C373 1.342 . S
C373 H367 0.950 . S
C373 C372 1.342 . S
C373 C377 1.435 . S
C374 C357 1.574 1_565 S
C374 H368 0.949 . S
C374 C378 1.368 1_565 S
C375 C356 1.429 . S
C375 C369 1.429 . S
C375 C376 1.523 . S
C376 C357 1.368 . S
C376 C370 1.368 . S
C376 C375 1.523 . S
C377 C361 1.415 1_545 S
C377 C373 1.435 . S
C377 C378 1.530 . S
C378 C362 1.368 . S
C378 C374 1.368 1_545 S
C378 C377 1.530 . S
H379 C354 0.950 . S
H380 C356 0.950 . S
H381 C357 0.949 . S
H382 C359 0.950 . S
H383 C361 0.950 . S
C384 C385 1.349 . S
C384 C386 1.327 . S
C384 H409 0.950 . S
C385 C384 1.349 . S
C385 C401 1.349 . S
C386 C384 1.327 . S
C386 C405 1.429 . S
C386 H410 0.950 . S
C387 C404 1.574 . S
C387 C406 1.368 . S
C387 H411 0.949 . S
H388 C392 0.949 . S
C389 C390 1.349 . S
C389 C391 1.327 . S
C389 H412 0.950 . S
C390 C389 1.349 . S
C390 C402 1.349 . S
C391 C389 1.327 . S
C391 C407 1.429 . S
C391 H413 0.950 . S
C392 H388 0.949 . S
C392 C400 1.574 . S
C392 C408 1.368 . S
H393 C401 0.950 . S
H394 C399 0.950 . S
H395 C400 0.949 . S
H396 C402 0.950 . S
H397 C403 0.950 . S
H398 C404 0.949 . S
C399 H394 0.950 . S
C399 C401 1.327 . S
C399 C405 1.429 . S
C400 C392 1.574 . S
C400 H395 0.949 . S
C400 C406 1.368 . S
C401 C385 1.349 . S
C401 H393 0.950 . S
C401 C399 1.327 . S
C402 C390 1.349 . S
C402 H396 0.950 . S
C402 C403 1.327 . S
C403 H397 0.950 . S
C403 C402 1.327 . S
C403 C407 1.429 . S
C404 C387 1.574 . S
C404 H398 0.949 . S
C404 C408 1.368 . S
C405 C386 1.429 . S
C405 C399 1.429 . S
C405 C406 1.523 . S
C406 C387 1.368 . S
C406 C400 1.368 . S
C406 C405 1.523 . S
C407 C391 1.429 . S
C407 C403 1.429 . S
C407 C408 1.523 . S
C408 C392 1.368 . S
C408 C404 1.368 . S
C408 C407 1.523 . S
H409 C384 0.950 . S
H410 C386 0.950 . S
H411 C387 0.949 . S
H412 C389 0.950 . S
H413 C391 0.950 . S
C414 C415 1.349 . S
C414 C416 1.327 . S
C414 H439 0.950 . S
C415 C414 1.349 . S
C415 C431 1.349 . S
C416 C414 1.327 . S
C416 C435 1.429 . S
C416 H440 0.950 . S
C417 C434 1.574 . S
C417 C436 1.368 . S
C417 H441 0.949 . S
H418 C422 0.949 . S
C419 C420 1.349 . S
C419 C421 1.327 . S
C419 H442 0.950 . S
C420 C419 1.349 . S
C420 C432 1.349 . S
C421 C419 1.327 . S
C421 C437 1.429 . S
C421 H443 0.950 . S
C422 H418 0.949 . S
C422 C430 1.574 . S
C422 C438 1.368 . S
H423 C431 0.950 . S
H424 C429 0.950 . S
H425 C430 0.949 . S
H426 C432 0.950 . S
H427 C433 0.950 . S
H428 C434 0.949 . S
C429 H424 0.950 . S
C429 C431 1.327 . S
C429 C435 1.429 . S
C430 C422 1.574 . S
C430 H425 0.949 . S
C430 C436 1.368 . S
C431 C415 1.349 . S
C431 H423 0.950 . S
C431 C429 1.327 . S
C432 C420 1.349 . S
C432 H426 0.950 . S
C432 C433 1.327 . S
C433 H427 0.950 . S
C433 C432 1.327 . S
C433 C437 1.429 . S
C434 C417 1.574 . S
C434 H428 0.949 . S
C434 C438 1.368 . S
C435 C416 1.429 . S
C435 C429 1.429 . S
C435 C436 1.523 . S
C436 C417 1.368 . S
C436 C430 1.368 . S
C436 C435 1.523 . S
C437 C421 1.429 . S
C437 C433 1.429 . S
C437 C438 1.523 . S
C438 C422 1.368 . S
C438 C434 1.368 . S
C438 C437 1.523 . S
H439 C414 0.950 . S
H440 C416 0.950 . S
H441 C417 0.949 . S
H442 C419 0.950 . S
H443 C421 0.950 . S
C444 C445 1.349 . S
C444 C446 1.327 . S
C444 H469 0.950 . S
C445 C444 1.349 . S
C445 C461 1.349 . S
C446 C444 1.327 . S
C446 C465 1.429 . S
C446 H470 0.950 . S
C447 C464 1.574 . S
C447 C466 1.368 . S
C447 H471 0.949 . S
H448 C452 0.949 . S
C449 C450 1.349 . S
C449 C451 1.327 . S
C449 H472 0.950 . S
C450 C449 1.349 . S
C450 C462 1.349 . S
C451 C449 1.327 . S
C451 C467 1.419 1_554 S
C451 H473 0.950 . S
C452 H448 0.949 . S
C452 C460 1.574 . S
C452 C468 1.368 . S
H453 C461 0.950 . S
H454 C459 0.950 . S
H455 C460 0.949 . S
H456 C462 0.950 . S
H457 C463 0.950 . S
H458 C464 0.949 1_554 S
C459 H454 0.950 . S
C459 C461 1.327 . S
C459 C465 1.429 . S
C460 C452 1.574 . S
C460 H455 0.949 . S
C460 C466 1.368 . S
C461 C445 1.349 . S
C461 H453 0.950 . S
C461 C459 1.327 . S
C462 C450 1.349 . S
C462 H456 0.950 . S
C462 C463 1.327 1_554 S
C463 H457 0.950 . S
C463 C462 1.327 1_556 S
C463 C467 1.431 . S
C464 C447 1.574 . S
C464 H458 0.949 1_556 S
C464 C468 1.368 . S
C465 C446 1.429 . S
C465 C459 1.429 . S
C465 C466 1.523 . S
C466 C447 1.368 . S
C466 C460 1.368 . S
C466 C465 1.523 . S
C467 C451 1.419 1_556 S
C467 C463 1.431 . S
C467 C468 1.530 . S
C468 C452 1.368 . S
C468 C464 1.368 . S
C468 C467 1.530 . S
H469 C444 0.950 . S
H470 C446 0.950 . S
H471 C447 0.949 . S
H472 C449 0.950 . S
H473 C451 0.950 . S
C474 C475 1.349 . S
C474 C476 1.327 . S
C474 H499 0.950 . S
C475 C474 1.349 . S
C475 C491 1.349 . S
C476 C474 1.327 . S
C476 C495 1.429 . S
C476 H500 0.950 . S
C477 C494 1.574 . S
C477 C496 1.368 . S
C477 H501 0.949 . S
H478 C482 0.949 . S
C479 C480 1.349 . S
C479 C481 1.327 . S
C479 H502 0.950 . S
C480 C479 1.349 . S
C480 C492 1.349 . S
C481 C479 1.327 . S
C481 C497 1.429 . S
C481 H503 0.950 . S
C482 H478 0.949 . S
C482 C490 1.574 . S
C482 C498 1.368 . S
H483 C491 0.950 . S
H484 C489 0.950 . S
H485 C490 0.949 . S
H486 C492 0.950 . S
H487 C493 0.950 . S
H488 C494 0.949 . S
C489 H484 0.950 . S
C489 C491 1.327 . S
C489 C495 1.429 . S
C490 C482 1.574 . S
C490 H485 0.949 . S
C490 C496 1.368 . S
C491 C475 1.349 . S
C491 H483 0.950 . S
C491 C489 1.327 . S
C492 C480 1.349 . S
C492 H486 0.950 . S
C492 C493 1.327 . S
C493 H487 0.950 . S
C493 C492 1.327 . S
C493 C497 1.429 . S
C494 C477 1.574 . S
C494 H488 0.949 . S
C494 C498 1.368 . S
C495 C476 1.429 . S
C495 C489 1.429 . S
C495 C496 1.523 . S
C496 C477 1.368 . S
C496 C490 1.368 . S
C496 C495 1.523 . S
C497 C481 1.429 . S
C497 C493 1.429 . S
C497 C498 1.523 . S
C498 C482 1.368 . S
C498 C494 1.368 . S
C498 C497 1.523 . S
H499 C474 0.950 . S
H500 C476 0.950 . S
H501 C477 0.949 . S
H502 C479 0.950 . S
H503 C481 0.950 . S
C504 C505 1.349 . S
C504 C506 1.327 . S
C504 H529 0.950 . S
C505 C504 1.349 . S
C505 C521 1.349 . S
C506 C504 1.327 . S
C506 C525 1.429 . S
C506 H530 0.950 . S
C507 C524 1.574 . S
C507 C526 1.368 . S
C507 H531 0.949 . S
H508 C512 0.949 . S
C509 C510 1.349 . S
C509 C511 1.327 . S
C509 H532 0.950 . S
C510 C509 1.349 . S
C510 C522 1.349 . S
C511 C509 1.327 . S
C511 C527 1.429 . S
C511 H533 0.950 . S
C512 H508 0.949 . S
C512 C520 1.574 . S
C512 C528 1.368 . S
H513 C521 0.950 . S
H514 C519 0.950 . S
H515 C520 0.949 . S
H516 C522 0.950 . S
H517 C523 0.950 . S
H518 C524 0.949 . S
C519 H514 0.950 . S
C519 C521 1.327 . S
C519 C525 1.429 . S
C520 C512 1.574 . S
C520 H515 0.949 . S
C520 C526 1.368 . S
C521 C505 1.349 . S
C521 H513 0.950 . S
C521 C519 1.327 . S
C522 C510 1.349 . S
C522 H516 0.950 . S
C522 C523 1.327 . S
C523 H517 0.950 . S
C523 C522 1.327 . S
C523 C527 1.429 . S
C524 C507 1.574 . S
C524 H518 0.949 . S
C524 C528 1.368 . S
C525 C506 1.429 . S
C525 C519 1.429 . S
C525 C526 1.523 . S
C526 C507 1.368 . S
C526 C520 1.368 . S
C526 C525 1.523 . S
C527 C511 1.429 . S
C527 C523 1.429 . S
C527 C528 1.523 . S
C528 C512 1.368 . S
C528 C524 1.368 . S
C528 C527 1.523 . S
H529 C504 0.950 . S
H530 C506 0.950 . S
H531 C507 0.949 . S
H532 C509 0.950 . S
H533 C511 0.950 . S
C534 C535 1.349 . S
C534 C536 1.327 . S
C534 H559 0.950 . S
C535 C534 1.349 . S
C535 C551 1.349 . S
C536 C534 1.327 . S
C536 C555 1.429 . S
C536 H560 0.950 . S
C537 C554 1.574 . S
C537 C556 1.368 . S
C537 H561 0.949 . S
H538 C542 0.949 . S
C539 C540 1.349 . S
C539 C541 1.327 . S
C539 H562 0.950 . S
C540 C539 1.349 . S
C540 C552 1.349 . S
C541 C539 1.327 . S
C541 C557 1.422 1_655 S
C541 H563 0.950 . S
C542 H538 0.949 . S
C542 C550 1.574 . S
C542 C558 1.368 . S
H543 C551 0.950 . S
H544 C549 0.950 . S
H545 C550 0.949 . S
H546 C552 0.950 . S
H547 C553 0.938 1_455 S
H548 C554 0.949 . S
C549 H544 0.950 . S
C549 C551 1.327 . S
C549 C555 1.429 . S
C550 C542 1.574 . S
C550 H545 0.949 . S
C550 C556 1.368 . S
C551 C535 1.349 . S
C551 H543 0.950 . S
C551 C549 1.327 . S
C552 C540 1.349 . S
C552 H546 0.950 . S
C552 C553 1.340 . S
C553 H547 0.938 1_655 S
C553 C552 1.340 . S
C553 C557 1.428 1_655 S
C554 C537 1.574 . S
C554 H548 0.949 . S
C554 C558 1.368 . S
C555 C536 1.429 . S
C555 C549 1.429 . S
C555 C556 1.523 . S
C556 C537 1.368 . S
C556 C550 1.368 . S
C556 C555 1.523 . S
C557 C541 1.422 1_455 S
C557 C553 1.428 1_455 S
C557 C558 1.530 . S
C558 C542 1.368 . S
C558 C554 1.368 . S
C558 C557 1.530 . S
H559 C534 0.950 . S
H560 C536 0.950 . S
H561 C537 0.949 . S
H562 C539 0.950 . S
H563 C541 0.950 . S
C564 C565 1.349 . S
C564 C566 1.327 . S
C564 H589 0.950 . S
C565 C564 1.349 . S
C565 C581 1.349 . S
C566 C564 1.327 . S
C566 C585 1.417 1_455 S
C566 H590 0.950 . S
C567 C584 1.574 . S
C567 C586 1.368 . S
C567 H591 0.949 . S
H568 C572 0.949 . S
C569 C570 1.349 . S
C569 C571 1.327 . S
C569 H592 0.950 . S
C570 C569 1.349 . S
C570 C582 1.349 . S
C571 C569 1.327 . S
C571 C587 1.429 . S
C571 H593 0.950 . S
C572 H568 0.949 . S
C572 C580 1.574 . S
C572 C588 1.368 . S
H573 C581 0.950 1_655 S
H574 C579 0.950 . S
H575 C580 0.949 1_455 S
H576 C582 0.950 . S
H577 C583 0.950 . S
H578 C584 0.949 . S
C579 H574 0.950 . S
C579 C581 1.327 1_655 S
C579 C585 1.433 . S
C580 C572 1.574 . S
C580 H575 0.949 1_655 S
C580 C586 1.368 . S
C581 C565 1.349 . S
C581 H573 0.950 1_455 S
C581 C579 1.327 1_455 S
C582 C570 1.349 . S
C582 H576 0.950 . S
C582 C583 1.327 . S
C583 H577 0.950 . S
C583 C582 1.327 . S
C583 C587 1.429 . S
C584 C567 1.574 . S
C584 H578 0.949 . S
C584 C588 1.368 . S
C585 C566 1.417 1_655 S
C585 C579 1.433 . S
C585 C586 1.530 . S
C586 C567 1.368 . S
C586 C580 1.368 . S
C586 C585 1.530 . S
C587 C571 1.429 . S
C587 C583 1.429 . S
C587 C588 1.523 . S
C588 C572 1.368 . S
C588 C584 1.368 . S
C588 C587 1.523 . S
H589 C564 0.950 . S
H590 C566 0.950 . S
H591 C567 0.949 . S
H592 C569 0.950 . S
H593 C571 0.950 . S
C594 C595 1.349 . S
C594 C596 1.327 . S
C594 H619 0.950 . S
C595 C594 1.349 . S
C595 C611 1.349 . S
C596 C594 1.327 . S
C596 C615 1.429 . S
C596 H620 0.950 . S
C597 C614 1.574 . S
C597 C616 1.368 . S
C597 H621 0.949 . S
H598 C602 0.949 . S
C599 C600 1.349 . S
C599 C601 1.327 . S
C599 H622 0.950 . S
C600 C599 1.349 . S
C600 C612 1.349 . S
C601 C599 1.327 . S
C601 C617 1.429 . S
C601 H623 0.950 . S
C602 H598 0.949 . S
C602 C610 1.574 . S
C602 C618 1.368 . S
H603 C611 0.950 . S
H604 C609 0.950 . S
H605 C610 0.949 . S
H606 C612 0.950 . S
H607 C613 0.950 . S
H608 C614 0.949 . S
C609 H604 0.950 . S
C609 C611 1.327 . S
C609 C615 1.429 . S
C610 C602 1.574 . S
C610 H605 0.949 . S
C610 C616 1.368 . S
C611 C595 1.349 . S
C611 H603 0.950 . S
C611 C609 1.327 . S
C612 C600 1.349 . S
C612 H606 0.950 . S
C612 C613 1.327 . S
C613 H607 0.950 . S
C613 C612 1.327 . S
C613 C617 1.429 . S
C614 C597 1.574 . S
C614 H608 0.949 . S
C614 C618 1.368 . S
C615 C596 1.429 . S
C615 C609 1.429 . S
C615 C616 1.523 . S
C616 C597 1.368 . S
C616 C610 1.368 . S
C616 C615 1.523 . S
C617 C601 1.429 . S
C617 C613 1.429 . S
C617 C618 1.523 . S
C618 C602 1.368 . S
C618 C614 1.368 . S
C618 C617 1.523 . S
H619 C594 0.950 . S
H620 C596 0.950 . S
H621 C597 0.949 . S
H622 C599 0.950 . S
H623 C601 0.950 . S
C624 C625 1.349 . S
C624 C626 1.327 . S
C624 H649 0.950 . S
C625 C624 1.349 . S
C625 C641 1.349 . S
C626 C624 1.327 . S
C626 C645 1.429 . S
C626 H650 0.950 . S
C627 C644 1.574 . S
C627 C646 1.368 . S
C627 H651 0.949 . S
H628 C632 0.949 . S
C629 C630 1.349 . S
C629 C631 1.327 . S
C629 H652 0.950 . S
C630 C629 1.349 . S
C630 C642 1.349 . S
C631 C629 1.327 . S
C631 C647 1.429 . S
C631 H653 0.950 . S
C632 H628 0.949 . S
C632 C640 1.574 . S
C632 C648 1.368 . S
H633 C641 0.950 . S
H634 C639 0.950 . S
H635 C640 0.949 . S
H636 C642 0.950 . S
H637 C643 0.950 . S
H638 C644 0.949 . S
C639 H634 0.950 . S
C639 C641 1.327 . S
C639 C645 1.429 . S
C640 C632 1.574 . S
C640 H635 0.949 . S
C640 C646 1.368 . S
C641 C625 1.349 . S
C641 H633 0.950 . S
C641 C639 1.327 . S
C642 C630 1.349 . S
C642 H636 0.950 . S
C642 C643 1.327 . S
C643 H637 0.950 . S
C643 C642 1.327 . S
C643 C647 1.429 . S
C644 C627 1.574 . S
C644 H638 0.949 . S
C644 C648 1.368 . S
C645 C626 1.429 . S
C645 C639 1.429 . S
C645 C646 1.523 . S
C646 C627 1.368 . S
C646 C640 1.368 . S
C646 C645 1.523 . S
C647 C631 1.429 . S
C647 C643 1.429 . S
C647 C648 1.523 . S
C648 C632 1.368 . S
C648 C644 1.368 . S
C648 C647 1.523 . S
H649 C624 0.950 . S
H650 C626 0.950 . S
H651 C627 0.949 . S
H652 C629 0.950 . S
H653 C631 0.950 . S
C654 C655 1.349 1_655 S
C654 C656 1.327 . S
C654 H679 0.950 . S
C655 C654 1.349 1_455 S
C655 C671 1.349 . S
C656 C654 1.327 . S
C656 C675 1.429 . S
C656 H680 0.950 . S
C657 C674 1.574 . S
C657 C676 1.368 . S
C657 H681 0.949 . S
H658 C662 0.949 . S
C659 C660 1.349 . S
C659 C661 1.327 . S
C659 H682 0.950 . S
C660 C659 1.349 . S
C660 C672 1.349 . S
C661 C659 1.327 . S
C661 C677 1.429 . S
C661 H683 0.950 . S
C662 H658 0.949 . S
C662 C670 1.574 . S
C662 C678 1.368 . S
H663 C671 0.950 . S
H664 C669 0.950 . S
H665 C670 0.949 . S
H666 C672 0.950 . S
H667 C673 0.950 . S
H668 C674 0.949 . S
C669 H664 0.950 . S
C669 C671 1.327 1_655 S
C669 C675 1.429 . S
C670 C662 1.574 . S
C670 H665 0.949 . S
C670 C676 1.368 . S
C671 C655 1.349 . S
C671 H663 0.950 . S
C671 C669 1.327 1_455 S
C672 C660 1.349 . S
C672 H666 0.950 . S
C672 C673 1.327 . S
C673 H667 0.950 . S
C673 C672 1.327 . S
C673 C677 1.429 . S
C674 C657 1.574 . S
C674 H668 0.949 . S
C674 C678 1.368 . S
C675 C656 1.429 . S
C675 C669 1.429 . S
C675 C676 1.523 . S
C676 C657 1.368 . S
C676 C670 1.368 . S
C676 C675 1.523 . S
C677 C661 1.429 . S
C677 C673 1.429 . S
C677 C678 1.523 . S
C678 C662 1.368 . S
C678 C674 1.368 . S
C678 C677 1.523 . S
H679 C654 0.950 . S
H680 C656 0.950 . S
H681 C657 0.949 . S
H682 C659 0.950 . S
H683 C661 0.950 . S
C684 C685 1.349 . S
C684 C686 1.327 . S
C684 H709 0.950 . S
C685 C684 1.349 . S
C685 C701 1.349 . S
C686 C684 1.327 . S
C686 C705 1.429 . S
C686 H710 0.950 . S
C687 C704 1.574 . S
C687 C706 1.368 . S
C687 H711 0.949 . S
H688 C692 0.949 . S
C689 C690 1.349 . S
C689 C691 1.327 . S
C689 H712 0.950 . S
C690 C689 1.349 . S
C690 C702 1.349 . S
C691 C689 1.327 . S
C691 C707 1.429 . S
C691 H713 0.950 . S
C692 H688 0.949 . S
C692 C700 1.574 . S
C692 C708 1.368 . S
H693 C701 0.950 . S
H694 C699 0.950 . S
H695 C700 0.949 . S
H696 C702 0.950 . S
H697 C703 0.950 . S
H698 C704 0.949 . S
C699 H694 0.950 . S
C699 C701 1.327 . S
C699 C705 1.429 . S
C700 C692 1.574 . S
C700 H695 0.949 . S
C700 C706 1.368 . S
C701 C685 1.349 . S
C701 H693 0.950 . S
C701 C699 1.327 . S
C702 C690 1.349 . S
C702 H696 0.950 . S
C702 C703 1.327 . S
C703 H697 0.950 . S
C703 C702 1.327 . S
C703 C707 1.429 . S
C704 C687 1.574 . S
C704 H698 0.949 . S
C704 C708 1.368 . S
C705 C686 1.429 . S
C705 C699 1.429 . S
C705 C706 1.523 . S
C706 C687 1.368 . S
C706 C700 1.368 . S
C706 C705 1.523 . S
C707 C691 1.429 . S
C707 C703 1.429 . S
C707 C708 1.523 . S
C708 C692 1.368 . S
C708 C704 1.368 . S
C708 C707 1.523 . S
H709 C684 0.950 . S
H710 C686 0.950 . S
H711 C687 0.949 . S
H712 C689 0.950 . S
H713 C691 0.950 . S
C714 C715 1.349 . S
C714 C716 1.327 . S
C714 H739 0.950 . S
C715 C714 1.349 . S
C715 C731 1.349 . S
C716 C714 1.327 . S
C716 C735 1.429 . S
C716 H740 0.950 . S
C717 C734 1.574 . S
C717 C736 1.368 . S
C717 H741 0.949 . S
H718 C722 0.949 . S
C719 C720 1.349 . S
C719 C721 1.327 . S
C719 H742 0.950 . S
C720 C719 1.349 . S
C720 C732 1.349 . S
C721 C719 1.327 . S
C721 C737 1.416 1_556 S
C721 H743 0.950 . S
C722 H718 0.949 . S
C722 C730 1.574 . S
C722 C738 1.368 . S
H723 C731 0.950 . S
H724 C729 0.950 . S
H725 C730 0.949 . S
H726 C732 0.950 . S
H727 C733 0.950 1_554 S
H728 C734 0.949 . S
C729 H724 0.950 . S
C729 C731 1.327 . S
C729 C735 1.429 . S
C730 C722 1.574 . S
C730 H725 0.949 . S
C730 C736 1.368 . S
C731 C715 1.349 . S
C731 H723 0.950 . S
C731 C729 1.327 . S
C732 C720 1.349 . S
C732 H726 0.950 . S
C732 C733 1.327 . S
C733 H727 0.950 1_556 S
C733 C732 1.327 . S
C733 C737 1.426 1_556 S
C734 C717 1.574 . S
C734 H728 0.949 . S
C734 C738 1.368 . S
C735 C716 1.429 . S
C735 C729 1.429 . S
C735 C736 1.523 . S
C736 C717 1.368 . S
C736 C730 1.368 . S
C736 C735 1.523 . S
C737 C721 1.416 1_554 S
C737 C733 1.426 1_554 S
C737 C738 1.537 . S
C738 C722 1.368 . S
C738 C734 1.368 . S
C738 C737 1.537 . S
H739 C714 0.950 . S
H740 C716 0.950 . S
H741 C717 0.949 . S
H742 C719 0.950 . S
H743 C721 0.950 . S
C744 C745 1.349 . S
C744 C746 1.327 . S
C744 H769 0.950 . S
C745 C744 1.349 . S
C745 C761 1.349 . S
C746 C744 1.327 . S
C746 C765 1.429 . S
C746 H770 0.950 . S
C747 C764 1.574 . S
C747 C766 1.368 . S
C747 H771 0.949 . S
H748 C752 0.949 . S
C749 C750 1.349 . S
C749 C751 1.327 . S
C749 H772 0.950 . S
C750 C749 1.349 . S
C750 C762 1.349 . S
C751 C749 1.327 . S
C751 C767 1.429 . S
C751 H773 0.950 . S
C752 H748 0.949 . S
C752 C760 1.574 . S
C752 C768 1.368 . S
H753 C761 0.950 . S
H754 C759 0.950 . S
H755 C760 0.949 . S
H756 C762 0.950 . S
H757 C763 0.950 . S
H758 C764 0.949 . S
C759 H754 0.950 . S
C759 C761 1.327 . S
C759 C765 1.429 . S
C760 C752 1.574 . S
C760 H755 0.949 . S
C760 C766 1.368 . S
C761 C745 1.349 . S
C761 H753 0.950 . S
C761 C759 1.327 . S
C762 C750 1.349 . S
C762 H756 0.950 . S
C762 C763 1.327 . S
C763 H757 0.950 . S
C763 C762 1.327 . S
C763 C767 1.429 . S
C764 C747 1.574 . S
C764 H758 0.949 . S
C764 C768 1.368 . S
C765 C746 1.429 . S
C765 C759 1.429 . S
C765 C766 1.523 . S
C766 C747 1.368 . S
C766 C760 1.368 . S
C766 C765 1.523 . S
C767 C751 1.429 . S
C767 C763 1.429 . S
C767 C768 1.523 . S
C768 C752 1.368 . S
C768 C764 1.368 . S
C768 C767 1.523 . S
H769 C744 0.950 . S
H770 C746 0.950 . S
H771 C747 0.949 . S
H772 C749 0.950 . S
H773 C751 0.950 . S
C774 C775 1.349 . S
C774 C776 1.327 . S
C774 H799 0.950 . S
C775 C774 1.349 . S
C775 C791 1.349 . S
C776 C774 1.327 . S
C776 C795 1.408 1_554 S
C776 H800 0.950 . S
C777 C794 1.574 . S
C777 C796 1.368 . S
C777 H801 0.949 . S
H778 C782 0.949 . S
C779 C780 1.349 1_455 S
C779 C781 1.327 . S
C779 H802 0.950 . S
C780 C779 1.349 1_655 S
C780 C792 1.349 . S
C781 C779 1.327 . S
C781 C797 1.429 . S
C781 H803 0.950 . S
C782 H778 0.949 . S
C782 C790 1.574 . S
C782 C798 1.368 . S
H783 C791 0.950 . S
H784 C789 0.950 . S
H785 C790 0.949 1_554 S
H786 C792 0.950 . S
H787 C793 0.950 . S
H788 C794 0.949 . S
C789 H784 0.950 . S
C789 C791 1.327 1_556 S
C789 C795 1.433 . S
C790 C782 1.574 . S
C790 H785 0.949 1_556 S
C790 C796 1.368 . S
C791 C775 1.349 . S
C791 H783 0.950 . S
C791 C789 1.327 1_554 S
C792 C780 1.349 . S
C792 H786 0.950 . S
C792 C793 1.327 1_655 S
C793 H787 0.950 . S
C793 C792 1.327 1_455 S
C793 C797 1.429 . S
C794 C777 1.574 . S
C794 H788 0.949 . S
C794 C798 1.368 . S
C795 C776 1.408 1_556 S
C795 C789 1.433 . S
C795 C796 1.537 . S
C796 C777 1.368 . S
C796 C790 1.368 . S
C796 C795 1.537 . S
C797 C781 1.429 . S
C797 C793 1.429 . S
C797 C798 1.523 . S
C798 C782 1.368 . S
C798 C794 1.368 . S
C798 C797 1.523 . S
H799 C774 0.950 . S
H800 C776 0.950 . S
H801 C777 0.949 . S
H802 C779 0.950 . S
H803 C781 0.950 . S
C804 C805 1.349 . S
C804 C806 1.327 . S
C804 H829 0.950 . S
C805 C804 1.349 . S
C805 C821 1.349 . S
C806 C804 1.327 . S
C806 C825 1.429 . S
C806 H830 0.950 . S
C807 C824 1.574 . S
C807 C826 1.368 . S
C807 H831 0.949 . S
H808 C812 0.949 . S
C809 C810 1.349 . S
C809 C811 1.327 . S
C809 H832 0.950 . S
C810 C809 1.349 . S
C810 C822 1.349 . S
C811 C809 1.327 . S
C811 C827 1.429 . S
C811 H833 0.950 . S
C812 H808 0.949 . S
C812 C820 1.574 . S
C812 C828 1.368 . S
H813 C821 0.950 . S
H814 C819 0.950 . S
H815 C820 0.949 . S
H816 C822 0.950 . S
H817 C823 0.950 . S
H818 C824 0.949 . S
C819 H814 0.950 . S
C819 C821 1.327 . S
C819 C825 1.429 . S
C820 C812 1.574 . S
C820 H815 0.949 . S
C820 C826 1.368 . S
C821 C805 1.349 . S
C821 H813 0.950 . S
C821 C819 1.327 . S
C822 C810 1.349 . S
C822 H816 0.950 . S
C822 C823 1.327 . S
C823 H817 0.950 . S
C823 C822 1.327 . S
C823 C827 1.429 . S
C824 C807 1.574 . S
C824 H818 0.949 . S
C824 C828 1.368 . S
C825 C806 1.429 . S
C825 C819 1.429 . S
C825 C826 1.523 . S
C826 C807 1.368 . S
C826 C820 1.368 . S
C826 C825 1.523 . S
C827 C811 1.429 . S
C827 C823 1.429 . S
C827 C828 1.523 . S
C828 C812 1.368 . S
C828 C824 1.368 . S
C828 C827 1.523 . S
H829 C804 0.950 . S
H830 C806 0.950 . S
H831 C807 0.949 . S
H832 C809 0.950 . S
H833 C811 0.950 . S
C834 C835 1.349 . S
C834 C836 1.327 . S
C834 H859 0.950 . S
C835 C834 1.349 . S
C835 C851 1.349 . S
C836 C834 1.327 . S
C836 C855 1.429 . S
C836 H860 0.950 . S
C837 C854 1.574 . S
C837 C856 1.368 . S
C837 H861 0.949 . S
H838 C842 0.949 . S
C839 C840 1.349 . S
C839 C841 1.327 . S
C839 H862 0.950 . S
C840 C839 1.349 . S
C840 C852 1.349 . S
C841 C839 1.327 . S
C841 C857 1.429 . S
C841 H863 0.950 . S
C842 H838 0.949 . S
C842 C850 1.574 . S
C842 C858 1.368 . S
H843 C851 0.950 . S
H844 C849 0.950 . S
H845 C850 0.949 . S
H846 C852 0.950 . S
H847 C853 0.950 . S
H848 C854 0.949 . S
C849 H844 0.950 . S
C849 C851 1.327 . S
C849 C855 1.429 . S
C850 C842 1.574 . S
C850 H845 0.949 . S
C850 C856 1.368 . S
C851 C835 1.349 . S
C851 H843 0.950 . S
C851 C849 1.327 . S
C852 C840 1.349 . S
C852 H846 0.950 . S
C852 C853 1.327 . S
C853 H847 0.950 . S
C853 C852 1.327 . S
C853 C857 1.429 . S
C854 C837 1.574 . S
C854 H848 0.949 . S
C854 C858 1.368 . S
C855 C836 1.429 . S
C855 C849 1.429 . S
C855 C856 1.523 . S
C856 C837 1.368 . S
C856 C850 1.368 . S
C856 C855 1.523 . S
C857 C841 1.429 . S
C857 C853 1.429 . S
C857 C858 1.523 . S
C858 C842 1.368 . S
C858 C854 1.368 . S
C858 C857 1.523 . S
H859 C834 0.950 . S
H860 C836 0.950 . S
H861 C837 0.949 . S
H862 C839 0.950 . S
H863 C841 0.950 . S
C864 C865 1.349 . S
C864 C866 1.327 . S
C864 H889 0.950 . S
C865 C864 1.349 . S
C865 C881 1.349 . S
C866 C864 1.327 . S
C866 C885 1.429 . S
C866 H890 0.950 . S
C867 C884 1.574 . S
C867 C886 1.368 . S
C867 H891 0.949 . S
H868 C872 0.949 . S
C869 C870 1.349 . S
C869 C871 1.327 . S
C869 H892 0.950 . S
C870 C869 1.349 . S
C870 C882 1.349 . S
C871 C869 1.327 . S
C871 C887 1.429 . S
C871 H893 0.950 . S
C872 H868 0.949 . S
C872 C880 1.574 . S
C872 C888 1.368 . S
H873 C881 0.950 . S
H874 C879 0.950 . S
H875 C880 0.949 . S
H876 C882 0.950 . S
H877 C883 0.950 . S
H878 C884 0.949 . S
C879 H874 0.950 . S
C879 C881 1.327 . S
C879 C885 1.429 . S
C880 C872 1.574 . S
C880 H875 0.949 . S
C880 C886 1.368 . S
C881 C865 1.349 . S
C881 H873 0.950 . S
C881 C879 1.327 . S
C882 C870 1.349 . S
C882 H876 0.950 . S
C882 C883 1.327 . S
C883 H877 0.950 . S
C883 C882 1.327 . S
C883 C887 1.429 . S
C884 C867 1.574 . S
C884 H878 0.949 . S
C884 C888 1.368 . S
C885 C866 1.429 . S
C885 C879 1.429 . S
C885 C886 1.523 . S
C886 C867 1.368 . S
C886 C880 1.368 . S
C886 C885 1.523 . S
C887 C871 1.429 . S
C887 C883 1.429 . S
C887 C888 1.523 . S
C888 C872 1.368 . S
C888 C884 1.368 . S
C888 C887 1.523 . S
H889 C864 0.950 . S
H890 C866 0.950 . S
H891 C867 0.949 . S
H892 C869 0.950 . S
H893 C871 0.950 . S
C894 C895 1.349 . S
C894 C896 1.327 . S
C894 H919 0.950 . S
C895 C894 1.349 . S
C895 C911 1.349 . S
C896 C894 1.327 . S
C896 C915 1.429 . S
C896 H920 0.950 . S
C897 C914 1.574 . S
C897 C916 1.368 . S
C897 H921 0.949 . S
H898 C902 0.949 . S
C899 C900 1.349 . S
C899 C901 1.327 . S
C899 H922 0.950 . S
C900 C899 1.349 . S
C900 C912 1.349 . S
C901 C899 1.327 . S
C901 C917 1.417 1_565 S
C901 H923 0.950 . S
C902 H898 0.949 . S
C902 C910 1.574 . S
C902 C918 1.368 . S
H903 C911 0.950 . S
H904 C909 0.950 . S
H905 C910 0.949 . S
H906 C912 0.950 . S
H907 C913 0.950 1_545 S
H908 C914 0.949 . S
C909 H904 0.950 . S
C909 C911 1.327 . S
C909 C915 1.429 . S
C910 C902 1.574 . S
C910 H905 0.949 . S
C910 C916 1.368 . S
C911 C895 1.349 . S
C911 H903 0.950 . S
C911 C909 1.327 . S
C912 C900 1.349 . S
C912 H906 0.950 . S
C912 C913 1.327 . S
C913 H907 0.950 1_565 S
C913 C912 1.327 . S
C913 C917 1.425 1_565 S
C914 C897 1.574 . S
C914 H908 0.949 . S
C914 C918 1.368 . S
C915 C896 1.429 . S
C915 C909 1.429 . S
C915 C916 1.523 . S
C916 C897 1.368 . S
C916 C910 1.368 . S
C916 C915 1.523 . S
C917 C901 1.417 1_545 S
C917 C913 1.425 1_545 S
C917 C918 1.537 . S
C918 C902 1.368 . S
C918 C914 1.368 . S
C918 C917 1.537 . S
H919 C894 0.950 . S
H920 C896 0.950 . S
H921 C897 0.949 . S
H922 C899 0.950 . S
H923 C901 0.950 . S
C924 C925 1.349 . S
C924 C926 1.327 . S
C924 H949 0.950 . S
C925 C924 1.349 . S
C925 C941 1.349 . S
C926 C924 1.327 . S
C926 C945 1.429 . S
C926 H950 0.950 . S
C927 C944 1.574 . S
C927 C946 1.368 . S
C927 H951 0.949 . S
H928 C932 0.949 . S
C929 C930 1.349 . S
C929 C931 1.327 . S
C929 H952 0.950 . S
C930 C929 1.349 . S
C930 C942 1.349 . S
C931 C929 1.327 . S
C931 C947 1.429 . S
C931 H953 0.950 . S
C932 H928 0.949 . S
C932 C940 1.574 . S
C932 C948 1.368 . S
H933 C941 0.950 . S
H934 C939 0.950 . S
H935 C940 0.949 . S
H936 C942 0.950 . S
H937 C943 0.950 . S
H938 C944 0.949 . S
C939 H934 0.950 . S
C939 C941 1.327 . S
C939 C945 1.429 . S
C940 C932 1.574 . S
C940 H935 0.949 . S
C940 C946 1.368 . S
C941 C925 1.349 . S
C941 H933 0.950 . S
C941 C939 1.327 . S
C942 C930 1.349 . S
C942 H936 0.950 . S
C942 C943 1.327 . S
C943 H937 0.950 . S
C943 C942 1.327 . S
C943 C947 1.429 . S
C944 C927 1.574 . S
C944 H938 0.949 . S
C944 C948 1.368 . S
C945 C926 1.429 . S
C945 C939 1.429 . S
C945 C946 1.523 . S
C946 C927 1.368 . S
C946 C940 1.368 . S
C946 C945 1.523 . S
C947 C931 1.429 . S
C947 C943 1.429 . S
C947 C948 1.523 . S
C948 C932 1.368 . S
C948 C944 1.368 . S
C948 C947 1.523 . S
H949 C924 0.950 . S
H950 C926 0.950 . S
H951 C927 0.949 . S
H952 C929 0.950 . S
H953 C931 0.950 . S
C954 C955 1.349 . S
C954 C956 1.327 . S
C954 H979 0.950 . S
C955 C954 1.349 . S
C955 C971 1.349 . S
C956 C954 1.327 . S
C956 C975 1.412 1_545 S
C956 H980 0.950 . S
C957 C974 1.574 . S
C957 C976 1.368 . S
C957 H981 0.949 . S
H958 C962 0.949 . S
C959 C960 1.349 1_554 S
C959 C961 1.327 . S
C959 H982 0.950 . S
C960 C959 1.349 1_556 S
C960 C972 1.349 . S
C961 C959 1.327 . S
C961 C977 1.429 . S
C961 H983 0.950 . S
C962 H958 0.949 . S
C962 C970 1.574 . S
C962 C978 1.368 . S
H963 C971 0.950 . S
H964 C969 0.950 . S
H965 C970 0.976 . S
H966 C972 0.950 . S
H967 C973 0.950 . S
H968 C974 0.949 . S
C969 H964 0.950 . S
C969 C971 1.327 1_565 S
C969 C975 1.430 . S
C970 C962 1.574 . S
C970 H965 0.976 . S
C970 C976 1.368 . S
C971 C955 1.349 . S
C971 H963 0.950 . S
C971 C969 1.327 1_545 S
C972 C960 1.349 . S
C972 H966 0.950 . S
C972 C973 1.327 1_556 S
C973 H967 0.950 . S
C973 C972 1.327 1_554 S
C973 C977 1.429 . S
C974 C957 1.574 . S
C974 H968 0.949 . S
C974 C978 1.368 . S
C975 C956 1.412 1_565 S
C975 C969 1.430 . S
C975 C976 1.537 . S
C976 C957 1.368 . S
C976 C970 1.368 . S
C976 C975 1.537 . S
C977 C961 1.429 . S
C977 C973 1.429 . S
C977 C978 1.523 . S
C978 C962 1.368 . S
C978 C974 1.368 . S
C978 C977 1.523 . S
H979 C954 0.950 . S
H980 C956 0.950 . S
H981 C957 0.949 . S
H982 C959 0.950 . S
H983 C961 0.950 . S
C984 C985 1.349 . S
C984 C986 1.327 . S
C984 H1009 0.950 . S
C985 C984 1.349 . S
C985 C1001 1.349 . S
C986 C984 1.327 . S
C986 C1005 1.429 . S
C986 H1010 0.950 . S
C987 C1004 1.574 . S
C987 C1006 1.368 . S
C987 H1011 0.949 . S
H988 C992 0.949 . S
C989 C990 1.349 . S
C989 C991 1.327 . S
C989 H1012 0.950 . S
C990 C989 1.349 . S
C990 C1002 1.349 . S
C991 C989 1.327 . S
C991 C1007 1.429 . S
C991 H1013 0.950 . S
C992 H988 0.949 . S
C992 C1000 1.574 . S
C992 C1008 1.368 . S
H993 C1001 0.950 . S
H994 C999 0.950 . S
H995 C1000 0.949 . S
H996 C1002 0.950 . S
H997 C1003 0.950 . S
H998 C1004 0.949 . S
C999 H994 0.950 . S
C999 C1001 1.327 . S
C999 C1005 1.429 . S
C1000 C992 1.574 . S
C1000 H995 0.949 . S
C1000 C1006 1.368 . S
C1001 C985 1.349 . S
C1001 H993 0.950 . S
C1001 C999 1.327 . S
C1002 C990 1.349 . S
C1002 H996 0.950 . S
C1002 C1003 1.327 . S
C1003 H997 0.950 . S
C1003 C1002 1.327 . S
C1003 C1007 1.429 . S
C1004 C987 1.574 . S
C1004 H998 0.949 . S
C1004 C1008 1.368 . S
C1005 C986 1.429 . S
C1005 C999 1.429 . S
C1005 C1006 1.523 . S
C1006 C987 1.368 . S
C1006 C1000 1.368 . S
C1006 C1005 1.523 . S
C1007 C991 1.429 . S
C1007 C1003 1.429 . S
C1007 C1008 1.523 . S
C1008 C992 1.368 . S
C1008 C1004 1.368 . S
C1008 C1007 1.523 . S
H1009 C984 0.950 . S
H1010 C986 0.950 . S
H1011 C987 0.949 . S
H1012 C989 0.950 . S
H1013 C991 0.950 . S
C1014 C1015 1.349 . S
C1014 C1016 1.327 . S
C1014 H1039 0.950 . S
C1015 C1014 1.349 . S
C1015 C1031 1.349 . S
C1016 C1014 1.327 . S
C1016 C1035 1.429 . S
C1016 H1040 0.950 . S
C1017 C1034 1.574 . S
C1017 C1036 1.368 . S
C1017 H1041 0.949 . S
H1018 C1022 0.949 . S
C1019 C1020 1.349 1_556 S
C1019 C1021 1.327 . S
C1019 H1042 0.950 . S
C1020 C1019 1.349 1_554 S
C1020 C1032 1.349 . S
C1021 C1019 1.327 . S
C1021 C1037 1.429 . S
C1021 H1043 0.950 . S
C1022 H1018 0.949 . S
C1022 C1030 1.574 . S
C1022 C1038 1.368 . S
H1023 C1031 0.950 . S
H1024 C1029 0.950 . S
H1025 C1030 0.949 . S
H1026 C1032 0.950 . S
H1027 C1033 0.950 . S
H1028 C1034 0.949 . S
C1029 H1024 0.950 . S
C1029 C1031 1.327 . S
C1029 C1035 1.429 . S
C1030 C1022 1.574 . S
C1030 H1025 0.949 . S
C1030 C1036 1.368 . S
C1031 C1015 1.349 . S
C1031 H1023 0.950 . S
C1031 C1029 1.327 . S
C1032 C1020 1.349 . S
C1032 H1026 0.950 . S
C1032 C1033 1.327 1_554 S
C1033 H1027 0.950 . S
C1033 C1032 1.327 1_556 S
C1033 C1037 1.429 . S
C1034 C1017 1.574 . S
C1034 H1028 0.949 . S
C1034 C1038 1.368 . S
C1035 C1016 1.429 . S
C1035 C1029 1.429 . S
C1035 C1036 1.523 . S
C1036 C1017 1.368 . S
C1036 C1030 1.368 . S
C1036 C1035 1.523 . S
C1037 C1021 1.429 . S
C1037 C1033 1.429 . S
C1037 C1038 1.523 . S
C1038 C1022 1.368 . S
C1038 C1034 1.368 . S
C1038 C1037 1.523 . S
H1039 C1014 0.950 . S
H1040 C1016 0.950 . S
H1041 C1017 0.949 . S
H1042 C1019 0.950 . S
H1043 C1021 0.950 . S
C1044 C1045 1.349 . S
C1044 C1046 1.327 . S
C1044 H1069 0.950 . S
C1045 C1044 1.349 . S
C1045 C1061 1.349 . S
C1046 C1044 1.327 . S
C1046 C1065 1.429 . S
C1046 H1070 0.950 . S
C1047 C1064 1.574 . S
C1047 C1066 1.368 . S
C1047 H1071 0.949 . S
H1048 C1052 0.949 . S
C1049 C1050 1.349 . S
C1049 C1051 1.327 . S
C1049 H1072 0.950 . S
C1050 C1049 1.349 . S
C1050 C1062 1.349 . S
C1051 C1049 1.327 . S
C1051 C1067 1.429 . S
C1051 H1073 0.950 . S
C1052 H1048 0.949 . S
C1052 C1060 1.574 . S
C1052 C1068 1.368 . S
H1053 C1061 0.950 . S
H1054 C1059 0.950 . S
H1055 C1060 0.949 . S
H1056 C1062 0.950 . S
H1057 C1063 0.950 . S
H1058 C1064 0.949 . S
C1059 H1054 0.950 . S
C1059 C1061 1.327 . S
C1059 C1065 1.429 . S
C1060 C1052 1.574 . S
C1060 H1055 0.949 . S
C1060 C1066 1.368 . S
C1061 C1045 1.349 . S
C1061 H1053 0.950 . S
C1061 C1059 1.327 . S
C1062 C1050 1.349 . S
C1062 H1056 0.950 . S
C1062 C1063 1.327 . S
C1063 H1057 0.950 . S
C1063 C1062 1.327 . S
C1063 C1067 1.429 . S
C1064 C1047 1.574 . S
C1064 H1058 0.949 . S
C1064 C1068 1.368 . S
C1065 C1046 1.429 . S
C1065 C1059 1.429 . S
C1065 C1066 1.523 . S
C1066 C1047 1.368 . S
C1066 C1060 1.368 . S
C1066 C1065 1.523 . S
C1067 C1051 1.429 . S
C1067 C1063 1.429 . S
C1067 C1068 1.523 . S
C1068 C1052 1.368 . S
C1068 C1064 1.368 . S
C1068 C1067 1.523 . S
H1069 C1044 0.950 . S
H1070 C1046 0.950 . S
H1071 C1047 0.949 . S
H1072 C1049 0.950 . S
H1073 C1051 0.950 . S
C1074 C1075 1.349 . S
C1074 C1076 1.327 . S
C1074 H1099 0.950 . S
C1075 C1074 1.349 . S
C1075 C1091 1.349 . S
C1076 C1074 1.327 . S
C1076 C1095 1.429 . S
C1076 H1100 0.950 . S
C1077 C1094 1.574 . S
C1077 C1096 1.368 . S
C1077 H1101 0.949 . S
H1078 C1082 0.949 . S
C1079 C1080 1.349 . S
C1079 C1081 1.327 . S
C1079 H1102 0.950 . S
C1080 C1079 1.349 . S
C1080 C1092 1.349 . S
C1081 C1079 1.327 . S
C1081 C1097 1.429 . S
C1081 H1103 0.950 . S
C1082 H1078 0.949 . S
C1082 C1090 1.574 . S
C1082 C1098 1.368 . S
H1083 C1091 0.950 . S
H1084 C1089 0.950 . S
H1085 C1090 0.949 . S
H1086 C1092 0.950 . S
H1087 C1093 0.950 . S
H1088 C1094 0.949 . S
C1089 H1084 0.950 . S
C1089 C1091 1.327 . S
C1089 C1095 1.429 . S
C1090 C1082 1.574 . S
C1090 H1085 0.949 . S
C1090 C1096 1.368 . S
C1091 C1075 1.349 . S
C1091 H1083 0.950 . S
C1091 C1089 1.327 . S
C1092 C1080 1.349 . S
C1092 H1086 0.950 . S
C1092 C1093 1.327 . S
C1093 H1087 0.950 . S
C1093 C1092 1.327 . S
C1093 C1097 1.429 . S
C1094 C1077 1.574 . S
C1094 H1088 0.949 . S
C1094 C1098 1.368 . S
C1095 C1076 1.429 . S
C1095 C1089 1.429 . S
C1095 C1096 1.523 . S
C1096 C1077 1.368 . S
C1096 C1090 1.368 . S
C1096 C1095 1.523 . S
C1097 C1081 1.429 . S
C1097 C1093 1.429 . S
C1097 C1098 1.523 . S
C1098 C1082 1.368 . S
C1098 C1094 1.368 . S
C1098 C1097 1.523 . S
H1099 C1074 0.950 . S
H1100 C1076 0.950 . S
H1101 C1077 0.949 . S
H1102 C1079 0.950 . S
H1103 C1081 0.950 . S
C1104 C1105 1.349 . S
C1104 C1106 1.327 . S
C1104 H1129 0.950 . S
C1105 C1104 1.349 . S
C1105 C1121 1.349 . S
C1106 C1104 1.327 . S
C1106 C1125 1.429 . S
C1106 H1130 0.950 . S
C1107 C1124 1.574 . S
C1107 C1126 1.368 . S
C1107 H1131 0.949 . S
H1108 C1112 0.949 . S
C1109 C1110 1.349 . S
C1109 C1111 1.327 . S
C1109 H1132 0.950 . S
C1110 C1109 1.349 . S
C1110 C1122 1.349 . S
C1111 C1109 1.327 . S
C1111 C1127 1.429 . S
C1111 H1133 0.950 . S
C1112 H1108 0.949 . S
C1112 C1120 1.574 . S
C1112 C1128 1.368 . S
H1113 C1121 0.950 . S
H1114 C1119 0.950 . S
H1115 C1120 0.949 . S
H1116 C1122 0.950 . S
H1117 C1123 0.950 . S
H1118 C1124 0.949 . S
C1119 H1114 0.950 . S
C1119 C1121 1.327 . S
C1119 C1125 1.429 . S
C1120 C1112 1.574 . S
C1120 H1115 0.949 . S
C1120 C1126 1.368 . S
C1121 C1105 1.349 . S
C1121 H1113 0.950 . S
C1121 C1119 1.327 . S
C1122 C1110 1.349 . S
C1122 H1116 0.950 . S
C1122 C1123 1.327 . S
C1123 H1117 0.950 . S
C1123 C1122 1.327 . S
C1123 C1127 1.429 . S
C1124 C1107 1.574 . S
C1124 H1118 0.949 . S
C1124 C1128 1.368 . S
C1125 C1106 1.429 . S
C1125 C1119 1.429 . S
C1125 C1126 1.523 . S
C1126 C1107 1.368 . S
C1126 C1120 1.368 . S
C1126 C1125 1.523 . S
C1127 C1111 1.429 . S
C1127 C1123 1.429 . S
C1127 C1128 1.523 . S
C1128 C1112 1.368 . S
C1128 C1124 1.368 . S
C1128 C1127 1.523 . S
H1129 C1104 0.950 . S
H1130 C1106 0.950 . S
H1131 C1107 0.949 . S
H1132 C1109 0.950 . S
H1133 C1111 0.950 . S
C1134 C1135 1.349 . S
C1134 C1136 1.327 . S
C1134 H1159 0.950 . S
C1135 C1134 1.349 . S
C1135 C1151 1.349 . S
C1136 C1134 1.327 . S
C1136 C1155 1.429 . S
C1136 H1160 0.950 . S
C1137 C1154 1.574 . S
C1137 C1156 1.368 . S
C1137 H1161 0.949 . S
H1138 C1142 0.949 . S
C1139 C1140 1.349 . S
C1139 C1141 1.327 . S
C1139 H1162 0.950 . S
C1140 C1139 1.349 . S
C1140 C1152 1.349 . S
C1141 C1139 1.327 . S
C1141 C1157 1.429 . S
C1141 H1163 0.950 . S
C1142 H1138 0.949 . S
C1142 C1150 1.574 . S
C1142 C1158 1.368 . S
H1143 C1151 0.950 . S
H1144 C1149 0.950 . S
H1145 C1150 0.949 . S
H1146 C1152 0.950 . S
H1147 C1153 0.950 . S
H1148 C1154 0.949 . S
C1149 H1144 0.950 . S
C1149 C1151 1.327 . S
C1149 C1155 1.429 . S
C1150 C1142 1.574 . S
C1150 H1145 0.949 . S
C1150 C1156 1.368 . S
C1151 C1135 1.349 . S
C1151 H1143 0.950 . S
C1151 C1149 1.327 . S
C1152 C1140 1.349 . S
C1152 H1146 0.950 . S
C1152 C1153 1.327 . S
C1153 H1147 0.950 . S
C1153 C1152 1.327 . S
C1153 C1157 1.429 . S
C1154 C1137 1.574 . S
C1154 H1148 0.949 . S
C1154 C1158 1.368 . S
C1155 C1136 1.429 . S
C1155 C1149 1.429 . S
C1155 C1156 1.523 . S
C1156 C1137 1.368 . S
C1156 C1150 1.368 . S
C1156 C1155 1.523 . S
C1157 C1141 1.429 . S
C1157 C1153 1.429 . S
C1157 C1158 1.523 . S
C1158 C1142 1.368 . S
C1158 C1154 1.368 . S
C1158 C1157 1.523 . S
H1159 C1134 0.950 . S
H1160 C1136 0.950 . S
H1161 C1137 0.949 . S
H1162 C1139 0.950 . S
H1163 C1141 0.950 . S
C1164 C1165 1.349 . S
C1164 C1166 1.327 . S
C1164 H1189 0.950 . S
C1165 C1164 1.349 . S
C1165 C1181 1.349 . S
C1166 C1164 1.327 . S
C1166 C1185 1.429 . S
C1166 H1190 0.950 . S
C1167 C1184 1.574 . S
C1167 C1186 1.368 . S
C1167 H1191 0.949 . S
H1168 C1172 0.949 1_655 S
C1169 C1170 1.349 . S
C1169 C1171 1.327 1_655 S
C1169 H1192 0.950 . S
C1170 C1169 1.349 . S
C1170 C1182 1.349 . S
C1171 C1169 1.327 1_455 S
C1171 C1187 1.431 . S
C1171 H1193 0.950 . S
C1172 H1168 0.949 1_455 S
C1172 C1180 1.574 . S
C1172 C1188 1.368 . S
H1173 C1181 0.950 . S
H1174 C1179 0.950 . S
H1175 C1180 0.949 . S
H1176 C1182 0.950 . S
H1177 C1183 0.950 . S
H1178 C1184 0.949 . S
C1179 H1174 0.950 . S
C1179 C1181 1.327 . S
C1179 C1185 1.429 . S
C1180 C1172 1.574 . S
C1180 H1175 0.949 . S
C1180 C1186 1.368 . S
C1181 C1165 1.349 . S
C1181 H1173 0.950 . S
C1181 C1179 1.327 . S
C1182 C1170 1.349 . S
C1182 H1176 0.950 . S
C1182 C1183 1.327 . S
C1183 H1177 0.950 . S
C1183 C1182 1.327 . S
C1183 C1187 1.411 1_655 S
C1184 C1167 1.574 . S
C1184 H1178 0.949 . S
C1184 C1188 1.368 . S
C1185 C1166 1.429 . S
C1185 C1179 1.429 . S
C1185 C1186 1.523 . S
C1186 C1167 1.368 . S
C1186 C1180 1.368 . S
C1186 C1185 1.523 . S
C1187 C1171 1.431 . S
C1187 C1183 1.411 1_455 S
C1187 C1188 1.537 . S
C1188 C1172 1.368 . S
C1188 C1184 1.368 . S
C1188 C1187 1.537 . S
H1189 C1164 0.950 . S
H1190 C1166 0.950 . S
H1191 C1167 0.949 . S
H1192 C1169 0.950 . S
H1193 C1171 0.950 . S
C1194 C1195 1.349 . S
C1194 C1196 1.327 . S
C1194 H1219 0.950 . S
C1195 C1194 1.349 . S
C1195 C1211 1.349 . S
C1196 C1194 1.327 . S
C1196 C1215 1.429 . S
C1196 H1220 0.950 . S
C1197 C1214 1.574 . S
C1197 C1216 1.368 . S
C1197 H1221 0.949 . S
H1198 C1202 0.949 . S
C1199 C1200 1.349 . S
C1199 C1201 1.327 . S
C1199 H1222 0.950 . S
C1200 C1199 1.349 . S
C1200 C1212 1.349 . S
C1201 C1199 1.327 . S
C1201 C1217 1.429 . S
C1201 H1223 0.950 . S
C1202 H1198 0.949 . S
C1202 C1210 1.574 . S
C1202 C1218 1.368 . S
H1203 C1211 0.950 . S
H1204 C1209 0.950 . S
H1205 C1210 0.949 . S
H1206 C1212 0.950 . S
H1207 C1213 0.950 . S
H1208 C1214 0.949 . S
C1209 H1204 0.950 . S
C1209 C1211 1.327 . S
C1209 C1215 1.429 . S
C1210 C1202 1.574 . S
C1210 H1205 0.949 . S
C1210 C1216 1.368 . S
C1211 C1195 1.349 . S
C1211 H1203 0.950 . S
C1211 C1209 1.327 . S
C1212 C1200 1.349 . S
C1212 H1206 0.950 . S
C1212 C1213 1.327 . S
C1213 H1207 0.950 . S
C1213 C1212 1.327 . S
C1213 C1217 1.429 . S
C1214 C1197 1.574 . S
C1214 H1208 0.949 . S
C1214 C1218 1.368 . S
C1215 C1196 1.429 . S
C1215 C1209 1.429 . S
C1215 C1216 1.523 . S
C1216 C1197 1.368 . S
C1216 C1210 1.368 . S
C1216 C1215 1.523 . S
C1217 C1201 1.429 . S
C1217 C1213 1.429 . S
C1217 C1218 1.523 . S
C1218 C1202 1.368 . S
C1218 C1214 1.368 . S
C1218 C1217 1.523 . S
H1219 C1194 0.950 . S
H1220 C1196 0.950 . S
H1221 C1197 0.949 . S
H1222 C1199 0.950 . S
H1223 C1201 0.950 . S
C1224 C1225 1.349 . S
C1224 C1226 1.327 . S
C1224 H1249 0.950 . S
C1225 C1224 1.349 . S
C1225 C1241 1.349 . S
C1226 C1224 1.327 . S
C1226 C1245 1.429 . S
C1226 H1250 0.950 . S
C1227 C1244 1.574 . S
C1227 C1246 1.368 . S
C1227 H1251 0.949 . S
H1228 C1232 0.949 . S
C1229 C1230 1.349 . S
C1229 C1231 1.327 . S
C1229 H1252 0.950 . S
C1230 C1229 1.349 . S
C1230 C1242 1.349 . S
C1231 C1229 1.327 . S
C1231 C1247 1.429 . S
C1231 H1253 0.950 . S
C1232 H1228 0.949 . S
C1232 C1240 1.574 . S
C1232 C1248 1.368 . S
H1233 C1241 0.950 . S
H1234 C1239 0.950 . S
H1235 C1240 0.949 . S
H1236 C1242 0.950 . S
H1237 C1243 0.950 . S
H1238 C1244 0.949 . S
C1239 H1234 0.950 . S
C1239 C1241 1.327 . S
C1239 C1245 1.429 . S
C1240 C1232 1.574 . S
C1240 H1235 0.949 . S
C1240 C1246 1.368 . S
C1241 C1225 1.349 . S
C1241 H1233 0.950 . S
C1241 C1239 1.327 . S
C1242 C1230 1.349 . S
C1242 H1236 0.950 . S
C1242 C1243 1.327 . S
C1243 H1237 0.950 . S
C1243 C1242 1.327 . S
C1243 C1247 1.429 . S
C1244 C1227 1.574 . S
C1244 H1238 0.949 . S
C1244 C1248 1.368 . S
C1245 C1226 1.429 . S
C1245 C1239 1.429 . S
C1245 C1246 1.523 . S
C1246 C1227 1.368 . S
C1246 C1240 1.368 . S
C1246 C1245 1.523 . S
C1247 C1231 1.429 . S
C1247 C1243 1.429 . S
C1247 C1248 1.523 . S
C1248 C1232 1.368 . S
C1248 C1244 1.368 . S
C1248 C1247 1.523 . S
H1249 C1224 0.950 . S
H1250 C1226 0.950 . S
H1251 C1227 0.949 . S
H1252 C1229 0.950 . S
H1253 C1231 0.950 . S
C1254 C1255 1.349 . S
C1254 C1256 1.327 . S
C1254 H1279 0.950 . S
C1255 C1254 1.349 . S
C1255 C1271 1.349 . S
C1256 C1254 1.327 . S
C1256 C1275 1.429 . S
C1256 H1280 0.950 . S
C1257 C1274 1.574 . S
C1257 C1276 1.368 . S
C1257 H1281 0.949 . S
H1258 C1262 0.949 . S
C1259 C1260 1.349 . S
C1259 C1261 1.327 . S
C1259 H1282 0.950 . S
C1260 C1259 1.349 . S
C1260 C1272 1.349 . S
C1261 C1259 1.327 . S
C1261 C1277 1.429 . S
C1261 H1283 0.950 . S
C1262 H1258 0.949 . S
C1262 C1270 1.574 . S
C1262 C1278 1.368 . S
H1263 C1271 0.950 . S
H1264 C1269 0.950 . S
H1265 C1270 0.949 . S
H1266 C1272 0.950 . S
H1267 C1273 0.950 . S
H1268 C1274 0.949 . S
C1269 H1264 0.950 . S
C1269 C1271 1.327 . S
C1269 C1275 1.429 . S
C1270 C1262 1.574 . S
C1270 H1265 0.949 . S
C1270 C1276 1.368 . S
C1271 C1255 1.349 . S
C1271 H1263 0.950 . S
C1271 C1269 1.327 . S
C1272 C1260 1.349 . S
C1272 H1266 0.950 . S
C1272 C1273 1.327 . S
C1273 H1267 0.950 . S
C1273 C1272 1.327 . S
C1273 C1277 1.429 . S
C1274 C1257 1.574 . S
C1274 H1268 0.949 . S
C1274 C1278 1.368 . S
C1275 C1256 1.429 . S
C1275 C1269 1.429 . S
C1275 C1276 1.523 . S
C1276 C1257 1.368 . S
C1276 C1270 1.368 . S
C1276 C1275 1.523 . S
C1277 C1261 1.429 . S
C1277 C1273 1.429 . S
C1277 C1278 1.523 . S
C1278 C1262 1.368 . S
C1278 C1274 1.368 . S
C1278 C1277 1.523 . S
H1279 C1254 0.950 . S
H1280 C1256 0.950 . S
H1281 C1257 0.949 . S
H1282 C1259 0.950 . S
H1283 C1261 0.950 . S
C1284 C1285 1.349 . S
C1284 C1286 1.327 . S
C1284 H1309 0.950 . S
C1285 C1284 1.349 . S
C1285 C1301 1.349 . S
C1286 C1284 1.327 . S
C1286 C1305 1.429 . S
C1286 H1310 0.950 . S
C1287 C1304 1.574 . S
C1287 C1306 1.368 . S
C1287 H1311 0.949 . S
H1288 C1292 0.949 . S
C1289 C1290 1.349 1_565 S
C1289 C1291 1.327 . S
C1289 H1312 0.950 1_565 S
C1290 C1289 1.349 1_545 S
C1290 C1302 1.349 1_545 S
C1291 C1289 1.327 . S
C1291 C1307 1.429 . S
C1291 H1313 0.950 . S
C1292 H1288 0.949 . S
C1292 C1300 1.574 . S
C1292 C1308 1.368 . S
H1293 C1301 0.950 . S
H1294 C1299 0.950 . S
H1295 C1300 0.949 . S
H1296 C1302 0.950 . S
H1297 C1303 0.950 . S
H1298 C1304 0.949 . S
C1299 H1294 0.950 . S
C1299 C1301 1.327 . S
C1299 C1305 1.429 . S
C1300 C1292 1.574 . S
C1300 H1295 0.949 . S
C1300 C1306 1.368 . S
C1301 C1285 1.349 . S
C1301 H1293 0.950 . S
C1301 C1299 1.327 . S
C1302 C1290 1.349 1_565 S
C1302 H1296 0.950 . S
C1302 C1303 1.327 . S
C1303 H1297 0.950 . S
C1303 C1302 1.327 . S
C1303 C1307 1.429 . S
C1304 C1287 1.574 . S
C1304 H1298 0.949 . S
C1304 C1308 1.368 . S
C1305 C1286 1.429 . S
C1305 C1299 1.429 . S
C1305 C1306 1.523 . S
C1306 C1287 1.368 . S
C1306 C1300 1.368 . S
C1306 C1305 1.523 . S
C1307 C1291 1.429 . S
C1307 C1303 1.429 . S
C1307 C1308 1.523 . S
C1308 C1292 1.368 . S
C1308 C1304 1.368 . S
C1308 C1307 1.523 . S
H1309 C1284 0.950 . S
H1310 C1286 0.950 . S
H1311 C1287 0.949 . S
H1312 C1289 0.950 1_545 S
H1313 C1291 0.950 . S
C1314 C1315 1.349 . S
C1314 C1316 1.327 1_565 S
C1314 H1339 0.950 . S
C1315 C1314 1.349 . S
C1315 C1331 1.349 1_565 S
C1316 C1314 1.327 1_545 S
C1316 C1335 1.429 . S
C1316 H1340 0.950 . S
C1317 C1334 1.574 . S
C1317 C1336 1.368 . S
C1317 H1341 0.949 . S
H1318 C1322 0.945 1_455 S
C1319 C1320 1.349 . S
C1319 C1321 1.327 1_455 S
C1319 H1342 0.950 . S
C1320 C1319 1.349 . S
C1320 C1332 1.349 . S
C1321 C1319 1.327 1_655 S
C1321 C1337 1.430 . S
C1321 H1343 0.950 . S
C1322 H1318 0.945 1_655 S
C1322 C1330 1.574 . S
C1322 C1338 1.368 . S
H1323 C1331 0.950 . S
H1324 C1329 0.950 . S
H1325 C1330 0.949 . S
H1326 C1332 0.950 . S
H1327 C1333 0.950 . S
H1328 C1334 0.949 . S
C1329 H1324 0.950 . S
C1329 C1331 1.327 . S
C1329 C1335 1.429 . S
C1330 C1322 1.574 . S
C1330 H1325 0.949 . S
C1330 C1336 1.368 . S
C1331 C1315 1.349 1_545 S
C1331 H1323 0.950 . S
C1331 C1329 1.327 . S
C1332 C1320 1.349 . S
C1332 H1326 0.950 . S
C1332 C1333 1.327 . S
C1333 H1327 0.950 . S
C1333 C1332 1.327 . S
C1333 C1337 1.412 1_455 S
C1334 C1317 1.574 . S
C1334 H1328 0.949 . S
C1334 C1338 1.368 . S
C1335 C1316 1.429 . S
C1335 C1329 1.429 . S
C1335 C1336 1.523 . S
C1336 C1317 1.368 . S
C1336 C1330 1.368 . S
C1336 C1335 1.523 . S
C1337 C1321 1.430 . S
C1337 C1333 1.412 1_655 S
C1337 C1338 1.537 . S
C1338 C1322 1.368 . S
C1338 C1334 1.368 . S
C1338 C1337 1.537 . S
H1339 C1314 0.950 . S
H1340 C1316 0.950 . S
H1341 C1317 0.949 . S
H1342 C1319 0.950 . S
H1343 C1321 0.950 . S
C265 C6 0.975 . S
C270 C248 0.975 . S
C295 C203 0.975 . S
C300 C31 0.975 . S
C325 C51 0.975 . S
C330 C181 0.975 . S
C355 C75 0.975 . S
C360 C229 0.975 . S
C385 C93 0.975 . S
C390 C226 0.975 . S
C415 C115 0.975 . S
C420 C251 0.975 . S
C445 C205 0.975 . S
C450 C139 0.975 . S
C475 C161 0.975 . S
C480 C183 0.975 . S
C505 C72 0.975 . S
C510 C95 0.975 . S
C535 C9 0.975 . S
C540 C117 0.975 . S
C565 C28 0.975 . S
C570 C137 0.975 . S
C595 C159 0.975 . S
C600 C49 0.975 . S
C625 C4 1.263 . S
C630 C185 1.239 . S
C655 C29 1.263 . S
C660 C225 1.239 . S
C685 C250 1.239 . S
C690 C52 1.263 . S
C715 C73 1.263 . S
C720 C207 1.239 . S
C745 C94 1.263 . S
C750 C202 1.239 . S
C775 C180 1.239 . S
C780 C116 1.263 . S
C805 C228 1.239 . S
C810 C140 1.263 . S
C835 C247 1.239 . S
C840 C162 1.263 . S
C865 C5 1.239 . S
C870 C70 1.263 . S
C895 C7 1.263 . S
C900 C30 1.239 . S
C925 C26 1.263 . S
C930 C53 1.239 . S
C955 C74 1.239 . S
C960 C50 1.263 . S
C985 C118 1.263 . S
C990 C92 1.239 . S
C1015 C114 1.239 . S
C1020 C138 1.263 . S
C1045 C141 1.239 . S
C1050 C160 1.263 . S
C1075 C96 1.263 . S
C1080 C163 1.239 . S
C1105 C184 1.263 . S
C1110 C71 1.239 . S
C1135 C119 1.239 . S
C1140 C204 1.263 . S
C1165 C182 1.263 . S
C1170 C136 1.239 . S
C1195 C227 1.263 . S
C1200 C158 1.239 . S
C1225 C97 1.239 . S
C1230 C246 1.263 . S
C1255 C249 1.263 . S
C1260 C27 1.239 . S
C1285 C48 1.239 . S
C1290 C206 1.263 . S
C1315 C224 1.263 . S
C1320 C8 1.239 . S
