# Generated by pormake.
# Topology umj, (4)-cn, num edge types: 1
# Building blocks:
#     Node 0, Type 0, BuildingBlock: MUDLON_clean_sbu_0, # of connection points: 4
#     Node 1, Type 0, BuildingBlock: MUDLON_clean_sbu_0, # of connection points: 4
#     Node 2, Type 0, BuildingBlock: MUDLON_clean_sbu_0, # of connection points: 4
#     Node 3, Type 0, BuildingBlock: MUDLON_clean_sbu_0, # of connection points: 4
#     Node 4, Type 0, BuildingBlock: MUDLON_clean_sbu_0, # of connection points: 4
#     Node 5, Type 0, BuildingBlock: MUDLON_clean_sbu_0, # of connection points: 4
#     Node 6, Type 0, BuildingBlock: MUDLON_clean_sbu_0, # of connection points: 4
#     Node 7, Type 0, BuildingBlock: MUDLON_clean_sbu_0, # of connection points: 4
#     Node 8, Type 0, BuildingBlock: MUDLON_clean_sbu_0, # of connection points: 4
#     Node 9, Type 0, BuildingBlock: MUDLON_clean_sbu_0, # of connection points: 4
#     Node 10, Type 0, BuildingBlock: MUDLON_clean_sbu_0, # of connection points: 4
#     Node 11, Type 0, BuildingBlock: MUDLON_clean_sbu_0, # of connection points: 4
#     Edge 12, Type (0, 0), BuildingBlock: UVAHIK_clean_linker_0, # of connection points: 2
#     Edge 13, Type (0, 0), BuildingBlock: UVAHIK_clean_linker_0, # of connection points: 2
#     Edge 14, Type (0, 0), BuildingBlock: UVAHIK_clean_linker_0, # of connection points: 2
#     Edge 15, Type (0, 0), BuildingBlock: UVAHIK_clean_linker_0, # of connection points: 2
#     Edge 16, Type (0, 0), BuildingBlock: UVAHIK_clean_linker_0, # of connection points: 2
#     Edge 17, Type (0, 0), BuildingBlock: UVAHIK_clean_linker_0, # of connection points: 2
#     Edge 18, Type (0, 0), BuildingBlock: UVAHIK_clean_linker_0, # of connection points: 2
#     Edge 19, Type (0, 0), BuildingBlock: UVAHIK_clean_linker_0, # of connection points: 2
#     Edge 20, Type (0, 0), BuildingBlock: UVAHIK_clean_linker_0, # of connection points: 2
#     Edge 21, Type (0, 0), BuildingBlock: UVAHIK_clean_linker_0, # of connection points: 2
#     Edge 22, Type (0, 0), BuildingBlock: UVAHIK_clean_linker_0, # of connection points: 2
#     Edge 23, Type (0, 0), BuildingBlock: UVAHIK_clean_linker_0, # of connection points: 2
#     Edge 24, Type (0, 0), BuildingBlock: UVAHIK_clean_linker_0, # of connection points: 2
#     Edge 25, Type (0, 0), BuildingBlock: UVAHIK_clean_linker_0, # of connection points: 2
#     Edge 26, Type (0, 0), BuildingBlock: UVAHIK_clean_linker_0, # of connection points: 2
#     Edge 27, Type (0, 0), BuildingBlock: UVAHIK_clean_linker_0, # of connection points: 2
#     Edge 28, Type (0, 0), BuildingBlock: UVAHIK_clean_linker_0, # of connection points: 2
#     Edge 29, Type (0, 0), BuildingBlock: UVAHIK_clean_linker_0, # of connection points: 2
#     Edge 30, Type (0, 0), BuildingBlock: UVAHIK_clean_linker_0, # of connection points: 2
#     Edge 31, Type (0, 0), BuildingBlock: UVAHIK_clean_linker_0, # of connection points: 2
#     Edge 32, Type (0, 0), BuildingBlock: UVAHIK_clean_linker_0, # of connection points: 2
#     Edge 33, Type (0, 0), BuildingBlock: UVAHIK_clean_linker_0, # of connection points: 2
#     Edge 34, Type (0, 0), BuildingBlock: UVAHIK_clean_linker_0, # of connection points: 2
#     Edge 35, Type (0, 0), BuildingBlock: UVAHIK_clean_linker_0, # of connection points: 2
# Relax obj value: 0.017
# Max RMSD: 0.121
# Mean RMSD: 0.121
data_MOF--net-umj--node1-MUDLON_clean_sbu_0--edge1-UVAHIK_clean_linker_0
_symmetry_space_group_name_H-M    P1
_symmetry_Int_Tables_number       1
_symmetry_cell_setting            triclinic
loop_
_symmetry_equiv_pos_as_xyz
'x, y, z'
_cell_length_a     39.334772
_cell_length_b     39.369385
_cell_length_c     113.37119
_cell_angle_alpha  90.057515
_cell_angle_beta   89.895247
_cell_angle_gamma 120.02569
loop_
_atom_site_label
_atom_site_type_symbol
_atom_site_fract_x
_atom_site_fract_y
_atom_site_fract_z
_atom_type_partial_charge
Mg0 Mg 0.04703 0.27639 0.09305 0.0
C1 C 0.02652 0.25957 0.11726 0.0
O2 O 0.99431 0.24177 0.11092 0.0
C3 C 0.07881 0.30599 0.07006 0.0
O4 O 0.04161 0.29624 0.06989 0.0
C5 C 0.04254 0.34632 0.09277 0.0
O6 O 0.07917 0.35599 0.09482 0.0
O7 O 0.01724 0.31013 0.09149 0.0
O8 O 0.05916 0.27932 0.11188 0.0
O9 O 0.0176 0.21402 0.08911 0.0
C10 C 0.04236 0.20244 0.09038 0.0
O11 O 0.07839 0.22843 0.09348 0.0
O12 O 0.09312 0.30184 0.07967 0.0
Mg13 Mg 0.76167 0.02043 0.42539 0.0
C14 C 0.75735 0.99899 0.44976 0.0
O15 O 0.74187 0.96644 0.44355 0.0
C16 C 0.76451 0.06038 0.40348 0.0
O17 O 0.73406 0.02488 0.40249 0.0
C18 C 0.68719 0.01615 0.42731 0.0
O19 O 0.71394 0.04994 0.43173 0.0
O20 O 0.69809 0.99248 0.42365 0.0
O21 O 0.77089 0.03144 0.44427 0.0
O22 O 0.79217 0.98815 0.4214 0.0
C23 C 0.81817 1.00039 0.41331 0.0
O24 O 0.82126 0.02796 0.40614 0.0
O25 O 0.78387 0.06969 0.4131 0.0
Mg26 Mg 0.73238 0.77944 0.76069 0.0
C27 C 0.73572 0.75497 0.78458 0.0
O28 O 0.74669 0.73529 0.7777 0.0
C29 C 0.7245 0.83848 0.74515 0.0
O30 O 0.76087 0.86198 0.7485 0.0
C31 C 0.66355 0.70572 0.75499 0.0
O32 O 0.65144 0.73069 0.75723 0.0
O33 O 0.70022 0.71784 0.75552 0.0
O34 O 0.72568 0.7779 0.7798 0.0
O35 O 0.79532 0.81437 0.75709 0.0
C36 C 0.81321 0.84313 0.76416 0.0
O37 O 0.79329 0.84652 0.77295 0.0
O38 O 0.70498 0.80494 0.74995 0.0
Mg39 Mg 0.94721 0.72756 0.09582 0.0
C40 C 0.931 0.74593 0.1208 0.0
O41 O 0.93309 0.77695 0.11577 0.0
C42 C 0.92126 0.69959 0.07241 0.0
O43 O 0.95958 0.71497 0.0727 0.0
C44 C 0.95434 0.65968 0.09596 0.0
O45 O 0.91778 0.64981 0.09829 0.0
O46 O 0.97923 0.69589 0.09444 0.0
O47 O 0.93093 0.71936 0.11439 0.0
O48 O 0.9758 0.79014 0.092 0.0
C49 C 0.95099 0.80024 0.0889 0.0
O50 O 0.91386 0.77292 0.08811 0.0
O51 O 0.90369 0.69964 0.08185 0.0
Mg52 Mg 0.22219 0.94631 0.42482 0.0
C53 C 0.24943 0.96821 0.44883 0.0
O54 O 0.27175 0.99899 0.44227 0.0
C55 C 0.16577 0.8943 0.40613 0.0
O56 O 0.15216 0.91818 0.40807 0.0
C57 C 0.29461 0.9499 0.41649 0.0
O58 O 0.268 0.91252 0.41588 0.0
O59 O 0.28383 0.97422 0.41957 0.0
O60 O 0.22368 0.93701 0.44374 0.0
O61 O 0.19134 0.97938 0.42311 0.0
C62 C 0.16276 0.96814 0.43031 0.0
O63 O 0.15779 0.94203 0.43834 0.0
O64 O 0.19229 0.89597 0.41292 0.0
Mg65 Mg 0.26991 0.23688 0.75661 0.0
C66 C 0.25313 0.23991 0.78095 0.0
O67 O 0.23809 0.25758 0.77484 0.0
C68 C 0.3057 0.23716 0.73424 0.0
O69 O 0.29917 0.26676 0.73396 0.0
C70 C 0.34156 0.30988 0.75866 0.0
O71 O 0.34829 0.28185 0.76204 0.0
O72 O 0.30669 0.30046 0.75571 0.0
O73 O 0.2708 0.22517 0.77536 0.0
O74 O 0.20728 0.20873 0.7526 0.0
C75 C 0.19274 0.1822 0.74469 0.0
O76 O 0.21662 0.17708 0.73778 0.0
O77 O 0.2966 0.21635 0.74357 0.0
Mg78 Mg 0.73329 0.95388 0.60125 0.0
C79 C 0.73829 0.96874 0.57675 0.0
O80 O 0.75415 0.00214 0.58255 0.0
C81 C 0.72598 0.93542 0.62535 0.0
O82 O 0.74702 0.97357 0.62378 0.0
C83 C 0.66533 0.96107 0.60539 0.0
O84 O 0.65385 0.92347 0.60563 0.0
O85 O 0.70158 0.98543 0.60368 0.0
O86 O 0.72398 0.93706 0.58271 0.0
O87 O 0.79669 0.98402 0.60321 0.0
C88 C 0.80799 0.95893 0.60237 0.0
O89 O 0.78137 0.92212 0.6004 0.0
O90 O 0.71329 0.91365 0.61623 0.0
Mg91 Mg 0.77364 0.71579 0.93463 0.0
C92 C 0.77504 0.73676 0.91047 0.0
O93 O 0.76268 0.75651 0.91677 0.0
C94 C 0.7752 0.6855 0.95745 0.0
O95 O 0.74938 0.69737 0.95782 0.0
C96 C 0.69875 0.64633 0.93405 0.0
O97 O 0.72542 0.63675 0.93139 0.0
O98 O 0.71007 0.68229 0.93601 0.0
O99 O 0.78449 0.71431 0.91586 0.0
O100 O 0.80551 0.7777 0.93928 0.0
C101 C 0.84168 0.78934 0.94103 0.0
O102 O 0.85343 0.76348 0.94034 0.0
O103 O 0.79265 0.68829 0.94772 0.0
Mg104 Mg 0.06568 0.78489 0.26568 0.0
C105 C 0.07644 0.81766 0.24032 0.0
O106 O 0.07812 0.8485 0.24536 0.0
C107 C 0.12329 0.78918 0.2847 0.0
O108 O 0.10884 0.75192 0.28218 0.0
C109 C 0.05439 0.70708 0.26276 0.0
O110 O 0.08505 0.73081 0.25634 0.0
O111 O 0.03633 0.7215 0.26831 0.0
O112 O 0.07581 0.7908 0.2467 0.0
O113 O 0.03402 0.81603 0.26969 0.0
C114 C 0.05721 0.852 0.2722 0.0
O115 O 0.09512 0.86487 0.2724 0.0
O116 O 0.11465 0.81002 0.27815 0.0
Mg117 Mg 0.28207 0.0518 0.59847 0.0
C118 C 0.259 0.0321 0.57428 0.0
O119 O 0.23608 1.00103 0.58066 0.0
C120 C 0.30958 0.08309 0.62137 0.0
O121 O 0.29487 0.04489 0.62178 0.0
C122 C 0.35046 0.04541 0.59713 0.0
O123 O 0.3589 0.08032 0.59333 0.0
O124 O 0.31522 0.02157 0.60021 0.0
O125 O 0.284 0.06315 0.5796 0.0
O126 O 0.22026 0.02352 0.60325 0.0
C127 C 0.20995 0.04931 0.60434 0.0
O128 O 0.23675 0.08636 0.60288 0.0
O129 O 0.31005 0.0986 0.61147 0.0
Mg130 Mg 0.22248 0.26413 0.93233 0.0
C131 C 0.23126 0.25281 0.90791 0.0
O132 O 0.24807 0.23698 0.91407 0.0
C133 C 0.21505 0.28599 0.95565 0.0
O134 O 0.23708 0.2696 0.95586 0.0
C135 C 0.29669 0.33355 0.93428 0.0
O136 O 0.26994 0.34356 0.93232 0.0
O137 O 0.28575 0.29719 0.93481 0.0
O138 O 0.21506 0.26909 0.91349 0.0
O139 O 0.18848 0.20164 0.93597 0.0
C140 C 0.15225 0.19091 0.9349 0.0
O141 O 0.14294 0.21752 0.93196 0.0
O142 O 0.20163 0.28913 0.94574 0.0
Mg143 Mg 0.95998 0.23176 0.26811 0.0
C144 C 0.98033 0.2443 0.24383 0.0
O145 O 0.01265 0.26164 0.25014 0.0
C146 C 0.93161 0.22212 0.29161 0.0
O147 O 0.97002 0.24458 0.29168 0.0
C148 C 0.96804 0.30779 0.27269 0.0
O149 O 0.93016 0.28253 0.27268 0.0
O150 O 0.99174 0.29503 0.27105 0.0
O151 O 0.9476 0.22627 0.24927 0.0
O152 O 0.98813 0.19685 0.27083 0.0
C153 C 0.96308 0.16103 0.26878 0.0
O154 O 0.92758 0.15238 0.26552 0.0
O155 O 0.9146 0.20929 0.28172 0.0
C156 C 0.02042 0.26843 0.22547 0.0
C157 C 0.98334 0.24589 0.23078 0.0
C158 C 0.02459 0.26986 0.21323 0.0
C159 C 0.97709 0.21572 0.18609 0.0
H160 H 0.04899 0.31438 0.17089 0.0
C161 C 0.98644 0.23377 0.13558 0.0
C162 C 0.02344 0.25714 0.13031 0.0
C163 C 0.98214 0.232 0.14781 0.0
C164 C 0.02924 0.2865 0.175 0.0
H165 H 0.92141 0.20728 0.22733 0.0
H166 H 0.92867 0.20988 0.20579 0.0
H167 H 0.03857 0.31254 0.19213 0.0
H168 H 0.08514 0.29665 0.13383 0.0
H169 H 0.07771 0.29331 0.15535 0.0
H170 H 0.96781 0.18966 0.16896 0.0
C171 C 0.95457 0.22624 0.21119 0.0
C172 C 0.02312 0.28545 0.18719 0.0
C173 C 0.95035 0.2249 0.22351 0.0
C174 C 0.05626 0.27841 0.13762 0.0
C175 C 0.05192 0.27666 0.14993 0.0
C176 C 0.98324 0.21677 0.1739 0.0
C177 C 0.99182 0.24877 0.20592 0.0
C178 C 0.99702 0.25004 0.19289 0.0
C179 C 0.01471 0.2535 0.15516 0.0
C180 C 0.00936 0.25218 0.1682 0.0
H181 H 0.04656 0.28496 0.23076 0.0
H182 H 0.05375 0.28698 0.20951 0.0
H183 H 0.95731 0.18787 0.19022 0.0
H184 H 0.96042 0.217 0.13025 0.0
H185 H 0.95299 0.21436 0.15149 0.0
C186 C 0.74316 0.96002 0.46831 0.0
C187 C 0.7573 0.9967 0.46282 0.0
C188 C 0.74134 0.95668 0.48058 0.0
C189 C 0.73714 0.00696 0.5075 0.0
H190 H 0.7637 0.93574 0.52317 0.0
C191 C 0.75265 0.00563 0.55784 0.0
C192 C 0.73819 0.96945 0.56367 0.0
C193 C 0.75383 0.00771 0.54557 0.0
C194 C 0.75564 0.95532 0.51892 0.0
H195 H 0.78115 0.05884 0.46598 0.0
H196 H 0.77828 0.0531 0.48752 0.0
H197 H 0.7702 0.9434 0.50179 0.0
H198 H 0.71342 0.90691 0.56111 0.0
H199 H 0.7153 0.9105 0.53948 0.0
H200 H 0.72267 0.01896 0.52462 0.0
C201 C 0.76818 0.02681 0.48226 0.0
C202 C 0.75949 0.95983 0.50666 0.0
C203 C 0.77007 0.03017 0.46993 0.0
C204 C 0.72471 0.93521 0.55688 0.0
C205 C 0.726 0.93733 0.54451 0.0
C206 C 0.7333 0.00244 0.51975 0.0
C207 C 0.75362 0.98995 0.48772 0.0
C208 C 0.75037 0.98579 0.5008 0.0
C209 C 0.74057 0.97368 0.53872 0.0
C210 C 0.74269 0.97673 0.52562 0.0
H211 H 0.73301 0.93355 0.46313 0.0
H212 H 0.72946 0.9278 0.48445 0.0
H213 H 0.72912 0.02659 0.50326 0.0
H214 H 0.7634 0.0327 0.56275 0.0
H215 H 0.76585 0.03625 0.54144 0.0
C216 C 0.74691 0.7245 0.80237 0.0
C217 C 0.73769 0.75182 0.79756 0.0
C218 C 0.75122 0.72253 0.81453 0.0
C219 C 0.77336 0.7815 0.84162 0.0
H220 H 0.73324 0.68115 0.85737 0.0
C221 C 0.76727 0.76713 0.89214 0.0
C222 C 0.77532 0.73962 0.89743 0.0
C223 C 0.76471 0.76889 0.87992 0.0
C224 C 0.74515 0.70942 0.85307 0.0
H225 H 0.72506 0.79808 0.80179 0.0
H226 H 0.73232 0.79447 0.82312 0.0
H227 H 0.72247 0.68311 0.83625 0.0
H228 H 0.7878 0.69281 0.89396 0.0
H229 H 0.78363 0.69608 0.87244 0.0
H230 H 0.79601 0.80784 0.85842 0.0
C231 C 0.73664 0.77484 0.81743 0.0
C232 C 0.73884 0.71055 0.84097 0.0
C233 C 0.73218 0.77673 0.80522 0.0
C234 C 0.78157 0.71433 0.89015 0.0
C235 C 0.7789 0.71604 0.87785 0.0
C236 C 0.77972 0.78037 0.8537 0.0
C237 C 0.74649 0.74788 0.82221 0.0
C238 C 0.75272 0.74661 0.83511 0.0
C239 C 0.77016 0.74321 0.8726 0.0
C240 C 0.76547 0.74432 0.8596 0.0
H241 H 0.75138 0.70484 0.79673 0.0
H242 H 0.75925 0.70175 0.81788 0.0
H243 H 0.78513 0.80977 0.83734 0.0
H244 H 0.76228 0.78711 0.89746 0.0
H245 H 0.75739 0.78978 0.87623 0.0
C246 C 0.95977 0.72884 0.13782 0.0
C247 C 0.93906 0.74679 0.13358 0.0
C248 C 0.97365 0.73501 0.1494 0.0
C249 C 0.99377 0.80289 0.17504 0.0
H250 H 0.0156 0.72815 0.19043 0.0
C251 C 0.07548 0.84049 0.2197 0.0
C252 C 0.06608 0.80977 0.22767 0.0
C253 C 0.06148 0.83249 0.20809 0.0
C254 C 0.00922 0.74927 0.18643 0.0
H255 H 0.91469 0.78348 0.13835 0.0
H256 H 0.93615 0.79191 0.15884 0.0
H257 H 0.98328 0.71213 0.17154 0.0
H258 H 0.03458 0.74654 0.22973 0.0
H259 H 0.00843 0.7326 0.20993 0.0
H260 H 0.0169 0.83869 0.19036 0.0
C261 C 0.94359 0.77464 0.1531 0.0
C262 C 0.99122 0.74033 0.17536 0.0
C263 C 0.93068 0.76936 0.14137 0.0
C264 C 0.04292 0.77092 0.22375 0.0
C265 C 0.028 0.76293 0.21228 0.0
C266 C 0.01072 0.81134 0.18628 0.0
C267 C 0.96628 0.75846 0.15722 0.0
C268 C 0.98354 0.76714 0.16939 0.0
C269 C 0.0367 0.79356 0.20426 0.0
C270 C 0.01901 0.7848 0.19215 0.0
H271 H 0.96728 0.71175 0.13199 0.0
H272 H 0.99158 0.72258 0.152 0.0
H273 H 0.98924 0.82486 0.17076 0.0
H274 H 0.09335 0.87073 0.22249 0.0
H275 H 0.06992 0.85701 0.20218 0.0
C276 C 0.22654 0.99505 0.55595 0.0
C277 C 0.25728 0.02875 0.56125 0.0
C278 C 0.22612 0.9891 0.54382 0.0
C279 C 0.26732 0.03874 0.51542 0.0
H280 H 0.23735 0.93355 0.50493 0.0
C281 C 0.2835 0.00587 0.46694 0.0
C282 C 0.25235 0.97202 0.46185 0.0
C283 C 0.28492 0.01214 0.47909 0.0
C284 C 0.24538 0.96297 0.5077 0.0
H285 H 0.31116 0.08329 0.55785 0.0
H286 H 0.31056 0.07282 0.53652 0.0
H287 H 0.23831 0.94711 0.52595 0.0
H288 H 0.19877 0.91756 0.4656 0.0
H289 H 0.20109 0.92858 0.48692 0.0
H290 H 0.27431 0.05458 0.49716 0.0
C291 C 0.28662 0.05108 0.54182 0.0
C292 C 0.24595 0.97079 0.51975 0.0
C293 C 0.28702 0.0571 0.55403 0.0
C294 C 0.22323 0.94386 0.46926 0.0
C295 C 0.22462 0.95019 0.48147 0.0
C296 C 0.26675 0.03092 0.50336 0.0
C297 C 0.25648 0.01662 0.53661 0.0
C298 C 0.25677 0.00874 0.52377 0.0
C299 C 0.25517 0.98477 0.48649 0.0
C300 C 0.25574 0.99292 0.49935 0.0
H301 H 0.20292 0.97276 0.56122 0.0
H302 H 0.20199 0.96272 0.54008 0.0
H303 H 0.27528 0.06814 0.51819 0.0
H304 H 0.30666 0.02803 0.46151 0.0
H305 H 0.30932 0.03864 0.48267 0.0
C306 C 0.26781 0.22296 0.80109 0.0
C307 C 0.24992 0.23885 0.794 0.0
C308 C 0.26523 0.22365 0.81343 0.0
C309 C 0.24614 0.27583 0.83752 0.0
H310 H 0.22702 0.18604 0.85644 0.0
C311 C 0.21392 0.26705 0.88778 0.0
C312 C 0.23197 0.25129 0.89484 0.0
C313 C 0.21521 0.26511 0.87543 0.0
C314 C 0.23274 0.21154 0.85129 0.0
H315 H 0.21465 0.2672 0.79436 0.0
H316 H 0.20997 0.268 0.81566 0.0
H317 H 0.23226 0.18342 0.83505 0.0
H318 H 0.26573 0.22135 0.89443 0.0
H319 H 0.26833 0.2185 0.87313 0.0
H320 H 0.24681 0.30405 0.85374 0.0
C321 C 0.22655 0.25564 0.81177 0.0
C322 C 0.23582 0.21002 0.83903 0.0
C323 C 0.22907 0.25491 0.79951 0.0
C324 C 0.25129 0.23365 0.8893 0.0
C325 C 0.25258 0.23174 0.87704 0.0
C326 C 0.24312 0.27737 0.84978 0.0
C327 C 0.24483 0.24035 0.8189 0.0
C328 C 0.2425 0.24213 0.83199 0.0
C329 C 0.23453 0.24733 0.86992 0.0
C330 C 0.23645 0.24528 0.85683 0.0
H331 H 0.28411 0.21042 0.79712 0.0
H332 H 0.27985 0.21182 0.81869 0.0
H333 H 0.25189 0.30133 0.83237 0.0
H334 H 0.19876 0.28077 0.89177 0.0
H335 H 0.2007 0.27714 0.87021 0.0
C336 C 0.1342 0.31343 0.05709 0.0
C337 C 0.1012 0.31772 0.05887 0.0
C338 C 0.15082 0.31861 0.04581 0.0
C339 C 0.12114 0.31114 0.01471 0.0
H340 H 0.23211 0.35538 1.00823 0.0
C341 C 0.17784 0.31099 0.96758 0.0
C342 C 0.20586 0.29889 0.9669 0.0
C343 C 0.16793 0.32033 0.97854 0.0
C344 C 0.20098 0.34279 1.0099 0.0
H345 H 0.06171 0.3338 0.05048 0.0
H346 H 0.09093 0.34338 0.031 0.0
H347 H 0.21051 0.35893 0.02818 0.0
H348 H 0.24644 0.2885 0.97713 0.0
H349 H 0.2289 0.30407 0.99601 0.0
H350 H 0.11137 0.29392 0.99658 0.0
C351 C 0.10338 0.33499 0.03817 0.0
C352 C 0.18865 0.34482 0.02134 0.0
C353 C 0.08677 0.32968 0.04936 0.0
C354 C 0.22458 0.29755 0.9773 0.0
C355 C 0.2148 0.30689 0.98817 0.0
C356 C 0.13343 0.309 1.0033 0.0
C357 C 0.13477 0.3283 0.03616 0.0
C358 C 0.14854 0.3286 0.0239 0.0
C359 C 0.18601 0.31791 0.98898 0.0
C360 C 0.17345 0.32425 1.00079 0.0
H361 H 0.14588 0.30414 0.06425 0.0
H362 H 0.17494 0.31311 0.04455 0.0
H363 H 0.08994 0.29777 0.01641 0.0
H364 H 0.16301 0.31243 0.95972 0.0
H365 H 0.14587 0.3291 0.97884 0.0
C366 C 0.8155 0.1201 0.39263 0.0
C367 C 0.7784 0.08599 0.39293 0.0
C368 C 0.8302 0.14071 0.38204 0.0
C369 C 0.80227 0.14939 0.35109 0.0
H370 H 0.91047 0.17962 0.34447 0.0
C371 C 0.87117 0.18094 0.30395 0.0
C372 C 0.91015 0.21179 0.30298 0.0
C373 C 0.8532 0.16952 0.31508 0.0
C374 C 0.88034 0.17183 0.34622 0.0
H375 H 0.72674 0.04815 0.38253 0.0
H376 H 0.75249 0.08337 0.36419 0.0
H377 H 0.88322 0.15467 0.36388 0.0
H378 H 0.95993 0.25638 0.31279 0.0
H379 H 0.92868 0.23677 0.33197 0.0
H380 H 0.79936 0.16562 0.33321 0.0
C381 C 0.77023 0.09464 0.37206 0.0
C382 C 0.86474 0.15769 0.35739 0.0
C383 C 0.75556 0.07419 0.38261 0.0
C384 C 0.93007 0.23205 0.31323 0.0
C385 C 0.91222 0.22076 0.32426 0.0
C386 C 0.81787 0.16339 0.33986 0.0
C387 C 0.80812 0.12759 0.37155 0.0
C388 C 0.82542 0.14598 0.35996 0.0
C389 C 0.87396 0.1888 0.32536 0.0
C390 C 0.85706 0.1746 0.33729 0.0
H391 H 0.83374 0.13004 0.40044 0.0
H392 H 0.85926 0.16641 0.38201 0.0
H393 H 0.77198 0.14107 0.3528 0.0
H394 H 0.85508 0.16483 0.29621 0.0
H395 H 0.82367 0.14467 0.31566 0.0
C396 C 0.73044 0.88421 0.72893 0.0
C397 C 0.71011 0.84675 0.73406 0.0
C398 C 0.72172 0.89035 0.71746 0.0
C399 C 0.68758 0.83824 0.68965 0.0
H400 H 0.68901 0.93297 0.67958 0.0
C401 C 0.69025 0.88032 0.64006 0.0
C402 C 0.71711 0.91989 0.63755 0.0
C403 C 0.6815 0.86744 0.65182 0.0
C404 C 0.68863 0.90637 0.68223 0.0
H405 H 0.66313 0.78676 0.73138 0.0
H406 H 0.64828 0.79755 0.71128 0.0
H407 H 0.68691 0.91863 0.70057 0.0
H408 H 0.75653 0.97662 0.64541 0.0
H409 H 0.74192 0.9543 0.66557 0.0
H410 H 0.69124 0.82695 0.67132 0.0
C411 C 0.671 0.82207 0.71616 0.0
C412 C 0.68731 0.89815 0.69426 0.0
C413 C 0.67935 0.81604 0.7277 0.0
C414 C 0.73536 0.94599 0.64697 0.0
C415 C 0.72671 0.93326 0.6586 0.0
C416 C 0.68922 0.84663 0.67759 0.0
C417 C 0.69275 0.85906 0.71082 0.0
C418 C 0.68789 0.86459 0.69811 0.0
C419 C 0.69939 0.894 0.66121 0.0
C420 C 0.69106 0.88147 0.67377 0.0
H421 H 0.75427 0.90845 0.73359 0.0
H422 H 0.73916 0.91915 0.71355 0.0
H423 H 0.68831 0.81225 0.69237 0.0
H424 H 0.67569 0.85953 0.63298 0.0
H425 H 0.66036 0.83694 0.65355 0.0
C426 C 0.86316 0.6802 0.05907 0.0
C427 C 0.90065 0.68518 0.06102 0.0
C428 C 0.84668 0.67141 0.04774 0.0
C429 C 0.87859 0.68492 0.01676 0.0
H430 H 0.76822 0.61631 1.00995 0.0
C431 C 0.81976 0.67025 0.96944 0.0
C432 C 0.7857 0.67315 0.96854 0.0
C433 C 0.83177 0.66377 0.98044 0.0
C434 C 0.79913 0.63567 1.01172 0.0
H435 H 0.94898 0.68209 0.05283 0.0
H436 H 0.92018 0.66642 0.03327 0.0
H437 H 0.79226 0.62033 0.03007 0.0
H438 H 0.73628 0.66912 0.9783 0.0
H439 H 0.75737 0.65853 0.99732 0.0
H440 H 0.88548 0.70136 0.99859 0.0
C441 C 0.90387 0.67022 0.04036 0.0
C442 C 0.81284 0.63798 0.02324 0.0
C443 C 0.92029 0.67909 0.0516 0.0
C444 C 0.76286 0.66733 0.97869 0.0
C445 C 0.77478 0.66087 0.98962 0.0
C446 C 0.86491 0.68275 1.00528 0.0
C447 C 0.86741 0.66737 0.0382 0.0
C448 C 0.85268 0.66296 0.02591 0.0
C449 C 0.80987 0.65996 0.99071 0.0
C450 C 0.82492 0.65852 1.00263 0.0
H451 H 0.84736 0.68473 0.06616 0.0
H452 H 0.81856 0.66952 0.04635 0.0
H453 H 0.90937 0.70495 0.01854 0.0
H454 H 0.8379 0.67448 0.96177 0.0
H455 H 0.85868 0.66264 0.98094 0.0
C456 C 0.13692 0.83489 0.30166 0.0
C457 C 0.1391 0.80328 0.29669 0.0
C458 C 0.14259 0.84243 0.31376 0.0
C459 C 0.18443 0.83329 0.34084 0.0
H460 H 0.08881 0.81778 0.35572 0.0
C461 C 0.17679 0.85321 0.39124 0.0
C462 C 0.15703 0.87307 0.39473 0.0
C463 C 0.17341 0.83934 0.37965 0.0
C464 C 0.11596 0.82273 0.35174 0.0
H465 H 0.15228 0.75701 0.30034 0.0
H466 H 0.16358 0.7713 0.32149 0.0
H467 H 0.09031 0.80902 0.3345 0.0
H468 H 0.11669 0.89211 0.38892 0.0
H469 H 0.11172 0.86928 0.36889 0.0
H470 H 0.21089 0.84903 0.35793 0.0
C471 C 0.15677 0.78961 0.316 0.0
C472 C 0.11667 0.8175 0.33958 0.0
C473 C 0.15034 0.78152 0.30391 0.0
C474 C 0.13233 0.87693 0.38657 0.0
C475 C 0.12928 0.86352 0.37502 0.0
C476 C 0.18403 0.83936 0.35301 0.0
C477 C 0.15142 0.81913 0.32106 0.0
C478 C 0.151 0.82324 0.33401 0.0
C479 C 0.15039 0.84525 0.3713 0.0
C480 C 0.14991 0.83477 0.3586 0.0
H481 H 0.12821 0.85219 0.29639 0.0
H482 H 0.13857 0.86552 0.3175 0.0
H483 H 0.21119 0.83775 0.33669 0.0
H484 H 0.19603 0.84968 0.39731 0.0
H485 H 0.18949 0.82473 0.37719 0.0
C486 C 0.32148 0.08678 0.64303 0.0
C487 C 0.32168 0.10579 0.63251 0.0
C488 C 0.32854 0.10591 0.65385 0.0
C489 C 0.32154 0.18603 0.66817 0.0
H490 H 0.36988 0.16263 0.69436 0.0
C491 C 0.33254 0.25311 0.71383 0.0
C492 C 0.31901 0.2266 0.72333 0.0
C493 C 0.34007 0.24211 0.70288 0.0
C494 C 0.35621 0.16931 0.68714 0.0
H495 H 0.33139 0.16062 0.62507 0.0
H496 H 0.34448 0.19458 0.64407 0.0
H497 H 0.37184 0.13866 0.67463 0.0
H498 H 0.30489 0.1684 0.72897 0.0
H499 H 0.31811 0.14899 0.7097 0.0
H500 H 0.30565 0.21637 0.68067 0.0
C501 C 0.33809 0.16444 0.64392 0.0
C502 C 0.3573 0.15561 0.67582 0.0
C503 C 0.33087 0.14513 0.63302 0.0
C504 C 0.31529 0.18946 0.72182 0.0
C505 C 0.32291 0.17841 0.7108 0.0
C506 C 0.32074 0.19995 0.67944 0.0
C507 C 0.33624 0.14476 0.6545 0.0
C508 C 0.33935 0.1632 0.66623 0.0
C509 C 0.33432 0.20431 0.70113 0.0
C510 C 0.33757 0.19131 0.68908 0.0
H511 H 0.31466 0.05649 0.64298 0.0
H512 H 0.32628 0.08954 0.66177 0.0
H513 H 0.30678 0.19187 0.66107 0.0
H514 H 0.33625 0.28218 0.71472 0.0
H515 H 0.34959 0.26298 0.69568 0.0
C516 C 0.93458 0.58902 0.09509 0.0
C517 C 0.96471 0.62849 0.09488 0.0
C518 C 0.94315 0.55881 0.09426 0.0
C519 C 0.01961 0.53601 0.08508 0.0
H520 H 0.95995 0.44432 0.10481 0.0
C521 C 0.06227 0.41704 0.09174 0.0
C522 C 0.03216 0.37754 0.09196 0.0
C523 C 0.05346 0.44719 0.09137 0.0
C524 C 0.97646 0.46946 0.09913 0.0
H525 H 0.02761 0.66722 0.09349 0.0
H526 H 0.04285 0.61405 0.09224 0.0
H527 H 0.94732 0.49879 0.10594 0.0
H528 H 0.9691 0.33868 0.09177 0.0
H529 H 0.95356 0.3917 0.09118 0.0
H530 H 0.04916 0.5067 0.07842 0.0
C531 C 0.01244 0.60664 0.09291 0.0
C532 C 0.96931 0.50076 0.09978 0.0
C533 C 0.00378 0.63709 0.09368 0.0
C534 C 0.99291 0.36882 0.09163 0.0
C535 C 0.98405 0.39915 0.09135 0.0
C536 C 0.02689 0.50473 0.08447 0.0
C537 C 0.98215 0.56713 0.09328 0.0
C538 C 0.99071 0.53439 0.09274 0.0
C539 C 0.0143 0.43866 0.09127 0.0
C540 C 0.00539 0.47112 0.09149 0.0
H541 H 0.90407 0.58123 0.09586 0.0
H542 H 0.91903 0.52882 0.0943 0.0
H543 H 0.0362 0.56118 0.07941 0.0
H544 H 0.09286 0.42486 0.09195 0.0
H545 H 0.0774 0.47727 0.09147 0.0
C546 C 0.61745 0.97441 0.4202 0.0
C547 C 0.64634 0.00813 0.42598 0.0
C548 C 0.5796 0.96874 0.41855 0.0
C549 C 0.51224 0.00194 0.42981 0.0
H550 H 0.45857 0.96219 0.40001 0.0
C551 C 0.3664 0.99746 0.41974 0.0
C552 C 0.33656 0.96167 0.4152 0.0
C553 C 0.40529 0.00531 0.42009 0.0
C554 C 0.47313 0.97317 0.4084 0.0
H555 H 0.65799 0.06217 0.43463 0.0
H556 H 0.5928 0.05253 0.43166 0.0
H557 H 0.52329 0.96924 0.40301 0.0
H558 H 0.32445 0.90713 0.40684 0.0
H559 H 0.39191 0.92082 0.40745 0.0
H560 H 0.46216 0.0058 0.43523 0.0
C561 C 0.5989 0.03012 0.42853 0.0
C562 C 0.51012 0.97701 0.41014 0.0
C563 C 0.63648 0.03573 0.43017 0.0
C564 C 0.34672 0.93493 0.41045 0.0
C565 C 0.38549 0.94286 0.41073 0.0
C566 C 0.47538 0.99822 0.42806 0.0
C567 C 0.56996 0.99665 0.42268 0.0
C568 C 0.53013 0.99145 0.42087 0.0
C569 C 0.41509 0.97768 0.41583 0.0
C570 C 0.45532 0.98374 0.41735 0.0
H571 H 0.62414 0.95264 0.41685 0.0
H572 H 0.55785 0.94241 0.41412 0.0
H573 H 0.52649 0.01255 0.43826 0.0
H574 H 0.3595 0.01863 0.42348 0.0
H575 H 0.42757 0.03268 0.42392 0.0
C576 C 0.36954 0.38152 0.75382 0.0
C577 C 0.37484 0.3506 0.7577 0.0
C578 C 0.40185 0.41951 0.75266 0.0
C579 C 0.50505 0.48178 0.76256 0.0
H580 H 0.51206 0.54725 0.7361 0.0
C581 C 0.64235 0.63386 0.75481 0.0
C582 C 0.63401 0.66415 0.75282 0.0
C583 C 0.61229 0.59455 0.75422 0.0
C584 C 0.51047 0.52931 0.74355 0.0
H585 H 0.41829 0.33539 0.76335 0.0
H586 H 0.47409 0.40091 0.76118 0.0
H587 H 0.4554 0.48126 0.73787 0.0
H588 H 0.58828 0.67706 0.74801 0.0
H589 H 0.53631 0.60899 0.74695 0.0
H590 H 0.55997 0.52988 0.76828 0.0
C591 C 0.44512 0.39623 0.75923 0.0
C592 C 0.47789 0.4916 0.7446 0.0
C593 C 0.41299 0.3585 0.76041 0.0
C594 C 0.59563 0.65439 0.74966 0.0
C595 C 0.56582 0.61531 0.74897 0.0
C596 C 0.53766 0.5194 0.76148 0.0
C597 C 0.44005 0.42727 0.75535 0.0
C598 C 0.47465 0.46744 0.75417 0.0
C599 C 0.57355 0.58492 0.75149 0.0
C600 C 0.5406 0.54373 0.75202 0.0
H601 H 0.34053 0.37637 0.75166 0.0
H602 H 0.39684 0.44287 0.74978 0.0
H603 H 0.50329 0.46424 0.77014 0.0
H604 H 0.67164 0.64053 0.75728 0.0
H605 H 0.61919 0.5717 0.75609 0.0
C606 C 0.42072 0.06415 0.59494 0.0
C607 C 0.38229 0.03595 0.59825 0.0
C608 C 0.45161 0.05673 0.59625 0.0
C609 C 0.48167 0.99485 0.61238 0.0
H610 H 0.56131 0.02947 0.58794 0.0
C611 C 0.59728 0.94605 0.60998 0.0
C612 C 0.63559 0.97342 0.60633 0.0
C613 C 0.56762 0.95562 0.60988 0.0
C614 C 0.53966 0.02019 0.59493 0.0
H615 H 0.34612 0.97761 0.60546 0.0
H616 H 0.40035 0.96429 0.6076 0.0
H617 H 0.50582 0.04011 0.58555 0.0
H618 H 0.6732 0.03283 0.60009 0.0
H619 H 0.62108 0.04973 0.59993 0.0
H620 H 0.5154 0.97447 0.62167 0.0
C621 C 0.40649 0.99242 0.60413 0.0
C622 C 0.50776 0.02614 0.59355 0.0
C623 C 0.3754 0.9999 0.60283 0.0
C624 C 0.64395 0.01114 0.60294 0.0
C625 C 0.61408 0.02068 0.60277 0.0
C626 C 0.51356 0.9888 0.61375 0.0
C627 C 0.44497 0.02083 0.60086 0.0
C628 C 0.47836 0.01355 0.60226 0.0
C629 C 0.57547 0.99277 0.60608 0.0
C630 C 0.54287 0.00132 0.60502 0.0
H631 H 0.42721 0.09234 0.59143 0.0
H632 H 0.48091 0.07952 0.59383 0.0
H633 H 0.45989 0.98538 0.61934 0.0
H634 H 0.58987 0.91676 0.61269 0.0
H635 H 0.53818 0.93333 0.61237 0.0
C636 C 0.36899 0.35643 0.9353 0.0
C637 C 0.33815 0.36467 0.9357 0.0
C638 C 0.40809 0.38699 0.93595 0.0
C639 C 0.46856 0.49422 0.93106 0.0
H640 H 0.5482 0.48403 0.94817 0.0
C641 C 0.62712 0.62405 0.93702 0.0
C642 C 0.65709 0.61519 0.93501 0.0
C643 C 0.5879 0.59388 0.9378 0.0
C644 C 0.52628 0.48722 0.9433 0.0
H645 H 0.32402 0.41113 0.93761 0.0
H646 H 0.39158 0.4638 0.93895 0.0
H647 H 0.48048 0.42979 0.94821 0.0
H648 H 0.66941 0.56774 0.93233 0.0
H649 H 0.60148 0.51564 0.93364 0.0
H650 H 0.51435 0.55158 0.92614 0.0
C651 C 0.38591 0.43409 0.93782 0.0
C652 C 0.48754 0.4561 0.94329 0.0
C653 C 0.34709 0.40376 0.93711 0.0
C654 C 0.6471 0.57568 0.93389 0.0
C655 C 0.60813 0.54568 0.93473 0.0
C656 C 0.50723 0.52535 0.93111 0.0
C657 C 0.41694 0.42625 0.93705 0.0
C658 C 0.45823 0.45919 0.93714 0.0
C659 C 0.57805 0.55437 0.93667 0.0
C660 C 0.53657 0.52212 0.93717 0.0
H661 H 0.36298 0.32659 0.93421 0.0
H662 H 0.43135 0.37997 0.93526 0.0
H663 H 0.44688 0.49737 0.92606 0.0
H664 H 0.63392 0.65419 0.93795 0.0
H665 H 0.56532 0.60144 0.93938 0.0
C666 C 0.0695 0.6535 0.25931 0.0
C667 C 0.04465 0.66579 0.26429 0.0
C668 C 0.06214 0.61534 0.26094 0.0
C669 C 0.00818 0.52756 0.27988 0.0
H670 H 0.02971 0.47649 0.254 0.0
C671 C 0.95582 0.36182 0.27842 0.0
C672 C 0.98151 0.35008 0.27378 0.0
C673 C 0.96586 0.40119 0.27829 0.0
C674 C 0.02412 0.49057 0.26136 0.0
H675 H 0.99228 0.64733 0.27483 0.0
H676 H 0.97867 0.57986 0.27743 0.0
H677 H 0.0398 0.54221 0.25132 0.0
H678 H 0.03854 0.37056 0.26576 0.0
H679 H 0.0561 0.43977 0.26543 0.0
H680 H 0.99146 0.47514 0.28979 0.0
C681 C 0.00437 0.60021 0.27244 0.0
C682 C 0.02983 0.52827 0.25984 0.0
C683 C 0.01195 0.63875 0.27088 0.0
C684 C 0.0182 0.37878 0.26941 0.0
C685 C 0.02809 0.41827 0.26915 0.0
C686 C 0.00213 0.48964 0.28137 0.0
C687 C 0.02946 0.58808 0.26748 0.0
C688 C 0.02209 0.54736 0.26908 0.0
C689 C 1.00169 0.42975 0.27341 0.0
C690 C 0.01011 0.47078 0.27213 0.0
H691 H 0.0952 0.67357 0.25426 0.0
H692 H 0.08261 0.60746 0.25719 0.0
H693 H 0.00248 0.54154 0.28725 0.0
H694 H 0.92739 0.3404 0.28191 0.0
H695 H 0.94479 0.40902 0.28156 0.0
C696 C 0.06062 0.15026 0.0905 0.0
C697 C 0.03183 0.16096 0.08875 0.0
C698 C 0.0515 0.11136 0.08933 0.0
C699 C 0.96843 0.01005 0.09016 0.0
H700 H 0.04462 0.9857 0.07676 0.0
C701 C 0.93342 0.85097 0.08355 0.0
C702 C 0.9621 0.84183 0.08716 0.0
C703 C 0.94214 0.88985 0.08276 0.0
C704 C 0.0232 0.99208 0.08061 0.0
H705 H 0.97083 0.13907 0.08424 0.0
H706 H 0.95483 0.0707 0.08205 0.0
H707 H 0.05826 0.05337 0.07683 0.0
H708 H 0.0229 0.86655 0.09243 0.0
H709 H 0.03825 0.9349 0.09104 0.0
H710 H 0.93344 0.94878 0.09396 0.0
C711 C 0.98446 0.0926 0.08448 0.0
C712 C 0.03095 0.03084 0.08065 0.0
C713 C 0.99363 0.13175 0.08567 0.0
C714 C 1.00019 0.87263 0.08961 0.0
C715 C 0.00897 0.91174 0.08879 0.0
C716 C 0.96061 0.97129 0.09007 0.0
C717 C 0.01334 0.08197 0.08633 0.0
C718 C 0.00383 0.04037 0.08553 0.0
C719 C 0.97981 0.9207 0.08553 0.0
C720 C 0.98802 0.96189 0.08537 0.0
H721 H 0.09036 0.17191 0.09292 0.0
H722 H 0.0743 0.10424 0.09104 0.0
H723 H 0.94719 0.01638 0.09416 0.0
H724 H 0.90383 0.82802 0.08149 0.0
H725 H 0.91924 0.89576 0.08001 0.0
C726 C 0.87913 0.00496 0.40478 0.0
C727 C 0.84998 0.99054 0.41359 0.0
C728 C 0.91293 0.00199 0.40602 0.0
C729 C 0.97433 0.99585 0.42929 0.0
H730 H 0.02437 0.97153 0.40375 0.0
C731 C 0.10196 0.96694 0.43721 0.0
C732 C 0.13163 0.97845 0.42865 0.0
C733 C 0.0693 0.97115 0.43518 0.0
C734 C 0.01114 0.97904 0.41093 0.0
H735 H 0.83257 0.95967 0.43031 0.0
H736 H 0.89143 0.95428 0.43242 0.0
H737 H 0.96223 0.96979 0.40026 0.0
H738 H 0.15094 0.00492 0.41139 0.0
H739 H 0.09395 0.01303 0.4079 0.0
H740 H 0.02316 0.00548 0.43994 0.0
C741 C 0.88835 0.96841 0.42463 0.0
C742 C 0.97539 0.97779 0.40894 0.0
C743 C 0.85442 0.97115 0.42336 0.0
C744 C 0.12864 0.99586 0.41818 0.0
C745 C 0.09577 1.00008 0.41613 0.0
C746 C 0.0101 0.99733 0.43125 0.0
C747 C 0.91846 0.98473 0.41613 0.0
C748 C 0.95637 0.98578 0.41814 0.0
C749 C 0.06536 0.98713 0.42454 0.0
C750 C 0.02881 0.98853 0.42214 0.0
H751 H 0.87664 0.02002 0.39712 0.0
H752 H 0.93557 0.01493 0.39932 0.0
H753 H 0.96095 0.0031 0.43649 0.0
H754 H 0.10327 0.95342 0.44538 0.0
H755 H 0.04637 0.9604 0.4418 0.0
C756 C 0.12682 0.14928 0.75463 0.0
C757 C 0.1505 0.15192 0.74498 0.0
C758 C 0.08937 0.11647 0.75601 0.0
C759 C 0.0098 0.02955 0.74087 0.0
H760 H 0.9892 0.98404 0.7722 0.0
C761 C 0.87356 0.87763 0.7513 0.0
C762 C 0.85386 0.87531 0.76189 0.0
C763 C 0.91037 0.9105 0.74889 0.0
C764 C 0.99421 0.9965 0.76343 0.0
H765 H 0.15225 0.12342 0.72878 0.0
H766 H 0.08688 0.06643 0.73116 0.0
H767 H 0.04984 0.04509 0.76837 0.0
H768 H 0.85792 0.90525 0.77837 0.0
H769 H 0.92119 0.96215 0.77414 0.0
H770 H 0.95387 0.98103 0.73597 0.0
C771 C 0.09731 0.0896 0.73769 0.0
C772 C 0.02899 0.03161 0.76124 0.0
C773 C 0.13485 0.12227 0.73634 0.0
C774 C 0.87221 0.90595 0.77012 0.0
C775 C 0.90876 0.93863 0.76773 0.0
C776 C 0.97479 0.99445 0.74308 0.0
C777 C 0.07466 0.08573 0.74773 0.0
C778 C 0.03712 0.04871 0.74997 0.0
C779 C 0.92822 0.94161 0.75704 0.0
C780 C 0.96643 0.97763 0.75442 0.0
H781 H 0.13789 0.17159 0.76144 0.0
H782 H 0.07231 0.11467 0.76374 0.0
H783 H 0.01518 0.04205 0.7321 0.0
H784 H 0.86018 0.85456 0.74477 0.0
H785 H 0.92477 0.91162 0.74063 0.0
C786 C 0.87924 0.00863 0.60584 0.0
C787 C 0.84966 0.96975 0.60369 0.0
C788 C 0.91844 0.01792 0.60703 0.0
C789 C 0.97991 0.97266 0.61309 0.0
H790 H 0.06146 0.06484 0.59728 0.0
C791 C 0.13764 0.99997 0.60524 0.0
C792 C 0.16862 0.03882 0.6063 0.0
C793 C 0.09858 0.99151 0.606 0.0
C794 C 0.03912 0.03924 0.60189 0.0
H795 H 0.83807 0.9102 0.60112 0.0
H796 H 0.90592 0.92645 0.60305 0.0
H797 H 0.9939 0.05126 0.5967 0.0
H798 H 0.18297 0.09892 0.60957 0.0
H799 H 0.11534 0.08409 0.61102 0.0
H800 H 0.02517 0.96042 0.61814 0.0
C801 C 0.89901 0.94971 0.604 0.0
C802 C 1.00039 0.03152 0.60156 0.0
C803 C 0.86005 0.94047 0.6028 0.0
C804 C 0.15981 0.0687 0.60857 0.0
C805 C 0.12099 0.06027 0.60935 0.0
C806 C 0.01867 0.98037 0.6134 0.0
C807 C 0.92872 0.98849 0.60613 0.0
C808 C 0.97026 0.99799 0.60708 0.0
C809 C 0.08988 0.02174 0.60784 0.0
C810 C 0.0487 0.01366 0.60776 0.0
H811 H 0.87215 0.03181 0.6066 0.0
H812 H 0.94064 0.04808 0.60876 0.0
H813 H 0.95746 0.94686 0.61759 0.0
H814 H 0.1435 0.97634 0.60347 0.0
H815 H 0.07524 0.96151 0.60475 0.0
C816 C 0.8618 0.86093 0.94088 0.0
C817 C 0.87118 0.83128 0.9427 0.0
C818 C 0.89122 0.9005 0.94128 0.0
C819 C 0.99417 0.96766 0.95094 0.0
H820 H 0.99367 0.0338 0.92573 0.0
C821 C 0.12875 0.11989 0.93958 0.0
C822 C 0.12059 0.14984 0.93676 0.0
C823 C 0.09803 0.08116 0.94105 0.0
C824 C 0.99406 0.01587 0.93291 0.0
H825 H 0.91845 0.81995 0.94689 0.0
H826 H 0.96939 0.88844 0.94748 0.0
H827 H 0.93946 0.96675 0.92751 0.0
H828 H 0.07373 0.16266 0.93352 0.0
H829 H 0.02076 0.0958 0.93615 0.0
H830 H 0.04915 0.01684 0.95623 0.0
C831 C 0.93945 0.88141 0.94582 0.0
C832 C 0.96286 0.97745 0.93396 0.0
C833 C 0.91018 0.84203 0.9454 0.0
C834 C 0.08121 0.14035 0.9356 0.0
C835 C 0.05071 0.10188 0.93705 0.0
C836 C 0.02545 0.00614 0.94988 0.0
C837 C 0.93052 0.91114 0.94357 0.0
C838 C 0.96257 0.9528 0.94296 0.0
C839 C 0.05866 0.07174 0.93969 0.0
C840 C 0.02577 0.03067 0.94084 0.0
H841 H 0.83202 0.8536 0.93881 0.0
H842 H 0.88329 0.92276 0.93966 0.0
H843 H 0.99467 0.94958 0.95806 0.0
H844 H 0.15877 0.12627 0.94054 0.0
H845 H 0.10511 0.0585 0.94301 0.0
C846 C 0.06987 0.91861 0.27774 0.0
C847 C 0.0433 0.8804 0.27384 0.0
C848 C 0.05895 0.94726 0.27823 0.0
C849 C 0.98968 0.973 0.26494 0.0
H850 H 0.02792 0.05254 0.28942 0.0
C851 C 0.94346 0.09032 0.26734 0.0
C852 C 0.97246 0.12911 0.26996 0.0
C853 C 0.95128 0.05959 0.26834 0.0
C854 C 0.01738 0.03078 0.28246 0.0
H855 H 0.98382 0.84192 0.2678 0.0
H856 H 0.96443 0.89213 0.26877 0.0
H857 H 0.04066 0.99803 0.2908 0.0
H858 H 0.03251 0.16594 0.2758 0.0
H859 H 0.04639 0.11195 0.2775 0.0
H860 H 0.9666 0.00583 0.25657 0.0
C861 C 0.994 0.89994 0.2713 0.0
C862 C 0.02455 0.99945 0.28326 0.0
C863 C 0.00496 0.87109 0.27083 0.0
C864 C 0.00957 0.1364 0.2737 0.0
C865 C 0.01741 0.10546 0.27474 0.0
C866 C 0.98245 0.00426 0.26416 0.0
C867 C 0.02111 0.93854 0.27485 0.0
C868 C 0.01102 0.9703 0.27447 0.0
C869 C 0.98834 0.06671 0.27201 0.0
C870 C 0.99635 0.03363 0.27288 0.0
H871 H 0.09964 0.92682 0.28016 0.0
H872 H 0.08075 0.97669 0.28087 0.0
H873 H 0.97947 0.95154 0.2579 0.0
H874 H 0.91444 0.08348 0.26448 0.0
H875 H 0.92803 0.03009 0.26635 0.0
loop_
_geom_bond_atom_site_label_1
_geom_bond_atom_site_label_2
_geom_bond_distance
_geom_bond_site_symmetry_2
_ccdc_geom_bond_type
Mg0 O7 2.141 . S
Mg0 O8 2.048 . S
Mg0 O9 2.048 . S
Mg0 O12 2.141 . S
C1 O2 1.313 . S
C1 O8 1.195 . S
O2 C1 1.313 . S
C3 O4 1.245 . S
C3 O12 1.289 . S
O4 C3 1.245 . S
C5 O6 1.245 . S
C5 O7 1.289 . S
O6 C5 1.245 . S
O7 Mg0 2.141 . S
O7 C5 1.289 . S
O8 Mg0 2.048 . S
O8 C1 1.195 . S
O9 Mg0 2.048 . S
O9 C10 1.195 . S
C10 O9 1.195 . S
C10 O11 1.313 . S
O11 C10 1.313 . S
O12 Mg0 2.141 . S
O12 C3 1.289 . S
Mg13 O20 2.141 . S
Mg13 O21 2.048 . S
Mg13 O22 2.048 . S
Mg13 O25 2.141 . S
C14 O15 1.313 . S
C14 O21 1.195 . S
O15 C14 1.313 . S
C16 O17 1.245 . S
C16 O25 1.289 . S
O17 C16 1.245 . S
C18 O19 1.245 . S
C18 O20 1.289 . S
O19 C18 1.245 . S
O20 Mg13 2.141 . S
O20 C18 1.289 . S
O21 Mg13 2.048 . S
O21 C14 1.195 . S
O22 Mg13 2.048 . S
O22 C23 1.195 . S
C23 O22 1.195 . S
C23 O24 1.313 . S
O24 C23 1.313 . S
O25 Mg13 2.141 . S
O25 C16 1.289 . S
Mg26 O33 2.141 . S
Mg26 O34 2.048 . S
Mg26 O35 2.048 . S
Mg26 O38 2.141 . S
C27 O28 1.313 . S
C27 O34 1.195 . S
O28 C27 1.313 . S
C29 O30 1.245 . S
C29 O38 1.289 . S
O30 C29 1.245 . S
C31 O32 1.245 . S
C31 O33 1.289 . S
O32 C31 1.245 . S
O33 Mg26 2.141 . S
O33 C31 1.289 . S
O34 Mg26 2.048 . S
O34 C27 1.195 . S
O35 Mg26 2.048 . S
O35 C36 1.195 . S
C36 O35 1.195 . S
C36 O37 1.313 . S
O37 C36 1.313 . S
O38 Mg26 2.141 . S
O38 C29 1.289 . S
Mg39 O46 2.141 . S
Mg39 O47 2.048 . S
Mg39 O48 2.048 . S
Mg39 O51 2.141 . S
C40 O41 1.313 . S
C40 O47 1.195 . S
O41 C40 1.313 . S
C42 O43 1.245 . S
C42 O51 1.289 . S
O43 C42 1.245 . S
C44 O45 1.245 . S
C44 O46 1.289 . S
O45 C44 1.245 . S
O46 Mg39 2.141 . S
O46 C44 1.289 . S
O47 Mg39 2.048 . S
O47 C40 1.195 . S
O48 Mg39 2.048 . S
O48 C49 1.195 . S
C49 O48 1.195 . S
C49 O50 1.313 . S
O50 C49 1.313 . S
O51 Mg39 2.141 . S
O51 C42 1.289 . S
Mg52 O59 2.141 . S
Mg52 O60 2.048 . S
Mg52 O61 2.048 . S
Mg52 O64 2.141 . S
C53 O54 1.313 . S
C53 O60 1.195 . S
O54 C53 1.313 . S
C55 O56 1.245 . S
C55 O64 1.289 . S
O56 C55 1.245 . S
C57 O58 1.245 . S
C57 O59 1.289 . S
O58 C57 1.245 . S
O59 Mg52 2.141 . S
O59 C57 1.289 . S
O60 Mg52 2.048 . S
O60 C53 1.195 . S
O61 Mg52 2.048 . S
O61 C62 1.195 . S
C62 O61 1.195 . S
C62 O63 1.313 . S
O63 C62 1.313 . S
O64 Mg52 2.141 . S
O64 C55 1.289 . S
Mg65 O72 2.141 . S
Mg65 O73 2.048 . S
Mg65 O74 2.048 . S
Mg65 O77 2.141 . S
C66 O67 1.313 . S
C66 O73 1.195 . S
O67 C66 1.313 . S
C68 O69 1.245 . S
C68 O77 1.289 . S
O69 C68 1.245 . S
C70 O71 1.245 . S
C70 O72 1.289 . S
O71 C70 1.245 . S
O72 Mg65 2.141 . S
O72 C70 1.289 . S
O73 Mg65 2.048 . S
O73 C66 1.195 . S
O74 Mg65 2.048 . S
O74 C75 1.195 . S
C75 O74 1.195 . S
C75 O76 1.313 . S
O76 C75 1.313 . S
O77 Mg65 2.141 . S
O77 C68 1.289 . S
Mg78 O85 2.141 . S
Mg78 O86 2.048 . S
Mg78 O87 2.048 . S
Mg78 O90 2.141 . S
C79 O80 1.313 . S
C79 O86 1.195 . S
O80 C79 1.313 . S
C81 O82 1.245 . S
C81 O90 1.289 . S
O82 C81 1.245 . S
C83 O84 1.245 . S
C83 O85 1.289 . S
O84 C83 1.245 . S
O85 Mg78 2.141 . S
O85 C83 1.289 . S
O86 Mg78 2.048 . S
O86 C79 1.195 . S
O87 Mg78 2.048 . S
O87 C88 1.195 . S
C88 O87 1.195 . S
C88 O89 1.313 . S
O89 C88 1.313 . S
O90 Mg78 2.141 . S
O90 C81 1.289 . S
Mg91 O98 2.141 . S
Mg91 O99 2.048 . S
Mg91 O100 2.048 . S
Mg91 O103 2.141 . S
C92 O93 1.313 . S
C92 O99 1.195 . S
O93 C92 1.313 . S
C94 O95 1.245 . S
C94 O103 1.289 . S
O95 C94 1.245 . S
C96 O97 1.245 . S
C96 O98 1.289 . S
O97 C96 1.245 . S
O98 Mg91 2.141 . S
O98 C96 1.289 . S
O99 Mg91 2.048 . S
O99 C92 1.195 . S
O100 Mg91 2.048 . S
O100 C101 1.195 . S
C101 O100 1.195 . S
C101 O102 1.313 . S
O102 C101 1.313 . S
O103 Mg91 2.141 . S
O103 C94 1.289 . S
Mg104 O111 2.141 . S
Mg104 O112 2.048 . S
Mg104 O113 2.048 . S
Mg104 O116 2.141 . S
C105 O106 1.313 . S
C105 O112 1.195 . S
O106 C105 1.313 . S
C107 O108 1.245 . S
C107 O116 1.289 . S
O108 C107 1.245 . S
C109 O110 1.245 . S
C109 O111 1.289 . S
O110 C109 1.245 . S
O111 Mg104 2.141 . S
O111 C109 1.289 . S
O112 Mg104 2.048 . S
O112 C105 1.195 . S
O113 Mg104 2.048 . S
O113 C114 1.195 . S
C114 O113 1.195 . S
C114 O115 1.313 . S
O115 C114 1.313 . S
O116 Mg104 2.141 . S
O116 C107 1.289 . S
Mg117 O124 2.141 . S
Mg117 O125 2.048 . S
Mg117 O126 2.048 . S
Mg117 O129 2.141 . S
C118 O119 1.313 . S
C118 O125 1.195 . S
O119 C118 1.313 . S
C120 O121 1.245 . S
C120 O129 1.289 . S
O121 C120 1.245 . S
C122 O123 1.245 . S
C122 O124 1.289 . S
O123 C122 1.245 . S
O124 Mg117 2.141 . S
O124 C122 1.289 . S
O125 Mg117 2.048 . S
O125 C118 1.195 . S
O126 Mg117 2.048 . S
O126 C127 1.195 . S
C127 O126 1.195 . S
C127 O128 1.313 . S
O128 C127 1.313 . S
O129 Mg117 2.141 . S
O129 C120 1.289 . S
Mg130 O137 2.141 . S
Mg130 O138 2.048 . S
Mg130 O139 2.048 . S
Mg130 O142 2.141 . S
C131 O132 1.313 . S
C131 O138 1.195 . S
O132 C131 1.313 . S
C133 O134 1.245 . S
C133 O142 1.289 . S
O134 C133 1.245 . S
C135 O136 1.245 . S
C135 O137 1.289 . S
O136 C135 1.245 . S
O137 Mg130 2.141 . S
O137 C135 1.289 . S
O138 Mg130 2.048 . S
O138 C131 1.195 . S
O139 Mg130 2.048 . S
O139 C140 1.195 . S
C140 O139 1.195 . S
C140 O141 1.313 . S
O141 C140 1.313 . S
O142 Mg130 2.141 . S
O142 C133 1.289 . S
Mg143 O150 2.141 . S
Mg143 O151 2.048 . S
Mg143 O152 2.048 . S
Mg143 O155 2.141 . S
C144 O145 1.313 . S
C144 O151 1.195 . S
O145 C144 1.313 . S
C146 O147 1.245 . S
C146 O155 1.289 . S
O147 C146 1.245 . S
C148 O149 1.245 . S
C148 O150 1.289 . S
O149 C148 1.245 . S
O150 Mg143 2.141 . S
O150 C148 1.289 . S
O151 Mg143 2.048 . S
O151 C144 1.195 . S
O152 Mg143 2.048 . S
O152 C153 1.195 . S
C153 O152 1.195 . S
C153 O154 1.313 . S
O154 C153 1.313 . S
O155 Mg143 2.141 . S
O155 C146 1.289 . S
C156 C157 1.349 . S
C156 C158 1.327 . S
C156 H181 0.950 . S
C157 C156 1.349 . S
C157 C173 1.349 . S
C158 C156 1.327 . S
C158 C177 1.429 . S
C158 H182 0.950 . S
C159 C176 1.574 . S
C159 C178 1.368 1_455 S
C159 H183 0.949 . S
H160 C164 0.949 . S
C161 C162 1.349 . S
C161 C163 1.327 . S
C161 H184 0.950 . S
C162 C161 1.349 . S
C162 C174 1.349 . S
C163 C161 1.327 . S
C163 C179 1.429 . S
C163 H185 0.950 . S
C164 H160 0.949 . S
C164 C172 1.574 . S
C164 C180 1.368 1_655 S
H165 C173 0.950 1_455 S
H166 C171 0.950 . S
H167 C172 0.949 . S
H168 C174 0.950 1_655 S
H169 C175 0.950 . S
H170 C176 0.949 . S
C171 H166 0.950 . S
C171 C173 1.327 1_455 S
C171 C177 1.429 1_455 S
C172 C164 1.574 . S
C172 H167 0.949 . S
C172 C178 1.368 . S
C173 C157 1.349 . S
C173 H165 0.950 1_655 S
C173 C171 1.327 1_655 S
C174 C162 1.349 . S
C174 H168 0.950 1_455 S
C174 C175 1.327 1_455 S
C175 H169 0.950 . S
C175 C174 1.327 1_655 S
C175 C179 1.429 1_655 S
C176 C159 1.574 . S
C176 H170 0.949 . S
C176 C180 1.368 . S
C177 C158 1.429 . S
C177 C171 1.429 1_655 S
C177 C178 1.523 . S
C178 C159 1.368 1_655 S
C178 C172 1.368 . S
C178 C177 1.523 . S
C179 C163 1.429 . S
C179 C175 1.429 1_455 S
C179 C180 1.523 . S
C180 C164 1.368 1_455 S
C180 C176 1.368 . S
C180 C179 1.523 . S
H181 C156 0.950 . S
H182 C158 0.950 . S
H183 C159 0.949 . S
H184 C161 0.950 . S
H185 C163 0.950 . S
C186 C187 1.349 . S
C186 C188 1.327 . S
C186 H211 0.950 . S
C187 C186 1.349 . S
C187 C203 1.349 . S
C188 C186 1.327 . S
C188 C207 1.429 . S
C188 H212 0.950 . S
C189 C206 1.574 . S
C189 C208 1.368 1_565 S
C189 H213 0.949 . S
H190 C194 0.949 . S
C191 C192 1.349 . S
C191 C193 1.327 . S
C191 H214 0.950 . S
C192 C191 1.349 . S
C192 C204 1.349 . S
C193 C191 1.327 . S
C193 C209 1.429 . S
C193 H215 0.950 . S
C194 H190 0.949 . S
C194 C202 1.574 . S
C194 C210 1.368 1_545 S
H195 C203 0.950 1_565 S
H196 C201 0.950 . S
H197 C202 0.949 . S
H198 C204 0.950 1_545 S
H199 C205 0.950 . S
H200 C206 0.949 . S
C201 H196 0.950 . S
C201 C203 1.327 1_565 S
C201 C207 1.429 1_565 S
C202 C194 1.574 . S
C202 H197 0.949 . S
C202 C208 1.368 . S
C203 C187 1.349 . S
C203 H195 0.950 1_545 S
C203 C201 1.327 1_545 S
C204 C192 1.349 . S
C204 H198 0.950 1_565 S
C204 C205 1.327 1_565 S
C205 H199 0.950 . S
C205 C204 1.327 1_545 S
C205 C209 1.429 1_545 S
C206 C189 1.574 . S
C206 H200 0.949 . S
C206 C210 1.368 . S
C207 C188 1.429 . S
C207 C201 1.429 1_545 S
C207 C208 1.523 . S
C208 C189 1.368 1_545 S
C208 C202 1.368 . S
C208 C207 1.523 . S
C209 C193 1.429 . S
C209 C205 1.429 1_565 S
C209 C210 1.523 . S
C210 C194 1.368 1_565 S
C210 C206 1.368 . S
C210 C209 1.523 . S
H211 C186 0.950 . S
H212 C188 0.950 . S
H213 C189 0.949 . S
H214 C191 0.950 . S
H215 C193 0.950 . S
C216 C217 1.349 . S
C216 C218 1.327 . S
C216 H241 0.950 . S
C217 C216 1.349 . S
C217 C233 1.349 . S
C218 C216 1.327 . S
C218 C237 1.429 . S
C218 H242 0.950 . S
C219 C236 1.574 . S
C219 C238 1.368 . S
C219 H243 0.949 . S
H220 C224 0.949 . S
C221 C222 1.349 . S
C221 C223 1.327 . S
C221 H244 0.950 . S
C222 C221 1.349 . S
C222 C234 1.349 . S
C223 C221 1.327 . S
C223 C239 1.429 . S
C223 H245 0.950 . S
C224 H220 0.949 . S
C224 C232 1.574 . S
C224 C240 1.368 . S
H225 C233 0.950 . S
H226 C231 0.950 . S
H227 C232 0.949 . S
H228 C234 0.950 . S
H229 C235 0.950 . S
H230 C236 0.949 . S
C231 H226 0.950 . S
C231 C233 1.327 . S
C231 C237 1.429 . S
C232 C224 1.574 . S
C232 H227 0.949 . S
C232 C238 1.368 . S
C233 C217 1.349 . S
C233 H225 0.950 . S
C233 C231 1.327 . S
C234 C222 1.349 . S
C234 H228 0.950 . S
C234 C235 1.327 . S
C235 H229 0.950 . S
C235 C234 1.327 . S
C235 C239 1.429 . S
C236 C219 1.574 . S
C236 H230 0.949 . S
C236 C240 1.368 . S
C237 C218 1.429 . S
C237 C231 1.429 . S
C237 C238 1.523 . S
C238 C219 1.368 . S
C238 C232 1.368 . S
C238 C237 1.523 . S
C239 C223 1.429 . S
C239 C235 1.429 . S
C239 C240 1.523 . S
C240 C224 1.368 . S
C240 C236 1.368 . S
C240 C239 1.523 . S
H241 C216 0.950 . S
H242 C218 0.950 . S
H243 C219 0.949 . S
H244 C221 0.950 . S
H245 C223 0.950 . S
C246 C247 1.349 . S
C246 C248 1.327 . S
C246 H271 0.950 . S
C247 C246 1.349 . S
C247 C263 1.349 . S
C248 C246 1.327 . S
C248 C267 1.429 . S
C248 H272 0.950 . S
C249 C266 1.574 1_655 S
C249 C268 1.368 . S
C249 H273 0.949 . S
H250 C254 0.949 . S
C251 C252 1.349 . S
C251 C253 1.327 . S
C251 H274 0.950 . S
C252 C251 1.349 . S
C252 C264 1.349 . S
C253 C251 1.327 . S
C253 C269 1.429 . S
C253 H275 0.950 . S
C254 H250 0.949 . S
C254 C262 1.574 1_455 S
C254 C270 1.368 . S
H255 C263 0.950 . S
H256 C261 0.950 . S
H257 C262 0.949 . S
H258 C264 0.950 . S
H259 C265 0.950 . S
H260 C266 0.949 . S
C261 H256 0.950 . S
C261 C263 1.327 . S
C261 C267 1.429 . S
C262 C254 1.574 1_655 S
C262 H257 0.949 . S
C262 C268 1.368 . S
C263 C247 1.349 . S
C263 H255 0.950 . S
C263 C261 1.327 . S
C264 C252 1.349 . S
C264 H258 0.950 . S
C264 C265 1.327 . S
C265 H259 0.950 . S
C265 C264 1.327 . S
C265 C269 1.429 . S
C266 C249 1.574 1_455 S
C266 H260 0.949 . S
C266 C270 1.368 . S
C267 C248 1.429 . S
C267 C261 1.429 . S
C267 C268 1.523 . S
C268 C249 1.368 . S
C268 C262 1.368 . S
C268 C267 1.523 . S
C269 C253 1.429 . S
C269 C265 1.429 . S
C269 C270 1.523 . S
C270 C254 1.368 . S
C270 C266 1.368 . S
C270 C269 1.523 . S
H271 C246 0.950 . S
H272 C248 0.950 . S
H273 C249 0.949 . S
H274 C251 0.950 . S
H275 C253 0.950 . S
C276 C277 1.349 . S
C276 C278 1.327 . S
C276 H301 0.950 . S
C277 C276 1.349 . S
C277 C293 1.332 1_545 S
C278 C276 1.327 . S
C278 C297 1.429 . S
C278 H302 0.950 . S
C279 C296 1.574 . S
C279 C298 1.368 1_565 S
C279 H303 0.949 . S
H280 C284 0.949 . S
C281 C282 1.349 . S
C281 C283 1.327 . S
C281 H304 0.950 . S
C282 C281 1.349 . S
C282 C294 1.327 1_565 S
C283 C281 1.327 . S
C283 C299 1.429 . S
C283 H305 0.950 . S
C284 H280 0.949 . S
C284 C292 1.574 . S
C284 C300 1.368 1_545 S
H285 C293 0.963 . S
H286 C291 0.950 . S
H287 C292 0.949 . S
H288 C294 0.967 . S
H289 C295 0.950 . S
H290 C296 0.949 . S
C291 H286 0.950 . S
C291 C293 1.331 . S
C291 C297 1.429 1_565 S
C292 C284 1.574 . S
C292 H287 0.949 . S
C292 C298 1.368 . S
C293 C277 1.332 1_565 S
C293 H285 0.963 . S
C293 C291 1.331 . S
C294 C282 1.327 1_545 S
C294 H288 0.967 . S
C294 C295 1.332 . S
C295 H289 0.950 . S
C295 C294 1.332 . S
C295 C299 1.429 1_545 S
C296 C279 1.574 . S
C296 H290 0.949 . S
C296 C300 1.368 . S
C297 C278 1.429 . S
C297 C291 1.429 1_545 S
C297 C298 1.523 . S
C298 C279 1.368 1_545 S
C298 C292 1.368 . S
C298 C297 1.523 . S
C299 C283 1.429 . S
C299 C295 1.429 1_565 S
C299 C300 1.523 . S
C300 C284 1.368 1_565 S
C300 C296 1.368 . S
C300 C299 1.523 . S
H301 C276 0.950 . S
H302 C278 0.950 . S
H303 C279 0.949 . S
H304 C281 0.950 . S
H305 C283 0.950 . S
C306 C307 1.349 . S
C306 C308 1.327 . S
C306 H331 0.950 . S
C307 C306 1.349 . S
C307 C323 1.349 . S
C308 C306 1.327 . S
C308 C327 1.429 . S
C308 H332 0.950 . S
C309 C326 1.574 . S
C309 C328 1.368 . S
C309 H333 0.949 . S
H310 C314 0.949 . S
C311 C312 1.349 . S
C311 C313 1.327 . S
C311 H334 0.950 . S
C312 C311 1.349 . S
C312 C324 1.349 . S
C313 C311 1.327 . S
C313 C329 1.429 . S
C313 H335 0.950 . S
C314 H310 0.949 . S
C314 C322 1.574 . S
C314 C330 1.368 . S
H315 C323 0.950 . S
H316 C321 0.950 . S
H317 C322 0.949 . S
H318 C324 0.950 . S
H319 C325 0.950 . S
H320 C326 0.949 . S
C321 H316 0.950 . S
C321 C323 1.327 . S
C321 C327 1.429 . S
C322 C314 1.574 . S
C322 H317 0.949 . S
C322 C328 1.368 . S
C323 C307 1.349 . S
C323 H315 0.950 . S
C323 C321 1.327 . S
C324 C312 1.349 . S
C324 H318 0.950 . S
C324 C325 1.327 . S
C325 H319 0.950 . S
C325 C324 1.327 . S
C325 C329 1.429 . S
C326 C309 1.574 . S
C326 H320 0.949 . S
C326 C330 1.368 . S
C327 C308 1.429 . S
C327 C321 1.429 . S
C327 C328 1.523 . S
C328 C309 1.368 . S
C328 C322 1.368 . S
C328 C327 1.523 . S
C329 C313 1.429 . S
C329 C325 1.429 . S
C329 C330 1.523 . S
C330 C314 1.368 . S
C330 C326 1.368 . S
C330 C329 1.523 . S
H331 C306 0.950 . S
H332 C308 0.950 . S
H333 C309 0.949 . S
H334 C311 0.950 . S
H335 C313 0.950 . S
C336 C337 1.349 . S
C336 C338 1.327 . S
C336 H361 0.950 . S
C337 C336 1.349 . S
C337 C353 1.349 . S
C338 C336 1.327 . S
C338 C357 1.429 . S
C338 H362 0.950 . S
C339 C356 1.574 1_554 S
C339 C358 1.368 . S
C339 H363 0.949 . S
H340 C344 0.949 . S
C341 C342 1.349 . S
C341 C343 1.327 . S
C341 H364 0.950 . S
C342 C341 1.349 . S
C342 C354 1.349 . S
C343 C341 1.327 . S
C343 C359 1.429 . S
C343 H365 0.950 . S
C344 H340 0.949 . S
C344 C352 1.574 1_556 S
C344 C360 1.368 . S
H345 C353 0.950 . S
H346 C351 0.950 . S
H347 C352 0.949 . S
H348 C354 0.950 . S
H349 C355 0.950 . S
H350 C356 0.949 . S
C351 H346 0.950 . S
C351 C353 1.327 . S
C351 C357 1.429 . S
C352 C344 1.574 1_554 S
C352 H347 0.949 . S
C352 C358 1.368 . S
C353 C337 1.349 . S
C353 H345 0.950 . S
C353 C351 1.327 . S
C354 C342 1.349 . S
C354 H348 0.950 . S
C354 C355 1.327 . S
C355 H349 0.950 . S
C355 C354 1.327 . S
C355 C359 1.429 . S
C356 C339 1.574 1_556 S
C356 H350 0.949 . S
C356 C360 1.368 . S
C357 C338 1.429 . S
C357 C351 1.429 . S
C357 C358 1.523 . S
C358 C339 1.368 . S
C358 C352 1.368 . S
C358 C357 1.523 . S
C359 C343 1.429 . S
C359 C355 1.429 . S
C359 C360 1.523 . S
C360 C344 1.368 . S
C360 C356 1.368 . S
C360 C359 1.523 . S
H361 C336 0.950 . S
H362 C338 0.950 . S
H363 C339 0.949 . S
H364 C341 0.950 . S
H365 C343 0.950 . S
C366 C367 1.349 . S
C366 C368 1.327 . S
C366 H391 0.950 . S
C367 C366 1.349 . S
C367 C383 1.349 . S
C368 C366 1.327 . S
C368 C387 1.429 . S
C368 H392 0.950 . S
C369 C386 1.574 . S
C369 C388 1.368 . S
C369 H393 0.949 . S
H370 C374 0.949 . S
C371 C372 1.349 . S
C371 C373 1.327 . S
C371 H394 0.950 . S
C372 C371 1.349 . S
C372 C384 1.349 . S
C373 C371 1.327 . S
C373 C389 1.429 . S
C373 H395 0.950 . S
C374 H370 0.949 . S
C374 C382 1.574 . S
C374 C390 1.368 . S
H375 C383 0.950 . S
H376 C381 0.950 . S
H377 C382 0.949 . S
H378 C384 0.950 . S
H379 C385 0.950 . S
H380 C386 0.949 . S
C381 H376 0.950 . S
C381 C383 1.327 . S
C381 C387 1.429 . S
C382 C374 1.574 . S
C382 H377 0.949 . S
C382 C388 1.368 . S
C383 C367 1.349 . S
C383 H375 0.950 . S
C383 C381 1.327 . S
C384 C372 1.349 . S
C384 H378 0.950 . S
C384 C385 1.327 . S
C385 H379 0.950 . S
C385 C384 1.327 . S
C385 C389 1.429 . S
C386 C369 1.574 . S
C386 H380 0.949 . S
C386 C390 1.368 . S
C387 C368 1.429 . S
C387 C381 1.429 . S
C387 C388 1.523 . S
C388 C369 1.368 . S
C388 C382 1.368 . S
C388 C387 1.523 . S
C389 C373 1.429 . S
C389 C385 1.429 . S
C389 C390 1.523 . S
C390 C374 1.368 . S
C390 C386 1.368 . S
C390 C389 1.523 . S
H391 C366 0.950 . S
H392 C368 0.950 . S
H393 C369 0.949 . S
H394 C371 0.950 . S
H395 C373 0.950 . S
C396 C397 1.349 . S
C396 C398 1.327 . S
C396 H421 0.950 . S
C397 C396 1.349 . S
C397 C413 1.349 . S
C398 C396 1.327 . S
C398 C417 1.429 . S
C398 H422 0.950 . S
C399 C416 1.574 . S
C399 C418 1.368 . S
C399 H423 0.949 . S
H400 C404 0.949 . S
C401 C402 1.349 . S
C401 C403 1.327 . S
C401 H424 0.950 . S
C402 C401 1.349 . S
C402 C414 1.349 . S
C403 C401 1.327 . S
C403 C419 1.429 . S
C403 H425 0.950 . S
C404 H400 0.949 . S
C404 C412 1.574 . S
C404 C420 1.368 . S
H405 C413 0.950 . S
H406 C411 0.950 . S
H407 C412 0.949 . S
H408 C414 0.950 . S
H409 C415 0.950 . S
H410 C416 0.949 . S
C411 H406 0.950 . S
C411 C413 1.327 . S
C411 C417 1.429 . S
C412 C404 1.574 . S
C412 H407 0.949 . S
C412 C418 1.368 . S
C413 C397 1.349 . S
C413 H405 0.950 . S
C413 C411 1.327 . S
C414 C402 1.349 . S
C414 H408 0.950 . S
C414 C415 1.327 . S
C415 H409 0.950 . S
C415 C414 1.327 . S
C415 C419 1.429 . S
C416 C399 1.574 . S
C416 H410 0.949 . S
C416 C420 1.368 . S
C417 C398 1.429 . S
C417 C411 1.429 . S
C417 C418 1.523 . S
C418 C399 1.368 . S
C418 C412 1.368 . S
C418 C417 1.523 . S
C419 C403 1.429 . S
C419 C415 1.429 . S
C419 C420 1.523 . S
C420 C404 1.368 . S
C420 C416 1.368 . S
C420 C419 1.523 . S
H421 C396 0.950 . S
H422 C398 0.950 . S
H423 C399 0.949 . S
H424 C401 0.950 . S
H425 C403 0.950 . S
C426 C427 1.349 . S
C426 C428 1.327 . S
C426 H451 0.950 . S
C427 C426 1.349 . S
C427 C443 1.349 . S
C428 C426 1.327 . S
C428 C447 1.429 . S
C428 H452 0.950 . S
C429 C446 1.574 1_554 S
C429 C448 1.368 . S
C429 H453 0.949 . S
H430 C434 0.949 . S
C431 C432 1.349 . S
C431 C433 1.327 . S
C431 H454 0.950 . S
C432 C431 1.349 . S
C432 C444 1.349 . S
C433 C431 1.327 . S
C433 C449 1.429 . S
C433 H455 0.950 . S
C434 H430 0.949 . S
C434 C442 1.574 1_556 S
C434 C450 1.368 . S
H435 C443 0.950 . S
H436 C441 0.950 . S
H437 C442 0.949 . S
H438 C444 0.950 . S
H439 C445 0.950 . S
H440 C446 0.949 . S
C441 H436 0.950 . S
C441 C443 1.327 . S
C441 C447 1.429 . S
C442 C434 1.574 1_554 S
C442 H437 0.949 . S
C442 C448 1.368 . S
C443 C427 1.349 . S
C443 H435 0.950 . S
C443 C441 1.327 . S
C444 C432 1.349 . S
C444 H438 0.950 . S
C444 C445 1.327 . S
C445 H439 0.950 . S
C445 C444 1.327 . S
C445 C449 1.429 . S
C446 C429 1.574 1_556 S
C446 H440 0.949 . S
C446 C450 1.368 . S
C447 C428 1.429 . S
C447 C441 1.429 . S
C447 C448 1.523 . S
C448 C429 1.368 . S
C448 C442 1.368 . S
C448 C447 1.523 . S
C449 C433 1.429 . S
C449 C445 1.429 . S
C449 C450 1.523 . S
C450 C434 1.368 . S
C450 C446 1.368 . S
C450 C449 1.523 . S
H451 C426 0.950 . S
H452 C428 0.950 . S
H453 C429 0.949 . S
H454 C431 0.950 . S
H455 C433 0.950 . S
C456 C457 1.349 . S
C456 C458 1.327 . S
C456 H481 0.950 . S
C457 C456 1.349 . S
C457 C473 1.349 . S
C458 C456 1.327 . S
C458 C477 1.429 . S
C458 H482 0.950 . S
C459 C476 1.574 . S
C459 C478 1.368 . S
C459 H483 0.949 . S
H460 C464 0.949 . S
C461 C462 1.349 . S
C461 C463 1.327 . S
C461 H484 0.950 . S
C462 C461 1.349 . S
C462 C474 1.349 . S
C463 C461 1.327 . S
C463 C479 1.429 . S
C463 H485 0.950 . S
C464 H460 0.949 . S
C464 C472 1.574 . S
C464 C480 1.368 . S
H465 C473 0.950 . S
H466 C471 0.950 . S
H467 C472 0.949 . S
H468 C474 0.950 . S
H469 C475 0.950 . S
H470 C476 0.949 . S
C471 H466 0.950 . S
C471 C473 1.327 . S
C471 C477 1.429 . S
C472 C464 1.574 . S
C472 H467 0.949 . S
C472 C478 1.368 . S
C473 C457 1.349 . S
C473 H465 0.950 . S
C473 C471 1.327 . S
C474 C462 1.349 . S
C474 H468 0.950 . S
C474 C475 1.327 . S
C475 H469 0.950 . S
C475 C474 1.327 . S
C475 C479 1.429 . S
C476 C459 1.574 . S
C476 H470 0.949 . S
C476 C480 1.368 . S
C477 C458 1.429 . S
C477 C471 1.429 . S
C477 C478 1.523 . S
C478 C459 1.368 . S
C478 C472 1.368 . S
C478 C477 1.523 . S
C479 C463 1.429 . S
C479 C475 1.429 . S
C479 C480 1.523 . S
C480 C464 1.368 . S
C480 C476 1.368 . S
C480 C479 1.523 . S
H481 C456 0.950 . S
H482 C458 0.950 . S
H483 C459 0.949 . S
H484 C461 0.950 . S
H485 C463 0.950 . S
C486 C487 1.349 . S
C486 C488 1.327 . S
C486 H511 0.950 . S
C487 C486 1.349 . S
C487 C503 1.349 . S
C488 C486 1.327 . S
C488 C507 1.429 . S
C488 H512 0.950 . S
C489 C506 1.574 . S
C489 C508 1.368 . S
C489 H513 0.949 . S
H490 C494 0.949 . S
C491 C492 1.349 . S
C491 C493 1.327 . S
C491 H514 0.950 . S
C492 C491 1.349 . S
C492 C504 1.349 . S
C493 C491 1.327 . S
C493 C509 1.429 . S
C493 H515 0.950 . S
C494 H490 0.949 . S
C494 C502 1.574 . S
C494 C510 1.368 . S
H495 C503 0.950 . S
H496 C501 0.950 . S
H497 C502 0.949 . S
H498 C504 0.950 . S
H499 C505 0.950 . S
H500 C506 0.949 . S
C501 H496 0.950 . S
C501 C503 1.327 . S
C501 C507 1.429 . S
C502 C494 1.574 . S
C502 H497 0.949 . S
C502 C508 1.368 . S
C503 C487 1.349 . S
C503 H495 0.950 . S
C503 C501 1.327 . S
C504 C492 1.349 . S
C504 H498 0.950 . S
C504 C505 1.327 . S
C505 H499 0.950 . S
C505 C504 1.327 . S
C505 C509 1.429 . S
C506 C489 1.574 . S
C506 H500 0.949 . S
C506 C510 1.368 . S
C507 C488 1.429 . S
C507 C501 1.429 . S
C507 C508 1.523 . S
C508 C489 1.368 . S
C508 C502 1.368 . S
C508 C507 1.523 . S
C509 C493 1.429 . S
C509 C505 1.429 . S
C509 C510 1.523 . S
C510 C494 1.368 . S
C510 C506 1.368 . S
C510 C509 1.523 . S
H511 C486 0.950 . S
H512 C488 0.950 . S
H513 C489 0.949 . S
H514 C491 0.950 . S
H515 C493 0.950 . S
C516 C517 1.349 . S
C516 C518 1.327 . S
C516 H541 0.950 . S
C517 C516 1.349 . S
C517 C533 1.349 . S
C518 C516 1.327 . S
C518 C537 1.429 . S
C518 H542 0.950 . S
C519 C536 1.574 . S
C519 C538 1.368 1_455 S
C519 H543 0.949 . S
H520 C524 0.949 . S
C521 C522 1.349 . S
C521 C523 1.327 . S
C521 H544 0.950 . S
C522 C521 1.349 . S
C522 C534 1.349 . S
C523 C521 1.327 . S
C523 C539 1.429 . S
C523 H545 0.950 . S
C524 H520 0.949 . S
C524 C532 1.574 . S
C524 C540 1.368 1_655 S
H525 C533 0.950 . S
H526 C531 0.940 1_455 S
H527 C532 0.949 . S
H528 C534 0.950 . S
H529 C535 0.927 1_655 S
H530 C536 0.949 . S
C531 H526 0.940 1_655 S
C531 C533 1.327 . S
C531 C537 1.429 . S
C532 C524 1.574 . S
C532 H527 0.949 . S
C532 C538 1.368 . S
C533 C517 1.349 . S
C533 H525 0.950 . S
C533 C531 1.327 . S
C534 C522 1.349 . S
C534 H528 0.950 . S
C534 C535 1.327 . S
C535 H529 0.927 1_455 S
C535 C534 1.327 . S
C535 C539 1.429 . S
C536 C519 1.574 . S
C536 H530 0.949 . S
C536 C540 1.368 . S
C537 C518 1.429 . S
C537 C531 1.429 . S
C537 C538 1.523 . S
C538 C519 1.368 1_655 S
C538 C532 1.368 . S
C538 C537 1.523 . S
C539 C523 1.429 . S
C539 C535 1.429 . S
C539 C540 1.523 . S
C540 C524 1.368 1_455 S
C540 C536 1.368 . S
C540 C539 1.523 . S
H541 C516 0.950 . S
H542 C518 0.950 . S
H543 C519 0.949 . S
H544 C521 0.950 . S
H545 C523 0.950 . S
C546 C547 1.349 . S
C546 C548 1.327 . S
C546 H571 0.950 . S
C547 C546 1.349 . S
C547 C563 1.349 . S
C548 C546 1.327 . S
C548 C567 1.429 . S
C548 H572 0.938 1_545 S
C549 C566 1.574 . S
C549 C568 1.368 . S
C549 H573 0.949 . S
H550 C554 0.949 . S
C551 C552 1.349 . S
C551 C553 1.327 . S
C551 H574 0.950 . S
C552 C551 1.349 . S
C552 C564 1.349 . S
C553 C551 1.327 . S
C553 C569 1.429 . S
C553 H575 0.941 1_565 S
C554 H550 0.949 . S
C554 C562 1.574 . S
C554 C570 1.368 . S
H555 C563 0.950 . S
H556 C561 0.950 . S
H557 C562 0.949 . S
H558 C564 0.950 . S
H559 C565 0.950 . S
H560 C566 0.949 . S
C561 H556 0.950 . S
C561 C563 1.327 . S
C561 C567 1.429 . S
C562 C554 1.574 . S
C562 H557 0.949 . S
C562 C568 1.368 1_565 S
C563 C547 1.349 . S
C563 H555 0.950 . S
C563 C561 1.327 . S
C564 C552 1.349 . S
C564 H558 0.950 . S
C564 C565 1.327 . S
C565 H559 0.950 . S
C565 C564 1.327 . S
C565 C569 1.429 . S
C566 C549 1.574 . S
C566 H560 0.949 . S
C566 C570 1.368 1_545 S
C567 C548 1.429 . S
C567 C561 1.429 . S
C567 C568 1.523 . S
C568 C549 1.368 . S
C568 C562 1.368 1_545 S
C568 C567 1.523 . S
C569 C553 1.429 . S
C569 C565 1.429 . S
C569 C570 1.523 . S
C570 C554 1.368 . S
C570 C566 1.368 1_565 S
C570 C569 1.523 . S
H571 C546 0.950 . S
H572 C548 0.938 1_565 S
H573 C549 0.949 . S
H574 C551 0.950 . S
H575 C553 0.941 1_545 S
C576 C577 1.349 . S
C576 C578 1.327 . S
C576 H601 0.950 . S
C577 C576 1.349 . S
C577 C593 1.349 . S
C578 C576 1.327 . S
C578 C597 1.429 . S
C578 H602 0.950 . S
C579 C596 1.574 . S
C579 C598 1.368 . S
C579 H603 0.949 . S
H580 C584 0.949 . S
C581 C582 1.349 . S
C581 C583 1.327 . S
C581 H604 0.950 . S
C582 C581 1.349 . S
C582 C594 1.349 . S
C583 C581 1.327 . S
C583 C599 1.429 . S
C583 H605 0.950 . S
C584 H580 0.949 . S
C584 C592 1.574 . S
C584 C600 1.368 . S
H585 C593 0.950 . S
H586 C591 0.950 . S
H587 C592 0.949 . S
H588 C594 0.950 . S
H589 C595 0.950 . S
H590 C596 0.949 . S
C591 H586 0.950 . S
C591 C593 1.327 . S
C591 C597 1.429 . S
C592 C584 1.574 . S
C592 H587 0.949 . S
C592 C598 1.368 . S
C593 C577 1.349 . S
C593 H585 0.950 . S
C593 C591 1.327 . S
C594 C582 1.349 . S
C594 H588 0.950 . S
C594 C595 1.327 . S
C595 H589 0.950 . S
C595 C594 1.327 . S
C595 C599 1.429 . S
C596 C579 1.574 . S
C596 H590 0.949 . S
C596 C600 1.368 . S
C597 C578 1.429 . S
C597 C591 1.429 . S
C597 C598 1.523 . S
C598 C579 1.368 . S
C598 C592 1.368 . S
C598 C597 1.523 . S
C599 C583 1.429 . S
C599 C595 1.429 . S
C599 C600 1.523 . S
C600 C584 1.368 . S
C600 C596 1.368 . S
C600 C599 1.523 . S
H601 C576 0.950 . S
H602 C578 0.950 . S
H603 C579 0.949 . S
H604 C581 0.950 . S
H605 C583 0.950 . S
C606 C607 1.349 . S
C606 C608 1.327 . S
C606 H631 0.950 . S
C607 C606 1.349 . S
C607 C623 1.349 . S
C608 C606 1.327 . S
C608 C627 1.429 . S
C608 H632 0.950 . S
C609 C626 1.574 . S
C609 C628 1.368 1_565 S
C609 H633 0.949 . S
H610 C614 0.949 . S
C611 C612 1.349 . S
C611 C613 1.327 . S
C611 H634 0.950 . S
C612 C611 1.349 . S
C612 C624 1.349 . S
C613 C611 1.327 . S
C613 C629 1.429 . S
C613 H635 0.950 . S
C614 H610 0.949 . S
C614 C622 1.574 . S
C614 C630 1.368 1_545 S
H615 C623 0.950 . S
H616 C621 0.939 1_565 S
H617 C622 0.949 . S
H618 C624 0.950 . S
H619 C625 0.926 1_545 S
H620 C626 0.949 . S
C621 H616 0.939 1_545 S
C621 C623 1.327 . S
C621 C627 1.429 . S
C622 C614 1.574 . S
C622 H617 0.949 . S
C622 C628 1.368 . S
C623 C607 1.349 . S
C623 H615 0.950 . S
C623 C621 1.327 . S
C624 C612 1.349 . S
C624 H618 0.950 . S
C624 C625 1.327 . S
C625 H619 0.926 1_565 S
C625 C624 1.327 . S
C625 C629 1.429 . S
C626 C609 1.574 . S
C626 H620 0.949 . S
C626 C630 1.368 . S
C627 C608 1.429 . S
C627 C621 1.429 . S
C627 C628 1.523 . S
C628 C609 1.368 1_545 S
C628 C622 1.368 . S
C628 C627 1.523 . S
C629 C613 1.429 . S
C629 C625 1.429 . S
C629 C630 1.523 . S
C630 C614 1.368 1_565 S
C630 C626 1.368 . S
C630 C629 1.523 . S
H631 C606 0.950 . S
H632 C608 0.950 . S
H633 C609 0.949 . S
H634 C611 0.950 . S
H635 C613 0.950 . S
C636 C637 1.349 . S
C636 C638 1.327 . S
C636 H661 0.950 . S
C637 C636 1.349 . S
C637 C653 1.349 . S
C638 C636 1.327 . S
C638 C657 1.429 . S
C638 H662 0.950 . S
C639 C656 1.574 . S
C639 C658 1.368 . S
C639 H663 0.949 . S
H640 C644 0.949 . S
C641 C642 1.349 . S
C641 C643 1.327 . S
C641 H664 0.950 . S
C642 C641 1.349 . S
C642 C654 1.349 . S
C643 C641 1.327 . S
C643 C659 1.429 . S
C643 H665 0.950 . S
C644 H640 0.949 . S
C644 C652 1.574 . S
C644 C660 1.368 . S
H645 C653 0.950 . S
H646 C651 0.950 . S
H647 C652 0.949 . S
H648 C654 0.950 . S
H649 C655 0.950 . S
H650 C656 0.949 . S
C651 H646 0.950 . S
C651 C653 1.327 . S
C651 C657 1.429 . S
C652 C644 1.574 . S
C652 H647 0.949 . S
C652 C658 1.368 . S
C653 C637 1.349 . S
C653 H645 0.950 . S
C653 C651 1.327 . S
C654 C642 1.349 . S
C654 H648 0.950 . S
C654 C655 1.327 . S
C655 H649 0.950 . S
C655 C654 1.327 . S
C655 C659 1.429 . S
C656 C639 1.574 . S
C656 H650 0.949 . S
C656 C660 1.368 . S
C657 C638 1.429 . S
C657 C651 1.429 . S
C657 C658 1.523 . S
C658 C639 1.368 . S
C658 C652 1.368 . S
C658 C657 1.523 . S
C659 C643 1.429 . S
C659 C655 1.429 . S
C659 C660 1.523 . S
C660 C644 1.368 . S
C660 C656 1.368 . S
C660 C659 1.523 . S
H661 C636 0.950 . S
H662 C638 0.950 . S
H663 C639 0.949 . S
H664 C641 0.950 . S
H665 C643 0.950 . S
C666 C667 1.349 . S
C666 C668 1.327 . S
C666 H691 0.950 . S
C667 C666 1.349 . S
C667 C683 1.349 . S
C668 C666 1.327 . S
C668 C687 1.429 . S
C668 H692 0.950 . S
C669 C686 1.574 . S
C669 C688 1.368 1_655 S
C669 H693 0.949 . S
H670 C674 0.949 . S
C671 C672 1.349 . S
C671 C673 1.327 . S
C671 H694 0.950 . S
C672 C671 1.349 . S
C672 C684 1.349 . S
C673 C671 1.327 . S
C673 C689 1.429 . S
C673 H695 0.950 . S
C674 H670 0.949 . S
C674 C682 1.574 . S
C674 C690 1.368 1_455 S
H675 C683 0.950 . S
H676 C681 0.941 1_655 S
H677 C682 0.949 . S
H678 C684 0.950 . S
H679 C685 0.938 1_455 S
H680 C686 0.949 . S
C681 H676 0.941 1_455 S
C681 C683 1.327 . S
C681 C687 1.429 . S
C682 C674 1.574 . S
C682 H677 0.949 . S
C682 C688 1.368 . S
C683 C667 1.349 . S
C683 H675 0.950 . S
C683 C681 1.327 . S
C684 C672 1.349 . S
C684 H678 0.950 . S
C684 C685 1.327 . S
C685 H679 0.938 1_655 S
C685 C684 1.327 . S
C685 C689 1.429 . S
C686 C669 1.574 . S
C686 H680 0.949 . S
C686 C690 1.368 . S
C687 C668 1.429 . S
C687 C681 1.429 . S
C687 C688 1.523 . S
C688 C669 1.368 1_455 S
C688 C682 1.368 . S
C688 C687 1.523 . S
C689 C673 1.429 . S
C689 C685 1.429 . S
C689 C690 1.523 . S
C690 C674 1.368 1_655 S
C690 C686 1.368 . S
C690 C689 1.523 . S
H691 C666 0.950 . S
H692 C668 0.950 . S
H693 C669 0.949 . S
H694 C671 0.950 . S
H695 C673 0.950 . S
C696 C697 1.349 . S
C696 C698 1.327 . S
C696 H721 0.950 . S
C697 C696 1.349 . S
C697 C713 1.349 . S
C698 C696 1.327 . S
C698 C717 1.429 . S
C698 H722 0.950 . S
C699 C716 1.574 1_545 S
C699 C718 1.368 1_655 S
C699 H723 0.949 . S
H700 C704 0.949 . S
C701 C702 1.349 . S
C701 C703 1.327 . S
C701 H724 0.950 . S
C702 C701 1.349 . S
C702 C714 1.349 . S
C703 C701 1.327 . S
C703 C719 1.429 . S
C703 H725 0.950 . S
C704 H700 0.949 . S
C704 C712 1.574 1_565 S
C704 C720 1.368 1_455 S
H705 C713 0.950 . S
H706 C711 0.950 1_655 S
H707 C712 0.949 . S
H708 C714 0.950 . S
H709 C715 0.938 1_455 S
H710 C716 0.949 . S
C711 H706 0.950 1_455 S
C711 C713 1.327 . S
C711 C717 1.429 . S
C712 C704 1.574 1_545 S
C712 H707 0.949 . S
C712 C718 1.368 . S
C713 C697 1.349 . S
C713 H705 0.950 . S
C713 C711 1.327 . S
C714 C702 1.349 . S
C714 H708 0.950 . S
C714 C715 1.327 . S
C715 H709 0.938 1_655 S
C715 C714 1.327 . S
C715 C719 1.429 . S
C716 C699 1.574 1_565 S
C716 H710 0.949 . S
C716 C720 1.368 . S
C717 C698 1.429 . S
C717 C711 1.429 . S
C717 C718 1.523 . S
C718 C699 1.368 1_455 S
C718 C712 1.368 . S
C718 C717 1.523 . S
C719 C703 1.429 . S
C719 C715 1.429 . S
C719 C720 1.523 . S
C720 C704 1.368 1_655 S
C720 C716 1.368 . S
C720 C719 1.523 . S
H721 C696 0.950 . S
H722 C698 0.950 . S
H723 C699 0.949 . S
H724 C701 0.950 . S
H725 C703 0.950 . S
C726 C727 1.349 . S
C726 C728 1.327 . S
C726 H751 0.950 . S
C727 C726 1.349 . S
C727 C743 1.349 . S
C728 C726 1.327 . S
C728 C747 1.429 . S
C728 H752 0.950 . S
C729 C746 1.574 . S
C729 C748 1.368 1_565 S
C729 H753 0.949 . S
H730 C734 0.949 . S
C731 C732 1.349 . S
C731 C733 1.327 . S
C731 H754 0.950 . S
C732 C731 1.349 . S
C732 C744 1.349 . S
C733 C731 1.327 . S
C733 C749 1.429 . S
C733 H755 0.950 . S
C734 H730 0.949 . S
C734 C742 1.574 . S
C734 C750 1.368 1_545 S
H735 C743 0.950 . S
H736 C741 0.950 1_565 S
H737 C742 0.949 . S
H738 C744 0.950 . S
H739 C745 0.928 1_545 S
H740 C746 0.949 . S
C741 H736 0.950 1_545 S
C741 C743 1.327 . S
C741 C747 1.429 . S
C742 C734 1.574 . S
C742 H737 0.949 . S
C742 C748 1.368 1_455 S
C743 C727 1.349 . S
C743 H735 0.950 . S
C743 C741 1.327 . S
C744 C732 1.349 . S
C744 H738 0.950 . S
C744 C745 1.327 . S
C745 H739 0.928 1_565 S
C745 C744 1.327 . S
C745 C749 1.429 . S
C746 C729 1.574 . S
C746 H740 0.949 . S
C746 C750 1.368 1_655 S
C747 C728 1.429 . S
C747 C741 1.429 . S
C747 C748 1.523 . S
C748 C729 1.368 1_545 S
C748 C742 1.368 1_655 S
C748 C747 1.523 . S
C749 C733 1.429 . S
C749 C745 1.429 . S
C749 C750 1.523 . S
C750 C734 1.368 1_565 S
C750 C746 1.368 1_455 S
C750 C749 1.523 . S
H751 C726 0.950 . S
H752 C728 0.950 . S
H753 C729 0.949 . S
H754 C731 0.950 . S
H755 C733 0.950 . S
C756 C757 1.349 . S
C756 C758 1.327 . S
C756 H781 0.950 . S
C757 C756 1.349 . S
C757 C773 1.349 . S
C758 C756 1.327 . S
C758 C777 1.429 . S
C758 H782 0.950 . S
C759 C776 1.574 1_455 S
C759 C778 1.368 1_565 S
C759 H783 0.949 . S
H760 C764 0.949 . S
C761 C762 1.349 . S
C761 C763 1.327 . S
C761 H784 0.950 . S
C762 C761 1.349 . S
C762 C774 1.349 . S
C763 C761 1.327 . S
C763 C779 1.429 . S
C763 H785 0.950 . S
C764 H760 0.949 . S
C764 C772 1.574 1_655 S
C764 C780 1.368 1_545 S
H765 C773 0.950 . S
H766 C771 0.950 . S
H767 C772 0.949 . S
H768 C774 0.950 . S
H769 C775 0.950 . S
H770 C776 0.949 . S
C771 H766 0.950 . S
C771 C773 1.327 . S
C771 C777 1.429 . S
C772 C764 1.574 1_455 S
C772 H767 0.949 . S
C772 C778 1.368 . S
C773 C757 1.349 . S
C773 H765 0.950 . S
C773 C771 1.327 . S
C774 C762 1.349 . S
C774 H768 0.950 . S
C774 C775 1.327 . S
C775 H769 0.950 . S
C775 C774 1.327 . S
C775 C779 1.429 . S
C776 C759 1.574 1_655 S
C776 H770 0.949 . S
C776 C780 1.368 . S
C777 C758 1.429 . S
C777 C771 1.429 . S
C777 C778 1.523 . S
C778 C759 1.368 1_545 S
C778 C772 1.368 . S
C778 C777 1.523 . S
C779 C763 1.429 . S
C779 C775 1.429 . S
C779 C780 1.523 . S
C780 C764 1.368 1_565 S
C780 C776 1.368 . S
C780 C779 1.523 . S
H781 C756 0.950 . S
H782 C758 0.950 . S
H783 C759 0.949 . S
H784 C761 0.950 . S
H785 C763 0.950 . S
C786 C787 1.349 . S
C786 C788 1.327 . S
C786 H811 0.950 . S
C787 C786 1.349 . S
C787 C803 1.349 . S
C788 C786 1.327 . S
C788 C807 1.429 . S
C788 H812 0.950 1_565 S
C789 C806 1.574 1_655 S
C789 C808 1.368 . S
C789 H813 0.949 . S
H790 C794 0.949 . S
C791 C792 1.349 . S
C791 C793 1.327 . S
C791 H814 0.950 . S
C792 C791 1.349 . S
C792 C804 1.349 . S
C793 C791 1.327 . S
C793 C809 1.429 . S
C793 H815 0.938 1_545 S
C794 H790 0.949 . S
C794 C802 1.574 1_455 S
C794 C810 1.368 . S
H795 C803 0.950 . S
H796 C801 0.950 . S
H797 C802 0.949 . S
H798 C804 0.950 . S
H799 C805 0.950 . S
H800 C806 0.949 . S
C801 H796 0.950 . S
C801 C803 1.327 . S
C801 C807 1.429 . S
C802 C794 1.574 1_655 S
C802 H797 0.949 . S
C802 C808 1.368 1_545 S
C803 C787 1.349 . S
C803 H795 0.950 . S
C803 C801 1.327 . S
C804 C792 1.349 . S
C804 H798 0.950 . S
C804 C805 1.327 . S
C805 H799 0.950 . S
C805 C804 1.327 . S
C805 C809 1.429 . S
C806 C789 1.574 1_455 S
C806 H800 0.949 . S
C806 C810 1.368 1_565 S
C807 C788 1.429 . S
C807 C801 1.429 . S
C807 C808 1.523 . S
C808 C789 1.368 . S
C808 C802 1.368 1_565 S
C808 C807 1.523 . S
C809 C793 1.429 . S
C809 C805 1.429 . S
C809 C810 1.523 . S
C810 C794 1.368 . S
C810 C806 1.368 1_545 S
C810 C809 1.523 . S
H811 C786 0.950 . S
H812 C788 0.950 1_545 S
H813 C789 0.949 . S
H814 C791 0.950 . S
H815 C793 0.938 1_565 S
C816 C817 1.349 . S
C816 C818 1.327 . S
C816 H841 0.950 . S
C817 C816 1.349 . S
C817 C833 1.349 . S
C818 C816 1.327 . S
C818 C837 1.429 . S
C818 H842 0.950 . S
C819 C836 1.574 1_565 S
C819 C838 1.368 1_455 S
C819 H843 0.949 . S
H820 C824 0.949 . S
C821 C822 1.349 . S
C821 C823 1.327 . S
C821 H844 0.950 . S
C822 C821 1.349 . S
C822 C834 1.349 . S
C823 C821 1.327 . S
C823 C839 1.429 . S
C823 H845 0.950 . S
C824 H820 0.949 . S
C824 C832 1.574 1_545 S
C824 C840 1.368 1_655 S
H825 C833 0.950 . S
H826 C831 0.950 . S
H827 C832 0.949 . S
H828 C834 0.950 . S
H829 C835 0.950 . S
H830 C836 0.949 . S
C831 H826 0.950 . S
C831 C833 1.327 . S
C831 C837 1.429 . S
C832 C824 1.574 1_565 S
C832 H827 0.949 . S
C832 C838 1.368 . S
C833 C817 1.349 . S
C833 H825 0.950 . S
C833 C831 1.327 . S
C834 C822 1.349 . S
C834 H828 0.950 . S
C834 C835 1.327 . S
C835 H829 0.950 . S
C835 C834 1.327 . S
C835 C839 1.429 . S
C836 C819 1.574 1_545 S
C836 H830 0.949 . S
C836 C840 1.368 . S
C837 C818 1.429 . S
C837 C831 1.429 . S
C837 C838 1.523 . S
C838 C819 1.368 1_655 S
C838 C832 1.368 . S
C838 C837 1.523 . S
C839 C823 1.429 . S
C839 C835 1.429 . S
C839 C840 1.523 . S
C840 C824 1.368 1_455 S
C840 C836 1.368 . S
C840 C839 1.523 . S
H841 C816 0.950 . S
H842 C818 0.950 . S
H843 C819 0.949 . S
H844 C821 0.950 . S
H845 C823 0.950 . S
C846 C847 1.349 . S
C846 C848 1.327 . S
C846 H871 0.950 . S
C847 C846 1.349 . S
C847 C863 1.349 . S
C848 C846 1.327 . S
C848 C867 1.429 . S
C848 H872 0.950 . S
C849 C866 1.574 . S
C849 C868 1.368 1_655 S
C849 H873 0.949 . S
H850 C854 0.949 . S
C851 C852 1.349 . S
C851 C853 1.327 . S
C851 H874 0.950 . S
C852 C851 1.349 . S
C852 C864 1.349 . S
C853 C851 1.327 . S
C853 C869 1.429 . S
C853 H875 0.950 . S
C854 H850 0.949 . S
C854 C862 1.574 . S
C854 C870 1.368 1_455 S
H855 C863 0.950 . S
H856 C861 0.927 1_655 S
H857 C862 0.949 . S
H858 C864 0.950 . S
H859 C865 0.950 1_455 S
H860 C866 0.949 . S
C861 H856 0.927 1_455 S
C861 C863 1.327 . S
C861 C867 1.429 . S
C862 C854 1.574 . S
C862 H857 0.949 . S
C862 C868 1.368 1_545 S
C863 C847 1.349 . S
C863 H855 0.950 . S
C863 C861 1.327 . S
C864 C852 1.349 . S
C864 H858 0.950 . S
C864 C865 1.327 . S
C865 H859 0.950 1_655 S
C865 C864 1.327 . S
C865 C869 1.429 . S
C866 C849 1.574 . S
C866 H860 0.949 . S
C866 C870 1.368 1_565 S
C867 C848 1.429 . S
C867 C861 1.429 . S
C867 C868 1.523 . S
C868 C849 1.368 1_455 S
C868 C862 1.368 1_565 S
C868 C867 1.523 . S
C869 C853 1.429 . S
C869 C865 1.429 . S
C869 C870 1.523 . S
C870 C854 1.368 1_655 S
C870 C866 1.368 1_545 S
C870 C869 1.523 . S
H871 C846 0.950 . S
H872 C848 0.950 . S
H873 C849 0.949 . S
H874 C851 0.950 . S
H875 C853 0.950 . S
C157 C144 1.509 . S
C162 C1 1.509 . S
C187 C14 1.509 . S
C192 C79 1.509 . S
C217 C27 1.510 . S
C222 C92 1.510 . S
C247 C40 1.510 . S
C252 C105 1.510 . S
C277 C118 1.510 . S
C282 C53 1.510 . S
C307 C66 1.510 . S
C312 C131 1.510 . S
C337 C3 1.517 . S
C342 C133 1.517 . S
C367 C16 1.516 . S
C372 C146 1.516 . S
C397 C29 1.517 . S
C402 C81 1.517 . S
C427 C42 1.517 . S
C432 C94 1.517 . S
C457 C107 1.518 . S
C462 C55 1.518 . S
C487 C120 1.517 . S
C492 C68 1.517 . S
C517 C44 1.793 . S
C522 C5 1.793 . S
C547 C18 1.793 . S
C552 C57 1.793 . S
C577 C70 1.792 . S
C582 C31 1.792 . S
C607 C122 1.793 . S
C612 C83 1.793 . S
C637 C135 1.792 . S
C642 C96 1.792 . S
C667 C109 1.793 . S
C672 C148 1.793 . S
C697 C10 1.657 . S
C702 C49 1.657 . S
C727 C23 1.657 . S
C732 C62 1.657 . S
C757 C75 1.656 . S
C762 C36 1.656 . S
C787 C88 1.657 . S
C792 C127 1.657 . S
C817 C101 1.656 . S
C822 C140 1.656 . S
C847 C114 1.657 . S
C852 C153 1.657 . S
