# Generated by pormake.
# Topology vci, (7)-cn, num edge types: 1
# Building blocks:
#     Node 0, Type 0, BuildingBlock: NUHQUE_clean_sbu_2, # of connection points: 7
#     Node 1, Type 0, BuildingBlock: NUHQUE_clean_sbu_2, # of connection points: 7
#     Node 2, Type 0, BuildingBlock: NUHQUE_clean_sbu_2, # of connection points: 7
#     Node 3, Type 0, BuildingBlock: NUHQUE_clean_sbu_2, # of connection points: 7
#     Node 4, Type 0, BuildingBlock: NUHQUE_clean_sbu_2, # of connection points: 7
#     Node 5, Type 0, BuildingBlock: NUHQUE_clean_sbu_2, # of connection points: 7
#     Node 6, Type 0, BuildingBlock: NUHQUE_clean_sbu_2, # of connection points: 7
#     Node 7, Type 0, BuildingBlock: NUHQUE_clean_sbu_2, # of connection points: 7
#     Node 8, Type 0, BuildingBlock: NUHQUE_clean_sbu_2, # of connection points: 7
#     Node 9, Type 0, BuildingBlock: NUHQUE_clean_sbu_2, # of connection points: 7
#     Node 10, Type 0, BuildingBlock: NUHQUE_clean_sbu_2, # of connection points: 7
#     Node 11, Type 0, BuildingBlock: NUHQUE_clean_sbu_2, # of connection points: 7
#     Node 12, Type 0, BuildingBlock: NUHQUE_clean_sbu_2, # of connection points: 7
#     Node 13, Type 0, BuildingBlock: NUHQUE_clean_sbu_2, # of connection points: 7
#     Node 14, Type 0, BuildingBlock: NUHQUE_clean_sbu_2, # of connection points: 7
#     Node 15, Type 0, BuildingBlock: NUHQUE_clean_sbu_2, # of connection points: 7
#     Edge 16, Type (0, 0), BuildingBlock: MIFKUJ_clean_linker_0, # of connection points: 2
#     Edge 17, Type (0, 0), BuildingBlock: MIFKUJ_clean_linker_0, # of connection points: 2
#     Edge 18, Type (0, 0), BuildingBlock: MIFKUJ_clean_linker_0, # of connection points: 2
#     Edge 19, Type (0, 0), BuildingBlock: MIFKUJ_clean_linker_0, # of connection points: 2
#     Edge 20, Type (0, 0), BuildingBlock: MIFKUJ_clean_linker_0, # of connection points: 2
#     Edge 21, Type (0, 0), BuildingBlock: MIFKUJ_clean_linker_0, # of connection points: 2
#     Edge 22, Type (0, 0), BuildingBlock: MIFKUJ_clean_linker_0, # of connection points: 2
#     Edge 23, Type (0, 0), BuildingBlock: MIFKUJ_clean_linker_0, # of connection points: 2
#     Edge 24, Type (0, 0), BuildingBlock: MIFKUJ_clean_linker_0, # of connection points: 2
#     Edge 25, Type (0, 0), BuildingBlock: MIFKUJ_clean_linker_0, # of connection points: 2
#     Edge 26, Type (0, 0), BuildingBlock: MIFKUJ_clean_linker_0, # of connection points: 2
#     Edge 27, Type (0, 0), BuildingBlock: MIFKUJ_clean_linker_0, # of connection points: 2
#     Edge 28, Type (0, 0), BuildingBlock: MIFKUJ_clean_linker_0, # of connection points: 2
#     Edge 29, Type (0, 0), BuildingBlock: MIFKUJ_clean_linker_0, # of connection points: 2
#     Edge 30, Type (0, 0), BuildingBlock: MIFKUJ_clean_linker_0, # of connection points: 2
#     Edge 31, Type (0, 0), BuildingBlock: MIFKUJ_clean_linker_0, # of connection points: 2
#     Edge 32, Type (0, 0), BuildingBlock: MIFKUJ_clean_linker_0, # of connection points: 2
#     Edge 33, Type (0, 0), BuildingBlock: MIFKUJ_clean_linker_0, # of connection points: 2
#     Edge 34, Type (0, 0), BuildingBlock: MIFKUJ_clean_linker_0, # of connection points: 2
#     Edge 35, Type (0, 0), BuildingBlock: MIFKUJ_clean_linker_0, # of connection points: 2
#     Edge 36, Type (0, 0), BuildingBlock: MIFKUJ_clean_linker_0, # of connection points: 2
#     Edge 37, Type (0, 0), BuildingBlock: MIFKUJ_clean_linker_0, # of connection points: 2
#     Edge 38, Type (0, 0), BuildingBlock: MIFKUJ_clean_linker_0, # of connection points: 2
#     Edge 39, Type (0, 0), BuildingBlock: MIFKUJ_clean_linker_0, # of connection points: 2
#     Edge 40, Type (0, 0), BuildingBlock: MIFKUJ_clean_linker_0, # of connection points: 2
#     Edge 41, Type (0, 0), BuildingBlock: MIFKUJ_clean_linker_0, # of connection points: 2
#     Edge 42, Type (0, 0), BuildingBlock: MIFKUJ_clean_linker_0, # of connection points: 2
#     Edge 43, Type (0, 0), BuildingBlock: MIFKUJ_clean_linker_0, # of connection points: 2
#     Edge 44, Type (0, 0), BuildingBlock: MIFKUJ_clean_linker_0, # of connection points: 2
#     Edge 45, Type (0, 0), BuildingBlock: MIFKUJ_clean_linker_0, # of connection points: 2
#     Edge 46, Type (0, 0), BuildingBlock: MIFKUJ_clean_linker_0, # of connection points: 2
#     Edge 47, Type (0, 0), BuildingBlock: MIFKUJ_clean_linker_0, # of connection points: 2
#     Edge 48, Type (0, 0), BuildingBlock: MIFKUJ_clean_linker_0, # of connection points: 2
#     Edge 49, Type (0, 0), BuildingBlock: MIFKUJ_clean_linker_0, # of connection points: 2
#     Edge 50, Type (0, 0), BuildingBlock: MIFKUJ_clean_linker_0, # of connection points: 2
#     Edge 51, Type (0, 0), BuildingBlock: MIFKUJ_clean_linker_0, # of connection points: 2
#     Edge 52, Type (0, 0), BuildingBlock: MIFKUJ_clean_linker_0, # of connection points: 2
#     Edge 53, Type (0, 0), BuildingBlock: MIFKUJ_clean_linker_0, # of connection points: 2
#     Edge 54, Type (0, 0), BuildingBlock: MIFKUJ_clean_linker_0, # of connection points: 2
#     Edge 55, Type (0, 0), BuildingBlock: MIFKUJ_clean_linker_0, # of connection points: 2
#     Edge 56, Type (0, 0), BuildingBlock: MIFKUJ_clean_linker_0, # of connection points: 2
#     Edge 57, Type (0, 0), BuildingBlock: MIFKUJ_clean_linker_0, # of connection points: 2
#     Edge 58, Type (0, 0), BuildingBlock: MIFKUJ_clean_linker_0, # of connection points: 2
#     Edge 59, Type (0, 0), BuildingBlock: MIFKUJ_clean_linker_0, # of connection points: 2
#     Edge 60, Type (0, 0), BuildingBlock: MIFKUJ_clean_linker_0, # of connection points: 2
#     Edge 61, Type (0, 0), BuildingBlock: MIFKUJ_clean_linker_0, # of connection points: 2
#     Edge 62, Type (0, 0), BuildingBlock: MIFKUJ_clean_linker_0, # of connection points: 2
#     Edge 63, Type (0, 0), BuildingBlock: MIFKUJ_clean_linker_0, # of connection points: 2
#     Edge 64, Type (0, 0), BuildingBlock: MIFKUJ_clean_linker_0, # of connection points: 2
#     Edge 65, Type (0, 0), BuildingBlock: MIFKUJ_clean_linker_0, # of connection points: 2
#     Edge 66, Type (0, 0), BuildingBlock: MIFKUJ_clean_linker_0, # of connection points: 2
#     Edge 67, Type (0, 0), BuildingBlock: MIFKUJ_clean_linker_0, # of connection points: 2
#     Edge 68, Type (0, 0), BuildingBlock: MIFKUJ_clean_linker_0, # of connection points: 2
#     Edge 69, Type (0, 0), BuildingBlock: MIFKUJ_clean_linker_0, # of connection points: 2
#     Edge 70, Type (0, 0), BuildingBlock: MIFKUJ_clean_linker_0, # of connection points: 2
#     Edge 71, Type (0, 0), BuildingBlock: MIFKUJ_clean_linker_0, # of connection points: 2
# Relax obj value: 0.152
# Max RMSD: 0.216
# Mean RMSD: 0.216
data_MOF--net-vci--node1-NUHQUE_clean_sbu_2--edge1-MIFKUJ_clean_linker_0
_symmetry_space_group_name_H-M    P1
_symmetry_Int_Tables_number       1
_symmetry_cell_setting            triclinic
loop_
_symmetry_equiv_pos_as_xyz
'x, y, z'
_cell_length_a     68.132097
_cell_length_b     82.865406
_cell_length_c     26.367536
_cell_angle_alpha  90.010154
_cell_angle_beta   89.99059
_cell_angle_gamma 89.99031
loop_
_atom_site_label
_atom_site_type_symbol
_atom_site_fract_x
_atom_site_fract_y
_atom_site_fract_z
_atom_type_partial_charge
O0 O 0.13203 0.16712 0.16976 0.0
Tb1 Tb 0.14089 0.14234 0.15519 0.0
Eu2 Eu 0.14199 0.11637 0.00499 0.0
C3 C 0.14463 0.17897 0.16357 0.0
O4 O 0.16181 0.1758 0.14329 0.0
C5 C 0.17208 0.127 0.08505 0.0
O6 O 0.13826 0.08965 0.01829 0.0
C7 C 0.14604 0.12179 0.90853 0.0
C8 C 0.12121 0.08224 0.01608 0.0
O9 O 0.10511 0.09073 0.0098 0.0
C10 C 0.10905 0.12922 0.08137 0.0
C11 C 0.14065 0.13188 0.86458 0.0
C12 C 0.13753 0.14863 0.86895 0.0
C13 C 0.13294 0.15777 0.82564 0.0
C14 C 0.13176 0.15015 0.77829 0.0
C15 C 0.13519 0.13356 0.77303 0.0
C16 C 0.13952 0.12447 0.8166 0.0
O17 O 0.15833 0.13803 0.08814 0.0
O18 O 0.17068 0.11663 0.04768 0.0
O19 O 0.15897 0.14274 0.2236 0.0
O20 O 0.13921 0.12325 0.21235 0.0
C21 C 0.15196 0.12955 0.24332 0.0
O22 O 0.1214 0.13371 0.04548 0.0
O23 O 0.113 0.1327 0.12927 0.0
O24 O 0.13236 0.11231 0.92726 0.0
O25 O 0.15769 0.12803 0.94319 0.0
H26 H 0.13878 0.15451 0.90554 0.0
H27 H 0.12917 0.15745 0.74481 0.0
H28 H 0.14224 0.11162 0.81319 0.0
O29 O 0.3771 0.84281 0.65855 0.0
Tb30 Tb 0.38318 0.86832 0.65019 0.0
Eu31 Eu 0.37119 0.87728 0.48465 0.0
C32 C 0.36342 0.83814 0.69051 0.0
O33 O 0.35245 0.84913 0.71259 0.0
C34 C 0.34781 0.87699 0.58032 0.0
O35 O 0.37373 0.90441 0.4874 0.0
C36 C 0.36579 0.86634 0.39348 0.0
C37 C 0.39052 0.91176 0.47876 0.0
O38 O 0.40615 0.90309 0.46852 0.0
C39 C 0.40915 0.87208 0.55401 0.0
C40 C 0.37301 0.85599 0.35166 0.0
C41 C 0.37236 0.83897 0.35341 0.0
C42 C 0.37787 0.82983 0.31059 0.0
C43 C 0.38366 0.83782 0.26608 0.0
C44 C 0.38363 0.8547 0.26333 0.0
C45 C 0.3786 0.86366 0.30644 0.0
O46 O 0.36619 0.87992 0.59164 0.0
O47 O 0.34374 0.87645 0.53192 0.0
O48 O 0.37119 0.88151 0.71487 0.0
O49 O 0.40139 0.87487 0.71487 0.0
C50 C 0.38749 0.88188 0.74062 0.0
O51 O 0.39485 0.8645 0.53005 0.0
O52 O 0.40897 0.87291 0.60407 0.0
O53 O 0.37595 0.87944 0.40365 0.0
O54 O 0.35791 0.85959 0.4338 0.0
H55 H 0.36735 0.83286 0.38735 0.0
H56 H 0.38692 0.83082 0.23233 0.0
H57 H 0.37839 0.87673 0.3042 0.0
O58 O 0.13475 0.84833 0.85726 0.0
Tb59 Tb 0.13378 0.87393 0.83891 0.0
Eu60 Eu 0.14315 0.87422 0.97317 0.0
C61 C 0.15004 0.83963 0.84368 0.0
O62 O 0.16555 0.84705 0.82538 0.0
C63 C 0.17389 0.87933 0.8846 0.0
O64 O 0.14037 0.90127 0.96574 0.0
C65 C 0.15123 0.86619 0.06656 0.0
C66 C 0.1244 0.90853 0.98225 0.0
O67 O 0.11012 0.8997 1.00099 0.0
C68 C 0.10105 0.8721 0.92054 0.0
C69 C 0.14367 0.85839 0.11355 0.0
C70 C 0.14335 0.8414 0.1176 0.0
C71 C 0.1388 0.83394 0.16387 0.0
C72 C 0.13369 0.84344 0.20566 0.0
C73 C 0.13391 0.86028 0.20288 0.0
C74 C 0.13918 0.86779 0.15691 0.0
O75 O 0.15956 0.88711 0.86233 0.0
O76 O 0.17018 0.87041 0.92468 0.0
O77 O 0.13989 0.86522 0.76217 0.0
O78 O 0.12227 0.88607 0.77063 0.0
C79 C 0.13018 0.87624 0.73788 0.0
O80 O 0.11327 0.86456 0.95134 0.0
O81 O 0.10726 0.87992 0.88008 0.0
O82 O 0.14429 0.88041 0.05388 0.0
O83 O 0.15479 0.85691 0.02714 0.0
H84 H 0.1476 0.83392 0.08571 0.0
H85 H 0.13019 0.83764 0.24146 0.0
H86 H 0.1401 0.88084 0.15523 0.0
O87 O 0.36991 0.1734 0.33043 0.0
Tb88 Tb 0.36909 0.14773 0.3472 0.0
Eu89 Eu 0.3679 0.11857 0.49974 0.0
C90 C 0.35434 0.18022 0.31014 0.0
O91 O 0.33822 0.17168 0.30526 0.0
C92 C 0.33938 0.12904 0.41552 0.0
O93 O 0.37404 0.09241 0.48279 0.0
C94 C 0.36246 0.12313 0.59606 0.0
C95 C 0.391 0.08535 0.49148 0.0
O96 O 0.40581 0.09393 0.50849 0.0
C97 C 0.39911 0.13495 0.42652 0.0
C98 C 0.36415 0.13455 0.63853 0.0
C99 C 0.36816 0.15105 0.63079 0.0
C100 C 0.36963 0.16144 0.67273 0.0
C101 C 0.36679 0.15537 0.72171 0.0
C102 C 0.36216 0.13911 0.72984 0.0
C103 C 0.36119 0.12867 0.68799 0.0
O104 O 0.35312 0.14008 0.41406 0.0
O105 O 0.34002 0.11867 0.45313 0.0
O106 O 0.34951 0.13799 0.2887 0.0
O107 O 0.38021 0.13392 0.28309 0.0
C108 C 0.36334 0.13147 0.26144 0.0
O109 O 0.38527 0.13808 0.45987 0.0
O110 O 0.39717 0.14007 0.3793 0.0
O111 O 0.3789 0.11734 0.57712 0.0
O112 O 0.34894 0.1261 0.56168 0.0
H113 H 0.37011 0.15571 0.59273 0.0
H114 H 0.36796 0.16352 0.75379 0.0
H115 H 0.35767 0.11604 0.69373 0.0
O116 O 0.85637 0.83779 0.84621 0.0
Tb117 Tb 0.86046 0.86373 0.84299 0.0
Eu118 Eu 0.85008 0.8853 0.99568 0.0
C119 C 0.84025 0.83094 0.82929 0.0
O120 O 0.82526 0.84007 0.81666 0.0
C121 C 0.82715 0.88106 0.90237 0.0
O122 O 0.85332 0.91223 0.00634 0.0
C123 C 0.84316 0.8704 0.0807 0.0
C124 C 0.85141 0.92212 0.9676 0.0
O125 O 0.84786 0.91606 0.92248 0.0
C126 C 0.89276 0.87303 0.93022 0.0
C127 C 0.85238 0.86199 0.12442 0.0
C128 C 0.85462 0.84505 0.124 0.0
C129 C 0.86198 0.83696 0.16674 0.0
C130 C 0.86712 0.84577 0.20995 0.0
C131 C 0.86412 0.86247 0.21209 0.0
C132 C 0.85676 0.87056 0.16931 0.0
O133 O 0.8459 0.87903 0.89535 0.0
O134 O 0.8227 0.88545 0.94803 0.0
O135 O 0.8464 0.86989 0.77111 0.0
O136 O 0.8775 0.87139 0.77696 0.0
C137 C 0.86252 0.87321 0.74679 0.0
O138 O 0.88104 0.87907 0.96631 0.0
O139 O 0.88754 0.86704 0.88525 0.0
O140 O 0.84549 0.88612 0.07729 0.0
O141 O 0.84337 0.8631 0.03633 0.0
H142 H 0.85018 0.83808 0.09115 0.0
H143 H 0.87207 0.83939 0.24356 0.0
H144 H 0.854 0.88342 0.1716 0.0
O145 O 0.61907 0.16718 0.33546 0.0
Tb146 Tb 0.62378 0.1417 0.34966 0.0
Eu147 Eu 0.63518 0.12265 0.51551 0.0
C148 C 0.63083 0.17819 0.35443 0.0
O149 O 0.6446 0.1738 0.38643 0.0
C150 C 0.65769 0.12769 0.41695 0.0
O151 O 0.62135 0.0985 0.53199 0.0
C152 C 0.64579 0.1387 0.59597 0.0
C153 C 0.61682 0.08902 0.49372 0.0
O154 O 0.61939 0.0944 0.44733 0.0
C155 C 0.59899 0.12805 0.43981 0.0
C156 C 0.64002 0.14422 0.64738 0.0
C157 C 0.63938 0.16095 0.65718 0.0
C158 C 0.63516 0.1669 0.70607 0.0
C159 C 0.63099 0.15572 0.74463 0.0
C160 C 0.63264 0.13909 0.73635 0.0
C161 C 0.63712 0.13329 0.6877 0.0
O162 O 0.64229 0.13706 0.41455 0.0
O163 O 0.66024 0.11997 0.45981 0.0
O164 O 0.61189 0.12848 0.28523 0.0
O165 O 0.64265 0.13266 0.28842 0.0
C166 C 0.62847 0.12639 0.26166 0.0
O167 O 0.61163 0.13553 0.46951 0.0
O168 O 0.5993 0.13071 0.3903 0.0
O169 O 0.64983 0.12335 0.589 0.0
O170 O 0.63672 0.14531 0.55724 0.0
H171 H 0.64302 0.16927 0.62693 0.0
H172 H 0.62716 0.15986 0.78233 0.0
H173 H 0.63865 0.12042 0.68171 0.0
O174 O 0.86419 0.15763 0.1352 0.0
Tb175 Tb 0.86505 0.13191 0.15098 0.0
Eu176 Eu 0.85736 0.13194 0.01211 0.0
C177 C 0.84819 0.16603 0.14445 0.0
O178 O 0.83177 0.15832 0.15425 0.0
C179 C 0.82705 0.12404 0.0993 0.0
O180 O 0.85653 0.10479 1.00171 0.0
C181 C 0.84972 0.1461 0.92584 0.0
C182 C 0.86443 0.09469 0.0344 0.0
O183 O 0.87338 0.10042 0.07459 0.0
C184 C 0.90009 0.13172 0.07239 0.0
C185 C 0.85705 0.15457 0.87959 0.0
C186 C 0.86069 0.17137 0.88042 0.0
C187 C 0.86526 0.17972 0.83547 0.0
C188 C 0.86589 0.17125 0.78955 0.0
C189 C 0.86154 0.15475 0.78719 0.0
C190 C 0.85752 0.14636 0.83247 0.0
O191 O 0.84201 0.11694 0.1207 0.0
O192 O 0.83018 0.13398 0.06138 0.0
O193 O 0.85355 0.13877 0.22533 0.0
O194 O 0.87617 0.1213 0.22218 0.0
C195 C 0.86468 0.12943 0.25236 0.0
O196 O 0.88903 0.13712 0.03463 0.0
O197 O 0.89308 0.12662 0.11628 0.0
O198 O 0.85291 0.13053 0.9302 0.0
O199 O 0.85011 0.15373 0.96964 0.0
H200 H 0.8595 0.17807 0.91559 0.0
H201 H 0.86882 0.17776 0.75467 0.0
H202 H 0.85369 0.13368 0.8306 0.0
O203 O 0.63962 0.83044 0.60825 0.0
Tb204 Tb 0.63105 0.85464 0.63005 0.0
Eu205 Eu 0.63273 0.88419 0.48123 0.0
C206 C 0.65725 0.82504 0.61931 0.0
O207 O 0.67073 0.83539 0.63384 0.0
C208 C 0.66021 0.87818 0.57269 0.0
O209 O 0.6187 0.90866 0.49044 0.0
C210 C 0.63813 0.8768 0.38713 0.0
C211 C 0.62161 0.91754 0.5311 0.0
O212 O 0.63184 0.91153 0.56887 0.0
C213 C 0.60358 0.86168 0.54589 0.0
C214 C 0.6438 0.86345 0.35388 0.0
C215 C 0.64982 0.84831 0.37267 0.0
C216 C 0.65508 0.836 0.33847 0.0
C217 C 0.6538 0.83887 0.28615 0.0
C218 C 0.64735 0.85376 0.26749 0.0
C219 C 0.64257 0.86605 0.30161 0.0
O220 O 0.64259 0.87596 0.5917 0.0
O221 O 0.66108 0.88399 0.52631 0.0
O222 O 0.64462 0.8522 0.70428 0.0
O223 O 0.61457 0.85922 0.69976 0.0
C224 C 0.62911 0.85604 0.73022 0.0
O225 O 0.62102 0.86302 0.52521 0.0
O226 O 0.60292 0.85571 0.59196 0.0
O227 O 0.621 0.87556 0.40976 0.0
O228 O 0.65198 0.88309 0.41571 0.0
H229 H 0.65037 0.84615 0.41318 0.0
H230 H 0.65693 0.82914 0.25981 0.0
H231 H 0.63772 0.87768 0.28744 0.0
O232 O 0.64114 0.66453 0.20949 0.0
Tb233 Tb 0.63939 0.63866 0.19762 0.0
Eu234 Eu 0.63486 0.62942 0.02834 0.0
C235 C 0.65818 0.67182 0.21439 0.0
O236 O 0.67442 0.6636 0.2069 0.0
C237 C 0.66719 0.6314 0.10424 0.0
O238 O 0.62417 0.6041 0.04249 0.0
C239 C 0.62864 0.63978 0.93675 0.0
C240 C 0.61033 0.59734 0.015 0.0
O241 O 0.60111 0.60599 0.98073 0.0
C242 C 0.60618 0.63669 0.12101 0.0
C243 C 0.63833 0.64806 0.89374 0.0
C244 C 0.64165 0.66487 0.89378 0.0
C245 C 0.65029 0.67231 0.85147 0.0
C246 C 0.65536 0.66302 0.80913 0.0
C247 C 0.65151 0.64644 0.80764 0.0
C248 C 0.64304 0.63902 0.85014 0.0
O249 O 0.65062 0.62831 0.12765 0.0
O250 O 0.66627 0.63162 0.05454 0.0
O251 O 0.65974 0.63111 0.25685 0.0
O252 O 0.62969 0.62438 0.26262 0.0
C253 C 0.64681 0.62362 0.28448 0.0
O254 O 0.61994 0.64296 0.09204 0.0
O255 O 0.60952 0.63565 0.17019 0.0
O256 O 0.62427 0.64825 0.97742 0.0
O257 O 0.63491 0.62515 0.94719 0.0
H258 H 0.63738 0.67217 0.92605 0.0
H259 H 0.66123 0.669 0.7758 0.0
H260 H 0.63985 0.6262 0.84895 0.0
O261 O 0.86267 0.34896 0.63392 0.0
Tb262 Tb 0.86627 0.3748 0.64331 0.0
Eu263 Eu 0.85661 0.37452 0.50308 0.0
C264 C 0.84832 0.34166 0.65817 0.0
O265 O 0.83482 0.35053 0.68033 0.0
C266 C 0.82749 0.38051 0.59341 0.0
O267 O 0.85582 0.4018 0.50404 0.0
C268 C 0.84918 0.36278 0.41316 0.0
C269 C 0.87133 0.41023 0.49047 0.0
O270 O 0.88722 0.40255 0.4758 0.0
C271 C 0.89825 0.37716 0.55995 0.0
C272 C 0.85719 0.35439 0.36751 0.0
C273 C 0.85765 0.33734 0.36557 0.0
C274 C 0.86368 0.32931 0.32132 0.0
C275 C 0.86927 0.33828 0.27886 0.0
C276 C 0.86813 0.35516 0.27875 0.0
C277 C 0.86204 0.36321 0.32321 0.0
O278 O 0.84243 0.38855 0.61151 0.0
O279 O 0.83022 0.37104 0.55407 0.0
O280 O 0.85355 0.3817 0.71668 0.0
O281 O 0.88371 0.37573 0.71329 0.0
C282 C 0.86946 0.37998 0.74331 0.0
O283 O 0.88769 0.36854 0.52771 0.0
O284 O 0.89043 0.38445 0.59953 0.0
O285 O 0.85406 0.37792 0.42107 0.0
O286 O 0.84746 0.35444 0.45542 0.0
H287 H 0.85289 0.33027 0.39786 0.0
H288 H 0.87324 0.33196 0.24429 0.0
H289 H 0.8607 0.37624 0.32288 0.0
O290 O 0.63702 0.34474 0.8432 0.0
Tb291 Tb 0.62693 0.36914 0.85837 0.0
Eu292 Eu 0.63649 0.3902 0.01653 0.0
C293 C 0.63162 0.33235 0.87093 0.0
O294 O 0.62135 0.3348 0.91239 0.0
C295 C 0.66029 0.38585 0.92365 0.0
O296 O 0.63162 0.41702 0.02286 0.0
C297 C 0.64428 0.3774 0.1045 0.0
C298 C 0.61978 0.42457 0.99144 0.0
O299 O 0.61081 0.41626 0.95587 0.0
C300 C 0.59525 0.37495 0.95084 0.0
C301 C 0.63638 0.3683 0.14871 0.0
C302 C 0.63678 0.35126 0.14882 0.0
C303 C 0.63185 0.34262 0.19278 0.0
C304 C 0.62577 0.35096 0.2361 0.0
C305 C 0.62527 0.36784 0.23721 0.0
C306 C 0.63085 0.37651 0.19359 0.0
O307 O 0.64206 0.38133 0.91761 0.0
O308 O 0.66367 0.3917 0.96844 0.0
O309 O 0.60698 0.37405 0.79555 0.0
O310 O 0.63526 0.38488 0.79485 0.0
C311 C 0.6189 0.38314 0.76967 0.0
O312 O 0.60664 0.38176 0.98612 0.0
O313 O 0.60064 0.36923 0.90561 0.0
O314 O 0.63884 0.39251 0.09867 0.0
O315 O 0.6465 0.36969 0.06118 0.0
H316 H 0.64185 0.3447 0.11575 0.0
H317 H 0.62212 0.34421 0.27009 0.0
H318 H 0.63116 0.38958 0.19498 0.0
O319 O 0.87398 0.66618 0.35903 0.0
Tb320 Tb 0.8733 0.64001 0.36205 0.0
Eu321 Eu 0.85564 0.61986 0.51931 0.0
C322 C 0.85792 0.67438 0.34909 0.0
O323 O 0.84114 0.66664 0.34589 0.0
C324 C 0.83518 0.62864 0.42319 0.0
O325 O 0.85625 0.59287 0.50705 0.0
C326 C 0.8488 0.62745 0.61311 0.0
C327 C 0.87227 0.58435 0.5149 0.0
O328 O 0.88835 0.59178 0.52927 0.0
C329 C 0.89532 0.62774 0.45846 0.0
C330 C 0.85529 0.63827 0.65441 0.0
C331 C 0.85406 0.65522 0.65065 0.0
C332 C 0.85985 0.66501 0.69162 0.0
C333 C 0.8669 0.65775 0.73606 0.0
C334 C 0.86757 0.64094 0.74082 0.0
C335 C 0.86177 0.63126 0.69995 0.0
O336 O 0.85421 0.62922 0.41754 0.0
O337 O 0.82948 0.62405 0.4682 0.0
O338 O 0.85916 0.63155 0.2928 0.0
O339 O 0.89035 0.63046 0.29887 0.0
C340 C 0.87534 0.62754 0.26971 0.0
O341 O 0.88094 0.63431 0.48502 0.0
O342 O 0.89692 0.6307 0.40925 0.0
O343 O 0.86107 0.61596 0.59961 0.0
O344 O 0.8392 0.63383 0.57474 0.0
H345 H 0.84851 0.66081 0.61637 0.0
H346 H 0.87074 0.66522 0.76837 0.0
H347 H 0.86206 0.61823 0.70388 0.0
O348 O 0.36715 0.33256 0.84751 0.0
Tb349 Tb 0.36095 0.35829 0.84732 0.0
Eu350 Eu 0.35946 0.38989 0.99173 0.0
C351 C 0.35256 0.3223 0.84224 0.0
O352 O 0.3345 0.32784 0.84298 0.0
C353 C 0.33072 0.37938 0.90657 0.0
O354 O 0.36581 0.4164 0.98156 0.0
C355 C 0.35274 0.38327 0.08626 0.0
C356 C 0.38233 0.42329 0.99557 0.0
O357 O 0.39682 0.41433 0.01252 0.0
C358 C 0.39092 0.37298 0.91876 0.0
C359 C 0.35344 0.37051 0.12493 0.0
C360 C 0.35588 0.35416 0.11198 0.0
C361 C 0.3563 0.34243 0.15038 0.0
C362 C 0.35426 0.34707 0.20116 0.0
C363 C 0.3514 0.36327 0.21457 0.0
C364 C 0.35119 0.37498 0.17604 0.0
O365 O 0.34258 0.3669 0.90903 0.0
O366 O 0.33229 0.39037 0.94234 0.0
O367 O 0.34555 0.35462 0.77574 0.0
O368 O 0.36397 0.37514 0.78364 0.0
C369 C 0.35246 0.36728 0.75292 0.0
O370 O 0.37645 0.37041 0.95078 0.0
O371 O 0.38934 0.36691 0.87273 0.0
O372 O 0.36969 0.38881 0.06979 0.0
O373 O 0.33934 0.38192 0.05058 0.0
H374 H 0.35731 0.3506 0.07259 0.0
H375 H 0.35484 0.33788 0.23037 0.0
H376 H 0.34887 0.38756 0.18561 0.0
O377 O 0.12233 0.6579 0.29297 0.0
Tb378 Tb 0.11882 0.63259 0.31176 0.0
Eu379 Eu 0.12279 0.62933 0.49477 0.0
C380 C 0.13136 0.66853 0.32158 0.0
O381 O 0.13882 0.6641 0.36533 0.0
C382 C 0.15057 0.62855 0.39962 0.0
O383 O 0.11668 0.60363 0.51829 0.0
C384 C 0.12309 0.65056 0.56737 0.0
C385 C 0.11184 0.59306 0.4832 0.0
O386 O 0.10999 0.59805 0.43617 0.0
C387 C 0.09157 0.63168 0.40336 0.0
C388 C 0.1218 0.65418 0.6221 0.0
C389 C 0.12336 0.67041 0.63734 0.0
C390 C 0.12221 0.67473 0.68883 0.0
C391 C 0.11933 0.66254 0.72496 0.0
C392 C 0.11796 0.64628 0.71056 0.0
C393 C 0.11931 0.64205 0.65895 0.0
O394 O 0.13395 0.62366 0.37924 0.0
O395 O 0.15128 0.62955 0.44959 0.0
O396 O 0.13357 0.61843 0.25251 0.0
O397 O 0.10279 0.62223 0.24787 0.0
C398 C 0.11794 0.61599 0.22503 0.0
O399 O 0.10711 0.63825 0.42454 0.0
O400 O 0.09149 0.62991 0.35366 0.0
O401 O 0.13901 0.64327 0.55083 0.0
O402 O 0.10697 0.64605 0.54377 0.0
H403 H 0.12538 0.67971 0.6089 0.0
H404 H 0.11884 0.66563 0.76493 0.0
H405 H 0.1184 0.62949 0.64763 0.0
O406 O 0.36641 0.65622 0.14918 0.0
Tb407 Tb 0.3665 0.63032 0.1632 0.0
Eu408 Eu 0.36055 0.63128 0.02848 0.0
C409 C 0.35093 0.665 0.16091 0.0
O410 O 0.33466 0.65765 0.17439 0.0
C411 C 0.32789 0.62525 0.1105 0.0
O412 O 0.36277 0.60418 0.03613 0.0
C413 C 0.35372 0.63955 0.93476 0.0
C414 C 0.37931 0.59683 0.02434 0.0
O415 O 0.39431 0.60554 0.0092 0.0
C416 C 0.40116 0.63304 0.08713 0.0
C417 C 0.36114 0.64813 0.88922 0.0
C418 C 0.36476 0.66489 0.89054 0.0
C419 C 0.36903 0.67339 0.84579 0.0
C420 C 0.36977 0.66501 0.79967 0.0
C421 C 0.36595 0.64842 0.79724 0.0
C422 C 0.36194 0.63994 0.84228 0.0
O423 O 0.34158 0.61712 0.13409 0.0
O424 O 0.33284 0.63514 0.07382 0.0
O425 O 0.35697 0.63712 0.23934 0.0
O426 O 0.37775 0.61828 0.23186 0.0
C427 C 0.36757 0.62678 0.26406 0.0
O428 O 0.38975 0.64096 0.05523 0.0
O429 O 0.39388 0.6247 0.12534 0.0
O430 O 0.36183 0.62572 0.94725 0.0
O431 O 0.34862 0.6483 0.9742 0.0
H432 H 0.36372 0.67143 0.92602 0.0
H433 H 0.37242 0.6716 0.76478 0.0
H434 H 0.35836 0.62721 0.84041 0.0
O435 O 0.13369 0.32853 0.6411 0.0
Tb436 Tb 0.13729 0.35452 0.63654 0.0
Eu437 Eu 0.13343 0.38657 0.49297 0.0
C438 C 0.14904 0.31949 0.65151 0.0
O439 O 0.16646 0.32627 0.65326 0.0
C440 C 0.16434 0.37683 0.57378 0.0
O441 O 0.12219 0.41203 0.50213 0.0
C442 C 0.1388 0.38034 0.39746 0.0
C443 C 0.12659 0.42108 0.54153 0.0
O444 O 0.13663 0.41479 0.57917 0.0
C445 C 0.10507 0.36803 0.56907 0.0
C446 C 0.13864 0.36779 0.35802 0.0
C447 C 0.13452 0.3515 0.36917 0.0
C448 C 0.13317 0.34023 0.32948 0.0
C449 C 0.13617 0.34526 0.27938 0.0
C450 C 0.14091 0.36131 0.26783 0.0
C451 C 0.14193 0.37256 0.30754 0.0
O452 O 0.15321 0.36395 0.57177 0.0
O453 O 0.1612 0.38828 0.54014 0.0
O454 O 0.15598 0.35504 0.70382 0.0
O455 O 0.13137 0.37073 0.70031 0.0
C456 C 0.14594 0.3659 0.72828 0.0
O457 O 0.11882 0.36609 0.5347 0.0
O458 O 0.10791 0.36183 0.61444 0.0
O459 O 0.1217 0.38438 0.41676 0.0
O460 O 0.15311 0.3801 0.43094 0.0
H461 H 0.13206 0.34773 0.40801 0.0
H462 H 0.1348 0.33647 0.2491 0.0
H463 H 0.1454 0.38506 0.29935 0.0
H464 H 0.92143 0.13706 0.98523 0.0
H465 H 0.95719 0.13605 0.97529 0.0
H466 H 0.96334 0.12447 0.13394 0.0
H467 H 0.9279 0.12554 0.1444 0.0
H468 H 0.98844 0.14806 0.10514 0.0
H469 H 0.96784 0.09567 0.04396 0.0
H470 H 0.94941 0.07717 0.98829 0.0
H471 H 0.97786 0.0974 0.85761 0.0
H472 H 0.99627 0.11618 0.91252 0.0
H473 H 0.081 0.11742 0.14434 0.0
H474 H 0.04568 0.11691 0.12999 0.0
H475 H 0.05441 0.13283 0.97597 0.0
H476 H 0.09005 0.13335 0.98997 0.0
H477 H 0.02235 0.10954 0.99055 0.0
H478 H 0.04482 0.16059 0.05293 0.0
H479 H 0.06369 0.1785 0.10947 0.0
H480 H 0.03152 0.16079 0.23797 0.0
H481 H 0.01268 0.14256 0.18227 0.0
C482 C 0.93039 0.13434 0.01804 0.0
C483 C 0.92172 0.13139 0.06564 0.0
C484 C 0.95083 0.13368 0.01219 0.0
C485 C 0.96292 0.1301 0.05383 0.0
C486 C 0.9543 0.12728 0.1013 0.0
C487 C 0.93397 0.12785 0.10714 0.0
C488 C 0.98461 0.12948 0.0489 0.0
C489 C 0.99581 0.13959 0.08021 0.0
C490 C 0.99427 0.11876 0.01525 0.0
C491 C 0.98325 0.10746 0.98228 0.0
C492 C 0.97003 0.09627 0.00332 0.0
C493 C 0.95962 0.08572 0.97191 0.0
C494 C 0.96241 0.08615 0.91943 0.0
C495 C 0.97568 0.0971 0.89826 0.0
C496 C 0.98611 0.1077 0.92951 0.0
C497 C 0.0755 0.12055 0.10707 0.0
C498 C 0.0883 0.12578 0.06865 0.0
C499 C 0.05529 0.12022 0.09893 0.0
C500 C 0.04745 0.12515 0.05228 0.0
C501 C 0.06021 0.12907 0.01234 0.0
C502 C 0.08056 0.12938 0.02046 0.0
C503 C 0.02601 0.1278 0.04786 0.0
C504 C 0.01491 0.11816 0.01483 0.0
C505 C 0.01636 0.13898 0.07987 0.0
C506 C 0.02744 0.15012 0.11344 0.0
C507 C 0.04186 0.16043 0.09328 0.0
C508 C 0.05255 0.17065 0.12518 0.0
C509 C 0.04884 0.17076 0.17729 0.0
C510 C 0.03439 0.16068 0.19759 0.0
C511 C 0.02369 0.15042 0.16587 0.0
H512 H 0.05713 0.17867 0.20192 0.0
H513 H 0.95434 0.07796 0.89518 0.0
H514 H 0.42125 0.86364 0.45756 0.0
H515 H 0.45418 0.86752 0.42151 0.0
H516 H 0.47158 0.89348 0.55614 0.0
H517 H 0.43893 0.89017 0.59111 0.0
H518 H 0.49001 0.90575 0.47836 0.0
H519 H 0.47704 0.85079 0.54227 0.0
H520 H 0.45941 0.82477 0.54081 0.0
H521 H 0.47524 0.81814 0.3845 0.0
H522 H 0.49281 0.84422 0.38504 0.0
H523 H 0.57587 0.87962 0.59278 0.0
H524 H 0.54366 0.8871 0.55967 0.0
H525 H 0.55844 0.86587 0.41518 0.0
H526 H 0.59098 0.85848 0.44844 0.0
H527 H 0.52448 0.85337 0.45931 0.0
H528 H 0.54894 0.90464 0.41513 0.0
H529 H 0.56782 0.92976 0.42571 0.0
H530 H 0.53156 0.94317 0.55201 0.0
H531 H 0.51264 0.918 0.54287 0.0
C532 C 0.43203 0.87045 0.47888 0.0
C533 C 0.42767 0.87623 0.52776 0.0
C534 C 0.45083 0.87265 0.45828 0.0
C535 C 0.46552 0.88051 0.48655 0.0
C536 C 0.4606 0.88734 0.53353 0.0
C537 C 0.44192 0.88526 0.55382 0.0
C538 C 0.48656 0.87999 0.47166 0.0
C539 C 0.49758 0.89433 0.47362 0.0
C540 C 0.49643 0.86515 0.46374 0.0
C541 C 0.48598 0.84949 0.4635 0.0
C542 C 0.47666 0.8438 0.50756 0.0
C543 C 0.46669 0.82906 0.5069 0.0
C544 C 0.46615 0.81984 0.46253 0.0
C545 C 0.47562 0.82532 0.41879 0.0
C546 C 0.48558 0.84008 0.41924 0.0
C547 C 0.57243 0.87696 0.55353 0.0
C548 C 0.58584 0.86862 0.52291 0.0
C549 C 0.55409 0.88131 0.53452 0.0
C550 C 0.54873 0.87717 0.48478 0.0
C551 C 0.56241 0.86934 0.45344 0.0
C552 C 0.58098 0.86523 0.47228 0.0
C553 C 0.52795 0.87901 0.46925 0.0
C554 C 0.51698 0.8649 0.4616 0.0
C555 C 0.5182 0.89403 0.47284 0.0
C556 C 0.52934 0.90937 0.47827 0.0
C557 C 0.54504 0.91289 0.44538 0.0
C558 C 0.55578 0.92715 0.45115 0.0
C559 C 0.55094 0.93804 0.48961 0.0
C560 C 0.53531 0.93471 0.52228 0.0
C561 C 0.52453 0.92046 0.51672 0.0
H562 H 0.55927 0.94906 0.494 0.0
H563 H 0.45842 0.80843 0.46209 0.0
H564 H 0.92169 0.8577 0.87662 0.0
H565 H 0.95679 0.8579 0.89242 0.0
H566 H 0.94808 0.88806 0.02379 0.0
H567 H 0.91263 0.88813 0.00806 0.0
H568 H 0.97838 0.89881 0.9653 0.0
H569 H 0.95982 0.84954 0.04191 0.0
H570 H 0.94307 0.8233 0.04965 0.0
H571 H 0.97578 0.80507 0.92278 0.0
H572 H 0.99253 0.83129 0.91376 0.0
H573 H 0.08217 0.85843 0.00194 0.0
H574 H 0.04698 0.85921 0.02099 0.0
H575 H 0.03676 0.88647 0.88417 0.0
H576 H 0.0717 0.88595 0.86517 0.0
H577 H 0.01613 0.84759 0.97036 0.0
H578 H 0.0011 0.91343 0.90125 0.0
H579 H 0.01863 0.93948 0.89958 0.0
H580 H 0.05363 0.92472 0.02673 0.0
H581 H 0.03616 0.89869 0.02968 0.0
C582 C 0.92708 0.8644 0.90901 0.0
C583 C 0.91418 0.87291 0.94105 0.0
C584 C 0.94723 0.8644 0.91814 0.0
C585 C 0.95503 0.87283 0.95961 0.0
C586 C 0.94233 0.88142 0.99167 0.0
C587 C 0.92206 0.88138 0.98268 0.0
C588 C 0.97656 0.87287 0.968 0.0
C589 C 0.98664 0.88764 0.96692 0.0
C590 C 0.98731 0.8583 0.97166 0.0
C591 C 0.97737 0.84243 0.97702 0.0
C592 C 0.96336 0.83998 0.01544 0.0
C593 C 0.95387 0.82509 0.02009 0.0
C594 C 0.95834 0.81253 0.9867 0.0
C595 C 0.97234 0.81481 0.94863 0.0
C596 C 0.98186 0.82968 0.94379 0.0
C597 C 0.07242 0.8646 0.97593 0.0
C598 C 0.07978 0.87214 0.93204 0.0
C599 C 0.05233 0.86504 0.98692 0.0
C600 C 0.0393 0.87311 0.95442 0.0
C601 C 0.04659 0.88046 0.91036 0.0
C602 C 0.0666 0.88005 0.89938 0.0
C603 C 0.01793 0.87348 0.96511 0.0
C604 C 0.00788 0.85879 0.96975 0.0
C605 C 0.00725 0.88814 0.96595 0.0
C606 C 0.01736 0.90404 0.96547 0.0
C607 C 0.01242 0.91578 0.92913 0.0
C608 C 0.02238 0.93054 0.92789 0.0
C609 C 0.03726 0.93373 0.96295 0.0
C610 C 0.04215 0.92221 0.99949 0.0
C611 C 0.03222 0.90745 1.00094 0.0
H612 H 0.04499 0.94513 0.96189 0.0
H613 H 0.95098 0.80101 0.99035 0.0
H614 H 0.57847 0.10305 0.40083 0.0
H615 H 0.54404 0.0969 0.41769 0.0
H616 H 0.54386 0.13114 0.54081 0.0
H617 H 0.57861 0.13707 0.52482 0.0
H618 H 0.51482 0.10389 0.54966 0.0
H619 H 0.53591 0.14685 0.43575 0.0
H620 H 0.55633 0.15727 0.36578 0.0
H621 H 0.53173 0.12196 0.26491 0.0
H622 H 0.51142 0.11115 0.33464 0.0
H623 H 0.41817 0.1378 0.51728 0.0
H624 H 0.4522 0.13006 0.53497 0.0
H625 H 0.4557 0.10686 0.38858 0.0
H626 H 0.42216 0.11535 0.36994 0.0
H627 H 0.4835 0.12705 0.3961 0.0
H628 H 0.45861 0.08618 0.5077 0.0
H629 H 0.43885 0.07536 0.57834 0.0
H630 H 0.4696 0.10585 0.68321 0.0
H631 H 0.48939 0.11703 0.61322 0.0
C632 C 0.57132 0.10875 0.4329 0.0
C633 C 0.58101 0.12075 0.46091 0.0
C634 C 0.55168 0.10517 0.44264 0.0
C635 C 0.54133 0.11381 0.47981 0.0
C636 C 0.55161 0.12435 0.51197 0.0
C637 C 0.57144 0.12777 0.50267 0.0
C638 C 0.51963 0.11471 0.47654 0.0
C639 C 0.50785 0.109 0.51635 0.0
C640 C 0.51063 0.12125 0.43282 0.0
C641 C 0.5223 0.12811 0.39046 0.0
C642 C 0.53493 0.14127 0.3987 0.0
C643 C 0.54649 0.14724 0.35911 0.0
C644 C 0.54536 0.14025 0.31095 0.0
C645 C 0.53261 0.12734 0.30225 0.0
C646 C 0.52107 0.12129 0.34178 0.0
C647 C 0.42611 0.13071 0.48949 0.0
C648 C 0.41772 0.12734 0.442 0.0
C649 C 0.44553 0.12621 0.49971 0.0
C650 C 0.45663 0.11789 0.46305 0.0
C651 C 0.44757 0.1134 0.4173 0.0
C652 C 0.42839 0.11823 0.40666 0.0
C653 C 0.47824 0.11587 0.46879 0.0
C654 C 0.49018 0.12165 0.42939 0.0
C655 C 0.48718 0.10936 0.51288 0.0
C656 C 0.4754 0.10254 0.55509 0.0
C657 C 0.46108 0.09067 0.54576 0.0
C658 C 0.44988 0.08446 0.58569 0.0
C659 C 0.45293 0.08995 0.63515 0.0
C660 C 0.46724 0.10162 0.64485 0.0
C661 C 0.47848 0.10788 0.60508 0.0
H662 H 0.44424 0.08513 0.66599 0.0
H663 H 0.55435 0.14487 0.28036 0.0
H664 H 0.59046 0.64507 0.02915 0.0
H665 H 0.55632 0.6417 0.00214 0.0
H666 H 0.54387 0.61538 0.13953 0.0
H667 H 0.57791 0.61861 0.16655 0.0
H668 H 0.52335 0.60336 0.05564 0.0
H669 H 0.53737 0.65505 0.13766 0.0
H670 H 0.55481 0.68103 0.14499 0.0
H671 H 0.53497 0.69456 0.99636 0.0
H672 H 0.51762 0.66853 0.98795 0.0
H673 H 0.42877 0.61743 0.1436 0.0
H674 H 0.46395 0.61604 0.12872 0.0
H675 H 0.45762 0.64594 0.99584 0.0
H676 H 0.42216 0.64757 0.01073 0.0
H677 H 0.48785 0.65569 0.05443 0.0
H678 H 0.46729 0.60649 0.98138 0.0
H679 H 0.44892 0.58094 0.97587 0.0
H680 H 0.48026 0.56256 0.10475 0.0
H681 H 0.49862 0.58812 0.11162 0.0
C682 C 0.58059 0.6382 0.05294 0.0
C683 C 0.58678 0.63229 0.10028 0.0
C684 C 0.56108 0.63633 0.03751 0.0
C685 C 0.54754 0.62848 0.06917 0.0
C686 C 0.55408 0.62149 0.11457 0.0
C687 C 0.57351 0.62345 0.13012 0.0
C688 C 0.52619 0.62921 0.05879 0.0
C689 C 0.51554 0.61477 0.05517 0.0
C690 C 0.51611 0.64414 0.05672 0.0
C691 C 0.52643 0.65979 0.06191 0.0
C692 C 0.53686 0.66352 0.10641 0.0
C693 C 0.5467 0.67825 0.11078 0.0
C694 C 0.54605 0.68942 0.07109 0.0
C695 C 0.5355 0.68588 0.02701 0.0
C696 C 0.52567 0.67114 0.02242 0.0
C697 C 0.43477 0.62373 0.11111 0.0
C698 C 0.42261 0.63262 0.07834 0.0
C699 C 0.45491 0.6228 0.10244 0.0
C700 C 0.46336 0.63063 0.06063 0.0
C701 C 0.45135 0.63971 0.0281 0.0
C702 C 0.43111 0.64064 0.03674 0.0
C703 C 0.48488 0.62981 0.05285 0.0
C704 C 0.49559 0.64425 0.05324 0.0
C705 C 0.49497 0.61487 0.05167 0.0
C706 C 0.48428 0.59929 0.04715 0.0
C707 C 0.47021 0.59704 0.00874 0.0
C708 C 0.45979 0.58255 0.00537 0.0
C709 C 0.46339 0.57015 0.04 0.0
C710 C 0.47749 0.57219 0.07795 0.0
C711 C 0.48793 0.58667 0.08155 0.0
H712 H 0.45527 0.55895 0.03739 0.0
H713 H 0.55367 0.70082 0.07454 0.0
H714 H 0.08094 0.38451 0.63191 0.0
H715 H 0.04611 0.38996 0.61861 0.0
H716 H 0.05048 0.37165 0.46582 0.0
H717 H 0.08571 0.36681 0.4784 0.0
H718 H 0.02182 0.39543 0.47423 0.0
H719 H 0.03919 0.34607 0.55751 0.0
H720 H 0.05625 0.3293 0.62095 0.0
H721 H 0.02661 0.35444 0.74103 0.0
H722 H 0.00959 0.37154 0.6783 0.0
H723 H 0.92026 0.36779 0.47756 0.0
H724 H 0.95608 0.36926 0.46845 0.0
H725 H 0.96044 0.39087 0.61681 0.0
H726 H 0.92496 0.38951 0.6263 0.0
H727 H 0.98467 0.36413 0.60294 0.0
H728 H 0.96703 0.41351 0.51666 0.0
H729 H 0.94978 0.4294 0.4514 0.0
H730 H 0.97924 0.40277 0.33421 0.0
H731 H 0.99642 0.38651 0.39884 0.0
C732 C 0.0746 0.38215 0.59496 0.0
C733 C 0.08584 0.37501 0.55644 0.0
C734 C 0.05472 0.38523 0.58741 0.0
C735 C 0.04562 0.38074 0.54176 0.0
C736 C 0.0572 0.37508 0.50146 0.0
C737 C 0.0773 0.37231 0.50868 0.0
C738 C 0.02391 0.3798 0.5393 0.0
C739 C 0.01367 0.38845 0.50194 0.0
C740 C 0.01329 0.37062 0.57538 0.0
C741 C 0.02323 0.36016 0.61321 0.0
C742 C 0.03639 0.34807 0.59746 0.0
C743 C 0.04605 0.33851 0.63328 0.0
C744 C 0.04254 0.34082 0.68499 0.0
C745 C 0.02932 0.35267 0.70097 0.0
C746 C 0.01965 0.36229 0.66529 0.0
C747 C 0.92886 0.37291 0.50812 0.0
C748 C 0.91974 0.37843 0.55278 0.0
C749 C 0.94928 0.37383 0.50271 0.0
C750 C 0.96084 0.38021 0.54195 0.0
C751 C 0.95175 0.38591 0.58613 0.0
C752 C 0.93143 0.38512 0.59141 0.0
C753 C 0.98251 0.38014 0.5389 0.0
C754 C 0.99278 0.3711 0.5751 0.0
C755 C 0.99302 0.38879 0.50143 0.0
C756 C 0.98284 0.39867 0.46259 0.0
C757 C 0.9697 0.41093 0.47698 0.0
C758 C 0.95995 0.42003 0.4401 0.0
C759 C 0.96337 0.41706 0.38868 0.0
C760 C 0.97658 0.40503 0.37405 0.0
C761 C 0.98633 0.39588 0.41079 0.0
H762 H 0.95582 0.42412 0.36018 0.0
H763 H 0.05005 0.33341 0.71267 0.0
H764 H 0.40443 0.37571 0.01653 0.0
H765 H 0.43884 0.37916 0.04231 0.0
H766 H 0.45537 0.38605 0.88605 0.0
H767 H 0.42125 0.38287 0.86006 0.0
H768 H 0.4692 0.35547 0.96931 0.0
H769 H 0.46664 0.41396 0.91588 0.0
H770 H 0.45261 0.44119 0.9273 0.0
H771 H 0.46664 0.43959 0.08599 0.0
H772 H 0.48047 0.41224 0.07553 0.0
H773 H 0.5658 0.36282 0.89112 0.0
H774 H 0.53068 0.36428 0.90553 0.0
H775 H 0.54049 0.38736 0.04991 0.0
H776 H 0.57591 0.3863 0.03553 0.0
H777 H 0.51235 0.40282 0.99815 0.0
H778 H 0.52402 0.3486 0.04606 0.0
H779 H 0.53762 0.3211 0.0398 0.0
H780 H 0.5055 0.31322 0.90193 0.0
H781 H 0.49192 0.34076 0.90692 0.0
C782 C 0.4153 0.37855 0.98792 0.0
C783 C 0.41022 0.37887 0.93621 0.0
C784 C 0.43492 0.38049 0.00272 0.0
C785 C 0.44951 0.38293 0.966 0.0
C786 C 0.44422 0.38437 0.91489 0.0
C787 C 0.42474 0.38248 0.90013 0.0
C788 C 0.47046 0.38123 0.9788 0.0
C789 C 0.4787 0.36577 0.97587 0.0
C790 C 0.48257 0.39462 0.98903 0.0
C791 C 0.47433 0.41102 0.99506 0.0
C792 C 0.46652 0.41935 0.95328 0.0
C793 C 0.45867 0.43482 0.95954 0.0
C794 C 0.45872 0.44211 0.00735 0.0
C795 C 0.4666 0.43394 0.04899 0.0
C796 C 0.47444 0.41846 0.04292 0.0
C797 C 0.56065 0.36808 0.92629 0.0
C798 C 0.57387 0.37443 0.96211 0.0
C799 C 0.54047 0.36884 0.93456 0.0
C800 C 0.53294 0.37576 0.97908 0.0
C801 C 0.54599 0.38193 0.01534 0.0
C802 C 0.56627 0.38123 0.00706 0.0
C803 C 0.51138 0.37705 0.98604 0.0
C804 C 0.50295 0.39239 0.99283 0.0
C805 C 0.49902 0.36346 0.97983 0.0
C806 C 0.507 0.34679 0.9768 0.0
C807 C 0.51994 0.34104 0.01425 0.0
C808 C 0.52764 0.32544 0.01094 0.0
C809 C 0.52244 0.31542 0.97047 0.0
C810 C 0.5095 0.32099 0.93328 0.0
C811 C 0.50176 0.33659 0.93638 0.0
H812 H 0.52843 0.30335 0.96796 0.0
H813 H 0.45265 0.45409 0.01211 0.0
H814 H 0.07464 0.64568 0.4861 0.0
H815 H 0.04195 0.63963 0.52002 0.0
H816 H 0.03769 0.59863 0.41966 0.0
H817 H 0.07007 0.60487 0.38517 0.0
H818 H 0.00938 0.61972 0.40282 0.0
H819 H 0.03727 0.59454 0.55009 0.0
H820 H 0.05889 0.59318 0.62493 0.0
H821 H 0.02877 0.6335 0.69137 0.0
H822 H 0.00716 0.63528 0.61652 0.0
H823 H 0.91471 0.60008 0.43974 0.0
H824 H 0.94933 0.59505 0.45782 0.0
H825 H 0.95179 0.63865 0.54692 0.0
H826 H 0.91674 0.64327 0.53087 0.0
H827 H 0.9811 0.61527 0.57575 0.0
H828 H 0.95723 0.64305 0.42702 0.0
H829 H 0.93578 0.64606 0.35227 0.0
H830 H 0.95959 0.60259 0.28842 0.0
H831 H 0.98094 0.59918 0.36331 0.0
C832 C 0.06704 0.63499 0.47297 0.0
C833 C 0.07477 0.62575 0.43306 0.0
C834 C 0.04834 0.63156 0.49225 0.0
C835 C 0.03732 0.61871 0.4722 0.0
C836 C 0.04588 0.60865 0.43551 0.0
C837 C 0.06436 0.61221 0.41583 0.0
C838 C 0.01596 0.61738 0.48247 0.0
C839 C 0.0033 0.61838 0.44064 0.0
C840 C 0.00795 0.61636 0.53195 0.0
C841 C 0.02068 0.61512 0.57745 0.0
C842 C 0.03533 0.60319 0.58048 0.0
C843 C 0.04758 0.60233 0.62294 0.0
C844 C 0.04523 0.61327 0.66283 0.0
C845 C 0.03058 0.62504 0.66042 0.0
C846 C 0.01831 0.62597 0.61801 0.0
C847 C 0.92241 0.6081 0.46539 0.0
C848 C 0.91323 0.62207 0.48377 0.0
C849 C 0.94217 0.60524 0.47569 0.0
C850 C 0.95322 0.61669 0.50266 0.0
C851 C 0.94353 0.62968 0.52602 0.0
C852 C 0.92353 0.63233 0.51677 0.0
C853 C 0.97482 0.61711 0.49592 0.0
C854 C 0.98738 0.61628 0.53809 0.0
C855 C 0.98295 0.61851 0.4467 0.0
C856 C 0.97053 0.62078 0.40096 0.0
C857 C 0.95781 0.63409 0.39715 0.0
C858 C 0.94567 0.63587 0.35478 0.0
C859 C 0.94628 0.6245 0.31568 0.0
C860 C 0.9591 0.61137 0.31878 0.0
C861 C 0.97123 0.60951 0.36117 0.0
H862 H 0.93685 0.62588 0.28293 0.0
H863 H 0.05475 0.6126 0.69564 0.0
H864 H 0.16026 0.17975 0.85565 0.0
H865 H 0.16054 0.20851 0.83401 0.0
H866 H 0.10174 0.20435 0.77445 0.0
H867 H 0.1017 0.17556 0.79501 0.0
H868 H 0.12502 0.21657 0.70571 0.0
H869 H 0.11261 0.22773 0.88056 0.0
H870 H 0.11768 0.226 0.97298 0.0
H871 H 0.17546 0.24599 0.9564 0.0
H872 H 0.17085 0.24763 0.86376 0.0
H873 H 0.11577 0.30091 0.64773 0.0
H874 H 0.11118 0.27381 0.68305 0.0
H875 H 0.17176 0.27299 0.73024 0.0
H876 H 0.17654 0.29993 0.69481 0.0
H877 H 0.14591 0.26394 0.80708 0.0
H878 H 0.15882 0.25129 0.63241 0.0
H879 H 0.15413 0.25247 0.53976 0.0
H880 H 0.09519 0.23497 0.55662 0.0
H881 H 0.09942 0.23392 0.64952 0.0
C882 C 0.14715 0.18517 0.83979 0.0
C883 C 0.13094 0.17553 0.8271 0.0
C884 C 0.14732 0.20158 0.82722 0.0
C885 C 0.13117 0.20861 0.80236 0.0
C886 C 0.11441 0.19919 0.7933 0.0
C887 C 0.11431 0.1828 0.80544 0.0
C888 C 0.1326 0.22511 0.78046 0.0
C889 C 0.12918 0.22698 0.7282 0.0
C890 C 0.13862 0.23863 0.80936 0.0
C891 C 0.14144 0.23767 0.8651 0.0
C892 C 0.12646 0.23163 0.89655 0.0
C893 C 0.12924 0.23069 0.949 0.0
C894 C 0.14689 0.23584 0.97054 0.0
C895 C 0.1618 0.24199 0.93967 0.0
C896 C 0.1591 0.24294 0.88718 0.0
C897 C 0.12816 0.29488 0.66512 0.0
C898 C 0.14652 0.30257 0.66838 0.0
C899 C 0.12551 0.27941 0.68531 0.0
C900 C 0.14113 0.27142 0.70936 0.0
C901 C 0.15951 0.27898 0.71204 0.0
C902 C 0.16223 0.29434 0.69143 0.0
C903 C 0.13827 0.2553 0.73262 0.0
C904 C 0.14151 0.25352 0.78494 0.0
C905 C 0.13205 0.24185 0.70384 0.0
C906 C 0.12936 0.24273 0.64802 0.0
C907 C 0.14478 0.24788 0.61644 0.0
C908 C 0.14222 0.24848 0.56385 0.0
C909 C 0.12435 0.24385 0.54232 0.0
C910 C 0.10901 0.23859 0.57335 0.0
C911 C 0.11148 0.23799 0.62598 0.0
H912 H 0.12242 0.24429 0.50159 0.0
H913 H 0.14901 0.23511 0.01116 0.0
H914 H 0.406 0.80792 0.28588 0.0
H915 H 0.40114 0.77947 0.26438 0.0
H916 H 0.34008 0.78332 0.30609 0.0
H917 H 0.34511 0.81175 0.32907 0.0
H918 H 0.35398 0.75387 0.3297 0.0
H919 H 0.35507 0.78821 0.18368 0.0
H920 H 0.36885 0.80896 0.12695 0.0
H921 H 0.41888 0.77886 0.09776 0.0
H922 H 0.40564 0.75806 0.1553 0.0
H923 H 0.32211 0.68649 0.18624 0.0
H924 H 0.32622 0.71451 0.21326 0.0
H925 H 0.3882 0.71155 0.18138 0.0
H926 H 0.38422 0.68348 0.1544 0.0
H927 H 0.37274 0.74063 0.15254 0.0
H928 H 0.37159 0.70657 0.3007 0.0
H929 H 0.35731 0.68581 0.35664 0.0
H930 H 0.30632 0.71539 0.37953 0.0
H931 H 0.32017 0.73622 0.32302 0.0
C932 C 0.39168 0.80255 0.29177 0.0
C933 C 0.37592 0.812 0.30902 0.0
C934 C 0.38886 0.78634 0.27909 0.0
C935 C 0.37011 0.77935 0.28227 0.0
C936 C 0.35465 0.78846 0.30299 0.0
C937 C 0.35754 0.80467 0.31634 0.0
C938 C 0.3664 0.76305 0.26033 0.0
C939 C 0.35787 0.75105 0.2908 0.0
C940 C 0.37162 0.75925 0.2096 0.0
C941 C 0.37944 0.77163 0.17421 0.0
C942 C 0.36907 0.78605 0.16544 0.0
C943 C 0.37678 0.79783 0.13313 0.0
C944 C 0.39473 0.79524 0.10881 0.0
C945 C 0.40499 0.78086 0.11668 0.0
C946 C 0.39739 0.76907 0.14916 0.0
C947 C 0.3366 0.69183 0.18449 0.0
C948 C 0.35289 0.68265 0.16887 0.0
C949 C 0.33892 0.70785 0.20008 0.0
C950 C 0.3576 0.71504 0.20036 0.0
C951 C 0.37368 0.70622 0.18183 0.0
C952 C 0.37137 0.69017 0.16634 0.0
C953 C 0.36053 0.73144 0.22204 0.0
C954 C 0.36885 0.74348 0.19143 0.0
C955 C 0.35502 0.73527 0.27247 0.0
C956 C 0.34685 0.72291 0.30731 0.0
C957 C 0.35729 0.70861 0.31746 0.0
C958 C 0.34928 0.69684 0.3493 0.0
C959 C 0.33093 0.69929 0.37165 0.0
C960 C 0.32056 0.71353 0.36225 0.0
C961 C 0.32848 0.72532 0.33033 0.0
H962 H 0.32473 0.69014 0.39618 0.0
H963 H 0.40067 0.80438 0.08381 0.0
H964 H 0.15309 0.69321 0.3625 0.0
H965 H 0.15597 0.72088 0.33074 0.0
H966 H 0.11632 0.70953 0.20822 0.0
H967 H 0.11376 0.68188 0.23883 0.0
H968 H 0.14542 0.72703 0.17334 0.0
H969 H 0.10112 0.73065 0.31401 0.0
H970 H 0.08998 0.727 0.40226 0.0
H971 H 0.13791 0.75608 0.45544 0.0
H972 H 0.1495 0.75972 0.36751 0.0
H973 H 0.12085 0.80957 0.11097 0.0
H974 H 0.12119 0.78065 0.13211 0.0
H975 H 0.16197 0.79007 0.25387 0.0
H976 H 0.16128 0.8188 0.23355 0.0
H977 H 0.13182 0.77333 0.28716 0.0
H978 H 0.17531 0.77007 0.14268 0.0
H979 H 0.1848 0.77388 0.05322 0.0
H980 H 0.13633 0.74446 0.00555 0.0
H981 H 0.12639 0.74062 0.09473 0.0
C982 C 0.14498 0.69663 0.32885 0.0
C983 C 0.13313 0.68536 0.30339 0.0
C984 C 0.1466 0.71245 0.31076 0.0
C985 C 0.13618 0.71734 0.26735 0.0
C986 C 0.12452 0.70605 0.24167 0.0
C987 C 0.12302 0.69024 0.25944 0.0
C988 C 0.13716 0.73426 0.24894 0.0
C989 C 0.14226 0.73716 0.19808 0.0
C990 C 0.13321 0.74749 0.28128 0.0
C991 C 0.12629 0.74531 0.33421 0.0
C992 C 0.10938 0.73616 0.34456 0.0
C993 C 0.10297 0.73411 0.39452 0.0
C994 C 0.11327 0.74126 0.43444 0.0
C995 C 0.12997 0.75052 0.42448 0.0
C996 C 0.13646 0.75258 0.37459 0.0
C997 C 0.13011 0.80533 0.14158 0.0
C998 C 0.14089 0.81633 0.17098 0.0
C999 C 0.13034 0.78886 0.15362 0.0
C1000 C 0.1416 0.7832 0.19467 0.0
C1001 C 0.15307 0.79416 0.22232 0.0
C1002 C 0.15269 0.81054 0.21067 0.0
C1003 C 0.14041 0.76616 0.21177 0.0
C1004 C 0.1351 0.76322 0.26242 0.0
C1005 C 0.14397 0.75294 0.17904 0.0
C1006 C 0.14999 0.7552 0.1254 0.0
C1007 C 0.16658 0.76451 0.11312 0.0
C1008 C 0.17206 0.76665 0.06245 0.0
C1009 C 0.16114 0.75944 0.02371 0.0
C1010 C 0.14476 0.75004 0.03558 0.0
C1011 C 0.13921 0.74787 0.08619 0.0
H1012 H 0.1654 0.76111 0.98451 0.0
H1013 H 0.10827 0.73967 0.47309 0.0
H1014 H 0.32605 0.30051 0.80621 0.0
H1015 H 0.33259 0.27377 0.77142 0.0
H1016 H 0.39394 0.27883 0.80811 0.0
H1017 H 0.38759 0.30588 0.84248 0.0
H1018 H 0.35846 0.26721 0.68952 0.0
H1019 H 0.40888 0.23804 0.84002 0.0
H1020 H 0.41479 0.23862 0.93234 0.0
H1021 H 0.35553 0.25432 0.95758 0.0
H1022 H 0.34917 0.25357 0.86557 0.0
H1023 H 0.40235 0.1782 0.69775 0.0
H1024 H 0.40382 0.20711 0.71681 0.0
H1025 H 0.34439 0.21259 0.6626 0.0
H1026 H 0.34329 0.18383 0.64204 0.0
H1027 H 0.38273 0.2201 0.78691 0.0
H1028 H 0.33348 0.25104 0.63483 0.0
H1029 H 0.32739 0.24953 0.54277 0.0
H1030 H 0.38499 0.22985 0.51955 0.0
H1031 H 0.39156 0.23145 0.61136 0.0
C1032 C 0.34092 0.29592 0.80752 0.0
C1033 C 0.35633 0.30536 0.82703 0.0
C1034 C 0.34463 0.28065 0.78732 0.0
C1035 C 0.36374 0.27437 0.787 0.0
C1036 C 0.37908 0.28348 0.80811 0.0
C1037 C 0.37542 0.2989 0.82774 0.0
C1038 C 0.36756 0.25853 0.76279 0.0
C1039 C 0.36366 0.25685 0.71076 0.0
C1040 C 0.37494 0.24522 0.79032 0.0
C1041 C 0.37867 0.24601 0.84575 0.0
C1042 C 0.39712 0.24165 0.86527 0.0
C1043 C 0.40054 0.24197 0.91757 0.0
C1044 C 0.38557 0.24658 0.9508 0.0
C1045 C 0.36715 0.25085 0.93178 0.0
C1046 C 0.36365 0.25051 0.87953 0.0
C1047 C 0.39002 0.1858 0.6876 0.0
C1048 C 0.37284 0.17895 0.66763 0.0
C1049 C 0.39075 0.20226 0.69908 0.0
C1050 C 0.37422 0.21209 0.6913 0.0
C1051 C 0.35749 0.2054 0.66812 0.0
C1052 C 0.35686 0.18896 0.65611 0.0
C1053 C 0.37349 0.22862 0.71337 0.0
C1054 C 0.37789 0.23048 0.76517 0.0
C1055 C 0.36668 0.24211 0.68554 0.0
C1056 C 0.36294 0.24125 0.63012 0.0
C1057 C 0.34489 0.24646 0.61008 0.0
C1058 C 0.34135 0.24557 0.55793 0.0
C1059 C 0.35577 0.23955 0.52535 0.0
C1060 C 0.3738 0.23445 0.54485 0.0
C1061 C 0.37743 0.23533 0.59696 0.0
H1062 H 0.35299 0.23887 0.48499 0.0
H1063 H 0.38823 0.24678 0.99127 0.0
H1064 H 0.89057 0.6916 0.32237 0.0
H1065 H 0.89182 0.71905 0.28844 0.0
H1066 H 0.82926 0.72362 0.30875 0.0
H1067 H 0.8279 0.69611 0.3426 0.0
H1068 H 0.84043 0.7327 0.21418 0.0
H1069 H 0.86075 0.74407 0.38526 0.0
H1070 H 0.88087 0.74129 0.4624 0.0
H1071 H 0.93261 0.75363 0.37792 0.0
H1072 H 0.91279 0.7564 0.30008 0.0
H1073 H 0.83042 0.81726 0.17313 0.0
H1074 H 0.83027 0.78899 0.19964 0.0
H1075 H 0.89365 0.78849 0.1964 0.0
H1076 H 0.89367 0.8171 0.17266 0.0
H1077 H 0.88265 0.77669 0.28 0.0
H1078 H 0.86204 0.7666 0.10865 0.0
H1079 H 0.84162 0.76982 0.03206 0.0
H1080 H 0.79064 0.75489 0.11552 0.0
H1081 H 0.81068 0.75179 0.19276 0.0
C1082 C 0.87711 0.69853 0.32035 0.0
C1083 C 0.85908 0.69163 0.33467 0.0
C1084 C 0.87785 0.71422 0.30088 0.0
C1085 C 0.86061 0.72338 0.29583 0.0
C1086 C 0.8427 0.71671 0.31176 0.0
C1087 C 0.84195 0.70101 0.33115 0.0
C1088 C 0.86109 0.73963 0.27196 0.0
C1089 C 0.8495 0.7424 0.22881 0.0
C1090 C 0.87335 0.75212 0.29016 0.0
C1091 C 0.88532 0.75026 0.33675 0.0
C1092 C 0.87645 0.74604 0.38303 0.0
C1093 C 0.88779 0.7445 0.42692 0.0
C1094 C 0.90802 0.74721 0.42506 0.0
C1095 C 0.91694 0.7515 0.37929 0.0
C1096 C 0.90565 0.75308 0.3353 0.0
C1097 C 0.84426 0.81091 0.17658 0.0
C1098 C 0.86205 0.81918 0.17014 0.0
C1099 C 0.8442 0.79474 0.19172 0.0
C1100 C 0.86196 0.78643 0.19957 0.0
C1101 C 0.87975 0.79457 0.19064 0.0
C1102 C 0.8798 0.81084 0.17657 0.0
C1103 C 0.86204 0.76986 0.2217 0.0
C1104 C 0.8737 0.767 0.26477 0.0
C1105 C 0.8499 0.75728 0.20318 0.0
C1106 C 0.83785 0.7591 0.15663 0.0
C1107 C 0.84645 0.76411 0.11076 0.0
C1108 C 0.83494 0.7659 0.06721 0.0
C1109 C 0.81484 0.7626 0.06898 0.0
C1110 C 0.80621 0.75746 0.11423 0.0
C1111 C 0.81764 0.75567 0.15789 0.0
H1112 H 0.80592 0.764 0.03532 0.0
H1113 H 0.91679 0.74603 0.45908 0.0
H1114 H 0.64118 0.32314 0.77464 0.0
H1115 H 0.64403 0.29566 0.74147 0.0
H1116 H 0.63293 0.27652 0.89072 0.0
H1117 H 0.6296 0.30402 0.9242 0.0
H1118 H 0.66678 0.26223 0.82791 0.0
H1119 H 0.59644 0.27606 0.82104 0.0
H1120 H 0.56967 0.29416 0.79386 0.0
H1121 H 0.58735 0.28862 0.63849 0.0
H1122 H 0.61434 0.2706 0.66487 0.0
H1123 H 0.6467 0.18102 0.79566 0.0
H1124 H 0.647 0.20922 0.81794 0.0
H1125 H 0.62987 0.22179 0.66538 0.0
H1126 H 0.62685 0.19318 0.64449 0.0
H1127 H 0.61265 0.24107 0.72098 0.0
H1128 H 0.6795 0.22636 0.71726 0.0
H1129 H 0.70937 0.21047 0.73443 0.0
H1130 H 0.70358 0.22004 0.89377 0.0
H1131 H 0.67351 0.2358 0.87767 0.0
C1132 C 0.63956 0.31311 0.80061 0.0
C1133 C 0.63514 0.31575 0.85211 0.0
C1134 C 0.64114 0.29742 0.7815 0.0
C1135 C 0.63863 0.28411 0.81365 0.0
C1136 C 0.63493 0.28668 0.86539 0.0
C1137 C 0.63299 0.30237 0.8844 0.0
C1138 C 0.63904 0.2675 0.79297 0.0
C1139 C 0.65491 0.25747 0.80495 0.0
C1140 C 0.62405 0.26168 0.76078 0.0
C1141 C 0.60746 0.27209 0.74495 0.0
C1142 C 0.59465 0.27876 0.78112 0.0
C1143 C 0.57944 0.28899 0.76585 0.0
C1144 C 0.57683 0.29256 0.71449 0.0
C1145 C 0.58938 0.28584 0.67826 0.0
C1146 C 0.60461 0.2756 0.69333 0.0
C1147 C 0.64236 0.18962 0.76691 0.0
C1148 C 0.63637 0.18454 0.71829 0.0
C1149 C 0.64313 0.20595 0.77947 0.0
C1150 C 0.63904 0.21785 0.74311 0.0
C1151 C 0.63324 0.21292 0.69427 0.0
C1152 C 0.63177 0.19648 0.68211 0.0
C1153 C 0.64027 0.23532 0.75698 0.0
C1154 C 0.62472 0.24565 0.74358 0.0
C1155 C 0.65602 0.2416 0.78628 0.0
C1156 C 0.67416 0.23218 0.79625 0.0
C1157 C 0.68452 0.22499 0.756 0.0
C1158 C 0.7015 0.21602 0.76554 0.0
C1159 C 0.70835 0.21422 0.81516 0.0
C1160 C 0.69825 0.22143 0.85535 0.0
C1161 C 0.68126 0.23041 0.84603 0.0
H1162 H 0.72149 0.20726 0.82247 0.0
H1163 H 0.56508 0.30051 0.70276 0.0
H1164 H 0.87977 0.32152 0.64452 0.0
H1165 H 0.88377 0.2942 0.67804 0.0
H1166 H 0.82432 0.29517 0.73415 0.0
H1167 H 0.82013 0.32242 0.70009 0.0
H1168 H 0.85119 0.28588 0.80743 0.0
H1169 H 0.8363 0.27257 0.63331 0.0
H1170 H 0.84126 0.27451 0.541 0.0
H1171 H 0.8999 0.25621 0.55729 0.0
H1172 H 0.89543 0.25451 0.64997 0.0
H1173 H 0.83919 0.20234 0.86921 0.0
H1174 H 0.83827 0.23086 0.84496 0.0
H1175 H 0.89451 0.22572 0.77132 0.0
H1176 H 0.89519 0.19717 0.79465 0.0
H1177 H 0.87014 0.23764 0.7075 0.0
H1178 H 0.88828 0.25279 0.87545 0.0
H1179 H 0.88798 0.25442 0.96868 0.0
H1180 H 0.82794 0.27015 0.96573 0.0
H1181 H 0.82803 0.26892 0.87216 0.0
C1182 C 0.8674 0.31581 0.66304 0.0
C1183 C 0.84969 0.32423 0.67021 0.0
C1184 C 0.86974 0.3002 0.68238 0.0
C1185 C 0.85438 0.29268 0.70891 0.0
C1186 C 0.83643 0.30081 0.71426 0.0
C1187 C 0.83406 0.31637 0.69476 0.0
C1188 C 0.85725 0.2766 0.73278 0.0
C1189 C 0.85502 0.27524 0.78553 0.0
C1190 C 0.86307 0.26292 0.7045 0.0
C1191 C 0.86558 0.26356 0.64864 0.0
C1192 C 0.85029 0.26905 0.61726 0.0
C1193 C 0.85302 0.2701 0.56483 0.0
C1194 C 0.87091 0.26551 0.54325 0.0
C1195 C 0.88607 0.25979 0.57406 0.0
C1196 C 0.88344 0.25878 0.62654 0.0
C1197 C 0.85167 0.20748 0.84951 0.0
C1198 C 0.86724 0.19756 0.83372 0.0
C1199 C 0.85114 0.2238 0.83551 0.0
C1200 C 0.86628 0.23051 0.80595 0.0
C1201 C 0.88256 0.22085 0.79369 0.0
C1202 C 0.88302 0.20456 0.80731 0.0
C1203 C 0.86405 0.24679 0.78251 0.0
C1204 C 0.86631 0.24822 0.72965 0.0
C1205 C 0.85863 0.26061 0.81082 0.0
C1206 C 0.85809 0.26053 0.86694 0.0
C1207 C 0.87494 0.2564 0.89473 0.0
C1208 C 0.87484 0.25734 0.94763 0.0
C1209 C 0.85789 0.26224 0.97323 0.0
C1210 C 0.84104 0.2663 0.94588 0.0
C1211 C 0.84113 0.26557 0.8929 0.0
H1212 H 0.85786 0.26298 0.01421 0.0
H1213 H 0.87306 0.26638 0.50268 0.0
H1214 H 0.68871 0.69318 0.20754 0.0
H1215 H 0.69027 0.72059 0.24201 0.0
H1216 H 0.63164 0.71524 0.30179 0.0
H1217 H 0.62969 0.68822 0.26532 0.0
H1218 H 0.6349 0.74327 0.26112 0.0
H1219 H 0.67629 0.71242 0.37441 0.0
H1220 H 0.70413 0.69437 0.39373 0.0
H1221 H 0.74442 0.72956 0.33546 0.0
H1222 H 0.71683 0.74756 0.31404 0.0
H1223 H 0.63268 0.81506 0.39305 0.0
H1224 H 0.63578 0.78559 0.39052 0.0
H1225 H 0.69146 0.79019 0.31396 0.0
H1226 H 0.68849 0.81956 0.31716 0.0
H1227 H 0.68984 0.76217 0.36948 0.0
H1228 H 0.65135 0.79055 0.24552 0.0
H1229 H 0.62539 0.80933 0.21792 0.0
H1230 H 0.58178 0.77953 0.28907 0.0
H1231 H 0.60758 0.76073 0.31798 0.0
C1232 C 0.67614 0.69791 0.22784 0.0
C1233 C 0.65905 0.68859 0.23353 0.0
C1234 C 0.6771 0.71353 0.24797 0.0
C1235 C 0.66122 0.71993 0.2755 0.0
C1236 C 0.64412 0.71061 0.28085 0.0
C1237 C 0.643 0.69516 0.25986 0.0
C1238 C 0.66202 0.73649 0.29745 0.0
C1239 C 0.64673 0.74722 0.28569 0.0
C1240 C 0.67781 0.74195 0.32812 0.0
C1241 C 0.69444 0.73128 0.34225 0.0
C1242 C 0.69107 0.71625 0.36543 0.0
C1243 C 0.70681 0.70603 0.37675 0.0
C1244 C 0.72601 0.71082 0.36596 0.0
C1245 C 0.72954 0.72585 0.34377 0.0
C1246 C 0.71385 0.73605 0.33194 0.0
C1247 C 0.64603 0.80976 0.37818 0.0
C1248 C 0.66028 0.81949 0.35494 0.0
C1249 C 0.64773 0.79293 0.3763 0.0
C1250 C 0.66363 0.78571 0.35086 0.0
C1251 C 0.67904 0.79548 0.33352 0.0
C1252 C 0.67734 0.81226 0.33541 0.0
C1253 C 0.66255 0.76865 0.33386 0.0
C1254 C 0.67783 0.75797 0.34589 0.0
C1255 C 0.64698 0.76325 0.30259 0.0
C1256 C 0.6314 0.77434 0.2844 0.0
C1257 C 0.63624 0.78806 0.25555 0.0
C1258 C 0.62156 0.79871 0.23967 0.0
C1259 C 0.60195 0.79564 0.25184 0.0
C1260 C 0.59698 0.7819 0.27978 0.0
C1261 C 0.61163 0.77125 0.29594 0.0
H1262 H 0.5906 0.8039 0.23951 0.0
H1263 H 0.73816 0.70288 0.37482 0.0
H1264 H 0.62998 0.80102 0.61043 0.0
H1265 H 0.63157 0.77433 0.64929 0.0
H1266 H 0.69171 0.7828 0.69219 0.0
H1267 H 0.69028 0.80969 0.65385 0.0
H1268 H 0.67617 0.7471 0.65571 0.0
H1269 H 0.6698 0.79094 0.78517 0.0
H1270 H 0.65483 0.81735 0.80403 0.0
H1271 H 0.59743 0.79742 0.77932 0.0
H1272 H 0.61217 0.77083 0.76048 0.0
H1273 H 0.68413 0.68931 0.84361 0.0
H1274 H 0.68738 0.71647 0.8081 0.0
H1275 H 0.62436 0.72162 0.80857 0.0
H1276 H 0.62117 0.69458 0.8455 0.0
H1277 H 0.64205 0.75077 0.82206 0.0
H1278 H 0.6464 0.70632 0.70699 0.0
H1279 H 0.65893 0.68024 0.67558 0.0
H1280 H 0.71658 0.70057 0.66 0.0
H1281 H 0.70446 0.72672 0.69218 0.0
C1282 C 0.64377 0.79707 0.62666 0.0
C1283 C 0.65991 0.80761 0.62977 0.0
C1284 C 0.64464 0.78178 0.64876 0.0
C1285 C 0.6617 0.77671 0.67378 0.0
C1286 C 0.67844 0.78653 0.6728 0.0
C1287 C 0.67756 0.80191 0.65099 0.0
C1288 C 0.66088 0.76258 0.70788 0.0
C1289 C 0.66905 0.74789 0.69243 0.0
C1290 C 0.65102 0.7636 0.75491 0.0
C1291 C 0.64204 0.77897 0.77159 0.0
C1292 C 0.65398 0.79219 0.7842 0.0
C1293 C 0.64555 0.80721 0.79452 0.0
C1294 C 0.62519 0.80913 0.79228 0.0
C1295 C 0.61321 0.79594 0.78068 0.0
C1296 C 0.62158 0.78087 0.77054 0.0
C1297 C 0.67106 0.69657 0.83827 0.0
C1298 C 0.65242 0.68998 0.84731 0.0
C1299 C 0.6729 0.71199 0.81754 0.0
C1300 C 0.65609 0.72088 0.80445 0.0
C1301 C 0.63752 0.71494 0.81817 0.0
C1302 C 0.63569 0.69955 0.8395 0.0
C1303 C 0.65777 0.73514 0.77064 0.0
C1304 C 0.64951 0.7499 0.78582 0.0
C1305 C 0.66728 0.73405 0.7228 0.0
C1306 C 0.67456 0.71843 0.70248 0.0
C1307 C 0.66178 0.7052 0.69715 0.0
C1308 C 0.6688 0.69041 0.67919 0.0
C1309 C 0.68854 0.68874 0.66592 0.0
C1310 C 0.70129 0.70188 0.67038 0.0
C1311 C 0.69435 0.71669 0.68846 0.0
H1312 H 0.69395 0.67727 0.65207 0.0
H1313 H 0.61867 0.82077 0.80019 0.0
H1314 H 0.83045 0.31132 0.31846 0.0
H1315 H 0.82739 0.28338 0.28935 0.0
H1316 H 0.89053 0.27965 0.28084 0.0
H1317 H 0.89342 0.3079 0.30738 0.0
H1318 H 0.87636 0.26861 0.19875 0.0
H1319 H 0.8601 0.25935 0.37385 0.0
H1320 H 0.8421 0.26344 0.45385 0.0
H1321 H 0.78802 0.25093 0.38038 0.0
H1322 H 0.80563 0.24698 0.29957 0.0
H1323 H 0.88144 0.18391 0.15877 0.0
H1324 H 0.88366 0.21147 0.19059 0.0
H1325 H 0.82051 0.21542 0.18758 0.0
H1326 H 0.81817 0.18755 0.15744 0.0
H1327 H 0.83409 0.2263 0.2745 0.0
H1328 H 0.85146 0.23425 0.09967 0.0
H1329 H 0.87054 0.22794 0.02277 0.0
H1330 H 0.92363 0.24232 0.0979 0.0
H1331 H 0.90497 0.24822 0.17589 0.0
C1332 C 0.84364 0.30433 0.31179 0.0
C1333 C 0.86218 0.31159 0.31589 0.0
C1334 C 0.84192 0.28835 0.29505 0.0
C1335 C 0.85874 0.27924 0.28319 0.0
C1336 C 0.87732 0.28636 0.28956 0.0
C1337 C 0.87901 0.30243 0.3053 0.0
C1338 C 0.85701 0.26274 0.26082 0.0
C1339 C 0.86733 0.25931 0.21586 0.0
C1340 C 0.84478 0.25065 0.28198 0.0
C1341 C 0.83417 0.25302 0.33054 0.0
C1342 C 0.84435 0.25759 0.37464 0.0
C1343 C 0.83422 0.25986 0.42017 0.0
C1344 C 0.81394 0.25749 0.42224 0.0
C1345 C 0.80373 0.25279 0.37873 0.0
C1346 C 0.81378 0.25052 0.33305 0.0
C1347 C 0.86801 0.19071 0.16395 0.0
C1348 C 0.84961 0.18353 0.15539 0.0
C1349 C 0.86931 0.20652 0.18223 0.0
C1350 C 0.85226 0.21563 0.1912 0.0
C1351 C 0.83388 0.20864 0.18111 0.0
C1352 C 0.83256 0.19275 0.1635 0.0
C1353 C 0.85356 0.2322 0.2129 0.0
C1354 C 0.8431 0.23564 0.2575 0.0
C1355 C 0.86574 0.24427 0.19158 0.0
C1356 C 0.87682 0.24153 0.14384 0.0
C1357 C 0.86722 0.23599 0.09993 0.0
C1358 C 0.87797 0.23242 0.0562 0.0
C1359 C 0.89829 0.23466 0.05554 0.0
C1360 C 0.90789 0.24055 0.09853 0.0
C1361 C 0.89724 0.24398 0.14255 0.0
H1362 H 0.90659 0.2319 0.02162 0.0
H1363 H 0.80615 0.25925 0.45759 0.0
H1364 H 0.61406 0.31912 0.13588 0.0
H1365 H 0.61456 0.28986 0.15245 0.0
H1366 H 0.65552 0.29743 0.27499 0.0
H1367 H 0.65504 0.32644 0.25847 0.0
H1368 H 0.66422 0.27013 0.22096 0.0
H1369 H 0.60747 0.29526 0.29908 0.0
H1370 H 0.57685 0.31114 0.29812 0.0
H1371 H 0.55077 0.27698 0.19586 0.0
H1372 H 0.58137 0.26102 0.19567 0.0
H1373 H 0.65252 0.20414 0.38582 0.0
H1374 H 0.65291 0.23125 0.34938 0.0
H1375 H 0.60812 0.21727 0.24239 0.0
H1376 H 0.60731 0.19024 0.27937 0.0
H1377 H 0.60092 0.24661 0.27758 0.0
H1378 H 0.65666 0.21973 0.20697 0.0
H1379 H 0.68727 0.20386 0.20868 0.0
H1380 H 0.71541 0.24102 0.2958 0.0
H1381 H 0.68487 0.25701 0.29525 0.0
C1382 C 0.62347 0.31441 0.1655 0.0
C1383 C 0.63441 0.32493 0.19617 0.0
C1384 C 0.62368 0.29777 0.17514 0.0
C1385 C 0.63491 0.29151 0.21538 0.0
C1386 C 0.64675 0.30198 0.24383 0.0
C1387 C 0.64642 0.31853 0.23449 0.0
C1388 C 0.63329 0.27436 0.23101 0.0
C1389 C 0.65041 0.26497 0.23345 0.0
C1390 C 0.6152 0.26756 0.24642 0.0
C1391 C 0.59676 0.27706 0.24688 0.0
C1392 C 0.59525 0.29121 0.2761 0.0
C1393 C 0.5779 0.30021 0.27581 0.0
C1394 C 0.56189 0.2951 0.24683 0.0
C1395 C 0.56319 0.28094 0.21821 0.0
C1396 C 0.58053 0.27191 0.21829 0.0
C1397 C 0.64263 0.20686 0.35481 0.0
C1398 C 0.62996 0.19499 0.33535 0.0
C1399 C 0.64297 0.22233 0.33375 0.0
C1400 C 0.63084 0.2262 0.29241 0.0
C1401 C 0.6177 0.21454 0.27404 0.0
C1402 C 0.61727 0.19909 0.29527 0.0
C1403 C 0.63193 0.24239 0.26828 0.0
C1404 C 0.61471 0.25162 0.26434 0.0
C1405 C 0.64995 0.24903 0.25142 0.0
C1406 C 0.66842 0.23952 0.25138 0.0
C1407 C 0.66933 0.22447 0.22676 0.0
C1408 C 0.68668 0.21546 0.2275 0.0
C1409 C 0.70326 0.22141 0.25242 0.0
C1410 C 0.70255 0.23642 0.27654 0.0
C1411 C 0.68523 0.24547 0.27598 0.0
H1412 H 0.71667 0.21441 0.25297 0.0
H1413 H 0.54847 0.30209 0.24665 0.0
H1414 H 0.80924 0.81206 0.79925 0.0
H1415 H 0.81052 0.78412 0.76888 0.0
H1416 H 0.87264 0.78256 0.79987 0.0
H1417 H 0.87154 0.81039 0.82988 0.0
H1418 H 0.86415 0.77126 0.70502 0.0
H1419 H 0.84141 0.7635 0.87539 0.0
H1420 H 0.81954 0.76771 0.94849 0.0
H1421 H 0.77091 0.74902 0.86318 0.0
H1422 H 0.79247 0.74503 0.78897 0.0
H1423 H 0.88705 0.68794 0.714 0.0
H1424 H 0.88129 0.7167 0.7287 0.0
H1425 H 0.82065 0.71082 0.68542 0.0
H1426 H 0.82642 0.68192 0.6706 0.0
H1427 H 0.82526 0.72634 0.77832 0.0
H1428 H 0.85008 0.73106 0.61047 0.0
H1429 H 0.87326 0.72582 0.54075 0.0
H1430 H 0.91905 0.74984 0.62331 0.0
H1431 H 0.89629 0.75478 0.69438 0.0
C1432 C 0.82314 0.80571 0.80004 0.0
C1433 C 0.8403 0.81349 0.8168 0.0
C1434 C 0.82384 0.78974 0.78267 0.0
C1435 C 0.84171 0.78128 0.78186 0.0
C1436 C 0.85873 0.7889 0.79978 0.0
C1437 C 0.85803 0.80479 0.81734 0.0
C1438 C 0.84287 0.76456 0.76165 0.0
C1439 C 0.85575 0.76141 0.72125 0.0
C1440 C 0.83151 0.75181 0.78192 0.0
C1441 C 0.8185 0.75417 0.82641 0.0
C1442 C 0.82601 0.76044 0.87201 0.0
C1443 C 0.81368 0.76275 0.91372 0.0
C1444 C 0.79382 0.75865 0.91053 0.0
C1445 C 0.78628 0.75222 0.86558 0.0
C1446 C 0.79855 0.74994 0.82366 0.0
C1447 C 0.87261 0.69288 0.70655 0.0
C1448 C 0.8572 0.68276 0.69095 0.0
C1449 C 0.86932 0.70929 0.71497 0.0
C1450 C 0.85053 0.71591 0.70814 0.0
C1451 C 0.83525 0.70595 0.69088 0.0
C1452 C 0.8386 0.68951 0.68192 0.0
C1453 C 0.84678 0.73299 0.72222 0.0
C1454 C 0.83343 0.73622 0.76151 0.0
C1455 C 0.85782 0.7458 0.70113 0.0
C1456 C 0.87149 0.74318 0.65801 0.0
C1457 C 0.86513 0.73512 0.61399 0.0
C1458 C 0.8782 0.73221 0.57418 0.0
C1459 C 0.89762 0.73751 0.57756 0.0
C1460 C 0.904 0.74574 0.62076 0.0
C1461 C 0.89102 0.74859 0.66086 0.0
H1462 H 0.90773 0.73522 0.54673 0.0
H1463 H 0.7843 0.76043 0.94292 0.0
H1464 H 0.32629 0.32197 0.13294 0.0
H1465 H 0.32709 0.29272 0.14632 0.0
H1466 H 0.39002 0.29457 0.16244 0.0
H1467 H 0.38918 0.32392 0.14955 0.0
H1468 H 0.3735 0.26461 0.1139 0.0
H1469 H 0.36864 0.29829 0.26393 0.0
H1470 H 0.35446 0.32035 0.31497 0.0
H1471 H 0.29792 0.29755 0.30888 0.0
H1472 H 0.31175 0.27541 0.25737 0.0
H1473 H 0.38708 0.19788 0.2861 0.0
H1474 H 0.38826 0.22442 0.24491 0.0
H1475 H 0.32501 0.22613 0.24339 0.0
H1476 H 0.3237 0.1996 0.28379 0.0
H1477 H 0.34219 0.25406 0.28069 0.0
H1478 H 0.34752 0.21897 0.13786 0.0
H1479 H 0.36084 0.19742 0.08333 0.0
H1480 H 0.41567 0.22271 0.07251 0.0
H1481 H 0.40282 0.24427 0.12782 0.0
C1482 C 0.34035 0.31598 0.1368 0.0
C1483 C 0.3577 0.32504 0.13954 0.0
C1484 C 0.34079 0.29933 0.14481 0.0
C1485 C 0.3586 0.29155 0.15578 0.0
C1486 C 0.37617 0.30035 0.15372 0.0
C1487 C 0.37571 0.31707 0.14611 0.0
C1488 C 0.35843 0.27508 0.17758 0.0
C1489 C 0.3669 0.26226 0.15061 0.0
C1490 C 0.3495 0.27207 0.22508 0.0
C1491 C 0.34118 0.28529 0.25639 0.0
C1492 C 0.35315 0.29805 0.27315 0.0
C1493 C 0.34519 0.31054 0.30225 0.0
C1494 C 0.32529 0.31038 0.31501 0.0
C1495 C 0.31333 0.29768 0.29889 0.0
C1496 C 0.32122 0.28514 0.26982 0.0
C1497 C 0.37344 0.20395 0.27721 0.0
C1498 C 0.35529 0.19668 0.28838 0.0
C1499 C 0.37414 0.21904 0.25326 0.0
C1500 C 0.35672 0.22716 0.24065 0.0
C1501 C 0.33862 0.22003 0.25257 0.0
C1502 C 0.3379 0.20489 0.27577 0.0
C1503 C 0.35725 0.24341 0.2171 0.0
C1504 C 0.34886 0.25629 0.24397 0.0
C1505 C 0.36628 0.24638 0.16954 0.0
C1506 C 0.37429 0.23314 0.13772 0.0
C1507 C 0.36253 0.21982 0.12458 0.0
C1508 C 0.36997 0.20763 0.09333 0.0
C1509 C 0.38911 0.20866 0.07463 0.0
C1510 C 0.40086 0.22189 0.08716 0.0
C1511 C 0.39351 0.2341 0.11849 0.0
H1512 H 0.39481 0.19924 0.05029 0.0
H1513 H 0.31915 0.32008 0.3375 0.0
H1514 H 0.17615 0.81905 0.79965 0.0
H1515 H 0.17126 0.79066 0.77874 0.0
H1516 H 0.11521 0.79139 0.85458 0.0
H1517 H 0.11993 0.82 0.87544 0.0
H1518 H 0.13926 0.76225 0.87067 0.0
H1519 H 0.11379 0.79586 0.73592 0.0
H1520 H 0.11668 0.81819 0.67453 0.0
H1521 H 0.16496 0.79414 0.6021 0.0
H1522 H 0.16261 0.7718 0.66371 0.0
H1523 H 0.10064 0.6911 0.75985 0.0
H1524 H 0.10552 0.71863 0.79053 0.0
H1525 H 0.15412 0.72451 0.68724 0.0
H1526 H 0.14913 0.697 0.65597 0.0
H1527 H 0.13327 0.75069 0.68656 0.0
H1528 H 0.16153 0.71874 0.8189 0.0
H1529 H 0.16349 0.69758 0.88439 0.0
H1530 H 0.11402 0.71823 0.96159 0.0
H1531 H 0.1119 0.73966 0.89678 0.0
C1532 C 0.16294 0.81314 0.81278 0.0
C1533 C 0.14837 0.82185 0.83887 0.0
C1534 C 0.16014 0.79691 0.80061 0.0
C1535 C 0.14277 0.789 0.81452 0.0
C1536 C 0.1287 0.79732 0.84336 0.0
C1537 C 0.13142 0.81366 0.85519 0.0
C1538 C 0.13879 0.77244 0.79569 0.0
C1539 C 0.13762 0.75971 0.83052 0.0
C1540 C 0.13726 0.76914 0.74317 0.0
C1541 C 0.13814 0.78223 0.70476 0.0
C1542 C 0.12509 0.79537 0.70707 0.0
C1543 C 0.12663 0.80803 0.67224 0.0
C1544 C 0.14105 0.80761 0.6346 0.0
C1545 C 0.15383 0.79446 0.63138 0.0
C1546 C 0.15239 0.78179 0.66622 0.0
C1547 C 0.11241 0.69824 0.74375 0.0
C1548 C 0.12454 0.69181 0.70554 0.0
C1549 C 0.11524 0.71398 0.76149 0.0
C1550 C 0.13042 0.72362 0.74194 0.0
C1551 C 0.14231 0.71734 0.70306 0.0
C1552 C 0.1394 0.70162 0.68503 0.0
C1553 C 0.13374 0.7403 0.76154 0.0
C1554 C 0.13478 0.75313 0.72679 0.0
C1555 C 0.13545 0.74366 0.81413 0.0
C1556 C 0.1364 0.73066 0.85264 0.0
C1557 C 0.15096 0.71868 0.8496 0.0
C1558 C 0.15214 0.70667 0.88668 0.0
C1559 C 0.13877 0.70646 0.92686 0.0
C1560 C 0.1243 0.71836 0.93029 0.0
C1561 C 0.12316 0.73048 0.89353 0.0
H1562 H 0.13969 0.69711 0.95545 0.0
H1563 H 0.14233 0.81748 0.60793 0.0
H1564 H 0.39647 0.6917 0.79726 0.0
H1565 H 0.39525 0.72069 0.78153 0.0
H1566 H 0.3438 0.72455 0.87624 0.0
H1567 H 0.34467 0.69535 0.89094 0.0
H1568 H 0.33761 0.73856 0.78737 0.0
H1569 H 0.38754 0.74172 0.91237 0.0
H1570 H 0.41836 0.73472 0.95609 0.0
H1571 H 0.45137 0.74831 0.82413 0.0
H1572 H 0.42072 0.7552 0.77932 0.0
H1573 H 0.33746 0.82467 0.75736 0.0
H1574 H 0.33809 0.7973 0.792 0.0
H1575 H 0.38769 0.78578 0.69696 0.0
H1576 H 0.38728 0.81315 0.66241 0.0
H1577 H 0.39356 0.77676 0.79571 0.0
H1578 H 0.34246 0.77125 0.66943 0.0
H1579 H 0.3113 0.77862 0.62784 0.0
H1580 H 0.28012 0.76994 0.76672 0.0
H1581 H 0.31115 0.76269 0.80929 0.0
C1582 C 0.38511 0.69878 0.81548 0.0
C1583 C 0.37063 0.69125 0.84517 0.0
C1584 C 0.38449 0.71538 0.80672 0.0
C1585 C 0.36946 0.72484 0.82782 0.0
C1586 C 0.35553 0.71748 0.85958 0.0
C1587 C 0.35616 0.70083 0.86838 0.0
C1588 C 0.36739 0.74203 0.81276 0.0
C1589 C 0.34972 0.74701 0.79021 0.0
C1590 C 0.38329 0.75299 0.81557 0.0
C1591 C 0.40179 0.74887 0.84234 0.0
C1592 C 0.40135 0.7431 0.89251 0.0
C1593 C 0.4188 0.73917 0.91753 0.0
C1594 C 0.43681 0.74104 0.89287 0.0
C1595 C 0.43741 0.74687 0.84317 0.0
C1596 C 0.42 0.75081 0.81797 0.0
C1597 C 0.34837 0.81626 0.74338 0.0
C1598 C 0.36235 0.8211 0.70715 0.0
C1599 C 0.3487 0.80062 0.76323 0.0
C1600 C 0.36294 0.78951 0.74707 0.0
C1601 C 0.37663 0.7942 0.71011 0.0
C1602 C 0.37629 0.80982 0.69016 0.0
C1603 C 0.36395 0.77312 0.76953 0.0
C1604 C 0.38141 0.76833 0.79346 0.0
C1605 C 0.34782 0.76238 0.76836 0.0
C1606 C 0.32915 0.76659 0.74266 0.0
C1607 C 0.32898 0.77102 0.69118 0.0
C1608 C 0.31134 0.77515 0.66742 0.0
C1609 C 0.29375 0.77479 0.69466 0.0
C1610 C 0.29376 0.77024 0.74568 0.0
C1611 C 0.31136 0.7661 0.76963 0.0
H1612 H 0.28011 0.77801 0.6762 0.0
H1613 H 0.4503 0.73799 0.9123 0.0
H1614 H 0.15779 0.31782 0.36976 0.0
H1615 H 0.15609 0.28865 0.35368 0.0
H1616 H 0.09865 0.29465 0.28763 0.0
H1617 H 0.10046 0.32373 0.30314 0.0
H1618 H 0.13128 0.26142 0.3689 0.0
H1619 H 0.09944 0.27806 0.17581 0.0
H1620 H 0.09816 0.30122 0.11689 0.0
H1621 H 0.15435 0.31734 0.17039 0.0
H1622 H 0.15575 0.29451 0.23019 0.0
H1623 H 0.11475 0.18812 0.22724 0.0
H1624 H 0.10981 0.21462 0.2667 0.0
H1625 H 0.1604 0.23299 0.18714 0.0
H1626 H 0.16546 0.20663 0.14778 0.0
H1627 H 0.12991 0.25369 0.18219 0.0
H1628 H 0.1632 0.22245 0.30909 0.0
H1629 H 0.16824 0.19993 0.36876 0.0
H1630 H 0.11543 0.2128 0.44793 0.0
H1631 H 0.10981 0.23518 0.38799 0.0
C1632 C 0.14443 0.31274 0.35415 0.0
C1633 C 0.1292 0.32292 0.33794 0.0
C1634 C 0.14351 0.29612 0.34468 0.0
C1635 C 0.12738 0.28954 0.31868 0.0
C1636 C 0.11129 0.2995 0.30732 0.0
C1637 C 0.11225 0.31607 0.3166 0.0
C1638 C 0.12866 0.27312 0.29639 0.0
C1639 C 0.13077 0.25965 0.32815 0.0
C1640 C 0.12843 0.27087 0.24319 0.0
C1641 C 0.12761 0.28468 0.20761 0.0
C1642 C 0.11148 0.2866 0.17501 0.0
C1643 C 0.11069 0.29971 0.14167 0.0
C1644 C 0.12608 0.31085 0.14023 0.0
C1645 C 0.14231 0.30887 0.17203 0.0
C1646 C 0.14307 0.29588 0.20578 0.0
C1647 C 0.12473 0.19785 0.21782 0.0
C1648 C 0.14052 0.19526 0.18434 0.0
C1649 C 0.12196 0.21294 0.24072 0.0
C1650 C 0.13486 0.22574 0.23029 0.0
C1651 C 0.1503 0.22328 0.19587 0.0
C1652 C 0.15317 0.2082 0.17337 0.0
C1653 C 0.13232 0.24179 0.25459 0.0
C1654 C 0.13003 0.25529 0.22304 0.0
C1655 C 0.13272 0.24399 0.30796 0.0
C1656 C 0.13591 0.23035 0.34348 0.0
C1657 C 0.1525 0.22034 0.33874 0.0
C1658 C 0.15549 0.20762 0.37271 0.0
C1659 C 0.14211 0.20489 0.41196 0.0
C1660 C 0.12573 0.21488 0.41736 0.0
C1661 C 0.12262 0.22758 0.38336 0.0
H1662 H 0.14449 0.19506 0.43829 0.0
H1663 H 0.12549 0.32098 0.11431 0.0
H1664 H 0.09263 0.92691 0.00851 0.0
H1665 H 0.09082 0.95628 0.01538 0.0
H1666 H 0.15097 0.96004 0.9657 0.0
H1667 H 0.15295 0.93061 0.95905 0.0
H1668 H 0.14359 0.97841 0.05019 0.0
H1669 H 0.11307 0.96934 0.88669 0.0
H1670 H 0.08874 0.95675 0.82984 0.0
H1671 H 0.04187 0.9776 0.91683 0.0
H1672 H 0.06593 0.99011 0.97468 0.0
H1673 H 0.15174 0.06143 0.00248 0.0
H1674 H 0.15076 0.03211 0.99795 0.0
H1675 H 0.0884 0.03293 0.02652 0.0
H1676 H 0.08917 0.06251 0.02886 0.0
H1677 H 0.09519 0.01188 0.957 0.0
H1678 H 0.12343 0.02124 0.11926 0.0
H1679 H 0.14614 0.03298 0.18202 0.0
H1680 H 0.19501 0.01099 0.10587 0.0
H1681 H 0.17262 0.99928 0.04221 0.0
C1682 C 0.10546 0.93397 0.99874 0.0
C1683 C 0.12296 0.92639 0.98327 0.0
C1684 C 0.10437 0.95078 0.00256 0.0
C1685 C 0.12073 0.96039 0.99084 0.0
C1686 C 0.13817 0.95287 0.97498 0.0
C1687 C 0.13925 0.93604 0.97097 0.0
C1688 C 0.11988 0.97825 0.99631 0.0
C1689 C 0.13319 0.98577 0.02932 0.0
C1690 C 0.10575 0.98777 0.97073 0.0
C1691 C 0.0913 0.98054 0.93527 0.0
C1692 C 0.09758 0.97116 0.89386 0.0
C1693 C 0.08383 0.96405 0.86145 0.0
C1694 C 0.06377 0.96634 0.86979 0.0
C1695 C 0.05742 0.97583 0.91041 0.0
C1696 C 0.0711 0.98294 0.94301 0.0
C1697 C 0.13781 0.05541 0.00822 0.0
C1698 C 0.12055 0.06433 0.01638 0.0
C1699 C 0.13729 0.03857 0.00583 0.0
C1700 C 0.11957 0.03017 0.01287 0.0
C1701 C 0.10227 0.03907 0.0211 0.0
C1702 C 0.10274 0.05598 0.02265 0.0
C1703 C 0.11917 0.01218 0.01037 0.0
C1704 C 0.10559 0.00459 0.97807 0.0
C1705 C 0.13282 0.00253 0.03738 0.0
C1706 C 0.14635 0.00949 0.07571 0.0
C1707 C 0.13903 0.01899 0.11569 0.0
C1708 C 0.15185 0.02563 0.15146 0.0
C1709 C 0.17201 0.02276 0.14787 0.0
C1710 C 0.17939 0.01321 0.10857 0.0
C1711 C 0.16665 0.00656 0.07267 0.0
H1712 H 0.18191 0.02791 0.1756 0.0
H1713 H 0.05315 0.96079 0.84476 0.0
H1714 H 0.42351 0.93059 0.47902 0.0
H1715 H 0.42532 0.96012 0.47906 0.0
H1716 H 0.36212 0.96283 0.47953 0.0
H1717 H 0.36016 0.93334 0.47988 0.0
H1718 H 0.3798 0.98321 0.40777 0.0
H1719 H 0.38568 0.97015 0.58524 0.0
H1720 H 0.40016 0.95645 0.65933 0.0
H1721 H 0.4558 0.97871 0.62845 0.0
H1722 H 0.44171 0.99237 0.55368 0.0
H1723 H 0.36143 0.06388 0.47453 0.0
H1724 H 0.36354 0.03461 0.46939 0.0
H1725 H 0.42632 0.03712 0.48943 0.0
H1726 H 0.42425 0.06661 0.49558 0.0
H1727 H 0.41142 0.01394 0.5471 0.0
H1728 H 0.40559 0.02828 0.37275 0.0
H1729 H 0.39158 0.04195 0.29802 0.0
H1730 H 0.3369 0.01724 0.32072 0.0
H1731 H 0.35049 0.00358 0.39605 0.0
C1732 C 0.40999 0.93747 0.47919 0.0
C1733 C 0.39168 0.92962 0.47947 0.0
C1734 C 0.41106 0.95434 0.47935 0.0
C1735 C 0.39385 0.96366 0.47945 0.0
C1736 C 0.37557 0.95586 0.4794 0.0
C1737 C 0.37449 0.939 0.47981 0.0
C1738 C 0.39486 0.98156 0.47931 0.0
C1739 C 0.38653 0.98996 0.43844 0.0
C1740 C 0.40422 0.99031 0.51854 0.0
C1741 C 0.4127 0.98214 0.56353 0.0
C1742 C 0.40105 0.97201 0.59397 0.0
C1743 C 0.40917 0.96428 0.63615 0.0
C1744 C 0.4289 0.96667 0.6485 0.0
C1745 C 0.44053 0.97684 0.61878 0.0
C1746 C 0.43248 0.98459 0.57652 0.0
C1747 C 0.37575 0.05827 0.47746 0.0
C1748 C 0.39269 0.06761 0.48554 0.0
C1749 C 0.37693 0.04148 0.47432 0.0
C1750 C 0.39512 0.03362 0.47832 0.0
C1751 C 0.41212 0.0429 0.48616 0.0
C1752 C 0.41092 0.05976 0.48964 0.0
C1753 C 0.39613 0.01568 0.47576 0.0
C1754 C 0.40484 0.00724 0.51611 0.0
C1755 C 0.38724 0.00688 0.43581 0.0
C1756 C 0.37903 0.015 0.39031 0.0
C1757 C 0.39054 0.02584 0.36203 0.0
C1758 C 0.38268 0.03358 0.31952 0.0
C1759 C 0.36335 0.03049 0.30469 0.0
C1760 C 0.35186 0.01963 0.33227 0.0
C1761 C 0.35964 0.01187 0.37484 0.0
H1762 H 0.35729 0.0365 0.27177 0.0
H1763 H 0.43516 0.96068 0.68118 0.0
H1764 H 0.84607 0.94567 0.89625 0.0
H1765 H 0.84821 0.97485 0.90753 0.0
H1766 H 0.86248 0.96809 0.06549 0.0
H1767 H 0.85999 0.93881 0.05471 0.0
H1768 H 0.83648 0.99181 0.05514 0.0
H1769 H 0.89784 0.97832 0.97736 0.0
H1770 H 0.91966 0.96621 0.91315 0.0
H1771 H 0.89352 0.99574 0.79764 0.0
H1772 H 0.87135 0.00787 0.86108 0.0
H1773 H 0.87321 0.0708 0.10214 0.0
H1774 H 0.87059 0.04164 0.08993 0.0
H1775 H 0.84994 0.04921 0.93721 0.0
H1776 H 0.8524 0.07849 0.9492 0.0
H1777 H 0.87904 0.02531 0.9445 0.0
H1778 H 0.81791 0.03897 0.02376 0.0
H1779 H 0.79677 0.05129 0.08906 0.0
H1780 H 0.82336 0.0215 0.20321 0.0
H1781 H 0.84488 0.00916 0.13866 0.0
C1782 C 0.84971 0.95035 0.93342 0.0
C1783 C 0.85293 0.93987 0.97454 0.0
C1784 C 0.851 0.96708 0.93976 0.0
C1785 C 0.85577 0.97372 0.98722 0.0
C1786 C 0.85882 0.96328 0.02848 0.0
C1787 C 0.85745 0.94653 0.02221 0.0
C1788 C 0.85738 0.99153 0.99381 0.0
C1789 C 0.846 0.99908 0.03139 0.0
C1790 C 0.86947 1.00114 0.96213 0.0
C1791 C 0.8828 0.99389 0.9239 0.0
C1792 C 0.89664 0.98214 0.9382 0.0
C1793 C 0.90909 0.97529 0.90196 0.0
C1794 C 0.90794 0.98017 0.85133 0.0
C1795 C 0.89437 0.99195 0.83686 0.0
C1796 C 0.88187 0.99883 0.87295 0.0
C1797 C 0.86811 0.06629 0.0659 0.0
C1798 C 0.86298 0.07699 0.02666 0.0
C1799 C 0.86656 0.04961 0.05907 0.0
C1800 C 0.85994 0.04325 0.01279 0.0
C1801 C 0.85506 0.05387 0.97325 0.0
C1802 C 0.85641 0.07059 0.98024 0.0
C1803 C 0.85818 0.02551 0.00578 0.0
C1804 C 0.86952 0.01799 0.96817 0.0
C1805 C 0.84615 0.01593 0.03757 0.0
C1806 C 0.83315 0.02326 0.07644 0.0
C1807 C 0.81937 0.03514 0.06286 0.0
C1808 C 0.80729 0.04211 0.09972 0.0
C1809 C 0.80876 0.03721 0.15027 0.0
C1810 C 0.82226 0.0253 0.16404 0.0
C1811 C 0.83439 0.0183 0.12732 0.0
H1812 H 0.79939 0.04262 0.17876 0.0
H1813 H 0.91759 0.97485 0.82332 0.0
H1814 H 0.62605 0.93959 0.60771 0.0
H1815 H 0.61983 0.96862 0.60408 0.0
H1816 H 0.59745 0.96355 0.45191 0.0
H1817 H 0.60381 0.93455 0.45501 0.0
H1818 H 0.62525 0.9866 0.45767 0.0
H1819 H 0.56684 0.97319 0.54979 0.0
H1820 H 0.54768 0.96066 0.6187 0.0
H1821 H 0.57884 0.989 0.72864 0.0
H1822 H 0.59841 1.00152 0.66046 0.0
H1823 H 0.60101 0.06806 0.42528 0.0
H1824 H 0.59655 0.03897 0.43484 0.0
H1825 H 0.61678 0.04193 0.58959 0.0
H1826 H 0.62078 0.07117 0.58065 0.0
H1827 H 0.58825 0.01982 0.5817 0.0
H1828 H 0.64812 0.03159 0.49297 0.0
H1829 H 0.66856 0.04387 0.42612 0.0
H1830 H 0.63613 0.0182 0.31215 0.0
H1831 H 0.61531 0.00594 0.37833 0.0
C1832 C 0.61952 0.9446 0.57373 0.0
C1833 C 0.61554 0.93474 0.53153 0.0
C1834 C 0.61589 0.96121 0.5718 0.0
C1835 C 0.60813 0.96829 0.52775 0.0
C1836 C 0.60349 0.95838 0.48626 0.0
C1837 C 0.60707 0.94177 0.48818 0.0
C1838 C 0.60646 0.98613 0.52333 0.0
C1839 C 0.61683 0.99383 0.48423 0.0
C1840 C 0.59602 0.99562 0.55895 0.0
C1841 C 0.58421 0.98817 0.60002 0.0
C1842 C 0.56972 0.97664 0.58869 0.0
C1843 C 0.55877 0.96956 0.6276 0.0
C1844 C 0.56207 0.974 0.678 0.0
C1845 C 0.57631 0.98556 0.68958 0.0
C1846 C 0.58732 0.99266 0.65081 0.0
C1847 C 0.60425 0.06256 0.46159 0.0
C1848 C 0.6115 0.07189 0.50201 0.0
C1849 C 0.60175 0.04591 0.46697 0.0
C1850 C 0.60678 0.03818 0.51256 0.0
C1851 C 0.6129 0.0476 0.55396 0.0
C1852 C 0.61521 0.06432 0.54877 0.0
C1853 C 0.60696 0.02024 0.51585 0.0
C1854 C 0.59647 0.01256 0.55485 0.0
C1855 C 0.61745 0.0107 0.48041 0.0
C1856 C 0.63002 0.01799 0.44056 0.0
C1857 C 0.64526 0.02866 0.45363 0.0
C1858 C 0.65693 0.0356 0.41587 0.0
C1859 C 0.65361 0.03185 0.36491 0.0
C1860 C 0.63866 0.02112 0.35163 0.0
C1861 C 0.62693 0.01416 0.38925 0.0
H1862 H 0.66266 0.03724 0.33573 0.0
H1863 H 0.55357 0.96851 0.70807 0.0
H1864 H 0.59547 0.44367 0.93461 0.0
H1865 H 0.5908 0.47284 0.94116 0.0
H1866 H 0.6325 0.47466 0.06411 0.0
H1867 H 0.63702 0.44545 0.05838 0.0
H1868 H 0.60123 0.49329 0.08427 0.0
H1869 H 0.64537 0.48588 0.94377 0.0
H1870 H 0.65616 0.47472 0.86167 0.0
H1871 H 0.60619 0.49599 0.78833 0.0
H1872 H 0.59495 0.5071 0.87018 0.0
H1873 H 0.62789 0.57602 0.07973 0.0
H1874 H 0.62596 0.54664 0.07808 0.0
H1875 H 0.58405 0.54904 0.9557 0.0
H1876 H 0.58612 0.57854 0.95658 0.0
H1877 H 0.61289 0.52819 0.93441 0.0
H1878 H 0.57012 0.53732 0.07525 0.0
H1879 H 0.56007 0.54873 0.15763 0.0
H1880 H 0.60804 0.52449 0.2308 0.0
H1881 H 0.61855 0.51312 0.14871 0.0
C1882 C 0.60364 0.45026 0.96311 0.0
C1883 C 0.61671 0.44222 0.99579 0.0
C1884 C 0.60099 0.46696 0.96671 0.0
C1885 C 0.61147 0.47599 0.00275 0.0
C1886 C 0.62426 0.46796 0.036 0.0
C1887 C 0.62688 0.45125 0.03253 0.0
C1888 C 0.60935 0.49383 0.00535 0.0
C1889 C 0.60396 0.50094 0.05164 0.0
C1890 C 0.61244 0.50379 0.96247 0.0
C1891 C 0.61921 0.49717 0.91319 0.0
C1892 C 0.6366 0.48807 0.91021 0.0
C1893 C 0.64281 0.48177 0.86371 0.0
C1894 C 0.63184 0.4846 0.81984 0.0
C1895 C 0.61466 0.49378 0.82236 0.0
C1896 C 0.60837 0.50009 0.86878 0.0
C1897 C 0.61803 0.57034 0.05288 0.0
C1898 C 0.60721 0.57966 0.01814 0.0
C1899 C 0.61689 0.55351 0.05213 0.0
C1900 C 0.60477 0.54561 0.01695 0.0
C1901 C 0.5935 0.55488 0.98317 0.0
C1902 C 0.59464 0.57175 0.98388 0.0
C1903 C 0.60487 0.5277 0.01344 0.0
C1904 C 0.60995 0.52055 0.96696 0.0
C1905 C 0.60157 0.51772 0.05621 0.0
C1906 C 0.59521 0.52447 0.10572 0.0
C1907 C 0.57861 0.53452 0.10884 0.0
C1908 C 0.57282 0.54096 0.1555 0.0
C1909 C 0.58343 0.53736 0.1994 0.0
C1910 C 0.59984 0.52728 0.19675 0.0
C1911 C 0.60571 0.52081 0.15017 0.0
H1912 H 0.57892 0.54237 0.23549 0.0
H1913 H 0.63667 0.47972 0.78387 0.0
H1914 H 0.90228 0.43086 0.47804 0.0
H1915 H 0.90196 0.46035 0.48106 0.0
H1916 H 0.8396 0.45976 0.50885 0.0
H1917 H 0.83978 0.43018 0.50609 0.0
H1918 H 0.851 0.48248 0.43516 0.0
H1919 H 0.86932 0.4669 0.60467 0.0
H1920 H 0.88912 0.4524 0.66832 0.0
H1921 H 0.941 0.47679 0.6167 0.0
H1922 H 0.92155 0.49127 0.55221 0.0
H1923 H 0.84027 0.56451 0.5081 0.0
H1924 H 0.83986 0.53507 0.50278 0.0
H1925 H 0.9032 0.53441 0.50272 0.0
H1926 H 0.90366 0.56383 0.51001 0.0
H1927 H 0.89105 0.51198 0.56202 0.0
H1928 H 0.87419 0.52737 0.3927 0.0
H1929 H 0.85563 0.5415 0.3258 0.0
H1930 H 0.80281 0.51739 0.37211 0.0
H1931 H 0.821 0.50327 0.43976 0.0
C1932 C 0.88847 0.43697 0.48475 0.0
C1933 C 0.87105 0.42814 0.49194 0.0
C1934 C 0.88833 0.45385 0.4866 0.0
C1935 C 0.87078 0.46226 0.49551 0.0
C1936 C 0.85331 0.45351 0.50195 0.0
C1937 C 0.85346 0.43661 0.50055 0.0
C1938 C 0.87073 0.48019 0.49845 0.0
C1939 C 0.85954 0.48896 0.4633 0.0
C1940 C 0.88232 0.48863 0.53423 0.0
C1941 C 0.894 0.48006 0.57331 0.0
C1942 C 0.88497 0.46908 0.60664 0.0
C1943 C 0.89613 0.46088 0.64291 0.0
C1944 C 0.91631 0.46364 0.64647 0.0
C1945 C 0.92537 0.47465 0.61386 0.0
C1946 C 0.91428 0.48287 0.57747 0.0
C1947 C 0.85412 0.5581 0.50668 0.0
C1948 C 0.872 0.56653 0.50942 0.0
C1949 C 0.85387 0.54124 0.50338 0.0
C1950 C 0.87151 0.53243 0.50158 0.0
C1951 C 0.88938 0.54086 0.50406 0.0
C1952 C 0.88963 0.55771 0.5081 0.0
C1953 C 0.87135 0.51443 0.49851 0.0
C1954 C 0.8825 0.50559 0.53373 0.0
C1955 C 0.8599 0.50594 0.46233 0.0
C1956 C 0.84893 0.51438 0.42162 0.0
C1957 C 0.85858 0.52517 0.38886 0.0
C1958 C 0.84814 0.53316 0.35077 0.0
C1959 C 0.82804 0.53037 0.34479 0.0
C1960 C 0.81837 0.51955 0.37683 0.0
C1961 C 0.82874 0.51154 0.41502 0.0
H1962 H 0.81998 0.53657 0.31528 0.0
H1963 H 0.92493 0.45728 0.67457 0.0
H1964 H 0.34966 0.57476 0.03432 0.0
H1965 H 0.35222 0.54536 0.03174 0.0
H1966 H 0.4151 0.54908 0.01561 0.0
H1967 H 0.41254 0.5785 0.01657 0.0
H1968 H 0.40252 0.52734 0.95321 0.0
H1969 H 0.39276 0.53695 0.12893 0.0
H1970 H 0.37714 0.54821 0.20548 0.0
H1971 H 0.32378 0.52299 0.17047 0.0
H1972 H 0.339 0.51175 0.09325 0.0
H1973 H 0.41521 0.44209 0.00712 0.0
H1974 H 0.41673 0.47165 0.0137 0.0
H1975 H 0.35393 0.47427 0.99538 0.0
H1976 H 0.35233 0.44493 0.98788 0.0
H1977 H 0.36923 0.49243 0.07953 0.0
H1978 H 0.38036 0.48424 0.89957 0.0
H1979 H 0.39784 0.47255 0.82637 0.0
H1980 H 0.45148 0.49475 0.87579 0.0
H1981 H 0.43434 0.50641 0.9497 0.0
C1982 C 0.36404 0.56932 0.03056 0.0
C1983 C 0.38088 0.57898 0.02566 0.0
C1984 C 0.36552 0.55248 0.02929 0.0
C1985 C 0.3839 0.54491 0.02411 0.0
C1986 C 0.40075 0.55457 0.01958 0.0
C1987 C 0.39926 0.57141 0.02029 0.0
C1988 C 0.38543 0.52696 0.0221 0.0
C1989 C 0.3955 0.51975 0.9814 0.0
C1990 C 0.37621 0.51693 0.05856 0.0
C1991 C 0.36698 0.52362 0.10503 0.0
C1992 C 0.37765 0.5339 0.13733 0.0
C1993 C 0.36887 0.54026 0.18088 0.0
C1994 C 0.34946 0.53635 0.19277 0.0
C1995 C 0.33881 0.52603 0.16118 0.0
C1996 C 0.34751 0.51964 0.11754 0.0
C1997 C 0.40178 0.449 0.0041 0.0
C1998 C 0.38368 0.44116 0.99684 0.0
C1999 C 0.40266 0.46586 0.0079 0.0
C2000 C 0.38542 0.47513 0.00516 0.0
C2001 C 0.36739 0.46734 0.99777 0.0
C2002 C 0.36653 0.45056 0.99319 0.0
C2003 C 0.38599 0.49297 0.0104 0.0
C2004 C 0.37634 0.50011 0.05173 0.0
C2005 C 0.39588 0.50291 0.9751 0.0
C2006 C 0.40612 0.49605 0.93043 0.0
C2007 C 0.39592 0.48652 0.89504 0.0
C2008 C 0.40575 0.47992 0.85338 0.0
C2009 C 0.42577 0.48286 0.84652 0.0
C2010 C 0.43598 0.49246 0.88121 0.0
C2011 C 0.42621 0.49908 0.92296 0.0
H2012 H 0.43336 0.47774 0.81425 0.0
H2013 H 0.34269 0.54129 0.22651 0.0
H2014 H 0.13348 0.44353 0.61599 0.0
H2015 H 0.12869 0.47278 0.61099 0.0
H2016 H 0.10497 0.46761 0.46024 0.0
H2017 H 0.10973 0.43843 0.46483 0.0
H2018 H 0.13326 0.49069 0.46442 0.0
H2019 H 0.07535 0.47671 0.55877 0.0
H2020 H 0.05679 0.46435 0.62901 0.0
H2021 H 0.08773 0.49393 0.73617 0.0
H2022 H 0.10669 0.50631 0.66657 0.0
H2023 H 0.09911 0.56909 0.42054 0.0
H2024 H 0.09949 0.54008 0.43601 0.0
H2025 H 0.12165 0.54825 0.58705 0.0
H2026 H 0.12101 0.57747 0.5721 0.0
H2027 H 0.09485 0.52383 0.58584 0.0
H2028 H 0.15273 0.5378 0.49306 0.0
H2029 H 0.17161 0.55036 0.42371 0.0
H2030 H 0.14162 0.5207 0.31499 0.0
H2031 H 0.12234 0.50812 0.38365 0.0
C2032 C 0.12703 0.44859 0.58199 0.0
C2033 C 0.12204 0.43861 0.54077 0.0
C2034 C 0.12426 0.46532 0.57925 0.0
C2035 C 0.11643 0.4724 0.53526 0.0
C2036 C 0.11107 0.46243 0.49452 0.0
C2037 C 0.11374 0.44572 0.49731 0.0
C2038 C 0.1147 0.49024 0.53053 0.0
C2039 C 0.12463 0.4979 0.49059 0.0
C2040 C 0.10398 0.49972 0.56561 0.0
C2041 C 0.09259 0.49231 0.6075 0.0
C2042 C 0.07832 0.48047 0.59735 0.0
C2043 C 0.0677 0.47349 0.63704 0.0
C2044 C 0.07112 0.47832 0.68704 0.0
C2045 C 0.08512 0.49018 0.69743 0.0
C2046 C 0.0958 0.4972 0.65787 0.0
C2047 C 0.10392 0.56477 0.45726 0.0
C2048 C 0.11026 0.5756 0.49489 0.0
C2049 C 0.10418 0.54814 0.466 0.0
C2050 C 0.11098 0.54195 0.51233 0.0
C2051 C 0.11645 0.55275 0.55091 0.0
C2052 C 0.1161 0.56945 0.54226 0.0
C2053 C 0.11319 0.52422 0.51931 0.0
C2054 C 0.10346 0.5166 0.55972 0.0
C2055 C 0.12422 0.51473 0.48484 0.0
C2056 C 0.13596 0.52213 0.44348 0.0
C2057 C 0.15007 0.53403 0.45433 0.0
C2058 C 0.16085 0.54114 0.41515 0.0
C2059 C 0.15778 0.53636 0.36496 0.0
C2060 C 0.14397 0.52441 0.35388 0.0
C2061 C 0.13312 0.51727 0.39292 0.0
H2062 H 0.16614 0.54189 0.33468 0.0
H2063 H 0.06288 0.4729 0.71771 0.0
H2064 H 0.18609 0.15085 0.1464 0.0
H2065 H 0.21506 0.14993 0.20123 0.0
H2066 H 0.22434 0.10011 0.16049 0.0
H2067 H 0.19526 0.10095 0.10585 0.0
H2068 H 0.23006 0.1062 0.26416 0.0
H2069 H 0.25086 0.12763 0.10314 0.0
H2070 H 0.24949 0.14628 0.03035 0.0
H2071 H 0.25926 0.18652 0.12983 0.0
H2072 H 0.26042 0.16812 0.20334 0.0
H2073 H 0.32612 0.10206 0.3672 0.0
H2074 H 0.29917 0.10038 0.30565 0.0
H2075 H 0.29065 0.1519 0.31727 0.0
H2076 H 0.31821 0.1536 0.37651 0.0
H2077 H 0.28497 0.14348 0.22476 0.0
H2078 H 0.26588 0.12193 0.38609 0.0
H2079 H 0.2662 0.10354 0.45937 0.0
H2080 H 0.25242 0.06361 0.36192 0.0
H2081 H 0.2523 0.08174 0.2878 0.0
C2082 C 0.19408 0.13963 0.14988 0.0
C2083 C 0.18834 0.12597 0.12208 0.0
C2084 C 0.21072 0.13915 0.18087 0.0
C2085 C 0.22197 0.12499 0.1845 0.0
C2086 C 0.21589 0.11115 0.15818 0.0
C2087 C 0.19931 0.11167 0.12691 0.0
C2088 C 0.24049 0.12482 0.21418 0.0
C2089 C 0.24222 0.11417 0.25527 0.0
C2090 C 0.25615 0.13544 0.20295 0.0
C2091 C 0.25554 0.14651 0.15878 0.0
C2092 C 0.25256 0.14047 0.10954 0.0
C2093 C 0.25185 0.15099 0.06814 0.0
C2094 C 0.25423 0.16758 0.07547 0.0
C2095 C 0.25739 0.17367 0.12422 0.0
C2096 C 0.25809 0.1632 0.16575 0.0
C2097 C 0.31858 0.11299 0.35594 0.0
C2098 C 0.32413 0.12796 0.37624 0.0
C2099 C 0.30318 0.11204 0.32097 0.0
C2100 C 0.29256 0.12597 0.30753 0.0
C2101 C 0.29856 0.14098 0.32693 0.0
C2102 C 0.31426 0.14196 0.36081 0.0
C2103 C 0.2746 0.12496 0.27551 0.0
C2104 C 0.27293 0.13541 0.23379 0.0
C2105 C 0.25897 0.11417 0.28648 0.0
C2106 C 0.25923 0.10323 0.33117 0.0
C2107 C 0.26308 0.10922 0.38012 0.0
C2108 C 0.26321 0.09883 0.42187 0.0
C2109 C 0.25937 0.08241 0.41531 0.0
C2110 C 0.2554 0.07634 0.36696 0.0
C2111 C 0.25529 0.08668 0.32505 0.0
H2112 H 0.25944 0.07439 0.4477 0.0
H2113 H 0.25368 0.17571 0.04338 0.0
H2114 H 0.31673 0.85626 0.57744 0.0
H2115 H 0.28908 0.85517 0.63706 0.0
H2116 H 0.31687 0.89162 0.72938 0.0
H2117 H 0.34353 0.89359 0.66773 0.0
H2118 H 0.28277 0.8487 0.73426 0.0
H2119 H 0.28322 0.91726 0.77434 0.0
H2120 H 0.29389 0.94256 0.73337 0.0
H2121 H 0.28764 0.92061 0.58673 0.0
H2122 H 0.27671 0.89526 0.6268 0.0
H2123 H 0.20804 0.86543 0.91916 0.0
H2124 H 0.23955 0.86364 0.87442 0.0
H2125 H 0.2146 0.88927 0.74737 0.0
H2126 H 0.18356 0.89152 0.79207 0.0
H2127 H 0.24867 0.90072 0.76463 0.0
H2128 H 0.22263 0.84694 0.74567 0.0
H2129 H 0.20969 0.82057 0.77325 0.0
H2130 H 0.26204 0.81202 0.85978 0.0
H2131 H 0.27538 0.8383 0.8323 0.0
C2132 C 0.31699 0.86384 0.61091 0.0
C2133 C 0.33255 0.87462 0.61913 0.0
C2134 C 0.30128 0.86316 0.64507 0.0
C2135 C 0.30084 0.87337 0.68764 0.0
C2136 C 0.31681 0.88367 0.69676 0.0
C2137 C 0.33231 0.88452 0.66224 0.0
C2138 C 0.28296 0.87427 0.71979 0.0
C2139 C 0.27537 0.86008 0.7412 0.0
C2140 C 0.27307 0.88907 0.72813 0.0
C2141 C 0.27937 0.90433 0.70362 0.0
C2142 C 0.28407 0.91786 0.73335 0.0
C2143 C 0.29017 0.9322 0.71029 0.0
C2144 C 0.29151 0.93317 0.65749 0.0
C2145 C 0.28667 0.91982 0.62762 0.0
C2146 C 0.28054 0.90547 0.65049 0.0
C2147 C 0.20936 0.87077 0.88183 0.0
C2148 C 0.19331 0.87869 0.85936 0.0
C2149 C 0.22732 0.86962 0.85612 0.0
C2150 C 0.22944 0.87619 0.80725 0.0
C2151 C 0.21342 0.88417 0.78508 0.0
C2152 C 0.19562 0.88545 0.81081 0.0
C2153 C 0.24828 0.87511 0.77892 0.0
C2154 C 0.25615 0.88933 0.75834 0.0
C2155 C 0.25801 0.86026 0.77003 0.0
C2156 C 0.24987 0.84465 0.78751 0.0
C2157 C 0.23129 0.8395 0.77097 0.0
C2158 C 0.2239 0.82456 0.7865 0.0
C2159 C 0.23494 0.81469 0.81864 0.0
C2160 C 0.25346 0.8197 0.83506 0.0
C2161 C 0.26098 0.83459 0.81939 0.0
H2162 H 0.22918 0.80313 0.83062 0.0
H2163 H 0.29625 0.94428 0.63972 0.0
H2164 H 0.66268 0.87469 0.67453 0.0
H2165 H 0.6918 0.87088 0.7262 0.0
H2166 H 0.72793 0.87835 0.59347 0.0
H2167 H 0.69845 0.87877 0.54067 0.0
H2168 H 0.74721 0.86064 0.6458 0.0
H2169 H 0.71508 0.90939 0.69221 0.0
H2170 H 0.68784 0.92706 0.71908 0.0
H2171 H 0.68283 0.90078 0.85884 0.0
H2172 H 0.70992 0.88286 0.83259 0.0
H2173 H 0.82553 0.8929 0.80674 0.0
H2174 H 0.79892 0.88947 0.74476 0.0
H2175 H 0.76694 0.86057 0.85277 0.0
H2176 H 0.79394 0.86341 0.91382 0.0
H2177 H 0.74733 0.88913 0.81116 0.0
H2178 H 0.78586 0.84248 0.75552 0.0
H2179 H 0.81543 0.82936 0.72042 0.0
H2180 H 0.81182 0.85897 0.58745 0.0
H2181 H 0.78252 0.87255 0.62193 0.0
C2182 C 0.67677 0.87428 0.65609 0.0
C2183 C 0.67817 0.87603 0.60343 0.0
C2184 C 0.69358 0.87291 0.68592 0.0
C2185 C 0.71232 0.87485 0.66439 0.0
C2186 C 0.71377 0.87675 0.61145 0.0
C2187 C 0.69687 0.87713 0.58121 0.0
C2188 C 0.73021 0.87537 0.69717 0.0
C2189 C 0.74722 0.86709 0.68157 0.0
C2190 C 0.73056 0.88384 0.744 0.0
C2191 C 0.71442 0.89471 0.76025 0.0
C2192 C 0.70812 0.90735 0.72859 0.0
C2193 C 0.69271 0.91741 0.74372 0.0
C2194 C 0.68359 0.91502 0.79059 0.0
C2195 C 0.6899 0.90261 0.82253 0.0
C2196 C 0.7053 0.89252 0.8076 0.0
C2197 C 0.81318 0.88523 0.81618 0.0
C2198 C 0.81205 0.87783 0.86393 0.0
C2199 C 0.79795 0.88342 0.78109 0.0
C2200 C 0.78114 0.87455 0.79398 0.0
C2201 C 0.77994 0.86726 0.84193 0.0
C2202 C 0.79529 0.86889 0.87668 0.0
C2203 C 0.76394 0.87431 0.75981 0.0
C2204 C 0.74714 0.88273 0.77524 0.0
C2205 C 0.76424 0.86676 0.71174 0.0
C2206 C 0.78207 0.85867 0.69163 0.0
C2207 C 0.79151 0.84637 0.71913 0.0
C2208 C 0.80822 0.83884 0.69934 0.0
C2209 C 0.81559 0.84343 0.65207 0.0
C2210 C 0.80618 0.8555 0.62424 0.0
C2211 C 0.78953 0.86312 0.64388 0.0
H2212 H 0.82853 0.83759 0.6369 0.0
H2213 H 0.67165 0.92281 0.8022 0.0
H2214 H 0.67702 0.10073 0.38483 0.0
H2215 H 0.70331 0.09939 0.32102 0.0
H2216 H 0.69721 0.15044 0.2936 0.0
H2217 H 0.67079 0.15175 0.35649 0.0
H2218 H 0.70568 0.11093 0.21114 0.0
H2219 H 0.7464 0.16362 0.30273 0.0
H2220 H 0.74854 0.17774 0.38498 0.0
H2221 H 0.73406 0.13381 0.46282 0.0
H2222 H 0.7322 0.1194 0.38115 0.0
H2223 H 0.79171 0.13648 0.06721 0.0
H2224 H 0.76038 0.13623 0.11356 0.0
H2225 H 0.78764 0.10968 0.23527 0.0
H2226 H 0.81865 0.1097 0.18958 0.0
H2227 H 0.76745 0.13721 0.26738 0.0
H2228 H 0.75753 0.09028 0.16002 0.0
H2229 H 0.75552 0.07642 0.07738 0.0
H2230 H 0.70921 0.10836 0.03118 0.0
H2231 H 0.71093 0.12239 0.11356 0.0
C2232 C 0.68106 0.11156 0.36432 0.0
C2233 C 0.67182 0.12631 0.37497 0.0
C2234 C 0.69594 0.11077 0.32782 0.0
C2235 C 0.70209 0.12481 0.30265 0.0
C2236 C 0.69255 0.13947 0.31246 0.0
C2237 C 0.6775 0.14021 0.34832 0.0
C2238 C 0.71983 0.12452 0.2704 0.0
C2239 C 0.71918 0.1167 0.22323 0.0
C2240 C 0.73738 0.13208 0.28633 0.0
C2241 C 0.73888 0.14051 0.33579 0.0
C2242 C 0.74373 0.15698 0.33743 0.0
C2243 C 0.74489 0.16503 0.38394 0.0
C2244 C 0.7413 0.1567 0.42908 0.0
C2245 C 0.73668 0.14028 0.42782 0.0
C2246 C 0.73555 0.13217 0.38142 0.0
C2247 C 0.79094 0.13047 0.10361 0.0
C2248 C 0.80769 0.12315 0.12468 0.0
C2249 C 0.77306 0.13031 0.12995 0.0
C2250 C 0.77175 0.12294 0.17781 0.0
C2251 C 0.78836 0.11545 0.19843 0.0
C2252 C 0.80608 0.11545 0.17207 0.0
C2253 C 0.75343 0.12356 0.20799 0.0
C2254 C 0.75394 0.13152 0.25492 0.0
C2255 C 0.73582 0.11613 0.19174 0.0
C2256 C 0.73452 0.10749 0.14267 0.0
C2257 C 0.74698 0.09439 0.13211 0.0
C2258 C 0.74585 0.08647 0.08539 0.0
C2259 C 0.73227 0.09152 0.049 0.0
C2260 C 0.7197 0.10444 0.0594 0.0
C2261 C 0.72071 0.11235 0.10615 0.0
H2262 H 0.73143 0.0854 0.0128 0.0
H2263 H 0.74222 0.16295 0.46504 0.0
H2264 H 0.8333 0.61402 0.33212 0.0
H2265 H 0.80876 0.61791 0.26562 0.0
H2266 H 0.7787 0.65253 0.36035 0.0
H2267 H 0.80426 0.64944 0.42522 0.0
H2268 H 0.7738 0.61001 0.26843 0.0
H2269 H 0.74986 0.67763 0.29199 0.0
H2270 H 0.76494 0.7045 0.30204 0.0
H2271 H 0.81938 0.68641 0.24292 0.0
H2272 H 0.80465 0.65947 0.23224 0.0
H2273 H 0.67765 0.61624 0.18999 0.0
H2274 H 0.70815 0.61878 0.23745 0.0
H2275 H 0.73073 0.65114 0.1231 0.0
H2276 H 0.69912 0.64978 0.07812 0.0
H2277 H 0.74288 0.66099 0.2108 0.0
H2278 H 0.74413 0.61052 0.12731 0.0
H2279 H 0.73193 0.58399 0.09909 0.0
H2280 H 0.72927 0.56787 0.25369 0.0
H2281 H 0.74121 0.59439 0.28292 0.0
C2282 C 0.82201 0.62308 0.33739 0.0
C2283 C 0.82112 0.63202 0.38236 0.0
C2284 C 0.80777 0.62508 0.29988 0.0
C2285 C 0.79195 0.6357 0.30744 0.0
C2286 C 0.79101 0.64461 0.35281 0.0
C2287 C 0.80548 0.64275 0.39005 0.0
C2288 C 0.77537 0.636 0.27072 0.0
C2289 C 0.76719 0.6212 0.25563 0.0
C2290 C 0.76692 0.65053 0.2527 0.0
C2291 C 0.77617 0.66648 0.26172 0.0
C2292 C 0.76507 0.67936 0.28131 0.0
C2293 C 0.77355 0.69461 0.28712 0.0
C2294 C 0.79309 0.69715 0.27322 0.0
C2295 C 0.80426 0.68441 0.25388 0.0
C2296 C 0.79588 0.66913 0.24816 0.0
C2297 C 0.68878 0.62449 0.17639 0.0
C2298 C 0.68577 0.63338 0.13193 0.0
C2299 C 0.70644 0.62559 0.20267 0.0
C2300 C 0.72191 0.63497 0.18352 0.0
C2301 C 0.719 0.64386 0.1387 0.0
C2302 C 0.70103 0.64302 0.11293 0.0
C2303 C 0.74115 0.63505 0.21004 0.0
C2304 C 0.74972 0.64986 0.22332 0.0
C2305 C 0.75052 0.62052 0.22464 0.0
C2306 C 0.74346 0.60449 0.2073 0.0
C2307 C 0.74084 0.60135 0.15531 0.0
C2308 C 0.73398 0.58631 0.13914 0.0
C2309 C 0.7298 0.57426 0.17458 0.0
C2310 C 0.73252 0.57721 0.22628 0.0
C2311 C 0.73936 0.59224 0.24267 0.0
H2312 H 0.72448 0.56262 0.16198 0.0
H2313 H 0.79954 0.709 0.27729 0.0
H2314 H 0.81923 0.3972 0.67973 0.0
H2315 H 0.78993 0.39555 0.73217 0.0
H2316 H 0.76449 0.36135 0.62792 0.0
H2317 H 0.79411 0.36279 0.57486 0.0
H2318 H 0.73927 0.38749 0.65899 0.0
H2319 H 0.78171 0.3474 0.73603 0.0
H2320 H 0.8133 0.33849 0.77238 0.0
H2321 H 0.8092 0.37494 0.88732 0.0
H2322 H 0.77771 0.38421 0.85164 0.0
H2323 H 0.66134 0.36777 0.83554 0.0
H2324 H 0.68822 0.366 0.774 0.0
H2325 H 0.72302 0.39778 0.86708 0.0
H2326 H 0.69591 0.40024 0.927 0.0
H2327 H 0.74293 0.3701 0.83874 0.0
H2328 H 0.7066 0.41254 0.76756 0.0
H2329 H 0.68074 0.42908 0.72822 0.0
H2330 H 0.67725 0.39582 0.60365 0.0
H2331 H 0.70264 0.37877 0.64311 0.0
C2332 C 0.80748 0.38927 0.66776 0.0
C2333 C 0.80908 0.38002 0.62319 0.0
C2334 C 0.79075 0.38832 0.69799 0.0
C2335 C 0.77522 0.37814 0.68433 0.0
C2336 C 0.77645 0.36918 0.63923 0.0
C2337 C 0.79333 0.37004 0.60897 0.0
C2338 C 0.75757 0.37727 0.717 0.0
C2339 C 0.73981 0.38322 0.69787 0.0
C2340 C 0.75876 0.37251 0.76843 0.0
C2341 C 0.77738 0.36655 0.79095 0.0
C2342 C 0.78757 0.35356 0.76895 0.0
C2343 C 0.80547 0.34846 0.78936 0.0
C2344 C 0.81331 0.35622 0.83175 0.0
C2345 C 0.80316 0.36898 0.85431 0.0
C2346 C 0.78525 0.37414 0.83413 0.0
C2347 C 0.67442 0.37474 0.84208 0.0
C2348 C 0.6762 0.38444 0.88551 0.0
C2349 C 0.68988 0.3736 0.80716 0.0
C2350 C 0.70757 0.38184 0.81588 0.0
C2351 C 0.70949 0.39133 0.85959 0.0
C2352 C 0.69395 0.3927 0.89381 0.0
C2353 C 0.72441 0.38021 0.7806 0.0
C2354 C 0.74209 0.37388 0.7994 0.0
C2355 C 0.72334 0.38517 0.72932 0.0
C2356 C 0.7063 0.3942 0.70882 0.0
C2357 C 0.69993 0.40848 0.73254 0.0
C2358 C 0.68546 0.41803 0.71 0.0
C2359 C 0.67742 0.41355 0.66337 0.0
C2360 C 0.68349 0.3993 0.63977 0.0
C2361 C 0.69784 0.38963 0.66235 0.0
H2362 H 0.66645 0.42112 0.64563 0.0
H2363 H 0.82724 0.35232 0.84704 0.0
H2364 H 0.17634 0.40369 0.62569 0.0
H2365 H 0.20426 0.40577 0.68412 0.0
H2366 H 0.21686 0.3552 0.66084 0.0
H2367 H 0.1881 0.35292 0.60627 0.0
H2368 H 0.22418 0.36082 0.75063 0.0
H2369 H 0.23885 0.39021 0.59766 0.0
H2370 H 0.23601 0.41124 0.53232 0.0
H2371 H 0.24505 0.44792 0.64489 0.0
H2372 H 0.24787 0.42708 0.7112 0.0
H2373 H 0.3189 0.35653 0.83949 0.0
H2374 H 0.29341 0.35855 0.7751 0.0
H2375 H 0.28094 0.40722 0.82351 0.0
H2376 H 0.30834 0.40587 0.88351 0.0
H2377 H 0.27353 0.404 0.72381 0.0
H2378 H 0.25754 0.37393 0.87567 0.0
H2379 H 0.26464 0.35252 0.93801 0.0
H2380 H 0.26023 0.31667 0.82095 0.0
H2381 H 0.2534 0.3379 0.75773 0.0
C2382 C 0.18499 0.39302 0.63381 0.0
C2383 C 0.18018 0.37815 0.61158 0.0
C2384 C 0.20104 0.39422 0.66679 0.0
C2385 C 0.21313 0.38075 0.67602 0.0
C2386 C 0.20791 0.36582 0.65456 0.0
C2387 C 0.19147 0.3645 0.62322 0.0
C2388 C 0.23143 0.38205 0.70695 0.0
C2389 C 0.23499 0.3702 0.74403 0.0
C2390 C 0.24553 0.39448 0.69964 0.0
C2391 C 0.2435 0.40702 0.65964 0.0
C2392 C 0.24021 0.40273 0.60868 0.0
C2393 C 0.23859 0.41464 0.57138 0.0
C2394 C 0.24032 0.43091 0.58444 0.0
C2395 C 0.2437 0.43531 0.63483 0.0
C2396 C 0.24533 0.42344 0.67229 0.0
C2397 C 0.31152 0.36793 0.83442 0.0
C2398 C 0.31603 0.38111 0.8656 0.0
C2399 C 0.29662 0.369 0.79833 0.0
C2400 C 0.28487 0.3829 0.7953 0.0
C2401 C 0.28974 0.39635 0.82517 0.0
C2402 C 0.30528 0.39549 0.85984 0.0
C2403 C 0.26624 0.38264 0.76591 0.0
C2404 C 0.26258 0.3947 0.72984 0.0
C2405 C 0.25212 0.37034 0.77346 0.0
C2406 C 0.25499 0.3575 0.81198 0.0
C2407 C 0.25811 0.36148 0.86324 0.0
C2408 C 0.26215 0.34939 0.89869 0.0
C2409 C 0.26294 0.33325 0.88342 0.0
C2410 C 0.25962 0.32917 0.8327 0.0
C2411 C 0.25563 0.34123 0.79705 0.0
H2412 H 0.26605 0.3239 0.91092 0.0
H2413 H 0.23906 0.44011 0.5555 0.0
H2414 H 0.30001 0.64878 0.09904 0.0
H2415 H 0.26892 0.65122 0.1453 0.0
H2416 H 0.28007 0.60574 0.21936 0.0
H2417 H 0.31121 0.6033 0.17392 0.0
H2418 H 0.24117 0.60937 0.18477 0.0
H2419 H 0.29043 0.63803 0.28052 0.0
H2420 H 0.3164 0.65842 0.29246 0.0
H2421 H 0.27549 0.69617 0.25715 0.0
H2422 H 0.24933 0.67599 0.24399 0.0
H2423 H 0.18858 0.62799 0.43119 0.0
H2424 H 0.21815 0.62994 0.37884 0.0
H2425 H 0.1824 0.63853 0.24669 0.0
H2426 H 0.15295 0.63756 0.29964 0.0
H2427 H 0.23339 0.65392 0.30909 0.0
H2428 H 0.20367 0.61091 0.1542 0.0
H2429 H 0.1792 0.58923 0.14387 0.0
H2430 H 0.18258 0.57858 0.30298 0.0
H2431 H 0.2076 0.59977 0.31392 0.0
C2432 C 0.29569 0.63919 0.1246 0.0
C2433 C 0.30806 0.62587 0.13303 0.0
C2434 C 0.278 0.64065 0.15117 0.0
C2435 C 0.27234 0.62872 0.18598 0.0
C2436 C 0.28423 0.61508 0.19269 0.0
C2437 C 0.30201 0.61372 0.16677 0.0
C2438 C 0.25438 0.63062 0.21693 0.0
C2439 C 0.23937 0.61919 0.21162 0.0
C2440 C 0.25226 0.64332 0.25242 0.0
C2441 C 0.26796 0.65547 0.26071 0.0
C2442 C 0.287 0.65067 0.27484 0.0
C2443 C 0.30175 0.66218 0.28195 0.0
C2444 C 0.29759 0.67856 0.27557 0.0
C2445 C 0.27868 0.68347 0.26208 0.0
C2446 C 0.26389 0.672 0.25478 0.0
C2447 C 0.18701 0.63059 0.39114 0.0
C2448 C 0.16831 0.63193 0.36893 0.0
C2449 C 0.20393 0.63172 0.36134 0.0
C2450 C 0.2024 0.63405 0.30881 0.0
C2451 C 0.18384 0.63639 0.28706 0.0
C2452 C 0.16697 0.6355 0.31707 0.0
C2453 C 0.22006 0.63277 0.2764 0.0
C2454 C 0.23505 0.64427 0.2816 0.0
C2455 C 0.22226 0.62003 0.24105 0.0
C2456 C 0.20725 0.60717 0.23502 0.0
C2457 C 0.19924 0.60392 0.18697 0.0
C2458 C 0.18533 0.59166 0.18096 0.0
C2459 C 0.17922 0.58263 0.22281 0.0
C2460 C 0.1872 0.58568 0.27066 0.0
C2461 C 0.20128 0.5978 0.27676 0.0
H2462 H 0.16835 0.57322 0.21812 0.0
H2463 H 0.30902 0.68746 0.28097 0.0
H2464 H 0.11009 0.13936 0.69418 0.0
H2465 H 0.11451 0.13198 0.60564 0.0
H2466 H 0.16537 0.10362 0.64543 0.0
H2467 H 0.16165 0.1118 0.73415 0.0
H2468 H 0.17441 0.12159 0.57067 0.0
H2469 H 0.12138 0.08608 0.59887 0.0
H2470 H 0.08892 0.07711 0.62913 0.0
H2471 H 0.0608 0.11117 0.53028 0.0
H2472 H 0.09308 0.12052 0.49993 0.0
H2473 H 0.14132 0.10115 0.28825 0.0
H2474 H 0.14085 0.09514 0.37937 0.0
H2475 H 0.16502 0.14231 0.41027 0.0
H2476 H 0.16665 0.14782 0.31967 0.0
H2477 H 0.1211 0.10738 0.45069 0.0
H2478 H 0.18869 0.14471 0.51917 0.0
H2479 H 0.2212 0.15235 0.48592 0.0
H2480 H 0.22155 0.11027 0.39077 0.0
H2481 H 0.1895 0.10206 0.42484 0.0
C2482 C 0.12213 0.13142 0.68425 0.0
C2483 C 0.13565 0.12634 0.72126 0.0
C2484 C 0.1245 0.12702 0.63352 0.0
C2485 C 0.14021 0.11712 0.61858 0.0
C2486 C 0.15313 0.11127 0.6559 0.0
C2487 C 0.15087 0.11582 0.70676 0.0
C2488 C 0.14415 0.11436 0.56363 0.0
C2489 C 0.16281 0.11827 0.54453 0.0
C2490 C 0.1292 0.10967 0.52933 0.0
C2491 C 0.10969 0.10405 0.54726 0.0
C2492 C 0.10828 0.09173 0.58379 0.0
C2493 C 0.08991 0.08657 0.60094 0.0
C2494 C 0.07281 0.09358 0.58168 0.0
C2495 C 0.07405 0.10575 0.54515 0.0
C2496 C 0.09239 0.11096 0.52788 0.0
C2497 C 0.14704 0.11001 0.31461 0.0
C2498 C 0.15422 0.12487 0.29699 0.0
C2499 C 0.14661 0.10664 0.36667 0.0
C2500 C 0.1531 0.11817 0.40205 0.0
C2501 C 0.16047 0.13296 0.38408 0.0
C2502 C 0.16134 0.13615 0.33213 0.0
C2503 C 0.15111 0.11527 0.45769 0.0
C2504 C 0.13283 0.11033 0.47688 0.0
C2505 C 0.16655 0.11863 0.49215 0.0
C2506 C 0.18659 0.12283 0.47435 0.0
C2507 C 0.19586 0.13694 0.4918 0.0
C2508 C 0.21423 0.14138 0.47278 0.0
C2509 C 0.22347 0.13182 0.43627 0.0
C2510 C 0.21449 0.11766 0.41922 0.0
C2511 C 0.19623 0.11308 0.43848 0.0
H2512 H 0.23753 0.13546 0.42112 0.0
H2513 H 0.0586 0.08957 0.59502 0.0
H2514 H 0.3612 0.87845 0.22163 0.0
H2515 H 0.36339 0.88946 0.13582 0.0
H2516 H 0.41437 0.86002 0.10677 0.0
H2517 H 0.41236 0.849 0.19297 0.0
H2518 H 0.41595 0.89266 0.06493 0.0
H2519 H 0.37299 0.84563 0.07315 0.0
H2520 H 0.34473 0.83036 0.10656 0.0
H2521 H 0.30584 0.86856 0.06205 0.0
H2522 H 0.33391 0.8842 0.02912 0.0
H2523 H 0.41854 0.87694 0.80301 0.0
H2524 H 0.41887 0.87907 0.8951 0.0
H2525 H 0.36034 0.89907 0.89222 0.0
H2526 H 0.35968 0.89625 0.79973 0.0
H2527 H 0.36094 0.87557 0.95398 0.0
H2528 H 0.402 0.92116 0.93432 0.0
H2529 H 0.42943 0.93752 0.90158 0.0
H2530 H 0.47079 0.90452 0.96747 0.0
H2531 H 0.44361 0.88782 1.00001 0.0
C2532 C 0.37319 0.87463 0.19746 0.0
C2533 C 0.38661 0.86284 0.21389 0.0
C2534 C 0.37436 0.88088 0.14843 0.0
C2535 C 0.38897 0.87547 0.11508 0.0
C2536 C 0.40302 0.86436 0.13215 0.0
C2537 C 0.40178 0.858 0.18113 0.0
C2538 C 0.38838 0.8801 0.06099 0.0
C2539 C 0.40402 0.88891 0.04038 0.0
C2540 C 0.37243 0.87565 0.02972 0.0
C2541 C 0.35557 0.86617 0.04924 0.0
C2542 C 0.35844 0.85084 0.0709 0.0
C2543 C 0.34246 0.8421 0.08968 0.0
C2544 C 0.32352 0.8485 0.08657 0.0
C2545 C 0.32052 0.86364 0.06454 0.0
C2546 C 0.33645 0.87244 0.04581 0.0
C2547 C 0.40593 0.88216 0.82193 0.0
C2548 C 0.38904 0.88634 0.79446 0.0
C2549 C 0.40617 0.88348 0.87466 0.0
C2550 C 0.38967 0.88934 0.90081 0.0
C2551 C 0.37323 0.89449 0.87294 0.0
C2552 C 0.37288 0.89294 0.82015 0.0
C2553 C 0.38872 0.88805 0.95695 0.0
C2554 C 0.37277 0.87972 0.97823 0.0
C2555 C 0.40429 0.89316 0.98878 0.0
C2556 C 0.42073 0.90317 0.96937 0.0
C2557 C 0.41694 0.91732 0.94154 0.0
C2558 C 0.43245 0.92667 0.92306 0.0
C2559 C 0.45184 0.92205 0.93237 0.0
C2560 C 0.45576 0.90808 0.96028 0.0
C2561 C 0.4403 0.89868 0.97883 0.0
H2562 H 0.46383 0.9293 0.91803 0.0
H2563 H 0.31117 0.84172 0.10111 0.0
H2564 H 0.11081 0.89878 0.6801 0.0
H2565 H 0.10859 0.8998 0.58702 0.0
H2566 H 0.14468 0.85714 0.57679 0.0
H2567 H 0.14665 0.85595 0.66916 0.0
H2568 H 0.13526 0.90295 0.51196 0.0
H2569 H 0.12984 0.8338 0.47841 0.0
H2570 H 0.11728 0.80956 0.52189 0.0
H2571 H 0.07652 0.83873 0.6057 0.0
H2572 H 0.08851 0.86309 0.56192 0.0
H2573 H 0.16008 0.87741 0.25956 0.0
H2574 H 0.15641 0.88451 0.34939 0.0
H2575 H 0.09583 0.8694 0.34449 0.0
H2576 H 0.09973 0.86194 0.25523 0.0
H2577 H 0.11331 0.8545 0.41725 0.0
H2578 H 0.10976 0.9096 0.3666 0.0
H2579 H 0.11999 0.93447 0.32259 0.0
H2580 H 0.17409 0.93471 0.40609 0.0
H2581 H 0.16431 0.90972 0.45012 0.0
C2582 C 0.11822 0.88963 0.65785 0.0
C2583 C 0.12879 0.87723 0.68187 0.0
C2584 C 0.11702 0.89026 0.60471 0.0
C2585 C 0.12628 0.87845 0.57474 0.0
C2586 C 0.13714 0.86625 0.59891 0.0
C2587 C 0.1383 0.86561 0.6518 0.0
C2588 C 0.12446 0.87861 0.51832 0.0
C2589 C 0.1304 0.89238 0.49121 0.0
C2590 C 0.11777 0.86494 0.49107 0.0
C2591 C 0.11022 0.85031 0.51716 0.0
C2592 C 0.11811 0.83504 0.50587 0.0
C2593 C 0.11107 0.82127 0.53052 0.0
C2594 C 0.09614 0.82261 0.56659 0.0
C2595 C 0.08813 0.83771 0.57786 0.0
C2596 C 0.09503 0.85151 0.55311 0.0
C2597 C 0.14579 0.87628 0.27723 0.0
C2598 C 0.13011 0.86933 0.25041 0.0
C2599 C 0.1437 0.88026 0.3287 0.0
C2600 C 0.12583 0.87747 0.35407 0.0
C2601 C 0.10978 0.87161 0.32605 0.0
C2602 C 0.11193 0.86752 0.27488 0.0
C2603 C 0.12449 0.87874 0.41053 0.0
C2604 C 0.11803 0.86516 0.43779 0.0
C2605 C 0.13041 0.89266 0.43773 0.0
C2606 C 0.13635 0.9077 0.41137 0.0
C2607 C 0.12391 0.91489 0.3753 0.0
C2608 C 0.12961 0.92902 0.3504 0.0
C2609 C 0.1477 0.93615 0.36146 0.0
C2610 C 0.16009 0.92917 0.39754 0.0
C2611 C 0.15446 0.91503 0.42252 0.0
H2612 H 0.15209 0.94709 0.34214 0.0
H2613 H 0.09078 0.81194 0.58583 0.0
H2614 H 0.34004 0.15399 0.8021 0.0
H2615 H 0.3381 0.14739 0.89215 0.0
H2616 H 0.37297 0.10473 0.86686 0.0
H2617 H 0.37544 0.11149 0.77632 0.0
H2618 H 0.33897 0.10237 0.94265 0.0
H2619 H 0.39717 0.13368 0.89956 0.0
H2620 H 0.41413 0.15676 0.86004 0.0
H2621 H 0.38078 0.18961 0.95194 0.0
H2622 H 0.3633 0.16673 0.99119 0.0
H2623 H 0.39211 0.12058 0.19946 0.0
H2624 H 0.38995 0.11605 0.10812 0.0
H2625 H 0.32753 0.12459 0.11338 0.0
H2626 H 0.32963 0.12929 0.20528 0.0
H2627 H 0.37658 0.14163 0.04647 0.0
H2628 H 0.30874 0.10206 0.00804 0.0
H2629 H 0.2905 0.07977 0.04836 0.0
H2630 H 0.34316 0.06389 0.1226 0.0
H2631 H 0.36175 0.08594 0.08223 0.0
C2632 C 0.34717 0.14311 0.81553 0.0
C2633 C 0.35826 0.13343 0.78233 0.0
C2634 C 0.34589 0.1393 0.86688 0.0
C2635 C 0.35553 0.12568 0.88604 0.0
C2636 C 0.36539 0.11528 0.85257 0.0
C2637 C 0.3668 0.11916 0.80096 0.0
C2638 C 0.35726 0.12356 0.94153 0.0
C2639 C 0.34724 0.11088 0.96548 0.0
C2640 C 0.36805 0.13472 0.97105 0.0
C2641 C 0.37876 0.14848 0.94787 0.0
C2642 C 0.3933 0.14582 0.91096 0.0
C2643 C 0.40303 0.15888 0.88864 0.0
C2644 C 0.39848 0.17465 0.90333 0.0
C2645 C 0.38425 0.17739 0.94049 0.0
C2646 C 0.37442 0.16439 0.96276 0.0
C2647 C 0.37784 0.12111 0.18142 0.0
C2648 C 0.36107 0.12545 0.2092 0.0
C2649 C 0.37664 0.11854 0.12926 0.0
C2650 C 0.35862 0.12006 0.10408 0.0
C2651 C 0.34156 0.12327 0.13227 0.0
C2652 C 0.34278 0.12596 0.18463 0.0
C2653 C 0.35826 0.12045 0.04798 0.0
C2654 C 0.36844 0.13298 0.02381 0.0
C2655 C 0.34753 0.10922 0.0186 0.0
C2656 C 0.33659 0.09575 0.04244 0.0
C2657 C 0.31644 0.09377 0.0328 0.0
C2658 C 0.30604 0.08118 0.0557 0.0
C2659 C 0.31565 0.07045 0.08814 0.0
C2660 C 0.33571 0.07225 0.09763 0.0
C2661 C 0.34618 0.08481 0.07482 0.0
H2662 H 0.30757 0.06072 0.10585 0.0
H2663 H 0.40603 0.18473 0.88602 0.0
H2664 H 0.8968 0.86384 0.27121 0.0
H2665 H 0.89804 0.87078 0.36139 0.0
H2666 H 0.83713 0.88498 0.35627 0.0
H2667 H 0.8361 0.87853 0.26553 0.0
H2668 H 0.85645 0.90291 0.42485 0.0
H2669 H 0.8497 0.84692 0.38692 0.0
H2670 H 0.85825 0.82112 0.34592 0.0
H2671 H 0.91385 0.82094 0.4226 0.0
H2672 H 0.90579 0.84695 0.46326 0.0
H2673 H 0.83256 0.88082 0.68257 0.0
H2674 H 0.83426 0.8838 0.59005 0.0
H2675 H 0.89671 0.87542 0.59492 0.0
H2676 H 0.89515 0.87278 0.6874 0.0
H2677 H 0.87652 0.85535 0.52685 0.0
H2678 H 0.88058 0.91202 0.56834 0.0
H2679 H 0.86932 0.9371 0.60943 0.0
H2680 H 0.8149 0.93446 0.52774 0.0
H2681 H 0.82574 0.90923 0.48665 0.0
C2682 C 0.88391 0.86899 0.28904 0.0
C2683 C 0.86635 0.87063 0.26168 0.0
C2684 C 0.88457 0.87284 0.34057 0.0
C2685 C 0.86753 0.87798 0.3659 0.0
C2686 C 0.85043 0.88095 0.33761 0.0
C2687 C 0.84986 0.87733 0.28577 0.0
C2688 C 0.86695 0.8784 0.42227 0.0
C2689 C 0.86072 0.89249 0.44715 0.0
C2690 C 0.87244 0.86476 0.45148 0.0
C2691 C 0.87722 0.84898 0.42773 0.0
C2692 C 0.86381 0.84144 0.39477 0.0
C2693 C 0.86856 0.82678 0.37159 0.0
C2694 C 0.8866 0.81941 0.38157 0.0
C2695 C 0.89989 0.82668 0.41484 0.0
C2696 C 0.89525 0.84139 0.43795 0.0
C2697 C 0.84667 0.87986 0.66388 0.0
C2698 C 0.86373 0.87656 0.69195 0.0
C2699 C 0.84763 0.88158 0.61113 0.0
C2700 C 0.8656 0.87979 0.58566 0.0
C2701 C 0.8827 0.87683 0.61387 0.0
C2702 C 0.8818 0.87538 0.66663 0.0
C2703 C 0.86642 0.87995 0.52942 0.0
C2704 C 0.87248 0.86584 0.50455 0.0
C2705 C 0.86036 0.89343 0.50042 0.0
C2706 C 0.85391 0.90867 0.52474 0.0
C2707 C 0.86615 0.91672 0.55942 0.0
C2708 C 0.85986 0.93098 0.58266 0.0
C2709 C 0.84139 0.93735 0.57129 0.0
C2710 C 0.8292 0.92951 0.53654 0.0
C2711 C 0.83542 0.91524 0.51322 0.0
H2712 H 0.83654 0.94839 0.58934 0.0
H2713 H 0.89025 0.80805 0.36361 0.0
H2714 H 0.60026 0.12929 0.78797 0.0
H2715 H 0.59971 0.11994 0.87613 0.0
H2716 H 0.66299 0.11778 0.8764 0.0
H2717 H 0.66342 0.12653 0.78761 0.0
H2718 H 0.64831 0.09565 0.94153 0.0
H2719 H 0.64018 0.1523 0.91061 0.0
H2720 H 0.62529 0.17655 0.87236 0.0
H2721 H 0.5697 0.16446 0.93889 0.0
H2722 H 0.58424 0.14008 0.9774 0.0
H2723 H 0.66164 0.12346 0.20319 0.0
H2724 H 0.66288 0.11873 0.1111 0.0
H2725 H 0.60001 0.11273 0.10861 0.0
H2726 H 0.59871 0.11718 0.20007 0.0
H2727 H 0.61487 0.13751 0.04479 0.0
H2728 H 0.62666 0.08195 0.08633 0.0
H2729 H 0.64423 0.05937 0.12672 0.0
H2730 H 0.6961 0.07085 0.04169 0.0
H2731 H 0.67897 0.09375 1.00151 0.0
C2732 C 0.61394 0.12602 0.8062 0.0
C2733 C 0.63186 0.12845 0.78117 0.0
C2734 C 0.61367 0.12086 0.85668 0.0
C2735 C 0.63135 0.11855 0.8833 0.0
C2736 C 0.64918 0.11951 0.85677 0.0
C2737 C 0.64943 0.12444 0.806 0.0
C2738 C 0.63133 0.11758 0.93968 0.0
C2739 C 0.6411 0.10483 0.96419 0.0
C2740 C 0.62202 0.12961 0.96935 0.0
C2741 C 0.61324 0.14429 0.94643 0.0
C2742 C 0.62475 0.15477 0.91682 0.0
C2743 C 0.61639 0.16854 0.89513 0.0
C2744 C 0.59655 0.172 0.90296 0.0
C2745 C 0.58505 0.16174 0.93275 0.0
C2746 C 0.59335 0.14796 0.9546 0.0
C2747 C 0.64818 0.12073 0.18307 0.0
C2748 C 0.63006 0.1208 0.20861 0.0
C2749 C 0.6489 0.11802 0.13057 0.0
C2750 C 0.6315 0.11545 0.10307 0.0
C2751 C 0.61358 0.1147 0.12912 0.0
C2752 C 0.61287 0.11723 0.1814 0.0
C2753 C 0.63151 0.11543 0.0468 0.0
C2754 C 0.6219 0.12819 0.02225 0.0
C2755 C 0.64133 0.1036 0.01753 0.0
C2756 C 0.65162 0.08978 0.04154 0.0
C2757 C 0.6419 0.07983 0.07674 0.0
C2758 C 0.65177 0.06694 0.09952 0.0
C2759 C 0.67132 0.06376 0.08704 0.0
C2760 C 0.68101 0.07341 0.05157 0.0
C2761 C 0.67122 0.08635 0.02879 0.0
H2762 H 0.67893 0.05376 0.10467 0.0
H2763 H 0.5901 0.18266 0.88608 0.0
H2764 H 0.87966 0.12741 0.74997 0.0
H2765 H 0.87952 0.1178 0.66149 0.0
H2766 H 0.83918 0.15586 0.62141 0.0
H2767 H 0.83907 0.16519 0.70908 0.0
H2768 H 0.82972 0.12924 0.57193 0.0
H2769 H 0.88951 0.15934 0.60402 0.0
H2770 H 0.92083 0.1648 0.64764 0.0
H2771 H 0.94258 0.11831 0.60262 0.0
H2772 H 0.91125 0.11249 0.55927 0.0
H2773 H 0.84326 0.14821 0.31576 0.0
H2774 H 0.84242 0.14773 0.40816 0.0
H2775 H 0.88402 0.10846 0.40909 0.0
H2776 H 0.88532 0.10925 0.31582 0.0
H2777 H 0.89328 0.13 0.48018 0.0
H2778 H 0.83421 0.10231 0.43519 0.0
H2779 H 0.8031 0.09851 0.38888 0.0
H2780 H 0.77984 0.14157 0.45665 0.0
H2781 H 0.81086 0.14575 0.50284 0.0
C2782 C 0.87049 0.13346 0.72234 0.0
C2783 C 0.85953 0.14714 0.73626 0.0
C2784 C 0.87052 0.12806 0.67174 0.0
C2785 C 0.85956 0.13625 0.63439 0.0
C2786 C 0.8478 0.14933 0.64919 0.0
C2787 C 0.84781 0.15471 0.69936 0.0
C2788 C 0.861 0.13206 0.57938 0.0
C2789 C 0.84362 0.1294 0.5519 0.0
C2790 C 0.87915 0.1319 0.55311 0.0
C2791 C 0.89797 0.1354 0.579 0.0
C2792 C 0.90092 0.15023 0.60378 0.0
C2793 C 0.91868 0.1534 0.62839 0.0
C2794 C 0.93366 0.14188 0.62805 0.0
C2795 C 0.93094 0.1272 0.60296 0.0
C2796 C 0.91319 0.12396 0.57836 0.0
C2797 C 0.8522 0.13942 0.33556 0.0
C2798 C 0.86428 0.12871 0.30853 0.0
C2799 C 0.85161 0.13909 0.38851 0.0
C2800 C 0.86283 0.12783 0.41589 0.0
C2801 C 0.87511 0.11719 0.38894 0.0
C2802 C 0.87582 0.11762 0.33569 0.0
C2803 C 0.86194 0.12759 0.47252 0.0
C2804 C 0.8794 0.12945 0.50027 0.0
C2805 C 0.84384 0.12711 0.49903 0.0
C2806 C 0.82492 0.12437 0.47235 0.0
C2807 C 0.82248 0.11099 0.44011 0.0
C2808 C 0.80485 0.10877 0.41386 0.0
C2809 C 0.7895 0.1198 0.41974 0.0
C2810 C 0.79171 0.13302 0.4521 0.0
C2811 C 0.80931 0.13531 0.47843 0.0
H2812 H 0.7759 0.11808 0.39926 0.0
H2813 H 0.9474 0.14436 0.64711 0.0
H2814 H 0.6584 0.8482 0.79455 0.0
H2815 H 0.65728 0.84753 0.88702 0.0
H2816 H 0.59715 0.86383 0.88395 0.0
H2817 H 0.59803 0.86414 0.79065 0.0
H2818 H 0.62348 0.88145 0.95077 0.0
H2819 H 0.60016 0.82703 0.92757 0.0
H2820 H 0.59897 0.79936 0.89309 0.0
H2821 H 0.6591 0.79191 0.93588 0.0
H2822 H 0.66047 0.81943 0.97178 0.0
H2823 H 0.61592 0.86721 0.21938 0.0
H2824 H 0.61012 0.86873 0.12794 0.0
H2825 H 0.66647 0.84662 0.10031 0.0
H2826 H 0.67239 0.84512 0.19163 0.0
H2827 H 0.63709 0.8317 0.04945 0.0
H2828 H 0.65925 0.88631 0.07751 0.0
H2829 H 0.65867 0.91313 0.118 0.0
H2830 H 0.59969 0.92059 0.06569 0.0
H2831 H 0.59981 0.8937 0.02545 0.0
C2832 C 0.6449 0.85154 0.81354 0.0
C2833 C 0.62827 0.85615 0.78576 0.0
C2834 C 0.64425 0.85109 0.86623 0.0
C2835 C 0.62706 0.85545 0.89196 0.0
C2836 C 0.61047 0.86031 0.86444 0.0
C2837 C 0.61101 0.86052 0.81144 0.0
C2838 C 0.62709 0.85565 0.94775 0.0
C2839 C 0.62602 0.87057 0.97267 0.0
C2840 C 0.63079 0.84147 0.97575 0.0
C2841 C 0.63044 0.82528 0.95199 0.0
C2842 C 0.61315 0.81951 0.92935 0.0
C2843 C 0.61239 0.80381 0.91007 0.0
C2844 C 0.62894 0.79387 0.91238 0.0
C2845 C 0.64628 0.7996 0.93424 0.0
C2846 C 0.64701 0.81521 0.95437 0.0
C2847 C 0.62722 0.86298 0.19373 0.0
C2848 C 0.6446 0.85604 0.21243 0.0
C2849 C 0.62387 0.86382 0.14162 0.0
C2850 C 0.6379 0.85782 0.10758 0.0
C2851 C 0.65545 0.85125 0.12614 0.0
C2852 C 0.6588 0.85038 0.17816 0.0
C2853 C 0.63394 0.85757 0.05262 0.0
C2854 C 0.63431 0.84261 0.02782 0.0
C2855 C 0.62952 0.87173 0.02495 0.0
C2856 C 0.62946 0.88792 0.04896 0.0
C2857 C 0.64609 0.89361 0.07501 0.0
C2858 C 0.64586 0.90884 0.09784 0.0
C2859 C 0.62913 0.91854 0.09456 0.0
C2860 C 0.61262 0.91305 0.06829 0.0
C2861 C 0.61277 0.89782 0.04543 0.0
H2862 H 0.62898 0.93032 0.11226 0.0
H2863 H 0.62837 0.78177 0.89698 0.0
H2864 H 0.62624 0.62572 0.76032 0.0
H2865 H 0.62864 0.6156 0.67339 0.0
H2866 H 0.68586 0.63741 0.65875 0.0
H2867 H 0.68353 0.64755 0.74554 0.0
H2868 H 0.66133 0.6476 0.58705 0.0
H2869 H 0.67977 0.59623 0.65638 0.0
H2870 H 0.67624 0.57239 0.71154 0.0
H2871 H 0.62134 0.56085 0.64031 0.0
H2872 H 0.62439 0.58477 0.58518 0.0
H2873 H 0.6807 0.62584 0.33819 0.0
H2874 H 0.68424 0.62344 0.43016 0.0
H2875 H 0.62407 0.60776 0.44208 0.0
H2876 H 0.62036 0.61026 0.34989 0.0
H2877 H 0.65062 0.59296 0.51511 0.0
H2878 H 0.63088 0.64451 0.45019 0.0
H2879 H 0.63316 0.66862 0.39584 0.0
H2880 H 0.68869 0.68064 0.46295 0.0
H2881 H 0.68715 0.65623 0.51606 0.0
C2882 C 0.6396 0.62788 0.73914 0.0
C2883 C 0.65464 0.63751 0.75956 0.0
C2884 C 0.64095 0.6221 0.68943 0.0
C2885 C 0.65743 0.62575 0.65957 0.0
C2886 C 0.673 0.63449 0.68108 0.0
C2887 C 0.67164 0.64029 0.73062 0.0
C2888 C 0.65739 0.62239 0.60434 0.0
C2889 C 0.65942 0.63558 0.57143 0.0
C2890 C 0.65407 0.60681 0.58399 0.0
C2891 C 0.65223 0.59238 0.61694 0.0
C2892 C 0.66686 0.58869 0.65275 0.0
C2893 C 0.66496 0.57514 0.68396 0.0
C2894 C 0.64855 0.56513 0.67951 0.0
C2895 C 0.63403 0.56862 0.64374 0.0
C2896 C 0.63585 0.58216 0.61246 0.0
C2897 C 0.66839 0.62144 0.36023 0.0
C2898 C 0.65017 0.61847 0.33721 0.0
C2899 C 0.67045 0.62005 0.41271 0.0
C2900 C 0.65433 0.61563 0.44281 0.0
C2901 C 0.63665 0.61118 0.4194 0.0
C2902 C 0.63454 0.61268 0.36684 0.0
C2903 C 0.65506 0.61811 0.49834 0.0
C2904 C 0.65287 0.60488 0.53105 0.0
C2905 C 0.65806 0.6337 0.51884 0.0
C2906 C 0.65908 0.64835 0.48645 0.0
C2907 C 0.64376 0.65212 0.45268 0.0
C2908 C 0.64491 0.66586 0.42206 0.0
C2909 C 0.66115 0.67609 0.42553 0.0
C2910 C 0.67623 0.67262 0.45976 0.0
C2911 C 0.67525 0.65881 0.49004 0.0
H2912 H 0.66196 0.68673 0.40189 0.0
H2913 H 0.64711 0.55465 0.70372 0.0
H2914 H 0.90012 0.37122 0.80377 0.0
H2915 H 0.9009 0.37009 0.89661 0.0
H2916 H 0.84201 0.38905 0.90257 0.0
H2917 H 0.84105 0.38997 0.80949 0.0
H2918 H 0.86664 0.40287 0.97581 0.0
H2919 H 0.84717 0.35026 0.92157 0.0
H2920 H 0.84907 0.32512 0.87149 0.0
H2921 H 0.9058 0.31501 0.93496 0.0
H2922 H 0.90433 0.34026 0.9846 0.0
H2923 H 0.84324 0.37574 0.22918 0.0
H2924 H 0.845 0.38361 0.13959 0.0
H2925 H 0.90172 0.3608 0.12726 0.0
H2926 H 0.89985 0.35279 0.21639 0.0
H2927 H 0.87779 0.34963 0.05676 0.0
H2928 H 0.89553 0.40235 0.11688 0.0
H2929 H 0.89181 0.42721 0.16734 0.0
H2930 H 0.83665 0.4369 0.09475 0.0
H2931 H 0.8399 0.41196 0.04432 0.0
C2932 C 0.88741 0.37529 0.82487 0.0
C2933 C 0.87053 0.38068 0.79941 0.0
C2934 C 0.88784 0.37458 0.87792 0.0
C2935 C 0.87144 0.37935 0.90662 0.0
C2936 C 0.85481 0.38529 0.88126 0.0
C2937 C 0.85428 0.38581 0.82812 0.0
C2938 C 0.87147 0.37753 0.96287 0.0
C2939 C 0.86888 0.39122 0.99362 0.0
C2940 C 0.87464 0.36237 0.98615 0.0
C2941 C 0.87574 0.34725 0.95611 0.0
C2942 C 0.86014 0.34276 0.92422 0.0
C2943 C 0.86112 0.32848 0.89608 0.0
C2944 C 0.87758 0.3185 0.8999 0.0
C2945 C 0.89308 0.32278 0.93193 0.0
C2946 C 0.89218 0.33708 0.96007 0.0
C2947 C 0.85637 0.37294 0.20777 0.0
C2948 C 0.87141 0.36367 0.22977 0.0
C2949 C 0.85734 0.37736 0.15643 0.0
C2950 C 0.87347 0.37273 0.12636 0.0
C2951 C 0.88907 0.36442 0.1494 0.0
C2952 C 0.88806 0.35995 0.20045 0.0
C2953 C 0.8733 0.37503 0.07017 0.0
C2954 C 0.87573 0.36135 0.03923 0.0
C2955 C 0.86985 0.39019 0.04694 0.0
C2956 C 0.86787 0.4052 0.07717 0.0
C2957 C 0.88252 0.4097 0.11197 0.0
C2958 C 0.88052 0.42383 0.14051 0.0
C2959 C 0.86398 0.43361 0.13435 0.0
C2960 C 0.84944 0.4293 0.09953 0.0
C2961 C 0.85136 0.41518 0.07092 0.0
H2962 H 0.86246 0.44454 0.15648 0.0
H2963 H 0.87829 0.30742 0.87821 0.0
H2964 H 0.58742 0.37595 0.71025 0.0
H2965 H 0.58524 0.37815 0.6179 0.0
H2966 H 0.64157 0.40162 0.61405 0.0
H2967 H 0.64393 0.39937 0.70703 0.0
H2968 H 0.6168 0.414 0.54162 0.0
H2969 H 0.63946 0.36209 0.59685 0.0
H2970 H 0.63799 0.33689 0.64642 0.0
H2971 H 0.58358 0.32436 0.57433 0.0
H2972 H 0.58457 0.34965 0.52486 0.0
H2973 H 0.64746 0.38944 0.2909 0.0
H2974 H 0.64318 0.39683 0.38038 0.0
H2975 H 0.58832 0.37086 0.38398 0.0
H2976 H 0.59273 0.36331 0.29507 0.0
H2977 H 0.61171 0.3607 0.45695 0.0
H2978 H 0.59076 0.41259 0.39665 0.0
H2979 H 0.5934 0.43786 0.34775 0.0
H2980 H 0.64602 0.45027 0.42837 0.0
H2981 H 0.64386 0.42496 0.47729 0.0
C2982 C 0.59918 0.3819 0.68991 0.0
C2983 C 0.61598 0.38736 0.71568 0.0
C2984 C 0.59794 0.3831 0.63709 0.0
C2985 C 0.61349 0.38975 0.60903 0.0
C2986 C 0.62957 0.39633 0.63507 0.0
C2987 C 0.63088 0.39505 0.68798 0.0
C2988 C 0.61388 0.38838 0.55273 0.0
C2989 C 0.61581 0.40235 0.523 0.0
C2990 C 0.61248 0.37318 0.52841 0.0
C2991 C 0.61198 0.35785 0.55755 0.0
C2992 C 0.62711 0.35402 0.59182 0.0
C2993 C 0.62637 0.33971 0.61987 0.0
C2994 C 0.61067 0.32905 0.61363 0.0
C2995 C 0.59571 0.33265 0.57918 0.0
C2996 C 0.59635 0.34697 0.55111 0.0
C2997 C 0.63417 0.38582 0.31039 0.0
C2998 C 0.62042 0.37582 0.28611 0.0
C2999 C 0.63176 0.38999 0.36162 0.0
C3000 C 0.61544 0.38435 0.38918 0.0
C3001 C 0.60108 0.37528 0.36377 0.0
C3002 C 0.60354 0.37106 0.31287 0.0
C3003 C 0.61427 0.38637 0.44533 0.0
C3004 C 0.61243 0.37241 0.47525 0.0
C3005 C 0.61593 0.40156 0.46961 0.0
C3006 C 0.61724 0.4168 0.4403 0.0
C3007 C 0.60299 0.42064 0.40366 0.0
C3008 C 0.60438 0.43499 0.376 0.0
C3009 C 0.61989 0.44565 0.38486 0.0
C3010 C 0.63403 0.442 0.4215 0.0
C3011 C 0.63271 0.42766 0.44925 0.0
H3012 H 0.62094 0.45675 0.3634 0.0
H3013 H 0.61012 0.31799 0.63541 0.0
H3014 H 0.90825 0.62582 0.21186 0.0
H3015 H 0.90989 0.62259 0.11966 0.0
H3016 H 0.84724 0.61539 0.11435 0.0
H3017 H 0.84542 0.61898 0.20665 0.0
H3018 H 0.87353 0.59482 0.04334 0.0
H3019 H 0.8571 0.64979 0.09526 0.0
H3020 H 0.86263 0.67435 0.14616 0.0
H3021 H 0.9206 0.67887 0.08378 0.0
H3022 H 0.9155 0.65415 0.03315 0.0
H3023 H 0.84527 0.62039 0.79663 0.0
H3024 H 0.85022 0.61283 0.88529 0.0
H3025 H 0.90584 0.63784 0.88557 0.0
H3026 H 0.9004 0.64599 0.79742 0.0
H3027 H 0.88576 0.64763 0.96041 0.0
H3028 H 0.90116 0.59515 0.89862 0.0
H3029 H 0.89682 0.57021 0.84889 0.0
H3030 H 0.8432 0.56013 0.92839 0.0
H3031 H 0.84706 0.58514 0.97814 0.0
C3032 C 0.89489 0.62319 0.19118 0.0
C3033 C 0.87668 0.62279 0.21607 0.0
C3034 C 0.89587 0.6213 0.13865 0.0
C3035 C 0.87868 0.61878 0.11048 0.0
C3036 C 0.86065 0.61723 0.13567 0.0
C3037 C 0.85962 0.61936 0.18819 0.0
C3038 C 0.8792 0.62009 0.05468 0.0
C3039 C 0.87607 0.60633 0.02487 0.0
C3040 C 0.88303 0.63506 0.03112 0.0
C3041 C 0.88601 0.65003 0.06095 0.0
C3042 C 0.87108 0.65594 0.09278 0.0
C3043 C 0.87413 0.6699 0.12151 0.0
C3044 C 0.89198 0.67814 0.11833 0.0
C3045 C 0.9068 0.67246 0.08629 0.0
C3046 C 0.90383 0.65848 0.05756 0.0
C3047 C 0.85878 0.62388 0.81534 0.0
C3048 C 0.87247 0.63376 0.79049 0.0
C3049 C 0.86165 0.61952 0.86597 0.0
C3050 C 0.87848 0.62467 0.89222 0.0
C3051 C 0.89271 0.63376 0.86626 0.0
C3052 C 0.88966 0.63836 0.81595 0.0
C3053 C 0.88009 0.6223 0.94793 0.0
C3054 C 0.88351 0.63597 0.97818 0.0
C3055 C 0.87669 0.60719 0.97161 0.0
C3056 C 0.87433 0.5921 0.94186 0.0
C3057 C 0.88836 0.58768 0.90525 0.0
C3058 C 0.886 0.57352 0.8771 0.0
C3059 C 0.86973 0.56361 0.88541 0.0
C3060 C 0.8558 0.56782 0.92198 0.0
C3061 C 0.85808 0.58198 0.95022 0.0
H3062 H 0.86793 0.55265 0.86357 0.0
H3063 H 0.89431 0.68894 0.1406 0.0
H3064 H 0.36603 0.38953 0.26605 0.0
H3065 H 0.36329 0.39526 0.35684 0.0
H3066 H 0.32835 0.35228 0.37667 0.0
H3067 H 0.32996 0.34709 0.28589 0.0
H3068 H 0.31483 0.37463 0.43612 0.0
H3069 H 0.37909 0.35325 0.39862 0.0
H3070 H 0.41129 0.35251 0.35594 0.0
H3071 H 0.42529 0.39919 0.41677 0.0
H3072 H 0.39304 0.40028 0.45931 0.0
H3073 H 0.33324 0.34877 0.68462 0.0
H3074 H 0.33136 0.35257 0.59316 0.0
H3075 H 0.36334 0.39733 0.60662 0.0
H3076 H 0.36595 0.39318 0.69869 0.0
H3077 H 0.37752 0.37903 0.53092 0.0
H3078 H 0.3132 0.39669 0.58147 0.0
H3079 H 0.28327 0.39285 0.63227 0.0
H3080 H 0.27012 0.34945 0.55003 0.0
H3081 H 0.30025 0.35286 0.49928 0.0
C3082 C 0.35742 0.3815 0.28958 0.0
C3083 C 0.34852 0.36768 0.2688 0.0
C3084 C 0.35602 0.3847 0.34159 0.0
C3085 C 0.34595 0.37402 0.37386 0.0
C3086 C 0.33629 0.36066 0.35274 0.0
C3087 C 0.33747 0.35758 0.30083 0.0
C3088 C 0.34634 0.37609 0.42987 0.0
C3089 C 0.32854 0.37562 0.45679 0.0
C3090 C 0.36419 0.37759 0.45705 0.0
C3091 C 0.38358 0.37694 0.43158 0.0
C3092 C 0.38898 0.36341 0.40256 0.0
C3093 C 0.40725 0.36291 0.37845 0.0
C3094 C 0.4203 0.37582 0.38349 0.0
C3095 C 0.41514 0.38922 0.41279 0.0
C3096 C 0.39688 0.38978 0.43691 0.0
C3097 C 0.33968 0.35952 0.6682 0.0
C3098 C 0.34968 0.37072 0.69862 0.0
C3099 C 0.33853 0.36172 0.6159 0.0
C3100 C 0.34691 0.37539 0.59302 0.0
C3101 C 0.35668 0.38675 0.6235 0.0
C3102 C 0.35807 0.38442 0.67599 0.0
C3103 C 0.34608 0.37731 0.53706 0.0
C3104 C 0.36378 0.3785 0.51017 0.0
C3105 C 0.32818 0.37618 0.50999 0.0
C3106 C 0.30905 0.375 0.53675 0.0
C3107 C 0.30388 0.38637 0.57404 0.0
C3108 C 0.28691 0.38422 0.60301 0.0
C3109 C 0.27485 0.37084 0.59468 0.0
C3110 C 0.27952 0.35977 0.55657 0.0
C3111 C 0.29653 0.36183 0.5276 0.0
H3112 H 0.26192 0.36901 0.6178 0.0
H3113 H 0.43444 0.37541 0.36481 0.0
H3114 H 0.08667 0.61362 0.16117 0.0
H3115 H 0.08751 0.6113 0.06893 0.0
H3116 H 0.15044 0.60546 0.07403 0.0
H3117 H 0.14961 0.60843 0.16648 0.0
H3118 H 0.1418 0.62777 0.00958 0.0
H3119 H 0.11821 0.57435 0.03422 0.0
H3120 H 0.09705 0.55284 0.0686 0.0
H3121 H 0.0468 0.57432 0.9972 0.0
H3122 H 0.0676 0.59609 0.96296 0.0
H3123 H 0.14613 0.62578 0.74464 0.0
H3124 H 0.14659 0.61251 0.82791 0.0
H3125 H 0.08671 0.62731 0.8534 0.0
H3126 H 0.08633 0.64066 0.77045 0.0
H3127 H 0.09666 0.59655 0.89917 0.0
H3128 H 0.11989 0.65185 0.8874 0.0
H3129 H 0.14098 0.67286 0.84989 0.0
H3130 H 0.19237 0.64701 0.89793 0.0
H3131 H 0.17152 0.62561 0.93459 0.0
C3132 C 0.10062 0.61143 0.14273 0.0
C3133 C 0.11809 0.61111 0.17103 0.0
C3134 C 0.1011 0.61002 0.08986 0.0
C3135 C 0.11903 0.60807 0.06416 0.0
C3136 C 0.1364 0.60693 0.09278 0.0
C3137 C 0.13593 0.60846 0.14568 0.0
C3138 C 0.11979 0.60906 0.00764 0.0
C3139 C 0.13226 0.6206 0.98555 0.0
C3140 C 0.10706 0.60003 0.9759 0.0
C3141 C 0.09447 0.58693 0.99628 0.0
C3142 C 0.10263 0.57456 0.02614 0.0
C3143 C 0.09069 0.5623 0.04556 0.0
C3144 C 0.07059 0.56223 0.03516 0.0
C3145 C 0.06238 0.57439 0.00523 0.0
C3146 C 0.07424 0.58668 0.98574 0.0
C3147 C 0.13283 0.62553 0.76712 0.0
C3148 C 0.11616 0.63411 0.75126 0.0
C3149 C 0.13312 0.61805 0.81475 0.0
C3150 C 0.11674 0.61906 0.84705 0.0
C3151 C 0.09946 0.62631 0.82906 0.0
C3152 C 0.09924 0.63391 0.7817 0.0
C3153 C 0.11858 0.61519 0.9019 0.0
C3154 C 0.1065 0.60333 0.9235 0.0
C3155 C 0.13166 0.62389 0.93339 0.0
C3156 C 0.14417 0.63704 0.91316 0.0
C3157 C 0.13569 0.6506 0.88969 0.0
C3158 C 0.14759 0.66258 0.86856 0.0
C3159 C 0.16801 0.66125 0.87141 0.0
C3160 C 0.17655 0.648 0.89565 0.0
C3161 C 0.1647 0.63593 0.91654 0.0
H3162 H 0.17722 0.6705 0.85489 0.0
H3163 H 0.06137 0.55273 0.05024 0.0
H3164 H 0.34264 0.65778 0.71964 0.0
H3165 H 0.34303 0.64823 0.63222 0.0
H3166 H 0.38641 0.61243 0.67164 0.0
H3167 H 0.38616 0.62221 0.76002 0.0
H3168 H 0.39694 0.62937 0.58722 0.0
H3169 H 0.34026 0.60062 0.63979 0.0
H3170 H 0.30821 0.59644 0.68116 0.0
H3171 H 0.28181 0.63112 0.58126 0.0
H3172 H 0.31376 0.6357 0.53975 0.0
H3173 H 0.38963 0.60634 0.32326 0.0
H3174 H 0.38962 0.60454 0.41644 0.0
H3175 H 0.34594 0.64219 0.42341 0.0
H3176 H 0.34585 0.64394 0.33107 0.0
H3177 H 0.33694 0.61782 0.48705 0.0
H3178 H 0.39444 0.64986 0.44633 0.0
H3179 H 0.42647 0.65483 0.40562 0.0
H3180 H 0.45107 0.61412 0.48382 0.0
H3181 H 0.41908 0.60879 0.52452 0.0
C3182 C 0.35205 0.6477 0.70987 0.0
C3183 C 0.36439 0.64074 0.74651 0.0
C3184 C 0.35219 0.64219 0.6599 0.0
C3185 C 0.36463 0.62951 0.64525 0.0
C3186 C 0.37664 0.62219 0.6821 0.0
C3187 C 0.3764 0.62768 0.73254 0.0
C3188 C 0.36582 0.6249 0.5907 0.0
C3189 C 0.3839 0.62642 0.56552 0.0
C3190 C 0.34877 0.6213 0.56209 0.0
C3191 C 0.32946 0.61855 0.58678 0.0
C3192 C 0.32766 0.60744 0.62684 0.0
C3193 C 0.3095 0.60499 0.65029 0.0
C3194 C 0.29299 0.61352 0.63389 0.0
C3195 C 0.29461 0.62451 0.59392 0.0
C3196 C 0.31274 0.62702 0.57035 0.0
C3197 C 0.38003 0.61418 0.34484 0.0
C3198 C 0.36775 0.62528 0.31999 0.0
C3199 C 0.38005 0.61317 0.398 0.0
C3200 C 0.36781 0.62327 0.42703 0.0
C3201 C 0.35544 0.63422 0.40197 0.0
C3202 C 0.35545 0.63524 0.34912 0.0
C3203 C 0.36791 0.62282 0.48352 0.0
C3204 C 0.35005 0.62038 0.50897 0.0
C3205 C 0.38513 0.62559 0.51231 0.0
C3206 C 0.40433 0.6288 0.48792 0.0
C3207 C 0.40664 0.64189 0.45449 0.0
C3208 C 0.42479 0.64479 0.43149 0.0
C3209 C 0.44078 0.63476 0.44199 0.0
C3210 C 0.43866 0.62185 0.47563 0.0
C3211 C 0.42053 0.61889 0.49868 0.0
H3212 H 0.45482 0.63703 0.42416 0.0
H3213 H 0.27895 0.61161 0.6521 0.0
H3214 H 0.12978 0.38912 0.21774 0.0
H3215 H 0.13341 0.39504 0.12723 0.0
H3216 H 0.16252 0.34923 0.10582 0.0
H3217 H 0.16091 0.34424 0.19633 0.0
H3218 H 0.17842 0.36794 0.04715 0.0
H3219 H 0.11028 0.35722 0.08264 0.0
H3220 H 0.07822 0.36148 0.12404 0.0
H3221 H 0.07554 0.40951 0.06334 0.0
H3222 H 0.10772 0.40559 0.02202 0.0
H3223 H 0.1572 0.34441 0.79909 0.0
H3224 H 0.15633 0.34753 0.89091 0.0
H3225 H 0.13754 0.39698 0.87372 0.0
H3226 H 0.13666 0.39332 0.781 0.0
H3227 H 0.11831 0.38204 0.95063 0.0
H3228 H 0.18776 0.38552 0.89961 0.0
H3229 H 0.21265 0.37243 0.84546 0.0
H3230 H 0.20827 0.32907 0.93388 0.0
H3231 H 0.18317 0.34178 0.98801 0.0
C3232 C 0.13738 0.38052 0.19386 0.0
C3233 C 0.14458 0.36596 0.2141 0.0
C3234 C 0.13919 0.3838 0.1419 0.0
C3235 C 0.14773 0.37239 0.10905 0.0
C3236 C 0.15572 0.35824 0.12986 0.0
C3237 C 0.15446 0.35522 0.18169 0.0
C3238 C 0.14789 0.37463 0.05291 0.0
C3239 C 0.16524 0.3711 0.02632 0.0
C3240 C 0.1308 0.37881 0.02507 0.0
C3241 C 0.11149 0.3812 0.04985 0.0
C3242 C 0.10291 0.36873 0.07844 0.0
C3243 C 0.08471 0.37107 0.10183 0.0
C3244 C 0.07489 0.38578 0.09648 0.0
C3245 C 0.0832 0.39815 0.06757 0.0
C3246 C 0.10141 0.39588 0.04415 0.0
C3247 C 0.1531 0.356 0.81488 0.0
C3248 C 0.14744 0.36875 0.78319 0.0
C3249 C 0.15261 0.3578 0.86741 0.0
C3250 C 0.14756 0.37269 0.8894 0.0
C3251 C 0.14174 0.38546 0.85767 0.0
C3252 C 0.14144 0.38343 0.80486 0.0
C3253 C 0.14857 0.37479 0.94543 0.0
C3254 C 0.13156 0.37932 0.9718 0.0
C3255 C 0.16569 0.37078 0.97322 0.0
C3256 C 0.18351 0.36457 0.94759 0.0
C3257 C 0.1924 0.37331 0.90807 0.0
C3258 C 0.20639 0.36589 0.87709 0.0
C3259 C 0.21173 0.34985 0.88584 0.0
C3260 C 0.20393 0.34145 0.927 0.0
C3261 C 0.18989 0.34877 0.95794 0.0
H3262 H 0.22172 0.34382 0.86046 0.0
H3263 H 0.0608 0.38757 0.11461 0.0
loop_
_geom_bond_atom_site_label_1
_geom_bond_atom_site_label_2
_geom_bond_distance
_geom_bond_site_symmetry_2
_ccdc_geom_bond_type
O0 Tb1 2.292 . S
O0 C3 1.255 . S
Tb1 O0 2.292 . S
Tb1 O17 2.326 . S
Tb1 O19 2.500 . S
Tb1 O20 2.473 . S
Tb1 O23 2.324 . S
Eu2 O6 2.292 1_554 S
Eu2 C7 2.852 1_554 S
Eu2 O18 2.324 . S
Eu2 O22 2.326 . S
Eu2 O24 2.500 1_554 S
Eu2 O25 2.473 1_554 S
C3 O0 1.255 . S
C3 O4 1.247 . S
O4 C3 1.247 . S
C5 O17 1.242 . S
C5 O18 1.258 . S
O6 Eu2 2.292 1_556 S
O6 C8 1.255 1_556 S
C7 Eu2 2.852 1_556 S
C7 C11 1.503 . S
C7 O24 1.273 . S
C7 O25 1.257 . S
C8 O6 1.255 1_554 S
C8 O9 1.247 . S
O9 C8 1.247 . S
C10 O22 1.242 . S
C10 O23 1.258 . S
C11 C7 1.503 . S
C11 C12 1.379 . S
C11 C16 1.392 . S
C12 C11 1.379 . S
C12 C13 1.404 . S
C12 H26 0.929 . S
C13 C12 1.404 . S
C13 C14 1.389 . S
C14 C13 1.389 . S
C14 C15 1.399 . S
C14 H27 0.931 . S
C15 C14 1.399 . S
C15 C16 1.390 . S
C16 C11 1.392 . S
C16 C15 1.390 . S
C16 H28 0.929 . S
O17 Tb1 2.326 . S
O17 C5 1.242 . S
O18 Eu2 2.324 . S
O18 C5 1.258 . S
O19 Tb1 2.500 . S
O19 C21 1.273 . S
O20 Tb1 2.473 . S
O20 C21 1.257 . S
C21 O19 1.273 . S
C21 O20 1.257 . S
O22 Eu2 2.326 . S
O22 C10 1.242 . S
O23 Tb1 2.324 . S
O23 C10 1.258 . S
O24 Eu2 2.500 1_556 S
O24 C7 1.273 . S
O25 Eu2 2.473 1_556 S
O25 C7 1.257 . S
H26 C12 0.929 . S
H27 C14 0.931 . S
H28 C16 0.929 . S
O29 Tb30 2.292 . S
O29 C32 1.255 . S
Tb30 O29 2.292 . S
Tb30 O46 2.326 . S
Tb30 O48 2.500 . S
Tb30 O49 2.473 . S
Tb30 O52 2.324 . S
Eu31 O35 2.292 . S
Eu31 C36 2.852 . S
Eu31 O47 2.324 . S
Eu31 O51 2.326 . S
Eu31 O53 2.500 . S
Eu31 O54 2.473 . S
C32 O29 1.255 . S
C32 O33 1.247 . S
O33 C32 1.247 . S
C34 O46 1.242 . S
C34 O47 1.258 . S
O35 Eu31 2.292 . S
O35 C37 1.255 . S
C36 Eu31 2.852 . S
C36 C40 1.503 . S
C36 O53 1.273 . S
C36 O54 1.257 . S
C37 O35 1.255 . S
C37 O38 1.247 . S
O38 C37 1.247 . S
C39 O51 1.242 . S
C39 O52 1.258 . S
C40 C36 1.503 . S
C40 C41 1.379 . S
C40 C45 1.392 . S
C41 C40 1.379 . S
C41 C42 1.404 . S
C41 H55 0.929 . S
C42 C41 1.404 . S
C42 C43 1.389 . S
C43 C42 1.389 . S
C43 C44 1.399 . S
C43 H56 0.931 . S
C44 C43 1.399 . S
C44 C45 1.390 . S
C45 C40 1.392 . S
C45 C44 1.390 . S
C45 H57 0.929 . S
O46 Tb30 2.326 . S
O46 C34 1.242 . S
O47 Eu31 2.324 . S
O47 C34 1.258 . S
O48 Tb30 2.500 . S
O48 C50 1.273 . S
O49 Tb30 2.473 . S
O49 C50 1.257 . S
C50 O48 1.273 . S
C50 O49 1.257 . S
O51 Eu31 2.326 . S
O51 C39 1.242 . S
O52 Tb30 2.324 . S
O52 C39 1.258 . S
O53 Eu31 2.500 . S
O53 C36 1.273 . S
O54 Eu31 2.473 . S
O54 C36 1.257 . S
H55 C41 0.929 . S
H56 C43 0.931 . S
H57 C45 0.929 . S
O58 Tb59 2.292 . S
O58 C61 1.255 . S
Tb59 O58 2.292 . S
Tb59 O75 2.326 . S
Tb59 O77 2.500 . S
Tb59 O78 2.473 . S
Tb59 O81 2.324 . S
Eu60 O64 2.292 1_556 S
Eu60 C65 2.852 1_556 S
Eu60 O76 2.324 . S
Eu60 O80 2.326 . S
Eu60 O82 2.500 1_556 S
Eu60 O83 2.473 1_556 S
C61 O58 1.255 . S
C61 O62 1.247 . S
O62 C61 1.247 . S
C63 O75 1.242 . S
C63 O76 1.258 . S
O64 Eu60 2.292 1_554 S
O64 C66 1.255 1_554 S
C65 Eu60 2.852 1_554 S
C65 C69 1.503 . S
C65 O82 1.273 . S
C65 O83 1.257 . S
C66 O64 1.255 1_556 S
C66 O67 1.247 . S
O67 C66 1.247 . S
C68 O80 1.242 . S
C68 O81 1.258 . S
C69 C65 1.503 . S
C69 C70 1.379 . S
C69 C74 1.392 . S
C70 C69 1.379 . S
C70 C71 1.404 . S
C70 H84 0.929 . S
C71 C70 1.404 . S
C71 C72 1.389 . S
C72 C71 1.389 . S
C72 C73 1.399 . S
C72 H85 0.931 . S
C73 C72 1.399 . S
C73 C74 1.390 . S
C74 C69 1.392 . S
C74 C73 1.390 . S
C74 H86 0.929 . S
O75 Tb59 2.326 . S
O75 C63 1.242 . S
O76 Eu60 2.324 . S
O76 C63 1.258 . S
O77 Tb59 2.500 . S
O77 C79 1.273 . S
O78 Tb59 2.473 . S
O78 C79 1.257 . S
C79 O77 1.273 . S
C79 O78 1.257 . S
O80 Eu60 2.326 . S
O80 C68 1.242 . S
O81 Tb59 2.324 . S
O81 C68 1.258 . S
O82 Eu60 2.500 1_554 S
O82 C65 1.273 . S
O83 Eu60 2.473 1_554 S
O83 C65 1.257 . S
H84 C70 0.929 . S
H85 C72 0.931 . S
H86 C74 0.929 . S
O87 Tb88 2.292 . S
O87 C90 1.255 . S
Tb88 O87 2.292 . S
Tb88 O104 2.326 . S
Tb88 O106 2.500 . S
Tb88 O107 2.473 . S
Tb88 O110 2.324 . S
Eu89 O93 2.292 . S
Eu89 C94 2.852 . S
Eu89 O105 2.324 . S
Eu89 O109 2.326 . S
Eu89 O111 2.500 . S
Eu89 O112 2.473 . S
C90 O87 1.255 . S
C90 O91 1.247 . S
O91 C90 1.247 . S
C92 O104 1.242 . S
C92 O105 1.258 . S
O93 Eu89 2.292 . S
O93 C95 1.255 . S
C94 Eu89 2.852 . S
C94 C98 1.503 . S
C94 O111 1.273 . S
C94 O112 1.257 . S
C95 O93 1.255 . S
C95 O96 1.247 . S
O96 C95 1.247 . S
C97 O109 1.242 . S
C97 O110 1.258 . S
C98 C94 1.503 . S
C98 C99 1.379 . S
C98 C103 1.392 . S
C99 C98 1.379 . S
C99 C100 1.404 . S
C99 H113 0.929 . S
C100 C99 1.404 . S
C100 C101 1.389 . S
C101 C100 1.389 . S
C101 C102 1.399 . S
C101 H114 0.931 . S
C102 C101 1.399 . S
C102 C103 1.390 . S
C103 C98 1.392 . S
C103 C102 1.390 . S
C103 H115 0.929 . S
O104 Tb88 2.326 . S
O104 C92 1.242 . S
O105 Eu89 2.324 . S
O105 C92 1.258 . S
O106 Tb88 2.500 . S
O106 C108 1.273 . S
O107 Tb88 2.473 . S
O107 C108 1.257 . S
C108 O106 1.273 . S
C108 O107 1.257 . S
O109 Eu89 2.326 . S
O109 C97 1.242 . S
O110 Tb88 2.324 . S
O110 C97 1.258 . S
O111 Eu89 2.500 . S
O111 C94 1.273 . S
O112 Eu89 2.473 . S
O112 C94 1.257 . S
H113 C99 0.929 . S
H114 C101 0.931 . S
H115 C103 0.929 . S
O116 Tb117 2.292 . S
O116 C119 1.255 . S
Tb117 O116 2.292 . S
Tb117 O133 2.326 . S
Tb117 O135 2.500 . S
Tb117 O136 2.473 . S
Tb117 O139 2.324 . S
Eu118 O122 2.292 1_556 S
Eu118 C123 2.852 1_556 S
Eu118 O134 2.324 . S
Eu118 O138 2.326 . S
Eu118 O140 2.500 1_556 S
Eu118 O141 2.473 1_556 S
C119 O116 1.255 . S
C119 O120 1.247 . S
O120 C119 1.247 . S
C121 O133 1.242 . S
C121 O134 1.258 . S
O122 Eu118 2.292 1_554 S
O122 C124 1.255 1_554 S
C123 Eu118 2.852 1_554 S
C123 C127 1.503 . S
C123 O140 1.273 . S
C123 O141 1.257 . S
C124 O122 1.255 1_556 S
C124 O125 1.247 . S
O125 C124 1.247 . S
C126 O138 1.242 . S
C126 O139 1.258 . S
C127 C123 1.503 . S
C127 C128 1.379 . S
C127 C132 1.392 . S
C128 C127 1.379 . S
C128 C129 1.404 . S
C128 H142 0.929 . S
C129 C128 1.404 . S
C129 C130 1.389 . S
C130 C129 1.389 . S
C130 C131 1.399 . S
C130 H143 0.931 . S
C131 C130 1.399 . S
C131 C132 1.390 . S
C132 C127 1.392 . S
C132 C131 1.390 . S
C132 H144 0.929 . S
O133 Tb117 2.326 . S
O133 C121 1.242 . S
O134 Eu118 2.324 . S
O134 C121 1.258 . S
O135 Tb117 2.500 . S
O135 C137 1.273 . S
O136 Tb117 2.473 . S
O136 C137 1.257 . S
C137 O135 1.273 . S
C137 O136 1.257 . S
O138 Eu118 2.326 . S
O138 C126 1.242 . S
O139 Tb117 2.324 . S
O139 C126 1.258 . S
O140 Eu118 2.500 1_554 S
O140 C123 1.273 . S
O141 Eu118 2.473 1_554 S
O141 C123 1.257 . S
H142 C128 0.929 . S
H143 C130 0.931 . S
H144 C132 0.929 . S
O145 Tb146 2.292 . S
O145 C148 1.255 . S
Tb146 O145 2.292 . S
Tb146 O162 2.326 . S
Tb146 O164 2.500 . S
Tb146 O165 2.473 . S
Tb146 O168 2.324 . S
Eu147 O151 2.292 . S
Eu147 C152 2.852 . S
Eu147 O163 2.324 . S
Eu147 O167 2.326 . S
Eu147 O169 2.500 . S
Eu147 O170 2.473 . S
C148 O145 1.255 . S
C148 O149 1.247 . S
O149 C148 1.247 . S
C150 O162 1.242 . S
C150 O163 1.258 . S
O151 Eu147 2.292 . S
O151 C153 1.255 . S
C152 Eu147 2.852 . S
C152 C156 1.503 . S
C152 O169 1.273 . S
C152 O170 1.257 . S
C153 O151 1.255 . S
C153 O154 1.247 . S
O154 C153 1.247 . S
C155 O167 1.242 . S
C155 O168 1.258 . S
C156 C152 1.503 . S
C156 C157 1.379 . S
C156 C161 1.392 . S
C157 C156 1.379 . S
C157 C158 1.404 . S
C157 H171 0.929 . S
C158 C157 1.404 . S
C158 C159 1.389 . S
C159 C158 1.389 . S
C159 C160 1.399 . S
C159 H172 0.931 . S
C160 C159 1.399 . S
C160 C161 1.390 . S
C161 C156 1.392 . S
C161 C160 1.390 . S
C161 H173 0.929 . S
O162 Tb146 2.326 . S
O162 C150 1.242 . S
O163 Eu147 2.324 . S
O163 C150 1.258 . S
O164 Tb146 2.500 . S
O164 C166 1.273 . S
O165 Tb146 2.473 . S
O165 C166 1.257 . S
C166 O164 1.273 . S
C166 O165 1.257 . S
O167 Eu147 2.326 . S
O167 C155 1.242 . S
O168 Tb146 2.324 . S
O168 C155 1.258 . S
O169 Eu147 2.500 . S
O169 C152 1.273 . S
O170 Eu147 2.473 . S
O170 C152 1.257 . S
H171 C157 0.929 . S
H172 C159 0.931 . S
H173 C161 0.929 . S
O174 Tb175 2.292 . S
O174 C177 1.255 . S
Tb175 O174 2.292 . S
Tb175 O191 2.326 . S
Tb175 O193 2.500 . S
Tb175 O194 2.473 . S
Tb175 O197 2.324 . S
Eu176 O180 2.292 1_554 S
Eu176 C181 2.852 1_554 S
Eu176 O192 2.324 . S
Eu176 O196 2.326 . S
Eu176 O198 2.500 1_554 S
Eu176 O199 2.473 1_554 S
C177 O174 1.255 . S
C177 O178 1.247 . S
O178 C177 1.247 . S
C179 O191 1.242 . S
C179 O192 1.258 . S
O180 Eu176 2.292 1_556 S
O180 C182 1.255 1_556 S
C181 Eu176 2.852 1_556 S
C181 C185 1.503 . S
C181 O198 1.273 . S
C181 O199 1.257 . S
C182 O180 1.255 1_554 S
C182 O183 1.247 . S
O183 C182 1.247 . S
C184 O196 1.242 . S
C184 O197 1.258 . S
C185 C181 1.503 . S
C185 C186 1.379 . S
C185 C190 1.392 . S
C186 C185 1.379 . S
C186 C187 1.404 . S
C186 H200 0.929 . S
C187 C186 1.404 . S
C187 C188 1.389 . S
C188 C187 1.389 . S
C188 C189 1.399 . S
C188 H201 0.931 . S
C189 C188 1.399 . S
C189 C190 1.390 . S
C190 C185 1.392 . S
C190 C189 1.390 . S
C190 H202 0.929 . S
O191 Tb175 2.326 . S
O191 C179 1.242 . S
O192 Eu176 2.324 . S
O192 C179 1.258 . S
O193 Tb175 2.500 . S
O193 C195 1.273 . S
O194 Tb175 2.473 . S
O194 C195 1.257 . S
C195 O193 1.273 . S
C195 O194 1.257 . S
O196 Eu176 2.326 . S
O196 C184 1.242 . S
O197 Tb175 2.324 . S
O197 C184 1.258 . S
O198 Eu176 2.500 1_556 S
O198 C181 1.273 . S
O199 Eu176 2.473 1_556 S
O199 C181 1.257 . S
H200 C186 0.929 . S
H201 C188 0.931 . S
H202 C190 0.929 . S
O203 Tb204 2.292 . S
O203 C206 1.255 . S
Tb204 O203 2.292 . S
Tb204 O220 2.326 . S
Tb204 O222 2.500 . S
Tb204 O223 2.473 . S
Tb204 O226 2.324 . S
Eu205 O209 2.292 . S
Eu205 C210 2.852 . S
Eu205 O221 2.324 . S
Eu205 O225 2.326 . S
Eu205 O227 2.500 . S
Eu205 O228 2.473 . S
C206 O203 1.255 . S
C206 O207 1.247 . S
O207 C206 1.247 . S
C208 O220 1.242 . S
C208 O221 1.258 . S
O209 Eu205 2.292 . S
O209 C211 1.255 . S
C210 Eu205 2.852 . S
C210 C214 1.503 . S
C210 O227 1.273 . S
C210 O228 1.257 . S
C211 O209 1.255 . S
C211 O212 1.247 . S
O212 C211 1.247 . S
C213 O225 1.242 . S
C213 O226 1.258 . S
C214 C210 1.503 . S
C214 C215 1.379 . S
C214 C219 1.392 . S
C215 C214 1.379 . S
C215 C216 1.404 . S
C215 H229 0.929 . S
C216 C215 1.404 . S
C216 C217 1.389 . S
C217 C216 1.389 . S
C217 C218 1.399 . S
C217 H230 0.931 . S
C218 C217 1.399 . S
C218 C219 1.390 . S
C219 C214 1.392 . S
C219 C218 1.390 . S
C219 H231 0.929 . S
O220 Tb204 2.326 . S
O220 C208 1.242 . S
O221 Eu205 2.324 . S
O221 C208 1.258 . S
O222 Tb204 2.500 . S
O222 C224 1.273 . S
O223 Tb204 2.473 . S
O223 C224 1.257 . S
C224 O222 1.273 . S
C224 O223 1.257 . S
O225 Eu205 2.326 . S
O225 C213 1.242 . S
O226 Tb204 2.324 . S
O226 C213 1.258 . S
O227 Eu205 2.500 . S
O227 C210 1.273 . S
O228 Eu205 2.473 . S
O228 C210 1.257 . S
H229 C215 0.929 . S
H230 C217 0.931 . S
H231 C219 0.929 . S
O232 Tb233 2.292 . S
O232 C235 1.255 . S
Tb233 O232 2.292 . S
Tb233 O249 2.326 . S
Tb233 O251 2.500 . S
Tb233 O252 2.473 . S
Tb233 O255 2.324 . S
Eu234 O238 2.292 1_554 S
Eu234 C239 2.852 1_554 S
Eu234 O250 2.324 . S
Eu234 O254 2.326 . S
Eu234 O256 2.500 1_554 S
Eu234 O257 2.473 1_554 S
C235 O232 1.255 . S
C235 O236 1.247 . S
O236 C235 1.247 . S
C237 O249 1.242 . S
C237 O250 1.258 . S
O238 Eu234 2.292 1_556 S
O238 C240 1.255 1_556 S
C239 Eu234 2.852 1_556 S
C239 C243 1.503 . S
C239 O256 1.273 . S
C239 O257 1.257 . S
C240 O238 1.255 1_554 S
C240 O241 1.247 . S
O241 C240 1.247 . S
C242 O254 1.242 . S
C242 O255 1.258 . S
C243 C239 1.503 . S
C243 C244 1.379 . S
C243 C248 1.392 . S
C244 C243 1.379 . S
C244 C245 1.404 . S
C244 H258 0.929 . S
C245 C244 1.404 . S
C245 C246 1.389 . S
C246 C245 1.389 . S
C246 C247 1.399 . S
C246 H259 0.931 . S
C247 C246 1.399 . S
C247 C248 1.390 . S
C248 C243 1.392 . S
C248 C247 1.390 . S
C248 H260 0.929 . S
O249 Tb233 2.326 . S
O249 C237 1.242 . S
O250 Eu234 2.324 . S
O250 C237 1.258 . S
O251 Tb233 2.500 . S
O251 C253 1.273 . S
O252 Tb233 2.473 . S
O252 C253 1.257 . S
C253 O251 1.273 . S
C253 O252 1.257 . S
O254 Eu234 2.326 . S
O254 C242 1.242 . S
O255 Tb233 2.324 . S
O255 C242 1.258 . S
O256 Eu234 2.500 1_556 S
O256 C239 1.273 . S
O257 Eu234 2.473 1_556 S
O257 C239 1.257 . S
H258 C244 0.929 . S
H259 C246 0.931 . S
H260 C248 0.929 . S
O261 Tb262 2.292 . S
O261 C264 1.255 . S
Tb262 O261 2.292 . S
Tb262 O278 2.326 . S
Tb262 O280 2.500 . S
Tb262 O281 2.473 . S
Tb262 O284 2.324 . S
Eu263 O267 2.292 . S
Eu263 C268 2.852 . S
Eu263 O279 2.324 . S
Eu263 O283 2.326 . S
Eu263 O285 2.500 . S
Eu263 O286 2.473 . S
C264 O261 1.255 . S
C264 O265 1.247 . S
O265 C264 1.247 . S
C266 O278 1.242 . S
C266 O279 1.258 . S
O267 Eu263 2.292 . S
O267 C269 1.255 . S
C268 Eu263 2.852 . S
C268 C272 1.503 . S
C268 O285 1.273 . S
C268 O286 1.257 . S
C269 O267 1.255 . S
C269 O270 1.247 . S
O270 C269 1.247 . S
C271 O283 1.242 . S
C271 O284 1.258 . S
C272 C268 1.503 . S
C272 C273 1.379 . S
C272 C277 1.392 . S
C273 C272 1.379 . S
C273 C274 1.404 . S
C273 H287 0.929 . S
C274 C273 1.404 . S
C274 C275 1.389 . S
C275 C274 1.389 . S
C275 C276 1.399 . S
C275 H288 0.931 . S
C276 C275 1.399 . S
C276 C277 1.390 . S
C277 C272 1.392 . S
C277 C276 1.390 . S
C277 H289 0.929 . S
O278 Tb262 2.326 . S
O278 C266 1.242 . S
O279 Eu263 2.324 . S
O279 C266 1.258 . S
O280 Tb262 2.500 . S
O280 C282 1.273 . S
O281 Tb262 2.473 . S
O281 C282 1.257 . S
C282 O280 1.273 . S
C282 O281 1.257 . S
O283 Eu263 2.326 . S
O283 C271 1.242 . S
O284 Tb262 2.324 . S
O284 C271 1.258 . S
O285 Eu263 2.500 . S
O285 C268 1.273 . S
O286 Eu263 2.473 . S
O286 C268 1.257 . S
H287 C273 0.929 . S
H288 C275 0.931 . S
H289 C277 0.929 . S
O290 Tb291 2.292 . S
O290 C293 1.255 . S
Tb291 O290 2.292 . S
Tb291 O307 2.326 . S
Tb291 O309 2.500 . S
Tb291 O310 2.473 . S
Tb291 O313 2.324 . S
Eu292 O296 2.292 1_556 S
Eu292 C297 2.852 1_556 S
Eu292 O308 2.324 . S
Eu292 O312 2.326 . S
Eu292 O314 2.500 1_556 S
Eu292 O315 2.473 1_556 S
C293 O290 1.255 . S
C293 O294 1.247 . S
O294 C293 1.247 . S
C295 O307 1.242 . S
C295 O308 1.258 . S
O296 Eu292 2.292 1_554 S
O296 C298 1.255 1_554 S
C297 Eu292 2.852 1_554 S
C297 C301 1.503 . S
C297 O314 1.273 . S
C297 O315 1.257 . S
C298 O296 1.255 1_556 S
C298 O299 1.247 . S
O299 C298 1.247 . S
C300 O312 1.242 . S
C300 O313 1.258 . S
C301 C297 1.503 . S
C301 C302 1.379 . S
C301 C306 1.392 . S
C302 C301 1.379 . S
C302 C303 1.404 . S
C302 H316 0.929 . S
C303 C302 1.404 . S
C303 C304 1.389 . S
C304 C303 1.389 . S
C304 C305 1.399 . S
C304 H317 0.931 . S
C305 C304 1.399 . S
C305 C306 1.390 . S
C306 C301 1.392 . S
C306 C305 1.390 . S
C306 H318 0.929 . S
O307 Tb291 2.326 . S
O307 C295 1.242 . S
O308 Eu292 2.324 . S
O308 C295 1.258 . S
O309 Tb291 2.500 . S
O309 C311 1.273 . S
O310 Tb291 2.473 . S
O310 C311 1.257 . S
C311 O309 1.273 . S
C311 O310 1.257 . S
O312 Eu292 2.326 . S
O312 C300 1.242 . S
O313 Tb291 2.324 . S
O313 C300 1.258 . S
O314 Eu292 2.500 1_554 S
O314 C297 1.273 . S
O315 Eu292 2.473 1_554 S
O315 C297 1.257 . S
H316 C302 0.929 . S
H317 C304 0.931 . S
H318 C306 0.929 . S
O319 Tb320 2.292 . S
O319 C322 1.255 . S
Tb320 O319 2.292 . S
Tb320 O336 2.326 . S
Tb320 O338 2.500 . S
Tb320 O339 2.473 . S
Tb320 O342 2.324 . S
Eu321 O325 2.292 . S
Eu321 C326 2.852 . S
Eu321 O337 2.324 . S
Eu321 O341 2.326 . S
Eu321 O343 2.500 . S
Eu321 O344 2.473 . S
C322 O319 1.255 . S
C322 O323 1.247 . S
O323 C322 1.247 . S
C324 O336 1.242 . S
C324 O337 1.258 . S
O325 Eu321 2.292 . S
O325 C327 1.255 . S
C326 Eu321 2.852 . S
C326 C330 1.503 . S
C326 O343 1.273 . S
C326 O344 1.257 . S
C327 O325 1.255 . S
C327 O328 1.247 . S
O328 C327 1.247 . S
C329 O341 1.242 . S
C329 O342 1.258 . S
C330 C326 1.503 . S
C330 C331 1.379 . S
C330 C335 1.392 . S
C331 C330 1.379 . S
C331 C332 1.404 . S
C331 H345 0.929 . S
C332 C331 1.404 . S
C332 C333 1.389 . S
C333 C332 1.389 . S
C333 C334 1.399 . S
C333 H346 0.931 . S
C334 C333 1.399 . S
C334 C335 1.390 . S
C335 C330 1.392 . S
C335 C334 1.390 . S
C335 H347 0.929 . S
O336 Tb320 2.326 . S
O336 C324 1.242 . S
O337 Eu321 2.324 . S
O337 C324 1.258 . S
O338 Tb320 2.500 . S
O338 C340 1.273 . S
O339 Tb320 2.473 . S
O339 C340 1.257 . S
C340 O338 1.273 . S
C340 O339 1.257 . S
O341 Eu321 2.326 . S
O341 C329 1.242 . S
O342 Tb320 2.324 . S
O342 C329 1.258 . S
O343 Eu321 2.500 . S
O343 C326 1.273 . S
O344 Eu321 2.473 . S
O344 C326 1.257 . S
H345 C331 0.929 . S
H346 C333 0.931 . S
H347 C335 0.929 . S
O348 Tb349 2.292 . S
O348 C351 1.255 . S
Tb349 O348 2.292 . S
Tb349 O365 2.326 . S
Tb349 O367 2.500 . S
Tb349 O368 2.473 . S
Tb349 O371 2.324 . S
Eu350 O354 2.292 1_556 S
Eu350 C355 2.852 1_556 S
Eu350 O366 2.324 . S
Eu350 O370 2.326 . S
Eu350 O372 2.500 1_556 S
Eu350 O373 2.473 1_556 S
C351 O348 1.255 . S
C351 O352 1.247 . S
O352 C351 1.247 . S
C353 O365 1.242 . S
C353 O366 1.258 . S
O354 Eu350 2.292 1_554 S
O354 C356 1.255 1_554 S
C355 Eu350 2.852 1_554 S
C355 C359 1.503 . S
C355 O372 1.273 . S
C355 O373 1.257 . S
C356 O354 1.255 1_556 S
C356 O357 1.247 . S
O357 C356 1.247 . S
C358 O370 1.242 . S
C358 O371 1.258 . S
C359 C355 1.503 . S
C359 C360 1.379 . S
C359 C364 1.392 . S
C360 C359 1.379 . S
C360 C361 1.404 . S
C360 H374 0.929 . S
C361 C360 1.404 . S
C361 C362 1.389 . S
C362 C361 1.389 . S
C362 C363 1.399 . S
C362 H375 0.931 . S
C363 C362 1.399 . S
C363 C364 1.390 . S
C364 C359 1.392 . S
C364 C363 1.390 . S
C364 H376 0.929 . S
O365 Tb349 2.326 . S
O365 C353 1.242 . S
O366 Eu350 2.324 . S
O366 C353 1.258 . S
O367 Tb349 2.500 . S
O367 C369 1.273 . S
O368 Tb349 2.473 . S
O368 C369 1.257 . S
C369 O367 1.273 . S
C369 O368 1.257 . S
O370 Eu350 2.326 . S
O370 C358 1.242 . S
O371 Tb349 2.324 . S
O371 C358 1.258 . S
O372 Eu350 2.500 1_554 S
O372 C355 1.273 . S
O373 Eu350 2.473 1_554 S
O373 C355 1.257 . S
H374 C360 0.929 . S
H375 C362 0.931 . S
H376 C364 0.929 . S
O377 Tb378 2.292 . S
O377 C380 1.255 . S
Tb378 O377 2.292 . S
Tb378 O394 2.326 . S
Tb378 O396 2.500 . S
Tb378 O397 2.473 . S
Tb378 O400 2.324 . S
Eu379 O383 2.292 . S
Eu379 C384 2.852 . S
Eu379 O395 2.324 . S
Eu379 O399 2.326 . S
Eu379 O401 2.500 . S
Eu379 O402 2.473 . S
C380 O377 1.255 . S
C380 O381 1.247 . S
O381 C380 1.247 . S
C382 O394 1.242 . S
C382 O395 1.258 . S
O383 Eu379 2.292 . S
O383 C385 1.255 . S
C384 Eu379 2.852 . S
C384 C388 1.503 . S
C384 O401 1.273 . S
C384 O402 1.257 . S
C385 O383 1.255 . S
C385 O386 1.247 . S
O386 C385 1.247 . S
C387 O399 1.242 . S
C387 O400 1.258 . S
C388 C384 1.503 . S
C388 C389 1.379 . S
C388 C393 1.392 . S
C389 C388 1.379 . S
C389 C390 1.404 . S
C389 H403 0.929 . S
C390 C389 1.404 . S
C390 C391 1.389 . S
C391 C390 1.389 . S
C391 C392 1.399 . S
C391 H404 0.931 . S
C392 C391 1.399 . S
C392 C393 1.390 . S
C393 C388 1.392 . S
C393 C392 1.390 . S
C393 H405 0.929 . S
O394 Tb378 2.326 . S
O394 C382 1.242 . S
O395 Eu379 2.324 . S
O395 C382 1.258 . S
O396 Tb378 2.500 . S
O396 C398 1.273 . S
O397 Tb378 2.473 . S
O397 C398 1.257 . S
C398 O396 1.273 . S
C398 O397 1.257 . S
O399 Eu379 2.326 . S
O399 C387 1.242 . S
O400 Tb378 2.324 . S
O400 C387 1.258 . S
O401 Eu379 2.500 . S
O401 C384 1.273 . S
O402 Eu379 2.473 . S
O402 C384 1.257 . S
H403 C389 0.929 . S
H404 C391 0.931 . S
H405 C393 0.929 . S
O406 Tb407 2.292 . S
O406 C409 1.255 . S
Tb407 O406 2.292 . S
Tb407 O423 2.326 . S
Tb407 O425 2.500 . S
Tb407 O426 2.473 . S
Tb407 O429 2.324 . S
Eu408 O412 2.292 1_554 S
Eu408 C413 2.852 1_554 S
Eu408 O424 2.324 . S
Eu408 O428 2.326 . S
Eu408 O430 2.500 1_554 S
Eu408 O431 2.473 1_554 S
C409 O406 1.255 . S
C409 O410 1.247 . S
O410 C409 1.247 . S
C411 O423 1.242 . S
C411 O424 1.258 . S
O412 Eu408 2.292 1_556 S
O412 C414 1.255 1_556 S
C413 Eu408 2.852 1_556 S
C413 C417 1.503 . S
C413 O430 1.273 . S
C413 O431 1.257 . S
C414 O412 1.255 1_554 S
C414 O415 1.247 . S
O415 C414 1.247 . S
C416 O428 1.242 . S
C416 O429 1.258 . S
C417 C413 1.503 . S
C417 C418 1.379 . S
C417 C422 1.392 . S
C418 C417 1.379 . S
C418 C419 1.404 . S
C418 H432 0.929 . S
C419 C418 1.404 . S
C419 C420 1.389 . S
C420 C419 1.389 . S
C420 C421 1.399 . S
C420 H433 0.931 . S
C421 C420 1.399 . S
C421 C422 1.390 . S
C422 C417 1.392 . S
C422 C421 1.390 . S
C422 H434 0.929 . S
O423 Tb407 2.326 . S
O423 C411 1.242 . S
O424 Eu408 2.324 . S
O424 C411 1.258 . S
O425 Tb407 2.500 . S
O425 C427 1.273 . S
O426 Tb407 2.473 . S
O426 C427 1.257 . S
C427 O425 1.273 . S
C427 O426 1.257 . S
O428 Eu408 2.326 . S
O428 C416 1.242 . S
O429 Tb407 2.324 . S
O429 C416 1.258 . S
O430 Eu408 2.500 1_556 S
O430 C413 1.273 . S
O431 Eu408 2.473 1_556 S
O431 C413 1.257 . S
H432 C418 0.929 . S
H433 C420 0.931 . S
H434 C422 0.929 . S
O435 Tb436 2.292 . S
O435 C438 1.255 . S
Tb436 O435 2.292 . S
Tb436 O452 2.326 . S
Tb436 O454 2.500 . S
Tb436 O455 2.473 . S
Tb436 O458 2.324 . S
Eu437 O441 2.292 . S
Eu437 C442 2.852 . S
Eu437 O453 2.324 . S
Eu437 O457 2.326 . S
Eu437 O459 2.500 . S
Eu437 O460 2.473 . S
C438 O435 1.255 . S
C438 O439 1.247 . S
O439 C438 1.247 . S
C440 O452 1.242 . S
C440 O453 1.258 . S
O441 Eu437 2.292 . S
O441 C443 1.255 . S
C442 Eu437 2.852 . S
C442 C446 1.503 . S
C442 O459 1.273 . S
C442 O460 1.257 . S
C443 O441 1.255 . S
C443 O444 1.247 . S
O444 C443 1.247 . S
C445 O457 1.242 . S
C445 O458 1.258 . S
C446 C442 1.503 . S
C446 C447 1.379 . S
C446 C451 1.392 . S
C447 C446 1.379 . S
C447 C448 1.404 . S
C447 H461 0.929 . S
C448 C447 1.404 . S
C448 C449 1.389 . S
C449 C448 1.389 . S
C449 C450 1.399 . S
C449 H462 0.931 . S
C450 C449 1.399 . S
C450 C451 1.390 . S
C451 C446 1.392 . S
C451 C450 1.390 . S
C451 H463 0.929 . S
O452 Tb436 2.326 . S
O452 C440 1.242 . S
O453 Eu437 2.324 . S
O453 C440 1.258 . S
O454 Tb436 2.500 . S
O454 C456 1.273 . S
O455 Tb436 2.473 . S
O455 C456 1.257 . S
C456 O454 1.273 . S
C456 O455 1.257 . S
O457 Eu437 2.326 . S
O457 C445 1.242 . S
O458 Tb436 2.324 . S
O458 C445 1.258 . S
O459 Eu437 2.500 . S
O459 C442 1.273 . S
O460 Eu437 2.473 . S
O460 C442 1.257 . S
H461 C447 0.929 . S
H462 C449 0.931 . S
H463 C451 0.929 . S
H464 C482 0.951 . S
H465 C484 0.951 . S
H466 C486 0.950 . S
H467 C487 0.950 . S
H468 C489 0.948 1_556 S
H469 C492 0.950 . S
H470 C493 0.950 . S
H471 C495 0.950 . S
H472 C496 0.950 1_556 S
H473 C497 0.951 . S
H474 C499 0.951 . S
H475 C501 0.950 . S
H476 C502 0.950 . S
H477 C504 0.950 . S
H478 C507 0.950 . S
H479 C508 0.950 . S
H480 C510 0.950 1_554 S
H481 C511 0.950 . S
C482 H464 0.951 . S
C482 C483 1.366 1_556 S
C482 C484 1.388 . S
C483 C482 1.366 1_554 S
C483 C487 1.385 . S
C484 H465 0.951 . S
C484 C482 1.388 . S
C484 C485 1.366 1_556 S
C485 C484 1.366 1_554 S
C485 C486 1.414 . S
C485 C488 1.499 . S
C486 H466 0.950 . S
C486 C485 1.414 . S
C486 C487 1.374 . S
C487 H467 0.950 . S
C487 C483 1.385 . S
C487 C486 1.374 . S
C488 C485 1.499 . S
C488 C489 1.373 . S
C488 C490 1.389 . S
C489 H468 0.948 1_554 S
C489 C488 1.373 . S
C489 C505 1.377 1_655 S
C490 C488 1.389 . S
C490 C491 1.524 . S
C490 C504 1.377 1_655 S
C491 C490 1.524 . S
C491 C492 1.397 . S
C491 C496 1.363 . S
C492 H469 0.950 . S
C492 C491 1.397 . S
C492 C493 1.334 . S
C493 H470 0.950 . S
C493 C492 1.334 . S
C493 C494 1.287 . S
C494 C493 1.287 . S
C494 C495 1.524 . S
C494 H513 0.913 . S
C495 H471 0.950 . S
C495 C494 1.524 . S
C495 C496 1.415 . S
C496 H472 0.950 1_554 S
C496 C491 1.363 . S
C496 C495 1.415 . S
C497 H473 0.951 . S
C497 C498 1.366 . S
C497 C499 1.388 . S
C498 C497 1.366 . S
C498 C502 1.385 1_554 S
C499 H474 0.951 . S
C499 C497 1.388 . S
C499 C500 1.366 . S
C500 C499 1.366 . S
C500 C501 1.414 1_554 S
C500 C503 1.499 . S
C501 H475 0.950 . S
C501 C500 1.414 1_556 S
C501 C502 1.374 . S
C502 H476 0.950 . S
C502 C498 1.385 1_556 S
C502 C501 1.374 . S
C503 C500 1.499 . S
C503 C504 1.373 . S
C503 C505 1.391 . S
C504 H477 0.950 . S
C504 C490 1.377 1_455 S
C504 C503 1.373 . S
C505 C489 1.377 1_455 S
C505 C503 1.391 . S
C505 C506 1.522 1_554 S
C506 C505 1.522 1_556 S
C506 C507 1.397 . S
C506 C511 1.363 1_556 S
C507 H478 0.950 . S
C507 C506 1.397 . S
C507 C508 1.334 . S
C508 H479 0.950 . S
C508 C507 1.334 . S
C508 C509 1.287 . S
C509 C508 1.287 . S
C509 C510 1.524 . S
C509 H512 0.999 . S
C510 H480 0.950 1_556 S
C510 C509 1.524 . S
C510 C511 1.415 1_556 S
C511 H481 0.950 . S
C511 C506 1.363 1_554 S
C511 C510 1.415 1_554 S
H512 C509 0.999 . S
H513 C494 0.913 . S
H514 C532 0.951 . S
H515 C534 0.951 . S
H516 C536 0.950 . S
H517 C537 0.950 . S
H518 C539 0.950 . S
H519 C542 0.950 . S
H520 C543 0.950 . S
H521 C545 0.950 . S
H522 C546 0.950 . S
H523 C547 0.951 . S
H524 C549 0.951 . S
H525 C551 0.950 . S
H526 C552 0.950 . S
H527 C554 0.950 . S
H528 C557 0.950 . S
H529 C558 0.950 . S
H530 C560 0.950 . S
H531 C561 0.950 . S
C532 H514 0.951 . S
C532 C533 1.366 . S
C532 C534 1.388 . S
C533 C532 1.366 . S
C533 C537 1.385 . S
C534 H515 0.951 . S
C534 C532 1.388 . S
C534 C535 1.366 . S
C535 C534 1.366 . S
C535 C536 1.414 . S
C535 C538 1.499 . S
C536 H516 0.950 . S
C536 C535 1.414 . S
C536 C537 1.374 . S
C537 H517 0.950 . S
C537 C533 1.385 . S
C537 C536 1.374 . S
C538 C535 1.499 . S
C538 C539 1.373 . S
C538 C540 1.389 . S
C539 H518 0.950 . S
C539 C538 1.373 . S
C539 C555 1.377 . S
C540 C538 1.389 . S
C540 C541 1.524 . S
C540 C554 1.377 . S
C541 C540 1.524 . S
C541 C542 1.397 . S
C541 C546 1.363 . S
C542 H519 0.950 . S
C542 C541 1.397 . S
C542 C543 1.334 . S
C543 H520 0.950 . S
C543 C542 1.334 . S
C543 C544 1.287 . S
C544 C543 1.287 . S
C544 C545 1.524 . S
C544 H563 0.913 . S
C545 H521 0.950 . S
C545 C544 1.524 . S
C545 C546 1.415 . S
C546 H522 0.950 . S
C546 C541 1.363 . S
C546 C545 1.415 . S
C547 H523 0.951 . S
C547 C548 1.366 . S
C547 C549 1.388 . S
C548 C547 1.366 . S
C548 C552 1.385 . S
C549 H524 0.951 . S
C549 C547 1.388 . S
C549 C550 1.366 . S
C550 C549 1.366 . S
C550 C551 1.414 . S
C550 C553 1.499 . S
C551 H525 0.950 . S
C551 C550 1.414 . S
C551 C552 1.374 . S
C552 H526 0.950 . S
C552 C548 1.385 . S
C552 C551 1.374 . S
C553 C550 1.499 . S
C553 C554 1.373 . S
C553 C555 1.389 . S
C554 H527 0.950 . S
C554 C540 1.377 . S
C554 C553 1.373 . S
C555 C539 1.377 . S
C555 C553 1.389 . S
C555 C556 1.524 . S
C556 C555 1.524 . S
C556 C557 1.397 . S
C556 C561 1.363 . S
C557 H528 0.950 . S
C557 C556 1.397 . S
C557 C558 1.334 . S
C558 H529 0.950 . S
C558 C557 1.334 . S
C558 C559 1.287 . S
C559 C558 1.287 . S
C559 C560 1.524 . S
C559 H562 0.999 . S
C560 H530 0.950 . S
C560 C559 1.524 . S
C560 C561 1.415 . S
C561 H531 0.950 . S
C561 C556 1.363 . S
C561 C560 1.415 . S
H562 C559 0.999 . S
H563 C544 0.913 . S
H564 C582 0.951 . S
H565 C584 0.951 . S
H566 C586 0.950 . S
H567 C587 0.950 . S
H568 C589 0.950 . S
H569 C592 0.950 . S
H570 C593 0.950 . S
H571 C595 0.950 . S
H572 C596 0.950 . S
H573 C597 0.951 . S
H574 C599 0.951 . S
H575 C601 0.950 . S
H576 C602 0.950 . S
H577 C604 0.950 . S
H578 C607 0.950 . S
H579 C608 0.950 . S
H580 C610 0.950 . S
H581 C611 0.950 . S
C582 H564 0.951 . S
C582 C583 1.366 . S
C582 C584 1.388 . S
C583 C582 1.366 . S
C583 C587 1.385 1_556 S
C584 H565 0.951 . S
C584 C582 1.388 . S
C584 C585 1.366 . S
C585 C584 1.366 . S
C585 C586 1.414 1_556 S
C585 C588 1.499 . S
C586 H566 0.950 . S
C586 C585 1.414 1_554 S
C586 C587 1.374 . S
C587 H567 0.950 . S
C587 C583 1.385 1_554 S
C587 C586 1.374 . S
C588 C585 1.499 . S
C588 C589 1.373 . S
C588 C590 1.389 1_556 S
C589 H568 0.950 . S
C589 C588 1.373 . S
C589 C605 1.377 1_655 S
C590 C588 1.389 1_554 S
C590 C591 1.524 . S
C590 C604 1.377 1_655 S
C591 C590 1.524 . S
C591 C592 1.397 . S
C591 C596 1.363 . S
C592 H569 0.950 . S
C592 C591 1.397 . S
C592 C593 1.334 . S
C593 H570 0.950 . S
C593 C592 1.334 . S
C593 C594 1.287 . S
C594 C593 1.287 . S
C594 C595 1.524 . S
C594 H613 0.913 . S
C595 H571 0.950 . S
C595 C594 1.524 . S
C595 C596 1.415 . S
C596 H572 0.950 . S
C596 C591 1.363 . S
C596 C595 1.415 . S
C597 H573 0.951 . S
C597 C598 1.366 1_554 S
C597 C599 1.388 . S
C598 C597 1.366 1_556 S
C598 C602 1.385 . S
C599 H574 0.951 . S
C599 C597 1.388 . S
C599 C600 1.366 1_554 S
C600 C599 1.366 1_556 S
C600 C601 1.414 . S
C600 C603 1.499 . S
C601 H575 0.950 . S
C601 C600 1.414 . S
C601 C602 1.374 . S
C602 H576 0.950 . S
C602 C598 1.385 . S
C602 C601 1.374 . S
C603 C600 1.499 . S
C603 C604 1.373 1_556 S
C603 C605 1.389 . S
C604 H577 0.950 . S
C604 C590 1.377 1_455 S
C604 C603 1.373 1_554 S
C605 C589 1.377 1_455 S
C605 C603 1.389 . S
C605 C606 1.524 . S
C606 C605 1.524 . S
C606 C607 1.397 . S
C606 C611 1.363 . S
C607 H578 0.950 . S
C607 C606 1.397 . S
C607 C608 1.334 . S
C608 H579 0.950 . S
C608 C607 1.334 . S
C608 C609 1.287 . S
C609 C608 1.287 . S
C609 C610 1.524 . S
C609 H612 0.999 . S
C610 H580 0.950 . S
C610 C609 1.524 . S
C610 C611 1.415 . S
C611 H581 0.950 . S
C611 C606 1.363 . S
C611 C610 1.415 . S
H612 C609 0.999 . S
H613 C594 0.913 . S
H614 C632 0.951 . S
H615 C634 0.951 . S
H616 C636 0.950 . S
H617 C637 0.950 . S
H618 C639 0.950 . S
H619 C642 0.950 . S
H620 C643 0.950 . S
H621 C645 0.950 . S
H622 C646 0.950 . S
H623 C647 0.951 . S
H624 C649 0.951 . S
H625 C651 0.950 . S
H626 C652 0.950 . S
H627 C654 0.950 . S
H628 C657 0.950 . S
H629 C658 0.950 . S
H630 C660 0.950 . S
H631 C661 0.950 . S
C632 H614 0.951 . S
C632 C633 1.366 . S
C632 C634 1.388 . S
C633 C632 1.366 . S
C633 C637 1.385 . S
C634 H615 0.951 . S
C634 C632 1.388 . S
C634 C635 1.366 . S
C635 C634 1.366 . S
C635 C636 1.414 . S
C635 C638 1.499 . S
C636 H616 0.950 . S
C636 C635 1.414 . S
C636 C637 1.374 . S
C637 H617 0.950 . S
C637 C633 1.385 . S
C637 C636 1.374 . S
C638 C635 1.499 . S
C638 C639 1.373 . S
C638 C640 1.389 . S
C639 H618 0.950 . S
C639 C638 1.373 . S
C639 C655 1.377 . S
C640 C638 1.389 . S
C640 C641 1.524 . S
C640 C654 1.377 . S
C641 C640 1.524 . S
C641 C642 1.397 . S
C641 C646 1.363 . S
C642 H619 0.950 . S
C642 C641 1.397 . S
C642 C643 1.334 . S
C643 H620 0.950 . S
C643 C642 1.334 . S
C643 C644 1.287 . S
C644 C643 1.287 . S
C644 C645 1.524 . S
C644 H663 0.913 . S
C645 H621 0.950 . S
C645 C644 1.524 . S
C645 C646 1.415 . S
C646 H622 0.950 . S
C646 C641 1.363 . S
C646 C645 1.415 . S
C647 H623 0.951 . S
C647 C648 1.366 . S
C647 C649 1.388 . S
C648 C647 1.366 . S
C648 C652 1.385 . S
C649 H624 0.951 . S
C649 C647 1.388 . S
C649 C650 1.366 . S
C650 C649 1.366 . S
C650 C651 1.414 . S
C650 C653 1.499 . S
C651 H625 0.950 . S
C651 C650 1.414 . S
C651 C652 1.374 . S
C652 H626 0.950 . S
C652 C648 1.385 . S
C652 C651 1.374 . S
C653 C650 1.499 . S
C653 C654 1.373 . S
C653 C655 1.389 . S
C654 H627 0.950 . S
C654 C640 1.377 . S
C654 C653 1.373 . S
C655 C639 1.377 . S
C655 C653 1.389 . S
C655 C656 1.524 . S
C656 C655 1.524 . S
C656 C657 1.397 . S
C656 C661 1.363 . S
C657 H628 0.950 . S
C657 C656 1.397 . S
C657 C658 1.334 . S
C658 H629 0.950 . S
C658 C657 1.334 . S
C658 C659 1.287 . S
C659 C658 1.287 . S
C659 C660 1.524 . S
C659 H662 0.999 . S
C660 H630 0.950 . S
C660 C659 1.524 . S
C660 C661 1.415 . S
C661 H631 0.950 . S
C661 C656 1.363 . S
C661 C660 1.415 . S
H662 C659 0.999 . S
H663 C644 0.913 . S
H664 C682 0.951 . S
H665 C684 0.951 . S
H666 C686 0.950 . S
H667 C687 0.950 . S
H668 C689 0.950 . S
H669 C692 0.950 . S
H670 C693 0.950 . S
H671 C695 0.950 . S
H672 C696 0.950 . S
H673 C697 0.951 . S
H674 C699 0.951 . S
H675 C701 0.950 . S
H676 C702 0.950 . S
H677 C704 0.950 . S
H678 C707 0.950 . S
H679 C708 0.950 . S
H680 C710 0.950 . S
H681 C711 0.950 . S
C682 H664 0.951 . S
C682 C683 1.366 1_556 S
C682 C684 1.388 . S
C683 C682 1.366 1_554 S
C683 C687 1.385 . S
C684 H665 0.951 . S
C684 C682 1.388 . S
C684 C685 1.366 1_556 S
C685 C684 1.366 1_554 S
C685 C686 1.414 . S
C685 C688 1.499 . S
C686 H666 0.950 . S
C686 C685 1.414 . S
C686 C687 1.374 . S
C687 H667 0.950 . S
C687 C683 1.385 . S
C687 C686 1.374 . S
C688 C685 1.499 . S
C688 C689 1.373 1_554 S
C688 C690 1.389 . S
C689 H668 0.950 . S
C689 C688 1.373 1_556 S
C689 C705 1.377 . S
C690 C688 1.389 . S
C690 C691 1.524 . S
C690 C704 1.377 . S
C691 C690 1.524 . S
C691 C692 1.397 . S
C691 C696 1.363 . S
C692 H669 0.950 . S
C692 C691 1.397 . S
C692 C693 1.334 . S
C693 H670 0.950 . S
C693 C692 1.334 . S
C693 C694 1.287 . S
C694 C693 1.287 . S
C694 C695 1.524 . S
C694 H713 0.913 . S
C695 H671 0.950 . S
C695 C694 1.524 . S
C695 C696 1.415 . S
C696 H672 0.950 . S
C696 C691 1.363 . S
C696 C695 1.415 . S
C697 H673 0.951 . S
C697 C698 1.366 . S
C697 C699 1.388 . S
C698 C697 1.366 . S
C698 C702 1.385 1_554 S
C699 H674 0.951 . S
C699 C697 1.388 . S
C699 C700 1.366 . S
C700 C699 1.366 . S
C700 C701 1.414 1_554 S
C700 C703 1.499 . S
C701 H675 0.950 . S
C701 C700 1.414 1_556 S
C701 C702 1.374 . S
C702 H676 0.950 . S
C702 C698 1.385 1_556 S
C702 C701 1.374 . S
C703 C700 1.499 . S
C703 C704 1.373 . S
C703 C705 1.389 1_554 S
C704 H677 0.950 . S
C704 C690 1.377 . S
C704 C703 1.373 . S
C705 C689 1.377 . S
C705 C703 1.389 1_556 S
C705 C706 1.524 . S
C706 C705 1.524 . S
C706 C707 1.397 . S
C706 C711 1.363 . S
C707 H678 0.950 . S
C707 C706 1.397 . S
C707 C708 1.334 . S
C708 H679 0.950 . S
C708 C707 1.334 . S
C708 C709 1.287 . S
C709 C708 1.287 . S
C709 C710 1.524 . S
C709 H712 0.999 . S
C710 H680 0.950 . S
C710 C709 1.524 . S
C710 C711 1.415 . S
C711 H681 0.950 . S
C711 C706 1.363 . S
C711 C710 1.415 . S
H712 C709 0.999 . S
H713 C694 0.913 . S
H714 C732 0.951 . S
H715 C734 0.951 . S
H716 C736 0.950 . S
H717 C737 0.950 . S
H718 C739 0.950 . S
H719 C742 0.950 . S
H720 C743 0.950 . S
H721 C745 0.950 . S
H722 C746 0.950 . S
H723 C747 0.951 . S
H724 C749 0.951 . S
H725 C751 0.950 . S
H726 C752 0.950 . S
H727 C754 0.950 . S
H728 C757 0.950 . S
H729 C758 0.950 . S
H730 C760 0.950 . S
H731 C761 0.950 . S
C732 H714 0.951 . S
C732 C733 1.366 . S
C732 C734 1.388 . S
C733 C732 1.366 . S
C733 C737 1.385 . S
C734 H715 0.951 . S
C734 C732 1.388 . S
C734 C735 1.366 . S
C735 C734 1.366 . S
C735 C736 1.414 . S
C735 C738 1.499 . S
C736 H716 0.950 . S
C736 C735 1.414 . S
C736 C737 1.374 . S
C737 H717 0.950 . S
C737 C733 1.385 . S
C737 C736 1.374 . S
C738 C735 1.499 . S
C738 C739 1.373 . S
C738 C740 1.389 . S
C739 H718 0.950 . S
C739 C738 1.373 . S
C739 C755 1.377 1_455 S
C740 C738 1.389 . S
C740 C741 1.524 . S
C740 C754 1.377 1_455 S
C741 C740 1.524 . S
C741 C742 1.397 . S
C741 C746 1.363 . S
C742 H719 0.950 . S
C742 C741 1.397 . S
C742 C743 1.334 . S
C743 H720 0.950 . S
C743 C742 1.334 . S
C743 C744 1.287 . S
C744 C743 1.287 . S
C744 C745 1.524 . S
C744 H763 0.913 . S
C745 H721 0.950 . S
C745 C744 1.524 . S
C745 C746 1.415 . S
C746 H722 0.950 . S
C746 C741 1.363 . S
C746 C745 1.415 . S
C747 H723 0.951 . S
C747 C748 1.366 . S
C747 C749 1.388 . S
C748 C747 1.366 . S
C748 C752 1.385 . S
C749 H724 0.951 . S
C749 C747 1.388 . S
C749 C750 1.366 . S
C750 C749 1.366 . S
C750 C751 1.414 . S
C750 C753 1.499 . S
C751 H725 0.950 . S
C751 C750 1.414 . S
C751 C752 1.374 . S
C752 H726 0.950 . S
C752 C748 1.385 . S
C752 C751 1.374 . S
C753 C750 1.499 . S
C753 C754 1.373 . S
C753 C755 1.389 . S
C754 H727 0.950 . S
C754 C740 1.377 1_655 S
C754 C753 1.373 . S
C755 C739 1.377 1_655 S
C755 C753 1.389 . S
C755 C756 1.524 . S
C756 C755 1.524 . S
C756 C757 1.397 . S
C756 C761 1.363 . S
C757 H728 0.950 . S
C757 C756 1.397 . S
C757 C758 1.334 . S
C758 H729 0.950 . S
C758 C757 1.334 . S
C758 C759 1.287 . S
C759 C758 1.287 . S
C759 C760 1.524 . S
C759 H762 0.999 . S
C760 H730 0.950 . S
C760 C759 1.524 . S
C760 C761 1.415 . S
C761 H731 0.950 . S
C761 C756 1.363 . S
C761 C760 1.415 . S
H762 C759 0.999 . S
H763 C744 0.913 . S
H764 C782 0.951 . S
H765 C784 0.951 . S
H766 C786 0.950 . S
H767 C787 0.950 . S
H768 C789 0.950 . S
H769 C792 0.950 1_556 S
H770 C793 0.950 . S
H771 C795 0.950 . S
H772 C796 0.950 . S
H773 C797 0.951 . S
H774 C799 0.951 . S
H775 C801 0.950 . S
H776 C802 0.950 . S
H777 C804 0.950 . S
H778 C807 0.950 . S
H779 C808 0.950 . S
H780 C810 0.950 . S
H781 C811 0.950 . S
C782 H764 0.951 . S
C782 C783 1.366 1_554 S
C782 C784 1.388 . S
C783 C782 1.366 1_556 S
C783 C787 1.385 . S
C784 H765 0.951 . S
C784 C782 1.388 . S
C784 C785 1.366 1_554 S
C785 C784 1.366 1_556 S
C785 C786 1.414 . S
C785 C788 1.499 . S
C786 H766 0.950 . S
C786 C785 1.414 . S
C786 C787 1.374 . S
C787 H767 0.950 . S
C787 C783 1.385 . S
C787 C786 1.374 . S
C788 C785 1.499 . S
C788 C789 1.373 . S
C788 C790 1.389 1_556 S
C789 H768 0.950 . S
C789 C788 1.373 . S
C789 C805 1.377 . S
C790 C788 1.389 1_554 S
C790 C791 1.524 . S
C790 C804 1.377 . S
C791 C790 1.524 . S
C791 C792 1.397 . S
C791 C796 1.363 . S
C792 H769 0.950 1_554 S
C792 C791 1.397 . S
C792 C793 1.334 . S
C793 H770 0.950 . S
C793 C792 1.334 . S
C793 C794 1.287 . S
C794 C793 1.287 . S
C794 C795 1.524 . S
C794 H813 0.913 . S
C795 H771 0.950 . S
C795 C794 1.524 . S
C795 C796 1.415 . S
C796 H772 0.950 . S
C796 C791 1.363 . S
C796 C795 1.415 . S
C797 H773 0.951 . S
C797 C798 1.366 . S
C797 C799 1.388 . S
C798 C797 1.366 . S
C798 C802 1.385 1_556 S
C799 H774 0.951 . S
C799 C797 1.388 . S
C799 C800 1.366 . S
C800 C799 1.366 . S
C800 C801 1.414 1_556 S
C800 C803 1.499 . S
C801 H775 0.950 . S
C801 C800 1.414 1_554 S
C801 C802 1.374 . S
C802 H776 0.950 . S
C802 C798 1.385 1_554 S
C802 C801 1.374 . S
C803 C800 1.499 . S
C803 C804 1.373 1_556 S
C803 C805 1.389 . S
C804 H777 0.950 . S
C804 C790 1.377 . S
C804 C803 1.373 1_554 S
C805 C789 1.377 . S
C805 C803 1.389 . S
C805 C806 1.524 . S
C806 C805 1.524 . S
C806 C807 1.397 . S
C806 C811 1.363 . S
C807 H778 0.950 . S
C807 C806 1.397 . S
C807 C808 1.334 . S
C808 H779 0.950 . S
C808 C807 1.334 . S
C808 C809 1.287 . S
C809 C808 1.287 . S
C809 C810 1.524 . S
C809 H812 0.999 . S
C810 H780 0.950 . S
C810 C809 1.524 . S
C810 C811 1.415 . S
C811 H781 0.950 . S
C811 C806 1.363 . S
C811 C810 1.415 . S
H812 C809 0.999 . S
H813 C794 0.913 . S
H814 C832 0.951 . S
H815 C834 0.951 . S
H816 C836 0.950 . S
H817 C837 0.950 . S
H818 C839 0.950 . S
H819 C842 0.950 . S
H820 C843 0.950 . S
H821 C845 0.950 . S
H822 C846 0.950 . S
H823 C847 0.951 . S
H824 C849 0.951 . S
H825 C851 0.950 . S
H826 C852 0.950 . S
H827 C854 0.950 . S
H828 C857 0.950 . S
H829 C858 0.950 . S
H830 C860 0.950 . S
H831 C861 0.950 . S
C832 H814 0.951 . S
C832 C833 1.366 . S
C832 C834 1.388 . S
C833 C832 1.366 . S
C833 C837 1.385 . S
C834 H815 0.951 . S
C834 C832 1.388 . S
C834 C835 1.366 . S
C835 C834 1.366 . S
C835 C836 1.414 . S
C835 C838 1.499 . S
C836 H816 0.950 . S
C836 C835 1.414 . S
C836 C837 1.374 . S
C837 H817 0.950 . S
C837 C833 1.385 . S
C837 C836 1.374 . S
C838 C835 1.499 . S
C838 C839 1.373 . S
C838 C840 1.389 . S
C839 H818 0.950 . S
C839 C838 1.373 . S
C839 C855 1.377 1_455 S
C840 C838 1.389 . S
C840 C841 1.524 . S
C840 C854 1.377 1_455 S
C841 C840 1.524 . S
C841 C842 1.397 . S
C841 C846 1.363 . S
C842 H819 0.950 . S
C842 C841 1.397 . S
C842 C843 1.334 . S
C843 H820 0.950 . S
C843 C842 1.334 . S
C843 C844 1.287 . S
C844 C843 1.287 . S
C844 C845 1.524 . S
C844 H863 0.913 . S
C845 H821 0.950 . S
C845 C844 1.524 . S
C845 C846 1.415 . S
C846 H822 0.950 . S
C846 C841 1.363 . S
C846 C845 1.415 . S
C847 H823 0.951 . S
C847 C848 1.366 . S
C847 C849 1.388 . S
C848 C847 1.366 . S
C848 C852 1.385 . S
C849 H824 0.951 . S
C849 C847 1.388 . S
C849 C850 1.366 . S
C850 C849 1.366 . S
C850 C851 1.414 . S
C850 C853 1.499 . S
C851 H825 0.950 . S
C851 C850 1.414 . S
C851 C852 1.374 . S
C852 H826 0.950 . S
C852 C848 1.385 . S
C852 C851 1.374 . S
C853 C850 1.499 . S
C853 C854 1.373 . S
C853 C855 1.389 . S
C854 H827 0.950 . S
C854 C840 1.377 1_655 S
C854 C853 1.373 . S
C855 C839 1.377 1_655 S
C855 C853 1.389 . S
C855 C856 1.524 . S
C856 C855 1.524 . S
C856 C857 1.397 . S
C856 C861 1.363 . S
C857 H828 0.950 . S
C857 C856 1.397 . S
C857 C858 1.334 . S
C858 H829 0.950 . S
C858 C857 1.334 . S
C858 C859 1.287 . S
C859 C858 1.287 . S
C859 C860 1.524 . S
C859 H862 0.999 . S
C860 H830 0.950 . S
C860 C859 1.524 . S
C860 C861 1.415 . S
C861 H831 0.950 . S
C861 C856 1.363 . S
C861 C860 1.415 . S
H862 C859 0.999 . S
H863 C844 0.913 . S
H864 C882 0.951 . S
H865 C884 0.951 . S
H866 C886 0.950 . S
H867 C887 0.950 . S
H868 C889 0.950 . S
H869 C892 0.950 . S
H870 C893 0.950 . S
H871 C895 0.950 . S
H872 C896 0.950 . S
H873 C897 0.951 . S
H874 C899 0.951 . S
H875 C901 0.950 . S
H876 C902 0.950 . S
H877 C904 0.950 . S
H878 C907 0.950 . S
H879 C908 0.950 . S
H880 C910 0.950 . S
H881 C911 0.950 . S
C882 H864 0.951 . S
C882 C883 1.366 . S
C882 C884 1.388 . S
C883 C882 1.366 . S
C883 C887 1.385 . S
C884 H865 0.951 . S
C884 C882 1.388 . S
C884 C885 1.366 . S
C885 C884 1.366 . S
C885 C886 1.414 . S
C885 C888 1.499 . S
C886 H866 0.950 . S
C886 C885 1.414 . S
C886 C887 1.374 . S
C887 H867 0.950 . S
C887 C883 1.385 . S
C887 C886 1.374 . S
C888 C885 1.499 . S
C888 C889 1.373 . S
C888 C890 1.389 . S
C889 H868 0.950 . S
C889 C888 1.373 . S
C889 C905 1.377 . S
C890 C888 1.389 . S
C890 C891 1.524 . S
C890 C904 1.377 . S
C891 C890 1.524 . S
C891 C892 1.397 . S
C891 C896 1.363 . S
C892 H869 0.950 . S
C892 C891 1.397 . S
C892 C893 1.334 . S
C893 H870 0.950 . S
C893 C892 1.334 . S
C893 C894 1.287 . S
C894 C893 1.287 . S
C894 C895 1.524 . S
C894 H913 0.913 . S
C895 H871 0.950 . S
C895 C894 1.524 . S
C895 C896 1.415 . S
C896 H872 0.950 . S
C896 C891 1.363 . S
C896 C895 1.415 . S
C897 H873 0.951 . S
C897 C898 1.366 . S
C897 C899 1.388 . S
C898 C897 1.366 . S
C898 C902 1.385 . S
C899 H874 0.951 . S
C899 C897 1.388 . S
C899 C900 1.366 . S
C900 C899 1.366 . S
C900 C901 1.414 . S
C900 C903 1.499 . S
C901 H875 0.950 . S
C901 C900 1.414 . S
C901 C902 1.374 . S
C902 H876 0.950 . S
C902 C898 1.385 . S
C902 C901 1.374 . S
C903 C900 1.499 . S
C903 C904 1.373 . S
C903 C905 1.389 . S
C904 H877 0.950 . S
C904 C890 1.377 . S
C904 C903 1.373 . S
C905 C889 1.377 . S
C905 C903 1.389 . S
C905 C906 1.524 . S
C906 C905 1.524 . S
C906 C907 1.397 . S
C906 C911 1.363 . S
C907 H878 0.950 . S
C907 C906 1.397 . S
C907 C908 1.334 . S
C908 H879 0.950 . S
C908 C907 1.334 . S
C908 C909 1.287 . S
C909 C908 1.287 . S
C909 C910 1.524 . S
C909 H912 0.999 . S
C910 H880 0.950 . S
C910 C909 1.524 . S
C910 C911 1.415 . S
C911 H881 0.950 . S
C911 C906 1.363 . S
C911 C910 1.415 . S
H912 C909 0.999 . S
H913 C894 0.913 . S
H914 C932 0.951 . S
H915 C934 0.951 . S
H916 C936 0.950 . S
H917 C937 0.950 . S
H918 C939 0.950 . S
H919 C942 0.950 . S
H920 C943 0.950 . S
H921 C945 0.950 . S
H922 C946 0.950 . S
H923 C947 0.951 . S
H924 C949 0.951 . S
H925 C951 0.950 . S
H926 C952 0.950 . S
H927 C954 0.950 . S
H928 C957 0.950 . S
H929 C958 0.950 . S
H930 C960 0.950 . S
H931 C961 0.950 . S
C932 H914 0.951 . S
C932 C933 1.366 . S
C932 C934 1.388 . S
C933 C932 1.366 . S
C933 C937 1.385 . S
C934 H915 0.951 . S
C934 C932 1.388 . S
C934 C935 1.366 . S
C935 C934 1.366 . S
C935 C936 1.414 . S
C935 C938 1.499 . S
C936 H916 0.950 . S
C936 C935 1.414 . S
C936 C937 1.374 . S
C937 H917 0.950 . S
C937 C933 1.385 . S
C937 C936 1.374 . S
C938 C935 1.499 . S
C938 C939 1.373 . S
C938 C940 1.389 . S
C939 H918 0.950 . S
C939 C938 1.373 . S
C939 C955 1.377 . S
C940 C938 1.389 . S
C940 C941 1.524 . S
C940 C954 1.377 . S
C941 C940 1.524 . S
C941 C942 1.397 . S
C941 C946 1.363 . S
C942 H919 0.950 . S
C942 C941 1.397 . S
C942 C943 1.334 . S
C943 H920 0.950 . S
C943 C942 1.334 . S
C943 C944 1.287 . S
C944 C943 1.287 . S
C944 C945 1.524 . S
C944 H963 0.913 . S
C945 H921 0.950 . S
C945 C944 1.524 . S
C945 C946 1.415 . S
C946 H922 0.950 . S
C946 C941 1.363 . S
C946 C945 1.415 . S
C947 H923 0.951 . S
C947 C948 1.366 . S
C947 C949 1.388 . S
C948 C947 1.366 . S
C948 C952 1.385 . S
C949 H924 0.951 . S
C949 C947 1.388 . S
C949 C950 1.366 . S
C950 C949 1.366 . S
C950 C951 1.414 . S
C950 C953 1.499 . S
C951 H925 0.950 . S
C951 C950 1.414 . S
C951 C952 1.374 . S
C952 H926 0.950 . S
C952 C948 1.385 . S
C952 C951 1.374 . S
C953 C950 1.499 . S
C953 C954 1.373 . S
C953 C955 1.389 . S
C954 H927 0.950 . S
C954 C940 1.377 . S
C954 C953 1.373 . S
C955 C939 1.377 . S
C955 C953 1.389 . S
C955 C956 1.524 . S
C956 C955 1.524 . S
C956 C957 1.397 . S
C956 C961 1.363 . S
C957 H928 0.950 . S
C957 C956 1.397 . S
C957 C958 1.334 . S
C958 H929 0.950 . S
C958 C957 1.334 . S
C958 C959 1.287 . S
C959 C958 1.287 . S
C959 C960 1.524 . S
C959 H962 0.999 . S
C960 H930 0.950 . S
C960 C959 1.524 . S
C960 C961 1.415 . S
C961 H931 0.950 . S
C961 C956 1.363 . S
C961 C960 1.415 . S
H962 C959 0.999 . S
H963 C944 0.913 . S
H964 C982 0.951 . S
H965 C984 0.951 . S
H966 C986 0.950 . S
H967 C987 0.950 . S
H968 C989 0.950 . S
H969 C992 0.950 . S
H970 C993 0.950 . S
H971 C995 0.950 . S
H972 C996 0.950 . S
H973 C997 0.951 . S
H974 C999 0.951 . S
H975 C1001 0.950 . S
H976 C1002 0.950 . S
H977 C1004 0.950 . S
H978 C1007 0.950 . S
H979 C1008 0.950 . S
H980 C1010 0.950 . S
H981 C1011 0.950 . S
C982 H964 0.951 . S
C982 C983 1.366 . S
C982 C984 1.388 . S
C983 C982 1.366 . S
C983 C987 1.385 . S
C984 H965 0.951 . S
C984 C982 1.388 . S
C984 C985 1.366 . S
C985 C984 1.366 . S
C985 C986 1.414 . S
C985 C988 1.499 . S
C986 H966 0.950 . S
C986 C985 1.414 . S
C986 C987 1.374 . S
C987 H967 0.950 . S
C987 C983 1.385 . S
C987 C986 1.374 . S
C988 C985 1.499 . S
C988 C989 1.373 . S
C988 C990 1.389 . S
C989 H968 0.950 . S
C989 C988 1.373 . S
C989 C1005 1.377 . S
C990 C988 1.389 . S
C990 C991 1.524 . S
C990 C1004 1.377 . S
C991 C990 1.524 . S
C991 C992 1.397 . S
C991 C996 1.363 . S
C992 H969 0.950 . S
C992 C991 1.397 . S
C992 C993 1.334 . S
C993 H970 0.950 . S
C993 C992 1.334 . S
C993 C994 1.287 . S
C994 C993 1.287 . S
C994 C995 1.524 . S
C994 H1013 0.913 . S
C995 H971 0.950 . S
C995 C994 1.524 . S
C995 C996 1.415 . S
C996 H972 0.950 . S
C996 C991 1.363 . S
C996 C995 1.415 . S
C997 H973 0.951 . S
C997 C998 1.366 . S
C997 C999 1.388 . S
C998 C997 1.366 . S
C998 C1002 1.385 . S
C999 H974 0.951 . S
C999 C997 1.388 . S
C999 C1000 1.366 . S
C1000 C999 1.366 . S
C1000 C1001 1.414 . S
C1000 C1003 1.499 . S
C1001 H975 0.950 . S
C1001 C1000 1.414 . S
C1001 C1002 1.374 . S
C1002 H976 0.950 . S
C1002 C998 1.385 . S
C1002 C1001 1.374 . S
C1003 C1000 1.499 . S
C1003 C1004 1.373 . S
C1003 C1005 1.389 . S
C1004 H977 0.950 . S
C1004 C990 1.377 . S
C1004 C1003 1.373 . S
C1005 C989 1.377 . S
C1005 C1003 1.389 . S
C1005 C1006 1.524 . S
C1006 C1005 1.524 . S
C1006 C1007 1.397 . S
C1006 C1011 1.363 . S
C1007 H978 0.950 . S
C1007 C1006 1.397 . S
C1007 C1008 1.334 . S
C1008 H979 0.950 . S
C1008 C1007 1.334 . S
C1008 C1009 1.287 . S
C1009 C1008 1.287 . S
C1009 C1010 1.524 . S
C1009 H1012 0.999 . S
C1010 H980 0.950 . S
C1010 C1009 1.524 . S
C1010 C1011 1.415 . S
C1011 H981 0.950 . S
C1011 C1006 1.363 . S
C1011 C1010 1.415 . S
H1012 C1009 0.999 . S
H1013 C994 0.913 . S
H1014 C1032 0.951 . S
H1015 C1034 0.951 . S
H1016 C1036 0.950 . S
H1017 C1037 0.950 . S
H1018 C1039 0.950 . S
H1019 C1042 0.950 . S
H1020 C1043 0.950 . S
H1021 C1045 0.950 . S
H1022 C1046 0.950 . S
H1023 C1047 0.951 . S
H1024 C1049 0.951 . S
H1025 C1051 0.950 . S
H1026 C1052 0.950 . S
H1027 C1054 0.950 . S
H1028 C1057 0.950 . S
H1029 C1058 0.950 . S
H1030 C1060 0.950 . S
H1031 C1061 0.950 . S
C1032 H1014 0.951 . S
C1032 C1033 1.366 . S
C1032 C1034 1.388 . S
C1033 C1032 1.366 . S
C1033 C1037 1.385 . S
C1034 H1015 0.951 . S
C1034 C1032 1.388 . S
C1034 C1035 1.366 . S
C1035 C1034 1.366 . S
C1035 C1036 1.414 . S
C1035 C1038 1.499 . S
C1036 H1016 0.950 . S
C1036 C1035 1.414 . S
C1036 C1037 1.374 . S
C1037 H1017 0.950 . S
C1037 C1033 1.385 . S
C1037 C1036 1.374 . S
C1038 C1035 1.499 . S
C1038 C1039 1.373 . S
C1038 C1040 1.389 . S
C1039 H1018 0.950 . S
C1039 C1038 1.373 . S
C1039 C1055 1.377 . S
C1040 C1038 1.389 . S
C1040 C1041 1.524 . S
C1040 C1054 1.377 . S
C1041 C1040 1.524 . S
C1041 C1042 1.397 . S
C1041 C1046 1.363 . S
C1042 H1019 0.950 . S
C1042 C1041 1.397 . S
C1042 C1043 1.334 . S
C1043 H1020 0.950 . S
C1043 C1042 1.334 . S
C1043 C1044 1.287 . S
C1044 C1043 1.287 . S
C1044 C1045 1.524 . S
C1044 H1063 0.913 . S
C1045 H1021 0.950 . S
C1045 C1044 1.524 . S
C1045 C1046 1.415 . S
C1046 H1022 0.950 . S
C1046 C1041 1.363 . S
C1046 C1045 1.415 . S
C1047 H1023 0.951 . S
C1047 C1048 1.366 . S
C1047 C1049 1.388 . S
C1048 C1047 1.366 . S
C1048 C1052 1.385 . S
C1049 H1024 0.951 . S
C1049 C1047 1.388 . S
C1049 C1050 1.366 . S
C1050 C1049 1.366 . S
C1050 C1051 1.414 . S
C1050 C1053 1.499 . S
C1051 H1025 0.950 . S
C1051 C1050 1.414 . S
C1051 C1052 1.374 . S
C1052 H1026 0.950 . S
C1052 C1048 1.385 . S
C1052 C1051 1.374 . S
C1053 C1050 1.499 . S
C1053 C1054 1.373 . S
C1053 C1055 1.389 . S
C1054 H1027 0.950 . S
C1054 C1040 1.377 . S
C1054 C1053 1.373 . S
C1055 C1039 1.377 . S
C1055 C1053 1.389 . S
C1055 C1056 1.524 . S
C1056 C1055 1.524 . S
C1056 C1057 1.397 . S
C1056 C1061 1.363 . S
C1057 H1028 0.950 . S
C1057 C1056 1.397 . S
C1057 C1058 1.334 . S
C1058 H1029 0.950 . S
C1058 C1057 1.334 . S
C1058 C1059 1.287 . S
C1059 C1058 1.287 . S
C1059 C1060 1.524 . S
C1059 H1062 0.999 . S
C1060 H1030 0.950 . S
C1060 C1059 1.524 . S
C1060 C1061 1.415 . S
C1061 H1031 0.950 . S
C1061 C1056 1.363 . S
C1061 C1060 1.415 . S
H1062 C1059 0.999 . S
H1063 C1044 0.913 . S
H1064 C1082 0.951 . S
H1065 C1084 0.951 . S
H1066 C1086 0.950 . S
H1067 C1087 0.950 . S
H1068 C1089 0.950 . S
H1069 C1092 0.950 . S
H1070 C1093 0.950 . S
H1071 C1095 0.950 . S
H1072 C1096 0.950 . S
H1073 C1097 0.951 . S
H1074 C1099 0.951 . S
H1075 C1101 0.950 . S
H1076 C1102 0.950 . S
H1077 C1104 0.950 . S
H1078 C1107 0.950 . S
H1079 C1108 0.950 . S
H1080 C1110 0.950 . S
H1081 C1111 0.950 . S
C1082 H1064 0.951 . S
C1082 C1083 1.366 . S
C1082 C1084 1.388 . S
C1083 C1082 1.366 . S
C1083 C1087 1.385 . S
C1084 H1065 0.951 . S
C1084 C1082 1.388 . S
C1084 C1085 1.366 . S
C1085 C1084 1.366 . S
C1085 C1086 1.414 . S
C1085 C1088 1.499 . S
C1086 H1066 0.950 . S
C1086 C1085 1.414 . S
C1086 C1087 1.374 . S
C1087 H1067 0.950 . S
C1087 C1083 1.385 . S
C1087 C1086 1.374 . S
C1088 C1085 1.499 . S
C1088 C1089 1.373 . S
C1088 C1090 1.389 . S
C1089 H1068 0.950 . S
C1089 C1088 1.373 . S
C1089 C1105 1.377 . S
C1090 C1088 1.389 . S
C1090 C1091 1.524 . S
C1090 C1104 1.377 . S
C1091 C1090 1.524 . S
C1091 C1092 1.397 . S
C1091 C1096 1.363 . S
C1092 H1069 0.950 . S
C1092 C1091 1.397 . S
C1092 C1093 1.334 . S
C1093 H1070 0.950 . S
C1093 C1092 1.334 . S
C1093 C1094 1.287 . S
C1094 C1093 1.287 . S
C1094 C1095 1.524 . S
C1094 H1113 0.913 . S
C1095 H1071 0.950 . S
C1095 C1094 1.524 . S
C1095 C1096 1.415 . S
C1096 H1072 0.950 . S
C1096 C1091 1.363 . S
C1096 C1095 1.415 . S
C1097 H1073 0.951 . S
C1097 C1098 1.366 . S
C1097 C1099 1.388 . S
C1098 C1097 1.366 . S
C1098 C1102 1.385 . S
C1099 H1074 0.951 . S
C1099 C1097 1.388 . S
C1099 C1100 1.366 . S
C1100 C1099 1.366 . S
C1100 C1101 1.414 . S
C1100 C1103 1.499 . S
C1101 H1075 0.950 . S
C1101 C1100 1.414 . S
C1101 C1102 1.374 . S
C1102 H1076 0.950 . S
C1102 C1098 1.385 . S
C1102 C1101 1.374 . S
C1103 C1100 1.499 . S
C1103 C1104 1.373 . S
C1103 C1105 1.389 . S
C1104 H1077 0.950 . S
C1104 C1090 1.377 . S
C1104 C1103 1.373 . S
C1105 C1089 1.377 . S
C1105 C1103 1.389 . S
C1105 C1106 1.524 . S
C1106 C1105 1.524 . S
C1106 C1107 1.397 . S
C1106 C1111 1.363 . S
C1107 H1078 0.950 . S
C1107 C1106 1.397 . S
C1107 C1108 1.334 . S
C1108 H1079 0.950 . S
C1108 C1107 1.334 . S
C1108 C1109 1.287 . S
C1109 C1108 1.287 . S
C1109 C1110 1.524 . S
C1109 H1112 0.999 . S
C1110 H1080 0.950 . S
C1110 C1109 1.524 . S
C1110 C1111 1.415 . S
C1111 H1081 0.950 . S
C1111 C1106 1.363 . S
C1111 C1110 1.415 . S
H1112 C1109 0.999 . S
H1113 C1094 0.913 . S
H1114 C1132 0.951 . S
H1115 C1134 0.951 . S
H1116 C1136 0.950 . S
H1117 C1137 0.950 . S
H1118 C1139 0.950 . S
H1119 C1142 0.950 . S
H1120 C1143 0.950 . S
H1121 C1145 0.950 . S
H1122 C1146 0.950 . S
H1123 C1147 0.951 . S
H1124 C1149 0.951 . S
H1125 C1151 0.950 . S
H1126 C1152 0.950 . S
H1127 C1154 0.950 . S
H1128 C1157 0.950 . S
H1129 C1158 0.950 . S
H1130 C1160 0.950 . S
H1131 C1161 0.950 . S
C1132 H1114 0.951 . S
C1132 C1133 1.366 . S
C1132 C1134 1.388 . S
C1133 C1132 1.366 . S
C1133 C1137 1.385 . S
C1134 H1115 0.951 . S
C1134 C1132 1.388 . S
C1134 C1135 1.366 . S
C1135 C1134 1.366 . S
C1135 C1136 1.414 . S
C1135 C1138 1.499 . S
C1136 H1116 0.950 . S
C1136 C1135 1.414 . S
C1136 C1137 1.374 . S
C1137 H1117 0.950 . S
C1137 C1133 1.385 . S
C1137 C1136 1.374 . S
C1138 C1135 1.499 . S
C1138 C1139 1.373 . S
C1138 C1140 1.389 . S
C1139 H1118 0.950 . S
C1139 C1138 1.373 . S
C1139 C1155 1.377 . S
C1140 C1138 1.389 . S
C1140 C1141 1.524 . S
C1140 C1154 1.377 . S
C1141 C1140 1.524 . S
C1141 C1142 1.397 . S
C1141 C1146 1.363 . S
C1142 H1119 0.950 . S
C1142 C1141 1.397 . S
C1142 C1143 1.334 . S
C1143 H1120 0.950 . S
C1143 C1142 1.334 . S
C1143 C1144 1.287 . S
C1144 C1143 1.287 . S
C1144 C1145 1.524 . S
C1144 H1163 0.913 . S
C1145 H1121 0.950 . S
C1145 C1144 1.524 . S
C1145 C1146 1.415 . S
C1146 H1122 0.950 . S
C1146 C1141 1.363 . S
C1146 C1145 1.415 . S
C1147 H1123 0.951 . S
C1147 C1148 1.366 . S
C1147 C1149 1.388 . S
C1148 C1147 1.366 . S
C1148 C1152 1.385 . S
C1149 H1124 0.951 . S
C1149 C1147 1.388 . S
C1149 C1150 1.366 . S
C1150 C1149 1.366 . S
C1150 C1151 1.414 . S
C1150 C1153 1.499 . S
C1151 H1125 0.950 . S
C1151 C1150 1.414 . S
C1151 C1152 1.374 . S
C1152 H1126 0.950 . S
C1152 C1148 1.385 . S
C1152 C1151 1.374 . S
C1153 C1150 1.499 . S
C1153 C1154 1.373 . S
C1153 C1155 1.389 . S
C1154 H1127 0.950 . S
C1154 C1140 1.377 . S
C1154 C1153 1.373 . S
C1155 C1139 1.377 . S
C1155 C1153 1.389 . S
C1155 C1156 1.524 . S
C1156 C1155 1.524 . S
C1156 C1157 1.397 . S
C1156 C1161 1.363 . S
C1157 H1128 0.950 . S
C1157 C1156 1.397 . S
C1157 C1158 1.334 . S
C1158 H1129 0.950 . S
C1158 C1157 1.334 . S
C1158 C1159 1.287 . S
C1159 C1158 1.287 . S
C1159 C1160 1.524 . S
C1159 H1162 0.999 . S
C1160 H1130 0.950 . S
C1160 C1159 1.524 . S
C1160 C1161 1.415 . S
C1161 H1131 0.950 . S
C1161 C1156 1.363 . S
C1161 C1160 1.415 . S
H1162 C1159 0.999 . S
H1163 C1144 0.913 . S
H1164 C1182 0.951 . S
H1165 C1184 0.951 . S
H1166 C1186 0.950 . S
H1167 C1187 0.950 . S
H1168 C1189 0.950 . S
H1169 C1192 0.950 . S
H1170 C1193 0.950 . S
H1171 C1195 0.950 . S
H1172 C1196 0.950 . S
H1173 C1197 0.951 . S
H1174 C1199 0.951 . S
H1175 C1201 0.950 . S
H1176 C1202 0.950 . S
H1177 C1204 0.950 . S
H1178 C1207 0.950 . S
H1179 C1208 0.950 . S
H1180 C1210 0.950 . S
H1181 C1211 0.950 . S
C1182 H1164 0.951 . S
C1182 C1183 1.366 . S
C1182 C1184 1.388 . S
C1183 C1182 1.366 . S
C1183 C1187 1.385 . S
C1184 H1165 0.951 . S
C1184 C1182 1.388 . S
C1184 C1185 1.366 . S
C1185 C1184 1.366 . S
C1185 C1186 1.414 . S
C1185 C1188 1.499 . S
C1186 H1166 0.950 . S
C1186 C1185 1.414 . S
C1186 C1187 1.374 . S
C1187 H1167 0.950 . S
C1187 C1183 1.385 . S
C1187 C1186 1.374 . S
C1188 C1185 1.499 . S
C1188 C1189 1.373 . S
C1188 C1190 1.389 . S
C1189 H1168 0.950 . S
C1189 C1188 1.373 . S
C1189 C1205 1.377 . S
C1190 C1188 1.389 . S
C1190 C1191 1.524 . S
C1190 C1204 1.377 . S
C1191 C1190 1.524 . S
C1191 C1192 1.397 . S
C1191 C1196 1.363 . S
C1192 H1169 0.950 . S
C1192 C1191 1.397 . S
C1192 C1193 1.334 . S
C1193 H1170 0.950 . S
C1193 C1192 1.334 . S
C1193 C1194 1.287 . S
C1194 C1193 1.287 . S
C1194 C1195 1.524 . S
C1194 H1213 0.913 . S
C1195 H1171 0.950 . S
C1195 C1194 1.524 . S
C1195 C1196 1.415 . S
C1196 H1172 0.950 . S
C1196 C1191 1.363 . S
C1196 C1195 1.415 . S
C1197 H1173 0.951 . S
C1197 C1198 1.366 . S
C1197 C1199 1.388 . S
C1198 C1197 1.366 . S
C1198 C1202 1.385 . S
C1199 H1174 0.951 . S
C1199 C1197 1.388 . S
C1199 C1200 1.366 . S
C1200 C1199 1.366 . S
C1200 C1201 1.414 . S
C1200 C1203 1.499 . S
C1201 H1175 0.950 . S
C1201 C1200 1.414 . S
C1201 C1202 1.374 . S
C1202 H1176 0.950 . S
C1202 C1198 1.385 . S
C1202 C1201 1.374 . S
C1203 C1200 1.499 . S
C1203 C1204 1.373 . S
C1203 C1205 1.389 . S
C1204 H1177 0.950 . S
C1204 C1190 1.377 . S
C1204 C1203 1.373 . S
C1205 C1189 1.377 . S
C1205 C1203 1.389 . S
C1205 C1206 1.524 . S
C1206 C1205 1.524 . S
C1206 C1207 1.397 . S
C1206 C1211 1.363 . S
C1207 H1178 0.950 . S
C1207 C1206 1.397 . S
C1207 C1208 1.334 . S
C1208 H1179 0.950 . S
C1208 C1207 1.334 . S
C1208 C1209 1.287 . S
C1209 C1208 1.287 . S
C1209 C1210 1.524 . S
C1209 H1212 0.999 . S
C1210 H1180 0.950 . S
C1210 C1209 1.524 . S
C1210 C1211 1.415 . S
C1211 H1181 0.950 . S
C1211 C1206 1.363 . S
C1211 C1210 1.415 . S
H1212 C1209 0.999 . S
H1213 C1194 0.913 . S
H1214 C1232 0.951 . S
H1215 C1234 0.951 . S
H1216 C1236 0.950 . S
H1217 C1237 0.950 . S
H1218 C1239 0.950 . S
H1219 C1242 0.950 . S
H1220 C1243 0.950 . S
H1221 C1245 0.950 . S
H1222 C1246 0.950 . S
H1223 C1247 0.951 . S
H1224 C1249 0.951 . S
H1225 C1251 0.950 . S
H1226 C1252 0.950 . S
H1227 C1254 0.950 . S
H1228 C1257 0.950 . S
H1229 C1258 0.950 . S
H1230 C1260 0.950 . S
H1231 C1261 0.950 . S
C1232 H1214 0.951 . S
C1232 C1233 1.366 . S
C1232 C1234 1.388 . S
C1233 C1232 1.366 . S
C1233 C1237 1.385 . S
C1234 H1215 0.951 . S
C1234 C1232 1.388 . S
C1234 C1235 1.366 . S
C1235 C1234 1.366 . S
C1235 C1236 1.414 . S
C1235 C1238 1.499 . S
C1236 H1216 0.950 . S
C1236 C1235 1.414 . S
C1236 C1237 1.374 . S
C1237 H1217 0.950 . S
C1237 C1233 1.385 . S
C1237 C1236 1.374 . S
C1238 C1235 1.499 . S
C1238 C1239 1.373 . S
C1238 C1240 1.389 . S
C1239 H1218 0.950 . S
C1239 C1238 1.373 . S
C1239 C1255 1.377 . S
C1240 C1238 1.389 . S
C1240 C1241 1.524 . S
C1240 C1254 1.377 . S
C1241 C1240 1.524 . S
C1241 C1242 1.397 . S
C1241 C1246 1.363 . S
C1242 H1219 0.950 . S
C1242 C1241 1.397 . S
C1242 C1243 1.334 . S
C1243 H1220 0.950 . S
C1243 C1242 1.334 . S
C1243 C1244 1.287 . S
C1244 C1243 1.287 . S
C1244 C1245 1.524 . S
C1244 H1263 0.913 . S
C1245 H1221 0.950 . S
C1245 C1244 1.524 . S
C1245 C1246 1.415 . S
C1246 H1222 0.950 . S
C1246 C1241 1.363 . S
C1246 C1245 1.415 . S
C1247 H1223 0.951 . S
C1247 C1248 1.366 . S
C1247 C1249 1.388 . S
C1248 C1247 1.366 . S
C1248 C1252 1.385 . S
C1249 H1224 0.951 . S
C1249 C1247 1.388 . S
C1249 C1250 1.366 . S
C1250 C1249 1.366 . S
C1250 C1251 1.414 . S
C1250 C1253 1.499 . S
C1251 H1225 0.950 . S
C1251 C1250 1.414 . S
C1251 C1252 1.374 . S
C1252 H1226 0.950 . S
C1252 C1248 1.385 . S
C1252 C1251 1.374 . S
C1253 C1250 1.499 . S
C1253 C1254 1.373 . S
C1253 C1255 1.389 . S
C1254 H1227 0.950 . S
C1254 C1240 1.377 . S
C1254 C1253 1.373 . S
C1255 C1239 1.377 . S
C1255 C1253 1.389 . S
C1255 C1256 1.524 . S
C1256 C1255 1.524 . S
C1256 C1257 1.397 . S
C1256 C1261 1.363 . S
C1257 H1228 0.950 . S
C1257 C1256 1.397 . S
C1257 C1258 1.334 . S
C1258 H1229 0.950 . S
C1258 C1257 1.334 . S
C1258 C1259 1.287 . S
C1259 C1258 1.287 . S
C1259 C1260 1.524 . S
C1259 H1262 0.999 . S
C1260 H1230 0.950 . S
C1260 C1259 1.524 . S
C1260 C1261 1.415 . S
C1261 H1231 0.950 . S
C1261 C1256 1.363 . S
C1261 C1260 1.415 . S
H1262 C1259 0.999 . S
H1263 C1244 0.913 . S
H1264 C1282 0.951 . S
H1265 C1284 0.951 . S
H1266 C1286 0.950 . S
H1267 C1287 0.950 . S
H1268 C1289 0.950 . S
H1269 C1292 0.950 . S
H1270 C1293 0.950 . S
H1271 C1295 0.950 . S
H1272 C1296 0.950 . S
H1273 C1297 0.951 . S
H1274 C1299 0.951 . S
H1275 C1301 0.950 . S
H1276 C1302 0.950 . S
H1277 C1304 0.950 . S
H1278 C1307 0.950 . S
H1279 C1308 0.950 . S
H1280 C1310 0.950 . S
H1281 C1311 0.950 . S
C1282 H1264 0.951 . S
C1282 C1283 1.366 . S
C1282 C1284 1.388 . S
C1283 C1282 1.366 . S
C1283 C1287 1.385 . S
C1284 H1265 0.951 . S
C1284 C1282 1.388 . S
C1284 C1285 1.366 . S
C1285 C1284 1.366 . S
C1285 C1286 1.414 . S
C1285 C1288 1.499 . S
C1286 H1266 0.950 . S
C1286 C1285 1.414 . S
C1286 C1287 1.374 . S
C1287 H1267 0.950 . S
C1287 C1283 1.385 . S
C1287 C1286 1.374 . S
C1288 C1285 1.499 . S
C1288 C1289 1.373 . S
C1288 C1290 1.389 . S
C1289 H1268 0.950 . S
C1289 C1288 1.373 . S
C1289 C1305 1.377 . S
C1290 C1288 1.389 . S
C1290 C1291 1.524 . S
C1290 C1304 1.377 . S
C1291 C1290 1.524 . S
C1291 C1292 1.397 . S
C1291 C1296 1.363 . S
C1292 H1269 0.950 . S
C1292 C1291 1.397 . S
C1292 C1293 1.334 . S
C1293 H1270 0.950 . S
C1293 C1292 1.334 . S
C1293 C1294 1.287 . S
C1294 C1293 1.287 . S
C1294 C1295 1.524 . S
C1294 H1313 0.913 . S
C1295 H1271 0.950 . S
C1295 C1294 1.524 . S
C1295 C1296 1.415 . S
C1296 H1272 0.950 . S
C1296 C1291 1.363 . S
C1296 C1295 1.415 . S
C1297 H1273 0.951 . S
C1297 C1298 1.366 . S
C1297 C1299 1.388 . S
C1298 C1297 1.366 . S
C1298 C1302 1.385 . S
C1299 H1274 0.951 . S
C1299 C1297 1.388 . S
C1299 C1300 1.366 . S
C1300 C1299 1.366 . S
C1300 C1301 1.414 . S
C1300 C1303 1.499 . S
C1301 H1275 0.950 . S
C1301 C1300 1.414 . S
C1301 C1302 1.374 . S
C1302 H1276 0.950 . S
C1302 C1298 1.385 . S
C1302 C1301 1.374 . S
C1303 C1300 1.499 . S
C1303 C1304 1.373 . S
C1303 C1305 1.389 . S
C1304 H1277 0.950 . S
C1304 C1290 1.377 . S
C1304 C1303 1.373 . S
C1305 C1289 1.377 . S
C1305 C1303 1.389 . S
C1305 C1306 1.524 . S
C1306 C1305 1.524 . S
C1306 C1307 1.397 . S
C1306 C1311 1.363 . S
C1307 H1278 0.950 . S
C1307 C1306 1.397 . S
C1307 C1308 1.334 . S
C1308 H1279 0.950 . S
C1308 C1307 1.334 . S
C1308 C1309 1.287 . S
C1309 C1308 1.287 . S
C1309 C1310 1.524 . S
C1309 H1312 0.999 . S
C1310 H1280 0.950 . S
C1310 C1309 1.524 . S
C1310 C1311 1.415 . S
C1311 H1281 0.950 . S
C1311 C1306 1.363 . S
C1311 C1310 1.415 . S
H1312 C1309 0.999 . S
H1313 C1294 0.913 . S
H1314 C1332 0.951 . S
H1315 C1334 0.951 . S
H1316 C1336 0.950 . S
H1317 C1337 0.950 . S
H1318 C1339 0.950 . S
H1319 C1342 0.950 . S
H1320 C1343 0.950 . S
H1321 C1345 0.950 . S
H1322 C1346 0.950 . S
H1323 C1347 0.951 . S
H1324 C1349 0.951 . S
H1325 C1351 0.950 . S
H1326 C1352 0.950 . S
H1327 C1354 0.950 . S
H1328 C1357 0.950 . S
H1329 C1358 0.950 . S
H1330 C1360 0.950 . S
H1331 C1361 0.950 . S
C1332 H1314 0.951 . S
C1332 C1333 1.366 . S
C1332 C1334 1.388 . S
C1333 C1332 1.366 . S
C1333 C1337 1.385 . S
C1334 H1315 0.951 . S
C1334 C1332 1.388 . S
C1334 C1335 1.366 . S
C1335 C1334 1.366 . S
C1335 C1336 1.414 . S
C1335 C1338 1.499 . S
C1336 H1316 0.950 . S
C1336 C1335 1.414 . S
C1336 C1337 1.374 . S
C1337 H1317 0.950 . S
C1337 C1333 1.385 . S
C1337 C1336 1.374 . S
C1338 C1335 1.499 . S
C1338 C1339 1.373 . S
C1338 C1340 1.389 . S
C1339 H1318 0.950 . S
C1339 C1338 1.373 . S
C1339 C1355 1.377 . S
C1340 C1338 1.389 . S
C1340 C1341 1.524 . S
C1340 C1354 1.377 . S
C1341 C1340 1.524 . S
C1341 C1342 1.397 . S
C1341 C1346 1.363 . S
C1342 H1319 0.950 . S
C1342 C1341 1.397 . S
C1342 C1343 1.334 . S
C1343 H1320 0.950 . S
C1343 C1342 1.334 . S
C1343 C1344 1.287 . S
C1344 C1343 1.287 . S
C1344 C1345 1.524 . S
C1344 H1363 0.913 . S
C1345 H1321 0.950 . S
C1345 C1344 1.524 . S
C1345 C1346 1.415 . S
C1346 H1322 0.950 . S
C1346 C1341 1.363 . S
C1346 C1345 1.415 . S
C1347 H1323 0.951 . S
C1347 C1348 1.366 . S
C1347 C1349 1.388 . S
C1348 C1347 1.366 . S
C1348 C1352 1.385 . S
C1349 H1324 0.951 . S
C1349 C1347 1.388 . S
C1349 C1350 1.366 . S
C1350 C1349 1.366 . S
C1350 C1351 1.414 . S
C1350 C1353 1.499 . S
C1351 H1325 0.950 . S
C1351 C1350 1.414 . S
C1351 C1352 1.374 . S
C1352 H1326 0.950 . S
C1352 C1348 1.385 . S
C1352 C1351 1.374 . S
C1353 C1350 1.499 . S
C1353 C1354 1.373 . S
C1353 C1355 1.389 . S
C1354 H1327 0.950 . S
C1354 C1340 1.377 . S
C1354 C1353 1.373 . S
C1355 C1339 1.377 . S
C1355 C1353 1.389 . S
C1355 C1356 1.524 . S
C1356 C1355 1.524 . S
C1356 C1357 1.397 . S
C1356 C1361 1.363 . S
C1357 H1328 0.950 . S
C1357 C1356 1.397 . S
C1357 C1358 1.334 . S
C1358 H1329 0.950 . S
C1358 C1357 1.334 . S
C1358 C1359 1.287 . S
C1359 C1358 1.287 . S
C1359 C1360 1.524 . S
C1359 H1362 0.999 . S
C1360 H1330 0.950 . S
C1360 C1359 1.524 . S
C1360 C1361 1.415 . S
C1361 H1331 0.950 . S
C1361 C1356 1.363 . S
C1361 C1360 1.415 . S
H1362 C1359 0.999 . S
H1363 C1344 0.913 . S
H1364 C1382 0.951 . S
H1365 C1384 0.951 . S
H1366 C1386 0.950 . S
H1367 C1387 0.950 . S
H1368 C1389 0.950 . S
H1369 C1392 0.950 . S
H1370 C1393 0.950 . S
H1371 C1395 0.950 . S
H1372 C1396 0.950 . S
H1373 C1397 0.951 . S
H1374 C1399 0.951 . S
H1375 C1401 0.950 . S
H1376 C1402 0.950 . S
H1377 C1404 0.950 . S
H1378 C1407 0.950 . S
H1379 C1408 0.950 . S
H1380 C1410 0.950 . S
H1381 C1411 0.950 . S
C1382 H1364 0.951 . S
C1382 C1383 1.366 . S
C1382 C1384 1.388 . S
C1383 C1382 1.366 . S
C1383 C1387 1.385 . S
C1384 H1365 0.951 . S
C1384 C1382 1.388 . S
C1384 C1385 1.366 . S
C1385 C1384 1.366 . S
C1385 C1386 1.414 . S
C1385 C1388 1.499 . S
C1386 H1366 0.950 . S
C1386 C1385 1.414 . S
C1386 C1387 1.374 . S
C1387 H1367 0.950 . S
C1387 C1383 1.385 . S
C1387 C1386 1.374 . S
C1388 C1385 1.499 . S
C1388 C1389 1.373 . S
C1388 C1390 1.389 . S
C1389 H1368 0.950 . S
C1389 C1388 1.373 . S
C1389 C1405 1.377 . S
C1390 C1388 1.389 . S
C1390 C1391 1.524 . S
C1390 C1404 1.377 . S
C1391 C1390 1.524 . S
C1391 C1392 1.397 . S
C1391 C1396 1.363 . S
C1392 H1369 0.950 . S
C1392 C1391 1.397 . S
C1392 C1393 1.334 . S
C1393 H1370 0.950 . S
C1393 C1392 1.334 . S
C1393 C1394 1.287 . S
C1394 C1393 1.287 . S
C1394 C1395 1.524 . S
C1394 H1413 0.913 . S
C1395 H1371 0.950 . S
C1395 C1394 1.524 . S
C1395 C1396 1.415 . S
C1396 H1372 0.950 . S
C1396 C1391 1.363 . S
C1396 C1395 1.415 . S
C1397 H1373 0.951 . S
C1397 C1398 1.366 . S
C1397 C1399 1.388 . S
C1398 C1397 1.366 . S
C1398 C1402 1.385 . S
C1399 H1374 0.951 . S
C1399 C1397 1.388 . S
C1399 C1400 1.366 . S
C1400 C1399 1.366 . S
C1400 C1401 1.414 . S
C1400 C1403 1.499 . S
C1401 H1375 0.950 . S
C1401 C1400 1.414 . S
C1401 C1402 1.374 . S
C1402 H1376 0.950 . S
C1402 C1398 1.385 . S
C1402 C1401 1.374 . S
C1403 C1400 1.499 . S
C1403 C1404 1.373 . S
C1403 C1405 1.389 . S
C1404 H1377 0.950 . S
C1404 C1390 1.377 . S
C1404 C1403 1.373 . S
C1405 C1389 1.377 . S
C1405 C1403 1.389 . S
C1405 C1406 1.524 . S
C1406 C1405 1.524 . S
C1406 C1407 1.397 . S
C1406 C1411 1.363 . S
C1407 H1378 0.950 . S
C1407 C1406 1.397 . S
C1407 C1408 1.334 . S
C1408 H1379 0.950 . S
C1408 C1407 1.334 . S
C1408 C1409 1.287 . S
C1409 C1408 1.287 . S
C1409 C1410 1.524 . S
C1409 H1412 0.999 . S
C1410 H1380 0.950 . S
C1410 C1409 1.524 . S
C1410 C1411 1.415 . S
C1411 H1381 0.950 . S
C1411 C1406 1.363 . S
C1411 C1410 1.415 . S
H1412 C1409 0.999 . S
H1413 C1394 0.913 . S
H1414 C1432 0.951 . S
H1415 C1434 0.951 . S
H1416 C1436 0.950 . S
H1417 C1437 0.950 . S
H1418 C1439 0.950 . S
H1419 C1442 0.950 . S
H1420 C1443 0.950 . S
H1421 C1445 0.950 . S
H1422 C1446 0.950 . S
H1423 C1447 0.951 . S
H1424 C1449 0.951 . S
H1425 C1451 0.950 . S
H1426 C1452 0.950 . S
H1427 C1454 0.950 . S
H1428 C1457 0.950 . S
H1429 C1458 0.950 . S
H1430 C1460 0.950 . S
H1431 C1461 0.950 . S
C1432 H1414 0.951 . S
C1432 C1433 1.366 . S
C1432 C1434 1.388 . S
C1433 C1432 1.366 . S
C1433 C1437 1.385 . S
C1434 H1415 0.951 . S
C1434 C1432 1.388 . S
C1434 C1435 1.366 . S
C1435 C1434 1.366 . S
C1435 C1436 1.414 . S
C1435 C1438 1.499 . S
C1436 H1416 0.950 . S
C1436 C1435 1.414 . S
C1436 C1437 1.374 . S
C1437 H1417 0.950 . S
C1437 C1433 1.385 . S
C1437 C1436 1.374 . S
C1438 C1435 1.499 . S
C1438 C1439 1.373 . S
C1438 C1440 1.389 . S
C1439 H1418 0.950 . S
C1439 C1438 1.373 . S
C1439 C1455 1.377 . S
C1440 C1438 1.389 . S
C1440 C1441 1.524 . S
C1440 C1454 1.377 . S
C1441 C1440 1.524 . S
C1441 C1442 1.397 . S
C1441 C1446 1.363 . S
C1442 H1419 0.950 . S
C1442 C1441 1.397 . S
C1442 C1443 1.334 . S
C1443 H1420 0.950 . S
C1443 C1442 1.334 . S
C1443 C1444 1.287 . S
C1444 C1443 1.287 . S
C1444 C1445 1.524 . S
C1444 H1463 0.913 . S
C1445 H1421 0.950 . S
C1445 C1444 1.524 . S
C1445 C1446 1.415 . S
C1446 H1422 0.950 . S
C1446 C1441 1.363 . S
C1446 C1445 1.415 . S
C1447 H1423 0.951 . S
C1447 C1448 1.366 . S
C1447 C1449 1.388 . S
C1448 C1447 1.366 . S
C1448 C1452 1.385 . S
C1449 H1424 0.951 . S
C1449 C1447 1.388 . S
C1449 C1450 1.366 . S
C1450 C1449 1.366 . S
C1450 C1451 1.414 . S
C1450 C1453 1.499 . S
C1451 H1425 0.950 . S
C1451 C1450 1.414 . S
C1451 C1452 1.374 . S
C1452 H1426 0.950 . S
C1452 C1448 1.385 . S
C1452 C1451 1.374 . S
C1453 C1450 1.499 . S
C1453 C1454 1.373 . S
C1453 C1455 1.389 . S
C1454 H1427 0.950 . S
C1454 C1440 1.377 . S
C1454 C1453 1.373 . S
C1455 C1439 1.377 . S
C1455 C1453 1.389 . S
C1455 C1456 1.524 . S
C1456 C1455 1.524 . S
C1456 C1457 1.397 . S
C1456 C1461 1.363 . S
C1457 H1428 0.950 . S
C1457 C1456 1.397 . S
C1457 C1458 1.334 . S
C1458 H1429 0.950 . S
C1458 C1457 1.334 . S
C1458 C1459 1.287 . S
C1459 C1458 1.287 . S
C1459 C1460 1.524 . S
C1459 H1462 0.999 . S
C1460 H1430 0.950 . S
C1460 C1459 1.524 . S
C1460 C1461 1.415 . S
C1461 H1431 0.950 . S
C1461 C1456 1.363 . S
C1461 C1460 1.415 . S
H1462 C1459 0.999 . S
H1463 C1444 0.913 . S
H1464 C1482 0.951 . S
H1465 C1484 0.951 . S
H1466 C1486 0.950 . S
H1467 C1487 0.950 . S
H1468 C1489 0.950 . S
H1469 C1492 0.950 . S
H1470 C1493 0.950 . S
H1471 C1495 0.950 . S
H1472 C1496 0.950 . S
H1473 C1497 0.951 . S
H1474 C1499 0.951 . S
H1475 C1501 0.950 . S
H1476 C1502 0.950 . S
H1477 C1504 0.950 . S
H1478 C1507 0.950 . S
H1479 C1508 0.950 . S
H1480 C1510 0.950 . S
H1481 C1511 0.950 . S
C1482 H1464 0.951 . S
C1482 C1483 1.366 . S
C1482 C1484 1.388 . S
C1483 C1482 1.366 . S
C1483 C1487 1.385 . S
C1484 H1465 0.951 . S
C1484 C1482 1.388 . S
C1484 C1485 1.366 . S
C1485 C1484 1.366 . S
C1485 C1486 1.414 . S
C1485 C1488 1.499 . S
C1486 H1466 0.950 . S
C1486 C1485 1.414 . S
C1486 C1487 1.374 . S
C1487 H1467 0.950 . S
C1487 C1483 1.385 . S
C1487 C1486 1.374 . S
C1488 C1485 1.499 . S
C1488 C1489 1.373 . S
C1488 C1490 1.389 . S
C1489 H1468 0.950 . S
C1489 C1488 1.373 . S
C1489 C1505 1.377 . S
C1490 C1488 1.389 . S
C1490 C1491 1.524 . S
C1490 C1504 1.377 . S
C1491 C1490 1.524 . S
C1491 C1492 1.397 . S
C1491 C1496 1.363 . S
C1492 H1469 0.950 . S
C1492 C1491 1.397 . S
C1492 C1493 1.334 . S
C1493 H1470 0.950 . S
C1493 C1492 1.334 . S
C1493 C1494 1.287 . S
C1494 C1493 1.287 . S
C1494 C1495 1.524 . S
C1494 H1513 0.913 . S
C1495 H1471 0.950 . S
C1495 C1494 1.524 . S
C1495 C1496 1.415 . S
C1496 H1472 0.950 . S
C1496 C1491 1.363 . S
C1496 C1495 1.415 . S
C1497 H1473 0.951 . S
C1497 C1498 1.366 . S
C1497 C1499 1.388 . S
C1498 C1497 1.366 . S
C1498 C1502 1.385 . S
C1499 H1474 0.951 . S
C1499 C1497 1.388 . S
C1499 C1500 1.366 . S
C1500 C1499 1.366 . S
C1500 C1501 1.414 . S
C1500 C1503 1.499 . S
C1501 H1475 0.950 . S
C1501 C1500 1.414 . S
C1501 C1502 1.374 . S
C1502 H1476 0.950 . S
C1502 C1498 1.385 . S
C1502 C1501 1.374 . S
C1503 C1500 1.499 . S
C1503 C1504 1.373 . S
C1503 C1505 1.389 . S
C1504 H1477 0.950 . S
C1504 C1490 1.377 . S
C1504 C1503 1.373 . S
C1505 C1489 1.377 . S
C1505 C1503 1.389 . S
C1505 C1506 1.524 . S
C1506 C1505 1.524 . S
C1506 C1507 1.397 . S
C1506 C1511 1.363 . S
C1507 H1478 0.950 . S
C1507 C1506 1.397 . S
C1507 C1508 1.334 . S
C1508 H1479 0.950 . S
C1508 C1507 1.334 . S
C1508 C1509 1.287 . S
C1509 C1508 1.287 . S
C1509 C1510 1.524 . S
C1509 H1512 0.999 . S
C1510 H1480 0.950 . S
C1510 C1509 1.524 . S
C1510 C1511 1.415 . S
C1511 H1481 0.950 . S
C1511 C1506 1.363 . S
C1511 C1510 1.415 . S
H1512 C1509 0.999 . S
H1513 C1494 0.913 . S
H1514 C1532 0.951 . S
H1515 C1534 0.951 . S
H1516 C1536 0.950 . S
H1517 C1537 0.950 . S
H1518 C1539 0.950 . S
H1519 C1542 0.950 . S
H1520 C1543 0.950 . S
H1521 C1545 0.950 . S
H1522 C1546 0.950 . S
H1523 C1547 0.951 . S
H1524 C1549 0.951 . S
H1525 C1551 0.950 . S
H1526 C1552 0.950 . S
H1527 C1554 0.950 . S
H1528 C1557 0.950 . S
H1529 C1558 0.950 . S
H1530 C1560 0.950 . S
H1531 C1561 0.950 . S
C1532 H1514 0.951 . S
C1532 C1533 1.366 . S
C1532 C1534 1.388 . S
C1533 C1532 1.366 . S
C1533 C1537 1.385 . S
C1534 H1515 0.951 . S
C1534 C1532 1.388 . S
C1534 C1535 1.366 . S
C1535 C1534 1.366 . S
C1535 C1536 1.414 . S
C1535 C1538 1.499 . S
C1536 H1516 0.950 . S
C1536 C1535 1.414 . S
C1536 C1537 1.374 . S
C1537 H1517 0.950 . S
C1537 C1533 1.385 . S
C1537 C1536 1.374 . S
C1538 C1535 1.499 . S
C1538 C1539 1.373 . S
C1538 C1540 1.389 . S
C1539 H1518 0.950 . S
C1539 C1538 1.373 . S
C1539 C1555 1.377 . S
C1540 C1538 1.389 . S
C1540 C1541 1.524 . S
C1540 C1554 1.377 . S
C1541 C1540 1.524 . S
C1541 C1542 1.397 . S
C1541 C1546 1.363 . S
C1542 H1519 0.950 . S
C1542 C1541 1.397 . S
C1542 C1543 1.334 . S
C1543 H1520 0.950 . S
C1543 C1542 1.334 . S
C1543 C1544 1.287 . S
C1544 C1543 1.287 . S
C1544 C1545 1.524 . S
C1544 H1563 0.913 . S
C1545 H1521 0.950 . S
C1545 C1544 1.524 . S
C1545 C1546 1.415 . S
C1546 H1522 0.950 . S
C1546 C1541 1.363 . S
C1546 C1545 1.415 . S
C1547 H1523 0.951 . S
C1547 C1548 1.366 . S
C1547 C1549 1.388 . S
C1548 C1547 1.366 . S
C1548 C1552 1.385 . S
C1549 H1524 0.951 . S
C1549 C1547 1.388 . S
C1549 C1550 1.366 . S
C1550 C1549 1.366 . S
C1550 C1551 1.414 . S
C1550 C1553 1.499 . S
C1551 H1525 0.950 . S
C1551 C1550 1.414 . S
C1551 C1552 1.374 . S
C1552 H1526 0.950 . S
C1552 C1548 1.385 . S
C1552 C1551 1.374 . S
C1553 C1550 1.499 . S
C1553 C1554 1.373 . S
C1553 C1555 1.389 . S
C1554 H1527 0.950 . S
C1554 C1540 1.377 . S
C1554 C1553 1.373 . S
C1555 C1539 1.377 . S
C1555 C1553 1.389 . S
C1555 C1556 1.524 . S
C1556 C1555 1.524 . S
C1556 C1557 1.397 . S
C1556 C1561 1.363 . S
C1557 H1528 0.950 . S
C1557 C1556 1.397 . S
C1557 C1558 1.334 . S
C1558 H1529 0.950 . S
C1558 C1557 1.334 . S
C1558 C1559 1.287 . S
C1559 C1558 1.287 . S
C1559 C1560 1.524 . S
C1559 H1562 0.999 . S
C1560 H1530 0.950 . S
C1560 C1559 1.524 . S
C1560 C1561 1.415 . S
C1561 H1531 0.950 . S
C1561 C1556 1.363 . S
C1561 C1560 1.415 . S
H1562 C1559 0.999 . S
H1563 C1544 0.913 . S
H1564 C1582 0.951 . S
H1565 C1584 0.951 . S
H1566 C1586 0.950 . S
H1567 C1587 0.950 . S
H1568 C1589 0.950 . S
H1569 C1592 0.950 . S
H1570 C1593 0.950 . S
H1571 C1595 0.950 . S
H1572 C1596 0.950 . S
H1573 C1597 0.951 . S
H1574 C1599 0.951 . S
H1575 C1601 0.950 . S
H1576 C1602 0.950 . S
H1577 C1604 0.950 . S
H1578 C1607 0.950 . S
H1579 C1608 0.950 . S
H1580 C1610 0.950 . S
H1581 C1611 0.950 . S
C1582 H1564 0.951 . S
C1582 C1583 1.366 . S
C1582 C1584 1.388 . S
C1583 C1582 1.366 . S
C1583 C1587 1.385 . S
C1584 H1565 0.951 . S
C1584 C1582 1.388 . S
C1584 C1585 1.366 . S
C1585 C1584 1.366 . S
C1585 C1586 1.414 . S
C1585 C1588 1.499 . S
C1586 H1566 0.950 . S
C1586 C1585 1.414 . S
C1586 C1587 1.374 . S
C1587 H1567 0.950 . S
C1587 C1583 1.385 . S
C1587 C1586 1.374 . S
C1588 C1585 1.499 . S
C1588 C1589 1.373 . S
C1588 C1590 1.389 . S
C1589 H1568 0.950 . S
C1589 C1588 1.373 . S
C1589 C1605 1.377 . S
C1590 C1588 1.389 . S
C1590 C1591 1.524 . S
C1590 C1604 1.377 . S
C1591 C1590 1.524 . S
C1591 C1592 1.397 . S
C1591 C1596 1.363 . S
C1592 H1569 0.950 . S
C1592 C1591 1.397 . S
C1592 C1593 1.334 . S
C1593 H1570 0.950 . S
C1593 C1592 1.334 . S
C1593 C1594 1.287 . S
C1594 C1593 1.287 . S
C1594 C1595 1.524 . S
C1594 H1613 0.913 . S
C1595 H1571 0.950 . S
C1595 C1594 1.524 . S
C1595 C1596 1.415 . S
C1596 H1572 0.950 . S
C1596 C1591 1.363 . S
C1596 C1595 1.415 . S
C1597 H1573 0.951 . S
C1597 C1598 1.366 . S
C1597 C1599 1.388 . S
C1598 C1597 1.366 . S
C1598 C1602 1.385 . S
C1599 H1574 0.951 . S
C1599 C1597 1.388 . S
C1599 C1600 1.366 . S
C1600 C1599 1.366 . S
C1600 C1601 1.414 . S
C1600 C1603 1.499 . S
C1601 H1575 0.950 . S
C1601 C1600 1.414 . S
C1601 C1602 1.374 . S
C1602 H1576 0.950 . S
C1602 C1598 1.385 . S
C1602 C1601 1.374 . S
C1603 C1600 1.499 . S
C1603 C1604 1.373 . S
C1603 C1605 1.389 . S
C1604 H1577 0.950 . S
C1604 C1590 1.377 . S
C1604 C1603 1.373 . S
C1605 C1589 1.377 . S
C1605 C1603 1.389 . S
C1605 C1606 1.524 . S
C1606 C1605 1.524 . S
C1606 C1607 1.397 . S
C1606 C1611 1.363 . S
C1607 H1578 0.950 . S
C1607 C1606 1.397 . S
C1607 C1608 1.334 . S
C1608 H1579 0.950 . S
C1608 C1607 1.334 . S
C1608 C1609 1.287 . S
C1609 C1608 1.287 . S
C1609 C1610 1.524 . S
C1609 H1612 0.999 . S
C1610 H1580 0.950 . S
C1610 C1609 1.524 . S
C1610 C1611 1.415 . S
C1611 H1581 0.950 . S
C1611 C1606 1.363 . S
C1611 C1610 1.415 . S
H1612 C1609 0.999 . S
H1613 C1594 0.913 . S
H1614 C1632 0.951 . S
H1615 C1634 0.951 . S
H1616 C1636 0.950 . S
H1617 C1637 0.950 . S
H1618 C1639 0.950 . S
H1619 C1642 0.950 . S
H1620 C1643 0.950 . S
H1621 C1645 0.950 . S
H1622 C1646 0.950 . S
H1623 C1647 0.951 . S
H1624 C1649 0.951 . S
H1625 C1651 0.950 . S
H1626 C1652 0.950 . S
H1627 C1654 0.950 . S
H1628 C1657 0.950 . S
H1629 C1658 0.950 . S
H1630 C1660 0.950 . S
H1631 C1661 0.950 . S
C1632 H1614 0.951 . S
C1632 C1633 1.366 . S
C1632 C1634 1.388 . S
C1633 C1632 1.366 . S
C1633 C1637 1.385 . S
C1634 H1615 0.951 . S
C1634 C1632 1.388 . S
C1634 C1635 1.366 . S
C1635 C1634 1.366 . S
C1635 C1636 1.414 . S
C1635 C1638 1.499 . S
C1636 H1616 0.950 . S
C1636 C1635 1.414 . S
C1636 C1637 1.374 . S
C1637 H1617 0.950 . S
C1637 C1633 1.385 . S
C1637 C1636 1.374 . S
C1638 C1635 1.499 . S
C1638 C1639 1.373 . S
C1638 C1640 1.389 . S
C1639 H1618 0.950 . S
C1639 C1638 1.373 . S
C1639 C1655 1.377 . S
C1640 C1638 1.389 . S
C1640 C1641 1.524 . S
C1640 C1654 1.377 . S
C1641 C1640 1.524 . S
C1641 C1642 1.397 . S
C1641 C1646 1.363 . S
C1642 H1619 0.950 . S
C1642 C1641 1.397 . S
C1642 C1643 1.334 . S
C1643 H1620 0.950 . S
C1643 C1642 1.334 . S
C1643 C1644 1.287 . S
C1644 C1643 1.287 . S
C1644 C1645 1.524 . S
C1644 H1663 0.913 . S
C1645 H1621 0.950 . S
C1645 C1644 1.524 . S
C1645 C1646 1.415 . S
C1646 H1622 0.950 . S
C1646 C1641 1.363 . S
C1646 C1645 1.415 . S
C1647 H1623 0.951 . S
C1647 C1648 1.366 . S
C1647 C1649 1.388 . S
C1648 C1647 1.366 . S
C1648 C1652 1.385 . S
C1649 H1624 0.951 . S
C1649 C1647 1.388 . S
C1649 C1650 1.366 . S
C1650 C1649 1.366 . S
C1650 C1651 1.414 . S
C1650 C1653 1.499 . S
C1651 H1625 0.950 . S
C1651 C1650 1.414 . S
C1651 C1652 1.374 . S
C1652 H1626 0.950 . S
C1652 C1648 1.385 . S
C1652 C1651 1.374 . S
C1653 C1650 1.499 . S
C1653 C1654 1.373 . S
C1653 C1655 1.389 . S
C1654 H1627 0.950 . S
C1654 C1640 1.377 . S
C1654 C1653 1.373 . S
C1655 C1639 1.377 . S
C1655 C1653 1.389 . S
C1655 C1656 1.524 . S
C1656 C1655 1.524 . S
C1656 C1657 1.397 . S
C1656 C1661 1.363 . S
C1657 H1628 0.950 . S
C1657 C1656 1.397 . S
C1657 C1658 1.334 . S
C1658 H1629 0.950 . S
C1658 C1657 1.334 . S
C1658 C1659 1.287 . S
C1659 C1658 1.287 . S
C1659 C1660 1.524 . S
C1659 H1662 0.999 . S
C1660 H1630 0.950 . S
C1660 C1659 1.524 . S
C1660 C1661 1.415 . S
C1661 H1631 0.950 . S
C1661 C1656 1.363 . S
C1661 C1660 1.415 . S
H1662 C1659 0.999 . S
H1663 C1644 0.913 . S
H1664 C1682 0.951 . S
H1665 C1684 0.951 . S
H1666 C1686 0.950 . S
H1667 C1687 0.950 . S
H1668 C1689 0.950 . S
H1669 C1692 0.950 . S
H1670 C1693 0.950 . S
H1671 C1695 0.950 . S
H1672 C1696 0.950 . S
H1673 C1697 0.951 . S
H1674 C1699 0.951 . S
H1675 C1701 0.950 . S
H1676 C1702 0.950 . S
H1677 C1704 0.950 . S
H1678 C1707 0.950 . S
H1679 C1708 0.950 . S
H1680 C1710 0.950 . S
H1681 C1711 0.950 . S
C1682 H1664 0.951 . S
C1682 C1683 1.366 . S
C1682 C1684 1.388 . S
C1683 C1682 1.366 . S
C1683 C1687 1.385 1_554 S
C1684 H1665 0.951 . S
C1684 C1682 1.388 . S
C1684 C1685 1.366 . S
C1685 C1684 1.366 . S
C1685 C1686 1.414 1_554 S
C1685 C1688 1.499 1_554 S
C1686 H1666 0.950 . S
C1686 C1685 1.414 1_556 S
C1686 C1687 1.374 . S
C1687 H1667 0.950 . S
C1687 C1683 1.385 1_556 S
C1687 C1686 1.374 . S
C1688 C1685 1.499 1_556 S
C1688 C1689 1.373 1_556 S
C1688 C1690 1.389 . S
C1689 H1668 0.950 . S
C1689 C1688 1.373 1_554 S
C1689 C1705 1.377 1_565 S
C1690 C1688 1.389 . S
C1690 C1691 1.524 . S
C1690 C1704 1.377 1_565 S
C1691 C1690 1.524 . S
C1691 C1692 1.397 . S
C1691 C1696 1.363 . S
C1692 H1669 0.950 . S
C1692 C1691 1.397 . S
C1692 C1693 1.334 . S
C1693 H1670 0.950 . S
C1693 C1692 1.334 . S
C1693 C1694 1.287 . S
C1694 C1693 1.287 . S
C1694 C1695 1.524 . S
C1694 H1713 0.913 . S
C1695 H1671 0.950 . S
C1695 C1694 1.524 . S
C1695 C1696 1.415 . S
C1696 H1672 0.950 . S
C1696 C1691 1.363 . S
C1696 C1695 1.415 . S
C1697 H1673 0.951 . S
C1697 C1698 1.366 . S
C1697 C1699 1.388 . S
C1698 C1697 1.366 . S
C1698 C1702 1.385 1_556 S
C1699 H1674 0.951 . S
C1699 C1697 1.388 . S
C1699 C1700 1.366 . S
C1700 C1699 1.366 . S
C1700 C1701 1.414 1_556 S
C1700 C1703 1.499 1_556 S
C1701 H1675 0.950 . S
C1701 C1700 1.414 1_554 S
C1701 C1702 1.374 . S
C1702 H1676 0.950 . S
C1702 C1698 1.385 1_554 S
C1702 C1701 1.374 . S
C1703 C1700 1.499 1_554 S
C1703 C1704 1.373 1_554 S
C1703 C1705 1.389 . S
C1704 H1677 0.950 . S
C1704 C1690 1.377 1_545 S
C1704 C1703 1.373 1_556 S
C1705 C1689 1.377 1_545 S
C1705 C1703 1.389 . S
C1705 C1706 1.524 . S
C1706 C1705 1.524 . S
C1706 C1707 1.397 . S
C1706 C1711 1.363 . S
C1707 H1678 0.950 . S
C1707 C1706 1.397 . S
C1707 C1708 1.334 . S
C1708 H1679 0.950 . S
C1708 C1707 1.334 . S
C1708 C1709 1.287 . S
C1709 C1708 1.287 . S
C1709 C1710 1.524 . S
C1709 H1712 0.999 . S
C1710 H1680 0.950 . S
C1710 C1709 1.524 . S
C1710 C1711 1.415 . S
C1711 H1681 0.950 . S
C1711 C1706 1.363 . S
C1711 C1710 1.415 . S
H1712 C1709 0.999 . S
H1713 C1694 0.913 . S
H1714 C1732 0.951 . S
H1715 C1734 0.951 . S
H1716 C1736 0.950 . S
H1717 C1737 0.950 . S
H1718 C1739 0.950 . S
H1719 C1742 0.950 . S
H1720 C1743 0.950 . S
H1721 C1745 0.950 . S
H1722 C1746 0.950 . S
H1723 C1747 0.951 . S
H1724 C1749 0.951 . S
H1725 C1751 0.950 . S
H1726 C1752 0.950 . S
H1727 C1754 0.950 . S
H1728 C1757 0.950 . S
H1729 C1758 0.950 . S
H1730 C1760 0.950 . S
H1731 C1761 0.950 . S
C1732 H1714 0.951 . S
C1732 C1733 1.366 . S
C1732 C1734 1.388 . S
C1733 C1732 1.366 . S
C1733 C1737 1.385 . S
C1734 H1715 0.951 . S
C1734 C1732 1.388 . S
C1734 C1735 1.366 . S
C1735 C1734 1.366 . S
C1735 C1736 1.414 . S
C1735 C1738 1.499 . S
C1736 H1716 0.950 . S
C1736 C1735 1.414 . S
C1736 C1737 1.374 . S
C1737 H1717 0.950 . S
C1737 C1733 1.385 . S
C1737 C1736 1.374 . S
C1738 C1735 1.499 . S
C1738 C1739 1.373 . S
C1738 C1740 1.389 . S
C1739 H1718 0.950 . S
C1739 C1738 1.373 . S
C1739 C1755 1.377 1_565 S
C1740 C1738 1.389 . S
C1740 C1741 1.524 . S
C1740 C1754 1.377 1_565 S
C1741 C1740 1.524 . S
C1741 C1742 1.397 . S
C1741 C1746 1.363 . S
C1742 H1719 0.950 . S
C1742 C1741 1.397 . S
C1742 C1743 1.334 . S
C1743 H1720 0.950 . S
C1743 C1742 1.334 . S
C1743 C1744 1.287 . S
C1744 C1743 1.287 . S
C1744 C1745 1.524 . S
C1744 H1763 0.913 . S
C1745 H1721 0.950 . S
C1745 C1744 1.524 . S
C1745 C1746 1.415 . S
C1746 H1722 0.950 . S
C1746 C1741 1.363 . S
C1746 C1745 1.415 . S
C1747 H1723 0.951 . S
C1747 C1748 1.366 . S
C1747 C1749 1.388 . S
C1748 C1747 1.366 . S
C1748 C1752 1.385 . S
C1749 H1724 0.951 . S
C1749 C1747 1.388 . S
C1749 C1750 1.366 . S
C1750 C1749 1.366 . S
C1750 C1751 1.414 . S
C1750 C1753 1.499 . S
C1751 H1725 0.950 . S
C1751 C1750 1.414 . S
C1751 C1752 1.374 . S
C1752 H1726 0.950 . S
C1752 C1748 1.385 . S
C1752 C1751 1.374 . S
C1753 C1750 1.499 . S
C1753 C1754 1.373 . S
C1753 C1755 1.389 . S
C1754 H1727 0.950 . S
C1754 C1740 1.377 1_545 S
C1754 C1753 1.373 . S
C1755 C1739 1.377 1_545 S
C1755 C1753 1.389 . S
C1755 C1756 1.524 . S
C1756 C1755 1.524 . S
C1756 C1757 1.397 . S
C1756 C1761 1.363 . S
C1757 H1728 0.950 . S
C1757 C1756 1.397 . S
C1757 C1758 1.334 . S
C1758 H1729 0.950 . S
C1758 C1757 1.334 . S
C1758 C1759 1.287 . S
C1759 C1758 1.287 . S
C1759 C1760 1.524 . S
C1759 H1762 0.999 . S
C1760 H1730 0.950 . S
C1760 C1759 1.524 . S
C1760 C1761 1.415 . S
C1761 H1731 0.950 . S
C1761 C1756 1.363 . S
C1761 C1760 1.415 . S
H1762 C1759 0.999 . S
H1763 C1744 0.913 . S
H1764 C1782 0.951 . S
H1765 C1784 0.951 . S
H1766 C1786 0.950 . S
H1767 C1787 0.950 . S
H1768 C1789 0.950 . S
H1769 C1792 0.950 1_554 S
H1770 C1793 0.950 . S
H1771 C1795 0.950 . S
H1772 C1796 0.950 . S
H1773 C1797 0.951 . S
H1774 C1799 0.951 . S
H1775 C1801 0.950 . S
H1776 C1802 0.950 . S
H1777 C1804 0.950 . S
H1778 C1807 0.950 1_556 S
H1779 C1808 0.950 . S
H1780 C1810 0.950 . S
H1781 C1811 0.950 . S
C1782 H1764 0.951 . S
C1782 C1783 1.366 1_556 S
C1782 C1784 1.388 . S
C1783 C1782 1.366 1_554 S
C1783 C1787 1.385 . S
C1784 H1765 0.951 . S
C1784 C1782 1.388 . S
C1784 C1785 1.366 1_556 S
C1785 C1784 1.366 1_554 S
C1785 C1786 1.414 . S
C1785 C1788 1.499 . S
C1786 H1766 0.950 . S
C1786 C1785 1.414 . S
C1786 C1787 1.374 . S
C1787 H1767 0.950 . S
C1787 C1783 1.385 . S
C1787 C1786 1.374 . S
C1788 C1785 1.499 . S
C1788 C1789 1.373 . S
C1788 C1790 1.389 1_554 S
C1789 H1768 0.950 . S
C1789 C1788 1.373 . S
C1789 C1805 1.377 1_565 S
C1790 C1788 1.389 1_556 S
C1790 C1791 1.524 . S
C1790 C1804 1.377 1_565 S
C1791 C1790 1.524 . S
C1791 C1792 1.397 . S
C1791 C1796 1.363 . S
C1792 H1769 0.950 1_556 S
C1792 C1791 1.397 . S
C1792 C1793 1.334 . S
C1793 H1770 0.950 . S
C1793 C1792 1.334 . S
C1793 C1794 1.287 . S
C1794 C1793 1.287 . S
C1794 C1795 1.524 . S
C1794 H1813 0.913 . S
C1795 H1771 0.950 . S
C1795 C1794 1.524 . S
C1795 C1796 1.415 . S
C1796 H1772 0.950 . S
C1796 C1791 1.363 . S
C1796 C1795 1.415 . S
C1797 H1773 0.951 . S
C1797 C1798 1.366 1_554 S
C1797 C1799 1.388 . S
C1798 C1797 1.366 1_556 S
C1798 C1802 1.385 . S
C1799 H1774 0.951 . S
C1799 C1797 1.388 . S
C1799 C1800 1.366 1_554 S
C1800 C1799 1.366 1_556 S
C1800 C1801 1.414 . S
C1800 C1803 1.499 . S
C1801 H1775 0.950 . S
C1801 C1800 1.414 . S
C1801 C1802 1.374 . S
C1802 H1776 0.950 . S
C1802 C1798 1.385 . S
C1802 C1801 1.374 . S
C1803 C1800 1.499 . S
C1803 C1804 1.373 . S
C1803 C1805 1.389 1_556 S
C1804 H1777 0.950 . S
C1804 C1790 1.377 1_545 S
C1804 C1803 1.373 . S
C1805 C1789 1.377 1_545 S
C1805 C1803 1.389 1_554 S
C1805 C1806 1.524 . S
C1806 C1805 1.524 . S
C1806 C1807 1.397 . S
C1806 C1811 1.363 . S
C1807 H1778 0.950 1_554 S
C1807 C1806 1.397 . S
C1807 C1808 1.334 . S
C1808 H1779 0.950 . S
C1808 C1807 1.334 . S
C1808 C1809 1.287 . S
C1809 C1808 1.287 . S
C1809 C1810 1.524 . S
C1809 H1812 0.999 . S
C1810 H1780 0.950 . S
C1810 C1809 1.524 . S
C1810 C1811 1.415 . S
C1811 H1781 0.950 . S
C1811 C1806 1.363 . S
C1811 C1810 1.415 . S
H1812 C1809 0.999 . S
H1813 C1794 0.913 . S
H1814 C1832 0.951 . S
H1815 C1834 0.951 . S
H1816 C1836 0.950 . S
H1817 C1837 0.950 . S
H1818 C1839 0.950 . S
H1819 C1842 0.950 . S
H1820 C1843 0.950 . S
H1821 C1845 0.950 . S
H1822 C1846 0.950 . S
H1823 C1847 0.951 . S
H1824 C1849 0.951 . S
H1825 C1851 0.950 . S
H1826 C1852 0.950 . S
H1827 C1854 0.950 . S
H1828 C1857 0.950 . S
H1829 C1858 0.950 . S
H1830 C1860 0.950 . S
H1831 C1861 0.950 . S
C1832 H1814 0.951 . S
C1832 C1833 1.366 . S
C1832 C1834 1.388 . S
C1833 C1832 1.366 . S
C1833 C1837 1.385 . S
C1834 H1815 0.951 . S
C1834 C1832 1.388 . S
C1834 C1835 1.366 . S
C1835 C1834 1.366 . S
C1835 C1836 1.414 . S
C1835 C1838 1.499 . S
C1836 H1816 0.950 . S
C1836 C1835 1.414 . S
C1836 C1837 1.374 . S
C1837 H1817 0.950 . S
C1837 C1833 1.385 . S
C1837 C1836 1.374 . S
C1838 C1835 1.499 . S
C1838 C1839 1.373 . S
C1838 C1840 1.389 . S
C1839 H1818 0.950 . S
C1839 C1838 1.373 . S
C1839 C1855 1.377 1_565 S
C1840 C1838 1.389 . S
C1840 C1841 1.524 . S
C1840 C1854 1.377 1_565 S
C1841 C1840 1.524 . S
C1841 C1842 1.397 . S
C1841 C1846 1.363 . S
C1842 H1819 0.950 . S
C1842 C1841 1.397 . S
C1842 C1843 1.334 . S
C1843 H1820 0.950 . S
C1843 C1842 1.334 . S
C1843 C1844 1.287 . S
C1844 C1843 1.287 . S
C1844 C1845 1.524 . S
C1844 H1863 0.913 . S
C1845 H1821 0.950 . S
C1845 C1844 1.524 . S
C1845 C1846 1.415 . S
C1846 H1822 0.950 . S
C1846 C1841 1.363 . S
C1846 C1845 1.415 . S
C1847 H1823 0.951 . S
C1847 C1848 1.366 . S
C1847 C1849 1.388 . S
C1848 C1847 1.366 . S
C1848 C1852 1.385 . S
C1849 H1824 0.951 . S
C1849 C1847 1.388 . S
C1849 C1850 1.366 . S
C1850 C1849 1.366 . S
C1850 C1851 1.414 . S
C1850 C1853 1.499 . S
C1851 H1825 0.950 . S
C1851 C1850 1.414 . S
C1851 C1852 1.374 . S
C1852 H1826 0.950 . S
C1852 C1848 1.385 . S
C1852 C1851 1.374 . S
C1853 C1850 1.499 . S
C1853 C1854 1.373 . S
C1853 C1855 1.389 . S
C1854 H1827 0.950 . S
C1854 C1840 1.377 1_545 S
C1854 C1853 1.373 . S
C1855 C1839 1.377 1_545 S
C1855 C1853 1.389 . S
C1855 C1856 1.524 . S
C1856 C1855 1.524 . S
C1856 C1857 1.397 . S
C1856 C1861 1.363 . S
C1857 H1828 0.950 . S
C1857 C1856 1.397 . S
C1857 C1858 1.334 . S
C1858 H1829 0.950 . S
C1858 C1857 1.334 . S
C1858 C1859 1.287 . S
C1859 C1858 1.287 . S
C1859 C1860 1.524 . S
C1859 H1862 0.999 . S
C1860 H1830 0.950 . S
C1860 C1859 1.524 . S
C1860 C1861 1.415 . S
C1861 H1831 0.950 . S
C1861 C1856 1.363 . S
C1861 C1860 1.415 . S
H1862 C1859 0.999 . S
H1863 C1844 0.913 . S
H1864 C1882 0.951 . S
H1865 C1884 0.951 . S
H1866 C1886 0.950 . S
H1867 C1887 0.950 . S
H1868 C1889 0.950 . S
H1869 C1892 0.950 . S
H1870 C1893 0.950 . S
H1871 C1895 0.950 . S
H1872 C1896 0.950 . S
H1873 C1897 0.951 . S
H1874 C1899 0.951 . S
H1875 C1901 0.950 . S
H1876 C1902 0.950 . S
H1877 C1904 0.950 . S
H1878 C1907 0.950 . S
H1879 C1908 0.950 . S
H1880 C1910 0.950 . S
H1881 C1911 0.950 . S
C1882 H1864 0.951 . S
C1882 C1883 1.366 1_556 S
C1882 C1884 1.388 . S
C1883 C1882 1.366 1_554 S
C1883 C1887 1.385 . S
C1884 H1865 0.951 . S
C1884 C1882 1.388 . S
C1884 C1885 1.366 1_556 S
C1885 C1884 1.366 1_554 S
C1885 C1886 1.414 . S
C1885 C1888 1.499 . S
C1886 H1866 0.950 . S
C1886 C1885 1.414 . S
C1886 C1887 1.374 . S
C1887 H1867 0.950 . S
C1887 C1883 1.385 . S
C1887 C1886 1.374 . S
C1888 C1885 1.499 . S
C1888 C1889 1.373 . S
C1888 C1890 1.389 1_554 S
C1889 H1868 0.950 . S
C1889 C1888 1.373 . S
C1889 C1905 1.377 . S
C1890 C1888 1.389 1_556 S
C1890 C1891 1.524 . S
C1890 C1904 1.377 . S
C1891 C1890 1.524 . S
C1891 C1892 1.397 . S
C1891 C1896 1.363 . S
C1892 H1869 0.950 . S
C1892 C1891 1.397 . S
C1892 C1893 1.334 . S
C1893 H1870 0.950 . S
C1893 C1892 1.334 . S
C1893 C1894 1.287 . S
C1894 C1893 1.287 . S
C1894 C1895 1.524 . S
C1894 H1913 0.913 . S
C1895 H1871 0.950 . S
C1895 C1894 1.524 . S
C1895 C1896 1.415 . S
C1896 H1872 0.950 . S
C1896 C1891 1.363 . S
C1896 C1895 1.415 . S
C1897 H1873 0.951 . S
C1897 C1898 1.366 1_554 S
C1897 C1899 1.388 . S
C1898 C1897 1.366 1_556 S
C1898 C1902 1.385 . S
C1899 H1874 0.951 . S
C1899 C1897 1.388 . S
C1899 C1900 1.366 1_554 S
C1900 C1899 1.366 1_556 S
C1900 C1901 1.414 . S
C1900 C1903 1.499 . S
C1901 H1875 0.950 . S
C1901 C1900 1.414 . S
C1901 C1902 1.374 . S
C1902 H1876 0.950 . S
C1902 C1898 1.385 . S
C1902 C1901 1.374 . S
C1903 C1900 1.499 . S
C1903 C1904 1.373 . S
C1903 C1905 1.389 1_556 S
C1904 H1877 0.950 . S
C1904 C1890 1.377 . S
C1904 C1903 1.373 . S
C1905 C1889 1.377 . S
C1905 C1903 1.389 1_554 S
C1905 C1906 1.524 . S
C1906 C1905 1.524 . S
C1906 C1907 1.397 . S
C1906 C1911 1.363 . S
C1907 H1878 0.950 . S
C1907 C1906 1.397 . S
C1907 C1908 1.334 . S
C1908 H1879 0.950 . S
C1908 C1907 1.334 . S
C1908 C1909 1.287 . S
C1909 C1908 1.287 . S
C1909 C1910 1.524 . S
C1909 H1912 0.999 . S
C1910 H1880 0.950 . S
C1910 C1909 1.524 . S
C1910 C1911 1.415 . S
C1911 H1881 0.950 . S
C1911 C1906 1.363 . S
C1911 C1910 1.415 . S
H1912 C1909 0.999 . S
H1913 C1894 0.913 . S
H1914 C1932 0.951 . S
H1915 C1934 0.951 . S
H1916 C1936 0.950 . S
H1917 C1937 0.950 . S
H1918 C1939 0.950 . S
H1919 C1942 0.950 . S
H1920 C1943 0.950 . S
H1921 C1945 0.950 . S
H1922 C1946 0.950 . S
H1923 C1947 0.951 . S
H1924 C1949 0.951 . S
H1925 C1951 0.950 . S
H1926 C1952 0.950 . S
H1927 C1954 0.950 . S
H1928 C1957 0.950 . S
H1929 C1958 0.950 . S
H1930 C1960 0.950 . S
H1931 C1961 0.950 . S
C1932 H1914 0.951 . S
C1932 C1933 1.366 . S
C1932 C1934 1.388 . S
C1933 C1932 1.366 . S
C1933 C1937 1.385 . S
C1934 H1915 0.951 . S
C1934 C1932 1.388 . S
C1934 C1935 1.366 . S
C1935 C1934 1.366 . S
C1935 C1936 1.414 . S
C1935 C1938 1.499 . S
C1936 H1916 0.950 . S
C1936 C1935 1.414 . S
C1936 C1937 1.374 . S
C1937 H1917 0.950 . S
C1937 C1933 1.385 . S
C1937 C1936 1.374 . S
C1938 C1935 1.499 . S
C1938 C1939 1.373 . S
C1938 C1940 1.389 . S
C1939 H1918 0.950 . S
C1939 C1938 1.373 . S
C1939 C1955 1.377 . S
C1940 C1938 1.389 . S
C1940 C1941 1.524 . S
C1940 C1954 1.377 . S
C1941 C1940 1.524 . S
C1941 C1942 1.397 . S
C1941 C1946 1.363 . S
C1942 H1919 0.950 . S
C1942 C1941 1.397 . S
C1942 C1943 1.334 . S
C1943 H1920 0.950 . S
C1943 C1942 1.334 . S
C1943 C1944 1.287 . S
C1944 C1943 1.287 . S
C1944 C1945 1.524 . S
C1944 H1963 0.913 . S
C1945 H1921 0.950 . S
C1945 C1944 1.524 . S
C1945 C1946 1.415 . S
C1946 H1922 0.950 . S
C1946 C1941 1.363 . S
C1946 C1945 1.415 . S
C1947 H1923 0.951 . S
C1947 C1948 1.366 . S
C1947 C1949 1.388 . S
C1948 C1947 1.366 . S
C1948 C1952 1.385 . S
C1949 H1924 0.951 . S
C1949 C1947 1.388 . S
C1949 C1950 1.366 . S
C1950 C1949 1.366 . S
C1950 C1951 1.414 . S
C1950 C1953 1.499 . S
C1951 H1925 0.950 . S
C1951 C1950 1.414 . S
C1951 C1952 1.374 . S
C1952 H1926 0.950 . S
C1952 C1948 1.385 . S
C1952 C1951 1.374 . S
C1953 C1950 1.499 . S
C1953 C1954 1.373 . S
C1953 C1955 1.389 . S
C1954 H1927 0.950 . S
C1954 C1940 1.377 . S
C1954 C1953 1.373 . S
C1955 C1939 1.377 . S
C1955 C1953 1.389 . S
C1955 C1956 1.524 . S
C1956 C1955 1.524 . S
C1956 C1957 1.397 . S
C1956 C1961 1.363 . S
C1957 H1928 0.950 . S
C1957 C1956 1.397 . S
C1957 C1958 1.334 . S
C1958 H1929 0.950 . S
C1958 C1957 1.334 . S
C1958 C1959 1.287 . S
C1959 C1958 1.287 . S
C1959 C1960 1.524 . S
C1959 H1962 0.999 . S
C1960 H1930 0.950 . S
C1960 C1959 1.524 . S
C1960 C1961 1.415 . S
C1961 H1931 0.950 . S
C1961 C1956 1.363 . S
C1961 C1960 1.415 . S
H1962 C1959 0.999 . S
H1963 C1944 0.913 . S
H1964 C1982 0.951 . S
H1965 C1984 0.951 . S
H1966 C1986 0.950 . S
H1967 C1987 0.950 . S
H1968 C1989 0.950 . S
H1969 C1992 0.950 . S
H1970 C1993 0.950 . S
H1971 C1995 0.950 . S
H1972 C1996 0.950 . S
H1973 C1997 0.951 . S
H1974 C1999 0.951 . S
H1975 C2001 0.950 . S
H1976 C2002 0.950 . S
H1977 C2004 0.950 . S
H1978 C2007 0.950 . S
H1979 C2008 0.950 . S
H1980 C2010 0.950 . S
H1981 C2011 0.950 . S
C1982 H1964 0.951 . S
C1982 C1983 1.366 1_554 S
C1982 C1984 1.388 . S
C1983 C1982 1.366 1_556 S
C1983 C1987 1.385 . S
C1984 H1965 0.951 . S
C1984 C1982 1.388 . S
C1984 C1985 1.366 1_554 S
C1985 C1984 1.366 1_556 S
C1985 C1986 1.414 . S
C1985 C1988 1.499 . S
C1986 H1966 0.950 . S
C1986 C1985 1.414 . S
C1986 C1987 1.374 . S
C1987 H1967 0.950 . S
C1987 C1983 1.385 . S
C1987 C1986 1.374 . S
C1988 C1985 1.499 . S
C1988 C1989 1.373 . S
C1988 C1990 1.389 1_556 S
C1989 H1968 0.950 . S
C1989 C1988 1.373 . S
C1989 C2005 1.377 . S
C1990 C1988 1.389 1_554 S
C1990 C1991 1.524 . S
C1990 C2004 1.377 . S
C1991 C1990 1.524 . S
C1991 C1992 1.397 . S
C1991 C1996 1.363 . S
C1992 H1969 0.950 . S
C1992 C1991 1.397 . S
C1992 C1993 1.334 . S
C1993 H1970 0.950 . S
C1993 C1992 1.334 . S
C1993 C1994 1.287 . S
C1994 C1993 1.287 . S
C1994 C1995 1.524 . S
C1994 H2013 0.913 . S
C1995 H1971 0.950 . S
C1995 C1994 1.524 . S
C1995 C1996 1.415 . S
C1996 H1972 0.950 . S
C1996 C1991 1.363 . S
C1996 C1995 1.415 . S
C1997 H1973 0.951 . S
C1997 C1998 1.366 1_556 S
C1997 C1999 1.388 . S
C1998 C1997 1.366 1_554 S
C1998 C2002 1.385 . S
C1999 H1974 0.951 . S
C1999 C1997 1.388 . S
C1999 C2000 1.366 1_556 S
C2000 C1999 1.366 1_554 S
C2000 C2001 1.414 . S
C2000 C2003 1.499 . S
C2001 H1975 0.950 . S
C2001 C2000 1.414 . S
C2001 C2002 1.374 . S
C2002 H1976 0.950 . S
C2002 C1998 1.385 . S
C2002 C2001 1.374 . S
C2003 C2000 1.499 . S
C2003 C2004 1.373 . S
C2003 C2005 1.389 1_554 S
C2004 H1977 0.950 . S
C2004 C1990 1.377 . S
C2004 C2003 1.373 . S
C2005 C1989 1.377 . S
C2005 C2003 1.389 1_556 S
C2005 C2006 1.524 . S
C2006 C2005 1.524 . S
C2006 C2007 1.397 . S
C2006 C2011 1.363 . S
C2007 H1978 0.950 . S
C2007 C2006 1.397 . S
C2007 C2008 1.334 . S
C2008 H1979 0.950 . S
C2008 C2007 1.334 . S
C2008 C2009 1.287 . S
C2009 C2008 1.287 . S
C2009 C2010 1.524 . S
C2009 H2012 0.999 . S
C2010 H1980 0.950 . S
C2010 C2009 1.524 . S
C2010 C2011 1.415 . S
C2011 H1981 0.950 . S
C2011 C2006 1.363 . S
C2011 C2010 1.415 . S
H2012 C2009 0.999 . S
H2013 C1994 0.913 . S
H2014 C2032 0.951 . S
H2015 C2034 0.951 . S
H2016 C2036 0.950 . S
H2017 C2037 0.950 . S
H2018 C2039 0.950 . S
H2019 C2042 0.950 . S
H2020 C2043 0.950 . S
H2021 C2045 0.950 . S
H2022 C2046 0.950 . S
H2023 C2047 0.951 . S
H2024 C2049 0.951 . S
H2025 C2051 0.950 . S
H2026 C2052 0.950 . S
H2027 C2054 0.950 . S
H2028 C2057 0.950 . S
H2029 C2058 0.950 . S
H2030 C2060 0.950 . S
H2031 C2061 0.950 . S
C2032 H2014 0.951 . S
C2032 C2033 1.366 . S
C2032 C2034 1.388 . S
C2033 C2032 1.366 . S
C2033 C2037 1.385 . S
C2034 H2015 0.951 . S
C2034 C2032 1.388 . S
C2034 C2035 1.366 . S
C2035 C2034 1.366 . S
C2035 C2036 1.414 . S
C2035 C2038 1.499 . S
C2036 H2016 0.950 . S
C2036 C2035 1.414 . S
C2036 C2037 1.374 . S
C2037 H2017 0.950 . S
C2037 C2033 1.385 . S
C2037 C2036 1.374 . S
C2038 C2035 1.499 . S
C2038 C2039 1.373 . S
C2038 C2040 1.389 . S
C2039 H2018 0.950 . S
C2039 C2038 1.373 . S
C2039 C2055 1.377 . S
C2040 C2038 1.389 . S
C2040 C2041 1.524 . S
C2040 C2054 1.377 . S
C2041 C2040 1.524 . S
C2041 C2042 1.397 . S
C2041 C2046 1.363 . S
C2042 H2019 0.950 . S
C2042 C2041 1.397 . S
C2042 C2043 1.334 . S
C2043 H2020 0.950 . S
C2043 C2042 1.334 . S
C2043 C2044 1.287 . S
C2044 C2043 1.287 . S
C2044 C2045 1.524 . S
C2044 H2063 0.913 . S
C2045 H2021 0.950 . S
C2045 C2044 1.524 . S
C2045 C2046 1.415 . S
C2046 H2022 0.950 . S
C2046 C2041 1.363 . S
C2046 C2045 1.415 . S
C2047 H2023 0.951 . S
C2047 C2048 1.366 . S
C2047 C2049 1.388 . S
C2048 C2047 1.366 . S
C2048 C2052 1.385 . S
C2049 H2024 0.951 . S
C2049 C2047 1.388 . S
C2049 C2050 1.366 . S
C2050 C2049 1.366 . S
C2050 C2051 1.414 . S
C2050 C2053 1.499 . S
C2051 H2025 0.950 . S
C2051 C2050 1.414 . S
C2051 C2052 1.374 . S
C2052 H2026 0.950 . S
C2052 C2048 1.385 . S
C2052 C2051 1.374 . S
C2053 C2050 1.499 . S
C2053 C2054 1.373 . S
C2053 C2055 1.389 . S
C2054 H2027 0.950 . S
C2054 C2040 1.377 . S
C2054 C2053 1.373 . S
C2055 C2039 1.377 . S
C2055 C2053 1.389 . S
C2055 C2056 1.524 . S
C2056 C2055 1.524 . S
C2056 C2057 1.397 . S
C2056 C2061 1.363 . S
C2057 H2028 0.950 . S
C2057 C2056 1.397 . S
C2057 C2058 1.334 . S
C2058 H2029 0.950 . S
C2058 C2057 1.334 . S
C2058 C2059 1.287 . S
C2059 C2058 1.287 . S
C2059 C2060 1.524 . S
C2059 H2062 0.999 . S
C2060 H2030 0.950 . S
C2060 C2059 1.524 . S
C2060 C2061 1.415 . S
C2061 H2031 0.950 . S
C2061 C2056 1.363 . S
C2061 C2060 1.415 . S
H2062 C2059 0.999 . S
H2063 C2044 0.913 . S
H2064 C2082 0.951 . S
H2065 C2084 0.951 . S
H2066 C2086 0.950 . S
H2067 C2087 0.950 . S
H2068 C2089 0.950 . S
H2069 C2092 0.950 . S
H2070 C2093 0.950 . S
H2071 C2095 0.950 . S
H2072 C2096 0.950 . S
H2073 C2097 0.951 . S
H2074 C2099 0.951 . S
H2075 C2101 0.950 . S
H2076 C2102 0.950 . S
H2077 C2104 0.950 . S
H2078 C2107 0.950 . S
H2079 C2108 0.950 . S
H2080 C2110 0.950 . S
H2081 C2111 0.950 . S
C2082 H2064 0.951 . S
C2082 C2083 1.366 . S
C2082 C2084 1.388 . S
C2083 C2082 1.366 . S
C2083 C2087 1.385 . S
C2084 H2065 0.951 . S
C2084 C2082 1.388 . S
C2084 C2085 1.366 . S
C2085 C2084 1.366 . S
C2085 C2086 1.414 . S
C2085 C2088 1.499 . S
C2086 H2066 0.950 . S
C2086 C2085 1.414 . S
C2086 C2087 1.374 . S
C2087 H2067 0.950 . S
C2087 C2083 1.385 . S
C2087 C2086 1.374 . S
C2088 C2085 1.499 . S
C2088 C2089 1.373 . S
C2088 C2090 1.389 . S
C2089 H2068 0.950 . S
C2089 C2088 1.373 . S
C2089 C2105 1.377 . S
C2090 C2088 1.389 . S
C2090 C2091 1.524 . S
C2090 C2104 1.377 . S
C2091 C2090 1.524 . S
C2091 C2092 1.397 . S
C2091 C2096 1.363 . S
C2092 H2069 0.950 . S
C2092 C2091 1.397 . S
C2092 C2093 1.334 . S
C2093 H2070 0.950 . S
C2093 C2092 1.334 . S
C2093 C2094 1.287 . S
C2094 C2093 1.287 . S
C2094 C2095 1.524 . S
C2094 H2113 0.913 . S
C2095 H2071 0.950 . S
C2095 C2094 1.524 . S
C2095 C2096 1.415 . S
C2096 H2072 0.950 . S
C2096 C2091 1.363 . S
C2096 C2095 1.415 . S
C2097 H2073 0.951 . S
C2097 C2098 1.366 . S
C2097 C2099 1.388 . S
C2098 C2097 1.366 . S
C2098 C2102 1.385 . S
C2099 H2074 0.951 . S
C2099 C2097 1.388 . S
C2099 C2100 1.366 . S
C2100 C2099 1.366 . S
C2100 C2101 1.414 . S
C2100 C2103 1.499 . S
C2101 H2075 0.950 . S
C2101 C2100 1.414 . S
C2101 C2102 1.374 . S
C2102 H2076 0.950 . S
C2102 C2098 1.385 . S
C2102 C2101 1.374 . S
C2103 C2100 1.499 . S
C2103 C2104 1.373 . S
C2103 C2105 1.389 . S
C2104 H2077 0.950 . S
C2104 C2090 1.377 . S
C2104 C2103 1.373 . S
C2105 C2089 1.377 . S
C2105 C2103 1.389 . S
C2105 C2106 1.524 . S
C2106 C2105 1.524 . S
C2106 C2107 1.397 . S
C2106 C2111 1.363 . S
C2107 H2078 0.950 . S
C2107 C2106 1.397 . S
C2107 C2108 1.334 . S
C2108 H2079 0.950 . S
C2108 C2107 1.334 . S
C2108 C2109 1.287 . S
C2109 C2108 1.287 . S
C2109 C2110 1.524 . S
C2109 H2112 0.999 . S
C2110 H2080 0.950 . S
C2110 C2109 1.524 . S
C2110 C2111 1.415 . S
C2111 H2081 0.950 . S
C2111 C2106 1.363 . S
C2111 C2110 1.415 . S
H2112 C2109 0.999 . S
H2113 C2094 0.913 . S
H2114 C2132 0.951 . S
H2115 C2134 0.951 . S
H2116 C2136 0.950 . S
H2117 C2137 0.950 . S
H2118 C2139 0.950 . S
H2119 C2142 0.950 . S
H2120 C2143 0.950 . S
H2121 C2145 0.950 . S
H2122 C2146 0.950 . S
H2123 C2147 0.951 . S
H2124 C2149 0.951 . S
H2125 C2151 0.950 . S
H2126 C2152 0.950 . S
H2127 C2154 0.950 . S
H2128 C2157 0.950 . S
H2129 C2158 0.950 . S
H2130 C2160 0.950 . S
H2131 C2161 0.950 . S
C2132 H2114 0.951 . S
C2132 C2133 1.366 . S
C2132 C2134 1.388 . S
C2133 C2132 1.366 . S
C2133 C2137 1.385 . S
C2134 H2115 0.951 . S
C2134 C2132 1.388 . S
C2134 C2135 1.366 . S
C2135 C2134 1.366 . S
C2135 C2136 1.414 . S
C2135 C2138 1.499 . S
C2136 H2116 0.950 . S
C2136 C2135 1.414 . S
C2136 C2137 1.374 . S
C2137 H2117 0.950 . S
C2137 C2133 1.385 . S
C2137 C2136 1.374 . S
C2138 C2135 1.499 . S
C2138 C2139 1.373 . S
C2138 C2140 1.389 . S
C2139 H2118 0.950 . S
C2139 C2138 1.373 . S
C2139 C2155 1.377 . S
C2140 C2138 1.389 . S
C2140 C2141 1.524 . S
C2140 C2154 1.377 . S
C2141 C2140 1.524 . S
C2141 C2142 1.397 . S
C2141 C2146 1.363 . S
C2142 H2119 0.950 . S
C2142 C2141 1.397 . S
C2142 C2143 1.334 . S
C2143 H2120 0.950 . S
C2143 C2142 1.334 . S
C2143 C2144 1.287 . S
C2144 C2143 1.287 . S
C2144 C2145 1.524 . S
C2144 H2163 0.913 . S
C2145 H2121 0.950 . S
C2145 C2144 1.524 . S
C2145 C2146 1.415 . S
C2146 H2122 0.950 . S
C2146 C2141 1.363 . S
C2146 C2145 1.415 . S
C2147 H2123 0.951 . S
C2147 C2148 1.366 . S
C2147 C2149 1.388 . S
C2148 C2147 1.366 . S
C2148 C2152 1.385 . S
C2149 H2124 0.951 . S
C2149 C2147 1.388 . S
C2149 C2150 1.366 . S
C2150 C2149 1.366 . S
C2150 C2151 1.414 . S
C2150 C2153 1.499 . S
C2151 H2125 0.950 . S
C2151 C2150 1.414 . S
C2151 C2152 1.374 . S
C2152 H2126 0.950 . S
C2152 C2148 1.385 . S
C2152 C2151 1.374 . S
C2153 C2150 1.499 . S
C2153 C2154 1.373 . S
C2153 C2155 1.389 . S
C2154 H2127 0.950 . S
C2154 C2140 1.377 . S
C2154 C2153 1.373 . S
C2155 C2139 1.377 . S
C2155 C2153 1.389 . S
C2155 C2156 1.524 . S
C2156 C2155 1.524 . S
C2156 C2157 1.397 . S
C2156 C2161 1.363 . S
C2157 H2128 0.950 . S
C2157 C2156 1.397 . S
C2157 C2158 1.334 . S
C2158 H2129 0.950 . S
C2158 C2157 1.334 . S
C2158 C2159 1.287 . S
C2159 C2158 1.287 . S
C2159 C2160 1.524 . S
C2159 H2162 0.999 . S
C2160 H2130 0.950 . S
C2160 C2159 1.524 . S
C2160 C2161 1.415 . S
C2161 H2131 0.950 . S
C2161 C2156 1.363 . S
C2161 C2160 1.415 . S
H2162 C2159 0.999 . S
H2163 C2144 0.913 . S
H2164 C2182 0.951 . S
H2165 C2184 0.951 . S
H2166 C2186 0.950 . S
H2167 C2187 0.950 . S
H2168 C2189 0.950 . S
H2169 C2192 0.950 . S
H2170 C2193 0.950 . S
H2171 C2195 0.950 . S
H2172 C2196 0.950 . S
H2173 C2197 0.951 . S
H2174 C2199 0.951 . S
H2175 C2201 0.950 . S
H2176 C2202 0.950 . S
H2177 C2204 0.950 . S
H2178 C2207 0.950 . S
H2179 C2208 0.950 . S
H2180 C2210 0.950 . S
H2181 C2211 0.950 . S
C2182 H2164 0.951 . S
C2182 C2183 1.366 . S
C2182 C2184 1.388 . S
C2183 C2182 1.366 . S
C2183 C2187 1.385 . S
C2184 H2165 0.951 . S
C2184 C2182 1.388 . S
C2184 C2185 1.366 . S
C2185 C2184 1.366 . S
C2185 C2186 1.414 . S
C2185 C2188 1.499 . S
C2186 H2166 0.950 . S
C2186 C2185 1.414 . S
C2186 C2187 1.374 . S
C2187 H2167 0.950 . S
C2187 C2183 1.385 . S
C2187 C2186 1.374 . S
C2188 C2185 1.499 . S
C2188 C2189 1.373 . S
C2188 C2190 1.389 . S
C2189 H2168 0.950 . S
C2189 C2188 1.373 . S
C2189 C2205 1.377 . S
C2190 C2188 1.389 . S
C2190 C2191 1.524 . S
C2190 C2204 1.377 . S
C2191 C2190 1.524 . S
C2191 C2192 1.397 . S
C2191 C2196 1.363 . S
C2192 H2169 0.950 . S
C2192 C2191 1.397 . S
C2192 C2193 1.334 . S
C2193 H2170 0.950 . S
C2193 C2192 1.334 . S
C2193 C2194 1.287 . S
C2194 C2193 1.287 . S
C2194 C2195 1.524 . S
C2194 H2213 0.913 . S
C2195 H2171 0.950 . S
C2195 C2194 1.524 . S
C2195 C2196 1.415 . S
C2196 H2172 0.950 . S
C2196 C2191 1.363 . S
C2196 C2195 1.415 . S
C2197 H2173 0.951 . S
C2197 C2198 1.366 . S
C2197 C2199 1.388 . S
C2198 C2197 1.366 . S
C2198 C2202 1.385 . S
C2199 H2174 0.951 . S
C2199 C2197 1.388 . S
C2199 C2200 1.366 . S
C2200 C2199 1.366 . S
C2200 C2201 1.414 . S
C2200 C2203 1.499 . S
C2201 H2175 0.950 . S
C2201 C2200 1.414 . S
C2201 C2202 1.374 . S
C2202 H2176 0.950 . S
C2202 C2198 1.385 . S
C2202 C2201 1.374 . S
C2203 C2200 1.499 . S
C2203 C2204 1.373 . S
C2203 C2205 1.389 . S
C2204 H2177 0.950 . S
C2204 C2190 1.377 . S
C2204 C2203 1.373 . S
C2205 C2189 1.377 . S
C2205 C2203 1.389 . S
C2205 C2206 1.524 . S
C2206 C2205 1.524 . S
C2206 C2207 1.397 . S
C2206 C2211 1.363 . S
C2207 H2178 0.950 . S
C2207 C2206 1.397 . S
C2207 C2208 1.334 . S
C2208 H2179 0.950 . S
C2208 C2207 1.334 . S
C2208 C2209 1.287 . S
C2209 C2208 1.287 . S
C2209 C2210 1.524 . S
C2209 H2212 0.999 . S
C2210 H2180 0.950 . S
C2210 C2209 1.524 . S
C2210 C2211 1.415 . S
C2211 H2181 0.950 . S
C2211 C2206 1.363 . S
C2211 C2210 1.415 . S
H2212 C2209 0.999 . S
H2213 C2194 0.913 . S
H2214 C2232 0.951 . S
H2215 C2234 0.951 . S
H2216 C2236 0.950 . S
H2217 C2237 0.950 . S
H2218 C2239 0.950 . S
H2219 C2242 0.950 . S
H2220 C2243 0.950 . S
H2221 C2245 0.950 . S
H2222 C2246 0.950 . S
H2223 C2247 0.951 . S
H2224 C2249 0.951 . S
H2225 C2251 0.950 . S
H2226 C2252 0.950 . S
H2227 C2254 0.950 . S
H2228 C2257 0.950 . S
H2229 C2258 0.950 . S
H2230 C2260 0.950 . S
H2231 C2261 0.950 . S
C2232 H2214 0.951 . S
C2232 C2233 1.366 . S
C2232 C2234 1.388 . S
C2233 C2232 1.366 . S
C2233 C2237 1.385 . S
C2234 H2215 0.951 . S
C2234 C2232 1.388 . S
C2234 C2235 1.366 . S
C2235 C2234 1.366 . S
C2235 C2236 1.414 . S
C2235 C2238 1.499 . S
C2236 H2216 0.950 . S
C2236 C2235 1.414 . S
C2236 C2237 1.374 . S
C2237 H2217 0.950 . S
C2237 C2233 1.385 . S
C2237 C2236 1.374 . S
C2238 C2235 1.499 . S
C2238 C2239 1.373 . S
C2238 C2240 1.389 . S
C2239 H2218 0.950 . S
C2239 C2238 1.373 . S
C2239 C2255 1.377 . S
C2240 C2238 1.389 . S
C2240 C2241 1.524 . S
C2240 C2254 1.377 . S
C2241 C2240 1.524 . S
C2241 C2242 1.397 . S
C2241 C2246 1.363 . S
C2242 H2219 0.950 . S
C2242 C2241 1.397 . S
C2242 C2243 1.334 . S
C2243 H2220 0.950 . S
C2243 C2242 1.334 . S
C2243 C2244 1.287 . S
C2244 C2243 1.287 . S
C2244 C2245 1.524 . S
C2244 H2263 0.913 . S
C2245 H2221 0.950 . S
C2245 C2244 1.524 . S
C2245 C2246 1.415 . S
C2246 H2222 0.950 . S
C2246 C2241 1.363 . S
C2246 C2245 1.415 . S
C2247 H2223 0.951 . S
C2247 C2248 1.366 . S
C2247 C2249 1.388 . S
C2248 C2247 1.366 . S
C2248 C2252 1.385 . S
C2249 H2224 0.951 . S
C2249 C2247 1.388 . S
C2249 C2250 1.366 . S
C2250 C2249 1.366 . S
C2250 C2251 1.414 . S
C2250 C2253 1.499 . S
C2251 H2225 0.950 . S
C2251 C2250 1.414 . S
C2251 C2252 1.374 . S
C2252 H2226 0.950 . S
C2252 C2248 1.385 . S
C2252 C2251 1.374 . S
C2253 C2250 1.499 . S
C2253 C2254 1.373 . S
C2253 C2255 1.389 . S
C2254 H2227 0.950 . S
C2254 C2240 1.377 . S
C2254 C2253 1.373 . S
C2255 C2239 1.377 . S
C2255 C2253 1.389 . S
C2255 C2256 1.524 . S
C2256 C2255 1.524 . S
C2256 C2257 1.397 . S
C2256 C2261 1.363 . S
C2257 H2228 0.950 . S
C2257 C2256 1.397 . S
C2257 C2258 1.334 . S
C2258 H2229 0.950 . S
C2258 C2257 1.334 . S
C2258 C2259 1.287 . S
C2259 C2258 1.287 . S
C2259 C2260 1.524 . S
C2259 H2262 0.999 . S
C2260 H2230 0.950 . S
C2260 C2259 1.524 . S
C2260 C2261 1.415 . S
C2261 H2231 0.950 . S
C2261 C2256 1.363 . S
C2261 C2260 1.415 . S
H2262 C2259 0.999 . S
H2263 C2244 0.913 . S
H2264 C2282 0.951 . S
H2265 C2284 0.951 . S
H2266 C2286 0.950 . S
H2267 C2287 0.950 . S
H2268 C2289 0.950 . S
H2269 C2292 0.950 . S
H2270 C2293 0.950 . S
H2271 C2295 0.950 . S
H2272 C2296 0.950 . S
H2273 C2297 0.951 . S
H2274 C2299 0.951 . S
H2275 C2301 0.950 . S
H2276 C2302 0.950 . S
H2277 C2304 0.950 . S
H2278 C2307 0.950 . S
H2279 C2308 0.950 . S
H2280 C2310 0.950 . S
H2281 C2311 0.950 . S
C2282 H2264 0.951 . S
C2282 C2283 1.366 . S
C2282 C2284 1.388 . S
C2283 C2282 1.366 . S
C2283 C2287 1.385 . S
C2284 H2265 0.951 . S
C2284 C2282 1.388 . S
C2284 C2285 1.366 . S
C2285 C2284 1.366 . S
C2285 C2286 1.414 . S
C2285 C2288 1.499 . S
C2286 H2266 0.950 . S
C2286 C2285 1.414 . S
C2286 C2287 1.374 . S
C2287 H2267 0.950 . S
C2287 C2283 1.385 . S
C2287 C2286 1.374 . S
C2288 C2285 1.499 . S
C2288 C2289 1.373 . S
C2288 C2290 1.389 . S
C2289 H2268 0.950 . S
C2289 C2288 1.373 . S
C2289 C2305 1.377 . S
C2290 C2288 1.389 . S
C2290 C2291 1.524 . S
C2290 C2304 1.377 . S
C2291 C2290 1.524 . S
C2291 C2292 1.397 . S
C2291 C2296 1.363 . S
C2292 H2269 0.950 . S
C2292 C2291 1.397 . S
C2292 C2293 1.334 . S
C2293 H2270 0.950 . S
C2293 C2292 1.334 . S
C2293 C2294 1.287 . S
C2294 C2293 1.287 . S
C2294 C2295 1.524 . S
C2294 H2313 0.913 . S
C2295 H2271 0.950 . S
C2295 C2294 1.524 . S
C2295 C2296 1.415 . S
C2296 H2272 0.950 . S
C2296 C2291 1.363 . S
C2296 C2295 1.415 . S
C2297 H2273 0.951 . S
C2297 C2298 1.366 . S
C2297 C2299 1.388 . S
C2298 C2297 1.366 . S
C2298 C2302 1.385 . S
C2299 H2274 0.951 . S
C2299 C2297 1.388 . S
C2299 C2300 1.366 . S
C2300 C2299 1.366 . S
C2300 C2301 1.414 . S
C2300 C2303 1.499 . S
C2301 H2275 0.950 . S
C2301 C2300 1.414 . S
C2301 C2302 1.374 . S
C2302 H2276 0.950 . S
C2302 C2298 1.385 . S
C2302 C2301 1.374 . S
C2303 C2300 1.499 . S
C2303 C2304 1.373 . S
C2303 C2305 1.389 . S
C2304 H2277 0.950 . S
C2304 C2290 1.377 . S
C2304 C2303 1.373 . S
C2305 C2289 1.377 . S
C2305 C2303 1.389 . S
C2305 C2306 1.524 . S
C2306 C2305 1.524 . S
C2306 C2307 1.397 . S
C2306 C2311 1.363 . S
C2307 H2278 0.950 . S
C2307 C2306 1.397 . S
C2307 C2308 1.334 . S
C2308 H2279 0.950 . S
C2308 C2307 1.334 . S
C2308 C2309 1.287 . S
C2309 C2308 1.287 . S
C2309 C2310 1.524 . S
C2309 H2312 0.999 . S
C2310 H2280 0.950 . S
C2310 C2309 1.524 . S
C2310 C2311 1.415 . S
C2311 H2281 0.950 . S
C2311 C2306 1.363 . S
C2311 C2310 1.415 . S
H2312 C2309 0.999 . S
H2313 C2294 0.913 . S
H2314 C2332 0.951 . S
H2315 C2334 0.951 . S
H2316 C2336 0.950 . S
H2317 C2337 0.950 . S
H2318 C2339 0.950 . S
H2319 C2342 0.950 . S
H2320 C2343 0.950 . S
H2321 C2345 0.950 . S
H2322 C2346 0.950 . S
H2323 C2347 0.951 . S
H2324 C2349 0.951 . S
H2325 C2351 0.950 . S
H2326 C2352 0.950 . S
H2327 C2354 0.950 . S
H2328 C2357 0.950 . S
H2329 C2358 0.950 . S
H2330 C2360 0.950 . S
H2331 C2361 0.950 . S
C2332 H2314 0.951 . S
C2332 C2333 1.366 . S
C2332 C2334 1.388 . S
C2333 C2332 1.366 . S
C2333 C2337 1.385 . S
C2334 H2315 0.951 . S
C2334 C2332 1.388 . S
C2334 C2335 1.366 . S
C2335 C2334 1.366 . S
C2335 C2336 1.414 . S
C2335 C2338 1.499 . S
C2336 H2316 0.950 . S
C2336 C2335 1.414 . S
C2336 C2337 1.374 . S
C2337 H2317 0.950 . S
C2337 C2333 1.385 . S
C2337 C2336 1.374 . S
C2338 C2335 1.499 . S
C2338 C2339 1.373 . S
C2338 C2340 1.389 . S
C2339 H2318 0.950 . S
C2339 C2338 1.373 . S
C2339 C2355 1.377 . S
C2340 C2338 1.389 . S
C2340 C2341 1.524 . S
C2340 C2354 1.377 . S
C2341 C2340 1.524 . S
C2341 C2342 1.397 . S
C2341 C2346 1.363 . S
C2342 H2319 0.950 . S
C2342 C2341 1.397 . S
C2342 C2343 1.334 . S
C2343 H2320 0.950 . S
C2343 C2342 1.334 . S
C2343 C2344 1.287 . S
C2344 C2343 1.287 . S
C2344 C2345 1.524 . S
C2344 H2363 0.913 . S
C2345 H2321 0.950 . S
C2345 C2344 1.524 . S
C2345 C2346 1.415 . S
C2346 H2322 0.950 . S
C2346 C2341 1.363 . S
C2346 C2345 1.415 . S
C2347 H2323 0.951 . S
C2347 C2348 1.366 . S
C2347 C2349 1.388 . S
C2348 C2347 1.366 . S
C2348 C2352 1.385 . S
C2349 H2324 0.951 . S
C2349 C2347 1.388 . S
C2349 C2350 1.366 . S
C2350 C2349 1.366 . S
C2350 C2351 1.414 . S
C2350 C2353 1.499 . S
C2351 H2325 0.950 . S
C2351 C2350 1.414 . S
C2351 C2352 1.374 . S
C2352 H2326 0.950 . S
C2352 C2348 1.385 . S
C2352 C2351 1.374 . S
C2353 C2350 1.499 . S
C2353 C2354 1.373 . S
C2353 C2355 1.389 . S
C2354 H2327 0.950 . S
C2354 C2340 1.377 . S
C2354 C2353 1.373 . S
C2355 C2339 1.377 . S
C2355 C2353 1.389 . S
C2355 C2356 1.524 . S
C2356 C2355 1.524 . S
C2356 C2357 1.397 . S
C2356 C2361 1.363 . S
C2357 H2328 0.950 . S
C2357 C2356 1.397 . S
C2357 C2358 1.334 . S
C2358 H2329 0.950 . S
C2358 C2357 1.334 . S
C2358 C2359 1.287 . S
C2359 C2358 1.287 . S
C2359 C2360 1.524 . S
C2359 H2362 0.999 . S
C2360 H2330 0.950 . S
C2360 C2359 1.524 . S
C2360 C2361 1.415 . S
C2361 H2331 0.950 . S
C2361 C2356 1.363 . S
C2361 C2360 1.415 . S
H2362 C2359 0.999 . S
H2363 C2344 0.913 . S
H2364 C2382 0.951 . S
H2365 C2384 0.951 . S
H2366 C2386 0.950 . S
H2367 C2387 0.950 . S
H2368 C2389 0.950 . S
H2369 C2392 0.950 . S
H2370 C2393 0.950 . S
H2371 C2395 0.950 . S
H2372 C2396 0.950 . S
H2373 C2397 0.951 . S
H2374 C2399 0.951 . S
H2375 C2401 0.950 . S
H2376 C2402 0.950 . S
H2377 C2404 0.950 . S
H2378 C2407 0.950 . S
H2379 C2408 0.950 . S
H2380 C2410 0.950 . S
H2381 C2411 0.950 . S
C2382 H2364 0.951 . S
C2382 C2383 1.366 . S
C2382 C2384 1.388 . S
C2383 C2382 1.366 . S
C2383 C2387 1.385 . S
C2384 H2365 0.951 . S
C2384 C2382 1.388 . S
C2384 C2385 1.366 . S
C2385 C2384 1.366 . S
C2385 C2386 1.414 . S
C2385 C2388 1.499 . S
C2386 H2366 0.950 . S
C2386 C2385 1.414 . S
C2386 C2387 1.374 . S
C2387 H2367 0.950 . S
C2387 C2383 1.385 . S
C2387 C2386 1.374 . S
C2388 C2385 1.499 . S
C2388 C2389 1.373 . S
C2388 C2390 1.389 . S
C2389 H2368 0.950 . S
C2389 C2388 1.373 . S
C2389 C2405 1.377 . S
C2390 C2388 1.389 . S
C2390 C2391 1.524 . S
C2390 C2404 1.377 . S
C2391 C2390 1.524 . S
C2391 C2392 1.397 . S
C2391 C2396 1.363 . S
C2392 H2369 0.950 . S
C2392 C2391 1.397 . S
C2392 C2393 1.334 . S
C2393 H2370 0.950 . S
C2393 C2392 1.334 . S
C2393 C2394 1.287 . S
C2394 C2393 1.287 . S
C2394 C2395 1.524 . S
C2394 H2413 0.913 . S
C2395 H2371 0.950 . S
C2395 C2394 1.524 . S
C2395 C2396 1.415 . S
C2396 H2372 0.950 . S
C2396 C2391 1.363 . S
C2396 C2395 1.415 . S
C2397 H2373 0.951 . S
C2397 C2398 1.366 . S
C2397 C2399 1.388 . S
C2398 C2397 1.366 . S
C2398 C2402 1.385 . S
C2399 H2374 0.951 . S
C2399 C2397 1.388 . S
C2399 C2400 1.366 . S
C2400 C2399 1.366 . S
C2400 C2401 1.414 . S
C2400 C2403 1.499 . S
C2401 H2375 0.950 . S
C2401 C2400 1.414 . S
C2401 C2402 1.374 . S
C2402 H2376 0.950 . S
C2402 C2398 1.385 . S
C2402 C2401 1.374 . S
C2403 C2400 1.499 . S
C2403 C2404 1.373 . S
C2403 C2405 1.389 . S
C2404 H2377 0.950 . S
C2404 C2390 1.377 . S
C2404 C2403 1.373 . S
C2405 C2389 1.377 . S
C2405 C2403 1.389 . S
C2405 C2406 1.524 . S
C2406 C2405 1.524 . S
C2406 C2407 1.397 . S
C2406 C2411 1.363 . S
C2407 H2378 0.950 . S
C2407 C2406 1.397 . S
C2407 C2408 1.334 . S
C2408 H2379 0.950 . S
C2408 C2407 1.334 . S
C2408 C2409 1.287 . S
C2409 C2408 1.287 . S
C2409 C2410 1.524 . S
C2409 H2412 0.999 . S
C2410 H2380 0.950 . S
C2410 C2409 1.524 . S
C2410 C2411 1.415 . S
C2411 H2381 0.950 . S
C2411 C2406 1.363 . S
C2411 C2410 1.415 . S
H2412 C2409 0.999 . S
H2413 C2394 0.913 . S
H2414 C2432 0.951 . S
H2415 C2434 0.951 . S
H2416 C2436 0.950 . S
H2417 C2437 0.950 . S
H2418 C2439 0.950 . S
H2419 C2442 0.950 . S
H2420 C2443 0.950 . S
H2421 C2445 0.950 . S
H2422 C2446 0.950 . S
H2423 C2447 0.951 . S
H2424 C2449 0.951 . S
H2425 C2451 0.950 . S
H2426 C2452 0.950 . S
H2427 C2454 0.950 . S
H2428 C2457 0.950 . S
H2429 C2458 0.950 . S
H2430 C2460 0.950 . S
H2431 C2461 0.950 . S
C2432 H2414 0.951 . S
C2432 C2433 1.366 . S
C2432 C2434 1.388 . S
C2433 C2432 1.366 . S
C2433 C2437 1.385 . S
C2434 H2415 0.951 . S
C2434 C2432 1.388 . S
C2434 C2435 1.366 . S
C2435 C2434 1.366 . S
C2435 C2436 1.414 . S
C2435 C2438 1.499 . S
C2436 H2416 0.950 . S
C2436 C2435 1.414 . S
C2436 C2437 1.374 . S
C2437 H2417 0.950 . S
C2437 C2433 1.385 . S
C2437 C2436 1.374 . S
C2438 C2435 1.499 . S
C2438 C2439 1.373 . S
C2438 C2440 1.389 . S
C2439 H2418 0.950 . S
C2439 C2438 1.373 . S
C2439 C2455 1.377 . S
C2440 C2438 1.389 . S
C2440 C2441 1.524 . S
C2440 C2454 1.377 . S
C2441 C2440 1.524 . S
C2441 C2442 1.397 . S
C2441 C2446 1.363 . S
C2442 H2419 0.950 . S
C2442 C2441 1.397 . S
C2442 C2443 1.334 . S
C2443 H2420 0.950 . S
C2443 C2442 1.334 . S
C2443 C2444 1.287 . S
C2444 C2443 1.287 . S
C2444 C2445 1.524 . S
C2444 H2463 0.913 . S
C2445 H2421 0.950 . S
C2445 C2444 1.524 . S
C2445 C2446 1.415 . S
C2446 H2422 0.950 . S
C2446 C2441 1.363 . S
C2446 C2445 1.415 . S
C2447 H2423 0.951 . S
C2447 C2448 1.366 . S
C2447 C2449 1.388 . S
C2448 C2447 1.366 . S
C2448 C2452 1.385 . S
C2449 H2424 0.951 . S
C2449 C2447 1.388 . S
C2449 C2450 1.366 . S
C2450 C2449 1.366 . S
C2450 C2451 1.414 . S
C2450 C2453 1.499 . S
C2451 H2425 0.950 . S
C2451 C2450 1.414 . S
C2451 C2452 1.374 . S
C2452 H2426 0.950 . S
C2452 C2448 1.385 . S
C2452 C2451 1.374 . S
C2453 C2450 1.499 . S
C2453 C2454 1.373 . S
C2453 C2455 1.389 . S
C2454 H2427 0.950 . S
C2454 C2440 1.377 . S
C2454 C2453 1.373 . S
C2455 C2439 1.377 . S
C2455 C2453 1.389 . S
C2455 C2456 1.524 . S
C2456 C2455 1.524 . S
C2456 C2457 1.397 . S
C2456 C2461 1.363 . S
C2457 H2428 0.950 . S
C2457 C2456 1.397 . S
C2457 C2458 1.334 . S
C2458 H2429 0.950 . S
C2458 C2457 1.334 . S
C2458 C2459 1.287 . S
C2459 C2458 1.287 . S
C2459 C2460 1.524 . S
C2459 H2462 0.999 . S
C2460 H2430 0.950 . S
C2460 C2459 1.524 . S
C2460 C2461 1.415 . S
C2461 H2431 0.950 . S
C2461 C2456 1.363 . S
C2461 C2460 1.415 . S
H2462 C2459 0.999 . S
H2463 C2444 0.913 . S
H2464 C2482 0.951 . S
H2465 C2484 0.951 . S
H2466 C2486 0.950 . S
H2467 C2487 0.950 . S
H2468 C2489 0.950 . S
H2469 C2492 0.950 . S
H2470 C2493 0.950 . S
H2471 C2495 0.950 . S
H2472 C2496 0.950 . S
H2473 C2497 0.951 . S
H2474 C2499 0.951 . S
H2475 C2501 0.950 . S
H2476 C2502 0.950 . S
H2477 C2504 0.950 . S
H2478 C2507 0.950 . S
H2479 C2508 0.950 . S
H2480 C2510 0.950 . S
H2481 C2511 0.950 . S
C2482 H2464 0.951 . S
C2482 C2483 1.366 . S
C2482 C2484 1.388 . S
C2483 C2482 1.366 . S
C2483 C2487 1.385 . S
C2484 H2465 0.951 . S
C2484 C2482 1.388 . S
C2484 C2485 1.366 . S
C2485 C2484 1.366 . S
C2485 C2486 1.414 . S
C2485 C2488 1.499 . S
C2486 H2466 0.950 . S
C2486 C2485 1.414 . S
C2486 C2487 1.374 . S
C2487 H2467 0.950 . S
C2487 C2483 1.385 . S
C2487 C2486 1.374 . S
C2488 C2485 1.499 . S
C2488 C2489 1.373 . S
C2488 C2490 1.389 . S
C2489 H2468 0.950 . S
C2489 C2488 1.373 . S
C2489 C2505 1.377 . S
C2490 C2488 1.389 . S
C2490 C2491 1.524 . S
C2490 C2504 1.377 . S
C2491 C2490 1.524 . S
C2491 C2492 1.397 . S
C2491 C2496 1.363 . S
C2492 H2469 0.950 . S
C2492 C2491 1.397 . S
C2492 C2493 1.334 . S
C2493 H2470 0.950 . S
C2493 C2492 1.334 . S
C2493 C2494 1.287 . S
C2494 C2493 1.287 . S
C2494 C2495 1.524 . S
C2494 H2513 0.913 . S
C2495 H2471 0.950 . S
C2495 C2494 1.524 . S
C2495 C2496 1.415 . S
C2496 H2472 0.950 . S
C2496 C2491 1.363 . S
C2496 C2495 1.415 . S
C2497 H2473 0.951 . S
C2497 C2498 1.366 . S
C2497 C2499 1.388 . S
C2498 C2497 1.366 . S
C2498 C2502 1.385 . S
C2499 H2474 0.951 . S
C2499 C2497 1.388 . S
C2499 C2500 1.366 . S
C2500 C2499 1.366 . S
C2500 C2501 1.414 . S
C2500 C2503 1.499 . S
C2501 H2475 0.950 . S
C2501 C2500 1.414 . S
C2501 C2502 1.374 . S
C2502 H2476 0.950 . S
C2502 C2498 1.385 . S
C2502 C2501 1.374 . S
C2503 C2500 1.499 . S
C2503 C2504 1.373 . S
C2503 C2505 1.389 . S
C2504 H2477 0.950 . S
C2504 C2490 1.377 . S
C2504 C2503 1.373 . S
C2505 C2489 1.377 . S
C2505 C2503 1.389 . S
C2505 C2506 1.524 . S
C2506 C2505 1.524 . S
C2506 C2507 1.397 . S
C2506 C2511 1.363 . S
C2507 H2478 0.950 . S
C2507 C2506 1.397 . S
C2507 C2508 1.334 . S
C2508 H2479 0.950 . S
C2508 C2507 1.334 . S
C2508 C2509 1.287 . S
C2509 C2508 1.287 . S
C2509 C2510 1.524 . S
C2509 H2512 0.999 . S
C2510 H2480 0.950 . S
C2510 C2509 1.524 . S
C2510 C2511 1.415 . S
C2511 H2481 0.950 . S
C2511 C2506 1.363 . S
C2511 C2510 1.415 . S
H2512 C2509 0.999 . S
H2513 C2494 0.913 . S
H2514 C2532 0.951 . S
H2515 C2534 0.951 . S
H2516 C2536 0.950 . S
H2517 C2537 0.950 . S
H2518 C2539 0.950 . S
H2519 C2542 0.950 . S
H2520 C2543 0.950 . S
H2521 C2545 0.950 . S
H2522 C2546 0.961 . S
H2523 C2547 0.951 . S
H2524 C2549 0.951 . S
H2525 C2551 0.950 . S
H2526 C2552 0.950 . S
H2527 C2554 0.950 . S
H2528 C2557 0.950 . S
H2529 C2558 0.950 . S
H2530 C2560 0.950 . S
H2531 C2561 0.950 . S
C2532 H2514 0.951 . S
C2532 C2533 1.366 . S
C2532 C2534 1.388 . S
C2533 C2532 1.366 . S
C2533 C2537 1.385 . S
C2534 H2515 0.951 . S
C2534 C2532 1.388 . S
C2534 C2535 1.366 . S
C2535 C2534 1.366 . S
C2535 C2536 1.414 . S
C2535 C2538 1.499 . S
C2536 H2516 0.950 . S
C2536 C2535 1.414 . S
C2536 C2537 1.374 . S
C2537 H2517 0.950 . S
C2537 C2533 1.385 . S
C2537 C2536 1.374 . S
C2538 C2535 1.499 . S
C2538 C2539 1.373 . S
C2538 C2540 1.389 . S
C2539 H2518 0.950 . S
C2539 C2538 1.373 . S
C2539 C2555 1.377 1_554 S
C2540 C2538 1.389 . S
C2540 C2541 1.524 . S
C2540 C2554 1.377 1_554 S
C2541 C2540 1.524 . S
C2541 C2542 1.397 . S
C2541 C2546 1.363 . S
C2542 H2519 0.950 . S
C2542 C2541 1.397 . S
C2542 C2543 1.334 . S
C2543 H2520 0.950 . S
C2543 C2542 1.334 . S
C2543 C2544 1.287 . S
C2544 C2543 1.287 . S
C2544 C2545 1.524 . S
C2544 H2563 0.913 . S
C2545 H2521 0.950 . S
C2545 C2544 1.524 . S
C2545 C2546 1.415 . S
C2546 H2522 0.961 . S
C2546 C2541 1.363 . S
C2546 C2545 1.415 . S
C2547 H2523 0.951 . S
C2547 C2548 1.366 . S
C2547 C2549 1.388 . S
C2548 C2547 1.366 . S
C2548 C2552 1.385 . S
C2549 H2524 0.951 . S
C2549 C2547 1.388 . S
C2549 C2550 1.366 . S
C2550 C2549 1.366 . S
C2550 C2551 1.414 . S
C2550 C2553 1.499 . S
C2551 H2525 0.950 . S
C2551 C2550 1.414 . S
C2551 C2552 1.374 . S
C2552 H2526 0.950 . S
C2552 C2548 1.385 . S
C2552 C2551 1.374 . S
C2553 C2550 1.499 . S
C2553 C2554 1.373 . S
C2553 C2555 1.389 . S
C2554 H2527 0.950 . S
C2554 C2540 1.377 1_556 S
C2554 C2553 1.373 . S
C2555 C2539 1.377 1_556 S
C2555 C2553 1.389 . S
C2555 C2556 1.524 . S
C2556 C2555 1.524 . S
C2556 C2557 1.397 . S
C2556 C2561 1.363 . S
C2557 H2528 0.950 . S
C2557 C2556 1.397 . S
C2557 C2558 1.334 . S
C2558 H2529 0.950 . S
C2558 C2557 1.334 . S
C2558 C2559 1.287 . S
C2559 C2558 1.287 . S
C2559 C2560 1.524 . S
C2559 H2562 0.999 . S
C2560 H2530 0.950 . S
C2560 C2559 1.524 . S
C2560 C2561 1.415 . S
C2561 H2531 0.950 . S
C2561 C2556 1.363 . S
C2561 C2560 1.415 . S
H2562 C2559 0.999 . S
H2563 C2544 0.913 . S
H2564 C2582 0.951 . S
H2565 C2584 0.951 . S
H2566 C2586 0.950 . S
H2567 C2587 0.950 . S
H2568 C2589 0.950 . S
H2569 C2592 0.950 . S
H2570 C2593 0.950 . S
H2571 C2595 0.950 . S
H2572 C2596 0.950 . S
H2573 C2597 0.951 . S
H2574 C2599 0.951 . S
H2575 C2601 0.950 . S
H2576 C2602 0.950 . S
H2577 C2604 0.950 . S
H2578 C2607 0.950 . S
H2579 C2608 0.950 . S
H2580 C2610 0.950 . S
H2581 C2611 0.950 . S
C2582 H2564 0.951 . S
C2582 C2583 1.366 . S
C2582 C2584 1.388 . S
C2583 C2582 1.366 . S
C2583 C2587 1.385 . S
C2584 H2565 0.951 . S
C2584 C2582 1.388 . S
C2584 C2585 1.366 . S
C2585 C2584 1.366 . S
C2585 C2586 1.414 . S
C2585 C2588 1.499 . S
C2586 H2566 0.950 . S
C2586 C2585 1.414 . S
C2586 C2587 1.374 . S
C2587 H2567 0.950 . S
C2587 C2583 1.385 . S
C2587 C2586 1.374 . S
C2588 C2585 1.499 . S
C2588 C2589 1.373 . S
C2588 C2590 1.389 . S
C2589 H2568 0.950 . S
C2589 C2588 1.373 . S
C2589 C2605 1.377 . S
C2590 C2588 1.389 . S
C2590 C2591 1.524 . S
C2590 C2604 1.377 . S
C2591 C2590 1.524 . S
C2591 C2592 1.397 . S
C2591 C2596 1.363 . S
C2592 H2569 0.950 . S
C2592 C2591 1.397 . S
C2592 C2593 1.334 . S
C2593 H2570 0.950 . S
C2593 C2592 1.334 . S
C2593 C2594 1.287 . S
C2594 C2593 1.287 . S
C2594 C2595 1.524 . S
C2594 H2613 0.913 . S
C2595 H2571 0.950 . S
C2595 C2594 1.524 . S
C2595 C2596 1.415 . S
C2596 H2572 0.950 . S
C2596 C2591 1.363 . S
C2596 C2595 1.415 . S
C2597 H2573 0.951 . S
C2597 C2598 1.366 . S
C2597 C2599 1.388 . S
C2598 C2597 1.366 . S
C2598 C2602 1.385 . S
C2599 H2574 0.951 . S
C2599 C2597 1.388 . S
C2599 C2600 1.366 . S
C2600 C2599 1.366 . S
C2600 C2601 1.414 . S
C2600 C2603 1.499 . S
C2601 H2575 0.950 . S
C2601 C2600 1.414 . S
C2601 C2602 1.374 . S
C2602 H2576 0.950 . S
C2602 C2598 1.385 . S
C2602 C2601 1.374 . S
C2603 C2600 1.499 . S
C2603 C2604 1.373 . S
C2603 C2605 1.389 . S
C2604 H2577 0.950 . S
C2604 C2590 1.377 . S
C2604 C2603 1.373 . S
C2605 C2589 1.377 . S
C2605 C2603 1.389 . S
C2605 C2606 1.524 . S
C2606 C2605 1.524 . S
C2606 C2607 1.397 . S
C2606 C2611 1.363 . S
C2607 H2578 0.950 . S
C2607 C2606 1.397 . S
C2607 C2608 1.334 . S
C2608 H2579 0.950 . S
C2608 C2607 1.334 . S
C2608 C2609 1.287 . S
C2609 C2608 1.287 . S
C2609 C2610 1.524 . S
C2609 H2612 0.999 . S
C2610 H2580 0.950 . S
C2610 C2609 1.524 . S
C2610 C2611 1.415 . S
C2611 H2581 0.950 . S
C2611 C2606 1.363 . S
C2611 C2610 1.415 . S
H2612 C2609 0.999 . S
H2613 C2594 0.913 . S
H2614 C2632 0.951 . S
H2615 C2634 0.951 . S
H2616 C2636 0.950 . S
H2617 C2637 0.950 . S
H2618 C2639 0.950 . S
H2619 C2642 0.950 . S
H2620 C2643 0.950 . S
H2621 C2645 0.950 . S
H2622 C2646 0.950 1_554 S
H2623 C2647 0.951 . S
H2624 C2649 0.951 . S
H2625 C2651 0.950 . S
H2626 C2652 0.950 . S
H2627 C2654 0.950 . S
H2628 C2657 0.950 . S
H2629 C2658 0.950 . S
H2630 C2660 0.950 . S
H2631 C2661 0.950 . S
C2632 H2614 0.951 . S
C2632 C2633 1.366 . S
C2632 C2634 1.388 . S
C2633 C2632 1.366 . S
C2633 C2637 1.385 . S
C2634 H2615 0.951 . S
C2634 C2632 1.388 . S
C2634 C2635 1.366 . S
C2635 C2634 1.366 . S
C2635 C2636 1.414 . S
C2635 C2638 1.499 . S
C2636 H2616 0.950 . S
C2636 C2635 1.414 . S
C2636 C2637 1.374 . S
C2637 H2617 0.950 . S
C2637 C2633 1.385 . S
C2637 C2636 1.374 . S
C2638 C2635 1.499 . S
C2638 C2639 1.373 . S
C2638 C2640 1.389 . S
C2639 H2618 0.950 . S
C2639 C2638 1.373 . S
C2639 C2655 1.377 1_556 S
C2640 C2638 1.389 . S
C2640 C2641 1.524 . S
C2640 C2654 1.377 1_556 S
C2641 C2640 1.524 . S
C2641 C2642 1.397 . S
C2641 C2646 1.363 . S
C2642 H2619 0.950 . S
C2642 C2641 1.397 . S
C2642 C2643 1.334 . S
C2643 H2620 0.950 . S
C2643 C2642 1.334 . S
C2643 C2644 1.287 . S
C2644 C2643 1.287 . S
C2644 C2645 1.524 . S
C2644 H2663 0.913 . S
C2645 H2621 0.950 . S
C2645 C2644 1.524 . S
C2645 C2646 1.415 . S
C2646 H2622 0.950 1_556 S
C2646 C2641 1.363 . S
C2646 C2645 1.415 . S
C2647 H2623 0.951 . S
C2647 C2648 1.366 . S
C2647 C2649 1.388 . S
C2648 C2647 1.366 . S
C2648 C2652 1.385 . S
C2649 H2624 0.951 . S
C2649 C2647 1.388 . S
C2649 C2650 1.366 . S
C2650 C2649 1.366 . S
C2650 C2651 1.414 . S
C2650 C2653 1.499 . S
C2651 H2625 0.950 . S
C2651 C2650 1.414 . S
C2651 C2652 1.374 . S
C2652 H2626 0.950 . S
C2652 C2648 1.385 . S
C2652 C2651 1.374 . S
C2653 C2650 1.499 . S
C2653 C2654 1.373 . S
C2653 C2655 1.389 . S
C2654 H2627 0.950 . S
C2654 C2640 1.377 1_554 S
C2654 C2653 1.373 . S
C2655 C2639 1.377 1_554 S
C2655 C2653 1.389 . S
C2655 C2656 1.524 . S
C2656 C2655 1.524 . S
C2656 C2657 1.397 . S
C2656 C2661 1.363 . S
C2657 H2628 0.950 . S
C2657 C2656 1.397 . S
C2657 C2658 1.334 . S
C2658 H2629 0.950 . S
C2658 C2657 1.334 . S
C2658 C2659 1.287 . S
C2659 C2658 1.287 . S
C2659 C2660 1.524 . S
C2659 H2662 0.999 . S
C2660 H2630 0.950 . S
C2660 C2659 1.524 . S
C2660 C2661 1.415 . S
C2661 H2631 0.950 . S
C2661 C2656 1.363 . S
C2661 C2660 1.415 . S
H2662 C2659 0.999 . S
H2663 C2644 0.913 . S
H2664 C2682 0.951 . S
H2665 C2684 0.951 . S
H2666 C2686 0.950 . S
H2667 C2687 0.950 . S
H2668 C2689 0.950 . S
H2669 C2692 0.950 . S
H2670 C2693 0.950 . S
H2671 C2695 0.950 . S
H2672 C2696 0.950 . S
H2673 C2697 0.951 . S
H2674 C2699 0.951 . S
H2675 C2701 0.950 . S
H2676 C2702 0.950 . S
H2677 C2704 0.950 . S
H2678 C2707 0.950 . S
H2679 C2708 0.950 . S
H2680 C2710 0.950 . S
H2681 C2711 0.950 . S
C2682 H2664 0.951 . S
C2682 C2683 1.366 . S
C2682 C2684 1.388 . S
C2683 C2682 1.366 . S
C2683 C2687 1.385 . S
C2684 H2665 0.951 . S
C2684 C2682 1.388 . S
C2684 C2685 1.366 . S
C2685 C2684 1.366 . S
C2685 C2686 1.414 . S
C2685 C2688 1.499 . S
C2686 H2666 0.950 . S
C2686 C2685 1.414 . S
C2686 C2687 1.374 . S
C2687 H2667 0.950 . S
C2687 C2683 1.385 . S
C2687 C2686 1.374 . S
C2688 C2685 1.499 . S
C2688 C2689 1.373 . S
C2688 C2690 1.389 . S
C2689 H2668 0.950 . S
C2689 C2688 1.373 . S
C2689 C2705 1.377 . S
C2690 C2688 1.389 . S
C2690 C2691 1.524 . S
C2690 C2704 1.377 . S
C2691 C2690 1.524 . S
C2691 C2692 1.397 . S
C2691 C2696 1.363 . S
C2692 H2669 0.950 . S
C2692 C2691 1.397 . S
C2692 C2693 1.334 . S
C2693 H2670 0.950 . S
C2693 C2692 1.334 . S
C2693 C2694 1.287 . S
C2694 C2693 1.287 . S
C2694 C2695 1.524 . S
C2694 H2713 0.913 . S
C2695 H2671 0.950 . S
C2695 C2694 1.524 . S
C2695 C2696 1.415 . S
C2696 H2672 0.950 . S
C2696 C2691 1.363 . S
C2696 C2695 1.415 . S
C2697 H2673 0.951 . S
C2697 C2698 1.366 . S
C2697 C2699 1.388 . S
C2698 C2697 1.366 . S
C2698 C2702 1.385 . S
C2699 H2674 0.951 . S
C2699 C2697 1.388 . S
C2699 C2700 1.366 . S
C2700 C2699 1.366 . S
C2700 C2701 1.414 . S
C2700 C2703 1.499 . S
C2701 H2675 0.950 . S
C2701 C2700 1.414 . S
C2701 C2702 1.374 . S
C2702 H2676 0.950 . S
C2702 C2698 1.385 . S
C2702 C2701 1.374 . S
C2703 C2700 1.499 . S
C2703 C2704 1.373 . S
C2703 C2705 1.389 . S
C2704 H2677 0.950 . S
C2704 C2690 1.377 . S
C2704 C2703 1.373 . S
C2705 C2689 1.377 . S
C2705 C2703 1.389 . S
C2705 C2706 1.524 . S
C2706 C2705 1.524 . S
C2706 C2707 1.397 . S
C2706 C2711 1.363 . S
C2707 H2678 0.950 . S
C2707 C2706 1.397 . S
C2707 C2708 1.334 . S
C2708 H2679 0.950 . S
C2708 C2707 1.334 . S
C2708 C2709 1.287 . S
C2709 C2708 1.287 . S
C2709 C2710 1.524 . S
C2709 H2712 0.999 . S
C2710 H2680 0.950 . S
C2710 C2709 1.524 . S
C2710 C2711 1.415 . S
C2711 H2681 0.950 . S
C2711 C2706 1.363 . S
C2711 C2710 1.415 . S
H2712 C2709 0.999 . S
H2713 C2694 0.913 . S
H2714 C2732 0.951 . S
H2715 C2734 0.951 . S
H2716 C2736 0.950 . S
H2717 C2737 0.950 . S
H2718 C2739 0.950 . S
H2719 C2742 0.950 . S
H2720 C2743 0.950 . S
H2721 C2745 0.950 . S
H2722 C2746 0.950 1_554 S
H2723 C2747 0.951 . S
H2724 C2749 0.951 . S
H2725 C2751 0.950 . S
H2726 C2752 0.950 . S
H2727 C2754 0.950 . S
H2728 C2757 0.950 . S
H2729 C2758 0.950 . S
H2730 C2760 0.950 . S
H2731 C2761 0.950 . S
C2732 H2714 0.951 . S
C2732 C2733 1.366 . S
C2732 C2734 1.388 . S
C2733 C2732 1.366 . S
C2733 C2737 1.385 . S
C2734 H2715 0.951 . S
C2734 C2732 1.388 . S
C2734 C2735 1.366 . S
C2735 C2734 1.366 . S
C2735 C2736 1.414 . S
C2735 C2738 1.499 . S
C2736 H2716 0.950 . S
C2736 C2735 1.414 . S
C2736 C2737 1.374 . S
C2737 H2717 0.950 . S
C2737 C2733 1.385 . S
C2737 C2736 1.374 . S
C2738 C2735 1.499 . S
C2738 C2739 1.373 . S
C2738 C2740 1.389 . S
C2739 H2718 0.950 . S
C2739 C2738 1.373 . S
C2739 C2755 1.377 1_556 S
C2740 C2738 1.389 . S
C2740 C2741 1.524 . S
C2740 C2754 1.377 1_556 S
C2741 C2740 1.524 . S
C2741 C2742 1.397 . S
C2741 C2746 1.363 . S
C2742 H2719 0.950 . S
C2742 C2741 1.397 . S
C2742 C2743 1.334 . S
C2743 H2720 0.950 . S
C2743 C2742 1.334 . S
C2743 C2744 1.287 . S
C2744 C2743 1.287 . S
C2744 C2745 1.524 . S
C2744 H2763 0.913 . S
C2745 H2721 0.950 . S
C2745 C2744 1.524 . S
C2745 C2746 1.415 . S
C2746 H2722 0.950 1_556 S
C2746 C2741 1.363 . S
C2746 C2745 1.415 . S
C2747 H2723 0.951 . S
C2747 C2748 1.366 . S
C2747 C2749 1.388 . S
C2748 C2747 1.366 . S
C2748 C2752 1.385 . S
C2749 H2724 0.951 . S
C2749 C2747 1.388 . S
C2749 C2750 1.366 . S
C2750 C2749 1.366 . S
C2750 C2751 1.414 . S
C2750 C2753 1.499 . S
C2751 H2725 0.950 . S
C2751 C2750 1.414 . S
C2751 C2752 1.374 . S
C2752 H2726 0.950 . S
C2752 C2748 1.385 . S
C2752 C2751 1.374 . S
C2753 C2750 1.499 . S
C2753 C2754 1.373 . S
C2753 C2755 1.389 . S
C2754 H2727 0.950 . S
C2754 C2740 1.377 1_554 S
C2754 C2753 1.373 . S
C2755 C2739 1.377 1_554 S
C2755 C2753 1.389 . S
C2755 C2756 1.524 . S
C2756 C2755 1.524 . S
C2756 C2757 1.397 . S
C2756 C2761 1.363 . S
C2757 H2728 0.950 . S
C2757 C2756 1.397 . S
C2757 C2758 1.334 . S
C2758 H2729 0.950 . S
C2758 C2757 1.334 . S
C2758 C2759 1.287 . S
C2759 C2758 1.287 . S
C2759 C2760 1.524 . S
C2759 H2762 0.999 . S
C2760 H2730 0.950 . S
C2760 C2759 1.524 . S
C2760 C2761 1.415 . S
C2761 H2731 0.950 . S
C2761 C2756 1.363 . S
C2761 C2760 1.415 . S
H2762 C2759 0.999 . S
H2763 C2744 0.913 . S
H2764 C2782 0.951 . S
H2765 C2784 0.951 . S
H2766 C2786 0.950 . S
H2767 C2787 0.950 . S
H2768 C2789 0.950 . S
H2769 C2792 0.950 . S
H2770 C2793 0.950 . S
H2771 C2795 0.950 . S
H2772 C2796 0.950 . S
H2773 C2797 0.951 . S
H2774 C2799 0.951 . S
H2775 C2801 0.950 . S
H2776 C2802 0.950 . S
H2777 C2804 0.950 . S
H2778 C2807 0.950 . S
H2779 C2808 0.950 . S
H2780 C2810 0.950 . S
H2781 C2811 0.950 . S
C2782 H2764 0.951 . S
C2782 C2783 1.366 . S
C2782 C2784 1.388 . S
C2783 C2782 1.366 . S
C2783 C2787 1.385 . S
C2784 H2765 0.951 . S
C2784 C2782 1.388 . S
C2784 C2785 1.366 . S
C2785 C2784 1.366 . S
C2785 C2786 1.414 . S
C2785 C2788 1.499 . S
C2786 H2766 0.950 . S
C2786 C2785 1.414 . S
C2786 C2787 1.374 . S
C2787 H2767 0.950 . S
C2787 C2783 1.385 . S
C2787 C2786 1.374 . S
C2788 C2785 1.499 . S
C2788 C2789 1.373 . S
C2788 C2790 1.389 . S
C2789 H2768 0.950 . S
C2789 C2788 1.373 . S
C2789 C2805 1.377 . S
C2790 C2788 1.389 . S
C2790 C2791 1.524 . S
C2790 C2804 1.377 . S
C2791 C2790 1.524 . S
C2791 C2792 1.397 . S
C2791 C2796 1.363 . S
C2792 H2769 0.950 . S
C2792 C2791 1.397 . S
C2792 C2793 1.334 . S
C2793 H2770 0.950 . S
C2793 C2792 1.334 . S
C2793 C2794 1.287 . S
C2794 C2793 1.287 . S
C2794 C2795 1.524 . S
C2794 H2813 0.913 . S
C2795 H2771 0.950 . S
C2795 C2794 1.524 . S
C2795 C2796 1.415 . S
C2796 H2772 0.950 . S
C2796 C2791 1.363 . S
C2796 C2795 1.415 . S
C2797 H2773 0.951 . S
C2797 C2798 1.366 . S
C2797 C2799 1.388 . S
C2798 C2797 1.366 . S
C2798 C2802 1.385 . S
C2799 H2774 0.951 . S
C2799 C2797 1.388 . S
C2799 C2800 1.366 . S
C2800 C2799 1.366 . S
C2800 C2801 1.414 . S
C2800 C2803 1.499 . S
C2801 H2775 0.950 . S
C2801 C2800 1.414 . S
C2801 C2802 1.374 . S
C2802 H2776 0.950 . S
C2802 C2798 1.385 . S
C2802 C2801 1.374 . S
C2803 C2800 1.499 . S
C2803 C2804 1.373 . S
C2803 C2805 1.389 . S
C2804 H2777 0.950 . S
C2804 C2790 1.377 . S
C2804 C2803 1.373 . S
C2805 C2789 1.377 . S
C2805 C2803 1.389 . S
C2805 C2806 1.524 . S
C2806 C2805 1.524 . S
C2806 C2807 1.397 . S
C2806 C2811 1.363 . S
C2807 H2778 0.950 . S
C2807 C2806 1.397 . S
C2807 C2808 1.334 . S
C2808 H2779 0.950 . S
C2808 C2807 1.334 . S
C2808 C2809 1.287 . S
C2809 C2808 1.287 . S
C2809 C2810 1.524 . S
C2809 H2812 0.999 . S
C2810 H2780 0.950 . S
C2810 C2809 1.524 . S
C2810 C2811 1.415 . S
C2811 H2781 0.950 . S
C2811 C2806 1.363 . S
C2811 C2810 1.415 . S
H2812 C2809 0.999 . S
H2813 C2794 0.913 . S
H2814 C2832 0.951 . S
H2815 C2834 0.951 . S
H2816 C2836 0.950 . S
H2817 C2837 0.950 . S
H2818 C2839 0.950 . S
H2819 C2842 0.950 . S
H2820 C2843 0.950 . S
H2821 C2845 0.950 . S
H2822 C2846 0.950 . S
H2823 C2847 0.951 . S
H2824 C2849 0.951 . S
H2825 C2851 0.950 . S
H2826 C2852 0.950 . S
H2827 C2854 0.950 . S
H2828 C2857 0.950 . S
H2829 C2858 0.950 . S
H2830 C2860 0.950 . S
H2831 C2861 0.950 . S
C2832 H2814 0.951 . S
C2832 C2833 1.366 . S
C2832 C2834 1.388 . S
C2833 C2832 1.366 . S
C2833 C2837 1.385 . S
C2834 H2815 0.951 . S
C2834 C2832 1.388 . S
C2834 C2835 1.366 . S
C2835 C2834 1.366 . S
C2835 C2836 1.414 . S
C2835 C2838 1.499 . S
C2836 H2816 0.950 . S
C2836 C2835 1.414 . S
C2836 C2837 1.374 . S
C2837 H2817 0.950 . S
C2837 C2833 1.385 . S
C2837 C2836 1.374 . S
C2838 C2835 1.499 . S
C2838 C2839 1.373 . S
C2838 C2840 1.389 . S
C2839 H2818 0.950 . S
C2839 C2838 1.373 . S
C2839 C2855 1.377 1_556 S
C2840 C2838 1.389 . S
C2840 C2841 1.524 . S
C2840 C2854 1.377 1_556 S
C2841 C2840 1.524 . S
C2841 C2842 1.397 . S
C2841 C2846 1.363 . S
C2842 H2819 0.950 . S
C2842 C2841 1.397 . S
C2842 C2843 1.334 . S
C2843 H2820 0.950 . S
C2843 C2842 1.334 . S
C2843 C2844 1.287 . S
C2844 C2843 1.287 . S
C2844 C2845 1.524 . S
C2844 H2863 0.913 . S
C2845 H2821 0.950 . S
C2845 C2844 1.524 . S
C2845 C2846 1.415 . S
C2846 H2822 0.950 . S
C2846 C2841 1.363 . S
C2846 C2845 1.415 . S
C2847 H2823 0.951 . S
C2847 C2848 1.366 . S
C2847 C2849 1.388 . S
C2848 C2847 1.366 . S
C2848 C2852 1.385 . S
C2849 H2824 0.951 . S
C2849 C2847 1.388 . S
C2849 C2850 1.366 . S
C2850 C2849 1.366 . S
C2850 C2851 1.414 . S
C2850 C2853 1.499 . S
C2851 H2825 0.950 . S
C2851 C2850 1.414 . S
C2851 C2852 1.374 . S
C2852 H2826 0.950 . S
C2852 C2848 1.385 . S
C2852 C2851 1.374 . S
C2853 C2850 1.499 . S
C2853 C2854 1.373 . S
C2853 C2855 1.389 . S
C2854 H2827 0.950 . S
C2854 C2840 1.377 1_554 S
C2854 C2853 1.373 . S
C2855 C2839 1.377 1_554 S
C2855 C2853 1.389 . S
C2855 C2856 1.524 . S
C2856 C2855 1.524 . S
C2856 C2857 1.397 . S
C2856 C2861 1.363 . S
C2857 H2828 0.950 . S
C2857 C2856 1.397 . S
C2857 C2858 1.334 . S
C2858 H2829 0.950 . S
C2858 C2857 1.334 . S
C2858 C2859 1.287 . S
C2859 C2858 1.287 . S
C2859 C2860 1.524 . S
C2859 H2862 0.999 . S
C2860 H2830 0.950 . S
C2860 C2859 1.524 . S
C2860 C2861 1.415 . S
C2861 H2831 0.950 . S
C2861 C2856 1.363 . S
C2861 C2860 1.415 . S
H2862 C2859 0.999 . S
H2863 C2844 0.913 . S
H2864 C2882 0.951 . S
H2865 C2884 0.951 . S
H2866 C2886 0.950 . S
H2867 C2887 0.950 . S
H2868 C2889 0.950 . S
H2869 C2892 0.950 . S
H2870 C2893 0.950 . S
H2871 C2895 0.950 . S
H2872 C2896 0.950 . S
H2873 C2897 0.951 . S
H2874 C2899 0.951 . S
H2875 C2901 0.950 . S
H2876 C2902 0.950 . S
H2877 C2904 0.950 . S
H2878 C2907 0.950 . S
H2879 C2908 0.950 . S
H2880 C2910 0.950 . S
H2881 C2911 0.950 . S
C2882 H2864 0.951 . S
C2882 C2883 1.366 . S
C2882 C2884 1.388 . S
C2883 C2882 1.366 . S
C2883 C2887 1.385 . S
C2884 H2865 0.951 . S
C2884 C2882 1.388 . S
C2884 C2885 1.366 . S
C2885 C2884 1.366 . S
C2885 C2886 1.414 . S
C2885 C2888 1.499 . S
C2886 H2866 0.950 . S
C2886 C2885 1.414 . S
C2886 C2887 1.374 . S
C2887 H2867 0.950 . S
C2887 C2883 1.385 . S
C2887 C2886 1.374 . S
C2888 C2885 1.499 . S
C2888 C2889 1.373 . S
C2888 C2890 1.389 . S
C2889 H2868 0.950 . S
C2889 C2888 1.373 . S
C2889 C2905 1.377 . S
C2890 C2888 1.389 . S
C2890 C2891 1.524 . S
C2890 C2904 1.377 . S
C2891 C2890 1.524 . S
C2891 C2892 1.397 . S
C2891 C2896 1.363 . S
C2892 H2869 0.950 . S
C2892 C2891 1.397 . S
C2892 C2893 1.334 . S
C2893 H2870 0.950 . S
C2893 C2892 1.334 . S
C2893 C2894 1.287 . S
C2894 C2893 1.287 . S
C2894 C2895 1.524 . S
C2894 H2913 0.913 . S
C2895 H2871 0.950 . S
C2895 C2894 1.524 . S
C2895 C2896 1.415 . S
C2896 H2872 0.950 . S
C2896 C2891 1.363 . S
C2896 C2895 1.415 . S
C2897 H2873 0.951 . S
C2897 C2898 1.366 . S
C2897 C2899 1.388 . S
C2898 C2897 1.366 . S
C2898 C2902 1.385 . S
C2899 H2874 0.951 . S
C2899 C2897 1.388 . S
C2899 C2900 1.366 . S
C2900 C2899 1.366 . S
C2900 C2901 1.414 . S
C2900 C2903 1.499 . S
C2901 H2875 0.950 . S
C2901 C2900 1.414 . S
C2901 C2902 1.374 . S
C2902 H2876 0.950 . S
C2902 C2898 1.385 . S
C2902 C2901 1.374 . S
C2903 C2900 1.499 . S
C2903 C2904 1.373 . S
C2903 C2905 1.389 . S
C2904 H2877 0.950 . S
C2904 C2890 1.377 . S
C2904 C2903 1.373 . S
C2905 C2889 1.377 . S
C2905 C2903 1.389 . S
C2905 C2906 1.524 . S
C2906 C2905 1.524 . S
C2906 C2907 1.397 . S
C2906 C2911 1.363 . S
C2907 H2878 0.950 . S
C2907 C2906 1.397 . S
C2907 C2908 1.334 . S
C2908 H2879 0.950 . S
C2908 C2907 1.334 . S
C2908 C2909 1.287 . S
C2909 C2908 1.287 . S
C2909 C2910 1.524 . S
C2909 H2912 0.999 . S
C2910 H2880 0.950 . S
C2910 C2909 1.524 . S
C2910 C2911 1.415 . S
C2911 H2881 0.950 . S
C2911 C2906 1.363 . S
C2911 C2910 1.415 . S
H2912 C2909 0.999 . S
H2913 C2894 0.913 . S
H2914 C2932 0.951 . S
H2915 C2934 0.951 . S
H2916 C2936 0.950 . S
H2917 C2937 0.950 . S
H2918 C2939 0.950 . S
H2919 C2942 0.950 . S
H2920 C2943 0.950 . S
H2921 C2945 0.950 . S
H2922 C2946 0.950 . S
H2923 C2947 0.951 . S
H2924 C2949 0.951 . S
H2925 C2951 0.950 . S
H2926 C2952 0.950 . S
H2927 C2954 0.950 . S
H2928 C2957 0.950 . S
H2929 C2958 0.950 . S
H2930 C2960 0.950 . S
H2931 C2961 0.950 . S
C2932 H2914 0.951 . S
C2932 C2933 1.366 . S
C2932 C2934 1.388 . S
C2933 C2932 1.366 . S
C2933 C2937 1.385 . S
C2934 H2915 0.951 . S
C2934 C2932 1.388 . S
C2934 C2935 1.366 . S
C2935 C2934 1.366 . S
C2935 C2936 1.414 . S
C2935 C2938 1.499 . S
C2936 H2916 0.950 . S
C2936 C2935 1.414 . S
C2936 C2937 1.374 . S
C2937 H2917 0.950 . S
C2937 C2933 1.385 . S
C2937 C2936 1.374 . S
C2938 C2935 1.499 . S
C2938 C2939 1.373 . S
C2938 C2940 1.389 . S
C2939 H2918 0.950 . S
C2939 C2938 1.373 . S
C2939 C2955 1.377 1_556 S
C2940 C2938 1.389 . S
C2940 C2941 1.524 . S
C2940 C2954 1.377 1_556 S
C2941 C2940 1.524 . S
C2941 C2942 1.397 . S
C2941 C2946 1.363 . S
C2942 H2919 0.950 . S
C2942 C2941 1.397 . S
C2942 C2943 1.334 . S
C2943 H2920 0.950 . S
C2943 C2942 1.334 . S
C2943 C2944 1.287 . S
C2944 C2943 1.287 . S
C2944 C2945 1.524 . S
C2944 H2963 0.913 . S
C2945 H2921 0.950 . S
C2945 C2944 1.524 . S
C2945 C2946 1.415 . S
C2946 H2922 0.950 . S
C2946 C2941 1.363 . S
C2946 C2945 1.415 . S
C2947 H2923 0.951 . S
C2947 C2948 1.366 . S
C2947 C2949 1.388 . S
C2948 C2947 1.366 . S
C2948 C2952 1.385 . S
C2949 H2924 0.951 . S
C2949 C2947 1.388 . S
C2949 C2950 1.366 . S
C2950 C2949 1.366 . S
C2950 C2951 1.414 . S
C2950 C2953 1.499 . S
C2951 H2925 0.950 . S
C2951 C2950 1.414 . S
C2951 C2952 1.374 . S
C2952 H2926 0.950 . S
C2952 C2948 1.385 . S
C2952 C2951 1.374 . S
C2953 C2950 1.499 . S
C2953 C2954 1.373 . S
C2953 C2955 1.389 . S
C2954 H2927 0.950 . S
C2954 C2940 1.377 1_554 S
C2954 C2953 1.373 . S
C2955 C2939 1.377 1_554 S
C2955 C2953 1.389 . S
C2955 C2956 1.524 . S
C2956 C2955 1.524 . S
C2956 C2957 1.397 . S
C2956 C2961 1.363 . S
C2957 H2928 0.950 . S
C2957 C2956 1.397 . S
C2957 C2958 1.334 . S
C2958 H2929 0.950 . S
C2958 C2957 1.334 . S
C2958 C2959 1.287 . S
C2959 C2958 1.287 . S
C2959 C2960 1.524 . S
C2959 H2962 0.999 . S
C2960 H2930 0.950 . S
C2960 C2959 1.524 . S
C2960 C2961 1.415 . S
C2961 H2931 0.950 . S
C2961 C2956 1.363 . S
C2961 C2960 1.415 . S
H2962 C2959 0.999 . S
H2963 C2944 0.913 . S
H2964 C2982 0.951 . S
H2965 C2984 0.951 . S
H2966 C2986 0.950 . S
H2967 C2987 0.950 . S
H2968 C2989 0.950 . S
H2969 C2992 0.950 . S
H2970 C2993 0.950 . S
H2971 C2995 0.950 . S
H2972 C2996 0.950 . S
H2973 C2997 0.951 . S
H2974 C2999 0.951 . S
H2975 C3001 0.950 . S
H2976 C3002 0.950 . S
H2977 C3004 0.950 . S
H2978 C3007 0.950 . S
H2979 C3008 0.950 . S
H2980 C3010 0.950 . S
H2981 C3011 0.950 . S
C2982 H2964 0.951 . S
C2982 C2983 1.366 . S
C2982 C2984 1.388 . S
C2983 C2982 1.366 . S
C2983 C2987 1.385 . S
C2984 H2965 0.951 . S
C2984 C2982 1.388 . S
C2984 C2985 1.366 . S
C2985 C2984 1.366 . S
C2985 C2986 1.414 . S
C2985 C2988 1.499 . S
C2986 H2966 0.950 . S
C2986 C2985 1.414 . S
C2986 C2987 1.374 . S
C2987 H2967 0.950 . S
C2987 C2983 1.385 . S
C2987 C2986 1.374 . S
C2988 C2985 1.499 . S
C2988 C2989 1.373 . S
C2988 C2990 1.389 . S
C2989 H2968 0.950 . S
C2989 C2988 1.373 . S
C2989 C3005 1.377 . S
C2990 C2988 1.389 . S
C2990 C2991 1.524 . S
C2990 C3004 1.377 . S
C2991 C2990 1.524 . S
C2991 C2992 1.397 . S
C2991 C2996 1.363 . S
C2992 H2969 0.950 . S
C2992 C2991 1.397 . S
C2992 C2993 1.334 . S
C2993 H2970 0.950 . S
C2993 C2992 1.334 . S
C2993 C2994 1.287 . S
C2994 C2993 1.287 . S
C2994 C2995 1.524 . S
C2994 H3013 0.913 . S
C2995 H2971 0.950 . S
C2995 C2994 1.524 . S
C2995 C2996 1.415 . S
C2996 H2972 0.950 . S
C2996 C2991 1.363 . S
C2996 C2995 1.415 . S
C2997 H2973 0.951 . S
C2997 C2998 1.366 . S
C2997 C2999 1.388 . S
C2998 C2997 1.366 . S
C2998 C3002 1.385 . S
C2999 H2974 0.951 . S
C2999 C2997 1.388 . S
C2999 C3000 1.366 . S
C3000 C2999 1.366 . S
C3000 C3001 1.414 . S
C3000 C3003 1.499 . S
C3001 H2975 0.950 . S
C3001 C3000 1.414 . S
C3001 C3002 1.374 . S
C3002 H2976 0.950 . S
C3002 C2998 1.385 . S
C3002 C3001 1.374 . S
C3003 C3000 1.499 . S
C3003 C3004 1.373 . S
C3003 C3005 1.389 . S
C3004 H2977 0.950 . S
C3004 C2990 1.377 . S
C3004 C3003 1.373 . S
C3005 C2989 1.377 . S
C3005 C3003 1.389 . S
C3005 C3006 1.524 . S
C3006 C3005 1.524 . S
C3006 C3007 1.397 . S
C3006 C3011 1.363 . S
C3007 H2978 0.950 . S
C3007 C3006 1.397 . S
C3007 C3008 1.334 . S
C3008 H2979 0.950 . S
C3008 C3007 1.334 . S
C3008 C3009 1.287 . S
C3009 C3008 1.287 . S
C3009 C3010 1.524 . S
C3009 H3012 0.999 . S
C3010 H2980 0.950 . S
C3010 C3009 1.524 . S
C3010 C3011 1.415 . S
C3011 H2981 0.950 . S
C3011 C3006 1.363 . S
C3011 C3010 1.415 . S
H3012 C3009 0.999 . S
H3013 C2994 0.913 . S
H3014 C3032 0.951 . S
H3015 C3034 0.951 . S
H3016 C3036 0.950 . S
H3017 C3037 0.950 . S
H3018 C3039 0.950 . S
H3019 C3042 0.950 . S
H3020 C3043 0.950 . S
H3021 C3045 0.950 . S
H3022 C3046 0.950 . S
H3023 C3047 0.951 . S
H3024 C3049 0.951 . S
H3025 C3051 0.950 . S
H3026 C3052 0.950 . S
H3027 C3054 0.950 . S
H3028 C3057 0.950 . S
H3029 C3058 0.950 . S
H3030 C3060 0.950 . S
H3031 C3061 0.950 . S
C3032 H3014 0.951 . S
C3032 C3033 1.366 . S
C3032 C3034 1.388 . S
C3033 C3032 1.366 . S
C3033 C3037 1.385 . S
C3034 H3015 0.951 . S
C3034 C3032 1.388 . S
C3034 C3035 1.366 . S
C3035 C3034 1.366 . S
C3035 C3036 1.414 . S
C3035 C3038 1.499 . S
C3036 H3016 0.950 . S
C3036 C3035 1.414 . S
C3036 C3037 1.374 . S
C3037 H3017 0.950 . S
C3037 C3033 1.385 . S
C3037 C3036 1.374 . S
C3038 C3035 1.499 . S
C3038 C3039 1.373 . S
C3038 C3040 1.389 . S
C3039 H3018 0.950 . S
C3039 C3038 1.373 . S
C3039 C3055 1.377 1_554 S
C3040 C3038 1.389 . S
C3040 C3041 1.524 . S
C3040 C3054 1.377 1_554 S
C3041 C3040 1.524 . S
C3041 C3042 1.397 . S
C3041 C3046 1.363 . S
C3042 H3019 0.950 . S
C3042 C3041 1.397 . S
C3042 C3043 1.334 . S
C3043 H3020 0.950 . S
C3043 C3042 1.334 . S
C3043 C3044 1.287 . S
C3044 C3043 1.287 . S
C3044 C3045 1.524 . S
C3044 H3063 0.913 . S
C3045 H3021 0.950 . S
C3045 C3044 1.524 . S
C3045 C3046 1.415 . S
C3046 H3022 0.950 . S
C3046 C3041 1.363 . S
C3046 C3045 1.415 . S
C3047 H3023 0.951 . S
C3047 C3048 1.366 . S
C3047 C3049 1.388 . S
C3048 C3047 1.366 . S
C3048 C3052 1.385 . S
C3049 H3024 0.951 . S
C3049 C3047 1.388 . S
C3049 C3050 1.366 . S
C3050 C3049 1.366 . S
C3050 C3051 1.414 . S
C3050 C3053 1.499 . S
C3051 H3025 0.950 . S
C3051 C3050 1.414 . S
C3051 C3052 1.374 . S
C3052 H3026 0.950 . S
C3052 C3048 1.385 . S
C3052 C3051 1.374 . S
C3053 C3050 1.499 . S
C3053 C3054 1.373 . S
C3053 C3055 1.389 . S
C3054 H3027 0.950 . S
C3054 C3040 1.377 1_556 S
C3054 C3053 1.373 . S
C3055 C3039 1.377 1_556 S
C3055 C3053 1.389 . S
C3055 C3056 1.524 . S
C3056 C3055 1.524 . S
C3056 C3057 1.397 . S
C3056 C3061 1.363 . S
C3057 H3028 0.950 . S
C3057 C3056 1.397 . S
C3057 C3058 1.334 . S
C3058 H3029 0.950 . S
C3058 C3057 1.334 . S
C3058 C3059 1.287 . S
C3059 C3058 1.287 . S
C3059 C3060 1.524 . S
C3059 H3062 0.999 . S
C3060 H3030 0.950 . S
C3060 C3059 1.524 . S
C3060 C3061 1.415 . S
C3061 H3031 0.950 . S
C3061 C3056 1.363 . S
C3061 C3060 1.415 . S
H3062 C3059 0.999 . S
H3063 C3044 0.913 . S
H3064 C3082 0.951 . S
H3065 C3084 0.951 . S
H3066 C3086 0.950 . S
H3067 C3087 0.950 . S
H3068 C3089 0.950 . S
H3069 C3092 0.950 . S
H3070 C3093 0.950 . S
H3071 C3095 0.950 . S
H3072 C3096 0.950 . S
H3073 C3097 0.951 . S
H3074 C3099 0.951 . S
H3075 C3101 0.950 . S
H3076 C3102 0.950 . S
H3077 C3104 0.950 . S
H3078 C3107 0.950 . S
H3079 C3108 0.950 . S
H3080 C3110 0.950 . S
H3081 C3111 0.950 . S
C3082 H3064 0.951 . S
C3082 C3083 1.366 . S
C3082 C3084 1.388 . S
C3083 C3082 1.366 . S
C3083 C3087 1.385 . S
C3084 H3065 0.951 . S
C3084 C3082 1.388 . S
C3084 C3085 1.366 . S
C3085 C3084 1.366 . S
C3085 C3086 1.414 . S
C3085 C3088 1.499 . S
C3086 H3066 0.950 . S
C3086 C3085 1.414 . S
C3086 C3087 1.374 . S
C3087 H3067 0.950 . S
C3087 C3083 1.385 . S
C3087 C3086 1.374 . S
C3088 C3085 1.499 . S
C3088 C3089 1.373 . S
C3088 C3090 1.389 . S
C3089 H3068 0.950 . S
C3089 C3088 1.373 . S
C3089 C3105 1.377 . S
C3090 C3088 1.389 . S
C3090 C3091 1.524 . S
C3090 C3104 1.377 . S
C3091 C3090 1.524 . S
C3091 C3092 1.397 . S
C3091 C3096 1.363 . S
C3092 H3069 0.950 . S
C3092 C3091 1.397 . S
C3092 C3093 1.334 . S
C3093 H3070 0.950 . S
C3093 C3092 1.334 . S
C3093 C3094 1.287 . S
C3094 C3093 1.287 . S
C3094 C3095 1.524 . S
C3094 H3113 0.913 . S
C3095 H3071 0.950 . S
C3095 C3094 1.524 . S
C3095 C3096 1.415 . S
C3096 H3072 0.950 . S
C3096 C3091 1.363 . S
C3096 C3095 1.415 . S
C3097 H3073 0.951 . S
C3097 C3098 1.366 . S
C3097 C3099 1.388 . S
C3098 C3097 1.366 . S
C3098 C3102 1.385 . S
C3099 H3074 0.951 . S
C3099 C3097 1.388 . S
C3099 C3100 1.366 . S
C3100 C3099 1.366 . S
C3100 C3101 1.414 . S
C3100 C3103 1.499 . S
C3101 H3075 0.950 . S
C3101 C3100 1.414 . S
C3101 C3102 1.374 . S
C3102 H3076 0.950 . S
C3102 C3098 1.385 . S
C3102 C3101 1.374 . S
C3103 C3100 1.499 . S
C3103 C3104 1.373 . S
C3103 C3105 1.389 . S
C3104 H3077 0.950 . S
C3104 C3090 1.377 . S
C3104 C3103 1.373 . S
C3105 C3089 1.377 . S
C3105 C3103 1.389 . S
C3105 C3106 1.524 . S
C3106 C3105 1.524 . S
C3106 C3107 1.397 . S
C3106 C3111 1.363 . S
C3107 H3078 0.950 . S
C3107 C3106 1.397 . S
C3107 C3108 1.334 . S
C3108 H3079 0.950 . S
C3108 C3107 1.334 . S
C3108 C3109 1.287 . S
C3109 C3108 1.287 . S
C3109 C3110 1.524 . S
C3109 H3112 0.999 . S
C3110 H3080 0.950 . S
C3110 C3109 1.524 . S
C3110 C3111 1.415 . S
C3111 H3081 0.950 . S
C3111 C3106 1.363 . S
C3111 C3110 1.415 . S
H3112 C3109 0.999 . S
H3113 C3094 0.913 . S
H3114 C3132 0.951 . S
H3115 C3134 0.951 . S
H3116 C3136 0.950 . S
H3117 C3137 0.950 . S
H3118 C3139 0.950 . S
H3119 C3142 0.950 . S
H3120 C3143 0.950 . S
H3121 C3145 0.950 . S
H3122 C3146 0.950 . S
H3123 C3147 0.951 . S
H3124 C3149 0.951 . S
H3125 C3151 0.950 . S
H3126 C3152 0.950 . S
H3127 C3154 0.950 . S
H3128 C3157 0.950 . S
H3129 C3158 0.950 . S
H3130 C3160 0.950 . S
H3131 C3161 0.950 . S
C3132 H3114 0.951 . S
C3132 C3133 1.366 . S
C3132 C3134 1.388 . S
C3133 C3132 1.366 . S
C3133 C3137 1.385 . S
C3134 H3115 0.951 . S
C3134 C3132 1.388 . S
C3134 C3135 1.366 . S
C3135 C3134 1.366 . S
C3135 C3136 1.414 . S
C3135 C3138 1.499 . S
C3136 H3116 0.950 . S
C3136 C3135 1.414 . S
C3136 C3137 1.374 . S
C3137 H3117 0.950 . S
C3137 C3133 1.385 . S
C3137 C3136 1.374 . S
C3138 C3135 1.499 . S
C3138 C3139 1.373 . S
C3138 C3140 1.389 . S
C3139 H3118 0.950 . S
C3139 C3138 1.373 . S
C3139 C3155 1.377 1_554 S
C3140 C3138 1.389 . S
C3140 C3141 1.524 . S
C3140 C3154 1.377 1_554 S
C3141 C3140 1.524 . S
C3141 C3142 1.397 . S
C3141 C3146 1.363 . S
C3142 H3119 0.950 . S
C3142 C3141 1.397 . S
C3142 C3143 1.334 . S
C3143 H3120 0.950 . S
C3143 C3142 1.334 . S
C3143 C3144 1.287 . S
C3144 C3143 1.287 . S
C3144 C3145 1.524 . S
C3144 H3163 0.913 . S
C3145 H3121 0.950 . S
C3145 C3144 1.524 . S
C3145 C3146 1.415 . S
C3146 H3122 0.950 . S
C3146 C3141 1.363 . S
C3146 C3145 1.415 . S
C3147 H3123 0.951 . S
C3147 C3148 1.366 . S
C3147 C3149 1.388 . S
C3148 C3147 1.366 . S
C3148 C3152 1.385 . S
C3149 H3124 0.951 . S
C3149 C3147 1.388 . S
C3149 C3150 1.366 . S
C3150 C3149 1.366 . S
C3150 C3151 1.414 . S
C3150 C3153 1.499 . S
C3151 H3125 0.950 . S
C3151 C3150 1.414 . S
C3151 C3152 1.374 . S
C3152 H3126 0.950 . S
C3152 C3148 1.385 . S
C3152 C3151 1.374 . S
C3153 C3150 1.499 . S
C3153 C3154 1.373 . S
C3153 C3155 1.389 . S
C3154 H3127 0.950 . S
C3154 C3140 1.377 1_556 S
C3154 C3153 1.373 . S
C3155 C3139 1.377 1_556 S
C3155 C3153 1.389 . S
C3155 C3156 1.524 . S
C3156 C3155 1.524 . S
C3156 C3157 1.397 . S
C3156 C3161 1.363 . S
C3157 H3128 0.950 . S
C3157 C3156 1.397 . S
C3157 C3158 1.334 . S
C3158 H3129 0.950 . S
C3158 C3157 1.334 . S
C3158 C3159 1.287 . S
C3159 C3158 1.287 . S
C3159 C3160 1.524 . S
C3159 H3162 0.999 . S
C3160 H3130 0.950 . S
C3160 C3159 1.524 . S
C3160 C3161 1.415 . S
C3161 H3131 0.950 . S
C3161 C3156 1.363 . S
C3161 C3160 1.415 . S
H3162 C3159 0.999 . S
H3163 C3144 0.913 . S
H3164 C3182 0.951 . S
H3165 C3184 0.951 . S
H3166 C3186 0.950 . S
H3167 C3187 0.950 . S
H3168 C3189 0.950 . S
H3169 C3192 0.950 . S
H3170 C3193 0.950 . S
H3171 C3195 0.950 . S
H3172 C3196 0.950 . S
H3173 C3197 0.951 . S
H3174 C3199 0.951 . S
H3175 C3201 0.950 . S
H3176 C3202 0.950 . S
H3177 C3204 0.950 . S
H3178 C3207 0.950 . S
H3179 C3208 0.950 . S
H3180 C3210 0.950 . S
H3181 C3211 0.950 . S
C3182 H3164 0.951 . S
C3182 C3183 1.366 . S
C3182 C3184 1.388 . S
C3183 C3182 1.366 . S
C3183 C3187 1.385 . S
C3184 H3165 0.951 . S
C3184 C3182 1.388 . S
C3184 C3185 1.366 . S
C3185 C3184 1.366 . S
C3185 C3186 1.414 . S
C3185 C3188 1.499 . S
C3186 H3166 0.950 . S
C3186 C3185 1.414 . S
C3186 C3187 1.374 . S
C3187 H3167 0.950 . S
C3187 C3183 1.385 . S
C3187 C3186 1.374 . S
C3188 C3185 1.499 . S
C3188 C3189 1.373 . S
C3188 C3190 1.389 . S
C3189 H3168 0.950 . S
C3189 C3188 1.373 . S
C3189 C3205 1.377 . S
C3190 C3188 1.389 . S
C3190 C3191 1.524 . S
C3190 C3204 1.377 . S
C3191 C3190 1.524 . S
C3191 C3192 1.397 . S
C3191 C3196 1.363 . S
C3192 H3169 0.950 . S
C3192 C3191 1.397 . S
C3192 C3193 1.334 . S
C3193 H3170 0.950 . S
C3193 C3192 1.334 . S
C3193 C3194 1.287 . S
C3194 C3193 1.287 . S
C3194 C3195 1.524 . S
C3194 H3213 0.913 . S
C3195 H3171 0.950 . S
C3195 C3194 1.524 . S
C3195 C3196 1.415 . S
C3196 H3172 0.950 . S
C3196 C3191 1.363 . S
C3196 C3195 1.415 . S
C3197 H3173 0.951 . S
C3197 C3198 1.366 . S
C3197 C3199 1.388 . S
C3198 C3197 1.366 . S
C3198 C3202 1.385 . S
C3199 H3174 0.951 . S
C3199 C3197 1.388 . S
C3199 C3200 1.366 . S
C3200 C3199 1.366 . S
C3200 C3201 1.414 . S
C3200 C3203 1.499 . S
C3201 H3175 0.950 . S
C3201 C3200 1.414 . S
C3201 C3202 1.374 . S
C3202 H3176 0.950 . S
C3202 C3198 1.385 . S
C3202 C3201 1.374 . S
C3203 C3200 1.499 . S
C3203 C3204 1.373 . S
C3203 C3205 1.389 . S
C3204 H3177 0.950 . S
C3204 C3190 1.377 . S
C3204 C3203 1.373 . S
C3205 C3189 1.377 . S
C3205 C3203 1.389 . S
C3205 C3206 1.524 . S
C3206 C3205 1.524 . S
C3206 C3207 1.397 . S
C3206 C3211 1.363 . S
C3207 H3178 0.950 . S
C3207 C3206 1.397 . S
C3207 C3208 1.334 . S
C3208 H3179 0.950 . S
C3208 C3207 1.334 . S
C3208 C3209 1.287 . S
C3209 C3208 1.287 . S
C3209 C3210 1.524 . S
C3209 H3212 0.999 . S
C3210 H3180 0.950 . S
C3210 C3209 1.524 . S
C3210 C3211 1.415 . S
C3211 H3181 0.950 . S
C3211 C3206 1.363 . S
C3211 C3210 1.415 . S
H3212 C3209 0.999 . S
H3213 C3194 0.913 . S
H3214 C3232 0.951 . S
H3215 C3234 0.951 . S
H3216 C3236 0.950 . S
H3217 C3237 0.950 . S
H3218 C3239 0.950 . S
H3219 C3242 0.950 . S
H3220 C3243 0.950 . S
H3221 C3245 0.950 . S
H3222 C3246 0.950 . S
H3223 C3247 0.951 . S
H3224 C3249 0.951 . S
H3225 C3251 0.950 . S
H3226 C3252 0.950 . S
H3227 C3254 0.950 . S
H3228 C3257 0.950 . S
H3229 C3258 0.950 . S
H3230 C3260 0.950 . S
H3231 C3261 0.950 . S
C3232 H3214 0.951 . S
C3232 C3233 1.366 . S
C3232 C3234 1.388 . S
C3233 C3232 1.366 . S
C3233 C3237 1.385 . S
C3234 H3215 0.951 . S
C3234 C3232 1.388 . S
C3234 C3235 1.366 . S
C3235 C3234 1.366 . S
C3235 C3236 1.414 . S
C3235 C3238 1.499 . S
C3236 H3216 0.950 . S
C3236 C3235 1.414 . S
C3236 C3237 1.374 . S
C3237 H3217 0.950 . S
C3237 C3233 1.385 . S
C3237 C3236 1.374 . S
C3238 C3235 1.499 . S
C3238 C3239 1.373 . S
C3238 C3240 1.389 . S
C3239 H3218 0.950 . S
C3239 C3238 1.373 . S
C3239 C3255 1.377 1_554 S
C3240 C3238 1.389 . S
C3240 C3241 1.524 . S
C3240 C3254 1.377 1_554 S
C3241 C3240 1.524 . S
C3241 C3242 1.397 . S
C3241 C3246 1.363 . S
C3242 H3219 0.950 . S
C3242 C3241 1.397 . S
C3242 C3243 1.334 . S
C3243 H3220 0.950 . S
C3243 C3242 1.334 . S
C3243 C3244 1.287 . S
C3244 C3243 1.287 . S
C3244 C3245 1.524 . S
C3244 H3263 0.913 . S
C3245 H3221 0.950 . S
C3245 C3244 1.524 . S
C3245 C3246 1.415 . S
C3246 H3222 0.950 . S
C3246 C3241 1.363 . S
C3246 C3245 1.415 . S
C3247 H3223 0.951 . S
C3247 C3248 1.366 . S
C3247 C3249 1.388 . S
C3248 C3247 1.366 . S
C3248 C3252 1.385 . S
C3249 H3224 0.951 . S
C3249 C3247 1.388 . S
C3249 C3250 1.366 . S
C3250 C3249 1.366 . S
C3250 C3251 1.414 . S
C3250 C3253 1.499 . S
C3251 H3225 0.950 . S
C3251 C3250 1.414 . S
C3251 C3252 1.374 . S
C3252 H3226 0.950 . S
C3252 C3248 1.385 . S
C3252 C3251 1.374 . S
C3253 C3250 1.499 . S
C3253 C3254 1.373 . S
C3253 C3255 1.389 . S
C3254 H3227 0.950 . S
C3254 C3240 1.377 1_556 S
C3254 C3253 1.373 . S
C3255 C3239 1.377 1_556 S
C3255 C3253 1.389 . S
C3255 C3256 1.524 . S
C3256 C3255 1.524 . S
C3256 C3257 1.397 . S
C3256 C3261 1.363 . S
C3257 H3228 0.950 . S
C3257 C3256 1.397 . S
C3257 C3258 1.334 . S
C3258 H3229 0.950 . S
C3258 C3257 1.334 . S
C3258 C3259 1.287 . S
C3259 C3258 1.287 . S
C3259 C3260 1.524 . S
C3259 H3262 0.999 . S
C3260 H3230 0.950 . S
C3260 C3259 1.524 . S
C3260 C3261 1.415 . S
C3261 H3231 0.950 . S
C3261 C3256 1.363 . S
C3261 C3260 1.415 . S
H3262 C3259 0.999 . S
H3263 C3244 0.913 . S
C483 C184 1.513 . S
C498 C10 1.513 . S
C533 C39 1.513 . S
C548 C213 1.512 . S
C583 C126 1.513 . S
C598 C68 1.513 . S
C633 C155 1.513 . S
C648 C97 1.512 . S
C683 C242 1.514 . S
C698 C416 1.512 . S
C733 C445 1.513 . S
C748 C271 1.512 . S
C783 C358 1.512 . S
C798 C300 1.513 . S
C833 C387 1.512 . S
C848 C329 1.514 . S
C883 C13 0.833 . S
C898 C438 0.842 . S
C933 C42 0.834 . S
C948 C409 0.841 . S
C983 C380 0.842 . S
C998 C71 0.834 . S
C1033 C351 0.843 . S
C1048 C100 0.834 . S
C1083 C322 0.843 . S
C1098 C129 0.833 . S
C1133 C293 0.842 . S
C1148 C158 0.834 . S
C1183 C264 0.842 . S
C1198 C187 0.833 . S
C1233 C235 0.841 . S
C1248 C216 0.834 . S
C1283 C206 0.842 . S
C1298 C245 0.835 . S
C1333 C274 0.833 . S
C1348 C177 0.843 . S
C1383 C303 0.834 . S
C1398 C148 0.841 . S
C1433 C119 0.842 . S
C1448 C332 0.833 . S
C1483 C361 0.835 . S
C1498 C90 0.841 . S
C1533 C61 0.842 . S
C1548 C390 0.835 . S
C1583 C419 0.833 . S
C1598 C32 0.842 . S
C1633 C448 0.834 . S
C1648 C3 0.841 . S
C1683 C66 1.320 1_554 S
C1698 C8 1.320 1_556 S
C1733 C37 1.320 . S
C1748 C95 1.320 . S
C1783 C124 1.319 1_554 S
C1798 C182 1.320 1_556 S
C1833 C211 1.319 . S
C1848 C153 1.320 . S
C1883 C298 1.320 1_554 S
C1898 C240 1.320 1_556 S
C1933 C269 1.320 . S
C1948 C327 1.320 . S
C1983 C414 1.320 1_556 S
C1998 C356 1.320 1_554 S
C2033 C443 1.319 . S
C2048 C385 1.320 . S
C2083 C5 1.263 . S
C2098 C92 1.263 . S
C2133 C34 1.263 . S
C2148 C63 1.262 . S
C2183 C208 1.263 . S
C2198 C121 1.262 . S
C2233 C150 1.262 . S
C2248 C179 1.263 . S
C2283 C324 1.262 . S
C2298 C237 1.263 . S
C2333 C266 1.263 . S
C2348 C295 1.263 . S
C2383 C440 1.263 . S
C2398 C353 1.263 . S
C2433 C411 1.263 . S
C2448 C382 1.263 . S
C2483 C15 2.264 . S
C2498 C21 2.171 . S
C2533 C44 2.264 . S
C2548 C50 2.171 . S
C2583 C79 2.172 . S
C2598 C73 2.264 . S
C2633 C102 2.264 . S
C2648 C108 2.171 . S
C2683 C131 2.264 . S
C2698 C137 2.170 . S
C2733 C160 2.264 . S
C2748 C166 2.171 . S
C2783 C189 2.263 . S
C2798 C195 2.171 . S
C2833 C224 2.172 . S
C2848 C218 2.264 . S
C2883 C247 2.264 . S
C2898 C253 2.172 . S
C2933 C282 2.172 . S
C2948 C276 2.264 . S
C2983 C311 2.171 . S
C2998 C305 2.263 . S
C3033 C340 2.172 . S
C3048 C334 2.264 . S
C3083 C363 2.263 . S
C3098 C369 2.171 . S
C3133 C398 2.171 . S
C3148 C392 2.264 . S
C3183 C421 2.264 . S
C3198 C427 2.171 . S
C3233 C450 2.263 . S
C3248 C456 2.171 . S
