# Generated by pormake.
# Topology fcu, (12)-cn, num edge types: 1
# Building blocks:
#     Node 0, Type 0, BuildingBlock: UKIBUN_clean_sbu_0, # of connection points: 12
#     Node 1, Type 0, BuildingBlock: UKIBUN_clean_sbu_0, # of connection points: 12
#     Node 2, Type 0, BuildingBlock: UKIBUN_clean_sbu_0, # of connection points: 12
#     Node 3, Type 0, BuildingBlock: UKIBUN_clean_sbu_0, # of connection points: 12
#     Edge 4, Type (0, 0), BuildingBlock: AJUNOK_clean_linker_0, # of connection points: 2
#     Edge 5, Type (0, 0), BuildingBlock: AJUNOK_clean_linker_0, # of connection points: 2
#     Edge 6, Type (0, 0), BuildingBlock: AJUNOK_clean_linker_0, # of connection points: 2
#     Edge 7, Type (0, 0), BuildingBlock: AJUNOK_clean_linker_0, # of connection points: 2
#     Edge 8, Type (0, 0), BuildingBlock: AJUNOK_clean_linker_0, # of connection points: 2
#     Edge 9, Type (0, 0), BuildingBlock: AJUNOK_clean_linker_0, # of connection points: 2
#     Edge 10, Type (0, 0), BuildingBlock: AJUNOK_clean_linker_0, # of connection points: 2
#     Edge 11, Type (0, 0), BuildingBlock: AJUNOK_clean_linker_0, # of connection points: 2
#     Edge 12, Type (0, 0), BuildingBlock: AJUNOK_clean_linker_0, # of connection points: 2
#     Edge 13, Type (0, 0), BuildingBlock: AJUNOK_clean_linker_0, # of connection points: 2
#     Edge 14, Type (0, 0), BuildingBlock: AJUNOK_clean_linker_0, # of connection points: 2
#     Edge 15, Type (0, 0), BuildingBlock: AJUNOK_clean_linker_0, # of connection points: 2
#     Edge 16, Type (0, 0), BuildingBlock: AJUNOK_clean_linker_0, # of connection points: 2
#     Edge 17, Type (0, 0), BuildingBlock: AJUNOK_clean_linker_0, # of connection points: 2
#     Edge 18, Type (0, 0), BuildingBlock: AJUNOK_clean_linker_0, # of connection points: 2
#     Edge 19, Type (0, 0), BuildingBlock: AJUNOK_clean_linker_0, # of connection points: 2
#     Edge 20, Type (0, 0), BuildingBlock: AJUNOK_clean_linker_0, # of connection points: 2
#     Edge 21, Type (0, 0), BuildingBlock: AJUNOK_clean_linker_0, # of connection points: 2
#     Edge 22, Type (0, 0), BuildingBlock: AJUNOK_clean_linker_0, # of connection points: 2
#     Edge 23, Type (0, 0), BuildingBlock: AJUNOK_clean_linker_0, # of connection points: 2
#     Edge 24, Type (0, 0), BuildingBlock: AJUNOK_clean_linker_0, # of connection points: 2
#     Edge 25, Type (0, 0), BuildingBlock: AJUNOK_clean_linker_0, # of connection points: 2
#     Edge 26, Type (0, 0), BuildingBlock: AJUNOK_clean_linker_0, # of connection points: 2
#     Edge 27, Type (0, 0), BuildingBlock: AJUNOK_clean_linker_0, # of connection points: 2
# Relax obj value: 0.006
# Max RMSD: 0.049
# Mean RMSD: 0.049
data_MOF--net-fcu--node1-UKIBUN_clean_sbu_0--edge1-AJUNOK_clean_linker_0
_symmetry_space_group_name_H-M    P1
_symmetry_Int_Tables_number       1
_symmetry_cell_setting            triclinic
loop_
_symmetry_equiv_pos_as_xyz
'x, y, z'
_cell_length_a     20.794717
_cell_length_b     20.82633
_cell_length_c     20.798585
_cell_angle_alpha  90.042785
_cell_angle_beta   89.998666
_cell_angle_gamma 89.988101
loop_
_atom_site_label
_atom_site_type_symbol
_atom_site_fract_x
_atom_site_fract_y
_atom_site_fract_z
_atom_type_partial_charge
C0 C 0.99728 0.14998 0.15012 0.0
C1 C 0.84807 0.14957 -0.00074 0.0
O2 O 0.05394 0.05427 0.05362 0.0
O3 O 0.94535 0.94477 0.05328 0.0
O4 O 0.05411 0.9451 0.05325 0.0
O5 O 0.94544 0.05369 0.05316 0.0
Hf6 Hf -0.00032 -0.00065 0.11458 0.0
O7 O 0.05395 0.05419 0.94465 0.0
Hf8 Hf -0.00054 0.11561 0.99907 0.0
O9 O 0.05416 0.94525 0.94474 0.0
Hf10 Hf 0.1152 -0.0001 0.99912 0.0
O11 O 0.94555 0.05374 0.94468 0.0
Hf12 Hf -3e-05 0.8834 0.9989 0.0
Hf13 Hf 0.8842 -0.00072 0.99883 0.0
O14 O 0.94562 0.94488 0.94443 0.0
Hf15 Hf -3e-05 -0.00054 0.88319 0.0
C16 C 0.84895 0.84873 0.99657 0.0
C17 C 0.15021 0.15072 7e-05 0.0
C18 C 0.15117 0.84949 0.99665 0.0
C19 C 0.15072 0.99694 0.14977 0.0
O20 O 0.09147 0.99775 0.16831 0.0
O21 O 0.90827 0.99799 0.16888 0.0
C22 C 0.84922 0.00058 0.15005 0.0
O23 O 0.90838 0.99847 0.829 0.0
O24 O 0.00134 0.82968 0.90703 0.0
O25 O -0.00031 0.82963 0.09087 0.0
O26 O 0.09199 0.00085 0.82936 0.0
O27 O 0.99886 0.16917 0.90715 0.0
O28 O 0.99857 0.16906 0.09107 0.0
O29 O 0.83031 0.09031 0.99895 0.0
O30 O 0.8305 0.90787 0.99735 0.0
C31 C 0.15112 0.0026 0.84837 0.0
O32 O 0.16916 0.90874 0.99687 0.0
O33 O 0.1682 0.09149 0.0002 0.0
C34 C 0.84925 0.00098 0.84775 0.0
O35 O 0.99782 0.09096 0.82961 0.0
O36 O -0.0003 0.90796 0.16803 0.0
O37 O 0.9979 0.09081 0.16848 0.0
O38 O 0.00168 0.90786 0.82974 0.0
O39 O 0.83055 0.00189 0.90695 0.0
O40 O 0.1694 0.00241 0.90767 0.0
C41 C 0.00244 0.84865 0.84793 0.0
O42 O 0.16954 0.99833 0.09063 0.0
O43 O 0.0911 0.16975 -0.00065 0.0
O44 O 0.83042 0.00184 0.09085 0.0
O45 O 0.09216 0.83022 0.99829 0.0
O46 O 0.90807 0.82974 0.99766 0.0
O47 O 0.90715 0.1688 -0.00072 0.0
C48 C 0.99743 0.15012 0.84805 0.0
C49 C 0.99933 0.84872 0.15 0.0
C50 C 0.00367 0.64948 0.65011 0.0
C51 C 0.85039 0.6496 0.49966 0.0
O52 O 0.05532 0.55255 0.55333 0.0
O53 O 0.9468 0.44446 0.55373 0.0
O54 O 0.05527 0.44394 0.5536 0.0
O55 O 0.94701 0.5534 0.55405 0.0
Hf56 Hf 0.00113 0.49865 0.61528 0.0
O57 O 0.055 0.55273 0.44454 0.0
Hf58 Hf 0.0013 0.61435 0.49925 0.0
O59 O 0.05472 0.44416 0.44415 0.0
Hf60 Hf 0.11633 0.49814 0.49867 0.0
O61 O 0.94666 0.55344 0.44477 0.0
Hf62 Hf 0.00058 0.38294 0.49896 0.0
Hf63 Hf 0.886 0.49914 0.49948 0.0
O64 O 0.94647 0.44459 0.44474 0.0
Hf65 Hf 0.00022 0.49888 0.38294 0.0
C66 C 0.84944 0.34898 0.49816 0.0
C67 C 0.15232 0.64866 0.49844 0.0
C68 C 0.15139 0.3476 0.49639 0.0
C69 C 0.15211 0.50052 0.64933 0.0
O70 O 0.09304 0.50007 0.6682 0.0
O71 O 0.9092 0.49938 0.6692 0.0
C72 C 0.85012 0.49936 0.64996 0.0
O73 O 0.90793 0.4994 0.32976 0.0
O74 O 0.99833 0.32953 0.40725 0.0
O75 O 0.99882 0.32938 0.59057 0.0
O76 O 0.09165 0.50026 0.32945 0.0
O77 O 0.00081 0.66782 0.4078 0.0
O78 O 0.00292 0.6676 0.59086 0.0
O79 O 0.83248 0.59039 0.49944 0.0
O80 O 0.83181 0.40828 0.49904 0.0
C81 C 0.15087 0.50148 0.34773 0.0
O82 O 0.16985 0.4067 0.49683 0.0
O83 O 0.17009 0.58936 0.4991 0.0
C84 C 0.84895 0.49974 0.34928 0.0
O85 O -0.00059 0.59085 0.32926 0.0
O86 O 0.00056 0.40681 0.66891 0.0
O87 O 0.00242 0.59046 0.66918 0.0
O88 O -0.00061 0.40707 0.3291 0.0
O89 O 0.83147 0.49939 0.40871 0.0
O90 O 0.16998 0.50028 0.4068 0.0
C91 C 0.99777 0.34803 0.34806 0.0
O92 O 0.17079 0.49871 0.59014 0.0
O93 O 0.09328 0.6679 0.49836 0.0
O94 O 0.83238 0.49909 0.59064 0.0
O95 O 0.09223 0.32878 0.49787 0.0
O96 O 0.90845 0.3296 0.49831 0.0
O97 O 0.90955 0.66858 0.49977 0.0
C98 C -0.00046 0.64989 0.34847 0.0
C99 C 0.99871 0.34779 0.64983 0.0
C100 C 0.50163 0.15039 0.64894 0.0
C101 C 0.34929 0.14934 0.49618 0.0
O102 O 0.55504 0.05357 0.55251 0.0
O103 O 0.44641 0.94507 0.55314 0.0
O104 O 0.55547 0.94543 0.55291 0.0
O105 O 0.44595 0.05339 0.55294 0.0
Hf106 Hf 0.50085 -0.00038 0.61443 0.0
O107 O 0.55504 0.05338 0.44392 0.0
Hf108 Hf 0.50014 0.11433 0.49807 0.0
O109 O 0.55553 0.94516 0.44369 0.0
Hf110 Hf 0.61698 -0.0006 0.49829 0.0
O111 O 0.44562 0.05303 0.44404 0.0
Hf112 Hf 0.50108 0.88439 0.4983 0.0
Hf113 Hf 0.38437 -0.00122 0.49885 0.0
O114 O 0.4463 0.94519 0.4443 0.0
Hf115 Hf 0.50051 -0.00079 0.38264 0.0
C116 C 0.35061 0.84778 0.49881 0.0
C117 C 0.65068 0.15054 0.49717 0.0
C118 C 0.6518 0.84869 0.49854 0.0
C119 C 0.65218 0.00074 0.64889 0.0
O120 O 0.59296 0.00069 0.66757 0.0
O121 O 0.40909 0.00169 0.66825 0.0
C122 C 0.34975 0.00167 0.64994 0.0
O123 O 0.40866 0.99813 0.32869 0.0
O124 O 0.49987 0.82997 0.40682 0.0
O125 O 0.50149 0.83103 0.58969 0.0
O126 O 0.59259 0.00173 0.329 0.0
O127 O 0.50002 0.16884 0.40666 0.0
O128 O 0.50031 0.168 0.58953 0.0
O129 O 0.3303 0.09032 0.49706 0.0
O130 O 0.33109 0.90667 0.4994 0.0
C131 C 0.65183 0.0002 0.34772 0.0
O132 O 0.67099 0.90767 0.49895 0.0
O133 O 0.67011 0.09161 0.49729 0.0
C134 C 0.34952 0.99589 0.34763 0.0
O135 O 0.49908 0.09069 0.32954 0.0
O136 O 0.50042 0.90784 0.66827 0.0
O137 O 0.50194 0.09146 0.66823 0.0
O138 O 0.49984 0.90773 0.32904 0.0
O139 O 0.33101 0.99594 0.40689 0.0
O140 O 0.67085 0.99774 0.4067 0.0
C141 C 0.49884 0.84869 0.34765 0.0
O142 O 0.67113 -0.00045 0.58982 0.0
O143 O 0.59129 0.16819 0.49784 0.0
O144 O 0.33067 -0.00023 0.59085 0.0
O145 O 0.59245 0.83096 0.49784 0.0
O146 O 0.41006 0.8303 0.49867 0.0
O147 O 0.40851 0.1677 0.49716 0.0
C148 C 0.49933 0.14992 0.34753 0.0
C149 C 0.50075 0.84884 0.64903 0.0
C150 C 0.49792 0.65069 0.14966 0.0
C151 C 0.34949 0.65128 0.99634 0.0
O152 O 0.55436 0.55438 0.05359 0.0
O153 O 0.44496 0.44602 0.05291 0.0
O154 O 0.55399 0.44594 0.05322 0.0
O155 O 0.44535 0.55446 0.05291 0.0
Hf156 Hf 0.4993 0.50006 0.11458 0.0
O157 O 0.55469 0.55416 0.94487 0.0
Hf158 Hf 0.50017 0.6156 0.9988 0.0
O159 O 0.55461 0.44603 0.94468 0.0
Hf160 Hf 0.6162 0.50001 -0.00059 0.0
O161 O 0.44563 0.55448 0.94456 0.0
Hf162 Hf 0.49957 0.38509 0.99836 0.0
Hf163 Hf 0.38373 0.5004 0.99845 0.0
O164 O 0.44496 0.44591 0.94403 0.0
Hf165 Hf 0.50003 0.50011 0.88356 0.0
C166 C 0.34886 0.34954 0.99871 0.0
C167 C 0.65094 0.6508 0.9971 0.0
C168 C 0.65008 0.34897 -0.00028 0.0
C169 C 0.64998 0.50052 0.15068 0.0
O170 O 0.59058 0.49988 0.16836 0.0
O171 O 0.40752 0.50111 0.16823 0.0
C172 C 0.34846 0.50248 0.14917 0.0
O173 O 0.40883 0.50093 0.82886 0.0
O174 O 0.50072 0.33072 0.90671 0.0
O175 O 0.49936 0.33143 0.08962 0.0
O176 O 0.59158 0.50006 0.83043 0.0
O177 O 0.50008 0.66955 0.90698 0.0
O178 O 0.49861 0.66912 0.09046 0.0
O179 O 0.33024 0.59232 0.99726 0.0
O180 O 0.32971 0.40859 0.99881 0.0
C181 C 0.65089 0.49985 0.84836 0.0
O182 O 0.66957 0.40788 4e-05 0.0
O183 O 0.66998 0.59178 0.99841 0.0
C184 C 0.34962 0.50229 0.84745 0.0
O185 O 0.50051 0.5912 0.83003 0.0
O186 O 0.49899 0.4081 0.16831 0.0
O187 O 0.49897 0.59167 0.1686 0.0
O188 O 0.50045 0.40891 0.82973 0.0
O189 O 0.33071 0.50174 0.90652 0.0
O190 O 0.67004 0.49957 0.90746 0.0
C191 C 0.50111 0.34967 0.84758 0.0
O192 O 0.66941 0.50064 0.09167 0.0
O193 O 0.59171 0.66919 0.99769 0.0
O194 O 0.33016 0.50201 0.08993 0.0
O195 O 0.5907 0.33143 0.99893 0.0
O196 O 0.40819 0.33168 0.99801 0.0
O197 O 0.40879 0.66931 0.99732 0.0
C198 C 0.50016 0.65042 0.84788 0.0
C199 C 0.49917 0.3491 0.14902 0.0
C200 C 0.02093 0.26145 0.18881 0.0
C201 C 0.9954 0.20002 0.20086 0.0
C202 C 0.021 0.30915 0.23641 0.0
C203 C 0.99555 0.29733 0.29799 0.0
H204 H 0.04207 0.27258 0.14252 0.0
H205 H 0.0422 0.3553 0.22511 0.0
S206 S 0.91639 0.14674 0.35189 0.0
N207 N 0.93964 0.13152 0.27754 0.0
N208 N 0.93976 0.22099 0.36688 0.0
C209 C 0.96837 0.23659 0.3102 0.0
C210 C 0.96831 0.18803 0.26173 0.0
C211 C 0.80483 0.9629 0.25529 0.0
C212 C 0.79911 0.00206 0.20047 0.0
C213 C 0.75715 0.96274 0.30308 0.0
C214 C 0.70212 0.0017 0.29756 0.0
H215 H 0.8459 0.93138 0.26076 0.0
H216 H 0.76288 0.93117 0.34407 0.0
S217 S 0.67041 0.12125 0.16977 0.0
N218 N 0.73807 0.08617 0.14745 0.0
N219 N 0.64841 0.08566 0.23712 0.0
C220 C 0.69705 0.04269 0.24425 0.0
C221 C 0.74556 0.04292 0.19572 0.0
C222 C 0.01067 0.73409 0.1862 0.0
C223 C 0.99847 0.7989 0.20138 0.0
C224 C 0.01054 0.68638 0.23377 0.0
C225 C 0.99836 0.7013 0.29872 0.0
H226 H 0.02096 0.71985 0.13716 0.0
H227 H 0.0206 0.63744 0.21934 0.0
S228 S 0.95984 0.8633 0.36383 0.0
N229 N 0.97143 0.87502 0.28631 0.0
N230 N 0.97108 0.78577 0.37523 0.0
C231 C 0.98527 0.76589 0.31454 0.0
C232 C 0.98539 0.81446 0.26612 0.0
C233 C 0.3106 0.01941 0.23589 0.0
C234 C 0.29877 0.99375 0.2974 0.0
C235 C 0.26273 0.01977 0.18834 0.0
C236 C 0.20107 0.9945 0.20036 0.0
H237 H 0.35687 0.04051 0.22461 0.0
H238 H 0.27389 0.0411 0.14217 0.0
S239 S 0.1479 0.91441 0.35082 0.0
N240 N 0.22231 0.93754 0.36587 0.0
N241 N 0.13257 0.93829 0.27673 0.0
C242 C 0.18918 0.96698 0.26104 0.0
C243 C 0.2379 0.96658 0.30943 0.0
C244 C 0.98934 0.73433 0.81168 0.0
C245 C 0.00454 0.79858 0.79691 0.0
C246 C 0.9898 0.68644 0.76425 0.0
C247 C 0.00553 0.70069 0.69996 0.0
H248 H 0.97605 0.7208 0.86017 0.0
H249 H 0.97681 0.63803 0.77813 0.0
S250 S 0.05462 0.8604 0.63682 0.0
N251 N 0.03931 0.87307 0.71359 0.0
N252 N 0.04068 0.78337 0.62491 0.0
C253 C 0.02235 0.7645 0.68477 0.0
C254 C 0.0217 0.81326 0.73302 0.0
C255 C 0.19018 0.97872 0.73667 0.0
C256 C 0.20205 0.00436 0.79821 0.0
C257 C 0.23793 0.97833 0.68899 0.0
C258 C 0.29957 0.00372 0.70081 0.0
H259 H 0.14388 0.95783 0.72542 0.0
H260 H 0.22663 0.95703 0.64281 0.0
S261 S 0.35318 0.08329 0.85141 0.0
N262 N 0.27882 0.06015 0.86668 0.0
N263 N 0.36826 0.05965 0.7772 0.0
C264 C 0.31162 0.03101 0.76161 0.0
C265 C 0.26303 0.0313 0.81019 0.0
C266 C 0.02125 0.30921 0.76174 0.0
C267 C 0.99652 0.29708 0.69989 0.0
C268 C 0.02087 0.26167 0.80945 0.0
C269 C 0.99573 0.20009 0.79727 0.0
H270 H 0.04207 0.3555 0.77321 0.0
H271 H 0.04147 0.27306 0.85594 0.0
S272 S 0.91887 0.14584 0.64538 0.0
N273 N 0.94203 0.22015 0.63053 0.0
N274 N 0.94125 0.13105 0.72005 0.0
C275 C 0.96942 0.18777 0.73609 0.0
C276 C 0.96984 0.23615 0.68751 0.0
C277 C 0.76196 0.97207 0.68968 0.0
C278 C 0.70231 0.0025 0.69943 0.0
C279 C 0.80938 0.97214 0.73771 0.0
C280 C 0.7989 0.00264 0.79726 0.0
H281 H 0.77173 0.94707 0.64503 0.0
H282 H 0.85417 0.9472 0.72845 0.0
S283 S 0.6543 0.09679 0.84277 0.0
N284 N 0.63766 0.06883 0.77049 0.0
N285 N 0.72648 0.06903 0.86073 0.0
C286 C 0.74014 0.03483 0.80677 0.0
C287 C 0.69197 0.03475 0.75789 0.0
C288 C 0.23352 0.3136 0.99309 0.0
C289 C 0.29914 0.29802 -0.00046 0.0
C290 C 0.18586 0.26595 0.9935 0.0
C291 C 0.20162 0.20052 0.00051 0.0
H292 H 0.21853 0.36307 0.98727 0.0
H293 H 0.13625 0.28079 0.9879 0.0
S294 S 0.36623 0.13371 0.02109 0.0
N295 N 0.37715 0.21178 0.01427 0.0
N296 N 0.28799 0.12286 0.0156 0.0
C297 C 0.26708 0.18423 0.00756 0.0
C298 C 0.3156 0.23267 0.00693 0.0
C299 C 0.23567 0.68818 0.01136 0.0
C300 C 0.29967 0.70239 0.99448 0.0
C301 C 0.18809 0.7358 0.01163 0.0
C302 C 0.20236 0.79971 0.99474 0.0
H303 H 0.22213 0.63997 0.02531 0.0
H304 H 0.13987 0.72235 0.02601 0.0
S305 S 0.36136 0.8611 0.94061 0.0
N306 N 0.37394 0.78453 0.95646 0.0
N307 N 0.2847 0.87376 0.9566 0.0
C308 C 0.26592 0.81435 0.9762 0.0
C309 C 0.31442 0.76585 0.97612 0.0
C310 C 0.76535 0.31277 0.99832 0.0
C311 C 0.69947 0.29719 6e-05 0.0
C312 C 0.81276 0.26494 0.99813 0.0
C313 C 0.79653 0.19927 -0.00037 0.0
H314 H 0.7808 0.36241 0.99692 0.0
H315 H 0.86261 0.27991 0.99665 0.0
S316 S 0.63056 0.13231 0.00534 0.0
N317 N 0.62045 0.21074 0.00401 0.0
N318 N 0.70905 0.12129 0.0034 0.0
C319 C 0.73068 0.1829 0.00156 0.0
C320 C 0.68241 0.23162 0.00185 0.0
C321 C 0.81072 0.73681 0.01877 0.0
C322 C 0.79818 0.79873 0.99471 0.0
C323 C 0.76307 0.68919 0.01893 0.0
C324 C 0.70095 0.70157 0.99503 0.0
H325 H 0.85743 0.7252 0.03869 0.0
H326 H 0.77482 0.64263 0.03894 0.0
S327 S 0.64534 0.85389 0.9204 0.0
N328 N 0.72024 0.86847 0.94219 0.0
N329 N 0.63087 0.77918 0.94249 0.0
C330 C 0.68819 0.76287 0.96941 0.0
C331 C 0.7367 0.81134 0.96924 0.0
C332 C 0.76645 0.49804 0.81292 0.0
C333 C 0.70066 0.49991 0.79685 0.0
C334 C 0.81422 0.49795 0.76536 0.0
C335 C 0.79842 0.49965 0.69952 0.0
H336 H 0.78155 0.49654 0.86273 0.0
H337 H 0.86399 0.49641 0.78065 0.0
S338 S 0.63302 0.50523 0.63122 0.0
N339 N 0.62227 0.50392 0.70968 0.0
N340 N 0.71153 0.50341 0.62078 0.0
C341 C 0.73269 0.50157 0.68266 0.0
C342 C 0.68407 0.50179 0.73108 0.0
C343 C 0.26386 0.47764 0.68809 0.0
C344 C 0.20231 0.50325 0.69981 0.0
C345 C 0.31146 0.47811 0.73582 0.0
C346 C 0.2993 0.5042 0.7971 0.0
H347 H 0.27509 0.45597 0.64206 0.0
H348 H 0.35772 0.45676 0.72493 0.0
S349 S 0.14865 0.58452 0.84961 0.0
N350 N 0.13361 0.56031 0.77555 0.0
N351 N 0.22289 0.56113 0.86509 0.0
C352 C 0.23858 0.53171 0.80882 0.0
C353 C 0.19017 0.53126 0.76026 0.0
C354 C 0.26447 0.48609 0.31058 0.0
C355 C 0.2007 0.50402 0.29675 0.0
C356 C 0.31191 0.48605 0.26279 0.0
C357 C 0.29764 0.50433 0.1992 0.0
H358 H 0.27788 0.4711 0.35855 0.0
H359 H 0.35996 0.47071 0.27581 0.0
S360 S 0.13958 0.56253 0.13933 0.0
N361 N 0.1269 0.54516 0.21563 0.0
N362 N 0.2159 0.54544 0.12609 0.0
C363 C 0.23443 0.52422 0.18508 0.0
C364 C 0.18609 0.52405 0.23371 0.0
C365 C 0.76516 0.49411 0.18657 0.0
C366 C 0.69962 0.50097 0.20229 0.0
C367 C 0.81283 0.49388 0.23418 0.0
C368 C 0.79723 0.50051 0.29977 0.0
H369 H 0.78009 0.48846 0.13699 0.0
H370 H 0.86237 0.48809 0.21916 0.0
S371 S 0.63266 0.52177 0.36694 0.0
N372 N 0.62174 0.51584 0.28869 0.0
N373 N 0.71092 0.51538 0.37781 0.0
C374 C 0.73179 0.50782 0.31628 0.0
C375 C 0.68323 0.50806 0.26775 0.0
C376 C 0.23547 0.81154 0.50493 0.0
C377 C 0.3011 0.79609 0.49821 0.0
C378 C 0.18795 0.76382 0.50478 0.0
C379 C 0.20382 0.69838 0.4979 0.0
H380 H 0.22034 0.86099 0.51068 0.0
H381 H 0.13834 0.77863 0.51044 0.0
S382 S 0.36863 0.63192 0.47636 0.0
N383 N 0.37929 0.71007 0.48294 0.0
N384 N 0.29039 0.62084 0.48258 0.0
C385 C 0.26931 0.68218 0.4906 0.0
C386 C 0.31772 0.73078 0.49078 0.0
C387 C 0.18892 0.23484 0.51596 0.0
C388 C 0.2022 0.29754 0.49443 0.0
C389 C 0.2365 0.18714 0.5159 0.0
C390 C 0.29931 0.20016 0.49425 0.0
H391 H 0.14162 0.2226 0.53404 0.0
H392 H 0.22409 0.13995 0.53395 0.0
S393 S 0.35754 0.35494 0.42715 0.0
N394 N 0.28203 0.36889 0.44714 0.0
N395 N 0.37109 0.2794 0.44675 0.0
C396 C 0.3129 0.26227 0.47121 0.0
C397 C 0.26451 0.31084 0.47136 0.0
C398 C 0.81491 0.76505 0.49618 0.0
C399 C 0.79887 0.69939 0.4996 0.0
C400 C 0.76732 0.81278 0.49588 0.0
C401 C 0.70148 0.7971 0.49896 0.0
H402 H 0.86471 0.78004 0.49352 0.0
H403 H 0.78258 0.86243 0.49303 0.0
S404 S 0.63319 0.63224 0.50887 0.0
N405 N 0.71165 0.62134 0.50638 0.0
N406 N 0.6228 0.71057 0.50581 0.0
C407 C 0.68467 0.73155 0.50244 0.0
C408 C 0.73308 0.68295 0.50276 0.0
C409 C 0.76586 0.18642 0.50328 0.0
C410 C 0.70031 0.20209 0.49645 0.0
C411 C 0.8135 0.23398 0.50346 0.0
C412 C 0.79783 0.29946 0.497 0.0
H413 H 0.78085 0.13693 0.50895 0.0
H414 H 0.86306 0.21899 0.50907 0.0
S415 S 0.63332 0.36647 0.47489 0.0
N416 N 0.62241 0.28832 0.48102 0.0
N417 N 0.71154 0.37734 0.48162 0.0
C418 C 0.73241 0.31591 0.48945 0.0
C419 C 0.68388 0.26744 0.48914 0.0
C420 C 0.49678 0.23422 0.81196 0.0
C421 C 0.50227 0.29979 0.7961 0.0
C422 C 0.49701 0.18646 0.76436 0.0
C423 C 0.50262 0.202 0.69866 0.0
H424 H 0.49186 0.21934 0.86161 0.0
H425 H 0.49234 0.13693 0.77949 0.0
S426 S 0.52097 0.3664 0.63108 0.0
N427 N 0.51537 0.37746 0.70936 0.0
N428 N 0.51581 0.28816 0.62046 0.0
C429 C 0.50896 0.26739 0.68209 0.0
C430 C 0.50875 0.31602 0.73052 0.0
C431 C 0.50399 0.81323 0.7645 0.0
C432 C 0.50022 0.79735 0.69872 0.0
C433 C 0.50376 0.76568 0.81217 0.0
C434 C 0.49988 0.70002 0.7963 0.0
H435 H 0.50735 0.86289 0.77964 0.0
H436 H 0.50683 0.78082 0.86191 0.0
S437 S 0.48731 0.63228 0.631 0.0
N438 N 0.4912 0.71058 0.62035 0.0
N439 N 0.49098 0.6217 0.70943 0.0
C440 C 0.4957 0.68335 0.73061 0.0
C441 C 0.49584 0.73177 0.68209 0.0
C442 C 0.52036 0.68893 0.26176 0.0
C443 C 0.49611 0.70136 0.19978 0.0
C444 C 0.52057 0.73658 0.30943 0.0
C445 C 0.49656 0.79856 0.297 0.0
H446 H 0.54039 0.64233 0.27335 0.0
H447 H 0.54073 0.72496 0.35604 0.0
S448 S 0.42099 0.85365 0.14477 0.0
N449 N 0.44299 0.77892 0.13012 0.0
N450 N 0.44339 0.86827 0.21949 0.0
C451 C 0.4706 0.81114 0.23573 0.0
C452 C 0.47038 0.76265 0.18723 0.0
C453 C 0.49973 0.26552 0.3122 0.0
C454 C 0.49898 0.19977 0.29612 0.0
C455 C 0.49971 0.31323 0.26461 0.0
C456 C 0.49916 0.29744 0.19869 0.0
H457 H 0.50038 0.28061 0.36205 0.0
H458 H 0.50025 0.36294 0.27994 0.0
S459 S 0.49729 0.13208 0.13052 0.0
N460 N 0.49725 0.12148 0.20896 0.0
N461 N 0.49822 0.2105 0.12002 0.0
C462 C 0.49856 0.23174 0.18188 0.0
C463 C 0.4982 0.18322 0.23033 0.0
loop_
_geom_bond_atom_site_label_1
_geom_bond_atom_site_label_2
_geom_bond_distance
_geom_bond_site_symmetry_2
_ccdc_geom_bond_type
C0 O28 1.281 . S
C0 O37 1.281 . S
C1 O29 1.281 . S
C1 O47 1.281 . S
O2 Hf6 2.202 . S
O2 Hf8 2.202 . S
O2 Hf10 2.202 . S
O3 Hf6 2.202 1_665 S
O3 Hf12 2.202 1_655 S
O3 Hf13 2.202 1_565 S
O4 Hf6 2.072 1_565 S
O4 Hf10 2.072 1_565 S
O4 Hf12 2.072 . S
O5 Hf6 2.072 1_655 S
O5 Hf8 2.072 1_655 S
O5 Hf13 2.072 . S
Hf6 O2 2.202 . S
Hf6 O3 2.202 1_445 S
Hf6 O4 2.072 1_545 S
Hf6 O5 2.072 1_455 S
Hf6 O20 2.209 1_545 S
Hf6 O21 2.209 1_455 S
Hf6 O36 2.209 1_545 S
Hf6 O37 2.209 1_455 S
O7 Hf8 2.072 1_556 S
O7 Hf10 2.072 1_556 S
O7 Hf15 2.072 . S
Hf8 O2 2.202 . S
Hf8 O5 2.072 1_455 S
Hf8 O7 2.072 1_554 S
Hf8 O11 2.202 1_454 S
Hf8 O27 2.209 1_554 S
Hf8 O28 2.209 1_455 S
Hf8 O43 2.209 1_554 S
Hf8 O47 2.209 1_455 S
O9 Hf10 2.202 1_566 S
O9 Hf12 2.202 1_556 S
O9 Hf15 2.202 1_565 S
Hf10 O2 2.202 . S
Hf10 O4 2.072 1_545 S
Hf10 O7 2.072 1_554 S
Hf10 O9 2.202 1_544 S
Hf10 O32 2.209 1_545 S
Hf10 O33 2.209 1_554 S
Hf10 O40 2.209 1_554 S
Hf10 O42 2.209 1_545 S
O11 Hf8 2.202 1_656 S
O11 Hf13 2.202 1_556 S
O11 Hf15 2.202 1_655 S
Hf12 O3 2.202 1_455 S
Hf12 O4 2.072 . S
Hf12 O9 2.202 1_554 S
Hf12 O14 2.072 1_454 S
Hf12 O24 2.209 1_454 S
Hf12 O25 2.209 . S
Hf12 O45 2.209 . S
Hf12 O46 2.209 1_454 S
Hf13 O3 2.202 1_545 S
Hf13 O5 2.072 . S
Hf13 O11 2.202 1_554 S
Hf13 O14 2.072 1_544 S
Hf13 O29 2.209 . S
Hf13 O30 2.209 1_544 S
Hf13 O39 2.209 1_544 S
Hf13 O44 2.209 . S
O14 Hf12 2.072 1_656 S
O14 Hf13 2.072 1_566 S
O14 Hf15 2.072 1_665 S
Hf15 O7 2.072 . S
Hf15 O9 2.202 1_545 S
Hf15 O11 2.202 1_455 S
Hf15 O14 2.072 1_445 S
Hf15 O23 2.209 1_445 S
Hf15 O26 2.209 . S
Hf15 O35 2.209 . S
Hf15 O38 2.209 1_445 S
C16 O30 1.281 . S
C16 O46 1.281 . S
C17 O33 1.281 . S
C17 O43 1.281 . S
C18 O32 1.281 . S
C18 O45 1.281 . S
C19 O20 1.281 . S
C19 O42 1.281 . S
O20 Hf6 2.209 1_565 S
O20 C19 1.281 . S
O21 Hf6 2.209 1_655 S
O21 C22 1.281 . S
C22 O21 1.281 . S
C22 O44 1.281 . S
O23 Hf15 2.209 1_665 S
O23 C34 1.281 . S
O24 Hf12 2.209 1_656 S
O24 C41 1.281 . S
O25 Hf12 2.209 . S
O25 C49 1.281 . S
O26 Hf15 2.209 . S
O26 C31 1.281 . S
O27 Hf8 2.209 1_556 S
O27 C48 1.281 . S
O28 C0 1.281 . S
O28 Hf8 2.209 1_655 S
O29 C1 1.281 . S
O29 Hf13 2.209 . S
O30 Hf13 2.209 1_566 S
O30 C16 1.281 . S
C31 O26 1.281 . S
C31 O40 1.281 . S
O32 Hf10 2.209 1_565 S
O32 C18 1.281 . S
O33 Hf10 2.209 1_556 S
O33 C17 1.281 . S
C34 O23 1.281 . S
C34 O39 1.281 . S
O35 Hf15 2.209 . S
O35 C48 1.281 . S
O36 Hf6 2.209 1_565 S
O36 C49 1.281 . S
O37 C0 1.281 . S
O37 Hf6 2.209 1_655 S
O38 Hf15 2.209 1_665 S
O38 C41 1.281 . S
O39 Hf13 2.209 1_566 S
O39 C34 1.281 . S
O40 Hf10 2.209 1_556 S
O40 C31 1.281 . S
C41 O24 1.281 . S
C41 O38 1.281 . S
O42 Hf10 2.209 1_565 S
O42 C19 1.281 . S
O43 Hf8 2.209 1_556 S
O43 C17 1.281 . S
O44 Hf13 2.209 . S
O44 C22 1.281 . S
O45 Hf12 2.209 . S
O45 C18 1.281 . S
O46 Hf12 2.209 1_656 S
O46 C16 1.281 . S
O47 C1 1.281 . S
O47 Hf8 2.209 1_655 S
C48 O27 1.281 . S
C48 O35 1.281 . S
C49 O25 1.281 . S
C49 O36 1.281 . S
C50 O78 1.281 . S
C50 O87 1.281 . S
C51 O79 1.281 . S
C51 O97 1.281 . S
O52 Hf56 2.202 . S
O52 Hf58 2.202 . S
O52 Hf60 2.202 . S
O53 Hf56 2.202 1_655 S
O53 Hf62 2.202 1_655 S
O53 Hf63 2.202 . S
O54 Hf56 2.072 . S
O54 Hf60 2.072 . S
O54 Hf62 2.072 . S
O55 Hf56 2.072 1_655 S
O55 Hf58 2.072 1_655 S
O55 Hf63 2.072 . S
Hf56 O52 2.202 . S
Hf56 O53 2.202 1_455 S
Hf56 O54 2.072 . S
Hf56 O55 2.072 1_455 S
Hf56 O70 2.209 . S
Hf56 O71 2.209 1_455 S
Hf56 O86 2.209 . S
Hf56 O87 2.209 1_455 S
O57 Hf58 2.072 . S
O57 Hf60 2.072 . S
O57 Hf65 2.072 . S
Hf58 O52 2.202 . S
Hf58 O55 2.072 1_455 S
Hf58 O57 2.072 . S
Hf58 O61 2.202 1_455 S
Hf58 O77 2.209 . S
Hf58 O78 2.209 1_455 S
Hf58 O93 2.209 . S
Hf58 O97 2.209 1_455 S
O59 Hf60 2.202 . S
O59 Hf62 2.202 . S
O59 Hf65 2.202 . S
Hf60 O52 2.202 . S
Hf60 O54 2.072 . S
Hf60 O57 2.072 . S
Hf60 O59 2.202 . S
Hf60 O82 2.209 . S
Hf60 O83 2.209 . S
Hf60 O90 2.209 . S
Hf60 O92 2.209 . S
O61 Hf58 2.202 1_655 S
O61 Hf63 2.202 . S
O61 Hf65 2.202 1_655 S
Hf62 O53 2.202 1_455 S
Hf62 O54 2.072 . S
Hf62 O59 2.202 . S
Hf62 O64 2.072 1_455 S
Hf62 O74 2.209 1_455 S
Hf62 O75 2.209 . S
Hf62 O95 2.209 . S
Hf62 O96 2.209 1_455 S
Hf63 O53 2.202 . S
Hf63 O55 2.072 . S
Hf63 O61 2.202 . S
Hf63 O64 2.072 . S
Hf63 O79 2.209 . S
Hf63 O80 2.209 . S
Hf63 O89 2.209 . S
Hf63 O94 2.209 . S
O64 Hf62 2.072 1_655 S
O64 Hf63 2.072 . S
O64 Hf65 2.072 1_655 S
Hf65 O57 2.072 . S
Hf65 O59 2.202 . S
Hf65 O61 2.202 1_455 S
Hf65 O64 2.072 1_455 S
Hf65 O73 2.209 1_455 S
Hf65 O76 2.209 . S
Hf65 O85 2.209 . S
Hf65 O88 2.209 1_455 S
C66 O80 1.281 . S
C66 O96 1.281 . S
C67 O83 1.281 . S
C67 O93 1.281 . S
C68 O82 1.281 . S
C68 O95 1.281 . S
C69 O70 1.281 . S
C69 O92 1.281 . S
O70 Hf56 2.209 . S
O70 C69 1.281 . S
O71 Hf56 2.209 1_655 S
O71 C72 1.281 . S
C72 O71 1.281 . S
C72 O94 1.281 . S
O73 Hf65 2.209 1_655 S
O73 C84 1.281 . S
O74 Hf62 2.209 1_655 S
O74 C91 1.281 . S
O75 Hf62 2.209 . S
O75 C99 1.281 . S
O76 Hf65 2.209 . S
O76 C81 1.281 . S
O77 Hf58 2.209 . S
O77 C98 1.281 . S
O78 C50 1.281 . S
O78 Hf58 2.209 1_655 S
O79 C51 1.281 . S
O79 Hf63 2.209 . S
O80 Hf63 2.209 . S
O80 C66 1.281 . S
C81 O76 1.281 . S
C81 O90 1.281 . S
O82 Hf60 2.209 . S
O82 C68 1.281 . S
O83 Hf60 2.209 . S
O83 C67 1.281 . S
C84 O73 1.281 . S
C84 O89 1.281 . S
O85 Hf65 2.209 . S
O85 C98 1.281 . S
O86 Hf56 2.209 . S
O86 C99 1.281 . S
O87 C50 1.281 . S
O87 Hf56 2.209 1_655 S
O88 Hf65 2.209 1_655 S
O88 C91 1.281 . S
O89 Hf63 2.209 . S
O89 C84 1.281 . S
O90 Hf60 2.209 . S
O90 C81 1.281 . S
C91 O74 1.281 . S
C91 O88 1.281 . S
O92 Hf60 2.209 . S
O92 C69 1.281 . S
O93 Hf58 2.209 . S
O93 C67 1.281 . S
O94 Hf63 2.209 . S
O94 C72 1.281 . S
O95 Hf62 2.209 . S
O95 C68 1.281 . S
O96 Hf62 2.209 1_655 S
O96 C66 1.281 . S
O97 C51 1.281 . S
O97 Hf58 2.209 1_655 S
C98 O77 1.281 . S
C98 O85 1.281 . S
C99 O75 1.281 . S
C99 O86 1.281 . S
C100 O128 1.281 . S
C100 O137 1.281 . S
C101 O129 1.281 . S
C101 O147 1.281 . S
O102 Hf106 2.202 . S
O102 Hf108 2.202 . S
O102 Hf110 2.202 . S
O103 Hf106 2.202 1_565 S
O103 Hf112 2.202 . S
O103 Hf113 2.202 1_565 S
O104 Hf106 2.072 1_565 S
O104 Hf110 2.072 1_565 S
O104 Hf112 2.072 . S
O105 Hf106 2.072 . S
O105 Hf108 2.072 . S
O105 Hf113 2.072 . S
Hf106 O102 2.202 . S
Hf106 O103 2.202 1_545 S
Hf106 O104 2.072 1_545 S
Hf106 O105 2.072 . S
Hf106 O120 2.209 1_545 S
Hf106 O121 2.209 . S
Hf106 O136 2.209 1_545 S
Hf106 O137 2.209 . S
O107 Hf108 2.072 . S
O107 Hf110 2.072 . S
O107 Hf115 2.072 . S
Hf108 O102 2.202 . S
Hf108 O105 2.072 . S
Hf108 O107 2.072 . S
Hf108 O111 2.202 . S
Hf108 O127 2.209 . S
Hf108 O128 2.209 . S
Hf108 O143 2.209 . S
Hf108 O147 2.209 . S
O109 Hf110 2.202 1_565 S
O109 Hf112 2.202 . S
O109 Hf115 2.202 1_565 S
Hf110 O102 2.202 . S
Hf110 O104 2.072 1_545 S
Hf110 O107 2.072 . S
Hf110 O109 2.202 1_545 S
Hf110 O132 2.209 1_545 S
Hf110 O133 2.209 . S
Hf110 O140 2.209 . S
Hf110 O142 2.209 1_545 S
O111 Hf108 2.202 . S
O111 Hf113 2.202 . S
O111 Hf115 2.202 . S
Hf112 O103 2.202 . S
Hf112 O104 2.072 . S
Hf112 O109 2.202 . S
Hf112 O114 2.072 . S
Hf112 O124 2.209 . S
Hf112 O125 2.209 . S
Hf112 O145 2.209 . S
Hf112 O146 2.209 . S
Hf113 O103 2.202 1_545 S
Hf113 O105 2.072 . S
Hf113 O111 2.202 . S
Hf113 O114 2.072 1_545 S
Hf113 O129 2.209 . S
Hf113 O130 2.209 1_545 S
Hf113 O139 2.209 1_545 S
Hf113 O144 2.209 . S
O114 Hf112 2.072 . S
O114 Hf113 2.072 1_565 S
O114 Hf115 2.072 1_565 S
Hf115 O107 2.072 . S
Hf115 O109 2.202 1_545 S
Hf115 O111 2.202 . S
Hf115 O114 2.072 1_545 S
Hf115 O123 2.209 1_545 S
Hf115 O126 2.209 . S
Hf115 O135 2.209 . S
Hf115 O138 2.209 1_545 S
C116 O130 1.281 . S
C116 O146 1.281 . S
C117 O133 1.281 . S
C117 O143 1.281 . S
C118 O132 1.281 . S
C118 O145 1.281 . S
C119 O120 1.281 . S
C119 O142 1.281 . S
O120 Hf106 2.209 1_565 S
O120 C119 1.281 . S
O121 Hf106 2.209 . S
O121 C122 1.281 . S
C122 O121 1.281 . S
C122 O144 1.281 . S
O123 Hf115 2.209 1_565 S
O123 C134 1.281 . S
O124 Hf112 2.209 . S
O124 C141 1.281 . S
O125 Hf112 2.209 . S
O125 C149 1.281 . S
O126 Hf115 2.209 . S
O126 C131 1.281 . S
O127 Hf108 2.209 . S
O127 C148 1.281 . S
O128 C100 1.281 . S
O128 Hf108 2.209 . S
O129 C101 1.281 . S
O129 Hf113 2.209 . S
O130 Hf113 2.209 1_565 S
O130 C116 1.281 . S
C131 O126 1.281 . S
C131 O140 1.281 . S
O132 Hf110 2.209 1_565 S
O132 C118 1.281 . S
O133 Hf110 2.209 . S
O133 C117 1.281 . S
C134 O123 1.281 . S
C134 O139 1.281 . S
O135 Hf115 2.209 . S
O135 C148 1.281 . S
O136 Hf106 2.209 1_565 S
O136 C149 1.281 . S
O137 C100 1.281 . S
O137 Hf106 2.209 . S
O138 Hf115 2.209 1_565 S
O138 C141 1.281 . S
O139 Hf113 2.209 1_565 S
O139 C134 1.281 . S
O140 Hf110 2.209 . S
O140 C131 1.281 . S
C141 O124 1.281 . S
C141 O138 1.281 . S
O142 Hf110 2.209 1_565 S
O142 C119 1.281 . S
O143 Hf108 2.209 . S
O143 C117 1.281 . S
O144 Hf113 2.209 . S
O144 C122 1.281 . S
O145 Hf112 2.209 . S
O145 C118 1.281 . S
O146 Hf112 2.209 . S
O146 C116 1.281 . S
O147 C101 1.281 . S
O147 Hf108 2.209 . S
C148 O127 1.281 . S
C148 O135 1.281 . S
C149 O125 1.281 . S
C149 O136 1.281 . S
C150 O178 1.281 . S
C150 O187 1.281 . S
C151 O179 1.281 . S
C151 O197 1.281 . S
O152 Hf156 2.202 . S
O152 Hf158 2.202 . S
O152 Hf160 2.202 . S
O153 Hf156 2.202 . S
O153 Hf162 2.202 . S
O153 Hf163 2.202 . S
O154 Hf156 2.072 . S
O154 Hf160 2.072 . S
O154 Hf162 2.072 . S
O155 Hf156 2.072 . S
O155 Hf158 2.072 . S
O155 Hf163 2.072 . S
Hf156 O152 2.202 . S
Hf156 O153 2.202 . S
Hf156 O154 2.072 . S
Hf156 O155 2.072 . S
Hf156 O170 2.209 . S
Hf156 O171 2.209 . S
Hf156 O186 2.209 . S
Hf156 O187 2.209 . S
O157 Hf158 2.072 1_556 S
O157 Hf160 2.072 1_556 S
O157 Hf165 2.072 . S
Hf158 O152 2.202 . S
Hf158 O155 2.072 . S
Hf158 O157 2.072 1_554 S
Hf158 O161 2.202 1_554 S
Hf158 O177 2.209 1_554 S
Hf158 O178 2.209 . S
Hf158 O193 2.209 1_554 S
Hf158 O197 2.209 . S
O159 Hf160 2.202 1_556 S
O159 Hf162 2.202 1_556 S
O159 Hf165 2.202 . S
Hf160 O152 2.202 . S
Hf160 O154 2.072 . S
Hf160 O157 2.072 1_554 S
Hf160 O159 2.202 1_554 S
Hf160 O182 2.209 . S
Hf160 O183 2.209 1_554 S
Hf160 O190 2.209 1_554 S
Hf160 O192 2.209 . S
O161 Hf158 2.202 1_556 S
O161 Hf163 2.202 1_556 S
O161 Hf165 2.202 . S
Hf162 O153 2.202 . S
Hf162 O154 2.072 . S
Hf162 O159 2.202 1_554 S
Hf162 O164 2.072 1_554 S
Hf162 O174 2.209 1_554 S
Hf162 O175 2.209 . S
Hf162 O195 2.209 . S
Hf162 O196 2.209 1_554 S
Hf163 O153 2.202 . S
Hf163 O155 2.072 . S
Hf163 O161 2.202 1_554 S
Hf163 O164 2.072 1_554 S
Hf163 O179 2.209 . S
Hf163 O180 2.209 1_554 S
Hf163 O189 2.209 1_554 S
Hf163 O194 2.209 . S
O164 Hf162 2.072 1_556 S
O164 Hf163 2.072 1_556 S
O164 Hf165 2.072 . S
Hf165 O157 2.072 . S
Hf165 O159 2.202 . S
Hf165 O161 2.202 . S
Hf165 O164 2.072 . S
Hf165 O173 2.209 . S
Hf165 O176 2.209 . S
Hf165 O185 2.209 . S
Hf165 O188 2.209 . S
C166 O180 1.281 . S
C166 O196 1.281 . S
C167 O183 1.281 . S
C167 O193 1.281 . S
C168 O182 1.281 . S
C168 O195 1.281 . S
C169 O170 1.281 . S
C169 O192 1.281 . S
O170 Hf156 2.209 . S
O170 C169 1.281 . S
O171 Hf156 2.209 . S
O171 C172 1.281 . S
C172 O171 1.281 . S
C172 O194 1.281 . S
O173 Hf165 2.209 . S
O173 C184 1.281 . S
O174 Hf162 2.209 1_556 S
O174 C191 1.281 . S
O175 Hf162 2.209 . S
O175 C199 1.281 . S
O176 Hf165 2.209 . S
O176 C181 1.281 . S
O177 Hf158 2.209 1_556 S
O177 C198 1.281 . S
O178 C150 1.281 . S
O178 Hf158 2.209 . S
O179 C151 1.281 . S
O179 Hf163 2.209 . S
O180 Hf163 2.209 1_556 S
O180 C166 1.281 . S
C181 O176 1.281 . S
C181 O190 1.281 . S
O182 Hf160 2.209 . S
O182 C168 1.281 . S
O183 Hf160 2.209 1_556 S
O183 C167 1.281 . S
C184 O173 1.281 . S
C184 O189 1.281 . S
O185 Hf165 2.209 . S
O185 C198 1.281 . S
O186 Hf156 2.209 . S
O186 C199 1.281 . S
O187 C150 1.281 . S
O187 Hf156 2.209 . S
O188 Hf165 2.209 . S
O188 C191 1.281 . S
O189 Hf163 2.209 1_556 S
O189 C184 1.281 . S
O190 Hf160 2.209 1_556 S
O190 C181 1.281 . S
C191 O174 1.281 . S
C191 O188 1.281 . S
O192 Hf160 2.209 . S
O192 C169 1.281 . S
O193 Hf158 2.209 1_556 S
O193 C167 1.281 . S
O194 Hf163 2.209 . S
O194 C172 1.281 . S
O195 Hf162 2.209 . S
O195 C168 1.281 . S
O196 Hf162 2.209 1_556 S
O196 C166 1.281 . S
O197 C151 1.281 . S
O197 Hf158 2.209 . S
C198 O177 1.281 . S
C198 O185 1.281 . S
C199 O175 1.281 . S
C199 O186 1.281 . S
C200 C201 1.369 1_455 S
C200 C202 1.419 . S
C200 H204 0.930 . S
C201 C200 1.369 1_655 S
C201 C210 1.429 . S
C202 C200 1.419 . S
C202 C203 1.363 1_455 S
C202 H205 0.929 . S
C203 C202 1.363 1_655 S
C203 C209 1.428 . S
H204 C200 0.930 . S
H205 C202 0.929 . S
S206 N207 1.613 . S
S206 N208 1.610 . S
N207 S206 1.613 . S
N207 C210 1.350 . S
N208 S206 1.610 . S
N208 C209 1.351 . S
C209 C203 1.428 . S
C209 N208 1.351 . S
C209 C210 1.434 . S
C210 C201 1.429 . S
C210 N207 1.350 . S
C210 C209 1.434 . S
C211 C212 1.369 1_565 S
C211 C213 1.419 . S
C211 H215 0.930 . S
C212 C211 1.369 1_545 S
C212 C221 1.429 . S
C213 C211 1.419 . S
C213 C214 1.363 1_565 S
C213 H216 0.929 . S
C214 C213 1.363 1_545 S
C214 C220 1.428 . S
H215 C211 0.930 . S
H216 C213 0.929 . S
S217 N218 1.613 . S
S217 N219 1.610 . S
N218 S217 1.613 . S
N218 C221 1.350 . S
N219 S217 1.610 . S
N219 C220 1.351 . S
C220 C214 1.428 . S
C220 N219 1.351 . S
C220 C221 1.434 . S
C221 C212 1.429 . S
C221 N218 1.350 . S
C221 C220 1.434 . S
C222 C223 1.369 1_655 S
C222 C224 1.419 . S
C222 H226 0.930 . S
C223 C222 1.369 1_455 S
C223 C232 1.429 . S
C224 C222 1.419 . S
C224 C225 1.363 1_655 S
C224 H227 0.929 . S
C225 C224 1.363 1_455 S
C225 C231 1.428 . S
H226 C222 0.930 . S
H227 C224 0.929 . S
S228 N229 1.613 . S
S228 N230 1.610 . S
N229 S228 1.613 . S
N229 C232 1.350 . S
N230 S228 1.610 . S
N230 C231 1.351 . S
C231 C225 1.428 . S
C231 N230 1.351 . S
C231 C232 1.434 . S
C232 C223 1.429 . S
C232 N229 1.350 . S
C232 C231 1.434 . S
C233 C234 1.369 1_545 S
C233 C235 1.419 . S
C233 H237 0.930 . S
C234 C233 1.369 1_565 S
C234 C243 1.429 . S
C235 C233 1.419 . S
C235 C236 1.363 1_545 S
C235 H238 0.929 . S
C236 C235 1.363 1_565 S
C236 C242 1.428 . S
H237 C233 0.930 . S
H238 C235 0.929 . S
S239 N240 1.613 . S
S239 N241 1.610 . S
N240 S239 1.613 . S
N240 C243 1.350 . S
N241 S239 1.610 . S
N241 C242 1.351 . S
C242 C236 1.428 . S
C242 N241 1.351 . S
C242 C243 1.434 . S
C243 C234 1.429 . S
C243 N240 1.350 . S
C243 C242 1.434 . S
C244 C245 1.369 . S
C244 C246 1.419 . S
C244 H248 0.930 . S
C245 C244 1.369 . S
C245 C254 1.429 1_655 S
C246 C244 1.419 . S
C246 C247 1.363 . S
C246 H249 0.929 . S
C247 C246 1.363 . S
C247 C253 1.428 1_655 S
H248 C244 0.930 . S
H249 C246 0.929 . S
S250 N251 1.613 . S
S250 N252 1.610 . S
N251 S250 1.613 . S
N251 C254 1.350 . S
N252 S250 1.610 . S
N252 C253 1.351 . S
C253 C247 1.428 1_455 S
C253 N252 1.351 . S
C253 C254 1.434 . S
C254 C245 1.429 1_455 S
C254 N251 1.350 . S
C254 C253 1.434 . S
C255 C256 1.369 1_565 S
C255 C257 1.419 . S
C255 H259 0.930 . S
C256 C255 1.369 1_545 S
C256 C265 1.429 . S
C257 C255 1.419 . S
C257 C258 1.363 1_565 S
C257 H260 0.929 . S
C258 C257 1.363 1_545 S
C258 C264 1.428 . S
H259 C255 0.930 . S
H260 C257 0.929 . S
S261 N262 1.613 . S
S261 N263 1.610 . S
N262 S261 1.613 . S
N262 C265 1.350 . S
N263 S261 1.610 . S
N263 C264 1.351 . S
C264 C258 1.428 . S
C264 N263 1.351 . S
C264 C265 1.434 . S
C265 C256 1.429 . S
C265 N262 1.350 . S
C265 C264 1.434 . S
C266 C267 1.369 . S
C266 C268 1.419 . S
C266 H270 0.930 . S
C267 C266 1.369 . S
C267 C276 1.429 1_455 S
C268 C266 1.419 . S
C268 C269 1.363 . S
C268 H271 0.929 . S
C269 C268 1.363 . S
C269 C275 1.428 1_455 S
H270 C266 0.930 . S
H271 C268 0.929 . S
S272 N273 1.613 . S
S272 N274 1.610 . S
N273 S272 1.613 . S
N273 C276 1.350 . S
N274 S272 1.610 . S
N274 C275 1.351 . S
C275 C269 1.428 1_655 S
C275 N274 1.351 . S
C275 C276 1.434 . S
C276 C267 1.429 1_655 S
C276 N273 1.350 . S
C276 C275 1.434 . S
C277 C278 1.369 . S
C277 C279 1.419 . S
C277 H281 0.930 . S
C278 C277 1.369 . S
C278 C287 1.429 1_565 S
C279 C277 1.419 . S
C279 C280 1.363 . S
C279 H282 0.929 . S
C280 C279 1.363 . S
C280 C286 1.428 1_565 S
H281 C277 0.930 . S
H282 C279 0.929 . S
S283 N284 1.613 . S
S283 N285 1.610 . S
N284 S283 1.613 . S
N284 C287 1.350 . S
N285 S283 1.610 . S
N285 C286 1.351 . S
C286 C280 1.428 1_545 S
C286 N285 1.351 . S
C286 C287 1.434 . S
C287 C278 1.429 1_545 S
C287 N284 1.350 . S
C287 C286 1.434 . S
C288 C289 1.369 . S
C288 C290 1.419 . S
C288 H292 0.930 . S
C289 C288 1.369 . S
C289 C298 1.429 . S
C290 C288 1.419 . S
C290 C291 1.363 . S
C290 H293 0.929 . S
C291 C290 1.363 . S
C291 C297 1.428 . S
H292 C288 0.930 . S
H293 C290 0.929 . S
S294 N295 1.613 . S
S294 N296 1.610 . S
N295 S294 1.613 . S
N295 C298 1.350 . S
N296 S294 1.610 . S
N296 C297 1.351 . S
C297 C291 1.428 . S
C297 N296 1.351 . S
C297 C298 1.434 . S
C298 C289 1.429 . S
C298 N295 1.350 . S
C298 C297 1.434 . S
C299 C300 1.369 . S
C299 C301 1.419 . S
C299 H303 0.930 . S
C300 C299 1.369 . S
C300 C309 1.429 1_554 S
C301 C299 1.419 . S
C301 C302 1.363 . S
C301 H304 0.929 . S
C302 C301 1.363 . S
C302 C308 1.428 1_554 S
H303 C299 0.930 . S
H304 C301 0.929 . S
S305 N306 1.613 . S
S305 N307 1.610 . S
N306 S305 1.613 . S
N306 C309 1.350 . S
N307 S305 1.610 . S
N307 C308 1.351 . S
C308 C302 1.428 1_556 S
C308 N307 1.351 . S
C308 C309 1.434 . S
C309 C300 1.429 1_556 S
C309 N306 1.350 . S
C309 C308 1.434 . S
C310 C311 1.369 1_556 S
C310 C312 1.419 . S
C310 H314 0.930 . S
C311 C310 1.369 1_554 S
C311 C320 1.429 . S
C312 C310 1.419 . S
C312 C313 1.363 1_556 S
C312 H315 0.929 . S
C313 C312 1.363 1_554 S
C313 C319 1.428 . S
H314 C310 0.930 . S
H315 C312 0.929 . S
S316 N317 1.613 . S
S316 N318 1.610 . S
N317 S316 1.613 . S
N317 C320 1.350 . S
N318 S316 1.610 . S
N318 C319 1.351 . S
C319 C313 1.428 . S
C319 N318 1.351 . S
C319 C320 1.434 . S
C320 C311 1.429 . S
C320 N317 1.350 . S
C320 C319 1.434 . S
C321 C322 1.369 1_554 S
C321 C323 1.419 . S
C321 H325 0.930 . S
C322 C321 1.369 1_556 S
C322 C331 1.429 . S
C323 C321 1.419 . S
C323 C324 1.363 1_554 S
C323 H326 0.929 . S
C324 C323 1.363 1_556 S
C324 C330 1.428 . S
H325 C321 0.930 . S
H326 C323 0.929 . S
S327 N328 1.613 . S
S327 N329 1.610 . S
N328 S327 1.613 . S
N328 C331 1.350 . S
N329 S327 1.610 . S
N329 C330 1.351 . S
C330 C324 1.428 . S
C330 N329 1.351 . S
C330 C331 1.434 . S
C331 C322 1.429 . S
C331 N328 1.350 . S
C331 C330 1.434 . S
C332 C333 1.369 . S
C332 C334 1.419 . S
C332 H336 0.930 . S
C333 C332 1.369 . S
C333 C342 1.429 . S
C334 C332 1.419 . S
C334 C335 1.363 . S
C334 H337 0.929 . S
C335 C334 1.363 . S
C335 C341 1.428 . S
H336 C332 0.930 . S
H337 C334 0.929 . S
S338 N339 1.613 . S
S338 N340 1.610 . S
N339 S338 1.613 . S
N339 C342 1.350 . S
N340 S338 1.610 . S
N340 C341 1.351 . S
C341 C335 1.428 . S
C341 N340 1.351 . S
C341 C342 1.434 . S
C342 C333 1.429 . S
C342 N339 1.350 . S
C342 C341 1.434 . S
C343 C344 1.369 . S
C343 C345 1.419 . S
C343 H347 0.930 . S
C344 C343 1.369 . S
C344 C353 1.429 . S
C345 C343 1.419 . S
C345 C346 1.363 . S
C345 H348 0.929 . S
C346 C345 1.363 . S
C346 C352 1.428 . S
H347 C343 0.930 . S
H348 C345 0.929 . S
S349 N350 1.613 . S
S349 N351 1.610 . S
N350 S349 1.613 . S
N350 C353 1.350 . S
N351 S349 1.610 . S
N351 C352 1.351 . S
C352 C346 1.428 . S
C352 N351 1.351 . S
C352 C353 1.434 . S
C353 C344 1.429 . S
C353 N350 1.350 . S
C353 C352 1.434 . S
C354 C355 1.369 . S
C354 C356 1.419 . S
C354 H358 0.930 . S
C355 C354 1.369 . S
C355 C364 1.429 . S
C356 C354 1.419 . S
C356 C357 1.363 . S
C356 H359 0.929 . S
C357 C356 1.363 . S
C357 C363 1.428 . S
H358 C354 0.930 . S
H359 C356 0.929 . S
S360 N361 1.613 . S
S360 N362 1.610 . S
N361 S360 1.613 . S
N361 C364 1.350 . S
N362 S360 1.610 . S
N362 C363 1.351 . S
C363 C357 1.428 . S
C363 N362 1.351 . S
C363 C364 1.434 . S
C364 C355 1.429 . S
C364 N361 1.350 . S
C364 C363 1.434 . S
C365 C366 1.369 . S
C365 C367 1.419 . S
C365 H369 0.930 . S
C366 C365 1.369 . S
C366 C375 1.429 . S
C367 C365 1.419 . S
C367 C368 1.363 . S
C367 H370 0.929 . S
C368 C367 1.363 . S
C368 C374 1.428 . S
H369 C365 0.930 . S
H370 C367 0.929 . S
S371 N372 1.613 . S
S371 N373 1.610 . S
N372 S371 1.613 . S
N372 C375 1.350 . S
N373 S371 1.610 . S
N373 C374 1.351 . S
C374 C368 1.428 . S
C374 N373 1.351 . S
C374 C375 1.434 . S
C375 C366 1.429 . S
C375 N372 1.350 . S
C375 C374 1.434 . S
C376 C377 1.369 . S
C376 C378 1.419 . S
C376 H380 0.930 . S
C377 C376 1.369 . S
C377 C386 1.429 . S
C378 C376 1.419 . S
C378 C379 1.363 . S
C378 H381 0.929 . S
C379 C378 1.363 . S
C379 C385 1.428 . S
H380 C376 0.930 . S
H381 C378 0.929 . S
S382 N383 1.613 . S
S382 N384 1.610 . S
N383 S382 1.613 . S
N383 C386 1.350 . S
N384 S382 1.610 . S
N384 C385 1.351 . S
C385 C379 1.428 . S
C385 N384 1.351 . S
C385 C386 1.434 . S
C386 C377 1.429 . S
C386 N383 1.350 . S
C386 C385 1.434 . S
C387 C388 1.369 . S
C387 C389 1.419 . S
C387 H391 0.930 . S
C388 C387 1.369 . S
C388 C397 1.429 . S
C389 C387 1.419 . S
C389 C390 1.363 . S
C389 H392 0.929 . S
C390 C389 1.363 . S
C390 C396 1.428 . S
H391 C387 0.930 . S
H392 C389 0.929 . S
S393 N394 1.613 . S
S393 N395 1.610 . S
N394 S393 1.613 . S
N394 C397 1.350 . S
N395 S393 1.610 . S
N395 C396 1.351 . S
C396 C390 1.428 . S
C396 N395 1.351 . S
C396 C397 1.434 . S
C397 C388 1.429 . S
C397 N394 1.350 . S
C397 C396 1.434 . S
C398 C399 1.369 . S
C398 C400 1.419 . S
C398 H402 0.930 . S
C399 C398 1.369 . S
C399 C408 1.429 . S
C400 C398 1.419 . S
C400 C401 1.363 . S
C400 H403 0.929 . S
C401 C400 1.363 . S
C401 C407 1.428 . S
H402 C398 0.930 . S
H403 C400 0.929 . S
S404 N405 1.613 . S
S404 N406 1.610 . S
N405 S404 1.613 . S
N405 C408 1.350 . S
N406 S404 1.610 . S
N406 C407 1.351 . S
C407 C401 1.428 . S
C407 N406 1.351 . S
C407 C408 1.434 . S
C408 C399 1.429 . S
C408 N405 1.350 . S
C408 C407 1.434 . S
C409 C410 1.369 . S
C409 C411 1.419 . S
C409 H413 0.930 . S
C410 C409 1.369 . S
C410 C419 1.429 . S
C411 C409 1.419 . S
C411 C412 1.363 . S
C411 H414 0.929 . S
C412 C411 1.363 . S
C412 C418 1.428 . S
H413 C409 0.930 . S
H414 C411 0.929 . S
S415 N416 1.613 . S
S415 N417 1.610 . S
N416 S415 1.613 . S
N416 C419 1.350 . S
N417 S415 1.610 . S
N417 C418 1.351 . S
C418 C412 1.428 . S
C418 N417 1.351 . S
C418 C419 1.434 . S
C419 C410 1.429 . S
C419 N416 1.350 . S
C419 C418 1.434 . S
C420 C421 1.369 . S
C420 C422 1.419 . S
C420 H424 0.930 . S
C421 C420 1.369 . S
C421 C430 1.429 . S
C422 C420 1.419 . S
C422 C423 1.363 . S
C422 H425 0.929 . S
C423 C422 1.363 . S
C423 C429 1.428 . S
H424 C420 0.930 . S
H425 C422 0.929 . S
S426 N427 1.613 . S
S426 N428 1.610 . S
N427 S426 1.613 . S
N427 C430 1.350 . S
N428 S426 1.610 . S
N428 C429 1.351 . S
C429 C423 1.428 . S
C429 N428 1.351 . S
C429 C430 1.434 . S
C430 C421 1.429 . S
C430 N427 1.350 . S
C430 C429 1.434 . S
C431 C432 1.369 . S
C431 C433 1.419 . S
C431 H435 0.930 . S
C432 C431 1.369 . S
C432 C441 1.429 . S
C433 C431 1.419 . S
C433 C434 1.363 . S
C433 H436 0.929 . S
C434 C433 1.363 . S
C434 C440 1.428 . S
H435 C431 0.930 . S
H436 C433 0.929 . S
S437 N438 1.613 . S
S437 N439 1.610 . S
N438 S437 1.613 . S
N438 C441 1.350 . S
N439 S437 1.610 . S
N439 C440 1.351 . S
C440 C434 1.428 . S
C440 N439 1.351 . S
C440 C441 1.434 . S
C441 C432 1.429 . S
C441 N438 1.350 . S
C441 C440 1.434 . S
C442 C443 1.369 . S
C442 C444 1.419 . S
C442 H446 0.930 . S
C443 C442 1.369 . S
C443 C452 1.429 . S
C444 C442 1.419 . S
C444 C445 1.363 . S
C444 H447 0.929 . S
C445 C444 1.363 . S
C445 C451 1.428 . S
H446 C442 0.930 . S
H447 C444 0.929 . S
S448 N449 1.613 . S
S448 N450 1.610 . S
N449 S448 1.613 . S
N449 C452 1.350 . S
N450 S448 1.610 . S
N450 C451 1.351 . S
C451 C445 1.428 . S
C451 N450 1.351 . S
C451 C452 1.434 . S
C452 C443 1.429 . S
C452 N449 1.350 . S
C452 C451 1.434 . S
C453 C454 1.369 . S
C453 C455 1.419 . S
C453 H457 0.930 . S
C454 C453 1.369 . S
C454 C463 1.429 . S
C455 C453 1.419 . S
C455 C456 1.363 . S
C455 H458 0.929 . S
C456 C455 1.363 . S
C456 C462 1.428 . S
H457 C453 0.930 . S
H458 C455 0.929 . S
S459 N460 1.613 . S
S459 N461 1.610 . S
N460 S459 1.613 . S
N460 C463 1.350 . S
N461 S459 1.610 . S
N461 C462 1.351 . S
C462 C456 1.428 . S
C462 N461 1.351 . S
C462 C463 1.434 . S
C463 C454 1.429 . S
C463 N460 1.350 . S
C463 C462 1.434 . S
C201 C0 1.499 . S
C203 C91 1.496 . S
C212 C22 1.499 . S
C214 C131 1.499 . S
C223 C49 1.499 . S
C225 C98 1.499 . S
C234 C134 1.499 . S
C236 C19 1.496 . S
C245 C41 1.498 . S
C247 C50 1.501 . S
C256 C31 1.499 . S
C258 C122 1.499 . S
C267 C99 1.498 . S
C269 C48 1.498 . S
C278 C119 1.498 . S
C280 C34 1.501 . S
C289 C166 1.498 . S
C291 C17 1.495 . S
C300 C151 1.498 . S
C302 C18 1.498 . S
C311 C168 1.499 . S
C313 C1 1.499 . S
C322 C16 1.499 . S
C324 C167 1.501 . S
C333 C181 1.498 . S
C335 C72 1.501 . S
C344 C69 1.498 . S
C346 C184 1.498 . S
C355 C81 1.498 . S
C357 C172 1.496 . S
C366 C169 1.498 . S
C368 C84 1.498 . S
C377 C116 1.498 . S
C379 C67 1.498 . S
C388 C68 1.498 . S
C390 C101 1.495 . S
C399 C51 1.498 . S
C401 C118 1.501 . S
C410 C117 1.498 . S
C412 C66 1.498 . S
C421 C191 1.498 . S
C423 C100 1.498 . S
C432 C149 1.498 . S
C434 C198 1.501 . S
C443 C150 1.498 . S
C445 C141 1.498 . S
C454 C148 1.498 . S
C456 C199 1.495 . S
