# Generated by pormake.
# Topology wjh, (4)-cn, num edge types: 1
# Building blocks:
#     Node 0, Type 0, BuildingBlock: CEKHIL_clean_sbu_0, # of connection points: 4
#     Node 1, Type 0, BuildingBlock: CEKHIL_clean_sbu_0, # of connection points: 4
#     Node 2, Type 0, BuildingBlock: CEKHIL_clean_sbu_0, # of connection points: 4
#     Node 3, Type 0, BuildingBlock: CEKHIL_clean_sbu_0, # of connection points: 4
#     Node 4, Type 0, BuildingBlock: CEKHIL_clean_sbu_0, # of connection points: 4
#     Node 5, Type 0, BuildingBlock: CEKHIL_clean_sbu_0, # of connection points: 4
#     Node 6, Type 0, BuildingBlock: CEKHIL_clean_sbu_0, # of connection points: 4
#     Node 7, Type 0, BuildingBlock: CEKHIL_clean_sbu_0, # of connection points: 4
#     Node 8, Type 0, BuildingBlock: CEKHIL_clean_sbu_0, # of connection points: 4
#     Node 9, Type 0, BuildingBlock: CEKHIL_clean_sbu_0, # of connection points: 4
#     Node 10, Type 0, BuildingBlock: CEKHIL_clean_sbu_0, # of connection points: 4
#     Node 11, Type 0, BuildingBlock: CEKHIL_clean_sbu_0, # of connection points: 4
#     Edge 12, Type (0, 0), BuildingBlock: OJICUG_clean_linker_0, # of connection points: 2
#     Edge 13, Type (0, 0), BuildingBlock: OJICUG_clean_linker_0, # of connection points: 2
#     Edge 14, Type (0, 0), BuildingBlock: OJICUG_clean_linker_0, # of connection points: 2
#     Edge 15, Type (0, 0), BuildingBlock: OJICUG_clean_linker_0, # of connection points: 2
#     Edge 16, Type (0, 0), BuildingBlock: OJICUG_clean_linker_0, # of connection points: 2
#     Edge 17, Type (0, 0), BuildingBlock: OJICUG_clean_linker_0, # of connection points: 2
#     Edge 18, Type (0, 0), BuildingBlock: OJICUG_clean_linker_0, # of connection points: 2
#     Edge 19, Type (0, 0), BuildingBlock: OJICUG_clean_linker_0, # of connection points: 2
#     Edge 20, Type (0, 0), BuildingBlock: OJICUG_clean_linker_0, # of connection points: 2
#     Edge 21, Type (0, 0), BuildingBlock: OJICUG_clean_linker_0, # of connection points: 2
#     Edge 22, Type (0, 0), BuildingBlock: OJICUG_clean_linker_0, # of connection points: 2
#     Edge 23, Type (0, 0), BuildingBlock: OJICUG_clean_linker_0, # of connection points: 2
#     Edge 24, Type (0, 0), BuildingBlock: OJICUG_clean_linker_0, # of connection points: 2
#     Edge 25, Type (0, 0), BuildingBlock: OJICUG_clean_linker_0, # of connection points: 2
#     Edge 26, Type (0, 0), BuildingBlock: OJICUG_clean_linker_0, # of connection points: 2
#     Edge 27, Type (0, 0), BuildingBlock: OJICUG_clean_linker_0, # of connection points: 2
#     Edge 28, Type (0, 0), BuildingBlock: OJICUG_clean_linker_0, # of connection points: 2
#     Edge 29, Type (0, 0), BuildingBlock: OJICUG_clean_linker_0, # of connection points: 2
#     Edge 30, Type (0, 0), BuildingBlock: OJICUG_clean_linker_0, # of connection points: 2
#     Edge 31, Type (0, 0), BuildingBlock: OJICUG_clean_linker_0, # of connection points: 2
#     Edge 32, Type (0, 0), BuildingBlock: OJICUG_clean_linker_0, # of connection points: 2
#     Edge 33, Type (0, 0), BuildingBlock: OJICUG_clean_linker_0, # of connection points: 2
#     Edge 34, Type (0, 0), BuildingBlock: OJICUG_clean_linker_0, # of connection points: 2
#     Edge 35, Type (0, 0), BuildingBlock: OJICUG_clean_linker_0, # of connection points: 2
# Relax obj value: 0.077
# Max RMSD: 0.099
# Mean RMSD: 0.099
data_MOF--net-wjh--node1-CEKHIL_clean_sbu_0--edge1-OJICUG_clean_linker_0
_symmetry_space_group_name_H-M    P1
_symmetry_Int_Tables_number       1
_symmetry_cell_setting            triclinic
loop_
_symmetry_equiv_pos_as_xyz
'x, y, z'
_cell_length_a     43.491666
_cell_length_b     43.598803
_cell_length_c     19.598945
_cell_angle_alpha  90.02297
_cell_angle_beta   89.990456
_cell_angle_gamma 119.9557
loop_
_atom_site_label
_atom_site_type_symbol
_atom_site_fract_x
_atom_site_fract_y
_atom_site_fract_z
_atom_type_partial_charge
Co0 Co 0.55 0.16934 0.01724 0.0
O1 O 0.5725 0.2198 0.02488 0.0
O2 O 0.51669 0.18264 0.05349 0.0
C3 C 0.57124 0.16868 0.91204 0.0
O4 O 0.51787 0.11571 0.01701 0.0
Co5 Co 0.5962 0.13331 0.00323 0.0
O6 O 0.54974 0.09049 -0.01603 0.0
C7 C 0.59007 0.16153 0.1364 0.0
C8 C 0.543 0.21506 0.05088 0.0
C9 C 0.52043 0.08858 -7e-05 0.0
O10 O 0.56569 0.16692 0.11234 0.0
O11 O 0.60758 0.15118 0.09978 0.0
O12 O 0.54297 0.17152 0.91862 0.0
O13 O 0.58671 0.16907 0.96824 0.0
Co14 Co 0.39746 0.53999 0.18246 0.0
O15 O 0.36902 0.56209 0.18939 0.0
O16 O 0.35088 0.50656 0.21856 0.0
C17 C 0.4194 0.56109 0.07729 0.0
O18 O 0.41954 0.50829 0.18291 0.0
Co19 Co 0.47967 0.58667 0.16913 0.0
O20 O 0.47675 0.5405 0.15069 0.0
C21 C 0.44484 0.58058 0.30173 0.0
C22 C 0.34442 0.53265 0.21553 0.0
C23 C 0.44949 0.51114 0.16641 0.0
O24 O 0.4153 0.55593 0.27759 0.0
O25 O 0.47273 0.59823 0.26528 0.0
O26 O 0.38842 0.53273 0.08383 0.0
O27 O 0.43429 0.57669 0.13348 0.0
Co28 Co 0.87333 0.38704 0.34946 0.0
O29 O 0.82277 0.35858 0.35616 0.0
O30 O 0.86036 0.34057 0.3855 0.0
C31 C 0.87424 0.409 0.2443 0.0
O32 O 0.92717 0.40916 0.3501 0.0
Co33 Co 0.90847 0.46906 0.3363 0.0
O34 O 0.95189 0.46623 0.31791 0.0
C35 C 0.87986 0.43425 0.46885 0.0
C36 C 0.82773 0.33405 0.38229 0.0
C37 C 0.95417 0.43907 0.33361 0.0
O38 O 0.87507 0.40479 0.44464 0.0
O39 O 0.88998 0.46208 0.43244 0.0
O40 O 0.87173 0.37809 0.25081 0.0
O41 O 0.87332 0.42376 0.3005 0.0
Co42 Co 0.50307 0.86417 0.51594 0.0
O43 O 0.48074 0.81367 0.52225 0.0
O44 O 0.5364 0.85081 0.55184 0.0
C45 C 0.48212 0.86544 0.41076 0.0
O46 O 0.53505 0.91781 0.51713 0.0
Co47 Co 0.45661 0.89995 0.50299 0.0
O48 O 0.50306 0.94319 0.48598 0.0
C49 C 0.46243 0.8709 0.63532 0.0
C50 C 0.51019 0.81836 0.54841 0.0
C51 C 0.53239 0.94504 0.5015 0.0
O52 O 0.48703 0.86588 0.61113 0.0
O53 O 0.44488 0.88131 0.59896 0.0
O54 O 0.51045 0.86268 0.41725 0.0
O55 O 0.46644 0.8646 0.46696 0.0
Co56 Co 0.65587 0.49362 0.68383 0.0
O57 O 0.68432 0.4715 0.68978 0.0
O58 O 0.70254 0.52696 0.71968 0.0
C59 C 0.63362 0.47277 0.57868 0.0
O60 O 0.63382 0.52535 0.68528 0.0
Co61 Co 0.57362 0.4469 0.67135 0.0
O62 O 0.57638 0.49311 0.65446 0.0
C63 C 0.60888 0.45263 0.80323 0.0
C64 C 0.70899 0.50088 0.71603 0.0
C65 C 0.60375 0.52247 0.66976 0.0
O66 O 0.63829 0.47747 0.77902 0.0
O67 O 0.58091 0.43499 0.76696 0.0
O68 O 0.66463 0.5011 0.58516 0.0
O69 O 0.6189 0.45704 0.63486 0.0
Co70 Co 0.1798 0.64599 0.84922 0.0
O71 O 0.23038 0.67459 0.85542 0.0
O72 O 0.19272 0.69245 0.88523 0.0
C73 C 0.17862 0.62391 0.74401 0.0
O74 O 0.12596 0.62377 0.85049 0.0
Co75 Co 0.14481 0.56397 0.83633 0.0
O76 O 0.10115 0.56654 0.81927 0.0
C77 C 0.17383 0.59901 0.96855 0.0
C78 C 0.22537 0.69907 0.88171 0.0
C79 C 0.0989 0.59374 0.83477 0.0
O80 O 0.1784 0.62839 0.94437 0.0
O81 O 0.1637 0.57116 0.93219 0.0
O82 O 0.18108 0.65479 0.75056 0.0
O83 O 0.17976 0.60925 0.80016 0.0
Co84 Co 0.87372 0.49302 0.87926 0.0
O85 O 0.82315 0.47103 0.87258 0.0
O86 O 0.86068 0.52651 0.84327 0.0
C87 C 0.87465 0.47197 -0.01559 0.0
O88 O 0.92754 0.52461 0.87858 0.0
Co89 Co 0.909 0.44615 0.89235 0.0
O90 O 0.95241 0.49227 0.91052 0.0
C91 C 0.88021 0.4523 0.75989 0.0
C92 C 0.82807 0.50049 0.84647 0.0
C93 C 0.9546 0.52167 0.89489 0.0
O94 O 0.87545 0.47701 0.78409 0.0
O95 O 0.89039 0.4346 0.79628 0.0
O96 O 0.8721 0.50034 0.97792 0.0
O97 O 0.87377 0.4563 0.92821 0.0
Co98 Co 0.39692 0.8641 0.04564 0.0
O99 O 0.3688 0.81361 0.03904 0.0
O100 O 0.35023 0.85069 0.00962 0.0
C101 C 0.4191 0.86532 0.15083 0.0
O102 O 0.41857 0.91773 0.04474 0.0
Co103 Co 0.47921 0.89994 0.05873 0.0
O104 O 0.47595 0.94309 0.07615 0.0
C105 C 0.44437 0.87095 0.92629 0.0
C106 C 0.34403 0.81826 0.01284 0.0
C107 C 0.44847 0.94495 0.06063 0.0
O108 O 0.41474 0.86593 0.95047 0.0
O109 O 0.47232 0.88134 0.9627 0.0
O110 O 0.38798 0.86249 0.14432 0.0
O111 O 0.43398 0.86455 0.09463 0.0
Co112 Co 0.55053 0.38721 0.21355 0.0
O113 O 0.57265 0.35875 0.20772 0.0
O114 O 0.51711 0.34067 0.17766 0.0
C115 C 0.57131 0.40943 0.31876 0.0
O116 O 0.51879 0.40925 0.2119 0.0
Co117 Co 0.59741 0.46927 0.22627 0.0
O118 O 0.55106 0.46653 0.24293 0.0
C119 C 0.59153 0.4342 0.09415 0.0
C120 C 0.54319 0.33416 0.18145 0.0
C121 C 0.52165 0.43924 0.2274 0.0
O122 O 0.5668 0.40476 0.11837 0.0
O123 O 0.60916 0.4621 0.13045 0.0
O124 O 0.54293 0.37849 0.31223 0.0
O125 O 0.58716 0.42407 0.26262 0.0
Co126 Co 0.17947 0.54001 0.37887 0.0
O127 O 0.23007 0.56204 0.37277 0.0
O128 O 0.19266 0.5066 0.34294 0.0
C129 C 0.17819 0.56089 0.48404 0.0
O130 O 0.12566 0.50837 0.37755 0.0
Co131 Co 0.14412 0.58684 0.39156 0.0
O132 O 0.10058 0.54066 0.40859 0.0
C133 C 0.17341 0.58095 0.2595 0.0
C134 C 0.22524 0.53263 0.34652 0.0
C135 C 0.0985 0.51128 0.3932 0.0
O136 O 0.17803 0.55615 0.28369 0.0
O137 O 0.16315 0.59862 0.29582 0.0
O138 O 0.18079 0.53254 0.47753 0.0
O139 O 0.17923 0.57664 0.42787 0.0
Co140 Co 0.65604 0.16935 0.54676 0.0
O141 O 0.68417 0.2198 0.53943 0.0
O142 O 0.70268 0.18259 0.51058 0.0
C143 C 0.63411 0.16865 0.65195 0.0
O144 O 0.63432 0.1157 0.54668 0.0
Co145 Co 0.57379 0.1336 0.56052 0.0
O146 O 0.57716 0.09063 0.57934 0.0
C147 C 0.6083 0.16178 0.42748 0.0
C148 C 0.70891 0.21504 0.51339 0.0
C149 C 0.60451 0.08862 0.56344 0.0
O150 O 0.63802 0.16708 0.45162 0.0
O151 O 0.58041 0.15152 0.46402 0.0
O152 O 0.66519 0.1714 0.6454 0.0
O153 O 0.61911 0.16917 0.59575 0.0
Co154 Co 0.50266 0.64641 0.71217 0.0
O155 O 0.48041 0.67471 0.70504 0.0
O156 O 0.53612 0.69288 0.67607 0.0
C157 C 0.48151 0.6245 0.81732 0.0
O158 O 0.5345 0.62446 0.71197 0.0
Co159 Co 0.4559 0.56436 0.72562 0.0
O160 O 0.50222 0.56745 0.74459 0.0
C161 C 0.46226 0.59898 0.5928 0.0
C162 C 0.50994 0.69928 0.679 0.0
C163 C 0.53166 0.59464 0.72882 0.0
O164 O 0.48681 0.62853 0.61699 0.0
O165 O 0.44455 0.57117 0.62926 0.0
O166 O 0.50986 0.65546 0.81082 0.0
O167 O 0.46589 0.60965 0.76112 0.0
C168 C 0.62666 0.1657 0.23824 0.0
C169 C 0.59669 0.16537 0.21068 0.0
H170 H 0.6541 0.1653 0.32834 0.0
C171 C 0.572 0.16673 0.2551 0.0
H172 H 0.64635 0.16502 0.20539 0.0
C173 C 0.57628 0.16659 0.32563 0.0
C174 C 0.60555 0.16553 0.35319 0.0
H175 H 0.54866 0.16664 0.23555 0.0
H176 H 0.55627 0.16661 0.35851 0.0
C177 C 0.63117 0.16599 0.30877 0.0
C178 C 0.47675 0.61741 0.40361 0.0
C179 C 0.44735 0.58733 0.37595 0.0
H180 H 0.5043 0.64495 0.49379 0.0
C181 C 0.42134 0.56265 0.42027 0.0
H182 H 0.49707 0.6371 0.37082 0.0
C183 C 0.42561 0.56699 0.49081 0.0
C184 C 0.45577 0.5963 0.51849 0.0
H185 H 0.39825 0.53925 0.40066 0.0
H186 H 0.40564 0.54695 0.52361 0.0
C187 C 0.48082 0.62196 0.47415 0.0
C188 C 0.87525 0.4155 0.65798 0.0
C189 C 0.876 0.44559 0.68566 0.0
H190 H 0.87538 0.38804 0.56779 0.0
C191 C 0.87487 0.47037 0.64135 0.0
H192 H 0.8757 0.39573 0.69075 0.0
C193 C 0.87497 0.46612 0.5708 0.0
C194 C 0.87579 0.43681 0.54311 0.0
H195 H 0.87524 0.49378 0.66099 0.0
H196 H 0.87522 0.48624 0.53803 0.0
C197 C 0.87494 0.41104 0.58743 0.0
C198 C 0.48061 0.86581 0.75395 0.0
C199 C 0.45571 0.86677 0.70955 0.0
H200 H 0.49659 0.86641 0.85733 0.0
C201 C 0.42552 0.866 0.73714 0.0
H202 H 0.50411 0.86622 0.73437 0.0
C203 C 0.42107 0.86581 0.80767 0.0
C204 C 0.44695 0.86682 0.85206 0.0
H205 H 0.40567 0.86634 0.70429 0.0
H206 H 0.39799 0.86623 0.82724 0.0
C207 C 0.47637 0.86605 0.82448 0.0
C208 C 0.57319 0.411 0.97553 0.0
C209 C 0.59818 0.43671 0.01989 0.0
H210 H 0.55693 0.39587 0.87219 0.0
C211 C 0.62833 0.46603 -0.00776 0.0
H212 H 0.54973 0.38799 -0.00485 0.0
C213 C 0.63259 0.4704 0.92171 0.0
C214 C 0.60656 0.44573 0.87737 0.0
H215 H 0.64828 0.4861 0.02506 0.0
H216 H 0.65563 0.49384 0.90212 0.0
C217 C 0.57724 0.41557 0.90499 0.0
C218 C 0.17862 0.61786 0.15768 0.0
C219 C 0.17782 0.58775 0.18531 0.0
H220 H 0.17849 0.64532 0.06753 0.0
C221 C 0.17901 0.563 0.14096 0.0
H222 H 0.17814 0.63762 0.19048 0.0
C223 C 0.17892 0.56726 0.07043 0.0
C224 C 0.17806 0.59654 0.04278 0.0
H225 H 0.17862 0.53958 0.16057 0.0
H226 H 0.17867 0.54713 0.03762 0.0
C227 C 0.17894 0.62232 0.08714 0.0
C228 C 0.50937 0.2724 0.13171 0.0
C229 C 0.54163 0.30254 0.14998 0.0
H230 H 0.48424 0.22043 0.08635 0.0
C231 C 0.57359 0.30346 0.13457 0.0
H232 H 0.48432 0.27106 0.14271 0.0
C233 C 0.57356 0.2753 0.10111 0.0
C234 C 0.54156 0.24501 0.08317 0.0
H235 H 0.59893 0.32634 0.14725 0.0
H236 H 0.59886 0.27717 0.09023 0.0
C237 C 0.50933 0.24357 0.09929 0.0
C238 C 0.31427 0.56302 0.26495 0.0
C239 C 0.31289 0.53111 0.24768 0.0
H240 H 0.28832 0.58827 0.31069 0.0
C241 C 0.28233 0.49893 0.2645 0.0
H242 H 0.33751 0.58829 0.2535 0.0
C243 C 0.25348 0.49893 0.29703 0.0
C244 C 0.25532 0.53109 0.31473 0.0
H245 H 0.28065 0.47393 0.25209 0.0
H246 H 0.22996 0.47392 0.30863 0.0
C247 C 0.2861 0.56301 0.29851 0.0
C248 C 0.7388 0.27544 0.464 0.0
C249 C 0.74036 0.24501 0.48122 0.0
H250 H 0.76455 0.32655 0.41829 0.0
C251 C 0.77101 0.24344 0.46438 0.0
H252 H 0.71549 0.27743 0.47547 0.0
C253 C 0.79978 0.27225 0.43184 0.0
C254 C 0.79777 0.3025 0.41418 0.0
H255 H 0.77283 0.22019 0.47676 0.0
H256 H 0.82336 0.2708 0.4202 0.0
C257 C 0.7669 0.30357 0.43044 0.0
C258 C 0.47961 0.75765 0.59647 0.0
C259 C 0.51163 0.7883 0.58014 0.0
H260 H 0.4542 0.70636 0.64147 0.0
C261 C 0.54385 0.79003 0.59763 0.0
H262 H 0.45431 0.75552 0.58446 0.0
C263 C 0.5438 0.7612 0.63006 0.0
C264 C 0.51151 0.73077 0.64696 0.0
H265 H 0.56895 0.81344 0.58594 0.0
H266 H 0.56884 0.76281 0.6423 0.0
C267 C 0.47955 0.7295 0.62993 0.0
C268 C 0.77103 0.53445 0.76526 0.0
C269 C 0.74057 0.50232 0.74775 0.0
H270 H 0.82329 0.55932 0.80991 0.0
C271 C 0.73929 0.47036 0.76404 0.0
H272 H 0.77264 0.55949 0.7536 0.0
C273 C 0.76743 0.47027 0.79747 0.0
C274 C 0.79809 0.50212 0.81451 0.0
H275 H 0.71613 0.44513 0.75201 0.0
H276 H 0.76528 0.44496 0.80896 0.0
C277 C 0.79986 0.53435 0.79766 0.0
C278 C 0.25323 0.76087 0.9312 0.0
C279 C 0.25531 0.73066 0.91358 0.0
H280 H 0.28007 0.81295 0.97612 0.0
C281 C 0.28619 0.72964 0.92995 0.0
H282 H 0.22963 0.76228 0.91948 0.0
C283 C 0.31424 0.75781 0.96358 0.0
C284 C 0.31261 0.78821 0.98075 0.0
H285 H 0.28859 0.70668 0.91782 0.0
H286 H 0.33757 0.75587 0.97513 0.0
C287 C 0.28195 0.78972 0.96379 0.0
C288 C 0.63345 0.16581 0.77989 0.0
C289 C 0.61705 0.1663 0.71863 0.0
H290 H 0.63163 0.16591 0.88897 0.0
C291 C 0.58449 0.16592 0.72139 0.0
H292 H 0.65846 0.16602 0.77946 0.0
C293 C 0.56913 0.16601 0.78408 0.0
C294 C 0.58593 0.16632 0.84534 0.0
H295 H 0.57112 0.16624 0.675 0.0
H296 H 0.54441 0.16638 0.78451 0.0
C297 C 0.61801 0.16574 0.84258 0.0
C298 C 0.48404 0.62353 0.9452 0.0
C299 C 0.46704 0.60729 0.88394 0.0
H300 H 0.48238 0.62145 0.05428 0.0
C301 C 0.435 0.57472 0.88665 0.0
H302 H 0.50874 0.64854 0.9448 0.0
C303 C 0.41978 0.5592 0.94932 0.0
C304 C 0.43634 0.57587 0.0106 0.0
H305 H 0.42125 0.56146 0.84026 0.0
H306 H 0.39477 0.53449 0.94973 0.0
C307 C 0.46888 0.60794 0.00787 0.0
C308 C 0.87738 0.47407 0.11234 0.0
C309 C 0.87706 0.45731 0.05105 0.0
H310 H 0.877 0.47199 0.22141 0.0
C311 C 0.87757 0.42528 0.05373 0.0
H312 H 0.87707 0.49876 0.11197 0.0
C313 C 0.87739 0.40982 0.1164 0.0
C314 C 0.87683 0.42613 0.17768 0.0
H315 H 0.87741 0.41171 0.00732 0.0
H316 H 0.8771 0.38483 0.11677 0.0
C317 C 0.87734 0.45867 0.175 0.0
C318 C 0.48434 0.86843 0.28282 0.0
C319 C 0.46748 0.86796 0.34412 0.0
H320 H 0.48234 0.86824 0.17375 0.0
C321 C 0.43534 0.86842 0.34144 0.0
H322 H 0.50912 0.86817 0.28319 0.0
C323 C 0.41987 0.86831 0.27877 0.0
C324 C 0.43628 0.86789 0.21747 0.0
H325 H 0.42169 0.86814 0.38785 0.0
H326 H 0.39479 0.86796 0.2784 0.0
C327 C 0.46894 0.86847 0.22016 0.0
C328 C 0.58395 0.42606 0.50931 0.0
C329 C 0.61653 0.4581 0.51203 0.0
H330 H 0.54403 0.38549 0.44625 0.0
C331 C 0.63303 0.47479 0.45074 0.0
H332 H 0.57048 0.41255 0.55572 0.0
C333 C 0.61775 0.45929 0.38807 0.0
C334 C 0.58571 0.42672 0.38537 0.0
H335 H 0.65806 0.49947 0.45113 0.0
H336 H 0.63149 0.47254 0.34168 0.0
C337 C 0.56873 0.4105 0.44664 0.0
C338 C 0.17537 0.55877 0.61197 0.0
C339 C 0.17568 0.57551 0.5507 0.0
H340 H 0.17581 0.56088 0.72104 0.0
C341 C 0.17512 0.60751 0.55342 0.0
H342 H 0.17572 0.5341 0.61157 0.0
C343 C 0.1753 0.62299 0.61611 0.0
C344 C 0.17593 0.60671 0.67737 0.0
H345 H 0.17526 0.62107 0.50702 0.0
H346 H 0.17558 0.64797 0.61651 0.0
C347 C 0.17543 0.57418 0.67465 0.0
C348 C 0.47724 0.02759 0.96148 0.0
C349 C 0.49063 0.05294 0.0137 0.0
H350 H 0.45105 0.97236 0.93661 0.0
C351 C 0.48267 0.04189 0.08194 0.0
H352 H 0.48366 0.03558 0.90866 0.0
C353 C 0.46517 1.00582 0.09805 0.0
C354 C 0.45435 0.98049 0.04593 0.0
H355 H 0.49341 0.06107 0.123 0.0
H356 H 0.4627 0.99784 0.15104 0.0
C357 C 0.45862 0.99152 0.97754 0.0
C358 C 0.47743 0.45611 0.2646 0.0
C359 C 0.49207 0.44537 0.21251 0.0
H360 H 0.45014 0.48419 0.2895 0.0
C361 C 0.48544 0.44977 0.14411 0.0
H362 H 0.48284 0.45353 0.31761 0.0
C363 C 0.46787 0.46833 0.12802 0.0
C364 C 0.45569 0.48157 0.18021 0.0
H365 H 0.49716 0.44226 0.10323 0.0
H366 H 0.46633 0.47478 0.0752 0.0
C367 C 0.45874 0.47357 0.24844 0.0
C368 C 0.03752 0.4674 0.43118 0.0
C369 C 0.06276 0.48174 0.37881 0.0
H370 H 0.98219 0.44033 0.45663 0.0
C371 C 0.05153 0.4748 0.31054 0.0
H372 H 0.04566 0.47304 0.48408 0.0
C373 C 1.01533 0.45722 0.2948 0.0
C374 C 0.99005 0.44533 0.34725 0.0
H375 H 0.07064 0.48629 0.26944 0.0
H376 H 1.00717 0.45543 0.24203 0.0
C377 C 1.00131 0.44871 0.4154 0.0
C378 C 0.56877 0.99145 0.585 0.0
C379 C 0.56207 0.98056 0.51651 0.0
H380 H 0.58789 0.03538 0.65427 0.0
C381 C 0.57671 1.00598 0.46462 0.0
H382 H 0.55706 0.97221 0.62574 0.0
C383 C 0.59541 0.04202 0.48105 0.0
C384 C 0.59848 0.05295 0.54938 0.0
H385 H 0.57125 0.99811 0.41156 0.0
H386 H 0.60399 0.06129 0.44015 0.0
C387 C 0.58635 0.02749 0.60138 0.0
C388 C 0.58698 0.56656 0.63172 0.0
C389 C 0.59766 0.55206 0.68415 0.0
H390 H 0.55887 0.59371 0.60607 0.0
C391 C 0.59317 0.55887 0.7524 0.0
H392 H 0.58963 0.56101 0.57882 0.0
C393 C 0.57455 0.57645 0.768 0.0
C394 C 0.56135 0.58846 0.71546 0.0
H395 H 0.60062 0.54727 0.79354 0.0
H396 H 0.56801 0.57812 0.82071 0.0
C397 C 0.56947 0.58524 0.64738 0.0
C398 C 0.05194 0.58326 0.91756 0.0
C399 C 0.06311 0.58749 0.84924 0.0
H400 H 1.00767 0.55835 -0.01375 0.0
C401 C 0.03779 0.57651 0.79697 0.0
H402 H 0.07111 0.59094 0.95859 0.0
C403 C 1.0016 0.559 0.8129 0.0
C404 C 0.99043 0.55121 0.88111 0.0
H405 H 0.04588 0.57895 0.74404 0.0
H406 H 0.98243 0.54821 0.77176 0.0
C407 C 1.01576 0.56465 0.93344 0.0
loop_
_geom_bond_atom_site_label_1
_geom_bond_atom_site_label_2
_geom_bond_distance
_geom_bond_site_symmetry_2
_ccdc_geom_bond_type
Co0 O1 2.216 . S
Co0 O2 2.091 . S
Co0 O4 2.004 . S
Co0 O10 2.021 . S
Co0 O12 2.137 1_554 S
Co0 O13 2.244 1_554 S
O1 Co0 2.216 . S
O1 C8 1.247 . S
O2 Co0 2.091 . S
O2 C8 1.261 . S
C3 O12 1.247 . S
C3 O13 1.272 . S
O4 Co0 2.004 . S
O4 C9 1.259 . S
Co5 O6 2.061 . S
Co5 O11 2.052 . S
Co5 O13 2.135 1_554 S
O6 Co5 2.061 . S
O6 C9 1.235 . S
C7 O10 1.238 . S
C7 O11 1.241 . S
C8 O1 1.247 . S
C8 O2 1.261 . S
C9 O4 1.259 . S
C9 O6 1.235 . S
O10 Co0 2.021 . S
O10 C7 1.238 . S
O11 Co5 2.052 . S
O11 C7 1.241 . S
O12 Co0 2.137 1_556 S
O12 C3 1.247 . S
O13 Co0 2.244 1_556 S
O13 C3 1.272 . S
O13 Co5 2.135 1_556 S
Co14 O15 2.216 . S
Co14 O16 2.091 . S
Co14 O18 2.004 . S
Co14 O24 2.021 . S
Co14 O26 2.137 . S
Co14 O27 2.244 . S
O15 Co14 2.216 . S
O15 C22 1.247 . S
O16 Co14 2.091 . S
O16 C22 1.261 . S
C17 O26 1.247 . S
C17 O27 1.272 . S
O18 Co14 2.004 . S
O18 C23 1.259 . S
Co19 O20 2.061 . S
Co19 O25 2.052 . S
Co19 O27 2.135 . S
O20 Co19 2.061 . S
O20 C23 1.235 . S
C21 O24 1.238 . S
C21 O25 1.241 . S
C22 O15 1.247 . S
C22 O16 1.261 . S
C23 O18 1.259 . S
C23 O20 1.235 . S
O24 Co14 2.021 . S
O24 C21 1.238 . S
O25 Co19 2.052 . S
O25 C21 1.241 . S
O26 Co14 2.137 . S
O26 C17 1.247 . S
O27 Co14 2.244 . S
O27 C17 1.272 . S
O27 Co19 2.135 . S
Co28 O29 2.216 . S
Co28 O30 2.091 . S
Co28 O32 2.004 . S
Co28 O38 2.021 . S
Co28 O40 2.137 . S
Co28 O41 2.244 . S
O29 Co28 2.216 . S
O29 C36 1.247 . S
O30 Co28 2.091 . S
O30 C36 1.261 . S
C31 O40 1.247 . S
C31 O41 1.272 . S
O32 Co28 2.004 . S
O32 C37 1.259 . S
Co33 O34 2.061 . S
Co33 O39 2.052 . S
Co33 O41 2.135 . S
O34 Co33 2.061 . S
O34 C37 1.235 . S
C35 O38 1.238 . S
C35 O39 1.241 . S
C36 O29 1.247 . S
C36 O30 1.261 . S
C37 O32 1.259 . S
C37 O34 1.235 . S
O38 Co28 2.021 . S
O38 C35 1.238 . S
O39 Co33 2.052 . S
O39 C35 1.241 . S
O40 Co28 2.137 . S
O40 C31 1.247 . S
O41 Co28 2.244 . S
O41 C31 1.272 . S
O41 Co33 2.135 . S
Co42 O43 2.216 . S
Co42 O44 2.091 . S
Co42 O46 2.004 . S
Co42 O52 2.021 . S
Co42 O54 2.137 . S
Co42 O55 2.244 . S
O43 Co42 2.216 . S
O43 C50 1.247 . S
O44 Co42 2.091 . S
O44 C50 1.261 . S
C45 O54 1.247 . S
C45 O55 1.272 . S
O46 Co42 2.004 . S
O46 C51 1.259 . S
Co47 O48 2.061 . S
Co47 O53 2.052 . S
Co47 O55 2.135 . S
O48 Co47 2.061 . S
O48 C51 1.235 . S
C49 O52 1.238 . S
C49 O53 1.241 . S
C50 O43 1.247 . S
C50 O44 1.261 . S
C51 O46 1.259 . S
C51 O48 1.235 . S
O52 Co42 2.021 . S
O52 C49 1.238 . S
O53 Co47 2.052 . S
O53 C49 1.241 . S
O54 Co42 2.137 . S
O54 C45 1.247 . S
O55 Co42 2.244 . S
O55 C45 1.272 . S
O55 Co47 2.135 . S
Co56 O57 2.216 . S
Co56 O58 2.091 . S
Co56 O60 2.004 . S
Co56 O66 2.021 . S
Co56 O68 2.137 . S
Co56 O69 2.244 . S
O57 Co56 2.216 . S
O57 C64 1.247 . S
O58 Co56 2.091 . S
O58 C64 1.261 . S
C59 O68 1.247 . S
C59 O69 1.272 . S
O60 Co56 2.004 . S
O60 C65 1.259 . S
Co61 O62 2.061 . S
Co61 O67 2.052 . S
Co61 O69 2.135 . S
O62 Co61 2.061 . S
O62 C65 1.235 . S
C63 O66 1.238 . S
C63 O67 1.241 . S
C64 O57 1.247 . S
C64 O58 1.261 . S
C65 O60 1.259 . S
C65 O62 1.235 . S
O66 Co56 2.021 . S
O66 C63 1.238 . S
O67 Co61 2.052 . S
O67 C63 1.241 . S
O68 Co56 2.137 . S
O68 C59 1.247 . S
O69 Co56 2.244 . S
O69 C59 1.272 . S
O69 Co61 2.135 . S
Co70 O71 2.216 . S
Co70 O72 2.091 . S
Co70 O74 2.004 . S
Co70 O80 2.021 . S
Co70 O82 2.137 . S
Co70 O83 2.244 . S
O71 Co70 2.216 . S
O71 C78 1.247 . S
O72 Co70 2.091 . S
O72 C78 1.261 . S
C73 O82 1.247 . S
C73 O83 1.272 . S
O74 Co70 2.004 . S
O74 C79 1.259 . S
Co75 O76 2.061 . S
Co75 O81 2.052 . S
Co75 O83 2.135 . S
O76 Co75 2.061 . S
O76 C79 1.235 . S
C77 O80 1.238 1_554 S
C77 O81 1.241 1_554 S
C78 O71 1.247 . S
C78 O72 1.261 . S
C79 O74 1.259 . S
C79 O76 1.235 . S
O80 Co70 2.021 . S
O80 C77 1.238 1_556 S
O81 Co75 2.052 . S
O81 C77 1.241 1_556 S
O82 Co70 2.137 . S
O82 C73 1.247 . S
O83 Co70 2.244 . S
O83 C73 1.272 . S
O83 Co75 2.135 . S
Co84 O85 2.216 . S
Co84 O86 2.091 . S
Co84 O88 2.004 . S
Co84 O94 2.021 . S
Co84 O96 2.137 . S
Co84 O97 2.244 . S
O85 Co84 2.216 . S
O85 C92 1.247 . S
O86 Co84 2.091 . S
O86 C92 1.261 . S
C87 O96 1.247 . S
C87 O97 1.272 . S
O88 Co84 2.004 . S
O88 C93 1.259 . S
Co89 O90 2.061 . S
Co89 O95 2.052 . S
Co89 O97 2.135 . S
O90 Co89 2.061 . S
O90 C93 1.235 . S
C91 O94 1.238 . S
C91 O95 1.241 . S
C92 O85 1.247 . S
C92 O86 1.261 . S
C93 O88 1.259 . S
C93 O90 1.235 . S
O94 Co84 2.021 . S
O94 C91 1.238 . S
O95 Co89 2.052 . S
O95 C91 1.241 . S
O96 Co84 2.137 . S
O96 C87 1.247 . S
O97 Co84 2.244 . S
O97 C87 1.272 . S
O97 Co89 2.135 . S
Co98 O99 2.216 . S
Co98 O100 2.091 . S
Co98 O102 2.004 . S
Co98 O108 2.021 1_554 S
Co98 O110 2.137 . S
Co98 O111 2.244 . S
O99 Co98 2.216 . S
O99 C106 1.247 . S
O100 Co98 2.091 . S
O100 C106 1.261 . S
C101 O110 1.247 . S
C101 O111 1.272 . S
O102 Co98 2.004 . S
O102 C107 1.259 . S
Co103 O104 2.061 . S
Co103 O109 2.052 1_554 S
Co103 O111 2.135 . S
O104 Co103 2.061 . S
O104 C107 1.235 . S
C105 O108 1.238 . S
C105 O109 1.241 . S
C106 O99 1.247 . S
C106 O100 1.261 . S
C107 O102 1.259 . S
C107 O104 1.235 . S
O108 Co98 2.021 1_556 S
O108 C105 1.238 . S
O109 Co103 2.052 1_556 S
O109 C105 1.241 . S
O110 Co98 2.137 . S
O110 C101 1.247 . S
O111 Co98 2.244 . S
O111 C101 1.272 . S
O111 Co103 2.135 . S
Co112 O113 2.216 . S
Co112 O114 2.091 . S
Co112 O116 2.004 . S
Co112 O122 2.021 . S
Co112 O124 2.137 . S
Co112 O125 2.244 . S
O113 Co112 2.216 . S
O113 C120 1.247 . S
O114 Co112 2.091 . S
O114 C120 1.261 . S
C115 O124 1.247 . S
C115 O125 1.272 . S
O116 Co112 2.004 . S
O116 C121 1.259 . S
Co117 O118 2.061 . S
Co117 O123 2.052 . S
Co117 O125 2.135 . S
O118 Co117 2.061 . S
O118 C121 1.235 . S
C119 O122 1.238 . S
C119 O123 1.241 . S
C120 O113 1.247 . S
C120 O114 1.261 . S
C121 O116 1.259 . S
C121 O118 1.235 . S
O122 Co112 2.021 . S
O122 C119 1.238 . S
O123 Co117 2.052 . S
O123 C119 1.241 . S
O124 Co112 2.137 . S
O124 C115 1.247 . S
O125 Co112 2.244 . S
O125 C115 1.272 . S
O125 Co117 2.135 . S
Co126 O127 2.216 . S
Co126 O128 2.091 . S
Co126 O130 2.004 . S
Co126 O136 2.021 . S
Co126 O138 2.137 . S
Co126 O139 2.244 . S
O127 Co126 2.216 . S
O127 C134 1.247 . S
O128 Co126 2.091 . S
O128 C134 1.261 . S
C129 O138 1.247 . S
C129 O139 1.272 . S
O130 Co126 2.004 . S
O130 C135 1.259 . S
Co131 O132 2.061 . S
Co131 O137 2.052 . S
Co131 O139 2.135 . S
O132 Co131 2.061 . S
O132 C135 1.235 . S
C133 O136 1.238 . S
C133 O137 1.241 . S
C134 O127 1.247 . S
C134 O128 1.261 . S
C135 O130 1.259 . S
C135 O132 1.235 . S
O136 Co126 2.021 . S
O136 C133 1.238 . S
O137 Co131 2.052 . S
O137 C133 1.241 . S
O138 Co126 2.137 . S
O138 C129 1.247 . S
O139 Co126 2.244 . S
O139 C129 1.272 . S
O139 Co131 2.135 . S
Co140 O141 2.216 . S
Co140 O142 2.091 . S
Co140 O144 2.004 . S
Co140 O150 2.021 . S
Co140 O152 2.137 . S
Co140 O153 2.244 . S
O141 Co140 2.216 . S
O141 C148 1.247 . S
O142 Co140 2.091 . S
O142 C148 1.261 . S
C143 O152 1.247 . S
C143 O153 1.272 . S
O144 Co140 2.004 . S
O144 C149 1.259 . S
Co145 O146 2.061 . S
Co145 O151 2.052 . S
Co145 O153 2.135 . S
O146 Co145 2.061 . S
O146 C149 1.235 . S
C147 O150 1.238 . S
C147 O151 1.241 . S
C148 O141 1.247 . S
C148 O142 1.261 . S
C149 O144 1.259 . S
C149 O146 1.235 . S
O150 Co140 2.021 . S
O150 C147 1.238 . S
O151 Co145 2.052 . S
O151 C147 1.241 . S
O152 Co140 2.137 . S
O152 C143 1.247 . S
O153 Co140 2.244 . S
O153 C143 1.272 . S
O153 Co145 2.135 . S
Co154 O155 2.216 . S
Co154 O156 2.091 . S
Co154 O158 2.004 . S
Co154 O164 2.021 . S
Co154 O166 2.137 . S
Co154 O167 2.244 . S
O155 Co154 2.216 . S
O155 C162 1.247 . S
O156 Co154 2.091 . S
O156 C162 1.261 . S
C157 O166 1.247 . S
C157 O167 1.272 . S
O158 Co154 2.004 . S
O158 C163 1.259 . S
Co159 O160 2.061 . S
Co159 O165 2.052 . S
Co159 O167 2.135 . S
O160 Co159 2.061 . S
O160 C163 1.235 . S
C161 O164 1.238 . S
C161 O165 1.241 . S
C162 O155 1.247 . S
C162 O156 1.261 . S
C163 O158 1.259 . S
C163 O160 1.235 . S
O164 Co154 2.021 . S
O164 C161 1.238 . S
O165 Co159 2.052 . S
O165 C161 1.241 . S
O166 Co154 2.137 . S
O166 C157 1.247 . S
O167 Co154 2.244 . S
O167 C157 1.272 . S
O167 Co159 2.135 . S
C168 C169 1.387 . S
C168 H172 0.950 . S
C168 C177 1.390 . S
C169 C168 1.387 . S
C169 C171 1.387 . S
H170 C177 0.950 . S
C171 C169 1.387 . S
C171 C173 1.390 . S
C171 H175 0.950 . S
H172 C168 0.950 . S
C173 C171 1.390 . S
C173 C174 1.387 . S
C173 H176 0.950 . S
C174 C173 1.387 . S
C174 C177 1.387 . S
H175 C171 0.950 . S
H176 C173 0.950 . S
C177 C168 1.390 . S
C177 H170 0.950 . S
C177 C174 1.387 . S
C178 C179 1.387 . S
C178 H182 0.950 . S
C178 C187 1.390 . S
C179 C178 1.387 . S
C179 C181 1.387 . S
H180 C187 0.950 . S
C181 C179 1.387 . S
C181 C183 1.390 . S
C181 H185 0.950 . S
H182 C178 0.950 . S
C183 C181 1.390 . S
C183 C184 1.387 . S
C183 H186 0.950 . S
C184 C183 1.387 . S
C184 C187 1.387 . S
H185 C181 0.950 . S
H186 C183 0.950 . S
C187 C178 1.390 . S
C187 H180 0.950 . S
C187 C184 1.387 . S
C188 C189 1.387 . S
C188 H192 0.950 . S
C188 C197 1.390 . S
C189 C188 1.387 . S
C189 C191 1.387 . S
H190 C197 0.950 . S
C191 C189 1.387 . S
C191 C193 1.390 . S
C191 H195 0.950 . S
H192 C188 0.950 . S
C193 C191 1.390 . S
C193 C194 1.387 . S
C193 H196 0.950 . S
C194 C193 1.387 . S
C194 C197 1.387 . S
H195 C191 0.950 . S
H196 C193 0.950 . S
C197 C188 1.390 . S
C197 H190 0.950 . S
C197 C194 1.387 . S
C198 C199 1.387 . S
C198 H202 0.950 . S
C198 C207 1.390 . S
C199 C198 1.387 . S
C199 C201 1.387 . S
H200 C207 0.950 . S
C201 C199 1.387 . S
C201 C203 1.390 . S
C201 H205 0.950 . S
H202 C198 0.950 . S
C203 C201 1.390 . S
C203 C204 1.387 . S
C203 H206 0.950 . S
C204 C203 1.387 . S
C204 C207 1.387 . S
H205 C201 0.950 . S
H206 C203 0.950 . S
C207 C198 1.390 . S
C207 H200 0.950 . S
C207 C204 1.387 . S
C208 C209 1.387 1_556 S
C208 H212 0.950 . S
C208 C217 1.390 . S
C209 C208 1.387 1_554 S
C209 C211 1.387 . S
H210 C217 0.950 . S
C211 C209 1.387 . S
C211 C213 1.390 1_554 S
C211 H215 0.950 . S
H212 C208 0.950 . S
C213 C211 1.390 1_556 S
C213 C214 1.387 . S
C213 H216 0.950 . S
C214 C213 1.387 . S
C214 C217 1.387 . S
H215 C211 0.950 . S
H216 C213 0.950 . S
C217 C208 1.390 . S
C217 H210 0.950 . S
C217 C214 1.387 . S
C218 C219 1.387 . S
C218 H222 0.950 . S
C218 C227 1.390 . S
C219 C218 1.387 . S
C219 C221 1.387 . S
H220 C227 0.950 . S
C221 C219 1.387 . S
C221 C223 1.390 . S
C221 H225 0.950 . S
H222 C218 0.950 . S
C223 C221 1.390 . S
C223 C224 1.387 . S
C223 H226 0.950 . S
C224 C223 1.387 . S
C224 C227 1.387 . S
H225 C221 0.950 . S
H226 C223 0.950 . S
C227 C218 1.390 . S
C227 H220 0.950 . S
C227 C224 1.387 . S
C228 C229 1.387 . S
C228 H232 0.950 . S
C228 C237 1.390 . S
C229 C228 1.387 . S
C229 C231 1.387 . S
H230 C237 0.950 . S
C231 C229 1.387 . S
C231 C233 1.390 . S
C231 H235 0.950 . S
H232 C228 0.950 . S
C233 C231 1.390 . S
C233 C234 1.387 . S
C233 H236 0.950 . S
C234 C233 1.387 . S
C234 C237 1.387 . S
H235 C231 0.950 . S
H236 C233 0.950 . S
C237 C228 1.390 . S
C237 H230 0.950 . S
C237 C234 1.387 . S
C238 C239 1.387 . S
C238 H242 0.950 . S
C238 C247 1.390 . S
C239 C238 1.387 . S
C239 C241 1.387 . S
H240 C247 0.950 . S
C241 C239 1.387 . S
C241 C243 1.390 . S
C241 H245 0.950 . S
H242 C238 0.950 . S
C243 C241 1.390 . S
C243 C244 1.387 . S
C243 H246 0.950 . S
C244 C243 1.387 . S
C244 C247 1.387 . S
H245 C241 0.950 . S
H246 C243 0.950 . S
C247 C238 1.390 . S
C247 H240 0.950 . S
C247 C244 1.387 . S
C248 C249 1.387 . S
C248 H252 0.950 . S
C248 C257 1.390 . S
C249 C248 1.387 . S
C249 C251 1.387 . S
H250 C257 0.950 . S
C251 C249 1.387 . S
C251 C253 1.390 . S
C251 H255 0.950 . S
H252 C248 0.950 . S
C253 C251 1.390 . S
C253 C254 1.387 . S
C253 H256 0.950 . S
C254 C253 1.387 . S
C254 C257 1.387 . S
H255 C251 0.950 . S
H256 C253 0.950 . S
C257 C248 1.390 . S
C257 H250 0.950 . S
C257 C254 1.387 . S
C258 C259 1.387 . S
C258 H262 0.950 . S
C258 C267 1.390 . S
C259 C258 1.387 . S
C259 C261 1.387 . S
H260 C267 0.950 . S
C261 C259 1.387 . S
C261 C263 1.390 . S
C261 H265 0.950 . S
H262 C258 0.950 . S
C263 C261 1.390 . S
C263 C264 1.387 . S
C263 H266 0.950 . S
C264 C263 1.387 . S
C264 C267 1.387 . S
H265 C261 0.950 . S
H266 C263 0.950 . S
C267 C258 1.390 . S
C267 H260 0.950 . S
C267 C264 1.387 . S
C268 C269 1.387 . S
C268 H272 0.950 . S
C268 C277 1.390 . S
C269 C268 1.387 . S
C269 C271 1.387 . S
H270 C277 0.950 . S
C271 C269 1.387 . S
C271 C273 1.390 . S
C271 H275 0.950 . S
H272 C268 0.950 . S
C273 C271 1.390 . S
C273 C274 1.387 . S
C273 H276 0.950 . S
C274 C273 1.387 . S
C274 C277 1.387 . S
H275 C271 0.950 . S
H276 C273 0.950 . S
C277 C268 1.390 . S
C277 H270 0.950 . S
C277 C274 1.387 . S
C278 C279 1.387 . S
C278 H282 0.950 1_556 S
C278 C287 1.390 1_556 S
C279 C278 1.387 . S
C279 C281 1.387 . S
H280 C287 0.950 . S
C281 C279 1.387 . S
C281 C283 1.390 . S
C281 H285 0.950 . S
H282 C278 0.950 1_554 S
C283 C281 1.390 . S
C283 C284 1.387 1_556 S
C283 H286 0.950 . S
C284 C283 1.387 1_554 S
C284 C287 1.387 . S
H285 C281 0.950 . S
H286 C283 0.950 . S
C287 C278 1.390 1_554 S
C287 H280 0.950 . S
C287 C284 1.387 . S
C288 C289 1.387 . S
C288 H292 0.950 . S
C288 C297 1.390 . S
C289 C288 1.387 . S
C289 C291 1.387 . S
H290 C297 0.950 . S
C291 C289 1.387 . S
C291 C293 1.390 . S
C291 H295 0.950 . S
H292 C288 0.950 . S
C293 C291 1.390 . S
C293 C294 1.387 . S
C293 H296 0.950 . S
C294 C293 1.387 . S
C294 C297 1.387 . S
H295 C291 0.950 . S
H296 C293 0.950 . S
C297 C288 1.390 . S
C297 H290 0.950 . S
C297 C294 1.387 . S
C298 C299 1.387 . S
C298 H302 0.950 . S
C298 C307 1.390 1_556 S
C299 C298 1.387 . S
C299 C301 1.387 . S
H300 C307 0.950 . S
C301 C299 1.387 . S
C301 C303 1.390 . S
C301 H305 0.950 . S
H302 C298 0.950 . S
C303 C301 1.390 . S
C303 C304 1.387 1_556 S
C303 H306 0.950 . S
C304 C303 1.387 1_554 S
C304 C307 1.387 . S
H305 C301 0.950 . S
H306 C303 0.950 . S
C307 C298 1.390 1_554 S
C307 H300 0.950 . S
C307 C304 1.387 . S
C308 C309 1.387 . S
C308 H312 0.950 . S
C308 C317 1.390 . S
C309 C308 1.387 . S
C309 C311 1.387 . S
H310 C317 0.950 . S
C311 C309 1.387 . S
C311 C313 1.390 . S
C311 H315 0.950 . S
H312 C308 0.950 . S
C313 C311 1.390 . S
C313 C314 1.387 . S
C313 H316 0.950 . S
C314 C313 1.387 . S
C314 C317 1.387 . S
H315 C311 0.950 . S
H316 C313 0.950 . S
C317 C308 1.390 . S
C317 H310 0.950 . S
C317 C314 1.387 . S
C318 C319 1.387 . S
C318 H322 0.950 . S
C318 C327 1.390 . S
C319 C318 1.387 . S
C319 C321 1.387 . S
H320 C327 0.950 . S
C321 C319 1.387 . S
C321 C323 1.390 . S
C321 H325 0.950 . S
H322 C318 0.950 . S
C323 C321 1.390 . S
C323 C324 1.387 . S
C323 H326 0.950 . S
C324 C323 1.387 . S
C324 C327 1.387 . S
H325 C321 0.950 . S
H326 C323 0.950 . S
C327 C318 1.390 . S
C327 H320 0.950 . S
C327 C324 1.387 . S
C328 C329 1.387 . S
C328 H332 0.950 . S
C328 C337 1.390 . S
C329 C328 1.387 . S
C329 C331 1.387 . S
H330 C337 0.950 . S
C331 C329 1.387 . S
C331 C333 1.390 . S
C331 H335 0.950 . S
H332 C328 0.950 . S
C333 C331 1.390 . S
C333 C334 1.387 . S
C333 H336 0.950 . S
C334 C333 1.387 . S
C334 C337 1.387 . S
H335 C331 0.950 . S
H336 C333 0.950 . S
C337 C328 1.390 . S
C337 H330 0.950 . S
C337 C334 1.387 . S
C338 C339 1.387 . S
C338 H342 0.950 . S
C338 C347 1.390 . S
C339 C338 1.387 . S
C339 C341 1.387 . S
H340 C347 0.950 . S
C341 C339 1.387 . S
C341 C343 1.390 . S
C341 H345 0.950 . S
H342 C338 0.950 . S
C343 C341 1.390 . S
C343 C344 1.387 . S
C343 H346 0.950 . S
C344 C343 1.387 . S
C344 C347 1.387 . S
H345 C341 0.950 . S
H346 C343 0.950 . S
C347 C338 1.390 . S
C347 H340 0.950 . S
C347 C344 1.387 . S
C348 C349 1.387 1_556 S
C348 H352 0.950 . S
C348 C357 1.390 1_545 S
C349 C348 1.387 1_554 S
C349 C351 1.387 . S
H350 C357 0.950 . S
C351 C349 1.387 . S
C351 C353 1.390 1_545 S
C351 H355 0.950 . S
H352 C348 0.950 . S
C353 C351 1.390 1_565 S
C353 C354 1.387 . S
C353 H356 0.950 . S
C354 C353 1.387 . S
C354 C357 1.387 1_554 S
H355 C351 0.950 . S
H356 C353 0.950 . S
C357 C348 1.390 1_565 S
C357 H350 0.950 . S
C357 C354 1.387 1_556 S
C358 C359 1.387 . S
C358 H362 0.950 . S
C358 C367 1.390 . S
C359 C358 1.387 . S
C359 C361 1.387 . S
H360 C367 0.950 . S
C361 C359 1.387 . S
C361 C363 1.390 . S
C361 H365 0.950 . S
H362 C358 0.950 . S
C363 C361 1.390 . S
C363 C364 1.387 . S
C363 H366 0.950 . S
C364 C363 1.387 . S
C364 C367 1.387 . S
H365 C361 0.950 . S
H366 C363 0.950 . S
C367 C358 1.390 . S
C367 H360 0.950 . S
C367 C364 1.387 . S
C368 C369 1.387 . S
C368 H372 0.950 . S
C368 C377 1.390 1_455 S
C369 C368 1.387 . S
C369 C371 1.387 . S
H370 C377 0.950 . S
C371 C369 1.387 . S
C371 C373 1.390 1_455 S
C371 H375 0.950 . S
H372 C368 0.950 . S
C373 C371 1.390 1_655 S
C373 C374 1.387 . S
C373 H376 0.950 . S
C374 C373 1.387 . S
C374 C377 1.387 . S
H375 C371 0.950 . S
H376 C373 0.950 . S
C377 C368 1.390 1_655 S
C377 H370 0.950 . S
C377 C374 1.387 . S
C378 C379 1.387 . S
C378 H382 0.950 . S
C378 C387 1.390 1_565 S
C379 C378 1.387 . S
C379 C381 1.387 . S
H380 C387 0.950 . S
C381 C379 1.387 . S
C381 C383 1.390 1_565 S
C381 H385 0.950 . S
H382 C378 0.950 . S
C383 C381 1.390 1_545 S
C383 C384 1.387 . S
C383 H386 0.950 . S
C384 C383 1.387 . S
C384 C387 1.387 . S
H385 C381 0.950 . S
H386 C383 0.950 . S
C387 C378 1.390 1_545 S
C387 H380 0.950 . S
C387 C384 1.387 . S
C388 C389 1.387 . S
C388 H392 0.950 . S
C388 C397 1.390 . S
C389 C388 1.387 . S
C389 C391 1.387 . S
H390 C397 0.950 . S
C391 C389 1.387 . S
C391 C393 1.390 . S
C391 H395 0.950 . S
H392 C388 0.950 . S
C393 C391 1.390 . S
C393 C394 1.387 . S
C393 H396 0.950 . S
C394 C393 1.387 . S
C394 C397 1.387 . S
H395 C391 0.950 . S
H396 C393 0.950 . S
C397 C388 1.390 . S
C397 H390 0.950 . S
C397 C394 1.387 . S
C398 C399 1.387 . S
C398 H402 0.950 . S
C398 C407 1.390 1_455 S
C399 C398 1.387 . S
C399 C401 1.387 . S
H400 C407 0.950 . S
C401 C399 1.387 . S
C401 C403 1.390 1_455 S
C401 H405 0.950 . S
H402 C398 0.950 . S
C403 C401 1.390 1_655 S
C403 C404 1.387 . S
C403 H406 0.950 . S
C404 C403 1.387 . S
C404 C407 1.387 . S
H405 C401 0.950 . S
H406 C403 0.950 . S
C407 C398 1.390 1_655 S
C407 H400 0.950 . S
C407 C404 1.387 . S
C169 C7 1.196 . S
C174 C147 1.196 . S
C179 C21 1.196 . S
C184 C161 1.197 . S
C189 C91 1.195 . S
C194 C35 1.197 . S
C199 C49 1.195 . S
C204 C105 1.195 . S
C209 C119 1.195 . S
C214 C63 1.194 . S
C219 C133 1.194 . S
C224 C77 1.196 . S
C229 C120 1.442 . S
C234 C8 1.441 . S
C239 C22 1.441 . S
C244 C134 1.441 . S
C249 C148 1.441 . S
C254 C36 1.441 . S
C259 C50 1.440 . S
C264 C162 1.441 . S
C269 C64 1.443 . S
C274 C92 1.443 . S
C279 C78 1.442 . S
C284 C106 1.442 . S
C289 C143 1.606 . S
C294 C3 1.606 . S
C299 C157 1.606 . S
C304 C17 1.606 . S
C309 C87 1.606 1_554 S
C314 C31 1.606 . S
C319 C45 1.606 . S
C324 C101 1.606 . S
C329 C59 1.606 . S
C334 C115 1.606 . S
C339 C129 1.606 . S
C344 C73 1.606 . S
C349 C9 1.377 . S
C354 C107 1.374 . S
C359 C121 1.377 . S
C364 C23 1.375 . S
C369 C135 1.377 . S
C374 C37 1.374 . S
C379 C51 1.374 . S
C384 C149 1.377 . S
C389 C65 1.377 . S
C394 C163 1.375 . S
C399 C79 1.375 . S
C404 C93 1.377 . S
