# Generated by pormake.
# Topology umr, (4)-cn, num edge types: 1
# Building blocks:
#     Node 0, Type 0, BuildingBlock: QUQFOY_clean_sbu_1, # of connection points: 4
#     Node 1, Type 0, BuildingBlock: QUQFOY_clean_sbu_1, # of connection points: 4
#     Node 2, Type 0, BuildingBlock: QUQFOY_clean_sbu_1, # of connection points: 4
#     Node 3, Type 0, BuildingBlock: QUQFOY_clean_sbu_1, # of connection points: 4
#     Node 4, Type 0, BuildingBlock: QUQFOY_clean_sbu_1, # of connection points: 4
#     Node 5, Type 0, BuildingBlock: QUQFOY_clean_sbu_1, # of connection points: 4
#     Node 6, Type 0, BuildingBlock: QUQFOY_clean_sbu_1, # of connection points: 4
#     Node 7, Type 0, BuildingBlock: QUQFOY_clean_sbu_1, # of connection points: 4
#     Node 8, Type 0, BuildingBlock: QUQFOY_clean_sbu_1, # of connection points: 4
#     Node 9, Type 0, BuildingBlock: QUQFOY_clean_sbu_1, # of connection points: 4
#     Node 10, Type 0, BuildingBlock: QUQFOY_clean_sbu_1, # of connection points: 4
#     Node 11, Type 0, BuildingBlock: QUQFOY_clean_sbu_1, # of connection points: 4
#     Node 12, Type 0, BuildingBlock: QUQFOY_clean_sbu_1, # of connection points: 4
#     Node 13, Type 0, BuildingBlock: QUQFOY_clean_sbu_1, # of connection points: 4
#     Node 14, Type 0, BuildingBlock: QUQFOY_clean_sbu_1, # of connection points: 4
#     Node 15, Type 0, BuildingBlock: QUQFOY_clean_sbu_1, # of connection points: 4
#     Node 16, Type 0, BuildingBlock: QUQFOY_clean_sbu_1, # of connection points: 4
#     Node 17, Type 0, BuildingBlock: QUQFOY_clean_sbu_1, # of connection points: 4
#     Node 18, Type 0, BuildingBlock: QUQFOY_clean_sbu_1, # of connection points: 4
#     Node 19, Type 0, BuildingBlock: QUQFOY_clean_sbu_1, # of connection points: 4
#     Node 20, Type 0, BuildingBlock: QUQFOY_clean_sbu_1, # of connection points: 4
#     Node 21, Type 0, BuildingBlock: QUQFOY_clean_sbu_1, # of connection points: 4
#     Node 22, Type 0, BuildingBlock: QUQFOY_clean_sbu_1, # of connection points: 4
#     Node 23, Type 0, BuildingBlock: QUQFOY_clean_sbu_1, # of connection points: 4
#     Node 24, Type 0, BuildingBlock: QUQFOY_clean_sbu_1, # of connection points: 4
#     Node 25, Type 0, BuildingBlock: QUQFOY_clean_sbu_1, # of connection points: 4
#     Node 26, Type 0, BuildingBlock: QUQFOY_clean_sbu_1, # of connection points: 4
#     Node 27, Type 0, BuildingBlock: QUQFOY_clean_sbu_1, # of connection points: 4
#     Node 28, Type 0, BuildingBlock: QUQFOY_clean_sbu_1, # of connection points: 4
#     Node 29, Type 0, BuildingBlock: QUQFOY_clean_sbu_1, # of connection points: 4
#     Node 30, Type 0, BuildingBlock: QUQFOY_clean_sbu_1, # of connection points: 4
#     Node 31, Type 0, BuildingBlock: QUQFOY_clean_sbu_1, # of connection points: 4
#     Edge 32, Type (0, 0), BuildingBlock: TEMPAE_clean_linker_10, # of connection points: 2
#     Edge 33, Type (0, 0), BuildingBlock: TEMPAE_clean_linker_10, # of connection points: 2
#     Edge 34, Type (0, 0), BuildingBlock: TEMPAE_clean_linker_10, # of connection points: 2
#     Edge 35, Type (0, 0), BuildingBlock: TEMPAE_clean_linker_10, # of connection points: 2
#     Edge 36, Type (0, 0), BuildingBlock: TEMPAE_clean_linker_10, # of connection points: 2
#     Edge 37, Type (0, 0), BuildingBlock: TEMPAE_clean_linker_10, # of connection points: 2
#     Edge 38, Type (0, 0), BuildingBlock: TEMPAE_clean_linker_10, # of connection points: 2
#     Edge 39, Type (0, 0), BuildingBlock: TEMPAE_clean_linker_10, # of connection points: 2
#     Edge 40, Type (0, 0), BuildingBlock: TEMPAE_clean_linker_10, # of connection points: 2
#     Edge 41, Type (0, 0), BuildingBlock: TEMPAE_clean_linker_10, # of connection points: 2
#     Edge 42, Type (0, 0), BuildingBlock: TEMPAE_clean_linker_10, # of connection points: 2
#     Edge 43, Type (0, 0), BuildingBlock: TEMPAE_clean_linker_10, # of connection points: 2
#     Edge 44, Type (0, 0), BuildingBlock: TEMPAE_clean_linker_10, # of connection points: 2
#     Edge 45, Type (0, 0), BuildingBlock: TEMPAE_clean_linker_10, # of connection points: 2
#     Edge 46, Type (0, 0), BuildingBlock: TEMPAE_clean_linker_10, # of connection points: 2
#     Edge 47, Type (0, 0), BuildingBlock: TEMPAE_clean_linker_10, # of connection points: 2
#     Edge 48, Type (0, 0), BuildingBlock: TEMPAE_clean_linker_10, # of connection points: 2
#     Edge 49, Type (0, 0), BuildingBlock: TEMPAE_clean_linker_10, # of connection points: 2
#     Edge 50, Type (0, 0), BuildingBlock: TEMPAE_clean_linker_10, # of connection points: 2
#     Edge 51, Type (0, 0), BuildingBlock: TEMPAE_clean_linker_10, # of connection points: 2
#     Edge 52, Type (0, 0), BuildingBlock: TEMPAE_clean_linker_10, # of connection points: 2
#     Edge 53, Type (0, 0), BuildingBlock: TEMPAE_clean_linker_10, # of connection points: 2
#     Edge 54, Type (0, 0), BuildingBlock: TEMPAE_clean_linker_10, # of connection points: 2
#     Edge 55, Type (0, 0), BuildingBlock: TEMPAE_clean_linker_10, # of connection points: 2
#     Edge 56, Type (0, 0), BuildingBlock: TEMPAE_clean_linker_10, # of connection points: 2
#     Edge 57, Type (0, 0), BuildingBlock: TEMPAE_clean_linker_10, # of connection points: 2
#     Edge 58, Type (0, 0), BuildingBlock: TEMPAE_clean_linker_10, # of connection points: 2
#     Edge 59, Type (0, 0), BuildingBlock: TEMPAE_clean_linker_10, # of connection points: 2
#     Edge 60, Type (0, 0), BuildingBlock: TEMPAE_clean_linker_10, # of connection points: 2
#     Edge 61, Type (0, 0), BuildingBlock: TEMPAE_clean_linker_10, # of connection points: 2
#     Edge 62, Type (0, 0), BuildingBlock: TEMPAE_clean_linker_10, # of connection points: 2
#     Edge 63, Type (0, 0), BuildingBlock: TEMPAE_clean_linker_10, # of connection points: 2
#     Edge 64, Type (0, 0), BuildingBlock: TEMPAE_clean_linker_10, # of connection points: 2
#     Edge 65, Type (0, 0), BuildingBlock: TEMPAE_clean_linker_10, # of connection points: 2
#     Edge 66, Type (0, 0), BuildingBlock: TEMPAE_clean_linker_10, # of connection points: 2
#     Edge 67, Type (0, 0), BuildingBlock: TEMPAE_clean_linker_10, # of connection points: 2
#     Edge 68, Type (0, 0), BuildingBlock: TEMPAE_clean_linker_10, # of connection points: 2
#     Edge 69, Type (0, 0), BuildingBlock: TEMPAE_clean_linker_10, # of connection points: 2
#     Edge 70, Type (0, 0), BuildingBlock: TEMPAE_clean_linker_10, # of connection points: 2
#     Edge 71, Type (0, 0), BuildingBlock: TEMPAE_clean_linker_10, # of connection points: 2
#     Edge 72, Type (0, 0), BuildingBlock: TEMPAE_clean_linker_10, # of connection points: 2
#     Edge 73, Type (0, 0), BuildingBlock: TEMPAE_clean_linker_10, # of connection points: 2
#     Edge 74, Type (0, 0), BuildingBlock: TEMPAE_clean_linker_10, # of connection points: 2
#     Edge 75, Type (0, 0), BuildingBlock: TEMPAE_clean_linker_10, # of connection points: 2
#     Edge 76, Type (0, 0), BuildingBlock: TEMPAE_clean_linker_10, # of connection points: 2
#     Edge 77, Type (0, 0), BuildingBlock: TEMPAE_clean_linker_10, # of connection points: 2
#     Edge 78, Type (0, 0), BuildingBlock: TEMPAE_clean_linker_10, # of connection points: 2
#     Edge 79, Type (0, 0), BuildingBlock: TEMPAE_clean_linker_10, # of connection points: 2
#     Edge 80, Type (0, 0), BuildingBlock: TEMPAE_clean_linker_10, # of connection points: 2
#     Edge 81, Type (0, 0), BuildingBlock: TEMPAE_clean_linker_10, # of connection points: 2
#     Edge 82, Type (0, 0), BuildingBlock: TEMPAE_clean_linker_10, # of connection points: 2
#     Edge 83, Type (0, 0), BuildingBlock: TEMPAE_clean_linker_10, # of connection points: 2
#     Edge 84, Type (0, 0), BuildingBlock: TEMPAE_clean_linker_10, # of connection points: 2
#     Edge 85, Type (0, 0), BuildingBlock: TEMPAE_clean_linker_10, # of connection points: 2
#     Edge 86, Type (0, 0), BuildingBlock: TEMPAE_clean_linker_10, # of connection points: 2
#     Edge 87, Type (0, 0), BuildingBlock: TEMPAE_clean_linker_10, # of connection points: 2
#     Edge 88, Type (0, 0), BuildingBlock: TEMPAE_clean_linker_10, # of connection points: 2
#     Edge 89, Type (0, 0), BuildingBlock: TEMPAE_clean_linker_10, # of connection points: 2
#     Edge 90, Type (0, 0), BuildingBlock: TEMPAE_clean_linker_10, # of connection points: 2
#     Edge 91, Type (0, 0), BuildingBlock: TEMPAE_clean_linker_10, # of connection points: 2
#     Edge 92, Type (0, 0), BuildingBlock: TEMPAE_clean_linker_10, # of connection points: 2
#     Edge 93, Type (0, 0), BuildingBlock: TEMPAE_clean_linker_10, # of connection points: 2
#     Edge 94, Type (0, 0), BuildingBlock: TEMPAE_clean_linker_10, # of connection points: 2
#     Edge 95, Type (0, 0), BuildingBlock: TEMPAE_clean_linker_10, # of connection points: 2
# Relax obj value: 0.051
# Max RMSD: 0.110
# Mean RMSD: 0.110
data_MOF--net-umr--node1-QUQFOY_clean_sbu_1--edge1-TEMPAE_clean_linker_10
_symmetry_space_group_name_H-M    P1
_symmetry_Int_Tables_number       1
_symmetry_cell_setting            triclinic
loop_
_symmetry_equiv_pos_as_xyz
'x, y, z'
_cell_length_a     86.866741
_cell_length_b     86.936708
_cell_length_c     28.604232
_cell_angle_alpha  89.993549
_cell_angle_beta   89.995147
_cell_angle_gamma 90.007151
loop_
_atom_site_label
_atom_site_type_symbol
_atom_site_fract_x
_atom_site_fract_y
_atom_site_fract_z
_atom_type_partial_charge
O0 O 0.1683 0.28922 0.17394 0.0
Cd1 Cd 0.16993 0.30489 0.12043 0.0
Cd2 Cd 0.16614 0.2786 0.06799 0.0
O3 O 0.15855 0.2702 0.1322 0.0
O4 O 0.16349 0.32502 0.14689 0.0
O5 O 0.15036 0.31271 0.092 0.0
C6 C 0.15156 0.32432 0.12007 0.0
C7 C 0.15633 0.2687 0.99817 0.0
C8 C 0.16204 0.27604 0.17156 0.0
C9 C 0.19669 0.29639 0.06436 0.0
O10 O 0.18907 0.28414 0.0571 0.0
O11 O 0.19079 0.30734 0.08756 0.0
O12 O 0.16493 0.26063 0.02535 0.0
O13 O 0.15206 0.28212 0.01254 0.0
O14 O 0.96483 0.9121 0.41403 0.0
Cd15 Cd 0.95072 0.91755 0.35855 0.0
Cd16 Cd 0.97926 0.91577 0.31256 0.0
O17 O 0.987 0.9087 0.37749 0.0
O18 O 0.92972 0.91309 0.38251 0.0
O19 O 0.94075 0.89975 0.32574 0.0
C20 C 0.92924 0.90166 0.35381 0.0
C21 C 0.98926 0.9056 0.24359 0.0
C22 C 0.97897 0.90841 0.41464 0.0
C23 C 0.96144 0.94595 0.31008 0.0
O24 O 0.97368 0.93844 0.30204 0.0
O25 O 0.9503 0.93972 0.33177 0.0
O26 O 0.99737 0.91421 0.2707 0.0
O27 O 0.97571 0.90158 0.25766 0.0
O28 O 0.33566 0.71343 0.67616 0.0
Cd29 Cd 0.33344 0.69902 0.6196 0.0
Cd30 Cd 0.33798 0.72519 0.5726 0.0
O31 O 0.34623 0.73261 0.63726 0.0
O32 O 0.33867 0.67799 0.642 0.0
O33 O 0.35265 0.69074 0.59008 0.0
C34 C 0.3507 0.6786 0.61557 0.0
C35 C 0.35037 0.73066 0.50226 0.0
C36 C 0.34245 0.72636 0.67582 0.0
C37 C 0.30671 0.71014 0.56614 0.0
O38 O 0.31451 0.72245 0.56176 0.0
O39 O 0.31257 0.69844 0.58587 0.0
O40 O 0.34387 0.74133 0.52653 0.0
O41 O 0.35089 0.71696 0.51972 0.0
O42 O 0.53453 0.07586 0.92712 0.0
Cd43 Cd 0.54938 0.07463 0.87136 0.0
Cd44 Cd 0.52255 0.07936 0.82247 0.0
O45 O 0.51509 0.08617 0.88848 0.0
O46 O 0.56999 0.08081 0.89492 0.0
O47 O 0.55673 0.09442 0.84321 0.0
C48 C 0.56884 0.09296 0.86918 0.0
C49 C 0.51171 0.09014 0.75537 0.0
C50 C 0.52138 0.08224 0.92681 0.0
C51 C 0.53991 0.04868 0.81337 0.0
O52 O 0.52773 0.05658 0.80794 0.0
O53 O 0.55115 0.05408 0.83642 0.0
O54 O 0.50396 0.08125 0.78258 0.0
O55 O 0.52538 0.09412 0.76837 0.0
O56 O 0.17028 0.71083 0.32299 0.0
Cd57 Cd 0.17288 0.69593 0.37819 0.0
Cd58 Cd 0.16751 0.72188 0.42749 0.0
O59 O 0.15938 0.72953 0.36328 0.0
O60 O 0.1668 0.6752 0.35542 0.0
O61 O 0.15374 0.68812 0.40921 0.0
C62 C 0.15501 0.6761 0.38281 0.0
C63 C 0.15666 0.73062 0.49706 0.0
C64 C 0.16323 0.72362 0.32435 0.0
C65 C 0.19924 0.70667 0.43225 0.0
O66 O 0.19084 0.71846 0.43842 0.0
O67 O 0.194 0.69507 0.41055 0.0
O68 O 0.1645 0.73955 0.47022 0.0
O69 O 0.15372 0.71687 0.4824 0.0
O70 O 0.53166 0.90735 0.57835 0.0
Cd71 Cd 0.54548 0.91228 0.6351 0.0
Cd72 Cd 0.51707 0.9116 0.67876 0.0
O73 O 0.50926 0.90459 0.61392 0.0
O74 O 0.56663 0.90826 0.61134 0.0
O75 O 0.55576 0.89443 0.66719 0.0
C76 C 0.56735 0.89677 0.63974 0.0
C77 C 0.51012 0.89989 0.7486 0.0
C78 C 0.5174 0.90415 0.57703 0.0
C79 C 0.53473 0.94128 0.68243 0.0
O80 O 0.52197 0.93445 0.68874 0.0
O81 O 0.54591 0.93434 0.66296 0.0
O82 O 0.50019 0.90731 0.72386 0.0
O83 O 0.52383 0.89807 0.73189 0.0
O84 O 0.33396 0.2899 0.82661 0.0
Cd85 Cd 0.33177 0.30516 0.88113 0.0
Cd86 Cd 0.33515 0.27837 0.93202 0.0
O87 O 0.34279 0.27024 0.86757 0.0
O88 O 0.33794 0.32564 0.85647 0.0
O89 O 0.35094 0.31325 0.91146 0.0
C90 C 0.34962 0.32508 0.88429 0.0
C91 C 0.34483 0.2683 0.0018 0.0
C92 C 0.33982 0.27652 0.82843 0.0
C93 C 0.30462 0.29616 0.93528 0.0
O94 O 0.31221 0.28389 0.94252 0.0
O95 O 0.31063 0.30719 0.9127 0.0
O96 O 0.33628 0.26028 0.97429 0.0
O97 O 0.34913 0.28175 0.98777 0.0
O98 O 0.96996 0.08975 0.09231 0.0
Cd99 Cd 0.95575 0.08438 0.14766 0.0
Cd100 Cd 0.98378 0.0851 0.19346 0.0
O101 O 0.99205 0.09267 0.12949 0.0
O102 O 0.93486 0.08788 0.12136 0.0
O103 O 0.9447 0.10202 0.17826 0.0
C104 C 0.93356 0.09941 0.14938 0.0
C105 C 0.98962 0.09679 0.26438 0.0
C106 C 0.98416 0.09322 0.0921 0.0
C107 C 0.96631 0.05531 0.19502 0.0
O108 O 0.97903 0.06213 0.20226 0.0
O109 O 0.95526 0.06231 0.17508 0.0
O110 O -2e-05 0.0896 0.24063 0.0
O111 O 0.9761 0.09838 0.24614 0.0
O112 O 0.82884 0.71235 0.83117 0.0
Cd113 Cd 0.82674 0.6971 0.88565 0.0
Cd114 Cd 0.83156 0.72287 0.93686 0.0
O115 O 0.83943 0.73097 0.87258 0.0
O116 O 0.8334 0.67669 0.86183 0.0
O117 O 0.84615 0.68972 0.91605 0.0
C118 C 0.84519 0.67781 0.88911 0.0
C119 C 0.84243 0.7317 0.00648 0.0
C120 C 0.83568 0.72524 0.83329 0.0
C121 C 0.80027 0.70661 0.94128 0.0
O122 O 0.80838 0.71855 0.94834 0.0
O123 O 0.80573 0.69539 0.91827 0.0
O124 O 0.83417 0.74047 0.9803 0.0
O125 O 0.8457 0.71811 0.99122 0.0
O126 O 0.04109 0.08021 0.58575 0.0
Cd127 Cd 0.05701 0.07907 0.63873 0.0
Cd128 Cd 0.03078 0.08266 0.69227 0.0
O129 O 0.02217 0.08998 0.62791 0.0
O130 O 0.07699 0.0853 0.61067 0.0
O131 O 0.06496 0.09888 0.66511 0.0
C132 C 0.07642 0.09745 0.63656 0.0
C133 C 0.02087 0.09259 0.76203 0.0
C134 C 0.02788 0.0864 0.58842 0.0
C135 C 0.04918 0.05249 0.69651 0.0
O136 O 0.03678 0.05987 0.70378 0.0
O137 O 0.05994 0.05849 0.6727 0.0
O138 O 0.01286 0.08378 0.73529 0.0
O139 O 0.03422 0.09696 0.74725 0.0
O140 O 0.65641 0.2877 0.3522 0.0
Cd141 Cd 0.66139 0.30181 0.4082 0.0
Cd142 Cd 0.66144 0.27355 0.45314 0.0
O143 O 0.65412 0.26542 0.38865 0.0
O144 O 0.6569 0.32273 0.38349 0.0
O145 O 0.64347 0.31196 0.44042 0.0
C146 C 0.64548 0.3234 0.4122 0.0
C147 C 0.65011 0.26672 0.52395 0.0
C148 C 0.65338 0.2734 0.35146 0.0
C149 C 0.69086 0.29183 0.45447 0.0
O150 O 0.6843 0.27899 0.46172 0.0
O151 O 0.6836 0.30278 0.43487 0.0
O152 O 0.65764 0.25684 0.49934 0.0
O153 O 0.648 0.2803 0.50671 0.0
O154 O 0.45906 0.9172 0.0766 0.0
Cd155 Cd 0.44549 0.91831 0.13625 0.0
Cd156 Cd 0.47318 0.91759 0.1741 0.0
O157 O 0.47948 0.90755 0.1116 0.0
O158 O 0.42448 0.91242 0.11504 0.0
O159 O 0.4383 0.89832 0.16393 0.0
C160 C 0.42587 0.90006 0.13965 0.0
C161 C 0.48165 0.90827 0.24589 0.0
C162 C 0.47216 0.9107 0.07441 0.0
C163 C 0.45561 0.9468 0.18116 0.0
O164 O 0.46892 0.94101 0.17606 0.0
O165 O 0.44373 0.93872 0.17302 0.0
O166 O 0.49073 0.91562 0.21809 0.0
O167 O 0.46787 0.90525 0.23155 0.0
O168 O 0.83583 0.29035 0.66166 0.0
Cd169 Cd 0.83048 0.30471 0.60669 0.0
Cd170 Cd 0.83087 0.27617 0.56034 0.0
O171 O 0.83777 0.26804 0.62506 0.0
O172 O 0.83581 0.32548 0.63085 0.0
O173 O 0.84829 0.31431 0.57259 0.0
C174 C 0.84695 0.32578 0.60107 0.0
C175 C 0.84055 0.26593 0.491 0.0
C176 C 0.83876 0.27604 0.66215 0.0
C177 C 0.80135 0.29516 0.5597 0.0
O178 O 0.8084 0.28274 0.55058 0.0
O179 O 0.80808 0.30595 0.58167 0.0
O180 O 0.83161 0.25813 0.51798 0.0
O181 O 0.84514 0.27926 0.50531 0.0
O182 O 0.46225 0.08732 0.41993 0.0
Cd183 Cd 0.4493 0.08327 0.36011 0.0
Cd184 Cd 0.47826 0.0805 0.32633 0.0
O185 O 0.48535 0.08967 0.38877 0.0
O186 O 0.42803 0.0876 0.3825 0.0
O187 O 0.43989 0.10198 0.32992 0.0
C188 C 0.42801 0.09962 0.35615 0.0
C189 C 0.48408 0.09081 0.25372 0.0
C190 C 0.47647 0.09053 0.42389 0.0
C191 C 0.45937 0.05263 0.32114 0.0
O192 O 0.4731 0.05748 0.32474 0.0
O193 O 0.44808 0.06161 0.32884 0.0
O194 O 0.49448 0.08411 0.27867 0.0
O195 O 0.47047 0.09251 0.27134 0.0
O196 O 0.65652 0.71451 0.16347 0.0
Cd197 Cd 0.66203 0.70067 0.1073 0.0
Cd198 Cd 0.66124 0.72861 0.06293 0.0
O199 O 0.65358 0.73668 0.12686 0.0
O200 O 0.65764 0.67953 0.13048 0.0
O201 O 0.6444 0.69058 0.07359 0.0
C202 C 0.64637 0.67897 0.1012 0.0
C203 C 0.64966 0.7345 0.99194 0.0
C204 C 0.65303 0.72869 0.16405 0.0
C205 C 0.69129 0.71157 0.06184 0.0
O206 O 0.6843 0.72419 0.05464 0.0
O207 O 0.68435 0.70035 0.08113 0.0
O208 O 0.65671 0.74486 0.01604 0.0
O209 O 0.64813 0.72094 0.00989 0.0
O210 O 0.04096 0.90885 0.91524 0.0
Cd211 Cd 0.05591 0.91423 0.86173 0.0
Cd212 Cd 0.02719 0.91462 0.8135 0.0
O213 O 0.01872 0.90771 0.87771 0.0
O214 O 0.07643 0.90908 0.88827 0.0
O215 O 0.06601 0.89644 0.82905 0.0
C216 C 0.07715 0.89793 0.85868 0.0
C217 C 0.01651 0.90576 0.74378 0.0
C218 C 0.02656 0.9063 0.91498 0.0
C219 C 0.04711 0.94357 0.81443 0.0
O220 O 0.03455 0.93684 0.80468 0.0
O221 O 0.05763 0.93657 0.8368 0.0
O222 O 0.00911 0.91487 0.77122 0.0
O223 O 0.02964 0.90053 0.75778 0.0
O224 O 0.66948 0.78449 0.66963 0.0
Cd225 Cd 0.67168 0.7998 0.61534 0.0
Cd226 Cd 0.66648 0.77382 0.56385 0.0
O227 O 0.65857 0.76599 0.62841 0.0
O228 O 0.6657 0.82032 0.64001 0.0
O229 O 0.65229 0.80776 0.58623 0.0
C230 C 0.65372 0.81958 0.61336 0.0
C231 C 0.65577 0.76461 0.49438 0.0
C232 C 0.66246 0.77169 0.66763 0.0
C233 C 0.69791 0.7899 0.55922 0.0
O234 O 0.68968 0.77803 0.55238 0.0
O235 O 0.6926 0.8012 0.58216 0.0
O236 O 0.66399 0.75599 0.52116 0.0
O237 O 0.65243 0.77826 0.50897 0.0
O238 O 0.46727 0.42022 0.93684 0.0
Cd239 Cd 0.45335 0.42315 0.8795 0.0
Cd240 Cd 0.47899 0.41637 0.83395 0.0
O241 O 0.48558 0.40784 0.89899 0.0
O242 O 0.43184 0.4185 0.89921 0.0
O243 O 0.44501 0.40416 0.8492 0.0
C244 C 0.43259 0.40639 0.87314 0.0
C245 C 0.48293 0.40312 0.76427 0.0
C246 C 0.47959 0.41235 0.93718 0.0
C247 C 0.46667 0.44867 0.82541 0.0
O248 O 0.47834 0.4399 0.82198 0.0
O249 O 0.45443 0.44383 0.84476 0.0
O250 O 0.49431 0.4087 0.78774 0.0
O251 O 0.46933 0.404 0.78231 0.0
O252 O 0.83785 0.21366 0.16272 0.0
Cd253 Cd 0.83268 0.1987 0.10913 0.0
Cd254 Cd 0.83196 0.22739 0.06112 0.0
O255 O 0.83895 0.2359 0.12528 0.0
O256 O 0.83781 0.17829 0.13624 0.0
O257 O 0.85061 0.18859 0.07713 0.0
C258 C 0.84908 0.17754 0.10702 0.0
C259 C 0.84075 0.23796 0.99107 0.0
C260 C 0.84035 0.22806 0.16256 0.0
C261 C 0.80314 0.2073 0.06252 0.0
O262 O 0.8097 0.21995 0.05289 0.0
O263 O 0.81033 0.1968 0.08437 0.0
O264 O 0.83166 0.24539 0.0185 0.0
O265 O 0.84598 0.22485 0.00522 0.0
O266 O 0.03625 0.5814 0.43056 0.0
Cd267 Cd 0.04889 0.58044 0.36918 0.0
Cd268 Cd 0.02131 0.58346 0.33462 0.0
O269 O 0.01648 0.59323 0.39875 0.0
O270 O 0.07058 0.58456 0.38789 0.0
O271 O 0.05697 0.60037 0.3435 0.0
C272 C 0.06964 0.59739 0.36539 0.0
C273 C 0.01581 0.59516 0.26371 0.0
C274 C 0.02376 0.58887 0.43487 0.0
C275 C 0.03608 0.55343 0.32101 0.0
O276 O 0.02317 0.55977 0.32912 0.0
O277 O 0.04848 0.56073 0.32881 0.0
O278 O 0.00498 0.58973 0.28982 0.0
O279 O 0.02977 0.59486 0.27938 0.0
O280 O 0.66417 0.2134 0.84529 0.0
Cd281 Cd 0.66589 0.19753 0.89828 0.0
Cd282 Cd 0.66321 0.22445 0.95194 0.0
O283 O 0.6559 0.23305 0.88746 0.0
O284 O 0.66019 0.17746 0.86978 0.0
O285 O 0.64652 0.18867 0.92552 0.0
C286 C 0.64825 0.17737 0.89659 0.0
C287 C 0.65396 0.23492 0.02198 0.0
C288 C 0.65872 0.22692 0.84796 0.0
C289 C 0.69313 0.20541 0.95393 0.0
O290 O 0.68589 0.21782 0.96229 0.0
O291 O 0.68687 0.1948 0.93019 0.0
O292 O 0.66291 0.24253 0.99458 0.0
O293 O 0.64909 0.22168 0.00781 0.0
O294 O 0.03316 0.41471 0.06875 0.0
Cd295 Cd 0.04476 0.41876 0.13115 0.0
Cd296 Cd 0.01554 0.42043 0.15981 0.0
O297 O 0.0096 0.41178 0.09604 0.0
O298 O 0.06659 0.41477 0.11375 0.0
O299 O 0.05364 0.40014 0.1632 0.0
C300 C 0.06613 0.40274 0.14001 0.0
C301 C 0.01021 0.40862 0.23015 0.0
C302 C 0.01908 0.41131 0.06238 0.0
C303 C 0.03304 0.44883 0.17059 0.0
O304 O 0.01956 0.44358 0.16469 0.0
O305 O 0.04473 0.44029 0.16365 0.0
O306 O 0.99944 0.41508 0.20604 0.0
O307 O 0.02394 0.40804 0.21276 0.0
O308 O 0.84156 0.78094 0.33631 0.0
Cd309 Cd 0.83576 0.7952 0.3911 0.0
Cd310 Cd 0.83694 0.76742 0.43759 0.0
O311 O 0.84481 0.75905 0.37424 0.0
O312 O 0.83918 0.81609 0.3647 0.0
O313 O 0.85314 0.80646 0.42237 0.0
C314 C 0.85058 0.81752 0.39318 0.0
C315 C 0.84853 0.76199 0.50891 0.0
C316 C 0.84531 0.76682 0.33665 0.0
C317 C 0.80671 0.78414 0.4376 0.0
O318 O 0.81382 0.77164 0.4455 0.0
O319 O 0.81352 0.79531 0.41764 0.0
O320 O 0.84159 0.75145 0.48524 0.0
O321 O 0.84993 0.77549 0.49039 0.0
O322 O 0.46794 0.58285 0.56843 0.0
Cd323 Cd 0.45384 0.58002 0.62541 0.0
Cd324 Cd 0.47942 0.58674 0.67144 0.0
O325 O 0.48616 0.59527 0.60652 0.0
O326 O 0.43243 0.58462 0.60475 0.0
O327 O 0.44534 0.59903 0.65521 0.0
C328 C 0.43304 0.59676 0.63073 0.0
C329 C 0.48343 0.5999 0.74124 0.0
C330 C 0.48026 0.59071 0.56825 0.0
C331 C 0.46696 0.55448 0.67978 0.0
O332 O 0.47866 0.56321 0.68333 0.0
O333 O 0.45475 0.55935 0.66027 0.0
O334 O 0.49478 0.59428 0.71773 0.0
O335 O 0.46983 0.59913 0.72318 0.0
O336 O 0.33879 0.21845 0.33346 0.0
Cd337 Cd 0.33313 0.20494 0.3901 0.0
Cd338 Cd 0.33614 0.2327 0.43456 0.0
O339 O 0.34386 0.24025 0.37 0.0
O340 O 0.33638 0.18364 0.36663 0.0
O341 O 0.35071 0.1942 0.42193 0.0
C342 C 0.34804 0.18272 0.39439 0.0
C343 C 0.34863 0.23788 0.50467 0.0
C344 C 0.3434 0.23232 0.33271 0.0
C345 C 0.30511 0.2175 0.43845 0.0
O346 O 0.31292 0.22968 0.44476 0.0
O347 O 0.31114 0.20585 0.41866 0.0
O348 O 0.34206 0.24866 0.48098 0.0
O349 O 0.34915 0.22424 0.48674 0.0
O350 O 0.53023 0.5821 0.06804 0.0
Cd351 Cd 0.54461 0.57944 0.12439 0.0
Cd352 Cd 0.51924 0.5864 0.17137 0.0
O353 O 0.5124 0.59492 0.10654 0.0
O354 O 0.56588 0.58375 0.10207 0.0
O355 O 0.55344 0.59856 0.15257 0.0
C356 C 0.56553 0.59608 0.12727 0.0
C357 C 0.51516 0.59959 0.24112 0.0
C358 C 0.51805 0.59016 0.06816 0.0
C359 C 0.53164 0.55411 0.17975 0.0
O360 O 0.51998 0.56287 0.18338 0.0
O361 O 0.54382 0.55891 0.15993 0.0
O362 O 0.50385 0.59392 0.21757 0.0
O363 O 0.52879 0.59884 0.22315 0.0
O364 O 0.16276 0.77725 0.82918 0.0
Cd365 Cd 0.16943 0.79049 0.88538 0.0
Cd366 Cd 0.166 0.7631 0.92983 0.0
O367 O 0.15785 0.75548 0.86609 0.0
O368 O 0.16665 0.81195 0.86288 0.0
O369 O 0.15252 0.80162 0.9191 0.0
C370 C 0.15533 0.81314 0.8918 0.0
C371 C 0.15308 0.75925 0.9998 0.0
C372 C 0.15798 0.76344 0.82886 0.0
C373 C 0.19745 0.77719 0.93205 0.0
O374 O 0.18934 0.76528 0.93954 0.0
O375 O 0.19161 0.78888 0.91204 0.0
O376 O 0.15928 0.74794 0.97748 0.0
O377 O 0.15327 0.77271 0.98062 0.0
O378 O 0.96291 0.4234 0.5631 0.0
Cd379 Cd 0.95003 0.42427 0.62408 0.0
Cd380 Cd 0.97813 0.42235 0.65834 0.0
O381 O 0.98325 0.41253 0.59496 0.0
O382 O 0.92862 0.41974 0.60381 0.0
O383 O 0.94213 0.40424 0.6495 0.0
C384 C 0.92961 0.40695 0.62646 0.0
C385 C 0.98743 0.41233 0.72791 0.0
C386 C 0.97567 0.41637 0.55893 0.0
C387 C 0.96167 0.4519 0.67032 0.0
O388 O 0.97471 0.44586 0.66237 0.0
O389 O 0.94947 0.4442 0.66343 0.0
O390 O 0.99629 0.4196 0.69928 0.0
O391 O 0.97335 0.40978 0.71552 0.0
O392 O 0.33343 0.7794 0.17522 0.0
Cd393 Cd 0.33079 0.79369 0.1186 0.0
Cd394 Cd 0.33742 0.76807 0.07207 0.0
O395 O 0.34599 0.76131 0.13704 0.0
O396 O 0.33485 0.81495 0.1413 0.0
O397 O 0.34981 0.80288 0.09041 0.0
C398 C 0.34714 0.81487 0.1159 0.0
C399 C 0.35027 0.76359 0.0019 0.0
C400 C 0.34133 0.76711 0.17534 0.0
C401 C 0.30521 0.78079 0.06397 0.0
O402 O 0.31385 0.76903 0.06061 0.0
O403 O 0.31017 0.79297 0.08337 0.0
O404 O 0.34462 0.75243 0.02611 0.0
O405 O 0.34974 0.77728 0.01941 0.0
O406 O 0.96565 0.58444 0.93068 0.0
Cd407 Cd 0.95285 0.58394 0.86958 0.0
Cd408 Cd 0.98071 0.58556 0.83513 0.0
O409 O 0.98602 0.59527 0.89899 0.0
O410 O 0.93132 0.588 0.88991 0.0
O411 O 0.94457 0.60396 0.84504 0.0
C412 C 0.93206 0.60088 0.86764 0.0
C413 C 0.98685 0.59658 0.7637 0.0
C414 C 0.97851 0.59127 0.93505 0.0
C415 C 0.96455 0.55631 0.82202 0.0
O416 O 0.97773 0.56198 0.83052 0.0
O417 O 0.95251 0.56424 0.82921 0.0
O418 O 0.99737 0.59078 0.79021 0.0
O419 O 0.97289 0.5971 0.7793 0.0
O420 O 0.16201 0.21939 0.66589 0.0
Cd421 Cd 0.16791 0.2061 0.60892 0.0
Cd422 Cd 0.16534 0.23385 0.56547 0.0
O423 O 0.1576 0.24142 0.62991 0.0
O424 O 0.16461 0.1847 0.63129 0.0
O425 O 0.15052 0.19546 0.57579 0.0
C426 C 0.15315 0.18382 0.60278 0.0
C427 C 0.15266 0.23864 0.49552 0.0
C428 C 0.15768 0.23334 0.66693 0.0
C429 C 0.19622 0.21855 0.56172 0.0
O430 O 0.18855 0.2308 0.55523 0.0
O431 O 0.19002 0.20697 0.58136 0.0
O432 O 0.15924 0.24956 0.51859 0.0
O433 O 0.15226 0.22507 0.51403 0.0
O434 O 0.52951 0.42051 0.43728 0.0
Cd435 Cd 0.54399 0.42295 0.38107 0.0
Cd436 Cd 0.51863 0.41616 0.33408 0.0
O437 O 0.51173 0.40762 0.39882 0.0
O438 O 0.56517 0.41866 0.40412 0.0
O439 O 0.55286 0.40372 0.35371 0.0
C440 C 0.56486 0.40625 0.37932 0.0
C441 C 0.51455 0.40304 0.26424 0.0
C442 C 0.51733 0.41245 0.43718 0.0
C443 C 0.53124 0.44834 0.32557 0.0
O444 O 0.51948 0.43969 0.32221 0.0
O445 O 0.5434 0.44342 0.34518 0.0
O446 O 0.50324 0.40872 0.28777 0.0
O447 O 0.52817 0.40374 0.28227 0.0
C448 C 0.27841 0.3083 0.93657 0.0
C449 C 0.28886 0.29752 0.95454 0.0
C450 C 0.26331 0.30923 0.95403 0.0
C451 C 0.25869 0.29935 0.99083 0.0
C452 C 0.26933 0.28875 0.0099 0.0
C453 C 0.28423 0.28787 0.99126 0.0
C454 C 0.25219 0.3205 0.93231 0.0
C455 C 0.26493 0.27817 0.04962 0.0
C456 C 0.223 0.30831 0.06304 0.0
C457 C 0.21238 0.29778 0.04463 0.0
C458 C 0.23809 0.30915 0.0454 0.0
C459 C 0.24251 0.29944 0.00797 0.0
C460 C 0.23168 0.28914 0.98836 0.0
C461 C 0.21681 0.28834 0.0072 0.0
C462 C 0.2494 0.3201 0.06768 0.0
C463 C 0.23587 0.27876 0.94795 0.0
H464 H 0.28193 0.31576 0.90817 0.0
H465 H 0.2923 0.27963 0.00572 0.0
H466 H 0.24247 0.31416 0.9161 0.0
H467 H 0.24725 0.32811 0.95958 0.0
H468 H 0.25773 0.32776 0.90514 0.0
H469 H 0.27485 0.27129 0.06244 0.0
H470 H 0.26022 0.28494 0.07923 0.0
H471 H 0.25577 0.27015 0.03799 0.0
H472 H 0.21964 0.31561 0.092 0.0
H473 H 0.2086 0.2803 0.99241 0.0
H474 H 0.25451 0.32775 0.0408 0.0
H475 H 0.25899 0.31349 0.08364 0.0
H476 H 0.24399 0.32732 0.09517 0.0
H477 H 0.24073 0.28564 0.9188 0.0
H478 H 0.22581 0.27218 0.93468 0.0
H479 H 0.24486 0.27047 0.95907 0.0
C480 C 0.95046 0.97268 0.31314 0.0
C481 C 0.96032 0.9619 0.29236 0.0
C482 C 0.95019 0.98804 0.29761 0.0
C483 C 0.95977 0.99257 0.2599 0.0
C484 C 0.96929 0.98156 0.23776 0.0
C485 C 0.96955 0.96643 0.25452 0.0
C486 C 0.94007 0.99953 0.32251 0.0
C487 C 0.97947 0.98584 0.19694 0.0
C488 C 0.95262 0.02989 0.19386 0.0
C489 C 0.96426 0.03935 0.212 0.0
C490 C 0.9508 0.01469 0.20971 0.0
C491 C 0.96065 0.00896 0.24512 0.0
C492 C 0.97212 0.01862 0.26442 0.0
C493 C 0.97388 0.03363 0.24732 0.0
C494 C 0.93862 0.00464 0.18769 0.0
C495 C 0.98272 0.01302 0.30268 0.0
H496 H 0.94333 0.96923 0.3424 0.0
H497 H 0.97705 0.9581 0.23786 0.0
H498 H 0.94735 0.00838 0.3396 0.0
H499 H 0.93255 0.00556 0.29709 0.0
H500 H 0.93272 0.99403 0.34955 0.0
H501 H 0.98531 0.97567 0.18145 0.0
H502 H 0.97259 0.99157 0.16931 0.0
H503 H 0.9884 0.99412 0.20854 0.0
H504 H 0.94515 0.03426 0.16659 0.0
H505 H 0.98276 0.04094 0.26199 0.0
H506 H 0.93101 0.99973 0.21503 0.0
H507 H 0.94418 0.99484 0.16944 0.0
H508 H 0.93143 0.01103 0.16212 0.0
H509 H 0.97591 0.00825 0.33211 0.0
H510 H 0.99027 0.02231 0.31632 0.0
H511 H 0.99012 0.00362 0.28916 0.0
C512 C 0.21872 0.71631 0.48918 0.0
C513 C 0.21502 0.70656 0.45177 0.0
C514 C 0.23356 0.7165 0.50843 0.0
C515 C 0.24511 0.70693 0.48916 0.0
C516 C 0.24147 0.69706 0.4513 0.0
C517 C 0.2264 0.69686 0.43337 0.0
C518 C 0.23688 0.72694 0.54941 0.0
C519 C 0.25356 0.68691 0.42928 0.0
C520 C 0.28639 0.71941 0.51103 0.0
C521 C 0.29093 0.70932 0.54674 0.0
C522 C 0.27164 0.71851 0.49125 0.0
C523 C 0.26103 0.70748 0.5083 0.0
C524 C 0.2655 0.69733 0.54457 0.0
C525 C 0.28046 0.69826 0.56301 0.0
C526 C 0.26739 0.72936 0.45207 0.0
C527 C 0.25442 0.68564 0.56436 0.0
H528 H 0.20993 0.72372 0.5039 0.0
H529 H 0.22361 0.68935 0.40435 0.0
H530 H 0.24154 0.72015 0.57904 0.0
H531 H 0.24577 0.73552 0.5396 0.0
H532 H 0.22645 0.73319 0.56152 0.0
H533 H 0.24889 0.67992 0.40002 0.0
H534 H 0.26316 0.69408 0.41583 0.0
H535 H 0.25848 0.67902 0.45587 0.0
H536 H 0.29449 0.72787 0.49794 0.0
H537 H 0.28389 0.69047 0.5907 0.0
H538 H 0.25774 0.73687 0.46315 0.0
H539 H 0.26341 0.72273 0.42122 0.0
H540 H 0.2772 0.73677 0.44133 0.0
H541 H 0.24416 0.69158 0.5788 0.0
H542 H 0.2597 0.67858 0.59246 0.0
H543 H 0.25032 0.67787 0.53625 0.0
C544 C 0.53141 0.02959 0.75369 0.0
C545 C 0.54081 0.03321 0.792 0.0
C546 C 0.53157 0.01486 0.73378 0.0
C547 C 0.54113 0.00335 0.75327 0.0
C548 C 0.55088 0.00699 0.79142 0.0
C549 C 0.55073 0.02196 0.81005 0.0
C550 C 0.52122 0.01153 0.69258 0.0
C551 C 0.56102 0.99495 0.81366 0.0
C552 C 0.52698 0.96249 0.73611 0.0
C553 C 0.53664 0.95714 0.70032 0.0
C554 C 0.52863 0.97734 0.75441 0.0
C555 C 0.54001 0.98726 0.73583 0.0
C556 C 0.54981 0.98196 0.69966 0.0
C557 C 0.54812 0.96688 0.68265 0.0
C558 C 0.51811 0.98245 0.79353 0.0
C559 C 0.56187 0.99232 0.67839 0.0
H560 H 0.52387 0.03831 0.73918 0.0
H561 H 0.55799 0.02471 0.83969 0.0
H562 H 0.52792 0.00619 0.66383 0.0
H563 H 0.51217 0.0032 0.70301 0.0
H564 H 0.51552 0.02207 0.67904 0.0
H565 H 0.56855 0.99982 0.84133 0.0
H566 H 0.55375 0.98582 0.82942 0.0
H567 H 0.56836 0.98938 0.78684 0.0
H568 H 0.51821 0.95495 0.75038 0.0
H569 H 0.5556 0.9628 0.65496 0.0
H570 H 0.51085 0.99218 0.78156 0.0
H571 H 0.52502 0.98661 0.82361 0.0
H572 H 0.51044 0.97305 0.80579 0.0
H573 H 0.55626 0.00251 0.6624 0.0
H574 H 0.56878 0.98637 0.65116 0.0
H575 H 0.56977 0.99662 0.70591 0.0
C576 C 0.71299 0.71965 0.01029 0.0
C577 C 0.70737 0.70987 0.04538 0.0
C578 C 0.72806 0.71816 0.99329 0.0
C579 C 0.73788 0.70682 0.01248 0.0
C580 C 0.73231 0.69691 0.04799 0.0
C581 C 0.71704 0.69845 0.0637 0.0
C582 C 0.73346 0.72879 0.95485 0.0
C583 C 0.74255 0.68488 0.0699 0.0
C584 C 0.77335 0.69613 0.94137 0.0
C585 C 0.78448 0.70592 0.96073 0.0
C586 C 0.75816 0.69607 0.95841 0.0
C587 C 0.75414 0.70579 0.99628 0.0
C588 C 0.7655 0.71527 0.01696 0.0
C589 C 0.78047 0.71534 0.99864 0.0
C590 C 0.7463 0.68601 0.93491 0.0
C591 C 0.76176 0.72559 0.0579 0.0
H592 H 0.70553 0.72838 0.99552 0.0
H593 H 0.71276 0.69088 0.09085 0.0
H594 H 0.74308 0.73604 0.96773 0.0
H595 H 0.73789 0.72199 0.92493 0.0
H596 H 0.72414 0.73647 0.94207 0.0
H597 H 0.73641 0.67795 0.09668 0.0
H598 H 0.74707 0.67702 0.04263 0.0
H599 H 0.75261 0.69051 0.08661 0.0
H600 H 0.77638 0.68886 0.91203 0.0
H601 H 0.78908 0.72279 0.01415 0.0
H602 H 0.73726 0.69331 0.91883 0.0
H603 H 0.74056 0.67853 0.96105 0.0
H604 H 0.75141 0.67862 0.90728 0.0
H605 H 0.75346 0.73458 0.04689 0.0
H606 H 0.77216 0.73134 0.07226 0.0
H607 H 0.75623 0.71885 0.08622 0.0
C608 C 0.0601 0.96939 0.81877 0.0
C609 C 0.04938 0.95953 0.7977 0.0
C610 C 0.06161 0.98475 0.80379 0.0
C611 C 0.05238 0.99019 0.76643 0.0
C612 C 0.04193 0.9801 0.74414 0.0
C613 C 0.04047 0.96497 0.76027 0.0
C614 C 0.07273 0.99525 0.82877 0.0
C615 C 0.03203 0.98536 0.70374 0.0
C616 C 0.04131 0.03209 0.75307 0.0
C617 C 0.05093 0.03686 0.71642 0.0
C618 C 0.04225 0.01716 0.77128 0.0
C619 C 0.05289 0.00661 0.75189 0.0
C620 C 0.06293 0.01146 0.71575 0.0
C621 C 0.06191 0.02659 0.69865 0.0
C622 C 0.03146 0.01251 0.81024 0.0
C623 C 0.07429 0.00048 0.69377 0.0
H624 H 0.067 0.96524 0.8477 0.0
H625 H 0.03231 0.95735 0.74335 0.0
H626 H 0.08067 0.00071 0.80333 0.0
H627 H 0.06627 0.00464 0.84627 0.0
H628 H 0.07965 0.98906 0.85548 0.0
H629 H 0.0252 0.97581 0.68835 0.0
H630 H 0.02395 0.99442 0.71574 0.0
H631 H 0.03931 0.99046 0.67591 0.0
H632 H 0.03293 0.04004 0.76745 0.0
H633 H 0.06938 0.0302 0.67039 0.0
H634 H 0.03799 0.00705 0.83915 0.0
H635 H 0.0231 0.00389 0.79708 0.0
H636 H 0.02494 0.02245 0.82448 0.0
H637 H 0.08129 0.99476 0.72112 0.0
H638 H 0.08214 0.00635 0.66884 0.0
H639 H 0.06796 0.99134 0.67472 0.0
C640 C 0.71617 0.3058 0.45211 0.0
C641 C 0.70692 0.29405 0.47059 0.0
C642 C 0.73155 0.30758 0.46658 0.0
C643 C 0.73768 0.29756 0.50091 0.0
C644 C 0.72822 0.28602 0.52075 0.0
C645 C 0.71302 0.28432 0.50506 0.0
C646 C 0.74137 0.31984 0.44407 0.0
C647 C 0.73423 0.27523 0.55789 0.0
C648 C 0.7802 0.28805 0.50512 0.0
C649 C 0.78529 0.29687 0.54318 0.0
C650 C 0.7649 0.28871 0.48984 0.0
C651 C 0.75429 0.29823 0.5137 0.0
C652 C 0.75939 0.30747 0.55149 0.0
C653 C 0.77491 0.30679 0.56554 0.0
C654 C 0.76001 0.27888 0.4489 0.0
C655 C 0.74835 0.31759 0.57818 0.0
H656 H 0.71152 0.31335 0.4255 0.0
H657 H 0.70588 0.27535 0.52002 0.0
H658 H 0.74679 0.32717 0.47121 0.0
H659 H 0.7508 0.31436 0.42394 0.0
H660 H 0.73464 0.3273 0.42005 0.0
H661 H 0.72506 0.26771 0.5724 0.0
H662 H 0.74338 0.26781 0.54291 0.0
H663 H 0.73947 0.28186 0.58696 0.0
H664 H 0.78822 0.28051 0.48723 0.0
H665 H 0.77879 0.31362 0.59497 0.0
H666 H 0.75395 0.28598 0.42246 0.0
H667 H 0.75183 0.26991 0.46093 0.0
H668 H 0.76993 0.2731 0.43178 0.0
H669 H 0.74197 0.3252 0.55381 0.0
H670 H 0.75431 0.32483 0.60457 0.0
H671 H 0.73972 0.31032 0.59636 0.0
C672 C 0.46429 0.97408 0.18421 0.0
C673 C 0.45413 0.9626 0.1993 0.0
C674 C 0.4638 0.9889 0.20359 0.0
C675 C 0.45333 0.99211 0.2403 0.0
C676 C 0.44296 0.98055 0.25544 0.0
C677 C 0.4433 0.96599 0.2341 0.0
C678 C 0.47469 0.00104 0.18532 0.0
C679 C 0.432 0.98335 0.29551 0.0
C680 C 0.46612 0.02479 0.31929 0.0
C681 C 0.45667 0.03685 0.30418 0.0
C682 C 0.4646 0.00997 0.3004 0.0
C683 C 0.4538 0.00733 0.26415 0.0
C684 C 0.4441 0.01946 0.24915 0.0
C685 C 0.44547 0.03403 0.27 0.0
C686 C 0.47481 0.99723 0.3185 0.0
C687 C 0.43282 0.01726 0.20956 0.0
H688 H 0.47262 0.97144 0.15714 0.0
H689 H 0.43558 0.95703 0.24614 0.0
H690 H 0.46825 0.01168 0.17658 0.0
H691 H 0.48321 0.00405 0.2127 0.0
H692 H 0.48102 0.99714 0.15372 0.0
H693 H 0.42436 0.97333 0.30209 0.0
H694 H 0.43866 0.98577 0.32781 0.0
H695 H 0.42476 0.99358 0.28842 0.0
H696 H 0.47476 0.02699 0.34585 0.0
H697 H 0.4383 0.04344 0.2579 0.0
H698 H 0.4831 0.99375 0.29098 0.0
H699 H 0.46779 0.98696 0.32735 0.0
H700 H 0.4814 0.00077 0.34999 0.0
H701 H 0.43919 0.01452 0.17697 0.0
H702 H 0.42568 0.02766 0.20334 0.0
H703 H 0.42508 0.00741 0.21691 0.0
C704 C 0.71759 0.78079 0.50205 0.0
C705 C 0.71368 0.79039 0.53962 0.0
C706 C 0.73254 0.78067 0.48359 0.0
C707 C 0.74397 0.79018 0.50378 0.0
C708 C 0.74007 0.80007 0.54132 0.0
C709 C 0.7249 0.80018 0.55851 0.0
C710 C 0.73616 0.77016 0.44301 0.0
C711 C 0.75201 0.81017 0.56426 0.0
C712 C 0.78506 0.77618 0.48957 0.0
C713 C 0.79064 0.78582 0.45407 0.0
C714 C 0.77003 0.77774 0.50673 0.0
C715 C 0.76018 0.78903 0.4873 0.0
C716 C 0.7657 0.79878 0.45133 0.0
C717 C 0.78093 0.79717 0.43544 0.0
C718 C 0.76468 0.76728 0.54565 0.0
C719 C 0.75544 0.81075 0.42917 0.0
H720 H 0.70892 0.77333 0.4869 0.0
H721 H 0.72195 0.8076 0.5876 0.0
H722 H 0.74165 0.77677 0.4143 0.0
H723 H 0.74448 0.76121 0.45423 0.0
H724 H 0.72572 0.76436 0.4291 0.0
H725 H 0.74699 0.81767 0.59177 0.0
H726 H 0.76107 0.80289 0.58036 0.0
H727 H 0.75772 0.81754 0.53776 0.0
H728 H 0.79256 0.76751 0.50456 0.0
H729 H 0.78517 0.80464 0.40797 0.0
H730 H 0.75499 0.76003 0.53327 0.0
H731 H 0.76036 0.77421 0.57545 0.0
H732 H 0.774 0.75961 0.55847 0.0
H733 H 0.7453 0.80508 0.41299 0.0
H734 H 0.76152 0.81753 0.40193 0.0
H735 H 0.75103 0.81875 0.45623 0.0
C736 C 0.47755 0.46771 0.76886 0.0
C737 C 0.46719 0.46432 0.80506 0.0
C738 C 0.47772 0.48227 0.74763 0.0
C739 C 0.46753 0.49383 0.76371 0.0
C740 C 0.45725 0.49056 0.80085 0.0
C741 C 0.45707 0.47578 0.82071 0.0
C742 C 0.48863 0.48521 0.7075 0.0
C743 C 0.44644 0.50267 0.81963 0.0
C744 C 0.47762 0.53544 0.73666 0.0
C745 C 0.46739 0.53883 0.70015 0.0
C746 C 0.47771 0.52088 0.7579 0.0
C747 C 0.46757 0.50933 0.74152 0.0
C748 C 0.45741 0.5126 0.70407 0.0
C749 C 0.45731 0.52738 0.68421 0.0
C750 C 0.48848 0.51794 0.79837 0.0
C751 C 0.44666 0.50049 0.68496 0.0
H752 H 0.48529 0.45885 0.7563 0.0
H753 H 0.4491 0.47323 0.84881 0.0
H754 H 0.48204 0.48872 0.67602 0.0
H755 H 0.49652 0.49481 0.7163 0.0
H756 H 0.49563 0.47492 0.69867 0.0
H757 H 0.43954 0.49844 0.84971 0.0
H758 H 0.45308 0.51293 0.83094 0.0
H759 H 0.43844 0.50647 0.7917 0.0
H760 H 0.48533 0.5443 0.74944 0.0
H761 H 0.44943 0.52993 0.65587 0.0
H762 H 0.4964 0.50834 0.78981 0.0
H763 H 0.48179 0.51443 0.82965 0.0
H764 H 0.49546 0.52823 0.80741 0.0
H765 H 0.45333 0.49023 0.67385 0.0
H766 H 0.43987 0.50472 0.65467 0.0
H767 H 0.43857 0.49669 0.71264 0.0
C768 C 0.71408 0.21288 0.00912 0.0
C769 C 0.70895 0.20352 0.97235 0.0
C770 C 0.72922 0.21187 0.02579 0.0
C771 C 0.73959 0.20141 0.00467 0.0
C772 C 0.73438 0.19161 0.96841 0.0
C773 C 0.71907 0.1927 0.95289 0.0
C774 C 0.73425 0.22239 0.06495 0.0
C775 C 0.74516 0.18046 0.94464 0.0
C776 C 0.78126 0.21401 0.01013 0.0
C777 C 0.78708 0.20494 0.04665 0.0
C778 C 0.766 0.21253 0.99513 0.0
C779 C 0.75617 0.20188 0.01764 0.0
C780 C 0.76201 0.19246 0.05398 0.0
C781 C 0.77748 0.19401 0.06783 0.0
C782 C 0.7603 0.22265 0.9558 0.0
C783 C 0.7518 0.18111 0.07913 0.0
H784 H 0.70626 0.22113 0.02479 0.0
H785 H 0.71517 0.18543 0.9245 0.0
H786 H 0.74002 0.21568 0.09291 0.0
H787 H 0.74272 0.23085 0.05149 0.0
H788 H 0.72444 0.22879 0.08054 0.0
H789 H 0.73904 0.17275 0.91988 0.0
H790 H 0.75407 0.18695 0.92501 0.0
H791 H 0.75123 0.17332 0.97095 0.0
H792 H 0.78867 0.22235 0.99313 0.0
H793 H 0.78192 0.18698 0.09606 0.0
H794 H 0.75134 0.23062 0.9691 0.0
H795 H 0.75492 0.21553 0.92807 0.0
H796 H 0.76968 0.22959 0.93989 0.0
H797 H 0.74259 0.18738 0.09808 0.0
H798 H 0.7583 0.174 0.10466 0.0
H799 H 0.74608 0.17337 0.05367 0.0
C800 C 0.04574 0.46732 0.2248 0.0
C801 C 0.03498 0.4645 0.18938 0.0
C802 C 0.04649 0.48173 0.24689 0.0
C803 C 0.03661 0.49373 0.23193 0.0
C804 C 0.02617 0.49108 0.19474 0.0
C805 C 0.02526 0.47639 0.17456 0.0
C806 C 0.05741 0.48393 0.28742 0.0
C807 C 0.01583 0.50371 0.17664 0.0
C808 C 0.02612 0.52661 0.31353 0.0
C809 C 0.03662 0.53797 0.29984 0.0
C810 C 0.02632 0.51199 0.2927 0.0
C811 C 0.03685 0.50891 0.25601 0.0
C812 C 0.04737 0.52044 0.24179 0.0
C813 C 0.04732 0.53475 0.26453 0.0
C814 C 0.01527 0.49984 0.30993 0.0
C815 C 0.05839 0.51781 0.20173 0.0
H816 H 0.0531 0.45804 0.23669 0.0
H817 H 0.01695 0.47418 0.14707 0.0
H818 H 0.06532 0.49367 0.28036 0.0
H819 H 0.05078 0.48687 0.31938 0.0
H820 H 0.06438 0.47348 0.29455 0.0
H821 H 0.00933 0.50014 0.14498 0.0
H822 H 0.00745 0.50706 0.20405 0.0
H823 H 0.02273 0.51407 0.16806 0.0
H824 H 0.01789 0.52912 0.341 0.0
H825 H 0.05532 0.54363 0.25358 0.0
H826 H 0.02166 0.48923 0.31935 0.0
H827 H 0.00706 0.49676 0.28175 0.0
H828 H 0.00859 0.50373 0.34088 0.0
H829 H 0.06597 0.50786 0.20937 0.0
H830 H 0.06571 0.52802 0.19464 0.0
H831 H 0.05183 0.51497 0.16957 0.0
C832 C 0.27842 0.20642 0.43786 0.0
C833 C 0.28914 0.2168 0.45646 0.0
C834 C 0.26321 0.20595 0.4547 0.0
C835 C 0.25877 0.21584 0.49171 0.0
C836 C 0.26968 0.22606 0.51133 0.0
C837 C 0.28466 0.22653 0.49313 0.0
C838 C 0.25181 0.19512 0.43227 0.0
C839 C 0.26551 0.23658 0.5514 0.0
C840 C 0.21699 0.22743 0.50781 0.0
C841 C 0.21222 0.21763 0.544 0.0
C842 C 0.23196 0.22665 0.48965 0.0
C843 C 0.24258 0.21603 0.50881 0.0
C844 C 0.23786 0.2061 0.5454 0.0
C845 C 0.22267 0.2069 0.56223 0.0
C846 C 0.23643 0.23724 0.45004 0.0
C847 C 0.24895 0.19485 0.56737 0.0
H848 H 0.28183 0.19888 0.40949 0.0
H849 H 0.29295 0.23445 0.50811 0.0
H850 H 0.24679 0.18736 0.459 0.0
H851 H 0.24218 0.20179 0.41683 0.0
H852 H 0.25714 0.188 0.40437 0.0
H853 H 0.27557 0.24318 0.56451 0.0
H854 H 0.25653 0.24485 0.54007 0.0
H855 H 0.26063 0.22979 0.58074 0.0
H856 H 0.20891 0.23563 0.49312 0.0
H857 H 0.21904 0.19931 0.59021 0.0
H858 H 0.24109 0.23046 0.42039 0.0
H859 H 0.24566 0.24518 0.46171 0.0
H860 H 0.22657 0.2442 0.43728 0.0
H861 H 0.25372 0.18705 0.54031 0.0
H862 H 0.24343 0.18778 0.59504 0.0
H863 H 0.25878 0.20117 0.58297 0.0
C864 C 0.52058 0.46744 0.26883 0.0
C865 C 0.5309 0.46397 0.30504 0.0
C866 C 0.52054 0.48199 0.24758 0.0
C867 C 0.53083 0.49347 0.26366 0.0
C868 C 0.54109 0.49011 0.30076 0.0
C869 C 0.54113 0.47534 0.32064 0.0
C870 C 0.50965 0.48502 0.20749 0.0
C871 C 0.55201 0.50214 0.31952 0.0
C872 C 0.54119 0.52698 0.18421 0.0
C873 C 0.53118 0.53848 0.20024 0.0
C874 C 0.54103 0.5122 0.20406 0.0
C875 C 0.53088 0.50897 0.24156 0.0
C876 C 0.52082 0.52058 0.25807 0.0
C877 C 0.52097 0.53514 0.23684 0.0
C878 C 0.5517 0.50003 0.18484 0.0
C879 C 0.51006 0.51769 0.29861 0.0
H880 H 0.51275 0.45864 0.25632 0.0
H881 H 0.54908 0.47273 0.34876 0.0
H882 H 0.50181 0.49466 0.21639 0.0
H883 H 0.51625 0.48853 0.17603 0.0
H884 H 0.50258 0.47478 0.1986 0.0
H885 H 0.55891 0.49783 0.34949 0.0
H886 H 0.56 0.50591 0.29153 0.0
H887 H 0.54545 0.51242 0.33099 0.0
H888 H 0.54905 0.52949 0.15579 0.0
H889 H 0.51331 0.54403 0.24969 0.0
H890 H 0.54495 0.48983 0.17364 0.0
H891 H 0.55976 0.49615 0.21248 0.0
H892 H 0.55852 0.50425 0.15458 0.0
H893 H 0.50206 0.50816 0.29003 0.0
H894 H 0.50318 0.52802 0.30779 0.0
H895 H 0.51676 0.5141 0.3298 0.0
C896 C 0.2859 0.76998 0.00813 0.0
C897 C 0.2895 0.7804 0.04395 0.0
C898 C 0.27117 0.76966 0.98797 0.0
C899 C 0.25965 0.77976 0.00479 0.0
C900 C 0.26319 0.79025 0.04114 0.0
C901 C 0.27813 0.79056 0.05992 0.0
C902 C 0.26795 0.75853 0.94866 0.0
C903 C 0.25112 0.80097 0.0607 0.0
C904 C 0.22422 0.78802 0.93056 0.0
C905 C 0.21352 0.77764 0.94933 0.0
C906 C 0.23937 0.78868 0.94778 0.0
C907 C 0.24377 0.77901 0.98535 0.0
C908 C 0.23296 0.7686 0.00458 0.0
C909 C 0.21804 0.76792 0.986 0.0
C910 C 0.25067 0.79971 0.92573 0.0
C911 C 0.23709 0.75832 0.04527 0.0
H912 H 0.2947 0.76221 0.99527 0.0
H913 H 0.28083 0.7986 0.08769 0.0
H914 H 0.25893 0.75023 0.95949 0.0
H915 H 0.26348 0.76482 0.91775 0.0
H916 H 0.27837 0.75198 0.93808 0.0
H917 H 0.25572 0.80842 0.08899 0.0
H918 H 0.24649 0.80842 0.03254 0.0
H919 H 0.24134 0.7942 0.07483 0.0
H920 H 0.2208 0.79552 0.90213 0.0
H921 H 0.20977 0.75999 1.00104 0.0
H922 H 0.26093 0.79333 0.91316 0.0
H923 H 0.25471 0.80814 0.95211 0.0
H924 H 0.24558 0.80609 0.89586 0.0
H925 H 0.24678 0.75065 0.03552 0.0
H926 H 0.22726 0.75108 0.05679 0.0
H927 H 0.24099 0.7654 0.07529 0.0
C928 C 0.97136 0.4788 0.67584 0.0
C929 C 0.96091 0.4675 0.69029 0.0
C930 C 0.97136 0.49346 0.69641 0.0
C931 C 0.96107 0.49664 0.73359 0.0
C932 C 0.9505 0.48522 0.74835 0.0
C933 C 0.95035 0.47086 0.72588 0.0
C934 C 0.98243 0.5055 0.67856 0.0
C935 C 0.9397 0.48799 0.78885 0.0
C936 C 0.97313 0.52901 0.81502 0.0
C937 C 0.96327 0.54088 0.801 0.0
C938 C 0.9722 0.51439 0.79436 0.0
C939 C 0.96159 0.51182 0.75755 0.0
C940 C 0.95171 0.52386 0.74301 0.0
C941 C 0.95248 0.53817 0.76557 0.0
C942 C 0.98257 0.5017 0.81189 0.0
C943 C 0.94064 0.52175 0.70282 0.0
H944 H 0.97949 0.47619 0.64817 0.0
H945 H 0.94241 0.46202 0.73743 0.0
H946 H 0.97611 0.51619 0.66958 0.0
H947 H 0.99086 0.50846 0.70624 0.0
H948 H 0.98886 0.50155 0.64719 0.0
H949 H 0.93225 0.47788 0.79617 0.0
H950 H 0.94644 0.49069 0.82077 0.0
H951 H 0.93223 0.49806 0.78158 0.0
H952 H 0.98143 0.53112 0.8426 0.0
H953 H 0.94498 0.54744 0.75438 0.0
H954 H 0.99064 0.49814 0.78386 0.0
H955 H 0.97561 0.49145 0.82137 0.0
H956 H 0.9894 0.50528 0.84288 0.0
H957 H 0.94708 0.51852 0.67079 0.0
H958 H 0.93389 0.53234 0.69546 0.0
H959 H 0.93251 0.51225 0.7105 0.0
C960 C 0.16361 0.25297 0.9293 0.0
C961 C 0.15335 0.26343 0.94984 0.0
C962 C 0.16243 0.24899 0.88203 0.0
C963 C 0.15035 0.25522 0.85474 0.0
C964 C 0.13955 0.26532 0.87564 0.0
C965 C 0.14134 0.26954 0.92288 0.0
C966 C 0.17443 0.23847 0.86101 0.0
C967 C 0.12622 0.27175 0.84803 0.0
C968 C 0.15907 0.25474 0.72481 0.0
C969 C 0.15348 0.24022 0.71228 0.0
C970 C 0.15738 0.26025 0.77071 0.0
C971 C 0.14945 0.25119 0.80421 0.0
C972 C 0.14266 0.2371 0.79041 0.0
C973 C 0.14504 0.23162 0.74483 0.0
C974 C 0.16517 0.27512 0.78422 0.0
C975 C 0.13366 0.22736 0.82451 0.0
H976 H 0.17305 0.24835 0.94974 0.0
H977 H 0.13339 0.27763 0.93866 0.0
H978 H 0.16889 0.22791 0.84727 0.0
H979 H 0.18018 0.24427 0.83118 0.0
H980 H 0.18337 0.23503 0.88674 0.0
H981 H 0.11812 0.27836 0.87035 0.0
H982 H 0.13058 0.27944 0.82007 0.0
H983 H 0.11982 0.26228 0.83072 0.0
H984 H 0.16567 0.26133 0.69961 0.0
H985 H 0.14057 0.22044 0.7349 0.0
H986 H 0.17509 0.27258 0.80742 0.0
H987 H 0.15717 0.28261 0.80404 0.0
H988 H 0.16944 0.28155 0.75328 0.0
H989 H 0.14171 0.22169 0.8492 0.0
H990 H 0.12689 0.21828 0.80649 0.0
H991 H 0.12571 0.2346 0.84541 0.0
C992 C 0.02641 0.89251 0.99115 0.0
C993 C 0.01896 0.90226 0.95937 0.0
C994 C 0.02047 0.89019 0.03619 0.0
C995 C 0.00712 0.8983 0.05026 0.0
C996 C 0.99912 0.90753 0.0174 0.0
C997 C 0.00503 0.90921 0.97196 0.0
C998 C 0.02904 0.87982 0.06958 0.0
C999 C 0.98507 0.91667 0.03127 0.0
C1000 C 0.98755 0.89113 0.16759 0.0
C1001 C 0.99469 0.90229 0.19561 0.0
C1002 C 0.9918 0.88927 0.12042 0.0
C1003 C 0.00306 0.89913 0.10073 0.0
C1004 C 0.0104 0.91025 0.12916 0.0
C1005 C 0.00629 0.91152 0.17628 0.0
C1006 C 0.9841 0.87696 0.09151 0.0
C1007 C 0.02227 0.92121 0.10946 0.0
H1008 H 0.0371 0.88699 0.98111 0.0
H1009 H 0.99933 0.91678 0.94734 0.0
H1010 H 0.03547 0.88692 0.0952 0.0
H1011 H 0.02088 0.8725 0.08952 0.0
H1012 H 0.03739 0.87229 0.0511 0.0
H1013 H 0.97924 0.9219 1.00058 0.0
H1014 H 0.97671 0.90929 0.05009 0.0
H1015 H 0.98853 0.92603 0.05548 0.0
H1016 H 0.97858 0.88396 0.1824 0.0
H1017 H 0.01176 0.92028 0.19754 0.0
H1018 H 0.99288 0.8699 0.07324 0.0
H1019 H 0.9768 0.88236 0.0643 0.0
H1020 H 0.97677 0.86926 0.1131 0.0
H1021 H 0.03219 0.91468 0.0953 0.0
H1022 H 0.02662 0.92943 0.13609 0.0
H1023 H 0.01721 0.92787 0.08015 0.0
C1024 C 0.35184 0.72262 0.41882 0.0
C1025 C 0.35473 0.73373 0.45323 0.0
C1026 C 0.35181 0.7266 0.37117 0.0
C1027 C 0.35515 0.74193 0.3578 0.0
C1028 C 0.35963 0.75275 0.39227 0.0
C1029 C 0.3591 0.74859 0.43966 0.0
C1030 C 0.34669 0.71478 0.33579 0.0
C1031 C 0.36377 0.76908 0.37945 0.0
C1032 C 0.35906 0.75266 0.22893 0.0
C1033 C 0.34477 0.75962 0.22051 0.0
C1034 C 0.36267 0.74671 0.2734 0.0
C1035 C 0.35153 0.74734 0.30957 0.0
C1036 C 0.33687 0.7538 0.3004 0.0
C1037 C 0.33377 0.76007 0.25628 0.0
C1038 C 0.37855 0.74029 0.28217 0.0
C1039 C 0.32448 0.75434 0.33746 0.0
H1040 H 0.34831 0.71116 0.42923 0.0
H1041 H 0.36141 0.75718 0.46624 0.0
H1042 H 0.33475 0.71743 0.32455 0.0
H1043 H 0.35408 0.71512 0.3042 0.0
H1044 H 0.34688 0.70294 0.35041 0.0
H1045 H 0.36953 0.77517 0.40876 0.0
H1046 H 0.37146 0.76929 0.3485 0.0
H1047 H 0.35315 0.7755 0.37022 0.0
H1048 H 0.36761 0.75242 0.20133 0.0
H1049 H 0.32266 0.76533 0.24965 0.0
H1050 H 0.37779 0.72865 0.29782 0.0
H1051 H 0.38468 0.74773 0.30764 0.0
H1052 H 0.38551 0.73962 0.24965 0.0
H1053 H 0.32265 0.74272 0.3525 0.0
H1054 H 0.31333 0.75861 0.32355 0.0
H1055 H 0.32813 0.76202 0.36638 0.0
C1056 C 0.49498 0.08372 0.68788 0.0
C1057 C 0.50582 0.09366 0.70806 0.0
C1058 C 0.49067 0.08519 0.64097 0.0
C1059 C 0.49693 0.09727 0.61375 0.0
C1060 C 0.50727 0.10788 0.63452 0.0
C1061 C 0.51184 0.10577 0.68133 0.0
C1062 C 0.47993 0.07337 0.62002 0.0
C1063 C 0.51373 0.12121 0.60706 0.0
C1064 C 0.49715 0.08855 0.48393 0.0
C1065 C 0.48277 0.0943 0.47038 0.0
C1066 C 0.50232 0.09011 0.53019 0.0
C1067 C 0.49309 0.09809 0.5631 0.0
C1068 C 0.47912 0.10497 0.54848 0.0
C1069 C 0.47396 0.10271 0.50248 0.0
C1070 C 0.51706 0.08222 0.54457 0.0
C1071 C 0.46925 0.11405 0.582 0.0
H1072 H 0.49041 0.07422 0.70816 0.0
H1073 H 0.5202 0.11349 0.69684 0.0
H1074 H 0.46952 0.07908 0.60579 0.0
H1075 H 0.48571 0.06742 0.59053 0.0
H1076 H 0.47622 0.06459 0.6459 0.0
H1077 H 0.51999 0.12949 0.62976 0.0
H1078 H 0.52181 0.11689 0.58009 0.0
H1079 H 0.50435 0.1274 0.5886 0.0
H1080 H 0.50393 0.08199 0.45911 0.0
H1081 H 0.46292 0.10733 0.49177 0.0
H1082 H 0.51434 0.07257 0.56862 0.0
H1083 H 0.52464 0.0903 0.56377 0.0
H1084 H 0.52349 0.07757 0.51413 0.0
H1085 H 0.46342 0.10608 0.60658 0.0
H1086 H 0.46029 0.12084 0.56349 0.0
H1087 H 0.47644 0.12199 0.6031 0.0
C1088 C 0.15955 0.74241 0.77012 0.0
C1089 C 0.15337 0.75655 0.78405 0.0
C1090 C 0.15765 0.73714 0.72408 0.0
C1091 C 0.14891 0.746 0.69201 0.0
C1092 C 0.14146 0.75956 0.70747 0.0
C1093 C 0.14408 0.76487 0.75308 0.0
C1094 C 0.16615 0.72286 0.70876 0.0
C1095 C 0.13157 0.76902 0.67497 0.0
C1096 C 0.16277 0.74641 0.56666 0.0
C1097 C 0.15325 0.7354 0.54552 0.0
C1098 C 0.16139 0.7499 0.61419 0.0
C1099 C 0.14983 0.74262 0.64112 0.0
C1100 C 0.13968 0.732 0.61957 0.0
C1101 C 0.14172 0.72826 0.57206 0.0
C1102 C 0.17272 0.76102 0.63588 0.0
C1103 C 0.12686 0.72446 0.6468 0.0
H1104 H 0.16681 0.73606 0.79418 0.0
H1105 H 0.13919 0.77574 0.76419 0.0
H1106 H 0.15847 0.71513 0.68862 0.0
H1107 H 0.17579 0.72619 0.68537 0.0
H1108 H 0.17096 0.71637 0.73887 0.0
H1109 H 0.12428 0.77734 0.6944 0.0
H1110 H 0.13904 0.77557 0.6506 0.0
H1111 H 0.12403 0.76148 0.65361 0.0
H1112 H 0.17184 0.75182 0.54649 0.0
H1113 H 0.13435 0.71975 0.55576 0.0
H1114 H 0.17893 0.75534 0.66508 0.0
H1115 H 0.16653 0.77106 0.65064 0.0
H1116 H 0.18135 0.76529 0.6103 0.0
H1117 H 0.13177 0.71649 0.67315 0.0
H1118 H 0.11894 0.71786 0.62384 0.0
H1119 H 0.12012 0.73327 0.66603 0.0
C1120 C 0.48639 0.89305 0.02062 0.0
C1121 C 0.4789 0.9071 0.02839 0.0
C1122 C 0.49221 0.88932 0.97615 0.0
C1123 C 0.49101 0.90016 0.93935 0.0
C1124 C 0.48383 0.91454 0.94764 0.0
C1125 C 0.47758 0.91769 0.99181 0.0
C1126 C 0.49927 0.87367 0.96823 0.0
C1127 C 0.48274 0.92664 0.90986 0.0
C1128 C 0.517 0.89972 0.8328 0.0
C1129 C 0.50644 0.89604 0.79752 0.0
C1130 C 0.51238 0.90031 0.87983 0.0
C1131 C 0.49699 0.89658 0.89178 0.0
C1132 C 0.48675 0.89139 0.85661 0.0
C1133 C 0.4915 0.89151 0.8097 0.0
C1134 C 0.52355 0.90633 0.9159 0.0
C1135 C 0.47044 0.88673 0.86807 0.0
H1136 H 0.48727 0.88481 0.04894 0.0
H1137 H 0.47188 0.9286 0.99803 0.0
H1138 H 0.49263 0.86742 0.94108 0.0
H1139 H 0.51122 0.87487 0.95506 0.0
H1140 H 0.49947 0.86661 1.0006 0.0
H1141 H 0.4778 0.93761 0.92299 0.0
H1142 H 0.49432 0.92901 0.89515 0.0
H1143 H 0.4754 0.9224 0.88087 0.0
H1144 H 0.52849 0.90346 0.82328 0.0
H1145 H 0.48335 0.88866 0.78235 0.0
H1146 H 0.52341 0.89906 0.94773 0.0
H1147 H 0.52002 0.91809 0.92649 0.0
H1148 H 0.53552 0.90685 0.90227 0.0
H1149 H 0.47017 0.87933 0.89967 0.0
H1150 H 0.46492 0.88047 0.83867 0.0
H1151 H 0.4635 0.89714 0.87569 0.0
C1152 C 0.35976 0.26888 0.07721 0.0
C1153 C 0.34771 0.26292 0.05009 0.0
C1154 C 0.36149 0.26455 0.12438 0.0
C1155 C 0.35059 0.25451 0.14508 0.0
C1156 C 0.33846 0.24846 0.11763 0.0
C1157 C 0.33734 0.25253 0.07042 0.0
C1158 C 0.37488 0.27079 0.15214 0.0
C1159 C 0.32635 0.238 0.13843 0.0
C1160 C 0.35584 0.23064 0.25452 0.0
C1161 C 0.34755 0.23925 0.28739 0.0
C1162 C 0.35816 0.23617 0.20898 0.0
C1163 C 0.35147 0.25034 0.19552 0.0
C1164 C 0.34367 0.25939 0.2293 0.0
C1165 C 0.34203 0.25383 0.27517 0.0
C1166 C 0.36701 0.22641 0.17457 0.0
C1167 C 0.33598 0.27435 0.21615 0.0
H1168 H 0.3678 0.27692 0.06159 0.0
H1169 H 0.32787 0.24804 0.04985 0.0
H1170 H 0.37059 0.27839 0.18043 0.0
H1171 H 0.38124 0.26122 0.16904 0.0
H1172 H 0.383 0.27746 0.13003 0.0
H1173 H 0.31737 0.23472 0.11263 0.0
H1174 H 0.33178 0.22735 0.15195 0.0
H1175 H 0.32066 0.24379 0.16839 0.0
H1176 H 0.36024 0.21941 0.26421 0.0
H1177 H 0.33554 0.26043 0.3006 0.0
H1178 H 0.37502 0.23362 0.15376 0.0
H1179 H 0.35888 0.2209 0.14983 0.0
H1180 H 0.37371 0.21722 0.19231 0.0
H1181 H 0.34402 0.28183 0.19645 0.0
H1182 H 0.33176 0.28074 0.24725 0.0
H1183 H 0.32603 0.27193 0.19293 0.0
C1184 C 0.01212 0.10374 0.53752 0.0
C1185 C 0.01942 0.08956 0.54477 0.0
C1186 C 0.00574 0.10744 0.49368 0.0
C1187 C 0.0063 0.09649 0.45701 0.0
C1188 C 0.01295 0.08186 0.46525 0.0
C1189 C 0.01967 0.07869 0.50872 0.0
C1190 C 0.99914 0.12329 0.48594 0.0
C1191 C 0.01338 0.06965 0.42767 0.0
C1192 C 0.98156 0.09764 0.34779 0.0
C1193 C 0.99269 0.10078 0.31363 0.0
C1194 C 0.98553 0.09719 0.39542 0.0
C1195 C 0.00088 0.1004 0.40902 0.0
C1196 C 0.01172 0.10512 0.37489 0.0
C1197 C 0.00757 0.10496 0.32747 0.0
C1198 C 0.9737 0.0918 0.43041 0.0
C1199 C 0.02806 0.10917 0.38801 0.0
H1200 H 0.01209 0.11221 0.56535 0.0
H1201 H 0.02523 0.06769 0.51452 0.0
H1202 H 0.00669 0.12977 0.46163 0.0
H1203 H 0.98761 0.12256 0.46942 0.0
H1204 H 0.99814 0.1299 0.51905 0.0
H1205 H 0.01757 0.05842 0.44114 0.0
H1206 H 0.00173 0.06798 0.41255 0.0
H1207 H 0.0211 0.07337 0.39892 0.0
H1208 H 0.97008 0.09422 0.33708 0.0
H1209 H 0.01617 0.10744 0.30104 0.0
H1210 H 0.97407 0.0989 0.4626 0.0
H1211 H 0.97631 0.07977 0.44066 0.0
H1212 H 0.96185 0.09216 0.41584 0.0
H1213 H 0.02825 0.1167 0.41933 0.0
H1214 H 0.03419 0.11508 0.35904 0.0
H1215 H 0.03447 0.09851 0.39679 0.0
C1216 C 0.83691 0.74764 0.07638 0.0
C1217 C 0.84619 0.73654 0.05472 0.0
C1218 C 0.83881 0.75136 0.12361 0.0
C1219 C 0.85063 0.74417 0.14972 0.0
C1220 C 0.86047 0.73337 0.12768 0.0
C1221 C 0.85795 0.72946 0.0805 0.0
C1222 C 0.82782 0.76268 0.14587 0.0
C1223 C 0.87352 0.72588 0.15401 0.0
C1224 C 0.85827 0.76726 0.25912 0.0
C1225 C 0.84928 0.75938 0.29197 0.0
C1226 C 0.86013 0.76155 0.21361 0.0
C1227 C 0.85228 0.74797 0.20022 0.0
C1228 C 0.84389 0.73952 0.23413 0.0
C1229 C 0.84271 0.74522 0.27995 0.0
C1230 C 0.86963 0.77061 0.17906 0.0
C1231 C 0.83501 0.72522 0.2211 0.0
H1232 H 0.82767 0.75302 0.05685 0.0
H1233 H 0.86514 0.72087 0.06384 0.0
H1234 H 0.82195 0.75725 0.17613 0.0
H1235 H 0.83425 0.77278 0.15924 0.0
H1236 H 0.8189 0.76683 0.12102 0.0
H1237 H 0.88091 0.71876 0.13085 0.0
H1238 H 0.88075 0.73478 0.17104 0.0
H1239 H 0.86885 0.71843 0.1821 0.0
H1240 H 0.86348 0.77816 0.26867 0.0
H1241 H 0.83569 0.73919 0.30538 0.0
H1242 H 0.86188 0.777 0.15511 0.0
H1243 H 0.8768 0.76281 0.15742 0.0
H1244 H 0.87726 0.77905 0.19679 0.0
H1245 H 0.82502 0.72849 0.19905 0.0
H1246 H 0.83067 0.71899 0.25235 0.0
H1247 H 0.84227 0.71728 0.20028 0.0
C1248 C 0.00586 0.09098 0.03531 0.0
C1249 C 0.9915 0.09715 0.04713 0.0
C1250 C 0.01164 0.09235 0.98958 0.0
C1251 C 0.00303 0.10051 0.95552 0.0
C1252 C 0.98915 0.10788 0.96861 0.0
C1253 C 0.9834 0.10585 0.01403 0.0
C1254 C 0.02628 0.08399 0.97686 0.0
C1255 C 0.97988 0.11711 0.9339 0.0
C1256 C 0.022 0.10768 0.8371 0.0
C1257 C 0.01557 0.09581 0.81024 0.0
C1258 C 0.01773 0.10971 0.88423 0.0
C1259 C 0.00722 0.09931 0.90514 0.0
C1260 C 0.00066 0.08738 0.87794 0.0
C1261 C 0.00474 0.08595 0.83079 0.0
C1262 C 0.02456 0.12285 0.91174 0.0
C1263 C 0.98964 0.07583 0.89893 0.0
H1264 H 0.01207 0.08418 0.06088 0.0
H1265 H 0.97235 0.11077 0.02338 0.0
H1266 H 0.02346 0.07407 0.95399 0.0
H1267 H 0.03412 0.09163 0.95696 0.0
H1268 H 0.03245 0.07963 0.00819 0.0
H1269 H 0.97099 0.12427 0.95137 0.0
H1270 H 0.9875 0.12472 0.91304 0.0
H1271 H 0.97401 0.1092 0.90922 0.0
H1272 H 0.03038 0.11533 0.82135 0.0
H1273 H 0.99985 0.07663 0.81046 0.0
H1274 H 0.03195 0.11829 0.94015 0.0
H1275 H 0.01527 0.12967 0.92847 0.0
H1276 H 0.03159 0.13062 0.88948 0.0
H1277 H 0.99515 0.06996 0.92905 0.0
H1278 H 0.98596 0.06696 0.87331 0.0
H1279 H 0.97924 0.08177 0.91227 0.0
C1280 C 0.64239 0.248 0.58558 0.0
C1281 C 0.64618 0.26309 0.57295 0.0
C1282 C 0.64203 0.2435 0.63271 0.0
C1283 C 0.64616 0.25422 0.66787 0.0
C1284 C 0.6491 0.26972 0.65542 0.0
C1285 C 0.64883 0.27403 0.60803 0.0
C1286 C 0.6383 0.22699 0.64454 0.0
C1287 C 0.65391 0.28143 0.69151 0.0
C1288 C 0.64158 0.24241 0.79565 0.0
C1289 C 0.65583 0.23542 0.80421 0.0
C1290 C 0.63823 0.24882 0.75157 0.0
C1291 C 0.64962 0.24863 0.71605 0.0
C1292 C 0.6643 0.24225 0.72565 0.0
C1293 C 0.6671 0.23546 0.76927 0.0
C1294 C 0.62233 0.25509 0.74231 0.0
C1295 C 0.67695 0.24222 0.68941 0.0
H1296 H 0.64031 0.23954 0.55845 0.0
H1297 H 0.65197 0.28567 0.59827 0.0
H1298 H 0.64903 0.22082 0.65404 0.0
H1299 H 0.63044 0.22641 0.67508 0.0
H1300 H 0.63286 0.22088 0.61468 0.0
H1301 H 0.65359 0.29334 0.67748 0.0
H1302 H 0.64643 0.2808 0.72285 0.0
H1303 H 0.66585 0.2789 0.70301 0.0
H1304 H 0.63281 0.2422 0.82262 0.0
H1305 H 0.67815 0.23009 0.77609 0.0
H1306 H 0.61639 0.24762 0.71654 0.0
H1307 H 0.62301 0.26677 0.72685 0.0
H1308 H 0.61523 0.25562 0.77459 0.0
H1309 H 0.67373 0.23454 0.66002 0.0
H1310 H 0.68811 0.23821 0.70395 0.0
H1311 H 0.67855 0.25395 0.67487 0.0
C1312 C 0.49754 0.91447 0.31546 0.0
C1313 C 0.48652 0.90496 0.29436 0.0
C1314 C 0.50151 0.91267 0.36257 0.0
C1315 C 0.49467 0.90071 0.38902 0.0
C1316 C 0.48388 0.89073 0.36756 0.0
C1317 C 0.4797 0.89316 0.32056 0.0
C1318 C 0.51278 0.92383 0.38431 0.0
C1319 C 0.47675 0.87756 0.39423 0.0
C1320 C 0.51821 0.89252 0.49751 0.0
C1321 C 0.5102 0.90097 0.53137 0.0
C1322 C 0.51252 0.89117 0.45178 0.0
C1323 C 0.49884 0.89901 0.43924 0.0
C1324 C 0.49036 0.90699 0.47394 0.0
C1325 C 0.49603 0.90766 0.51988 0.0
C1326 C 0.52163 0.8821 0.4163 0.0
C1327 C 0.47596 0.91587 0.46182 0.0
H1328 H 0.50269 0.92374 0.29551 0.0
H1329 H 0.47119 0.88579 0.30426 0.0
H1330 H 0.50742 0.92955 0.41494 0.0
H1331 H 0.52308 0.91757 0.39705 0.0
H1332 H 0.51661 0.93283 0.35931 0.0
H1333 H 0.46931 0.87028 0.37171 0.0
H1334 H 0.48591 0.87025 0.40966 0.0
H1335 H 0.46972 0.88205 0.42356 0.0
H1336 H 0.52911 0.88723 0.50659 0.0
H1337 H 0.4899 0.91429 0.54605 0.0
H1338 H 0.52764 0.89011 0.39228 0.0
H1339 H 0.51386 0.87483 0.39482 0.0
H1340 H 0.53038 0.87461 0.43314 0.0
H1341 H 0.47907 0.92589 0.43971 0.0
H1342 H 0.46989 0.92014 0.49344 0.0
H1343 H 0.46792 0.90863 0.44131 0.0
C1344 C 0.8535 0.22791 0.23981 0.0
C1345 C 0.84431 0.23563 0.2071 0.0
C1346 C 0.85567 0.23386 0.28491 0.0
C1347 C 0.84798 0.24754 0.29805 0.0
C1348 C 0.83934 0.2558 0.2643 0.0
C1349 C 0.83779 0.24984 0.21888 0.0
C1350 C 0.86539 0.22496 0.31931 0.0
C1351 C 0.83067 0.27025 0.27713 0.0
C1352 C 0.83404 0.24927 0.42333 0.0
C1353 C 0.84373 0.26042 0.44301 0.0
C1354 C 0.83536 0.24505 0.3763 0.0
C1355 C 0.84697 0.25182 0.34833 0.0
C1356 C 0.85723 0.26264 0.36836 0.0
C1357 C 0.85534 0.26701 0.41542 0.0
C1358 C 0.82398 0.23366 0.35623 0.0
C1359 C 0.87004 0.26972 0.33995 0.0
H1360 H 0.85871 0.217 0.23045 0.0
H1361 H 0.83064 0.25577 0.19358 0.0
H1362 H 0.87292 0.23285 0.33949 0.0
H1363 H 0.8578 0.21896 0.34462 0.0
H1364 H 0.87268 0.21622 0.30166 0.0
H1365 H 0.82595 0.27621 0.2459 0.0
H1366 H 0.82097 0.26725 0.30066 0.0
H1367 H 0.83824 0.27834 0.29635 0.0
H1368 H 0.82493 0.24423 0.44425 0.0
H1369 H 0.86286 0.27564 0.4305 0.0
H1370 H 0.83014 0.22342 0.34269 0.0
H1371 H 0.81775 0.23894 0.3264 0.0
H1372 H 0.81539 0.22977 0.38246 0.0
H1373 H 0.87696 0.26058 0.32291 0.0
H1374 H 0.87779 0.27696 0.36164 0.0
H1375 H 0.86512 0.27696 0.31176 0.0
C1376 C 0.50214 0.09884 0.19073 0.0
C1377 C 0.48729 0.09445 0.20434 0.0
C1378 C 0.50631 0.0992 0.14336 0.0
C1379 C 0.49555 0.09447 0.10904 0.0
C1380 C 0.48026 0.09091 0.12248 0.0
C1381 C 0.47625 0.09117 0.17006 0.0
C1382 C 0.52258 0.10361 0.1304 0.0
C1383 C 0.46854 0.08545 0.08724 0.0
C1384 C 0.5061 0.09907 0.98045 0.0
C1385 C 0.51355 0.08507 0.97171 0.0
C1386 C 0.49999 0.10233 0.02493 0.0
C1387 C 0.50096 0.0911 0.06072 0.0
C1388 C 0.50786 0.07668 0.05113 0.0
C1389 C 0.51432 0.07396 0.00702 0.0
C1390 C 0.49313 0.11799 0.0342 0.0
C1391 C 0.50873 0.06419 0.08777 0.0
H1392 H 0.51066 0.10145 0.21728 0.0
H1393 H 0.4648 0.0876 0.18064 0.0
H1394 H 0.52915 0.09313 0.1208 0.0
H1395 H 0.52261 0.11137 0.09961 0.0
H1396 H 0.52865 0.10939 0.15971 0.0
H1397 H 0.45671 0.08525 0.10202 0.0
H1398 H 0.46859 0.09288 0.05574 0.0
H1399 H 0.47155 0.07363 0.0758 0.0
H1400 H 0.50565 0.10772 0.95315 0.0
H1401 H 0.52 0.06309 1.00005 0.0
H1402 H 0.50046 0.12426 0.05965 0.0
H1403 H 0.48154 0.11687 0.05006 0.0
H1404 H 0.4922 0.125 0.00186 0.0
H1405 H 0.51642 0.06788 0.11661 0.0
H1406 H 0.51318 0.05318 0.07338 0.0
H1407 H 0.49717 0.06209 0.10304 0.0
C1408 C 0.64198 0.75255 0.92856 0.0
C1409 C 0.64583 0.7376 0.94259 0.0
C1410 C 0.64209 0.75668 0.88114 0.0
C1411 C 0.64672 0.74575 0.84722 0.0
C1412 C 0.64955 0.73035 0.86096 0.0
C1413 C 0.64885 0.7264 0.90857 0.0
C1414 C 0.63846 0.77309 0.86784 0.0
C1415 C 0.65482 0.7184 0.82618 0.0
C1416 C 0.64432 0.75681 0.71842 0.0
C1417 C 0.65875 0.76367 0.71164 0.0
C1418 C 0.6402 0.75069 0.76225 0.0
C1419 C 0.65098 0.75105 0.79942 0.0
C1420 C 0.66584 0.75731 0.79178 0.0
C1421 C 0.66942 0.76378 0.74827 0.0
C1422 C 0.62414 0.74451 0.76936 0.0
C1423 C 0.67786 0.75753 0.82996 0.0
H1424 H 0.63959 0.7612 0.95487 0.0
H1425 H 0.652 0.71487 0.91941 0.0
H1426 H 0.6493 0.77927 0.85961 0.0
H1427 H 0.6311 0.77344 0.83614 0.0
H1428 H 0.63252 0.77934 0.89652 0.0
H1429 H 0.65415 0.70657 0.84077 0.0
H1430 H 0.64785 0.71891 0.79375 0.0
H1431 H 0.66696 0.72075 0.81636 0.0
H1432 H 0.63601 0.75687 0.69013 0.0
H1433 H 0.68062 0.769 0.74285 0.0
H1434 H 0.61778 0.75218 0.79362 0.0
H1435 H 0.62451 0.73295 0.78571 0.0
H1436 H 0.61762 0.74375 0.73604 0.0
H1437 H 0.67413 0.76533 0.85849 0.0
H1438 H 0.68925 0.7615 0.81703 0.0
H1439 H 0.67922 0.74587 0.8452 0.0
C1440 C 0.97758 0.89587 0.49269 0.0
C1441 C 0.98607 0.90422 0.45969 0.0
C1442 C 0.98332 0.89337 0.53788 0.0
C1443 C 0.99763 0.8999 0.5508 0.0
C1444 C 0.00658 0.90773 0.51684 0.0
C1445 C 0.00078 0.90959 0.47134 0.0
C1446 C 0.97365 0.88453 0.57253 0.0
C1447 C 0.02171 0.91519 0.52945 0.0
C1448 C 0.00057 0.9137 0.67598 0.0
C1449 C 0.01086 0.9031 0.69568 0.0
C1450 C 0.99627 0.91275 0.62893 0.0
C1451 C 0.00204 0.90061 0.60101 0.0
C1452 C 0.01199 0.8895 0.62104 0.0
C1453 C 0.0165 0.89102 0.6681 0.0
C1454 C 0.98588 0.92503 0.60882 0.0
C1455 C 0.01795 0.87613 0.59269 0.0
H1456 H 0.96628 0.89154 0.48342 0.0
H1457 H 0.00731 0.91609 0.44578 0.0
H1458 H 0.98088 0.87637 0.59271 0.0
H1459 H 0.96837 0.89264 0.59783 0.0
H1460 H 0.96426 0.87801 0.55511 0.0
H1461 H 0.02801 0.91938 0.49813 0.0
H1462 H 0.01954 0.92512 0.55293 0.0
H1463 H 0.02919 0.90701 0.54867 0.0
H1464 H 0.9963 0.92318 0.69691 0.0
H1465 H 0.02447 0.88281 0.68322 0.0
H1466 H 0.97512 0.91977 0.59548 0.0
H1467 H 0.99164 0.93074 0.57884 0.0
H1468 H 0.98279 0.93396 0.63498 0.0
H1469 H 0.00822 0.86993 0.57605 0.0
H1470 H 0.02463 0.86787 0.61431 0.0
H1471 H 0.02547 0.88041 0.56418 0.0
C1472 C 0.64034 0.76631 0.42006 0.0
C1473 C 0.65218 0.75953 0.44624 0.0
C1474 C 0.63794 0.76216 0.373 0.0
C1475 C 0.64799 0.75144 0.35145 0.0
C1476 C 0.65991 0.74457 0.37795 0.0
C1477 C 0.66169 0.74851 0.42508 0.0
C1478 C 0.62479 0.7693 0.34628 0.0
C1479 C 0.67114 0.73337 0.35621 0.0
C1480 C 0.64059 0.72796 0.24245 0.0
C1481 C 0.6493 0.73598 0.20921 0.0
C1482 C 0.6388 0.73368 0.28801 0.0
C1483 C 0.64645 0.74741 0.30106 0.0
C1484 C 0.65464 0.75593 0.26687 0.0
C1485 C 0.65574 0.75022 0.22103 0.0
C1486 C 0.62952 0.72453 0.32288 0.0
C1487 C 0.66333 0.77038 0.27953 0.0
H1488 H 0.63298 0.77483 0.43633 0.0
H1489 H 0.671 0.74338 0.44491 0.0
H1490 H 0.62935 0.77669 0.31785 0.0
H1491 H 0.61771 0.7602 0.32964 0.0
H1492 H 0.61727 0.77641 0.36907 0.0
H1493 H 0.68009 0.72948 0.38131 0.0
H1494 H 0.66491 0.72311 0.34307 0.0
H1495 H 0.67695 0.73881 0.32585 0.0
H1496 H 0.63547 0.71701 0.2331 0.0
H1497 H 0.66256 0.75636 0.19534 0.0
H1498 H 0.62216 0.73225 0.34423 0.0
H1499 H 0.63741 0.71843 0.34708 0.0
H1500 H 0.62209 0.71584 0.30549 0.0
H1501 H 0.65593 0.77831 0.29994 0.0
H1502 H 0.66765 0.77655 0.24815 0.0
H1503 H 0.67332 0.76733 0.30189 0.0
C1504 C 0.47389 0.4016 0.68182 0.0
C1505 C 0.48526 0.39839 0.71522 0.0
C1506 C 0.4774 0.4015 0.63387 0.0
C1507 C 0.49251 0.39774 0.61921 0.0
C1508 C 0.50348 0.39279 0.65263 0.0
C1509 C 0.49979 0.39341 0.70035 0.0
C1510 C 0.46541 0.40702 0.59956 0.0
C1511 C 0.51957 0.38821 0.63838 0.0
C1512 C 0.50257 0.39466 0.48975 0.0
C1513 C 0.50982 0.40886 0.48218 0.0
C1514 C 0.49665 0.39083 0.53409 0.0
C1515 C 0.4977 0.40164 0.57103 0.0
C1516 C 0.50442 0.41624 0.56274 0.0
C1517 C 0.51059 0.41956 0.51866 0.0
C1518 C 0.48988 0.37506 0.54186 0.0
C1519 C 0.50542 0.42828 0.60074 0.0
H1520 H 0.46266 0.40554 0.6932 0.0
H1521 H 0.50856 0.3908 0.72613 0.0
H1522 H 0.46813 0.419 0.58903 0.0
H1523 H 0.46544 0.39988 0.56745 0.0
H1524 H 0.45367 0.40686 0.61494 0.0
H1525 H 0.52569 0.38206 0.66691 0.0
H1526 H 0.51929 0.38073 0.60698 0.0
H1527 H 0.52627 0.39866 0.62934 0.0
H1528 H 0.50207 0.38634 0.46157 0.0
H1529 H 0.51606 0.4306 0.5127 0.0
H1530 H 0.47848 0.37592 0.55907 0.0
H1531 H 0.49749 0.36841 0.5656 0.0
H1532 H 0.48858 0.36855 0.50868 0.0
H1533 H 0.4939 0.43025 0.6164 0.0
H1534 H 0.5099 0.43943 0.58753 0.0
H1535 H 0.51315 0.4242 0.62903 0.0
C1536 C 0.83691 0.25421 0.71865 0.0
C1537 C 0.84277 0.26872 0.70708 0.0
C1538 C 0.83863 0.24829 0.76407 0.0
C1539 C 0.84679 0.25692 0.79806 0.0
C1540 C 0.85379 0.271 0.78523 0.0
C1541 C 0.85146 0.27687 0.74011 0.0
C1542 C 0.83068 0.2334 0.77657 0.0
C1543 C 0.86299 0.28032 0.81992 0.0
C1544 C 0.83311 0.25419 0.9235 0.0
C1545 C 0.84345 0.24358 0.94292 0.0
C1546 C 0.83411 0.25852 0.87648 0.0
C1547 C 0.84603 0.25244 0.84825 0.0
C1548 C 0.85688 0.24215 0.86797 0.0
C1549 C 0.85532 0.23763 0.91503 0.0
C1550 C 0.82211 0.26931 0.85673 0.0
C1551 C 0.87 0.23581 0.83928 0.0
H1552 H 0.83016 0.24794 0.69311 0.0
H1553 H 0.85617 0.28802 0.73093 0.0
H1554 H 0.83864 0.22564 0.79559 0.0
H1555 H 0.82085 0.23586 0.80022 0.0
H1556 H 0.82625 0.22729 0.74523 0.0
H1557 H 0.86977 0.28953 0.80257 0.0
H1558 H 0.85507 0.28578 0.84544 0.0
H1559 H 0.87096 0.27281 0.83982 0.0
H1560 H 0.8238 0.25871 0.94465 0.0
H1561 H 0.86334 0.22942 0.9299 0.0
H1562 H 0.81615 0.26377 0.82681 0.0
H1563 H 0.82769 0.27991 0.84339 0.0
H1564 H 0.81333 0.27265 0.8831 0.0
H1565 H 0.86543 0.2285 0.8107 0.0
H1566 H 0.87808 0.22883 0.86063 0.0
H1567 H 0.8765 0.24536 0.82271 0.0
C1568 C 0.02262 0.59511 0.17932 0.0
C1569 C 0.01243 0.59945 0.21491 0.0
C1570 C 0.01807 0.59557 0.13223 0.0
C1571 C 0.00317 0.60097 0.1206 0.0
C1572 C 0.9934 0.6067 0.15623 0.0
C1573 C 0.99804 0.60558 0.20312 0.0
C1574 C 0.02868 0.58897 0.09555 0.0
C1575 C 0.97766 0.61307 0.14517 0.0
C1576 C 0.99353 0.60718 0.99202 0.0
C1577 C 0.98492 0.59393 0.98213 0.0
C1578 C 0.99938 0.60982 0.03717 0.0
C1579 C 0.997 0.59866 0.07254 0.0
C1580 C 0.98858 0.58512 0.06226 0.0
C1581 C 0.98241 0.58306 0.01742 0.0
C1582 C 0.00784 0.62461 0.04725 0.0
C1583 C 0.98616 0.57271 0.09853 0.0
H1584 H 0.03369 0.59019 0.18847 0.0
H1585 H 0.99018 0.60899 0.23069 0.0
H1586 H 0.02396 0.57784 0.08307 0.0
H1587 H 0.02945 0.59673 0.06488 0.0
H1588 H 0.04047 0.58695 0.10932 0.0
H1589 H 0.97266 0.61941 0.1753 0.0
H1590 H 0.97821 0.62092 0.11462 0.0
H1591 H 0.96977 0.6035 0.13599 0.0
H1592 H 0.99537 0.61564 0.96473 0.0
H1593 H 0.97588 0.57275 0.00964 0.0
H1594 H 0.01967 0.6221 0.0597 0.0
H1595 H 0.00189 0.63097 0.07563 0.0
H1596 H 0.00859 0.63217 0.01602 0.0
H1597 H 0.99741 0.56895 0.11293 0.0
H1598 H 0.98012 0.5625 0.08407 0.0
H1599 H 0.97927 0.57731 0.12803 0.0
C1600 C 0.65572 0.25154 0.29516 0.0
C1601 C 0.64978 0.26607 0.30613 0.0
C1602 C 0.65452 0.2456 0.24956 0.0
C1603 C 0.64678 0.25422 0.21466 0.0
C1604 C 0.63973 0.26836 0.22671 0.0
C1605 C 0.64156 0.27425 0.27207 0.0
C1606 C 0.66253 0.23067 0.23799 0.0
C1607 C 0.63096 0.2777 0.19105 0.0
C1608 C 0.66134 0.2511 0.09003 0.0
C1609 C 0.65105 0.24053 0.07009 0.0
C1610 C 0.66006 0.25552 0.13695 0.0
C1611 C 0.64791 0.24959 0.16457 0.0
C1612 C 0.63714 0.2393 0.14432 0.0
C1613 C 0.63899 0.23468 0.09742 0.0
C1614 C 0.672 0.26626 0.15726 0.0
C1615 C 0.62377 0.23312 0.17226 0.0
H1616 H 0.66216 0.24525 0.32141 0.0
H1617 H 0.63682 0.28543 0.28067 0.0
H1618 H 0.65471 0.22289 0.21855 0.0
H1619 H 0.67256 0.23306 0.21503 0.0
H1620 H 0.6667 0.22463 0.26978 0.0
H1621 H 0.62412 0.28702 0.20759 0.0
H1622 H 0.63916 0.283 0.16606 0.0
H1623 H 0.62309 0.27021 0.17065 0.0
H1624 H 0.67081 0.25553 0.06935 0.0
H1625 H 0.63102 0.2265 0.08218 0.0
H1626 H 0.67768 0.26076 0.18775 0.0
H1627 H 0.66642 0.27694 0.16992 0.0
H1628 H 0.68101 0.26945 0.13143 0.0
H1629 H 0.62808 0.22596 0.20156 0.0
H1630 H 0.61587 0.22603 0.15061 0.0
H1631 H 0.61715 0.24276 0.18782 0.0
C1632 C 0.98957 0.39918 0.5032 0.0
C1633 C 0.98178 0.41299 0.51207 0.0
C1634 C 0.99504 0.39575 0.45817 0.0
C1635 C 0.99312 0.40666 0.4219 0.0
C1636 C 0.98557 0.42078 0.43116 0.0
C1637 C 0.97973 0.42364 0.47595 0.0
C1638 C 0.00255 0.38038 0.44916 0.0
C1639 C 0.98369 0.43293 0.3938 0.0
C1640 C 0.01801 0.40805 0.31349 0.0
C1641 C 0.00723 0.40425 0.27899 0.0
C1642 C 0.0139 0.40797 0.36092 0.0
C1643 C 0.99882 0.40349 0.37389 0.0
C1644 C 0.98844 0.3981 0.33938 0.0
C1645 C 0.99268 0.39886 0.29213 0.0
C1646 C 0.02518 0.41415 0.39642 0.0
C1647 C 0.97247 0.39267 0.35199 0.0
H1648 H 0.99102 0.3909 0.53121 0.0
H1649 H 0.97381 0.43437 0.48303 0.0
H1650 H 0.99592 0.37401 0.42223 0.0
H1651 H 0.01435 0.38203 0.43523 0.0
H1652 H 0.00322 0.3732 0.48123 0.0
H1653 H 0.97841 0.44365 0.40757 0.0
H1654 H 0.99505 0.43581 0.37835 0.0
H1655 H 0.97631 0.42848 0.3652 0.0
H1656 H 0.02922 0.41238 0.30323 0.0
H1657 H 0.98437 0.39585 0.26533 0.0
H1658 H 0.02556 0.40671 0.42786 0.0
H1659 H 0.02137 0.42574 0.40789 0.0
H1660 H 0.03699 0.41514 0.38187 0.0
H1661 H 0.97281 0.38512 0.38326 0.0
H1662 H 0.96697 0.38629 0.32276 0.0
H1663 H 0.96515 0.40273 0.36061 0.0
C1664 C 0.85371 0.74041 0.78291 0.0
C1665 C 0.83937 0.73332 0.78936 0.0
C1666 C 0.85784 0.74658 0.73916 0.0
C1667 C 0.84717 0.74602 0.70172 0.0
C1668 C 0.83239 0.73954 0.70904 0.0
C1669 C 0.82879 0.73304 0.7525 0.0
C1670 C 0.87382 0.753 0.73241 0.0
C1671 C 0.82047 0.7391 0.67057 0.0
C1672 C 0.84916 0.77039 0.59201 0.0
C1673 C 0.8524 0.75913 0.55836 0.0
C1674 C 0.84846 0.76659 0.63972 0.0
C1675 C 0.85149 0.75127 0.65393 0.0
C1676 C 0.85637 0.74031 0.6204 0.0
C1677 C 0.85649 0.7443 0.57287 0.0
C1678 C 0.84295 0.77855 0.67408 0.0
C1679 C 0.86023 0.724 0.63421 0.0
H1680 H 0.86194 0.74049 0.81139 0.0
H1681 H 0.81766 0.72765 0.75767 0.0
H1682 H 0.88041 0.74533 0.70871 0.0
H1683 H 0.87333 0.76448 0.71559 0.0
H1684 H 0.88019 0.75401 0.76595 0.0
H1685 H 0.8091 0.73501 0.68327 0.0
H1686 H 0.819 0.75072 0.65512 0.0
H1687 H 0.82439 0.73131 0.64226 0.0
H1688 H 0.84583 0.78183 0.58078 0.0
H1689 H 0.85905 0.7356 0.54684 0.0
H1690 H 0.84981 0.77819 0.70674 0.0
H1691 H 0.83081 0.7761 0.68357 0.0
H1692 H 0.84355 0.79035 0.65926 0.0
H1693 H 0.86752 0.72386 0.66606 0.0
H1694 H 0.86633 0.71777 0.60581 0.0
H1695 H 0.84947 0.71768 0.64237 0.0
C1696 C 0.50326 0.60798 0.01577 0.0
C1697 C 0.51056 0.5938 0.02315 0.0
C1698 C 0.49733 0.61185 0.97149 0.0
C1699 C 0.4984 0.6011 0.9344 0.0
C1700 C 0.50519 0.58652 0.94248 0.0
C1701 C 0.51138 0.58316 0.98651 0.0
C1702 C 0.49049 0.6276 0.96394 0.0
C1703 C 0.50623 0.57454 0.90433 0.0
C1704 C 0.47448 0.60123 0.82381 0.0
C1705 C 0.4858 0.60455 0.79036 0.0
C1706 C 0.47804 0.60124 0.87173 0.0
C1707 C 0.49316 0.60504 0.88631 0.0
C1708 C 0.50407 0.61008 0.85285 0.0
C1709 C 0.50033 0.60954 0.80516 0.0
C1710 C 0.46611 0.5956 0.90606 0.0
C1711 C 0.52016 0.6147 0.86701 0.0
H1712 H 0.50272 0.61625 0.04406 0.0
H1713 H 0.51689 0.57213 0.99232 0.0
H1714 H 0.49802 0.63429 0.94008 0.0
H1715 H 0.47905 0.6267 0.94695 0.0
H1716 H 0.48923 0.63409 0.99718 0.0
H1717 H 0.51077 0.56339 0.91737 0.0
H1718 H 0.49471 0.57253 0.88872 0.0
H1719 H 0.51391 0.57869 0.87604 0.0
H1720 H 0.46325 0.59726 0.81247 0.0
H1721 H 0.50907 0.61223 0.77934 0.0
H1722 H 0.46613 0.6027 0.93827 0.0
H1723 H 0.46891 0.58362 0.9164 0.0
H1724 H 0.45435 0.59572 0.89079 0.0
H1725 H 0.51989 0.62214 0.89854 0.0
H1726 H 0.52623 0.62092 0.83852 0.0
H1727 H 0.52691 0.60426 0.87584 0.0
C1728 C 0.35819 0.25534 0.56718 0.0
C1729 C 0.353 0.24076 0.55372 0.0
C1730 C 0.35866 0.25959 0.61449 0.0
C1731 C 0.35323 0.24919 0.64889 0.0
C1732 C 0.34904 0.23405 0.63568 0.0
C1733 C 0.3492 0.22994 0.58816 0.0
C1734 C 0.36375 0.27566 0.62719 0.0
C1735 C 0.34288 0.2227 0.67096 0.0
C1736 C 0.35675 0.2603 0.77747 0.0
C1737 C 0.34295 0.26834 0.78427 0.0
C1738 C 0.36029 0.2538 0.73368 0.0
C1739 C 0.34954 0.255 0.6966 0.0
C1740 C 0.33528 0.26251 0.70424 0.0
C1741 C 0.3323 0.26933 0.74769 0.0
C1742 C 0.37577 0.24628 0.72652 0.0
C1743 C 0.32327 0.26366 0.66621 0.0
H1744 H 0.36118 0.2637 0.54053 0.0
H1745 H 0.34501 0.2187 0.57775 0.0
H1746 H 0.35351 0.28279 0.63537 0.0
H1747 H 0.37118 0.27547 0.65875 0.0
H1748 H 0.37016 0.28126 0.59819 0.0
H1749 H 0.34254 0.21081 0.65675 0.0
H1750 H 0.34994 0.22274 0.70325 0.0
H1751 H 0.331 0.22608 0.68089 0.0
H1752 H 0.36503 0.25967 0.80575 0.0
H1753 H 0.32157 0.27545 0.75314 0.0
H1754 H 0.38269 0.25328 0.70181 0.0
H1755 H 0.37438 0.23472 0.71069 0.0
H1756 H 0.38228 0.24512 0.75975 0.0
H1757 H 0.32761 0.27101 0.63739 0.0
H1758 H 0.31228 0.26863 0.67914 0.0
H1759 H 0.32087 0.25211 0.65134 0.0
C1760 C 0.495 0.6084 0.51532 0.0
C1761 C 0.48768 0.59425 0.52308 0.0
C1762 C 0.50095 0.61213 0.47094 0.0
C1763 C 0.4999 0.60126 0.43416 0.0
C1764 C 0.49308 0.58672 0.44264 0.0
C1765 C 0.48686 0.58351 0.48672 0.0
C1766 C 0.50779 0.62787 0.46295 0.0
C1767 C 0.49208 0.57461 0.40485 0.0
C1768 C 0.49815 0.60933 0.30464 0.0
C1769 C 0.51271 0.60432 0.29014 0.0
C1770 C 0.49434 0.60998 0.35227 0.0
C1771 C 0.50521 0.60504 0.38599 0.0
C1772 C 0.52034 0.60121 0.3717 0.0
C1773 C 0.52398 0.60108 0.32382 0.0
C1774 C 0.47823 0.61463 0.36609 0.0
C1775 C 0.53223 0.59569 0.40633 0.0
H1776 H 0.49554 0.61676 0.5434 0.0
H1777 H 0.48134 0.5725 0.49285 0.0
H1778 H 0.51927 0.62691 0.44625 0.0
H1779 H 0.50031 0.63445 0.43867 0.0
H1780 H 0.50896 0.63449 0.49597 0.0
H1781 H 0.48752 0.56351 0.4182 0.0
H1782 H 0.48444 0.57867 0.37636 0.0
H1783 H 0.50362 0.57255 0.38942 0.0
H1784 H 0.48946 0.61195 0.27864 0.0
H1785 H 0.53523 0.5971 0.31272 0.0
H1786 H 0.47845 0.62216 0.3974 0.0
H1787 H 0.47148 0.60421 0.37513 0.0
H1788 H 0.47219 0.62075 0.33735 0.0
H1789 H 0.53217 0.60289 0.43831 0.0
H1790 H 0.544 0.59574 0.39119 0.0
H1791 H 0.52941 0.58374 0.41702 0.0
C1792 C 0.17004 0.73057 0.24285 0.0
C1793 C 0.15963 0.7315 0.28005 0.0
C1794 C 0.16661 0.73709 0.19935 0.0
C1795 C 0.15217 0.74432 0.19239 0.0
C1796 C 0.14167 0.74554 0.23012 0.0
C1797 C 0.14563 0.73928 0.27388 0.0
C1798 C 0.17834 0.73591 0.16048 0.0
C1799 C 0.12604 0.75281 0.22376 0.0
C1800 C 0.15202 0.76832 0.08213 0.0
C1801 C 0.14835 0.75708 0.04884 0.0
C1802 C 0.1521 0.76475 0.13003 0.0
C1803 C 0.14802 0.74973 0.14468 0.0
C1804 C 0.14256 0.73896 0.11143 0.0
C1805 C 0.14305 0.74268 0.06375 0.0
C1806 C 0.15818 0.77651 0.16416 0.0
C1807 C 0.13759 0.723 0.12572 0.0
H1808 H 0.18092 0.72468 0.24781 0.0
H1809 H 0.13754 0.73989 0.30266 0.0
H1810 H 0.17386 0.72836 0.13234 0.0
H1811 H 0.18047 0.74741 0.14493 0.0
H1812 H 0.18948 0.73114 0.17281 0.0
H1813 H 0.11993 0.75437 0.25755 0.0
H1814 H 0.12709 0.76415 0.20627 0.0
H1815 H 0.1189 0.74539 0.20085 0.0
H1816 H 0.15624 0.77943 0.07061 0.0
H1817 H 0.14011 0.73402 0.03797 0.0
H1818 H 0.1702 0.77351 0.17364 0.0
H1819 H 0.15131 0.77656 0.19684 0.0
H1820 H 0.15815 0.78829 0.14906 0.0
H1821 H 0.14791 0.71598 0.1339 0.0
H1822 H 0.13105 0.71713 0.09751 0.0
H1823 H 0.13035 0.72343 0.15764 0.0
C1824 C 0.00378 0.4186 0.79615 0.0
C1825 C 0.99282 0.4089 0.77564 0.0
C1826 C 0.00777 0.41709 0.84329 0.0
C1827 C 0.00107 0.40518 0.87021 0.0
C1828 C 0.99062 0.39478 0.84904 0.0
C1829 C 0.98634 0.39698 0.80208 0.0
C1830 C 0.01861 0.42872 0.86478 0.0
C1831 C 0.98373 0.38159 0.8762 0.0
C1832 C 0.02267 0.39942 0.98381 0.0
C1833 C 0.01354 0.40788 0.0149 0.0
C1834 C 0.01807 0.3973 0.93721 0.0
C1835 C 0.0044 0.40442 0.92109 0.0
C1836 C 0.99491 0.41255 0.95289 0.0
C1837 C 0.99947 0.41393 0.99971 0.0
C1838 C 0.02816 0.38803 0.90482 0.0
C1839 C 0.98051 0.42073 0.93685 0.0
H1840 H 0.00867 0.42795 0.77591 0.0
H1841 H 0.9779 0.38943 0.78613 0.0
H1842 H 0.01271 0.43488 0.89367 0.0
H1843 H 0.02876 0.42283 0.87996 0.0
H1844 H 0.02272 0.43735 0.83899 0.0
H1845 H 0.97749 0.3734 0.85318 0.0
H1846 H 0.99286 0.37527 0.89535 0.0
H1847 H 0.97552 0.38608 0.90258 0.0
H1848 H 0.03347 0.39459 0.99585 0.0
H1849 H 0.99247 0.42054 0.02382 0.0
H1850 H 0.03437 0.39586 0.88071 0.0
H1851 H 0.02108 0.38016 0.88313 0.0
H1852 H 0.03682 0.38114 0.9243 0.0
H1853 H 0.98368 0.43016 0.9125 0.0
H1854 H 0.97392 0.42574 0.96647 0.0
H1855 H 0.97289 0.41273 0.9175 0.0
C1856 C 0.35079 0.77173 0.91846 0.0
C1857 C 0.35475 0.76091 0.95275 0.0
C1858 C 0.35084 0.76775 0.87084 0.0
C1859 C 0.35537 0.75273 0.85733 0.0
C1860 C 0.36092 0.74235 0.89159 0.0
C1861 C 0.36028 0.74647 0.939 0.0
C1862 C 0.34456 0.77908 0.8357 0.0
C1863 C 0.36634 0.72642 0.87861 0.0
C1864 C 0.33491 0.73277 0.75723 0.0
C1865 C 0.34558 0.73411 0.72078 0.0
C1866 C 0.33776 0.73933 0.80112 0.0
C1867 C 0.3519 0.74699 0.80936 0.0
C1868 C 0.3627 0.74852 0.7725 0.0
C1869 C 0.3593 0.74224 0.72829 0.0
C1870 C 0.3257 0.73781 0.83894 0.0
C1871 C 0.37805 0.75624 0.78025 0.0
H1872 H 0.34636 0.78286 0.92902 0.0
H1873 H 0.36341 0.73811 0.96549 0.0
H1874 H 0.35173 0.77928 0.80363 0.0
H1875 H 0.33279 0.77548 0.82529 0.0
H1876 H 0.34392 0.79091 0.85023 0.0
H1877 H 0.37278 0.72086 0.9076 0.0
H1878 H 0.35625 0.71912 0.87004 0.0
H1879 H 0.37382 0.72683 0.8472 0.0
H1880 H 0.32423 0.72661 0.75131 0.0
H1881 H 0.3676 0.74317 0.70014 0.0
H1882 H 0.32302 0.74926 0.85401 0.0
H1883 H 0.33016 0.73049 0.86768 0.0
H1884 H 0.31486 0.73262 0.82573 0.0
H1885 H 0.37643 0.76779 0.7959 0.0
H1886 H 0.38471 0.75745 0.74731 0.0
H1887 H 0.38494 0.74936 0.80536 0.0
C1888 C 0.98006 0.59629 0.67929 0.0
C1889 C 0.99047 0.60032 0.71463 0.0
C1890 C 0.98463 0.59615 0.63219 0.0
C1891 C 0.99981 0.60062 0.62024 0.0
C1892 C 0.00989 0.60603 0.65553 0.0
C1893 C 0.0052 0.60552 0.70247 0.0
C1894 C 0.97365 0.58992 0.59591 0.0
C1895 C 0.02597 0.61142 0.64409 0.0
C1896 C 0.01946 0.58117 0.51759 0.0
C1897 C 0.01752 0.59201 0.48191 0.0
C1898 C 0.01345 0.58374 0.56239 0.0
C1899 C 0.00579 0.59776 0.57223 0.0
C1900 C 0.004 0.60888 0.53645 0.0
C1901 C 0.00965 0.60575 0.49137 0.0
C1902 C 0.01522 0.57137 0.59912 0.0
C1903 C 0.99637 0.62415 0.54602 0.0
H1904 H 0.96873 0.59208 0.68872 0.0
H1905 H 0.01324 0.60867 0.72983 0.0
H1906 H 0.97326 0.59756 0.56489 0.0
H1907 H 0.97777 0.5785 0.58391 0.0
H1908 H 0.96179 0.58858 0.60984 0.0
H1909 H 0.03136 0.61759 0.6739 0.0
H1910 H 0.03328 0.60137 0.63527 0.0
H1911 H 0.02585 0.61914 0.6132 0.0
H1912 H 0.02543 0.57049 0.51014 0.0
H1913 H 0.00826 0.61419 0.4638 0.0
H1914 H 0.00379 0.56829 0.61373 0.0
H1915 H 0.02237 0.5757 0.62841 0.0
H1916 H 0.02068 0.56079 0.58502 0.0
H1917 H 0.98443 0.62234 0.55862 0.0
H1918 H 0.99601 0.63162 0.51451 0.0
H1919 H 0.00268 0.63029 0.57412 0.0
C1920 C 0.16954 0.26831 0.25182 0.0
C1921 C 0.15882 0.2677 0.21536 0.0
C1922 C 0.16636 0.26159 0.29527 0.0
C1923 C 0.15187 0.25456 0.303 0.0
C1924 C 0.14108 0.25364 0.26594 0.0
C1925 C 0.1448 0.26005 0.22216 0.0
C1926 C 0.1784 0.26243 0.33333 0.0
C1927 C 0.12538 0.2466 0.27314 0.0
C1928 C 0.15156 0.23012 0.41261 0.0
C1929 C 0.14815 0.24126 0.44646 0.0
C1930 C 0.1517 0.23392 0.36486 0.0
C1931 C 0.14794 0.24909 0.35088 0.0
C1932 C 0.14284 0.25984 0.38472 0.0
C1933 C 0.14328 0.25588 0.43225 0.0
C1934 C 0.15745 0.22218 0.33013 0.0
C1935 C 0.13821 0.27598 0.37119 0.0
H1936 H 0.18043 0.27413 0.24636 0.0
H1937 H 0.13646 0.25973 0.19398 0.0
H1938 H 0.17431 0.27003 0.36189 0.0
H1939 H 0.18038 0.25086 0.34855 0.0
H1940 H 0.18956 0.26698 0.32029 0.0
H1941 H 0.11899 0.24528 0.23975 0.0
H1942 H 0.12637 0.23518 0.29014 0.0
H1943 H 0.11854 0.25405 0.29683 0.0
H1944 H 0.15548 0.21884 0.42359 0.0
H1945 H 0.14057 0.26448 0.45844 0.0
H1946 H 0.16946 0.22505 0.32017 0.0
H1947 H 0.15042 0.22234 0.29777 0.0
H1948 H 0.15732 0.21036 0.34488 0.0
H1949 H 0.14866 0.28276 0.36261 0.0
H1950 H 0.13199 0.28192 0.39991 0.0
H1951 H 0.13077 0.27583 0.33966 0.0
C1952 C 0.49762 0.39319 0.20068 0.0
C1953 C 0.51212 0.39839 0.21516 0.0
C1954 C 0.49377 0.39261 0.15308 0.0
C1955 C 0.50451 0.39783 0.11937 0.0
C1956 C 0.5196 0.40187 0.13362 0.0
C1957 C 0.52329 0.40191 0.18145 0.0
C1958 C 0.47773 0.38771 0.13929 0.0
C1959 C 0.53134 0.40773 0.09903 0.0
C1960 C 0.49443 0.39469 0.98992 0.0
C1961 C 0.48691 0.40875 0.98247 0.0
C1962 C 0.50037 0.3909 0.03426 0.0
C1963 C 0.49911 0.40164 0.07134 0.0
C1964 C 0.49204 0.41608 0.06324 0.0
C1965 C 0.48583 0.41935 0.01916 0.0
C1966 C 0.50747 0.37526 0.04186 0.0
C1967 C 0.4908 0.42805 0.10137 0.0
H1968 H 0.489 0.39036 0.22672 0.0
H1969 H 0.53448 0.40605 0.19255 0.0
H1970 H 0.47078 0.39804 0.13066 0.0
H1971 H 0.47804 0.38029 0.10773 0.0
H1972 H 0.47184 0.38138 0.16791 0.0
H1973 H 0.54313 0.40788 0.11408 0.0
H1974 H 0.53141 0.40061 0.06688 0.0
H1975 H 0.52827 0.41964 0.08864 0.0
H1976 H 0.49516 0.38644 0.96158 0.0
H1977 H 0.48016 0.43029 0.0133 0.0
H1978 H 0.50018 0.36854 0.0663 0.0
H1979 H 0.51899 0.37638 0.05822 0.0
H1980 H 0.50864 0.3687 0.00873 0.0
H1981 H 0.48323 0.42376 0.12975 0.0
H1982 H 0.48602 0.43911 0.08835 0.0
H1983 H 0.5023 0.4303 0.11687 0.0
C1984 C 0.12649 0.33562 0.09353 0.0
C1985 C 0.13938 0.3362 0.12301 0.0
C1986 C 0.11462 0.34652 0.09738 0.0
C1987 C 0.11564 0.35824 0.13164 0.0
C1988 C 0.12863 0.35891 0.16141 0.0
C1989 C 0.14035 0.34792 0.15666 0.0
C1990 C 0.10098 0.34549 0.0648 0.0
C1991 C 0.13012 0.37122 0.1984 0.0
C1992 C 0.09214 0.39449 0.11242 0.0
C1993 C 0.07923 0.39183 0.14082 0.0
C1994 C 0.10412 0.38373 0.1095 0.0
C1995 C 0.10324 0.36997 0.13578 0.0
C1996 C 0.09044 0.36736 0.16541 0.0
C1997 C 0.07856 0.37831 0.16752 0.0
C1998 C 0.11758 0.38695 0.07752 0.0
C1999 C 0.08916 0.35286 0.19423 0.0
H2000 H 0.12564 0.32659 0.06751 0.0
H2001 H 0.15023 0.34843 0.17974 0.0
H2002 H 0.09022 0.34418 0.08531 0.0
H2003 H 0.09993 0.35628 0.04434 0.0
H2004 H 0.10193 0.33568 0.04008 0.0
H2005 H 0.14089 0.37006 0.21904 0.0
H2006 H 0.12997 0.38276 0.18188 0.0
H2007 H 0.12018 0.37066 0.22268 0.0
H2008 H 0.09276 0.40489 0.09161 0.0
H2009 H 0.06863 0.37616 0.18952 0.0
H2010 H 0.11825 0.37795 0.05007 0.0
H2011 H 0.12851 0.38651 0.09753 0.0
H2012 H 0.1167 0.39836 0.06026 0.0
H2013 H 0.08874 0.34269 0.17084 0.0
H2014 H 0.07874 0.35281 0.21674 0.0
H2015 H 0.09947 0.35157 0.21679 0.0
C2016 C 0.8744 0.83177 0.41695 0.0
C2017 C 0.86098 0.83098 0.38985 0.0
C2018 C 0.88504 0.84377 0.41073 0.0
C2019 C 0.88216 0.85524 0.37665 0.0
C2020 C 0.86844 0.85473 0.35007 0.0
C2021 C 0.85802 0.84261 0.35699 0.0
C2022 C 0.89953 0.84399 0.43989 0.0
C2023 C 0.86492 0.86678 0.31358 0.0
C2024 C 0.90427 0.89272 0.38766 0.0
C2025 C 0.91641 0.89046 0.35601 0.0
C2026 C 0.89288 0.88148 0.39409 0.0
C2027 C 0.89364 0.86763 0.36826 0.0
C2028 C 0.90559 0.86546 0.3352 0.0
C2029 C 0.91683 0.87691 0.32943 0.0
C2030 C 0.88027 0.88426 0.42946 0.0
C2031 C 0.90672 0.85086 0.30683 0.0
H2032 H 0.87679 0.82283 0.44233 0.0
H2033 H 0.84767 0.8421 0.33589 0.0
H2034 H 0.90975 0.84296 0.41684 0.0
H2035 H 0.90051 0.8551 0.45873 0.0
H2036 H 0.89983 0.83449 0.46587 0.0
H2037 H 0.85347 0.86505 0.2971 0.0
H2038 H 0.86524 0.87842 0.32947 0.0
H2039 H 0.87384 0.8665 0.28582 0.0
H2040 H 0.90384 0.90316 0.40833 0.0
H2041 H 0.92619 0.87506 0.30498 0.0
H2042 H 0.88109 0.87563 0.45794 0.0
H2043 H 0.86882 0.88283 0.41284 0.0
H2044 H 0.88092 0.89593 0.44513 0.0
H2045 H 0.90848 0.8409 0.3305 0.0
H2046 H 0.91635 0.8512 0.28129 0.0
H2047 H 0.89583 0.84884 0.28757 0.0
C2048 C 0.37529 0.66665 0.58754 0.0
C2049 C 0.36221 0.66602 0.61624 0.0
C2050 C 0.38664 0.65515 0.58976 0.0
C2051 C 0.38489 0.64278 0.62156 0.0
C2052 C 0.37163 0.642 0.65021 0.0
C2053 C 0.36045 0.6536 0.64713 0.0
C2054 C 0.40058 0.65633 0.55844 0.0
C2055 C 0.36936 0.62901 0.6846 0.0
C2056 C 0.40781 0.60624 0.5999 0.0
C2057 C 0.42031 0.60812 0.63042 0.0
C2058 C 0.39616 0.61739 0.59684 0.0
C2059 C 0.39699 0.63071 0.62514 0.0
C2060 C 0.40943 0.63255 0.65665 0.0
C2061 C 0.42097 0.62125 0.65884 0.0
C2062 C 0.38309 0.61502 0.56278 0.0
C2063 C 0.41066 0.64656 0.68764 0.0
H2064 H 0.37675 0.6762 0.56359 0.0
H2065 H 0.3504 0.65303 0.66953 0.0
H2066 H 0.41116 0.65716 0.58 0.0
H2067 H 0.40163 0.6458 0.53674 0.0
H2068 H 0.40005 0.66648 0.53491 0.0
H2069 H 0.3583 0.62997 0.7039 0.0
H2070 H 0.3696 0.6178 0.66607 0.0
H2071 H 0.37892 0.62892 0.71031 0.0
H2072 H 0.40722 0.59615 0.5777 0.0
H2073 H 0.43059 0.6228 0.68251 0.0
H2074 H 0.38294 0.6245 0.53681 0.0
H2075 H 0.37191 0.61531 0.58153 0.0
H2076 H 0.384 0.60391 0.54378 0.0
H2077 H 0.41145 0.65708 0.66583 0.0
H2078 H 0.42086 0.64609 0.71102 0.0
H2079 H 0.40016 0.64766 0.70949 0.0
C2080 C 0.63864 0.15312 0.8598 0.0
C2081 C 0.63673 0.16485 0.89302 0.0
C2082 C 0.62767 0.14139 0.85479 0.0
C2083 C 0.61447 0.14134 0.88377 0.0
C2084 C 0.61248 0.15311 0.91751 0.0
C2085 C 0.62363 0.16474 0.92171 0.0
C2086 C 0.6302 0.12905 0.81842 0.0
C2087 C 0.59857 0.1534 0.94915 0.0
C2088 C 0.57935 0.11859 0.84459 0.0
C2089 C 0.58079 0.10511 0.87121 0.0
C2090 C 0.59026 0.13047 0.8482 0.0
C2091 C 0.60286 0.12884 0.87921 0.0
C2092 C 0.60445 0.1152 0.9058 0.0
C2093 C 0.59341 0.10351 0.90144 0.0
C2094 C 0.58823 0.14482 0.8191 0.0
C2095 C 0.61774 0.11302 0.93919 0.0
H2096 H 0.6487 0.15313 0.83739 0.0
H2097 H 0.62206 0.17377 0.94739 0.0
H2098 H 0.63066 0.11759 0.83543 0.0
H2099 H 0.62042 0.12887 0.7935 0.0
H2100 H 0.64102 0.13081 0.79841 0.0
H2101 H 0.59871 0.16336 0.97347 0.0
H2102 H 0.5879 0.15393 0.9279 0.0
H2103 H 0.59806 0.14266 0.97003 0.0
H2104 H 0.56963 0.11993 0.82121 0.0
H2105 H 0.59461 0.09316 0.92222 0.0
H2106 H 0.59852 0.14665 0.79679 0.0
H2107 H 0.58717 0.155 0.84226 0.0
H2108 H 0.5779 0.14424 0.7963 0.0
H2109 H 0.62881 0.11394 0.92007 0.0
H2110 H 0.61734 0.1017 0.95717 0.0
H2111 H 0.61763 0.12223 0.96603 0.0
C2112 C 0.09541 0.60577 0.39486 0.0
C2113 C 0.08252 0.60857 0.36653 0.0
C2114 C 0.10739 0.61654 0.39835 0.0
C2115 C 0.10653 0.63042 0.37265 0.0
C2116 C 0.09365 0.63324 0.3435 0.0
C2117 C 0.08177 0.6223 0.34089 0.0
C2118 C 0.1209 0.61313 0.42993 0.0
C2119 C 0.09239 0.64786 0.31525 0.0
C2120 C 0.13036 0.66471 0.41261 0.0
C2121 C 0.14295 0.66404 0.38197 0.0
C2122 C 0.11847 0.65377 0.41021 0.0
C2123 C 0.11914 0.64196 0.37617 0.0
C2124 C 0.13189 0.64115 0.34545 0.0
C2125 C 0.14365 0.65215 0.34883 0.0
C2126 C 0.10513 0.65493 0.44385 0.0
C2127 C 0.133 0.62876 0.30857 0.0
H2128 H 0.09607 0.59522 0.41494 0.0
H2129 H 0.07186 0.62455 0.31893 0.0
H2130 H 0.13175 0.61326 0.40945 0.0
H2131 H 0.12189 0.62219 0.45709 0.0
H2132 H 0.11984 0.60179 0.44752 0.0
H2133 H 0.08174 0.64822 0.29375 0.0
H2134 H 0.09244 0.65797 0.33892 0.0
H2135 H 0.10248 0.649 0.29174 0.0
H2136 H 0.12973 0.67385 0.4383 0.0
H2137 H 0.1533 0.65157 0.32487 0.0
H2138 H 0.104 0.64408 0.46399 0.0
H2139 H 0.09424 0.65655 0.42418 0.0
H2140 H 0.10647 0.66462 0.46883 0.0
H2141 H 0.13267 0.61724 0.32521 0.0
H2142 H 0.14371 0.62969 0.28753 0.0
H2143 H 0.12297 0.6295 0.28465 0.0
C2144 C 0.64311 0.84386 0.64741 0.0
C2145 C 0.64163 0.83158 0.61588 0.0
C2146 C 0.63136 0.85482 0.65249 0.0
C2147 C 0.61781 0.85349 0.62534 0.0
C2148 C 0.61634 0.84126 0.59295 0.0
C2149 C 0.62826 0.83044 0.58862 0.0
C2150 C 0.63338 0.86772 0.68732 0.0
C2151 C 0.60208 0.83951 0.5632 0.0
C2152 C 0.58109 0.87303 0.66696 0.0
C2153 C 0.58071 0.88618 0.63861 0.0
C2154 C 0.5932 0.86237 0.66342 0.0
C2155 C 0.60519 0.86493 0.63073 0.0
C2156 C 0.60502 0.87834 0.60271 0.0
C2157 C 0.5928 0.8888 0.60701 0.0
C2158 C 0.59304 0.84823 0.69407 0.0
C2159 C 0.6176 0.88151 0.56754 0.0
H2160 H 0.65338 0.84483 0.66869 0.0
H2161 H 0.62702 0.82097 0.56425 0.0
H2162 H 0.63237 0.879 0.66942 0.0
H2163 H 0.62413 0.8672 0.71402 0.0
H2164 H 0.64469 0.86722 0.70537 0.0
H2165 H 0.6028 0.82947 0.53927 0.0
H2166 H 0.59183 0.8381 0.58592 0.0
H2167 H 0.60026 0.85004 0.54202 0.0
H2168 H 0.5718 0.87091 0.6914 0.0
H2169 H 0.59262 0.89893 0.58493 0.0
H2170 H 0.60384 0.84756 0.71463 0.0
H2171 H 0.59246 0.83775 0.672 0.0
H2172 H 0.58313 0.84814 0.71863 0.0
H2173 H 0.62897 0.88162 0.58515 0.0
H2174 H 0.61597 0.89266 0.54925 0.0
H2175 H 0.61789 0.87219 0.54104 0.0
C2176 C 0.42085 0.38175 0.84495 0.0
C2177 C 0.41988 0.39503 0.87269 0.0
C2178 C 0.4093 0.37045 0.84647 0.0
C2179 C 0.3965 0.37245 0.87653 0.0
C2180 C 0.39535 0.38592 0.9041 0.0
C2181 C 0.40703 0.39705 0.9018 0.0
C2182 C 0.41089 0.35628 0.81632 0.0
C2183 C 0.38187 0.38847 0.93655 0.0
C2184 C 0.36012 0.34963 0.85172 0.0
C2185 C 0.36139 0.33743 0.88364 0.0
C2186 C 0.37144 0.36111 0.84912 0.0
C2187 C 0.38433 0.36043 0.87927 0.0
C2188 C 0.38561 0.34824 0.91192 0.0
C2189 C 0.37413 0.33687 0.91368 0.0
C2190 C 0.36967 0.3739 0.81379 0.0
C2191 C 0.39917 0.34716 0.94478 0.0
H2192 H 0.43073 0.38009 0.82238 0.0
H2193 H 0.40619 0.40725 0.92343 0.0
H2194 H 0.41137 0.34587 0.8387 0.0
H2195 H 0.40068 0.35509 0.79331 0.0
H2196 H 0.42138 0.35661 0.79414 0.0
H2197 H 0.38258 0.39966 0.95517 0.0
H2198 H 0.37094 0.38811 0.91655 0.0
H2199 H 0.38138 0.37911 0.96288 0.0
H2200 H 0.35033 0.35015 0.82829 0.0
H2201 H 0.37521 0.32748 0.93841 0.0
H2202 H 0.37959 0.37386 0.78935 0.0
H2203 H 0.36965 0.38521 0.83177 0.0
H2204 H 0.35889 0.37284 0.79313 0.0
H2205 H 0.41001 0.34627 0.92444 0.0
H2206 H 0.39836 0.33709 0.96855 0.0
H2207 H 0.39996 0.35776 0.96626 0.0
C2208 C 0.87388 0.16512 0.08308 0.0
C2209 C 0.86046 0.16491 0.11033 0.0
C2210 C 0.88542 0.154 0.08942 0.0
C2211 C 0.88347 0.14241 0.12373 0.0
C2212 C 0.86977 0.14189 0.15039 0.0
C2213 C 0.85844 0.15315 0.14338 0.0
C2214 C 0.89987 0.15488 0.06019 0.0
C2215 C 0.86722 0.12966 0.18708 0.0
C2216 C 0.9083 0.10665 0.11392 0.0
C2217 C 0.92014 0.10984 0.14588 0.0
C2218 C 0.89618 0.11704 0.10684 0.0
C2219 C 0.89589 0.13099 0.1323 0.0
C2220 C 0.90759 0.13412 0.16547 0.0
C2221 C 0.91958 0.12349 0.17191 0.0
C2222 C 0.88387 0.11325 0.07139 0.0
C2223 C 0.90761 0.14886 0.1934 0.0
H2224 H 0.87554 0.17418 0.05756 0.0
H2225 H 0.84809 0.15288 0.16457 0.0
H2226 H 0.90999 0.15677 0.08316 0.0
H2227 H 0.90174 0.14384 0.04158 0.0
H2228 H 0.8994 0.1643 0.034 0.0
H2229 H 0.85568 0.13051 0.20358 0.0
H2230 H 0.86845 0.11806 0.17136 0.0
H2231 H 0.8761 0.13069 0.2148 0.0
H2232 H 0.90863 0.09611 0.09368 0.0
H2233 H 0.92869 0.12606 0.19658 0.0
H2234 H 0.88398 0.12192 0.04293 0.0
H2235 H 0.87233 0.11373 0.08798 0.0
H2236 H 0.88547 0.10167 0.0557 0.0
H2237 H 0.90851 0.15886 0.16944 0.0
H2238 H 0.91729 0.14937 0.21874 0.0
H2239 H 0.89663 0.15005 0.21285 0.0
C2240 C 0.87025 0.66705 0.91792 0.0
C2241 C 0.85759 0.66611 0.8876 0.0
C2242 C 0.88242 0.65645 0.91498 0.0
C2243 C 0.88196 0.64469 0.88073 0.0
C2244 C 0.86916 0.64362 0.85028 0.0
C2245 C 0.85712 0.6543 0.85419 0.0
C2246 C 0.89581 0.65788 0.94833 0.0
C2247 C 0.86826 0.63127 0.81323 0.0
C2248 C 0.91958 0.62574 0.8443 0.0
C2249 C 0.9191 0.61195 0.86967 0.0
C2250 C 0.90755 0.6365 0.84746 0.0
C2251 C 0.89479 0.63342 0.87689 0.0
C2252 C 0.89423 0.61949 0.90243 0.0
C2253 C 0.90635 0.60892 0.8984 0.0
C2254 C 0.90849 0.65119 0.81941 0.0
C2255 C 0.88086 0.6158 0.93428 0.0
H2256 H 0.87071 0.67615 0.9438 0.0
H2257 H 0.84743 0.65351 0.83047 0.0
H2258 H 0.8972 0.64705 0.96844 0.0
H2259 H 0.90662 0.65972 0.92843 0.0
H2260 H 0.89434 0.66754 0.97335 0.0
H2261 H 0.85752 0.63202 0.79228 0.0
H2262 H 0.87825 0.63223 0.78924 0.0
H2263 H 0.86882 0.61973 0.82971 0.0
H2264 H 0.92938 0.62817 0.82205 0.0
H2265 H 0.9059 0.59831 0.91828 0.0
H2266 H 0.90823 0.66126 0.84321 0.0
H2267 H 0.89836 0.65213 0.79596 0.0
H2268 H 0.91911 0.6518 0.79787 0.0
H2269 H 0.87972 0.62485 0.96143 0.0
H2270 H 0.8822 0.60449 0.9519 0.0
H2271 H 0.86998 0.61569 0.914 0.0
C2272 C 0.12942 0.16994 0.57623 0.0
C2273 C 0.14276 0.17032 0.60378 0.0
C2274 C 0.11877 0.15784 0.58041 0.0
C2275 C 0.12156 0.14587 0.61292 0.0
C2276 C 0.13521 0.14599 0.63991 0.0
C2277 C 0.14564 0.15819 0.63498 0.0
C2278 C 0.10438 0.15806 0.55084 0.0
C2279 C 0.13861 0.13341 0.67484 0.0
C2280 C 0.0874 0.12308 0.65881 0.0
C2281 C 0.08825 0.10962 0.63193 0.0
C2282 C 0.09817 0.13498 0.65299 0.0
C2283 C 0.11007 0.13336 0.61946 0.0
C2284 C 0.11107 0.11976 0.59251 0.0
C2285 C 0.10016 0.10805 0.5991 0.0
C2286 C 0.09678 0.1493 0.68252 0.0
C2287 C 0.12359 0.11761 0.55648 0.0
H2288 H 0.1271 0.17927 0.55211 0.0
H2289 H 0.15593 0.15837 0.65643 0.0
H2290 H 0.10339 0.14719 0.53075 0.0
H2291 H 0.09409 0.15886 0.5737 0.0
H2292 H 0.10421 0.16786 0.52594 0.0
H2293 H 0.14999 0.13492 0.69197 0.0
H2294 H 0.12958 0.13325 0.70228 0.0
H2295 H 0.1384 0.12202 0.65735 0.0
H2296 H 0.07822 0.1244 0.68417 0.0
H2297 H 0.1009 0.0977 0.57809 0.0
H2298 H 0.09531 0.15952 0.65969 0.0
H2299 H 0.1075 0.15106 0.70294 0.0
H2300 H 0.08691 0.14874 0.70716 0.0
H2301 H 0.12292 0.12687 0.52986 0.0
H2302 H 0.12279 0.10632 0.53847 0.0
H2303 H 0.13506 0.11849 0.57334 0.0
C2304 C 0.58982 0.39728 0.41343 0.0
C2305 C 0.57751 0.39486 0.38251 0.0
C2306 C 0.60132 0.38612 0.41952 0.0
C2307 C 0.60053 0.3722 0.39398 0.0
C2308 C 0.58829 0.36979 0.36207 0.0
C2309 C 0.57692 0.38115 0.35675 0.0
C2310 C 0.61419 0.38911 0.45382 0.0
C2311 C 0.58711 0.35514 0.33397 0.0
C2312 C 0.63671 0.3483 0.37762 0.0
C2313 C 0.63454 0.33646 0.41037 0.0
C2314 C 0.62584 0.3601 0.37239 0.0
C2315 C 0.61248 0.36013 0.40066 0.0
C2316 C 0.6104 0.34845 0.43462 0.0
C2317 C 0.62145 0.33674 0.43905 0.0
C2318 C 0.62849 0.37236 0.33584 0.0
C2319 C 0.59632 0.34814 0.4656 0.0
H2320 H 0.59036 0.40783 0.43358 0.0
H2321 H 0.56745 0.37917 0.33283 0.0
H2322 H 0.61406 0.38024 0.4817 0.0
H2323 H 0.62549 0.38828 0.43588 0.0
H2324 H 0.61329 0.40063 0.4704 0.0
H2325 H 0.57704 0.35516 0.31002 0.0
H2326 H 0.59771 0.35347 0.31295 0.0
H2327 H 0.5861 0.34513 0.35786 0.0
H2328 H 0.64678 0.34819 0.35527 0.0
H2329 H 0.61969 0.32764 0.4644 0.0
H2330 H 0.62811 0.38394 0.35214 0.0
H2331 H 0.61918 0.37193 0.30932 0.0
H2332 H 0.63972 0.37099 0.31774 0.0
H2333 H 0.59524 0.35918 0.48475 0.0
H2334 H 0.59669 0.3386 0.49142 0.0
H2335 H 0.58583 0.34681 0.44385 0.0
C2336 C 0.37138 0.82795 0.08963 0.0
C2337 C 0.35819 0.82785 0.11793 0.0
C2338 C 0.38231 0.8398 0.09319 0.0
C2339 C 0.38005 0.85179 0.12601 0.0
C2340 C 0.3667 0.85183 0.15435 0.0
C2341 C 0.35591 0.83989 0.14987 0.0
C2342 C 0.39635 0.83944 0.06207 0.0
C2343 C 0.36389 0.86439 0.18982 0.0
C2344 C 0.41511 0.87464 0.16532 0.0
C2345 C 0.41383 0.88798 0.13805 0.0
C2346 C 0.40413 0.86281 0.16206 0.0
C2347 C 0.39162 0.86434 0.1306 0.0
C2348 C 0.39019 0.87785 0.10335 0.0
C2349 C 0.40127 0.88951 0.1075 0.0
C2350 C 0.40597 0.84862 0.19198 0.0
C2351 C 0.37706 0.8799 0.06931 0.0
H2352 H 0.37323 0.81869 0.06488 0.0
H2353 H 0.34579 0.8399 0.17202 0.0
H2354 H 0.39699 0.85016 0.0411 0.0
H2355 H 0.40692 0.83889 0.08375 0.0
H2356 H 0.39629 0.82945 0.03785 0.0
H2357 H 0.35289 0.86277 0.20906 0.0
H2358 H 0.37346 0.86467 0.2155 0.0
H2359 H 0.36362 0.87575 0.17222 0.0
H2360 H 0.42477 0.87336 0.18898 0.0
H2361 H 0.4002 0.89976 0.08617 0.0
H2362 H 0.40721 0.83832 0.16938 0.0
H2363 H 0.39553 0.84689 0.21372 0.0
H2364 H 0.41615 0.84934 0.21539 0.0
H2365 H 0.37731 0.87059 0.0428 0.0
H2366 H 0.37753 0.89115 0.05097 0.0
H2367 H 0.36589 0.87903 0.08795 0.0
C2368 C 0.91803 0.38153 0.64837 0.0
C2369 C 0.91702 0.39548 0.62396 0.0
C2370 C 0.90647 0.3703 0.64417 0.0
C2371 C 0.89366 0.37308 0.6147 0.0
C2372 C 0.89253 0.38718 0.59029 0.0
C2373 C 0.90419 0.39822 0.5953 0.0
C2374 C 0.90802 0.35543 0.67103 0.0
C2375 C 0.87906 0.39056 0.55853 0.0
C2376 C 0.87094 0.3385 0.57131 0.0
C2377 C 0.85837 0.33843 0.60206 0.0
C2378 C 0.88245 0.34981 0.57468 0.0
C2379 C 0.88136 0.36128 0.60972 0.0
C2380 C 0.86856 0.36142 0.64028 0.0
C2381 C 0.85721 0.35003 0.63601 0.0
C2382 C 0.89589 0.34936 0.54123 0.0
C2383 C 0.86698 0.37345 0.67808 0.0
H2384 H 0.9279 0.37932 0.67053 0.0
H2385 H 0.90333 0.40895 0.57617 0.0
H2386 H 0.89789 0.35381 0.69413 0.0
H2387 H 0.90828 0.34557 0.6464 0.0
H2388 H 0.9186 0.35511 0.6928 0.0
H2389 H 0.87989 0.40211 0.54205 0.0
H2390 H 0.87841 0.38177 0.53049 0.0
H2391 H 0.86814 0.38993 0.57856 0.0
H2392 H 0.87194 0.32957 0.54505 0.0
H2393 H 0.84756 0.35007 0.66001 0.0
H2394 H 0.90676 0.34772 0.56098 0.0
H2395 H 0.89683 0.36047 0.52236 0.0
H2396 H 0.89481 0.33996 0.51514 0.0
H2397 H 0.87689 0.37269 0.70248 0.0
H2398 H 0.85618 0.37213 0.69847 0.0
H2399 H 0.86718 0.38513 0.66244 0.0
C2400 C 0.35603 0.15769 0.35885 0.0
C2401 C 0.35865 0.1694 0.3917 0.0
C2402 C 0.36674 0.1458 0.35223 0.0
C2403 C 0.38039 0.14558 0.37922 0.0
C2404 C 0.3829 0.1571 0.41339 0.0
C2405 C 0.37201 0.16889 0.41919 0.0
C2406 C 0.36362 0.1337 0.31555 0.0
C2407 C 0.39727 0.15717 0.44309 0.0
C2408 C 0.403 0.10837 0.39019 0.0
C2409 C 0.4152 0.11085 0.35887 0.0
C2410 C 0.39149 0.11949 0.39672 0.0
C2411 C 0.39215 0.13341 0.37121 0.0
C2412 C 0.4042 0.13582 0.33861 0.0
C2413 C 0.4156 0.12451 0.33286 0.0
C2414 C 0.37883 0.11648 0.43173 0.0
C2415 C 0.40521 0.15049 0.31051 0.0
H2416 H 0.34576 0.15799 0.33739 0.0
H2417 H 0.37413 0.1779 0.44459 0.0
H2418 H 0.37266 0.13418 0.28816 0.0
H2419 H 0.3641 0.12207 0.3314 0.0
H2420 H 0.35221 0.13522 0.29862 0.0
H2421 H 0.39725 0.16662 0.46922 0.0
H2422 H 0.39843 0.14605 0.46181 0.0
H2423 H 0.40756 0.15847 0.42046 0.0
H2424 H 0.4026 0.09785 0.41049 0.0
H2425 H 0.42499 0.12652 0.30866 0.0
H2426 H 0.36741 0.11759 0.41468 0.0
H2427 H 0.37933 0.12517 0.46007 0.0
H2428 H 0.37969 0.10485 0.44763 0.0
H2429 H 0.39439 0.15232 0.2907 0.0
H2430 H 0.41499 0.15037 0.28548 0.0
H2431 H 0.40664 0.16045 0.33438 0.0
C2432 C 0.63753 0.65383 0.13407 0.0
C2433 C 0.63549 0.66583 0.10181 0.0
C2434 C 0.62665 0.64198 0.13829 0.0
C2435 C 0.61341 0.6421 0.10948 0.0
C2436 C 0.61148 0.65394 0.07596 0.0
C2437 C 0.62254 0.66568 0.07254 0.0
C2438 C 0.62914 0.62955 0.1744 0.0
C2439 C 0.59755 0.65439 0.04443 0.0
C2440 C 0.59066 0.60508 0.09441 0.0
C2441 C 0.57823 0.60743 0.12496 0.0
C2442 C 0.60224 0.61622 0.08921 0.0
C2443 C 0.6014 0.63003 0.11527 0.0
C2444 C 0.58904 0.63235 0.14681 0.0
C2445 C 0.5776 0.62103 0.15124 0.0
C2446 C 0.61524 0.61332 0.05529 0.0
C2447 C 0.58781 0.64689 0.17544 0.0
H2448 H 0.6475 0.65384 0.15686 0.0
H2449 H 0.62088 0.67491 0.04757 0.0
H2450 H 0.61975 0.62991 0.20067 0.0
H2451 H 0.62876 0.61806 0.15763 0.0
H2452 H 0.64032 0.63081 0.19287 0.0
H2453 H 0.59806 0.66402 0.01894 0.0
H2454 H 0.59651 0.64342 0.02489 0.0
H2455 H 0.58697 0.65567 0.06581 0.0
H2456 H 0.59124 0.59462 0.07387 0.0
H2457 H 0.56804 0.62295 0.17488 0.0
H2458 H 0.62646 0.61406 0.07367 0.0
H2459 H 0.61524 0.62229 0.02771 0.0
H2460 H 0.61437 0.60186 0.03829 0.0
H2461 H 0.59833 0.64844 0.19689 0.0
H2462 H 0.57765 0.64681 0.19904 0.0
H2463 H 0.58692 0.657 0.15191 0.0
C2464 C 0.08975 0.87343 0.83299 0.0
C2465 C 0.08987 0.88662 0.86116 0.0
C2466 C 0.10098 0.86195 0.83835 0.0
C2467 C 0.11262 0.86373 0.87264 0.0
C2468 C 0.11305 0.87722 0.90027 0.0
C2469 C 0.10167 0.88849 0.89421 0.0
C2470 C 0.10019 0.84773 0.8081 0.0
C2471 C 0.12532 0.87957 0.93699 0.0
C2472 C 0.13161 0.82721 0.91728 0.0
C2473 C 0.14516 0.82681 0.89067 0.0
C2474 C 0.12105 0.83932 0.9124 0.0
C2475 C 0.12413 0.85132 0.88023 0.0
C2476 C 0.13803 0.85125 0.85445 0.0
C2477 C 0.14837 0.83899 0.85996 0.0
C2478 C 0.10637 0.83906 0.94067 0.0
C2479 C 0.14178 0.86389 0.82006 0.0
H2480 H 0.08066 0.87189 0.80745 0.0
H2481 H 0.10187 0.89866 0.91612 0.0
H2482 H 0.11123 0.84611 0.78924 0.0
H2483 H 0.0984 0.83744 0.83036 0.0
H2484 H 0.09072 0.84833 0.78206 0.0
H2485 H 0.12442 0.89099 0.95421 0.0
H2486 H 0.12435 0.87052 0.96417 0.0
H2487 H 0.13692 0.87851 0.92111 0.0
H2488 H 0.12904 0.81783 0.94101 0.0
H2489 H 0.15883 0.83879 0.83929 0.0
H2490 H 0.09631 0.83822 0.91687 0.0
H2491 H 0.10514 0.84992 0.96068 0.0
H2492 H 0.10598 0.82925 0.96553 0.0
H2493 H 0.13316 0.86392 0.79143 0.0
H2494 H 0.15341 0.86253 0.80448 0.0
H2495 H 0.14115 0.87527 0.8375 0.0
loop_
_geom_bond_atom_site_label_1
_geom_bond_atom_site_label_2
_geom_bond_distance
_geom_bond_site_symmetry_2
_ccdc_geom_bond_type
O0 Cd1 2.223 . S
O0 C8 1.315 . S
Cd1 O0 2.223 . S
Cd1 O4 2.297 . S
Cd1 O5 2.439 . S
Cd1 O11 2.240 . S
Cd2 O3 2.240 . S
Cd2 O10 2.223 . S
Cd2 O12 2.297 1_554 S
Cd2 O13 2.439 1_554 S
O3 Cd2 2.240 . S
O3 C8 1.279 . S
O4 Cd1 2.297 . S
O4 C6 1.247 . S
O5 Cd1 2.439 . S
O5 C6 1.208 . S
C6 O4 1.247 . S
C6 O5 1.208 . S
C7 O12 1.247 . S
C7 O13 1.208 . S
C8 O0 1.315 . S
C8 O3 1.279 . S
C9 O10 1.315 . S
C9 O11 1.279 . S
O10 Cd2 2.223 . S
O10 C9 1.315 . S
O11 Cd1 2.240 . S
O11 C9 1.279 . S
O12 Cd2 2.297 1_556 S
O12 C7 1.247 . S
O13 Cd2 2.439 1_556 S
O13 C7 1.208 . S
O14 Cd15 2.223 . S
O14 C22 1.315 . S
Cd15 O14 2.223 . S
Cd15 O18 2.297 . S
Cd15 O19 2.439 . S
Cd15 O25 2.240 . S
Cd16 O17 2.240 . S
Cd16 O24 2.223 . S
Cd16 O26 2.297 . S
Cd16 O27 2.439 . S
O17 Cd16 2.240 . S
O17 C22 1.279 . S
O18 Cd15 2.297 . S
O18 C20 1.247 . S
O19 Cd15 2.439 . S
O19 C20 1.208 . S
C20 O18 1.247 . S
C20 O19 1.208 . S
C21 O26 1.247 . S
C21 O27 1.208 . S
C22 O14 1.315 . S
C22 O17 1.279 . S
C23 O24 1.315 . S
C23 O25 1.279 . S
O24 Cd16 2.223 . S
O24 C23 1.315 . S
O25 Cd15 2.240 . S
O25 C23 1.279 . S
O26 Cd16 2.297 . S
O26 C21 1.247 . S
O27 Cd16 2.439 . S
O27 C21 1.208 . S
O28 Cd29 2.223 . S
O28 C36 1.315 . S
Cd29 O28 2.223 . S
Cd29 O32 2.297 . S
Cd29 O33 2.439 . S
Cd29 O39 2.240 . S
Cd30 O31 2.240 . S
Cd30 O38 2.223 . S
Cd30 O40 2.297 . S
Cd30 O41 2.439 . S
O31 Cd30 2.240 . S
O31 C36 1.279 . S
O32 Cd29 2.297 . S
O32 C34 1.247 . S
O33 Cd29 2.439 . S
O33 C34 1.208 . S
C34 O32 1.247 . S
C34 O33 1.208 . S
C35 O40 1.247 . S
C35 O41 1.208 . S
C36 O28 1.315 . S
C36 O31 1.279 . S
C37 O38 1.315 . S
C37 O39 1.279 . S
O38 Cd30 2.223 . S
O38 C37 1.315 . S
O39 Cd29 2.240 . S
O39 C37 1.279 . S
O40 Cd30 2.297 . S
O40 C35 1.247 . S
O41 Cd30 2.439 . S
O41 C35 1.208 . S
O42 Cd43 2.223 . S
O42 C50 1.315 . S
Cd43 O42 2.223 . S
Cd43 O46 2.297 . S
Cd43 O47 2.439 . S
Cd43 O53 2.240 . S
Cd44 O45 2.240 . S
Cd44 O52 2.223 . S
Cd44 O54 2.297 . S
Cd44 O55 2.439 . S
O45 Cd44 2.240 . S
O45 C50 1.279 . S
O46 Cd43 2.297 . S
O46 C48 1.247 . S
O47 Cd43 2.439 . S
O47 C48 1.208 . S
C48 O46 1.247 . S
C48 O47 1.208 . S
C49 O54 1.247 . S
C49 O55 1.208 . S
C50 O42 1.315 . S
C50 O45 1.279 . S
C51 O52 1.315 . S
C51 O53 1.279 . S
O52 Cd44 2.223 . S
O52 C51 1.315 . S
O53 Cd43 2.240 . S
O53 C51 1.279 . S
O54 Cd44 2.297 . S
O54 C49 1.247 . S
O55 Cd44 2.439 . S
O55 C49 1.208 . S
O56 Cd57 2.223 . S
O56 C64 1.315 . S
Cd57 O56 2.223 . S
Cd57 O60 2.297 . S
Cd57 O61 2.439 . S
Cd57 O67 2.240 . S
Cd58 O59 2.240 . S
Cd58 O66 2.223 . S
Cd58 O68 2.297 . S
Cd58 O69 2.439 . S
O59 Cd58 2.240 . S
O59 C64 1.279 . S
O60 Cd57 2.297 . S
O60 C62 1.247 . S
O61 Cd57 2.439 . S
O61 C62 1.208 . S
C62 O60 1.247 . S
C62 O61 1.208 . S
C63 O68 1.247 . S
C63 O69 1.208 . S
C64 O56 1.315 . S
C64 O59 1.279 . S
C65 O66 1.315 . S
C65 O67 1.279 . S
O66 Cd58 2.223 . S
O66 C65 1.315 . S
O67 Cd57 2.240 . S
O67 C65 1.279 . S
O68 Cd58 2.297 . S
O68 C63 1.247 . S
O69 Cd58 2.439 . S
O69 C63 1.208 . S
O70 Cd71 2.223 . S
O70 C78 1.315 . S
Cd71 O70 2.223 . S
Cd71 O74 2.297 . S
Cd71 O75 2.439 . S
Cd71 O81 2.240 . S
Cd72 O73 2.240 . S
Cd72 O80 2.223 . S
Cd72 O82 2.297 . S
Cd72 O83 2.439 . S
O73 Cd72 2.240 . S
O73 C78 1.279 . S
O74 Cd71 2.297 . S
O74 C76 1.247 . S
O75 Cd71 2.439 . S
O75 C76 1.208 . S
C76 O74 1.247 . S
C76 O75 1.208 . S
C77 O82 1.247 . S
C77 O83 1.208 . S
C78 O70 1.315 . S
C78 O73 1.279 . S
C79 O80 1.315 . S
C79 O81 1.279 . S
O80 Cd72 2.223 . S
O80 C79 1.315 . S
O81 Cd71 2.240 . S
O81 C79 1.279 . S
O82 Cd72 2.297 . S
O82 C77 1.247 . S
O83 Cd72 2.439 . S
O83 C77 1.208 . S
O84 Cd85 2.223 . S
O84 C92 1.315 . S
Cd85 O84 2.223 . S
Cd85 O88 2.297 . S
Cd85 O89 2.439 . S
Cd85 O95 2.240 . S
Cd86 O87 2.240 . S
Cd86 O94 2.223 . S
Cd86 O96 2.297 1_556 S
Cd86 O97 2.439 1_556 S
O87 Cd86 2.240 . S
O87 C92 1.279 . S
O88 Cd85 2.297 . S
O88 C90 1.247 . S
O89 Cd85 2.439 . S
O89 C90 1.208 . S
C90 O88 1.247 . S
C90 O89 1.208 . S
C91 O96 1.247 . S
C91 O97 1.208 . S
C92 O84 1.315 . S
C92 O87 1.279 . S
C93 O94 1.315 . S
C93 O95 1.279 . S
O94 Cd86 2.223 . S
O94 C93 1.315 . S
O95 Cd85 2.240 . S
O95 C93 1.279 . S
O96 Cd86 2.297 1_554 S
O96 C91 1.247 . S
O97 Cd86 2.439 1_554 S
O97 C91 1.208 . S
O98 Cd99 2.223 . S
O98 C106 1.315 . S
Cd99 O98 2.223 . S
Cd99 O102 2.297 . S
Cd99 O103 2.439 . S
Cd99 O109 2.240 . S
Cd100 O101 2.240 . S
Cd100 O108 2.223 . S
Cd100 O110 2.297 . S
Cd100 O111 2.439 . S
O101 Cd100 2.240 . S
O101 C106 1.279 . S
O102 Cd99 2.297 . S
O102 C104 1.247 . S
O103 Cd99 2.439 . S
O103 C104 1.208 . S
C104 O102 1.247 . S
C104 O103 1.208 . S
C105 O110 1.247 . S
C105 O111 1.208 . S
C106 O98 1.315 . S
C106 O101 1.279 . S
C107 O108 1.315 . S
C107 O109 1.279 . S
O108 Cd100 2.223 . S
O108 C107 1.315 . S
O109 Cd99 2.240 . S
O109 C107 1.279 . S
O110 Cd100 2.297 . S
O110 C105 1.247 . S
O111 Cd100 2.439 . S
O111 C105 1.208 . S
O112 Cd113 2.223 . S
O112 C120 1.315 . S
Cd113 O112 2.223 . S
Cd113 O116 2.297 . S
Cd113 O117 2.439 . S
Cd113 O123 2.240 . S
Cd114 O115 2.240 . S
Cd114 O122 2.223 . S
Cd114 O124 2.297 1_556 S
Cd114 O125 2.439 1_556 S
O115 Cd114 2.240 . S
O115 C120 1.279 . S
O116 Cd113 2.297 . S
O116 C118 1.247 . S
O117 Cd113 2.439 . S
O117 C118 1.208 . S
C118 O116 1.247 . S
C118 O117 1.208 . S
C119 O124 1.247 . S
C119 O125 1.208 . S
C120 O112 1.315 . S
C120 O115 1.279 . S
C121 O122 1.315 . S
C121 O123 1.279 . S
O122 Cd114 2.223 . S
O122 C121 1.315 . S
O123 Cd113 2.240 . S
O123 C121 1.279 . S
O124 Cd114 2.297 1_554 S
O124 C119 1.247 . S
O125 Cd114 2.439 1_554 S
O125 C119 1.208 . S
O126 Cd127 2.223 . S
O126 C134 1.315 . S
Cd127 O126 2.223 . S
Cd127 O130 2.297 . S
Cd127 O131 2.439 . S
Cd127 O137 2.240 . S
Cd128 O129 2.240 . S
Cd128 O136 2.223 . S
Cd128 O138 2.297 . S
Cd128 O139 2.439 . S
O129 Cd128 2.240 . S
O129 C134 1.279 . S
O130 Cd127 2.297 . S
O130 C132 1.247 . S
O131 Cd127 2.439 . S
O131 C132 1.208 . S
C132 O130 1.247 . S
C132 O131 1.208 . S
C133 O138 1.247 . S
C133 O139 1.208 . S
C134 O126 1.315 . S
C134 O129 1.279 . S
C135 O136 1.315 . S
C135 O137 1.279 . S
O136 Cd128 2.223 . S
O136 C135 1.315 . S
O137 Cd127 2.240 . S
O137 C135 1.279 . S
O138 Cd128 2.297 . S
O138 C133 1.247 . S
O139 Cd128 2.439 . S
O139 C133 1.208 . S
O140 Cd141 2.223 . S
O140 C148 1.315 . S
Cd141 O140 2.223 . S
Cd141 O144 2.297 . S
Cd141 O145 2.439 . S
Cd141 O151 2.240 . S
Cd142 O143 2.240 . S
Cd142 O150 2.223 . S
Cd142 O152 2.297 . S
Cd142 O153 2.439 . S
O143 Cd142 2.240 . S
O143 C148 1.279 . S
O144 Cd141 2.297 . S
O144 C146 1.247 . S
O145 Cd141 2.439 . S
O145 C146 1.208 . S
C146 O144 1.247 . S
C146 O145 1.208 . S
C147 O152 1.247 . S
C147 O153 1.208 . S
C148 O140 1.315 . S
C148 O143 1.279 . S
C149 O150 1.315 . S
C149 O151 1.279 . S
O150 Cd142 2.223 . S
O150 C149 1.315 . S
O151 Cd141 2.240 . S
O151 C149 1.279 . S
O152 Cd142 2.297 . S
O152 C147 1.247 . S
O153 Cd142 2.439 . S
O153 C147 1.208 . S
O154 Cd155 2.223 . S
O154 C162 1.315 . S
Cd155 O154 2.223 . S
Cd155 O158 2.297 . S
Cd155 O159 2.439 . S
Cd155 O165 2.240 . S
Cd156 O157 2.240 . S
Cd156 O164 2.223 . S
Cd156 O166 2.297 . S
Cd156 O167 2.439 . S
O157 Cd156 2.240 . S
O157 C162 1.279 . S
O158 Cd155 2.297 . S
O158 C160 1.247 . S
O159 Cd155 2.439 . S
O159 C160 1.208 . S
C160 O158 1.247 . S
C160 O159 1.208 . S
C161 O166 1.247 . S
C161 O167 1.208 . S
C162 O154 1.315 . S
C162 O157 1.279 . S
C163 O164 1.315 . S
C163 O165 1.279 . S
O164 Cd156 2.223 . S
O164 C163 1.315 . S
O165 Cd155 2.240 . S
O165 C163 1.279 . S
O166 Cd156 2.297 . S
O166 C161 1.247 . S
O167 Cd156 2.439 . S
O167 C161 1.208 . S
O168 Cd169 2.223 . S
O168 C176 1.315 . S
Cd169 O168 2.223 . S
Cd169 O172 2.297 . S
Cd169 O173 2.439 . S
Cd169 O179 2.240 . S
Cd170 O171 2.240 . S
Cd170 O178 2.223 . S
Cd170 O180 2.297 . S
Cd170 O181 2.439 . S
O171 Cd170 2.240 . S
O171 C176 1.279 . S
O172 Cd169 2.297 . S
O172 C174 1.247 . S
O173 Cd169 2.439 . S
O173 C174 1.208 . S
C174 O172 1.247 . S
C174 O173 1.208 . S
C175 O180 1.247 . S
C175 O181 1.208 . S
C176 O168 1.315 . S
C176 O171 1.279 . S
C177 O178 1.315 . S
C177 O179 1.279 . S
O178 Cd170 2.223 . S
O178 C177 1.315 . S
O179 Cd169 2.240 . S
O179 C177 1.279 . S
O180 Cd170 2.297 . S
O180 C175 1.247 . S
O181 Cd170 2.439 . S
O181 C175 1.208 . S
O182 Cd183 2.223 . S
O182 C190 1.315 . S
Cd183 O182 2.223 . S
Cd183 O186 2.297 . S
Cd183 O187 2.439 . S
Cd183 O193 2.240 . S
Cd184 O185 2.240 . S
Cd184 O192 2.223 . S
Cd184 O194 2.297 . S
Cd184 O195 2.439 . S
O185 Cd184 2.240 . S
O185 C190 1.279 . S
O186 Cd183 2.297 . S
O186 C188 1.247 . S
O187 Cd183 2.439 . S
O187 C188 1.208 . S
C188 O186 1.247 . S
C188 O187 1.208 . S
C189 O194 1.247 . S
C189 O195 1.208 . S
C190 O182 1.315 . S
C190 O185 1.279 . S
C191 O192 1.315 . S
C191 O193 1.279 . S
O192 Cd184 2.223 . S
O192 C191 1.315 . S
O193 Cd183 2.240 . S
O193 C191 1.279 . S
O194 Cd184 2.297 . S
O194 C189 1.247 . S
O195 Cd184 2.439 . S
O195 C189 1.208 . S
O196 Cd197 2.223 . S
O196 C204 1.315 . S
Cd197 O196 2.223 . S
Cd197 O200 2.297 . S
Cd197 O201 2.439 . S
Cd197 O207 2.240 . S
Cd198 O199 2.240 . S
Cd198 O206 2.223 . S
Cd198 O208 2.297 1_554 S
Cd198 O209 2.439 1_554 S
O199 Cd198 2.240 . S
O199 C204 1.279 . S
O200 Cd197 2.297 . S
O200 C202 1.247 . S
O201 Cd197 2.439 . S
O201 C202 1.208 . S
C202 O200 1.247 . S
C202 O201 1.208 . S
C203 O208 1.247 . S
C203 O209 1.208 . S
C204 O196 1.315 . S
C204 O199 1.279 . S
C205 O206 1.315 . S
C205 O207 1.279 . S
O206 Cd198 2.223 . S
O206 C205 1.315 . S
O207 Cd197 2.240 . S
O207 C205 1.279 . S
O208 Cd198 2.297 1_556 S
O208 C203 1.247 . S
O209 Cd198 2.439 1_556 S
O209 C203 1.208 . S
O210 Cd211 2.223 . S
O210 C218 1.315 . S
Cd211 O210 2.223 . S
Cd211 O214 2.297 . S
Cd211 O215 2.439 . S
Cd211 O221 2.240 . S
Cd212 O213 2.240 . S
Cd212 O220 2.223 . S
Cd212 O222 2.297 . S
Cd212 O223 2.439 . S
O213 Cd212 2.240 . S
O213 C218 1.279 . S
O214 Cd211 2.297 . S
O214 C216 1.247 . S
O215 Cd211 2.439 . S
O215 C216 1.208 . S
C216 O214 1.247 . S
C216 O215 1.208 . S
C217 O222 1.247 . S
C217 O223 1.208 . S
C218 O210 1.315 . S
C218 O213 1.279 . S
C219 O220 1.315 . S
C219 O221 1.279 . S
O220 Cd212 2.223 . S
O220 C219 1.315 . S
O221 Cd211 2.240 . S
O221 C219 1.279 . S
O222 Cd212 2.297 . S
O222 C217 1.247 . S
O223 Cd212 2.439 . S
O223 C217 1.208 . S
O224 Cd225 2.223 . S
O224 C232 1.315 . S
Cd225 O224 2.223 . S
Cd225 O228 2.297 . S
Cd225 O229 2.439 . S
Cd225 O235 2.240 . S
Cd226 O227 2.240 . S
Cd226 O234 2.223 . S
Cd226 O236 2.297 . S
Cd226 O237 2.439 . S
O227 Cd226 2.240 . S
O227 C232 1.279 . S
O228 Cd225 2.297 . S
O228 C230 1.247 . S
O229 Cd225 2.439 . S
O229 C230 1.208 . S
C230 O228 1.247 . S
C230 O229 1.208 . S
C231 O236 1.247 . S
C231 O237 1.208 . S
C232 O224 1.315 . S
C232 O227 1.279 . S
C233 O234 1.315 . S
C233 O235 1.279 . S
O234 Cd226 2.223 . S
O234 C233 1.315 . S
O235 Cd225 2.240 . S
O235 C233 1.279 . S
O236 Cd226 2.297 . S
O236 C231 1.247 . S
O237 Cd226 2.439 . S
O237 C231 1.208 . S
O238 Cd239 2.223 . S
O238 C246 1.315 . S
Cd239 O238 2.223 . S
Cd239 O242 2.297 . S
Cd239 O243 2.439 . S
Cd239 O249 2.240 . S
Cd240 O241 2.240 . S
Cd240 O248 2.223 . S
Cd240 O250 2.297 . S
Cd240 O251 2.439 . S
O241 Cd240 2.240 . S
O241 C246 1.279 . S
O242 Cd239 2.297 . S
O242 C244 1.247 . S
O243 Cd239 2.439 . S
O243 C244 1.208 . S
C244 O242 1.247 . S
C244 O243 1.208 . S
C245 O250 1.247 . S
C245 O251 1.208 . S
C246 O238 1.315 . S
C246 O241 1.279 . S
C247 O248 1.315 . S
C247 O249 1.279 . S
O248 Cd240 2.223 . S
O248 C247 1.315 . S
O249 Cd239 2.240 . S
O249 C247 1.279 . S
O250 Cd240 2.297 . S
O250 C245 1.247 . S
O251 Cd240 2.439 . S
O251 C245 1.208 . S
O252 Cd253 2.223 . S
O252 C260 1.315 . S
Cd253 O252 2.223 . S
Cd253 O256 2.297 . S
Cd253 O257 2.439 . S
Cd253 O263 2.240 . S
Cd254 O255 2.240 . S
Cd254 O262 2.223 . S
Cd254 O264 2.297 1_554 S
Cd254 O265 2.439 1_554 S
O255 Cd254 2.240 . S
O255 C260 1.279 . S
O256 Cd253 2.297 . S
O256 C258 1.247 . S
O257 Cd253 2.439 . S
O257 C258 1.208 . S
C258 O256 1.247 . S
C258 O257 1.208 . S
C259 O264 1.247 . S
C259 O265 1.208 . S
C260 O252 1.315 . S
C260 O255 1.279 . S
C261 O262 1.315 . S
C261 O263 1.279 . S
O262 Cd254 2.223 . S
O262 C261 1.315 . S
O263 Cd253 2.240 . S
O263 C261 1.279 . S
O264 Cd254 2.297 1_556 S
O264 C259 1.247 . S
O265 Cd254 2.439 1_556 S
O265 C259 1.208 . S
O266 Cd267 2.223 . S
O266 C274 1.315 . S
Cd267 O266 2.223 . S
Cd267 O270 2.297 . S
Cd267 O271 2.439 . S
Cd267 O277 2.240 . S
Cd268 O269 2.240 . S
Cd268 O276 2.223 . S
Cd268 O278 2.297 . S
Cd268 O279 2.439 . S
O269 Cd268 2.240 . S
O269 C274 1.279 . S
O270 Cd267 2.297 . S
O270 C272 1.247 . S
O271 Cd267 2.439 . S
O271 C272 1.208 . S
C272 O270 1.247 . S
C272 O271 1.208 . S
C273 O278 1.247 . S
C273 O279 1.208 . S
C274 O266 1.315 . S
C274 O269 1.279 . S
C275 O276 1.315 . S
C275 O277 1.279 . S
O276 Cd268 2.223 . S
O276 C275 1.315 . S
O277 Cd267 2.240 . S
O277 C275 1.279 . S
O278 Cd268 2.297 . S
O278 C273 1.247 . S
O279 Cd268 2.439 . S
O279 C273 1.208 . S
O280 Cd281 2.223 . S
O280 C288 1.315 . S
Cd281 O280 2.223 . S
Cd281 O284 2.297 . S
Cd281 O285 2.439 . S
Cd281 O291 2.240 . S
Cd282 O283 2.240 . S
Cd282 O290 2.223 . S
Cd282 O292 2.297 1_556 S
Cd282 O293 2.439 1_556 S
O283 Cd282 2.240 . S
O283 C288 1.279 . S
O284 Cd281 2.297 . S
O284 C286 1.247 . S
O285 Cd281 2.439 . S
O285 C286 1.208 . S
C286 O284 1.247 . S
C286 O285 1.208 . S
C287 O292 1.247 . S
C287 O293 1.208 . S
C288 O280 1.315 . S
C288 O283 1.279 . S
C289 O290 1.315 . S
C289 O291 1.279 . S
O290 Cd282 2.223 . S
O290 C289 1.315 . S
O291 Cd281 2.240 . S
O291 C289 1.279 . S
O292 Cd282 2.297 1_554 S
O292 C287 1.247 . S
O293 Cd282 2.439 1_554 S
O293 C287 1.208 . S
O294 Cd295 2.223 . S
O294 C302 1.315 . S
Cd295 O294 2.223 . S
Cd295 O298 2.297 . S
Cd295 O299 2.439 . S
Cd295 O305 2.240 . S
Cd296 O297 2.240 . S
Cd296 O304 2.223 . S
Cd296 O306 2.297 . S
Cd296 O307 2.439 . S
O297 Cd296 2.240 . S
O297 C302 1.279 . S
O298 Cd295 2.297 . S
O298 C300 1.247 . S
O299 Cd295 2.439 . S
O299 C300 1.208 . S
C300 O298 1.247 . S
C300 O299 1.208 . S
C301 O306 1.247 . S
C301 O307 1.208 . S
C302 O294 1.315 . S
C302 O297 1.279 . S
C303 O304 1.315 . S
C303 O305 1.279 . S
O304 Cd296 2.223 . S
O304 C303 1.315 . S
O305 Cd295 2.240 . S
O305 C303 1.279 . S
O306 Cd296 2.297 . S
O306 C301 1.247 . S
O307 Cd296 2.439 . S
O307 C301 1.208 . S
O308 Cd309 2.223 . S
O308 C316 1.315 . S
Cd309 O308 2.223 . S
Cd309 O312 2.297 . S
Cd309 O313 2.439 . S
Cd309 O319 2.240 . S
Cd310 O311 2.240 . S
Cd310 O318 2.223 . S
Cd310 O320 2.297 . S
Cd310 O321 2.439 . S
O311 Cd310 2.240 . S
O311 C316 1.279 . S
O312 Cd309 2.297 . S
O312 C314 1.247 . S
O313 Cd309 2.439 . S
O313 C314 1.208 . S
C314 O312 1.247 . S
C314 O313 1.208 . S
C315 O320 1.247 . S
C315 O321 1.208 . S
C316 O308 1.315 . S
C316 O311 1.279 . S
C317 O318 1.315 . S
C317 O319 1.279 . S
O318 Cd310 2.223 . S
O318 C317 1.315 . S
O319 Cd309 2.240 . S
O319 C317 1.279 . S
O320 Cd310 2.297 . S
O320 C315 1.247 . S
O321 Cd310 2.439 . S
O321 C315 1.208 . S
O322 Cd323 2.223 . S
O322 C330 1.315 . S
Cd323 O322 2.223 . S
Cd323 O326 2.297 . S
Cd323 O327 2.439 . S
Cd323 O333 2.240 . S
Cd324 O325 2.240 . S
Cd324 O332 2.223 . S
Cd324 O334 2.297 . S
Cd324 O335 2.439 . S
O325 Cd324 2.240 . S
O325 C330 1.279 . S
O326 Cd323 2.297 . S
O326 C328 1.247 . S
O327 Cd323 2.439 . S
O327 C328 1.208 . S
C328 O326 1.247 . S
C328 O327 1.208 . S
C329 O334 1.247 . S
C329 O335 1.208 . S
C330 O322 1.315 . S
C330 O325 1.279 . S
C331 O332 1.315 . S
C331 O333 1.279 . S
O332 Cd324 2.223 . S
O332 C331 1.315 . S
O333 Cd323 2.240 . S
O333 C331 1.279 . S
O334 Cd324 2.297 . S
O334 C329 1.247 . S
O335 Cd324 2.439 . S
O335 C329 1.208 . S
O336 Cd337 2.223 . S
O336 C344 1.315 . S
Cd337 O336 2.223 . S
Cd337 O340 2.297 . S
Cd337 O341 2.439 . S
Cd337 O347 2.240 . S
Cd338 O339 2.240 . S
Cd338 O346 2.223 . S
Cd338 O348 2.297 . S
Cd338 O349 2.439 . S
O339 Cd338 2.240 . S
O339 C344 1.279 . S
O340 Cd337 2.297 . S
O340 C342 1.247 . S
O341 Cd337 2.439 . S
O341 C342 1.208 . S
C342 O340 1.247 . S
C342 O341 1.208 . S
C343 O348 1.247 . S
C343 O349 1.208 . S
C344 O336 1.315 . S
C344 O339 1.279 . S
C345 O346 1.315 . S
C345 O347 1.279 . S
O346 Cd338 2.223 . S
O346 C345 1.315 . S
O347 Cd337 2.240 . S
O347 C345 1.279 . S
O348 Cd338 2.297 . S
O348 C343 1.247 . S
O349 Cd338 2.439 . S
O349 C343 1.208 . S
O350 Cd351 2.223 . S
O350 C358 1.315 . S
Cd351 O350 2.223 . S
Cd351 O354 2.297 . S
Cd351 O355 2.439 . S
Cd351 O361 2.240 . S
Cd352 O353 2.240 . S
Cd352 O360 2.223 . S
Cd352 O362 2.297 . S
Cd352 O363 2.439 . S
O353 Cd352 2.240 . S
O353 C358 1.279 . S
O354 Cd351 2.297 . S
O354 C356 1.247 . S
O355 Cd351 2.439 . S
O355 C356 1.208 . S
C356 O354 1.247 . S
C356 O355 1.208 . S
C357 O362 1.247 . S
C357 O363 1.208 . S
C358 O350 1.315 . S
C358 O353 1.279 . S
C359 O360 1.315 . S
C359 O361 1.279 . S
O360 Cd352 2.223 . S
O360 C359 1.315 . S
O361 Cd351 2.240 . S
O361 C359 1.279 . S
O362 Cd352 2.297 . S
O362 C357 1.247 . S
O363 Cd352 2.439 . S
O363 C357 1.208 . S
O364 Cd365 2.223 . S
O364 C372 1.315 . S
Cd365 O364 2.223 . S
Cd365 O368 2.297 . S
Cd365 O369 2.439 . S
Cd365 O375 2.240 . S
Cd366 O367 2.240 . S
Cd366 O374 2.223 . S
Cd366 O376 2.297 1_556 S
Cd366 O377 2.439 1_556 S
O367 Cd366 2.240 . S
O367 C372 1.279 . S
O368 Cd365 2.297 . S
O368 C370 1.247 . S
O369 Cd365 2.439 . S
O369 C370 1.208 . S
C370 O368 1.247 . S
C370 O369 1.208 . S
C371 O376 1.247 . S
C371 O377 1.208 . S
C372 O364 1.315 . S
C372 O367 1.279 . S
C373 O374 1.315 . S
C373 O375 1.279 . S
O374 Cd366 2.223 . S
O374 C373 1.315 . S
O375 Cd365 2.240 . S
O375 C373 1.279 . S
O376 Cd366 2.297 1_554 S
O376 C371 1.247 . S
O377 Cd366 2.439 1_554 S
O377 C371 1.208 . S
O378 Cd379 2.223 . S
O378 C386 1.315 . S
Cd379 O378 2.223 . S
Cd379 O382 2.297 . S
Cd379 O383 2.439 . S
Cd379 O389 2.240 . S
Cd380 O381 2.240 . S
Cd380 O388 2.223 . S
Cd380 O390 2.297 . S
Cd380 O391 2.439 . S
O381 Cd380 2.240 . S
O381 C386 1.279 . S
O382 Cd379 2.297 . S
O382 C384 1.247 . S
O383 Cd379 2.439 . S
O383 C384 1.208 . S
C384 O382 1.247 . S
C384 O383 1.208 . S
C385 O390 1.247 . S
C385 O391 1.208 . S
C386 O378 1.315 . S
C386 O381 1.279 . S
C387 O388 1.315 . S
C387 O389 1.279 . S
O388 Cd380 2.223 . S
O388 C387 1.315 . S
O389 Cd379 2.240 . S
O389 C387 1.279 . S
O390 Cd380 2.297 . S
O390 C385 1.247 . S
O391 Cd380 2.439 . S
O391 C385 1.208 . S
O392 Cd393 2.223 . S
O392 C400 1.315 . S
Cd393 O392 2.223 . S
Cd393 O396 2.297 . S
Cd393 O397 2.439 . S
Cd393 O403 2.240 . S
Cd394 O395 2.240 . S
Cd394 O402 2.223 . S
Cd394 O404 2.297 1_554 S
Cd394 O405 2.439 1_554 S
O395 Cd394 2.240 . S
O395 C400 1.279 . S
O396 Cd393 2.297 . S
O396 C398 1.247 . S
O397 Cd393 2.439 . S
O397 C398 1.208 . S
C398 O396 1.247 . S
C398 O397 1.208 . S
C399 O404 1.247 . S
C399 O405 1.208 . S
C400 O392 1.315 . S
C400 O395 1.279 . S
C401 O402 1.315 . S
C401 O403 1.279 . S
O402 Cd394 2.223 . S
O402 C401 1.315 . S
O403 Cd393 2.240 . S
O403 C401 1.279 . S
O404 Cd394 2.297 1_556 S
O404 C399 1.247 . S
O405 Cd394 2.439 1_556 S
O405 C399 1.208 . S
O406 Cd407 2.223 . S
O406 C414 1.315 . S
Cd407 O406 2.223 . S
Cd407 O410 2.297 . S
Cd407 O411 2.439 . S
Cd407 O417 2.240 . S
Cd408 O409 2.240 . S
Cd408 O416 2.223 . S
Cd408 O418 2.297 . S
Cd408 O419 2.439 . S
O409 Cd408 2.240 . S
O409 C414 1.279 . S
O410 Cd407 2.297 . S
O410 C412 1.247 . S
O411 Cd407 2.439 . S
O411 C412 1.208 . S
C412 O410 1.247 . S
C412 O411 1.208 . S
C413 O418 1.247 . S
C413 O419 1.208 . S
C414 O406 1.315 . S
C414 O409 1.279 . S
C415 O416 1.315 . S
C415 O417 1.279 . S
O416 Cd408 2.223 . S
O416 C415 1.315 . S
O417 Cd407 2.240 . S
O417 C415 1.279 . S
O418 Cd408 2.297 . S
O418 C413 1.247 . S
O419 Cd408 2.439 . S
O419 C413 1.208 . S
O420 Cd421 2.223 . S
O420 C428 1.315 . S
Cd421 O420 2.223 . S
Cd421 O424 2.297 . S
Cd421 O425 2.439 . S
Cd421 O431 2.240 . S
Cd422 O423 2.240 . S
Cd422 O430 2.223 . S
Cd422 O432 2.297 . S
Cd422 O433 2.439 . S
O423 Cd422 2.240 . S
O423 C428 1.279 . S
O424 Cd421 2.297 . S
O424 C426 1.247 . S
O425 Cd421 2.439 . S
O425 C426 1.208 . S
C426 O424 1.247 . S
C426 O425 1.208 . S
C427 O432 1.247 . S
C427 O433 1.208 . S
C428 O420 1.315 . S
C428 O423 1.279 . S
C429 O430 1.315 . S
C429 O431 1.279 . S
O430 Cd422 2.223 . S
O430 C429 1.315 . S
O431 Cd421 2.240 . S
O431 C429 1.279 . S
O432 Cd422 2.297 . S
O432 C427 1.247 . S
O433 Cd422 2.439 . S
O433 C427 1.208 . S
O434 Cd435 2.223 . S
O434 C442 1.315 . S
Cd435 O434 2.223 . S
Cd435 O438 2.297 . S
Cd435 O439 2.439 . S
Cd435 O445 2.240 . S
Cd436 O437 2.240 . S
Cd436 O444 2.223 . S
Cd436 O446 2.297 . S
Cd436 O447 2.439 . S
O437 Cd436 2.240 . S
O437 C442 1.279 . S
O438 Cd435 2.297 . S
O438 C440 1.247 . S
O439 Cd435 2.439 . S
O439 C440 1.208 . S
C440 O438 1.247 . S
C440 O439 1.208 . S
C441 O446 1.247 . S
C441 O447 1.208 . S
C442 O434 1.315 . S
C442 O437 1.279 . S
C443 O444 1.315 . S
C443 O445 1.279 . S
O444 Cd436 2.223 . S
O444 C443 1.315 . S
O445 Cd435 2.240 . S
O445 C443 1.279 . S
O446 Cd436 2.297 . S
O446 C441 1.247 . S
O447 Cd436 2.439 . S
O447 C441 1.208 . S
C448 C449 1.391 . S
C448 C450 1.394 . S
C448 H464 0.931 . S
C449 C448 1.391 . S
C449 C453 1.376 . S
C450 C448 1.394 . S
C450 C451 1.369 . S
C450 C454 1.531 . S
C451 C450 1.369 . S
C451 C452 1.410 . S
C451 C459 1.503 . S
C452 C451 1.410 . S
C452 C453 1.392 . S
C452 C455 1.511 . S
C453 C449 1.376 . S
C453 C452 1.392 . S
C453 H465 0.929 . S
C454 C450 1.531 . S
C454 H466 0.960 . S
C454 H467 0.962 1_556 S
C454 H468 0.960 . S
C455 C452 1.511 . S
C455 H469 0.961 . S
C455 H470 0.961 . S
C455 H471 0.961 . S
C456 C457 1.370 . S
C456 C458 1.363 . S
C456 H472 0.931 . S
C457 C456 1.370 . S
C457 C461 1.408 1_554 S
C458 C456 1.363 . S
C458 C459 1.370 1_554 S
C458 C462 1.524 . S
C459 C451 1.503 . S
C459 C458 1.370 1_556 S
C459 C460 1.403 . S
C460 C459 1.403 . S
C460 C461 1.404 . S
C460 C463 1.539 . S
C461 C457 1.408 1_556 S
C461 C460 1.404 . S
C461 H473 0.930 . S
C462 C458 1.524 . S
C462 H474 0.956 . S
C462 H475 0.961 . S
C462 H476 0.961 . S
C463 C460 1.539 . S
C463 H477 0.958 . S
C463 H478 0.961 . S
C463 H479 0.960 . S
H464 C448 0.931 . S
H465 C453 0.929 . S
H466 C454 0.960 . S
H467 C454 0.962 1_554 S
H468 C454 0.960 . S
H469 C455 0.961 . S
H470 C455 0.961 . S
H471 C455 0.961 . S
H472 C456 0.931 . S
H473 C461 0.930 . S
H474 C462 0.956 . S
H475 C462 0.961 . S
H476 C462 0.961 . S
H477 C463 0.958 . S
H478 C463 0.961 . S
H479 C463 0.960 . S
C480 C481 1.391 . S
C480 C482 1.394 . S
C480 H496 0.931 . S
C481 C480 1.391 . S
C481 C485 1.376 . S
C482 C480 1.394 . S
C482 C483 1.369 . S
C482 C486 1.531 . S
C483 C482 1.369 . S
C483 C484 1.410 . S
C483 C491 1.503 1_565 S
C484 C483 1.410 . S
C484 C485 1.392 . S
C484 C487 1.511 . S
C485 C481 1.376 . S
C485 C484 1.392 . S
C485 H497 0.929 . S
C486 C482 1.531 . S
C486 H498 0.960 1_565 S
C486 H499 0.962 . S
C486 H500 0.960 . S
C487 C484 1.511 . S
C487 H501 0.961 1_655 S
C487 H502 0.935 1_565 S
C487 H503 0.961 1_655 S
C488 C489 1.370 . S
C488 C490 1.363 . S
C488 H504 0.931 . S
C489 C488 1.370 . S
C489 C493 1.408 . S
C490 C488 1.363 . S
C490 C491 1.370 . S
C490 C494 1.524 . S
C491 C483 1.503 1_545 S
C491 C490 1.370 . S
C491 C492 1.403 . S
C492 C491 1.403 . S
C492 C493 1.404 . S
C492 C495 1.539 . S
C493 C489 1.408 . S
C493 C492 1.404 . S
C493 H505 0.930 . S
C494 C490 1.524 . S
C494 H506 0.956 1_545 S
C494 H507 0.961 1_545 S
C494 H508 0.961 . S
C495 C492 1.539 . S
C495 H509 0.958 . S
C495 H510 0.961 . S
C495 H511 0.960 . S
H496 C480 0.931 . S
H497 C485 0.929 . S
H498 C486 0.960 1_545 S
H499 C486 0.962 . S
H500 C486 0.960 . S
H501 C487 0.961 1_455 S
H502 C487 0.935 1_545 S
H503 C487 0.961 1_455 S
H504 C488 0.931 . S
H505 C493 0.930 . S
H506 C494 0.956 1_565 S
H507 C494 0.961 1_565 S
H508 C494 0.961 . S
H509 C495 0.958 . S
H510 C495 0.961 . S
H511 C495 0.960 . S
C512 C513 1.391 . S
C512 C514 1.394 . S
C512 H528 0.931 . S
C513 C512 1.391 . S
C513 C517 1.376 . S
C514 C512 1.394 . S
C514 C515 1.369 . S
C514 C518 1.531 . S
C515 C514 1.369 . S
C515 C516 1.410 . S
C515 C523 1.503 . S
C516 C515 1.410 . S
C516 C517 1.392 . S
C516 C519 1.511 . S
C517 C513 1.376 . S
C517 C516 1.392 . S
C517 H529 0.929 . S
C518 C514 1.531 . S
C518 H530 0.960 . S
C518 H531 0.962 . S
C518 H532 0.960 . S
C519 C516 1.511 . S
C519 H533 0.961 . S
C519 H534 0.961 . S
C519 H535 0.961 . S
C520 C521 1.370 . S
C520 C522 1.363 . S
C520 H536 0.931 . S
C521 C520 1.370 . S
C521 C525 1.408 . S
C522 C520 1.363 . S
C522 C523 1.370 . S
C522 C526 1.524 . S
C523 C515 1.503 . S
C523 C522 1.370 . S
C523 C524 1.403 . S
C524 C523 1.403 . S
C524 C525 1.404 . S
C524 C527 1.539 . S
C525 C521 1.408 . S
C525 C524 1.404 . S
C525 H537 0.930 . S
C526 C522 1.524 . S
C526 H538 0.956 . S
C526 H539 0.961 . S
C526 H540 0.961 . S
C527 C524 1.539 . S
C527 H541 0.958 . S
C527 H542 0.961 . S
C527 H543 0.960 . S
H528 C512 0.931 . S
H529 C517 0.929 . S
H530 C518 0.960 . S
H531 C518 0.962 . S
H532 C518 0.960 . S
H533 C519 0.961 . S
H534 C519 0.961 . S
H535 C519 0.961 . S
H536 C520 0.931 . S
H537 C525 0.930 . S
H538 C526 0.956 . S
H539 C526 0.961 . S
H540 C526 0.961 . S
H541 C527 0.958 . S
H542 C527 0.961 . S
H543 C527 0.960 . S
C544 C545 1.391 . S
C544 C546 1.394 . S
C544 H560 0.931 . S
C545 C544 1.391 . S
C545 C549 1.376 . S
C546 C544 1.394 . S
C546 C547 1.369 . S
C546 C550 1.531 . S
C547 C546 1.369 . S
C547 C548 1.410 . S
C547 C555 1.503 1_545 S
C548 C547 1.410 . S
C548 C549 1.392 . S
C548 C551 1.511 . S
C549 C545 1.376 . S
C549 C548 1.392 . S
C549 H561 0.929 . S
C550 C546 1.531 . S
C550 H562 0.960 . S
C550 H563 0.962 . S
C550 H564 0.960 . S
C551 C548 1.511 . S
C551 H565 0.961 . S
C551 H566 0.961 1_545 S
C551 H567 0.961 . S
C552 C553 1.370 . S
C552 C554 1.363 . S
C552 H568 0.931 . S
C553 C552 1.370 . S
C553 C557 1.408 . S
C554 C552 1.363 . S
C554 C555 1.370 . S
C554 C558 1.524 . S
C555 C547 1.503 1_565 S
C555 C554 1.370 . S
C555 C556 1.403 . S
C556 C555 1.403 . S
C556 C557 1.404 . S
C556 C559 1.539 . S
C557 C553 1.408 . S
C557 C556 1.404 . S
C557 H569 0.930 . S
C558 C554 1.524 . S
C558 H570 0.956 . S
C558 H571 0.961 . S
C558 H572 0.961 . S
C559 C556 1.539 . S
C559 H573 0.958 . S
C559 H574 0.961 . S
C559 H575 0.960 1_565 S
H560 C544 0.931 . S
H561 C549 0.929 . S
H562 C550 0.960 . S
H563 C550 0.962 . S
H564 C550 0.960 . S
H565 C551 0.961 . S
H566 C551 0.961 1_565 S
H567 C551 0.961 . S
H568 C552 0.931 . S
H569 C557 0.930 . S
H570 C558 0.956 . S
H571 C558 0.961 . S
H572 C558 0.961 . S
H573 C559 0.958 . S
H574 C559 0.961 . S
H575 C559 0.960 1_545 S
C576 C577 1.391 . S
C576 C578 1.394 . S
C576 H592 0.931 . S
C577 C576 1.391 . S
C577 C581 1.376 . S
C578 C576 1.394 . S
C578 C579 1.369 . S
C578 C582 1.531 1_554 S
C579 C578 1.369 . S
C579 C580 1.410 . S
C579 C587 1.503 . S
C580 C579 1.410 . S
C580 C581 1.392 . S
C580 C583 1.511 . S
C581 C577 1.376 . S
C581 C580 1.392 . S
C581 H593 0.929 . S
C582 C578 1.531 1_556 S
C582 H594 0.960 . S
C582 H595 0.962 . S
C582 H596 0.960 . S
C583 C580 1.511 . S
C583 H597 0.961 . S
C583 H598 0.961 . S
C583 H599 0.961 . S
C584 C585 1.370 . S
C584 C586 1.363 . S
C584 H600 0.931 . S
C585 C584 1.370 . S
C585 C589 1.408 1_556 S
C586 C584 1.363 . S
C586 C587 1.370 1_556 S
C586 C590 1.524 . S
C587 C579 1.503 . S
C587 C586 1.370 1_554 S
C587 C588 1.403 . S
C588 C587 1.403 . S
C588 C589 1.404 . S
C588 C591 1.539 . S
C589 C585 1.408 1_554 S
C589 C588 1.404 . S
C589 H601 0.930 . S
C590 C586 1.524 . S
C590 H602 0.956 . S
C590 H603 0.961 . S
C590 H604 0.961 . S
C591 C588 1.539 . S
C591 H605 0.958 . S
C591 H606 0.961 . S
C591 H607 0.960 . S
H592 C576 0.931 . S
H593 C581 0.929 . S
H594 C582 0.960 . S
H595 C582 0.962 . S
H596 C582 0.960 . S
H597 C583 0.961 . S
H598 C583 0.961 . S
H599 C583 0.961 . S
H600 C584 0.931 . S
H601 C589 0.930 . S
H602 C590 0.956 . S
H603 C590 0.961 . S
H604 C590 0.961 . S
H605 C591 0.958 . S
H606 C591 0.961 . S
H607 C591 0.960 . S
C608 C609 1.391 . S
C608 C610 1.394 . S
C608 H624 0.931 . S
C609 C608 1.391 . S
C609 C613 1.376 . S
C610 C608 1.394 . S
C610 C611 1.369 . S
C610 C614 1.531 . S
C611 C610 1.369 . S
C611 C612 1.410 . S
C611 C619 1.503 1_565 S
C612 C611 1.410 . S
C612 C613 1.392 . S
C612 C615 1.511 . S
C613 C609 1.376 . S
C613 C612 1.392 . S
C613 H625 0.929 . S
C614 C610 1.531 . S
C614 H626 0.960 1_565 S
C614 H627 0.962 1_565 S
C614 H628 0.960 . S
C615 C612 1.511 . S
C615 H629 0.961 . S
C615 H630 0.961 . S
C615 H631 0.961 . S
C616 C617 1.370 . S
C616 C618 1.363 . S
C616 H632 0.931 . S
C617 C616 1.370 . S
C617 C621 1.408 . S
C618 C616 1.363 . S
C618 C619 1.370 . S
C618 C622 1.524 . S
C619 C611 1.503 1_545 S
C619 C618 1.370 . S
C619 C620 1.403 . S
C620 C619 1.403 . S
C620 C621 1.404 . S
C620 C623 1.539 . S
C621 C617 1.408 . S
C621 C620 1.404 . S
C621 H633 0.930 . S
C622 C618 1.524 . S
C622 H634 0.956 . S
C622 H635 0.961 1_545 S
C622 H636 0.961 1_455 S
C623 C620 1.539 . S
C623 H637 0.958 . S
C623 H638 0.961 . S
C623 H639 0.899 1_545 S
H624 C608 0.931 . S
H625 C613 0.929 . S
H626 C614 0.960 1_545 S
H627 C614 0.962 1_545 S
H628 C614 0.960 . S
H629 C615 0.961 . S
H630 C615 0.961 . S
H631 C615 0.961 . S
H632 C616 0.931 . S
H633 C621 0.930 . S
H634 C622 0.956 . S
H635 C622 0.961 1_565 S
H636 C622 0.961 1_655 S
H637 C623 0.958 . S
H638 C623 0.961 . S
H639 C623 0.899 1_565 S
C640 C641 1.391 . S
C640 C642 1.394 . S
C640 H656 0.931 . S
C641 C640 1.391 . S
C641 C645 1.376 . S
C642 C640 1.394 . S
C642 C643 1.369 . S
C642 C646 1.531 . S
C643 C642 1.369 . S
C643 C644 1.410 . S
C643 C651 1.503 . S
C644 C643 1.410 . S
C644 C645 1.392 . S
C644 C647 1.511 . S
C645 C641 1.376 . S
C645 C644 1.392 . S
C645 H657 0.929 . S
C646 C642 1.531 . S
C646 H658 0.960 . S
C646 H659 0.962 . S
C646 H660 0.960 . S
C647 C644 1.511 . S
C647 H661 0.961 . S
C647 H662 0.961 . S
C647 H663 0.961 . S
C648 C649 1.370 . S
C648 C650 1.363 . S
C648 H664 0.931 . S
C649 C648 1.370 . S
C649 C653 1.408 . S
C650 C648 1.363 . S
C650 C651 1.370 . S
C650 C654 1.524 . S
C651 C643 1.503 . S
C651 C650 1.370 . S
C651 C652 1.403 . S
C652 C651 1.403 . S
C652 C653 1.404 . S
C652 C655 1.539 . S
C653 C649 1.408 . S
C653 C652 1.404 . S
C653 H665 0.930 . S
C654 C650 1.524 . S
C654 H666 0.956 . S
C654 H667 0.961 . S
C654 H668 0.961 . S
C655 C652 1.539 . S
C655 H669 0.958 . S
C655 H670 0.961 . S
C655 H671 0.960 . S
H656 C640 0.931 . S
H657 C645 0.929 . S
H658 C646 0.960 . S
H659 C646 0.962 . S
H660 C646 0.960 . S
H661 C647 0.961 . S
H662 C647 0.961 . S
H663 C647 0.961 . S
H664 C648 0.931 . S
H665 C653 0.930 . S
H666 C654 0.956 . S
H667 C654 0.961 . S
H668 C654 0.961 . S
H669 C655 0.958 . S
H670 C655 0.961 . S
H671 C655 0.960 . S
C672 C673 1.391 . S
C672 C674 1.394 . S
C672 H688 0.931 . S
C673 C672 1.391 . S
C673 C677 1.376 . S
C674 C672 1.394 . S
C674 C675 1.369 . S
C674 C678 1.531 . S
C675 C674 1.369 . S
C675 C676 1.410 . S
C675 C683 1.503 1_565 S
C676 C675 1.410 . S
C676 C677 1.392 . S
C676 C679 1.511 . S
C677 C673 1.376 . S
C677 C676 1.392 . S
C677 H689 0.929 . S
C678 C674 1.531 . S
C678 H690 0.960 1_565 S
C678 H691 0.962 . S
C678 H692 0.960 . S
C679 C676 1.511 . S
C679 H693 0.961 . S
C679 H694 0.961 . S
C679 H695 0.961 . S
C680 C681 1.370 . S
C680 C682 1.363 . S
C680 H696 0.931 . S
C681 C680 1.370 . S
C681 C685 1.408 . S
C682 C680 1.363 . S
C682 C683 1.370 . S
C682 C686 1.524 . S
C683 C675 1.503 1_545 S
C683 C682 1.370 . S
C683 C684 1.403 . S
C684 C683 1.403 . S
C684 C685 1.404 . S
C684 C687 1.539 . S
C685 C681 1.408 . S
C685 C684 1.404 . S
C685 H697 0.930 . S
C686 C682 1.524 . S
C686 H698 0.956 1_545 S
C686 H699 0.961 1_545 S
C686 H700 0.961 . S
C687 C684 1.539 . S
C687 H701 0.958 . S
C687 H702 0.961 . S
C687 H703 0.960 . S
H688 C672 0.931 . S
H689 C677 0.929 . S
H690 C678 0.960 1_545 S
H691 C678 0.962 . S
H692 C678 0.960 . S
H693 C679 0.961 . S
H694 C679 0.961 . S
H695 C679 0.961 . S
H696 C680 0.931 . S
H697 C685 0.930 . S
H698 C686 0.956 1_565 S
H699 C686 0.961 1_565 S
H700 C686 0.961 . S
H701 C687 0.958 . S
H702 C687 0.961 . S
H703 C687 0.960 . S
C704 C705 1.391 . S
C704 C706 1.394 . S
C704 H720 0.931 . S
C705 C704 1.391 . S
C705 C709 1.376 . S
C706 C704 1.394 . S
C706 C707 1.369 . S
C706 C710 1.531 . S
C707 C706 1.369 . S
C707 C708 1.410 . S
C707 C715 1.503 . S
C708 C707 1.410 . S
C708 C709 1.392 . S
C708 C711 1.511 . S
C709 C705 1.376 . S
C709 C708 1.392 . S
C709 H721 0.929 . S
C710 C706 1.531 . S
C710 H722 0.960 . S
C710 H723 0.962 . S
C710 H724 0.960 . S
C711 C708 1.511 . S
C711 H725 0.961 . S
C711 H726 0.961 . S
C711 H727 0.961 . S
C712 C713 1.370 . S
C712 C714 1.363 . S
C712 H728 0.931 . S
C713 C712 1.370 . S
C713 C717 1.408 . S
C714 C712 1.363 . S
C714 C715 1.370 . S
C714 C718 1.524 . S
C715 C707 1.503 . S
C715 C714 1.370 . S
C715 C716 1.403 . S
C716 C715 1.403 . S
C716 C717 1.404 . S
C716 C719 1.539 . S
C717 C713 1.408 . S
C717 C716 1.404 . S
C717 H729 0.930 . S
C718 C714 1.524 . S
C718 H730 0.956 . S
C718 H731 0.961 . S
C718 H732 0.961 . S
C719 C716 1.539 . S
C719 H733 0.958 . S
C719 H734 0.961 . S
C719 H735 0.960 . S
H720 C704 0.931 . S
H721 C709 0.929 . S
H722 C710 0.960 . S
H723 C710 0.962 . S
H724 C710 0.960 . S
H725 C711 0.961 . S
H726 C711 0.961 . S
H727 C711 0.961 . S
H728 C712 0.931 . S
H729 C717 0.930 . S
H730 C718 0.956 . S
H731 C718 0.961 . S
H732 C718 0.961 . S
H733 C719 0.958 . S
H734 C719 0.961 . S
H735 C719 0.960 . S
C736 C737 1.391 . S
C736 C738 1.394 . S
C736 H752 0.931 . S
C737 C736 1.391 . S
C737 C741 1.376 . S
C738 C736 1.394 . S
C738 C739 1.369 . S
C738 C742 1.531 . S
C739 C738 1.369 . S
C739 C740 1.410 . S
C739 C747 1.503 . S
C740 C739 1.410 . S
C740 C741 1.392 . S
C740 C743 1.511 . S
C741 C737 1.376 . S
C741 C740 1.392 . S
C741 H753 0.929 . S
C742 C738 1.531 . S
C742 H754 0.960 . S
C742 H755 0.962 . S
C742 H756 0.960 . S
C743 C740 1.511 . S
C743 H757 0.961 . S
C743 H758 0.961 . S
C743 H759 0.961 . S
C744 C745 1.370 . S
C744 C746 1.363 . S
C744 H760 0.931 . S
C745 C744 1.370 . S
C745 C749 1.408 . S
C746 C744 1.363 . S
C746 C747 1.370 . S
C746 C750 1.524 . S
C747 C739 1.503 . S
C747 C746 1.370 . S
C747 C748 1.403 . S
C748 C747 1.403 . S
C748 C749 1.404 . S
C748 C751 1.539 . S
C749 C745 1.408 . S
C749 C748 1.404 . S
C749 H761 0.930 . S
C750 C746 1.524 . S
C750 H762 0.956 . S
C750 H763 0.961 . S
C750 H764 0.961 . S
C751 C748 1.539 . S
C751 H765 0.958 . S
C751 H766 0.961 . S
C751 H767 0.960 . S
H752 C736 0.931 . S
H753 C741 0.929 . S
H754 C742 0.960 . S
H755 C742 0.962 . S
H756 C742 0.960 . S
H757 C743 0.961 . S
H758 C743 0.961 . S
H759 C743 0.961 . S
H760 C744 0.931 . S
H761 C749 0.930 . S
H762 C750 0.956 . S
H763 C750 0.961 . S
H764 C750 0.961 . S
H765 C751 0.958 . S
H766 C751 0.961 . S
H767 C751 0.960 . S
C768 C769 1.391 1_554 S
C768 C770 1.394 . S
C768 H784 0.931 . S
C769 C768 1.391 1_556 S
C769 C773 1.376 . S
C770 C768 1.394 . S
C770 C771 1.369 . S
C770 C774 1.531 . S
C771 C770 1.369 . S
C771 C772 1.410 1_554 S
C771 C779 1.503 . S
C772 C771 1.410 1_556 S
C772 C773 1.392 . S
C772 C775 1.511 . S
C773 C769 1.376 . S
C773 C772 1.392 . S
C773 H785 0.929 . S
C774 C770 1.531 . S
C774 H786 0.960 . S
C774 H787 0.962 . S
C774 H788 0.960 . S
C775 C772 1.511 . S
C775 H789 0.961 . S
C775 H790 0.961 . S
C775 H791 0.961 . S
C776 C777 1.370 1_556 S
C776 C778 1.363 . S
C776 H792 0.931 . S
C777 C776 1.370 1_554 S
C777 C781 1.408 . S
C778 C776 1.363 . S
C778 C779 1.370 1_556 S
C778 C782 1.524 . S
C779 C771 1.503 . S
C779 C778 1.370 1_554 S
C779 C780 1.403 . S
C780 C779 1.403 . S
C780 C781 1.404 . S
C780 C783 1.539 . S
C781 C777 1.408 . S
C781 C780 1.404 . S
C781 H793 0.930 . S
C782 C778 1.524 . S
C782 H794 0.956 . S
C782 H795 0.961 . S
C782 H796 0.961 . S
C783 C780 1.539 . S
C783 H797 0.958 . S
C783 H798 0.961 . S
C783 H799 0.960 . S
H784 C768 0.931 . S
H785 C773 0.929 . S
H786 C774 0.960 . S
H787 C774 0.962 . S
H788 C774 0.960 . S
H789 C775 0.961 . S
H790 C775 0.961 . S
H791 C775 0.961 . S
H792 C776 0.931 . S
H793 C781 0.930 . S
H794 C782 0.956 . S
H795 C782 0.961 . S
H796 C782 0.961 . S
H797 C783 0.958 . S
H798 C783 0.961 . S
H799 C783 0.960 . S
C800 C801 1.391 . S
C800 C802 1.394 . S
C800 H816 0.931 . S
C801 C800 1.391 . S
C801 C805 1.376 . S
C802 C800 1.394 . S
C802 C803 1.369 . S
C802 C806 1.531 . S
C803 C802 1.369 . S
C803 C804 1.410 . S
C803 C811 1.503 . S
C804 C803 1.410 . S
C804 C805 1.392 . S
C804 C807 1.511 . S
C805 C801 1.376 . S
C805 C804 1.392 . S
C805 H817 0.929 . S
C806 C802 1.531 . S
C806 H818 0.960 . S
C806 H819 0.962 . S
C806 H820 0.960 . S
C807 C804 1.511 . S
C807 H821 0.961 . S
C807 H822 0.961 . S
C807 H823 0.961 . S
C808 C809 1.370 . S
C808 C810 1.363 . S
C808 H824 0.931 . S
C809 C808 1.370 . S
C809 C813 1.408 . S
C810 C808 1.363 . S
C810 C811 1.370 . S
C810 C814 1.524 . S
C811 C803 1.503 . S
C811 C810 1.370 . S
C811 C812 1.403 . S
C812 C811 1.403 . S
C812 C813 1.404 . S
C812 C815 1.539 . S
C813 C809 1.408 . S
C813 C812 1.404 . S
C813 H825 0.930 . S
C814 C810 1.524 . S
C814 H826 0.956 . S
C814 H827 0.961 . S
C814 H828 0.961 . S
C815 C812 1.539 . S
C815 H829 0.958 . S
C815 H830 0.961 . S
C815 H831 0.960 . S
H816 C800 0.931 . S
H817 C805 0.929 . S
H818 C806 0.960 . S
H819 C806 0.962 . S
H820 C806 0.960 . S
H821 C807 0.961 . S
H822 C807 0.961 . S
H823 C807 0.961 . S
H824 C808 0.931 . S
H825 C813 0.930 . S
H826 C814 0.956 . S
H827 C814 0.961 . S
H828 C814 0.961 . S
H829 C815 0.958 . S
H830 C815 0.961 . S
H831 C815 0.960 . S
C832 C833 1.391 . S
C832 C834 1.394 . S
C832 H848 0.931 . S
C833 C832 1.391 . S
C833 C837 1.376 . S
C834 C832 1.394 . S
C834 C835 1.369 . S
C834 C838 1.531 . S
C835 C834 1.369 . S
C835 C836 1.410 . S
C835 C843 1.503 . S
C836 C835 1.410 . S
C836 C837 1.392 . S
C836 C839 1.511 . S
C837 C833 1.376 . S
C837 C836 1.392 . S
C837 H849 0.929 . S
C838 C834 1.531 . S
C838 H850 0.960 . S
C838 H851 0.962 . S
C838 H852 0.960 . S
C839 C836 1.511 . S
C839 H853 0.961 . S
C839 H854 0.961 . S
C839 H855 0.961 . S
C840 C841 1.370 . S
C840 C842 1.363 . S
C840 H856 0.931 . S
C841 C840 1.370 . S
C841 C845 1.408 . S
C842 C840 1.363 . S
C842 C843 1.370 . S
C842 C846 1.524 . S
C843 C835 1.503 . S
C843 C842 1.370 . S
C843 C844 1.403 . S
C844 C843 1.403 . S
C844 C845 1.404 . S
C844 C847 1.539 . S
C845 C841 1.408 . S
C845 C844 1.404 . S
C845 H857 0.930 . S
C846 C842 1.524 . S
C846 H858 0.956 . S
C846 H859 0.961 . S
C846 H860 0.961 . S
C847 C844 1.539 . S
C847 H861 0.958 . S
C847 H862 0.961 . S
C847 H863 0.960 . S
H848 C832 0.931 . S
H849 C837 0.929 . S
H850 C838 0.960 . S
H851 C838 0.962 . S
H852 C838 0.960 . S
H853 C839 0.961 . S
H854 C839 0.961 . S
H855 C839 0.961 . S
H856 C840 0.931 . S
H857 C845 0.930 . S
H858 C846 0.956 . S
H859 C846 0.961 . S
H860 C846 0.961 . S
H861 C847 0.958 . S
H862 C847 0.961 . S
H863 C847 0.960 . S
C864 C865 1.391 . S
C864 C866 1.394 . S
C864 H880 0.931 . S
C865 C864 1.391 . S
C865 C869 1.376 . S
C866 C864 1.394 . S
C866 C867 1.369 . S
C866 C870 1.531 . S
C867 C866 1.369 . S
C867 C868 1.410 . S
C867 C875 1.503 . S
C868 C867 1.410 . S
C868 C869 1.392 . S
C868 C871 1.511 . S
C869 C865 1.376 . S
C869 C868 1.392 . S
C869 H881 0.929 . S
C870 C866 1.531 . S
C870 H882 0.960 . S
C870 H883 0.962 . S
C870 H884 0.960 . S
C871 C868 1.511 . S
C871 H885 0.961 . S
C871 H886 0.961 . S
C871 H887 0.961 . S
C872 C873 1.370 . S
C872 C874 1.363 . S
C872 H888 0.931 . S
C873 C872 1.370 . S
C873 C877 1.408 . S
C874 C872 1.363 . S
C874 C875 1.370 . S
C874 C878 1.524 . S
C875 C867 1.503 . S
C875 C874 1.370 . S
C875 C876 1.403 . S
C876 C875 1.403 . S
C876 C877 1.404 . S
C876 C879 1.539 . S
C877 C873 1.408 . S
C877 C876 1.404 . S
C877 H889 0.930 . S
C878 C874 1.524 . S
C878 H890 0.956 . S
C878 H891 0.961 . S
C878 H892 0.961 . S
C879 C876 1.539 . S
C879 H893 0.958 . S
C879 H894 0.961 . S
C879 H895 0.960 . S
H880 C864 0.931 . S
H881 C869 0.929 . S
H882 C870 0.960 . S
H883 C870 0.962 . S
H884 C870 0.960 . S
H885 C871 0.961 . S
H886 C871 0.961 . S
H887 C871 0.961 . S
H888 C872 0.931 . S
H889 C877 0.930 . S
H890 C878 0.956 . S
H891 C878 0.961 . S
H892 C878 0.961 . S
H893 C879 0.958 . S
H894 C879 0.961 . S
H895 C879 0.960 . S
C896 C897 1.391 1_556 S
C896 C898 1.394 . S
C896 H912 0.931 . S
C897 C896 1.391 1_554 S
C897 C901 1.376 . S
C898 C896 1.394 . S
C898 C899 1.369 1_556 S
C898 C902 1.531 . S
C899 C898 1.369 1_554 S
C899 C900 1.410 . S
C899 C907 1.503 . S
C900 C899 1.410 . S
C900 C901 1.392 . S
C900 C903 1.511 . S
C901 C897 1.376 . S
C901 C900 1.392 . S
C901 H913 0.929 . S
C902 C898 1.531 . S
C902 H914 0.960 . S
C902 H915 0.962 . S
C902 H916 0.960 . S
C903 C900 1.511 . S
C903 H917 0.961 . S
C903 H918 0.961 . S
C903 H919 0.961 . S
C904 C905 1.370 . S
C904 C906 1.363 . S
C904 H920 0.931 . S
C905 C904 1.370 . S
C905 C909 1.408 1_556 S
C906 C904 1.363 . S
C906 C907 1.370 1_556 S
C906 C910 1.524 . S
C907 C899 1.503 . S
C907 C906 1.370 1_554 S
C907 C908 1.403 . S
C908 C907 1.403 . S
C908 C909 1.404 . S
C908 C911 1.539 . S
C909 C905 1.408 1_554 S
C909 C908 1.404 . S
C909 H921 0.930 . S
C910 C906 1.524 . S
C910 H922 0.956 . S
C910 H923 0.961 . S
C910 H924 0.961 . S
C911 C908 1.539 . S
C911 H925 0.958 . S
C911 H926 0.961 . S
C911 H927 0.960 . S
H912 C896 0.931 . S
H913 C901 0.929 . S
H914 C902 0.960 . S
H915 C902 0.962 . S
H916 C902 0.960 . S
H917 C903 0.961 . S
H918 C903 0.961 . S
H919 C903 0.961 . S
H920 C904 0.931 . S
H921 C909 0.930 . S
H922 C910 0.956 . S
H923 C910 0.961 . S
H924 C910 0.961 . S
H925 C911 0.958 . S
H926 C911 0.961 . S
H927 C911 0.960 . S
C928 C929 1.391 . S
C928 C930 1.394 . S
C928 H944 0.931 . S
C929 C928 1.391 . S
C929 C933 1.376 . S
C930 C928 1.394 . S
C930 C931 1.369 . S
C930 C934 1.531 . S
C931 C930 1.369 . S
C931 C932 1.410 . S
C931 C939 1.503 . S
C932 C931 1.410 . S
C932 C933 1.392 . S
C932 C935 1.511 . S
C933 C929 1.376 . S
C933 C932 1.392 . S
C933 H945 0.929 . S
C934 C930 1.531 . S
C934 H946 0.960 . S
C934 H947 0.969 . S
C934 H948 0.972 . S
C935 C932 1.511 . S
C935 H949 0.961 . S
C935 H950 0.961 . S
C935 H951 0.961 . S
C936 C937 1.370 . S
C936 C938 1.363 . S
C936 H952 0.931 . S
C937 C936 1.370 . S
C937 C941 1.408 . S
C938 C936 1.363 . S
C938 C939 1.370 . S
C938 C942 1.524 . S
C939 C931 1.503 . S
C939 C938 1.370 . S
C939 C940 1.403 . S
C940 C939 1.403 . S
C940 C941 1.404 . S
C940 C943 1.539 . S
C941 C937 1.408 . S
C941 C940 1.404 . S
C941 H953 0.930 . S
C942 C938 1.524 . S
C942 H954 0.956 . S
C942 H955 0.961 . S
C942 H956 0.961 . S
C943 C940 1.539 . S
C943 H957 0.958 . S
C943 H958 0.961 . S
C943 H959 0.960 . S
H944 C928 0.931 . S
H945 C933 0.929 . S
H946 C934 0.960 . S
H947 C934 0.969 . S
H948 C934 0.972 . S
H949 C935 0.961 . S
H950 C935 0.961 . S
H951 C935 0.961 . S
H952 C936 0.931 . S
H953 C941 0.930 . S
H954 C942 0.956 . S
H955 C942 0.961 . S
H956 C942 0.961 . S
H957 C943 0.958 . S
H958 C943 0.961 . S
H959 C943 0.960 . S
C960 C961 1.391 . S
C960 C962 1.394 . S
C960 H976 0.931 . S
C961 C960 1.391 . S
C961 C965 1.376 . S
C962 C960 1.394 . S
C962 C963 1.369 . S
C962 C966 1.531 . S
C963 C962 1.369 . S
C963 C964 1.410 . S
C963 C971 1.503 . S
C964 C963 1.410 . S
C964 C965 1.392 . S
C964 C967 1.511 . S
C965 C961 1.376 . S
C965 C964 1.392 . S
C965 H977 0.929 . S
C966 C962 1.531 . S
C966 H978 0.960 . S
C966 H979 0.962 . S
C966 H980 0.960 . S
C967 C964 1.511 . S
C967 H981 0.961 . S
C967 H982 0.961 . S
C967 H983 0.961 . S
C968 C969 1.370 . S
C968 C970 1.363 . S
C968 H984 0.931 . S
C969 C968 1.370 . S
C969 C973 1.408 . S
C970 C968 1.363 . S
C970 C971 1.370 . S
C970 C974 1.524 . S
C971 C963 1.503 . S
C971 C970 1.370 . S
C971 C972 1.403 . S
C972 C971 1.403 . S
C972 C973 1.404 . S
C972 C975 1.539 . S
C973 C969 1.408 . S
C973 C972 1.404 . S
C973 H985 0.930 . S
C974 C970 1.524 . S
C974 H986 0.956 . S
C974 H987 0.961 . S
C974 H988 0.961 . S
C975 C972 1.539 . S
C975 H989 0.958 . S
C975 H990 0.961 . S
C975 H991 0.960 . S
H976 C960 0.931 . S
H977 C965 0.929 . S
H978 C966 0.960 . S
H979 C966 0.962 . S
H980 C966 0.960 . S
H981 C967 0.961 . S
H982 C967 0.961 . S
H983 C967 0.961 . S
H984 C968 0.931 . S
H985 C973 0.930 . S
H986 C974 0.956 . S
H987 C974 0.961 . S
H988 C974 0.961 . S
H989 C975 0.958 . S
H990 C975 0.961 . S
H991 C975 0.960 . S
C992 C993 1.391 . S
C992 C994 1.394 . S
C992 H1008 0.931 . S
C993 C992 1.391 . S
C993 C997 1.376 . S
C994 C992 1.394 . S
C994 C995 1.369 . S
C994 C998 1.531 . S
C995 C994 1.369 . S
C995 C996 1.410 . S
C995 C1003 1.499 1_456 S
C996 C995 1.410 . S
C996 C997 1.392 . S
C996 C999 1.533 . S
C997 C993 1.376 . S
C997 C996 1.392 . S
C997 H1009 0.929 . S
C998 C994 1.531 . S
C998 H1010 0.960 1_556 S
C998 H1011 0.962 . S
C998 H1012 0.960 . S
C999 C996 1.533 . S
C999 H1013 0.941 1_455 S
C999 H1014 0.920 1_456 S
C999 H1015 1.003 1_556 S
C1000 C1001 1.370 . S
C1000 C1002 1.363 . S
C1000 H1016 0.931 . S
C1001 C1000 1.370 . S
C1001 C1005 1.408 1_655 S
C1002 C1000 1.363 . S
C1002 C1003 1.379 . S
C1002 C1006 1.524 1_554 S
C1003 C995 1.499 1_654 S
C1003 C1002 1.379 . S
C1003 C1004 1.398 1_655 S
C1004 C1003 1.398 1_455 S
C1004 C1005 1.404 . S
C1004 C1007 1.539 . S
C1005 C1001 1.408 1_455 S
C1005 C1004 1.404 . S
C1005 H1017 0.930 . S
C1006 C1002 1.524 1_556 S
C1006 H1018 0.956 . S
C1006 H1019 0.961 . S
C1006 H1020 0.961 1_556 S
C1007 C1004 1.539 . S
C1007 H1021 0.958 . S
C1007 H1022 0.961 . S
C1007 H1023 0.960 . S
H1008 C992 0.931 . S
H1009 C997 0.929 . S
H1010 C998 0.960 1_554 S
H1011 C998 0.962 . S
H1012 C998 0.960 . S
H1013 C999 0.941 1_655 S
H1014 C999 0.920 1_654 S
H1015 C999 1.003 1_554 S
H1016 C1000 0.931 . S
H1017 C1005 0.930 . S
H1018 C1006 0.956 . S
H1019 C1006 0.961 . S
H1020 C1006 0.961 1_554 S
H1021 C1007 0.958 . S
H1022 C1007 0.961 . S
H1023 C1007 0.960 . S
C1024 C1025 1.391 . S
C1024 C1026 1.394 . S
C1024 H1040 0.931 . S
C1025 C1024 1.391 . S
C1025 C1029 1.376 . S
C1026 C1024 1.394 . S
C1026 C1027 1.369 . S
C1026 C1030 1.531 . S
C1027 C1026 1.369 . S
C1027 C1028 1.410 . S
C1027 C1035 1.503 . S
C1028 C1027 1.410 . S
C1028 C1029 1.392 . S
C1028 C1031 1.511 . S
C1029 C1025 1.376 . S
C1029 C1028 1.392 . S
C1029 H1041 0.929 . S
C1030 C1026 1.531 . S
C1030 H1042 0.960 . S
C1030 H1043 0.962 . S
C1030 H1044 0.960 . S
C1031 C1028 1.511 . S
C1031 H1045 0.961 . S
C1031 H1046 0.961 . S
C1031 H1047 0.961 . S
C1032 C1033 1.370 . S
C1032 C1034 1.363 . S
C1032 H1048 0.931 . S
C1033 C1032 1.370 . S
C1033 C1037 1.408 . S
C1034 C1032 1.363 . S
C1034 C1035 1.370 . S
C1034 C1038 1.524 . S
C1035 C1027 1.503 . S
C1035 C1034 1.370 . S
C1035 C1036 1.403 . S
C1036 C1035 1.403 . S
C1036 C1037 1.404 . S
C1036 C1039 1.539 . S
C1037 C1033 1.408 . S
C1037 C1036 1.404 . S
C1037 H1049 0.930 . S
C1038 C1034 1.524 . S
C1038 H1050 0.956 . S
C1038 H1051 0.961 . S
C1038 H1052 0.961 . S
C1039 C1036 1.539 . S
C1039 H1053 0.958 . S
C1039 H1054 0.961 . S
C1039 H1055 0.960 . S
H1040 C1024 0.931 . S
H1041 C1029 0.929 . S
H1042 C1030 0.960 . S
H1043 C1030 0.962 . S
H1044 C1030 0.960 . S
H1045 C1031 0.961 . S
H1046 C1031 0.961 . S
H1047 C1031 0.961 . S
H1048 C1032 0.931 . S
H1049 C1037 0.930 . S
H1050 C1038 0.956 . S
H1051 C1038 0.961 . S
H1052 C1038 0.961 . S
H1053 C1039 0.958 . S
H1054 C1039 0.961 . S
H1055 C1039 0.960 . S
C1056 C1057 1.391 . S
C1056 C1058 1.394 . S
C1056 H1072 0.931 . S
C1057 C1056 1.391 . S
C1057 C1061 1.376 . S
C1058 C1056 1.394 . S
C1058 C1059 1.369 . S
C1058 C1062 1.531 . S
C1059 C1058 1.369 . S
C1059 C1060 1.410 . S
C1059 C1067 1.503 . S
C1060 C1059 1.410 . S
C1060 C1061 1.392 . S
C1060 C1063 1.511 . S
C1061 C1057 1.376 . S
C1061 C1060 1.392 . S
C1061 H1073 0.929 . S
C1062 C1058 1.531 . S
C1062 H1074 0.960 . S
C1062 H1075 0.962 . S
C1062 H1076 0.960 . S
C1063 C1060 1.511 . S
C1063 H1077 0.961 . S
C1063 H1078 0.961 . S
C1063 H1079 0.961 . S
C1064 C1065 1.370 . S
C1064 C1066 1.363 . S
C1064 H1080 0.931 . S
C1065 C1064 1.370 . S
C1065 C1069 1.408 . S
C1066 C1064 1.363 . S
C1066 C1067 1.370 . S
C1066 C1070 1.524 . S
C1067 C1059 1.503 . S
C1067 C1066 1.370 . S
C1067 C1068 1.403 . S
C1068 C1067 1.403 . S
C1068 C1069 1.404 . S
C1068 C1071 1.539 . S
C1069 C1065 1.408 . S
C1069 C1068 1.404 . S
C1069 H1081 0.930 . S
C1070 C1066 1.524 . S
C1070 H1082 0.956 . S
C1070 H1083 0.961 . S
C1070 H1084 0.961 . S
C1071 C1068 1.539 . S
C1071 H1085 0.958 . S
C1071 H1086 0.961 . S
C1071 H1087 0.960 . S
H1072 C1056 0.931 . S
H1073 C1061 0.929 . S
H1074 C1062 0.960 . S
H1075 C1062 0.962 . S
H1076 C1062 0.960 . S
H1077 C1063 0.961 . S
H1078 C1063 0.961 . S
H1079 C1063 0.961 . S
H1080 C1064 0.931 . S
H1081 C1069 0.930 . S
H1082 C1070 0.956 . S
H1083 C1070 0.961 . S
H1084 C1070 0.961 . S
H1085 C1071 0.958 . S
H1086 C1071 0.961 . S
H1087 C1071 0.960 . S
C1088 C1089 1.391 . S
C1088 C1090 1.394 . S
C1088 H1104 0.931 . S
C1089 C1088 1.391 . S
C1089 C1093 1.376 . S
C1090 C1088 1.394 . S
C1090 C1091 1.369 . S
C1090 C1094 1.531 . S
C1091 C1090 1.369 . S
C1091 C1092 1.410 . S
C1091 C1099 1.503 . S
C1092 C1091 1.410 . S
C1092 C1093 1.392 . S
C1092 C1095 1.511 . S
C1093 C1089 1.376 . S
C1093 C1092 1.392 . S
C1093 H1105 0.929 . S
C1094 C1090 1.531 . S
C1094 H1106 0.960 . S
C1094 H1107 0.962 . S
C1094 H1108 0.960 . S
C1095 C1092 1.511 . S
C1095 H1109 0.961 . S
C1095 H1110 0.961 . S
C1095 H1111 0.961 . S
C1096 C1097 1.370 . S
C1096 C1098 1.363 . S
C1096 H1112 0.931 . S
C1097 C1096 1.370 . S
C1097 C1101 1.408 . S
C1098 C1096 1.363 . S
C1098 C1099 1.370 . S
C1098 C1102 1.524 . S
C1099 C1091 1.503 . S
C1099 C1098 1.370 . S
C1099 C1100 1.403 . S
C1100 C1099 1.403 . S
C1100 C1101 1.404 . S
C1100 C1103 1.539 . S
C1101 C1097 1.408 . S
C1101 C1100 1.404 . S
C1101 H1113 0.930 . S
C1102 C1098 1.524 . S
C1102 H1114 0.956 . S
C1102 H1115 0.961 . S
C1102 H1116 0.961 . S
C1103 C1100 1.539 . S
C1103 H1117 0.958 . S
C1103 H1118 0.961 . S
C1103 H1119 0.960 . S
H1104 C1088 0.931 . S
H1105 C1093 0.929 . S
H1106 C1094 0.960 . S
H1107 C1094 0.962 . S
H1108 C1094 0.960 . S
H1109 C1095 0.961 . S
H1110 C1095 0.961 . S
H1111 C1095 0.961 . S
H1112 C1096 0.931 . S
H1113 C1101 0.930 . S
H1114 C1102 0.956 . S
H1115 C1102 0.961 . S
H1116 C1102 0.961 . S
H1117 C1103 0.958 . S
H1118 C1103 0.961 . S
H1119 C1103 0.960 . S
C1120 C1121 1.391 . S
C1120 C1122 1.394 . S
C1120 H1136 0.931 . S
C1121 C1120 1.391 . S
C1121 C1125 1.376 . S
C1122 C1120 1.394 . S
C1122 C1123 1.369 . S
C1122 C1126 1.531 . S
C1123 C1122 1.369 . S
C1123 C1124 1.410 . S
C1123 C1131 1.503 1_554 S
C1124 C1123 1.410 . S
C1124 C1125 1.392 . S
C1124 C1127 1.511 1_554 S
C1125 C1121 1.376 . S
C1125 C1124 1.392 . S
C1125 H1137 0.929 . S
C1126 C1122 1.531 . S
C1126 H1138 0.950 1_554 S
C1126 H1139 0.962 . S
C1126 H1140 0.960 . S
C1127 C1124 1.511 1_556 S
C1127 H1141 0.961 . S
C1127 H1142 0.961 . S
C1127 H1143 0.961 . S
C1128 C1129 1.370 . S
C1128 C1130 1.363 . S
C1128 H1144 0.931 . S
C1129 C1128 1.370 . S
C1129 C1133 1.408 . S
C1130 C1128 1.363 . S
C1130 C1131 1.370 . S
C1130 C1134 1.524 . S
C1131 C1123 1.503 1_556 S
C1131 C1130 1.370 . S
C1131 C1132 1.403 . S
C1132 C1131 1.403 . S
C1132 C1133 1.404 . S
C1132 C1135 1.539 . S
C1133 C1129 1.408 . S
C1133 C1132 1.404 . S
C1133 H1145 0.930 . S
C1134 C1130 1.524 . S
C1134 H1146 0.956 1_556 S
C1134 H1147 0.961 1_556 S
C1134 H1148 0.961 . S
C1135 C1132 1.539 . S
C1135 H1149 0.958 . S
C1135 H1150 0.961 . S
C1135 H1151 0.960 . S
H1136 C1120 0.931 . S
H1137 C1125 0.929 . S
H1138 C1126 0.950 1_556 S
H1139 C1126 0.962 . S
H1140 C1126 0.960 . S
H1141 C1127 0.961 . S
H1142 C1127 0.961 . S
H1143 C1127 0.961 . S
H1144 C1128 0.931 . S
H1145 C1133 0.930 . S
H1146 C1134 0.956 1_554 S
H1147 C1134 0.961 1_554 S
H1148 C1134 0.961 . S
H1149 C1135 0.958 . S
H1150 C1135 0.961 . S
H1151 C1135 0.960 . S
C1152 C1153 1.391 . S
C1152 C1154 1.394 . S
C1152 H1168 0.931 . S
C1153 C1152 1.391 . S
C1153 C1157 1.376 . S
C1154 C1152 1.394 . S
C1154 C1155 1.369 . S
C1154 C1158 1.531 . S
C1155 C1154 1.369 . S
C1155 C1156 1.410 . S
C1155 C1163 1.503 . S
C1156 C1155 1.410 . S
C1156 C1157 1.392 . S
C1156 C1159 1.511 . S
C1157 C1153 1.376 . S
C1157 C1156 1.392 . S
C1157 H1169 0.929 . S
C1158 C1154 1.531 . S
C1158 H1170 0.960 . S
C1158 H1171 0.962 . S
C1158 H1172 0.960 . S
C1159 C1156 1.511 . S
C1159 H1173 0.961 . S
C1159 H1174 0.961 . S
C1159 H1175 0.961 . S
C1160 C1161 1.370 . S
C1160 C1162 1.363 . S
C1160 H1176 0.931 . S
C1161 C1160 1.370 . S
C1161 C1165 1.408 . S
C1162 C1160 1.363 . S
C1162 C1163 1.370 . S
C1162 C1166 1.524 . S
C1163 C1155 1.503 . S
C1163 C1162 1.370 . S
C1163 C1164 1.403 . S
C1164 C1163 1.403 . S
C1164 C1165 1.404 . S
C1164 C1167 1.539 . S
C1165 C1161 1.408 . S
C1165 C1164 1.404 . S
C1165 H1177 0.930 . S
C1166 C1162 1.524 . S
C1166 H1178 0.956 . S
C1166 H1179 0.961 . S
C1166 H1180 0.961 . S
C1167 C1164 1.539 . S
C1167 H1181 0.958 . S
C1167 H1182 0.961 . S
C1167 H1183 0.960 . S
H1168 C1152 0.931 . S
H1169 C1157 0.929 . S
H1170 C1158 0.960 . S
H1171 C1158 0.962 . S
H1172 C1158 0.960 . S
H1173 C1159 0.961 . S
H1174 C1159 0.961 . S
H1175 C1159 0.961 . S
H1176 C1160 0.931 . S
H1177 C1165 0.930 . S
H1178 C1166 0.956 . S
H1179 C1166 0.961 . S
H1180 C1166 0.961 . S
H1181 C1167 0.958 . S
H1182 C1167 0.961 . S
H1183 C1167 0.960 . S
C1184 C1185 1.391 . S
C1184 C1186 1.394 1_455 S
C1184 H1200 0.931 1_455 S
C1185 C1184 1.391 . S
C1185 C1189 1.376 . S
C1186 C1184 1.394 1_655 S
C1186 C1187 1.369 1_655 S
C1186 C1190 1.531 . S
C1187 C1186 1.369 1_455 S
C1187 C1188 1.410 . S
C1187 C1195 1.503 1_455 S
C1188 C1187 1.410 . S
C1188 C1189 1.392 . S
C1188 C1191 1.511 . S
C1189 C1185 1.376 . S
C1189 C1188 1.392 . S
C1189 H1201 0.929 . S
C1190 C1186 1.531 . S
C1190 H1202 0.960 . S
C1190 H1203 0.962 . S
C1190 H1204 0.960 . S
C1191 C1188 1.511 . S
C1191 H1205 0.961 . S
C1191 H1206 0.961 . S
C1191 H1207 0.961 . S
C1192 C1193 1.370 . S
C1192 C1194 1.363 . S
C1192 H1208 0.931 . S
C1193 C1192 1.370 . S
C1193 C1197 1.408 . S
C1194 C1192 1.363 . S
C1194 C1195 1.370 . S
C1194 C1198 1.524 . S
C1195 C1187 1.503 1_655 S
C1195 C1194 1.370 . S
C1195 C1196 1.403 1_655 S
C1196 C1195 1.403 1_455 S
C1196 C1197 1.404 1_455 S
C1196 C1199 1.539 . S
C1197 C1193 1.408 . S
C1197 C1196 1.404 1_655 S
C1197 H1209 0.930 . S
C1198 C1194 1.524 . S
C1198 H1210 0.956 . S
C1198 H1211 0.961 . S
C1198 H1212 0.961 . S
C1199 C1196 1.539 . S
C1199 H1213 0.958 . S
C1199 H1214 0.961 . S
C1199 H1215 0.960 . S
H1200 C1184 0.931 1_655 S
H1201 C1189 0.929 . S
H1202 C1190 0.960 . S
H1203 C1190 0.962 . S
H1204 C1190 0.960 . S
H1205 C1191 0.961 . S
H1206 C1191 0.961 . S
H1207 C1191 0.961 . S
H1208 C1192 0.931 . S
H1209 C1197 0.930 . S
H1210 C1198 0.956 . S
H1211 C1198 0.961 . S
H1212 C1198 0.961 . S
H1213 C1199 0.958 . S
H1214 C1199 0.961 . S
H1215 C1199 0.960 . S
C1216 C1217 1.391 . S
C1216 C1218 1.394 . S
C1216 H1232 0.931 . S
C1217 C1216 1.391 . S
C1217 C1221 1.376 . S
C1218 C1216 1.394 . S
C1218 C1219 1.369 . S
C1218 C1222 1.531 . S
C1219 C1218 1.369 . S
C1219 C1220 1.410 . S
C1219 C1227 1.503 . S
C1220 C1219 1.410 . S
C1220 C1221 1.392 . S
C1220 C1223 1.511 . S
C1221 C1217 1.376 . S
C1221 C1220 1.392 . S
C1221 H1233 0.929 . S
C1222 C1218 1.531 . S
C1222 H1234 0.960 . S
C1222 H1235 0.962 . S
C1222 H1236 0.960 . S
C1223 C1220 1.511 . S
C1223 H1237 0.961 . S
C1223 H1238 0.961 . S
C1223 H1239 0.961 . S
C1224 C1225 1.370 . S
C1224 C1226 1.363 . S
C1224 H1240 0.931 . S
C1225 C1224 1.370 . S
C1225 C1229 1.408 . S
C1226 C1224 1.363 . S
C1226 C1227 1.370 . S
C1226 C1230 1.524 . S
C1227 C1219 1.503 . S
C1227 C1226 1.370 . S
C1227 C1228 1.403 . S
C1228 C1227 1.403 . S
C1228 C1229 1.404 . S
C1228 C1231 1.539 . S
C1229 C1225 1.408 . S
C1229 C1228 1.404 . S
C1229 H1241 0.930 . S
C1230 C1226 1.524 . S
C1230 H1242 0.956 . S
C1230 H1243 0.961 . S
C1230 H1244 0.961 . S
C1231 C1228 1.539 . S
C1231 H1245 0.958 . S
C1231 H1246 0.961 . S
C1231 H1247 0.960 . S
H1232 C1216 0.931 . S
H1233 C1221 0.929 . S
H1234 C1222 0.960 . S
H1235 C1222 0.962 . S
H1236 C1222 0.960 . S
H1237 C1223 0.961 . S
H1238 C1223 0.961 . S
H1239 C1223 0.961 . S
H1240 C1224 0.931 . S
H1241 C1229 0.930 . S
H1242 C1230 0.956 . S
H1243 C1230 0.961 . S
H1244 C1230 0.961 . S
H1245 C1231 0.958 . S
H1246 C1231 0.961 . S
H1247 C1231 0.960 . S
C1248 C1249 1.391 . S
C1248 C1250 1.394 . S
C1248 H1264 0.931 . S
C1249 C1248 1.391 . S
C1249 C1253 1.376 . S
C1250 C1248 1.394 . S
C1250 C1251 1.369 . S
C1250 C1254 1.531 1_655 S
C1251 C1250 1.369 . S
C1251 C1252 1.410 . S
C1251 C1259 1.479 1_654 S
C1252 C1251 1.410 . S
C1252 C1253 1.392 . S
C1252 C1255 1.511 1_554 S
C1253 C1249 1.376 . S
C1253 C1252 1.392 . S
C1253 H1265 0.929 . S
C1254 C1250 1.531 1_455 S
C1254 H1266 0.960 1_554 S
C1254 H1267 0.962 . S
C1254 H1268 0.960 . S
C1255 C1252 1.511 1_556 S
C1255 H1269 0.961 1_556 S
C1255 H1270 0.961 . S
C1255 H1271 0.961 . S
C1256 C1257 1.370 . S
C1256 C1258 1.363 . S
C1256 H1272 0.931 . S
C1257 C1256 1.370 . S
C1257 C1261 1.408 . S
C1258 C1256 1.363 . S
C1258 C1259 1.417 . S
C1258 C1262 1.516 1_556 S
C1259 C1251 1.479 1_456 S
C1259 C1258 1.417 . S
C1259 C1260 1.382 1_455 S
C1260 C1259 1.382 1_655 S
C1260 C1261 1.404 1_655 S
C1260 C1263 1.539 . S
C1261 C1257 1.408 . S
C1261 C1260 1.404 1_455 S
C1261 H1273 0.930 1_455 S
C1262 C1258 1.516 1_554 S
C1262 H1274 0.962 . S
C1262 H1275 0.965 . S
C1262 H1276 0.958 1_554 S
C1263 C1260 1.539 . S
C1263 H1277 0.958 . S
C1263 H1278 0.961 . S
C1263 H1279 0.960 . S
H1264 C1248 0.931 . S
H1265 C1253 0.929 . S
H1266 C1254 0.960 1_556 S
H1267 C1254 0.962 . S
H1268 C1254 0.960 . S
H1269 C1255 0.961 1_554 S
H1270 C1255 0.961 . S
H1271 C1255 0.961 . S
H1272 C1256 0.931 . S
H1273 C1261 0.930 1_655 S
H1274 C1262 0.962 . S
H1275 C1262 0.965 . S
H1276 C1262 0.958 1_556 S
H1277 C1263 0.958 . S
H1278 C1263 0.961 . S
H1279 C1263 0.960 . S
C1280 C1281 1.391 . S
C1280 C1282 1.394 . S
C1280 H1296 0.931 . S
C1281 C1280 1.391 . S
C1281 C1285 1.376 . S
C1282 C1280 1.394 . S
C1282 C1283 1.369 . S
C1282 C1286 1.531 . S
C1283 C1282 1.369 . S
C1283 C1284 1.410 . S
C1283 C1291 1.503 . S
C1284 C1283 1.410 . S
C1284 C1285 1.392 . S
C1284 C1287 1.511 . S
C1285 C1281 1.376 . S
C1285 C1284 1.392 . S
C1285 H1297 0.929 . S
C1286 C1282 1.531 . S
C1286 H1298 0.960 . S
C1286 H1299 0.962 . S
C1286 H1300 0.960 . S
C1287 C1284 1.511 . S
C1287 H1301 0.961 . S
C1287 H1302 0.961 . S
C1287 H1303 0.961 . S
C1288 C1289 1.370 . S
C1288 C1290 1.363 . S
C1288 H1304 0.931 . S
C1289 C1288 1.370 . S
C1289 C1293 1.408 . S
C1290 C1288 1.363 . S
C1290 C1291 1.370 . S
C1290 C1294 1.524 . S
C1291 C1283 1.503 . S
C1291 C1290 1.370 . S
C1291 C1292 1.403 . S
C1292 C1291 1.403 . S
C1292 C1293 1.404 . S
C1292 C1295 1.539 . S
C1293 C1289 1.408 . S
C1293 C1292 1.404 . S
C1293 H1305 0.930 . S
C1294 C1290 1.524 . S
C1294 H1306 0.956 . S
C1294 H1307 0.961 . S
C1294 H1308 0.961 . S
C1295 C1292 1.539 . S
C1295 H1309 0.958 . S
C1295 H1310 0.961 . S
C1295 H1311 0.960 . S
H1296 C1280 0.931 . S
H1297 C1285 0.929 . S
H1298 C1286 0.960 . S
H1299 C1286 0.962 . S
H1300 C1286 0.960 . S
H1301 C1287 0.961 . S
H1302 C1287 0.961 . S
H1303 C1287 0.961 . S
H1304 C1288 0.931 . S
H1305 C1293 0.930 . S
H1306 C1294 0.956 . S
H1307 C1294 0.961 . S
H1308 C1294 0.961 . S
H1309 C1295 0.958 . S
H1310 C1295 0.961 . S
H1311 C1295 0.960 . S
C1312 C1313 1.391 . S
C1312 C1314 1.394 . S
C1312 H1328 0.931 . S
C1313 C1312 1.391 . S
C1313 C1317 1.376 . S
C1314 C1312 1.394 . S
C1314 C1315 1.369 . S
C1314 C1318 1.531 . S
C1315 C1314 1.369 . S
C1315 C1316 1.410 . S
C1315 C1323 1.503 . S
C1316 C1315 1.410 . S
C1316 C1317 1.392 . S
C1316 C1319 1.511 . S
C1317 C1313 1.376 . S
C1317 C1316 1.392 . S
C1317 H1329 0.929 . S
C1318 C1314 1.531 . S
C1318 H1330 0.960 . S
C1318 H1331 0.962 . S
C1318 H1332 0.960 . S
C1319 C1316 1.511 . S
C1319 H1333 0.961 . S
C1319 H1334 0.961 . S
C1319 H1335 0.961 . S
C1320 C1321 1.370 . S
C1320 C1322 1.363 . S
C1320 H1336 0.931 . S
C1321 C1320 1.370 . S
C1321 C1325 1.408 . S
C1322 C1320 1.363 . S
C1322 C1323 1.370 . S
C1322 C1326 1.524 . S
C1323 C1315 1.503 . S
C1323 C1322 1.370 . S
C1323 C1324 1.403 . S
C1324 C1323 1.403 . S
C1324 C1325 1.404 . S
C1324 C1327 1.539 . S
C1325 C1321 1.408 . S
C1325 C1324 1.404 . S
C1325 H1337 0.930 . S
C1326 C1322 1.524 . S
C1326 H1338 0.956 . S
C1326 H1339 0.961 . S
C1326 H1340 0.961 . S
C1327 C1324 1.539 . S
C1327 H1341 0.958 . S
C1327 H1342 0.961 . S
C1327 H1343 0.960 . S
H1328 C1312 0.931 . S
H1329 C1317 0.929 . S
H1330 C1318 0.960 . S
H1331 C1318 0.962 . S
H1332 C1318 0.960 . S
H1333 C1319 0.961 . S
H1334 C1319 0.961 . S
H1335 C1319 0.961 . S
H1336 C1320 0.931 . S
H1337 C1325 0.930 . S
H1338 C1326 0.956 . S
H1339 C1326 0.961 . S
H1340 C1326 0.961 . S
H1341 C1327 0.958 . S
H1342 C1327 0.961 . S
H1343 C1327 0.960 . S
C1344 C1345 1.391 . S
C1344 C1346 1.394 . S
C1344 H1360 0.931 . S
C1345 C1344 1.391 . S
C1345 C1349 1.376 . S
C1346 C1344 1.394 . S
C1346 C1347 1.369 . S
C1346 C1350 1.531 . S
C1347 C1346 1.369 . S
C1347 C1348 1.410 . S
C1347 C1355 1.503 . S
C1348 C1347 1.410 . S
C1348 C1349 1.392 . S
C1348 C1351 1.511 . S
C1349 C1345 1.376 . S
C1349 C1348 1.392 . S
C1349 H1361 0.929 . S
C1350 C1346 1.531 . S
C1350 H1362 0.960 . S
C1350 H1363 0.962 . S
C1350 H1364 0.960 . S
C1351 C1348 1.511 . S
C1351 H1365 0.961 . S
C1351 H1366 0.961 . S
C1351 H1367 0.961 . S
C1352 C1353 1.370 . S
C1352 C1354 1.363 . S
C1352 H1368 0.931 . S
C1353 C1352 1.370 . S
C1353 C1357 1.408 . S
C1354 C1352 1.363 . S
C1354 C1355 1.370 . S
C1354 C1358 1.524 . S
C1355 C1347 1.503 . S
C1355 C1354 1.370 . S
C1355 C1356 1.403 . S
C1356 C1355 1.403 . S
C1356 C1357 1.404 . S
C1356 C1359 1.539 . S
C1357 C1353 1.408 . S
C1357 C1356 1.404 . S
C1357 H1369 0.930 . S
C1358 C1354 1.524 . S
C1358 H1370 0.956 . S
C1358 H1371 0.961 . S
C1358 H1372 0.961 . S
C1359 C1356 1.539 . S
C1359 H1373 0.958 . S
C1359 H1374 0.961 . S
C1359 H1375 0.960 . S
H1360 C1344 0.931 . S
H1361 C1349 0.929 . S
H1362 C1350 0.960 . S
H1363 C1350 0.962 . S
H1364 C1350 0.960 . S
H1365 C1351 0.961 . S
H1366 C1351 0.961 . S
H1367 C1351 0.961 . S
H1368 C1352 0.931 . S
H1369 C1357 0.930 . S
H1370 C1358 0.956 . S
H1371 C1358 0.961 . S
H1372 C1358 0.961 . S
H1373 C1359 0.958 . S
H1374 C1359 0.961 . S
H1375 C1359 0.960 . S
C1376 C1377 1.391 . S
C1376 C1378 1.394 . S
C1376 H1392 0.931 . S
C1377 C1376 1.391 . S
C1377 C1381 1.376 . S
C1378 C1376 1.394 . S
C1378 C1379 1.369 . S
C1378 C1382 1.531 . S
C1379 C1378 1.369 . S
C1379 C1380 1.410 . S
C1379 C1387 1.503 1_554 S
C1380 C1379 1.410 . S
C1380 C1381 1.392 . S
C1380 C1383 1.511 1_554 S
C1381 C1377 1.376 . S
C1381 C1380 1.392 . S
C1381 H1393 0.929 . S
C1382 C1378 1.531 . S
C1382 H1394 0.960 . S
C1382 H1395 0.962 . S
C1382 H1396 0.960 . S
C1383 C1380 1.511 1_556 S
C1383 H1397 0.961 1_556 S
C1383 H1398 0.961 . S
C1383 H1399 0.961 . S
C1384 C1385 1.370 . S
C1384 C1386 1.363 . S
C1384 H1400 0.931 . S
C1385 C1384 1.370 . S
C1385 C1389 1.408 . S
C1386 C1384 1.363 . S
C1386 C1387 1.370 . S
C1386 C1390 1.524 . S
C1387 C1379 1.503 1_556 S
C1387 C1386 1.370 . S
C1387 C1388 1.403 . S
C1388 C1387 1.403 . S
C1388 C1389 1.404 . S
C1388 C1391 1.539 . S
C1389 C1385 1.408 . S
C1389 C1388 1.404 . S
C1389 H1401 0.930 . S
C1390 C1386 1.524 . S
C1390 H1402 0.956 1_556 S
C1390 H1403 0.968 . S
C1390 H1404 0.961 . S
C1391 C1388 1.539 . S
C1391 H1405 0.958 1_556 S
C1391 H1406 0.961 . S
C1391 H1407 0.960 1_556 S
H1392 C1376 0.931 . S
H1393 C1381 0.929 . S
H1394 C1382 0.960 . S
H1395 C1382 0.962 . S
H1396 C1382 0.960 . S
H1397 C1383 0.961 1_554 S
H1398 C1383 0.961 . S
H1399 C1383 0.961 . S
H1400 C1384 0.931 . S
H1401 C1389 0.930 . S
H1402 C1390 0.956 1_554 S
H1403 C1390 0.968 . S
H1404 C1390 0.961 . S
H1405 C1391 0.958 1_554 S
H1406 C1391 0.961 . S
H1407 C1391 0.960 1_554 S
C1408 C1409 1.391 . S
C1408 C1410 1.394 . S
C1408 H1424 0.931 . S
C1409 C1408 1.391 . S
C1409 C1413 1.376 . S
C1410 C1408 1.394 . S
C1410 C1411 1.369 . S
C1410 C1414 1.531 . S
C1411 C1410 1.369 . S
C1411 C1412 1.410 . S
C1411 C1419 1.503 . S
C1412 C1411 1.410 . S
C1412 C1413 1.392 . S
C1412 C1415 1.511 . S
C1413 C1409 1.376 . S
C1413 C1412 1.392 . S
C1413 H1425 0.929 . S
C1414 C1410 1.531 . S
C1414 H1426 0.960 . S
C1414 H1427 0.962 . S
C1414 H1428 0.960 . S
C1415 C1412 1.511 . S
C1415 H1429 0.961 . S
C1415 H1430 0.961 . S
C1415 H1431 0.961 . S
C1416 C1417 1.370 . S
C1416 C1418 1.363 . S
C1416 H1432 0.931 . S
C1417 C1416 1.370 . S
C1417 C1421 1.408 . S
C1418 C1416 1.363 . S
C1418 C1419 1.370 . S
C1418 C1422 1.524 . S
C1419 C1411 1.503 . S
C1419 C1418 1.370 . S
C1419 C1420 1.403 . S
C1420 C1419 1.403 . S
C1420 C1421 1.404 . S
C1420 C1423 1.539 . S
C1421 C1417 1.408 . S
C1421 C1420 1.404 . S
C1421 H1433 0.930 . S
C1422 C1418 1.524 . S
C1422 H1434 0.956 . S
C1422 H1435 0.961 . S
C1422 H1436 0.961 . S
C1423 C1420 1.539 . S
C1423 H1437 0.958 . S
C1423 H1438 0.961 . S
C1423 H1439 0.960 . S
H1424 C1408 0.931 . S
H1425 C1413 0.929 . S
H1426 C1414 0.960 . S
H1427 C1414 0.962 . S
H1428 C1414 0.960 . S
H1429 C1415 0.961 . S
H1430 C1415 0.961 . S
H1431 C1415 0.961 . S
H1432 C1416 0.931 . S
H1433 C1421 0.930 . S
H1434 C1422 0.956 . S
H1435 C1422 0.961 . S
H1436 C1422 0.961 . S
H1437 C1423 0.958 . S
H1438 C1423 0.961 . S
H1439 C1423 0.960 . S
C1440 C1441 1.391 . S
C1440 C1442 1.394 . S
C1440 H1456 0.931 . S
C1441 C1440 1.391 . S
C1441 C1445 1.376 . S
C1442 C1440 1.394 . S
C1442 C1443 1.369 . S
C1442 C1446 1.531 . S
C1443 C1442 1.369 . S
C1443 C1444 1.410 1_655 S
C1443 C1451 1.503 1_655 S
C1444 C1443 1.410 1_455 S
C1444 C1445 1.392 1_455 S
C1444 C1447 1.511 . S
C1445 C1441 1.376 . S
C1445 C1444 1.392 1_655 S
C1445 H1457 0.929 1_655 S
C1446 C1442 1.531 . S
C1446 H1458 0.960 . S
C1446 H1459 0.962 . S
C1446 H1460 0.960 . S
C1447 C1444 1.511 . S
C1447 H1461 0.961 . S
C1447 H1462 0.961 . S
C1447 H1463 0.961 . S
C1448 C1449 1.370 . S
C1448 C1450 1.374 . S
C1448 H1464 0.931 . S
C1449 C1448 1.370 . S
C1449 C1453 1.408 . S
C1450 C1448 1.374 . S
C1450 C1451 1.376 . S
C1450 C1454 1.508 1_455 S
C1451 C1443 1.503 1_455 S
C1451 C1450 1.376 . S
C1451 C1452 1.403 . S
C1452 C1451 1.403 . S
C1452 C1453 1.404 . S
C1452 C1455 1.539 . S
C1453 C1449 1.408 . S
C1453 C1452 1.404 . S
C1453 H1465 0.930 . S
C1454 C1450 1.508 1_655 S
C1454 H1466 0.956 . S
C1454 H1467 0.961 . S
C1454 H1468 0.961 . S
C1455 C1452 1.539 . S
C1455 H1469 0.958 . S
C1455 H1470 0.961 . S
C1455 H1471 0.960 . S
H1456 C1440 0.931 . S
H1457 C1445 0.929 1_455 S
H1458 C1446 0.960 . S
H1459 C1446 0.962 . S
H1460 C1446 0.960 . S
H1461 C1447 0.961 . S
H1462 C1447 0.961 . S
H1463 C1447 0.961 . S
H1464 C1448 0.931 . S
H1465 C1453 0.930 . S
H1466 C1454 0.956 . S
H1467 C1454 0.961 . S
H1468 C1454 0.961 . S
H1469 C1455 0.958 . S
H1470 C1455 0.961 . S
H1471 C1455 0.960 . S
C1472 C1473 1.391 . S
C1472 C1474 1.394 . S
C1472 H1488 0.931 . S
C1473 C1472 1.391 . S
C1473 C1477 1.376 . S
C1474 C1472 1.394 . S
C1474 C1475 1.369 . S
C1474 C1478 1.531 . S
C1475 C1474 1.369 . S
C1475 C1476 1.410 . S
C1475 C1483 1.503 . S
C1476 C1475 1.410 . S
C1476 C1477 1.392 . S
C1476 C1479 1.511 . S
C1477 C1473 1.376 . S
C1477 C1476 1.392 . S
C1477 H1489 0.929 . S
C1478 C1474 1.531 . S
C1478 H1490 0.960 . S
C1478 H1491 0.962 . S
C1478 H1492 0.960 . S
C1479 C1476 1.511 . S
C1479 H1493 0.961 . S
C1479 H1494 0.961 . S
C1479 H1495 0.961 . S
C1480 C1481 1.370 . S
C1480 C1482 1.363 . S
C1480 H1496 0.931 . S
C1481 C1480 1.370 . S
C1481 C1485 1.408 . S
C1482 C1480 1.363 . S
C1482 C1483 1.370 . S
C1482 C1486 1.524 . S
C1483 C1475 1.503 . S
C1483 C1482 1.370 . S
C1483 C1484 1.403 . S
C1484 C1483 1.403 . S
C1484 C1485 1.404 . S
C1484 C1487 1.539 . S
C1485 C1481 1.408 . S
C1485 C1484 1.404 . S
C1485 H1497 0.930 . S
C1486 C1482 1.524 . S
C1486 H1498 0.956 . S
C1486 H1499 0.961 . S
C1486 H1500 0.961 . S
C1487 C1484 1.539 . S
C1487 H1501 0.958 . S
C1487 H1502 0.961 . S
C1487 H1503 0.960 . S
H1488 C1472 0.931 . S
H1489 C1477 0.929 . S
H1490 C1478 0.960 . S
H1491 C1478 0.962 . S
H1492 C1478 0.960 . S
H1493 C1479 0.961 . S
H1494 C1479 0.961 . S
H1495 C1479 0.961 . S
H1496 C1480 0.931 . S
H1497 C1485 0.930 . S
H1498 C1486 0.956 . S
H1499 C1486 0.961 . S
H1500 C1486 0.961 . S
H1501 C1487 0.958 . S
H1502 C1487 0.961 . S
H1503 C1487 0.960 . S
C1504 C1505 1.391 . S
C1504 C1506 1.394 . S
C1504 H1520 0.931 . S
C1505 C1504 1.391 . S
C1505 C1509 1.376 . S
C1506 C1504 1.394 . S
C1506 C1507 1.369 . S
C1506 C1510 1.531 . S
C1507 C1506 1.369 . S
C1507 C1508 1.410 . S
C1507 C1515 1.503 . S
C1508 C1507 1.410 . S
C1508 C1509 1.392 . S
C1508 C1511 1.511 . S
C1509 C1505 1.376 . S
C1509 C1508 1.392 . S
C1509 H1521 0.929 . S
C1510 C1506 1.531 . S
C1510 H1522 0.960 . S
C1510 H1523 0.962 . S
C1510 H1524 0.960 . S
C1511 C1508 1.511 . S
C1511 H1525 0.961 . S
C1511 H1526 0.961 . S
C1511 H1527 0.961 . S
C1512 C1513 1.370 . S
C1512 C1514 1.363 . S
C1512 H1528 0.931 . S
C1513 C1512 1.370 . S
C1513 C1517 1.408 . S
C1514 C1512 1.363 . S
C1514 C1515 1.370 . S
C1514 C1518 1.524 . S
C1515 C1507 1.503 . S
C1515 C1514 1.370 . S
C1515 C1516 1.403 . S
C1516 C1515 1.403 . S
C1516 C1517 1.404 . S
C1516 C1519 1.539 . S
C1517 C1513 1.408 . S
C1517 C1516 1.404 . S
C1517 H1529 0.930 . S
C1518 C1514 1.524 . S
C1518 H1530 0.956 . S
C1518 H1531 0.961 . S
C1518 H1532 0.961 . S
C1519 C1516 1.539 . S
C1519 H1533 0.958 . S
C1519 H1534 0.961 . S
C1519 H1535 0.960 . S
H1520 C1504 0.931 . S
H1521 C1509 0.929 . S
H1522 C1510 0.960 . S
H1523 C1510 0.962 . S
H1524 C1510 0.960 . S
H1525 C1511 0.961 . S
H1526 C1511 0.961 . S
H1527 C1511 0.961 . S
H1528 C1512 0.931 . S
H1529 C1517 0.930 . S
H1530 C1518 0.956 . S
H1531 C1518 0.961 . S
H1532 C1518 0.961 . S
H1533 C1519 0.958 . S
H1534 C1519 0.961 . S
H1535 C1519 0.960 . S
C1536 C1537 1.391 . S
C1536 C1538 1.394 . S
C1536 H1552 0.931 . S
C1537 C1536 1.391 . S
C1537 C1541 1.376 . S
C1538 C1536 1.394 . S
C1538 C1539 1.369 . S
C1538 C1542 1.531 . S
C1539 C1538 1.369 . S
C1539 C1540 1.410 . S
C1539 C1547 1.503 . S
C1540 C1539 1.410 . S
C1540 C1541 1.392 . S
C1540 C1543 1.511 . S
C1541 C1537 1.376 . S
C1541 C1540 1.392 . S
C1541 H1553 0.929 . S
C1542 C1538 1.531 . S
C1542 H1554 0.960 . S
C1542 H1555 0.962 . S
C1542 H1556 0.960 . S
C1543 C1540 1.511 . S
C1543 H1557 0.961 . S
C1543 H1558 0.961 . S
C1543 H1559 0.961 . S
C1544 C1545 1.370 . S
C1544 C1546 1.363 . S
C1544 H1560 0.931 . S
C1545 C1544 1.370 . S
C1545 C1549 1.408 . S
C1546 C1544 1.363 . S
C1546 C1547 1.370 . S
C1546 C1550 1.524 . S
C1547 C1539 1.503 . S
C1547 C1546 1.370 . S
C1547 C1548 1.403 . S
C1548 C1547 1.403 . S
C1548 C1549 1.404 . S
C1548 C1551 1.539 . S
C1549 C1545 1.408 . S
C1549 C1548 1.404 . S
C1549 H1561 0.930 . S
C1550 C1546 1.524 . S
C1550 H1562 0.956 . S
C1550 H1563 0.961 . S
C1550 H1564 0.961 . S
C1551 C1548 1.539 . S
C1551 H1565 0.958 . S
C1551 H1566 0.961 . S
C1551 H1567 0.960 . S
H1552 C1536 0.931 . S
H1553 C1541 0.929 . S
H1554 C1542 0.960 . S
H1555 C1542 0.962 . S
H1556 C1542 0.960 . S
H1557 C1543 0.961 . S
H1558 C1543 0.961 . S
H1559 C1543 0.961 . S
H1560 C1544 0.931 . S
H1561 C1549 0.930 . S
H1562 C1550 0.956 . S
H1563 C1550 0.961 . S
H1564 C1550 0.961 . S
H1565 C1551 0.958 . S
H1566 C1551 0.961 . S
H1567 C1551 0.960 . S
C1568 C1569 1.391 . S
C1568 C1570 1.394 . S
C1568 H1584 0.931 . S
C1569 C1568 1.391 . S
C1569 C1573 1.440 . S
C1570 C1568 1.394 . S
C1570 C1571 1.409 . S
C1570 C1574 1.531 . S
C1571 C1570 1.409 . S
C1571 C1572 1.390 1_455 S
C1571 C1579 1.486 1_454 S
C1572 C1571 1.390 1_655 S
C1572 C1573 1.360 1_655 S
C1572 C1575 1.511 . S
C1573 C1569 1.440 . S
C1573 C1572 1.360 1_455 S
C1573 H1585 0.901 1_455 S
C1574 C1570 1.531 . S
C1574 H1586 0.960 1_554 S
C1574 H1587 0.962 1_554 S
C1574 H1588 0.960 . S
C1575 C1572 1.511 . S
C1575 H1589 0.961 . S
C1575 H1590 0.961 . S
C1575 H1591 0.961 . S
C1576 C1577 1.370 . S
C1576 C1578 1.376 . S
C1576 H1592 0.931 . S
C1577 C1576 1.370 . S
C1577 C1581 1.408 . S
C1578 C1576 1.376 . S
C1578 C1579 1.383 . S
C1578 C1582 1.500 1_655 S
C1579 C1571 1.486 1_656 S
C1579 C1578 1.383 . S
C1579 C1580 1.403 . S
C1580 C1579 1.403 . S
C1580 C1581 1.404 . S
C1580 C1583 1.539 1_556 S
C1581 C1577 1.408 . S
C1581 C1580 1.404 . S
C1581 H1593 0.930 . S
C1582 C1578 1.500 1_455 S
C1582 H1594 0.956 . S
C1582 H1595 0.961 . S
C1582 H1596 0.961 . S
C1583 C1580 1.539 1_554 S
C1583 H1597 0.958 . S
C1583 H1598 0.961 . S
C1583 H1599 0.960 . S
H1584 C1568 0.931 . S
H1585 C1573 0.901 1_655 S
H1586 C1574 0.960 1_556 S
H1587 C1574 0.962 1_556 S
H1588 C1574 0.960 . S
H1589 C1575 0.961 . S
H1590 C1575 0.961 . S
H1591 C1575 0.961 . S
H1592 C1576 0.931 . S
H1593 C1581 0.930 . S
H1594 C1582 0.956 . S
H1595 C1582 0.961 . S
H1596 C1582 0.961 . S
H1597 C1583 0.958 . S
H1598 C1583 0.961 . S
H1599 C1583 0.960 . S
C1600 C1601 1.391 . S
C1600 C1602 1.394 . S
C1600 H1616 0.931 . S
C1601 C1600 1.391 . S
C1601 C1605 1.376 . S
C1602 C1600 1.394 . S
C1602 C1603 1.369 . S
C1602 C1606 1.531 . S
C1603 C1602 1.369 . S
C1603 C1604 1.410 . S
C1603 C1611 1.503 . S
C1604 C1603 1.410 . S
C1604 C1605 1.392 . S
C1604 C1607 1.511 . S
C1605 C1601 1.376 . S
C1605 C1604 1.392 . S
C1605 H1617 0.929 . S
C1606 C1602 1.531 . S
C1606 H1618 0.960 . S
C1606 H1619 0.962 . S
C1606 H1620 0.960 . S
C1607 C1604 1.511 . S
C1607 H1621 0.961 . S
C1607 H1622 0.961 . S
C1607 H1623 0.961 . S
C1608 C1609 1.370 . S
C1608 C1610 1.363 . S
C1608 H1624 0.931 . S
C1609 C1608 1.370 . S
C1609 C1613 1.408 . S
C1610 C1608 1.363 . S
C1610 C1611 1.370 . S
C1610 C1614 1.524 . S
C1611 C1603 1.503 . S
C1611 C1610 1.370 . S
C1611 C1612 1.403 . S
C1612 C1611 1.403 . S
C1612 C1613 1.404 . S
C1612 C1615 1.539 . S
C1613 C1609 1.408 . S
C1613 C1612 1.404 . S
C1613 H1625 0.930 . S
C1614 C1610 1.524 . S
C1614 H1626 0.956 . S
C1614 H1627 0.961 . S
C1614 H1628 0.961 . S
C1615 C1612 1.539 . S
C1615 H1629 0.958 . S
C1615 H1630 0.961 . S
C1615 H1631 0.960 . S
H1616 C1600 0.931 . S
H1617 C1605 0.929 . S
H1618 C1606 0.960 . S
H1619 C1606 0.962 . S
H1620 C1606 0.960 . S
H1621 C1607 0.961 . S
H1622 C1607 0.961 . S
H1623 C1607 0.961 . S
H1624 C1608 0.931 . S
H1625 C1613 0.930 . S
H1626 C1614 0.956 . S
H1627 C1614 0.961 . S
H1628 C1614 0.961 . S
H1629 C1615 0.958 . S
H1630 C1615 0.961 . S
H1631 C1615 0.960 . S
C1632 C1633 1.391 . S
C1632 C1634 1.394 1_655 S
C1632 H1648 0.931 . S
C1633 C1632 1.391 . S
C1633 C1637 1.376 . S
C1634 C1632 1.394 1_455 S
C1634 C1635 1.369 1_455 S
C1634 C1638 1.529 . S
C1635 C1634 1.369 1_655 S
C1635 C1636 1.410 . S
C1635 C1643 1.503 1_655 S
C1636 C1635 1.410 . S
C1636 C1637 1.392 . S
C1636 C1639 1.511 . S
C1637 C1633 1.376 . S
C1637 C1636 1.392 . S
C1637 H1649 0.929 . S
C1638 C1634 1.529 . S
C1638 H1650 0.960 . S
C1638 H1651 0.962 . S
C1638 H1652 0.960 . S
C1639 C1636 1.511 . S
C1639 H1653 0.961 . S
C1639 H1654 0.961 . S
C1639 H1655 0.961 . S
C1640 C1641 1.370 . S
C1640 C1642 1.363 . S
C1640 H1656 0.931 . S
C1641 C1640 1.370 . S
C1641 C1645 1.408 . S
C1642 C1640 1.363 . S
C1642 C1643 1.370 . S
C1642 C1646 1.524 . S
C1643 C1635 1.503 1_455 S
C1643 C1642 1.370 . S
C1643 C1644 1.403 1_455 S
C1644 C1643 1.403 1_655 S
C1644 C1645 1.404 1_655 S
C1644 C1647 1.539 . S
C1645 C1641 1.408 . S
C1645 C1644 1.404 1_455 S
C1645 H1657 0.934 . S
C1646 C1642 1.524 . S
C1646 H1658 0.956 . S
C1646 H1659 0.961 . S
C1646 H1660 0.961 . S
C1647 C1644 1.539 . S
C1647 H1661 0.958 . S
C1647 H1662 0.961 . S
C1647 H1663 0.960 . S
H1648 C1632 0.931 . S
H1649 C1637 0.929 . S
H1650 C1638 0.960 . S
H1651 C1638 0.962 . S
H1652 C1638 0.960 . S
H1653 C1639 0.961 . S
H1654 C1639 0.961 . S
H1655 C1639 0.961 . S
H1656 C1640 0.931 . S
H1657 C1645 0.934 . S
H1658 C1646 0.956 . S
H1659 C1646 0.961 . S
H1660 C1646 0.961 . S
H1661 C1647 0.958 . S
H1662 C1647 0.961 . S
H1663 C1647 0.960 . S
C1664 C1665 1.391 . S
C1664 C1666 1.394 . S
C1664 H1680 0.931 . S
C1665 C1664 1.391 . S
C1665 C1669 1.376 . S
C1666 C1664 1.394 . S
C1666 C1667 1.369 . S
C1666 C1670 1.531 . S
C1667 C1666 1.369 . S
C1667 C1668 1.410 . S
C1667 C1675 1.503 . S
C1668 C1667 1.410 . S
C1668 C1669 1.392 . S
C1668 C1671 1.511 . S
C1669 C1665 1.376 . S
C1669 C1668 1.392 . S
C1669 H1681 0.929 . S
C1670 C1666 1.531 . S
C1670 H1682 0.960 . S
C1670 H1683 0.962 . S
C1670 H1684 0.960 . S
C1671 C1668 1.511 . S
C1671 H1685 0.961 . S
C1671 H1686 0.961 . S
C1671 H1687 0.961 . S
C1672 C1673 1.370 . S
C1672 C1674 1.363 . S
C1672 H1688 0.931 . S
C1673 C1672 1.370 . S
C1673 C1677 1.408 . S
C1674 C1672 1.363 . S
C1674 C1675 1.370 . S
C1674 C1678 1.524 . S
C1675 C1667 1.503 . S
C1675 C1674 1.370 . S
C1675 C1676 1.403 . S
C1676 C1675 1.403 . S
C1676 C1677 1.404 . S
C1676 C1679 1.539 . S
C1677 C1673 1.408 . S
C1677 C1676 1.404 . S
C1677 H1689 0.930 . S
C1678 C1674 1.524 . S
C1678 H1690 0.956 . S
C1678 H1691 0.961 . S
C1678 H1692 0.961 . S
C1679 C1676 1.539 . S
C1679 H1693 0.958 . S
C1679 H1694 0.961 . S
C1679 H1695 0.960 . S
H1680 C1664 0.931 . S
H1681 C1669 0.929 . S
H1682 C1670 0.960 . S
H1683 C1670 0.962 . S
H1684 C1670 0.960 . S
H1685 C1671 0.961 . S
H1686 C1671 0.961 . S
H1687 C1671 0.961 . S
H1688 C1672 0.931 . S
H1689 C1677 0.930 . S
H1690 C1678 0.956 . S
H1691 C1678 0.961 . S
H1692 C1678 0.961 . S
H1693 C1679 0.958 . S
H1694 C1679 0.961 . S
H1695 C1679 0.960 . S
C1696 C1697 1.391 . S
C1696 C1698 1.394 . S
C1696 H1712 0.931 . S
C1697 C1696 1.391 . S
C1697 C1701 1.376 . S
C1698 C1696 1.394 . S
C1698 C1699 1.369 . S
C1698 C1702 1.531 . S
C1699 C1698 1.369 . S
C1699 C1700 1.410 . S
C1699 C1707 1.503 1_554 S
C1700 C1699 1.410 . S
C1700 C1701 1.392 . S
C1700 C1703 1.511 1_554 S
C1701 C1697 1.376 . S
C1701 C1700 1.392 . S
C1701 H1713 0.929 . S
C1702 C1698 1.531 . S
C1702 H1714 0.960 1_554 S
C1702 H1715 0.962 . S
C1702 H1716 0.960 . S
C1703 C1700 1.511 1_556 S
C1703 H1717 0.961 1_556 S
C1703 H1718 0.961 . S
C1703 H1719 0.961 . S
C1704 C1705 1.370 . S
C1704 C1706 1.363 . S
C1704 H1720 0.931 . S
C1705 C1704 1.370 . S
C1705 C1709 1.408 . S
C1706 C1704 1.363 . S
C1706 C1707 1.370 . S
C1706 C1710 1.524 . S
C1707 C1699 1.503 1_556 S
C1707 C1706 1.370 . S
C1707 C1708 1.403 . S
C1708 C1707 1.403 . S
C1708 C1709 1.404 . S
C1708 C1711 1.539 . S
C1709 C1705 1.408 . S
C1709 C1708 1.404 . S
C1709 H1721 0.930 . S
C1710 C1706 1.524 . S
C1710 H1722 0.956 1_556 S
C1710 H1723 0.961 1_556 S
C1710 H1724 0.961 . S
C1711 C1708 1.539 . S
C1711 H1725 0.958 . S
C1711 H1726 0.961 . S
C1711 H1727 0.960 . S
H1712 C1696 0.931 . S
H1713 C1701 0.929 . S
H1714 C1702 0.960 1_556 S
H1715 C1702 0.962 . S
H1716 C1702 0.960 . S
H1717 C1703 0.961 1_554 S
H1718 C1703 0.961 . S
H1719 C1703 0.961 . S
H1720 C1704 0.931 . S
H1721 C1709 0.930 . S
H1722 C1710 0.956 1_554 S
H1723 C1710 0.961 1_554 S
H1724 C1710 0.961 . S
H1725 C1711 0.958 . S
H1726 C1711 0.961 . S
H1727 C1711 0.960 . S
C1728 C1729 1.391 . S
C1728 C1730 1.394 . S
C1728 H1744 0.931 . S
C1729 C1728 1.391 . S
C1729 C1733 1.376 . S
C1730 C1728 1.394 . S
C1730 C1731 1.369 . S
C1730 C1734 1.531 . S
C1731 C1730 1.369 . S
C1731 C1732 1.410 . S
C1731 C1739 1.503 . S
C1732 C1731 1.410 . S
C1732 C1733 1.392 . S
C1732 C1735 1.511 . S
C1733 C1729 1.376 . S
C1733 C1732 1.392 . S
C1733 H1745 0.929 . S
C1734 C1730 1.531 . S
C1734 H1746 0.960 . S
C1734 H1747 0.962 . S
C1734 H1748 0.960 . S
C1735 C1732 1.511 . S
C1735 H1749 0.961 . S
C1735 H1750 0.961 . S
C1735 H1751 0.961 . S
C1736 C1737 1.370 . S
C1736 C1738 1.363 . S
C1736 H1752 0.931 . S
C1737 C1736 1.370 . S
C1737 C1741 1.408 . S
C1738 C1736 1.363 . S
C1738 C1739 1.370 . S
C1738 C1742 1.524 . S
C1739 C1731 1.503 . S
C1739 C1738 1.370 . S
C1739 C1740 1.403 . S
C1740 C1739 1.403 . S
C1740 C1741 1.404 . S
C1740 C1743 1.539 . S
C1741 C1737 1.408 . S
C1741 C1740 1.404 . S
C1741 H1753 0.930 . S
C1742 C1738 1.524 . S
C1742 H1754 0.956 . S
C1742 H1755 0.961 . S
C1742 H1756 0.961 . S
C1743 C1740 1.539 . S
C1743 H1757 0.958 . S
C1743 H1758 0.961 . S
C1743 H1759 0.960 . S
H1744 C1728 0.931 . S
H1745 C1733 0.929 . S
H1746 C1734 0.960 . S
H1747 C1734 0.962 . S
H1748 C1734 0.960 . S
H1749 C1735 0.961 . S
H1750 C1735 0.961 . S
H1751 C1735 0.961 . S
H1752 C1736 0.931 . S
H1753 C1741 0.930 . S
H1754 C1742 0.956 . S
H1755 C1742 0.961 . S
H1756 C1742 0.961 . S
H1757 C1743 0.958 . S
H1758 C1743 0.961 . S
H1759 C1743 0.960 . S
C1760 C1761 1.391 . S
C1760 C1762 1.394 . S
C1760 H1776 0.931 . S
C1761 C1760 1.391 . S
C1761 C1765 1.376 . S
C1762 C1760 1.394 . S
C1762 C1763 1.369 . S
C1762 C1766 1.531 . S
C1763 C1762 1.369 . S
C1763 C1764 1.410 . S
C1763 C1771 1.503 . S
C1764 C1763 1.410 . S
C1764 C1765 1.392 . S
C1764 C1767 1.511 . S
C1765 C1761 1.376 . S
C1765 C1764 1.392 . S
C1765 H1777 0.929 . S
C1766 C1762 1.531 . S
C1766 H1778 0.960 . S
C1766 H1779 0.962 . S
C1766 H1780 0.960 . S
C1767 C1764 1.511 . S
C1767 H1781 0.961 . S
C1767 H1782 0.961 . S
C1767 H1783 0.961 . S
C1768 C1769 1.370 . S
C1768 C1770 1.363 . S
C1768 H1784 0.931 . S
C1769 C1768 1.370 . S
C1769 C1773 1.408 . S
C1770 C1768 1.363 . S
C1770 C1771 1.370 . S
C1770 C1774 1.524 . S
C1771 C1763 1.503 . S
C1771 C1770 1.370 . S
C1771 C1772 1.403 . S
C1772 C1771 1.403 . S
C1772 C1773 1.404 . S
C1772 C1775 1.539 . S
C1773 C1769 1.408 . S
C1773 C1772 1.404 . S
C1773 H1785 0.930 . S
C1774 C1770 1.524 . S
C1774 H1786 0.956 . S
C1774 H1787 0.961 . S
C1774 H1788 0.961 . S
C1775 C1772 1.539 . S
C1775 H1789 0.958 . S
C1775 H1790 0.961 . S
C1775 H1791 0.960 . S
H1776 C1760 0.931 . S
H1777 C1765 0.929 . S
H1778 C1766 0.960 . S
H1779 C1766 0.962 . S
H1780 C1766 0.960 . S
H1781 C1767 0.961 . S
H1782 C1767 0.961 . S
H1783 C1767 0.961 . S
H1784 C1768 0.931 . S
H1785 C1773 0.930 . S
H1786 C1774 0.956 . S
H1787 C1774 0.961 . S
H1788 C1774 0.961 . S
H1789 C1775 0.958 . S
H1790 C1775 0.961 . S
H1791 C1775 0.960 . S
C1792 C1793 1.391 . S
C1792 C1794 1.394 . S
C1792 H1808 0.931 . S
C1793 C1792 1.391 . S
C1793 C1797 1.376 . S
C1794 C1792 1.394 . S
C1794 C1795 1.369 . S
C1794 C1798 1.531 . S
C1795 C1794 1.369 . S
C1795 C1796 1.410 . S
C1795 C1803 1.503 . S
C1796 C1795 1.410 . S
C1796 C1797 1.392 . S
C1796 C1799 1.511 . S
C1797 C1793 1.376 . S
C1797 C1796 1.392 . S
C1797 H1809 0.929 . S
C1798 C1794 1.531 . S
C1798 H1810 0.960 . S
C1798 H1811 0.962 . S
C1798 H1812 0.960 . S
C1799 C1796 1.511 . S
C1799 H1813 0.961 . S
C1799 H1814 0.961 . S
C1799 H1815 0.961 . S
C1800 C1801 1.370 . S
C1800 C1802 1.363 . S
C1800 H1816 0.931 . S
C1801 C1800 1.370 . S
C1801 C1805 1.408 . S
C1802 C1800 1.363 . S
C1802 C1803 1.370 . S
C1802 C1806 1.524 . S
C1803 C1795 1.503 . S
C1803 C1802 1.370 . S
C1803 C1804 1.403 . S
C1804 C1803 1.403 . S
C1804 C1805 1.404 . S
C1804 C1807 1.539 . S
C1805 C1801 1.408 . S
C1805 C1804 1.404 . S
C1805 H1817 0.930 . S
C1806 C1802 1.524 . S
C1806 H1818 0.956 . S
C1806 H1819 0.961 . S
C1806 H1820 0.961 . S
C1807 C1804 1.539 . S
C1807 H1821 0.958 . S
C1807 H1822 0.961 . S
C1807 H1823 0.960 . S
H1808 C1792 0.931 . S
H1809 C1797 0.929 . S
H1810 C1798 0.960 . S
H1811 C1798 0.962 . S
H1812 C1798 0.960 . S
H1813 C1799 0.961 . S
H1814 C1799 0.961 . S
H1815 C1799 0.961 . S
H1816 C1800 0.931 . S
H1817 C1805 0.930 . S
H1818 C1806 0.956 . S
H1819 C1806 0.961 . S
H1820 C1806 0.961 . S
H1821 C1807 0.958 . S
H1822 C1807 0.961 . S
H1823 C1807 0.960 . S
C1824 C1825 1.391 . S
C1824 C1826 1.394 1_655 S
C1824 H1840 0.928 . S
C1825 C1824 1.391 . S
C1825 C1829 1.376 . S
C1826 C1824 1.394 1_455 S
C1826 C1827 1.369 1_455 S
C1826 C1830 1.531 . S
C1827 C1826 1.369 1_655 S
C1827 C1828 1.410 . S
C1827 C1835 1.503 1_656 S
C1828 C1827 1.410 . S
C1828 C1829 1.392 . S
C1828 C1831 1.512 . S
C1829 C1825 1.376 . S
C1829 C1828 1.392 . S
C1829 H1841 0.929 . S
C1830 C1826 1.531 . S
C1830 H1842 0.960 . S
C1830 H1843 0.962 . S
C1830 H1844 0.960 . S
C1831 C1828 1.512 . S
C1831 H1845 0.961 . S
C1831 H1846 0.960 1_556 S
C1831 H1847 0.960 1_556 S
C1832 C1833 1.370 . S
C1832 C1834 1.363 . S
C1832 H1848 0.931 . S
C1833 C1832 1.370 . S
C1833 C1837 1.408 . S
C1834 C1832 1.363 . S
C1834 C1835 1.370 . S
C1834 C1838 1.524 1_554 S
C1835 C1827 1.503 1_454 S
C1835 C1834 1.370 . S
C1835 C1836 1.403 1_455 S
C1836 C1835 1.403 1_655 S
C1836 C1837 1.404 1_655 S
C1836 C1839 1.539 . S
C1837 C1833 1.408 . S
C1837 C1836 1.404 1_455 S
C1837 H1849 0.930 . S
C1838 C1834 1.524 1_556 S
C1838 H1850 0.956 . S
C1838 H1851 0.961 . S
C1838 H1852 0.961 1_556 S
C1839 C1836 1.539 . S
C1839 H1853 0.958 . S
C1839 H1854 0.961 . S
C1839 H1855 0.960 . S
H1840 C1824 0.928 . S
H1841 C1829 0.929 . S
H1842 C1830 0.960 . S
H1843 C1830 0.962 . S
H1844 C1830 0.960 . S
H1845 C1831 0.961 . S
H1846 C1831 0.960 1_554 S
H1847 C1831 0.960 1_554 S
H1848 C1832 0.931 . S
H1849 C1837 0.930 . S
H1850 C1838 0.956 . S
H1851 C1838 0.961 . S
H1852 C1838 0.961 1_554 S
H1853 C1839 0.958 . S
H1854 C1839 0.961 . S
H1855 C1839 0.960 . S
C1856 C1857 1.391 . S
C1856 C1858 1.394 . S
C1856 H1872 0.931 . S
C1857 C1856 1.391 . S
C1857 C1861 1.376 . S
C1858 C1856 1.394 . S
C1858 C1859 1.369 . S
C1858 C1862 1.531 . S
C1859 C1858 1.369 . S
C1859 C1860 1.410 . S
C1859 C1867 1.503 . S
C1860 C1859 1.410 . S
C1860 C1861 1.392 . S
C1860 C1863 1.511 . S
C1861 C1857 1.376 . S
C1861 C1860 1.392 . S
C1861 H1873 0.929 . S
C1862 C1858 1.531 . S
C1862 H1874 0.960 . S
C1862 H1875 0.962 . S
C1862 H1876 0.960 . S
C1863 C1860 1.511 . S
C1863 H1877 0.961 . S
C1863 H1878 0.961 . S
C1863 H1879 0.961 . S
C1864 C1865 1.370 . S
C1864 C1866 1.363 . S
C1864 H1880 0.931 . S
C1865 C1864 1.370 . S
C1865 C1869 1.408 . S
C1866 C1864 1.363 . S
C1866 C1867 1.370 . S
C1866 C1870 1.524 . S
C1867 C1859 1.503 . S
C1867 C1866 1.370 . S
C1867 C1868 1.403 . S
C1868 C1867 1.403 . S
C1868 C1869 1.404 . S
C1868 C1871 1.539 . S
C1869 C1865 1.408 . S
C1869 C1868 1.404 . S
C1869 H1881 0.930 . S
C1870 C1866 1.524 . S
C1870 H1882 0.956 . S
C1870 H1883 0.961 . S
C1870 H1884 0.961 . S
C1871 C1868 1.539 . S
C1871 H1885 0.958 . S
C1871 H1886 0.961 . S
C1871 H1887 0.960 . S
H1872 C1856 0.931 . S
H1873 C1861 0.929 . S
H1874 C1862 0.960 . S
H1875 C1862 0.962 . S
H1876 C1862 0.960 . S
H1877 C1863 0.961 . S
H1878 C1863 0.961 . S
H1879 C1863 0.961 . S
H1880 C1864 0.931 . S
H1881 C1869 0.930 . S
H1882 C1870 0.956 . S
H1883 C1870 0.961 . S
H1884 C1870 0.961 . S
H1885 C1871 0.958 . S
H1886 C1871 0.961 . S
H1887 C1871 0.960 . S
C1888 C1889 1.391 . S
C1888 C1890 1.394 . S
C1888 H1904 0.931 . S
C1889 C1888 1.391 . S
C1889 C1893 1.366 1_655 S
C1890 C1888 1.394 . S
C1890 C1891 1.369 . S
C1890 C1894 1.531 . S
C1891 C1890 1.369 . S
C1891 C1892 1.410 1_655 S
C1891 C1899 1.503 1_655 S
C1892 C1891 1.410 1_455 S
C1892 C1893 1.397 . S
C1892 C1895 1.511 . S
C1893 C1889 1.366 1_455 S
C1893 C1892 1.397 . S
C1893 H1905 0.934 . S
C1894 C1890 1.531 . S
C1894 H1906 0.960 . S
C1894 H1907 0.962 . S
C1894 H1908 0.960 . S
C1895 C1892 1.511 . S
C1895 H1909 0.961 . S
C1895 H1910 0.961 . S
C1895 H1911 0.961 . S
C1896 C1897 1.370 . S
C1896 C1898 1.363 . S
C1896 H1912 0.931 . S
C1897 C1896 1.370 . S
C1897 C1901 1.408 . S
C1898 C1896 1.363 . S
C1898 C1899 1.370 . S
C1898 C1902 1.524 1_455 S
C1899 C1891 1.503 1_455 S
C1899 C1898 1.370 . S
C1899 C1900 1.403 . S
C1900 C1899 1.403 . S
C1900 C1901 1.404 . S
C1900 C1903 1.539 . S
C1901 C1897 1.408 . S
C1901 C1900 1.404 . S
C1901 H1913 0.930 . S
C1902 C1898 1.524 1_655 S
C1902 H1914 0.956 . S
C1902 H1915 0.961 . S
C1902 H1916 0.961 . S
C1903 C1900 1.539 . S
C1903 H1917 0.958 . S
C1903 H1918 0.961 . S
C1903 H1919 0.960 . S
H1904 C1888 0.931 . S
H1905 C1893 0.934 . S
H1906 C1894 0.960 . S
H1907 C1894 0.962 . S
H1908 C1894 0.960 . S
H1909 C1895 0.961 . S
H1910 C1895 0.961 . S
H1911 C1895 0.961 . S
H1912 C1896 0.931 . S
H1913 C1901 0.930 . S
H1914 C1902 0.956 . S
H1915 C1902 0.961 . S
H1916 C1902 0.961 . S
H1917 C1903 0.958 . S
H1918 C1903 0.961 . S
H1919 C1903 0.960 . S
C1920 C1921 1.391 . S
C1920 C1922 1.394 . S
C1920 H1936 0.931 . S
C1921 C1920 1.391 . S
C1921 C1925 1.376 . S
C1922 C1920 1.394 . S
C1922 C1923 1.369 . S
C1922 C1926 1.531 . S
C1923 C1922 1.369 . S
C1923 C1924 1.410 . S
C1923 C1931 1.503 . S
C1924 C1923 1.410 . S
C1924 C1925 1.392 . S
C1924 C1927 1.511 . S
C1925 C1921 1.376 . S
C1925 C1924 1.392 . S
C1925 H1937 0.929 . S
C1926 C1922 1.531 . S
C1926 H1938 0.960 . S
C1926 H1939 0.962 . S
C1926 H1940 0.960 . S
C1927 C1924 1.511 . S
C1927 H1941 0.961 . S
C1927 H1942 0.961 . S
C1927 H1943 0.961 . S
C1928 C1929 1.370 . S
C1928 C1930 1.363 . S
C1928 H1944 0.931 . S
C1929 C1928 1.370 . S
C1929 C1933 1.408 . S
C1930 C1928 1.363 . S
C1930 C1931 1.370 . S
C1930 C1934 1.524 . S
C1931 C1923 1.503 . S
C1931 C1930 1.370 . S
C1931 C1932 1.403 . S
C1932 C1931 1.403 . S
C1932 C1933 1.404 . S
C1932 C1935 1.539 . S
C1933 C1929 1.408 . S
C1933 C1932 1.404 . S
C1933 H1945 0.930 . S
C1934 C1930 1.524 . S
C1934 H1946 0.956 . S
C1934 H1947 0.961 . S
C1934 H1948 0.961 . S
C1935 C1932 1.539 . S
C1935 H1949 0.958 . S
C1935 H1950 0.961 . S
C1935 H1951 0.960 . S
H1936 C1920 0.931 . S
H1937 C1925 0.929 . S
H1938 C1926 0.960 . S
H1939 C1926 0.962 . S
H1940 C1926 0.960 . S
H1941 C1927 0.961 . S
H1942 C1927 0.961 . S
H1943 C1927 0.961 . S
H1944 C1928 0.931 . S
H1945 C1933 0.930 . S
H1946 C1934 0.956 . S
H1947 C1934 0.961 . S
H1948 C1934 0.961 . S
H1949 C1935 0.958 . S
H1950 C1935 0.961 . S
H1951 C1935 0.960 . S
C1952 C1953 1.391 . S
C1952 C1954 1.394 . S
C1952 H1968 0.931 . S
C1953 C1952 1.391 . S
C1953 C1957 1.376 . S
C1954 C1952 1.394 . S
C1954 C1955 1.369 . S
C1954 C1958 1.531 . S
C1955 C1954 1.369 . S
C1955 C1956 1.410 . S
C1955 C1963 1.503 1_554 S
C1956 C1955 1.410 . S
C1956 C1957 1.392 . S
C1956 C1959 1.511 . S
C1957 C1953 1.376 . S
C1957 C1956 1.392 . S
C1957 H1969 0.929 . S
C1958 C1954 1.531 . S
C1958 H1970 0.960 . S
C1958 H1971 0.962 . S
C1958 H1972 0.960 . S
C1959 C1956 1.511 . S
C1959 H1973 0.961 . S
C1959 H1974 0.961 1_554 S
C1959 H1975 0.961 . S
C1960 C1961 1.370 . S
C1960 C1962 1.363 . S
C1960 H1976 0.931 . S
C1961 C1960 1.370 . S
C1961 C1965 1.408 . S
C1962 C1960 1.363 . S
C1962 C1963 1.370 . S
C1962 C1966 1.524 . S
C1963 C1955 1.503 1_556 S
C1963 C1962 1.370 . S
C1963 C1964 1.403 . S
C1964 C1963 1.403 . S
C1964 C1965 1.404 . S
C1964 C1967 1.539 1_556 S
C1965 C1961 1.408 . S
C1965 C1964 1.404 . S
C1965 H1977 0.930 . S
C1966 C1962 1.524 . S
C1966 H1978 0.956 1_556 S
C1966 H1979 0.961 . S
C1966 H1980 0.961 . S
C1967 C1964 1.539 1_554 S
C1967 H1981 0.958 . S
C1967 H1982 0.961 1_554 S
C1967 H1983 0.960 . S
H1968 C1952 0.931 . S
H1969 C1957 0.929 . S
H1970 C1958 0.960 . S
H1971 C1958 0.962 . S
H1972 C1958 0.960 . S
H1973 C1959 0.961 . S
H1974 C1959 0.961 1_556 S
H1975 C1959 0.961 . S
H1976 C1960 0.931 . S
H1977 C1965 0.930 . S
H1978 C1966 0.956 1_554 S
H1979 C1966 0.961 . S
H1980 C1966 0.961 . S
H1981 C1967 0.958 . S
H1982 C1967 0.961 1_556 S
H1983 C1967 0.960 . S
C1984 C1985 1.391 . S
C1984 C1986 1.394 . S
C1984 H2000 0.931 . S
C1985 C1984 1.391 . S
C1985 C1989 1.376 . S
C1986 C1984 1.394 . S
C1986 C1987 1.369 . S
C1986 C1990 1.531 . S
C1987 C1986 1.369 . S
C1987 C1988 1.410 . S
C1987 C1995 1.503 . S
C1988 C1987 1.410 . S
C1988 C1989 1.392 . S
C1988 C1991 1.511 . S
C1989 C1985 1.376 . S
C1989 C1988 1.392 . S
C1989 H2001 0.929 . S
C1990 C1986 1.531 . S
C1990 H2002 0.960 . S
C1990 H2003 0.962 . S
C1990 H2004 0.960 . S
C1991 C1988 1.511 . S
C1991 H2005 0.961 . S
C1991 H2006 0.961 . S
C1991 H2007 0.961 . S
C1992 C1993 1.370 . S
C1992 C1994 1.363 . S
C1992 H2008 0.931 . S
C1993 C1992 1.370 . S
C1993 C1997 1.408 . S
C1994 C1992 1.363 . S
C1994 C1995 1.370 . S
C1994 C1998 1.524 . S
C1995 C1987 1.503 . S
C1995 C1994 1.370 . S
C1995 C1996 1.403 . S
C1996 C1995 1.403 . S
C1996 C1997 1.404 . S
C1996 C1999 1.539 . S
C1997 C1993 1.408 . S
C1997 C1996 1.404 . S
C1997 H2009 0.930 . S
C1998 C1994 1.524 . S
C1998 H2010 0.956 . S
C1998 H2011 0.961 . S
C1998 H2012 0.961 . S
C1999 C1996 1.539 . S
C1999 H2013 0.958 . S
C1999 H2014 0.961 . S
C1999 H2015 0.960 . S
H2000 C1984 0.931 . S
H2001 C1989 0.929 . S
H2002 C1990 0.960 . S
H2003 C1990 0.962 . S
H2004 C1990 0.960 . S
H2005 C1991 0.961 . S
H2006 C1991 0.961 . S
H2007 C1991 0.961 . S
H2008 C1992 0.931 . S
H2009 C1997 0.930 . S
H2010 C1998 0.956 . S
H2011 C1998 0.961 . S
H2012 C1998 0.961 . S
H2013 C1999 0.958 . S
H2014 C1999 0.961 . S
H2015 C1999 0.960 . S
C2016 C2017 1.391 . S
C2016 C2018 1.394 . S
C2016 H2032 0.931 . S
C2017 C2016 1.391 . S
C2017 C2021 1.376 . S
C2018 C2016 1.394 . S
C2018 C2019 1.369 . S
C2018 C2022 1.531 . S
C2019 C2018 1.369 . S
C2019 C2020 1.410 . S
C2019 C2027 1.503 . S
C2020 C2019 1.410 . S
C2020 C2021 1.392 . S
C2020 C2023 1.511 . S
C2021 C2017 1.376 . S
C2021 C2020 1.392 . S
C2021 H2033 0.929 . S
C2022 C2018 1.531 . S
C2022 H2034 0.960 . S
C2022 H2035 0.962 . S
C2022 H2036 0.960 . S
C2023 C2020 1.511 . S
C2023 H2037 0.961 . S
C2023 H2038 0.961 . S
C2023 H2039 0.961 . S
C2024 C2025 1.370 . S
C2024 C2026 1.363 . S
C2024 H2040 0.931 . S
C2025 C2024 1.370 . S
C2025 C2029 1.408 . S
C2026 C2024 1.363 . S
C2026 C2027 1.370 . S
C2026 C2030 1.524 . S
C2027 C2019 1.503 . S
C2027 C2026 1.370 . S
C2027 C2028 1.403 . S
C2028 C2027 1.403 . S
C2028 C2029 1.404 . S
C2028 C2031 1.539 . S
C2029 C2025 1.408 . S
C2029 C2028 1.404 . S
C2029 H2041 0.930 . S
C2030 C2026 1.524 . S
C2030 H2042 0.956 . S
C2030 H2043 0.961 . S
C2030 H2044 0.961 . S
C2031 C2028 1.539 . S
C2031 H2045 0.958 . S
C2031 H2046 0.961 . S
C2031 H2047 0.960 . S
H2032 C2016 0.931 . S
H2033 C2021 0.929 . S
H2034 C2022 0.960 . S
H2035 C2022 0.962 . S
H2036 C2022 0.960 . S
H2037 C2023 0.961 . S
H2038 C2023 0.961 . S
H2039 C2023 0.961 . S
H2040 C2024 0.931 . S
H2041 C2029 0.930 . S
H2042 C2030 0.956 . S
H2043 C2030 0.961 . S
H2044 C2030 0.961 . S
H2045 C2031 0.958 . S
H2046 C2031 0.961 . S
H2047 C2031 0.960 . S
C2048 C2049 1.391 . S
C2048 C2050 1.394 . S
C2048 H2064 0.931 . S
C2049 C2048 1.391 . S
C2049 C2053 1.376 . S
C2050 C2048 1.394 . S
C2050 C2051 1.369 . S
C2050 C2054 1.531 . S
C2051 C2050 1.369 . S
C2051 C2052 1.410 . S
C2051 C2059 1.503 . S
C2052 C2051 1.410 . S
C2052 C2053 1.392 . S
C2052 C2055 1.511 . S
C2053 C2049 1.376 . S
C2053 C2052 1.392 . S
C2053 H2065 0.929 . S
C2054 C2050 1.531 . S
C2054 H2066 0.960 . S
C2054 H2067 0.962 . S
C2054 H2068 0.960 . S
C2055 C2052 1.511 . S
C2055 H2069 0.961 . S
C2055 H2070 0.961 . S
C2055 H2071 0.961 . S
C2056 C2057 1.370 . S
C2056 C2058 1.363 . S
C2056 H2072 0.931 . S
C2057 C2056 1.370 . S
C2057 C2061 1.408 . S
C2058 C2056 1.363 . S
C2058 C2059 1.370 . S
C2058 C2062 1.524 . S
C2059 C2051 1.503 . S
C2059 C2058 1.370 . S
C2059 C2060 1.403 . S
C2060 C2059 1.403 . S
C2060 C2061 1.404 . S
C2060 C2063 1.539 . S
C2061 C2057 1.408 . S
C2061 C2060 1.404 . S
C2061 H2073 0.930 . S
C2062 C2058 1.524 . S
C2062 H2074 0.956 . S
C2062 H2075 0.961 . S
C2062 H2076 0.961 . S
C2063 C2060 1.539 . S
C2063 H2077 0.958 . S
C2063 H2078 0.961 . S
C2063 H2079 0.960 . S
H2064 C2048 0.931 . S
H2065 C2053 0.929 . S
H2066 C2054 0.960 . S
H2067 C2054 0.962 . S
H2068 C2054 0.960 . S
H2069 C2055 0.961 . S
H2070 C2055 0.961 . S
H2071 C2055 0.961 . S
H2072 C2056 0.931 . S
H2073 C2061 0.930 . S
H2074 C2062 0.956 . S
H2075 C2062 0.961 . S
H2076 C2062 0.961 . S
H2077 C2063 0.958 . S
H2078 C2063 0.961 . S
H2079 C2063 0.960 . S
C2080 C2081 1.391 . S
C2080 C2082 1.394 . S
C2080 H2096 0.931 . S
C2081 C2080 1.391 . S
C2081 C2085 1.376 . S
C2082 C2080 1.394 . S
C2082 C2083 1.369 . S
C2082 C2086 1.531 . S
C2083 C2082 1.369 . S
C2083 C2084 1.410 . S
C2083 C2091 1.503 . S
C2084 C2083 1.410 . S
C2084 C2085 1.392 . S
C2084 C2087 1.511 . S
C2085 C2081 1.376 . S
C2085 C2084 1.392 . S
C2085 H2097 0.929 . S
C2086 C2082 1.531 . S
C2086 H2098 0.960 . S
C2086 H2099 0.962 . S
C2086 H2100 0.960 . S
C2087 C2084 1.511 . S
C2087 H2101 0.961 . S
C2087 H2102 0.961 . S
C2087 H2103 0.961 . S
C2088 C2089 1.370 . S
C2088 C2090 1.363 . S
C2088 H2104 0.931 . S
C2089 C2088 1.370 . S
C2089 C2093 1.408 . S
C2090 C2088 1.363 . S
C2090 C2091 1.370 . S
C2090 C2094 1.524 . S
C2091 C2083 1.503 . S
C2091 C2090 1.370 . S
C2091 C2092 1.403 . S
C2092 C2091 1.403 . S
C2092 C2093 1.404 . S
C2092 C2095 1.539 . S
C2093 C2089 1.408 . S
C2093 C2092 1.404 . S
C2093 H2105 0.930 . S
C2094 C2090 1.524 . S
C2094 H2106 0.956 . S
C2094 H2107 0.961 . S
C2094 H2108 0.961 . S
C2095 C2092 1.539 . S
C2095 H2109 0.958 . S
C2095 H2110 0.961 . S
C2095 H2111 0.960 . S
H2096 C2080 0.931 . S
H2097 C2085 0.929 . S
H2098 C2086 0.960 . S
H2099 C2086 0.962 . S
H2100 C2086 0.960 . S
H2101 C2087 0.961 . S
H2102 C2087 0.961 . S
H2103 C2087 0.961 . S
H2104 C2088 0.931 . S
H2105 C2093 0.930 . S
H2106 C2094 0.956 . S
H2107 C2094 0.961 . S
H2108 C2094 0.961 . S
H2109 C2095 0.958 . S
H2110 C2095 0.961 . S
H2111 C2095 0.960 . S
C2112 C2113 1.391 . S
C2112 C2114 1.394 . S
C2112 H2128 0.931 . S
C2113 C2112 1.391 . S
C2113 C2117 1.376 . S
C2114 C2112 1.394 . S
C2114 C2115 1.369 . S
C2114 C2118 1.531 . S
C2115 C2114 1.369 . S
C2115 C2116 1.410 . S
C2115 C2123 1.503 . S
C2116 C2115 1.410 . S
C2116 C2117 1.392 . S
C2116 C2119 1.511 . S
C2117 C2113 1.376 . S
C2117 C2116 1.392 . S
C2117 H2129 0.929 . S
C2118 C2114 1.531 . S
C2118 H2130 0.960 . S
C2118 H2131 0.962 . S
C2118 H2132 0.960 . S
C2119 C2116 1.511 . S
C2119 H2133 0.961 . S
C2119 H2134 0.961 . S
C2119 H2135 0.961 . S
C2120 C2121 1.370 . S
C2120 C2122 1.363 . S
C2120 H2136 0.931 . S
C2121 C2120 1.370 . S
C2121 C2125 1.408 . S
C2122 C2120 1.363 . S
C2122 C2123 1.370 . S
C2122 C2126 1.524 . S
C2123 C2115 1.503 . S
C2123 C2122 1.370 . S
C2123 C2124 1.403 . S
C2124 C2123 1.403 . S
C2124 C2125 1.404 . S
C2124 C2127 1.539 . S
C2125 C2121 1.408 . S
C2125 C2124 1.404 . S
C2125 H2137 0.930 . S
C2126 C2122 1.524 . S
C2126 H2138 0.956 . S
C2126 H2139 0.961 . S
C2126 H2140 0.961 . S
C2127 C2124 1.539 . S
C2127 H2141 0.958 . S
C2127 H2142 0.961 . S
C2127 H2143 0.960 . S
H2128 C2112 0.931 . S
H2129 C2117 0.929 . S
H2130 C2118 0.960 . S
H2131 C2118 0.962 . S
H2132 C2118 0.960 . S
H2133 C2119 0.961 . S
H2134 C2119 0.961 . S
H2135 C2119 0.961 . S
H2136 C2120 0.931 . S
H2137 C2125 0.930 . S
H2138 C2126 0.956 . S
H2139 C2126 0.961 . S
H2140 C2126 0.961 . S
H2141 C2127 0.958 . S
H2142 C2127 0.961 . S
H2143 C2127 0.960 . S
C2144 C2145 1.391 . S
C2144 C2146 1.394 . S
C2144 H2160 0.931 . S
C2145 C2144 1.391 . S
C2145 C2149 1.376 . S
C2146 C2144 1.394 . S
C2146 C2147 1.369 . S
C2146 C2150 1.531 . S
C2147 C2146 1.369 . S
C2147 C2148 1.410 . S
C2147 C2155 1.503 . S
C2148 C2147 1.410 . S
C2148 C2149 1.392 . S
C2148 C2151 1.511 . S
C2149 C2145 1.376 . S
C2149 C2148 1.392 . S
C2149 H2161 0.929 . S
C2150 C2146 1.531 . S
C2150 H2162 0.960 . S
C2150 H2163 0.962 . S
C2150 H2164 0.960 . S
C2151 C2148 1.511 . S
C2151 H2165 0.961 . S
C2151 H2166 0.961 . S
C2151 H2167 0.961 . S
C2152 C2153 1.370 . S
C2152 C2154 1.363 . S
C2152 H2168 0.931 . S
C2153 C2152 1.370 . S
C2153 C2157 1.408 . S
C2154 C2152 1.363 . S
C2154 C2155 1.370 . S
C2154 C2158 1.524 . S
C2155 C2147 1.503 . S
C2155 C2154 1.370 . S
C2155 C2156 1.403 . S
C2156 C2155 1.403 . S
C2156 C2157 1.404 . S
C2156 C2159 1.539 . S
C2157 C2153 1.408 . S
C2157 C2156 1.404 . S
C2157 H2169 0.930 . S
C2158 C2154 1.524 . S
C2158 H2170 0.956 . S
C2158 H2171 0.961 . S
C2158 H2172 0.961 . S
C2159 C2156 1.539 . S
C2159 H2173 0.958 . S
C2159 H2174 0.961 . S
C2159 H2175 0.960 . S
H2160 C2144 0.931 . S
H2161 C2149 0.929 . S
H2162 C2150 0.960 . S
H2163 C2150 0.962 . S
H2164 C2150 0.960 . S
H2165 C2151 0.961 . S
H2166 C2151 0.961 . S
H2167 C2151 0.961 . S
H2168 C2152 0.931 . S
H2169 C2157 0.930 . S
H2170 C2158 0.956 . S
H2171 C2158 0.961 . S
H2172 C2158 0.961 . S
H2173 C2159 0.958 . S
H2174 C2159 0.961 . S
H2175 C2159 0.960 . S
C2176 C2177 1.391 . S
C2176 C2178 1.394 . S
C2176 H2192 0.931 . S
C2177 C2176 1.391 . S
C2177 C2181 1.376 . S
C2178 C2176 1.394 . S
C2178 C2179 1.369 . S
C2178 C2182 1.531 . S
C2179 C2178 1.369 . S
C2179 C2180 1.410 . S
C2179 C2187 1.503 . S
C2180 C2179 1.410 . S
C2180 C2181 1.392 . S
C2180 C2183 1.511 . S
C2181 C2177 1.376 . S
C2181 C2180 1.392 . S
C2181 H2193 0.929 . S
C2182 C2178 1.531 . S
C2182 H2194 0.960 . S
C2182 H2195 0.962 . S
C2182 H2196 0.960 . S
C2183 C2180 1.511 . S
C2183 H2197 0.961 . S
C2183 H2198 0.961 . S
C2183 H2199 0.961 . S
C2184 C2185 1.370 . S
C2184 C2186 1.363 . S
C2184 H2200 0.931 . S
C2185 C2184 1.370 . S
C2185 C2189 1.408 . S
C2186 C2184 1.363 . S
C2186 C2187 1.370 . S
C2186 C2190 1.524 . S
C2187 C2179 1.503 . S
C2187 C2186 1.370 . S
C2187 C2188 1.403 . S
C2188 C2187 1.403 . S
C2188 C2189 1.404 . S
C2188 C2191 1.539 . S
C2189 C2185 1.408 . S
C2189 C2188 1.404 . S
C2189 H2201 0.930 . S
C2190 C2186 1.524 . S
C2190 H2202 0.956 . S
C2190 H2203 0.961 . S
C2190 H2204 0.961 . S
C2191 C2188 1.539 . S
C2191 H2205 0.958 . S
C2191 H2206 0.961 . S
C2191 H2207 0.960 . S
H2192 C2176 0.931 . S
H2193 C2181 0.929 . S
H2194 C2182 0.960 . S
H2195 C2182 0.962 . S
H2196 C2182 0.960 . S
H2197 C2183 0.961 . S
H2198 C2183 0.961 . S
H2199 C2183 0.961 . S
H2200 C2184 0.931 . S
H2201 C2189 0.930 . S
H2202 C2190 0.956 . S
H2203 C2190 0.961 . S
H2204 C2190 0.961 . S
H2205 C2191 0.958 . S
H2206 C2191 0.961 . S
H2207 C2191 0.960 . S
C2208 C2209 1.391 . S
C2208 C2210 1.394 . S
C2208 H2224 0.931 . S
C2209 C2208 1.391 . S
C2209 C2213 1.376 . S
C2210 C2208 1.394 . S
C2210 C2211 1.369 . S
C2210 C2214 1.531 . S
C2211 C2210 1.369 . S
C2211 C2212 1.410 . S
C2211 C2219 1.503 . S
C2212 C2211 1.410 . S
C2212 C2213 1.392 . S
C2212 C2215 1.511 . S
C2213 C2209 1.376 . S
C2213 C2212 1.392 . S
C2213 H2225 0.929 . S
C2214 C2210 1.531 . S
C2214 H2226 0.960 . S
C2214 H2227 0.962 . S
C2214 H2228 0.960 . S
C2215 C2212 1.511 . S
C2215 H2229 0.961 . S
C2215 H2230 0.961 . S
C2215 H2231 0.961 . S
C2216 C2217 1.370 . S
C2216 C2218 1.363 . S
C2216 H2232 0.931 . S
C2217 C2216 1.370 . S
C2217 C2221 1.408 . S
C2218 C2216 1.363 . S
C2218 C2219 1.370 . S
C2218 C2222 1.524 . S
C2219 C2211 1.503 . S
C2219 C2218 1.370 . S
C2219 C2220 1.403 . S
C2220 C2219 1.403 . S
C2220 C2221 1.404 . S
C2220 C2223 1.539 . S
C2221 C2217 1.408 . S
C2221 C2220 1.404 . S
C2221 H2233 0.930 . S
C2222 C2218 1.524 . S
C2222 H2234 0.956 . S
C2222 H2235 0.961 . S
C2222 H2236 0.961 . S
C2223 C2220 1.539 . S
C2223 H2237 0.958 . S
C2223 H2238 0.961 . S
C2223 H2239 0.960 . S
H2224 C2208 0.931 . S
H2225 C2213 0.929 . S
H2226 C2214 0.960 . S
H2227 C2214 0.962 . S
H2228 C2214 0.960 . S
H2229 C2215 0.961 . S
H2230 C2215 0.961 . S
H2231 C2215 0.961 . S
H2232 C2216 0.931 . S
H2233 C2221 0.930 . S
H2234 C2222 0.956 . S
H2235 C2222 0.961 . S
H2236 C2222 0.961 . S
H2237 C2223 0.958 . S
H2238 C2223 0.961 . S
H2239 C2223 0.960 . S
C2240 C2241 1.391 . S
C2240 C2242 1.394 . S
C2240 H2256 0.931 . S
C2241 C2240 1.391 . S
C2241 C2245 1.376 . S
C2242 C2240 1.394 . S
C2242 C2243 1.369 . S
C2242 C2246 1.531 . S
C2243 C2242 1.369 . S
C2243 C2244 1.410 . S
C2243 C2251 1.503 . S
C2244 C2243 1.410 . S
C2244 C2245 1.392 . S
C2244 C2247 1.511 . S
C2245 C2241 1.376 . S
C2245 C2244 1.392 . S
C2245 H2257 0.929 . S
C2246 C2242 1.531 . S
C2246 H2258 0.960 . S
C2246 H2259 0.962 . S
C2246 H2260 0.960 . S
C2247 C2244 1.511 . S
C2247 H2261 0.961 . S
C2247 H2262 0.961 . S
C2247 H2263 0.961 . S
C2248 C2249 1.370 . S
C2248 C2250 1.363 . S
C2248 H2264 0.931 . S
C2249 C2248 1.370 . S
C2249 C2253 1.408 . S
C2250 C2248 1.363 . S
C2250 C2251 1.370 . S
C2250 C2254 1.524 . S
C2251 C2243 1.503 . S
C2251 C2250 1.370 . S
C2251 C2252 1.403 . S
C2252 C2251 1.403 . S
C2252 C2253 1.404 . S
C2252 C2255 1.539 . S
C2253 C2249 1.408 . S
C2253 C2252 1.404 . S
C2253 H2265 0.930 . S
C2254 C2250 1.524 . S
C2254 H2266 0.956 . S
C2254 H2267 0.961 . S
C2254 H2268 0.961 . S
C2255 C2252 1.539 . S
C2255 H2269 0.958 . S
C2255 H2270 0.961 . S
C2255 H2271 0.960 . S
H2256 C2240 0.931 . S
H2257 C2245 0.929 . S
H2258 C2246 0.960 . S
H2259 C2246 0.962 . S
H2260 C2246 0.960 . S
H2261 C2247 0.961 . S
H2262 C2247 0.961 . S
H2263 C2247 0.961 . S
H2264 C2248 0.931 . S
H2265 C2253 0.930 . S
H2266 C2254 0.956 . S
H2267 C2254 0.961 . S
H2268 C2254 0.961 . S
H2269 C2255 0.958 . S
H2270 C2255 0.961 . S
H2271 C2255 0.960 . S
C2272 C2273 1.391 . S
C2272 C2274 1.394 . S
C2272 H2288 0.931 . S
C2273 C2272 1.391 . S
C2273 C2277 1.376 . S
C2274 C2272 1.394 . S
C2274 C2275 1.369 . S
C2274 C2278 1.531 . S
C2275 C2274 1.369 . S
C2275 C2276 1.410 . S
C2275 C2283 1.503 . S
C2276 C2275 1.410 . S
C2276 C2277 1.392 . S
C2276 C2279 1.511 . S
C2277 C2273 1.376 . S
C2277 C2276 1.392 . S
C2277 H2289 0.929 . S
C2278 C2274 1.531 . S
C2278 H2290 0.960 . S
C2278 H2291 0.962 . S
C2278 H2292 0.960 . S
C2279 C2276 1.511 . S
C2279 H2293 0.961 . S
C2279 H2294 0.961 . S
C2279 H2295 0.961 . S
C2280 C2281 1.370 . S
C2280 C2282 1.363 . S
C2280 H2296 0.931 . S
C2281 C2280 1.370 . S
C2281 C2285 1.408 . S
C2282 C2280 1.363 . S
C2282 C2283 1.370 . S
C2282 C2286 1.524 . S
C2283 C2275 1.503 . S
C2283 C2282 1.370 . S
C2283 C2284 1.403 . S
C2284 C2283 1.403 . S
C2284 C2285 1.404 . S
C2284 C2287 1.539 . S
C2285 C2281 1.408 . S
C2285 C2284 1.404 . S
C2285 H2297 0.930 . S
C2286 C2282 1.524 . S
C2286 H2298 0.956 . S
C2286 H2299 0.961 . S
C2286 H2300 0.961 . S
C2287 C2284 1.539 . S
C2287 H2301 0.958 . S
C2287 H2302 0.961 . S
C2287 H2303 0.960 . S
H2288 C2272 0.931 . S
H2289 C2277 0.929 . S
H2290 C2278 0.960 . S
H2291 C2278 0.962 . S
H2292 C2278 0.960 . S
H2293 C2279 0.961 . S
H2294 C2279 0.961 . S
H2295 C2279 0.961 . S
H2296 C2280 0.931 . S
H2297 C2285 0.930 . S
H2298 C2286 0.956 . S
H2299 C2286 0.961 . S
H2300 C2286 0.961 . S
H2301 C2287 0.958 . S
H2302 C2287 0.961 . S
H2303 C2287 0.960 . S
C2304 C2305 1.391 . S
C2304 C2306 1.394 . S
C2304 H2320 0.931 . S
C2305 C2304 1.391 . S
C2305 C2309 1.376 . S
C2306 C2304 1.394 . S
C2306 C2307 1.369 . S
C2306 C2310 1.531 . S
C2307 C2306 1.369 . S
C2307 C2308 1.410 . S
C2307 C2315 1.503 . S
C2308 C2307 1.410 . S
C2308 C2309 1.392 . S
C2308 C2311 1.511 . S
C2309 C2305 1.376 . S
C2309 C2308 1.392 . S
C2309 H2321 0.929 . S
C2310 C2306 1.531 . S
C2310 H2322 0.960 . S
C2310 H2323 0.962 . S
C2310 H2324 0.960 . S
C2311 C2308 1.511 . S
C2311 H2325 0.961 . S
C2311 H2326 0.961 . S
C2311 H2327 0.961 . S
C2312 C2313 1.370 . S
C2312 C2314 1.363 . S
C2312 H2328 0.931 . S
C2313 C2312 1.370 . S
C2313 C2317 1.408 . S
C2314 C2312 1.363 . S
C2314 C2315 1.370 . S
C2314 C2318 1.524 . S
C2315 C2307 1.503 . S
C2315 C2314 1.370 . S
C2315 C2316 1.403 . S
C2316 C2315 1.403 . S
C2316 C2317 1.404 . S
C2316 C2319 1.539 . S
C2317 C2313 1.408 . S
C2317 C2316 1.404 . S
C2317 H2329 0.930 . S
C2318 C2314 1.524 . S
C2318 H2330 0.956 . S
C2318 H2331 0.961 . S
C2318 H2332 0.961 . S
C2319 C2316 1.539 . S
C2319 H2333 0.958 . S
C2319 H2334 0.961 . S
C2319 H2335 0.960 . S
H2320 C2304 0.931 . S
H2321 C2309 0.929 . S
H2322 C2310 0.960 . S
H2323 C2310 0.962 . S
H2324 C2310 0.960 . S
H2325 C2311 0.961 . S
H2326 C2311 0.961 . S
H2327 C2311 0.961 . S
H2328 C2312 0.931 . S
H2329 C2317 0.930 . S
H2330 C2318 0.956 . S
H2331 C2318 0.961 . S
H2332 C2318 0.961 . S
H2333 C2319 0.958 . S
H2334 C2319 0.961 . S
H2335 C2319 0.960 . S
C2336 C2337 1.391 . S
C2336 C2338 1.394 . S
C2336 H2352 0.931 . S
C2337 C2336 1.391 . S
C2337 C2341 1.376 . S
C2338 C2336 1.394 . S
C2338 C2339 1.369 . S
C2338 C2342 1.531 . S
C2339 C2338 1.369 . S
C2339 C2340 1.410 . S
C2339 C2347 1.503 . S
C2340 C2339 1.410 . S
C2340 C2341 1.392 . S
C2340 C2343 1.511 . S
C2341 C2337 1.376 . S
C2341 C2340 1.392 . S
C2341 H2353 0.929 . S
C2342 C2338 1.531 . S
C2342 H2354 0.960 . S
C2342 H2355 0.962 . S
C2342 H2356 0.960 . S
C2343 C2340 1.511 . S
C2343 H2357 0.961 . S
C2343 H2358 0.961 . S
C2343 H2359 0.961 . S
C2344 C2345 1.370 . S
C2344 C2346 1.363 . S
C2344 H2360 0.931 . S
C2345 C2344 1.370 . S
C2345 C2349 1.408 . S
C2346 C2344 1.363 . S
C2346 C2347 1.370 . S
C2346 C2350 1.524 . S
C2347 C2339 1.503 . S
C2347 C2346 1.370 . S
C2347 C2348 1.403 . S
C2348 C2347 1.403 . S
C2348 C2349 1.404 . S
C2348 C2351 1.539 . S
C2349 C2345 1.408 . S
C2349 C2348 1.404 . S
C2349 H2361 0.930 . S
C2350 C2346 1.524 . S
C2350 H2362 0.956 . S
C2350 H2363 0.961 . S
C2350 H2364 0.961 . S
C2351 C2348 1.539 . S
C2351 H2365 0.958 . S
C2351 H2366 0.961 . S
C2351 H2367 0.960 . S
H2352 C2336 0.931 . S
H2353 C2341 0.929 . S
H2354 C2342 0.960 . S
H2355 C2342 0.962 . S
H2356 C2342 0.960 . S
H2357 C2343 0.961 . S
H2358 C2343 0.961 . S
H2359 C2343 0.961 . S
H2360 C2344 0.931 . S
H2361 C2349 0.930 . S
H2362 C2350 0.956 . S
H2363 C2350 0.961 . S
H2364 C2350 0.961 . S
H2365 C2351 0.958 . S
H2366 C2351 0.961 . S
H2367 C2351 0.960 . S
C2368 C2369 1.391 . S
C2368 C2370 1.394 . S
C2368 H2384 0.931 . S
C2369 C2368 1.391 . S
C2369 C2373 1.376 . S
C2370 C2368 1.394 . S
C2370 C2371 1.369 . S
C2370 C2374 1.531 . S
C2371 C2370 1.369 . S
C2371 C2372 1.410 . S
C2371 C2379 1.503 . S
C2372 C2371 1.410 . S
C2372 C2373 1.392 . S
C2372 C2375 1.511 . S
C2373 C2369 1.376 . S
C2373 C2372 1.392 . S
C2373 H2385 0.929 . S
C2374 C2370 1.531 . S
C2374 H2386 0.960 . S
C2374 H2387 0.962 . S
C2374 H2388 0.960 . S
C2375 C2372 1.511 . S
C2375 H2389 0.961 . S
C2375 H2390 0.961 . S
C2375 H2391 0.961 . S
C2376 C2377 1.370 . S
C2376 C2378 1.363 . S
C2376 H2392 0.931 . S
C2377 C2376 1.370 . S
C2377 C2381 1.408 . S
C2378 C2376 1.363 . S
C2378 C2379 1.370 . S
C2378 C2382 1.524 . S
C2379 C2371 1.503 . S
C2379 C2378 1.370 . S
C2379 C2380 1.403 . S
C2380 C2379 1.403 . S
C2380 C2381 1.404 . S
C2380 C2383 1.539 . S
C2381 C2377 1.408 . S
C2381 C2380 1.404 . S
C2381 H2393 0.930 . S
C2382 C2378 1.524 . S
C2382 H2394 0.956 . S
C2382 H2395 0.961 . S
C2382 H2396 0.961 . S
C2383 C2380 1.539 . S
C2383 H2397 0.958 . S
C2383 H2398 0.961 . S
C2383 H2399 0.960 . S
H2384 C2368 0.931 . S
H2385 C2373 0.929 . S
H2386 C2374 0.960 . S
H2387 C2374 0.962 . S
H2388 C2374 0.960 . S
H2389 C2375 0.961 . S
H2390 C2375 0.961 . S
H2391 C2375 0.961 . S
H2392 C2376 0.931 . S
H2393 C2381 0.930 . S
H2394 C2382 0.956 . S
H2395 C2382 0.961 . S
H2396 C2382 0.961 . S
H2397 C2383 0.958 . S
H2398 C2383 0.961 . S
H2399 C2383 0.960 . S
C2400 C2401 1.391 . S
C2400 C2402 1.394 . S
C2400 H2416 0.931 . S
C2401 C2400 1.391 . S
C2401 C2405 1.376 . S
C2402 C2400 1.394 . S
C2402 C2403 1.369 . S
C2402 C2406 1.531 . S
C2403 C2402 1.369 . S
C2403 C2404 1.410 . S
C2403 C2411 1.503 . S
C2404 C2403 1.410 . S
C2404 C2405 1.392 . S
C2404 C2407 1.511 . S
C2405 C2401 1.376 . S
C2405 C2404 1.392 . S
C2405 H2417 0.929 . S
C2406 C2402 1.531 . S
C2406 H2418 0.960 . S
C2406 H2419 0.962 . S
C2406 H2420 0.960 . S
C2407 C2404 1.511 . S
C2407 H2421 0.961 . S
C2407 H2422 0.961 . S
C2407 H2423 0.961 . S
C2408 C2409 1.370 . S
C2408 C2410 1.363 . S
C2408 H2424 0.931 . S
C2409 C2408 1.370 . S
C2409 C2413 1.408 . S
C2410 C2408 1.363 . S
C2410 C2411 1.370 . S
C2410 C2414 1.524 . S
C2411 C2403 1.503 . S
C2411 C2410 1.370 . S
C2411 C2412 1.403 . S
C2412 C2411 1.403 . S
C2412 C2413 1.404 . S
C2412 C2415 1.539 . S
C2413 C2409 1.408 . S
C2413 C2412 1.404 . S
C2413 H2425 0.930 . S
C2414 C2410 1.524 . S
C2414 H2426 0.956 . S
C2414 H2427 0.961 . S
C2414 H2428 0.961 . S
C2415 C2412 1.539 . S
C2415 H2429 0.958 . S
C2415 H2430 0.961 . S
C2415 H2431 0.960 . S
H2416 C2400 0.931 . S
H2417 C2405 0.929 . S
H2418 C2406 0.960 . S
H2419 C2406 0.962 . S
H2420 C2406 0.960 . S
H2421 C2407 0.961 . S
H2422 C2407 0.961 . S
H2423 C2407 0.961 . S
H2424 C2408 0.931 . S
H2425 C2413 0.930 . S
H2426 C2414 0.956 . S
H2427 C2414 0.961 . S
H2428 C2414 0.961 . S
H2429 C2415 0.958 . S
H2430 C2415 0.961 . S
H2431 C2415 0.960 . S
C2432 C2433 1.391 . S
C2432 C2434 1.394 . S
C2432 H2448 0.931 . S
C2433 C2432 1.391 . S
C2433 C2437 1.376 . S
C2434 C2432 1.394 . S
C2434 C2435 1.369 . S
C2434 C2438 1.531 . S
C2435 C2434 1.369 . S
C2435 C2436 1.410 . S
C2435 C2443 1.503 . S
C2436 C2435 1.410 . S
C2436 C2437 1.392 . S
C2436 C2439 1.511 . S
C2437 C2433 1.376 . S
C2437 C2436 1.392 . S
C2437 H2449 0.929 . S
C2438 C2434 1.531 . S
C2438 H2450 0.960 . S
C2438 H2451 0.962 . S
C2438 H2452 0.960 . S
C2439 C2436 1.511 . S
C2439 H2453 0.961 . S
C2439 H2454 0.961 . S
C2439 H2455 0.961 . S
C2440 C2441 1.370 . S
C2440 C2442 1.363 . S
C2440 H2456 0.931 . S
C2441 C2440 1.370 . S
C2441 C2445 1.408 . S
C2442 C2440 1.363 . S
C2442 C2443 1.370 . S
C2442 C2446 1.524 . S
C2443 C2435 1.503 . S
C2443 C2442 1.370 . S
C2443 C2444 1.403 . S
C2444 C2443 1.403 . S
C2444 C2445 1.404 . S
C2444 C2447 1.539 . S
C2445 C2441 1.408 . S
C2445 C2444 1.404 . S
C2445 H2457 0.930 . S
C2446 C2442 1.524 . S
C2446 H2458 0.956 . S
C2446 H2459 0.961 . S
C2446 H2460 0.961 . S
C2447 C2444 1.539 . S
C2447 H2461 0.958 . S
C2447 H2462 0.961 . S
C2447 H2463 0.960 . S
H2448 C2432 0.931 . S
H2449 C2437 0.929 . S
H2450 C2438 0.960 . S
H2451 C2438 0.962 . S
H2452 C2438 0.960 . S
H2453 C2439 0.961 . S
H2454 C2439 0.961 . S
H2455 C2439 0.961 . S
H2456 C2440 0.931 . S
H2457 C2445 0.930 . S
H2458 C2446 0.956 . S
H2459 C2446 0.961 . S
H2460 C2446 0.961 . S
H2461 C2447 0.958 . S
H2462 C2447 0.961 . S
H2463 C2447 0.960 . S
C2464 C2465 1.391 . S
C2464 C2466 1.394 . S
C2464 H2480 0.931 . S
C2465 C2464 1.391 . S
C2465 C2469 1.376 . S
C2466 C2464 1.394 . S
C2466 C2467 1.369 . S
C2466 C2470 1.531 . S
C2467 C2466 1.369 . S
C2467 C2468 1.410 . S
C2467 C2475 1.503 . S
C2468 C2467 1.410 . S
C2468 C2469 1.392 . S
C2468 C2471 1.511 . S
C2469 C2465 1.376 . S
C2469 C2468 1.392 . S
C2469 H2481 0.929 . S
C2470 C2466 1.531 . S
C2470 H2482 0.960 . S
C2470 H2483 0.962 . S
C2470 H2484 0.960 . S
C2471 C2468 1.511 . S
C2471 H2485 0.961 . S
C2471 H2486 0.961 . S
C2471 H2487 0.961 . S
C2472 C2473 1.370 . S
C2472 C2474 1.363 . S
C2472 H2488 0.931 . S
C2473 C2472 1.370 . S
C2473 C2477 1.408 . S
C2474 C2472 1.363 . S
C2474 C2475 1.370 . S
C2474 C2478 1.524 . S
C2475 C2467 1.503 . S
C2475 C2474 1.370 . S
C2475 C2476 1.403 . S
C2476 C2475 1.403 . S
C2476 C2477 1.404 . S
C2476 C2479 1.539 . S
C2477 C2473 1.408 . S
C2477 C2476 1.404 . S
C2477 H2489 0.930 . S
C2478 C2474 1.524 . S
C2478 H2490 0.956 . S
C2478 H2491 0.961 . S
C2478 H2492 0.961 . S
C2479 C2476 1.539 . S
C2479 H2493 0.958 . S
C2479 H2494 0.961 . S
C2479 H2495 0.960 . S
H2480 C2464 0.931 . S
H2481 C2469 0.929 . S
H2482 C2470 0.960 . S
H2483 C2470 0.962 . S
H2484 C2470 0.960 . S
H2485 C2471 0.961 . S
H2486 C2471 0.961 . S
H2487 C2471 0.961 . S
H2488 C2472 0.931 . S
H2489 C2477 0.930 . S
H2490 C2478 0.956 . S
H2491 C2478 0.961 . S
H2492 C2478 0.961 . S
H2493 C2479 0.958 . S
H2494 C2479 0.961 . S
H2495 C2479 0.960 . S
C449 C93 1.541 . S
C457 C9 1.519 . S
C481 C23 1.536 . S
C489 C107 1.518 . S
C513 C65 1.539 . S
C521 C37 1.534 . S
C545 C51 1.532 . S
C553 C79 1.536 . S
C577 C205 1.533 . S
C585 C121 1.519 . S
C609 C219 1.540 . S
C617 C135 1.535 . S
C641 C149 1.532 . S
C649 C177 1.537 . S
C673 C163 1.547 . S
C681 C191 1.529 . S
C705 C233 1.530 . S
C713 C317 1.537 . S
C737 C247 1.524 . S
C745 C331 1.537 . S
C769 C289 1.527 . S
C777 C261 1.537 . S
C801 C303 1.547 . S
C809 C275 1.524 . S
C833 C345 1.545 . S
C841 C429 1.533 . S
C865 C443 1.536 . S
C873 C359 1.520 . S
C897 C401 1.527 . S
C905 C373 1.518 . S
C929 C387 1.544 . S
C937 C415 1.524 . S
C961 C7 1.292 . S
C969 C428 1.305 . S
C993 C218 1.289 . S
C1001 C21 1.279 . S
C1025 C35 1.258 . S
C1033 C400 1.309 . S
C1057 C49 1.262 . S
C1065 C190 1.302 . S
C1089 C372 1.319 . S
C1097 C63 1.306 . S
C1121 C162 1.284 . S
C1129 C77 1.285 . S
C1153 C91 1.289 . S
C1161 C344 1.320 . S
C1185 C134 1.289 . S
C1193 C105 1.292 . S
C1217 C119 1.300 . S
C1225 C316 1.324 . S
C1249 C106 1.296 . S
C1257 C133 1.279 . S
C1281 C147 1.256 . S
C1289 C288 1.311 . S
C1313 C161 1.280 . S
C1321 C78 1.321 . S
C1345 C260 1.295 . S
C1353 C175 1.301 . S
C1377 C189 1.272 . S
C1385 C50 1.319 . S
C1409 C203 1.256 . S
C1417 C232 1.311 . S
C1441 C22 1.313 . S
C1449 C217 1.307 . S
C1473 C231 1.307 . S
C1481 C204 1.323 . S
C1505 C245 1.255 . S
C1513 C442 1.306 . S
C1537 C176 1.301 . S
C1545 C259 1.300 . S
C1569 C273 1.256 . S
C1577 C414 1.308 . S
C1601 C148 1.312 . S
C1609 C287 1.304 . S
C1633 C386 1.286 . S
C1641 C301 1.289 . S
C1665 C120 1.286 . S
C1673 C315 1.280 . S
C1697 C358 1.283 . S
C1705 C329 1.283 . S
C1729 C343 1.256 . S
C1737 C92 1.311 . S
C1761 C330 1.330 . S
C1769 C357 1.306 . S
C1793 C64 1.284 . S
C1801 C371 1.288 . S
C1825 C385 1.295 . S
C1833 C302 1.323 . S
C1857 C399 1.311 . S
C1865 C36 1.308 . S
C1889 C413 1.297 . S
C1897 C274 1.304 . S
C1921 C8 1.283 . S
C1929 C427 1.287 . S
C1953 C441 1.262 . S
C1961 C246 1.315 . S
C1985 C6 1.474 . S
C1993 C300 1.500 . S
C2017 C314 1.485 . S
C2025 C20 1.503 . S
C2049 C34 1.461 . S
C2057 C328 1.494 . S
C2081 C286 1.469 . S
C2089 C48 1.480 . S
C2113 C272 1.514 . S
C2121 C62 1.489 . S
C2145 C230 1.494 . S
C2153 C76 1.480 . S
C2177 C244 1.458 . S
C2185 C90 1.490 . S
C2209 C258 1.475 . S
C2217 C104 1.500 . S
C2241 C118 1.458 . S
C2249 C412 1.490 . S
C2273 C426 1.458 . S
C2281 C132 1.491 . S
C2305 C440 1.460 . S
C2313 C146 1.496 . S
C2337 C398 1.505 . S
C2345 C160 1.480 . S
C2369 C384 1.500 . S
C2377 C174 1.479 . S
C2401 C342 1.463 . S
C2409 C188 1.499 . S
C2433 C202 1.515 . S
C2441 C356 1.492 . S
C2465 C216 1.506 . S
C2473 C370 1.480 . S
