# Generated by pormake.
# Topology vby, (6)-cn, num edge types: 1
# Building blocks:
#     Node 0, Type 0, BuildingBlock: INOVEN_clean_sbu_0, # of connection points: 6
#     Node 1, Type 0, BuildingBlock: INOVEN_clean_sbu_0, # of connection points: 6
#     Node 2, Type 0, BuildingBlock: INOVEN_clean_sbu_0, # of connection points: 6
#     Node 3, Type 0, BuildingBlock: INOVEN_clean_sbu_0, # of connection points: 6
#     Node 4, Type 0, BuildingBlock: INOVEN_clean_sbu_0, # of connection points: 6
#     Node 5, Type 0, BuildingBlock: INOVEN_clean_sbu_0, # of connection points: 6
#     Node 6, Type 0, BuildingBlock: INOVEN_clean_sbu_0, # of connection points: 6
#     Node 7, Type 0, BuildingBlock: INOVEN_clean_sbu_0, # of connection points: 6
#     Edge 8, Type (0, 0), BuildingBlock: AJUNOK_clean_linker_0, # of connection points: 2
#     Edge 9, Type (0, 0), BuildingBlock: AJUNOK_clean_linker_0, # of connection points: 2
#     Edge 10, Type (0, 0), BuildingBlock: AJUNOK_clean_linker_0, # of connection points: 2
#     Edge 11, Type (0, 0), BuildingBlock: AJUNOK_clean_linker_0, # of connection points: 2
#     Edge 12, Type (0, 0), BuildingBlock: AJUNOK_clean_linker_0, # of connection points: 2
#     Edge 13, Type (0, 0), BuildingBlock: AJUNOK_clean_linker_0, # of connection points: 2
#     Edge 14, Type (0, 0), BuildingBlock: AJUNOK_clean_linker_0, # of connection points: 2
#     Edge 15, Type (0, 0), BuildingBlock: AJUNOK_clean_linker_0, # of connection points: 2
#     Edge 16, Type (0, 0), BuildingBlock: AJUNOK_clean_linker_0, # of connection points: 2
#     Edge 17, Type (0, 0), BuildingBlock: AJUNOK_clean_linker_0, # of connection points: 2
#     Edge 18, Type (0, 0), BuildingBlock: AJUNOK_clean_linker_0, # of connection points: 2
#     Edge 19, Type (0, 0), BuildingBlock: AJUNOK_clean_linker_0, # of connection points: 2
#     Edge 20, Type (0, 0), BuildingBlock: AJUNOK_clean_linker_0, # of connection points: 2
#     Edge 21, Type (0, 0), BuildingBlock: AJUNOK_clean_linker_0, # of connection points: 2
#     Edge 22, Type (0, 0), BuildingBlock: AJUNOK_clean_linker_0, # of connection points: 2
#     Edge 23, Type (0, 0), BuildingBlock: AJUNOK_clean_linker_0, # of connection points: 2
#     Edge 24, Type (0, 0), BuildingBlock: AJUNOK_clean_linker_0, # of connection points: 2
#     Edge 25, Type (0, 0), BuildingBlock: AJUNOK_clean_linker_0, # of connection points: 2
#     Edge 26, Type (0, 0), BuildingBlock: AJUNOK_clean_linker_0, # of connection points: 2
#     Edge 27, Type (0, 0), BuildingBlock: AJUNOK_clean_linker_0, # of connection points: 2
#     Edge 28, Type (0, 0), BuildingBlock: AJUNOK_clean_linker_0, # of connection points: 2
#     Edge 29, Type (0, 0), BuildingBlock: AJUNOK_clean_linker_0, # of connection points: 2
#     Edge 30, Type (0, 0), BuildingBlock: AJUNOK_clean_linker_0, # of connection points: 2
#     Edge 31, Type (0, 0), BuildingBlock: AJUNOK_clean_linker_0, # of connection points: 2
# Relax obj value: 0.204
# Max RMSD: 0.227
# Mean RMSD: 0.227
data_MOF--net-vby--node1-INOVEN_clean_sbu_0--edge1-AJUNOK_clean_linker_0
_symmetry_space_group_name_H-M    P1
_symmetry_Int_Tables_number       1
_symmetry_cell_setting            triclinic
loop_
_symmetry_equiv_pos_as_xyz
'x, y, z'
_cell_length_a     11.556036
_cell_length_b     88.023837
_cell_length_c     21.402773
_cell_angle_alpha  90.077052
_cell_angle_beta   83.590379
_cell_angle_gamma 90.185517
loop_
_atom_site_label
_atom_site_type_symbol
_atom_site_fract_x
_atom_site_fract_y
_atom_site_fract_z
_atom_type_partial_charge
Gd0 Gd 0.05911 0.40902 0.02284 0.0
Gd1 Gd 0.05118 0.37359 0.02901 0.0
C2 C 0.81108 0.39139 0.02081 0.0
C3 C 1.03741 0.43806 0.01309 0.0
C4 C 1.02287 0.45484 0.01127 0.0
C5 C 0.98022 0.46271 0.06625 0.0
C6 C 0.0567 0.46323 0.95637 0.0
C7 C 1.00846 0.48704 0.01221 0.0
C8 C 0.04917 0.47918 0.95677 0.0
C9 C 0.97356 0.47859 0.06676 0.0
C10 C 0.07921 0.39622 0.13684 0.0
C11 C 0.3025 0.39157 0.01155 0.0
C12 C 0.05111 0.34589 0.07068 0.0
C13 C 0.10441 0.33068 0.05856 0.0
C14 C 0.12762 0.32467 0.99755 0.0
C15 C 0.12641 0.32163 0.10988 0.0
C16 C 0.19145 0.30065 0.03992 0.0
C17 C 0.16917 0.30682 0.10075 0.0
C18 C 0.17057 0.3098 0.98835 0.0
C19 C 0.07203 0.38238 0.90589 0.0
O20 O 0.87466 0.40355 1.00364 0.0
O21 O 0.85903 0.37899 0.04157 0.0
O22 O 0.98583 0.43009 0.05983 0.0
O23 O 0.099 0.43009 0.9694 0.0
O24 O 0.13922 0.40775 0.11394 0.0
O25 O 1.00963 0.39205 0.09856 0.0
O26 O 0.24337 0.37918 0.03125 0.0
O27 O 0.24889 0.40408 0.99617 0.0
O28 O 0.97998 0.35078 0.03157 0.0
O29 O 0.11696 0.35668 0.09013 0.0
O30 O 0.07286 0.36837 0.92428 0.0
O31 O 0.06632 0.39081 0.95366 0.0
H32 H 0.95405 0.45663 0.1095 0.0
H33 H 0.09051 0.45751 0.91338 0.0
H34 H 0.07824 0.48537 0.91417 0.0
H35 H 0.94145 0.48428 0.11013 0.0
H36 H 0.1109 0.33135 0.95708 0.0
H37 H 0.10886 0.32597 0.15739 0.0
H38 H 0.18492 0.30017 0.14147 0.0
H39 H 0.18483 0.30536 0.94093 0.0
Gd40 Gd 1.03864 0.66564 0.02078 0.0
Gd41 Gd 1.03141 0.63006 0.03173 0.0
C42 C 0.7875 0.6477 0.03765 0.0
C43 C 1.03463 0.69325 0.97839 0.0
C44 C 0.98065 0.70845 0.9916 0.0
C45 C 1.00102 0.71702 0.04492 0.0
C46 C 0.91511 0.71507 0.94729 0.0
C47 C 0.89344 0.73857 0.00839 0.0
C48 C 0.8721 0.72991 0.95554 0.0
C49 C 0.95802 0.73189 0.05316 0.0
C50 C 1.02106 0.65724 0.1452 0.0
C51 C 0.27905 0.64835 0.02848 0.0
C52 C 0.05986 0.60152 0.056 0.0
C53 C 1.02804 0.58545 0.04456 0.0
C54 C 0.05119 0.57866 0.98488 0.0
C55 C 0.98877 0.5762 0.09606 0.0
C56 C 1.00371 0.55356 0.02956 0.0
C57 C 0.97663 0.56048 0.08869 0.0
C58 C 1.03916 0.5629 0.9775 0.0
C59 C 1.01383 0.64153 0.91428 0.0
O60 O 0.84823 0.65995 0.01828 0.0
O61 O 0.83905 0.63502 0.05342 0.0
O62 O 0.11028 0.68845 0.01518 0.0
O63 O 0.96803 0.68234 0.96054 0.0
O64 O 1.02262 0.67121 0.12614 0.0
O65 O 1.0246 0.64891 0.09731 0.0
O66 O 0.21668 0.63632 0.04892 0.0
O67 O 0.22965 0.66028 0.00505 0.0
O68 O 0.12123 0.60889 0.01046 0.0
O69 O 0.98506 0.61018 0.09012 0.0
O70 O 0.96195 0.62938 0.9375 0.0
O71 O 0.07964 0.64649 0.95342 0.0
H72 H 0.05219 0.71238 0.07975 0.0
H73 H 0.89886 0.70883 0.90545 0.0
H74 H 0.82232 0.73464 0.92028 0.0
H75 H 0.97818 0.7383 0.09381 0.0
H76 H 0.08294 0.58541 0.94425 0.0
H77 H 0.97162 0.58106 0.1427 0.0
H78 H 0.94844 0.55366 0.12971 0.0
H79 H 0.06272 0.55796 0.9315 0.0
Gd80 Gd 0.06042 0.66412 0.53296 0.0
Gd81 Gd 0.07145 0.62888 0.51663 0.0
C82 C 0.31546 0.64735 0.51849 0.0
C83 C 0.07153 0.69254 0.5662 0.0
C84 C 0.13812 0.707 0.5569 0.0
C85 C 0.176 0.71262 0.49652 0.0
C86 C 0.15176 0.71622 0.60924 0.0
C87 C 0.23066 0.73687 0.54106 0.0
C88 C 0.19796 0.73095 0.60148 0.0
C89 C 0.22184 0.72738 0.48874 0.0
C90 C 1.03787 0.65406 0.4143 0.0
C91 C 0.82253 0.64633 0.53524 0.0
C92 C 0.07363 0.60118 0.47345 0.0
C93 C 0.06786 0.58492 0.49317 0.0
C94 C 0.14227 0.57888 0.53457 0.0
C95 C 0.99193 0.57498 0.4662 0.0
C96 C 0.06908 0.55316 0.51858 0.0
C97 C 0.99216 0.55934 0.47887 0.0
C98 C 0.14267 0.5632 0.54719 0.0
C99 C 1.04715 0.63604 0.64284 0.0
O100 O 0.25554 0.66019 0.52595 0.0
O101 O 0.26408 0.63413 0.51013 0.0
O102 O 1.01758 0.68769 0.51953 0.0
O103 O 0.11458 0.68148 0.59715 0.0
O104 O 0.98574 0.66574 0.44096 0.0
O105 O 0.10721 0.64849 0.45035 0.0
O106 O 0.88424 0.63534 0.50498 0.0
O107 O 0.87507 0.65726 0.56411 0.0
O108 O 0.16762 0.60891 0.48179 0.0
O109 O 0.97876 0.6093 0.48389 0.0
O110 O 0.05869 0.62235 0.62083 0.0
O111 O 0.05011 0.64476 0.59627 0.0
H112 H 0.16695 0.7058 0.45519 0.0
H113 H 0.1225 0.71223 0.65624 0.0
H114 H 0.20364 0.73793 0.64274 0.0
H115 H 0.24863 0.73147 0.44162 0.0
H116 H 0.20158 0.58621 0.55643 0.0
H117 H 0.93407 0.57928 0.43388 0.0
H118 H 0.93448 0.552 0.45591 0.0
H119 H 0.20117 0.55892 0.57916 0.0
Gd120 Gd 1.03854 0.40811 0.52677 0.0
Gd121 Gd 0.0503 0.37489 0.51824 0.0
C122 C 0.28878 0.392 0.51892 0.0
C123 C 0.05598 0.43737 0.53779 0.0
C124 C 0.06871 0.45422 0.54197 0.0
C125 C 0.13731 0.4622 0.4943 0.0
C126 C 1.00583 0.46262 0.59035 0.0
C127 C 0.07782 0.48659 0.54223 0.0
C128 C 1.01001 0.47861 0.59035 0.0
C129 C 0.14166 0.47813 0.49438 0.0
C130 C 1.0246 0.3966 0.40929 0.0
C131 C 0.79404 0.39155 0.53541 0.0
C132 C 1.03855 0.34623 0.48817 0.0
C133 C 0.97372 0.33162 0.49769 0.0
C134 C 0.95158 0.32485 0.5574 0.0
C135 C 0.94625 0.3234 0.44496 0.0
C136 C 0.88362 0.30155 0.51065 0.0
C137 C 0.90133 0.30858 0.45134 0.0
C138 C 0.90679 0.31001 0.56378 0.0
C139 C 0.07161 0.38489 0.63643 0.0
O140 O 0.22303 0.40293 0.54604 0.0
O141 O 0.2396 0.38063 0.49118 0.0
O142 O 0.10762 0.42967 0.4905 0.0
O143 O 0.99804 0.429 0.58128 0.0
O144 O 0.95764 0.40708 0.43536 0.0
O145 O 0.09518 0.39246 0.44676 0.0
O146 O 0.8544 0.379 0.52091 0.0
O147 O 0.84723 0.40432 0.54718 0.0
O148 O 0.09234 0.35138 0.53436 0.0
O149 O 0.99494 0.3571 0.45642 0.0
O150 O 0.12483 0.37335 0.60938 0.0
O151 O 1.00074 0.3904 0.60109 0.0
H152 H 0.18589 0.45615 0.45586 0.0
H153 H 0.9513 0.45687 0.6275 0.0
H154 H 0.95967 0.48475 0.62791 0.0
H155 H 0.19258 0.48383 0.45574 0.0
H156 H 0.97176 0.33085 0.59908 0.0
H157 H 0.96349 0.32824 0.39832 0.0
H158 H 0.88454 0.30242 0.40944 0.0
H159 H 0.89159 0.30509 0.61033 0.0
Gd160 Gd 0.55751 0.90769 0.02786 0.0
Gd161 Gd 0.54429 0.87443 0.02945 0.0
C162 C 0.30614 0.89126 0.03434 0.0
C163 C 0.54347 0.93699 0.02063 0.0
C164 C 0.53325 0.95386 0.01897 0.0
C165 C 0.48037 0.96176 0.07178 0.0
C166 C 0.58379 0.96231 0.96719 0.0
C167 C 0.53469 0.98616 0.0227 0.0
C168 C 0.58414 0.97828 0.96895 0.0
C169 C 0.48082 0.97767 0.07355 0.0
C170 C 0.57044 0.89491 0.14276 0.0
C171 C 0.80099 0.89096 0.0188 0.0
C172 C 0.55779 0.84543 0.05255 0.0
C173 C 0.62621 0.83114 0.04091 0.0
C174 C 0.61067 0.82179 0.98905 0.0
C175 C 0.69554 0.8257 0.08606 0.0
C176 C 0.72593 0.80159 0.02982 0.0
C177 C 0.74514 0.81115 0.08045 0.0
C178 C 0.66037 0.80725 0.98343 0.0
C179 C 0.52866 0.88629 0.91312 0.0
O180 O 0.37015 0.90274 0.00979 0.0
O181 O 0.35709 0.87974 0.05936 0.0
O182 O 0.49756 0.92914 0.06893 0.0
O183 O 0.59333 0.92878 0.97414 0.0
O184 O 0.63738 0.90571 0.11898 0.0
O185 O 0.49956 0.89123 0.10456 0.0
O186 O 0.73864 0.87842 0.02987 0.0
O187 O 0.75016 0.90401 0.00913 0.0
O188 O 0.50592 0.85106 0.00661 0.0
O189 O 0.59684 0.85598 0.08794 0.0
O190 O 0.47312 0.87447 0.9365 0.0
O191 O 0.59832 0.89085 0.95102 0.0
H192 H 0.4404 0.95564 0.11252 0.0
H193 H 0.62564 0.9566 0.92588 0.0
H194 H 0.62611 0.98447 0.9289 0.0
H195 H 0.43929 0.98334 0.11503 0.0
H196 H 0.55664 0.82546 0.95374 0.0
H197 H 0.7086 0.8325 0.12692 0.0
H198 H 0.79723 0.8073 0.11634 0.0
H199 H 0.64361 0.8002 0.94389 0.0
Gd200 Gd 0.53516 0.16466 0.02153 0.0
Gd201 Gd 0.52105 0.13131 0.02307 0.0
C202 C 0.27804 0.14802 0.03472 0.0
C203 C 0.52464 0.1937 0.99861 0.0
C204 C 0.45531 0.20797 0.00517 0.0
C205 C 0.42547 0.2149 0.06409 0.0
C206 C 0.43184 0.21584 0.95089 0.0
C207 C 0.35798 0.23766 0.01375 0.0
C208 C 0.38337 0.23046 0.95509 0.0
C209 C 0.377 0.22953 0.06829 0.0
C210 C 0.55218 0.15263 0.13694 0.0
C211 C 0.77307 0.14755 0.01901 0.0
C212 C 0.5352 0.10202 0.0306 0.0
C213 C 0.54502 0.08516 0.03302 0.0
C214 C 0.59701 0.07706 0.98055 0.0
C215 C 0.49613 0.07691 0.08576 0.0
C216 C 0.54856 0.05285 0.03279 0.0
C217 C 0.49778 0.06096 0.08564 0.0
C218 C 0.59855 0.06113 0.9804 0.0
C219 C 0.50664 0.14421 0.90864 0.0
O220 O 0.33937 0.16061 0.02144 0.0
O221 O 0.33017 0.13512 0.0448 0.0
O222 O 0.56239 0.18799 0.04883 0.0
O223 O 0.49677 0.18323 0.95942 0.0
O224 O 0.61044 0.16426 0.11376 0.0
O225 O 0.48137 0.14822 0.0995 0.0
O226 O 0.70712 0.13611 0.04203 0.0
O227 O 0.72455 0.15942 0.99485 0.0
O228 O 0.58027 0.1098 0.98187 0.0
O229 O 0.48558 0.11029 0.07692 0.0
O230 O 0.43956 0.13343 0.93256 0.0
O231 O 0.57855 0.14778 0.94646 0.0
H232 H 0.44304 0.20926 0.10694 0.0
H233 H 0.45456 0.21088 0.90481 0.0
H234 H 0.36733 0.23621 0.91221 0.0
H235 H 0.35846 0.23472 0.11422 0.0
H236 H 0.63503 0.08302 0.93896 0.0
H237 H 0.45437 0.08278 0.1267 0.0
H238 H 0.4565 0.05496 0.12637 0.0
H239 H 0.63888 0.05528 0.93907 0.0
Gd240 Gd 0.54711 0.16487 0.52306 0.0
Gd241 Gd 0.55885 0.13159 0.52176 0.0
C242 C 0.80311 0.14818 0.51039 0.0
C243 C 0.55826 0.19391 0.54622 0.0
C244 C 0.62654 0.20831 0.53857 0.0
C245 C 0.65005 0.21546 0.47967 0.0
C246 C 0.65496 0.21608 0.59226 0.0
C247 C 0.72424 0.23805 0.52892 0.0
C248 C 0.70321 0.23074 0.58755 0.0
C249 C 0.69819 0.23014 0.47497 0.0
C250 C 0.53121 0.15294 0.4072 0.0
C251 C 0.30834 0.14777 0.52538 0.0
C252 C 0.5441 0.10227 0.51545 0.0
C253 C 0.53357 0.0854 0.51351 0.0
C254 C 0.47235 0.07751 0.56405 0.0
C255 C 0.59232 0.07693 0.46405 0.0
C256 C 0.5318 0.05308 0.51679 0.0
C257 C 0.59162 0.06097 0.46571 0.0
C258 C 0.47155 0.06158 0.56568 0.0
C259 C 0.57164 0.14451 0.6366 0.0
O260 O 0.74277 0.16083 0.52313 0.0
O261 O 0.74987 0.1353 0.50052 0.0
O262 O 0.51691 0.18817 0.49695 0.0
O263 O 0.58971 0.18347 0.58434 0.0
O264 O 0.47329 0.16455 0.43053 0.0
O265 O 0.60068 0.14841 0.44502 0.0
O266 O 0.37379 0.13639 0.50176 0.0
O267 O 0.35752 0.15959 0.54985 0.0
O268 O 0.49598 0.1102 0.56297 0.0
O269 O 0.5964 0.1104 0.4694 0.0
O270 O 0.63918 0.13382 0.61272 0.0
O271 O 0.50116 0.1481 0.59817 0.0
H272 H 0.62822 0.20992 0.43732 0.0
H273 H 0.63577 0.21103 0.63841 0.0
H274 H 0.71981 0.23657 0.63024 0.0
H275 H 0.71367 0.23541 0.42906 0.0
H276 H 0.42659 0.08364 0.60314 0.0
H277 H 0.64153 0.08263 0.42481 0.0
H278 H 0.6409 0.05483 0.42781 0.0
H279 H 0.42402 0.0559 0.60552 0.0
Gd280 Gd 0.52281 0.90822 0.52992 0.0
Gd281 Gd 0.53182 0.87294 0.52157 0.0
C282 C 0.77173 0.89077 0.52847 0.0
C283 C 0.53948 0.9374 0.5389 0.0
C284 C 0.55205 0.95425 0.54132 0.0
C285 C 0.61668 0.962 0.4915 0.0
C286 C 0.49035 0.96286 0.5894 0.0
C287 C 0.55089 0.98653 0.53521 0.0
C288 C 0.49016 0.97882 0.58649 0.0
C289 C 0.61633 0.9779 0.48858 0.0
C290 C 0.50508 0.89566 0.41483 0.0
C291 C 0.27962 0.89045 0.54041 0.0
C292 C 0.53108 0.84538 0.47812 0.0
C293 C 0.47857 0.83011 0.49013 0.0
C294 C 0.44885 0.82445 0.55126 0.0
C295 C 0.46292 0.82072 0.43872 0.0
C296 C 0.38958 0.80014 0.50884 0.0
C297 C 0.41935 0.80593 0.44787 0.0
C298 C 0.40512 0.80959 0.56049 0.0
C299 C 0.51897 0.88103 0.64539 0.0
O300 O 0.70952 0.90291 0.54783 0.0
O301 O 0.7221 0.87875 0.50547 0.0
O302 O 0.59589 0.92946 0.49358 0.0
O303 O 0.47798 0.92929 0.58224 0.0
O304 O 0.44314 0.90691 0.43833 0.0
O305 O 0.57359 0.89154 0.45343 0.0
O306 O 0.33995 0.87821 0.52091 0.0
O307 O 0.33201 0.90313 0.55561 0.0
O308 O 0.60405 0.85023 0.51644 0.0
O309 O 0.46356 0.85614 0.46051 0.0
O310 O 0.52208 0.86717 0.62491 0.0
O311 O 0.51909 0.88984 0.59891 0.0
H312 H 0.66529 0.95578 0.4536 0.0
H313 H 0.43915 0.95727 0.62824 0.0
H314 H 0.43917 0.98512 0.62333 0.0
H315 H 0.66649 0.98346 0.44928 0.0
H316 H 0.4603 0.83145 0.59178 0.0
H317 H 0.48627 0.82476 0.39116 0.0
H318 H 0.41125 0.79889 0.40702 0.0
H319 H 0.38295 0.80551 0.60805 0.0
C320 C 0.4909 0.37892 0.0321 0.0
C321 C 0.43293 0.39166 0.01059 0.0
C322 C 0.61218 0.37892 0.03493 0.0
C323 C 0.68205 0.39166 0.01643 0.0
H324 H 0.44218 0.36883 0.04771 0.0
H325 H 0.65112 0.36882 0.05227 0.0
S326 S 0.57514 0.42789 0.95461 0.0
N327 N 0.45688 0.41735 0.96905 0.0
N328 N 0.68313 0.41735 0.97431 0.0
C329 C 0.62556 0.40443 0.99401 0.0
C330 C 0.50193 0.40443 0.99112 0.0
C331 C 0.46766 0.63502 0.04457 0.0
C332 C 0.40811 0.64849 0.03246 0.0
C333 C 0.58919 0.63486 0.04731 0.0
C334 C 0.65712 0.6482 0.03838 0.0
H335 H 0.42037 0.62439 0.05113 0.0
H336 H 0.63024 0.62412 0.0556 0.0
S337 S 0.54278 0.68681 0.01048 0.0
N338 N 0.4268 0.67573 0.01493 0.0
N339 N 0.65278 0.67551 0.02036 0.0
C340 C 0.59796 0.66183 0.02787 0.0
C341 C 0.47454 0.66196 0.02484 0.0
C342 C 0.63412 0.63438 0.50918 0.0
C343 C 0.69288 0.64688 0.53259 0.0
C344 C 0.51342 0.63471 0.50422 0.0
C345 C 0.44511 0.64762 0.52167 0.0
H346 H 0.6816 0.62415 0.49463 0.0
H347 H 0.47353 0.62468 0.48635 0.0
S348 S 0.55554 0.68355 0.58533 0.0
N349 N 0.67197 0.67267 0.57324 0.0
N350 N 0.44697 0.67332 0.56357 0.0
C351 C 0.50284 0.66025 0.54483 0.0
C352 C 0.62571 0.65987 0.55042 0.0
C353 C 0.60626 0.37893 0.51215 0.0
C354 C 0.66433 0.39165 0.53421 0.0
C355 C 0.48575 0.37917 0.50667 0.0
C356 C 0.41743 0.39211 0.52321 0.0
H357 H 0.65437 0.36871 0.49819 0.0
H358 H 0.44589 0.36906 0.48954 0.0
S359 S 0.52577 0.4285 0.58371 0.0
N360 N 0.64227 0.41762 0.57306 0.0
N361 N 0.41795 0.41805 0.56258 0.0
C362 C 0.47422 0.40489 0.54562 0.0
C363 C 0.5967 0.40466 0.55116 0.0
C364 C 0.99897 0.90359 0.0057 0.0
C365 C 0.9302 0.89056 0.02102 0.0
C366 C 0.11966 0.90373 0.01024 0.0
C367 C 0.17733 0.8909 0.03086 0.0
H368 H 0.95939 0.91385 0.99018 0.0
H369 H 0.16789 0.91406 0.99774 0.0
S370 S 1.03852 0.85373 0.07612 0.0
N371 N 0.93043 0.86435 0.05714 0.0
N372 N 0.15548 0.86463 0.06589 0.0
C373 C 0.10975 0.87776 0.04611 0.0
C374 C 0.98704 0.87758 0.0411 0.0
C375 C 0.09281 0.16011 0.00639 0.0
C376 C 0.14844 0.14805 0.03427 0.0
C377 C 0.97224 0.15981 1.00133 0.0
C378 C 0.90149 0.14747 0.02404 0.0
H379 H 0.143 0.16977 0.98718 0.0
H380 H 0.93449 0.16937 0.97913 0.0
S381 S 1.00271 0.11333 0.10425 0.0
N382 N 0.12157 0.12362 0.08712 0.0
N383 N 0.89681 0.12306 0.07759 0.0
C384 C 0.9558 0.13545 0.05297 0.0
C385 C 0.07843 0.13575 0.05809 0.0
C386 C 0.11148 0.16055 0.53811 0.0
C387 C 0.17981 0.14763 0.52097 0.0
C388 C 0.99088 0.16079 0.53314 0.0
C389 C 0.93277 0.14811 0.51099 0.0
H390 H 0.15129 0.17063 0.55555 0.0
H391 H 0.94272 0.17097 0.5477 0.0
S392 S 0.07141 0.11144 0.45878 0.0
N393 N 0.1794 0.12182 0.48012 0.0
N394 N 0.95475 0.12226 0.47059 0.0
C395 C 1.00039 0.13515 0.49313 0.0
C396 C 0.12301 0.13491 0.49817 0.0
C397 C 0.96186 0.90374 0.54642 0.0
C398 C 0.90067 0.89044 0.53313 0.0
C399 C 0.08318 0.90362 0.55003 0.0
C400 C 0.14927 0.89017 0.54078 0.0
H401 H 0.91607 0.91443 0.55332 0.0
H402 H 0.12559 0.91425 0.55921 0.0
S403 S 1.03038 0.85193 0.50925 0.0
N404 N 0.91609 0.86321 0.51379 0.0
N405 N 0.14157 0.86298 0.52073 0.0
C406 C 0.08853 0.87672 0.52894 0.0
C407 C 0.96536 0.87685 0.52507 0.0
C408 C 0.05449 0.52762 0.0672 0.0
C409 C 1.00269 0.53661 0.02356 0.0
C410 C 0.05619 0.5117 0.06288 0.0
C411 C 1.00656 0.50402 0.01459 0.0
H412 H 0.09557 0.53295 0.10474 0.0
H413 H 0.09794 0.50535 0.09739 0.0
S414 S 0.85369 0.52205 0.89055 0.0
N415 N 0.89606 0.5365 0.93185 0.0
N416 N 0.90013 0.50659 0.92353 0.0
C417 C 0.95407 0.51281 0.97072 0.0
C418 C 0.95194 0.52907 0.97524 0.0
C419 C 0.97289 0.5118 0.54772 0.0
C420 C 0.07837 0.50365 0.5402 0.0
C421 C 0.97071 0.52774 0.54153 0.0
C422 C 0.07399 0.53628 0.52832 0.0
H423 H 0.89087 0.50577 0.5568 0.0
H424 H 0.88717 0.53341 0.54692 0.0
S425 S 0.37364 0.52054 0.50674 0.0
N426 N 0.28924 0.50549 0.5211 0.0
N427 N 0.28512 0.53526 0.50871 0.0
C428 C 0.18019 0.5283 0.52203 0.0
C429 C 0.18235 0.51207 0.52802 0.0
C430 C 0.50975 1.0121 0.97591 0.0
C431 C 0.54014 1.00315 0.02606 0.0
C432 C 0.51288 0.02807 0.97848 0.0
C433 C 0.54675 0.03582 0.03126 0.0
H434 H 0.48154 1.00671 0.93464 0.0
H435 H 0.48689 0.03442 0.93904 0.0
S436 S 0.64537 1.01774 0.17263 0.0
N437 N 0.6123 1.0033 0.12853 0.0
N438 N 0.61818 0.03321 0.13326 0.0
C439 C 0.5793 0.02701 0.08126 0.0
C440 C 0.57607 1.01074 0.07867 0.0
C441 C 0.55741 0.02881 0.57652 0.0
C442 C 0.53499 0.03607 0.52038 0.0
C443 C 0.56184 1.01288 0.58108 0.0
C444 C 0.54444 1.00347 0.52965 0.0
H445 H 0.57338 0.03553 0.61715 0.0
H446 H 0.58084 1.00788 0.62501 0.0
S447 S 0.47213 1.01662 0.37383 0.0
N448 N 0.48796 0.03246 0.41348 0.0
N449 N 0.49662 1.00263 0.4219 0.0
C450 C 0.52002 1.01056 0.47358 0.0
C451 C 0.51532 0.02678 0.46897 0.0
C452 C 0.18103 0.27284 0.06879 0.0
C453 C 0.23391 0.28462 0.03103 0.0
C454 C 0.22071 0.25776 0.06257 0.0
C455 C 0.31501 0.25374 0.01821 0.0
H456 H 0.10764 0.27529 0.10335 0.0
H457 H 0.17659 0.24914 0.09258 0.0
S458 S 0.48939 0.2804 0.91085 0.0
N459 N 0.38922 0.29125 0.94949 0.0
N460 N 0.46369 0.26301 0.93781 0.0
C461 C 0.3691 0.26541 0.98033 0.0
C462 C 0.32866 0.28078 0.98669 0.0
C463 C 0.82717 0.77985 0.96922 0.0
C464 C 0.77063 0.78559 0.02607 0.0
C465 C 0.86666 0.76474 0.96408 0.0
C466 C 0.85122 0.75465 0.0155 0.0
H467 H 0.84176 0.78714 0.92834 0.0
H468 H 0.91067 0.76097 0.91945 0.0
S469 S 0.70032 0.76361 0.1735 0.0
N470 N 0.6962 0.77968 0.13406 0.0
N471 N 0.77 0.75138 0.12438 0.0
C472 C 0.79397 0.76021 0.07247 0.0
C473 C 0.75386 0.77561 0.07774 0.0
C474 C 0.35507 0.75913 0.56778 0.0
C475 C 0.26945 0.75307 0.53272 0.0
C476 C 0.39222 0.77435 0.56054 0.0
C477 C 0.34505 0.78419 0.51809 0.0
H478 H 0.39501 0.75197 0.60042 0.0
H479 H 0.4601 0.77836 0.58756 0.0
S480 S 0.1085 0.77449 0.42081 0.0
N481 N 0.13224 0.75852 0.45763 0.0
N482 N 0.20112 0.78701 0.44436 0.0
C483 C 0.25705 0.77838 0.48413 0.0
C484 C 0.2196 0.76289 0.49133 0.0
C485 C 0.75035 0.28016 0.48512 0.0
C486 C 0.84401 0.28532 0.51648 0.0
C487 C 0.71301 0.26492 0.48902 0.0
C488 C 0.76777 0.25413 0.52436 0.0
H489 H 0.70453 0.28803 0.45782 0.0
H490 H 0.63935 0.26162 0.46484 0.0
S491 S 1.02384 0.26139 0.61064 0.0
N492 N 0.99509 0.27809 0.58105 0.0
N493 N 0.92511 0.24956 0.58834 0.0
C494 C 0.86264 0.25907 0.55517 0.0
C495 C 0.90061 0.2746 0.55124 0.0
C496 C 0.95359 0.39479 0.24001 0.0
C497 C 0.0638 0.39326 0.20546 0.0
C498 C 0.94134 0.39527 0.3062 0.0
C499 C 1.03834 0.39384 0.34025 0.0
H500 H 0.8773 0.39655 0.21575 0.0
H501 H 0.85562 0.39722 0.3309 0.0
S502 S 0.34437 0.38825 0.27149 0.0
N503 N 0.2707 0.3896 0.20987 0.0
N504 N 0.24729 0.38977 0.33397 0.0
C505 C 0.14795 0.39137 0.30616 0.0
C506 C 0.16074 0.3913 0.23883 0.0
C507 C 0.92365 0.65454 0.2548 0.0
C508 C 1.02373 0.6526 0.21196 0.0
C509 C 0.9287 0.65375 0.32015 0.0
C510 C 1.03416 0.65108 0.34572 0.0
H511 H 0.84167 0.65743 0.23777 0.0
H512 H 0.8499 0.65601 0.35114 0.0
S513 S 0.32168 0.64524 0.2534 0.0
N514 N 0.23161 0.64769 0.19946 0.0
N515 N 0.24116 0.64619 0.3222 0.0
C516 C 0.13425 0.64847 0.30331 0.0
C517 C 0.12903 0.6493 0.23648 0.0
C518 C 0.95919 0.65062 0.80975 0.0
C519 C 1.03829 0.64312 0.84476 0.0
C520 C 0.96731 0.64933 0.74343 0.0
C521 C 0.05275 0.64012 0.71017 0.0
H522 H 0.88756 0.65697 0.83401 0.0
H523 H 0.90196 0.65476 0.71862 0.0
S524 S 0.28395 0.61884 0.77946 0.0
N525 N 0.20845 0.62697 0.84053 0.0
N526 N 0.22159 0.62413 0.7172 0.0
C527 C 0.13449 0.63306 0.74459 0.0
C528 C 0.12775 0.63465 0.81151 0.0
C529 C 0.17057 0.38133 0.73246 0.0
C530 C 0.07648 0.38768 0.70492 0.0
C531 C 0.17198 0.38079 0.79777 0.0
C532 C 0.08085 0.38689 0.83878 0.0
H533 H 0.24179 0.37599 0.70332 0.0
H534 H 0.24281 0.3749 0.81644 0.0
S535 S 0.8185 0.40605 0.79198 0.0
N536 N 0.89261 0.40115 0.72438 0.0
N537 N 0.89666 0.40038 0.84775 0.0
C538 C 0.98969 0.39423 0.81235 0.0
C539 C 0.98733 0.39462 0.74524 0.0
C540 C 0.44103 0.89376 0.2447 0.0
C541 C 0.5524 0.8922 0.21148 0.0
C542 C 0.42599 0.89417 0.31086 0.0
C543 C 0.52115 0.89259 0.34613 0.0
H544 H 0.36606 0.89559 0.21947 0.0
H545 H 0.33963 0.89622 0.33459 0.0
S546 S 0.82889 0.88667 0.28105 0.0
N547 N 0.75823 0.88821 0.21837 0.0
N548 N 0.72949 0.88826 0.34248 0.0
C549 C 0.6318 0.89003 0.31335 0.0
C550 C 0.6475 0.89005 0.24605 0.0
C551 C 0.43861 0.14997 0.24312 0.0
C552 C 0.54533 0.14904 0.20489 0.0
C553 C 0.43485 0.1503 0.30907 0.0
C554 C 0.53714 0.1493 0.33914 0.0
H555 H 0.35852 0.15154 0.22202 0.0
H556 H 0.35152 0.152 0.33678 0.0
S557 S 0.83695 0.14491 0.25972 0.0
N558 N 0.75474 0.14605 0.20149 0.0
N559 N 0.74703 0.146 0.32528 0.0
C560 C 0.64334 0.14721 0.30141 0.0
C561 C 0.64751 0.14728 0.23428 0.0
C562 C 0.63454 0.14703 0.8067 0.0
C563 C 0.52257 0.14713 0.84003 0.0
C564 C 0.64961 0.14685 0.74054 0.0
C565 C 0.55355 0.14725 0.70544 0.0
H566 H 0.71068 0.14615 0.83177 0.0
H567 H 0.73705 0.14593 0.71664 0.0
S568 S 0.24288 0.14913 0.77081 0.0
N569 N 0.31455 0.14849 0.83338 0.0
N570 N 0.34293 0.14886 0.70931 0.0
C571 C 0.44158 0.14835 0.73834 0.0
C572 C 0.42615 0.1481 0.8056 0.0
C573 C 0.60323 0.87493 0.74411 0.0
C574 C 0.53691 0.88494 0.71126 0.0
C575 C 0.60902 0.87643 0.80891 0.0
C576 C 0.54821 0.88796 0.84387 0.0
H577 H 0.64777 0.86543 0.71992 0.0
H578 H 0.65588 0.86792 0.83255 0.0
S579 S 0.36634 0.9176 0.78051 0.0
N580 N 0.41432 0.90736 0.71816 0.0
N581 N 0.42271 0.90996 0.8408 0.0
C582 C 0.48578 0.8985 0.81143 0.0
C583 C 0.48104 0.89709 0.74484 0.0
loop_
_geom_bond_atom_site_label_1
_geom_bond_atom_site_label_2
_geom_bond_distance
_geom_bond_site_symmetry_2
_ccdc_geom_bond_type
Gd0 C3 2.818 1_455 S
Gd0 O20 2.377 1_455 S
Gd0 O22 2.448 . S
Gd0 O23 2.506 1_454 S
Gd0 O24 2.435 . S
Gd0 O25 2.717 . S
Gd0 O27 2.395 . S
Gd0 O31 2.327 1_554 S
Gd1 C12 2.818 . S
Gd1 O21 2.395 1_455 S
Gd1 O25 2.327 . S
Gd1 O26 2.377 1_554 S
Gd1 O28 2.448 1_554 S
Gd1 O29 2.506 . S
Gd1 O30 2.435 1_554 S
Gd1 O31 2.717 1_554 S
C2 O20 1.240 . S
C2 O21 1.240 . S
C3 Gd0 2.818 1_655 S
C3 C4 1.510 . S
C3 O22 1.249 1_655 S
C3 O23 1.252 1_554 S
C4 C3 1.510 . S
C4 C5 1.404 . S
C4 C6 1.352 1_554 S
C5 C4 1.404 . S
C5 C9 1.389 . S
C5 H32 0.930 . S
C6 C4 1.352 1_556 S
C6 C8 1.374 . S
C6 H33 0.931 . S
C7 C8 1.359 . S
C7 C9 1.364 1_556 S
C8 C6 1.374 . S
C8 C7 1.359 . S
C8 H34 0.931 . S
C9 C5 1.389 . S
C9 C7 1.364 1_554 S
C9 H35 0.931 . S
C10 O24 1.256 . S
C10 O25 1.257 . S
C11 O26 1.240 1_554 S
C11 O27 1.240 . S
C12 Gd1 2.818 . S
C12 C13 1.510 . S
C12 O28 1.249 1_554 S
C12 O29 1.252 . S
C13 C12 1.510 . S
C13 C14 1.404 1_554 S
C13 C15 1.352 . S
C14 C13 1.404 1_556 S
C14 C18 1.389 . S
C14 H36 0.930 . S
C15 C13 1.352 . S
C15 C17 1.374 . S
C15 H37 0.931 . S
C16 C17 1.359 . S
C16 C18 1.364 1_554 S
C17 C15 1.374 . S
C17 C16 1.359 . S
C17 H38 0.931 . S
C18 C14 1.389 . S
C18 C16 1.364 1_556 S
C18 H39 0.931 . S
C19 O30 1.256 . S
C19 O31 1.257 . S
O20 Gd0 2.377 1_655 S
O20 C2 1.240 . S
O21 Gd1 2.395 1_655 S
O21 C2 1.240 . S
O22 Gd0 2.448 . S
O22 C3 1.249 1_455 S
O23 Gd0 2.506 1_656 S
O23 C3 1.252 1_556 S
O24 Gd0 2.435 . S
O24 C10 1.256 . S
O25 Gd0 2.717 . S
O25 Gd1 2.327 . S
O25 C10 1.257 . S
O26 Gd1 2.377 1_556 S
O26 C11 1.240 1_556 S
O27 Gd0 2.395 . S
O27 C11 1.240 . S
O28 Gd1 2.448 1_556 S
O28 C12 1.249 1_556 S
O29 Gd1 2.506 . S
O29 C12 1.252 . S
O30 Gd1 2.435 1_556 S
O30 C19 1.256 . S
O31 Gd0 2.327 1_556 S
O31 Gd1 2.717 1_556 S
O31 C19 1.257 . S
H32 C5 0.930 . S
H33 C6 0.931 . S
H34 C8 0.931 . S
H35 C9 0.931 . S
H36 C14 0.930 . S
H37 C15 0.931 . S
H38 C17 0.931 . S
H39 C18 0.931 . S
Gd40 C43 2.818 . S
Gd40 O60 2.377 . S
Gd40 O62 2.448 . S
Gd40 O63 2.506 1_554 S
Gd40 O64 2.435 . S
Gd40 O65 2.717 . S
Gd40 O67 2.395 1_655 S
Gd40 O71 2.327 1_554 S
Gd41 C52 2.818 1_655 S
Gd41 O61 2.395 . S
Gd41 O65 2.327 . S
Gd41 O66 2.377 1_654 S
Gd41 O68 2.448 1_554 S
Gd41 O69 2.506 1_655 S
Gd41 O70 2.435 1_554 S
Gd41 O71 2.717 1_554 S
C42 O60 1.240 . S
C42 O61 1.240 . S
C43 Gd40 2.818 . S
C43 C44 1.510 . S
C43 O62 1.249 . S
C43 O63 1.252 1_554 S
C44 C43 1.510 . S
C44 C45 1.404 . S
C44 C46 1.352 1_554 S
C45 C44 1.404 . S
C45 C49 1.389 . S
C45 H72 0.930 . S
C46 C44 1.352 1_556 S
C46 C48 1.374 . S
C46 H73 0.931 . S
C47 C48 1.368 . S
C47 C49 1.353 1_556 S
C48 C46 1.374 . S
C48 C47 1.368 . S
C48 H74 0.931 . S
C49 C45 1.389 . S
C49 C47 1.353 1_554 S
C49 H75 0.931 . S
C50 O64 1.256 . S
C50 O65 1.257 . S
C51 O66 1.240 1_554 S
C51 O67 1.240 . S
C52 Gd41 2.818 1_455 S
C52 C53 1.510 . S
C52 O68 1.249 1_454 S
C52 O69 1.252 . S
C53 C52 1.510 . S
C53 C54 1.404 1_554 S
C53 C55 1.352 . S
C54 C53 1.404 1_556 S
C54 C58 1.389 . S
C54 H76 0.930 . S
C55 C53 1.352 . S
C55 C57 1.374 . S
C55 H77 0.931 . S
C56 C57 1.359 . S
C56 C58 1.364 1_554 S
C57 C55 1.374 . S
C57 C56 1.359 . S
C57 H78 0.931 . S
C58 C54 1.389 . S
C58 C56 1.364 1_556 S
C58 H79 0.931 . S
C59 O70 1.256 . S
C59 O71 1.257 . S
O60 Gd40 2.377 . S
O60 C42 1.240 . S
O61 Gd41 2.395 . S
O61 C42 1.240 . S
O62 Gd40 2.448 . S
O62 C43 1.249 . S
O63 Gd40 2.506 1_556 S
O63 C43 1.252 1_556 S
O64 Gd40 2.435 . S
O64 C50 1.256 . S
O65 Gd40 2.717 . S
O65 Gd41 2.327 . S
O65 C50 1.257 . S
O66 Gd41 2.377 1_456 S
O66 C51 1.240 1_556 S
O67 Gd40 2.395 1_455 S
O67 C51 1.240 . S
O68 Gd41 2.448 1_556 S
O68 C52 1.249 1_656 S
O69 Gd41 2.506 1_455 S
O69 C52 1.252 . S
O70 Gd41 2.435 1_556 S
O70 C59 1.256 . S
O71 Gd40 2.327 1_556 S
O71 Gd41 2.717 1_556 S
O71 C59 1.257 . S
H72 C45 0.930 . S
H73 C46 0.931 . S
H74 C48 0.931 . S
H75 C49 0.931 . S
H76 C54 0.930 . S
H77 C55 0.931 . S
H78 C57 0.931 . S
H79 C58 0.931 . S
Gd80 C83 2.818 . S
Gd80 O100 2.377 . S
Gd80 O102 2.448 . S
Gd80 O103 2.506 . S
Gd80 O104 2.435 . S
Gd80 O105 2.717 . S
Gd80 O107 2.395 1_455 S
Gd80 O111 2.327 . S
Gd81 C92 2.818 1_455 S
Gd81 O101 2.395 . S
Gd81 O105 2.327 . S
Gd81 O106 2.377 1_455 S
Gd81 O108 2.448 . S
Gd81 O109 2.506 1_455 S
Gd81 O110 2.435 . S
Gd81 O111 2.717 . S
C82 O100 1.240 . S
C82 O101 1.240 . S
C83 Gd80 2.818 . S
C83 C84 1.510 . S
C83 O102 1.249 . S
C83 O103 1.252 . S
C84 C83 1.510 . S
C84 C85 1.404 . S
C84 C86 1.352 . S
C85 C84 1.404 . S
C85 C89 1.389 . S
C85 H112 0.930 . S
C86 C84 1.352 . S
C86 C88 1.374 . S
C86 H113 0.931 . S
C87 C88 1.359 . S
C87 C89 1.364 . S
C88 C86 1.374 . S
C88 C87 1.359 . S
C88 H114 0.931 . S
C89 C85 1.389 . S
C89 C87 1.364 . S
C89 H115 0.931 . S
C90 O104 1.256 . S
C90 O105 1.257 . S
C91 O106 1.240 . S
C91 O107 1.240 . S
C92 Gd81 2.818 1_655 S
C92 C93 1.510 . S
C92 O108 1.249 1_655 S
C92 O109 1.252 . S
C93 C92 1.510 . S
C93 C94 1.404 . S
C93 C95 1.352 . S
C94 C93 1.404 . S
C94 C98 1.389 . S
C94 H116 0.930 . S
C95 C93 1.352 . S
C95 C97 1.374 . S
C95 H117 0.931 . S
C96 C97 1.359 . S
C96 C98 1.364 . S
C97 C95 1.374 . S
C97 C96 1.359 . S
C97 H118 0.931 . S
C98 C94 1.389 . S
C98 C96 1.364 . S
C98 H119 0.931 . S
C99 O110 1.256 . S
C99 O111 1.257 . S
O100 Gd80 2.377 . S
O100 C82 1.240 . S
O101 Gd81 2.395 . S
O101 C82 1.240 . S
O102 Gd80 2.448 . S
O102 C83 1.249 . S
O103 Gd80 2.506 . S
O103 C83 1.252 . S
O104 Gd80 2.435 . S
O104 C90 1.256 . S
O105 Gd80 2.717 . S
O105 Gd81 2.327 . S
O105 C90 1.257 . S
O106 Gd81 2.377 1_655 S
O106 C91 1.240 . S
O107 Gd80 2.395 1_655 S
O107 C91 1.240 . S
O108 Gd81 2.448 . S
O108 C92 1.249 1_455 S
O109 Gd81 2.506 1_655 S
O109 C92 1.252 . S
O110 Gd81 2.435 . S
O110 C99 1.256 . S
O111 Gd80 2.327 . S
O111 Gd81 2.717 . S
O111 C99 1.257 . S
H112 C85 0.930 . S
H113 C86 0.931 . S
H114 C88 0.931 . S
H115 C89 0.931 . S
H116 C94 0.930 . S
H117 C95 0.931 . S
H118 C97 0.931 . S
H119 C98 0.931 . S
Gd120 C123 2.818 1_655 S
Gd120 O140 2.377 1_655 S
Gd120 O142 2.448 . S
Gd120 O143 2.506 1_655 S
Gd120 O144 2.435 . S
Gd120 O145 2.717 . S
Gd120 O147 2.395 . S
Gd120 O151 2.327 . S
Gd121 C132 2.818 . S
Gd121 O141 2.395 1_655 S
Gd121 O145 2.327 . S
Gd121 O146 2.377 . S
Gd121 O148 2.448 . S
Gd121 O149 2.506 . S
Gd121 O150 2.435 . S
Gd121 O151 2.717 . S
C122 O140 1.240 . S
C122 O141 1.240 . S
C123 Gd120 2.818 1_455 S
C123 C124 1.510 . S
C123 O142 1.249 1_455 S
C123 O143 1.252 . S
C124 C123 1.510 . S
C124 C125 1.404 . S
C124 C126 1.352 . S
C125 C124 1.404 . S
C125 C129 1.389 . S
C125 H152 0.930 . S
C126 C124 1.352 . S
C126 C128 1.374 . S
C126 H153 0.931 . S
C127 C128 1.359 . S
C127 C129 1.364 . S
C128 C126 1.374 . S
C128 C127 1.359 . S
C128 H154 0.931 . S
C129 C125 1.389 . S
C129 C127 1.364 . S
C129 H155 0.931 . S
C130 O144 1.256 . S
C130 O145 1.257 . S
C131 O146 1.240 . S
C131 O147 1.240 . S
C132 Gd121 2.818 . S
C132 C133 1.510 . S
C132 O148 1.249 . S
C132 O149 1.252 . S
C133 C132 1.510 . S
C133 C134 1.404 . S
C133 C135 1.352 . S
C134 C133 1.404 . S
C134 C138 1.389 . S
C134 H156 0.930 . S
C135 C133 1.352 . S
C135 C137 1.374 . S
C135 H157 0.931 . S
C136 C137 1.359 . S
C136 C138 1.364 . S
C137 C135 1.374 . S
C137 C136 1.359 . S
C137 H158 0.931 . S
C138 C134 1.389 . S
C138 C136 1.364 . S
C138 H159 0.931 . S
C139 O150 1.256 . S
C139 O151 1.257 . S
O140 Gd120 2.377 1_455 S
O140 C122 1.240 . S
O141 Gd121 2.395 1_455 S
O141 C122 1.240 . S
O142 Gd120 2.448 . S
O142 C123 1.249 1_655 S
O143 Gd120 2.506 1_455 S
O143 C123 1.252 . S
O144 Gd120 2.435 . S
O144 C130 1.256 . S
O145 Gd120 2.717 . S
O145 Gd121 2.327 . S
O145 C130 1.257 . S
O146 Gd121 2.377 . S
O146 C131 1.240 . S
O147 Gd120 2.395 . S
O147 C131 1.240 . S
O148 Gd121 2.448 . S
O148 C132 1.249 . S
O149 Gd121 2.506 . S
O149 C132 1.252 . S
O150 Gd121 2.435 . S
O150 C139 1.256 . S
O151 Gd120 2.327 . S
O151 Gd121 2.717 . S
O151 C139 1.257 . S
H152 C125 0.930 . S
H153 C126 0.931 . S
H154 C128 0.931 . S
H155 C129 0.931 . S
H156 C134 0.930 . S
H157 C135 0.931 . S
H158 C137 0.931 . S
H159 C138 0.931 . S
Gd160 C163 2.818 . S
Gd160 O180 2.377 . S
Gd160 O182 2.448 . S
Gd160 O183 2.506 1_554 S
Gd160 O184 2.435 . S
Gd160 O185 2.717 . S
Gd160 O187 2.395 . S
Gd160 O191 2.327 1_554 S
Gd161 C172 2.818 . S
Gd161 O181 2.395 . S
Gd161 O185 2.327 . S
Gd161 O186 2.377 1_554 S
Gd161 O188 2.448 1_554 S
Gd161 O189 2.506 . S
Gd161 O190 2.435 1_554 S
Gd161 O191 2.717 1_554 S
C162 O180 1.240 . S
C162 O181 1.240 . S
C163 Gd160 2.818 . S
C163 C164 1.510 . S
C163 O182 1.249 . S
C163 O183 1.252 1_554 S
C164 C163 1.510 . S
C164 C165 1.404 . S
C164 C166 1.352 1_554 S
C165 C164 1.404 . S
C165 C169 1.389 . S
C165 H192 0.930 . S
C166 C164 1.352 1_556 S
C166 C168 1.374 . S
C166 H193 0.931 . S
C167 C168 1.359 . S
C167 C169 1.364 1_556 S
C168 C166 1.374 . S
C168 C167 1.359 . S
C168 H194 0.931 . S
C169 C165 1.389 . S
C169 C167 1.364 1_554 S
C169 H195 0.931 . S
C170 O184 1.256 . S
C170 O185 1.257 . S
C171 O186 1.240 1_554 S
C171 O187 1.240 . S
C172 Gd161 2.818 . S
C172 C173 1.510 . S
C172 O188 1.249 1_554 S
C172 O189 1.252 . S
C173 C172 1.510 . S
C173 C174 1.404 1_554 S
C173 C175 1.352 . S
C174 C173 1.404 1_556 S
C174 C178 1.389 . S
C174 H196 0.930 . S
C175 C173 1.352 . S
C175 C177 1.374 . S
C175 H197 0.931 . S
C176 C177 1.359 . S
C176 C178 1.364 1_554 S
C177 C175 1.374 . S
C177 C176 1.359 . S
C177 H198 0.931 . S
C178 C174 1.389 . S
C178 C176 1.364 1_556 S
C178 H199 0.931 . S
C179 O190 1.256 . S
C179 O191 1.257 . S
O180 Gd160 2.377 . S
O180 C162 1.240 . S
O181 Gd161 2.395 . S
O181 C162 1.240 . S
O182 Gd160 2.448 . S
O182 C163 1.249 . S
O183 Gd160 2.506 1_556 S
O183 C163 1.252 1_556 S
O184 Gd160 2.435 . S
O184 C170 1.256 . S
O185 Gd160 2.717 . S
O185 Gd161 2.327 . S
O185 C170 1.257 . S
O186 Gd161 2.377 1_556 S
O186 C171 1.240 1_556 S
O187 Gd160 2.395 . S
O187 C171 1.240 . S
O188 Gd161 2.448 1_556 S
O188 C172 1.249 1_556 S
O189 Gd161 2.506 . S
O189 C172 1.252 . S
O190 Gd161 2.435 1_556 S
O190 C179 1.256 . S
O191 Gd160 2.327 1_556 S
O191 Gd161 2.717 1_556 S
O191 C179 1.257 . S
H192 C165 0.930 . S
H193 C166 0.931 . S
H194 C168 0.931 . S
H195 C169 0.931 . S
H196 C174 0.930 . S
H197 C175 0.931 . S
H198 C177 0.931 . S
H199 C178 0.931 . S
Gd200 C203 2.818 . S
Gd200 O220 2.377 . S
Gd200 O222 2.448 . S
Gd200 O223 2.506 1_554 S
Gd200 O224 2.435 . S
Gd200 O225 2.717 . S
Gd200 O227 2.395 . S
Gd200 O231 2.327 1_554 S
Gd201 C212 2.818 . S
Gd201 O221 2.395 . S
Gd201 O225 2.327 . S
Gd201 O226 2.377 1_554 S
Gd201 O228 2.448 1_554 S
Gd201 O229 2.506 . S
Gd201 O230 2.435 1_554 S
Gd201 O231 2.717 1_554 S
C202 O220 1.240 . S
C202 O221 1.240 . S
C203 Gd200 2.818 . S
C203 C204 1.510 . S
C203 O222 1.249 . S
C203 O223 1.252 1_554 S
C204 C203 1.510 . S
C204 C205 1.404 . S
C204 C206 1.352 1_554 S
C205 C204 1.404 . S
C205 C209 1.389 . S
C205 H232 0.930 . S
C206 C204 1.352 1_556 S
C206 C208 1.374 . S
C206 H233 0.931 . S
C207 C208 1.365 . S
C207 C209 1.356 1_556 S
C208 C206 1.374 . S
C208 C207 1.365 . S
C208 H234 0.931 . S
C209 C205 1.389 . S
C209 C207 1.356 1_554 S
C209 H235 0.931 . S
C210 O224 1.256 . S
C210 O225 1.257 . S
C211 O226 1.240 1_554 S
C211 O227 1.240 . S
C212 Gd201 2.818 . S
C212 C213 1.510 . S
C212 O228 1.249 1_554 S
C212 O229 1.252 . S
C213 C212 1.510 . S
C213 C214 1.404 1_554 S
C213 C215 1.352 . S
C214 C213 1.404 1_556 S
C214 C218 1.389 . S
C214 H236 0.930 . S
C215 C213 1.352 . S
C215 C217 1.374 . S
C215 H237 0.931 . S
C216 C217 1.359 . S
C216 C218 1.364 1_554 S
C217 C215 1.374 . S
C217 C216 1.359 . S
C217 H238 0.931 . S
C218 C214 1.389 . S
C218 C216 1.364 1_556 S
C218 H239 0.931 . S
C219 O230 1.256 . S
C219 O231 1.257 . S
O220 Gd200 2.377 . S
O220 C202 1.240 . S
O221 Gd201 2.395 . S
O221 C202 1.240 . S
O222 Gd200 2.448 . S
O222 C203 1.249 . S
O223 Gd200 2.506 1_556 S
O223 C203 1.252 1_556 S
O224 Gd200 2.435 . S
O224 C210 1.256 . S
O225 Gd200 2.717 . S
O225 Gd201 2.327 . S
O225 C210 1.257 . S
O226 Gd201 2.377 1_556 S
O226 C211 1.240 1_556 S
O227 Gd200 2.395 . S
O227 C211 1.240 . S
O228 Gd201 2.448 1_556 S
O228 C212 1.249 1_556 S
O229 Gd201 2.506 . S
O229 C212 1.252 . S
O230 Gd201 2.435 1_556 S
O230 C219 1.256 . S
O231 Gd200 2.327 1_556 S
O231 Gd201 2.717 1_556 S
O231 C219 1.257 . S
H232 C205 0.930 . S
H233 C206 0.931 . S
H234 C208 0.931 . S
H235 C209 0.931 . S
H236 C214 0.930 . S
H237 C215 0.931 . S
H238 C217 0.931 . S
H239 C218 0.931 . S
Gd240 C243 2.818 . S
Gd240 O260 2.377 . S
Gd240 O262 2.448 . S
Gd240 O263 2.506 . S
Gd240 O264 2.435 . S
Gd240 O265 2.717 . S
Gd240 O267 2.395 . S
Gd240 O271 2.327 . S
Gd241 C252 2.818 . S
Gd241 O261 2.395 . S
Gd241 O265 2.327 . S
Gd241 O266 2.377 . S
Gd241 O268 2.448 . S
Gd241 O269 2.506 . S
Gd241 O270 2.435 . S
Gd241 O271 2.717 . S
C242 O260 1.240 . S
C242 O261 1.240 . S
C243 Gd240 2.818 . S
C243 C244 1.510 . S
C243 O262 1.249 . S
C243 O263 1.252 . S
C244 C243 1.510 . S
C244 C245 1.404 . S
C244 C246 1.352 . S
C245 C244 1.404 . S
C245 C249 1.389 . S
C245 H272 0.930 . S
C246 C244 1.352 . S
C246 C248 1.374 . S
C246 H273 0.931 . S
C247 C248 1.359 . S
C247 C249 1.364 . S
C248 C246 1.374 . S
C248 C247 1.359 . S
C248 H274 0.931 . S
C249 C245 1.389 . S
C249 C247 1.364 . S
C249 H275 0.931 . S
C250 O264 1.256 . S
C250 O265 1.257 . S
C251 O266 1.240 . S
C251 O267 1.240 . S
C252 Gd241 2.818 . S
C252 C253 1.510 . S
C252 O268 1.249 . S
C252 O269 1.252 . S
C253 C252 1.510 . S
C253 C254 1.404 . S
C253 C255 1.352 . S
C254 C253 1.404 . S
C254 C258 1.389 . S
C254 H276 0.930 . S
C255 C253 1.352 . S
C255 C257 1.374 . S
C255 H277 0.931 . S
C256 C257 1.359 . S
C256 C258 1.364 . S
C257 C255 1.374 . S
C257 C256 1.359 . S
C257 H278 0.931 . S
C258 C254 1.389 . S
C258 C256 1.364 . S
C258 H279 0.931 . S
C259 O270 1.256 . S
C259 O271 1.257 . S
O260 Gd240 2.377 . S
O260 C242 1.240 . S
O261 Gd241 2.395 . S
O261 C242 1.240 . S
O262 Gd240 2.448 . S
O262 C243 1.249 . S
O263 Gd240 2.506 . S
O263 C243 1.252 . S
O264 Gd240 2.435 . S
O264 C250 1.256 . S
O265 Gd240 2.717 . S
O265 Gd241 2.327 . S
O265 C250 1.257 . S
O266 Gd241 2.377 . S
O266 C251 1.240 . S
O267 Gd240 2.395 . S
O267 C251 1.240 . S
O268 Gd241 2.448 . S
O268 C252 1.249 . S
O269 Gd241 2.506 . S
O269 C252 1.252 . S
O270 Gd241 2.435 . S
O270 C259 1.256 . S
O271 Gd240 2.327 . S
O271 Gd241 2.717 . S
O271 C259 1.257 . S
H272 C245 0.930 . S
H273 C246 0.931 . S
H274 C248 0.931 . S
H275 C249 0.931 . S
H276 C254 0.930 . S
H277 C255 0.931 . S
H278 C257 0.931 . S
H279 C258 0.931 . S
Gd280 C283 2.818 . S
Gd280 O300 2.377 . S
Gd280 O302 2.448 . S
Gd280 O303 2.506 . S
Gd280 O304 2.435 . S
Gd280 O305 2.717 . S
Gd280 O307 2.395 . S
Gd280 O311 2.327 . S
Gd281 C292 2.818 . S
Gd281 O301 2.395 . S
Gd281 O305 2.327 . S
Gd281 O306 2.377 . S
Gd281 O308 2.448 . S
Gd281 O309 2.506 . S
Gd281 O310 2.435 . S
Gd281 O311 2.717 . S
C282 O300 1.240 . S
C282 O301 1.240 . S
C283 Gd280 2.818 . S
C283 C284 1.510 . S
C283 O302 1.249 . S
C283 O303 1.252 . S
C284 C283 1.510 . S
C284 C285 1.404 . S
C284 C286 1.352 . S
C285 C284 1.404 . S
C285 C289 1.389 . S
C285 H312 0.930 . S
C286 C284 1.352 . S
C286 C288 1.374 . S
C286 H313 0.931 . S
C287 C288 1.359 . S
C287 C289 1.364 . S
C288 C286 1.374 . S
C288 C287 1.359 . S
C288 H314 0.931 . S
C289 C285 1.389 . S
C289 C287 1.364 . S
C289 H315 0.931 . S
C290 O304 1.256 . S
C290 O305 1.257 . S
C291 O306 1.240 . S
C291 O307 1.240 . S
C292 Gd281 2.818 . S
C292 C293 1.510 . S
C292 O308 1.249 . S
C292 O309 1.252 . S
C293 C292 1.510 . S
C293 C294 1.404 . S
C293 C295 1.352 . S
C294 C293 1.404 . S
C294 C298 1.389 . S
C294 H316 0.930 . S
C295 C293 1.352 . S
C295 C297 1.374 . S
C295 H317 0.931 . S
C296 C297 1.359 . S
C296 C298 1.364 . S
C297 C295 1.374 . S
C297 C296 1.359 . S
C297 H318 0.931 . S
C298 C294 1.389 . S
C298 C296 1.364 . S
C298 H319 0.931 . S
C299 O310 1.256 . S
C299 O311 1.257 . S
O300 Gd280 2.377 . S
O300 C282 1.240 . S
O301 Gd281 2.395 . S
O301 C282 1.240 . S
O302 Gd280 2.448 . S
O302 C283 1.249 . S
O303 Gd280 2.506 . S
O303 C283 1.252 . S
O304 Gd280 2.435 . S
O304 C290 1.256 . S
O305 Gd280 2.717 . S
O305 Gd281 2.327 . S
O305 C290 1.257 . S
O306 Gd281 2.377 . S
O306 C291 1.240 . S
O307 Gd280 2.395 . S
O307 C291 1.240 . S
O308 Gd281 2.448 . S
O308 C292 1.249 . S
O309 Gd281 2.506 . S
O309 C292 1.252 . S
O310 Gd281 2.435 . S
O310 C299 1.256 . S
O311 Gd280 2.327 . S
O311 Gd281 2.717 . S
O311 C299 1.257 . S
H312 C285 0.930 . S
H313 C286 0.931 . S
H314 C288 0.931 . S
H315 C289 0.931 . S
H316 C294 0.930 . S
H317 C295 0.931 . S
H318 C297 0.931 . S
H319 C298 0.931 . S
C320 C321 1.369 1_556 S
C320 C322 1.419 . S
C320 H324 0.930 . S
C321 C320 1.369 1_554 S
C321 C330 1.429 . S
C322 C320 1.419 . S
C322 C323 1.363 1_556 S
C322 H325 0.929 . S
C323 C322 1.363 1_554 S
C323 C329 1.428 . S
H324 C320 0.930 . S
H325 C322 0.929 . S
S326 N327 1.613 . S
S326 N328 1.610 . S
N327 S326 1.613 . S
N327 C330 1.350 . S
N328 S326 1.610 . S
N328 C329 1.351 . S
C329 C323 1.428 . S
C329 N328 1.351 . S
C329 C330 1.434 . S
C330 C321 1.429 . S
C330 N327 1.350 . S
C330 C329 1.434 . S
C331 C332 1.369 1_556 S
C331 C333 1.419 . S
C331 H335 0.930 . S
C332 C331 1.369 1_554 S
C332 C341 1.429 . S
C333 C331 1.419 . S
C333 C334 1.363 1_556 S
C333 H336 0.929 . S
C334 C333 1.363 1_554 S
C334 C340 1.428 . S
H335 C331 0.930 . S
H336 C333 0.929 . S
S337 N338 1.613 . S
S337 N339 1.610 . S
N338 S337 1.613 . S
N338 C341 1.350 . S
N339 S337 1.610 . S
N339 C340 1.351 . S
C340 C334 1.428 . S
C340 N339 1.351 . S
C340 C341 1.434 . S
C341 C332 1.429 . S
C341 N338 1.350 . S
C341 C340 1.434 . S
C342 C343 1.369 . S
C342 C344 1.419 . S
C342 H346 0.930 . S
C343 C342 1.369 . S
C343 C352 1.429 . S
C344 C342 1.419 . S
C344 C345 1.363 . S
C344 H347 0.929 . S
C345 C344 1.363 . S
C345 C351 1.428 . S
H346 C342 0.930 . S
H347 C344 0.929 . S
S348 N349 1.613 . S
S348 N350 1.610 . S
N349 S348 1.613 . S
N349 C352 1.350 . S
N350 S348 1.610 . S
N350 C351 1.351 . S
C351 C345 1.428 . S
C351 N350 1.351 . S
C351 C352 1.434 . S
C352 C343 1.429 . S
C352 N349 1.350 . S
C352 C351 1.434 . S
C353 C354 1.369 . S
C353 C355 1.419 . S
C353 H357 0.930 . S
C354 C353 1.369 . S
C354 C363 1.429 . S
C355 C353 1.419 . S
C355 C356 1.363 . S
C355 H358 0.929 . S
C356 C355 1.363 . S
C356 C362 1.428 . S
H357 C353 0.930 . S
H358 C355 0.929 . S
S359 N360 1.613 . S
S359 N361 1.610 . S
N360 S359 1.613 . S
N360 C363 1.350 . S
N361 S359 1.610 . S
N361 C362 1.351 . S
C362 C356 1.428 . S
C362 N361 1.351 . S
C362 C363 1.434 . S
C363 C354 1.429 . S
C363 N360 1.350 . S
C363 C362 1.434 . S
C364 C365 1.369 . S
C364 C366 1.419 1_655 S
C364 H368 0.930 . S
C365 C364 1.369 . S
C365 C374 1.429 1_655 S
C366 C364 1.419 1_455 S
C366 C367 1.363 . S
C366 H369 0.929 . S
C367 C366 1.363 . S
C367 C373 1.428 . S
H368 C364 0.930 . S
H369 C366 0.929 . S
S370 N371 1.613 . S
S370 N372 1.610 . S
N371 S370 1.613 . S
N371 C374 1.350 . S
N372 S370 1.610 . S
N372 C373 1.351 . S
C373 C367 1.428 . S
C373 N372 1.351 . S
C373 C374 1.434 . S
C374 C365 1.429 1_455 S
C374 N371 1.350 . S
C374 C373 1.434 . S
C375 C376 1.369 1_656 S
C375 C377 1.419 . S
C375 H379 0.930 1_655 S
C376 C375 1.369 1_454 S
C376 C385 1.429 . S
C377 C375 1.419 . S
C377 C378 1.363 1_556 S
C377 H380 0.929 . S
C378 C377 1.363 1_554 S
C378 C384 1.428 . S
H379 C375 0.930 1_455 S
H380 C377 0.929 . S
S381 N382 1.613 1_655 S
S381 N383 1.610 . S
N382 S381 1.613 1_455 S
N382 C385 1.350 . S
N383 S381 1.610 . S
N383 C384 1.351 . S
C384 C378 1.428 . S
C384 N383 1.351 . S
C384 C385 1.434 1_655 S
C385 C376 1.429 . S
C385 N382 1.350 . S
C385 C384 1.434 1_455 S
C386 C387 1.369 . S
C386 C388 1.419 . S
C386 H390 0.930 . S
C387 C386 1.369 . S
C387 C396 1.429 . S
C388 C386 1.419 . S
C388 C389 1.363 1_455 S
C388 H391 0.929 . S
C389 C388 1.363 1_655 S
C389 C395 1.428 . S
H390 C386 0.930 . S
H391 C388 0.929 . S
S392 N393 1.613 1_655 S
S392 N394 1.610 . S
N393 S392 1.613 1_455 S
N393 C396 1.350 . S
N394 S392 1.610 . S
N394 C395 1.351 . S
C395 C389 1.428 . S
C395 N394 1.351 . S
C395 C396 1.434 1_655 S
C396 C387 1.429 . S
C396 N393 1.350 . S
C396 C395 1.434 1_455 S
C397 C398 1.369 . S
C397 C399 1.419 1_655 S
C397 H401 0.930 . S
C398 C397 1.369 . S
C398 C407 1.429 . S
C399 C397 1.419 1_455 S
C399 C400 1.363 . S
C399 H402 0.929 . S
C400 C399 1.363 . S
C400 C406 1.428 1_455 S
H401 C397 0.930 . S
H402 C399 0.929 . S
S403 N404 1.613 . S
S403 N405 1.610 . S
N404 S403 1.613 . S
N404 C407 1.350 . S
N405 S403 1.610 . S
N405 C406 1.351 . S
C406 C400 1.428 1_655 S
C406 N405 1.351 . S
C406 C407 1.434 . S
C407 C398 1.429 . S
C407 N404 1.350 . S
C407 C406 1.434 . S
C408 C409 1.369 . S
C408 C410 1.419 . S
C408 H412 0.930 . S
C409 C408 1.369 . S
C409 C418 1.429 1_455 S
C410 C408 1.419 . S
C410 C411 1.363 1_455 S
C410 H413 0.929 . S
C411 C410 1.363 1_655 S
C411 C417 1.428 . S
H412 C408 0.930 . S
H413 C410 0.929 . S
S414 N415 1.613 . S
S414 N416 1.610 . S
N415 S414 1.613 . S
N415 C418 1.350 . S
N416 S414 1.610 . S
N416 C417 1.351 . S
C417 C411 1.428 . S
C417 N416 1.351 . S
C417 C418 1.434 . S
C418 C409 1.429 1_655 S
C418 N415 1.350 . S
C418 C417 1.434 . S
C419 C420 1.369 1_655 S
C419 C421 1.419 . S
C419 H423 0.930 . S
C420 C419 1.369 1_455 S
C420 C429 1.429 . S
C421 C419 1.419 . S
C421 C422 1.363 . S
C421 H424 0.929 . S
C422 C421 1.363 . S
C422 C428 1.428 1_655 S
H423 C419 0.930 . S
H424 C421 0.929 . S
S425 N426 1.613 . S
S425 N427 1.610 . S
N426 S425 1.613 . S
N426 C429 1.350 . S
N427 S425 1.610 . S
N427 C428 1.351 . S
C428 C422 1.428 1_455 S
C428 N427 1.351 . S
C428 C429 1.434 . S
C429 C420 1.429 . S
C429 N426 1.350 . S
C429 C428 1.434 . S
C430 C431 1.369 1_546 S
C430 C432 1.419 . S
C430 H434 0.930 . S
C431 C430 1.369 1_564 S
C431 C440 1.429 . S
C432 C430 1.419 . S
C432 C433 1.363 1_556 S
C432 H435 0.929 . S
C433 C432 1.363 1_554 S
C433 C439 1.428 1_545 S
H434 C430 0.930 . S
H435 C432 0.929 . S
S436 N437 1.613 . S
S436 N438 1.610 . S
N437 S436 1.613 . S
N437 C440 1.350 . S
N438 S436 1.610 . S
N438 C439 1.351 . S
C439 C433 1.428 1_565 S
C439 N438 1.351 . S
C439 C440 1.434 . S
C440 C431 1.429 . S
C440 N437 1.350 . S
C440 C439 1.434 . S
C441 C442 1.369 . S
C441 C443 1.364 1_545 S
C441 H445 0.930 . S
C442 C441 1.369 . S
C442 C451 1.440 . S
C443 C441 1.364 1_565 S
C443 C444 1.419 . S
C443 H446 0.934 . S
C444 C443 1.419 . S
C444 C450 1.428 . S
H445 C441 0.930 . S
H446 C443 0.934 . S
S447 N448 1.613 . S
S447 N449 1.610 . S
N448 S447 1.613 . S
N448 C451 1.348 1_565 S
N449 S447 1.610 . S
N449 C450 1.351 . S
C450 C444 1.428 . S
C450 N449 1.351 . S
C450 C451 1.422 1_565 S
C451 C442 1.440 . S
C451 N448 1.348 1_545 S
C451 C450 1.422 1_545 S
C452 C453 1.369 . S
C452 C454 1.419 . S
C452 H456 0.930 . S
C453 C452 1.369 . S
C453 C462 1.429 1_554 S
C454 C452 1.419 . S
C454 C455 1.363 . S
C454 H457 0.929 . S
C455 C454 1.363 . S
C455 C461 1.428 1_554 S
H456 C452 0.930 . S
H457 C454 0.929 . S
S458 N459 1.613 . S
S458 N460 1.610 . S
N459 S458 1.613 . S
N459 C462 1.350 . S
N460 S458 1.610 . S
N460 C461 1.351 . S
C461 C455 1.428 1_556 S
C461 N460 1.351 . S
C461 C462 1.434 . S
C462 C453 1.429 1_556 S
C462 N459 1.350 . S
C462 C461 1.434 . S
C463 C464 1.369 1_556 S
C463 C465 1.419 . S
C463 H467 0.930 . S
C464 C463 1.369 1_554 S
C464 C473 1.429 . S
C465 C463 1.419 . S
C465 C466 1.363 1_556 S
C465 H468 0.929 . S
C466 C465 1.363 1_554 S
C466 C472 1.428 . S
H467 C463 0.930 . S
H468 C465 0.929 . S
S469 N470 1.613 . S
S469 N471 1.610 . S
N470 S469 1.613 . S
N470 C473 1.350 . S
N471 S469 1.610 . S
N471 C472 1.351 . S
C472 C466 1.428 . S
C472 N471 1.351 . S
C472 C473 1.434 . S
C473 C464 1.429 . S
C473 N470 1.350 . S
C473 C472 1.434 . S
C474 C475 1.369 . S
C474 C476 1.419 . S
C474 H478 0.930 . S
C475 C474 1.369 . S
C475 C484 1.429 . S
C476 C474 1.419 . S
C476 C477 1.363 . S
C476 H479 0.929 . S
C477 C476 1.363 . S
C477 C483 1.428 . S
H478 C474 0.930 . S
H479 C476 0.929 . S
S480 N481 1.613 . S
S480 N482 1.610 . S
N481 S480 1.613 . S
N481 C484 1.350 . S
N482 S480 1.610 . S
N482 C483 1.351 . S
C483 C477 1.428 . S
C483 N482 1.351 . S
C483 C484 1.434 . S
C484 C475 1.429 . S
C484 N481 1.350 . S
C484 C483 1.434 . S
C485 C486 1.369 . S
C485 C487 1.419 . S
C485 H489 0.930 . S
C486 C485 1.369 . S
C486 C495 1.429 . S
C487 C485 1.419 . S
C487 C488 1.363 . S
C487 H490 0.929 . S
C488 C487 1.363 . S
C488 C494 1.428 . S
H489 C485 0.930 . S
H490 C487 0.929 . S
S491 N492 1.613 1_455 S
S491 N493 1.610 1_455 S
N492 S491 1.613 1_655 S
N492 C495 1.350 . S
N493 S491 1.610 1_655 S
N493 C494 1.351 . S
C494 C488 1.428 . S
C494 N493 1.351 . S
C494 C495 1.434 . S
C495 C486 1.429 . S
C495 N492 1.350 . S
C495 C494 1.434 . S
C496 C497 1.369 1_655 S
C496 C498 1.419 . S
C496 H500 0.930 . S
C497 C496 1.369 1_455 S
C497 C506 1.429 . S
C498 C496 1.419 . S
C498 C499 1.363 . S
C498 H501 0.929 . S
C499 C498 1.363 . S
C499 C505 1.428 1_655 S
H500 C496 0.930 . S
H501 C498 0.929 . S
S502 N503 1.613 . S
S502 N504 1.610 . S
N503 S502 1.613 . S
N503 C506 1.350 . S
N504 S502 1.610 . S
N504 C505 1.351 . S
C505 C499 1.428 1_455 S
C505 N504 1.351 . S
C505 C506 1.434 . S
C506 C497 1.429 . S
C506 N503 1.350 . S
C506 C505 1.434 . S
C507 C508 1.369 . S
C507 C509 1.419 1_655 S
C507 H511 0.930 . S
C508 C507 1.369 . S
C508 C517 1.429 1_655 S
C509 C507 1.419 1_455 S
C509 C510 1.363 . S
C509 H512 0.929 . S
C510 C509 1.363 . S
C510 C516 1.428 . S
H511 C507 0.930 . S
H512 C509 0.929 . S
S513 N514 1.613 . S
S513 N515 1.610 . S
N514 S513 1.613 . S
N514 C517 1.350 . S
N515 S513 1.610 . S
N515 C516 1.351 . S
C516 C510 1.428 . S
C516 N515 1.351 . S
C516 C517 1.434 . S
C517 C508 1.429 1_455 S
C517 N514 1.350 . S
C517 C516 1.434 . S
C518 C519 1.369 . S
C518 C520 1.419 . S
C518 H522 0.930 . S
C519 C518 1.369 . S
C519 C528 1.429 1_655 S
C520 C518 1.419 . S
C520 C521 1.363 1_655 S
C520 H523 0.929 . S
C521 C520 1.363 1_455 S
C521 C527 1.428 . S
H522 C518 0.930 . S
H523 C520 0.929 . S
S524 N525 1.613 . S
S524 N526 1.610 . S
N525 S524 1.613 . S
N525 C528 1.350 . S
N526 S524 1.610 . S
N526 C527 1.351 . S
C527 C521 1.428 . S
C527 N526 1.351 . S
C527 C528 1.434 . S
C528 C519 1.429 1_455 S
C528 N525 1.350 . S
C528 C527 1.434 . S
C529 C530 1.369 1_455 S
C529 C531 1.419 . S
C529 H533 0.930 . S
C530 C529 1.369 1_655 S
C530 C539 1.429 . S
C531 C529 1.419 . S
C531 C532 1.363 . S
C531 H534 0.929 . S
C532 C531 1.363 . S
C532 C538 1.428 1_455 S
H533 C529 0.930 . S
H534 C531 0.929 . S
S535 N536 1.613 . S
S535 N537 1.610 . S
N536 S535 1.613 . S
N536 C539 1.350 . S
N537 S535 1.610 . S
N537 C538 1.351 . S
C538 C532 1.428 1_655 S
C538 N537 1.351 . S
C538 C539 1.434 . S
C539 C530 1.429 . S
C539 N536 1.350 . S
C539 C538 1.434 . S
C540 C541 1.369 . S
C540 C542 1.419 . S
C540 H544 0.930 . S
C541 C540 1.369 . S
C541 C550 1.429 . S
C542 C540 1.419 . S
C542 C543 1.363 . S
C542 H545 0.929 . S
C543 C542 1.363 . S
C543 C549 1.428 . S
H544 C540 0.930 . S
H545 C542 0.929 . S
S546 N547 1.613 . S
S546 N548 1.610 . S
N547 S546 1.613 . S
N547 C550 1.350 . S
N548 S546 1.610 . S
N548 C549 1.351 . S
C549 C543 1.428 . S
C549 N548 1.351 . S
C549 C550 1.434 . S
C550 C541 1.429 . S
C550 N547 1.350 . S
C550 C549 1.434 . S
C551 C552 1.369 . S
C551 C553 1.419 . S
C551 H555 0.930 . S
C552 C551 1.369 . S
C552 C561 1.429 . S
C553 C551 1.419 . S
C553 C554 1.363 . S
C553 H556 0.929 . S
C554 C553 1.363 . S
C554 C560 1.428 . S
H555 C551 0.930 . S
H556 C553 0.929 . S
S557 N558 1.613 . S
S557 N559 1.610 . S
N558 S557 1.613 . S
N558 C561 1.350 . S
N559 S557 1.610 . S
N559 C560 1.351 . S
C560 C554 1.428 . S
C560 N559 1.351 . S
C560 C561 1.434 . S
C561 C552 1.429 . S
C561 N558 1.350 . S
C561 C560 1.434 . S
C562 C563 1.369 . S
C562 C564 1.419 . S
C562 H566 0.930 . S
C563 C562 1.369 . S
C563 C572 1.429 . S
C564 C562 1.419 . S
C564 C565 1.363 . S
C564 H567 0.929 . S
C565 C564 1.363 . S
C565 C571 1.428 . S
H566 C562 0.930 . S
H567 C564 0.929 . S
S568 N569 1.613 . S
S568 N570 1.610 . S
N569 S568 1.613 . S
N569 C572 1.350 . S
N570 S568 1.610 . S
N570 C571 1.351 . S
C571 C565 1.428 . S
C571 N570 1.351 . S
C571 C572 1.434 . S
C572 C563 1.429 . S
C572 N569 1.350 . S
C572 C571 1.434 . S
C573 C574 1.369 . S
C573 C575 1.419 . S
C573 H577 0.930 . S
C574 C573 1.369 . S
C574 C583 1.429 . S
C575 C573 1.419 . S
C575 C576 1.363 . S
C575 H578 0.929 . S
C576 C575 1.363 . S
C576 C582 1.428 . S
H577 C573 0.930 . S
H578 C575 0.929 . S
S579 N580 1.613 . S
S579 N581 1.610 . S
N580 S579 1.613 . S
N580 C583 1.350 . S
N581 S579 1.610 . S
N581 C582 1.351 . S
C582 C576 1.428 . S
C582 N581 1.351 . S
C582 C583 1.434 . S
C583 C574 1.429 . S
C583 N580 1.350 . S
C583 C582 1.434 . S
C321 C11 2.284 . S
C323 C2 2.288 . S
C332 C51 2.285 . S
C334 C42 2.288 . S
C343 C91 2.288 . S
C345 C82 2.286 . S
C354 C131 2.284 . S
C356 C122 2.288 . S
C365 C171 2.290 . S
C367 C162 2.284 . S
C376 C202 2.283 . S
C378 C211 2.289 . S
C387 C251 2.290 . S
C389 C242 2.284 . S
C398 C282 2.287 . S
C400 C291 2.286 . S
C409 C56 2.938 . S
C411 C7 2.945 1_554 S
C420 C127 2.946 . S
C422 C96 2.938 . S
C431 C167 2.939 1_554 S
C433 C216 2.943 . S
C442 C256 2.945 . S
C444 C287 2.939 . S
C453 C16 2.064 . S
C455 C207 2.059 1_554 S
C464 C176 2.065 . S
C466 C47 2.058 1_554 S
C475 C87 2.058 . S
C477 C296 2.065 . S
C486 C136 2.058 . S
C488 C247 2.065 . S
C497 C10 1.477 . S
C499 C130 1.475 . S
C508 C50 1.605 . S
C510 C90 1.608 . S
C519 C59 1.469 . S
C521 C99 1.471 . S
C530 C139 1.615 . S
C532 C19 1.612 . S
C541 C170 1.477 . S
C543 C290 1.475 . S
C552 C210 1.611 . S
C554 C250 1.613 . S
C563 C219 1.471 . S
C565 C259 1.470 . S
C574 C299 1.614 . S
C576 C179 1.614 . S
