# Generated by pormake.
# Topology lhb, (8)-cn, num edge types: 1
# Building blocks:
#     Node 0, Type 0, BuildingBlock: EBIMEJ_clean_sbu_0, # of connection points: 8
#     Node 1, Type 0, BuildingBlock: EBIMEJ_clean_sbu_0, # of connection points: 8
#     Node 2, Type 0, BuildingBlock: EBIMEJ_clean_sbu_0, # of connection points: 8
#     Node 3, Type 0, BuildingBlock: EBIMEJ_clean_sbu_0, # of connection points: 8
#     Node 4, Type 0, BuildingBlock: EBIMEJ_clean_sbu_0, # of connection points: 8
#     Node 5, Type 0, BuildingBlock: EBIMEJ_clean_sbu_0, # of connection points: 8
#     Node 6, Type 0, BuildingBlock: EBIMEJ_clean_sbu_0, # of connection points: 8
#     Node 7, Type 0, BuildingBlock: EBIMEJ_clean_sbu_0, # of connection points: 8
#     Edge 8, Type (0, 0), BuildingBlock: UVAHIK_clean_linker_0, # of connection points: 2
#     Edge 9, Type (0, 0), BuildingBlock: UVAHIK_clean_linker_0, # of connection points: 2
#     Edge 10, Type (0, 0), BuildingBlock: UVAHIK_clean_linker_0, # of connection points: 2
#     Edge 11, Type (0, 0), BuildingBlock: UVAHIK_clean_linker_0, # of connection points: 2
#     Edge 12, Type (0, 0), BuildingBlock: UVAHIK_clean_linker_0, # of connection points: 2
#     Edge 13, Type (0, 0), BuildingBlock: UVAHIK_clean_linker_0, # of connection points: 2
#     Edge 14, Type (0, 0), BuildingBlock: UVAHIK_clean_linker_0, # of connection points: 2
#     Edge 15, Type (0, 0), BuildingBlock: UVAHIK_clean_linker_0, # of connection points: 2
#     Edge 16, Type (0, 0), BuildingBlock: UVAHIK_clean_linker_0, # of connection points: 2
#     Edge 17, Type (0, 0), BuildingBlock: UVAHIK_clean_linker_0, # of connection points: 2
#     Edge 18, Type (0, 0), BuildingBlock: UVAHIK_clean_linker_0, # of connection points: 2
#     Edge 19, Type (0, 0), BuildingBlock: UVAHIK_clean_linker_0, # of connection points: 2
#     Edge 20, Type (0, 0), BuildingBlock: UVAHIK_clean_linker_0, # of connection points: 2
#     Edge 21, Type (0, 0), BuildingBlock: UVAHIK_clean_linker_0, # of connection points: 2
#     Edge 22, Type (0, 0), BuildingBlock: UVAHIK_clean_linker_0, # of connection points: 2
#     Edge 23, Type (0, 0), BuildingBlock: UVAHIK_clean_linker_0, # of connection points: 2
#     Edge 24, Type (0, 0), BuildingBlock: UVAHIK_clean_linker_0, # of connection points: 2
#     Edge 25, Type (0, 0), BuildingBlock: UVAHIK_clean_linker_0, # of connection points: 2
#     Edge 26, Type (0, 0), BuildingBlock: UVAHIK_clean_linker_0, # of connection points: 2
#     Edge 27, Type (0, 0), BuildingBlock: UVAHIK_clean_linker_0, # of connection points: 2
#     Edge 28, Type (0, 0), BuildingBlock: UVAHIK_clean_linker_0, # of connection points: 2
#     Edge 29, Type (0, 0), BuildingBlock: UVAHIK_clean_linker_0, # of connection points: 2
#     Edge 30, Type (0, 0), BuildingBlock: UVAHIK_clean_linker_0, # of connection points: 2
#     Edge 31, Type (0, 0), BuildingBlock: UVAHIK_clean_linker_0, # of connection points: 2
#     Edge 32, Type (0, 0), BuildingBlock: UVAHIK_clean_linker_0, # of connection points: 2
#     Edge 33, Type (0, 0), BuildingBlock: UVAHIK_clean_linker_0, # of connection points: 2
#     Edge 34, Type (0, 0), BuildingBlock: UVAHIK_clean_linker_0, # of connection points: 2
#     Edge 35, Type (0, 0), BuildingBlock: UVAHIK_clean_linker_0, # of connection points: 2
#     Edge 36, Type (0, 0), BuildingBlock: UVAHIK_clean_linker_0, # of connection points: 2
#     Edge 37, Type (0, 0), BuildingBlock: UVAHIK_clean_linker_0, # of connection points: 2
#     Edge 38, Type (0, 0), BuildingBlock: UVAHIK_clean_linker_0, # of connection points: 2
#     Edge 39, Type (0, 0), BuildingBlock: UVAHIK_clean_linker_0, # of connection points: 2
# Relax obj value: 0.076
# Max RMSD: 0.177
# Mean RMSD: 0.177
data_MOF--net-lhb--node1-EBIMEJ_clean_sbu_0--edge1-UVAHIK_clean_linker_0
_symmetry_space_group_name_H-M    P1
_symmetry_Int_Tables_number       1
_symmetry_cell_setting            triclinic
loop_
_symmetry_equiv_pos_as_xyz
'x, y, z'
_cell_length_a     38.893307
_cell_length_b     19.883809
_cell_length_c     83.142991
_cell_angle_alpha  81.626345
_cell_angle_beta   89.9573
_cell_angle_gamma 90.047249
loop_
_atom_site_label
_atom_site_type_symbol
_atom_site_fract_x
_atom_site_fract_y
_atom_site_fract_z
_atom_type_partial_charge
Co0 Co 1.00024 0.94105 0.99134 0.0
Co1 Co 0.06584 -0.01052 1.01236 0.0
Co2 Co 0.99919 0.94632 0.02945 0.0
H3 H 0.00546 0.95979 1.01053 0.0
O4 O 0.01622 -0.00293 1.00743 0.0
H5 H 0.05773 -0.01374 0.0314 0.0
O6 O 0.04842 0.94781 0.03501 0.0
Co7 Co 0.05838 0.01559 0.04978 0.0
O8 O 0.1082 0.03279 0.04239 0.0
O9 O 0.115 -0.01028 0.01899 0.0
O10 O 0.02451 0.96474 0.06616 0.0
O11 O 0.9864 0.91035 0.05226 0.0
O12 O 0.99187 0.93392 0.96714 0.0
O13 O 0.9606 -0.00453 0.97896 0.0
O14 O 0.02992 0.08451 0.03559 0.0
O15 O 0.06315 0.08832 1.01385 0.0
C16 C 0.93758 0.90794 1.0121 0.0
C17 C 0.0695 -0.01503 0.97623 0.0
C18 C 0.07633 0.05687 0.07585 0.0
C19 C 0.0246 0.82825 1.01464 0.0
C20 C 0.12708 0.01724 0.03083 0.0
C21 C 0.99848 0.92556 0.0656 0.0
C22 C 0.96684 0.97411 0.96577 0.0
C23 C 0.0415 0.11601 0.02232 0.0
O24 O 0.95551 0.89769 0.99985 0.0
O25 O 0.94962 0.93929 0.02328 0.0
O26 O 0.08054 0.01091 0.98862 0.0
O27 O 0.04125 0.95224 0.97632 0.0
O28 O 0.04622 0.0593 0.07036 0.0
O29 O 0.09624 0.03098 0.06655 0.0
O30 O 0.0302 0.86372 1.00093 0.0
O31 O 0.00723 0.85098 0.02567 0.0
Co32 Co 0.22 0.25986 0.30047 0.0
Co33 Co 0.28154 0.19705 0.28024 0.0
Co34 Co 0.21471 0.23551 0.2628 0.0
H35 H 0.22206 0.23193 0.28193 0.0
O36 O 0.23205 0.19414 0.28546 0.0
H37 H 0.276 0.21136 0.26127 0.0
O38 O 0.26443 0.24765 0.25821 0.0
Co39 Co 0.28294 0.19484 0.24199 0.0
O40 O 0.32807 0.15461 0.2508 0.0
O41 O 0.33157 0.19448 0.27453 0.0
O42 O 0.24118 0.19836 0.22738 0.0
O43 O 0.20044 0.25607 0.23894 0.0
O44 O 0.23073 0.28226 0.32363 0.0
O45 O 0.18206 0.2995 0.3141 0.0
O46 O 0.25497 0.11343 0.25088 0.0
O47 O 0.27583 0.10146 0.27604 0.0
C48 C 0.1522 0.25781 0.28093 0.0
C49 C 0.28044 0.17182 0.31644 0.0
C50 C 0.31704 0.23345 0.21677 0.0
C51 C 0.23602 0.36287 0.27333 0.0
C52 C 0.34492 0.16475 0.26338 0.0
C53 C 0.21212 0.2286 0.22688 0.0
C54 C 0.20105 0.30319 0.32616 0.0
C55 C 0.26026 0.07784 0.26459 0.0
O56 O 0.17024 0.27389 0.29271 0.0
O57 O 0.16531 0.23154 0.26913 0.0
O58 O 0.29401 0.16085 0.30304 0.0
O59 O 0.25312 0.20751 0.31709 0.0
O60 O 0.3277 0.23601 0.23091 0.0
O61 O 0.28728 0.20928 0.21702 0.0
O62 O 0.24764 0.3313 0.28658 0.0
O63 O 0.21528 0.3344 0.26456 0.0
Co64 Co 0.72205 0.76694 0.29925 0.0
Co65 Co 0.78157 0.69588 0.27953 0.0
Co66 Co 0.71546 0.73923 0.26198 0.0
H67 H 0.72308 0.73659 0.28101 0.0
O68 O 0.73218 0.69818 0.28479 0.0
H69 H 0.77564 0.70784 0.26061 0.0
O70 O 0.7652 0.74525 0.25728 0.0
Co71 Co 0.78097 0.68709 0.24165 0.0
O72 O 0.82557 0.64426 0.25041 0.0
O73 O 0.83127 0.68781 0.2736 0.0
O74 O 0.74022 0.6979 0.22653 0.0
O75 O 0.70151 0.76023 0.23815 0.0
O76 O 0.71251 0.84514 0.31283 0.0
O77 O 0.7028 0.74559 0.32274 0.0
O78 O 0.75041 0.61114 0.25153 0.0
O79 O 0.77345 0.59994 0.27621 0.0
C80 C 0.65385 0.76866 0.28009 0.0
C81 C 0.78244 0.68066 0.31559 0.0
C82 C 0.81453 0.71834 0.21606 0.0
C83 C 0.74063 0.86543 0.27172 0.0
C84 C 0.84341 0.65552 0.2626 0.0
C85 C 0.71253 0.73251 0.22602 0.0
C86 C 0.70203 0.80648 0.32517 0.0
C87 C 0.75595 0.57648 0.26533 0.0
O88 O 0.6725 0.78437 0.29169 0.0
O89 O 0.66612 0.7409 0.26833 0.0
O90 O 0.79386 0.66196 0.3025 0.0
O91 O 0.75679 0.72089 0.31583 0.0
O92 O 0.79018 0.67647 0.21771 0.0
O93 O 0.82006 0.74225 0.229 0.0
O94 O 0.75171 0.83386 0.28507 0.0
O95 O 0.71881 0.83821 0.26325 0.0
Co96 Co 0.9996 0.44898 0.49173 0.0
Co97 Co 0.06869 0.48294 0.51291 0.0
Co98 Co 1.00229 0.44114 0.53042 0.0
H99 H 0.00732 0.45947 0.51141 0.0
O100 O 0.01896 0.49611 0.50884 0.0
H101 H 0.06222 0.47327 0.53217 0.0
O102 O 0.05202 0.43512 0.53519 0.0
Co103 Co 0.06565 0.49592 0.5512 0.0
O104 O 0.11517 0.51129 0.54331 0.0
O105 O 0.1184 0.47741 0.5187 0.0
O106 O 0.03134 0.44468 0.5674 0.0
O107 O 0.99019 0.40061 0.553 0.0
O108 O 0.99273 0.44731 0.46726 0.0
O109 O 0.96223 0.5098 0.47922 0.0
O110 O 0.03718 0.57008 0.53915 0.0
O111 O 0.06776 0.58029 0.51638 0.0
C112 C 0.93734 0.41997 0.51327 0.0
C113 C 0.06985 0.48774 0.47666 0.0
C114 C 0.08707 0.53618 0.5768 0.0
C115 C 0.01566 0.32185 0.51246 0.0
C116 C 0.13239 0.49936 0.53089 0.0
C117 C 1.00373 0.41 0.56652 0.0
C118 C 0.96876 0.4899 0.46587 0.0
C119 C 0.04784 0.60529 0.52616 0.0
O120 O 0.95329 0.41332 0.50019 0.0
O121 O 0.95202 0.44315 0.5251 0.0
O122 O 0.0821 0.5107 0.48921 0.0
O123 O 0.04079 0.45788 0.47674 0.0
O124 O 0.09644 0.56041 0.56268 0.0
O125 O 0.06603 0.4886 0.57637 0.0
O126 O 0.02021 0.35815 0.49879 0.0
O127 O 0.00562 0.34657 0.52499 0.0
Co128 Co 0.22031 0.76028 0.80033 0.0
Co129 Co 0.28138 0.69784 0.77954 0.0
Co130 Co 0.21418 0.73731 0.7627 0.0
H131 H 0.22202 0.73281 0.78176 0.0
O132 O 0.23207 0.69499 0.78518 0.0
H133 H 0.27498 0.71158 0.76064 0.0
O134 O 0.26365 0.74828 0.75767 0.0
Co135 Co 0.28061 0.69403 0.74138 0.0
O136 O 0.32601 0.6536 0.7498 0.0
O137 O 0.33109 0.69507 0.77327 0.0
O138 O 0.23946 0.7041 0.72644 0.0
O139 O 0.19939 0.75975 0.73906 0.0
O140 O 0.18414 0.80781 0.81337 0.0
O141 O 0.23 0.77483 0.82418 0.0
O142 O 0.25225 0.61393 0.75082 0.0
O143 O 0.27533 0.60215 0.77552 0.0
C144 C 0.15217 0.76034 0.78118 0.0
C145 C 0.28065 0.67057 0.81572 0.0
C146 C 0.31354 0.72842 0.71571 0.0
C147 C 0.23679 0.86355 0.77339 0.0
C148 C 0.3437 0.6647 0.76205 0.0
C149 C 0.21079 0.73513 0.72656 0.0
C150 C 0.20189 0.80359 0.82609 0.0
C151 C 0.25859 0.57841 0.76443 0.0
O152 O 0.1705 0.77606 0.79289 0.0
O153 O 0.16495 0.73397 0.76932 0.0
O154 O 0.29467 0.66197 0.80224 0.0
O155 O 0.25296 0.70492 0.81659 0.0
O156 O 0.28833 0.68861 0.71705 0.0
O157 O 0.32019 0.7488 0.72898 0.0
O158 O 0.24835 0.83145 0.78658 0.0
O159 O 0.21556 0.83592 0.76469 0.0
Co160 Co 0.72188 0.26599 0.79925 0.0
Co161 Co 0.78112 0.19552 0.77938 0.0
Co162 Co 0.71503 0.23921 0.7619 0.0
H163 H 0.7227 0.23605 0.78095 0.0
O164 O 0.73176 0.19753 0.78467 0.0
H165 H 0.77513 0.20763 0.76046 0.0
O166 O 0.76473 0.24512 0.75716 0.0
Co167 Co 0.78034 0.18702 0.74147 0.0
O168 O 0.82514 0.14483 0.75022 0.0
O169 O 0.83077 0.18824 0.77343 0.0
O170 O 0.73963 0.19887 0.72629 0.0
O171 O 0.70101 0.26075 0.73808 0.0
O172 O 0.7337 0.31044 0.81972 0.0
O173 O 0.68368 0.28218 0.81577 0.0
O174 O 0.74993 0.11081 0.75135 0.0
O175 O 0.77328 0.09966 0.77596 0.0
C176 C 0.65361 0.26946 0.77998 0.0
C177 C 0.78128 0.17663 0.81557 0.0
C178 C 0.81389 0.2168 0.71583 0.0
C179 C 0.74062 0.3648 0.77178 0.0
C180 C 0.84297 0.15622 0.76241 0.0
C181 C 0.71193 0.23344 0.72587 0.0
C182 C 0.70346 0.30836 0.82508 0.0
C183 C 0.75581 0.07602 0.7651 0.0
O184 O 0.67236 0.28479 0.7916 0.0
O185 O 0.66574 0.24112 0.76828 0.0
O186 O 0.79349 0.16083 0.80232 0.0
O187 O 0.75526 0.21586 0.81597 0.0
O188 O 0.78915 0.17584 0.71753 0.0
O189 O 0.81978 0.24069 0.72873 0.0
O190 O 0.7516 0.33295 0.78512 0.0
O191 O 0.71863 0.33806 0.7633 0.0
Co192 Co 0.50193 0.93711 0.49155 0.0
Co193 Co 0.56651 -0.00939 0.51205 0.0
Co194 Co 0.50067 0.94554 0.52955 0.0
H195 H 0.50664 0.95768 0.51059 0.0
O196 O 0.51682 -0.00454 0.50731 0.0
H197 H 0.55878 -0.01152 0.53108 0.0
O198 O 0.54993 0.94981 0.53488 0.0
Co199 Co 0.55953 0.01896 0.54931 0.0
O200 O 0.6089 0.03857 0.54158 0.0
O201 O 0.6158 -0.00586 0.51837 0.0
O202 O 0.52584 0.96904 0.56599 0.0
O203 O 0.48855 0.91105 0.5525 0.0
O204 O 0.4585 -0.01932 0.47996 0.0
O205 O 0.49831 0.94801 0.4665 0.0
O206 O 0.52977 0.08509 0.53498 0.0
O207 O 0.56249 0.08963 0.51303 0.0
C208 C 0.43909 0.90427 0.51245 0.0
C209 C 0.57305 0.9688 0.47785 0.0
C210 C 0.57883 0.06098 0.57506 0.0
C211 C 0.5266 0.82597 0.51523 0.0
C212 C 0.62774 0.02317 0.53 0.0
C213 C 0.50029 0.92844 0.56568 0.0
C214 C 0.46912 0.97492 0.46597 0.0
C215 C 0.54052 0.11645 0.52151 0.0
O216 O 0.45678 0.89513 0.50001 0.0
O217 O 0.45113 0.93553 0.52365 0.0
O218 O 0.58027 0.00921 0.48819 0.0
O219 O 0.54656 0.93034 0.47935 0.0
O220 O 0.57217 0.09862 0.56195 0.0
O221 O 0.57468 -0.00041 0.57351 0.0
O222 O 0.53171 0.85999 0.50131 0.0
O223 O 0.50963 0.84987 0.52624 0.0
Co224 Co 0.4983 0.44516 0.99178 0.0
Co225 Co 0.56662 0.48655 1.01213 0.0
Co226 Co 0.50034 0.44696 0.02999 0.0
H227 H 0.50542 0.46177 1.01101 0.0
O228 O 0.5168 0.49835 1.0079 0.0
H229 H 0.5596 0.48354 0.03124 0.0
O230 O 0.54991 0.44554 0.03493 0.0
Co231 Co 0.56185 0.51235 0.04964 0.0
O232 O 0.6116 0.52497 0.04176 0.0
O233 O 0.61613 0.48257 1.01816 0.0
O234 O 0.52941 0.45925 0.06646 0.0
O235 O 0.48857 0.41037 0.05285 0.0
O236 O 0.4525 0.44772 0.979 0.0
O237 O 0.49487 0.50025 0.96874 0.0
O238 O 0.53541 0.58614 0.03593 0.0
O239 O 0.56658 0.5857 1.01362 0.0
C240 C 0.43669 0.41351 1.01343 0.0
C241 C 0.56866 0.47753 0.9764 0.0
C242 C 0.58046 0.55646 0.07521 0.0
C243 C 0.52257 0.32914 1.01413 0.0
C244 C 0.62947 0.50853 0.02995 0.0
C245 C 0.5024 0.42242 0.06609 0.0
C246 C 0.4641 0.4849 0.96672 0.0
C247 C 0.54676 0.61595 0.02243 0.0
O248 O 0.45335 0.40414 1.00073 0.0
O249 O 0.45018 0.44303 0.02458 0.0
O250 O 0.58026 0.50665 0.98819 0.0
O251 O 0.53993 0.44599 0.97723 0.0
O252 O 0.55017 0.5406 0.07213 0.0
O253 O 0.60021 0.54728 0.06377 0.0
O254 O 0.52765 0.36572 1.00052 0.0
O255 O 0.50658 0.3515 0.02565 0.0
C256 C 0.12136 0.07559 0.09655 0.0
C257 C 0.08678 0.07893 0.0916 0.0
C258 C 0.13126 0.09472 0.1115 0.0
C259 C 0.10243 0.19028 0.14499 0.0
H260 H 0.17746 0.09089 0.16804 0.0
C261 C 0.15599 0.22508 0.21078 0.0
C262 C 0.19219 0.22822 0.2114 0.0
C263 C 0.1391 0.2107 0.19654 0.0
C264 C 0.15647 0.11937 0.16177 0.0
H265 H 0.03548 0.10569 0.09859 0.0
H266 H 0.05259 0.13835 0.12472 0.0
H267 H 0.15644 0.05701 0.14288 0.0
H268 H 0.23823 0.2239 0.19685 0.0
H269 H 0.20949 0.19874 0.17275 0.0
H270 H 0.10273 0.25236 0.16424 0.0
C271 C 0.07227 0.12169 0.11698 0.0
C272 C 0.14451 0.10021 0.1472 0.0
C273 C 0.06237 0.10259 0.10198 0.0
C274 C 0.21054 0.22082 0.19713 0.0
C275 C 0.19397 0.20604 0.18318 0.0
C276 C 0.11432 0.20921 0.15974 0.0
C277 C 0.10689 0.1176 0.12207 0.0
C278 C 0.1178 0.13614 0.13831 0.0
C279 C 0.15815 0.19862 0.18276 0.0
C280 C 0.14205 0.17486 0.16814 0.0
H281 H 0.14091 0.05804 0.08886 0.0
H282 H 0.15826 0.09203 0.11467 0.0
H283 H 0.08193 0.21961 0.13857 0.0
H284 H 0.14089 0.23015 0.22149 0.0
H285 H 0.11137 0.20581 0.19659 0.0
C286 C 0.99178 0.91932 0.09588 0.0
C287 C 0.98079 0.8992 0.08116 0.0
C288 C 0.97413 0.89803 0.1104 0.0
C289 C 0.91314 0.76843 0.13019 0.0
H290 H 0.8971 0.90072 0.15933 0.0
C291 C 0.82384 0.71273 0.18645 0.0
C292 C 0.83385 0.73766 0.20071 0.0
C293 C 0.8418 0.73147 0.17188 0.0
C294 C 0.90171 0.86279 0.15147 0.0
H295 H 0.94267 0.83965 0.07038 0.0
H296 H 0.91194 0.80253 0.09574 0.0
H297 H 0.92841 0.93411 0.13405 0.0
H298 H 0.87067 0.80144 0.21092 0.0
H299 H 0.90236 0.83344 0.18559 0.0
H300 H 0.88655 0.69699 0.14765 0.0
C301 C 0.9344 0.83456 0.09602 0.0
C302 C 0.91967 0.88202 0.13693 0.0
C303 C 0.95199 0.8561 0.08145 0.0
C304 C 0.86227 0.78158 0.20011 0.0
C305 C 0.8803 0.80022 0.18555 0.0
C306 C 0.89524 0.74911 0.14477 0.0
C307 C 0.94505 0.85582 0.11066 0.0
C308 C 0.9257 0.83509 0.1261 0.0
C309 C 0.87028 0.77555 0.17121 0.0
C310 C 0.88931 0.79601 0.15563 0.0
H311 H 0.01384 0.95237 0.09621 0.0
H312 H 0.98339 0.91456 0.12146 0.0
H313 H 0.91766 0.73073 0.12225 0.0
H314 H 0.80189 0.67911 0.18651 0.0
H315 H 0.83297 0.71222 0.16107 0.0
C316 C 0.12388 0.47036 0.46062 0.0
C317 C 0.08942 0.49158 0.46107 0.0
C318 C 0.13863 0.456 0.44595 0.0
C319 C 0.11048 0.40451 0.4066 0.0
H320 H 0.20477 0.43871 0.39276 0.0
C321 C 0.15634 0.3523 0.34315 0.0
C322 C 0.18982 0.32755 0.34153 0.0
C323 C 0.14566 0.3745 0.35766 0.0
C324 C 0.17843 0.42794 0.39649 0.0
H325 H 0.04443 0.51898 0.44622 0.0
H326 H 0.07005 0.49613 0.42091 0.0
H327 H 0.18456 0.47562 0.41797 0.0
H328 H 0.23835 0.30686 0.35403 0.0
H329 H 0.21971 0.34448 0.37937 0.0
H330 H 0.10421 0.3561 0.38543 0.0
C331 C 0.08562 0.48852 0.43182 0.0
C332 C 0.16681 0.44935 0.411 0.0
C333 C 0.07101 0.50255 0.44636 0.0
C334 C 0.2124 0.32586 0.35481 0.0
C335 C 0.20171 0.34792 0.36936 0.0
C336 C 0.12206 0.38297 0.3922 0.0
C337 C 0.11919 0.46246 0.43144 0.0
C338 C 0.1325 0.43862 0.4162 0.0
C339 C 0.16807 0.37242 0.37108 0.0
C340 C 0.15615 0.39475 0.38677 0.0
H341 H 0.13861 0.46027 0.47176 0.0
H342 H 0.16456 0.43615 0.44619 0.0
H343 H 0.08415 0.39348 0.41033 0.0
H344 H 0.13829 0.35462 0.33316 0.0
H345 H 0.11978 0.39397 0.35826 0.0
C346 C 0.82993 0.61587 0.33169 0.0
C347 C 0.80052 0.65733 0.3312 0.0
C348 C 0.84794 0.59742 0.34625 0.0
C349 C 0.86208 0.65047 0.38669 0.0
H350 H 0.89839 0.4683 0.39803 0.0
C351 C 0.92149 0.55503 0.44995 0.0
C352 C 0.95025 0.51209 0.45044 0.0
C353 C 0.90346 0.5737 0.43538 0.0
C354 C 0.88882 0.51969 0.39498 0.0
H355 H 0.7668 0.71074 0.34592 0.0
H356 H 0.79797 0.67809 0.3712 0.0
H357 H 0.86643 0.49768 0.37279 0.0
H358 H 0.98319 0.45637 0.436 0.0
H359 H 0.95216 0.4895 0.41062 0.0
H360 H 0.88456 0.67257 0.40885 0.0
C361 C 0.8074 0.66062 0.36027 0.0
C362 C 0.87043 0.53651 0.38048 0.0
C363 C 0.78935 0.67892 0.34574 0.0
C364 C 0.96094 0.4891 0.43604 0.0
C365 C 0.943 0.50779 0.4215 0.0
C366 C 0.88052 0.63368 0.40118 0.0
C367 C 0.83708 0.62006 0.36071 0.0
C368 C 0.85677 0.6021 0.37615 0.0
C369 C 0.91383 0.54988 0.42098 0.0
C370 C 0.89416 0.56804 0.40553 0.0
H371 H 0.83943 0.59844 0.32076 0.0
H372 H 0.87087 0.56666 0.3461 0.0
H373 H 0.85242 0.7018 0.38363 0.0
H374 H 0.91263 0.57347 0.46086 0.0
H375 H 0.88096 0.60565 0.4355 0.0
C376 C 0.12355 0.61274 0.59161 0.0
C377 C 0.09841 0.56159 0.59201 0.0
C378 C 0.13374 0.63713 0.60593 0.0
C379 C 0.10567 0.64925 0.64833 0.0
H380 H 0.20242 0.67893 0.65569 0.0
C381 C 0.15938 0.70239 0.7111 0.0
C382 C 0.19041 0.73843 0.71134 0.0
C383 C 0.14578 0.68723 0.69632 0.0
C384 C 0.17516 0.67249 0.65381 0.0
H385 H 0.06443 0.49608 0.60795 0.0
H386 H 0.08193 0.5387 0.63282 0.0
H387 H 0.18416 0.64002 0.63068 0.0
H388 H 0.23063 0.78948 0.69624 0.0
H389 H 0.20608 0.76758 0.67059 0.0
H390 H 0.09655 0.68234 0.67139 0.0
C391 C 0.09367 0.56041 0.62142 0.0
C392 C 0.1647 0.64964 0.63938 0.0
C393 C 0.08375 0.5356 0.60713 0.0
C394 C 0.20636 0.76251 0.69644 0.0
C395 C 0.19257 0.74848 0.6817 0.0
C396 C 0.11609 0.67287 0.66273 0.0
C397 C 0.11886 0.61154 0.62107 0.0
C398 C 0.12982 0.63736 0.63641 0.0
C399 C 0.1628 0.70814 0.68139 0.0
C400 C 0.15109 0.68484 0.66577 0.0
H401 H 0.13537 0.63403 0.58019 0.0
H402 H 0.153 0.67686 0.6051 0.0
H403 H 0.07852 0.64114 0.64644 0.0
H404 H 0.14703 0.68142 0.72241 0.0
H405 H 0.12303 0.65565 0.69678 0.0
C406 C 0.82301 0.21013 0.68626 0.0
C407 C 0.83338 0.23489 0.70049 0.0
C408 C 0.84126 0.22741 0.67171 0.0
C409 C 0.90365 0.35408 0.65133 0.0
H410 H 0.91753 0.21989 0.62245 0.0
C411 C 0.99679 0.40074 0.59685 0.0
C412 C 0.98552 0.38318 0.58192 0.0
C413 C 0.97827 0.38074 0.61117 0.0
C414 C 0.9136 0.25813 0.63031 0.0
H415 H 0.87107 0.29694 0.71066 0.0
H416 H 0.90329 0.32628 0.68541 0.0
H417 H 0.8853 0.18933 0.64768 0.0
H418 H 0.946 0.32882 0.5706 0.0
H419 H 0.91382 0.29347 0.59566 0.0
H420 H 0.93222 0.42265 0.63404 0.0
C421 C 0.88073 0.29438 0.68535 0.0
C422 C 0.89505 0.24069 0.64478 0.0
C423 C 0.8624 0.27725 0.69988 0.0
C424 C 0.95558 0.34332 0.58183 0.0
C425 C 0.93714 0.32285 0.59622 0.0
C426 C 0.92231 0.37138 0.63693 0.0
C427 C 0.87041 0.26978 0.67105 0.0
C428 C 0.8899 0.28838 0.65553 0.0
C429 C 0.948 0.34218 0.61103 0.0
C430 C 0.92765 0.32359 0.62625 0.0
H431 H 0.8006 0.1777 0.68632 0.0
H432 H 0.83219 0.2083 0.66093 0.0
H433 H 0.89966 0.39265 0.65909 0.0
H434 H 0.0196 0.43124 0.5975 0.0
H435 H 0.98769 0.39565 0.62239 0.0
C436 C 0.21256 0.8198 0.85524 0.0
C437 C 0.19108 0.8284 0.84147 0.0
C438 C 0.20247 0.84294 0.86973 0.0
C439 C 0.14029 0.96035 0.88616 0.0
H440 H 0.16251 0.85457 0.92777 0.0
C441 C 0.07168 -0.00012 0.94592 0.0
C442 C 0.08957 -0.01055 0.9608 0.0
C443 C 0.08738 -0.01186 0.93142 0.0
C444 C 0.15653 0.8855 0.91629 0.0
H445 H 0.14191 0.8679 0.83229 0.0
H446 H 0.1241 0.90751 0.8575 0.0
H447 H 0.18225 0.81661 0.90271 0.0
H448 H 0.13858 0.95993 0.97191 0.0
H449 H 0.16641 0.93977 0.94644 0.0
H450 H 0.11406 0.02854 0.89973 0.0
C451 C 0.14909 0.88387 0.8571 0.0
C452 C 0.16785 0.86357 0.90183 0.0
C453 C 0.15919 0.86069 0.84261 0.0
C454 C 0.12427 0.96973 0.96064 0.0
C455 C 0.14 0.9571 0.94605 0.0
C456 C 0.12892 -0.01786 0.9006 0.0
C457 C 0.17055 0.87549 0.87093 0.0
C458 C 0.15959 0.9002 0.88649 0.0
C459 C 0.1215 0.96471 0.93127 0.0
C460 C 0.13648 0.9447 0.91592 0.0
H461 H 0.23731 0.79516 0.85481 0.0
H462 H 0.22001 0.83604 0.87994 0.0
H463 H 0.13396 -0.00894 0.87471 0.0
H464 H 0.04478 0.01418 0.94562 0.0
H465 H 0.072 -0.00602 0.92046 0.0
C466 C 0.82826 0.10945 0.83153 0.0
C467 C 0.79886 0.15093 0.83119 0.0
C468 C 0.8458 0.08865 0.84613 0.0
C469 C 0.85861 0.13517 0.88733 0.0
H470 H 0.89574 0.95304 0.8973 0.0
C471 C 0.91801 0.03509 0.95018 0.0
C472 C 0.94734 -0.00625 0.95049 0.0
C473 C 0.89964 0.05347 0.93571 0.0
C474 C 0.88591 0.00439 0.89464 0.0
H475 H 0.76473 0.20193 0.84622 0.0
H476 H 0.79505 0.16518 0.87155 0.0
H477 H 0.8642 -0.01437 0.87203 0.0
H478 H 0.98062 0.93973 0.93583 0.0
H479 H 0.94895 0.9724 0.91057 0.0
H480 H 0.88045 0.15416 0.90987 0.0
C481 C 0.80484 0.14946 0.86048 0.0
C482 C 0.86776 0.02307 0.88012 0.0
C483 C 0.78725 0.17014 0.84592 0.0
C484 C 0.95797 0.97131 0.93601 0.0
C485 C 0.93967 -0.01023 0.92154 0.0
C486 C 0.8768 0.11655 0.90183 0.0
C487 C 0.83451 0.10888 0.86078 0.0
C488 C 0.85382 0.08871 0.87627 0.0
C489 C 0.91021 0.03109 0.92117 0.0
C490 C 0.89071 0.05087 0.90571 0.0
H491 H 0.8381 0.0938 0.82046 0.0
H492 H 0.86873 0.05799 0.84585 0.0
H493 H 0.84879 0.18653 0.88467 0.0
H494 H 0.90911 0.05298 0.96116 0.0
H495 H 0.87686 0.08455 0.93599 0.0
C496 C 0.71122 0.24411 0.69559 0.0
C497 C 0.69251 0.2389 0.71023 0.0
C498 C 0.69542 0.23392 0.68101 0.0
C499 C 0.62118 0.14534 0.66544 0.0
H500 H 0.65297 0.23814 0.62384 0.0
C501 C 0.5949 0.03947 0.60478 0.0
C502 C 0.58932 0.08559 0.59051 0.0
C503 C 0.60467 0.06239 0.61934 0.0
C504 C 0.64338 0.21195 0.63529 0.0
H505 H 0.6419 0.22085 0.72079 0.0
H506 H 0.61385 0.20373 0.69515 0.0
H507 H 0.67299 0.27527 0.64884 0.0
H508 H 0.58938 0.19238 0.5805 0.0
H509 H 0.6061 0.23251 0.6058 0.0
H510 H 0.5914 0.08223 0.65185 0.0
C511 C 0.64106 0.21539 0.69503 0.0
C512 C 0.65523 0.23292 0.64974 0.0
C513 C 0.65697 0.22627 0.70971 0.0
C514 C 0.59362 0.15535 0.59122 0.0
C515 C 0.60342 0.17833 0.60577 0.0
C516 C 0.60934 0.12426 0.65097 0.0
C517 C 0.66025 0.21763 0.68051 0.0
C518 C 0.64474 0.19943 0.66508 0.0
C519 C 0.6092 0.13226 0.6201 0.0
C520 C 0.62055 0.15668 0.63563 0.0
H521 H 0.7387 0.25323 0.69553 0.0
H522 H 0.71136 0.23541 0.67029 0.0
H523 H 0.61265 0.11769 0.67694 0.0
H524 H 0.59181 -0.01463 0.60471 0.0
H525 H 0.6093 0.02498 0.62994 0.0
C526 C 0.49413 0.92205 0.59603 0.0
C527 C 0.48267 0.90273 0.5813 0.0
C528 C 0.47645 0.90124 0.61058 0.0
C529 C 0.39103 0.83972 0.62631 0.0
H530 H 0.44029 0.79056 0.66683 0.0
C531 C 0.32215 0.72624 0.68592 0.0
C532 C 0.333 0.74825 0.70041 0.0
C533 C 0.34053 0.74446 0.67145 0.0
C534 C 0.4261 0.80486 0.65566 0.0
H535 H 0.44371 0.84495 0.57055 0.0
H536 H 0.41323 0.8081 0.59593 0.0
H537 H 0.47232 0.8217 0.64161 0.0
H538 H 0.37154 0.8068 0.7111 0.0
H539 H 0.40355 0.83905 0.68582 0.0
H540 H 0.34483 0.82296 0.64035 0.0
C541 C 0.43564 0.84027 0.59617 0.0
C542 C 0.44449 0.82271 0.64117 0.0
C543 C 0.45334 0.86103 0.58161 0.0
C544 C 0.36259 0.78897 0.70012 0.0
C545 C 0.38105 0.80706 0.68565 0.0
C546 C 0.37265 0.82182 0.64079 0.0
C547 C 0.44678 0.86055 0.61084 0.0
C548 C 0.42722 0.84045 0.62628 0.0
C549 C 0.37027 0.78503 0.67111 0.0
C550 C 0.38992 0.80419 0.65567 0.0
H551 H 0.51652 0.95427 0.59633 0.0
H552 H 0.4856 0.91855 0.62158 0.0
H553 H 0.37681 0.85425 0.61515 0.0
H554 H 0.29943 0.69479 0.68575 0.0
H555 H 0.33167 0.72587 0.66056 0.0
C556 C 0.56887 0.46882 0.94675 0.0
C557 C 0.58783 0.47788 0.96072 0.0
C558 C 0.58504 0.45534 0.93259 0.0
C559 C 0.66453 0.46195 0.90859 0.0
H560 H 0.62261 0.30951 0.89172 0.0
C561 C 0.7171 0.35445 0.85114 0.0
C562 C 0.69278 0.33093 0.84071 0.0
C563 C 0.70701 0.37388 0.86607 0.0
C564 C 0.63446 0.35278 0.89604 0.0
H565 H 0.63947 0.48372 0.97015 0.0
H566 H 0.66821 0.46083 0.94495 0.0
H567 H 0.60154 0.34298 0.9169 0.0
H568 H 0.63864 0.31065 0.83776 0.0
H569 H 0.62094 0.34525 0.86346 0.0
H570 H 0.69703 0.47253 0.88744 0.0
C571 C 0.64043 0.46391 0.94524 0.0
C572 C 0.62245 0.37178 0.91062 0.0
C573 C 0.624 0.47738 0.95965 0.0
C574 C 0.6581 0.3281 0.84551 0.0
C575 C 0.648 0.34758 0.86038 0.0
C576 C 0.67649 0.44313 0.89385 0.0
C577 C 0.62094 0.45038 0.93173 0.0
C578 C 0.63681 0.42734 0.91699 0.0
C579 C 0.67228 0.37025 0.87101 0.0
C580 C 0.6612 0.38889 0.88719 0.0
H581 H 0.54106 0.46937 0.94689 0.0
H582 H 0.56919 0.44694 0.92235 0.0
H583 H 0.67611 0.50509 0.9131 0.0
H584 H 0.74407 0.35713 0.84785 0.0
H585 H 0.72659 0.39037 0.87388 0.0
C586 C 0.46191 0.5303 0.93704 0.0
C587 C 0.44463 0.50476 0.95147 0.0
C588 C 0.44385 0.5461 0.92243 0.0
C589 C 0.35872 0.51881 0.9031 0.0
H590 H 0.39183 0.66314 0.87032 0.0
C591 C 0.28079 0.63701 0.84609 0.0
C592 C 0.29838 0.64346 0.83114 0.0
C593 C 0.29818 0.61663 0.86073 0.0
C594 C 0.38243 0.62239 0.87933 0.0
H595 H 0.39478 0.47731 0.96204 0.0
H596 H 0.36291 0.5082 0.93681 0.0
H597 H 0.42228 0.63786 0.89605 0.0
H598 H 0.34812 0.63276 0.81993 0.0
H599 H 0.37852 0.59863 0.84555 0.0
H600 H 0.31797 0.50585 0.88641 0.0
C601 C 0.39059 0.51373 0.93651 0.0
C602 C 0.39999 0.60747 0.8941 0.0
C603 C 0.4088 0.49658 0.95107 0.0
C604 C 0.3337 0.62802 0.83119 0.0
C605 C 0.35119 0.60892 0.84586 0.0
C606 C 0.34079 0.53474 0.88844 0.0
C607 C 0.40786 0.53822 0.9219 0.0
C608 C 0.38859 0.5551 0.90621 0.0
C609 C 0.33367 0.6035 0.86078 0.0
C610 C 0.35259 0.58638 0.87636 0.0
H611 H 0.48955 0.53681 0.93695 0.0
H612 H 0.45838 0.56334 0.91149 0.0
H613 H 0.34935 0.47727 0.91188 0.0
H614 H 0.25361 0.64848 0.84651 0.0
H615 H 0.28408 0.61315 0.87206 0.0
C616 C 0.56811 0.58479 0.10329 0.0
C617 C 0.59159 0.5807 0.09058 0.0
C618 C 0.5788 0.60629 0.11789 0.0
C619 C 0.65817 0.62708 0.14218 0.0
H620 H 0.5995 0.73564 0.16602 0.0
C621 C 0.71255 0.74427 0.19581 0.0
C622 C 0.69342 0.73766 0.21033 0.0
C623 C 0.69771 0.73134 0.18125 0.0
C624 C 0.61611 0.70489 0.15959 0.0
H625 H 0.64471 0.59705 0.08323 0.0
H626 H 0.66327 0.63541 0.10841 0.0
H627 H 0.5789 0.70019 0.14069 0.0
H628 H 0.64286 0.71559 0.22064 0.0
H629 H 0.61648 0.69348 0.19497 0.0
H630 H 0.69538 0.63178 0.16092 0.0
C631 C 0.63663 0.62087 0.10734 0.0
C632 C 0.60428 0.68435 0.14503 0.0
C633 C 0.62595 0.59926 0.09278 0.0
C634 C 0.65818 0.72215 0.20964 0.0
C635 C 0.64318 0.70896 0.19493 0.0
C636 C 0.66998 0.64778 0.15661 0.0
C637 C 0.61333 0.62434 0.12021 0.0
C638 C 0.62528 0.64554 0.13599 0.0
C639 C 0.66317 0.71085 0.18067 0.0
C640 C 0.64936 0.68763 0.16549 0.0
H641 H 0.54145 0.57064 0.10204 0.0
H642 H 0.56006 0.60736 0.12749 0.0
H643 H 0.67488 0.59575 0.13596 0.0
H644 H 0.73974 0.75626 0.19586 0.0
H645 H 0.71377 0.73526 0.17051 0.0
C646 C 0.32084 0.25948 0.18646 0.0
C647 C 0.33704 0.25448 0.20167 0.0
C648 C 0.3395 0.27772 0.1721 0.0
C649 C 0.4283 0.2847 0.15541 0.0
H650 H 0.38588 0.3991 0.11907 0.0
C651 C 0.50194 0.39876 0.0967 0.0
C652 C 0.48518 0.39641 0.08178 0.0
C653 C 0.48476 0.37935 0.11147 0.0
C654 C 0.39796 0.36656 0.12905 0.0
H655 H 0.38565 0.26474 0.21378 0.0
H656 H 0.41841 0.29696 0.18867 0.0
H657 H 0.35459 0.37251 0.14462 0.0
H658 H 0.43717 0.37073 0.07083 0.0
H659 H 0.40725 0.33759 0.09658 0.0
H660 H 0.47191 0.27986 0.13979 0.0
C661 C 0.39121 0.28633 0.18782 0.0
C662 C 0.38001 0.35118 0.14372 0.0
C663 C 0.37242 0.2684 0.20222 0.0
C664 C 0.45099 0.37302 0.08204 0.0
C665 C 0.4337 0.3545 0.09681 0.0
C666 C 0.44637 0.30058 0.14075 0.0
C667 C 0.37498 0.29121 0.17254 0.0
C668 C 0.39479 0.30959 0.15709 0.0
C669 C 0.45027 0.35802 0.11169 0.0
C670 C 0.43131 0.34131 0.12736 0.0
H671 H 0.29365 0.24913 0.1856 0.0
H672 H 0.32611 0.28001 0.16062 0.0
H673 H 0.44035 0.25172 0.16532 0.0
H674 H 0.52824 0.41652 0.09699 0.0
H675 H 0.49819 0.383 0.12272 0.0
C676 C 0.60071 0.8948 0.45991 0.0
C677 C 0.59603 0.96064 0.46387 0.0
C678 C 0.6167 0.88425 0.44543 0.0
C679 C 0.63434 0.96814 0.40349 0.0
H680 H 0.68918 0.8065 0.4019 0.0
C681 C 0.69185 0.89816 0.34281 0.0
C682 C 0.69166 0.82899 0.34087 0.0
C683 C 0.68275 0.91869 0.35775 0.0
C684 C 0.67363 0.85157 0.40202 0.0
H685 H 0.60539 0.06737 0.45566 0.0
H686 H 0.63383 0.04908 0.4301 0.0
H687 H 0.67116 0.83572 0.42803 0.0
H688 H 0.68144 0.72734 0.3532 0.0
H689 H 0.66533 0.76273 0.37905 0.0
H690 H 0.63656 -0.01667 0.37739 0.0
C691 C 0.62486 0.00541 0.43835 0.0
C692 C 0.66333 0.86855 0.4171 0.0
C693 C 0.609 0.01598 0.45309 0.0
C694 C 0.68198 0.78101 0.35423 0.0
C695 C 0.67297 0.80142 0.36915 0.0
C696 C 0.64472 0.95112 0.38835 0.0
C697 C 0.62851 0.93924 0.43421 0.0
C698 C 0.64292 0.92634 0.41811 0.0
C699 C 0.67334 0.87058 0.37122 0.0
C700 C 0.66399 0.89177 0.38736 0.0
H701 H 0.59087 0.85096 0.46786 0.0
H702 H 0.61841 0.8327 0.44273 0.0
H703 H 0.61841 0.01265 0.40369 0.0
H704 H 0.69926 0.93651 0.33279 0.0
H705 H 0.6837 0.97228 0.35882 0.0
C706 C 0.46471 -0.00676 0.43555 0.0
C707 C 0.44939 -0.00455 0.45078 0.0
C708 C 0.44605 0.01163 0.42118 0.0
C709 C 0.35682 0.03259 0.40524 0.0
H710 H 0.4015 0.13478 0.36769 0.0
C711 C 0.28272 0.14961 0.34709 0.0
C712 C 0.29829 0.14551 0.33196 0.0
C713 C 0.30051 0.12935 0.36164 0.0
C714 C 0.38872 0.10555 0.378 0.0
H715 H 0.40244 0.01861 0.46288 0.0
H716 H 0.36984 0.05103 0.43782 0.0
H717 H 0.43366 0.105 0.39288 0.0
H718 H 0.34487 0.11569 0.32045 0.0
H719 H 0.37573 0.08054 0.34578 0.0
H720 H 0.31178 0.03372 0.39033 0.0
C721 C 0.39623 0.03459 0.43695 0.0
C722 C 0.40719 0.08841 0.39247 0.0
C723 C 0.41498 0.0165 0.45132 0.0
C724 C 0.33193 0.11952 0.33183 0.0
C725 C 0.3498 0.09985 0.34637 0.0
C726 C 0.33831 0.04994 0.39076 0.0
C727 C 0.4115 0.03242 0.42166 0.0
C728 C 0.39156 0.05149 0.40629 0.0
C729 C 0.33445 0.10503 0.36147 0.0
C730 C 0.35405 0.08645 0.37693 0.0
H731 H 0.49118 -0.02283 0.43473 0.0
H732 H 0.4586 0.00848 0.40969 0.0
H733 H 0.34403 0.00326 0.41552 0.0
H734 H 0.25687 0.16933 0.34772 0.0
H735 H 0.28796 0.13448 0.37303 0.0
C736 C 0.01875 0.71099 0.02944 0.0
C737 C 0.03358 0.75593 1.01674 0.0
C738 C 0.02196 0.64123 0.02975 0.0
C739 C 0.03364 0.51927 1.00153 0.0
H740 H 0.04046 0.39025 0.04112 0.0
C741 C 0.05214 0.22876 1.00571 0.0
C742 C 0.03378 0.18859 1.01814 0.0
C743 C 0.04975 0.2993 1.00392 0.0
C744 C 0.03816 0.42594 0.03001 0.0
H745 H 0.06603 0.76373 0.99527 0.0
H746 H 0.07221 0.64141 0.99606 0.0
H747 H 0.04681 0.51117 0.04239 0.0
H748 H 0.99559 0.18982 0.03719 0.0
H749 H 0.99158 0.3131 0.03403 0.0
H750 H 0.0254 0.43332 0.98917 0.0
C751 C 0.05728 0.66028 1.00545 0.0
C752 C 0.04195 0.49487 0.03073 0.0
C753 C 0.0539 0.73012 1.00507 0.0
C754 C 0.0106 0.21961 0.02773 0.0
C755 C 0.00829 0.28998 0.02595 0.0
C756 C 0.03013 0.4501 1.00079 0.0
C757 C 0.04034 0.61538 1.01747 0.0
C758 C 0.03939 0.54215 1.01652 0.0
C759 C 0.02898 0.33014 1.01454 0.0
C760 C 0.03196 0.40321 1.01507 0.0
H761 H 1.003 0.72941 0.03862 0.0
H762 H 0.00844 0.6077 0.0391 0.0
H763 H 0.03095 0.55487 0.99043 0.0
H764 H 0.0699 0.20609 0.99801 0.0
H765 H 0.06585 0.32963 0.99501 0.0
C766 C 0.26734 0.46615 0.27864 0.0
C767 C 0.24348 0.43566 0.26928 0.0
C768 C 0.27036 0.53642 0.27678 0.0
C769 C 0.25063 0.69635 0.25122 0.0
H770 H 0.23865 0.76251 0.29256 0.0
C771 C 0.23197 -0.02087 0.25481 0.0
C772 C 0.25241 0.00502 0.26641 0.0
C773 C 0.22854 0.90929 0.25519 0.0
C774 C 0.24228 0.7448 0.28096 0.0
H775 H 0.20634 0.45404 0.24964 0.0
H776 H 0.21167 0.57762 0.24646 0.0
H777 H 0.24151 0.64073 0.29183 0.0
H778 H 0.28393 -0.02139 0.28795 0.0
H779 H 0.2784 0.85672 0.28843 0.0
H780 H 0.25203 0.80054 0.24037 0.0
C781 C 0.22782 0.54683 0.25524 0.0
C782 C 0.24401 0.67532 0.28054 0.0
C783 C 0.22472 0.47632 0.25711 0.0
C784 C 0.26792 0.96008 0.27887 0.0
C785 C 0.26469 0.89027 0.27918 0.0
C786 C 0.24919 0.76605 0.25164 0.0
C787 C 0.24968 0.57717 0.26551 0.0
C788 C 0.24842 0.65071 0.2657 0.0
C789 C 0.24561 0.86435 0.26712 0.0
C790 C 0.24516 0.79077 0.26654 0.0
H791 H 0.28263 0.43599 0.28791 0.0
H792 H 0.28788 0.55907 0.2846 0.0
H793 H 0.25408 0.67814 0.23966 0.0
H794 H 0.21941 0.01276 0.24516 0.0
H795 H 0.21312 0.89045 0.24595 0.0
C796 C 0.73048 -0.02136 0.25528 0.0
C797 C 0.7489 0.93779 0.26754 0.0
C798 C 0.7332 0.04911 0.25365 0.0
C799 C 0.74581 0.17371 0.28019 0.0
H800 H 0.75063 0.30482 0.2409 0.0
C801 C 0.76274 0.45946 0.28014 0.0
C802 C 0.74716 0.50402 0.26762 0.0
C803 C 0.76008 0.38961 0.28039 0.0
C804 C 0.74864 0.26859 0.25192 0.0
H805 H 0.78764 0.93768 0.28637 0.0
H806 H 0.79225 0.06086 0.28347 0.0
H807 H 0.75691 0.18384 0.23917 0.0
H808 H 0.71377 0.51102 0.24651 0.0
H809 H 0.70853 0.38857 0.24721 0.0
H810 H 0.73708 0.25778 0.29297 0.0
C811 C 0.77522 0.03834 0.27542 0.0
C812 C 0.75257 0.19975 0.25093 0.0
C813 C 0.77256 0.96804 0.27705 0.0
C814 C 0.7265 0.47771 0.25616 0.0
C815 C 0.72366 0.4078 0.25649 0.0
C816 C 0.74162 0.24233 0.28118 0.0
C817 C 0.75438 0.0792 0.26424 0.0
C818 C 0.75149 0.15206 0.26508 0.0
C819 C 0.7415 0.36336 0.26824 0.0
C820 C 0.74322 0.29037 0.26708 0.0
H821 H 0.71234 0.95657 0.24766 0.0
H822 H 0.71696 0.07995 0.24492 0.0
H823 H 0.74408 0.1374 0.29122 0.0
H824 H 0.77877 0.47831 0.28916 0.0
H825 H 0.77425 0.35643 0.28955 0.0
C826 C 0.03935 0.71348 0.50739 0.0
C827 C 0.03879 0.67734 0.52317 0.0
C828 C 0.03171 0.78267 0.50485 0.0
C829 C 0.99512 0.92092 0.52499 0.0
H830 H 0.05873 0.03348 0.49692 0.0
C831 C 0.01604 0.20475 0.52812 0.0
C832 C 0.01802 0.24782 0.51319 0.0
C833 C 0.01556 0.13447 0.5285 0.0
C834 C 0.04052 0.00263 0.50464 0.0
H835 H 0.02976 0.68409 0.54866 0.0
H836 H 0.01774 0.80491 0.54432 0.0
H837 H 0.06135 0.91064 0.49845 0.0
H838 H 0.02065 0.25124 0.48694 0.0
H839 H 0.01962 0.12896 0.48768 0.0
H840 H 0.97512 0.01337 0.53156 0.0
C841 C 0.02288 0.77988 0.53383 0.0
C842 C 0.04187 0.93241 0.50545 0.0
C843 C 0.03003 0.7108 0.53633 0.0
C844 C 0.01969 0.21946 0.49868 0.0
C845 C 0.01903 0.14946 0.49906 0.0
C846 C 0.99391 -0.00876 0.52426 0.0
C847 C 0.02393 0.81659 0.5181 0.0
C848 C 0.01957 0.89089 0.51582 0.0
C849 C 0.01693 0.10647 0.51395 0.0
C850 C 0.01694 0.03246 0.51424 0.0
H851 H 0.04568 0.68833 0.49705 0.0
H852 H 0.03228 0.80976 0.49257 0.0
H853 H 0.97729 0.89 0.53292 0.0
H854 H 0.01465 0.22527 0.53949 0.0
H855 H 0.01439 0.10204 0.54015 0.0
C856 C 0.22648 -0.02294 0.75704 0.0
C857 C 0.24471 0.93616 0.76936 0.0
C858 C 0.22985 0.0475 0.75518 0.0
C859 C 0.24534 0.17549 0.78068 0.0
H860 H 0.25287 0.3011 0.74054 0.0
C861 C 0.26673 0.46113 0.77893 0.0
C862 C 0.25097 0.50544 0.76641 0.0
C863 C 0.26404 0.39122 0.7793 0.0
C864 C 0.25019 0.26647 0.7518 0.0
H865 H 0.28333 0.93592 0.78826 0.0
H866 H 0.28906 0.05894 0.78494 0.0
H867 H 0.256 0.17882 0.73981 0.0
H868 H 0.21791 0.51182 0.7452 0.0
H869 H 0.2126 0.38926 0.74612 0.0
H870 H 0.23902 0.26245 0.7927 0.0
C871 C 0.27173 0.03653 0.77701 0.0
C872 C 0.25226 0.19685 0.75137 0.0
C873 C 0.26843 0.96629 0.77887 0.0
C874 C 0.23068 0.47874 0.75488 0.0
C875 C 0.22781 0.40875 0.75533 0.0
C876 C 0.24301 0.24489 0.7811 0.0
C877 C 0.25147 0.07756 0.7656 0.0
C878 C 0.25014 0.15108 0.76583 0.0
C879 C 0.24527 0.36454 0.76727 0.0
C880 C 0.24563 0.29098 0.76669 0.0
H881 H 0.20826 0.95507 0.74944 0.0
H882 H 0.21401 0.07847 0.74628 0.0
H883 H 0.24289 0.14079 0.79194 0.0
H884 H 0.28257 0.48026 0.78798 0.0
H885 H 0.27799 0.35822 0.78858 0.0
C886 C 0.7314 0.47811 0.75523 0.0
C887 C 0.74946 0.43688 0.76755 0.0
C888 C 0.73475 0.54849 0.75351 0.0
C889 C 0.74812 0.67293 0.77996 0.0
H890 H 0.75302 0.80365 0.7406 0.0
C891 C 0.76348 0.95915 0.77985 0.0
C892 C 0.74765 0.00328 0.76732 0.0
C893 C 0.76148 0.88926 0.78007 0.0
C894 C 0.75104 0.76753 0.75164 0.0
H895 H 0.78824 0.43587 0.78639 0.0
H896 H 0.79393 0.55891 0.78334 0.0
H897 H 0.75931 0.68257 0.73895 0.0
H898 H 0.71457 0.00929 0.74612 0.0
H899 H 0.71044 0.8867 0.74677 0.0
H900 H 0.73926 0.75714 0.79266 0.0
C901 C 0.77671 0.53677 0.77531 0.0
C902 C 0.75499 0.69864 0.75069 0.0
C903 C 0.77342 0.46654 0.77703 0.0
C904 C 0.72746 -0.02365 0.75579 0.0
C905 C 0.72528 0.90637 0.75608 0.0
C906 C 0.74391 0.74158 0.7809 0.0
C907 C 0.75622 0.57811 0.76407 0.0
C908 C 0.75379 0.65107 0.76487 0.0
C909 C 0.74332 0.86246 0.76787 0.0
C910 C 0.74548 0.78947 0.76677 0.0
H911 H 0.71306 0.45647 0.74762 0.0
H912 H 0.71875 0.5797 0.74473 0.0
H913 H 0.7463 0.63674 0.79101 0.0
H914 H 0.77917 -0.02155 0.78893 0.0
H915 H 0.77579 0.85651 0.78925 0.0
C916 C 0.5194 0.70921 0.53011 0.0
C917 C 0.53514 0.75346 0.51756 0.0
C918 C 0.5214 0.63935 0.53029 0.0
C919 C 0.53109 0.51885 0.50156 0.0
H920 H 0.53517 0.38655 0.54067 0.0
C921 C 0.54954 0.22942 0.50477 0.0
C922 C 0.53142 0.18825 0.51711 0.0
C923 C 0.54622 0.29979 0.50303 0.0
C924 C 0.53352 0.42319 0.52969 0.0
H925 H 0.56827 0.75983 0.49634 0.0
H926 H 0.57239 0.6373 0.49692 0.0
H927 H 0.5431 0.50654 0.5426 0.0
H928 H 0.49241 0.18722 0.53587 0.0
H929 H 0.48678 0.31026 0.53278 0.0
H930 H 0.52212 0.43473 0.48867 0.0
C931 C 0.5576 0.65682 0.50627 0.0
C932 C 0.53826 0.49158 0.53078 0.0
C933 C 0.55542 0.72675 0.50602 0.0
C934 C 0.5073 0.21789 0.52651 0.0
C935 C 0.50402 0.28809 0.52476 0.0
C936 C 0.52663 0.45021 0.50046 0.0
C937 C 0.53947 0.61278 0.51802 0.0
C938 C 0.53693 0.54 0.51675 0.0
C939 C 0.52472 0.3294 0.51357 0.0
C940 C 0.52757 0.40214 0.51454 0.0
H941 H 0.50366 0.72838 0.5392 0.0
H942 H 0.50705 0.60647 0.53946 0.0
H943 H 0.52927 0.55542 0.49059 0.0
H944 H 0.568 0.20778 0.49722 0.0
H945 H 0.56236 0.33098 0.49429 0.0
C946 C 0.51717 0.72184 0.02732 0.0
C947 C 0.53972 0.68874 1.01786 0.0
C948 C 0.51382 0.79209 0.02441 0.0
C949 C 0.56465 0.94035 1.0093 0.0
H950 H 0.47972 0.03591 1.01524 0.0
C951 C 0.55112 0.23237 1.00364 0.0
C952 C 0.53061 0.25646 1.0155 0.0
C953 C 0.55385 0.16291 1.00319 0.0
C954 C 0.50361 0.00961 1.01367 0.0
H955 H 0.57456 0.70246 0.99721 0.0
H956 H 0.56849 0.82586 0.99211 0.0
H957 H 0.47807 0.91456 1.01348 0.0
H958 H 0.49886 0.22701 0.03687 0.0
H959 H 0.5038 0.10536 0.03607 0.0
H960 H 0.59016 0.03555 1.00965 0.0
C961 C 0.55389 0.79722 1.00191 0.0
C962 C 0.50265 0.94053 1.01258 0.0
C963 C 0.55723 0.72674 1.0048 0.0
C964 C 0.51471 0.20989 0.02754 0.0
C965 C 0.51727 0.14046 0.02702 0.0
C966 C 0.56558 0.00961 1.01031 0.0
C967 C 0.53288 0.8305 1.01199 0.0
C968 C 0.53323 0.90507 1.01072 0.0
C969 C 0.53598 0.11672 1.01455 0.0
C970 C 0.53514 0.04429 1.01285 0.0
H971 H 0.50307 0.69384 0.03738 0.0
H972 H 0.49766 0.81653 0.03246 0.0
H973 H 0.58865 0.91393 1.00812 0.0
H974 H 0.56392 0.26722 0.99429 0.0
H975 H 0.5685 0.14556 0.9935 0.0
C976 C 0.38505 0.36128 1.00233 0.0
C977 C 0.40181 0.38319 1.01564 0.0
C978 C 0.35497 0.3228 1.00452 0.0
C979 C 0.30859 0.20641 0.03576 0.0
H980 H 0.23636 0.22393 1.0033 0.0
C981 C 0.17811 0.06395 0.04387 0.0
C982 C 0.1631 0.0422 0.0301 0.0
C983 C 0.20877 0.10103 0.04255 0.0
C984 C 0.25655 0.21773 1.01236 0.0
H985 H 0.39906 0.38414 0.04165 0.0
H986 H 0.34592 0.31758 0.04547 0.0
H987 H 0.28404 0.3042 1.00051 0.0
H988 H 0.16991 0.03876 1.00434 0.0
H989 H 0.22369 0.10298 1.00208 0.0
H990 H 0.28073 0.12013 0.04767 0.0
C991 C 0.35654 0.32947 0.03334 0.0
C992 C 0.28385 0.26397 1.0108 0.0
C993 C 0.38675 0.36833 0.03113 0.0
C994 C 0.18073 0.05456 1.01519 0.0
C995 C 0.21134 0.0921 1.01386 0.0
C996 C 0.28115 0.16027 0.03736 0.0
C997 C 0.34068 0.30508 0.02009 0.0
C998 C 0.31038 0.25867 0.02241 0.0
C999 C 0.22512 0.11757 0.02742 0.0
C1000 C 0.25493 0.1651 0.0256 0.0
H1001 H 0.39579 0.37177 0.99021 0.0
H1002 H 0.34377 0.30449 0.99405 0.0
H1003 H 0.32883 0.20007 0.04479 0.0
H1004 H 0.16533 0.05514 0.05557 0.0
H1005 H 0.21862 0.11992 0.05323 0.0
C1006 C 0.88744 0.85275 1.00053 0.0
C1007 C 0.90309 0.8759 1.01396 0.0
C1008 C 0.85779 0.8128 1.00249 0.0
C1009 C 0.81182 0.69469 0.03344 0.0
H1010 H 0.73938 0.71078 1.0011 0.0
C1011 C 0.68196 0.55193 0.04248 0.0
C1012 C 0.66583 0.53142 0.02884 0.0
C1013 C 0.71281 0.58831 0.04084 0.0
C1014 C 0.75966 0.70485 1.01011 0.0
H1015 H 0.89892 0.87751 0.03991 0.0
H1016 H 0.84663 0.80831 0.04331 0.0
H1017 H 0.78681 0.79168 0.99817 0.0
H1018 H 0.67093 0.52893 1.00295 0.0
H1019 H 0.72518 0.59152 1.00015 0.0
H1020 H 0.78449 0.60798 0.04543 0.0
C1021 C 0.85772 0.8204 0.03128 0.0
C1022 C 0.78679 0.75152 1.00848 0.0
C1023 C 0.88743 0.86076 0.0293 0.0
C1024 C 0.68263 0.54382 1.01372 0.0
C1025 C 0.7135 0.58051 1.01207 0.0
C1026 C 0.78464 0.648 0.03509 0.0
C1027 C 0.84297 0.79479 1.01794 0.0
C1028 C 0.81325 0.74701 0.0201 0.0
C1029 C 0.72832 0.60516 0.02552 0.0
C1030 C 0.75824 0.65245 0.02343 0.0
H1031 H 0.89876 0.86358 0.98852 0.0
H1032 H 0.84734 0.79366 0.99197 0.0
H1033 H 0.83208 0.68895 0.04247 0.0
H1034 H 0.66987 0.54297 0.05434 0.0
H1035 H 0.72341 0.60655 0.05145 0.0
C1036 C 0.09906 0.29361 0.26477 0.0
C1037 C 0.11594 0.2814 0.27986 0.0
C1038 C 0.06828 0.33052 0.26312 0.0
C1039 C 0.99729 0.39846 0.28618 0.0
H1040 H 0.99457 0.54067 0.24896 0.0
C1041 C 0.89356 0.60949 0.27994 0.0
C1042 C 0.87795 0.6238 0.26457 0.0
C1043 C 0.92339 0.5696 0.28201 0.0
C1044 C 0.99474 0.50092 0.25935 0.0
H1045 H 0.11214 0.29379 0.30531 0.0
H1046 H 0.05874 0.35771 0.30244 0.0
H1047 H 0.04223 0.46048 0.25199 0.0
H1048 H 0.88252 0.61046 0.23921 0.0
H1049 H 0.93413 0.54141 0.24282 0.0
H1050 H 0.94975 0.43906 0.29353 0.0
C1051 C 0.06922 0.33912 0.29185 0.0
C1052 C 0.02201 0.45465 0.26105 0.0
C1053 C 0.09999 0.30254 0.29348 0.0
C1054 C 0.89378 0.60026 0.25123 0.0
C1055 C 0.92355 0.56082 0.25329 0.0
C1056 C 0.96996 0.44474 0.28447 0.0
C1057 C 0.0536 0.35562 0.27655 0.0
C1058 C 0.02363 0.40274 0.27446 0.0
C1059 C 0.93835 0.54368 0.26875 0.0
C1060 C 0.9683 0.4965 0.27101 0.0
H1061 H 0.1106 0.27827 0.25401 0.0
H1062 H 0.05653 0.34122 0.25122 0.0
H1063 H 0.99759 0.35881 0.29659 0.0
H1064 H 0.88194 0.62654 0.29048 0.0
H1065 H 0.93444 0.55817 0.29405 0.0
C1066 C 0.38953 0.85526 0.52982 0.0
C1067 C 0.40476 0.87148 0.5144 0.0
C1068 C 0.36004 0.81427 0.53187 0.0
C1069 C 0.28873 0.74554 0.50924 0.0
H1070 H 0.28745 0.60078 0.54593 0.0
C1071 C 0.18512 0.5367 0.51448 0.0
C1072 C 0.16864 0.52315 0.52967 0.0
C1073 C 0.21584 0.5739 0.51279 0.0
C1074 C 0.28731 0.64115 0.53567 0.0
H1075 H 0.39986 0.86031 0.48892 0.0
H1076 H 0.3488 0.78936 0.49248 0.0
H1077 H 0.33486 0.68222 0.5429 0.0
H1078 H 0.17314 0.53354 0.55523 0.0
H1079 H 0.22646 0.59793 0.55226 0.0
H1080 H 0.24122 0.70469 0.50201 0.0
C1081 C 0.35943 0.80812 0.50301 0.0
C1082 C 0.31439 0.6881 0.53398 0.0
C1083 C 0.38888 0.84868 0.50098 0.0
C1084 C 0.18499 0.54321 0.54332 0.0
C1085 C 0.2157 0.58012 0.54163 0.0
C1086 C 0.2617 0.69861 0.51092 0.0
C1087 C 0.34504 0.78909 0.51852 0.0
C1088 C 0.31546 0.74088 0.52073 0.0
C1089 C 0.23087 0.59803 0.52625 0.0
C1090 C 0.26065 0.64575 0.52414 0.0
H1091 H 0.4012 0.87166 0.54042 0.0
H1092 H 0.3493 0.8014 0.54394 0.0
H1093 H 0.28845 0.78604 0.49901 0.0
H1094 H 0.17331 0.52216 0.5037 0.0
H1095 H 0.22724 0.58567 0.50082 0.0
C1096 C 0.88742 0.37398 0.53081 0.0
C1097 C 0.90203 0.39157 0.51529 0.0
C1098 C 0.85702 0.33572 0.53281 0.0
C1099 C 0.78335 0.2744 0.51006 0.0
H1100 H 0.78148 0.12634 0.546 0.0
C1101 C 0.68052 0.06369 0.51402 0.0
C1102 C 0.66349 0.04961 0.52905 0.0
C1103 C 0.71089 0.10205 0.5126 0.0
C1104 C 0.78154 0.16765 0.53595 0.0
H1105 H 0.89492 0.38621 0.48961 0.0
H1106 H 0.8425 0.31961 0.4931 0.0
H1107 H 0.82957 0.20614 0.54329 0.0
H1108 H 0.66635 0.06081 0.5546 0.0
H1109 H 0.71935 0.1267 0.55214 0.0
H1110 H 0.73551 0.2354 0.50263 0.0
C1111 C 0.85423 0.33533 0.50376 0.0
C1112 C 0.80899 0.21375 0.53445 0.0
C1113 C 0.8845 0.3734 0.50176 0.0
C1114 C 0.67876 0.07081 0.54282 0.0
C1115 C 0.70922 0.10855 0.54143 0.0
C1116 C 0.75604 0.22811 0.51151 0.0
C1117 C 0.84052 0.31444 0.51933 0.0
C1118 C 0.81031 0.26766 0.52146 0.0
C1119 C 0.72505 0.12649 0.52622 0.0
C1120 C 0.75485 0.17406 0.52444 0.0
H1121 H 0.90027 0.38693 0.5415 0.0
H1122 H 0.84684 0.3216 0.54496 0.0
H1123 H 0.78317 0.31584 0.50004 0.0
H1124 H 0.66941 0.04849 0.50315 0.0
H1125 H 0.7228 0.11416 0.50075 0.0
C1126 C 0.89327 0.10034 0.75115 0.0
C1127 C 0.87757 0.12485 0.76439 0.0
C1128 C 0.92316 0.06129 0.7533 0.0
C1129 C 0.9702 0.94811 0.7848 0.0
H1130 H 0.04191 0.96156 0.75207 0.0
C1131 C 0.10055 0.80695 0.7938 0.0
C1132 C 0.11598 0.78429 0.78024 0.0
C1133 C 0.06978 0.84352 0.79219 0.0
C1134 C 0.02185 0.95641 0.76121 0.0
H1135 H 0.88191 0.12985 0.79019 0.0
H1136 H 0.93462 0.06225 0.79391 0.0
H1137 H 0.99413 0.04146 0.74884 0.0
H1138 H 0.10972 0.77841 0.75455 0.0
H1139 H 0.05568 0.84139 0.75181 0.0
H1140 H 0.99814 0.86318 0.79721 0.0
C1141 C 0.92337 0.07254 0.78189 0.0
C1142 C 0.99451 0.00248 0.7594 0.0
C1143 C 0.89342 0.11198 0.77973 0.0
C1144 C 0.0986 0.79499 0.76526 0.0
C1145 C 0.06783 0.83188 0.76364 0.0
C1146 C 0.99761 0.90205 0.78663 0.0
C1147 C 0.9382 0.0456 0.76875 0.0
C1148 C 0.96826 -0.00119 0.77114 0.0
C1149 C 0.05367 0.85845 0.77697 0.0
C1150 C 0.02371 0.90549 0.77482 0.0
H1151 H 0.88183 0.10943 0.73915 0.0
H1152 H 0.93365 0.04105 0.74292 0.0
H1153 H 0.95014 0.94304 0.79394 0.0
H1154 H 0.1131 0.79939 0.80555 0.0
H1155 H 0.05967 0.86328 0.8027 0.0
C1156 C 0.6028 0.31902 0.79258 0.0
C1157 C 0.61772 0.29515 0.77905 0.0
C1158 C 0.57213 0.35593 0.79102 0.0
C1159 C 0.52325 0.46739 0.76012 0.0
H1160 H 0.45238 0.45433 0.79326 0.0
C1161 C 0.39426 0.61034 0.75057 0.0
C1162 C 0.37859 0.63442 0.76388 0.0
C1163 C 0.42432 0.57178 0.7526 0.0
C1164 C 0.47221 0.45937 0.78401 0.0
H1165 H 0.61079 0.28801 0.75346 0.0
H1166 H 0.55696 0.35182 0.7508 0.0
H1167 H 0.5006 0.37503 0.79639 0.0
H1168 H 0.38327 0.63932 0.78968 0.0
H1169 H 0.43631 0.57276 0.79317 0.0
H1170 H 0.4951 0.5519 0.74779 0.0
C1171 C 0.5694 0.3428 0.76257 0.0
C1172 C 0.49975 0.4136 0.78576 0.0
C1173 C 0.60005 0.30548 0.76414 0.0
C1174 C 0.39471 0.62177 0.77916 0.0
C1175 C 0.42487 0.58289 0.7812 0.0
C1176 C 0.4958 0.51322 0.7584 0.0
C1177 C 0.55563 0.37014 0.77588 0.0
C1178 C 0.52555 0.41691 0.77381 0.0
C1179 C 0.43962 0.5562 0.768 0.0
C1180 C 0.46984 0.5097 0.77028 0.0
H1181 H 0.6156 0.31186 0.80427 0.0
H1182 H 0.56236 0.37635 0.80151 0.0
H1183 H 0.54306 0.47239 0.75086 0.0
H1184 H 0.38262 0.61924 0.73862 0.0
H1185 H 0.43472 0.55174 0.74218 0.0
C1186 C 0.60258 0.81438 0.2931 0.0
C1187 C 0.61785 0.79347 0.27929 0.0
C1188 C 0.57194 0.85138 0.29178 0.0
C1189 C 0.52492 0.96975 0.26179 0.0
H1190 H 0.45201 0.95022 0.29396 0.0
C1191 C 0.39677 0.11449 0.25203 0.0
C1192 C 0.37987 0.13507 0.26546 0.0
C1193 C 0.42683 0.076 0.2541 0.0
C1194 C 0.47243 0.95708 0.28501 0.0
H1195 H 0.61161 0.79143 0.25345 0.0
H1196 H 0.55785 0.85562 0.25119 0.0
H1197 H 0.49986 0.86993 0.29667 0.0
H1198 H 0.38234 0.13402 0.29154 0.0
H1199 H 0.43544 0.06751 0.29515 0.0
H1200 H 0.49784 0.05711 0.25019 0.0
C1201 C 0.56995 0.84408 0.263 0.0
C1202 C 0.49973 0.91074 0.28651 0.0
C1203 C 0.60054 0.80656 0.26433 0.0
C1204 C 0.39479 0.11919 0.28094 0.0
C1205 C 0.42496 0.08034 0.28303 0.0
C1206 C 0.49776 0.0162 0.26033 0.0
C1207 C 0.5559 0.8687 0.27662 0.0
C1208 C 0.52618 0.91629 0.27485 0.0
C1209 C 0.44091 0.05701 0.26966 0.0
C1210 C 0.47102 0.01026 0.27185 0.0
H1211 H 0.61517 0.80499 0.30483 0.0
H1212 H 0.56188 0.86963 0.3025 0.0
H1213 H 0.54531 -0.02352 0.25281 0.0
H1214 H 0.38608 0.12601 0.23991 0.0
H1215 H 0.43814 0.05859 0.24354 0.0
loop_
_geom_bond_atom_site_label_1
_geom_bond_atom_site_label_2
_geom_bond_distance
_geom_bond_site_symmetry_2
_ccdc_geom_bond_type
Co0 H3 2.400 1_565 S
Co0 O4 2.009 1_565 S
Co0 O12 2.115 . S
Co0 O13 2.315 1_565 S
Co0 O24 2.053 . S
Co0 O27 2.094 1_655 S
Co0 O30 2.122 1_655 S
Co1 O4 2.126 1_455 S
Co1 H5 2.388 1_546 S
Co1 O6 2.053 1_546 S
Co1 O9 2.047 . S
Co1 O15 2.113 . S
Co1 O26 2.063 . S
Co2 H3 2.388 1_564 S
Co2 O4 2.053 1_564 S
Co2 O6 2.126 1_655 S
Co2 O11 2.063 . S
Co2 O25 2.047 . S
Co2 O31 2.113 . S
H3 Co0 2.400 1_545 S
H3 Co2 2.388 1_546 S
H3 O4 0.760 . S
O4 Co0 2.009 1_545 S
O4 Co1 2.126 1_655 S
O4 Co2 2.053 1_546 S
O4 H3 0.760 . S
H5 Co1 2.388 1_564 S
H5 O6 0.760 . S
H5 Co7 2.400 1_565 S
O6 Co1 2.053 1_564 S
O6 Co2 2.126 1_455 S
O6 H5 0.760 . S
O6 Co7 2.009 1_565 S
Co7 H5 2.400 1_545 S
Co7 O6 2.009 1_545 S
Co7 O8 2.053 . S
Co7 O10 2.094 . S
Co7 O14 2.122 . S
Co7 O28 2.115 . S
Co7 O29 2.315 1_545 S
O8 Co7 2.053 . S
O8 C20 1.259 . S
O9 Co1 2.047 . S
O9 C20 1.257 1_556 S
O10 Co7 2.094 . S
O10 C21 1.253 1_445 S
O11 Co2 2.063 . S
O11 C21 1.268 . S
O12 Co0 2.115 . S
O12 C22 1.281 . S
O13 Co0 2.315 1_545 S
O13 C22 1.252 1_545 S
O14 Co7 2.122 . S
O14 C23 1.272 . S
O15 Co1 2.113 . S
O15 C23 1.245 1_556 S
C16 O24 1.259 . S
C16 O25 1.257 1_556 S
C17 O26 1.268 . S
C17 O27 1.253 1_545 S
C18 O28 1.281 . S
C18 O29 1.252 1_545 S
C19 O30 1.275 1_554 S
C19 O31 1.242 1_455 S
C20 O8 1.259 . S
C20 O9 1.257 1_554 S
C21 O10 1.253 1_665 S
C21 O11 1.268 . S
C22 O12 1.281 . S
C22 O13 1.252 1_565 S
C23 O14 1.272 . S
C23 O15 1.245 1_554 S
O24 Co0 2.053 . S
O24 C16 1.259 . S
O25 Co2 2.047 . S
O25 C16 1.257 1_554 S
O26 Co1 2.063 . S
O26 C17 1.268 . S
O27 Co0 2.094 1_455 S
O27 C17 1.253 1_565 S
O28 Co7 2.115 . S
O28 C18 1.281 . S
O29 Co7 2.315 1_565 S
O29 C18 1.252 1_565 S
O30 Co0 2.122 1_455 S
O30 C19 1.275 1_556 S
O31 Co2 2.113 . S
O31 C19 1.242 1_655 S
Co32 H35 2.400 . S
Co32 O36 2.009 . S
Co32 O44 2.115 . S
Co32 O45 2.315 . S
Co32 O56 2.053 . S
Co32 O59 2.094 . S
Co32 O62 2.122 . S
Co33 O36 2.126 . S
Co33 H37 2.388 . S
Co33 O38 2.053 . S
Co33 O41 2.047 . S
Co33 O47 2.113 . S
Co33 O58 2.063 . S
Co34 H35 2.388 . S
Co34 O36 2.053 . S
Co34 O38 2.126 . S
Co34 O43 2.063 . S
Co34 O57 2.047 . S
Co34 O63 2.113 . S
H35 Co32 2.400 . S
H35 Co34 2.388 . S
H35 O36 0.760 . S
O36 Co32 2.009 . S
O36 Co33 2.126 . S
O36 Co34 2.053 . S
O36 H35 0.760 . S
H37 Co33 2.388 . S
H37 O38 0.760 . S
H37 Co39 2.400 . S
O38 Co33 2.053 . S
O38 Co34 2.126 . S
O38 H37 0.760 . S
O38 Co39 2.009 . S
Co39 H37 2.400 . S
Co39 O38 2.009 . S
Co39 O40 2.053 . S
Co39 O42 2.094 . S
Co39 O46 2.122 . S
Co39 O60 2.115 . S
Co39 O61 2.315 . S
O40 Co39 2.053 . S
O40 C52 1.259 . S
O41 Co33 2.047 . S
O41 C52 1.257 . S
O42 Co39 2.094 . S
O42 C53 1.253 . S
O43 Co34 2.063 . S
O43 C53 1.268 . S
O44 Co32 2.115 . S
O44 C54 1.281 . S
O45 Co32 2.315 . S
O45 C54 1.252 . S
O46 Co39 2.122 . S
O46 C55 1.272 . S
O47 Co33 2.113 . S
O47 C55 1.245 . S
C48 O56 1.259 . S
C48 O57 1.257 . S
C49 O58 1.268 . S
C49 O59 1.253 . S
C50 O60 1.281 . S
C50 O61 1.252 . S
C51 O62 1.272 . S
C51 O63 1.245 . S
C52 O40 1.259 . S
C52 O41 1.257 . S
C53 O42 1.253 . S
C53 O43 1.268 . S
C54 O44 1.281 . S
C54 O45 1.252 . S
C55 O46 1.272 . S
C55 O47 1.245 . S
O56 Co32 2.053 . S
O56 C48 1.259 . S
O57 Co34 2.047 . S
O57 C48 1.257 . S
O58 Co33 2.063 . S
O58 C49 1.268 . S
O59 Co32 2.094 . S
O59 C49 1.253 . S
O60 Co39 2.115 . S
O60 C50 1.281 . S
O61 Co39 2.315 . S
O61 C50 1.252 . S
O62 Co32 2.122 . S
O62 C51 1.272 . S
O63 Co34 2.113 . S
O63 C51 1.245 . S
Co64 H67 2.400 . S
Co64 O68 2.009 . S
Co64 O76 2.115 . S
Co64 O77 2.315 . S
Co64 O88 2.053 . S
Co64 O91 2.094 . S
Co64 O94 2.122 . S
Co65 O68 2.126 . S
Co65 H69 2.388 . S
Co65 O70 2.053 . S
Co65 O73 2.047 . S
Co65 O79 2.113 . S
Co65 O90 2.063 . S
Co66 H67 2.388 . S
Co66 O68 2.053 . S
Co66 O70 2.126 . S
Co66 O75 2.063 . S
Co66 O89 2.047 . S
Co66 O95 2.113 . S
H67 Co64 2.400 . S
H67 Co66 2.388 . S
H67 O68 0.760 . S
O68 Co64 2.009 . S
O68 Co65 2.126 . S
O68 Co66 2.053 . S
O68 H67 0.760 . S
H69 Co65 2.388 . S
H69 O70 0.760 . S
H69 Co71 2.400 . S
O70 Co65 2.053 . S
O70 Co66 2.126 . S
O70 H69 0.760 . S
O70 Co71 2.009 . S
Co71 H69 2.400 . S
Co71 O70 2.009 . S
Co71 O72 2.053 . S
Co71 O74 2.094 . S
Co71 O78 2.122 . S
Co71 O92 2.115 . S
Co71 O93 2.315 . S
O72 Co71 2.053 . S
O72 C84 1.259 . S
O73 Co65 2.047 . S
O73 C84 1.257 . S
O74 Co71 2.094 . S
O74 C85 1.253 . S
O75 Co66 2.063 . S
O75 C85 1.268 . S
O76 Co64 2.115 . S
O76 C86 1.281 . S
O77 Co64 2.315 . S
O77 C86 1.252 . S
O78 Co71 2.122 . S
O78 C87 1.272 . S
O79 Co65 2.113 . S
O79 C87 1.245 . S
C80 O88 1.259 . S
C80 O89 1.257 . S
C81 O90 1.268 . S
C81 O91 1.253 . S
C82 O92 1.281 . S
C82 O93 1.252 . S
C83 O94 1.272 . S
C83 O95 1.245 . S
C84 O72 1.259 . S
C84 O73 1.257 . S
C85 O74 1.253 . S
C85 O75 1.268 . S
C86 O76 1.281 . S
C86 O77 1.252 . S
C87 O78 1.272 . S
C87 O79 1.245 . S
O88 Co64 2.053 . S
O88 C80 1.259 . S
O89 Co66 2.047 . S
O89 C80 1.257 . S
O90 Co65 2.063 . S
O90 C81 1.268 . S
O91 Co64 2.094 . S
O91 C81 1.253 . S
O92 Co71 2.115 . S
O92 C82 1.281 . S
O93 Co71 2.315 . S
O93 C82 1.252 . S
O94 Co64 2.122 . S
O94 C83 1.272 . S
O95 Co66 2.113 . S
O95 C83 1.245 . S
Co96 H99 2.400 . S
Co96 O100 2.009 . S
Co96 O108 2.115 . S
Co96 O109 2.315 . S
Co96 O120 2.053 . S
Co96 O123 2.094 1_655 S
Co96 O126 2.122 1_655 S
Co97 O100 2.126 1_455 S
Co97 H101 2.388 . S
Co97 O102 2.053 . S
Co97 O105 2.047 . S
Co97 O111 2.113 . S
Co97 O122 2.063 . S
Co98 H99 2.388 . S
Co98 O100 2.053 . S
Co98 O102 2.126 1_655 S
Co98 O107 2.063 . S
Co98 O121 2.047 . S
Co98 O127 2.113 . S
H99 Co96 2.400 . S
H99 Co98 2.388 . S
H99 O100 0.760 . S
O100 Co96 2.009 . S
O100 Co97 2.126 1_655 S
O100 Co98 2.053 . S
O100 H99 0.760 . S
H101 Co97 2.388 . S
H101 O102 0.760 . S
H101 Co103 2.400 . S
O102 Co97 2.053 . S
O102 Co98 2.126 1_455 S
O102 H101 0.760 . S
O102 Co103 2.009 . S
Co103 H101 2.400 . S
Co103 O102 2.009 . S
Co103 O104 2.053 . S
Co103 O106 2.094 . S
Co103 O110 2.122 . S
Co103 O124 2.115 . S
Co103 O125 2.315 . S
O104 Co103 2.053 . S
O104 C116 1.259 . S
O105 Co97 2.047 . S
O105 C116 1.257 . S
O106 Co103 2.094 . S
O106 C117 1.253 1_455 S
O107 Co98 2.063 . S
O107 C117 1.268 . S
O108 Co96 2.115 . S
O108 C118 1.281 . S
O109 Co96 2.315 . S
O109 C118 1.252 . S
O110 Co103 2.122 . S
O110 C119 1.272 . S
O111 Co97 2.113 . S
O111 C119 1.245 . S
C112 O120 1.259 . S
C112 O121 1.257 . S
C113 O122 1.268 . S
C113 O123 1.253 . S
C114 O124 1.281 . S
C114 O125 1.252 . S
C115 O126 1.272 . S
C115 O127 1.245 1_455 S
C116 O104 1.259 . S
C116 O105 1.257 . S
C117 O106 1.253 1_655 S
C117 O107 1.268 . S
C118 O108 1.281 . S
C118 O109 1.252 . S
C119 O110 1.272 . S
C119 O111 1.245 . S
O120 Co96 2.053 . S
O120 C112 1.259 . S
O121 Co98 2.047 . S
O121 C112 1.257 . S
O122 Co97 2.063 . S
O122 C113 1.268 . S
O123 Co96 2.094 1_455 S
O123 C113 1.253 . S
O124 Co103 2.115 . S
O124 C114 1.281 . S
O125 Co103 2.315 . S
O125 C114 1.252 . S
O126 Co96 2.122 1_455 S
O126 C115 1.272 . S
O127 Co98 2.113 . S
O127 C115 1.245 1_655 S
Co128 H131 2.400 . S
Co128 O132 2.009 . S
Co128 O140 2.115 . S
Co128 O141 2.315 . S
Co128 O152 2.053 . S
Co128 O155 2.094 . S
Co128 O158 2.122 . S
Co129 O132 2.126 . S
Co129 H133 2.388 . S
Co129 O134 2.053 . S
Co129 O137 2.047 . S
Co129 O143 2.113 . S
Co129 O154 2.063 . S
Co130 H131 2.388 . S
Co130 O132 2.053 . S
Co130 O134 2.126 . S
Co130 O139 2.063 . S
Co130 O153 2.047 . S
Co130 O159 2.113 . S
H131 Co128 2.400 . S
H131 Co130 2.388 . S
H131 O132 0.760 . S
O132 Co128 2.009 . S
O132 Co129 2.126 . S
O132 Co130 2.053 . S
O132 H131 0.760 . S
H133 Co129 2.388 . S
H133 O134 0.760 . S
H133 Co135 2.400 . S
O134 Co129 2.053 . S
O134 Co130 2.126 . S
O134 H133 0.760 . S
O134 Co135 2.009 . S
Co135 H133 2.400 . S
Co135 O134 2.009 . S
Co135 O136 2.053 . S
Co135 O138 2.094 . S
Co135 O142 2.122 . S
Co135 O156 2.115 . S
Co135 O157 2.315 . S
O136 Co135 2.053 . S
O136 C148 1.259 . S
O137 Co129 2.047 . S
O137 C148 1.257 . S
O138 Co135 2.094 . S
O138 C149 1.253 . S
O139 Co130 2.063 . S
O139 C149 1.268 . S
O140 Co128 2.115 . S
O140 C150 1.281 . S
O141 Co128 2.315 . S
O141 C150 1.252 . S
O142 Co135 2.122 . S
O142 C151 1.272 . S
O143 Co129 2.113 . S
O143 C151 1.245 . S
C144 O152 1.259 . S
C144 O153 1.257 . S
C145 O154 1.268 . S
C145 O155 1.253 . S
C146 O156 1.281 . S
C146 O157 1.252 . S
C147 O158 1.272 . S
C147 O159 1.245 . S
C148 O136 1.259 . S
C148 O137 1.257 . S
C149 O138 1.253 . S
C149 O139 1.268 . S
C150 O140 1.281 . S
C150 O141 1.252 . S
C151 O142 1.272 . S
C151 O143 1.245 . S
O152 Co128 2.053 . S
O152 C144 1.259 . S
O153 Co130 2.047 . S
O153 C144 1.257 . S
O154 Co129 2.063 . S
O154 C145 1.268 . S
O155 Co128 2.094 . S
O155 C145 1.253 . S
O156 Co135 2.115 . S
O156 C146 1.281 . S
O157 Co135 2.315 . S
O157 C146 1.252 . S
O158 Co128 2.122 . S
O158 C147 1.272 . S
O159 Co130 2.113 . S
O159 C147 1.245 . S
Co160 H163 2.400 . S
Co160 O164 2.009 . S
Co160 O172 2.115 . S
Co160 O173 2.315 . S
Co160 O184 2.053 . S
Co160 O187 2.094 . S
Co160 O190 2.122 . S
Co161 O164 2.126 . S
Co161 H165 2.388 . S
Co161 O166 2.053 . S
Co161 O169 2.047 . S
Co161 O175 2.113 . S
Co161 O186 2.063 . S
Co162 H163 2.388 . S
Co162 O164 2.053 . S
Co162 O166 2.126 . S
Co162 O171 2.063 . S
Co162 O185 2.047 . S
Co162 O191 2.113 . S
H163 Co160 2.400 . S
H163 Co162 2.388 . S
H163 O164 0.760 . S
O164 Co160 2.009 . S
O164 Co161 2.126 . S
O164 Co162 2.053 . S
O164 H163 0.760 . S
H165 Co161 2.388 . S
H165 O166 0.760 . S
H165 Co167 2.400 . S
O166 Co161 2.053 . S
O166 Co162 2.126 . S
O166 H165 0.760 . S
O166 Co167 2.009 . S
Co167 H165 2.400 . S
Co167 O166 2.009 . S
Co167 O168 2.053 . S
Co167 O170 2.094 . S
Co167 O174 2.122 . S
Co167 O188 2.115 . S
Co167 O189 2.315 . S
O168 Co167 2.053 . S
O168 C180 1.259 . S
O169 Co161 2.047 . S
O169 C180 1.257 . S
O170 Co167 2.094 . S
O170 C181 1.253 . S
O171 Co162 2.063 . S
O171 C181 1.268 . S
O172 Co160 2.115 . S
O172 C182 1.281 . S
O173 Co160 2.315 . S
O173 C182 1.252 . S
O174 Co167 2.122 . S
O174 C183 1.272 . S
O175 Co161 2.113 . S
O175 C183 1.245 . S
C176 O184 1.259 . S
C176 O185 1.257 . S
C177 O186 1.268 . S
C177 O187 1.253 . S
C178 O188 1.281 . S
C178 O189 1.252 . S
C179 O190 1.272 . S
C179 O191 1.245 . S
C180 O168 1.259 . S
C180 O169 1.257 . S
C181 O170 1.253 . S
C181 O171 1.268 . S
C182 O172 1.281 . S
C182 O173 1.252 . S
C183 O174 1.272 . S
C183 O175 1.245 . S
O184 Co160 2.053 . S
O184 C176 1.259 . S
O185 Co162 2.047 . S
O185 C176 1.257 . S
O186 Co161 2.063 . S
O186 C177 1.268 . S
O187 Co160 2.094 . S
O187 C177 1.253 . S
O188 Co167 2.115 . S
O188 C178 1.281 . S
O189 Co167 2.315 . S
O189 C178 1.252 . S
O190 Co160 2.122 . S
O190 C179 1.272 . S
O191 Co162 2.113 . S
O191 C179 1.245 . S
Co192 H195 2.400 1_565 S
Co192 O196 2.009 1_565 S
Co192 O204 2.115 . S
Co192 O205 2.315 1_565 S
Co192 O216 2.053 . S
Co192 O219 2.094 . S
Co192 O222 2.122 . S
Co193 O196 2.126 . S
Co193 H197 2.388 1_545 S
Co193 O198 2.053 1_545 S
Co193 O201 2.047 . S
Co193 O207 2.113 . S
Co193 O218 2.063 . S
Co194 H195 2.388 1_565 S
Co194 O196 2.053 1_565 S
Co194 O198 2.126 . S
Co194 O203 2.063 . S
Co194 O217 2.047 . S
Co194 O223 2.113 . S
H195 Co192 2.400 1_545 S
H195 Co194 2.388 1_545 S
H195 O196 0.760 . S
O196 Co192 2.009 1_545 S
O196 Co193 2.126 . S
O196 Co194 2.053 1_545 S
O196 H195 0.760 . S
H197 Co193 2.388 1_565 S
H197 O198 0.760 . S
H197 Co199 2.400 1_565 S
O198 Co193 2.053 1_565 S
O198 Co194 2.126 . S
O198 H197 0.760 . S
O198 Co199 2.009 1_565 S
Co199 H197 2.400 1_545 S
Co199 O198 2.009 1_545 S
Co199 O200 2.053 . S
Co199 O202 2.094 . S
Co199 O206 2.122 . S
Co199 O220 2.115 . S
Co199 O221 2.315 1_545 S
O200 Co199 2.053 . S
O200 C212 1.259 . S
O201 Co193 2.047 . S
O201 C212 1.257 . S
O202 Co199 2.094 . S
O202 C213 1.253 1_545 S
O203 Co194 2.063 . S
O203 C213 1.268 . S
O204 Co192 2.115 . S
O204 C214 1.281 . S
O205 Co192 2.315 1_545 S
O205 C214 1.252 1_545 S
O206 Co199 2.122 . S
O206 C215 1.272 . S
O207 Co193 2.113 . S
O207 C215 1.245 . S
C208 O216 1.259 . S
C208 O217 1.257 . S
C209 O218 1.268 . S
C209 O219 1.253 1_545 S
C210 O220 1.281 . S
C210 O221 1.252 1_545 S
C211 O222 1.272 . S
C211 O223 1.245 . S
C212 O200 1.259 . S
C212 O201 1.257 . S
C213 O202 1.253 1_565 S
C213 O203 1.268 . S
C214 O204 1.281 . S
C214 O205 1.252 1_565 S
C215 O206 1.272 . S
C215 O207 1.245 . S
O216 Co192 2.053 . S
O216 C208 1.259 . S
O217 Co194 2.047 . S
O217 C208 1.257 . S
O218 Co193 2.063 . S
O218 C209 1.268 . S
O219 Co192 2.094 . S
O219 C209 1.253 1_565 S
O220 Co199 2.115 . S
O220 C210 1.281 . S
O221 Co199 2.315 1_565 S
O221 C210 1.252 1_565 S
O222 Co192 2.122 . S
O222 C211 1.272 . S
O223 Co194 2.113 . S
O223 C211 1.245 . S
Co224 H227 2.400 . S
Co224 O228 2.009 . S
Co224 O236 2.115 . S
Co224 O237 2.315 . S
Co224 O248 2.053 . S
Co224 O251 2.094 . S
Co224 O254 2.122 . S
Co225 O228 2.126 . S
Co225 H229 2.388 1_556 S
Co225 O230 2.053 1_556 S
Co225 O233 2.047 . S
Co225 O239 2.113 . S
Co225 O250 2.063 . S
Co226 H227 2.388 1_554 S
Co226 O228 2.053 1_554 S
Co226 O230 2.126 . S
Co226 O235 2.063 . S
Co226 O249 2.047 . S
Co226 O255 2.113 . S
H227 Co224 2.400 . S
H227 Co226 2.388 1_556 S
H227 O228 0.760 . S
O228 Co224 2.009 . S
O228 Co225 2.126 . S
O228 Co226 2.053 1_556 S
O228 H227 0.760 . S
H229 Co225 2.388 1_554 S
H229 O230 0.760 . S
H229 Co231 2.400 . S
O230 Co225 2.053 1_554 S
O230 Co226 2.126 . S
O230 H229 0.760 . S
O230 Co231 2.009 . S
Co231 H229 2.400 . S
Co231 O230 2.009 . S
Co231 O232 2.053 . S
Co231 O234 2.094 . S
Co231 O238 2.122 . S
Co231 O252 2.115 . S
Co231 O253 2.315 . S
O232 Co231 2.053 . S
O232 C244 1.259 . S
O233 Co225 2.047 . S
O233 C244 1.257 1_556 S
O234 Co231 2.094 . S
O234 C245 1.253 . S
O235 Co226 2.063 . S
O235 C245 1.268 . S
O236 Co224 2.115 . S
O236 C246 1.281 . S
O237 Co224 2.315 . S
O237 C246 1.252 . S
O238 Co231 2.122 . S
O238 C247 1.272 . S
O239 Co225 2.113 . S
O239 C247 1.245 1_556 S
C240 O248 1.259 . S
C240 O249 1.257 1_556 S
C241 O250 1.268 . S
C241 O251 1.253 . S
C242 O252 1.281 . S
C242 O253 1.252 . S
C243 O254 1.275 1_554 S
C243 O255 1.242 . S
C244 O232 1.259 . S
C244 O233 1.257 1_554 S
C245 O234 1.253 . S
C245 O235 1.268 . S
C246 O236 1.281 . S
C246 O237 1.252 . S
C247 O238 1.272 . S
C247 O239 1.245 1_554 S
O248 Co224 2.053 . S
O248 C240 1.259 . S
O249 Co226 2.047 . S
O249 C240 1.257 1_554 S
O250 Co225 2.063 . S
O250 C241 1.268 . S
O251 Co224 2.094 . S
O251 C241 1.253 . S
O252 Co231 2.115 . S
O252 C242 1.281 . S
O253 Co231 2.315 . S
O253 C242 1.252 . S
O254 Co224 2.122 . S
O254 C243 1.275 1_556 S
O255 Co226 2.113 . S
O255 C243 1.242 . S
C256 C257 1.349 . S
C256 C258 1.327 . S
C256 H281 0.950 1_545 S
C257 C256 1.349 . S
C257 C273 1.349 . S
C258 C256 1.327 . S
C258 C277 1.429 . S
C258 H282 0.950 . S
C259 C276 1.574 . S
C259 C278 1.368 . S
C259 H283 0.949 . S
H260 C264 0.949 . S
C261 C262 1.349 . S
C261 C263 1.327 . S
C261 H284 0.950 . S
C262 C261 1.349 . S
C262 C274 1.349 . S
C263 C261 1.327 . S
C263 C279 1.429 . S
C263 H285 0.950 . S
C264 H260 0.949 . S
C264 C272 1.574 . S
C264 C280 1.368 . S
H265 C273 0.950 . S
H266 C271 0.950 . S
H267 C272 0.949 . S
H268 C274 0.950 . S
H269 C275 0.950 . S
H270 C276 0.949 . S
C271 H266 0.950 . S
C271 C273 1.327 . S
C271 C277 1.429 . S
C272 C264 1.574 . S
C272 H267 0.949 . S
C272 C278 1.368 . S
C273 C257 1.349 . S
C273 H265 0.950 . S
C273 C271 1.327 . S
C274 C262 1.349 . S
C274 H268 0.950 . S
C274 C275 1.327 . S
C275 H269 0.950 . S
C275 C274 1.327 . S
C275 C279 1.429 . S
C276 C259 1.574 . S
C276 H270 0.949 . S
C276 C280 1.368 . S
C277 C258 1.429 . S
C277 C271 1.429 . S
C277 C278 1.523 . S
C278 C259 1.368 . S
C278 C272 1.368 . S
C278 C277 1.523 . S
C279 C263 1.429 . S
C279 C275 1.429 . S
C279 C280 1.523 . S
C280 C264 1.368 . S
C280 C276 1.368 . S
C280 C279 1.523 . S
H281 C256 0.950 1_565 S
H282 C258 0.950 . S
H283 C259 0.949 . S
H284 C261 0.950 . S
H285 C263 0.950 . S
C286 C287 1.349 . S
C286 C288 1.327 . S
C286 H311 0.950 1_565 S
C287 C286 1.349 . S
C287 C303 1.349 . S
C288 C286 1.327 . S
C288 C307 1.429 . S
C288 H312 0.950 . S
C289 C306 1.574 . S
C289 C308 1.368 . S
C289 H313 0.949 . S
H290 C294 0.949 . S
C291 C292 1.349 . S
C291 C293 1.327 . S
C291 H314 0.950 . S
C292 C291 1.349 . S
C292 C304 1.349 . S
C293 C291 1.327 . S
C293 C309 1.429 . S
C293 H315 0.950 . S
C294 H290 0.949 . S
C294 C302 1.574 . S
C294 C310 1.368 . S
H295 C303 0.950 . S
H296 C301 0.950 . S
H297 C302 0.949 . S
H298 C304 0.950 . S
H299 C305 0.950 . S
H300 C306 0.949 . S
C301 H296 0.950 . S
C301 C303 1.327 . S
C301 C307 1.429 . S
C302 C294 1.574 . S
C302 H297 0.949 . S
C302 C308 1.368 . S
C303 C287 1.349 . S
C303 H295 0.950 . S
C303 C301 1.327 . S
C304 C292 1.349 . S
C304 H298 0.950 . S
C304 C305 1.327 . S
C305 H299 0.950 . S
C305 C304 1.327 . S
C305 C309 1.429 . S
C306 C289 1.574 . S
C306 H300 0.949 . S
C306 C310 1.368 . S
C307 C288 1.429 . S
C307 C301 1.429 . S
C307 C308 1.523 . S
C308 C289 1.368 . S
C308 C302 1.368 . S
C308 C307 1.523 . S
C309 C293 1.429 . S
C309 C305 1.429 . S
C309 C310 1.523 . S
C310 C294 1.368 . S
C310 C306 1.368 . S
C310 C309 1.523 . S
H311 C286 0.950 1_545 S
H312 C288 0.950 . S
H313 C289 0.949 . S
H314 C291 0.950 . S
H315 C293 0.950 . S
C316 C317 1.349 . S
C316 C318 1.327 . S
C316 H341 0.950 . S
C317 C316 1.349 . S
C317 C333 1.349 . S
C318 C316 1.327 . S
C318 C337 1.429 . S
C318 H342 0.950 . S
C319 C336 1.574 . S
C319 C338 1.368 . S
C319 H343 0.949 . S
H320 C324 0.949 . S
C321 C322 1.349 . S
C321 C323 1.327 . S
C321 H344 0.950 . S
C322 C321 1.349 . S
C322 C334 1.349 . S
C323 C321 1.327 . S
C323 C339 1.429 . S
C323 H345 0.950 . S
C324 H320 0.949 . S
C324 C332 1.574 . S
C324 C340 1.368 . S
H325 C333 0.950 . S
H326 C331 0.950 . S
H327 C332 0.949 . S
H328 C334 0.950 . S
H329 C335 0.950 . S
H330 C336 0.949 . S
C331 H326 0.950 . S
C331 C333 1.327 . S
C331 C337 1.429 . S
C332 C324 1.574 . S
C332 H327 0.949 . S
C332 C338 1.368 . S
C333 C317 1.349 . S
C333 H325 0.950 . S
C333 C331 1.327 . S
C334 C322 1.349 . S
C334 H328 0.950 . S
C334 C335 1.327 . S
C335 H329 0.950 . S
C335 C334 1.327 . S
C335 C339 1.429 . S
C336 C319 1.574 . S
C336 H330 0.949 . S
C336 C340 1.368 . S
C337 C318 1.429 . S
C337 C331 1.429 . S
C337 C338 1.523 . S
C338 C319 1.368 . S
C338 C332 1.368 . S
C338 C337 1.523 . S
C339 C323 1.429 . S
C339 C335 1.429 . S
C339 C340 1.523 . S
C340 C324 1.368 . S
C340 C336 1.368 . S
C340 C339 1.523 . S
H341 C316 0.950 . S
H342 C318 0.950 . S
H343 C319 0.949 . S
H344 C321 0.950 . S
H345 C323 0.950 . S
C346 C347 1.349 . S
C346 C348 1.327 . S
C346 H371 0.950 . S
C347 C346 1.349 . S
C347 C363 1.349 . S
C348 C346 1.327 . S
C348 C367 1.429 . S
C348 H372 0.950 . S
C349 C366 1.574 . S
C349 C368 1.368 . S
C349 H373 0.949 . S
H350 C354 0.949 . S
C351 C352 1.349 . S
C351 C353 1.327 . S
C351 H374 0.950 . S
C352 C351 1.349 . S
C352 C364 1.349 . S
C353 C351 1.327 . S
C353 C369 1.429 . S
C353 H375 0.950 . S
C354 H350 0.949 . S
C354 C362 1.574 . S
C354 C370 1.368 . S
H355 C363 0.950 . S
H356 C361 0.950 . S
H357 C362 0.949 . S
H358 C364 0.950 . S
H359 C365 0.950 . S
H360 C366 0.949 . S
C361 H356 0.950 . S
C361 C363 1.327 . S
C361 C367 1.429 . S
C362 C354 1.574 . S
C362 H357 0.949 . S
C362 C368 1.368 . S
C363 C347 1.349 . S
C363 H355 0.950 . S
C363 C361 1.327 . S
C364 C352 1.349 . S
C364 H358 0.950 . S
C364 C365 1.327 . S
C365 H359 0.950 . S
C365 C364 1.327 . S
C365 C369 1.429 . S
C366 C349 1.574 . S
C366 H360 0.949 . S
C366 C370 1.368 . S
C367 C348 1.429 . S
C367 C361 1.429 . S
C367 C368 1.523 . S
C368 C349 1.368 . S
C368 C362 1.368 . S
C368 C367 1.523 . S
C369 C353 1.429 . S
C369 C365 1.429 . S
C369 C370 1.523 . S
C370 C354 1.368 . S
C370 C366 1.368 . S
C370 C369 1.523 . S
H371 C346 0.950 . S
H372 C348 0.950 . S
H373 C349 0.949 . S
H374 C351 0.950 . S
H375 C353 0.950 . S
C376 C377 1.349 . S
C376 C378 1.327 . S
C376 H401 0.950 . S
C377 C376 1.349 . S
C377 C393 1.349 . S
C378 C376 1.327 . S
C378 C397 1.429 . S
C378 H402 0.950 . S
C379 C396 1.574 . S
C379 C398 1.368 . S
C379 H403 0.949 . S
H380 C384 0.949 . S
C381 C382 1.349 . S
C381 C383 1.327 . S
C381 H404 0.950 . S
C382 C381 1.349 . S
C382 C394 1.349 . S
C383 C381 1.327 . S
C383 C399 1.429 . S
C383 H405 0.950 . S
C384 H380 0.949 . S
C384 C392 1.574 . S
C384 C400 1.368 . S
H385 C393 0.950 . S
H386 C391 0.950 . S
H387 C392 0.949 . S
H388 C394 0.950 . S
H389 C395 0.950 . S
H390 C396 0.949 . S
C391 H386 0.950 . S
C391 C393 1.327 . S
C391 C397 1.429 . S
C392 C384 1.574 . S
C392 H387 0.949 . S
C392 C398 1.368 . S
C393 C377 1.349 . S
C393 H385 0.950 . S
C393 C391 1.327 . S
C394 C382 1.349 . S
C394 H388 0.950 . S
C394 C395 1.327 . S
C395 H389 0.950 . S
C395 C394 1.327 . S
C395 C399 1.429 . S
C396 C379 1.574 . S
C396 H390 0.949 . S
C396 C400 1.368 . S
C397 C378 1.429 . S
C397 C391 1.429 . S
C397 C398 1.523 . S
C398 C379 1.368 . S
C398 C392 1.368 . S
C398 C397 1.523 . S
C399 C383 1.429 . S
C399 C395 1.429 . S
C399 C400 1.523 . S
C400 C384 1.368 . S
C400 C396 1.368 . S
C400 C399 1.523 . S
H401 C376 0.950 . S
H402 C378 0.950 . S
H403 C379 0.949 . S
H404 C381 0.950 . S
H405 C383 0.950 . S
C406 C407 1.349 . S
C406 C408 1.327 . S
C406 H431 0.950 . S
C407 C406 1.349 . S
C407 C423 1.349 . S
C408 C406 1.327 . S
C408 C427 1.429 . S
C408 H432 0.950 . S
C409 C426 1.574 . S
C409 C428 1.368 . S
C409 H433 0.949 . S
H410 C414 0.949 . S
C411 C412 1.349 . S
C411 C413 1.327 . S
C411 H434 0.950 . S
C412 C411 1.349 . S
C412 C424 1.349 . S
C413 C411 1.327 . S
C413 C429 1.429 . S
C413 H435 0.950 . S
C414 H410 0.949 . S
C414 C422 1.574 . S
C414 C430 1.368 . S
H415 C423 0.950 . S
H416 C421 0.950 . S
H417 C422 0.949 . S
H418 C424 0.950 . S
H419 C425 0.950 . S
H420 C426 0.949 . S
C421 H416 0.950 . S
C421 C423 1.327 . S
C421 C427 1.429 . S
C422 C414 1.574 . S
C422 H417 0.949 . S
C422 C428 1.368 . S
C423 C407 1.349 . S
C423 H415 0.950 . S
C423 C421 1.327 . S
C424 C412 1.349 . S
C424 H418 0.950 . S
C424 C425 1.327 . S
C425 H419 0.950 . S
C425 C424 1.327 . S
C425 C429 1.429 . S
C426 C409 1.574 . S
C426 H420 0.949 . S
C426 C430 1.368 . S
C427 C408 1.429 . S
C427 C421 1.429 . S
C427 C428 1.523 . S
C428 C409 1.368 . S
C428 C422 1.368 . S
C428 C427 1.523 . S
C429 C413 1.429 . S
C429 C425 1.429 . S
C429 C430 1.523 . S
C430 C414 1.368 . S
C430 C426 1.368 . S
C430 C429 1.523 . S
H431 C406 0.950 . S
H432 C408 0.950 . S
H433 C409 0.949 . S
H434 C411 0.950 . S
H435 C413 0.950 . S
C436 C437 1.349 . S
C436 C438 1.327 . S
C436 H461 0.950 . S
C437 C436 1.349 . S
C437 C453 1.349 . S
C438 C436 1.327 . S
C438 C457 1.429 . S
C438 H462 0.950 . S
C439 C456 1.574 . S
C439 C458 1.368 . S
C439 H463 0.949 . S
H440 C444 0.949 . S
C441 C442 1.349 . S
C441 C443 1.327 . S
C441 H464 0.950 . S
C442 C441 1.349 . S
C442 C454 1.349 1_545 S
C443 C441 1.327 . S
C443 C459 1.429 1_545 S
C443 H465 0.950 . S
C444 H440 0.949 . S
C444 C452 1.574 . S
C444 C460 1.368 . S
H445 C453 0.950 . S
H446 C451 0.950 . S
H447 C452 0.949 . S
H448 C454 0.950 . S
H449 C455 0.950 . S
H450 C456 0.949 1_545 S
C451 H446 0.950 . S
C451 C453 1.327 . S
C451 C457 1.429 . S
C452 C444 1.574 . S
C452 H447 0.949 . S
C452 C458 1.368 . S
C453 C437 1.349 . S
C453 H445 0.950 . S
C453 C451 1.327 . S
C454 C442 1.349 1_565 S
C454 H448 0.950 . S
C454 C455 1.327 . S
C455 H449 0.950 . S
C455 C454 1.327 . S
C455 C459 1.429 . S
C456 C439 1.574 . S
C456 H450 0.949 1_565 S
C456 C460 1.368 . S
C457 C438 1.429 . S
C457 C451 1.429 . S
C457 C458 1.523 . S
C458 C439 1.368 . S
C458 C452 1.368 . S
C458 C457 1.523 . S
C459 C443 1.429 1_565 S
C459 C455 1.429 . S
C459 C460 1.523 . S
C460 C444 1.368 . S
C460 C456 1.368 . S
C460 C459 1.523 . S
H461 C436 0.950 . S
H462 C438 0.950 . S
H463 C439 0.949 . S
H464 C441 0.950 . S
H465 C443 0.950 . S
C466 C467 1.349 . S
C466 C468 1.327 . S
C466 H491 0.950 . S
C467 C466 1.349 . S
C467 C483 1.349 . S
C468 C466 1.327 . S
C468 C487 1.429 . S
C468 H492 0.950 . S
C469 C486 1.574 . S
C469 C488 1.368 . S
C469 H493 0.949 . S
H470 C474 0.949 1_565 S
C471 C472 1.349 1_545 S
C471 C473 1.327 . S
C471 H494 0.950 . S
C472 C471 1.349 1_565 S
C472 C484 1.349 . S
C473 C471 1.327 . S
C473 C489 1.429 . S
C473 H495 0.950 . S
C474 H470 0.949 1_545 S
C474 C482 1.574 . S
C474 C490 1.368 . S
H475 C483 0.950 . S
H476 C481 0.950 . S
H477 C482 0.949 . S
H478 C484 0.950 . S
H479 C485 0.950 . S
H480 C486 0.949 . S
C481 H476 0.950 . S
C481 C483 1.327 . S
C481 C487 1.429 . S
C482 C474 1.574 . S
C482 H477 0.949 . S
C482 C488 1.368 . S
C483 C467 1.349 . S
C483 H475 0.950 . S
C483 C481 1.327 . S
C484 C472 1.349 . S
C484 H478 0.950 . S
C484 C485 1.327 . S
C485 H479 0.950 . S
C485 C484 1.327 . S
C485 C489 1.429 1_565 S
C486 C469 1.574 . S
C486 H480 0.949 . S
C486 C490 1.368 . S
C487 C468 1.429 . S
C487 C481 1.429 . S
C487 C488 1.523 . S
C488 C469 1.368 . S
C488 C482 1.368 . S
C488 C487 1.523 . S
C489 C473 1.429 . S
C489 C485 1.429 1_545 S
C489 C490 1.523 . S
C490 C474 1.368 . S
C490 C486 1.368 . S
C490 C489 1.523 . S
H491 C466 0.950 . S
H492 C468 0.950 . S
H493 C469 0.949 . S
H494 C471 0.950 . S
H495 C473 0.950 . S
C496 C497 1.349 . S
C496 C498 1.327 . S
C496 H521 0.950 . S
C497 C496 1.349 . S
C497 C513 1.349 . S
C498 C496 1.327 . S
C498 C517 1.429 . S
C498 H522 0.950 . S
C499 C516 1.574 . S
C499 C518 1.368 . S
C499 H523 0.949 . S
H500 C504 0.949 . S
C501 C502 1.349 . S
C501 C503 1.327 . S
C501 H524 0.950 . S
C502 C501 1.349 . S
C502 C514 1.349 . S
C503 C501 1.327 . S
C503 C519 1.429 . S
C503 H525 0.950 . S
C504 H500 0.949 . S
C504 C512 1.574 . S
C504 C520 1.368 . S
H505 C513 0.950 . S
H506 C511 0.950 . S
H507 C512 0.949 . S
H508 C514 0.950 . S
H509 C515 0.950 . S
H510 C516 0.949 . S
C511 H506 0.950 . S
C511 C513 1.327 . S
C511 C517 1.429 . S
C512 C504 1.574 . S
C512 H507 0.949 . S
C512 C518 1.368 . S
C513 C497 1.349 . S
C513 H505 0.950 . S
C513 C511 1.327 . S
C514 C502 1.349 . S
C514 H508 0.950 . S
C514 C515 1.327 . S
C515 H509 0.950 . S
C515 C514 1.327 . S
C515 C519 1.429 . S
C516 C499 1.574 . S
C516 H510 0.949 . S
C516 C520 1.368 . S
C517 C498 1.429 . S
C517 C511 1.429 . S
C517 C518 1.523 . S
C518 C499 1.368 . S
C518 C512 1.368 . S
C518 C517 1.523 . S
C519 C503 1.429 . S
C519 C515 1.429 . S
C519 C520 1.523 . S
C520 C504 1.368 . S
C520 C516 1.368 . S
C520 C519 1.523 . S
H521 C496 0.950 . S
H522 C498 0.950 . S
H523 C499 0.949 . S
H524 C501 0.950 . S
H525 C503 0.950 . S
C526 C527 1.349 . S
C526 C528 1.327 . S
C526 H551 0.950 . S
C527 C526 1.349 . S
C527 C543 1.349 . S
C528 C526 1.327 . S
C528 C547 1.429 . S
C528 H552 0.950 . S
C529 C546 1.574 . S
C529 C548 1.368 . S
C529 H553 0.949 . S
H530 C534 0.949 . S
C531 C532 1.349 . S
C531 C533 1.327 . S
C531 H554 0.950 . S
C532 C531 1.349 . S
C532 C544 1.349 . S
C533 C531 1.327 . S
C533 C549 1.429 . S
C533 H555 0.950 . S
C534 H530 0.949 . S
C534 C542 1.574 . S
C534 C550 1.368 . S
H535 C543 0.950 . S
H536 C541 0.950 . S
H537 C542 0.949 . S
H538 C544 0.950 . S
H539 C545 0.950 . S
H540 C546 0.949 . S
C541 H536 0.950 . S
C541 C543 1.327 . S
C541 C547 1.429 . S
C542 C534 1.574 . S
C542 H537 0.949 . S
C542 C548 1.368 . S
C543 C527 1.349 . S
C543 H535 0.950 . S
C543 C541 1.327 . S
C544 C532 1.349 . S
C544 H538 0.950 . S
C544 C545 1.327 . S
C545 H539 0.950 . S
C545 C544 1.327 . S
C545 C549 1.429 . S
C546 C529 1.574 . S
C546 H540 0.949 . S
C546 C550 1.368 . S
C547 C528 1.429 . S
C547 C541 1.429 . S
C547 C548 1.523 . S
C548 C529 1.368 . S
C548 C542 1.368 . S
C548 C547 1.523 . S
C549 C533 1.429 . S
C549 C545 1.429 . S
C549 C550 1.523 . S
C550 C534 1.368 . S
C550 C546 1.368 . S
C550 C549 1.523 . S
H551 C526 0.950 . S
H552 C528 0.950 . S
H553 C529 0.949 . S
H554 C531 0.950 . S
H555 C533 0.950 . S
C556 C557 1.349 . S
C556 C558 1.327 . S
C556 H581 0.950 . S
C557 C556 1.349 . S
C557 C573 1.349 . S
C558 C556 1.327 . S
C558 C577 1.429 . S
C558 H582 0.950 . S
C559 C576 1.574 . S
C559 C578 1.368 . S
C559 H583 0.949 . S
H560 C564 0.949 . S
C561 C562 1.349 . S
C561 C563 1.327 . S
C561 H584 0.950 . S
C562 C561 1.349 . S
C562 C574 1.349 . S
C563 C561 1.327 . S
C563 C579 1.429 . S
C563 H585 0.950 . S
C564 H560 0.949 . S
C564 C572 1.574 . S
C564 C580 1.368 . S
H565 C573 0.950 . S
H566 C571 0.950 . S
H567 C572 0.949 . S
H568 C574 0.950 . S
H569 C575 0.950 . S
H570 C576 0.949 . S
C571 H566 0.950 . S
C571 C573 1.327 . S
C571 C577 1.429 . S
C572 C564 1.574 . S
C572 H567 0.949 . S
C572 C578 1.368 . S
C573 C557 1.349 . S
C573 H565 0.950 . S
C573 C571 1.327 . S
C574 C562 1.349 . S
C574 H568 0.950 . S
C574 C575 1.327 . S
C575 H569 0.950 . S
C575 C574 1.327 . S
C575 C579 1.429 . S
C576 C559 1.574 . S
C576 H570 0.949 . S
C576 C580 1.368 . S
C577 C558 1.429 . S
C577 C571 1.429 . S
C577 C578 1.523 . S
C578 C559 1.368 . S
C578 C572 1.368 . S
C578 C577 1.523 . S
C579 C563 1.429 . S
C579 C575 1.429 . S
C579 C580 1.523 . S
C580 C564 1.368 . S
C580 C576 1.368 . S
C580 C579 1.523 . S
H581 C556 0.950 . S
H582 C558 0.950 . S
H583 C559 0.949 . S
H584 C561 0.950 . S
H585 C563 0.950 . S
C586 C587 1.349 . S
C586 C588 1.327 . S
C586 H611 0.950 . S
C587 C586 1.349 . S
C587 C603 1.349 . S
C588 C586 1.327 . S
C588 C607 1.429 . S
C588 H612 0.950 . S
C589 C606 1.574 . S
C589 C608 1.368 . S
C589 H613 0.949 . S
H590 C594 0.949 . S
C591 C592 1.349 . S
C591 C593 1.327 . S
C591 H614 0.950 . S
C592 C591 1.349 . S
C592 C604 1.349 . S
C593 C591 1.327 . S
C593 C609 1.429 . S
C593 H615 0.950 . S
C594 H590 0.949 . S
C594 C602 1.574 . S
C594 C610 1.368 . S
H595 C603 0.950 . S
H596 C601 0.950 . S
H597 C602 0.949 . S
H598 C604 0.950 . S
H599 C605 0.950 . S
H600 C606 0.949 . S
C601 H596 0.950 . S
C601 C603 1.327 . S
C601 C607 1.429 . S
C602 C594 1.574 . S
C602 H597 0.949 . S
C602 C608 1.368 . S
C603 C587 1.349 . S
C603 H595 0.950 . S
C603 C601 1.327 . S
C604 C592 1.349 . S
C604 H598 0.950 . S
C604 C605 1.327 . S
C605 H599 0.950 . S
C605 C604 1.327 . S
C605 C609 1.429 . S
C606 C589 1.574 . S
C606 H600 0.949 . S
C606 C610 1.368 . S
C607 C588 1.429 . S
C607 C601 1.429 . S
C607 C608 1.523 . S
C608 C589 1.368 . S
C608 C602 1.368 . S
C608 C607 1.523 . S
C609 C593 1.429 . S
C609 C605 1.429 . S
C609 C610 1.523 . S
C610 C594 1.368 . S
C610 C606 1.368 . S
C610 C609 1.523 . S
H611 C586 0.950 . S
H612 C588 0.950 . S
H613 C589 0.949 . S
H614 C591 0.950 . S
H615 C593 0.950 . S
C616 C617 1.349 . S
C616 C618 1.327 . S
C616 H641 0.950 . S
C617 C616 1.349 . S
C617 C633 1.349 . S
C618 C616 1.327 . S
C618 C637 1.429 . S
C618 H642 0.950 . S
C619 C636 1.574 . S
C619 C638 1.368 . S
C619 H643 0.949 . S
H620 C624 0.949 . S
C621 C622 1.349 . S
C621 C623 1.327 . S
C621 H644 0.950 . S
C622 C621 1.349 . S
C622 C634 1.349 . S
C623 C621 1.327 . S
C623 C639 1.429 . S
C623 H645 0.950 . S
C624 H620 0.949 . S
C624 C632 1.574 . S
C624 C640 1.368 . S
H625 C633 0.950 . S
H626 C631 0.950 . S
H627 C632 0.949 . S
H628 C634 0.950 . S
H629 C635 0.950 . S
H630 C636 0.949 . S
C631 H626 0.950 . S
C631 C633 1.327 . S
C631 C637 1.429 . S
C632 C624 1.574 . S
C632 H627 0.949 . S
C632 C638 1.368 . S
C633 C617 1.349 . S
C633 H625 0.950 . S
C633 C631 1.327 . S
C634 C622 1.349 . S
C634 H628 0.950 . S
C634 C635 1.327 . S
C635 H629 0.950 . S
C635 C634 1.327 . S
C635 C639 1.429 . S
C636 C619 1.574 . S
C636 H630 0.949 . S
C636 C640 1.368 . S
C637 C618 1.429 . S
C637 C631 1.429 . S
C637 C638 1.523 . S
C638 C619 1.368 . S
C638 C632 1.368 . S
C638 C637 1.523 . S
C639 C623 1.429 . S
C639 C635 1.429 . S
C639 C640 1.523 . S
C640 C624 1.368 . S
C640 C636 1.368 . S
C640 C639 1.523 . S
H641 C616 0.950 . S
H642 C618 0.950 . S
H643 C619 0.949 . S
H644 C621 0.950 . S
H645 C623 0.950 . S
C646 C647 1.349 . S
C646 C648 1.327 . S
C646 H671 0.950 . S
C647 C646 1.349 . S
C647 C663 1.349 . S
C648 C646 1.327 . S
C648 C667 1.429 . S
C648 H672 0.950 . S
C649 C666 1.574 . S
C649 C668 1.368 . S
C649 H673 0.949 . S
H650 C654 0.949 . S
C651 C652 1.349 . S
C651 C653 1.327 . S
C651 H674 0.950 . S
C652 C651 1.349 . S
C652 C664 1.349 . S
C653 C651 1.327 . S
C653 C669 1.429 . S
C653 H675 0.950 . S
C654 H650 0.949 . S
C654 C662 1.574 . S
C654 C670 1.368 . S
H655 C663 0.950 . S
H656 C661 0.950 . S
H657 C662 0.949 . S
H658 C664 0.950 . S
H659 C665 0.950 . S
H660 C666 0.949 . S
C661 H656 0.950 . S
C661 C663 1.327 . S
C661 C667 1.429 . S
C662 C654 1.574 . S
C662 H657 0.949 . S
C662 C668 1.368 . S
C663 C647 1.349 . S
C663 H655 0.950 . S
C663 C661 1.327 . S
C664 C652 1.349 . S
C664 H658 0.950 . S
C664 C665 1.327 . S
C665 H659 0.950 . S
C665 C664 1.327 . S
C665 C669 1.429 . S
C666 C649 1.574 . S
C666 H660 0.949 . S
C666 C670 1.368 . S
C667 C648 1.429 . S
C667 C661 1.429 . S
C667 C668 1.523 . S
C668 C649 1.368 . S
C668 C662 1.368 . S
C668 C667 1.523 . S
C669 C653 1.429 . S
C669 C665 1.429 . S
C669 C670 1.523 . S
C670 C654 1.368 . S
C670 C666 1.368 . S
C670 C669 1.523 . S
H671 C646 0.950 . S
H672 C648 0.950 . S
H673 C649 0.949 . S
H674 C651 0.950 . S
H675 C653 0.950 . S
C676 C677 1.349 1_565 S
C676 C678 1.327 . S
C676 H701 0.950 . S
C677 C676 1.349 1_545 S
C677 C693 1.349 . S
C678 C676 1.327 . S
C678 C697 1.429 . S
C678 H702 0.950 . S
C679 C696 1.574 . S
C679 C698 1.368 . S
C679 H703 0.949 1_565 S
H680 C684 0.949 . S
C681 C682 1.349 . S
C681 C683 1.327 . S
C681 H704 0.950 . S
C682 C681 1.349 . S
C682 C694 1.349 . S
C683 C681 1.327 . S
C683 C699 1.429 . S
C683 H705 0.950 . S
C684 H680 0.949 . S
C684 C692 1.574 . S
C684 C700 1.368 . S
H685 C693 0.950 . S
H686 C691 0.950 . S
H687 C692 0.949 . S
H688 C694 0.950 . S
H689 C695 0.950 . S
H690 C696 0.949 . S
C691 H686 0.950 . S
C691 C693 1.327 . S
C691 C697 1.429 1_545 S
C692 C684 1.574 . S
C692 H687 0.949 . S
C692 C698 1.368 . S
C693 C677 1.349 . S
C693 H685 0.950 . S
C693 C691 1.327 . S
C694 C682 1.349 . S
C694 H688 0.950 . S
C694 C695 1.327 . S
C695 H689 0.950 . S
C695 C694 1.327 . S
C695 C699 1.429 . S
C696 C679 1.574 . S
C696 H690 0.949 . S
C696 C700 1.368 . S
C697 C678 1.429 . S
C697 C691 1.429 1_565 S
C697 C698 1.523 . S
C698 C679 1.368 . S
C698 C692 1.368 . S
C698 C697 1.523 . S
C699 C683 1.429 . S
C699 C695 1.429 . S
C699 C700 1.523 . S
C700 C684 1.368 . S
C700 C696 1.368 . S
C700 C699 1.523 . S
H701 C676 0.950 . S
H702 C678 0.950 . S
H703 C679 0.949 1_545 S
H704 C681 0.950 . S
H705 C683 0.950 . S
C706 C707 1.349 1_545 S
C706 C708 1.327 . S
C706 H731 0.950 . S
C707 C706 1.349 1_565 S
C707 C723 1.349 . S
C708 C706 1.327 . S
C708 C727 1.429 . S
C708 H732 0.950 . S
C709 C726 1.574 . S
C709 C728 1.368 . S
C709 H733 0.949 1_545 S
H710 C714 0.949 . S
C711 C712 1.349 . S
C711 C713 1.327 . S
C711 H734 0.950 . S
C712 C711 1.349 . S
C712 C724 1.349 . S
C713 C711 1.327 . S
C713 C729 1.429 . S
C713 H735 0.950 . S
C714 H710 0.949 . S
C714 C722 1.574 . S
C714 C730 1.368 . S
H715 C723 0.950 . S
H716 C721 0.950 . S
H717 C722 0.949 . S
H718 C724 0.950 . S
H719 C725 0.950 . S
H720 C726 0.949 . S
C721 H716 0.950 . S
C721 C723 1.327 . S
C721 C727 1.429 1_565 S
C722 C714 1.574 . S
C722 H717 0.949 . S
C722 C728 1.368 . S
C723 C707 1.349 . S
C723 H715 0.950 . S
C723 C721 1.327 . S
C724 C712 1.349 . S
C724 H718 0.950 . S
C724 C725 1.327 . S
C725 H719 0.950 . S
C725 C724 1.327 . S
C725 C729 1.429 . S
C726 C709 1.574 . S
C726 H720 0.949 . S
C726 C730 1.368 . S
C727 C708 1.429 . S
C727 C721 1.429 1_545 S
C727 C728 1.523 . S
C728 C709 1.368 . S
C728 C722 1.368 . S
C728 C727 1.523 . S
C729 C713 1.429 . S
C729 C725 1.429 . S
C729 C730 1.523 . S
C730 C714 1.368 . S
C730 C726 1.368 . S
C730 C729 1.523 . S
H731 C706 0.950 . S
H732 C708 0.950 . S
H733 C709 0.949 1_565 S
H734 C711 0.950 . S
H735 C713 0.950 . S
C736 C737 1.349 1_655 S
C736 C738 1.327 . S
C736 H761 0.950 . S
C737 C736 1.349 1_455 S
C737 C753 1.349 1_554 S
C738 C736 1.327 . S
C738 C757 1.429 1_655 S
C738 H762 0.950 . S
C739 C756 1.574 . S
C739 C758 1.368 1_556 S
C739 H763 0.949 . S
H740 C744 0.949 . S
C741 C742 1.351 1_556 S
C741 C743 1.327 . S
C741 H764 0.950 . S
C742 C741 1.351 1_554 S
C742 C754 1.345 . S
C743 C741 1.327 . S
C743 C759 1.380 1_556 S
C743 H765 0.950 . S
C744 H740 0.949 . S
C744 C752 1.574 . S
C744 C760 1.368 1_655 S
H745 C753 0.950 . S
H746 C751 0.950 . S
H747 C752 0.949 . S
H748 C754 0.950 1_655 S
H749 C755 0.950 . S
H750 C756 0.949 . S
C751 H746 0.950 . S
C751 C753 1.327 . S
C751 C757 1.429 1_556 S
C752 C744 1.574 . S
C752 H747 0.949 . S
C752 C758 1.368 1_655 S
C753 C737 1.349 1_556 S
C753 H745 0.950 . S
C753 C751 1.327 . S
C754 C742 1.345 . S
C754 H748 0.950 1_455 S
C754 C755 1.327 1_455 S
C755 H749 0.950 . S
C755 C754 1.327 1_655 S
C755 C759 1.465 1_655 S
C756 C739 1.574 . S
C756 H750 0.949 . S
C756 C760 1.368 1_556 S
C757 C738 1.429 1_455 S
C757 C751 1.429 1_554 S
C757 C758 1.523 . S
C758 C739 1.368 1_554 S
C758 C752 1.368 1_455 S
C758 C757 1.523 . S
C759 C743 1.380 1_554 S
C759 C755 1.465 1_455 S
C759 C760 1.537 . S
C760 C744 1.368 1_455 S
C760 C756 1.368 1_554 S
C760 C759 1.537 . S
H761 C736 0.950 . S
H762 C738 0.950 . S
H763 C739 0.949 . S
H764 C741 0.950 . S
H765 C743 0.950 . S
C766 C767 1.349 . S
C766 C768 1.327 . S
C766 H791 0.950 . S
C767 C766 1.349 . S
C767 C783 1.349 . S
C768 C766 1.327 . S
C768 C787 1.429 . S
C768 H792 0.950 . S
C769 C786 1.574 . S
C769 C788 1.368 . S
C769 H793 0.949 . S
H770 C774 0.949 . S
C771 C772 1.349 . S
C771 C773 1.327 1_545 S
C771 H794 0.950 . S
C772 C771 1.349 . S
C772 C784 1.349 1_545 S
C773 C771 1.327 1_565 S
C773 C789 1.429 . S
C773 H795 0.950 . S
C774 H770 0.949 . S
C774 C782 1.574 . S
C774 C790 1.368 . S
H775 C783 0.950 . S
H776 C781 0.950 . S
H777 C782 0.949 . S
H778 C784 0.950 1_545 S
H779 C785 0.950 . S
H780 C786 0.949 . S
C781 H776 0.950 . S
C781 C783 1.327 . S
C781 C787 1.429 . S
C782 C774 1.574 . S
C782 H777 0.949 . S
C782 C788 1.368 . S
C783 C767 1.349 . S
C783 H775 0.950 . S
C783 C781 1.327 . S
C784 C772 1.349 1_565 S
C784 H778 0.950 1_565 S
C784 C785 1.327 . S
C785 H779 0.950 . S
C785 C784 1.327 . S
C785 C789 1.429 . S
C786 C769 1.574 . S
C786 H780 0.949 . S
C786 C790 1.368 . S
C787 C768 1.429 . S
C787 C781 1.429 . S
C787 C788 1.523 . S
C788 C769 1.368 . S
C788 C782 1.368 . S
C788 C787 1.523 . S
C789 C773 1.429 . S
C789 C785 1.429 . S
C789 C790 1.523 . S
C790 C774 1.368 . S
C790 C786 1.368 . S
C790 C789 1.523 . S
H791 C766 0.950 . S
H792 C768 0.950 . S
H793 C769 0.949 . S
H794 C771 0.950 . S
H795 C773 0.950 . S
C796 C797 1.349 1_545 S
C796 C798 1.327 . S
C796 H821 0.950 1_545 S
C797 C796 1.349 1_565 S
C797 C813 1.349 . S
C798 C796 1.327 . S
C798 C817 1.429 . S
C798 H822 0.950 . S
C799 C816 1.574 . S
C799 C818 1.368 . S
C799 H823 0.949 . S
H800 C804 0.949 . S
C801 C802 1.349 . S
C801 C803 1.327 . S
C801 H824 0.950 . S
C802 C801 1.349 . S
C802 C814 1.349 . S
C803 C801 1.327 . S
C803 C819 1.429 . S
C803 H825 0.950 . S
C804 H800 0.949 . S
C804 C812 1.574 . S
C804 C820 1.368 . S
H805 C813 0.950 . S
H806 C811 0.950 . S
H807 C812 0.949 . S
H808 C814 0.950 . S
H809 C815 0.950 . S
H810 C816 0.949 . S
C811 H806 0.950 . S
C811 C813 1.327 1_545 S
C811 C817 1.429 . S
C812 C804 1.574 . S
C812 H807 0.949 . S
C812 C818 1.368 . S
C813 C797 1.349 . S
C813 H805 0.950 . S
C813 C811 1.327 1_565 S
C814 C802 1.349 . S
C814 H808 0.950 . S
C814 C815 1.327 . S
C815 H809 0.950 . S
C815 C814 1.327 . S
C815 C819 1.429 . S
C816 C799 1.574 . S
C816 H810 0.949 . S
C816 C820 1.368 . S
C817 C798 1.429 . S
C817 C811 1.429 . S
C817 C818 1.523 . S
C818 C799 1.368 . S
C818 C812 1.368 . S
C818 C817 1.523 . S
C819 C803 1.429 . S
C819 C815 1.429 . S
C819 C820 1.523 . S
C820 C804 1.368 . S
C820 C816 1.368 . S
C820 C819 1.523 . S
H821 C796 0.950 1_565 S
H822 C798 0.950 . S
H823 C799 0.949 . S
H824 C801 0.950 . S
H825 C803 0.950 . S
C826 C827 1.367 . S
C826 C828 1.325 1_455 S
C826 H851 0.934 1_455 S
C827 C826 1.367 . S
C827 C843 1.349 . S
C828 C826 1.325 1_655 S
C828 C847 1.412 1_655 S
C828 H852 0.970 . S
C829 C846 1.574 1_565 S
C829 C848 1.368 . S
C829 H853 0.949 . S
H830 C834 0.949 . S
C831 C832 1.349 . S
C831 C833 1.327 . S
C831 H854 0.950 . S
C832 C831 1.349 . S
C832 C844 1.349 1_455 S
C833 C831 1.327 . S
C833 C849 1.429 . S
C833 H855 0.950 . S
C834 H830 0.949 . S
C834 C842 1.574 1_545 S
C834 C850 1.368 1_655 S
H835 C843 0.950 . S
H836 C841 0.950 . S
H837 C842 0.949 . S
H838 C844 0.950 . S
H839 C845 0.950 . S
H840 C846 0.949 . S
C841 H836 0.950 . S
C841 C843 1.327 . S
C841 C847 1.429 . S
C842 C834 1.574 1_565 S
C842 H837 0.949 . S
C842 C848 1.368 1_655 S
C843 C827 1.349 . S
C843 H835 0.950 . S
C843 C841 1.327 . S
C844 C832 1.349 1_655 S
C844 H838 0.950 . S
C844 C845 1.327 . S
C845 H839 0.950 . S
C845 C844 1.327 . S
C845 C849 1.429 1_655 S
C846 C829 1.574 1_545 S
C846 H840 0.949 . S
C846 C850 1.368 . S
C847 C828 1.412 1_455 S
C847 C841 1.429 . S
C847 C848 1.523 . S
C848 C829 1.368 . S
C848 C842 1.368 1_455 S
C848 C847 1.523 . S
C849 C833 1.429 . S
C849 C845 1.429 1_455 S
C849 C850 1.523 . S
C850 C834 1.368 1_455 S
C850 C846 1.368 . S
C850 C849 1.523 . S
H851 C826 0.934 1_655 S
H852 C828 0.970 . S
H853 C829 0.949 . S
H854 C831 0.950 . S
H855 C833 0.950 . S
C856 C857 1.349 1_545 S
C856 C858 1.327 . S
C856 H881 0.950 1_545 S
C857 C856 1.349 1_565 S
C857 C873 1.349 . S
C858 C856 1.327 . S
C858 C877 1.429 . S
C858 H882 0.950 . S
C859 C876 1.574 . S
C859 C878 1.368 . S
C859 H883 0.949 . S
H860 C864 0.949 . S
C861 C862 1.349 . S
C861 C863 1.327 . S
C861 H884 0.950 . S
C862 C861 1.349 . S
C862 C874 1.349 . S
C863 C861 1.327 . S
C863 C879 1.429 . S
C863 H885 0.950 . S
C864 H860 0.949 . S
C864 C872 1.574 . S
C864 C880 1.368 . S
H865 C873 0.950 . S
H866 C871 0.950 . S
H867 C872 0.949 . S
H868 C874 0.950 . S
H869 C875 0.950 . S
H870 C876 0.949 . S
C871 H866 0.950 . S
C871 C873 1.327 1_545 S
C871 C877 1.429 . S
C872 C864 1.574 . S
C872 H867 0.949 . S
C872 C878 1.368 . S
C873 C857 1.349 . S
C873 H865 0.950 . S
C873 C871 1.327 1_565 S
C874 C862 1.349 . S
C874 H868 0.950 . S
C874 C875 1.327 . S
C875 H869 0.950 . S
C875 C874 1.327 . S
C875 C879 1.429 . S
C876 C859 1.574 . S
C876 H870 0.949 . S
C876 C880 1.368 . S
C877 C858 1.429 . S
C877 C871 1.429 . S
C877 C878 1.523 . S
C878 C859 1.368 . S
C878 C872 1.368 . S
C878 C877 1.523 . S
C879 C863 1.429 . S
C879 C875 1.429 . S
C879 C880 1.523 . S
C880 C864 1.368 . S
C880 C876 1.368 . S
C880 C879 1.523 . S
H881 C856 0.950 1_565 S
H882 C858 0.950 . S
H883 C859 0.949 . S
H884 C861 0.950 . S
H885 C863 0.950 . S
C886 C887 1.349 . S
C886 C888 1.327 . S
C886 H911 0.950 . S
C887 C886 1.349 . S
C887 C903 1.349 . S
C888 C886 1.327 . S
C888 C907 1.429 . S
C888 H912 0.950 . S
C889 C906 1.574 . S
C889 C908 1.368 . S
C889 H913 0.949 . S
H890 C894 0.949 . S
C891 C892 1.349 1_565 S
C891 C893 1.327 . S
C891 H914 0.950 1_565 S
C892 C891 1.349 1_545 S
C892 C904 1.349 . S
C893 C891 1.327 . S
C893 C909 1.429 . S
C893 H915 0.950 . S
C894 H890 0.949 . S
C894 C902 1.574 . S
C894 C910 1.368 . S
H895 C903 0.950 . S
H896 C901 0.950 . S
H897 C902 0.949 . S
H898 C904 0.950 . S
H899 C905 0.950 . S
H900 C906 0.949 . S
C901 H896 0.950 . S
C901 C903 1.327 . S
C901 C907 1.429 . S
C902 C894 1.574 . S
C902 H897 0.949 . S
C902 C908 1.368 . S
C903 C887 1.349 . S
C903 H895 0.950 . S
C903 C901 1.327 . S
C904 C892 1.349 . S
C904 H898 0.950 . S
C904 C905 1.327 1_545 S
C905 H899 0.950 . S
C905 C904 1.327 1_565 S
C905 C909 1.429 . S
C906 C889 1.574 . S
C906 H900 0.949 . S
C906 C910 1.368 . S
C907 C888 1.429 . S
C907 C901 1.429 . S
C907 C908 1.523 . S
C908 C889 1.368 . S
C908 C902 1.368 . S
C908 C907 1.523 . S
C909 C893 1.429 . S
C909 C905 1.429 . S
C909 C910 1.523 . S
C910 C894 1.368 . S
C910 C906 1.368 . S
C910 C909 1.523 . S
H911 C886 0.950 . S
H912 C888 0.950 . S
H913 C889 0.949 . S
H914 C891 0.950 1_545 S
H915 C893 0.950 . S
C916 C917 1.349 . S
C916 C918 1.327 . S
C916 H941 0.950 . S
C917 C916 1.349 . S
C917 C933 1.349 . S
C918 C916 1.327 . S
C918 C937 1.429 . S
C918 H942 0.950 . S
C919 C936 1.574 . S
C919 C938 1.368 . S
C919 H943 0.949 . S
H920 C924 0.949 . S
C921 C922 1.349 . S
C921 C923 1.327 . S
C921 H944 0.950 . S
C922 C921 1.349 . S
C922 C934 1.349 . S
C923 C921 1.327 . S
C923 C939 1.429 . S
C923 H945 0.950 . S
C924 H920 0.949 . S
C924 C932 1.574 . S
C924 C940 1.368 . S
H925 C933 0.950 . S
H926 C931 0.950 . S
H927 C932 0.949 . S
H928 C934 0.950 . S
H929 C935 0.950 . S
H930 C936 0.949 . S
C931 H926 0.950 . S
C931 C933 1.327 . S
C931 C937 1.429 . S
C932 C924 1.574 . S
C932 H927 0.949 . S
C932 C938 1.368 . S
C933 C917 1.349 . S
C933 H925 0.950 . S
C933 C931 1.327 . S
C934 C922 1.349 . S
C934 H928 0.950 . S
C934 C935 1.327 . S
C935 H929 0.950 . S
C935 C934 1.327 . S
C935 C939 1.429 . S
C936 C919 1.574 . S
C936 H930 0.949 . S
C936 C940 1.368 . S
C937 C918 1.429 . S
C937 C931 1.429 . S
C937 C938 1.523 . S
C938 C919 1.368 . S
C938 C932 1.368 . S
C938 C937 1.523 . S
C939 C923 1.429 . S
C939 C935 1.429 . S
C939 C940 1.523 . S
C940 C924 1.368 . S
C940 C936 1.368 . S
C940 C939 1.523 . S
H941 C916 0.950 . S
H942 C918 0.950 . S
H943 C919 0.949 . S
H944 C921 0.950 . S
H945 C923 0.950 . S
C946 C947 1.347 . S
C946 C948 1.327 . S
C946 H971 0.950 . S
C947 C946 1.347 . S
C947 C963 1.350 1_554 S
C948 C946 1.327 . S
C948 C967 1.447 . S
C948 H972 0.950 . S
C949 C966 1.574 1_565 S
C949 C968 1.368 1_556 S
C949 H973 0.949 . S
H950 C954 0.949 . S
C951 C952 1.349 1_556 S
C951 C953 1.327 . S
C951 H974 0.950 . S
C952 C951 1.349 1_554 S
C952 C964 1.349 . S
C953 C951 1.327 . S
C953 C969 1.429 1_556 S
C953 H975 0.950 . S
C954 H950 0.949 . S
C954 C962 1.574 1_545 S
C954 C970 1.368 . S
H955 C963 0.950 . S
H956 C961 0.950 . S
H957 C962 0.949 . S
H958 C964 0.950 . S
H959 C965 0.950 . S
H960 C966 0.949 . S
C961 H956 0.950 . S
C961 C963 1.327 . S
C961 C967 1.399 1_556 S
C962 C954 1.574 1_565 S
C962 H957 0.949 . S
C962 C968 1.368 . S
C963 C947 1.350 1_556 S
C963 H955 0.950 . S
C963 C961 1.327 . S
C964 C952 1.349 . S
C964 H958 0.950 . S
C964 C965 1.327 . S
C965 H959 0.950 . S
C965 C964 1.327 . S
C965 C969 1.429 . S
C966 C949 1.574 1_545 S
C966 H960 0.949 . S
C966 C970 1.368 1_556 S
C967 C948 1.447 . S
C967 C961 1.399 1_554 S
C967 C968 1.537 . S
C968 C949 1.368 1_554 S
C968 C962 1.368 . S
C968 C967 1.537 . S
C969 C953 1.429 1_554 S
C969 C965 1.429 . S
C969 C970 1.523 . S
C970 C954 1.368 . S
C970 C966 1.368 1_554 S
C970 C969 1.523 . S
H971 C946 0.950 . S
H972 C948 0.950 . S
H973 C949 0.949 . S
H974 C951 0.950 . S
H975 C953 0.950 . S
C976 C977 1.349 . S
C976 C978 1.327 . S
C976 H1001 0.950 . S
C977 C976 1.349 . S
C977 C993 1.349 1_556 S
C978 C976 1.327 . S
C978 C997 1.443 . S
C978 H1002 0.950 . S
C979 C996 1.574 . S
C979 C998 1.413 . S
C979 H1003 0.949 . S
H980 C984 0.949 . S
C981 C982 1.349 . S
C981 C983 1.327 . S
C981 H1004 0.950 . S
C982 C981 1.349 . S
C982 C994 1.349 1_554 S
C983 C981 1.327 . S
C983 C999 1.429 . S
C983 H1005 0.950 . S
C984 H980 0.949 . S
C984 C992 1.574 . S
C984 C1000 1.368 1_556 S
H985 C993 0.950 . S
H986 C991 0.950 . S
H987 C992 0.949 . S
H988 C994 0.950 . S
H989 C995 0.950 . S
H990 C996 0.949 . S
C991 H986 0.950 . S
C991 C993 1.327 . S
C991 C997 1.414 1_554 S
C992 C984 1.574 . S
C992 H987 0.949 . S
C992 C998 1.324 1_556 S
C993 C977 1.349 1_554 S
C993 H985 0.950 . S
C993 C991 1.327 . S
C994 C982 1.349 1_556 S
C994 H988 0.950 . S
C994 C995 1.327 . S
C995 H989 0.950 . S
C995 C994 1.327 . S
C995 C999 1.429 1_556 S
C996 C979 1.574 . S
C996 H990 0.949 . S
C996 C1000 1.368 . S
C997 C978 1.443 . S
C997 C991 1.414 1_556 S
C997 C998 1.526 1_556 S
C998 C979 1.413 . S
C998 C992 1.324 1_554 S
C998 C997 1.526 1_554 S
C999 C983 1.429 . S
C999 C995 1.429 1_554 S
C999 C1000 1.523 . S
C1000 C984 1.368 1_554 S
C1000 C996 1.368 . S
C1000 C999 1.523 . S
H1001 C976 0.950 . S
H1002 C978 0.950 . S
H1003 C979 0.949 . S
H1004 C981 0.950 . S
H1005 C983 0.950 . S
C1006 C1007 1.349 . S
C1006 C1008 1.327 . S
C1006 H1031 0.950 . S
C1007 C1006 1.349 . S
C1007 C1023 1.349 1_556 S
C1008 C1006 1.327 . S
C1008 C1027 1.443 . S
C1008 H1032 0.950 . S
C1009 C1026 1.574 . S
C1009 C1028 1.413 . S
C1009 H1033 0.949 . S
H1010 C1014 0.949 . S
C1011 C1012 1.349 . S
C1011 C1013 1.327 . S
C1011 H1034 0.950 . S
C1012 C1011 1.349 . S
C1012 C1024 1.349 1_554 S
C1013 C1011 1.327 . S
C1013 C1029 1.429 . S
C1013 H1035 0.950 . S
C1014 H1010 0.949 . S
C1014 C1022 1.574 . S
C1014 C1030 1.368 1_556 S
H1015 C1023 0.950 . S
H1016 C1021 0.950 . S
H1017 C1022 0.949 . S
H1018 C1024 0.950 . S
H1019 C1025 0.950 . S
H1020 C1026 0.949 . S
C1021 H1016 0.950 . S
C1021 C1023 1.327 . S
C1021 C1027 1.414 1_554 S
C1022 C1014 1.574 . S
C1022 H1017 0.949 . S
C1022 C1028 1.324 1_556 S
C1023 C1007 1.349 1_554 S
C1023 H1015 0.950 . S
C1023 C1021 1.327 . S
C1024 C1012 1.349 1_556 S
C1024 H1018 0.950 . S
C1024 C1025 1.327 . S
C1025 H1019 0.950 . S
C1025 C1024 1.327 . S
C1025 C1029 1.429 1_556 S
C1026 C1009 1.574 . S
C1026 H1020 0.949 . S
C1026 C1030 1.368 . S
C1027 C1008 1.443 . S
C1027 C1021 1.414 1_556 S
C1027 C1028 1.526 1_556 S
C1028 C1009 1.413 . S
C1028 C1022 1.324 1_554 S
C1028 C1027 1.526 1_554 S
C1029 C1013 1.429 . S
C1029 C1025 1.429 1_554 S
C1029 C1030 1.523 . S
C1030 C1014 1.368 1_554 S
C1030 C1026 1.368 . S
C1030 C1029 1.523 . S
H1031 C1006 0.950 . S
H1032 C1008 0.950 . S
H1033 C1009 0.949 . S
H1034 C1011 0.950 . S
H1035 C1013 0.950 . S
C1036 C1037 1.349 . S
C1036 C1038 1.327 . S
C1036 H1061 0.950 . S
C1037 C1036 1.349 . S
C1037 C1053 1.349 . S
C1038 C1036 1.327 . S
C1038 C1057 1.429 . S
C1038 H1062 0.950 . S
C1039 C1056 1.574 1_455 S
C1039 C1058 1.368 . S
C1039 H1063 0.949 . S
H1040 C1044 0.949 . S
C1041 C1042 1.349 . S
C1041 C1043 1.327 . S
C1041 H1064 0.950 . S
C1042 C1041 1.349 . S
C1042 C1054 1.349 . S
C1043 C1041 1.327 . S
C1043 C1059 1.429 . S
C1043 H1065 0.950 . S
C1044 H1040 0.949 . S
C1044 C1052 1.574 1_655 S
C1044 C1060 1.368 . S
H1045 C1053 0.950 . S
H1046 C1051 0.950 . S
H1047 C1052 0.949 . S
H1048 C1054 0.950 . S
H1049 C1055 0.950 . S
H1050 C1056 0.949 . S
C1051 H1046 0.950 . S
C1051 C1053 1.327 . S
C1051 C1057 1.429 . S
C1052 C1044 1.574 1_455 S
C1052 H1047 0.949 . S
C1052 C1058 1.368 . S
C1053 C1037 1.349 . S
C1053 H1045 0.950 . S
C1053 C1051 1.327 . S
C1054 C1042 1.349 . S
C1054 H1048 0.950 . S
C1054 C1055 1.327 . S
C1055 H1049 0.950 . S
C1055 C1054 1.327 . S
C1055 C1059 1.429 . S
C1056 C1039 1.574 1_655 S
C1056 H1050 0.949 . S
C1056 C1060 1.368 . S
C1057 C1038 1.429 . S
C1057 C1051 1.429 . S
C1057 C1058 1.523 . S
C1058 C1039 1.368 . S
C1058 C1052 1.368 . S
C1058 C1057 1.523 . S
C1059 C1043 1.429 . S
C1059 C1055 1.429 . S
C1059 C1060 1.523 . S
C1060 C1044 1.368 . S
C1060 C1056 1.368 . S
C1060 C1059 1.523 . S
H1061 C1036 0.950 . S
H1062 C1038 0.950 . S
H1063 C1039 0.949 . S
H1064 C1041 0.950 . S
H1065 C1043 0.950 . S
C1066 C1067 1.349 . S
C1066 C1068 1.327 . S
C1066 H1091 0.950 . S
C1067 C1066 1.349 . S
C1067 C1083 1.349 . S
C1068 C1066 1.327 . S
C1068 C1087 1.429 . S
C1068 H1092 0.950 . S
C1069 C1086 1.574 . S
C1069 C1088 1.368 . S
C1069 H1093 0.949 . S
H1070 C1074 0.949 . S
C1071 C1072 1.349 . S
C1071 C1073 1.327 . S
C1071 H1094 0.950 . S
C1072 C1071 1.349 . S
C1072 C1084 1.349 . S
C1073 C1071 1.327 . S
C1073 C1089 1.429 . S
C1073 H1095 0.950 . S
C1074 H1070 0.949 . S
C1074 C1082 1.574 . S
C1074 C1090 1.368 . S
H1075 C1083 0.950 . S
H1076 C1081 0.950 . S
H1077 C1082 0.949 . S
H1078 C1084 0.950 . S
H1079 C1085 0.950 . S
H1080 C1086 0.949 . S
C1081 H1076 0.950 . S
C1081 C1083 1.327 . S
C1081 C1087 1.429 . S
C1082 C1074 1.574 . S
C1082 H1077 0.949 . S
C1082 C1088 1.368 . S
C1083 C1067 1.349 . S
C1083 H1075 0.950 . S
C1083 C1081 1.327 . S
C1084 C1072 1.349 . S
C1084 H1078 0.950 . S
C1084 C1085 1.327 . S
C1085 H1079 0.950 . S
C1085 C1084 1.327 . S
C1085 C1089 1.429 . S
C1086 C1069 1.574 . S
C1086 H1080 0.949 . S
C1086 C1090 1.368 . S
C1087 C1068 1.429 . S
C1087 C1081 1.429 . S
C1087 C1088 1.523 . S
C1088 C1069 1.368 . S
C1088 C1082 1.368 . S
C1088 C1087 1.523 . S
C1089 C1073 1.429 . S
C1089 C1085 1.429 . S
C1089 C1090 1.523 . S
C1090 C1074 1.368 . S
C1090 C1086 1.368 . S
C1090 C1089 1.523 . S
H1091 C1066 0.950 . S
H1092 C1068 0.950 . S
H1093 C1069 0.949 . S
H1094 C1071 0.950 . S
H1095 C1073 0.950 . S
C1096 C1097 1.349 . S
C1096 C1098 1.327 . S
C1096 H1121 0.950 . S
C1097 C1096 1.349 . S
C1097 C1113 1.349 . S
C1098 C1096 1.327 . S
C1098 C1117 1.429 . S
C1098 H1122 0.950 . S
C1099 C1116 1.574 . S
C1099 C1118 1.368 . S
C1099 H1123 0.949 . S
H1100 C1104 0.949 . S
C1101 C1102 1.349 . S
C1101 C1103 1.327 . S
C1101 H1124 0.950 . S
C1102 C1101 1.349 . S
C1102 C1114 1.349 . S
C1103 C1101 1.327 . S
C1103 C1119 1.429 . S
C1103 H1125 0.950 . S
C1104 H1100 0.949 . S
C1104 C1112 1.574 . S
C1104 C1120 1.368 . S
H1105 C1113 0.950 . S
H1106 C1111 0.950 . S
H1107 C1112 0.949 . S
H1108 C1114 0.950 . S
H1109 C1115 0.950 . S
H1110 C1116 0.949 . S
C1111 H1106 0.950 . S
C1111 C1113 1.327 . S
C1111 C1117 1.429 . S
C1112 C1104 1.574 . S
C1112 H1107 0.949 . S
C1112 C1118 1.368 . S
C1113 C1097 1.349 . S
C1113 H1105 0.950 . S
C1113 C1111 1.327 . S
C1114 C1102 1.349 . S
C1114 H1108 0.950 . S
C1114 C1115 1.327 . S
C1115 H1109 0.950 . S
C1115 C1114 1.327 . S
C1115 C1119 1.429 . S
C1116 C1099 1.574 . S
C1116 H1110 0.949 . S
C1116 C1120 1.368 . S
C1117 C1098 1.429 . S
C1117 C1111 1.429 . S
C1117 C1118 1.523 . S
C1118 C1099 1.368 . S
C1118 C1112 1.368 . S
C1118 C1117 1.523 . S
C1119 C1103 1.429 . S
C1119 C1115 1.429 . S
C1119 C1120 1.523 . S
C1120 C1104 1.368 . S
C1120 C1116 1.368 . S
C1120 C1119 1.523 . S
H1121 C1096 0.950 . S
H1122 C1098 0.950 . S
H1123 C1099 0.949 . S
H1124 C1101 0.950 . S
H1125 C1103 0.950 . S
C1126 C1127 1.349 . S
C1126 C1128 1.327 . S
C1126 H1151 0.950 . S
C1127 C1126 1.349 . S
C1127 C1143 1.349 . S
C1128 C1126 1.327 . S
C1128 C1147 1.429 . S
C1128 H1152 0.950 . S
C1129 C1146 1.574 1_655 S
C1129 C1148 1.368 1_565 S
C1129 H1153 0.949 . S
H1130 C1134 0.949 . S
C1131 C1132 1.349 . S
C1131 C1133 1.327 . S
C1131 H1154 0.950 . S
C1132 C1131 1.349 . S
C1132 C1144 1.349 . S
C1133 C1131 1.327 . S
C1133 C1149 1.429 . S
C1133 H1155 0.950 . S
C1134 H1130 0.949 . S
C1134 C1142 1.574 1_455 S
C1134 C1150 1.368 1_545 S
H1135 C1143 0.950 . S
H1136 C1141 0.950 . S
H1137 C1142 0.949 . S
H1138 C1144 0.950 . S
H1139 C1145 0.950 . S
H1140 C1146 0.949 . S
C1141 H1136 0.950 . S
C1141 C1143 1.327 . S
C1141 C1147 1.429 . S
C1142 C1134 1.574 1_655 S
C1142 H1137 0.949 . S
C1142 C1148 1.368 . S
C1143 C1127 1.349 . S
C1143 H1135 0.950 . S
C1143 C1141 1.327 . S
C1144 C1132 1.349 . S
C1144 H1138 0.950 . S
C1144 C1145 1.327 . S
C1145 H1139 0.950 . S
C1145 C1144 1.327 . S
C1145 C1149 1.429 . S
C1146 C1129 1.574 1_455 S
C1146 H1140 0.949 . S
C1146 C1150 1.368 . S
C1147 C1128 1.429 . S
C1147 C1141 1.429 . S
C1147 C1148 1.523 . S
C1148 C1129 1.368 1_545 S
C1148 C1142 1.368 . S
C1148 C1147 1.523 . S
C1149 C1133 1.429 . S
C1149 C1145 1.429 . S
C1149 C1150 1.523 . S
C1150 C1134 1.368 1_565 S
C1150 C1146 1.368 . S
C1150 C1149 1.523 . S
H1151 C1126 0.950 . S
H1152 C1128 0.950 . S
H1153 C1129 0.949 . S
H1154 C1131 0.950 . S
H1155 C1133 0.950 . S
C1156 C1157 1.349 . S
C1156 C1158 1.327 . S
C1156 H1181 0.950 . S
C1157 C1156 1.349 . S
C1157 C1173 1.349 . S
C1158 C1156 1.327 . S
C1158 C1177 1.429 . S
C1158 H1182 0.950 . S
C1159 C1176 1.574 . S
C1159 C1178 1.368 . S
C1159 H1183 0.949 . S
H1160 C1164 0.949 . S
C1161 C1162 1.349 . S
C1161 C1163 1.327 . S
C1161 H1184 0.950 . S
C1162 C1161 1.349 . S
C1162 C1174 1.349 . S
C1163 C1161 1.327 . S
C1163 C1179 1.429 . S
C1163 H1185 0.950 . S
C1164 H1160 0.949 . S
C1164 C1172 1.574 . S
C1164 C1180 1.368 . S
H1165 C1173 0.950 . S
H1166 C1171 0.950 . S
H1167 C1172 0.949 . S
H1168 C1174 0.950 . S
H1169 C1175 0.950 . S
H1170 C1176 0.949 . S
C1171 H1166 0.950 . S
C1171 C1173 1.327 . S
C1171 C1177 1.429 . S
C1172 C1164 1.574 . S
C1172 H1167 0.949 . S
C1172 C1178 1.368 . S
C1173 C1157 1.349 . S
C1173 H1165 0.950 . S
C1173 C1171 1.327 . S
C1174 C1162 1.349 . S
C1174 H1168 0.950 . S
C1174 C1175 1.327 . S
C1175 H1169 0.950 . S
C1175 C1174 1.327 . S
C1175 C1179 1.429 . S
C1176 C1159 1.574 . S
C1176 H1170 0.949 . S
C1176 C1180 1.368 . S
C1177 C1158 1.429 . S
C1177 C1171 1.429 . S
C1177 C1178 1.523 . S
C1178 C1159 1.368 . S
C1178 C1172 1.368 . S
C1178 C1177 1.523 . S
C1179 C1163 1.429 . S
C1179 C1175 1.429 . S
C1179 C1180 1.523 . S
C1180 C1164 1.368 . S
C1180 C1176 1.368 . S
C1180 C1179 1.523 . S
H1181 C1156 0.950 . S
H1182 C1158 0.950 . S
H1183 C1159 0.949 . S
H1184 C1161 0.950 . S
H1185 C1163 0.950 . S
C1186 C1187 1.349 . S
C1186 C1188 1.327 . S
C1186 H1211 0.950 . S
C1187 C1186 1.349 . S
C1187 C1203 1.349 . S
C1188 C1186 1.327 . S
C1188 C1207 1.429 . S
C1188 H1212 0.950 . S
C1189 C1206 1.574 . S
C1189 C1208 1.368 . S
C1189 H1213 0.949 . S
H1190 C1194 0.949 . S
C1191 C1192 1.349 . S
C1191 C1193 1.327 . S
C1191 H1214 0.950 . S
C1192 C1191 1.349 . S
C1192 C1204 1.349 . S
C1193 C1191 1.327 . S
C1193 C1209 1.429 . S
C1193 H1215 0.950 . S
C1194 H1190 0.949 . S
C1194 C1202 1.574 . S
C1194 C1210 1.368 . S
H1195 C1203 0.950 . S
H1196 C1201 0.950 . S
H1197 C1202 0.949 . S
H1198 C1204 0.950 . S
H1199 C1205 0.950 . S
H1200 C1206 0.949 . S
C1201 H1196 0.950 . S
C1201 C1203 1.327 . S
C1201 C1207 1.429 . S
C1202 C1194 1.574 . S
C1202 H1197 0.949 . S
C1202 C1208 1.368 1_545 S
C1203 C1187 1.349 . S
C1203 H1195 0.950 . S
C1203 C1201 1.327 . S
C1204 C1192 1.349 . S
C1204 H1198 0.950 . S
C1204 C1205 1.327 . S
C1205 H1199 0.950 . S
C1205 C1204 1.327 . S
C1205 C1209 1.429 . S
C1206 C1189 1.574 . S
C1206 H1200 0.949 . S
C1206 C1210 1.368 1_565 S
C1207 C1188 1.429 . S
C1207 C1201 1.429 . S
C1207 C1208 1.523 . S
C1208 C1189 1.368 . S
C1208 C1202 1.368 1_565 S
C1208 C1207 1.523 . S
C1209 C1193 1.429 . S
C1209 C1205 1.429 . S
C1209 C1210 1.523 . S
C1210 C1194 1.368 . S
C1210 C1206 1.368 1_545 S
C1210 C1209 1.523 . S
H1211 C1186 0.950 . S
H1212 C1188 0.950 . S
H1213 C1189 0.949 . S
H1214 C1191 0.950 . S
H1215 C1193 0.950 . S
C257 C18 2.299 . S
C262 C53 2.272 . S
C287 C21 1.831 . S
C292 C82 1.798 . S
C317 C113 2.273 . S
C322 C54 2.299 . S
C347 C81 1.831 . S
C352 C118 1.798 . S
C377 C114 2.300 . S
C382 C149 2.273 . S
C407 C178 1.798 . S
C412 C117 1.830 . S
C437 C150 2.300 . S
C442 C17 2.273 . S
C467 C177 1.830 . S
C472 C22 1.797 . S
C497 C181 2.273 . S
C502 C210 2.300 . S
C527 C213 1.830 . S
C532 C146 1.797 . S
C557 C241 2.273 . S
C562 C182 2.300 . S
C587 C246 1.797 . S
C592 C145 1.830 . S
C617 C242 2.299 . S
C622 C85 2.273 . S
C647 C50 1.798 . S
C652 C245 1.831 . S
C677 C209 2.273 . S
C682 C86 2.299 . S
C707 C214 1.798 . S
C712 C49 1.831 . S
C737 C19 0.796 . S
C742 C23 0.796 . S
C767 C51 0.797 . S
C772 C55 0.797 . S
C797 C83 0.797 . S
C802 C87 0.797 . S
C827 C119 0.797 . S
C832 C115 0.797 . S
C857 C147 0.797 . S
C862 C151 0.797 . S
C887 C179 0.797 . S
C892 C183 0.797 . S
C917 C211 0.797 . S
C922 C215 0.797 . S
C947 C247 0.796 . S
C952 C243 0.796 . S
C977 C240 1.312 . S
C982 C20 1.312 . S
C1007 C16 1.312 . S
C1012 C244 1.312 . S
C1037 C48 1.312 . S
C1042 C84 1.312 . S
C1067 C208 1.312 . S
C1072 C116 1.312 . S
C1097 C112 1.312 . S
C1102 C212 1.312 . S
C1127 C180 1.312 . S
C1132 C144 1.312 . S
C1157 C176 1.312 . S
C1162 C148 1.312 . S
C1187 C80 1.312 . S
C1192 C52 1.312 . S
