# Generated by pormake.
# Topology wmi, (6)-cn, num edge types: 1
# Building blocks:
#     Node 0, Type 0, BuildingBlock: GEDQOX_clean_sbu_0, # of connection points: 6
#     Node 1, Type 0, BuildingBlock: GEDQOX_clean_sbu_0, # of connection points: 6
#     Node 2, Type 0, BuildingBlock: GEDQOX_clean_sbu_0, # of connection points: 6
#     Node 3, Type 0, BuildingBlock: GEDQOX_clean_sbu_0, # of connection points: 6
#     Node 4, Type 0, BuildingBlock: GEDQOX_clean_sbu_0, # of connection points: 6
#     Node 5, Type 0, BuildingBlock: GEDQOX_clean_sbu_0, # of connection points: 6
#     Node 6, Type 0, BuildingBlock: GEDQOX_clean_sbu_0, # of connection points: 6
#     Node 7, Type 0, BuildingBlock: GEDQOX_clean_sbu_0, # of connection points: 6
#     Node 8, Type 0, BuildingBlock: GEDQOX_clean_sbu_0, # of connection points: 6
#     Node 9, Type 0, BuildingBlock: GEDQOX_clean_sbu_0, # of connection points: 6
#     Node 10, Type 0, BuildingBlock: GEDQOX_clean_sbu_0, # of connection points: 6
#     Node 11, Type 0, BuildingBlock: GEDQOX_clean_sbu_0, # of connection points: 6
#     Node 12, Type 0, BuildingBlock: GEDQOX_clean_sbu_0, # of connection points: 6
#     Node 13, Type 0, BuildingBlock: GEDQOX_clean_sbu_0, # of connection points: 6
#     Node 14, Type 0, BuildingBlock: GEDQOX_clean_sbu_0, # of connection points: 6
#     Node 15, Type 0, BuildingBlock: GEDQOX_clean_sbu_0, # of connection points: 6
#     Node 16, Type 0, BuildingBlock: GEDQOX_clean_sbu_0, # of connection points: 6
#     Node 17, Type 0, BuildingBlock: GEDQOX_clean_sbu_0, # of connection points: 6
#     Edge 18, Type (0, 0), BuildingBlock: XUDNAN_clean_linker_2, # of connection points: 2
#     Edge 19, Type (0, 0), BuildingBlock: XUDNAN_clean_linker_2, # of connection points: 2
#     Edge 20, Type (0, 0), BuildingBlock: XUDNAN_clean_linker_2, # of connection points: 2
#     Edge 21, Type (0, 0), BuildingBlock: XUDNAN_clean_linker_2, # of connection points: 2
#     Edge 22, Type (0, 0), BuildingBlock: XUDNAN_clean_linker_2, # of connection points: 2
#     Edge 23, Type (0, 0), BuildingBlock: XUDNAN_clean_linker_2, # of connection points: 2
#     Edge 24, Type (0, 0), BuildingBlock: XUDNAN_clean_linker_2, # of connection points: 2
#     Edge 25, Type (0, 0), BuildingBlock: XUDNAN_clean_linker_2, # of connection points: 2
#     Edge 26, Type (0, 0), BuildingBlock: XUDNAN_clean_linker_2, # of connection points: 2
#     Edge 27, Type (0, 0), BuildingBlock: XUDNAN_clean_linker_2, # of connection points: 2
#     Edge 28, Type (0, 0), BuildingBlock: XUDNAN_clean_linker_2, # of connection points: 2
#     Edge 29, Type (0, 0), BuildingBlock: XUDNAN_clean_linker_2, # of connection points: 2
#     Edge 30, Type (0, 0), BuildingBlock: XUDNAN_clean_linker_2, # of connection points: 2
#     Edge 31, Type (0, 0), BuildingBlock: XUDNAN_clean_linker_2, # of connection points: 2
#     Edge 32, Type (0, 0), BuildingBlock: XUDNAN_clean_linker_2, # of connection points: 2
#     Edge 33, Type (0, 0), BuildingBlock: XUDNAN_clean_linker_2, # of connection points: 2
#     Edge 34, Type (0, 0), BuildingBlock: XUDNAN_clean_linker_2, # of connection points: 2
#     Edge 35, Type (0, 0), BuildingBlock: XUDNAN_clean_linker_2, # of connection points: 2
#     Edge 36, Type (0, 0), BuildingBlock: XUDNAN_clean_linker_2, # of connection points: 2
#     Edge 37, Type (0, 0), BuildingBlock: XUDNAN_clean_linker_2, # of connection points: 2
#     Edge 38, Type (0, 0), BuildingBlock: XUDNAN_clean_linker_2, # of connection points: 2
#     Edge 39, Type (0, 0), BuildingBlock: XUDNAN_clean_linker_2, # of connection points: 2
#     Edge 40, Type (0, 0), BuildingBlock: XUDNAN_clean_linker_2, # of connection points: 2
#     Edge 41, Type (0, 0), BuildingBlock: XUDNAN_clean_linker_2, # of connection points: 2
#     Edge 42, Type (0, 0), BuildingBlock: XUDNAN_clean_linker_2, # of connection points: 2
#     Edge 43, Type (0, 0), BuildingBlock: XUDNAN_clean_linker_2, # of connection points: 2
#     Edge 44, Type (0, 0), BuildingBlock: XUDNAN_clean_linker_2, # of connection points: 2
#     Edge 45, Type (0, 0), BuildingBlock: XUDNAN_clean_linker_2, # of connection points: 2
#     Edge 46, Type (0, 0), BuildingBlock: XUDNAN_clean_linker_2, # of connection points: 2
#     Edge 47, Type (0, 0), BuildingBlock: XUDNAN_clean_linker_2, # of connection points: 2
#     Edge 48, Type (0, 0), BuildingBlock: XUDNAN_clean_linker_2, # of connection points: 2
#     Edge 49, Type (0, 0), BuildingBlock: XUDNAN_clean_linker_2, # of connection points: 2
#     Edge 50, Type (0, 0), BuildingBlock: XUDNAN_clean_linker_2, # of connection points: 2
#     Edge 51, Type (0, 0), BuildingBlock: XUDNAN_clean_linker_2, # of connection points: 2
#     Edge 52, Type (0, 0), BuildingBlock: XUDNAN_clean_linker_2, # of connection points: 2
#     Edge 53, Type (0, 0), BuildingBlock: XUDNAN_clean_linker_2, # of connection points: 2
#     Edge 54, Type (0, 0), BuildingBlock: XUDNAN_clean_linker_2, # of connection points: 2
#     Edge 55, Type (0, 0), BuildingBlock: XUDNAN_clean_linker_2, # of connection points: 2
#     Edge 56, Type (0, 0), BuildingBlock: XUDNAN_clean_linker_2, # of connection points: 2
#     Edge 57, Type (0, 0), BuildingBlock: XUDNAN_clean_linker_2, # of connection points: 2
#     Edge 58, Type (0, 0), BuildingBlock: XUDNAN_clean_linker_2, # of connection points: 2
#     Edge 59, Type (0, 0), BuildingBlock: XUDNAN_clean_linker_2, # of connection points: 2
#     Edge 60, Type (0, 0), BuildingBlock: XUDNAN_clean_linker_2, # of connection points: 2
#     Edge 61, Type (0, 0), BuildingBlock: XUDNAN_clean_linker_2, # of connection points: 2
#     Edge 62, Type (0, 0), BuildingBlock: XUDNAN_clean_linker_2, # of connection points: 2
#     Edge 63, Type (0, 0), BuildingBlock: XUDNAN_clean_linker_2, # of connection points: 2
#     Edge 64, Type (0, 0), BuildingBlock: XUDNAN_clean_linker_2, # of connection points: 2
#     Edge 65, Type (0, 0), BuildingBlock: XUDNAN_clean_linker_2, # of connection points: 2
#     Edge 66, Type (0, 0), BuildingBlock: XUDNAN_clean_linker_2, # of connection points: 2
#     Edge 67, Type (0, 0), BuildingBlock: XUDNAN_clean_linker_2, # of connection points: 2
#     Edge 68, Type (0, 0), BuildingBlock: XUDNAN_clean_linker_2, # of connection points: 2
#     Edge 69, Type (0, 0), BuildingBlock: XUDNAN_clean_linker_2, # of connection points: 2
#     Edge 70, Type (0, 0), BuildingBlock: XUDNAN_clean_linker_2, # of connection points: 2
#     Edge 71, Type (0, 0), BuildingBlock: XUDNAN_clean_linker_2, # of connection points: 2
# Relax obj value: 0.096
# Max RMSD: 0.216
# Mean RMSD: 0.216
data_MOF--net-wmi--node1-GEDQOX_clean_sbu_0--edge1-XUDNAN_clean_linker_2
_symmetry_space_group_name_H-M    P1
_symmetry_Int_Tables_number       1
_symmetry_cell_setting            triclinic
loop_
_symmetry_equiv_pos_as_xyz
'x, y, z'
_cell_length_a     40.1773
_cell_length_b     40.542017
_cell_length_c     79.936389
_cell_angle_alpha  90.008222
_cell_angle_beta   89.990361
_cell_angle_gamma 119.99755
loop_
_atom_site_label
_atom_site_type_symbol
_atom_site_fract_x
_atom_site_fract_y
_atom_site_fract_z
_atom_type_partial_charge
Nd0 Nd 0.49202 0.06663 0.10399 0.0
Nd1 Nd 0.51839 1.00232 0.11071 0.0
C2 C 0.48448 0.12321 0.0918 0.0
C3 C 0.49478 0.1626 0.09685 0.0
C4 C 0.52372 0.19396 0.08812 0.0
C5 C 0.53369 0.2313 0.09244 0.0
C6 C 0.51477 0.23844 0.10558 0.0
C7 C 0.48569 0.20689 0.1143 0.0
C8 C 0.47597 0.16954 0.11006 0.0
C9 C 0.47878 0.04158 0.13715 0.0
C10 C 0.58342 0.09288 0.112 0.0
C11 C 0.53087 0.94882 0.12266 0.0
C12 C 0.5363 0.91795 0.11618 0.0
C13 C 0.5286 0.8874 0.12671 0.0
C14 C 0.53359 0.85764 0.121 0.0
C15 C 0.54661 0.85796 0.10462 0.0
C16 C 0.55362 0.88842 0.09395 0.0
C17 C 0.54838 0.91815 0.09968 0.0
C18 C 0.51683 1.01751 0.07672 0.0
C19 C 0.43011 0.9761 0.1021 0.0
O20 O 0.51319 0.11789 0.08802 0.0
O21 O 0.45697 0.09443 0.10002 0.0
O22 O 0.47285 0.06794 0.13114 0.0
O23 O 0.49606 0.03388 0.12591 0.0
O24 O 0.55794 0.10189 0.10647 0.0
O25 O 0.57446 0.05792 0.11642 0.0
O26 O 0.49647 0.94426 0.12079 0.0
O27 O 0.55849 0.98377 0.11979 0.0
O28 O 0.52609 0.99308 0.08226 0.0
O29 O 0.50955 0.03158 0.08916 0.0
O30 O 0.45337 0.97075 0.11192 0.0
O31 O 0.44047 1.00939 0.09476 0.0
H32 H 0.53881 0.18961 0.07789 0.0
H33 H 0.55663 0.25456 0.08557 0.0
H34 H 0.46987 0.21087 0.1243 0.0
H35 H 0.45351 0.14614 0.11708 0.0
H36 H 0.51878 0.88661 0.13941 0.0
H37 H 0.52715 0.83433 0.12945 0.0
H38 H 0.56401 0.88977 0.08133 0.0
H39 H 0.55412 0.94141 0.0913 0.0
Nd40 Nd 1.02564 0.44822 0.10512 0.0
Nd41 Nd 0.07314 0.5307 0.1081 0.0
C42 C 0.97784 0.37545 0.09809 0.0
C43 C 0.93554 0.34894 0.09959 0.0
C44 C 0.91053 0.34703 0.08683 0.0
C45 C 0.87126 0.32032 0.08753 0.0
C46 C 0.85572 0.29446 0.10093 0.0
C47 C 0.88029 0.29745 0.11411 0.0
C48 C 0.91978 0.32429 0.11341 0.0
C49 C 0.04887 0.46913 0.13829 0.0
C50 C 0.98392 0.4964 0.11114 0.0
C51 C 0.12347 0.60308 0.11526 0.0
C52 C 0.15757 0.63826 0.10911 0.0
C53 C 0.19216 0.65394 0.11812 0.0
C54 C 0.22291 0.68997 0.11404 0.0
C55 C 0.21965 0.71142 0.10093 0.0
C56 C 0.18533 0.695 0.09158 0.0
C57 C 0.15479 0.65886 0.09556 0.0
C58 C 0.04562 0.50861 0.07563 0.0
C59 C 0.11697 0.48357 0.09949 0.0
O60 O 0.98941 0.40278 0.08704 0.0
O61 O 0.99782 0.38678 0.1119 0.0
O62 O 1.01351 0.44762 0.13348 0.0
O63 O 0.06829 0.484 0.12527 0.0
O64 O 0.98382 0.46963 0.10197 0.0
O65 O 1.01551 0.52025 0.11921 0.0
O66 O 0.12772 0.57468 0.12008 0.0
O67 O 0.09081 0.59185 0.1077 0.0
O68 O 0.04843 0.53791 0.08333 0.0
O69 O 0.05821 0.49241 0.08508 0.0
O70 O 0.12013 0.51759 0.10025 0.0
O71 O 0.08348 0.4518 0.10073 0.0
H72 H 0.92136 0.36566 0.07606 0.0
H73 H 0.8531 0.31938 0.07731 0.0
H74 H 0.86935 0.27796 0.12459 0.0
H75 H 0.93813 0.32505 0.12351 0.0
H76 H 0.19504 0.63881 0.12869 0.0
H77 H 0.249 0.70117 0.12136 0.0
H78 H 0.18123 0.71063 0.08159 0.0
H79 H 0.12849 0.64778 0.08839 0.0
Nd80 Nd 0.63664 0.59878 0.1029 0.0
Nd81 Nd 0.55379 0.56724 0.11214 0.0
C82 C 0.70832 0.61488 0.09752 0.0
C83 C 0.73288 0.59719 0.09846 0.0
C84 C 0.7412 0.58289 0.08406 0.0
C85 C 0.76637 0.56851 0.08486 0.0
C86 C 0.78387 0.56816 0.10009 0.0
C87 C 0.77565 0.58258 0.11448 0.0
C88 C 0.75048 0.59693 0.11369 0.0
C89 C 0.62545 0.62724 0.13218 0.0
C90 C 0.58433 0.50869 0.11459 0.0
C91 C 0.49063 0.55403 0.12783 0.0
C92 C 0.45347 0.55114 0.1245 0.0
C93 C 0.43132 0.55042 0.13813 0.0
C94 C 0.39404 0.5434 0.13566 0.0
C95 C 0.37853 0.53723 0.11949 0.0
C96 C 0.40146 0.5401 0.10568 0.0
C97 C 0.43886 0.54689 0.10818 0.0
C98 C 0.55479 0.55584 0.07794 0.0
C99 C 0.59966 0.65018 0.09429 0.0
O100 O 0.68291 0.60486 0.08546 0.0
O101 O 0.69562 0.61984 0.11176 0.0
O102 O 0.64825 0.64764 0.12029 0.0
O103 O 0.60754 0.59203 0.12826 0.0
O104 O 0.61408 0.5338 0.10578 0.0
O105 O 0.55966 0.51728 0.12107 0.0
O106 O 0.52101 0.58798 0.1267 0.0
O107 O 0.49573 0.52701 0.1216 0.0
O108 O 0.52398 0.54453 0.08675 0.0
O109 O 0.58396 0.57127 0.08724 0.0
O110 O 0.57343 0.62869 0.10533 0.0
O111 O 0.62602 0.64227 0.08886 0.0
H112 H 0.72862 0.5832 0.07212 0.0
H113 H 0.7725 0.55805 0.07348 0.0
H114 H 0.78826 0.58232 0.12642 0.0
H115 H 0.7451 0.6081 0.12504 0.0
H116 H 0.44236 0.55389 0.15076 0.0
H117 H 0.37676 0.54139 0.14644 0.0
H118 H 0.38978 0.5351 0.09312 0.0
H119 H 0.45577 0.5475 0.09751 0.0
Nd120 Nd 0.0762 0.47563 0.92767 0.0
Nd121 Nd 1.01565 0.5011 0.91854 0.0
C122 C 0.13271 0.46728 0.93984 0.0
C123 C 0.17407 0.48161 0.93716 0.0
C124 C 0.19855 0.49318 0.95105 0.0
C125 C 0.23666 0.50192 0.94935 0.0
C126 C 0.2511 0.49926 0.9337 0.0
C127 C 0.22727 0.48976 0.91957 0.0
C128 C 0.18895 0.4809 0.92128 0.0
C129 C 0.04294 0.4494 0.89708 0.0
C130 C 0.107 0.56424 0.91518 0.0
C131 C 0.9659 0.51659 0.90421 0.0
C132 C 0.93292 0.52145 0.90801 0.0
C133 C 0.91321 0.52615 0.89464 0.0
C134 C 0.8851 0.53597 0.8976 0.0
C135 C 0.8761 0.54106 0.91401 0.0
C136 C 0.8943 0.53425 0.9275 0.0
C137 C 0.92285 0.52471 0.92451 0.0
C138 C 1.0286 0.50467 0.95304 0.0
C139 C 0.9847 0.41516 0.93111 0.0
O140 O 0.12267 0.49061 0.9464 0.0
O141 O 0.10928 0.44566 0.92813 0.0
O142 O 0.05593 0.43314 0.90691 0.0
O143 O 0.05154 0.48255 0.90258 0.0
O144 O 0.1159 0.53933 0.92131 0.0
O145 O 0.07143 0.55532 0.91161 0.0
O146 O 0.96073 0.48206 0.90504 0.0
O147 O 0.99913 0.54272 0.91013 0.0
O148 O 1.00475 0.51352 0.94636 0.0
O149 O 0.04271 0.49504 0.94151 0.0
O150 O 0.97882 0.43727 0.92096 0.0
O151 O 1.01883 0.42574 0.93793 0.0
H152 H 0.18778 0.49409 0.96337 0.0
H153 H 0.2546 0.50966 0.96041 0.0
H154 H 0.23766 0.48735 0.90738 0.0
H155 H 0.1707 0.47221 0.9103 0.0
H156 H 0.92066 0.52368 0.88185 0.0
H157 H 0.87119 0.54081 0.88703 0.0
H158 H 0.88788 0.53823 0.94026 0.0
H159 H 0.93792 0.52125 0.935 0.0
Nd160 Nd 0.60823 0.62344 0.92895 0.0
Nd161 Nd 0.58353 0.53542 0.92155 0.0
C162 C 0.61696 0.68729 0.94165 0.0
C163 C 0.60197 0.71335 0.93796 0.0
C164 C 0.56776 0.70717 0.94551 0.0
C165 C 0.55504 0.73316 0.94338 0.0
C166 C 0.57639 0.76637 0.93383 0.0
C167 C 0.60951 0.77168 0.92548 0.0
C168 C 0.62224 0.74541 0.92756 0.0
C169 C 0.62499 0.6151 0.89595 0.0
C170 C 0.51895 0.56144 0.91843 0.0
C171 C 0.57026 0.47059 0.90856 0.0
C172 C 0.56795 0.43526 0.91467 0.0
C173 C 0.59818 0.42845 0.9112 0.0
C174 C 0.59458 0.39331 0.9149 0.0
C175 C 0.56047 0.36419 0.92195 0.0
C176 C 0.53135 0.3718 0.92663 0.0
C177 C 0.53504 0.40718 0.92301 0.0
C178 C 0.57684 0.54519 0.95548 0.0
C179 C 0.6712 0.59497 0.93292 0.0
O180 O 0.5923 0.65352 0.9475 0.0
O181 O 0.6413 0.68647 0.93101 0.0
O182 O 0.62855 0.6462 0.90221 0.0
O183 O 0.60803 0.58919 0.90674 0.0
O184 O 0.54303 0.59535 0.92468 0.0
O185 O 0.52938 0.53659 0.914 0.0
O186 O 0.60439 0.50118 0.90858 0.0
O187 O 0.54269 0.4771 0.91304 0.0
O188 O 0.56863 0.51305 0.94861 0.0
O189 O 0.5883 0.57039 0.94423 0.0
O190 O 0.64721 0.56244 0.92567 0.0
O191 O 0.6624 0.62144 0.93708 0.0
H192 H 0.55118 0.68269 0.95348 0.0
H193 H 0.52888 0.72775 0.94965 0.0
H194 H 0.62655 0.79697 0.91802 0.0
H195 H 0.64857 0.75085 0.92145 0.0
H196 H 0.62396 0.44967 0.90492 0.0
H197 H 0.61755 0.38809 0.9113 0.0
H198 H 0.50469 0.34963 0.93196 0.0
H199 H 0.51138 0.41176 0.92602 0.0
Nd200 Nd 0.45358 1.00594 0.92767 0.0
Nd201 Nd 0.54771 0.05708 0.9206 0.0
C202 C 0.38688 0.95262 0.93972 0.0
C203 C 0.35855 0.91261 0.93474 0.0
C204 C 0.3619 0.88164 0.94066 0.0
C205 C 0.33506 0.84407 0.9361 0.0
C206 C 0.30396 0.83629 0.9255 0.0
C207 C 0.30068 0.86734 0.91962 0.0
C208 C 0.32756 0.90485 0.92413 0.0
C209 C 0.46735 0.02651 0.89416 0.0
C210 C 0.50796 0.96628 0.9194 0.0
C211 C 0.61592 0.10496 0.90823 0.0
C212 C 0.65091 0.14127 0.91245 0.0
C213 C 0.66627 0.17031 0.90043 0.0
C214 C 0.70236 0.20248 0.9028 0.0
C215 C 0.72376 0.20632 0.9173 0.0
C216 C 0.70722 0.17873 0.92995 0.0
C217 C 0.67104 0.14632 0.92754 0.0
C218 C 0.52942 0.04327 0.95442 0.0
C219 C 0.49906 0.09969 0.93056 0.0
O220 O 0.42007 0.95889 0.9455 0.0
O221 O 0.39022 0.98023 0.93001 0.0
O222 O 0.43382 1.00406 0.90053 0.0
O223 O 0.49221 0.03187 0.90535 0.0
O224 O 0.4763 0.96392 0.92566 0.0
O225 O 0.53709 0.99817 0.91369 0.0
O226 O 0.58494 0.10648 0.90443 0.0
O227 O 0.60886 0.07473 0.91697 0.0
O228 O 0.5646 0.06092 0.949 0.0
O229 O 0.5077 0.03397 0.94197 0.0
O230 O 0.53098 0.10105 0.92561 0.0
O231 O 0.46625 0.0675 0.93389 0.0
H232 H 0.38537 0.88637 0.94885 0.0
H233 H 0.33905 0.8212 0.94074 0.0
H234 H 0.27689 0.86277 0.9117 0.0
H235 H 0.32384 0.92781 0.91936 0.0
H236 H 0.65116 0.16723 0.88879 0.0
H237 H 0.71445 0.22351 0.89291 0.0
H238 H 0.7233 0.18097 0.94119 0.0
H239 H 0.65971 0.12453 0.93713 0.0
Nd240 Nd 0.15905 0.39912 0.43537 0.0
Nd241 Nd 0.18636 0.33894 0.44288 0.0
C242 C 0.15176 0.45761 0.42549 0.0
C243 C 0.16389 0.49705 0.43099 0.0
C244 C 0.19111 0.52824 0.42162 0.0
C245 C 0.20125 0.56553 0.42608 0.0
C246 C 0.18418 0.57261 0.43999 0.0
C247 C 0.15714 0.54125 0.44943 0.0
C248 C 0.14728 0.50403 0.44506 0.0
C249 C 0.13275 0.36217 0.46529 0.0
C250 C 0.2479 0.42853 0.44866 0.0
C251 C 0.2001 0.2862 0.45475 0.0
C252 C 0.20586 0.25537 0.44828 0.0
C253 C 0.18878 0.22032 0.45663 0.0
C254 C 0.19541 0.19127 0.4513 0.0
C255 C 0.2196 0.19683 0.43755 0.0
C256 C 0.23606 0.23186 0.42899 0.0
C257 C 0.22905 0.26074 0.43423 0.0
C258 C 0.18981 0.35508 0.40862 0.0
C259 C 0.10024 0.31022 0.43045 0.0
O260 O 0.17846 0.45107 0.41982 0.0
O261 O 0.12624 0.42961 0.43463 0.0
O262 O 0.11592 0.37606 0.4563 0.0
O263 O 0.16623 0.37207 0.4595 0.0
O264 O 0.22275 0.43747 0.44269 0.0
O265 O 0.23978 0.39322 0.45133 0.0
O266 O 0.16537 0.28126 0.45353 0.0
O267 O 0.22719 0.32117 0.45154 0.0
O268 O 0.19899 0.33108 0.41468 0.0
O269 O 0.18041 0.36816 0.42066 0.0
O270 O 0.12184 0.305 0.44129 0.0
O271 O 0.11189 0.34355 0.42299 0.0
H272 H 0.20435 0.52377 0.4107 0.0
H273 H 0.22262 0.58878 0.41863 0.0
H274 H 0.14275 0.54523 0.46004 0.0
H275 H 0.1261 0.48074 0.45257 0.0
H276 H 0.17057 0.21553 0.46741 0.0
H277 H 0.18155 0.16449 0.458 0.0
H278 H 0.25524 0.23749 0.41851 0.0
H279 H 0.24237 0.28749 0.42747 0.0
Nd280 Nd 0.68632 0.7858 0.43918 0.0
Nd281 Nd 0.74627 0.87459 0.4438 0.0
C282 C 0.6361 0.71507 0.43049 0.0
C283 C 0.59589 0.68626 0.43489 0.0
C284 C 0.56439 0.68827 0.42835 0.0
C285 C 0.52665 0.66036 0.43232 0.0
C286 C 0.51944 0.62973 0.4429 0.0
C287 C 0.55102 0.62783 0.44939 0.0
C288 C 0.58868 0.65571 0.44545 0.0
C289 C 0.71928 0.80686 0.47098 0.0
C290 C 0.65591 0.84287 0.45046 0.0
C291 C 0.79773 0.94258 0.45473 0.0
C292 C 0.82848 0.97856 0.44773 0.0
C293 C 0.86538 0.99486 0.45464 0.0
C294 C 0.89468 0.02991 0.44888 0.0
C295 C 0.88753 0.04962 0.43618 0.0
C296 C 0.85076 0.03259 0.42889 0.0
C297 C 0.82154 0.99726 0.43455 0.0
C298 C 0.72228 0.85864 0.41081 0.0
C299 C 0.77786 0.81968 0.43037 0.0
O300 O 0.64145 0.74492 0.42195 0.0
O301 O 0.66229 0.72351 0.44204 0.0
O302 O 0.68316 0.78271 0.46812 0.0
O303 O 0.73468 0.82063 0.45711 0.0
O304 O 0.6475 0.81216 0.44162 0.0
O305 O 0.69087 0.86526 0.45636 0.0
O306 O 0.80368 0.91367 0.45446 0.0
O307 O 0.7622 0.93317 0.45122 0.0
O308 O 0.74667 0.89265 0.41599 0.0
O309 O 0.71172 0.83682 0.42315 0.0
O310 O 0.78627 0.85254 0.43721 0.0
O311 O 0.74223 0.79095 0.42823 0.0
H312 H 0.5688 0.71137 0.42015 0.0
H313 H 0.50317 0.66309 0.42723 0.0
H314 H 0.54673 0.60438 0.45732 0.0
H315 H 0.61223 0.65314 0.45059 0.0
H316 H 0.87142 0.98067 0.46469 0.0
H317 H 0.92284 0.04171 0.45454 0.0
H318 H 0.8441 0.04708 0.41922 0.0
H319 H 0.79338 0.98506 0.42884 0.0
Nd320 Nd 0.30036 0.92657 0.43523 0.0
Nd321 Nd 0.21339 0.89739 0.44224 0.0
C322 C 0.37085 0.9454 0.42586 0.0
C323 C 0.39907 0.93381 0.43092 0.0
C324 C 0.41763 0.92408 0.41863 0.0
C325 C 0.445 0.91383 0.42308 0.0
C326 C 0.45451 0.91315 0.43998 0.0
C327 C 0.43492 0.92173 0.45231 0.0
C328 C 0.40749 0.93187 0.44785 0.0
C329 C 0.28322 0.93778 0.46796 0.0
C330 C 0.24573 0.84003 0.44729 0.0
C331 C 0.14709 0.88161 0.4557 0.0
C332 C 0.10973 0.87542 0.44991 0.0
C333 C 0.0901 0.88883 0.45969 0.0
C334 C 0.05447 0.88326 0.45456 0.0
C335 C 0.03767 0.86387 0.43956 0.0
C336 C 0.05783 0.85093 0.42965 0.0
C337 C 0.09368 0.85688 0.43473 0.0
C338 C 0.22102 0.88594 0.40867 0.0
C339 C 0.26581 0.98344 0.42806 0.0
O340 O 0.34005 0.91957 0.41817 0.0
O341 O 0.36346 0.96533 0.43659 0.0
O342 O 0.30699 0.92596 0.46419 0.0
O343 O 0.26842 0.94025 0.45456 0.0
O344 O 0.27395 0.86189 0.43711 0.0
O345 O 0.22435 0.85229 0.45441 0.0
O346 O 0.17596 0.91628 0.45412 0.0
O347 O 0.15588 0.85547 0.45187 0.0
O348 O 0.18857 0.87614 0.4159 0.0
O349 O 0.2477 0.90032 0.41928 0.0
O350 O 0.23378 0.95861 0.43557 0.0
O351 O 0.29447 0.97692 0.42477 0.0
H352 H 0.41128 0.92489 0.40551 0.0
H353 H 0.45954 0.90759 0.41324 0.0
H354 H 0.44083 0.9207 0.46546 0.0
H355 H 0.39309 0.93842 0.45766 0.0
H356 H 0.10237 0.90364 0.47134 0.0
H357 H 0.04021 0.89431 0.46234 0.0
H358 H 0.04561 0.83547 0.41814 0.0
H359 H 0.10862 0.84666 0.42688 0.0
Nd360 Nd 0.74251 0.80552 0.26027 0.0
Nd361 Nd 0.6909 0.84398 0.25537 0.0
C362 C 0.78991 0.78084 0.26858 0.0
C363 C 0.83061 0.79358 0.2643 0.0
C364 C 0.85714 0.79954 0.27704 0.0
C365 C 0.89545 0.81077 0.27318 0.0
C366 C 0.90808 0.81616 0.25645 0.0
C367 C 0.88172 0.81142 0.24376 0.0
C368 C 0.84354 0.80041 0.24762 0.0
C369 C 0.71801 0.80347 0.22757 0.0
C370 C 0.78318 0.89645 0.25265 0.0
C371 C 0.64457 0.86618 0.24273 0.0
C372 C 0.60849 0.8663 0.24569 0.0
C373 C 0.58657 0.86471 0.23179 0.0
C374 C 0.5556 0.87088 0.23362 0.0
C375 C 0.54588 0.87862 0.24943 0.0
C376 C 0.56608 0.87748 0.26358 0.0
C377 C 0.59739 0.87151 0.26172 0.0
C378 C 0.70935 0.84582 0.28875 0.0
C379 C 0.64893 0.75454 0.26646 0.0
O380 O 0.78404 0.80373 0.27811 0.0
O381 O 0.76451 0.76562 0.25655 0.0
O382 O 0.753 0.81332 0.23183 0.0
O383 O 0.69968 0.80049 0.24084 0.0
O384 O 0.78573 0.86888 0.26014 0.0
O385 O 0.75036 0.89124 0.24656 0.0
O386 O 0.64215 0.83368 0.23886 0.0
O387 O 0.67381 0.88763 0.25241 0.0
O388 O 0.68856 0.85967 0.28315 0.0
O389 O 0.71931 0.83286 0.27672 0.0
O390 O 0.64534 0.78442 0.26292 0.0
O391 O 0.68245 0.75543 0.26713 0.0
H392 H 0.84807 0.79501 0.29 0.0
H393 H 0.91485 0.81404 0.28327 0.0
H394 H 0.89059 0.8161 0.23077 0.0
H395 H 0.8241 0.79695 0.23751 0.0
H396 H 0.59454 0.86047 0.21936 0.0
H397 H 0.54019 0.87118 0.22255 0.0
H398 H 0.55914 0.88345 0.2759 0.0
H399 H 0.61383 0.87259 0.27266 0.0
Nd400 Nd 0.26912 0.95111 0.26139 0.0
Nd401 Nd 0.24759 0.86383 0.2522 0.0
C402 C 0.27335 1.01316 0.27444 0.0
C403 C 0.26466 0.04332 0.26914 0.0
C404 C 0.23575 0.04686 0.27742 0.0
C405 C 0.22724 0.07525 0.27287 0.0
C406 C 0.24763 0.10118 0.25992 0.0
C407 C 0.27667 0.09755 0.25165 0.0
C408 C 0.28494 0.06893 0.25612 0.0
C409 C 0.28884 0.94582 0.22833 0.0
C410 C 0.18158 0.88822 0.24849 0.0
C411 C 0.23831 0.80119 0.23789 0.0
C412 C 0.23287 0.76376 0.2425 0.0
C413 C 0.23817 0.74232 0.23018 0.0
C414 C 0.22908 0.70496 0.23346 0.0
C415 C 0.21489 0.68863 0.24918 0.0
C416 C 0.21164 0.71076 0.2619 0.0
C417 C 0.22046 0.74822 0.25856 0.0
C418 C 0.23903 0.87052 0.28632 0.0
C419 C 0.33409 0.92537 0.26425 0.0
O420 O 0.24384 0.97893 0.27659 0.0
O421 O 0.30276 1.01276 0.26754 0.0
O422 O 0.29221 0.97644 0.23508 0.0
O423 O 0.27072 0.91922 0.23869 0.0
O424 O 0.20395 0.9207 0.25631 0.0
O425 O 0.19383 0.86503 0.24347 0.0
O426 O 0.27214 0.83076 0.2409 0.0
O427 O 0.20976 0.80711 0.24119 0.0
O428 O 0.2318 0.83927 0.27886 0.0
O429 O 0.25002 0.89659 0.27552 0.0
O430 O 0.31197 0.89479 0.25533 0.0
O431 O 0.32299 0.94905 0.27018 0.0
H432 H 0.21955 0.02751 0.28747 0.0
H433 H 0.20425 0.07642 0.27939 0.0
H434 H 0.29356 0.11718 0.24181 0.0
H435 H 0.30739 0.0671 0.24943 0.0
H436 H 0.24794 0.754 0.21779 0.0
H437 H 0.23171 0.68826 0.2235 0.0
H438 H 0.20038 0.69844 0.27407 0.0
H439 H 0.21633 0.76449 0.26826 0.0
Nd440 Nd 0.1224 0.33623 0.26006 0.0
Nd441 Nd 0.21439 0.39585 0.25269 0.0
C442 C 0.05715 0.2849 0.27373 0.0
C443 C 1.02904 0.24431 0.27077 0.0
C444 C 1.02117 0.21827 0.28378 0.0
C445 C 0.99644 0.17945 0.28124 0.0
C446 C 0.97887 0.16574 0.26562 0.0
C447 C 0.98587 0.1918 0.25265 0.0
C448 C 1.01102 0.23082 0.25515 0.0
C449 C 0.13369 0.36053 0.227 0.0
C450 C 0.1807 0.30405 0.24902 0.0
C451 C 0.28151 0.44475 0.24011 0.0
C452 C 0.31612 0.4801 0.24535 0.0
C453 C 0.32427 0.51464 0.2379 0.0
C454 C 0.35919 0.54757 0.24092 0.0
C455 C 0.38674 0.54646 0.25133 0.0
C456 C 0.37763 0.51262 0.25976 0.0
C457 C 0.34252 0.47958 0.25678 0.0
C458 C 0.19909 0.3795 0.28651 0.0
C459 C 0.15825 0.42883 0.26391 0.0
O460 O 0.09085 0.29226 0.27931 0.0
O461 O 0.05924 0.30959 0.2626 0.0
O462 O 0.10073 0.33548 0.23314 0.0
O463 O 0.15917 0.36861 0.23808 0.0
O464 O 0.14757 0.2965 0.25588 0.0
O465 O 0.20755 0.33861 0.24447 0.0
O466 O 0.25041 0.44687 0.23739 0.0
O467 O 0.27479 0.41303 0.24744 0.0
O468 O 0.23306 0.40328 0.28084 0.0
O469 O 0.17673 0.36676 0.27427 0.0
O470 O 0.19085 0.43562 0.2569 0.0
O471 O 0.12969 0.39434 0.26792 0.0
H472 H 0.03472 0.22796 0.2959 0.0
H473 H 0.99129 0.16 0.2915 0.0
H474 H 0.97294 0.18188 0.24045 0.0
H475 H 1.0168 0.25023 0.24482 0.0
H476 H 0.30431 0.51589 0.22916 0.0
H477 H 0.36549 0.57353 0.23443 0.0
H478 H 0.39855 0.51106 0.26777 0.0
H479 H 0.33691 0.45342 0.26285 0.0
Nd480 Nd 0.82364 0.72882 0.77136 0.0
Nd481 Nd 0.85596 0.67791 0.77335 0.0
C482 C 0.80881 0.78154 0.76027 0.0
C483 C 0.82471 0.82292 0.76325 0.0
C484 C 0.86129 0.8497 0.75719 0.0
C485 C 0.87483 0.88866 0.75873 0.0
C486 C 0.85219 0.90203 0.76629 0.0
C487 C 0.81649 0.87537 0.77317 0.0
C488 C 0.80285 0.83618 0.77162 0.0
C489 C 0.81358 0.7069 0.80433 0.0
C490 C 0.9134 0.76327 0.78135 0.0
C491 C 0.87802 0.62696 0.77729 0.0
C492 C 0.87204 0.58966 0.77192 0.0
C493 C 0.84237 0.55596 0.77889 0.0
C494 C 0.84232 0.5218 0.77692 0.0
C495 C 0.87214 0.52086 0.76813 0.0
C496 C 0.89979 0.55379 0.75989 0.0
C497 C 0.89977 0.58798 0.7618 0.0
C498 C 0.85697 0.70622 0.74172 0.0
C499 C 0.76358 0.63819 0.76814 0.0
O500 O 0.83094 0.77153 0.75238 0.0
O501 O 0.78943 0.75824 0.77245 0.0
O502 O 0.80991 0.73453 0.79835 0.0
O503 O 0.82852 0.69513 0.79356 0.0
O504 O 0.88941 0.76914 0.7724 0.0
O505 O 0.90291 0.72919 0.78702 0.0
O506 O 0.85161 0.6279 0.78648 0.0
O507 O 0.89415 0.65516 0.7667 0.0
O508 O 0.88667 0.70761 0.74871 0.0
O509 O 0.8293 0.69229 0.75179 0.0
O510 O 0.79311 0.63288 0.77002 0.0
O511 O 0.76723 0.67243 0.76737 0.0
H512 H 0.87928 0.8407 0.75088 0.0
H513 H 0.90288 0.90841 0.75365 0.0
H514 H 0.79835 0.88471 0.77908 0.0
H515 H 0.77471 0.81622 0.77655 0.0
H516 H 0.82053 0.55628 0.78672 0.0
H517 H 0.82032 0.4966 0.7832 0.0
H518 H 0.92323 0.55392 0.75313 0.0
H519 H 0.92303 0.61361 0.75632 0.0
Nd520 Nd 0.35638 0.11796 0.76764 0.0
Nd521 Nd 0.41583 0.19964 0.77745 0.0
C522 C 0.29755 0.05406 0.75598 0.0
C523 C 0.2584 0.02479 0.76146 0.0
C524 C 0.22582 0.02368 0.75441 0.0
C525 C 0.18878 0.99521 0.75899 0.0
C526 C 0.18339 0.96694 0.77066 0.0
C527 C 0.21612 0.96812 0.77767 0.0
C528 C 0.25308 0.9967 0.77319 0.0
C529 C 0.38779 0.12126 0.79854 0.0
C530 C 0.32635 0.17595 0.78133 0.0
C531 C 0.46824 0.26283 0.79196 0.0
C532 C 0.50158 0.29997 0.78759 0.0
C533 C 0.53375 0.31509 0.79808 0.0
C534 C 0.56375 0.35228 0.7958 0.0
C535 C 0.56215 0.37498 0.78292 0.0
C536 C 0.53119 0.35905 0.77164 0.0
C537 C 0.50094 0.32171 0.77398 0.0
C538 C 0.40607 0.19804 0.7429 0.0
C539 C 0.44611 0.1452 0.76373 0.0
O540 O 0.30317 0.08788 0.7523 0.0
O541 O 0.32666 0.05552 0.7639 0.0
O542 O 0.37605 0.09347 0.78805 0.0
O543 O 0.37942 0.14618 0.79339 0.0
O544 O 0.31679 0.14222 0.77499 0.0
O545 O 0.36222 0.20132 0.7847 0.0
O546 O 0.4721 0.2328 0.79024 0.0
O547 O 0.43429 0.25689 0.78758 0.0
O548 O 0.42842 0.22821 0.7514 0.0
O549 O 0.38938 0.17039 0.75274 0.0
O550 O 0.45154 0.1715 0.77467 0.0
O551 O 0.41238 0.12398 0.75631 0.0
H552 H 0.22895 0.04479 0.74528 0.0
H553 H 0.1644 0.99564 0.75346 0.0
H554 H 0.21333 0.94652 0.78643 0.0
H555 H 0.27746 0.99639 0.77881 0.0
H556 H 0.53491 0.29866 0.80852 0.0
H557 H 0.58752 0.36391 0.80455 0.0
H558 H 0.52932 0.37615 0.76167 0.0
H559 H 0.47649 0.31046 0.7656 0.0
Nd560 Nd 0.97488 0.26497 0.7691 0.0
Nd561 Nd 0.88127 0.22201 0.77738 0.0
C562 C 0.04068 0.27778 0.75617 0.0
C563 C 0.06964 0.26718 0.76136 0.0
C564 C 0.08155 0.24871 0.74998 0.0
C565 C 0.10901 0.23864 0.75457 0.0
C566 C 0.12527 0.24685 0.7707 0.0
C567 C 0.11219 0.26411 0.78227 0.0
C568 C 0.08473 0.2741 0.77768 0.0
C569 C 0.96295 0.27321 0.80273 0.0
C570 C 0.92192 0.17134 0.77785 0.0
C571 C 0.81307 0.20114 0.78998 0.0
C572 C 0.77768 0.20151 0.78528 0.0
C573 C 0.76355 0.21893 0.79606 0.0
C574 C 0.72752 0.21514 0.79329 0.0
C575 C 0.70494 0.1939 0.77965 0.0
C576 C 0.72016 0.17878 0.76814 0.0
C577 C 0.75628 0.18248 0.77094 0.0
C578 C 0.89798 0.22602 0.74329 0.0
C579 C 0.92843 0.31263 0.76708 0.0
O580 O 1.00739 0.24958 0.75137 0.0
O581 O 0.03753 0.30304 0.76528 0.0
O582 O 0.99624 0.28471 0.79593 0.0
O583 O 0.93774 0.25249 0.79191 0.0
O584 O 0.95299 0.20055 0.77128 0.0
O585 O 0.89304 0.17416 0.78405 0.0
O586 O 0.84353 0.2341 0.79337 0.0
O587 O 0.82092 0.17777 0.7818 0.0
O588 O 0.86309 0.20812 0.74904 0.0
O589 O 0.91994 0.23917 0.75559 0.0
O590 O 0.89796 0.28308 0.77355 0.0
O591 O 0.96034 0.31248 0.76239 0.0
H592 H 0.06986 0.24242 0.73742 0.0
H593 H 0.11835 0.22552 0.74531 0.0
H594 H 0.12331 0.27007 0.79492 0.0
H595 H 0.07548 0.2874 0.78691 0.0
H596 H 0.77966 0.23405 0.80708 0.0
H597 H 0.71645 0.2273 0.80227 0.0
H598 H 0.70315 0.16207 0.75759 0.0
H599 H 0.76663 0.16907 0.76227 0.0
Nd600 Nd 0.40655 0.13665 0.59403 0.0
Nd601 Nd 0.358 0.17108 0.58639 0.0
C602 C 0.46321 0.12137 0.59626 0.0
C603 C 0.50545 0.13875 0.59652 0.0
C604 C 0.52911 0.16727 0.6079 0.0
C605 C 0.5692 0.18346 0.60709 0.0
C606 C 0.5863 0.17168 0.59478 0.0
C607 C 0.56227 0.14321 0.58343 0.0
C608 C 0.52244 0.12693 0.58434 0.0
C609 C 0.36555 0.10973 0.56503 0.0
C610 C 0.44648 0.22878 0.58715 0.0
C611 C 0.30799 0.18828 0.57367 0.0
C612 C 0.27781 0.19532 0.58046 0.0
C613 C 0.23898 0.16913 0.57732 0.0
C614 C 0.21015 0.17575 0.58329 0.0
C615 C 0.2195 0.20906 0.59238 0.0
C616 C 0.25844 0.235 0.5957 0.0
C617 C 0.28723 0.22811 0.58992 0.0
C618 C 0.37115 0.18033 0.62052 0.0
C619 C 0.31789 0.08481 0.60176 0.0
O620 O 0.44475 0.12325 0.60947 0.0
O621 O 0.44928 0.12557 0.5822 0.0
O622 O 0.3683 0.08914 0.57665 0.0
O623 O 0.38356 0.14505 0.56898 0.0
O624 O 0.44774 0.2015 0.59553 0.0
O625 O 0.41547 0.22195 0.57894 0.0
O626 O 0.30149 0.15332 0.57465 0.0
O627 O 0.34377 0.21377 0.57686 0.0
O628 O 0.3523 0.19275 0.6121 0.0
O629 O 0.38397 0.16454 0.61098 0.0
O630 O 0.31474 0.10929 0.59201 0.0
O631 O 0.35173 0.09086 0.60708 0.0
H632 H 0.51674 0.17715 0.61732 0.0
H633 H 0.58673 0.20504 0.61616 0.0
H634 H 0.57417 0.13394 0.57356 0.0
H635 H 0.50477 0.10526 0.5753 0.0
H636 H 0.23087 0.14351 0.57015 0.0
H637 H 0.18052 0.15466 0.58074 0.0
H638 H 0.26694 0.26125 0.6024 0.0
H639 H 0.31688 0.24885 0.59266 0.0
Nd640 Nd 0.95189 0.29264 0.59348 0.0
Nd641 Nd 0.91178 0.20387 0.58652 0.0
C642 C 0.9695 0.36401 0.59894 0.0
C643 C 0.95163 0.38828 0.59865 0.0
C644 C 0.9135 0.37478 0.60368 0.0
C645 C 0.89739 0.39849 0.60272 0.0
C646 C 0.91914 0.43631 0.59681 0.0
C647 C 0.95708 0.44923 0.59149 0.0
C648 C 0.97299 0.42545 0.59235 0.0
C649 C 0.97604 0.27425 0.56494 0.0
C650 C 0.85831 0.24184 0.58415 0.0
C651 C 0.89136 0.13635 0.57355 0.0
C652 C 0.88477 0.09835 0.5784 0.0
C653 C 0.90116 0.08116 0.56877 0.0
C654 C 0.89213 0.04363 0.57196 0.0
C655 C 0.8662 0.02254 0.58476 0.0
C656 C 0.851 0.04026 0.59483 0.0
C657 C 0.86033 0.07788 0.59175 0.0
C658 C 0.90922 0.21744 0.62059 0.0
C659 C 1.0 0.25053 0.60106 0.0
O660 O 0.96041 0.33897 0.61103 0.0
O661 O 0.97248 0.3511 0.58438 0.0
O662 O 0.99769 0.30176 0.57495 0.0
O663 O 0.9407 0.25688 0.56959 0.0
O664 O 0.8879 0.27357 0.58985 0.0
O665 O 0.86117 0.21198 0.57992 0.0
O666 O 0.9269 0.16459 0.57356 0.0
O667 O 0.86673 0.14615 0.57896 0.0
O668 O 0.89493 0.18352 0.61432 0.0
O669 O 0.92266 0.24078 0.60879 0.0
O670 O 0.974 0.22226 0.59191 0.0
O671 O 0.99588 0.27961 0.60604 0.0
H672 H 0.89618 0.34597 0.60832 0.0
H673 H 0.8678 0.38704 0.60658 0.0
H674 H 0.97496 0.47808 0.58702 0.0
H675 H 1.00229 0.43625 0.58816 0.0
H676 H 0.92011 0.09642 0.55843 0.0
H677 H 0.90418 0.03062 0.56399 0.0
H678 H 0.8314 0.02476 0.60495 0.0
H679 H 0.8476 0.09052 0.59953 0.0
Nd680 Nd 0.79304 0.67574 0.5909 0.0
Nd681 Nd 0.8815 0.72713 0.58508 0.0
C682 C 0.72113 0.62076 0.59473 0.0
C683 C 0.69645 0.5789 0.59585 0.0
C684 C 0.69773 0.55777 0.60949 0.0
C685 C 0.67211 0.51842 0.61036 0.0
C686 C 0.64463 0.49949 0.59765 0.0
C687 C 0.64433 0.52072 0.58382 0.0
C688 C 0.66988 0.55986 0.58296 0.0
C689 C 0.8121 0.7162 0.56187 0.0
C690 C 0.84823 0.63676 0.58592 0.0
C691 C 0.95057 0.77532 0.57352 0.0
C692 C 0.98687 0.80658 0.58041 0.0
C693 C 1.00013 0.84418 0.57519 0.0
C694 C 0.03515 0.87385 0.58104 0.0
C695 C 0.05788 0.86651 0.59215 0.0
C696 C 0.04418 0.8289 0.59757 0.0
C697 C 1.00902 0.79931 0.59185 0.0
C698 C 0.86719 0.71301 0.6191 0.0
C699 C 0.83002 0.76591 0.59656 0.0
O700 O 0.74298 0.64007 0.60746 0.0
O701 O 0.73754 0.63356 0.5802 0.0
O702 O 0.784 0.71037 0.57159 0.0
O703 O 0.83003 0.69954 0.56718 0.0
O704 O 0.81586 0.63389 0.59135 0.0
O705 O 0.87663 0.66908 0.58015 0.0
O706 O 0.92159 0.78149 0.57245 0.0
O707 O 0.94031 0.74063 0.57833 0.0
O708 O 0.90125 0.73466 0.61305 0.0
O709 O 0.84366 0.7013 0.60729 0.0
O710 O 0.86052 0.76962 0.58857 0.0
O711 O 0.80128 0.73225 0.60141 0.0
H712 H 0.71813 0.5716 0.61955 0.0
H713 H 0.67368 0.50289 0.62106 0.0
H714 H 0.62343 0.50744 0.5739 0.0
H715 H 0.66827 0.5755 0.57229 0.0
H716 H 0.98354 0.85061 0.56645 0.0
H717 H 0.04442 0.90253 0.5768 0.0
H718 H 0.0611 0.822 0.60589 0.0
H719 H 0.99961 0.77067 0.59619 0.0
H720 H 0.57771 0.82293 0.12292 0.0
H721 H 0.53271 0.82357 0.07362 0.0
H722 H 0.54754 0.77406 0.06437 0.0
H723 H 0.65353 0.81132 0.11007 0.0
H724 H 0.65033 0.7781 0.12566 0.0
H725 H 0.6352 0.8121 0.13057 0.0
H726 H 0.56737 0.76198 0.1388 0.0
H727 H 0.57842 0.72446 0.13572 0.0
H728 H 0.53853 0.72293 0.12491 0.0
H729 H 0.56648 0.72274 0.06088 0.0
H730 H 0.58296 0.67159 0.06444 0.0
H731 H 0.61401 0.7057 0.11594 0.0
C732 C 0.57047 0.81249 0.11022 0.0
C733 C 0.55418 0.82736 0.09898 0.0
C734 C 0.54582 0.81311 0.08239 0.0
C735 C 0.55398 0.78489 0.07703 0.0
C736 C 0.57047 0.77123 0.08843 0.0
C737 C 0.57816 0.78434 0.10472 0.0
C738 C 0.59493 0.76461 0.11473 0.0
C739 C 0.63586 0.79322 0.12065 0.0
C740 C 0.5683 0.74223 0.12941 0.0
C741 C 0.59555 0.73828 0.10156 0.0
C742 C 0.58159 0.74247 0.0864 0.0
C743 C 0.57804 0.71967 0.07263 0.0
C744 C 0.58796 0.69115 0.07463 0.0
C745 C 0.60115 0.68603 0.09025 0.0
C746 C 0.60554 0.71027 0.1037 0.0
H747 H 0.38714 0.92097 0.12433 0.0
H748 H 0.3917 0.95208 0.07216 0.0
H749 H 0.33842 0.88675 0.06591 0.0
H750 H 0.37192 0.82896 0.11742 0.0
H751 H 0.34016 0.80761 0.135 0.0
H752 H 0.37619 0.85732 0.13553 0.0
H753 H 0.32402 0.87563 0.14125 0.0
H754 H 0.28786 0.82594 0.14112 0.0
H755 H 0.28334 0.85873 0.12737 0.0
H756 H 0.28903 0.81593 0.06526 0.0
H757 H 0.24193 0.74839 0.0705 0.0
H758 H 0.26866 0.76556 0.12358 0.0
C759 C 0.37614 0.91437 0.11166 0.0
C760 C 0.3929 0.94164 0.09874 0.0
C761 C 0.37843 0.93185 0.08228 0.0
C762 C 0.34864 0.8947 0.07861 0.0
C763 C 0.33371 0.86807 0.0916 0.0
C764 C 0.34661 0.87774 0.10784 0.0
C765 C 0.32662 0.844 0.11954 0.0
C766 C 0.35545 0.8339 0.12732 0.0
C767 C 0.30411 0.85152 0.13312 0.0
C768 C 0.30004 0.81362 0.10737 0.0
C769 C 0.30493 0.82787 0.09129 0.0
C770 C 0.28446 0.80471 0.07786 0.0
C771 C 0.25755 0.76632 0.08101 0.0
C772 C 0.25082 0.75137 0.09751 0.0
C773 C 0.27296 0.77557 0.11078 0.0
H774 H 0.18892 0.53552 0.08825 0.0
H775 H 0.12464 0.42818 0.11475 0.0
H776 H 0.18509 0.43079 0.12259 0.0
H777 H 0.2638 0.51563 0.07225 0.0
H778 H 0.3013 0.56462 0.07428 0.0
H779 H 0.25269 0.55332 0.06998 0.0
H780 H 0.25438 0.59218 0.09604 0.0
H781 H 0.30272 0.6031 0.10059 0.0
H782 H 0.26568 0.58039 0.1162 0.0
H783 H 0.25116 0.4482 0.13029 0.0
H784 H 0.32091 0.4745 0.13384 0.0
H785 H 0.34357 0.56813 0.10067 0.0
C786 C 0.18766 0.51208 0.09528 0.0
C787 C 0.15223 0.48142 0.10074 0.0
C788 C 0.15148 0.4515 0.11015 0.0
C789 C 0.18566 0.45292 0.11482 0.0
C790 C 0.22015 0.48398 0.10962 0.0
C791 C 0.22153 0.51257 0.09972 0.0
C792 C 0.26264 0.54263 0.09585 0.0
C793 C 0.27057 0.54413 0.07697 0.0
C794 C 0.27188 0.58188 0.10258 0.0
C795 C 0.28404 0.52679 0.10546 0.0
C796 C 0.2588 0.49317 0.11345 0.0
C797 C 0.2713 0.47407 0.12385 0.0
C798 C 0.31081 0.48928 0.12586 0.0
C799 C 0.3372 0.52297 0.1174 0.0
C800 C 0.32374 0.54202 0.10707 0.0
H801 H 0.8112 0.51254 0.93355 0.0
H802 H 0.88404 0.60575 0.90041 0.0
H803 H 0.84335 0.63464 0.90504 0.0
H804 H 0.72293 0.50447 0.91896 0.0
H805 H 0.70006 0.49203 0.93918 0.0
H806 H 0.73656 0.48035 0.93407 0.0
H807 H 0.77469 0.51682 0.96051 0.0
H808 H 0.73862 0.52936 0.96543 0.0
H809 H 0.78816 0.56612 0.96317 0.0
H810 H 0.79488 0.65319 0.9129 0.0
H811 H 0.73537 0.6543 0.9198 0.0
H812 H 0.69289 0.5483 0.94693 0.0
C813 C 0.81867 0.53924 0.92746 0.0
C814 C 0.85089 0.55731 0.91681 0.0
C815 C 0.85945 0.59167 0.90867 0.0
C816 C 0.83674 0.60841 0.91132 0.0
C817 C 0.80545 0.59026 0.92206 0.0
C818 C 0.79588 0.55605 0.92975 0.0
C819 C 0.7588 0.54086 0.93952 0.0
C820 C 0.72777 0.50216 0.93251 0.0
C821 C 0.76549 0.53814 0.95827 0.0
C822 C 0.74925 0.57196 0.93613 0.0
C823 C 0.77684 0.60052 0.92628 0.0
C824 C 0.77332 0.63136 0.92085 0.0
C825 C 0.73985 0.63219 0.92505 0.0
C826 C 0.71048 0.60212 0.93434 0.0
C827 C 0.71575 0.57231 0.94034 0.0
H828 H 0.48707 0.14843 0.95166 0.0
H829 H 0.52227 0.13572 0.90184 0.0
H830 H 0.53699 0.19923 0.89445 0.0
H831 H 0.45055 0.2141 0.9408 0.0
H832 H 0.47246 0.24446 0.95869 0.0
H833 H 0.45756 0.19455 0.95986 0.0
H834 H 0.52655 0.21209 0.96873 0.0
H835 H 0.54181 0.26205 0.96735 0.0
H836 H 0.56652 0.24295 0.95552 0.0
H837 H 0.5546 0.26372 0.89235 0.0
H838 H 0.57121 0.33025 0.89529 0.0
H839 H 0.53083 0.30898 0.94677 0.0
C840 C 0.496 0.15866 0.93902 0.0
C841 C 0.50011 0.13567 0.92684 0.0
C842 C 0.51527 0.15123 0.91086 0.0
C843 C 0.52481 0.18787 0.90661 0.0
C844 C 0.52088 0.20988 0.91872 0.0
C845 C 0.50713 0.1965 0.93462 0.0
C846 C 0.51012 0.22874 0.94542 0.0
C847 C 0.47029 0.21993 0.95155 0.0
C848 C 0.53789 0.23692 0.96013 0.0
C849 C 0.52686 0.26138 0.93288 0.0
C850 C 0.53315 0.24943 0.91768 0.0
C851 C 0.54966 0.27369 0.90414 0.0
C852 C 0.55938 0.3115 0.906 0.0
C853 C 0.55262 0.32469 0.92128 0.0
C854 C 0.53618 0.29939 0.93496 0.0
H855 H 0.76397 0.26035 0.94178 0.0
H856 H 0.77671 0.21732 0.89392 0.0
H857 H 0.84657 0.26149 0.8948 0.0
H858 H 0.8342 0.35901 0.93298 0.0
H859 H 0.85212 0.36971 0.95412 0.0
H860 H 0.80316 0.33326 0.95026 0.0
H861 H 0.81517 0.28508 0.96673 0.0
H862 H 0.86452 0.32122 0.97028 0.0
H863 H 0.85356 0.27702 0.96033 0.0
H864 H 0.91396 0.30576 0.90156 0.0
H865 H 0.97603 0.36098 0.90985 0.0
H866 H 0.92084 0.38278 0.95138 0.0
C867 C 0.78164 0.26038 0.93154 0.0
C868 C 0.76514 0.23526 0.91783 0.0
C869 C 0.78887 0.23635 0.90451 0.0
C870 C 0.82857 0.26104 0.90498 0.0
C871 C 0.84412 0.28481 0.91879 0.0
C872 C 0.82151 0.28569 0.9316 0.0
C873 C 0.84581 0.31645 0.94425 0.0
C874 C 0.83307 0.34639 0.94546 0.0
C875 C 0.84467 0.29888 0.96142 0.0
C876 C 0.88538 0.33281 0.93638 0.0
C877 C 0.88361 0.31301 0.92205 0.0
C878 C 0.91607 0.32172 0.91269 0.0
C879 C 0.95119 0.35273 0.91761 0.0
C880 C 0.95342 0.37545 0.93141 0.0
C881 C 0.92019 0.36497 0.94114 0.0
H882 H 0.25926 0.02539 0.45218 0.0
H883 H 0.27726 0.02344 0.39886 0.0
H884 H 0.26763 0.0791 0.39526 0.0
H885 H 0.18528 0.04578 0.45009 0.0
H886 H 0.19987 0.07636 0.46819 0.0
H887 H 0.21177 0.03917 0.46668 0.0
H888 H 0.28388 0.08825 0.4706 0.0
H889 H 0.27241 0.12572 0.47245 0.0
H890 H 0.30675 0.12917 0.45702 0.0
H891 H 0.24923 0.13053 0.39763 0.0
H892 H 0.23082 0.17798 0.40571 0.0
H893 H 0.22856 0.14703 0.45791 0.0
C894 C 0.26276 0.0377 0.43982 0.0
C895 C 0.2701 0.02118 0.4258 0.0
C896 C 0.27289 0.03675 0.40974 0.0
C897 C 0.26698 0.06791 0.40762 0.0
C898 C 0.2587 0.08293 0.42173 0.0
C899 C 0.25729 0.06866 0.43756 0.0
C900 C 0.24669 0.08869 0.45068 0.0
C901 C 0.20865 0.06083 0.45941 0.0
C902 C 0.27939 0.1092 0.46343 0.0
C903 C 0.24215 0.11659 0.43976 0.0
C904 C 0.24879 0.11264 0.42311 0.0
C905 C 0.24472 0.13438 0.41067 0.0
C906 C 0.23443 0.16143 0.41541 0.0
C907 C 0.22863 0.16677 0.43249 0.0
C908 C 0.23239 0.14369 0.44474 0.0
H909 H 0.05768 0.25868 0.45355 0.0
H910 H 0.05947 0.2847 0.40084 0.0
H911 H 1.00369 0.21962 0.39615 0.0
H912 H 0.04131 0.16581 0.44715 0.0
H913 H 1.01243 0.14678 0.46571 0.0
H914 H 0.04914 0.1962 0.46493 0.0
H915 H 0.99938 0.2162 0.47201 0.0
H916 H 0.96206 0.16707 0.47316 0.0
H917 H 0.95656 0.19945 0.45948 0.0
H918 H 0.95088 0.14905 0.39749 0.0
H919 H 0.90337 0.08244 0.40478 0.0
H920 H 0.93966 0.10563 0.45669 0.0
C921 C 0.04581 0.2511 0.44103 0.0
C922 C 0.06234 0.27664 0.42754 0.0
C923 C 0.04644 0.26567 0.41136 0.0
C924 C 1.01526 0.22869 0.4086 0.0
C925 C 1.00089 0.20355 0.42216 0.0
C926 C 1.0157 0.21459 0.43806 0.0
C927 C 0.99729 0.18232 0.45046 0.0
C928 C 1.0268 0.1722 0.45746 0.0
C929 C 0.97754 0.19178 0.46461 0.0
C930 C 0.96869 0.1513 0.43922 0.0
C931 C 0.97139 0.16368 0.42289 0.0
C932 C 0.94827 0.13928 0.41028 0.0
C933 C 0.92128 0.10155 0.41456 0.0
C934 C 0.91756 0.08872 0.43133 0.0
C935 C 0.94192 0.11412 0.44371 0.0
H936 H 0.97587 0.84629 0.45991 0.0
H937 H 1.01154 0.86452 0.40781 0.0
H938 H 0.94595 0.84819 0.39944 0.0
H939 H 0.88129 0.76888 0.45455 0.0
H940 H 0.86008 0.7853 0.46995 0.0
H941 H 0.90958 0.79747 0.47195 0.0
H942 H 0.93097 0.86935 0.47286 0.0
H943 H 0.88143 0.85718 0.47129 0.0
H944 H 0.91606 0.8895 0.45639 0.0
H945 H 0.87637 0.83031 0.39674 0.0
H946 H 0.81007 0.81905 0.40046 0.0
H947 H 0.82184 0.81483 0.45412 0.0
C948 C 0.9702 0.84731 0.44673 0.0
C949 C 0.99887 0.8562 0.43451 0.0
C950 C 0.98986 0.85686 0.4174 0.0
C951 C 0.95274 0.84779 0.41251 0.0
C952 C 0.92505 0.83842 0.42488 0.0
C953 C 0.93353 0.83878 0.44166 0.0
C954 C 0.89919 0.82947 0.45256 0.0
C955 C 0.88682 0.79311 0.46285 0.0
C956 C 0.9074 0.86339 0.46394 0.0
C957 C 0.8699 0.82316 0.43924 0.0
C958 C 0.8852 0.8283 0.42334 0.0
C959 C 0.86384 0.82563 0.40911 0.0
C960 C 0.82617 0.81869 0.41126 0.0
C961 C 0.81077 0.81456 0.42748 0.0
C962 C 0.83262 0.81621 0.44156 0.0
H963 H 0.36064 0.88544 0.28114 0.0
H964 H 0.39416 0.98047 0.24742 0.0
H965 H 0.45343 0.97925 0.24029 0.0
H966 H 0.46076 0.91394 0.2957 0.0
H967 H 0.44948 0.865 0.29669 0.0
H968 H 0.4126 0.87694 0.30068 0.0
H969 H 0.37057 0.82923 0.27767 0.0
H970 H 0.40768 0.81796 0.27326 0.0
H971 H 0.38933 0.83468 0.25674 0.0
H972 H 0.50264 0.9612 0.23359 0.0
H973 H 0.54621 0.93507 0.23119 0.0
H974 H 0.48319 0.85341 0.27042 0.0
C975 C 0.38172 0.9074 0.27306 0.0
C976 C 0.37402 0.93426 0.26539 0.0
C977 C 0.40076 0.96109 0.25403 0.0
C978 C 0.43404 0.96008 0.24969 0.0
C979 C 0.44019 0.93236 0.25702 0.0
C980 C 0.41537 0.90713 0.26881 0.0
C981 C 0.42792 0.87914 0.27426 0.0
C982 C 0.43832 0.88406 0.29294 0.0
C983 C 0.39703 0.83783 0.27023 0.0
C984 C 0.46326 0.89211 0.26342 0.0
C985 C 0.46943 0.92253 0.25344 0.0
C986 C 0.49868 0.93799 0.2416 0.0
C987 C 0.52304 0.92275 0.24023 0.0
C988 C 0.5182 0.89251 0.25072 0.0
C989 C 0.48782 0.87692 0.26244 0.0
H990 H 0.23945 0.65104 0.27009 0.0
H991 H 0.15415 0.63365 0.23264 0.0
H992 H 0.12508 0.56398 0.23556 0.0
H993 H 0.25457 0.57646 0.25579 0.0
H994 H 0.2612 0.56234 0.27634 0.0
H995 H 0.27283 0.6107 0.2726 0.0
H996 H 0.2272 0.60516 0.29675 0.0
H997 H 0.21492 0.55644 0.30033 0.0
H998 H 0.17762 0.56773 0.29624 0.0
H999 H 0.1046 0.4971 0.24268 0.0
H1000 H 0.1022 0.43613 0.2489 0.0
H1001 H 0.20423 0.49617 0.27958 0.0
C1002 C 0.21434 0.63236 0.26273 0.0
C1003 C 0.19841 0.64729 0.25135 0.0
C1004 C 0.16627 0.6224 0.24154 0.0
C1005 C 0.14949 0.58293 0.24319 0.0
C1006 C 0.16542 0.56889 0.25464 0.0
C1007 C 0.19761 0.5927 0.26399 0.0
C1008 C 0.21103 0.56993 0.27415 0.0
C1009 C 0.25234 0.58047 0.26942 0.0
C1010 C 0.20748 0.57514 0.29299 0.0
C1011 C 0.18196 0.52985 0.26864 0.0
C1012 C 0.15513 0.52992 0.25787 0.0
C1013 C 0.12535 0.49647 0.2511 0.0
C1014 C 0.12387 0.46202 0.25487 0.0
C1015 C 0.15258 0.46169 0.26491 0.0
C1016 C 0.18148 0.49584 0.27217 0.0
H1017 H 0.59269 0.70196 0.28772 0.0
H1018 H 0.62571 0.73087 0.23588 0.0
H1019 H 0.56287 0.67995 0.22664 0.0
H1020 H 0.5314 0.59691 0.28091 0.0
H1021 H 0.4958 0.59241 0.29589 0.0
H1022 H 0.54541 0.62861 0.29863 0.0
H1023 H 0.52508 0.68002 0.29986 0.0
H1024 H 0.47554 0.6441 0.2968 0.0
H1025 H 0.49816 0.68412 0.28274 0.0
H1026 H 0.4962 0.63289 0.22272 0.0
H1027 H 0.42835 0.58292 0.22401 0.0
H1028 H 0.43502 0.58133 0.27823 0.0
C1029 C 0.58694 0.69616 0.27449 0.0
C1030 C 0.61463 0.71859 0.2624 0.0
C1031 C 0.60574 0.71207 0.24519 0.0
C1032 C 0.56979 0.68382 0.23984 0.0
C1033 C 0.5428 0.66249 0.25192 0.0
C1034 C 0.55076 0.66761 0.26887 0.0
C1035 C 0.51537 0.64112 0.27899 0.0
C1036 C 0.52242 0.61309 0.28921 0.0
C1037 C 0.50281 0.66371 0.29026 0.0
C1038 C 0.48661 0.62097 0.26502 0.0
C1039 C 0.50325 0.63432 0.24957 0.0
C1040 C 0.48276 0.62169 0.23471 0.0
C1041 C 0.44418 0.59364 0.23559 0.0
C1042 C 0.42657 0.57849 0.2512 0.0
C1043 C 0.44799 0.59242 0.26614 0.0
H1044 H 0.89337 0.48547 0.74412 0.0
H1045 H 0.86654 0.48361 0.79694 0.0
H1046 H 0.88196 0.43316 0.80172 0.0
H1047 H 0.8543 0.3817 0.74115 0.0
H1048 H 0.89046 0.38592 0.72658 0.0
H1049 H 0.87582 0.42131 0.72683 0.0
H1050 H 0.9468 0.47405 0.73118 0.0
H1051 H 0.96154 0.43873 0.73121 0.0
H1052 H 0.97336 0.47083 0.74868 0.0
H1053 H 0.89654 0.38325 0.80115 0.0
H1054 H 0.90921 0.33206 0.79546 0.0
H1055 H 0.93574 0.36737 0.74365 0.0
C1056 C 0.89057 0.47415 0.75663 0.0
C1057 C 0.87822 0.48807 0.77013 0.0
C1058 C 0.87491 0.47273 0.78635 0.0
C1059 C 0.88404 0.44436 0.78924 0.0
C1060 C 0.89659 0.43173 0.7758 0.0
C1061 C 0.89956 0.44549 0.75979 0.0
C1062 C 0.91307 0.42554 0.74772 0.0
C1063 C 0.88155 0.40224 0.7348 0.0
C1064 C 0.95096 0.45401 0.73919 0.0
C1065 C 0.91868 0.39963 0.7597 0.0
C1066 C 0.90826 0.40374 0.77574 0.0
C1067 C 0.90645 0.38083 0.78886 0.0
C1068 C 0.91494 0.3524 0.78557 0.0
C1069 C 0.92743 0.34805 0.76953 0.0
C1070 C 0.92918 0.37192 0.75628 0.0
H1071 H 0.72564 0.57637 0.74759 0.0
H1072 H 0.72 0.6239 0.79534 0.0
H1073 H 0.66736 0.561 0.80425 0.0
H1074 H 0.61822 0.51088 0.74444 0.0
H1075 H 0.62381 0.4744 0.73412 0.0
H1076 H 0.65916 0.52389 0.73112 0.0
H1077 H 0.71237 0.50987 0.74077 0.0
H1078 H 0.67723 0.46059 0.74419 0.0
H1079 H 0.7086 0.48858 0.761 0.0
H1080 H 0.62312 0.49269 0.80939 0.0
H1081 H 0.57917 0.42328 0.80893 0.0
H1082 H 0.60751 0.41954 0.75684 0.0
C1083 C 0.71195 0.57365 0.75959 0.0
C1084 C 0.72581 0.60478 0.77069 0.0
C1085 C 0.70865 0.6004 0.78656 0.0
C1086 C 0.67914 0.56477 0.79177 0.0
C1087 C 0.6666 0.53427 0.78073 0.0
C1088 C 0.68143 0.53846 0.76476 0.0
C1089 C 0.66236 0.50081 0.75545 0.0
C1090 C 0.63953 0.5026 0.74039 0.0
C1091 C 0.69192 0.4893 0.75005 0.0
C1092 C 0.63575 0.47461 0.76895 0.0
C1093 C 0.63908 0.49464 0.78344 0.0
C1094 C 0.61948 0.47674 0.79802 0.0
C1095 C 0.59488 0.43734 0.79767 0.0
C1096 C 0.58986 0.41631 0.78284 0.0
C1097 C 0.61056 0.43517 0.76827 0.0
H1098 H 0.50718 0.16634 0.74212 0.0
H1099 H 0.45462 0.10571 0.78781 0.0
H1100 H 0.51641 0.11353 0.79709 0.0
H1101 H 0.57252 0.12223 0.73841 0.0
H1102 H 0.61063 0.16516 0.72922 0.0
H1103 H 0.56116 0.15161 0.72542 0.0
H1104 H 0.57532 0.21763 0.73635 0.0
H1105 H 0.62442 0.2309 0.74069 0.0
H1106 H 0.5945 0.2324 0.75714 0.0
H1107 H 0.58378 0.13736 0.80382 0.0
H1108 H 0.65354 0.16199 0.80472 0.0
H1109 H 0.66373 0.19999 0.75324 0.0
C1110 C 0.50818 0.15241 0.75351 0.0
C1111 C 0.47578 0.1343 0.76412 0.0
C1112 C 0.47865 0.11828 0.77935 0.0
C1113 C 0.51374 0.12309 0.78483 0.0
C1114 C 0.54548 0.14246 0.77454 0.0
C1115 C 0.54294 0.15536 0.75886 0.0
C1116 C 0.58205 0.17489 0.7504 0.0
C1117 C 0.58157 0.15213 0.73494 0.0
C1118 C 0.59479 0.21642 0.74589 0.0
C1119 C 0.6069 0.17268 0.7642 0.0
C1120 C 0.585 0.15424 0.77807 0.0
C1121 C 0.60122 0.15085 0.79288 0.0
C1122 C 0.64087 0.16528 0.79333 0.0
C1123 C 0.66381 0.18253 0.77902 0.0
C1124 C 0.64665 0.18649 0.76427 0.0
H1125 H 1.02562 0.21275 0.58217 0.0
H1126 H 0.05528 0.28567 0.62589 0.0
H1127 H 0.11401 0.28029 0.62962 0.0
H1128 H 0.0583 0.15123 0.59485 0.0
H1129 H 0.07721 0.14991 0.57456 0.0
H1130 H 0.0372 0.15802 0.57621 0.0
H1131 H 0.07443 0.2201 0.55931 0.0
H1132 H 0.115 0.21295 0.55751 0.0
H1133 H 0.12119 0.25665 0.56628 0.0
H1134 H 0.16838 0.26406 0.62842 0.0
H1135 H 0.21682 0.24604 0.621 0.0
H1136 H 0.15279 0.19154 0.57578 0.0
C1137 C 0.04441 0.22808 0.59252 0.0
C1138 C 0.03596 0.24982 0.60376 0.0
C1139 C 0.06141 0.26905 0.61711 0.0
C1140 C 0.09459 0.26597 0.61932 0.0
C1141 C 0.10198 0.24439 0.60781 0.0
C1142 C 0.07781 0.22652 0.59448 0.0
C1143 C 0.09277 0.20724 0.58305 0.0
C1144 C 0.0647 0.16404 0.58213 0.0
C1145 C 0.1014 0.22536 0.56551 0.0
C1146 C 0.12912 0.21624 0.59219 0.0
C1147 C 0.13385 0.23725 0.60654 0.0
C1148 C 0.16519 0.24814 0.61709 0.0
C1149 C 0.19271 0.23796 0.61268 0.0
C1150 C 0.18903 0.21758 0.59769 0.0
C1151 C 0.1565 0.20654 0.58745 0.0
H1152 H 0.88879 0.83922 0.59642 0.0
H1153 H 0.76435 0.77097 0.59785 0.0
H1154 H 0.76018 0.82967 0.59498 0.0
H1155 H 0.89709 0.92038 0.61966 0.0
H1156 H 0.93699 0.95444 0.60724 0.0
H1157 H 0.92975 0.90729 0.61038 0.0
H1158 H 0.92907 0.89816 0.57829 0.0
H1159 H 0.93582 0.94504 0.57501 0.0
H1160 H 0.8954 0.90424 0.56562 0.0
H1161 H 0.76992 0.89564 0.59108 0.0
H1162 H 0.79245 0.96407 0.58704 0.0
H1163 H 0.91064 0.98869 0.58745 0.0
C1164 C 0.8606 0.8366 0.59645 0.0
C1165 C 0.82682 0.80058 0.59765 0.0
C1166 C 0.79055 0.79834 0.59739 0.0
C1167 C 0.78795 0.83147 0.59559 0.0
C1168 C 0.82189 0.86646 0.59416 0.0
C1169 C 0.85753 0.86922 0.59469 0.0
C1170 C 0.88967 0.91004 0.59261 0.0
C1171 C 0.91486 0.92385 0.60841 0.0
C1172 C 0.91389 0.91461 0.57695 0.0
C1173 C 0.86652 0.92991 0.59055 0.0
C1174 C 0.82751 0.90429 0.5916 0.0
C1175 C 0.80037 0.91595 0.59032 0.0
C1176 C 0.81342 0.95483 0.5881 0.0
C1177 C 0.85322 0.98157 0.58705 0.0
C1178 C 0.88005 0.96881 0.58815 0.0
H1179 H 0.26223 0.05037 0.57884 0.0
H1180 H 0.2934 0.03691 0.62929 0.0
H1181 H 0.22872 0.97934 0.6328 0.0
H1182 H 0.16596 0.02529 0.58765 0.0
H1183 H 0.14773 1.00136 0.56794 0.0
H1184 H 0.19652 0.04 0.56944 0.0
H1185 H 0.22147 0.99667 0.55798 0.0
H1186 H 0.17281 0.95796 0.55617 0.0
H1187 H 0.20738 0.95178 0.56809 0.0
H1188 H 0.15885 0.92539 0.63076 0.0
H1189 H 0.09283 0.87659 0.62289 0.0
H1190 H 0.11065 0.92675 0.57336 0.0
C1191 C 0.25564 0.03527 0.59066 0.0
C1192 C 0.2825 0.04797 0.60389 0.0
C1193 C 0.27311 0.02726 0.61902 0.0
C1194 C 0.23646 0.99491 0.62112 0.0
C1195 C 0.21017 0.98394 0.60791 0.0
C1196 C 0.21966 1.0034 0.59292 0.0
C1197 C 0.18681 0.98643 0.58057 0.0
C1198 C 0.17348 1.01497 0.57615 0.0
C1199 C 0.19777 0.97235 0.56478 0.0
C1200 C 0.1571 0.95379 0.59086 0.0
C1201 C 0.1708 0.95298 0.60664 0.0
C1202 C 0.14804 0.92554 0.61838 0.0
C1203 C 0.11063 0.89781 0.61374 0.0
C1204 C 0.09646 0.8975 0.59744 0.0
C1205 C 0.12015 0.92624 0.58598 0.0
H1206 H 0.53686 0.99003 0.04978 0.0
H1207 H 0.49031 0.06252 0.06323 0.0
H1208 H 0.48476 0.07406 0.03313 0.0
H1209 H 0.59401 0.04531 0.01543 0.0
H1210 H 0.58488 1.00459 1.00295 0.0
H1211 H 0.58354 1.00126 0.02541 0.0
H1212 H 0.51445 0.94329 0.02386 0.0
H1213 H 0.51546 0.94668 1.00137 0.0
H1214 H 0.47764 0.94784 1.01301 0.0
H1215 H 0.48298 0.07604 1.00117 0.0
H1216 H 0.4922 0.07447 0.97053 0.0
H1217 H 0.54353 1.00386 0.97835 0.0
C1218 C 0.52544 1.00831 0.04639 0.0
C1219 C 0.51392 0.02536 0.05882 0.0
C1220 C 0.49931 0.04923 0.0539 0.0
C1221 C 0.49589 0.05575 0.03684 0.0
C1222 C 0.50725 0.03821 0.02488 0.0
C1223 C 0.52208 1.01526 0.02948 0.0
C1224 C 0.53337 1.00065 1.01429 0.0
C1225 C 0.57651 1.01376 1.01454 0.0
C1226 C 0.50877 0.95703 1.01307 0.0
C1227 C 0.52355 0.01971 1.00038 0.0
C1228 C 0.5076 0.04049 1.00669 0.0
C1229 C 0.49546 0.05987 0.99614 0.0
C1230 C 0.50049 0.0586 0.97877 0.0
C1231 C 0.51821 0.03878 0.9722 0.0
C1232 C 0.52967 0.01898 0.98313 0.0
H1233 H 0.98508 0.46086 0.97931 0.0
H1234 H 0.09667 0.55635 0.96665 0.0
H1235 H 0.11432 0.566 0.9967 0.0
H1236 H 0.9685 0.49646 0.01651 0.0
H1237 H 0.94755 0.4522 0.02792 0.0
H1238 H 0.94431 0.45173 1.00545 0.0
H1239 H 0.97631 0.40997 1.00362 0.0
H1240 H 0.97939 0.41006 0.02613 0.0
H1241 H 1.02206 0.42589 1.01363 0.0
H1242 H 0.11744 0.56853 0.02813 0.0
H1243 H 0.10793 0.56109 0.05878 0.0
H1244 H 0.99597 0.46122 0.05137 0.0
C1245 C 1.01327 0.48358 0.98296 0.0
C1246 C 0.0395 0.50826 0.97084 0.0
C1247 C 0.0763 0.53738 0.97586 0.0
C1248 C 0.0865 0.543 0.99286 0.0
C1249 C 0.05987 0.51856 1.00461 0.0
C1250 C 1.02428 0.48895 0.99987 0.0
C1251 C 1.00123 0.46656 1.01503 0.0
C1252 C 0.96315 0.46678 0.0163 0.0
C1253 C 0.99433 0.42569 1.01457 0.0
C1254 C 1.02856 0.4893 0.02908 0.0
C1255 C 0.06235 0.51902 0.02274 0.0
C1256 C 0.09138 0.54502 0.03321 0.0
C1257 C 0.08574 0.54063 0.05057 0.0
C1258 C 0.05143 0.51046 0.05733 0.0
C1259 C 1.02263 0.48423 0.04646 0.0
H1260 H 0.61814 0.59921 0.98047 0.0
H1261 H 0.51225 0.49385 0.97034 0.0
H1262 H 0.49633 0.48646 1.00023 0.0
H1263 H 0.64157 0.56938 0.01793 0.0
H1264 H 0.65923 0.61348 0.02925 0.0
H1265 H 0.66153 0.61388 1.00674 0.0
H1266 H 0.62332 0.64965 1.0053 0.0
H1267 H 0.62134 0.64981 0.02784 0.0
H1268 H 0.57761 0.63007 0.0158 0.0
H1269 H 0.49239 0.48701 0.03054 0.0
H1270 H 0.49907 0.49739 0.06093 0.0
H1271 H 0.60823 0.60122 0.05359 0.0
C1272 C 0.59113 0.57535 0.98458 0.0
C1273 C 0.56612 0.54725 0.97304 0.0
C1274 C 0.5316 0.5158 0.97892 0.0
C1275 C 0.52231 0.51126 0.9959 0.0
C1276 C 0.54784 0.53844 1.00705 0.0
C1277 C 0.58134 0.57017 1.00178 0.0
C1278 C 0.6039 0.59398 0.01686 0.0
C1279 C 0.64394 0.5979 0.01774 0.0
C1280 C 0.60671 0.63321 0.01642 0.0
C1281 C 0.57834 0.56983 0.03127 0.0
C1282 C 0.54598 0.53825 0.02511 0.0
C1283 C 0.51751 0.51168 0.03556 0.0
C1284 C 0.5216 0.51776 0.05283 0.0
C1285 C 0.55419 0.54979 0.05963 0.0
C1286 C 0.58328 0.57611 0.04871 0.0
H1287 H 0.19607 0.31727 0.38139 0.0
H1288 H 0.17748 0.41004 0.3954 0.0
H1289 H 0.17361 0.42369 0.36557 0.0
H1290 H 0.25466 0.36073 0.34573 0.0
H1291 H 0.23391 0.31778 0.33337 0.0
H1292 H 0.23415 0.31492 0.35584 0.0
H1293 H 0.16025 0.27036 0.35572 0.0
H1294 H 0.15973 0.27329 0.33323 0.0
H1295 H 0.13024 0.2858 0.34565 0.0
H1296 H 0.17397 0.42859 0.3342 0.0
H1297 H 0.18035 0.42547 0.30348 0.0
H1298 H 0.19745 0.32883 0.30958 0.0
C1299 C 0.19116 0.34043 0.37814 0.0
C1300 C 0.18732 0.36285 0.3907 0.0
C1301 C 0.18063 0.39268 0.38599 0.0
C1302 C 0.17826 0.40052 0.36907 0.0
C1303 C 0.18209 0.37787 0.35697 0.0
C1304 C 0.18828 0.34834 0.36128 0.0
C1305 C 0.19163 0.32849 0.34581 0.0
C1306 C 0.23093 0.33063 0.34515 0.0
C1307 C 0.1585 0.28702 0.34506 0.0
C1308 C 0.1877 0.35228 0.33213 0.0
C1309 C 0.18166 0.38029 0.33887 0.0
C1310 C 0.17817 0.40647 0.32878 0.0
C1311 C 0.18158 0.40438 0.31139 0.0
C1312 C 0.18841 0.3764 0.30429 0.0
C1313 C 0.19122 0.34985 0.31476 0.0
H1314 H 0.72289 0.90128 0.38469 0.0
H1315 H 0.70966 0.79131 0.39706 0.0
H1316 H 0.70856 0.77684 0.36681 0.0
H1317 H 0.65758 0.86741 0.34937 0.0
H1318 H 0.68523 0.91084 0.33769 0.0
H1319 H 0.68571 0.91198 0.3602 0.0
H1320 H 0.76011 0.94463 0.35983 0.0
H1321 H 0.75981 0.94306 0.33731 0.0
H1322 H 0.78271 0.92193 0.34904 0.0
H1323 H 0.71402 0.77734 0.3348 0.0
H1324 H 0.71358 0.78759 0.30415 0.0
H1325 H 0.71675 0.89439 0.3135 0.0
C1326 C 0.71932 0.87398 0.381 0.0
C1327 C 0.71635 0.84737 0.39307 0.0
C1328 C 0.71165 0.81189 0.3879 0.0
C1329 C 0.71135 0.80363 0.37079 0.0
C1330 C 0.71506 0.8309 0.35913 0.0
C1331 C 0.71799 0.86496 0.36406 0.0
C1332 C 0.71969 0.88879 0.34921 0.0
C1333 C 0.68498 0.89511 0.34911 0.0
C1334 C 0.75785 0.92685 0.34883 0.0
C1335 C 0.71754 0.86305 0.33507 0.0
C1336 C 0.7157 0.83011 0.34097 0.0
C1337 C 0.715 0.80283 0.33007 0.0
C1338 C 0.7151 0.80898 0.31274 0.0
C1339 C 0.71505 0.84169 0.30663 0.0
C1340 C 0.71664 0.86908 0.31793 0.0
H1341 H 0.27593 0.92854 0.31052 0.0
H1342 H 0.18296 0.81257 0.30289 0.0
H1343 H 0.17138 0.80477 0.33304 0.0
H1344 H 0.31256 0.91035 0.34802 0.0
H1345 H 0.32287 0.95351 0.35879 0.0
H1346 H 0.32349 0.95254 0.33626 0.0
H1347 H 0.27368 0.97523 0.33507 0.0
H1348 H 0.27336 0.97679 0.35761 0.0
H1349 H 0.22903 0.94904 0.34633 0.0
H1350 H 0.17012 0.80651 0.36315 0.0
H1351 H 0.17593 0.82016 0.39329 0.0
H1352 H 0.27006 0.93447 0.38386 0.0
C1353 C 0.25262 0.90197 0.31526 0.0
C1354 C 0.23019 0.87111 0.3043 0.0
C1355 C 0.20047 0.83654 0.31099 0.0
C1356 C 0.19367 0.83172 0.32814 0.0
C1357 C 0.2168 0.86177 0.33867 0.0
C1358 C 0.24535 0.89648 0.33268 0.0
C1359 C 0.26586 0.92345 0.34728 0.0
C1360 C 0.30875 0.93568 0.3476 0.0
C1361 C 0.26014 0.95819 0.34653 0.0
C1362 C 0.24463 0.89797 0.36219 0.0
C1363 C 0.21644 0.86261 0.3567 0.0
C1364 C 0.1921 0.83403 0.36767 0.0
C1365 C 0.19574 0.84195 0.38477 0.0
C1366 C 0.22376 0.87795 0.39087 0.0
C1367 C 0.24906 0.90634 0.37949 0.0
H1368 H 0.89919 0.75741 0.71711 0.0
H1369 H 0.80169 0.64463 0.72547 0.0
H1370 H 0.79277 0.63441 0.69493 0.0
H1371 H 0.85479 0.77674 0.68056 0.0
H1372 H 0.90008 0.80441 0.66996 0.0
H1373 H 0.89835 0.80321 0.6925 0.0
H1374 H 0.94823 0.78049 0.69309 0.0
H1375 H 0.95011 0.78161 0.67059 0.0
H1376 H 0.9387 0.73837 0.68158 0.0
H1377 H 0.79479 0.63606 0.66355 0.0
H1378 H 0.8085 0.6494 0.63329 0.0
H1379 H 0.90467 0.76087 0.64516 0.0
C1380 C 0.87593 0.73073 0.71242 0.0
C1381 C 0.85106 0.70177 0.72351 0.0
C1382 C 0.82074 0.66724 0.71708 0.0
C1383 C 0.81552 0.66116 0.69979 0.0
C1384 C 0.84041 0.69023 0.68911 0.0
C1385 C 0.86977 0.72451 0.69514 0.0
C1386 C 0.89185 0.75129 0.68091 0.0
C1387 C 0.88592 0.78597 0.68099 0.0
C1388 C 0.93477 0.76363 0.68159 0.0
C1389 C 0.87196 0.72581 0.666 0.0
C1390 C 0.84172 0.69106 0.671 0.0
C1391 C 0.81837 0.66317 0.65947 0.0
C1392 C 0.82626 0.67096 0.64235 0.0
C1393 C 0.85772 0.70593 0.63702 0.0
C1394 C 0.88072 0.7337 0.64899 0.0
H1395 H 0.37171 0.13307 0.64577 0.0
H1396 H 0.38766 0.24531 0.63586 0.0
H1397 H 0.39627 0.25996 0.66593 0.0
H1398 H 0.31639 0.118 0.68389 0.0
H1399 H 0.3364 0.09304 0.69482 0.0
H1400 H 0.33314 0.09095 0.67231 0.0
H1401 H 0.40619 0.11586 0.6702 0.0
H1402 H 0.40962 0.11774 0.69269 0.0
H1403 H 0.43944 0.15976 0.68048 0.0
H1404 H 0.40397 0.26394 0.69609 0.0
H1405 H 0.41054 0.25731 0.72624 0.0
H1406 H 0.38571 0.14111 0.71874 0.0
C1407 C 0.37765 0.16086 0.65002 0.0
C1408 C 0.37954 0.18839 0.63852 0.0
C1409 C 0.38633 0.22404 0.64447 0.0
C1410 C 0.39117 0.23259 0.66152 0.0
C1411 C 0.38853 0.20492 0.67259 0.0
C1412 C 0.38181 0.1697 0.66725 0.0
C1413 C 0.37912 0.1451 0.68221 0.0
C1414 C 0.33887 0.10967 0.68337 0.0
C1415 C 0.41047 0.13397 0.68134 0.0
C1416 C 0.38623 0.1725 0.69663 0.0
C1417 C 0.3915 0.20673 0.69059 0.0
C1418 C 0.39974 0.23727 0.70104 0.0
C1419 C 0.40345 0.23322 0.71816 0.0
C1420 C 0.39851 0.19877 0.72483 0.0
C1421 C 0.38915 0.16763 0.71396 0.0
H1422 H 0.87032 0.16959 0.6465 0.0
H1423 H 0.95807 0.28579 0.63553 0.0
H1424 H 0.96765 0.29977 0.66589 0.0
H1425 H 0.82792 0.19232 0.68087 0.0
H1426 H 0.8177 0.15051 0.69276 0.0
H1427 H 0.81946 0.14955 0.67027 0.0
H1428 H 0.87066 0.12859 0.67203 0.0
H1429 H 0.8693 0.12983 0.69454 0.0
H1430 H 0.91427 0.15727 0.68366 0.0
H1431 H 0.96957 0.2997 0.69783 0.0
H1432 H 0.95663 0.28866 0.72827 0.0
H1433 H 0.86333 0.17461 0.71808 0.0
C1434 C 0.89151 0.19799 0.65051 0.0
C1435 C 0.91359 0.22661 0.63869 0.0
C1436 C 0.94083 0.2635 0.64438 0.0
C1437 C 0.94661 0.2716 0.6616 0.0
C1438 C 0.92458 0.24261 0.67296 0.0
C1439 C 0.8971 0.20672 0.66762 0.0
C1440 C 0.87588 0.1811 0.68231 0.0
C1441 C 0.83268 0.1676 0.6815 0.0
C1442 C 0.88295 0.14719 0.68318 0.0
C1443 C 0.89521 0.20829 0.69676 0.0
C1444 C 0.92397 0.24333 0.69116 0.0
C1445 C 0.94685 0.27249 0.70231 0.0
C1446 C 0.9395 0.26594 0.71956 0.0
C1447 C 0.9089 0.23093 0.72543 0.0
C1448 C 0.88674 0.20174 0.71387 0.0
H1449 H 0.33418 1.00832 0.21032 0.0
H1450 H 0.30308 0.88983 0.21455 0.0
H1451 H 0.35085 0.89993 0.19219 0.0
H1452 H 0.34733 1.01855 0.16705 0.0
H1453 H 0.38803 0.06616 0.16796 0.0
H1454 H 0.35227 0.04958 0.18419 0.0
H1455 H 0.40291 0.06428 0.20699 0.0
H1456 H 0.44004 0.08244 0.19131 0.0
H1457 H 0.4348 0.04521 0.20527 0.0
H1458 H 0.40498 0.92692 0.16759 0.0
H1459 H 0.45391 0.96506 0.14583 0.0
H1460 H 0.44847 0.06478 0.16098 0.0
C1461 C 0.3369 0.98412 0.20654 0.0
C1462 C 0.31424 0.9481 0.21409 0.0
C1463 C 0.31955 0.91761 0.2088 0.0
C1464 C 0.3469 0.92327 0.19616 0.0
C1465 C 0.36909 0.95969 0.18911 0.0
C1466 C 0.36409 0.98943 0.19437 0.0
C1467 C 0.39102 0.02619 0.18556 0.0
C1468 C 0.36832 0.04097 0.17559 0.0
C1469 C 0.41883 0.05629 0.19803 0.0
C1470 C 0.41203 1.01302 0.17417 0.0
C1471 C 0.39948 0.97467 0.17617 0.0
C1472 C 0.41499 0.95702 0.16623 0.0
C1473 C 0.44314 0.97897 0.15395 0.0
C1474 C 0.45562 1.01823 0.15177 0.0
C1475 C 0.44009 0.03504 0.16236 0.0
H1476 H 0.07629 0.48875 0.17133 0.0
H1477 H 0.05941 0.41033 0.13103 0.0
H1478 H 0.08774 0.38032 0.14821 0.0
H1479 H 0.16814 0.4983 0.18669 0.0
H1480 H 0.15674 0.49972 0.2084 0.0
H1481 H 0.1378 0.51742 0.19252 0.0
H1482 H 0.06913 0.47218 0.20326 0.0
H1483 H 0.08726 0.45342 0.21896 0.0
H1484 H 0.05162 0.42168 0.2043 0.0
H1485 H 0.1141 0.35571 0.16995 0.0
H1486 H 0.13252 0.33522 0.19574 0.0
H1487 H 0.13353 0.42806 0.22289 0.0
C1488 C 0.07853 0.46521 0.16621 0.0
C1489 C 0.06492 0.4515 0.14984 0.0
C1490 C 0.0689 0.42093 0.14356 0.0
C1491 C 0.08537 0.40388 0.1532 0.0
C1492 C 0.09826 0.41767 0.16925 0.0
C1493 C 0.09504 0.44756 0.1758 0.0
C1494 C 0.10956 0.45519 0.19381 0.0
C1495 C 0.14517 0.49504 0.19545 0.0
C1496 C 0.07747 0.45033 0.20579 0.0
C1497 C 0.12016 0.42421 0.19645 0.0
C1498 C 0.11406 0.40348 0.18193 0.0
C1499 C 0.11975 0.37223 0.1813 0.0
C1500 C 0.13073 0.36101 0.19597 0.0
C1501 C 0.13618 0.38089 0.21116 0.0
C1502 C 0.13136 0.41335 0.21129 0.0
H1503 H 0.70455 0.80559 0.19363 0.0
H1504 H 0.69032 0.72895 0.23425 0.0
H1505 H 0.6582 0.67385 0.21513 0.0
H1506 H 0.6141 0.74147 0.17279 0.0
H1507 H 0.63362 0.75473 0.15211 0.0
H1508 H 0.65358 0.78884 0.16883 0.0
H1509 H 0.72138 0.79889 0.16327 0.0
H1510 H 0.70251 0.7664 0.14591 0.0
H1511 H 0.72814 0.75818 0.1624 0.0
H1512 H 0.62876 0.62643 0.19088 0.0
H1513 H 0.61139 0.59308 0.16341 0.0
H1514 H 0.64832 0.70106 0.13871 0.0
C1515 C 0.69455 0.7772 0.19845 0.0
C1516 C 0.69936 0.77147 0.21546 0.0
C1517 C 0.68645 0.73388 0.22126 0.0
C1518 C 0.66806 0.70236 0.21051 0.0
C1519 C 0.66337 0.70875 0.19379 0.0
C1520 C 0.67668 0.74531 0.18777 0.0
C1521 C 0.66972 0.74458 0.16916 0.0
C1522 C 0.64107 0.75827 0.16553 0.0
C1523 C 0.7077 0.76841 0.15962 0.0
C1524 C 0.65203 0.70233 0.1655 0.0
C1525 C 0.64756 0.68183 0.17992 0.0
C1526 C 0.63206 0.64226 0.1795 0.0
C1527 C 0.62201 0.62343 0.16389 0.0
C1528 C 0.62822 0.64435 0.14893 0.0
C1529 C 0.64275 0.68414 0.14992 0.0
H1530 H 1.01988 0.37662 0.88967 0.0
H1531 H 1.026 0.47724 0.86767 0.0
H1532 H 0.99987 0.44087 0.84102 0.0
H1533 H 0.04626 0.34388 0.85523 0.0
H1534 H 1.01411 0.29422 0.85971 0.0
H1535 H 1.03202 0.32834 0.87647 0.0
H1536 H 0.96291 0.30579 0.88566 0.0
H1537 H 0.94347 0.27227 0.8687 0.0
H1538 H 0.92917 0.30763 0.87125 0.0
H1539 H 0.98422 0.39397 0.81556 0.0
H1540 H 0.97272 0.34214 0.79605 0.0
H1541 H 0.96263 0.26926 0.83703 0.0
C1542 C 1.0145 0.3911 0.87958 0.0
C1543 C 1.02437 0.42983 0.88102 0.0
C1544 C 1.01831 0.44758 0.86703 0.0
C1545 C 1.00351 0.42702 0.85187 0.0
C1546 C 0.99397 0.38857 0.85113 0.0
C1547 C 0.99865 0.37085 0.86487 0.0
C1548 C 0.98727 0.32978 0.86126 0.0
C1549 C 1.02197 0.32372 0.86328 0.0
C1550 C 0.95364 0.30225 0.87238 0.0
C1551 C 0.97506 0.32636 0.84319 0.0
C1552 C 0.98004 0.36081 0.83737 0.0
C1553 C 0.97743 0.36632 0.82035 0.0
C1554 C 0.96939 0.33615 0.80929 0.0
C1555 C 0.96074 0.29964 0.81505 0.0
C1556 C 0.96456 0.29521 0.83233 0.0
H1557 H 0.66537 0.67511 0.87584 0.0
H1558 H 0.64216 0.55988 0.88389 0.0
H1559 H 0.69005 0.5696 0.86167 0.0
H1560 H 0.67942 0.68007 0.83169 0.0
H1561 H 0.71707 0.72923 0.83247 0.0
H1562 H 0.67978 0.71084 0.84806 0.0
H1563 H 0.73161 0.73315 0.8714 0.0
H1564 H 0.76902 0.75112 0.85585 0.0
H1565 H 0.76602 0.71695 0.87108 0.0
H1566 H 0.74352 0.59572 0.83706 0.0
H1567 H 0.79179 0.63289 0.81495 0.0
H1568 H 0.7799 0.73082 0.82658 0.0
C1569 C 0.66972 0.65147 0.87287 0.0
C1570 C 0.64931 0.61647 0.88147 0.0
C1571 C 0.65676 0.58674 0.87727 0.0
C1572 C 0.68423 0.59223 0.86474 0.0
C1573 C 0.70437 0.62776 0.85672 0.0
C1574 C 0.69714 0.6567 0.86084 0.0
C1575 C 0.72254 0.69278 0.85124 0.0
C1576 C 0.69826 0.70387 0.84021 0.0
C1577 C 0.74883 0.72541 0.86311 0.0
C1578 C 0.74543 0.68015 0.84083 0.0
C1579 C 0.73488 0.64259 0.84389 0.0
C1580 C 0.75204 0.62526 0.83489 0.0
C1581 C 0.77984 0.64671 0.82246 0.0
C1582 C 0.79044 0.6852 0.81923 0.0
C1583 C 0.77318 0.70178 0.82885 0.0
H1584 H 0.40839 0.06934 0.80653 0.0
H1585 H 0.40489 0.16602 0.82772 0.0
H1586 H 0.43073 0.15599 0.8545 0.0
H1587 H 0.3831 1.01154 0.84144 0.0
H1588 H 0.41547 0.99389 0.83719 0.0
H1589 H 0.39724 1.00945 0.82024 0.0
H1590 H 0.4667 0.05657 0.81076 0.0
H1591 H 0.48532 0.04132 0.82772 0.0
H1592 H 0.50026 0.09103 0.82549 0.0
H1593 H 0.44605 0.12554 0.88019 0.0
H1594 H 0.45751 0.08586 0.90014 0.0
H1595 H 0.46687 0.02092 0.85989 0.0
C1596 C 0.41403 0.08944 0.81653 0.0
C1597 C 0.405 0.11895 0.81481 0.0
C1598 C 0.41173 0.14341 0.8286 0.0
C1599 C 0.42647 0.13785 0.84383 0.0
C1600 C 0.43546 0.10854 0.84483 0.0
C1601 C 0.43019 0.08542 0.8313 0.0
C1602 C 0.44188 0.05594 0.83518 0.0
C1603 C 0.40737 1.01532 0.83341 0.0
C1604 C 0.47556 0.0616 0.82411 0.0
C1605 C 0.45434 0.06538 0.85322 0.0
C1606 C 0.44967 0.09528 0.85872 0.0
C1607 C 0.45272 0.10436 0.87565 0.0
C1608 C 0.46088 0.0827 0.88696 0.0
C1609 C 0.46936 0.05444 0.88151 0.0
C1610 C 0.46506 0.04522 0.86432 0.0
H1611 H 0.96253 0.28217 0.53167 0.0
H1612 H 0.03518 0.26193 0.56483 0.0
H1613 H 0.0815 0.2755 0.54214 0.0
H1614 H 0.98478 0.24569 0.49309 0.0
H1615 H 0.98712 0.28251 0.47959 0.0
H1616 H 0.95509 0.26621 0.49735 0.0
H1617 H 0.98456 0.33299 0.5099 0.0
H1618 H 1.01575 0.35179 0.49206 0.0
H1619 H 0.03584 0.36099 0.51284 0.0
H1620 H 0.1257 0.30166 0.5168 0.0
H1621 H 0.16066 0.33496 0.49079 0.0
H1622 H 0.05945 0.33825 0.47435 0.0
C1623 C 0.98684 0.27807 0.53379 0.0
C1624 C 0.99381 0.26826 0.54984 0.0
C1625 C 1.02777 0.26645 0.55242 0.0
C1626 C 0.05478 0.27499 0.53962 0.0
C1627 C 0.04786 0.28575 0.5241 0.0
C1628 C 1.01447 0.28696 0.52107 0.0
C1629 C 1.01572 0.30291 0.5038 0.0
C1630 C 0.98382 0.27257 0.49276 0.0
C1631 C 1.01281 0.33932 0.50472 0.0
C1632 C 0.0553 0.3116 0.49793 0.0
C1633 C 0.0735 0.30138 0.5097 0.0
C1634 C 0.11142 0.30924 0.50734 0.0
C1635 C 0.1312 0.32823 0.49258 0.0
C1636 C 0.11307 0.33942 0.48051 0.0
C1637 C 0.07441 0.33019 0.48326 0.0
H1638 H 0.73662 0.82237 0.50469 0.0
H1639 H 0.74924 0.76273 0.46238 0.0
H1640 H 0.78372 0.73969 0.48014 0.0
H1641 H 0.83117 0.8495 0.52397 0.0
H1642 H 0.81239 0.84282 0.54495 0.0
H1643 H 0.79175 0.8574 0.52852 0.0
H1644 H 0.72436 0.79956 0.53491 0.0
H1645 H 0.74487 0.78532 0.55143 0.0
H1646 H 0.71806 0.7523 0.53492 0.0
H1647 H 0.81167 0.71776 0.50349 0.0
H1648 H 0.82752 0.69793 0.53042 0.0
H1649 H 0.79954 0.77417 0.55687 0.0
C1650 C 0.74695 0.80472 0.49921 0.0
C1651 C 0.74029 0.79431 0.48219 0.0
C1652 C 0.75416 0.77108 0.47543 0.0
C1653 C 0.77391 0.75795 0.48539 0.0
C1654 C 0.77999 0.76849 0.50218 0.0
C1655 C 0.76707 0.79153 0.50901 0.0
C1656 C 0.77576 0.79726 0.52756 0.0
C1657 C 0.80447 0.83925 0.53148 0.0
C1658 C 0.73856 0.78272 0.5378 0.0
C1659 C 0.79405 0.77273 0.53017 0.0
C1660 C 0.79684 0.7567 0.51539 0.0
C1661 C 0.81035 0.73079 0.5151 0.0
C1662 C 0.81982 0.71999 0.53039 0.0
C1663 C 0.81554 0.73509 0.54564 0.0
C1664 C 0.80389 0.76278 0.54533 0.0
H1665 H 0.28335 0.93341 0.50257 0.0
H1666 H 0.30971 1.01245 0.46152 0.0
H1667 H 0.32957 0.06546 0.4815 0.0
H1668 H 0.24607 0.97899 0.5308 0.0
H1669 H 0.26632 0.96963 0.5491 0.0
H1670 H 0.25233 0.93797 0.5314 0.0
H1671 H 0.32123 0.94763 0.53018 0.0
H1672 H 0.3351 0.97944 0.54779 0.0
H1673 H 0.36181 0.99519 0.52851 0.0
H1674 H 0.35072 0.1115 0.50654 0.0
H1675 H 0.37039 0.14436 0.53416 0.0
H1676 H 0.32725 0.03456 0.55828 0.0
C1677 C 0.2931 0.96184 0.49785 0.0
C1678 C 0.29457 0.96869 0.4805 0.0
C1679 C 0.30764 1.00639 0.47479 0.0
C1680 C 0.31915 0.0368 0.48604 0.0
C1681 C 0.31731 0.02924 0.5031 0.0
C1682 C 0.30438 0.9926 0.50897 0.0
C1683 C 0.30575 0.99218 0.52786 0.0
C1684 C 0.26519 0.96827 0.53522 0.0
C1685 C 0.33258 0.97777 0.53394 0.0
C1686 C 0.32222 0.03417 0.53166 0.0
C1687 C 0.3287 0.05533 0.51729 0.0
C1688 C 0.34541 0.09509 0.5179 0.0
C1689 C 0.35638 0.11359 0.5336 0.0
C1690 C 0.35045 0.0922 0.54838 0.0
C1691 C 0.33232 0.05197 0.54725 0.0
H1692 H 0.58436 0.46032 0.09045 0.0
H1693 H 0.56449 0.46736 0.14327 0.0
H1694 H 0.54667 0.39987 0.14687 0.0
H1695 H 0.50249 0.36617 0.08539 0.0
H1696 H 0.52528 0.35122 0.07014 0.0
H1697 H 0.53935 0.40081 0.0719 0.0
H1698 H 0.61014 0.41805 0.07641 0.0
H1699 H 0.59625 0.36849 0.07466 0.0
H1700 H 0.62161 0.39521 0.09297 0.0
H1701 H 0.53111 0.33176 0.14476 0.0
H1702 H 0.5152 0.26677 0.13699 0.0
H1703 H 0.53921 0.30163 0.08491 0.0
C1704 C 0.5771 0.44777 0.10282 0.0
C1705 C 0.57685 0.46925 0.11672 0.0
C1706 C 0.56554 0.45152 0.13257 0.0
C1707 C 0.55532 0.41322 0.13471 0.0
C1708 C 0.55566 0.39268 0.12078 0.0
C1709 C 0.56579 0.40914 0.10509 0.0
C1710 C 0.56101 0.37984 0.09202 0.0
C1711 C 0.53021 0.37419 0.0791 0.0
C1712 C 0.59955 0.39107 0.08352 0.0
C1713 C 0.54747 0.34464 0.10287 0.0
C1714 C 0.54469 0.35277 0.11941 0.0
C1715 C 0.53288 0.32499 0.13181 0.0
C1716 C 0.52352 0.28791 0.1272 0.0
C1717 C 0.52546 0.27844 0.11027 0.0
C1718 C 0.53775 0.30758 0.098 0.0
H1719 H 0.64014 0.1464 0.13313 0.0
H1720 H 0.6179 0.10152 0.0826 0.0
H1721 H 0.6846 0.14784 0.0746 0.0
H1722 H 0.70194 0.24537 0.12141 0.0
H1723 H 0.73461 0.25659 0.13872 0.0
H1724 H 0.68513 0.21962 0.14082 0.0
H1725 H 0.70688 0.17164 0.1493 0.0
H1726 H 0.75643 0.2085 0.14726 0.0
H1727 H 0.73867 0.16468 0.13571 0.0
H1728 H 0.75205 0.19842 0.07165 0.0
H1729 H 0.81873 0.25081 0.07387 0.0
H1730 H 0.80046 0.26528 0.12629 0.0
C1731 C 0.64966 0.14635 0.12046 0.0
C1732 C 0.62418 0.12034 0.10843 0.0
C1733 C 0.63722 0.12115 0.09194 0.0
C1734 C 0.67497 0.14737 0.08729 0.0
C1735 C 0.6995 0.17276 0.09929 0.0
C1736 C 0.68766 0.17261 0.11555 0.0
C1737 C 0.72038 0.20352 0.12579 0.0
C1738 C 0.70988 0.23302 0.13205 0.0
C1739 C 0.73123 0.18604 0.14038 0.0
C1740 C 0.75227 0.22072 0.11273 0.0
C1741 C 0.73922 0.20247 0.09755 0.0
C1742 C 0.76265 0.21305 0.08346 0.0
C1743 C 0.8005 0.24311 0.08483 0.0
C1744 C 0.81496 0.26261 0.10018 0.0
C1745 C 0.7904 0.25095 0.11438 0.0
H1746 H 0.85273 0.59521 0.11723 0.0
H1747 H 0.77264 0.50317 0.08507 0.0
H1748 H 0.8143 0.47492 0.08591 0.0
H1749 H 0.93883 0.60535 0.09952 0.0
H1750 H 0.96419 0.61392 0.11909 0.0
H1751 H 0.9275 0.62673 0.11676 0.0
H1752 H 0.89169 0.58561 0.14255 0.0
H1753 H 0.92829 0.57262 0.14498 0.0
H1754 H 0.87858 0.53611 0.14299 0.0
H1755 H 0.86229 0.45614 0.08995 0.0
H1756 H 0.91783 0.44877 0.09518 0.0
H1757 H 0.97116 0.55355 0.12431 0.0
C1758 C 0.84386 0.56892 0.11051 0.0
C1759 C 0.80942 0.55148 0.10098 0.0
C1760 C 0.79905 0.51736 0.09221 0.0
C1761 C 0.82237 0.50089 0.09274 0.0
C1762 C 0.85598 0.51874 0.10215 0.0
C1763 C 0.86701 0.55201 0.11085 0.0
C1764 C 0.90543 0.56549 0.11955 0.0
C1765 C 0.93579 0.60523 0.11335 0.0
C1766 C 0.90071 0.56493 0.13865 0.0
C1767 C 0.91459 0.53502 0.11394 0.0
C1768 C 0.88501 0.50815 0.10419 0.0
C1769 C 0.8857 0.47696 0.09754 0.0
C1770 C 0.91768 0.47313 0.10065 0.0
C1771 C 0.9493 0.50064 0.11016 0.0
C1772 C 0.94752 0.53195 0.11707 0.0
H1773 H 0.46927 0.58116 0.90294 0.0
H1774 H 0.47636 0.50802 0.94066 0.0
H1775 H 0.40842 0.4834 0.94804 0.0
H1776 H 0.40707 0.60516 0.9245 0.0
H1777 H 0.37833 0.60197 0.90659 0.0
H1778 H 0.42751 0.61365 0.90378 0.0
H1779 H 0.40555 0.55696 0.88328 0.0
H1780 H 0.35626 0.54517 0.886 0.0
H1781 H 0.36997 0.50981 0.88995 0.0
H1782 H 0.34249 0.46985 0.9528 0.0
H1783 H 0.27851 0.46401 0.95344 0.0
H1784 H 0.31028 0.54223 0.91157 0.0
C1785 C 0.45616 0.55971 0.9126 0.0
C1786 C 0.47767 0.54621 0.92124 0.0
C1787 C 0.45998 0.51826 0.93384 0.0
C1788 C 0.42154 0.50422 0.93815 0.0
C1789 C 0.40094 0.51793 0.9295 0.0
C1790 C 0.41719 0.54453 0.91681 0.0
C1791 C 0.38777 0.55355 0.90943 0.0
C1792 C 0.40097 0.59611 0.91119 0.0
C1793 C 0.3794 0.54061 0.89108 0.0
C1794 C 0.35323 0.52916 0.92047 0.0
C1795 C 0.36168 0.50884 0.93189 0.0
C1796 C 0.3353 0.48531 0.94384 0.0
C1797 C 0.29916 0.48238 0.94418 0.0
C1798 C 0.28958 0.5028 0.93263 0.0
C1799 C 0.31685 0.52617 0.92048 0.0
H1800 H 0.53572 0.92981 0.89887 0.0
H1801 H 0.49719 0.9332 0.94926 0.0
H1802 H 0.51246 0.88427 0.95811 0.0
H1803 H 0.49483 0.82561 0.89914 0.0
H1804 H 0.5331 0.82703 0.88683 0.0
H1805 H 0.52008 0.86328 0.88415 0.0
H1806 H 0.59045 0.91537 0.89012 0.0
H1807 H 0.6036 0.87927 0.89291 0.0
H1808 H 0.61318 0.91351 0.90926 0.0
H1809 H 0.53365 0.83831 0.9622 0.0
H1810 H 0.5544 0.79087 0.96094 0.0
H1811 H 0.57534 0.81101 0.90757 0.0
C1812 C 0.53029 0.91983 0.91168 0.0
C1813 C 0.51486 0.9348 0.92338 0.0
C1814 C 0.50824 0.92144 0.94007 0.0
C1815 C 0.51712 0.89393 0.94526 0.0
C1816 C 0.53205 0.87951 0.93353 0.0
C1817 C 0.53804 0.89128 0.91703 0.0
C1818 C 0.55266 0.86916 0.90702 0.0
C1819 C 0.52343 0.84483 0.89348 0.0
C1820 C 0.59234 0.89594 0.89938 0.0
C1821 C 0.55503 0.84425 0.92067 0.0
C1822 C 0.54298 0.85101 0.93581 0.0
C1823 C 0.54262 0.83222 0.95039 0.0
C1824 C 0.55424 0.80512 0.94951 0.0
C1825 C 0.5657 0.79655 0.93411 0.0
C1826 C 0.56661 0.81684 0.91951 0.0
H1827 H 0.27538 0.76966 0.94423 0.0
H1828 H 0.26703 0.81138 0.89523 0.0
H1829 H 0.21742 0.74657 0.88721 0.0
H1830 H 0.26421 0.67937 0.92951 0.0
H1831 H 0.23632 0.65303 0.94742 0.0
H1832 H 0.27142 0.70286 0.94943 0.0
H1833 H 0.21888 0.71594 0.96102 0.0
H1834 H 0.18361 0.6662 0.95899 0.0
H1835 H 0.17588 0.70162 0.94896 0.0
H1836 H 0.16542 0.678 0.88499 0.0
H1837 H 0.11786 0.60946 0.8882 0.0
H1838 H 0.16324 0.61022 0.93746 0.0
C1839 C 0.26364 0.76523 0.93171 0.0
C1840 C 0.27515 0.79622 0.92047 0.0
C1841 C 0.25834 0.7887 0.90429 0.0
C1842 C 0.23025 0.75177 0.89953 0.0
C1843 C 0.21935 0.72217 0.91094 0.0
C1844 C 0.23576 0.72833 0.92664 0.0
C1845 C 0.21859 0.69139 0.93654 0.0
C1846 C 0.24949 0.68106 0.94099 0.0
C1847 C 0.19802 0.69395 0.95231 0.0
C1848 C 0.19006 0.66356 0.92393 0.0
C1849 C 0.1907 0.68208 0.90931 0.0
C1850 C 0.16518 0.66306 0.89624 0.0
C1851 C 0.13831 0.62416 0.89815 0.0
C1852 C 0.13764 0.6044 0.91284 0.0
C1853 C 0.16404 0.62439 0.92586 0.0
H1854 H 0.24059 0.78976 0.42342 0.0
H1855 H 0.22857 0.8005 0.47671 0.0
H1856 H 0.21349 0.73374 0.4808 0.0
H1857 H 0.15993 0.69317 0.4209 0.0
H1858 H 0.18172 0.67902 0.40483 0.0
H1859 H 0.19323 0.72795 0.40632 0.0
H1860 H 0.26565 0.74928 0.40836 0.0
H1861 H 0.2543 0.7004 0.40698 0.0
H1862 H 0.28183 0.72936 0.42444 0.0
H1863 H 0.20216 0.66666 0.47901 0.0
H1864 H 0.18909 0.60237 0.47149 0.0
H1865 H 0.20198 0.63347 0.41888 0.0
C1866 C 0.23513 0.77806 0.43596 0.0
C1867 C 0.23643 0.80026 0.44984 0.0
C1868 C 0.22799 0.78387 0.46599 0.0
C1869 C 0.21951 0.74611 0.4684 0.0
C1870 C 0.21864 0.72495 0.45445 0.0
C1871 C 0.22552 0.74012 0.43851 0.0
C1872 C 0.22035 0.71061 0.42553 0.0
C1873 C 0.18682 0.7022 0.4137 0.0
C1874 C 0.25777 0.72317 0.41576 0.0
C1875 C 0.21063 0.67677 0.43671 0.0
C1876 C 0.20992 0.68569 0.45334 0.0
C1877 C 0.20213 0.65922 0.466 0.0
C1878 C 0.19443 0.62257 0.46156 0.0
C1879 C 0.19401 0.61229 0.44455 0.0
C1880 C 0.20243 0.64014 0.43202 0.0
H1881 H 0.45494 0.59818 0.42263 0.0
H1882 H 0.49268 0.59351 0.47306 0.0
H1883 H 0.42728 0.54246 0.48007 0.0
H1884 H 0.36135 0.5837 0.43418 0.0
H1885 H 0.33758 0.55469 0.41615 0.0
H1886 H 0.38759 0.59073 0.41497 0.0
H1887 H 0.40466 0.53986 0.40542 0.0
H1888 H 0.35472 0.50367 0.40659 0.0
H1889 H 0.39016 0.49813 0.41813 0.0
H1890 H 0.35874 0.48934 0.48123 0.0
H1891 H 0.29038 0.4406 0.47684 0.0
H1892 H 0.29546 0.48332 0.42667 0.0
C1893 C 0.44943 0.58689 0.43523 0.0
C1894 C 0.47932 0.59988 0.44724 0.0
C1895 C 0.47069 0.58367 0.46349 0.0
C1896 C 0.43349 0.55479 0.46766 0.0
C1897 C 0.40491 0.54254 0.45551 0.0
C1898 C 0.41231 0.55824 0.43967 0.0
C1899 C 0.3764 0.53968 0.42891 0.0
C1900 C 0.36507 0.56895 0.42323 0.0
C1901 C 0.38181 0.51912 0.41387 0.0
C1902 C 0.34759 0.51149 0.44128 0.0
C1903 C 0.36481 0.5132 0.45647 0.0
C1904 C 0.34474 0.48819 0.4695 0.0
C1905 C 0.30604 0.4607 0.46694 0.0
C1906 C 0.28768 0.45912 0.45164 0.0
C1907 C 0.30866 0.4849 0.43869 0.0
H1908 H 0.58811 0.81806 0.4331 0.0
H1909 H 0.65813 0.8955 0.47249 0.0
H1910 H 0.61295 0.91975 0.47465 0.0
H1911 H 0.56601 0.88258 0.4129 0.0
H1912 H 0.51742 0.84738 0.40748 0.0
H1913 H 0.55342 0.83364 0.4098 0.0
H1914 H 0.51113 0.78298 0.43181 0.0
H1915 H 0.47485 0.7964 0.42948 0.0
H1916 H 0.49443 0.79719 0.44986 0.0
H1917 H 0.56219 0.9377 0.47188 0.0
H1918 H 0.50933 0.94888 0.46415 0.0
H1919 H 0.47167 0.86042 0.42632 0.0
C1920 C 0.59352 0.83954 0.44242 0.0
C1921 C 0.6265 0.85448 0.4528 0.0
C1922 C 0.63298 0.88333 0.46451 0.0
C1923 C 0.60746 0.89733 0.46583 0.0
C1924 C 0.57558 0.88239 0.4553 0.0
C1925 C 0.56844 0.85413 0.44382 0.0
C1926 C 0.53295 0.84437 0.43348 0.0
C1927 C 0.54307 0.85249 0.41481 0.0
C1928 C 0.50147 0.80276 0.43633 0.0
C1929 C 0.52155 0.87184 0.44086 0.0
C1930 C 0.54643 0.89325 0.45351 0.0
C1931 C 0.5423 0.92087 0.46209 0.0
C1932 C 0.51195 0.92684 0.45767 0.0
C1933 C 0.48593 0.90536 0.44472 0.0
C1934 C 0.49102 0.87748 0.43623 0.0
H1935 H 0.97694 0.86541 0.27225 0.0
H1936 H 0.92924 0.78548 0.23097 0.0
H1937 H 0.99401 0.79751 0.22382 0.0
H1938 H 0.06582 0.9329 0.25122 0.0
H1939 H 0.09484 0.94341 0.26979 0.0
H1940 H 0.04478 0.92949 0.27152 0.0
H1941 H 0.03361 0.87445 0.29142 0.0
H1942 H 0.08361 0.88822 0.28977 0.0
H1943 H 0.04703 0.84023 0.28473 0.0
H1944 H 0.06301 0.81481 0.22204 0.0
H1945 H 0.13252 0.83859 0.22508 0.0
H1946 H 0.13694 0.90914 0.26683 0.0
C1947 C 0.98013 0.85045 0.2617 0.0
C1948 C 0.9478 0.82461 0.25211 0.0
C1949 C 0.95343 0.80585 0.23835 0.0
C1950 C 0.99016 0.81232 0.23423 0.0
C1951 C 1.02127 0.83784 0.24391 0.0
C1952 C 1.01679 0.85683 0.25731 0.0
C1953 C 0.05519 0.88261 0.26569 0.0
C1954 C 0.06578 0.92459 0.26448 0.0
C1955 C 0.05483 0.87065 0.28399 0.0
C1956 C 0.08178 0.87475 0.25502 0.0
C1957 C 0.06151 0.84872 0.24257 0.0
C1958 C 0.0793 0.83557 0.23161 0.0
C1959 C 0.11882 0.84923 0.23344 0.0
C1960 C 0.14037 0.87614 0.24601 0.0
C1961 C 0.12148 0.88921 0.25685 0.0
H1962 H 0.22346 0.14118 0.28006 0.0
H1963 H 0.25027 0.13011 0.22841 0.0
H1964 H 0.2363 0.18042 0.22019 0.0
H1965 H 0.14305 0.15447 0.27096 0.0
H1966 H 0.15392 0.1886 0.28751 0.0
H1967 H 0.16748 0.15263 0.28956 0.0
H1968 H 0.23819 0.20503 0.29462 0.0
H1969 H 0.22485 0.24117 0.29259 0.0
H1970 H 0.26211 0.24267 0.27949 0.0
H1971 H 0.22171 0.23394 0.21757 0.0
H1972 H 0.20346 0.28369 0.22067 0.0
H1973 H 0.18008 0.25605 0.27327 0.0
C1974 C 0.22601 0.14886 0.26697 0.0
C1975 C 0.23842 0.13149 0.25496 0.0
C1976 C 0.2418 0.14326 0.23801 0.0
C1977 C 0.23358 0.17173 0.23315 0.0
C1978 C 0.22152 0.18813 0.24529 0.0
C1979 C 0.21745 0.17696 0.26184 0.0
C1980 C 0.20367 0.19899 0.27238 0.0
C1981 C 0.16471 0.17205 0.28058 0.0
C1982 C 0.23401 0.22341 0.28555 0.0
C1983 C 0.19993 0.22374 0.25911 0.0
C1984 C 0.21107 0.21751 0.24361 0.0
C1985 C 0.21232 0.2386 0.22958 0.0
C1986 C 0.20187 0.26671 0.23142 0.0
C1987 C 0.18936 0.27282 0.24705 0.0
C1988 C 0.18836 0.25101 0.26105 0.0
H1989 H 0.79086 0.96629 0.24353 0.0
H1990 H 0.8547 0.91347 0.26237 0.0
H1991 H 0.91139 0.97628 0.26625 0.0
H1992 H 0.87477 0.04528 0.22134 0.0
H1993 H 0.86039 0.07974 0.22625 0.0
H1994 H 0.82454 0.03027 0.22364 0.0
H1995 H 0.79741 0.03002 0.25308 0.0
H1996 H 0.83324 0.07936 0.2558 0.0
H1997 H 0.82908 0.04452 0.27093 0.0
H1998 H 0.95918 0.043 0.27066 0.0
H1999 H 0.99816 0.11258 0.27375 0.0
H2000 H 0.90666 0.12511 0.25135 0.0
C2001 C 0.81703 0.96797 0.24811 0.0
C2002 C 0.81811 0.9347 0.25262 0.0
C2003 C 0.85285 0.93828 0.2588 0.0
C2004 C 0.88542 0.97393 0.26106 0.0
C2005 C 0.88325 1.00602 0.25688 0.0
C2006 C 0.85031 1.00368 0.25032 0.0
C2007 C 0.85615 0.04327 0.24729 0.0
C2008 C 0.85382 0.05003 0.22851 0.0
C2009 C 0.82725 0.04965 0.25738 0.0
C2010 C 0.89689 0.06783 0.2538 0.0
C2011 C 0.91182 0.04549 0.25915 0.0
C2012 C 0.9481 0.06095 0.26634 0.0
C2013 C 0.9699 0.10044 0.26814 0.0
C2014 C 0.95541 0.12414 0.26281 0.0
C2015 C 0.91855 0.10761 0.25536 0.0
H2016 H 0.84724 0.94785 0.791 0.0
H2017 H 0.88475 0.94968 0.73984 0.0
H2018 H 0.9078 1.0182 0.73819 0.0
H2019 H 0.81295 1.01402 0.78473 0.0
H2020 H 0.82973 0.03746 0.80464 0.0
H2021 H 0.81693 0.98831 0.8023 0.0
H2022 H 0.88436 1.00452 0.81288 0.0
H2023 H 0.89743 0.05378 0.81521 0.0
H2024 H 0.9265 0.04122 0.80251 0.0
H2025 H 0.92878 0.08561 0.74183 0.0
H2026 H 0.94193 0.1495 0.74975 0.0
H2027 H 0.8874 0.10633 0.79793 0.0
C2028 C 0.86014 0.9627 0.77944 0.0
C2029 C 0.86483 0.94338 0.76564 0.0
C2030 C 0.88181 0.96389 0.75074 0.0
C2031 C 0.89481 1.00285 0.74962 0.0
C2032 C 0.89044 0.0211 0.76346 0.0
C2033 C 0.87327 1.00191 0.77806 0.0
C2034 C 0.87202 0.02897 0.79092 0.0
C2035 C 0.83042 1.01644 0.79594 0.0
C2036 C 0.89652 0.03231 0.80629 0.0
C2037 C 0.89026 0.06599 0.78102 0.0
C2038 C 0.90134 0.06061 0.76536 0.0
C2039 C 0.92022 0.09028 0.75403 0.0
C2040 C 0.92786 0.12655 0.75873 0.0
C2041 C 0.91612 0.13297 0.77451 0.0
C2042 C 0.8968 0.10219 0.78581 0.0
H2043 H 0.11816 0.93029 0.75092 0.0
H2044 H 0.15885 0.9343 0.80166 0.0
H2045 H 0.09462 0.88269 0.80974 0.0
H2046 H 1.02484 0.91524 0.76234 0.0
H2047 H 1.00045 0.88344 0.74514 0.0
H2048 H 0.05014 0.91985 0.74307 0.0
H2049 H 0.06799 0.8686 0.7352 0.0
H2050 H 1.01836 0.83201 0.73724 0.0
H2051 H 0.05488 0.82895 0.7491 0.0
H2052 H 1.02669 0.82874 0.81216 0.0
H2053 H 0.95817 0.77931 0.8091 0.0
H2054 H 0.9598 0.81434 0.75773 0.0
C2055 C 0.11359 0.92076 0.76379 0.0
C2056 C 0.144 0.93641 0.77558 0.0
C2057 C 0.13653 0.9224 0.79224 0.0
C2058 C 0.09998 0.89321 0.79702 0.0
C2059 C 0.07085 0.87843 0.78508 0.0
C2060 C 0.0771 0.8919 0.76885 0.0
C2061 C 0.04066 0.87127 0.75852 0.0
C2062 C 1.0283 0.89912 0.75188 0.0
C2063 C 0.04579 0.84888 0.74417 0.0
C2064 C 1.01283 0.84464 0.77158 0.0
C2065 C 1.03105 0.84874 0.78674 0.0
C2066 C 1.01193 0.82567 0.80044 0.0
C2067 C 0.97311 0.79775 0.79861 0.0
C2068 C 0.95367 0.79382 0.78336 0.0
C2069 C 0.97379 0.81762 0.7697 0.0
H2070 H 0.2516 0.14249 0.76893 0.0
H2071 H 0.3355 0.23775 0.79861 0.0
H2072 H 0.29216 0.26388 0.7998 0.0
H2073 H 0.22062 0.19415 0.74438 0.0
H2074 H 0.17039 0.15838 0.74416 0.0
H2075 H 0.20626 0.14452 0.74662 0.0
H2076 H 0.17399 0.1094 0.77415 0.0
H2077 H 0.13779 0.12292 0.77171 0.0
H2078 H 0.16579 0.13482 0.79065 0.0
H2079 H 0.24315 0.28288 0.79635 0.0
H2080 H 0.18935 0.29276 0.78909 0.0
H2081 H 0.13464 0.18535 0.76208 0.0
C2082 C 0.26041 0.16833 0.77601 0.0
C2083 C 0.29706 0.18782 0.78376 0.0
C2084 C 0.30769 0.22204 0.7926 0.0
C2085 C 0.28323 0.23725 0.79337 0.0
C2086 C 0.24786 0.21793 0.78534 0.0
C2087 C 0.23611 0.18406 0.77695 0.0
C2088 C 0.19686 0.17003 0.76901 0.0
C2089 C 0.19867 0.16658 0.74991 0.0
C2090 C 0.16683 0.13204 0.77685 0.0
C2091 C 0.18925 0.20202 0.7738 0.0
C2092 C 0.21898 0.22903 0.78338 0.0
C2093 C 0.21935 0.26166 0.78906 0.0
C2094 C 0.18843 0.26689 0.78494 0.0
C2095 C 0.15727 0.23968 0.77519 0.0
C2096 C 0.1579 0.20677 0.76954 0.0
H2097 H 0.62851 0.13718 0.58636 0.0
H2098 H 0.64099 0.2466 0.59996 0.0
H2099 H 0.71129 0.27625 0.59743 0.0
H2100 H 0.71039 0.14752 0.60775 0.0
H2101 H 0.72361 0.12481 0.59176 0.0
H2102 H 0.67409 0.11217 0.59427 0.0
H2103 H 0.67134 0.12849 0.56316 0.0
H2104 H 0.72092 0.14126 0.56055 0.0
H2105 H 0.70575 0.17499 0.55534 0.0
H2106 H 0.7798 0.29422 0.5936 0.0
H2107 H 0.84284 0.29909 0.59013 0.0
H2108 H 0.78679 0.17824 0.57866 0.0
C2109 C 0.64588 0.16748 0.58862 0.0
C2110 C 0.62892 0.18946 0.59344 0.0
C2111 C 0.65306 0.22891 0.59656 0.0
C2112 C 0.69308 0.24614 0.59497 0.0
C2113 C 0.70867 0.22369 0.59012 0.0
C2114 C 0.68591 0.18524 0.58699 0.0
C2115 C 0.71016 0.16752 0.58227 0.0
C2116 C 0.70421 0.13616 0.59476 0.0
C2117 C 0.70152 0.15216 0.56426 0.0
C2118 C 0.75021 0.20196 0.58363 0.0
C2119 C 0.74851 0.23409 0.58797 0.0
C2120 C 0.78152 0.2693 0.59016 0.0
C2121 C 0.81729 0.27174 0.58814 0.0
C2122 C 0.82003 0.23913 0.58408 0.0
C2123 C 0.78584 0.20383 0.58159 0.0
H2124 H 0.9321 0.49413 0.57428 0.0
H2125 H 0.87037 0.43931 0.61996 0.0
H2126 H 0.84452 0.48279 0.62094 0.0
H2127 H 0.9601 0.58948 0.58644 0.0
H2128 H 0.95362 0.60421 0.566 0.0
H2129 H 0.96563 0.56713 0.56797 0.0
H2130 H 0.90555 0.52172 0.55059 0.0
H2131 H 0.89334 0.5587 0.54855 0.0
H2132 H 0.85893 0.51306 0.55713 0.0
H2133 H 0.82535 0.53133 0.6175 0.0
H2134 H 0.81614 0.5852 0.61071 0.0
H2135 H 0.89345 0.61375 0.56831 0.0
C2136 C 0.91327 0.49128 0.58455 0.0
C2137 C 0.90301 0.46261 0.59695 0.0
C2138 C 0.87799 0.46002 0.61004 0.0
C2139 C 0.86333 0.4849 0.6108 0.0
C2140 C 0.87404 0.51262 0.59847 0.0
C2141 C 0.89853 0.51622 0.58561 0.0
C2142 C 0.90588 0.54932 0.5742 0.0
C2143 C 0.94887 0.57931 0.57363 0.0
C2144 C 0.88999 0.53484 0.55657 0.0
C2145 C 0.88265 0.56443 0.58305 0.0
C2146 C 0.86395 0.54209 0.59679 0.0
C2147 C 0.83984 0.54906 0.60679 0.0
C2148 C 0.83466 0.57973 0.60274 0.0
C2149 C 0.85387 0.6037 0.58892 0.0
C2150 C 0.87844 0.59602 0.57896 0.0
H2151 H 0.49507 0.28725 0.56588 0.0
H2152 H 0.46169 0.25933 0.61783 0.0
H2153 H 0.50834 0.32531 0.62607 0.0
H2154 H 0.59707 0.34853 0.57491 0.0
H2155 H 0.60476 0.38185 0.55838 0.0
H2156 H 0.56783 0.33267 0.5563 0.0
H2157 H 0.51717 0.35336 0.55123 0.0
H2158 H 0.55397 0.40258 0.5533 0.0
H2159 H 0.51181 0.38335 0.56638 0.0
H2160 H 0.55723 0.39368 0.62881 0.0
H2161 H 0.6075 0.46091 0.62608 0.0
H2162 H 0.61361 0.44485 0.57264 0.0
C2163 C 0.49775 0.29527 0.57895 0.0
C2164 C 0.47509 0.26844 0.59129 0.0
C2165 C 0.47922 0.27958 0.60827 0.0
C2166 C 0.50548 0.31695 0.61306 0.0
C2167 C 0.52784 0.34275 0.60071 0.0
C2168 C 0.52463 0.3325 0.58402 0.0
C2169 C 0.55337 0.36578 0.57348 0.0
C2170 C 0.58248 0.35665 0.56528 0.0
C2171 C 0.53284 0.37692 0.56032 0.0
C2172 C 0.57245 0.39633 0.58681 0.0
C2173 C 0.55722 0.38231 0.6024 0.0
C2174 C 0.56973 0.40497 0.61668 0.0
C2175 C 0.59863 0.44312 0.61502 0.0
C2176 C 0.61505 0.45836 0.5992 0.0
C2177 C 0.60164 0.43436 0.58492 0.0
loop_
_geom_bond_atom_site_label_1
_geom_bond_atom_site_label_2
_geom_bond_distance
_geom_bond_site_symmetry_2
_ccdc_geom_bond_type
Nd0 C2 2.836 . S
Nd0 O20 2.500 . S
Nd0 O21 2.492 . S
Nd0 O22 2.487 . S
Nd0 O23 2.682 1_545 S
Nd0 O24 2.410 . S
Nd0 O29 2.414 . S
Nd0 O31 2.424 1_545 S
Nd1 C11 2.836 . S
Nd1 O23 2.414 . S
Nd1 O25 2.424 1_565 S
Nd1 O26 2.500 . S
Nd1 O27 2.492 . S
Nd1 O28 2.487 . S
Nd1 O29 2.682 1_565 S
Nd1 O30 2.410 . S
C2 Nd0 2.836 . S
C2 C3 1.498 . S
C2 O20 1.258 . S
C2 O21 1.239 . S
C3 C2 1.498 . S
C3 C4 1.366 . S
C3 C8 1.407 . S
C4 C3 1.366 . S
C4 C5 1.392 . S
C4 H32 0.930 . S
C5 C4 1.392 . S
C5 C6 1.398 . S
C5 H33 0.929 . S
C6 C5 1.398 . S
C6 C7 1.352 . S
C7 C6 1.352 . S
C7 C8 1.384 . S
C7 H34 0.930 . S
C8 C3 1.407 . S
C8 C7 1.384 . S
C8 H35 0.929 . S
C9 O22 1.268 . S
C9 O23 1.260 1_545 S
C10 O24 1.251 . S
C10 O25 1.268 . S
C11 Nd1 2.836 . S
C11 C12 1.498 . S
C11 O26 1.258 . S
C11 O27 1.239 . S
C12 C11 1.498 . S
C12 C13 1.366 . S
C12 C17 1.407 . S
C13 C12 1.366 . S
C13 C14 1.392 . S
C13 H36 0.930 . S
C14 C13 1.392 . S
C14 C15 1.398 . S
C14 H37 0.929 . S
C15 C14 1.398 . S
C15 C16 1.352 . S
C16 C15 1.352 . S
C16 C17 1.384 . S
C16 H38 0.930 . S
C17 C12 1.407 . S
C17 C16 1.384 . S
C17 H39 0.929 . S
C18 O28 1.241 1_545 S
C18 O29 1.273 . S
C19 O30 1.251 . S
C19 O31 1.268 . S
O20 Nd0 2.500 . S
O20 C2 1.258 . S
O21 Nd0 2.492 . S
O21 C2 1.239 . S
O22 Nd0 2.487 . S
O22 C9 1.268 . S
O23 Nd0 2.682 1_565 S
O23 Nd1 2.414 . S
O23 C9 1.260 1_565 S
O24 Nd0 2.410 . S
O24 C10 1.251 . S
O25 Nd1 2.424 1_545 S
O25 C10 1.268 . S
O26 Nd1 2.500 . S
O26 C11 1.258 . S
O27 Nd1 2.492 . S
O27 C11 1.239 . S
O28 Nd1 2.487 . S
O28 C18 1.241 1_565 S
O29 Nd0 2.414 . S
O29 Nd1 2.682 1_545 S
O29 C18 1.273 . S
O30 Nd1 2.410 . S
O30 C19 1.251 . S
O31 Nd0 2.424 1_565 S
O31 C19 1.268 . S
H32 C4 0.930 . S
H33 C5 0.929 . S
H34 C7 0.930 . S
H35 C8 0.929 . S
H36 C13 0.930 . S
H37 C14 0.929 . S
H38 C16 0.930 . S
H39 C17 0.929 . S
Nd40 C42 2.823 1_455 S
Nd40 O60 2.486 1_455 S
Nd40 O61 2.482 1_455 S
Nd40 O62 2.489 . S
Nd40 O63 2.685 . S
Nd40 O64 2.392 1_455 S
Nd40 O69 2.409 . S
Nd40 O71 2.443 . S
Nd41 C51 2.836 . S
Nd41 O63 2.414 . S
Nd41 O65 2.424 1_455 S
Nd41 O66 2.500 . S
Nd41 O67 2.492 . S
Nd41 O68 2.487 . S
Nd41 O69 2.682 . S
Nd41 O70 2.410 . S
C42 Nd40 2.823 1_655 S
C42 C43 1.498 . S
C42 O60 1.258 . S
C42 O61 1.239 . S
C43 C42 1.498 . S
C43 C44 1.366 . S
C43 C48 1.407 . S
C44 C43 1.366 . S
C44 C45 1.392 . S
C44 H72 0.930 . S
C45 C44 1.392 . S
C45 C46 1.398 . S
C45 H73 0.929 . S
C46 C45 1.398 . S
C46 C47 1.352 . S
C47 C46 1.352 . S
C47 C48 1.384 . S
C47 H74 0.930 . S
C48 C43 1.407 . S
C48 C47 1.384 . S
C48 H75 0.929 . S
C49 O62 1.241 . S
C49 O63 1.273 . S
C50 O64 1.251 . S
C50 O65 1.268 . S
C51 Nd41 2.836 . S
C51 C52 1.498 . S
C51 O66 1.258 . S
C51 O67 1.239 . S
C52 C51 1.498 . S
C52 C53 1.366 . S
C52 C57 1.407 . S
C53 C52 1.366 . S
C53 C54 1.392 . S
C53 H76 0.930 . S
C54 C53 1.392 . S
C54 C55 1.398 . S
C54 H77 0.929 . S
C55 C54 1.398 . S
C55 C56 1.352 . S
C56 C55 1.352 . S
C56 C57 1.384 . S
C56 H78 0.930 . S
C57 C52 1.407 . S
C57 C56 1.384 . S
C57 H79 0.929 . S
C58 O68 1.241 . S
C58 O69 1.273 . S
C59 O70 1.251 . S
C59 O71 1.268 . S
O60 Nd40 2.486 1_655 S
O60 C42 1.258 . S
O61 Nd40 2.482 1_655 S
O61 C42 1.239 . S
O62 Nd40 2.489 . S
O62 C49 1.241 . S
O63 Nd40 2.685 . S
O63 Nd41 2.414 . S
O63 C49 1.273 . S
O64 Nd40 2.392 1_655 S
O64 C50 1.251 . S
O65 Nd41 2.424 1_655 S
O65 C50 1.268 . S
O66 Nd41 2.500 . S
O66 C51 1.258 . S
O67 Nd41 2.492 . S
O67 C51 1.239 . S
O68 Nd41 2.487 . S
O68 C58 1.241 . S
O69 Nd40 2.409 . S
O69 Nd41 2.682 . S
O69 C58 1.273 . S
O70 Nd41 2.410 . S
O70 C59 1.251 . S
O71 Nd40 2.443 . S
O71 C59 1.268 . S
H72 C44 0.930 . S
H73 C45 0.929 . S
H74 C47 0.930 . S
H75 C48 0.929 . S
H76 C53 0.930 . S
H77 C54 0.929 . S
H78 C56 0.930 . S
H79 C57 0.929 . S
Nd80 C82 2.836 . S
Nd80 O100 2.500 . S
Nd80 O101 2.492 . S
Nd80 O102 2.487 . S
Nd80 O103 2.682 . S
Nd80 O104 2.410 . S
Nd80 O109 2.414 . S
Nd80 O111 2.424 . S
Nd81 C91 2.836 . S
Nd81 O103 2.414 . S
Nd81 O105 2.424 . S
Nd81 O106 2.500 . S
Nd81 O107 2.492 . S
Nd81 O108 2.487 . S
Nd81 O109 2.682 . S
Nd81 O110 2.410 . S
C82 Nd80 2.836 . S
C82 C83 1.498 . S
C82 O100 1.258 . S
C82 O101 1.239 . S
C83 C82 1.498 . S
C83 C84 1.366 . S
C83 C88 1.407 . S
C84 C83 1.366 . S
C84 C85 1.392 . S
C84 H112 0.930 . S
C85 C84 1.392 . S
C85 C86 1.398 . S
C85 H113 0.929 . S
C86 C85 1.398 . S
C86 C87 1.352 . S
C87 C86 1.352 . S
C87 C88 1.384 . S
C87 H114 0.930 . S
C88 C83 1.407 . S
C88 C87 1.384 . S
C88 H115 0.929 . S
C89 O102 1.241 . S
C89 O103 1.273 . S
C90 O104 1.251 . S
C90 O105 1.268 . S
C91 Nd81 2.836 . S
C91 C92 1.498 . S
C91 O106 1.258 . S
C91 O107 1.239 . S
C92 C91 1.498 . S
C92 C93 1.366 . S
C92 C97 1.407 . S
C93 C92 1.366 . S
C93 C94 1.392 . S
C93 H116 0.930 . S
C94 C93 1.392 . S
C94 C95 1.398 . S
C94 H117 0.929 . S
C95 C94 1.398 . S
C95 C96 1.352 . S
C96 C95 1.352 . S
C96 C97 1.384 . S
C96 H118 0.930 . S
C97 C92 1.407 . S
C97 C96 1.384 . S
C97 H119 0.929 . S
C98 O108 1.241 . S
C98 O109 1.273 . S
C99 O110 1.251 . S
C99 O111 1.268 . S
O100 Nd80 2.500 . S
O100 C82 1.258 . S
O101 Nd80 2.492 . S
O101 C82 1.239 . S
O102 Nd80 2.487 . S
O102 C89 1.241 . S
O103 Nd80 2.682 . S
O103 Nd81 2.414 . S
O103 C89 1.273 . S
O104 Nd80 2.410 . S
O104 C90 1.251 . S
O105 Nd81 2.424 . S
O105 C90 1.268 . S
O106 Nd81 2.500 . S
O106 C91 1.258 . S
O107 Nd81 2.492 . S
O107 C91 1.239 . S
O108 Nd81 2.487 . S
O108 C98 1.241 . S
O109 Nd80 2.414 . S
O109 Nd81 2.682 . S
O109 C98 1.273 . S
O110 Nd81 2.410 . S
O110 C99 1.251 . S
O111 Nd80 2.424 . S
O111 C99 1.268 . S
H112 C84 0.930 . S
H113 C85 0.929 . S
H114 C87 0.930 . S
H115 C88 0.929 . S
H116 C93 0.930 . S
H117 C94 0.929 . S
H118 C96 0.930 . S
H119 C97 0.929 . S
Nd120 C122 2.836 . S
Nd120 O140 2.500 . S
Nd120 O141 2.492 . S
Nd120 O142 2.487 . S
Nd120 O143 2.682 1_455 S
Nd120 O144 2.410 . S
Nd120 O149 2.414 . S
Nd120 O151 2.424 1_455 S
Nd121 C131 2.836 . S
Nd121 O143 2.414 . S
Nd121 O145 2.424 1_655 S
Nd121 O146 2.500 . S
Nd121 O147 2.492 . S
Nd121 O148 2.487 . S
Nd121 O149 2.682 1_655 S
Nd121 O150 2.410 . S
C122 Nd120 2.836 . S
C122 C123 1.498 . S
C122 O140 1.258 . S
C122 O141 1.239 . S
C123 C122 1.498 . S
C123 C124 1.366 . S
C123 C128 1.407 . S
C124 C123 1.366 . S
C124 C125 1.392 . S
C124 H152 0.930 . S
C125 C124 1.392 . S
C125 C126 1.398 . S
C125 H153 0.929 . S
C126 C125 1.398 . S
C126 C127 1.352 . S
C127 C126 1.352 . S
C127 C128 1.384 . S
C127 H154 0.930 . S
C128 C123 1.407 . S
C128 C127 1.384 . S
C128 H155 0.929 . S
C129 O142 1.268 . S
C129 O143 1.260 1_455 S
C130 O144 1.251 . S
C130 O145 1.268 . S
C131 Nd121 2.836 . S
C131 C132 1.498 . S
C131 O146 1.258 . S
C131 O147 1.239 . S
C132 C131 1.498 . S
C132 C133 1.366 . S
C132 C137 1.407 . S
C133 C132 1.366 . S
C133 C134 1.392 . S
C133 H156 0.930 . S
C134 C133 1.392 . S
C134 C135 1.398 . S
C134 H157 0.929 . S
C135 C134 1.398 . S
C135 C136 1.352 . S
C136 C135 1.352 . S
C136 C137 1.384 . S
C136 H158 0.930 . S
C137 C132 1.407 . S
C137 C136 1.384 . S
C137 H159 0.929 . S
C138 O148 1.241 1_455 S
C138 O149 1.273 . S
C139 O150 1.251 . S
C139 O151 1.268 . S
O140 Nd120 2.500 . S
O140 C122 1.258 . S
O141 Nd120 2.492 . S
O141 C122 1.239 . S
O142 Nd120 2.487 . S
O142 C129 1.268 . S
O143 Nd120 2.682 1_655 S
O143 Nd121 2.414 . S
O143 C129 1.260 1_655 S
O144 Nd120 2.410 . S
O144 C130 1.251 . S
O145 Nd121 2.424 1_455 S
O145 C130 1.268 . S
O146 Nd121 2.500 . S
O146 C131 1.258 . S
O147 Nd121 2.492 . S
O147 C131 1.239 . S
O148 Nd121 2.487 . S
O148 C138 1.241 1_655 S
O149 Nd120 2.414 . S
O149 Nd121 2.682 1_455 S
O149 C138 1.273 . S
O150 Nd121 2.410 . S
O150 C139 1.251 . S
O151 Nd120 2.424 1_655 S
O151 C139 1.268 . S
H152 C124 0.930 . S
H153 C125 0.929 . S
H154 C127 0.930 . S
H155 C128 0.929 . S
H156 C133 0.930 . S
H157 C134 0.929 . S
H158 C136 0.930 . S
H159 C137 0.929 . S
Nd160 C162 2.836 . S
Nd160 O180 2.500 . S
Nd160 O181 2.492 . S
Nd160 O182 2.487 . S
Nd160 O183 2.682 . S
Nd160 O184 2.410 . S
Nd160 O189 2.414 . S
Nd160 O191 2.424 . S
Nd161 C171 2.836 . S
Nd161 O183 2.414 . S
Nd161 O185 2.424 . S
Nd161 O186 2.500 . S
Nd161 O187 2.492 . S
Nd161 O188 2.487 . S
Nd161 O189 2.682 . S
Nd161 O190 2.410 . S
C162 Nd160 2.836 . S
C162 C163 1.498 . S
C162 O180 1.258 . S
C162 O181 1.239 . S
C163 C162 1.498 . S
C163 C164 1.366 . S
C163 C168 1.407 . S
C164 C163 1.366 . S
C164 C165 1.392 . S
C164 H192 0.930 . S
C165 C164 1.392 . S
C165 C166 1.398 . S
C165 H193 0.929 . S
C166 C165 1.398 . S
C166 C167 1.352 . S
C167 C166 1.352 . S
C167 C168 1.384 . S
C167 H194 0.930 . S
C168 C163 1.407 . S
C168 C167 1.384 . S
C168 H195 0.929 . S
C169 O182 1.241 . S
C169 O183 1.273 . S
C170 O184 1.251 . S
C170 O185 1.268 . S
C171 Nd161 2.836 . S
C171 C172 1.498 . S
C171 O186 1.258 . S
C171 O187 1.239 . S
C172 C171 1.498 . S
C172 C173 1.366 . S
C172 C177 1.407 . S
C173 C172 1.366 . S
C173 C174 1.392 . S
C173 H196 0.930 . S
C174 C173 1.392 . S
C174 C175 1.398 . S
C174 H197 0.929 . S
C175 C174 1.398 . S
C175 C176 1.352 . S
C176 C175 1.352 . S
C176 C177 1.384 . S
C176 H198 0.930 . S
C177 C172 1.407 . S
C177 C176 1.384 . S
C177 H199 0.929 . S
C178 O188 1.241 . S
C178 O189 1.273 . S
C179 O190 1.251 . S
C179 O191 1.268 . S
O180 Nd160 2.500 . S
O180 C162 1.258 . S
O181 Nd160 2.492 . S
O181 C162 1.239 . S
O182 Nd160 2.487 . S
O182 C169 1.241 . S
O183 Nd160 2.682 . S
O183 Nd161 2.414 . S
O183 C169 1.273 . S
O184 Nd160 2.410 . S
O184 C170 1.251 . S
O185 Nd161 2.424 . S
O185 C170 1.268 . S
O186 Nd161 2.500 . S
O186 C171 1.258 . S
O187 Nd161 2.492 . S
O187 C171 1.239 . S
O188 Nd161 2.487 . S
O188 C178 1.241 . S
O189 Nd160 2.414 . S
O189 Nd161 2.682 . S
O189 C178 1.273 . S
O190 Nd161 2.410 . S
O190 C179 1.251 . S
O191 Nd160 2.424 . S
O191 C179 1.268 . S
H192 C164 0.930 . S
H193 C165 0.929 . S
H194 C167 0.930 . S
H195 C168 0.929 . S
H196 C173 0.930 . S
H197 C174 0.929 . S
H198 C176 0.930 . S
H199 C177 0.929 . S
Nd200 C202 2.823 1_545 S
Nd200 O220 2.486 1_545 S
Nd200 O221 2.482 1_545 S
Nd200 O222 2.489 . S
Nd200 O223 2.685 . S
Nd200 O224 2.392 1_545 S
Nd200 O229 2.409 . S
Nd200 O231 2.443 . S
Nd201 C211 2.836 . S
Nd201 O223 2.414 . S
Nd201 O225 2.424 1_545 S
Nd201 O226 2.500 . S
Nd201 O227 2.492 . S
Nd201 O228 2.487 . S
Nd201 O229 2.682 . S
Nd201 O230 2.410 . S
C202 Nd200 2.823 1_565 S
C202 C203 1.498 . S
C202 O220 1.258 . S
C202 O221 1.239 . S
C203 C202 1.498 . S
C203 C204 1.366 . S
C203 C208 1.407 . S
C204 C203 1.366 . S
C204 C205 1.392 . S
C204 H232 0.930 . S
C205 C204 1.392 . S
C205 C206 1.398 . S
C205 H233 0.929 . S
C206 C205 1.398 . S
C206 C207 1.352 . S
C207 C206 1.352 . S
C207 C208 1.384 . S
C207 H234 0.930 . S
C208 C203 1.407 . S
C208 C207 1.384 . S
C208 H235 0.929 . S
C209 O222 1.241 . S
C209 O223 1.273 . S
C210 O224 1.251 . S
C210 O225 1.268 . S
C211 Nd201 2.836 . S
C211 C212 1.498 . S
C211 O226 1.258 . S
C211 O227 1.239 . S
C212 C211 1.498 . S
C212 C213 1.366 . S
C212 C217 1.407 . S
C213 C212 1.366 . S
C213 C214 1.392 . S
C213 H236 0.930 . S
C214 C213 1.392 . S
C214 C215 1.398 . S
C214 H237 0.929 . S
C215 C214 1.398 . S
C215 C216 1.352 . S
C216 C215 1.352 . S
C216 C217 1.384 . S
C216 H238 0.930 . S
C217 C212 1.407 . S
C217 C216 1.384 . S
C217 H239 0.929 . S
C218 O228 1.241 . S
C218 O229 1.273 . S
C219 O230 1.251 . S
C219 O231 1.268 . S
O220 Nd200 2.486 1_565 S
O220 C202 1.258 . S
O221 Nd200 2.482 1_565 S
O221 C202 1.239 . S
O222 Nd200 2.489 . S
O222 C209 1.241 . S
O223 Nd200 2.685 . S
O223 Nd201 2.414 . S
O223 C209 1.273 . S
O224 Nd200 2.392 1_565 S
O224 C210 1.251 . S
O225 Nd201 2.424 1_565 S
O225 C210 1.268 . S
O226 Nd201 2.500 . S
O226 C211 1.258 . S
O227 Nd201 2.492 . S
O227 C211 1.239 . S
O228 Nd201 2.487 . S
O228 C218 1.241 . S
O229 Nd200 2.409 . S
O229 Nd201 2.682 . S
O229 C218 1.273 . S
O230 Nd201 2.410 . S
O230 C219 1.251 . S
O231 Nd200 2.443 . S
O231 C219 1.268 . S
H232 C204 0.930 . S
H233 C205 0.929 . S
H234 C207 0.930 . S
H235 C208 0.929 . S
H236 C213 0.930 . S
H237 C214 0.929 . S
H238 C216 0.930 . S
H239 C217 0.929 . S
Nd240 C242 2.836 . S
Nd240 O260 2.500 . S
Nd240 O261 2.492 . S
Nd240 O262 2.487 . S
Nd240 O263 2.682 . S
Nd240 O264 2.410 . S
Nd240 O269 2.414 . S
Nd240 O271 2.424 . S
Nd241 C251 2.836 . S
Nd241 O263 2.414 . S
Nd241 O265 2.424 . S
Nd241 O266 2.500 . S
Nd241 O267 2.492 . S
Nd241 O268 2.487 . S
Nd241 O269 2.682 . S
Nd241 O270 2.410 . S
C242 Nd240 2.836 . S
C242 C243 1.498 . S
C242 O260 1.258 . S
C242 O261 1.239 . S
C243 C242 1.498 . S
C243 C244 1.366 . S
C243 C248 1.407 . S
C244 C243 1.366 . S
C244 C245 1.392 . S
C244 H272 0.930 . S
C245 C244 1.392 . S
C245 C246 1.398 . S
C245 H273 0.929 . S
C246 C245 1.398 . S
C246 C247 1.352 . S
C247 C246 1.352 . S
C247 C248 1.384 . S
C247 H274 0.930 . S
C248 C243 1.407 . S
C248 C247 1.384 . S
C248 H275 0.929 . S
C249 O262 1.241 . S
C249 O263 1.273 . S
C250 O264 1.251 . S
C250 O265 1.268 . S
C251 Nd241 2.836 . S
C251 C252 1.498 . S
C251 O266 1.258 . S
C251 O267 1.239 . S
C252 C251 1.498 . S
C252 C253 1.366 . S
C252 C257 1.407 . S
C253 C252 1.366 . S
C253 C254 1.392 . S
C253 H276 0.930 . S
C254 C253 1.392 . S
C254 C255 1.398 . S
C254 H277 0.929 . S
C255 C254 1.398 . S
C255 C256 1.352 . S
C256 C255 1.352 . S
C256 C257 1.384 . S
C256 H278 0.930 . S
C257 C252 1.407 . S
C257 C256 1.384 . S
C257 H279 0.929 . S
C258 O268 1.241 . S
C258 O269 1.273 . S
C259 O270 1.251 . S
C259 O271 1.268 . S
O260 Nd240 2.500 . S
O260 C242 1.258 . S
O261 Nd240 2.492 . S
O261 C242 1.239 . S
O262 Nd240 2.487 . S
O262 C249 1.241 . S
O263 Nd240 2.682 . S
O263 Nd241 2.414 . S
O263 C249 1.273 . S
O264 Nd240 2.410 . S
O264 C250 1.251 . S
O265 Nd241 2.424 . S
O265 C250 1.268 . S
O266 Nd241 2.500 . S
O266 C251 1.258 . S
O267 Nd241 2.492 . S
O267 C251 1.239 . S
O268 Nd241 2.487 . S
O268 C258 1.241 . S
O269 Nd240 2.414 . S
O269 Nd241 2.682 . S
O269 C258 1.273 . S
O270 Nd241 2.410 . S
O270 C259 1.251 . S
O271 Nd240 2.424 . S
O271 C259 1.268 . S
H272 C244 0.930 . S
H273 C245 0.929 . S
H274 C247 0.930 . S
H275 C248 0.929 . S
H276 C253 0.930 . S
H277 C254 0.929 . S
H278 C256 0.930 . S
H279 C257 0.929 . S
Nd280 C282 2.836 . S
Nd280 O300 2.500 . S
Nd280 O301 2.492 . S
Nd280 O302 2.487 . S
Nd280 O303 2.682 . S
Nd280 O304 2.410 . S
Nd280 O309 2.414 . S
Nd280 O311 2.424 . S
Nd281 C291 2.836 . S
Nd281 O303 2.414 . S
Nd281 O305 2.424 . S
Nd281 O306 2.500 . S
Nd281 O307 2.492 . S
Nd281 O308 2.487 . S
Nd281 O309 2.682 . S
Nd281 O310 2.410 . S
C282 Nd280 2.836 . S
C282 C283 1.498 . S
C282 O300 1.258 . S
C282 O301 1.239 . S
C283 C282 1.498 . S
C283 C284 1.366 . S
C283 C288 1.407 . S
C284 C283 1.366 . S
C284 C285 1.392 . S
C284 H312 0.930 . S
C285 C284 1.392 . S
C285 C286 1.398 . S
C285 H313 0.929 . S
C286 C285 1.398 . S
C286 C287 1.352 . S
C287 C286 1.352 . S
C287 C288 1.384 . S
C287 H314 0.930 . S
C288 C283 1.407 . S
C288 C287 1.384 . S
C288 H315 0.929 . S
C289 O302 1.241 . S
C289 O303 1.273 . S
C290 O304 1.251 . S
C290 O305 1.268 . S
C291 Nd281 2.836 . S
C291 C292 1.498 . S
C291 O306 1.258 . S
C291 O307 1.239 . S
C292 C291 1.498 . S
C292 C293 1.366 . S
C292 C297 1.407 . S
C293 C292 1.366 . S
C293 C294 1.392 . S
C293 H316 0.930 . S
C294 C293 1.392 . S
C294 C295 1.398 1_565 S
C294 H317 0.929 . S
C295 C294 1.398 1_545 S
C295 C296 1.352 . S
C296 C295 1.352 . S
C296 C297 1.384 1_545 S
C296 H318 0.930 . S
C297 C292 1.407 . S
C297 C296 1.384 1_565 S
C297 H319 0.929 . S
C298 O308 1.241 . S
C298 O309 1.273 . S
C299 O310 1.251 . S
C299 O311 1.268 . S
O300 Nd280 2.500 . S
O300 C282 1.258 . S
O301 Nd280 2.492 . S
O301 C282 1.239 . S
O302 Nd280 2.487 . S
O302 C289 1.241 . S
O303 Nd280 2.682 . S
O303 Nd281 2.414 . S
O303 C289 1.273 . S
O304 Nd280 2.410 . S
O304 C290 1.251 . S
O305 Nd281 2.424 . S
O305 C290 1.268 . S
O306 Nd281 2.500 . S
O306 C291 1.258 . S
O307 Nd281 2.492 . S
O307 C291 1.239 . S
O308 Nd281 2.487 . S
O308 C298 1.241 . S
O309 Nd280 2.414 . S
O309 Nd281 2.682 . S
O309 C298 1.273 . S
O310 Nd281 2.410 . S
O310 C299 1.251 . S
O311 Nd280 2.424 . S
O311 C299 1.268 . S
H312 C284 0.930 . S
H313 C285 0.929 . S
H314 C287 0.930 . S
H315 C288 0.929 . S
H316 C293 0.930 . S
H317 C294 0.929 . S
H318 C296 0.930 . S
H319 C297 0.929 . S
Nd320 C322 2.836 . S
Nd320 O340 2.500 . S
Nd320 O341 2.492 . S
Nd320 O342 2.487 . S
Nd320 O343 2.682 . S
Nd320 O344 2.410 . S
Nd320 O349 2.414 . S
Nd320 O351 2.424 . S
Nd321 C331 2.836 . S
Nd321 O343 2.414 . S
Nd321 O345 2.424 . S
Nd321 O346 2.500 . S
Nd321 O347 2.492 . S
Nd321 O348 2.487 . S
Nd321 O349 2.682 . S
Nd321 O350 2.410 . S
C322 Nd320 2.836 . S
C322 C323 1.498 . S
C322 O340 1.258 . S
C322 O341 1.239 . S
C323 C322 1.498 . S
C323 C324 1.366 . S
C323 C328 1.407 . S
C324 C323 1.366 . S
C324 C325 1.392 . S
C324 H352 0.930 . S
C325 C324 1.392 . S
C325 C326 1.398 . S
C325 H353 0.929 . S
C326 C325 1.398 . S
C326 C327 1.352 . S
C327 C326 1.352 . S
C327 C328 1.384 . S
C327 H354 0.930 . S
C328 C323 1.407 . S
C328 C327 1.384 . S
C328 H355 0.929 . S
C329 O342 1.241 . S
C329 O343 1.273 . S
C330 O344 1.251 . S
C330 O345 1.268 . S
C331 Nd321 2.836 . S
C331 C332 1.498 . S
C331 O346 1.258 . S
C331 O347 1.239 . S
C332 C331 1.498 . S
C332 C333 1.366 . S
C332 C337 1.407 . S
C333 C332 1.366 . S
C333 C334 1.392 . S
C333 H356 0.930 . S
C334 C333 1.392 . S
C334 C335 1.398 . S
C334 H357 0.929 . S
C335 C334 1.398 . S
C335 C336 1.352 . S
C336 C335 1.352 . S
C336 C337 1.384 . S
C336 H358 0.930 1_455 S
C337 C332 1.407 . S
C337 C336 1.384 . S
C337 H359 0.929 . S
C338 O348 1.241 . S
C338 O349 1.273 . S
C339 O350 1.251 . S
C339 O351 1.268 . S
O340 Nd320 2.500 . S
O340 C322 1.258 . S
O341 Nd320 2.492 . S
O341 C322 1.239 . S
O342 Nd320 2.487 . S
O342 C329 1.241 . S
O343 Nd320 2.682 . S
O343 Nd321 2.414 . S
O343 C329 1.273 . S
O344 Nd320 2.410 . S
O344 C330 1.251 . S
O345 Nd321 2.424 . S
O345 C330 1.268 . S
O346 Nd321 2.500 . S
O346 C331 1.258 . S
O347 Nd321 2.492 . S
O347 C331 1.239 . S
O348 Nd321 2.487 . S
O348 C338 1.241 . S
O349 Nd320 2.414 . S
O349 Nd321 2.682 . S
O349 C338 1.273 . S
O350 Nd321 2.410 . S
O350 C339 1.251 . S
O351 Nd320 2.424 . S
O351 C339 1.268 . S
H352 C324 0.930 . S
H353 C325 0.929 . S
H354 C327 0.930 . S
H355 C328 0.929 . S
H356 C333 0.930 . S
H357 C334 0.929 . S
H358 C336 0.930 1_655 S
H359 C337 0.929 . S
Nd360 C362 2.836 . S
Nd360 O380 2.500 . S
Nd360 O381 2.492 . S
Nd360 O382 2.487 . S
Nd360 O383 2.682 . S
Nd360 O384 2.410 . S
Nd360 O389 2.414 . S
Nd360 O391 2.424 . S
Nd361 C371 2.836 . S
Nd361 O383 2.414 . S
Nd361 O385 2.424 . S
Nd361 O386 2.500 . S
Nd361 O387 2.492 . S
Nd361 O388 2.487 . S
Nd361 O389 2.682 . S
Nd361 O390 2.410 . S
C362 Nd360 2.836 . S
C362 C363 1.498 . S
C362 O380 1.258 . S
C362 O381 1.239 . S
C363 C362 1.498 . S
C363 C364 1.366 . S
C363 C368 1.407 . S
C364 C363 1.366 . S
C364 C365 1.392 . S
C364 H392 0.930 . S
C365 C364 1.392 . S
C365 C366 1.398 . S
C365 H393 0.929 . S
C366 C365 1.398 . S
C366 C367 1.352 . S
C367 C366 1.352 . S
C367 C368 1.384 . S
C367 H394 0.930 . S
C368 C363 1.407 . S
C368 C367 1.384 . S
C368 H395 0.929 . S
C369 O382 1.241 . S
C369 O383 1.273 . S
C370 O384 1.251 . S
C370 O385 1.268 . S
C371 Nd361 2.836 . S
C371 C372 1.498 . S
C371 O386 1.258 . S
C371 O387 1.239 . S
C372 C371 1.498 . S
C372 C373 1.366 . S
C372 C377 1.407 . S
C373 C372 1.366 . S
C373 C374 1.392 . S
C373 H396 0.930 . S
C374 C373 1.392 . S
C374 C375 1.398 . S
C374 H397 0.929 . S
C375 C374 1.398 . S
C375 C376 1.352 . S
C376 C375 1.352 . S
C376 C377 1.384 . S
C376 H398 0.930 . S
C377 C372 1.407 . S
C377 C376 1.384 . S
C377 H399 0.929 . S
C378 O388 1.241 . S
C378 O389 1.273 . S
C379 O390 1.251 . S
C379 O391 1.268 . S
O380 Nd360 2.500 . S
O380 C362 1.258 . S
O381 Nd360 2.492 . S
O381 C362 1.239 . S
O382 Nd360 2.487 . S
O382 C369 1.241 . S
O383 Nd360 2.682 . S
O383 Nd361 2.414 . S
O383 C369 1.273 . S
O384 Nd360 2.410 . S
O384 C370 1.251 . S
O385 Nd361 2.424 . S
O385 C370 1.268 . S
O386 Nd361 2.500 . S
O386 C371 1.258 . S
O387 Nd361 2.492 . S
O387 C371 1.239 . S
O388 Nd361 2.487 . S
O388 C378 1.241 . S
O389 Nd360 2.414 . S
O389 Nd361 2.682 . S
O389 C378 1.273 . S
O390 Nd361 2.410 . S
O390 C379 1.251 . S
O391 Nd360 2.424 . S
O391 C379 1.268 . S
H392 C364 0.930 . S
H393 C365 0.929 . S
H394 C367 0.930 . S
H395 C368 0.929 . S
H396 C373 0.930 . S
H397 C374 0.929 . S
H398 C376 0.930 . S
H399 C377 0.929 . S
Nd400 C402 2.836 . S
Nd400 O420 2.500 . S
Nd400 O421 2.492 . S
Nd400 O422 2.487 . S
Nd400 O423 2.682 . S
Nd400 O424 2.410 . S
Nd400 O429 2.414 . S
Nd400 O431 2.424 . S
Nd401 C411 2.836 . S
Nd401 O423 2.414 . S
Nd401 O425 2.424 . S
Nd401 O426 2.500 . S
Nd401 O427 2.492 . S
Nd401 O428 2.487 . S
Nd401 O429 2.682 . S
Nd401 O430 2.410 . S
C402 Nd400 2.836 . S
C402 C403 1.498 1_565 S
C402 O420 1.258 . S
C402 O421 1.239 . S
C403 C402 1.498 1_545 S
C403 C404 1.366 . S
C403 C408 1.407 . S
C404 C403 1.366 . S
C404 C405 1.392 . S
C404 H432 0.930 1_545 S
C405 C404 1.392 . S
C405 C406 1.398 . S
C405 H433 0.929 . S
C406 C405 1.398 . S
C406 C407 1.352 . S
C407 C406 1.352 . S
C407 C408 1.384 . S
C407 H434 0.930 . S
C408 C403 1.407 . S
C408 C407 1.384 . S
C408 H435 0.929 . S
C409 O422 1.241 . S
C409 O423 1.273 . S
C410 O424 1.251 . S
C410 O425 1.268 . S
C411 Nd401 2.836 . S
C411 C412 1.498 . S
C411 O426 1.258 . S
C411 O427 1.239 . S
C412 C411 1.498 . S
C412 C413 1.366 . S
C412 C417 1.407 . S
C413 C412 1.366 . S
C413 C414 1.392 . S
C413 H436 0.930 . S
C414 C413 1.392 . S
C414 C415 1.398 . S
C414 H437 0.929 . S
C415 C414 1.398 . S
C415 C416 1.352 . S
C416 C415 1.352 . S
C416 C417 1.384 . S
C416 H438 0.930 . S
C417 C412 1.407 . S
C417 C416 1.384 . S
C417 H439 0.929 . S
C418 O428 1.241 . S
C418 O429 1.273 . S
C419 O430 1.251 . S
C419 O431 1.268 . S
O420 Nd400 2.500 . S
O420 C402 1.258 . S
O421 Nd400 2.492 . S
O421 C402 1.239 . S
O422 Nd400 2.487 . S
O422 C409 1.241 . S
O423 Nd400 2.682 . S
O423 Nd401 2.414 . S
O423 C409 1.273 . S
O424 Nd400 2.410 . S
O424 C410 1.251 . S
O425 Nd401 2.424 . S
O425 C410 1.268 . S
O426 Nd401 2.500 . S
O426 C411 1.258 . S
O427 Nd401 2.492 . S
O427 C411 1.239 . S
O428 Nd401 2.487 . S
O428 C418 1.241 . S
O429 Nd400 2.414 . S
O429 Nd401 2.682 . S
O429 C418 1.273 . S
O430 Nd401 2.410 . S
O430 C419 1.251 . S
O431 Nd400 2.424 . S
O431 C419 1.268 . S
H432 C404 0.930 1_565 S
H433 C405 0.929 . S
H434 C407 0.930 . S
H435 C408 0.929 . S
H436 C413 0.930 . S
H437 C414 0.929 . S
H438 C416 0.930 . S
H439 C417 0.929 . S
Nd440 C442 2.836 . S
Nd440 O460 2.500 . S
Nd440 O461 2.492 . S
Nd440 O462 2.487 . S
Nd440 O463 2.682 . S
Nd440 O464 2.410 . S
Nd440 O469 2.414 . S
Nd440 O471 2.424 . S
Nd441 C451 2.836 . S
Nd441 O463 2.414 . S
Nd441 O465 2.424 . S
Nd441 O466 2.500 . S
Nd441 O467 2.492 . S
Nd441 O468 2.487 . S
Nd441 O469 2.682 . S
Nd441 O470 2.410 . S
C442 Nd440 2.836 . S
C442 C443 1.498 . S
C442 O460 1.258 . S
C442 O461 1.239 . S
C443 C442 1.498 . S
C443 C444 1.366 . S
C443 C448 1.407 1_455 S
C444 C443 1.366 . S
C444 C445 1.392 1_455 S
C444 H472 0.930 . S
C445 C444 1.392 1_655 S
C445 C446 1.398 . S
C445 H473 0.929 . S
C446 C445 1.398 . S
C446 C447 1.352 . S
C447 C446 1.352 . S
C447 C448 1.384 . S
C447 H474 0.930 . S
C448 C443 1.407 1_655 S
C448 C447 1.384 . S
C448 H475 0.929 . S
C449 O462 1.241 . S
C449 O463 1.273 . S
C450 O464 1.251 . S
C450 O465 1.268 . S
C451 Nd441 2.836 . S
C451 C452 1.498 . S
C451 O466 1.258 . S
C451 O467 1.239 . S
C452 C451 1.498 . S
C452 C453 1.366 . S
C452 C457 1.407 . S
C453 C452 1.366 . S
C453 C454 1.392 . S
C453 H476 0.930 . S
C454 C453 1.392 . S
C454 C455 1.398 . S
C454 H477 0.929 . S
C455 C454 1.398 . S
C455 C456 1.352 . S
C456 C455 1.352 . S
C456 C457 1.384 . S
C456 H478 0.930 . S
C457 C452 1.407 . S
C457 C456 1.384 . S
C457 H479 0.929 . S
C458 O468 1.241 . S
C458 O469 1.273 . S
C459 O470 1.251 . S
C459 O471 1.268 . S
O460 Nd440 2.500 . S
O460 C442 1.258 . S
O461 Nd440 2.492 . S
O461 C442 1.239 . S
O462 Nd440 2.487 . S
O462 C449 1.241 . S
O463 Nd440 2.682 . S
O463 Nd441 2.414 . S
O463 C449 1.273 . S
O464 Nd440 2.410 . S
O464 C450 1.251 . S
O465 Nd441 2.424 . S
O465 C450 1.268 . S
O466 Nd441 2.500 . S
O466 C451 1.258 . S
O467 Nd441 2.492 . S
O467 C451 1.239 . S
O468 Nd441 2.487 . S
O468 C458 1.241 . S
O469 Nd440 2.414 . S
O469 Nd441 2.682 . S
O469 C458 1.273 . S
O470 Nd441 2.410 . S
O470 C459 1.251 . S
O471 Nd440 2.424 . S
O471 C459 1.268 . S
H472 C444 0.930 . S
H473 C445 0.929 . S
H474 C447 0.930 . S
H475 C448 0.929 . S
H476 C453 0.930 . S
H477 C454 0.929 . S
H478 C456 0.930 . S
H479 C457 0.929 . S
Nd480 C482 2.836 . S
Nd480 O500 2.500 . S
Nd480 O501 2.492 . S
Nd480 O502 2.487 . S
Nd480 O503 2.682 . S
Nd480 O504 2.410 . S
Nd480 O509 2.414 . S
Nd480 O511 2.424 . S
Nd481 C491 2.836 . S
Nd481 O503 2.414 . S
Nd481 O505 2.424 . S
Nd481 O506 2.500 . S
Nd481 O507 2.492 . S
Nd481 O508 2.487 . S
Nd481 O509 2.682 . S
Nd481 O510 2.410 . S
C482 Nd480 2.836 . S
C482 C483 1.498 . S
C482 O500 1.258 . S
C482 O501 1.239 . S
C483 C482 1.498 . S
C483 C484 1.366 . S
C483 C488 1.407 . S
C484 C483 1.366 . S
C484 C485 1.392 . S
C484 H512 0.930 . S
C485 C484 1.392 . S
C485 C486 1.398 . S
C485 H513 0.929 . S
C486 C485 1.398 . S
C486 C487 1.352 . S
C487 C486 1.352 . S
C487 C488 1.384 . S
C487 H514 0.930 . S
C488 C483 1.407 . S
C488 C487 1.384 . S
C488 H515 0.929 . S
C489 O502 1.241 . S
C489 O503 1.273 . S
C490 O504 1.251 . S
C490 O505 1.268 . S
C491 Nd481 2.836 . S
C491 C492 1.498 . S
C491 O506 1.258 . S
C491 O507 1.239 . S
C492 C491 1.498 . S
C492 C493 1.366 . S
C492 C497 1.407 . S
C493 C492 1.366 . S
C493 C494 1.392 . S
C493 H516 0.930 . S
C494 C493 1.392 . S
C494 C495 1.398 . S
C494 H517 0.929 . S
C495 C494 1.398 . S
C495 C496 1.352 . S
C496 C495 1.352 . S
C496 C497 1.384 . S
C496 H518 0.930 . S
C497 C492 1.407 . S
C497 C496 1.384 . S
C497 H519 0.929 . S
C498 O508 1.241 . S
C498 O509 1.273 . S
C499 O510 1.251 . S
C499 O511 1.268 . S
O500 Nd480 2.500 . S
O500 C482 1.258 . S
O501 Nd480 2.492 . S
O501 C482 1.239 . S
O502 Nd480 2.487 . S
O502 C489 1.241 . S
O503 Nd480 2.682 . S
O503 Nd481 2.414 . S
O503 C489 1.273 . S
O504 Nd480 2.410 . S
O504 C490 1.251 . S
O505 Nd481 2.424 . S
O505 C490 1.268 . S
O506 Nd481 2.500 . S
O506 C491 1.258 . S
O507 Nd481 2.492 . S
O507 C491 1.239 . S
O508 Nd481 2.487 . S
O508 C498 1.241 . S
O509 Nd480 2.414 . S
O509 Nd481 2.682 . S
O509 C498 1.273 . S
O510 Nd481 2.410 . S
O510 C499 1.251 . S
O511 Nd480 2.424 . S
O511 C499 1.268 . S
H512 C484 0.930 . S
H513 C485 0.929 . S
H514 C487 0.930 . S
H515 C488 0.929 . S
H516 C493 0.930 . S
H517 C494 0.929 . S
H518 C496 0.930 . S
H519 C497 0.929 . S
Nd520 C522 2.836 . S
Nd520 O540 2.500 . S
Nd520 O541 2.492 . S
Nd520 O542 2.487 . S
Nd520 O543 2.682 . S
Nd520 O544 2.410 . S
Nd520 O549 2.414 . S
Nd520 O551 2.424 . S
Nd521 C531 2.836 . S
Nd521 O543 2.414 . S
Nd521 O545 2.424 . S
Nd521 O546 2.500 . S
Nd521 O547 2.492 . S
Nd521 O548 2.487 . S
Nd521 O549 2.682 . S
Nd521 O550 2.410 . S
C522 Nd520 2.836 . S
C522 C523 1.498 . S
C522 O540 1.258 . S
C522 O541 1.239 . S
C523 C522 1.498 . S
C523 C524 1.366 . S
C523 C528 1.407 1_545 S
C524 C523 1.366 . S
C524 C525 1.392 1_545 S
C524 H552 0.930 . S
C525 C524 1.392 1_565 S
C525 C526 1.398 . S
C525 H553 0.929 . S
C526 C525 1.398 . S
C526 C527 1.352 . S
C527 C526 1.352 . S
C527 C528 1.384 . S
C527 H554 0.930 . S
C528 C523 1.407 1_565 S
C528 C527 1.384 . S
C528 H555 0.929 . S
C529 O542 1.241 . S
C529 O543 1.273 . S
C530 O544 1.251 . S
C530 O545 1.268 . S
C531 Nd521 2.836 . S
C531 C532 1.498 . S
C531 O546 1.258 . S
C531 O547 1.239 . S
C532 C531 1.498 . S
C532 C533 1.366 . S
C532 C537 1.407 . S
C533 C532 1.366 . S
C533 C534 1.392 . S
C533 H556 0.930 . S
C534 C533 1.392 . S
C534 C535 1.398 . S
C534 H557 0.929 . S
C535 C534 1.398 . S
C535 C536 1.352 . S
C536 C535 1.352 . S
C536 C537 1.384 . S
C536 H558 0.930 . S
C537 C532 1.407 . S
C537 C536 1.384 . S
C537 H559 0.929 . S
C538 O548 1.241 . S
C538 O549 1.273 . S
C539 O550 1.251 . S
C539 O551 1.268 . S
O540 Nd520 2.500 . S
O540 C522 1.258 . S
O541 Nd520 2.492 . S
O541 C522 1.239 . S
O542 Nd520 2.487 . S
O542 C529 1.241 . S
O543 Nd520 2.682 . S
O543 Nd521 2.414 . S
O543 C529 1.273 . S
O544 Nd520 2.410 . S
O544 C530 1.251 . S
O545 Nd521 2.424 . S
O545 C530 1.268 . S
O546 Nd521 2.500 . S
O546 C531 1.258 . S
O547 Nd521 2.492 . S
O547 C531 1.239 . S
O548 Nd521 2.487 . S
O548 C538 1.241 . S
O549 Nd520 2.414 . S
O549 Nd521 2.682 . S
O549 C538 1.273 . S
O550 Nd521 2.410 . S
O550 C539 1.251 . S
O551 Nd520 2.424 . S
O551 C539 1.268 . S
H552 C524 0.930 . S
H553 C525 0.929 . S
H554 C527 0.930 . S
H555 C528 0.929 . S
H556 C533 0.930 . S
H557 C534 0.929 . S
H558 C536 0.930 . S
H559 C537 0.929 . S
Nd560 C562 2.836 . S
Nd560 O580 2.500 . S
Nd560 O581 2.492 . S
Nd560 O582 2.487 . S
Nd560 O583 2.682 . S
Nd560 O584 2.410 . S
Nd560 O589 2.414 . S
Nd560 O591 2.424 . S
Nd561 C571 2.836 . S
Nd561 O583 2.414 . S
Nd561 O585 2.424 . S
Nd561 O586 2.500 . S
Nd561 O587 2.492 . S
Nd561 O588 2.487 . S
Nd561 O589 2.682 . S
Nd561 O590 2.410 . S
C562 Nd560 2.836 . S
C562 C563 1.498 1_655 S
C562 O580 1.258 . S
C562 O581 1.239 . S
C563 C562 1.498 1_455 S
C563 C564 1.366 . S
C563 C568 1.407 . S
C564 C563 1.366 . S
C564 C565 1.392 . S
C564 H592 0.930 1_455 S
C565 C564 1.392 . S
C565 C566 1.398 . S
C565 H593 0.929 . S
C566 C565 1.398 . S
C566 C567 1.352 . S
C567 C566 1.352 . S
C567 C568 1.384 . S
C567 H594 0.930 . S
C568 C563 1.407 . S
C568 C567 1.384 . S
C568 H595 0.929 . S
C569 O582 1.241 . S
C569 O583 1.273 . S
C570 O584 1.251 . S
C570 O585 1.268 . S
C571 Nd561 2.836 . S
C571 C572 1.498 . S
C571 O586 1.258 . S
C571 O587 1.239 . S
C572 C571 1.498 . S
C572 C573 1.366 . S
C572 C577 1.407 . S
C573 C572 1.366 . S
C573 C574 1.392 . S
C573 H596 0.930 . S
C574 C573 1.392 . S
C574 C575 1.398 . S
C574 H597 0.929 . S
C575 C574 1.398 . S
C575 C576 1.352 . S
C576 C575 1.352 . S
C576 C577 1.384 . S
C576 H598 0.930 . S
C577 C572 1.407 . S
C577 C576 1.384 . S
C577 H599 0.929 . S
C578 O588 1.241 . S
C578 O589 1.273 . S
C579 O590 1.251 . S
C579 O591 1.268 . S
O580 Nd560 2.500 . S
O580 C562 1.258 . S
O581 Nd560 2.492 . S
O581 C562 1.239 . S
O582 Nd560 2.487 . S
O582 C569 1.241 . S
O583 Nd560 2.682 . S
O583 Nd561 2.414 . S
O583 C569 1.273 . S
O584 Nd560 2.410 . S
O584 C570 1.251 . S
O585 Nd561 2.424 . S
O585 C570 1.268 . S
O586 Nd561 2.500 . S
O586 C571 1.258 . S
O587 Nd561 2.492 . S
O587 C571 1.239 . S
O588 Nd561 2.487 . S
O588 C578 1.241 . S
O589 Nd560 2.414 . S
O589 Nd561 2.682 . S
O589 C578 1.273 . S
O590 Nd561 2.410 . S
O590 C579 1.251 . S
O591 Nd560 2.424 . S
O591 C579 1.268 . S
H592 C564 0.930 1_655 S
H593 C565 0.929 . S
H594 C567 0.930 . S
H595 C568 0.929 . S
H596 C573 0.930 . S
H597 C574 0.929 . S
H598 C576 0.930 . S
H599 C577 0.929 . S
Nd600 C602 2.836 . S
Nd600 O620 2.500 . S
Nd600 O621 2.492 . S
Nd600 O622 2.487 . S
Nd600 O623 2.682 . S
Nd600 O624 2.410 . S
Nd600 O629 2.414 . S
Nd600 O631 2.424 . S
Nd601 C611 2.836 . S
Nd601 O623 2.414 . S
Nd601 O625 2.424 . S
Nd601 O626 2.500 . S
Nd601 O627 2.492 . S
Nd601 O628 2.487 . S
Nd601 O629 2.682 . S
Nd601 O630 2.410 . S
C602 Nd600 2.836 . S
C602 C603 1.498 . S
C602 O620 1.258 . S
C602 O621 1.239 . S
C603 C602 1.498 . S
C603 C604 1.366 . S
C603 C608 1.407 . S
C604 C603 1.366 . S
C604 C605 1.392 . S
C604 H632 0.930 . S
C605 C604 1.392 . S
C605 C606 1.398 . S
C605 H633 0.929 . S
C606 C605 1.398 . S
C606 C607 1.352 . S
C607 C606 1.352 . S
C607 C608 1.384 . S
C607 H634 0.930 . S
C608 C603 1.407 . S
C608 C607 1.384 . S
C608 H635 0.929 . S
C609 O622 1.241 . S
C609 O623 1.273 . S
C610 O624 1.251 . S
C610 O625 1.268 . S
C611 Nd601 2.836 . S
C611 C612 1.498 . S
C611 O626 1.258 . S
C611 O627 1.239 . S
C612 C611 1.498 . S
C612 C613 1.366 . S
C612 C617 1.407 . S
C613 C612 1.366 . S
C613 C614 1.392 . S
C613 H636 0.930 . S
C614 C613 1.392 . S
C614 C615 1.398 . S
C614 H637 0.929 . S
C615 C614 1.398 . S
C615 C616 1.352 . S
C616 C615 1.352 . S
C616 C617 1.384 . S
C616 H638 0.930 . S
C617 C612 1.407 . S
C617 C616 1.384 . S
C617 H639 0.929 . S
C618 O628 1.241 . S
C618 O629 1.273 . S
C619 O630 1.251 . S
C619 O631 1.268 . S
O620 Nd600 2.500 . S
O620 C602 1.258 . S
O621 Nd600 2.492 . S
O621 C602 1.239 . S
O622 Nd600 2.487 . S
O622 C609 1.241 . S
O623 Nd600 2.682 . S
O623 Nd601 2.414 . S
O623 C609 1.273 . S
O624 Nd600 2.410 . S
O624 C610 1.251 . S
O625 Nd601 2.424 . S
O625 C610 1.268 . S
O626 Nd601 2.500 . S
O626 C611 1.258 . S
O627 Nd601 2.492 . S
O627 C611 1.239 . S
O628 Nd601 2.487 . S
O628 C618 1.241 . S
O629 Nd600 2.414 . S
O629 Nd601 2.682 . S
O629 C618 1.273 . S
O630 Nd601 2.410 . S
O630 C619 1.251 . S
O631 Nd600 2.424 . S
O631 C619 1.268 . S
H632 C604 0.930 . S
H633 C605 0.929 . S
H634 C607 0.930 . S
H635 C608 0.929 . S
H636 C613 0.930 . S
H637 C614 0.929 . S
H638 C616 0.930 . S
H639 C617 0.929 . S
Nd640 C642 2.836 . S
Nd640 O660 2.500 . S
Nd640 O661 2.492 . S
Nd640 O662 2.487 . S
Nd640 O663 2.682 . S
Nd640 O664 2.410 . S
Nd640 O669 2.414 . S
Nd640 O671 2.424 . S
Nd641 C651 2.836 . S
Nd641 O663 2.414 . S
Nd641 O665 2.424 . S
Nd641 O666 2.500 . S
Nd641 O667 2.492 . S
Nd641 O668 2.487 . S
Nd641 O669 2.682 . S
Nd641 O670 2.410 . S
C642 Nd640 2.836 . S
C642 C643 1.498 . S
C642 O660 1.258 . S
C642 O661 1.239 . S
C643 C642 1.498 . S
C643 C644 1.366 . S
C643 C648 1.407 . S
C644 C643 1.366 . S
C644 C645 1.392 . S
C644 H672 0.930 . S
C645 C644 1.392 . S
C645 C646 1.398 . S
C645 H673 0.929 . S
C646 C645 1.398 . S
C646 C647 1.352 . S
C647 C646 1.352 . S
C647 C648 1.384 . S
C647 H674 0.930 . S
C648 C643 1.407 . S
C648 C647 1.384 . S
C648 H675 0.929 . S
C649 O662 1.241 . S
C649 O663 1.273 . S
C650 O664 1.251 . S
C650 O665 1.268 . S
C651 Nd641 2.836 . S
C651 C652 1.498 . S
C651 O666 1.258 . S
C651 O667 1.239 . S
C652 C651 1.498 . S
C652 C653 1.366 . S
C652 C657 1.407 . S
C653 C652 1.366 . S
C653 C654 1.392 . S
C653 H676 0.930 . S
C654 C653 1.392 . S
C654 C655 1.398 . S
C654 H677 0.929 . S
C655 C654 1.398 . S
C655 C656 1.352 . S
C656 C655 1.352 . S
C656 C657 1.384 . S
C656 H678 0.930 1_545 S
C657 C652 1.407 . S
C657 C656 1.384 . S
C657 H679 0.929 . S
C658 O668 1.241 . S
C658 O669 1.273 . S
C659 O670 1.251 . S
C659 O671 1.268 . S
O660 Nd640 2.500 . S
O660 C642 1.258 . S
O661 Nd640 2.492 . S
O661 C642 1.239 . S
O662 Nd640 2.487 . S
O662 C649 1.241 . S
O663 Nd640 2.682 . S
O663 Nd641 2.414 . S
O663 C649 1.273 . S
O664 Nd640 2.410 . S
O664 C650 1.251 . S
O665 Nd641 2.424 . S
O665 C650 1.268 . S
O666 Nd641 2.500 . S
O666 C651 1.258 . S
O667 Nd641 2.492 . S
O667 C651 1.239 . S
O668 Nd641 2.487 . S
O668 C658 1.241 . S
O669 Nd640 2.414 . S
O669 Nd641 2.682 . S
O669 C658 1.273 . S
O670 Nd641 2.410 . S
O670 C659 1.251 . S
O671 Nd640 2.424 . S
O671 C659 1.268 . S
H672 C644 0.930 . S
H673 C645 0.929 . S
H674 C647 0.930 . S
H675 C648 0.929 . S
H676 C653 0.930 . S
H677 C654 0.929 . S
H678 C656 0.930 1_565 S
H679 C657 0.929 . S
Nd680 C682 2.836 . S
Nd680 O700 2.500 . S
Nd680 O701 2.492 . S
Nd680 O702 2.487 . S
Nd680 O703 2.682 . S
Nd680 O704 2.410 . S
Nd680 O709 2.414 . S
Nd680 O711 2.424 . S
Nd681 C691 2.836 . S
Nd681 O703 2.414 . S
Nd681 O705 2.424 . S
Nd681 O706 2.500 . S
Nd681 O707 2.492 . S
Nd681 O708 2.487 . S
Nd681 O709 2.682 . S
Nd681 O710 2.410 . S
C682 Nd680 2.836 . S
C682 C683 1.498 . S
C682 O700 1.258 . S
C682 O701 1.239 . S
C683 C682 1.498 . S
C683 C684 1.366 . S
C683 C688 1.407 . S
C684 C683 1.366 . S
C684 C685 1.392 . S
C684 H712 0.930 . S
C685 C684 1.392 . S
C685 C686 1.398 . S
C685 H713 0.929 . S
C686 C685 1.398 . S
C686 C687 1.352 . S
C687 C686 1.352 . S
C687 C688 1.384 . S
C687 H714 0.930 . S
C688 C683 1.407 . S
C688 C687 1.384 . S
C688 H715 0.929 . S
C689 O702 1.241 . S
C689 O703 1.273 . S
C690 O704 1.251 . S
C690 O705 1.268 . S
C691 Nd681 2.836 . S
C691 C692 1.498 . S
C691 O706 1.258 . S
C691 O707 1.239 . S
C692 C691 1.498 . S
C692 C693 1.366 . S
C692 C697 1.407 . S
C693 C692 1.366 . S
C693 C694 1.392 . S
C693 H716 0.930 . S
C694 C693 1.392 . S
C694 C695 1.398 1_655 S
C694 H717 0.929 . S
C695 C694 1.398 1_455 S
C695 C696 1.352 . S
C696 C695 1.352 . S
C696 C697 1.384 1_455 S
C696 H718 0.930 . S
C697 C692 1.407 . S
C697 C696 1.384 1_655 S
C697 H719 0.929 . S
C698 O708 1.241 . S
C698 O709 1.273 . S
C699 O710 1.251 . S
C699 O711 1.268 . S
O700 Nd680 2.500 . S
O700 C682 1.258 . S
O701 Nd680 2.492 . S
O701 C682 1.239 . S
O702 Nd680 2.487 . S
O702 C689 1.241 . S
O703 Nd680 2.682 . S
O703 Nd681 2.414 . S
O703 C689 1.273 . S
O704 Nd680 2.410 . S
O704 C690 1.251 . S
O705 Nd681 2.424 . S
O705 C690 1.268 . S
O706 Nd681 2.500 . S
O706 C691 1.258 . S
O707 Nd681 2.492 . S
O707 C691 1.239 . S
O708 Nd681 2.487 . S
O708 C698 1.241 . S
O709 Nd680 2.414 . S
O709 Nd681 2.682 . S
O709 C698 1.273 . S
O710 Nd681 2.410 . S
O710 C699 1.251 . S
O711 Nd680 2.424 . S
O711 C699 1.268 . S
H712 C684 0.930 . S
H713 C685 0.929 . S
H714 C687 0.930 . S
H715 C688 0.929 . S
H716 C693 0.930 . S
H717 C694 0.929 . S
H718 C696 0.930 . S
H719 C697 0.929 . S
H720 C732 0.930 . S
H721 C734 0.930 . S
H722 C735 0.930 . S
H723 C739 0.959 . S
H724 C739 0.959 . S
H725 C739 0.961 . S
H726 C740 0.960 . S
H727 C740 0.961 . S
H728 C740 0.959 . S
H729 C743 0.929 . S
H730 C744 0.931 . S
H731 C746 0.930 . S
C732 H720 0.930 . S
C732 C733 1.399 . S
C732 C737 1.399 . S
C733 C732 1.399 . S
C733 C734 1.376 . S
C734 H721 0.930 . S
C734 C733 1.376 . S
C734 C735 1.388 . S
C735 H722 0.930 . S
C735 C734 1.388 . S
C735 C736 1.390 . S
C736 C735 1.390 . S
C736 C737 1.394 . S
C736 C742 1.465 . S
C737 C732 1.399 . S
C737 C736 1.394 . S
C737 C738 1.516 . S
C738 C737 1.516 . S
C738 C739 1.502 . S
C738 C740 1.561 . S
C738 C741 1.526 . S
C739 H723 0.959 . S
C739 H724 0.959 . S
C739 H725 0.961 . S
C739 C738 1.502 . S
C740 H726 0.960 . S
C740 H727 0.961 . S
C740 H728 0.959 . S
C740 C738 1.561 . S
C741 C738 1.526 . S
C741 C742 1.396 . S
C741 C746 1.390 . S
C742 C736 1.465 . S
C742 C741 1.396 . S
C742 C743 1.399 . S
C743 H729 0.929 . S
C743 C742 1.399 . S
C743 C744 1.385 . S
C744 H730 0.931 . S
C744 C743 1.385 . S
C744 C745 1.389 . S
C745 C744 1.389 . S
C745 C746 1.387 . S
C746 H731 0.930 . S
C746 C741 1.390 . S
C746 C745 1.387 . S
H747 C759 0.930 . S
H748 C761 0.930 . S
H749 C762 0.930 . S
H750 C766 0.959 . S
H751 C766 0.959 . S
H752 C766 0.961 . S
H753 C767 0.960 . S
H754 C767 0.961 . S
H755 C767 0.959 . S
H756 C770 0.929 . S
H757 C771 0.931 . S
H758 C773 0.930 . S
C759 H747 0.930 . S
C759 C760 1.399 . S
C759 C764 1.399 . S
C760 C759 1.399 . S
C760 C761 1.376 . S
C761 H748 0.930 . S
C761 C760 1.376 . S
C761 C762 1.388 . S
C762 H749 0.930 . S
C762 C761 1.388 . S
C762 C763 1.390 . S
C763 C762 1.390 . S
C763 C764 1.394 . S
C763 C769 1.465 . S
C764 C759 1.399 . S
C764 C763 1.394 . S
C764 C765 1.516 . S
C765 C764 1.516 . S
C765 C766 1.502 . S
C765 C767 1.561 . S
C765 C768 1.526 . S
C766 H750 0.959 . S
C766 H751 0.959 . S
C766 H752 0.961 . S
C766 C765 1.502 . S
C767 H753 0.960 . S
C767 H754 0.961 . S
C767 H755 0.959 . S
C767 C765 1.561 . S
C768 C765 1.526 . S
C768 C769 1.396 . S
C768 C773 1.390 . S
C769 C763 1.465 . S
C769 C768 1.396 . S
C769 C770 1.399 . S
C770 H756 0.929 . S
C770 C769 1.399 . S
C770 C771 1.385 . S
C771 H757 0.931 . S
C771 C770 1.385 . S
C771 C772 1.389 . S
C772 C771 1.389 . S
C772 C773 1.387 . S
C773 H758 0.930 . S
C773 C768 1.390 . S
C773 C772 1.387 . S
H774 C786 0.930 . S
H775 C788 0.930 . S
H776 C789 0.930 . S
H777 C793 0.959 . S
H778 C793 0.959 . S
H779 C793 0.961 . S
H780 C794 0.960 . S
H781 C794 0.961 . S
H782 C794 0.959 . S
H783 C797 0.929 . S
H784 C798 0.931 . S
H785 C800 0.930 . S
C786 H774 0.930 . S
C786 C787 1.399 . S
C786 C791 1.399 . S
C787 C786 1.399 . S
C787 C788 1.376 . S
C788 H775 0.930 . S
C788 C787 1.376 . S
C788 C789 1.388 . S
C789 H776 0.930 . S
C789 C788 1.388 . S
C789 C790 1.390 . S
C790 C789 1.390 . S
C790 C791 1.394 . S
C790 C796 1.465 . S
C791 C786 1.399 . S
C791 C790 1.394 . S
C791 C792 1.516 . S
C792 C791 1.516 . S
C792 C793 1.502 . S
C792 C794 1.561 . S
C792 C795 1.526 . S
C793 H777 0.959 . S
C793 H778 0.959 . S
C793 H779 0.961 . S
C793 C792 1.502 . S
C794 H780 0.960 . S
C794 H781 0.961 . S
C794 H782 0.959 . S
C794 C792 1.561 . S
C795 C792 1.526 . S
C795 C796 1.396 . S
C795 C800 1.390 . S
C796 C790 1.465 . S
C796 C795 1.396 . S
C796 C797 1.399 . S
C797 H783 0.929 . S
C797 C796 1.399 . S
C797 C798 1.385 . S
C798 H784 0.931 . S
C798 C797 1.385 . S
C798 C799 1.389 . S
C799 C798 1.389 . S
C799 C800 1.387 . S
C800 H785 0.930 . S
C800 C795 1.390 . S
C800 C799 1.387 . S
H801 C813 0.930 . S
H802 C815 0.930 . S
H803 C816 0.930 . S
H804 C820 0.959 . S
H805 C820 0.959 . S
H806 C820 0.961 . S
H807 C821 0.960 . S
H808 C821 0.961 . S
H809 C821 0.959 . S
H810 C824 0.929 . S
H811 C825 0.931 . S
H812 C827 0.930 . S
C813 H801 0.930 . S
C813 C814 1.399 . S
C813 C818 1.399 . S
C814 C813 1.399 . S
C814 C815 1.376 . S
C815 H802 0.930 . S
C815 C814 1.376 . S
C815 C816 1.388 . S
C816 H803 0.930 . S
C816 C815 1.388 . S
C816 C817 1.390 . S
C817 C816 1.390 . S
C817 C818 1.394 . S
C817 C823 1.465 . S
C818 C813 1.399 . S
C818 C817 1.394 . S
C818 C819 1.516 . S
C819 C818 1.516 . S
C819 C820 1.502 . S
C819 C821 1.561 . S
C819 C822 1.526 . S
C820 H804 0.959 . S
C820 H805 0.959 . S
C820 H806 0.961 . S
C820 C819 1.502 . S
C821 H807 0.960 . S
C821 H808 0.961 . S
C821 H809 0.959 . S
C821 C819 1.561 . S
C822 C819 1.526 . S
C822 C823 1.396 . S
C822 C827 1.390 . S
C823 C817 1.465 . S
C823 C822 1.396 . S
C823 C824 1.399 . S
C824 H810 0.929 . S
C824 C823 1.399 . S
C824 C825 1.385 . S
C825 H811 0.931 . S
C825 C824 1.385 . S
C825 C826 1.389 . S
C826 C825 1.389 . S
C826 C827 1.387 . S
C827 H812 0.930 . S
C827 C822 1.390 . S
C827 C826 1.387 . S
H828 C840 0.930 . S
H829 C842 0.930 . S
H830 C843 0.930 . S
H831 C847 0.959 . S
H832 C847 0.959 . S
H833 C847 0.961 . S
H834 C848 0.960 . S
H835 C848 0.961 . S
H836 C848 0.959 . S
H837 C851 0.929 . S
H838 C852 0.931 . S
H839 C854 0.930 . S
C840 H828 0.930 . S
C840 C841 1.399 . S
C840 C845 1.399 . S
C841 C840 1.399 . S
C841 C842 1.376 . S
C842 H829 0.930 . S
C842 C841 1.376 . S
C842 C843 1.388 . S
C843 H830 0.930 . S
C843 C842 1.388 . S
C843 C844 1.390 . S
C844 C843 1.390 . S
C844 C845 1.394 . S
C844 C850 1.465 . S
C845 C840 1.399 . S
C845 C844 1.394 . S
C845 C846 1.516 . S
C846 C845 1.516 . S
C846 C847 1.502 . S
C846 C848 1.561 . S
C846 C849 1.526 . S
C847 H831 0.959 . S
C847 H832 0.959 . S
C847 H833 0.961 . S
C847 C846 1.502 . S
C848 H834 0.960 . S
C848 H835 0.961 . S
C848 H836 0.959 . S
C848 C846 1.561 . S
C849 C846 1.526 . S
C849 C850 1.396 . S
C849 C854 1.390 . S
C850 C844 1.465 . S
C850 C849 1.396 . S
C850 C851 1.399 . S
C851 H837 0.929 . S
C851 C850 1.399 . S
C851 C852 1.385 . S
C852 H838 0.931 . S
C852 C851 1.385 . S
C852 C853 1.389 . S
C853 C852 1.389 . S
C853 C854 1.387 . S
C854 H839 0.930 . S
C854 C849 1.390 . S
C854 C853 1.387 . S
H855 C867 0.930 . S
H856 C869 0.930 . S
H857 C870 0.930 . S
H858 C874 0.959 . S
H859 C874 0.959 . S
H860 C874 0.961 . S
H861 C875 0.960 . S
H862 C875 0.961 . S
H863 C875 0.959 . S
H864 C878 0.929 . S
H865 C879 0.931 . S
H866 C881 0.930 . S
C867 H855 0.930 . S
C867 C868 1.399 . S
C867 C872 1.399 . S
C868 C867 1.399 . S
C868 C869 1.376 . S
C869 H856 0.930 . S
C869 C868 1.376 . S
C869 C870 1.388 . S
C870 H857 0.930 . S
C870 C869 1.388 . S
C870 C871 1.390 . S
C871 C870 1.390 . S
C871 C872 1.394 . S
C871 C877 1.465 . S
C872 C867 1.399 . S
C872 C871 1.394 . S
C872 C873 1.516 . S
C873 C872 1.516 . S
C873 C874 1.502 . S
C873 C875 1.561 . S
C873 C876 1.526 . S
C874 H858 0.959 . S
C874 H859 0.959 . S
C874 H860 0.961 . S
C874 C873 1.502 . S
C875 H861 0.960 . S
C875 H862 0.961 . S
C875 H863 0.959 . S
C875 C873 1.561 . S
C876 C873 1.526 . S
C876 C877 1.396 . S
C876 C881 1.390 . S
C877 C871 1.465 . S
C877 C876 1.396 . S
C877 C878 1.399 . S
C878 H864 0.929 . S
C878 C877 1.399 . S
C878 C879 1.385 . S
C879 H865 0.931 . S
C879 C878 1.385 . S
C879 C880 1.389 . S
C880 C879 1.389 . S
C880 C881 1.387 . S
C881 H866 0.930 . S
C881 C876 1.390 . S
C881 C880 1.387 . S
H882 C894 0.930 . S
H883 C896 0.930 . S
H884 C897 0.930 . S
H885 C901 0.958 1_565 S
H886 C901 0.959 . S
H887 C901 0.929 1_565 S
H888 C902 0.960 . S
H889 C902 0.961 . S
H890 C902 0.959 . S
H891 C905 0.929 . S
H892 C906 0.931 . S
H893 C908 0.930 . S
C894 H882 0.930 . S
C894 C895 1.399 . S
C894 C899 1.399 1_565 S
C895 C894 1.399 . S
C895 C896 1.376 . S
C896 H883 0.930 . S
C896 C895 1.376 . S
C896 C897 1.388 1_565 S
C897 H884 0.930 . S
C897 C896 1.388 1_545 S
C897 C898 1.390 . S
C898 C897 1.390 . S
C898 C899 1.394 . S
C898 C904 1.465 . S
C899 C894 1.399 1_545 S
C899 C898 1.394 . S
C899 C900 1.516 . S
C900 C899 1.516 . S
C900 C901 1.502 . S
C900 C902 1.561 . S
C900 C903 1.526 . S
C901 H885 0.958 1_545 S
C901 H886 0.959 . S
C901 H887 0.929 1_545 S
C901 C900 1.502 . S
C902 H888 0.960 . S
C902 H889 0.961 . S
C902 H890 0.959 . S
C902 C900 1.561 . S
C903 C900 1.526 . S
C903 C904 1.396 . S
C903 C908 1.390 . S
C904 C898 1.465 . S
C904 C903 1.396 . S
C904 C905 1.399 . S
C905 H891 0.929 . S
C905 C904 1.399 . S
C905 C906 1.385 . S
C906 H892 0.931 . S
C906 C905 1.385 . S
C906 C907 1.389 . S
C907 C906 1.389 . S
C907 C908 1.387 . S
C908 H893 0.930 . S
C908 C903 1.390 . S
C908 C907 1.387 . S
H909 C921 0.930 . S
H910 C923 0.930 . S
H911 C924 0.931 1_655 S
H912 C928 0.959 . S
H913 C928 0.959 . S
H914 C928 0.961 . S
H915 C929 0.960 1_455 S
H916 C929 0.961 . S
H917 C929 0.959 . S
H918 C932 0.929 . S
H919 C933 0.931 . S
H920 C935 0.930 . S
C921 H909 0.930 . S
C921 C922 1.399 . S
C921 C926 1.399 . S
C922 C921 1.399 . S
C922 C923 1.376 . S
C923 H910 0.930 . S
C923 C922 1.376 . S
C923 C924 1.388 . S
C924 H911 0.931 1_455 S
C924 C923 1.388 . S
C924 C925 1.390 . S
C925 C924 1.390 . S
C925 C926 1.394 . S
C925 C931 1.465 1_455 S
C926 C921 1.399 . S
C926 C925 1.394 . S
C926 C927 1.516 . S
C927 C926 1.516 . S
C927 C928 1.502 . S
C927 C929 1.561 1_455 S
C927 C930 1.526 1_455 S
C928 H912 0.959 . S
C928 H913 0.959 . S
C928 H914 0.961 . S
C928 C927 1.502 . S
C929 H915 0.960 1_655 S
C929 H916 0.961 . S
C929 H917 0.959 . S
C929 C927 1.561 1_655 S
C930 C927 1.526 1_655 S
C930 C931 1.396 . S
C930 C935 1.390 . S
C931 C925 1.465 1_655 S
C931 C930 1.396 . S
C931 C932 1.399 . S
C932 H918 0.929 . S
C932 C931 1.399 . S
C932 C933 1.385 . S
C933 H919 0.931 . S
C933 C932 1.385 . S
C933 C934 1.389 . S
C934 C933 1.389 . S
C934 C935 1.387 . S
C935 H920 0.930 . S
C935 C930 1.390 . S
C935 C934 1.387 . S
H936 C948 0.930 . S
H937 C950 0.930 . S
H938 C951 0.930 . S
H939 C955 0.959 . S
H940 C955 0.959 . S
H941 C955 0.961 . S
H942 C956 0.960 . S
H943 C956 0.961 . S
H944 C956 0.959 . S
H945 C959 0.929 . S
H946 C960 0.931 . S
H947 C962 0.930 . S
C948 H936 0.930 . S
C948 C949 1.399 . S
C948 C953 1.399 . S
C949 C948 1.399 . S
C949 C950 1.376 . S
C950 H937 0.930 . S
C950 C949 1.376 . S
C950 C951 1.388 . S
C951 H938 0.930 . S
C951 C950 1.388 . S
C951 C952 1.390 . S
C952 C951 1.390 . S
C952 C953 1.394 . S
C952 C958 1.465 . S
C953 C948 1.399 . S
C953 C952 1.394 . S
C953 C954 1.516 . S
C954 C953 1.516 . S
C954 C955 1.502 . S
C954 C956 1.561 . S
C954 C957 1.526 . S
C955 H939 0.959 . S
C955 H940 0.959 . S
C955 H941 0.961 . S
C955 C954 1.502 . S
C956 H942 0.960 . S
C956 H943 0.961 . S
C956 H944 0.959 . S
C956 C954 1.561 . S
C957 C954 1.526 . S
C957 C958 1.396 . S
C957 C962 1.390 . S
C958 C952 1.465 . S
C958 C957 1.396 . S
C958 C959 1.399 . S
C959 H945 0.929 . S
C959 C958 1.399 . S
C959 C960 1.385 . S
C960 H946 0.931 . S
C960 C959 1.385 . S
C960 C961 1.389 . S
C961 C960 1.389 . S
C961 C962 1.387 . S
C962 H947 0.930 . S
C962 C957 1.390 . S
C962 C961 1.387 . S
H963 C975 0.930 . S
H964 C977 0.930 . S
H965 C978 0.930 . S
H966 C982 0.959 . S
H967 C982 0.959 . S
H968 C982 0.961 . S
H969 C983 0.960 . S
H970 C983 0.961 . S
H971 C983 0.959 . S
H972 C986 0.929 . S
H973 C987 0.931 . S
H974 C989 0.930 . S
C975 H963 0.930 . S
C975 C976 1.399 . S
C975 C980 1.399 . S
C976 C975 1.399 . S
C976 C977 1.376 . S
C977 H964 0.930 . S
C977 C976 1.376 . S
C977 C978 1.388 . S
C978 H965 0.930 . S
C978 C977 1.388 . S
C978 C979 1.390 . S
C979 C978 1.390 . S
C979 C980 1.394 . S
C979 C985 1.465 . S
C980 C975 1.399 . S
C980 C979 1.394 . S
C980 C981 1.516 . S
C981 C980 1.516 . S
C981 C982 1.502 . S
C981 C983 1.561 . S
C981 C984 1.526 . S
C982 H966 0.959 . S
C982 H967 0.959 . S
C982 H968 0.961 . S
C982 C981 1.502 . S
C983 H969 0.960 . S
C983 H970 0.961 . S
C983 H971 0.959 . S
C983 C981 1.561 . S
C984 C981 1.526 . S
C984 C985 1.396 . S
C984 C989 1.390 . S
C985 C979 1.465 . S
C985 C984 1.396 . S
C985 C986 1.399 . S
C986 H972 0.929 . S
C986 C985 1.399 . S
C986 C987 1.385 . S
C987 H973 0.931 . S
C987 C986 1.385 . S
C987 C988 1.389 . S
C988 C987 1.389 . S
C988 C989 1.387 . S
C989 H974 0.930 . S
C989 C984 1.390 . S
C989 C988 1.387 . S
H990 C1002 0.930 . S
H991 C1004 0.930 . S
H992 C1005 0.930 . S
H993 C1009 0.959 . S
H994 C1009 0.959 . S
H995 C1009 0.961 . S
H996 C1010 0.960 . S
H997 C1010 0.961 . S
H998 C1010 0.959 . S
H999 C1013 0.929 . S
H1000 C1014 0.931 . S
H1001 C1016 0.930 . S
C1002 H990 0.930 . S
C1002 C1003 1.399 . S
C1002 C1007 1.399 . S
C1003 C1002 1.399 . S
C1003 C1004 1.376 . S
C1004 H991 0.930 . S
C1004 C1003 1.376 . S
C1004 C1005 1.388 . S
C1005 H992 0.930 . S
C1005 C1004 1.388 . S
C1005 C1006 1.390 . S
C1006 C1005 1.390 . S
C1006 C1007 1.394 . S
C1006 C1012 1.465 . S
C1007 C1002 1.399 . S
C1007 C1006 1.394 . S
C1007 C1008 1.516 . S
C1008 C1007 1.516 . S
C1008 C1009 1.502 . S
C1008 C1010 1.561 . S
C1008 C1011 1.526 . S
C1009 H993 0.959 . S
C1009 H994 0.959 . S
C1009 H995 0.961 . S
C1009 C1008 1.502 . S
C1010 H996 0.960 . S
C1010 H997 0.961 . S
C1010 H998 0.959 . S
C1010 C1008 1.561 . S
C1011 C1008 1.526 . S
C1011 C1012 1.396 . S
C1011 C1016 1.390 . S
C1012 C1006 1.465 . S
C1012 C1011 1.396 . S
C1012 C1013 1.399 . S
C1013 H999 0.929 . S
C1013 C1012 1.399 . S
C1013 C1014 1.385 . S
C1014 H1000 0.931 . S
C1014 C1013 1.385 . S
C1014 C1015 1.389 . S
C1015 C1014 1.389 . S
C1015 C1016 1.387 . S
C1016 H1001 0.930 . S
C1016 C1011 1.390 . S
C1016 C1015 1.387 . S
H1017 C1029 0.930 . S
H1018 C1031 0.930 . S
H1019 C1032 0.930 . S
H1020 C1036 0.959 . S
H1021 C1036 0.959 . S
H1022 C1036 0.961 . S
H1023 C1037 0.960 . S
H1024 C1037 0.961 . S
H1025 C1037 0.959 . S
H1026 C1040 0.929 . S
H1027 C1041 0.931 . S
H1028 C1043 0.930 . S
C1029 H1017 0.930 . S
C1029 C1030 1.399 . S
C1029 C1034 1.399 . S
C1030 C1029 1.399 . S
C1030 C1031 1.376 . S
C1031 H1018 0.930 . S
C1031 C1030 1.376 . S
C1031 C1032 1.388 . S
C1032 H1019 0.930 . S
C1032 C1031 1.388 . S
C1032 C1033 1.390 . S
C1033 C1032 1.390 . S
C1033 C1034 1.394 . S
C1033 C1039 1.465 . S
C1034 C1029 1.399 . S
C1034 C1033 1.394 . S
C1034 C1035 1.516 . S
C1035 C1034 1.516 . S
C1035 C1036 1.502 . S
C1035 C1037 1.561 . S
C1035 C1038 1.526 . S
C1036 H1020 0.959 . S
C1036 H1021 0.959 . S
C1036 H1022 0.961 . S
C1036 C1035 1.502 . S
C1037 H1023 0.960 . S
C1037 H1024 0.961 . S
C1037 H1025 0.959 . S
C1037 C1035 1.561 . S
C1038 C1035 1.526 . S
C1038 C1039 1.396 . S
C1038 C1043 1.390 . S
C1039 C1033 1.465 . S
C1039 C1038 1.396 . S
C1039 C1040 1.399 . S
C1040 H1026 0.929 . S
C1040 C1039 1.399 . S
C1040 C1041 1.385 . S
C1041 H1027 0.931 . S
C1041 C1040 1.385 . S
C1041 C1042 1.389 . S
C1042 C1041 1.389 . S
C1042 C1043 1.387 . S
C1043 H1028 0.930 . S
C1043 C1038 1.390 . S
C1043 C1042 1.387 . S
H1044 C1056 0.930 . S
H1045 C1058 0.930 . S
H1046 C1059 0.930 . S
H1047 C1063 0.959 . S
H1048 C1063 0.959 . S
H1049 C1063 0.961 . S
H1050 C1064 0.960 . S
H1051 C1064 0.961 . S
H1052 C1064 0.959 . S
H1053 C1067 0.929 . S
H1054 C1068 0.931 . S
H1055 C1070 0.930 . S
C1056 H1044 0.930 . S
C1056 C1057 1.399 . S
C1056 C1061 1.399 . S
C1057 C1056 1.399 . S
C1057 C1058 1.376 . S
C1058 H1045 0.930 . S
C1058 C1057 1.376 . S
C1058 C1059 1.388 . S
C1059 H1046 0.930 . S
C1059 C1058 1.388 . S
C1059 C1060 1.390 . S
C1060 C1059 1.390 . S
C1060 C1061 1.394 . S
C1060 C1066 1.465 . S
C1061 C1056 1.399 . S
C1061 C1060 1.394 . S
C1061 C1062 1.516 . S
C1062 C1061 1.516 . S
C1062 C1063 1.502 . S
C1062 C1064 1.561 . S
C1062 C1065 1.526 . S
C1063 H1047 0.959 . S
C1063 H1048 0.959 . S
C1063 H1049 0.961 . S
C1063 C1062 1.502 . S
C1064 H1050 0.960 . S
C1064 H1051 0.961 . S
C1064 H1052 0.959 . S
C1064 C1062 1.561 . S
C1065 C1062 1.526 . S
C1065 C1066 1.396 . S
C1065 C1070 1.390 . S
C1066 C1060 1.465 . S
C1066 C1065 1.396 . S
C1066 C1067 1.399 . S
C1067 H1053 0.929 . S
C1067 C1066 1.399 . S
C1067 C1068 1.385 . S
C1068 H1054 0.931 . S
C1068 C1067 1.385 . S
C1068 C1069 1.389 . S
C1069 C1068 1.389 . S
C1069 C1070 1.387 . S
C1070 H1055 0.930 . S
C1070 C1065 1.390 . S
C1070 C1069 1.387 . S
H1071 C1083 0.930 . S
H1072 C1085 0.930 . S
H1073 C1086 0.930 . S
H1074 C1090 0.959 . S
H1075 C1090 0.959 . S
H1076 C1090 0.961 . S
H1077 C1091 0.960 . S
H1078 C1091 0.961 . S
H1079 C1091 0.959 . S
H1080 C1094 0.929 . S
H1081 C1095 0.931 . S
H1082 C1097 0.930 . S
C1083 H1071 0.930 . S
C1083 C1084 1.399 . S
C1083 C1088 1.399 . S
C1084 C1083 1.399 . S
C1084 C1085 1.376 . S
C1085 H1072 0.930 . S
C1085 C1084 1.376 . S
C1085 C1086 1.388 . S
C1086 H1073 0.930 . S
C1086 C1085 1.388 . S
C1086 C1087 1.390 . S
C1087 C1086 1.390 . S
C1087 C1088 1.394 . S
C1087 C1093 1.465 . S
C1088 C1083 1.399 . S
C1088 C1087 1.394 . S
C1088 C1089 1.516 . S
C1089 C1088 1.516 . S
C1089 C1090 1.502 . S
C1089 C1091 1.561 . S
C1089 C1092 1.526 . S
C1090 H1074 0.959 . S
C1090 H1075 0.959 . S
C1090 H1076 0.961 . S
C1090 C1089 1.502 . S
C1091 H1077 0.960 . S
C1091 H1078 0.961 . S
C1091 H1079 0.959 . S
C1091 C1089 1.561 . S
C1092 C1089 1.526 . S
C1092 C1093 1.396 . S
C1092 C1097 1.390 . S
C1093 C1087 1.465 . S
C1093 C1092 1.396 . S
C1093 C1094 1.399 . S
C1094 H1080 0.929 . S
C1094 C1093 1.399 . S
C1094 C1095 1.385 . S
C1095 H1081 0.931 . S
C1095 C1094 1.385 . S
C1095 C1096 1.389 . S
C1096 C1095 1.389 . S
C1096 C1097 1.387 . S
C1097 H1082 0.930 . S
C1097 C1092 1.390 . S
C1097 C1096 1.387 . S
H1098 C1110 0.930 . S
H1099 C1112 0.930 . S
H1100 C1113 0.930 . S
H1101 C1117 0.959 . S
H1102 C1117 0.959 . S
H1103 C1117 0.961 . S
H1104 C1118 0.960 . S
H1105 C1118 0.961 . S
H1106 C1118 0.959 . S
H1107 C1121 0.929 . S
H1108 C1122 0.931 . S
H1109 C1124 0.930 . S
C1110 H1098 0.930 . S
C1110 C1111 1.399 . S
C1110 C1115 1.399 . S
C1111 C1110 1.399 . S
C1111 C1112 1.376 . S
C1112 H1099 0.930 . S
C1112 C1111 1.376 . S
C1112 C1113 1.388 . S
C1113 H1100 0.930 . S
C1113 C1112 1.388 . S
C1113 C1114 1.390 . S
C1114 C1113 1.390 . S
C1114 C1115 1.394 . S
C1114 C1120 1.465 . S
C1115 C1110 1.399 . S
C1115 C1114 1.394 . S
C1115 C1116 1.516 . S
C1116 C1115 1.516 . S
C1116 C1117 1.502 . S
C1116 C1118 1.561 . S
C1116 C1119 1.526 . S
C1117 H1101 0.959 . S
C1117 H1102 0.959 . S
C1117 H1103 0.961 . S
C1117 C1116 1.502 . S
C1118 H1104 0.960 . S
C1118 H1105 0.961 . S
C1118 H1106 0.959 . S
C1118 C1116 1.561 . S
C1119 C1116 1.526 . S
C1119 C1120 1.396 . S
C1119 C1124 1.390 . S
C1120 C1114 1.465 . S
C1120 C1119 1.396 . S
C1120 C1121 1.399 . S
C1121 H1107 0.929 . S
C1121 C1120 1.399 . S
C1121 C1122 1.385 . S
C1122 H1108 0.931 . S
C1122 C1121 1.385 . S
C1122 C1123 1.389 . S
C1123 C1122 1.389 . S
C1123 C1124 1.387 . S
C1124 H1109 0.930 . S
C1124 C1119 1.390 . S
C1124 C1123 1.387 . S
H1125 C1137 0.930 . S
H1126 C1139 0.930 . S
H1127 C1140 0.930 . S
H1128 C1144 0.959 1_655 S
H1129 C1144 0.959 . S
H1130 C1144 0.961 1_655 S
H1131 C1145 0.960 . S
H1132 C1145 0.961 . S
H1133 C1145 0.959 . S
H1134 C1148 0.929 . S
H1135 C1149 0.931 . S
H1136 C1151 0.930 . S
C1137 H1125 0.930 . S
C1137 C1138 1.399 . S
C1137 C1142 1.399 1_655 S
C1138 C1137 1.399 . S
C1138 C1139 1.376 . S
C1139 H1126 0.930 . S
C1139 C1138 1.376 . S
C1139 C1140 1.388 1_655 S
C1140 H1127 0.930 . S
C1140 C1139 1.388 1_455 S
C1140 C1141 1.390 . S
C1141 C1140 1.390 . S
C1141 C1142 1.394 . S
C1141 C1147 1.465 . S
C1142 C1137 1.399 1_455 S
C1142 C1141 1.394 . S
C1142 C1143 1.516 . S
C1143 C1142 1.516 . S
C1143 C1144 1.502 . S
C1143 C1145 1.561 . S
C1143 C1146 1.526 . S
C1144 H1128 0.959 1_455 S
C1144 H1129 0.959 . S
C1144 H1130 0.961 1_455 S
C1144 C1143 1.502 . S
C1145 H1131 0.960 . S
C1145 H1132 0.961 . S
C1145 H1133 0.959 . S
C1145 C1143 1.561 . S
C1146 C1143 1.526 . S
C1146 C1147 1.396 . S
C1146 C1151 1.390 . S
C1147 C1141 1.465 . S
C1147 C1146 1.396 . S
C1147 C1148 1.399 . S
C1148 H1134 0.929 . S
C1148 C1147 1.399 . S
C1148 C1149 1.385 . S
C1149 H1135 0.931 . S
C1149 C1148 1.385 . S
C1149 C1150 1.389 . S
C1150 C1149 1.389 . S
C1150 C1151 1.387 . S
C1151 H1136 0.930 . S
C1151 C1146 1.390 . S
C1151 C1150 1.387 . S
H1152 C1164 0.930 . S
H1153 C1166 0.930 . S
H1154 C1167 0.930 . S
H1155 C1171 0.959 . S
H1156 C1171 0.959 . S
H1157 C1171 0.961 . S
H1158 C1172 0.960 . S
H1159 C1172 0.961 . S
H1160 C1172 0.959 . S
H1161 C1175 0.929 . S
H1162 C1176 0.931 . S
H1163 C1178 0.930 . S
C1164 H1152 0.930 . S
C1164 C1165 1.399 . S
C1164 C1169 1.399 . S
C1165 C1164 1.399 . S
C1165 C1166 1.376 . S
C1166 H1153 0.930 . S
C1166 C1165 1.376 . S
C1166 C1167 1.388 . S
C1167 H1154 0.930 . S
C1167 C1166 1.388 . S
C1167 C1168 1.390 . S
C1168 C1167 1.390 . S
C1168 C1169 1.394 . S
C1168 C1174 1.465 . S
C1169 C1164 1.399 . S
C1169 C1168 1.394 . S
C1169 C1170 1.516 . S
C1170 C1169 1.516 . S
C1170 C1171 1.502 . S
C1170 C1172 1.561 . S
C1170 C1173 1.526 . S
C1171 H1155 0.959 . S
C1171 H1156 0.959 . S
C1171 H1157 0.961 . S
C1171 C1170 1.502 . S
C1172 H1158 0.960 . S
C1172 H1159 0.961 . S
C1172 H1160 0.959 . S
C1172 C1170 1.561 . S
C1173 C1170 1.526 . S
C1173 C1174 1.396 . S
C1173 C1178 1.390 . S
C1174 C1168 1.465 . S
C1174 C1173 1.396 . S
C1174 C1175 1.399 . S
C1175 H1161 0.929 . S
C1175 C1174 1.399 . S
C1175 C1176 1.385 . S
C1176 H1162 0.931 . S
C1176 C1175 1.385 . S
C1176 C1177 1.389 . S
C1177 C1176 1.389 . S
C1177 C1178 1.387 . S
C1178 H1163 0.930 . S
C1178 C1173 1.390 . S
C1178 C1177 1.387 . S
H1179 C1191 0.930 . S
H1180 C1193 0.930 . S
H1181 C1194 0.930 1_565 S
H1182 C1198 0.959 . S
H1183 C1198 0.959 . S
H1184 C1198 0.961 . S
H1185 C1199 0.960 1_545 S
H1186 C1199 0.961 . S
H1187 C1199 0.959 . S
H1188 C1202 0.929 . S
H1189 C1203 0.931 . S
H1190 C1205 0.930 . S
C1191 H1179 0.930 . S
C1191 C1192 1.399 . S
C1191 C1196 1.399 . S
C1192 C1191 1.399 . S
C1192 C1193 1.376 . S
C1193 H1180 0.930 . S
C1193 C1192 1.376 . S
C1193 C1194 1.388 . S
C1194 H1181 0.930 1_545 S
C1194 C1193 1.388 . S
C1194 C1195 1.390 . S
C1195 C1194 1.390 . S
C1195 C1196 1.394 . S
C1195 C1201 1.465 1_545 S
C1196 C1191 1.399 . S
C1196 C1195 1.394 . S
C1196 C1197 1.516 . S
C1197 C1196 1.516 . S
C1197 C1198 1.502 . S
C1197 C1199 1.561 1_545 S
C1197 C1200 1.526 1_545 S
C1198 H1182 0.959 . S
C1198 H1183 0.959 . S
C1198 H1184 0.961 . S
C1198 C1197 1.502 . S
C1199 H1185 0.960 1_565 S
C1199 H1186 0.961 . S
C1199 H1187 0.959 . S
C1199 C1197 1.561 1_565 S
C1200 C1197 1.526 1_565 S
C1200 C1201 1.396 . S
C1200 C1205 1.390 . S
C1201 C1195 1.465 1_565 S
C1201 C1200 1.396 . S
C1201 C1202 1.399 . S
C1202 H1188 0.929 . S
C1202 C1201 1.399 . S
C1202 C1203 1.385 . S
C1203 H1189 0.931 . S
C1203 C1202 1.385 . S
C1203 C1204 1.389 . S
C1204 C1203 1.389 . S
C1204 C1205 1.387 . S
C1205 H1190 0.930 . S
C1205 C1200 1.390 . S
C1205 C1204 1.387 . S
H1206 C1218 0.930 . S
H1207 C1220 0.930 . S
H1208 C1221 0.930 . S
H1209 C1225 0.954 1_556 S
H1210 C1225 0.949 1_556 S
H1211 C1225 0.972 . S
H1212 C1226 1.013 . S
H1213 C1226 0.916 1_556 S
H1214 C1226 0.955 1_556 S
H1215 C1229 0.929 . S
H1216 C1230 0.931 . S
H1217 C1232 0.930 . S
C1218 H1206 0.930 . S
C1218 C1219 1.399 1_565 S
C1218 C1223 1.399 . S
C1219 C1218 1.399 1_545 S
C1219 C1220 1.376 . S
C1220 H1207 0.930 . S
C1220 C1219 1.376 . S
C1220 C1221 1.388 . S
C1221 H1208 0.930 . S
C1221 C1220 1.388 . S
C1221 C1222 1.390 . S
C1222 C1221 1.390 . S
C1222 C1223 1.393 1_545 S
C1222 C1228 1.465 1_554 S
C1223 C1218 1.399 . S
C1223 C1222 1.393 1_565 S
C1223 C1224 1.539 . S
C1224 C1223 1.539 . S
C1224 C1225 1.502 . S
C1224 C1226 1.561 . S
C1224 C1227 1.503 1_554 S
C1225 H1209 0.954 1_554 S
C1225 H1210 0.949 1_554 S
C1225 H1211 0.972 . S
C1225 C1224 1.502 . S
C1226 H1212 1.013 . S
C1226 H1213 0.916 1_554 S
C1226 H1214 0.955 1_554 S
C1226 C1224 1.561 . S
C1227 C1224 1.503 1_556 S
C1227 C1228 1.396 1_565 S
C1227 C1232 1.390 . S
C1228 C1222 1.465 1_556 S
C1228 C1227 1.396 1_545 S
C1228 C1229 1.399 . S
C1229 H1215 0.929 . S
C1229 C1228 1.399 . S
C1229 C1230 1.385 . S
C1230 H1216 0.931 . S
C1230 C1229 1.385 . S
C1230 C1231 1.389 . S
C1231 C1230 1.389 . S
C1231 C1232 1.387 1_545 S
C1232 H1217 0.930 . S
C1232 C1227 1.390 . S
C1232 C1231 1.387 1_565 S
H1233 C1245 0.930 . S
H1234 C1247 0.930 . S
H1235 C1248 0.930 . S
H1236 C1252 0.957 1_554 S
H1237 C1252 0.932 1_554 S
H1238 C1252 0.991 . S
H1239 C1253 0.968 . S
H1240 C1253 0.954 1_554 S
H1241 C1253 0.958 1_454 S
H1242 C1256 0.929 . S
H1243 C1257 0.931 . S
H1244 C1259 0.930 . S
C1245 H1233 0.930 . S
C1245 C1246 1.399 1_655 S
C1245 C1250 1.399 1_655 S
C1246 C1245 1.399 1_455 S
C1246 C1247 1.376 . S
C1247 H1234 0.930 . S
C1247 C1246 1.376 . S
C1247 C1248 1.388 . S
C1248 H1235 0.930 . S
C1248 C1247 1.388 . S
C1248 C1249 1.390 . S
C1249 C1248 1.390 . S
C1249 C1250 1.394 . S
C1249 C1255 1.465 1_556 S
C1250 C1245 1.399 1_455 S
C1250 C1249 1.394 . S
C1250 C1251 1.532 1_455 S
C1251 C1250 1.532 1_655 S
C1251 C1252 1.502 . S
C1251 C1253 1.561 . S
C1251 C1254 1.510 1_656 S
C1252 H1236 0.957 1_556 S
C1252 H1237 0.932 1_556 S
C1252 H1238 0.991 . S
C1252 C1251 1.502 . S
C1253 H1239 0.968 . S
C1253 H1240 0.954 1_556 S
C1253 H1241 0.958 1_656 S
C1253 C1251 1.561 . S
C1254 C1251 1.510 1_454 S
C1254 C1255 1.396 . S
C1254 C1259 1.390 1_455 S
C1255 C1249 1.465 1_554 S
C1255 C1254 1.396 . S
C1255 C1256 1.399 . S
C1256 H1242 0.929 . S
C1256 C1255 1.399 . S
C1256 C1257 1.385 . S
C1257 H1243 0.931 . S
C1257 C1256 1.385 . S
C1257 C1258 1.389 . S
C1258 C1257 1.389 . S
C1258 C1259 1.387 1_455 S
C1259 H1244 0.930 . S
C1259 C1254 1.390 1_655 S
C1259 C1258 1.387 1_655 S
H1260 C1272 0.930 . S
H1261 C1274 0.930 . S
H1262 C1275 0.930 . S
H1263 C1279 0.958 . S
H1264 C1279 0.965 . S
H1265 C1279 0.955 1_556 S
H1266 C1280 0.917 1_556 S
H1267 C1280 1.001 . S
H1268 C1280 0.965 . S
H1269 C1283 0.929 . S
H1270 C1284 0.931 . S
H1271 C1286 0.930 . S
C1272 H1260 0.930 . S
C1272 C1273 1.399 . S
C1272 C1277 1.399 . S
C1273 C1272 1.399 . S
C1273 C1274 1.376 . S
C1274 H1261 0.930 . S
C1274 C1273 1.376 . S
C1274 C1275 1.388 . S
C1275 H1262 0.930 . S
C1275 C1274 1.388 . S
C1275 C1276 1.390 . S
C1276 C1275 1.390 . S
C1276 C1277 1.394 . S
C1276 C1282 1.465 1_556 S
C1277 C1272 1.399 . S
C1277 C1276 1.394 . S
C1277 C1278 1.511 1_556 S
C1278 C1277 1.511 1_554 S
C1278 C1279 1.502 . S
C1278 C1280 1.561 . S
C1278 C1281 1.531 . S
C1279 H1263 0.958 . S
C1279 H1264 0.965 . S
C1279 H1265 0.955 1_554 S
C1279 C1278 1.502 . S
C1280 H1266 0.917 1_554 S
C1280 H1267 1.001 . S
C1280 H1268 0.965 . S
C1280 C1278 1.561 . S
C1281 C1278 1.531 . S
C1281 C1282 1.396 . S
C1281 C1286 1.390 . S
C1282 C1276 1.465 1_554 S
C1282 C1281 1.396 . S
C1282 C1283 1.399 . S
C1283 H1269 0.929 . S
C1283 C1282 1.399 . S
C1283 C1284 1.385 . S
C1284 H1270 0.931 . S
C1284 C1283 1.385 . S
C1284 C1285 1.389 . S
C1285 C1284 1.389 . S
C1285 C1286 1.387 . S
C1286 H1271 0.930 . S
C1286 C1281 1.390 . S
C1286 C1285 1.387 . S
H1287 C1299 0.930 . S
H1288 C1301 0.930 . S
H1289 C1302 0.930 . S
H1290 C1306 0.959 . S
H1291 C1306 0.959 . S
H1292 C1306 0.961 . S
H1293 C1307 0.960 . S
H1294 C1307 0.961 . S
H1295 C1307 0.959 . S
H1296 C1310 0.929 . S
H1297 C1311 0.931 . S
H1298 C1313 0.930 . S
C1299 H1287 0.930 . S
C1299 C1300 1.399 . S
C1299 C1304 1.399 . S
C1300 C1299 1.399 . S
C1300 C1301 1.376 . S
C1301 H1288 0.930 . S
C1301 C1300 1.376 . S
C1301 C1302 1.388 . S
C1302 H1289 0.930 . S
C1302 C1301 1.388 . S
C1302 C1303 1.390 . S
C1303 C1302 1.390 . S
C1303 C1304 1.394 . S
C1303 C1309 1.465 . S
C1304 C1299 1.399 . S
C1304 C1303 1.394 . S
C1304 C1305 1.516 . S
C1305 C1304 1.516 . S
C1305 C1306 1.502 . S
C1305 C1307 1.561 . S
C1305 C1308 1.526 . S
C1306 H1290 0.959 . S
C1306 H1291 0.959 . S
C1306 H1292 0.961 . S
C1306 C1305 1.502 . S
C1307 H1293 0.960 . S
C1307 H1294 0.961 . S
C1307 H1295 0.959 . S
C1307 C1305 1.561 . S
C1308 C1305 1.526 . S
C1308 C1309 1.396 . S
C1308 C1313 1.390 . S
C1309 C1303 1.465 . S
C1309 C1308 1.396 . S
C1309 C1310 1.399 . S
C1310 H1296 0.929 . S
C1310 C1309 1.399 . S
C1310 C1311 1.385 . S
C1311 H1297 0.931 . S
C1311 C1310 1.385 . S
C1311 C1312 1.389 . S
C1312 C1311 1.389 . S
C1312 C1313 1.387 . S
C1313 H1298 0.930 . S
C1313 C1308 1.390 . S
C1313 C1312 1.387 . S
H1314 C1326 0.930 . S
H1315 C1328 0.930 . S
H1316 C1329 0.930 . S
H1317 C1333 0.959 . S
H1318 C1333 0.959 . S
H1319 C1333 0.961 . S
H1320 C1334 0.960 . S
H1321 C1334 0.961 . S
H1322 C1334 0.959 . S
H1323 C1337 0.929 . S
H1324 C1338 0.931 . S
H1325 C1340 0.930 . S
C1326 H1314 0.930 . S
C1326 C1327 1.399 . S
C1326 C1331 1.399 . S
C1327 C1326 1.399 . S
C1327 C1328 1.376 . S
C1328 H1315 0.930 . S
C1328 C1327 1.376 . S
C1328 C1329 1.388 . S
C1329 H1316 0.930 . S
C1329 C1328 1.388 . S
C1329 C1330 1.390 . S
C1330 C1329 1.390 . S
C1330 C1331 1.394 . S
C1330 C1336 1.465 . S
C1331 C1326 1.399 . S
C1331 C1330 1.394 . S
C1331 C1332 1.516 . S
C1332 C1331 1.516 . S
C1332 C1333 1.502 . S
C1332 C1334 1.561 . S
C1332 C1335 1.526 . S
C1333 H1317 0.959 . S
C1333 H1318 0.959 . S
C1333 H1319 0.961 . S
C1333 C1332 1.502 . S
C1334 H1320 0.960 . S
C1334 H1321 0.961 . S
C1334 H1322 0.959 . S
C1334 C1332 1.561 . S
C1335 C1332 1.526 . S
C1335 C1336 1.396 . S
C1335 C1340 1.390 . S
C1336 C1330 1.465 . S
C1336 C1335 1.396 . S
C1336 C1337 1.399 . S
C1337 H1323 0.929 . S
C1337 C1336 1.399 . S
C1337 C1338 1.385 . S
C1338 H1324 0.931 . S
C1338 C1337 1.385 . S
C1338 C1339 1.389 . S
C1339 C1338 1.389 . S
C1339 C1340 1.387 . S
C1340 H1325 0.930 . S
C1340 C1335 1.390 . S
C1340 C1339 1.387 . S
H1341 C1353 0.930 . S
H1342 C1355 0.930 . S
H1343 C1356 0.930 . S
H1344 C1360 0.959 . S
H1345 C1360 0.959 . S
H1346 C1360 0.961 . S
H1347 C1361 0.960 . S
H1348 C1361 0.961 . S
H1349 C1361 0.959 . S
H1350 C1364 0.929 . S
H1351 C1365 0.931 . S
H1352 C1367 0.930 . S
C1353 H1341 0.930 . S
C1353 C1354 1.399 . S
C1353 C1358 1.399 . S
C1354 C1353 1.399 . S
C1354 C1355 1.376 . S
C1355 H1342 0.930 . S
C1355 C1354 1.376 . S
C1355 C1356 1.388 . S
C1356 H1343 0.930 . S
C1356 C1355 1.388 . S
C1356 C1357 1.390 . S
C1357 C1356 1.390 . S
C1357 C1358 1.394 . S
C1357 C1363 1.465 . S
C1358 C1353 1.399 . S
C1358 C1357 1.394 . S
C1358 C1359 1.516 . S
C1359 C1358 1.516 . S
C1359 C1360 1.502 . S
C1359 C1361 1.561 . S
C1359 C1362 1.526 . S
C1360 H1344 0.959 . S
C1360 H1345 0.959 . S
C1360 H1346 0.961 . S
C1360 C1359 1.502 . S
C1361 H1347 0.960 . S
C1361 H1348 0.961 . S
C1361 H1349 0.959 . S
C1361 C1359 1.561 . S
C1362 C1359 1.526 . S
C1362 C1363 1.396 . S
C1362 C1367 1.390 . S
C1363 C1357 1.465 . S
C1363 C1362 1.396 . S
C1363 C1364 1.399 . S
C1364 H1350 0.929 . S
C1364 C1363 1.399 . S
C1364 C1365 1.385 . S
C1365 H1351 0.931 . S
C1365 C1364 1.385 . S
C1365 C1366 1.389 . S
C1366 C1365 1.389 . S
C1366 C1367 1.387 . S
C1367 H1352 0.930 . S
C1367 C1362 1.390 . S
C1367 C1366 1.387 . S
H1368 C1380 0.930 . S
H1369 C1382 0.930 . S
H1370 C1383 0.930 . S
H1371 C1387 0.959 . S
H1372 C1387 0.959 . S
H1373 C1387 0.961 . S
H1374 C1388 0.960 . S
H1375 C1388 0.961 . S
H1376 C1388 0.959 . S
H1377 C1391 0.929 . S
H1378 C1392 0.931 . S
H1379 C1394 0.930 . S
C1380 H1368 0.930 . S
C1380 C1381 1.399 . S
C1380 C1385 1.399 . S
C1381 C1380 1.399 . S
C1381 C1382 1.376 . S
C1382 H1369 0.930 . S
C1382 C1381 1.376 . S
C1382 C1383 1.388 . S
C1383 H1370 0.930 . S
C1383 C1382 1.388 . S
C1383 C1384 1.390 . S
C1384 C1383 1.390 . S
C1384 C1385 1.394 . S
C1384 C1390 1.465 . S
C1385 C1380 1.399 . S
C1385 C1384 1.394 . S
C1385 C1386 1.516 . S
C1386 C1385 1.516 . S
C1386 C1387 1.502 . S
C1386 C1388 1.561 . S
C1386 C1389 1.526 . S
C1387 H1371 0.959 . S
C1387 H1372 0.959 . S
C1387 H1373 0.961 . S
C1387 C1386 1.502 . S
C1388 H1374 0.960 . S
C1388 H1375 0.961 . S
C1388 H1376 0.959 . S
C1388 C1386 1.561 . S
C1389 C1386 1.526 . S
C1389 C1390 1.396 . S
C1389 C1394 1.390 . S
C1390 C1384 1.465 . S
C1390 C1389 1.396 . S
C1390 C1391 1.399 . S
C1391 H1377 0.929 . S
C1391 C1390 1.399 . S
C1391 C1392 1.385 . S
C1392 H1378 0.931 . S
C1392 C1391 1.385 . S
C1392 C1393 1.389 . S
C1393 C1392 1.389 . S
C1393 C1394 1.387 . S
C1394 H1379 0.930 . S
C1394 C1389 1.390 . S
C1394 C1393 1.387 . S
H1395 C1407 0.930 . S
H1396 C1409 0.930 . S
H1397 C1410 0.930 . S
H1398 C1414 0.959 . S
H1399 C1414 0.959 . S
H1400 C1414 0.961 . S
H1401 C1415 0.960 . S
H1402 C1415 0.961 . S
H1403 C1415 0.959 . S
H1404 C1418 0.929 . S
H1405 C1419 0.931 . S
H1406 C1421 0.930 . S
C1407 H1395 0.930 . S
C1407 C1408 1.399 . S
C1407 C1412 1.399 . S
C1408 C1407 1.399 . S
C1408 C1409 1.376 . S
C1409 H1396 0.930 . S
C1409 C1408 1.376 . S
C1409 C1410 1.388 . S
C1410 H1397 0.930 . S
C1410 C1409 1.388 . S
C1410 C1411 1.390 . S
C1411 C1410 1.390 . S
C1411 C1412 1.394 . S
C1411 C1417 1.465 . S
C1412 C1407 1.399 . S
C1412 C1411 1.394 . S
C1412 C1413 1.516 . S
C1413 C1412 1.516 . S
C1413 C1414 1.502 . S
C1413 C1415 1.561 . S
C1413 C1416 1.526 . S
C1414 H1398 0.959 . S
C1414 H1399 0.959 . S
C1414 H1400 0.961 . S
C1414 C1413 1.502 . S
C1415 H1401 0.960 . S
C1415 H1402 0.961 . S
C1415 H1403 0.959 . S
C1415 C1413 1.561 . S
C1416 C1413 1.526 . S
C1416 C1417 1.396 . S
C1416 C1421 1.390 . S
C1417 C1411 1.465 . S
C1417 C1416 1.396 . S
C1417 C1418 1.399 . S
C1418 H1404 0.929 . S
C1418 C1417 1.399 . S
C1418 C1419 1.385 . S
C1419 H1405 0.931 . S
C1419 C1418 1.385 . S
C1419 C1420 1.389 . S
C1420 C1419 1.389 . S
C1420 C1421 1.387 . S
C1421 H1406 0.930 . S
C1421 C1416 1.390 . S
C1421 C1420 1.387 . S
H1422 C1434 0.930 . S
H1423 C1436 0.930 . S
H1424 C1437 0.930 . S
H1425 C1441 0.959 . S
H1426 C1441 0.959 . S
H1427 C1441 0.961 . S
H1428 C1442 0.960 . S
H1429 C1442 0.961 . S
H1430 C1442 0.959 . S
H1431 C1445 0.929 . S
H1432 C1446 0.931 . S
H1433 C1448 0.930 . S
C1434 H1422 0.930 . S
C1434 C1435 1.399 . S
C1434 C1439 1.399 . S
C1435 C1434 1.399 . S
C1435 C1436 1.376 . S
C1436 H1423 0.930 . S
C1436 C1435 1.376 . S
C1436 C1437 1.388 . S
C1437 H1424 0.930 . S
C1437 C1436 1.388 . S
C1437 C1438 1.390 . S
C1438 C1437 1.390 . S
C1438 C1439 1.394 . S
C1438 C1444 1.465 . S
C1439 C1434 1.399 . S
C1439 C1438 1.394 . S
C1439 C1440 1.516 . S
C1440 C1439 1.516 . S
C1440 C1441 1.502 . S
C1440 C1442 1.561 . S
C1440 C1443 1.526 . S
C1441 H1425 0.959 . S
C1441 H1426 0.959 . S
C1441 H1427 0.961 . S
C1441 C1440 1.502 . S
C1442 H1428 0.960 . S
C1442 H1429 0.961 . S
C1442 H1430 0.959 . S
C1442 C1440 1.561 . S
C1443 C1440 1.526 . S
C1443 C1444 1.396 . S
C1443 C1448 1.390 . S
C1444 C1438 1.465 . S
C1444 C1443 1.396 . S
C1444 C1445 1.399 . S
C1445 H1431 0.929 . S
C1445 C1444 1.399 . S
C1445 C1446 1.385 . S
C1446 H1432 0.931 . S
C1446 C1445 1.385 . S
C1446 C1447 1.389 . S
C1447 C1446 1.389 . S
C1447 C1448 1.387 . S
C1448 H1433 0.930 . S
C1448 C1443 1.390 . S
C1448 C1447 1.387 . S
H1449 C1461 0.930 . S
H1450 C1463 0.930 . S
H1451 C1464 0.930 . S
H1452 C1468 0.959 . S
H1453 C1468 0.959 1_545 S
H1454 C1468 0.946 1_545 S
H1455 C1469 0.977 . S
H1456 C1469 0.982 . S
H1457 C1469 0.934 1_565 S
H1458 C1472 0.929 . S
H1459 C1473 0.931 . S
H1460 C1475 0.930 1_545 S
C1461 H1449 0.930 . S
C1461 C1462 1.399 . S
C1461 C1466 1.399 . S
C1462 C1461 1.399 . S
C1462 C1463 1.376 . S
C1463 H1450 0.930 . S
C1463 C1462 1.376 . S
C1463 C1464 1.388 . S
C1464 H1451 0.930 . S
C1464 C1463 1.388 . S
C1464 C1465 1.390 . S
C1465 C1464 1.390 . S
C1465 C1466 1.394 . S
C1465 C1471 1.465 . S
C1466 C1461 1.399 . S
C1466 C1465 1.394 . S
C1466 C1467 1.516 . S
C1467 C1466 1.516 . S
C1467 C1468 1.502 . S
C1467 C1469 1.550 1_565 S
C1467 C1470 1.526 . S
C1468 H1452 0.959 . S
C1468 H1453 0.959 1_565 S
C1468 H1454 0.946 1_565 S
C1468 C1467 1.502 . S
C1469 H1455 0.977 . S
C1469 H1456 0.982 . S
C1469 H1457 0.934 1_545 S
C1469 C1467 1.550 1_545 S
C1470 C1467 1.526 . S
C1470 C1471 1.396 . S
C1470 C1475 1.390 . S
C1471 C1465 1.465 . S
C1471 C1470 1.396 . S
C1471 C1472 1.399 . S
C1472 H1458 0.929 . S
C1472 C1471 1.399 . S
C1472 C1473 1.385 . S
C1473 H1459 0.931 . S
C1473 C1472 1.385 . S
C1473 C1474 1.389 . S
C1474 C1473 1.389 . S
C1474 C1475 1.387 . S
C1475 H1460 0.930 1_565 S
C1475 C1470 1.390 . S
C1475 C1474 1.387 . S
H1476 C1488 0.930 . S
H1477 C1490 0.930 . S
H1478 C1491 0.930 . S
H1479 C1495 0.959 . S
H1480 C1495 0.959 . S
H1481 C1495 0.961 . S
H1482 C1496 0.960 . S
H1483 C1496 0.961 . S
H1484 C1496 0.959 . S
H1485 C1499 0.929 . S
H1486 C1500 0.931 . S
H1487 C1502 0.930 . S
C1488 H1476 0.930 . S
C1488 C1489 1.399 . S
C1488 C1493 1.399 . S
C1489 C1488 1.399 . S
C1489 C1490 1.376 . S
C1490 H1477 0.930 . S
C1490 C1489 1.376 . S
C1490 C1491 1.388 . S
C1491 H1478 0.930 . S
C1491 C1490 1.388 . S
C1491 C1492 1.390 . S
C1492 C1491 1.390 . S
C1492 C1493 1.394 . S
C1492 C1498 1.465 . S
C1493 C1488 1.399 . S
C1493 C1492 1.394 . S
C1493 C1494 1.516 . S
C1494 C1493 1.516 . S
C1494 C1495 1.502 . S
C1494 C1496 1.561 . S
C1494 C1497 1.526 . S
C1495 H1479 0.959 . S
C1495 H1480 0.959 . S
C1495 H1481 0.961 . S
C1495 C1494 1.502 . S
C1496 H1482 0.960 . S
C1496 H1483 0.961 . S
C1496 H1484 0.959 . S
C1496 C1494 1.561 . S
C1497 C1494 1.526 . S
C1497 C1498 1.396 . S
C1497 C1502 1.390 . S
C1498 C1492 1.465 . S
C1498 C1497 1.396 . S
C1498 C1499 1.399 . S
C1499 H1485 0.929 . S
C1499 C1498 1.399 . S
C1499 C1500 1.385 . S
C1500 H1486 0.931 . S
C1500 C1499 1.385 . S
C1500 C1501 1.389 . S
C1501 C1500 1.389 . S
C1501 C1502 1.387 . S
C1502 H1487 0.930 . S
C1502 C1497 1.390 . S
C1502 C1501 1.387 . S
H1503 C1515 0.930 . S
H1504 C1517 0.930 . S
H1505 C1518 0.930 . S
H1506 C1522 0.959 . S
H1507 C1522 0.959 . S
H1508 C1522 0.961 . S
H1509 C1523 0.960 . S
H1510 C1523 0.961 . S
H1511 C1523 0.959 . S
H1512 C1526 0.929 . S
H1513 C1527 0.931 . S
H1514 C1529 0.930 . S
C1515 H1503 0.930 . S
C1515 C1516 1.399 . S
C1515 C1520 1.399 . S
C1516 C1515 1.399 . S
C1516 C1517 1.376 . S
C1517 H1504 0.930 . S
C1517 C1516 1.376 . S
C1517 C1518 1.388 . S
C1518 H1505 0.930 . S
C1518 C1517 1.388 . S
C1518 C1519 1.390 . S
C1519 C1518 1.390 . S
C1519 C1520 1.394 . S
C1519 C1525 1.465 . S
C1520 C1515 1.399 . S
C1520 C1519 1.394 . S
C1520 C1521 1.516 . S
C1521 C1520 1.516 . S
C1521 C1522 1.502 . S
C1521 C1523 1.561 . S
C1521 C1524 1.526 . S
C1522 H1506 0.959 . S
C1522 H1507 0.959 . S
C1522 H1508 0.961 . S
C1522 C1521 1.502 . S
C1523 H1509 0.960 . S
C1523 H1510 0.961 . S
C1523 H1511 0.959 . S
C1523 C1521 1.561 . S
C1524 C1521 1.526 . S
C1524 C1525 1.396 . S
C1524 C1529 1.390 . S
C1525 C1519 1.465 . S
C1525 C1524 1.396 . S
C1525 C1526 1.399 . S
C1526 H1512 0.929 . S
C1526 C1525 1.399 . S
C1526 C1527 1.385 . S
C1527 H1513 0.931 . S
C1527 C1526 1.385 . S
C1527 C1528 1.389 . S
C1528 C1527 1.389 . S
C1528 C1529 1.387 . S
C1529 H1514 0.930 . S
C1529 C1524 1.390 . S
C1529 C1528 1.387 . S
H1530 C1542 0.930 . S
H1531 C1544 0.930 . S
H1532 C1545 0.930 . S
H1533 C1549 0.959 . S
H1534 C1549 0.959 . S
H1535 C1549 0.961 . S
H1536 C1550 0.960 . S
H1537 C1550 0.961 . S
H1538 C1550 0.959 . S
H1539 C1553 0.929 . S
H1540 C1554 0.931 . S
H1541 C1556 0.930 . S
C1542 H1530 0.930 . S
C1542 C1543 1.399 . S
C1542 C1547 1.399 . S
C1543 C1542 1.399 . S
C1543 C1544 1.376 . S
C1544 H1531 0.930 . S
C1544 C1543 1.376 . S
C1544 C1545 1.388 . S
C1545 H1532 0.930 . S
C1545 C1544 1.388 . S
C1545 C1546 1.390 . S
C1546 C1545 1.390 . S
C1546 C1547 1.394 . S
C1546 C1552 1.465 . S
C1547 C1542 1.399 . S
C1547 C1546 1.394 . S
C1547 C1548 1.516 . S
C1548 C1547 1.516 . S
C1548 C1549 1.502 . S
C1548 C1550 1.561 . S
C1548 C1551 1.526 . S
C1549 H1533 0.959 . S
C1549 H1534 0.959 . S
C1549 H1535 0.961 . S
C1549 C1548 1.502 . S
C1550 H1536 0.960 . S
C1550 H1537 0.961 . S
C1550 H1538 0.959 . S
C1550 C1548 1.561 . S
C1551 C1548 1.526 . S
C1551 C1552 1.396 . S
C1551 C1556 1.390 . S
C1552 C1546 1.465 . S
C1552 C1551 1.396 . S
C1552 C1553 1.399 . S
C1553 H1539 0.929 . S
C1553 C1552 1.399 . S
C1553 C1554 1.385 . S
C1554 H1540 0.931 . S
C1554 C1553 1.385 . S
C1554 C1555 1.389 . S
C1555 C1554 1.389 . S
C1555 C1556 1.387 . S
C1556 H1541 0.930 . S
C1556 C1551 1.390 . S
C1556 C1555 1.387 . S
H1557 C1569 0.930 . S
H1558 C1571 0.930 . S
H1559 C1572 0.930 . S
H1560 C1576 0.959 . S
H1561 C1576 0.959 . S
H1562 C1576 0.961 . S
H1563 C1577 0.960 . S
H1564 C1577 0.961 . S
H1565 C1577 0.959 . S
H1566 C1580 0.929 . S
H1567 C1581 0.931 . S
H1568 C1583 0.930 . S
C1569 H1557 0.930 . S
C1569 C1570 1.399 . S
C1569 C1574 1.399 . S
C1570 C1569 1.399 . S
C1570 C1571 1.376 . S
C1571 H1558 0.930 . S
C1571 C1570 1.376 . S
C1571 C1572 1.388 . S
C1572 H1559 0.930 . S
C1572 C1571 1.388 . S
C1572 C1573 1.390 . S
C1573 C1572 1.390 . S
C1573 C1574 1.394 . S
C1573 C1579 1.465 . S
C1574 C1569 1.399 . S
C1574 C1573 1.394 . S
C1574 C1575 1.516 . S
C1575 C1574 1.516 . S
C1575 C1576 1.502 . S
C1575 C1577 1.561 . S
C1575 C1578 1.526 . S
C1576 H1560 0.959 . S
C1576 H1561 0.959 . S
C1576 H1562 0.961 . S
C1576 C1575 1.502 . S
C1577 H1563 0.960 . S
C1577 H1564 0.961 . S
C1577 H1565 0.959 . S
C1577 C1575 1.561 . S
C1578 C1575 1.526 . S
C1578 C1579 1.396 . S
C1578 C1583 1.390 . S
C1579 C1573 1.465 . S
C1579 C1578 1.396 . S
C1579 C1580 1.399 . S
C1580 H1566 0.929 . S
C1580 C1579 1.399 . S
C1580 C1581 1.385 . S
C1581 H1567 0.931 . S
C1581 C1580 1.385 . S
C1581 C1582 1.389 . S
C1582 C1581 1.389 . S
C1582 C1583 1.387 . S
C1583 H1568 0.930 . S
C1583 C1578 1.390 . S
C1583 C1582 1.387 . S
H1584 C1596 0.930 . S
H1585 C1598 0.930 . S
H1586 C1599 0.930 . S
H1587 C1603 0.959 . S
H1588 C1603 0.959 . S
H1589 C1603 0.961 . S
H1590 C1604 0.960 . S
H1591 C1604 0.961 . S
H1592 C1604 0.959 . S
H1593 C1607 0.929 . S
H1594 C1608 0.931 . S
H1595 C1610 0.930 . S
C1596 H1584 0.930 . S
C1596 C1597 1.399 . S
C1596 C1601 1.399 . S
C1597 C1596 1.399 . S
C1597 C1598 1.376 . S
C1598 H1585 0.930 . S
C1598 C1597 1.376 . S
C1598 C1599 1.388 . S
C1599 H1586 0.930 . S
C1599 C1598 1.388 . S
C1599 C1600 1.390 . S
C1600 C1599 1.390 . S
C1600 C1601 1.394 . S
C1600 C1606 1.465 . S
C1601 C1596 1.399 . S
C1601 C1600 1.394 . S
C1601 C1602 1.516 . S
C1602 C1601 1.516 . S
C1602 C1603 1.502 . S
C1602 C1604 1.561 . S
C1602 C1605 1.526 . S
C1603 H1587 0.959 . S
C1603 H1588 0.959 . S
C1603 H1589 0.961 . S
C1603 C1602 1.502 . S
C1604 H1590 0.960 . S
C1604 H1591 0.961 . S
C1604 H1592 0.959 . S
C1604 C1602 1.561 . S
C1605 C1602 1.526 . S
C1605 C1606 1.396 . S
C1605 C1610 1.390 . S
C1606 C1600 1.465 . S
C1606 C1605 1.396 . S
C1606 C1607 1.399 . S
C1607 H1593 0.929 . S
C1607 C1606 1.399 . S
C1607 C1608 1.385 . S
C1608 H1594 0.931 . S
C1608 C1607 1.385 . S
C1608 C1609 1.389 . S
C1609 C1608 1.389 . S
C1609 C1610 1.387 . S
C1610 H1595 0.930 . S
C1610 C1605 1.390 . S
C1610 C1609 1.387 . S
H1611 C1623 0.930 . S
H1612 C1625 0.930 . S
H1613 C1626 0.930 . S
H1614 C1630 0.959 . S
H1615 C1630 0.959 . S
H1616 C1630 0.961 . S
H1617 C1631 0.940 1_655 S
H1618 C1631 0.963 . S
H1619 C1631 0.968 . S
H1620 C1634 0.929 . S
H1621 C1635 0.931 . S
H1622 C1637 0.930 . S
C1623 H1611 0.930 . S
C1623 C1624 1.399 . S
C1623 C1628 1.399 . S
C1624 C1623 1.399 . S
C1624 C1625 1.376 . S
C1625 H1612 0.930 . S
C1625 C1624 1.376 . S
C1625 C1626 1.388 1_655 S
C1626 H1613 0.930 . S
C1626 C1625 1.388 1_455 S
C1626 C1627 1.390 . S
C1627 C1626 1.390 . S
C1627 C1628 1.394 1_455 S
C1627 C1633 1.465 . S
C1628 C1623 1.399 . S
C1628 C1627 1.394 1_655 S
C1628 C1629 1.516 . S
C1629 C1628 1.516 . S
C1629 C1630 1.502 . S
C1629 C1631 1.570 1_655 S
C1629 C1632 1.526 1_655 S
C1630 H1614 0.959 . S
C1630 H1615 0.959 . S
C1630 H1616 0.961 . S
C1630 C1629 1.502 . S
C1631 H1617 0.940 1_455 S
C1631 H1618 0.963 . S
C1631 H1619 0.968 . S
C1631 C1629 1.570 1_455 S
C1632 C1629 1.526 1_455 S
C1632 C1633 1.396 . S
C1632 C1637 1.390 . S
C1633 C1627 1.465 . S
C1633 C1632 1.396 . S
C1633 C1634 1.399 . S
C1634 H1620 0.929 . S
C1634 C1633 1.399 . S
C1634 C1635 1.385 . S
C1635 H1621 0.931 . S
C1635 C1634 1.385 . S
C1635 C1636 1.389 . S
C1636 C1635 1.389 . S
C1636 C1637 1.387 . S
C1637 H1622 0.930 . S
C1637 C1632 1.390 . S
C1637 C1636 1.387 . S
H1638 C1650 0.930 . S
H1639 C1652 0.930 . S
H1640 C1653 0.930 . S
H1641 C1657 0.959 . S
H1642 C1657 0.959 . S
H1643 C1657 0.961 . S
H1644 C1658 0.960 . S
H1645 C1658 0.961 . S
H1646 C1658 0.959 . S
H1647 C1661 0.929 . S
H1648 C1662 0.931 . S
H1649 C1664 0.930 . S
C1650 H1638 0.930 . S
C1650 C1651 1.399 . S
C1650 C1655 1.399 . S
C1651 C1650 1.399 . S
C1651 C1652 1.376 . S
C1652 H1639 0.930 . S
C1652 C1651 1.376 . S
C1652 C1653 1.388 . S
C1653 H1640 0.930 . S
C1653 C1652 1.388 . S
C1653 C1654 1.390 . S
C1654 C1653 1.390 . S
C1654 C1655 1.394 . S
C1654 C1660 1.465 . S
C1655 C1650 1.399 . S
C1655 C1654 1.394 . S
C1655 C1656 1.516 . S
C1656 C1655 1.516 . S
C1656 C1657 1.502 . S
C1656 C1658 1.561 . S
C1656 C1659 1.526 . S
C1657 H1641 0.959 . S
C1657 H1642 0.959 . S
C1657 H1643 0.961 . S
C1657 C1656 1.502 . S
C1658 H1644 0.960 . S
C1658 H1645 0.961 . S
C1658 H1646 0.959 . S
C1658 C1656 1.561 . S
C1659 C1656 1.526 . S
C1659 C1660 1.396 . S
C1659 C1664 1.390 . S
C1660 C1654 1.465 . S
C1660 C1659 1.396 . S
C1660 C1661 1.399 . S
C1661 H1647 0.929 . S
C1661 C1660 1.399 . S
C1661 C1662 1.385 . S
C1662 H1648 0.931 . S
C1662 C1661 1.385 . S
C1662 C1663 1.389 . S
C1663 C1662 1.389 . S
C1663 C1664 1.387 . S
C1664 H1649 0.930 . S
C1664 C1659 1.390 . S
C1664 C1663 1.387 . S
H1665 C1677 0.930 . S
H1666 C1679 0.930 . S
H1667 C1680 0.930 . S
H1668 C1684 0.959 . S
H1669 C1684 0.959 . S
H1670 C1684 0.961 . S
H1671 C1685 0.960 . S
H1672 C1685 0.961 . S
H1673 C1685 0.959 . S
H1674 C1688 0.929 . S
H1675 C1689 0.931 . S
H1676 C1691 0.930 . S
C1677 H1665 0.930 . S
C1677 C1678 1.399 . S
C1677 C1682 1.399 . S
C1678 C1677 1.399 . S
C1678 C1679 1.376 . S
C1679 H1666 0.930 . S
C1679 C1678 1.376 . S
C1679 C1680 1.388 1_565 S
C1680 H1667 0.930 . S
C1680 C1679 1.388 1_545 S
C1680 C1681 1.390 . S
C1681 C1680 1.390 . S
C1681 C1682 1.394 1_545 S
C1681 C1687 1.465 . S
C1682 C1677 1.399 . S
C1682 C1681 1.394 1_565 S
C1682 C1683 1.516 . S
C1683 C1682 1.516 . S
C1683 C1684 1.502 . S
C1683 C1685 1.561 . S
C1683 C1686 1.526 1_565 S
C1684 H1668 0.959 . S
C1684 H1669 0.959 . S
C1684 H1670 0.961 . S
C1684 C1683 1.502 . S
C1685 H1671 0.960 . S
C1685 H1672 0.961 . S
C1685 H1673 0.959 . S
C1685 C1683 1.561 . S
C1686 C1683 1.526 1_545 S
C1686 C1687 1.396 . S
C1686 C1691 1.390 . S
C1687 C1681 1.465 . S
C1687 C1686 1.396 . S
C1687 C1688 1.399 . S
C1688 H1674 0.929 . S
C1688 C1687 1.399 . S
C1688 C1689 1.385 . S
C1689 H1675 0.931 . S
C1689 C1688 1.385 . S
C1689 C1690 1.389 . S
C1690 C1689 1.389 . S
C1690 C1691 1.387 . S
C1691 H1676 0.930 . S
C1691 C1686 1.390 . S
C1691 C1690 1.387 . S
H1692 C1704 0.930 . S
H1693 C1706 0.930 . S
H1694 C1707 0.930 . S
H1695 C1711 0.959 . S
H1696 C1711 0.959 . S
H1697 C1711 0.961 . S
H1698 C1712 0.960 . S
H1699 C1712 0.961 . S
H1700 C1712 0.959 . S
H1701 C1715 0.929 . S
H1702 C1716 0.931 . S
H1703 C1718 0.930 . S
C1704 H1692 0.930 . S
C1704 C1705 1.399 . S
C1704 C1709 1.399 . S
C1705 C1704 1.399 . S
C1705 C1706 1.376 . S
C1706 H1693 0.930 . S
C1706 C1705 1.376 . S
C1706 C1707 1.388 . S
C1707 H1694 0.930 . S
C1707 C1706 1.388 . S
C1707 C1708 1.390 . S
C1708 C1707 1.390 . S
C1708 C1709 1.394 . S
C1708 C1714 1.465 . S
C1709 C1704 1.399 . S
C1709 C1708 1.394 . S
C1709 C1710 1.516 . S
C1710 C1709 1.516 . S
C1710 C1711 1.502 . S
C1710 C1712 1.561 . S
C1710 C1713 1.526 . S
C1711 H1695 0.959 . S
C1711 H1696 0.959 . S
C1711 H1697 0.961 . S
C1711 C1710 1.502 . S
C1712 H1698 0.960 . S
C1712 H1699 0.961 . S
C1712 H1700 0.959 . S
C1712 C1710 1.561 . S
C1713 C1710 1.526 . S
C1713 C1714 1.396 . S
C1713 C1718 1.390 . S
C1714 C1708 1.465 . S
C1714 C1713 1.396 . S
C1714 C1715 1.399 . S
C1715 H1701 0.929 . S
C1715 C1714 1.399 . S
C1715 C1716 1.385 . S
C1716 H1702 0.931 . S
C1716 C1715 1.385 . S
C1716 C1717 1.389 . S
C1717 C1716 1.389 . S
C1717 C1718 1.387 . S
C1718 H1703 0.930 . S
C1718 C1713 1.390 . S
C1718 C1717 1.387 . S
H1719 C1731 0.930 . S
H1720 C1733 0.930 . S
H1721 C1734 0.930 . S
H1722 C1738 0.959 . S
H1723 C1738 0.959 . S
H1724 C1738 0.961 . S
H1725 C1739 0.960 . S
H1726 C1739 0.961 . S
H1727 C1739 0.959 . S
H1728 C1742 0.929 . S
H1729 C1743 0.931 . S
H1730 C1745 0.930 . S
C1731 H1719 0.930 . S
C1731 C1732 1.399 . S
C1731 C1736 1.399 . S
C1732 C1731 1.399 . S
C1732 C1733 1.376 . S
C1733 H1720 0.930 . S
C1733 C1732 1.376 . S
C1733 C1734 1.388 . S
C1734 H1721 0.930 . S
C1734 C1733 1.388 . S
C1734 C1735 1.390 . S
C1735 C1734 1.390 . S
C1735 C1736 1.394 . S
C1735 C1741 1.465 . S
C1736 C1731 1.399 . S
C1736 C1735 1.394 . S
C1736 C1737 1.516 . S
C1737 C1736 1.516 . S
C1737 C1738 1.502 . S
C1737 C1739 1.561 . S
C1737 C1740 1.526 . S
C1738 H1722 0.959 . S
C1738 H1723 0.959 . S
C1738 H1724 0.961 . S
C1738 C1737 1.502 . S
C1739 H1725 0.960 . S
C1739 H1726 0.961 . S
C1739 H1727 0.959 . S
C1739 C1737 1.561 . S
C1740 C1737 1.526 . S
C1740 C1741 1.396 . S
C1740 C1745 1.390 . S
C1741 C1735 1.465 . S
C1741 C1740 1.396 . S
C1741 C1742 1.399 . S
C1742 H1728 0.929 . S
C1742 C1741 1.399 . S
C1742 C1743 1.385 . S
C1743 H1729 0.931 . S
C1743 C1742 1.385 . S
C1743 C1744 1.389 . S
C1744 C1743 1.389 . S
C1744 C1745 1.387 . S
C1745 H1730 0.930 . S
C1745 C1740 1.390 . S
C1745 C1744 1.387 . S
H1746 C1758 0.930 . S
H1747 C1760 0.930 . S
H1748 C1761 0.930 . S
H1749 C1765 0.959 . S
H1750 C1765 0.959 . S
H1751 C1765 0.961 . S
H1752 C1766 0.960 . S
H1753 C1766 0.961 . S
H1754 C1766 0.959 . S
H1755 C1769 0.929 . S
H1756 C1770 0.931 . S
H1757 C1772 0.930 . S
C1758 H1746 0.930 . S
C1758 C1759 1.399 . S
C1758 C1763 1.399 . S
C1759 C1758 1.399 . S
C1759 C1760 1.376 . S
C1760 H1747 0.930 . S
C1760 C1759 1.376 . S
C1760 C1761 1.388 . S
C1761 H1748 0.930 . S
C1761 C1760 1.388 . S
C1761 C1762 1.390 . S
C1762 C1761 1.390 . S
C1762 C1763 1.394 . S
C1762 C1768 1.465 . S
C1763 C1758 1.399 . S
C1763 C1762 1.394 . S
C1763 C1764 1.516 . S
C1764 C1763 1.516 . S
C1764 C1765 1.502 . S
C1764 C1766 1.561 . S
C1764 C1767 1.526 . S
C1765 H1749 0.959 . S
C1765 H1750 0.959 . S
C1765 H1751 0.961 . S
C1765 C1764 1.502 . S
C1766 H1752 0.960 . S
C1766 H1753 0.961 . S
C1766 H1754 0.959 . S
C1766 C1764 1.561 . S
C1767 C1764 1.526 . S
C1767 C1768 1.396 . S
C1767 C1772 1.390 . S
C1768 C1762 1.465 . S
C1768 C1767 1.396 . S
C1768 C1769 1.399 . S
C1769 H1755 0.929 . S
C1769 C1768 1.399 . S
C1769 C1770 1.385 . S
C1770 H1756 0.931 . S
C1770 C1769 1.385 . S
C1770 C1771 1.389 . S
C1771 C1770 1.389 . S
C1771 C1772 1.387 . S
C1772 H1757 0.930 . S
C1772 C1767 1.390 . S
C1772 C1771 1.387 . S
H1773 C1785 0.930 . S
H1774 C1787 0.930 . S
H1775 C1788 0.930 . S
H1776 C1792 0.959 . S
H1777 C1792 0.959 . S
H1778 C1792 0.961 . S
H1779 C1793 0.960 . S
H1780 C1793 0.961 . S
H1781 C1793 0.959 . S
H1782 C1796 0.929 . S
H1783 C1797 0.931 . S
H1784 C1799 0.930 . S
C1785 H1773 0.930 . S
C1785 C1786 1.399 . S
C1785 C1790 1.399 . S
C1786 C1785 1.399 . S
C1786 C1787 1.376 . S
C1787 H1774 0.930 . S
C1787 C1786 1.376 . S
C1787 C1788 1.388 . S
C1788 H1775 0.930 . S
C1788 C1787 1.388 . S
C1788 C1789 1.390 . S
C1789 C1788 1.390 . S
C1789 C1790 1.394 . S
C1789 C1795 1.465 . S
C1790 C1785 1.399 . S
C1790 C1789 1.394 . S
C1790 C1791 1.516 . S
C1791 C1790 1.516 . S
C1791 C1792 1.502 . S
C1791 C1793 1.561 . S
C1791 C1794 1.526 . S
C1792 H1776 0.959 . S
C1792 H1777 0.959 . S
C1792 H1778 0.961 . S
C1792 C1791 1.502 . S
C1793 H1779 0.960 . S
C1793 H1780 0.961 . S
C1793 H1781 0.959 . S
C1793 C1791 1.561 . S
C1794 C1791 1.526 . S
C1794 C1795 1.396 . S
C1794 C1799 1.390 . S
C1795 C1789 1.465 . S
C1795 C1794 1.396 . S
C1795 C1796 1.399 . S
C1796 H1782 0.929 . S
C1796 C1795 1.399 . S
C1796 C1797 1.385 . S
C1797 H1783 0.931 . S
C1797 C1796 1.385 . S
C1797 C1798 1.389 . S
C1798 C1797 1.389 . S
C1798 C1799 1.387 . S
C1799 H1784 0.930 . S
C1799 C1794 1.390 . S
C1799 C1798 1.387 . S
H1800 C1812 0.930 . S
H1801 C1814 0.930 . S
H1802 C1815 0.930 . S
H1803 C1819 0.959 . S
H1804 C1819 0.959 . S
H1805 C1819 0.961 . S
H1806 C1820 0.960 . S
H1807 C1820 0.961 . S
H1808 C1820 0.959 . S
H1809 C1823 0.929 . S
H1810 C1824 0.931 . S
H1811 C1826 0.930 . S
C1812 H1800 0.930 . S
C1812 C1813 1.399 . S
C1812 C1817 1.399 . S
C1813 C1812 1.399 . S
C1813 C1814 1.376 . S
C1814 H1801 0.930 . S
C1814 C1813 1.376 . S
C1814 C1815 1.388 . S
C1815 H1802 0.930 . S
C1815 C1814 1.388 . S
C1815 C1816 1.390 . S
C1816 C1815 1.390 . S
C1816 C1817 1.394 . S
C1816 C1822 1.465 . S
C1817 C1812 1.399 . S
C1817 C1816 1.394 . S
C1817 C1818 1.516 . S
C1818 C1817 1.516 . S
C1818 C1819 1.502 . S
C1818 C1820 1.561 . S
C1818 C1821 1.526 . S
C1819 H1803 0.959 . S
C1819 H1804 0.959 . S
C1819 H1805 0.961 . S
C1819 C1818 1.502 . S
C1820 H1806 0.960 . S
C1820 H1807 0.961 . S
C1820 H1808 0.959 . S
C1820 C1818 1.561 . S
C1821 C1818 1.526 . S
C1821 C1822 1.396 . S
C1821 C1826 1.390 . S
C1822 C1816 1.465 . S
C1822 C1821 1.396 . S
C1822 C1823 1.399 . S
C1823 H1809 0.929 . S
C1823 C1822 1.399 . S
C1823 C1824 1.385 . S
C1824 H1810 0.931 . S
C1824 C1823 1.385 . S
C1824 C1825 1.389 . S
C1825 C1824 1.389 . S
C1825 C1826 1.387 . S
C1826 H1811 0.930 . S
C1826 C1821 1.390 . S
C1826 C1825 1.387 . S
H1827 C1839 0.930 . S
H1828 C1841 0.930 . S
H1829 C1842 0.930 . S
H1830 C1846 0.959 . S
H1831 C1846 0.959 . S
H1832 C1846 0.961 . S
H1833 C1847 0.960 . S
H1834 C1847 0.961 . S
H1835 C1847 0.959 . S
H1836 C1850 0.929 . S
H1837 C1851 0.931 . S
H1838 C1853 0.930 . S
C1839 H1827 0.930 . S
C1839 C1840 1.399 . S
C1839 C1844 1.399 . S
C1840 C1839 1.399 . S
C1840 C1841 1.376 . S
C1841 H1828 0.930 . S
C1841 C1840 1.376 . S
C1841 C1842 1.388 . S
C1842 H1829 0.930 . S
C1842 C1841 1.388 . S
C1842 C1843 1.390 . S
C1843 C1842 1.390 . S
C1843 C1844 1.394 . S
C1843 C1849 1.465 . S
C1844 C1839 1.399 . S
C1844 C1843 1.394 . S
C1844 C1845 1.516 . S
C1845 C1844 1.516 . S
C1845 C1846 1.502 . S
C1845 C1847 1.561 . S
C1845 C1848 1.526 . S
C1846 H1830 0.959 . S
C1846 H1831 0.959 . S
C1846 H1832 0.961 . S
C1846 C1845 1.502 . S
C1847 H1833 0.960 . S
C1847 H1834 0.961 . S
C1847 H1835 0.959 . S
C1847 C1845 1.561 . S
C1848 C1845 1.526 . S
C1848 C1849 1.396 . S
C1848 C1853 1.390 . S
C1849 C1843 1.465 . S
C1849 C1848 1.396 . S
C1849 C1850 1.399 . S
C1850 H1836 0.929 . S
C1850 C1849 1.399 . S
C1850 C1851 1.385 . S
C1851 H1837 0.931 . S
C1851 C1850 1.385 . S
C1851 C1852 1.389 . S
C1852 C1851 1.389 . S
C1852 C1853 1.387 . S
C1853 H1838 0.930 . S
C1853 C1848 1.390 . S
C1853 C1852 1.387 . S
H1854 C1866 0.930 . S
H1855 C1868 0.930 . S
H1856 C1869 0.930 . S
H1857 C1873 0.959 . S
H1858 C1873 0.959 . S
H1859 C1873 0.961 . S
H1860 C1874 0.960 . S
H1861 C1874 0.961 . S
H1862 C1874 0.959 . S
H1863 C1877 0.929 . S
H1864 C1878 0.931 . S
H1865 C1880 0.930 . S
C1866 H1854 0.930 . S
C1866 C1867 1.399 . S
C1866 C1871 1.399 . S
C1867 C1866 1.399 . S
C1867 C1868 1.376 . S
C1868 H1855 0.930 . S
C1868 C1867 1.376 . S
C1868 C1869 1.388 . S
C1869 H1856 0.930 . S
C1869 C1868 1.388 . S
C1869 C1870 1.390 . S
C1870 C1869 1.390 . S
C1870 C1871 1.394 . S
C1870 C1876 1.465 . S
C1871 C1866 1.399 . S
C1871 C1870 1.394 . S
C1871 C1872 1.516 . S
C1872 C1871 1.516 . S
C1872 C1873 1.502 . S
C1872 C1874 1.561 . S
C1872 C1875 1.526 . S
C1873 H1857 0.959 . S
C1873 H1858 0.959 . S
C1873 H1859 0.961 . S
C1873 C1872 1.502 . S
C1874 H1860 0.960 . S
C1874 H1861 0.961 . S
C1874 H1862 0.959 . S
C1874 C1872 1.561 . S
C1875 C1872 1.526 . S
C1875 C1876 1.396 . S
C1875 C1880 1.390 . S
C1876 C1870 1.465 . S
C1876 C1875 1.396 . S
C1876 C1877 1.399 . S
C1877 H1863 0.929 . S
C1877 C1876 1.399 . S
C1877 C1878 1.385 . S
C1878 H1864 0.931 . S
C1878 C1877 1.385 . S
C1878 C1879 1.389 . S
C1879 C1878 1.389 . S
C1879 C1880 1.387 . S
C1880 H1865 0.930 . S
C1880 C1875 1.390 . S
C1880 C1879 1.387 . S
H1881 C1893 0.930 . S
H1882 C1895 0.930 . S
H1883 C1896 0.930 . S
H1884 C1900 0.959 . S
H1885 C1900 0.959 . S
H1886 C1900 0.961 . S
H1887 C1901 0.960 . S
H1888 C1901 0.961 . S
H1889 C1901 0.959 . S
H1890 C1904 0.929 . S
H1891 C1905 0.931 . S
H1892 C1907 0.930 . S
C1893 H1881 0.930 . S
C1893 C1894 1.399 . S
C1893 C1898 1.399 . S
C1894 C1893 1.399 . S
C1894 C1895 1.376 . S
C1895 H1882 0.930 . S
C1895 C1894 1.376 . S
C1895 C1896 1.388 . S
C1896 H1883 0.930 . S
C1896 C1895 1.388 . S
C1896 C1897 1.390 . S
C1897 C1896 1.390 . S
C1897 C1898 1.394 . S
C1897 C1903 1.465 . S
C1898 C1893 1.399 . S
C1898 C1897 1.394 . S
C1898 C1899 1.516 . S
C1899 C1898 1.516 . S
C1899 C1900 1.502 . S
C1899 C1901 1.561 . S
C1899 C1902 1.526 . S
C1900 H1884 0.959 . S
C1900 H1885 0.959 . S
C1900 H1886 0.961 . S
C1900 C1899 1.502 . S
C1901 H1887 0.960 . S
C1901 H1888 0.961 . S
C1901 H1889 0.959 . S
C1901 C1899 1.561 . S
C1902 C1899 1.526 . S
C1902 C1903 1.396 . S
C1902 C1907 1.390 . S
C1903 C1897 1.465 . S
C1903 C1902 1.396 . S
C1903 C1904 1.399 . S
C1904 H1890 0.929 . S
C1904 C1903 1.399 . S
C1904 C1905 1.385 . S
C1905 H1891 0.931 . S
C1905 C1904 1.385 . S
C1905 C1906 1.389 . S
C1906 C1905 1.389 . S
C1906 C1907 1.387 . S
C1907 H1892 0.930 . S
C1907 C1902 1.390 . S
C1907 C1906 1.387 . S
H1908 C1920 0.930 . S
H1909 C1922 0.930 . S
H1910 C1923 0.930 . S
H1911 C1927 0.959 . S
H1912 C1927 0.959 . S
H1913 C1927 0.961 . S
H1914 C1928 0.960 . S
H1915 C1928 0.961 . S
H1916 C1928 0.959 . S
H1917 C1931 0.929 . S
H1918 C1932 0.931 . S
H1919 C1934 0.930 . S
C1920 H1908 0.930 . S
C1920 C1921 1.399 . S
C1920 C1925 1.399 . S
C1921 C1920 1.399 . S
C1921 C1922 1.376 . S
C1922 H1909 0.930 . S
C1922 C1921 1.376 . S
C1922 C1923 1.388 . S
C1923 H1910 0.930 . S
C1923 C1922 1.388 . S
C1923 C1924 1.390 . S
C1924 C1923 1.390 . S
C1924 C1925 1.394 . S
C1924 C1930 1.465 . S
C1925 C1920 1.399 . S
C1925 C1924 1.394 . S
C1925 C1926 1.516 . S
C1926 C1925 1.516 . S
C1926 C1927 1.502 . S
C1926 C1928 1.561 . S
C1926 C1929 1.526 . S
C1927 H1911 0.959 . S
C1927 H1912 0.959 . S
C1927 H1913 0.961 . S
C1927 C1926 1.502 . S
C1928 H1914 0.960 . S
C1928 H1915 0.961 . S
C1928 H1916 0.959 . S
C1928 C1926 1.561 . S
C1929 C1926 1.526 . S
C1929 C1930 1.396 . S
C1929 C1934 1.390 . S
C1930 C1924 1.465 . S
C1930 C1929 1.396 . S
C1930 C1931 1.399 . S
C1931 H1917 0.929 . S
C1931 C1930 1.399 . S
C1931 C1932 1.385 . S
C1932 H1918 0.931 . S
C1932 C1931 1.385 . S
C1932 C1933 1.389 . S
C1933 C1932 1.389 . S
C1933 C1934 1.387 . S
C1934 H1919 0.930 . S
C1934 C1929 1.390 . S
C1934 C1933 1.387 . S
H1935 C1947 0.930 . S
H1936 C1949 0.930 . S
H1937 C1950 0.930 . S
H1938 C1954 0.959 . S
H1939 C1954 0.959 . S
H1940 C1954 0.961 . S
H1941 C1955 0.960 . S
H1942 C1955 0.961 . S
H1943 C1955 0.959 . S
H1944 C1958 0.929 . S
H1945 C1959 0.931 . S
H1946 C1961 0.930 . S
C1947 H1935 0.930 . S
C1947 C1948 1.399 . S
C1947 C1952 1.399 . S
C1948 C1947 1.399 . S
C1948 C1949 1.376 . S
C1949 H1936 0.930 . S
C1949 C1948 1.376 . S
C1949 C1950 1.388 . S
C1950 H1937 0.930 . S
C1950 C1949 1.388 . S
C1950 C1951 1.390 . S
C1951 C1950 1.390 . S
C1951 C1952 1.394 . S
C1951 C1957 1.465 1_655 S
C1952 C1947 1.399 . S
C1952 C1951 1.394 . S
C1952 C1953 1.516 1_655 S
C1953 C1952 1.516 1_455 S
C1953 C1954 1.502 . S
C1953 C1955 1.561 . S
C1953 C1956 1.526 . S
C1954 H1938 0.959 . S
C1954 H1939 0.959 . S
C1954 H1940 0.961 . S
C1954 C1953 1.502 . S
C1955 H1941 0.960 . S
C1955 H1942 0.961 . S
C1955 H1943 0.959 . S
C1955 C1953 1.561 . S
C1956 C1953 1.526 . S
C1956 C1957 1.396 . S
C1956 C1961 1.390 . S
C1957 C1951 1.465 1_455 S
C1957 C1956 1.396 . S
C1957 C1958 1.399 . S
C1958 H1944 0.929 . S
C1958 C1957 1.399 . S
C1958 C1959 1.385 . S
C1959 H1945 0.931 . S
C1959 C1958 1.385 . S
C1959 C1960 1.389 . S
C1960 C1959 1.389 . S
C1960 C1961 1.387 . S
C1961 H1946 0.930 . S
C1961 C1956 1.390 . S
C1961 C1960 1.387 . S
H1962 C1974 0.930 . S
H1963 C1976 0.930 . S
H1964 C1977 0.930 . S
H1965 C1981 0.959 . S
H1966 C1981 0.959 . S
H1967 C1981 0.961 . S
H1968 C1982 0.960 . S
H1969 C1982 0.961 . S
H1970 C1982 0.959 . S
H1971 C1985 0.929 . S
H1972 C1986 0.931 . S
H1973 C1988 0.930 . S
C1974 H1962 0.930 . S
C1974 C1975 1.399 . S
C1974 C1979 1.399 . S
C1975 C1974 1.399 . S
C1975 C1976 1.376 . S
C1976 H1963 0.930 . S
C1976 C1975 1.376 . S
C1976 C1977 1.388 . S
C1977 H1964 0.930 . S
C1977 C1976 1.388 . S
C1977 C1978 1.390 . S
C1978 C1977 1.390 . S
C1978 C1979 1.394 . S
C1978 C1984 1.465 . S
C1979 C1974 1.399 . S
C1979 C1978 1.394 . S
C1979 C1980 1.516 . S
C1980 C1979 1.516 . S
C1980 C1981 1.502 . S
C1980 C1982 1.561 . S
C1980 C1983 1.526 . S
C1981 H1965 0.959 . S
C1981 H1966 0.959 . S
C1981 H1967 0.961 . S
C1981 C1980 1.502 . S
C1982 H1968 0.960 . S
C1982 H1969 0.961 . S
C1982 H1970 0.959 . S
C1982 C1980 1.561 . S
C1983 C1980 1.526 . S
C1983 C1984 1.396 . S
C1983 C1988 1.390 . S
C1984 C1978 1.465 . S
C1984 C1983 1.396 . S
C1984 C1985 1.399 . S
C1985 H1971 0.929 . S
C1985 C1984 1.399 . S
C1985 C1986 1.385 . S
C1986 H1972 0.931 . S
C1986 C1985 1.385 . S
C1986 C1987 1.389 . S
C1987 C1986 1.389 . S
C1987 C1988 1.387 . S
C1988 H1973 0.930 . S
C1988 C1983 1.390 . S
C1988 C1987 1.387 . S
H1989 C2001 0.930 . S
H1990 C2003 0.930 . S
H1991 C2004 0.930 . S
H1992 C2008 0.959 . S
H1993 C2008 0.959 . S
H1994 C2008 0.961 . S
H1995 C2009 0.960 . S
H1996 C2009 0.961 . S
H1997 C2009 0.959 . S
H1998 C2012 0.929 . S
H1999 C2013 0.931 . S
H2000 C2015 0.930 . S
C2001 H1989 0.930 . S
C2001 C2002 1.399 . S
C2001 C2006 1.399 . S
C2002 C2001 1.399 . S
C2002 C2003 1.376 . S
C2003 H1990 0.930 . S
C2003 C2002 1.376 . S
C2003 C2004 1.388 . S
C2004 H1991 0.930 . S
C2004 C2003 1.388 . S
C2004 C2005 1.390 . S
C2005 C2004 1.390 . S
C2005 C2006 1.394 . S
C2005 C2011 1.465 1_565 S
C2006 C2001 1.399 . S
C2006 C2005 1.394 . S
C2006 C2007 1.516 1_565 S
C2007 C2006 1.516 1_545 S
C2007 C2008 1.502 . S
C2007 C2009 1.561 . S
C2007 C2010 1.526 . S
C2008 H1992 0.959 . S
C2008 H1993 0.959 . S
C2008 H1994 0.961 . S
C2008 C2007 1.502 . S
C2009 H1995 0.960 . S
C2009 H1996 0.961 . S
C2009 H1997 0.959 . S
C2009 C2007 1.561 . S
C2010 C2007 1.526 . S
C2010 C2011 1.396 . S
C2010 C2015 1.390 . S
C2011 C2005 1.465 1_545 S
C2011 C2010 1.396 . S
C2011 C2012 1.399 . S
C2012 H1998 0.929 . S
C2012 C2011 1.399 . S
C2012 C2013 1.385 . S
C2013 H1999 0.931 . S
C2013 C2012 1.385 . S
C2013 C2014 1.389 . S
C2014 C2013 1.389 . S
C2014 C2015 1.387 . S
C2015 H2000 0.930 . S
C2015 C2010 1.390 . S
C2015 C2014 1.387 . S
H2016 C2028 0.930 . S
H2017 C2030 0.930 . S
H2018 C2031 0.930 . S
H2019 C2035 0.959 1_565 S
H2020 C2035 0.959 . S
H2021 C2035 0.961 1_565 S
H2022 C2036 0.960 . S
H2023 C2036 0.961 . S
H2024 C2036 0.959 . S
H2025 C2039 0.929 . S
H2026 C2040 0.931 . S
H2027 C2042 0.930 . S
C2028 H2016 0.930 . S
C2028 C2029 1.399 . S
C2028 C2033 1.399 . S
C2029 C2028 1.399 . S
C2029 C2030 1.376 . S
C2030 H2017 0.930 . S
C2030 C2029 1.376 . S
C2030 C2031 1.388 . S
C2031 H2018 0.930 . S
C2031 C2030 1.388 . S
C2031 C2032 1.390 1_565 S
C2032 C2031 1.390 1_545 S
C2032 C2033 1.394 1_545 S
C2032 C2038 1.465 . S
C2033 C2028 1.399 . S
C2033 C2032 1.394 1_565 S
C2033 C2034 1.516 1_565 S
C2034 C2033 1.516 1_545 S
C2034 C2035 1.502 . S
C2034 C2036 1.561 . S
C2034 C2037 1.526 . S
C2035 H2019 0.959 1_545 S
C2035 H2020 0.959 . S
C2035 H2021 0.961 1_545 S
C2035 C2034 1.502 . S
C2036 H2022 0.960 . S
C2036 H2023 0.961 . S
C2036 H2024 0.959 . S
C2036 C2034 1.561 . S
C2037 C2034 1.526 . S
C2037 C2038 1.396 . S
C2037 C2042 1.390 . S
C2038 C2032 1.465 . S
C2038 C2037 1.396 . S
C2038 C2039 1.399 . S
C2039 H2025 0.929 . S
C2039 C2038 1.399 . S
C2039 C2040 1.385 . S
C2040 H2026 0.931 . S
C2040 C2039 1.385 . S
C2040 C2041 1.389 . S
C2041 C2040 1.389 . S
C2041 C2042 1.387 . S
C2042 H2027 0.930 . S
C2042 C2037 1.390 . S
C2042 C2041 1.387 . S
H2043 C2055 0.930 . S
H2044 C2057 0.930 . S
H2045 C2058 0.930 . S
H2046 C2062 0.959 . S
H2047 C2062 0.959 . S
H2048 C2062 0.961 1_455 S
H2049 C2063 0.960 . S
H2050 C2063 0.961 1_655 S
H2051 C2063 0.959 . S
H2052 C2066 0.929 . S
H2053 C2067 0.931 . S
H2054 C2069 0.930 . S
C2055 H2043 0.930 . S
C2055 C2056 1.399 . S
C2055 C2060 1.399 . S
C2056 C2055 1.399 . S
C2056 C2057 1.376 . S
C2057 H2044 0.930 . S
C2057 C2056 1.376 . S
C2057 C2058 1.388 . S
C2058 H2045 0.930 . S
C2058 C2057 1.388 . S
C2058 C2059 1.390 . S
C2059 C2058 1.390 . S
C2059 C2060 1.394 . S
C2059 C2065 1.465 1_455 S
C2060 C2055 1.399 . S
C2060 C2059 1.394 . S
C2060 C2061 1.516 . S
C2061 C2060 1.516 . S
C2061 C2062 1.502 1_455 S
C2061 C2063 1.561 . S
C2061 C2064 1.526 1_455 S
C2062 H2046 0.959 . S
C2062 H2047 0.959 . S
C2062 H2048 0.961 1_655 S
C2062 C2061 1.502 1_655 S
C2063 H2049 0.960 . S
C2063 H2050 0.961 1_455 S
C2063 H2051 0.959 . S
C2063 C2061 1.561 . S
C2064 C2061 1.526 1_655 S
C2064 C2065 1.396 . S
C2064 C2069 1.390 . S
C2065 C2059 1.465 1_655 S
C2065 C2064 1.396 . S
C2065 C2066 1.399 . S
C2066 H2052 0.929 . S
C2066 C2065 1.399 . S
C2066 C2067 1.385 . S
C2067 H2053 0.931 . S
C2067 C2066 1.385 . S
C2067 C2068 1.389 . S
C2068 C2067 1.389 . S
C2068 C2069 1.387 . S
C2069 H2054 0.930 . S
C2069 C2064 1.390 . S
C2069 C2068 1.387 . S
H2070 C2082 0.930 . S
H2071 C2084 0.930 . S
H2072 C2085 0.930 . S
H2073 C2089 0.959 . S
H2074 C2089 0.959 . S
H2075 C2089 0.961 . S
H2076 C2090 0.960 . S
H2077 C2090 0.961 . S
H2078 C2090 0.959 . S
H2079 C2093 0.929 . S
H2080 C2094 0.931 . S
H2081 C2096 0.930 . S
C2082 H2070 0.930 . S
C2082 C2083 1.399 . S
C2082 C2087 1.399 . S
C2083 C2082 1.399 . S
C2083 C2084 1.376 . S
C2084 H2071 0.930 . S
C2084 C2083 1.376 . S
C2084 C2085 1.388 . S
C2085 H2072 0.930 . S
C2085 C2084 1.388 . S
C2085 C2086 1.390 . S
C2086 C2085 1.390 . S
C2086 C2087 1.394 . S
C2086 C2092 1.465 . S
C2087 C2082 1.399 . S
C2087 C2086 1.394 . S
C2087 C2088 1.516 . S
C2088 C2087 1.516 . S
C2088 C2089 1.502 . S
C2088 C2090 1.561 . S
C2088 C2091 1.526 . S
C2089 H2073 0.959 . S
C2089 H2074 0.959 . S
C2089 H2075 0.961 . S
C2089 C2088 1.502 . S
C2090 H2076 0.960 . S
C2090 H2077 0.961 . S
C2090 H2078 0.959 . S
C2090 C2088 1.561 . S
C2091 C2088 1.526 . S
C2091 C2092 1.396 . S
C2091 C2096 1.390 . S
C2092 C2086 1.465 . S
C2092 C2091 1.396 . S
C2092 C2093 1.399 . S
C2093 H2079 0.929 . S
C2093 C2092 1.399 . S
C2093 C2094 1.385 . S
C2094 H2080 0.931 . S
C2094 C2093 1.385 . S
C2094 C2095 1.389 . S
C2095 C2094 1.389 . S
C2095 C2096 1.387 . S
C2096 H2081 0.930 . S
C2096 C2091 1.390 . S
C2096 C2095 1.387 . S
H2097 C2109 0.930 . S
H2098 C2111 0.930 . S
H2099 C2112 0.930 . S
H2100 C2116 0.959 . S
H2101 C2116 0.959 . S
H2102 C2116 0.961 . S
H2103 C2117 0.960 . S
H2104 C2117 0.961 . S
H2105 C2117 0.959 . S
H2106 C2120 0.929 . S
H2107 C2121 0.931 . S
H2108 C2123 0.930 . S
C2109 H2097 0.930 . S
C2109 C2110 1.399 . S
C2109 C2114 1.399 . S
C2110 C2109 1.399 . S
C2110 C2111 1.376 . S
C2111 H2098 0.930 . S
C2111 C2110 1.376 . S
C2111 C2112 1.388 . S
C2112 H2099 0.930 . S
C2112 C2111 1.388 . S
C2112 C2113 1.390 . S
C2113 C2112 1.390 . S
C2113 C2114 1.394 . S
C2113 C2119 1.465 . S
C2114 C2109 1.399 . S
C2114 C2113 1.394 . S
C2114 C2115 1.516 . S
C2115 C2114 1.516 . S
C2115 C2116 1.502 . S
C2115 C2117 1.561 . S
C2115 C2118 1.526 . S
C2116 H2100 0.959 . S
C2116 H2101 0.959 . S
C2116 H2102 0.961 . S
C2116 C2115 1.502 . S
C2117 H2103 0.960 . S
C2117 H2104 0.961 . S
C2117 H2105 0.959 . S
C2117 C2115 1.561 . S
C2118 C2115 1.526 . S
C2118 C2119 1.396 . S
C2118 C2123 1.390 . S
C2119 C2113 1.465 . S
C2119 C2118 1.396 . S
C2119 C2120 1.399 . S
C2120 H2106 0.929 . S
C2120 C2119 1.399 . S
C2120 C2121 1.385 . S
C2121 H2107 0.931 . S
C2121 C2120 1.385 . S
C2121 C2122 1.389 . S
C2122 C2121 1.389 . S
C2122 C2123 1.387 . S
C2123 H2108 0.930 . S
C2123 C2118 1.390 . S
C2123 C2122 1.387 . S
H2124 C2136 0.930 . S
H2125 C2138 0.930 . S
H2126 C2139 0.930 . S
H2127 C2143 0.959 . S
H2128 C2143 0.959 . S
H2129 C2143 0.961 . S
H2130 C2144 0.960 . S
H2131 C2144 0.961 . S
H2132 C2144 0.959 . S
H2133 C2147 0.929 . S
H2134 C2148 0.931 . S
H2135 C2150 0.930 . S
C2136 H2124 0.930 . S
C2136 C2137 1.399 . S
C2136 C2141 1.399 . S
C2137 C2136 1.399 . S
C2137 C2138 1.376 . S
C2138 H2125 0.930 . S
C2138 C2137 1.376 . S
C2138 C2139 1.388 . S
C2139 H2126 0.930 . S
C2139 C2138 1.388 . S
C2139 C2140 1.390 . S
C2140 C2139 1.390 . S
C2140 C2141 1.394 . S
C2140 C2146 1.465 . S
C2141 C2136 1.399 . S
C2141 C2140 1.394 . S
C2141 C2142 1.516 . S
C2142 C2141 1.516 . S
C2142 C2143 1.502 . S
C2142 C2144 1.561 . S
C2142 C2145 1.526 . S
C2143 H2127 0.959 . S
C2143 H2128 0.959 . S
C2143 H2129 0.961 . S
C2143 C2142 1.502 . S
C2144 H2130 0.960 . S
C2144 H2131 0.961 . S
C2144 H2132 0.959 . S
C2144 C2142 1.561 . S
C2145 C2142 1.526 . S
C2145 C2146 1.396 . S
C2145 C2150 1.390 . S
C2146 C2140 1.465 . S
C2146 C2145 1.396 . S
C2146 C2147 1.399 . S
C2147 H2133 0.929 . S
C2147 C2146 1.399 . S
C2147 C2148 1.385 . S
C2148 H2134 0.931 . S
C2148 C2147 1.385 . S
C2148 C2149 1.389 . S
C2149 C2148 1.389 . S
C2149 C2150 1.387 . S
C2150 H2135 0.930 . S
C2150 C2145 1.390 . S
C2150 C2149 1.387 . S
H2151 C2163 0.930 . S
H2152 C2165 0.930 . S
H2153 C2166 0.930 . S
H2154 C2170 0.959 . S
H2155 C2170 0.959 . S
H2156 C2170 0.961 . S
H2157 C2171 0.960 . S
H2158 C2171 0.961 . S
H2159 C2171 0.959 . S
H2160 C2174 0.929 . S
H2161 C2175 0.931 . S
H2162 C2177 0.930 . S
C2163 H2151 0.930 . S
C2163 C2164 1.399 . S
C2163 C2168 1.399 . S
C2164 C2163 1.399 . S
C2164 C2165 1.376 . S
C2165 H2152 0.930 . S
C2165 C2164 1.376 . S
C2165 C2166 1.388 . S
C2166 H2153 0.930 . S
C2166 C2165 1.388 . S
C2166 C2167 1.390 . S
C2167 C2166 1.390 . S
C2167 C2168 1.394 . S
C2167 C2173 1.465 . S
C2168 C2163 1.399 . S
C2168 C2167 1.394 . S
C2168 C2169 1.516 . S
C2169 C2168 1.516 . S
C2169 C2170 1.502 . S
C2169 C2171 1.561 . S
C2169 C2172 1.526 . S
C2170 H2154 0.959 . S
C2170 H2155 0.959 . S
C2170 H2156 0.961 . S
C2170 C2169 1.502 . S
C2171 H2157 0.960 . S
C2171 H2158 0.961 . S
C2171 H2159 0.959 . S
C2171 C2169 1.561 . S
C2172 C2169 1.526 . S
C2172 C2173 1.396 . S
C2172 C2177 1.390 . S
C2173 C2167 1.465 . S
C2173 C2172 1.396 . S
C2173 C2174 1.399 . S
C2174 H2160 0.929 . S
C2174 C2173 1.399 . S
C2174 C2175 1.385 . S
C2175 H2161 0.931 . S
C2175 C2174 1.385 . S
C2175 C2176 1.389 . S
C2176 C2175 1.389 . S
C2176 C2177 1.387 . S
C2177 H2162 0.930 . S
C2177 C2172 1.390 . S
C2177 C2176 1.387 . S
C733 C15 1.274 . S
C745 C99 1.277 . S
C760 C19 1.292 . S
C772 C55 1.222 . S
C787 C59 1.284 . S
C799 C95 1.242 . S
C814 C135 1.218 . S
C826 C179 1.292 . S
C841 C219 1.273 . S
C853 C175 1.277 . S
C868 C215 1.243 . S
C880 C139 1.284 . S
C895 C339 1.289 . S
C907 C255 1.232 . S
C922 C259 1.293 . S
C934 C295 1.221 . S
C949 C335 1.261 1_655 S
C961 C299 1.281 . S
C976 C419 1.279 . S
C988 C375 1.257 . S
C1003 C415 1.238 . S
C1015 C459 1.286 . S
C1030 C379 1.272 . S
C1042 C455 1.283 . S
C1057 C495 1.239 . S
C1069 C579 1.285 . S
C1084 C499 1.272 . S
C1096 C535 1.282 . S
C1111 C539 1.272 . S
C1123 C575 1.284 . S
C1138 C659 1.291 . S
C1150 C615 1.225 . S
C1165 C699 1.291 . S
C1177 C655 1.220 1_565 S
C1192 C619 1.294 . S
C1204 C695 1.216 . S
C1219 C18 1.780 . S
C1231 C218 1.741 . S
C1246 C138 1.777 . S
C1258 C58 1.724 . S
C1273 C178 1.748 . S
C1285 C98 1.740 . S
C1300 C258 1.782 . S
C1312 C458 1.735 . S
C1327 C298 1.756 . S
C1339 C378 1.770 . S
C1354 C418 1.744 . S
C1366 C338 1.744 . S
C1381 C498 1.725 . S
C1393 C698 1.770 . S
C1408 C618 1.762 . S
C1420 C538 1.729 . S
C1435 C658 1.769 . S
C1447 C578 1.757 . S
C1462 C409 2.076 . S
C1474 C9 2.083 1_565 S
C1489 C49 2.039 . S
C1501 C449 2.055 . S
C1516 C369 2.020 . S
C1528 C89 2.088 . S
C1543 C129 2.103 1_655 S
C1555 C569 2.042 . S
C1570 C169 2.085 . S
C1582 C489 2.081 . S
C1597 C529 2.105 . S
C1609 C209 2.053 . S
C1624 C649 2.031 . S
C1636 C249 2.109 . S
C1651 C289 2.027 . S
C1663 C689 2.073 . S
C1678 C329 2.019 . S
C1690 C609 2.100 . S
C1705 C90 1.799 . S
C1717 C6 1.796 . S
C1732 C10 1.776 . S
C1744 C46 1.816 . S
C1759 C86 1.809 . S
C1771 C50 1.803 . S
C1786 C170 1.773 . S
C1798 C126 1.814 . S
C1813 C210 1.780 . S
C1825 C166 1.816 . S
C1840 C206 1.799 . S
C1852 C130 1.782 . S
C1867 C330 1.801 . S
C1879 C246 1.796 . S
C1894 C286 1.798 . S
C1906 C250 1.784 . S
C1921 C290 1.785 . S
C1933 C326 1.798 . S
C1948 C366 1.801 . S
C1960 C410 1.778 . S
C1975 C406 1.797 . S
C1987 C450 1.786 . S
C2002 C370 1.795 . S
C2014 C446 1.814 . S
C2029 C486 1.814 . S
C2041 C570 1.794 . S
C2056 C526 1.797 . S
C2068 C490 1.785 . S
C2083 C530 1.776 . S
C2095 C566 1.802 . S
C2110 C606 1.804 . S
C2122 C650 1.808 . S
C2137 C646 1.812 . S
C2149 C690 1.799 . S
C2164 C610 1.775 . S
C2176 C686 1.815 . S
