# Generated by pormake.
# Topology wje, (4)-cn, num edge types: 1
# Building blocks:
#     Node 0, Type 0, BuildingBlock: UXUYUI_clean_sbu_0, # of connection points: 4
#     Node 1, Type 0, BuildingBlock: UXUYUI_clean_sbu_0, # of connection points: 4
#     Node 2, Type 0, BuildingBlock: UXUYUI_clean_sbu_0, # of connection points: 4
#     Node 3, Type 0, BuildingBlock: UXUYUI_clean_sbu_0, # of connection points: 4
#     Node 4, Type 0, BuildingBlock: UXUYUI_clean_sbu_0, # of connection points: 4
#     Node 5, Type 0, BuildingBlock: UXUYUI_clean_sbu_0, # of connection points: 4
#     Node 6, Type 0, BuildingBlock: UXUYUI_clean_sbu_0, # of connection points: 4
#     Node 7, Type 0, BuildingBlock: UXUYUI_clean_sbu_0, # of connection points: 4
#     Node 8, Type 0, BuildingBlock: UXUYUI_clean_sbu_0, # of connection points: 4
#     Node 9, Type 0, BuildingBlock: UXUYUI_clean_sbu_0, # of connection points: 4
#     Node 10, Type 0, BuildingBlock: UXUYUI_clean_sbu_0, # of connection points: 4
#     Node 11, Type 0, BuildingBlock: UXUYUI_clean_sbu_0, # of connection points: 4
#     Edge 12, Type (0, 0), BuildingBlock: ZUJKAS_clean_linker_0, # of connection points: 2
#     Edge 13, Type (0, 0), BuildingBlock: ZUJKAS_clean_linker_0, # of connection points: 2
#     Edge 14, Type (0, 0), BuildingBlock: ZUJKAS_clean_linker_0, # of connection points: 2
#     Edge 15, Type (0, 0), BuildingBlock: ZUJKAS_clean_linker_0, # of connection points: 2
#     Edge 16, Type (0, 0), BuildingBlock: ZUJKAS_clean_linker_0, # of connection points: 2
#     Edge 17, Type (0, 0), BuildingBlock: ZUJKAS_clean_linker_0, # of connection points: 2
#     Edge 18, Type (0, 0), BuildingBlock: ZUJKAS_clean_linker_0, # of connection points: 2
#     Edge 19, Type (0, 0), BuildingBlock: ZUJKAS_clean_linker_0, # of connection points: 2
#     Edge 20, Type (0, 0), BuildingBlock: ZUJKAS_clean_linker_0, # of connection points: 2
#     Edge 21, Type (0, 0), BuildingBlock: ZUJKAS_clean_linker_0, # of connection points: 2
#     Edge 22, Type (0, 0), BuildingBlock: ZUJKAS_clean_linker_0, # of connection points: 2
#     Edge 23, Type (0, 0), BuildingBlock: ZUJKAS_clean_linker_0, # of connection points: 2
#     Edge 24, Type (0, 0), BuildingBlock: ZUJKAS_clean_linker_0, # of connection points: 2
#     Edge 25, Type (0, 0), BuildingBlock: ZUJKAS_clean_linker_0, # of connection points: 2
#     Edge 26, Type (0, 0), BuildingBlock: ZUJKAS_clean_linker_0, # of connection points: 2
#     Edge 27, Type (0, 0), BuildingBlock: ZUJKAS_clean_linker_0, # of connection points: 2
#     Edge 28, Type (0, 0), BuildingBlock: ZUJKAS_clean_linker_0, # of connection points: 2
#     Edge 29, Type (0, 0), BuildingBlock: ZUJKAS_clean_linker_0, # of connection points: 2
#     Edge 30, Type (0, 0), BuildingBlock: ZUJKAS_clean_linker_0, # of connection points: 2
#     Edge 31, Type (0, 0), BuildingBlock: ZUJKAS_clean_linker_0, # of connection points: 2
#     Edge 32, Type (0, 0), BuildingBlock: ZUJKAS_clean_linker_0, # of connection points: 2
#     Edge 33, Type (0, 0), BuildingBlock: ZUJKAS_clean_linker_0, # of connection points: 2
#     Edge 34, Type (0, 0), BuildingBlock: ZUJKAS_clean_linker_0, # of connection points: 2
#     Edge 35, Type (0, 0), BuildingBlock: ZUJKAS_clean_linker_0, # of connection points: 2
# Relax obj value: 0.245
# Max RMSD: 0.179
# Mean RMSD: 0.178
data_MOF--net-wje--node1-UXUYUI_clean_sbu_0--edge1-ZUJKAS_clean_linker_0
_symmetry_space_group_name_H-M    P1
_symmetry_Int_Tables_number       1
_symmetry_cell_setting            triclinic
loop_
_symmetry_equiv_pos_as_xyz
'x, y, z'
_cell_length_a     74.646165
_cell_length_b     74.668141
_cell_length_c     58.183097
_cell_angle_alpha  90.01253
_cell_angle_beta   89.995349
_cell_angle_gamma 119.99845
loop_
_atom_site_label
_atom_site_type_symbol
_atom_site_fract_x
_atom_site_fract_y
_atom_site_fract_z
_atom_type_partial_charge
Li0 Li 0.34463 0.00056 0.26457 0.0
Li1 Li 0.32967 0.01052 0.29743 0.0
Li2 Li 0.30719 0.98597 0.26904 0.0
Li3 Li 0.32682 0.02131 0.25986 0.0
C4 C 0.31608 0.96517 0.30084 0.0
N5 N 0.29237 0.92737 0.32216 0.0
C6 C 0.30227 0.96299 0.31832 0.0
C7 C 0.31781 0.94809 0.29421 0.0
C8 C 0.29042 0.94377 0.32888 0.0
C9 C 0.3057 0.92913 0.30521 0.0
C10 C 0.36744 0.04091 0.29269 0.0
C11 C 0.37961 0.06715 0.32215 0.0
N12 N 0.39603 0.06439 0.326 0.0
C13 C 0.38451 0.03842 0.29684 0.0
C14 C 0.36503 0.05549 0.30534 0.0
C15 C 0.39877 0.05041 0.31378 0.0
C16 C 0.37856 0.00618 0.23729 0.0
N17 N 0.3669 0.9966 0.25612 0.0
C18 C 0.38905 0.98336 0.26619 0.0
C19 C 0.37173 0.9853 0.27045 0.0
C20 C 0.40178 0.99346 0.24719 0.0
C21 C 0.39618 0.00478 0.23245 0.0
H22 H 0.37447 0.01533 0.22641 0.0
H23 H 0.36248 0.97829 0.2856 0.0
C24 C 0.31924 0.0187 0.34161 0.0
N25 N 0.33256 0.0148 0.32965 0.0
C26 C 0.31875 0.01767 0.36558 0.0
C27 C 0.34608 0.00923 0.36438 0.0
C28 C 0.34604 0.01042 0.34047 0.0
C29 C 0.33192 0.01233 0.37721 0.0
H30 H 0.30819 0.0214 0.33254 0.0
H31 H 0.35606 0.00685 0.33045 0.0
C32 C 0.31344 0.98221 0.22528 0.0
N33 N 0.2916 0.95047 0.19441 0.0
C34 C 0.29412 0.97821 0.21729 0.0
C35 C 0.32171 0.97016 0.21747 0.0
C36 C 0.2833 0.96206 0.20173 0.0
C37 C 0.31042 0.95417 0.20187 0.0
C38 C 0.29521 0.01969 0.27928 0.0
C39 C 0.27832 0.01207 0.2643 0.0
C40 C 0.30265 0.03915 0.28934 0.0
C41 C 0.26923 0.0241 0.25955 0.0
C42 C 0.29319 0.05073 0.2841 0.0
N43 N 0.27682 0.04303 0.26943 0.0
C44 C 0.2658 0.95965 0.28063 0.0
C45 C 0.28054 0.9427 0.2602 0.0
C46 C 0.24847 0.94075 0.28612 0.0
N47 N 0.28155 0.9603 0.26824 0.0
C48 C 0.26356 0.92342 0.26551 0.0
C49 C 0.24753 0.92231 0.27917 0.0
H50 H 0.26733 0.97369 0.2878 0.0
H51 H 0.29358 0.9435 0.25123 0.0
C52 C 0.34214 0.06327 0.2484 0.0
N53 N 0.32778 0.04356 0.2427 0.0
C54 C 0.34225 0.07994 0.23744 0.0
C55 C 0.31307 0.05574 0.21457 0.0
C56 C 0.31368 0.03953 0.2258 0.0
C57 C 0.32738 0.07625 0.22052 0.0
H58 H 0.35327 0.06605 0.26175 0.0
H59 H 0.30256 0.02373 0.22145 0.0
O60 O 0.32734 0.98372 0.28979 0.0
O61 O 0.35311 0.02908 0.27641 0.0
O62 O 0.3243 0.99797 0.24049 0.0
O63 O 0.30462 0.00834 0.28374 0.0
H64 H 0.30036 0.97588 0.32335 0.0
H65 H 0.32807 0.94935 0.28039 0.0
H66 H 0.27957 0.94184 0.3423 0.0
H67 H 0.30679 0.91576 0.30016 0.0
H68 H 0.37783 0.07838 0.33218 0.0
H69 H 0.38674 0.02734 0.28719 0.0
H70 H 0.35191 0.05761 0.30244 0.0
H71 H 0.412 0.04857 0.31723 0.0
H72 H 0.39257 0.97424 0.27786 0.0
H73 H 0.40565 0.01306 0.2178 0.0
H74 H 0.30737 0.01985 0.37478 0.0
H75 H 0.35661 0.00526 0.37269 0.0
H76 H 0.28742 0.98728 0.22326 0.0
H77 H 0.33663 0.97302 0.22346 0.0
H78 H 0.26828 0.9587 0.19552 0.0
H79 H 0.3166 0.94467 0.19574 0.0
H80 H 0.27247 0.99717 0.25611 0.0
H81 H 0.31576 0.04537 0.30086 0.0
H82 H 0.25625 0.01844 0.24787 0.0
H83 H 0.2989 0.06587 0.29164 0.0
H84 H 0.23666 0.94057 0.29709 0.0
H85 H 0.26341 0.90951 0.25988 0.0
H86 H 0.35348 0.09555 0.2426 0.0
H87 H 0.30152 0.05226 0.20141 0.0
Li88 Li 0.34083 0.34687 0.59972 0.0
Li89 Li 0.31615 0.32991 0.63223 0.0
Li90 Li 0.32077 0.31008 0.60379 0.0
Li91 Li 0.30256 0.32733 0.59353 0.0
C92 C 0.35543 0.32272 0.6274 0.0
N93 N 0.3817 0.30681 0.63159 0.0
C94 C 0.35371 0.31031 0.64622 0.0
C95 C 0.37061 0.32711 0.61078 0.0
C96 C 0.36707 0.30235 0.64798 0.0
C97 C 0.38376 0.31896 0.61323 0.0
C98 C 0.32876 0.37191 0.62303 0.0
C99 C 0.33272 0.40558 0.62974 0.0
N100 N 0.34873 0.41014 0.64425 0.0
C101 C 0.34523 0.37692 0.63805 0.0
C102 C 0.32243 0.38634 0.61884 0.0
C103 C 0.35513 0.39633 0.64859 0.0
C104 C 0.36757 0.38074 0.57126 0.0
N105 N 0.36619 0.37065 0.5912 0.0
C106 C 0.40083 0.3958 0.60123 0.0
C107 C 0.38237 0.37773 0.60605 0.0
C108 C 0.40269 0.40682 0.58096 0.0
C109 C 0.38583 0.39895 0.56571 0.0
H110 H 0.35436 0.37481 0.55986 0.0
H111 H 0.38086 0.36948 0.62185 0.0
C112 C 0.30855 0.31188 0.67437 0.0
N113 N 0.31154 0.32962 0.66444 0.0
C114 C 0.30762 0.30981 0.69817 0.0
C115 C 0.31129 0.34377 0.70122 0.0
C116 C 0.3121 0.34516 0.67722 0.0
C117 C 0.30968 0.32615 0.71197 0.0
H118 H 0.30746 0.29952 0.66369 0.0
H119 H 0.31372 0.35884 0.66897 0.0
C120 C 0.3269 0.31512 0.55873 0.0
N121 N 0.33122 0.29148 0.52508 0.0
C122 C 0.30989 0.29629 0.55211 0.0
C123 C 0.34604 0.32207 0.5481 0.0
C124 C 0.31242 0.28451 0.53511 0.0
C125 C 0.34792 0.30986 0.53114 0.0
C126 C 0.27542 0.30081 0.62527 0.0
C127 C 0.25946 0.2803 0.62732 0.0
C128 C 0.27194 0.31683 0.6319 0.0
C129 C 0.24032 0.27614 0.63602 0.0
C130 C 0.25258 0.31203 0.64053 0.0
N131 N 0.2373 0.29196 0.64239 0.0
C132 C 0.30822 0.27022 0.61752 0.0
C133 C 0.33605 0.28233 0.59112 0.0
C134 C 0.3098 0.2528 0.62233 0.0
N135 N 0.32147 0.28476 0.6025 0.0
C136 C 0.33837 0.26521 0.59566 0.0
C137 C 0.32542 0.25045 0.61186 0.0
H138 H 0.29719 0.27275 0.62688 0.0
H139 H 0.34677 0.29424 0.57967 0.0
C140 C 0.2811 0.34405 0.57014 0.0
N141 N 0.28054 0.32621 0.57617 0.0
C142 C 0.26446 0.34344 0.55843 0.0
C143 C 0.24719 0.30608 0.55905 0.0
C144 C 0.26416 0.30744 0.5707 0.0
C145 C 0.24711 0.32425 0.55289 0.0
H146 H 0.29441 0.35875 0.57457 0.0
H147 H 0.26415 0.29349 0.57574 0.0
O148 O 0.34219 0.33031 0.62508 0.0
O149 O 0.3191 0.35318 0.61206 0.0
O150 O 0.32475 0.32691 0.57525 0.0
O151 O 0.29415 0.30498 0.6165 0.0
H152 H 0.34215 0.30676 0.6593 0.0
H153 H 0.37195 0.33633 0.59586 0.0
H154 H 0.3658 0.29261 0.66237 0.0
H155 H 0.39547 0.32213 0.6004 0.0
H156 H 0.32798 0.4169 0.62664 0.0
H157 H 0.35017 0.36588 0.64179 0.0
H158 H 0.30972 0.38273 0.60728 0.0
H159 H 0.36788 0.40039 0.66027 0.0
H160 H 0.41353 0.4011 0.6133 0.0
H161 H 0.38655 0.40705 0.54999 0.0
H162 H 0.30572 0.2957 0.7057 0.0
H163 H 0.31276 0.35667 0.71123 0.0
H164 H 0.29497 0.29076 0.56017 0.0
H165 H 0.35931 0.3367 0.55298 0.0
H166 H 0.29944 0.26983 0.52991 0.0
H167 H 0.36266 0.31498 0.52282 0.0
H168 H 0.2618 0.2677 0.62212 0.0
H169 H 0.28396 0.3328 0.63043 0.0
H170 H 0.22784 0.26034 0.63767 0.0
H171 H 0.2497 0.32428 0.64572 0.0
H172 H 0.29973 0.24196 0.63521 0.0
H173 H 0.35061 0.26391 0.58724 0.0
H174 H 0.26521 0.35783 0.5537 0.0
H175 H 0.23407 0.29097 0.5554 0.0
Li176 Li 0.99443 0.34405 0.92807 0.0
Li177 Li 0.99184 0.32441 0.96144 0.0
Li178 Li 0.01633 0.32947 0.93188 0.0
Li179 Li 0.97846 0.30561 0.92533 0.0
C180 C 0.02199 0.37084 0.9549 0.0
N181 N 0.03307 0.41186 0.96051 0.0
C182 C 0.01305 0.37662 0.97239 0.0
C183 C 0.03665 0.38596 0.94033 0.0
C184 C 0.01886 0.39743 0.97494 0.0
C185 C 0.04201 0.40661 0.94341 0.0
C186 C 0.95228 0.31515 0.95787 0.0
C187 C 0.91974 0.28797 0.97263 0.0
N188 N 0.91944 0.30144 0.98815 0.0
C189 C 0.95165 0.3287 0.97403 0.0
C190 C 0.9362 0.29459 0.95721 0.0
C191 C 0.93492 0.32148 0.98916 0.0
C192 C 0.00338 0.37757 0.8976 0.0
N193 N 0.99255 0.36704 0.91653 0.0
C194 C 0.98086 0.39116 0.92259 0.0
C195 C 0.98111 0.37326 0.92871 0.0
C196 C 0.99238 0.40278 0.90356 0.0
C197 C 0.00355 0.39562 0.89079 0.0
H198 H 0.01229 0.37227 0.88814 0.0
H199 H 0.97269 0.36468 0.94365 0.0
C200 C 0.00905 0.33465 0.00473 0.0
N201 N 0.99045 0.32259 0.99445 0.0
C202 C 0.01101 0.33462 0.02851 0.0
C203 C 0.97462 0.30938 0.031 0.0
C204 C 0.97346 0.30966 0.00703 0.0
C205 C 0.9936 0.3221 0.0421 0.0
H206 H 0.02256 0.34411 0.99436 0.0
H207 H 0.95906 0.29935 0.99858 0.0
C208 C 0.01182 0.32657 0.88795 0.0
N209 N 0.03764 0.32398 0.85575 0.0
C210 C 0.00604 0.30777 0.87703 0.0
C211 C 0.03069 0.34407 0.88243 0.0
C212 C 0.01932 0.30678 0.8608 0.0
C213 C 0.04354 0.34243 0.86613 0.0
C214 C 0.99681 0.29209 0.96588 0.0
C215 C 0.01522 0.29758 0.97755 0.0
C216 C 0.97815 0.27576 0.97401 0.0
C217 C 0.01462 0.28664 0.99729 0.0
C218 C 0.97821 0.2652 0.9938 0.0
N219 N 0.99628 0.27082 0.00494 0.0
C220 C 0.05914 0.34922 0.93839 0.0
C221 C 0.04464 0.31581 0.92186 0.0
C222 C 0.07783 0.34976 0.94219 0.0
N223 N 0.04291 0.33223 0.9289 0.0
C224 C 0.0631 0.31568 0.92536 0.0
C225 C 0.07975 0.33253 0.93643 0.0
H226 H 0.05714 0.36174 0.94457 0.0
H227 H 0.03128 0.30227 0.91495 0.0
C228 C 0.94471 0.28348 0.89625 0.0
N229 N 0.9581 0.28146 0.91034 0.0
C230 C 0.9288 0.26616 0.88538 0.0
C231 C 0.94097 0.24506 0.90349 0.0
C232 C 0.95673 0.26283 0.91392 0.0
C233 C 0.92666 0.2466 0.88911 0.0
H234 H 0.94623 0.29854 0.89378 0.0
H235 H 0.9678 0.26176 0.92497 0.0
O236 O 0.01602 0.35045 0.95166 0.0
O237 O 0.96831 0.32201 0.94254 0.0
O238 O 0.99919 0.32777 0.90416 0.0
O239 O 0.99701 0.30296 0.94688 0.0
H240 H 0.00156 0.36514 0.98371 0.0
H241 H 0.04351 0.38176 0.92649 0.0
H242 H 0.01198 0.40209 0.98833 0.0
H243 H 0.05318 0.41843 0.93213 0.0
H244 H 0.90721 0.2721 0.97229 0.0
H245 H 0.96411 0.34451 0.97527 0.0
H246 H 0.93637 0.28379 0.945 0.0
H247 H 0.93431 0.33179 0.0018 0.0
H248 H 0.9723 0.39621 0.93319 0.0
H249 H 0.01246 0.40395 0.87584 0.0
H250 H 0.02613 0.34414 0.0361 0.0
H251 H 0.96076 0.2994 0.04067 0.0
H252 H 0.99152 0.29406 0.88111 0.0
H253 H 0.03552 0.35867 0.89092 0.0
H254 H 0.01507 0.29233 0.85226 0.0
H255 H 0.05825 0.35582 0.86181 0.0
H256 H 0.02977 0.3103 0.97161 0.0
H257 H 0.96373 0.27152 0.96536 0.0
H258 H 0.02872 0.29077 0.00657 0.0
H259 H 0.96386 0.25261 0.00038 0.0
H260 H 0.09007 0.3629 0.95116 0.0
H261 H 0.06397 0.30213 0.92051 0.0
H262 H 0.91798 0.268 0.87463 0.0
H263 H 0.94002 0.23031 0.90657 0.0
Li264 Li 0.65476 0.99549 0.26677 0.0
Li265 Li 0.67039 0.9854 0.29933 0.0
Li266 Li 0.69129 0.01028 0.27203 0.0
Li267 Li 0.67335 0.97524 0.25982 0.0
C268 C 0.68103 0.03222 0.29887 0.0
N269 N 0.70191 0.07387 0.30962 0.0
C270 C 0.69414 0.0394 0.31797 0.0
C271 C 0.67847 0.04624 0.28531 0.0
C272 C 0.70463 0.06051 0.32305 0.0
C273 C 0.68913 0.06723 0.29106 0.0
C274 C 0.62903 0.95341 0.28744 0.0
C275 C 0.60274 0.91852 0.29677 0.0
N276 N 0.59106 0.92588 0.30633 0.0
C277 C 0.61679 0.96062 0.29742 0.0
C278 C 0.62197 0.93218 0.28712 0.0
C279 C 0.59763 0.94646 0.30685 0.0
C280 C 0.62057 0.98792 0.239 0.0
N281 N 0.63171 0.99815 0.25789 0.0
C282 C 0.60774 0.00944 0.26694 0.0
C283 C 0.62579 0.00896 0.27167 0.0
C284 C 0.59549 0.99849 0.24798 0.0
C285 C 0.6023 0.98791 0.23366 0.0
H286 H 0.62555 0.97925 0.22852 0.0
H287 H 0.63469 0.01658 0.28686 0.0
C288 C 0.6882 0.98934 0.3418 0.0
N289 N 0.66937 0.97962 0.33143 0.0
C290 C 0.68981 0.9891 0.36564 0.0
C291 C 0.6526 0.96799 0.36781 0.0
C292 C 0.65172 0.96866 0.34385 0.0
C293 C 0.67182 0.97873 0.37903 0.0
H294 H 0.70199 0.99811 0.33155 0.0
H295 H 0.63692 0.96097 0.33541 0.0
C296 C 0.68769 0.01367 0.22711 0.0
N297 N 0.71293 0.04289 0.19534 0.0
C298 C 0.70617 0.01478 0.22029 0.0
C299 C 0.6819 0.02722 0.21764 0.0
C300 C 0.71877 0.02974 0.20426 0.0
C301 C 0.69491 0.04193 0.20161 0.0
C302 C 0.69853 0.97227 0.29159 0.0
C303 C 0.71868 0.97558 0.29252 0.0
C304 C 0.682 0.95316 0.2984 0.0
C305 C 0.72195 0.95974 0.30029 0.0
C306 C 0.6859 0.93772 0.30608 0.0
N307 N 0.70563 0.94129 0.30686 0.0
C308 C 0.73175 0.03534 0.28582 0.0
C309 C 0.72067 0.05352 0.26173 0.0
C310 C 0.74984 0.05357 0.29122 0.0
N311 N 0.71739 0.03564 0.2717 0.0
C312 C 0.73851 0.07223 0.26691 0.0
C313 C 0.75311 0.07241 0.28227 0.0
H314 H 0.72859 0.02113 0.2941 0.0
H315 H 0.7089 0.05357 0.25102 0.0
C316 C 0.65515 0.9379 0.23472 0.0
N317 N 0.67341 0.95421 0.24168 0.0
C318 C 0.65485 0.9215 0.22284 0.0
C319 C 0.69219 0.93934 0.22493 0.0
C320 C 0.69177 0.95539 0.23674 0.0
C321 C 0.67354 0.92197 0.21804 0.0
H322 H 0.64082 0.93754 0.23865 0.0
H323 H 0.70606 0.96862 0.2424 0.0
O324 O 0.67092 0.01164 0.29335 0.0
O325 O 0.64762 0.96696 0.27758 0.0
O326 O 0.67511 0.99913 0.2427 0.0
O327 O 0.69518 0.98762 0.28363 0.0
H328 H 0.69637 0.02883 0.32863 0.0
H329 H 0.66872 0.04107 0.2702 0.0
H330 H 0.71495 0.06629 0.33767 0.0
H331 H 0.68739 0.07825 0.28062 0.0
H332 H 0.5971 0.90206 0.29664 0.0
H333 H 0.62221 0.97698 0.29839 0.0
H334 H 0.63124 0.9263 0.27952 0.0
H335 H 0.58805 0.95185 0.31471 0.0
H336 H 0.60324 0.01801 0.27829 0.0
H337 H 0.59323 0.97908 0.21902 0.0
H338 H 0.70493 0.99783 0.3735 0.0
H339 H 0.63836 0.95957 0.37747 0.0
H340 H 0.71078 0.00432 0.22745 0.0
H341 H 0.66758 0.02645 0.22272 0.0
H342 H 0.73319 0.0309 0.19891 0.0
H343 H 0.69071 0.0526 0.1942 0.0
H344 H 0.73167 0.99019 0.28712 0.0
H345 H 0.66633 0.95024 0.29784 0.0
H346 H 0.73747 0.9621 0.30106 0.0
H347 H 0.67323 0.92288 0.3114 0.0
H348 H 0.76051 0.05306 0.30346 0.0
H349 H 0.74049 0.08648 0.25968 0.0
H350 H 0.64014 0.90858 0.2175 0.0
H351 H 0.70694 0.94029 0.22179 0.0
Li352 Li 0.68078 0.66905 0.62743 0.0
Li353 Li 0.6566 0.65442 0.59374 0.0
Li354 Li 0.69531 0.67327 0.59004 0.0
Li355 Li 0.6784 0.69175 0.59971 0.0
C356 C 0.67462 0.63186 0.62163 0.0
N357 N 0.66969 0.60286 0.6543 0.0
C358 C 0.65529 0.6142 0.62491 0.0
C359 C 0.69148 0.63465 0.63482 0.0
C360 C 0.65311 0.59974 0.64154 0.0
C361 C 0.68866 0.61985 0.6513 0.0
C362 C 0.64689 0.68075 0.62928 0.0
C363 C 0.6199 0.68956 0.62986 0.0
N364 N 0.62932 0.70239 0.64799 0.0
C365 C 0.65624 0.69393 0.64799 0.0
C366 C 0.62854 0.67848 0.62015 0.0
C367 C 0.64714 0.70477 0.65718 0.0
C368 C 0.69882 0.67977 0.67161 0.0
N369 N 0.68193 0.66586 0.65961 0.0
C370 C 0.66315 0.65145 0.69434 0.0
C371 C 0.66437 0.65169 0.67041 0.0
C372 C 0.68009 0.66612 0.70721 0.0
C373 C 0.69829 0.68008 0.69557 0.0
H374 H 0.7123 0.69135 0.66257 0.0
H375 H 0.65099 0.64119 0.66037 0.0
C376 C 0.62933 0.62228 0.5639 0.0
N377 N 0.63087 0.63206 0.58412 0.0
C378 C 0.61064 0.60487 0.55763 0.0
C379 C 0.59557 0.60813 0.59307 0.0
C380 C 0.6145 0.62542 0.59863 0.0
C381 C 0.59348 0.5975 0.5724 0.0
H382 H 0.6427 0.62785 0.55281 0.0
H383 H 0.61635 0.63322 0.61486 0.0
C384 C 0.72426 0.70493 0.61049 0.0
N385 N 0.76622 0.72506 0.60137 0.0
C386 C 0.73316 0.72219 0.59603 0.0
C387 C 0.73676 0.69799 0.62041 0.0
C388 C 0.75439 0.73216 0.59164 0.0
C389 C 0.75791 0.70833 0.61554 0.0
C390 C 0.66958 0.68676 0.55559 0.0
C391 C 0.68482 0.70632 0.54814 0.0
C392 C 0.64934 0.67842 0.54746 0.0
C393 C 0.67951 0.71729 0.53277 0.0
C394 C 0.64465 0.68985 0.53205 0.0
N395 N 0.65971 0.70889 0.52511 0.0
C396 C 0.72364 0.65987 0.57902 0.0
C397 C 0.72714 0.68777 0.55632 0.0
C398 C 0.74067 0.66059 0.56821 0.0
N399 N 0.71741 0.67353 0.57316 0.0
C400 C 0.74433 0.68913 0.54514 0.0
C401 C 0.75144 0.67553 0.55118 0.0
H402 H 0.71551 0.64855 0.59228 0.0
H403 H 0.7219 0.69844 0.55196 0.0
C404 C 0.69232 0.7322 0.61353 0.0
N405 N 0.6779 0.71718 0.59981 0.0
C406 C 0.691 0.74965 0.61896 0.0
C407 C 0.66009 0.7362 0.59576 0.0
C408 C 0.66209 0.71898 0.59065 0.0
C409 C 0.67447 0.75161 0.61048 0.0
H410 H 0.70416 0.73004 0.62152 0.0
H411 H 0.65028 0.70651 0.5806 0.0
O412 O 0.677 0.64637 0.60568 0.0
O413 O 0.65591 0.67051 0.61958 0.0
O414 O 0.7034 0.69466 0.61457 0.0
O415 O 0.67448 0.67573 0.57055 0.0
H416 H 0.6421 0.61166 0.61479 0.0
H417 H 0.70653 0.64823 0.6326 0.0
H418 H 0.63822 0.58605 0.64431 0.0
H419 H 0.70155 0.62191 0.66174 0.0
H420 H 0.60579 0.68808 0.62288 0.0
H421 H 0.67057 0.69607 0.6551 0.0
H422 H 0.62125 0.66856 0.60547 0.0
H423 H 0.6543 0.71515 0.67153 0.0
H424 H 0.64889 0.64032 0.70264 0.0
H425 H 0.71157 0.69188 0.70478 0.0
H426 H 0.60968 0.59723 0.54148 0.0
H427 H 0.58292 0.60275 0.60521 0.0
H428 H 0.72374 0.7277 0.58803 0.0
H429 H 0.73016 0.6846 0.63152 0.0
H430 H 0.76144 0.74546 0.58038 0.0
H431 H 0.76772 0.70302 0.62296 0.0
H432 H 0.70051 0.71311 0.55438 0.0
H433 H 0.63732 0.66335 0.55307 0.0
H434 H 0.69112 0.73249 0.52697 0.0
H435 H 0.62904 0.68361 0.52568 0.0
H436 H 0.74532 0.64951 0.57312 0.0
H437 H 0.75225 0.70105 0.53231 0.0
H438 H 0.70213 0.76088 0.63082 0.0
H439 H 0.64707 0.7371 0.58891 0.0
Li440 Li 0.00669 0.66008 0.93208 0.0
Li441 Li 0.01816 0.68485 0.96535 0.0
Li442 Li 0.99172 0.68217 0.9396 0.0
Li443 Li 0.0266 0.69864 0.92748 0.0
C444 C 0.97231 0.65073 0.9693 0.0
N445 N 0.9335 0.63291 0.98907 0.0
C446 C 0.96912 0.65922 0.98924 0.0
C447 C 0.9558 0.63312 0.95948 0.0
C448 C 0.94936 0.65001 0.99894 0.0
C449 C 0.93629 0.62433 0.96975 0.0
C450 C 0.04839 0.67821 0.95769 0.0
C451 C 0.07579 0.69266 0.98583 0.0
N452 N 0.07339 0.67357 0.98933 0.0
C453 C 0.04626 0.65876 0.96149 0.0
C454 C 0.06335 0.69533 0.96987 0.0
C455 C 0.05903 0.65673 0.97758 0.0
C456 C 0.01145 0.63327 0.90176 0.0
N457 N 0.00288 0.63431 0.92196 0.0
C458 C 0.99085 0.59865 0.92953 0.0
C459 C 0.9927 0.61753 0.93582 0.0
C460 C -0.00024 0.5971 0.90888 0.0
C461 C 0.01007 0.6147 0.89484 0.0
H462 H 0.01962 0.64696 0.89122 0.0
H463 H 0.98651 0.61896 0.95207 0.0
C464 C 0.0284 0.70444 0.00864 0.0
N465 N 0.02412 0.68687 0.9972 0.0
C466 C 0.02821 0.70466 0.03261 0.0
C467 C 0.01993 0.66894 0.03253 0.0
C468 C 0.0203 0.66941 0.00855 0.0
C469 C 0.02331 0.68656 0.04485 0.0
H470 H 0.0308 0.7179 0.99919 0.0
H471 H 0.01631 0.6555 0.99896 0.0
C472 C 0.98556 0.67253 0.89552 0.0
N473 N 0.95228 0.66217 0.86682 0.0
C474 C 0.98113 0.68771 0.88815 0.0
C475 C 0.97312 0.65209 0.88821 0.0
C476 C 0.96421 0.68216 0.87369 0.0
C477 C 0.95636 0.64717 0.8737 0.0
C478 C 0.02457 0.72802 0.94802 0.0
C479 C 0.01458 0.7361 0.93487 0.0
C480 C 0.04476 0.74113 0.95572 0.0
C481 C 0.02502 0.75717 0.92955 0.0
C482 C 0.05469 0.76209 0.94996 0.0
N483 N 0.0447 0.76961 0.9371 0.0
C484 C 0.96656 0.69572 0.95806 0.0
C485 C 0.94778 0.66718 0.93317 0.0
C486 C 0.94832 0.69429 0.96605 0.0
N487 N 0.96603 0.68208 0.94222 0.0
C488 C 0.92907 0.66522 0.94067 0.0
C489 C 0.92924 0.67851 0.95787 0.0
H490 H 0.98109 0.70693 0.96568 0.0
H491 H 0.94756 0.65589 0.92143 0.0
C492 C 0.06769 0.72564 0.91358 0.0
N493 N 0.0477 0.72026 0.90943 0.0
C494 C 0.08376 0.7424 0.90216 0.0
C495 C 0.05838 0.74754 0.88197 0.0
C496 C 0.04278 0.73056 0.89367 0.0
C497 C 0.0792 0.75375 0.88631 0.0
H498 H 0.07119 0.71715 0.92608 0.0
H499 H 0.02678 0.7259 0.89059 0.0
O500 O 0.99139 0.65989 0.95915 0.0
O501 O 0.03578 0.68046 0.94231 0.0
O502 O 0.00215 0.67767 0.90952 0.0
O503 O 0.01478 0.70733 0.95295 0.0
H504 H 0.98166 0.67298 0.99692 0.0
H505 H 0.95793 0.62654 0.94386 0.0
H506 H 0.94662 0.65652 0.01424 0.0
H507 H 0.92333 0.61079 0.96226 0.0
H508 H 0.08732 0.70575 0.99548 0.0
H509 H 0.03484 0.64534 0.95221 0.0
H510 H 0.06513 0.71048 0.96727 0.0
H511 H 0.05749 0.64175 0.98075 0.0
H512 H 0.98312 0.58558 0.94107 0.0
H513 H 0.01706 0.61412 0.87874 0.0
H514 H 0.03108 0.71863 0.04144 0.0
H515 H 0.01577 0.65456 0.04123 0.0
H516 H 0.9905 0.70357 0.89373 0.0
H517 H 0.97627 0.64012 0.89375 0.0
H518 H 0.96053 0.69373 0.86796 0.0
H519 H 0.94657 0.63141 0.86796 0.0
H520 H 0.99904 0.72619 0.92859 0.0
H521 H 0.0528 0.73513 0.96574 0.0
H522 H 0.01752 0.7636 0.91929 0.0
H523 H 0.07037 0.77237 0.95565 0.0
H524 H 0.94913 0.70496 0.97917 0.0
H525 H 0.91464 0.65268 0.93415 0.0
H526 H 0.0996 0.74677 0.90616 0.0
H527 H 0.0542 0.75572 0.86968 0.0
Li528 Li 0.01452 0.68735 0.39305 0.0
Li529 Li 0.97735 0.67274 0.40322 0.0
Li530 Li 0.99324 0.65029 0.40068 0.0
Li531 Li 0.98823 0.66572 0.36735 0.0
C532 C 0.00568 0.68764 0.44017 0.0
N533 N 0.01597 0.71578 0.47559 0.0
C534 C 0.0055 0.70607 0.43663 0.0
C535 C 0.01111 0.68354 0.46169 0.0
C536 C 0.01073 0.72009 0.45477 0.0
C537 C 0.01628 0.69796 0.47938 0.0
C538 C 0.98781 0.70007 0.36064 0.0
C539 C 0.96129 0.70124 0.33808 0.0
N540 N 0.97586 0.71367 0.32257 0.0
C541 C 0.00253 0.71296 0.34455 0.0
C542 C 0.96702 0.69419 0.35743 0.0
C543 C 0.99618 0.71962 0.32538 0.0
C544 C 0.04956 0.71303 0.3704 0.0
N545 N 0.04185 0.71049 0.39204 0.0
C546 C 0.07306 0.74005 0.40502 0.0
C547 C 0.0532 0.7234 0.40943 0.0
C548 C 0.08125 0.74304 0.38267 0.0
C549 C 0.06925 0.72918 0.36532 0.0
H550 H 0.04024 0.70249 0.35695 0.0
H551 H 0.04695 0.72091 0.42661 0.0
C552 C 0.94404 0.66067 0.4332 0.0
N553 N 0.95742 0.67646 0.41951 0.0
C554 C 0.92845 0.662 0.44499 0.0
C555 C 0.9409 0.69595 0.42856 0.0
C556 C 0.95632 0.69401 0.4172 0.0
C557 C 0.92662 0.67973 0.44256 0.0
H558 H 0.94532 0.64691 0.43467 0.0
H559 H 0.96731 0.70642 0.40636 0.0
C560 C 0.03007 0.66237 0.37996 0.0
N561 N 0.06445 0.65868 0.38908 0.0
C562 C 0.03846 0.65563 0.36283 0.0
C563 C 0.03916 0.66716 0.40179 0.0
C564 C 0.05584 0.65388 0.36777 0.0
C565 C 0.05653 0.66522 0.40603 0.0
C566 C 0.95054 0.63308 0.3743 0.0
C567 C 0.9517 0.61825 0.36074 0.0
C568 C 0.93284 0.63496 0.37348 0.0
C569 C 0.93518 0.6057 0.34626 0.0
C570 C 0.91663 0.62208 0.35882 0.0
N571 N 0.91814 0.60786 0.34561 0.0
C572 C 0.99075 0.62137 0.43471 0.0
C573 C 0.99569 0.61468 0.39606 0.0
C574 C 0.99138 0.60386 0.44213 0.0
N575 N 0.993 0.62641 0.41202 0.0
C576 C 0.9967 0.5973 0.40271 0.0
C577 C 0.99464 0.59176 0.426 0.0
H578 H 0.98861 0.63102 0.447 0.0
H579 H 0.99727 0.61898 0.37812 0.0
C580 C 0.00132 0.66668 0.32297 0.0
N581 N 0.98394 0.6626 0.33468 0.0
C582 C 0.00136 0.66618 0.29909 0.0
C583 C 0.96562 0.65776 0.29934 0.0
C584 C 0.96623 0.65825 0.32339 0.0
C585 C 0.98337 0.66169 0.28694 0.0
H586 H 0.01541 0.67085 0.33218 0.0
H587 H 0.95272 0.65562 0.3329 0.0
O588 O 0.00038 0.67351 0.42282 0.0
O589 O 0.99366 0.69308 0.37933 0.0
O590 O 0.01287 0.66391 0.3753 0.0
O591 O 0.96647 0.64544 0.38865 0.0
H592 H 0.00157 0.70965 0.42005 0.0
H593 H 0.01132 0.66933 0.46469 0.0
H594 H 0.01068 0.73442 0.45226 0.0
H595 H 0.02052 0.69498 0.49614 0.0
H596 H 0.94524 0.69669 0.33532 0.0
H597 H 0.01868 0.71774 0.34677 0.0
H598 H 0.95536 0.68399 0.36951 0.0
H599 H 0.0074 0.72951 0.31274 0.0
H600 H 0.08192 0.75039 0.41887 0.0
H601 H 0.07479 0.73109 0.34779 0.0
H602 H 0.91764 0.64906 0.45541 0.0
H603 H 0.94017 0.70998 0.42647 0.0
H604 H 0.03154 0.65162 0.34591 0.0
H605 H 0.03297 0.67233 0.41536 0.0
H606 H 0.06246 0.64866 0.35466 0.0
H607 H 0.06371 0.66891 0.42283 0.0
H608 H 0.96528 0.61659 0.36122 0.0
H609 H 0.93166 0.6463 0.38397 0.0
H610 H 0.93591 0.59425 0.33553 0.0
H611 H 0.90287 0.62342 0.35793 0.0
H612 H 0.98975 0.60004 0.46025 0.0
H613 H 0.9989 0.58818 0.38972 0.0
H614 H 0.01554 0.66984 0.29019 0.0
H615 H 0.95147 0.65436 0.29056 0.0
Li616 Li 0.32799 0.01726 0.72522 0.0
Li617 Li 0.30582 0.98076 0.73788 0.0
Li618 Li 0.3438 0.99604 0.73254 0.0
Li619 Li 0.32136 0.98958 0.70059 0.0
C620 C 0.32158 0.01096 0.77288 0.0
N621 N 0.30603 0.02366 0.80847 0.0
C622 C 0.30283 0.0107 0.77026 0.0
C623 C 0.33242 0.0177 0.79358 0.0
C624 C 0.29522 0.01716 0.78847 0.0
C625 C 0.32431 0.02407 0.81137 0.0
C626 C 0.28643 0.98921 0.69623 0.0
C627 C 0.25804 0.96144 0.67573 0.0
N628 N 0.25862 0.97531 0.66017 0.0
C629 C 0.28664 0.00321 0.68013 0.0
C630 C 0.27198 0.96817 0.69407 0.0
C631 C 0.2725 0.99586 0.66198 0.0
C632 C 0.33573 0.051 0.70089 0.0
N633 N 0.33255 0.04468 0.72314 0.0
C634 C 0.33662 0.07717 0.73514 0.0
C635 C 0.33312 0.05733 0.74033 0.0
C636 C 0.33988 0.08397 0.71217 0.0
C637 C 0.33944 0.07058 0.695 0.0
H638 H 0.3353 0.04067 0.68763 0.0
H639 H 0.33091 0.05214 0.75796 0.0
C640 C 0.28629 0.94872 0.76958 0.0
N641 N 0.2831 0.96157 0.75586 0.0
C642 C 0.2699 0.93306 0.78188 0.0
C643 C 0.24734 0.94452 0.76618 0.0
C644 C 0.26421 0.96003 0.75423 0.0
C645 C 0.25 0.93057 0.77998 0.0
H646 H 0.30153 0.9504 0.77055 0.0
H647 H 0.26213 0.97052 0.74323 0.0
C648 C 0.36748 0.0315 0.70876 0.0
N649 N 0.40624 0.06604 0.71364 0.0
C650 C 0.38104 0.03895 0.69007 0.0
C651 C 0.37368 0.0416 0.72997 0.0
C652 C 0.40056 0.05644 0.69288 0.0
C653 C 0.39332 0.05904 0.73207 0.0
C654 C 0.31656 0.95201 0.70937 0.0
C655 C 0.33163 0.95226 0.6949 0.0
C656 C 0.29703 0.93428 0.71066 0.0
C657 C 0.3268 0.93478 0.6817 0.0
C658 C 0.29283 0.9171 0.69722 0.0
N659 N 0.30766 0.91772 0.68312 0.0
C660 C 0.3721 0.9954 0.76522 0.0
C661 C 0.38069 0.99627 0.72584 0.0
C662 C 0.39009 0.99527 0.77174 0.0
N663 N 0.36782 0.99584 0.74258 0.0
C664 C 0.39873 0.99612 0.73154 0.0
C665 C 0.4036 0.9955 0.75474 0.0
H666 H 0.36154 0.99508 0.77815 0.0
H667 H 0.37698 0.99685 0.708 0.0
C668 C 0.32894 0.00131 0.6555 0.0
N669 N 0.31788 0.98391 0.66822 0.0
C670 C 0.32705 0.00075 0.63171 0.0
C671 C 0.30254 0.96414 0.63412 0.0
C672 C 0.30478 0.96546 0.65805 0.0
C673 C 0.3136 0.98205 0.62073 0.0
H674 H 0.33891 0.01585 0.6639 0.0
H675 H 0.2956 0.95192 0.66842 0.0
O676 O 0.32936 0.00458 0.75542 0.0
O677 O 0.30048 0.99602 0.71383 0.0
O678 O 0.34835 0.01429 0.70615 0.0
O679 O 0.32102 0.96887 0.72259 0.0
H680 H 0.2943 0.00574 0.75433 0.0
H681 H 0.34698 0.01802 0.79586 0.0
H682 H 0.28075 0.01705 0.78667 0.0
H683 H 0.33255 0.02933 0.82749 0.0
H684 H 0.24688 0.94518 0.67377 0.0
H685 H 0.29763 0.01955 0.68156 0.0
H686 H 0.27176 0.95708 0.70618 0.0
H687 H 0.27257 0.00651 0.64932 0.0
H688 H 0.33695 0.08711 0.74888 0.0
H689 H 0.3415 0.07502 0.67705 0.0
H690 H 0.27277 0.92292 0.79262 0.0
H691 H 0.23227 0.9431 0.76403 0.0
H692 H 0.37657 0.03125 0.67357 0.0
H693 H 0.36352 0.03613 0.74468 0.0
H694 H 0.4112 0.06236 0.67855 0.0
H695 H 0.39829 0.06702 0.74837 0.0
H696 H 0.3468 0.96586 0.6937 0.0
H697 H 0.28523 0.93378 0.72186 0.0
H698 H 0.33826 0.93479 0.67031 0.0
H699 H 0.27776 0.90329 0.69797 0.0
H700 H 0.39323 0.9947 0.78981 0.0
H701 H 0.4089 0.99674 0.7179 0.0
H702 H 0.33604 0.01486 0.622 0.0
H703 H 0.29185 0.94946 0.62625 0.0
Li704 Li 0.30407 0.3184 0.0634 0.0
Li705 Li 0.32348 0.30268 0.07407 0.0
Li706 Li 0.34129 0.34121 0.069 0.0
Li707 Li 0.32702 0.31598 0.03615 0.0
C708 C 0.3088 0.32811 0.10722 0.0
N709 N 0.28561 0.33728 0.13694 0.0
C710 C 0.28955 0.31244 0.11495 0.0
C711 C 0.3163 0.34842 0.1147 0.0
C712 C 0.27804 0.3174 0.12992 0.0
C713 C 0.30434 0.35275 0.12972 0.0
C714 C 0.29203 0.27255 0.05456 0.0
C715 C 0.28974 0.23924 0.05133 0.0
N716 N 0.27284 0.23093 0.06524 0.0
C717 C 0.27461 0.26365 0.06881 0.0
C718 C 0.29961 0.26023 0.04568 0.0
C719 C 0.26512 0.24259 0.07399 0.0
C720 C 0.26324 0.30311 0.04975 0.0
N721 N 0.27827 0.3182 0.06289 0.0
C722 C 0.25902 0.33587 0.06522 0.0
C723 C 0.27632 0.33424 0.07099 0.0
C724 C 0.24364 0.32085 0.051 0.0
C725 C 0.24565 0.30401 0.04378 0.0
H726 H 0.26553 0.29108 0.04252 0.0
H727 H 0.2888 0.34654 0.08056 0.0
C728 C 0.33934 0.27692 0.08693 0.0
N729 N 0.32435 0.2816 0.09179 0.0
C730 C 0.33971 0.26061 0.09816 0.0
C731 C 0.30946 0.25449 0.11966 0.0
C732 C 0.3098 0.27106 0.10813 0.0
C733 C 0.32444 0.24891 0.11455 0.0
H734 H 0.35091 0.28572 0.07412 0.0
H735 H 0.29811 0.27514 0.11177 0.0
C736 C 0.31427 0.349 0.03256 0.0
N737 N 0.29189 0.36523 0.0126 0.0
C738 C 0.30081 0.33867 0.01432 0.0
C739 C 0.31646 0.36765 0.04054 0.0
C740 C 0.28959 0.3471 0.00451 0.0
C741 C 0.30499 0.3756 0.03022 0.0
C742 C 0.36457 0.32338 0.04202 0.0
C743 C 0.38172 0.34286 0.03779 0.0
C744 C 0.36223 0.30624 0.02975 0.0
C745 C 0.39612 0.34491 0.02115 0.0
C746 C 0.37695 0.30893 0.01322 0.0
N747 N 0.39344 0.32805 0.00929 0.0
C748 C 0.37238 0.36936 0.09899 0.0
C749 C 0.37031 0.38331 0.06314 0.0
C750 C 0.38959 0.38818 0.10525 0.0
N751 N 0.36324 0.36732 0.07821 0.0
C752 C 0.38754 0.40234 0.06861 0.0
C753 C 0.39755 0.40494 0.08985 0.0
H754 H 0.36644 0.35628 0.11055 0.0
H755 H 0.36297 0.38106 0.04654 0.0
C756 C 0.31669 0.29613 0.99295 0.0
N757 N 0.33007 0.31384 0.00409 0.0
C758 C 0.3162 0.29552 0.96899 0.0
C759 C 0.34358 0.33127 0.96843 0.0
C760 C 0.34355 0.33117 0.99242 0.0
C761 C 0.32942 0.3134 0.95641 0.0
H762 H 0.30572 0.28277 0.00262 0.0
H763 H 0.35357 0.34521 0.00177 0.0
O764 O 0.32034 0.32357 0.09261 0.0
O765 O 0.30181 0.29326 0.04966 0.0
O766 O 0.32487 0.34066 0.04289 0.0
O767 O 0.35009 0.32112 0.05797 0.0
H768 H 0.28344 0.29668 0.10924 0.0
H769 H 0.3311 0.36077 0.10884 0.0
H770 H 0.26307 0.30545 0.13592 0.0
H771 H 0.30992 0.36841 0.13558 0.0
H772 H 0.29555 0.22958 0.0447 0.0
H773 H 0.26861 0.27293 0.07607 0.0
H774 H 0.31314 0.26682 0.03477 0.0
H775 H 0.2517 0.23554 0.08508 0.0
H776 H 0.25807 0.34915 0.07105 0.0
H777 H 0.23443 0.29236 0.03233 0.0
H778 H 0.35183 0.25721 0.09401 0.0
H779 H 0.29727 0.24584 0.13198 0.0
H780 H 0.29876 0.32411 0.00809 0.0
H781 H 0.32665 0.37572 0.0548 0.0
H782 H 0.27897 0.33918 0.99053 0.0
H783 H 0.30642 0.38994 0.03632 0.0
H784 H 0.38392 0.35628 0.04721 0.0
H785 H 0.34906 0.29106 0.03274 0.0
H786 H 0.40942 0.35992 0.01765 0.0
H787 H 0.37523 0.29581 0.00349 0.0
H788 H 0.39665 0.38953 0.12189 0.0
H789 H 0.39333 0.41463 0.05599 0.0
H790 H 0.30516 0.28138 0.96041 0.0
H791 H 0.35381 0.34549 0.95945 0.0
Li792 Li 0.01876 0.32477 0.4073 0.0
Li793 Li 0.98138 0.30902 0.39942 0.0
Li794 Li 0.00648 0.32951 0.3698 0.0
Li795 Li 0.00136 0.34555 0.40353 0.0
C796 C 0.00012 0.28986 0.36768 0.0
N797 N 0.99621 0.26267 0.33314 0.0
C798 C 0.98099 0.27748 0.35705 0.0
C799 C 0.0172 0.28819 0.36089 0.0
C800 C 0.97935 0.26389 0.33958 0.0
C801 C 0.01492 0.27442 0.34336 0.0
C802 C 0.98403 0.31113 0.44348 0.0
C803 C 0.95195 0.29563 0.4646 0.0
N804 N 0.95723 0.28257 0.4749 0.0
C805 C 0.98918 0.29761 0.45431 0.0
C806 C 0.96531 0.31021 0.44869 0.0
C807 C 0.97541 0.28326 0.47014 0.0
C808 C 0.05445 0.33932 0.43423 0.0
N809 N 0.03983 0.32246 0.42281 0.0
C810 C 0.05662 0.30336 0.43238 0.0
C811 C 0.04046 0.30461 0.42184 0.0
C812 C 0.0722 0.32065 0.44403 0.0
C813 C 0.07085 0.33876 0.44503 0.0
H814 H 0.05346 0.35329 0.43472 0.0
H815 H 0.02854 0.29143 0.41267 0.0
C816 C 0.93861 0.28521 0.39331 0.0
N817 N 0.9551 0.28471 0.40244 0.0
C818 C 0.92004 0.26691 0.38962 0.0
C819 C 0.93538 0.24795 0.406 0.0
C820 C 0.95371 0.26668 0.40938 0.0
C821 C 0.91847 0.24787 0.39521 0.0
H822 H 0.94029 0.29964 0.38733 0.0
H823 H 0.96724 0.26671 0.41609 0.0
C824 C 0.04761 0.36032 0.38088 0.0
N825 N 0.08735 0.37908 0.36345 0.0
C826 C 0.05874 0.38173 0.37768 0.0
C827 C 0.05673 0.34848 0.37532 0.0
C828 C 0.0788 0.39092 0.36879 0.0
C829 C 0.07683 0.35823 0.36653 0.0
C830 C 0.97378 0.34273 0.37406 0.0
C831 C 0.98086 0.35552 0.3547 0.0
C832 C 0.95946 0.34374 0.38873 0.0
C833 C 0.97355 0.36915 0.35039 0.0
C834 C 0.95258 0.35761 0.38386 0.0
N835 N 0.9597 0.36992 0.36495 0.0
C836 C 0.99135 0.31801 0.3261 0.0
C837 C 0.02717 0.34248 0.32517 0.0
C838 C 0.99059 0.31682 0.30222 0.0
N839 N 0.00946 0.33048 0.33712 0.0
C840 C 0.02706 0.342 0.30113 0.0
C841 C 0.00856 0.32903 0.28931 0.0
H842 H 0.97737 0.30906 0.33595 0.0
H843 H 0.04132 0.35271 0.33408 0.0
C844 C 0.99415 0.37078 0.43473 0.0
N845 N 0.00188 0.36995 0.41386 0.0
C846 C 0.99381 0.38859 0.44143 0.0
C847 C 0.00959 0.40431 0.40512 0.0
C848 C 0.00976 0.38631 0.39923 0.0
C849 C 0.00148 0.40564 0.42646 0.0
H850 H 0.98813 0.35758 0.44609 0.0
H851 H 0.01576 0.38516 0.38272 0.0
O852 O 0.00207 0.30332 0.38482 0.0
O853 O 0.99713 0.325 0.42761 0.0
O854 O 0.02805 0.35115 0.38981 0.0
O855 O 0.98104 0.32955 0.37882 0.0
H856 H 0.9676 0.27856 0.36188 0.0
H857 H 0.03206 0.29731 0.3691 0.0
H858 H 0.96466 0.25437 0.33111 0.0
H859 H 0.02804 0.27304 0.33791 0.0
H860 H 0.93735 0.29466 0.46871 0.0
H861 H 0.00359 0.29809 0.45042 0.0
H862 H 0.96104 0.32047 0.44033 0.0
H863 H 0.97915 0.27265 0.47861 0.0
H864 H 0.05713 0.28916 0.43098 0.0
H865 H 0.08231 0.35234 0.45413 0.0
H866 H 0.90761 0.26764 0.38089 0.0
H867 H 0.93478 0.23364 0.41075 0.0
H868 H 0.05198 0.39116 0.38204 0.0
H869 H 0.04834 0.33194 0.37766 0.0
H870 H 0.08758 0.40747 0.36617 0.0
H871 H 0.08405 0.34923 0.36212 0.0
H872 H 0.99208 0.35515 0.34326 0.0
H873 H 0.95399 0.33414 0.40393 0.0
H874 H 0.97897 0.37919 0.33553 0.0
H875 H 0.94163 0.35866 0.39517 0.0
H876 H 0.97601 0.30637 0.29402 0.0
H877 H 0.04122 0.35201 0.29194 0.0
H878 H 0.98768 0.38901 0.45816 0.0
H879 H 0.01532 0.41685 0.39282 0.0
Li880 Li 0.6972 0.02205 0.74082 0.0
Li881 Li 0.67839 0.98711 0.7284 0.0
Li882 Li 0.68401 0.01272 0.7013 0.0
Li883 Li 0.65851 0.00389 0.73371 0.0
C884 C 0.72456 0.02343 0.70889 0.0
N885 N 0.76327 0.05287 0.69338 0.0
C886 C 0.74037 0.01864 0.70691 0.0
C887 C 0.72848 0.04322 0.70298 0.0
C888 C 0.75982 0.03373 0.69904 0.0
C889 C 0.74813 0.05787 0.69517 0.0
C890 C 0.67181 0.98426 0.77354 0.0
C891 C 0.65029 0.95687 0.79977 0.0
N892 N 0.66691 0.95504 0.80578 0.0
C893 C 0.68873 0.98227 0.78011 0.0
C894 C 0.65245 0.97159 0.78351 0.0
C895 C 0.68591 0.96732 0.79638 0.0
C896 C 0.71771 0.05867 0.76701 0.0
N897 N 0.7189 0.04214 0.75921 0.0
C898 C 0.75244 0.05534 0.7758 0.0
C899 C 0.73563 0.04004 0.76363 0.0
C900 C 0.75189 0.07285 0.78367 0.0
C901 C 0.73413 0.0743 0.77938 0.0
H902 H 0.70413 0.05983 0.76334 0.0
H903 H 0.73604 0.0266 0.75742 0.0
C904 C 0.69104 0.96025 0.71356 0.0
N905 N 0.67741 0.96091 0.72851 0.0
C906 C 0.69003 0.94158 0.70839 0.0
C907 C 0.66116 0.92437 0.73452 0.0
C908 C 0.66284 0.94352 0.73933 0.0
C909 C 0.67467 0.92324 0.71853 0.0
H910 H 0.70203 0.97408 0.7046 0.0
H911 H 0.65175 0.9442 0.75065 0.0
C912 C 0.67611 0.04554 0.71305 0.0
N913 N 0.66594 0.073 0.69346 0.0
C914 C 0.65729 0.03822 0.70154 0.0
C915 C 0.6898 0.06683 0.71451 0.0
C916 C 0.65241 0.05234 0.69179 0.0
C917 C 0.68438 0.08046 0.70449 0.0
C918 C 0.64532 0.9666 0.70254 0.0
C919 C 0.64923 0.95795 0.68322 0.0
C920 C 0.62911 0.95397 0.71734 0.0
C921 C 0.63697 0.93674 0.67916 0.0
C922 C 0.61712 0.93285 0.71261 0.0
N923 N 0.6213 0.92473 0.69381 0.0
C924 C 0.69548 0.00617 0.65897 0.0
C925 C 0.68578 0.03186 0.65689 0.0
C926 C 0.69739 0.00619 0.63516 0.0
N927 N 0.68924 0.01845 0.66929 0.0
C928 C 0.68745 0.03237 0.63293 0.0
C929 C 0.69286 0.01905 0.62175 0.0
H930 H 0.6982 0.9957 0.66927 0.0
H931 H 0.68122 0.04179 0.66535 0.0
C932 C 0.63219 0.01108 0.76273 0.0
N933 N 0.63329 0.00235 0.74267 0.0
C934 C 0.614 0.01103 0.76868 0.0
C935 C 0.59848 0.99274 0.73336 0.0
C936 C 0.61688 0.99313 0.72814 0.0
C937 C 0.59693 0.002 0.75372 0.0
H938 H 0.64556 0.0184 0.77389 0.0
H939 H 0.61822 0.98643 0.71222 0.0
O940 O 0.70552 0.00876 0.71685 0.0
O941 O 0.67424 0.99882 0.75773 0.0
O942 O 0.68108 0.03203 0.72309 0.0
O943 O 0.65743 0.98728 0.7071 0.0
H944 H 0.73768 0.00346 0.71156 0.0
H945 H 0.71656 0.04731 0.70436 0.0
H946 H 0.77219 0.03023 0.69747 0.0
H947 H 0.75135 0.07323 0.69054 0.0
H948 H 0.63538 0.94687 0.80756 0.0
H949 H 0.70381 0.99204 0.77256 0.0
H950 H 0.63924 0.97305 0.77864 0.0
H951 H 0.69882 0.96549 0.80153 0.0
H952 H 0.7657 0.05348 0.77903 0.0
H953 H 0.73314 0.0876 0.78501 0.0
H954 H 0.70046 0.94139 0.69558 0.0
H955 H 0.64908 0.91057 0.7427 0.0
H956 H 0.64682 0.02182 0.69963 0.0
H957 H 0.7045 0.07276 0.72323 0.0
H958 H 0.63792 0.04688 0.68276 0.0
H959 H 0.69483 0.09697 0.70549 0.0
H960 H 0.66167 0.96744 0.67157 0.0
H961 H 0.62608 0.9603 0.7326 0.0
H962 H 0.63993 0.92982 0.66437 0.0
H963 H 0.60463 0.92287 0.72401 0.0
H964 H 0.70139 0.9955 0.62732 0.0
H965 H 0.68416 0.04278 0.62324 0.0
H966 H 0.6135 0.01847 0.78445 0.0
H967 H 0.58561 0.98534 0.7215 0.0
Li968 Li 0.66922 0.69298 0.06835 0.0
Li969 Li 0.68588 0.67269 0.05696 0.0
Li970 Li 0.66434 0.67753 0.0311 0.0
Li971 Li 0.64862 0.6549 0.06291 0.0
C972 C 0.69709 0.71431 0.02815 0.0
N973 N 0.70947 0.74356 0.99364 0.0
C974 C 0.71236 0.7167 0.01251 0.0
C975 C 0.68823 0.7269 0.02632 0.0
C976 C 0.71835 0.73154 0.99515 0.0
C977 C 0.69469 0.74159 0.00876 0.0
C978 C 0.68426 0.67918 0.10439 0.0
C979 C 0.69325 0.67879 0.14413 0.0
N980 N 0.71132 0.69678 0.14079 0.0
C981 C 0.70294 0.69765 0.10134 0.0
C982 C 0.67937 0.66965 0.12594 0.0
C983 C 0.7164 0.70631 0.11996 0.0
C984 C 0.65447 0.71228 0.098 0.0
N985 N 0.67135 0.71535 0.08594 0.0
C986 C 0.69011 0.75073 0.09765 0.0
C987 C 0.68908 0.734 0.08576 0.0
C988 C 0.67273 0.7482 0.10984 0.0
C989 C 0.6548 0.72858 0.11012 0.0
H990 H 0.64062 0.69722 0.09785 0.0
H991 H 0.70228 0.73599 0.07601 0.0
C992 C 0.71584 0.67047 0.03394 0.0
N993 N 0.71013 0.67048 0.05607 0.0
C994 C 0.73376 0.66996 0.02887 0.0
C995 C 0.73932 0.66844 0.06959 0.0
C996 C 0.72116 0.66906 0.07391 0.0
C997 C 0.74597 0.66931 0.04679 0.0
H998 H 0.70645 0.67104 0.02016 0.0
H999 H 0.71604 0.66859 0.09139 0.0
C1000 C 0.62967 0.67939 0.03816 0.0
N1001 N 0.603 0.68503 0.01018 0.0
C1002 C 0.61641 0.66369 0.02318 0.0
C1003 C 0.62926 0.69788 0.03907 0.0
C1004 C 0.60308 0.66687 0.00911 0.0
C1005 C 0.61568 0.70045 0.02475 0.0
C1006 C 0.66325 0.63294 0.04032 0.0
C1007 C 0.65855 0.61949 0.0217 0.0
C1008 C 0.66711 0.62727 0.06187 0.0
C1009 C 0.65786 0.60061 0.02491 0.0
C1010 C 0.66627 0.60826 0.06438 0.0
N1011 N 0.6617 0.59543 0.04601 0.0
C1012 C 0.67095 0.67073 0.98667 0.0
C1013 C 0.65637 0.69255 0.98758 0.0
C1014 C 0.67273 0.67232 0.96289 0.0
N1015 N 0.66289 0.68072 0.99856 0.0
C1016 C 0.65769 0.69443 0.96361 0.0
C1017 C 0.66617 0.68437 0.95105 0.0
H1018 H 0.67643 0.66179 0.99573 0.0
H1019 H 0.65062 0.70092 0.99733 0.0
C1020 C 0.61954 0.62619 0.09504 0.0
N1021 N 0.62489 0.63021 0.07251 0.0
C1022 C 0.60143 0.60813 0.10135 0.0
C1023 C 0.59492 0.59881 0.06115 0.0
C1024 C 0.61316 0.61689 0.05568 0.0
C1025 C 0.58875 0.59433 0.08422 0.0
H1026 H 0.62919 0.63713 0.10805 0.0
H1027 H 0.61794 0.62039 0.03793 0.0
O1028 O 0.6906 0.69952 0.04495 0.0
O1029 O 0.67069 0.67039 0.08653 0.0
O1030 O 0.64271 0.67653 0.0522 0.0
O1031 O 0.66386 0.65143 0.0373 0.0
H1032 H 0.7195 0.70723 0.0137 0.0
H1033 H 0.67627 0.72514 0.0381 0.0
H1034 H 0.73007 0.73348 0.98287 0.0
H1035 H 0.68786 0.75133 0.00708 0.0
H1036 H 0.68966 0.67157 0.16091 0.0
H1037 H 0.70713 0.70517 0.08479 0.0
H1038 H 0.66499 0.65532 0.12858 0.0
H1039 H 0.73091 0.72059 0.11783 0.0
H1040 H 0.70416 0.76561 0.09675 0.0
H1041 H 0.64116 0.72585 0.11956 0.0
H1042 H 0.73803 0.67011 0.01105 0.0
H1043 H 0.7483 0.6678 0.08387 0.0
H1044 H 0.61658 0.64933 0.02221 0.0
H1045 H 0.63932 0.71014 0.05068 0.0
H1046 H 0.59283 0.65492 0.99732 0.0
H1047 H 0.61524 0.71471 0.02522 0.0
H1048 H 0.6554 0.62356 0.00493 0.0
H1049 H 0.67073 0.63736 0.07655 0.0
H1050 H 0.65423 0.59006 0.01064 0.0
H1051 H 0.66925 0.6037 0.08095 0.0
H1052 H 0.67914 0.66413 0.95385 0.0
H1053 H 0.65264 0.70402 0.95505 0.0
H1054 H 0.59714 0.60522 0.11931 0.0
H1055 H 0.58576 0.5884 0.04748 0.0
H1056 H 0.3595 0.11194 0.20334 0.0
H1057 H 0.35805 0.14103 0.18594 0.0
H1058 H 0.29193 0.1092 0.19596 0.0
H1059 H 0.29327 0.07991 0.213 0.0
H1060 H 0.30233 0.12605 0.15387 0.0
H1061 H 0.35083 0.1845 0.21893 0.0
H1062 H 0.36368 0.17217 0.20601 0.0
H1063 H 0.34084 0.15719 0.22311 0.0
C1064 C 0.34469 0.11122 0.20193 0.0
C1065 C 0.32651 0.09372 0.20958 0.0
C1066 C 0.34388 0.12787 0.19209 0.0
C1067 C 0.32494 0.12747 0.19009 0.0
C1068 C 0.30673 0.10987 0.19743 0.0
H1069 H 0.31483 0.2363 0.15941 0.0
H1070 H 0.31349 0.20616 0.17763 0.0
C1071 C 0.3075 0.09314 0.20708 0.0
C1072 C 0.32403 0.14519 0.17987 0.0
H1073 H 0.34384 0.19732 0.18454 0.0
C1074 C 0.31131 0.14162 0.16065 0.0
C1075 C 0.33546 0.16543 0.18899 0.0
C1076 C 0.3483 0.17005 0.21054 0.0
C1077 C 0.31007 0.15781 0.14997 0.0
C1078 C 0.32231 0.17821 0.15839 0.0
C1079 C 0.33465 0.18171 0.17793 0.0
C1080 C 0.32265 0.19619 0.14711 0.0
C1081 C 0.29541 0.15282 0.13 0.0
C1082 C 0.32843 0.2007 0.12397 0.0
C1083 C 0.32891 0.21773 0.1134 0.0
C1084 C 0.32394 0.23081 0.12588 0.0
C1085 C 0.31843 0.22639 0.14918 0.0
C1086 C 0.31781 0.20925 0.15968 0.0
H1087 H 0.28286 0.13638 0.13032 0.0
H1088 H 0.2883 0.1628 0.13004 0.0
H1089 H 0.30407 0.15544 0.11368 0.0
H1090 H 0.33269 0.19112 0.11406 0.0
H1091 H 0.33299 0.2205 0.09538 0.0
H1092 H 0.22963 0.3484 0.56049 0.0
H1093 H 0.19949 0.34636 0.54147 0.0
H1094 H 0.1927 0.29525 0.50041 0.0
H1095 H 0.22333 0.29765 0.51874 0.0
H1096 H 0.18904 0.32438 0.47499 0.0
H1097 H 0.13923 0.30257 0.55246 0.0
H1098 H 0.16371 0.32579 0.55612 0.0
H1099 H 0.16288 0.30156 0.55153 0.0
C1100 C 0.22186 0.33684 0.54726 0.0
C1101 C 0.22888 0.32315 0.54118 0.0
C1102 C 0.20446 0.33553 0.53662 0.0
C1103 C 0.19363 0.3204 0.51985 0.0
C1104 C 0.20073 0.30691 0.51348 0.0
H1105 H 0.07159 0.28877 0.46813 0.0
H1106 H 0.10092 0.28772 0.48546 0.0
C1107 C 0.21816 0.30822 0.52408 0.0
C1108 C 0.17516 0.31898 0.50857 0.0
H1109 H 0.12731 0.31248 0.51946 0.0
C1110 C 0.17548 0.32166 0.48467 0.0
C1111 C 0.15737 0.31509 0.52121 0.0
C1112 C 0.15562 0.31088 0.54671 0.0
C1113 C 0.15871 0.32111 0.47313 0.0
C1114 C 0.14132 0.31819 0.48592 0.0
C1115 C 0.14076 0.31494 0.50973 0.0
C1116 C 0.12366 0.31871 0.47497 0.0
C1117 C 0.15969 0.32347 0.44733 0.0
C1118 C 0.1267 0.33655 0.46353 0.0
C1119 C 0.11002 0.33714 0.45344 0.0
C1120 C 0.08991 0.31996 0.45479 0.0
C1121 C 0.0869 0.30216 0.46648 0.0
C1122 C 0.10362 0.30157 0.47652 0.0
H1123 H 0.17094 0.31957 0.43965 0.0
H1124 H 0.14429 0.31346 0.43941 0.0
H1125 H 0.16476 0.33978 0.44292 0.0
H1126 H 0.14197 0.35009 0.46251 0.0
H1127 H 0.11294 0.35102 0.44439 0.0
H1128 H 0.79276 0.08992 0.77255 0.0
H1129 H 0.82246 0.11837 0.79182 0.0
H1130 H 0.78163 0.12253 0.84127 0.0
H1131 H 0.75179 0.09412 0.82196 0.0
H1132 H 0.80968 0.16011 0.82408 0.0
H1133 H 0.84951 0.11804 0.85214 0.0
H1134 H 0.84425 0.11584 0.82186 0.0
H1135 H 0.82312 0.10492 0.84199 0.0
C1136 C 0.79013 0.09669 0.78773 0.0
C1137 C 0.76994 0.08972 0.79581 0.0
C1138 C 0.80712 0.11292 0.79875 0.0
C1139 C 0.80429 0.12233 0.81821 0.0
C1140 C 0.78416 0.11542 0.82632 0.0
H1141 H 0.9018 0.20901 0.9092 0.0
H1142 H 0.87205 0.17877 0.89221 0.0
C1143 C 0.76714 0.09925 0.81523 0.0
C1144 C 0.82223 0.14001 0.82948 0.0
H1145 H 0.86888 0.15485 0.85478 0.0
C1146 C 0.82257 0.15894 0.83092 0.0
C1147 C 0.83891 0.13836 0.83865 0.0
C1148 C 0.83889 0.11815 0.83882 0.0
C1149 C 0.83933 0.1764 0.84085 0.0
C1150 C 0.85641 0.17499 0.84912 0.0
C1151 C 0.85589 0.15595 0.84815 0.0
C1152 C 0.87488 0.19308 0.85906 0.0
C1153 C 0.83843 0.1961 0.84269 0.0
C1154 C 0.8866 0.21098 0.84588 0.0
C1155 C 0.90357 0.22827 0.85554 0.0
C1156 C 0.90928 0.2279 0.87849 0.0
C1157 C 0.89788 0.20972 0.89143 0.0
C1158 C 0.88084 0.19247 0.88178 0.0
H1159 H 0.82229 0.19306 0.84158 0.0
H1160 H 0.84531 0.20424 0.85911 0.0
H1161 H 0.84732 0.20654 0.82831 0.0
H1162 H 0.88259 0.21159 0.82813 0.0
H1163 H 0.91227 0.24192 0.84503 0.0
H1164 H 0.64202 0.75805 0.11116 0.0
H1165 H 0.64284 0.7878 0.12972 0.0
H1166 H 0.70514 0.80893 0.15287 0.0
H1167 H 0.70423 0.7788 0.13498 0.0
H1168 H 0.67957 0.81053 0.18685 0.0
H1169 H 0.67474 0.84744 0.10611 0.0
H1170 H 0.65445 0.82107 0.10937 0.0
H1171 H 0.6808 0.82686 0.10648 0.0
C1172 C 0.65583 0.76889 0.12041 0.0
C1173 C 0.67309 0.76607 0.12154 0.0
C1174 C 0.65636 0.78602 0.13076 0.0
C1175 C 0.67418 0.80074 0.1423 0.0
C1176 C 0.6913 0.79782 0.14386 0.0
H1177 H 0.7001 0.92313 0.18477 0.0
H1178 H 0.7009 0.89385 0.16694 0.0
C1179 C 0.6908 0.78067 0.13351 0.0
C1180 C 0.67485 0.81907 0.15299 0.0
H1181 H 0.67066 0.86159 0.14104 0.0
C1182 C 0.67771 0.82175 0.17685 0.0
C1183 C 0.67271 0.83382 0.13983 0.0
C1184 C 0.6707 0.83232 0.114 0.0
C1185 C 0.67803 0.83859 0.18799 0.0
C1186 C 0.67508 0.85289 0.17493 0.0
C1187 C 0.67269 0.85046 0.15102 0.0
C1188 C 0.67451 0.87055 0.18577 0.0
C1189 C 0.68178 0.84104 0.21357 0.0
C1190 C 0.65922 0.86712 0.202 0.0
C1191 C 0.6588 0.8838 0.21232 0.0
C1192 C 0.6736 0.90425 0.20648 0.0
C1193 C 0.68868 0.9076 0.18989 0.0
C1194 C 0.68908 0.89089 0.17959 0.0
H1195 H 0.68914 0.8322 0.21987 0.0
H1196 H 0.6918 0.85756 0.21828 0.0
H1197 H 0.66676 0.83511 0.22259 0.0
H1198 H 0.6476 0.85153 0.20669 0.0
H1199 H 0.64709 0.88067 0.22516 0.0
H1200 H 0.91264 0.66874 0.48666 0.0
H1201 H 0.88334 0.66933 0.50489 0.0
H1202 H 0.87286 0.69431 0.44285 0.0
H1203 H 0.90195 0.69354 0.42438 0.0
H1204 H 0.8767 0.7053 0.50994 0.0
H1205 H 0.81653 0.64041 0.45811 0.0
H1206 H 0.8425 0.6448 0.46116 0.0
H1207 H 0.83754 0.66092 0.44244 0.0
C1208 C 0.90405 0.6743 0.47688 0.0
C1209 C 0.90954 0.68101 0.45405 0.0
C1210 C 0.88742 0.67472 0.48735 0.0
C1211 C 0.87587 0.68166 0.47511 0.0
C1212 C 0.8815 0.68872 0.45248 0.0
H1213 H 0.76301 0.68361 0.50591 0.0
H1214 H 0.79389 0.68648 0.48779 0.0
C1215 C 0.89821 0.68842 0.44204 0.0
C1216 C 0.85777 0.68129 0.48593 0.0
H1217 H 0.80509 0.65718 0.48359 0.0
C1218 C 0.86102 0.69479 0.50425 0.0
C1219 C 0.83741 0.66761 0.47832 0.0
C1220 C 0.83313 0.65247 0.45903 0.0
C1221 C 0.84437 0.69514 0.51505 0.0
C1222 C 0.82394 0.68124 0.50765 0.0
C1223 C 0.82075 0.66781 0.48923 0.0
C1224 C 0.80561 0.68016 0.51892 0.0
C1225 C 0.84887 0.7107 0.53393 0.0
C1226 C 0.80185 0.67548 0.5424 0.0
C1227 C 0.78435 0.67408 0.55287 0.0
C1228 C 0.77009 0.67706 0.54001 0.0
C1229 C 0.77381 0.68154 0.51642 0.0
C1230 C 0.79138 0.68305 0.50599 0.0
H1231 H 0.86495 0.72393 0.53282 0.0
H1232 H 0.838 0.71676 0.53327 0.0
H1233 H 0.84711 0.70311 0.55083 0.0
H1234 H 0.81237 0.67273 0.55261 0.0
H1235 H 0.7821 0.67082 0.57111 0.0
H1236 H 0.24199 0.89077 0.78467 0.0
H1237 H 0.21237 0.86185 0.80338 0.0
H1238 H 0.18742 0.90137 0.81981 0.0
H1239 H 0.21726 0.93061 0.80151 0.0
H1240 H 0.19872 0.8599 0.85049 0.0
H1241 H 0.1396 0.8506 0.78598 0.0
H1242 H 0.167 0.86463 0.77987 0.0
H1243 H 0.15569 0.87621 0.79732 0.0
C1244 C 0.23036 0.89343 0.79249 0.0
C1245 C 0.23205 0.91306 0.79161 0.0
C1246 C 0.21337 0.87684 0.80303 0.0
C1247 C 0.19764 0.87945 0.81272 0.0
C1248 C 0.19926 0.89899 0.81207 0.0
H1249 H 0.08201 0.7913 0.87934 0.0
H1250 H 0.11069 0.82223 0.86192 0.0
C1251 C 0.21631 0.91565 0.80158 0.0
C1252 C 0.17973 0.8617 0.8238 0.0
H1253 H 0.12777 0.82872 0.81842 0.0
C1254 C 0.18319 0.85307 0.84352 0.0
C1255 C 0.15952 0.85297 0.81469 0.0
C1256 C 0.15512 0.86142 0.79321 0.0
C1257 C 0.16693 0.83588 0.85446 0.0
C1258 C 0.14677 0.82682 0.84506 0.0
C1259 C 0.14326 0.83567 0.82553 0.0
C1260 C 0.12921 0.80794 0.85505 0.0
C1261 C 0.17145 0.82779 0.87616 0.0
C1262 C 0.12993 0.78955 0.85649 0.0
C1263 C 0.1136 0.7719 0.86642 0.0
C1264 C 0.09613 0.77223 0.87486 0.0
C1265 C 0.09519 0.79052 0.87283 0.0
C1266 C 0.11159 0.80822 0.86298 0.0
H1267 H 0.18587 0.83974 0.88459 0.0
H1268 H 0.15851 0.82245 0.88862 0.0
H1269 H 0.17354 0.81447 0.87183 0.0
H1270 H 0.14314 0.78885 0.84992 0.0
H1271 H 0.1146 0.75794 0.86738 0.0
H1272 H 0.41893 0.99085 0.2063 0.0
H1273 H 0.45118 0.99015 0.20085 0.0
H1274 H 0.46065 0.99393 0.27416 0.0
H1275 H 0.42899 0.99528 0.2798 0.0
H1276 H 0.49332 0.02137 0.21898 0.0
H1277 H 0.46344 0.94153 0.25159 0.0
H1278 H 0.44669 0.95068 0.24093 0.0
H1279 H 0.45755 0.95766 0.26928 0.0
C1280 C 0.42795 0.99169 0.22125 0.0
C1281 C 0.42122 0.9929 0.24352 0.0
C1282 C 0.44629 0.99118 0.21809 0.0
C1283 C 0.45805 0.99169 0.23713 0.0
C1284 C 0.45154 0.99314 0.25929 0.0
H1285 H 0.56687 0.99374 0.28018 0.0
H1286 H 0.5337 0.99192 0.27418 0.0
C1287 C 0.43336 0.99379 0.26246 0.0
C1288 C 0.4774 0.99107 0.23419 0.0
H1289 H 0.50007 0.96281 0.24896 0.0
C1290 C 0.49481 0.00846 0.22513 0.0
C1291 C 0.47915 0.97416 0.24224 0.0
C1292 C 0.46069 0.95484 0.25139 0.0
C1293 C 0.51431 0.00989 0.22516 0.0
C1294 C 0.51623 0.9933 0.23411 0.0
C1295 C 0.49857 0.97553 0.24218 0.0
C1296 C 0.5366 0.99471 0.23717 0.0
C1297 C 0.53287 0.02955 0.21679 0.0
C1298 C 0.54922 0.99678 0.21831 0.0
C1299 C 0.5684 0.99807 0.22171 0.0
C1300 C 0.57522 0.99725 0.24404 0.0
C1301 C 0.56235 0.9949 0.2628 0.0
C1302 C 0.54327 0.99365 0.2594 0.0
H1303 H 0.52938 0.04227 0.21458 0.0
H1304 H 0.54599 0.03471 0.22898 0.0
H1305 H 0.53787 0.02663 0.19992 0.0
H1306 H 0.54419 0.99728 0.20098 0.0
H1307 H 0.57797 -9e-05 0.2069 0.0
H1308 H 0.58852 0.56149 0.55414 0.0
H1309 H 0.5562 0.52886 0.54866 0.0
H1310 H 0.52178 0.55696 0.5742 0.0
H1311 H 0.55392 0.58981 0.57894 0.0
H1312 H 0.53003 0.50675 0.5832 0.0
H1313 H 0.48788 0.52578 0.51835 0.0
H1314 H 0.51529 0.542 0.52341 0.0
H1315 H 0.49686 0.5436 0.542 0.0
C1316 C 0.57404 0.56089 0.558 0.0
C1317 C 0.5738 0.57826 0.56701 0.0
C1318 C 0.55559 0.54219 0.55498 0.0
C1319 C 0.53656 0.54053 0.56076 0.0
C1320 C 0.53623 0.55798 0.56917 0.0
H1321 H 0.42577 0.43781 0.61126 0.0
H1322 H 0.4585 0.46949 0.60418 0.0
C1323 C 0.55465 0.57668 0.57217 0.0
C1324 C 0.5173 0.52014 0.56023 0.0
H1325 H 0.46736 0.49521 0.54104 0.0
C1326 C 0.51642 0.50415 0.57372 0.0
C1327 C 0.49962 0.51668 0.54765 0.0
C1328 C 0.49998 0.53286 0.53185 0.0
C1329 C 0.49809 0.48509 0.57579 0.0
C1330 C 0.48008 0.48209 0.56436 0.0
C1331 C 0.48115 0.49769 0.55001 0.0
C1332 C 0.45982 0.46321 0.56811 0.0
C1333 C 0.49809 0.46841 0.59042 0.0
C1334 C 0.44942 0.44951 0.54998 0.0
C1335 C 0.43067 0.43128 0.55399 0.0
C1336 C 0.42203 0.42656 0.57619 0.0
C1337 C 0.43224 0.44072 0.59409 0.0
C1338 C 0.45092 0.45886 0.59008 0.0
H1339 H 0.51396 0.47091 0.59269 0.0
H1340 H 0.49187 0.46858 0.60769 0.0
H1341 H 0.48817 0.45288 0.58274 0.0
H1342 H 0.45602 0.4527 0.53287 0.0
H1343 H 0.42322 0.42066 0.53986 0.0
H1344 H 0.03119 0.59209 0.89212 0.0
H1345 H 0.03075 0.55957 0.88485 0.0
H1346 H 0.96666 0.52533 0.9052 0.0
H1347 H 0.96686 0.55776 0.91211 0.0
H1348 H 0.02144 0.52921 0.91919 0.0
H1349 H 0.9681 0.49691 0.84482 0.0
H1350 H 0.98071 0.52395 0.85257 0.0
H1351 H 0.95835 0.50529 0.8682 0.0
C1352 C 0.01688 0.57764 0.89456 0.0
C1353 C 0.99905 0.57748 0.90268 0.0
C1354 C 0.01669 0.55909 0.8905 0.0
C1355 C 0.99862 0.54008 0.89423 0.0
C1356 C 0.98067 0.53985 0.90183 0.0
H1357 H 0.96105 0.4118 0.90495 0.0
H1358 H 0.96385 0.44565 0.90055 0.0
C1359 C 0.98087 0.55838 0.90601 0.0
C1360 C 0.99896 0.5205 0.89211 0.0
H1361 H 0.97592 0.47375 0.86484 0.0
C1362 C 0.01171 0.51716 0.90711 0.0
C1363 C 0.98614 0.50484 0.87642 0.0
C1364 C 0.97267 0.50792 0.85942 0.0
C1365 C 0.01141 0.49823 0.90748 0.0
C1366 C 0.99836 0.48241 0.892 0.0
C1367 C 0.98594 0.48592 0.87664 0.0
C1368 C 0.99653 0.46171 0.89251 0.0
C1369 C 0.02437 0.49505 0.92516 0.0
C1370 C 0.01384 0.4594 0.88876 0.0
C1371 C 0.01236 0.44011 0.89159 0.0
C1372 C 0.99347 0.42273 0.89798 0.0
C1373 C 0.97592 0.42494 0.90049 0.0
C1374 C 0.97745 0.44424 0.89779 0.0
H1375 H 0.02953 0.50673 0.93914 0.0
H1376 H 0.01564 0.4794 0.93293 0.0
H1377 H 0.03837 0.4965 0.91672 0.0
H1378 H 0.02862 0.47262 0.8842 0.0
H1379 H 0.02621 0.43901 0.88963 0.0
H1380 H 0.96822 0.56009 0.45409 0.0
H1381 H 0.96861 0.52799 0.46232 0.0
H1382 H 0.02401 0.5499 0.42169 0.0
H1383 H 0.02373 0.58187 0.4135 0.0
H1384 H 0.9674 0.50075 0.42595 0.0
H1385 H 0.03642 0.52773 0.48171 0.0
H1386 H 0.023 0.54209 0.47818 0.0
H1387 H 0.04065 0.54321 0.45646 0.0
C1388 C 0.98068 0.55818 0.44734 0.0
C1389 C 0.9959 0.57338 0.4331 0.0
C1390 C 0.98086 0.53987 0.45198 0.0
C1391 C 0.99646 0.53673 0.44281 0.0
C1392 C 0.01202 0.55219 0.42923 0.0
H1393 H 0.03044 0.44599 0.4176 0.0
H1394 H 0.02765 0.47673 0.4245 0.0
C1395 C 0.01174 0.57034 0.4244 0.0
C1396 C 0.9956 0.51661 0.44543 0.0
H1397 H 0.02388 0.49485 0.46351 0.0
C1398 C 0.9795 0.49928 0.43453 0.0
C1399 C 0.01151 0.51489 0.45651 0.0
C1400 C 0.0288 0.53292 0.46907 0.0
C1401 C 0.9795 0.48051 0.43326 0.0
C1402 C 0.99578 0.47894 0.44374 0.0
C1403 C 0.01143 0.49607 0.45548 0.0
C1404 C 0.99775 0.46024 0.44111 0.0
C1405 C 0.96271 0.46296 0.41956 0.0
C1406 C 0.98207 0.4408 0.44862 0.0
C1407 C 0.98343 0.42308 0.4443 0.0
C1408 C 0.00065 0.42454 0.43265 0.0
C1409 C 0.01674 0.44421 0.42612 0.0
C1410 C 0.01528 0.46184 0.43027 0.0
H1411 H 0.95428 0.46827 0.40828 0.0
H1412 H 0.96924 0.45537 0.4087 0.0
H1413 H 0.95133 0.45122 0.43153 0.0
H1414 H 0.96861 0.43926 0.45746 0.0
H1415 H 0.97071 0.40821 0.44948 0.0
H1416 H 0.57673 0.99534 0.79505 0.0
H1417 H 0.54441 0.9954 0.80263 0.0
H1418 H 0.54149 0.00981 0.73144 0.0
H1419 H 0.57391 0.01037 0.72389 0.0
H1420 H 0.533 0.03345 0.7626 0.0
H1421 H 0.48695 0.9491 0.78122 0.0
H1422 H 0.51005 0.96389 0.79793 0.0
H1423 H 0.51202 0.96072 0.76763 0.0
C1424 C 0.56928 0.99871 0.78109 0.0
C1425 C 0.57775 0.00262 0.75881 0.0
C1426 C 0.55075 0.99857 0.78541 0.0
C1427 C 0.54044 0.00232 0.76752 0.0
C1428 C 0.54916 0.00675 0.74545 0.0
H1429 H 0.41911 0.97322 0.73438 0.0
H1430 H 0.4523 0.97531 0.74166 0.0
C1431 C 0.56759 0.00689 0.74113 0.0
C1432 C 0.52037 0.00137 0.77134 0.0
H1433 H 0.46914 0.96761 0.781 0.0
C1434 C 0.51905 0.01915 0.76695 0.0
C1435 C 0.50224 0.98262 0.77685 0.0
C1436 C 0.50271 0.96291 0.78105 0.0
C1437 C 0.49995 0.01853 0.7671 0.0
C1438 C 0.48175 -0.00033 0.77213 0.0
C1439 C 0.48316 0.98206 0.77733 0.0
C1440 C 0.46097 0.99737 0.76946 0.0
C1441 C 0.49928 0.03777 0.76063 0.0
C1442 C 0.45461 0.00872 0.78306 0.0
C1443 C 0.43566 0.00769 0.77879 0.0
C1444 C 0.42279 0.99526 0.76087 0.0
C1445 C 0.42886 0.98325 0.748 0.0
C1446 C 0.44774 0.98429 0.75226 0.0
H1447 H 0.51419 0.04992 0.75328 0.0
H1448 H 0.48681 0.03408 0.74792 0.0
H1449 H 0.49594 0.04421 0.77617 0.0
H1450 H 0.46448 0.01867 0.79666 0.0
H1451 H 0.43143 0.01715 0.78898 0.0
H1452 H 0.43241 0.41027 0.11177 0.0
H1453 H 0.46472 0.44259 0.11833 0.0
H1454 H 0.43897 0.47648 0.08554 0.0
H1455 H 0.40628 0.44441 0.07998 0.0
H1456 H 0.4899 0.46779 0.08591 0.0
H1457 H 0.46541 0.51201 0.14104 0.0
H1458 H 0.44923 0.48458 0.13617 0.0
H1459 H 0.45002 0.50291 0.11548 0.0
C1460 C 0.43339 0.42464 0.10652 0.0
C1461 C 0.4167 0.42471 0.09535 0.0
C1462 C 0.45195 0.4431 0.11015 0.0
C1463 C 0.45419 0.462 0.10274 0.0
C1464 C 0.43747 0.46216 0.09192 0.0
H1465 H 0.55132 0.58011 0.06357 0.0
H1466 H 0.51917 0.54782 0.07134 0.0
C1467 C 0.41887 0.44375 0.08842 0.0
C1468 C 0.47453 0.48129 0.1044 0.0
H1469 H 0.49773 0.53198 0.12074 0.0
C1470 C 0.49169 0.48171 0.09393 0.0
C1471 C 0.47688 0.49945 0.11492 0.0
C1472 C 0.45944 0.49968 0.12774 0.0
C1473 C 0.51086 0.50003 0.09273 0.0
C1474 C 0.51288 0.51834 0.10224 0.0
C1475 C 0.49601 0.51785 0.11341 0.0
C1476 C 0.53198 0.53842 0.09903 0.0
C1477 C 0.52866 0.50001 0.08048 0.0
C1478 C 0.54965 0.54384 0.11231 0.0
C1479 C 0.56805 0.56231 0.10794 0.0
C1480 C 0.56902 0.57546 0.09009 0.0
C1481 C 0.55109 0.57014 0.07722 0.0
C1482 C 0.53272 0.55181 0.08172 0.0
H1483 H 0.52429 0.48463 0.07309 0.0
H1484 H 0.53435 0.51162 0.06642 0.0
H1485 H 0.54165 0.50448 0.09268 0.0
H1486 H 0.54928 0.53361 0.12573 0.0
H1487 H 0.58167 0.56599 0.11803 0.0
H1488 H 0.11149 0.74289 0.35654 0.0
H1489 H 0.14233 0.77286 0.34099 0.0
H1490 H 0.12792 0.81354 0.37924 0.0
H1491 H 0.09693 0.78355 0.39483 0.0
H1492 H 0.13931 0.80231 0.31404 0.0
H1493 H 0.19074 0.83864 0.38929 0.0
H1494 H 0.16981 0.81214 0.38943 0.0
H1495 H 0.16452 0.83293 0.39323 0.0
C1496 C 0.11508 0.75822 0.36193 0.0
C1497 C 0.10173 0.76091 0.37675 0.0
C1498 C 0.13271 0.7753 0.35308 0.0
C1499 C 0.13741 0.79538 0.359 0.0
C1500 C 0.12473 0.79814 0.37474 0.0
H1501 H 0.20606 0.90849 0.2819 0.0
H1502 H 0.17955 0.87695 0.30073 0.0
C1503 C 0.10705 0.78102 0.38365 0.0
C1504 C 0.15425 0.8133 0.34683 0.0
H1505 H 0.19976 0.85838 0.35474 0.0
C1506 C 0.1526 0.81451 0.32291 0.0
C1507 C 0.17159 0.82909 0.35846 0.0
C1508 C 0.17445 0.82814 0.384 0.0
C1509 C 0.16765 0.83132 0.31033 0.0
C1510 C 0.18467 0.84741 0.32203 0.0
C1511 C 0.18659 0.84603 0.34588 0.0
C1512 C 0.20051 0.86597 0.30981 0.0
C1513 C 0.16531 0.83172 0.2846 0.0
C1514 C 0.22102 0.87018 0.30874 0.0
C1515 C 0.23616 0.88813 0.29796 0.0
C1516 C 0.23104 0.90226 0.28829 0.0
C1517 C 0.21042 0.89786 0.28919 0.0
C1518 C 0.19527 0.87985 0.29984 0.0
H1519 H 0.15412 0.81619 0.2777 0.0
H1520 H 0.15955 0.84244 0.2803 0.0
H1521 H 0.18043 0.83738 0.27588 0.0
H1522 H 0.22533 0.85967 0.31645 0.0
H1523 H 0.25199 0.8913 0.29791 0.0
H1524 H 0.36232 0.25381 0.62372 0.0
H1525 H 0.36808 0.22707 0.64075 0.0
H1526 H 0.30285 0.18308 0.63558 0.0
H1527 H 0.29701 0.20966 0.61835 0.0
H1528 H 0.348 0.20451 0.68272 0.0
H1529 H 0.33238 0.15332 0.60707 0.0
H1530 H 0.33881 0.17999 0.60442 0.0
H1531 H 0.31316 0.16056 0.61268 0.0
C1532 C 0.3493 0.23831 0.62573 0.0
C1533 C 0.32923 0.23374 0.61959 0.0
C1534 C 0.35258 0.22313 0.63563 0.0
C1535 C 0.33591 0.20313 0.63928 0.0
C1536 C 0.31594 0.19839 0.63267 0.0
H1537 H 0.31823 0.10247 0.72696 0.0
H1538 H 0.31956 0.13349 0.71095 0.0
C1539 C 0.31262 0.21358 0.62292 0.0
C1540 C 0.33915 0.1874 0.65096 0.0
H1541 H 0.33473 0.14007 0.64334 0.0
C1542 C 0.34526 0.19047 0.67412 0.0
C1543 C 0.33569 0.16923 0.63959 0.0
C1544 C 0.32981 0.16556 0.61451 0.0
C1545 C 0.3475 0.17551 0.6864 0.0
C1546 C 0.34338 0.15704 0.67521 0.0
C1547 C 0.33777 0.15423 0.6519 0.0
C1548 C 0.34453 0.1402 0.68728 0.0
C1549 C 0.35431 0.17958 0.71118 0.0
C1550 C 0.35832 0.13394 0.67954 0.0
C1551 C 0.35761 0.11632 0.68865 0.0
C1552 C 0.34294 0.1045 0.70555 0.0
C1553 C 0.32982 0.11138 0.71413 0.0
C1554 C 0.33056 0.12907 0.70498 0.0
H1555 H 0.36154 0.19626 0.71556 0.0
H1556 H 0.34063 0.17086 0.72245 0.0
H1557 H 0.3655 0.17428 0.71497 0.0
H1558 H 0.36924 0.14235 0.66592 0.0
H1559 H 0.36811 0.11154 0.68193 0.0
H1560 H 0.20276 0.29166 0.04679 0.0
H1561 H 0.17582 0.29518 0.02677 0.0
H1562 H 0.21923 0.35958 0.01399 0.0
H1563 H 0.24638 0.35609 0.03356 0.0
H1564 H 0.1602 0.32274 0.03491 0.0
H1565 H 0.19775 0.33473 0.94932 0.0
H1566 H 0.20495 0.32467 0.97363 0.0
H1567 H 0.21366 0.35181 0.97179 0.0
C1568 C 0.20652 0.30659 0.03982 0.0
C1569 C 0.22668 0.32358 0.04167 0.0
C1570 C 0.19113 0.30859 0.02845 0.0
C1571 C 0.19567 0.32754 0.01859 0.0
C1572 C 0.21554 0.34474 0.02119 0.0
H1573 H 0.12063 0.36304 0.93688 0.0
H1574 H 0.14924 0.36211 0.9564 0.0
C1575 C 0.23094 0.34278 0.03262 0.0
C1576 C 0.17965 0.32909 0.00522 0.0
H1577 H 0.16713 0.33667 0.95102 0.0
C1578 C 0.16169 0.32579 0.01658 0.0
C1579 C 0.18173 0.33312 0.98132 0.0
C1580 C 0.20047 0.33614 0.96817 0.0
C1581 C 0.14573 0.32652 0.00467 0.0
C1582 C 0.14763 0.33019 0.98069 0.0
C1583 C 0.16572 0.33377 0.96938 0.0
C1584 C 0.13086 0.3302 0.96712 0.0
C1585 C 0.12708 0.32363 0.01794 0.0
C1586 C 0.11132 0.31234 0.96595 0.0
C1587 C 0.09495 0.31284 0.95495 0.0
C1588 C 0.09788 0.33119 0.94474 0.0
C1589 C 0.11781 0.34875 0.94484 0.0
C1590 C 0.13417 0.34823 0.95591 0.0
H1591 H 0.13041 0.32645 0.03662 0.0
H1592 H 0.12174 0.33418 0.01151 0.0
H1593 H 0.11427 0.30749 0.01575 0.0
H1594 H 0.10857 0.29816 0.97413 0.0
H1595 H 0.0798 0.2991 0.95544 0.0
H1596 H 0.91858 0.2144 0.37632 0.0
H1597 H 0.88986 0.18454 0.35779 0.0
H1598 H 0.849 0.20764 0.37548 0.0
H1599 H 0.87751 0.2372 0.395 0.0
H1600 H 0.83082 0.16503 0.38067 0.0
H1601 H 0.86834 0.19011 0.29529 0.0
H1602 H 0.88411 0.1869 0.31631 0.0
H1603 H 0.8773 0.20665 0.32026 0.0
C1604 C 0.90339 0.2129 0.37685 0.0
C1605 C 0.9004 0.2283 0.38704 0.0
C1606 C 0.88705 0.19597 0.36591 0.0
C1607 C 0.86747 0.19421 0.36471 0.0
C1608 C 0.86409 0.20888 0.37595 0.0
H1609 H 0.75201 0.10654 0.297 0.0
H1610 H 0.77974 0.1371 0.31614 0.0
C1611 C 0.88041 0.22579 0.38701 0.0
C1612 C 0.8507 0.17739 0.35116 0.0
H1613 H 0.83823 0.15682 0.29714 0.0
C1614 C 0.83236 0.16329 0.36239 0.0
C1615 C 0.85273 0.17528 0.32726 0.0
C1616 C 0.87159 0.19065 0.31399 0.0
C1617 C 0.81621 0.14675 0.35047 0.0
C1618 C 0.81843 0.14446 0.32668 0.0
C1619 C 0.83665 0.15866 0.3154 0.0
C1620 C 0.80222 0.12698 0.31339 0.0
C1621 C 0.79711 0.13154 0.36348 0.0
C1622 C 0.80601 0.11165 0.30477 0.0
C1623 C 0.79028 0.09428 0.29372 0.0
C1624 C 0.77057 0.09207 0.29094 0.0
C1625 C 0.76712 0.10794 0.29867 0.0
C1626 C 0.78284 0.12526 0.30983 0.0
H1627 H 0.79946 0.13322 0.38238 0.0
H1628 H 0.78415 0.13418 0.35906 0.0
H1629 H 0.79248 0.11542 0.35859 0.0
H1630 H 0.82095 0.11282 0.30723 0.0
H1631 H 0.79339 0.08235 0.2878 0.0
H1632 H 0.70382 0.79227 0.6159 0.0
H1633 H 0.6997 0.81939 0.63436 0.0
H1634 H 0.63427 0.77705 0.64187 0.0
H1635 H 0.63839 0.74957 0.62414 0.0
H1636 H 0.67579 0.83696 0.62338 0.0
H1637 H 0.6526 0.79662 0.70777 0.0
H1638 H 0.66343 0.78855 0.68502 0.0
H1639 H 0.63686 0.78224 0.68373 0.0
C1640 C 0.68855 0.78873 0.62145 0.0
C1641 C 0.67147 0.76874 0.61873 0.0
C1642 C 0.6862 0.80426 0.6319 0.0
C1643 C 0.66676 0.8001 0.63988 0.0
C1644 C 0.64948 0.78044 0.63624 0.0
H1645 H 0.63847 0.88789 0.7082 0.0
H1646 H 0.63456 0.85648 0.68999 0.0
C1647 C 0.65182 0.76485 0.62582 0.0
C1648 C 0.66489 0.81634 0.65243 0.0
H1649 H 0.6543 0.82899 0.70521 0.0
C1650 C 0.67095 0.83515 0.64121 0.0
C1651 C 0.6586 0.81394 0.67574 0.0
C1652 C 0.65265 0.79433 0.6889 0.0
C1653 C 0.67121 0.85175 0.65278 0.0
C1654 C 0.66538 0.84949 0.67615 0.0
C1655 C 0.65873 0.83055 0.68725 0.0
C1656 C 0.66734 0.86717 0.68954 0.0
C1657 C 0.67802 0.87176 0.64009 0.0
C1658 C 0.687 0.88312 0.69592 0.0
C1659 C 0.68928 0.90092 0.70648 0.0
C1660 C 0.67192 0.90309 0.71077 0.0
C1661 C 0.65211 0.88659 0.70535 0.0
C1662 C 0.64985 0.86872 0.69483 0.0
H1663 H 0.67864 0.86991 0.62121 0.0
H1664 H 0.66738 0.87776 0.64379 0.0
H1665 H 0.69369 0.88351 0.64606 0.0
H1666 H 0.70063 0.88204 0.69212 0.0
H1667 H 0.7047 0.91324 0.71073 0.0
H1668 H 0.77535 0.69481 0.01644 0.0
H1669 H 0.80633 0.69419 0.00438 0.0
H1670 H 0.7926 0.64517 0.0527 0.0
H1671 H 0.7611 0.6454 0.06459 0.0
H1672 H 0.84054 0.70005 0.03024 0.0
H1673 H 0.79861 0.62192 0.99024 0.0
H1674 H 0.78589 0.63626 0.99782 0.0
H1675 H 0.79244 0.62362 0.01975 0.0
C1676 C 0.77887 0.68384 0.02447 0.0
C1677 C 0.76568 0.66996 0.04125 0.0
C1678 C 0.79663 0.68358 0.01764 0.0
C1679 C 0.80156 0.66942 0.02738 0.0
C1680 C 0.78884 0.65598 0.04471 0.0
H1681 H 0.92111 0.67843 0.00347 0.0
H1682 H 0.88989 0.67495 0.02131 0.0
C1683 C 0.77101 0.65626 0.05164 0.0
C1684 C 0.81999 0.66887 0.01899 0.0
H1685 H 0.83507 0.63953 0.98854 0.0
C1686 C 0.8394 0.68677 0.02129 0.0
C1687 C 0.81833 0.6516 0.00703 0.0
C1688 C 0.79771 0.63228 0.00334 0.0
C1689 C 0.85722 0.68799 0.01173 0.0
C1690 C 0.8556 0.67069 -0.00011 0.0
C1691 C 0.83622 0.65271 0.99774 0.0
C1692 C 0.87385 0.67127 0.98915 0.0
C1693 C 0.87751 0.70802 0.01376 0.0
C1694 C 0.87486 0.66959 0.9652 0.0
C1695 C 0.8927 0.67154 0.95493 0.0
C1696 C 0.90979 0.67525 0.9685 0.0
C1697 C 0.90838 0.67613 0.99254 0.0
C1698 C 0.89056 0.67409 0.00276 0.0
H1699 H 0.87522 0.72116 0.01847 0.0
H1700 H 0.88704 0.70643 0.02735 0.0
H1701 H 0.88629 0.71179 0.99737 0.0
H1702 H 0.86204 0.6673 0.95443 0.0
H1703 H 0.89336 0.67075 0.93638 0.0
H1704 H 0.32625 0.03477 0.41084 0.0
H1705 H 0.32117 0.02709 0.45207 0.0
H1706 H 0.32702 0.97309 0.44136 0.0
H1707 H 0.33201 0.98057 0.40026 0.0
H1708 H 0.29009 0.99095 0.47362 0.0
H1709 H 0.3686 0.0039 0.49294 0.0
H1710 H 0.36269 0.0128 0.46671 0.0
H1711 H 0.35547 0.98608 0.46989 0.0
C1712 C 0.32649 0.02129 0.4173 0.0
C1713 C 0.32975 0.0084 0.40233 0.0
C1714 C 0.32362 0.01694 0.44082 0.0
C1715 C 0.32402 -0.00031 0.44976 0.0
C1716 C 0.32713 0.98674 0.43487 0.0
H1717 H 0.31388 0.95428 0.59023 0.0
H1718 H 0.31378 0.9561 0.54809 0.0
C1719 C 0.33005 0.99108 0.4114 0.0
C1720 C 0.32073 0.99498 0.47461 0.0
H1721 H 0.34392 0.99012 0.52288 0.0
C1722 C 0.30185 0.99078 0.48442 0.0
C1723 C 0.33607 0.99464 0.48857 0.0
C1724 C 0.35693 -0.00024 0.47909 0.0
C1725 C 0.29787 0.98622 0.5079 0.0
C1726 C 0.31332 0.98616 0.5219 0.0
C1727 C 0.33207 0.99004 0.51202 0.0
C1728 C 0.31101 0.98359 0.54713 0.0
C1729 C 0.27715 0.9814 0.51749 0.0
C1730 C 0.30929 0.99832 0.56042 0.0
C1731 C 0.30934 0.9973 0.58435 0.0
C1732 C 0.31124 0.9816 0.59544 0.0
C1733 C 0.31226 0.96644 0.58211 0.0
C1734 C 0.31229 0.96752 0.5581 0.0
H1735 H 0.26518 0.97618 0.50383 0.0
H1736 H 0.27185 0.96926 0.53095 0.0
H1737 H 0.27857 0.99558 0.5254 0.0
H1738 H 0.30863 0.01103 0.5523 0.0
H1739 H 0.30834 0.00908 0.59421 0.0
H1740 H 0.2938 0.2967 0.93122 0.0
H1741 H 0.29023 0.29863 0.88972 0.0
H1742 H 0.35659 0.3337 0.88274 0.0
H1743 H 0.36036 0.33169 0.92435 0.0
H1744 H 0.3354 0.35078 0.85927 0.0
H1745 H 0.30242 0.26734 0.83959 0.0
H1746 H 0.28906 0.27275 0.86177 0.0
H1747 H 0.31527 0.2787 0.8664 0.0
C1748 C 0.30767 0.30449 0.92084 0.0
C1749 C 0.32739 0.31388 0.93107 0.0
C1750 C 0.30558 0.30564 0.89713 0.0
C1751 C 0.32315 0.31609 0.88317 0.0
C1752 C 0.34285 0.32553 0.89326 0.0
H1753 H 0.33128 0.31181 0.73593 0.0
H1754 H 0.33411 0.30989 0.7775 0.0
C1755 C 0.34497 0.3244 0.91701 0.0
C1756 C 0.32091 0.31759 0.85809 0.0
H1757 H 0.30241 0.28861 0.80934 0.0
C1758 C 0.32823 0.33722 0.84831 0.0
C1759 C 0.31166 0.29985 0.84389 0.0
C1760 C 0.3043 0.27847 0.85335 0.0
C1761 C 0.32641 0.33957 0.82464 0.0
C1762 C 0.31678 0.3218 0.81052 0.0
C1763 C 0.30959 0.30219 0.82029 0.0
C1764 C 0.31491 0.32321 0.78535 0.0
C1765 C 0.33519 0.36106 0.81486 0.0
C1766 C 0.30303 0.33122 0.77599 0.0
C1767 C 0.30129 0.33226 0.75213 0.0
C1768 C 0.31126 0.32513 0.73731 0.0
C1769 C 0.3231 0.31709 0.74685 0.0
C1770 C 0.32484 0.31609 0.7706 0.0
H1771 H 0.34604 0.37309 0.82701 0.0
H1772 H 0.34346 0.36257 0.79847 0.0
H1773 H 0.32236 0.36411 0.81124 0.0
H1774 H 0.29494 0.33647 0.78712 0.0
H1775 H 0.2919 0.33834 0.74531 0.0
H1776 H 0.03809 0.33173 0.25898 0.0
H1777 H 0.03664 0.3313 0.21698 0.0
H1778 H 0.97527 0.32318 0.21979 0.0
H1779 H 0.9771 0.32502 0.26151 0.0
H1780 H 0.01143 0.30212 0.1875 0.0
H1781 H 0.00287 0.37107 0.17659 0.0
H1782 H 0.0096 0.36443 0.20378 0.0
H1783 H 0.983 0.35203 0.19461 0.0
C1784 C 0.02444 0.33025 0.25068 0.0
C1785 C 0.00776 0.32852 0.26373 0.0
C1786 C 0.02355 0.3298 0.22665 0.0
C1787 C 0.00599 0.32758 0.21522 0.0
C1788 C 0.98919 0.32542 0.22819 0.0
H1789 H 0.97341 0.28981 0.07257 0.0
H1790 H 0.9764 0.29092 0.1144 0.0
C1791 C 0.99015 0.32614 0.25214 0.0
C1792 C 0.00504 0.32719 0.18975 0.0
H1793 H 0.9954 0.34937 0.14369 0.0
C1794 C 0.00809 0.31256 0.17788 0.0
C1795 C 0.001 0.34102 0.17719 0.0
C1796 C 0.99916 0.35816 0.18869 0.0
C1797 C 0.00683 0.31112 0.1538 0.0
C1798 C 0.00174 0.32426 0.14134 0.0
C1799 C 0.99904 0.33911 0.15323 0.0
C1800 C -0.00031 0.32338 0.11593 0.0
C1801 C 0.01143 0.29586 0.14201 0.0
C1802 C 0.01112 0.34141 0.1029 0.0
C1803 C 0.00894 0.34099 0.07907 0.0
C1804 C 0.99542 0.32246 0.06761 0.0
C1805 C 0.98386 0.30441 0.08074 0.0
C1806 C 0.98582 0.30492 0.10468 0.0
H1807 H 0.02109 0.29183 0.15297 0.0
H1808 H 0.99668 0.28139 0.13853 0.0
H1809 H 0.01955 0.30205 0.12542 0.0
H1810 H 0.02177 0.35589 0.1112 0.0
H1811 H 0.01775 0.35532 0.06968 0.0
H1812 H 0.64645 0.98471 0.40802 0.0
H1813 H 0.65058 0.9912 0.44939 0.0
H1814 H 0.70445 0.9841 0.44897 0.0
H1815 H 0.70032 0.97731 0.40758 0.0
H1816 H 0.65251 0.96679 0.48617 0.0
H1817 H 0.72521 0.04227 0.47686 0.0
H1818 H 0.70809 0.02935 0.45299 0.0
H1819 H 0.72515 0.02064 0.4632 0.0
C1820 C 0.65896 0.98413 0.41677 0.0
C1821 C 0.67312 0.98058 0.40447 0.0
C1822 C 0.66137 0.98799 0.44037 0.0
C1823 C 0.67803 0.9885 0.45209 0.0
C1824 C 0.69175 0.98421 0.4401 0.0
H1825 H 0.72005 0.01499 0.59357 0.0
H1826 H 0.7165 0.00774 0.55227 0.0
C1827 C 0.68935 0.98032 0.41648 0.0
C1828 C 0.68116 0.99384 0.4768 0.0
H1829 H 0.71421 0.03034 0.51473 0.0
C1830 C 0.66596 0.98069 0.49245 0.0
C1831 C 0.69876 0.01198 0.48485 0.0
C1832 C 0.71519 0.02701 0.46863 0.0
C1833 C 0.66802 0.98508 0.51606 0.0
C1834 C 0.68553 0.00332 0.5241 0.0
C1835 C 0.70079 0.0164 0.50847 0.0
C1836 C 0.6883 0.00899 0.54874 0.0
C1837 C 0.65162 0.96995 0.53224 0.0
C1838 C 0.67397 0.01273 0.56023 0.0
C1839 C 0.6759 0.01678 0.58382 0.0
C1840 C 0.69227 0.01727 0.59631 0.0
C1841 C 0.70711 0.01441 0.5845 0.0
C1842 C 0.70516 0.01036 0.56091 0.0
H1843 H 0.64219 0.95448 0.52422 0.0
H1844 H 0.65866 0.96818 0.54827 0.0
H1845 H 0.64107 0.97581 0.53695 0.0
H1846 H 0.66108 0.01214 0.55103 0.0
H1847 H 0.66411 0.01874 0.59239 0.0
H1848 H 0.63732 0.68061 0.91942 0.0
H1849 H 0.63967 0.67906 0.87742 0.0
H1850 H 0.70211 0.69055 0.8838 0.0
H1851 H 0.69987 0.69209 0.92559 0.0
H1852 H 0.66861 0.70753 0.84419 0.0
H1853 H 0.6709 0.63445 0.85 0.0
H1854 H 0.66319 0.6446 0.8738 0.0
H1855 H 0.69012 0.6553 0.867 0.0
C1856 C 0.65164 0.68314 0.9118 0.0
C1857 C 0.6683 0.68615 0.92573 0.0
C1858 C 0.65294 0.68217 0.88787 0.0
C1859 C 0.6709 0.68422 0.87763 0.0
C1860 C 0.68795 0.68844 0.89144 0.0
H1861 H 0.70894 0.67314 0.7404 0.0
H1862 H 0.70651 0.67814 0.78166 0.0
C1863 C 0.68665 0.68933 0.91528 0.0
C1864 C 0.67163 0.6811 0.85263 0.0
H1865 H 0.67713 0.65025 0.81331 0.0
C1866 C 0.67036 0.69496 0.83738 0.0
C1867 C 0.67388 0.66465 0.84389 0.0
C1868 C 0.67442 0.64877 0.85948 0.0
C1869 C 0.67181 0.6931 0.81352 0.0
C1870 C 0.67424 0.67674 0.80481 0.0
C1871 C 0.67535 0.66281 0.82008 0.0
C1872 C 0.67561 0.67374 0.77988 0.0
C1873 C 0.67123 0.70891 0.79788 0.0
C1874 C 0.65889 0.66924 0.76536 0.0
C1875 C 0.66024 0.66642 0.74183 0.0
C1876 C 0.67831 0.66793 0.73241 0.0
C1877 C 0.6949 0.67208 0.7471 0.0
C1878 C 0.69352 0.67488 0.77065 0.0
H1879 H 0.67443 0.72313 0.80736 0.0
H1880 H 0.68267 0.71327 0.78375 0.0
H1881 H 0.65562 0.70222 0.79007 0.0
H1882 H 0.6448 0.66793 0.77223 0.0
H1883 H 0.64728 0.6635 0.73096 0.0
H1884 H 0.9684 0.67995 0.25787 0.0
H1885 H 0.97241 0.68327 0.21594 0.0
H1886 H 0.00386 0.64806 0.21698 0.0
H1887 H -0.00045 0.64432 0.25863 0.0
H1888 H 0.01076 0.7023 0.19303 0.0
H1889 H 0.96195 0.62095 0.16485 0.0
H1890 H 0.9597 0.6298 0.19302 0.0
H1891 H 0.98002 0.62417 0.18706 0.0
C1892 C 0.97573 0.67251 0.24905 0.0
C1893 C 0.98368 0.66189 0.26148 0.0
C1894 C 0.97812 0.67453 0.22517 0.0
C1895 C 0.98825 0.66573 0.21338 0.0
C1896 C 0.99569 0.65466 0.2257 0.0
H1897 H 0.03471 0.66746 0.07724 0.0
H1898 H 0.02626 0.66332 0.11828 0.0
C1899 C 0.99338 0.6527 0.2495 0.0
C1900 C 0.99247 0.66932 0.18845 0.0
H1901 H 0.98593 0.64442 0.1373 0.0
C1902 C 0.00515 0.68969 0.18077 0.0
C1903 C 0.98519 0.65281 0.17258 0.0
C1904 C 0.9708 0.63071 0.17972 0.0
C1905 C 0.01132 0.69394 0.15769 0.0
C1906 C 0.00435 0.67739 0.1419 0.0
C1907 C 0.99137 0.65705 0.14952 0.0
C1908 C 0.01028 0.68079 0.11735 0.0
C1909 C 0.02575 0.71603 0.15053 0.0
C1910 C 0.00409 0.69197 0.10331 0.0
C1911 C 0.00885 0.69432 0.07991 0.0
C1912 C 0.01981 0.68543 0.07007 0.0
C1913 C 0.02616 0.67439 0.08426 0.0
C1914 C 0.02139 0.67205 0.10769 0.0
H1915 H 0.03356 0.72617 0.16555 0.0
H1916 H 0.03772 0.71699 0.13847 0.0
H1917 H 0.01675 0.72211 0.1416 0.0
H1918 H 0.99513 0.69846 0.11034 0.0
H1919 H 0.00331 0.70251 0.06938 0.0
loop_
_geom_bond_atom_site_label_1
_geom_bond_atom_site_label_2
_geom_bond_distance
_geom_bond_site_symmetry_2
_ccdc_geom_bond_type
Li0 N17 1.990 . S
Li0 O60 1.956 . S
Li0 O61 1.970 1_565 S
Li0 O62 1.961 . S
Li1 N25 1.990 . S
Li1 O60 1.970 1_545 S
Li1 O61 1.956 . S
Li1 O63 1.961 . S
Li2 N47 1.990 . S
Li2 O60 1.961 . S
Li2 O62 1.956 . S
Li2 O63 1.970 1_565 S
Li3 N53 1.990 . S
Li3 O61 1.961 . S
Li3 O62 1.970 1_545 S
Li3 O63 1.956 . S
C4 C6 1.348 . S
C4 C7 1.356 . S
C4 O60 1.325 . S
N5 C8 1.314 . S
N5 C9 1.279 . S
C6 C4 1.348 . S
C6 C8 1.353 . S
C6 H64 0.929 . S
C7 C4 1.356 . S
C7 C9 1.358 . S
C7 H65 0.930 . S
C8 N5 1.314 . S
C8 C6 1.353 . S
C8 H66 0.930 . S
C9 N5 1.279 . S
C9 C7 1.358 . S
C9 H67 0.930 . S
C10 C13 1.348 . S
C10 C14 1.356 . S
C10 O61 1.325 . S
C11 N12 1.279 . S
C11 C14 1.358 . S
C11 H68 0.930 . S
N12 C11 1.279 . S
N12 C15 1.314 . S
C13 C10 1.348 . S
C13 C15 1.353 . S
C13 H69 0.929 . S
C14 C10 1.356 . S
C14 C11 1.358 . S
C14 H70 0.930 . S
C15 N12 1.314 . S
C15 C13 1.353 . S
C15 H71 0.930 . S
C16 N17 1.314 1_545 S
C16 C21 1.353 . S
C16 H22 0.930 . S
N17 Li0 1.990 . S
N17 C16 1.314 1_565 S
N17 C19 1.279 . S
C18 C19 1.358 . S
C18 C20 1.356 . S
C18 H72 0.930 . S
C19 N17 1.279 . S
C19 C18 1.358 . S
C19 H23 0.930 . S
C20 C18 1.356 . S
C20 C21 1.348 1_565 S
C21 C16 1.353 . S
C21 C20 1.348 1_545 S
C21 H73 0.929 . S
H22 C16 0.930 . S
H23 C19 0.930 . S
C24 N25 1.314 . S
C24 C26 1.353 . S
C24 H30 0.930 1_545 S
N25 Li1 1.990 . S
N25 C24 1.314 . S
N25 C28 1.279 . S
C26 C24 1.353 . S
C26 C29 1.348 . S
C26 H74 0.929 . S
C27 C28 1.358 . S
C27 C29 1.356 . S
C27 H75 0.930 . S
C28 N25 1.279 . S
C28 C27 1.358 . S
C28 H31 0.930 . S
C29 C26 1.348 . S
C29 C27 1.356 . S
H30 C24 0.930 1_565 S
H31 C28 0.930 . S
C32 C34 1.348 . S
C32 C35 1.356 . S
C32 O62 1.325 . S
N33 C36 1.314 . S
N33 C37 1.279 . S
C34 C32 1.348 . S
C34 C36 1.353 . S
C34 H76 0.929 1_565 S
C35 C32 1.356 . S
C35 C37 1.358 . S
C35 H77 0.930 . S
C36 N33 1.314 . S
C36 C34 1.353 . S
C36 H78 0.930 . S
C37 N33 1.279 . S
C37 C35 1.358 . S
C37 H79 0.930 . S
C38 C39 1.348 1_545 S
C38 C40 1.356 . S
C38 O63 1.325 . S
C39 C38 1.348 1_565 S
C39 C41 1.353 . S
C39 H80 0.929 . S
C40 C38 1.356 . S
C40 C42 1.358 . S
C40 H81 0.930 . S
C41 C39 1.353 . S
C41 N43 1.314 1_565 S
C41 H82 0.930 . S
C42 C40 1.358 . S
C42 N43 1.279 . S
C42 H83 0.930 . S
N43 C41 1.314 1_545 S
N43 C42 1.279 . S
C44 C46 1.353 . S
C44 N47 1.314 . S
C44 H50 0.930 . S
C45 N47 1.279 . S
C45 C48 1.358 . S
C45 H51 0.930 . S
C46 C44 1.353 . S
C46 C49 1.348 . S
C46 H84 0.929 . S
N47 Li2 1.990 . S
N47 C44 1.314 . S
N47 C45 1.279 . S
C48 C45 1.358 . S
C48 C49 1.356 . S
C48 H85 0.930 . S
C49 C46 1.348 . S
C49 C48 1.356 . S
H50 C44 0.930 . S
H51 C45 0.930 . S
C52 N53 1.314 . S
C52 C54 1.353 . S
C52 H58 0.930 . S
N53 Li3 1.990 . S
N53 C52 1.314 . S
N53 C56 1.279 . S
C54 C52 1.353 . S
C54 C57 1.348 . S
C54 H86 0.929 . S
C55 C56 1.358 . S
C55 C57 1.356 . S
C55 H87 0.930 . S
C56 N53 1.279 . S
C56 C55 1.358 . S
C56 H59 0.930 . S
C57 C54 1.348 . S
C57 C55 1.356 . S
H58 C52 0.930 . S
H59 C56 0.930 . S
O60 Li0 1.956 . S
O60 Li1 1.970 1_565 S
O60 Li2 1.961 . S
O60 C4 1.325 . S
O61 Li0 1.970 1_545 S
O61 Li1 1.956 . S
O61 Li3 1.961 . S
O61 C10 1.325 . S
O62 Li0 1.961 . S
O62 Li2 1.956 . S
O62 Li3 1.970 1_565 S
O62 C32 1.325 . S
O63 Li1 1.961 . S
O63 Li2 1.970 1_545 S
O63 Li3 1.956 . S
O63 C38 1.325 . S
H64 C6 0.929 . S
H65 C7 0.930 . S
H66 C8 0.930 . S
H67 C9 0.930 . S
H68 C11 0.930 . S
H69 C13 0.929 . S
H70 C14 0.930 . S
H71 C15 0.930 . S
H72 C18 0.930 . S
H73 C21 0.929 . S
H74 C26 0.929 . S
H75 C27 0.930 . S
H76 C34 0.929 1_545 S
H77 C35 0.930 . S
H78 C36 0.930 . S
H79 C37 0.930 . S
H80 C39 0.929 . S
H81 C40 0.930 . S
H82 C41 0.930 . S
H83 C42 0.930 . S
H84 C46 0.929 . S
H85 C48 0.930 . S
H86 C54 0.929 . S
H87 C55 0.930 . S
Li88 N105 1.990 . S
Li88 O148 1.956 . S
Li88 O149 1.970 . S
Li88 O150 1.961 . S
Li89 N113 1.990 . S
Li89 O148 1.970 . S
Li89 O149 1.956 . S
Li89 O151 1.961 . S
Li90 N135 1.990 . S
Li90 O148 1.961 . S
Li90 O150 1.956 . S
Li90 O151 1.970 . S
Li91 N141 1.990 . S
Li91 O149 1.961 . S
Li91 O150 1.970 . S
Li91 O151 1.956 . S
C92 C94 1.348 . S
C92 C95 1.356 . S
C92 O148 1.325 . S
N93 C96 1.314 . S
N93 C97 1.279 . S
C94 C92 1.348 . S
C94 C96 1.353 . S
C94 H152 0.929 . S
C95 C92 1.356 . S
C95 C97 1.358 . S
C95 H153 0.930 . S
C96 N93 1.314 . S
C96 C94 1.353 . S
C96 H154 0.930 . S
C97 N93 1.279 . S
C97 C95 1.358 . S
C97 H155 0.930 . S
C98 C101 1.348 . S
C98 C102 1.356 . S
C98 O149 1.325 . S
C99 N100 1.279 . S
C99 C102 1.358 . S
C99 H156 0.930 . S
N100 C99 1.279 . S
N100 C103 1.314 . S
C101 C98 1.348 . S
C101 C103 1.353 . S
C101 H157 0.929 . S
C102 C98 1.356 . S
C102 C99 1.358 . S
C102 H158 0.930 . S
C103 N100 1.314 . S
C103 C101 1.353 . S
C103 H159 0.930 . S
C104 N105 1.314 . S
C104 C109 1.353 . S
C104 H110 0.930 . S
N105 Li88 1.990 . S
N105 C104 1.314 . S
N105 C107 1.279 . S
C106 C107 1.358 . S
C106 C108 1.356 . S
C106 H160 0.930 . S
C107 N105 1.279 . S
C107 C106 1.358 . S
C107 H111 0.930 . S
C108 C106 1.356 . S
C108 C109 1.348 . S
C109 C104 1.353 . S
C109 C108 1.348 . S
C109 H161 0.929 . S
H110 C104 0.930 . S
H111 C107 0.930 . S
C112 N113 1.314 . S
C112 C114 1.353 . S
C112 H118 0.930 . S
N113 Li89 1.990 . S
N113 C112 1.314 . S
N113 C116 1.279 . S
C114 C112 1.353 . S
C114 C117 1.348 . S
C114 H162 0.929 . S
C115 C116 1.358 . S
C115 C117 1.356 . S
C115 H163 0.930 . S
C116 N113 1.279 . S
C116 C115 1.358 . S
C116 H119 0.930 . S
C117 C114 1.348 . S
C117 C115 1.356 . S
H118 C112 0.930 . S
H119 C116 0.930 . S
C120 C122 1.348 . S
C120 C123 1.356 . S
C120 O150 1.325 . S
N121 C124 1.314 . S
N121 C125 1.279 . S
C122 C120 1.348 . S
C122 C124 1.353 . S
C122 H164 0.929 . S
C123 C120 1.356 . S
C123 C125 1.358 . S
C123 H165 0.930 . S
C124 N121 1.314 . S
C124 C122 1.353 . S
C124 H166 0.930 . S
C125 N121 1.279 . S
C125 C123 1.358 . S
C125 H167 0.930 . S
C126 C127 1.348 . S
C126 C128 1.356 . S
C126 O151 1.325 . S
C127 C126 1.348 . S
C127 C129 1.353 . S
C127 H168 0.929 . S
C128 C126 1.356 . S
C128 C130 1.358 . S
C128 H169 0.930 . S
C129 C127 1.353 . S
C129 N131 1.314 . S
C129 H170 0.930 . S
C130 C128 1.358 . S
C130 N131 1.279 . S
C130 H171 0.930 . S
N131 C129 1.314 . S
N131 C130 1.279 . S
C132 C134 1.353 . S
C132 N135 1.314 . S
C132 H138 0.930 . S
C133 N135 1.279 . S
C133 C136 1.358 . S
C133 H139 0.930 . S
C134 C132 1.353 . S
C134 C137 1.348 . S
C134 H172 0.929 . S
N135 Li90 1.990 . S
N135 C132 1.314 . S
N135 C133 1.279 . S
C136 C133 1.358 . S
C136 C137 1.356 . S
C136 H173 0.930 . S
C137 C134 1.348 . S
C137 C136 1.356 . S
H138 C132 0.930 . S
H139 C133 0.930 . S
C140 N141 1.314 . S
C140 C142 1.353 . S
C140 H146 0.930 . S
N141 Li91 1.990 . S
N141 C140 1.314 . S
N141 C144 1.279 . S
C142 C140 1.353 . S
C142 C145 1.348 . S
C142 H174 0.929 . S
C143 C144 1.358 . S
C143 C145 1.356 . S
C143 H175 0.930 . S
C144 N141 1.279 . S
C144 C143 1.358 . S
C144 H147 0.930 . S
C145 C142 1.348 . S
C145 C143 1.356 . S
H146 C140 0.930 . S
H147 C144 0.930 . S
O148 Li88 1.956 . S
O148 Li89 1.970 . S
O148 Li90 1.961 . S
O148 C92 1.325 . S
O149 Li88 1.970 . S
O149 Li89 1.956 . S
O149 Li91 1.961 . S
O149 C98 1.325 . S
O150 Li88 1.961 . S
O150 Li90 1.956 . S
O150 Li91 1.970 . S
O150 C120 1.325 . S
O151 Li89 1.961 . S
O151 Li90 1.970 . S
O151 Li91 1.956 . S
O151 C126 1.325 . S
H152 C94 0.929 . S
H153 C95 0.930 . S
H154 C96 0.930 . S
H155 C97 0.930 . S
H156 C99 0.930 . S
H157 C101 0.929 . S
H158 C102 0.930 . S
H159 C103 0.930 . S
H160 C106 0.930 . S
H161 C109 0.929 . S
H162 C114 0.929 . S
H163 C115 0.930 . S
H164 C122 0.929 . S
H165 C123 0.930 . S
H166 C124 0.930 . S
H167 C125 0.930 . S
H168 C127 0.929 . S
H169 C128 0.930 . S
H170 C129 0.930 . S
H171 C130 0.930 . S
H172 C134 0.929 . S
H173 C136 0.930 . S
H174 C142 0.929 . S
H175 C143 0.930 . S
Li176 N193 1.990 . S
Li176 O236 1.956 . S
Li176 O237 1.970 1_455 S
Li176 O238 1.961 . S
Li177 N201 1.990 1_556 S
Li177 O236 1.970 1_655 S
Li177 O237 1.956 . S
Li177 O239 1.961 . S
Li178 N223 1.990 . S
Li178 O236 1.961 . S
Li178 O238 1.956 . S
Li178 O239 1.970 1_455 S
Li179 N229 1.990 . S
Li179 O237 1.961 . S
Li179 O238 1.970 1_655 S
Li179 O239 1.956 . S
C180 C182 1.348 1_556 S
C180 C183 1.356 . S
C180 O236 1.325 . S
N181 C184 1.314 . S
N181 C185 1.279 1_554 S
C182 C180 1.348 1_554 S
C182 C184 1.353 . S
C182 H240 0.929 . S
C183 C180 1.356 . S
C183 C185 1.358 . S
C183 H241 0.930 . S
C184 N181 1.314 . S
C184 C182 1.353 . S
C184 H242 0.930 . S
C185 N181 1.279 1_556 S
C185 C183 1.358 . S
C185 H243 0.930 . S
C186 C189 1.348 . S
C186 C190 1.356 . S
C186 O237 1.325 . S
C187 N188 1.279 . S
C187 C190 1.358 . S
C187 H244 0.930 . S
N188 C187 1.279 . S
N188 C191 1.314 . S
C189 C186 1.348 . S
C189 C191 1.353 . S
C189 H245 0.929 . S
C190 C186 1.356 . S
C190 C187 1.358 . S
C190 H246 0.930 . S
C191 N188 1.314 . S
C191 C189 1.353 . S
C191 H247 0.930 . S
C192 N193 1.314 1_655 S
C192 C197 1.353 . S
C192 H198 0.930 . S
N193 Li176 1.990 . S
N193 C192 1.314 1_455 S
N193 C195 1.279 . S
C194 C195 1.358 . S
C194 C196 1.356 . S
C194 H248 0.930 . S
C195 N193 1.279 . S
C195 C194 1.358 . S
C195 H199 0.930 . S
C196 C194 1.356 . S
C196 C197 1.348 1_455 S
C197 C192 1.353 . S
C197 C196 1.348 1_655 S
C197 H249 0.929 . S
H198 C192 0.930 . S
H199 C195 0.930 . S
C200 N201 1.314 . S
C200 C202 1.353 . S
C200 H206 0.930 1_655 S
N201 Li177 1.990 1_554 S
N201 C200 1.314 . S
N201 C204 1.279 . S
C202 C200 1.353 . S
C202 C205 1.348 . S
C202 H250 0.929 . S
C203 C204 1.358 . S
C203 C205 1.356 . S
C203 H251 0.930 . S
C204 N201 1.279 . S
C204 C203 1.358 . S
C204 H207 0.930 . S
C205 C202 1.348 . S
C205 C203 1.356 . S
H206 C200 0.930 1_455 S
H207 C204 0.930 . S
C208 C210 1.348 . S
C208 C211 1.356 . S
C208 O238 1.325 . S
N209 C212 1.314 . S
N209 C213 1.279 . S
C210 C208 1.348 . S
C210 C212 1.353 . S
C210 H252 0.929 1_455 S
C211 C208 1.356 . S
C211 C213 1.358 . S
C211 H253 0.930 . S
C212 N209 1.314 . S
C212 C210 1.353 . S
C212 H254 0.930 . S
C213 N209 1.279 . S
C213 C211 1.358 . S
C213 H255 0.930 . S
C214 C215 1.348 1_655 S
C214 C216 1.356 . S
C214 O239 1.325 . S
C215 C214 1.348 1_455 S
C215 C217 1.353 . S
C215 H256 0.929 . S
C216 C214 1.356 . S
C216 C218 1.358 . S
C216 H257 0.930 . S
C217 C215 1.353 . S
C217 N219 1.314 1_455 S
C217 H258 0.930 . S
C218 C216 1.358 . S
C218 N219 1.279 . S
C218 H259 0.930 . S
N219 C217 1.314 1_655 S
N219 C218 1.279 . S
C220 C222 1.353 . S
C220 N223 1.314 . S
C220 H226 0.930 . S
C221 N223 1.279 . S
C221 C224 1.358 . S
C221 H227 0.930 . S
C222 C220 1.353 . S
C222 C225 1.348 . S
C222 H260 0.929 . S
N223 Li178 1.990 . S
N223 C220 1.314 . S
N223 C221 1.279 . S
C224 C221 1.358 . S
C224 C225 1.356 . S
C224 H261 0.930 . S
C225 C222 1.348 . S
C225 C224 1.356 . S
H226 C220 0.930 . S
H227 C221 0.930 . S
C228 N229 1.314 . S
C228 C230 1.353 . S
C228 H234 0.930 . S
N229 Li179 1.990 . S
N229 C228 1.314 . S
N229 C232 1.279 . S
C230 C228 1.353 . S
C230 C233 1.348 . S
C230 H262 0.929 . S
C231 C232 1.358 . S
C231 C233 1.356 . S
C231 H263 0.930 . S
C232 N229 1.279 . S
C232 C231 1.358 . S
C232 H235 0.930 . S
C233 C230 1.348 . S
C233 C231 1.356 . S
H234 C228 0.930 . S
H235 C232 0.930 . S
O236 Li176 1.956 . S
O236 Li177 1.970 1_455 S
O236 Li178 1.961 . S
O236 C180 1.325 . S
O237 Li176 1.970 1_655 S
O237 Li177 1.956 . S
O237 Li179 1.961 . S
O237 C186 1.325 . S
O238 Li176 1.961 . S
O238 Li178 1.956 . S
O238 Li179 1.970 1_455 S
O238 C208 1.325 . S
O239 Li177 1.961 . S
O239 Li178 1.970 1_655 S
O239 Li179 1.956 . S
O239 C214 1.325 . S
H240 C182 0.929 . S
H241 C183 0.930 . S
H242 C184 0.930 . S
H243 C185 0.930 . S
H244 C187 0.930 . S
H245 C189 0.929 . S
H246 C190 0.930 . S
H247 C191 0.930 . S
H248 C194 0.930 . S
H249 C197 0.929 . S
H250 C202 0.929 . S
H251 C203 0.930 . S
H252 C210 0.929 1_655 S
H253 C211 0.930 . S
H254 C212 0.930 . S
H255 C213 0.930 . S
H256 C215 0.929 . S
H257 C216 0.930 . S
H258 C217 0.930 . S
H259 C218 0.930 . S
H260 C222 0.929 . S
H261 C224 0.930 . S
H262 C230 0.929 . S
H263 C231 0.930 . S
Li264 N281 1.990 . S
Li264 O324 1.956 . S
Li264 O325 1.970 1_545 S
Li264 O326 1.961 . S
Li265 N289 1.990 . S
Li265 O324 1.970 1_565 S
Li265 O325 1.956 . S
Li265 O327 1.961 . S
Li266 N311 1.990 . S
Li266 O324 1.961 . S
Li266 O326 1.956 . S
Li266 O327 1.970 1_545 S
Li267 N317 1.990 . S
Li267 O325 1.961 . S
Li267 O326 1.970 1_565 S
Li267 O327 1.956 . S
C268 C270 1.348 . S
C268 C271 1.356 . S
C268 O324 1.325 . S
N269 C272 1.314 . S
N269 C273 1.279 . S
C270 C268 1.348 . S
C270 C272 1.353 . S
C270 H328 0.929 . S
C271 C268 1.356 . S
C271 C273 1.358 . S
C271 H329 0.930 . S
C272 N269 1.314 . S
C272 C270 1.353 . S
C272 H330 0.930 . S
C273 N269 1.279 . S
C273 C271 1.358 . S
C273 H331 0.930 . S
C274 C277 1.348 . S
C274 C278 1.356 . S
C274 O325 1.325 . S
C275 N276 1.279 . S
C275 C278 1.358 . S
C275 H332 0.930 . S
N276 C275 1.279 . S
N276 C279 1.314 . S
C277 C274 1.348 . S
C277 C279 1.353 . S
C277 H333 0.929 . S
C278 C274 1.356 . S
C278 C275 1.358 . S
C278 H334 0.930 . S
C279 N276 1.314 . S
C279 C277 1.353 . S
C279 H335 0.930 . S
C280 N281 1.314 1_565 S
C280 C285 1.353 . S
C280 H286 0.930 . S
N281 Li264 1.990 . S
N281 C280 1.314 1_545 S
N281 C283 1.279 . S
C282 C283 1.358 . S
C282 C284 1.356 . S
C282 H336 0.930 . S
C283 N281 1.279 . S
C283 C282 1.358 . S
C283 H287 0.930 . S
C284 C282 1.356 . S
C284 C285 1.348 1_545 S
C285 C280 1.353 . S
C285 C284 1.348 1_565 S
C285 H337 0.929 . S
H286 C280 0.930 . S
H287 C283 0.930 . S
C288 N289 1.314 . S
C288 C290 1.353 . S
C288 H294 0.930 1_565 S
N289 Li265 1.990 . S
N289 C288 1.314 . S
N289 C292 1.279 . S
C290 C288 1.353 . S
C290 C293 1.348 . S
C290 H338 0.929 . S
C291 C292 1.358 . S
C291 C293 1.356 . S
C291 H339 0.930 . S
C292 N289 1.279 . S
C292 C291 1.358 . S
C292 H295 0.930 . S
C293 C290 1.348 . S
C293 C291 1.356 . S
H294 C288 0.930 1_545 S
H295 C292 0.930 . S
C296 C298 1.348 . S
C296 C299 1.356 . S
C296 O326 1.325 . S
N297 C300 1.314 . S
N297 C301 1.279 . S
C298 C296 1.348 . S
C298 C300 1.353 . S
C298 H340 0.929 1_545 S
C299 C296 1.356 . S
C299 C301 1.358 . S
C299 H341 0.930 . S
C300 N297 1.314 . S
C300 C298 1.353 . S
C300 H342 0.930 . S
C301 N297 1.279 . S
C301 C299 1.358 . S
C301 H343 0.930 . S
C302 C303 1.348 1_565 S
C302 C304 1.356 . S
C302 O327 1.325 . S
C303 C302 1.348 1_545 S
C303 C305 1.353 . S
C303 H344 0.929 . S
C304 C302 1.356 . S
C304 C306 1.358 . S
C304 H345 0.930 . S
C305 C303 1.353 . S
C305 N307 1.314 1_545 S
C305 H346 0.930 . S
C306 C304 1.358 . S
C306 N307 1.279 . S
C306 H347 0.930 . S
N307 C305 1.314 1_565 S
N307 C306 1.279 . S
C308 C310 1.353 . S
C308 N311 1.314 . S
C308 H314 0.930 . S
C309 N311 1.279 . S
C309 C312 1.358 . S
C309 H315 0.930 . S
C310 C308 1.353 . S
C310 C313 1.348 . S
C310 H348 0.929 . S
N311 Li266 1.990 . S
N311 C308 1.314 . S
N311 C309 1.279 . S
C312 C309 1.358 . S
C312 C313 1.356 . S
C312 H349 0.930 . S
C313 C310 1.348 . S
C313 C312 1.356 . S
H314 C308 0.930 . S
H315 C309 0.930 . S
C316 N317 1.314 . S
C316 C318 1.353 . S
C316 H322 0.930 . S
N317 Li267 1.990 . S
N317 C316 1.314 . S
N317 C320 1.279 . S
C318 C316 1.353 . S
C318 C321 1.348 . S
C318 H350 0.929 . S
C319 C320 1.358 . S
C319 C321 1.356 . S
C319 H351 0.930 . S
C320 N317 1.279 . S
C320 C319 1.358 . S
C320 H323 0.930 . S
C321 C318 1.348 . S
C321 C319 1.356 . S
H322 C316 0.930 . S
H323 C320 0.930 . S
O324 Li264 1.956 . S
O324 Li265 1.970 1_545 S
O324 Li266 1.961 . S
O324 C268 1.325 . S
O325 Li264 1.970 1_565 S
O325 Li265 1.956 . S
O325 Li267 1.961 . S
O325 C274 1.325 . S
O326 Li264 1.961 . S
O326 Li266 1.956 . S
O326 Li267 1.970 1_545 S
O326 C296 1.325 . S
O327 Li265 1.961 . S
O327 Li266 1.970 1_565 S
O327 Li267 1.956 . S
O327 C302 1.325 . S
H328 C270 0.929 . S
H329 C271 0.930 . S
H330 C272 0.930 . S
H331 C273 0.930 . S
H332 C275 0.930 . S
H333 C277 0.929 . S
H334 C278 0.930 . S
H335 C279 0.930 . S
H336 C282 0.930 . S
H337 C285 0.929 . S
H338 C290 0.929 . S
H339 C291 0.930 . S
H340 C298 0.929 1_565 S
H341 C299 0.930 . S
H342 C300 0.930 . S
H343 C301 0.930 . S
H344 C303 0.929 . S
H345 C304 0.930 . S
H346 C305 0.930 . S
H347 C306 0.930 . S
H348 C310 0.929 . S
H349 C312 0.930 . S
H350 C318 0.929 . S
H351 C319 0.930 . S
Li352 N369 1.990 . S
Li352 O412 1.956 . S
Li352 O413 1.970 . S
Li352 O414 1.961 . S
Li353 N377 1.990 . S
Li353 O412 1.970 . S
Li353 O413 1.956 . S
Li353 O415 1.961 . S
Li354 N399 1.990 . S
Li354 O412 1.961 . S
Li354 O414 1.956 . S
Li354 O415 1.970 . S
Li355 N405 1.990 . S
Li355 O413 1.961 . S
Li355 O414 1.970 . S
Li355 O415 1.956 . S
C356 C358 1.348 . S
C356 C359 1.356 . S
C356 O412 1.325 . S
N357 C360 1.314 . S
N357 C361 1.279 . S
C358 C356 1.348 . S
C358 C360 1.353 . S
C358 H416 0.929 . S
C359 C356 1.356 . S
C359 C361 1.358 . S
C359 H417 0.930 . S
C360 N357 1.314 . S
C360 C358 1.353 . S
C360 H418 0.930 . S
C361 N357 1.279 . S
C361 C359 1.358 . S
C361 H419 0.930 . S
C362 C365 1.348 . S
C362 C366 1.356 . S
C362 O413 1.325 . S
C363 N364 1.279 . S
C363 C366 1.358 . S
C363 H420 0.930 . S
N364 C363 1.279 . S
N364 C367 1.314 . S
C365 C362 1.348 . S
C365 C367 1.353 . S
C365 H421 0.929 . S
C366 C362 1.356 . S
C366 C363 1.358 . S
C366 H422 0.930 . S
C367 N364 1.314 . S
C367 C365 1.353 . S
C367 H423 0.930 . S
C368 N369 1.314 . S
C368 C373 1.353 . S
C368 H374 0.930 . S
N369 Li352 1.990 . S
N369 C368 1.314 . S
N369 C371 1.279 . S
C370 C371 1.358 . S
C370 C372 1.356 . S
C370 H424 0.930 . S
C371 N369 1.279 . S
C371 C370 1.358 . S
C371 H375 0.930 . S
C372 C370 1.356 . S
C372 C373 1.348 . S
C373 C368 1.353 . S
C373 C372 1.348 . S
C373 H425 0.929 . S
H374 C368 0.930 . S
H375 C371 0.930 . S
C376 N377 1.314 . S
C376 C378 1.353 . S
C376 H382 0.930 . S
N377 Li353 1.990 . S
N377 C376 1.314 . S
N377 C380 1.279 . S
C378 C376 1.353 . S
C378 C381 1.348 . S
C378 H426 0.929 . S
C379 C380 1.358 . S
C379 C381 1.356 . S
C379 H427 0.930 . S
C380 N377 1.279 . S
C380 C379 1.358 . S
C380 H383 0.930 . S
C381 C378 1.348 . S
C381 C379 1.356 . S
H382 C376 0.930 . S
H383 C380 0.930 . S
C384 C386 1.348 . S
C384 C387 1.356 . S
C384 O414 1.325 . S
N385 C388 1.314 . S
N385 C389 1.279 . S
C386 C384 1.348 . S
C386 C388 1.353 . S
C386 H428 0.929 . S
C387 C384 1.356 . S
C387 C389 1.358 . S
C387 H429 0.930 . S
C388 N385 1.314 . S
C388 C386 1.353 . S
C388 H430 0.930 . S
C389 N385 1.279 . S
C389 C387 1.358 . S
C389 H431 0.930 . S
C390 C391 1.348 . S
C390 C392 1.356 . S
C390 O415 1.325 . S
C391 C390 1.348 . S
C391 C393 1.353 . S
C391 H432 0.929 . S
C392 C390 1.356 . S
C392 C394 1.358 . S
C392 H433 0.930 . S
C393 C391 1.353 . S
C393 N395 1.314 . S
C393 H434 0.930 . S
C394 C392 1.358 . S
C394 N395 1.279 . S
C394 H435 0.930 . S
N395 C393 1.314 . S
N395 C394 1.279 . S
C396 C398 1.353 . S
C396 N399 1.314 . S
C396 H402 0.930 . S
C397 N399 1.279 . S
C397 C400 1.358 . S
C397 H403 0.930 . S
C398 C396 1.353 . S
C398 C401 1.348 . S
C398 H436 0.929 . S
N399 Li354 1.990 . S
N399 C396 1.314 . S
N399 C397 1.279 . S
C400 C397 1.358 . S
C400 C401 1.356 . S
C400 H437 0.930 . S
C401 C398 1.348 . S
C401 C400 1.356 . S
H402 C396 0.930 . S
H403 C397 0.930 . S
C404 N405 1.314 . S
C404 C406 1.353 . S
C404 H410 0.930 . S
N405 Li355 1.990 . S
N405 C404 1.314 . S
N405 C408 1.279 . S
C406 C404 1.353 . S
C406 C409 1.348 . S
C406 H438 0.929 . S
C407 C408 1.358 . S
C407 C409 1.356 . S
C407 H439 0.930 . S
C408 N405 1.279 . S
C408 C407 1.358 . S
C408 H411 0.930 . S
C409 C406 1.348 . S
C409 C407 1.356 . S
H410 C404 0.930 . S
H411 C408 0.930 . S
O412 Li352 1.956 . S
O412 Li353 1.970 . S
O412 Li354 1.961 . S
O412 C356 1.325 . S
O413 Li352 1.970 . S
O413 Li353 1.956 . S
O413 Li355 1.961 . S
O413 C362 1.325 . S
O414 Li352 1.961 . S
O414 Li354 1.956 . S
O414 Li355 1.970 . S
O414 C384 1.325 . S
O415 Li353 1.961 . S
O415 Li354 1.970 . S
O415 Li355 1.956 . S
O415 C390 1.325 . S
H416 C358 0.929 . S
H417 C359 0.930 . S
H418 C360 0.930 . S
H419 C361 0.930 . S
H420 C363 0.930 . S
H421 C365 0.929 . S
H422 C366 0.930 . S
H423 C367 0.930 . S
H424 C370 0.930 . S
H425 C373 0.929 . S
H426 C378 0.929 . S
H427 C379 0.930 . S
H428 C386 0.929 . S
H429 C387 0.930 . S
H430 C388 0.930 . S
H431 C389 0.930 . S
H432 C391 0.929 . S
H433 C392 0.930 . S
H434 C393 0.930 . S
H435 C394 0.930 . S
H436 C398 0.929 . S
H437 C400 0.930 . S
H438 C406 0.929 . S
H439 C407 0.930 . S
Li440 N457 1.990 . S
Li440 O500 1.956 . S
Li440 O501 1.970 1_655 S
Li440 O502 1.961 . S
Li441 N465 1.990 1_556 S
Li441 O500 1.970 1_455 S
Li441 O501 1.956 . S
Li441 O503 1.961 . S
Li442 N487 1.990 . S
Li442 O500 1.961 . S
Li442 O502 1.956 . S
Li442 O503 1.970 1_655 S
Li443 N493 1.990 . S
Li443 O501 1.961 . S
Li443 O502 1.970 1_455 S
Li443 O503 1.956 . S
C444 C446 1.348 1_556 S
C444 C447 1.356 . S
C444 O500 1.325 . S
N445 C448 1.314 . S
N445 C449 1.279 1_554 S
C446 C444 1.348 1_554 S
C446 C448 1.353 . S
C446 H504 0.929 . S
C447 C444 1.356 . S
C447 C449 1.358 . S
C447 H505 0.930 . S
C448 N445 1.314 . S
C448 C446 1.353 . S
C448 H506 0.930 . S
C449 N445 1.279 1_556 S
C449 C447 1.358 . S
C449 H507 0.930 . S
C450 C453 1.348 . S
C450 C454 1.356 . S
C450 O501 1.325 . S
C451 N452 1.279 . S
C451 C454 1.358 . S
C451 H508 0.930 . S
N452 C451 1.279 . S
N452 C455 1.314 . S
C453 C450 1.348 . S
C453 C455 1.353 . S
C453 H509 0.929 . S
C454 C450 1.356 . S
C454 C451 1.358 . S
C454 H510 0.930 . S
C455 N452 1.314 . S
C455 C453 1.353 . S
C455 H511 0.930 . S
C456 N457 1.314 1_455 S
C456 C461 1.353 . S
C456 H462 0.930 . S
N457 Li440 1.990 . S
N457 C456 1.314 1_655 S
N457 C459 1.279 . S
C458 C459 1.358 . S
C458 C460 1.356 . S
C458 H512 0.930 . S
C459 N457 1.279 . S
C459 C458 1.358 . S
C459 H463 0.930 . S
C460 C458 1.356 . S
C460 C461 1.348 1_655 S
C461 C456 1.353 . S
C461 C460 1.348 1_455 S
C461 H513 0.929 . S
H462 C456 0.930 . S
H463 C459 0.930 . S
C464 N465 1.314 . S
C464 C466 1.353 . S
C464 H470 0.930 1_455 S
N465 Li441 1.990 1_554 S
N465 C464 1.314 . S
N465 C468 1.279 . S
C466 C464 1.353 . S
C466 C469 1.348 . S
C466 H514 0.929 . S
C467 C468 1.358 . S
C467 C469 1.356 . S
C467 H515 0.930 . S
C468 N465 1.279 . S
C468 C467 1.358 . S
C468 H471 0.930 . S
C469 C466 1.348 . S
C469 C467 1.356 . S
H470 C464 0.930 1_655 S
H471 C468 0.930 . S
C472 C474 1.348 . S
C472 C475 1.356 . S
C472 O502 1.325 . S
N473 C476 1.314 . S
N473 C477 1.279 . S
C474 C472 1.348 . S
C474 C476 1.353 . S
C474 H516 0.929 1_655 S
C475 C472 1.356 . S
C475 C477 1.358 . S
C475 H517 0.930 . S
C476 N473 1.314 . S
C476 C474 1.353 . S
C476 H518 0.930 . S
C477 N473 1.279 . S
C477 C475 1.358 . S
C477 H519 0.930 . S
C478 C479 1.348 1_455 S
C478 C480 1.356 . S
C478 O503 1.325 . S
C479 C478 1.348 1_655 S
C479 C481 1.353 . S
C479 H520 0.929 . S
C480 C478 1.356 . S
C480 C482 1.358 . S
C480 H521 0.930 . S
C481 C479 1.353 . S
C481 N483 1.314 1_655 S
C481 H522 0.930 . S
C482 C480 1.358 . S
C482 N483 1.279 . S
C482 H523 0.930 . S
N483 C481 1.314 1_455 S
N483 C482 1.279 . S
C484 C486 1.353 . S
C484 N487 1.314 . S
C484 H490 0.930 . S
C485 N487 1.279 . S
C485 C488 1.358 . S
C485 H491 0.930 . S
C486 C484 1.353 . S
C486 C489 1.348 . S
C486 H524 0.929 . S
N487 Li442 1.990 . S
N487 C484 1.314 . S
N487 C485 1.279 . S
C488 C485 1.358 . S
C488 C489 1.356 . S
C488 H525 0.930 . S
C489 C486 1.348 . S
C489 C488 1.356 . S
H490 C484 0.930 . S
H491 C485 0.930 . S
C492 N493 1.314 . S
C492 C494 1.353 . S
C492 H498 0.930 . S
N493 Li443 1.990 . S
N493 C492 1.314 . S
N493 C496 1.279 . S
C494 C492 1.353 . S
C494 C497 1.348 . S
C494 H526 0.929 . S
C495 C496 1.358 . S
C495 C497 1.356 . S
C495 H527 0.930 . S
C496 N493 1.279 . S
C496 C495 1.358 . S
C496 H499 0.930 . S
C497 C494 1.348 . S
C497 C495 1.356 . S
H498 C492 0.930 . S
H499 C496 0.930 . S
O500 Li440 1.956 . S
O500 Li441 1.970 1_655 S
O500 Li442 1.961 . S
O500 C444 1.325 . S
O501 Li440 1.970 1_455 S
O501 Li441 1.956 . S
O501 Li443 1.961 . S
O501 C450 1.325 . S
O502 Li440 1.961 . S
O502 Li442 1.956 . S
O502 Li443 1.970 1_655 S
O502 C472 1.325 . S
O503 Li441 1.961 . S
O503 Li442 1.970 1_455 S
O503 Li443 1.956 . S
O503 C478 1.325 . S
H504 C446 0.929 . S
H505 C447 0.930 . S
H506 C448 0.930 . S
H507 C449 0.930 . S
H508 C451 0.930 . S
H509 C453 0.929 . S
H510 C454 0.930 . S
H511 C455 0.930 . S
H512 C458 0.930 . S
H513 C461 0.929 . S
H514 C466 0.929 . S
H515 C467 0.930 . S
H516 C474 0.929 1_455 S
H517 C475 0.930 . S
H518 C476 0.930 . S
H519 C477 0.930 . S
H520 C479 0.929 . S
H521 C480 0.930 . S
H522 C481 0.930 . S
H523 C482 0.930 . S
H524 C486 0.929 . S
H525 C488 0.930 . S
H526 C494 0.929 . S
H527 C495 0.930 . S
Li528 N545 1.990 . S
Li528 O588 1.956 . S
Li528 O589 1.970 1_455 S
Li528 O590 1.961 . S
Li529 N553 1.990 . S
Li529 O588 1.970 1_655 S
Li529 O589 1.956 . S
Li529 O591 1.961 . S
Li530 N575 1.990 . S
Li530 O588 1.961 . S
Li530 O590 1.956 . S
Li530 O591 1.970 1_455 S
Li531 N581 1.990 . S
Li531 O589 1.961 . S
Li531 O590 1.970 1_655 S
Li531 O591 1.956 . S
C532 C534 1.348 . S
C532 C535 1.356 . S
C532 O588 1.325 . S
N533 C536 1.314 . S
N533 C537 1.279 . S
C534 C532 1.348 . S
C534 C536 1.353 . S
C534 H592 0.929 1_455 S
C535 C532 1.356 . S
C535 C537 1.358 . S
C535 H593 0.930 . S
C536 N533 1.314 . S
C536 C534 1.353 . S
C536 H594 0.930 . S
C537 N533 1.279 . S
C537 C535 1.358 . S
C537 H595 0.930 . S
C538 C541 1.348 1_655 S
C538 C542 1.356 . S
C538 O589 1.325 . S
C539 N540 1.279 . S
C539 C542 1.358 . S
C539 H596 0.930 . S
N540 C539 1.279 . S
N540 C543 1.314 1_655 S
C541 C538 1.348 1_455 S
C541 C543 1.353 . S
C541 H597 0.929 . S
C542 C538 1.356 . S
C542 C539 1.358 . S
C542 H598 0.930 . S
C543 N540 1.314 1_455 S
C543 C541 1.353 . S
C543 H599 0.930 . S
C544 N545 1.314 . S
C544 C549 1.353 . S
C544 H550 0.930 . S
N545 Li528 1.990 . S
N545 C544 1.314 . S
N545 C547 1.279 . S
C546 C547 1.358 . S
C546 C548 1.356 . S
C546 H600 0.930 . S
C547 N545 1.279 . S
C547 C546 1.358 . S
C547 H551 0.930 . S
C548 C546 1.356 . S
C548 C549 1.348 . S
C549 C544 1.353 . S
C549 C548 1.348 . S
C549 H601 0.929 . S
H550 C544 0.930 . S
H551 C547 0.930 . S
C552 N553 1.314 . S
C552 C554 1.353 . S
C552 H558 0.930 . S
N553 Li529 1.990 . S
N553 C552 1.314 . S
N553 C556 1.279 . S
C554 C552 1.353 . S
C554 C557 1.348 . S
C554 H602 0.929 . S
C555 C556 1.358 . S
C555 C557 1.356 . S
C555 H603 0.930 . S
C556 N553 1.279 . S
C556 C555 1.358 . S
C556 H559 0.930 . S
C557 C554 1.348 . S
C557 C555 1.356 . S
H558 C552 0.930 . S
H559 C556 0.930 . S
C560 C562 1.348 . S
C560 C563 1.356 . S
C560 O590 1.325 . S
N561 C564 1.314 . S
N561 C565 1.279 . S
C562 C560 1.348 . S
C562 C564 1.353 . S
C562 H604 0.929 . S
C563 C560 1.356 . S
C563 C565 1.358 . S
C563 H605 0.930 . S
C564 N561 1.314 . S
C564 C562 1.353 . S
C564 H606 0.930 . S
C565 N561 1.279 . S
C565 C563 1.358 . S
C565 H607 0.930 . S
C566 C567 1.348 . S
C566 C568 1.356 . S
C566 O591 1.325 . S
C567 C566 1.348 . S
C567 C569 1.353 . S
C567 H608 0.929 . S
C568 C566 1.356 . S
C568 C570 1.358 . S
C568 H609 0.930 . S
C569 C567 1.353 . S
C569 N571 1.314 . S
C569 H610 0.930 . S
C570 C568 1.358 . S
C570 N571 1.279 . S
C570 H611 0.930 . S
N571 C569 1.314 . S
N571 C570 1.279 . S
C572 C574 1.353 . S
C572 N575 1.314 1_655 S
C572 H578 0.930 . S
C573 N575 1.279 . S
C573 C576 1.358 . S
C573 H579 0.930 . S
C574 C572 1.353 . S
C574 C577 1.348 1_655 S
C574 H612 0.929 . S
N575 Li530 1.990 . S
N575 C572 1.314 1_455 S
N575 C573 1.279 . S
C576 C573 1.358 . S
C576 C577 1.356 . S
C576 H613 0.930 . S
C577 C574 1.348 1_455 S
C577 C576 1.356 . S
H578 C572 0.930 . S
H579 C573 0.930 . S
C580 N581 1.314 . S
C580 C582 1.353 . S
C580 H586 0.930 1_655 S
N581 Li531 1.990 . S
N581 C580 1.314 . S
N581 C584 1.279 . S
C582 C580 1.353 . S
C582 C585 1.348 . S
C582 H614 0.929 . S
C583 C584 1.358 . S
C583 C585 1.356 . S
C583 H615 0.930 . S
C584 N581 1.279 . S
C584 C583 1.358 . S
C584 H587 0.930 . S
C585 C582 1.348 . S
C585 C583 1.356 . S
H586 C580 0.930 1_455 S
H587 C584 0.930 . S
O588 Li528 1.956 . S
O588 Li529 1.970 1_455 S
O588 Li530 1.961 . S
O588 C532 1.325 . S
O589 Li528 1.970 1_655 S
O589 Li529 1.956 . S
O589 Li531 1.961 . S
O589 C538 1.325 . S
O590 Li528 1.961 . S
O590 Li530 1.956 . S
O590 Li531 1.970 1_455 S
O590 C560 1.325 . S
O591 Li529 1.961 . S
O591 Li530 1.970 1_655 S
O591 Li531 1.956 . S
O591 C566 1.325 . S
H592 C534 0.929 1_655 S
H593 C535 0.930 . S
H594 C536 0.930 . S
H595 C537 0.930 . S
H596 C539 0.930 . S
H597 C541 0.929 . S
H598 C542 0.930 . S
H599 C543 0.930 . S
H600 C546 0.930 . S
H601 C549 0.929 . S
H602 C554 0.929 . S
H603 C555 0.930 . S
H604 C562 0.929 . S
H605 C563 0.930 . S
H606 C564 0.930 . S
H607 C565 0.930 . S
H608 C567 0.929 . S
H609 C568 0.930 . S
H610 C569 0.930 . S
H611 C570 0.930 . S
H612 C574 0.929 . S
H613 C576 0.930 . S
H614 C582 0.929 . S
H615 C583 0.930 . S
Li616 N633 1.990 . S
Li616 O676 1.956 . S
Li616 O677 1.970 1_545 S
Li616 O678 1.961 . S
Li617 N641 1.990 . S
Li617 O676 1.970 1_565 S
Li617 O677 1.956 . S
Li617 O679 1.961 . S
Li618 N663 1.990 . S
Li618 O676 1.961 . S
Li618 O678 1.956 . S
Li618 O679 1.970 1_545 S
Li619 N669 1.990 . S
Li619 O677 1.961 . S
Li619 O678 1.970 1_565 S
Li619 O679 1.956 . S
C620 C622 1.348 . S
C620 C623 1.356 . S
C620 O676 1.325 . S
N621 C624 1.314 . S
N621 C625 1.279 . S
C622 C620 1.348 . S
C622 C624 1.353 . S
C622 H680 0.929 1_545 S
C623 C620 1.356 . S
C623 C625 1.358 . S
C623 H681 0.930 . S
C624 N621 1.314 . S
C624 C622 1.353 . S
C624 H682 0.930 . S
C625 N621 1.279 . S
C625 C623 1.358 . S
C625 H683 0.930 . S
C626 C629 1.348 1_565 S
C626 C630 1.356 . S
C626 O677 1.325 . S
C627 N628 1.279 . S
C627 C630 1.358 . S
C627 H684 0.930 . S
N628 C627 1.279 . S
N628 C631 1.314 1_565 S
C629 C626 1.348 1_545 S
C629 C631 1.353 . S
C629 H685 0.929 . S
C630 C626 1.356 . S
C630 C627 1.358 . S
C630 H686 0.930 . S
C631 N628 1.314 1_545 S
C631 C629 1.353 . S
C631 H687 0.930 . S
C632 N633 1.314 . S
C632 C637 1.353 . S
C632 H638 0.930 . S
N633 Li616 1.990 . S
N633 C632 1.314 . S
N633 C635 1.279 . S
C634 C635 1.358 . S
C634 C636 1.356 . S
C634 H688 0.930 . S
C635 N633 1.279 . S
C635 C634 1.358 . S
C635 H639 0.930 . S
C636 C634 1.356 . S
C636 C637 1.348 . S
C637 C632 1.353 . S
C637 C636 1.348 . S
C637 H689 0.929 . S
H638 C632 0.930 . S
H639 C635 0.930 . S
C640 N641 1.314 . S
C640 C642 1.353 . S
C640 H646 0.930 . S
N641 Li617 1.990 . S
N641 C640 1.314 . S
N641 C644 1.279 . S
C642 C640 1.353 . S
C642 C645 1.348 . S
C642 H690 0.929 . S
C643 C644 1.358 . S
C643 C645 1.356 . S
C643 H691 0.930 . S
C644 N641 1.279 . S
C644 C643 1.358 . S
C644 H647 0.930 . S
C645 C642 1.348 . S
C645 C643 1.356 . S
H646 C640 0.930 . S
H647 C644 0.930 . S
C648 C650 1.348 . S
C648 C651 1.356 . S
C648 O678 1.325 . S
N649 C652 1.314 . S
N649 C653 1.279 . S
C650 C648 1.348 . S
C650 C652 1.353 . S
C650 H692 0.929 . S
C651 C648 1.356 . S
C651 C653 1.358 . S
C651 H693 0.930 . S
C652 N649 1.314 . S
C652 C650 1.353 . S
C652 H694 0.930 . S
C653 N649 1.279 . S
C653 C651 1.358 . S
C653 H695 0.930 . S
C654 C655 1.348 . S
C654 C656 1.356 . S
C654 O679 1.325 . S
C655 C654 1.348 . S
C655 C657 1.353 . S
C655 H696 0.929 . S
C656 C654 1.356 . S
C656 C658 1.358 . S
C656 H697 0.930 . S
C657 C655 1.353 . S
C657 N659 1.314 . S
C657 H698 0.930 . S
C658 C656 1.358 . S
C658 N659 1.279 . S
C658 H699 0.930 . S
N659 C657 1.314 . S
N659 C658 1.279 . S
C660 C662 1.353 . S
C660 N663 1.314 1_565 S
C660 H666 0.930 . S
C661 N663 1.279 . S
C661 C664 1.358 . S
C661 H667 0.930 . S
C662 C660 1.353 . S
C662 C665 1.348 1_565 S
C662 H700 0.929 . S
N663 Li618 1.990 . S
N663 C660 1.314 1_545 S
N663 C661 1.279 . S
C664 C661 1.358 . S
C664 C665 1.356 . S
C664 H701 0.930 . S
C665 C662 1.348 1_545 S
C665 C664 1.356 . S
H666 C660 0.930 . S
H667 C661 0.930 . S
C668 N669 1.314 . S
C668 C670 1.353 . S
C668 H674 0.930 1_565 S
N669 Li619 1.990 . S
N669 C668 1.314 . S
N669 C672 1.279 . S
C670 C668 1.353 . S
C670 C673 1.348 . S
C670 H702 0.929 . S
C671 C672 1.358 . S
C671 C673 1.356 . S
C671 H703 0.930 . S
C672 N669 1.279 . S
C672 C671 1.358 . S
C672 H675 0.930 . S
C673 C670 1.348 . S
C673 C671 1.356 . S
H674 C668 0.930 1_545 S
H675 C672 0.930 . S
O676 Li616 1.956 . S
O676 Li617 1.970 1_545 S
O676 Li618 1.961 . S
O676 C620 1.325 . S
O677 Li616 1.970 1_565 S
O677 Li617 1.956 . S
O677 Li619 1.961 . S
O677 C626 1.325 . S
O678 Li616 1.961 . S
O678 Li618 1.956 . S
O678 Li619 1.970 1_545 S
O678 C648 1.325 . S
O679 Li617 1.961 . S
O679 Li618 1.970 1_565 S
O679 Li619 1.956 . S
O679 C654 1.325 . S
H680 C622 0.929 1_565 S
H681 C623 0.930 . S
H682 C624 0.930 . S
H683 C625 0.930 . S
H684 C627 0.930 . S
H685 C629 0.929 . S
H686 C630 0.930 . S
H687 C631 0.930 . S
H688 C634 0.930 . S
H689 C637 0.929 . S
H690 C642 0.929 . S
H691 C643 0.930 . S
H692 C650 0.929 . S
H693 C651 0.930 . S
H694 C652 0.930 . S
H695 C653 0.930 . S
H696 C655 0.929 . S
H697 C656 0.930 . S
H698 C657 0.930 . S
H699 C658 0.930 . S
H700 C662 0.929 . S
H701 C664 0.930 . S
H702 C670 0.929 . S
H703 C671 0.930 . S
Li704 N721 1.990 . S
Li704 O764 1.956 . S
Li704 O765 1.970 . S
Li704 O766 1.961 . S
Li705 N729 1.990 . S
Li705 O764 1.970 . S
Li705 O765 1.956 . S
Li705 O767 1.961 . S
Li706 N751 1.990 . S
Li706 O764 1.961 . S
Li706 O766 1.956 . S
Li706 O767 1.970 . S
Li707 N757 1.990 1_554 S
Li707 O765 1.961 . S
Li707 O766 1.970 . S
Li707 O767 1.956 . S
C708 C710 1.348 . S
C708 C711 1.356 . S
C708 O764 1.325 . S
N709 C712 1.314 . S
N709 C713 1.279 . S
C710 C708 1.348 . S
C710 C712 1.353 . S
C710 H768 0.929 . S
C711 C708 1.356 . S
C711 C713 1.358 . S
C711 H769 0.930 . S
C712 N709 1.314 . S
C712 C710 1.353 . S
C712 H770 0.930 . S
C713 N709 1.279 . S
C713 C711 1.358 . S
C713 H771 0.930 . S
C714 C717 1.348 . S
C714 C718 1.356 . S
C714 O765 1.325 . S
C715 N716 1.279 . S
C715 C718 1.358 . S
C715 H772 0.930 . S
N716 C715 1.279 . S
N716 C719 1.314 . S
C717 C714 1.348 . S
C717 C719 1.353 . S
C717 H773 0.929 . S
C718 C714 1.356 . S
C718 C715 1.358 . S
C718 H774 0.930 . S
C719 N716 1.314 . S
C719 C717 1.353 . S
C719 H775 0.930 . S
C720 N721 1.314 . S
C720 C725 1.353 . S
C720 H726 0.930 . S
N721 Li704 1.990 . S
N721 C720 1.314 . S
N721 C723 1.279 . S
C722 C723 1.358 . S
C722 C724 1.356 . S
C722 H776 0.930 . S
C723 N721 1.279 . S
C723 C722 1.358 . S
C723 H727 0.930 . S
C724 C722 1.356 . S
C724 C725 1.348 . S
C725 C720 1.353 . S
C725 C724 1.348 . S
C725 H777 0.929 . S
H726 C720 0.930 . S
H727 C723 0.930 . S
C728 N729 1.314 . S
C728 C730 1.353 . S
C728 H734 0.930 . S
N729 Li705 1.990 . S
N729 C728 1.314 . S
N729 C732 1.279 . S
C730 C728 1.353 . S
C730 C733 1.348 . S
C730 H778 0.929 . S
C731 C732 1.358 . S
C731 C733 1.356 . S
C731 H779 0.930 . S
C732 N729 1.279 . S
C732 C731 1.358 . S
C732 H735 0.930 . S
C733 C730 1.348 . S
C733 C731 1.356 . S
H734 C728 0.930 . S
H735 C732 0.930 . S
C736 C738 1.348 1_554 S
C736 C739 1.356 . S
C736 O766 1.325 . S
N737 C740 1.314 . S
N737 C741 1.279 1_556 S
C738 C736 1.348 1_556 S
C738 C740 1.353 . S
C738 H780 0.929 . S
C739 C736 1.356 . S
C739 C741 1.358 . S
C739 H781 0.930 . S
C740 N737 1.314 . S
C740 C738 1.353 . S
C740 H782 0.930 . S
C741 N737 1.279 1_554 S
C741 C739 1.358 . S
C741 H783 0.930 . S
C742 C743 1.348 . S
C742 C744 1.356 . S
C742 O767 1.325 . S
C743 C742 1.348 . S
C743 C745 1.353 . S
C743 H784 0.929 . S
C744 C742 1.356 . S
C744 C746 1.358 . S
C744 H785 0.930 . S
C745 C743 1.353 . S
C745 N747 1.314 . S
C745 H786 0.930 . S
C746 C744 1.358 . S
C746 N747 1.279 . S
C746 H787 0.930 . S
N747 C745 1.314 . S
N747 C746 1.279 . S
C748 C750 1.353 . S
C748 N751 1.314 . S
C748 H754 0.930 . S
C749 N751 1.279 . S
C749 C752 1.358 . S
C749 H755 0.930 . S
C750 C748 1.353 . S
C750 C753 1.348 . S
C750 H788 0.929 . S
N751 Li706 1.990 . S
N751 C748 1.314 . S
N751 C749 1.279 . S
C752 C749 1.358 . S
C752 C753 1.356 . S
C752 H789 0.930 . S
C753 C750 1.348 . S
C753 C752 1.356 . S
H754 C748 0.930 . S
H755 C749 0.930 . S
C756 N757 1.314 . S
C756 C758 1.353 . S
C756 H762 0.930 . S
N757 Li707 1.990 1_556 S
N757 C756 1.314 . S
N757 C760 1.279 . S
C758 C756 1.353 . S
C758 C761 1.348 . S
C758 H790 0.929 . S
C759 C760 1.358 . S
C759 C761 1.356 . S
C759 H791 0.930 . S
C760 N757 1.279 . S
C760 C759 1.358 . S
C760 H763 0.930 . S
C761 C758 1.348 . S
C761 C759 1.356 . S
H762 C756 0.930 . S
H763 C760 0.930 . S
O764 Li704 1.956 . S
O764 Li705 1.970 . S
O764 Li706 1.961 . S
O764 C708 1.325 . S
O765 Li704 1.970 . S
O765 Li705 1.956 . S
O765 Li707 1.961 . S
O765 C714 1.325 . S
O766 Li704 1.961 . S
O766 Li706 1.956 . S
O766 Li707 1.970 . S
O766 C736 1.325 . S
O767 Li705 1.961 . S
O767 Li706 1.970 . S
O767 Li707 1.956 . S
O767 C742 1.325 . S
H768 C710 0.929 . S
H769 C711 0.930 . S
H770 C712 0.930 . S
H771 C713 0.930 . S
H772 C715 0.930 . S
H773 C717 0.929 . S
H774 C718 0.930 . S
H775 C719 0.930 . S
H776 C722 0.930 . S
H777 C725 0.929 . S
H778 C730 0.929 . S
H779 C731 0.930 . S
H780 C738 0.929 . S
H781 C739 0.930 . S
H782 C740 0.930 . S
H783 C741 0.930 . S
H784 C743 0.929 . S
H785 C744 0.930 . S
H786 C745 0.930 . S
H787 C746 0.930 . S
H788 C750 0.929 . S
H789 C752 0.930 . S
H790 C758 0.929 . S
H791 C759 0.930 . S
Li792 N809 1.990 . S
Li792 O852 1.956 . S
Li792 O853 1.970 1_455 S
Li792 O854 1.961 . S
Li793 N817 1.990 . S
Li793 O852 1.970 1_655 S
Li793 O853 1.956 . S
Li793 O855 1.961 . S
Li794 N839 1.990 . S
Li794 O852 1.961 . S
Li794 O854 1.956 . S
Li794 O855 1.970 1_455 S
Li795 N845 1.990 . S
Li795 O853 1.961 . S
Li795 O854 1.970 1_655 S
Li795 O855 1.956 . S
C796 C798 1.348 1_455 S
C796 C799 1.356 . S
C796 O852 1.325 . S
N797 C800 1.314 1_455 S
N797 C801 1.279 . S
C798 C796 1.348 1_655 S
C798 C800 1.353 . S
C798 H856 0.929 . S
C799 C796 1.356 . S
C799 C801 1.358 . S
C799 H857 0.930 . S
C800 N797 1.314 1_655 S
C800 C798 1.353 . S
C800 H858 0.930 . S
C801 N797 1.279 . S
C801 C799 1.358 . S
C801 H859 0.930 . S
C802 C805 1.348 . S
C802 C806 1.356 . S
C802 O853 1.325 . S
C803 N804 1.279 . S
C803 C806 1.358 . S
C803 H860 0.930 . S
N804 C803 1.279 . S
N804 C807 1.314 . S
C805 C802 1.348 . S
C805 C807 1.353 . S
C805 H861 0.929 1_655 S
C806 C802 1.356 . S
C806 C803 1.358 . S
C806 H862 0.930 . S
C807 N804 1.314 . S
C807 C805 1.353 . S
C807 H863 0.930 . S
C808 N809 1.314 . S
C808 C813 1.353 . S
C808 H814 0.930 . S
N809 Li792 1.990 . S
N809 C808 1.314 . S
N809 C811 1.279 . S
C810 C811 1.358 . S
C810 C812 1.356 . S
C810 H864 0.930 . S
C811 N809 1.279 . S
C811 C810 1.358 . S
C811 H815 0.930 . S
C812 C810 1.356 . S
C812 C813 1.348 . S
C813 C808 1.353 . S
C813 C812 1.348 . S
C813 H865 0.929 . S
H814 C808 0.930 . S
H815 C811 0.930 . S
C816 N817 1.314 . S
C816 C818 1.353 . S
C816 H822 0.930 . S
N817 Li793 1.990 . S
N817 C816 1.314 . S
N817 C820 1.279 . S
C818 C816 1.353 . S
C818 C821 1.348 . S
C818 H866 0.929 . S
C819 C820 1.358 . S
C819 C821 1.356 . S
C819 H867 0.930 . S
C820 N817 1.279 . S
C820 C819 1.358 . S
C820 H823 0.930 . S
C821 C818 1.348 . S
C821 C819 1.356 . S
H822 C816 0.930 . S
H823 C820 0.930 . S
C824 C826 1.348 . S
C824 C827 1.356 . S
C824 O854 1.325 . S
N825 C828 1.314 . S
N825 C829 1.279 . S
C826 C824 1.348 . S
C826 C828 1.353 . S
C826 H868 0.929 . S
C827 C824 1.356 . S
C827 C829 1.358 . S
C827 H869 0.930 . S
C828 N825 1.314 . S
C828 C826 1.353 . S
C828 H870 0.930 . S
C829 N825 1.279 . S
C829 C827 1.358 . S
C829 H871 0.930 . S
C830 C831 1.348 . S
C830 C832 1.356 . S
C830 O855 1.325 . S
C831 C830 1.348 . S
C831 C833 1.353 . S
C831 H872 0.929 . S
C832 C830 1.356 . S
C832 C834 1.358 . S
C832 H873 0.930 . S
C833 C831 1.353 . S
C833 N835 1.314 . S
C833 H874 0.930 . S
C834 C832 1.358 . S
C834 N835 1.279 . S
C834 H875 0.930 . S
N835 C833 1.314 . S
N835 C834 1.279 . S
C836 C838 1.353 . S
C836 N839 1.314 . S
C836 H842 0.930 1_455 S
C837 N839 1.279 . S
C837 C840 1.358 . S
C837 H843 0.930 . S
C838 C836 1.353 . S
C838 C841 1.348 . S
C838 H876 0.929 . S
N839 Li794 1.990 . S
N839 C836 1.314 . S
N839 C837 1.279 . S
C840 C837 1.358 . S
C840 C841 1.356 . S
C840 H877 0.930 . S
C841 C838 1.348 . S
C841 C840 1.356 . S
H842 C836 0.930 1_655 S
H843 C837 0.930 . S
C844 N845 1.314 1_455 S
C844 C846 1.353 . S
C844 H850 0.930 . S
N845 Li795 1.990 . S
N845 C844 1.314 1_655 S
N845 C848 1.279 . S
C846 C844 1.353 . S
C846 C849 1.348 1_455 S
C846 H878 0.929 . S
C847 C848 1.358 . S
C847 C849 1.356 . S
C847 H879 0.930 . S
C848 N845 1.279 . S
C848 C847 1.358 . S
C848 H851 0.930 . S
C849 C846 1.348 1_655 S
C849 C847 1.356 . S
H850 C844 0.930 . S
H851 C848 0.930 . S
O852 Li792 1.956 . S
O852 Li793 1.970 1_455 S
O852 Li794 1.961 . S
O852 C796 1.325 . S
O853 Li792 1.970 1_655 S
O853 Li793 1.956 . S
O853 Li795 1.961 . S
O853 C802 1.325 . S
O854 Li792 1.961 . S
O854 Li794 1.956 . S
O854 Li795 1.970 1_455 S
O854 C824 1.325 . S
O855 Li793 1.961 . S
O855 Li794 1.970 1_655 S
O855 Li795 1.956 . S
O855 C830 1.325 . S
H856 C798 0.929 . S
H857 C799 0.930 . S
H858 C800 0.930 . S
H859 C801 0.930 . S
H860 C803 0.930 . S
H861 C805 0.929 1_455 S
H862 C806 0.930 . S
H863 C807 0.930 . S
H864 C810 0.930 . S
H865 C813 0.929 . S
H866 C818 0.929 . S
H867 C819 0.930 . S
H868 C826 0.929 . S
H869 C827 0.930 . S
H870 C828 0.930 . S
H871 C829 0.930 . S
H872 C831 0.929 . S
H873 C832 0.930 . S
H874 C833 0.930 . S
H875 C834 0.930 . S
H876 C838 0.929 . S
H877 C840 0.930 . S
H878 C846 0.929 . S
H879 C847 0.930 . S
Li880 N897 1.990 . S
Li880 O940 1.956 . S
Li880 O941 1.970 1_545 S
Li880 O942 1.961 . S
Li881 N905 1.990 . S
Li881 O940 1.970 1_565 S
Li881 O941 1.956 . S
Li881 O943 1.961 . S
Li882 N927 1.990 . S
Li882 O940 1.961 . S
Li882 O942 1.956 . S
Li882 O943 1.970 1_545 S
Li883 N933 1.990 . S
Li883 O941 1.961 . S
Li883 O942 1.970 1_565 S
Li883 O943 1.956 . S
C884 C886 1.348 1_545 S
C884 C887 1.356 . S
C884 O940 1.325 . S
N885 C888 1.314 1_545 S
N885 C889 1.279 . S
C886 C884 1.348 1_565 S
C886 C888 1.353 . S
C886 H944 0.929 . S
C887 C884 1.356 . S
C887 C889 1.358 . S
C887 H945 0.930 . S
C888 N885 1.314 1_565 S
C888 C886 1.353 . S
C888 H946 0.930 . S
C889 N885 1.279 . S
C889 C887 1.358 . S
C889 H947 0.930 . S
C890 C893 1.348 . S
C890 C894 1.356 . S
C890 O941 1.325 . S
C891 N892 1.279 . S
C891 C894 1.358 . S
C891 H948 0.930 . S
N892 C891 1.279 . S
N892 C895 1.314 . S
C893 C890 1.348 . S
C893 C895 1.353 . S
C893 H949 0.929 1_565 S
C894 C890 1.356 . S
C894 C891 1.358 . S
C894 H950 0.930 . S
C895 N892 1.314 . S
C895 C893 1.353 . S
C895 H951 0.930 . S
C896 N897 1.314 . S
C896 C901 1.353 . S
C896 H902 0.930 . S
N897 Li880 1.990 . S
N897 C896 1.314 . S
N897 C899 1.279 . S
C898 C899 1.358 . S
C898 C900 1.356 . S
C898 H952 0.930 . S
C899 N897 1.279 . S
C899 C898 1.358 . S
C899 H903 0.930 . S
C900 C898 1.356 . S
C900 C901 1.348 . S
C901 C896 1.353 . S
C901 C900 1.348 . S
C901 H953 0.929 . S
H902 C896 0.930 . S
H903 C899 0.930 . S
C904 N905 1.314 . S
C904 C906 1.353 . S
C904 H910 0.930 . S
N905 Li881 1.990 . S
N905 C904 1.314 . S
N905 C908 1.279 . S
C906 C904 1.353 . S
C906 C909 1.348 . S
C906 H954 0.929 . S
C907 C908 1.358 . S
C907 C909 1.356 . S
C907 H955 0.930 . S
C908 N905 1.279 . S
C908 C907 1.358 . S
C908 H911 0.930 . S
C909 C906 1.348 . S
C909 C907 1.356 . S
H910 C904 0.930 . S
H911 C908 0.930 . S
C912 C914 1.348 . S
C912 C915 1.356 . S
C912 O942 1.325 . S
N913 C916 1.314 . S
N913 C917 1.279 . S
C914 C912 1.348 . S
C914 C916 1.353 . S
C914 H956 0.929 . S
C915 C912 1.356 . S
C915 C917 1.358 . S
C915 H957 0.930 . S
C916 N913 1.314 . S
C916 C914 1.353 . S
C916 H958 0.930 . S
C917 N913 1.279 . S
C917 C915 1.358 . S
C917 H959 0.930 . S
C918 C919 1.348 . S
C918 C920 1.356 . S
C918 O943 1.325 . S
C919 C918 1.348 . S
C919 C921 1.353 . S
C919 H960 0.929 . S
C920 C918 1.356 . S
C920 C922 1.358 . S
C920 H961 0.930 . S
C921 C919 1.353 . S
C921 N923 1.314 . S
C921 H962 0.930 . S
C922 C920 1.358 . S
C922 N923 1.279 . S
C922 H963 0.930 . S
N923 C921 1.314 . S
N923 C922 1.279 . S
C924 C926 1.353 . S
C924 N927 1.314 . S
C924 H930 0.930 1_545 S
C925 N927 1.279 . S
C925 C928 1.358 . S
C925 H931 0.930 . S
C926 C924 1.353 . S
C926 C929 1.348 . S
C926 H964 0.929 . S
N927 Li882 1.990 . S
N927 C924 1.314 . S
N927 C925 1.279 . S
C928 C925 1.358 . S
C928 C929 1.356 . S
C928 H965 0.930 . S
C929 C926 1.348 . S
C929 C928 1.356 . S
H930 C924 0.930 1_565 S
H931 C925 0.930 . S
C932 N933 1.314 1_545 S
C932 C934 1.353 . S
C932 H938 0.930 . S
N933 Li883 1.990 . S
N933 C932 1.314 1_565 S
N933 C936 1.279 . S
C934 C932 1.353 . S
C934 C937 1.348 1_545 S
C934 H966 0.929 . S
C935 C936 1.358 . S
C935 C937 1.356 . S
C935 H967 0.930 . S
C936 N933 1.279 . S
C936 C935 1.358 . S
C936 H939 0.930 . S
C937 C934 1.348 1_565 S
C937 C935 1.356 . S
H938 C932 0.930 . S
H939 C936 0.930 . S
O940 Li880 1.956 . S
O940 Li881 1.970 1_545 S
O940 Li882 1.961 . S
O940 C884 1.325 . S
O941 Li880 1.970 1_565 S
O941 Li881 1.956 . S
O941 Li883 1.961 . S
O941 C890 1.325 . S
O942 Li880 1.961 . S
O942 Li882 1.956 . S
O942 Li883 1.970 1_545 S
O942 C912 1.325 . S
O943 Li881 1.961 . S
O943 Li882 1.970 1_565 S
O943 Li883 1.956 . S
O943 C918 1.325 . S
H944 C886 0.929 . S
H945 C887 0.930 . S
H946 C888 0.930 . S
H947 C889 0.930 . S
H948 C891 0.930 . S
H949 C893 0.929 1_545 S
H950 C894 0.930 . S
H951 C895 0.930 . S
H952 C898 0.930 . S
H953 C901 0.929 . S
H954 C906 0.929 . S
H955 C907 0.930 . S
H956 C914 0.929 . S
H957 C915 0.930 . S
H958 C916 0.930 . S
H959 C917 0.930 . S
H960 C919 0.929 . S
H961 C920 0.930 . S
H962 C921 0.930 . S
H963 C922 0.930 . S
H964 C926 0.929 . S
H965 C928 0.930 . S
H966 C934 0.929 . S
H967 C935 0.930 . S
Li968 N985 1.990 . S
Li968 O1028 1.956 . S
Li968 O1029 1.970 . S
Li968 O1030 1.961 . S
Li969 N993 1.990 . S
Li969 O1028 1.970 . S
Li969 O1029 1.956 . S
Li969 O1031 1.961 . S
Li970 N1015 1.990 1_554 S
Li970 O1028 1.961 . S
Li970 O1030 1.956 . S
Li970 O1031 1.970 . S
Li971 N1021 1.990 . S
Li971 O1029 1.961 . S
Li971 O1030 1.970 . S
Li971 O1031 1.956 . S
C972 C974 1.348 . S
C972 C975 1.356 . S
C972 O1028 1.325 . S
N973 C976 1.314 . S
N973 C977 1.279 . S
C974 C972 1.348 . S
C974 C976 1.353 . S
C974 H1032 0.929 . S
C975 C972 1.356 . S
C975 C977 1.358 . S
C975 H1033 0.930 . S
C976 N973 1.314 . S
C976 C974 1.353 . S
C976 H1034 0.930 . S
C977 N973 1.279 . S
C977 C975 1.358 . S
C977 H1035 0.930 . S
C978 C981 1.348 . S
C978 C982 1.356 . S
C978 O1029 1.325 . S
C979 N980 1.279 . S
C979 C982 1.358 . S
C979 H1036 0.930 . S
N980 C979 1.279 . S
N980 C983 1.314 . S
C981 C978 1.348 . S
C981 C983 1.353 . S
C981 H1037 0.929 . S
C982 C978 1.356 . S
C982 C979 1.358 . S
C982 H1038 0.930 . S
C983 N980 1.314 . S
C983 C981 1.353 . S
C983 H1039 0.930 . S
C984 N985 1.314 . S
C984 C989 1.353 . S
C984 H990 0.930 . S
N985 Li968 1.990 . S
N985 C984 1.314 . S
N985 C987 1.279 . S
C986 C987 1.358 . S
C986 C988 1.356 . S
C986 H1040 0.930 . S
C987 N985 1.279 . S
C987 C986 1.358 . S
C987 H991 0.930 . S
C988 C986 1.356 . S
C988 C989 1.348 . S
C989 C984 1.353 . S
C989 C988 1.348 . S
C989 H1041 0.929 . S
H990 C984 0.930 . S
H991 C987 0.930 . S
C992 N993 1.314 . S
C992 C994 1.353 . S
C992 H998 0.930 . S
N993 Li969 1.990 . S
N993 C992 1.314 . S
N993 C996 1.279 . S
C994 C992 1.353 . S
C994 C997 1.348 . S
C994 H1042 0.929 . S
C995 C996 1.358 . S
C995 C997 1.356 . S
C995 H1043 0.930 . S
C996 N993 1.279 . S
C996 C995 1.358 . S
C996 H999 0.930 . S
C997 C994 1.348 . S
C997 C995 1.356 . S
H998 C992 0.930 . S
H999 C996 0.930 . S
C1000 C1002 1.348 . S
C1000 C1003 1.356 . S
C1000 O1030 1.325 . S
N1001 C1004 1.314 . S
N1001 C1005 1.279 . S
C1002 C1000 1.348 . S
C1002 C1004 1.353 . S
C1002 H1044 0.929 . S
C1003 C1000 1.356 . S
C1003 C1005 1.358 . S
C1003 H1045 0.930 . S
C1004 N1001 1.314 . S
C1004 C1002 1.353 . S
C1004 H1046 0.930 . S
C1005 N1001 1.279 . S
C1005 C1003 1.358 . S
C1005 H1047 0.930 . S
C1006 C1007 1.348 1_554 S
C1006 C1008 1.356 . S
C1006 O1031 1.325 . S
C1007 C1006 1.348 1_556 S
C1007 C1009 1.353 . S
C1007 H1048 0.929 . S
C1008 C1006 1.356 . S
C1008 C1010 1.358 . S
C1008 H1049 0.930 . S
C1009 C1007 1.353 . S
C1009 N1011 1.314 . S
C1009 H1050 0.930 . S
C1010 C1008 1.358 . S
C1010 N1011 1.279 1_554 S
C1010 H1051 0.930 . S
N1011 C1009 1.314 . S
N1011 C1010 1.279 1_556 S
C1012 C1014 1.353 . S
C1012 N1015 1.314 . S
C1012 H1018 0.930 . S
C1013 N1015 1.279 . S
C1013 C1016 1.358 . S
C1013 H1019 0.930 . S
C1014 C1012 1.353 . S
C1014 C1017 1.348 . S
C1014 H1052 0.929 . S
N1015 Li970 1.990 1_556 S
N1015 C1012 1.314 . S
N1015 C1013 1.279 . S
C1016 C1013 1.358 . S
C1016 C1017 1.356 . S
C1016 H1053 0.930 . S
C1017 C1014 1.348 . S
C1017 C1016 1.356 . S
H1018 C1012 0.930 . S
H1019 C1013 0.930 . S
C1020 N1021 1.314 . S
C1020 C1022 1.353 . S
C1020 H1026 0.930 . S
N1021 Li971 1.990 . S
N1021 C1020 1.314 . S
N1021 C1024 1.279 . S
C1022 C1020 1.353 . S
C1022 C1025 1.348 . S
C1022 H1054 0.929 . S
C1023 C1024 1.358 . S
C1023 C1025 1.356 . S
C1023 H1055 0.930 . S
C1024 N1021 1.279 . S
C1024 C1023 1.358 . S
C1024 H1027 0.930 . S
C1025 C1022 1.348 . S
C1025 C1023 1.356 . S
H1026 C1020 0.930 . S
H1027 C1024 0.930 . S
O1028 Li968 1.956 . S
O1028 Li969 1.970 . S
O1028 Li970 1.961 . S
O1028 C972 1.325 . S
O1029 Li968 1.970 . S
O1029 Li969 1.956 . S
O1029 Li971 1.961 . S
O1029 C978 1.325 . S
O1030 Li968 1.961 . S
O1030 Li970 1.956 . S
O1030 Li971 1.970 . S
O1030 C1000 1.325 . S
O1031 Li969 1.961 . S
O1031 Li970 1.970 . S
O1031 Li971 1.956 . S
O1031 C1006 1.325 . S
H1032 C974 0.929 . S
H1033 C975 0.930 . S
H1034 C976 0.930 . S
H1035 C977 0.930 . S
H1036 C979 0.930 . S
H1037 C981 0.929 . S
H1038 C982 0.930 . S
H1039 C983 0.930 . S
H1040 C986 0.930 . S
H1041 C989 0.929 . S
H1042 C994 0.929 . S
H1043 C995 0.930 . S
H1044 C1002 0.929 . S
H1045 C1003 0.930 . S
H1046 C1004 0.930 . S
H1047 C1005 0.930 . S
H1048 C1007 0.929 . S
H1049 C1008 0.930 . S
H1050 C1009 0.930 . S
H1051 C1010 0.930 . S
H1052 C1014 0.929 . S
H1053 C1016 0.930 . S
H1054 C1022 0.929 . S
H1055 C1023 0.930 . S
H1056 C1064 0.929 . S
H1057 C1066 0.930 . S
H1058 C1068 0.930 . S
H1059 C1071 0.929 . S
H1060 C1074 0.930 . S
H1061 C1076 0.960 . S
H1062 C1076 0.960 . S
H1063 C1076 0.960 . S
C1064 H1056 0.929 . S
C1064 C1065 1.377 . S
C1064 C1066 1.384 . S
C1065 C1064 1.377 . S
C1065 C1071 1.390 . S
C1066 H1057 0.930 . S
C1066 C1064 1.384 . S
C1066 C1067 1.372 . S
C1067 C1066 1.372 . S
C1067 C1068 1.400 . S
C1067 C1072 1.490 . S
C1068 H1058 0.930 . S
C1068 C1067 1.400 . S
C1068 C1071 1.386 . S
H1069 C1085 0.930 . S
H1070 C1086 0.931 . S
C1071 H1059 0.929 . S
C1071 C1065 1.390 . S
C1071 C1068 1.386 . S
C1072 C1067 1.490 . S
C1072 C1074 1.395 . S
C1072 C1075 1.403 . S
H1073 C1079 0.930 . S
C1074 H1060 0.930 . S
C1074 C1072 1.395 . S
C1074 C1077 1.403 . S
C1075 C1072 1.403 . S
C1075 C1076 1.524 . S
C1075 C1079 1.400 . S
C1076 H1061 0.960 . S
C1076 H1062 0.960 . S
C1076 H1063 0.960 . S
C1076 C1075 1.524 . S
C1077 C1074 1.403 . S
C1077 C1078 1.392 . S
C1077 C1081 1.495 . S
C1078 C1077 1.392 . S
C1078 C1079 1.385 . S
C1078 C1080 1.478 . S
C1079 H1073 0.930 . S
C1079 C1075 1.400 . S
C1079 C1078 1.385 . S
C1080 C1078 1.478 . S
C1080 C1082 1.381 . S
C1080 C1086 1.383 . S
C1081 C1077 1.495 . S
C1081 H1087 0.959 . S
C1081 H1088 0.961 . S
C1081 H1089 0.960 . S
C1082 C1080 1.381 . S
C1082 C1083 1.394 . S
C1082 H1090 0.930 . S
C1083 C1082 1.394 . S
C1083 C1084 1.383 . S
C1083 H1091 0.929 . S
C1084 C1083 1.383 . S
C1084 C1085 1.377 . S
C1085 H1069 0.930 . S
C1085 C1084 1.377 . S
C1085 C1086 1.379 . S
C1086 H1070 0.931 . S
C1086 C1080 1.383 . S
C1086 C1085 1.379 . S
H1087 C1081 0.959 . S
H1088 C1081 0.961 . S
H1089 C1081 0.960 . S
H1090 C1082 0.930 . S
H1091 C1083 0.929 . S
H1092 C1100 0.929 . S
H1093 C1102 0.930 . S
H1094 C1104 0.930 . S
H1095 C1107 0.929 . S
H1096 C1110 0.930 . S
H1097 C1112 0.960 . S
H1098 C1112 0.960 . S
H1099 C1112 0.960 . S
C1100 H1092 0.929 . S
C1100 C1101 1.377 . S
C1100 C1102 1.384 . S
C1101 C1100 1.377 . S
C1101 C1107 1.390 . S
C1102 H1093 0.930 . S
C1102 C1100 1.384 . S
C1102 C1103 1.372 . S
C1103 C1102 1.372 . S
C1103 C1104 1.400 . S
C1103 C1108 1.490 . S
C1104 H1094 0.930 . S
C1104 C1103 1.400 . S
C1104 C1107 1.386 . S
H1105 C1121 0.930 . S
H1106 C1122 0.931 . S
C1107 H1095 0.929 . S
C1107 C1101 1.390 . S
C1107 C1104 1.386 . S
C1108 C1103 1.490 . S
C1108 C1110 1.395 . S
C1108 C1111 1.403 . S
H1109 C1115 0.930 . S
C1110 H1096 0.930 . S
C1110 C1108 1.395 . S
C1110 C1113 1.403 . S
C1111 C1108 1.403 . S
C1111 C1112 1.524 . S
C1111 C1115 1.400 . S
C1112 H1097 0.960 . S
C1112 H1098 0.960 . S
C1112 H1099 0.960 . S
C1112 C1111 1.524 . S
C1113 C1110 1.403 . S
C1113 C1114 1.392 . S
C1113 C1117 1.495 . S
C1114 C1113 1.392 . S
C1114 C1115 1.385 . S
C1114 C1116 1.478 . S
C1115 H1109 0.930 . S
C1115 C1111 1.400 . S
C1115 C1114 1.385 . S
C1116 C1114 1.478 . S
C1116 C1118 1.381 . S
C1116 C1122 1.383 . S
C1117 C1113 1.495 . S
C1117 H1123 0.959 . S
C1117 H1124 0.961 . S
C1117 H1125 0.960 . S
C1118 C1116 1.381 . S
C1118 C1119 1.394 . S
C1118 H1126 0.930 . S
C1119 C1118 1.394 . S
C1119 C1120 1.383 . S
C1119 H1127 0.929 . S
C1120 C1119 1.383 . S
C1120 C1121 1.377 . S
C1121 H1105 0.930 . S
C1121 C1120 1.377 . S
C1121 C1122 1.379 . S
C1122 H1106 0.931 . S
C1122 C1116 1.383 . S
C1122 C1121 1.379 . S
H1123 C1117 0.959 . S
H1124 C1117 0.961 . S
H1125 C1117 0.960 . S
H1126 C1118 0.930 . S
H1127 C1119 0.929 . S
H1128 C1136 0.929 . S
H1129 C1138 0.930 . S
H1130 C1140 0.930 . S
H1131 C1143 0.929 . S
H1132 C1146 0.930 . S
H1133 C1148 0.960 . S
H1134 C1148 0.960 . S
H1135 C1148 0.960 . S
C1136 H1128 0.929 . S
C1136 C1137 1.377 . S
C1136 C1138 1.384 . S
C1137 C1136 1.377 . S
C1137 C1143 1.390 . S
C1138 H1129 0.930 . S
C1138 C1136 1.384 . S
C1138 C1139 1.372 . S
C1139 C1138 1.372 . S
C1139 C1140 1.400 . S
C1139 C1144 1.490 . S
C1140 H1130 0.930 . S
C1140 C1139 1.400 . S
C1140 C1143 1.386 . S
H1141 C1157 0.930 . S
H1142 C1158 0.931 . S
C1143 H1131 0.929 . S
C1143 C1137 1.390 . S
C1143 C1140 1.386 . S
C1144 C1139 1.490 . S
C1144 C1146 1.395 . S
C1144 C1147 1.403 . S
H1145 C1151 0.930 . S
C1146 H1132 0.930 . S
C1146 C1144 1.395 . S
C1146 C1149 1.403 . S
C1147 C1144 1.403 . S
C1147 C1148 1.524 . S
C1147 C1151 1.400 . S
C1148 H1133 0.960 . S
C1148 H1134 0.960 . S
C1148 H1135 0.960 . S
C1148 C1147 1.524 . S
C1149 C1146 1.403 . S
C1149 C1150 1.392 . S
C1149 C1153 1.495 . S
C1150 C1149 1.392 . S
C1150 C1151 1.385 . S
C1150 C1152 1.478 . S
C1151 H1145 0.930 . S
C1151 C1147 1.400 . S
C1151 C1150 1.385 . S
C1152 C1150 1.478 . S
C1152 C1154 1.381 . S
C1152 C1158 1.383 . S
C1153 C1149 1.495 . S
C1153 H1159 0.959 . S
C1153 H1160 0.961 . S
C1153 H1161 0.960 . S
C1154 C1152 1.381 . S
C1154 C1155 1.394 . S
C1154 H1162 0.930 . S
C1155 C1154 1.394 . S
C1155 C1156 1.383 . S
C1155 H1163 0.929 . S
C1156 C1155 1.383 . S
C1156 C1157 1.377 . S
C1157 H1141 0.930 . S
C1157 C1156 1.377 . S
C1157 C1158 1.379 . S
C1158 H1142 0.931 . S
C1158 C1152 1.383 . S
C1158 C1157 1.379 . S
H1159 C1153 0.959 . S
H1160 C1153 0.961 . S
H1161 C1153 0.960 . S
H1162 C1154 0.930 . S
H1163 C1155 0.929 . S
H1164 C1172 0.929 . S
H1165 C1174 0.930 . S
H1166 C1176 0.930 . S
H1167 C1179 0.929 . S
H1168 C1182 0.930 . S
H1169 C1184 0.960 . S
H1170 C1184 0.960 . S
H1171 C1184 0.960 . S
C1172 H1164 0.929 . S
C1172 C1173 1.377 . S
C1172 C1174 1.384 . S
C1173 C1172 1.377 . S
C1173 C1179 1.390 . S
C1174 H1165 0.930 . S
C1174 C1172 1.384 . S
C1174 C1175 1.372 . S
C1175 C1174 1.372 . S
C1175 C1176 1.400 . S
C1175 C1180 1.490 . S
C1176 H1166 0.930 . S
C1176 C1175 1.400 . S
C1176 C1179 1.386 . S
H1177 C1193 0.930 . S
H1178 C1194 0.931 . S
C1179 H1167 0.929 . S
C1179 C1173 1.390 . S
C1179 C1176 1.386 . S
C1180 C1175 1.490 . S
C1180 C1182 1.395 . S
C1180 C1183 1.403 . S
H1181 C1187 0.930 . S
C1182 H1168 0.930 . S
C1182 C1180 1.395 . S
C1182 C1185 1.403 . S
C1183 C1180 1.403 . S
C1183 C1184 1.524 . S
C1183 C1187 1.400 . S
C1184 H1169 0.960 . S
C1184 H1170 0.960 . S
C1184 H1171 0.960 . S
C1184 C1183 1.524 . S
C1185 C1182 1.403 . S
C1185 C1186 1.392 . S
C1185 C1189 1.495 . S
C1186 C1185 1.392 . S
C1186 C1187 1.385 . S
C1186 C1188 1.478 . S
C1187 H1181 0.930 . S
C1187 C1183 1.400 . S
C1187 C1186 1.385 . S
C1188 C1186 1.478 . S
C1188 C1190 1.381 . S
C1188 C1194 1.383 . S
C1189 C1185 1.495 . S
C1189 H1195 0.959 . S
C1189 H1196 0.961 . S
C1189 H1197 0.960 . S
C1190 C1188 1.381 . S
C1190 C1191 1.394 . S
C1190 H1198 0.930 . S
C1191 C1190 1.394 . S
C1191 C1192 1.383 . S
C1191 H1199 0.929 . S
C1192 C1191 1.383 . S
C1192 C1193 1.377 . S
C1193 H1177 0.930 . S
C1193 C1192 1.377 . S
C1193 C1194 1.379 . S
C1194 H1178 0.931 . S
C1194 C1188 1.383 . S
C1194 C1193 1.379 . S
H1195 C1189 0.959 . S
H1196 C1189 0.961 . S
H1197 C1189 0.960 . S
H1198 C1190 0.930 . S
H1199 C1191 0.929 . S
H1200 C1208 0.929 . S
H1201 C1210 0.930 . S
H1202 C1212 0.930 . S
H1203 C1215 0.929 . S
H1204 C1218 0.930 . S
H1205 C1220 0.960 . S
H1206 C1220 0.960 . S
H1207 C1220 0.960 . S
C1208 H1200 0.929 . S
C1208 C1209 1.377 . S
C1208 C1210 1.384 . S
C1209 C1208 1.377 . S
C1209 C1215 1.390 . S
C1210 H1201 0.930 . S
C1210 C1208 1.384 . S
C1210 C1211 1.372 . S
C1211 C1210 1.372 . S
C1211 C1212 1.400 . S
C1211 C1216 1.490 . S
C1212 H1202 0.930 . S
C1212 C1211 1.400 . S
C1212 C1215 1.386 . S
H1213 C1229 0.930 . S
H1214 C1230 0.931 . S
C1215 H1203 0.929 . S
C1215 C1209 1.390 . S
C1215 C1212 1.386 . S
C1216 C1211 1.490 . S
C1216 C1218 1.395 . S
C1216 C1219 1.403 . S
H1217 C1223 0.930 . S
C1218 H1204 0.930 . S
C1218 C1216 1.395 . S
C1218 C1221 1.403 . S
C1219 C1216 1.403 . S
C1219 C1220 1.524 . S
C1219 C1223 1.400 . S
C1220 H1205 0.960 . S
C1220 H1206 0.960 . S
C1220 H1207 0.960 . S
C1220 C1219 1.524 . S
C1221 C1218 1.403 . S
C1221 C1222 1.392 . S
C1221 C1225 1.495 . S
C1222 C1221 1.392 . S
C1222 C1223 1.385 . S
C1222 C1224 1.478 . S
C1223 H1217 0.930 . S
C1223 C1219 1.400 . S
C1223 C1222 1.385 . S
C1224 C1222 1.478 . S
C1224 C1226 1.381 . S
C1224 C1230 1.383 . S
C1225 C1221 1.495 . S
C1225 H1231 0.959 . S
C1225 H1232 0.961 . S
C1225 H1233 0.960 . S
C1226 C1224 1.381 . S
C1226 C1227 1.394 . S
C1226 H1234 0.930 . S
C1227 C1226 1.394 . S
C1227 C1228 1.383 . S
C1227 H1235 0.929 . S
C1228 C1227 1.383 . S
C1228 C1229 1.377 . S
C1229 H1213 0.930 . S
C1229 C1228 1.377 . S
C1229 C1230 1.379 . S
C1230 H1214 0.931 . S
C1230 C1224 1.383 . S
C1230 C1229 1.379 . S
H1231 C1225 0.959 . S
H1232 C1225 0.961 . S
H1233 C1225 0.960 . S
H1234 C1226 0.930 . S
H1235 C1227 0.929 . S
H1236 C1244 0.929 . S
H1237 C1246 0.930 . S
H1238 C1248 0.930 . S
H1239 C1251 0.929 . S
H1240 C1254 0.930 . S
H1241 C1256 0.960 . S
H1242 C1256 0.960 . S
H1243 C1256 0.960 . S
C1244 H1236 0.929 . S
C1244 C1245 1.377 . S
C1244 C1246 1.384 . S
C1245 C1244 1.377 . S
C1245 C1251 1.390 . S
C1246 H1237 0.930 . S
C1246 C1244 1.384 . S
C1246 C1247 1.372 . S
C1247 C1246 1.372 . S
C1247 C1248 1.400 . S
C1247 C1252 1.490 . S
C1248 H1238 0.930 . S
C1248 C1247 1.400 . S
C1248 C1251 1.386 . S
H1249 C1265 0.930 . S
H1250 C1266 0.931 . S
C1251 H1239 0.929 . S
C1251 C1245 1.390 . S
C1251 C1248 1.386 . S
C1252 C1247 1.490 . S
C1252 C1254 1.395 . S
C1252 C1255 1.403 . S
H1253 C1259 0.930 . S
C1254 H1240 0.930 . S
C1254 C1252 1.395 . S
C1254 C1257 1.403 . S
C1255 C1252 1.403 . S
C1255 C1256 1.524 . S
C1255 C1259 1.400 . S
C1256 H1241 0.960 . S
C1256 H1242 0.960 . S
C1256 H1243 0.960 . S
C1256 C1255 1.524 . S
C1257 C1254 1.403 . S
C1257 C1258 1.392 . S
C1257 C1261 1.495 . S
C1258 C1257 1.392 . S
C1258 C1259 1.385 . S
C1258 C1260 1.478 . S
C1259 H1253 0.930 . S
C1259 C1255 1.400 . S
C1259 C1258 1.385 . S
C1260 C1258 1.478 . S
C1260 C1262 1.381 . S
C1260 C1266 1.383 . S
C1261 C1257 1.495 . S
C1261 H1267 0.959 . S
C1261 H1268 0.961 . S
C1261 H1269 0.960 . S
C1262 C1260 1.381 . S
C1262 C1263 1.394 . S
C1262 H1270 0.930 . S
C1263 C1262 1.394 . S
C1263 C1264 1.383 . S
C1263 H1271 0.929 . S
C1264 C1263 1.383 . S
C1264 C1265 1.377 . S
C1265 H1249 0.930 . S
C1265 C1264 1.377 . S
C1265 C1266 1.379 . S
C1266 H1250 0.931 . S
C1266 C1260 1.383 . S
C1266 C1265 1.379 . S
H1267 C1261 0.959 . S
H1268 C1261 0.961 . S
H1269 C1261 0.960 . S
H1270 C1262 0.930 . S
H1271 C1263 0.929 . S
H1272 C1280 0.929 . S
H1273 C1282 0.930 . S
H1274 C1284 0.930 . S
H1275 C1287 0.929 . S
H1276 C1290 0.930 . S
H1277 C1292 0.960 . S
H1278 C1292 0.960 . S
H1279 C1292 0.960 . S
C1280 H1272 0.929 . S
C1280 C1281 1.377 . S
C1280 C1282 1.384 . S
C1281 C1280 1.377 . S
C1281 C1287 1.390 . S
C1282 H1273 0.930 . S
C1282 C1280 1.384 . S
C1282 C1283 1.372 . S
C1283 C1282 1.372 . S
C1283 C1284 1.400 . S
C1283 C1288 1.465 . S
C1284 H1274 0.930 . S
C1284 C1283 1.400 . S
C1284 C1287 1.386 . S
H1285 C1301 0.930 . S
H1286 C1302 0.931 . S
C1287 H1275 0.929 . S
C1287 C1281 1.390 . S
C1287 C1284 1.386 . S
C1288 C1283 1.465 . S
C1288 C1290 1.365 1_565 S
C1288 C1291 1.459 . S
H1289 C1295 0.930 . S
C1290 H1276 0.930 . S
C1290 C1288 1.365 1_545 S
C1290 C1293 1.403 . S
C1291 C1288 1.459 . S
C1291 C1292 1.524 . S
C1291 C1295 1.400 . S
C1292 H1277 0.960 . S
C1292 H1278 0.960 . S
C1292 H1279 0.960 . S
C1292 C1291 1.524 . S
C1293 C1290 1.403 . S
C1293 C1294 1.392 . S
C1293 C1297 1.495 . S
C1294 C1293 1.392 . S
C1294 C1295 1.385 1_545 S
C1294 C1296 1.478 . S
C1295 H1289 0.930 . S
C1295 C1291 1.400 . S
C1295 C1294 1.385 1_565 S
C1296 C1294 1.478 . S
C1296 C1298 1.381 . S
C1296 C1302 1.383 . S
C1297 C1293 1.495 . S
C1297 H1303 0.959 . S
C1297 H1304 0.961 . S
C1297 H1305 0.960 . S
C1298 C1296 1.381 . S
C1298 C1299 1.394 . S
C1298 H1306 0.930 . S
C1299 C1298 1.394 . S
C1299 C1300 1.383 . S
C1299 H1307 0.929 . S
C1300 C1299 1.383 . S
C1300 C1301 1.377 . S
C1301 H1285 0.930 . S
C1301 C1300 1.377 . S
C1301 C1302 1.379 . S
C1302 H1286 0.931 . S
C1302 C1296 1.383 . S
C1302 C1301 1.379 . S
H1303 C1297 0.959 . S
H1304 C1297 0.961 . S
H1305 C1297 0.960 . S
H1306 C1298 0.930 . S
H1307 C1299 0.929 . S
H1308 C1316 0.929 . S
H1309 C1318 0.930 . S
H1310 C1320 0.930 . S
H1311 C1323 0.929 . S
H1312 C1326 0.930 . S
H1313 C1328 0.960 . S
H1314 C1328 0.960 . S
H1315 C1328 0.960 . S
C1316 H1308 0.929 . S
C1316 C1317 1.377 . S
C1316 C1318 1.384 . S
C1317 C1316 1.377 . S
C1317 C1323 1.390 . S
C1318 H1309 0.930 . S
C1318 C1316 1.384 . S
C1318 C1319 1.372 . S
C1319 C1318 1.372 . S
C1319 C1320 1.400 . S
C1319 C1324 1.490 . S
C1320 H1310 0.930 . S
C1320 C1319 1.400 . S
C1320 C1323 1.386 . S
H1321 C1337 0.930 . S
H1322 C1338 0.931 . S
C1323 H1311 0.929 . S
C1323 C1317 1.390 . S
C1323 C1320 1.386 . S
C1324 C1319 1.490 . S
C1324 C1326 1.395 . S
C1324 C1327 1.403 . S
H1325 C1331 0.930 . S
C1326 H1312 0.930 . S
C1326 C1324 1.395 . S
C1326 C1329 1.403 . S
C1327 C1324 1.403 . S
C1327 C1328 1.524 . S
C1327 C1331 1.400 . S
C1328 H1313 0.960 . S
C1328 H1314 0.960 . S
C1328 H1315 0.960 . S
C1328 C1327 1.524 . S
C1329 C1326 1.403 . S
C1329 C1330 1.392 . S
C1329 C1333 1.495 . S
C1330 C1329 1.392 . S
C1330 C1331 1.385 . S
C1330 C1332 1.478 . S
C1331 H1325 0.930 . S
C1331 C1327 1.400 . S
C1331 C1330 1.385 . S
C1332 C1330 1.478 . S
C1332 C1334 1.381 . S
C1332 C1338 1.383 . S
C1333 C1329 1.495 . S
C1333 H1339 0.959 . S
C1333 H1340 0.961 . S
C1333 H1341 0.960 . S
C1334 C1332 1.381 . S
C1334 C1335 1.394 . S
C1334 H1342 0.930 . S
C1335 C1334 1.394 . S
C1335 C1336 1.383 . S
C1335 H1343 0.929 . S
C1336 C1335 1.383 . S
C1336 C1337 1.377 . S
C1337 H1321 0.930 . S
C1337 C1336 1.377 . S
C1337 C1338 1.379 . S
C1338 H1322 0.931 . S
C1338 C1332 1.383 . S
C1338 C1337 1.379 . S
H1339 C1333 0.959 . S
H1340 C1333 0.961 . S
H1341 C1333 0.960 . S
H1342 C1334 0.930 . S
H1343 C1335 0.929 . S
H1344 C1352 0.929 . S
H1345 C1354 0.930 . S
H1346 C1356 0.930 . S
H1347 C1359 0.929 . S
H1348 C1362 0.930 . S
H1349 C1364 0.960 . S
H1350 C1364 0.960 . S
H1351 C1364 0.960 . S
C1352 H1344 0.929 . S
C1352 C1353 1.377 1_455 S
C1352 C1354 1.384 . S
C1353 C1352 1.377 1_655 S
C1353 C1359 1.390 . S
C1354 H1345 0.930 . S
C1354 C1352 1.384 . S
C1354 C1355 1.372 1_455 S
C1355 C1354 1.372 1_655 S
C1355 C1356 1.400 . S
C1355 C1360 1.490 1_655 S
C1356 H1346 0.930 . S
C1356 C1355 1.400 . S
C1356 C1359 1.386 . S
H1357 C1373 0.930 . S
H1358 C1374 0.931 . S
C1359 H1347 0.929 . S
C1359 C1353 1.390 . S
C1359 C1356 1.386 . S
C1360 C1355 1.490 1_455 S
C1360 C1362 1.394 . S
C1360 C1363 1.403 1_455 S
H1361 C1367 0.930 . S
C1362 H1348 0.930 . S
C1362 C1360 1.394 . S
C1362 C1365 1.403 . S
C1363 C1360 1.403 1_655 S
C1363 C1364 1.524 . S
C1363 C1367 1.400 . S
C1364 H1349 0.960 . S
C1364 H1350 0.960 . S
C1364 H1351 0.960 . S
C1364 C1363 1.524 . S
C1365 C1362 1.403 . S
C1365 C1366 1.392 . S
C1365 C1369 1.495 . S
C1366 C1365 1.392 . S
C1366 C1367 1.385 1_455 S
C1366 C1368 1.478 . S
C1367 H1361 0.930 . S
C1367 C1363 1.400 . S
C1367 C1366 1.385 1_655 S
C1368 C1366 1.478 . S
C1368 C1370 1.381 . S
C1368 C1374 1.383 1_455 S
C1369 C1365 1.495 . S
C1369 H1375 0.959 . S
C1369 H1376 0.961 . S
C1369 H1377 0.960 . S
C1370 C1368 1.381 . S
C1370 C1371 1.394 . S
C1370 H1378 0.930 . S
C1371 C1370 1.394 . S
C1371 C1372 1.383 . S
C1371 H1379 0.929 . S
C1372 C1371 1.383 . S
C1372 C1373 1.377 1_455 S
C1373 H1357 0.930 . S
C1373 C1372 1.377 1_655 S
C1373 C1374 1.379 . S
C1374 H1358 0.931 . S
C1374 C1368 1.383 1_655 S
C1374 C1373 1.379 . S
H1375 C1369 0.959 . S
H1376 C1369 0.961 . S
H1377 C1369 0.960 . S
H1378 C1370 0.930 . S
H1379 C1371 0.929 . S
H1380 C1388 0.929 . S
H1381 C1390 0.930 . S
H1382 C1392 0.930 . S
H1383 C1395 0.929 . S
H1384 C1398 0.930 . S
H1385 C1400 0.960 . S
H1386 C1400 0.960 . S
H1387 C1400 0.960 . S
C1388 H1380 0.929 . S
C1388 C1389 1.377 1_655 S
C1388 C1390 1.384 . S
C1389 C1388 1.377 1_455 S
C1389 C1395 1.390 . S
C1390 H1381 0.930 . S
C1390 C1388 1.384 . S
C1390 C1391 1.372 1_655 S
C1391 C1390 1.372 1_455 S
C1391 C1392 1.400 . S
C1391 C1396 1.489 1_455 S
C1392 H1382 0.930 . S
C1392 C1391 1.400 . S
C1392 C1395 1.386 . S
H1393 C1409 0.930 . S
H1394 C1410 0.931 . S
C1395 H1383 0.929 . S
C1395 C1389 1.390 . S
C1395 C1392 1.386 . S
C1396 C1391 1.489 1_655 S
C1396 C1398 1.394 . S
C1396 C1399 1.404 1_655 S
H1397 C1403 0.930 . S
C1398 H1384 0.930 . S
C1398 C1396 1.394 . S
C1398 C1401 1.403 . S
C1399 C1396 1.404 1_455 S
C1399 C1400 1.524 . S
C1399 C1403 1.400 . S
C1400 H1385 0.960 . S
C1400 H1386 0.960 . S
C1400 H1387 0.960 . S
C1400 C1399 1.524 . S
C1401 C1398 1.403 . S
C1401 C1402 1.392 . S
C1401 C1405 1.495 . S
C1402 C1401 1.392 . S
C1402 C1403 1.385 1_655 S
C1402 C1404 1.478 . S
C1403 H1397 0.930 . S
C1403 C1399 1.400 . S
C1403 C1402 1.385 1_455 S
C1404 C1402 1.478 . S
C1404 C1406 1.381 . S
C1404 C1410 1.383 1_655 S
C1405 C1401 1.495 . S
C1405 H1411 0.959 . S
C1405 H1412 0.961 . S
C1405 H1413 0.960 . S
C1406 C1404 1.381 . S
C1406 C1407 1.394 . S
C1406 H1414 0.930 . S
C1407 C1406 1.394 . S
C1407 C1408 1.383 . S
C1407 H1415 0.929 . S
C1408 C1407 1.383 . S
C1408 C1409 1.377 1_655 S
C1409 H1393 0.930 . S
C1409 C1408 1.377 1_455 S
C1409 C1410 1.379 . S
C1410 H1394 0.931 . S
C1410 C1404 1.383 1_455 S
C1410 C1409 1.379 . S
H1411 C1405 0.959 . S
H1412 C1405 0.961 . S
H1413 C1405 0.960 . S
H1414 C1406 0.930 . S
H1415 C1407 0.929 . S
H1416 C1424 0.929 . S
H1417 C1426 0.930 1_545 S
H1418 C1428 0.930 . S
H1419 C1431 0.929 . S
H1420 C1434 0.930 . S
H1421 C1436 0.960 . S
H1422 C1436 0.960 . S
H1423 C1436 0.960 . S
C1424 H1416 0.929 . S
C1424 C1425 1.377 . S
C1424 C1426 1.384 . S
C1425 C1424 1.377 . S
C1425 C1431 1.390 . S
C1426 H1417 0.930 1_565 S
C1426 C1424 1.384 . S
C1426 C1427 1.372 . S
C1427 C1426 1.372 . S
C1427 C1428 1.400 . S
C1427 C1432 1.517 . S
C1428 H1418 0.930 . S
C1428 C1427 1.400 . S
C1428 C1431 1.386 . S
H1429 C1445 0.930 . S
H1430 C1446 0.931 . S
C1431 H1419 0.929 . S
C1431 C1425 1.390 . S
C1431 C1428 1.386 . S
C1432 C1427 1.517 . S
C1432 C1434 1.352 1_565 S
C1432 C1435 1.419 . S
H1433 C1439 0.930 . S
C1434 H1420 0.930 . S
C1434 C1432 1.352 1_545 S
C1434 C1437 1.403 . S
C1435 C1432 1.419 . S
C1435 C1436 1.524 . S
C1435 C1439 1.400 . S
C1436 H1421 0.960 . S
C1436 H1422 0.960 . S
C1436 H1423 0.960 . S
C1436 C1435 1.524 . S
C1437 C1434 1.403 . S
C1437 C1438 1.392 . S
C1437 C1441 1.495 . S
C1438 C1437 1.392 . S
C1438 C1439 1.385 1_545 S
C1438 C1440 1.478 . S
C1439 H1433 0.930 . S
C1439 C1435 1.400 . S
C1439 C1438 1.385 1_565 S
C1440 C1438 1.478 . S
C1440 C1442 1.381 . S
C1440 C1446 1.383 . S
C1441 C1437 1.495 . S
C1441 H1447 0.959 . S
C1441 H1448 0.961 . S
C1441 H1449 0.960 . S
C1442 C1440 1.381 . S
C1442 C1443 1.394 . S
C1442 H1450 0.930 . S
C1443 C1442 1.394 . S
C1443 C1444 1.383 . S
C1443 H1451 0.929 . S
C1444 C1443 1.383 . S
C1444 C1445 1.377 . S
C1445 H1429 0.930 . S
C1445 C1444 1.377 . S
C1445 C1446 1.379 . S
C1446 H1430 0.931 . S
C1446 C1440 1.383 . S
C1446 C1445 1.379 . S
H1447 C1441 0.959 . S
H1448 C1441 0.961 . S
H1449 C1441 0.960 . S
H1450 C1442 0.930 . S
H1451 C1443 0.929 . S
H1452 C1460 0.929 . S
H1453 C1462 0.930 . S
H1454 C1464 0.930 . S
H1455 C1467 0.929 . S
H1456 C1470 0.930 . S
H1457 C1472 0.960 . S
H1458 C1472 0.960 . S
H1459 C1472 0.960 . S
C1460 H1452 0.929 . S
C1460 C1461 1.377 . S
C1460 C1462 1.384 . S
C1461 C1460 1.377 . S
C1461 C1467 1.390 . S
C1462 H1453 0.930 . S
C1462 C1460 1.384 . S
C1462 C1463 1.372 . S
C1463 C1462 1.372 . S
C1463 C1464 1.400 . S
C1463 C1468 1.490 . S
C1464 H1454 0.930 . S
C1464 C1463 1.400 . S
C1464 C1467 1.386 . S
H1465 C1481 0.930 . S
H1466 C1482 0.931 . S
C1467 H1455 0.929 . S
C1467 C1461 1.390 . S
C1467 C1464 1.386 . S
C1468 C1463 1.490 . S
C1468 C1470 1.395 . S
C1468 C1471 1.403 . S
H1469 C1475 0.930 . S
C1470 H1456 0.930 . S
C1470 C1468 1.395 . S
C1470 C1473 1.403 . S
C1471 C1468 1.403 . S
C1471 C1472 1.524 . S
C1471 C1475 1.400 . S
C1472 H1457 0.960 . S
C1472 H1458 0.960 . S
C1472 H1459 0.960 . S
C1472 C1471 1.524 . S
C1473 C1470 1.403 . S
C1473 C1474 1.392 . S
C1473 C1477 1.495 . S
C1474 C1473 1.392 . S
C1474 C1475 1.385 . S
C1474 C1476 1.478 . S
C1475 H1469 0.930 . S
C1475 C1471 1.400 . S
C1475 C1474 1.385 . S
C1476 C1474 1.478 . S
C1476 C1478 1.381 . S
C1476 C1482 1.383 . S
C1477 C1473 1.495 . S
C1477 H1483 0.959 . S
C1477 H1484 0.961 . S
C1477 H1485 0.960 . S
C1478 C1476 1.381 . S
C1478 C1479 1.394 . S
C1478 H1486 0.930 . S
C1479 C1478 1.394 . S
C1479 C1480 1.383 . S
C1479 H1487 0.929 . S
C1480 C1479 1.383 . S
C1480 C1481 1.377 . S
C1481 H1465 0.930 . S
C1481 C1480 1.377 . S
C1481 C1482 1.379 . S
C1482 H1466 0.931 . S
C1482 C1476 1.383 . S
C1482 C1481 1.379 . S
H1483 C1477 0.959 . S
H1484 C1477 0.961 . S
H1485 C1477 0.960 . S
H1486 C1478 0.930 . S
H1487 C1479 0.929 . S
H1488 C1496 0.929 . S
H1489 C1498 0.930 . S
H1490 C1500 0.930 . S
H1491 C1503 0.929 . S
H1492 C1506 0.930 . S
H1493 C1508 0.960 . S
H1494 C1508 0.960 . S
H1495 C1508 0.960 . S
C1496 H1488 0.929 . S
C1496 C1497 1.377 . S
C1496 C1498 1.384 . S
C1497 C1496 1.377 . S
C1497 C1503 1.390 . S
C1498 H1489 0.930 . S
C1498 C1496 1.384 . S
C1498 C1499 1.372 . S
C1499 C1498 1.372 . S
C1499 C1500 1.400 . S
C1499 C1504 1.490 . S
C1500 H1490 0.930 . S
C1500 C1499 1.400 . S
C1500 C1503 1.386 . S
H1501 C1517 0.930 . S
H1502 C1518 0.931 . S
C1503 H1491 0.929 . S
C1503 C1497 1.390 . S
C1503 C1500 1.386 . S
C1504 C1499 1.490 . S
C1504 C1506 1.395 . S
C1504 C1507 1.403 . S
H1505 C1511 0.930 . S
C1506 H1492 0.930 . S
C1506 C1504 1.395 . S
C1506 C1509 1.403 . S
C1507 C1504 1.403 . S
C1507 C1508 1.524 . S
C1507 C1511 1.400 . S
C1508 H1493 0.960 . S
C1508 H1494 0.960 . S
C1508 H1495 0.960 . S
C1508 C1507 1.524 . S
C1509 C1506 1.403 . S
C1509 C1510 1.392 . S
C1509 C1513 1.495 . S
C1510 C1509 1.392 . S
C1510 C1511 1.385 . S
C1510 C1512 1.478 . S
C1511 H1505 0.930 . S
C1511 C1507 1.400 . S
C1511 C1510 1.385 . S
C1512 C1510 1.478 . S
C1512 C1514 1.381 . S
C1512 C1518 1.383 . S
C1513 C1509 1.495 . S
C1513 H1519 0.959 . S
C1513 H1520 0.961 . S
C1513 H1521 0.960 . S
C1514 C1512 1.381 . S
C1514 C1515 1.394 . S
C1514 H1522 0.930 . S
C1515 C1514 1.394 . S
C1515 C1516 1.383 . S
C1515 H1523 0.929 . S
C1516 C1515 1.383 . S
C1516 C1517 1.377 . S
C1517 H1501 0.930 . S
C1517 C1516 1.377 . S
C1517 C1518 1.379 . S
C1518 H1502 0.931 . S
C1518 C1512 1.383 . S
C1518 C1517 1.379 . S
H1519 C1513 0.959 . S
H1520 C1513 0.961 . S
H1521 C1513 0.960 . S
H1522 C1514 0.930 . S
H1523 C1515 0.929 . S
H1524 C1532 0.929 . S
H1525 C1534 0.930 . S
H1526 C1536 0.930 . S
H1527 C1539 0.929 . S
H1528 C1542 0.930 . S
H1529 C1544 0.960 . S
H1530 C1544 0.960 . S
H1531 C1544 0.960 . S
C1532 H1524 0.929 . S
C1532 C1533 1.377 . S
C1532 C1534 1.384 . S
C1533 C1532 1.377 . S
C1533 C1539 1.390 . S
C1534 H1525 0.930 . S
C1534 C1532 1.384 . S
C1534 C1535 1.372 . S
C1535 C1534 1.372 . S
C1535 C1536 1.400 . S
C1535 C1540 1.490 . S
C1536 H1526 0.930 . S
C1536 C1535 1.400 . S
C1536 C1539 1.386 . S
H1537 C1553 0.930 . S
H1538 C1554 0.931 . S
C1539 H1527 0.929 . S
C1539 C1533 1.390 . S
C1539 C1536 1.386 . S
C1540 C1535 1.490 . S
C1540 C1542 1.395 . S
C1540 C1543 1.403 . S
H1541 C1547 0.930 . S
C1542 H1528 0.930 . S
C1542 C1540 1.395 . S
C1542 C1545 1.403 . S
C1543 C1540 1.403 . S
C1543 C1544 1.524 . S
C1543 C1547 1.400 . S
C1544 H1529 0.960 . S
C1544 H1530 0.960 . S
C1544 H1531 0.960 . S
C1544 C1543 1.524 . S
C1545 C1542 1.403 . S
C1545 C1546 1.392 . S
C1545 C1549 1.495 . S
C1546 C1545 1.392 . S
C1546 C1547 1.385 . S
C1546 C1548 1.478 . S
C1547 H1541 0.930 . S
C1547 C1543 1.400 . S
C1547 C1546 1.385 . S
C1548 C1546 1.478 . S
C1548 C1550 1.381 . S
C1548 C1554 1.383 . S
C1549 C1545 1.495 . S
C1549 H1555 0.959 . S
C1549 H1556 0.961 . S
C1549 H1557 0.960 . S
C1550 C1548 1.381 . S
C1550 C1551 1.394 . S
C1550 H1558 0.930 . S
C1551 C1550 1.394 . S
C1551 C1552 1.383 . S
C1551 H1559 0.929 . S
C1552 C1551 1.383 . S
C1552 C1553 1.377 . S
C1553 H1537 0.930 . S
C1553 C1552 1.377 . S
C1553 C1554 1.379 . S
C1554 H1538 0.931 . S
C1554 C1548 1.383 . S
C1554 C1553 1.379 . S
H1555 C1549 0.959 . S
H1556 C1549 0.961 . S
H1557 C1549 0.960 . S
H1558 C1550 0.930 . S
H1559 C1551 0.929 . S
H1560 C1568 0.929 . S
H1561 C1570 0.930 . S
H1562 C1572 0.930 . S
H1563 C1575 0.929 . S
H1564 C1578 0.930 . S
H1565 C1580 0.960 . S
H1566 C1580 0.960 . S
H1567 C1580 0.960 . S
C1568 H1560 0.929 . S
C1568 C1569 1.377 . S
C1568 C1570 1.384 . S
C1569 C1568 1.377 . S
C1569 C1575 1.390 . S
C1570 H1561 0.930 . S
C1570 C1568 1.384 . S
C1570 C1571 1.372 . S
C1571 C1570 1.372 . S
C1571 C1572 1.400 . S
C1571 C1576 1.490 . S
C1572 H1562 0.930 . S
C1572 C1571 1.400 . S
C1572 C1575 1.386 . S
H1573 C1589 0.930 . S
H1574 C1590 0.931 . S
C1575 H1563 0.929 . S
C1575 C1569 1.390 . S
C1575 C1572 1.386 . S
C1576 C1571 1.490 . S
C1576 C1578 1.395 . S
C1576 C1579 1.403 1_554 S
H1577 C1583 0.930 . S
C1578 H1564 0.930 . S
C1578 C1576 1.395 . S
C1578 C1581 1.403 . S
C1579 C1576 1.403 1_556 S
C1579 C1580 1.524 . S
C1579 C1583 1.400 . S
C1580 H1565 0.960 . S
C1580 H1566 0.960 . S
C1580 H1567 0.960 . S
C1580 C1579 1.524 . S
C1581 C1578 1.403 . S
C1581 C1582 1.392 1_554 S
C1581 C1585 1.495 . S
C1582 C1581 1.392 1_556 S
C1582 C1583 1.385 . S
C1582 C1584 1.478 . S
C1583 H1577 0.930 . S
C1583 C1579 1.400 . S
C1583 C1582 1.385 . S
C1584 C1582 1.478 . S
C1584 C1586 1.381 . S
C1584 C1590 1.383 . S
C1585 C1581 1.495 . S
C1585 H1591 0.959 . S
C1585 H1592 0.961 . S
C1585 H1593 0.960 . S
C1586 C1584 1.381 . S
C1586 C1587 1.394 . S
C1586 H1594 0.930 . S
C1587 C1586 1.394 . S
C1587 C1588 1.383 . S
C1587 H1595 0.929 . S
C1588 C1587 1.383 . S
C1588 C1589 1.377 . S
C1589 H1573 0.930 . S
C1589 C1588 1.377 . S
C1589 C1590 1.379 . S
C1590 H1574 0.931 . S
C1590 C1584 1.383 . S
C1590 C1589 1.379 . S
H1591 C1585 0.959 . S
H1592 C1585 0.961 . S
H1593 C1585 0.960 . S
H1594 C1586 0.930 . S
H1595 C1587 0.929 . S
H1596 C1604 0.929 . S
H1597 C1606 0.930 . S
H1598 C1608 0.930 . S
H1599 C1611 0.929 . S
H1600 C1614 0.930 . S
H1601 C1616 0.960 . S
H1602 C1616 0.960 . S
H1603 C1616 0.960 . S
C1604 H1596 0.929 . S
C1604 C1605 1.377 . S
C1604 C1606 1.384 . S
C1605 C1604 1.377 . S
C1605 C1611 1.390 . S
C1606 H1597 0.930 . S
C1606 C1604 1.384 . S
C1606 C1607 1.372 . S
C1607 C1606 1.372 . S
C1607 C1608 1.400 . S
C1607 C1612 1.490 . S
C1608 H1598 0.930 . S
C1608 C1607 1.400 . S
C1608 C1611 1.386 . S
H1609 C1625 0.930 . S
H1610 C1626 0.931 . S
C1611 H1599 0.929 . S
C1611 C1605 1.390 . S
C1611 C1608 1.386 . S
C1612 C1607 1.490 . S
C1612 C1614 1.395 . S
C1612 C1615 1.403 . S
H1613 C1619 0.930 . S
C1614 H1600 0.930 . S
C1614 C1612 1.395 . S
C1614 C1617 1.403 . S
C1615 C1612 1.403 . S
C1615 C1616 1.524 . S
C1615 C1619 1.400 . S
C1616 H1601 0.960 . S
C1616 H1602 0.960 . S
C1616 H1603 0.960 . S
C1616 C1615 1.524 . S
C1617 C1614 1.403 . S
C1617 C1618 1.392 . S
C1617 C1621 1.495 . S
C1618 C1617 1.392 . S
C1618 C1619 1.385 . S
C1618 C1620 1.478 . S
C1619 H1613 0.930 . S
C1619 C1615 1.400 . S
C1619 C1618 1.385 . S
C1620 C1618 1.478 . S
C1620 C1622 1.381 . S
C1620 C1626 1.383 . S
C1621 C1617 1.495 . S
C1621 H1627 0.959 . S
C1621 H1628 0.961 . S
C1621 H1629 0.960 . S
C1622 C1620 1.381 . S
C1622 C1623 1.394 . S
C1622 H1630 0.930 . S
C1623 C1622 1.394 . S
C1623 C1624 1.383 . S
C1623 H1631 0.929 . S
C1624 C1623 1.383 . S
C1624 C1625 1.377 . S
C1625 H1609 0.930 . S
C1625 C1624 1.377 . S
C1625 C1626 1.379 . S
C1626 H1610 0.931 . S
C1626 C1620 1.383 . S
C1626 C1625 1.379 . S
H1627 C1621 0.959 . S
H1628 C1621 0.961 . S
H1629 C1621 0.960 . S
H1630 C1622 0.930 . S
H1631 C1623 0.929 . S
H1632 C1640 0.929 . S
H1633 C1642 0.930 . S
H1634 C1644 0.930 . S
H1635 C1647 0.929 . S
H1636 C1650 0.930 . S
H1637 C1652 0.960 . S
H1638 C1652 0.960 . S
H1639 C1652 0.960 . S
C1640 H1632 0.929 . S
C1640 C1641 1.377 . S
C1640 C1642 1.384 . S
C1641 C1640 1.377 . S
C1641 C1647 1.390 . S
C1642 H1633 0.930 . S
C1642 C1640 1.384 . S
C1642 C1643 1.372 . S
C1643 C1642 1.372 . S
C1643 C1644 1.400 . S
C1643 C1648 1.490 . S
C1644 H1634 0.930 . S
C1644 C1643 1.400 . S
C1644 C1647 1.386 . S
H1645 C1661 0.930 . S
H1646 C1662 0.931 . S
C1647 H1635 0.929 . S
C1647 C1641 1.390 . S
C1647 C1644 1.386 . S
C1648 C1643 1.490 . S
C1648 C1650 1.395 . S
C1648 C1651 1.403 . S
H1649 C1655 0.930 . S
C1650 H1636 0.930 . S
C1650 C1648 1.395 . S
C1650 C1653 1.403 . S
C1651 C1648 1.403 . S
C1651 C1652 1.524 . S
C1651 C1655 1.400 . S
C1652 H1637 0.960 . S
C1652 H1638 0.960 . S
C1652 H1639 0.960 . S
C1652 C1651 1.524 . S
C1653 C1650 1.403 . S
C1653 C1654 1.392 . S
C1653 C1657 1.495 . S
C1654 C1653 1.392 . S
C1654 C1655 1.385 . S
C1654 C1656 1.478 . S
C1655 H1649 0.930 . S
C1655 C1651 1.400 . S
C1655 C1654 1.385 . S
C1656 C1654 1.478 . S
C1656 C1658 1.381 . S
C1656 C1662 1.383 . S
C1657 C1653 1.495 . S
C1657 H1663 0.959 . S
C1657 H1664 0.961 . S
C1657 H1665 0.960 . S
C1658 C1656 1.381 . S
C1658 C1659 1.394 . S
C1658 H1666 0.930 . S
C1659 C1658 1.394 . S
C1659 C1660 1.383 . S
C1659 H1667 0.929 . S
C1660 C1659 1.383 . S
C1660 C1661 1.377 . S
C1661 H1645 0.930 . S
C1661 C1660 1.377 . S
C1661 C1662 1.379 . S
C1662 H1646 0.931 . S
C1662 C1656 1.383 . S
C1662 C1661 1.379 . S
H1663 C1657 0.959 . S
H1664 C1657 0.961 . S
H1665 C1657 0.960 . S
H1666 C1658 0.930 . S
H1667 C1659 0.929 . S
H1668 C1676 0.929 . S
H1669 C1678 0.930 . S
H1670 C1680 0.930 . S
H1671 C1683 0.929 . S
H1672 C1686 0.930 . S
H1673 C1688 0.960 1_556 S
H1674 C1688 0.960 1_556 S
H1675 C1688 0.960 . S
C1676 H1668 0.929 . S
C1676 C1677 1.377 . S
C1676 C1678 1.384 . S
C1677 C1676 1.377 . S
C1677 C1683 1.390 . S
C1678 H1669 0.930 . S
C1678 C1676 1.384 . S
C1678 C1679 1.372 . S
C1679 C1678 1.372 . S
C1679 C1680 1.400 . S
C1679 C1684 1.490 . S
C1680 H1670 0.930 . S
C1680 C1679 1.400 . S
C1680 C1683 1.386 . S
H1681 C1697 0.930 . S
H1682 C1698 0.931 . S
C1683 H1671 0.929 . S
C1683 C1677 1.390 . S
C1683 C1680 1.386 . S
C1684 C1679 1.490 . S
C1684 C1686 1.395 . S
C1684 C1687 1.403 . S
H1685 C1691 0.930 . S
C1686 H1672 0.930 . S
C1686 C1684 1.395 . S
C1686 C1689 1.403 1_554 S
C1687 C1684 1.403 . S
C1687 C1688 1.524 . S
C1687 C1691 1.400 1_554 S
C1688 H1673 0.960 1_554 S
C1688 H1674 0.960 1_554 S
C1688 H1675 0.960 . S
C1688 C1687 1.524 . S
C1689 C1686 1.403 1_556 S
C1689 C1690 1.392 . S
C1689 C1693 1.495 . S
C1690 C1689 1.392 . S
C1690 C1691 1.385 . S
C1690 C1692 1.478 . S
C1691 H1685 0.930 . S
C1691 C1687 1.400 1_556 S
C1691 C1690 1.385 . S
C1692 C1690 1.478 . S
C1692 C1694 1.381 . S
C1692 C1698 1.383 . S
C1693 C1689 1.495 . S
C1693 H1699 0.959 1_556 S
C1693 H1700 0.955 1_556 S
C1693 H1701 0.960 . S
C1694 C1692 1.381 . S
C1694 C1695 1.394 . S
C1694 H1702 0.930 . S
C1695 C1694 1.394 . S
C1695 C1696 1.383 . S
C1695 H1703 0.929 . S
C1696 C1695 1.383 . S
C1696 C1697 1.377 . S
C1697 H1681 0.930 . S
C1697 C1696 1.377 . S
C1697 C1698 1.379 . S
C1698 H1682 0.931 . S
C1698 C1692 1.383 . S
C1698 C1697 1.379 . S
H1699 C1693 0.959 1_554 S
H1700 C1693 0.955 1_554 S
H1701 C1693 0.960 . S
H1702 C1694 0.930 . S
H1703 C1695 0.929 . S
H1704 C1712 0.929 . S
H1705 C1714 0.930 . S
H1706 C1716 0.911 1_565 S
H1707 C1719 0.929 . S
H1708 C1722 0.930 . S
H1709 C1724 0.960 . S
H1710 C1724 0.960 . S
H1711 C1724 0.960 . S
C1712 H1704 0.929 . S
C1712 C1713 1.377 . S
C1712 C1714 1.384 . S
C1713 C1712 1.377 . S
C1713 C1719 1.390 . S
C1714 H1705 0.930 . S
C1714 C1712 1.384 . S
C1714 C1715 1.372 . S
C1715 C1714 1.372 . S
C1715 C1716 1.400 . S
C1715 C1720 1.490 . S
C1716 H1706 0.911 1_545 S
C1716 C1715 1.400 . S
C1716 C1719 1.386 . S
H1717 C1733 0.930 . S
H1718 C1734 0.931 . S
C1719 H1707 0.929 . S
C1719 C1713 1.390 . S
C1719 C1716 1.386 . S
C1720 C1715 1.490 . S
C1720 C1722 1.395 1_545 S
C1720 C1723 1.403 . S
H1721 C1727 0.930 . S
C1722 H1708 0.930 . S
C1722 C1720 1.395 1_565 S
C1722 C1725 1.403 . S
C1723 C1720 1.403 . S
C1723 C1724 1.524 . S
C1723 C1727 1.400 . S
C1724 H1709 0.960 . S
C1724 H1710 0.960 . S
C1724 H1711 0.960 . S
C1724 C1723 1.524 . S
C1725 C1722 1.403 . S
C1725 C1726 1.392 . S
C1725 C1729 1.495 . S
C1726 C1725 1.392 . S
C1726 C1727 1.385 1_565 S
C1726 C1728 1.478 . S
C1727 H1721 0.930 . S
C1727 C1723 1.400 . S
C1727 C1726 1.385 1_545 S
C1728 C1726 1.478 . S
C1728 C1730 1.381 . S
C1728 C1734 1.383 . S
C1729 C1725 1.495 . S
C1729 H1735 0.959 . S
C1729 H1736 0.961 . S
C1729 H1737 0.960 . S
C1730 C1728 1.381 . S
C1730 C1731 1.394 . S
C1730 H1738 0.930 1_565 S
C1731 C1730 1.394 . S
C1731 C1732 1.383 . S
C1731 H1739 0.929 . S
C1732 C1731 1.383 . S
C1732 C1733 1.377 . S
C1733 H1717 0.930 . S
C1733 C1732 1.377 . S
C1733 C1734 1.379 . S
C1734 H1718 0.931 . S
C1734 C1728 1.383 . S
C1734 C1733 1.379 . S
H1735 C1729 0.959 . S
H1736 C1729 0.961 . S
H1737 C1729 0.960 . S
H1738 C1730 0.930 1_545 S
H1739 C1731 0.929 . S
H1740 C1748 0.929 . S
H1741 C1750 0.930 . S
H1742 C1752 0.930 . S
H1743 C1755 0.929 . S
H1744 C1758 0.930 . S
H1745 C1760 0.960 . S
H1746 C1760 0.960 . S
H1747 C1760 0.960 . S
C1748 H1740 0.929 . S
C1748 C1749 1.377 . S
C1748 C1750 1.384 . S
C1749 C1748 1.377 . S
C1749 C1755 1.390 . S
C1750 H1741 0.930 . S
C1750 C1748 1.384 . S
C1750 C1751 1.372 . S
C1751 C1750 1.372 . S
C1751 C1752 1.400 . S
C1751 C1756 1.490 . S
C1752 H1742 0.930 . S
C1752 C1751 1.400 . S
C1752 C1755 1.386 . S
H1753 C1769 0.930 . S
H1754 C1770 0.931 . S
C1755 H1743 0.929 . S
C1755 C1749 1.390 . S
C1755 C1752 1.386 . S
C1756 C1751 1.490 . S
C1756 C1758 1.395 . S
C1756 C1759 1.403 . S
H1757 C1763 0.930 . S
C1758 H1744 0.930 . S
C1758 C1756 1.395 . S
C1758 C1761 1.403 . S
C1759 C1756 1.403 . S
C1759 C1760 1.524 . S
C1759 C1763 1.400 . S
C1760 H1745 0.960 . S
C1760 H1746 0.960 . S
C1760 H1747 0.960 . S
C1760 C1759 1.524 . S
C1761 C1758 1.403 . S
C1761 C1762 1.392 . S
C1761 C1765 1.495 . S
C1762 C1761 1.392 . S
C1762 C1763 1.385 . S
C1762 C1764 1.478 . S
C1763 H1757 0.930 . S
C1763 C1759 1.400 . S
C1763 C1762 1.385 . S
C1764 C1762 1.478 . S
C1764 C1766 1.381 . S
C1764 C1770 1.383 . S
C1765 C1761 1.495 . S
C1765 H1771 0.959 . S
C1765 H1772 0.961 . S
C1765 H1773 0.960 . S
C1766 C1764 1.381 . S
C1766 C1767 1.394 . S
C1766 H1774 0.930 . S
C1767 C1766 1.394 . S
C1767 C1768 1.383 . S
C1767 H1775 0.929 . S
C1768 C1767 1.383 . S
C1768 C1769 1.377 . S
C1769 H1753 0.930 . S
C1769 C1768 1.377 . S
C1769 C1770 1.379 . S
C1770 H1754 0.931 . S
C1770 C1764 1.383 . S
C1770 C1769 1.379 . S
H1771 C1765 0.959 . S
H1772 C1765 0.961 . S
H1773 C1765 0.960 . S
H1774 C1766 0.930 . S
H1775 C1767 0.929 . S
H1776 C1784 0.929 . S
H1777 C1786 0.930 . S
H1778 C1788 0.933 . S
H1779 C1791 0.929 1_655 S
H1780 C1794 0.930 . S
H1781 C1796 0.960 . S
H1782 C1796 0.968 . S
H1783 C1796 0.960 . S
C1784 H1776 0.929 . S
C1784 C1785 1.377 . S
C1784 C1786 1.384 . S
C1785 C1784 1.377 . S
C1785 C1791 1.390 . S
C1786 H1777 0.930 . S
C1786 C1784 1.384 . S
C1786 C1787 1.372 . S
C1787 C1786 1.372 . S
C1787 C1788 1.398 1_455 S
C1787 C1792 1.490 . S
C1788 H1778 0.933 . S
C1788 C1787 1.398 1_655 S
C1788 C1791 1.385 1_655 S
H1789 C1805 0.930 . S
H1790 C1806 0.931 . S
C1791 H1779 0.929 1_455 S
C1791 C1785 1.390 . S
C1791 C1788 1.385 1_455 S
C1792 C1787 1.490 . S
C1792 C1794 1.395 . S
C1792 C1795 1.403 1_455 S
H1793 C1799 0.930 . S
C1794 H1780 0.930 . S
C1794 C1792 1.395 . S
C1794 C1797 1.403 . S
C1795 C1792 1.403 1_655 S
C1795 C1796 1.524 . S
C1795 C1799 1.400 . S
C1796 H1781 0.960 . S
C1796 H1782 0.968 . S
C1796 H1783 0.960 . S
C1796 C1795 1.524 . S
C1797 C1794 1.403 . S
C1797 C1798 1.392 1_455 S
C1797 C1801 1.495 . S
C1798 C1797 1.392 1_655 S
C1798 C1799 1.385 . S
C1798 C1800 1.478 . S
C1799 H1793 0.930 . S
C1799 C1795 1.400 . S
C1799 C1798 1.385 . S
C1800 C1798 1.478 . S
C1800 C1802 1.381 1_655 S
C1800 C1806 1.383 . S
C1801 C1797 1.495 . S
C1801 H1807 0.959 . S
C1801 H1808 0.961 . S
C1801 H1809 0.960 . S
C1802 C1800 1.381 1_455 S
C1802 C1803 1.394 1_455 S
C1802 H1810 0.930 . S
C1803 C1802 1.394 1_655 S
C1803 C1804 1.383 . S
C1803 H1811 0.929 1_655 S
C1804 C1803 1.383 . S
C1804 C1805 1.377 . S
C1805 H1789 0.930 . S
C1805 C1804 1.377 . S
C1805 C1806 1.379 . S
C1806 H1790 0.931 . S
C1806 C1800 1.383 . S
C1806 C1805 1.379 . S
H1807 C1801 0.959 . S
H1808 C1801 0.961 . S
H1809 C1801 0.960 . S
H1810 C1802 0.930 . S
H1811 C1803 0.929 1_455 S
H1812 C1820 0.929 . S
H1813 C1822 0.930 . S
H1814 C1824 0.930 . S
H1815 C1827 0.929 . S
H1816 C1830 0.930 . S
H1817 C1832 0.960 . S
H1818 C1832 0.960 . S
H1819 C1832 0.960 . S
C1820 H1812 0.929 . S
C1820 C1821 1.377 . S
C1820 C1822 1.384 . S
C1821 C1820 1.377 . S
C1821 C1827 1.390 . S
C1822 H1813 0.930 . S
C1822 C1820 1.384 . S
C1822 C1823 1.372 . S
C1823 C1822 1.372 . S
C1823 C1824 1.400 . S
C1823 C1828 1.490 . S
C1824 H1814 0.930 . S
C1824 C1823 1.400 . S
C1824 C1827 1.386 . S
H1825 C1841 0.930 . S
H1826 C1842 0.931 . S
C1827 H1815 0.929 . S
C1827 C1821 1.390 . S
C1827 C1824 1.386 . S
C1828 C1823 1.490 . S
C1828 C1830 1.395 . S
C1828 C1831 1.403 1_565 S
H1829 C1835 0.930 . S
C1830 H1816 0.930 . S
C1830 C1828 1.395 . S
C1830 C1833 1.403 . S
C1831 C1828 1.403 1_545 S
C1831 C1832 1.524 . S
C1831 C1835 1.400 . S
C1832 H1817 0.960 . S
C1832 H1818 0.960 . S
C1832 H1819 0.960 . S
C1832 C1831 1.524 . S
C1833 C1830 1.403 . S
C1833 C1834 1.392 1_565 S
C1833 C1837 1.495 . S
C1834 C1833 1.392 1_545 S
C1834 C1835 1.385 . S
C1834 C1836 1.478 . S
C1835 H1829 0.930 . S
C1835 C1831 1.400 . S
C1835 C1834 1.385 . S
C1836 C1834 1.478 . S
C1836 C1838 1.381 . S
C1836 C1842 1.383 . S
C1837 C1833 1.495 . S
C1837 H1843 0.959 . S
C1837 H1844 0.961 . S
C1837 H1845 0.960 . S
C1838 C1836 1.381 . S
C1838 C1839 1.394 . S
C1838 H1846 0.930 . S
C1839 C1838 1.394 . S
C1839 C1840 1.383 . S
C1839 H1847 0.929 . S
C1840 C1839 1.383 . S
C1840 C1841 1.377 . S
C1841 H1825 0.930 . S
C1841 C1840 1.377 . S
C1841 C1842 1.379 . S
C1842 H1826 0.931 . S
C1842 C1836 1.383 . S
C1842 C1841 1.379 . S
H1843 C1837 0.959 . S
H1844 C1837 0.961 . S
H1845 C1837 0.960 . S
H1846 C1838 0.930 . S
H1847 C1839 0.929 . S
H1848 C1856 0.929 . S
H1849 C1858 0.930 . S
H1850 C1860 0.930 . S
H1851 C1863 0.929 . S
H1852 C1866 0.930 . S
H1853 C1868 0.960 . S
H1854 C1868 0.960 . S
H1855 C1868 0.960 . S
C1856 H1848 0.929 . S
C1856 C1857 1.377 . S
C1856 C1858 1.384 . S
C1857 C1856 1.377 . S
C1857 C1863 1.390 . S
C1858 H1849 0.930 . S
C1858 C1856 1.384 . S
C1858 C1859 1.372 . S
C1859 C1858 1.372 . S
C1859 C1860 1.400 . S
C1859 C1864 1.490 . S
C1860 H1850 0.930 . S
C1860 C1859 1.400 . S
C1860 C1863 1.386 . S
H1861 C1877 0.930 . S
H1862 C1878 0.931 . S
C1863 H1851 0.929 . S
C1863 C1857 1.390 . S
C1863 C1860 1.386 . S
C1864 C1859 1.490 . S
C1864 C1866 1.395 . S
C1864 C1867 1.403 . S
H1865 C1871 0.930 . S
C1866 H1852 0.930 . S
C1866 C1864 1.395 . S
C1866 C1869 1.403 . S
C1867 C1864 1.403 . S
C1867 C1868 1.524 . S
C1867 C1871 1.400 . S
C1868 H1853 0.960 . S
C1868 H1854 0.960 . S
C1868 H1855 0.960 . S
C1868 C1867 1.524 . S
C1869 C1866 1.403 . S
C1869 C1870 1.392 . S
C1869 C1873 1.495 . S
C1870 C1869 1.392 . S
C1870 C1871 1.385 . S
C1870 C1872 1.478 . S
C1871 H1865 0.930 . S
C1871 C1867 1.400 . S
C1871 C1870 1.385 . S
C1872 C1870 1.478 . S
C1872 C1874 1.381 . S
C1872 C1878 1.383 . S
C1873 C1869 1.495 . S
C1873 H1879 0.959 . S
C1873 H1880 0.961 . S
C1873 H1881 0.960 . S
C1874 C1872 1.381 . S
C1874 C1875 1.394 . S
C1874 H1882 0.930 . S
C1875 C1874 1.394 . S
C1875 C1876 1.383 . S
C1875 H1883 0.929 . S
C1876 C1875 1.383 . S
C1876 C1877 1.377 . S
C1877 H1861 0.930 . S
C1877 C1876 1.377 . S
C1877 C1878 1.379 . S
C1878 H1862 0.931 . S
C1878 C1872 1.383 . S
C1878 C1877 1.379 . S
H1879 C1873 0.959 . S
H1880 C1873 0.961 . S
H1881 C1873 0.960 . S
H1882 C1874 0.930 . S
H1883 C1875 0.929 . S
H1884 C1892 0.929 . S
H1885 C1894 0.930 . S
H1886 C1896 0.930 1_455 S
H1887 C1899 0.929 1_455 S
H1888 C1902 0.930 . S
H1889 C1904 0.960 . S
H1890 C1904 0.960 . S
H1891 C1904 0.960 1_455 S
C1892 H1884 0.929 . S
C1892 C1893 1.377 . S
C1892 C1894 1.384 . S
C1893 C1892 1.377 . S
C1893 C1899 1.390 . S
C1894 H1885 0.930 . S
C1894 C1892 1.384 . S
C1894 C1895 1.372 . S
C1895 C1894 1.372 . S
C1895 C1896 1.400 . S
C1895 C1900 1.490 . S
C1896 H1886 0.930 1_655 S
C1896 C1895 1.400 . S
C1896 C1899 1.386 . S
H1897 C1913 0.930 . S
H1898 C1914 0.931 . S
C1899 H1887 0.929 1_655 S
C1899 C1893 1.390 . S
C1899 C1896 1.386 . S
C1900 C1895 1.490 . S
C1900 C1902 1.395 . S
C1900 C1903 1.403 . S
H1901 C1907 0.930 . S
C1902 H1888 0.930 . S
C1902 C1900 1.395 . S
C1902 C1905 1.392 1_655 S
C1903 C1900 1.403 . S
C1903 C1904 1.524 . S
C1903 C1907 1.400 1_655 S
C1904 H1889 0.960 . S
C1904 H1890 0.960 . S
C1904 H1891 0.960 1_655 S
C1904 C1903 1.524 . S
C1905 C1902 1.392 1_455 S
C1905 C1906 1.428 . S
C1905 C1909 1.474 . S
C1906 C1905 1.428 . S
C1906 C1907 1.385 . S
C1906 C1908 1.478 . S
C1907 H1901 0.930 . S
C1907 C1903 1.400 1_455 S
C1907 C1906 1.385 . S
C1908 C1906 1.478 . S
C1908 C1910 1.393 . S
C1908 C1914 1.383 . S
C1909 C1905 1.474 . S
C1909 H1915 0.959 1_455 S
C1909 H1916 0.961 . S
C1909 H1917 0.960 1_455 S
C1910 C1908 1.393 . S
C1910 C1911 1.400 . S
C1910 H1918 0.913 1_455 S
C1911 C1910 1.400 . S
C1911 C1912 1.383 . S
C1911 H1919 0.929 1_455 S
C1912 C1911 1.383 . S
C1912 C1913 1.377 . S
C1913 H1897 0.930 . S
C1913 C1912 1.377 . S
C1913 C1914 1.379 . S
C1914 H1898 0.931 . S
C1914 C1908 1.383 . S
C1914 C1913 1.379 . S
H1915 C1909 0.959 1_655 S
H1916 C1909 0.961 . S
H1917 C1909 0.960 1_655 S
H1918 C1910 0.913 1_655 S
H1919 C1911 0.929 1_655 S
C1065 C57 2.014 . S
C1084 C733 2.000 . S
C1101 C145 2.013 . S
C1120 C812 2.000 . S
C1137 C900 1.947 . S
C1156 C233 1.938 . S
C1173 C988 2.013 . S
C1192 C321 2.000 . S
C1209 C557 2.014 . S
C1228 C401 1.999 . S
C1245 C645 1.947 . S
C1264 C497 1.934 . S
C1281 C20 1.488 . S
C1300 C284 1.500 . S
C1317 C381 1.470 . S
C1336 C108 1.468 . S
C1353 C460 1.422 . S
C1372 C196 1.407 . S
C1389 C577 1.489 . S
C1408 C849 1.489 . S
C1425 C937 1.422 . S
C1444 C665 1.418 . S
C1461 C753 1.470 . S
C1480 C1025 1.462 . S
C1497 C548 1.081 . S
C1516 C49 1.131 . S
C1533 C137 1.036 . S
C1552 C636 1.075 . S
C1569 C724 1.016 . S
C1588 C225 0.989 . S
C1605 C821 1.071 . S
C1624 C313 1.032 . S
C1641 C409 1.015 . S
C1660 C909 1.003 . S
C1677 C997 1.015 . S
C1696 C489 1.016 . S
C1713 C29 0.507 . S
C1732 C673 0.539 . S
C1749 C761 0.479 . S
C1768 C117 0.517 . S
C1785 C841 0.499 . S
C1804 C205 0.470 . S
C1821 C293 0.478 . S
C1840 C929 0.418 . S
C1857 C1017 0.477 . S
C1876 C372 0.418 . S
C1893 C585 0.504 . S
C1912 C469 0.506 . S
