# Generated by pormake.
# Topology fcu, (12)-cn, num edge types: 1
# Building blocks:
#     Node 0, Type 0, BuildingBlock: BOTCEU_clean_sbu_0, # of connection points: 12
#     Node 1, Type 0, BuildingBlock: BOTCEU_clean_sbu_0, # of connection points: 12
#     Node 2, Type 0, BuildingBlock: BOTCEU_clean_sbu_0, # of connection points: 12
#     Node 3, Type 0, BuildingBlock: BOTCEU_clean_sbu_0, # of connection points: 12
#     Edge 4, Type (0, 0), BuildingBlock: AJUNOK_clean_linker_0, # of connection points: 2
#     Edge 5, Type (0, 0), BuildingBlock: AJUNOK_clean_linker_0, # of connection points: 2
#     Edge 6, Type (0, 0), BuildingBlock: AJUNOK_clean_linker_0, # of connection points: 2
#     Edge 7, Type (0, 0), BuildingBlock: AJUNOK_clean_linker_0, # of connection points: 2
#     Edge 8, Type (0, 0), BuildingBlock: AJUNOK_clean_linker_0, # of connection points: 2
#     Edge 9, Type (0, 0), BuildingBlock: AJUNOK_clean_linker_0, # of connection points: 2
#     Edge 10, Type (0, 0), BuildingBlock: AJUNOK_clean_linker_0, # of connection points: 2
#     Edge 11, Type (0, 0), BuildingBlock: AJUNOK_clean_linker_0, # of connection points: 2
#     Edge 12, Type (0, 0), BuildingBlock: AJUNOK_clean_linker_0, # of connection points: 2
#     Edge 13, Type (0, 0), BuildingBlock: AJUNOK_clean_linker_0, # of connection points: 2
#     Edge 14, Type (0, 0), BuildingBlock: AJUNOK_clean_linker_0, # of connection points: 2
#     Edge 15, Type (0, 0), BuildingBlock: AJUNOK_clean_linker_0, # of connection points: 2
#     Edge 16, Type (0, 0), BuildingBlock: AJUNOK_clean_linker_0, # of connection points: 2
#     Edge 17, Type (0, 0), BuildingBlock: AJUNOK_clean_linker_0, # of connection points: 2
#     Edge 18, Type (0, 0), BuildingBlock: AJUNOK_clean_linker_0, # of connection points: 2
#     Edge 19, Type (0, 0), BuildingBlock: AJUNOK_clean_linker_0, # of connection points: 2
#     Edge 20, Type (0, 0), BuildingBlock: AJUNOK_clean_linker_0, # of connection points: 2
#     Edge 21, Type (0, 0), BuildingBlock: AJUNOK_clean_linker_0, # of connection points: 2
#     Edge 22, Type (0, 0), BuildingBlock: AJUNOK_clean_linker_0, # of connection points: 2
#     Edge 23, Type (0, 0), BuildingBlock: AJUNOK_clean_linker_0, # of connection points: 2
#     Edge 24, Type (0, 0), BuildingBlock: AJUNOK_clean_linker_0, # of connection points: 2
#     Edge 25, Type (0, 0), BuildingBlock: AJUNOK_clean_linker_0, # of connection points: 2
#     Edge 26, Type (0, 0), BuildingBlock: AJUNOK_clean_linker_0, # of connection points: 2
#     Edge 27, Type (0, 0), BuildingBlock: AJUNOK_clean_linker_0, # of connection points: 2
# Relax obj value: 0.054
# Max RMSD: 0.159
# Mean RMSD: 0.159
data_MOF--net-fcu--node1-BOTCEU_clean_sbu_0--edge1-AJUNOK_clean_linker_0
_symmetry_space_group_name_H-M    P1
_symmetry_Int_Tables_number       1
_symmetry_cell_setting            triclinic
loop_
_symmetry_equiv_pos_as_xyz
'x, y, z'
_cell_length_a     30.839499
_cell_length_b     30.858879
_cell_length_c     30.868968
_cell_angle_alpha  102.52225
_cell_angle_beta   102.23437
_cell_angle_gamma 102.36802
loop_
_atom_site_label
_atom_site_type_symbol
_atom_site_fract_x
_atom_site_fract_y
_atom_site_fract_z
_atom_type_partial_charge
C0 C 0.16223 0.92298 0.12693 0.0
C1 C 0.16178 0.938 0.17267 0.0
C2 C 0.11563 0.92365 0.17241 0.0
N3 N 0.11883 0.90091 0.10196 0.0
N4 N 0.09102 0.90135 0.12876 0.0
C5 C 0.20281 0.92847 0.10731 0.0
H6 H 0.19244 0.93223 0.07191 0.0
H7 H 0.21511 0.89701 0.10496 0.0
H8 H 0.2314 0.95872 0.12951 0.0
C9 C 0.09629 0.92613 0.21312 0.0
H10 H 0.05838 0.92054 0.20225 0.0
H11 H 0.11263 0.95995 0.23917 0.0
H12 H 0.1038 0.89884 0.22937 0.0
C13 C 0.94994 0.16533 0.81979 0.0
C14 C 0.0123 0.14977 0.8034 0.0
C15 C 0.97957 0.17322 0.79232 0.0
N16 N 0.96489 0.13873 0.8454 0.0
N17 N 0.00159 0.12893 0.83508 0.0
H18 H 0.91672 0.21708 0.84071 0.0
H19 H 0.88862 0.17878 0.78415 0.0
H20 H 0.88427 0.159 0.83489 0.0
C21 C 0.90713 0.18064 0.8198 0.0
H22 H 0.06963 0.18481 0.78318 0.0
H23 H 0.04577 0.12468 0.75321 0.0
H24 H 0.08074 0.14105 0.81184 0.0
C25 C 0.05481 0.15031 0.78726 0.0
C26 C 0.03008 0.77913 0.03732 0.0
C27 C 0.08575 0.95416 0.02591 0.0
C28 C 0.92023 0.11092 0.16166 0.0
N29 N 0.89747 0.08682 0.11809 0.0
N30 N 0.89759 0.11453 0.0913 0.0
C31 C 0.93536 0.15693 0.16226 0.0
C32 C 0.91998 0.15786 0.11676 0.0
H33 H 0.89031 0.09049 0.21279 0.0
H34 H 0.95214 0.11172 0.23149 0.0
H35 H 0.92436 0.0548 0.19147 0.0
C36 C 0.92239 0.09093 0.20183 0.0
H37 H 0.92275 0.18893 0.06113 0.0
H38 H 0.95718 0.22576 0.11792 0.0
H39 H 0.89535 0.21408 0.10231 0.0
C40 C 0.92442 0.1991 0.09835 0.0
C41 C 0.16584 0.82603 0.96212 0.0
C42 C 0.15384 0.80932 0.02544 0.0
N43 N 0.13743 0.84922 0.97742 0.0
N44 N 0.13004 0.83893 0.01488 0.0
C45 C 0.17737 0.80017 -0.00768 0.0
H46 H 0.21139 0.85426 0.92585 0.0
H47 H 0.18523 0.79311 0.903 0.0
H48 H 0.15166 0.8337 0.89357 0.0
C49 C 0.1791 0.82652 0.91835 0.0
C50 C 0.15567 0.79208 0.06729 0.0
H51 H 0.19148 0.79201 0.08319 0.0
H52 H 0.13359 0.75606 0.05701 0.0
H53 H 0.14289 0.81369 0.0927 0.0
C54 C 0.77785 0.01817 0.0223 0.0
C55 C 0.94873 0.00624 0.08307 0.0
C56 C 0.11462 0.16312 0.9211 0.0
N57 N 0.08888 0.11991 0.89876 0.0
C58 C 0.15995 0.16174 0.93645 0.0
N59 N 0.11494 0.09146 0.8999 0.0
C60 C 0.15874 0.11535 0.92218 0.0
H61 H 0.05939 0.19536 0.90829 0.0
H62 H 0.11606 0.22972 0.91075 0.0
H63 H 0.10253 0.22207 0.96273 0.0
C64 C 0.09677 0.20482 0.92572 0.0
H65 H 0.18579 0.05898 0.93324 0.0
C66 C 0.19797 0.09405 0.92921 0.0
H67 H 0.21119 0.0905 0.89824 0.0
H68 H 0.22642 0.11586 0.95974 0.0
C69 C 0.81604 0.95213 0.16573 0.0
C70 C 0.79996 0.01366 0.14808 0.0
N71 N 0.84165 0.96575 0.1385 0.0
N72 N 0.83163 0.00203 0.1276 0.0
C73 C 0.7888 0.98216 0.17277 0.0
H74 H 0.83657 0.92068 0.21894 0.0
C75 C 0.81587 0.91013 0.18244 0.0
H76 H 0.83111 0.88667 0.16156 0.0
H77 H 0.78013 0.89188 0.18079 0.0
H78 H 0.77499 0.06964 0.17882 0.0
H79 H 0.75173 0.04601 0.1174 0.0
C80 C 0.78339 0.05556 0.14631 0.0
H81 H 0.80987 0.08224 0.14003 0.0
C82 C 0.01891 0.0225 0.78243 0.0
C83 C 0.01441 0.09624 0.95553 0.0
C84 C 0.81664 0.0441 0.86513 0.0
N85 N 0.85922 0.06982 0.8894 0.0
C86 C 0.81757 0.02699 0.8199 0.0
C87 C 0.86306 0.04449 0.81954 0.0
N88 N 0.88698 0.06993 0.86253 0.0
C89 C 0.77568 0.03915 0.88415 0.0
H90 H 0.78649 0.04131 0.92138 0.0
H91 H 0.76008 0.06783 0.88042 0.0
H92 H 0.74939 0.00597 0.86512 0.0
C93 C 0.88137 0.0438 0.77831 0.0
H94 H 0.91925 0.04927 0.78838 0.0
H95 H 0.86469 0.01086 0.75105 0.0
H96 H 0.87385 0.07222 0.76394 0.0
C97 C 0.01751 0.80744 0.16324 0.0
C98 C -0.01464 0.7986 0.18793 0.0
C99 C 0.95419 0.82349 0.17637 0.0
N100 N 0.00544 0.83599 0.1387 0.0
N101 N 0.96804 0.8459 0.14694 0.0
H102 H 0.05044 0.75507 0.14358 0.0
H103 H 0.07664 0.79217 0.20099 0.0
H104 H 0.08467 0.81301 0.15165 0.0
C105 C 0.06007 0.7913 0.16507 0.0
C106 C 0.91091 0.82391 0.19076 0.0
H107 H 0.89494 0.78968 0.19474 0.0
H108 H 0.9193 0.84986 0.22452 0.0
H109 H 0.88623 0.83344 0.16516 0.0
C110 C 0.94146 0.199 0.94861 0.0
C111 C 0.90618 0.03165 0.9753 0.0
C112 C 0.03638 0.86526 0.83039 0.0
C113 C 0.01992 0.82017 0.8319 0.0
C114 C 0.03887 0.82033 0.87717 0.0
N115 N 0.0631 0.89001 0.87244 0.0
N116 N 0.06463 0.86343 0.90035 0.0
C117 C 0.02996 0.88364 0.78916 0.0
H118 H 0.05777 0.87929 0.77232 0.0
H119 H -0.00378 0.86454 0.76389 0.0
H120 H 0.03236 0.92098 0.79992 0.0
C121 C 0.03872 0.77953 0.8959 0.0
H122 H 0.04436 0.79017 0.93381 0.0
H123 H 0.0059 0.75204 0.8795 0.0
H124 H 0.06734 0.76531 0.88848 0.0
C125 C 0.80227 0.1481 0.01974 0.0
C126 C 0.79196 0.17334 0.98862 0.0
C127 C 0.81716 0.16392 0.95704 0.0
N128 N 0.83186 0.12527 0.0067 0.0
N129 N 0.84116 0.13518 0.96973 0.0
C130 C 0.78724 0.14864 0.06278 0.0
H131 H 0.75072 0.12812 0.05354 0.0
H132 H 0.78943 0.18452 0.0812 0.0
H133 H 0.80882 0.13359 0.08561 0.0
C134 C 0.81684 0.18001 0.91466 0.0
H135 H 0.78222 0.18352 0.89939 0.0
H136 H 0.84208 0.2143 0.92392 0.0
H137 H 0.82689 0.1556 0.8891 0.0
C138 C 0.19256 0.95324 0.95611 0.0
C139 C 0.02767 0.98206 0.91601 0.0
C140 C 0.86468 0.81452 0.05242 0.0
N141 N 0.88785 0.85792 0.07703 0.0
N142 N 0.86017 0.88474 0.0748 0.0
C143 C 0.81931 0.81411 0.03367 0.0
C144 C 0.81782 0.85953 0.04905 0.0
H145 H 0.9213 0.78431 0.05425 0.0
H146 H 0.88076 0.76275 0.08376 0.0
H147 H 0.86536 0.74467 0.02184 0.0
C148 C 0.88409 0.77408 0.05259 0.0
H149 H 0.78712 0.91497 0.04355 0.0
H150 H 0.75103 0.858 0.00881 0.0
H151 H 0.76003 0.87457 0.07039 0.0
C152 C 0.77654 0.87789 0.04219 0.0
C153 C 0.14169 0.00943 0.8058 0.0
N154 N 0.12105 0.00163 0.83854 0.0
N155 N 0.12977 0.96534 0.85052 0.0
C156 C 0.16398 0.97527 0.79601 0.0
C157 C 0.15549 0.94782 0.82514 0.0
C158 C 0.14227 0.05008 0.78671 0.0
H159 H 0.11479 0.03973 0.75381 0.0
H160 H 0.1759 0.06235 0.77957 0.0
H161 H 0.13544 0.07837 0.81104 0.0
C162 C 0.1689 0.90429 0.82651 0.0
H163 H 0.14734 0.8839 0.84359 0.0
H164 H 0.1651 0.88357 0.79101 0.0
H165 H 0.20565 0.91295 0.84606 0.0
C166 C 0.94487 0.94845 0.20242 0.0
C167 C 0.97428 0.90066 0.03746 0.0
Cu168 Cu 0.09171 0.86723 0.04167 0.0
Cu169 Cu 0.03115 0.86533 0.10026 0.0
Cu170 Cu 0.86325 0.02665 0.0903 0.0
Cu171 Cu 0.86318 0.08742 0.03091 0.0
Cu172 Cu 0.02792 0.09267 0.86682 0.0
Cu173 Cu 0.08508 0.03054 0.86877 0.0
Cu174 Cu 0.88366 0.10944 0.94768 0.0
Cu175 Cu 0.94434 0.11219 0.88823 0.0
Cu176 Cu 0.10342 0.94818 0.89479 0.0
Cu177 Cu 0.10724 0.88986 0.95725 0.0
Cu178 Cu 0.94578 0.88536 0.11687 0.0
Cu179 Cu 0.88459 0.94409 0.11299 0.0
H180 H -0.00562 0.76249 0.03717 0.0
H181 H 0.05489 0.77267 0.06519 0.0
H182 H 0.03598 0.76444 0.00367 0.0
H183 H 0.0791 0.95845 0.0603 0.0
H184 H 0.06252 0.96897 0.00468 0.0
H185 H 0.12217 0.97247 0.0303 0.0
H186 H 0.76347 0.00782 0.98432 0.0
H187 H 0.76668 0.04826 0.03786 0.0
H188 H 0.76512 -0.01098 0.03606 0.0
H189 H 0.95512 0.0435 0.08534 0.0
H190 H 0.95776 -0.01118 0.05234 0.0
H191 H 0.97056 0.00204 0.11453 0.0
H192 H 0.02735 -0.01027 0.76963 0.0
H193 H 0.04 0.0503 0.77219 0.0
H194 H 0.9818 0.01828 0.76726 0.0
H195 H 0.02108 0.13398 0.96996 0.0
H196 H 0.0478 0.08747 0.96011 0.0
H197 H -0.00667 0.07763 0.97403 0.0
H198 H 0.97778 0.21673 0.95181 0.0
H199 H 0.91844 0.20488 0.91902 0.0
H200 H 0.93233 0.21296 0.98069 0.0
H201 H 0.90844 0.02541 0.93922 0.0
H202 H 0.93803 0.02827 -0.00293 0.0
H203 H 0.87584 0.0058 0.97679 0.0
H204 H 0.20748 -0.00975 0.95952 0.0
H205 H 0.20787 0.94497 0.98818 0.0
H206 H 0.20028 0.93177 0.9266 0.0
H207 H 0.01866 0.94557 0.91692 0.0
H208 H 0.02661 0.00431 0.94893 0.0
H209 H 0.00228 0.98619 0.88696 0.0
H210 H 0.94605 0.98486 0.21754 0.0
H211 H 0.91595 0.92525 0.20925 0.0
H212 H 0.97778 0.94189 0.21824 0.0
H213 H 0.93786 0.90188 0.02982 0.0
H214 H -0.00463 0.93105 0.03088 0.0
H215 H 0.97651 0.86861 0.01461 0.0
O216 O 0.03608 0.82566 0.04449 0.0
O217 O 0.07787 0.90819 0.00481 0.0
O218 O 0.82503 0.02946 0.03297 0.0
O219 O 0.90312 0.98753 0.07932 0.0
O220 O 0.02832 0.03351 0.8295 0.0
O221 O -0.00821 0.08386 0.90952 0.0
O222 O 0.93657 0.15268 0.9419 0.0
O223 O 0.9018 0.07526 0.99056 0.0
O224 O 0.1458 0.94439 0.94918 0.0
O225 O 0.07111 -0.006 0.91019 0.0
O226 O 0.9388 0.94039 0.15584 0.0
O227 O -0.01043 0.90119 0.08272 0.0
C228 C 0.16157 0.42452 0.61706 0.0
C229 C 0.16108 0.4396 0.66282 0.0
C230 C 0.11541 0.42314 0.66292 0.0
N231 N 0.11842 0.40065 0.59231 0.0
N232 N 0.09094 0.40023 0.61947 0.0
C233 C 0.2023 0.43104 0.59764 0.0
H234 H 0.19865 0.40026 0.56947 0.0
H235 H 0.23491 0.43791 0.62475 0.0
H236 H 0.20384 0.46088 0.58285 0.0
C237 C 0.09553 0.42826 0.70329 0.0
H238 H 0.05848 0.42684 0.69202 0.0
H239 H 0.11478 0.46111 0.73001 0.0
H240 H 0.09835 0.39924 0.7186 0.0
C241 C 0.95273 0.67048 0.33534 0.0
C242 C 0.01438 0.65468 0.31743 0.0
C243 C 0.98322 0.68037 0.30914 0.0
N244 N 0.96608 0.64094 0.35793 0.0
N245 N 0.00235 0.63104 0.34667 0.0
H246 H 0.91937 0.71925 0.36352 0.0
H247 H 0.89496 0.69168 0.30286 0.0
H248 H 0.88471 0.66028 0.34492 0.0
C249 C 0.91023 0.68611 0.33647 0.0
H250 H 0.07449 0.69091 0.30231 0.0
H251 H 0.04595 0.63453 0.26383 0.0
H252 H 0.08001 0.63993 0.32101 0.0
C253 C 0.05639 0.65507 0.30044 0.0
C254 C 0.02037 0.28188 0.52138 0.0
C255 C 0.08815 0.45408 0.51366 0.0
C256 C 0.91318 0.61736 0.67327 0.0
N257 N 0.89245 0.5925 0.62954 0.0
N258 N 0.89353 0.61957 0.60214 0.0
C259 C 0.9279 0.66329 0.67345 0.0
C260 C 0.9148 0.66328 0.62734 0.0
H261 H 0.88653 0.59484 0.72544 0.0
H262 H 0.94819 0.61949 0.74239 0.0
H263 H 0.92219 0.56199 0.70288 0.0
C264 C 0.91824 0.59736 0.71348 0.0
H265 H 0.91363 0.69355 0.57068 0.0
H266 H 0.95095 0.73069 0.62584 0.0
H267 H 0.88953 0.71975 0.61462 0.0
C268 C 0.91767 0.70415 0.60835 0.0
C269 C 0.16509 0.32029 0.4552 0.0
C270 C 0.14981 0.3054 0.5181 0.0
N271 N 0.13711 0.345 0.46889 0.0
N272 N 0.1276 0.33564 0.50599 0.0
C273 C 0.17428 0.29463 0.48626 0.0
H274 H 0.21478 0.34399 0.42082 0.0
H275 H 0.18292 0.28435 0.39652 0.0
H276 H 0.15577 0.32969 0.38717 0.0
C277 C 0.18025 0.3193 0.41218 0.0
C278 C 0.15052 0.2902 0.56101 0.0
H279 H 0.18655 0.29326 0.57954 0.0
H280 H 0.13087 0.25337 0.55162 0.0
H281 H 0.13474 0.31109 0.58383 0.0
C282 C 0.77378 0.52552 0.53652 0.0
C283 C 0.9496 0.52013 0.59806 0.0
C284 C 0.11388 0.65881 0.42816 0.0
N285 N 0.08765 0.61581 0.40609 0.0
C286 C 0.15947 0.65727 0.44033 0.0
N287 N 0.11364 0.58728 0.40382 0.0
C288 C 0.15791 0.61098 0.42433 0.0
H289 H 0.06037 0.69039 0.4403 0.0
H290 H 0.09337 0.71363 0.40515 0.0
H291 H 0.11878 0.72783 0.46643 0.0
C292 C 0.09562 0.70019 0.43586 0.0
H293 H 0.18628 0.55275 0.41713 0.0
C294 C 0.19779 0.59078 0.42374 0.0
H295 H 0.21289 0.59885 0.39589 0.0
H296 H 0.22495 0.6061 0.45691 0.0
C297 C 0.81999 0.44967 0.67283 0.0
C298 C 0.80116 0.51216 0.66095 0.0
N299 N 0.84377 0.46645 0.64558 0.0
N300 N 0.8321 0.50331 0.63811 0.0
C301 C 0.79243 0.47838 0.68369 0.0
H302 H 0.84613 0.41332 0.71927 0.0
C303 C 0.82113 0.4056 0.68514 0.0
H304 H 0.83226 0.38276 0.65921 0.0
H305 H 0.78669 0.38784 0.68742 0.0
H306 H 0.78118 0.56828 0.69849 0.0
H307 H 0.74669 0.54209 0.64009 0.0
C308 C 0.78242 0.55318 0.66284 0.0
H309 H 0.8038 0.57952 0.65096 0.0
C310 C 0.01241 0.52335 0.28538 0.0
C311 C 0.01023 0.58407 0.46098 0.0
C312 C 0.81575 0.54659 0.37478 0.0
N313 N 0.8585 0.57167 0.39933 0.0
C314 C 0.81672 0.5297 0.32953 0.0
C315 C 0.86233 0.54673 0.32935 0.0
N316 N 0.88625 0.57179 0.37243 0.0
C317 C 0.7747 0.54165 0.39365 0.0
H318 H 0.78533 0.54364 0.43086 0.0
H319 H 0.7592 0.5704 0.38991 0.0
H320 H 0.74835 0.50855 0.37444 0.0
C321 C 0.88115 0.5452 0.28838 0.0
H322 H 0.91895 0.55007 0.29884 0.0
H323 H 0.86412 0.5122 0.26127 0.0
H324 H 0.87447 0.57372 0.27374 0.0
C325 C 0.01471 0.30376 0.64883 0.0
C326 C 0.98202 0.29296 0.67254 0.0
C327 C 0.9525 0.32036 0.66451 0.0
N328 N 0.0042 0.33551 0.62801 0.0
N329 N 0.96747 0.34574 0.63774 0.0
H330 H 0.04712 0.25534 0.61821 0.0
H331 H 0.06867 0.27682 0.68001 0.0
H332 H 0.08415 0.31295 0.64319 0.0
C333 C 0.05631 0.28641 0.64788 0.0
C334 C 0.90964 0.32049 0.67975 0.0
H335 H 0.89102 0.28486 0.67801 0.0
H336 H 0.91911 0.34158 0.71608 0.0
H337 H 0.88693 0.33545 0.65794 0.0
C338 C 0.94738 0.69835 0.46386 0.0
C339 C 0.90075 0.53136 0.48664 0.0
C340 C 0.03983 0.35902 0.31906 0.0
C341 C 0.02482 0.31383 0.32102 0.0
C342 C 0.04322 0.31495 0.36671 0.0
N343 N 0.06566 0.38453 0.36126 0.0
N344 N 0.06739 0.35855 0.38972 0.0
C345 C 0.03525 0.37624 0.27705 0.0
H346 H 0.03991 0.41407 0.28667 0.0
H347 H 0.0623 0.3688 0.26024 0.0
H348 H 0.00116 0.3586 0.25195 0.0
C349 C 0.04078 0.27516 0.38727 0.0
H350 H 0.04063 0.28652 0.42388 0.0
H351 H 0.00965 0.24639 0.36763 0.0
H352 H 0.07183 0.26269 0.38638 0.0
C353 C 0.80075 0.65263 0.52689 0.0
C354 C 0.79157 0.67688 0.49451 0.0
C355 C 0.81757 0.66628 0.46415 0.0
N356 N 0.83042 0.62909 0.5155 0.0
N357 N 0.84117 0.63801 0.47872 0.0
C358 C 0.781 0.65081 0.56694 0.0
H359 H 0.74485 0.62887 0.55398 0.0
H360 H 0.78042 0.68566 0.58534 0.0
H361 H 0.8012 0.63591 0.59114 0.0
C362 C 0.82034 0.68306 0.42264 0.0
H363 H 0.78518 0.6778 0.40057 0.0
H364 H 0.83769 0.72062 0.43378 0.0
H365 H 0.83982 0.66444 0.40246 0.0
C366 C 0.19508 0.44567 0.44109 0.0
C367 C 0.02542 0.4692 0.40518 0.0
C368 C 0.86544 0.3221 0.5454 0.0
N369 N 0.88911 0.36464 0.57187 0.0
N370 N 0.86146 0.39156 0.57319 0.0
C371 C 0.81987 0.32222 0.52897 0.0
C372 C 0.81865 0.36719 0.54767 0.0
H373 H 0.92233 0.29339 0.54083 0.0
H374 H 0.88245 0.26564 0.56781 0.0
H375 H 0.86619 0.25556 0.50609 0.0
C376 C 0.88528 0.28174 0.53932 0.0
H377 H 0.78631 0.42244 0.55421 0.0
H378 H 0.74965 0.36784 0.51505 0.0
H379 H 0.76288 0.37582 0.57624 0.0
C380 C 0.77691 0.38442 0.54794 0.0
C381 C 0.13976 0.51518 0.30225 0.0
N382 N 0.11881 0.50268 0.33325 0.0
N383 N 0.12812 0.4649 0.34085 0.0
C384 C 0.16251 0.4825 0.2887 0.0
C385 C 0.15417 0.4509 0.31394 0.0
C386 C 0.13914 0.55794 0.28717 0.0
H387 H 0.13156 0.54967 0.24905 0.0
H388 H 0.17369 0.58306 0.30199 0.0
H389 H 0.1132 0.57379 0.29914 0.0
C390 C 0.17246 0.40983 0.31434 0.0
H391 H 0.16784 0.38929 0.27864 0.0
H392 H 0.20999 0.42173 0.33174 0.0
H393 H 0.15465 0.38783 0.33288 0.0
C394 C 0.94943 0.44756 0.70179 0.0
C395 C 0.97854 0.41357 0.53652 0.0
Cu396 Cu 0.09074 0.36726 0.53165 0.0
Cu397 Cu 0.03034 0.36705 0.59137 0.0
Cu398 Cu 0.86084 0.53182 0.60113 0.0
Cu399 Cu 0.85998 0.59105 0.54149 0.0
Cu400 Cu 0.02656 0.59092 0.37413 0.0
Cu401 Cu 0.08349 0.5279 0.3675 0.0
Cu402 Cu 0.88321 0.61033 0.45819 0.0
Cu403 Cu 0.94456 0.61183 0.39872 0.0
Cu404 Cu 0.10439 0.44332 0.38458 0.0
Cu405 Cu 0.1093 0.38627 0.44684 0.0
Cu406 Cu 0.94711 0.38893 0.6121 0.0
Cu407 Cu 0.88609 0.44845 0.61636 0.0
H408 H -0.00226 0.26932 0.54213 0.0
H409 H 0.05161 0.26945 0.52788 0.0
H410 H 0.00141 0.26841 0.48432 0.0
H411 H 0.1226 0.47285 0.5124 0.0
H412 H 0.08736 0.4598 0.55014 0.0
H413 H 0.06127 0.46741 0.49543 0.0
H414 H 0.75882 0.5297 0.5022 0.0
H415 H 0.76551 0.55003 0.5634 0.0
H416 H 0.75895 0.48973 0.53727 0.0
H417 H 0.95284 0.55436 0.59129 0.0
H418 H 0.96653 0.50009 0.57612 0.0
H419 H 0.96664 0.52512 0.63492 0.0
H420 H 0.03062 0.49898 0.27057 0.0
H421 H 0.02096 0.55526 0.27442 0.0
H422 H 0.97471 0.50701 0.27284 0.0
H423 H 0.04583 0.58075 0.46477 0.0
H424 H -0.00948 0.55679 0.47288 0.0
H425 H 0.01158 0.61853 0.48221 0.0
H426 H 0.98193 0.71306 0.45983 0.0
H427 H 0.92096 0.70764 0.44006 0.0
H428 H 0.94677 0.71249 0.4999 0.0
H429 H 0.90113 0.52377 0.44997 0.0
H430 H 0.93272 0.52701 0.50726 0.0
H431 H 0.87034 0.50695 0.4899 0.0
H432 H 0.21275 0.44365 0.47556 0.0
H433 H 0.2001 0.41863 0.41407 0.0
H434 H 0.20985 0.48011 0.43691 0.0
H435 H 0.00127 0.46541 0.37154 0.0
H436 H 0.02089 0.43501 0.41222 0.0
H437 H 0.01783 0.49325 0.43292 0.0
H438 H 0.94769 0.4825 0.71869 0.0
H439 H 0.92326 0.42126 0.70872 0.0
H440 H 0.98426 0.44383 0.71569 0.0
H441 H 0.94216 0.41495 0.52893 0.0
H442 H 0.00071 0.44651 0.53555 0.0
H443 H 0.98176 0.38461 0.51014 0.0
O444 O 0.03266 0.32915 0.53351 0.0
O445 O 0.0799 0.40782 0.49353 0.0
O446 O 0.82065 0.53417 0.54455 0.0
O447 O 0.90389 0.49711 0.58829 0.0
O448 O 0.02594 0.53368 0.33251 0.0
O449 O -0.01044 0.57921 0.41561 0.0
O450 O 0.93847 0.65133 0.45401 0.0
O451 O 0.89846 0.57582 0.50167 0.0
O452 O 0.14897 0.43932 0.43737 0.0
O453 O 0.06993 0.4857 0.40376 0.0
O454 O 0.94113 0.44176 0.65524 0.0
O455 O -0.00835 0.40709 0.57943 0.0
C456 C 0.65878 0.92428 0.61727 0.0
C457 C 0.65879 0.93789 0.66325 0.0
C458 C 0.61293 0.9227 0.66344 0.0
N459 N 0.61531 0.90222 0.59247 0.0
N460 N 0.58798 0.90118 0.61977 0.0
C461 C 0.69906 0.93097 0.59727 0.0
H462 H 0.68803 0.93448 0.56184 0.0
H463 H 0.71251 0.90021 0.59501 0.0
H464 H 0.72709 0.96178 0.61931 0.0
C465 C 0.5942 0.92391 0.70444 0.0
H466 H 0.5561 0.91687 0.69398 0.0
H467 H 0.6097 0.95789 0.73043 0.0
H468 H 0.60338 0.89711 0.72059 0.0
C469 C 0.45308 0.17223 0.33631 0.0
C470 C 0.51682 0.16065 0.32007 0.0
C471 C 0.48419 0.18475 0.31157 0.0
N472 N 0.46769 0.14313 0.3588 0.0
N473 N 0.50504 0.13551 0.34822 0.0
H474 H 0.3903 0.16775 0.35696 0.0
H475 H 0.42013 0.22476 0.35564 0.0
H476 H 0.38885 0.18168 0.3027 0.0
C477 C 0.41043 0.18728 0.33814 0.0
H478 H 0.5789 0.19608 0.30742 0.0
H479 H 0.54511 0.14504 0.26296 0.0
H480 H 0.57885 0.1402 0.31662 0.0
C481 C 0.55744 0.16036 0.30086 0.0
C482 C 0.51954 0.78217 0.51933 0.0
C483 C 0.58243 0.95529 0.51315 0.0
C484 C 0.4121 0.11046 0.6721 0.0
N485 N 0.39039 0.08653 0.62823 0.0
N486 N 0.39173 0.11434 0.60158 0.0
C487 C 0.42771 0.15655 0.67306 0.0
C488 C 0.41377 0.15762 0.62742 0.0
H489 H 0.37951 0.08247 0.71816 0.0
H490 H 0.43933 0.11349 0.74383 0.0
H491 H 0.42288 0.05656 0.70313 0.0
C492 C 0.41411 0.08988 0.71189 0.0
H493 H 0.41971 0.18846 0.57212 0.0
H494 H 0.45292 0.22507 0.62937 0.0
H495 H 0.39124 0.21444 0.61172 0.0
C496 C 0.42013 0.19883 0.60899 0.0
C497 C 0.66539 0.82453 0.45735 0.0
C498 C 0.65027 0.81018 0.5205 0.0
N499 N 0.63691 0.84885 0.47055 0.0
N500 N 0.62726 0.83949 0.50758 0.0
C501 C 0.67517 0.79968 0.48903 0.0
H502 H 0.72001 0.8455 0.42757 0.0
H503 H 0.68077 0.79014 0.3965 0.0
H504 H 0.66323 0.84211 0.39337 0.0
C505 C 0.68313 0.82564 0.41606 0.0
C506 C 0.64847 0.79301 0.562 0.0
H507 H 0.67926 0.81342 0.59075 0.0
H508 H 0.64889 0.75628 0.55459 0.0
H509 H 0.61729 0.79723 0.57301 0.0
C510 C 0.27335 0.01994 0.53185 0.0
C511 C 0.44742 0.01351 0.59802 0.0
C512 C 0.61699 0.16429 0.42884 0.0
N513 N 0.59122 0.12108 0.40693 0.0
C514 C 0.66274 0.16332 0.44134 0.0
N515 N 0.6176 0.09292 0.40511 0.0
C516 C 0.66173 0.11711 0.42573 0.0
H517 H 0.5629 0.19512 0.44067 0.0
H518 H 0.5956 0.21854 0.40538 0.0
H519 H 0.62102 0.23321 0.46669 0.0
C520 C 0.59812 0.20529 0.43622 0.0
H521 H 0.69109 0.05957 0.42018 0.0
C522 C 0.70195 0.09742 0.42525 0.0
H523 H 0.71594 0.10425 0.39636 0.0
H524 H 0.72974 0.11402 0.45779 0.0
C525 C 0.31286 0.94387 0.66838 0.0
C526 C 0.2946 0.00586 0.65426 0.0
N527 N 0.33869 0.96076 0.64273 0.0
N528 N 0.32743 -0.00261 0.63402 0.0
C529 C 0.28405 0.97195 0.67649 0.0
H530 H 0.33452 0.90982 0.71888 0.0
C531 C 0.31389 0.90064 0.68245 0.0
H532 H 0.32986 0.87908 0.66047 0.0
H533 H 0.27843 0.88091 0.68002 0.0
H534 H 0.26909 0.05978 0.68807 0.0
H535 H 0.24324 0.03678 0.62703 0.0
C536 C 0.27611 0.04692 0.6545 0.0
H537 H 0.30078 0.0747 0.64747 0.0
C538 C 0.52128 0.03209 0.28484 0.0
C539 C 0.51507 0.08762 0.46101 0.0
C540 C 0.31937 0.04388 0.37521 0.0
N541 N 0.36195 0.06941 0.39979 0.0
C542 C 0.32013 0.02837 0.3297 0.0
C543 C 0.36544 0.04667 0.32939 0.0
N544 N 0.38945 0.0711 0.37266 0.0
C545 C 0.27849 0.03767 0.3943 0.0
H546 H 0.28953 0.03939 0.4314 0.0
H547 H 0.2622 0.06599 0.39099 0.0
H548 H 0.25266 0.0043 0.37494 0.0
C549 C 0.3836 0.04717 0.28824 0.0
H550 H 0.42165 0.05403 0.29836 0.0
H551 H 0.36781 0.01405 0.261 0.0
H552 H 0.37475 0.07516 0.27391 0.0
C553 C 0.51614 0.80238 0.65 0.0
C554 C 0.48411 0.79043 0.67405 0.0
C555 C 0.4527 0.81583 0.66542 0.0
N556 N 0.50337 0.8327 0.62819 0.0
N557 N 0.46594 0.84111 0.63789 0.0
H558 H 0.55225 0.75465 0.62534 0.0
H559 H 0.57503 0.78482 0.6855 0.0
H560 H 0.58493 0.81425 0.64193 0.0
C561 C 0.55986 0.7885 0.65096 0.0
C562 C 0.41027 0.81491 0.68168 0.0
H563 H 0.3932 0.77922 0.68123 0.0
H564 H 0.42009 0.83685 0.71772 0.0
H565 H 0.38606 0.82841 0.65972 0.0
C566 C 0.44973 0.19714 0.46733 0.0
C567 C 0.40537 0.02993 0.48837 0.0
C568 C 0.54389 0.86503 0.31976 0.0
C569 C 0.5281 0.81965 0.32089 0.0
C570 C 0.54508 0.82007 0.3666 0.0
N571 N 0.56888 0.88998 0.36246 0.0
N572 N 0.56931 0.86341 0.39038 0.0
C573 C 0.54055 0.88301 0.27825 0.0
H574 H 0.54632 0.92099 0.28842 0.0
H575 H 0.56739 0.87484 0.26147 0.0
H576 H 0.5064 0.86641 0.25292 0.0
C577 C 0.54081 0.77996 0.38677 0.0
H578 H 0.53824 0.79093 0.42261 0.0
H579 H 0.51032 0.75113 0.36559 0.0
H580 H 0.57228 0.76779 0.38809 0.0
C581 C 0.30054 0.14834 0.52458 0.0
C582 C 0.29298 0.17369 0.4929 0.0
C583 C 0.32045 0.16394 0.46378 0.0
N584 N 0.33084 0.12518 0.51416 0.0
N585 N 0.34312 0.13505 0.47838 0.0
C586 C 0.28189 0.14867 0.56554 0.0
H587 H 0.24573 0.1268 0.55397 0.0
H588 H 0.28182 0.18426 0.58249 0.0
H589 H 0.30259 0.13484 0.59046 0.0
C590 C 0.3233 0.17949 0.42158 0.0
H591 H 0.2913 0.18825 0.40681 0.0
H592 H 0.35286 0.21058 0.4308 0.0
H593 H 0.32929 0.15207 0.39555 0.0
C594 C 0.69614 0.95148 0.44772 0.0
C595 C 0.52734 0.97481 0.40454 0.0
C596 C 0.36239 0.81558 0.54624 0.0
N597 N 0.38571 0.85829 0.5725 0.0
N598 N 0.35797 0.88514 0.57282 0.0
C599 C 0.31692 0.81549 0.5289 0.0
C600 C 0.3154 0.86053 0.54686 0.0
H601 H 0.41966 0.78706 0.54293 0.0
H602 H 0.37928 0.75952 0.56955 0.0
H603 H 0.36379 0.74894 0.50777 0.0
C604 C 0.38248 0.77536 0.54095 0.0
H605 H 0.28279 0.91559 0.55093 0.0
H606 H 0.24641 0.8603 0.51301 0.0
H607 H 0.25928 0.87022 0.57441 0.0
C608 C 0.2735 0.87773 0.54586 0.0
C609 C 0.64592 0.01917 0.30499 0.0
N610 N 0.62456 0.00786 0.33621 0.0
N611 N 0.63404 0.97076 0.34555 0.0
C612 C 0.66953 0.98656 0.29355 0.0
C613 C 0.66104 0.9563 0.32008 0.0
C614 C 0.64617 0.06168 0.28915 0.0
H615 H 0.61946 0.05274 0.25591 0.0
H616 H 0.68015 0.076 0.28362 0.0
H617 H 0.63809 0.08793 0.31468 0.0
C618 C 0.67627 0.91337 0.31946 0.0
H619 H 0.67429 0.89502 0.28364 0.0
H620 H 0.71271 0.92282 0.34014 0.0
H621 H 0.65468 0.89039 0.33447 0.0
C622 C 0.44279 0.94013 0.7022 0.0
C623 C 0.47199 0.90785 0.53601 0.0
Cu624 Cu 0.58858 0.8692 0.53188 0.0
Cu625 Cu 0.528 0.86573 0.59167 0.0
Cu626 Cu 0.35855 0.026 0.59868 0.0
Cu627 Cu 0.35995 0.0869 0.54037 0.0
Cu628 Cu 0.53044 0.09535 0.37443 0.0
Cu629 Cu 0.58791 0.03346 0.36851 0.0
Cu630 Cu 0.38583 0.10795 0.45878 0.0
Cu631 Cu 0.44716 0.11242 0.39905 0.0
Cu632 Cu 0.60742 0.94887 0.38746 0.0
Cu633 Cu 0.6092 0.89021 0.44854 0.0
Cu634 Cu 0.44354 0.8836 0.61271 0.0
Cu635 Cu 0.38219 0.94236 0.61561 0.0
H636 H 0.48403 0.76909 0.49606 0.0
H637 H 0.52112 0.7684 0.54973 0.0
H638 H 0.54383 0.77063 0.50064 0.0
H639 H 0.58271 0.96091 0.54991 0.0
H640 H 0.55342 0.96618 0.4951 0.0
H641 H 0.61549 0.97619 0.51088 0.0
H642 H 0.25862 0.01664 0.49488 0.0
H643 H 0.26405 0.04832 0.55334 0.0
H644 H 0.25921 0.98717 0.53958 0.0
H645 H 0.45113 0.04864 0.59347 0.0
H646 H 0.46419 -0.00532 0.57492 0.0
H647 H 0.46436 0.01638 0.63439 0.0
H648 H 0.52457 -0.00242 0.2687 0.0
H649 H 0.54555 0.05887 0.27632 0.0
H650 H 0.4855 0.0336 0.27141 0.0
H651 H 0.51929 0.12352 0.48086 0.0
H652 H 0.54956 0.08138 0.46428 0.0
H653 H 0.49416 0.06308 0.47489 0.0
H654 H 0.48758 0.21271 0.47976 0.0
H655 H 0.43544 0.2087 0.4372 0.0
H656 H 0.43372 0.20827 0.49527 0.0
H657 H 0.40492 0.02184 0.45147 0.0
H658 H 0.43857 0.02782 0.50887 0.0
H659 H 0.3765 0.00449 0.49284 0.0
H660 H 0.71201 0.94723 0.48176 0.0
H661 H 0.70268 0.92622 0.42016 0.0
H662 H 0.71149 0.98697 0.4464 0.0
H663 H 0.50391 0.97396 0.37154 0.0
H664 H 0.52155 0.93935 0.40851 0.0
H665 H 0.51983 -0.00293 0.43365 0.0
H666 H 0.44361 0.97575 0.71996 0.0
H667 H 0.41424 0.91523 0.70769 0.0
H668 H 0.476 0.93323 0.71645 0.0
H669 H 0.43632 0.91133 0.53015 0.0
H670 H 0.49477 0.93897 0.53226 0.0
H671 H 0.47228 0.87685 0.51013 0.0
O672 O 0.53136 0.82941 0.53336 0.0
O673 O 0.57711 0.90946 0.49355 0.0
O674 O 0.32037 0.02918 0.54137 0.0
O675 O 0.40155 -0.00932 0.58749 0.0
O676 O 0.5313 0.03939 0.33168 0.0
O677 O 0.49372 0.08141 0.41551 0.0
O678 O 0.44058 0.15003 0.45513 0.0
O679 O 0.40069 0.07359 0.50251 0.0
O680 O 0.64961 0.94436 0.44166 0.0
O681 O 0.5723 -0.00867 0.40445 0.0
O682 O 0.43636 0.93566 0.65601 0.0
O683 O 0.48692 0.90347 0.57956 0.0
C684 C 0.65956 0.42064 0.12684 0.0
C685 C 0.65903 0.43722 0.17233 0.0
C686 C 0.61277 0.42413 0.17199 0.0
N687 N 0.61605 0.3989 0.1019 0.0
N688 N 0.58814 0.40101 0.12854 0.0
C689 C 0.70025 0.42468 0.10737 0.0
H690 H 0.71222 0.39312 0.10629 0.0
H691 H 0.729 0.45506 0.12898 0.0
H692 H 0.69017 0.42729 0.0715 0.0
C693 C 0.59323 0.42913 0.21262 0.0
H694 H 0.55505 0.42061 0.2013 0.0
H695 H 0.6073 0.46482 0.23554 0.0
H696 H 0.60349 0.40546 0.23275 0.0
C697 C 0.45605 0.66559 0.82341 0.0
C698 C 0.51788 0.64844 0.80724 0.0
C699 C 0.48618 0.67306 0.79635 0.0
N700 N 0.4698 0.63825 0.84868 0.0
N701 N 0.5062 0.62754 0.83855 0.0
H702 H 0.42313 0.71789 0.84353 0.0
H703 H 0.39531 0.67943 0.78698 0.0
H704 H 0.39006 0.66007 0.83773 0.0
C705 C 0.4134 0.68138 0.8228 0.0
H706 H 0.57443 0.68013 0.78374 0.0
H707 H 0.55012 0.61911 0.7579 0.0
H708 H 0.58608 0.63921 0.81617 0.0
C709 C 0.55981 0.64693 0.79054 0.0
C710 C 0.52134 0.2785 0.03562 0.0
C711 C 0.58457 0.45116 0.02428 0.0
C712 C 0.42113 0.61659 0.16337 0.0
N713 N 0.39811 0.59194 0.12004 0.0
N714 N 0.39914 0.61885 0.09246 0.0
C715 C 0.43741 0.66215 0.16296 0.0
C716 C 0.42238 0.66222 0.11715 0.0
H717 H 0.42508 0.56165 0.19497 0.0
H718 H 0.38987 0.59705 0.21404 0.0
H719 H 0.45161 0.61917 0.23417 0.0
C720 C 0.42253 0.59767 0.20419 0.0
H721 H 0.42651 0.69168 0.06068 0.0
H722 H 0.46076 0.72926 0.11719 0.0
H723 H 0.39901 0.71843 0.10084 0.0
C724 C 0.42783 0.7028 0.09774 0.0
C725 C 0.66238 0.31982 0.96325 0.0
C726 C 0.65014 0.30496 0.0272 0.0
N727 N 0.63445 0.34393 0.97808 0.0
N728 N 0.62662 0.33455 0.01577 0.0
C729 C 0.67353 0.29464 -0.0058 0.0
H730 H 0.71021 0.34156 0.92613 0.0
H731 H 0.67567 0.28287 0.90217 0.0
H732 H 0.65049 0.33003 0.89547 0.0
C733 C 0.67516 0.31835 0.91896 0.0
C734 C 0.65259 0.28945 0.07009 0.0
H735 H 0.68899 0.29254 0.0874 0.0
H736 H 0.63314 0.25256 0.06082 0.0
H737 H 0.63758 0.31015 0.09395 0.0
C738 C 0.27726 0.52509 0.02587 0.0
C739 C 0.44829 0.51129 0.08653 0.0
C740 C 0.61692 0.65829 0.92523 0.0
N741 N 0.59085 0.61522 0.90291 0.0
C742 C 0.66212 0.65641 0.94052 0.0
N743 N 0.6165 0.5864 0.90381 0.0
C744 C 0.66041 0.6099 0.92608 0.0
H745 H 0.56156 0.69075 0.9215 0.0
H746 H 0.60873 0.71651 0.90102 0.0
H747 H 0.61597 0.72584 0.96186 0.0
C748 C 0.59961 0.70024 0.92779 0.0
H749 H 0.68731 0.553 0.93538 0.0
C750 C 0.69953 0.58835 0.93204 0.0
H751 H 0.71254 0.58549 0.90095 0.0
H752 H 0.72817 0.60965 0.96263 0.0
C753 C 0.31408 0.45585 0.16645 0.0
C754 C 0.30048 0.51938 0.15175 0.0
N755 N 0.34079 0.47042 0.1405 0.0
N756 N 0.332 0.50774 0.13103 0.0
C757 C 0.28783 0.48664 0.17457 0.0
H758 H 0.33174 0.42516 0.22097 0.0
C759 C 0.31434 0.41409 0.18347 0.0
H760 H 0.3329 0.3925 0.1651 0.0
H761 H 0.27862 0.39344 0.17852 0.0
H762 H 0.28475 0.58074 0.18405 0.0
H763 H 0.24549 0.54812 0.12926 0.0
C764 C 0.28241 0.5602 0.14895 0.0
H765 H 0.30219 0.58219 0.13174 0.0
C766 C 0.52245 0.52139 0.78365 0.0
C767 C 0.51247 0.58711 0.95602 0.0
C768 C 0.31758 0.54883 0.86529 0.0
N769 N 0.36054 0.57299 0.89021 0.0
C770 C 0.31877 0.53225 0.82001 0.0
C771 C 0.36479 0.54789 0.8205 0.0
N772 N 0.38871 0.57213 0.86378 0.0
C773 C 0.276 0.54708 0.88319 0.0
H774 H 0.28587 0.55317 0.92117 0.0
H775 H 0.26032 0.57447 0.87481 0.0
H776 H 0.24985 0.51335 0.86681 0.0
C777 C 0.38526 0.54214 0.78055 0.0
H778 H 0.42094 0.53944 0.79201 0.0
H779 H 0.36401 0.51118 0.75226 0.0
H780 H 0.38705 0.57304 0.76744 0.0
C781 C 0.51446 0.30987 0.1644 0.0
C782 C 0.48209 0.30094 0.18881 0.0
C783 C 0.45049 0.3251 0.17644 0.0
N784 N 0.50196 0.33764 0.1391 0.0
N785 N 0.46436 0.34741 0.14691 0.0
H786 H 0.54899 0.25654 0.16644 0.0
H787 H 0.58398 0.31391 0.19744 0.0
H788 H 0.56971 0.29714 0.13551 0.0
C789 C 0.55664 0.29314 0.16564 0.0
C790 C 0.40905 0.32817 0.19343 0.0
H791 H 0.38879 0.29329 0.19199 0.0
H792 H 0.42042 0.34913 0.22995 0.0
H793 H 0.38711 0.3444 0.1724 0.0
C794 C 0.44812 0.69909 0.95157 0.0
C795 C 0.40142 0.53092 0.97505 0.0
C796 C 0.53729 0.35852 0.82886 0.0
C797 C 0.52094 0.3136 0.83106 0.0
C798 C 0.53884 0.31478 0.87685 0.0
N799 N 0.56337 0.38394 0.87101 0.0
N800 N 0.56404 0.35809 0.89965 0.0
C801 C 0.53368 0.37537 0.78666 0.0
H802 H 0.54174 0.41357 0.79617 0.0
H803 H 0.55874 0.36454 0.76861 0.0
H804 H 0.49865 0.36017 0.76266 0.0
C805 C 0.53483 0.27528 0.89788 0.0
H806 H 0.53408 0.28728 0.93423 0.0
H807 H 0.50346 0.24687 0.87803 0.0
H808 H 0.56559 0.26209 0.89796 0.0
C809 C 0.30553 0.65421 0.02019 0.0
C810 C 0.29657 0.67956 0.98882 0.0
C811 C 0.32212 0.66921 0.95782 0.0
N812 N 0.33462 0.63038 0.0078 0.0
N813 N 0.34498 0.63984 0.97107 0.0
C814 C 0.28939 0.65521 0.06269 0.0
H815 H 0.25322 0.63364 0.05292 0.0
H816 H 0.29018 0.691 0.07998 0.0
H817 H 0.31122 0.64145 0.08671 0.0
C818 C 0.32279 0.68458 0.91517 0.0
H819 H 0.28871 0.68908 0.89959 0.0
H820 H 0.34898 0.71825 0.92421 0.0
H821 H 0.33221 0.65925 0.88992 0.0
C822 C 0.69195 0.4465 0.95539 0.0
C823 C 0.52616 0.47455 0.91271 0.0
C824 C 0.36143 0.3187 0.05252 0.0
N825 N 0.38509 0.36177 0.07765 0.0
N826 N 0.35803 0.38923 0.07574 0.0
C827 C 0.31636 0.31915 0.0337 0.0
C828 C 0.31556 0.36473 0.04966 0.0
H829 H 0.38033 0.26861 0.08496 0.0
H830 H 0.35917 0.24743 0.02325 0.0
H831 H 0.41646 0.2868 0.05014 0.0
C832 C 0.38024 0.27781 0.05214 0.0
H833 H 0.28618 0.42119 0.04513 0.0
H834 H 0.2496 0.36491 0.00907 0.0
H835 H 0.25769 0.38018 0.07053 0.0
C836 C 0.27484 0.38394 0.04284 0.0
C837 C 0.64676 0.50826 0.8103 0.0
N838 N 0.62335 0.49815 0.84041 0.0
N839 N 0.63107 0.46095 0.85108 0.0
C840 C 0.66999 0.4749 0.80098 0.0
C841 C 0.65891 0.44516 0.8274 0.0
C842 C 0.64964 0.55059 0.79371 0.0
H843 H 0.62855 0.54084 0.75741 0.0
H844 H 0.68584 0.56651 0.7947 0.0
H845 H 0.63654 0.57587 0.81509 0.0
C846 C 0.67236 0.40154 0.82827 0.0
H847 H 0.675 0.38427 0.7938 0.0
H848 H 0.70656 0.40973 0.85328 0.0
H849 H 0.64688 0.37804 0.83921 0.0
C850 C 0.44431 0.45207 0.20351 0.0
C851 C 0.47221 0.40301 0.0381 0.0
Cu852 Cu 0.58878 0.36457 0.04179 0.0
Cu853 Cu 0.5278 0.36622 0.1004 0.0
Cu854 Cu 0.36304 0.53195 0.09307 0.0
Cu855 Cu 0.3639 0.59133 0.03237 0.0
Cu856 Cu 0.53027 0.58932 0.86923 0.0
Cu857 Cu 0.58653 0.52613 0.87026 0.0
Cu858 Cu 0.38588 0.6115 0.94902 0.0
Cu859 Cu 0.44738 0.61138 0.89037 0.0
Cu860 Cu 0.60341 0.44231 0.89391 0.0
Cu861 Cu 0.60567 0.38498 0.95696 0.0
Cu862 Cu 0.44316 0.38789 0.11745 0.0
Cu863 Cu 0.38325 0.44834 0.11446 0.0
H864 H 0.4973 0.26671 0.05545 0.0
H865 H 0.55328 0.26797 0.04582 0.0
H866 H 0.50468 0.26254 -0.00171 0.0
H867 H 0.57811 0.45626 0.05877 0.0
H868 H 0.5615 0.46585 0.00275 0.0
H869 H 0.62105 0.46898 0.02832 0.0
H870 H 0.26273 0.5189 0.98829 0.0
H871 H 0.26733 0.55445 0.04495 0.0
H872 H 0.2635 0.49376 0.03614 0.0
H873 H 0.45409 0.54759 0.08509 0.0
H874 H 0.45919 0.49176 0.05826 0.0
H875 H 0.46905 0.51045 0.12022 0.0
H876 H 0.51994 0.4845 0.76903 0.0
H877 H 0.55087 0.54327 0.77486 0.0
H878 H 0.48959 0.5286 0.76894 0.0
H879 H 0.51585 0.62323 0.97459 0.0
H880 H 0.54727 0.58147 0.96069 0.0
H881 H 0.49154 0.56306 0.97031 0.0
H882 H 0.48468 0.71518 0.95406 0.0
H883 H 0.42541 0.70605 0.92249 0.0
H884 H 0.44017 0.71385 0.98411 0.0
H885 H 0.4055 0.52494 0.93959 0.0
H886 H 0.43066 0.52391 -0.00258 0.0
H887 H 0.36852 0.5073 0.97438 0.0
H888 H 0.70826 0.4477 0.99146 0.0
H889 H 0.69919 0.41841 0.93145 0.0
H890 H 0.70624 0.47988 0.94887 0.0
H891 H 0.5018 0.47839 0.88268 0.0
H892 H 0.51732 0.438 0.91344 0.0
H893 H 0.52324 0.49631 0.94496 0.0
H894 H 0.44735 0.48902 0.21854 0.0
H895 H 0.41504 0.43038 0.21134 0.0
H896 H 0.47664 0.4441 0.21865 0.0
H897 H 0.43613 0.40528 0.03059 0.0
H898 H 0.49413 0.43303 0.03169 0.0
H899 H 0.47361 0.37065 0.01507 0.0
O900 O 0.53167 0.32556 0.04468 0.0
O901 O 0.57619 0.40495 0.00387 0.0
O902 O 0.32434 0.53486 0.03593 0.0
O903 O 0.40242 0.49236 0.08155 0.0
O904 O 0.53087 0.53092 0.83058 0.0
O905 O 0.49198 0.57931 0.91 0.0
O906 O 0.44103 0.65246 0.94449 0.0
O907 O 0.40102 0.57582 0.99132 0.0
O908 O 0.6453 0.43871 0.9487 0.0
O909 O 0.57042 0.48748 0.90923 0.0
O910 O 0.43719 0.44333 0.15675 0.0
O911 O 0.48718 0.40309 0.08327 0.0
C912 C 0.93659 0.23089 0.21499 0.0
C913 C 0.95861 0.19651 0.20287 0.0
C914 C 0.95806 0.26861 0.25388 0.0
C915 C 0.00212 0.27297 0.28147 0.0
H916 H 0.90247 0.22836 0.19451 0.0
H917 H 0.94013 0.2945 0.26248 0.0
S918 S 0.07534 0.19385 0.26201 0.0
N919 N 0.02731 0.16998 0.21987 0.0
N920 N 0.06799 0.24129 0.29282 0.0
C921 C 0.02466 0.23911 0.26931 0.0
C922 C 0.00277 0.2007 0.2299 0.0
C923 C 0.77379 0.9834 0.24882 0.0
C924 C 0.75741 0.9824 0.20249 0.0
C925 C 0.74496 0.98477 0.27816 0.0
C926 C 0.69902 0.98526 0.26197 0.0
H927 H 0.80931 0.98394 0.26266 0.0
H928 H 0.75887 0.98614 0.31389 0.0
S929 S 0.63878 0.97935 0.14268 0.0
N930 N 0.692 0.97948 0.14104 0.0
N931 N 0.63764 0.98219 0.19647 0.0
C932 C 0.68205 0.98366 0.21562 0.0
C933 C 0.71137 0.98218 0.18572 0.0
C934 C 0.98357 0.7227 0.20337 0.0
C935 C 0.98452 0.76915 0.21937 0.0
C936 C 0.98266 0.69396 0.23268 0.0
C937 C 0.98283 0.71097 0.27877 0.0
H938 H 0.98302 0.70844 0.16788 0.0
H939 H 0.98145 0.65814 0.21913 0.0
S940 S -0.01095 0.83101 0.33801 0.0
N941 N -0.01202 0.83159 0.28441 0.0
N942 N -0.0135 0.77743 0.33977 0.0
C943 C 0.9843 0.75746 0.29528 0.0
C944 C -0.01487 0.78667 0.26543 0.0
C945 C 0.24413 0.02536 0.27975 0.0
C946 C 0.28007 0.00467 0.28966 0.0
C947 C 0.20561 0.00335 0.24187 0.0
C948 C 0.20195 0.96002 0.21302 0.0
H949 H 0.24612 0.05899 0.3011 0.0
H950 H 0.17887 0.02059 0.23469 0.0
S951 S 0.28524 0.89014 0.22653 0.0
N952 N 0.30881 0.93785 0.26928 0.0
N953 N 0.23612 0.89618 0.19808 0.0
C954 C 0.23733 0.93871 0.22303 0.0
C955 C 0.27655 0.96117 0.26146 0.0
C956 C 0.01633 0.76936 0.75606 0.0
C957 C -0.00414 0.77983 0.79215 0.0
C958 C -0.00611 0.73159 0.71748 0.0
C959 C 0.95034 0.70337 0.71389 0.0
H960 H 0.05008 0.79025 0.7579 0.0
H961 H 0.01096 0.72406 0.6906 0.0
S962 S 0.88121 0.71798 0.79796 0.0
N963 N 0.92921 0.76035 0.82137 0.0
N964 N 0.88677 0.6892 0.74858 0.0
C965 C 0.92937 0.71371 0.74957 0.0
C966 C 0.95225 0.7521 0.78885 0.0
C967 C 0.23883 0.97062 0.78055 0.0
C968 C 0.19285 0.97088 0.76403 0.0
C969 C 0.26795 0.96955 0.75147 0.0
C970 C 0.25178 0.96871 0.70516 0.0
H971 H 0.25276 0.97276 0.81649 0.0
H972 H 0.30367 0.97096 0.76565 0.0
S973 S 0.13273 0.96307 0.64413 0.0
N974 N 0.13133 0.96609 0.69788 0.0
N975 N 0.18625 0.96408 0.64301 0.0
C976 C 0.20546 0.96715 0.68783 0.0
C977 C 0.17585 0.96825 0.71741 0.0
C978 C 0.97969 0.27782 0.74788 0.0
C979 C 0.98024 0.2614 0.70193 0.0
C980 C 0.97877 0.24873 0.77686 0.0
C981 C 0.97837 0.20246 0.76062 0.0
H982 H 0.9809 0.31359 0.76175 0.0
H983 H 0.97942 0.26276 0.81241 0.0
S984 S 0.97499 0.14193 0.64189 0.0
N985 N 0.97734 0.19561 0.64061 0.0
N986 N 0.97544 0.14066 0.69521 0.0
C987 C 0.97785 0.18539 0.71449 0.0
C988 C 0.97885 0.21501 0.68503 0.0
C989 C 0.70297 0.00272 0.73254 0.0
C990 C 0.69917 0.95957 0.70332 0.0
C991 C 0.74162 0.02442 0.7703 0.0
C992 C 0.77744 0.00349 0.77987 0.0
H993 H 0.67624 0.02005 0.72576 0.0
H994 H 0.74377 0.05801 0.79184 0.0
S995 S 0.78217 0.88925 0.71534 0.0
N996 N 0.73313 0.89575 0.68723 0.0
N997 N 0.80584 0.93653 0.75861 0.0
C998 C 0.77373 0.9601 0.75125 0.0
C999 C 0.73447 0.93808 0.71277 0.0
C1000 C 0.23911 0.26869 0.0265 0.0
C1001 C 0.27678 0.2791 0.00815 0.0
C1002 C 0.20141 0.2303 0.00312 0.0
C1003 C 0.20038 0.2013 0.9608 0.0
H1004 H 0.23907 0.29002 0.05937 0.0
H1005 H 0.17315 0.22296 0.01849 0.0
S1006 S 0.28917 0.21566 0.897 0.0
N1007 N 0.31003 0.25893 0.9445 0.0
N1008 N 0.23904 0.18648 0.90051 0.0
C1009 C 0.23761 0.21161 0.94192 0.0
C1010 C 0.27591 0.25071 0.96564 0.0
C1011 C 0.22066 0.69445 0.98916 0.0
C1012 C 0.26668 0.71073 0.98885 0.0
C1013 C 0.1917 0.72365 0.98988 0.0
C1014 C 0.20802 0.76985 0.99022 0.0
H1015 H 0.2069 0.65886 0.98851 0.0
H1016 H 0.15627 0.70998 0.98986 0.0
S1017 S 0.32669 0.82986 -0.00673 0.0
N1018 N 0.32801 0.77628 0.99143 0.0
N1019 N 0.27328 0.83124 -0.00757 0.0
C1020 C 0.254 0.78661 0.99024 0.0
C1021 C 0.2835 0.75695 0.98964 0.0
C1022 C 0.68764 0.218 0.99195 0.0
C1023 C 0.70423 0.26436 -0.00704 0.0
C1024 C 0.71639 0.18857 0.99056 0.0
C1025 C 0.76241 0.20482 0.99019 0.0
H1026 H 0.65211 0.20433 0.99163 0.0
H1027 H 0.70243 0.1528 0.98918 0.0
S1028 S 0.82331 0.32453 -0.00259 0.0
N1029 N 0.76994 0.32602 -0.00334 0.0
N1030 N 0.82422 0.27064 -0.00568 0.0
C1031 C 0.7796 0.25131 -0.00782 0.0
C1032 C 0.75036 0.28119 -0.0065 0.0
C1033 C 0.7434 0.763 0.0293 0.0
C1034 C 0.77993 0.77347 0.00946 0.0
C1035 C 0.70548 0.72459 0.00689 0.0
C1036 C 0.70303 0.6957 0.96399 0.0
H1037 H 0.74433 0.78444 0.0625 0.0
H1038 H 0.678 0.71731 0.02327 0.0
S1039 S 0.78878 0.70977 0.89673 0.0
N1040 N 0.81088 0.75309 0.94412 0.0
N1041 N 0.73936 0.68068 0.90183 0.0
C1042 C 0.73926 0.70587 0.94375 0.0
C1043 C 0.77784 0.74495 0.96657 0.0
C1044 C 0.68524 0.4728 0.72492 0.0
C1045 C 0.70112 0.4731 0.77111 0.0
C1046 C 0.71494 0.47359 0.69643 0.0
C1047 C 0.76127 0.47475 0.71344 0.0
H1048 H 0.64971 0.47207 0.71082 0.0
H1049 H 0.70167 0.47343 0.66096 0.0
S1050 S 0.82009 0.47905 0.83268 0.0
N1051 N 0.76616 0.4765 0.83317 0.0
N1052 N 0.82217 0.47795 0.77943 0.0
C1053 C 0.77751 0.47499 0.7595 0.0
C1054 C 0.7473 0.47419 0.78849 0.0
C1055 C 0.21108 0.44445 0.73939 0.0
C1056 C 0.20092 0.46422 0.70287 0.0
C1057 C 0.24962 0.46662 0.77721 0.0
C1058 C 0.27888 0.50925 0.7796 0.0
H1059 H 0.18954 0.41131 0.73834 0.0
H1060 H 0.25683 0.45017 0.80454 0.0
S1061 S 0.26509 0.57676 0.69437 0.0
N1062 N 0.22174 0.52946 0.67215 0.0
N1063 N 0.29395 0.57156 0.74369 0.0
C1064 C 0.26867 0.52967 0.74364 0.0
C1065 C 0.22963 0.50701 0.70509 0.0
C1066 C 0.23394 0.51947 0.27117 0.0
C1067 C 0.19295 0.48377 0.25818 0.0
C1068 C 0.2645 0.52035 0.24355 0.0
C1069 C 0.25472 0.4856 0.2023 0.0
H1070 H 0.24277 0.5463 0.30326 0.0
H1071 H 0.29628 0.54789 0.25481 0.0
S1072 S 0.14991 0.38727 0.15133 0.0
N1073 N 0.14265 0.41464 0.20043 0.0
N1074 N 0.20024 0.41643 0.14819 0.0
C1075 C 0.21334 0.45042 0.18841 0.0
C1076 C 0.18231 0.44948 0.21654 0.0
C1077 C 0.70296 0.50384 0.24031 0.0
C1078 C 0.69909 0.45985 0.21267 0.0
C1079 C 0.74129 0.52632 0.27829 0.0
C1080 C 0.77681 0.50544 0.28949 0.0
H1081 H 0.67656 0.52123 0.23211 0.0
H1082 H 0.74345 0.56044 0.29868 0.0
S1083 S 0.78117 0.38926 0.22994 0.0
N1084 N 0.73253 0.39522 0.20032 0.0
N1085 N 0.80485 0.43774 0.27171 0.0
C1086 C 0.77304 0.46127 0.26253 0.0
C1087 C 0.73403 0.43836 0.224 0.0
C1088 C 0.26793 0.73887 0.52571 0.0
C1089 C 0.27753 0.77479 0.50495 0.0
C1090 C 0.22994 0.70031 0.50411 0.0
C1091 C 0.20058 0.69675 0.46126 0.0
H1092 H 0.28941 0.74101 0.55921 0.0
H1093 H 0.2229 0.67364 0.52143 0.0
S1094 S 0.2133 0.77963 0.39108 0.0
N1095 N 0.25662 0.80321 0.43819 0.0
N1096 N 0.18489 0.73066 0.39756 0.0
C1097 C 0.21041 0.73192 0.43973 0.0
C1098 C 0.24907 0.77106 0.46165 0.0
C1099 C 0.18769 0.21825 0.48707 0.0
C1100 C 0.20485 0.26419 0.48698 0.0
C1101 C 0.21657 0.18902 0.48916 0.0
C1102 C 0.26334 0.20506 0.49129 0.0
H1103 H 0.15166 0.20479 0.48513 0.0
H1104 H 0.20216 0.15358 0.48856 0.0
S1105 S 0.32561 0.32364 0.49628 0.0
N1106 N 0.27169 0.32521 0.49193 0.0
N1107 N 0.3262 0.27019 0.49602 0.0
C1108 C 0.28102 0.2511 0.49194 0.0
C1109 C 0.25163 0.28077 0.48972 0.0
C1110 C 0.72298 0.69829 0.45667 0.0
C1111 C 0.76252 0.7087 0.49352 0.0
C1112 C 0.69501 0.72844 0.45496 0.0
C1113 C 0.706 0.76962 0.49009 0.0
H1114 H 0.71341 0.66645 0.42936 0.0
H1115 H 0.66425 0.71916 0.42653 0.0
S1116 S 0.8076 0.81392 0.592 0.0
N1117 N 0.81278 0.76388 0.56436 0.0
N1118 N 0.75969 0.8204 0.56147 0.0
C1119 C 0.74576 0.78069 0.5267 0.0
C1120 C 0.77427 0.75017 0.52834 0.0
C1121 C 0.7334 0.20684 0.50476 0.0
C1122 C 0.70353 0.20321 0.46216 0.0
C1123 C 0.77128 0.24554 0.52612 0.0
C1124 C 0.78027 0.28161 0.50544 0.0
H1125 H 0.7269 0.18004 0.52203 0.0
H1126 H 0.79323 0.24763 0.55937 0.0
S1127 S 0.71426 0.28672 0.39241 0.0
N1128 N 0.68656 0.23744 0.39887 0.0
N1129 N 0.75798 0.31034 0.43917 0.0
C1130 C 0.75116 0.27797 0.46249 0.0
C1131 C 0.71264 0.23863 0.44076 0.0
C1132 C 0.45377 0.26972 0.76374 0.0
C1133 C 0.49723 0.27272 0.79172 0.0
C1134 C 0.43135 0.23189 0.72515 0.0
C1135 C 0.45175 0.19598 0.7137 0.0
H1136 H 0.43702 0.29676 0.77184 0.0
H1137 H 0.39777 0.2305 0.70434 0.0
S1138 S 0.56645 0.18928 0.77399 0.0
N1139 N 0.56087 0.23803 0.80409 0.0
N1140 N 0.51838 0.16653 0.73174 0.0
C1141 C 0.49531 0.19878 0.74112 0.0
C1142 C 0.51817 0.23731 0.78022 0.0
C1143 C 0.48475 0.77672 0.75048 0.0
C1144 C 0.48471 0.75983 0.70443 0.0
C1145 C 0.48513 0.74823 0.78007 0.0
C1146 C 0.48542 0.70209 0.76437 0.0
H1147 H 0.48509 0.81231 0.76385 0.0
H1148 H 0.48587 0.76257 0.81559 0.0
S1149 S 0.48156 0.64061 0.64579 0.0
N1150 N 0.48261 0.69386 0.64375 0.0
N1151 N 0.48297 0.64 0.69944 0.0
C1152 C 0.48472 0.68464 0.71825 0.0
C1153 C 0.48446 0.71368 0.68818 0.0
C1154 C 0.44016 0.73763 0.21408 0.0
C1155 C 0.46124 0.70221 0.20296 0.0
C1156 C 0.46196 0.77559 0.25267 0.0
C1157 C 0.50545 0.77916 0.28095 0.0
H1158 H 0.40641 0.73563 0.19316 0.0
H1159 H 0.44462 0.80214 0.26066 0.0
S1160 S 0.57638 0.69726 0.26405 0.0
N1161 N 0.5286 0.67394 0.2215 0.0
N1162 N 0.56992 0.74567 0.29391 0.0
C1163 C 0.52716 0.74435 0.26967 0.0
C1164 C 0.50493 0.70571 0.23056 0.0
C1165 C 0.44696 0.20408 0.24144 0.0
C1166 C 0.48278 0.21609 0.28211 0.0
C1167 C 0.44657 0.23226 0.21151 0.0
C1168 C 0.48205 0.27296 0.22156 0.0
H1169 H 0.41977 0.17225 0.23224 0.0
H1170 H 0.41899 0.2217 0.17988 0.0
S1171 S 0.58125 0.3212 0.32562 0.0
N1172 N 0.55278 0.27246 0.33249 0.0
N1173 N 0.55228 0.32533 0.2758 0.0
C1174 C 0.51742 0.28581 0.26259 0.0
C1175 C 0.51771 0.2573 0.29309 0.0
loop_
_geom_bond_atom_site_label_1
_geom_bond_atom_site_label_2
_geom_bond_distance
_geom_bond_site_symmetry_2
_ccdc_geom_bond_type
C0 C1 1.388 . S
C0 N3 1.338 . S
C0 C5 1.503 . S
C1 C0 1.388 . S
C1 C2 1.396 . S
C2 C1 1.396 . S
C2 N4 1.348 . S
C2 C9 1.504 . S
N3 C0 1.338 . S
N3 N4 1.361 . S
N3 Cu168 1.924 . S
N4 C2 1.348 . S
N4 N3 1.361 . S
N4 Cu169 1.964 . S
C5 C0 1.503 . S
C5 H6 0.979 . S
C5 H7 0.979 . S
C5 H8 0.979 . S
H6 C5 0.979 . S
H7 C5 0.979 . S
H8 C5 0.979 . S
C9 C2 1.504 . S
C9 H10 0.981 . S
C9 H11 0.980 1_565 S
C9 H12 0.979 . S
H10 C9 0.981 . S
H11 C9 0.980 1_545 S
H12 C9 0.979 . S
C13 C15 1.402 . S
C13 N16 1.356 . S
C13 C21 1.481 . S
C14 C15 1.400 1_455 S
C14 N17 1.329 . S
C14 C25 1.503 . S
C15 C13 1.402 . S
C15 C14 1.400 1_655 S
N16 C13 1.356 . S
N16 N17 1.343 1_655 S
N16 Cu175 1.941 . S
N17 C14 1.329 . S
N17 N16 1.343 1_455 S
N17 Cu172 1.937 . S
H18 C21 0.980 . S
H19 C21 0.980 . S
H20 C21 0.980 . S
C21 C13 1.481 . S
C21 H18 0.980 . S
C21 H19 0.980 . S
C21 H20 0.980 . S
H22 C25 0.978 . S
H23 C25 0.978 . S
H24 C25 0.983 . S
C25 C14 1.503 . S
C25 H22 0.978 . S
C25 H23 0.978 . S
C25 H24 0.983 . S
C26 H180 0.979 . S
C26 H181 0.981 . S
C26 H182 0.981 . S
C26 O216 1.438 . S
C27 H183 0.980 . S
C27 H184 0.979 . S
C27 H185 0.980 1_554 S
C27 O217 1.533 . S
C28 N29 1.338 . S
C28 C31 1.388 . S
C28 C36 1.503 . S
N29 C28 1.338 . S
N29 N30 1.361 . S
N29 Cu170 1.924 . S
N30 N29 1.361 . S
N30 C32 1.348 . S
N30 Cu171 1.964 . S
C31 C28 1.388 . S
C31 C32 1.396 . S
C32 N30 1.348 . S
C32 C31 1.396 . S
C32 C40 1.504 . S
H33 C36 0.979 . S
H34 C36 0.979 . S
H35 C36 0.979 . S
C36 C28 1.503 . S
C36 H33 0.979 . S
C36 H34 0.979 . S
C36 H35 0.979 . S
H37 C40 0.981 . S
H38 C40 0.980 1_455 S
H39 C40 0.979 . S
C40 C32 1.504 . S
C40 H37 0.981 . S
C40 H38 0.980 1_655 S
C40 H39 0.979 . S
C41 N43 1.356 . S
C41 C45 1.402 . S
C41 C49 1.481 . S
C42 N44 1.329 . S
C42 C45 1.400 1_554 S
C42 C50 1.503 . S
N43 C41 1.356 . S
N43 N44 1.343 1_556 S
N43 Cu177 1.941 . S
N44 C42 1.329 . S
N44 N43 1.343 1_554 S
N44 Cu168 1.937 . S
C45 C41 1.402 . S
C45 C42 1.400 1_556 S
H46 C49 0.980 . S
H47 C49 0.980 . S
H48 C49 0.980 . S
C49 C41 1.481 . S
C49 H46 0.980 . S
C49 H47 0.980 . S
C49 H48 0.980 . S
C50 C42 1.503 . S
C50 H51 0.978 . S
C50 H52 0.978 . S
C50 H53 0.983 . S
H51 C50 0.978 . S
H52 C50 0.978 . S
H53 C50 0.983 . S
C54 H186 0.979 . S
C54 H187 0.981 . S
C54 H188 0.981 . S
C54 O218 1.438 . S
C55 H189 0.980 . S
C55 H190 0.979 . S
C55 H191 0.980 1_545 S
C55 O219 1.533 . S
C56 N57 1.338 . S
C56 C58 1.388 . S
C56 C64 1.503 . S
N57 C56 1.338 . S
N57 N59 1.361 . S
N57 Cu172 1.924 . S
C58 C56 1.388 . S
C58 C60 1.396 . S
N59 N57 1.361 . S
N59 C60 1.348 . S
N59 Cu173 1.964 . S
C60 C58 1.396 . S
C60 N59 1.348 . S
C60 C66 1.504 . S
H61 C64 0.979 . S
H62 C64 0.979 . S
H63 C64 0.979 . S
C64 C56 1.503 . S
C64 H61 0.979 . S
C64 H62 0.979 . S
C64 H63 0.979 . S
H65 C66 0.981 . S
C66 C60 1.504 . S
C66 H65 0.981 . S
C66 H67 0.979 . S
C66 H68 0.980 1_556 S
H67 C66 0.979 . S
H68 C66 0.980 1_554 S
C69 N71 1.356 . S
C69 C73 1.402 . S
C69 C75 1.481 . S
C70 N72 1.329 . S
C70 C73 1.400 1_545 S
C70 C80 1.503 . S
N71 C69 1.356 . S
N71 N72 1.343 1_565 S
N71 Cu179 1.941 . S
N72 C70 1.329 . S
N72 N71 1.343 1_545 S
N72 Cu170 1.937 . S
C73 C69 1.402 . S
C73 C70 1.400 1_565 S
H74 C75 0.980 . S
C75 C69 1.481 . S
C75 H74 0.980 . S
C75 H76 0.980 . S
C75 H77 0.980 . S
H76 C75 0.980 . S
H77 C75 0.980 . S
H78 C80 0.978 . S
H79 C80 0.978 . S
C80 C70 1.503 . S
C80 H78 0.978 . S
C80 H79 0.978 . S
C80 H81 0.983 . S
H81 C80 0.983 . S
C82 H192 0.979 . S
C82 H193 0.981 . S
C82 H194 0.981 . S
C82 O220 1.438 . S
C83 H195 0.980 . S
C83 H196 0.979 . S
C83 H197 0.980 1_455 S
C83 O221 1.533 . S
C84 N85 1.338 . S
C84 C86 1.388 . S
C84 C89 1.503 . S
N85 C84 1.338 . S
N85 N88 1.361 . S
N85 Cu174 1.924 . S
C86 C84 1.388 . S
C86 C87 1.396 . S
C87 C86 1.396 . S
C87 N88 1.348 . S
C87 C93 1.504 . S
N88 N85 1.361 . S
N88 C87 1.348 . S
N88 Cu175 1.964 . S
C89 C84 1.503 . S
C89 H90 0.979 . S
C89 H91 0.979 . S
C89 H92 0.979 . S
H90 C89 0.979 . S
H91 C89 0.979 . S
H92 C89 0.979 . S
C93 C87 1.504 . S
C93 H94 0.981 . S
C93 H95 0.980 1_545 S
C93 H96 0.979 . S
H94 C93 0.981 . S
H95 C93 0.980 1_565 S
H96 C93 0.979 . S
C97 C98 1.402 . S
C97 N100 1.356 . S
C97 C105 1.481 . S
C98 C97 1.402 . S
C98 C99 1.400 1_455 S
C99 C98 1.400 1_655 S
C99 N101 1.328 . S
C99 C106 1.503 . S
N100 C97 1.356 . S
N100 N101 1.349 1_455 S
N100 Cu169 1.941 . S
N101 C99 1.328 . S
N101 N100 1.349 1_655 S
N101 Cu178 1.933 . S
H102 C105 0.980 . S
H103 C105 0.980 . S
H104 C105 0.980 . S
C105 C97 1.481 . S
C105 H102 0.980 . S
C105 H103 0.980 . S
C105 H104 0.980 . S
C106 C99 1.503 . S
C106 H107 0.978 . S
C106 H108 0.978 . S
C106 H109 0.983 . S
H107 C106 0.978 . S
H108 C106 0.978 . S
H109 C106 0.983 . S
C110 H198 0.979 . S
C110 H199 0.981 . S
C110 H200 0.981 . S
C110 O222 1.438 . S
C111 H201 0.980 . S
C111 H202 0.979 . S
C111 H203 0.980 1_556 S
C111 O223 1.533 . S
C112 C113 1.388 . S
C112 N115 1.338 . S
C112 C117 1.503 . S
C113 C112 1.388 . S
C113 C114 1.396 . S
C114 C113 1.396 . S
C114 N116 1.348 . S
C114 C121 1.504 . S
N115 C112 1.338 . S
N115 N116 1.361 . S
N115 Cu176 1.924 . S
N116 C114 1.348 . S
N116 N115 1.361 . S
N116 Cu177 1.964 . S
C117 C112 1.503 . S
C117 H118 0.979 . S
C117 H119 0.979 . S
C117 H120 0.979 . S
H118 C117 0.979 . S
H119 C117 0.979 . S
H120 C117 0.979 . S
C121 C114 1.504 . S
C121 H122 0.981 . S
C121 H123 0.980 1_455 S
C121 H124 0.979 . S
H122 C121 0.981 . S
H123 C121 0.980 1_655 S
H124 C121 0.979 . S
C125 C126 1.402 . S
C125 N128 1.356 . S
C125 C130 1.481 . S
C126 C125 1.402 . S
C126 C127 1.400 1_554 S
C127 C126 1.400 1_556 S
C127 N129 1.328 . S
C127 C134 1.503 . S
N128 C125 1.356 . S
N128 N129 1.349 1_554 S
N128 Cu171 1.941 . S
N129 C127 1.328 . S
N129 N128 1.349 1_556 S
N129 Cu174 1.933 . S
C130 C125 1.481 . S
C130 H131 0.980 . S
C130 H132 0.980 . S
C130 H133 0.980 . S
H131 C130 0.980 . S
H132 C130 0.980 . S
H133 C130 0.980 . S
C134 C127 1.503 . S
C134 H135 0.978 . S
C134 H136 0.978 . S
C134 H137 0.983 . S
H135 C134 0.978 . S
H136 C134 0.978 . S
H137 C134 0.983 . S
C138 H204 0.979 . S
C138 H205 0.981 . S
C138 H206 0.981 . S
C138 O224 1.438 . S
C139 H207 0.980 . S
C139 H208 0.979 . S
C139 H209 0.980 1_565 S
C139 O225 1.533 . S
C140 N141 1.338 . S
C140 C143 1.388 . S
C140 C148 1.503 . S
N141 C140 1.338 . S
N141 N142 1.361 . S
N141 Cu178 1.924 . S
N142 N141 1.361 . S
N142 C144 1.348 . S
N142 Cu179 1.964 . S
C143 C140 1.388 . S
C143 C144 1.396 . S
C144 N142 1.348 . S
C144 C143 1.396 . S
C144 C152 1.504 . S
H145 C148 0.979 . S
H146 C148 0.979 . S
H147 C148 0.979 . S
C148 C140 1.503 . S
C148 H145 0.979 . S
C148 H146 0.979 . S
C148 H147 0.979 . S
H149 C152 0.981 . S
H150 C152 0.980 1_556 S
H151 C152 0.979 . S
C152 C144 1.504 . S
C152 H149 0.981 . S
C152 H150 0.980 1_554 S
C152 H151 0.979 . S
C153 N154 1.356 . S
C153 C156 1.402 . S
C153 C158 1.481 . S
N154 C153 1.356 . S
N154 N155 1.349 1_545 S
N154 Cu173 1.941 . S
N155 N154 1.349 1_565 S
N155 C157 1.328 . S
N155 Cu176 1.933 . S
C156 C153 1.402 . S
C156 C157 1.400 1_545 S
C157 N155 1.328 . S
C157 C156 1.400 1_565 S
C157 C162 1.503 . S
C158 C153 1.481 . S
C158 H159 0.980 . S
C158 H160 0.980 . S
C158 H161 0.980 . S
H159 C158 0.980 . S
H160 C158 0.980 . S
H161 C158 0.980 . S
C162 C157 1.503 . S
C162 H163 0.978 . S
C162 H164 0.978 . S
C162 H165 0.983 . S
H163 C162 0.978 . S
H164 C162 0.978 . S
H165 C162 0.983 . S
C166 H210 0.979 . S
C166 H211 0.981 . S
C166 H212 0.981 . S
C166 O226 1.438 . S
C167 H213 0.980 . S
C167 H214 0.979 . S
C167 H215 0.980 1_655 S
C167 O227 1.533 . S
Cu168 N3 1.924 . S
Cu168 N44 1.937 . S
Cu168 O216 1.923 . S
Cu168 O217 1.930 . S
Cu169 N4 1.964 . S
Cu169 N100 1.941 . S
Cu169 O216 1.905 . S
Cu169 O227 1.920 1_455 S
Cu170 N29 1.924 . S
Cu170 N72 1.937 . S
Cu170 O218 1.923 . S
Cu170 O219 1.930 . S
Cu171 N30 1.964 . S
Cu171 N128 1.941 . S
Cu171 O218 1.905 . S
Cu171 O223 1.920 1_554 S
Cu172 N17 1.937 . S
Cu172 N57 1.924 . S
Cu172 O220 1.923 . S
Cu172 O221 1.930 . S
Cu173 N59 1.964 . S
Cu173 N154 1.941 . S
Cu173 O220 1.905 . S
Cu173 O225 1.920 1_545 S
Cu174 N85 1.924 . S
Cu174 N129 1.933 . S
Cu174 O222 1.923 . S
Cu174 O223 1.930 . S
Cu175 N16 1.941 . S
Cu175 N88 1.964 . S
Cu175 O221 1.920 1_655 S
Cu175 O222 1.905 . S
Cu176 N115 1.924 . S
Cu176 N155 1.933 . S
Cu176 O224 1.923 . S
Cu176 O225 1.930 . S
Cu177 N43 1.941 . S
Cu177 N116 1.964 . S
Cu177 O217 1.920 1_556 S
Cu177 O224 1.905 . S
Cu178 N101 1.933 . S
Cu178 N141 1.924 . S
Cu178 O226 1.923 . S
Cu178 O227 1.930 . S
Cu179 N71 1.941 . S
Cu179 N142 1.964 . S
Cu179 O219 1.920 1_565 S
Cu179 O226 1.905 . S
H180 C26 0.979 . S
H181 C26 0.981 . S
H182 C26 0.981 . S
H183 C27 0.980 . S
H184 C27 0.979 . S
H185 C27 0.980 1_556 S
H186 C54 0.979 . S
H187 C54 0.981 . S
H188 C54 0.981 . S
H189 C55 0.980 . S
H190 C55 0.979 . S
H191 C55 0.980 1_565 S
H192 C82 0.979 . S
H193 C82 0.981 . S
H194 C82 0.981 . S
H195 C83 0.980 . S
H196 C83 0.979 . S
H197 C83 0.980 1_655 S
H198 C110 0.979 . S
H199 C110 0.981 . S
H200 C110 0.981 . S
H201 C111 0.980 . S
H202 C111 0.979 . S
H203 C111 0.980 1_554 S
H204 C138 0.979 . S
H205 C138 0.981 . S
H206 C138 0.981 . S
H207 C139 0.980 . S
H208 C139 0.979 . S
H209 C139 0.980 1_545 S
H210 C166 0.979 . S
H211 C166 0.981 . S
H212 C166 0.981 . S
H213 C167 0.980 . S
H214 C167 0.979 . S
H215 C167 0.980 1_455 S
O216 C26 1.438 . S
O216 Cu168 1.923 . S
O216 Cu169 1.905 . S
O217 C27 1.533 . S
O217 Cu168 1.930 . S
O217 Cu177 1.920 1_554 S
O218 C54 1.438 . S
O218 Cu170 1.923 . S
O218 Cu171 1.905 . S
O219 C55 1.533 . S
O219 Cu170 1.930 . S
O219 Cu179 1.920 1_545 S
O220 C82 1.438 . S
O220 Cu172 1.923 . S
O220 Cu173 1.905 . S
O221 C83 1.533 . S
O221 Cu172 1.930 . S
O221 Cu175 1.920 1_455 S
O222 C110 1.438 . S
O222 Cu174 1.923 . S
O222 Cu175 1.905 . S
O223 C111 1.533 . S
O223 Cu171 1.920 1_556 S
O223 Cu174 1.930 . S
O224 C138 1.438 . S
O224 Cu176 1.923 . S
O224 Cu177 1.905 . S
O225 C139 1.533 . S
O225 Cu173 1.920 1_565 S
O225 Cu176 1.930 . S
O226 C166 1.438 . S
O226 Cu178 1.923 . S
O226 Cu179 1.905 . S
O227 C167 1.533 . S
O227 Cu169 1.920 1_655 S
O227 Cu178 1.930 . S
C228 C229 1.388 . S
C228 N231 1.338 . S
C228 C233 1.503 . S
C229 C228 1.388 . S
C229 C230 1.396 . S
C230 C229 1.396 . S
C230 N232 1.348 . S
C230 C237 1.504 . S
N231 C228 1.338 . S
N231 N232 1.361 . S
N231 Cu396 1.924 . S
N232 C230 1.348 . S
N232 N231 1.361 . S
N232 Cu397 1.964 . S
C233 C228 1.503 . S
C233 H234 0.979 . S
C233 H235 0.979 . S
C233 H236 0.979 . S
H234 C233 0.979 . S
H235 C233 0.979 . S
H236 C233 0.979 . S
C237 C230 1.504 . S
C237 H238 0.981 . S
C237 H239 0.980 . S
C237 H240 0.979 . S
H238 C237 0.981 . S
H239 C237 0.980 . S
H240 C237 0.979 . S
C241 C243 1.402 . S
C241 N244 1.356 . S
C241 C249 1.481 . S
C242 C243 1.400 1_455 S
C242 N245 1.329 . S
C242 C253 1.503 . S
C243 C241 1.402 . S
C243 C242 1.400 1_655 S
N244 C241 1.356 . S
N244 N245 1.343 1_655 S
N244 Cu403 1.941 . S
N245 C242 1.329 . S
N245 N244 1.343 1_455 S
N245 Cu400 1.937 . S
H246 C249 0.980 . S
H247 C249 0.980 . S
H248 C249 0.980 . S
C249 C241 1.481 . S
C249 H246 0.980 . S
C249 H247 0.980 . S
C249 H248 0.980 . S
H250 C253 0.978 . S
H251 C253 0.978 . S
H252 C253 0.983 . S
C253 C242 1.503 . S
C253 H250 0.978 . S
C253 H251 0.978 . S
C253 H252 0.983 . S
C254 H408 0.979 . S
C254 H409 0.981 . S
C254 H410 0.981 . S
C254 O444 1.438 . S
C255 H411 0.980 . S
C255 H412 0.979 . S
C255 H413 0.980 . S
C255 O445 1.533 . S
C256 N257 1.338 . S
C256 C259 1.388 . S
C256 C264 1.503 . S
N257 C256 1.338 . S
N257 N258 1.361 . S
N257 Cu398 1.924 . S
N258 N257 1.361 . S
N258 C260 1.348 . S
N258 Cu399 1.964 . S
C259 C256 1.388 . S
C259 C260 1.396 . S
C260 N258 1.348 . S
C260 C259 1.396 . S
C260 C268 1.504 . S
H261 C264 0.979 . S
H262 C264 0.979 . S
H263 C264 0.979 . S
C264 C256 1.503 . S
C264 H261 0.979 . S
C264 H262 0.979 . S
C264 H263 0.979 . S
H265 C268 0.981 . S
H266 C268 0.980 1_455 S
H267 C268 0.979 . S
C268 C260 1.504 . S
C268 H265 0.981 . S
C268 H266 0.980 1_655 S
C268 H267 0.979 . S
C269 N271 1.356 . S
C269 C273 1.402 . S
C269 C277 1.481 . S
C270 N272 1.325 . S
C270 C273 1.400 . S
C270 C278 1.503 . S
N271 C269 1.356 . S
N271 N272 1.365 . S
N271 Cu405 1.941 . S
N272 C270 1.325 . S
N272 N271 1.365 . S
N272 Cu396 1.924 . S
C273 C269 1.402 . S
C273 C270 1.400 . S
H274 C277 0.980 . S
H275 C277 0.980 . S
H276 C277 0.980 . S
C277 C269 1.481 . S
C277 H274 0.980 . S
C277 H275 0.980 . S
C277 H276 0.980 . S
C278 C270 1.503 . S
C278 H279 0.978 . S
C278 H280 0.978 . S
C278 H281 0.983 . S
H279 C278 0.978 . S
H280 C278 0.978 . S
H281 C278 0.983 . S
C282 H414 0.979 . S
C282 H415 0.981 . S
C282 H416 0.981 . S
C282 O446 1.438 . S
C283 H417 0.980 . S
C283 H418 0.979 . S
C283 H419 0.980 . S
C283 O447 1.533 . S
C284 N285 1.338 . S
C284 C286 1.388 . S
C284 C292 1.503 . S
N285 C284 1.338 . S
N285 N287 1.361 . S
N285 Cu400 1.924 . S
C286 C284 1.388 . S
C286 C288 1.396 . S
N287 N285 1.361 . S
N287 C288 1.348 . S
N287 Cu401 1.964 . S
C288 C286 1.396 . S
C288 N287 1.348 . S
C288 C294 1.504 . S
H289 C292 0.979 . S
H290 C292 0.979 . S
H291 C292 0.979 . S
C292 C284 1.503 . S
C292 H289 0.979 . S
C292 H290 0.979 . S
C292 H291 0.979 . S
H293 C294 0.981 . S
C294 C288 1.504 . S
C294 H293 0.981 . S
C294 H295 0.979 . S
C294 H296 0.980 . S
H295 C294 0.979 . S
H296 C294 0.980 . S
C297 N299 1.356 . S
C297 C301 1.402 . S
C297 C303 1.481 . S
C298 N300 1.325 . S
C298 C301 1.400 . S
C298 C308 1.503 . S
N299 C297 1.356 . S
N299 N300 1.365 . S
N299 Cu407 1.941 . S
N300 C298 1.325 . S
N300 N299 1.365 . S
N300 Cu398 1.924 . S
C301 C297 1.402 . S
C301 C298 1.400 . S
H302 C303 0.980 . S
C303 C297 1.481 . S
C303 H302 0.980 . S
C303 H304 0.980 . S
C303 H305 0.980 . S
H304 C303 0.980 . S
H305 C303 0.980 . S
H306 C308 0.978 . S
H307 C308 0.978 . S
C308 C298 1.503 . S
C308 H306 0.978 . S
C308 H307 0.978 . S
C308 H309 0.983 . S
H309 C308 0.983 . S
C310 H420 0.979 . S
C310 H421 0.981 . S
C310 H422 0.981 . S
C310 O448 1.438 . S
C311 H423 0.980 . S
C311 H424 0.979 . S
C311 H425 0.980 1_455 S
C311 O449 1.533 . S
C312 N313 1.338 . S
C312 C314 1.388 . S
C312 C317 1.503 . S
N313 C312 1.338 . S
N313 N316 1.361 . S
N313 Cu402 1.924 . S
C314 C312 1.388 . S
C314 C315 1.396 . S
C315 C314 1.396 . S
C315 N316 1.348 . S
C315 C321 1.504 . S
N316 N313 1.361 . S
N316 C315 1.348 . S
N316 Cu403 1.964 . S
C317 C312 1.503 . S
C317 H318 0.979 . S
C317 H319 0.979 . S
C317 H320 0.979 . S
H318 C317 0.979 . S
H319 C317 0.979 . S
H320 C317 0.979 . S
C321 C315 1.504 . S
C321 H322 0.981 . S
C321 H323 0.980 . S
C321 H324 0.979 . S
H322 C321 0.981 . S
H323 C321 0.980 . S
H324 C321 0.979 . S
C325 C326 1.402 . S
C325 N328 1.356 . S
C325 C333 1.481 . S
C326 C325 1.402 . S
C326 C327 1.400 1_455 S
C327 C326 1.400 1_655 S
C327 N329 1.328 . S
C327 C334 1.503 . S
N328 C325 1.356 . S
N328 N329 1.349 1_455 S
N328 Cu397 1.941 . S
N329 C327 1.328 . S
N329 N328 1.349 1_655 S
N329 Cu406 1.933 . S
H330 C333 0.980 . S
H331 C333 0.980 . S
H332 C333 0.980 . S
C333 C325 1.481 . S
C333 H330 0.980 . S
C333 H331 0.980 . S
C333 H332 0.980 . S
C334 C327 1.503 . S
C334 H335 0.978 . S
C334 H336 0.978 . S
C334 H337 0.983 . S
H335 C334 0.978 . S
H336 C334 0.978 . S
H337 C334 0.983 . S
C338 H426 0.979 . S
C338 H427 0.981 . S
C338 H428 0.981 . S
C338 O450 1.438 . S
C339 H429 0.980 . S
C339 H430 0.979 . S
C339 H431 0.980 . S
C339 O451 1.533 . S
C340 C341 1.388 . S
C340 N343 1.338 . S
C340 C345 1.503 . S
C341 C340 1.388 . S
C341 C342 1.396 . S
C342 C341 1.396 . S
C342 N344 1.348 . S
C342 C349 1.504 . S
N343 C340 1.338 . S
N343 N344 1.361 . S
N343 Cu404 1.924 . S
N344 C342 1.348 . S
N344 N343 1.361 . S
N344 Cu405 1.964 . S
C345 C340 1.503 . S
C345 H346 0.979 . S
C345 H347 0.979 . S
C345 H348 0.979 . S
H346 C345 0.979 . S
H347 C345 0.979 . S
H348 C345 0.979 . S
C349 C342 1.504 . S
C349 H350 0.981 . S
C349 H351 0.980 1_455 S
C349 H352 0.979 . S
H350 C349 0.981 . S
H351 C349 0.980 1_655 S
H352 C349 0.979 . S
C353 C354 1.402 . S
C353 N356 1.356 . S
C353 C358 1.481 . S
C354 C353 1.402 . S
C354 C355 1.400 . S
C355 C354 1.400 . S
C355 N357 1.325 . S
C355 C362 1.503 . S
N356 C353 1.356 . S
N356 N357 1.365 . S
N356 Cu399 1.941 . S
N357 C355 1.325 . S
N357 N356 1.365 . S
N357 Cu402 1.924 . S
C358 C353 1.481 . S
C358 H359 0.980 . S
C358 H360 0.980 . S
C358 H361 0.980 . S
H359 C358 0.980 . S
H360 C358 0.980 . S
H361 C358 0.980 . S
C362 C355 1.503 . S
C362 H363 0.978 . S
C362 H364 0.978 . S
C362 H365 0.983 . S
H363 C362 0.978 . S
H364 C362 0.978 . S
H365 C362 0.983 . S
C366 H432 0.979 . S
C366 H433 0.981 . S
C366 H434 0.981 . S
C366 O452 1.438 . S
C367 H435 0.980 . S
C367 H436 0.979 . S
C367 H437 0.980 . S
C367 O453 1.533 . S
C368 N369 1.338 . S
C368 C371 1.388 . S
C368 C376 1.503 . S
N369 C368 1.338 . S
N369 N370 1.361 . S
N369 Cu406 1.924 . S
N370 N369 1.361 . S
N370 C372 1.348 . S
N370 Cu407 1.964 . S
C371 C368 1.388 . S
C371 C372 1.396 . S
C372 N370 1.348 . S
C372 C371 1.396 . S
C372 C380 1.504 . S
H373 C376 0.979 . S
H374 C376 0.979 . S
H375 C376 0.979 . S
C376 C368 1.503 . S
C376 H373 0.979 . S
C376 H374 0.979 . S
C376 H375 0.979 . S
H377 C380 0.981 . S
H378 C380 0.980 . S
H379 C380 0.979 . S
C380 C372 1.504 . S
C380 H377 0.981 . S
C380 H378 0.980 . S
C380 H379 0.979 . S
C381 N382 1.356 . S
C381 C384 1.402 . S
C381 C386 1.481 . S
N382 C381 1.356 . S
N382 N383 1.365 . S
N382 Cu401 1.941 . S
N383 N382 1.365 . S
N383 C385 1.325 . S
N383 Cu404 1.924 . S
C384 C381 1.402 . S
C384 C385 1.400 . S
C385 N383 1.325 . S
C385 C384 1.400 . S
C385 C390 1.503 . S
C386 C381 1.481 . S
C386 H387 0.980 . S
C386 H388 0.980 . S
C386 H389 0.980 . S
H387 C386 0.980 . S
H388 C386 0.980 . S
H389 C386 0.980 . S
C390 C385 1.503 . S
C390 H391 0.978 . S
C390 H392 0.978 . S
C390 H393 0.983 . S
H391 C390 0.978 . S
H392 C390 0.978 . S
H393 C390 0.983 . S
C394 H438 0.979 . S
C394 H439 0.981 . S
C394 H440 0.981 . S
C394 O454 1.438 . S
C395 H441 0.980 . S
C395 H442 0.979 . S
C395 H443 0.980 1_655 S
C395 O455 1.533 . S
Cu396 N231 1.924 . S
Cu396 N272 1.924 . S
Cu396 O444 1.923 . S
Cu396 O445 1.930 . S
Cu397 N232 1.964 . S
Cu397 N328 1.941 . S
Cu397 O444 1.905 . S
Cu397 O455 1.920 1_455 S
Cu398 N257 1.924 . S
Cu398 N300 1.924 . S
Cu398 O446 1.923 . S
Cu398 O447 1.930 . S
Cu399 N258 1.964 . S
Cu399 N356 1.941 . S
Cu399 O446 1.905 . S
Cu399 O451 1.920 . S
Cu400 N245 1.937 . S
Cu400 N285 1.924 . S
Cu400 O448 1.923 . S
Cu400 O449 1.930 . S
Cu401 N287 1.964 . S
Cu401 N382 1.941 . S
Cu401 O448 1.905 . S
Cu401 O453 1.920 . S
Cu402 N313 1.924 . S
Cu402 N357 1.924 . S
Cu402 O450 1.923 . S
Cu402 O451 1.930 . S
Cu403 N244 1.941 . S
Cu403 N316 1.964 . S
Cu403 O449 1.920 1_655 S
Cu403 O450 1.905 . S
Cu404 N343 1.924 . S
Cu404 N383 1.924 . S
Cu404 O452 1.923 . S
Cu404 O453 1.930 . S
Cu405 N271 1.941 . S
Cu405 N344 1.964 . S
Cu405 O445 1.920 . S
Cu405 O452 1.905 . S
Cu406 N329 1.933 . S
Cu406 N369 1.924 . S
Cu406 O454 1.923 . S
Cu406 O455 1.930 . S
Cu407 N299 1.941 . S
Cu407 N370 1.964 . S
Cu407 O447 1.920 . S
Cu407 O454 1.905 . S
H408 C254 0.979 . S
H409 C254 0.981 . S
H410 C254 0.981 . S
H411 C255 0.980 . S
H412 C255 0.979 . S
H413 C255 0.980 . S
H414 C282 0.979 . S
H415 C282 0.981 . S
H416 C282 0.981 . S
H417 C283 0.980 . S
H418 C283 0.979 . S
H419 C283 0.980 . S
H420 C310 0.979 . S
H421 C310 0.981 . S
H422 C310 0.981 . S
H423 C311 0.980 . S
H424 C311 0.979 . S
H425 C311 0.980 1_655 S
H426 C338 0.979 . S
H427 C338 0.981 . S
H428 C338 0.981 . S
H429 C339 0.980 . S
H430 C339 0.979 . S
H431 C339 0.980 . S
H432 C366 0.979 . S
H433 C366 0.981 . S
H434 C366 0.981 . S
H435 C367 0.980 . S
H436 C367 0.979 . S
H437 C367 0.980 . S
H438 C394 0.979 . S
H439 C394 0.981 . S
H440 C394 0.981 . S
H441 C395 0.980 . S
H442 C395 0.979 . S
H443 C395 0.980 1_455 S
O444 C254 1.438 . S
O444 Cu396 1.923 . S
O444 Cu397 1.905 . S
O445 C255 1.533 . S
O445 Cu396 1.930 . S
O445 Cu405 1.920 . S
O446 C282 1.438 . S
O446 Cu398 1.923 . S
O446 Cu399 1.905 . S
O447 C283 1.533 . S
O447 Cu398 1.930 . S
O447 Cu407 1.920 . S
O448 C310 1.438 . S
O448 Cu400 1.923 . S
O448 Cu401 1.905 . S
O449 C311 1.533 . S
O449 Cu400 1.930 . S
O449 Cu403 1.920 1_455 S
O450 C338 1.438 . S
O450 Cu402 1.923 . S
O450 Cu403 1.905 . S
O451 C339 1.533 . S
O451 Cu399 1.920 . S
O451 Cu402 1.930 . S
O452 C366 1.438 . S
O452 Cu404 1.923 . S
O452 Cu405 1.905 . S
O453 C367 1.533 . S
O453 Cu401 1.920 . S
O453 Cu404 1.930 . S
O454 C394 1.438 . S
O454 Cu406 1.923 . S
O454 Cu407 1.905 . S
O455 C395 1.533 . S
O455 Cu397 1.920 1_655 S
O455 Cu406 1.930 . S
C456 C457 1.388 . S
C456 N459 1.338 . S
C456 C461 1.503 . S
C457 C456 1.388 . S
C457 C458 1.396 . S
C458 C457 1.396 . S
C458 N460 1.348 . S
C458 C465 1.504 . S
N459 C456 1.338 . S
N459 N460 1.361 . S
N459 Cu624 1.924 . S
N460 C458 1.348 . S
N460 N459 1.361 . S
N460 Cu625 1.964 . S
C461 C456 1.503 . S
C461 H462 0.979 . S
C461 H463 0.979 . S
C461 H464 0.979 . S
H462 C461 0.979 . S
H463 C461 0.979 . S
H464 C461 0.979 . S
C465 C458 1.504 . S
C465 H466 0.981 . S
C465 H467 0.980 1_565 S
C465 H468 0.979 . S
H466 C465 0.981 . S
H467 C465 0.980 1_545 S
H468 C465 0.979 . S
C469 C471 1.402 . S
C469 N472 1.356 . S
C469 C477 1.481 . S
C470 C471 1.400 . S
C470 N473 1.325 . S
C470 C481 1.503 . S
C471 C469 1.402 . S
C471 C470 1.400 . S
N472 C469 1.356 . S
N472 N473 1.365 . S
N472 Cu631 1.941 . S
N473 C470 1.325 . S
N473 N472 1.365 . S
N473 Cu628 1.924 . S
H474 C477 0.980 . S
H475 C477 0.980 . S
H476 C477 0.980 . S
C477 C469 1.481 . S
C477 H474 0.980 . S
C477 H475 0.980 . S
C477 H476 0.980 . S
H478 C481 0.978 . S
H479 C481 0.978 . S
H480 C481 0.983 . S
C481 C470 1.503 . S
C481 H478 0.978 . S
C481 H479 0.978 . S
C481 H480 0.983 . S
C482 H636 0.979 . S
C482 H637 0.981 . S
C482 H638 0.981 . S
C482 O672 1.438 . S
C483 H639 0.980 . S
C483 H640 0.979 . S
C483 H641 0.980 . S
C483 O673 1.533 . S
C484 N485 1.338 . S
C484 C487 1.388 . S
C484 C492 1.503 . S
N485 C484 1.338 . S
N485 N486 1.361 . S
N485 Cu626 1.924 . S
N486 N485 1.361 . S
N486 C488 1.348 . S
N486 Cu627 1.964 . S
C487 C484 1.388 . S
C487 C488 1.396 . S
C488 N486 1.348 . S
C488 C487 1.396 . S
C488 C496 1.504 . S
H489 C492 0.979 . S
H490 C492 0.979 . S
H491 C492 0.979 . S
C492 C484 1.503 . S
C492 H489 0.979 . S
C492 H490 0.979 . S
C492 H491 0.979 . S
H493 C496 0.981 . S
H494 C496 0.980 . S
H495 C496 0.979 . S
C496 C488 1.504 . S
C496 H493 0.981 . S
C496 H494 0.980 . S
C496 H495 0.979 . S
C497 N499 1.356 . S
C497 C501 1.402 . S
C497 C505 1.481 . S
C498 N500 1.325 . S
C498 C501 1.400 . S
C498 C506 1.503 . S
N499 C497 1.356 . S
N499 N500 1.365 . S
N499 Cu633 1.941 . S
N500 C498 1.325 . S
N500 N499 1.365 . S
N500 Cu624 1.924 . S
C501 C497 1.402 . S
C501 C498 1.400 . S
H502 C505 0.980 . S
H503 C505 0.980 . S
H504 C505 0.980 . S
C505 C497 1.481 . S
C505 H502 0.980 . S
C505 H503 0.980 . S
C505 H504 0.980 . S
C506 C498 1.503 . S
C506 H507 0.978 . S
C506 H508 0.978 . S
C506 H509 0.983 . S
H507 C506 0.978 . S
H508 C506 0.978 . S
H509 C506 0.983 . S
C510 H642 0.979 . S
C510 H643 0.981 . S
C510 H644 0.981 . S
C510 O674 1.438 . S
C511 H645 0.980 . S
C511 H646 0.979 . S
C511 H647 0.980 1_545 S
C511 O675 1.533 . S
C512 N513 1.338 . S
C512 C514 1.388 . S
C512 C520 1.503 . S
N513 C512 1.338 . S
N513 N515 1.361 . S
N513 Cu628 1.924 . S
C514 C512 1.388 . S
C514 C516 1.396 . S
N515 N513 1.361 . S
N515 C516 1.348 . S
N515 Cu629 1.964 . S
C516 C514 1.396 . S
C516 N515 1.348 . S
C516 C522 1.504 . S
H517 C520 0.979 . S
H518 C520 0.979 . S
H519 C520 0.979 . S
C520 C512 1.503 . S
C520 H517 0.979 . S
C520 H518 0.979 . S
C520 H519 0.979 . S
H521 C522 0.981 . S
C522 C516 1.504 . S
C522 H521 0.981 . S
C522 H523 0.979 . S
C522 H524 0.980 . S
H523 C522 0.979 . S
H524 C522 0.980 . S
C525 N527 1.356 . S
C525 C529 1.402 . S
C525 C531 1.481 . S
C526 N528 1.329 . S
C526 C529 1.400 1_545 S
C526 C536 1.503 . S
N527 C525 1.356 . S
N527 N528 1.343 1_565 S
N527 Cu635 1.941 . S
N528 C526 1.329 . S
N528 N527 1.343 1_545 S
N528 Cu626 1.937 . S
C529 C525 1.402 . S
C529 C526 1.400 1_565 S
H530 C531 0.980 . S
C531 C525 1.481 . S
C531 H530 0.980 . S
C531 H532 0.980 . S
C531 H533 0.980 . S
H532 C531 0.980 . S
H533 C531 0.980 . S
H534 C536 0.978 . S
H535 C536 0.978 . S
C536 C526 1.503 . S
C536 H534 0.978 . S
C536 H535 0.978 . S
C536 H537 0.983 . S
H537 C536 0.983 . S
C538 H648 0.979 . S
C538 H649 0.981 . S
C538 H650 0.981 . S
C538 O676 1.438 . S
C539 H651 0.980 . S
C539 H652 0.979 . S
C539 H653 0.980 . S
C539 O677 1.533 . S
C540 N541 1.338 . S
C540 C542 1.388 . S
C540 C545 1.503 . S
N541 C540 1.338 . S
N541 N544 1.361 . S
N541 Cu630 1.924 . S
C542 C540 1.388 . S
C542 C543 1.396 . S
C543 C542 1.396 . S
C543 N544 1.348 . S
C543 C549 1.504 . S
N544 N541 1.361 . S
N544 C543 1.348 . S
N544 Cu631 1.964 . S
C545 C540 1.503 . S
C545 H546 0.979 . S
C545 H547 0.979 . S
C545 H548 0.979 . S
H546 C545 0.979 . S
H547 C545 0.979 . S
H548 C545 0.979 . S
C549 C543 1.504 . S
C549 H550 0.981 . S
C549 H551 0.980 1_545 S
C549 H552 0.979 . S
H550 C549 0.981 . S
H551 C549 0.980 1_565 S
H552 C549 0.979 . S
C553 C554 1.402 . S
C553 N556 1.356 . S
C553 C561 1.481 . S
C554 C553 1.402 . S
C554 C555 1.400 . S
C555 C554 1.400 . S
C555 N557 1.325 . S
C555 C562 1.503 . S
N556 C553 1.356 . S
N556 N557 1.365 . S
N556 Cu625 1.941 . S
N557 C555 1.325 . S
N557 N556 1.365 . S
N557 Cu634 1.924 . S
H558 C561 0.980 . S
H559 C561 0.980 . S
H560 C561 0.980 . S
C561 C553 1.481 . S
C561 H558 0.980 . S
C561 H559 0.980 . S
C561 H560 0.980 . S
C562 C555 1.503 . S
C562 H563 0.978 . S
C562 H564 0.978 . S
C562 H565 0.983 . S
H563 C562 0.978 . S
H564 C562 0.978 . S
H565 C562 0.983 . S
C566 H654 0.979 . S
C566 H655 0.981 . S
C566 H656 0.981 . S
C566 O678 1.438 . S
C567 H657 0.980 . S
C567 H658 0.979 . S
C567 H659 0.980 . S
C567 O679 1.533 . S
C568 C569 1.388 . S
C568 N571 1.338 . S
C568 C573 1.503 . S
C569 C568 1.388 . S
C569 C570 1.396 . S
C570 C569 1.396 . S
C570 N572 1.348 . S
C570 C577 1.504 . S
N571 C568 1.338 . S
N571 N572 1.361 . S
N571 Cu632 1.924 . S
N572 C570 1.348 . S
N572 N571 1.361 . S
N572 Cu633 1.964 . S
C573 C568 1.503 . S
C573 H574 0.979 . S
C573 H575 0.979 . S
C573 H576 0.979 . S
H574 C573 0.979 . S
H575 C573 0.979 . S
H576 C573 0.979 . S
C577 C570 1.504 . S
C577 H578 0.981 . S
C577 H579 0.980 . S
C577 H580 0.979 . S
H578 C577 0.981 . S
H579 C577 0.980 . S
H580 C577 0.979 . S
C581 C582 1.402 . S
C581 N584 1.356 . S
C581 C586 1.481 . S
C582 C581 1.402 . S
C582 C583 1.400 . S
C583 C582 1.400 . S
C583 N585 1.325 . S
C583 C590 1.503 . S
N584 C581 1.356 . S
N584 N585 1.365 . S
N584 Cu627 1.941 . S
N585 C583 1.325 . S
N585 N584 1.365 . S
N585 Cu630 1.924 . S
C586 C581 1.481 . S
C586 H587 0.980 . S
C586 H588 0.980 . S
C586 H589 0.980 . S
H587 C586 0.980 . S
H588 C586 0.980 . S
H589 C586 0.980 . S
C590 C583 1.503 . S
C590 H591 0.978 . S
C590 H592 0.978 . S
C590 H593 0.983 . S
H591 C590 0.978 . S
H592 C590 0.978 . S
H593 C590 0.983 . S
C594 H660 0.979 . S
C594 H661 0.981 . S
C594 H662 0.981 . S
C594 O680 1.438 . S
C595 H663 0.980 . S
C595 H664 0.979 . S
C595 H665 0.980 1_565 S
C595 O681 1.533 . S
C596 N597 1.338 . S
C596 C599 1.388 . S
C596 C604 1.503 . S
N597 C596 1.338 . S
N597 N598 1.361 . S
N597 Cu634 1.924 . S
N598 N597 1.361 . S
N598 C600 1.348 . S
N598 Cu635 1.964 . S
C599 C596 1.388 . S
C599 C600 1.396 . S
C600 N598 1.348 . S
C600 C599 1.396 . S
C600 C608 1.504 . S
H601 C604 0.979 . S
H602 C604 0.979 . S
H603 C604 0.979 . S
C604 C596 1.503 . S
C604 H601 0.979 . S
C604 H602 0.979 . S
C604 H603 0.979 . S
H605 C608 0.981 . S
H606 C608 0.980 . S
H607 C608 0.979 . S
C608 C600 1.504 . S
C608 H605 0.981 . S
C608 H606 0.980 . S
C608 H607 0.979 . S
C609 N610 1.356 . S
C609 C612 1.402 . S
C609 C614 1.481 . S
N610 C609 1.356 . S
N610 N611 1.349 1_545 S
N610 Cu629 1.941 . S
N611 N610 1.349 1_565 S
N611 C613 1.328 . S
N611 Cu632 1.933 . S
C612 C609 1.402 . S
C612 C613 1.400 1_545 S
C613 N611 1.328 . S
C613 C612 1.400 1_565 S
C613 C618 1.503 . S
C614 C609 1.481 . S
C614 H615 0.980 . S
C614 H616 0.980 . S
C614 H617 0.980 . S
H615 C614 0.980 . S
H616 C614 0.980 . S
H617 C614 0.980 . S
C618 C613 1.503 . S
C618 H619 0.978 . S
C618 H620 0.978 . S
C618 H621 0.983 . S
H619 C618 0.978 . S
H620 C618 0.978 . S
H621 C618 0.983 . S
C622 H666 0.979 . S
C622 H667 0.981 . S
C622 H668 0.981 . S
C622 O682 1.438 . S
C623 H669 0.980 . S
C623 H670 0.979 . S
C623 H671 0.980 . S
C623 O683 1.533 . S
Cu624 N459 1.924 . S
Cu624 N500 1.924 . S
Cu624 O672 1.923 . S
Cu624 O673 1.930 . S
Cu625 N460 1.964 . S
Cu625 N556 1.941 . S
Cu625 O672 1.905 . S
Cu625 O683 1.920 . S
Cu626 N485 1.924 . S
Cu626 N528 1.937 . S
Cu626 O674 1.923 . S
Cu626 O675 1.930 . S
Cu627 N486 1.964 . S
Cu627 N584 1.941 . S
Cu627 O674 1.905 . S
Cu627 O679 1.920 . S
Cu628 N473 1.924 . S
Cu628 N513 1.924 . S
Cu628 O676 1.923 . S
Cu628 O677 1.930 . S
Cu629 N515 1.964 . S
Cu629 N610 1.941 . S
Cu629 O676 1.905 . S
Cu629 O681 1.920 1_545 S
Cu630 N541 1.924 . S
Cu630 N585 1.924 . S
Cu630 O678 1.923 . S
Cu630 O679 1.930 . S
Cu631 N472 1.941 . S
Cu631 N544 1.964 . S
Cu631 O677 1.920 . S
Cu631 O678 1.905 . S
Cu632 N571 1.924 . S
Cu632 N611 1.933 . S
Cu632 O680 1.923 . S
Cu632 O681 1.930 . S
Cu633 N499 1.941 . S
Cu633 N572 1.964 . S
Cu633 O673 1.920 . S
Cu633 O680 1.905 . S
Cu634 N557 1.924 . S
Cu634 N597 1.924 . S
Cu634 O682 1.923 . S
Cu634 O683 1.930 . S
Cu635 N527 1.941 . S
Cu635 N598 1.964 . S
Cu635 O675 1.920 1_565 S
Cu635 O682 1.905 . S
H636 C482 0.979 . S
H637 C482 0.981 . S
H638 C482 0.981 . S
H639 C483 0.980 . S
H640 C483 0.979 . S
H641 C483 0.980 . S
H642 C510 0.979 . S
H643 C510 0.981 . S
H644 C510 0.981 . S
H645 C511 0.980 . S
H646 C511 0.979 . S
H647 C511 0.980 1_565 S
H648 C538 0.979 . S
H649 C538 0.981 . S
H650 C538 0.981 . S
H651 C539 0.980 . S
H652 C539 0.979 . S
H653 C539 0.980 . S
H654 C566 0.979 . S
H655 C566 0.981 . S
H656 C566 0.981 . S
H657 C567 0.980 . S
H658 C567 0.979 . S
H659 C567 0.980 . S
H660 C594 0.979 . S
H661 C594 0.981 . S
H662 C594 0.981 . S
H663 C595 0.980 . S
H664 C595 0.979 . S
H665 C595 0.980 1_545 S
H666 C622 0.979 . S
H667 C622 0.981 . S
H668 C622 0.981 . S
H669 C623 0.980 . S
H670 C623 0.979 . S
H671 C623 0.980 . S
O672 C482 1.438 . S
O672 Cu624 1.923 . S
O672 Cu625 1.905 . S
O673 C483 1.533 . S
O673 Cu624 1.930 . S
O673 Cu633 1.920 . S
O674 C510 1.438 . S
O674 Cu626 1.923 . S
O674 Cu627 1.905 . S
O675 C511 1.533 . S
O675 Cu626 1.930 . S
O675 Cu635 1.920 1_545 S
O676 C538 1.438 . S
O676 Cu628 1.923 . S
O676 Cu629 1.905 . S
O677 C539 1.533 . S
O677 Cu628 1.930 . S
O677 Cu631 1.920 . S
O678 C566 1.438 . S
O678 Cu630 1.923 . S
O678 Cu631 1.905 . S
O679 C567 1.533 . S
O679 Cu627 1.920 . S
O679 Cu630 1.930 . S
O680 C594 1.438 . S
O680 Cu632 1.923 . S
O680 Cu633 1.905 . S
O681 C595 1.533 . S
O681 Cu629 1.920 1_565 S
O681 Cu632 1.930 . S
O682 C622 1.438 . S
O682 Cu634 1.923 . S
O682 Cu635 1.905 . S
O683 C623 1.533 . S
O683 Cu625 1.920 . S
O683 Cu634 1.930 . S
C684 C685 1.388 . S
C684 N687 1.338 . S
C684 C689 1.503 . S
C685 C684 1.388 . S
C685 C686 1.396 . S
C686 C685 1.396 . S
C686 N688 1.348 . S
C686 C693 1.504 . S
N687 C684 1.338 . S
N687 N688 1.361 . S
N687 Cu852 1.924 . S
N688 C686 1.348 . S
N688 N687 1.361 . S
N688 Cu853 1.964 . S
C689 C684 1.503 . S
C689 H690 0.979 . S
C689 H691 0.979 . S
C689 H692 0.979 . S
H690 C689 0.979 . S
H691 C689 0.979 . S
H692 C689 0.979 . S
C693 C686 1.504 . S
C693 H694 0.981 . S
C693 H695 0.980 . S
C693 H696 0.979 . S
H694 C693 0.981 . S
H695 C693 0.980 . S
H696 C693 0.979 . S
C697 C699 1.402 . S
C697 N700 1.356 . S
C697 C705 1.481 . S
C698 C699 1.400 . S
C698 N701 1.325 . S
C698 C709 1.503 . S
C699 C697 1.402 . S
C699 C698 1.400 . S
N700 C697 1.356 . S
N700 N701 1.365 . S
N700 Cu859 1.941 . S
N701 C698 1.325 . S
N701 N700 1.365 . S
N701 Cu856 1.924 . S
H702 C705 0.980 . S
H703 C705 0.980 . S
H704 C705 0.980 . S
C705 C697 1.481 . S
C705 H702 0.980 . S
C705 H703 0.980 . S
C705 H704 0.980 . S
H706 C709 0.978 . S
H707 C709 0.978 . S
H708 C709 0.983 . S
C709 C698 1.503 . S
C709 H706 0.978 . S
C709 H707 0.978 . S
C709 H708 0.983 . S
C710 H864 0.979 . S
C710 H865 0.981 . S
C710 H866 0.981 . S
C710 O900 1.438 . S
C711 H867 0.980 . S
C711 H868 0.979 . S
C711 H869 0.980 1_554 S
C711 O901 1.533 . S
C712 N713 1.338 . S
C712 C715 1.388 . S
C712 C720 1.503 . S
N713 C712 1.338 . S
N713 N714 1.361 . S
N713 Cu854 1.924 . S
N714 N713 1.361 . S
N714 C716 1.348 . S
N714 Cu855 1.964 . S
C715 C712 1.388 . S
C715 C716 1.396 . S
C716 N714 1.348 . S
C716 C715 1.396 . S
C716 C724 1.504 . S
H717 C720 0.979 . S
H718 C720 0.979 . S
H719 C720 0.979 . S
C720 C712 1.503 . S
C720 H717 0.979 . S
C720 H718 0.979 . S
C720 H719 0.979 . S
H721 C724 0.981 . S
H722 C724 0.980 . S
H723 C724 0.979 . S
C724 C716 1.504 . S
C724 H721 0.981 . S
C724 H722 0.980 . S
C724 H723 0.979 . S
C725 N727 1.356 . S
C725 C729 1.402 . S
C725 C733 1.481 . S
C726 N728 1.329 . S
C726 C729 1.400 1_554 S
C726 C734 1.503 . S
N727 C725 1.356 . S
N727 N728 1.343 1_556 S
N727 Cu861 1.941 . S
N728 C726 1.329 . S
N728 N727 1.343 1_554 S
N728 Cu852 1.937 . S
C729 C725 1.402 . S
C729 C726 1.400 1_556 S
H730 C733 0.980 . S
H731 C733 0.980 . S
H732 C733 0.980 . S
C733 C725 1.481 . S
C733 H730 0.980 . S
C733 H731 0.980 . S
C733 H732 0.980 . S
C734 C726 1.503 . S
C734 H735 0.978 . S
C734 H736 0.978 . S
C734 H737 0.983 . S
H735 C734 0.978 . S
H736 C734 0.978 . S
H737 C734 0.983 . S
C738 H870 0.979 . S
C738 H871 0.981 . S
C738 H872 0.981 . S
C738 O902 1.438 . S
C739 H873 0.980 . S
C739 H874 0.979 . S
C739 H875 0.980 . S
C739 O903 1.533 . S
C740 N741 1.338 . S
C740 C742 1.388 . S
C740 C748 1.503 . S
N741 C740 1.338 . S
N741 N743 1.361 . S
N741 Cu856 1.924 . S
C742 C740 1.388 . S
C742 C744 1.396 . S
N743 N741 1.361 . S
N743 C744 1.348 . S
N743 Cu857 1.964 . S
C744 C742 1.396 . S
C744 N743 1.348 . S
C744 C750 1.504 . S
H745 C748 0.979 . S
H746 C748 0.979 . S
H747 C748 0.979 . S
C748 C740 1.503 . S
C748 H745 0.979 . S
C748 H746 0.979 . S
C748 H747 0.979 . S
H749 C750 0.981 . S
C750 C744 1.504 . S
C750 H749 0.981 . S
C750 H751 0.979 . S
C750 H752 0.980 1_556 S
H751 C750 0.979 . S
H752 C750 0.980 1_554 S
C753 N755 1.356 . S
C753 C757 1.402 . S
C753 C759 1.481 . S
C754 N756 1.325 . S
C754 C757 1.400 . S
C754 C764 1.503 . S
N755 C753 1.356 . S
N755 N756 1.365 . S
N755 Cu863 1.941 . S
N756 C754 1.325 . S
N756 N755 1.365 . S
N756 Cu854 1.924 . S
C757 C753 1.402 . S
C757 C754 1.400 . S
H758 C759 0.980 . S
C759 C753 1.481 . S
C759 H758 0.980 . S
C759 H760 0.980 . S
C759 H761 0.980 . S
H760 C759 0.980 . S
H761 C759 0.980 . S
H762 C764 0.978 . S
H763 C764 0.978 . S
C764 C754 1.503 . S
C764 H762 0.978 . S
C764 H763 0.978 . S
C764 H765 0.983 . S
H765 C764 0.983 . S
C766 H876 0.979 . S
C766 H877 0.981 . S
C766 H878 0.981 . S
C766 O904 1.438 . S
C767 H879 0.980 . S
C767 H880 0.979 . S
C767 H881 0.980 . S
C767 O905 1.533 . S
C768 N769 1.338 . S
C768 C770 1.388 . S
C768 C773 1.503 . S
N769 C768 1.338 . S
N769 N772 1.361 . S
N769 Cu858 1.924 . S
C770 C768 1.388 . S
C770 C771 1.396 . S
C771 C770 1.396 . S
C771 N772 1.348 . S
C771 C777 1.504 . S
N772 N769 1.361 . S
N772 C771 1.348 . S
N772 Cu859 1.964 . S
C773 C768 1.503 . S
C773 H774 0.979 . S
C773 H775 0.979 . S
C773 H776 0.979 . S
H774 C773 0.979 . S
H775 C773 0.979 . S
H776 C773 0.979 . S
C777 C771 1.504 . S
C777 H778 0.981 . S
C777 H779 0.980 . S
C777 H780 0.979 . S
H778 C777 0.981 . S
H779 C777 0.980 . S
H780 C777 0.979 . S
C781 C782 1.402 . S
C781 N784 1.356 . S
C781 C789 1.481 . S
C782 C781 1.402 . S
C782 C783 1.400 . S
C783 C782 1.400 . S
C783 N785 1.325 . S
C783 C790 1.503 . S
N784 C781 1.356 . S
N784 N785 1.365 . S
N784 Cu853 1.941 . S
N785 C783 1.325 . S
N785 N784 1.365 . S
N785 Cu862 1.924 . S
H786 C789 0.980 . S
H787 C789 0.980 . S
H788 C789 0.980 . S
C789 C781 1.481 . S
C789 H786 0.980 . S
C789 H787 0.980 . S
C789 H788 0.980 . S
C790 C783 1.503 . S
C790 H791 0.978 . S
C790 H792 0.978 . S
C790 H793 0.983 . S
H791 C790 0.978 . S
H792 C790 0.978 . S
H793 C790 0.983 . S
C794 H882 0.979 . S
C794 H883 0.981 . S
C794 H884 0.981 . S
C794 O906 1.438 . S
C795 H885 0.980 . S
C795 H886 0.979 . S
C795 H887 0.980 1_556 S
C795 O907 1.533 . S
C796 C797 1.388 . S
C796 N799 1.338 . S
C796 C801 1.503 . S
C797 C796 1.388 . S
C797 C798 1.396 . S
C798 C797 1.396 . S
C798 N800 1.348 . S
C798 C805 1.504 . S
N799 C796 1.338 . S
N799 N800 1.361 . S
N799 Cu860 1.924 . S
N800 C798 1.348 . S
N800 N799 1.361 . S
N800 Cu861 1.964 . S
C801 C796 1.503 . S
C801 H802 0.979 . S
C801 H803 0.979 . S
C801 H804 0.979 . S
H802 C801 0.979 . S
H803 C801 0.979 . S
H804 C801 0.979 . S
C805 C798 1.504 . S
C805 H806 0.981 . S
C805 H807 0.980 . S
C805 H808 0.979 . S
H806 C805 0.981 . S
H807 C805 0.980 . S
H808 C805 0.979 . S
C809 C810 1.402 . S
C809 N812 1.356 . S
C809 C814 1.481 . S
C810 C809 1.402 . S
C810 C811 1.400 1_554 S
C811 C810 1.400 1_556 S
C811 N813 1.328 . S
C811 C818 1.503 . S
N812 C809 1.356 . S
N812 N813 1.349 1_554 S
N812 Cu855 1.941 . S
N813 C811 1.328 . S
N813 N812 1.349 1_556 S
N813 Cu858 1.933 . S
C814 C809 1.481 . S
C814 H815 0.980 . S
C814 H816 0.980 . S
C814 H817 0.980 . S
H815 C814 0.980 . S
H816 C814 0.980 . S
H817 C814 0.980 . S
C818 C811 1.503 . S
C818 H819 0.978 . S
C818 H820 0.978 . S
C818 H821 0.983 . S
H819 C818 0.978 . S
H820 C818 0.978 . S
H821 C818 0.983 . S
C822 H888 0.979 . S
C822 H889 0.981 . S
C822 H890 0.981 . S
C822 O908 1.438 . S
C823 H891 0.980 . S
C823 H892 0.979 . S
C823 H893 0.980 . S
C823 O909 1.533 . S
C824 N825 1.338 . S
C824 C827 1.388 . S
C824 C832 1.503 . S
N825 C824 1.338 . S
N825 N826 1.361 . S
N825 Cu862 1.924 . S
N826 N825 1.361 . S
N826 C828 1.348 . S
N826 Cu863 1.964 . S
C827 C824 1.388 . S
C827 C828 1.396 . S
C828 N826 1.348 . S
C828 C827 1.396 . S
C828 C836 1.504 . S
H829 C832 0.979 . S
H830 C832 0.979 . S
H831 C832 0.979 . S
C832 C824 1.503 . S
C832 H829 0.979 . S
C832 H830 0.979 . S
C832 H831 0.979 . S
H833 C836 0.981 . S
H834 C836 0.980 1_556 S
H835 C836 0.979 . S
C836 C828 1.504 . S
C836 H833 0.981 . S
C836 H834 0.980 1_554 S
C836 H835 0.979 . S
C837 N838 1.356 . S
C837 C840 1.402 . S
C837 C842 1.481 . S
N838 C837 1.356 . S
N838 N839 1.365 . S
N838 Cu857 1.941 . S
N839 N838 1.365 . S
N839 C841 1.325 . S
N839 Cu860 1.924 . S
C840 C837 1.402 . S
C840 C841 1.400 . S
C841 N839 1.325 . S
C841 C840 1.400 . S
C841 C846 1.503 . S
C842 C837 1.481 . S
C842 H843 0.980 . S
C842 H844 0.980 . S
C842 H845 0.980 . S
H843 C842 0.980 . S
H844 C842 0.980 . S
H845 C842 0.980 . S
C846 C841 1.503 . S
C846 H847 0.978 . S
C846 H848 0.978 . S
C846 H849 0.983 . S
H847 C846 0.978 . S
H848 C846 0.978 . S
H849 C846 0.983 . S
C850 H894 0.979 . S
C850 H895 0.981 . S
C850 H896 0.981 . S
C850 O910 1.438 . S
C851 H897 0.980 . S
C851 H898 0.979 . S
C851 H899 0.980 . S
C851 O911 1.533 . S
Cu852 N687 1.924 . S
Cu852 N728 1.937 . S
Cu852 O900 1.923 . S
Cu852 O901 1.930 . S
Cu853 N688 1.964 . S
Cu853 N784 1.941 . S
Cu853 O900 1.905 . S
Cu853 O911 1.920 . S
Cu854 N713 1.924 . S
Cu854 N756 1.924 . S
Cu854 O902 1.923 . S
Cu854 O903 1.930 . S
Cu855 N714 1.964 . S
Cu855 N812 1.941 . S
Cu855 O902 1.905 . S
Cu855 O907 1.920 1_554 S
Cu856 N701 1.924 . S
Cu856 N741 1.924 . S
Cu856 O904 1.923 . S
Cu856 O905 1.930 . S
Cu857 N743 1.964 . S
Cu857 N838 1.941 . S
Cu857 O904 1.905 . S
Cu857 O909 1.920 . S
Cu858 N769 1.924 . S
Cu858 N813 1.933 . S
Cu858 O906 1.923 . S
Cu858 O907 1.930 . S
Cu859 N700 1.941 . S
Cu859 N772 1.964 . S
Cu859 O905 1.920 . S
Cu859 O906 1.905 . S
Cu860 N799 1.924 . S
Cu860 N839 1.924 . S
Cu860 O908 1.923 . S
Cu860 O909 1.930 . S
Cu861 N727 1.941 . S
Cu861 N800 1.964 . S
Cu861 O901 1.920 1_556 S
Cu861 O908 1.905 . S
Cu862 N785 1.924 . S
Cu862 N825 1.924 . S
Cu862 O910 1.923 . S
Cu862 O911 1.930 . S
Cu863 N755 1.941 . S
Cu863 N826 1.964 . S
Cu863 O903 1.920 . S
Cu863 O910 1.905 . S
H864 C710 0.979 . S
H865 C710 0.981 . S
H866 C710 0.981 . S
H867 C711 0.980 . S
H868 C711 0.979 . S
H869 C711 0.980 1_556 S
H870 C738 0.979 . S
H871 C738 0.981 . S
H872 C738 0.981 . S
H873 C739 0.980 . S
H874 C739 0.979 . S
H875 C739 0.980 . S
H876 C766 0.979 . S
H877 C766 0.981 . S
H878 C766 0.981 . S
H879 C767 0.980 . S
H880 C767 0.979 . S
H881 C767 0.980 . S
H882 C794 0.979 . S
H883 C794 0.981 . S
H884 C794 0.981 . S
H885 C795 0.980 . S
H886 C795 0.979 . S
H887 C795 0.980 1_554 S
H888 C822 0.979 . S
H889 C822 0.981 . S
H890 C822 0.981 . S
H891 C823 0.980 . S
H892 C823 0.979 . S
H893 C823 0.980 . S
H894 C850 0.979 . S
H895 C850 0.981 . S
H896 C850 0.981 . S
H897 C851 0.980 . S
H898 C851 0.979 . S
H899 C851 0.980 . S
O900 C710 1.438 . S
O900 Cu852 1.923 . S
O900 Cu853 1.905 . S
O901 C711 1.533 . S
O901 Cu852 1.930 . S
O901 Cu861 1.920 1_554 S
O902 C738 1.438 . S
O902 Cu854 1.923 . S
O902 Cu855 1.905 . S
O903 C739 1.533 . S
O903 Cu854 1.930 . S
O903 Cu863 1.920 . S
O904 C766 1.438 . S
O904 Cu856 1.923 . S
O904 Cu857 1.905 . S
O905 C767 1.533 . S
O905 Cu856 1.930 . S
O905 Cu859 1.920 . S
O906 C794 1.438 . S
O906 Cu858 1.923 . S
O906 Cu859 1.905 . S
O907 C795 1.533 . S
O907 Cu855 1.920 1_556 S
O907 Cu858 1.930 . S
O908 C822 1.438 . S
O908 Cu860 1.923 . S
O908 Cu861 1.905 . S
O909 C823 1.533 . S
O909 Cu857 1.920 . S
O909 Cu860 1.930 . S
O910 C850 1.438 . S
O910 Cu862 1.923 . S
O910 Cu863 1.905 . S
O911 C851 1.533 . S
O911 Cu853 1.920 . S
O911 Cu862 1.930 . S
C912 C913 1.369 . S
C912 C914 1.419 . S
C912 H916 0.930 . S
C913 C912 1.369 . S
C913 C922 1.429 1_455 S
C914 C912 1.419 . S
C914 C915 1.363 1_455 S
C914 H917 0.929 . S
C915 C914 1.363 1_655 S
C915 C921 1.428 . S
H916 C912 0.930 . S
H917 C914 0.929 . S
S918 N919 1.613 . S
S918 N920 1.610 . S
N919 S918 1.613 . S
N919 C922 1.350 . S
N920 S918 1.610 . S
N920 C921 1.351 . S
C921 C915 1.428 . S
C921 N920 1.351 . S
C921 C922 1.434 . S
C922 C913 1.429 1_655 S
C922 N919 1.350 . S
C922 C921 1.434 . S
C923 C924 1.369 . S
C923 C925 1.419 . S
C923 H927 0.930 . S
C924 C923 1.369 . S
C924 C933 1.429 1_565 S
C925 C923 1.419 . S
C925 C926 1.363 1_565 S
C925 H928 0.929 . S
C926 C925 1.363 1_545 S
C926 C932 1.428 . S
H927 C923 0.930 . S
H928 C925 0.929 . S
S929 N930 1.613 . S
S929 N931 1.610 . S
N930 S929 1.613 . S
N930 C933 1.350 . S
N931 S929 1.610 . S
N931 C932 1.351 . S
C932 C926 1.428 . S
C932 N931 1.351 . S
C932 C933 1.434 . S
C933 C924 1.429 1_545 S
C933 N930 1.350 . S
C933 C932 1.434 . S
C934 C935 1.369 . S
C934 C936 1.419 . S
C934 H938 0.930 . S
C935 C934 1.369 . S
C935 C944 1.429 1_455 S
C936 C934 1.419 . S
C936 C937 1.363 1_455 S
C936 H939 0.929 . S
C937 C936 1.363 1_655 S
C937 C943 1.428 . S
H938 C934 0.930 . S
H939 C936 0.929 . S
S940 N941 1.613 . S
S940 N942 1.610 . S
N941 S940 1.613 . S
N941 C944 1.350 . S
N942 S940 1.610 . S
N942 C943 1.351 . S
C943 C937 1.428 . S
C943 N942 1.351 . S
C943 C944 1.434 . S
C944 C935 1.429 1_655 S
C944 N941 1.350 . S
C944 C943 1.434 . S
C945 C946 1.369 1_545 S
C945 C947 1.419 . S
C945 H949 0.930 . S
C946 C945 1.369 1_565 S
C946 C955 1.429 . S
C947 C945 1.419 . S
C947 C948 1.363 . S
C947 H950 0.929 . S
C948 C947 1.363 . S
C948 C954 1.428 1_545 S
H949 C945 0.930 . S
H950 C947 0.929 . S
S951 N952 1.613 . S
S951 N953 1.610 . S
N952 S951 1.613 . S
N952 C955 1.350 . S
N953 S951 1.610 . S
N953 C954 1.351 . S
C954 C948 1.428 1_565 S
C954 N953 1.351 . S
C954 C955 1.434 . S
C955 C946 1.429 . S
C955 N952 1.350 . S
C955 C954 1.434 . S
C956 C957 1.369 1_455 S
C956 C958 1.419 . S
C956 H960 0.930 . S
C957 C956 1.369 1_655 S
C957 C966 1.429 . S
C958 C956 1.419 . S
C958 C959 1.363 . S
C958 H961 0.929 . S
C959 C958 1.363 . S
C959 C965 1.428 1_455 S
H960 C956 0.930 . S
H961 C958 0.929 . S
S962 N963 1.613 . S
S962 N964 1.610 . S
N963 S962 1.613 . S
N963 C966 1.350 . S
N964 S962 1.610 . S
N964 C965 1.351 . S
C965 C959 1.428 1_655 S
C965 N964 1.351 . S
C965 C966 1.434 . S
C966 C957 1.429 . S
C966 N963 1.350 . S
C966 C965 1.434 . S
C967 C968 1.369 . S
C967 C969 1.419 . S
C967 H971 0.930 . S
C968 C967 1.369 . S
C968 C977 1.429 1_545 S
C969 C967 1.419 . S
C969 C970 1.363 1_545 S
C969 H972 0.929 . S
C970 C969 1.363 1_565 S
C970 C976 1.428 . S
H971 C967 0.930 . S
H972 C969 0.929 . S
S973 N974 1.613 . S
S973 N975 1.610 . S
N974 S973 1.613 . S
N974 C977 1.350 . S
N975 S973 1.610 . S
N975 C976 1.351 . S
C976 C970 1.428 . S
C976 N975 1.351 . S
C976 C977 1.434 . S
C977 C968 1.429 1_565 S
C977 N974 1.350 . S
C977 C976 1.434 . S
C978 C979 1.369 . S
C978 C980 1.419 1_455 S
C978 H982 0.930 . S
C979 C978 1.369 . S
C979 C988 1.429 . S
C980 C978 1.419 1_655 S
C980 C981 1.363 . S
C980 H983 0.929 . S
C981 C980 1.363 . S
C981 C987 1.428 . S
H982 C978 0.930 . S
H983 C980 0.929 . S
S984 N985 1.613 . S
S984 N986 1.610 1_455 S
N985 S984 1.613 . S
N985 C988 1.350 . S
N986 S984 1.610 1_655 S
N986 C987 1.351 . S
C987 C981 1.428 . S
C987 N986 1.351 . S
C987 C988 1.434 1_655 S
C988 C979 1.429 . S
C988 N985 1.350 . S
C988 C987 1.434 1_455 S
C989 C990 1.369 . S
C989 C991 1.419 . S
C989 H993 0.930 . S
C990 C989 1.369 . S
C990 C999 1.429 1_545 S
C991 C989 1.419 . S
C991 C992 1.363 1_545 S
C991 H994 0.929 . S
C992 C991 1.363 1_565 S
C992 C998 1.428 . S
H993 C989 0.930 . S
H994 C991 0.929 . S
S995 N996 1.613 . S
S995 N997 1.610 . S
N996 S995 1.613 . S
N996 C999 1.350 . S
N997 S995 1.610 . S
N997 C998 1.351 . S
C998 C992 1.428 . S
C998 N997 1.351 . S
C998 C999 1.434 . S
C999 C990 1.429 1_565 S
C999 N996 1.350 . S
C999 C998 1.434 . S
C1000 C1001 1.369 . S
C1000 C1002 1.419 . S
C1000 H1004 0.930 . S
C1001 C1000 1.369 . S
C1001 C1010 1.429 1_556 S
C1002 C1000 1.419 . S
C1002 C1003 1.363 1_556 S
C1002 H1005 0.929 . S
C1003 C1002 1.363 1_554 S
C1003 C1009 1.428 . S
H1004 C1000 0.930 . S
H1005 C1002 0.929 . S
S1006 N1007 1.613 . S
S1006 N1008 1.610 . S
N1007 S1006 1.613 . S
N1007 C1010 1.350 . S
N1008 S1006 1.610 . S
N1008 C1009 1.351 . S
C1009 C1003 1.428 . S
C1009 N1008 1.351 . S
C1009 C1010 1.434 . S
C1010 C1001 1.429 1_554 S
C1010 N1007 1.350 . S
C1010 C1009 1.434 . S
C1011 C1012 1.369 . S
C1011 C1013 1.419 . S
C1011 H1015 0.930 . S
C1012 C1011 1.369 . S
C1012 C1021 1.429 1_554 S
C1013 C1011 1.419 . S
C1013 C1014 1.363 1_554 S
C1013 H1016 0.929 . S
C1014 C1013 1.363 1_556 S
C1014 C1020 1.428 . S
H1015 C1011 0.930 . S
H1016 C1013 0.929 . S
S1017 N1018 1.613 . S
S1017 N1019 1.610 . S
N1018 S1017 1.613 . S
N1018 C1021 1.350 . S
N1019 S1017 1.610 . S
N1019 C1020 1.351 . S
C1020 C1014 1.428 . S
C1020 N1019 1.351 . S
C1020 C1021 1.434 . S
C1021 C1012 1.429 1_556 S
C1021 N1018 1.350 . S
C1021 C1020 1.434 . S
C1022 C1023 1.369 1_554 S
C1022 C1024 1.419 . S
C1022 H1026 0.930 . S
C1023 C1022 1.369 1_556 S
C1023 C1032 1.429 . S
C1024 C1022 1.419 . S
C1024 C1025 1.363 . S
C1024 H1027 0.929 . S
C1025 C1024 1.363 . S
C1025 C1031 1.428 1_554 S
H1026 C1022 0.930 . S
H1027 C1024 0.929 . S
S1028 N1029 1.613 . S
S1028 N1030 1.610 . S
N1029 S1028 1.613 . S
N1029 C1032 1.350 . S
N1030 S1028 1.610 . S
N1030 C1031 1.351 . S
C1031 C1025 1.428 1_556 S
C1031 N1030 1.351 . S
C1031 C1032 1.434 . S
C1032 C1023 1.429 . S
C1032 N1029 1.350 . S
C1032 C1031 1.434 . S
C1033 C1034 1.369 1_554 S
C1033 C1035 1.419 . S
C1033 H1037 0.930 . S
C1034 C1033 1.369 1_556 S
C1034 C1043 1.429 . S
C1035 C1033 1.419 . S
C1035 C1036 1.363 . S
C1035 H1038 0.929 . S
C1036 C1035 1.363 . S
C1036 C1042 1.428 1_554 S
H1037 C1033 0.930 . S
H1038 C1035 0.929 . S
S1039 N1040 1.613 . S
S1039 N1041 1.610 . S
N1040 S1039 1.613 . S
N1040 C1043 1.350 . S
N1041 S1039 1.610 . S
N1041 C1042 1.351 . S
C1042 C1036 1.428 1_556 S
C1042 N1041 1.351 . S
C1042 C1043 1.434 . S
C1043 C1034 1.429 . S
C1043 N1040 1.350 . S
C1043 C1042 1.434 . S
C1044 C1045 1.369 . S
C1044 C1046 1.419 . S
C1044 H1048 0.930 . S
C1045 C1044 1.369 . S
C1045 C1054 1.429 . S
C1046 C1044 1.419 . S
C1046 C1047 1.363 . S
C1046 H1049 0.929 . S
C1047 C1046 1.363 . S
C1047 C1053 1.428 . S
H1048 C1044 0.930 . S
H1049 C1046 0.929 . S
S1050 N1051 1.613 . S
S1050 N1052 1.610 . S
N1051 S1050 1.613 . S
N1051 C1054 1.350 . S
N1052 S1050 1.610 . S
N1052 C1053 1.351 . S
C1053 C1047 1.428 . S
C1053 N1052 1.351 . S
C1053 C1054 1.434 . S
C1054 C1045 1.429 . S
C1054 N1051 1.350 . S
C1054 C1053 1.434 . S
C1055 C1056 1.369 . S
C1055 C1057 1.419 . S
C1055 H1059 0.930 . S
C1056 C1055 1.369 . S
C1056 C1065 1.429 . S
C1057 C1055 1.419 . S
C1057 C1058 1.363 . S
C1057 H1060 0.929 . S
C1058 C1057 1.363 . S
C1058 C1064 1.428 . S
H1059 C1055 0.930 . S
H1060 C1057 0.929 . S
S1061 N1062 1.613 . S
S1061 N1063 1.610 . S
N1062 S1061 1.613 . S
N1062 C1065 1.350 . S
N1063 S1061 1.610 . S
N1063 C1064 1.351 . S
C1064 C1058 1.428 . S
C1064 N1063 1.351 . S
C1064 C1065 1.434 . S
C1065 C1056 1.429 . S
C1065 N1062 1.350 . S
C1065 C1064 1.434 . S
C1066 C1067 1.369 . S
C1066 C1068 1.419 . S
C1066 H1070 0.930 . S
C1067 C1066 1.369 . S
C1067 C1076 1.429 . S
C1068 C1066 1.419 . S
C1068 C1069 1.363 . S
C1068 H1071 0.929 . S
C1069 C1068 1.363 . S
C1069 C1075 1.428 . S
H1070 C1066 0.930 . S
H1071 C1068 0.929 . S
S1072 N1073 1.613 . S
S1072 N1074 1.610 . S
N1073 S1072 1.613 . S
N1073 C1076 1.350 . S
N1074 S1072 1.610 . S
N1074 C1075 1.351 . S
C1075 C1069 1.428 . S
C1075 N1074 1.351 . S
C1075 C1076 1.434 . S
C1076 C1067 1.429 . S
C1076 N1073 1.350 . S
C1076 C1075 1.434 . S
C1077 C1078 1.369 . S
C1077 C1079 1.419 . S
C1077 H1081 0.930 . S
C1078 C1077 1.369 . S
C1078 C1087 1.429 . S
C1079 C1077 1.419 . S
C1079 C1080 1.363 . S
C1079 H1082 0.929 . S
C1080 C1079 1.363 . S
C1080 C1086 1.428 . S
H1081 C1077 0.930 . S
H1082 C1079 0.929 . S
S1083 N1084 1.613 . S
S1083 N1085 1.610 . S
N1084 S1083 1.613 . S
N1084 C1087 1.350 . S
N1085 S1083 1.610 . S
N1085 C1086 1.351 . S
C1086 C1080 1.428 . S
C1086 N1085 1.351 . S
C1086 C1087 1.434 . S
C1087 C1078 1.429 . S
C1087 N1084 1.350 . S
C1087 C1086 1.434 . S
C1088 C1089 1.369 . S
C1088 C1090 1.419 . S
C1088 H1092 0.930 . S
C1089 C1088 1.369 . S
C1089 C1098 1.429 . S
C1090 C1088 1.419 . S
C1090 C1091 1.363 . S
C1090 H1093 0.929 . S
C1091 C1090 1.363 . S
C1091 C1097 1.428 . S
H1092 C1088 0.930 . S
H1093 C1090 0.929 . S
S1094 N1095 1.613 . S
S1094 N1096 1.610 . S
N1095 S1094 1.613 . S
N1095 C1098 1.350 . S
N1096 S1094 1.610 . S
N1096 C1097 1.351 . S
C1097 C1091 1.428 . S
C1097 N1096 1.351 . S
C1097 C1098 1.434 . S
C1098 C1089 1.429 . S
C1098 N1095 1.350 . S
C1098 C1097 1.434 . S
C1099 C1100 1.369 . S
C1099 C1101 1.419 . S
C1099 H1103 0.930 . S
C1100 C1099 1.369 . S
C1100 C1109 1.429 . S
C1101 C1099 1.419 . S
C1101 C1102 1.363 . S
C1101 H1104 0.929 . S
C1102 C1101 1.363 . S
C1102 C1108 1.428 . S
H1103 C1099 0.930 . S
H1104 C1101 0.929 . S
S1105 N1106 1.613 . S
S1105 N1107 1.610 . S
N1106 S1105 1.613 . S
N1106 C1109 1.350 . S
N1107 S1105 1.610 . S
N1107 C1108 1.351 . S
C1108 C1102 1.428 . S
C1108 N1107 1.351 . S
C1108 C1109 1.434 . S
C1109 C1100 1.429 . S
C1109 N1106 1.350 . S
C1109 C1108 1.434 . S
C1110 C1111 1.369 . S
C1110 C1112 1.419 . S
C1110 H1114 0.930 . S
C1111 C1110 1.369 . S
C1111 C1120 1.429 . S
C1112 C1110 1.419 . S
C1112 C1113 1.363 . S
C1112 H1115 0.929 . S
C1113 C1112 1.363 . S
C1113 C1119 1.428 . S
H1114 C1110 0.930 . S
H1115 C1112 0.929 . S
S1116 N1117 1.613 . S
S1116 N1118 1.610 . S
N1117 S1116 1.613 . S
N1117 C1120 1.350 . S
N1118 S1116 1.610 . S
N1118 C1119 1.351 . S
C1119 C1113 1.428 . S
C1119 N1118 1.351 . S
C1119 C1120 1.434 . S
C1120 C1111 1.429 . S
C1120 N1117 1.350 . S
C1120 C1119 1.434 . S
C1121 C1122 1.369 . S
C1121 C1123 1.419 . S
C1121 H1125 0.930 . S
C1122 C1121 1.369 . S
C1122 C1131 1.429 . S
C1123 C1121 1.419 . S
C1123 C1124 1.363 . S
C1123 H1126 0.929 . S
C1124 C1123 1.363 . S
C1124 C1130 1.428 . S
H1125 C1121 0.930 . S
H1126 C1123 0.929 . S
S1127 N1128 1.613 . S
S1127 N1129 1.610 . S
N1128 S1127 1.613 . S
N1128 C1131 1.350 . S
N1129 S1127 1.610 . S
N1129 C1130 1.351 . S
C1130 C1124 1.428 . S
C1130 N1129 1.351 . S
C1130 C1131 1.434 . S
C1131 C1122 1.429 . S
C1131 N1128 1.350 . S
C1131 C1130 1.434 . S
C1132 C1133 1.369 . S
C1132 C1134 1.419 . S
C1132 H1136 0.930 . S
C1133 C1132 1.369 . S
C1133 C1142 1.429 . S
C1134 C1132 1.419 . S
C1134 C1135 1.363 . S
C1134 H1137 0.929 . S
C1135 C1134 1.363 . S
C1135 C1141 1.428 . S
H1136 C1132 0.930 . S
H1137 C1134 0.929 . S
S1138 N1139 1.613 . S
S1138 N1140 1.610 . S
N1139 S1138 1.613 . S
N1139 C1142 1.350 . S
N1140 S1138 1.610 . S
N1140 C1141 1.351 . S
C1141 C1135 1.428 . S
C1141 N1140 1.351 . S
C1141 C1142 1.434 . S
C1142 C1133 1.429 . S
C1142 N1139 1.350 . S
C1142 C1141 1.434 . S
C1143 C1144 1.369 . S
C1143 C1145 1.419 . S
C1143 H1147 0.930 . S
C1144 C1143 1.369 . S
C1144 C1153 1.429 . S
C1145 C1143 1.419 . S
C1145 C1146 1.363 . S
C1145 H1148 0.929 . S
C1146 C1145 1.363 . S
C1146 C1152 1.428 . S
H1147 C1143 0.930 . S
H1148 C1145 0.929 . S
S1149 N1150 1.613 . S
S1149 N1151 1.610 . S
N1150 S1149 1.613 . S
N1150 C1153 1.350 . S
N1151 S1149 1.610 . S
N1151 C1152 1.351 . S
C1152 C1146 1.428 . S
C1152 N1151 1.351 . S
C1152 C1153 1.434 . S
C1153 C1144 1.429 . S
C1153 N1150 1.350 . S
C1153 C1152 1.434 . S
C1154 C1155 1.369 . S
C1154 C1156 1.419 . S
C1154 H1158 0.930 . S
C1155 C1154 1.369 . S
C1155 C1164 1.429 . S
C1156 C1154 1.419 . S
C1156 C1157 1.363 . S
C1156 H1159 0.929 . S
C1157 C1156 1.363 . S
C1157 C1163 1.428 . S
H1158 C1154 0.930 . S
H1159 C1156 0.929 . S
S1160 N1161 1.613 . S
S1160 N1162 1.610 . S
N1161 S1160 1.613 . S
N1161 C1164 1.350 . S
N1162 S1160 1.610 . S
N1162 C1163 1.351 . S
C1163 C1157 1.428 . S
C1163 N1162 1.351 . S
C1163 C1164 1.434 . S
C1164 C1155 1.429 . S
C1164 N1161 1.350 . S
C1164 C1163 1.434 . S
C1165 C1166 1.369 . S
C1165 C1167 1.419 . S
C1165 H1169 0.930 . S
C1166 C1165 1.369 . S
C1166 C1175 1.429 . S
C1167 C1165 1.419 . S
C1167 C1168 1.363 . S
C1167 H1170 0.929 . S
C1168 C1167 1.363 . S
C1168 C1174 1.428 . S
H1169 C1165 0.930 . S
H1170 C1167 0.929 . S
S1171 N1172 1.613 . S
S1171 N1173 1.610 . S
N1172 S1171 1.613 . S
N1172 C1175 1.350 . S
N1173 S1171 1.610 . S
N1173 C1174 1.351 . S
C1174 C1168 1.428 . S
C1174 N1173 1.351 . S
C1174 C1175 1.434 . S
C1175 C1166 1.429 . S
C1175 N1172 1.350 . S
C1175 C1174 1.434 . S
C913 C31 1.550 1_455 S
C915 C341 1.553 1_655 S
C924 C73 1.786 . S
C926 C612 1.793 . S
C935 C98 1.797 . S
C937 C243 1.787 . S
C946 C542 1.554 1_565 S
C948 C1 1.550 1_545 S
C957 C113 1.555 1_655 S
C959 C259 1.556 1_455 S
C968 C156 1.789 . S
C970 C529 1.793 . S
C979 C326 1.784 . S
C981 C15 1.795 . S
C990 C457 1.547 1_545 S
C992 C86 1.563 1_565 S
C1001 C827 1.556 1_556 S
C1003 C58 1.550 1_554 S
C1012 C810 1.795 . S
C1014 C45 1.787 . S
C1023 C729 1.794 . S
C1025 C126 1.790 . S
C1034 C143 1.559 1_556 S
C1036 C742 1.555 1_554 S
C1045 C840 1.797 . S
C1047 C301 1.791 . S
C1056 C229 1.555 . S
C1058 C770 1.554 . S
C1067 C384 1.788 . S
C1069 C757 1.789 . S
C1078 C685 1.549 . S
C1080 C314 1.557 . S
C1089 C599 1.559 . S
C1091 C286 1.550 . S
C1100 C273 1.783 . S
C1102 C582 1.792 . S
C1111 C354 1.796 . S
C1113 C501 1.790 . S
C1122 C514 1.550 . S
C1124 C371 1.557 . S
C1133 C797 1.549 . S
C1135 C487 1.558 . S
C1144 C554 1.789 . S
C1146 C699 1.795 . S
C1155 C715 1.550 . S
C1157 C569 1.557 . S
C1166 C471 1.783 . S
C1168 C782 1.792 . S
