# Generated by pormake.
# Topology zfe, (5)-cn, num edge types: 1
# Building blocks:
#     Node 0, Type 0, BuildingBlock: XOMCOT_clean_sbu_0, # of connection points: 5
#     Node 1, Type 0, BuildingBlock: XOMCOT_clean_sbu_0, # of connection points: 5
#     Node 2, Type 0, BuildingBlock: XOMCOT_clean_sbu_0, # of connection points: 5
#     Node 3, Type 0, BuildingBlock: XOMCOT_clean_sbu_0, # of connection points: 5
#     Node 4, Type 0, BuildingBlock: XOMCOT_clean_sbu_0, # of connection points: 5
#     Node 5, Type 0, BuildingBlock: XOMCOT_clean_sbu_0, # of connection points: 5
#     Node 6, Type 0, BuildingBlock: XOMCOT_clean_sbu_0, # of connection points: 5
#     Node 7, Type 0, BuildingBlock: XOMCOT_clean_sbu_0, # of connection points: 5
#     Node 8, Type 0, BuildingBlock: XOMCOT_clean_sbu_0, # of connection points: 5
#     Node 9, Type 0, BuildingBlock: XOMCOT_clean_sbu_0, # of connection points: 5
#     Node 10, Type 0, BuildingBlock: XOMCOT_clean_sbu_0, # of connection points: 5
#     Node 11, Type 0, BuildingBlock: XOMCOT_clean_sbu_0, # of connection points: 5
#     Node 12, Type 0, BuildingBlock: XOMCOT_clean_sbu_0, # of connection points: 5
#     Node 13, Type 0, BuildingBlock: XOMCOT_clean_sbu_0, # of connection points: 5
#     Node 14, Type 0, BuildingBlock: XOMCOT_clean_sbu_0, # of connection points: 5
#     Node 15, Type 0, BuildingBlock: XOMCOT_clean_sbu_0, # of connection points: 5
#     Edge 16, Type (0, 0), BuildingBlock: EZIPEK_clean_linker_0, # of connection points: 2
#     Edge 17, Type (0, 0), BuildingBlock: EZIPEK_clean_linker_0, # of connection points: 2
#     Edge 18, Type (0, 0), BuildingBlock: EZIPEK_clean_linker_0, # of connection points: 2
#     Edge 19, Type (0, 0), BuildingBlock: EZIPEK_clean_linker_0, # of connection points: 2
#     Edge 20, Type (0, 0), BuildingBlock: EZIPEK_clean_linker_0, # of connection points: 2
#     Edge 21, Type (0, 0), BuildingBlock: EZIPEK_clean_linker_0, # of connection points: 2
#     Edge 22, Type (0, 0), BuildingBlock: EZIPEK_clean_linker_0, # of connection points: 2
#     Edge 23, Type (0, 0), BuildingBlock: EZIPEK_clean_linker_0, # of connection points: 2
#     Edge 24, Type (0, 0), BuildingBlock: EZIPEK_clean_linker_0, # of connection points: 2
#     Edge 25, Type (0, 0), BuildingBlock: EZIPEK_clean_linker_0, # of connection points: 2
#     Edge 26, Type (0, 0), BuildingBlock: EZIPEK_clean_linker_0, # of connection points: 2
#     Edge 27, Type (0, 0), BuildingBlock: EZIPEK_clean_linker_0, # of connection points: 2
#     Edge 28, Type (0, 0), BuildingBlock: EZIPEK_clean_linker_0, # of connection points: 2
#     Edge 29, Type (0, 0), BuildingBlock: EZIPEK_clean_linker_0, # of connection points: 2
#     Edge 30, Type (0, 0), BuildingBlock: EZIPEK_clean_linker_0, # of connection points: 2
#     Edge 31, Type (0, 0), BuildingBlock: EZIPEK_clean_linker_0, # of connection points: 2
#     Edge 32, Type (0, 0), BuildingBlock: EZIPEK_clean_linker_0, # of connection points: 2
#     Edge 33, Type (0, 0), BuildingBlock: EZIPEK_clean_linker_0, # of connection points: 2
#     Edge 34, Type (0, 0), BuildingBlock: EZIPEK_clean_linker_0, # of connection points: 2
#     Edge 35, Type (0, 0), BuildingBlock: EZIPEK_clean_linker_0, # of connection points: 2
#     Edge 36, Type (0, 0), BuildingBlock: EZIPEK_clean_linker_0, # of connection points: 2
#     Edge 37, Type (0, 0), BuildingBlock: EZIPEK_clean_linker_0, # of connection points: 2
#     Edge 38, Type (0, 0), BuildingBlock: EZIPEK_clean_linker_0, # of connection points: 2
#     Edge 39, Type (0, 0), BuildingBlock: EZIPEK_clean_linker_0, # of connection points: 2
#     Edge 40, Type (0, 0), BuildingBlock: EZIPEK_clean_linker_0, # of connection points: 2
#     Edge 41, Type (0, 0), BuildingBlock: EZIPEK_clean_linker_0, # of connection points: 2
#     Edge 42, Type (0, 0), BuildingBlock: EZIPEK_clean_linker_0, # of connection points: 2
#     Edge 43, Type (0, 0), BuildingBlock: EZIPEK_clean_linker_0, # of connection points: 2
#     Edge 44, Type (0, 0), BuildingBlock: EZIPEK_clean_linker_0, # of connection points: 2
#     Edge 45, Type (0, 0), BuildingBlock: EZIPEK_clean_linker_0, # of connection points: 2
#     Edge 46, Type (0, 0), BuildingBlock: EZIPEK_clean_linker_0, # of connection points: 2
#     Edge 47, Type (0, 0), BuildingBlock: EZIPEK_clean_linker_0, # of connection points: 2
#     Edge 48, Type (0, 0), BuildingBlock: EZIPEK_clean_linker_0, # of connection points: 2
#     Edge 49, Type (0, 0), BuildingBlock: EZIPEK_clean_linker_0, # of connection points: 2
#     Edge 50, Type (0, 0), BuildingBlock: EZIPEK_clean_linker_0, # of connection points: 2
#     Edge 51, Type (0, 0), BuildingBlock: EZIPEK_clean_linker_0, # of connection points: 2
#     Edge 52, Type (0, 0), BuildingBlock: EZIPEK_clean_linker_0, # of connection points: 2
#     Edge 53, Type (0, 0), BuildingBlock: EZIPEK_clean_linker_0, # of connection points: 2
#     Edge 54, Type (0, 0), BuildingBlock: EZIPEK_clean_linker_0, # of connection points: 2
#     Edge 55, Type (0, 0), BuildingBlock: EZIPEK_clean_linker_0, # of connection points: 2
# Relax obj value: 0.202
# Max RMSD: 0.173
# Mean RMSD: 0.173
data_MOF--net-zfe--node1-XOMCOT_clean_sbu_0--edge1-EZIPEK_clean_linker_0
_symmetry_space_group_name_H-M    P1
_symmetry_Int_Tables_number       1
_symmetry_cell_setting            triclinic
loop_
_symmetry_equiv_pos_as_xyz
'x, y, z'
_cell_length_a     42.321378
_cell_length_b     42.773891
_cell_length_c     20.397515
_cell_angle_alpha  89.920998
_cell_angle_beta   90.021576
_cell_angle_gamma 90.295379
loop_
_atom_site_label
_atom_site_type_symbol
_atom_site_fract_x
_atom_site_fract_y
_atom_site_fract_z
_atom_type_partial_charge
Co0 Co 0.0375 0.24308 0.05853 0.0
C1 C 0.08581 0.29346 0.03224 0.0
C2 C 0.03846 0.30718 1.00905 0.0
C3 C 0.05831 0.33216 0.99665 0.0
N4 N 0.05565 0.28286 0.03129 0.0
N5 N 0.08792 0.32332 1.01149 0.0
H6 H 0.10601 0.28034 0.04816 0.0
H7 H 0.01308 0.30683 1.00287 0.0
C8 C 0.02879 0.24412 0.91196 0.0
O9 O 0.05897 0.25118 0.90774 0.0
N10 N 0.01849 0.20414 0.08563 0.0
C11 C 0.03099 0.1823 0.12561 0.0
C12 C 0.01018 0.15754 0.1302 0.0
C13 C 0.99021 0.19276 0.06709 0.0
N14 N 0.98469 0.1644 0.09351 0.0
C15 C 0.10064 0.22018 0.07332 0.0
C16 C 0.09087 0.16761 0.99764 0.0
C17 C 0.11598 0.16779 0.04239 0.0
C18 C 0.12203 0.19535 0.0772 0.0
C19 C 0.07087 0.19347 0.99303 0.0
N20 N 0.07483 0.21896 0.0328 0.0
H21 H 0.1031 0.23864 0.10892 0.0
H22 H 0.04987 0.19085 0.96396 0.0
H23 H 0.05384 0.18403 0.1487 0.0
H24 H 0.97413 0.20472 0.03442 0.0
O25 O 0.04965 0.25158 0.14802 0.0
O26 O 1.00389 0.26461 0.10659 0.0
O27 O 0.01639 0.23924 0.96855 0.0
C28 C 0.02176 0.2628 0.15864 0.0
H29 H 0.05159 0.35513 0.97944 0.0
H30 H 0.01352 0.13609 0.15749 0.0
H31 H 0.08534 0.14673 0.96981 0.0
H32 H 0.14123 0.19642 0.11227 0.0
Co33 Co 0.78059 0.0321 0.04571 0.0
C34 C 0.72824 0.07972 0.0436 0.0
C35 C 0.75756 0.08039 0.95776 0.0
C36 C 0.73612 0.10413 0.95234 0.0
N37 N 0.75292 0.0651 0.01498 0.0
N38 N 0.71785 0.1037 1.00616 0.0
H39 H 0.71821 0.07335 0.09046 0.0
H40 H 0.77605 0.07529 0.923 0.0
C41 C 0.79539 0.99784 0.91368 0.0
O42 O 0.81964 0.98213 0.93557 0.0
N43 N 0.80844 0.99946 0.0768 0.0
C44 C 0.83206 0.00388 0.12035 0.0
C45 C 0.8473 0.97602 0.13007 0.0
C46 C 0.80831 0.96854 0.06393 0.0
N47 N 0.83262 0.95404 0.09384 0.0
C48 C 0.816 0.08847 0.05536 0.0
C49 C 0.8724 0.06501 1.00888 0.0
C50 C 0.87203 0.09455 0.0382 0.0
C51 C 0.84316 0.10691 0.05875 0.0
C52 C 0.84437 0.04793 1.00356 0.0
N53 N 0.81683 0.05914 0.02898 0.0
H54 H 0.79459 0.0971 0.07761 0.0
H55 H 0.84573 0.02464 0.98477 0.0
H56 H 0.83856 0.02619 0.14148 0.0
H57 H 0.79191 0.95714 0.03085 0.0
O58 O 0.77459 0.04338 0.1363 0.0
O59 O 0.74529 0.0089 0.08386 0.0
O60 O 0.77952 0.01616 0.95083 0.0
C61 C 0.75254 0.02221 0.13955 0.0
H62 H 0.73407 0.12059 0.91221 0.0
H63 H 0.86873 0.97249 0.15808 0.0
H64 H 0.8944 0.05466 0.99291 0.0
H65 H 0.84207 0.12971 0.08172 0.0
Co66 Co 0.98205 0.76653 0.09545 0.0
C67 C 0.92251 0.7286 0.08462 0.0
C68 C 0.96439 0.70167 0.06705 0.0
C69 C 0.93861 0.68215 0.06199 0.0
N70 N 0.95439 0.7309 0.08029 0.0
N71 N 0.91245 0.69907 0.07309 0.0
H72 H 0.90697 0.74776 0.09652 0.0
H73 H 0.98881 0.69504 0.06055 0.0
C74 C 0.98638 0.75471 0.94705 0.0
O75 O 0.96221 0.73538 0.94695 0.0
N76 N 0.01087 0.80175 0.11121 0.0
C77 C 0.01453 0.81807 0.16746 0.0
C78 C 0.0403 0.83767 0.16168 0.0
C79 C 0.03489 0.81175 0.07216 0.0
N80 N 0.05314 0.83351 0.10204 0.0
C81 C 0.93852 0.81315 0.13449 0.0
C82 C 0.90795 0.82151 0.0162 0.0
C83 C 0.90068 0.84101 0.06905 0.0
C84 C 0.91557 0.83612 0.1291 0.0
C85 C 0.93134 0.79875 0.0237 0.0
N86 N 0.94727 0.79561 0.08168 0.0
H87 H 0.94957 0.80992 0.18147 0.0
H88 H 0.93616 0.78382 0.9829 0.0
H89 H 1.00071 0.81488 0.21148 0.0
H90 H 0.03999 0.80255 0.02401 0.0
O91 O 0.9765 0.76026 0.18858 0.0
O92 O 0.01454 0.73883 0.13006 0.0
O93 O 0.99556 0.76821 0.99972 0.0
C94 C 1.00169 0.74319 0.18741 0.0
H95 H 0.93893 0.65742 0.05084 0.0
H96 H 0.0496 0.85306 0.19919 0.0
H97 H 0.89633 0.82448 0.9693 0.0
H98 H 0.91011 0.85059 0.17114 0.0
Co99 Co 0.24371 0.98138 0.08848 0.0
C100 C 0.29062 0.92817 0.08559 0.0
C101 C 0.3097 0.97303 0.05883 0.0
C102 C 0.33328 0.95139 0.05304 0.0
N103 N 0.28299 0.95873 0.07945 0.0
N104 N 0.32132 0.92335 0.06968 0.0
H105 H 0.27432 0.90992 0.1003 0.0
H106 H 0.31172 0.99765 0.04739 0.0
C107 C 0.22933 1.00216 0.95042 0.0
O108 O 0.19895 1.00055 0.96256 0.0
N109 N 0.20527 0.00618 0.09599 0.0
C110 C 0.1762 0.99723 0.11609 0.0
C111 C 0.15609 0.02247 0.11211 0.0
C112 C 0.20247 0.03699 0.0816 0.0
N113 N 0.1726 0.04728 0.08978 0.0
C114 C 0.20864 0.92621 0.12267 0.0
C115 C 0.18177 0.91429 1.00205 0.0
C116 C 0.16866 0.90026 0.05789 0.0
C117 C 0.18354 0.90501 0.11808 0.0
C118 C 0.20724 0.93525 1.00883 0.0
N119 N 0.21848 0.94333 0.06952 0.0
H120 H 0.21841 0.93021 0.17063 0.0
H121 H 0.21688 0.94516 0.96506 0.0
H122 H 0.1697 0.97413 0.13266 0.0
H123 H 0.22186 0.05154 0.06522 0.0
O124 O 0.24491 0.97717 0.18251 0.0
O125 O 0.26749 0.01581 0.12808 0.0
O126 O 0.24937 0.9939 0.99358 0.0
C127 C 0.26128 1.00278 0.18437 0.0
H128 H 0.3573 0.9557 0.03699 0.0
H129 H 0.13121 0.02261 0.12439 0.0
H130 H 0.17169 0.90999 0.95407 0.0
H131 H 0.17471 0.89371 0.16203 0.0
Co132 Co 0.05751 0.77306 0.55377 0.0
C133 C 0.10666 0.72112 0.55075 0.0
C134 C 0.07003 0.71472 0.62163 0.0
C135 C 0.09 0.68987 0.626 0.0
N136 N 0.08116 0.73553 0.57745 0.0
N137 N 0.11289 0.69354 0.58101 0.0
H138 H 0.11917 0.72918 0.50775 0.0
H139 H 0.04774 0.71642 0.64709 0.0
C140 C 0.05334 0.77326 0.70053 0.0
O141 O 0.08433 0.77503 0.70084 0.0
N142 N 0.03112 0.80857 0.53119 0.0
C143 C 0.03874 0.83646 0.50452 0.0
C144 C 0.01147 0.85374 0.49733 0.0
C145 C 0.99934 0.8089 0.53756 0.0
N146 N 0.98667 0.83624 0.51768 0.0
C147 C 0.1197 0.7994 0.54507 0.0
C148 C 0.10639 0.85374 0.61231 0.0
C149 C 0.13352 0.85256 0.57312 0.0
C150 C 0.14095 0.82446 0.54209 0.0
C151 C 0.08591 0.82791 0.61474 0.0
N152 N 0.09195 0.80149 0.57907 0.0
H153 H 0.12428 0.77969 0.51413 0.0
H154 H 0.06359 0.83053 0.63955 0.0
H155 H 0.06232 0.8437 0.49067 0.0
H156 H 0.98567 0.78934 0.55609 0.0
O157 O 0.07016 0.76872 0.46417 0.0
O158 O 0.02729 0.74695 0.50514 0.0
O159 O 0.03823 0.77332 0.64576 0.0
C160 C 0.04457 0.75296 0.45337 0.0
H161 H 0.08668 0.66938 0.65656 0.0
H162 H 0.00984 0.87713 0.47731 0.0
H163 H 0.09994 0.87518 0.63702 0.0
H164 H 0.16175 0.82278 0.51136 0.0
Co165 Co 0.23923 0.05605 0.54513 0.0
C166 C 0.29758 0.09635 0.53273 0.0
C167 C 0.26704 0.11026 0.61128 0.0
C168 C 0.29292 0.12972 0.61117 0.0
N169 N 0.2695 0.08963 0.56144 0.0
N170 N 0.31192 0.12099 0.56182 0.0
H171 H 0.30789 0.08325 0.49293 0.0
H172 H 0.24779 0.11094 0.64603 0.0
C173 C 0.22927 0.02743 0.68027 0.0
O174 O 0.20305 0.01357 0.66247 0.0
N175 N 0.20963 0.02156 0.53 0.0
C176 C 0.17962 0.02343 0.50835 0.0
C177 C 0.16629 0.99404 0.5094 0.0
C178 C 0.21479 0.99054 0.53904 0.0
N179 N 0.1882 0.97331 0.52955 0.0
C180 C 0.20549 0.11228 0.52803 0.0
C181 C 0.15241 0.09749 0.60039 0.0
C182 C 0.15214 0.12398 0.56015 0.0
C183 C 0.17982 0.13245 0.52717 0.0
C184 C 0.17935 0.0788 0.60273 0.0
N185 N 0.20491 0.08525 0.56391 0.0
H186 H 0.22544 0.11766 0.49685 0.0
H187 H 0.17789 0.0579 0.63095 0.0
H188 H 0.16797 0.04469 0.49324 0.0
H189 H 0.23725 0.98098 0.55437 0.0
O190 O 0.23989 0.06316 0.4524 0.0
O191 O 0.27221 0.0311 0.50414 0.0
O192 O 0.24527 0.04438 0.64063 0.0
C193 C 0.26239 0.04282 0.44854 0.0
H194 H 0.29779 0.1485 0.64532 0.0
H195 H 0.14218 0.98821 0.49621 0.0
H196 H 0.13135 0.09024 0.62662 0.0
H197 H 0.18049 0.15294 0.49587 0.0
Co198 Co 0.95675 0.2382 0.51292 0.0
C199 C 0.91811 0.29658 0.52651 0.0
C200 C 0.89576 0.25711 0.57211 0.0
C201 C 0.87659 0.28241 0.58032 0.0
N202 N 0.92197 0.26563 0.53826 0.0
N203 N 0.89056 0.30704 0.55169 0.0
H204 H 0.93478 0.31116 0.50022 0.0
H205 H 0.8901 0.23396 0.58953 0.0
C206 C 0.96096 0.23199 0.66254 0.0
O207 O 0.93201 0.22107 0.66532 0.0
N208 N 0.99061 0.21065 0.48773 0.0
C209 C 0.98752 0.18664 0.44542 0.0
C210 C 0.01393 0.16835 0.44952 0.0
C211 C 0.01945 0.20751 0.51491 0.0
N212 N 0.03406 0.18156 0.49276 0.0
C213 C 0.9039 0.19839 0.48819 0.0
C214 C 0.9268 0.14697 0.55486 0.0
C215 C 0.89963 0.1437 0.51612 0.0
C216 C 0.88755 0.17006 0.48432 0.0
C217 C 0.94172 0.17604 0.55952 0.0
N218 N 0.93043 0.20128 0.52596 0.0
H219 H 0.89577 0.21798 0.45932 0.0
H220 H 0.96389 0.17767 0.58544 0.0
H221 H 0.96658 0.1817 0.41673 0.0
H222 H 0.02899 0.223 0.55196 0.0
O223 O 0.94799 0.24459 0.42038 0.0
O224 O 0.98124 0.27313 0.47858 0.0
O225 O 0.97363 0.23885 0.60715 0.0
C226 C 0.9698 0.26611 0.42107 0.0
H227 H 0.85397 0.28279 0.60511 0.0
H228 H 0.01799 0.14671 0.42343 0.0
H229 H 0.93705 0.12693 0.57932 0.0
H230 H 0.86666 0.1683 0.45379 0.0
Co231 Co 0.77687 0.95458 0.49828 0.0
C232 C 0.72868 0.90171 0.4978 0.0
C233 C 0.71242 0.94497 0.53885 0.0
C234 C 0.6882 0.92367 0.54213 0.0
N235 N 0.73784 0.93146 0.51125 0.0
N236 N 0.6983 0.89661 0.51636 0.0
H237 H 0.74357 0.88425 0.47548 0.0
H238 H 0.71163 0.96891 0.55576 0.0
C239 C 0.79392 0.97843 0.63553 0.0
O240 O 0.8237 0.98052 0.6187 0.0
N241 N 0.81504 0.97923 0.48551 0.0
C242 C 0.84249 0.97018 0.45801 0.0
C243 C 0.86288 0.9954 0.45578 0.0
C244 C 0.81874 0.01007 0.49766 0.0
N245 N 0.84782 0.0203 0.48089 0.0
C246 C 0.80892 0.89758 0.46541 0.0
C247 C 0.84808 0.89672 0.57339 0.0
C248 C 0.85723 0.87994 0.51761 0.0
C249 C 0.8357 0.87833 0.46535 0.0
C250 C 0.82001 0.91385 0.573 0.0
N251 N 0.80272 0.9172 0.51684 0.0
H252 H 0.79464 0.89834 0.42164 0.0
H253 H 0.81337 0.92493 0.61763 0.0
H254 H 0.8473 0.94712 0.43963 0.0
H255 H 0.80064 0.02467 0.51894 0.0
O256 O 0.77391 0.9499 0.40383 0.0
O257 O 0.7524 0.98854 0.45893 0.0
O258 O 0.77346 0.9677 0.59485 0.0
C259 C 0.75795 0.9757 0.40222 0.0
H260 H 0.66489 0.92758 0.56231 0.0
H261 H 0.88676 0.9956 0.43681 0.0
H262 H 0.86295 0.89736 0.61661 0.0
H263 H 0.84093 0.86441 0.42241 0.0
Co264 Co 0.53447 0.73978 0.57444 0.0
C265 C 0.58979 0.78248 0.54196 0.0
C266 C 0.54499 0.80564 0.54267 0.0
C267 C 0.56816 0.82751 0.52982 0.0
N268 N 0.55841 0.77738 0.5514 0.0
N269 N 0.59621 0.81291 0.52985 0.0
H270 H 0.60789 0.76493 0.54363 0.0
H271 H 0.51994 0.81019 0.54612 0.0
C272 C 0.5286 0.74138 0.42712 0.0
O273 O 0.55941 0.74489 0.42386 0.0
N274 N 0.50928 0.70344 0.59597 0.0
C275 C 0.5163 0.67916 0.63549 0.0
C276 C 0.491 0.6586 0.6354 0.0
C277 C 0.48 0.69757 0.57296 0.0
N278 N 0.46839 0.67031 0.59581 0.0
C279 C 0.59472 0.71191 0.59358 0.0
C280 C 0.58439 0.66088 0.51374 0.0
C281 C 0.60949 0.66021 0.55845 0.0
C282 C 0.61544 0.68668 0.59654 0.0
C283 C 0.56461 0.68698 0.51121 0.0
N284 N 0.56936 0.71196 0.55185 0.0
H285 H 0.5981 0.73066 0.62829 0.0
H286 H 0.54387 0.68556 0.48118 0.0
H287 H 0.53836 0.67637 0.66155 0.0
H288 H 0.46738 0.71284 0.5398 0.0
O289 O 0.54575 0.74535 0.66503 0.0
O290 O 0.50283 0.76462 0.62197 0.0
O291 O 0.51505 0.73921 0.48305 0.0
C292 C 0.51953 0.75988 0.67492 0.0
H293 H 0.5648 0.85232 0.5221 0.0
H294 H 0.48946 0.63655 0.66135 0.0
H295 H 0.57901 0.64064 0.48377 0.0
H296 H 0.63464 0.68693 0.63168 0.0
Co297 Co 0.27216 0.53039 0.55441 0.0
C298 C 0.22398 0.58166 0.56807 0.0
C299 C 0.21352 0.54876 0.49158 0.0
C300 C 0.19166 0.57212 0.48886 0.0
N301 N 0.23429 0.55484 0.54016 0.0
N302 N 0.19788 0.59265 0.53717 0.0
H303 H 0.23519 0.59287 0.60959 0.0
H304 H 0.21402 0.52865 0.45964 0.0
C305 C 0.29031 0.50936 0.41632 0.0
O306 O 0.32044 0.50945 0.43117 0.0
N307 N 0.30978 0.50497 0.56649 0.0
C308 C 0.33869 0.51406 0.58734 0.0
C309 C 0.35868 0.48875 0.58581 0.0
C310 C 0.31253 0.47404 0.55386 0.0
N311 N 0.3422 0.46373 0.56454 0.0
C312 C 0.30516 0.58521 0.59554 0.0
C313 C 0.33925 0.59633 0.48281 0.0
C314 C 0.34948 0.60981 0.54178 0.0
C315 C 0.33095 0.60552 0.59763 0.0
C316 C 0.31345 0.57556 0.48323 0.0
N317 N 0.29848 0.568 0.54061 0.0
H318 H 0.29228 0.58182 0.64043 0.0
H319 H 0.30664 0.56528 0.43765 0.0
H320 H 0.3452 0.53734 0.60254 0.0
H321 H 0.29333 0.45945 0.53667 0.0
O322 O 0.26825 0.53374 0.64844 0.0
O323 O 0.24632 0.49617 0.59055 0.0
O324 O 0.26983 0.51835 0.45799 0.0
C325 C 0.25183 0.5082 0.64817 0.0
H326 H 0.17198 0.57354 0.45505 0.0
H327 H 0.38341 0.48862 0.59939 0.0
H328 H 0.35217 0.6004 0.43775 0.0
H329 H 0.33735 0.61649 0.64365 0.0
Co330 Co 0.48043 0.269 0.55586 0.0
C331 C 0.4295 0.21904 0.54439 0.0
C332 C 0.47554 0.20426 0.5142 0.0
C333 C 0.45513 0.1793 0.508 0.0
N334 N 0.45959 0.22934 0.53668 0.0
N335 N 0.42636 0.18875 0.52713 0.0
H336 H 0.41012 0.23255 0.56286 0.0
H337 H 0.50057 0.20412 0.50358 0.0
C338 C 0.48564 0.26273 0.41116 0.0
O339 O 0.45493 0.25805 0.41056 0.0
N340 N 0.50369 0.30729 0.57391 0.0
C341 C 0.49332 0.33554 0.59347 0.0
C342 C 0.51881 0.35569 0.59742 0.0
C343 C 0.53534 0.31043 0.56823 0.0
N344 N 0.54521 0.33977 0.58183 0.0
C345 C 0.41822 0.29379 0.57007 0.0
C346 C 0.4265 0.34309 0.48453 0.0
C347 C 0.40158 0.34406 0.52968 0.0
C348 C 0.39624 0.31797 0.56941 0.0
C349 C 0.44706 0.31757 0.48434 0.0
N350 N 0.44378 0.29383 0.52891 0.0
H351 H 0.41625 0.27697 0.60917 0.0
H352 H 0.46778 0.31922 0.45435 0.0
H353 H 0.46908 0.34118 0.60457 0.0
H354 H 0.55088 0.29163 0.55383 0.0
O355 O 0.46901 0.2652 0.64617 0.0
O356 O 0.51317 0.24672 0.60455 0.0
O357 O 0.49979 0.26847 0.46525 0.0
C358 C 0.496 0.25202 0.65647 0.0
H359 H 0.46096 0.1559 0.49204 0.0
H360 H 0.51813 0.38006 0.61153 0.0
H361 H 0.43145 0.36292 0.45301 0.0
H362 H 0.3772 0.31789 0.60492 0.0
Co363 Co 0.74449 0.4773 0.58582 0.0
C364 C 0.7922 0.42485 0.57929 0.0
C365 C 0.81118 0.47054 0.55983 0.0
C366 C 0.83509 0.44933 0.55278 0.0
N367 N 0.7843 0.45545 0.57695 0.0
N368 N 0.8231 0.4208 0.56493 0.0
H369 H 0.77605 0.40588 0.58971 0.0
H370 H 0.81312 0.49543 0.55129 0.0
C371 C 0.73 0.49935 0.44845 0.0
O372 O 0.69983 0.50067 0.46221 0.0
N373 N 0.70563 0.50138 0.59366 0.0
C374 C 0.67642 0.49108 0.60938 0.0
C375 C 0.65576 0.51589 0.60722 0.0
C376 C 0.70243 0.53259 0.58412 0.0
N377 N 0.67212 0.54189 0.59107 0.0
C378 C 0.71609 0.41875 0.61975 0.0
C379 C 0.67578 0.41439 0.51409 0.0
C380 C 0.66901 0.3969 0.57054 0.0
C381 C 0.69108 0.39729 0.62157 0.0
C382 C 0.70217 0.43422 0.51287 0.0
N383 N 0.72008 0.4388 0.56787 0.0
H384 H 0.73118 0.42027 0.66224 0.0
H385 H 0.70686 0.44631 0.46825 0.0
H386 H 0.67033 0.46727 0.62142 0.0
H387 H 0.72171 0.54807 0.57093 0.0
O388 O 0.74536 0.47298 0.67942 0.0
O389 O 0.76765 0.51204 0.6257 0.0
O390 O 0.74981 0.48923 0.49041 0.0
C391 C 0.7616 0.49864 0.68176 0.0
H392 H 0.85927 0.45425 0.53865 0.0
H393 H 0.63064 0.515 0.61705 0.0
H394 H 0.66023 0.41353 0.47193 0.0
H395 H 0.68758 0.38298 0.66485 0.0
Co396 Co 0.55887 0.26646 0.02045 0.0
C397 C 0.61234 0.2195 0.02483 0.0
C398 C 0.56752 0.20201 0.05795 0.0
C399 C 0.58878 0.17811 0.06123 0.0
N400 N 0.58213 0.22819 0.0364 0.0
N401 N 0.61682 0.18902 0.04029 0.0
H402 H 0.63032 0.23442 1.00373 0.0
H403 H 0.5426 0.20005 0.06795 0.0
C404 C 0.55504 0.25577 0.16563 0.0
O405 O 0.58477 0.24711 0.16511 0.0
N406 N 0.53419 0.30346 1.00488 0.0
C407 C 0.54304 0.32962 0.9729 0.0
C408 C 0.51851 0.35059 0.97497 0.0
C409 C 0.50418 0.30831 0.02402 0.0
N410 N 0.49393 0.33687 1.00602 0.0
C411 C 0.61758 0.29932 1.00051 0.0
C412 C 0.60751 0.34265 0.09855 0.0
C413 C 0.62935 0.34989 0.04924 0.0
C414 C 0.63516 0.32733 1.00095 0.0
C415 C 0.58965 0.31514 0.09485 0.0
N416 N 0.59411 0.29398 0.04545 0.0
H417 H 0.62051 0.28367 0.95952 0.0
H418 H 0.5696 0.3133 0.12703 0.0
H419 H 0.56561 0.33308 0.94918 0.0
H420 H 0.4899 0.29108 0.04947 0.0
O421 O 0.56718 0.26353 0.92742 0.0
O422 O 0.52627 0.24182 0.97788 0.0
O423 O 0.5415 0.26474 0.11288 0.0
C424 C 0.54095 0.24771 0.92321 0.0
H425 H 0.58379 0.15409 0.0747 0.0
H426 H 0.51821 0.37367 0.95312 0.0
H427 H 0.60196 0.35967 0.13607 0.0
H428 H 0.65162 0.33218 0.96155 0.0
Co429 Co 0.73733 0.55241 0.04201 0.0
C430 C 0.78056 0.61065 0.04804 0.0
C431 C 0.79943 0.56813 0.08724 0.0
C432 C 0.82202 0.59091 0.09308 0.0
N433 N 0.77328 0.58006 0.05897 0.0
N434 N 0.81032 0.61754 0.0684 0.0
H435 H 0.76525 0.6276 0.02558 0.0
H436 H 0.80202 0.54402 0.10228 0.0
C437 C 0.72601 0.52309 0.17838 0.0
O438 O 0.69896 0.51004 0.16285 0.0
N439 N 0.70332 0.52253 0.02596 0.0
C440 C 0.67515 0.52775 0.99801 0.0
C441 C 0.65816 0.50023 0.99871 0.0
C442 C 0.70371 0.49148 0.03869 0.0
N443 N 0.67508 0.47754 0.02912 0.0
C444 C 0.70436 0.60937 0.01791 0.0
C445 C 0.65558 0.59954 0.10537 0.0
C446 C 0.65266 0.62332 0.05857 0.0
C447 C 0.67836 0.62934 0.01719 0.0
C448 C 0.68285 0.58113 0.10677 0.0
N449 N 0.70644 0.5852 0.06164 0.0
H450 H 0.72149 0.61191 0.97919 0.0
H451 H 0.68315 0.56203 0.14041 0.0
H452 H 0.66748 0.54993 0.97831 0.0
H453 H 0.72484 0.48011 0.05558 0.0
O454 O 0.73966 0.55955 0.94939 0.0
O455 O 0.76672 0.52327 1.00161 0.0
O456 O 0.74168 0.53976 0.13765 0.0
C457 C 0.75959 0.53672 0.94616 0.0
H458 H 0.84547 0.58819 0.11352 0.0
H459 H 0.6348 0.49743 0.97792 0.0
H460 H 0.63616 0.59398 0.13802 0.0
H461 H 0.67695 0.64739 0.97999 0.0
Co462 Co 0.45547 0.73902 0.02945 0.0
C463 C 0.4189 0.79956 0.03974 0.0
C464 C 0.39709 0.76189 0.09248 0.0
C465 C 0.37847 0.78763 0.0992 0.0
N466 N 0.42269 0.76892 0.05526 0.0
N467 N 0.392 0.81119 0.06614 0.0
H468 H 0.43498 0.81297 1.0094 0.0
H469 H 0.39095 0.73921 0.11163 0.0
C470 C 0.45992 0.73111 0.17913 0.0
O471 O 0.43082 0.72072 0.18298 0.0
N472 N 0.48748 0.70887 1.00475 0.0
C473 C 0.48255 0.68362 0.9666 0.0
C474 C 0.50874 0.66488 0.96936 0.0
C475 C 0.5173 0.70593 0.02764 0.0
N476 N 0.53082 0.67904 1.0069 0.0
C477 C 0.39937 0.70552 1.00146 0.0
C478 C 0.41396 0.65125 0.06829 0.0
C479 C 0.3873 0.65194 0.02751 0.0
C480 C 0.37957 0.67965 0.99528 0.0
C481 C 0.43302 0.67795 0.07386 0.0
N482 N 0.42566 0.70463 0.04039 0.0
H483 H 0.39407 0.72627 0.97333 0.0
H484 H 0.45485 0.67655 0.10108 0.0
H485 H 0.46074 0.67839 0.94108 0.0
H486 H 0.52854 0.7226 0.06014 0.0
O487 O 0.44747 0.74646 0.93713 0.0
O488 O 0.48269 0.7722 0.99608 0.0
O489 O 0.47224 0.73803 0.12351 0.0
C490 C 0.47059 0.76651 0.93847 0.0
H491 H 0.3562 0.78889 0.12517 0.0
H492 H 0.51146 0.64246 0.9455 0.0
H493 H 0.42066 0.62992 0.09323 0.0
H494 H 0.35917 0.6808 0.96329 0.0
Co495 Co 0.27872 0.45086 1.0099 0.0
C496 C 0.21987 0.4116 0.99848 0.0
C497 C 0.25204 0.39484 0.07175 0.0
C498 C 0.22558 0.37615 0.07265 0.0
N499 N 0.24881 0.41689 0.02477 0.0
N500 N 0.20554 0.38668 0.02665 0.0
H501 H 0.20896 0.426 0.96133 0.0
H502 H 0.27195 0.39292 0.10467 0.0
C503 C 0.2869 0.48129 0.1448 0.0
O504 O 0.31246 0.49601 0.12574 0.0
N505 N 0.30848 0.48498 0.99502 0.0
C506 C 0.339 0.48236 0.97703 0.0
C507 C 0.35249 0.51159 0.97583 0.0
C508 C 0.30329 0.51613 0.99978 0.0
N509 N 0.33022 0.53282 0.99098 0.0
C510 C 0.31683 0.39721 0.9899 0.0
C511 C 0.36391 0.41126 0.07909 0.0
C512 C 0.36875 0.3872 0.03405 0.0
C513 C 0.34413 0.37903 0.99142 0.0
C514 C 0.33583 0.42813 0.07738 0.0
N515 N 0.31341 0.42232 0.03061 0.0
H516 H 0.2989 0.39196 0.95375 0.0
H517 H 0.33385 0.44711 0.11065 0.0
H518 H 0.35089 0.46074 0.96573 0.0
H519 H 0.28065 0.5262 1.01192 0.0
O520 O 0.27832 0.44421 0.91631 0.0
O521 O 0.24579 0.47578 0.96795 0.0
O522 O 0.27193 0.46279 0.10608 0.0
C523 C 0.25579 0.46458 0.91219 0.0
H524 H 0.2209 0.35688 0.10578 0.0
H525 H 0.37694 0.51696 0.96468 0.0
H526 H 0.38236 0.41802 0.11315 0.0
H527 H 0.34696 0.36022 0.95644 0.0
C528 C 0.13832 0.3385 0.95946 0.0
C529 C 0.11603 0.3424 1.01049 0.0
C530 C 0.15029 0.3815 0.06242 0.0
C531 C 0.17408 0.37485 0.01584 0.0
N532 N 0.19223 0.34671 0.92156 0.0
N533 N 0.10088 0.36543 0.11305 0.0
C534 C 0.16836 0.3535 0.96416 0.0
C535 C 0.12187 0.36362 0.06237 0.0
N536 N 0.13041 0.32054 0.90658 0.0
N537 N 0.15513 0.40508 0.1064 0.0
H538 H 0.07994 0.35248 0.11424 0.0
H539 H 0.10505 0.37803 0.15582 0.0
H540 H 0.17588 0.41837 0.10697 0.0
H541 H 0.13788 0.41316 0.13845 0.0
H542 H 0.14434 0.31853 0.8648 0.0
H543 H 0.10854 0.30928 0.90277 0.0
H544 H 0.19098 0.32911 0.88648 0.0
H545 H 0.21419 0.35789 0.92363 0.0
C546 C 0.66489 0.12236 0.97763 0.0
C547 C 0.69198 0.12459 0.01794 0.0
C548 C 0.66994 0.1707 0.07224 0.0
C549 C 0.64394 0.16969 0.02859 0.0
N550 N 0.61879 0.14821 0.93309 0.0
N551 N 0.72305 0.15285 0.09694 0.0
C552 C 0.64212 0.14654 0.97918 0.0
C553 C 0.69529 0.14933 0.06361 0.0
N554 N 0.66068 0.09651 0.93932 0.0
N555 N 0.66971 0.19139 0.12314 0.0
H556 H 0.74185 0.13738 0.09163 0.0
H557 H 0.72826 0.17211 0.12623 0.0
H558 H 0.65157 0.2075 0.12975 0.0
H559 H 0.6863 0.19128 0.16083 0.0
H560 H 0.64009 0.0919 0.91306 0.0
H561 H 0.67685 0.07817 0.9385 0.0
H562 H 0.61765 0.13384 0.89201 0.0
H563 H 0.60201 0.16596 0.93309 0.0
C564 C 0.83662 0.66065 0.12605 0.0
C565 C 0.82789 0.64652 0.06598 0.0
C566 C 0.86802 0.67796 1.00916 0.0
C567 C 0.88061 0.68701 0.07054 0.0
N568 N 0.87722 0.6881 0.18798 0.0
N569 N 0.83422 0.64191 0.94942 0.0
C570 C 0.86453 0.67933 0.12925 0.0
C571 C 0.84277 0.65587 1.00686 0.0
N572 N 0.81841 0.6552 0.18009 0.0
N573 N 0.88086 0.69024 0.95337 0.0
H574 H 0.81542 0.62621 0.94653 0.0
H575 H 0.84641 0.64481 0.90551 0.0
H576 H 0.89942 0.70641 0.95482 0.0
H577 H 0.87156 0.68664 0.90672 0.0
H578 H 0.82185 0.66624 0.22499 0.0
H579 H 0.798 0.6414 0.17778 0.0
H580 H 0.86864 0.68058 0.23316 0.0
H581 H 0.89755 0.70189 0.19134 0.0
C582 C 0.33811 0.87565 1.01168 0.0
C583 C 0.33885 0.89462 0.06851 0.0
C584 C 0.38097 0.86227 0.11506 0.0
C585 C 0.3783 0.84179 0.06093 0.0
N586 N 0.35342 0.82684 0.95997 0.0
N587 N 0.35897 0.906 0.1758 0.0
C588 C 0.35677 0.84807 1.00946 0.0
C589 C 0.35989 0.88797 0.1206 0.0
N590 N 0.32005 0.88459 0.95948 0.0
N591 N 0.4038 0.85677 0.16092 0.0
H592 H 0.34355 0.92481 0.18063 0.0
H593 H 0.37184 0.9014 0.21814 0.0
H594 H 0.41936 0.83799 0.15712 0.0
H595 H 0.40888 0.87164 0.19986 0.0
H596 H 0.32064 0.87369 0.91392 0.0
H597 H 0.30562 0.90429 0.96076 0.0
H598 H 0.33584 0.82798 0.92438 0.0
H599 H 0.3676 0.80702 0.95641 0.0
C600 C 0.16838 0.67506 0.56698 0.0
C601 C 0.1353 0.66951 0.56383 0.0
C602 C 0.14493 0.61338 0.55915 0.0
C603 C 0.17782 0.61879 0.55337 0.0
N604 N 0.22054 0.65574 0.53937 0.0
N605 N 0.09308 0.63389 0.5366 0.0
C606 C 0.1896 0.64995 0.55392 0.0
C607 C 0.12391 0.63876 0.55354 0.0
N608 N 0.17951 0.70381 0.58473 0.0
N609 N 0.13381 0.584 0.57192 0.0
H610 H 0.07759 0.65233 0.52772 0.0
H611 H 0.08418 0.61196 0.52385 0.0
H612 H 0.14886 0.56521 0.58076 0.0
H613 H 0.11005 0.57927 0.5814 0.0
H614 H 0.20332 0.7083 0.59396 0.0
H615 H 0.16463 0.72244 0.59553 0.0
H616 H 0.22963 0.67823 0.53309 0.0
H617 H 0.23642 0.63804 0.52783 0.0
C618 C 0.39525 0.14852 0.58555 0.0
C619 C 0.39834 0.16973 0.53256 0.0
C620 C 0.34488 0.1566 0.49501 0.0
C621 C 0.34215 0.13481 0.54704 0.0
N622 N 0.36577 0.1055 0.63435 0.0
N623 N 0.37919 0.19076 0.43105 0.0
C624 C 0.36781 0.12934 0.58993 0.0
C625 C 0.37402 0.17275 0.48536 0.0
N626 N 0.418 0.14784 0.63305 0.0
N627 N 0.31912 0.16271 0.45685 0.0
H628 H 0.40035 0.20287 0.42349 0.0
H629 H 0.36366 0.19196 0.39157 0.0
H630 H 0.29768 0.15087 0.46263 0.0
H631 H 0.31831 0.18056 0.42218 0.0
H632 H 0.4159 0.13517 0.67643 0.0
H633 H 0.43819 0.1619 0.63121 0.0
H634 H 0.38452 0.09829 0.66361 0.0
H635 H 0.34581 0.09116 0.63793 0.0
C636 C 0.83993 0.37475 0.50173 0.0
C637 C 0.84042 0.3921 0.56077 0.0
C638 C 0.87995 0.35673 0.60692 0.0
C639 C 0.8774 0.33789 0.55023 0.0
N640 N 0.85421 0.3268 0.44544 0.0
N641 N 0.85874 0.39973 0.67091 0.0
C642 C 0.85734 0.34647 0.49775 0.0
C643 C 0.86003 0.38318 0.61373 0.0
N644 N 0.82325 0.38584 0.44937 0.0
N645 N 0.9016 0.349 0.65384 0.0
H646 H 0.8442 0.41917 0.67665 0.0
H647 H 0.87041 0.39335 0.71373 0.0
H648 H 0.9163 0.3296 0.64929 0.0
H649 H 0.90663 0.36268 0.69469 0.0
H650 H 0.82411 0.37609 0.4027 0.0
H651 H 0.8098 0.40619 0.45181 0.0
H652 H 0.83759 0.32973 0.40836 0.0
H653 H 0.86752 0.30645 0.44079 0.0
C654 C 0.64566 0.8335 0.57904 0.0
C655 C 0.62668 0.82789 0.5229 0.0
C656 C 0.66105 0.86208 0.45721 0.0
C657 C 0.67931 0.86854 0.51383 0.0
N658 N 0.69421 0.85564 0.62366 0.0
N659 N 0.61967 0.83059 0.40647 0.0
C660 C 0.6734 0.85227 0.573 0.0
C661 C 0.63569 0.84009 0.46108 0.0
N662 N 0.63591 0.82266 0.63874 0.0
N663 N 0.66698 0.87843 0.40103 0.0
H664 H 0.60108 0.81449 0.40888 0.0
H665 H 0.62623 0.83659 0.35891 0.0
H666 H 0.68591 0.89402 0.39711 0.0
H667 H 0.65263 0.8776 0.35962 0.0
H668 H 0.64677 0.82854 0.68283 0.0
H669 H 0.61554 0.80915 0.64478 0.0
H670 H 0.69301 0.84279 0.66696 0.0
H671 H 0.71442 0.86962 0.61965 0.0
C672 C 0.15865 0.0908 0.01397 0.0
C673 C 0.16048 0.07838 0.07819 0.0
C674 C 0.13266 0.12426 0.12028 0.0
C675 C 0.13365 0.13822 0.0566 0.0
N676 N 0.15469 0.13723 0.94662 0.0
N677 N 0.15519 0.0845 0.19266 0.0
C678 C 0.14896 0.12225 1.00463 0.0
C679 C 0.14928 0.09584 0.13154 0.0
N680 N 0.16403 0.0719 0.96157 0.0
N681 N 0.11416 0.13669 0.16844 0.0
H682 H 0.15012 0.09639 0.23598 0.0
H683 H 0.15012 0.09639 0.23598 0.0
H684 H 0.10067 0.15669 0.16203 0.0
H685 H 0.10964 0.12546 0.21281 0.0
H686 H 0.16016 0.07877 0.9132 0.0
H687 H 0.16897 0.0483 0.96731 0.0
H688 H 0.16825 0.1275 0.90928 0.0
H689 H 0.14868 0.16056 0.93864 0.0
C690 C 0.95306 0.13232 0.01812 0.0
C691 C 0.95775 0.14481 0.08138 0.0
C692 C 0.90969 0.11881 0.11911 0.0
C693 C 0.90204 0.11125 0.053 0.0
N694 N 0.91477 0.11559 0.93764 0.0
N695 N 0.939 0.15339 0.19108 0.0
C696 C 0.92333 0.11919 1.00178 0.0
C697 C 0.93564 0.13899 0.13179 0.0
N698 N 0.97747 0.13205 0.97456 0.0
N699 N 0.89315 0.10567 0.16977 0.0
H700 H 0.95777 0.1685 0.20147 0.0
H701 H 0.92183 0.15238 0.22765 0.0
H702 H 0.87515 0.08927 0.1628 0.0
H703 H 0.89963 0.1084 0.21871 0.0
H704 H 0.97634 0.12025 0.92993 0.0
H705 H 0.99983 0.14081 0.98635 0.0
H706 H 0.92859 0.12375 0.89887 0.0
H707 H 0.89259 0.10733 0.92334 0.0
C708 C 0.84947 0.86785 0.09238 0.0
C709 C 0.87959 0.86832 0.06177 0.0
C710 C 0.87356 0.92392 0.03708 0.0
C711 C 0.84604 0.92442 0.07653 0.0
N712 N 0.80741 0.89807 0.14269 0.0
N713 N 0.92159 0.89688 1.00782 0.0
C714 C 0.83357 0.89658 0.10366 0.0
C715 C 0.89177 0.89626 0.03374 0.0
N716 N 0.83634 0.83991 0.11056 0.0
N717 N 0.88221 0.95012 1.00306 0.0
H718 H 0.93569 0.87709 1.00348 0.0
H719 H 0.9333 0.91737 0.99438 0.0
H720 H 0.86975 0.97101 1.00605 0.0
H721 H 0.90002 0.9505 0.96786 0.0
H722 H 0.81345 0.83754 0.12858 0.0
H723 H 0.84761 0.81861 0.10244 0.0
H724 H 0.79871 0.87928 0.16977 0.0
H725 H 0.79531 0.91892 0.15069 0.0
C726 C 0.10913 0.8987 0.05883 0.0
C727 C 0.13828 0.88239 0.05556 0.0
C728 C 0.11033 0.83262 0.07358 0.0
C729 C 0.0813 0.84898 0.07775 0.0
N730 N 0.05171 0.89573 0.05913 0.0
N731 N 0.16619 0.83383 0.04546 0.0
C732 C 0.08037 0.88151 0.06534 0.0
C733 C 0.13868 0.84926 0.05817 0.0
N734 N 0.10908 0.93067 0.05883 0.0
N735 N 0.11097 0.80143 0.08756 0.0
H736 H 0.18723 0.84551 0.03434 0.0
H737 H 0.1677 0.80967 0.0405 0.0
H738 H 0.09056 0.78849 0.09654 0.0
H739 H 0.13166 0.78869 0.09353 0.0
H740 H 0.08916 0.944 0.06893 0.0
H741 H 0.12947 0.9441 0.05235 0.0
H742 H 0.0489 0.91883 0.04423 0.0
H743 H 0.03046 0.88337 0.06327 0.0
C744 C 0.18513 0.92496 0.59962 0.0
C745 C 0.18256 0.93994 0.53736 0.0
C746 C 0.15039 0.89612 0.49693 0.0
C747 C 0.1523 0.88149 0.55943 0.0
N748 N 0.17778 0.87773 0.66452 0.0
N749 N 0.17245 0.93474 0.42237 0.0
C750 C 0.17165 0.89463 0.60904 0.0
C751 C 0.16836 0.92367 0.48461 0.0
N752 N 0.19946 0.9399 0.65055 0.0
N753 N 0.1301 0.88476 0.45042 0.0
H754 H 0.18636 0.95443 0.41255 0.0
H755 H 0.1651 0.92269 0.38067 0.0
H756 H 0.11609 0.86494 0.45745 0.0
H757 H 0.1252 0.89648 0.40682 0.0
H758 H 0.19742 0.93283 0.69925 0.0
H759 H 0.21344 0.95954 0.64416 0.0
H760 H 0.19434 0.8844 0.69965 0.0
H761 H 0.16826 0.85552 0.67278 0.0
C762 C 0.07236 0.16428 0.57815 0.0
C763 C 0.06448 0.16933 0.51127 0.0
C764 C 0.11163 0.14091 0.47809 0.0
C765 C 0.12196 0.1399 0.54428 0.0
N766 N 0.11464 0.1564 0.65643 0.0
N767 N 0.08143 0.16962 0.39848 0.0
C768 C 0.10311 0.15342 0.59422 0.0
C769 C 0.08569 0.15991 0.46154 0.0
N770 N 0.05009 0.16784 0.62593 0.0
N771 N 0.12531 0.12248 0.43143 0.0
H772 H 0.06329 0.18468 0.38525 0.0
H773 H 0.09786 0.16554 0.36142 0.0
H774 H 0.14282 0.10617 0.44202 0.0
H775 H 0.11656 0.12071 0.38377 0.0
H776 H 0.05404 0.16182 0.67477 0.0
H777 H 0.02664 0.17333 0.61581 0.0
H778 H 0.1028 0.16863 0.69306 0.0
H779 H 0.13733 0.14933 0.66955 0.0
C780 C 0.86638 0.06298 0.55284 0.0
C781 C 0.86047 0.05135 0.48915 0.0
C782 C 0.88316 0.09905 0.44229 0.0
C783 C 0.88502 0.11232 0.5062 0.0
N784 N 0.87128 0.10885 0.62103 0.0
N785 N 0.85777 0.06033 0.37298 0.0
C786 C 0.87437 0.09489 0.56119 0.0
C787 C 0.86716 0.07006 0.43367 0.0
N788 N 0.86636 0.04303 0.60492 0.0
N789 N 0.89805 0.11309 0.39053 0.0
H790 H 0.84568 0.03931 0.3656 0.0
H791 H 0.8594 0.07439 0.33133 0.0
H792 H 0.91152 0.13344 0.39511 0.0
H793 H 0.89981 0.10272 0.3445 0.0
H794 H 0.87282 0.04976 0.65218 0.0
H795 H 0.86401 0.01901 0.59861 0.0
H796 H 0.86098 0.09762 0.66114 0.0
H797 H 0.87593 0.13254 0.62869 0.0
C798 C 0.9403 0.8573 0.45772 0.0
C799 C 0.95348 0.84463 0.51572 0.0
C800 C 0.90098 0.84695 0.56664 0.0
C801 C 0.8896 0.8655 0.51384 0.0
N802 N 0.90272 0.8939 0.41411 0.0
N803 N 0.94687 0.83333 0.63086 0.0
C804 C 0.91035 0.87212 0.46039 0.0
C805 C 0.93392 0.84089 0.57175 0.0
N806 N 0.9559 0.85444 0.39952 0.0
N807 N 0.88038 0.83447 0.61114 0.0
H808 H 0.97112 0.83113 0.63764 0.0
H809 H 0.93388 0.83296 0.67428 0.0
H810 H 0.85595 0.83697 0.60691 0.0
H811 H 0.88738 0.81879 0.64747 0.0
H812 H 0.94599 0.86112 0.35486 0.0
H813 H 0.97688 0.84193 0.39508 0.0
H814 H 0.91858 0.90125 0.37807 0.0
H815 H 0.88228 0.9072 0.41583 0.0
C816 C 0.65932 0.5885 0.52256 0.0
C817 C 0.6593 0.57306 0.58425 0.0
C818 C 0.62579 0.61442 0.62908 0.0
C819 C 0.62796 0.63102 0.56871 0.0
N820 N 0.65316 0.63725 0.4635 0.0
N821 N 0.64907 0.57521 0.69996 0.0
C822 C 0.64681 0.61914 0.51719 0.0
C823 C 0.64456 0.58732 0.63873 0.0
N824 N 0.66938 0.57318 0.46807 0.0
N825 N 0.60469 0.62352 0.67597 0.0
H826 H 0.66345 0.55587 0.70841 0.0
H827 H 0.64133 0.58619 0.74255 0.0
H828 H 0.58968 0.64257 0.67023 0.0
H829 H 0.59995 0.6104 0.71794 0.0
H830 H 0.66697 0.58196 0.42067 0.0
H831 H 0.67708 0.5503 0.47 0.0
H832 H 0.66936 0.6309 0.42748 0.0
H833 H 0.64462 0.65995 0.45822 0.0
C834 C 0.3809 0.65807 0.57037 0.0
C835 C 0.38033 0.62671 0.54754 0.0
C836 C 0.4383 0.6268 0.54566 0.0
C837 C 0.43865 0.65599 0.57818 0.0
N838 N 0.41014 0.69756 0.63054 0.0
N839 N 0.40918 0.57912 0.52507 0.0
C840 C 0.40988 0.67126 0.59271 0.0
C841 C 0.40923 0.61048 0.53787 0.0
N842 N 0.35386 0.67536 0.56971 0.0
N843 N 0.46568 0.61508 0.52055 0.0
H844 H 0.38862 0.56574 0.52134 0.0
H845 H 0.42971 0.56578 0.52447 0.0
H846 H 0.48716 0.62707 0.52352 0.0
H847 H 0.46637 0.59528 0.4909 0.0
H848 H 0.35343 0.69917 0.58029 0.0
H849 H 0.33242 0.66658 0.55214 0.0
H850 H 0.38967 0.70805 0.64814 0.0
H851 H 0.43089 0.70713 0.64965 0.0
C852 C 0.36551 0.41601 0.6118 0.0
C853 C 0.35425 0.43245 0.55651 0.0
C854 C 0.36771 0.38784 0.48681 0.0
C855 C 0.38357 0.37358 0.54018 0.0
N856 N 0.40319 0.37837 0.65162 0.0
N857 N 0.35154 0.43677 0.4391 0.0
C858 C 0.38388 0.38868 0.60251 0.0
C859 C 0.357 0.41904 0.49329 0.0
N860 N 0.35843 0.42646 0.67322 0.0
N861 N 0.36248 0.37155 0.43026 0.0
H862 H 0.34588 0.46027 0.44257 0.0
H863 H 0.35606 0.42912 0.39153 0.0
H864 H 0.36924 0.3483 0.42442 0.0
H865 H 0.34859 0.38012 0.3921 0.0
H866 H 0.36362 0.41383 0.71558 0.0
H867 H 0.34449 0.44615 0.68116 0.0
H868 H 0.40634 0.39049 0.69544 0.0
H869 H 0.41868 0.35972 0.6463 0.0
C870 C 0.59684 0.348 0.52525 0.0
C871 C 0.57731 0.3517 0.58124 0.0
C872 C 0.61745 0.38578 0.6302 0.0
C873 C 0.63832 0.37959 0.57697 0.0
N874 N 0.65034 0.34708 0.48364 0.0
N875 N 0.57387 0.366 0.69508 0.0
C876 C 0.62881 0.35819 0.52758 0.0
C877 C 0.58914 0.36807 0.63632 0.0
N878 N 0.58449 0.33655 0.46844 0.0
N879 N 0.62341 0.40965 0.67293 0.0
H880 H 0.5541 0.35171 0.70206 0.0
H881 H 0.58304 0.37543 0.73823 0.0
H882 H 0.64275 0.42463 0.66876 0.0
H883 H 0.60721 0.41667 0.7084 0.0
H884 H 0.59701 0.33602 0.42447 0.0
H885 H 0.56067 0.33109 0.46377 0.0
H886 H 0.64503 0.32943 0.45016 0.0
H887 H 0.67426 0.35302 0.48559 0.0
C888 C 0.63098 0.43889 0.04419 0.0
C889 C 0.66374 0.44592 0.04642 0.0
C890 C 0.67432 0.38943 0.05855 0.0
C891 C 0.64215 0.38264 0.04434 0.0
N892 N 0.5906 0.40188 0.01376 0.0
N893 N 0.70989 0.42787 0.10393 0.0
C894 C 0.62074 0.40768 0.03436 0.0
C895 C 0.68427 0.42125 0.06591 0.0
N896 N 0.60958 0.46119 0.0613 0.0
N897 N 0.69531 0.36561 0.06674 0.0
H898 H 0.71128 0.44889 0.12942 0.0
H899 H 0.72522 0.411 0.12218 0.0
H900 H 0.68864 0.34212 0.06592 0.0
H901 H 0.71964 0.36924 0.06966 0.0
H902 H 0.58547 0.45662 0.0661 0.0
H903 H 0.6166 0.48265 0.08092 0.0
H904 H 0.57514 0.4196 0.99983 0.0
H905 H 0.58224 0.37945 1.00416 0.0
C906 C 0.57377 0.66513 0.08601 0.0
C907 C 0.56214 0.66706 0.02072 0.0
C908 C 0.60746 0.63658 0.98323 0.0
C909 C 0.6215 0.63871 0.04634 0.0
N910 N 0.62019 0.66097 0.15506 0.0
N911 N 0.57313 0.66155 0.9052 0.0
C912 C 0.60534 0.65486 0.09702 0.0
C913 C 0.58065 0.65495 0.96873 0.0
N914 N 0.55427 0.67107 0.13775 0.0
N915 N 0.61847 0.61579 0.93793 0.0
H916 H 0.5544 0.67599 0.89258 0.0
H917 H 0.58761 0.65553 0.86588 0.0
H918 H 0.63651 0.59997 0.94778 0.0
H919 H 0.60708 0.61168 0.89341 0.0
H920 H 0.56094 0.66737 0.18632 0.0
H921 H 0.53037 0.6761 0.13213 0.0
H922 H 0.61035 0.67509 0.19124 0.0
H923 H 0.64353 0.65457 0.16419 0.0
C924 C 0.35157 0.58086 0.9427 0.0
C925 C 0.33604 0.56612 0.99579 0.0
C926 C 0.34773 0.61187 0.06476 0.0
C927 C 0.36834 0.62326 0.01545 0.0
N928 N 0.3917 0.61781 0.90802 0.0
N929 N 0.31715 0.56864 0.1074 0.0
C930 C 0.37046 0.6078 0.95409 0.0
C931 C 0.33305 0.58213 0.05662 0.0
N932 N 0.34805 0.56871 0.88127 0.0
N933 N 0.34157 0.62989 0.11857 0.0
H934 H 0.30212 0.54975 0.10111 0.0
H935 H 0.31875 0.57629 0.15574 0.0
H936 H 0.35202 0.65175 0.12607 0.0
H937 H 0.32422 0.62452 0.15301 0.0
H938 H 0.35653 0.5796 0.83905 0.0
H939 H 0.33362 0.54929 0.87234 0.0
H940 H 0.39657 0.60547 0.86526 0.0
H941 H 0.40645 0.63714 0.91482 0.0
C942 C 0.44761 0.34931 0.07563 0.0
C943 C 0.46237 0.34903 0.01323 0.0
C944 C 0.41723 0.37676 0.96672 0.0
C945 C 0.40065 0.3732 0.02679 0.0
N946 N 0.39812 0.35048 0.13512 0.0
N947 N 0.45722 0.35532 0.89611 0.0
C948 C 0.41525 0.35775 0.0804 0.0
C949 C 0.44601 0.36066 0.95774 0.0
N950 N 0.46484 0.34305 0.13064 0.0
N951 N 0.40646 0.39662 0.91924 0.0
H952 H 0.47741 0.34221 0.88724 0.0
H953 H 0.4445 0.3608 0.85388 0.0
H954 H 0.38639 0.41039 0.92486 0.0
H955 H 0.41946 0.40204 0.87731 0.0
H956 H 0.45591 0.34562 0.17791 0.0
H957 H 0.48904 0.33864 0.12925 0.0
H958 H 0.40693 0.3367 0.17305 0.0
H959 H 0.37414 0.3556 0.13961 0.0
C960 C 0.01735 0.2657 0.34759 0.0
C961 C 0.9858 0.2753 0.35822 0.0
C962 C 0.98228 0.28698 0.24004 0.0
C963 C 0.01012 0.26914 0.22783 0.0
N964 N 0.04907 0.2342 0.27691 0.0
N965 N 0.93752 0.29528 0.31258 0.0
C966 C 0.0266 0.25679 0.28343 0.0
C967 C 0.96799 0.28594 0.30368 0.0
N968 N 0.03826 0.26362 0.39839 0.0
N969 N 0.97024 0.30608 0.19266 0.0
H970 H 0.92726 0.29686 0.359 0.0
H971 H 0.92228 0.30001 0.27368 0.0
H972 H 0.98178 0.31036 0.14845 0.0
H973 H 0.95125 0.32097 0.20096 0.0
H974 H 0.06214 0.25882 0.39135 0.0
H975 H 0.03313 0.27095 0.44574 0.0
H976 H 0.06147 0.22508 0.31644 0.0
H977 H 0.05165 0.22048 0.23543 0.0
C978 C 0.75187 0.02168 0.32289 0.0
C979 C 0.74766 0.98943 0.33781 0.0
C980 C 0.73579 0.97915 0.2212 0.0
C981 C 0.74143 0.01129 0.20617 0.0
N982 N 0.74007 0.0639 0.2477 0.0
N983 N 0.72407 0.94051 0.30522 0.0
C984 C 0.7444 0.03274 0.25892 0.0
C985 C 0.73601 0.96912 0.28811 0.0
N986 N 0.76511 0.04164 0.36744 0.0
N987 N 0.73121 0.95774 0.17252 0.0
H988 H 0.72254 0.93311 0.35386 0.0
H989 H 0.71247 0.92574 0.27243 0.0
H990 H 0.72572 0.9636 0.12448 0.0
H991 H 0.73285 0.93372 0.18029 0.0
H992 H 0.77214 0.06433 0.3555 0.0
H993 H 0.77175 0.03505 0.41443 0.0
H994 H 0.73934 0.08043 0.28516 0.0
H995 H 0.73339 0.07246 0.20187 0.0
C996 C 1.0029 0.71895 0.30045 0.0
C997 C 0.01811 0.73642 0.25024 0.0
C998 C 0.04691 0.76571 0.33253 0.0
C999 C 0.03475 0.74632 0.38383 0.0
N1000 N 1.00704 0.69828 0.41096 0.0
N1001 N 0.06397 0.76671 0.22007 0.0
C1002 C 0.01444 0.72094 0.36634 0.0
C1003 C 0.0437 0.75597 0.26691 0.0
N1004 N 0.9774 0.70071 0.28531 0.0
N1005 N 0.05853 0.79499 0.34468 0.0
H1006 H 0.06291 0.75896 0.17179 0.0
H1007 H 0.08392 0.7801 0.23142 0.0
H1008 H 0.0561 0.80618 0.38959 0.0
H1009 H 0.06566 0.81012 0.30726 0.0
H1010 H 0.96326 0.69006 0.32081 0.0
H1011 H 0.96972 0.69762 0.23706 0.0
H1012 H 0.99417 0.67827 0.39875 0.0
H1013 H 0.01673 0.69758 0.45786 0.0
C1014 C 0.27966 1.00185 0.36465 0.0
C1015 C 0.27413 0.03356 0.3822 0.0
C1016 C 0.26739 0.04724 0.26606 0.0
C1017 C 0.27184 0.01546 0.24875 0.0
N1018 N 0.29497 0.96608 0.27832 0.0
N1019 N 0.27685 0.08742 0.34704 0.0
C1020 C 0.28229 0.99398 0.29712 0.0
C1021 C 0.27295 0.05656 0.33184 0.0
N1022 N 0.28042 0.97876 0.41091 0.0
N1023 N 0.25563 0.06822 0.22192 0.0
H1024 H 0.28172 0.09496 0.39456 0.0
H1025 H 0.27885 0.1049 0.3116 0.0
H1026 H 0.25073 0.06286 0.17331 0.0
H1027 H 0.24833 0.09057 0.23522 0.0
H1028 H 0.27973 0.95508 0.39897 0.0
H1029 H 0.28023 0.98272 0.46107 0.0
H1030 H 0.30551 0.95059 0.31109 0.0
H1031 H 0.29822 0.96023 0.22911 0.0
C1032 C 0.02368 0.7361 0.86031 0.0
C1033 C 1.00406 0.76008 0.88503 0.0
C1034 C 0.015 0.79191 0.78699 0.0
C1035 C 0.03634 0.76877 0.76416 0.0
N1036 N 0.06648 0.72201 0.78829 0.0
N1037 N 0.98583 0.81331 0.87884 0.0
C1038 C 0.04232 0.74181 0.80347 0.0
C1039 C 1.00114 0.78875 0.85043 0.0
N1040 N 0.02453 0.70767 0.89105 0.0
N1041 N 1.00806 0.81706 0.74833 0.0
H1042 H 0.97541 0.81192 0.92493 0.0
H1043 H 0.98583 0.83586 0.85959 0.0
H1044 H 0.01899 0.8213 0.70348 0.0
H1045 H 0.98997 0.83271 0.75863 0.0
H1046 H 0.03488 0.68795 0.87044 0.0
H1047 H 0.013 0.70304 0.93521 0.0
H1048 H 0.07416 0.7043 0.81943 0.0
H1049 H 0.08109 0.7248 0.74787 0.0
C1050 C 0.2525 0.9964 0.77132 0.0
C1051 C 0.23886 0.0247 0.74938 0.0
C1052 C 0.23306 0.04219 0.86252 0.0
C1053 C 0.2398 0.0115 0.88399 0.0
N1054 N 0.26069 0.96025 0.86156 0.0
N1055 N 0.21693 0.07541 0.77261 0.0
C1056 C 0.25156 0.98896 0.83932 0.0
C1057 C 0.22994 0.04817 0.79453 0.0
N1058 N 0.26638 0.97693 0.72685 0.0
N1059 N 0.23044 0.06564 0.90743 0.0
H1060 H 0.21531 0.08102 0.72301 0.0
H1061 H 0.20626 0.09166 0.80335 0.0
H1062 H 0.23398 0.06176 0.95733 0.0
H1063 H 0.22812 0.08913 0.89493 0.0
H1064 H 0.27884 0.9569 0.73945 0.0
H1065 H 0.26759 0.98233 0.67698 0.0
H1066 H 0.26545 0.94134 0.83116 0.0
H1067 H 0.26324 0.95515 0.91119 0.0
C1068 C 1.00851 0.26752 0.80538 0.0
C1069 C 0.00962 0.24174 0.84984 0.0
C1070 C 0.98246 0.20912 0.76744 0.0
C1071 C 0.97921 0.23532 0.72523 0.0
N1072 N 0.98411 0.29096 0.7093 0.0
N1073 N 0.99109 0.18975 0.87703 0.0
C1074 C 0.99106 0.26493 0.74543 0.0
C1075 C 0.99453 0.21317 0.83214 0.0
N1076 N 0.02377 0.29479 0.82071 0.0
N1077 N 0.97546 0.17983 0.74476 0.0
H1078 H 1.00009 0.19081 0.92426 0.0
H1079 H 0.97646 0.17049 0.86914 0.0
H1080 H 0.96697 0.1756 0.6977 0.0
H1081 H 0.98109 0.15944 0.77009 0.0
H1082 H 0.02764 0.31273 0.78705 0.0
H1083 H 0.03387 0.29907 0.86642 0.0
H1084 H 0.98878 0.31367 0.72499 0.0
H1085 H 0.97113 0.29018 0.66587 0.0
C1086 C 0.77377 0.96257 0.74848 0.0
C1087 C 0.78567 0.9859 0.705 0.0
C1088 C 0.79953 0.0192 0.79893 0.0
C1089 C 0.7881 0.99583 0.8424 0.0
N1090 N 0.75758 0.94899 0.85948 0.0
N1091 N 0.80051 0.03968 0.68799 0.0
C1092 C 0.77291 0.96874 0.81729 0.0
C1093 C 0.79545 0.01531 0.73018 0.0
N1094 N 0.76504 0.93392 0.72489 0.0
N1095 N 0.81588 0.04432 0.823 0.0
H1096 H 0.79695 0.03764 0.63755 0.0
H1097 H 0.805 0.06249 0.7033 0.0
H1098 H 0.81922 0.04812 0.87297 0.0
H1099 H 0.8281 0.06015 0.79346 0.0
H1100 H 0.7603 0.91471 0.75476 0.0
H1101 H 0.76395 0.92864 0.67517 0.0
H1102 H 0.74334 0.93046 0.8442 0.0
H1103 H 0.75681 0.95288 0.90996 0.0
C1104 C 0.51713 0.7637 0.86348 0.0
C1105 C 0.48657 0.77548 0.87563 0.0
C1106 C 0.48235 0.78701 0.75748 0.0
C1107 C 0.50854 0.76702 0.74419 0.0
N1108 N 0.54448 0.72873 0.79239 0.0
N1109 N 0.43924 0.79858 0.83229 0.0
C1110 C 0.52455 0.75353 0.79926 0.0
C1111 C 0.46886 0.78719 0.8219 0.0
N1112 N 0.5385 0.76047 0.91311 0.0
N1113 N 0.47115 0.80683 0.71054 0.0
H1114 H 0.42973 0.80093 0.87925 0.0
H1115 H 0.42388 0.80424 0.79415 0.0
H1116 H 0.48235 0.81022 0.66567 0.0
H1117 H 0.45344 0.82308 0.71976 0.0
H1118 H 0.56179 0.75365 0.90488 0.0
H1119 H 0.53455 0.76877 0.96028 0.0
H1120 H 0.55696 0.71921 0.83143 0.0
H1121 H 0.54418 0.7139 0.7521 0.0
C1122 C 0.2443 0.45208 0.79435 0.0
C1123 C 0.24396 0.47453 0.84579 0.0
C1124 C 0.23255 0.51474 0.76295 0.0
C1125 C 0.24188 0.49405 0.71229 0.0
N1126 N 0.25737 0.44166 0.68126 0.0
N1127 N 0.23786 0.52907 0.87667 0.0
C1128 C 0.24736 0.46215 0.728 0.0
C1129 C 0.23744 0.50631 0.8298 0.0
N1130 N 0.24127 0.42103 0.80887 0.0
N1131 N 0.21884 0.54256 0.74691 0.0
H1132 H 0.24018 0.52484 0.92648 0.0
H1133 H 0.23772 0.55284 0.86532 0.0
H1134 H 0.21401 0.54874 0.69841 0.0
H1135 H 0.209 0.55753 0.78154 0.0
H1136 H 0.23869 0.40382 0.77312 0.0
H1137 H 0.2375 0.41299 0.85655 0.0
H1138 H 0.26583 0.41945 0.69254 0.0
H1139 H 0.25904 0.44718 0.63181 0.0
C1140 C 0.54112 0.22411 0.80957 0.0
C1141 C 0.52602 0.24237 0.85835 0.0
C1142 C 0.49594 0.26883 0.7741 0.0
C1143 C 0.50756 0.24812 0.72526 0.0
N1144 N 0.53617 0.20053 0.70191 0.0
N1145 N 0.48013 0.273 0.88671 0.0
C1146 C 0.52878 0.22403 0.74431 0.0
C1147 C 0.50023 0.26137 0.84066 0.0
N1148 N 0.56707 0.2069 0.82544 0.0
N1149 N 0.48322 0.29709 0.75786 0.0
H1150 H 0.48107 0.2665 0.93576 0.0
H1151 H 0.45985 0.28542 0.87416 0.0
H1152 H 0.48459 0.30657 0.71102 0.0
H1153 H 0.47589 0.3132 0.79277 0.0
H1154 H 0.58095 0.19567 0.79056 0.0
H1155 H 0.57557 0.20547 0.87335 0.0
H1156 H 0.54958 0.18123 0.71562 0.0
H1157 H 0.5261 0.19849 0.65551 0.0
C1158 C 0.78033 0.48806 0.79504 0.0
C1159 C 0.77239 0.51054 0.74658 0.0
C1160 C 0.77426 0.55057 0.8316 0.0
C1161 C 0.77187 0.52705 0.88067 0.0
N1162 N 0.77265 0.47153 0.90683 0.0
N1163 N 0.76125 0.56475 0.72046 0.0
C1164 C 0.77563 0.49522 0.86228 0.0
C1165 C 0.76988 0.54242 0.7648 0.0
N1166 N 0.79237 0.45984 0.7766 0.0
N1167 N 0.78067 0.58074 0.84906 0.0
H1168 H 0.75769 0.56043 0.67092 0.0
H1169 H 0.75545 0.58747 0.73421 0.0
H1170 H 0.78527 0.58698 0.89755 0.0
H1171 H 0.78509 0.59841 0.81497 0.0
H1172 H 0.8009 0.4435 0.81009 0.0
H1173 H 0.79725 0.45455 0.72768 0.0
H1174 H 0.77118 0.44811 0.89301 0.0
H1175 H 0.76966 0.47477 0.95683 0.0
C1176 C 0.51221 0.23628 0.24145 0.0
C1177 C 0.53761 0.25725 0.22873 0.0
C1178 C 0.52628 0.28425 0.33169 0.0
C1179 C 0.50386 0.26076 0.34873 0.0
N1180 N 0.48138 0.20994 0.32473 0.0
N1181 N 0.57283 0.29759 0.26912 0.0
C1182 C 0.4984 0.2355 0.30493 0.0
C1183 C 0.54602 0.27997 0.27626 0.0
N1184 N 0.50098 0.21718 0.19314 0.0
N1185 N 0.52753 0.3117 0.36547 0.0
H1186 H 0.58803 0.29562 0.22929 0.0
H1187 H 0.58148 0.31214 0.30605 0.0
H1188 H 0.5135 0.31633 0.40598 0.0
H1189 H 0.54039 0.33106 0.34917 0.0
H1190 H 0.48041 0.20389 0.19808 0.0
H1191 H 0.51039 0.21687 0.14611 0.0
H1192 H 0.47943 0.18963 0.29682 0.0
H1193 H 0.4722 0.20748 0.37183 0.0
C1194 C 0.74735 0.48304 0.33599 0.0
C1195 C 0.74005 0.50715 0.38111 0.0
C1196 C 0.73318 0.54457 0.29164 0.0
C1197 C 0.73726 0.51976 0.24645 0.0
N1198 N 0.75825 0.46897 0.22278 0.0
N1199 N 0.73712 0.56203 0.40465 0.0
C1200 C 0.74772 0.49008 0.26788 0.0
C1201 C 0.73666 0.5384 0.35964 0.0
N1202 N 0.75243 0.4533 0.35797 0.0
N1203 N 0.72444 0.57347 0.26982 0.0
H1204 H 0.74034 0.55781 0.45463 0.0
H1205 H 0.73723 0.58565 0.39238 0.0
H1206 H 0.72358 0.57928 0.22025 0.0
H1207 H 0.71703 0.59139 0.30057 0.0
H1208 H 0.75377 0.4339 0.32741 0.0
H1209 H 0.75457 0.44782 0.40755 0.0
H1210 H 0.7684 0.44762 0.23491 0.0
H1211 H 0.75946 0.47422 0.17284 0.0
C1212 C 0.49311 0.71158 0.34812 0.0
C1213 C 0.50974 0.73948 0.36483 0.0
C1214 C 0.49225 0.76298 0.26027 0.0
C1215 C 0.47882 0.73387 0.24097 0.0
N1216 N 0.4731 0.67859 0.26111 0.0
N1217 N 0.52715 0.79131 0.33402 0.0
C1218 C 0.48109 0.70769 0.28345 0.0
C1219 C 0.51012 0.76495 0.31972 0.0
N1220 N 0.48811 0.68877 0.3939 0.0
N1221 N 0.4864 0.78922 0.22393 0.0
H1222 H 0.53801 0.79507 0.37926 0.0
H1223 H 0.53182 0.80885 0.29986 0.0
H1224 H 0.47298 0.78899 0.18107 0.0
H1225 H 0.49245 0.8117 0.23911 0.0
H1226 H 0.47308 0.66974 0.38627 0.0
H1227 H 0.49611 0.69027 0.4418 0.0
H1228 H 0.47767 0.65814 0.28718 0.0
H1229 H 0.46511 0.67447 0.21359 0.0
C1230 C 0.28576 0.4615 0.26087 0.0
C1231 C 0.27763 0.48484 0.21452 0.0
C1232 C 0.26976 0.52279 0.30318 0.0
C1233 C 0.28042 0.50009 0.34896 0.0
N1234 N 0.28674 0.44569 0.37507 0.0
N1235 N 0.25299 0.53403 0.19142 0.0
C1236 C 0.2847 0.4687 0.32886 0.0
C1237 C 0.26666 0.51435 0.23587 0.0
N1238 N 0.29599 0.43298 0.23992 0.0
N1239 N 0.26377 0.55259 0.32349 0.0
H1240 H 0.24999 0.52784 0.1423 0.0
H1241 H 0.24219 0.55501 0.20378 0.0
H1242 H 0.26322 0.55894 0.3727 0.0
H1243 H 0.26008 0.57126 0.29169 0.0
H1244 H 0.30637 0.41652 0.27069 0.0
H1245 H 0.29528 0.42629 0.19089 0.0
H1246 H 0.28716 0.42194 0.364 0.0
H1247 H 0.28475 0.45036 0.42503 0.0
loop_
_geom_bond_atom_site_label_1
_geom_bond_atom_site_label_2
_geom_bond_distance
_geom_bond_site_symmetry_2
_ccdc_geom_bond_type
Co0 N4 2.148 . S
Co0 N10 2.128 1_455 S
Co0 N20 2.194 . S
Co0 O25 2.351 . S
Co0 O26 2.155 1_455 S
Co0 O27 2.096 1_454 S
C1 N4 1.301 . S
C1 N5 1.328 . S
C1 H6 0.930 . S
C2 C3 1.333 . S
C2 N4 1.317 1_556 S
C2 H7 0.930 . S
C3 C2 1.333 . S
C3 N5 1.350 1_556 S
C3 H29 0.931 . S
N4 Co0 2.148 . S
N4 C1 1.301 . S
N4 C2 1.317 1_554 S
N5 C1 1.328 . S
N5 C3 1.350 1_554 S
H6 C1 0.930 . S
H7 C2 0.930 . S
C8 O9 1.224 . S
C8 O27 1.247 1_455 S
O9 C8 1.224 . S
N10 Co0 2.128 1_655 S
N10 C11 1.355 . S
N10 C13 1.311 1_554 S
C11 N10 1.355 . S
C11 C12 1.363 . S
C11 H23 0.929 1_655 S
C12 C11 1.363 . S
C12 N14 1.375 . S
C12 H30 0.931 . S
C13 N10 1.311 1_556 S
C13 N14 1.347 1_556 S
C13 H24 0.929 . S
N14 C12 1.375 . S
N14 C13 1.347 1_554 S
C15 C18 1.365 . S
C15 N20 1.328 . S
C15 H21 0.929 . S
C16 C17 1.362 1_556 S
C16 C19 1.378 . S
C16 H31 0.929 . S
C17 C16 1.362 1_554 S
C17 C18 1.366 . S
C18 C15 1.365 . S
C18 C17 1.366 . S
C18 H32 0.930 . S
C19 C16 1.378 . S
C19 N20 1.315 1_556 S
C19 H22 0.930 . S
N20 Co0 2.194 . S
N20 C15 1.328 . S
N20 C19 1.315 1_554 S
H21 C15 0.929 . S
H22 C19 0.930 . S
H23 C11 0.929 1_455 S
H24 C13 0.929 . S
O25 Co0 2.351 . S
O25 C28 1.244 . S
O26 Co0 2.155 1_655 S
O26 C28 1.240 1_655 S
O27 Co0 2.096 1_656 S
O27 C8 1.247 1_655 S
C28 O25 1.244 . S
C28 O26 1.240 1_455 S
H29 C3 0.931 . S
H30 C12 0.931 . S
H31 C16 0.929 . S
H32 C18 0.930 . S
Co33 N37 2.148 . S
Co33 N43 2.128 1_545 S
Co33 N53 2.194 . S
Co33 O58 2.351 . S
Co33 O59 2.155 1_545 S
Co33 O60 2.096 1_544 S
C34 N37 1.301 . S
C34 N38 1.328 . S
C34 H39 0.930 . S
C35 C36 1.333 . S
C35 N37 1.317 1_556 S
C35 H40 0.930 . S
C36 C35 1.333 . S
C36 N38 1.350 1_556 S
C36 H62 0.931 . S
N37 Co33 2.148 . S
N37 C34 1.301 . S
N37 C35 1.317 1_554 S
N38 C34 1.328 . S
N38 C36 1.350 1_554 S
H39 C34 0.930 . S
H40 C35 0.930 . S
C41 O42 1.224 . S
C41 O60 1.247 1_545 S
O42 C41 1.224 . S
N43 Co33 2.128 1_565 S
N43 C44 1.355 . S
N43 C46 1.311 1_554 S
C44 N43 1.355 . S
C44 C45 1.363 . S
C44 H56 0.929 1_565 S
C45 C44 1.363 . S
C45 N47 1.375 . S
C45 H63 0.931 . S
C46 N43 1.311 1_556 S
C46 N47 1.347 1_556 S
C46 H57 0.929 . S
N47 C45 1.375 . S
N47 C46 1.347 1_554 S
C48 C51 1.365 . S
C48 N53 1.328 . S
C48 H54 0.929 . S
C49 C50 1.362 1_556 S
C49 C52 1.378 . S
C49 H64 0.929 . S
C50 C49 1.362 1_554 S
C50 C51 1.366 . S
C51 C48 1.365 . S
C51 C50 1.366 . S
C51 H65 0.930 . S
C52 C49 1.378 . S
C52 N53 1.315 1_556 S
C52 H55 0.930 . S
N53 Co33 2.194 . S
N53 C48 1.328 . S
N53 C52 1.315 1_554 S
H54 C48 0.929 . S
H55 C52 0.930 . S
H56 C44 0.929 1_545 S
H57 C46 0.929 . S
O58 Co33 2.351 . S
O58 C61 1.244 . S
O59 Co33 2.155 1_565 S
O59 C61 1.240 1_565 S
O60 Co33 2.096 1_566 S
O60 C41 1.247 1_565 S
C61 O58 1.244 . S
C61 O59 1.240 1_545 S
H62 C36 0.931 . S
H63 C45 0.931 . S
H64 C49 0.929 . S
H65 C51 0.930 . S
Co66 N70 2.148 . S
Co66 N76 2.128 1_655 S
Co66 N86 2.194 . S
Co66 O91 2.351 . S
Co66 O92 2.155 1_655 S
Co66 O93 2.096 1_654 S
C67 N70 1.301 . S
C67 N71 1.328 . S
C67 H72 0.930 . S
C68 C69 1.333 . S
C68 N70 1.317 1_556 S
C68 H73 0.930 . S
C69 C68 1.333 . S
C69 N71 1.350 1_556 S
C69 H95 0.931 . S
N70 Co66 2.148 . S
N70 C67 1.301 . S
N70 C68 1.317 1_554 S
N71 C67 1.328 . S
N71 C69 1.350 1_554 S
H72 C67 0.930 . S
H73 C68 0.930 . S
C74 O75 1.224 . S
C74 O93 1.247 1_655 S
O75 C74 1.224 . S
N76 Co66 2.128 1_455 S
N76 C77 1.355 . S
N76 C79 1.311 1_554 S
C77 N76 1.355 . S
C77 C78 1.363 . S
C77 H89 0.929 1_455 S
C78 C77 1.363 . S
C78 N80 1.375 . S
C78 H96 0.931 . S
C79 N76 1.311 1_556 S
C79 N80 1.347 1_556 S
C79 H90 0.929 . S
N80 C78 1.375 . S
N80 C79 1.347 1_554 S
C81 C84 1.365 . S
C81 N86 1.328 . S
C81 H87 0.929 . S
C82 C83 1.362 1_556 S
C82 C85 1.378 . S
C82 H97 0.929 . S
C83 C82 1.362 1_554 S
C83 C84 1.366 . S
C84 C81 1.365 . S
C84 C83 1.366 . S
C84 H98 0.930 . S
C85 C82 1.378 . S
C85 N86 1.315 1_556 S
C85 H88 0.930 . S
N86 Co66 2.194 . S
N86 C81 1.328 . S
N86 C85 1.315 1_554 S
H87 C81 0.929 . S
H88 C85 0.930 . S
H89 C77 0.929 1_655 S
H90 C79 0.929 . S
O91 Co66 2.351 . S
O91 C94 1.244 . S
O92 Co66 2.155 1_455 S
O92 C94 1.240 1_455 S
O93 Co66 2.096 1_456 S
O93 C74 1.247 1_455 S
C94 O91 1.244 . S
C94 O92 1.240 1_655 S
H95 C69 0.931 . S
H96 C78 0.931 . S
H97 C82 0.929 . S
H98 C84 0.930 . S
Co99 N103 2.148 . S
Co99 N109 2.128 1_565 S
Co99 N119 2.194 . S
Co99 O124 2.351 . S
Co99 O125 2.155 1_565 S
Co99 O126 2.096 1_564 S
C100 N103 1.301 . S
C100 N104 1.328 . S
C100 H105 0.930 . S
C101 C102 1.333 . S
C101 N103 1.317 1_556 S
C101 H106 0.930 . S
C102 C101 1.333 . S
C102 N104 1.350 1_556 S
C102 H128 0.931 . S
N103 Co99 2.148 . S
N103 C100 1.301 . S
N103 C101 1.317 1_554 S
N104 C100 1.328 . S
N104 C102 1.350 1_554 S
H105 C100 0.930 . S
H106 C101 0.930 . S
C107 O108 1.224 . S
C107 O126 1.247 1_565 S
O108 C107 1.224 . S
N109 Co99 2.128 1_545 S
N109 C110 1.355 . S
N109 C112 1.311 1_554 S
C110 N109 1.355 . S
C110 C111 1.363 . S
C110 H122 0.929 1_545 S
C111 C110 1.363 . S
C111 N113 1.375 . S
C111 H129 0.931 . S
C112 N109 1.311 1_556 S
C112 N113 1.347 1_556 S
C112 H123 0.929 . S
N113 C111 1.375 . S
N113 C112 1.347 1_554 S
C114 C117 1.365 . S
C114 N119 1.328 . S
C114 H120 0.929 . S
C115 C116 1.362 1_556 S
C115 C118 1.378 . S
C115 H130 0.929 . S
C116 C115 1.362 1_554 S
C116 C117 1.366 . S
C117 C114 1.365 . S
C117 C116 1.366 . S
C117 H131 0.930 . S
C118 C115 1.378 . S
C118 N119 1.315 1_556 S
C118 H121 0.930 . S
N119 Co99 2.194 . S
N119 C114 1.328 . S
N119 C118 1.315 1_554 S
H120 C114 0.929 . S
H121 C118 0.930 . S
H122 C110 0.929 1_565 S
H123 C112 0.929 . S
O124 Co99 2.351 . S
O124 C127 1.244 . S
O125 Co99 2.155 1_545 S
O125 C127 1.240 1_545 S
O126 Co99 2.096 1_546 S
O126 C107 1.247 1_545 S
C127 O124 1.244 . S
C127 O125 1.240 1_565 S
H128 C102 0.931 . S
H129 C111 0.931 . S
H130 C115 0.929 . S
H131 C117 0.930 . S
Co132 N136 2.148 . S
Co132 N142 2.128 1_455 S
Co132 N152 2.194 . S
Co132 O157 2.351 . S
Co132 O158 2.155 1_455 S
Co132 O159 2.096 1_455 S
C133 N136 1.301 . S
C133 N137 1.328 . S
C133 H138 0.930 . S
C134 C135 1.333 . S
C134 N136 1.317 . S
C134 H139 0.930 . S
C135 C134 1.333 . S
C135 N137 1.350 . S
C135 H161 0.931 . S
N136 Co132 2.148 . S
N136 C133 1.301 . S
N136 C134 1.317 . S
N137 C133 1.328 . S
N137 C135 1.350 . S
H138 C133 0.930 . S
H139 C134 0.930 . S
C140 O141 1.224 . S
C140 O159 1.247 1_455 S
O141 C140 1.224 . S
N142 Co132 2.128 1_655 S
N142 C143 1.355 . S
N142 C145 1.311 . S
C143 N142 1.355 . S
C143 C144 1.363 . S
C143 H155 0.929 1_655 S
C144 C143 1.363 . S
C144 N146 1.375 . S
C144 H162 0.931 . S
C145 N142 1.311 . S
C145 N146 1.347 . S
C145 H156 0.929 . S
N146 C144 1.375 . S
N146 C145 1.347 . S
C147 C150 1.365 . S
C147 N152 1.328 . S
C147 H153 0.929 . S
C148 C149 1.362 . S
C148 C151 1.378 . S
C148 H163 0.929 . S
C149 C148 1.362 . S
C149 C150 1.366 . S
C150 C147 1.365 . S
C150 C149 1.366 . S
C150 H164 0.930 . S
C151 C148 1.378 . S
C151 N152 1.315 . S
C151 H154 0.930 . S
N152 Co132 2.194 . S
N152 C147 1.328 . S
N152 C151 1.315 . S
H153 C147 0.929 . S
H154 C151 0.930 . S
H155 C143 0.929 1_455 S
H156 C145 0.929 . S
O157 Co132 2.351 . S
O157 C160 1.244 . S
O158 Co132 2.155 1_655 S
O158 C160 1.240 1_655 S
O159 Co132 2.096 1_655 S
O159 C140 1.247 1_655 S
C160 O157 1.244 . S
C160 O158 1.240 1_455 S
H161 C135 0.931 . S
H162 C144 0.931 . S
H163 C148 0.929 . S
H164 C150 0.930 . S
Co165 N169 2.148 . S
Co165 N175 2.128 1_545 S
Co165 N185 2.194 . S
Co165 O190 2.351 . S
Co165 O191 2.155 1_545 S
Co165 O192 2.096 1_545 S
C166 N169 1.301 . S
C166 N170 1.328 . S
C166 H171 0.930 . S
C167 C168 1.333 . S
C167 N169 1.317 . S
C167 H172 0.930 . S
C168 C167 1.333 . S
C168 N170 1.350 . S
C168 H194 0.931 . S
N169 Co165 2.148 . S
N169 C166 1.301 . S
N169 C167 1.317 . S
N170 C166 1.328 . S
N170 C168 1.350 . S
H171 C166 0.930 . S
H172 C167 0.930 . S
C173 O174 1.224 . S
C173 O192 1.247 1_545 S
O174 C173 1.224 . S
N175 Co165 2.128 1_565 S
N175 C176 1.355 . S
N175 C178 1.311 . S
C176 N175 1.355 . S
C176 C177 1.363 . S
C176 H188 0.929 1_565 S
C177 C176 1.363 . S
C177 N179 1.375 . S
C177 H195 0.931 . S
C178 N175 1.311 . S
C178 N179 1.347 . S
C178 H189 0.929 . S
N179 C177 1.375 . S
N179 C178 1.347 . S
C180 C183 1.365 . S
C180 N185 1.328 . S
C180 H186 0.929 . S
C181 C182 1.362 . S
C181 C184 1.378 . S
C181 H196 0.929 . S
C182 C181 1.362 . S
C182 C183 1.366 . S
C183 C180 1.365 . S
C183 C182 1.366 . S
C183 H197 0.930 . S
C184 C181 1.378 . S
C184 N185 1.315 . S
C184 H187 0.930 . S
N185 Co165 2.194 . S
N185 C180 1.328 . S
N185 C184 1.315 . S
H186 C180 0.929 . S
H187 C184 0.930 . S
H188 C176 0.929 1_545 S
H189 C178 0.929 . S
O190 Co165 2.351 . S
O190 C193 1.244 . S
O191 Co165 2.155 1_565 S
O191 C193 1.240 1_565 S
O192 Co165 2.096 1_565 S
O192 C173 1.247 1_565 S
C193 O190 1.244 . S
C193 O191 1.240 1_545 S
H194 C168 0.931 . S
H195 C177 0.931 . S
H196 C181 0.929 . S
H197 C183 0.930 . S
Co198 N202 2.148 . S
Co198 N208 2.128 1_655 S
Co198 N218 2.194 . S
Co198 O223 2.351 . S
Co198 O224 2.155 1_655 S
Co198 O225 2.096 1_655 S
C199 N202 1.301 . S
C199 N203 1.328 . S
C199 H204 0.930 . S
C200 C201 1.333 . S
C200 N202 1.317 . S
C200 H205 0.930 . S
C201 C200 1.333 . S
C201 N203 1.350 . S
C201 H227 0.931 . S
N202 Co198 2.148 . S
N202 C199 1.301 . S
N202 C200 1.317 . S
N203 C199 1.328 . S
N203 C201 1.350 . S
H204 C199 0.930 . S
H205 C200 0.930 . S
C206 O207 1.224 . S
C206 O225 1.247 1_655 S
O207 C206 1.224 . S
N208 Co198 2.128 1_455 S
N208 C209 1.355 . S
N208 C211 1.311 . S
C209 N208 1.355 . S
C209 C210 1.363 . S
C209 H221 0.929 1_455 S
C210 C209 1.363 . S
C210 N212 1.375 . S
C210 H228 0.931 . S
C211 N208 1.311 . S
C211 N212 1.347 . S
C211 H222 0.929 . S
N212 C210 1.375 . S
N212 C211 1.347 . S
C213 C216 1.365 . S
C213 N218 1.328 . S
C213 H219 0.929 . S
C214 C215 1.362 . S
C214 C217 1.378 . S
C214 H229 0.929 . S
C215 C214 1.362 . S
C215 C216 1.366 . S
C216 C213 1.365 . S
C216 C215 1.366 . S
C216 H230 0.930 . S
C217 C214 1.378 . S
C217 N218 1.315 . S
C217 H220 0.930 . S
N218 Co198 2.194 . S
N218 C213 1.328 . S
N218 C217 1.315 . S
H219 C213 0.929 . S
H220 C217 0.930 . S
H221 C209 0.929 1_655 S
H222 C211 0.929 . S
O223 Co198 2.351 . S
O223 C226 1.244 . S
O224 Co198 2.155 1_455 S
O224 C226 1.240 1_455 S
O225 Co198 2.096 1_455 S
O225 C206 1.247 1_455 S
C226 O223 1.244 . S
C226 O224 1.240 1_655 S
H227 C201 0.931 . S
H228 C210 0.931 . S
H229 C214 0.929 . S
H230 C216 0.930 . S
Co231 N235 2.148 . S
Co231 N241 2.128 1_565 S
Co231 N251 2.194 . S
Co231 O256 2.351 . S
Co231 O257 2.155 1_565 S
Co231 O258 2.096 1_565 S
C232 N235 1.301 . S
C232 N236 1.328 . S
C232 H237 0.930 . S
C233 C234 1.333 . S
C233 N235 1.317 . S
C233 H238 0.930 . S
C234 C233 1.333 . S
C234 N236 1.350 . S
C234 H260 0.931 . S
N235 Co231 2.148 . S
N235 C232 1.301 . S
N235 C233 1.317 . S
N236 C232 1.328 . S
N236 C234 1.350 . S
H237 C232 0.930 . S
H238 C233 0.930 . S
C239 O240 1.224 . S
C239 O258 1.247 1_565 S
O240 C239 1.224 . S
N241 Co231 2.128 1_545 S
N241 C242 1.355 . S
N241 C244 1.311 . S
C242 N241 1.355 . S
C242 C243 1.363 . S
C242 H254 0.929 1_545 S
C243 C242 1.363 . S
C243 N245 1.375 . S
C243 H261 0.931 . S
C244 N241 1.311 . S
C244 N245 1.347 . S
C244 H255 0.929 . S
N245 C243 1.375 . S
N245 C244 1.347 . S
C246 C249 1.365 . S
C246 N251 1.328 . S
C246 H252 0.929 . S
C247 C248 1.362 . S
C247 C250 1.378 . S
C247 H262 0.929 . S
C248 C247 1.362 . S
C248 C249 1.366 . S
C249 C246 1.365 . S
C249 C248 1.366 . S
C249 H263 0.930 . S
C250 C247 1.378 . S
C250 N251 1.315 . S
C250 H253 0.930 . S
N251 Co231 2.194 . S
N251 C246 1.328 . S
N251 C250 1.315 . S
H252 C246 0.929 . S
H253 C250 0.930 . S
H254 C242 0.929 1_565 S
H255 C244 0.929 . S
O256 Co231 2.351 . S
O256 C259 1.244 . S
O257 Co231 2.155 1_545 S
O257 C259 1.240 1_545 S
O258 Co231 2.096 1_545 S
O258 C239 1.247 1_545 S
C259 O256 1.244 . S
C259 O257 1.240 1_565 S
H260 C234 0.931 . S
H261 C243 0.931 . S
H262 C247 0.929 . S
H263 C249 0.930 . S
Co264 N268 2.148 . S
Co264 N274 2.128 . S
Co264 N284 2.194 . S
Co264 O289 2.351 . S
Co264 O290 2.155 . S
Co264 O291 2.096 . S
C265 N268 1.301 . S
C265 N269 1.328 . S
C265 H270 0.930 . S
C266 C267 1.333 . S
C266 N268 1.317 . S
C266 H271 0.930 . S
C267 C266 1.333 . S
C267 N269 1.350 . S
C267 H293 0.931 . S
N268 Co264 2.148 . S
N268 C265 1.301 . S
N268 C266 1.317 . S
N269 C265 1.328 . S
N269 C267 1.350 . S
H270 C265 0.930 . S
H271 C266 0.930 . S
C272 O273 1.224 . S
C272 O291 1.247 . S
O273 C272 1.224 . S
N274 Co264 2.128 . S
N274 C275 1.355 . S
N274 C277 1.311 . S
C275 N274 1.355 . S
C275 C276 1.363 . S
C275 H287 0.929 . S
C276 C275 1.363 . S
C276 N278 1.375 . S
C276 H294 0.931 . S
C277 N274 1.311 . S
C277 N278 1.347 . S
C277 H288 0.929 . S
N278 C276 1.375 . S
N278 C277 1.347 . S
C279 C282 1.365 . S
C279 N284 1.328 . S
C279 H285 0.929 . S
C280 C281 1.362 . S
C280 C283 1.378 . S
C280 H295 0.929 . S
C281 C280 1.362 . S
C281 C282 1.366 . S
C282 C279 1.365 . S
C282 C281 1.366 . S
C282 H296 0.930 . S
C283 C280 1.378 . S
C283 N284 1.315 . S
C283 H286 0.930 . S
N284 Co264 2.194 . S
N284 C279 1.328 . S
N284 C283 1.315 . S
H285 C279 0.929 . S
H286 C283 0.930 . S
H287 C275 0.929 . S
H288 C277 0.929 . S
O289 Co264 2.351 . S
O289 C292 1.244 . S
O290 Co264 2.155 . S
O290 C292 1.240 . S
O291 Co264 2.096 . S
O291 C272 1.247 . S
C292 O289 1.244 . S
C292 O290 1.240 . S
H293 C267 0.931 . S
H294 C276 0.931 . S
H295 C280 0.929 . S
H296 C282 0.930 . S
Co297 N301 2.148 . S
Co297 N307 2.128 . S
Co297 N317 2.194 . S
Co297 O322 2.351 . S
Co297 O323 2.155 . S
Co297 O324 2.096 . S
C298 N301 1.301 . S
C298 N302 1.328 . S
C298 H303 0.930 . S
C299 C300 1.333 . S
C299 N301 1.317 . S
C299 H304 0.930 . S
C300 C299 1.333 . S
C300 N302 1.350 . S
C300 H326 0.931 . S
N301 Co297 2.148 . S
N301 C298 1.301 . S
N301 C299 1.317 . S
N302 C298 1.328 . S
N302 C300 1.350 . S
H303 C298 0.930 . S
H304 C299 0.930 . S
C305 O306 1.224 . S
C305 O324 1.247 . S
O306 C305 1.224 . S
N307 Co297 2.128 . S
N307 C308 1.355 . S
N307 C310 1.311 . S
C308 N307 1.355 . S
C308 C309 1.363 . S
C308 H320 0.929 . S
C309 C308 1.363 . S
C309 N311 1.375 . S
C309 H327 0.931 . S
C310 N307 1.311 . S
C310 N311 1.347 . S
C310 H321 0.929 . S
N311 C309 1.375 . S
N311 C310 1.347 . S
C312 C315 1.365 . S
C312 N317 1.328 . S
C312 H318 0.929 . S
C313 C314 1.362 . S
C313 C316 1.378 . S
C313 H328 0.929 . S
C314 C313 1.362 . S
C314 C315 1.366 . S
C315 C312 1.365 . S
C315 C314 1.366 . S
C315 H329 0.930 . S
C316 C313 1.378 . S
C316 N317 1.315 . S
C316 H319 0.930 . S
N317 Co297 2.194 . S
N317 C312 1.328 . S
N317 C316 1.315 . S
H318 C312 0.929 . S
H319 C316 0.930 . S
H320 C308 0.929 . S
H321 C310 0.929 . S
O322 Co297 2.351 . S
O322 C325 1.244 . S
O323 Co297 2.155 . S
O323 C325 1.240 . S
O324 Co297 2.096 . S
O324 C305 1.247 . S
C325 O322 1.244 . S
C325 O323 1.240 . S
H326 C300 0.931 . S
H327 C309 0.931 . S
H328 C313 0.929 . S
H329 C315 0.930 . S
Co330 N334 2.148 . S
Co330 N340 2.128 . S
Co330 N350 2.194 . S
Co330 O355 2.351 . S
Co330 O356 2.155 . S
Co330 O357 2.096 . S
C331 N334 1.301 . S
C331 N335 1.328 . S
C331 H336 0.930 . S
C332 C333 1.333 . S
C332 N334 1.317 . S
C332 H337 0.930 . S
C333 C332 1.333 . S
C333 N335 1.350 . S
C333 H359 0.931 . S
N334 Co330 2.148 . S
N334 C331 1.301 . S
N334 C332 1.317 . S
N335 C331 1.328 . S
N335 C333 1.350 . S
H336 C331 0.930 . S
H337 C332 0.930 . S
C338 O339 1.224 . S
C338 O357 1.247 . S
O339 C338 1.224 . S
N340 Co330 2.128 . S
N340 C341 1.355 . S
N340 C343 1.311 . S
C341 N340 1.355 . S
C341 C342 1.363 . S
C341 H353 0.929 . S
C342 C341 1.363 . S
C342 N344 1.375 . S
C342 H360 0.931 . S
C343 N340 1.311 . S
C343 N344 1.347 . S
C343 H354 0.929 . S
N344 C342 1.375 . S
N344 C343 1.347 . S
C345 C348 1.365 . S
C345 N350 1.328 . S
C345 H351 0.929 . S
C346 C347 1.362 . S
C346 C349 1.378 . S
C346 H361 0.929 . S
C347 C346 1.362 . S
C347 C348 1.366 . S
C348 C345 1.365 . S
C348 C347 1.366 . S
C348 H362 0.930 . S
C349 C346 1.378 . S
C349 N350 1.315 . S
C349 H352 0.930 . S
N350 Co330 2.194 . S
N350 C345 1.328 . S
N350 C349 1.315 . S
H351 C345 0.929 . S
H352 C349 0.930 . S
H353 C341 0.929 . S
H354 C343 0.929 . S
O355 Co330 2.351 . S
O355 C358 1.244 . S
O356 Co330 2.155 . S
O356 C358 1.240 . S
O357 Co330 2.096 . S
O357 C338 1.247 . S
C358 O355 1.244 . S
C358 O356 1.240 . S
H359 C333 0.931 . S
H360 C342 0.931 . S
H361 C346 0.929 . S
H362 C348 0.930 . S
Co363 N367 2.148 . S
Co363 N373 2.128 . S
Co363 N383 2.194 . S
Co363 O388 2.351 . S
Co363 O389 2.155 . S
Co363 O390 2.096 . S
C364 N367 1.301 . S
C364 N368 1.328 . S
C364 H369 0.930 . S
C365 C366 1.333 . S
C365 N367 1.317 . S
C365 H370 0.930 . S
C366 C365 1.333 . S
C366 N368 1.350 . S
C366 H392 0.931 . S
N367 Co363 2.148 . S
N367 C364 1.301 . S
N367 C365 1.317 . S
N368 C364 1.328 . S
N368 C366 1.350 . S
H369 C364 0.930 . S
H370 C365 0.930 . S
C371 O372 1.224 . S
C371 O390 1.247 . S
O372 C371 1.224 . S
N373 Co363 2.128 . S
N373 C374 1.355 . S
N373 C376 1.311 . S
C374 N373 1.355 . S
C374 C375 1.363 . S
C374 H386 0.929 . S
C375 C374 1.363 . S
C375 N377 1.375 . S
C375 H393 0.931 . S
C376 N373 1.311 . S
C376 N377 1.347 . S
C376 H387 0.929 . S
N377 C375 1.375 . S
N377 C376 1.347 . S
C378 C381 1.365 . S
C378 N383 1.328 . S
C378 H384 0.929 . S
C379 C380 1.362 . S
C379 C382 1.378 . S
C379 H394 0.929 . S
C380 C379 1.362 . S
C380 C381 1.366 . S
C381 C378 1.365 . S
C381 C380 1.366 . S
C381 H395 0.930 . S
C382 C379 1.378 . S
C382 N383 1.315 . S
C382 H385 0.930 . S
N383 Co363 2.194 . S
N383 C378 1.328 . S
N383 C382 1.315 . S
H384 C378 0.929 . S
H385 C382 0.930 . S
H386 C374 0.929 . S
H387 C376 0.929 . S
O388 Co363 2.351 . S
O388 C391 1.244 . S
O389 Co363 2.155 . S
O389 C391 1.240 . S
O390 Co363 2.096 . S
O390 C371 1.247 . S
C391 O388 1.244 . S
C391 O389 1.240 . S
H392 C366 0.931 . S
H393 C375 0.931 . S
H394 C379 0.929 . S
H395 C381 0.930 . S
Co396 N400 2.148 . S
Co396 N406 2.128 . S
Co396 N416 2.194 . S
Co396 O421 2.351 1_554 S
Co396 O422 2.155 1_554 S
Co396 O423 2.096 . S
C397 N400 1.301 . S
C397 N401 1.328 . S
C397 H402 0.930 1_554 S
C398 C399 1.333 . S
C398 N400 1.317 . S
C398 H403 0.930 . S
C399 C398 1.333 . S
C399 N401 1.350 . S
C399 H425 0.931 . S
N400 Co396 2.148 . S
N400 C397 1.301 . S
N400 C398 1.317 . S
N401 C397 1.328 . S
N401 C399 1.350 . S
H402 C397 0.930 1_556 S
H403 C398 0.930 . S
C404 O405 1.224 . S
C404 O423 1.247 . S
O405 C404 1.224 . S
N406 Co396 2.128 . S
N406 C407 1.355 . S
N406 C409 1.311 . S
C407 N406 1.355 . S
C407 C408 1.363 . S
C407 H419 0.929 1_554 S
C408 C407 1.363 . S
C408 N410 1.375 . S
C408 H426 0.931 . S
C409 N406 1.311 . S
C409 N410 1.347 . S
C409 H420 0.929 . S
N410 C408 1.375 . S
N410 C409 1.347 . S
C411 C414 1.365 . S
C411 N416 1.328 . S
C411 H417 0.929 1_554 S
C412 C413 1.362 . S
C412 C415 1.378 . S
C412 H427 0.929 . S
C413 C412 1.362 . S
C413 C414 1.366 . S
C414 C411 1.365 . S
C414 C413 1.366 . S
C414 H428 0.930 1_554 S
C415 C412 1.378 . S
C415 N416 1.315 . S
C415 H418 0.930 . S
N416 Co396 2.194 . S
N416 C411 1.328 . S
N416 C415 1.315 . S
H417 C411 0.929 1_556 S
H418 C415 0.930 . S
H419 C407 0.929 1_556 S
H420 C409 0.929 . S
O421 Co396 2.351 1_556 S
O421 C424 1.244 . S
O422 Co396 2.155 1_556 S
O422 C424 1.240 . S
O423 Co396 2.096 . S
O423 C404 1.247 . S
C424 O421 1.244 . S
C424 O422 1.240 . S
H425 C399 0.931 . S
H426 C408 0.931 . S
H427 C412 0.929 . S
H428 C414 0.930 1_556 S
Co429 N433 2.148 . S
Co429 N439 2.128 . S
Co429 N449 2.194 . S
Co429 O454 2.351 1_554 S
Co429 O455 2.155 1_554 S
Co429 O456 2.096 . S
C430 N433 1.301 . S
C430 N434 1.328 . S
C430 H435 0.930 1_554 S
C431 C432 1.333 . S
C431 N433 1.317 . S
C431 H436 0.930 . S
C432 C431 1.333 . S
C432 N434 1.350 . S
C432 H458 0.931 . S
N433 Co429 2.148 . S
N433 C430 1.301 . S
N433 C431 1.317 . S
N434 C430 1.328 . S
N434 C432 1.350 . S
H435 C430 0.930 1_556 S
H436 C431 0.930 . S
C437 O438 1.224 . S
C437 O456 1.247 . S
O438 C437 1.224 . S
N439 Co429 2.128 . S
N439 C440 1.355 . S
N439 C442 1.311 . S
C440 N439 1.355 . S
C440 C441 1.363 . S
C440 H452 0.929 1_554 S
C441 C440 1.363 . S
C441 N443 1.375 . S
C441 H459 0.931 . S
C442 N439 1.311 . S
C442 N443 1.347 . S
C442 H453 0.929 . S
N443 C441 1.375 . S
N443 C442 1.347 . S
C444 C447 1.365 . S
C444 N449 1.328 . S
C444 H450 0.929 1_554 S
C445 C446 1.362 . S
C445 C448 1.378 . S
C445 H460 0.929 . S
C446 C445 1.362 . S
C446 C447 1.366 . S
C447 C444 1.365 . S
C447 C446 1.366 . S
C447 H461 0.930 1_554 S
C448 C445 1.378 . S
C448 N449 1.315 . S
C448 H451 0.930 . S
N449 Co429 2.194 . S
N449 C444 1.328 . S
N449 C448 1.315 . S
H450 C444 0.929 1_556 S
H451 C448 0.930 . S
H452 C440 0.929 1_556 S
H453 C442 0.929 . S
O454 Co429 2.351 1_556 S
O454 C457 1.244 . S
O455 Co429 2.155 1_556 S
O455 C457 1.240 . S
O456 Co429 2.096 . S
O456 C437 1.247 . S
C457 O454 1.244 . S
C457 O455 1.240 . S
H458 C432 0.931 . S
H459 C441 0.931 . S
H460 C445 0.929 . S
H461 C447 0.930 1_556 S
Co462 N466 2.148 . S
Co462 N472 2.128 . S
Co462 N482 2.194 . S
Co462 O487 2.351 1_554 S
Co462 O488 2.155 1_554 S
Co462 O489 2.096 . S
C463 N466 1.301 . S
C463 N467 1.328 . S
C463 H468 0.930 1_554 S
C464 C465 1.333 . S
C464 N466 1.317 . S
C464 H469 0.930 . S
C465 C464 1.333 . S
C465 N467 1.350 . S
C465 H491 0.931 . S
N466 Co462 2.148 . S
N466 C463 1.301 . S
N466 C464 1.317 . S
N467 C463 1.328 . S
N467 C465 1.350 . S
H468 C463 0.930 1_556 S
H469 C464 0.930 . S
C470 O471 1.224 . S
C470 O489 1.247 . S
O471 C470 1.224 . S
N472 Co462 2.128 . S
N472 C473 1.355 . S
N472 C475 1.311 . S
C473 N472 1.355 . S
C473 C474 1.363 . S
C473 H485 0.929 1_554 S
C474 C473 1.363 . S
C474 N476 1.375 . S
C474 H492 0.931 . S
C475 N472 1.311 . S
C475 N476 1.347 . S
C475 H486 0.929 . S
N476 C474 1.375 . S
N476 C475 1.347 . S
C477 C480 1.365 . S
C477 N482 1.328 . S
C477 H483 0.929 1_554 S
C478 C479 1.362 . S
C478 C481 1.378 . S
C478 H493 0.929 . S
C479 C478 1.362 . S
C479 C480 1.366 . S
C480 C477 1.365 . S
C480 C479 1.366 . S
C480 H494 0.930 1_554 S
C481 C478 1.378 . S
C481 N482 1.315 . S
C481 H484 0.930 . S
N482 Co462 2.194 . S
N482 C477 1.328 . S
N482 C481 1.315 . S
H483 C477 0.929 1_556 S
H484 C481 0.930 . S
H485 C473 0.929 1_556 S
H486 C475 0.929 . S
O487 Co462 2.351 1_556 S
O487 C490 1.244 . S
O488 Co462 2.155 1_556 S
O488 C490 1.240 . S
O489 Co462 2.096 . S
O489 C470 1.247 . S
C490 O487 1.244 . S
C490 O488 1.240 . S
H491 C465 0.931 . S
H492 C474 0.931 . S
H493 C478 0.929 . S
H494 C480 0.930 1_556 S
Co495 N499 2.148 . S
Co495 N505 2.128 . S
Co495 N515 2.194 . S
Co495 O520 2.351 1_554 S
Co495 O521 2.155 1_554 S
Co495 O522 2.096 . S
C496 N499 1.301 . S
C496 N500 1.328 . S
C496 H501 0.930 1_554 S
C497 C498 1.333 . S
C497 N499 1.317 . S
C497 H502 0.930 . S
C498 C497 1.333 . S
C498 N500 1.350 . S
C498 H524 0.931 . S
N499 Co495 2.148 . S
N499 C496 1.301 . S
N499 C497 1.317 . S
N500 C496 1.328 . S
N500 C498 1.350 . S
H501 C496 0.930 1_556 S
H502 C497 0.930 . S
C503 O504 1.224 . S
C503 O522 1.247 . S
O504 C503 1.224 . S
N505 Co495 2.128 . S
N505 C506 1.355 . S
N505 C508 1.311 . S
C506 N505 1.355 . S
C506 C507 1.363 . S
C506 H518 0.929 1_554 S
C507 C506 1.363 . S
C507 N509 1.375 . S
C507 H525 0.931 . S
C508 N505 1.311 . S
C508 N509 1.347 . S
C508 H519 0.929 . S
N509 C507 1.375 . S
N509 C508 1.347 . S
C510 C513 1.365 . S
C510 N515 1.328 . S
C510 H516 0.929 1_554 S
C511 C512 1.362 . S
C511 C514 1.378 . S
C511 H526 0.929 . S
C512 C511 1.362 . S
C512 C513 1.366 . S
C513 C510 1.365 . S
C513 C512 1.366 . S
C513 H527 0.930 1_554 S
C514 C511 1.378 . S
C514 N515 1.315 . S
C514 H517 0.930 . S
N515 Co495 2.194 . S
N515 C510 1.328 . S
N515 C514 1.315 . S
H516 C510 0.929 1_556 S
H517 C514 0.930 . S
H518 C506 0.929 1_556 S
H519 C508 0.929 . S
O520 Co495 2.351 1_556 S
O520 C523 1.244 . S
O521 Co495 2.155 1_556 S
O521 C523 1.240 . S
O522 Co495 2.096 . S
O522 C503 1.247 . S
C523 O520 1.244 . S
C523 O521 1.240 . S
H524 C498 0.931 . S
H525 C507 0.931 . S
H526 C511 0.929 . S
H527 C513 0.930 1_556 S
C528 C529 1.363 1_556 S
C528 C534 1.379 . S
C528 N536 1.356 . S
C529 C528 1.363 1_554 S
C529 C535 1.363 . S
C530 C531 1.363 . S
C530 C535 1.379 . S
C530 N537 1.356 . S
C531 C530 1.363 . S
C531 C534 1.363 1_554 S
N532 C534 1.356 . S
N532 H544 0.984 . S
N532 H545 0.985 . S
N533 C535 1.356 . S
N533 H538 0.984 . S
N533 H539 0.985 . S
C534 C528 1.379 . S
C534 C531 1.363 1_556 S
C534 N532 1.356 . S
C535 C529 1.363 . S
C535 C530 1.379 . S
C535 N533 1.356 . S
N536 C528 1.356 . S
N536 H542 0.984 . S
N536 H543 0.984 . S
N537 C530 1.356 . S
N537 H540 0.984 . S
N537 H541 0.985 . S
H538 N533 0.984 . S
H539 N533 0.985 . S
H540 N537 0.984 . S
H541 N537 0.985 . S
H542 N536 0.984 . S
H543 N536 0.984 . S
H544 N532 0.984 . S
H545 N532 0.985 . S
C546 C547 1.363 . S
C546 C552 1.379 . S
C546 N554 1.356 . S
C547 C546 1.363 . S
C547 C553 1.363 1_554 S
C548 C549 1.363 1_556 S
C548 C553 1.379 . S
C548 N555 1.356 . S
C549 C548 1.363 1_554 S
C549 C552 1.363 . S
N550 C552 1.356 . S
N550 H562 0.984 . S
N550 H563 0.985 . S
N551 C553 1.356 . S
N551 H556 0.984 . S
N551 H557 0.985 . S
C552 C546 1.379 . S
C552 C549 1.363 . S
C552 N550 1.356 . S
C553 C547 1.363 1_556 S
C553 C548 1.379 . S
C553 N551 1.356 . S
N554 C546 1.356 . S
N554 H560 0.984 . S
N554 H561 0.984 . S
N555 C548 1.356 . S
N555 H558 0.984 . S
N555 H559 0.985 . S
H556 N551 0.984 . S
H557 N551 0.985 . S
H558 N555 0.984 . S
H559 N555 0.985 . S
H560 N554 0.984 . S
H561 N554 0.984 . S
H562 N550 0.984 . S
H563 N550 0.985 . S
C564 C565 1.363 . S
C564 C570 1.379 . S
C564 N572 1.356 . S
C565 C564 1.363 . S
C565 C571 1.363 1_554 S
C566 C567 1.363 1_556 S
C566 C571 1.379 . S
C566 N573 1.356 . S
C567 C566 1.363 1_554 S
C567 C570 1.363 . S
N568 C570 1.356 . S
N568 H580 0.984 . S
N568 H581 0.985 . S
N569 C571 1.356 . S
N569 H574 0.984 . S
N569 H575 0.985 . S
C570 C564 1.379 . S
C570 C567 1.363 . S
C570 N568 1.356 . S
C571 C565 1.363 1_556 S
C571 C566 1.379 . S
C571 N569 1.356 . S
N572 C564 1.356 . S
N572 H578 0.984 . S
N572 H579 0.984 . S
N573 C566 1.356 . S
N573 H576 0.984 . S
N573 H577 0.985 . S
H574 N569 0.984 . S
H575 N569 0.985 . S
H576 N573 0.984 . S
H577 N573 0.985 . S
H578 N572 0.984 . S
H579 N572 0.984 . S
H580 N568 0.984 . S
H581 N568 0.985 . S
C582 C583 1.363 1_556 S
C582 C588 1.379 . S
C582 N590 1.356 . S
C583 C582 1.363 1_554 S
C583 C589 1.363 . S
C584 C585 1.363 . S
C584 C589 1.379 . S
C584 N591 1.356 . S
C585 C584 1.363 . S
C585 C588 1.363 1_554 S
N586 C588 1.356 . S
N586 H598 0.984 . S
N586 H599 0.985 . S
N587 C589 1.356 . S
N587 H592 0.984 . S
N587 H593 0.985 . S
C588 C582 1.379 . S
C588 C585 1.363 1_556 S
C588 N586 1.356 . S
C589 C583 1.363 . S
C589 C584 1.379 . S
C589 N587 1.356 . S
N590 C582 1.356 . S
N590 H596 0.984 . S
N590 H597 0.984 . S
N591 C584 1.356 . S
N591 H594 0.984 . S
N591 H595 0.985 . S
H592 N587 0.984 . S
H593 N587 0.985 . S
H594 N591 0.984 . S
H595 N591 0.985 . S
H596 N590 0.984 . S
H597 N590 0.984 . S
H598 N586 0.984 . S
H599 N586 0.985 . S
C600 C601 1.363 . S
C600 C606 1.379 . S
C600 N608 1.356 . S
C601 C600 1.363 . S
C601 C607 1.363 . S
C602 C603 1.363 . S
C602 C607 1.379 . S
C602 N609 1.356 . S
C603 C602 1.363 . S
C603 C606 1.363 . S
N604 C606 1.356 . S
N604 H616 0.984 . S
N604 H617 0.985 . S
N605 C607 1.356 . S
N605 H610 0.984 . S
N605 H611 0.985 . S
C606 C600 1.379 . S
C606 C603 1.363 . S
C606 N604 1.356 . S
C607 C601 1.363 . S
C607 C602 1.379 . S
C607 N605 1.356 . S
N608 C600 1.356 . S
N608 H614 0.984 . S
N608 H615 0.984 . S
N609 C602 1.356 . S
N609 H612 0.984 . S
N609 H613 0.985 . S
H610 N605 0.984 . S
H611 N605 0.985 . S
H612 N609 0.984 . S
H613 N609 0.985 . S
H614 N608 0.984 . S
H615 N608 0.984 . S
H616 N604 0.984 . S
H617 N604 0.985 . S
C618 C619 1.363 . S
C618 C624 1.379 . S
C618 N626 1.356 . S
C619 C618 1.363 . S
C619 C625 1.363 . S
C620 C621 1.363 . S
C620 C625 1.379 . S
C620 N627 1.356 . S
C621 C620 1.363 . S
C621 C624 1.363 . S
N622 C624 1.356 . S
N622 H634 0.984 . S
N622 H635 0.985 . S
N623 C625 1.356 . S
N623 H628 0.984 . S
N623 H629 0.985 . S
C624 C618 1.379 . S
C624 C621 1.363 . S
C624 N622 1.356 . S
C625 C619 1.363 . S
C625 C620 1.379 . S
C625 N623 1.356 . S
N626 C618 1.356 . S
N626 H632 0.984 . S
N626 H633 0.984 . S
N627 C620 1.356 . S
N627 H630 0.984 . S
N627 H631 0.985 . S
H628 N623 0.984 . S
H629 N623 0.985 . S
H630 N627 0.984 . S
H631 N627 0.985 . S
H632 N626 0.984 . S
H633 N626 0.984 . S
H634 N622 0.984 . S
H635 N622 0.985 . S
C636 C637 1.363 . S
C636 C642 1.379 . S
C636 N644 1.356 . S
C637 C636 1.363 . S
C637 C643 1.363 . S
C638 C639 1.363 . S
C638 C643 1.379 . S
C638 N645 1.356 . S
C639 C638 1.363 . S
C639 C642 1.363 . S
N640 C642 1.356 . S
N640 H652 0.984 . S
N640 H653 0.985 . S
N641 C643 1.356 . S
N641 H646 0.984 . S
N641 H647 0.985 . S
C642 C636 1.379 . S
C642 C639 1.363 . S
C642 N640 1.356 . S
C643 C637 1.363 . S
C643 C638 1.379 . S
C643 N641 1.356 . S
N644 C636 1.356 . S
N644 H650 0.984 . S
N644 H651 0.984 . S
N645 C638 1.356 . S
N645 H648 0.984 . S
N645 H649 0.985 . S
H646 N641 0.984 . S
H647 N641 0.985 . S
H648 N645 0.984 . S
H649 N645 0.985 . S
H650 N644 0.984 . S
H651 N644 0.984 . S
H652 N640 0.984 . S
H653 N640 0.985 . S
C654 C655 1.363 . S
C654 C660 1.379 . S
C654 N662 1.356 . S
C655 C654 1.363 . S
C655 C661 1.363 . S
C656 C657 1.363 . S
C656 C661 1.379 . S
C656 N663 1.356 . S
C657 C656 1.363 . S
C657 C660 1.363 . S
N658 C660 1.356 . S
N658 H670 0.984 . S
N658 H671 0.985 . S
N659 C661 1.356 . S
N659 H664 0.984 . S
N659 H665 0.985 . S
C660 C654 1.379 . S
C660 C657 1.363 . S
C660 N658 1.356 . S
C661 C655 1.363 . S
C661 C656 1.379 . S
C661 N659 1.356 . S
N662 C654 1.356 . S
N662 H668 0.984 . S
N662 H669 0.984 . S
N663 C656 1.356 . S
N663 H666 0.984 . S
N663 H667 0.985 . S
H664 N659 0.984 . S
H665 N659 0.985 . S
H666 N663 0.984 . S
H667 N663 0.985 . S
H668 N662 0.984 . S
H669 N662 0.984 . S
H670 N658 0.984 . S
H671 N658 0.985 . S
C672 C673 1.363 . S
C672 C678 1.379 . S
C672 N680 1.356 . S
C673 C672 1.363 . S
C673 C679 1.363 1_556 S
C674 C675 1.362 1_554 S
C674 C679 1.379 . S
C674 N681 1.356 . S
C675 C674 1.362 1_556 S
C675 C678 1.364 . S
N676 C678 1.356 . S
N676 H688 0.984 . S
N676 H689 0.985 . S
N677 C679 1.356 . S
N677 H682 0.984 . S
N677 H683 0.985 . S
C678 C672 1.379 . S
C678 C675 1.364 . S
C678 N676 1.356 . S
C679 C673 1.363 1_554 S
C679 C674 1.379 . S
C679 N677 1.356 . S
N680 C672 1.356 . S
N680 H686 0.984 . S
N680 H687 0.984 . S
N681 C674 1.356 . S
N681 H684 0.984 . S
N681 H685 0.985 . S
H682 N677 0.984 . S
H683 N677 0.985 . S
H684 N681 0.984 . S
H685 N681 0.985 . S
H686 N680 0.984 . S
H687 N680 0.984 . S
H688 N676 0.984 . S
H689 N676 0.985 . S
C690 C691 1.363 . S
C690 C696 1.379 . S
C690 N698 1.356 . S
C691 C690 1.363 . S
C691 C697 1.363 1_556 S
C692 C693 1.362 1_554 S
C692 C697 1.379 . S
C692 N699 1.356 . S
C693 C692 1.362 1_556 S
C693 C696 1.364 . S
N694 C696 1.356 . S
N694 H706 0.984 . S
N694 H707 0.985 . S
N695 C697 1.356 . S
N695 H700 0.984 . S
N695 H701 0.985 . S
C696 C690 1.379 . S
C696 C693 1.364 . S
C696 N694 1.356 . S
C697 C691 1.363 1_554 S
C697 C692 1.379 . S
C697 N695 1.356 . S
N698 C690 1.356 . S
N698 H704 0.984 . S
N698 H705 0.984 . S
N699 C692 1.356 . S
N699 H702 0.984 . S
N699 H703 0.985 . S
H700 N695 0.984 . S
H701 N695 0.985 . S
H702 N699 0.984 . S
H703 N699 0.985 . S
H704 N698 0.984 . S
H705 N698 0.984 . S
H706 N694 0.984 . S
H707 N694 0.985 . S
C708 C709 1.362 1_554 S
C708 C714 1.379 . S
C708 N716 1.356 . S
C709 C708 1.362 1_556 S
C709 C715 1.364 . S
C710 C711 1.363 . S
C710 C715 1.379 . S
C710 N717 1.356 . S
C711 C710 1.363 . S
C711 C714 1.363 1_556 S
N712 C714 1.356 . S
N712 H724 0.984 . S
N712 H725 0.985 . S
N713 C715 1.356 . S
N713 H718 0.984 . S
N713 H719 0.985 . S
C714 C708 1.379 . S
C714 C711 1.363 1_554 S
C714 N712 1.356 . S
C715 C709 1.364 . S
C715 C710 1.379 . S
C715 N713 1.356 . S
N716 C708 1.356 . S
N716 H722 0.984 . S
N716 H723 0.984 . S
N717 C710 1.356 . S
N717 H720 0.984 . S
N717 H721 0.985 . S
H718 N713 0.984 . S
H719 N713 0.985 . S
H720 N717 0.984 . S
H721 N717 0.985 . S
H722 N716 0.984 . S
H723 N716 0.984 . S
H724 N712 0.984 . S
H725 N712 0.985 . S
C726 C727 1.364 . S
C726 C732 1.379 . S
C726 N734 1.356 . S
C727 C726 1.364 . S
C727 C733 1.362 1_556 S
C728 C729 1.363 1_554 S
C728 C733 1.379 . S
C728 N735 1.356 . S
C729 C728 1.363 1_556 S
C729 C732 1.363 . S
N730 C732 1.356 . S
N730 H742 0.984 . S
N730 H743 0.985 . S
N731 C733 1.356 . S
N731 H736 0.984 . S
N731 H737 0.985 . S
C732 C726 1.379 . S
C732 C729 1.363 . S
C732 N730 1.356 . S
C733 C727 1.362 1_554 S
C733 C728 1.379 . S
C733 N731 1.356 . S
N734 C726 1.356 . S
N734 H740 0.984 . S
N734 H741 0.984 . S
N735 C728 1.356 . S
N735 H738 0.984 . S
N735 H739 0.985 . S
H736 N731 0.984 . S
H737 N731 0.985 . S
H738 N735 0.984 . S
H739 N735 0.985 . S
H740 N734 0.984 . S
H741 N734 0.984 . S
H742 N730 0.984 . S
H743 N730 0.985 . S
C744 C745 1.363 . S
C744 C750 1.379 . S
C744 N752 1.356 . S
C745 C744 1.363 . S
C745 C751 1.363 . S
C746 C747 1.363 . S
C746 C751 1.379 . S
C746 N753 1.356 . S
C747 C746 1.363 . S
C747 C750 1.363 . S
N748 C750 1.356 . S
N748 H760 0.984 . S
N748 H761 0.985 . S
N749 C751 1.356 . S
N749 H754 0.984 . S
N749 H755 0.985 . S
C750 C744 1.379 . S
C750 C747 1.363 . S
C750 N748 1.356 . S
C751 C745 1.363 . S
C751 C746 1.379 . S
C751 N749 1.356 . S
N752 C744 1.356 . S
N752 H758 0.984 . S
N752 H759 0.984 . S
N753 C746 1.356 . S
N753 H756 0.984 . S
N753 H757 0.985 . S
H754 N749 0.984 . S
H755 N749 0.985 . S
H756 N753 0.984 . S
H757 N753 0.985 . S
H758 N752 0.984 . S
H759 N752 0.984 . S
H760 N748 0.984 . S
H761 N748 0.985 . S
C762 C763 1.363 . S
C762 C768 1.379 . S
C762 N770 1.356 . S
C763 C762 1.363 . S
C763 C769 1.363 . S
C764 C765 1.363 . S
C764 C769 1.379 . S
C764 N771 1.356 . S
C765 C764 1.363 . S
C765 C768 1.363 . S
N766 C768 1.356 . S
N766 H778 0.984 . S
N766 H779 0.985 . S
N767 C769 1.356 . S
N767 H772 0.984 . S
N767 H773 0.985 . S
C768 C762 1.379 . S
C768 C765 1.363 . S
C768 N766 1.356 . S
C769 C763 1.363 . S
C769 C764 1.379 . S
C769 N767 1.356 . S
N770 C762 1.356 . S
N770 H776 0.984 . S
N770 H777 0.984 . S
N771 C764 1.356 . S
N771 H774 0.984 . S
N771 H775 0.985 . S
H772 N767 0.984 . S
H773 N767 0.985 . S
H774 N771 0.984 . S
H775 N771 0.985 . S
H776 N770 0.984 . S
H777 N770 0.984 . S
H778 N766 0.984 . S
H779 N766 0.985 . S
C780 C781 1.363 . S
C780 C786 1.379 . S
C780 N788 1.356 . S
C781 C780 1.363 . S
C781 C787 1.363 . S
C782 C783 1.363 . S
C782 C787 1.379 . S
C782 N789 1.356 . S
C783 C782 1.363 . S
C783 C786 1.363 . S
N784 C786 1.356 . S
N784 H796 0.984 . S
N784 H797 0.985 . S
N785 C787 1.356 . S
N785 H790 0.984 . S
N785 H791 0.985 . S
C786 C780 1.379 . S
C786 C783 1.363 . S
C786 N784 1.356 . S
C787 C781 1.363 . S
C787 C782 1.379 . S
C787 N785 1.356 . S
N788 C780 1.356 . S
N788 H794 0.984 . S
N788 H795 0.984 . S
N789 C782 1.356 . S
N789 H792 0.984 . S
N789 H793 0.985 . S
H790 N785 0.984 . S
H791 N785 0.985 . S
H792 N789 0.984 . S
H793 N789 0.985 . S
H794 N788 0.984 . S
H795 N788 0.984 . S
H796 N784 0.984 . S
H797 N784 0.985 . S
C798 C799 1.363 . S
C798 C804 1.379 . S
C798 N806 1.356 . S
C799 C798 1.363 . S
C799 C805 1.363 . S
C800 C801 1.363 . S
C800 C805 1.379 . S
C800 N807 1.356 . S
C801 C800 1.363 . S
C801 C804 1.363 . S
N802 C804 1.356 . S
N802 H814 0.984 . S
N802 H815 0.985 . S
N803 C805 1.356 . S
N803 H808 0.984 . S
N803 H809 0.985 . S
C804 C798 1.379 . S
C804 C801 1.363 . S
C804 N802 1.356 . S
C805 C799 1.363 . S
C805 C800 1.379 . S
C805 N803 1.356 . S
N806 C798 1.356 . S
N806 H812 0.984 . S
N806 H813 0.984 . S
N807 C800 1.356 . S
N807 H810 0.984 . S
N807 H811 0.985 . S
H808 N803 0.984 . S
H809 N803 0.985 . S
H810 N807 0.984 . S
H811 N807 0.985 . S
H812 N806 0.984 . S
H813 N806 0.984 . S
H814 N802 0.984 . S
H815 N802 0.985 . S
C816 C817 1.363 . S
C816 C822 1.379 . S
C816 N824 1.356 . S
C817 C816 1.363 . S
C817 C823 1.363 . S
C818 C819 1.363 . S
C818 C823 1.379 . S
C818 N825 1.356 . S
C819 C818 1.363 . S
C819 C822 1.363 . S
N820 C822 1.356 . S
N820 H832 0.984 . S
N820 H833 0.985 . S
N821 C823 1.356 . S
N821 H826 0.984 . S
N821 H827 0.985 . S
C822 C816 1.379 . S
C822 C819 1.363 . S
C822 N820 1.356 . S
C823 C817 1.363 . S
C823 C818 1.379 . S
C823 N821 1.356 . S
N824 C816 1.356 . S
N824 H830 0.984 . S
N824 H831 0.984 . S
N825 C818 1.356 . S
N825 H828 0.984 . S
N825 H829 0.985 . S
H826 N821 0.984 . S
H827 N821 0.985 . S
H828 N825 0.984 . S
H829 N825 0.985 . S
H830 N824 0.984 . S
H831 N824 0.984 . S
H832 N820 0.984 . S
H833 N820 0.985 . S
C834 C835 1.363 . S
C834 C840 1.379 . S
C834 N842 1.356 . S
C835 C834 1.363 . S
C835 C841 1.363 . S
C836 C837 1.363 . S
C836 C841 1.379 . S
C836 N843 1.356 . S
C837 C836 1.363 . S
C837 C840 1.363 . S
N838 C840 1.356 . S
N838 H850 0.984 . S
N838 H851 0.985 . S
N839 C841 1.356 . S
N839 H844 0.984 . S
N839 H845 0.985 . S
C840 C834 1.379 . S
C840 C837 1.363 . S
C840 N838 1.356 . S
C841 C835 1.363 . S
C841 C836 1.379 . S
C841 N839 1.356 . S
N842 C834 1.356 . S
N842 H848 0.984 . S
N842 H849 0.984 . S
N843 C836 1.356 . S
N843 H846 0.984 . S
N843 H847 0.985 . S
H844 N839 0.984 . S
H845 N839 0.985 . S
H846 N843 0.984 . S
H847 N843 0.985 . S
H848 N842 0.984 . S
H849 N842 0.984 . S
H850 N838 0.984 . S
H851 N838 0.985 . S
C852 C853 1.363 . S
C852 C858 1.379 . S
C852 N860 1.356 . S
C853 C852 1.363 . S
C853 C859 1.363 . S
C854 C855 1.363 . S
C854 C859 1.379 . S
C854 N861 1.356 . S
C855 C854 1.363 . S
C855 C858 1.363 . S
N856 C858 1.356 . S
N856 H868 0.984 . S
N856 H869 0.985 . S
N857 C859 1.356 . S
N857 H862 0.984 . S
N857 H863 0.985 . S
C858 C852 1.379 . S
C858 C855 1.363 . S
C858 N856 1.356 . S
C859 C853 1.363 . S
C859 C854 1.379 . S
C859 N857 1.356 . S
N860 C852 1.356 . S
N860 H866 0.984 . S
N860 H867 0.984 . S
N861 C854 1.356 . S
N861 H864 0.984 . S
N861 H865 0.985 . S
H862 N857 0.984 . S
H863 N857 0.985 . S
H864 N861 0.984 . S
H865 N861 0.985 . S
H866 N860 0.984 . S
H867 N860 0.984 . S
H868 N856 0.984 . S
H869 N856 0.985 . S
C870 C871 1.363 . S
C870 C876 1.379 . S
C870 N878 1.356 . S
C871 C870 1.363 . S
C871 C877 1.363 . S
C872 C873 1.363 . S
C872 C877 1.379 . S
C872 N879 1.356 . S
C873 C872 1.363 . S
C873 C876 1.363 . S
N874 C876 1.356 . S
N874 H886 0.984 . S
N874 H887 0.985 . S
N875 C877 1.356 . S
N875 H880 0.984 . S
N875 H881 0.985 . S
C876 C870 1.379 . S
C876 C873 1.363 . S
C876 N874 1.356 . S
C877 C871 1.363 . S
C877 C872 1.379 . S
C877 N875 1.356 . S
N878 C870 1.356 . S
N878 H884 0.984 . S
N878 H885 0.984 . S
N879 C872 1.356 . S
N879 H882 0.984 . S
N879 H883 0.985 . S
H880 N875 0.984 . S
H881 N875 0.985 . S
H882 N879 0.984 . S
H883 N879 0.985 . S
H884 N878 0.984 . S
H885 N878 0.984 . S
H886 N874 0.984 . S
H887 N874 0.985 . S
C888 C889 1.363 . S
C888 C894 1.379 . S
C888 N896 1.356 . S
C889 C888 1.363 . S
C889 C895 1.363 . S
C890 C891 1.363 . S
C890 C895 1.379 . S
C890 N897 1.356 . S
C891 C890 1.363 . S
C891 C894 1.363 . S
N892 C894 1.356 . S
N892 H904 0.984 1_554 S
N892 H905 0.985 . S
N893 C895 1.356 . S
N893 H898 0.984 . S
N893 H899 0.985 . S
C894 C888 1.379 . S
C894 C891 1.363 . S
C894 N892 1.356 . S
C895 C889 1.363 . S
C895 C890 1.379 . S
C895 N893 1.356 . S
N896 C888 1.356 . S
N896 H902 0.984 1_554 S
N896 H903 0.984 . S
N897 C890 1.356 . S
N897 H900 0.984 . S
N897 H901 0.985 . S
H898 N893 0.984 . S
H899 N893 0.985 . S
H900 N897 0.984 . S
H901 N897 0.985 . S
H902 N896 0.984 1_556 S
H903 N896 0.984 . S
H904 N892 0.984 1_556 S
H905 N892 0.985 . S
C906 C907 1.363 . S
C906 C912 1.379 . S
C906 N914 1.356 . S
C907 C906 1.363 . S
C907 C913 1.363 . S
C908 C909 1.363 . S
C908 C913 1.379 . S
C908 N915 1.356 1_554 S
C909 C908 1.363 . S
C909 C912 1.363 . S
N910 C912 1.356 . S
N910 H922 0.984 . S
N910 H923 0.985 . S
N911 C913 1.356 1_556 S
N911 H916 0.984 1_556 S
N911 H917 0.985 . S
C912 C906 1.379 . S
C912 C909 1.363 . S
C912 N910 1.356 . S
C913 C907 1.363 . S
C913 C908 1.379 . S
C913 N911 1.356 1_554 S
N914 C906 1.356 . S
N914 H920 0.984 . S
N914 H921 0.984 . S
N915 C908 1.356 1_556 S
N915 H918 0.984 . S
N915 H919 0.985 . S
H916 N911 0.984 1_554 S
H917 N911 0.985 . S
H918 N915 0.984 . S
H919 N915 0.985 . S
H920 N914 0.984 . S
H921 N914 0.984 . S
H922 N910 0.984 . S
H923 N910 0.985 . S
C924 C925 1.363 . S
C924 C930 1.379 . S
C924 N932 1.356 . S
C925 C924 1.363 . S
C925 C931 1.363 . S
C926 C927 1.363 . S
C926 C931 1.379 . S
C926 N933 1.356 . S
C927 C926 1.363 . S
C927 C930 1.363 . S
N928 C930 1.356 1_556 S
N928 H940 0.984 . S
N928 H941 0.985 . S
N929 C931 1.356 . S
N929 H934 0.984 . S
N929 H935 0.985 . S
C930 C924 1.379 . S
C930 C927 1.363 . S
C930 N928 1.356 1_554 S
C931 C925 1.363 . S
C931 C926 1.379 . S
C931 N929 1.356 . S
N932 C924 1.356 . S
N932 H938 0.984 1_554 S
N932 H939 0.984 . S
N933 C926 1.356 . S
N933 H936 0.984 . S
N933 H937 0.985 . S
H934 N929 0.984 . S
H935 N929 0.985 . S
H936 N933 0.984 . S
H937 N933 0.985 . S
H938 N932 0.984 1_556 S
H939 N932 0.984 . S
H940 N928 0.984 . S
H941 N928 0.985 . S
C942 C943 1.363 . S
C942 C948 1.379 . S
C942 N950 1.356 . S
C943 C942 1.363 . S
C943 C949 1.363 . S
C944 C945 1.363 . S
C944 C949 1.379 . S
C944 N951 1.356 1_554 S
C945 C944 1.363 . S
C945 C948 1.363 . S
N946 C948 1.356 . S
N946 H958 0.984 . S
N946 H959 0.985 . S
N947 C949 1.356 1_556 S
N947 H952 0.984 1_556 S
N947 H953 0.985 . S
C948 C942 1.379 . S
C948 C945 1.363 . S
C948 N946 1.356 . S
C949 C943 1.363 . S
C949 C944 1.379 . S
C949 N947 1.356 1_554 S
N950 C942 1.356 . S
N950 H956 0.984 . S
N950 H957 0.984 . S
N951 C944 1.356 1_556 S
N951 H954 0.984 . S
N951 H955 0.985 . S
H952 N947 0.984 1_554 S
H953 N947 0.985 . S
H954 N951 0.984 . S
H955 N951 0.985 . S
H956 N950 0.984 . S
H957 N950 0.984 . S
H958 N946 0.984 . S
H959 N946 0.985 . S
C960 C961 1.363 1_455 S
C960 C966 1.379 . S
C960 N968 1.356 . S
C961 C960 1.363 1_655 S
C961 C967 1.363 . S
C962 C963 1.363 1_655 S
C962 C967 1.379 . S
C962 N969 1.356 . S
C963 C962 1.363 1_455 S
C963 C966 1.363 . S
N964 C966 1.356 . S
N964 H976 0.984 . S
N964 H977 0.985 . S
N965 C967 1.356 . S
N965 H970 0.984 . S
N965 H971 0.985 . S
C966 C960 1.379 . S
C966 C963 1.363 . S
C966 N964 1.356 . S
C967 C961 1.363 . S
C967 C962 1.379 . S
C967 N965 1.356 . S
N968 C960 1.356 . S
N968 H974 0.984 . S
N968 H975 0.984 . S
N969 C962 1.356 . S
N969 H972 0.984 . S
N969 H973 0.985 . S
H970 N965 0.984 . S
H971 N965 0.985 . S
H972 N969 0.984 . S
H973 N969 0.985 . S
H974 N968 0.984 . S
H975 N968 0.984 . S
H976 N964 0.984 . S
H977 N964 0.985 . S
C978 C979 1.363 1_545 S
C978 C984 1.379 . S
C978 N986 1.356 . S
C979 C978 1.363 1_565 S
C979 C985 1.363 . S
C980 C981 1.363 1_565 S
C980 C985 1.379 . S
C980 N987 1.356 . S
C981 C980 1.363 1_545 S
C981 C984 1.363 . S
N982 C984 1.356 . S
N982 H994 0.984 . S
N982 H995 0.985 . S
N983 C985 1.356 . S
N983 H988 0.984 . S
N983 H989 0.985 . S
C984 C978 1.379 . S
C984 C981 1.363 . S
C984 N982 1.356 . S
C985 C979 1.363 . S
C985 C980 1.379 . S
C985 N983 1.356 . S
N986 C978 1.356 . S
N986 H992 0.984 . S
N986 H993 0.984 . S
N987 C980 1.356 . S
N987 H990 0.984 . S
N987 H991 0.985 . S
H988 N983 0.984 . S
H989 N983 0.985 . S
H990 N987 0.984 . S
H991 N987 0.985 . S
H992 N986 0.984 . S
H993 N986 0.984 . S
H994 N982 0.984 . S
H995 N982 0.985 . S
C996 C997 1.363 . S
C996 C1002 1.379 . S
C996 N1004 1.356 . S
C997 C996 1.363 . S
C997 C1003 1.363 1_655 S
C998 C999 1.363 . S
C998 C1003 1.379 . S
C998 N1005 1.356 . S
C999 C998 1.363 . S
C999 C1002 1.363 1_455 S
N1000 C1002 1.356 . S
N1000 H1012 0.984 . S
N1000 H1013 0.985 . S
N1001 C1003 1.356 . S
N1001 H1006 0.984 . S
N1001 H1007 0.985 . S
C1002 C996 1.379 . S
C1002 C999 1.363 1_655 S
C1002 N1000 1.356 . S
C1003 C997 1.363 1_455 S
C1003 C998 1.379 . S
C1003 N1001 1.356 . S
N1004 C996 1.356 . S
N1004 H1010 0.984 . S
N1004 H1011 0.984 . S
N1005 C998 1.356 . S
N1005 H1008 0.984 . S
N1005 H1009 0.985 . S
H1006 N1001 0.984 . S
H1007 N1001 0.985 . S
H1008 N1005 0.984 . S
H1009 N1005 0.985 . S
H1010 N1004 0.984 . S
H1011 N1004 0.984 . S
H1012 N1000 0.984 . S
H1013 N1000 0.985 . S
C1014 C1015 1.363 1_565 S
C1014 C1020 1.379 . S
C1014 N1022 1.356 . S
C1015 C1014 1.363 1_545 S
C1015 C1021 1.363 . S
C1016 C1017 1.363 1_545 S
C1016 C1021 1.379 . S
C1016 N1023 1.356 . S
C1017 C1016 1.363 1_565 S
C1017 C1020 1.363 . S
N1018 C1020 1.356 . S
N1018 H1030 0.984 . S
N1018 H1031 0.985 . S
N1019 C1021 1.356 . S
N1019 H1024 0.984 . S
N1019 H1025 0.985 . S
C1020 C1014 1.379 . S
C1020 C1017 1.363 . S
C1020 N1018 1.356 . S
C1021 C1015 1.363 . S
C1021 C1016 1.379 . S
C1021 N1019 1.356 . S
N1022 C1014 1.356 . S
N1022 H1028 0.984 . S
N1022 H1029 0.984 . S
N1023 C1016 1.356 . S
N1023 H1026 0.984 . S
N1023 H1027 0.985 . S
H1024 N1019 0.984 . S
H1025 N1019 0.985 . S
H1026 N1023 0.984 . S
H1027 N1023 0.985 . S
H1028 N1022 0.984 . S
H1029 N1022 0.984 . S
H1030 N1018 0.984 . S
H1031 N1018 0.985 . S
C1032 C1033 1.363 . S
C1032 C1038 1.379 . S
C1032 N1040 1.356 . S
C1033 C1032 1.363 . S
C1033 C1039 1.363 1_455 S
C1034 C1035 1.363 . S
C1034 C1039 1.379 . S
C1034 N1041 1.356 . S
C1035 C1034 1.363 . S
C1035 C1038 1.363 1_655 S
N1036 C1038 1.356 . S
N1036 H1048 0.984 . S
N1036 H1049 0.985 . S
N1037 C1039 1.356 . S
N1037 H1042 0.984 . S
N1037 H1043 0.985 . S
C1038 C1032 1.379 . S
C1038 C1035 1.363 1_455 S
C1038 N1036 1.356 . S
C1039 C1033 1.363 1_655 S
C1039 C1034 1.379 . S
C1039 N1037 1.356 . S
N1040 C1032 1.356 . S
N1040 H1046 0.984 . S
N1040 H1047 0.984 . S
N1041 C1034 1.356 . S
N1041 H1044 0.984 . S
N1041 H1045 0.985 . S
H1042 N1037 0.984 . S
H1043 N1037 0.985 . S
H1044 N1041 0.984 . S
H1045 N1041 0.985 . S
H1046 N1040 0.984 . S
H1047 N1040 0.984 . S
H1048 N1036 0.984 . S
H1049 N1036 0.985 . S
C1050 C1051 1.363 . S
C1050 C1056 1.379 . S
C1050 N1058 1.356 . S
C1051 C1050 1.363 . S
C1051 C1057 1.363 1_565 S
C1052 C1053 1.363 . S
C1052 C1057 1.379 . S
C1052 N1059 1.356 . S
C1053 C1052 1.363 . S
C1053 C1056 1.363 1_545 S
N1054 C1056 1.356 . S
N1054 H1066 0.984 . S
N1054 H1067 0.985 . S
N1055 C1057 1.356 . S
N1055 H1060 0.984 . S
N1055 H1061 0.985 . S
C1056 C1050 1.379 . S
C1056 C1053 1.363 1_565 S
C1056 N1054 1.356 . S
C1057 C1051 1.363 1_545 S
C1057 C1052 1.379 . S
C1057 N1055 1.356 . S
N1058 C1050 1.356 . S
N1058 H1064 0.984 . S
N1058 H1065 0.984 . S
N1059 C1052 1.356 . S
N1059 H1062 0.984 . S
N1059 H1063 0.985 . S
H1060 N1055 0.984 . S
H1061 N1055 0.985 . S
H1062 N1059 0.984 . S
H1063 N1059 0.985 . S
H1064 N1058 0.984 . S
H1065 N1058 0.984 . S
H1066 N1054 0.984 . S
H1067 N1054 0.985 . S
C1068 C1069 1.363 . S
C1068 C1074 1.379 . S
C1068 N1076 1.356 . S
C1069 C1068 1.363 . S
C1069 C1075 1.363 1_655 S
C1070 C1071 1.363 . S
C1070 C1075 1.379 . S
C1070 N1077 1.356 . S
C1071 C1070 1.363 . S
C1071 C1074 1.363 1_455 S
N1072 C1074 1.356 . S
N1072 H1084 0.984 . S
N1072 H1085 0.985 . S
N1073 C1075 1.356 . S
N1073 H1078 0.984 . S
N1073 H1079 0.985 . S
C1074 C1068 1.379 . S
C1074 C1071 1.363 1_655 S
C1074 N1072 1.356 . S
C1075 C1069 1.363 1_455 S
C1075 C1070 1.379 . S
C1075 N1073 1.356 . S
N1076 C1068 1.356 . S
N1076 H1082 0.984 . S
N1076 H1083 0.984 . S
N1077 C1070 1.356 . S
N1077 H1080 0.984 . S
N1077 H1081 0.985 . S
H1078 N1073 0.984 . S
H1079 N1073 0.985 . S
H1080 N1077 0.984 . S
H1081 N1077 0.985 . S
H1082 N1076 0.984 . S
H1083 N1076 0.984 . S
H1084 N1072 0.984 . S
H1085 N1072 0.985 . S
C1086 C1087 1.363 1_565 S
C1086 C1092 1.379 . S
C1086 N1094 1.356 . S
C1087 C1086 1.363 1_545 S
C1087 C1093 1.363 . S
C1088 C1089 1.363 1_545 S
C1088 C1093 1.379 . S
C1088 N1095 1.356 . S
C1089 C1088 1.363 1_565 S
C1089 C1092 1.363 . S
N1090 C1092 1.356 . S
N1090 H1102 0.984 . S
N1090 H1103 0.985 . S
N1091 C1093 1.356 . S
N1091 H1096 0.984 . S
N1091 H1097 0.985 . S
C1092 C1086 1.379 . S
C1092 C1089 1.363 . S
C1092 N1090 1.356 . S
C1093 C1087 1.363 . S
C1093 C1088 1.379 . S
C1093 N1091 1.356 . S
N1094 C1086 1.356 . S
N1094 H1100 0.984 . S
N1094 H1101 0.984 . S
N1095 C1088 1.356 . S
N1095 H1098 0.984 . S
N1095 H1099 0.985 . S
H1096 N1091 0.984 . S
H1097 N1091 0.985 . S
H1098 N1095 0.984 . S
H1099 N1095 0.985 . S
H1100 N1094 0.984 . S
H1101 N1094 0.984 . S
H1102 N1090 0.984 . S
H1103 N1090 0.985 . S
C1104 C1105 1.363 . S
C1104 C1110 1.379 . S
C1104 N1112 1.356 . S
C1105 C1104 1.363 . S
C1105 C1111 1.363 . S
C1106 C1107 1.363 . S
C1106 C1111 1.379 . S
C1106 N1113 1.356 . S
C1107 C1106 1.363 . S
C1107 C1110 1.363 . S
N1108 C1110 1.356 . S
N1108 H1120 0.984 . S
N1108 H1121 0.985 . S
N1109 C1111 1.356 . S
N1109 H1114 0.984 . S
N1109 H1115 0.985 . S
C1110 C1104 1.379 . S
C1110 C1107 1.363 . S
C1110 N1108 1.356 . S
C1111 C1105 1.363 . S
C1111 C1106 1.379 . S
C1111 N1109 1.356 . S
N1112 C1104 1.356 . S
N1112 H1118 0.984 . S
N1112 H1119 0.984 . S
N1113 C1106 1.356 . S
N1113 H1116 0.984 . S
N1113 H1117 0.985 . S
H1114 N1109 0.984 . S
H1115 N1109 0.985 . S
H1116 N1113 0.984 . S
H1117 N1113 0.985 . S
H1118 N1112 0.984 . S
H1119 N1112 0.984 . S
H1120 N1108 0.984 . S
H1121 N1108 0.985 . S
C1122 C1123 1.363 . S
C1122 C1128 1.379 . S
C1122 N1130 1.356 . S
C1123 C1122 1.363 . S
C1123 C1129 1.363 . S
C1124 C1125 1.363 . S
C1124 C1129 1.379 . S
C1124 N1131 1.356 . S
C1125 C1124 1.363 . S
C1125 C1128 1.363 . S
N1126 C1128 1.356 . S
N1126 H1138 0.984 . S
N1126 H1139 0.985 . S
N1127 C1129 1.356 . S
N1127 H1132 0.984 . S
N1127 H1133 0.985 . S
C1128 C1122 1.379 . S
C1128 C1125 1.363 . S
C1128 N1126 1.356 . S
C1129 C1123 1.363 . S
C1129 C1124 1.379 . S
C1129 N1127 1.356 . S
N1130 C1122 1.356 . S
N1130 H1136 0.984 . S
N1130 H1137 0.984 . S
N1131 C1124 1.356 . S
N1131 H1134 0.984 . S
N1131 H1135 0.985 . S
H1132 N1127 0.984 . S
H1133 N1127 0.985 . S
H1134 N1131 0.984 . S
H1135 N1131 0.985 . S
H1136 N1130 0.984 . S
H1137 N1130 0.984 . S
H1138 N1126 0.984 . S
H1139 N1126 0.985 . S
C1140 C1141 1.363 . S
C1140 C1146 1.379 . S
C1140 N1148 1.356 . S
C1141 C1140 1.363 . S
C1141 C1147 1.363 . S
C1142 C1143 1.363 . S
C1142 C1147 1.379 . S
C1142 N1149 1.356 . S
C1143 C1142 1.363 . S
C1143 C1146 1.363 . S
N1144 C1146 1.356 . S
N1144 H1156 0.984 . S
N1144 H1157 0.985 . S
N1145 C1147 1.356 . S
N1145 H1150 0.984 . S
N1145 H1151 0.985 . S
C1146 C1140 1.379 . S
C1146 C1143 1.363 . S
C1146 N1144 1.356 . S
C1147 C1141 1.363 . S
C1147 C1142 1.379 . S
C1147 N1145 1.356 . S
N1148 C1140 1.356 . S
N1148 H1154 0.984 . S
N1148 H1155 0.984 . S
N1149 C1142 1.356 . S
N1149 H1152 0.984 . S
N1149 H1153 0.985 . S
H1150 N1145 0.984 . S
H1151 N1145 0.985 . S
H1152 N1149 0.984 . S
H1153 N1149 0.985 . S
H1154 N1148 0.984 . S
H1155 N1148 0.984 . S
H1156 N1144 0.984 . S
H1157 N1144 0.985 . S
C1158 C1159 1.363 . S
C1158 C1164 1.379 . S
C1158 N1166 1.356 . S
C1159 C1158 1.363 . S
C1159 C1165 1.363 . S
C1160 C1161 1.363 . S
C1160 C1165 1.379 . S
C1160 N1167 1.356 . S
C1161 C1160 1.363 . S
C1161 C1164 1.363 . S
N1162 C1164 1.356 . S
N1162 H1174 0.984 . S
N1162 H1175 0.985 . S
N1163 C1165 1.356 . S
N1163 H1168 0.984 . S
N1163 H1169 0.985 . S
C1164 C1158 1.379 . S
C1164 C1161 1.363 . S
C1164 N1162 1.356 . S
C1165 C1159 1.363 . S
C1165 C1160 1.379 . S
C1165 N1163 1.356 . S
N1166 C1158 1.356 . S
N1166 H1172 0.984 . S
N1166 H1173 0.984 . S
N1167 C1160 1.356 . S
N1167 H1170 0.984 . S
N1167 H1171 0.985 . S
H1168 N1163 0.984 . S
H1169 N1163 0.985 . S
H1170 N1167 0.984 . S
H1171 N1167 0.985 . S
H1172 N1166 0.984 . S
H1173 N1166 0.984 . S
H1174 N1162 0.984 . S
H1175 N1162 0.985 . S
C1176 C1177 1.363 . S
C1176 C1182 1.379 . S
C1176 N1184 1.356 . S
C1177 C1176 1.363 . S
C1177 C1183 1.363 . S
C1178 C1179 1.363 . S
C1178 C1183 1.379 . S
C1178 N1185 1.356 . S
C1179 C1178 1.363 . S
C1179 C1182 1.363 . S
N1180 C1182 1.356 . S
N1180 H1192 0.984 . S
N1180 H1193 0.985 . S
N1181 C1183 1.356 . S
N1181 H1186 0.984 . S
N1181 H1187 0.985 . S
C1182 C1176 1.379 . S
C1182 C1179 1.363 . S
C1182 N1180 1.356 . S
C1183 C1177 1.363 . S
C1183 C1178 1.379 . S
C1183 N1181 1.356 . S
N1184 C1176 1.356 . S
N1184 H1190 0.984 . S
N1184 H1191 0.984 . S
N1185 C1178 1.356 . S
N1185 H1188 0.984 . S
N1185 H1189 0.985 . S
H1186 N1181 0.984 . S
H1187 N1181 0.985 . S
H1188 N1185 0.984 . S
H1189 N1185 0.985 . S
H1190 N1184 0.984 . S
H1191 N1184 0.984 . S
H1192 N1180 0.984 . S
H1193 N1180 0.985 . S
C1194 C1195 1.363 . S
C1194 C1200 1.379 . S
C1194 N1202 1.356 . S
C1195 C1194 1.363 . S
C1195 C1201 1.363 . S
C1196 C1197 1.363 . S
C1196 C1201 1.379 . S
C1196 N1203 1.356 . S
C1197 C1196 1.363 . S
C1197 C1200 1.363 . S
N1198 C1200 1.356 . S
N1198 H1210 0.984 . S
N1198 H1211 0.985 . S
N1199 C1201 1.356 . S
N1199 H1204 0.984 . S
N1199 H1205 0.985 . S
C1200 C1194 1.379 . S
C1200 C1197 1.363 . S
C1200 N1198 1.356 . S
C1201 C1195 1.363 . S
C1201 C1196 1.379 . S
C1201 N1199 1.356 . S
N1202 C1194 1.356 . S
N1202 H1208 0.984 . S
N1202 H1209 0.984 . S
N1203 C1196 1.356 . S
N1203 H1206 0.984 . S
N1203 H1207 0.985 . S
H1204 N1199 0.984 . S
H1205 N1199 0.985 . S
H1206 N1203 0.984 . S
H1207 N1203 0.985 . S
H1208 N1202 0.984 . S
H1209 N1202 0.984 . S
H1210 N1198 0.984 . S
H1211 N1198 0.985 . S
C1212 C1213 1.363 . S
C1212 C1218 1.379 . S
C1212 N1220 1.356 . S
C1213 C1212 1.363 . S
C1213 C1219 1.363 . S
C1214 C1215 1.363 . S
C1214 C1219 1.379 . S
C1214 N1221 1.356 . S
C1215 C1214 1.363 . S
C1215 C1218 1.363 . S
N1216 C1218 1.356 . S
N1216 H1228 0.984 . S
N1216 H1229 0.985 . S
N1217 C1219 1.356 . S
N1217 H1222 0.984 . S
N1217 H1223 0.985 . S
C1218 C1212 1.379 . S
C1218 C1215 1.363 . S
C1218 N1216 1.356 . S
C1219 C1213 1.363 . S
C1219 C1214 1.379 . S
C1219 N1217 1.356 . S
N1220 C1212 1.356 . S
N1220 H1226 0.984 . S
N1220 H1227 0.984 . S
N1221 C1214 1.356 . S
N1221 H1224 0.984 . S
N1221 H1225 0.985 . S
H1222 N1217 0.984 . S
H1223 N1217 0.985 . S
H1224 N1221 0.984 . S
H1225 N1221 0.985 . S
H1226 N1220 0.984 . S
H1227 N1220 0.984 . S
H1228 N1216 0.984 . S
H1229 N1216 0.985 . S
C1230 C1231 1.363 . S
C1230 C1236 1.379 . S
C1230 N1238 1.356 . S
C1231 C1230 1.363 . S
C1231 C1237 1.363 . S
C1232 C1233 1.363 . S
C1232 C1237 1.379 . S
C1232 N1239 1.356 . S
C1233 C1232 1.363 . S
C1233 C1236 1.363 . S
N1234 C1236 1.356 . S
N1234 H1246 0.984 . S
N1234 H1247 0.985 . S
N1235 C1237 1.356 . S
N1235 H1240 0.984 . S
N1235 H1241 0.985 . S
C1236 C1230 1.379 . S
C1236 C1233 1.363 . S
C1236 N1234 1.356 . S
C1237 C1231 1.363 . S
C1237 C1232 1.379 . S
C1237 N1235 1.356 . S
N1238 C1230 1.356 . S
N1238 H1244 0.984 . S
N1238 H1245 0.984 . S
N1239 C1232 1.356 . S
N1239 H1242 0.984 . S
N1239 H1243 0.985 . S
H1240 N1235 0.984 . S
H1241 N1235 0.985 . S
H1242 N1239 0.984 . S
H1243 N1239 0.985 . S
H1244 N1238 0.984 . S
H1245 N1238 0.984 . S
H1246 N1234 0.984 . S
H1247 N1234 0.985 . S
C529 N5 1.360 . S
C531 N500 1.360 . S
C547 N38 1.360 . S
C549 N401 1.360 . S
C565 N434 1.360 . S
C567 N71 1.360 . S
C583 N104 1.360 . S
C585 N467 1.360 . S
C601 N137 1.360 . S
C603 N302 1.360 . S
C619 N335 1.360 . S
C621 N170 1.360 . S
C637 N368 1.360 . S
C639 N203 1.360 . S
C655 N269 1.360 . S
C657 N236 1.360 . S
C673 N113 1.545 1_556 S
C675 C17 1.605 1_556 S
C691 N14 1.545 1_556 S
C693 C50 1.605 1_556 S
C709 C83 1.605 1_556 S
C711 N47 1.545 1_556 S
C727 C116 1.605 1_556 S
C729 N80 1.545 1_556 S
C745 N179 1.545 . S
C747 C149 1.605 . S
C763 N212 1.545 . S
C765 C182 1.605 . S
C781 N245 1.545 . S
C783 C215 1.605 . S
C799 N146 1.545 . S
C801 C248 1.605 . S
C817 N377 1.545 . S
C819 C281 1.605 . S
C835 C314 1.605 . S
C837 N278 1.545 . S
C853 N311 1.545 . S
C855 C347 1.605 . S
C871 N344 1.545 . S
C873 C380 1.605 . S
C889 N443 1.545 . S
C891 C413 1.605 . S
C907 N476 1.545 . S
C909 C446 1.605 . S
C925 N509 1.545 . S
C927 C479 1.605 . S
C943 N410 1.545 . S
C945 C512 1.605 . S
C961 C226 1.811 . S
C963 C28 1.811 . S
C979 C259 1.811 . S
C981 C61 1.811 . S
C997 C94 1.811 . S
C999 C160 1.811 . S
C1015 C193 1.811 . S
C1017 C127 1.811 . S
C1033 C74 0.984 1_455 S
C1035 C140 0.984 1_655 S
C1051 C173 0.984 1_565 S
C1053 C107 0.984 1_545 S
C1069 C8 0.984 1_655 S
C1071 C206 0.984 1_455 S
C1087 C239 0.984 1_545 S
C1089 C41 0.984 1_565 S
C1105 C490 1.811 . S
C1107 C292 1.811 . S
C1123 C523 1.811 . S
C1125 C325 1.811 . S
C1141 C424 1.811 . S
C1143 C358 1.811 . S
C1159 C391 1.811 . S
C1161 C457 1.811 . S
C1177 C404 0.984 . S
C1179 C338 0.984 . S
C1195 C371 0.984 . S
C1197 C437 0.984 . S
C1213 C272 0.984 . S
C1215 C470 0.984 . S
C1231 C503 0.984 . S
C1233 C305 0.984 . S
