# Generated by pormake.
# Topology smd, (6)-cn, num edge types: 1
# Building blocks:
#     Node 0, Type 0, BuildingBlock: KUMBUR_clean_sbu_1, # of connection points: 6
#     Node 1, Type 0, BuildingBlock: KUMBUR_clean_sbu_1, # of connection points: 6
#     Node 2, Type 0, BuildingBlock: KUMBUR_clean_sbu_1, # of connection points: 6
#     Node 3, Type 0, BuildingBlock: KUMBUR_clean_sbu_1, # of connection points: 6
#     Node 4, Type 0, BuildingBlock: KUMBUR_clean_sbu_1, # of connection points: 6
#     Node 5, Type 0, BuildingBlock: KUMBUR_clean_sbu_1, # of connection points: 6
#     Node 6, Type 0, BuildingBlock: KUMBUR_clean_sbu_1, # of connection points: 6
#     Node 7, Type 0, BuildingBlock: KUMBUR_clean_sbu_1, # of connection points: 6
#     Node 8, Type 0, BuildingBlock: KUMBUR_clean_sbu_1, # of connection points: 6
#     Node 9, Type 0, BuildingBlock: KUMBUR_clean_sbu_1, # of connection points: 6
#     Node 10, Type 0, BuildingBlock: KUMBUR_clean_sbu_1, # of connection points: 6
#     Node 11, Type 0, BuildingBlock: KUMBUR_clean_sbu_1, # of connection points: 6
#     Node 12, Type 0, BuildingBlock: KUMBUR_clean_sbu_1, # of connection points: 6
#     Node 13, Type 0, BuildingBlock: KUMBUR_clean_sbu_1, # of connection points: 6
#     Node 14, Type 0, BuildingBlock: KUMBUR_clean_sbu_1, # of connection points: 6
#     Node 15, Type 0, BuildingBlock: KUMBUR_clean_sbu_1, # of connection points: 6
#     Node 16, Type 0, BuildingBlock: KUMBUR_clean_sbu_1, # of connection points: 6
#     Node 17, Type 0, BuildingBlock: KUMBUR_clean_sbu_1, # of connection points: 6
#     Edge 18, Type (0, 0), BuildingBlock: KIFKEQ_clean_linker_1, # of connection points: 2
#     Edge 19, Type (0, 0), BuildingBlock: KIFKEQ_clean_linker_1, # of connection points: 2
#     Edge 20, Type (0, 0), BuildingBlock: KIFKEQ_clean_linker_1, # of connection points: 2
#     Edge 21, Type (0, 0), BuildingBlock: KIFKEQ_clean_linker_1, # of connection points: 2
#     Edge 22, Type (0, 0), BuildingBlock: KIFKEQ_clean_linker_1, # of connection points: 2
#     Edge 23, Type (0, 0), BuildingBlock: KIFKEQ_clean_linker_1, # of connection points: 2
#     Edge 24, Type (0, 0), BuildingBlock: KIFKEQ_clean_linker_1, # of connection points: 2
#     Edge 25, Type (0, 0), BuildingBlock: KIFKEQ_clean_linker_1, # of connection points: 2
#     Edge 26, Type (0, 0), BuildingBlock: KIFKEQ_clean_linker_1, # of connection points: 2
#     Edge 27, Type (0, 0), BuildingBlock: KIFKEQ_clean_linker_1, # of connection points: 2
#     Edge 28, Type (0, 0), BuildingBlock: KIFKEQ_clean_linker_1, # of connection points: 2
#     Edge 29, Type (0, 0), BuildingBlock: KIFKEQ_clean_linker_1, # of connection points: 2
#     Edge 30, Type (0, 0), BuildingBlock: KIFKEQ_clean_linker_1, # of connection points: 2
#     Edge 31, Type (0, 0), BuildingBlock: KIFKEQ_clean_linker_1, # of connection points: 2
#     Edge 32, Type (0, 0), BuildingBlock: KIFKEQ_clean_linker_1, # of connection points: 2
#     Edge 33, Type (0, 0), BuildingBlock: KIFKEQ_clean_linker_1, # of connection points: 2
#     Edge 34, Type (0, 0), BuildingBlock: KIFKEQ_clean_linker_1, # of connection points: 2
#     Edge 35, Type (0, 0), BuildingBlock: KIFKEQ_clean_linker_1, # of connection points: 2
#     Edge 36, Type (0, 0), BuildingBlock: KIFKEQ_clean_linker_1, # of connection points: 2
#     Edge 37, Type (0, 0), BuildingBlock: KIFKEQ_clean_linker_1, # of connection points: 2
#     Edge 38, Type (0, 0), BuildingBlock: KIFKEQ_clean_linker_1, # of connection points: 2
#     Edge 39, Type (0, 0), BuildingBlock: KIFKEQ_clean_linker_1, # of connection points: 2
#     Edge 40, Type (0, 0), BuildingBlock: KIFKEQ_clean_linker_1, # of connection points: 2
#     Edge 41, Type (0, 0), BuildingBlock: KIFKEQ_clean_linker_1, # of connection points: 2
#     Edge 42, Type (0, 0), BuildingBlock: KIFKEQ_clean_linker_1, # of connection points: 2
#     Edge 43, Type (0, 0), BuildingBlock: KIFKEQ_clean_linker_1, # of connection points: 2
#     Edge 44, Type (0, 0), BuildingBlock: KIFKEQ_clean_linker_1, # of connection points: 2
#     Edge 45, Type (0, 0), BuildingBlock: KIFKEQ_clean_linker_1, # of connection points: 2
#     Edge 46, Type (0, 0), BuildingBlock: KIFKEQ_clean_linker_1, # of connection points: 2
#     Edge 47, Type (0, 0), BuildingBlock: KIFKEQ_clean_linker_1, # of connection points: 2
#     Edge 48, Type (0, 0), BuildingBlock: KIFKEQ_clean_linker_1, # of connection points: 2
#     Edge 49, Type (0, 0), BuildingBlock: KIFKEQ_clean_linker_1, # of connection points: 2
#     Edge 50, Type (0, 0), BuildingBlock: KIFKEQ_clean_linker_1, # of connection points: 2
#     Edge 51, Type (0, 0), BuildingBlock: KIFKEQ_clean_linker_1, # of connection points: 2
#     Edge 52, Type (0, 0), BuildingBlock: KIFKEQ_clean_linker_1, # of connection points: 2
#     Edge 53, Type (0, 0), BuildingBlock: KIFKEQ_clean_linker_1, # of connection points: 2
#     Edge 54, Type (0, 0), BuildingBlock: KIFKEQ_clean_linker_1, # of connection points: 2
#     Edge 55, Type (0, 0), BuildingBlock: KIFKEQ_clean_linker_1, # of connection points: 2
#     Edge 56, Type (0, 0), BuildingBlock: KIFKEQ_clean_linker_1, # of connection points: 2
#     Edge 57, Type (0, 0), BuildingBlock: KIFKEQ_clean_linker_1, # of connection points: 2
#     Edge 58, Type (0, 0), BuildingBlock: KIFKEQ_clean_linker_1, # of connection points: 2
#     Edge 59, Type (0, 0), BuildingBlock: KIFKEQ_clean_linker_1, # of connection points: 2
#     Edge 60, Type (0, 0), BuildingBlock: KIFKEQ_clean_linker_1, # of connection points: 2
#     Edge 61, Type (0, 0), BuildingBlock: KIFKEQ_clean_linker_1, # of connection points: 2
#     Edge 62, Type (0, 0), BuildingBlock: KIFKEQ_clean_linker_1, # of connection points: 2
#     Edge 63, Type (0, 0), BuildingBlock: KIFKEQ_clean_linker_1, # of connection points: 2
#     Edge 64, Type (0, 0), BuildingBlock: KIFKEQ_clean_linker_1, # of connection points: 2
#     Edge 65, Type (0, 0), BuildingBlock: KIFKEQ_clean_linker_1, # of connection points: 2
#     Edge 66, Type (0, 0), BuildingBlock: KIFKEQ_clean_linker_1, # of connection points: 2
#     Edge 67, Type (0, 0), BuildingBlock: KIFKEQ_clean_linker_1, # of connection points: 2
#     Edge 68, Type (0, 0), BuildingBlock: KIFKEQ_clean_linker_1, # of connection points: 2
#     Edge 69, Type (0, 0), BuildingBlock: KIFKEQ_clean_linker_1, # of connection points: 2
#     Edge 70, Type (0, 0), BuildingBlock: KIFKEQ_clean_linker_1, # of connection points: 2
#     Edge 71, Type (0, 0), BuildingBlock: KIFKEQ_clean_linker_1, # of connection points: 2
# Relax obj value: 0.197
# Max RMSD: 0.304
# Mean RMSD: 0.304
data_MOF--net-smd--node1-KUMBUR_clean_sbu_1--edge1-KIFKEQ_clean_linker_1
_symmetry_space_group_name_H-M    P1
_symmetry_Int_Tables_number       1
_symmetry_cell_setting            triclinic
loop_
_symmetry_equiv_pos_as_xyz
'x, y, z'
_cell_length_a     67.447646
_cell_length_b     67.501513
_cell_length_c     24.722476
_cell_angle_alpha  90.069994
_cell_angle_beta   89.944743
_cell_angle_gamma 120.05278
loop_
_atom_site_label
_atom_site_type_symbol
_atom_site_fract_x
_atom_site_fract_y
_atom_site_fract_z
_atom_type_partial_charge
Tb0 Tb 0.03531 0.24458 0.58318 0.0
C1 C 0.96367 0.2374 0.43059 0.0
N2 N 0.96996 0.22153 0.44029 0.0
C3 C 0.93047 0.19241 0.44824 0.0
C4 C 0.94053 0.23168 0.43254 0.0
C5 C 0.95371 0.19907 0.44596 0.0
C6 C 0.92386 0.20888 0.44254 0.0
C7 C 0.97492 0.27624 0.40553 0.0
C8 C 0.98066 0.25934 0.41782 0.0
C9 C 0.95201 0.271 0.40976 0.0
C10 C 0.93483 0.24874 0.42324 0.0
Tb11 Tb 1.00832 0.23399 0.43886 0.0
N12 N 1.00259 0.2636 0.41396 0.0
C13 C 0.99221 0.29752 0.38706 0.0
C14 C 0.01882 0.28342 0.39028 0.0
C15 C 1.01411 0.30089 0.37796 0.0
H16 H 0.95858 0.18618 0.44709 0.0
H17 H 0.02723 0.31672 0.36023 0.0
H18 H 0.07895 0.29935 0.58388 0.0
H19 H 0.03287 0.16715 0.64661 0.0
H20 H 0.03514 0.28553 0.37868 0.0
H21 H 0.98854 0.31097 0.37696 0.0
H22 H 1.01639 0.19135 0.62122 0.0
H23 H 0.9177 0.17457 0.4537 0.0
H24 H 0.9473 0.28384 0.40107 0.0
H25 H 0.91716 0.24477 0.42503 0.0
H26 H 0.1209 0.31895 0.58371 0.0
H27 H 0.90585 0.2037 0.44413 0.0
H28 H 0.07495 0.18355 0.64676 0.0
N29 N 0.0746 0.26572 0.58706 0.0
C30 C 0.08525 0.25351 0.59707 0.0
C31 C 0.11109 0.30048 0.58651 0.0
C32 C 0.10932 0.26423 0.6 0.0
C33 C 0.08715 0.28913 0.58522 0.0
C34 C 0.12225 0.28794 0.59291 0.0
N35 N 0.04877 0.22066 0.60465 0.0
C36 C 0.03473 0.19851 0.62055 0.0
C37 C 0.08206 0.21728 0.62225 0.0
C38 C 0.07188 0.23034 0.60773 0.0
C39 C 0.06779 0.19418 0.63545 0.0
C40 C 0.04403 0.18484 0.63524 0.0
H41 H 0.14079 0.29682 0.59467 0.0
H42 H 0.13813 0.259 0.61367 0.0
H43 H 0.11423 0.21792 0.63367 0.0
O44 O 1.01243 0.23555 0.64913 0.0
O45 O 0.03987 0.2219 0.52685 0.0
O46 O 0.04363 0.23815 0.44497 0.0
O47 O 0.04864 0.25715 0.66027 0.0
O48 O 0.99975 0.21376 0.57404 0.0
O49 O 0.99896 0.20279 0.4855 0.0
O50 O 1.01013 0.2386 0.35461 0.0
O51 O 0.99106 0.24019 0.51133 0.0
O52 O 0.02189 0.2663 0.55792 0.0
O53 O 0.99877 0.20533 0.38872 0.0
O54 O 0.04337 0.26292 0.44295 0.0
O55 O 0.04713 0.27631 0.53037 0.0
C56 C 0.05119 0.22916 0.48142 0.0
C57 C 0.02493 0.26061 0.72458 0.0
C58 C 1.0167 0.26469 0.81898 0.0
C59 C 0.02117 0.28697 0.80715 0.0
C60 C 0.02979 0.28296 0.714 0.0
C61 C 0.02751 0.29592 0.75497 0.0
C62 C 1.01822 0.25147 0.77674 0.0
C63 C 0.99029 0.19822 0.53473 0.0
C64 C 0.02877 0.24716 0.68361 0.0
C65 C 0.11965 0.25111 0.61185 0.0
C66 C 0.10605 0.22772 0.62337 0.0
C67 C 1.00015 0.25716 0.54714 0.0
C68 C 0.98588 0.20713 0.29976 0.0
C69 C 0.97843 0.20607 0.20278 0.0
C70 C 0.95655 0.18701 0.21113 0.0
C71 C 0.96396 0.18807 0.30726 0.0
C72 C 0.99293 0.21618 0.24747 0.0
C73 C 0.94935 0.17821 0.26311 0.0
C74 C 0.05258 0.27983 0.47782 0.0
C75 C 1.00242 0.21712 0.34446 0.0
H76 H 0.02049 0.29783 0.83848 0.0
H77 H 0.03579 0.29048 0.6745 0.0
H78 H 0.03125 0.3132 0.74662 0.0
H79 H 1.0146 0.23417 0.78445 0.0
H80 H 0.94496 0.17902 0.17743 0.0
H81 H 0.95823 0.18057 0.34686 0.0
H82 H 1.00999 0.23068 0.24135 0.0
H83 H 0.93247 0.16351 0.2691 0.0
Tb84 Tb 0.78251 0.79533 0.58433 0.0
C85 C 0.81983 0.74857 0.43625 0.0
N86 N 0.82815 0.77148 0.44095 0.0
C87 C 0.86659 0.7783 0.43601 0.0
C88 C 0.83466 0.73958 0.43295 0.0
C89 C 0.85122 0.78642 0.43849 0.0
C90 C 0.85828 0.75475 0.43412 0.0
C91 C 0.78698 0.71025 0.42874 0.0
C92 C 0.7963 0.73406 0.43423 0.0
C93 C 0.80171 0.70119 0.42604 0.0
C94 C 0.82549 0.71582 0.4283 0.0
Tb95 Tb 0.8011 0.7823 0.44884 0.0
N96 N 0.78253 0.74334 0.43947 0.0
C97 C 0.76315 0.69628 0.42614 0.0
C98 C 0.75935 0.72993 0.43389 0.0
C99 C 0.7493 0.70621 0.42805 0.0
H100 H 0.8578 0.80468 0.43862 0.0
H101 H 0.73088 0.69562 0.42483 0.0
H102 H 0.72844 0.78284 0.58613 0.0
H103 H 0.86263 0.87598 0.6036 0.0
H104 H 0.74855 0.73736 0.43422 0.0
H105 H 0.7553 0.67789 0.42187 0.0
H106 H 0.83912 0.83459 0.59419 0.0
H107 H 0.88481 0.79029 0.43592 0.0
H108 H 0.79488 0.68292 0.42206 0.0
H109 H 0.83665 0.70861 0.4259 0.0
H110 H 0.7073 0.80363 0.59787 0.0
H111 H 0.87013 0.74838 0.43286 0.0
H112 H 0.84433 0.8996 0.61452 0.0
N113 N 0.76125 0.81269 0.59421 0.0
C114 C 0.77317 0.83562 0.60338 0.0
C115 C 0.72582 0.81283 0.59936 0.0
C116 C 0.76178 0.84813 0.61047 0.0
C117 C 0.73787 0.80114 0.59229 0.0
C118 C 0.73782 0.83643 0.60853 0.0
N119 N 0.80728 0.83406 0.59347 0.0
C120 C 0.83061 0.84432 0.59576 0.0
C121 C 0.80988 0.87062 0.61016 0.0
C122 C 0.79694 0.84669 0.60295 0.0
C123 C 0.83377 0.88125 0.60927 0.0
C124 C 0.84415 0.868 0.60263 0.0
H125 H 0.72843 0.84545 0.61372 0.0
H126 H 0.76611 0.8817 0.62466 0.0
H127 H 0.80826 0.90153 0.62349 0.0
O128 O 0.79713 0.80128 0.66148 0.0
O129 O 0.78259 0.81625 0.51675 0.0
O130 O 0.81177 0.81961 0.46327 0.0
O131 O 0.76068 0.78207 0.6522 0.0
O132 O 0.8141 0.79117 0.58154 0.0
O133 O 0.82899 0.80641 0.49963 0.0
O134 O 0.78449 0.77724 0.37402 0.0
O135 O 0.79168 0.75614 0.51735 0.0
O136 O 0.76482 0.75914 0.56707 0.0
O137 O 0.82115 0.79308 0.37836 0.0
O138 O 0.7691 0.78294 0.44567 0.0
O139 O 0.75243 0.7726 0.53011 0.0
C140 C 0.79876 0.82791 0.48152 0.0
C141 C 0.77699 0.77389 0.72723 0.0
C142 C 0.77892 0.76568 0.82209 0.0
C143 C 0.78044 0.7464 0.80705 0.0
C144 C 0.77958 0.75526 0.71283 0.0
C145 C 0.78075 0.74124 0.75257 0.0
C146 C 0.77664 0.77908 0.78191 0.0
C147 C 0.8316 0.79942 0.54695 0.0
C148 C 0.77762 0.78974 0.6861 0.0
C149 C 0.77461 0.87189 0.61837 0.0
C150 C 0.7986 0.88314 0.61792 0.0
C151 C 0.77499 0.74773 0.55421 0.0
C152 C 0.80582 0.80446 0.30779 0.0
C153 C 0.80293 0.81357 0.21389 0.0
C154 C 0.81132 0.83655 0.22897 0.0
C155 C 0.81404 0.82735 0.32233 0.0
C156 C 0.79985 0.79759 0.25415 0.0
C157 C 0.81662 0.84328 0.28298 0.0
C158 C 0.75083 0.77372 0.47642 0.0
C159 C 0.80363 0.78736 0.34723 0.0
H160 H 0.78199 0.7357 0.83743 0.0
H161 H 0.78157 0.75222 0.67107 0.0
H162 H 0.78275 0.72685 0.74126 0.0
H163 H 0.77594 0.79427 0.79303 0.0
H164 H 0.81429 0.84944 0.19904 0.0
H165 H 0.81869 0.83296 0.36369 0.0
H166 H 0.79291 0.77969 0.24397 0.0
H167 H 0.82312 0.86099 0.29419 0.0
Tb168 Tb 0.23668 0.99901 0.58577 0.0
C169 C 0.29767 0.07572 0.43854 0.0
N170 N 0.27479 0.06688 0.44531 0.0
C171 C 0.28031 0.1047 0.45264 0.0
C172 C 0.31296 0.0995 0.44108 0.0
C173 C 0.26591 0.08104 0.44894 0.0
C174 C 0.304 0.11402 0.44925 0.0
C175 C 0.32921 0.06914 0.42093 0.0
C176 C 0.30562 0.06072 0.42877 0.0
C177 C 0.34466 0.09278 0.42496 0.0
C178 C 0.33655 0.10793 0.43496 0.0
Tb179 Tb 0.25276 0.02795 0.44371 0.0
N180 N 0.29009 0.03792 0.42571 0.0
C181 C 0.33647 0.0536 0.40802 0.0
C182 C 0.29696 0.02313 0.40817 0.0
C183 C 0.3202 0.03055 0.4005 0.0
H184 H 0.24771 0.07418 0.44744 0.0
H185 H 0.3255 0.01857 0.3876 0.0
H186 H 0.25022 0.95721 0.58724 0.0
H187 H 0.15973 0.99749 0.65108 0.0
H188 H 0.28465 1.00591 0.39742 0.0
H189 H 0.35445 0.05935 0.40164 0.0
H190 H 0.2008 0.01564 0.62676 0.0
H191 H 0.27305 0.11565 0.45784 0.0
H192 H 0.36288 0.09956 0.41944 0.0
H193 H 0.34861 0.12614 0.43714 0.0
H194 H 0.22937 0.9152 0.58636 0.0
H195 H 0.31513 0.1324 0.45171 0.0
H196 H 0.13522 0.9553 0.64792 0.0
N197 N 0.21994 0.9599 0.58895 0.0
C198 C 0.19696 0.94839 0.59796 0.0
C199 C 0.21999 0.92432 0.58869 0.0
C200 C 0.18448 0.92431 0.6006 0.0
C201 C 0.23171 0.94824 0.58786 0.0
C202 C 0.1962 0.91227 0.59408 0.0
N203 N 0.19901 0.98408 0.60736 0.0
C204 C 0.19009 0.99724 0.62476 0.0
C205 C 0.16286 0.94979 0.62281 0.0
C206 C 0.18624 0.96089 0.60884 0.0
C207 C 0.15315 0.96319 0.63699 0.0
C208 C 0.16692 0.98702 0.63873 0.0
H209 H 0.1872 0.89373 0.59563 0.0
H210 H 0.1512 0.89464 0.61461 0.0
H211 H 0.13205 0.91685 0.63319 0.0
O212 O 0.25119 0.02174 0.65177 0.0
O213 O 0.20922 0.99489 0.53111 0.0
O214 O 0.22155 0.99252 0.44787 0.0
O215 O 0.23566 0.98547 0.66268 0.0
O216 O 0.24069 0.03441 0.57926 0.0
O217 O 0.23008 0.03584 0.49154 0.0
O218 O 0.25795 0.02645 0.36029 0.0
O219 O 0.27615 0.04402 0.51682 0.0
O220 O 0.27174 0.01261 0.55955 0.0
O221 O 0.23387 0.03613 0.38948 0.0
O222 O 0.24747 0.99335 0.4435 0.0
O223 O 0.2561 0.98737 0.53013 0.0
C224 C 0.20514 0.9842 0.48483 0.0
C225 C 0.26322 1.00856 0.72679 0.0
C226 C 0.27528 0.01559 0.82121 0.0
C227 C 0.29319 1.01138 0.80874 0.0
C228 C 0.28077 1.00383 0.71529 0.0
C229 C 0.29594 1.00564 0.75599 0.0
C230 C 0.26058 0.01451 0.77959 0.0
C231 C 0.23421 0.04404 0.54124 0.0
C232 C 0.24606 1.00529 0.6861 0.0
C233 C 0.16094 0.91309 0.61211 0.0
C234 C 0.15012 0.92577 0.62317 0.0
C235 C 0.28422 0.0345 0.55079 0.0
C236 C 0.24991 0.04908 0.30153 0.0
C237 C 0.25606 0.0556 0.20427 0.0
C238 C 0.2586 0.07741 0.21125 0.0
C239 C 0.25231 0.07085 0.30758 0.0
C240 C 0.25203 0.04164 0.2498 0.0
C241 C 0.25688 0.085 0.26266 0.0
C242 C 0.25442 0.98301 0.47693 0.0
C243 C 0.24347 0.03298 0.34709 0.0
H244 H 0.30497 0.01241 0.83983 0.0
H245 H 0.2824 0.99832 0.67525 0.0
H246 H 0.30962 1.00218 0.74688 0.0
H247 H 0.24646 0.01735 0.78869 0.0
H248 H 0.26191 0.08859 0.17687 0.0
H249 H 0.25024 0.07682 0.34654 0.0
H250 H 0.24971 0.02464 0.24471 0.0
H251 H 0.25873 0.10178 0.26759 0.0
Tb252 Tb 0.03047 0.79668 0.59053 0.0
C253 C 0.95539 0.77823 0.42683 0.0
N254 N 0.96483 0.76552 0.44328 0.0
C255 C 0.92738 0.73196 0.44578 0.0
C256 C 0.93155 0.76828 0.41983 0.0
C257 C 0.95117 0.74238 0.45038 0.0
C258 C 0.9175 0.74498 0.43079 0.0
C259 C 0.96083 0.8147 0.39505 0.0
C260 C 0.9698 0.80115 0.41438 0.0
C261 C 0.9371 0.80486 0.3884 0.0
C262 C 0.92257 0.78168 0.40026 0.0
Tb263 Tb 1.00414 0.78495 0.44546 0.0
N264 N 0.99268 0.81019 0.42154 0.0
C265 C 0.97603 0.83765 0.38237 0.0
C266 C 1.00769 0.83224 0.40651 0.0
C267 C 0.99958 0.84641 0.38778 0.0
H268 H 0.95826 0.73143 0.45739 0.0
H269 H 1.0115 0.86397 0.37682 0.0
H270 H 0.07725 0.84731 0.58988 0.0
H271 H 1.01817 0.7148 0.65871 0.0
H272 H 0.02592 0.83892 0.4087 0.0
H273 H 0.96978 0.84862 0.36752 0.0
H274 H 1.00675 0.74368 0.64334 0.0
H275 H 0.91672 0.71372 0.45217 0.0
H276 H 0.92984 0.81491 0.37326 0.0
H277 H 0.90449 0.77412 0.39246 0.0
H278 H 0.11888 0.86292 0.58664 0.0
H279 H 0.89909 0.73669 0.42604 0.0
H280 H 0.05879 0.72535 0.64798 0.0
N281 N 0.06932 0.81281 0.59418 0.0
C282 C 0.07759 0.79851 0.60389 0.0
C283 C 0.10756 0.84473 0.591 0.0
C284 C 0.10131 0.8066 0.60465 0.0
C285 C 0.08388 0.8358 0.59102 0.0
C286 C 0.11637 0.83004 0.59709 0.0
N287 N 0.03931 0.76903 0.61431 0.0
C288 C 0.02393 0.74787 0.63368 0.0
C289 C 0.06975 0.76028 0.62499 0.0
C290 C 0.06201 0.77573 0.61363 0.0
C291 C 0.05359 0.73779 0.63895 0.0
C292 C 0.03063 0.73173 0.64461 0.0
H293 H 0.13476 0.83702 0.59735 0.0
H294 H 0.12729 0.79693 0.61393 0.0
H295 H 0.09963 0.75631 0.63181 0.0
O296 O 0.02804 0.7912 0.67449 0.0
O297 O 0.0489 0.79043 0.52094 0.0
O298 O 0.0197 0.76479 0.46821 0.0
O299 O 0.03708 0.82424 0.64184 0.0
O300 O 0.99628 0.76671 0.58527 0.0
O301 O 0.9934 0.75341 0.49802 0.0
O302 O 0.02412 0.79581 0.37459 0.0
O303 O 0.99773 0.80669 0.50117 0.0
O304 O 0.99455 0.79099 0.58352 0.0
O305 O 0.98952 0.76786 0.37256 0.0
O306 O 0.04003 0.81517 0.45424 0.0
O307 O 0.03938 0.82716 0.54085 0.0
C308 C 0.04111 0.77437 0.48278 0.0
C309 C 0.04987 0.82292 0.73128 0.0
C310 C 0.05679 0.8235 0.82837 0.0
C311 C 0.07744 0.84424 0.82195 0.0
C312 C 0.0705 0.84375 0.72576 0.0
C313 C 0.08429 0.85417 0.77086 0.0
C314 C 0.04323 0.81276 0.7827 0.0
C315 C 0.98789 0.74977 0.5505 0.0
C316 C 0.03399 0.81226 0.68557 0.0
C317 C 0.10912 0.79111 0.61366 0.0
C318 C 0.09336 0.76798 0.62373 0.0
C319 C 0.98643 0.7993 0.54665 0.0
C320 C 1.01445 0.7683 0.30541 0.0
C321 C 0.02346 0.76437 0.21164 0.0
C322 C 0.02405 0.74451 0.22647 0.0
C323 C 1.01499 0.74848 0.31934 0.0
C324 C 0.01896 0.77633 0.25201 0.0
C325 C 0.02 0.73678 0.27999 0.0
C326 C 0.04895 0.83123 0.49251 0.0
C327 C 1.00795 0.78033 0.34469 0.0
H328 H 0.08827 0.85275 0.85652 0.0
H329 H 0.07579 0.85224 0.68707 0.0
H330 H 0.10018 0.87022 0.76634 0.0
H331 H 0.02708 0.79692 0.78748 0.0
H332 H 0.02714 0.73462 0.19663 0.0
H333 H 1.01146 0.74204 0.36042 0.0
H334 H 0.01878 0.79187 0.24208 0.0
H335 H 0.02044 0.72147 0.29081 0.0
Tb336 Tb 0.24055 0.24715 0.58926 0.0
C337 C 0.26247 0.18989 0.43598 0.0
N338 N 0.27411 0.21287 0.44476 0.0
C339 C 0.30966 0.21269 0.4443 0.0
C340 C 0.27396 0.17732 0.4327 0.0
C341 C 0.29757 0.22451 0.44559 0.0
C342 C 0.29778 0.18893 0.43872 0.0
C343 C 0.22668 0.15583 0.41239 0.0
C344 C 0.23915 0.17923 0.42598 0.0
C345 C 0.2379 0.14305 0.4111 0.0
C346 C 0.26149 0.15381 0.42108 0.0
Tb347 Tb 0.25199 0.22986 0.44734 0.0
N348 N 0.22882 0.19206 0.42795 0.0
C349 C 0.20345 0.14614 0.39937 0.0
C350 C 0.20657 0.18313 0.41172 0.0
C351 C 0.19343 0.15993 0.39833 0.0
H352 H 0.30723 0.24299 0.44609 0.0
H353 H 0.17566 0.15275 0.38685 0.0
H354 H 0.1954 0.25299 0.57173 0.0
H355 H 0.32237 0.30668 0.68073 0.0
H356 H 0.19892 0.19386 0.41003 0.0
H357 H 0.19326 0.12819 0.38877 0.0
H358 H 0.28983 0.26858 0.65915 0.0
H359 H 0.32818 0.22198 0.4463 0.0
H360 H 0.22862 0.12499 0.40112 0.0
H361 H 0.27013 0.14404 0.41756 0.0
H362 H 0.18698 0.28436 0.56013 0.0
H363 H 0.30722 0.17985 0.43671 0.0
H364 H 0.32044 0.3414 0.65853 0.0
N365 N 0.23107 0.27513 0.58227 0.0
C366 C 0.24785 0.29687 0.59304 0.0
C367 C 0.20432 0.28819 0.56823 0.0
C368 C 0.24395 0.31541 0.58816 0.0
C369 C 0.20917 0.27042 0.57352 0.0
C370 C 0.22191 0.31086 0.5744 0.0
N371 N 0.27108 0.28145 0.61734 0.0
C372 C 0.28943 0.28354 0.64561 0.0
C373 C 0.28647 0.32232 0.6239 0.0
C374 C 0.26878 0.30018 0.61012 0.0
C375 C 0.30644 0.32471 0.64718 0.0
C376 C 0.30764 0.30516 0.65949 0.0
H377 H 0.21812 0.32461 0.57049 0.0
H378 H 0.2594 0.35224 0.59463 0.0
H379 H 0.29668 0.35833 0.62623 0.0
O380 O 0.24196 0.25155 0.67421 0.0
O381 O 0.24672 0.2695 0.515 0.0
O382 O 0.27367 0.26514 0.47177 0.0
O383 O 0.21012 0.22774 0.63373 0.0
O384 O 0.26921 0.24058 0.58835 0.0
O385 O 0.28332 0.25007 0.50149 0.0
O386 O 0.24341 0.24345 0.38023 0.0
O387 O 0.22906 0.20307 0.50426 0.0
O388 O 0.24464 0.21587 0.58674 0.0
O389 O 0.26449 0.22824 0.37068 0.0
O390 O 0.22073 0.23413 0.45338 0.0
O391 O 0.20959 0.22506 0.54212 0.0
C392 C 0.26437 0.27767 0.48117 0.0
C393 C 0.20842 0.23038 0.73185 0.0
C394 C 0.20892 0.23221 0.83065 0.0
C395 C 0.18492 0.21844 0.83083 0.0
C396 C 0.18447 0.21659 0.7332 0.0
C397 C 0.17284 0.21066 0.78244 0.0
C398 C 0.22066 0.23803 0.78087 0.0
C399 C 0.28645 0.24826 0.55432 0.0
C400 C 0.22038 0.23663 0.67929 0.0
C401 C 0.26194 0.33768 0.59865 0.0
C402 C 0.28319 0.34114 0.61649 0.0
C403 C 0.23608 0.1992 0.55025 0.0
C404 C 0.26856 0.25505 0.30495 0.0
C405 C 0.27349 0.26657 0.20992 0.0
C406 C 0.29497 0.28553 0.22294 0.0
C407 C 0.29031 0.2735 0.31664 0.0
C408 C 0.26028 0.25154 0.25171 0.0
C409 C 0.3033 0.28888 0.2759 0.0
C410 C 0.20512 0.2286 0.49238 0.0
C411 C 0.25482 0.23817 0.34639 0.0
H412 H 0.1755 0.21349 0.86858 0.0
H413 H 0.17467 0.21044 0.69614 0.0
H414 H 0.15438 0.20001 0.78311 0.0
H415 H 0.23915 0.24869 0.78037 0.0
H416 H 0.30538 0.29777 0.19222 0.0
H417 H 0.29733 0.27572 0.35695 0.0
H418 H 0.24384 0.23661 0.24271 0.0
H419 H 0.31999 0.30331 0.28525 0.0
Tb420 Tb 0.7885 1.00053 0.58195 0.0
C421 C 0.84413 0.08024 0.42867 0.0
N422 N 0.82121 0.06897 0.43865 0.0
C423 C 0.82195 0.10492 0.44252 0.0
C424 C 0.85701 0.10435 0.42752 0.0
C425 C 0.80984 0.08098 0.44212 0.0
C426 C 0.8457 0.11667 0.43623 0.0
C427 C 0.87779 0.07839 0.40182 0.0
C428 C 0.85445 0.06751 0.4162 0.0
C429 C 0.89089 0.10239 0.40263 0.0
C430 C 0.88055 0.11534 0.41576 0.0
Tb431 Tb 0.80389 0.02973 0.43977 0.0
N432 N 0.84143 0.04434 0.41738 0.0
C433 C 0.88714 0.06478 0.38668 0.0
C434 C 0.85004 0.03098 0.39943 0.0
C435 C 0.87312 0.04098 0.38479 0.0
H436 H 0.79137 0.07234 0.44354 0.0
H437 H 0.88005 0.03035 0.37186 0.0
H438 H 0.79756 0.95651 0.57991 0.0
H439 H 0.71244 1.00444 0.63445 0.0
H440 H 0.83916 0.01262 0.39725 0.0
H441 H 0.90501 0.07248 0.37539 0.0
H442 H 0.75381 0.01981 0.62395 0.0
H443 H 0.81288 0.11428 0.4466 0.0
H444 H 0.90895 0.11111 0.39249 0.0
H445 H 0.89077 0.13385 0.41521 0.0
H446 H 0.77447 0.91464 0.57392 0.0
H447 H 0.85498 0.13521 0.43581 0.0
H448 H 0.6857 0.96287 0.62391 0.0
N449 N 0.76886 0.96146 0.58183 0.0
C450 C 0.74585 0.95129 0.58902 0.0
C451 C 0.76609 0.92467 0.57764 0.0
C452 C 0.73187 0.92728 0.58818 0.0
C453 C 0.77917 0.94852 0.57922 0.0
C454 C 0.74227 0.91395 0.58146 0.0
N455 N 0.75067 0.98824 0.59947 0.0
C456 C 0.74239 1.00212 0.61509 0.0
C457 C 0.71263 0.95528 0.606 0.0
C458 C 0.73641 0.96514 0.59792 0.0
C459 C 0.70387 0.96974 0.61741 0.0
C460 C 0.71889 0.99322 0.62299 0.0
H461 H 0.73216 0.89543 0.58056 0.0
H462 H 0.69702 0.89899 0.59385 0.0
H463 H 0.68015 0.9235 0.60931 0.0
O464 O 0.78289 1.00199 0.6652 0.0
O465 O 0.7646 0.98403 0.50972 0.0
O466 O 0.76869 0.01519 0.46596 0.0
O467 O 0.80829 0.99395 0.63706 0.0
O468 O 0.79208 0.03455 0.58263 0.0
O469 O 0.78377 0.04041 0.49531 0.0
O470 O 0.79044 1.00759 0.37248 0.0
O471 O 0.83151 0.03424 0.49431 0.0
O472 O 0.81896 0.03629 0.57755 0.0
O473 O 0.80399 0.04375 0.36408 0.0
O474 O 0.79992 0.99444 0.44606 0.0
O475 O 0.81152 0.99342 0.53298 0.0
C476 C 0.75653 0.99327 0.47484 0.0
C477 C 0.7923 0.98063 0.72491 0.0
C478 C 0.78599 0.97402 0.82215 0.0
C479 C 0.78464 0.95271 0.81554 0.0
C480 C 0.79123 0.95942 0.71937 0.0
C481 C 0.78712 0.94544 0.7644 0.0
C482 C 0.78947 0.98776 0.77643 0.0
C483 C 0.78515 0.04469 0.54851 0.0
C484 C 0.79811 0.99654 0.67907 0.0
C485 C 0.70809 0.91741 0.59475 0.0
C486 C 0.69849 0.93138 0.60354 0.0
C487 C 0.83538 0.04481 0.5407 0.0
C488 C 0.77702 0.02023 0.29914 0.0
C489 C 0.7644 1.01204 0.20505 0.0
C490 C 0.74638 0.01614 0.21761 0.0
C491 C 0.75938 0.02482 0.3105 0.0
C492 C 0.77935 0.01367 0.24675 0.0
C493 C 0.74387 0.02236 0.27005 0.0
C494 C 0.80708 0.98517 0.48336 0.0
C495 C 0.79455 0.02418 0.33942 0.0
H496 H 0.78171 0.94168 0.85001 0.0
H497 H 0.79402 0.95377 0.68076 0.0
H498 H 0.78624 0.92908 0.75978 0.0
H499 H 0.79084 1.00438 0.78121 0.0
H500 H 0.73465 0.0153 0.18665 0.0
H501 H 0.75792 0.03072 0.35021 0.0
H502 H 0.79316 1.01028 0.2384 0.0
H503 H 0.73021 0.02585 0.279 0.0
Tb504 Tb 0.7014 0.57587 0.91695 0.0
C505 C 0.62916 0.56614 0.76306 0.0
N506 N 0.63618 0.55084 0.77299 0.0
C507 C 0.59706 0.5207 0.77969 0.0
C508 C 0.60578 0.55958 0.76432 0.0
C509 C 0.62049 0.52816 0.77803 0.0
C510 C 0.58967 0.53656 0.77384 0.0
C511 C 0.63917 0.60469 0.73841 0.0
C512 C 0.64565 0.58834 0.75076 0.0
C513 C 0.61599 0.59861 0.74195 0.0
C514 C 0.59932 0.57607 0.75487 0.0
Tb515 Tb 0.67481 0.56462 0.77281 0.0
N516 N 0.66787 0.59344 0.74764 0.0
C517 C 0.65604 0.62631 0.72066 0.0
C518 C 0.68374 0.61359 0.72459 0.0
C519 C 0.6783 0.63056 0.71228 0.0
H520 H 0.62598 0.51574 0.77903 0.0
H521 H 0.69114 0.64667 0.69508 0.0
H522 H 0.74615 0.63001 0.91371 0.0
H523 H 0.69524 0.49697 0.98271 0.0
H524 H 0.70032 0.61633 0.7133 0.0
H525 H 0.6518 0.63937 0.71056 0.0
H526 H 0.6803 0.5218 0.95238 0.0
H527 H 0.58474 0.5027 0.78479 0.0
H528 H 0.61071 0.61101 0.73319 0.0
H529 H 0.58145 0.57145 0.75613 0.0
H530 H 0.78781 0.64869 0.92163 0.0
H531 H 0.5715 0.53075 0.77493 0.0
H532 H 0.73702 0.51285 0.9922 0.0
N533 N 0.74058 0.59607 0.92318 0.0
C534 C 0.75036 0.58346 0.93784 0.0
C535 C 0.77751 0.63028 0.92547 0.0
C536 C 0.77417 0.59381 0.94628 0.0
C537 C 0.75374 0.6194 0.91942 0.0
C538 C 0.78781 0.61743 0.93853 0.0
N539 N 0.71335 0.55094 0.94041 0.0
C540 C 0.69857 0.52873 0.95469 0.0
C541 C 0.74551 0.54687 0.96654 0.0
C542 C 0.73626 0.56028 0.94801 0.0
C543 C 0.73056 0.52373 0.97799 0.0
C544 C 0.70697 0.51468 0.97251 0.0
H545 H 0.80617 0.62603 0.9445 0.0
H546 H 0.80153 0.58826 0.97308 0.0
H547 H 0.7767 0.54707 0.98843 0.0
O548 O 0.67872 0.5666 0.98341 0.0
O549 O 0.70788 0.55413 0.86121 0.0
O550 O 0.71058 0.56959 0.77863 0.0
O551 O 0.71478 0.58965 0.99323 0.0
O552 O 0.66577 0.5453 0.90783 0.0
O553 O 0.66604 0.5338 0.8206 0.0
O554 O 0.6768 0.56934 0.68858 0.0
O555 O 0.65722 0.57116 0.84432 0.0
O556 O 0.68785 0.5974 0.89115 0.0
O557 O 0.66601 0.53615 0.72252 0.0
O558 O 0.7095 0.59406 0.77666 0.0
O559 O 0.71324 0.60757 0.86399 0.0
C560 C 0.71897 0.56144 0.81537 0.0
C561 C 0.69068 0.59212 0.05816 0.0
C562 C 0.68229 0.59587 0.15265 0.0
C563 C 0.68621 0.61798 0.14095 0.0
C564 C 0.69505 0.61432 0.04775 0.0
C565 C 0.6924 0.62702 0.08881 0.0
C566 C 0.68414 0.5829 0.1103 0.0
C567 C 0.65682 0.52942 0.86926 0.0
C568 C 0.69506 0.57904 0.01722 0.0
C569 C 0.78347 0.58048 0.96442 0.0
C570 C 0.76924 0.55705 0.97403 0.0
C571 C 0.66613 0.58815 0.88018 0.0
C572 C 0.6531 0.53775 0.63337 0.0
C573 C 0.64568 0.5368 0.53637 0.0
C574 C 0.62407 0.5173 0.54439 0.0
C575 C 0.63149 0.51821 0.64047 0.0
C576 C 0.66001 0.54709 0.58125 0.0
C577 C 0.61701 0.5082 0.59617 0.0
C578 C 0.71848 0.61105 0.81131 0.0
C579 C 0.66952 0.54795 0.67831 0.0
H580 H 0.68526 0.62866 0.17237 0.0
H581 H 0.70101 0.62197 1.00834 0.0
H582 H 0.69576 0.64418 0.08058 0.0
H583 H 0.68095 0.56574 0.11794 0.0
H584 H 0.61261 0.50916 0.51056 0.0
H585 H 0.62589 0.51043 0.67984 0.0
H586 H 0.67686 0.56195 0.57538 0.0
H587 H 0.60036 0.49314 0.60189 0.0
Tb588 Tb 0.45554 0.12969 0.91826 0.0
C589 C 0.45599 0.06126 0.77104 0.0
N590 N 0.47345 0.08243 0.78377 0.0
C591 C 0.49803 0.06693 0.80032 0.0
C592 C 0.45839 0.04179 0.77595 0.0
C593 C 0.49471 0.08569 0.79471 0.0
C594 C 0.47964 0.04481 0.79205 0.0
C595 C 0.41784 0.03804 0.7349 0.0
C596 C 0.43602 0.05948 0.75144 0.0
C597 C 0.41954 0.01829 0.74242 0.0
C598 C 0.4398 0.02016 0.76295 0.0
Tb599 Tb 0.46639 0.11207 0.77601 0.0
N600 N 0.4353 0.07907 0.74404 0.0
C601 C 0.39911 0.03728 0.70869 0.0
C602 C 0.41822 0.07857 0.71327 0.0
C603 C 0.39964 0.05772 0.69641 0.0
H604 H 0.5091 0.10271 0.79863 0.0
H605 H 0.38594 0.05746 0.67308 0.0
H606 H 0.40048 0.11753 0.91743 0.0
H607 H 0.53231 0.20623 0.97901 0.0
H608 H 0.41912 0.09427 0.70045 0.0
H609 H 0.38481 0.02118 0.69511 0.0
H610 H 0.50864 0.16519 0.95558 0.0
H611 H 0.51481 0.06957 0.81034 0.0
H612 H 0.40563 1.00162 0.7306 0.0
H613 H 0.44117 1.00491 0.76695 0.0
H614 H 0.3802 0.13916 0.91523 0.0
H615 H 0.48226 0.0303 0.79615 0.0
H616 H 0.51525 0.23127 0.9768 0.0
N617 N 0.43387 0.14727 0.91989 0.0
C618 C 0.44575 0.17024 0.92875 0.0
C619 C 0.3987 0.14818 0.9181 0.0
C620 C 0.43463 0.18321 0.93064 0.0
C621 C 0.41043 0.13599 0.91795 0.0
C622 C 0.41088 0.17195 0.9235 0.0
N623 N 0.47899 0.16745 0.93767 0.0
C624 C 0.5012 0.17611 0.95388 0.0
C625 C 0.4817 0.20396 0.95288 0.0
C626 C 0.46897 0.18056 0.93942 0.0
C627 C 0.50486 0.21334 0.96628 0.0
C628 C 0.51457 0.19927 0.96742 0.0
H629 H 0.4017 0.1813 0.92445 0.0
H630 H 0.43918 0.21703 0.94293 0.0
H631 H 0.48039 0.23521 0.96256 0.0
O632 O 0.46509 0.11727 0.98581 0.0
O633 O 0.47835 0.15634 0.86081 0.0
O634 O 0.46239 0.1434 0.77866 0.0
O635 O 0.44244 0.13073 0.99466 0.0
O636 O 0.48665 0.12514 0.91164 0.0
O637 O 0.49751 0.13399 0.82272 0.0
O638 O 0.46597 0.10835 0.69094 0.0
O639 O 0.46045 0.08974 0.85036 0.0
O640 O 0.43383 0.09423 0.89502 0.0
O641 O 0.4975 0.13123 0.7336 0.0
O642 O 0.43798 0.11902 0.77824 0.0
O643 O 0.42402 0.10902 0.86493 0.0
C644 C 0.47121 0.16017 0.81491 0.0
C645 C 0.44026 0.10497 0.06155 0.0
C646 C 0.43658 0.0941 0.15678 0.0
C647 C 0.41582 0.07409 0.14475 0.0
C648 C 0.41914 0.08545 0.05067 0.0
C649 C 0.40715 0.06989 0.09201 0.0
C650 C 0.44886 0.1093 0.11453 0.0
C651 C 0.50211 0.1305 0.87233 0.0
C652 C 0.45309 0.12187 0.01937 0.0
C653 C 0.44741 0.20678 0.9416 0.0
C654 C 0.47087 0.21712 0.953 0.0
C655 C 0.44313 0.08173 0.88518 0.0
C656 C 0.50024 0.12921 0.63554 0.0
C657 C 0.50069 0.13089 0.53656 0.0
C658 C 0.52477 0.14202 0.53803 0.0
C659 C 0.52425 0.14054 0.63572 0.0
C660 C 0.48847 0.12431 0.58578 0.0
C661 C 0.53639 0.1468 0.5872 0.0
C662 C 0.42071 0.1108 0.81219 0.0
C663 C 0.4877 0.12286 0.68734 0.0
H664 H 0.40591 0.06209 0.17639 0.0
H665 H 0.41183 0.08252 1.01055 0.0
H666 H 0.39087 0.05475 0.0834 0.0
H667 H 0.46504 0.12467 0.12294 0.0
H668 H 0.5347 0.14684 0.50103 0.0
H669 H 0.53368 0.14446 0.6734 0.0
H670 H 0.46993 0.11587 0.58545 0.0
H671 H 0.55491 0.15537 0.58768 0.0
Tb672 Tb 0.9021 0.33107 0.91291 0.0
C673 C 0.96711 0.40434 0.7667 0.0
N674 N 0.94498 0.39813 0.7771 0.0
C675 C 0.95575 0.43752 0.78902 0.0
C676 C 0.98473 0.42731 0.7708 0.0
C677 C 0.93894 0.41443 0.78459 0.0
C678 C 0.97882 0.44395 0.78327 0.0
C679 C 0.99438 0.39317 0.7379 0.0
C680 C 0.97177 0.38746 0.75087 0.0
C681 C 1.01229 0.41586 0.74451 0.0
C682 C 1.00746 0.43292 0.76089 0.0
Tb683 Tb 0.9187 0.36002 0.77141 0.0
N684 N 0.95389 0.36578 0.74446 0.0
C685 C 0.99813 0.37616 0.71635 0.0
C686 C 0.95725 0.34998 0.71774 0.0
C687 C 0.97939 0.35463 0.70486 0.0
H688 H 0.92117 0.40973 0.78589 0.0
H689 H 0.98193 0.34179 0.68493 0.0
H690 H 0.91366 0.28779 0.90816 0.0
H691 H 0.82643 0.33189 0.97861 0.0
H692 H 0.94291 0.33406 0.70441 0.0
H693 H 1.01522 0.37982 0.70573 0.0
H694 H 0.86721 0.34902 0.95305 0.0
H695 H 0.95087 0.45034 0.79612 0.0
H696 H 0.02981 0.42054 0.73535 0.0
H697 H 0.02133 0.45045 0.76433 0.0
H698 H 0.89161 0.2459 0.90535 0.0
H699 H 0.99183 0.46185 0.78652 0.0
H700 H 0.80109 0.2898 0.9767 0.0
N701 N 0.88418 0.29179 0.91345 0.0
C702 C 0.86129 0.28083 0.92369 0.0
C703 C 0.88279 0.25552 0.90955 0.0
C704 C 0.84811 0.25674 0.92523 0.0
C705 C 0.89522 0.27945 0.90973 0.0
C706 C 0.85908 0.2441 0.91636 0.0
N707 N 0.86454 0.31702 0.9341 0.0
C708 C 0.85617 0.33068 0.95131 0.0
C709 C 0.82799 0.28333 0.95061 0.0
C710 C 0.85127 0.29388 0.9359 0.0
C711 C 0.81892 0.29724 0.9652 0.0
C712 C 0.83315 0.32101 0.96615 0.0
H713 H 0.84955 0.22556 0.91702 0.0
H714 H 0.81419 0.22758 0.93832 0.0
H715 H 0.79664 0.25089 0.96114 0.0
O716 O 0.91497 0.35264 0.98127 0.0
O717 O 0.875 0.32683 0.85664 0.0
O718 O 0.88787 0.32431 0.77404 0.0
O719 O 0.9014 0.31645 0.98827 0.0
O720 O 0.90643 0.36664 0.9073 0.0
O721 O 0.89634 0.36833 0.81937 0.0
O722 O 0.92312 0.36268 0.68638 0.0
O723 O 0.94161 0.37643 0.84499 0.0
O724 O 0.93747 0.34522 0.88834 0.0
O725 O 0.89856 0.36984 0.72631 0.0
O726 O 0.91315 0.32514 0.77148 0.0
O727 O 0.92263 0.32048 0.85836 0.0
C728 C 0.87121 0.31601 0.81052 0.0
C729 C 0.92754 0.33947 0.05527 0.0
C730 C 0.93908 0.34646 0.15028 0.0
C731 C 0.95852 0.3448 0.1372 0.0
C732 C 0.9465 0.33704 0.04348 0.0
C733 C 0.96212 0.34005 0.08419 0.0
C734 C 0.92379 0.344 0.10855 0.0
C735 C 0.90018 0.37639 0.86908 0.0
C736 C 0.91047 0.33579 1.01386 0.0
C737 C 0.82463 0.24607 0.93747 0.0
C738 C 0.81464 0.25934 0.95057 0.0
C739 C 0.94991 0.36706 0.87872 0.0
C740 C 0.90111 0.37384 0.62822 0.0
C741 C 0.903 0.37509 0.52945 0.0
C742 C 0.88853 0.38449 0.52907 0.0
C743 C 0.88662 0.38318 0.62667 0.0
C744 C 0.90915 0.36962 0.57932 0.0
C745 C 0.88037 0.38842 0.57734 0.0
C746 C 0.92106 0.31577 0.80536 0.0
C747 C 0.90771 0.36867 0.68093 0.0
H748 H 0.97095 0.34713 0.16788 0.0
H749 H 0.94896 0.33246 1.00314 0.0
H750 H 0.97693 0.33845 0.07478 0.0
H751 H 0.9085 0.34485 0.1176 0.0
H752 H 0.88332 0.3886 0.49124 0.0
H753 H 0.88016 0.38654 0.66362 0.0
H754 H 0.92036 0.36243 0.57998 0.0
H755 H 0.86918 0.3956 0.57652 0.0
Tb756 Tb 0.70002 0.12623 0.91917 0.0
C757 C 0.62119 0.10558 0.76685 0.0
N758 N 0.63204 0.09354 0.77668 0.0
C759 C 0.59564 0.05872 0.78026 0.0
C760 C 0.59708 0.09474 0.76536 0.0
C761 C 0.61958 0.07015 0.78002 0.0
C762 C 0.58432 0.07111 0.77387 0.0
C763 C 0.62391 0.1415 0.7407 0.0
C764 C 0.63435 0.12867 0.75505 0.0
C765 C 0.59991 0.13094 0.74072 0.0
C766 C 0.58653 0.10765 0.75348 0.0
Tb767 Tb 0.67136 0.11478 0.77708 0.0
N768 N 0.6575 0.13848 0.75688 0.0
C769 C 0.63793 0.16453 0.72654 0.0
C770 C 0.67127 0.16056 0.74014 0.0
C771 C 0.66171 0.17402 0.72568 0.0
H772 H 0.62783 0.05998 0.7812 0.0
H773 H 0.67267 0.19164 0.71358 0.0
H774 H 0.75155 0.17034 0.89905 0.0
H775 H 0.67628 0.0455 0.01777 0.0
H776 H 0.68961 0.16782 0.73847 0.0
H777 H 0.63057 0.17499 0.71534 0.0
H778 H 0.67149 0.07815 0.99259 0.0
H779 H 0.58592 0.04028 0.78417 0.0
H780 H 0.59154 0.14056 0.73042 0.0
H781 H 0.56803 0.09966 0.75265 0.0
H782 H 0.79104 0.17766 0.88771 0.0
H783 H 0.56577 0.06215 0.77324 0.0
H784 H 0.71235 0.04607 0.99585 0.0
N785 N 0.73725 0.13474 0.91212 0.0
C786 C 0.7417 0.11774 0.92415 0.0
C787 C 0.77725 0.16058 0.89687 0.0
C788 C 0.76396 0.12104 0.91944 0.0
C789 C 0.7548 0.15635 0.90214 0.0
C790 C 0.78178 0.14271 0.90439 0.0
N791 N 0.70305 0.09563 0.94974 0.0
C792 C 0.68664 0.07795 0.97952 0.0
C793 C 0.72778 0.07946 0.95811 0.0
C794 C 0.72381 0.09726 0.94259 0.0
C795 C 0.71002 0.06012 0.98309 0.0
C796 C 0.68959 0.05968 0.99528 0.0
H797 H 0.79918 0.14602 0.90052 0.0
H798 H 0.78467 0.10493 0.92763 0.0
H799 H 0.75297 0.06849 0.96187 0.0
O800 O 0.70323 0.1255 1.00414 0.0
O801 O 0.71664 0.12033 0.84514 0.0
O802 O 0.68558 0.09353 0.80058 0.0
O803 O 0.71102 0.15696 0.9625 0.0
O804 O 0.6648 0.09747 0.91731 0.0
O805 O 0.66077 0.08344 0.8306 0.0
O806 O 0.69288 0.12389 0.70854 0.0
O807 O 0.66732 0.13757 0.83429 0.0
O808 O 0.66449 0.12181 0.91656 0.0
O809 O 0.65669 0.101 0.70157 0.0
O810 O 0.70704 0.1459 0.78306 0.0
O811 O 0.70902 0.15711 0.87173 0.0
C812 C 0.70743 0.10301 0.81035 0.0
C813 C 0.71548 0.15927 0.0607 0.0
C814 C 0.71684 0.15925 0.15959 0.0
C815 C 0.72685 0.1832 0.15909 0.0
C816 C 0.72545 0.18318 0.06141 0.0
C817 C 0.73106 0.19502 0.11036 0.0
C818 C 0.71103 0.1473 0.11007 0.0
C819 C 0.65576 0.08018 0.88341 0.0
C820 C 0.70976 0.14704 1.00846 0.0
C821 C 0.76773 0.10286 0.93149 0.0
C822 C 0.74966 0.08209 0.95082 0.0
C823 C 0.65642 0.13048 0.88036 0.0
C824 C 0.67982 0.09837 0.634 0.0
C825 C 0.687 0.09427 0.53879 0.0
C826 C 0.68552 0.07322 0.55132 0.0
C827 C 0.67759 0.07704 0.64521 0.0
C828 C 0.68436 0.10685 0.5809 0.0
C829 C 0.68078 0.06469 0.60413 0.0
C830 C 0.71709 0.16154 0.82201 0.0
C831 C 0.67602 0.11152 0.67589 0.0
H832 H 0.73122 0.19281 0.19658 0.0
H833 H 0.72899 0.19277 0.0241 0.0
H834 H 0.73871 0.21345 0.11054 0.0
H835 H 0.70335 0.12883 0.11003 0.0
H836 H 0.688 0.06331 0.52036 0.0
H837 H 0.67305 0.06987 0.68542 0.0
H838 H 0.6851 0.12295 0.57229 0.0
H839 H 0.67934 0.04833 0.61311 0.0
Tb840 Tb 0.90174 0.57758 0.91283 0.0
C841 C 0.93145 0.52612 0.75907 0.0
N842 N 0.94422 0.54856 0.77291 0.0
C843 C 0.97768 0.54486 0.78014 0.0
C844 C 0.94128 0.512 0.7562 0.0
C845 C 0.96709 0.5581 0.78337 0.0
C846 C 0.96472 0.52169 0.76665 0.0
C847 C 0.89427 0.49385 0.73725 0.0
C848 C 0.90826 0.51723 0.75017 0.0
C849 C 0.9039 0.4796 0.73467 0.0
C850 C 0.92736 0.48867 0.74399 0.0
Tb851 Tb 0.92553 0.56886 0.77795 0.0
N852 N 0.89946 0.53148 0.75454 0.0
C853 C 0.87107 0.48551 0.72682 0.0
C854 C 0.87729 0.52372 0.73905 0.0
C855 C 0.86266 0.50062 0.72671 0.0
H856 H 0.97728 0.57603 0.79355 0.0
H857 H 0.845 0.4946 0.71585 0.0
H858 H 0.84517 0.5557 0.91545 0.0
H859 H 0.97169 0.66368 0.94847 0.0
H860 H 0.87067 0.53508 0.73349 0.0
H861 H 0.85972 0.46765 0.71693 0.0
H862 H 0.95408 0.62215 0.93642 0.0
H863 H 0.99583 0.55252 0.78822 0.0
H864 H 0.89336 0.46157 0.72524 0.0
H865 H 0.93455 0.47749 0.74194 0.0
H866 H 0.81828 0.57035 0.91592 0.0
H867 H 0.97294 0.51143 0.76469 0.0
H868 H 0.94754 0.68171 0.94753 0.0
N869 N 0.87493 0.5888 0.91582 0.0
C870 C 0.88328 0.61168 0.9216 0.0
C871 C 0.83653 0.58221 0.91715 0.0
C872 C 0.86852 0.6208 0.92304 0.0
C873 C 0.85183 0.57396 0.9161 0.0
C874 C 0.84493 0.60577 0.91927 0.0
N875 N 0.92037 0.61644 0.92586 0.0
C876 C 0.94335 0.62963 0.93487 0.0
C877 C 0.916 0.64966 0.93531 0.0
C878 C 0.90668 0.62591 0.92824 0.0
C879 C 0.9397 0.66338 0.94197 0.0
C880 C 0.95339 0.65327 0.94229 0.0
H881 H 0.83313 0.6122 0.91912 0.0
H882 H 0.86662 0.65181 0.9303 0.0
H883 H 0.90824 0.67711 0.94072 0.0
O884 O 0.91481 0.58147 0.9921 0.0
O885 O 0.91096 0.6041 0.84476 0.0
O886 O 0.9409 0.60316 0.8086 0.0
O887 O 0.87866 0.56215 0.97721 0.0
O888 O 0.93383 0.57706 0.91979 0.0
O889 O 0.95343 0.58981 0.83919 0.0
O890 O 0.91782 0.57493 0.69905 0.0
O891 O 0.92318 0.5459 0.84305 0.0
O892 O 0.89264 0.54086 0.89416 0.0
O893 O 0.95176 0.58286 0.71964 0.0
O894 O 0.89237 0.57069 0.77791 0.0
O895 O 0.87569 0.55381 0.85769 0.0
C896 C 0.92888 0.61316 0.81145 0.0
C897 C 0.89041 0.58104 0.06158 0.0
C898 C 0.89217 0.5864 0.15929 0.0
C899 C 0.87991 0.59805 0.15427 0.0
C900 C 0.87795 0.59254 0.05757 0.0
C901 C 0.87302 0.60124 0.10354 0.0
C902 C 0.89777 0.57826 0.11272 0.0
C903 C 0.95323 0.58721 0.89294 0.0
C904 C 0.89455 0.5705 1.01384 0.0
C905 C 0.87772 0.64449 0.92934 0.0
C906 C 0.9014 0.65889 0.93549 0.0
C907 C 0.90584 0.53299 0.87435 0.0
C908 C 0.93894 0.56902 0.6313 0.0
C909 C 0.93102 0.5609 0.53513 0.0
C910 C 0.93872 0.54509 0.53817 0.0
C911 C 0.94725 0.55363 0.63294 0.0
C912 C 0.93111 0.57284 0.58189 0.0
C913 C 0.94691 0.5416 0.5868 0.0
C914 C 0.87392 0.56117 0.81013 0.0
C915 C 0.93809 0.58089 0.68065 0.0
H916 H 0.87549 0.60446 0.18976 0.0
H917 H 0.87145 0.59437 0.01942 0.0
H918 H 0.86337 0.61004 0.09994 0.0
H919 H 0.90699 0.56899 0.11651 0.0
H920 H 0.93889 0.53581 0.50253 0.0
H921 H 0.9542 0.55092 0.66956 0.0
H922 H 0.92491 0.58487 0.57993 0.0
H923 H 0.9532 0.52968 0.58866 0.0
Tb924 Tb 0.45447 0.33237 0.923 0.0
C925 C 0.51136 0.40996 0.76567 0.0
N926 N 0.48846 0.3991 0.77575 0.0
C927 C 0.48983 0.43537 0.77697 0.0
C928 C 0.52455 0.43403 0.76298 0.0
C929 C 0.47741 0.41145 0.77801 0.0
C930 C 0.51356 0.44674 0.77042 0.0
C931 C 0.54467 0.40721 0.74019 0.0
C932 C 0.52137 0.39681 0.75467 0.0
C933 C 0.55806 0.4312 0.73937 0.0
C934 C 0.54804 0.44457 0.75104 0.0
Tb935 Tb 0.47059 0.35985 0.77902 0.0
N936 N 0.50807 0.37368 0.75733 0.0
C937 C 0.5537 0.39316 0.7266 0.0
C938 C 0.51638 0.35987 0.74092 0.0
C939 C 0.53941 0.36939 0.72629 0.0
H940 H 0.45896 0.40308 0.77951 0.0
H941 H 0.5461 0.35841 0.71457 0.0
H942 H 0.45441 0.28353 0.91523 0.0
H943 H 0.38857 0.34834 1.00167 0.0
H944 H 0.50528 0.34152 0.7399 0.0
H945 H 0.57154 0.40049 0.7153 0.0
H946 H 0.4282 0.35766 0.98308 0.0
H947 H 0.48101 0.44502 0.78009 0.0
H948 H 0.57608 0.43956 0.72909 0.0
H949 H 0.55847 0.46304 0.74922 0.0
H950 H 0.42609 0.24243 0.90767 0.0
H951 H 0.52309 0.46527 0.76885 0.0
H952 H 0.35648 0.3092 0.98466 0.0
N953 N 0.42954 0.29379 0.92152 0.0
C954 C 0.40716 0.28678 0.93099 0.0
C955 C 0.42045 0.25473 0.9133 0.0
C956 C 0.39028 0.26345 0.92887 0.0
C957 C 0.43649 0.27811 0.91596 0.0
C958 C 0.39716 0.24737 0.9188 0.0
N959 N 0.41862 0.32538 0.9478 0.0
C960 C 0.41433 0.34113 0.97147 0.0
C961 C 0.37857 0.29671 0.95603 0.0
C962 C 0.40146 0.30322 0.94385 0.0
C963 C 0.37382 0.31347 0.97459 0.0
C964 C 0.39188 0.33563 0.98383 0.0
H965 H 0.38475 0.22924 0.91699 0.0
H966 H 0.35397 0.23915 0.93613 0.0
H967 H 0.34369 0.2683 0.96023 0.0
O968 O 0.45155 0.33428 1.00718 0.0
O969 O 0.43081 0.31537 0.85066 0.0
O970 O 0.43552 0.34635 0.80506 0.0
O971 O 0.47384 0.32328 0.97341 0.0
O972 O 0.46001 0.3672 0.92016 0.0
O973 O 0.45058 0.37133 0.83281 0.0
O974 O 0.45669 0.33712 0.71284 0.0
O975 O 0.49789 0.36429 0.83479 0.0
O976 O 0.48544 0.3678 0.91697 0.0
O977 O 0.47123 0.37331 0.70223 0.0
O978 O 0.46596 0.32433 0.78718 0.0
O979 O 0.47642 0.32335 0.87534 0.0
C980 C 0.42293 0.32459 0.81526 0.0
C981 C 0.45914 0.3105 0.06253 0.0
C982 C 0.45272 0.30327 0.1596 0.0
C983 C 0.45008 0.28146 0.15158 0.0
C984 C 0.4565 0.28868 0.05538 0.0
C985 C 0.45182 0.27421 0.09974 0.0
C986 C 0.45702 0.31761 0.11469 0.0
C987 C 0.4523 0.37645 0.88557 0.0
C988 C 0.46554 0.32687 0.01755 0.0
C989 C 0.36727 0.25698 0.93806 0.0
C990 C 0.36142 0.2736 0.95162 0.0
C991 C 0.50196 0.37553 0.88031 0.0
C992 C 0.44408 0.3497 0.63771 0.0
C993 C 0.43184 0.34156 0.54327 0.0
C994 C 0.414 0.34602 0.55518 0.0
C995 C 0.42658 0.35456 0.64837 0.0
C996 C 0.44654 0.34304 0.58548 0.0
C997 C 0.41136 0.35233 0.60741 0.0
C998 C 0.47219 0.3148 0.82595 0.0
C999 C 0.46136 0.3535 0.67863 0.0
H1000 H 0.44656 0.26999 0.18543 0.0
H1001 H 0.45838 0.2829 0.01592 0.0
H1002 H 0.44979 0.25739 0.09401 0.0
H1003 H 0.45941 0.33461 0.12054 0.0
H1004 H 0.40248 0.34537 0.52387 0.0
H1005 H 0.42502 0.36052 0.68792 0.0
H1006 H 0.46024 0.33943 0.5777 0.0
H1007 H 0.39782 0.35606 0.61582 0.0
Tb1008 Tb 0.37028 0.91179 0.25283 0.0
C1009 C 0.29962 0.90942 0.10502 0.0
N1010 N 0.30393 0.89232 0.11732 0.0
C1011 C 0.26384 0.86654 0.13135 0.0
C1012 C 0.27736 0.90616 0.109 0.0
C1013 C 0.28629 0.87071 0.12679 0.0
C1014 C 0.25942 0.88448 0.12359 0.0
C1015 C 0.31373 0.94769 0.07065 0.0
C1016 C 0.31764 0.9299 0.08679 0.0
C1017 C 0.29186 0.94512 0.07743 0.0
C1018 C 0.27369 0.92437 0.0966 0.0
Tb1019 Tb 0.34112 0.90079 0.11078 0.0
N1020 N 0.33841 0.9315 0.08002 0.0
C1021 C 0.33153 0.9669 0.04534 0.0
C1022 C 0.35482 0.94898 0.04978 0.0
C1023 C 0.3519 0.96719 0.0333 0.0
H1024 H 0.28951 0.8567 0.13019 0.0
H1025 H 0.36519 0.98121 1.0104 0.0
H1026 H 0.4143 0.96638 0.2419 0.0
H1027 H 0.36893 0.83452 0.3123 0.0
H1028 H 0.36998 0.94869 0.03706 0.0
H1029 H 0.32923 0.98091 0.03206 0.0
H1030 H 0.35201 0.85853 0.28906 0.0
H1031 H 0.24996 0.84945 0.14015 0.0
H1032 H 0.2886 0.95872 0.06596 0.0
H1033 H 0.25675 0.92234 0.09996 0.0
H1034 H 0.45603 0.98555 0.2361 0.0
H1035 H 0.24201 0.8812 0.12687 0.0
H1036 H 0.41099 0.85104 0.30934 0.0
N1037 N 0.40963 0.93266 0.24844 0.0
C1038 C 0.42042 0.92056 0.25853 0.0
C1039 C 0.44621 0.96718 0.24143 0.0
C1040 C 0.44452 0.93122 0.25866 0.0
C1041 C 0.42229 0.95598 0.24311 0.0
C1042 C 0.45739 0.9547 0.24843 0.0
N1043 N 0.3841 0.88785 0.27033 0.0
C1044 C 0.37034 0.86573 0.28676 0.0
C1045 C 0.41766 0.8846 0.28467 0.0
C1046 C 0.40724 0.89755 0.27119 0.0
C1047 C 0.40364 0.86157 0.29879 0.0
C1048 C 0.37988 0.85216 0.30031 0.0
H1049 H 0.47594 0.9635 0.24794 0.0
H1050 H 0.47348 0.92615 0.27084 0.0
H1051 H 0.45 0.88535 0.29358 0.0
O1052 O 0.3519 0.90022 0.32585 0.0
O1053 O 0.37418 0.88953 0.19357 0.0
O1054 O 0.37696 0.90594 0.11226 0.0
O1055 O 0.3864 0.92832 0.32527 0.0
O1056 O 0.33446 0.88104 0.24741 0.0
O1057 O 0.33211 0.86995 0.15836 0.0
O1058 O 0.33529 0.90083 0.02724 0.0
O1059 O 0.32376 0.90568 0.18453 0.0
O1060 O 0.35345 0.93142 0.23617 0.0
O1061 O 0.33216 0.87098 0.06556 0.0
O1062 O 0.37598 0.92982 0.11458 0.0
O1063 O 0.37912 0.94319 0.20155 0.0
C1064 C 0.38505 0.89695 0.14757 0.0
C1065 C 0.36288 0.92697 0.39723 0.0
C1066 C 0.35587 0.92998 0.49302 0.0
C1067 C 0.35322 0.9489 0.48092 0.0
C1068 C 0.36075 0.94617 0.38607 0.0
C1069 C 0.35563 0.95688 0.42777 0.0
C1070 C 0.36036 0.91892 0.45046 0.0
C1071 C 0.32426 0.86552 0.20829 0.0
C1072 C 0.36865 0.91548 0.35485 0.0
C1073 C 0.45502 0.91826 0.27058 0.0
C1074 C 0.44164 0.89504 0.28378 0.0
C1075 C 0.33185 0.92167 0.22282 0.0
C1076 C 0.34794 0.87996 0.9769 0.0
C1077 C 0.36094 0.88696 0.88276 0.0
C1078 C 0.37769 0.88116 0.89591 0.0
C1079 C 0.36498 0.87448 0.98908 0.0
C1080 C 0.34598 0.88615 0.92366 0.0
C1081 C 0.37966 0.87499 0.94865 0.0
C1082 C 0.38422 0.94689 0.14897 0.0
C1083 C 0.33315 0.88088 0.01969 0.0
H1084 H 0.34995 0.95796 0.51268 0.0
H1085 H 0.36292 0.95276 0.34525 0.0
H1086 H 0.3538 0.97159 0.41899 0.0
H1087 H 0.36211 0.90409 0.45871 0.0
H1088 H 0.38922 0.88122 0.8653 0.0
H1089 H 0.36713 0.87002 0.02987 0.0
H1090 H 0.33323 0.89095 0.91455 0.0
H1091 H 0.39271 0.8707 0.95828 0.0
Tb1092 Tb 0.11621 0.4617 0.25313 0.0
C1093 C 0.15042 0.41289 0.10684 0.0
N1094 N 0.16101 0.43586 0.11528 0.0
C1095 C 0.19746 0.43764 0.11826 0.0
C1096 C 0.16289 0.40123 0.1065 0.0
C1097 C 0.18437 0.4484 0.11812 0.0
C1098 C 0.18666 0.41389 0.11334 0.0
C1099 C 0.11537 0.37724 0.08875 0.0
C1100 C 0.12698 0.40107 0.0978 0.0
C1101 C 0.12761 0.36546 0.0899 0.0
C1102 C 0.15132 0.37743 0.09867 0.0
Tb1103 Tb 0.13765 0.4515 0.11631 0.0
N1104 N 0.11559 0.41301 0.09825 0.0
C1105 C 0.09186 0.36603 0.07807 0.0
C1106 C 0.0931 0.40237 0.08337 0.0
C1107 C 0.08078 0.37874 0.07439 0.0
H1108 H 0.19305 0.46684 0.11969 0.0
H1109 H 0.06282 0.37042 0.06359 0.0
H1110 H 0.06372 0.4533 0.23857 0.0
H1111 H 0.19745 0.53846 0.29928 0.0
H1112 H 0.08469 0.41195 0.07604 0.0
H1113 H 0.08229 0.34774 0.07087 0.0
H1114 H 0.17257 0.49776 0.2842 0.0
H1115 H 0.21588 0.44776 0.12213 0.0
H1116 H 0.11895 0.34713 0.08331 0.0
H1117 H 0.16059 0.36817 0.09863 0.0
H1118 H 0.04439 0.47597 0.24768 0.0
H1119 H 0.19684 0.40557 0.11359 0.0
H1120 H 0.18116 0.564 0.3049 0.0
N1121 N 0.09668 0.48111 0.25892 0.0
C1122 C 0.10922 0.50353 0.27303 0.0
C1123 C 0.06263 0.48392 0.25488 0.0
C1124 C 0.09882 0.51704 0.27878 0.0
C1125 C 0.07367 0.47119 0.24933 0.0
C1126 C 0.07522 0.50692 0.26996 0.0
N1127 N 0.14228 0.49967 0.27064 0.0
C1128 C 0.16508 0.50841 0.28119 0.0
C1129 C 0.14645 0.53673 0.29031 0.0
C1130 C 0.13278 0.51321 0.27831 0.0
C1131 C 0.17006 0.54601 0.29589 0.0
C1132 C 0.17935 0.53169 0.29217 0.0
H1133 H 0.06664 0.51678 0.27392 0.0
H1134 H 0.10446 0.55063 0.29818 0.0
H1135 H 0.14631 0.56824 0.30665 0.0
O1136 O 0.126 0.45778 0.33186 0.0
O1137 O 0.11751 0.48408 0.18788 0.0
O1138 O 0.14634 0.48823 0.13164 0.0
O1139 O 0.09241 0.45227 0.31638 0.0
O1140 O 0.1488 0.45918 0.25265 0.0
O1141 O 0.16451 0.47464 0.17115 0.0
O1142 O 0.12869 0.44877 0.03202 0.0
O1143 O 0.12912 0.42558 0.18512 0.0
O1144 O 0.0997 0.42637 0.22753 0.0
O1145 O 0.16384 0.46779 0.06039 0.0
O1146 O 0.10546 0.45219 0.11093 0.0
O1147 O 0.08785 0.43964 0.19437 0.0
C1148 C 0.13386 0.49642 0.15379 0.0
C1149 C 0.09661 0.43424 0.39359 0.0
C1150 C 0.09452 0.42335 0.48844 0.0
C1151 C 0.07637 0.40142 0.47565 0.0
C1152 C 0.07798 0.41255 0.38194 0.0
C1153 C 0.06808 0.39617 0.42273 0.0
C1154 C 0.1048 0.43957 0.44685 0.0
C1155 C 0.16665 0.46765 0.21887 0.0
C1156 C 0.10626 0.45245 0.35272 0.0
C1157 C 0.11233 0.54026 0.29197 0.0
C1158 C 0.1361 0.55018 0.2971 0.0
C1159 C 0.11132 0.41605 0.21891 0.0
C1160 C 0.15977 0.46711 0.96394 0.0
C1161 C 0.15567 0.46753 0.86586 0.0
C1162 C 0.17967 0.48011 0.86103 0.0
C1163 C 0.18373 0.47976 0.95768 0.0
C1164 C 0.14569 0.46081 0.91767 0.0
C1165 C 0.19353 0.48615 0.90662 0.0
C1166 C 0.08684 0.44266 0.14113 0.0
C1167 C 0.15027 0.46072 0.01913 0.0
H1168 H 0.06799 0.38864 0.50692 0.0
H1169 H 0.07069 0.40854 0.34177 0.0
H1170 H 0.05352 0.37955 0.41357 0.0
H1171 H 0.11882 0.45658 0.45613 0.0
H1172 H 0.18778 0.48505 0.82169 0.0
H1173 H 0.19504 0.48474 0.99234 0.0
H1174 H 0.12722 0.45104 0.92188 0.0
H1175 H 0.21198 0.49577 0.90235 0.0
Tb1176 Tb 0.56885 0.66405 0.24512 0.0
C1177 C 0.63009 0.73741 0.09149 0.0
N1178 N 0.60747 0.72946 0.10016 0.0
C1179 C 0.61459 0.76797 0.10483 0.0
C1180 C 0.64611 0.76104 0.09235 0.0
C1181 C 0.59945 0.74436 0.1035 0.0
C1182 C 0.6381 0.77637 0.10019 0.0
C1183 C 0.66021 0.7291 0.07049 0.0
C1184 C 0.63697 0.72164 0.08093 0.0
C1185 C 0.67647 0.75256 0.07351 0.0
C1186 C 0.66943 0.76851 0.08435 0.0
Tb1187 Tb 0.58411 0.6906 0.10118 0.0
N1188 N 0.62065 0.69909 0.0785 0.0
C1189 C 0.66624 0.71283 0.05551 0.0
C1190 C 0.62621 0.68367 0.05827 0.0
C1191 C 0.64907 0.6901 0.04806 0.0
H1192 H 0.58134 0.7381 0.10348 0.0
H1193 H 0.65336 0.67761 0.0332 0.0
H1194 H 0.57648 0.61822 0.23992 0.0
H1195 H 0.49775 0.67257 0.31427 0.0
H1196 H 0.61307 0.66671 0.04745 0.0
H1197 H 0.6839 0.71781 0.04706 0.0
H1198 H 0.5373 0.68649 0.28326 0.0
H1199 H 0.60806 0.77962 0.10885 0.0
H1200 H 0.69445 0.7586 0.06612 0.0
H1201 H 0.68206 0.78659 0.08534 0.0
H1202 H 0.55233 0.57665 0.24634 0.0
H1203 H 0.64982 0.79468 0.101 0.0
H1204 H 0.47079 0.63097 0.32272 0.0
N1205 N 0.54884 0.62488 0.25064 0.0
C1206 C 0.52652 0.61567 0.26574 0.0
C1207 C 0.54477 0.58741 0.25107 0.0
C1208 C 0.51241 0.59191 0.27331 0.0
C1209 C 0.55833 0.61115 0.24587 0.0
C1210 C 0.52165 0.5777 0.26433 0.0
N1211 N 0.53228 0.65311 0.26987 0.0
C1212 C 0.52552 0.66832 0.28507 0.0
C1213 C 0.49555 0.62159 0.29582 0.0
C1214 C 0.51814 0.63028 0.27698 0.0
C1215 C 0.48804 0.637 0.30823 0.0
C1216 C 0.50318 0.66049 0.30332 0.0
H1217 H 0.51133 0.55934 0.26946 0.0
H1218 H 0.47911 0.5652 0.29978 0.0
H1219 H 0.46397 0.59087 0.31713 0.0
O1220 O 0.58322 0.68657 0.31159 0.0
O1221 O 0.54083 0.65847 0.19023 0.0
O1222 O 0.55314 0.65503 0.10781 0.0
O1223 O 0.569 0.65033 0.32101 0.0
O1224 O 0.57447 0.69995 0.2364 0.0
O1225 O 0.56241 0.69977 0.14955 0.0
O1226 O 0.58772 0.68862 0.01721 0.0
O1227 O 0.6085 0.70775 0.17236 0.0
O1228 O 0.60358 0.67676 0.21785 0.0
O1229 O 0.56409 0.69827 0.04941 0.0
O1230 O 0.57914 0.65599 0.1036 0.0
O1231 O 0.58807 0.65151 0.19131 0.0
C1232 C 0.5367 0.64712 0.14478 0.0
C1233 C 0.59609 0.67371 0.38587 0.0
C1234 C 0.60822 0.6815 0.48038 0.0
C1235 C 0.62592 0.67686 0.4685 0.0
C1236 C 0.61338 0.66853 0.37525 0.0
C1237 C 0.6285 0.67053 0.41624 0.0
C1238 C 0.59367 0.68033 0.43814 0.0
C1239 C 0.56751 0.70903 0.1982 0.0
C1240 C 0.57879 0.67002 0.34514 0.0
C1241 C 0.48986 0.5832 0.29173 0.0
C1242 C 0.48137 0.59792 0.30253 0.0
C1243 C 0.61637 0.69846 0.20752 0.0
C1244 C 0.57895 0.7113 0.96059 0.0
C1245 C 0.58551 0.71852 0.86357 0.0
C1246 C 0.58689 0.73982 0.87102 0.0
C1247 C 0.58013 0.73253 0.96703 0.0
C1248 C 0.58185 0.70448 0.90877 0.0
C1249 C 0.58434 0.74678 0.92249 0.0
C1250 C 0.5866 0.64654 0.13837 0.0
C1251 C 0.57306 0.69511 1.00584 0.0
H1252 H 0.63733 0.67733 0.49989 0.0
H1253 H 0.61482 0.66247 0.33574 0.0
H1254 H 0.64189 0.66657 0.40785 0.0
H1255 H 0.58007 0.68408 0.44602 0.0
H1256 H 0.58995 0.75108 0.83697 0.0
H1257 H 0.57738 0.73798 1.00601 0.0
H1258 H 0.58043 0.68786 0.90334 0.0
H1259 H 0.58527 0.76315 0.92774 0.0
Tb1260 Tb 0.36483 0.46233 0.24489 0.0
C1261 C 0.28526 0.43718 0.08805 0.0
N1262 N 0.29549 0.42464 0.09873 0.0
C1263 C 0.25919 0.38996 0.09383 0.0
C1264 C 0.26144 0.42648 0.07976 0.0
C1265 C 0.28287 0.40132 0.10202 0.0
C1266 C 0.24843 0.40257 0.0824 0.0
C1267 C 0.28836 0.47445 0.08091 0.0
C1268 C 0.29864 0.46091 0.08886 0.0
C1269 C 0.26469 0.46385 0.07132 0.0
C1270 C 0.25133 0.43993 0.07025 0.0
Tb1271 Tb 0.33424 0.44487 0.10868 0.0
N1272 N 0.32149 0.47061 0.09964 0.0
C1273 C 0.30215 0.49826 0.08275 0.0
C1274 C 0.33513 0.49388 0.09791 0.0
C1275 C 0.32566 0.50799 0.09073 0.0
H1276 H 0.29111 0.39141 0.1098 0.0
H1277 H 0.33662 0.52641 0.0903 0.0
H1278 H 0.39956 0.51884 0.25872 0.0
H1279 H 0.38047 0.39149 0.26608 0.0
H1280 H 0.35334 0.50198 0.09998 0.0
H1281 H 0.29491 0.50925 0.07703 0.0
H1282 H 0.35672 0.40951 0.25767 0.0
H1283 H 0.24926 0.37148 0.09613 0.0
H1284 H 0.25654 0.47399 0.06479 0.0
H1285 H 0.23316 0.43198 0.06241 0.0
H1286 H 0.4411 0.54551 0.26307 0.0
H1287 H 0.23005 0.39372 0.07634 0.0
H1288 H 0.42268 0.4156 0.27015 0.0
N1289 N 0.40279 0.48905 0.25445 0.0
C1290 C 0.41721 0.48051 0.2588 0.0
C1291 C 0.43467 0.52728 0.26176 0.0
C1292 C 0.44107 0.49513 0.26287 0.0
C1293 C 0.4111 0.51209 0.2585 0.0
C1294 C 0.44974 0.51875 0.26294 0.0
N1295 N 0.38493 0.44341 0.25389 0.0
C1296 C 0.37497 0.42019 0.25839 0.0
C1297 C 0.42232 0.44744 0.2648 0.0
C1298 C 0.408 0.45697 0.25976 0.0
C1299 C 0.41226 0.4236 0.26627 0.0
C1300 C 0.38846 0.40993 0.26373 0.0
H1301 H 0.46801 0.53039 0.26466 0.0
H1302 H 0.4739 0.49678 0.27002 0.0
H1303 H 0.45746 0.45499 0.27184 0.0
O1304 O 0.35556 0.44557 0.31968 0.0
O1305 O 0.38184 0.4531 0.17629 0.0
O1306 O 0.35241 0.42665 0.12446 0.0
O1307 O 0.37189 0.48222 0.31551 0.0
O1308 O 0.33172 0.43084 0.24603 0.0
O1309 O 0.32695 0.41457 0.16177 0.0
O1310 O 0.34583 0.45961 0.03214 0.0
O1311 O 0.31268 0.44467 0.17508 0.0
O1312 O 0.33788 0.47285 0.23156 0.0
O1313 O 0.32296 0.42349 0.04023 0.0
O1314 O 0.37026 0.4762 0.11234 0.0
O1315 O 0.37019 0.49091 0.19477 0.0
C1316 C 0.37383 0.43654 0.13902 0.0
C1317 C 0.34524 0.46347 0.38521 0.0
C1318 C 0.33224 0.45933 0.47818 0.0
C1319 C 0.31192 0.45822 0.46048 0.0
C1320 C 0.32489 0.46232 0.36784 0.0
C1321 C 0.30835 0.45983 0.40545 0.0
C1322 C 0.34888 0.46206 0.44026 0.0
C1323 C 0.3234 0.41267 0.21517 0.0
C1324 C 0.36207 0.46436 0.34662 0.0
C1325 C 0.4555 0.48576 0.26706 0.0
C1326 C 0.44614 0.46197 0.26819 0.0
C1327 C 0.31677 0.46033 0.21136 0.0
C1328 C 0.34741 0.43617 0.96478 0.0
C1329 C 0.35691 0.43735 0.86948 0.0
C1330 C 0.37111 0.42831 0.88249 0.0
C1331 C 0.36166 0.42734 0.97707 0.0
C1332 C 0.34532 0.44149 0.9113 0.0
C1333 C 0.3736 0.4236 0.93611 0.0
C1334 C 0.37991 0.49344 0.14761 0.0
C1335 C 0.33468 0.44018 1.00695 0.0
H1336 H 0.29889 0.4562 0.48919 0.0
H1337 H 0.3216 0.46298 0.32544 0.0
H1338 H 0.29266 0.45892 0.39187 0.0
H1339 H 0.36438 0.46237 0.45344 0.0
H1340 H 0.38002 0.42453 0.85133 0.0
H1341 H 0.36332 0.42332 0.01818 0.0
H1342 H 0.33467 0.44892 0.90253 0.0
H1343 H 0.38465 0.41688 0.94575 0.0
Tb1344 Tb 0.57357 0.912 0.2516 0.0
C1345 C 0.59464 0.85572 0.0938 0.0
N1346 N 0.60659 0.87861 0.10387 0.0
C1347 C 0.64169 0.87756 0.10448 0.0
C1348 C 0.60569 0.84271 0.0908 0.0
C1349 C 0.63002 0.88981 0.10581 0.0
C1350 C 0.62943 0.85384 0.09793 0.0
C1351 C 0.55863 0.82227 0.06861 0.0
C1352 C 0.57143 0.84556 0.08305 0.0
C1353 C 0.56939 0.80904 0.06751 0.0
C1354 C 0.59285 0.81923 0.07878 0.0
Tb1355 Tb 0.58497 0.8962 0.10761 0.0
N1356 N 0.56145 0.8587 0.08592 0.0
C1357 C 0.53549 0.81308 0.05525 0.0
C1358 C 0.53928 0.85026 0.06968 0.0
C1359 C 0.52586 0.82722 0.0551 0.0
H1360 H 0.64003 0.90826 0.10724 0.0
H1361 H 0.50814 0.82041 0.04353 0.0
H1362 H 0.52449 0.91158 0.24555 0.0
H1363 H 0.65595 0.97853 0.32668 0.0
H1364 H 0.5319 0.86124 0.06882 0.0
H1365 H 0.52506 0.79524 0.04398 0.0
H1366 H 0.62555 0.9388 0.31007 0.0
H1367 H 0.66018 0.88649 0.10735 0.0
H1368 H 0.55981 0.79102 0.05723 0.0
H1369 H 0.60104 0.80898 0.07651 0.0
H1370 H 0.51139 0.93963 0.23848 0.0
H1371 H 0.63855 0.84444 0.09612 0.0
H1372 H 0.6484 1.01032 0.31057 0.0
N1373 N 0.55962 0.93665 0.25108 0.0
C1374 C 0.57492 0.95906 0.26026 0.0
C1375 C 0.52939 0.94541 0.24381 0.0
C1376 C 0.56828 0.97579 0.25851 0.0
C1377 C 0.5369 0.92952 0.24616 0.0
C1378 C 0.54521 0.96872 0.24909 0.0
N1379 N 0.60241 0.94797 0.27575 0.0
C1380 C 0.62271 0.95251 0.29841 0.0
C1381 C 0.61357 0.98793 0.2838 0.0
C1382 C 0.59721 0.96498 0.27224 0.0
C1383 C 0.63532 0.99293 0.30112 0.0
C1384 C 0.6397 0.97504 0.30986 0.0
H1385 H 0.53935 0.981 0.24752 0.0
H1386 H 0.58008 1.01202 0.26562 0.0
H1387 H 0.61979 0.02268 0.28804 0.0
O1388 O 0.57851 0.91518 0.33574 0.0
O1389 O 0.57998 0.93566 0.17947 0.0
O1390 O 0.60643 0.9313 0.13346 0.0
O1391 O 0.54527 0.89231 0.30233 0.0
O1392 O 0.60299 0.90665 0.24824 0.0
O1393 O 0.61659 0.9164 0.16104 0.0
O1394 O 0.57583 0.90982 0.04157 0.0
O1395 O 0.56221 0.86872 0.16332 0.0
O1396 O 0.57823 0.88114 0.24536 0.0
O1397 O 0.59786 0.89573 0.03069 0.0
O1398 O 0.55396 0.90069 0.11597 0.0
O1399 O 0.54252 0.8901 0.20405 0.0
C1400 C 0.59708 0.94372 0.14396 0.0
C1401 C 0.54693 0.90694 0.39142 0.0
C1402 C 0.54595 0.91321 0.48853 0.0
C1403 C 0.52638 0.9152 0.48071 0.0
C1404 C 0.52734 0.90891 0.38449 0.0
C1405 C 0.51727 0.91321 0.42896 0.0
C1406 C 0.55628 0.90933 0.4435 0.0
C1407 C 0.62005 0.91466 0.21374 0.0
C1408 C 0.55718 0.90086 0.34634 0.0
C1409 C 0.58476 0.99885 0.26726 0.0
C1410 C 0.60739 1.00491 0.27987 0.0
C1411 C 0.56944 0.86462 0.20868 0.0
C1412 C 0.60106 0.92275 0.96643 0.0
C1413 C 0.60511 0.93505 0.87211 0.0
C1414 C 0.62725 0.95318 0.88419 0.0
C1415 C 0.62327 0.94055 0.97729 0.0
C1416 C 0.59198 0.92017 0.91417 0.0
C1417 C 0.63615 0.95593 0.93647 0.0
C1418 C 0.53818 0.89444 0.1548 0.0
C1419 C 0.58769 0.90537 1.00724 0.0
H1420 H 0.5182 0.9184 0.51466 0.0
H1421 H 0.51957 0.90677 0.34512 0.0
H1422 H 0.50216 0.91471 0.42339 0.0
H1423 H 0.57119 0.90742 0.44921 0.0
H1424 H 0.63804 0.96485 0.85299 0.0
H1425 H 0.63077 0.94222 0.01689 0.0
H1426 H 0.57478 0.90626 0.90625 0.0
H1427 H 0.65332 0.9697 0.94502 0.0
Tb1428 Tb 0.12325 0.66793 0.26127 0.0
C1429 C 0.1768 0.74843 0.10744 0.0
N1430 N 0.154 0.73696 0.11877 0.0
C1431 C 0.15446 0.77274 0.12482 0.0
C1432 C 0.18952 0.77255 0.10668 0.0
C1433 C 0.14252 0.7488 0.12406 0.0
C1434 C 0.17814 0.78468 0.11714 0.0
C1435 C 0.21031 0.74695 0.07759 0.0
C1436 C 0.18713 0.7359 0.09332 0.0
C1437 C 0.22329 0.77096 0.07878 0.0
C1438 C 0.21296 0.78374 0.09365 0.0
Tb1439 Tb 0.13692 0.69772 0.11951 0.0
N1440 N 0.17424 0.71274 0.09432 0.0
C1441 C 0.21962 0.7335 0.06081 0.0
C1442 C 0.18278 0.69954 0.0749 0.0
C1443 C 0.2057 0.7097 0.05878 0.0
H1444 H 0.12407 0.74003 0.12668 0.0
H1445 H 0.2126 0.69918 0.04467 0.0
H1446 H 0.13788 0.62767 0.2627 0.0
H1447 H 0.04193 0.6638 0.29778 0.0
H1448 H 0.17198 0.68116 0.07273 0.0
H1449 H 0.23739 0.74133 0.04844 0.0
H1450 H 0.08363 0.6831 0.28739 0.0
H1451 H 0.14531 0.78196 0.13031 0.0
H1452 H 0.24124 0.77981 0.06763 0.0
H1453 H 0.22308 0.80226 0.09349 0.0
H1454 H 0.11833 0.58586 0.25971 0.0
H1455 H 0.1873 0.80323 0.11705 0.0
H1456 H 0.01903 0.62152 0.29622 0.0
N1457 N 0.10716 0.62916 0.26351 0.0
C1458 C 0.08409 0.61718 0.27073 0.0
C1459 C 0.10833 0.59429 0.26253 0.0
C1460 C 0.07209 0.59306 0.27205 0.0
C1461 C 0.11943 0.61813 0.26233 0.0
C1462 C 0.08451 0.58162 0.26691 0.0
N1463 N 0.0847 0.65252 0.27537 0.0
C1464 C 0.07404 0.66487 0.28435 0.0
C1465 C 0.04852 0.61733 0.28424 0.0
C1466 C 0.07248 0.6292 0.27715 0.0
C1467 C 0.03743 0.62999 0.29075 0.0
C1468 C 0.05028 0.65385 0.29138 0.0
H1469 H 0.07593 0.5631 0.26739 0.0
H1470 H 0.03868 0.56264 0.27965 0.0
H1471 H 1.01803 0.58387 0.29002 0.0
O1472 O 0.11628 0.66974 0.34355 0.0
O1473 O 0.09878 0.65154 0.19031 0.0
O1474 O 0.10182 0.68241 0.1466 0.0
O1475 O 0.14299 0.66282 0.31945 0.0
O1476 O 0.12618 0.70149 0.26325 0.0
O1477 O 0.11719 0.7081 0.17749 0.0
O1478 O 0.125 0.67587 0.05188 0.0
O1479 O 0.16526 0.70251 0.17162 0.0
O1480 O 0.15359 0.70372 0.25651 0.0
O1481 O 0.13417 0.71114 0.04501 0.0
O1482 O 0.13331 0.66249 0.12493 0.0
O1483 O 0.14637 0.66178 0.21034 0.0
C1484 C 0.09029 0.66053 0.15597 0.0
C1485 C 0.12618 0.64978 0.40673 0.0
C1486 C 0.11962 0.64402 0.50404 0.0
C1487 C 0.11927 0.62312 0.49943 0.0
C1488 C 0.12606 0.62895 0.40319 0.0
C1489 C 0.12229 0.61558 0.44919 0.0
C1490 C 0.12268 0.65711 0.45734 0.0
C1491 C 0.11885 0.71183 0.23099 0.0
C1492 C 0.1319 0.66519 0.35986 0.0
C1493 C 0.04821 0.58118 0.27874 0.0
C1494 C 0.03645 0.59328 0.28472 0.0
C1495 C 0.1695 0.71269 0.21856 0.0
C1496 C 0.10782 0.68546 0.98141 0.0
C1497 C 0.09443 0.67683 0.88791 0.0
C1498 C 0.07366 0.67523 0.90428 0.0
C1499 C 0.08709 0.68382 0.99699 0.0
C1500 C 0.1113 0.68167 0.92737 0.0
C1501 C 0.07001 0.67853 0.95847 0.0
C1502 C 0.1413 0.65346 0.16084 0.0
C1503 C 0.12657 0.69181 0.01981 0.0
H1504 H 0.11676 0.61267 0.53483 0.0
H1505 H 0.12941 0.62319 0.36546 0.0
H1506 H 0.1222 0.59954 0.44607 0.0
H1507 H 0.12328 0.67343 0.46075 0.0
H1508 H 0.06033 0.67182 0.87521 0.0
H1509 H 0.08419 0.6867 0.03863 0.0
H1510 H 0.12727 0.68255 0.91628 0.0
H1511 H 0.05397 0.67724 0.97052 0.0
H1512 H 0.06964 0.3869 0.26307 0.0
H1513 H 0.13791 0.39708 0.25478 0.0
H1514 H 0.05931 0.35745 0.33157 0.0
H1515 H 0.12724 0.36669 0.32307 0.0
H1516 H 0.08599 0.2917 0.40191 0.0
H1517 H 0.10174 0.3243 0.34015 0.0
H1518 H 0.06696 0.35283 0.4291 0.0
H1519 H 0.05141 0.32017 0.49162 0.0
C1520 C 0.08258 0.38287 0.27576 0.0
C1521 C 0.10488 0.39506 0.25362 0.0
C1522 C 0.0766 0.36589 0.31569 0.0
C1523 C 0.09247 0.3598 0.33481 0.0
C1524 C 0.11448 0.37095 0.31036 0.0
C1525 C 0.12063 0.38837 0.27066 0.0
C1526 C 0.08243 0.30539 0.40988 0.0
C1527 C 0.06765 0.30323 0.45294 0.0
C1528 C 0.09138 0.32414 0.3738 0.0
C1529 C 0.08557 0.34141 0.37841 0.0
C1530 C 0.07179 0.33994 0.42334 0.0
C1531 C 0.06316 0.32133 0.46023 0.0
H1532 H 0.74215 0.7938 0.39132 0.0
H1533 H 0.70924 0.73272 0.48843 0.0
H1534 H 0.71031 0.77723 0.32753 0.0
H1535 H 0.67705 0.71584 0.42401 0.0
H1536 H 0.64036 0.68228 0.2623 0.0
H1537 H 0.66974 0.70062 0.33138 0.0
H1538 H 0.66994 0.76389 0.30602 0.0
H1539 H 0.63962 0.74504 0.23718 0.0
C1540 C 0.72777 0.77697 0.4 0.0
C1541 C 0.72839 0.76487 0.44606 0.0
C1542 C 0.70936 0.76737 0.36295 0.0
C1543 C 0.6908 0.74496 0.36951 0.0
C1544 C 0.69098 0.73305 0.41668 0.0
C1545 C 0.70933 0.74288 0.45447 0.0
C1546 C 0.64642 0.7001 0.27154 0.0
C1547 C 0.63698 0.71186 0.24424 0.0
C1548 C 0.66338 0.71067 0.31175 0.0
C1549 C 0.67224 0.73379 0.32607 0.0
C1550 C 0.66364 0.74602 0.29695 0.0
C1551 C 0.64624 0.73524 0.25695 0.0
H1552 H 0.29039 0.97471 0.50213 0.0
H1553 H 0.23725 0.95844 0.38458 0.0
H1554 H 0.3075 0.95826 0.44124 0.0
H1555 H 0.25445 0.9429 0.324 0.0
H1556 H 0.30814 0.94456 0.20078 0.0
H1557 H 0.28858 0.95685 0.26521 0.0
H1558 H 0.30259 0.92269 0.39418 0.0
H1559 H 0.32093 0.90962 0.3293 0.0
C1560 C 0.2819 0.96705 0.46432 0.0
C1561 C 0.26217 0.96789 0.44913 0.0
C1562 C 0.29191 0.95784 0.42874 0.0
C1563 C 0.28273 0.94949 0.37651 0.0
C1564 C 0.26248 0.94947 0.36286 0.0
C1565 C 0.25237 0.9582 0.39839 0.0
C1566 C 0.30656 0.93918 0.24256 0.0
C1567 C 0.31638 0.92607 0.25941 0.0
C1568 C 0.29546 0.94642 0.27997 0.0
C1569 C 0.2941 0.94116 0.3359 0.0
C1570 C 0.3035 0.9276 0.35217 0.0
C1571 C 0.31411 0.92002 0.31462 0.0
H1572 H 0.30625 0.08065 0.58283 0.0
H1573 H 0.30912 0.01884 0.60407 0.0
H1574 H 0.33649 0.09972 0.6515 0.0
H1575 H 0.33868 0.03743 0.67273 0.0
H1576 H 0.38026 0.06909 0.82598 0.0
H1577 H 0.34716 0.05183 0.76435 0.0
H1578 H 0.37631 0.11475 0.67348 0.0
H1579 H 0.40891 0.13175 0.73498 0.0
C1580 C 0.31333 0.0711 0.60177 0.0
C1581 C 0.30467 0.04791 0.58801 0.0
C1582 C 0.33073 0.08202 0.64165 0.0
C1583 C 0.34005 0.07016 0.66954 0.0
C1584 C 0.33178 0.04722 0.65418 0.0
C1585 C 0.31471 0.03648 0.61417 0.0
C1586 C 0.37914 0.07953 0.79425 0.0
C1587 C 0.39735 0.10207 0.78649 0.0
C1588 C 0.36028 0.06947 0.75785 0.0
C1589 C 0.35881 0.08162 0.71259 0.0
C1590 C 0.37635 0.10462 0.70736 0.0
C1591 C 0.39517 0.11454 0.74324 0.0
H1592 H 0.90113 0.28436 0.72465 0.0
H1593 H 0.96227 0.31626 0.82178 0.0
H1594 H 0.91877 0.26925 0.66361 0.0
H1595 H 0.98015 0.30092 0.76064 0.0
H1596 H 1.01559 0.29698 0.60372 0.0
H1597 H 0.99621 0.30757 0.67105 0.0
H1598 H 0.93344 0.24429 0.6413 0.0
H1599 H 0.95328 0.23345 0.57394 0.0
C1600 C 0.91813 0.2875 0.73425 0.0
C1601 C 0.92997 0.30137 0.77919 0.0
C1602 C 0.92841 0.27886 0.69866 0.0
C1603 C 0.9512 0.28386 0.70585 0.0
C1604 C 0.96271 0.29678 0.75258 0.0
C1605 C 0.95227 0.30527 0.7887 0.0
C1606 C 0.99766 0.28508 0.61167 0.0
C1607 C 0.98633 0.26404 0.58348 0.0
C1608 C 0.98646 0.29121 0.65092 0.0
C1609 C 0.96313 0.27677 0.66349 0.0
C1610 C 0.9514 0.25604 0.63361 0.0
C1611 C 0.96279 0.24976 0.59447 0.0
H1612 H 0.73435 0.7213 0.60642 0.0
H1613 H 0.79915 0.72493 0.57806 0.0
H1614 H 0.72428 0.69128 0.67291 0.0
H1615 H 0.78895 0.69442 0.64536 0.0
H1616 H 0.75094 0.6229 0.73328 0.0
H1617 H 0.76521 0.65485 0.67026 0.0
H1618 H 0.73182 0.68388 0.76332 0.0
H1619 H 0.71721 0.65137 0.82632 0.0
C1620 C 0.74645 0.71549 0.61368 0.0
C1621 C 0.76773 0.72591 0.58619 0.0
C1622 C 0.74071 0.69829 0.65287 0.0
C1623 C 0.75583 0.69036 0.66635 0.0
C1624 C 0.77668 0.69987 0.63678 0.0
C1625 C 0.78255 0.71737 0.59753 0.0
C1626 C 0.7473 0.63651 0.74168 0.0
C1627 C 0.73308 0.63444 0.78592 0.0
C1628 C 0.75542 0.65493 0.70487 0.0
C1629 C 0.74953 0.67214 0.7102 0.0
C1630 C 0.73652 0.67091 0.7566 0.0
C1631 C 0.72851 0.65245 0.79388 0.0
H1632 H 0.98685 0.70834 0.53184 0.0
H1633 H 0.95662 0.73862 0.63116 0.0
H1634 H 0.97072 0.67489 0.59186 0.0
H1635 H 0.94132 0.70605 0.69199 0.0
H1636 H 0.9071 0.63883 0.79022 0.0
H1637 H 0.91751 0.66887 0.72162 0.0
H1638 H 0.9755 0.66213 0.67451 0.0
H1639 H 0.96493 0.63234 0.74093 0.0
C1640 C 0.97611 0.70758 0.56528 0.0
C1641 C 0.97289 0.72632 0.57556 0.0
C1642 C 0.96722 0.68852 0.60102 0.0
C1643 C 0.95475 0.6874 0.64851 0.0
C1644 C 0.95047 0.70562 0.65647 0.0
C1645 C 0.95929 0.72452 0.62095 0.0
C1646 C 0.92205 0.64377 0.76519 0.0
C1647 C 0.93494 0.63272 0.77188 0.0
C1648 C 0.92818 0.66119 0.72548 0.0
C1649 C 0.94743 0.66825 0.69076 0.0
C1650 C 0.96028 0.65724 0.69836 0.0
C1651 C 0.95422 0.64002 0.73765 0.0
H1652 H 0.29739 0.22741 0.63352 0.0
H1653 H 0.32754 0.28921 0.53897 0.0
H1654 H 0.32996 0.24431 0.69512 0.0
H1655 H 0.36058 0.30637 0.60076 0.0
H1656 H 0.39857 0.3403 0.76014 0.0
H1657 H 0.36899 0.32151 0.69176 0.0
H1658 H 0.36977 0.25874 0.71755 0.0
H1659 H 0.40011 0.27801 0.78601 0.0
C1660 C 0.31144 0.24439 0.62454 0.0
C1661 C 0.30971 0.25666 0.58024 0.0
C1662 C 0.33024 0.25424 0.66048 0.0
C1663 C 0.34818 0.277 0.65425 0.0
C1664 C 0.34713 0.28892 0.60802 0.0
C1665 C 0.32831 0.2789 0.57154 0.0
C1666 C 0.39267 0.3225 0.75116 0.0
C1667 C 0.40235 0.31099 0.77855 0.0
C1668 C 0.37559 0.31165 0.71129 0.0
C1669 C 0.36693 0.28852 0.69726 0.0
C1670 C 0.37586 0.27658 0.72637 0.0
C1671 C 0.3933 0.28762 0.76614 0.0
H1672 H 0.69233 0.06268 0.75635 0.0
H1673 H 0.75388 0.12752 0.78041 0.0
H1674 H 0.71145 0.05228 0.68776 0.0
H1675 H 0.77353 0.11675 0.71225 0.0
H1676 H 0.80541 0.07548 0.6301 0.0
H1677 H 0.78816 0.09073 0.69202 0.0
H1678 H 0.72678 0.06027 0.59508 0.0
H1679 H 0.74438 0.0451 0.53248 0.0
C1680 C 0.71002 0.07489 0.74688 0.0
C1681 C 0.7212 0.09627 0.77362 0.0
C1682 C 0.72105 0.06887 0.707 0.0
C1683 C 0.74409 0.08373 0.69263 0.0
C1684 C 0.75575 0.10475 0.72132 0.0
C1685 C 0.74449 0.11096 0.7609 0.0
C1686 C 0.78853 0.07271 0.62063 0.0
C1687 C 0.77663 0.05932 0.57514 0.0
C1688 C 0.77848 0.0814 0.65672 0.0
C1689 C 0.75581 0.07674 0.64972 0.0
C1690 C 0.74417 0.06418 0.60275 0.0
C1691 C 0.75446 0.05581 0.56587 0.0
H1692 H 0.63189 0.89435 0.29244 0.0
H1693 H 0.66063 0.95616 0.19813 0.0
H1694 H 0.66443 0.91194 0.35407 0.0
H1695 H 0.69363 0.97403 0.26 0.0
H1696 H 0.73159 1.00841 0.41963 0.0
H1697 H 0.70208 0.98923 0.3511 0.0
H1698 H 0.70429 0.92717 0.37644 0.0
H1699 H 0.73452 0.94683 0.44489 0.0
C1700 C 0.64564 0.91149 0.2835 0.0
C1701 C 0.64351 0.92352 0.23917 0.0
C1702 C 0.66442 0.92175 0.31948 0.0
C1703 C 0.68196 0.94471 0.31337 0.0
C1704 C 0.68051 0.95644 0.26719 0.0
C1705 C 0.66173 0.946 0.2306 0.0
C1706 C 0.72605 0.9907 0.41041 0.0
C1707 C 0.7361 0.97952 0.43769 0.0
C1708 C 0.70899 0.97962 0.37049 0.0
C1709 C 0.70072 0.95655 0.35634 0.0
C1710 C 0.71005 0.94495 0.38533 0.0
C1711 C 0.72745 0.95622 0.4251 0.0
H1712 H 0.05732 0.7901 0.38028 0.0
H1713 H 0.05923 0.74636 0.50391 0.0
H1714 H 0.07516 0.77618 0.31595 0.0
H1715 H 0.07829 0.73318 0.44045 0.0
H1716 H 0.13183 0.73085 0.331 0.0
H1717 H 0.11436 0.74631 0.39029 0.0
H1718 H 0.06856 0.7409 0.26234 0.0
H1719 H 0.08585 0.72433 0.20215 0.0
C1720 C 0.06172 0.77765 0.39412 0.0
C1721 C 0.05668 0.7695 0.44782 0.0
C1722 C 0.072 0.76956 0.35685 0.0
C1723 C 0.07823 0.7533 0.37206 0.0
C1724 C 0.07395 0.74574 0.42657 0.0
C1725 C 0.06316 0.75349 0.4635 0.0
C1726 C 0.11814 0.733 0.31459 0.0
C1727 C 0.11045 0.72606 0.26088 0.0
C1728 C 0.1079 0.74181 0.34938 0.0
C1729 C 0.08963 0.74468 0.33228 0.0
C1730 C 0.08255 0.73899 0.27757 0.0
C1731 C 0.09266 0.72965 0.24255 0.0
H1732 H 0.32312 0.37132 0.20194 0.0
H1733 H 0.29434 0.40345 0.30006 0.0
H1734 H 0.30787 0.33893 0.2657 0.0
H1735 H 0.27909 0.37138 0.36304 0.0
H1736 H 0.24053 0.30014 0.4506 0.0
H1737 H 0.25199 0.33062 0.38238 0.0
H1738 H 0.31597 0.33191 0.35916 0.0
H1739 H 0.30495 0.30241 0.42791 0.0
C1740 C 0.31293 0.3712 0.23595 0.0
C1741 C 0.30984 0.3901 0.24494 0.0
C1742 C 0.30444 0.35273 0.27333 0.0
C1743 C 0.2922 0.35229 0.3205 0.0
C1744 C 0.28815 0.37068 0.32756 0.0
C1745 C 0.29694 0.3892 0.29098 0.0
C1746 C 0.25713 0.30709 0.43136 0.0
C1747 C 0.27151 0.29821 0.44445 0.0
C1748 C 0.26373 0.32458 0.39177 0.0
C1749 C 0.28482 0.33362 0.36346 0.0
C1750 C 0.29936 0.32516 0.37819 0.0
C1751 C 0.29297 0.30812 0.41812 0.0
H1752 H 0.97338 0.41367 0.90791 0.0
H1753 H 0.97473 0.35112 0.93089 0.0
H1754 H 1.0046 0.43279 0.97461 0.0
H1755 H 1.00485 0.36967 0.9983 0.0
H1756 H 0.04497 0.40229 0.15488 0.0
H1757 H 1.01231 0.38539 0.09184 0.0
H1758 H 0.04581 0.4458 0.99224 0.0
H1759 H 0.07829 0.46238 0.05453 0.0
C1760 C 0.98026 0.40395 0.9269 0.0
C1761 C 0.97088 0.38054 0.91437 0.0
C1762 C 0.99818 0.41489 0.96562 0.0
C1763 C 1.00715 0.40276 0.99367 0.0
C1764 C 0.9982 0.37962 0.97947 0.0
C1765 C 0.98077 0.36891 0.94033 0.0
C1766 C 0.04509 0.41224 0.12043 0.0
C1767 C 0.06441 0.43393 0.11064 0.0
C1768 C 0.02643 0.40239 0.08352 0.0
C1769 C 0.02617 0.41403 0.03598 0.0
C1770 C 0.045 0.43618 0.02802 0.0
C1771 C 0.06375 0.44577 0.06414 0.0
H1772 H 0.68122 0.6281 0.93612 0.0
H1773 H 0.61924 0.56415 0.90753 0.0
H1774 H 0.66178 0.63857 1.0036 0.0
H1775 H 0.5993 0.5749 0.97491 0.0
H1776 H 0.56665 0.61484 0.05823 0.0
H1777 H 0.58437 0.59983 0.99713 0.0
H1778 H 0.64582 0.63183 0.09379 0.0
H1779 H 0.62782 0.64698 0.15517 0.0
C1780 C 0.66336 0.61608 0.94432 0.0
C1781 C 0.65216 0.59496 0.9164 0.0
C1782 C 0.65211 0.62214 0.98367 0.0
C1783 C 0.62883 0.60757 0.99664 0.0
C1784 C 0.61722 0.58676 0.96697 0.0
C1785 C 0.62867 0.58053 0.92778 0.0
C1786 C 0.58366 0.61803 0.06784 0.0
C1787 C 0.59544 0.63189 0.11289 0.0
C1788 C 0.59401 0.60946 0.03215 0.0
C1789 C 0.61685 0.61459 0.03916 0.0
C1790 C 0.62834 0.62756 0.08588 0.0
C1791 C 0.6178 0.63591 0.1222 0.0
H1792 H 0.46849 0.06148 0.92022 0.0
H1793 H 0.40211 0.05549 0.93557 0.0
H1794 H 0.45773 0.03175 0.99 0.0
H1795 H 0.39152 0.02639 1.00516 0.0
H1796 H 0.38179 0.98674 0.16096 0.0
H1797 H 0.39746 0.01949 0.0985 0.0
H1798 H 0.43371 0.99166 1.01256 0.0
H1799 H 0.41828 0.9594 0.07491 0.0
C1800 C 0.45155 0.05376 0.93798 0.0
C1801 C 0.43639 0.06139 0.92231 0.0
C1802 C 0.44533 0.03669 0.97852 0.0
C1803 C 0.42378 0.02671 1.00512 0.0
C1804 C 0.40847 0.03386 0.98762 0.0
C1805 C 0.41456 0.0506 0.94699 0.0
C1806 C 0.39389 0.98812 0.13026 0.0
C1807 C 0.39892 0.97034 0.12398 0.0
C1808 C 0.40259 1.00676 0.09335 0.0
C1809 C 0.41678 1.00842 0.04908 0.0
C1810 C 0.42304 0.99143 0.04558 0.0
C1811 C 0.41424 0.97282 0.08197 0.0
H1812 H 0.65694 0.03977 0.86874 0.0
H1813 H 0.62333 0.06837 0.96174 0.0
H1814 H 0.64141 1.00673 0.93036 0.0
H1815 H 0.60807 0.03584 0.02329 0.0
H1816 H 0.57269 0.96578 0.1143 0.0
H1817 H 0.58345 0.99606 0.04594 0.0
H1818 H 0.64787 0.99834 0.02129 0.0
H1819 H 0.63733 0.96877 0.08949 0.0
C1820 C 0.64553 0.03866 0.90095 0.0
C1821 C 0.64124 0.05684 0.90927 0.0
C1822 C 0.63693 0.01983 0.93734 0.0
C1823 C 0.62353 0.01837 0.98318 0.0
C1824 C 0.61807 0.03588 0.98899 0.0
C1825 C 0.62679 0.05466 0.95308 0.0
C1826 C 0.58923 0.97291 0.09472 0.0
C1827 C 0.60387 0.96428 0.10739 0.0
C1828 C 0.59546 0.99032 0.05499 0.0
C1829 C 0.61649 0.99966 0.0262 0.0
C1830 C 0.63128 0.99142 0.04053 0.0
C1831 C 0.6252 0.97436 0.08034 0.0
H1832 H 0.08687 0.63434 0.06638 0.0
H1833 H 0.04803 0.65654 0.1611 0.0
H1834 H 0.05579 0.61755 0.99896 0.0
H1835 H 1.01676 0.63926 0.09522 0.0
H1836 H 0.95548 0.58426 1.00283 0.0
H1837 H 0.98783 0.60072 0.06302 0.0
H1838 H 0.03369 0.62802 0.92701 0.0
H1839 H 1.00044 0.61182 0.86481 0.0
C1840 C 0.07146 0.63514 0.07362 0.0
C1841 C 0.06981 0.64632 0.12029 0.0
C1842 C 0.0537 0.62576 0.03442 0.0
C1843 C 0.03346 0.62686 0.04105 0.0
C1844 C 0.03181 0.63775 0.08836 0.0
C1845 C 0.04972 0.64754 0.12669 0.0
C1846 C 0.97227 0.5938 0.98464 0.0
C1847 C 0.9748 0.59663 0.9278 0.0
C1848 C 0.99109 0.60342 0.01999 0.0
C1849 C 1.01367 0.6161 1.00078 0.0
C1850 C 1.01661 0.61845 0.94382 0.0
C1851 C 0.99747 0.60909 0.9079 0.0
H1852 H 0.36152 0.39356 0.10316 0.0
H1853 H 0.41932 0.4621 0.10394 0.0
H1854 H 0.38085 0.38191 0.03763 0.0
H1855 H 0.43904 0.45032 0.03843 0.0
H1856 H 0.47392 0.41096 0.95898 0.0
H1857 H 0.4568 0.42616 0.02176 0.0
H1858 H 0.39191 0.38686 0.94059 0.0
H1859 H 0.40955 0.3727 0.87598 0.0
C1860 C 0.37864 0.40613 0.09028 0.0
C1861 C 0.38863 0.42894 0.10917 0.0
C1862 C 0.38968 0.39945 0.05178 0.0
C1863 C 0.4115 0.41513 0.03101 0.0
C1864 C 0.42223 0.43762 0.05269 0.0
C1865 C 0.41098 0.44442 0.09091 0.0
C1866 C 0.45625 0.40644 0.95272 0.0
C1867 C 0.44342 0.39096 0.91097 0.0
C1868 C 0.44628 0.415 0.98948 0.0
C1869 C 0.42277 0.40792 0.98732 0.0
C1870 C 0.41008 0.39308 0.94414 0.0
C1871 C 0.4203 0.38512 0.90609 0.0
H1872 H 0.09353 0.26192 0.43942 0.0
H1873 H 0.0593 0.19432 0.50791 0.0
H1874 H 0.12978 0.26154 0.43837 0.0
H1875 H 0.09496 0.19342 0.5057 0.0
H1876 H 0.16541 0.2048 0.55117 0.0
H1877 H 0.12976 0.20531 0.54547 0.0
H1878 H 0.15544 0.24966 0.40632 0.0
H1879 H 0.19182 0.24959 0.41343 0.0
C1880 C 0.09354 0.24671 0.45314 0.0
C1881 C 0.07313 0.22812 0.47364 0.0
C1882 C 0.11455 0.24646 0.45272 0.0
C1883 C 0.11607 0.22752 0.47242 0.0
C1884 C 0.09529 0.20868 0.4911 0.0
C1885 C 0.07447 0.20904 0.49187 0.0
C1886 C 0.16351 0.21446 0.51864 0.0
C1887 C 0.18189 0.2269 0.4824 0.0
C1888 C 0.1427 0.21472 0.51519 0.0
C1889 C 0.13888 0.22736 0.47503 0.0
C1890 C 0.15723 0.23971 0.43824 0.0
C1891 C 0.17821 0.23942 0.44173 0.0
H1892 H 0.83848 0.97354 0.52112 0.0
H1893 H 0.77793 0.94681 0.42245 0.0
H1894 H 0.83764 0.93689 0.51495 0.0
H1895 H 0.77702 0.91008 0.41588 0.0
H1896 H 0.76557 0.83927 0.47006 0.0
H1897 H 0.76866 0.8767 0.46642 0.0
H1898 H 0.84229 0.9087 0.46352 0.0
H1899 H 0.83902 0.87065 0.46771 0.0
C1900 C 0.82522 0.96001 0.49694 0.0
C1901 C 0.80845 0.96362 0.47174 0.0
C1902 C 0.82471 0.93876 0.4934 0.0
C1903 C 0.80726 0.91992 0.46487 0.0
C1904 C 0.79074 0.92375 0.4387 0.0
C1905 C 0.79142 0.94513 0.44173 0.0
C1906 C 0.78254 0.85419 0.46721 0.0
C1907 C 0.80202 0.85145 0.46797 0.0
C1908 C 0.78431 0.87596 0.46515 0.0
C1909 C 0.80573 0.89636 0.46423 0.0
C1910 C 0.82536 0.8937 0.46423 0.0
C1911 C 0.82355 0.8717 0.46569 0.0
H1912 H 0.06295 0.8726 0.54295 0.0
H1913 H 0.08582 0.8425 0.42241 0.0
H1914 H 0.09952 0.90782 0.53927 0.0
H1915 H 0.12245 0.87853 0.41584 0.0
H1916 H 0.19542 0.94158 0.44463 0.0
H1917 H 0.15861 0.90558 0.44367 0.0
H1918 H 0.12538 0.94151 0.5054 0.0
H1919 H 0.16216 0.9767 0.50868 0.0
C1920 C 0.07564 0.87362 0.51445 0.0
C1921 C 0.0709 0.85423 0.48301 0.0
C1922 C 0.09699 0.89424 0.51197 0.0
C1923 C 0.11483 0.89701 0.4768 0.0
C1924 C 0.10982 0.87769 0.44415 0.0
C1925 C 0.0884 0.85684 0.44719 0.0
C1926 C 0.18014 0.94181 0.45718 0.0
C1927 C 0.18207 0.96243 0.47631 0.0
C1928 C 0.15873 0.92092 0.45681 0.0
C1929 C 0.13813 0.9197 0.47487 0.0
C1930 C 0.14025 0.94073 0.49221 0.0
C1931 C 0.16162 0.96139 0.49338 0.0
H1932 H 0.26948 0.18987 0.58854 0.0
H1933 H 0.20047 0.15605 0.52822 0.0
H1934 H 0.26883 0.1532 0.58979 0.0
H1935 H 0.19908 0.1194 0.53165 0.0
H1936 H 0.20618 0.05743 0.49248 0.0
H1937 H 0.20717 0.09379 0.4966 0.0
H1938 H 0.25976 0.11713 0.61911 0.0
H1939 H 0.25946 0.08068 0.61222 0.0
C1940 C 0.25388 0.17451 0.57693 0.0
C1941 C 0.23494 0.17624 0.55879 0.0
C1942 C 0.25345 0.15318 0.57744 0.0
C1943 C 0.23393 0.13246 0.56048 0.0
C1944 C 0.21481 0.13438 0.54404 0.0
C1945 C 0.21541 0.15567 0.54277 0.0
C1946 C 0.21777 0.07012 0.52107 0.0
C1947 C 0.23259 0.06555 0.55223 0.0
C1948 C 0.21833 0.09136 0.52372 0.0
C1949 C 0.23343 0.10925 0.55866 0.0
C1950 C 0.24791 0.10442 0.59105 0.0
C1951 C 0.24749 0.08309 0.58792 0.0
H1952 H 0.87832 0.05283 0.51494 0.0
H1953 H 0.84483 0.08684 0.5842 0.0
H1954 H 0.91496 0.08826 0.51858 0.0
H1955 H 0.88154 0.12301 0.58609 0.0
H1956 H 0.95498 0.18529 0.61071 0.0
H1957 H 0.91849 0.149 0.61695 0.0
H1958 H 0.93891 0.12275 0.48172 0.0
H1959 H 0.97526 0.15823 0.47756 0.0
C1960 C 0.87878 0.06792 0.5315 0.0
C1961 C 0.85833 0.06657 0.54971 0.0
C1962 C 0.90002 0.08865 0.53297 0.0
C1963 C 0.90196 0.10937 0.55203 0.0
C1964 C 0.88142 0.10784 0.57153 0.0
C1965 C 0.86012 0.08688 0.57064 0.0
C1966 C 0.9519 0.17156 0.58317 0.0
C1967 C 0.96862 0.17503 0.544 0.0
C1968 C 0.93059 0.15061 0.58611 0.0
C1969 C 0.92503 0.13212 0.55011 0.0
C1970 C 0.94204 0.13575 0.51149 0.0
C1971 C 0.96323 0.15648 0.50884 0.0
H1972 H 0.97526 0.83056 0.50712 0.0
H1973 H 0.94646 0.76953 0.60373 0.0
H1974 H 0.9392 0.83006 0.50865 0.0
H1975 H 0.91028 0.76965 0.60949 0.0
H1976 H 0.83967 0.76524 0.58627 0.0
H1977 H 0.87579 0.76488 0.58839 0.0
H1978 H 0.91151 0.83537 0.53526 0.0
H1979 H 0.8754 0.83484 0.53047 0.0
C1980 C 0.96119 0.81701 0.52942 0.0
C1981 C 0.96421 0.79999 0.55468 0.0
C1982 C 0.94009 0.81684 0.5312 0.0
C1983 C 0.92071 0.79991 0.55978 0.0
C1984 C 0.92401 0.78307 0.58629 0.0
C1985 C 0.94519 0.78311 0.58375 0.0
C1986 C 0.85536 0.7808 0.57613 0.0
C1987 C 0.85426 0.80018 0.55887 0.0
C1988 C 0.87646 0.78066 0.57701 0.0
C1989 C 0.89766 0.80003 0.56142 0.0
C1990 C 0.89631 0.81963 0.54635 0.0
C1991 C 0.87527 0.81959 0.54453 0.0
H1992 H 0.82995 0.52542 0.82225 0.0
H1993 H 0.86601 0.5959 0.77286 0.0
H1994 H 0.79383 0.52507 0.81858 0.0
H1995 H 0.8298 0.59624 0.7714 0.0
H1996 H 0.75842 0.59083 0.75583 0.0
H1997 H 0.79466 0.59077 0.74821 0.0
H1998 H 0.76711 0.53129 0.85166 0.0
H1999 H 0.73094 0.53072 0.85544 0.0
C2000 C 0.83017 0.54089 0.80957 0.0
C2001 C 0.85132 0.56051 0.7969 0.0
C2002 C 0.80913 0.54091 0.80849 0.0
C2003 C 0.80786 0.56076 0.79563 0.0
C2004 C 0.82912 0.58031 0.7811 0.0
C2005 C 0.85027 0.58015 0.78151 0.0
C2006 C 0.75998 0.57748 0.77614 0.0
C2007 C 0.74127 0.56084 0.80662 0.0
C2008 C 0.78118 0.57756 0.77241 0.0
C2009 C 0.78484 0.56094 0.79889 0.0
C2010 C 0.76584 0.54428 0.82903 0.0
C2011 C 0.74472 0.54411 0.83214 0.0
H2012 H 0.49835 0.30027 0.87965 0.0
H2013 H 0.44869 0.27913 0.75149 0.0
H2014 H 0.49769 0.26404 0.87419 0.0
H2015 H 0.44857 0.24274 0.74406 0.0
H2016 H 0.43783 0.16939 0.77591 0.0
H2017 H 0.43825 0.20599 0.77516 0.0
H2018 H 0.50768 0.23992 0.83519 0.0
H2019 H 0.50664 0.20335 0.83768 0.0
C2020 C 0.48758 0.28807 0.84918 0.0
C2021 C 0.47374 0.2932 0.81578 0.0
C2022 C 0.48723 0.26695 0.8458 0.0
C2023 C 0.47321 0.24972 0.80824 0.0
C2024 C 0.45958 0.25502 0.77403 0.0
C2025 C 0.45989 0.27627 0.77763 0.0
C2026 C 0.45333 0.18475 0.78798 0.0
C2027 C 0.47227 0.1831 0.80647 0.0
C2028 C 0.45361 0.20601 0.78777 0.0
C2029 C 0.47295 0.22668 0.80555 0.0
C2030 C 0.49211 0.22488 0.82216 0.0
C2031 C 0.49169 0.20368 0.82294 0.0
H2032 H 0.73332 0.20106 0.8817 0.0
H2033 H 0.75117 0.17513 0.74198 0.0
H2034 H 0.76934 0.23683 0.87531 0.0
H2035 H 0.78755 0.21162 0.73441 0.0
H2036 H 0.86196 0.27394 0.76717 0.0
H2037 H 0.82541 0.2375 0.76617 0.0
H2038 H 0.79168 0.27169 0.83477 0.0
H2039 H 0.8281 0.30749 0.83691 0.0
C2040 C 0.74473 0.20306 0.84866 0.0
C2041 C 0.73867 0.1848 0.812 0.0
C2042 C 0.76573 0.22396 0.84481 0.0
C2043 C 0.78202 0.22795 0.80393 0.0
C2044 C 0.77593 0.2097 0.76684 0.0
C2045 C 0.75471 0.18865 0.77065 0.0
C2046 C 0.84665 0.27375 0.78108 0.0
C2047 C 0.84831 0.29404 0.8019 0.0
C2048 C 0.82545 0.25264 0.78073 0.0
C2049 C 0.80491 0.25088 0.8009 0.0
C2050 C 0.80667 0.27154 0.81979 0.0
C2051 C 0.82778 0.29246 0.82047 0.0
H2052 H 0.866 0.4895 0.87436 0.0
H2053 H 0.93902 0.52214 0.89504 0.0
H2054 H 0.86349 0.45178 0.877 0.0
H2055 H 0.93669 0.48495 0.89764 0.0
H2056 H 0.87167 0.38949 0.8207 0.0
H2057 H 0.87183 0.42574 0.82695 0.0
H2058 H 0.92605 0.44983 0.94493 0.0
H2059 H 0.92575 0.41332 0.93858 0.0
C2060 C 0.88146 0.48874 0.8812 0.0
C2061 C 0.90264 0.50929 0.88607 0.0
C2062 C 0.88014 0.46695 0.88179 0.0
C2063 C 0.89988 0.46469 0.88799 0.0
C2064 C 0.9209 0.48534 0.89395 0.0
C2065 C 0.92224 0.50696 0.89256 0.0
C2066 C 0.88336 0.40228 0.84896 0.0
C2067 C 0.89842 0.39785 0.8798 0.0
C2068 C 0.88345 0.42333 0.85257 0.0
C2069 C 0.89889 0.44132 0.88662 0.0
C2070 C 0.91386 0.43681 0.91789 0.0
C2071 C 0.9135 0.41554 0.91489 0.0
H2072 H 0.54504 0.38347 0.85566 0.0
H2073 H 0.5113 0.41812 0.91971 0.0
H2074 H 0.58163 0.41903 0.85782 0.0
H2075 H 0.5479 0.45436 0.92005 0.0
H2076 H 0.62094 0.51719 0.94303 0.0
H2077 H 0.58455 0.4809 0.95019 0.0
H2078 H 0.60597 0.45316 0.82003 0.0
H2079 H 0.64228 0.48873 0.81508 0.0
C2080 C 0.54543 0.39873 0.87073 0.0
C2081 C 0.52491 0.3975 0.88797 0.0
C2082 C 0.56664 0.41954 0.87134 0.0
C2083 C 0.5685 0.44046 0.88853 0.0
C2084 C 0.54789 0.43906 0.90697 0.0
C2085 C 0.52662 0.41805 0.90696 0.0
C2086 C 0.6181 0.50315 0.91679 0.0
C2087 C 0.6351 0.50626 0.87879 0.0
C2088 C 0.59684 0.48218 0.92024 0.0
C2089 C 0.59156 0.46326 0.88596 0.0
C2090 C 0.60885 0.46651 0.8485 0.0
C2091 C 0.63002 0.48729 0.84537 0.0
H2092 H 0.64793 0.16507 0.85383 0.0
H2093 H 0.61442 0.09789 0.92461 0.0
H2094 H 0.61216 0.16574 0.85664 0.0
H2095 H 0.57805 0.0981 0.92652 0.0
H2096 H 0.51615 0.11063 0.95279 0.0
H2097 H 0.55262 0.11065 0.95943 0.0
H2098 H 0.57695 0.15275 0.81645 0.0
H2099 H 0.5412 0.15303 0.81081 0.0
C2100 C 0.63292 0.15041 0.8706 0.0
C2101 C 0.6345 0.13149 0.88917 0.0
C2102 C 0.61203 0.15064 0.87174 0.0
C2103 C 0.59141 0.13186 0.89124 0.0
C2104 C 0.59317 0.11312 0.91147 0.0
C2105 C 0.61425 0.11298 0.91058 0.0
C2106 C 0.52947 0.12029 0.92342 0.0
C2107 C 0.52538 0.13213 0.88172 0.0
C2108 C 0.5505 0.12006 0.92671 0.0
C2109 C 0.5685 0.13185 0.88876 0.0
C2110 C 0.56427 0.14378 0.84754 0.0
C2111 C 0.54338 0.1439 0.84415 0.0
H2112 H 0.49725 0.86819 0.20805 0.0
H2113 H 0.52633 0.91854 0.08158 0.0
H2114 H 0.46181 0.86919 0.20319 0.0
H2115 H 0.4902 0.91901 0.07472 0.0
H2116 H 0.42773 0.93005 0.10747 0.0
H2117 H 0.46375 0.92927 0.10575 0.0
H2118 H 0.42776 0.85981 0.16508 0.0
H2119 H 0.39243 0.86122 0.1686 0.0
C2120 C 0.49597 0.87919 0.17806 0.0
C2121 C 0.51507 0.8931 0.14496 0.0
C2122 C 0.47527 0.87974 0.17501 0.0
C2123 C 0.47223 0.89405 0.13809 0.0
C2124 C 0.4913 0.90776 0.10419 0.0
C2125 C 0.51217 0.90726 0.10746 0.0
C2126 C 0.42744 0.91446 0.11913 0.0
C2127 C 0.40677 0.89565 0.13784 0.0
C2128 C 0.44834 0.91397 0.11838 0.0
C2129 C 0.44951 0.89452 0.13577 0.0
C2130 C 0.42845 0.87546 0.15238 0.0
C2131 C 0.40777 0.8761 0.15373 0.0
H2132 H 0.17367 0.64235 0.19354 0.0
H2133 H 0.11095 0.61459 0.10285 0.0
H2134 H 0.17282 0.60575 0.18697 0.0
H2135 H 0.11012 0.57795 0.09522 0.0
H2136 H 0.10027 0.5074 0.1434 0.0
H2137 H 0.10294 0.54466 0.14136 0.0
H2138 H 0.17665 0.5773 0.13888 0.0
H2139 H 0.17377 0.53945 0.14221 0.0
C2140 C 0.15991 0.62859 0.17095 0.0
C2141 C 0.14252 0.63189 0.14833 0.0
C2142 C 0.15939 0.60734 0.16713 0.0
C2143 C 0.14138 0.58821 0.14057 0.0
C2144 C 0.12427 0.59178 0.11668 0.0
C2145 C 0.12489 0.61312 0.12022 0.0
C2146 C 0.11716 0.52245 0.14115 0.0
C2147 C 0.13678 0.51994 0.14169 0.0
C2148 C 0.11871 0.54414 0.13992 0.0
C2149 C 0.14003 0.5647 0.13945 0.0
C2150 C 0.15978 0.56223 0.13935 0.0
C2151 C 0.1582 0.54034 0.14025 0.0
H2152 H 0.52577 0.6066 0.08915 0.0
H2153 H 0.49443 0.63686 0.18399 0.0
H2154 H 0.48911 0.57073 0.0846 0.0
H2155 H 0.45852 0.60121 0.18351 0.0
H2156 H 0.38939 0.53741 0.16701 0.0
H2157 H 0.42527 0.57314 0.16182 0.0
H2158 H 0.45862 0.53677 0.10317 0.0
H2159 H 0.4218 0.50105 0.10592 0.0
C2160 C 0.51103 0.60573 0.10893 0.0
C2161 C 0.51355 0.62508 0.13715 0.0
C2162 C 0.48966 0.58472 0.1071 0.0
C2163 C 0.46961 0.58189 0.13352 0.0
C2164 C 0.47246 0.60163 0.16116 0.0
C2165 C 0.49362 0.62254 0.16225 0.0
C2166 C 0.40427 0.53705 0.15175 0.0
C2167 C 0.40211 0.51596 0.13604 0.0
C2168 C 0.42548 0.5579 0.1496 0.0
C2169 C 0.44617 0.559 0.13274 0.0
C2170 C 0.4438 0.5377 0.11602 0.0
C2171 C 0.42232 0.5168 0.11727 0.0
H2172 H 0.54031 0.72307 0.14719 0.0
H2173 H 0.59251 0.74567 0.26952 0.0
H2174 H 0.54131 0.75945 0.15155 0.0
H2175 H 0.59285 0.78213 0.27646 0.0
H2176 H 0.60263 0.85506 0.24781 0.0
H2177 H 0.60209 0.81842 0.24825 0.0
H2178 H 0.53289 0.7849 0.18661 0.0
H2179 H 0.53415 0.82152 0.18416 0.0
C2180 C 0.55173 0.73564 0.17622 0.0
C2181 C 0.56623 0.73086 0.20806 0.0
C2182 C 0.55228 0.75689 0.17905 0.0
C2183 C 0.56705 0.77461 0.21481 0.0
C2184 C 0.58126 0.76958 0.24775 0.0
C2185 C 0.58084 0.74825 0.24448 0.0
C2186 C 0.58718 0.83978 0.23513 0.0
C2187 C 0.56838 0.8416 0.21625 0.0
C2188 C 0.5868 0.81845 0.23521 0.0
C2189 C 0.56748 0.79781 0.21704 0.0
C2190 C 0.54848 0.79982 0.19991 0.0
C2191 C 0.54902 0.82109 0.19915 0.0
H2192 H 0.29085 0.85188 0.28982 0.0
H2193 H 0.30742 0.82646 0.14708 0.0
H2194 H 0.2543 0.81559 0.29729 0.0
H2195 H 0.27113 0.79109 0.15288 0.0
H2196 H 0.21195 0.72081 0.1881 0.0
H2197 H 0.24865 0.75619 0.19083 0.0
H2198 H 0.21639 0.79033 0.26755 0.0
H2199 H 0.17956 0.75418 0.26631 0.0
C2200 C 0.28696 0.83852 0.26041 0.0
C2201 C 0.30265 0.84242 0.21822 0.0
C2202 C 0.26565 0.81762 0.26415 0.0
C2203 C 0.25914 0.79965 0.226 0.0
C2204 C 0.2751 0.80371 0.18427 0.0
C2205 C 0.29623 0.82439 0.1807 0.0
C2206 C 0.21268 0.73574 0.20644 0.0
C2207 C 0.19254 0.73427 0.22732 0.0
C2208 C 0.23393 0.75643 0.20744 0.0
C2209 C 0.23615 0.77693 0.22876 0.0
C2210 C 0.21598 0.77527 0.25109 0.0
C2211 C 0.19464 0.75435 0.25057 0.0
H2212 H 0.27181 0.42683 0.21461 0.0
H2213 H 0.31359 0.49964 0.23657 0.0
H2214 H 0.23731 0.42947 0.22161 0.0
H2215 H 0.27859 0.5024 0.245 0.0
H2216 H 0.21078 0.50205 0.19673 0.0
H2217 H 0.24661 0.50121 0.2006 0.0
H2218 H 0.21044 0.43403 0.27236 0.0
H2219 H 0.17457 0.43497 0.26774 0.0
C2220 C 0.27377 0.44352 0.2223 0.0
C2221 C 0.29604 0.46295 0.22585 0.0
C2222 C 0.25362 0.44503 0.22654 0.0
C2223 C 0.2544 0.46613 0.2345 0.0
C2224 C 0.27672 0.48568 0.23876 0.0
C2225 C 0.29707 0.48412 0.23479 0.0
C2226 C 0.2105 0.48728 0.21469 0.0
C2227 C 0.18937 0.46868 0.23239 0.0
C2228 C 0.2313 0.48675 0.21682 0.0
C2229 C 0.23215 0.46751 0.23655 0.0
C2230 C 0.21106 0.44921 0.25612 0.0
C2231 C 0.19025 0.44984 0.25439 0.0
H2232 H 0.9977 0.2504 0.16838 0.0
H2233 H 0.97671 0.18208 0.11247 0.0
H2234 H 1.00807 0.26474 0.07564 0.0
H2235 H 0.98711 0.19638 0.01989 0.0
H2236 H 0.02995 0.23702 0.87047 0.0
H2237 H 0.02205 0.22308 0.96335 0.0
H2238 H 0.98468 0.2587 0.98965 0.0
H2239 H 0.99167 0.27193 0.89623 0.0
C2240 C 0.99549 0.23852 0.1363 0.0
C2241 C 0.98614 0.2151 0.14738 0.0
C2242 C 1.00128 0.24667 0.08329 0.0
C2243 C 0.99818 0.23163 0.04052 0.0
C2244 C 0.98969 0.20837 0.05202 0.0
C2245 C 0.98358 0.20016 0.10485 0.0
C2246 C 0.0197 0.24161 0.89557 0.0
C2247 C 1.01146 0.25568 0.87547 0.0
C2248 C 1.01534 0.23373 0.94899 0.0
C2249 C 1.00294 0.23998 0.98384 0.0
C2250 C 0.99466 0.25395 0.96395 0.0
C2251 C 0.99872 0.26156 0.91036 0.0
H2252 H 0.80958 0.78136 0.16263 0.0
H2253 H 0.78582 0.82929 0.13423 0.0
H2254 H 0.80185 0.76916 0.06951 0.0
H2255 H 0.78029 0.81862 0.03907 0.0
H2256 H 0.75273 0.77833 0.88109 0.0
H2257 H 0.75755 0.78972 0.97623 0.0
H2258 H 0.81768 0.78243 0.98451 0.0
H2259 H 0.81214 0.77016 0.89073 0.0
C2260 C 0.80265 0.78932 0.13667 0.0
C2261 C 0.79827 0.80632 0.15633 0.0
C2262 C 0.79865 0.7826 0.08272 0.0
C2263 C 0.79077 0.79313 0.04642 0.0
C2264 C 0.78621 0.81002 0.06595 0.0
C2265 C 0.78976 0.81642 0.12041 0.0
C2266 C 0.76687 0.7791 0.90365 0.0
C2267 C 0.78179 0.77293 0.8792 0.0
C2268 C 0.76975 0.78576 0.95793 0.0
C2269 C 0.78783 0.7867 0.98835 0.0
C2270 C 0.80313 0.78121 0.96298 0.0
C2271 C 0.80004 0.77423 0.90917 0.0
H2272 H 0.28141 0.03663 0.16981 0.0
H2273 H 0.23253 0.05566 0.11511 0.0
H2274 H 0.28504 0.02581 0.07761 0.0
H2275 H 0.23522 0.04395 0.02343 0.0
H2276 H 0.26643 0.04867 0.85724 0.0
H2277 H 0.26045 0.05661 0.95004 0.0
H2278 H 0.26812 1.00006 1.00549 0.0
H2279 H 0.27489 0.99274 0.91263 0.0
C2280 C 0.27121 0.03816 0.13806 0.0
C2281 C 0.25699 0.04732 0.14928 0.0
C2282 C 0.27315 0.03186 0.08522 0.0
C2283 C 0.26063 0.03424 0.04261 0.0
C2284 C 0.24565 0.04248 0.05467 0.0
C2285 C 0.244 0.0491 0.10725 0.0
C2286 C 0.26679 0.03794 0.88933 0.0
C2287 C 0.27137 0.02026 0.87776 0.0
C2288 C 0.2632 0.04236 0.94261 0.0
C2289 C 0.2638 0.029 0.98564 0.0
C2290 C 0.26799 1.01103 0.97374 0.0
C2291 C 0.27185 1.00679 0.92049 0.0
H2292 H 0.04355 0.77999 0.86152 0.0
H2293 H 0.05283 0.84461 0.91803 0.0
H2294 H 0.0338 0.76466 0.95375 0.0
H2295 H 0.04292 0.8293 1.00991 0.0
H2296 H 1.00275 0.78463 0.1567 0.0
H2297 H 1.00904 0.7981 0.06347 0.0
H2298 H 0.05749 0.77474 0.04185 0.0
H2299 H 0.05218 0.76221 0.13579 0.0
C2300 C 0.04328 0.79079 0.89361 0.0
C2301 C 0.04922 0.81355 0.88301 0.0
C2302 C 0.03783 0.7821 0.94627 0.0
C2303 C 0.0378 0.79588 0.98896 0.0
C2304 C 0.04279 0.81831 0.97778 0.0
C2305 C 0.04861 0.82711 0.9254 0.0
C2306 C 1.01503 0.78263 0.13256 0.0
C2307 C 0.02701 0.77233 0.15425 0.0
C2308 C 1.01846 0.7902 0.07894 0.0
C2309 C 0.03362 0.7873 0.0454 0.0
C2310 C 0.04541 0.77684 0.06662 0.0
C2311 C 0.04229 0.7696 0.12048 0.0
H2312 H 0.29828 0.27303 0.11678 0.0
H2313 H 0.22948 0.24985 0.1737 0.0
H2314 H 0.28461 0.26679 0.02367 0.0
H2315 H 0.21564 0.24223 0.08119 0.0
H2316 H 0.19956 0.25308 0.91247 0.0
H2317 H 0.21638 0.2624 1.00244 0.0
H2318 H 0.26249 0.23809 0.95762 0.0
H2319 H 0.24594 0.22943 0.86658 0.0
C2320 C 0.28025 0.26667 0.10953 0.0
C2321 C 0.26506 0.26222 0.15296 0.0
C2322 C 0.27235 0.26277 0.05606 0.0
C2323 C 0.24904 0.25423 0.04467 0.0
C2324 C 0.2338 0.24933 0.0882 0.0
C2325 C 0.24171 0.25338 0.14151 0.0
C2326 C 0.21341 0.2499 0.9218 0.0
C2327 C 0.22125 0.24028 0.88286 0.0
C2328 C 0.22296 0.25506 0.97349 0.0
C2329 C 0.24046 0.25053 0.98787 0.0
C2330 C 0.24906 0.24186 0.94803 0.0
C2331 C 0.23961 0.23688 0.89589 0.0
H2332 H 0.80541 0.02666 0.1528 0.0
H2333 H 0.73217 0.98652 0.1282 0.0
H2334 H 0.81165 0.01915 0.05977 0.0
H2335 H 0.73858 0.97975 0.03459 0.0
H2336 H 0.75924 0.99166 0.85548 0.0
H2337 H 0.75485 1.00223 0.94781 0.0
H2338 H 0.80493 0.98503 1.00435 0.0
H2339 H 0.80933 0.97458 0.91233 0.0
C2340 C 0.79061 0.01609 0.12786 0.0
C2341 C 0.76823 1.00716 0.14834 0.0
C2342 C 0.79424 1.01194 0.07437 0.0
C2343 C 0.77561 0.99902 0.03983 0.0
C2344 C 0.75327 0.99012 0.06005 0.0
C2345 C 0.74962 0.99403 0.11372 0.0
C2346 C 0.76942 0.99035 0.88765 0.0
C2347 C 0.78439 0.98202 0.87702 0.0
C2348 C 0.76681 0.99624 0.94043 0.0
C2349 C 0.77938 0.99422 0.98331 0.0
C2350 C 0.79503 0.98678 0.97216 0.0
C2351 C 0.79741 0.98063 0.91962 0.0
H2352 H 0.69666 0.56905 0.20379 0.0
H2353 H 0.65683 0.60229 0.2303 0.0
H2354 H 0.68928 0.55513 0.29671 0.0
H2355 H 0.65033 0.58907 0.32375 0.0
H2356 H 0.6638 0.58108 0.50231 0.0
H2357 H 0.67382 0.59562 0.40961 0.0
H2358 H 0.65488 0.52781 0.35342 0.0
H2359 H 0.64484 0.51333 0.44591 0.0
C2360 C 0.68618 0.57327 0.22907 0.0
C2361 C 0.67735 0.58685 0.20916 0.0
C2362 C 0.68212 0.56541 0.28251 0.0
C2363 C 0.66941 0.5712 0.31759 0.0
C2364 C 0.66055 0.58469 0.29788 0.0
C2365 C 0.66432 0.59229 0.24427 0.0
C2366 C 0.66197 0.56937 0.47014 0.0
C2367 C 0.65328 0.54603 0.48106 0.0
C2368 C 0.66756 0.57764 0.41715 0.0
C2369 C 0.66491 0.56279 0.37426 0.0
C2370 C 0.6571 0.53965 0.38562 0.0
C2371 C 0.6512 0.53133 0.43842 0.0
H2372 H 0.5129 0.15915 0.44882 0.0
H2373 H 0.46133 0.09216 0.50388 0.0
H2374 H 0.4967 0.15021 0.35856 0.0
H2375 H 0.44414 0.08359 0.41382 0.0
H2376 H 0.43839 0.06558 0.23285 0.0
H2377 H 0.45193 0.07474 0.32598 0.0
H2378 H 0.46627 0.14415 0.30231 0.0
H2379 H 0.45334 0.13506 0.20898 0.0
C2380 C 0.49795 0.14253 0.44173 0.0
C2381 C 0.48872 0.12622 0.48342 0.0
C2382 C 0.48842 0.13749 0.38996 0.0
C2383 C 0.46918 0.11605 0.37843 0.0
C2384 C 0.45925 0.1001 0.42082 0.0
C2385 C 0.46891 0.10511 0.47272 0.0
C2386 C 0.44436 0.08276 0.24774 0.0
C2387 C 0.4449 0.09961 0.2135 0.0
C2388 C 0.452 0.088 0.30126 0.0
C2389 C 0.46018 0.1102 0.32202 0.0
C2390 C 0.46048 0.12698 0.2877 0.0
C2391 C 0.45306 0.12178 0.2341 0.0
H2392 H 0.92091 0.37248 0.1865 0.0
H2393 H 0.94652 0.32898 0.24346 0.0
H2394 H 0.91297 0.37838 0.27902 0.0
H2395 H 0.93994 0.33613 0.33657 0.0
H2396 H 0.90183 0.33602 0.49371 0.0
H2397 H 0.91095 0.32853 0.40269 0.0
H2398 H 0.93286 0.3984 0.35765 0.0
H2399 H 0.9231 0.40547 0.4476 0.0
C2400 C 0.92491 0.36418 0.2187 0.0
C2401 C 0.93452 0.35035 0.20725 0.0
C2402 C 0.92066 0.36785 0.27201 0.0
C2403 C 0.92614 0.35803 0.31555 0.0
C2404 C 0.93546 0.34395 0.30417 0.0
C2405 C 0.93955 0.34012 0.2507 0.0
C2406 C 0.90887 0.34978 0.46437 0.0
C2407 C 0.91145 0.37122 0.47732 0.0
C2408 C 0.9141 0.34553 0.41224 0.0
C2409 C 0.92221 0.36274 0.37234 0.0
C2410 C 0.92596 0.38452 0.38665 0.0
C2411 C 0.92054 0.38866 0.43833 0.0
H2412 H 0.67748 0.12147 0.19513 0.0
H2413 H 0.74679 0.16987 0.24276 0.0
H2414 H 0.66961 0.10496 0.28615 0.0
H2415 H 0.7393 0.15316 0.33278 0.0
H2416 H 0.71285 0.13862 0.50348 0.0
H2417 H 0.71896 0.15271 0.41118 0.0
H2418 H 0.67707 0.08356 0.35226 0.0
H2419 H 0.66974 0.06957 0.44508 0.0
C2420 C 0.69112 0.1283 0.22482 0.0
C2421 C 0.71265 0.14717 0.21218 0.0
C2422 C 0.68665 0.11886 0.27697 0.0
C2423 C 0.7037 0.12801 0.3173 0.0
C2424 C 0.72553 0.14612 0.30344 0.0
C2425 C 0.72991 0.15562 0.2517 0.0
C2426 C 0.70468 0.1264 0.47102 0.0
C2427 C 0.69092 0.1029 0.48199 0.0
C2428 C 0.70846 0.13446 0.41783 0.0
C2429 C 0.69881 0.11926 0.37397 0.0
C2430 C 0.68476 0.09579 0.3849 0.0
C2431 C 0.68083 0.08773 0.43822 0.0
H2432 H 0.86229 0.5626 0.23908 0.0
H2433 H 0.93444 0.5998 0.20142 0.0
H2434 H 0.871 0.55671 0.33166 0.0
H2435 H 0.9433 0.59416 0.29465 0.0
H2436 H 0.9473 0.60158 0.48259 0.0
H2437 H 0.93802 0.60756 0.39021 0.0
H2438 H 0.8889 0.53538 0.37709 0.0
H2439 H 0.89832 0.52945 0.46896 0.0
C2440 C 0.88001 0.56944 0.25083 0.0
C2441 C 0.89774 0.5817 0.21366 0.0
C2442 C 0.88499 0.56605 0.30357 0.0
C2443 C 0.9078 0.57517 0.32026 0.0
C2444 C 0.92557 0.58722 0.28282 0.0
C2445 C 0.92055 0.59028 0.22963 0.0
C2446 C 0.93432 0.58713 0.46003 0.0
C2447 C 0.9235 0.56507 0.48248 0.0
C2448 C 0.92921 0.59048 0.4072 0.0
C2449 C 0.91292 0.57188 0.37656 0.0
C2450 C 0.90151 0.54999 0.39992 0.0
C2451 C 0.90688 0.54659 0.45228 0.0
H2452 H 0.47501 0.30184 0.25005 0.0
H2453 H 0.42745 0.3224 0.19368 0.0
H2454 H 0.47095 0.31228 0.3425 0.0
H2455 H 0.42332 0.33282 0.28632 0.0
H2456 H 0.3996 0.3166 0.46587 0.0
H2457 H 0.40596 0.30966 0.37244 0.0
H2458 H 0.479 0.34706 0.3989 0.0
H2459 H 0.47285 0.3549 0.49179 0.0
C2460 C 0.46371 0.30863 0.25754 0.0
C2461 C 0.45132 0.31105 0.21491 0.0
C2462 C 0.46153 0.31476 0.3103 0.0
C2463 C 0.44665 0.32315 0.32166 0.0
C2464 C 0.43469 0.32612 0.2788 0.0
C2465 C 0.43715 0.3203 0.22583 0.0
C2466 C 0.41705 0.32367 0.45177 0.0
C2467 C 0.43567 0.33639 0.48672 0.0
C2468 C 0.42067 0.31964 0.39817 0.0
C2469 C 0.44297 0.32793 0.37831 0.0
C2470 C 0.46161 0.34034 0.41322 0.0
C2471 C 0.45802 0.34466 0.46665 0.0
H2472 H 0.32664 0.92687 0.57435 0.0
H2473 H 0.38352 0.91622 0.54088 0.0
H2474 H 0.32728 0.91696 0.66912 0.0
H2475 H 0.38349 0.9054 0.63462 0.0
H2476 H 0.39607 0.91471 0.81513 0.0
H2477 H 0.39381 0.92446 0.72154 0.0
H2478 H 0.31994 0.88524 0.72931 0.0
H2479 H 0.3222 0.8754 0.82333 0.0
C2480 C 0.33922 0.92234 0.58713 0.0
C2481 C 0.35511 0.9225 0.55 0.0
C2482 C 0.33943 0.91643 0.64131 0.0
C2483 C 0.35558 0.9106 0.65961 0.0
C2484 C 0.37108 0.91021 0.62215 0.0
C2485 C 0.37089 0.91612 0.56813 0.0
C2486 C 0.37933 0.908 0.79685 0.0
C2487 C 0.35933 0.89399 0.82658 0.0
C2488 C 0.37803 0.91359 0.74312 0.0
C2489 C 0.3567 0.90536 0.71762 0.0
C2490 C 0.33665 0.89194 0.74779 0.0
C2491 C 0.33795 0.88632 0.80169 0.0
H2492 H 0.16019 0.49561 0.78257 0.0
H2493 H 0.12011 0.42552 0.83581 0.0
H2494 H 0.14378 0.48465 0.69282 0.0
H2495 H 0.10255 0.4145 0.74607 0.0
H2496 H 0.10308 0.39917 0.56444 0.0
H2497 H 0.11437 0.40964 0.65858 0.0
H2498 H 0.11222 0.47204 0.63559 0.0
H2499 H 0.10174 0.46186 0.54126 0.0
C2500 C 0.14743 0.47787 0.77522 0.0
C2501 C 0.14171 0.46135 0.81583 0.0
C2502 C 0.13784 0.47158 0.72378 0.0
C2503 C 0.12204 0.44859 0.71172 0.0
C2504 C 0.11508 0.43228 0.75357 0.0
C2505 C 0.12484 0.4386 0.8052 0.0
C2506 C 0.10499 0.41509 0.57972 0.0
C2507 C 0.10168 0.42976 0.54549 0.0
C2508 C 0.11126 0.42102 0.63379 0.0
C2509 C 0.1141 0.44166 0.655 0.0
C2510 C 0.11053 0.45619 0.62064 0.0
C2511 C 0.10454 0.45038 0.5665 0.0
H2512 H 0.61213 0.70077 0.83011 0.0
H2513 H 0.5628 0.71884 0.77293 0.0
H2514 H 0.61678 0.69054 0.73768 0.0
H2515 H 0.56748 0.70874 0.68074 0.0
H2516 H 0.56708 0.66748 0.53147 0.0
H2517 H 0.56059 0.67485 0.62445 0.0
H2518 H 0.63358 0.71311 0.65159 0.0
H2519 H 0.64024 0.70644 0.5581 0.0
C2520 C 0.60218 0.70238 0.79783 0.0
C2521 C 0.58734 0.71088 0.80845 0.0
C2522 C 0.60495 0.69669 0.74497 0.0
C2523 C 0.59266 0.69907 0.70194 0.0
C2524 C 0.57716 0.70671 0.71304 0.0
C2525 C 0.57463 0.71266 0.76568 0.0
C2526 C 0.58181 0.67778 0.55684 0.0
C2527 C 0.60423 0.6864 0.53697 0.0
C2528 C 0.57804 0.68185 0.6103 0.0
C2529 C 0.59657 0.69441 0.64539 0.0
C2530 C 0.61895 0.70302 0.62572 0.0
C2531 C 0.62275 0.69918 0.5721 0.0
H2532 H 0.31772 0.43138 0.82157 0.0
H2533 H 0.38887 0.45373 0.7883 0.0
H2534 H 0.31236 0.43857 0.72829 0.0
H2535 H 0.3829 0.45888 0.6937 0.0
H2536 H 0.37031 0.48625 0.53785 0.0
H2537 H 0.37659 0.48216 0.63326 0.0
H2538 H 0.30911 0.42205 0.64253 0.0
H2539 H 0.30266 0.4268 0.54775 0.0
C2540 C 0.33226 0.43787 0.79446 0.0
C2541 C 0.35374 0.44194 0.81253 0.0
C2542 C 0.32906 0.44161 0.74065 0.0
C2543 C 0.34712 0.44904 0.70335 0.0
C2544 C 0.36867 0.45334 0.72145 0.0
C2545 C 0.37199 0.45001 0.77556 0.0
C2546 C 0.35685 0.47225 0.56058 0.0
C2547 C 0.33592 0.45697 0.53593 0.0
C2548 C 0.36046 0.46981 0.61504 0.0
C2549 C 0.34331 0.45184 0.64562 0.0
C2550 C 0.32247 0.43641 0.62053 0.0
C2551 C 0.31876 0.43905 0.56628 0.0
H2552 H 0.57824 0.89396 0.82032 0.0
H2553 H 0.61177 0.96711 0.79497 0.0
H2554 H 0.56433 0.88762 0.7274 0.0
H2555 H 0.59853 0.96059 0.7015 0.0
H2556 H 0.59028 0.93943 0.52259 0.0
H2557 H 0.60489 0.94383 0.61517 0.0
H2558 H 0.53706 0.89477 0.67125 0.0
H2559 H 0.5225 0.89044 0.57886 0.0
C2560 C 0.58253 0.90872 0.79529 0.0
C2561 C 0.59618 0.93111 0.81552 0.0
C2562 C 0.57467 0.90503 0.74185 0.0
C2563 C 0.58051 0.9236 0.7071 0.0
C2564 C 0.5941 0.94594 0.72711 0.0
C2565 C 0.60171 0.94965 0.78073 0.0
C2566 C 0.57858 0.92948 0.55471 0.0
C2567 C 0.55521 0.91482 0.54378 0.0
C2568 C 0.58689 0.93209 0.60764 0.0
C2569 C 0.57206 0.91981 0.65047 0.0
C2570 C 0.54888 0.90446 0.63909 0.0
C2571 C 0.54052 0.90211 0.58636 0.0
H2572 H 0.14585 0.64988 0.59237 0.0
H2573 H 0.08892 0.65675 0.53714 0.0
H2574 H 0.14057 0.65999 0.68418 0.0
H2575 H 0.08342 0.66667 0.62942 0.0
H2576 H 0.06363 0.64776 0.81236 0.0
H2577 H 0.07077 0.64301 0.71789 0.0
H2578 H 0.14221 0.69335 0.7378 0.0
H2579 H 0.13508 0.69906 0.83154 0.0
C2580 C 0.13229 0.65371 0.6 0.0
C2581 C 0.11762 0.65231 0.55807 0.0
C2582 C 0.12936 0.65961 0.65235 0.0
C2583 C 0.11145 0.66388 0.66394 0.0
C2584 C 0.09719 0.66319 0.6216 0.0
C2585 C 0.1004 0.65767 0.56893 0.0
C2586 C 0.08079 0.6582 0.79655 0.0
C2587 C 0.09873 0.67382 0.83001 0.0
C2588 C 0.08486 0.6554 0.74238 0.0
C2589 C 0.10701 0.66788 0.72054 0.0
C2590 C 0.12499 0.68342 0.75372 0.0
C2591 C 0.12087 0.68651 0.80764 0.0
loop_
_geom_bond_atom_site_label_1
_geom_bond_atom_site_label_2
_geom_bond_distance
_geom_bond_site_symmetry_2
_ccdc_geom_bond_type
Tb0 N29 2.617 . S
Tb0 N35 2.572 . S
Tb0 O44 2.465 . S
Tb0 O45 2.387 . S
Tb0 O47 2.428 . S
Tb0 O48 2.308 1_455 S
Tb0 O52 2.349 1_455 S
Tb0 O55 2.393 . S
Tb0 C64 2.802 . S
C1 N2 1.379 . S
C1 C4 1.416 . S
C1 C8 1.424 . S
N2 C1 1.379 . S
N2 C5 1.334 . S
N2 Tb11 2.617 . S
C3 C5 1.390 . S
C3 C6 1.339 . S
C3 H23 0.930 . S
C4 C1 1.416 . S
C4 C6 1.416 . S
C4 C10 1.448 . S
C5 N2 1.334 . S
C5 C3 1.390 . S
C5 H16 0.930 . S
C6 C3 1.339 . S
C6 C4 1.416 . S
C6 H27 0.930 . S
C7 C8 1.413 . S
C7 C9 1.427 . S
C7 C13 1.416 . S
C8 C1 1.424 . S
C8 C7 1.413 . S
C8 N12 1.361 . S
C9 C7 1.427 . S
C9 C10 1.328 . S
C9 H24 0.929 . S
C10 C4 1.448 . S
C10 C9 1.328 . S
C10 H25 0.930 . S
Tb11 N2 2.617 . S
Tb11 N12 2.572 . S
Tb11 O46 2.349 1_655 S
Tb11 O49 2.393 . S
Tb11 O50 2.464 . S
Tb11 O51 2.387 . S
Tb11 O53 2.428 . S
Tb11 O54 2.308 1_655 S
Tb11 C75 2.802 . S
N12 C8 1.361 . S
N12 Tb11 2.572 . S
N12 C14 1.340 . S
C13 C7 1.416 . S
C13 C15 1.332 . S
C13 H21 0.931 . S
C14 N12 1.340 . S
C14 C15 1.407 . S
C14 H20 0.930 . S
C15 C13 1.332 . S
C15 C14 1.407 . S
C15 H17 0.929 . S
H16 C5 0.930 . S
H17 C15 0.929 . S
H18 C33 0.930 . S
H19 C40 0.929 . S
H20 C14 0.930 . S
H21 C13 0.931 . S
H22 C36 0.930 . S
H23 C3 0.930 . S
H24 C9 0.929 . S
H25 C10 0.930 . S
H26 C31 0.930 . S
H27 C6 0.930 . S
H28 C39 0.931 . S
N29 Tb0 2.617 . S
N29 C30 1.379 . S
N29 C33 1.334 . S
C30 N29 1.379 . S
C30 C32 1.416 . S
C30 C38 1.424 . S
C31 H26 0.930 . S
C31 C33 1.390 . S
C31 C34 1.339 . S
C32 C30 1.416 . S
C32 C34 1.416 . S
C32 C65 1.448 . S
C33 H18 0.930 . S
C33 N29 1.334 . S
C33 C31 1.390 . S
C34 C31 1.339 . S
C34 C32 1.416 . S
C34 H41 0.930 . S
N35 Tb0 2.572 . S
N35 C36 1.340 . S
N35 C38 1.361 . S
C36 H22 0.930 . S
C36 N35 1.340 . S
C36 C40 1.407 . S
C37 C38 1.413 . S
C37 C39 1.416 . S
C37 C66 1.427 . S
C38 C30 1.424 . S
C38 N35 1.361 . S
C38 C37 1.413 . S
C39 H28 0.931 . S
C39 C37 1.416 . S
C39 C40 1.332 . S
C40 H19 0.929 . S
C40 C36 1.407 . S
C40 C39 1.332 . S
H41 C34 0.930 . S
H42 C65 0.930 . S
H43 C66 0.929 . S
O44 Tb0 2.465 . S
O44 C64 1.264 . S
O45 Tb0 2.387 . S
O45 C56 1.264 . S
O46 Tb11 2.349 1_455 S
O46 C56 1.243 . S
O47 Tb0 2.428 . S
O47 C64 1.256 . S
O48 Tb0 2.308 1_655 S
O48 C63 1.266 . S
O49 Tb11 2.393 . S
O49 C63 1.248 . S
O50 Tb11 2.464 . S
O50 C75 1.263 . S
O51 Tb11 2.387 . S
O51 C67 1.264 . S
O52 Tb0 2.349 1_655 S
O52 C67 1.243 . S
O53 Tb11 2.428 . S
O53 C75 1.256 . S
O54 Tb11 2.308 1_455 S
O54 C74 1.266 . S
O55 Tb0 2.393 . S
O55 C74 1.248 . S
C56 O45 1.264 . S
C56 O46 1.243 . S
C57 C60 1.399 . S
C57 C62 1.383 1_455 S
C57 C64 1.496 . S
C58 C59 1.399 1_655 S
C58 C62 1.389 . S
C59 C58 1.399 1_455 S
C59 C61 1.380 . S
C59 H76 0.929 . S
C60 C57 1.399 . S
C60 C61 1.392 . S
C60 H77 0.929 . S
C61 C59 1.380 . S
C61 C60 1.392 . S
C61 H78 0.929 . S
C62 C57 1.383 1_655 S
C62 C58 1.389 . S
C62 H79 0.931 . S
C63 O48 1.266 . S
C63 O49 1.248 . S
C64 Tb0 2.802 . S
C64 O44 1.264 . S
C64 O47 1.256 . S
C64 C57 1.496 . S
C65 C32 1.448 . S
C65 H42 0.930 . S
C65 C66 1.328 . S
C66 C37 1.427 . S
C66 H43 0.929 . S
C66 C65 1.328 . S
C67 O51 1.264 . S
C67 O52 1.243 . S
C68 C71 1.399 . S
C68 C72 1.383 1_655 S
C68 C75 1.496 . S
C69 C70 1.399 1_455 S
C69 C72 1.389 . S
C70 C69 1.399 1_655 S
C70 C73 1.380 . S
C70 H80 0.929 . S
C71 C68 1.399 . S
C71 C73 1.392 . S
C71 H81 0.929 . S
C72 C68 1.383 1_455 S
C72 C69 1.389 . S
C72 H82 0.931 . S
C73 C70 1.380 . S
C73 C71 1.392 . S
C73 H83 0.929 . S
C74 O54 1.266 . S
C74 O55 1.248 . S
C75 Tb11 2.802 . S
C75 O50 1.263 . S
C75 O53 1.256 . S
C75 C68 1.496 . S
H76 C59 0.929 . S
H77 C60 0.929 . S
H78 C61 0.929 . S
H79 C62 0.931 . S
H80 C70 0.929 . S
H81 C71 0.929 . S
H82 C72 0.931 . S
H83 C73 0.929 . S
Tb84 N113 2.617 . S
Tb84 N119 2.572 . S
Tb84 O128 2.465 . S
Tb84 O129 2.387 . S
Tb84 O131 2.428 . S
Tb84 O132 2.308 . S
Tb84 O136 2.349 . S
Tb84 O139 2.393 . S
Tb84 C148 2.802 . S
C85 N86 1.379 . S
C85 C88 1.416 . S
C85 C92 1.424 . S
N86 C85 1.379 . S
N86 C89 1.334 . S
N86 Tb95 2.617 . S
C87 C89 1.390 . S
C87 C90 1.339 . S
C87 H107 0.930 . S
C88 C85 1.416 . S
C88 C90 1.416 . S
C88 C94 1.448 . S
C89 N86 1.334 . S
C89 C87 1.390 . S
C89 H100 0.930 . S
C90 C87 1.339 . S
C90 C88 1.416 . S
C90 H111 0.930 . S
C91 C92 1.413 . S
C91 C93 1.427 . S
C91 C97 1.416 . S
C92 C85 1.424 . S
C92 C91 1.413 . S
C92 N96 1.361 . S
C93 C91 1.427 . S
C93 C94 1.328 . S
C93 H108 0.929 . S
C94 C88 1.448 . S
C94 C93 1.328 . S
C94 H109 0.930 . S
Tb95 N86 2.617 . S
Tb95 N96 2.572 . S
Tb95 O130 2.349 . S
Tb95 O133 2.393 . S
Tb95 O134 2.465 . S
Tb95 O135 2.387 . S
Tb95 O137 2.428 . S
Tb95 O138 2.308 . S
Tb95 C159 2.802 . S
N96 C92 1.361 . S
N96 Tb95 2.572 . S
N96 C98 1.340 . S
C97 C91 1.416 . S
C97 C99 1.332 . S
C97 H105 0.931 . S
C98 N96 1.340 . S
C98 C99 1.407 . S
C98 H104 0.930 . S
C99 C97 1.332 . S
C99 C98 1.407 . S
C99 H101 0.929 . S
H100 C89 0.930 . S
H101 C99 0.929 . S
H102 C117 0.930 . S
H103 C124 0.929 . S
H104 C98 0.930 . S
H105 C97 0.931 . S
H106 C120 0.930 . S
H107 C87 0.930 . S
H108 C93 0.929 . S
H109 C94 0.930 . S
H110 C115 0.930 . S
H111 C90 0.930 . S
H112 C123 0.931 . S
N113 Tb84 2.617 . S
N113 C114 1.379 . S
N113 C117 1.334 . S
C114 N113 1.379 . S
C114 C116 1.416 . S
C114 C122 1.424 . S
C115 H110 0.930 . S
C115 C117 1.390 . S
C115 C118 1.339 . S
C116 C114 1.416 . S
C116 C118 1.416 . S
C116 C149 1.448 . S
C117 H102 0.930 . S
C117 N113 1.334 . S
C117 C115 1.390 . S
C118 C115 1.339 . S
C118 C116 1.416 . S
C118 H125 0.930 . S
N119 Tb84 2.572 . S
N119 C120 1.340 . S
N119 C122 1.361 . S
C120 H106 0.930 . S
C120 N119 1.340 . S
C120 C124 1.407 . S
C121 C122 1.413 . S
C121 C123 1.416 . S
C121 C150 1.427 . S
C122 C114 1.424 . S
C122 N119 1.361 . S
C122 C121 1.413 . S
C123 H112 0.931 . S
C123 C121 1.416 . S
C123 C124 1.332 . S
C124 H103 0.929 . S
C124 C120 1.407 . S
C124 C123 1.332 . S
H125 C118 0.930 . S
H126 C149 0.930 . S
H127 C150 0.929 . S
O128 Tb84 2.465 . S
O128 C148 1.264 . S
O129 Tb84 2.387 . S
O129 C140 1.264 . S
O130 Tb95 2.349 . S
O130 C140 1.243 . S
O131 Tb84 2.428 . S
O131 C148 1.256 . S
O132 Tb84 2.308 . S
O132 C147 1.266 . S
O133 Tb95 2.393 . S
O133 C147 1.248 . S
O134 Tb95 2.465 . S
O134 C159 1.264 . S
O135 Tb95 2.387 . S
O135 C151 1.264 . S
O136 Tb84 2.349 . S
O136 C151 1.243 . S
O137 Tb95 2.428 . S
O137 C159 1.256 . S
O138 Tb95 2.308 . S
O138 C158 1.266 . S
O139 Tb84 2.393 . S
O139 C158 1.248 . S
C140 O129 1.264 . S
C140 O130 1.243 . S
C141 C144 1.399 . S
C141 C146 1.383 . S
C141 C148 1.496 . S
C142 C143 1.399 . S
C142 C146 1.389 . S
C143 C142 1.399 . S
C143 C145 1.380 . S
C143 H160 0.929 . S
C144 C141 1.399 . S
C144 C145 1.392 . S
C144 H161 0.929 . S
C145 C143 1.380 . S
C145 C144 1.392 . S
C145 H162 0.929 . S
C146 C141 1.383 . S
C146 C142 1.389 . S
C146 H163 0.931 . S
C147 O132 1.266 . S
C147 O133 1.248 . S
C148 Tb84 2.802 . S
C148 O128 1.264 . S
C148 O131 1.256 . S
C148 C141 1.496 . S
C149 C116 1.448 . S
C149 H126 0.930 . S
C149 C150 1.328 . S
C150 C121 1.427 . S
C150 H127 0.929 . S
C150 C149 1.328 . S
C151 O135 1.264 . S
C151 O136 1.243 . S
C152 C155 1.399 . S
C152 C156 1.383 . S
C152 C159 1.496 . S
C153 C154 1.399 . S
C153 C156 1.389 . S
C154 C153 1.399 . S
C154 C157 1.380 . S
C154 H164 0.929 . S
C155 C152 1.399 . S
C155 C157 1.392 . S
C155 H165 0.929 . S
C156 C152 1.383 . S
C156 C153 1.389 . S
C156 H166 0.931 . S
C157 C154 1.380 . S
C157 C155 1.392 . S
C157 H167 0.929 . S
C158 O138 1.266 . S
C158 O139 1.248 . S
C159 Tb95 2.802 . S
C159 O134 1.264 . S
C159 O137 1.256 . S
C159 C152 1.496 . S
H160 C143 0.929 . S
H161 C144 0.929 . S
H162 C145 0.929 . S
H163 C146 0.931 . S
H164 C154 0.929 . S
H165 C155 0.929 . S
H166 C156 0.931 . S
H167 C157 0.929 . S
Tb168 N197 2.617 . S
Tb168 N203 2.572 . S
Tb168 O212 2.469 . S
Tb168 O213 2.387 . S
Tb168 O215 2.428 . S
Tb168 O216 2.308 1_565 S
Tb168 O220 2.349 1_565 S
Tb168 O223 2.393 . S
Tb168 C232 2.802 . S
C169 N170 1.379 . S
C169 C172 1.416 . S
C169 C176 1.424 . S
N170 C169 1.379 . S
N170 C173 1.334 . S
N170 Tb179 2.617 . S
C171 C173 1.390 . S
C171 C174 1.339 . S
C171 H191 0.930 . S
C172 C169 1.416 . S
C172 C174 1.416 . S
C172 C178 1.448 . S
C173 N170 1.334 . S
C173 C171 1.390 . S
C173 H184 0.930 . S
C174 C171 1.339 . S
C174 C172 1.416 . S
C174 H195 0.930 . S
C175 C176 1.413 . S
C175 C177 1.427 . S
C175 C181 1.416 . S
C176 C169 1.424 . S
C176 C175 1.413 . S
C176 N180 1.361 . S
C177 C175 1.427 . S
C177 C178 1.328 . S
C177 H192 0.929 . S
C178 C172 1.448 . S
C178 C177 1.328 . S
C178 H193 0.930 . S
Tb179 N170 2.617 . S
Tb179 N180 2.572 . S
Tb179 O214 2.349 1_545 S
Tb179 O217 2.393 . S
Tb179 O218 2.465 . S
Tb179 O219 2.387 . S
Tb179 O221 2.428 . S
Tb179 O222 2.308 1_545 S
Tb179 C243 2.802 . S
N180 C176 1.361 . S
N180 Tb179 2.572 . S
N180 C182 1.340 . S
C181 C175 1.416 . S
C181 C183 1.332 . S
C181 H189 0.931 . S
C182 N180 1.340 . S
C182 C183 1.407 . S
C182 H188 0.930 . S
C183 C181 1.332 . S
C183 C182 1.407 . S
C183 H185 0.929 . S
H184 C173 0.930 . S
H185 C183 0.929 . S
H186 C201 0.930 . S
H187 C208 0.929 . S
H188 C182 0.930 . S
H189 C181 0.931 . S
H190 C204 0.930 . S
H191 C171 0.930 . S
H192 C177 0.929 . S
H193 C178 0.930 . S
H194 C199 0.930 . S
H195 C174 0.930 . S
H196 C207 0.931 . S
N197 Tb168 2.617 . S
N197 C198 1.379 . S
N197 C201 1.334 . S
C198 N197 1.379 . S
C198 C200 1.416 . S
C198 C206 1.424 . S
C199 H194 0.930 . S
C199 C201 1.390 . S
C199 C202 1.339 . S
C200 C198 1.416 . S
C200 C202 1.416 . S
C200 C233 1.448 . S
C201 H186 0.930 . S
C201 N197 1.334 . S
C201 C199 1.390 . S
C202 C199 1.339 . S
C202 C200 1.416 . S
C202 H209 0.930 . S
N203 Tb168 2.572 . S
N203 C204 1.340 . S
N203 C206 1.361 . S
C204 H190 0.930 . S
C204 N203 1.340 . S
C204 C208 1.407 . S
C205 C206 1.413 . S
C205 C207 1.416 . S
C205 C234 1.427 . S
C206 C198 1.424 . S
C206 N203 1.361 . S
C206 C205 1.413 . S
C207 H196 0.931 . S
C207 C205 1.416 . S
C207 C208 1.332 . S
C208 H187 0.929 . S
C208 C204 1.407 . S
C208 C207 1.332 . S
H209 C202 0.930 . S
H210 C233 0.930 . S
H211 C234 0.929 . S
O212 Tb168 2.469 . S
O212 C232 1.270 . S
O213 Tb168 2.387 . S
O213 C224 1.264 . S
O214 Tb179 2.349 1_565 S
O214 C224 1.243 . S
O215 Tb168 2.428 . S
O215 C232 1.256 . S
O216 Tb168 2.308 1_545 S
O216 C231 1.266 . S
O217 Tb179 2.393 . S
O217 C231 1.248 . S
O218 Tb179 2.465 . S
O218 C243 1.264 . S
O219 Tb179 2.387 . S
O219 C235 1.264 . S
O220 Tb168 2.349 1_545 S
O220 C235 1.243 . S
O221 Tb179 2.428 . S
O221 C243 1.256 . S
O222 Tb179 2.308 1_565 S
O222 C242 1.266 . S
O223 Tb168 2.393 . S
O223 C242 1.248 . S
C224 O213 1.264 . S
C224 O214 1.243 . S
C225 C228 1.399 . S
C225 C230 1.383 1_565 S
C225 C232 1.496 . S
C226 C227 1.399 1_545 S
C226 C230 1.389 . S
C227 C226 1.399 1_565 S
C227 C229 1.380 . S
C227 H244 0.929 . S
C228 C225 1.399 . S
C228 C229 1.392 . S
C228 H245 0.929 . S
C229 C227 1.380 . S
C229 C228 1.392 . S
C229 H246 0.929 . S
C230 C225 1.383 1_545 S
C230 C226 1.389 . S
C230 H247 0.931 . S
C231 O216 1.266 . S
C231 O217 1.248 . S
C232 Tb168 2.802 . S
C232 O212 1.270 . S
C232 O215 1.256 . S
C232 C225 1.496 . S
C233 C200 1.448 . S
C233 H210 0.930 . S
C233 C234 1.328 . S
C234 C205 1.427 . S
C234 H211 0.929 . S
C234 C233 1.328 . S
C235 O219 1.264 . S
C235 O220 1.243 . S
C236 C239 1.399 . S
C236 C240 1.383 1_545 S
C236 C243 1.496 . S
C237 C238 1.399 1_565 S
C237 C240 1.389 . S
C238 C237 1.399 1_545 S
C238 C241 1.380 . S
C238 H248 0.929 . S
C239 C236 1.399 . S
C239 C241 1.392 . S
C239 H249 0.929 . S
C240 C236 1.383 1_565 S
C240 C237 1.389 . S
C240 H250 0.931 . S
C241 C238 1.380 . S
C241 C239 1.392 . S
C241 H251 0.929 . S
C242 O222 1.266 . S
C242 O223 1.248 . S
C243 Tb179 2.802 . S
C243 O218 1.264 . S
C243 O221 1.256 . S
C243 C236 1.496 . S
H244 C227 0.929 . S
H245 C228 0.929 . S
H246 C229 0.929 . S
H247 C230 0.931 . S
H248 C238 0.929 . S
H249 C239 0.929 . S
H250 C240 0.931 . S
H251 C241 0.929 . S
Tb252 N281 2.617 . S
Tb252 N287 2.572 . S
Tb252 O296 2.465 . S
Tb252 O297 2.387 . S
Tb252 O299 2.428 . S
Tb252 O300 2.308 1_455 S
Tb252 O304 2.349 1_455 S
Tb252 O307 2.393 . S
Tb252 C316 2.802 . S
C253 N254 1.379 . S
C253 C256 1.416 . S
C253 C260 1.424 . S
N254 C253 1.379 . S
N254 C257 1.334 . S
N254 Tb263 2.617 . S
C255 C257 1.390 . S
C255 C258 1.339 . S
C255 H275 0.930 . S
C256 C253 1.416 . S
C256 C258 1.416 . S
C256 C262 1.448 . S
C257 N254 1.334 . S
C257 C255 1.390 . S
C257 H268 0.930 . S
C258 C255 1.339 . S
C258 C256 1.416 . S
C258 H279 0.930 . S
C259 C260 1.413 . S
C259 C261 1.427 . S
C259 C265 1.416 . S
C260 C253 1.424 . S
C260 C259 1.413 . S
C260 N264 1.361 . S
C261 C259 1.427 . S
C261 C262 1.328 . S
C261 H276 0.929 . S
C262 C256 1.448 . S
C262 C261 1.328 . S
C262 H277 0.930 . S
Tb263 N254 2.617 . S
Tb263 N264 2.572 . S
Tb263 O298 2.349 1_655 S
Tb263 O301 2.393 . S
Tb263 O302 2.474 . S
Tb263 O303 2.387 . S
Tb263 O305 2.428 . S
Tb263 O306 2.308 1_655 S
Tb263 C327 2.802 . S
N264 C260 1.361 . S
N264 Tb263 2.572 . S
N264 C266 1.340 . S
C265 C259 1.416 . S
C265 C267 1.332 . S
C265 H273 0.931 . S
C266 N264 1.340 . S
C266 C267 1.407 . S
C266 H272 0.930 . S
C267 C265 1.332 . S
C267 C266 1.407 . S
C267 H269 0.929 . S
H268 C257 0.930 . S
H269 C267 0.929 . S
H270 C285 0.930 . S
H271 C292 0.929 . S
H272 C266 0.930 . S
H273 C265 0.931 . S
H274 C288 0.930 . S
H275 C255 0.930 . S
H276 C261 0.929 . S
H277 C262 0.930 . S
H278 C283 0.930 . S
H279 C258 0.930 . S
H280 C291 0.931 . S
N281 Tb252 2.617 . S
N281 C282 1.379 . S
N281 C285 1.334 . S
C282 N281 1.379 . S
C282 C284 1.416 . S
C282 C290 1.424 . S
C283 H278 0.930 . S
C283 C285 1.390 . S
C283 C286 1.339 . S
C284 C282 1.416 . S
C284 C286 1.416 . S
C284 C317 1.448 . S
C285 H270 0.930 . S
C285 N281 1.334 . S
C285 C283 1.390 . S
C286 C283 1.339 . S
C286 C284 1.416 . S
C286 H293 0.930 . S
N287 Tb252 2.572 . S
N287 C288 1.340 . S
N287 C290 1.361 . S
C288 H274 0.930 . S
C288 N287 1.340 . S
C288 C292 1.407 . S
C289 C290 1.413 . S
C289 C291 1.416 . S
C289 C318 1.427 . S
C290 C282 1.424 . S
C290 N287 1.361 . S
C290 C289 1.413 . S
C291 H280 0.931 . S
C291 C289 1.416 . S
C291 C292 1.332 . S
C292 H271 0.929 . S
C292 C288 1.407 . S
C292 C291 1.332 . S
H293 C286 0.930 . S
H294 C317 0.930 . S
H295 C318 0.929 . S
O296 Tb252 2.465 . S
O296 C316 1.264 . S
O297 Tb252 2.387 . S
O297 C308 1.264 . S
O298 Tb263 2.349 1_455 S
O298 C308 1.243 . S
O299 Tb252 2.428 . S
O299 C316 1.256 . S
O300 Tb252 2.308 1_655 S
O300 C315 1.266 . S
O301 Tb263 2.393 . S
O301 C315 1.248 . S
O302 Tb263 2.474 . S
O302 C327 1.266 . S
O303 Tb263 2.387 . S
O303 C319 1.264 . S
O304 Tb252 2.349 1_655 S
O304 C319 1.243 . S
O305 Tb263 2.428 . S
O305 C327 1.256 . S
O306 Tb263 2.308 1_455 S
O306 C326 1.266 . S
O307 Tb252 2.393 . S
O307 C326 1.248 . S
C308 O297 1.264 . S
C308 O298 1.243 . S
C309 C312 1.399 . S
C309 C314 1.383 1_455 S
C309 C316 1.496 . S
C310 C311 1.399 1_655 S
C310 C314 1.389 . S
C311 C310 1.399 1_455 S
C311 C313 1.380 . S
C311 H328 0.929 . S
C312 C309 1.399 . S
C312 C313 1.392 . S
C312 H329 0.929 . S
C313 C311 1.380 . S
C313 C312 1.392 . S
C313 H330 0.929 . S
C314 C309 1.383 1_655 S
C314 C310 1.389 . S
C314 H331 0.931 . S
C315 O300 1.266 . S
C315 O301 1.248 . S
C316 Tb252 2.802 . S
C316 O296 1.264 . S
C316 O299 1.256 . S
C316 C309 1.496 . S
C317 C284 1.448 . S
C317 H294 0.930 . S
C317 C318 1.328 . S
C318 C289 1.427 . S
C318 H295 0.929 . S
C318 C317 1.328 . S
C319 O303 1.264 . S
C319 O304 1.243 . S
C320 C323 1.399 . S
C320 C324 1.383 1_655 S
C320 C327 1.496 . S
C321 C322 1.399 1_455 S
C321 C324 1.389 . S
C322 C321 1.399 1_655 S
C322 C325 1.380 . S
C322 H332 0.929 . S
C323 C320 1.399 . S
C323 C325 1.392 . S
C323 H333 0.929 . S
C324 C320 1.383 1_455 S
C324 C321 1.389 . S
C324 H334 0.931 . S
C325 C322 1.380 . S
C325 C323 1.392 . S
C325 H335 0.929 . S
C326 O306 1.266 . S
C326 O307 1.248 . S
C327 Tb263 2.802 . S
C327 O302 1.266 . S
C327 O305 1.256 . S
C327 C320 1.496 . S
H328 C311 0.929 . S
H329 C312 0.929 . S
H330 C313 0.929 . S
H331 C314 0.931 . S
H332 C322 0.929 . S
H333 C323 0.929 . S
H334 C324 0.931 . S
H335 C325 0.929 . S
Tb336 N365 2.617 . S
Tb336 N371 2.572 . S
Tb336 O380 2.465 . S
Tb336 O381 2.387 . S
Tb336 O383 2.428 . S
Tb336 O384 2.308 . S
Tb336 O388 2.349 . S
Tb336 O391 2.393 . S
Tb336 C400 2.802 . S
C337 N338 1.379 . S
C337 C340 1.416 . S
C337 C344 1.424 . S
N338 C337 1.379 . S
N338 C341 1.334 . S
N338 Tb347 2.617 . S
C339 C341 1.390 . S
C339 C342 1.339 . S
C339 H359 0.930 . S
C340 C337 1.416 . S
C340 C342 1.416 . S
C340 C346 1.448 . S
C341 N338 1.334 . S
C341 C339 1.390 . S
C341 H352 0.930 . S
C342 C339 1.339 . S
C342 C340 1.416 . S
C342 H363 0.930 . S
C343 C344 1.413 . S
C343 C345 1.427 . S
C343 C349 1.416 . S
C344 C337 1.424 . S
C344 C343 1.413 . S
C344 N348 1.361 . S
C345 C343 1.427 . S
C345 C346 1.328 . S
C345 H360 0.929 . S
C346 C340 1.448 . S
C346 C345 1.328 . S
C346 H361 0.930 . S
Tb347 N338 2.617 . S
Tb347 N348 2.572 . S
Tb347 O382 2.349 . S
Tb347 O385 2.393 . S
Tb347 O386 2.465 . S
Tb347 O387 2.387 . S
Tb347 O389 2.428 . S
Tb347 O390 2.308 . S
Tb347 C411 2.802 . S
N348 C344 1.361 . S
N348 Tb347 2.572 . S
N348 C350 1.340 . S
C349 C343 1.416 . S
C349 C351 1.332 . S
C349 H357 0.931 . S
C350 N348 1.340 . S
C350 C351 1.407 . S
C350 H356 0.930 . S
C351 C349 1.332 . S
C351 C350 1.407 . S
C351 H353 0.929 . S
H352 C341 0.930 . S
H353 C351 0.929 . S
H354 C369 0.930 . S
H355 C376 0.929 . S
H356 C350 0.930 . S
H357 C349 0.931 . S
H358 C372 0.930 . S
H359 C339 0.930 . S
H360 C345 0.929 . S
H361 C346 0.930 . S
H362 C367 0.930 . S
H363 C342 0.930 . S
H364 C375 0.931 . S
N365 Tb336 2.617 . S
N365 C366 1.379 . S
N365 C369 1.334 . S
C366 N365 1.379 . S
C366 C368 1.416 . S
C366 C374 1.424 . S
C367 H362 0.930 . S
C367 C369 1.390 . S
C367 C370 1.339 . S
C368 C366 1.416 . S
C368 C370 1.416 . S
C368 C401 1.448 . S
C369 H354 0.930 . S
C369 N365 1.334 . S
C369 C367 1.390 . S
C370 C367 1.339 . S
C370 C368 1.416 . S
C370 H377 0.930 . S
N371 Tb336 2.572 . S
N371 C372 1.340 . S
N371 C374 1.361 . S
C372 H358 0.930 . S
C372 N371 1.340 . S
C372 C376 1.407 . S
C373 C374 1.413 . S
C373 C375 1.416 . S
C373 C402 1.427 . S
C374 C366 1.424 . S
C374 N371 1.361 . S
C374 C373 1.413 . S
C375 H364 0.931 . S
C375 C373 1.416 . S
C375 C376 1.332 . S
C376 H355 0.929 . S
C376 C372 1.407 . S
C376 C375 1.332 . S
H377 C370 0.930 . S
H378 C401 0.930 . S
H379 C402 0.929 . S
O380 Tb336 2.465 . S
O380 C400 1.264 . S
O381 Tb336 2.387 . S
O381 C392 1.264 . S
O382 Tb347 2.349 . S
O382 C392 1.243 . S
O383 Tb336 2.428 . S
O383 C400 1.256 . S
O384 Tb336 2.308 . S
O384 C399 1.266 . S
O385 Tb347 2.393 . S
O385 C399 1.248 . S
O386 Tb347 2.465 . S
O386 C411 1.264 . S
O387 Tb347 2.387 . S
O387 C403 1.264 . S
O388 Tb336 2.349 . S
O388 C403 1.243 . S
O389 Tb347 2.428 . S
O389 C411 1.256 . S
O390 Tb347 2.308 . S
O390 C410 1.266 . S
O391 Tb336 2.393 . S
O391 C410 1.248 . S
C392 O381 1.264 . S
C392 O382 1.243 . S
C393 C396 1.399 . S
C393 C398 1.383 . S
C393 C400 1.496 . S
C394 C395 1.399 . S
C394 C398 1.389 . S
C395 C394 1.399 . S
C395 C397 1.380 . S
C395 H412 0.929 . S
C396 C393 1.399 . S
C396 C397 1.392 . S
C396 H413 0.929 . S
C397 C395 1.380 . S
C397 C396 1.392 . S
C397 H414 0.929 . S
C398 C393 1.383 . S
C398 C394 1.389 . S
C398 H415 0.931 . S
C399 O384 1.266 . S
C399 O385 1.248 . S
C400 Tb336 2.802 . S
C400 O380 1.264 . S
C400 O383 1.256 . S
C400 C393 1.496 . S
C401 C368 1.448 . S
C401 H378 0.930 . S
C401 C402 1.328 . S
C402 C373 1.427 . S
C402 H379 0.929 . S
C402 C401 1.328 . S
C403 O387 1.264 . S
C403 O388 1.243 . S
C404 C407 1.399 . S
C404 C408 1.383 . S
C404 C411 1.496 . S
C405 C406 1.399 . S
C405 C408 1.389 . S
C406 C405 1.399 . S
C406 C409 1.380 . S
C406 H416 0.929 . S
C407 C404 1.399 . S
C407 C409 1.392 . S
C407 H417 0.929 . S
C408 C404 1.383 . S
C408 C405 1.389 . S
C408 H418 0.931 . S
C409 C406 1.380 . S
C409 C407 1.392 . S
C409 H419 0.929 . S
C410 O390 1.266 . S
C410 O391 1.248 . S
C411 Tb347 2.802 . S
C411 O386 1.264 . S
C411 O389 1.256 . S
C411 C404 1.496 . S
H412 C395 0.929 . S
H413 C396 0.929 . S
H414 C397 0.929 . S
H415 C398 0.931 . S
H416 C406 0.929 . S
H417 C407 0.929 . S
H418 C408 0.931 . S
H419 C409 0.929 . S
Tb420 N449 2.617 . S
Tb420 N455 2.572 . S
Tb420 O464 2.460 1_565 S
Tb420 O465 2.387 . S
Tb420 O467 2.428 . S
Tb420 O468 2.308 1_565 S
Tb420 O472 2.349 1_565 S
Tb420 O475 2.393 . S
Tb420 C484 2.802 . S
C421 N422 1.379 . S
C421 C424 1.416 . S
C421 C428 1.424 . S
N422 C421 1.379 . S
N422 C425 1.334 . S
N422 Tb431 2.617 . S
C423 C425 1.390 . S
C423 C426 1.339 . S
C423 H443 0.930 . S
C424 C421 1.416 . S
C424 C426 1.416 . S
C424 C430 1.448 . S
C425 N422 1.334 . S
C425 C423 1.390 . S
C425 H436 0.930 . S
C426 C423 1.339 . S
C426 C424 1.416 . S
C426 H447 0.930 . S
C427 C428 1.413 . S
C427 C429 1.427 . S
C427 C433 1.416 . S
C428 C421 1.424 . S
C428 C427 1.413 . S
C428 N432 1.361 . S
C429 C427 1.427 . S
C429 C430 1.328 . S
C429 H444 0.929 . S
C430 C424 1.448 . S
C430 C429 1.328 . S
C430 H445 0.930 . S
Tb431 N422 2.617 . S
Tb431 N432 2.572 . S
Tb431 O466 2.349 1_545 S
Tb431 O469 2.393 . S
Tb431 O470 2.465 . S
Tb431 O471 2.387 . S
Tb431 O473 2.428 . S
Tb431 O474 2.308 1_545 S
Tb431 C495 2.802 . S
N432 C428 1.361 . S
N432 Tb431 2.572 . S
N432 C434 1.340 . S
C433 C427 1.416 . S
C433 C435 1.332 . S
C433 H441 0.931 . S
C434 N432 1.340 . S
C434 C435 1.407 . S
C434 H440 0.930 . S
C435 C433 1.332 . S
C435 C434 1.407 . S
C435 H437 0.929 . S
H436 C425 0.930 . S
H437 C435 0.929 . S
H438 C453 0.930 . S
H439 C460 0.929 . S
H440 C434 0.930 . S
H441 C433 0.931 . S
H442 C456 0.930 . S
H443 C423 0.930 . S
H444 C429 0.929 . S
H445 C430 0.930 . S
H446 C451 0.930 . S
H447 C426 0.930 . S
H448 C459 0.931 . S
N449 Tb420 2.617 . S
N449 C450 1.379 . S
N449 C453 1.334 . S
C450 N449 1.379 . S
C450 C452 1.416 . S
C450 C458 1.424 . S
C451 H446 0.930 . S
C451 C453 1.390 . S
C451 C454 1.339 . S
C452 C450 1.416 . S
C452 C454 1.416 . S
C452 C485 1.448 . S
C453 H438 0.930 . S
C453 N449 1.334 . S
C453 C451 1.390 . S
C454 C451 1.339 . S
C454 C452 1.416 . S
C454 H461 0.930 . S
N455 Tb420 2.572 . S
N455 C456 1.340 . S
N455 C458 1.361 . S
C456 H442 0.930 . S
C456 N455 1.340 . S
C456 C460 1.407 . S
C457 C458 1.413 . S
C457 C459 1.416 . S
C457 C486 1.427 . S
C458 C450 1.424 . S
C458 N455 1.361 . S
C458 C457 1.413 . S
C459 H448 0.931 . S
C459 C457 1.416 . S
C459 C460 1.332 . S
C460 H439 0.929 . S
C460 C456 1.407 . S
C460 C459 1.332 . S
H461 C454 0.930 . S
H462 C485 0.930 . S
H463 C486 0.929 . S
O464 Tb420 2.460 1_545 S
O464 C484 1.254 1_545 S
O465 Tb420 2.387 . S
O465 C476 1.264 . S
O466 Tb431 2.349 1_565 S
O466 C476 1.243 . S
O467 Tb420 2.428 . S
O467 C484 1.256 . S
O468 Tb420 2.308 1_545 S
O468 C483 1.266 . S
O469 Tb431 2.393 . S
O469 C483 1.248 . S
O470 Tb431 2.465 . S
O470 C495 1.264 . S
O471 Tb431 2.387 . S
O471 C487 1.264 . S
O472 Tb420 2.349 1_545 S
O472 C487 1.243 . S
O473 Tb431 2.428 . S
O473 C495 1.256 . S
O474 Tb431 2.308 1_565 S
O474 C494 1.266 . S
O475 Tb420 2.393 . S
O475 C494 1.248 . S
C476 O465 1.264 . S
C476 O466 1.243 . S
C477 C480 1.399 . S
C477 C482 1.383 1_565 S
C477 C484 1.496 . S
C478 C479 1.399 1_545 S
C478 C482 1.389 . S
C479 C478 1.399 1_565 S
C479 C481 1.380 . S
C479 H496 0.929 . S
C480 C477 1.399 . S
C480 C481 1.392 . S
C480 H497 0.929 . S
C481 C479 1.380 . S
C481 C480 1.392 . S
C481 H498 0.929 . S
C482 C477 1.383 1_545 S
C482 C478 1.389 . S
C482 H499 0.931 . S
C483 O468 1.266 . S
C483 O469 1.248 . S
C484 Tb420 2.802 . S
C484 O464 1.254 1_565 S
C484 O467 1.256 . S
C484 C477 1.496 . S
C485 C452 1.448 . S
C485 H462 0.930 . S
C485 C486 1.328 . S
C486 C457 1.427 . S
C486 H463 0.929 . S
C486 C485 1.328 . S
C487 O471 1.264 . S
C487 O472 1.243 . S
C488 C491 1.399 . S
C488 C492 1.383 1_545 S
C488 C495 1.496 . S
C489 C490 1.399 1_565 S
C489 C492 1.389 . S
C490 C489 1.399 1_545 S
C490 C493 1.380 . S
C490 H500 0.929 . S
C491 C488 1.399 . S
C491 C493 1.392 . S
C491 H501 0.929 . S
C492 C488 1.383 1_565 S
C492 C489 1.389 . S
C492 H502 0.931 . S
C493 C490 1.380 . S
C493 C491 1.392 . S
C493 H503 0.929 . S
C494 O474 1.266 . S
C494 O475 1.248 . S
C495 Tb431 2.802 . S
C495 O470 1.264 . S
C495 O473 1.256 . S
C495 C488 1.496 . S
H496 C479 0.929 . S
H497 C480 0.929 . S
H498 C481 0.929 . S
H499 C482 0.931 . S
H500 C490 0.929 . S
H501 C491 0.929 . S
H502 C492 0.931 . S
H503 C493 0.929 . S
Tb504 N533 2.617 . S
Tb504 N539 2.572 . S
Tb504 O548 2.465 . S
Tb504 O549 2.387 . S
Tb504 O551 2.428 . S
Tb504 O552 2.308 . S
Tb504 O556 2.349 . S
Tb504 O559 2.393 . S
Tb504 C568 2.802 1_556 S
C505 N506 1.379 . S
C505 C508 1.416 . S
C505 C512 1.424 . S
N506 C505 1.379 . S
N506 C509 1.334 . S
N506 Tb515 2.617 . S
C507 C509 1.390 . S
C507 C510 1.339 . S
C507 H527 0.930 . S
C508 C505 1.416 . S
C508 C510 1.416 . S
C508 C514 1.448 . S
C509 N506 1.334 . S
C509 C507 1.390 . S
C509 H520 0.930 . S
C510 C507 1.339 . S
C510 C508 1.416 . S
C510 H531 0.930 . S
C511 C512 1.413 . S
C511 C513 1.427 . S
C511 C517 1.416 . S
C512 C505 1.424 . S
C512 C511 1.413 . S
C512 N516 1.361 . S
C513 C511 1.427 . S
C513 C514 1.328 . S
C513 H528 0.929 . S
C514 C508 1.448 . S
C514 C513 1.328 . S
C514 H529 0.930 . S
Tb515 N506 2.617 . S
Tb515 N516 2.572 . S
Tb515 O550 2.349 . S
Tb515 O553 2.393 . S
Tb515 O554 2.465 . S
Tb515 O555 2.387 . S
Tb515 O557 2.428 . S
Tb515 O558 2.308 . S
Tb515 C579 2.802 . S
N516 C512 1.361 . S
N516 Tb515 2.572 . S
N516 C518 1.340 . S
C517 C511 1.416 . S
C517 C519 1.332 . S
C517 H525 0.931 . S
C518 N516 1.340 . S
C518 C519 1.407 . S
C518 H524 0.930 . S
C519 C517 1.332 . S
C519 C518 1.407 . S
C519 H521 0.929 . S
H520 C509 0.930 . S
H521 C519 0.929 . S
H522 C537 0.930 . S
H523 C544 0.929 . S
H524 C518 0.930 . S
H525 C517 0.931 . S
H526 C540 0.930 . S
H527 C507 0.930 . S
H528 C513 0.929 . S
H529 C514 0.930 . S
H530 C535 0.930 . S
H531 C510 0.930 . S
H532 C543 0.931 . S
N533 Tb504 2.617 . S
N533 C534 1.379 . S
N533 C537 1.334 . S
C534 N533 1.379 . S
C534 C536 1.416 . S
C534 C542 1.424 . S
C535 H530 0.930 . S
C535 C537 1.390 . S
C535 C538 1.339 . S
C536 C534 1.416 . S
C536 C538 1.416 . S
C536 C569 1.448 . S
C537 H522 0.930 . S
C537 N533 1.334 . S
C537 C535 1.390 . S
C538 C535 1.339 . S
C538 C536 1.416 . S
C538 H545 0.930 . S
N539 Tb504 2.572 . S
N539 C540 1.340 . S
N539 C542 1.361 . S
C540 H526 0.930 . S
C540 N539 1.340 . S
C540 C544 1.407 . S
C541 C542 1.413 . S
C541 C543 1.416 . S
C541 C570 1.427 . S
C542 C534 1.424 . S
C542 N539 1.361 . S
C542 C541 1.413 . S
C543 H532 0.931 . S
C543 C541 1.416 . S
C543 C544 1.332 . S
C544 H523 0.929 . S
C544 C540 1.407 . S
C544 C543 1.332 . S
H545 C538 0.930 . S
H546 C569 0.930 . S
H547 C570 0.929 . S
O548 Tb504 2.465 . S
O548 C568 1.264 1_556 S
O549 Tb504 2.387 . S
O549 C560 1.264 . S
O550 Tb515 2.349 . S
O550 C560 1.243 . S
O551 Tb504 2.428 . S
O551 C568 1.256 1_556 S
O552 Tb504 2.308 . S
O552 C567 1.266 . S
O553 Tb515 2.393 . S
O553 C567 1.248 . S
O554 Tb515 2.465 . S
O554 C579 1.264 . S
O555 Tb515 2.387 . S
O555 C571 1.264 . S
O556 Tb504 2.349 . S
O556 C571 1.243 . S
O557 Tb515 2.428 . S
O557 C579 1.256 . S
O558 Tb515 2.308 . S
O558 C578 1.266 . S
O559 Tb504 2.393 . S
O559 C578 1.248 . S
C560 O549 1.264 . S
C560 O550 1.243 . S
C561 C564 1.399 . S
C561 C566 1.383 . S
C561 C568 1.496 . S
C562 C563 1.399 . S
C562 C566 1.389 . S
C563 C562 1.399 . S
C563 C565 1.380 . S
C563 H580 0.929 . S
C564 C561 1.399 . S
C564 C565 1.392 . S
C564 H581 0.929 . S
C565 C563 1.380 . S
C565 C564 1.392 . S
C565 H582 0.929 . S
C566 C561 1.383 . S
C566 C562 1.389 . S
C566 H583 0.931 . S
C567 O552 1.266 . S
C567 O553 1.248 . S
C568 Tb504 2.802 1_554 S
C568 O548 1.264 1_554 S
C568 O551 1.256 1_554 S
C568 C561 1.496 . S
C569 C536 1.448 . S
C569 H546 0.930 . S
C569 C570 1.328 . S
C570 C541 1.427 . S
C570 H547 0.929 . S
C570 C569 1.328 . S
C571 O555 1.264 . S
C571 O556 1.243 . S
C572 C575 1.399 . S
C572 C576 1.383 . S
C572 C579 1.496 . S
C573 C574 1.399 . S
C573 C576 1.389 . S
C574 C573 1.399 . S
C574 C577 1.380 . S
C574 H584 0.929 . S
C575 C572 1.399 . S
C575 C577 1.392 . S
C575 H585 0.929 . S
C576 C572 1.383 . S
C576 C573 1.389 . S
C576 H586 0.931 . S
C577 C574 1.380 . S
C577 C575 1.392 . S
C577 H587 0.929 . S
C578 O558 1.266 . S
C578 O559 1.248 . S
C579 Tb515 2.802 . S
C579 O554 1.264 . S
C579 O557 1.256 . S
C579 C572 1.496 . S
H580 C563 0.929 . S
H581 C564 0.929 . S
H582 C565 0.929 . S
H583 C566 0.931 . S
H584 C574 0.929 . S
H585 C575 0.929 . S
H586 C576 0.931 . S
H587 C577 0.929 . S
Tb588 N617 2.617 . S
Tb588 N623 2.572 . S
Tb588 O632 2.465 . S
Tb588 O633 2.387 . S
Tb588 O635 2.428 . S
Tb588 O636 2.308 . S
Tb588 O640 2.349 . S
Tb588 O643 2.393 . S
Tb588 C652 2.802 1_556 S
C589 N590 1.379 . S
C589 C592 1.416 . S
C589 C596 1.424 . S
N590 C589 1.379 . S
N590 C593 1.334 . S
N590 Tb599 2.617 . S
C591 C593 1.390 . S
C591 C594 1.339 . S
C591 H611 0.930 . S
C592 C589 1.416 . S
C592 C594 1.416 . S
C592 C598 1.448 . S
C593 N590 1.334 . S
C593 C591 1.390 . S
C593 H604 0.930 . S
C594 C591 1.339 . S
C594 C592 1.416 . S
C594 H615 0.930 . S
C595 C596 1.413 . S
C595 C597 1.427 . S
C595 C601 1.416 . S
C596 C589 1.424 . S
C596 C595 1.413 . S
C596 N600 1.361 . S
C597 C595 1.427 . S
C597 C598 1.328 . S
C597 H612 0.929 . S
C598 C592 1.448 . S
C598 C597 1.328 . S
C598 H613 0.930 . S
Tb599 N590 2.617 . S
Tb599 N600 2.572 . S
Tb599 O634 2.349 . S
Tb599 O637 2.393 . S
Tb599 O638 2.465 . S
Tb599 O639 2.387 . S
Tb599 O641 2.428 . S
Tb599 O642 2.308 . S
Tb599 C663 2.802 . S
N600 C596 1.361 . S
N600 Tb599 2.572 . S
N600 C602 1.340 . S
C601 C595 1.416 . S
C601 C603 1.332 . S
C601 H609 0.931 . S
C602 N600 1.340 . S
C602 C603 1.407 . S
C602 H608 0.930 . S
C603 C601 1.332 . S
C603 C602 1.407 . S
C603 H605 0.929 . S
H604 C593 0.930 . S
H605 C603 0.929 . S
H606 C621 0.930 . S
H607 C628 0.929 . S
H608 C602 0.930 . S
H609 C601 0.931 . S
H610 C624 0.930 . S
H611 C591 0.930 . S
H612 C597 0.929 . S
H613 C598 0.930 . S
H614 C619 0.930 . S
H615 C594 0.930 . S
H616 C627 0.931 . S
N617 Tb588 2.617 . S
N617 C618 1.379 . S
N617 C621 1.334 . S
C618 N617 1.379 . S
C618 C620 1.416 . S
C618 C626 1.424 . S
C619 H614 0.930 . S
C619 C621 1.390 . S
C619 C622 1.339 . S
C620 C618 1.416 . S
C620 C622 1.416 . S
C620 C653 1.448 . S
C621 H606 0.930 . S
C621 N617 1.334 . S
C621 C619 1.390 . S
C622 C619 1.339 . S
C622 C620 1.416 . S
C622 H629 0.930 . S
N623 Tb588 2.572 . S
N623 C624 1.340 . S
N623 C626 1.361 . S
C624 H610 0.930 . S
C624 N623 1.340 . S
C624 C628 1.407 . S
C625 C626 1.413 . S
C625 C627 1.416 . S
C625 C654 1.427 . S
C626 C618 1.424 . S
C626 N623 1.361 . S
C626 C625 1.413 . S
C627 H616 0.931 . S
C627 C625 1.416 . S
C627 C628 1.332 . S
C628 H607 0.929 . S
C628 C624 1.407 . S
C628 C627 1.332 . S
H629 C622 0.930 . S
H630 C653 0.930 . S
H631 C654 0.929 . S
O632 Tb588 2.465 . S
O632 C652 1.264 1_556 S
O633 Tb588 2.387 . S
O633 C644 1.264 . S
O634 Tb599 2.349 . S
O634 C644 1.243 . S
O635 Tb588 2.428 . S
O635 C652 1.256 1_556 S
O636 Tb588 2.308 . S
O636 C651 1.266 . S
O637 Tb599 2.393 . S
O637 C651 1.248 . S
O638 Tb599 2.465 . S
O638 C663 1.264 . S
O639 Tb599 2.387 . S
O639 C655 1.264 . S
O640 Tb588 2.349 . S
O640 C655 1.243 . S
O641 Tb599 2.428 . S
O641 C663 1.256 . S
O642 Tb599 2.308 . S
O642 C662 1.266 . S
O643 Tb588 2.393 . S
O643 C662 1.248 . S
C644 O633 1.264 . S
C644 O634 1.243 . S
C645 C648 1.399 . S
C645 C650 1.383 . S
C645 C652 1.496 . S
C646 C647 1.399 . S
C646 C650 1.389 . S
C647 C646 1.399 . S
C647 C649 1.380 . S
C647 H664 0.929 . S
C648 C645 1.399 . S
C648 C649 1.392 . S
C648 H665 0.929 . S
C649 C647 1.380 . S
C649 C648 1.392 . S
C649 H666 0.929 . S
C650 C645 1.383 . S
C650 C646 1.389 . S
C650 H667 0.931 . S
C651 O636 1.266 . S
C651 O637 1.248 . S
C652 Tb588 2.802 1_554 S
C652 O632 1.264 1_554 S
C652 O635 1.256 1_554 S
C652 C645 1.496 . S
C653 C620 1.448 . S
C653 H630 0.930 . S
C653 C654 1.328 . S
C654 C625 1.427 . S
C654 H631 0.929 . S
C654 C653 1.328 . S
C655 O639 1.264 . S
C655 O640 1.243 . S
C656 C659 1.399 . S
C656 C660 1.383 . S
C656 C663 1.496 . S
C657 C658 1.399 . S
C657 C660 1.389 . S
C658 C657 1.399 . S
C658 C661 1.380 . S
C658 H668 0.929 . S
C659 C656 1.399 . S
C659 C661 1.392 . S
C659 H669 0.929 . S
C660 C656 1.383 . S
C660 C657 1.389 . S
C660 H670 0.931 . S
C661 C658 1.380 . S
C661 C659 1.392 . S
C661 H671 0.929 . S
C662 O642 1.266 . S
C662 O643 1.248 . S
C663 Tb599 2.802 . S
C663 O638 1.264 . S
C663 O641 1.256 . S
C663 C656 1.496 . S
H664 C647 0.929 . S
H665 C648 0.929 . S
H666 C649 0.929 . S
H667 C650 0.931 . S
H668 C658 0.929 . S
H669 C659 0.929 . S
H670 C660 0.931 . S
H671 C661 0.929 . S
Tb672 N701 2.617 . S
Tb672 N707 2.572 . S
Tb672 O716 2.465 . S
Tb672 O717 2.387 . S
Tb672 O719 2.428 . S
Tb672 O720 2.308 . S
Tb672 O724 2.349 . S
Tb672 O727 2.393 . S
Tb672 C736 2.802 1_556 S
C673 N674 1.379 . S
C673 C676 1.416 . S
C673 C680 1.424 . S
N674 C673 1.379 . S
N674 C677 1.334 . S
N674 Tb683 2.617 . S
C675 C677 1.390 . S
C675 C678 1.339 . S
C675 H695 0.930 . S
C676 C673 1.416 . S
C676 C678 1.416 . S
C676 C682 1.448 . S
C677 N674 1.334 . S
C677 C675 1.390 . S
C677 H688 0.930 . S
C678 C675 1.339 . S
C678 C676 1.416 . S
C678 H699 0.930 . S
C679 C680 1.413 . S
C679 C681 1.427 . S
C679 C685 1.416 . S
C680 C673 1.424 . S
C680 C679 1.413 . S
C680 N684 1.361 . S
C681 C679 1.427 . S
C681 C682 1.328 . S
C681 H696 0.929 . S
C682 C676 1.448 . S
C682 C681 1.328 . S
C682 H697 0.930 . S
Tb683 N674 2.617 . S
Tb683 N684 2.572 . S
Tb683 O718 2.349 . S
Tb683 O721 2.393 . S
Tb683 O722 2.465 . S
Tb683 O723 2.387 . S
Tb683 O725 2.428 . S
Tb683 O726 2.308 . S
Tb683 C747 2.802 . S
N684 C680 1.361 . S
N684 Tb683 2.572 . S
N684 C686 1.340 . S
C685 C679 1.416 . S
C685 C687 1.332 . S
C685 H693 0.931 . S
C686 N684 1.340 . S
C686 C687 1.407 . S
C686 H692 0.930 . S
C687 C685 1.332 . S
C687 C686 1.407 . S
C687 H689 0.929 . S
H688 C677 0.930 . S
H689 C687 0.929 . S
H690 C705 0.930 . S
H691 C712 0.929 . S
H692 C686 0.930 . S
H693 C685 0.931 . S
H694 C708 0.930 . S
H695 C675 0.930 . S
H696 C681 0.929 . S
H697 C682 0.930 . S
H698 C703 0.930 . S
H699 C678 0.930 . S
H700 C711 0.931 . S
N701 Tb672 2.617 . S
N701 C702 1.379 . S
N701 C705 1.334 . S
C702 N701 1.379 . S
C702 C704 1.416 . S
C702 C710 1.424 . S
C703 H698 0.930 . S
C703 C705 1.390 . S
C703 C706 1.339 . S
C704 C702 1.416 . S
C704 C706 1.416 . S
C704 C737 1.448 . S
C705 H690 0.930 . S
C705 N701 1.334 . S
C705 C703 1.390 . S
C706 C703 1.339 . S
C706 C704 1.416 . S
C706 H713 0.930 . S
N707 Tb672 2.572 . S
N707 C708 1.340 . S
N707 C710 1.361 . S
C708 H694 0.930 . S
C708 N707 1.340 . S
C708 C712 1.407 . S
C709 C710 1.413 . S
C709 C711 1.416 . S
C709 C738 1.427 . S
C710 C702 1.424 . S
C710 N707 1.361 . S
C710 C709 1.413 . S
C711 H700 0.931 . S
C711 C709 1.416 . S
C711 C712 1.332 . S
C712 H691 0.929 . S
C712 C708 1.407 . S
C712 C711 1.332 . S
H713 C706 0.930 . S
H714 C737 0.930 . S
H715 C738 0.929 . S
O716 Tb672 2.465 . S
O716 C736 1.264 1_556 S
O717 Tb672 2.387 . S
O717 C728 1.264 . S
O718 Tb683 2.349 . S
O718 C728 1.243 . S
O719 Tb672 2.428 . S
O719 C736 1.256 1_556 S
O720 Tb672 2.308 . S
O720 C735 1.266 . S
O721 Tb683 2.393 . S
O721 C735 1.248 . S
O722 Tb683 2.465 . S
O722 C747 1.264 . S
O723 Tb683 2.387 . S
O723 C739 1.264 . S
O724 Tb672 2.349 . S
O724 C739 1.243 . S
O725 Tb683 2.428 . S
O725 C747 1.256 . S
O726 Tb683 2.308 . S
O726 C746 1.266 . S
O727 Tb672 2.393 . S
O727 C746 1.248 . S
C728 O717 1.264 . S
C728 O718 1.243 . S
C729 C732 1.399 . S
C729 C734 1.383 . S
C729 C736 1.496 . S
C730 C731 1.399 . S
C730 C734 1.389 . S
C731 C730 1.399 . S
C731 C733 1.380 . S
C731 H748 0.929 . S
C732 C729 1.399 . S
C732 C733 1.392 . S
C732 H749 0.929 . S
C733 C731 1.380 . S
C733 C732 1.392 . S
C733 H750 0.929 . S
C734 C729 1.383 . S
C734 C730 1.389 . S
C734 H751 0.931 . S
C735 O720 1.266 . S
C735 O721 1.248 . S
C736 Tb672 2.802 1_554 S
C736 O716 1.264 1_554 S
C736 O719 1.256 1_554 S
C736 C729 1.496 . S
C737 C704 1.448 . S
C737 H714 0.930 . S
C737 C738 1.328 . S
C738 C709 1.427 . S
C738 H715 0.929 . S
C738 C737 1.328 . S
C739 O723 1.264 . S
C739 O724 1.243 . S
C740 C743 1.399 . S
C740 C744 1.383 . S
C740 C747 1.496 . S
C741 C742 1.399 . S
C741 C744 1.389 . S
C742 C741 1.399 . S
C742 C745 1.380 . S
C742 H752 0.929 . S
C743 C740 1.399 . S
C743 C745 1.392 . S
C743 H753 0.929 . S
C744 C740 1.383 . S
C744 C741 1.389 . S
C744 H754 0.931 . S
C745 C742 1.380 . S
C745 C743 1.392 . S
C745 H755 0.929 . S
C746 O726 1.266 . S
C746 O727 1.248 . S
C747 Tb683 2.802 . S
C747 O722 1.264 . S
C747 O725 1.256 . S
C747 C740 1.496 . S
H748 C731 0.929 . S
H749 C732 0.929 . S
H750 C733 0.929 . S
H751 C734 0.931 . S
H752 C742 0.929 . S
H753 C743 0.929 . S
H754 C744 0.931 . S
H755 C745 0.929 . S
Tb756 N785 2.617 . S
Tb756 N791 2.572 . S
Tb756 O800 2.465 . S
Tb756 O801 2.387 . S
Tb756 O803 2.428 . S
Tb756 O804 2.308 . S
Tb756 O808 2.349 . S
Tb756 O811 2.393 . S
Tb756 C820 2.802 1_556 S
C757 N758 1.379 . S
C757 C760 1.416 . S
C757 C764 1.424 . S
N758 C757 1.379 . S
N758 C761 1.334 . S
N758 Tb767 2.617 . S
C759 C761 1.390 . S
C759 C762 1.339 . S
C759 H779 0.930 . S
C760 C757 1.416 . S
C760 C762 1.416 . S
C760 C766 1.448 . S
C761 N758 1.334 . S
C761 C759 1.390 . S
C761 H772 0.930 . S
C762 C759 1.339 . S
C762 C760 1.416 . S
C762 H783 0.930 . S
C763 C764 1.413 . S
C763 C765 1.427 . S
C763 C769 1.416 . S
C764 C757 1.424 . S
C764 C763 1.413 . S
C764 N768 1.361 . S
C765 C763 1.427 . S
C765 C766 1.328 . S
C765 H780 0.929 . S
C766 C760 1.448 . S
C766 C765 1.328 . S
C766 H781 0.930 . S
Tb767 N758 2.617 . S
Tb767 N768 2.572 . S
Tb767 O802 2.349 . S
Tb767 O805 2.393 . S
Tb767 O806 2.465 . S
Tb767 O807 2.387 . S
Tb767 O809 2.428 . S
Tb767 O810 2.308 . S
Tb767 C831 2.802 . S
N768 C764 1.361 . S
N768 Tb767 2.572 . S
N768 C770 1.340 . S
C769 C763 1.416 . S
C769 C771 1.332 . S
C769 H777 0.931 . S
C770 N768 1.340 . S
C770 C771 1.407 . S
C770 H776 0.930 . S
C771 C769 1.332 . S
C771 C770 1.407 . S
C771 H773 0.929 . S
H772 C761 0.930 . S
H773 C771 0.929 . S
H774 C789 0.930 . S
H775 C796 0.929 . S
H776 C770 0.930 . S
H777 C769 0.931 . S
H778 C792 0.930 . S
H779 C759 0.930 . S
H780 C765 0.929 . S
H781 C766 0.930 . S
H782 C787 0.930 . S
H783 C762 0.930 . S
H784 C795 0.931 . S
N785 Tb756 2.617 . S
N785 C786 1.379 . S
N785 C789 1.334 . S
C786 N785 1.379 . S
C786 C788 1.416 . S
C786 C794 1.424 . S
C787 H782 0.930 . S
C787 C789 1.390 . S
C787 C790 1.339 . S
C788 C786 1.416 . S
C788 C790 1.416 . S
C788 C821 1.448 . S
C789 H774 0.930 . S
C789 N785 1.334 . S
C789 C787 1.390 . S
C790 C787 1.339 . S
C790 C788 1.416 . S
C790 H797 0.930 . S
N791 Tb756 2.572 . S
N791 C792 1.340 . S
N791 C794 1.361 . S
C792 H778 0.930 . S
C792 N791 1.340 . S
C792 C796 1.407 . S
C793 C794 1.413 . S
C793 C795 1.416 . S
C793 C822 1.427 . S
C794 C786 1.424 . S
C794 N791 1.361 . S
C794 C793 1.413 . S
C795 H784 0.931 . S
C795 C793 1.416 . S
C795 C796 1.332 . S
C796 H775 0.929 . S
C796 C792 1.407 . S
C796 C795 1.332 . S
H797 C790 0.930 . S
H798 C821 0.930 . S
H799 C822 0.929 . S
O800 Tb756 2.465 . S
O800 C820 1.264 1_556 S
O801 Tb756 2.387 . S
O801 C812 1.264 . S
O802 Tb767 2.349 . S
O802 C812 1.243 . S
O803 Tb756 2.428 . S
O803 C820 1.256 1_556 S
O804 Tb756 2.308 . S
O804 C819 1.266 . S
O805 Tb767 2.393 . S
O805 C819 1.248 . S
O806 Tb767 2.465 . S
O806 C831 1.264 . S
O807 Tb767 2.387 . S
O807 C823 1.264 . S
O808 Tb756 2.349 . S
O808 C823 1.243 . S
O809 Tb767 2.428 . S
O809 C831 1.256 . S
O810 Tb767 2.308 . S
O810 C830 1.266 . S
O811 Tb756 2.393 . S
O811 C830 1.248 . S
C812 O801 1.264 . S
C812 O802 1.243 . S
C813 C816 1.399 . S
C813 C818 1.383 . S
C813 C820 1.496 . S
C814 C815 1.399 . S
C814 C818 1.389 . S
C815 C814 1.399 . S
C815 C817 1.380 . S
C815 H832 0.929 . S
C816 C813 1.399 . S
C816 C817 1.392 . S
C816 H833 0.929 . S
C817 C815 1.380 . S
C817 C816 1.392 . S
C817 H834 0.929 . S
C818 C813 1.383 . S
C818 C814 1.389 . S
C818 H835 0.931 . S
C819 O804 1.266 . S
C819 O805 1.248 . S
C820 Tb756 2.802 1_554 S
C820 O800 1.264 1_554 S
C820 O803 1.256 1_554 S
C820 C813 1.496 . S
C821 C788 1.448 . S
C821 H798 0.930 . S
C821 C822 1.328 . S
C822 C793 1.427 . S
C822 H799 0.929 . S
C822 C821 1.328 . S
C823 O807 1.264 . S
C823 O808 1.243 . S
C824 C827 1.399 . S
C824 C828 1.383 . S
C824 C831 1.496 . S
C825 C826 1.399 . S
C825 C828 1.389 . S
C826 C825 1.399 . S
C826 C829 1.380 . S
C826 H836 0.929 . S
C827 C824 1.399 . S
C827 C829 1.392 . S
C827 H837 0.929 . S
C828 C824 1.383 . S
C828 C825 1.389 . S
C828 H838 0.931 . S
C829 C826 1.380 . S
C829 C827 1.392 . S
C829 H839 0.929 . S
C830 O810 1.266 . S
C830 O811 1.248 . S
C831 Tb767 2.802 . S
C831 O806 1.264 . S
C831 O809 1.256 . S
C831 C824 1.496 . S
H832 C815 0.929 . S
H833 C816 0.929 . S
H834 C817 0.929 . S
H835 C818 0.931 . S
H836 C826 0.929 . S
H837 C827 0.929 . S
H838 C828 0.931 . S
H839 C829 0.929 . S
Tb840 N869 2.617 . S
Tb840 N875 2.572 . S
Tb840 O884 2.465 . S
Tb840 O885 2.387 . S
Tb840 O887 2.428 . S
Tb840 O888 2.308 . S
Tb840 O892 2.349 . S
Tb840 O895 2.393 . S
Tb840 C904 2.802 1_556 S
C841 N842 1.379 . S
C841 C844 1.416 . S
C841 C848 1.424 . S
N842 C841 1.379 . S
N842 C845 1.334 . S
N842 Tb851 2.617 . S
C843 C845 1.390 . S
C843 C846 1.339 . S
C843 H863 0.930 . S
C844 C841 1.416 . S
C844 C846 1.416 . S
C844 C850 1.448 . S
C845 N842 1.334 . S
C845 C843 1.390 . S
C845 H856 0.930 . S
C846 C843 1.339 . S
C846 C844 1.416 . S
C846 H867 0.930 . S
C847 C848 1.413 . S
C847 C849 1.427 . S
C847 C853 1.416 . S
C848 C841 1.424 . S
C848 C847 1.413 . S
C848 N852 1.361 . S
C849 C847 1.427 . S
C849 C850 1.328 . S
C849 H864 0.929 . S
C850 C844 1.448 . S
C850 C849 1.328 . S
C850 H865 0.930 . S
Tb851 N842 2.617 . S
Tb851 N852 2.572 . S
Tb851 O886 2.349 . S
Tb851 O889 2.393 . S
Tb851 O890 2.465 . S
Tb851 O891 2.387 . S
Tb851 O893 2.428 . S
Tb851 O894 2.308 . S
Tb851 C915 2.802 . S
N852 C848 1.361 . S
N852 Tb851 2.572 . S
N852 C854 1.340 . S
C853 C847 1.416 . S
C853 C855 1.332 . S
C853 H861 0.931 . S
C854 N852 1.340 . S
C854 C855 1.407 . S
C854 H860 0.930 . S
C855 C853 1.332 . S
C855 C854 1.407 . S
C855 H857 0.929 . S
H856 C845 0.930 . S
H857 C855 0.929 . S
H858 C873 0.930 . S
H859 C880 0.929 . S
H860 C854 0.930 . S
H861 C853 0.931 . S
H862 C876 0.930 . S
H863 C843 0.930 . S
H864 C849 0.929 . S
H865 C850 0.930 . S
H866 C871 0.930 . S
H867 C846 0.930 . S
H868 C879 0.931 . S
N869 Tb840 2.617 . S
N869 C870 1.379 . S
N869 C873 1.334 . S
C870 N869 1.379 . S
C870 C872 1.416 . S
C870 C878 1.424 . S
C871 H866 0.930 . S
C871 C873 1.390 . S
C871 C874 1.339 . S
C872 C870 1.416 . S
C872 C874 1.416 . S
C872 C905 1.448 . S
C873 H858 0.930 . S
C873 N869 1.334 . S
C873 C871 1.390 . S
C874 C871 1.339 . S
C874 C872 1.416 . S
C874 H881 0.930 . S
N875 Tb840 2.572 . S
N875 C876 1.340 . S
N875 C878 1.361 . S
C876 H862 0.930 . S
C876 N875 1.340 . S
C876 C880 1.407 . S
C877 C878 1.413 . S
C877 C879 1.416 . S
C877 C906 1.427 . S
C878 C870 1.424 . S
C878 N875 1.361 . S
C878 C877 1.413 . S
C879 H868 0.931 . S
C879 C877 1.416 . S
C879 C880 1.332 . S
C880 H859 0.929 . S
C880 C876 1.407 . S
C880 C879 1.332 . S
H881 C874 0.930 . S
H882 C905 0.930 . S
H883 C906 0.929 . S
O884 Tb840 2.465 . S
O884 C904 1.264 1_556 S
O885 Tb840 2.387 . S
O885 C896 1.264 . S
O886 Tb851 2.349 . S
O886 C896 1.243 . S
O887 Tb840 2.428 . S
O887 C904 1.256 1_556 S
O888 Tb840 2.308 . S
O888 C903 1.266 . S
O889 Tb851 2.393 . S
O889 C903 1.248 . S
O890 Tb851 2.465 . S
O890 C915 1.264 . S
O891 Tb851 2.387 . S
O891 C907 1.264 . S
O892 Tb840 2.349 . S
O892 C907 1.243 . S
O893 Tb851 2.428 . S
O893 C915 1.256 . S
O894 Tb851 2.308 . S
O894 C914 1.266 . S
O895 Tb840 2.393 . S
O895 C914 1.248 . S
C896 O885 1.264 . S
C896 O886 1.243 . S
C897 C900 1.399 . S
C897 C902 1.383 . S
C897 C904 1.496 . S
C898 C899 1.399 . S
C898 C902 1.389 . S
C899 C898 1.399 . S
C899 C901 1.380 . S
C899 H916 0.929 . S
C900 C897 1.399 . S
C900 C901 1.392 . S
C900 H917 0.929 . S
C901 C899 1.380 . S
C901 C900 1.392 . S
C901 H918 0.929 . S
C902 C897 1.383 . S
C902 C898 1.389 . S
C902 H919 0.931 . S
C903 O888 1.266 . S
C903 O889 1.248 . S
C904 Tb840 2.802 1_554 S
C904 O884 1.264 1_554 S
C904 O887 1.256 1_554 S
C904 C897 1.496 . S
C905 C872 1.448 . S
C905 H882 0.930 . S
C905 C906 1.328 . S
C906 C877 1.427 . S
C906 H883 0.929 . S
C906 C905 1.328 . S
C907 O891 1.264 . S
C907 O892 1.243 . S
C908 C911 1.399 . S
C908 C912 1.383 . S
C908 C915 1.496 . S
C909 C910 1.399 . S
C909 C912 1.389 . S
C910 C909 1.399 . S
C910 C913 1.380 . S
C910 H920 0.929 . S
C911 C908 1.399 . S
C911 C913 1.392 . S
C911 H921 0.929 . S
C912 C908 1.383 . S
C912 C909 1.389 . S
C912 H922 0.931 . S
C913 C910 1.380 . S
C913 C911 1.392 . S
C913 H923 0.929 . S
C914 O894 1.266 . S
C914 O895 1.248 . S
C915 Tb851 2.802 . S
C915 O890 1.264 . S
C915 O893 1.256 . S
C915 C908 1.496 . S
H916 C899 0.929 . S
H917 C900 0.929 . S
H918 C901 0.929 . S
H919 C902 0.931 . S
H920 C910 0.929 . S
H921 C911 0.929 . S
H922 C912 0.931 . S
H923 C913 0.929 . S
Tb924 N953 2.617 . S
Tb924 N959 2.572 . S
Tb924 O968 2.465 . S
Tb924 O969 2.387 . S
Tb924 O971 2.428 . S
Tb924 O972 2.308 . S
Tb924 O976 2.349 . S
Tb924 O979 2.393 . S
Tb924 C988 2.802 1_556 S
C925 N926 1.379 . S
C925 C928 1.416 . S
C925 C932 1.424 . S
N926 C925 1.379 . S
N926 C929 1.334 . S
N926 Tb935 2.617 . S
C927 C929 1.390 . S
C927 C930 1.339 . S
C927 H947 0.930 . S
C928 C925 1.416 . S
C928 C930 1.416 . S
C928 C934 1.448 . S
C929 N926 1.334 . S
C929 C927 1.390 . S
C929 H940 0.930 . S
C930 C927 1.339 . S
C930 C928 1.416 . S
C930 H951 0.930 . S
C931 C932 1.413 . S
C931 C933 1.427 . S
C931 C937 1.416 . S
C932 C925 1.424 . S
C932 C931 1.413 . S
C932 N936 1.361 . S
C933 C931 1.427 . S
C933 C934 1.328 . S
C933 H948 0.929 . S
C934 C928 1.448 . S
C934 C933 1.328 . S
C934 H949 0.930 . S
Tb935 N926 2.617 . S
Tb935 N936 2.572 . S
Tb935 O970 2.349 . S
Tb935 O973 2.393 . S
Tb935 O974 2.465 . S
Tb935 O975 2.387 . S
Tb935 O977 2.428 . S
Tb935 O978 2.308 . S
Tb935 C999 2.802 . S
N936 C932 1.361 . S
N936 Tb935 2.572 . S
N936 C938 1.340 . S
C937 C931 1.416 . S
C937 C939 1.332 . S
C937 H945 0.931 . S
C938 N936 1.340 . S
C938 C939 1.407 . S
C938 H944 0.930 . S
C939 C937 1.332 . S
C939 C938 1.407 . S
C939 H941 0.929 . S
H940 C929 0.930 . S
H941 C939 0.929 . S
H942 C957 0.930 . S
H943 C964 0.929 . S
H944 C938 0.930 . S
H945 C937 0.931 . S
H946 C960 0.930 . S
H947 C927 0.930 . S
H948 C933 0.929 . S
H949 C934 0.930 . S
H950 C955 0.930 . S
H951 C930 0.930 . S
H952 C963 0.931 . S
N953 Tb924 2.617 . S
N953 C954 1.379 . S
N953 C957 1.334 . S
C954 N953 1.379 . S
C954 C956 1.416 . S
C954 C962 1.424 . S
C955 H950 0.930 . S
C955 C957 1.390 . S
C955 C958 1.339 . S
C956 C954 1.416 . S
C956 C958 1.416 . S
C956 C989 1.448 . S
C957 H942 0.930 . S
C957 N953 1.334 . S
C957 C955 1.390 . S
C958 C955 1.339 . S
C958 C956 1.416 . S
C958 H965 0.930 . S
N959 Tb924 2.572 . S
N959 C960 1.340 . S
N959 C962 1.361 . S
C960 H946 0.930 . S
C960 N959 1.340 . S
C960 C964 1.407 . S
C961 C962 1.413 . S
C961 C963 1.416 . S
C961 C990 1.427 . S
C962 C954 1.424 . S
C962 N959 1.361 . S
C962 C961 1.413 . S
C963 H952 0.931 . S
C963 C961 1.416 . S
C963 C964 1.332 . S
C964 H943 0.929 . S
C964 C960 1.407 . S
C964 C963 1.332 . S
H965 C958 0.930 . S
H966 C989 0.930 . S
H967 C990 0.929 . S
O968 Tb924 2.465 . S
O968 C988 1.264 1_556 S
O969 Tb924 2.387 . S
O969 C980 1.264 . S
O970 Tb935 2.349 . S
O970 C980 1.243 . S
O971 Tb924 2.428 . S
O971 C988 1.256 1_556 S
O972 Tb924 2.308 . S
O972 C987 1.266 . S
O973 Tb935 2.393 . S
O973 C987 1.248 . S
O974 Tb935 2.465 . S
O974 C999 1.264 . S
O975 Tb935 2.387 . S
O975 C991 1.264 . S
O976 Tb924 2.349 . S
O976 C991 1.243 . S
O977 Tb935 2.428 . S
O977 C999 1.256 . S
O978 Tb935 2.308 . S
O978 C998 1.266 . S
O979 Tb924 2.393 . S
O979 C998 1.248 . S
C980 O969 1.264 . S
C980 O970 1.243 . S
C981 C984 1.399 . S
C981 C986 1.383 . S
C981 C988 1.496 . S
C982 C983 1.399 . S
C982 C986 1.389 . S
C983 C982 1.399 . S
C983 C985 1.380 . S
C983 H1000 0.929 . S
C984 C981 1.399 . S
C984 C985 1.392 . S
C984 H1001 0.929 . S
C985 C983 1.380 . S
C985 C984 1.392 . S
C985 H1002 0.929 . S
C986 C981 1.383 . S
C986 C982 1.389 . S
C986 H1003 0.931 . S
C987 O972 1.266 . S
C987 O973 1.248 . S
C988 Tb924 2.802 1_554 S
C988 O968 1.264 1_554 S
C988 O971 1.256 1_554 S
C988 C981 1.496 . S
C989 C956 1.448 . S
C989 H966 0.930 . S
C989 C990 1.328 . S
C990 C961 1.427 . S
C990 H967 0.929 . S
C990 C989 1.328 . S
C991 O975 1.264 . S
C991 O976 1.243 . S
C992 C995 1.399 . S
C992 C996 1.383 . S
C992 C999 1.496 . S
C993 C994 1.399 . S
C993 C996 1.389 . S
C994 C993 1.399 . S
C994 C997 1.380 . S
C994 H1004 0.929 . S
C995 C992 1.399 . S
C995 C997 1.392 . S
C995 H1005 0.929 . S
C996 C992 1.383 . S
C996 C993 1.389 . S
C996 H1006 0.931 . S
C997 C994 1.380 . S
C997 C995 1.392 . S
C997 H1007 0.929 . S
C998 O978 1.266 . S
C998 O979 1.248 . S
C999 Tb935 2.802 . S
C999 O974 1.264 . S
C999 O977 1.256 . S
C999 C992 1.496 . S
H1000 C983 0.929 . S
H1001 C984 0.929 . S
H1002 C985 0.929 . S
H1003 C986 0.931 . S
H1004 C994 0.929 . S
H1005 C995 0.929 . S
H1006 C996 0.931 . S
H1007 C997 0.929 . S
Tb1008 N1037 2.617 . S
Tb1008 N1043 2.572 . S
Tb1008 O1052 2.465 . S
Tb1008 O1053 2.387 . S
Tb1008 O1055 2.428 . S
Tb1008 O1056 2.308 . S
Tb1008 O1060 2.349 . S
Tb1008 O1063 2.393 . S
Tb1008 C1072 2.802 . S
C1009 N1010 1.379 . S
C1009 C1012 1.416 . S
C1009 C1016 1.424 . S
N1010 C1009 1.379 . S
N1010 C1013 1.334 . S
N1010 Tb1019 2.617 . S
C1011 C1013 1.390 . S
C1011 C1014 1.339 . S
C1011 H1031 0.930 . S
C1012 C1009 1.416 . S
C1012 C1014 1.416 . S
C1012 C1018 1.448 . S
C1013 N1010 1.334 . S
C1013 C1011 1.390 . S
C1013 H1024 0.930 . S
C1014 C1011 1.339 . S
C1014 C1012 1.416 . S
C1014 H1035 0.930 . S
C1015 C1016 1.413 . S
C1015 C1017 1.427 . S
C1015 C1021 1.416 . S
C1016 C1009 1.424 . S
C1016 C1015 1.413 . S
C1016 N1020 1.361 . S
C1017 C1015 1.427 . S
C1017 C1018 1.328 . S
C1017 H1032 0.929 . S
C1018 C1012 1.448 . S
C1018 C1017 1.328 . S
C1018 H1033 0.930 . S
Tb1019 N1010 2.617 . S
Tb1019 N1020 2.572 . S
Tb1019 O1054 2.349 . S
Tb1019 O1057 2.393 . S
Tb1019 O1058 2.465 . S
Tb1019 O1059 2.387 . S
Tb1019 O1061 2.428 . S
Tb1019 O1062 2.308 . S
Tb1019 C1083 2.802 1_554 S
N1020 C1016 1.361 . S
N1020 Tb1019 2.572 . S
N1020 C1022 1.340 . S
C1021 C1015 1.416 . S
C1021 C1023 1.332 . S
C1021 H1029 0.931 . S
C1022 N1020 1.340 . S
C1022 C1023 1.407 . S
C1022 H1028 0.930 . S
C1023 C1021 1.332 . S
C1023 C1022 1.407 . S
C1023 H1025 0.929 . S
H1024 C1013 0.930 . S
H1025 C1023 0.929 . S
H1026 C1041 0.930 . S
H1027 C1048 0.929 . S
H1028 C1022 0.930 . S
H1029 C1021 0.931 . S
H1030 C1044 0.930 . S
H1031 C1011 0.930 . S
H1032 C1017 0.929 . S
H1033 C1018 0.930 . S
H1034 C1039 0.930 . S
H1035 C1014 0.930 . S
H1036 C1047 0.931 . S
N1037 Tb1008 2.617 . S
N1037 C1038 1.379 . S
N1037 C1041 1.334 . S
C1038 N1037 1.379 . S
C1038 C1040 1.416 . S
C1038 C1046 1.424 . S
C1039 H1034 0.930 . S
C1039 C1041 1.390 . S
C1039 C1042 1.339 . S
C1040 C1038 1.416 . S
C1040 C1042 1.416 . S
C1040 C1073 1.448 . S
C1041 H1026 0.930 . S
C1041 N1037 1.334 . S
C1041 C1039 1.390 . S
C1042 C1039 1.339 . S
C1042 C1040 1.416 . S
C1042 H1049 0.930 . S
N1043 Tb1008 2.572 . S
N1043 C1044 1.340 . S
N1043 C1046 1.361 . S
C1044 H1030 0.930 . S
C1044 N1043 1.340 . S
C1044 C1048 1.407 . S
C1045 C1046 1.413 . S
C1045 C1047 1.416 . S
C1045 C1074 1.427 . S
C1046 C1038 1.424 . S
C1046 N1043 1.361 . S
C1046 C1045 1.413 . S
C1047 H1036 0.931 . S
C1047 C1045 1.416 . S
C1047 C1048 1.332 . S
C1048 H1027 0.929 . S
C1048 C1044 1.407 . S
C1048 C1047 1.332 . S
H1049 C1042 0.930 . S
H1050 C1073 0.930 . S
H1051 C1074 0.929 . S
O1052 Tb1008 2.465 . S
O1052 C1072 1.264 . S
O1053 Tb1008 2.387 . S
O1053 C1064 1.264 . S
O1054 Tb1019 2.349 . S
O1054 C1064 1.243 . S
O1055 Tb1008 2.428 . S
O1055 C1072 1.256 . S
O1056 Tb1008 2.308 . S
O1056 C1071 1.266 . S
O1057 Tb1019 2.393 . S
O1057 C1071 1.248 . S
O1058 Tb1019 2.465 . S
O1058 C1083 1.264 1_554 S
O1059 Tb1019 2.387 . S
O1059 C1075 1.264 . S
O1060 Tb1008 2.349 . S
O1060 C1075 1.243 . S
O1061 Tb1019 2.428 . S
O1061 C1083 1.256 1_554 S
O1062 Tb1019 2.308 . S
O1062 C1082 1.266 . S
O1063 Tb1008 2.393 . S
O1063 C1082 1.248 . S
C1064 O1053 1.264 . S
C1064 O1054 1.243 . S
C1065 C1068 1.399 . S
C1065 C1070 1.383 . S
C1065 C1072 1.496 . S
C1066 C1067 1.399 . S
C1066 C1070 1.389 . S
C1067 C1066 1.399 . S
C1067 C1069 1.380 . S
C1067 H1084 0.929 . S
C1068 C1065 1.399 . S
C1068 C1069 1.392 . S
C1068 H1085 0.929 . S
C1069 C1067 1.380 . S
C1069 C1068 1.392 . S
C1069 H1086 0.929 . S
C1070 C1065 1.383 . S
C1070 C1066 1.389 . S
C1070 H1087 0.931 . S
C1071 O1056 1.266 . S
C1071 O1057 1.248 . S
C1072 Tb1008 2.802 . S
C1072 O1052 1.264 . S
C1072 O1055 1.256 . S
C1072 C1065 1.496 . S
C1073 C1040 1.448 . S
C1073 H1050 0.930 . S
C1073 C1074 1.328 . S
C1074 C1045 1.427 . S
C1074 H1051 0.929 . S
C1074 C1073 1.328 . S
C1075 O1059 1.264 . S
C1075 O1060 1.243 . S
C1076 C1079 1.399 . S
C1076 C1080 1.383 . S
C1076 C1083 1.496 . S
C1077 C1078 1.399 . S
C1077 C1080 1.389 . S
C1078 C1077 1.399 . S
C1078 C1081 1.380 . S
C1078 H1088 0.929 . S
C1079 C1076 1.399 . S
C1079 C1081 1.392 . S
C1079 H1089 0.929 . S
C1080 C1076 1.383 . S
C1080 C1077 1.389 . S
C1080 H1090 0.931 . S
C1081 C1078 1.380 . S
C1081 C1079 1.392 . S
C1081 H1091 0.929 . S
C1082 O1062 1.266 . S
C1082 O1063 1.248 . S
C1083 Tb1019 2.802 1_556 S
C1083 O1058 1.264 1_556 S
C1083 O1061 1.256 1_556 S
C1083 C1076 1.496 . S
H1084 C1067 0.929 . S
H1085 C1068 0.929 . S
H1086 C1069 0.929 . S
H1087 C1070 0.931 . S
H1088 C1078 0.929 . S
H1089 C1079 0.929 . S
H1090 C1080 0.931 . S
H1091 C1081 0.929 . S
Tb1092 N1121 2.617 . S
Tb1092 N1127 2.572 . S
Tb1092 O1136 2.465 . S
Tb1092 O1137 2.387 . S
Tb1092 O1139 2.428 . S
Tb1092 O1140 2.308 . S
Tb1092 O1144 2.349 . S
Tb1092 O1147 2.393 . S
Tb1092 C1156 2.802 . S
C1093 N1094 1.379 . S
C1093 C1096 1.416 . S
C1093 C1100 1.424 . S
N1094 C1093 1.379 . S
N1094 C1097 1.334 . S
N1094 Tb1103 2.617 . S
C1095 C1097 1.390 . S
C1095 C1098 1.339 . S
C1095 H1115 0.930 . S
C1096 C1093 1.416 . S
C1096 C1098 1.416 . S
C1096 C1102 1.448 . S
C1097 N1094 1.334 . S
C1097 C1095 1.390 . S
C1097 H1108 0.930 . S
C1098 C1095 1.339 . S
C1098 C1096 1.416 . S
C1098 H1119 0.930 . S
C1099 C1100 1.413 . S
C1099 C1101 1.427 . S
C1099 C1105 1.416 . S
C1100 C1093 1.424 . S
C1100 C1099 1.413 . S
C1100 N1104 1.361 . S
C1101 C1099 1.427 . S
C1101 C1102 1.328 . S
C1101 H1116 0.929 . S
C1102 C1096 1.448 . S
C1102 C1101 1.328 . S
C1102 H1117 0.930 . S
Tb1103 N1094 2.617 . S
Tb1103 N1104 2.572 . S
Tb1103 O1138 2.349 . S
Tb1103 O1141 2.393 . S
Tb1103 O1142 2.465 . S
Tb1103 O1143 2.387 . S
Tb1103 O1145 2.428 . S
Tb1103 O1146 2.308 . S
Tb1103 C1167 2.802 1_554 S
N1104 C1100 1.361 . S
N1104 Tb1103 2.572 . S
N1104 C1106 1.340 . S
C1105 C1099 1.416 . S
C1105 C1107 1.332 . S
C1105 H1113 0.931 . S
C1106 N1104 1.340 . S
C1106 C1107 1.407 . S
C1106 H1112 0.930 . S
C1107 C1105 1.332 . S
C1107 C1106 1.407 . S
C1107 H1109 0.929 . S
H1108 C1097 0.930 . S
H1109 C1107 0.929 . S
H1110 C1125 0.930 . S
H1111 C1132 0.929 . S
H1112 C1106 0.930 . S
H1113 C1105 0.931 . S
H1114 C1128 0.930 . S
H1115 C1095 0.930 . S
H1116 C1101 0.929 . S
H1117 C1102 0.930 . S
H1118 C1123 0.930 . S
H1119 C1098 0.930 . S
H1120 C1131 0.931 . S
N1121 Tb1092 2.617 . S
N1121 C1122 1.379 . S
N1121 C1125 1.334 . S
C1122 N1121 1.379 . S
C1122 C1124 1.416 . S
C1122 C1130 1.424 . S
C1123 H1118 0.930 . S
C1123 C1125 1.390 . S
C1123 C1126 1.339 . S
C1124 C1122 1.416 . S
C1124 C1126 1.416 . S
C1124 C1157 1.448 . S
C1125 H1110 0.930 . S
C1125 N1121 1.334 . S
C1125 C1123 1.390 . S
C1126 C1123 1.339 . S
C1126 C1124 1.416 . S
C1126 H1133 0.930 . S
N1127 Tb1092 2.572 . S
N1127 C1128 1.340 . S
N1127 C1130 1.361 . S
C1128 H1114 0.930 . S
C1128 N1127 1.340 . S
C1128 C1132 1.407 . S
C1129 C1130 1.413 . S
C1129 C1131 1.416 . S
C1129 C1158 1.427 . S
C1130 C1122 1.424 . S
C1130 N1127 1.361 . S
C1130 C1129 1.413 . S
C1131 H1120 0.931 . S
C1131 C1129 1.416 . S
C1131 C1132 1.332 . S
C1132 H1111 0.929 . S
C1132 C1128 1.407 . S
C1132 C1131 1.332 . S
H1133 C1126 0.930 . S
H1134 C1157 0.930 . S
H1135 C1158 0.929 . S
O1136 Tb1092 2.465 . S
O1136 C1156 1.264 . S
O1137 Tb1092 2.387 . S
O1137 C1148 1.264 . S
O1138 Tb1103 2.349 . S
O1138 C1148 1.243 . S
O1139 Tb1092 2.428 . S
O1139 C1156 1.256 . S
O1140 Tb1092 2.308 . S
O1140 C1155 1.266 . S
O1141 Tb1103 2.393 . S
O1141 C1155 1.248 . S
O1142 Tb1103 2.465 . S
O1142 C1167 1.264 1_554 S
O1143 Tb1103 2.387 . S
O1143 C1159 1.264 . S
O1144 Tb1092 2.349 . S
O1144 C1159 1.243 . S
O1145 Tb1103 2.428 . S
O1145 C1167 1.256 1_554 S
O1146 Tb1103 2.308 . S
O1146 C1166 1.266 . S
O1147 Tb1092 2.393 . S
O1147 C1166 1.248 . S
C1148 O1137 1.264 . S
C1148 O1138 1.243 . S
C1149 C1152 1.399 . S
C1149 C1154 1.383 . S
C1149 C1156 1.496 . S
C1150 C1151 1.399 . S
C1150 C1154 1.389 . S
C1151 C1150 1.399 . S
C1151 C1153 1.380 . S
C1151 H1168 0.929 . S
C1152 C1149 1.399 . S
C1152 C1153 1.392 . S
C1152 H1169 0.929 . S
C1153 C1151 1.380 . S
C1153 C1152 1.392 . S
C1153 H1170 0.929 . S
C1154 C1149 1.383 . S
C1154 C1150 1.389 . S
C1154 H1171 0.931 . S
C1155 O1140 1.266 . S
C1155 O1141 1.248 . S
C1156 Tb1092 2.802 . S
C1156 O1136 1.264 . S
C1156 O1139 1.256 . S
C1156 C1149 1.496 . S
C1157 C1124 1.448 . S
C1157 H1134 0.930 . S
C1157 C1158 1.328 . S
C1158 C1129 1.427 . S
C1158 H1135 0.929 . S
C1158 C1157 1.328 . S
C1159 O1143 1.264 . S
C1159 O1144 1.243 . S
C1160 C1163 1.399 . S
C1160 C1164 1.383 . S
C1160 C1167 1.496 . S
C1161 C1162 1.399 . S
C1161 C1164 1.389 . S
C1162 C1161 1.399 . S
C1162 C1165 1.380 . S
C1162 H1172 0.929 . S
C1163 C1160 1.399 . S
C1163 C1165 1.392 . S
C1163 H1173 0.929 . S
C1164 C1160 1.383 . S
C1164 C1161 1.389 . S
C1164 H1174 0.931 . S
C1165 C1162 1.380 . S
C1165 C1163 1.392 . S
C1165 H1175 0.929 . S
C1166 O1146 1.266 . S
C1166 O1147 1.248 . S
C1167 Tb1103 2.802 1_556 S
C1167 O1142 1.264 1_556 S
C1167 O1145 1.256 1_556 S
C1167 C1160 1.496 . S
H1168 C1151 0.929 . S
H1169 C1152 0.929 . S
H1170 C1153 0.929 . S
H1171 C1154 0.931 . S
H1172 C1162 0.929 . S
H1173 C1163 0.929 . S
H1174 C1164 0.931 . S
H1175 C1165 0.929 . S
Tb1176 N1205 2.617 . S
Tb1176 N1211 2.572 . S
Tb1176 O1220 2.465 . S
Tb1176 O1221 2.387 . S
Tb1176 O1223 2.428 . S
Tb1176 O1224 2.308 . S
Tb1176 O1228 2.349 . S
Tb1176 O1231 2.393 . S
Tb1176 C1240 2.802 . S
C1177 N1178 1.379 . S
C1177 C1180 1.416 . S
C1177 C1184 1.424 . S
N1178 C1177 1.379 . S
N1178 C1181 1.334 . S
N1178 Tb1187 2.617 . S
C1179 C1181 1.390 . S
C1179 C1182 1.339 . S
C1179 H1199 0.930 . S
C1180 C1177 1.416 . S
C1180 C1182 1.416 . S
C1180 C1186 1.448 . S
C1181 N1178 1.334 . S
C1181 C1179 1.390 . S
C1181 H1192 0.930 . S
C1182 C1179 1.339 . S
C1182 C1180 1.416 . S
C1182 H1203 0.930 . S
C1183 C1184 1.413 . S
C1183 C1185 1.427 . S
C1183 C1189 1.416 . S
C1184 C1177 1.424 . S
C1184 C1183 1.413 . S
C1184 N1188 1.361 . S
C1185 C1183 1.427 . S
C1185 C1186 1.328 . S
C1185 H1200 0.929 . S
C1186 C1180 1.448 . S
C1186 C1185 1.328 . S
C1186 H1201 0.930 . S
Tb1187 N1178 2.617 . S
Tb1187 N1188 2.572 . S
Tb1187 O1222 2.349 . S
Tb1187 O1225 2.393 . S
Tb1187 O1226 2.465 . S
Tb1187 O1227 2.387 . S
Tb1187 O1229 2.428 . S
Tb1187 O1230 2.308 . S
Tb1187 C1251 2.802 1_554 S
N1188 C1184 1.361 . S
N1188 Tb1187 2.572 . S
N1188 C1190 1.340 . S
C1189 C1183 1.416 . S
C1189 C1191 1.332 . S
C1189 H1197 0.931 . S
C1190 N1188 1.340 . S
C1190 C1191 1.407 . S
C1190 H1196 0.930 . S
C1191 C1189 1.332 . S
C1191 C1190 1.407 . S
C1191 H1193 0.929 . S
H1192 C1181 0.930 . S
H1193 C1191 0.929 . S
H1194 C1209 0.930 . S
H1195 C1216 0.929 . S
H1196 C1190 0.930 . S
H1197 C1189 0.931 . S
H1198 C1212 0.930 . S
H1199 C1179 0.930 . S
H1200 C1185 0.929 . S
H1201 C1186 0.930 . S
H1202 C1207 0.930 . S
H1203 C1182 0.930 . S
H1204 C1215 0.931 . S
N1205 Tb1176 2.617 . S
N1205 C1206 1.379 . S
N1205 C1209 1.334 . S
C1206 N1205 1.379 . S
C1206 C1208 1.416 . S
C1206 C1214 1.424 . S
C1207 H1202 0.930 . S
C1207 C1209 1.390 . S
C1207 C1210 1.339 . S
C1208 C1206 1.416 . S
C1208 C1210 1.416 . S
C1208 C1241 1.448 . S
C1209 H1194 0.930 . S
C1209 N1205 1.334 . S
C1209 C1207 1.390 . S
C1210 C1207 1.339 . S
C1210 C1208 1.416 . S
C1210 H1217 0.930 . S
N1211 Tb1176 2.572 . S
N1211 C1212 1.340 . S
N1211 C1214 1.361 . S
C1212 H1198 0.930 . S
C1212 N1211 1.340 . S
C1212 C1216 1.407 . S
C1213 C1214 1.413 . S
C1213 C1215 1.416 . S
C1213 C1242 1.427 . S
C1214 C1206 1.424 . S
C1214 N1211 1.361 . S
C1214 C1213 1.413 . S
C1215 H1204 0.931 . S
C1215 C1213 1.416 . S
C1215 C1216 1.332 . S
C1216 H1195 0.929 . S
C1216 C1212 1.407 . S
C1216 C1215 1.332 . S
H1217 C1210 0.930 . S
H1218 C1241 0.930 . S
H1219 C1242 0.929 . S
O1220 Tb1176 2.465 . S
O1220 C1240 1.264 . S
O1221 Tb1176 2.387 . S
O1221 C1232 1.264 . S
O1222 Tb1187 2.349 . S
O1222 C1232 1.243 . S
O1223 Tb1176 2.428 . S
O1223 C1240 1.256 . S
O1224 Tb1176 2.308 . S
O1224 C1239 1.266 . S
O1225 Tb1187 2.393 . S
O1225 C1239 1.248 . S
O1226 Tb1187 2.465 . S
O1226 C1251 1.264 1_554 S
O1227 Tb1187 2.387 . S
O1227 C1243 1.264 . S
O1228 Tb1176 2.349 . S
O1228 C1243 1.243 . S
O1229 Tb1187 2.428 . S
O1229 C1251 1.256 1_554 S
O1230 Tb1187 2.308 . S
O1230 C1250 1.266 . S
O1231 Tb1176 2.393 . S
O1231 C1250 1.248 . S
C1232 O1221 1.264 . S
C1232 O1222 1.243 . S
C1233 C1236 1.399 . S
C1233 C1238 1.383 . S
C1233 C1240 1.496 . S
C1234 C1235 1.399 . S
C1234 C1238 1.389 . S
C1235 C1234 1.399 . S
C1235 C1237 1.380 . S
C1235 H1252 0.929 . S
C1236 C1233 1.399 . S
C1236 C1237 1.392 . S
C1236 H1253 0.929 . S
C1237 C1235 1.380 . S
C1237 C1236 1.392 . S
C1237 H1254 0.929 . S
C1238 C1233 1.383 . S
C1238 C1234 1.389 . S
C1238 H1255 0.931 . S
C1239 O1224 1.266 . S
C1239 O1225 1.248 . S
C1240 Tb1176 2.802 . S
C1240 O1220 1.264 . S
C1240 O1223 1.256 . S
C1240 C1233 1.496 . S
C1241 C1208 1.448 . S
C1241 H1218 0.930 . S
C1241 C1242 1.328 . S
C1242 C1213 1.427 . S
C1242 H1219 0.929 . S
C1242 C1241 1.328 . S
C1243 O1227 1.264 . S
C1243 O1228 1.243 . S
C1244 C1247 1.399 . S
C1244 C1248 1.383 . S
C1244 C1251 1.496 . S
C1245 C1246 1.399 . S
C1245 C1248 1.389 . S
C1246 C1245 1.399 . S
C1246 C1249 1.380 . S
C1246 H1256 0.929 . S
C1247 C1244 1.399 . S
C1247 C1249 1.392 . S
C1247 H1257 0.929 . S
C1248 C1244 1.383 . S
C1248 C1245 1.389 . S
C1248 H1258 0.931 . S
C1249 C1246 1.380 . S
C1249 C1247 1.392 . S
C1249 H1259 0.929 . S
C1250 O1230 1.266 . S
C1250 O1231 1.248 . S
C1251 Tb1187 2.802 1_556 S
C1251 O1226 1.264 1_556 S
C1251 O1229 1.256 1_556 S
C1251 C1244 1.496 . S
H1252 C1235 0.929 . S
H1253 C1236 0.929 . S
H1254 C1237 0.929 . S
H1255 C1238 0.931 . S
H1256 C1246 0.929 . S
H1257 C1247 0.929 . S
H1258 C1248 0.931 . S
H1259 C1249 0.929 . S
Tb1260 N1289 2.617 . S
Tb1260 N1295 2.572 . S
Tb1260 O1304 2.465 . S
Tb1260 O1305 2.387 . S
Tb1260 O1307 2.428 . S
Tb1260 O1308 2.308 . S
Tb1260 O1312 2.349 . S
Tb1260 O1315 2.393 . S
Tb1260 C1324 2.802 . S
C1261 N1262 1.379 . S
C1261 C1264 1.416 . S
C1261 C1268 1.424 . S
N1262 C1261 1.379 . S
N1262 C1265 1.334 . S
N1262 Tb1271 2.617 . S
C1263 C1265 1.390 . S
C1263 C1266 1.339 . S
C1263 H1283 0.930 . S
C1264 C1261 1.416 . S
C1264 C1266 1.416 . S
C1264 C1270 1.448 . S
C1265 N1262 1.334 . S
C1265 C1263 1.390 . S
C1265 H1276 0.930 . S
C1266 C1263 1.339 . S
C1266 C1264 1.416 . S
C1266 H1287 0.930 . S
C1267 C1268 1.413 . S
C1267 C1269 1.427 . S
C1267 C1273 1.416 . S
C1268 C1261 1.424 . S
C1268 C1267 1.413 . S
C1268 N1272 1.361 . S
C1269 C1267 1.427 . S
C1269 C1270 1.328 . S
C1269 H1284 0.929 . S
C1270 C1264 1.448 . S
C1270 C1269 1.328 . S
C1270 H1285 0.930 . S
Tb1271 N1262 2.617 . S
Tb1271 N1272 2.572 . S
Tb1271 O1306 2.349 . S
Tb1271 O1309 2.393 . S
Tb1271 O1310 2.465 . S
Tb1271 O1311 2.387 . S
Tb1271 O1313 2.428 . S
Tb1271 O1314 2.308 . S
Tb1271 C1335 2.802 1_554 S
N1272 C1268 1.361 . S
N1272 Tb1271 2.572 . S
N1272 C1274 1.340 . S
C1273 C1267 1.416 . S
C1273 C1275 1.332 . S
C1273 H1281 0.931 . S
C1274 N1272 1.340 . S
C1274 C1275 1.407 . S
C1274 H1280 0.930 . S
C1275 C1273 1.332 . S
C1275 C1274 1.407 . S
C1275 H1277 0.929 . S
H1276 C1265 0.930 . S
H1277 C1275 0.929 . S
H1278 C1293 0.930 . S
H1279 C1300 0.929 . S
H1280 C1274 0.930 . S
H1281 C1273 0.931 . S
H1282 C1296 0.930 . S
H1283 C1263 0.930 . S
H1284 C1269 0.929 . S
H1285 C1270 0.930 . S
H1286 C1291 0.930 . S
H1287 C1266 0.930 . S
H1288 C1299 0.931 . S
N1289 Tb1260 2.617 . S
N1289 C1290 1.379 . S
N1289 C1293 1.334 . S
C1290 N1289 1.379 . S
C1290 C1292 1.416 . S
C1290 C1298 1.424 . S
C1291 H1286 0.930 . S
C1291 C1293 1.390 . S
C1291 C1294 1.339 . S
C1292 C1290 1.416 . S
C1292 C1294 1.416 . S
C1292 C1325 1.448 . S
C1293 H1278 0.930 . S
C1293 N1289 1.334 . S
C1293 C1291 1.390 . S
C1294 C1291 1.339 . S
C1294 C1292 1.416 . S
C1294 H1301 0.930 . S
N1295 Tb1260 2.572 . S
N1295 C1296 1.340 . S
N1295 C1298 1.361 . S
C1296 H1282 0.930 . S
C1296 N1295 1.340 . S
C1296 C1300 1.407 . S
C1297 C1298 1.413 . S
C1297 C1299 1.416 . S
C1297 C1326 1.427 . S
C1298 C1290 1.424 . S
C1298 N1295 1.361 . S
C1298 C1297 1.413 . S
C1299 H1288 0.931 . S
C1299 C1297 1.416 . S
C1299 C1300 1.332 . S
C1300 H1279 0.929 . S
C1300 C1296 1.407 . S
C1300 C1299 1.332 . S
H1301 C1294 0.930 . S
H1302 C1325 0.930 . S
H1303 C1326 0.929 . S
O1304 Tb1260 2.465 . S
O1304 C1324 1.264 . S
O1305 Tb1260 2.387 . S
O1305 C1316 1.264 . S
O1306 Tb1271 2.349 . S
O1306 C1316 1.243 . S
O1307 Tb1260 2.428 . S
O1307 C1324 1.256 . S
O1308 Tb1260 2.308 . S
O1308 C1323 1.266 . S
O1309 Tb1271 2.393 . S
O1309 C1323 1.248 . S
O1310 Tb1271 2.465 . S
O1310 C1335 1.264 1_554 S
O1311 Tb1271 2.387 . S
O1311 C1327 1.264 . S
O1312 Tb1260 2.349 . S
O1312 C1327 1.243 . S
O1313 Tb1271 2.428 . S
O1313 C1335 1.256 1_554 S
O1314 Tb1271 2.308 . S
O1314 C1334 1.266 . S
O1315 Tb1260 2.393 . S
O1315 C1334 1.248 . S
C1316 O1305 1.264 . S
C1316 O1306 1.243 . S
C1317 C1320 1.399 . S
C1317 C1322 1.383 . S
C1317 C1324 1.496 . S
C1318 C1319 1.399 . S
C1318 C1322 1.389 . S
C1319 C1318 1.399 . S
C1319 C1321 1.380 . S
C1319 H1336 0.929 . S
C1320 C1317 1.399 . S
C1320 C1321 1.392 . S
C1320 H1337 0.929 . S
C1321 C1319 1.380 . S
C1321 C1320 1.392 . S
C1321 H1338 0.929 . S
C1322 C1317 1.383 . S
C1322 C1318 1.389 . S
C1322 H1339 0.931 . S
C1323 O1308 1.266 . S
C1323 O1309 1.248 . S
C1324 Tb1260 2.802 . S
C1324 O1304 1.264 . S
C1324 O1307 1.256 . S
C1324 C1317 1.496 . S
C1325 C1292 1.448 . S
C1325 H1302 0.930 . S
C1325 C1326 1.328 . S
C1326 C1297 1.427 . S
C1326 H1303 0.929 . S
C1326 C1325 1.328 . S
C1327 O1311 1.264 . S
C1327 O1312 1.243 . S
C1328 C1331 1.399 . S
C1328 C1332 1.383 . S
C1328 C1335 1.496 . S
C1329 C1330 1.399 . S
C1329 C1332 1.389 . S
C1330 C1329 1.399 . S
C1330 C1333 1.380 . S
C1330 H1340 0.929 . S
C1331 C1328 1.399 . S
C1331 C1333 1.392 . S
C1331 H1341 0.929 . S
C1332 C1328 1.383 . S
C1332 C1329 1.389 . S
C1332 H1342 0.931 . S
C1333 C1330 1.380 . S
C1333 C1331 1.392 . S
C1333 H1343 0.929 . S
C1334 O1314 1.266 . S
C1334 O1315 1.248 . S
C1335 Tb1271 2.802 1_556 S
C1335 O1310 1.264 1_556 S
C1335 O1313 1.256 1_556 S
C1335 C1328 1.496 . S
H1336 C1319 0.929 . S
H1337 C1320 0.929 . S
H1338 C1321 0.929 . S
H1339 C1322 0.931 . S
H1340 C1330 0.929 . S
H1341 C1331 0.929 . S
H1342 C1332 0.931 . S
H1343 C1333 0.929 . S
Tb1344 N1373 2.617 . S
Tb1344 N1379 2.572 . S
Tb1344 O1388 2.465 . S
Tb1344 O1389 2.387 . S
Tb1344 O1391 2.428 . S
Tb1344 O1392 2.308 . S
Tb1344 O1396 2.349 . S
Tb1344 O1399 2.393 . S
Tb1344 C1408 2.802 . S
C1345 N1346 1.379 . S
C1345 C1348 1.416 . S
C1345 C1352 1.424 . S
N1346 C1345 1.379 . S
N1346 C1349 1.334 . S
N1346 Tb1355 2.617 . S
C1347 C1349 1.390 . S
C1347 C1350 1.339 . S
C1347 H1367 0.930 . S
C1348 C1345 1.416 . S
C1348 C1350 1.416 . S
C1348 C1354 1.448 . S
C1349 N1346 1.334 . S
C1349 C1347 1.390 . S
C1349 H1360 0.930 . S
C1350 C1347 1.339 . S
C1350 C1348 1.416 . S
C1350 H1371 0.930 . S
C1351 C1352 1.413 . S
C1351 C1353 1.427 . S
C1351 C1357 1.416 . S
C1352 C1345 1.424 . S
C1352 C1351 1.413 . S
C1352 N1356 1.361 . S
C1353 C1351 1.427 . S
C1353 C1354 1.328 . S
C1353 H1368 0.929 . S
C1354 C1348 1.448 . S
C1354 C1353 1.328 . S
C1354 H1369 0.930 . S
Tb1355 N1346 2.617 . S
Tb1355 N1356 2.572 . S
Tb1355 O1390 2.349 . S
Tb1355 O1393 2.393 . S
Tb1355 O1394 2.465 . S
Tb1355 O1395 2.387 . S
Tb1355 O1397 2.428 . S
Tb1355 O1398 2.308 . S
Tb1355 C1419 2.802 1_554 S
N1356 C1352 1.361 . S
N1356 Tb1355 2.572 . S
N1356 C1358 1.340 . S
C1357 C1351 1.416 . S
C1357 C1359 1.332 . S
C1357 H1365 0.931 . S
C1358 N1356 1.340 . S
C1358 C1359 1.407 . S
C1358 H1364 0.930 . S
C1359 C1357 1.332 . S
C1359 C1358 1.407 . S
C1359 H1361 0.929 . S
H1360 C1349 0.930 . S
H1361 C1359 0.929 . S
H1362 C1377 0.930 . S
H1363 C1384 0.929 . S
H1364 C1358 0.930 . S
H1365 C1357 0.931 . S
H1366 C1380 0.930 . S
H1367 C1347 0.930 . S
H1368 C1353 0.929 . S
H1369 C1354 0.930 . S
H1370 C1375 0.930 . S
H1371 C1350 0.930 . S
H1372 C1383 0.931 . S
N1373 Tb1344 2.617 . S
N1373 C1374 1.379 . S
N1373 C1377 1.334 . S
C1374 N1373 1.379 . S
C1374 C1376 1.416 . S
C1374 C1382 1.424 . S
C1375 H1370 0.930 . S
C1375 C1377 1.390 . S
C1375 C1378 1.339 . S
C1376 C1374 1.416 . S
C1376 C1378 1.416 . S
C1376 C1409 1.448 . S
C1377 H1362 0.930 . S
C1377 N1373 1.334 . S
C1377 C1375 1.390 . S
C1378 C1375 1.339 . S
C1378 C1376 1.416 . S
C1378 H1385 0.930 . S
N1379 Tb1344 2.572 . S
N1379 C1380 1.340 . S
N1379 C1382 1.361 . S
C1380 H1366 0.930 . S
C1380 N1379 1.340 . S
C1380 C1384 1.407 . S
C1381 C1382 1.413 . S
C1381 C1383 1.416 . S
C1381 C1410 1.427 . S
C1382 C1374 1.424 . S
C1382 N1379 1.361 . S
C1382 C1381 1.413 . S
C1383 H1372 0.931 . S
C1383 C1381 1.416 . S
C1383 C1384 1.332 . S
C1384 H1363 0.929 . S
C1384 C1380 1.407 . S
C1384 C1383 1.332 . S
H1385 C1378 0.930 . S
H1386 C1409 0.930 . S
H1387 C1410 0.967 . S
O1388 Tb1344 2.465 . S
O1388 C1408 1.264 . S
O1389 Tb1344 2.387 . S
O1389 C1400 1.264 . S
O1390 Tb1355 2.349 . S
O1390 C1400 1.243 . S
O1391 Tb1344 2.428 . S
O1391 C1408 1.256 . S
O1392 Tb1344 2.308 . S
O1392 C1407 1.266 . S
O1393 Tb1355 2.393 . S
O1393 C1407 1.248 . S
O1394 Tb1355 2.465 . S
O1394 C1419 1.264 1_554 S
O1395 Tb1355 2.387 . S
O1395 C1411 1.264 . S
O1396 Tb1344 2.349 . S
O1396 C1411 1.243 . S
O1397 Tb1355 2.428 . S
O1397 C1419 1.256 1_554 S
O1398 Tb1355 2.308 . S
O1398 C1418 1.266 . S
O1399 Tb1344 2.393 . S
O1399 C1418 1.248 . S
C1400 O1389 1.264 . S
C1400 O1390 1.243 . S
C1401 C1404 1.399 . S
C1401 C1406 1.383 . S
C1401 C1408 1.496 . S
C1402 C1403 1.399 . S
C1402 C1406 1.389 . S
C1403 C1402 1.399 . S
C1403 C1405 1.380 . S
C1403 H1420 0.929 . S
C1404 C1401 1.399 . S
C1404 C1405 1.392 . S
C1404 H1421 0.929 . S
C1405 C1403 1.380 . S
C1405 C1404 1.392 . S
C1405 H1422 0.929 . S
C1406 C1401 1.383 . S
C1406 C1402 1.389 . S
C1406 H1423 0.931 . S
C1407 O1392 1.266 . S
C1407 O1393 1.248 . S
C1408 Tb1344 2.802 . S
C1408 O1388 1.264 . S
C1408 O1391 1.256 . S
C1408 C1401 1.496 . S
C1409 C1376 1.448 . S
C1409 H1386 0.930 . S
C1409 C1410 1.328 . S
C1410 C1381 1.427 . S
C1410 H1387 0.967 . S
C1410 C1409 1.328 . S
C1411 O1395 1.264 . S
C1411 O1396 1.243 . S
C1412 C1415 1.399 . S
C1412 C1416 1.383 . S
C1412 C1419 1.496 . S
C1413 C1414 1.399 . S
C1413 C1416 1.389 . S
C1414 C1413 1.399 . S
C1414 C1417 1.380 . S
C1414 H1424 0.929 . S
C1415 C1412 1.399 . S
C1415 C1417 1.392 . S
C1415 H1425 0.929 . S
C1416 C1412 1.383 . S
C1416 C1413 1.389 . S
C1416 H1426 0.931 . S
C1417 C1414 1.380 . S
C1417 C1415 1.392 . S
C1417 H1427 0.929 . S
C1418 O1398 1.266 . S
C1418 O1399 1.248 . S
C1419 Tb1355 2.802 1_556 S
C1419 O1394 1.264 1_556 S
C1419 O1397 1.256 1_556 S
C1419 C1412 1.496 . S
H1420 C1403 0.929 . S
H1421 C1404 0.929 . S
H1422 C1405 0.929 . S
H1423 C1406 0.931 . S
H1424 C1414 0.929 . S
H1425 C1415 0.929 . S
H1426 C1416 0.931 . S
H1427 C1417 0.929 . S
Tb1428 N1457 2.617 . S
Tb1428 N1463 2.572 . S
Tb1428 O1472 2.465 . S
Tb1428 O1473 2.387 . S
Tb1428 O1475 2.428 . S
Tb1428 O1476 2.308 . S
Tb1428 O1480 2.349 . S
Tb1428 O1483 2.393 . S
Tb1428 C1492 2.802 . S
C1429 N1430 1.379 . S
C1429 C1432 1.416 . S
C1429 C1436 1.424 . S
N1430 C1429 1.379 . S
N1430 C1433 1.334 . S
N1430 Tb1439 2.617 . S
C1431 C1433 1.390 . S
C1431 C1434 1.339 . S
C1431 H1451 0.930 . S
C1432 C1429 1.416 . S
C1432 C1434 1.416 . S
C1432 C1438 1.448 . S
C1433 N1430 1.334 . S
C1433 C1431 1.390 . S
C1433 H1444 0.930 . S
C1434 C1431 1.339 . S
C1434 C1432 1.416 . S
C1434 H1455 0.930 . S
C1435 C1436 1.413 . S
C1435 C1437 1.427 . S
C1435 C1441 1.416 . S
C1436 C1429 1.424 . S
C1436 C1435 1.413 . S
C1436 N1440 1.361 . S
C1437 C1435 1.427 . S
C1437 C1438 1.328 . S
C1437 H1452 0.929 . S
C1438 C1432 1.448 . S
C1438 C1437 1.328 . S
C1438 H1453 0.930 . S
Tb1439 N1430 2.617 . S
Tb1439 N1440 2.572 . S
Tb1439 O1474 2.349 . S
Tb1439 O1477 2.393 . S
Tb1439 O1478 2.465 . S
Tb1439 O1479 2.387 . S
Tb1439 O1481 2.428 . S
Tb1439 O1482 2.308 . S
Tb1439 C1503 2.802 1_554 S
N1440 C1436 1.361 . S
N1440 Tb1439 2.572 . S
N1440 C1442 1.340 . S
C1441 C1435 1.416 . S
C1441 C1443 1.332 . S
C1441 H1449 0.931 . S
C1442 N1440 1.340 . S
C1442 C1443 1.407 . S
C1442 H1448 0.930 . S
C1443 C1441 1.332 . S
C1443 C1442 1.407 . S
C1443 H1445 0.929 . S
H1444 C1433 0.930 . S
H1445 C1443 0.929 . S
H1446 C1461 0.930 . S
H1447 C1468 0.929 . S
H1448 C1442 0.930 . S
H1449 C1441 0.931 . S
H1450 C1464 0.930 . S
H1451 C1431 0.930 . S
H1452 C1437 0.929 . S
H1453 C1438 0.930 . S
H1454 C1459 0.930 . S
H1455 C1434 0.930 . S
H1456 C1467 0.931 . S
N1457 Tb1428 2.617 . S
N1457 C1458 1.379 . S
N1457 C1461 1.334 . S
C1458 N1457 1.379 . S
C1458 C1460 1.416 . S
C1458 C1466 1.424 . S
C1459 H1454 0.930 . S
C1459 C1461 1.390 . S
C1459 C1462 1.339 . S
C1460 C1458 1.416 . S
C1460 C1462 1.416 . S
C1460 C1493 1.448 . S
C1461 H1446 0.930 . S
C1461 N1457 1.334 . S
C1461 C1459 1.390 . S
C1462 C1459 1.339 . S
C1462 C1460 1.416 . S
C1462 H1469 0.930 . S
N1463 Tb1428 2.572 . S
N1463 C1464 1.340 . S
N1463 C1466 1.361 . S
C1464 H1450 0.930 . S
C1464 N1463 1.340 . S
C1464 C1468 1.407 . S
C1465 C1466 1.413 . S
C1465 C1467 1.416 . S
C1465 C1494 1.427 . S
C1466 C1458 1.424 . S
C1466 N1463 1.361 . S
C1466 C1465 1.413 . S
C1467 H1456 0.931 . S
C1467 C1465 1.416 . S
C1467 C1468 1.332 . S
C1468 H1447 0.929 . S
C1468 C1464 1.407 . S
C1468 C1467 1.332 . S
H1469 C1462 0.930 . S
H1470 C1493 0.930 . S
H1471 C1494 0.929 . S
O1472 Tb1428 2.465 . S
O1472 C1492 1.264 . S
O1473 Tb1428 2.387 . S
O1473 C1484 1.264 . S
O1474 Tb1439 2.349 . S
O1474 C1484 1.243 . S
O1475 Tb1428 2.428 . S
O1475 C1492 1.256 . S
O1476 Tb1428 2.308 . S
O1476 C1491 1.266 . S
O1477 Tb1439 2.393 . S
O1477 C1491 1.248 . S
O1478 Tb1439 2.465 . S
O1478 C1503 1.264 1_554 S
O1479 Tb1439 2.387 . S
O1479 C1495 1.264 . S
O1480 Tb1428 2.349 . S
O1480 C1495 1.243 . S
O1481 Tb1439 2.428 . S
O1481 C1503 1.256 1_554 S
O1482 Tb1439 2.308 . S
O1482 C1502 1.266 . S
O1483 Tb1428 2.393 . S
O1483 C1502 1.248 . S
C1484 O1473 1.264 . S
C1484 O1474 1.243 . S
C1485 C1488 1.399 . S
C1485 C1490 1.383 . S
C1485 C1492 1.496 . S
C1486 C1487 1.399 . S
C1486 C1490 1.389 . S
C1487 C1486 1.399 . S
C1487 C1489 1.380 . S
C1487 H1504 0.929 . S
C1488 C1485 1.399 . S
C1488 C1489 1.392 . S
C1488 H1505 0.929 . S
C1489 C1487 1.380 . S
C1489 C1488 1.392 . S
C1489 H1506 0.929 . S
C1490 C1485 1.383 . S
C1490 C1486 1.389 . S
C1490 H1507 0.931 . S
C1491 O1476 1.266 . S
C1491 O1477 1.248 . S
C1492 Tb1428 2.802 . S
C1492 O1472 1.264 . S
C1492 O1475 1.256 . S
C1492 C1485 1.496 . S
C1493 C1460 1.448 . S
C1493 H1470 0.930 . S
C1493 C1494 1.328 . S
C1494 C1465 1.427 . S
C1494 H1471 0.929 . S
C1494 C1493 1.328 . S
C1495 O1479 1.264 . S
C1495 O1480 1.243 . S
C1496 C1499 1.399 . S
C1496 C1500 1.383 . S
C1496 C1503 1.496 . S
C1497 C1498 1.399 . S
C1497 C1500 1.389 . S
C1498 C1497 1.399 . S
C1498 C1501 1.380 . S
C1498 H1508 0.929 . S
C1499 C1496 1.399 . S
C1499 C1501 1.392 . S
C1499 H1509 0.929 . S
C1500 C1496 1.383 . S
C1500 C1497 1.389 . S
C1500 H1510 0.931 . S
C1501 C1498 1.380 . S
C1501 C1499 1.392 . S
C1501 H1511 0.929 . S
C1502 O1482 1.266 . S
C1502 O1483 1.248 . S
C1503 Tb1439 2.802 1_556 S
C1503 O1478 1.264 1_556 S
C1503 O1481 1.256 1_556 S
C1503 C1496 1.496 . S
H1504 C1487 0.929 . S
H1505 C1488 0.929 . S
H1506 C1489 0.929 . S
H1507 C1490 0.931 . S
H1508 C1498 0.929 . S
H1509 C1499 0.929 . S
H1510 C1500 0.931 . S
H1511 C1501 0.929 . S
H1512 C1520 0.950 . S
H1513 C1525 0.950 . S
H1514 C1522 0.950 . S
H1515 C1524 0.950 . S
H1516 C1526 0.950 . S
H1517 C1528 0.950 . S
H1518 C1530 0.950 . S
H1519 C1531 0.950 . S
C1520 H1512 0.950 . S
C1520 C1521 1.386 . S
C1520 C1522 1.391 . S
C1521 C1520 1.386 . S
C1521 C1525 1.393 . S
C1522 H1514 0.950 . S
C1522 C1520 1.391 . S
C1522 C1523 1.400 . S
C1523 C1522 1.400 . S
C1523 C1524 1.398 . S
C1523 C1529 1.491 . S
C1524 H1515 0.950 . S
C1524 C1523 1.398 . S
C1524 C1525 1.391 . S
C1525 H1513 0.950 . S
C1525 C1521 1.393 . S
C1525 C1524 1.391 . S
C1526 H1516 0.950 . S
C1526 C1527 1.386 . S
C1526 C1528 1.391 . S
C1527 C1526 1.386 . S
C1527 C1531 1.393 . S
C1528 H1517 0.950 . S
C1528 C1526 1.391 . S
C1528 C1529 1.400 . S
C1529 C1523 1.491 . S
C1529 C1528 1.400 . S
C1529 C1530 1.398 . S
C1530 H1518 0.950 . S
C1530 C1529 1.398 . S
C1530 C1531 1.391 . S
C1531 H1519 0.950 . S
C1531 C1527 1.393 . S
C1531 C1530 1.391 . S
H1532 C1540 0.950 . S
H1533 C1545 0.950 . S
H1534 C1542 0.950 . S
H1535 C1544 0.950 . S
H1536 C1546 0.950 . S
H1537 C1548 0.950 . S
H1538 C1550 0.950 . S
H1539 C1551 0.950 . S
C1540 H1532 0.950 . S
C1540 C1541 1.386 . S
C1540 C1542 1.391 . S
C1541 C1540 1.386 . S
C1541 C1545 1.393 . S
C1542 H1534 0.950 . S
C1542 C1540 1.391 . S
C1542 C1543 1.400 . S
C1543 C1542 1.400 . S
C1543 C1544 1.398 . S
C1543 C1549 1.491 . S
C1544 H1535 0.950 . S
C1544 C1543 1.398 . S
C1544 C1545 1.391 . S
C1545 H1533 0.950 . S
C1545 C1541 1.393 . S
C1545 C1544 1.391 . S
C1546 H1536 0.950 . S
C1546 C1547 1.386 . S
C1546 C1548 1.391 . S
C1547 C1546 1.386 . S
C1547 C1551 1.393 . S
C1548 H1537 0.950 . S
C1548 C1546 1.391 . S
C1548 C1549 1.400 . S
C1549 C1543 1.491 . S
C1549 C1548 1.400 . S
C1549 C1550 1.398 . S
C1550 H1538 0.950 . S
C1550 C1549 1.398 . S
C1550 C1551 1.391 . S
C1551 H1539 0.950 . S
C1551 C1547 1.393 . S
C1551 C1550 1.391 . S
H1552 C1560 0.950 . S
H1553 C1565 0.950 . S
H1554 C1562 0.950 . S
H1555 C1564 0.950 . S
H1556 C1566 0.950 . S
H1557 C1568 0.950 . S
H1558 C1570 0.950 . S
H1559 C1571 0.950 . S
C1560 H1552 0.950 . S
C1560 C1561 1.386 . S
C1560 C1562 1.391 . S
C1561 C1560 1.386 . S
C1561 C1565 1.393 . S
C1562 H1554 0.950 . S
C1562 C1560 1.391 . S
C1562 C1563 1.400 . S
C1563 C1562 1.400 . S
C1563 C1564 1.398 . S
C1563 C1569 1.491 . S
C1564 H1555 0.950 . S
C1564 C1563 1.398 . S
C1564 C1565 1.391 . S
C1565 H1553 0.950 . S
C1565 C1561 1.393 . S
C1565 C1564 1.391 . S
C1566 H1556 0.950 . S
C1566 C1567 1.386 . S
C1566 C1568 1.391 . S
C1567 C1566 1.386 . S
C1567 C1571 1.393 . S
C1568 H1557 0.950 . S
C1568 C1566 1.391 . S
C1568 C1569 1.400 . S
C1569 C1563 1.491 . S
C1569 C1568 1.400 . S
C1569 C1570 1.398 . S
C1570 H1558 0.950 . S
C1570 C1569 1.398 . S
C1570 C1571 1.391 . S
C1571 H1559 0.950 . S
C1571 C1567 1.393 . S
C1571 C1570 1.391 . S
H1572 C1580 0.950 . S
H1573 C1585 0.950 . S
H1574 C1582 0.950 . S
H1575 C1584 0.950 . S
H1576 C1586 0.950 . S
H1577 C1588 0.950 . S
H1578 C1590 0.950 . S
H1579 C1591 0.950 . S
C1580 H1572 0.950 . S
C1580 C1581 1.386 . S
C1580 C1582 1.391 . S
C1581 C1580 1.386 . S
C1581 C1585 1.393 . S
C1582 H1574 0.950 . S
C1582 C1580 1.391 . S
C1582 C1583 1.400 . S
C1583 C1582 1.400 . S
C1583 C1584 1.398 . S
C1583 C1589 1.491 . S
C1584 H1575 0.950 . S
C1584 C1583 1.398 . S
C1584 C1585 1.391 . S
C1585 H1573 0.950 . S
C1585 C1581 1.393 . S
C1585 C1584 1.391 . S
C1586 H1576 0.950 . S
C1586 C1587 1.386 . S
C1586 C1588 1.391 . S
C1587 C1586 1.386 . S
C1587 C1591 1.393 . S
C1588 H1577 0.950 . S
C1588 C1586 1.391 . S
C1588 C1589 1.400 . S
C1589 C1583 1.491 . S
C1589 C1588 1.400 . S
C1589 C1590 1.398 . S
C1590 H1578 0.950 . S
C1590 C1589 1.398 . S
C1590 C1591 1.391 . S
C1591 H1579 0.950 . S
C1591 C1587 1.393 . S
C1591 C1590 1.391 . S
H1592 C1600 0.950 . S
H1593 C1605 0.950 . S
H1594 C1602 0.950 . S
H1595 C1604 0.950 . S
H1596 C1606 0.950 . S
H1597 C1608 0.950 . S
H1598 C1610 0.950 . S
H1599 C1611 0.950 . S
C1600 H1592 0.950 . S
C1600 C1601 1.386 . S
C1600 C1602 1.391 . S
C1601 C1600 1.386 . S
C1601 C1605 1.393 . S
C1602 H1594 0.950 . S
C1602 C1600 1.391 . S
C1602 C1603 1.400 . S
C1603 C1602 1.400 . S
C1603 C1604 1.398 . S
C1603 C1609 1.491 . S
C1604 H1595 0.950 . S
C1604 C1603 1.398 . S
C1604 C1605 1.391 . S
C1605 H1593 0.950 . S
C1605 C1601 1.393 . S
C1605 C1604 1.391 . S
C1606 H1596 0.950 . S
C1606 C1607 1.386 . S
C1606 C1608 1.391 . S
C1607 C1606 1.386 . S
C1607 C1611 1.393 . S
C1608 H1597 0.950 . S
C1608 C1606 1.391 . S
C1608 C1609 1.400 . S
C1609 C1603 1.491 . S
C1609 C1608 1.400 . S
C1609 C1610 1.398 . S
C1610 H1598 0.950 . S
C1610 C1609 1.398 . S
C1610 C1611 1.391 . S
C1611 H1599 0.950 . S
C1611 C1607 1.393 . S
C1611 C1610 1.391 . S
H1612 C1620 0.950 . S
H1613 C1625 0.950 . S
H1614 C1622 0.950 . S
H1615 C1624 0.950 . S
H1616 C1626 0.950 . S
H1617 C1628 0.950 . S
H1618 C1630 0.950 . S
H1619 C1631 0.950 . S
C1620 H1612 0.950 . S
C1620 C1621 1.386 . S
C1620 C1622 1.391 . S
C1621 C1620 1.386 . S
C1621 C1625 1.393 . S
C1622 H1614 0.950 . S
C1622 C1620 1.391 . S
C1622 C1623 1.400 . S
C1623 C1622 1.400 . S
C1623 C1624 1.398 . S
C1623 C1629 1.491 . S
C1624 H1615 0.950 . S
C1624 C1623 1.398 . S
C1624 C1625 1.391 . S
C1625 H1613 0.950 . S
C1625 C1621 1.393 . S
C1625 C1624 1.391 . S
C1626 H1616 0.950 . S
C1626 C1627 1.386 . S
C1626 C1628 1.391 . S
C1627 C1626 1.386 . S
C1627 C1631 1.393 . S
C1628 H1617 0.950 . S
C1628 C1626 1.391 . S
C1628 C1629 1.400 . S
C1629 C1623 1.491 . S
C1629 C1628 1.400 . S
C1629 C1630 1.398 . S
C1630 H1618 0.950 . S
C1630 C1629 1.398 . S
C1630 C1631 1.391 . S
C1631 H1619 0.950 . S
C1631 C1627 1.393 . S
C1631 C1630 1.391 . S
H1632 C1640 0.950 . S
H1633 C1645 0.950 . S
H1634 C1642 0.950 . S
H1635 C1644 0.950 . S
H1636 C1646 0.950 . S
H1637 C1648 0.950 . S
H1638 C1650 0.950 . S
H1639 C1651 0.950 . S
C1640 H1632 0.950 . S
C1640 C1641 1.386 . S
C1640 C1642 1.391 . S
C1641 C1640 1.386 . S
C1641 C1645 1.393 . S
C1642 H1634 0.950 . S
C1642 C1640 1.391 . S
C1642 C1643 1.400 . S
C1643 C1642 1.400 . S
C1643 C1644 1.398 . S
C1643 C1649 1.491 . S
C1644 H1635 0.950 . S
C1644 C1643 1.398 . S
C1644 C1645 1.391 . S
C1645 H1633 0.950 . S
C1645 C1641 1.393 . S
C1645 C1644 1.391 . S
C1646 H1636 0.950 . S
C1646 C1647 1.386 . S
C1646 C1648 1.391 . S
C1647 C1646 1.386 . S
C1647 C1651 1.393 . S
C1648 H1637 0.950 . S
C1648 C1646 1.391 . S
C1648 C1649 1.400 . S
C1649 C1643 1.491 . S
C1649 C1648 1.400 . S
C1649 C1650 1.398 . S
C1650 H1638 0.950 . S
C1650 C1649 1.398 . S
C1650 C1651 1.391 . S
C1651 H1639 0.950 . S
C1651 C1647 1.393 . S
C1651 C1650 1.391 . S
H1652 C1660 0.950 . S
H1653 C1665 0.950 . S
H1654 C1662 0.950 . S
H1655 C1664 0.950 . S
H1656 C1666 0.950 . S
H1657 C1668 0.950 . S
H1658 C1670 0.950 . S
H1659 C1671 0.950 . S
C1660 H1652 0.950 . S
C1660 C1661 1.386 . S
C1660 C1662 1.391 . S
C1661 C1660 1.386 . S
C1661 C1665 1.393 . S
C1662 H1654 0.950 . S
C1662 C1660 1.391 . S
C1662 C1663 1.400 . S
C1663 C1662 1.400 . S
C1663 C1664 1.398 . S
C1663 C1669 1.491 . S
C1664 H1655 0.950 . S
C1664 C1663 1.398 . S
C1664 C1665 1.391 . S
C1665 H1653 0.950 . S
C1665 C1661 1.393 . S
C1665 C1664 1.391 . S
C1666 H1656 0.950 . S
C1666 C1667 1.386 . S
C1666 C1668 1.391 . S
C1667 C1666 1.386 . S
C1667 C1671 1.393 . S
C1668 H1657 0.950 . S
C1668 C1666 1.391 . S
C1668 C1669 1.400 . S
C1669 C1663 1.491 . S
C1669 C1668 1.400 . S
C1669 C1670 1.398 . S
C1670 H1658 0.950 . S
C1670 C1669 1.398 . S
C1670 C1671 1.391 . S
C1671 H1659 0.950 . S
C1671 C1667 1.393 . S
C1671 C1670 1.391 . S
H1672 C1680 0.950 . S
H1673 C1685 0.950 . S
H1674 C1682 0.950 . S
H1675 C1684 0.950 . S
H1676 C1686 0.950 . S
H1677 C1688 0.950 . S
H1678 C1690 0.950 . S
H1679 C1691 0.950 . S
C1680 H1672 0.950 . S
C1680 C1681 1.386 . S
C1680 C1682 1.391 . S
C1681 C1680 1.386 . S
C1681 C1685 1.393 . S
C1682 H1674 0.950 . S
C1682 C1680 1.391 . S
C1682 C1683 1.400 . S
C1683 C1682 1.400 . S
C1683 C1684 1.398 . S
C1683 C1689 1.491 . S
C1684 H1675 0.950 . S
C1684 C1683 1.398 . S
C1684 C1685 1.391 . S
C1685 H1673 0.950 . S
C1685 C1681 1.393 . S
C1685 C1684 1.391 . S
C1686 H1676 0.950 . S
C1686 C1687 1.386 . S
C1686 C1688 1.391 . S
C1687 C1686 1.386 . S
C1687 C1691 1.393 . S
C1688 H1677 0.950 . S
C1688 C1686 1.391 . S
C1688 C1689 1.400 . S
C1689 C1683 1.491 . S
C1689 C1688 1.400 . S
C1689 C1690 1.398 . S
C1690 H1678 0.950 . S
C1690 C1689 1.398 . S
C1690 C1691 1.391 . S
C1691 H1679 0.950 . S
C1691 C1687 1.393 . S
C1691 C1690 1.391 . S
H1692 C1700 0.950 . S
H1693 C1705 0.950 . S
H1694 C1702 0.950 . S
H1695 C1704 0.950 . S
H1696 C1706 0.950 . S
H1697 C1708 0.950 . S
H1698 C1710 0.950 . S
H1699 C1711 0.950 . S
C1700 H1692 0.950 . S
C1700 C1701 1.386 . S
C1700 C1702 1.391 . S
C1701 C1700 1.386 . S
C1701 C1705 1.393 . S
C1702 H1694 0.950 . S
C1702 C1700 1.391 . S
C1702 C1703 1.400 . S
C1703 C1702 1.400 . S
C1703 C1704 1.398 . S
C1703 C1709 1.491 . S
C1704 H1695 0.950 . S
C1704 C1703 1.398 . S
C1704 C1705 1.391 . S
C1705 H1693 0.950 . S
C1705 C1701 1.393 . S
C1705 C1704 1.391 . S
C1706 H1696 0.950 . S
C1706 C1707 1.386 . S
C1706 C1708 1.391 . S
C1707 C1706 1.386 . S
C1707 C1711 1.393 . S
C1708 H1697 0.950 . S
C1708 C1706 1.391 . S
C1708 C1709 1.400 . S
C1709 C1703 1.491 . S
C1709 C1708 1.400 . S
C1709 C1710 1.398 . S
C1710 H1698 0.950 . S
C1710 C1709 1.398 . S
C1710 C1711 1.391 . S
C1711 H1699 0.950 . S
C1711 C1707 1.393 . S
C1711 C1710 1.391 . S
H1712 C1720 0.950 . S
H1713 C1725 0.950 . S
H1714 C1722 0.950 . S
H1715 C1724 0.950 . S
H1716 C1726 0.950 . S
H1717 C1728 0.950 . S
H1718 C1730 0.950 . S
H1719 C1731 0.950 . S
C1720 H1712 0.950 . S
C1720 C1721 1.386 . S
C1720 C1722 1.391 . S
C1721 C1720 1.386 . S
C1721 C1725 1.393 . S
C1722 H1714 0.950 . S
C1722 C1720 1.391 . S
C1722 C1723 1.400 . S
C1723 C1722 1.400 . S
C1723 C1724 1.398 . S
C1723 C1729 1.491 . S
C1724 H1715 0.950 . S
C1724 C1723 1.398 . S
C1724 C1725 1.391 . S
C1725 H1713 0.950 . S
C1725 C1721 1.393 . S
C1725 C1724 1.391 . S
C1726 H1716 0.950 . S
C1726 C1727 1.386 . S
C1726 C1728 1.391 . S
C1727 C1726 1.386 . S
C1727 C1731 1.393 . S
C1728 H1717 0.950 . S
C1728 C1726 1.391 . S
C1728 C1729 1.400 . S
C1729 C1723 1.491 . S
C1729 C1728 1.400 . S
C1729 C1730 1.398 . S
C1730 H1718 0.950 . S
C1730 C1729 1.398 . S
C1730 C1731 1.391 . S
C1731 H1719 0.950 . S
C1731 C1727 1.393 . S
C1731 C1730 1.391 . S
H1732 C1740 0.950 . S
H1733 C1745 0.950 . S
H1734 C1742 0.950 . S
H1735 C1744 0.950 . S
H1736 C1746 0.950 . S
H1737 C1748 0.950 . S
H1738 C1750 0.950 . S
H1739 C1751 0.950 . S
C1740 H1732 0.950 . S
C1740 C1741 1.386 . S
C1740 C1742 1.391 . S
C1741 C1740 1.386 . S
C1741 C1745 1.393 . S
C1742 H1734 0.950 . S
C1742 C1740 1.391 . S
C1742 C1743 1.400 . S
C1743 C1742 1.400 . S
C1743 C1744 1.398 . S
C1743 C1749 1.491 . S
C1744 H1735 0.950 . S
C1744 C1743 1.398 . S
C1744 C1745 1.391 . S
C1745 H1733 0.950 . S
C1745 C1741 1.393 . S
C1745 C1744 1.391 . S
C1746 H1736 0.950 . S
C1746 C1747 1.386 . S
C1746 C1748 1.391 . S
C1747 C1746 1.386 . S
C1747 C1751 1.393 . S
C1748 H1737 0.950 . S
C1748 C1746 1.391 . S
C1748 C1749 1.400 . S
C1749 C1743 1.491 . S
C1749 C1748 1.400 . S
C1749 C1750 1.398 . S
C1750 H1738 0.950 . S
C1750 C1749 1.398 . S
C1750 C1751 1.391 . S
C1751 H1739 0.950 . S
C1751 C1747 1.393 . S
C1751 C1750 1.391 . S
H1752 C1760 0.950 . S
H1753 C1765 0.950 . S
H1754 C1762 0.950 1_455 S
H1755 C1764 0.950 . S
H1756 C1766 0.950 . S
H1757 C1768 0.950 1_655 S
H1758 C1770 0.950 1_556 S
H1759 C1771 0.950 . S
C1760 H1752 0.950 . S
C1760 C1761 1.386 . S
C1760 C1762 1.391 . S
C1761 C1760 1.386 . S
C1761 C1765 1.393 . S
C1762 H1754 0.950 1_655 S
C1762 C1760 1.391 . S
C1762 C1763 1.400 . S
C1763 C1762 1.400 . S
C1763 C1764 1.398 1_556 S
C1763 C1769 1.491 1_656 S
C1764 H1755 0.950 . S
C1764 C1763 1.398 1_554 S
C1764 C1765 1.391 1_554 S
C1765 H1753 0.950 . S
C1765 C1761 1.393 . S
C1765 C1764 1.391 1_556 S
C1766 H1756 0.950 . S
C1766 C1767 1.386 . S
C1766 C1768 1.391 . S
C1767 C1766 1.386 . S
C1767 C1771 1.393 . S
C1768 H1757 0.950 1_455 S
C1768 C1766 1.391 . S
C1768 C1769 1.400 . S
C1769 C1763 1.491 1_454 S
C1769 C1768 1.400 . S
C1769 C1770 1.398 . S
C1770 H1758 0.950 1_554 S
C1770 C1769 1.398 . S
C1770 C1771 1.391 . S
C1771 H1759 0.950 . S
C1771 C1767 1.393 . S
C1771 C1770 1.391 . S
H1772 C1780 0.950 . S
H1773 C1785 0.950 . S
H1774 C1782 0.950 . S
H1775 C1784 0.950 . S
H1776 C1786 0.950 . S
H1777 C1788 0.950 . S
H1778 C1790 0.950 . S
H1779 C1791 0.950 . S
C1780 H1772 0.950 . S
C1780 C1781 1.386 . S
C1780 C1782 1.391 . S
C1781 C1780 1.386 . S
C1781 C1785 1.393 . S
C1782 H1774 0.950 . S
C1782 C1780 1.391 . S
C1782 C1783 1.400 . S
C1783 C1782 1.400 . S
C1783 C1784 1.398 . S
C1783 C1789 1.491 1_556 S
C1784 H1775 0.950 . S
C1784 C1783 1.398 . S
C1784 C1785 1.391 . S
C1785 H1773 0.950 . S
C1785 C1781 1.393 . S
C1785 C1784 1.391 . S
C1786 H1776 0.950 . S
C1786 C1787 1.386 . S
C1786 C1788 1.391 . S
C1787 C1786 1.386 . S
C1787 C1791 1.393 . S
C1788 H1777 0.950 . S
C1788 C1786 1.391 . S
C1788 C1789 1.400 . S
C1789 C1783 1.491 1_554 S
C1789 C1788 1.400 . S
C1789 C1790 1.398 . S
C1790 H1778 0.950 . S
C1790 C1789 1.398 . S
C1790 C1791 1.391 . S
C1791 H1779 0.950 . S
C1791 C1787 1.393 . S
C1791 C1790 1.391 . S
H1792 C1800 0.950 . S
H1793 C1805 0.950 . S
H1794 C1802 0.950 1_554 S
H1795 C1804 0.950 . S
H1796 C1806 0.950 . S
H1797 C1808 0.950 . S
H1798 C1810 0.950 . S
H1799 C1811 0.950 . S
C1800 H1792 0.950 . S
C1800 C1801 1.386 . S
C1800 C1802 1.391 . S
C1801 C1800 1.386 . S
C1801 C1805 1.393 . S
C1802 H1794 0.950 1_556 S
C1802 C1800 1.391 . S
C1802 C1803 1.400 . S
C1803 C1802 1.400 . S
C1803 C1804 1.398 . S
C1803 C1809 1.491 1_546 S
C1804 H1795 0.950 . S
C1804 C1803 1.398 . S
C1804 C1805 1.391 . S
C1805 H1793 0.950 . S
C1805 C1801 1.393 . S
C1805 C1804 1.391 . S
C1806 H1796 0.950 . S
C1806 C1807 1.386 . S
C1806 C1808 1.391 . S
C1807 C1806 1.386 . S
C1807 C1811 1.393 . S
C1808 H1797 0.950 . S
C1808 C1806 1.391 . S
C1808 C1809 1.400 . S
C1809 C1803 1.491 1_564 S
C1809 C1808 1.400 . S
C1809 C1810 1.398 . S
C1810 H1798 0.950 . S
C1810 C1809 1.398 . S
C1810 C1811 1.391 . S
C1811 H1799 0.950 . S
C1811 C1807 1.393 . S
C1811 C1810 1.391 . S
H1812 C1820 0.950 . S
H1813 C1825 0.950 . S
H1814 C1822 0.950 . S
H1815 C1824 0.950 . S
H1816 C1826 0.950 . S
H1817 C1828 0.950 . S
H1818 C1830 0.950 1_556 S
H1819 C1831 0.950 . S
C1820 H1812 0.950 . S
C1820 C1821 1.386 . S
C1820 C1822 1.391 . S
C1821 C1820 1.386 . S
C1821 C1825 1.393 . S
C1822 H1814 0.950 . S
C1822 C1820 1.391 . S
C1822 C1823 1.400 . S
C1823 C1822 1.400 . S
C1823 C1824 1.398 . S
C1823 C1829 1.491 1_546 S
C1824 H1815 0.950 . S
C1824 C1823 1.398 . S
C1824 C1825 1.391 . S
C1825 H1813 0.950 . S
C1825 C1821 1.393 . S
C1825 C1824 1.391 . S
C1826 H1816 0.950 . S
C1826 C1827 1.386 . S
C1826 C1828 1.391 . S
C1827 C1826 1.386 . S
C1827 C1831 1.393 . S
C1828 H1817 0.950 . S
C1828 C1826 1.391 . S
C1828 C1829 1.400 . S
C1829 C1823 1.491 1_564 S
C1829 C1828 1.400 . S
C1829 C1830 1.398 . S
C1830 H1818 0.950 1_554 S
C1830 C1829 1.398 . S
C1830 C1831 1.391 . S
C1831 H1819 0.950 . S
C1831 C1827 1.393 . S
C1831 C1830 1.391 . S
H1832 C1840 0.950 . S
H1833 C1845 0.950 . S
H1834 C1842 0.950 . S
H1835 C1844 0.950 1_655 S
H1836 C1846 0.950 . S
H1837 C1848 0.950 1_554 S
H1838 C1850 0.950 1_455 S
H1839 C1851 0.950 . S
C1840 H1832 0.950 . S
C1840 C1841 1.386 . S
C1840 C1842 1.391 1_554 S
C1841 C1840 1.386 . S
C1841 C1845 1.393 . S
C1842 H1834 0.950 . S
C1842 C1840 1.391 1_556 S
C1842 C1843 1.400 1_556 S
C1843 C1842 1.400 1_554 S
C1843 C1844 1.398 . S
C1843 C1849 1.491 1_454 S
C1844 H1835 0.950 1_455 S
C1844 C1843 1.398 . S
C1844 C1845 1.391 . S
C1845 H1833 0.950 . S
C1845 C1841 1.393 . S
C1845 C1844 1.391 . S
C1846 H1836 0.950 . S
C1846 C1847 1.386 . S
C1846 C1848 1.391 . S
C1847 C1846 1.386 . S
C1847 C1851 1.393 . S
C1848 H1837 0.950 1_556 S
C1848 C1846 1.391 . S
C1848 C1849 1.400 . S
C1849 C1843 1.491 1_656 S
C1849 C1848 1.400 . S
C1849 C1850 1.398 . S
C1850 H1838 0.950 1_655 S
C1850 C1849 1.398 . S
C1850 C1851 1.391 . S
C1851 H1839 0.950 . S
C1851 C1847 1.393 . S
C1851 C1850 1.391 . S
H1852 C1860 0.950 . S
H1853 C1865 0.950 . S
H1854 C1862 0.950 . S
H1855 C1864 0.950 . S
H1856 C1866 0.950 . S
H1857 C1868 0.950 . S
H1858 C1870 0.950 . S
H1859 C1871 0.950 . S
C1860 H1852 0.950 . S
C1860 C1861 1.386 . S
C1860 C1862 1.391 . S
C1861 C1860 1.386 . S
C1861 C1865 1.393 . S
C1862 H1854 0.950 . S
C1862 C1860 1.391 . S
C1862 C1863 1.400 . S
C1863 C1862 1.400 . S
C1863 C1864 1.398 . S
C1863 C1869 1.491 1_554 S
C1864 H1855 0.950 . S
C1864 C1863 1.398 . S
C1864 C1865 1.391 . S
C1865 H1853 0.950 . S
C1865 C1861 1.393 . S
C1865 C1864 1.391 . S
C1866 H1856 0.950 . S
C1866 C1867 1.386 . S
C1866 C1868 1.391 . S
C1867 C1866 1.386 . S
C1867 C1871 1.393 . S
C1868 H1857 0.950 . S
C1868 C1866 1.391 . S
C1868 C1869 1.400 . S
C1869 C1863 1.491 1_556 S
C1869 C1868 1.400 . S
C1869 C1870 1.398 . S
C1870 H1858 0.950 . S
C1870 C1869 1.398 . S
C1870 C1871 1.391 . S
C1871 H1859 0.950 . S
C1871 C1867 1.393 . S
C1871 C1870 1.391 . S
H1872 C1880 0.950 . S
H1873 C1885 0.950 . S
H1874 C1882 0.950 . S
H1875 C1884 0.950 . S
H1876 C1886 0.950 . S
H1877 C1888 0.950 . S
H1878 C1890 0.950 . S
H1879 C1891 0.950 . S
C1880 H1872 0.950 . S
C1880 C1881 1.386 . S
C1880 C1882 1.391 . S
C1881 C1880 1.386 . S
C1881 C1885 1.393 . S
C1882 H1874 0.950 . S
C1882 C1880 1.391 . S
C1882 C1883 1.400 . S
C1883 C1882 1.400 . S
C1883 C1884 1.398 . S
C1883 C1889 1.491 . S
C1884 H1875 0.950 . S
C1884 C1883 1.398 . S
C1884 C1885 1.391 . S
C1885 H1873 0.950 . S
C1885 C1881 1.393 . S
C1885 C1884 1.391 . S
C1886 H1876 0.950 . S
C1886 C1887 1.386 . S
C1886 C1888 1.391 . S
C1887 C1886 1.386 . S
C1887 C1891 1.393 . S
C1888 H1877 0.950 . S
C1888 C1886 1.391 . S
C1888 C1889 1.400 . S
C1889 C1883 1.491 . S
C1889 C1888 1.400 . S
C1889 C1890 1.398 . S
C1890 H1878 0.950 . S
C1890 C1889 1.398 . S
C1890 C1891 1.391 . S
C1891 H1879 0.950 . S
C1891 C1887 1.393 . S
C1891 C1890 1.391 . S
H1892 C1900 0.950 . S
H1893 C1905 0.950 . S
H1894 C1902 0.950 . S
H1895 C1904 0.950 . S
H1896 C1906 0.950 . S
H1897 C1908 0.950 . S
H1898 C1910 0.950 . S
H1899 C1911 0.950 . S
C1900 H1892 0.950 . S
C1900 C1901 1.386 . S
C1900 C1902 1.391 . S
C1901 C1900 1.386 . S
C1901 C1905 1.393 . S
C1902 H1894 0.950 . S
C1902 C1900 1.391 . S
C1902 C1903 1.400 . S
C1903 C1902 1.400 . S
C1903 C1904 1.398 . S
C1903 C1909 1.491 . S
C1904 H1895 0.950 . S
C1904 C1903 1.398 . S
C1904 C1905 1.391 . S
C1905 H1893 0.950 . S
C1905 C1901 1.393 . S
C1905 C1904 1.391 . S
C1906 H1896 0.950 . S
C1906 C1907 1.386 . S
C1906 C1908 1.391 . S
C1907 C1906 1.386 . S
C1907 C1911 1.393 . S
C1908 H1897 0.950 . S
C1908 C1906 1.391 . S
C1908 C1909 1.400 . S
C1909 C1903 1.491 . S
C1909 C1908 1.400 . S
C1909 C1910 1.398 . S
C1910 H1898 0.950 . S
C1910 C1909 1.398 . S
C1910 C1911 1.391 . S
C1911 H1899 0.950 . S
C1911 C1907 1.393 . S
C1911 C1910 1.391 . S
H1912 C1920 0.950 . S
H1913 C1925 0.950 . S
H1914 C1922 0.950 . S
H1915 C1924 0.950 . S
H1916 C1926 0.950 . S
H1917 C1928 0.950 . S
H1918 C1930 0.950 . S
H1919 C1931 0.950 . S
C1920 H1912 0.950 . S
C1920 C1921 1.386 . S
C1920 C1922 1.391 . S
C1921 C1920 1.386 . S
C1921 C1925 1.393 . S
C1922 H1914 0.950 . S
C1922 C1920 1.391 . S
C1922 C1923 1.400 . S
C1923 C1922 1.400 . S
C1923 C1924 1.398 . S
C1923 C1929 1.491 . S
C1924 H1915 0.950 . S
C1924 C1923 1.398 . S
C1924 C1925 1.391 . S
C1925 H1913 0.950 . S
C1925 C1921 1.393 . S
C1925 C1924 1.391 . S
C1926 H1916 0.950 . S
C1926 C1927 1.386 . S
C1926 C1928 1.391 . S
C1927 C1926 1.386 . S
C1927 C1931 1.393 . S
C1928 H1917 0.950 . S
C1928 C1926 1.391 . S
C1928 C1929 1.400 . S
C1929 C1923 1.491 . S
C1929 C1928 1.400 . S
C1929 C1930 1.398 . S
C1930 H1918 0.950 . S
C1930 C1929 1.398 . S
C1930 C1931 1.391 . S
C1931 H1919 0.950 . S
C1931 C1927 1.393 . S
C1931 C1930 1.391 . S
H1932 C1940 0.950 . S
H1933 C1945 0.950 . S
H1934 C1942 0.950 . S
H1935 C1944 0.950 . S
H1936 C1946 0.950 . S
H1937 C1948 0.950 . S
H1938 C1950 0.950 . S
H1939 C1951 0.950 . S
C1940 H1932 0.950 . S
C1940 C1941 1.386 . S
C1940 C1942 1.391 . S
C1941 C1940 1.386 . S
C1941 C1945 1.393 . S
C1942 H1934 0.950 . S
C1942 C1940 1.391 . S
C1942 C1943 1.400 . S
C1943 C1942 1.400 . S
C1943 C1944 1.398 . S
C1943 C1949 1.491 . S
C1944 H1935 0.950 . S
C1944 C1943 1.398 . S
C1944 C1945 1.391 . S
C1945 H1933 0.950 . S
C1945 C1941 1.393 . S
C1945 C1944 1.391 . S
C1946 H1936 0.950 . S
C1946 C1947 1.386 . S
C1946 C1948 1.391 . S
C1947 C1946 1.386 . S
C1947 C1951 1.393 . S
C1948 H1937 0.950 . S
C1948 C1946 1.391 . S
C1948 C1949 1.400 . S
C1949 C1943 1.491 . S
C1949 C1948 1.400 . S
C1949 C1950 1.398 . S
C1950 H1938 0.950 . S
C1950 C1949 1.398 . S
C1950 C1951 1.391 . S
C1951 H1939 0.950 . S
C1951 C1947 1.393 . S
C1951 C1950 1.391 . S
H1952 C1960 0.950 . S
H1953 C1965 0.950 . S
H1954 C1962 0.950 . S
H1955 C1964 0.950 . S
H1956 C1966 0.950 . S
H1957 C1968 0.950 . S
H1958 C1970 0.950 . S
H1959 C1971 0.950 . S
C1960 H1952 0.950 . S
C1960 C1961 1.386 . S
C1960 C1962 1.391 . S
C1961 C1960 1.386 . S
C1961 C1965 1.393 . S
C1962 H1954 0.950 . S
C1962 C1960 1.391 . S
C1962 C1963 1.400 . S
C1963 C1962 1.400 . S
C1963 C1964 1.398 . S
C1963 C1969 1.491 . S
C1964 H1955 0.950 . S
C1964 C1963 1.398 . S
C1964 C1965 1.391 . S
C1965 H1953 0.950 . S
C1965 C1961 1.393 . S
C1965 C1964 1.391 . S
C1966 H1956 0.950 . S
C1966 C1967 1.386 . S
C1966 C1968 1.391 . S
C1967 C1966 1.386 . S
C1967 C1971 1.393 . S
C1968 H1957 0.950 . S
C1968 C1966 1.391 . S
C1968 C1969 1.400 . S
C1969 C1963 1.491 . S
C1969 C1968 1.400 . S
C1969 C1970 1.398 . S
C1970 H1958 0.950 . S
C1970 C1969 1.398 . S
C1970 C1971 1.391 . S
C1971 H1959 0.950 . S
C1971 C1967 1.393 . S
C1971 C1970 1.391 . S
H1972 C1980 0.950 . S
H1973 C1985 0.950 . S
H1974 C1982 0.950 . S
H1975 C1984 0.950 . S
H1976 C1986 0.950 . S
H1977 C1988 0.950 . S
H1978 C1990 0.950 . S
H1979 C1991 0.950 . S
C1980 H1972 0.950 . S
C1980 C1981 1.386 . S
C1980 C1982 1.391 . S
C1981 C1980 1.386 . S
C1981 C1985 1.393 . S
C1982 H1974 0.950 . S
C1982 C1980 1.391 . S
C1982 C1983 1.400 . S
C1983 C1982 1.400 . S
C1983 C1984 1.398 . S
C1983 C1989 1.491 . S
C1984 H1975 0.950 . S
C1984 C1983 1.398 . S
C1984 C1985 1.391 . S
C1985 H1973 0.950 . S
C1985 C1981 1.393 . S
C1985 C1984 1.391 . S
C1986 H1976 0.950 . S
C1986 C1987 1.386 . S
C1986 C1988 1.391 . S
C1987 C1986 1.386 . S
C1987 C1991 1.393 . S
C1988 H1977 0.950 . S
C1988 C1986 1.391 . S
C1988 C1989 1.400 . S
C1989 C1983 1.491 . S
C1989 C1988 1.400 . S
C1989 C1990 1.398 . S
C1990 H1978 0.950 . S
C1990 C1989 1.398 . S
C1990 C1991 1.391 . S
C1991 H1979 0.950 . S
C1991 C1987 1.393 . S
C1991 C1990 1.391 . S
H1992 C2000 0.950 . S
H1993 C2005 0.950 . S
H1994 C2002 0.950 . S
H1995 C2004 0.950 . S
H1996 C2006 0.950 . S
H1997 C2008 0.950 . S
H1998 C2010 0.950 . S
H1999 C2011 0.950 . S
C2000 H1992 0.950 . S
C2000 C2001 1.386 . S
C2000 C2002 1.391 . S
C2001 C2000 1.386 . S
C2001 C2005 1.393 . S
C2002 H1994 0.950 . S
C2002 C2000 1.391 . S
C2002 C2003 1.400 . S
C2003 C2002 1.400 . S
C2003 C2004 1.398 . S
C2003 C2009 1.491 . S
C2004 H1995 0.950 . S
C2004 C2003 1.398 . S
C2004 C2005 1.391 . S
C2005 H1993 0.950 . S
C2005 C2001 1.393 . S
C2005 C2004 1.391 . S
C2006 H1996 0.950 . S
C2006 C2007 1.386 . S
C2006 C2008 1.391 . S
C2007 C2006 1.386 . S
C2007 C2011 1.393 . S
C2008 H1997 0.950 . S
C2008 C2006 1.391 . S
C2008 C2009 1.400 . S
C2009 C2003 1.491 . S
C2009 C2008 1.400 . S
C2009 C2010 1.398 . S
C2010 H1998 0.950 . S
C2010 C2009 1.398 . S
C2010 C2011 1.391 . S
C2011 H1999 0.950 . S
C2011 C2007 1.393 . S
C2011 C2010 1.391 . S
H2012 C2020 0.950 . S
H2013 C2025 0.950 . S
H2014 C2022 0.950 . S
H2015 C2024 0.950 . S
H2016 C2026 0.950 . S
H2017 C2028 0.950 . S
H2018 C2030 0.950 . S
H2019 C2031 0.950 . S
C2020 H2012 0.950 . S
C2020 C2021 1.386 . S
C2020 C2022 1.391 . S
C2021 C2020 1.386 . S
C2021 C2025 1.393 . S
C2022 H2014 0.950 . S
C2022 C2020 1.391 . S
C2022 C2023 1.400 . S
C2023 C2022 1.400 . S
C2023 C2024 1.398 . S
C2023 C2029 1.491 . S
C2024 H2015 0.950 . S
C2024 C2023 1.398 . S
C2024 C2025 1.391 . S
C2025 H2013 0.950 . S
C2025 C2021 1.393 . S
C2025 C2024 1.391 . S
C2026 H2016 0.950 . S
C2026 C2027 1.386 . S
C2026 C2028 1.391 . S
C2027 C2026 1.386 . S
C2027 C2031 1.393 . S
C2028 H2017 0.950 . S
C2028 C2026 1.391 . S
C2028 C2029 1.400 . S
C2029 C2023 1.491 . S
C2029 C2028 1.400 . S
C2029 C2030 1.398 . S
C2030 H2018 0.950 . S
C2030 C2029 1.398 . S
C2030 C2031 1.391 . S
C2031 H2019 0.950 . S
C2031 C2027 1.393 . S
C2031 C2030 1.391 . S
H2032 C2040 0.950 . S
H2033 C2045 0.950 . S
H2034 C2042 0.950 . S
H2035 C2044 0.950 . S
H2036 C2046 0.950 . S
H2037 C2048 0.950 . S
H2038 C2050 0.950 . S
H2039 C2051 0.950 . S
C2040 H2032 0.950 . S
C2040 C2041 1.386 . S
C2040 C2042 1.391 . S
C2041 C2040 1.386 . S
C2041 C2045 1.393 . S
C2042 H2034 0.950 . S
C2042 C2040 1.391 . S
C2042 C2043 1.400 . S
C2043 C2042 1.400 . S
C2043 C2044 1.398 . S
C2043 C2049 1.491 . S
C2044 H2035 0.950 . S
C2044 C2043 1.398 . S
C2044 C2045 1.391 . S
C2045 H2033 0.950 . S
C2045 C2041 1.393 . S
C2045 C2044 1.391 . S
C2046 H2036 0.950 . S
C2046 C2047 1.386 . S
C2046 C2048 1.391 . S
C2047 C2046 1.386 . S
C2047 C2051 1.393 . S
C2048 H2037 0.950 . S
C2048 C2046 1.391 . S
C2048 C2049 1.400 . S
C2049 C2043 1.491 . S
C2049 C2048 1.400 . S
C2049 C2050 1.398 . S
C2050 H2038 0.950 . S
C2050 C2049 1.398 . S
C2050 C2051 1.391 . S
C2051 H2039 0.950 . S
C2051 C2047 1.393 . S
C2051 C2050 1.391 . S
H2052 C2060 0.950 . S
H2053 C2065 0.950 . S
H2054 C2062 0.950 . S
H2055 C2064 0.950 . S
H2056 C2066 0.950 . S
H2057 C2068 0.950 . S
H2058 C2070 0.950 . S
H2059 C2071 0.950 . S
C2060 H2052 0.950 . S
C2060 C2061 1.386 . S
C2060 C2062 1.391 . S
C2061 C2060 1.386 . S
C2061 C2065 1.393 . S
C2062 H2054 0.950 . S
C2062 C2060 1.391 . S
C2062 C2063 1.400 . S
C2063 C2062 1.400 . S
C2063 C2064 1.398 . S
C2063 C2069 1.491 . S
C2064 H2055 0.950 . S
C2064 C2063 1.398 . S
C2064 C2065 1.391 . S
C2065 H2053 0.950 . S
C2065 C2061 1.393 . S
C2065 C2064 1.391 . S
C2066 H2056 0.950 . S
C2066 C2067 1.386 . S
C2066 C2068 1.391 . S
C2067 C2066 1.386 . S
C2067 C2071 1.393 . S
C2068 H2057 0.950 . S
C2068 C2066 1.391 . S
C2068 C2069 1.400 . S
C2069 C2063 1.491 . S
C2069 C2068 1.400 . S
C2069 C2070 1.398 . S
C2070 H2058 0.950 . S
C2070 C2069 1.398 . S
C2070 C2071 1.391 . S
C2071 H2059 0.950 . S
C2071 C2067 1.393 . S
C2071 C2070 1.391 . S
H2072 C2080 0.950 . S
H2073 C2085 0.950 . S
H2074 C2082 0.950 . S
H2075 C2084 0.950 . S
H2076 C2086 0.950 . S
H2077 C2088 0.950 . S
H2078 C2090 0.950 . S
H2079 C2091 0.950 . S
C2080 H2072 0.950 . S
C2080 C2081 1.386 . S
C2080 C2082 1.391 . S
C2081 C2080 1.386 . S
C2081 C2085 1.393 . S
C2082 H2074 0.950 . S
C2082 C2080 1.391 . S
C2082 C2083 1.400 . S
C2083 C2082 1.400 . S
C2083 C2084 1.398 . S
C2083 C2089 1.491 . S
C2084 H2075 0.950 . S
C2084 C2083 1.398 . S
C2084 C2085 1.391 . S
C2085 H2073 0.950 . S
C2085 C2081 1.393 . S
C2085 C2084 1.391 . S
C2086 H2076 0.950 . S
C2086 C2087 1.386 . S
C2086 C2088 1.391 . S
C2087 C2086 1.386 . S
C2087 C2091 1.393 . S
C2088 H2077 0.950 . S
C2088 C2086 1.391 . S
C2088 C2089 1.400 . S
C2089 C2083 1.491 . S
C2089 C2088 1.400 . S
C2089 C2090 1.398 . S
C2090 H2078 0.950 . S
C2090 C2089 1.398 . S
C2090 C2091 1.391 . S
C2091 H2079 0.950 . S
C2091 C2087 1.393 . S
C2091 C2090 1.391 . S
H2092 C2100 0.950 . S
H2093 C2105 0.950 . S
H2094 C2102 0.950 . S
H2095 C2104 0.950 . S
H2096 C2106 0.950 . S
H2097 C2108 0.950 . S
H2098 C2110 0.950 . S
H2099 C2111 0.950 . S
C2100 H2092 0.950 . S
C2100 C2101 1.386 . S
C2100 C2102 1.391 . S
C2101 C2100 1.386 . S
C2101 C2105 1.393 . S
C2102 H2094 0.950 . S
C2102 C2100 1.391 . S
C2102 C2103 1.400 . S
C2103 C2102 1.400 . S
C2103 C2104 1.398 . S
C2103 C2109 1.491 . S
C2104 H2095 0.950 . S
C2104 C2103 1.398 . S
C2104 C2105 1.391 . S
C2105 H2093 0.950 . S
C2105 C2101 1.393 . S
C2105 C2104 1.391 . S
C2106 H2096 0.950 . S
C2106 C2107 1.386 . S
C2106 C2108 1.391 . S
C2107 C2106 1.386 . S
C2107 C2111 1.393 . S
C2108 H2097 0.950 . S
C2108 C2106 1.391 . S
C2108 C2109 1.400 . S
C2109 C2103 1.491 . S
C2109 C2108 1.400 . S
C2109 C2110 1.398 . S
C2110 H2098 0.950 . S
C2110 C2109 1.398 . S
C2110 C2111 1.391 . S
C2111 H2099 0.950 . S
C2111 C2107 1.393 . S
C2111 C2110 1.391 . S
H2112 C2120 0.950 . S
H2113 C2125 0.950 . S
H2114 C2122 0.950 . S
H2115 C2124 0.950 . S
H2116 C2126 0.950 . S
H2117 C2128 0.950 . S
H2118 C2130 0.950 . S
H2119 C2131 0.950 . S
C2120 H2112 0.950 . S
C2120 C2121 1.386 . S
C2120 C2122 1.391 . S
C2121 C2120 1.386 . S
C2121 C2125 1.393 . S
C2122 H2114 0.950 . S
C2122 C2120 1.391 . S
C2122 C2123 1.400 . S
C2123 C2122 1.400 . S
C2123 C2124 1.398 . S
C2123 C2129 1.491 . S
C2124 H2115 0.950 . S
C2124 C2123 1.398 . S
C2124 C2125 1.391 . S
C2125 H2113 0.950 . S
C2125 C2121 1.393 . S
C2125 C2124 1.391 . S
C2126 H2116 0.950 . S
C2126 C2127 1.386 . S
C2126 C2128 1.391 . S
C2127 C2126 1.386 . S
C2127 C2131 1.393 . S
C2128 H2117 0.950 . S
C2128 C2126 1.391 . S
C2128 C2129 1.400 . S
C2129 C2123 1.491 . S
C2129 C2128 1.400 . S
C2129 C2130 1.398 . S
C2130 H2118 0.950 . S
C2130 C2129 1.398 . S
C2130 C2131 1.391 . S
C2131 H2119 0.950 . S
C2131 C2127 1.393 . S
C2131 C2130 1.391 . S
H2132 C2140 0.950 . S
H2133 C2145 0.950 . S
H2134 C2142 0.950 . S
H2135 C2144 0.950 . S
H2136 C2146 0.950 . S
H2137 C2148 0.950 . S
H2138 C2150 0.950 . S
H2139 C2151 0.950 . S
C2140 H2132 0.950 . S
C2140 C2141 1.386 . S
C2140 C2142 1.391 . S
C2141 C2140 1.386 . S
C2141 C2145 1.393 . S
C2142 H2134 0.950 . S
C2142 C2140 1.391 . S
C2142 C2143 1.400 . S
C2143 C2142 1.400 . S
C2143 C2144 1.398 . S
C2143 C2149 1.491 . S
C2144 H2135 0.950 . S
C2144 C2143 1.398 . S
C2144 C2145 1.391 . S
C2145 H2133 0.950 . S
C2145 C2141 1.393 . S
C2145 C2144 1.391 . S
C2146 H2136 0.950 . S
C2146 C2147 1.386 . S
C2146 C2148 1.391 . S
C2147 C2146 1.386 . S
C2147 C2151 1.393 . S
C2148 H2137 0.950 . S
C2148 C2146 1.391 . S
C2148 C2149 1.400 . S
C2149 C2143 1.491 . S
C2149 C2148 1.400 . S
C2149 C2150 1.398 . S
C2150 H2138 0.950 . S
C2150 C2149 1.398 . S
C2150 C2151 1.391 . S
C2151 H2139 0.950 . S
C2151 C2147 1.393 . S
C2151 C2150 1.391 . S
H2152 C2160 0.950 . S
H2153 C2165 0.950 . S
H2154 C2162 0.950 . S
H2155 C2164 0.950 . S
H2156 C2166 0.950 . S
H2157 C2168 0.950 . S
H2158 C2170 0.950 . S
H2159 C2171 0.950 . S
C2160 H2152 0.950 . S
C2160 C2161 1.386 . S
C2160 C2162 1.391 . S
C2161 C2160 1.386 . S
C2161 C2165 1.393 . S
C2162 H2154 0.950 . S
C2162 C2160 1.391 . S
C2162 C2163 1.400 . S
C2163 C2162 1.400 . S
C2163 C2164 1.398 . S
C2163 C2169 1.491 . S
C2164 H2155 0.950 . S
C2164 C2163 1.398 . S
C2164 C2165 1.391 . S
C2165 H2153 0.950 . S
C2165 C2161 1.393 . S
C2165 C2164 1.391 . S
C2166 H2156 0.950 . S
C2166 C2167 1.386 . S
C2166 C2168 1.391 . S
C2167 C2166 1.386 . S
C2167 C2171 1.393 . S
C2168 H2157 0.950 . S
C2168 C2166 1.391 . S
C2168 C2169 1.400 . S
C2169 C2163 1.491 . S
C2169 C2168 1.400 . S
C2169 C2170 1.398 . S
C2170 H2158 0.950 . S
C2170 C2169 1.398 . S
C2170 C2171 1.391 . S
C2171 H2159 0.950 . S
C2171 C2167 1.393 . S
C2171 C2170 1.391 . S
H2172 C2180 0.950 . S
H2173 C2185 0.950 . S
H2174 C2182 0.950 . S
H2175 C2184 0.950 . S
H2176 C2186 0.950 . S
H2177 C2188 0.950 . S
H2178 C2190 0.950 . S
H2179 C2191 0.950 . S
C2180 H2172 0.950 . S
C2180 C2181 1.386 . S
C2180 C2182 1.391 . S
C2181 C2180 1.386 . S
C2181 C2185 1.393 . S
C2182 H2174 0.950 . S
C2182 C2180 1.391 . S
C2182 C2183 1.400 . S
C2183 C2182 1.400 . S
C2183 C2184 1.398 . S
C2183 C2189 1.491 . S
C2184 H2175 0.950 . S
C2184 C2183 1.398 . S
C2184 C2185 1.391 . S
C2185 H2173 0.950 . S
C2185 C2181 1.393 . S
C2185 C2184 1.391 . S
C2186 H2176 0.950 . S
C2186 C2187 1.386 . S
C2186 C2188 1.391 . S
C2187 C2186 1.386 . S
C2187 C2191 1.393 . S
C2188 H2177 0.950 . S
C2188 C2186 1.391 . S
C2188 C2189 1.400 . S
C2189 C2183 1.491 . S
C2189 C2188 1.400 . S
C2189 C2190 1.398 . S
C2190 H2178 0.950 . S
C2190 C2189 1.398 . S
C2190 C2191 1.391 . S
C2191 H2179 0.950 . S
C2191 C2187 1.393 . S
C2191 C2190 1.391 . S
H2192 C2200 0.950 . S
H2193 C2205 0.950 . S
H2194 C2202 0.950 . S
H2195 C2204 0.950 . S
H2196 C2206 0.950 . S
H2197 C2208 0.950 . S
H2198 C2210 0.950 . S
H2199 C2211 0.950 . S
C2200 H2192 0.950 . S
C2200 C2201 1.386 . S
C2200 C2202 1.391 . S
C2201 C2200 1.386 . S
C2201 C2205 1.393 . S
C2202 H2194 0.950 . S
C2202 C2200 1.391 . S
C2202 C2203 1.400 . S
C2203 C2202 1.400 . S
C2203 C2204 1.398 . S
C2203 C2209 1.491 . S
C2204 H2195 0.950 . S
C2204 C2203 1.398 . S
C2204 C2205 1.391 . S
C2205 H2193 0.950 . S
C2205 C2201 1.393 . S
C2205 C2204 1.391 . S
C2206 H2196 0.950 . S
C2206 C2207 1.386 . S
C2206 C2208 1.391 . S
C2207 C2206 1.386 . S
C2207 C2211 1.393 . S
C2208 H2197 0.950 . S
C2208 C2206 1.391 . S
C2208 C2209 1.400 . S
C2209 C2203 1.491 . S
C2209 C2208 1.400 . S
C2209 C2210 1.398 . S
C2210 H2198 0.950 . S
C2210 C2209 1.398 . S
C2210 C2211 1.391 . S
C2211 H2199 0.950 . S
C2211 C2207 1.393 . S
C2211 C2210 1.391 . S
H2212 C2220 0.950 . S
H2213 C2225 0.950 . S
H2214 C2222 0.950 . S
H2215 C2224 0.950 . S
H2216 C2226 0.950 . S
H2217 C2228 0.950 . S
H2218 C2230 0.950 . S
H2219 C2231 0.950 . S
C2220 H2212 0.950 . S
C2220 C2221 1.386 . S
C2220 C2222 1.391 . S
C2221 C2220 1.386 . S
C2221 C2225 1.393 . S
C2222 H2214 0.950 . S
C2222 C2220 1.391 . S
C2222 C2223 1.400 . S
C2223 C2222 1.400 . S
C2223 C2224 1.398 . S
C2223 C2229 1.491 . S
C2224 H2215 0.950 . S
C2224 C2223 1.398 . S
C2224 C2225 1.391 . S
C2225 H2213 0.950 . S
C2225 C2221 1.393 . S
C2225 C2224 1.391 . S
C2226 H2216 0.950 . S
C2226 C2227 1.386 . S
C2226 C2228 1.391 . S
C2227 C2226 1.386 . S
C2227 C2231 1.393 . S
C2228 H2217 0.950 . S
C2228 C2226 1.391 . S
C2228 C2229 1.400 . S
C2229 C2223 1.491 . S
C2229 C2228 1.400 . S
C2229 C2230 1.398 . S
C2230 H2218 0.950 . S
C2230 C2229 1.398 . S
C2230 C2231 1.391 . S
C2231 H2219 0.950 . S
C2231 C2227 1.393 . S
C2231 C2230 1.391 . S
H2232 C2240 0.950 1_655 S
H2233 C2245 0.950 . S
H2234 C2242 0.950 . S
H2235 C2244 0.950 . S
H2236 C2246 0.964 . S
H2237 C2248 0.950 . S
H2238 C2250 0.950 . S
H2239 C2251 0.950 . S
C2240 H2232 0.950 1_455 S
C2240 C2241 1.386 . S
C2240 C2242 1.391 1_455 S
C2241 C2240 1.386 . S
C2241 C2245 1.393 . S
C2242 H2234 0.950 . S
C2242 C2240 1.391 1_655 S
C2242 C2243 1.400 1_655 S
C2243 C2242 1.400 1_455 S
C2243 C2244 1.398 . S
C2243 C2249 1.491 1_454 S
C2244 H2235 0.950 . S
C2244 C2243 1.398 . S
C2244 C2245 1.391 . S
C2245 H2233 0.950 . S
C2245 C2241 1.393 . S
C2245 C2244 1.391 . S
C2246 H2236 0.964 . S
C2246 C2247 1.367 1_455 S
C2246 C2248 1.396 . S
C2247 C2246 1.367 1_655 S
C2247 C2251 1.393 . S
C2248 H2237 0.950 . S
C2248 C2246 1.396 . S
C2248 C2249 1.400 1_455 S
C2249 C2243 1.491 1_656 S
C2249 C2248 1.400 1_655 S
C2249 C2250 1.398 . S
C2250 H2238 0.950 . S
C2250 C2249 1.398 . S
C2250 C2251 1.391 . S
C2251 H2239 0.950 . S
C2251 C2247 1.393 . S
C2251 C2250 1.391 . S
H2252 C2260 0.950 . S
H2253 C2265 0.950 . S
H2254 C2262 0.950 . S
H2255 C2264 0.950 . S
H2256 C2266 0.950 . S
H2257 C2268 0.950 . S
H2258 C2270 0.950 . S
H2259 C2271 0.950 . S
C2260 H2252 0.950 . S
C2260 C2261 1.386 . S
C2260 C2262 1.391 . S
C2261 C2260 1.386 . S
C2261 C2265 1.393 . S
C2262 H2254 0.950 . S
C2262 C2260 1.391 . S
C2262 C2263 1.400 . S
C2263 C2262 1.400 . S
C2263 C2264 1.398 . S
C2263 C2269 1.491 1_554 S
C2264 H2255 0.950 . S
C2264 C2263 1.398 . S
C2264 C2265 1.391 . S
C2265 H2253 0.950 . S
C2265 C2261 1.393 . S
C2265 C2264 1.391 . S
C2266 H2256 0.950 . S
C2266 C2267 1.386 . S
C2266 C2268 1.391 . S
C2267 C2266 1.386 . S
C2267 C2271 1.393 . S
C2268 H2257 0.950 . S
C2268 C2266 1.391 . S
C2268 C2269 1.400 . S
C2269 C2263 1.491 1_556 S
C2269 C2268 1.400 . S
C2269 C2270 1.398 . S
C2270 H2258 0.950 . S
C2270 C2269 1.398 . S
C2270 C2271 1.391 . S
C2271 H2259 0.950 . S
C2271 C2267 1.393 . S
C2271 C2270 1.391 . S
H2272 C2280 0.950 . S
H2273 C2285 0.989 . S
H2274 C2282 0.950 . S
H2275 C2284 0.950 . S
H2276 C2286 0.950 . S
H2277 C2288 0.950 . S
H2278 C2290 0.950 . S
H2279 C2291 0.950 1_565 S
C2280 H2272 0.950 . S
C2280 C2281 1.386 . S
C2280 C2282 1.391 . S
C2281 C2280 1.386 . S
C2281 C2285 1.345 1_565 S
C2282 H2274 0.950 . S
C2282 C2280 1.391 . S
C2282 C2283 1.400 . S
C2283 C2282 1.400 . S
C2283 C2284 1.398 1_565 S
C2283 C2289 1.491 1_564 S
C2284 H2275 0.950 . S
C2284 C2283 1.398 1_545 S
C2284 C2285 1.402 . S
C2285 H2273 0.989 . S
C2285 C2281 1.345 1_545 S
C2285 C2284 1.402 . S
C2286 H2276 0.950 . S
C2286 C2287 1.386 . S
C2286 C2288 1.391 . S
C2287 C2286 1.386 . S
C2287 C2291 1.393 . S
C2288 H2277 0.950 . S
C2288 C2286 1.391 . S
C2288 C2289 1.400 . S
C2289 C2283 1.491 1_546 S
C2289 C2288 1.400 . S
C2289 C2290 1.398 1_545 S
C2290 H2278 0.950 . S
C2290 C2289 1.398 1_565 S
C2290 C2291 1.391 1_565 S
C2291 H2279 0.950 1_545 S
C2291 C2287 1.393 . S
C2291 C2290 1.391 1_545 S
H2292 C2300 0.950 . S
H2293 C2305 0.950 . S
H2294 C2302 0.945 1_455 S
H2295 C2304 0.950 . S
H2296 C2306 0.950 . S
H2297 C2308 0.950 1_655 S
H2298 C2310 0.950 . S
H2299 C2311 0.950 . S
C2300 H2292 0.950 . S
C2300 C2301 1.386 . S
C2300 C2302 1.393 . S
C2301 C2300 1.386 . S
C2301 C2305 1.393 . S
C2302 H2294 0.945 1_655 S
C2302 C2300 1.393 . S
C2302 C2303 1.404 . S
C2303 C2302 1.404 . S
C2303 C2304 1.398 . S
C2303 C2309 1.491 1_656 S
C2304 H2295 0.950 . S
C2304 C2303 1.398 . S
C2304 C2305 1.391 . S
C2305 H2293 0.950 . S
C2305 C2301 1.393 . S
C2305 C2304 1.391 . S
C2306 H2296 0.950 . S
C2306 C2307 1.386 . S
C2306 C2308 1.391 . S
C2307 C2306 1.386 . S
C2307 C2311 1.393 . S
C2308 H2297 0.950 1_455 S
C2308 C2306 1.391 . S
C2308 C2309 1.400 . S
C2309 C2303 1.491 1_454 S
C2309 C2308 1.400 . S
C2309 C2310 1.398 . S
C2310 H2298 0.950 . S
C2310 C2309 1.398 . S
C2310 C2311 1.391 . S
C2311 H2299 0.950 . S
C2311 C2307 1.393 . S
C2311 C2310 1.391 . S
H2312 C2320 0.950 . S
H2313 C2325 0.950 . S
H2314 C2322 0.950 . S
H2315 C2324 0.950 . S
H2316 C2326 0.950 . S
H2317 C2328 0.950 . S
H2318 C2330 0.950 . S
H2319 C2331 0.950 . S
C2320 H2312 0.950 . S
C2320 C2321 1.386 . S
C2320 C2322 1.391 . S
C2321 C2320 1.386 . S
C2321 C2325 1.393 . S
C2322 H2314 0.950 . S
C2322 C2320 1.391 . S
C2322 C2323 1.400 . S
C2323 C2322 1.400 . S
C2323 C2324 1.398 . S
C2323 C2329 1.491 1_554 S
C2324 H2315 0.950 . S
C2324 C2323 1.398 . S
C2324 C2325 1.391 . S
C2325 H2313 0.950 . S
C2325 C2321 1.393 . S
C2325 C2324 1.391 . S
C2326 H2316 0.950 . S
C2326 C2327 1.386 . S
C2326 C2328 1.391 . S
C2327 C2326 1.386 . S
C2327 C2331 1.393 . S
C2328 H2317 0.950 . S
C2328 C2326 1.391 . S
C2328 C2329 1.400 . S
C2329 C2323 1.491 1_556 S
C2329 C2328 1.400 . S
C2329 C2330 1.398 . S
C2330 H2318 0.950 . S
C2330 C2329 1.398 . S
C2330 C2331 1.391 . S
C2331 H2319 0.950 . S
C2331 C2327 1.393 . S
C2331 C2330 1.391 . S
H2332 C2340 0.950 . S
H2333 C2345 0.950 . S
H2334 C2342 0.950 1_545 S
H2335 C2344 0.950 . S
H2336 C2346 0.950 . S
H2337 C2348 0.951 . S
H2338 C2350 0.950 . S
H2339 C2351 0.950 . S
C2340 H2332 0.950 . S
C2340 C2341 1.386 . S
C2340 C2342 1.391 . S
C2341 C2340 1.386 . S
C2341 C2345 1.393 . S
C2342 H2334 0.950 1_565 S
C2342 C2340 1.391 . S
C2342 C2343 1.400 . S
C2343 C2342 1.400 . S
C2343 C2344 1.398 . S
C2343 C2349 1.491 1_564 S
C2344 H2335 0.950 . S
C2344 C2343 1.398 . S
C2344 C2345 1.391 . S
C2345 H2333 0.950 . S
C2345 C2341 1.393 . S
C2345 C2344 1.391 . S
C2346 H2336 0.950 . S
C2346 C2347 1.386 . S
C2346 C2348 1.391 . S
C2347 C2346 1.386 . S
C2347 C2351 1.393 . S
C2348 H2337 0.951 . S
C2348 C2346 1.391 . S
C2348 C2349 1.400 . S
C2349 C2343 1.491 1_546 S
C2349 C2348 1.400 . S
C2349 C2350 1.398 . S
C2350 H2338 0.950 . S
C2350 C2349 1.398 . S
C2350 C2351 1.391 . S
C2351 H2339 0.950 . S
C2351 C2347 1.393 . S
C2351 C2350 1.391 . S
H2352 C2360 0.950 . S
H2353 C2365 0.950 . S
H2354 C2362 0.950 . S
H2355 C2364 0.950 . S
H2356 C2366 0.950 . S
H2357 C2368 0.950 . S
H2358 C2370 0.950 . S
H2359 C2371 0.950 . S
C2360 H2352 0.950 . S
C2360 C2361 1.386 . S
C2360 C2362 1.391 . S
C2361 C2360 1.386 . S
C2361 C2365 1.393 . S
C2362 H2354 0.950 . S
C2362 C2360 1.391 . S
C2362 C2363 1.400 . S
C2363 C2362 1.400 . S
C2363 C2364 1.398 . S
C2363 C2369 1.491 . S
C2364 H2355 0.950 . S
C2364 C2363 1.398 . S
C2364 C2365 1.391 . S
C2365 H2353 0.950 . S
C2365 C2361 1.393 . S
C2365 C2364 1.391 . S
C2366 H2356 0.950 . S
C2366 C2367 1.386 . S
C2366 C2368 1.391 . S
C2367 C2366 1.386 . S
C2367 C2371 1.393 . S
C2368 H2357 0.950 . S
C2368 C2366 1.391 . S
C2368 C2369 1.400 . S
C2369 C2363 1.491 . S
C2369 C2368 1.400 . S
C2369 C2370 1.398 . S
C2370 H2358 0.950 . S
C2370 C2369 1.398 . S
C2370 C2371 1.391 . S
C2371 H2359 0.950 . S
C2371 C2367 1.393 . S
C2371 C2370 1.391 . S
H2372 C2380 0.950 . S
H2373 C2385 0.950 . S
H2374 C2382 0.950 . S
H2375 C2384 0.950 . S
H2376 C2386 0.950 . S
H2377 C2388 0.950 . S
H2378 C2390 0.950 . S
H2379 C2391 0.950 . S
C2380 H2372 0.950 . S
C2380 C2381 1.386 . S
C2380 C2382 1.391 . S
C2381 C2380 1.386 . S
C2381 C2385 1.393 . S
C2382 H2374 0.950 . S
C2382 C2380 1.391 . S
C2382 C2383 1.400 . S
C2383 C2382 1.400 . S
C2383 C2384 1.398 . S
C2383 C2389 1.491 . S
C2384 H2375 0.950 . S
C2384 C2383 1.398 . S
C2384 C2385 1.391 . S
C2385 H2373 0.950 . S
C2385 C2381 1.393 . S
C2385 C2384 1.391 . S
C2386 H2376 0.950 . S
C2386 C2387 1.386 . S
C2386 C2388 1.391 . S
C2387 C2386 1.386 . S
C2387 C2391 1.393 . S
C2388 H2377 0.950 . S
C2388 C2386 1.391 . S
C2388 C2389 1.400 . S
C2389 C2383 1.491 . S
C2389 C2388 1.400 . S
C2389 C2390 1.398 . S
C2390 H2378 0.950 . S
C2390 C2389 1.398 . S
C2390 C2391 1.391 . S
C2391 H2379 0.950 . S
C2391 C2387 1.393 . S
C2391 C2390 1.391 . S
H2392 C2400 0.950 . S
H2393 C2405 0.950 . S
H2394 C2402 0.950 . S
H2395 C2404 0.950 . S
H2396 C2406 0.950 . S
H2397 C2408 0.950 . S
H2398 C2410 0.950 . S
H2399 C2411 0.950 . S
C2400 H2392 0.950 . S
C2400 C2401 1.386 . S
C2400 C2402 1.391 . S
C2401 C2400 1.386 . S
C2401 C2405 1.393 . S
C2402 H2394 0.950 . S
C2402 C2400 1.391 . S
C2402 C2403 1.400 . S
C2403 C2402 1.400 . S
C2403 C2404 1.398 . S
C2403 C2409 1.491 . S
C2404 H2395 0.950 . S
C2404 C2403 1.398 . S
C2404 C2405 1.391 . S
C2405 H2393 0.950 . S
C2405 C2401 1.393 . S
C2405 C2404 1.391 . S
C2406 H2396 0.950 . S
C2406 C2407 1.386 . S
C2406 C2408 1.391 . S
C2407 C2406 1.386 . S
C2407 C2411 1.393 . S
C2408 H2397 0.950 . S
C2408 C2406 1.391 . S
C2408 C2409 1.400 . S
C2409 C2403 1.491 . S
C2409 C2408 1.400 . S
C2409 C2410 1.398 . S
C2410 H2398 0.950 . S
C2410 C2409 1.398 . S
C2410 C2411 1.391 . S
C2411 H2399 0.950 . S
C2411 C2407 1.393 . S
C2411 C2410 1.391 . S
H2412 C2420 0.950 . S
H2413 C2425 0.950 . S
H2414 C2422 0.950 . S
H2415 C2424 0.950 . S
H2416 C2426 0.950 . S
H2417 C2428 0.950 . S
H2418 C2430 0.950 . S
H2419 C2431 0.950 . S
C2420 H2412 0.950 . S
C2420 C2421 1.386 . S
C2420 C2422 1.391 . S
C2421 C2420 1.386 . S
C2421 C2425 1.393 . S
C2422 H2414 0.950 . S
C2422 C2420 1.391 . S
C2422 C2423 1.400 . S
C2423 C2422 1.400 . S
C2423 C2424 1.398 . S
C2423 C2429 1.491 . S
C2424 H2415 0.950 . S
C2424 C2423 1.398 . S
C2424 C2425 1.391 . S
C2425 H2413 0.950 . S
C2425 C2421 1.393 . S
C2425 C2424 1.391 . S
C2426 H2416 0.950 . S
C2426 C2427 1.386 . S
C2426 C2428 1.391 . S
C2427 C2426 1.386 . S
C2427 C2431 1.393 . S
C2428 H2417 0.950 . S
C2428 C2426 1.391 . S
C2428 C2429 1.400 . S
C2429 C2423 1.491 . S
C2429 C2428 1.400 . S
C2429 C2430 1.398 . S
C2430 H2418 0.950 . S
C2430 C2429 1.398 . S
C2430 C2431 1.391 . S
C2431 H2419 0.950 . S
C2431 C2427 1.393 . S
C2431 C2430 1.391 . S
H2432 C2440 0.950 . S
H2433 C2445 0.950 . S
H2434 C2442 0.950 . S
H2435 C2444 0.950 . S
H2436 C2446 0.950 . S
H2437 C2448 0.950 . S
H2438 C2450 0.950 . S
H2439 C2451 0.950 . S
C2440 H2432 0.950 . S
C2440 C2441 1.386 . S
C2440 C2442 1.391 . S
C2441 C2440 1.386 . S
C2441 C2445 1.393 . S
C2442 H2434 0.950 . S
C2442 C2440 1.391 . S
C2442 C2443 1.400 . S
C2443 C2442 1.400 . S
C2443 C2444 1.398 . S
C2443 C2449 1.491 . S
C2444 H2435 0.950 . S
C2444 C2443 1.398 . S
C2444 C2445 1.391 . S
C2445 H2433 0.950 . S
C2445 C2441 1.393 . S
C2445 C2444 1.391 . S
C2446 H2436 0.950 . S
C2446 C2447 1.386 . S
C2446 C2448 1.391 . S
C2447 C2446 1.386 . S
C2447 C2451 1.393 . S
C2448 H2437 0.950 . S
C2448 C2446 1.391 . S
C2448 C2449 1.400 . S
C2449 C2443 1.491 . S
C2449 C2448 1.400 . S
C2449 C2450 1.398 . S
C2450 H2438 0.950 . S
C2450 C2449 1.398 . S
C2450 C2451 1.391 . S
C2451 H2439 0.950 . S
C2451 C2447 1.393 . S
C2451 C2450 1.391 . S
H2452 C2460 0.950 . S
H2453 C2465 0.950 . S
H2454 C2462 0.950 . S
H2455 C2464 0.950 . S
H2456 C2466 0.950 . S
H2457 C2468 0.950 . S
H2458 C2470 0.950 . S
H2459 C2471 0.950 . S
C2460 H2452 0.950 . S
C2460 C2461 1.386 . S
C2460 C2462 1.391 . S
C2461 C2460 1.386 . S
C2461 C2465 1.393 . S
C2462 H2454 0.950 . S
C2462 C2460 1.391 . S
C2462 C2463 1.400 . S
C2463 C2462 1.400 . S
C2463 C2464 1.398 . S
C2463 C2469 1.491 . S
C2464 H2455 0.950 . S
C2464 C2463 1.398 . S
C2464 C2465 1.391 . S
C2465 H2453 0.950 . S
C2465 C2461 1.393 . S
C2465 C2464 1.391 . S
C2466 H2456 0.950 . S
C2466 C2467 1.386 . S
C2466 C2468 1.391 . S
C2467 C2466 1.386 . S
C2467 C2471 1.393 . S
C2468 H2457 0.950 . S
C2468 C2466 1.391 . S
C2468 C2469 1.400 . S
C2469 C2463 1.491 . S
C2469 C2468 1.400 . S
C2469 C2470 1.398 . S
C2470 H2458 0.950 . S
C2470 C2469 1.398 . S
C2470 C2471 1.391 . S
C2471 H2459 0.950 . S
C2471 C2467 1.393 . S
C2471 C2470 1.391 . S
H2472 C2480 0.950 . S
H2473 C2485 0.950 . S
H2474 C2482 0.950 . S
H2475 C2484 0.950 . S
H2476 C2486 0.950 . S
H2477 C2488 0.950 . S
H2478 C2490 0.950 . S
H2479 C2491 0.950 . S
C2480 H2472 0.950 . S
C2480 C2481 1.386 . S
C2480 C2482 1.391 . S
C2481 C2480 1.386 . S
C2481 C2485 1.393 . S
C2482 H2474 0.950 . S
C2482 C2480 1.391 . S
C2482 C2483 1.400 . S
C2483 C2482 1.400 . S
C2483 C2484 1.398 . S
C2483 C2489 1.491 . S
C2484 H2475 0.950 . S
C2484 C2483 1.398 . S
C2484 C2485 1.391 . S
C2485 H2473 0.950 . S
C2485 C2481 1.393 . S
C2485 C2484 1.391 . S
C2486 H2476 0.950 . S
C2486 C2487 1.386 . S
C2486 C2488 1.391 . S
C2487 C2486 1.386 . S
C2487 C2491 1.393 . S
C2488 H2477 0.950 . S
C2488 C2486 1.391 . S
C2488 C2489 1.400 . S
C2489 C2483 1.491 . S
C2489 C2488 1.400 . S
C2489 C2490 1.398 . S
C2490 H2478 0.950 . S
C2490 C2489 1.398 . S
C2490 C2491 1.391 . S
C2491 H2479 0.950 . S
C2491 C2487 1.393 . S
C2491 C2490 1.391 . S
H2492 C2500 0.950 . S
H2493 C2505 0.950 . S
H2494 C2502 0.950 . S
H2495 C2504 0.950 . S
H2496 C2506 0.950 . S
H2497 C2508 0.950 . S
H2498 C2510 0.950 . S
H2499 C2511 0.950 . S
C2500 H2492 0.950 . S
C2500 C2501 1.386 . S
C2500 C2502 1.391 . S
C2501 C2500 1.386 . S
C2501 C2505 1.393 . S
C2502 H2494 0.950 . S
C2502 C2500 1.391 . S
C2502 C2503 1.400 . S
C2503 C2502 1.400 . S
C2503 C2504 1.398 . S
C2503 C2509 1.491 . S
C2504 H2495 0.950 . S
C2504 C2503 1.398 . S
C2504 C2505 1.391 . S
C2505 H2493 0.950 . S
C2505 C2501 1.393 . S
C2505 C2504 1.391 . S
C2506 H2496 0.950 . S
C2506 C2507 1.386 . S
C2506 C2508 1.391 . S
C2507 C2506 1.386 . S
C2507 C2511 1.393 . S
C2508 H2497 0.950 . S
C2508 C2506 1.391 . S
C2508 C2509 1.400 . S
C2509 C2503 1.491 . S
C2509 C2508 1.400 . S
C2509 C2510 1.398 . S
C2510 H2498 0.950 . S
C2510 C2509 1.398 . S
C2510 C2511 1.391 . S
C2511 H2499 0.950 . S
C2511 C2507 1.393 . S
C2511 C2510 1.391 . S
H2512 C2520 0.950 . S
H2513 C2525 0.950 . S
H2514 C2522 0.950 . S
H2515 C2524 0.950 . S
H2516 C2526 0.950 . S
H2517 C2528 0.950 . S
H2518 C2530 0.950 . S
H2519 C2531 0.950 . S
C2520 H2512 0.950 . S
C2520 C2521 1.386 . S
C2520 C2522 1.391 . S
C2521 C2520 1.386 . S
C2521 C2525 1.393 . S
C2522 H2514 0.950 . S
C2522 C2520 1.391 . S
C2522 C2523 1.400 . S
C2523 C2522 1.400 . S
C2523 C2524 1.398 . S
C2523 C2529 1.491 . S
C2524 H2515 0.950 . S
C2524 C2523 1.398 . S
C2524 C2525 1.391 . S
C2525 H2513 0.950 . S
C2525 C2521 1.393 . S
C2525 C2524 1.391 . S
C2526 H2516 0.950 . S
C2526 C2527 1.386 . S
C2526 C2528 1.391 . S
C2527 C2526 1.386 . S
C2527 C2531 1.393 . S
C2528 H2517 0.950 . S
C2528 C2526 1.391 . S
C2528 C2529 1.400 . S
C2529 C2523 1.491 . S
C2529 C2528 1.400 . S
C2529 C2530 1.398 . S
C2530 H2518 0.950 . S
C2530 C2529 1.398 . S
C2530 C2531 1.391 . S
C2531 H2519 0.950 . S
C2531 C2527 1.393 . S
C2531 C2530 1.391 . S
H2532 C2540 0.950 . S
H2533 C2545 0.950 . S
H2534 C2542 0.950 . S
H2535 C2544 0.950 . S
H2536 C2546 0.950 . S
H2537 C2548 0.950 . S
H2538 C2550 0.950 . S
H2539 C2551 0.950 . S
C2540 H2532 0.950 . S
C2540 C2541 1.386 . S
C2540 C2542 1.391 . S
C2541 C2540 1.386 . S
C2541 C2545 1.393 . S
C2542 H2534 0.950 . S
C2542 C2540 1.391 . S
C2542 C2543 1.400 . S
C2543 C2542 1.400 . S
C2543 C2544 1.398 . S
C2543 C2549 1.491 . S
C2544 H2535 0.950 . S
C2544 C2543 1.398 . S
C2544 C2545 1.391 . S
C2545 H2533 0.950 . S
C2545 C2541 1.393 . S
C2545 C2544 1.391 . S
C2546 H2536 0.950 . S
C2546 C2547 1.386 . S
C2546 C2548 1.391 . S
C2547 C2546 1.386 . S
C2547 C2551 1.393 . S
C2548 H2537 0.950 . S
C2548 C2546 1.391 . S
C2548 C2549 1.400 . S
C2549 C2543 1.491 . S
C2549 C2548 1.400 . S
C2549 C2550 1.398 . S
C2550 H2538 0.950 . S
C2550 C2549 1.398 . S
C2550 C2551 1.391 . S
C2551 H2539 0.950 . S
C2551 C2547 1.393 . S
C2551 C2550 1.391 . S
H2552 C2560 0.950 . S
H2553 C2565 0.950 . S
H2554 C2562 0.950 . S
H2555 C2564 0.950 . S
H2556 C2566 0.950 . S
H2557 C2568 0.950 . S
H2558 C2570 0.950 . S
H2559 C2571 0.950 . S
C2560 H2552 0.950 . S
C2560 C2561 1.386 . S
C2560 C2562 1.391 . S
C2561 C2560 1.386 . S
C2561 C2565 1.393 . S
C2562 H2554 0.950 . S
C2562 C2560 1.391 . S
C2562 C2563 1.400 . S
C2563 C2562 1.400 . S
C2563 C2564 1.398 . S
C2563 C2569 1.491 . S
C2564 H2555 0.950 . S
C2564 C2563 1.398 . S
C2564 C2565 1.391 . S
C2565 H2553 0.950 . S
C2565 C2561 1.393 . S
C2565 C2564 1.391 . S
C2566 H2556 0.950 . S
C2566 C2567 1.386 . S
C2566 C2568 1.391 . S
C2567 C2566 1.386 . S
C2567 C2571 1.393 . S
C2568 H2557 0.950 . S
C2568 C2566 1.391 . S
C2568 C2569 1.400 . S
C2569 C2563 1.491 . S
C2569 C2568 1.400 . S
C2569 C2570 1.398 . S
C2570 H2558 0.950 . S
C2570 C2569 1.398 . S
C2570 C2571 1.391 . S
C2571 H2559 0.950 . S
C2571 C2567 1.393 . S
C2571 C2570 1.391 . S
H2572 C2580 0.950 . S
H2573 C2585 0.950 . S
H2574 C2582 0.950 . S
H2575 C2584 0.950 . S
H2576 C2586 0.950 . S
H2577 C2588 0.950 . S
H2578 C2590 0.950 . S
H2579 C2591 0.950 . S
C2580 H2572 0.950 . S
C2580 C2581 1.386 . S
C2580 C2582 1.391 . S
C2581 C2580 1.386 . S
C2581 C2585 1.393 . S
C2582 H2574 0.950 . S
C2582 C2580 1.391 . S
C2582 C2583 1.400 . S
C2583 C2582 1.400 . S
C2583 C2584 1.398 . S
C2583 C2589 1.491 . S
C2584 H2575 0.950 . S
C2584 C2583 1.398 . S
C2584 C2585 1.391 . S
C2585 H2573 0.950 . S
C2585 C2581 1.393 . S
C2585 C2584 1.391 . S
C2586 H2576 0.950 . S
C2586 C2587 1.386 . S
C2586 C2588 1.391 . S
C2587 C2586 1.386 . S
C2587 C2591 1.393 . S
C2588 H2577 0.950 . S
C2588 C2586 1.391 . S
C2588 C2589 1.400 . S
C2589 C2583 1.491 . S
C2589 C2588 1.400 . S
C2589 C2590 1.398 . S
C2590 H2578 0.950 . S
C2590 C2589 1.398 . S
C2590 C2591 1.391 . S
C2591 H2579 0.950 . S
C2591 C2587 1.393 . S
C2591 C2590 1.391 . S
C1521 C1159 1.956 . S
C1527 C74 1.965 . S
C1541 C158 1.961 . S
C1547 C1243 1.945 . S
C1561 C242 1.969 . S
C1567 C1075 1.949 . S
C1581 C235 1.942 . S
C1587 C662 1.964 . S
C1601 C746 1.959 . S
C1607 C67 1.951 . S
C1621 C151 1.956 . S
C1627 C578 1.962 . S
C1641 C315 1.959 . S
C1647 C896 1.948 . S
C1661 C399 1.969 . S
C1667 C980 1.950 . S
C1681 C812 1.942 . S
C1687 C483 1.964 . S
C1701 C1407 1.961 . S
C1707 C476 1.956 . S
C1721 C308 1.953 . S
C1727 C1491 1.959 . S
C1741 C1323 1.960 . S
C1747 C392 1.946 . S
C1761 C739 1.947 . S
C1767 C1166 1.959 . S
C1781 C571 1.956 . S
C1787 C1250 1.961 . S
C1801 C655 1.943 . S
C1807 C1082 1.966 . S
C1821 C819 1.963 . S
C1827 C1400 1.943 . S
C1841 C1484 1.954 . S
C1847 C903 1.959 . S
C1861 C1316 1.943 . S
C1867 C987 1.962 . S
C1881 C56 1.728 . S
C1887 C410 1.715 . S
C1901 C494 1.687 . S
C1907 C140 1.744 . S
C1921 C326 1.687 . S
C1927 C224 1.745 . S
C1941 C403 1.749 . S
C1947 C231 1.691 . S
C1961 C487 1.727 . S
C1967 C63 1.708 . S
C1981 C319 1.727 . S
C1987 C147 1.714 . S
C2001 C914 1.691 . S
C2007 C560 1.739 . S
C2021 C998 1.688 . S
C2027 C644 1.747 . S
C2041 C830 1.688 . S
C2047 C728 1.748 . S
C2061 C907 1.744 . S
C2067 C735 1.704 . S
C2081 C991 1.727 . S
C2087 C567 1.709 . S
C2101 C823 1.727 . S
C2107 C651 1.713 . S
C2121 C1418 1.699 . S
C2127 C1064 1.746 . S
C2141 C1502 1.694 . S
C2147 C1148 1.736 . S
C2161 C1232 1.730 . S
C2167 C1334 1.715 . S
C2181 C1239 1.712 . S
C2187 C1411 1.735 . S
C2201 C1071 1.687 . S
C2207 C1495 1.746 . S
C2221 C1327 1.736 . S
C2227 C1155 1.693 . S
C2241 C69 1.270 . S
C2247 C58 1.270 . S
C2261 C153 1.259 . S
C2267 C142 1.259 . S
C2281 C237 1.249 . S
C2287 C226 1.249 . S
C2301 C310 1.217 . S
C2307 C321 1.217 . S
C2321 C405 1.253 . S
C2327 C394 1.253 . S
C2341 C489 1.267 . S
C2347 C478 1.267 . S
C2361 C562 1.217 . S
C2367 C573 1.217 . S
C2381 C657 1.223 . S
C2387 C646 1.223 . S
C2401 C730 1.235 . S
C2407 C741 1.235 . S
C2421 C814 1.240 . S
C2427 C825 1.240 . S
C2441 C898 1.264 . S
C2447 C909 1.264 . S
C2461 C982 1.265 . S
C2467 C993 1.265 . S
C2481 C1066 1.235 . S
C2487 C1077 1.235 . S
C2501 C1161 1.216 . S
C2507 C1150 1.216 . S
C2521 C1245 1.260 . S
C2527 C1234 1.260 . S
C2541 C1329 1.237 . S
C2547 C1318 1.237 . S
C2561 C1413 1.269 . S
C2567 C1402 1.269 . S
C2581 C1486 1.260 . S
C2587 C1497 1.260 . S
