# Generated by pormake.
# Topology wls, (5)-cn, num edge types: 1
# Building blocks:
#     Node 0, Type 0, BuildingBlock: XOMCOT_clean_sbu_1, # of connection points: 5
#     Node 1, Type 0, BuildingBlock: XOMCOT_clean_sbu_1, # of connection points: 5
#     Node 2, Type 0, BuildingBlock: XOMCOT_clean_sbu_1, # of connection points: 5
#     Node 3, Type 0, BuildingBlock: XOMCOT_clean_sbu_1, # of connection points: 5
#     Node 4, Type 0, BuildingBlock: XOMCOT_clean_sbu_1, # of connection points: 5
#     Node 5, Type 0, BuildingBlock: XOMCOT_clean_sbu_1, # of connection points: 5
#     Node 6, Type 0, BuildingBlock: XOMCOT_clean_sbu_1, # of connection points: 5
#     Node 7, Type 0, BuildingBlock: XOMCOT_clean_sbu_1, # of connection points: 5
#     Node 8, Type 0, BuildingBlock: XOMCOT_clean_sbu_1, # of connection points: 5
#     Node 9, Type 0, BuildingBlock: XOMCOT_clean_sbu_1, # of connection points: 5
#     Node 10, Type 0, BuildingBlock: XOMCOT_clean_sbu_1, # of connection points: 5
#     Node 11, Type 0, BuildingBlock: XOMCOT_clean_sbu_1, # of connection points: 5
#     Node 12, Type 0, BuildingBlock: XOMCOT_clean_sbu_1, # of connection points: 5
#     Node 13, Type 0, BuildingBlock: XOMCOT_clean_sbu_1, # of connection points: 5
#     Node 14, Type 0, BuildingBlock: XOMCOT_clean_sbu_1, # of connection points: 5
#     Node 15, Type 0, BuildingBlock: XOMCOT_clean_sbu_1, # of connection points: 5
#     Node 16, Type 0, BuildingBlock: XOMCOT_clean_sbu_1, # of connection points: 5
#     Node 17, Type 0, BuildingBlock: XOMCOT_clean_sbu_1, # of connection points: 5
#     Node 18, Type 0, BuildingBlock: XOMCOT_clean_sbu_1, # of connection points: 5
#     Node 19, Type 0, BuildingBlock: XOMCOT_clean_sbu_1, # of connection points: 5
#     Node 20, Type 0, BuildingBlock: XOMCOT_clean_sbu_1, # of connection points: 5
#     Node 21, Type 0, BuildingBlock: XOMCOT_clean_sbu_1, # of connection points: 5
#     Node 22, Type 0, BuildingBlock: XOMCOT_clean_sbu_1, # of connection points: 5
#     Node 23, Type 0, BuildingBlock: XOMCOT_clean_sbu_1, # of connection points: 5
#     Node 24, Type 0, BuildingBlock: XOMCOT_clean_sbu_1, # of connection points: 5
#     Node 25, Type 0, BuildingBlock: XOMCOT_clean_sbu_1, # of connection points: 5
#     Node 26, Type 0, BuildingBlock: XOMCOT_clean_sbu_1, # of connection points: 5
#     Node 27, Type 0, BuildingBlock: XOMCOT_clean_sbu_1, # of connection points: 5
#     Node 28, Type 0, BuildingBlock: XOMCOT_clean_sbu_1, # of connection points: 5
#     Node 29, Type 0, BuildingBlock: XOMCOT_clean_sbu_1, # of connection points: 5
#     Node 30, Type 0, BuildingBlock: XOMCOT_clean_sbu_1, # of connection points: 5
#     Node 31, Type 0, BuildingBlock: XOMCOT_clean_sbu_1, # of connection points: 5
#     Node 32, Type 0, BuildingBlock: XOMCOT_clean_sbu_1, # of connection points: 5
#     Node 33, Type 0, BuildingBlock: XOMCOT_clean_sbu_1, # of connection points: 5
#     Node 34, Type 0, BuildingBlock: XOMCOT_clean_sbu_1, # of connection points: 5
#     Node 35, Type 0, BuildingBlock: XOMCOT_clean_sbu_1, # of connection points: 5
#     Edge 36, Type (0, 0), BuildingBlock: XIVTED_clean_linker_0, # of connection points: 2
#     Edge 37, Type (0, 0), BuildingBlock: XIVTED_clean_linker_0, # of connection points: 2
#     Edge 38, Type (0, 0), BuildingBlock: XIVTED_clean_linker_0, # of connection points: 2
#     Edge 39, Type (0, 0), BuildingBlock: XIVTED_clean_linker_0, # of connection points: 2
#     Edge 40, Type (0, 0), BuildingBlock: XIVTED_clean_linker_0, # of connection points: 2
#     Edge 41, Type (0, 0), BuildingBlock: XIVTED_clean_linker_0, # of connection points: 2
#     Edge 42, Type (0, 0), BuildingBlock: XIVTED_clean_linker_0, # of connection points: 2
#     Edge 43, Type (0, 0), BuildingBlock: XIVTED_clean_linker_0, # of connection points: 2
#     Edge 44, Type (0, 0), BuildingBlock: XIVTED_clean_linker_0, # of connection points: 2
#     Edge 45, Type (0, 0), BuildingBlock: XIVTED_clean_linker_0, # of connection points: 2
#     Edge 46, Type (0, 0), BuildingBlock: XIVTED_clean_linker_0, # of connection points: 2
#     Edge 47, Type (0, 0), BuildingBlock: XIVTED_clean_linker_0, # of connection points: 2
#     Edge 48, Type (0, 0), BuildingBlock: XIVTED_clean_linker_0, # of connection points: 2
#     Edge 49, Type (0, 0), BuildingBlock: XIVTED_clean_linker_0, # of connection points: 2
#     Edge 50, Type (0, 0), BuildingBlock: XIVTED_clean_linker_0, # of connection points: 2
#     Edge 51, Type (0, 0), BuildingBlock: XIVTED_clean_linker_0, # of connection points: 2
#     Edge 52, Type (0, 0), BuildingBlock: XIVTED_clean_linker_0, # of connection points: 2
#     Edge 53, Type (0, 0), BuildingBlock: XIVTED_clean_linker_0, # of connection points: 2
#     Edge 54, Type (0, 0), BuildingBlock: XIVTED_clean_linker_0, # of connection points: 2
#     Edge 55, Type (0, 0), BuildingBlock: XIVTED_clean_linker_0, # of connection points: 2
#     Edge 56, Type (0, 0), BuildingBlock: XIVTED_clean_linker_0, # of connection points: 2
#     Edge 57, Type (0, 0), BuildingBlock: XIVTED_clean_linker_0, # of connection points: 2
#     Edge 58, Type (0, 0), BuildingBlock: XIVTED_clean_linker_0, # of connection points: 2
#     Edge 59, Type (0, 0), BuildingBlock: XIVTED_clean_linker_0, # of connection points: 2
#     Edge 60, Type (0, 0), BuildingBlock: XIVTED_clean_linker_0, # of connection points: 2
#     Edge 61, Type (0, 0), BuildingBlock: XIVTED_clean_linker_0, # of connection points: 2
#     Edge 62, Type (0, 0), BuildingBlock: XIVTED_clean_linker_0, # of connection points: 2
#     Edge 63, Type (0, 0), BuildingBlock: XIVTED_clean_linker_0, # of connection points: 2
#     Edge 64, Type (0, 0), BuildingBlock: XIVTED_clean_linker_0, # of connection points: 2
#     Edge 65, Type (0, 0), BuildingBlock: XIVTED_clean_linker_0, # of connection points: 2
#     Edge 66, Type (0, 0), BuildingBlock: XIVTED_clean_linker_0, # of connection points: 2
#     Edge 67, Type (0, 0), BuildingBlock: XIVTED_clean_linker_0, # of connection points: 2
#     Edge 68, Type (0, 0), BuildingBlock: XIVTED_clean_linker_0, # of connection points: 2
#     Edge 69, Type (0, 0), BuildingBlock: XIVTED_clean_linker_0, # of connection points: 2
#     Edge 70, Type (0, 0), BuildingBlock: XIVTED_clean_linker_0, # of connection points: 2
#     Edge 71, Type (0, 0), BuildingBlock: XIVTED_clean_linker_0, # of connection points: 2
#     Edge 72, Type (0, 0), BuildingBlock: XIVTED_clean_linker_0, # of connection points: 2
#     Edge 73, Type (0, 0), BuildingBlock: XIVTED_clean_linker_0, # of connection points: 2
#     Edge 74, Type (0, 0), BuildingBlock: XIVTED_clean_linker_0, # of connection points: 2
#     Edge 75, Type (0, 0), BuildingBlock: XIVTED_clean_linker_0, # of connection points: 2
#     Edge 76, Type (0, 0), BuildingBlock: XIVTED_clean_linker_0, # of connection points: 2
#     Edge 77, Type (0, 0), BuildingBlock: XIVTED_clean_linker_0, # of connection points: 2
#     Edge 78, Type (0, 0), BuildingBlock: XIVTED_clean_linker_0, # of connection points: 2
#     Edge 79, Type (0, 0), BuildingBlock: XIVTED_clean_linker_0, # of connection points: 2
#     Edge 80, Type (0, 0), BuildingBlock: XIVTED_clean_linker_0, # of connection points: 2
#     Edge 81, Type (0, 0), BuildingBlock: XIVTED_clean_linker_0, # of connection points: 2
#     Edge 82, Type (0, 0), BuildingBlock: XIVTED_clean_linker_0, # of connection points: 2
#     Edge 83, Type (0, 0), BuildingBlock: XIVTED_clean_linker_0, # of connection points: 2
#     Edge 84, Type (0, 0), BuildingBlock: XIVTED_clean_linker_0, # of connection points: 2
#     Edge 85, Type (0, 0), BuildingBlock: XIVTED_clean_linker_0, # of connection points: 2
#     Edge 86, Type (0, 0), BuildingBlock: XIVTED_clean_linker_0, # of connection points: 2
#     Edge 87, Type (0, 0), BuildingBlock: XIVTED_clean_linker_0, # of connection points: 2
#     Edge 88, Type (0, 0), BuildingBlock: XIVTED_clean_linker_0, # of connection points: 2
#     Edge 89, Type (0, 0), BuildingBlock: XIVTED_clean_linker_0, # of connection points: 2
#     Edge 90, Type (0, 0), BuildingBlock: XIVTED_clean_linker_0, # of connection points: 2
#     Edge 91, Type (0, 0), BuildingBlock: XIVTED_clean_linker_0, # of connection points: 2
#     Edge 92, Type (0, 0), BuildingBlock: XIVTED_clean_linker_0, # of connection points: 2
#     Edge 93, Type (0, 0), BuildingBlock: XIVTED_clean_linker_0, # of connection points: 2
#     Edge 94, Type (0, 0), BuildingBlock: XIVTED_clean_linker_0, # of connection points: 2
#     Edge 95, Type (0, 0), BuildingBlock: XIVTED_clean_linker_0, # of connection points: 2
#     Edge 96, Type (0, 0), BuildingBlock: XIVTED_clean_linker_0, # of connection points: 2
#     Edge 97, Type (0, 0), BuildingBlock: XIVTED_clean_linker_0, # of connection points: 2
#     Edge 98, Type (0, 0), BuildingBlock: XIVTED_clean_linker_0, # of connection points: 2
#     Edge 99, Type (0, 0), BuildingBlock: XIVTED_clean_linker_0, # of connection points: 2
#     Edge 100, Type (0, 0), BuildingBlock: XIVTED_clean_linker_0, # of connection points: 2
#     Edge 101, Type (0, 0), BuildingBlock: XIVTED_clean_linker_0, # of connection points: 2
#     Edge 102, Type (0, 0), BuildingBlock: XIVTED_clean_linker_0, # of connection points: 2
#     Edge 103, Type (0, 0), BuildingBlock: XIVTED_clean_linker_0, # of connection points: 2
#     Edge 104, Type (0, 0), BuildingBlock: XIVTED_clean_linker_0, # of connection points: 2
#     Edge 105, Type (0, 0), BuildingBlock: XIVTED_clean_linker_0, # of connection points: 2
#     Edge 106, Type (0, 0), BuildingBlock: XIVTED_clean_linker_0, # of connection points: 2
#     Edge 107, Type (0, 0), BuildingBlock: XIVTED_clean_linker_0, # of connection points: 2
#     Edge 108, Type (0, 0), BuildingBlock: XIVTED_clean_linker_0, # of connection points: 2
#     Edge 109, Type (0, 0), BuildingBlock: XIVTED_clean_linker_0, # of connection points: 2
#     Edge 110, Type (0, 0), BuildingBlock: XIVTED_clean_linker_0, # of connection points: 2
#     Edge 111, Type (0, 0), BuildingBlock: XIVTED_clean_linker_0, # of connection points: 2
#     Edge 112, Type (0, 0), BuildingBlock: XIVTED_clean_linker_0, # of connection points: 2
#     Edge 113, Type (0, 0), BuildingBlock: XIVTED_clean_linker_0, # of connection points: 2
#     Edge 114, Type (0, 0), BuildingBlock: XIVTED_clean_linker_0, # of connection points: 2
#     Edge 115, Type (0, 0), BuildingBlock: XIVTED_clean_linker_0, # of connection points: 2
#     Edge 116, Type (0, 0), BuildingBlock: XIVTED_clean_linker_0, # of connection points: 2
#     Edge 117, Type (0, 0), BuildingBlock: XIVTED_clean_linker_0, # of connection points: 2
#     Edge 118, Type (0, 0), BuildingBlock: XIVTED_clean_linker_0, # of connection points: 2
#     Edge 119, Type (0, 0), BuildingBlock: XIVTED_clean_linker_0, # of connection points: 2
#     Edge 120, Type (0, 0), BuildingBlock: XIVTED_clean_linker_0, # of connection points: 2
#     Edge 121, Type (0, 0), BuildingBlock: XIVTED_clean_linker_0, # of connection points: 2
#     Edge 122, Type (0, 0), BuildingBlock: XIVTED_clean_linker_0, # of connection points: 2
#     Edge 123, Type (0, 0), BuildingBlock: XIVTED_clean_linker_0, # of connection points: 2
#     Edge 124, Type (0, 0), BuildingBlock: XIVTED_clean_linker_0, # of connection points: 2
#     Edge 125, Type (0, 0), BuildingBlock: XIVTED_clean_linker_0, # of connection points: 2
# Relax obj value: 0.200
# Max RMSD: 0.149
# Mean RMSD: 0.149
data_MOF--net-wls--node1-XOMCOT_clean_sbu_1--edge1-XIVTED_clean_linker_0
_symmetry_space_group_name_H-M    P1
_symmetry_Int_Tables_number       1
_symmetry_cell_setting            triclinic
loop_
_symmetry_equiv_pos_as_xyz
'x, y, z'
_cell_length_a     77.934645
_cell_length_b     77.95203
_cell_length_c     37.177833
_cell_angle_alpha  89.946346
_cell_angle_beta   89.940496
_cell_angle_gamma 119.90235
loop_
_atom_site_label
_atom_site_type_symbol
_atom_site_fract_x
_atom_site_fract_y
_atom_site_fract_z
_atom_type_partial_charge
C0 C 0.25106 0.25204 1.01581 0.0
C1 C 0.25142 0.26984 1.01804 0.0
N2 N 0.2564 0.27655 0.05193 0.0
N3 N 0.25598 0.24779 0.04804 0.0
C4 C 0.25935 0.2631 0.06933 0.0
H5 H 0.24666 0.24239 0.99266 0.0
Co6 Co 0.25408 0.22397 0.06006 0.0
C7 C 0.25179 0.22261 0.1428 0.0
O8 O 0.23863 0.2037 0.14053 0.0
N9 N 0.25225 0.19933 0.07051 0.0
C10 C 0.25946 0.1769 0.09186 0.0
C11 C 0.26353 0.1962 0.09428 0.0
C12 C 0.24224 0.18189 0.05265 0.0
N13 N 0.24614 0.16798 0.0655 0.0
O14 O 0.28243 0.23501 0.04646 0.0
H15 H 0.27454 0.20743 0.11158 0.0
H16 H 0.23278 0.17944 0.02981 0.0
O17 O 0.25974 0.23243 0.11351 0.0
C18 C 0.28338 0.23218 1.01251 0.0
O19 O 0.26651 0.22159 0.99556 0.0
N20 N 0.2264 0.21384 0.06665 0.0
C21 C 0.1899 0.21164 0.05182 0.0
C22 C 0.20028 0.2204 0.08362 0.0
C23 C 0.21854 0.22155 0.09035 0.0
C24 C 0.21593 0.20434 0.03663 0.0
C25 C 0.19759 0.20271 0.02911 0.0
H26 H 0.22716 0.23085 0.11223 0.0
H27 H 0.22283 0.20021 1.01585 0.0
H28 H 0.26355 0.26429 0.09729 0.0
H29 H 0.24768 0.27694 0.99686 0.0
H30 H 0.26646 0.17021 0.10707 0.0
H31 H 0.19534 0.22799 0.10158 0.0
H32 H 0.19023 0.19574 1.00421 0.0
C33 C 0.76363 1.00426 1.01469 0.0
C34 C 0.74601 0.98663 1.01461 0.0
N35 N 0.73816 0.98389 0.04776 0.0
N36 N 0.76657 0.01259 0.04759 0.0
C37 C 0.75066 0.99992 0.06696 0.0
H38 H 0.77424 0.00995 0.99291 0.0
Co39 Co 0.79025 0.03342 0.06346 0.0
C40 C 0.78008 0.0378 0.14389 0.0
O41 O 0.78748 0.05704 0.14194 0.0
N42 N 0.81492 0.05433 0.07817 0.0
C43 C 0.84332 0.07114 0.10778 0.0
C44 C 0.82417 0.05572 0.10959 0.0
C45 C 0.82897 0.06886 0.0574 0.0
N46 N 0.84645 0.07939 0.07483 0.0
O47 O 0.78035 0.05201 0.05088 0.0
H48 H 0.81795 0.04533 0.13161 0.0
H49 H 0.82671 0.0711 0.02951 0.0
O50 O 0.78021 0.02845 0.11545 0.0
C51 C 0.78267 0.0554 1.01669 0.0
O52 O 0.7926 0.04848 0.99928 0.0
N53 N 0.79946 0.01533 0.0694 0.0
C54 C 0.80267 0.98188 0.05408 0.0
C55 C 0.79237 0.98244 0.08467 0.0
C56 C 0.79091 0.9993 0.09187 0.0
C57 C 0.81108 0.01579 0.0416 0.0
C58 C 0.81296 0.99927 0.03355 0.0
H59 H 0.78122 0.99844 0.11331 0.0
H60 H 0.81739 0.02833 0.02348 0.0
H61 H 0.74857 1.00186 0.09509 0.0
H62 H 0.74001 0.97616 0.99267 0.0
H63 H 0.85445 0.07506 0.12841 0.0
H64 H 0.78404 0.96941 0.10123 0.0
H65 H 0.82145 0.99976 1.0101 0.0
C66 C 0.01057 0.76429 1.01932 0.0
C67 C 0.02707 0.76219 1.01917 0.0
N68 N 0.02833 0.75524 0.0516 0.0
N69 N 1.00148 0.75847 0.05156 0.0
C70 C 0.01253 0.75283 0.07049 0.0
H71 H 1.00611 0.77072 0.99808 0.0
Co72 Co 0.98138 0.7626 0.06687 0.0
C73 C 0.97589 0.74838 0.14751 0.0
O74 O 0.95651 0.73772 0.14548 0.0
N75 N 0.96114 0.76763 0.08099 0.0
C76 C 0.94583 0.78152 0.1087 0.0
C77 C 0.9604 0.77654 0.11158 0.0
C78 C 0.94697 0.76756 0.05978 0.0
N79 N 0.93746 0.77603 0.07595 0.0
O80 O 0.9619 0.7344 0.05448 0.0
H81 H 0.9707 0.78051 0.13365 0.0
H82 H 0.9447 0.76279 0.03204 0.0
O83 O 0.98571 0.75726 0.119 0.0
C84 C 0.9588 0.73321 1.02019 0.0
O85 O 0.96663 0.74996 1.00224 0.0
N86 N 1.00041 0.78963 0.07274 0.0
C87 C 0.03457 0.82594 0.05853 0.0
C88 C 0.03364 0.81443 0.08836 0.0
C89 C 0.01647 0.79629 0.09494 0.0
C90 C 1.00041 0.80136 0.04555 0.0
C91 C 0.01728 0.81958 0.03805 0.0
H92 H 0.01702 0.78693 0.11567 0.0
H93 H 0.98788 0.79576 0.02753 0.0
H94 H 0.0095 0.74766 0.09799 0.0
H95 H 0.0378 0.76637 0.99765 0.0
H96 H 0.94226 0.78932 0.12874 0.0
H97 H 0.04658 0.81851 0.10476 0.0
H98 H 0.01711 0.82807 1.01512 0.0
C99 C 0.25401 0.24676 0.52147 0.0
C100 C 0.27175 0.24701 0.5193 0.0
N101 N 0.27889 0.25264 0.48575 0.0
N102 N 0.25017 0.25235 0.48954 0.0
C103 C 0.26567 0.256 0.46846 0.0
H104 H 0.24415 0.24207 0.54441 0.0
Co105 Co 0.22663 0.25111 0.47791 0.0
C106 C 0.22541 0.25038 0.395 0.0
O107 O 0.20627 0.23805 0.39695 0.0
N108 N 0.20226 0.24987 0.46794 0.0
C109 C 0.18026 0.25806 0.44828 0.0
C110 C 0.19959 0.26218 0.446 0.0
C111 C 0.18451 0.2391 0.4846 0.0
N112 N 0.17086 0.24361 0.47275 0.0
O113 O 0.23812 0.27934 0.49268 0.0
H114 H 0.21113 0.27381 0.43 0.0
H115 H 0.18163 0.22855 0.50582 0.0
O116 O 0.2353 0.25735 0.42454 0.0
C117 C 0.23514 0.27982 0.52671 0.0
O118 O 0.22414 0.26274 0.54285 0.0
N119 N 0.21604 0.22349 0.4702 0.0
C120 C 0.21272 0.18624 0.48174 0.0
C121 C 0.22109 0.19692 0.44996 0.0
C122 C 0.22293 0.21558 0.44497 0.0
C123 C 0.20697 0.21281 0.5004 0.0
C124 C 0.20494 0.19417 0.5065 0.0
H125 H 0.23191 0.22424 0.4228 0.0
H126 H 0.20349 0.21974 0.52215 0.0
H127 H 0.2672 0.26083 0.44081 0.0
H128 H 0.27854 0.24284 0.54036 0.0
H129 H 0.17385 0.26571 0.43432 0.0
H130 H 0.22739 0.19153 0.43003 0.0
H131 H 0.19893 0.18691 0.532 0.0
C132 C 0.7693 0.00848 0.52079 0.0
C133 C 0.76775 0.0253 0.52045 0.0
N134 N 0.75991 0.02602 0.48866 0.0
N135 N 0.76229 0.9987 0.4895 0.0
C136 C 0.75642 0.0096 0.47073 0.0
H137 H 0.77622 1.00429 0.54156 0.0
Co138 Co 0.76546 0.97801 0.47415 0.0
C139 C 0.75033 0.97259 0.39397 0.0
O140 O 0.73932 0.95325 0.39606 0.0
N141 N 0.76947 0.95716 0.45997 0.0
C142 C 0.78124 0.94015 0.4314 0.0
C143 C 0.77748 0.95557 0.42885 0.0
C144 C 0.76887 0.94274 0.48124 0.0
N145 N 0.77595 0.9321 0.4645 0.0
O146 O 0.73731 0.95923 0.48812 0.0
H147 H 0.78162 0.96578 0.40653 0.0
H148 H 0.76414 0.94066 0.509 0.0
O149 O 0.75964 0.98226 0.42225 0.0
C150 C 0.73677 0.95661 0.52252 0.0
O151 O 0.75386 0.96452 0.53926 0.0
N152 N 0.79256 0.99638 0.4668 0.0
C153 C 0.82914 0.03023 0.48022 0.0
C154 C 0.81757 0.02945 0.45065 0.0
C155 C 0.79929 0.01241 0.44444 0.0
C156 C 0.8044 0.99616 0.49352 0.0
C157 C 0.82276 0.0129 0.50064 0.0
H158 H 0.78987 0.01311 0.42403 0.0
H159 H 0.79876 0.98365 0.51167 0.0
H160 H 0.75034 0.00602 0.44389 0.0
H161 H 0.77293 0.0366 0.54103 0.0
H162 H 0.78853 0.93607 0.41113 0.0
H163 H 0.8217 0.04244 0.43429 0.0
H164 H 0.83131 0.01263 0.52336 0.0
C165 C 1.00436 0.76117 0.52516 0.0
C166 C 0.98742 0.74295 0.52418 0.0
N167 N 0.9865 0.73497 0.49168 0.0
N168 N 0.01402 0.76444 0.49352 0.0
C169 C 1.00293 0.74809 0.47394 0.0
H170 H 1.00866 0.7719 0.5466 0.0
Co171 Co 0.03456 0.78858 0.47882 0.0
C172 C 0.04014 0.7801 0.39801 0.0
O173 O 0.05949 0.78847 0.40009 0.0
N174 N 0.05522 0.81371 0.46527 0.0
C175 C 0.07105 0.84301 0.43802 0.0
C176 C 0.05622 0.82364 0.43486 0.0
C177 C 0.06956 0.82748 0.48664 0.0
N178 N 0.07938 0.84552 0.47075 0.0
O179 O 0.05355 0.77922 0.49133 0.0
H180 H 0.04592 0.81763 0.41273 0.0
H181 H 0.07174 0.82474 0.51431 0.0
O182 O 0.03036 0.77927 0.4265 0.0
C183 C 0.05627 0.7809 0.52571 0.0
O184 O 0.04843 0.78993 0.54333 0.0
N185 N 0.01596 0.79718 0.47286 0.0
C186 C 0.982 0.79965 0.4876 0.0
C187 C 0.98281 0.78921 0.45749 0.0
C188 C 0.99991 0.78811 0.45062 0.0
C189 C 0.01612 0.80887 0.50023 0.0
C190 C 0.99934 0.81038 0.50799 0.0
H191 H 0.99926 0.77827 0.42969 0.0
H192 H 0.02866 0.81557 0.51826 0.0
H193 H 1.00634 0.74608 0.44662 0.0
H194 H 0.97616 0.73658 0.54487 0.0
H195 H 0.07486 0.85454 0.41821 0.0
H196 H 0.96983 0.78052 0.44111 0.0
H197 H 0.99961 0.81896 0.53109 0.0
C198 C 0.77222 0.76808 0.02952 0.0
C199 C 0.77082 0.74982 0.03155 0.0
N200 N 0.76531 0.74131 0.99901 0.0
N201 N 0.76721 0.77074 0.99607 0.0
C202 C 0.76307 0.75416 0.97814 0.0
H203 H 0.77715 0.77896 0.05077 0.0
Co204 Co 0.76958 0.79397 0.97918 0.0
C205 C 0.75382 0.78309 0.90018 0.0
O206 O 0.7422 0.79074 0.90323 0.0
N207 N 0.7729 0.81831 0.96359 0.0
C208 C 0.78392 0.84657 0.93358 0.0
C209 C 0.78066 0.82755 0.93207 0.0
C210 C 0.77199 0.8322 0.98407 0.0
N211 N 0.77858 0.84959 0.96643 0.0
O212 O 0.74114 0.78396 0.99247 0.0
H213 H 0.78495 0.82137 0.91016 0.0
H214 H 0.76736 0.82985 1.01189 0.0
O215 O 0.76375 0.78316 0.92786 0.0
C216 C 0.73962 0.78618 0.02655 0.0
O217 O 0.7562 0.79636 0.04452 0.0
N218 N 0.79682 0.80318 0.97225 0.0
C219 C 0.83314 0.80491 0.98432 0.0
C220 C 0.82274 0.7973 0.952 0.0
C221 C 0.80457 0.79648 0.94651 0.0
C222 C 0.80763 0.81251 1.00202 0.0
C223 C 0.82577 0.81346 1.00869 0.0
H224 H 0.79627 0.789 0.92285 0.0
H225 H 0.80117 0.81736 0.02259 0.0
H226 H 0.7584 0.7514 0.95036 0.0
H227 H 0.77384 0.7434 0.05484 0.0
H228 H 0.7909 0.85768 0.9128 0.0
H229 H 0.82804 0.79102 0.93186 0.0
H230 H 0.83306 0.81943 0.03413 0.0
C231 C 0.25183 0.00625 0.03028 0.0
C232 C 0.26948 0.02383 0.0308 0.0
N233 N 0.27557 0.02884 0.99658 0.0
N234 N 0.24706 1.00009 0.99593 0.0
C235 C 0.26183 0.0142 0.9761 0.0
H236 H 0.24268 0.99895 0.05344 0.0
Co237 Co 0.22313 0.9793 0.98038 0.0
C238 C 0.23353 0.97544 0.90019 0.0
O239 O 0.22738 0.95643 0.90284 0.0
N240 N 0.19831 0.95849 0.96579 0.0
C241 C 0.1701 0.94142 0.93568 0.0
C242 C 0.18917 0.95701 0.93419 0.0
C243 C 0.18425 0.94381 0.98633 0.0
N244 N 0.1669 0.93309 0.96857 0.0
O245 O 0.23312 0.96061 0.99135 0.0
H246 H 0.19544 0.96732 0.91208 0.0
H247 H 0.18644 0.94143 1.01417 0.0
O248 O 0.23283 0.98468 0.92831 0.0
C249 C 0.23052 0.95625 0.0252 0.0
O250 O 0.22008 0.96229 0.04343 0.0
N251 N 0.21383 0.99737 0.97614 0.0
C252 C 0.21106 0.03148 0.98767 0.0
C253 C 0.21482 0.02668 0.95309 0.0
C254 C 0.21629 0.00962 0.9479 0.0
C255 C 0.20815 1.00063 1.00886 0.0
C256 C 0.20693 0.01763 1.01537 0.0
H257 H 0.22045 0.00704 0.92166 0.0
H258 H 0.20639 0.99089 0.03105 0.0
H259 H 0.26252 0.01396 0.94711 0.0
H260 H 0.27695 0.03248 0.05435 0.0
H261 H 0.15911 0.93731 0.91474 0.0
H262 H 0.21742 0.03638 0.93039 0.0
H263 H 0.20415 0.02041 0.04265 0.0
C264 C 1.00451 0.24201 1.02034 0.0
C265 C 0.9874 0.24304 1.01964 0.0
N266 N 0.98572 0.24907 0.9866 0.0
N267 N 0.01356 0.24761 0.98802 0.0
C268 C 1.00187 0.25207 0.96823 0.0
H269 H 0.00936 0.2363 0.0422 0.0
Co270 Co 0.03405 0.24389 0.97319 0.0
C271 C 0.04019 0.25816 0.89272 0.0
O272 O 0.05957 0.26846 0.89513 0.0
N273 N 0.05466 0.2393 0.95949 0.0
C274 C 0.07118 0.22697 0.93091 0.0
C275 C 0.05544 0.23026 0.92911 0.0
C276 C 0.06987 0.24091 0.97973 0.0
N277 N 0.08026 0.23358 0.96285 0.0
O278 O 0.05307 0.27205 0.98586 0.0
H279 H 0.04462 0.22534 0.90774 0.0
H280 H 0.07289 0.24676 1.00676 0.0
O281 O 0.03008 0.24942 0.92105 0.0
C282 C 0.05604 0.27315 1.02015 0.0
O283 O 0.04854 0.25635 0.0379 0.0
N284 N 0.0153 0.21684 0.9669 0.0
C285 C 0.98048 0.18132 0.98198 0.0
C286 C 0.98204 0.19231 0.95095 0.0
C287 C 0.99957 0.21005 0.94387 0.0
C288 C 0.01478 0.20542 0.9951 0.0
C289 C 0.99755 0.18759 1.00308 0.0
H290 H 0.99949 0.21911 0.92206 0.0
H291 H 0.02709 0.21112 1.01363 0.0
H292 H 1.00464 0.25668 0.94041 0.0
H293 H 0.97655 0.23868 0.04099 0.0
H294 H 0.07495 0.21928 0.91095 0.0
H295 H 0.96932 0.18824 0.93392 0.0
H296 H 0.99725 0.17944 0.0269 0.0
C297 C 0.76674 0.76719 0.52155 0.0
C298 C 0.74856 0.76608 0.52187 0.0
N299 N 0.74048 0.75958 0.55455 0.0
N300 N 0.76983 0.76118 0.55374 0.0
C301 C 0.75346 0.75639 0.57306 0.0
H302 H 0.77752 0.77317 0.50007 0.0
Co303 Co 0.79378 0.76454 0.56907 0.0
C304 C 0.78474 0.74994 0.64923 0.0
O305 O 0.79279 0.73868 0.64625 0.0
N306 N 0.81871 0.76875 0.58336 0.0
C307 C 0.84734 0.78083 0.61243 0.0
C308 C 0.82825 0.77736 0.61416 0.0
C309 C 0.83251 0.76754 0.563 0.0
N310 N 0.85012 0.77476 0.58013 0.0
O311 O 0.78441 0.73626 0.55627 0.0
H312 H 0.82219 0.78202 0.6357 0.0
H313 H 0.82994 0.76218 0.53564 0.0
O314 O 0.78405 0.75929 0.62122 0.0
C315 C 0.78668 0.73548 0.52199 0.0
O316 O 0.79621 0.75246 0.50489 0.0
N317 N 0.80241 0.79168 0.57514 0.0
C318 C 0.8043 0.82767 0.55881 0.0
C319 C 0.79385 0.81662 0.58916 0.0
C320 C 0.79307 0.79865 0.59687 0.0
C321 C 0.81421 0.80311 0.54775 0.0
C322 C 0.81544 0.82118 0.53921 0.0
H323 H 0.78319 0.78953 0.61788 0.0
H324 H 0.82113 0.79728 0.53015 0.0
H325 H 0.7513 0.75138 0.60066 0.0
H326 H 0.74226 0.77066 0.50056 0.0
H327 H 0.85863 0.78839 0.63263 0.0
H328 H 0.78489 0.82085 0.605 0.0
H329 H 0.82406 0.82936 0.51601 0.0
C330 C 0.24828 1.0028 0.52613 0.0
C331 C 0.25286 0.98795 0.52918 0.0
N332 N 0.26077 0.98926 0.56201 0.0
N333 N 0.25333 0.01336 0.55683 0.0
C334 C 0.26105 1.00491 0.5779 0.0
H335 H 0.241 1.00526 0.5036 0.0
Co336 Co 0.24755 0.0328 0.56878 0.0
C337 C 0.26071 0.04057 0.6502 0.0
O338 O 0.27008 0.05995 0.64742 0.0
N339 N 0.24107 0.05241 0.57987 0.0
C340 C 0.2261 0.06735 0.60504 0.0
C341 C 0.23095 0.05274 0.60908 0.0
C342 C 0.24203 0.0669 0.55828 0.0
N343 N 0.23295 0.07621 0.57294 0.0
O344 O 0.27544 0.05299 0.55627 0.0
H345 H 0.22641 0.04233 0.63115 0.0
H346 H 0.2482 0.06977 0.53144 0.0
O347 O 0.25271 0.03015 0.62187 0.0
C348 C 0.27642 0.05493 0.52168 0.0
O349 O 0.25961 0.0458 0.50401 0.0
N350 N 0.22084 0.01288 0.57453 0.0
C351 C 0.18517 0.97761 0.5624 0.0
C352 C 0.19645 0.9801 0.59347 0.0
C353 C 0.2143 0.99776 0.59892 0.0
C354 C 0.2094 0.01136 0.54568 0.0
C355 C 0.19155 0.9939 0.53909 0.0
H356 H 0.22343 0.99846 0.62122 0.0
H357 H 0.21501 0.02312 0.52591 0.0
H358 H 0.26588 0.00957 0.60509 0.0
H359 H 0.25013 0.97687 0.50906 0.0
H360 H 0.21771 0.07079 0.624 0.0
H361 H 0.19205 0.96817 0.61266 0.0
H362 H 0.18363 0.99279 0.5145 0.0
C363 C 0.01072 0.24688 0.51319 0.0
C364 C 0.02785 0.26494 0.51371 0.0
N365 N 0.03076 0.2718 0.54765 0.0
N366 N 1.00284 0.24255 0.54657 0.0
C367 C 0.01533 0.2581 0.56683 0.0
H368 H 1.00489 0.23715 0.49024 0.0
Co369 Co 0.98192 0.21849 0.56127 0.0
C370 C 0.97724 0.22858 0.64135 0.0
O371 O 0.95823 0.22239 0.6386 0.0
N372 N 0.96097 0.19359 0.57509 0.0
C373 C 0.94348 0.16525 0.60474 0.0
C374 C 0.95907 0.18429 0.6067 0.0
C375 C 0.94654 0.17968 0.55407 0.0
N376 N 0.93557 0.16225 0.57154 0.0
O377 O 0.96338 0.22848 0.54964 0.0
H378 H 0.9691 0.19043 0.62917 0.0
H379 H 0.94453 0.18205 0.52612 0.0
O380 O 0.9866 0.22783 0.6134 0.0
C381 C 0.95984 0.22636 0.51552 0.0
O382 O 0.96665 0.21649 0.49756 0.0
N383 N 0.99996 0.2092 0.56617 0.0
C384 C 0.03439 0.20693 0.55477 0.0
C385 C 0.02962 0.21098 0.58918 0.0
C386 C 0.01244 0.21225 0.59426 0.0
C387 C 1.00309 0.20304 0.53384 0.0
C388 C 0.02027 0.2021 0.52736 0.0
H389 H 0.00998 0.21679 0.62022 0.0
H390 H 0.99316 0.20078 0.51176 0.0
H391 H 0.01336 0.25939 0.59525 0.0
H392 H 0.03767 0.27214 0.49119 0.0
H393 H 0.93907 0.15415 0.62562 0.0
H394 H 0.03946 0.21403 0.61178 0.0
H395 H 0.02293 0.19902 0.50022 0.0
C396 C 0.91639 0.58142 0.35139 0.0
C397 C 0.91677 0.59924 0.35209 0.0
N398 N 0.92117 0.60633 0.38583 0.0
N399 N 0.92081 0.57752 0.38439 0.0
C400 C 0.92372 0.59302 0.40469 0.0
H401 H 0.91215 0.57148 0.32869 0.0
Co402 Co 0.9181 0.55354 0.39811 0.0
C403 C 0.93628 0.57159 0.47508 0.0
O404 O 0.95506 0.58046 0.46591 0.0
N405 N 0.91464 0.52864 0.4108 0.0
C406 C 0.90823 0.50154 0.44125 0.0
C407 C 0.91197 0.52067 0.44397 0.0
C408 C 0.91222 0.51391 0.38834 0.0
N409 N 0.90837 0.49717 0.4062 0.0
O410 O 0.94651 0.56362 0.3849 0.0
H411 H 0.91195 0.52787 0.46876 0.0
H412 H 0.91293 0.51533 0.35939 0.0
O413 O 0.9231 0.56202 0.45089 0.0
C414 C 0.94725 0.56118 0.35067 0.0
O415 O 0.93025 0.55122 0.33389 0.0
N416 N 0.89079 0.54418 0.4044 0.0
C417 C 0.85392 0.54162 0.39278 0.0
C418 C 0.86428 0.54902 0.42527 0.0
C419 C 0.88283 0.55062 0.43019 0.0
C420 C 0.88017 0.53513 0.37431 0.0
C421 C 0.86187 0.53388 0.36776 0.0
H422 H 0.89131 0.5587 0.45322 0.0
H423 H 0.88686 0.53072 0.35345 0.0
H424 H 0.9272 0.59442 0.43298 0.0
H425 H 0.91338 0.60607 0.32994 0.0
H426 H 0.9049 0.49143 0.46355 0.0
H427 H 0.85876 0.55467 0.44614 0.0
H428 H 0.85492 0.52821 0.34201 0.0
C429 C 0.43414 0.3377 0.34739 0.0
C430 C 0.41599 0.32066 0.3474 0.0
N431 N 0.40873 0.31766 0.38109 0.0
N432 N 0.43811 0.34546 0.38083 0.0
C433 C 0.42229 0.33295 0.40064 0.0
H434 H 0.44417 0.34353 0.32478 0.0
Co435 Co 0.46211 0.36623 0.39604 0.0
C436 C 0.45216 0.37154 0.47552 0.0
O437 O 0.45953 0.39075 0.47256 0.0
N438 N 0.48697 0.38702 0.41037 0.0
C439 C 0.51521 0.40394 0.44043 0.0
C440 C 0.49617 0.38831 0.44181 0.0
C441 C 0.50097 0.40185 0.38999 0.0
N442 N 0.51833 0.41248 0.40773 0.0
O443 O 0.45252 0.38497 0.38339 0.0
H444 H 0.48991 0.37786 0.46374 0.0
H445 H 0.4987 0.40441 0.36228 0.0
O446 O 0.45221 0.36176 0.44773 0.0
C447 C 0.455 0.38848 0.34928 0.0
O448 O 0.465 0.3816 0.33193 0.0
N449 N 0.47103 0.34796 0.40216 0.0
C450 C 0.47339 0.31353 0.39237 0.0
C451 C 0.46832 0.31804 0.42604 0.0
C452 C 0.46706 0.33525 0.43034 0.0
C453 C 0.47799 0.34496 0.37059 0.0
C454 C 0.47907 0.3278 0.36494 0.0
H455 H 0.46179 0.33753 0.45568 0.0
H456 H 0.48088 0.35503 0.34838 0.0
H457 H 0.42073 0.33478 0.42902 0.0
H458 H 0.40901 0.31093 0.32474 0.0
H459 H 0.52624 0.40796 0.46127 0.0
H460 H 0.46446 0.30795 0.44855 0.0
H461 H 0.48294 0.32523 0.33833 0.0
C462 C 0.67858 0.10259 0.35483 0.0
C463 C 0.69521 0.10073 0.3555 0.0
N464 N 0.69581 0.09309 0.38764 0.0
N465 N 0.66878 0.09599 0.38629 0.0
C466 C 0.67949 0.09005 0.40549 0.0
H467 H 0.67447 0.10936 0.33365 0.0
Co468 Co 0.64818 0.09947 0.40099 0.0
C469 C 0.64216 0.0853 0.4814 0.0
O470 O 0.62284 0.07446 0.47839 0.0
N471 N 0.62736 0.10375 0.41457 0.0
C472 C 0.61069 0.11606 0.44262 0.0
C473 C 0.62644 0.11281 0.4448 0.0
C474 C 0.61219 0.10201 0.3941 0.0
N475 N 0.6017 0.10936 0.41061 0.0
O476 O 0.62941 0.07117 0.38846 0.0
H477 H 0.63722 0.11785 0.46624 0.0
H478 H 0.60933 0.09613 0.36709 0.0
O479 O 0.65236 0.0943 0.45331 0.0
C480 C 0.62675 0.07001 0.35405 0.0
O481 O 0.63434 0.0868 0.33624 0.0
N482 N 0.66667 0.12663 0.40704 0.0
C483 C 0.70095 0.1625 0.39119 0.0
C484 C 0.70009 0.15136 0.42155 0.0
C485 C 0.68284 0.13344 0.429 0.0
C486 C 0.66653 0.13815 0.37959 0.0
C487 C 0.68348 0.15617 0.37127 0.0
H488 H 0.68346 0.12424 0.45001 0.0
H489 H 0.6539 0.13243 0.3618 0.0
H490 H 0.67579 0.08417 0.43249 0.0
H491 H 0.70645 0.10549 0.33479 0.0
H492 H 0.60691 0.12385 0.46233 0.0
H493 H 0.71315 0.15545 0.43761 0.0
H494 H 0.68323 0.16441 0.34802 0.0
C495 C 0.92209 0.58439 0.85687 0.0
C496 C 0.94062 0.58651 0.85419 0.0
N497 N 0.94677 0.59136 0.81994 0.0
N498 N 0.91673 0.58801 0.82452 0.0
C499 C 0.93223 0.59261 0.80275 0.0
H500 H 0.91248 0.57894 0.88011 0.0
Co501 Co 0.8911 0.58098 0.81341 0.0
C502 C 0.88979 0.57696 0.73023 0.0
O503 O 0.87286 0.56062 0.73402 0.0
N504 N 0.86376 0.57299 0.8044 0.0
C505 C 0.83143 0.55358 0.79349 0.0
C506 C 0.84963 0.55508 0.79208 0.0
C507 C 0.85315 0.58172 0.81478 0.0
N508 N 0.83354 0.57024 0.80799 0.0
O509 O 0.89766 0.60858 0.82599 0.0
H510 H 0.85189 0.54303 0.78417 0.0
H511 H 0.85942 0.59584 0.82829 0.0
O512 O 0.89857 0.58715 0.75878 0.0
C513 C 0.89602 0.60961 0.86041 0.0
O514 O 0.88761 0.5928 0.87822 0.0
N515 N 0.88602 0.55464 0.80853 0.0
C516 C 0.88745 0.52018 0.82433 0.0
C517 C 0.89678 0.53143 0.79348 0.0
C518 C 0.89607 0.54872 0.78622 0.0
C519 C 0.87608 0.54335 0.8376 0.0
C520 C 0.87634 0.52598 0.84565 0.0
H521 H 0.9052 0.55815 0.76472 0.0
H522 H 0.86899 0.54859 0.8561 0.0
H523 H 0.93239 0.5956 0.77436 0.0
H524 H 0.94831 0.58336 0.87511 0.0
H525 H 0.81745 0.54064 0.78673 0.0
H526 H 0.90589 0.52783 0.77663 0.0
H527 H 0.86869 0.51771 0.86952 0.0
C528 C 0.43945 0.34238 0.85164 0.0
C529 C 0.43812 0.35932 0.85112 0.0
N530 N 0.43108 0.36048 0.81873 0.0
N531 N 0.43306 0.33294 0.81988 0.0
C532 C 0.42783 0.3442 0.80061 0.0
H533 H 0.44575 0.33783 0.87297 0.0
Co534 Co 0.43617 0.31213 0.80491 0.0
C535 C 0.42138 0.30648 0.72519 0.0
O536 O 0.41012 0.2872 0.72821 0.0
N537 N 0.44009 0.29116 0.79107 0.0
C538 C 0.45268 0.27463 0.76331 0.0
C539 C 0.44879 0.28996 0.76051 0.0
C540 C 0.43903 0.27646 0.81218 0.0
N541 N 0.44669 0.2662 0.79597 0.0
O542 O 0.40788 0.29365 0.81765 0.0
H543 H 0.45327 0.30036 0.73844 0.0
H544 H 0.43407 0.27424 0.83983 0.0
O545 O 0.43087 0.31647 0.75301 0.0
C546 C 0.40668 0.29078 0.85198 0.0
O547 O 0.42344 0.29809 0.86975 0.0
N548 N 0.46336 0.33033 0.79844 0.0
C549 C 0.49973 0.3641 0.81349 0.0
C550 C 0.48853 0.36353 0.78346 0.0
C551 C 0.47037 0.34651 0.77639 0.0
C552 C 0.47489 0.3299 0.82554 0.0
C553 C 0.49316 0.34657 0.83342 0.0
H554 H 0.46119 0.34734 0.75561 0.0
H555 H 0.46903 0.31725 0.8434 0.0
H556 H 0.42234 0.34097 0.77334 0.0
H557 H 0.44286 0.37039 0.87208 0.0
H558 H 0.46003 0.27051 0.74324 0.0
H559 H 0.49281 0.37664 0.76739 0.0
H560 H 0.50143 0.3461 0.85641 0.0
C561 C 0.67196 0.10085 0.8612 0.0
C562 C 0.65557 0.08227 0.86252 0.0
N563 N 0.65292 0.0743 0.82953 0.0
N564 N 0.67969 0.10432 0.82769 0.0
C565 C 0.66774 0.08785 0.80905 0.0
H566 H 0.67767 0.11129 0.88317 0.0
Co567 Co 0.70066 0.12787 0.81185 0.0
C568 C 0.70569 0.11749 0.7325 0.0
O569 O 0.72486 0.12469 0.73567 0.0
N570 N 0.72173 0.15242 0.79718 0.0
C571 C 0.73867 0.18114 0.76837 0.0
C572 C 0.72339 0.16193 0.7659 0.0
C573 C 0.73609 0.16627 0.81835 0.0
N574 N 0.74659 0.18394 0.80151 0.0
O575 O 0.71899 0.11769 0.8248 0.0
H576 H 0.71331 0.15581 0.74348 0.0
H577 H 0.73787 0.16391 0.84642 0.0
O578 O 0.69586 0.11768 0.76018 0.0
C579 C 0.72251 0.12002 0.85893 0.0
O580 O 0.71592 0.13022 0.8764 0.0
N581 N 0.6828 0.13732 0.80558 0.0
C582 C 0.64843 0.13983 0.81577 0.0
C583 C 0.65294 0.13485 0.78199 0.0
C584 C 0.67008 0.13346 0.77751 0.0
C585 C 0.67994 0.14441 0.8371 0.0
C586 C 0.6628 0.1455 0.84299 0.0
H587 H 0.67228 0.12814 0.75216 0.0
H588 H 0.69004 0.14726 0.85919 0.0
H589 H 0.66994 0.08555 0.78115 0.0
H590 H 0.64631 0.07519 0.88575 0.0
H591 H 0.74307 0.19238 0.74775 0.0
H592 H 0.6429 0.13112 0.7595 0.0
H593 H 0.66033 0.14934 0.86968 0.0
C594 C 0.4296 0.09201 0.35539 0.0
C595 C 0.42601 0.07289 0.35306 0.0
N596 N 0.41765 0.06558 0.32084 0.0
N597 N 0.42361 0.09663 0.32471 0.0
C598 C 0.41614 0.0802 0.30452 0.0
H599 H 0.4369 0.10221 0.37729 0.0
Co600 Co 0.42797 0.12131 0.31218 0.0
C601 C 0.43443 0.1224 0.23082 0.0
O602 O 0.45006 0.13986 0.23637 0.0
N603 N 0.43207 0.14686 0.30113 0.0
C604 C 0.42993 0.17165 0.27562 0.0
C605 C 0.42502 0.15215 0.27252 0.0
C606 C 0.44 0.16318 0.3224 0.0
N607 N 0.43933 0.17856 0.30708 0.0
O608 O 0.39978 0.11228 0.32446 0.0
H609 H 0.41614 0.14233 0.25122 0.0
H610 H 0.44551 0.1637 0.34924 0.0
O611 O 0.42303 0.11318 0.25799 0.0
C612 C 0.39895 0.11455 0.3587 0.0
O613 O 0.41591 0.12372 0.37591 0.0
N614 N 0.45553 0.12937 0.30711 0.0
C615 C 0.4918 0.13104 0.32225 0.0
C616 C 0.47968 0.11933 0.29409 0.0
C617 C 0.46158 0.11846 0.28735 0.0
C618 C 0.46763 0.14148 0.33356 0.0
C619 C 0.48585 0.14279 0.34114 0.0
H620 H 0.45163 0.10728 0.26886 0.0
H621 H 0.46239 0.14855 0.35179 0.0
H622 H 0.41079 0.07936 0.27744 0.0
H623 H 0.42972 0.06519 0.3731 0.0
H624 H 0.42609 0.17988 0.25696 0.0
H625 H 0.48322 0.10951 0.27939 0.0
H626 H 0.4946 0.15204 0.36325 0.0
C627 C 0.91809 0.34071 0.35767 0.0
C628 C 0.93609 0.35794 0.35764 0.0
N629 N 0.94403 0.36013 0.32468 0.0
N630 N 0.915 0.33208 0.32503 0.0
C631 C 0.93117 0.34418 0.30569 0.0
H632 H 0.90741 0.33545 0.37936 0.0
Co633 Co 0.89119 0.31137 0.30953 0.0
C634 C 0.90128 0.30596 0.23006 0.0
O635 O 0.89388 0.28676 0.23333 0.0
N636 N 0.86639 0.29055 0.29523 0.0
C637 C 0.83782 0.27366 0.26615 0.0
C638 C 0.85704 0.28894 0.26384 0.0
C639 C 0.85237 0.27627 0.31643 0.0
N640 N 0.83477 0.26571 0.29937 0.0
O641 O 0.90079 0.29265 0.32242 0.0
H642 H 0.86327 0.29908 0.24146 0.0
H643 H 0.85478 0.27426 0.34436 0.0
O644 O 0.90116 0.31583 0.25767 0.0
C645 C 0.89872 0.28938 0.35665 0.0
O646 O 0.88914 0.29657 0.37442 0.0
N647 N 0.88229 0.32967 0.30303 0.0
C648 C 0.87959 0.36348 0.31758 0.0
C649 C 0.88976 0.36261 0.28706 0.0
C650 C 0.891 0.34558 0.28028 0.0
C651 C 0.87075 0.32952 0.33071 0.0
C652 C 0.86914 0.34623 0.33841 0.0
H653 H 0.90064 0.34618 0.25894 0.0
H654 H 0.86434 0.31709 0.34908 0.0
H655 H 0.93329 0.34182 0.27778 0.0
H656 H 0.94236 0.36849 0.37941 0.0
H657 H 0.82663 0.26963 0.24562 0.0
H658 H 0.89819 0.37554 0.27032 0.0
H659 H 0.8608 0.34603 0.36187 0.0
C660 C 0.67228 0.58137 0.35388 0.0
C661 C 0.65611 0.58392 0.35032 0.0
N662 N 0.65678 0.59143 0.31732 0.0
N663 N 0.68296 0.58723 0.32328 0.0
C664 C 0.67334 0.59349 0.30181 0.0
H665 H 0.67561 0.57493 0.3767 0.0
Co666 Co 0.70417 0.58394 0.31231 0.0
C667 C 0.70174 0.57898 0.23048 0.0
O668 O 0.70515 0.56429 0.23601 0.0
N669 N 0.72646 0.58087 0.30277 0.0
C670 C 0.75487 0.58536 0.27964 0.0
C671 C 0.74001 0.58993 0.27638 0.0
C672 C 0.73426 0.57195 0.32309 0.0
N673 N 0.75125 0.57409 0.30913 0.0
O674 O 0.72228 0.6122 0.32571 0.0
H675 H 0.73958 0.59986 0.25656 0.0
H676 H 0.7282 0.56466 0.34842 0.0
O677 O 0.7019 0.58928 0.258 0.0
C678 C 0.72489 0.6127 0.36007 0.0
O679 O 0.71739 0.59556 0.3767 0.0
N680 N 0.68566 0.55636 0.30615 0.0
C681 C 0.6511 0.52 0.3202 0.0
C682 C 0.65232 0.53146 0.29019 0.0
C683 C 0.66951 0.54965 0.28398 0.0
C684 C 0.68496 0.54488 0.33448 0.0
C685 C 0.66807 0.5266 0.34159 0.0
H686 H 0.66862 0.55914 0.26392 0.0
H687 H 0.69645 0.5508 0.35446 0.0
H688 H 0.67785 0.59851 0.27461 0.0
H689 H 0.64466 0.5802 0.37025 0.0
H690 H 0.76785 0.5907 0.26268 0.0
H691 H 0.63948 0.52741 0.27352 0.0
H692 H 0.6679 0.5184 0.36524 0.0
C693 C 0.42535 0.093 0.85028 0.0
C694 C 0.40793 0.09331 0.85357 0.0
N695 N 0.40207 0.08944 0.88814 0.0
N696 N 0.43025 0.0888 0.88255 0.0
C697 C 0.41568 0.08648 0.90495 0.0
H698 H 0.43443 0.09667 0.82637 0.0
Co699 Co 0.45445 0.09125 0.89276 0.0
C700 C 0.45833 0.09509 0.97456 0.0
O701 O 0.4768 0.10877 0.96862 0.0
N702 N 0.47951 0.0937 0.90128 0.0
C703 C 0.50271 0.08723 0.92107 0.0
C704 C 0.48322 0.08246 0.92419 0.0
C705 C 0.49681 0.10444 0.88321 0.0
N706 N 0.51118 0.10098 0.89514 0.0
O707 O 0.44368 0.06285 0.87954 0.0
H708 H 0.4723 0.07115 0.94157 0.0
H709 H 0.49889 0.11423 0.86105 0.0
O710 O 0.44726 0.08591 0.94715 0.0
C711 C 0.44632 0.06189 0.84548 0.0
O712 O 0.45663 0.07876 0.82831 0.0
N713 N 0.4642 0.11892 0.89873 0.0
C714 C 0.46683 0.1558 0.88581 0.0
C715 C 0.45869 0.14538 0.91792 0.0
C716 C 0.45713 0.12688 0.92354 0.0
C717 C 0.47284 0.12925 0.868 0.0
C718 C 0.47454 0.14771 0.86122 0.0
H719 H 0.44826 0.11834 0.94599 0.0
H720 H 0.47628 0.12217 0.84648 0.0
H721 H 0.4153 0.08327 0.9333 0.0
H722 H 0.40063 0.0969 0.83256 0.0
H723 H 0.50989 0.08049 0.93559 0.0
H724 H 0.4524 0.15085 0.93772 0.0
H725 H 0.4803 0.15469 0.83543 0.0
C726 C 0.91748 0.33497 0.85168 0.0
C727 C 0.91738 0.31728 0.85207 0.0
N728 N 0.92209 0.3145 0.88552 0.0
N729 N 0.92254 0.34333 0.88459 0.0
C730 C 0.9254 0.33055 0.90448 0.0
H731 H 0.913 0.34077 0.82942 0.0
Co732 Co 0.9202 0.36461 0.8997 0.0
C733 C 0.9354 0.37019 0.97938 0.0
O734 O 0.94693 0.38944 0.97636 0.0
N735 N 0.91695 0.38592 0.91383 0.0
C736 C 0.90608 0.40354 0.94303 0.0
C737 C 0.90884 0.38747 0.94487 0.0
C738 C 0.91858 0.40102 0.89325 0.0
N739 N 0.91211 0.41206 0.91044 0.0
O740 O 0.94852 0.3827 0.88599 0.0
H741 H 0.90405 0.37691 0.9667 0.0
H742 H 0.92371 0.40346 0.86572 0.0
O743 O 0.92581 0.36029 0.95153 0.0
C744 C 0.94924 0.38591 0.85178 0.0
O745 O 0.93224 0.379 0.835 0.0
N746 N 0.89297 0.34694 0.90671 0.0
C747 C 0.85596 0.31326 0.89528 0.0
C748 C 0.86642 0.31569 0.92743 0.0
C749 C 0.88495 0.33258 0.93258 0.0
C750 C 0.88223 0.34579 0.877 0.0
C751 C 0.86375 0.32907 0.87066 0.0
H752 H 0.89328 0.33312 0.95605 0.0
H753 H 0.88892 0.357 0.85632 0.0
H754 H 0.9293 0.3326 0.93264 0.0
H755 H 0.91332 0.3069 0.83005 0.0
H756 H 0.89904 0.40785 0.9634 0.0
H757 H 0.86085 0.30417 0.9477 0.0
H758 H 0.85647 0.32799 0.8453 0.0
C759 C 0.67709 0.58581 0.85699 0.0
C760 C 0.69176 0.60528 0.86 0.0
N761 N 0.6895 0.6121 0.89192 0.0
N762 N 0.66584 0.58051 0.88695 0.0
C763 C 0.67352 0.59687 0.90731 0.0
H764 H 0.67541 0.57582 0.83534 0.0
Co765 Co 0.64681 0.5552 0.89924 0.0
C766 C 0.64314 0.56853 0.97915 0.0
O767 O 0.62916 0.57297 0.97364 0.0
N768 N 0.62751 0.5291 0.91069 0.0
C769 C 0.611 0.50027 0.93917 0.0
C770 C 0.62556 0.51973 0.94224 0.0
C771 C 0.61407 0.5149 0.88871 0.0
N772 N 0.60372 0.49714 0.90544 0.0
O773 O 0.62622 0.56234 0.88659 0.0
H774 H 0.63469 0.52632 0.96569 0.0
H775 H 0.61218 0.51746 0.86079 0.0
O776 O 0.64917 0.56239 0.9525 0.0
C777 C 0.62441 0.5611 0.852 0.0
O778 O 0.63393 0.5536 0.83489 0.0
N779 N 0.66716 0.54901 0.90544 0.0
C780 C 0.70311 0.55012 0.89222 0.0
C781 C 0.70119 0.56073 0.92094 0.0
C782 C 0.68315 0.56004 0.92703 0.0
C783 C 0.66822 0.53733 0.87931 0.0
C784 C 0.68601 0.53756 0.87239 0.0
H785 H 0.68292 0.57017 0.94647 0.0
H786 H 0.65575 0.52915 0.86158 0.0
H787 H 0.6684 0.59725 0.93405 0.0
H788 H 0.70352 0.61346 0.84083 0.0
H789 H 0.60673 0.48911 0.95989 0.0
H790 H 0.71392 0.57086 0.93669 0.0
H791 H 0.6866 0.5288 0.85034 0.0
C792 C 0.58398 0.91684 0.68969 0.0
C793 C 0.58887 0.93637 0.69224 0.0
N794 N 0.59856 0.94355 0.72351 0.0
N795 N 0.59049 0.91186 0.71931 0.0
C796 C 0.59951 0.92844 0.73903 0.0
H797 H 0.5755 0.90667 0.66843 0.0
Co798 Co 0.58529 0.8869 0.73188 0.0
C799 C 0.60206 0.90046 0.81139 0.0
O800 O 0.62022 0.90424 0.80534 0.0
N801 N 0.57961 0.86118 0.7438 0.0
C802 C 0.56848 0.8327 0.77302 0.0
C803 C 0.57261 0.85196 0.77562 0.0
C804 C 0.57933 0.84707 0.72211 0.0
N805 N 0.57266 0.82953 0.73932 0.0
O806 O 0.61336 0.89513 0.71978 0.0
H807 H 0.56981 0.85845 0.79896 0.0
H808 H 0.58357 0.84952 0.69406 0.0
O809 O 0.58965 0.89442 0.78515 0.0
C810 C 0.61406 0.89384 0.68521 0.0
O811 O 0.59708 0.88586 0.66804 0.0
N812 N 0.55839 0.87949 0.7372 0.0
C813 C 0.52219 0.87787 0.7238 0.0
C814 C 0.53396 0.88839 0.75337 0.0
C815 C 0.5521 0.88925 0.75931 0.0
C816 C 0.54652 0.86793 0.71007 0.0
C817 C 0.52839 0.86691 0.70288 0.0
H818 H 0.56176 0.89935 0.77949 0.0
H819 H 0.55196 0.86093 0.6918 0.0
H820 H 0.6057 0.92916 0.76524 0.0
H821 H 0.5851 0.94442 0.67309 0.0
H822 H 0.56205 0.82165 0.79405 0.0
H823 H 0.52978 0.89685 0.77072 0.0
H824 H 0.52011 0.85877 0.67945 0.0
C825 C 0.10025 0.66765 0.6807 0.0
C826 C 0.08224 0.65042 0.68028 0.0
N827 N 0.0742 0.64801 0.71319 0.0
N828 N 0.1032 0.67604 0.71355 0.0
C829 C 0.08697 0.66381 0.73258 0.0
H830 H 0.11098 0.6731 0.6591 0.0
Co831 Co 0.1268 0.69678 0.72957 0.0
C832 C 0.11654 0.70146 0.80967 0.0
O833 O 0.1242 0.72073 0.8075 0.0
N834 N 0.15142 0.71763 0.74433 0.0
C835 C 0.18002 0.73441 0.77334 0.0
C836 C 0.16081 0.71913 0.77563 0.0
C837 C 0.16541 0.73197 0.72321 0.0
N838 N 0.18302 0.74246 0.7402 0.0
O839 O 0.117 0.7154 0.71671 0.0
H840 H 0.15463 0.70887 0.79786 0.0
H841 H 0.16298 0.73403 0.69532 0.0
O842 O 0.1166 0.69196 0.78141 0.0
C843 C 0.11929 0.71882 0.68253 0.0
O844 O 0.12912 0.71182 0.66498 0.0
N845 N 0.13588 0.6786 0.73596 0.0
C846 C 0.13881 0.64493 0.72133 0.0
C847 C 0.12858 0.64571 0.75184 0.0
C848 C 0.12724 0.66267 0.75866 0.0
C849 C 0.14746 0.67885 0.70828 0.0
C850 C 0.14919 0.66221 0.70055 0.0
H851 H 0.11756 0.66197 0.78 0.0
H852 H 0.15384 0.69131 0.68996 0.0
H853 H 0.08468 0.666 0.76049 0.0
H854 H 0.07596 0.64008 0.6582 0.0
H855 H 0.19126 0.73834 0.79375 0.0
H856 H 0.12019 0.63277 0.76856 0.0
H857 H 0.15759 0.66249 0.67711 0.0
C858 C 0.34739 0.43469 0.68835 0.0
C859 C 0.36429 0.43328 0.6887 0.0
N860 N 0.3654 0.42612 0.721 0.0
N861 N 0.33793 0.42823 0.72015 0.0
C862 C 0.34913 0.42286 0.73925 0.0
H863 H 0.3429 0.44112 0.66715 0.0
Co864 Co 0.31721 0.43143 0.7355 0.0
C865 C 0.31189 0.41689 0.81566 0.0
O866 O 0.29257 0.40574 0.81335 0.0
N867 N 0.29636 0.43545 0.74982 0.0
C868 C 0.27968 0.44751 0.77866 0.0
C869 C 0.29523 0.44395 0.78065 0.0
C870 C 0.28151 0.43437 0.72922 0.0
N871 N 0.27106 0.4416 0.74618 0.0
O872 O 0.29858 0.40319 0.72272 0.0
H873 H 0.30584 0.44855 0.80234 0.0
H874 H 0.27895 0.42916 0.70175 0.0
O875 O 0.3217 0.42613 0.7874 0.0
C876 C 0.29575 0.40246 0.68841 0.0
O877 O 0.30321 0.41947 0.67135 0.0
N878 N 0.33547 0.45856 0.74175 0.0
C879 C 0.36918 0.49479 0.7257 0.0
C880 C 0.36881 0.48364 0.7557 0.0
C881 C 0.35181 0.46554 0.76328 0.0
C882 C 0.33486 0.47007 0.71474 0.0
C883 C 0.35151 0.48827 0.70637 0.0
H884 H 0.35275 0.45635 0.78395 0.0
H885 H 0.32208 0.46422 0.69729 0.0
H886 H 0.34588 0.41731 0.76651 0.0
H887 H 0.37537 0.43807 0.66769 0.0
H888 H 0.27587 0.45507 0.7988 0.0
H889 H 0.38205 0.48789 0.77131 0.0
H890 H 0.3509 0.49653 0.68344 0.0
C891 C 0.58748 0.91473 0.19059 0.0
C892 C 0.60496 0.91445 0.1883 0.0
N893 N 0.61156 0.91894 0.15422 0.0
N894 N 0.58333 0.91955 0.15819 0.0
C895 C 0.59839 0.92229 0.13675 0.0
H896 H 0.57788 0.91063 0.21383 0.0
Co897 Co 0.55944 0.9174 0.14634 0.0
C898 C 0.55691 0.91312 0.0645 0.0
O899 O 0.53838 0.89942 0.0699 0.0
N900 N 0.53465 0.9153 0.13613 0.0
C901 C 0.512 0.92198 0.11404 0.0
C902 C 0.53139 0.92628 0.11185 0.0
C903 C 0.51719 0.90523 0.15405 0.0
N904 N 0.50315 0.90881 0.14075 0.0
O905 O 0.57037 0.94585 0.1593 0.0
H906 H 0.54255 0.93715 0.09418 0.0
H907 H 0.51478 0.8959 0.1771 0.0
O908 O 0.56749 0.92259 0.09223 0.0
C909 C 0.5675 0.94688 0.19325 0.0
O910 O 0.55683 0.93004 0.21034 0.0
N911 N 0.54951 0.88966 0.14062 0.0
C912 C 0.54758 0.85334 0.15621 0.0
C913 C 0.55648 0.86371 0.12445 0.0
C914 C 0.55757 0.88189 0.11742 0.0
C915 C 0.53992 0.87919 0.1707 0.0
C916 C 0.53847 0.86096 0.17865 0.0
H917 H 0.56713 0.89056 0.09574 0.0
H918 H 0.5356 0.88605 0.19121 0.0
H919 H 0.59946 0.92609 0.10858 0.0
H920 H 0.61182 0.91048 0.20956 0.0
H921 H 0.50517 0.92865 0.0983 0.0
H922 H 0.5643 0.85887 0.10681 0.0
H923 H 0.5315 0.85362 0.20362 0.0
C924 C 0.10003 0.67118 0.18872 0.0
C925 C 0.09866 0.68812 0.18834 0.0
N926 N 0.09366 0.69041 0.15483 0.0
N927 N 0.09555 0.66282 0.15575 0.0
C928 C 0.09158 0.67483 0.13585 0.0
H929 H 0.10499 0.66589 0.21106 0.0
Co930 Co 0.09905 0.64224 0.14067 0.0
C931 C 0.08439 0.6368 0.06021 0.0
O932 O 0.0733 0.61746 0.06237 0.0
N933 N 0.1034 0.62151 0.12654 0.0
C934 C 0.11533 0.60493 0.09695 0.0
C935 C 0.11176 0.62048 0.09542 0.0
C936 C 0.10247 0.60662 0.1469 0.0
N937 N 0.10958 0.5962 0.12943 0.0
O938 O 0.07083 0.62336 0.15388 0.0
H939 H 0.11618 0.6311 0.07373 0.0
H940 H 0.09734 0.60389 0.17445 0.0
O941 O 0.09357 0.64648 0.08856 0.0
C942 C 0.07006 0.62017 0.18811 0.0
O943 O 0.08706 0.6273 0.205 0.0
N944 N 0.12614 0.66074 0.13419 0.0
C945 C 0.16237 0.69486 0.14844 0.0
C946 C 0.15134 0.69367 0.11774 0.0
C947 C 0.13323 0.6765 0.1111 0.0
C948 C 0.1375 0.6609 0.16215 0.0
C949 C 0.15568 0.67776 0.1697 0.0
H950 H 0.12423 0.67686 0.08952 0.0
H951 H 0.13157 0.64857 0.18075 0.0
H952 H 0.08779 0.67267 0.10763 0.0
H953 H 0.10192 0.69838 0.21034 0.0
H954 H 0.1227 0.60111 0.07642 0.0
H955 H 0.15572 0.70645 0.10064 0.0
H956 H 0.16383 0.67777 0.19328 0.0
C957 C 0.34196 0.42902 0.19422 0.0
C958 C 0.32474 0.41103 0.1934 0.0
N959 N 0.32145 0.40472 0.15911 0.0
N960 N 0.34956 0.43381 0.16067 0.0
C961 C 0.33675 0.41864 0.13999 0.0
H962 H 0.34798 0.43842 0.21753 0.0
Co963 Co 0.37028 0.45813 0.14637 0.0
C964 C 0.37565 0.44871 0.06622 0.0
O965 O 0.39481 0.45571 0.0688 0.0
N966 N 0.39098 0.48333 0.13301 0.0
C967 C 0.40741 0.51224 0.10457 0.0
C968 C 0.39268 0.49282 0.10168 0.0
C969 C 0.40476 0.49746 0.15468 0.0
N970 N 0.41495 0.51525 0.13805 0.0
O971 O 0.3892 0.44866 0.15833 0.0
H972 H 0.38298 0.4865 0.07883 0.0
H973 H 0.40638 0.49516 0.18286 0.0
O974 O 0.36608 0.44894 0.09425 0.0
C975 C 0.39266 0.45098 0.19245 0.0
O976 O 0.38556 0.46071 0.21003 0.0
N977 N 0.35188 0.46692 0.14114 0.0
C978 C 0.31758 0.46946 0.15192 0.0
C979 C 0.32218 0.46493 0.11781 0.0
C980 C 0.33933 0.46356 0.11301 0.0
C981 C 0.34875 0.47325 0.17327 0.0
C982 C 0.33167 0.4744 0.17941 0.0
H983 H 0.34172 0.45874 0.08729 0.0
H984 H 0.35869 0.47564 0.19542 0.0
H985 H 0.33832 0.41783 0.11129 0.0
H986 H 0.31507 0.40355 0.21596 0.0
H987 H 0.4117 0.52344 0.08392 0.0
H988 H 0.31226 0.46163 0.09526 0.0
H989 H 0.32904 0.47778 0.20636 0.0
C990 C 0.10473 0.42759 0.68753 0.0
C991 C 0.10306 0.40917 0.68619 0.0
N992 N 0.09533 0.40116 0.65404 0.0
N993 N 0.09792 0.43093 0.65647 0.0
C994 C 0.09201 0.41444 0.63691 0.0
H995 H 0.11155 0.43833 0.70883 0.0
Co996 Co 0.10113 0.45507 0.6425 0.0
C997 C 0.08346 0.43926 0.56466 0.0
O998 O 0.06502 0.43412 0.5719 0.0
N999 N 0.10494 0.48004 0.62944 0.0
C1000 C 0.11354 0.50775 0.59912 0.0
C1001 C 0.10991 0.48865 0.59671 0.0
C1002 C 0.10587 0.49436 0.65139 0.0
N1003 N 0.11106 0.51145 0.63358 0.0
O1004 O 0.07284 0.44534 0.65541 0.0
H1005 H 0.11178 0.48193 0.57273 0.0
H1006 H 0.1033 0.49242 0.68006 0.0
O1007 O 0.09641 0.44661 0.58992 0.0
C1008 C 0.07219 0.44721 0.68982 0.0
O1009 O 0.08923 0.45642 0.70672 0.0
N1010 N 0.12836 0.46408 0.63613 0.0
C1011 C 0.16499 0.46702 0.65082 0.0
C1012 C 0.15344 0.45576 0.62168 0.0
C1013 C 0.13514 0.45439 0.61487 0.0
C1014 C 0.14013 0.47648 0.66251 0.0
C1015 C 0.15853 0.47825 0.6702 0.0
H1016 H 0.12562 0.44372 0.59524 0.0
H1017 H 0.13443 0.48355 0.68002 0.0
H1018 H 0.08606 0.4124 0.61005 0.0
H1019 H 0.1081 0.40267 0.70636 0.0
H1020 H 0.11855 0.51837 0.5773 0.0
H1021 H 0.15756 0.44659 0.60625 0.0
H1022 H 0.16704 0.48739 0.69261 0.0
C1023 C 0.5842 0.67544 0.68711 0.0
C1024 C 0.60224 0.69261 0.68653 0.0
N1025 N 0.61048 0.69393 0.65412 0.0
N1026 N 0.58136 0.66601 0.65536 0.0
C1027 C 0.59775 0.67752 0.63605 0.0
H1028 H 0.5733 0.6708 0.70837 0.0
Co1029 Co 0.55755 0.64523 0.64013 0.0
C1030 C 0.56693 0.63968 0.55985 0.0
O1031 O 0.55844 0.62032 0.5619 0.0
N1032 N 0.53279 0.62436 0.62604 0.0
C1033 C 0.50398 0.60752 0.59772 0.0
C1034 C 0.52311 0.62294 0.59514 0.0
C1035 C 0.51907 0.60984 0.64723 0.0
N1036 N 0.50134 0.59931 0.63064 0.0
O1037 O 0.56702 0.6265 0.65411 0.0
H1038 H 0.52908 0.63329 0.57301 0.0
H1039 H 0.52177 0.60762 0.67487 0.0
O1040 O 0.56753 0.64941 0.58823 0.0
C1041 C 0.5648 0.62381 0.68849 0.0
O1042 O 0.55545 0.63162 0.70513 0.0
N1043 N 0.54871 0.66352 0.63281 0.0
C1044 C 0.54587 0.69733 0.64637 0.0
C1045 C 0.55649 0.6965 0.61653 0.0
C1046 C 0.55778 0.67947 0.61023 0.0
C1047 C 0.53676 0.66332 0.65977 0.0
C1048 C 0.53507 0.68004 0.66694 0.0
H1049 H 0.56776 0.68012 0.58953 0.0
H1050 H 0.53005 0.65086 0.67803 0.0
H1051 H 0.60008 0.67444 0.60871 0.0
H1052 H 0.60829 0.70374 0.7074 0.0
H1053 H 0.49256 0.60356 0.57767 0.0
H1054 H 0.56522 0.70946 0.60002 0.0
H1055 H 0.52636 0.6798 0.68985 0.0
C1056 C 0.33792 0.90473 0.68591 0.0
C1057 C 0.32152 0.90693 0.6879 0.0
N1058 N 0.32025 0.91503 0.65678 0.0
N1059 N 0.34694 0.91166 0.6539 0.0
C1060 C 0.3359 0.91794 0.63682 0.0
H1061 H 0.34262 0.8979 0.70599 0.0
Co1062 Co 0.36778 0.90918 0.63746 0.0
C1063 C 0.37279 0.92376 0.55759 0.0
O1064 O 0.39216 0.93436 0.55987 0.0
N1065 N 0.38887 0.90579 0.62241 0.0
C1066 C 0.40521 0.89289 0.59499 0.0
C1067 C 0.38981 0.89669 0.59222 0.0
C1068 C 0.40379 0.90723 0.64321 0.0
N1069 N 0.41393 0.89939 0.62724 0.0
O1070 O 0.38601 0.93755 0.65056 0.0
H1071 H 0.3791 0.89176 0.57065 0.0
H1072 H 0.40616 0.91243 0.67069 0.0
O1073 O 0.36285 0.91474 0.58591 0.0
C1074 C 0.38906 0.93878 0.68484 0.0
O1075 O 0.38218 0.92204 0.70262 0.0
N1076 N 0.34985 0.88197 0.63068 0.0
C1077 C 0.31617 0.84564 0.6464 0.0
C1078 C 0.31654 0.85687 0.61655 0.0
C1079 C 0.3335 0.87503 0.60916 0.0
C1080 C 0.3505 0.87036 0.65745 0.0
C1081 C 0.33384 0.85211 0.66571 0.0
H1082 H 0.33247 0.88426 0.5887 0.0
H1083 H 0.36327 0.87617 0.67492 0.0
H1084 H 0.33913 0.92442 0.6102 0.0
H1085 H 0.31111 0.90252 0.71001 0.0
H1086 H 0.40911 0.88515 0.57538 0.0
H1087 H 0.30329 0.85267 0.60098 0.0
H1088 H 0.33445 0.8438 0.68854 0.0
C1089 C 0.09678 0.42835 0.18381 0.0
C1090 C 0.0791 0.42818 0.1862 0.0
N1091 N 0.07235 0.42315 0.22011 0.0
N1092 N 0.10096 0.4233 0.21598 0.0
C1093 C 0.08568 0.41996 0.23739 0.0
H1094 H 0.10651 0.43288 0.16069 0.0
Co1095 Co 0.12496 0.42568 0.22749 0.0
C1096 C 0.12772 0.43001 0.30911 0.0
O1097 O 0.14606 0.44409 0.3034 0.0
N1098 N 0.14988 0.42798 0.23729 0.0
C1099 C 0.17286 0.4217 0.2591 0.0
C1100 C 0.15351 0.41743 0.26197 0.0
C1101 C 0.16705 0.43767 0.21843 0.0
N1102 N 0.1813 0.43436 0.23155 0.0
O1103 O 0.1142 0.39731 0.21451 0.0
H1104 H 0.14261 0.4068 0.2803 0.0
H1105 H 0.16907 0.44645 0.19472 0.0
O1106 O 0.1171 0.42035 0.28157 0.0
C1107 C 0.11689 0.39631 0.1805 0.0
O1108 O 0.12738 0.41316 0.16333 0.0
N1109 N 0.13468 0.45341 0.23339 0.0
C1110 C 0.13627 0.48961 0.21811 0.0
C1111 C 0.12719 0.479 0.24959 0.0
C1112 C 0.12629 0.46089 0.25646 0.0
C1113 C 0.14444 0.46411 0.20362 0.0
C1114 C 0.14573 0.4823 0.19586 0.0
H1115 H 0.11664 0.45203 0.2779 0.0
H1116 H 0.14904 0.45748 0.18313 0.0
H1117 H 0.08458 0.41584 0.2654 0.0
H1118 H 0.07218 0.43222 0.16516 0.0
H1119 H 0.17992 0.41528 0.27491 0.0
H1120 H 0.11912 0.48361 0.26709 0.0
H1121 H 0.15288 0.48982 0.17112 0.0
C1122 C 0.58422 0.67329 0.17936 0.0
C1123 C 0.58449 0.65581 0.17789 0.0
N1124 N 0.58727 0.65132 0.21151 0.0
N1125 N 0.58725 0.6799 0.21362 0.0
C1126 C 0.58905 0.66616 0.23252 0.0
H1127 H 0.58116 0.68027 0.15709 0.0
Co1128 Co 0.58458 0.70071 0.23031 0.0
C1129 C 0.59996 0.70484 0.30984 0.0
O1130 O 0.61188 0.72406 0.30774 0.0
N1131 N 0.58094 0.72161 0.2459 0.0
C1132 C 0.57004 0.7387 0.27679 0.0
C1133 C 0.57353 0.72308 0.27782 0.0
C1134 C 0.58136 0.73628 0.22561 0.0
N1135 N 0.57486 0.747 0.24383 0.0
O1136 O 0.61305 0.71926 0.2176 0.0
H1137 H 0.56961 0.7127 0.2998 0.0
H1138 H 0.58561 0.73858 0.19759 0.0
O1139 O 0.59013 0.69554 0.2817 0.0
C1140 C 0.61466 0.72359 0.18376 0.0
O1141 O 0.59813 0.71766 0.16585 0.0
N1142 N 0.55733 0.68264 0.23661 0.0
C1143 C 0.5208 0.64827 0.22535 0.0
C1144 C 0.53079 0.65161 0.25832 0.0
C1145 C 0.54905 0.66887 0.26345 0.0
C1146 C 0.547 0.68059 0.20586 0.0
C1147 C 0.52877 0.66353 0.19959 0.0
H1148 H 0.55693 0.67024 0.28802 0.0
H1149 H 0.55385 0.69137 0.18454 0.0
H1150 H 0.59147 0.6668 0.26121 0.0
H1151 H 0.58239 0.64689 0.15423 0.0
H1152 H 0.56329 0.74282 0.29803 0.0
H1153 H 0.52502 0.64056 0.27944 0.0
H1154 H 0.52182 0.66174 0.17361 0.0
C1155 C 0.34109 0.91239 0.17642 0.0
C1156 C 0.35809 0.93056 0.17568 0.0
N1157 N 0.36263 0.93695 0.20978 0.0
N1158 N 0.3348 0.90768 0.21076 0.0
C1159 C 0.34831 0.92293 0.2304 0.0
H1160 H 0.33408 0.90305 0.15339 0.0
Co1161 Co 0.31397 0.88387 0.2265 0.0
C1162 C 0.30965 0.8944 0.30634 0.0
O1163 O 0.29057 0.88784 0.30376 0.0
N1164 N 0.29308 0.85914 0.24126 0.0
C1165 C 0.27585 0.83097 0.27155 0.0
C1166 C 0.29139 0.85006 0.27305 0.0
C1167 C 0.27861 0.84503 0.22059 0.0
N1168 N 0.26781 0.82771 0.23845 0.0
O1169 O 0.29541 0.89394 0.21485 0.0
H1170 H 0.30154 0.85636 0.29531 0.0
H1171 H 0.27649 0.84716 0.19259 0.0
O1172 O 0.31904 0.89379 0.27832 0.0
C1173 C 0.29117 0.89145 0.18098 0.0
O1174 O 0.29708 0.88089 0.1628 0.0
N1175 N 0.33201 0.8746 0.23156 0.0
C1176 C 0.36649 0.87234 0.22106 0.0
C1177 C 0.36136 0.87603 0.25542 0.0
C1178 C 0.34413 0.87727 0.26008 0.0
C1179 C 0.33555 0.86889 0.19912 0.0
C1180 C 0.35275 0.86793 0.19312 0.0
H1181 H 0.34133 0.88145 0.28612 0.0
H1182 H 0.32592 0.86697 0.1767 0.0
H1183 H 0.34768 0.92401 0.25928 0.0
H1184 H 0.3665 0.9384 0.15207 0.0
H1185 H 0.27162 0.81999 0.29262 0.0
H1186 H 0.37095 0.87881 0.27832 0.0
H1187 H 0.35576 0.86516 0.16599 0.0
H1188 H 0.19219 0.04141 0.04025 0.0
H1189 H 0.24307 0.15641 0.99591 0.0
H1190 H 0.23493 0.06753 0.95409 0.0
H1191 H 0.23309 0.13458 0.10477 0.0
H1192 H 0.23258 0.12271 0.97418 0.0
H1193 H 0.19956 0.07449 0.05823 0.0
C1194 C 0.20309 0.05394 0.02494 0.0
C1195 C 0.21316 0.05135 0.99579 0.0
C1196 C 0.23257 0.12533 1.00279 0.0
C1197 C 0.22102 0.08944 1.01577 0.0
C1198 C 0.23842 0.14445 1.01513 0.0
C1199 C 0.23895 0.14819 0.05215 0.0
C1200 C 0.22669 0.10979 0.02763 0.0
C1201 C 0.23298 0.13226 0.07605 0.0
C1202 C 0.20716 0.07286 0.03522 0.0
C1203 C 0.22655 0.06844 0.97646 0.0
N1204 N 0.22696 0.11373 0.06341 0.0
N1205 N 0.23008 0.08669 0.98679 0.0
H1206 H 0.87713 0.10806 0.11248 0.0
H1207 H 0.94933 0.15295 0.94175 0.0
H1208 H 0.85912 0.0857 1.00484 0.0
H1209 H 0.96616 0.17294 0.05101 0.0
H1210 H 0.91628 0.12839 0.96337 0.0
H1211 H 0.90966 0.13216 0.08952 0.0
C1212 C 0.87999 0.10817 0.08397 0.0
C1213 C 0.86528 0.09464 0.0607 0.0
C1214 C 0.92727 0.1381 0.98259 0.0
C1215 C 0.9028 0.12251 0.03392 0.0
C1216 C 0.94617 0.15216 0.97026 0.0
C1217 C 0.96075 0.16505 0.99453 0.0
C1218 C 0.92281 0.13693 1.01947 0.0
C1219 C 0.95569 0.16315 0.03123 0.0
C1220 C 0.89863 0.12202 0.0708 0.0
C1221 C 0.86987 0.09586 0.02383 0.0
N1222 N 0.93722 0.14948 0.04245 0.0
N1223 N 0.88823 0.10947 1.01162 0.0
H1224 H 0.86673 0.82979 0.02314 0.0
H1225 H 0.9105 0.75574 0.02347 0.0
H1226 H 0.83854 0.77333 0.96891 0.0
H1227 H 0.93174 0.80685 0.09223 0.0
H1228 H 0.88608 0.76354 0.9982 0.0
H1229 H 0.89266 0.8232 0.04378 0.0
C1230 C 0.86597 0.81604 1.01541 0.0
C1231 C 0.85025 0.80213 0.9942 0.0
C1232 C 0.8961 0.77304 1.01882 0.0
C1233 C 0.88018 0.79452 1.0177 0.0
C1234 C 0.9101 0.76863 0.03315 0.0
C1235 C 0.92312 0.78052 0.0603 0.0
C1236 C 0.89522 0.7896 0.03142 0.0
C1237 C 0.92182 0.79701 0.0719 0.0
C1238 C 0.88086 0.81231 0.02718 0.0
C1239 C 0.85041 0.78471 0.98468 0.0
N1240 N 0.90818 0.80104 0.05743 0.0
N1241 N 0.86504 0.78139 0.99657 0.0
H1242 H 0.0703 0.2314 0.58822 0.0
H1243 H 0.13802 0.23159 0.43253 0.0
H1244 H 0.04515 0.18887 0.50175 0.0
H1245 H 0.15837 0.23867 0.54201 0.0
H1246 H 0.10422 0.22013 0.45466 0.0
H1247 H 0.10312 0.23798 0.57026 0.0
C1248 C 0.07142 0.22313 0.56588 0.0
C1249 C 0.0545 0.20956 0.5465 0.0
C1250 C 0.11607 0.22405 0.47381 0.0
C1251 C 0.09257 0.21791 0.52491 0.0
C1252 C 0.13529 0.23064 0.46122 0.0
C1253 C 0.15088 0.23596 0.48553 0.0
C1254 C 0.11255 0.22339 0.51098 0.0
C1255 C 0.14666 0.23451 0.5225 0.0
C1256 C 0.09032 0.22711 0.5555 0.0
C1257 C 0.0575 0.19989 0.51712 0.0
N1258 N 0.12794 0.22865 0.53415 0.0
N1259 N 0.0761 0.20449 0.50692 0.0
H1260 H 0.80077 0.83662 0.48883 0.0
H1261 H 0.78062 0.92556 0.53524 0.0
H1262 H 0.80077 0.85619 0.59742 0.0
H1263 H 0.77925 0.90366 0.42811 0.0
H1264 H 0.78805 0.90065 0.55899 0.0
H1265 H 0.79391 0.86195 0.46663 0.0
C1266 C 0.79966 0.84643 0.50809 0.0
C1267 C 0.80157 0.84425 0.54518 0.0
C1268 C 0.7861 0.90131 0.53028 0.0
C1269 C 0.79311 0.87325 0.51966 0.0
C1270 C 0.7817 0.91546 0.51668 0.0
C1271 C 0.77935 0.91687 0.47946 0.0
C1272 C 0.78816 0.88839 0.50658 0.0
C1273 C 0.78121 0.90343 0.45686 0.0
C1274 C 0.7955 0.86082 0.49533 0.0
C1275 C 0.79934 0.85717 0.56865 0.0
N1276 N 0.78552 0.88987 0.47072 0.0
N1277 N 0.79523 0.87108 0.55553 0.0
H1278 H 0.10677 0.85145 0.52199 0.0
H1279 H 0.15052 0.96906 0.52739 0.0
H1280 H 0.08515 0.8822 0.45618 0.0
H1281 H 0.18058 0.94059 0.57435 0.0
H1282 H 0.12429 0.93679 0.5069 0.0
H1283 H 0.1317 0.88337 0.54736 0.0
C1284 C 0.1072 0.86487 0.51299 0.0
C1285 C 0.09393 0.8641 0.48662 0.0
C1286 C 0.13659 0.9376 0.52186 0.0
C1287 C 0.12237 0.9007 0.51564 0.0
C1288 C 0.15166 0.95609 0.53352 0.0
C1289 C 0.168 0.95777 0.55262 0.0
C1290 C 0.13767 0.92048 0.52939 0.0
C1291 C 0.16825 0.94018 0.56023 0.0
C1292 C 0.12148 0.8831 0.52736 0.0
C1293 C 0.09526 0.88203 0.47589 0.0
N1294 N 0.15341 0.92236 0.54854 0.0
N1295 N 0.10915 0.89951 0.49042 0.0
H1296 H 0.78334 0.86176 0.03655 0.0
H1297 H 0.79884 0.96851 0.98471 0.0
H1298 H 0.78064 0.88033 0.92832 0.0
H1299 H 0.80112 0.95111 0.09409 0.0
H1300 H 0.7931 0.93647 0.96404 0.0
H1301 H 0.78982 0.89405 0.05859 0.0
C1302 C 0.78393 0.8725 1.01739 0.0
C1303 C 0.78148 0.86821 0.98038 0.0
C1304 C 0.79494 0.93964 0.99258 0.0
C1305 C 0.78919 0.90543 1.00554 0.0
C1306 C 0.79847 0.95811 1.00445 0.0
C1307 C 0.80067 0.96275 0.04131 0.0
C1308 C 0.79349 0.92546 1.0176 0.0
C1309 C 0.79941 0.94824 0.06547 0.0
C1310 C 0.78779 0.89103 0.03002 0.0
C1311 C 0.78271 0.88295 0.95696 0.0
N1312 N 0.79589 0.93029 0.05321 0.0
N1313 N 0.78648 0.90081 0.96989 0.0
H1314 H 0.13669 0.90446 0.92987 0.0
H1315 H 0.06522 0.85415 0.0998 0.0
H1316 H 0.15408 0.92542 0.03845 0.0
H1317 H 0.04852 0.83636 0.98958 0.0
H1318 H 0.09779 0.88014 0.07881 0.0
H1319 H 0.1045 0.87922 0.95215 0.0
C1320 C 0.13376 0.90383 0.95843 0.0
C1321 C 0.14821 0.9173 0.98217 0.0
C1322 C 0.08693 0.87061 0.05925 0.0
C1323 C 0.11107 0.88804 1.00817 0.0
C1324 C 0.06831 0.85572 0.07121 0.0
C1325 C 0.05392 0.84301 0.04649 0.0
C1326 C 0.09131 0.87278 0.02226 0.0
C1327 C 0.05886 0.84595 1.00973 0.0
C1328 C 0.11531 0.88931 0.97121 0.0
C1329 C 0.14354 0.91535 1.01908 0.0
N1330 N 0.07706 0.8604 0.99885 0.0
N1331 N 0.12538 0.90106 0.03091 0.0
H1332 H 0.10901 0.2323 0.92391 0.0
H1333 H 0.15998 0.21128 0.09298 0.0
H1334 H 0.08888 0.22997 0.03284 0.0
H1335 H 0.18118 0.21848 0.98359 0.0
H1336 H 0.13355 0.2174 0.07247 0.0
H1337 H 0.13514 0.22662 0.94615 0.0
C1338 C 0.11005 0.23057 0.95257 0.0
C1339 C 0.09657 0.23152 0.97643 0.0
C1340 C 0.14396 0.21754 0.05301 0.0
C1341 C 0.12678 0.22502 1.0024 0.0
C1342 C 0.1591 0.21406 0.06469 0.0
C1343 C 0.17285 0.21411 0.04003 0.0
C1344 C 0.14253 0.22115 1.01637 0.0
C1345 C 0.17077 0.21775 1.00366 0.0
C1346 C 0.12508 0.22738 0.96533 0.0
C1347 C 0.09898 0.22949 1.01343 0.0
N1348 N 0.156 0.2211 0.99307 0.0
N1349 N 0.1137 0.22624 0.02525 0.0
H1350 H 0.95109 0.7973 0.44701 0.0
H1351 H 0.88084 0.7772 0.6185 0.0
H1352 H 0.96838 0.79606 0.55683 0.0
H1353 H 0.86217 0.77875 0.50994 0.0
H1354 H 0.91293 0.78403 0.5956 0.0
H1355 H 0.91861 0.7907 0.46867 0.0
C1356 C 0.94815 0.79574 0.47565 0.0
C1357 C 0.96269 0.79739 0.50005 0.0
C1358 C 0.90185 0.78287 0.57667 0.0
C1359 C 0.9254 0.78976 0.52505 0.0
C1360 C 0.88347 0.77901 0.5898 0.0
C1361 C 0.8687 0.77749 0.56623 0.0
C1362 C 0.9057 0.78528 0.53954 0.0
C1363 C 0.87297 0.77963 0.52917 0.0
C1364 C 0.92958 0.79199 0.48799 0.0
C1365 C 0.95793 0.79534 0.5369 0.0
N1366 N 0.89108 0.78348 0.517 0.0
N1367 N 0.93978 0.7916 0.54815 0.0
H1368 H 0.18592 0.15262 0.51845 0.0
H1369 H 0.25577 0.10398 0.52305 0.0
H1370 H 0.2433 0.17907 0.46737 0.0
H1371 H 0.20231 0.08278 0.58558 0.0
H1372 H 0.2501 0.1298 0.49757 0.0
H1373 H 0.19034 0.12521 0.53857 0.0
C1374 C 0.19942 0.15267 0.51127 0.0
C1375 C 0.21424 0.16833 0.49112 0.0
C1376 C 0.2396 0.11947 0.51685 0.0
C1377 C 0.21938 0.13674 0.5141 0.0
C1378 C 0.2428 0.10466 0.53129 0.0
C1379 C 0.22963 0.09123 0.5568 0.0
C1380 C 0.223 0.12079 0.52774 0.0
C1381 C 0.2131 0.09296 0.56658 0.0
C1382 C 0.20192 0.13695 0.52275 0.0
C1383 C 0.23128 0.16728 0.48232 0.0
N1384 N 0.21029 0.10741 0.5521 0.0
N1385 N 0.23341 0.15187 0.49397 0.0
H1386 H 0.90628 0.13211 0.60947 0.0
H1387 H 0.85749 0.06103 0.43909 0.0
H1388 H 0.92881 0.14959 0.5016 0.0
H1389 H 0.83935 0.04393 0.54918 0.0
H1390 H 0.88336 0.09357 0.4603 0.0
H1391 H 0.88126 0.10001 0.58676 0.0
C1392 C 0.90604 0.12921 0.58097 0.0
C1393 C 0.91989 0.14365 0.55757 0.0
C1394 C 0.87378 0.08262 0.47978 0.0
C1395 C 0.89089 0.10662 0.53106 0.0
C1396 C 0.85897 0.06403 0.46769 0.0
C1397 C 0.8462 0.04954 0.49232 0.0
C1398 C 0.87578 0.08688 0.51678 0.0
C1399 C 0.84899 0.05434 0.5291 0.0
C1400 C 0.89165 0.11082 0.56794 0.0
C1401 C 0.91843 0.13904 0.52069 0.0
N1402 N 0.86335 0.07253 0.54009 0.0
N1403 N 0.90425 0.12092 0.50861 0.0
H1404 H 0.88489 0.37738 0.38658 0.0
H1405 H 0.8968 0.48301 0.33773 0.0
H1406 H 0.88072 0.3941 0.27761 0.0
H1407 H 0.91066 0.46765 0.44106 0.0
H1408 H 0.88899 0.45035 0.31512 0.0
H1409 H 0.89145 0.4097 0.40713 0.0
C1410 C 0.88502 0.38771 0.36693 0.0
C1411 C 0.88205 0.3828 0.33023 0.0
C1412 C 0.89374 0.4542 0.34274 0.0
C1413 C 0.89011 0.4204 0.35376 0.0
C1414 C 0.89832 0.47292 0.35569 0.0
C1415 C 0.90431 0.47824 0.39161 0.0
C1416 C 0.89506 0.44062 0.36586 0.0
C1417 C 0.90577 0.46429 0.41348 0.0
C1418 C 0.88902 0.40634 0.37871 0.0
C1419 C 0.88299 0.39719 0.30612 0.0
N1420 N 0.90114 0.44623 0.40033 0.0
N1421 N 0.88692 0.41531 0.31829 0.0
H1422 H 0.62091 0.49159 0.2784 0.0
H1423 H 0.54818 0.4412 0.44682 0.0
H1424 H 0.63634 0.50988 0.38878 0.0
H1425 H 0.53141 0.42036 0.33804 0.0
H1426 H 0.58042 0.46661 0.42505 0.0
H1427 H 0.58816 0.46556 0.29866 0.0
C1428 C 0.61751 0.49011 0.30687 0.0
C1429 C 0.63162 0.50296 0.33186 0.0
C1430 C 0.56973 0.45652 0.40582 0.0
C1431 C 0.59403 0.47317 0.35524 0.0
C1432 C 0.55126 0.44191 0.4183 0.0
C1433 C 0.53698 0.42842 0.39436 0.0
C1434 C 0.57418 0.45785 0.36894 0.0
C1435 C 0.54183 0.43046 0.35753 0.0
C1436 C 0.59879 0.47521 0.31841 0.0
C1437 C 0.62627 0.50018 0.36844 0.0
N1438 N 0.56003 0.44482 0.34598 0.0
N1439 N 0.60799 0.4857 0.3789 0.0
H1440 H 0.50347 0.13036 0.39163 0.0
H1441 H 0.59243 0.11095 0.34009 0.0
H1442 H 0.51904 0.12629 0.28176 0.0
H1443 H 0.57384 0.11291 0.44863 0.0
H1444 H 0.56604 0.11656 0.31759 0.0
H1445 H 0.53002 0.12495 0.41223 0.0
C1446 C 0.51265 0.12865 0.3717 0.0
C1447 C 0.50899 0.12901 0.33476 0.0
C1448 C 0.56776 0.11574 0.34633 0.0
C1449 C 0.53943 0.12223 0.3585 0.0
C1450 C 0.58276 0.11239 0.35923 0.0
C1451 C 0.58555 0.11154 0.39644 0.0
C1452 C 0.55539 0.11825 0.37075 0.0
C1453 C 0.57259 0.11376 0.41981 0.0
C1454 C 0.52774 0.12532 0.38358 0.0
C1455 C 0.52117 0.12606 0.31048 0.0
N1456 N 0.5582 0.11704 0.40662 0.0
N1457 N 0.53581 0.12281 0.32275 0.0
H1458 H 0.73539 0.55742 0.93423 0.0
H1459 H 0.80317 0.56493 0.76655 0.0
H1460 H 0.71692 0.5523 0.82343 0.0
H1461 H 0.82595 0.57954 0.8743 0.0
H1462 H 0.7718 0.56144 0.78721 0.0
H1463 H 0.76859 0.56588 0.91368 0.0
C1464 C 0.73824 0.55803 0.90562 0.0
C1465 C 0.72311 0.55392 0.88061 0.0
C1466 C 0.78369 0.56572 0.80639 0.0
C1467 C 0.76123 0.56364 0.85691 0.0
C1468 C 0.80163 0.56787 0.79449 0.0
C1469 C 0.81714 0.5727 0.8187 0.0
C1470 C 0.78101 0.56805 0.84308 0.0
C1471 C 0.8144 0.57609 0.85476 0.0
C1472 C 0.75724 0.5629 0.89392 0.0
C1473 C 0.7278 0.55484 0.84387 0.0
N1474 N 0.79656 0.57344 0.86601 0.0
N1475 N 0.74634 0.55954 0.83324 0.0
H1476 H 0.49321 0.18897 0.8475 0.0
H1477 H 0.42494 0.23937 0.84792 0.0
H1478 H 0.43652 0.1633 0.90104 0.0
H1479 H 0.47606 0.25826 0.77971 0.0
H1480 H 0.43055 0.21336 0.87268 0.0
H1481 H 0.48875 0.21634 0.82732 0.0
C1482 C 0.47985 0.18906 0.85517 0.0
C1483 C 0.46525 0.17363 0.87608 0.0
C1484 C 0.44053 0.22322 0.85229 0.0
C1485 C 0.46009 0.20522 0.8531 0.0
C1486 C 0.43737 0.23812 0.83826 0.0
C1487 C 0.44991 0.25096 0.81141 0.0
C1488 C 0.45649 0.22123 0.83969 0.0
C1489 C 0.46576 0.24854 0.79982 0.0
C1490 C 0.47733 0.20477 0.84367 0.0
C1491 C 0.44839 0.1749 0.88552 0.0
N1492 N 0.46858 0.23403 0.814 0.0
N1493 N 0.44626 0.19032 0.8739 0.0
H1494 H 0.84892 0.27576 0.91129 0.0
H1495 H 0.7544 0.22096 0.78354 0.0
H1496 H 0.82271 0.30596 0.85654 0.0
H1497 H 0.77281 0.18951 0.85484 0.0
H1498 H 0.77993 0.2522 0.80885 0.0
H1499 H 0.82154 0.24419 0.89099 0.0
C1500 C 0.83729 0.27584 0.89553 0.0
C1501 C 0.83828 0.29377 0.88575 0.0
C1502 C 0.77839 0.23849 0.81908 0.0
C1503 C 0.80697 0.25737 0.86145 0.0
C1504 C 0.76389 0.22059 0.80439 0.0
C1505 C 0.76151 0.2025 0.81683 0.0
C1506 C 0.79084 0.23844 0.84631 0.0
C1507 C 0.77404 0.20306 0.84451 0.0
C1508 C 0.8217 0.25772 0.88366 0.0
C1509 C 0.82286 0.29268 0.86442 0.0
N1510 N 0.78824 0.22072 0.85813 0.0
N1511 N 0.80798 0.27486 0.85285 0.0
H1512 H 0.45818 0.21314 0.27091 0.0
H1513 H 0.44663 0.27733 0.42221 0.0
H1514 H 0.43627 0.18849 0.37591 0.0
H1515 H 0.4941 0.30341 0.34423 0.0
H1516 H 0.44038 0.24461 0.40437 0.0
H1517 H 0.46873 0.24628 0.29474 0.0
C1518 C 0.45565 0.21477 0.29902 0.0
C1519 C 0.44636 0.19811 0.3215 0.0
C1520 C 0.45228 0.25755 0.39148 0.0
C1521 C 0.45811 0.23588 0.34886 0.0
C1522 C 0.45603 0.27637 0.40182 0.0
C1523 C 0.47091 0.29349 0.38466 0.0
C1524 C 0.46314 0.25566 0.3632 0.0
C1525 C 0.48213 0.29085 0.35775 0.0
C1526 C 0.46176 0.23365 0.31265 0.0
C1527 C 0.44351 0.20099 0.35781 0.0
N1528 N 0.47783 0.27236 0.34754 0.0
N1529 N 0.44911 0.2195 0.3703 0.0
H1530 H 0.82297 0.25942 0.36987 0.0
H1531 H 0.71392 0.17152 0.32143 0.0
H1532 H 0.80326 0.23739 0.26256 0.0
H1533 H 0.73278 0.19076 0.43036 0.0
H1534 H 0.74636 0.19657 0.29987 0.0
H1535 H 0.79034 0.23487 0.39301 0.0
C1536 C 0.81191 0.24937 0.35115 0.0
C1537 C 0.81599 0.25064 0.31405 0.0
C1538 C 0.74343 0.19543 0.3285 0.0
C1539 C 0.77838 0.22259 0.34046 0.0
C1540 C 0.72474 0.18121 0.3409 0.0
C1541 C 0.72038 0.17899 0.37789 0.0
C1542 C 0.75812 0.20767 0.35312 0.0
C1543 C 0.73541 0.19176 0.40165 0.0
C1544 C 0.7932 0.23542 0.3644 0.0
C1545 C 0.80083 0.23728 0.29122 0.0
N1546 N 0.75357 0.2055 0.38889 0.0
N1547 N 0.78281 0.22392 0.30474 0.0
H1548 H 0.82269 0.51916 0.34611 0.0
H1549 H 0.76305 0.57618 0.37836 0.0
H1550 H 0.84448 0.56948 0.41764 0.0
H1551 H 0.76838 0.55655 0.27288 0.0
H1552 H 0.78667 0.56649 0.40141 0.0
H1553 H 0.79655 0.52573 0.32681 0.0
C1554 C 0.82213 0.53153 0.35798 0.0
C1555 C 0.83627 0.54382 0.38357 0.0
C1556 C 0.7825 0.56416 0.3733 0.0
C1557 C 0.80558 0.55082 0.36227 0.0
C1558 C 0.76899 0.56957 0.36025 0.0
C1559 C 0.76387 0.56718 0.3237 0.0
C1560 C 0.79048 0.55581 0.34981 0.0
C1561 C 0.7721 0.55872 0.30117 0.0
C1562 C 0.80702 0.53514 0.34699 0.0
C1563 C 0.83398 0.55922 0.39845 0.0
N1564 N 0.78491 0.55322 0.31459 0.0
N1565 N 0.81898 0.56222 0.38767 0.0
H1566 H 0.52251 0.10415 0.8254 0.0
H1567 H 0.638 0.15943 0.86613 0.0
H1568 H 0.5449 0.11573 0.93374 0.0
H1569 H 0.6123 0.11413 0.7843 0.0
H1570 H 0.6047 0.15134 0.88442 0.0
H1571 H 0.55638 0.1157 0.80307 0.0
C1572 C 0.53463 0.1094 0.84435 0.0
C1573 C 0.53102 0.10899 0.88141 0.0
C1574 C 0.6065 0.14336 0.86224 0.0
C1575 C 0.56957 0.12247 0.85622 0.0
C1576 C 0.62554 0.14784 0.8518 0.0
C1577 C 0.62834 0.13728 0.82381 0.0
C1578 C 0.59 0.12861 0.84404 0.0
C1579 C 0.61127 0.12295 0.8057 0.0
C1580 C 0.55385 0.11586 0.83168 0.0
C1581 C 0.54714 0.11575 0.90501 0.0
N1582 N 0.59291 0.11906 0.81611 0.0
N1583 N 0.56575 0.12234 0.89203 0.0
H1584 H 0.90789 0.41984 0.84026 0.0
H1585 H 0.89359 0.5117 0.893 0.0
H1586 H 0.91134 0.44137 0.94838 0.0
H1587 H 0.89012 0.49188 0.78349 0.0
H1588 H 0.90022 0.48587 0.91296 0.0
H1589 H 0.90224 0.44627 0.81814 0.0
C1590 C 0.90766 0.43019 0.85934 0.0
C1591 C 0.91 0.42823 0.89637 0.0
C1592 C 0.89796 0.48707 0.88454 0.0
C1593 C 0.90328 0.45842 0.87118 0.0
C1594 C 0.89395 0.50175 0.87309 0.0
C1595 C 0.89099 0.50391 0.83645 0.0
C1596 C 0.89911 0.47428 0.85932 0.0
C1597 C 0.89233 0.49085 0.81198 0.0
C1598 C 0.90428 0.44521 0.84669 0.0
C1599 C 0.9093 0.44202 0.91975 0.0
N1600 N 0.89623 0.47658 0.82384 0.0
N1601 N 0.90598 0.45642 0.90681 0.0
H1602 H 0.59788 0.48554 0.83489 0.0
H1603 H 0.50915 0.37679 0.88315 0.0
H1604 H 0.57524 0.46551 0.94196 0.0
H1605 H 0.5282 0.39579 0.77403 0.0
H1606 H 0.53459 0.40896 0.90459 0.0
H1607 H 0.57326 0.45301 0.81149 0.0
C1608 C 0.58772 0.47442 0.8535 0.0
C1609 C 0.58882 0.47837 0.8906 0.0
C1610 C 0.53334 0.40613 0.87594 0.0
C1611 C 0.56071 0.44095 0.86395 0.0
C1612 C 0.51889 0.38758 0.86361 0.0
C1613 C 0.5165 0.38334 0.82661 0.0
C1614 C 0.54564 0.42081 0.85125 0.0
C1615 C 0.52934 0.39833 0.80276 0.0
C1616 C 0.57373 0.45578 0.84011 0.0
C1617 C 0.57529 0.46318 0.91331 0.0
N1618 N 0.54332 0.41638 0.81546 0.0
N1619 N 0.56192 0.44526 0.89967 0.0
H1620 H 0.54819 0.72821 0.60559 0.0
H1621 H 0.57173 0.79914 0.77658 0.0
H1622 H 0.54971 0.71099 0.7154 0.0
H1623 H 0.56617 0.81698 0.66932 0.0
H1624 H 0.56428 0.76702 0.75342 0.0
H1625 H 0.55505 0.7608 0.62714 0.0
C1626 C 0.54983 0.73119 0.63419 0.0
C1627 C 0.5482 0.71665 0.65866 0.0
C1628 C 0.56465 0.7779 0.73482 0.0
C1629 C 0.55619 0.75403 0.68347 0.0
C1630 C 0.56886 0.79632 0.74811 0.0
C1631 C 0.56942 0.81087 0.72502 0.0
C1632 C 0.56098 0.77379 0.69797 0.0
C1633 C 0.56602 0.80633 0.68816 0.0
C1634 C 0.55374 0.74981 0.64647 0.0
C1635 C 0.5504 0.72144 0.69545 0.0
N1636 N 0.56189 0.78818 0.6758 0.0
N1637 N 0.55434 0.73964 0.7066 0.0
H1638 H 0.30389 0.83632 0.71642 0.0
H1639 H 0.19451 0.74869 0.66957 0.0
H1640 H 0.2842 0.81729 0.60774 0.0
H1641 H 0.21481 0.77056 0.77676 0.0
H1642 H 0.22705 0.77311 0.64604 0.0
H1643 H 0.27165 0.81116 0.73859 0.0
C1644 C 0.29293 0.82664 0.69713 0.0
C1645 C 0.29698 0.82896 0.66003 0.0
C1646 C 0.22435 0.77255 0.67471 0.0
C1647 C 0.25948 0.80019 0.68549 0.0
C1648 C 0.20568 0.75869 0.68819 0.0
C1649 C 0.20179 0.75742 0.72536 0.0
C1650 C 0.23931 0.78531 0.69848 0.0
C1651 C 0.21709 0.77069 0.74805 0.0
C1652 C 0.27436 0.81237 0.70988 0.0
C1653 C 0.2818 0.81621 0.63652 0.0
N1654 N 0.23508 0.78398 0.73429 0.0
N1655 N 0.26376 0.80242 0.64962 0.0
H1656 H 0.24288 0.44467 0.78394 0.0
H1657 H 0.19319 0.46371 0.6108 0.0
H1658 H 0.26336 0.4455 0.67574 0.0
H1659 H 0.17547 0.46488 0.72039 0.0
H1660 H 0.21895 0.45714 0.63321 0.0
H1661 H 0.218 0.45186 0.76036 0.0
C1662 C 0.24221 0.44641 0.75518 0.0
C1663 C 0.25543 0.44458 0.73192 0.0
C1664 C 0.20949 0.45897 0.65232 0.0
C1665 C 0.22663 0.45275 0.70446 0.0
C1666 C 0.19474 0.46271 0.63954 0.0
C1667 C 0.18209 0.46499 0.66366 0.0
C1668 C 0.21159 0.45736 0.68952 0.0
C1669 C 0.185 0.46364 0.70066 0.0
C1670 C 0.22791 0.45048 0.74167 0.0
C1671 C 0.25346 0.44661 0.69476 0.0
N1672 N 0.19932 0.45985 0.71234 0.0
N1673 N 0.2394 0.45065 0.68222 0.0
H1674 H 0.47004 0.89523 0.1007 0.0
H1675 H 0.40215 0.89682 0.25513 0.0
H1676 H 0.49092 0.90561 0.21004 0.0
H1677 H 0.37746 0.85413 0.16888 0.0
H1678 H 0.43511 0.90345 0.23783 0.0
H1679 H 0.43628 0.88388 0.1227 0.0
C1680 C 0.46744 0.89504 0.12935 0.0
C1681 C 0.48319 0.90128 0.15363 0.0
C1682 C 0.42239 0.89252 0.22297 0.0
C1683 C 0.44483 0.88875 0.17894 0.0
C1684 C 0.40342 0.88853 0.23298 0.0
C1685 C 0.38662 0.87491 0.2134 0.0
C1686 C 0.42479 0.88326 0.19263 0.0
C1687 C 0.38975 0.86516 0.18435 0.0
C1688 C 0.44823 0.8885 0.14188 0.0
C1689 C 0.47911 0.90075 0.19055 0.0
N1690 N 0.4084 0.86975 0.17454 0.0
N1691 N 0.46036 0.89487 0.20209 0.0
H1692 H 0.1109 0.56746 0.09062 0.0
H1693 H 0.13577 0.51906 0.25908 0.0
H1694 H 0.11492 0.58859 0.19917 0.0
H1695 H 0.12958 0.49826 0.1497 0.0
H1696 H 0.12862 0.54478 0.23857 0.0
H1697 H 0.11797 0.54219 0.11261 0.0
C1698 C 0.1133 0.56682 0.11914 0.0
C1699 C 0.11241 0.58034 0.14296 0.0
C1700 C 0.12894 0.53463 0.21909 0.0
C1701 C 0.12051 0.55113 0.16863 0.0
C1702 C 0.13301 0.51991 0.23078 0.0
C1703 C 0.13349 0.50644 0.20614 0.0
C1704 C 0.12522 0.53593 0.18247 0.0
C1705 C 0.12987 0.50845 0.16974 0.0
C1706 C 0.11729 0.5523 0.13175 0.0
C1707 C 0.11531 0.57845 0.17979 0.0
N1708 N 0.12589 0.5228 0.15915 0.0
N1709 N 0.11932 0.5642 0.19146 0.0
H1710 H 0.44082 0.5218 0.19266 0.0
H1711 H 0.48781 0.63987 0.1849 0.0
H1712 H 0.42183 0.55186 0.11918 0.0
H1713 H 0.51401 0.61125 0.24474 0.0
H1714 H 0.46139 0.6074 0.16566 0.0
H1715 H 0.46554 0.55404 0.21717 0.0
C1716 C 0.44177 0.53513 0.1818 0.0
C1717 C 0.42931 0.53405 0.15354 0.0
C1718 C 0.47286 0.60821 0.18318 0.0
C1719 C 0.45755 0.57104 0.18151 0.0
C1720 C 0.48803 0.62681 0.19415 0.0
C1721 C 0.50335 0.62849 0.21645 0.0
C1722 C 0.47285 0.591 0.19456 0.0
C1723 C 0.50248 0.61084 0.22797 0.0
C1724 C 0.45593 0.55355 0.19569 0.0
C1725 C 0.43131 0.5519 0.14043 0.0
N1726 N 0.48759 0.59291 0.2168 0.0
N1727 N 0.44509 0.56956 0.15449 0.0
H1728 H 0.13406 0.63115 0.65224 0.0
H1729 H 0.11999 0.52482 0.70296 0.0
H1730 H 0.13741 0.61426 0.76149 0.0
H1731 H 0.11048 0.54143 0.59724 0.0
H1732 H 0.12754 0.55745 0.72528 0.0
H1733 H 0.12758 0.59884 0.63183 0.0
C1734 C 0.13378 0.62079 0.67199 0.0
C1735 C 0.13648 0.62565 0.70873 0.0
C1736 C 0.12379 0.5539 0.6972 0.0
C1737 C 0.12849 0.58805 0.68535 0.0
C1738 C 0.11934 0.53519 0.68444 0.0
C1739 C 0.11468 0.53026 0.64797 0.0
C1740 C 0.12361 0.56783 0.67337 0.0
C1741 C 0.11432 0.54454 0.62533 0.0
C1742 C 0.12982 0.60216 0.66028 0.0
C1743 C 0.13533 0.61121 0.73295 0.0
N1744 N 0.11875 0.56257 0.63834 0.0
N1745 N 0.13143 0.59309 0.72085 0.0
H1746 H 0.38137 0.50397 0.65564 0.0
H1747 H 0.49033 0.59267 0.70147 0.0
H1748 H 0.40115 0.52328 0.76419 0.0
H1749 H 0.4696 0.571 0.59437 0.0
H1750 H 0.45808 0.56778 0.72541 0.0
H1751 H 0.4134 0.52937 0.63324 0.0
C1752 C 0.3923 0.51375 0.67485 0.0
C1753 C 0.38833 0.51147 0.71198 0.0
C1754 C 0.46063 0.56848 0.69667 0.0
C1755 C 0.42561 0.54053 0.68623 0.0
C1756 C 0.47912 0.58262 0.68295 0.0
C1757 C 0.48279 0.58407 0.6457 0.0
C1758 C 0.44563 0.55565 0.67303 0.0
C1759 C 0.46747 0.57072 0.62315 0.0
C1760 C 0.41077 0.52817 0.66197 0.0
C1761 C 0.40349 0.52435 0.73539 0.0
N1762 N 0.44965 0.55717 0.63712 0.0
N1763 N 0.42143 0.53829 0.72215 0.0
H1764 H 0.44164 0.92231 0.67664 0.0
H1765 H 0.48721 0.85021 0.69161 0.0
H1766 H 0.42069 0.86893 0.61437 0.0
H1767 H 0.51748 0.91055 0.72978 0.0
H1768 H 0.46048 0.85516 0.66929 0.0
H1769 H 0.46726 0.91654 0.70275 0.0
C1770 C 0.44239 0.90936 0.66855 0.0
C1771 C 0.42908 0.89619 0.64303 0.0
C1772 C 0.47295 0.86727 0.68275 0.0
C1773 C 0.45828 0.8894 0.67294 0.0
C1774 C 0.48829 0.86448 0.69545 0.0
C1775 C 0.50481 0.87995 0.71273 0.0
C1776 C 0.47393 0.88563 0.68747 0.0
C1777 C 0.50501 0.898 0.71732 0.0
C1778 C 0.45705 0.9061 0.68334 0.0
C1779 C 0.43081 0.87967 0.63344 0.0
N1780 N 0.48989 0.90032 0.70478 0.0
N1781 N 0.44506 0.87673 0.64843 0.0
H1782 H 0.30777 0.48941 0.20238 0.0
H1783 H 0.19223 0.43585 0.16184 0.0
H1784 H 0.28135 0.4444 0.12022 0.0
H1785 H 0.21514 0.449 0.26978 0.0
H1786 H 0.22585 0.44634 0.13941 0.0
H1787 H 0.2747 0.48208 0.22061 0.0
C1788 C 0.29518 0.47802 0.18799 0.0
C1789 C 0.29768 0.46732 0.15993 0.0
C1790 C 0.22348 0.44705 0.16795 0.0
C1791 C 0.25961 0.45947 0.18014 0.0
C1792 C 0.20441 0.44119 0.18068 0.0
C1793 C 0.20101 0.44155 0.21767 0.0
C1794 C 0.2393 0.45382 0.19233 0.0
C1795 C 0.2172 0.44841 0.24111 0.0
C1796 C 0.27627 0.47397 0.1984 0.0
C1797 C 0.28049 0.45328 0.14171 0.0
N1798 N 0.23567 0.4544 0.22805 0.0
N1799 N 0.26225 0.44978 0.15214 0.0
H1800 H 0.54719 0.82342 0.11544 0.0
H1801 H 0.57422 0.77609 0.28278 0.0
H1802 H 0.55487 0.84504 0.22445 0.0
H1803 H 0.56809 0.75392 0.17453 0.0
H1804 H 0.56684 0.80122 0.2612 0.0
H1805 H 0.55431 0.79765 0.13581 0.0
C1806 C 0.55026 0.82274 0.14365 0.0
C1807 C 0.55024 0.83645 0.16822 0.0
C1808 C 0.56712 0.7909 0.24205 0.0
C1809 C 0.55846 0.80692 0.19172 0.0
C1810 C 0.57128 0.77645 0.25443 0.0
C1811 C 0.5717 0.7627 0.23057 0.0
C1812 C 0.56326 0.79176 0.20538 0.0
C1813 C 0.56811 0.76425 0.19394 0.0
C1814 C 0.55431 0.80798 0.15525 0.0
C1815 C 0.55424 0.83465 0.20449 0.0
N1816 N 0.56397 0.77844 0.18251 0.0
N1817 N 0.55821 0.82027 0.21501 0.0
H1818 H 0.23876 0.79758 0.27683 0.0
H1819 H 0.19122 0.72532 0.10745 0.0
H1820 H 0.26109 0.81469 0.16875 0.0
H1821 H 0.17158 0.70924 0.21722 0.0
H1822 H 0.21679 0.75803 0.12841 0.0
H1823 H 0.21391 0.76527 0.25455 0.0
C1824 C 0.23851 0.79456 0.24838 0.0
C1825 C 0.25224 0.80897 0.22477 0.0
C1826 C 0.20694 0.74727 0.14788 0.0
C1827 C 0.22346 0.7717 0.19878 0.0
C1828 C 0.1923 0.72857 0.13593 0.0
C1829 C 0.1792 0.71431 0.16054 0.0
C1830 C 0.20847 0.75186 0.18472 0.0
C1831 C 0.18149 0.71946 0.19718 0.0
C1832 C 0.22421 0.77605 0.2356 0.0
C1833 C 0.25079 0.80419 0.18799 0.0
N1834 N 0.19572 0.73774 0.20803 0.0
N1835 N 0.23673 0.78596 0.17616 0.0
H1836 H 0.24767 0.25482 0.16166 0.0
H1837 H 0.25695 0.24505 0.3761 0.0
H1838 H 0.2596 0.21114 0.20757 0.0
H1839 H 0.2146 0.25889 0.33024 0.0
H1840 H 0.26668 0.2411 0.31477 0.0
H1841 H 0.24421 0.2649 0.22298 0.0
C1842 C 0.25023 0.24778 0.18451 0.0
C1843 C 0.25426 0.23226 0.17911 0.0
C1844 C 0.25555 0.24541 0.31814 0.0
C1845 C 0.25025 0.24377 0.24993 0.0
C1846 C 0.25014 0.24791 0.35327 0.0
C1847 C 0.23505 0.2526 0.3587 0.0
C1848 C 0.24621 0.24806 0.28785 0.0
C1849 C 0.22644 0.25552 0.3276 0.0
C1850 C 0.248 0.25339 0.21963 0.0
C1851 C 0.25676 0.22334 0.2102 0.0
N1852 N 0.23214 0.25331 0.29384 0.0
N1853 N 0.25482 0.22923 0.24396 0.0
H1854 H 0.76031 0.99745 0.16083 0.0
H1855 H 0.76897 0.01289 0.37702 0.0
H1856 H 0.7863 0.0547 0.21144 0.0
H1857 H 0.73959 0.95554 0.32655 0.0
H1858 H 0.77548 0.02837 0.31715 0.0
H1859 H 0.75271 0.98193 0.22072 0.0
C1860 C 0.76451 0.00684 0.18434 0.0
C1861 C 0.77417 0.02759 0.18041 0.0
C1862 C 0.76759 0.01238 0.3191 0.0
C1863 C 0.76532 0.00964 0.25016 0.0
C1864 C 0.76389 1.00347 0.35354 0.0
C1865 C 0.75376 0.98271 0.3575 0.0
C1866 C 0.76123 1.00061 0.28778 0.0
C1867 C 0.74742 0.97154 0.32541 0.0
C1868 C 0.76007 0.9979 0.21879 0.0
C1869 C 0.77885 0.03871 0.21255 0.0
N1870 N 0.75129 0.98053 0.29233 0.0
N1871 N 0.7745 0.02969 0.24563 0.0
H1872 H 0.01614 0.76701 0.16469 0.0
H1873 H 0.99989 0.75912 0.38078 0.0
H1874 H 0.95861 0.7381 0.21493 0.0
H1875 H 0.05742 0.78683 0.3306 0.0
H1876 H 0.9846 0.75101 0.32082 0.0
H1877 H 0.03143 0.77402 0.22466 0.0
C1878 C 1.00664 0.76214 0.18813 0.0
C1879 C 0.98589 0.75201 0.18407 0.0
C1880 C 1.00059 0.75886 0.32285 0.0
C1881 C 1.00356 0.76001 0.25392 0.0
C1882 C 0.00939 0.76358 0.35735 0.0
C1883 C 0.03014 0.77389 0.36143 0.0
C1884 C 0.01247 0.76442 0.29158 0.0
C1885 C 0.04142 0.77889 0.32938 0.0
C1886 C 0.01544 0.76612 0.22263 0.0
C1887 C 0.97461 0.74593 0.21614 0.0
N1888 N 0.03253 0.77422 0.29624 0.0
N1889 N 0.9835 0.75004 0.24927 0.0
H1890 H 0.79187 0.73882 0.71561 0.0
H1891 H 0.7413 0.78869 0.83399 0.0
H1892 H 0.76437 0.76969 0.66864 0.0
H1893 H 0.77423 0.76336 0.88086 0.0
H1894 H 0.748 0.78032 0.77406 0.0
H1895 H 0.78405 0.74603 0.77562 0.0
C1896 C 0.7841 0.74706 0.71768 0.0
C1897 C 0.77893 0.75366 0.6863 0.0
C1898 C 0.75378 0.77655 0.79736 0.0
C1899 C 0.7698 0.7621 0.7563 0.0
C1900 C 0.74988 0.78128 0.83192 0.0
C1901 C 0.75722 0.77689 0.86323 0.0
C1902 C 0.76508 0.76713 0.79331 0.0
C1903 C 0.76832 0.76729 0.85797 0.0
C1904 C 0.77968 0.75124 0.75228 0.0
C1905 C 0.7689 0.76436 0.69156 0.0
N1906 N 0.77186 0.76278 0.82402 0.0
N1907 N 0.7647 0.76818 0.72554 0.0
H1908 H 0.26909 0.0585 0.71693 0.0
H1909 H 0.23009 0.95829 0.83362 0.0
H1910 H 0.24557 1.0008 0.669 0.0
H1911 H 0.24897 0.01528 0.88152 0.0
H1912 H 0.23703 0.9737 0.77394 0.0
H1913 H 0.26329 0.04329 0.77671 0.0
C1914 C 0.26275 0.04262 0.71875 0.0
C1915 C 0.25776 0.03106 0.68717 0.0
C1916 C 0.2397 0.9829 0.79741 0.0
C1917 C 0.25098 0.01327 0.75688 0.0
C1918 C 0.23578 0.97408 0.83183 0.0
C1919 C 0.23881 0.98532 0.86336 0.0
C1920 C 0.2469 1.00335 0.79373 0.0
C1921 C 0.24621 0.0058 0.85845 0.0
C1922 C 0.25938 0.03389 0.75321 0.0
C1923 C 0.24953 0.01047 0.69209 0.0
N1924 N 0.24995 0.01404 0.82464 0.0
N1925 N 0.24644 1.00234 0.72593 0.0
H1926 H 0.01718 0.24524 0.6593 0.0
H1927 H 1.00016 0.24105 0.87491 0.0
H1928 H 0.96003 0.22483 0.70814 0.0
H1929 H 0.05787 0.26725 0.82561 0.0
H1930 H 0.98521 0.23452 0.81464 0.0
H1931 H 0.03219 0.25282 0.71954 0.0
C1932 C 1.00771 0.24231 0.68252 0.0
C1933 C 0.98714 0.23424 0.67803 0.0
C1934 C 1.00116 0.24173 0.81695 0.0
C1935 C 1.00449 0.24299 0.74809 0.0
C1936 C 0.00976 0.24545 0.85159 0.0
C1937 C 0.03045 0.25472 0.85598 0.0
C1938 C 0.01319 0.24714 0.78588 0.0
C1939 C 0.0419 0.26014 0.82412 0.0
C1940 C 0.01636 0.24671 0.71714 0.0
C1941 C 0.9759 0.23103 0.70974 0.0
N1942 N 0.0332 0.25622 0.79084 0.0
N1943 N 0.98462 0.23529 0.74301 0.0
H1944 H 0.96011 0.59515 0.53082 0.0
H1945 H 0.86954 0.56677 0.66739 0.0
H1946 H 0.89926 0.55236 0.50829 0.0
H1947 H 0.9296 0.59492 0.706 0.0
H1948 H 0.8812 0.56607 0.60701 0.0
H1949 H 0.95039 0.5988 0.59218 0.0
C1950 C 0.94467 0.58655 0.53845 0.0
C1951 C 0.9305 0.57365 0.51332 0.0
C1952 C 0.89197 0.57259 0.62841 0.0
C1953 C 0.91917 0.57804 0.58444 0.0
C1954 C 0.88532 0.57317 0.66321 0.0
C1955 C 0.89848 0.58098 0.69253 0.0
C1956 C 0.91219 0.57994 0.62175 0.0
C1957 C 0.91879 0.58897 0.6846 0.0
C1958 C 0.93915 0.5887 0.57373 0.0
C1959 C 0.91077 0.56294 0.52562 0.0
N1960 N 0.92498 0.58817 0.65016 0.0
N1961 N 0.90578 0.56547 0.55979 0.0
H1962 H 0.45769 0.38934 0.54198 0.0
H1963 H 0.41008 0.2885 0.65874 0.0
H1964 H 0.43335 0.33149 0.49423 0.0
H1965 H 0.44051 0.34655 0.70647 0.0
H1966 H 0.41672 0.30381 0.59898 0.0
H1967 H 0.44986 0.37399 0.60175 0.0
C1968 C 0.4506 0.37338 0.54384 0.0
C1969 C 0.44631 0.36185 0.51237 0.0
C1970 C 0.42196 0.31326 0.62245 0.0
C1971 C 0.43719 0.34391 0.58197 0.0
C1972 C 0.4181 0.30449 0.65687 0.0
C1973 C 0.42477 0.3161 0.68834 0.0
C1974 C 0.43253 0.33399 0.61875 0.0
C1975 C 0.43516 0.33682 0.68343 0.0
C1976 C 0.44618 0.36459 0.57828 0.0
C1977 C 0.43714 0.34117 0.51729 0.0
N1978 N 0.43866 0.345 0.64961 0.0
N1979 N 0.43293 0.33296 0.5511 0.0
H1980 H 0.72378 0.12215 0.66645 0.0
H1981 H 0.62377 0.07496 0.54776 0.0
H1982 H 0.66574 0.09929 0.713 0.0
H1983 H 0.68216 0.10406 0.50089 0.0
H1984 H 0.63867 0.082 0.6078 0.0
H1985 H 0.70883 0.11404 0.60647 0.0
C1986 C 0.70785 0.11533 0.66429 0.0
C1987 C 0.69616 0.11153 0.69552 0.0
C1988 C 0.64828 0.08686 0.58447 0.0
C1989 C 0.67867 0.10206 0.62556 0.0
C1990 C 0.63975 0.08277 0.54986 0.0
C1991 C 0.65158 0.08892 0.5185 0.0
C1992 C 0.669 0.09717 0.58853 0.0
C1993 C 0.67227 0.09908 0.52379 0.0
C1994 C 0.69929 0.11074 0.62971 0.0
C1995 C 0.67554 0.10268 0.69016 0.0
N1996 N 0.68021 0.10282 0.5578 0.0
N1997 N 0.66755 0.09829 0.6562 0.0
H1998 H 0.40411 0.10486 0.17892 0.0
H1999 H 0.47875 0.09818 0.03545 0.0
H2000 H 0.46404 0.119 0.20006 0.0
H2001 H 0.42178 0.08871 1.00211 0.0
H2002 H 0.47076 0.10145 0.09743 0.0
H2003 H 0.40739 0.09496 0.11688 0.0
C2004 C 0.41775 0.10543 0.17096 0.0
C2005 C 0.43375 0.11263 0.19527 0.0
C2006 C 0.45978 0.09844 0.07689 0.0
C2007 C 0.43776 0.10156 0.1238 0.0
C2008 C 0.46433 0.09642 0.04118 0.0
C2009 C 0.45096 0.09297 1.01297 0.0
C2010 C 0.44165 0.09731 0.0855 0.0
C2011 C 0.43252 0.09103 0.02272 0.0
C2012 C 0.4197 0.09996 0.13532 0.0
C2013 C 0.45122 0.11347 0.18272 0.0
N2014 N 0.42851 0.09341 0.05794 0.0
N2015 N 0.45269 0.1081 0.14841 0.0
H2016 H 0.94666 0.38829 0.04576 0.0
H2017 H 0.8955 0.28784 0.16388 0.0
H2018 H 0.91523 0.33013 0.99863 0.0
H2019 H 0.92124 0.346 0.21075 0.0
H2020 H 0.90412 0.30294 0.10394 0.0
H2021 H 0.93916 0.37317 0.10572 0.0
C2022 C 0.93825 0.37231 0.04779 0.0
C2023 C 0.93157 0.36062 1.0164 0.0
C2024 C 0.90792 0.31246 0.12725 0.0
C2025 C 0.92277 0.34295 0.08629 0.0
C2026 C 0.90304 0.30381 0.1618 0.0
C2027 C 0.90747 0.31551 0.1931 0.0
C2028 C 0.91754 0.33316 0.12324 0.0
C2029 C 0.91725 0.3362 0.18787 0.0
C2030 C 0.93389 0.36366 0.08235 0.0
C2031 C 0.92064 0.33993 0.02157 0.0
N2032 N 0.92192 0.34426 0.15394 0.0
N2033 N 0.91664 0.33186 0.05552 0.0
H2034 H 0.63782 0.58633 0.03948 0.0
H2035 H 0.70968 0.56636 0.16752 0.0
H2036 H 0.66945 0.55702 1.0049 0.0
H2037 H 0.67829 0.59506 0.20668 0.0
H2038 H 0.69613 0.5646 0.10771 0.0
H2039 H 0.65276 0.59078 0.09945 0.0
C2040 C 0.64793 0.58084 0.04425 0.0
C2041 C 0.65235 0.57136 1.01631 0.0
C2042 C 0.69223 0.57144 0.12912 0.0
C2043 C 0.66976 0.57654 0.08601 0.0
C2044 C 0.70008 0.57255 0.16361 0.0
C2045 C 0.69533 0.58097 0.19284 0.0
C2046 C 0.67918 0.57866 0.12288 0.0
C2047 C 0.68268 0.58863 0.18531 0.0
C2048 C 0.65652 0.58345 0.07874 0.0
C2049 C 0.66565 0.56465 0.02486 0.0
N2050 N 0.67501 0.58718 0.15135 0.0
N2051 N 0.67375 0.56734 0.05856 0.0
H2052 H 0.53615 0.90174 1.00171 0.0
H2053 H 0.62584 0.91785 0.87109 0.0
H2054 H 0.59606 0.92708 0.04016 0.0
H2055 H 0.56475 0.89008 0.83852 0.0
H2056 H 0.61619 0.92273 0.93157 0.0
H2057 H 0.54727 0.89942 0.94158 0.0
C2058 C 0.55177 0.90706 0.9976 0.0
C2059 C 0.56508 0.9147 0.02674 0.0
C2060 C 0.60489 0.91566 0.91118 0.0
C2061 C 0.57813 0.91177 0.95632 0.0
C2062 C 0.61038 0.9128 0.87639 0.0
C2063 C 0.59619 0.90364 0.84883 0.0
C2064 C 0.58493 0.90933 0.91914 0.0
C2065 C 0.5764 0.89749 0.85811 0.0
C2066 C 0.55812 0.90563 0.96291 0.0
C2067 C 0.58516 0.92127 1.01889 0.0
N2068 N 0.57146 0.90042 0.89206 0.0
N2069 N 0.591 0.91956 0.9847 0.0
H2070 H 0.10337 0.67707 0.04293 0.0
H2071 H 0.09627 0.66116 0.82688 0.0
H2072 H 0.07408 0.61961 0.99284 0.0
H2073 H 0.12248 0.71855 0.87699 0.0
H2074 H 0.08808 0.64577 0.88687 0.0
H2075 H 0.11046 0.69243 0.98293 0.0
C2076 C 0.09843 0.6676 1.01951 0.0
C2077 C 0.08815 0.64685 0.02362 0.0
C2078 C 0.09562 0.66174 0.88481 0.0
C2079 C 0.09629 0.6646 0.95374 0.0
C2080 C 0.10039 0.67061 0.85031 0.0
C2081 C 0.11029 0.69135 0.84621 0.0
C2082 C 0.10075 0.67356 0.91606 0.0
C2083 C 0.11486 0.70256 0.87824 0.0
C2084 C 0.10246 0.67644 0.985 0.0
C2085 C 0.08201 0.63561 0.99159 0.0
N2086 N 0.11017 0.69361 0.91138 0.0
N2087 N 0.0862 0.64454 0.95843 0.0
H2088 H 0.33554 0.43034 0.04869 0.0
H2089 H 0.35207 0.43571 0.83297 0.0
H2090 H 0.39293 0.45343 0.99921 0.0
H2091 H 0.29445 0.4068 0.88291 0.0
H2092 H 0.36726 0.4428 0.89305 0.0
H2093 H 0.32035 0.42217 0.98866 0.0
C2094 C 0.34502 0.43373 0.02538 0.0
C2095 C 0.3657 0.44271 0.02963 0.0
C2096 C 0.35128 0.43487 0.89092 0.0
C2097 C 0.34816 0.43331 0.95978 0.0
C2098 C 0.34254 0.43084 0.85639 0.0
C2099 C 0.3218 0.42065 0.85226 0.0
C2100 C 0.33934 0.42885 0.92212 0.0
C2101 C 0.31045 0.41464 0.88423 0.0
C2102 C 0.33628 0.42899 0.99087 0.0
C2103 C 0.37697 0.44651 0.99779 0.0
N2104 N 0.31928 0.41887 0.91739 0.0
N2105 N 0.36815 0.44192 0.96462 0.0
H2106 H 0.14898 0.44184 0.37128 0.0
H2107 H 0.05926 0.421 0.5058 0.0
H2108 H 0.08858 0.41452 0.33467 0.0
H2109 H 0.12081 0.45146 0.53592 0.0
H2110 H 0.06875 0.41693 0.44462 0.0
H2111 H 0.13805 0.44329 0.43199 0.0
C2112 C 0.13329 0.43591 0.37592 0.0
C2113 C 0.11978 0.42799 0.34713 0.0
C2114 C 0.08019 0.42442 0.46463 0.0
C2115 C 0.10694 0.42987 0.41823 0.0
C2116 C 0.07478 0.4268 0.49981 0.0
C2117 C 0.08917 0.4365 0.52686 0.0
C2118 C 0.10023 0.43176 0.4558 0.0
C2119 C 0.10904 0.44364 0.51672 0.0
C2120 C 0.12705 0.43684 0.41095 0.0
C2121 C 0.09963 0.42059 0.35565 0.0
N2122 N 0.11388 0.44113 0.48243 0.0
N2123 N 0.09388 0.42181 0.39018 0.0
H2124 H 0.57875 0.66454 0.32678 0.0
H2125 H 0.58881 0.67993 0.54285 0.0
H2126 H 0.61206 0.72167 0.37714 0.0
H2127 H 0.55968 0.62258 0.49237 0.0
H2128 H 0.59722 0.6954 0.48294 0.0
H2129 H 0.57147 0.64901 0.38666 0.0
C2130 C 0.58456 0.6739 0.35025 0.0
C2131 C 0.59604 0.69462 0.34626 0.0
C2132 C 0.589 0.67942 0.4849 0.0
C2133 C 0.58763 0.67666 0.41596 0.0
C2134 C 0.58411 0.67051 0.51936 0.0
C2135 C 0.57333 0.64976 0.52332 0.0
C2136 C 0.58308 0.66763 0.45357 0.0
C2137 C 0.56801 0.63858 0.49121 0.0
C2138 C 0.58041 0.66495 0.38467 0.0
C2139 C 0.6032 0.7057 0.37831 0.0
N2140 N 0.5728 0.64756 0.45812 0.0
N2141 N 0.59885 0.69668 0.41138 0.0
H2142 H 0.33265 0.90566 0.53997 0.0
H2143 H 0.34964 0.91142 0.32423 0.0
H2144 H 0.39038 0.93388 0.49049 0.0
H2145 H 0.2924 0.89022 0.37322 0.0
H2146 H 0.36467 0.91899 0.38447 0.0
H2147 H 0.31763 0.89919 0.47971 0.0
C2148 C 0.34224 0.91052 0.51662 0.0
C2149 C 0.36296 0.92035 0.52094 0.0
C2150 C 0.34882 0.91272 0.3821 0.0
C2151 C 0.34563 0.91283 0.45088 0.0
C2152 C 0.34016 0.90835 0.34748 0.0
C2153 C 0.31957 0.90008 0.34302 0.0
C2154 C 0.33692 0.90873 0.4131 0.0
C2155 C 0.3083 0.8966 0.37478 0.0
C2156 C 0.3336 0.90684 0.48199 0.0
C2157 C 0.37439 0.92633 0.48905 0.0
N2158 N 0.31702 0.90082 0.40806 0.0
N2159 N 0.36566 0.92242 0.4558 0.0
H2160 H 0.32331 0.25344 0.03382 0.0
H2161 H 0.36685 0.27345 0.83005 0.0
H2162 H 0.28657 0.23147 0.93938 0.0
H2163 H 0.40304 0.28649 0.92496 0.0
H2164 H 0.33725 0.25943 0.86926 0.0
H2165 H 0.35279 0.26728 0.9944 0.0
C2166 C 0.32135 0.25149 1.00499 0.0
C2167 C 0.3022 0.24109 0.99032 0.0
C2168 C 0.35172 0.26535 0.88142 0.0
C2169 C 0.33608 0.25714 0.94457 0.0
C2170 C 0.36866 0.27334 0.85891 0.0
C2171 C 0.38771 0.28122 0.87379 0.0
C2172 C 0.35371 0.26534 0.91927 0.0
C2173 C 0.38886 0.28064 0.91174 0.0
C2174 C 0.33823 0.2594 0.98235 0.0
C2175 C 0.30086 0.23921 0.9524 0.0
N2176 N 0.37232 0.27301 0.93285 0.0
N2177 N 0.31736 0.2471 0.93114 0.0
H2178 H 0.72809 0.12232 0.93166 0.0
H2179 H 0.78215 0.05787 0.9435 0.0
H2180 H 0.73871 0.09607 0.83832 0.0
H2181 H 0.76233 0.07545 0.03757 0.0
H2182 H 0.768 0.07297 0.90538 0.0
H2183 H 0.74195 0.10693 0.96979 0.0
C2184 C 0.7334 0.11337 0.91883 0.0
C2185 C 0.7321 0.1107 0.88109 0.0
C2186 C 0.76668 0.07359 0.93428 0.0
C2187 C 0.74837 0.09268 0.92599 0.0
C2188 C 0.77488 0.06496 0.95647 0.0
C2189 C 0.77366 0.06527 0.99442 0.0
C2190 C 0.7571 0.083 0.94954 0.0
C2191 C 0.76379 0.07473 1.00874 0.0
C2192 C 0.74132 0.10448 0.94104 0.0
C2193 C 0.73934 0.09876 0.86697 0.0
N2194 N 0.75603 0.08323 0.9864 0.0
N2195 N 0.74716 0.0903 0.88931 0.0
H2196 H 0.93965 0.69318 0.04225 0.0
H2197 H 0.91744 0.64958 0.83862 0.0
H2198 H 0.95408 0.72966 0.94727 0.0
H2199 H 0.89428 0.61308 0.93333 0.0
H2200 H 0.93203 0.67911 0.87782 0.0
H2201 H 0.92406 0.66359 1.00316 0.0
C2202 C 0.93953 0.69507 1.01342 0.0
C2203 C 0.94828 0.71421 0.99851 0.0
C2204 C 0.92368 0.66459 0.88996 0.0
C2205 C 0.93054 0.68018 0.95309 0.0
C2206 C 0.91527 0.64768 0.86743 0.0
C2207 C 0.90443 0.62856 0.88222 0.0
C2208 C 0.92147 0.66253 0.92781 0.0
C2209 C 0.9024 0.62733 0.92016 0.0
C2210 C 0.93063 0.67813 0.99095 0.0
C2211 C 0.9476 0.71542 0.96055 0.0
N2212 N 0.9108 0.64385 0.94132 0.0
N2213 N 0.93908 0.69888 0.9395 0.0
H2214 H 0.29141 0.40004 0.61547 0.0
H2215 H 0.23437 0.28174 0.60001 0.0
H2216 H 0.27802 0.36211 0.70817 0.0
H2217 H 0.25696 0.32021 0.5076 0.0
H2218 H 0.2486 0.31052 0.6393 0.0
H2219 H 0.27743 0.3712 0.57659 0.0
C2220 C 0.28546 0.38563 0.62798 0.0
C2221 C 0.28603 0.38382 0.66576 0.0
C2222 C 0.25051 0.31278 0.6105 0.0
C2223 C 0.26963 0.35003 0.62003 0.0
C2224 C 0.24229 0.29625 0.58769 0.0
C2225 C 0.24427 0.29826 0.54987 0.0
C2226 C 0.26087 0.33191 0.59596 0.0
C2227 C 0.25492 0.3177 0.53631 0.0
C2228 C 0.27748 0.36905 0.60536 0.0
C2229 C 0.27798 0.36447 0.6795 0.0
N2230 N 0.26268 0.33365 0.55922 0.0
N2231 N 0.27012 0.34843 0.65674 0.0
H2232 H 0.73471 0.95357 0.59575 0.0
H2233 H 0.61642 0.89077 0.61246 0.0
H2234 H 0.69622 0.93646 0.5034 0.0
H2235 H 0.6545 0.91623 0.70446 0.0
H2236 H 0.64521 0.9054 0.57317 0.0
H2237 H 0.70597 0.93847 0.6351 0.0
C2238 C 0.72021 0.94658 0.58341 0.0
C2239 C 0.71822 0.94644 0.54557 0.0
C2240 C 0.6474 0.90782 0.60188 0.0
C2241 C 0.68454 0.9287 0.59189 0.0
C2242 C 0.63085 0.89937 0.62474 0.0
C2243 C 0.6327 0.90211 0.66245 0.0
C2244 C 0.66644 0.91924 0.61621 0.0
C2245 C 0.65209 0.91351 0.67587 0.0
C2246 C 0.70368 0.93793 0.60631 0.0
C2247 C 0.69874 0.93704 0.5321 0.0
N2248 N 0.66808 0.92158 0.65288 0.0
N2249 N 0.68278 0.92856 0.55513 0.0
H2250 H 0.1213 0.72411 0.6097 0.0
H2251 H 0.0597 0.78118 0.59882 0.0
H2252 H 0.09652 0.73627 0.7035 0.0
H2253 H 0.0758 0.76013 0.50456 0.0
H2254 H 0.07452 0.76666 0.63673 0.0
H2255 H 0.10655 0.7387 0.57179 0.0
C2256 C 0.11281 0.72991 0.62267 0.0
C2257 C 0.11035 0.72882 0.66047 0.0
C2258 C 0.07489 0.76516 0.60782 0.0
C2259 C 0.09308 0.74594 0.61585 0.0
C2260 C 0.06642 0.77357 0.58576 0.0
C2261 C 0.06636 0.77208 0.54783 0.0
C2262 C 0.08376 0.75508 0.59244 0.0
C2263 C 0.0754 0.76183 0.53338 0.0
C2264 C 0.10428 0.73826 0.6006 0.0
C2265 C 0.09901 0.73671 0.67479 0.0
N2266 N 0.08372 0.75383 0.5556 0.0
N2267 N 0.0909 0.74492 0.65258 0.0
H2268 H 0.65438 0.74032 0.20638 0.0
H2269 H 0.69982 0.76476 1.00377 0.0
H2270 H 0.61889 0.72906 0.11098 0.0
H2271 H 0.73552 0.78566 0.09961 0.0
H2272 H 0.66993 0.74976 0.0423 0.0
H2273 H 0.68429 0.75524 0.16788 0.0
C2274 C 0.65278 0.74097 0.17757 0.0
C2275 C 0.63383 0.73338 0.16238 0.0
C2276 C 0.68436 0.75767 0.05483 0.0
C2277 C 0.66822 0.75033 0.11763 0.0
C2278 C 0.70148 0.76626 0.0327 0.0
C2279 C 0.72048 0.77671 0.04801 0.0
C2280 C 0.6861 0.75926 0.09277 0.0
C2281 C 0.72139 0.77794 0.08605 0.0
C2282 C 0.6699 0.7495 0.15544 0.0
C2283 C 0.63298 0.73469 0.12446 0.0
N2284 N 0.70468 0.76939 0.10678 0.0
N2285 N 0.6497 0.74282 0.10373 0.0
H2286 H 0.25191 0.9378 1.00187 0.0
H2287 H 0.27482 0.91477 0.20404 0.0
H2288 H 0.23073 0.95214 0.0981 0.0
H2289 H 0.28603 0.89073 0.10821 0.0
H2290 H 0.26046 0.93041 0.1658 0.0
H2291 H 0.26647 0.92233 0.04006 0.0
C2292 C 0.25026 0.93774 0.0308 0.0
C2293 C 0.23984 0.94632 0.04633 0.0
C2294 C 0.26606 0.92166 0.15321 0.0
C2295 C 0.25678 0.92872 0.09067 0.0
C2296 C 0.27427 0.91269 0.17518 0.0
C2297 C 0.28167 0.90119 0.15979 0.0
C2298 C 0.26539 0.91939 0.11535 0.0
C2299 C 0.28052 0.89927 0.12184 0.0
C2300 C 0.2586 0.92888 0.05274 0.0
C2301 C 0.23842 0.94571 0.08436 0.0
N2302 N 0.2727 0.90822 0.10125 0.0
N2303 N 0.24672 0.93723 0.10489 0.0
H2304 H 0.0949 0.35638 0.20195 0.0
H2305 H 0.07431 0.31309 0.99823 0.0
H2306 H 0.11792 0.39309 0.10743 0.0
H2307 H 0.06023 0.2766 0.09314 0.0
H2308 H 0.08895 0.34263 0.03743 0.0
H2309 H 0.08054 0.32693 0.1626 0.0
C2310 C 0.097 0.35834 0.17313 0.0
C2311 C 0.10782 0.37748 0.15842 0.0
C2312 C 0.08267 0.32811 0.04959 0.0
C2313 C 0.09115 0.34363 0.11273 0.0
C2314 C 0.07431 0.3112 0.02708 0.0
C2315 C 0.06596 0.29209 0.04196 0.0
C2316 C 0.08257 0.32603 0.08744 0.0
C2317 C 0.06644 0.29084 0.07992 0.0
C2318 C 0.08878 0.34148 0.15053 0.0
C2319 C 0.10985 0.37881 0.1205 0.0
N2320 N 0.07443 0.30735 0.10102 0.0
N2321 N 0.10165 0.36233 0.09928 0.0
H2322 H 0.78997 0.73297 0.44933 0.0
H2323 H 0.72674 0.61471 0.43343 0.0
H2324 H 0.76329 0.69511 0.54143 0.0
H2325 H 0.74503 0.65321 0.3408 0.0
H2326 H 0.74133 0.64348 0.47266 0.0
H2327 H 0.77538 0.70415 0.41033 0.0
C2328 C 0.7811 0.71858 0.4617 0.0
C2329 C 0.77804 0.7168 0.49936 0.0
C2330 C 0.74222 0.64576 0.44383 0.0
C2331 C 0.76095 0.68302 0.45344 0.0
C2332 C 0.73388 0.62922 0.42102 0.0
C2333 C 0.73454 0.63121 0.38314 0.0
C2334 C 0.75166 0.6649 0.42927 0.0
C2335 C 0.74406 0.65068 0.36954 0.0
C2336 C 0.77266 0.70201 0.43899 0.0
C2337 C 0.76625 0.69747 0.51288 0.0
N2338 N 0.75225 0.66665 0.39247 0.0
N2339 N 0.75823 0.68144 0.49005 0.0
H2340 H 0.31654 0.07409 0.54279 0.0
H2341 H 0.35882 0.09333 0.33804 0.0
H2342 H 0.27953 0.05928 0.44866 0.0
H2343 H 0.39603 0.11651 0.43168 0.0
H2344 H 0.32955 0.07966 0.37801 0.0
H2345 H 0.34589 0.08878 0.50291 0.0
C2346 C 0.31449 0.07399 0.51398 0.0
C2347 C 0.29528 0.06534 0.49953 0.0
C2348 C 0.34416 0.0878 0.38975 0.0
C2349 C 0.32902 0.08199 0.45322 0.0
C2350 C 0.36093 0.09565 0.36677 0.0
C2351 C 0.38017 0.10626 0.38104 0.0
C2352 C 0.3465 0.09035 0.42749 0.0
C2353 C 0.38168 0.10856 0.41891 0.0
C2354 C 0.3313 0.08234 0.49106 0.0
C2355 C 0.29385 0.06567 0.46157 0.0
N2356 N 0.3653 0.10071 0.44048 0.0
N2357 N 0.31026 0.07366 0.44008 0.0
H2358 H 0.91983 0.27052 0.33451 0.0
H2359 H 0.94247 0.24888 0.5378 0.0
H2360 H 0.89844 0.2855 0.42972 0.0
H2361 H 0.9549 0.22527 0.4427 0.0
H2362 H 0.92773 0.26389 0.49889 0.0
H2363 H 0.93432 0.25532 0.37351 0.0
C2364 C 0.9181 0.27063 0.36339 0.0
C2365 C 0.9077 0.27935 0.3784 0.0
C2366 C 0.93368 0.25537 0.48662 0.0
C2367 C 0.92455 0.26207 0.42368 0.0
C2368 C 0.9421 0.24675 0.50897 0.0
C2369 C 0.94999 0.2356 0.49396 0.0
C2370 C 0.93326 0.25304 0.4488 0.0
C2371 C 0.94904 0.23359 0.45604 0.0
C2372 C 0.92641 0.26194 0.3858 0.0
C2373 C 0.90616 0.27898 0.4164 0.0
N2374 N 0.94101 0.24217 0.43509 0.0
N2375 N 0.91444 0.27065 0.4374 0.0
H2376 H 0.06754 0.61417 0.26077 0.0
H2377 H 0.94944 0.56179 0.27741 0.0
H2378 H 0.02979 0.60422 0.16916 0.0
H2379 H 0.98779 0.58104 0.37004 0.0
H2380 H 0.97822 0.57552 0.23817 0.0
H2381 H 0.03877 0.6006 0.30009 0.0
C2382 C 0.05318 0.60906 0.24857 0.0
C2383 C 0.05142 0.61049 0.21096 0.0
C2384 C 0.98048 0.57681 0.267 0.0
C2385 C 0.01771 0.59456 0.25723 0.0
C2386 C 0.96392 0.56886 0.28983 0.0
C2387 C 0.96586 0.57004 0.32772 0.0
C2388 C 0.9996 0.5861 0.28152 0.0
C2389 C 0.98531 0.57963 0.34129 0.0
C2390 C 0.03665 0.6013 0.27146 0.0
C2391 C 0.03213 0.60347 0.19767 0.0
N2392 N 1.00131 0.58716 0.31832 0.0
N2393 N 0.01615 0.59583 0.22066 0.0
H2394 H 0.39758 0.45269 0.26527 0.0
H2395 H 0.45589 0.3924 0.27623 0.0
H2396 H 0.41043 0.42857 0.17136 0.0
H2397 H 0.43323 0.40693 0.37025 0.0
H2398 H 0.44123 0.40706 0.23823 0.0
H2399 H 0.41214 0.43792 0.30315 0.0
C2400 C 0.40353 0.44434 0.25228 0.0
C2401 C 0.40264 0.44206 0.21447 0.0
C2402 C 0.43941 0.40711 0.26711 0.0
C2403 C 0.41972 0.42479 0.25903 0.0
C2404 C 0.44789 0.39874 0.28921 0.0
C2405 C 0.446 0.39832 0.32709 0.0
C2406 C 0.42887 0.4155 0.28242 0.0
C2407 C 0.43525 0.40684 0.34147 0.0
C2408 C 0.41185 0.4358 0.27433 0.0
C2409 C 0.41071 0.4309 0.20009 0.0
N2410 N 0.42721 0.41509 0.31922 0.0
N2411 N 0.41891 0.42278 0.22229 0.0
H2412 H 0.60857 0.03002 0.37591 0.0
H2413 H 0.58943 0.98689 0.17199 0.0
H2414 H 0.62308 0.06655 0.28098 0.0
H2415 H 0.56626 0.95005 0.2663 0.0
H2416 H 0.60342 0.0163 0.21144 0.0
H2417 H 0.59439 1.00051 0.33662 0.0
C2418 C 0.60876 0.03193 0.34704 0.0
C2419 C 0.61709 0.05106 0.3322 0.0
C2420 C 0.59524 1.00173 0.22344 0.0
C2421 C 0.60101 0.01714 0.28659 0.0
C2422 C 0.58723 0.98489 0.20078 0.0
C2423 C 0.57646 0.96572 0.21539 0.0
C2424 C 0.5927 0.99955 0.26122 0.0
C2425 C 0.57429 0.96435 0.25329 0.0
C2426 C 0.60067 0.01504 0.32447 0.0
C2427 C 0.61687 0.05231 0.2942 0.0
N2428 N 0.58228 0.98081 0.27457 0.0
N2429 N 0.60913 0.03582 0.27305 0.0
H2430 H 0.42587 0.02185 0.86694 0.0
H2431 H 0.40549 0.97861 0.66305 0.0
H2432 H 0.44651 0.05875 0.77229 0.0
H2433 H 0.39369 0.94239 0.75778 0.0
H2434 H 0.41912 0.00811 0.70231 0.0
H2435 H 0.41233 0.99244 0.82753 0.0
C2436 C 0.42759 0.02386 0.83808 0.0
C2437 C 0.43754 0.04305 0.82335 0.0
C2438 C 0.41356 0.99366 0.71442 0.0
C2439 C 0.42182 0.00922 0.77759 0.0
C2440 C 0.40579 0.97677 0.69187 0.0
C2441 C 0.39838 0.95774 0.70667 0.0
C2442 C 0.41382 0.99164 0.75225 0.0
C2443 C 0.39918 0.95657 0.7446 0.0
C2444 C 0.41985 0.00702 0.81544 0.0
C2445 C 0.43913 0.04444 0.78538 0.0
N2446 N 0.40659 0.97305 0.76574 0.0
N2447 N 0.43142 0.02797 0.76413 0.0
H2448 H 0.95158 0.39029 0.77878 0.0
H2449 H 0.06992 0.44809 0.763 0.0
H2450 H 0.98964 0.40369 0.8711 0.0
H2451 H 0.03174 0.426 0.67035 0.0
H2452 H 0.04107 0.43368 0.80212 0.0
H2453 H 0.98042 0.40469 0.73965 0.0
C2454 C 0.96601 0.39632 0.79116 0.0
C2455 C 0.96786 0.39565 0.82891 0.0
C2456 C 0.03887 0.43193 0.77331 0.0
C2457 C 1.00164 0.41253 0.78288 0.0
C2458 C 0.05546 0.44026 0.75055 0.0
C2459 C 0.05358 0.43844 0.7127 0.0
C2460 C 0.01979 0.42159 0.75873 0.0
C2461 C 0.03417 0.42795 0.69907 0.0
C2462 C 0.98259 0.40455 0.76839 0.0
C2463 C 0.98724 0.4038 0.84246 0.0
N2464 N 0.01814 0.42002 0.72196 0.0
N2465 N 1.00326 0.4119 0.81957 0.0
H2466 H 0.56414 0.6213 0.76175 0.0
H2467 H 0.61835 0.55716 0.77947 0.0
H2468 H 0.58481 0.60314 0.6696 0.0
H2469 H 0.60658 0.58378 0.87089 0.0
H2470 H 0.60426 0.57178 0.7399 0.0
H2471 H 0.57756 0.60607 0.80129 0.0
C2472 C 0.57145 0.61405 0.74949 0.0
C2473 C 0.57316 0.61365 0.71165 0.0
C2474 C 0.60466 0.57445 0.76854 0.0
C2475 C 0.58885 0.59576 0.75819 0.0
C2476 C 0.6127 0.566 0.79155 0.0
C2477 C 0.61383 0.56909 0.82917 0.0
C2478 C 0.59733 0.58621 0.78266 0.0
C2479 C 0.60607 0.58077 0.84238 0.0
C2480 C 0.57921 0.60533 0.7725 0.0
C2481 C 0.58299 0.60394 0.69829 0.0
N2482 N 0.59821 0.58884 0.81926 0.0
N2483 N 0.59035 0.59539 0.72143 0.0
H2484 H 0.30568 0.39873 0.09224 0.0
H2485 H 0.24923 0.28234 0.12077 0.0
H2486 H 0.30008 0.36985 0.19418 0.0
H2487 H 0.26768 0.31122 1.01756 0.0
H2488 H 0.25849 0.31416 0.14844 0.0
H2489 H 0.2826 0.36678 0.06577 0.0
C2490 C 0.29947 0.38567 0.10913 0.0
C2491 C 0.30529 0.38678 0.14516 0.0
C2492 C 0.26023 0.31349 0.11965 0.0
C2493 C 0.27874 0.35034 0.11521 0.0
C2494 C 0.25511 0.29539 0.10391 0.0
C2495 C 0.25836 0.29435 0.06706 0.0
C2496 C 0.26872 0.33063 0.09836 0.0
C2497 C 0.26521 0.31149 0.04614 0.0
C2498 C 0.28619 0.36749 0.09407 0.0
C2499 C 0.29617 0.36958 0.1662 0.0
N2500 N 0.27052 0.32906 0.06223 0.0
N2501 N 0.28359 0.35195 0.15072 0.0
H2502 H 0.61683 0.91125 0.08532 0.0
H2503 H 0.73265 0.96805 0.11427 0.0
H2504 H 0.64582 0.92855 0.18845 0.0
H2505 H 0.70412 0.96106 1.01174 0.0
H2506 H 0.701 0.94366 0.1403 0.0
H2507 H 0.64837 0.91942 0.0575 0.0
C2508 C 0.62983 0.91661 0.10214 0.0
C2509 C 0.62896 0.91998 0.13899 0.0
C2510 C 0.70169 0.94719 0.11196 0.0
C2511 C 0.66489 0.92909 0.10751 0.0
C2512 C 0.71969 0.96119 0.0972 0.0
C2513 C 0.72069 0.967 0.06121 0.0
C2514 C 0.68462 0.93917 0.0906 0.0
C2515 C 0.70377 0.95716 0.03977 0.0
C2516 C 0.64776 0.9211 0.08631 0.0
C2517 C 0.64596 0.92608 0.15985 0.0
N2518 N 0.68624 0.94398 0.05502 0.0
N2519 N 0.66338 0.93085 0.14367 0.0
H2520 H 0.10575 0.70796 0.09012 0.0
H2521 H 0.04988 0.74341 1.01285 0.0
H2522 H 0.07683 0.70907 0.18818 0.0
H2523 H 0.04203 0.75985 0.11973 0.0
H2524 H 0.07265 0.73351 0.03668 0.0
H2525 H 0.09662 0.73065 0.06258 0.0
C2526 C 0.09745 0.71309 0.10576 0.0
C2527 C 0.09143 0.70628 0.14096 0.0
C2528 C 0.06653 0.73983 0.05498 0.0
C2529 C 0.08021 0.73149 0.10945 0.0
C2530 C 0.05338 0.74536 0.04125 0.0
C2531 C 0.04377 0.75197 0.06449 0.0
C2532 C 0.07012 0.74106 0.09225 0.0
C2533 C 0.04869 0.7542 0.10111 0.0
C2534 C 0.09209 0.7259 0.09 0.0
C2535 C 0.08144 0.71383 0.16077 0.0
N2536 N 0.06131 0.74846 0.11395 0.0
N2537 N 0.07578 0.72579 0.14447 0.0
H2538 H 0.31249 0.26165 0.52203 0.0
H2539 H 0.37488 0.29638 0.34321 0.0
H2540 H 0.28657 0.2488 0.41603 0.0
H2541 H 0.40053 0.30238 0.44848 0.0
H2542 H 0.34243 0.27333 0.36825 0.0
H2543 H 0.34453 0.27085 0.49531 0.0
C2544 C 0.31348 0.26044 0.4932 0.0
C2545 C 0.29702 0.25507 0.47111 0.0
C2546 C 0.3552 0.27945 0.3858 0.0
C2547 C 0.33359 0.26582 0.44028 0.0
C2548 C 0.37373 0.29257 0.37145 0.0
C2549 C 0.39027 0.30176 0.39404 0.0
C2550 C 0.35327 0.27569 0.42299 0.0
C2551 C 0.388 0.29621 0.43041 0.0
C2552 C 0.33178 0.26574 0.4779 0.0
C2553 C 0.29908 0.25363 0.43391 0.0
N2554 N 0.36977 0.28379 0.44391 0.0
N2555 N 0.31713 0.25933 0.41958 0.0
H2556 H 0.75067 0.0498 0.52694 0.0
H2557 H 0.71923 0.08327 0.34953 0.0
H2558 H 0.76302 0.03798 0.41953 0.0
H2559 H 0.70742 0.09572 0.45689 0.0
H2560 H 0.74176 0.07308 0.37454 0.0
H2561 H 0.74129 0.073 0.50206 0.0
C2562 C 0.75167 0.05234 0.49819 0.0
C2563 C 0.75698 0.04157 0.47511 0.0
C2564 C 0.73443 0.07829 0.39261 0.0
C2565 C 0.74619 0.06778 0.44645 0.0
C2566 C 0.72163 0.08412 0.37831 0.0
C2567 C 0.71104 0.08971 0.40131 0.0
C2568 C 0.73648 0.07797 0.43013 0.0
C2569 C 0.71475 0.09075 0.43837 0.0
C2570 C 0.7463 0.06552 0.48395 0.0
C2571 C 0.75825 0.04545 0.43808 0.0
N2572 N 0.72695 0.08462 0.45172 0.0
N2573 N 0.75258 0.05804 0.42481 0.0
H2574 H 0.93216 0.64013 0.34859 0.0
H2575 H 0.96216 0.70146 0.52831 0.0
H2576 H 0.91446 0.61382 0.454 0.0
H2577 H 0.97447 0.72762 0.42241 0.0
H2578 H 0.93864 0.66958 0.50182 0.0
H2579 H 0.94134 0.67229 0.3745 0.0
C2580 C 0.92986 0.64107 0.37707 0.0
C2581 C 0.92321 0.62446 0.3994 0.0
C2582 C 0.94627 0.68236 0.48441 0.0
C2583 C 0.93396 0.66114 0.42935 0.0
C2584 C 0.95966 0.70052 0.49956 0.0
C2585 C 0.97071 0.71694 0.47734 0.0
C2586 C 0.9441 0.68071 0.44682 0.0
C2587 C 0.96683 0.71508 0.4403 0.0
C2588 C 0.93516 0.65943 0.39192 0.0
C2589 C 0.92034 0.62644 0.43609 0.0
N2590 N 0.95407 0.69719 0.4261 0.0
N2591 N 0.9261 0.64455 0.45008 0.0
H2592 H 0.74806 0.70854 0.04048 0.0
H2593 H 0.6809 0.62925 0.94706 0.0
H2594 H 0.7717 0.72972 0.93447 0.0
H2595 H 0.72849 0.63711 0.87668 0.0
H2596 H 0.70389 0.65867 0.97963 0.0
H2597 H 0.73251 0.67452 1.01808 0.0
C2598 C 0.75037 0.70596 1.01275 0.0
C2599 C 0.76055 0.72177 0.98888 0.0
C2600 C 0.7094 0.65367 0.9576 0.0
C2601 C 0.7426 0.6834 0.96313 0.0
C2602 C 0.69623 0.63693 0.93871 0.0
C2603 C 0.70278 0.63044 0.90932 0.0
C2604 C 0.72921 0.66429 0.94667 0.0
C2605 C 0.72275 0.6416 0.899 0.0
C2606 C 0.74136 0.68666 0.99993 0.0
C2607 C 0.76334 0.71778 0.95326 0.0
N2608 N 0.73528 0.65822 0.91746 0.0
N2609 N 0.75408 0.69889 0.94117 0.0
H2610 H 0.39773 0.09719 0.95765 0.0
H2611 H 0.28168 0.04742 0.93228 0.0
H2612 H 0.36757 0.08059 0.85545 0.0
H2613 H 0.31044 0.04859 0.03211 0.0
H2614 H 0.31388 0.07047 0.90631 0.0
H2615 H 0.36679 0.09018 0.9866 0.0
C2616 C 0.38463 0.09219 0.94125 0.0
C2617 C 0.38499 0.08873 0.90429 0.0
C2618 C 0.31308 0.06597 0.93411 0.0
C2619 C 0.34978 0.0811 0.9371 0.0
C2620 C 0.29476 0.05272 0.94887 0.0
C2621 C 0.29354 0.04554 0.98395 0.0
C2622 C 0.33023 0.07198 0.95461 0.0
C2623 C 0.31079 0.05351 1.00478 0.0
C2624 C 0.36705 0.0884 0.95775 0.0
C2625 C 0.36784 0.08315 0.88408 0.0
N2626 N 0.32854 0.06604 0.98952 0.0
N2627 N 0.35079 0.07914 0.90089 0.0
H2628 H 0.97189 0.242 0.9184 0.0
H2629 H 0.91365 0.2995 0.95298 0.0
H2630 H 0.96258 0.25993 0.02294 0.0
H2631 H 0.93295 0.29151 0.84871 0.0
H2632 H 0.92209 0.27578 0.97835 0.0
H2633 H 0.94849 0.25074 0.89269 0.0
C2634 C 0.96479 0.24767 0.93596 0.0
C2635 C 0.96963 0.25096 0.97258 0.0
C2636 C 0.92417 0.27896 0.9498 0.0
C2637 C 0.9428 0.26077 0.94353 0.0
C2638 C 0.91951 0.29258 0.93538 0.0
C2639 C 0.92331 0.29793 0.89899 0.0
C2640 C 0.93281 0.27078 0.92765 0.0
C2641 C 0.9301 0.28798 0.87701 0.0
C2642 C 0.95133 0.25249 0.92135 0.0
C2643 C 0.95944 0.25751 0.99447 0.0
N2644 N 0.93504 0.27513 0.89186 0.0
N2645 N 0.94674 0.26259 0.97946 0.0
H2646 H 0.733 0.76607 0.62264 0.0
H2647 H 0.61772 0.70725 0.5856 0.0
H2648 H 0.70679 0.74858 0.51738 0.0
H2649 H 0.64401 0.71739 0.69103 0.0
H2650 H 0.64996 0.73068 0.56034 0.0
H2651 H 0.70057 0.75682 0.64761 0.0
C2652 C 0.72038 0.76039 0.60478 0.0
C2653 C 0.72232 0.75739 0.56816 0.0
C2654 C 0.64865 0.72802 0.58908 0.0
C2655 C 0.68534 0.74695 0.59635 0.0
C2656 C 0.63032 0.71455 0.60343 0.0
C2657 C 0.62848 0.70996 0.64021 0.0
C2658 C 0.66523 0.73678 0.61169 0.0
C2659 C 0.64497 0.72036 0.66245 0.0
C2660 C 0.70193 0.75527 0.61896 0.0
C2661 C 0.70577 0.75079 0.54585 0.0
N2662 N 0.66282 0.73305 0.6477 0.0
N2663 N 0.68782 0.7454 0.56045 0.0
H2664 H 0.30188 0.92835 0.7008 0.0
H2665 H 0.28268 0.99564 0.62274 0.0
H2666 H 0.30564 0.91359 0.59038 0.0
H2667 H 0.25171 0.95234 0.53938 0.0
H2668 H 0.29118 0.97307 0.65091 0.0
H2669 H 0.28196 0.943 0.68154 0.0
C2670 C 0.29821 0.92792 0.67262 0.0
C2671 C 0.30582 0.92037 0.64691 0.0
C2672 C 0.28205 0.96829 0.627 0.0
C2673 C 0.28369 0.93734 0.62478 0.0
C2674 C 0.27725 0.98128 0.61055 0.0
C2675 C 0.2662 0.97595 0.57856 0.0
C2676 C 0.27613 0.94991 0.61114 0.0
C2677 C 0.26036 0.95725 0.56375 0.0
C2678 C 0.28707 0.93641 0.66163 0.0
C2679 C 0.30055 0.91993 0.61075 0.0
N2680 N 0.26567 0.94498 0.57993 0.0
N2681 N 0.28995 0.92858 0.60059 0.0
H2682 H 0.05256 0.30587 0.51046 0.0
H2683 H 0.08586 0.36745 0.69031 0.0
H2684 H 0.04535 0.2795 0.61553 0.0
H2685 H 0.09879 0.39353 0.58435 0.0
H2686 H 0.07659 0.33535 0.66343 0.0
H2687 H 0.07527 0.33811 0.53623 0.0
C2688 C 0.05602 0.30681 0.53882 0.0
C2689 C 0.04658 0.29013 0.5611 0.0
C2690 C 0.08173 0.34816 0.64609 0.0
C2691 C 0.07221 0.32692 0.59093 0.0
C2692 C 0.08702 0.36644 0.66146 0.0
C2693 C 0.09246 0.38292 0.63938 0.0
C2694 C 0.08182 0.34648 0.60844 0.0
C2695 C 0.09391 0.38097 0.60218 0.0
C2696 C 0.06894 0.32523 0.5536 0.0
C2697 C 0.0517 0.29215 0.59766 0.0
N2698 N 0.08832 0.36299 0.58781 0.0
N2699 N 0.0639 0.3103 0.61159 0.0
H2700 H 0.0672 0.63157 0.77916 0.0
H2701 H 0.95163 0.58378 0.75051 0.0
H2702 H 0.03989 0.62791 0.67657 0.0
H2703 H 0.98141 0.60138 0.85301 0.0
H2704 H 0.98252 0.58998 0.72258 0.0
H2705 H 0.03461 0.60984 0.80512 0.0
C2706 C 0.05428 0.6259 0.76205 0.0
C2707 C 0.05597 0.63196 0.7261 0.0
C2708 C 0.98219 0.59221 0.75126 0.0
C2709 C 0.01887 0.60733 0.75539 0.0
C2710 C 0.96466 0.58894 0.76717 0.0
C2711 C 0.96417 0.59277 0.80395 0.0
C2712 C 0.99929 0.59933 0.77232 0.0
C2713 C 0.98122 0.59851 0.82452 0.0
C2714 C 0.03575 0.61348 0.77677 0.0
C2715 C 0.03902 0.62375 0.70457 0.0
N2716 N 0.99821 0.60191 0.80829 0.0
N2717 N 0.02101 0.61214 0.71979 0.0
H2718 H 0.43626 0.37362 0.75013 0.0
H2719 H 0.3786 0.43133 0.78947 0.0
H2720 H 0.4203 0.38331 0.85618 0.0
H2721 H 0.38817 0.41528 0.68344 0.0
H2722 H 0.40154 0.42165 0.81403 0.0
H2723 H 0.42657 0.39653 0.72547 0.0
C2724 C 0.4308 0.3807 0.76822 0.0
C2725 C 0.42843 0.37616 0.80504 0.0
C2726 C 0.39885 0.42049 0.78532 0.0
C2727 C 0.41748 0.4024 0.77718 0.0
C2728 C 0.38566 0.42585 0.77136 0.0
C2729 C 0.38108 0.42345 0.73459 0.0
C2730 C 0.40735 0.41251 0.76233 0.0
C2731 C 0.39116 0.41707 0.71201 0.0
C2732 C 0.42543 0.39387 0.7542 0.0
C2733 C 0.42207 0.38626 0.82758 0.0
N2734 N 0.40359 0.41144 0.72637 0.0
N2735 N 0.41644 0.39868 0.81317 0.0
H2736 H 0.63862 0.04124 0.87009 0.0
H2737 H 0.62578 0.96127 0.77621 0.0
H2738 H 0.63559 0.06254 0.7645 0.0
H2739 H 0.58512 0.96907 0.70847 0.0
H2740 H 0.63356 0.99146 0.80765 0.0
H2741 H 0.62099 0.00732 0.84719 0.0
C2742 C 0.63382 0.03871 0.84233 0.0
C2743 C 0.63895 0.05457 0.81879 0.0
C2744 C 0.62261 0.98632 0.78641 0.0
C2745 C 0.61944 0.01626 0.79247 0.0
C2746 C 0.61823 0.96912 0.76821 0.0
C2747 C 0.60446 0.96234 0.74 0.0
C2748 C 0.61346 0.99707 0.77598 0.0
C2749 C 0.59585 0.97374 0.72996 0.0
C2750 C 0.62402 0.01946 0.82922 0.0
C2751 C 0.63235 0.0506 0.78308 0.0
N2752 N 0.60067 0.99076 0.74778 0.0
N2753 N 0.6231 0.03174 0.77074 0.0
H2754 H 0.43305 0.04201 0.33836 0.0
H2755 H 0.38274 0.9451 0.27237 0.0
H2756 H 0.39226 0.04685 0.26608 0.0
H2757 H 0.37634 0.9719 0.1756 0.0
H2758 H 0.40149 0.97789 0.29951 0.0
H2759 H 0.42591 0.01117 0.30845 0.0
C2760 C 0.42251 0.03657 0.3165 0.0
C2761 C 0.41319 0.04705 0.30483 0.0
C2762 C 0.39664 0.97668 0.27189 0.0
C2763 C 0.40532 0.01218 0.27034 0.0
C2764 C 0.3858 0.958 0.25655 0.0
C2765 C 0.37772 0.95591 0.22206 0.0
C2766 C 0.39913 0.99322 0.25253 0.0
C2767 C 0.38226 0.97294 0.20232 0.0
C2768 C 0.41857 0.01906 0.29934 0.0
C2769 C 0.40004 0.03953 0.27576 0.0
N2770 N 0.39226 0.99092 0.21823 0.0
N2771 N 0.39656 0.0226 0.2595 0.0
H2772 H 0.06645 0.4296 0.28946 0.0
H2773 H 0.95074 0.37552 0.2577 0.0
H2774 H 0.03826 0.41376 0.18547 0.0
H2775 H 0.97811 0.38193 0.36128 0.0
H2776 H 0.98297 0.39879 0.23217 0.0
H2777 H 0.03477 0.42141 0.31668 0.0
C2778 C 0.0536 0.42451 0.27233 0.0
C2779 C 0.05475 0.42165 0.23534 0.0
C2780 C 0.98191 0.39537 0.26061 0.0
C2781 C 0.01866 0.41255 0.26616 0.0
C2782 C 0.96358 0.38201 0.27509 0.0
C2783 C 0.96203 0.37638 0.31129 0.0
C2784 C 0.99878 0.40292 0.28247 0.0
C2785 C 0.97885 0.38572 0.3331 0.0
C2786 C 0.03559 0.42003 0.28783 0.0
C2787 C 0.03791 0.41588 0.21415 0.0
N2788 N 0.99669 0.39828 0.31815 0.0
N2789 N 0.02042 0.41115 0.22998 0.0
H2790 H 0.57582 0.63187 0.27494 0.0
H2791 H 0.61841 0.5777 0.33772 0.0
H2792 H 0.60454 0.63425 0.1744 0.0
H2793 H 0.66199 0.6138 0.25782 0.0
H2794 H 0.59473 0.58518 0.30872 0.0
H2795 H 0.58773 0.61074 0.2998 0.0
C2796 C 0.58422 0.62746 0.25786 0.0
C2797 C 0.5897 0.63514 0.22296 0.0
C2798 C 0.60951 0.59136 0.29768 0.0
C2799 C 0.60309 0.61088 0.2508 0.0
C2800 C 0.62309 0.58721 0.3143 0.0
C2801 C 0.64241 0.59529 0.30057 0.0
C2802 C 0.61535 0.60358 0.26714 0.0
C2803 C 0.64736 0.60704 0.26945 0.0
C2804 C 0.5908 0.61521 0.27189 0.0
C2805 C 0.60018 0.62874 0.20153 0.0
N2806 N 0.63393 0.61083 0.25392 0.0
N2807 N 0.60703 0.61738 0.21616 0.0
loop_
_geom_bond_atom_site_label_1
_geom_bond_atom_site_label_2
_geom_bond_distance
_geom_bond_site_symmetry_2
_ccdc_geom_bond_type
C0 C1 1.351 . S
C0 N3 1.368 . S
C0 H5 0.931 . S
C1 C0 1.351 . S
C1 N2 1.373 . S
C1 H29 0.930 . S
N2 C1 1.373 . S
N2 C4 1.340 . S
N3 C0 1.368 . S
N3 C4 1.321 . S
N3 Co6 2.135 . S
C4 N2 1.340 . S
C4 N3 1.321 . S
C4 H28 0.930 . S
H5 C0 0.931 . S
Co6 N3 2.135 . S
Co6 N9 2.121 . S
Co6 O14 2.055 . S
Co6 O17 2.039 . S
Co6 N20 2.140 . S
C7 O8 1.227 . S
C7 O17 1.265 . S
O8 C7 1.227 . S
N9 Co6 2.121 . S
N9 C11 1.375 . S
N9 C12 1.313 . S
C10 C11 1.338 . S
C10 N13 1.377 . S
C10 H30 0.930 . S
C11 N9 1.375 . S
C11 C10 1.338 . S
C11 H15 0.931 . S
C12 N9 1.313 . S
C12 N13 1.344 . S
C12 H16 0.930 . S
N13 C10 1.377 . S
N13 C12 1.344 . S
O14 Co6 2.055 . S
O14 C18 1.253 1_554 S
H15 C11 0.931 . S
H16 C12 0.930 . S
O17 Co6 2.039 . S
O17 C7 1.265 . S
C18 O14 1.253 1_556 S
C18 O19 1.227 . S
O19 C18 1.227 . S
N20 Co6 2.140 . S
N20 C23 1.346 . S
N20 C24 1.345 . S
C21 C22 1.387 . S
C21 C25 1.391 1_554 S
C22 C21 1.387 . S
C22 C23 1.369 . S
C22 H31 0.929 . S
C23 N20 1.346 . S
C23 C22 1.369 . S
C23 H26 0.928 . S
C24 N20 1.345 . S
C24 C25 1.371 1_554 S
C24 H27 0.931 1_554 S
C25 C21 1.391 1_556 S
C25 C24 1.371 1_556 S
C25 H32 0.930 . S
H26 C23 0.928 . S
H27 C24 0.931 1_556 S
H28 C4 0.930 . S
H29 C1 0.930 . S
H30 C10 0.930 . S
H31 C22 0.929 . S
H32 C25 0.930 . S
C33 C34 1.351 . S
C33 N36 1.371 . S
C33 H38 0.931 . S
C34 C33 1.351 . S
C34 N35 1.373 . S
C34 H62 0.930 . S
N35 C34 1.373 . S
N35 C37 1.340 . S
N36 C33 1.371 . S
N36 C37 1.337 . S
N36 Co39 2.129 1_565 S
C37 N35 1.340 . S
C37 N36 1.337 . S
C37 H61 0.930 . S
H38 C33 0.931 . S
Co39 N36 2.129 1_545 S
Co39 N42 2.121 . S
Co39 O47 2.055 . S
Co39 O50 2.039 . S
Co39 N53 2.140 1_545 S
C40 O41 1.227 1_545 S
C40 O50 1.265 . S
O41 C40 1.227 1_565 S
N42 Co39 2.121 . S
N42 C44 1.375 . S
N42 C45 1.313 . S
C43 C44 1.338 . S
C43 N46 1.377 . S
C43 H63 0.930 . S
C44 N42 1.375 . S
C44 C43 1.338 . S
C44 H48 0.931 . S
C45 N42 1.313 . S
C45 N46 1.344 . S
C45 H49 0.930 . S
N46 C43 1.377 . S
N46 C45 1.344 . S
O47 Co39 2.055 . S
O47 C51 1.253 1_554 S
H48 C44 0.931 . S
H49 C45 0.930 . S
O50 Co39 2.039 . S
O50 C40 1.265 . S
C51 O47 1.253 1_556 S
C51 O52 1.227 . S
O52 C51 1.227 . S
N53 Co39 2.140 1_565 S
N53 C56 1.346 . S
N53 C57 1.345 . S
C54 C55 1.387 . S
C54 C58 1.391 1_554 S
C55 C54 1.387 . S
C55 C56 1.369 . S
C55 H64 0.929 . S
C56 N53 1.346 . S
C56 C55 1.369 . S
C56 H59 0.928 . S
C57 N53 1.345 . S
C57 C58 1.371 1_554 S
C57 H60 0.931 1_564 S
C58 C54 1.391 1_556 S
C58 C57 1.371 1_556 S
C58 H65 0.930 . S
H59 C56 0.928 . S
H60 C57 0.931 1_546 S
H61 C37 0.930 . S
H62 C34 0.930 . S
H63 C43 0.930 . S
H64 C55 0.929 . S
H65 C58 0.930 . S
C66 C67 1.351 . S
C66 N69 1.394 . S
C66 H71 0.931 . S
C67 C66 1.351 . S
C67 N68 1.373 . S
C67 H95 0.930 . S
N68 C67 1.373 . S
N68 C70 1.340 . S
N69 C66 1.394 . S
N69 C70 1.353 . S
N69 Co72 2.091 1_455 S
C70 N68 1.340 . S
C70 N69 1.353 . S
C70 H94 0.930 . S
H71 C66 0.931 . S
Co72 N69 2.091 1_655 S
Co72 N75 2.121 . S
Co72 O80 2.055 . S
Co72 O83 2.039 . S
Co72 N86 2.140 1_655 S
C73 O74 1.227 1_655 S
C73 O83 1.265 . S
O74 C73 1.227 1_455 S
N75 Co72 2.121 . S
N75 C77 1.375 . S
N75 C78 1.313 . S
C76 C77 1.338 . S
C76 N79 1.377 . S
C76 H96 0.930 . S
C77 N75 1.375 . S
C77 C76 1.338 . S
C77 H81 0.931 . S
C78 N75 1.313 . S
C78 N79 1.344 . S
C78 H82 0.930 . S
N79 C76 1.377 . S
N79 C78 1.344 . S
O80 Co72 2.055 . S
O80 C84 1.253 1_554 S
H81 C77 0.931 . S
H82 C78 0.930 . S
O83 Co72 2.039 . S
O83 C73 1.265 . S
C84 O80 1.253 1_556 S
C84 O85 1.227 . S
O85 C84 1.227 . S
N86 Co72 2.140 1_455 S
N86 C89 1.346 . S
N86 C90 1.345 . S
C87 C88 1.387 . S
C87 C91 1.391 1_554 S
C88 C87 1.387 . S
C88 C89 1.369 . S
C88 H97 0.929 . S
C89 N86 1.346 . S
C89 C88 1.369 . S
C89 H92 0.928 . S
C90 N86 1.345 . S
C90 C91 1.371 1_554 S
C90 H93 0.931 1_454 S
C91 C87 1.391 1_556 S
C91 C90 1.371 1_556 S
C91 H98 0.930 . S
H92 C89 0.928 . S
H93 C90 0.931 1_656 S
H94 C70 0.930 . S
H95 C67 0.930 . S
H96 C76 0.930 . S
H97 C88 0.929 . S
H98 C91 0.930 . S
C99 C100 1.351 . S
C99 N102 1.368 . S
C99 H104 0.931 . S
C100 C99 1.351 . S
C100 N101 1.373 . S
C100 H128 0.930 . S
N101 C100 1.373 . S
N101 C103 1.340 . S
N102 C99 1.368 . S
N102 C103 1.321 . S
N102 Co105 2.135 . S
C103 N101 1.340 . S
C103 N102 1.321 . S
C103 H127 0.930 . S
H104 C99 0.931 . S
Co105 N102 2.135 . S
Co105 N108 2.121 . S
Co105 O113 2.055 . S
Co105 O116 2.039 . S
Co105 N119 2.140 . S
C106 O107 1.227 . S
C106 O116 1.265 . S
O107 C106 1.227 . S
N108 Co105 2.121 . S
N108 C110 1.375 . S
N108 C111 1.313 . S
C109 C110 1.338 . S
C109 N112 1.377 . S
C109 H129 0.930 . S
C110 N108 1.375 . S
C110 C109 1.338 . S
C110 H114 0.931 . S
C111 N108 1.313 . S
C111 N112 1.344 . S
C111 H115 0.930 . S
N112 C109 1.377 . S
N112 C111 1.344 . S
O113 Co105 2.055 . S
O113 C117 1.253 . S
H114 C110 0.931 . S
H115 C111 0.930 . S
O116 Co105 2.039 . S
O116 C106 1.265 . S
C117 O113 1.253 . S
C117 O118 1.227 . S
O118 C117 1.227 . S
N119 Co105 2.140 . S
N119 C122 1.346 . S
N119 C123 1.345 . S
C120 C121 1.387 . S
C120 C124 1.391 . S
C121 C120 1.387 . S
C121 C122 1.369 . S
C121 H130 0.929 . S
C122 N119 1.346 . S
C122 C121 1.369 . S
C122 H125 0.928 . S
C123 N119 1.345 . S
C123 C124 1.371 . S
C123 H126 0.931 . S
C124 C120 1.391 . S
C124 C123 1.371 . S
C124 H131 0.930 . S
H125 C122 0.928 . S
H126 C123 0.931 . S
H127 C103 0.930 . S
H128 C100 0.930 . S
H129 C109 0.930 . S
H130 C121 0.929 . S
H131 C124 0.930 . S
C132 C133 1.351 . S
C132 N135 1.394 . S
C132 H137 0.931 . S
C133 C132 1.351 . S
C133 N134 1.373 . S
C133 H161 0.930 . S
N134 C133 1.373 . S
N134 C136 1.340 . S
N135 C132 1.394 . S
N135 C136 1.353 . S
N135 Co138 2.091 1_545 S
C136 N134 1.340 . S
C136 N135 1.353 . S
C136 H160 0.930 . S
H137 C132 0.931 . S
Co138 N135 2.091 1_565 S
Co138 N141 2.121 . S
Co138 O146 2.055 . S
Co138 O149 2.039 . S
Co138 N152 2.140 1_565 S
C139 O140 1.227 1_565 S
C139 O149 1.265 . S
O140 C139 1.227 1_545 S
N141 Co138 2.121 . S
N141 C143 1.375 . S
N141 C144 1.313 . S
C142 C143 1.338 . S
C142 N145 1.377 . S
C142 H162 0.930 . S
C143 N141 1.375 . S
C143 C142 1.338 . S
C143 H147 0.931 . S
C144 N141 1.313 . S
C144 N145 1.344 . S
C144 H148 0.930 . S
N145 C142 1.377 . S
N145 C144 1.344 . S
O146 Co138 2.055 . S
O146 C150 1.253 . S
H147 C143 0.931 . S
H148 C144 0.930 . S
O149 Co138 2.039 . S
O149 C139 1.265 . S
C150 O146 1.253 . S
C150 O151 1.227 . S
O151 C150 1.227 . S
N152 Co138 2.140 1_545 S
N152 C155 1.346 . S
N152 C156 1.345 . S
C153 C154 1.387 . S
C153 C157 1.391 . S
C154 C153 1.387 . S
C154 C155 1.369 . S
C154 H163 0.929 . S
C155 N152 1.346 . S
C155 C154 1.369 . S
C155 H158 0.928 . S
C156 N152 1.345 . S
C156 C157 1.371 . S
C156 H159 0.931 1_545 S
C157 C153 1.391 . S
C157 C156 1.371 . S
C157 H164 0.930 . S
H158 C155 0.928 . S
H159 C156 0.931 1_565 S
H160 C136 0.930 . S
H161 C133 0.930 . S
H162 C142 0.930 . S
H163 C154 0.929 . S
H164 C157 0.930 . S
C165 C166 1.351 . S
C165 N168 1.370 . S
C165 H170 0.931 . S
C166 C165 1.351 . S
C166 N167 1.373 . S
C166 H194 0.930 . S
N167 C166 1.373 . S
N167 C169 1.340 . S
N168 C165 1.370 . S
N168 C169 1.337 . S
N168 Co171 2.129 1_655 S
C169 N167 1.340 . S
C169 N168 1.337 . S
C169 H193 0.930 . S
H170 C165 0.931 . S
Co171 N168 2.129 1_455 S
Co171 N174 2.121 . S
Co171 O179 2.055 . S
Co171 O182 2.039 . S
Co171 N185 2.140 1_455 S
C172 O173 1.227 1_455 S
C172 O182 1.265 . S
O173 C172 1.227 1_655 S
N174 Co171 2.121 . S
N174 C176 1.375 . S
N174 C177 1.313 . S
C175 C176 1.338 . S
C175 N178 1.377 . S
C175 H195 0.930 . S
C176 N174 1.375 . S
C176 C175 1.338 . S
C176 H180 0.931 . S
C177 N174 1.313 . S
C177 N178 1.344 . S
C177 H181 0.930 . S
N178 C175 1.377 . S
N178 C177 1.344 . S
O179 Co171 2.055 . S
O179 C183 1.253 . S
H180 C176 0.931 . S
H181 C177 0.930 . S
O182 Co171 2.039 . S
O182 C172 1.265 . S
C183 O179 1.253 . S
C183 O184 1.227 . S
O184 C183 1.227 . S
N185 Co171 2.140 1_655 S
N185 C188 1.346 . S
N185 C189 1.345 . S
C186 C187 1.387 . S
C186 C190 1.391 . S
C187 C186 1.387 . S
C187 C188 1.369 . S
C187 H196 0.929 . S
C188 N185 1.346 . S
C188 C187 1.369 . S
C188 H191 0.928 . S
C189 N185 1.345 . S
C189 C190 1.371 . S
C189 H192 0.931 1_655 S
C190 C186 1.391 . S
C190 C189 1.371 . S
C190 H197 0.930 . S
H191 C188 0.928 . S
H192 C189 0.931 1_455 S
H193 C169 0.930 . S
H194 C166 0.930 . S
H195 C175 0.930 . S
H196 C187 0.929 . S
H197 C190 0.930 . S
C198 C199 1.351 . S
C198 N201 1.368 . S
C198 H203 0.931 . S
C199 C198 1.351 . S
C199 N200 1.373 . S
C199 H227 0.930 . S
N200 C199 1.373 . S
N200 C202 1.340 . S
N201 C198 1.368 . S
N201 C202 1.321 . S
N201 Co204 2.135 . S
C202 N200 1.340 . S
C202 N201 1.321 . S
C202 H226 0.930 . S
H203 C198 0.931 . S
Co204 N201 2.135 . S
Co204 N207 2.121 . S
Co204 O212 2.055 . S
Co204 O215 2.039 . S
Co204 N218 2.140 . S
C205 O206 1.227 . S
C205 O215 1.265 . S
O206 C205 1.227 . S
N207 Co204 2.121 . S
N207 C209 1.375 . S
N207 C210 1.313 . S
C208 C209 1.338 . S
C208 N211 1.377 . S
C208 H228 0.930 . S
C209 N207 1.375 . S
C209 C208 1.338 . S
C209 H213 0.931 . S
C210 N207 1.313 . S
C210 N211 1.344 . S
C210 H214 0.930 . S
N211 C208 1.377 . S
N211 C210 1.344 . S
O212 Co204 2.055 . S
O212 C216 1.253 1_556 S
H213 C209 0.931 . S
H214 C210 0.930 . S
O215 Co204 2.039 . S
O215 C205 1.265 . S
C216 O212 1.253 1_554 S
C216 O217 1.227 . S
O217 C216 1.227 . S
N218 Co204 2.140 . S
N218 C221 1.346 . S
N218 C222 1.345 . S
C219 C220 1.387 . S
C219 C223 1.391 1_556 S
C220 C219 1.387 . S
C220 C221 1.369 . S
C220 H229 0.929 . S
C221 N218 1.346 . S
C221 C220 1.369 . S
C221 H224 0.928 . S
C222 N218 1.345 . S
C222 C223 1.371 1_556 S
C222 H225 0.931 1_556 S
C223 C219 1.391 1_554 S
C223 C222 1.371 1_554 S
C223 H230 0.930 . S
H224 C221 0.928 . S
H225 C222 0.931 1_554 S
H226 C202 0.930 . S
H227 C199 0.930 . S
H228 C208 0.930 . S
H229 C220 0.929 . S
H230 C223 0.930 . S
C231 C232 1.351 . S
C231 N234 1.371 . S
C231 H236 0.931 . S
C232 C231 1.351 . S
C232 N233 1.373 . S
C232 H260 0.930 . S
N233 C232 1.373 . S
N233 C235 1.340 . S
N234 C231 1.371 . S
N234 C235 1.337 . S
N234 Co237 2.129 1_545 S
C235 N233 1.340 . S
C235 N234 1.337 . S
C235 H259 0.930 . S
H236 C231 0.931 . S
Co237 N234 2.129 1_565 S
Co237 N240 2.121 . S
Co237 O245 2.055 . S
Co237 O248 2.039 . S
Co237 N251 2.140 1_565 S
C238 O239 1.227 1_565 S
C238 O248 1.265 . S
O239 C238 1.227 1_545 S
N240 Co237 2.121 . S
N240 C242 1.375 . S
N240 C243 1.313 . S
C241 C242 1.338 . S
C241 N244 1.377 . S
C241 H261 0.930 . S
C242 N240 1.375 . S
C242 C241 1.338 . S
C242 H246 0.931 . S
C243 N240 1.313 . S
C243 N244 1.344 . S
C243 H247 0.930 . S
N244 C241 1.377 . S
N244 C243 1.344 . S
O245 Co237 2.055 . S
O245 C249 1.253 1_556 S
H246 C242 0.931 . S
H247 C243 0.930 . S
O248 Co237 2.039 . S
O248 C238 1.265 . S
C249 O245 1.253 1_554 S
C249 O250 1.227 . S
O250 C249 1.227 . S
N251 Co237 2.140 1_545 S
N251 C254 1.346 . S
N251 C255 1.345 . S
C252 C253 1.387 . S
C252 C256 1.391 1_556 S
C253 C252 1.387 . S
C253 C254 1.369 . S
C253 H262 0.929 . S
C254 N251 1.346 . S
C254 C253 1.369 . S
C254 H257 0.928 . S
C255 N251 1.345 . S
C255 C256 1.371 1_556 S
C255 H258 0.931 1_546 S
C256 C252 1.391 1_554 S
C256 C255 1.371 1_554 S
C256 H263 0.930 . S
H257 C254 0.928 . S
H258 C255 0.931 1_564 S
H259 C235 0.930 . S
H260 C232 0.930 . S
H261 C241 0.930 . S
H262 C253 0.929 . S
H263 C256 0.930 . S
C264 C265 1.351 . S
C264 N267 1.394 . S
C264 H269 0.931 . S
C265 C264 1.351 . S
C265 N266 1.373 . S
C265 H293 0.930 . S
N266 C265 1.373 . S
N266 C268 1.340 . S
N267 C264 1.394 . S
N267 C268 1.353 . S
N267 Co270 2.091 1_655 S
C268 N266 1.340 . S
C268 N267 1.353 . S
C268 H292 0.930 . S
H269 C264 0.931 . S
Co270 N267 2.091 1_455 S
Co270 N273 2.121 . S
Co270 O278 2.055 . S
Co270 O281 2.039 . S
Co270 N284 2.140 1_455 S
C271 O272 1.227 1_455 S
C271 O281 1.265 . S
O272 C271 1.227 1_655 S
N273 Co270 2.121 . S
N273 C275 1.375 . S
N273 C276 1.313 . S
C274 C275 1.338 . S
C274 N277 1.377 . S
C274 H294 0.930 . S
C275 N273 1.375 . S
C275 C274 1.338 . S
C275 H279 0.931 . S
C276 N273 1.313 . S
C276 N277 1.344 . S
C276 H280 0.930 . S
N277 C274 1.377 . S
N277 C276 1.344 . S
O278 Co270 2.055 . S
O278 C282 1.253 1_556 S
H279 C275 0.931 . S
H280 C276 0.930 . S
O281 Co270 2.039 . S
O281 C271 1.265 . S
C282 O278 1.253 1_554 S
C282 O283 1.227 . S
O283 C282 1.227 . S
N284 Co270 2.140 1_655 S
N284 C287 1.346 . S
N284 C288 1.345 . S
C285 C286 1.387 . S
C285 C289 1.391 1_556 S
C286 C285 1.387 . S
C286 C287 1.369 . S
C286 H295 0.929 . S
C287 N284 1.346 . S
C287 C286 1.369 . S
C287 H290 0.928 . S
C288 N284 1.345 . S
C288 C289 1.371 1_556 S
C288 H291 0.931 1_656 S
C289 C285 1.391 1_554 S
C289 C288 1.371 1_554 S
C289 H296 0.930 . S
H290 C287 0.928 . S
H291 C288 0.931 1_454 S
H292 C268 0.930 . S
H293 C265 0.930 . S
H294 C274 0.930 . S
H295 C286 0.929 . S
H296 C289 0.930 . S
C297 C298 1.351 . S
C297 N300 1.368 . S
C297 H302 0.931 . S
C298 C297 1.351 . S
C298 N299 1.373 . S
C298 H326 0.930 . S
N299 C298 1.373 . S
N299 C301 1.340 . S
N300 C297 1.368 . S
N300 C301 1.321 . S
N300 Co303 2.135 . S
C301 N299 1.340 . S
C301 N300 1.321 . S
C301 H325 0.930 . S
H302 C297 0.931 . S
Co303 N300 2.135 . S
Co303 N306 2.121 . S
Co303 O311 2.055 . S
Co303 O314 2.039 . S
Co303 N317 2.140 . S
C304 O305 1.227 . S
C304 O314 1.265 . S
O305 C304 1.227 . S
N306 Co303 2.121 . S
N306 C308 1.375 . S
N306 C309 1.313 . S
C307 C308 1.338 . S
C307 N310 1.377 . S
C307 H327 0.930 . S
C308 N306 1.375 . S
C308 C307 1.338 . S
C308 H312 0.931 . S
C309 N306 1.313 . S
C309 N310 1.344 . S
C309 H313 0.930 . S
N310 C307 1.377 . S
N310 C309 1.344 . S
O311 Co303 2.055 . S
O311 C315 1.253 . S
H312 C308 0.931 . S
H313 C309 0.930 . S
O314 Co303 2.039 . S
O314 C304 1.265 . S
C315 O311 1.253 . S
C315 O316 1.227 . S
O316 C315 1.227 . S
N317 Co303 2.140 . S
N317 C320 1.346 . S
N317 C321 1.345 . S
C318 C319 1.387 . S
C318 C322 1.391 . S
C319 C318 1.387 . S
C319 C320 1.369 . S
C319 H328 0.929 . S
C320 N317 1.346 . S
C320 C319 1.369 . S
C320 H323 0.928 . S
C321 N317 1.345 . S
C321 C322 1.371 . S
C321 H324 0.931 . S
C322 C318 1.391 . S
C322 C321 1.371 . S
C322 H329 0.930 . S
H323 C320 0.928 . S
H324 C321 0.931 . S
H325 C301 0.930 . S
H326 C298 0.930 . S
H327 C307 0.930 . S
H328 C319 0.929 . S
H329 C322 0.930 . S
C330 C331 1.351 . S
C330 N333 1.394 . S
C330 H335 0.931 . S
C331 C330 1.351 . S
C331 N332 1.373 . S
C331 H359 0.930 . S
N332 C331 1.373 . S
N332 C334 1.340 . S
N333 C330 1.394 . S
N333 C334 1.353 . S
N333 Co336 2.091 1_565 S
C334 N332 1.340 . S
C334 N333 1.353 . S
C334 H358 0.930 . S
H335 C330 0.931 . S
Co336 N333 2.091 1_545 S
Co336 N339 2.121 . S
Co336 O344 2.055 . S
Co336 O347 2.039 . S
Co336 N350 2.140 1_545 S
C337 O338 1.227 1_545 S
C337 O347 1.265 . S
O338 C337 1.227 1_565 S
N339 Co336 2.121 . S
N339 C341 1.375 . S
N339 C342 1.313 . S
C340 C341 1.338 . S
C340 N343 1.377 . S
C340 H360 0.930 . S
C341 N339 1.375 . S
C341 C340 1.338 . S
C341 H345 0.931 . S
C342 N339 1.313 . S
C342 N343 1.344 . S
C342 H346 0.930 . S
N343 C340 1.377 . S
N343 C342 1.344 . S
O344 Co336 2.055 . S
O344 C348 1.253 . S
H345 C341 0.931 . S
H346 C342 0.930 . S
O347 Co336 2.039 . S
O347 C337 1.265 . S
C348 O344 1.253 . S
C348 O349 1.227 . S
O349 C348 1.227 . S
N350 Co336 2.140 1_565 S
N350 C353 1.346 . S
N350 C354 1.345 . S
C351 C352 1.387 . S
C351 C355 1.391 . S
C352 C351 1.387 . S
C352 C353 1.369 . S
C352 H361 0.929 . S
C353 N350 1.346 . S
C353 C352 1.369 . S
C353 H356 0.928 . S
C354 N350 1.345 . S
C354 C355 1.371 . S
C354 H357 0.931 1_565 S
C355 C351 1.391 . S
C355 C354 1.371 . S
C355 H362 0.930 . S
H356 C353 0.928 . S
H357 C354 0.931 1_545 S
H358 C334 0.930 . S
H359 C331 0.930 . S
H360 C340 0.930 . S
H361 C352 0.929 . S
H362 C355 0.930 . S
C363 C364 1.351 . S
C363 N366 1.370 . S
C363 H368 0.931 . S
C364 C363 1.351 . S
C364 N365 1.373 . S
C364 H392 0.930 . S
N365 C364 1.373 . S
N365 C367 1.340 . S
N366 C363 1.370 . S
N366 C367 1.337 . S
N366 Co369 2.129 1_455 S
C367 N365 1.340 . S
C367 N366 1.337 . S
C367 H391 0.930 . S
H368 C363 0.931 . S
Co369 N366 2.129 1_655 S
Co369 N372 2.121 . S
Co369 O377 2.055 . S
Co369 O380 2.039 . S
Co369 N383 2.140 1_655 S
C370 O371 1.227 1_655 S
C370 O380 1.265 . S
O371 C370 1.227 1_455 S
N372 Co369 2.121 . S
N372 C374 1.375 . S
N372 C375 1.313 . S
C373 C374 1.338 . S
C373 N376 1.377 . S
C373 H393 0.930 . S
C374 N372 1.375 . S
C374 C373 1.338 . S
C374 H378 0.931 . S
C375 N372 1.313 . S
C375 N376 1.344 . S
C375 H379 0.930 . S
N376 C373 1.377 . S
N376 C375 1.344 . S
O377 Co369 2.055 . S
O377 C381 1.253 . S
H378 C374 0.931 . S
H379 C375 0.930 . S
O380 Co369 2.039 . S
O380 C370 1.265 . S
C381 O377 1.253 . S
C381 O382 1.227 . S
O382 C381 1.227 . S
N383 Co369 2.140 1_455 S
N383 C386 1.346 . S
N383 C387 1.345 . S
C384 C385 1.387 . S
C384 C388 1.391 . S
C385 C384 1.387 . S
C385 C386 1.369 . S
C385 H394 0.929 . S
C386 N383 1.346 . S
C386 C385 1.369 . S
C386 H389 0.928 . S
C387 N383 1.345 . S
C387 C388 1.371 . S
C387 H390 0.931 1_455 S
C388 C384 1.391 . S
C388 C387 1.371 . S
C388 H395 0.930 . S
H389 C386 0.928 . S
H390 C387 0.931 1_655 S
H391 C367 0.930 . S
H392 C364 0.930 . S
H393 C373 0.930 . S
H394 C385 0.929 . S
H395 C388 0.930 . S
C396 C397 1.351 . S
C396 N399 1.368 . S
C396 H401 0.931 . S
C397 C396 1.351 . S
C397 N398 1.373 . S
C397 H425 0.930 . S
N398 C397 1.373 . S
N398 C400 1.340 . S
N399 C396 1.368 . S
N399 C400 1.321 . S
N399 Co402 2.135 . S
C400 N398 1.340 . S
C400 N399 1.321 . S
C400 H424 0.930 . S
H401 C396 0.931 . S
Co402 N399 2.135 . S
Co402 N405 2.121 . S
Co402 O410 2.055 . S
Co402 O413 2.039 . S
Co402 N416 2.140 . S
C403 O404 1.227 . S
C403 O413 1.265 . S
O404 C403 1.227 . S
N405 Co402 2.121 . S
N405 C407 1.375 . S
N405 C408 1.313 . S
C406 C407 1.338 . S
C406 N409 1.377 . S
C406 H426 0.930 . S
C407 N405 1.375 . S
C407 C406 1.338 . S
C407 H411 0.931 . S
C408 N405 1.313 . S
C408 N409 1.344 . S
C408 H412 0.930 . S
N409 C406 1.377 . S
N409 C408 1.344 . S
O410 Co402 2.055 . S
O410 C414 1.253 . S
H411 C407 0.931 . S
H412 C408 0.930 . S
O413 Co402 2.039 . S
O413 C403 1.265 . S
C414 O410 1.253 . S
C414 O415 1.227 . S
O415 C414 1.227 . S
N416 Co402 2.140 . S
N416 C419 1.346 . S
N416 C420 1.345 . S
C417 C418 1.387 . S
C417 C421 1.391 . S
C418 C417 1.387 . S
C418 C419 1.369 . S
C418 H427 0.929 . S
C419 N416 1.346 . S
C419 C418 1.369 . S
C419 H422 0.928 . S
C420 N416 1.345 . S
C420 C421 1.371 . S
C420 H423 0.931 . S
C421 C417 1.391 . S
C421 C420 1.371 . S
C421 H428 0.930 . S
H422 C419 0.928 . S
H423 C420 0.931 . S
H424 C400 0.930 . S
H425 C397 0.930 . S
H426 C406 0.930 . S
H427 C418 0.929 . S
H428 C421 0.930 . S
C429 C430 1.351 . S
C429 N432 1.368 . S
C429 H434 0.931 . S
C430 C429 1.351 . S
C430 N431 1.373 . S
C430 H458 0.930 . S
N431 C430 1.373 . S
N431 C433 1.340 . S
N432 C429 1.368 . S
N432 C433 1.321 . S
N432 Co435 2.135 . S
C433 N431 1.340 . S
C433 N432 1.321 . S
C433 H457 0.930 . S
H434 C429 0.931 . S
Co435 N432 2.135 . S
Co435 N438 2.121 . S
Co435 O443 2.055 . S
Co435 O446 2.039 . S
Co435 N449 2.140 . S
C436 O437 1.227 . S
C436 O446 1.265 . S
O437 C436 1.227 . S
N438 Co435 2.121 . S
N438 C440 1.375 . S
N438 C441 1.313 . S
C439 C440 1.338 . S
C439 N442 1.377 . S
C439 H459 0.930 . S
C440 N438 1.375 . S
C440 C439 1.338 . S
C440 H444 0.931 . S
C441 N438 1.313 . S
C441 N442 1.344 . S
C441 H445 0.930 . S
N442 C439 1.377 . S
N442 C441 1.344 . S
O443 Co435 2.055 . S
O443 C447 1.253 . S
H444 C440 0.931 . S
H445 C441 0.930 . S
O446 Co435 2.039 . S
O446 C436 1.265 . S
C447 O443 1.253 . S
C447 O448 1.227 . S
O448 C447 1.227 . S
N449 Co435 2.140 . S
N449 C452 1.346 . S
N449 C453 1.345 . S
C450 C451 1.387 . S
C450 C454 1.391 . S
C451 C450 1.387 . S
C451 C452 1.369 . S
C451 H460 0.929 . S
C452 N449 1.346 . S
C452 C451 1.369 . S
C452 H455 0.928 . S
C453 N449 1.345 . S
C453 C454 1.371 . S
C453 H456 0.931 . S
C454 C450 1.391 . S
C454 C453 1.371 . S
C454 H461 0.930 . S
H455 C452 0.928 . S
H456 C453 0.931 . S
H457 C433 0.930 . S
H458 C430 0.930 . S
H459 C439 0.930 . S
H460 C451 0.929 . S
H461 C454 0.930 . S
C462 C463 1.351 . S
C462 N465 1.368 . S
C462 H467 0.931 . S
C463 C462 1.351 . S
C463 N464 1.373 . S
C463 H491 0.930 . S
N464 C463 1.373 . S
N464 C466 1.340 . S
N465 C462 1.368 . S
N465 C466 1.321 . S
N465 Co468 2.135 . S
C466 N464 1.340 . S
C466 N465 1.321 . S
C466 H490 0.930 . S
H467 C462 0.931 . S
Co468 N465 2.135 . S
Co468 N471 2.121 . S
Co468 O476 2.055 . S
Co468 O479 2.039 . S
Co468 N482 2.140 . S
C469 O470 1.227 . S
C469 O479 1.265 . S
O470 C469 1.227 . S
N471 Co468 2.121 . S
N471 C473 1.375 . S
N471 C474 1.313 . S
C472 C473 1.338 . S
C472 N475 1.377 . S
C472 H492 0.930 . S
C473 N471 1.375 . S
C473 C472 1.338 . S
C473 H477 0.931 . S
C474 N471 1.313 . S
C474 N475 1.344 . S
C474 H478 0.930 . S
N475 C472 1.377 . S
N475 C474 1.344 . S
O476 Co468 2.055 . S
O476 C480 1.253 . S
H477 C473 0.931 . S
H478 C474 0.930 . S
O479 Co468 2.039 . S
O479 C469 1.265 . S
C480 O476 1.253 . S
C480 O481 1.227 . S
O481 C480 1.227 . S
N482 Co468 2.140 . S
N482 C485 1.346 . S
N482 C486 1.345 . S
C483 C484 1.387 . S
C483 C487 1.391 . S
C484 C483 1.387 . S
C484 C485 1.369 . S
C484 H493 0.929 . S
C485 N482 1.346 . S
C485 C484 1.369 . S
C485 H488 0.928 . S
C486 N482 1.345 . S
C486 C487 1.371 . S
C486 H489 0.931 . S
C487 C483 1.391 . S
C487 C486 1.371 . S
C487 H494 0.930 . S
H488 C485 0.928 . S
H489 C486 0.931 . S
H490 C466 0.930 . S
H491 C463 0.930 . S
H492 C472 0.930 . S
H493 C484 0.929 . S
H494 C487 0.930 . S
C495 C496 1.351 . S
C495 N498 1.368 . S
C495 H500 0.931 . S
C496 C495 1.351 . S
C496 N497 1.373 . S
C496 H524 0.930 . S
N497 C496 1.373 . S
N497 C499 1.340 . S
N498 C495 1.368 . S
N498 C499 1.321 . S
N498 Co501 2.135 . S
C499 N497 1.340 . S
C499 N498 1.321 . S
C499 H523 0.930 . S
H500 C495 0.931 . S
Co501 N498 2.135 . S
Co501 N504 2.121 . S
Co501 O509 2.055 . S
Co501 O512 2.039 . S
Co501 N515 2.140 . S
C502 O503 1.227 . S
C502 O512 1.265 . S
O503 C502 1.227 . S
N504 Co501 2.121 . S
N504 C506 1.375 . S
N504 C507 1.313 . S
C505 C506 1.338 . S
C505 N508 1.377 . S
C505 H525 0.930 . S
C506 N504 1.375 . S
C506 C505 1.338 . S
C506 H510 0.931 . S
C507 N504 1.313 . S
C507 N508 1.344 . S
C507 H511 0.930 . S
N508 C505 1.377 . S
N508 C507 1.344 . S
O509 Co501 2.055 . S
O509 C513 1.253 . S
H510 C506 0.931 . S
H511 C507 0.930 . S
O512 Co501 2.039 . S
O512 C502 1.265 . S
C513 O509 1.253 . S
C513 O514 1.227 . S
O514 C513 1.227 . S
N515 Co501 2.140 . S
N515 C518 1.346 . S
N515 C519 1.345 . S
C516 C517 1.387 . S
C516 C520 1.391 . S
C517 C516 1.387 . S
C517 C518 1.369 . S
C517 H526 0.929 . S
C518 N515 1.346 . S
C518 C517 1.369 . S
C518 H521 0.928 . S
C519 N515 1.345 . S
C519 C520 1.371 . S
C519 H522 0.931 . S
C520 C516 1.391 . S
C520 C519 1.371 . S
C520 H527 0.930 . S
H521 C518 0.928 . S
H522 C519 0.931 . S
H523 C499 0.930 . S
H524 C496 0.930 . S
H525 C505 0.930 . S
H526 C517 0.929 . S
H527 C520 0.930 . S
C528 C529 1.351 . S
C528 N531 1.368 . S
C528 H533 0.931 . S
C529 C528 1.351 . S
C529 N530 1.373 . S
C529 H557 0.930 . S
N530 C529 1.373 . S
N530 C532 1.340 . S
N531 C528 1.368 . S
N531 C532 1.321 . S
N531 Co534 2.135 . S
C532 N530 1.340 . S
C532 N531 1.321 . S
C532 H556 0.930 . S
H533 C528 0.931 . S
Co534 N531 2.135 . S
Co534 N537 2.121 . S
Co534 O542 2.055 . S
Co534 O545 2.039 . S
Co534 N548 2.140 . S
C535 O536 1.227 . S
C535 O545 1.265 . S
O536 C535 1.227 . S
N537 Co534 2.121 . S
N537 C539 1.375 . S
N537 C540 1.313 . S
C538 C539 1.338 . S
C538 N541 1.377 . S
C538 H558 0.930 . S
C539 N537 1.375 . S
C539 C538 1.338 . S
C539 H543 0.931 . S
C540 N537 1.313 . S
C540 N541 1.344 . S
C540 H544 0.930 . S
N541 C538 1.377 . S
N541 C540 1.344 . S
O542 Co534 2.055 . S
O542 C546 1.253 . S
H543 C539 0.931 . S
H544 C540 0.930 . S
O545 Co534 2.039 . S
O545 C535 1.265 . S
C546 O542 1.253 . S
C546 O547 1.227 . S
O547 C546 1.227 . S
N548 Co534 2.140 . S
N548 C551 1.346 . S
N548 C552 1.345 . S
C549 C550 1.387 . S
C549 C553 1.391 . S
C550 C549 1.387 . S
C550 C551 1.369 . S
C550 H559 0.929 . S
C551 N548 1.346 . S
C551 C550 1.369 . S
C551 H554 0.928 . S
C552 N548 1.345 . S
C552 C553 1.371 . S
C552 H555 0.931 . S
C553 C549 1.391 . S
C553 C552 1.371 . S
C553 H560 0.930 . S
H554 C551 0.928 . S
H555 C552 0.931 . S
H556 C532 0.930 . S
H557 C529 0.930 . S
H558 C538 0.930 . S
H559 C550 0.929 . S
H560 C553 0.930 . S
C561 C562 1.351 . S
C561 N564 1.368 . S
C561 H566 0.931 . S
C562 C561 1.351 . S
C562 N563 1.373 . S
C562 H590 0.930 . S
N563 C562 1.373 . S
N563 C565 1.340 . S
N564 C561 1.368 . S
N564 C565 1.321 . S
N564 Co567 2.135 . S
C565 N563 1.340 . S
C565 N564 1.321 . S
C565 H589 0.930 . S
H566 C561 0.931 . S
Co567 N564 2.135 . S
Co567 N570 2.121 . S
Co567 O575 2.055 . S
Co567 O578 2.039 . S
Co567 N581 2.140 . S
C568 O569 1.227 . S
C568 O578 1.265 . S
O569 C568 1.227 . S
N570 Co567 2.121 . S
N570 C572 1.375 . S
N570 C573 1.313 . S
C571 C572 1.338 . S
C571 N574 1.377 . S
C571 H591 0.930 . S
C572 N570 1.375 . S
C572 C571 1.338 . S
C572 H576 0.931 . S
C573 N570 1.313 . S
C573 N574 1.344 . S
C573 H577 0.930 . S
N574 C571 1.377 . S
N574 C573 1.344 . S
O575 Co567 2.055 . S
O575 C579 1.253 . S
H576 C572 0.931 . S
H577 C573 0.930 . S
O578 Co567 2.039 . S
O578 C568 1.265 . S
C579 O575 1.253 . S
C579 O580 1.227 . S
O580 C579 1.227 . S
N581 Co567 2.140 . S
N581 C584 1.346 . S
N581 C585 1.345 . S
C582 C583 1.387 . S
C582 C586 1.391 . S
C583 C582 1.387 . S
C583 C584 1.369 . S
C583 H592 0.929 . S
C584 N581 1.346 . S
C584 C583 1.369 . S
C584 H587 0.928 . S
C585 N581 1.345 . S
C585 C586 1.371 . S
C585 H588 0.931 . S
C586 C582 1.391 . S
C586 C585 1.371 . S
C586 H593 0.930 . S
H587 C584 0.928 . S
H588 C585 0.931 . S
H589 C565 0.930 . S
H590 C562 0.930 . S
H591 C571 0.930 . S
H592 C583 0.929 . S
H593 C586 0.930 . S
C594 C595 1.351 . S
C594 N597 1.368 . S
C594 H599 0.931 . S
C595 C594 1.351 . S
C595 N596 1.373 . S
C595 H623 0.930 . S
N596 C595 1.373 . S
N596 C598 1.340 . S
N597 C594 1.368 . S
N597 C598 1.321 . S
N597 Co600 2.135 . S
C598 N596 1.340 . S
C598 N597 1.321 . S
C598 H622 0.930 . S
H599 C594 0.931 . S
Co600 N597 2.135 . S
Co600 N603 2.121 . S
Co600 O608 2.055 . S
Co600 O611 2.039 . S
Co600 N614 2.140 . S
C601 O602 1.227 . S
C601 O611 1.265 . S
O602 C601 1.227 . S
N603 Co600 2.121 . S
N603 C605 1.375 . S
N603 C606 1.313 . S
C604 C605 1.338 . S
C604 N607 1.377 . S
C604 H624 0.930 . S
C605 N603 1.375 . S
C605 C604 1.338 . S
C605 H609 0.931 . S
C606 N603 1.313 . S
C606 N607 1.344 . S
C606 H610 0.930 . S
N607 C604 1.377 . S
N607 C606 1.344 . S
O608 Co600 2.055 . S
O608 C612 1.253 . S
H609 C605 0.931 . S
H610 C606 0.930 . S
O611 Co600 2.039 . S
O611 C601 1.265 . S
C612 O608 1.253 . S
C612 O613 1.227 . S
O613 C612 1.227 . S
N614 Co600 2.140 . S
N614 C617 1.346 . S
N614 C618 1.345 . S
C615 C616 1.387 . S
C615 C619 1.391 . S
C616 C615 1.387 . S
C616 C617 1.369 . S
C616 H625 0.929 . S
C617 N614 1.346 . S
C617 C616 1.369 . S
C617 H620 0.928 . S
C618 N614 1.345 . S
C618 C619 1.371 . S
C618 H621 0.931 . S
C619 C615 1.391 . S
C619 C618 1.371 . S
C619 H626 0.930 . S
H620 C617 0.928 . S
H621 C618 0.931 . S
H622 C598 0.930 . S
H623 C595 0.930 . S
H624 C604 0.930 . S
H625 C616 0.929 . S
H626 C619 0.930 . S
C627 C628 1.351 . S
C627 N630 1.368 . S
C627 H632 0.931 . S
C628 C627 1.351 . S
C628 N629 1.373 . S
C628 H656 0.930 . S
N629 C628 1.373 . S
N629 C631 1.340 . S
N630 C627 1.368 . S
N630 C631 1.321 . S
N630 Co633 2.135 . S
C631 N629 1.340 . S
C631 N630 1.321 . S
C631 H655 0.930 . S
H632 C627 0.931 . S
Co633 N630 2.135 . S
Co633 N636 2.121 . S
Co633 O641 2.055 . S
Co633 O644 2.039 . S
Co633 N647 2.140 . S
C634 O635 1.227 . S
C634 O644 1.265 . S
O635 C634 1.227 . S
N636 Co633 2.121 . S
N636 C638 1.375 . S
N636 C639 1.313 . S
C637 C638 1.338 . S
C637 N640 1.377 . S
C637 H657 0.930 . S
C638 N636 1.375 . S
C638 C637 1.338 . S
C638 H642 0.931 . S
C639 N636 1.313 . S
C639 N640 1.344 . S
C639 H643 0.930 . S
N640 C637 1.377 . S
N640 C639 1.344 . S
O641 Co633 2.055 . S
O641 C645 1.253 . S
H642 C638 0.931 . S
H643 C639 0.930 . S
O644 Co633 2.039 . S
O644 C634 1.265 . S
C645 O641 1.253 . S
C645 O646 1.227 . S
O646 C645 1.227 . S
N647 Co633 2.140 . S
N647 C650 1.346 . S
N647 C651 1.345 . S
C648 C649 1.387 . S
C648 C652 1.391 . S
C649 C648 1.387 . S
C649 C650 1.369 . S
C649 H658 0.929 . S
C650 N647 1.346 . S
C650 C649 1.369 . S
C650 H653 0.928 . S
C651 N647 1.345 . S
C651 C652 1.371 . S
C651 H654 0.931 . S
C652 C648 1.391 . S
C652 C651 1.371 . S
C652 H659 0.930 . S
H653 C650 0.928 . S
H654 C651 0.931 . S
H655 C631 0.930 . S
H656 C628 0.930 . S
H657 C637 0.930 . S
H658 C649 0.929 . S
H659 C652 0.930 . S
C660 C661 1.351 . S
C660 N663 1.368 . S
C660 H665 0.931 . S
C661 C660 1.351 . S
C661 N662 1.373 . S
C661 H689 0.930 . S
N662 C661 1.373 . S
N662 C664 1.340 . S
N663 C660 1.368 . S
N663 C664 1.321 . S
N663 Co666 2.135 . S
C664 N662 1.340 . S
C664 N663 1.321 . S
C664 H688 0.930 . S
H665 C660 0.931 . S
Co666 N663 2.135 . S
Co666 N669 2.121 . S
Co666 O674 2.055 . S
Co666 O677 2.039 . S
Co666 N680 2.140 . S
C667 O668 1.227 . S
C667 O677 1.265 . S
O668 C667 1.227 . S
N669 Co666 2.121 . S
N669 C671 1.375 . S
N669 C672 1.313 . S
C670 C671 1.338 . S
C670 N673 1.377 . S
C670 H690 0.930 . S
C671 N669 1.375 . S
C671 C670 1.338 . S
C671 H675 0.931 . S
C672 N669 1.313 . S
C672 N673 1.344 . S
C672 H676 0.930 . S
N673 C670 1.377 . S
N673 C672 1.344 . S
O674 Co666 2.055 . S
O674 C678 1.253 . S
H675 C671 0.931 . S
H676 C672 0.930 . S
O677 Co666 2.039 . S
O677 C667 1.265 . S
C678 O674 1.253 . S
C678 O679 1.227 . S
O679 C678 1.227 . S
N680 Co666 2.140 . S
N680 C683 1.346 . S
N680 C684 1.345 . S
C681 C682 1.387 . S
C681 C685 1.391 . S
C682 C681 1.387 . S
C682 C683 1.369 . S
C682 H691 0.929 . S
C683 N680 1.346 . S
C683 C682 1.369 . S
C683 H686 0.928 . S
C684 N680 1.345 . S
C684 C685 1.371 . S
C684 H687 0.931 . S
C685 C681 1.391 . S
C685 C684 1.371 . S
C685 H692 0.930 . S
H686 C683 0.928 . S
H687 C684 0.931 . S
H688 C664 0.930 . S
H689 C661 0.930 . S
H690 C670 0.930 . S
H691 C682 0.929 . S
H692 C685 0.930 . S
C693 C694 1.351 . S
C693 N696 1.368 . S
C693 H698 0.931 . S
C694 C693 1.351 . S
C694 N695 1.373 . S
C694 H722 0.930 . S
N695 C694 1.373 . S
N695 C697 1.340 . S
N696 C693 1.368 . S
N696 C697 1.321 . S
N696 Co699 2.135 . S
C697 N695 1.340 . S
C697 N696 1.321 . S
C697 H721 0.930 . S
H698 C693 0.931 . S
Co699 N696 2.135 . S
Co699 N702 2.121 . S
Co699 O707 2.055 . S
Co699 O710 2.039 . S
Co699 N713 2.140 . S
C700 O701 1.227 . S
C700 O710 1.265 . S
O701 C700 1.227 . S
N702 Co699 2.121 . S
N702 C704 1.375 . S
N702 C705 1.313 . S
C703 C704 1.338 . S
C703 N706 1.377 . S
C703 H723 0.930 . S
C704 N702 1.375 . S
C704 C703 1.338 . S
C704 H708 0.931 . S
C705 N702 1.313 . S
C705 N706 1.344 . S
C705 H709 0.930 . S
N706 C703 1.377 . S
N706 C705 1.344 . S
O707 Co699 2.055 . S
O707 C711 1.253 . S
H708 C704 0.931 . S
H709 C705 0.930 . S
O710 Co699 2.039 . S
O710 C700 1.265 . S
C711 O707 1.253 . S
C711 O712 1.227 . S
O712 C711 1.227 . S
N713 Co699 2.140 . S
N713 C716 1.346 . S
N713 C717 1.345 . S
C714 C715 1.387 . S
C714 C718 1.391 . S
C715 C714 1.387 . S
C715 C716 1.369 . S
C715 H724 0.929 . S
C716 N713 1.346 . S
C716 C715 1.369 . S
C716 H719 0.928 . S
C717 N713 1.345 . S
C717 C718 1.371 . S
C717 H720 0.931 . S
C718 C714 1.391 . S
C718 C717 1.371 . S
C718 H725 0.930 . S
H719 C716 0.928 . S
H720 C717 0.931 . S
H721 C697 0.930 . S
H722 C694 0.930 . S
H723 C703 0.930 . S
H724 C715 0.929 . S
H725 C718 0.930 . S
C726 C727 1.351 . S
C726 N729 1.368 . S
C726 H731 0.931 . S
C727 C726 1.351 . S
C727 N728 1.373 . S
C727 H755 0.930 . S
N728 C727 1.373 . S
N728 C730 1.340 . S
N729 C726 1.368 . S
N729 C730 1.321 . S
N729 Co732 2.135 . S
C730 N728 1.340 . S
C730 N729 1.321 . S
C730 H754 0.930 . S
H731 C726 0.931 . S
Co732 N729 2.135 . S
Co732 N735 2.121 . S
Co732 O740 2.055 . S
Co732 O743 2.039 . S
Co732 N746 2.140 . S
C733 O734 1.227 . S
C733 O743 1.265 . S
O734 C733 1.227 . S
N735 Co732 2.121 . S
N735 C737 1.375 . S
N735 C738 1.313 . S
C736 C737 1.338 . S
C736 N739 1.377 . S
C736 H756 0.930 . S
C737 N735 1.375 . S
C737 C736 1.338 . S
C737 H741 0.931 . S
C738 N735 1.313 . S
C738 N739 1.344 . S
C738 H742 0.930 . S
N739 C736 1.377 . S
N739 C738 1.344 . S
O740 Co732 2.055 . S
O740 C744 1.253 . S
H741 C737 0.931 . S
H742 C738 0.930 . S
O743 Co732 2.039 . S
O743 C733 1.265 . S
C744 O740 1.253 . S
C744 O745 1.227 . S
O745 C744 1.227 . S
N746 Co732 2.140 . S
N746 C749 1.346 . S
N746 C750 1.345 . S
C747 C748 1.387 . S
C747 C751 1.391 . S
C748 C747 1.387 . S
C748 C749 1.369 . S
C748 H757 0.929 . S
C749 N746 1.346 . S
C749 C748 1.369 . S
C749 H752 0.928 . S
C750 N746 1.345 . S
C750 C751 1.371 . S
C750 H753 0.931 . S
C751 C747 1.391 . S
C751 C750 1.371 . S
C751 H758 0.930 . S
H752 C749 0.928 . S
H753 C750 0.931 . S
H754 C730 0.930 . S
H755 C727 0.930 . S
H756 C736 0.930 . S
H757 C748 0.929 . S
H758 C751 0.930 . S
C759 C760 1.351 . S
C759 N762 1.368 . S
C759 H764 0.931 . S
C760 C759 1.351 . S
C760 N761 1.373 . S
C760 H788 0.930 . S
N761 C760 1.373 . S
N761 C763 1.340 . S
N762 C759 1.368 . S
N762 C763 1.321 . S
N762 Co765 2.135 . S
C763 N761 1.340 . S
C763 N762 1.321 . S
C763 H787 0.930 . S
H764 C759 0.931 . S
Co765 N762 2.135 . S
Co765 N768 2.121 . S
Co765 O773 2.055 . S
Co765 O776 2.039 . S
Co765 N779 2.140 . S
C766 O767 1.227 . S
C766 O776 1.265 . S
O767 C766 1.227 . S
N768 Co765 2.121 . S
N768 C770 1.375 . S
N768 C771 1.313 . S
C769 C770 1.338 . S
C769 N772 1.377 . S
C769 H789 0.930 . S
C770 N768 1.375 . S
C770 C769 1.338 . S
C770 H774 0.931 . S
C771 N768 1.313 . S
C771 N772 1.344 . S
C771 H775 0.930 . S
N772 C769 1.377 . S
N772 C771 1.344 . S
O773 Co765 2.055 . S
O773 C777 1.253 . S
H774 C770 0.931 . S
H775 C771 0.930 . S
O776 Co765 2.039 . S
O776 C766 1.265 . S
C777 O773 1.253 . S
C777 O778 1.227 . S
O778 C777 1.227 . S
N779 Co765 2.140 . S
N779 C782 1.346 . S
N779 C783 1.345 . S
C780 C781 1.387 . S
C780 C784 1.391 . S
C781 C780 1.387 . S
C781 C782 1.369 . S
C781 H790 0.929 . S
C782 N779 1.346 . S
C782 C781 1.369 . S
C782 H785 0.928 . S
C783 N779 1.345 . S
C783 C784 1.371 . S
C783 H786 0.931 . S
C784 C780 1.391 . S
C784 C783 1.371 . S
C784 H791 0.930 . S
H785 C782 0.928 . S
H786 C783 0.931 . S
H787 C763 0.930 . S
H788 C760 0.930 . S
H789 C769 0.930 . S
H790 C781 0.929 . S
H791 C784 0.930 . S
C792 C793 1.351 . S
C792 N795 1.368 . S
C792 H797 0.931 . S
C793 C792 1.351 . S
C793 N794 1.373 . S
C793 H821 0.930 . S
N794 C793 1.373 . S
N794 C796 1.340 . S
N795 C792 1.368 . S
N795 C796 1.321 . S
N795 Co798 2.135 . S
C796 N794 1.340 . S
C796 N795 1.321 . S
C796 H820 0.930 . S
H797 C792 0.931 . S
Co798 N795 2.135 . S
Co798 N801 2.121 . S
Co798 O806 2.055 . S
Co798 O809 2.039 . S
Co798 N812 2.140 . S
C799 O800 1.227 . S
C799 O809 1.265 . S
O800 C799 1.227 . S
N801 Co798 2.121 . S
N801 C803 1.375 . S
N801 C804 1.313 . S
C802 C803 1.338 . S
C802 N805 1.377 . S
C802 H822 0.930 . S
C803 N801 1.375 . S
C803 C802 1.338 . S
C803 H807 0.931 . S
C804 N801 1.313 . S
C804 N805 1.344 . S
C804 H808 0.930 . S
N805 C802 1.377 . S
N805 C804 1.344 . S
O806 Co798 2.055 . S
O806 C810 1.253 . S
H807 C803 0.931 . S
H808 C804 0.930 . S
O809 Co798 2.039 . S
O809 C799 1.265 . S
C810 O806 1.253 . S
C810 O811 1.227 . S
O811 C810 1.227 . S
N812 Co798 2.140 . S
N812 C815 1.346 . S
N812 C816 1.345 . S
C813 C814 1.387 . S
C813 C817 1.391 . S
C814 C813 1.387 . S
C814 C815 1.369 . S
C814 H823 0.929 . S
C815 N812 1.346 . S
C815 C814 1.369 . S
C815 H818 0.928 . S
C816 N812 1.345 . S
C816 C817 1.371 . S
C816 H819 0.931 . S
C817 C813 1.391 . S
C817 C816 1.371 . S
C817 H824 0.930 . S
H818 C815 0.928 . S
H819 C816 0.931 . S
H820 C796 0.930 . S
H821 C793 0.930 . S
H822 C802 0.930 . S
H823 C814 0.929 . S
H824 C817 0.930 . S
C825 C826 1.351 . S
C825 N828 1.368 . S
C825 H830 0.931 . S
C826 C825 1.351 . S
C826 N827 1.373 . S
C826 H854 0.930 . S
N827 C826 1.373 . S
N827 C829 1.340 . S
N828 C825 1.368 . S
N828 C829 1.321 . S
N828 Co831 2.135 . S
C829 N827 1.340 . S
C829 N828 1.321 . S
C829 H853 0.930 . S
H830 C825 0.931 . S
Co831 N828 2.135 . S
Co831 N834 2.121 . S
Co831 O839 2.055 . S
Co831 O842 2.039 . S
Co831 N845 2.140 . S
C832 O833 1.227 . S
C832 O842 1.265 . S
O833 C832 1.227 . S
N834 Co831 2.121 . S
N834 C836 1.375 . S
N834 C837 1.313 . S
C835 C836 1.338 . S
C835 N838 1.377 . S
C835 H855 0.930 . S
C836 N834 1.375 . S
C836 C835 1.338 . S
C836 H840 0.931 . S
C837 N834 1.313 . S
C837 N838 1.344 . S
C837 H841 0.930 . S
N838 C835 1.377 . S
N838 C837 1.344 . S
O839 Co831 2.055 . S
O839 C843 1.253 . S
H840 C836 0.931 . S
H841 C837 0.930 . S
O842 Co831 2.039 . S
O842 C832 1.265 . S
C843 O839 1.253 . S
C843 O844 1.227 . S
O844 C843 1.227 . S
N845 Co831 2.140 . S
N845 C848 1.346 . S
N845 C849 1.345 . S
C846 C847 1.387 . S
C846 C850 1.391 . S
C847 C846 1.387 . S
C847 C848 1.369 . S
C847 H856 0.929 . S
C848 N845 1.346 . S
C848 C847 1.369 . S
C848 H851 0.928 . S
C849 N845 1.345 . S
C849 C850 1.371 . S
C849 H852 0.931 . S
C850 C846 1.391 . S
C850 C849 1.371 . S
C850 H857 0.930 . S
H851 C848 0.928 . S
H852 C849 0.931 . S
H853 C829 0.930 . S
H854 C826 0.930 . S
H855 C835 0.930 . S
H856 C847 0.929 . S
H857 C850 0.930 . S
C858 C859 1.351 . S
C858 N861 1.368 . S
C858 H863 0.931 . S
C859 C858 1.351 . S
C859 N860 1.373 . S
C859 H887 0.930 . S
N860 C859 1.373 . S
N860 C862 1.340 . S
N861 C858 1.368 . S
N861 C862 1.321 . S
N861 Co864 2.135 . S
C862 N860 1.340 . S
C862 N861 1.321 . S
C862 H886 0.930 . S
H863 C858 0.931 . S
Co864 N861 2.135 . S
Co864 N867 2.121 . S
Co864 O872 2.055 . S
Co864 O875 2.039 . S
Co864 N878 2.140 . S
C865 O866 1.227 . S
C865 O875 1.265 . S
O866 C865 1.227 . S
N867 Co864 2.121 . S
N867 C869 1.375 . S
N867 C870 1.313 . S
C868 C869 1.338 . S
C868 N871 1.377 . S
C868 H888 0.930 . S
C869 N867 1.375 . S
C869 C868 1.338 . S
C869 H873 0.931 . S
C870 N867 1.313 . S
C870 N871 1.344 . S
C870 H874 0.930 . S
N871 C868 1.377 . S
N871 C870 1.344 . S
O872 Co864 2.055 . S
O872 C876 1.253 . S
H873 C869 0.931 . S
H874 C870 0.930 . S
O875 Co864 2.039 . S
O875 C865 1.265 . S
C876 O872 1.253 . S
C876 O877 1.227 . S
O877 C876 1.227 . S
N878 Co864 2.140 . S
N878 C881 1.346 . S
N878 C882 1.345 . S
C879 C880 1.387 . S
C879 C883 1.391 . S
C880 C879 1.387 . S
C880 C881 1.369 . S
C880 H889 0.929 . S
C881 N878 1.346 . S
C881 C880 1.369 . S
C881 H884 0.928 . S
C882 N878 1.345 . S
C882 C883 1.371 . S
C882 H885 0.931 . S
C883 C879 1.391 . S
C883 C882 1.371 . S
C883 H890 0.930 . S
H884 C881 0.928 . S
H885 C882 0.931 . S
H886 C862 0.930 . S
H887 C859 0.930 . S
H888 C868 0.930 . S
H889 C880 0.929 . S
H890 C883 0.930 . S
C891 C892 1.351 . S
C891 N894 1.368 . S
C891 H896 0.931 . S
C892 C891 1.351 . S
C892 N893 1.373 . S
C892 H920 0.930 . S
N893 C892 1.373 . S
N893 C895 1.340 . S
N894 C891 1.368 . S
N894 C895 1.321 . S
N894 Co897 2.135 . S
C895 N893 1.340 . S
C895 N894 1.321 . S
C895 H919 0.930 . S
H896 C891 0.931 . S
Co897 N894 2.135 . S
Co897 N900 2.121 . S
Co897 O905 2.055 . S
Co897 O908 2.039 . S
Co897 N911 2.140 . S
C898 O899 1.227 . S
C898 O908 1.265 . S
O899 C898 1.227 . S
N900 Co897 2.121 . S
N900 C902 1.375 . S
N900 C903 1.313 . S
C901 C902 1.338 . S
C901 N904 1.377 . S
C901 H921 0.930 . S
C902 N900 1.375 . S
C902 C901 1.338 . S
C902 H906 0.931 . S
C903 N900 1.313 . S
C903 N904 1.344 . S
C903 H907 0.930 . S
N904 C901 1.377 . S
N904 C903 1.344 . S
O905 Co897 2.055 . S
O905 C909 1.253 . S
H906 C902 0.931 . S
H907 C903 0.930 . S
O908 Co897 2.039 . S
O908 C898 1.265 . S
C909 O905 1.253 . S
C909 O910 1.227 . S
O910 C909 1.227 . S
N911 Co897 2.140 . S
N911 C914 1.346 . S
N911 C915 1.345 . S
C912 C913 1.387 . S
C912 C916 1.391 . S
C913 C912 1.387 . S
C913 C914 1.369 . S
C913 H922 0.929 . S
C914 N911 1.346 . S
C914 C913 1.369 . S
C914 H917 0.928 . S
C915 N911 1.345 . S
C915 C916 1.371 . S
C915 H918 0.931 . S
C916 C912 1.391 . S
C916 C915 1.371 . S
C916 H923 0.930 . S
H917 C914 0.928 . S
H918 C915 0.931 . S
H919 C895 0.930 . S
H920 C892 0.930 . S
H921 C901 0.930 . S
H922 C913 0.929 . S
H923 C916 0.930 . S
C924 C925 1.351 . S
C924 N927 1.368 . S
C924 H929 0.931 . S
C925 C924 1.351 . S
C925 N926 1.373 . S
C925 H953 0.930 . S
N926 C925 1.373 . S
N926 C928 1.340 . S
N927 C924 1.368 . S
N927 C928 1.321 . S
N927 Co930 2.135 . S
C928 N926 1.340 . S
C928 N927 1.321 . S
C928 H952 0.930 . S
H929 C924 0.931 . S
Co930 N927 2.135 . S
Co930 N933 2.121 . S
Co930 O938 2.055 . S
Co930 O941 2.039 . S
Co930 N944 2.140 . S
C931 O932 1.227 . S
C931 O941 1.265 . S
O932 C931 1.227 . S
N933 Co930 2.121 . S
N933 C935 1.375 . S
N933 C936 1.313 . S
C934 C935 1.338 . S
C934 N937 1.377 . S
C934 H954 0.930 . S
C935 N933 1.375 . S
C935 C934 1.338 . S
C935 H939 0.931 . S
C936 N933 1.313 . S
C936 N937 1.344 . S
C936 H940 0.930 . S
N937 C934 1.377 . S
N937 C936 1.344 . S
O938 Co930 2.055 . S
O938 C942 1.253 . S
H939 C935 0.931 . S
H940 C936 0.930 . S
O941 Co930 2.039 . S
O941 C931 1.265 . S
C942 O938 1.253 . S
C942 O943 1.227 . S
O943 C942 1.227 . S
N944 Co930 2.140 . S
N944 C947 1.346 . S
N944 C948 1.345 . S
C945 C946 1.387 . S
C945 C949 1.391 . S
C946 C945 1.387 . S
C946 C947 1.369 . S
C946 H955 0.929 . S
C947 N944 1.346 . S
C947 C946 1.369 . S
C947 H950 0.928 . S
C948 N944 1.345 . S
C948 C949 1.371 . S
C948 H951 0.931 . S
C949 C945 1.391 . S
C949 C948 1.371 . S
C949 H956 0.930 . S
H950 C947 0.928 . S
H951 C948 0.931 . S
H952 C928 0.930 . S
H953 C925 0.930 . S
H954 C934 0.930 . S
H955 C946 0.929 . S
H956 C949 0.930 . S
C957 C958 1.351 . S
C957 N960 1.368 . S
C957 H962 0.931 . S
C958 C957 1.351 . S
C958 N959 1.373 . S
C958 H986 0.930 . S
N959 C958 1.373 . S
N959 C961 1.340 . S
N960 C957 1.368 . S
N960 C961 1.321 . S
N960 Co963 2.135 . S
C961 N959 1.340 . S
C961 N960 1.321 . S
C961 H985 0.930 . S
H962 C957 0.931 . S
Co963 N960 2.135 . S
Co963 N966 2.121 . S
Co963 O971 2.055 . S
Co963 O974 2.039 . S
Co963 N977 2.140 . S
C964 O965 1.227 . S
C964 O974 1.265 . S
O965 C964 1.227 . S
N966 Co963 2.121 . S
N966 C968 1.375 . S
N966 C969 1.313 . S
C967 C968 1.338 . S
C967 N970 1.377 . S
C967 H987 0.930 . S
C968 N966 1.375 . S
C968 C967 1.338 . S
C968 H972 0.931 . S
C969 N966 1.313 . S
C969 N970 1.344 . S
C969 H973 0.930 . S
N970 C967 1.377 . S
N970 C969 1.344 . S
O971 Co963 2.055 . S
O971 C975 1.253 . S
H972 C968 0.931 . S
H973 C969 0.930 . S
O974 Co963 2.039 . S
O974 C964 1.265 . S
C975 O971 1.253 . S
C975 O976 1.227 . S
O976 C975 1.227 . S
N977 Co963 2.140 . S
N977 C980 1.346 . S
N977 C981 1.345 . S
C978 C979 1.387 . S
C978 C982 1.391 . S
C979 C978 1.387 . S
C979 C980 1.369 . S
C979 H988 0.929 . S
C980 N977 1.346 . S
C980 C979 1.369 . S
C980 H983 0.928 . S
C981 N977 1.345 . S
C981 C982 1.371 . S
C981 H984 0.931 . S
C982 C978 1.391 . S
C982 C981 1.371 . S
C982 H989 0.930 . S
H983 C980 0.928 . S
H984 C981 0.931 . S
H985 C961 0.930 . S
H986 C958 0.930 . S
H987 C967 0.930 . S
H988 C979 0.929 . S
H989 C982 0.930 . S
C990 C991 1.351 . S
C990 N993 1.368 . S
C990 H995 0.931 . S
C991 C990 1.351 . S
C991 N992 1.373 . S
C991 H1019 0.930 . S
N992 C991 1.373 . S
N992 C994 1.340 . S
N993 C990 1.368 . S
N993 C994 1.321 . S
N993 Co996 2.135 . S
C994 N992 1.340 . S
C994 N993 1.321 . S
C994 H1018 0.930 . S
H995 C990 0.931 . S
Co996 N993 2.135 . S
Co996 N999 2.121 . S
Co996 O1004 2.055 . S
Co996 O1007 2.039 . S
Co996 N1010 2.140 . S
C997 O998 1.227 . S
C997 O1007 1.265 . S
O998 C997 1.227 . S
N999 Co996 2.121 . S
N999 C1001 1.375 . S
N999 C1002 1.313 . S
C1000 C1001 1.338 . S
C1000 N1003 1.377 . S
C1000 H1020 0.930 . S
C1001 N999 1.375 . S
C1001 C1000 1.338 . S
C1001 H1005 0.931 . S
C1002 N999 1.313 . S
C1002 N1003 1.344 . S
C1002 H1006 0.930 . S
N1003 C1000 1.377 . S
N1003 C1002 1.344 . S
O1004 Co996 2.055 . S
O1004 C1008 1.253 . S
H1005 C1001 0.931 . S
H1006 C1002 0.930 . S
O1007 Co996 2.039 . S
O1007 C997 1.265 . S
C1008 O1004 1.253 . S
C1008 O1009 1.227 . S
O1009 C1008 1.227 . S
N1010 Co996 2.140 . S
N1010 C1013 1.346 . S
N1010 C1014 1.345 . S
C1011 C1012 1.387 . S
C1011 C1015 1.391 . S
C1012 C1011 1.387 . S
C1012 C1013 1.369 . S
C1012 H1021 0.929 . S
C1013 N1010 1.346 . S
C1013 C1012 1.369 . S
C1013 H1016 0.928 . S
C1014 N1010 1.345 . S
C1014 C1015 1.371 . S
C1014 H1017 0.931 . S
C1015 C1011 1.391 . S
C1015 C1014 1.371 . S
C1015 H1022 0.930 . S
H1016 C1013 0.928 . S
H1017 C1014 0.931 . S
H1018 C994 0.930 . S
H1019 C991 0.930 . S
H1020 C1000 0.930 . S
H1021 C1012 0.929 . S
H1022 C1015 0.930 . S
C1023 C1024 1.351 . S
C1023 N1026 1.368 . S
C1023 H1028 0.931 . S
C1024 C1023 1.351 . S
C1024 N1025 1.373 . S
C1024 H1052 0.930 . S
N1025 C1024 1.373 . S
N1025 C1027 1.340 . S
N1026 C1023 1.368 . S
N1026 C1027 1.321 . S
N1026 Co1029 2.135 . S
C1027 N1025 1.340 . S
C1027 N1026 1.321 . S
C1027 H1051 0.930 . S
H1028 C1023 0.931 . S
Co1029 N1026 2.135 . S
Co1029 N1032 2.121 . S
Co1029 O1037 2.055 . S
Co1029 O1040 2.039 . S
Co1029 N1043 2.140 . S
C1030 O1031 1.227 . S
C1030 O1040 1.265 . S
O1031 C1030 1.227 . S
N1032 Co1029 2.121 . S
N1032 C1034 1.375 . S
N1032 C1035 1.313 . S
C1033 C1034 1.338 . S
C1033 N1036 1.377 . S
C1033 H1053 0.930 . S
C1034 N1032 1.375 . S
C1034 C1033 1.338 . S
C1034 H1038 0.931 . S
C1035 N1032 1.313 . S
C1035 N1036 1.344 . S
C1035 H1039 0.930 . S
N1036 C1033 1.377 . S
N1036 C1035 1.344 . S
O1037 Co1029 2.055 . S
O1037 C1041 1.253 . S
H1038 C1034 0.931 . S
H1039 C1035 0.930 . S
O1040 Co1029 2.039 . S
O1040 C1030 1.265 . S
C1041 O1037 1.253 . S
C1041 O1042 1.227 . S
O1042 C1041 1.227 . S
N1043 Co1029 2.140 . S
N1043 C1046 1.346 . S
N1043 C1047 1.345 . S
C1044 C1045 1.387 . S
C1044 C1048 1.391 . S
C1045 C1044 1.387 . S
C1045 C1046 1.369 . S
C1045 H1054 0.929 . S
C1046 N1043 1.346 . S
C1046 C1045 1.369 . S
C1046 H1049 0.928 . S
C1047 N1043 1.345 . S
C1047 C1048 1.371 . S
C1047 H1050 0.931 . S
C1048 C1044 1.391 . S
C1048 C1047 1.371 . S
C1048 H1055 0.930 . S
H1049 C1046 0.928 . S
H1050 C1047 0.931 . S
H1051 C1027 0.930 . S
H1052 C1024 0.930 . S
H1053 C1033 0.930 . S
H1054 C1045 0.929 . S
H1055 C1048 0.930 . S
C1056 C1057 1.351 . S
C1056 N1059 1.368 . S
C1056 H1061 0.931 . S
C1057 C1056 1.351 . S
C1057 N1058 1.373 . S
C1057 H1085 0.930 . S
N1058 C1057 1.373 . S
N1058 C1060 1.340 . S
N1059 C1056 1.368 . S
N1059 C1060 1.321 . S
N1059 Co1062 2.135 . S
C1060 N1058 1.340 . S
C1060 N1059 1.321 . S
C1060 H1084 0.930 . S
H1061 C1056 0.931 . S
Co1062 N1059 2.135 . S
Co1062 N1065 2.121 . S
Co1062 O1070 2.055 . S
Co1062 O1073 2.039 . S
Co1062 N1076 2.140 . S
C1063 O1064 1.227 . S
C1063 O1073 1.265 . S
O1064 C1063 1.227 . S
N1065 Co1062 2.121 . S
N1065 C1067 1.375 . S
N1065 C1068 1.313 . S
C1066 C1067 1.338 . S
C1066 N1069 1.377 . S
C1066 H1086 0.930 . S
C1067 N1065 1.375 . S
C1067 C1066 1.338 . S
C1067 H1071 0.931 . S
C1068 N1065 1.313 . S
C1068 N1069 1.344 . S
C1068 H1072 0.930 . S
N1069 C1066 1.377 . S
N1069 C1068 1.344 . S
O1070 Co1062 2.055 . S
O1070 C1074 1.253 . S
H1071 C1067 0.931 . S
H1072 C1068 0.930 . S
O1073 Co1062 2.039 . S
O1073 C1063 1.265 . S
C1074 O1070 1.253 . S
C1074 O1075 1.227 . S
O1075 C1074 1.227 . S
N1076 Co1062 2.140 . S
N1076 C1079 1.346 . S
N1076 C1080 1.345 . S
C1077 C1078 1.387 . S
C1077 C1081 1.391 . S
C1078 C1077 1.387 . S
C1078 C1079 1.369 . S
C1078 H1087 0.929 . S
C1079 N1076 1.346 . S
C1079 C1078 1.369 . S
C1079 H1082 0.928 . S
C1080 N1076 1.345 . S
C1080 C1081 1.371 . S
C1080 H1083 0.931 . S
C1081 C1077 1.391 . S
C1081 C1080 1.371 . S
C1081 H1088 0.930 . S
H1082 C1079 0.928 . S
H1083 C1080 0.931 . S
H1084 C1060 0.930 . S
H1085 C1057 0.930 . S
H1086 C1066 0.930 . S
H1087 C1078 0.929 . S
H1088 C1081 0.930 . S
C1089 C1090 1.351 . S
C1089 N1092 1.368 . S
C1089 H1094 0.931 . S
C1090 C1089 1.351 . S
C1090 N1091 1.373 . S
C1090 H1118 0.930 . S
N1091 C1090 1.373 . S
N1091 C1093 1.340 . S
N1092 C1089 1.368 . S
N1092 C1093 1.321 . S
N1092 Co1095 2.135 . S
C1093 N1091 1.340 . S
C1093 N1092 1.321 . S
C1093 H1117 0.930 . S
H1094 C1089 0.931 . S
Co1095 N1092 2.135 . S
Co1095 N1098 2.121 . S
Co1095 O1103 2.055 . S
Co1095 O1106 2.039 . S
Co1095 N1109 2.140 . S
C1096 O1097 1.227 . S
C1096 O1106 1.265 . S
O1097 C1096 1.227 . S
N1098 Co1095 2.121 . S
N1098 C1100 1.375 . S
N1098 C1101 1.313 . S
C1099 C1100 1.338 . S
C1099 N1102 1.377 . S
C1099 H1119 0.930 . S
C1100 N1098 1.375 . S
C1100 C1099 1.338 . S
C1100 H1104 0.931 . S
C1101 N1098 1.313 . S
C1101 N1102 1.344 . S
C1101 H1105 0.930 . S
N1102 C1099 1.377 . S
N1102 C1101 1.344 . S
O1103 Co1095 2.055 . S
O1103 C1107 1.253 . S
H1104 C1100 0.931 . S
H1105 C1101 0.930 . S
O1106 Co1095 2.039 . S
O1106 C1096 1.265 . S
C1107 O1103 1.253 . S
C1107 O1108 1.227 . S
O1108 C1107 1.227 . S
N1109 Co1095 2.140 . S
N1109 C1112 1.346 . S
N1109 C1113 1.345 . S
C1110 C1111 1.387 . S
C1110 C1114 1.391 . S
C1111 C1110 1.387 . S
C1111 C1112 1.369 . S
C1111 H1120 0.929 . S
C1112 N1109 1.346 . S
C1112 C1111 1.369 . S
C1112 H1115 0.928 . S
C1113 N1109 1.345 . S
C1113 C1114 1.371 . S
C1113 H1116 0.931 . S
C1114 C1110 1.391 . S
C1114 C1113 1.371 . S
C1114 H1121 0.930 . S
H1115 C1112 0.928 . S
H1116 C1113 0.931 . S
H1117 C1093 0.930 . S
H1118 C1090 0.930 . S
H1119 C1099 0.930 . S
H1120 C1111 0.929 . S
H1121 C1114 0.930 . S
C1122 C1123 1.351 . S
C1122 N1125 1.368 . S
C1122 H1127 0.931 . S
C1123 C1122 1.351 . S
C1123 N1124 1.373 . S
C1123 H1151 0.930 . S
N1124 C1123 1.373 . S
N1124 C1126 1.340 . S
N1125 C1122 1.368 . S
N1125 C1126 1.321 . S
N1125 Co1128 2.135 . S
C1126 N1124 1.340 . S
C1126 N1125 1.321 . S
C1126 H1150 0.930 . S
H1127 C1122 0.931 . S
Co1128 N1125 2.135 . S
Co1128 N1131 2.121 . S
Co1128 O1136 2.055 . S
Co1128 O1139 2.039 . S
Co1128 N1142 2.140 . S
C1129 O1130 1.227 . S
C1129 O1139 1.265 . S
O1130 C1129 1.227 . S
N1131 Co1128 2.121 . S
N1131 C1133 1.375 . S
N1131 C1134 1.313 . S
C1132 C1133 1.338 . S
C1132 N1135 1.377 . S
C1132 H1152 0.930 . S
C1133 N1131 1.375 . S
C1133 C1132 1.338 . S
C1133 H1137 0.931 . S
C1134 N1131 1.313 . S
C1134 N1135 1.344 . S
C1134 H1138 0.930 . S
N1135 C1132 1.377 . S
N1135 C1134 1.344 . S
O1136 Co1128 2.055 . S
O1136 C1140 1.253 . S
H1137 C1133 0.931 . S
H1138 C1134 0.930 . S
O1139 Co1128 2.039 . S
O1139 C1129 1.265 . S
C1140 O1136 1.253 . S
C1140 O1141 1.227 . S
O1141 C1140 1.227 . S
N1142 Co1128 2.140 . S
N1142 C1145 1.346 . S
N1142 C1146 1.345 . S
C1143 C1144 1.387 . S
C1143 C1147 1.391 . S
C1144 C1143 1.387 . S
C1144 C1145 1.369 . S
C1144 H1153 0.929 . S
C1145 N1142 1.346 . S
C1145 C1144 1.369 . S
C1145 H1148 0.928 . S
C1146 N1142 1.345 . S
C1146 C1147 1.371 . S
C1146 H1149 0.931 . S
C1147 C1143 1.391 . S
C1147 C1146 1.371 . S
C1147 H1154 0.930 . S
H1148 C1145 0.928 . S
H1149 C1146 0.931 . S
H1150 C1126 0.930 . S
H1151 C1123 0.930 . S
H1152 C1132 0.930 . S
H1153 C1144 0.929 . S
H1154 C1147 0.930 . S
C1155 C1156 1.351 . S
C1155 N1158 1.368 . S
C1155 H1160 0.931 . S
C1156 C1155 1.351 . S
C1156 N1157 1.373 . S
C1156 H1184 0.930 . S
N1157 C1156 1.373 . S
N1157 C1159 1.340 . S
N1158 C1155 1.368 . S
N1158 C1159 1.321 . S
N1158 Co1161 2.135 . S
C1159 N1157 1.340 . S
C1159 N1158 1.321 . S
C1159 H1183 0.930 . S
H1160 C1155 0.931 . S
Co1161 N1158 2.135 . S
Co1161 N1164 2.121 . S
Co1161 O1169 2.055 . S
Co1161 O1172 2.039 . S
Co1161 N1175 2.140 . S
C1162 O1163 1.227 . S
C1162 O1172 1.265 . S
O1163 C1162 1.227 . S
N1164 Co1161 2.121 . S
N1164 C1166 1.375 . S
N1164 C1167 1.313 . S
C1165 C1166 1.338 . S
C1165 N1168 1.377 . S
C1165 H1185 0.930 . S
C1166 N1164 1.375 . S
C1166 C1165 1.338 . S
C1166 H1170 0.931 . S
C1167 N1164 1.313 . S
C1167 N1168 1.344 . S
C1167 H1171 0.930 . S
N1168 C1165 1.377 . S
N1168 C1167 1.344 . S
O1169 Co1161 2.055 . S
O1169 C1173 1.253 . S
H1170 C1166 0.931 . S
H1171 C1167 0.930 . S
O1172 Co1161 2.039 . S
O1172 C1162 1.265 . S
C1173 O1169 1.253 . S
C1173 O1174 1.227 . S
O1174 C1173 1.227 . S
N1175 Co1161 2.140 . S
N1175 C1178 1.346 . S
N1175 C1179 1.345 . S
C1176 C1177 1.387 . S
C1176 C1180 1.391 . S
C1177 C1176 1.387 . S
C1177 C1178 1.369 . S
C1177 H1186 0.929 . S
C1178 N1175 1.346 . S
C1178 C1177 1.369 . S
C1178 H1181 0.928 . S
C1179 N1175 1.345 . S
C1179 C1180 1.371 . S
C1179 H1182 0.931 . S
C1180 C1176 1.391 . S
C1180 C1179 1.371 . S
C1180 H1187 0.930 . S
H1181 C1178 0.928 . S
H1182 C1179 0.931 . S
H1183 C1159 0.930 . S
H1184 C1156 0.930 . S
H1185 C1165 0.930 . S
H1186 C1177 0.929 . S
H1187 C1180 0.930 . S
H1188 C1194 0.930 . S
H1189 C1198 0.930 . S
H1190 C1203 0.929 . S
H1191 C1201 0.929 . S
H1192 C1196 0.929 . S
H1193 C1202 0.929 . S
C1194 H1188 0.930 . S
C1194 C1195 1.367 . S
C1194 C1202 1.378 . S
C1195 C1194 1.367 . S
C1195 C1203 1.433 1_554 S
C1196 H1192 0.929 . S
C1196 C1198 1.378 . S
C1196 C1200 1.350 . S
C1197 C1200 1.463 . S
C1197 C1202 1.350 . S
C1197 N1205 1.428 . S
C1198 H1189 0.930 . S
C1198 C1196 1.378 . S
C1198 C1199 1.367 . S
C1199 C1198 1.367 . S
C1199 C1201 1.433 . S
C1200 C1196 1.350 . S
C1200 C1197 1.463 . S
C1200 N1204 1.427 . S
C1201 H1191 0.929 . S
C1201 C1199 1.433 . S
C1201 N1204 1.384 . S
C1202 H1193 0.929 . S
C1202 C1194 1.378 . S
C1202 C1197 1.350 . S
C1203 H1190 0.929 . S
C1203 C1195 1.433 1_556 S
C1203 N1205 1.383 1_556 S
N1204 C1200 1.427 . S
N1204 C1201 1.384 . S
N1205 C1197 1.428 . S
N1205 C1203 1.383 1_554 S
H1206 C1212 0.930 . S
H1207 C1216 0.930 . S
H1208 C1221 0.929 . S
H1209 C1219 0.929 . S
H1210 C1214 0.929 . S
H1211 C1220 0.929 . S
C1212 H1206 0.930 . S
C1212 C1213 1.367 . S
C1212 C1220 1.378 . S
C1213 C1212 1.367 . S
C1213 C1221 1.433 1_554 S
C1214 H1210 0.929 . S
C1214 C1216 1.378 . S
C1214 C1218 1.350 1_556 S
C1215 C1218 1.463 . S
C1215 C1220 1.350 . S
C1215 N1223 1.427 1_554 S
C1216 H1207 0.930 . S
C1216 C1214 1.378 . S
C1216 C1217 1.350 1_556 S
C1217 C1216 1.350 1_554 S
C1217 C1219 1.453 . S
C1218 C1214 1.350 1_554 S
C1218 C1215 1.463 . S
C1218 N1222 1.427 . S
C1219 H1209 0.929 . S
C1219 C1217 1.453 . S
C1219 N1222 1.384 . S
C1220 H1211 0.929 . S
C1220 C1212 1.378 . S
C1220 C1215 1.350 . S
C1221 H1208 0.929 . S
C1221 C1213 1.433 1_556 S
C1221 N1223 1.384 . S
N1222 C1218 1.427 . S
N1222 C1219 1.384 . S
N1223 C1215 1.427 1_556 S
N1223 C1221 1.384 . S
H1224 C1230 0.930 . S
H1225 C1234 0.930 . S
H1226 C1239 0.929 . S
H1227 C1237 0.929 . S
H1228 C1232 0.927 1_556 S
H1229 C1238 0.929 . S
C1230 H1224 0.930 . S
C1230 C1231 1.367 . S
C1230 C1238 1.378 . S
C1231 C1230 1.367 . S
C1231 C1239 1.433 1_554 S
C1232 H1228 0.927 1_554 S
C1232 C1234 1.378 . S
C1232 C1236 1.350 . S
C1233 C1236 1.463 . S
C1233 C1238 1.350 . S
C1233 N1241 1.427 1_554 S
C1234 H1225 0.930 . S
C1234 C1232 1.378 . S
C1234 C1235 1.367 . S
C1235 C1234 1.367 . S
C1235 C1237 1.433 . S
C1236 C1232 1.350 . S
C1236 C1233 1.463 . S
C1236 N1240 1.427 . S
C1237 H1227 0.929 . S
C1237 C1235 1.433 . S
C1237 N1240 1.384 . S
C1238 H1229 0.929 . S
C1238 C1230 1.378 . S
C1238 C1233 1.350 . S
C1239 H1226 0.929 . S
C1239 C1231 1.433 1_556 S
C1239 N1241 1.384 . S
N1240 C1236 1.427 . S
N1240 C1237 1.384 . S
N1241 C1233 1.427 1_556 S
N1241 C1239 1.384 . S
H1242 C1248 0.930 . S
H1243 C1252 0.930 . S
H1244 C1257 0.929 . S
H1245 C1255 0.929 . S
H1246 C1250 0.929 . S
H1247 C1256 0.929 . S
C1248 H1242 0.930 . S
C1248 C1249 1.367 . S
C1248 C1256 1.378 . S
C1249 C1248 1.367 . S
C1249 C1257 1.433 . S
C1250 H1246 0.929 . S
C1250 C1252 1.378 . S
C1250 C1254 1.350 . S
C1251 C1254 1.463 . S
C1251 C1256 1.350 . S
C1251 N1259 1.427 . S
C1252 H1243 0.930 . S
C1252 C1250 1.378 . S
C1252 C1253 1.367 . S
C1253 C1252 1.367 . S
C1253 C1255 1.433 . S
C1254 C1250 1.350 . S
C1254 C1251 1.463 . S
C1254 N1258 1.427 . S
C1255 H1245 0.929 . S
C1255 C1253 1.433 . S
C1255 N1258 1.384 . S
C1256 H1247 0.929 . S
C1256 C1248 1.378 . S
C1256 C1251 1.350 . S
C1257 H1244 0.929 . S
C1257 C1249 1.433 . S
C1257 N1259 1.384 . S
N1258 C1254 1.427 . S
N1258 C1255 1.384 . S
N1259 C1251 1.427 . S
N1259 C1257 1.384 . S
H1260 C1266 0.930 . S
H1261 C1270 0.930 . S
H1262 C1275 0.929 . S
H1263 C1273 0.929 . S
H1264 C1268 0.929 . S
H1265 C1274 0.929 . S
C1266 H1260 0.930 . S
C1266 C1267 1.367 . S
C1266 C1274 1.378 . S
C1267 C1266 1.367 . S
C1267 C1275 1.433 . S
C1268 H1264 0.929 . S
C1268 C1270 1.378 . S
C1268 C1272 1.350 . S
C1269 C1272 1.463 . S
C1269 C1274 1.350 . S
C1269 N1277 1.427 . S
C1270 H1261 0.930 . S
C1270 C1268 1.378 . S
C1270 C1271 1.367 . S
C1271 C1270 1.367 . S
C1271 C1273 1.433 . S
C1272 C1268 1.350 . S
C1272 C1269 1.463 . S
C1272 N1276 1.427 . S
C1273 H1263 0.929 . S
C1273 C1271 1.433 . S
C1273 N1276 1.384 . S
C1274 H1265 0.929 . S
C1274 C1266 1.378 . S
C1274 C1269 1.350 . S
C1275 H1262 0.929 . S
C1275 C1267 1.433 . S
C1275 N1277 1.384 . S
N1276 C1272 1.427 . S
N1276 C1273 1.384 . S
N1277 C1269 1.427 . S
N1277 C1275 1.384 . S
H1278 C1284 0.930 . S
H1279 C1288 0.930 . S
H1280 C1293 0.929 . S
H1281 C1291 0.929 . S
H1282 C1286 0.929 . S
H1283 C1292 0.929 . S
C1284 H1278 0.930 . S
C1284 C1285 1.367 . S
C1284 C1292 1.378 . S
C1285 C1284 1.367 . S
C1285 C1293 1.433 . S
C1286 H1282 0.929 . S
C1286 C1288 1.378 . S
C1286 C1290 1.350 . S
C1287 C1290 1.463 . S
C1287 C1292 1.350 . S
C1287 N1295 1.427 . S
C1288 H1279 0.930 . S
C1288 C1286 1.378 . S
C1288 C1289 1.367 . S
C1289 C1288 1.367 . S
C1289 C1291 1.433 . S
C1290 C1286 1.350 . S
C1290 C1287 1.463 . S
C1290 N1294 1.427 . S
C1291 H1281 0.929 . S
C1291 C1289 1.433 . S
C1291 N1294 1.384 . S
C1292 H1283 0.929 . S
C1292 C1284 1.378 . S
C1292 C1287 1.350 . S
C1293 H1280 0.929 . S
C1293 C1285 1.433 . S
C1293 N1295 1.384 . S
N1294 C1290 1.427 . S
N1294 C1291 1.384 . S
N1295 C1287 1.427 . S
N1295 C1293 1.384 . S
H1296 C1302 0.930 . S
H1297 C1306 0.930 . S
H1298 C1311 0.929 . S
H1299 C1309 0.929 . S
H1300 C1304 0.929 . S
H1301 C1310 0.929 . S
C1302 H1296 0.930 . S
C1302 C1303 1.367 1_554 S
C1302 C1310 1.378 . S
C1303 C1302 1.367 1_556 S
C1303 C1311 1.433 . S
C1304 H1300 0.929 . S
C1304 C1306 1.378 . S
C1304 C1308 1.350 . S
C1305 C1308 1.463 . S
C1305 C1310 1.350 1_556 S
C1305 N1313 1.427 . S
C1306 H1297 0.930 . S
C1306 C1304 1.378 . S
C1306 C1307 1.367 . S
C1307 C1306 1.367 . S
C1307 C1309 1.433 1_556 S
C1308 C1304 1.350 . S
C1308 C1305 1.463 . S
C1308 N1312 1.427 1_556 S
C1309 H1299 0.929 . S
C1309 C1307 1.433 1_554 S
C1309 N1312 1.384 . S
C1310 H1301 0.929 . S
C1310 C1302 1.378 . S
C1310 C1305 1.350 1_554 S
C1311 H1298 0.929 . S
C1311 C1303 1.433 . S
C1311 N1313 1.384 . S
N1312 C1308 1.427 1_554 S
N1312 C1309 1.384 . S
N1313 C1305 1.427 . S
N1313 C1311 1.384 . S
H1314 C1320 0.930 . S
H1315 C1324 0.930 . S
H1316 C1329 0.929 . S
H1317 C1327 0.929 . S
H1318 C1322 0.929 . S
H1319 C1328 0.929 . S
C1320 H1314 0.930 . S
C1320 C1321 1.367 . S
C1320 C1328 1.378 . S
C1321 C1320 1.367 . S
C1321 C1329 1.433 1_556 S
C1322 H1318 0.929 . S
C1322 C1324 1.378 . S
C1322 C1326 1.350 1_554 S
C1323 C1326 1.463 . S
C1323 C1328 1.350 . S
C1323 N1331 1.427 1_556 S
C1324 H1315 0.930 . S
C1324 C1322 1.378 . S
C1324 C1325 1.350 1_554 S
C1325 C1324 1.350 1_556 S
C1325 C1327 1.452 . S
C1326 C1322 1.350 1_556 S
C1326 C1323 1.463 . S
C1326 N1330 1.427 . S
C1327 H1317 0.929 . S
C1327 C1325 1.452 . S
C1327 N1330 1.384 . S
C1328 H1319 0.929 . S
C1328 C1320 1.378 . S
C1328 C1323 1.350 . S
C1329 H1316 0.929 . S
C1329 C1321 1.433 1_554 S
C1329 N1331 1.384 . S
N1330 C1326 1.427 . S
N1330 C1327 1.384 . S
N1331 C1323 1.427 1_554 S
N1331 C1329 1.384 . S
H1332 C1338 0.930 . S
H1333 C1342 0.930 . S
H1334 C1347 0.929 . S
H1335 C1345 0.929 . S
H1336 C1340 0.929 . S
H1337 C1346 0.929 . S
C1338 H1332 0.930 . S
C1338 C1339 1.367 . S
C1338 C1346 1.378 . S
C1339 C1338 1.367 . S
C1339 C1347 1.433 1_556 S
C1340 H1336 0.929 . S
C1340 C1342 1.378 . S
C1340 C1344 1.350 1_554 S
C1341 C1344 1.463 . S
C1341 C1346 1.350 . S
C1341 N1349 1.427 1_556 S
C1342 H1333 0.930 . S
C1342 C1340 1.378 . S
C1342 C1343 1.350 1_554 S
C1343 C1342 1.350 1_556 S
C1343 C1345 1.452 . S
C1344 C1340 1.350 1_556 S
C1344 C1341 1.463 . S
C1344 N1348 1.427 . S
C1345 H1335 0.929 . S
C1345 C1343 1.452 . S
C1345 N1348 1.384 . S
C1346 H1337 0.929 . S
C1346 C1338 1.378 . S
C1346 C1341 1.350 . S
C1347 H1334 0.929 . S
C1347 C1339 1.433 1_554 S
C1347 N1349 1.384 . S
N1348 C1344 1.427 . S
N1348 C1345 1.384 . S
N1349 C1341 1.427 1_554 S
N1349 C1347 1.384 . S
H1350 C1356 0.930 . S
H1351 C1360 0.930 . S
H1352 C1365 0.929 . S
H1353 C1363 0.929 . S
H1354 C1358 0.929 . S
H1355 C1364 0.929 . S
C1356 H1350 0.930 . S
C1356 C1357 1.367 . S
C1356 C1364 1.378 . S
C1357 C1356 1.367 . S
C1357 C1365 1.433 . S
C1358 H1354 0.929 . S
C1358 C1360 1.378 . S
C1358 C1362 1.350 . S
C1359 C1362 1.463 . S
C1359 C1364 1.350 . S
C1359 N1367 1.427 . S
C1360 H1351 0.930 . S
C1360 C1358 1.378 . S
C1360 C1361 1.367 . S
C1361 C1360 1.367 . S
C1361 C1363 1.433 . S
C1362 C1358 1.350 . S
C1362 C1359 1.463 . S
C1362 N1366 1.427 . S
C1363 H1353 0.929 . S
C1363 C1361 1.433 . S
C1363 N1366 1.384 . S
C1364 H1355 0.929 . S
C1364 C1356 1.378 . S
C1364 C1359 1.350 . S
C1365 H1352 0.929 . S
C1365 C1357 1.433 . S
C1365 N1367 1.384 . S
N1366 C1362 1.427 . S
N1366 C1363 1.384 . S
N1367 C1359 1.427 . S
N1367 C1365 1.384 . S
H1368 C1374 0.930 . S
H1369 C1378 0.930 . S
H1370 C1383 0.929 . S
H1371 C1381 0.929 . S
H1372 C1376 0.929 . S
H1373 C1382 0.929 . S
C1374 H1368 0.930 . S
C1374 C1375 1.367 . S
C1374 C1382 1.378 . S
C1375 C1374 1.367 . S
C1375 C1383 1.433 . S
C1376 H1372 0.929 . S
C1376 C1378 1.378 . S
C1376 C1380 1.350 . S
C1377 C1380 1.463 . S
C1377 C1382 1.350 . S
C1377 N1385 1.427 . S
C1378 H1369 0.930 . S
C1378 C1376 1.378 . S
C1378 C1379 1.367 . S
C1379 C1378 1.367 . S
C1379 C1381 1.433 . S
C1380 C1376 1.350 . S
C1380 C1377 1.463 . S
C1380 N1384 1.427 . S
C1381 H1371 0.929 . S
C1381 C1379 1.433 . S
C1381 N1384 1.384 . S
C1382 H1373 0.929 . S
C1382 C1374 1.378 . S
C1382 C1377 1.350 . S
C1383 H1370 0.929 . S
C1383 C1375 1.433 . S
C1383 N1385 1.384 . S
N1384 C1380 1.427 . S
N1384 C1381 1.384 . S
N1385 C1377 1.427 . S
N1385 C1383 1.384 . S
H1386 C1392 0.930 . S
H1387 C1396 0.930 . S
H1388 C1401 0.929 . S
H1389 C1399 0.929 . S
H1390 C1394 0.929 . S
H1391 C1400 0.929 . S
C1392 H1386 0.930 . S
C1392 C1393 1.367 . S
C1392 C1400 1.378 . S
C1393 C1392 1.367 . S
C1393 C1401 1.433 . S
C1394 H1390 0.929 . S
C1394 C1396 1.378 . S
C1394 C1398 1.350 . S
C1395 C1398 1.463 . S
C1395 C1400 1.350 . S
C1395 N1403 1.427 . S
C1396 H1387 0.930 . S
C1396 C1394 1.378 . S
C1396 C1397 1.367 . S
C1397 C1396 1.367 . S
C1397 C1399 1.433 . S
C1398 C1394 1.350 . S
C1398 C1395 1.463 . S
C1398 N1402 1.427 . S
C1399 H1389 0.929 . S
C1399 C1397 1.433 . S
C1399 N1402 1.384 . S
C1400 H1391 0.929 . S
C1400 C1392 1.378 . S
C1400 C1395 1.350 . S
C1401 H1388 0.929 . S
C1401 C1393 1.433 . S
C1401 N1403 1.384 . S
N1402 C1398 1.427 . S
N1402 C1399 1.384 . S
N1403 C1395 1.427 . S
N1403 C1401 1.384 . S
H1404 C1410 0.930 . S
H1405 C1414 0.930 . S
H1406 C1419 0.929 . S
H1407 C1417 0.929 . S
H1408 C1412 0.929 . S
H1409 C1418 0.929 . S
C1410 H1404 0.930 . S
C1410 C1411 1.367 . S
C1410 C1418 1.378 . S
C1411 C1410 1.367 . S
C1411 C1419 1.433 . S
C1412 H1408 0.929 . S
C1412 C1414 1.378 . S
C1412 C1416 1.350 . S
C1413 C1416 1.463 . S
C1413 C1418 1.350 . S
C1413 N1421 1.427 . S
C1414 H1405 0.930 . S
C1414 C1412 1.378 . S
C1414 C1415 1.367 . S
C1415 C1414 1.367 . S
C1415 C1417 1.433 . S
C1416 C1412 1.350 . S
C1416 C1413 1.463 . S
C1416 N1420 1.427 . S
C1417 H1407 0.929 . S
C1417 C1415 1.433 . S
C1417 N1420 1.384 . S
C1418 H1409 0.929 . S
C1418 C1410 1.378 . S
C1418 C1413 1.350 . S
C1419 H1406 0.929 . S
C1419 C1411 1.433 . S
C1419 N1421 1.384 . S
N1420 C1416 1.427 . S
N1420 C1417 1.384 . S
N1421 C1413 1.427 . S
N1421 C1419 1.384 . S
H1422 C1428 0.930 . S
H1423 C1432 0.930 . S
H1424 C1437 0.929 . S
H1425 C1435 0.929 . S
H1426 C1430 0.929 . S
H1427 C1436 0.929 . S
C1428 H1422 0.930 . S
C1428 C1429 1.367 . S
C1428 C1436 1.378 . S
C1429 C1428 1.367 . S
C1429 C1437 1.433 . S
C1430 H1426 0.929 . S
C1430 C1432 1.378 . S
C1430 C1434 1.350 . S
C1431 C1434 1.463 . S
C1431 C1436 1.350 . S
C1431 N1439 1.427 . S
C1432 H1423 0.930 . S
C1432 C1430 1.378 . S
C1432 C1433 1.367 . S
C1433 C1432 1.367 . S
C1433 C1435 1.433 . S
C1434 C1430 1.350 . S
C1434 C1431 1.463 . S
C1434 N1438 1.427 . S
C1435 H1425 0.929 . S
C1435 C1433 1.433 . S
C1435 N1438 1.384 . S
C1436 H1427 0.929 . S
C1436 C1428 1.378 . S
C1436 C1431 1.350 . S
C1437 H1424 0.929 . S
C1437 C1429 1.433 . S
C1437 N1439 1.384 . S
N1438 C1434 1.427 . S
N1438 C1435 1.384 . S
N1439 C1431 1.427 . S
N1439 C1437 1.384 . S
H1440 C1446 0.930 . S
H1441 C1450 0.930 . S
H1442 C1455 0.929 . S
H1443 C1453 0.929 . S
H1444 C1448 0.929 . S
H1445 C1454 0.929 . S
C1446 H1440 0.930 . S
C1446 C1447 1.367 . S
C1446 C1454 1.378 . S
C1447 C1446 1.367 . S
C1447 C1455 1.433 . S
C1448 H1444 0.929 . S
C1448 C1450 1.378 . S
C1448 C1452 1.350 . S
C1449 C1452 1.463 . S
C1449 C1454 1.350 . S
C1449 N1457 1.427 . S
C1450 H1441 0.930 . S
C1450 C1448 1.378 . S
C1450 C1451 1.367 . S
C1451 C1450 1.367 . S
C1451 C1453 1.433 . S
C1452 C1448 1.350 . S
C1452 C1449 1.463 . S
C1452 N1456 1.427 . S
C1453 H1443 0.929 . S
C1453 C1451 1.433 . S
C1453 N1456 1.384 . S
C1454 H1445 0.929 . S
C1454 C1446 1.378 . S
C1454 C1449 1.350 . S
C1455 H1442 0.929 . S
C1455 C1447 1.433 . S
C1455 N1457 1.384 . S
N1456 C1452 1.427 . S
N1456 C1453 1.384 . S
N1457 C1449 1.427 . S
N1457 C1455 1.384 . S
H1458 C1464 0.930 . S
H1459 C1468 0.930 . S
H1460 C1473 0.929 . S
H1461 C1471 0.929 . S
H1462 C1466 0.929 . S
H1463 C1472 0.929 . S
C1464 H1458 0.930 . S
C1464 C1465 1.367 . S
C1464 C1472 1.378 . S
C1465 C1464 1.367 . S
C1465 C1473 1.433 . S
C1466 H1462 0.929 . S
C1466 C1468 1.378 . S
C1466 C1470 1.350 . S
C1467 C1470 1.463 . S
C1467 C1472 1.350 . S
C1467 N1475 1.427 . S
C1468 H1459 0.930 . S
C1468 C1466 1.378 . S
C1468 C1469 1.367 . S
C1469 C1468 1.367 . S
C1469 C1471 1.433 . S
C1470 C1466 1.350 . S
C1470 C1467 1.463 . S
C1470 N1474 1.427 . S
C1471 H1461 0.929 . S
C1471 C1469 1.433 . S
C1471 N1474 1.384 . S
C1472 H1463 0.929 . S
C1472 C1464 1.378 . S
C1472 C1467 1.350 . S
C1473 H1460 0.929 . S
C1473 C1465 1.433 . S
C1473 N1475 1.384 . S
N1474 C1470 1.427 . S
N1474 C1471 1.384 . S
N1475 C1467 1.427 . S
N1475 C1473 1.384 . S
H1476 C1482 0.930 . S
H1477 C1486 0.930 . S
H1478 C1491 0.929 . S
H1479 C1489 0.929 . S
H1480 C1484 0.929 . S
H1481 C1490 0.929 . S
C1482 H1476 0.930 . S
C1482 C1483 1.367 . S
C1482 C1490 1.378 . S
C1483 C1482 1.367 . S
C1483 C1491 1.433 . S
C1484 H1480 0.929 . S
C1484 C1486 1.378 . S
C1484 C1488 1.350 . S
C1485 C1488 1.463 . S
C1485 C1490 1.350 . S
C1485 N1493 1.427 . S
C1486 H1477 0.930 . S
C1486 C1484 1.378 . S
C1486 C1487 1.367 . S
C1487 C1486 1.367 . S
C1487 C1489 1.433 . S
C1488 C1484 1.350 . S
C1488 C1485 1.463 . S
C1488 N1492 1.427 . S
C1489 H1479 0.929 . S
C1489 C1487 1.433 . S
C1489 N1492 1.384 . S
C1490 H1481 0.929 . S
C1490 C1482 1.378 . S
C1490 C1485 1.350 . S
C1491 H1478 0.929 . S
C1491 C1483 1.433 . S
C1491 N1493 1.384 . S
N1492 C1488 1.427 . S
N1492 C1489 1.384 . S
N1493 C1485 1.427 . S
N1493 C1491 1.384 . S
H1494 C1500 0.930 . S
H1495 C1504 0.930 . S
H1496 C1509 0.929 . S
H1497 C1507 0.929 . S
H1498 C1502 0.929 . S
H1499 C1508 0.929 . S
C1500 H1494 0.930 . S
C1500 C1501 1.367 . S
C1500 C1508 1.378 . S
C1501 C1500 1.367 . S
C1501 C1509 1.433 . S
C1502 H1498 0.929 . S
C1502 C1504 1.378 . S
C1502 C1506 1.350 . S
C1503 C1506 1.463 . S
C1503 C1508 1.350 . S
C1503 N1511 1.427 . S
C1504 H1495 0.930 . S
C1504 C1502 1.378 . S
C1504 C1505 1.367 . S
C1505 C1504 1.367 . S
C1505 C1507 1.433 . S
C1506 C1502 1.350 . S
C1506 C1503 1.463 . S
C1506 N1510 1.427 . S
C1507 H1497 0.929 . S
C1507 C1505 1.433 . S
C1507 N1510 1.384 . S
C1508 H1499 0.929 . S
C1508 C1500 1.378 . S
C1508 C1503 1.350 . S
C1509 H1496 0.929 . S
C1509 C1501 1.433 . S
C1509 N1511 1.384 . S
N1510 C1506 1.427 . S
N1510 C1507 1.384 . S
N1511 C1503 1.427 . S
N1511 C1509 1.384 . S
H1512 C1518 0.930 . S
H1513 C1522 0.930 . S
H1514 C1527 0.929 . S
H1515 C1525 0.929 . S
H1516 C1520 0.929 . S
H1517 C1526 0.929 . S
C1518 H1512 0.930 . S
C1518 C1519 1.367 . S
C1518 C1526 1.378 . S
C1519 C1518 1.367 . S
C1519 C1527 1.433 . S
C1520 H1516 0.929 . S
C1520 C1522 1.378 . S
C1520 C1524 1.350 . S
C1521 C1524 1.463 . S
C1521 C1526 1.350 . S
C1521 N1529 1.427 . S
C1522 H1513 0.930 . S
C1522 C1520 1.378 . S
C1522 C1523 1.367 . S
C1523 C1522 1.367 . S
C1523 C1525 1.433 . S
C1524 C1520 1.350 . S
C1524 C1521 1.463 . S
C1524 N1528 1.427 . S
C1525 H1515 0.929 . S
C1525 C1523 1.433 . S
C1525 N1528 1.384 . S
C1526 H1517 0.929 . S
C1526 C1518 1.378 . S
C1526 C1521 1.350 . S
C1527 H1514 0.929 . S
C1527 C1519 1.433 . S
C1527 N1529 1.384 . S
N1528 C1524 1.427 . S
N1528 C1525 1.384 . S
N1529 C1521 1.427 . S
N1529 C1527 1.384 . S
H1530 C1536 0.930 . S
H1531 C1540 0.930 . S
H1532 C1545 0.929 . S
H1533 C1543 0.929 . S
H1534 C1538 0.929 . S
H1535 C1544 0.929 . S
C1536 H1530 0.930 . S
C1536 C1537 1.367 . S
C1536 C1544 1.378 . S
C1537 C1536 1.367 . S
C1537 C1545 1.433 . S
C1538 H1534 0.929 . S
C1538 C1540 1.378 . S
C1538 C1542 1.350 . S
C1539 C1542 1.463 . S
C1539 C1544 1.350 . S
C1539 N1547 1.427 . S
C1540 H1531 0.930 . S
C1540 C1538 1.378 . S
C1540 C1541 1.367 . S
C1541 C1540 1.367 . S
C1541 C1543 1.433 . S
C1542 C1538 1.350 . S
C1542 C1539 1.463 . S
C1542 N1546 1.427 . S
C1543 H1533 0.929 . S
C1543 C1541 1.433 . S
C1543 N1546 1.384 . S
C1544 H1535 0.929 . S
C1544 C1536 1.378 . S
C1544 C1539 1.350 . S
C1545 H1532 0.929 . S
C1545 C1537 1.433 . S
C1545 N1547 1.384 . S
N1546 C1542 1.427 . S
N1546 C1543 1.384 . S
N1547 C1539 1.427 . S
N1547 C1545 1.384 . S
H1548 C1554 0.930 . S
H1549 C1558 0.930 . S
H1550 C1563 0.929 . S
H1551 C1561 0.929 . S
H1552 C1556 0.929 . S
H1553 C1562 0.929 . S
C1554 H1548 0.930 . S
C1554 C1555 1.367 . S
C1554 C1562 1.378 . S
C1555 C1554 1.367 . S
C1555 C1563 1.433 . S
C1556 H1552 0.929 . S
C1556 C1558 1.378 . S
C1556 C1560 1.350 . S
C1557 C1560 1.463 . S
C1557 C1562 1.350 . S
C1557 N1565 1.427 . S
C1558 H1549 0.930 . S
C1558 C1556 1.378 . S
C1558 C1559 1.367 . S
C1559 C1558 1.367 . S
C1559 C1561 1.433 . S
C1560 C1556 1.350 . S
C1560 C1557 1.463 . S
C1560 N1564 1.427 . S
C1561 H1551 0.929 . S
C1561 C1559 1.433 . S
C1561 N1564 1.384 . S
C1562 H1553 0.929 . S
C1562 C1554 1.378 . S
C1562 C1557 1.350 . S
C1563 H1550 0.929 . S
C1563 C1555 1.433 . S
C1563 N1565 1.384 . S
N1564 C1560 1.427 . S
N1564 C1561 1.384 . S
N1565 C1557 1.427 . S
N1565 C1563 1.384 . S
H1566 C1572 0.930 . S
H1567 C1576 0.930 . S
H1568 C1581 0.929 . S
H1569 C1579 0.929 . S
H1570 C1574 0.929 . S
H1571 C1580 0.929 . S
C1572 H1566 0.930 . S
C1572 C1573 1.367 . S
C1572 C1580 1.378 . S
C1573 C1572 1.367 . S
C1573 C1581 1.433 . S
C1574 H1570 0.929 . S
C1574 C1576 1.378 . S
C1574 C1578 1.350 . S
C1575 C1578 1.463 . S
C1575 C1580 1.350 . S
C1575 N1583 1.427 . S
C1576 H1567 0.930 . S
C1576 C1574 1.378 . S
C1576 C1577 1.367 . S
C1577 C1576 1.367 . S
C1577 C1579 1.433 . S
C1578 C1574 1.350 . S
C1578 C1575 1.463 . S
C1578 N1582 1.427 . S
C1579 H1569 0.929 . S
C1579 C1577 1.433 . S
C1579 N1582 1.384 . S
C1580 H1571 0.929 . S
C1580 C1572 1.378 . S
C1580 C1575 1.350 . S
C1581 H1568 0.929 . S
C1581 C1573 1.433 . S
C1581 N1583 1.384 . S
N1582 C1578 1.427 . S
N1582 C1579 1.384 . S
N1583 C1575 1.427 . S
N1583 C1581 1.384 . S
H1584 C1590 0.930 . S
H1585 C1594 0.930 . S
H1586 C1599 0.929 . S
H1587 C1597 0.929 . S
H1588 C1592 0.929 . S
H1589 C1598 0.929 . S
C1590 H1584 0.930 . S
C1590 C1591 1.367 . S
C1590 C1598 1.378 . S
C1591 C1590 1.367 . S
C1591 C1599 1.433 . S
C1592 H1588 0.929 . S
C1592 C1594 1.378 . S
C1592 C1596 1.350 . S
C1593 C1596 1.463 . S
C1593 C1598 1.350 . S
C1593 N1601 1.427 . S
C1594 H1585 0.930 . S
C1594 C1592 1.378 . S
C1594 C1595 1.367 . S
C1595 C1594 1.367 . S
C1595 C1597 1.433 . S
C1596 C1592 1.350 . S
C1596 C1593 1.463 . S
C1596 N1600 1.427 . S
C1597 H1587 0.929 . S
C1597 C1595 1.433 . S
C1597 N1600 1.384 . S
C1598 H1589 0.929 . S
C1598 C1590 1.378 . S
C1598 C1593 1.350 . S
C1599 H1586 0.929 . S
C1599 C1591 1.433 . S
C1599 N1601 1.384 . S
N1600 C1596 1.427 . S
N1600 C1597 1.384 . S
N1601 C1593 1.427 . S
N1601 C1599 1.384 . S
H1602 C1608 0.930 . S
H1603 C1612 0.930 . S
H1604 C1617 0.929 . S
H1605 C1615 0.929 . S
H1606 C1610 0.929 . S
H1607 C1616 0.929 . S
C1608 H1602 0.930 . S
C1608 C1609 1.367 . S
C1608 C1616 1.378 . S
C1609 C1608 1.367 . S
C1609 C1617 1.433 . S
C1610 H1606 0.929 . S
C1610 C1612 1.378 . S
C1610 C1614 1.350 . S
C1611 C1614 1.463 . S
C1611 C1616 1.350 . S
C1611 N1619 1.427 . S
C1612 H1603 0.930 . S
C1612 C1610 1.378 . S
C1612 C1613 1.367 . S
C1613 C1612 1.367 . S
C1613 C1615 1.433 . S
C1614 C1610 1.350 . S
C1614 C1611 1.463 . S
C1614 N1618 1.427 . S
C1615 H1605 0.929 . S
C1615 C1613 1.433 . S
C1615 N1618 1.384 . S
C1616 H1607 0.929 . S
C1616 C1608 1.378 . S
C1616 C1611 1.350 . S
C1617 H1604 0.929 . S
C1617 C1609 1.433 . S
C1617 N1619 1.384 . S
N1618 C1614 1.427 . S
N1618 C1615 1.384 . S
N1619 C1611 1.427 . S
N1619 C1617 1.384 . S
H1620 C1626 0.930 . S
H1621 C1630 0.930 . S
H1622 C1635 0.929 . S
H1623 C1633 0.929 . S
H1624 C1628 0.929 . S
H1625 C1634 0.929 . S
C1626 H1620 0.930 . S
C1626 C1627 1.367 . S
C1626 C1634 1.378 . S
C1627 C1626 1.367 . S
C1627 C1635 1.433 . S
C1628 H1624 0.929 . S
C1628 C1630 1.378 . S
C1628 C1632 1.350 . S
C1629 C1632 1.463 . S
C1629 C1634 1.350 . S
C1629 N1637 1.427 . S
C1630 H1621 0.930 . S
C1630 C1628 1.378 . S
C1630 C1631 1.367 . S
C1631 C1630 1.367 . S
C1631 C1633 1.433 . S
C1632 C1628 1.350 . S
C1632 C1629 1.463 . S
C1632 N1636 1.427 . S
C1633 H1623 0.929 . S
C1633 C1631 1.433 . S
C1633 N1636 1.384 . S
C1634 H1625 0.929 . S
C1634 C1626 1.378 . S
C1634 C1629 1.350 . S
C1635 H1622 0.929 . S
C1635 C1627 1.433 . S
C1635 N1637 1.384 . S
N1636 C1632 1.427 . S
N1636 C1633 1.384 . S
N1637 C1629 1.427 . S
N1637 C1635 1.384 . S
H1638 C1644 0.930 . S
H1639 C1648 0.930 . S
H1640 C1653 0.929 . S
H1641 C1651 0.929 . S
H1642 C1646 0.929 . S
H1643 C1652 0.929 . S
C1644 H1638 0.930 . S
C1644 C1645 1.367 . S
C1644 C1652 1.378 . S
C1645 C1644 1.367 . S
C1645 C1653 1.433 . S
C1646 H1642 0.929 . S
C1646 C1648 1.378 . S
C1646 C1650 1.350 . S
C1647 C1650 1.463 . S
C1647 C1652 1.350 . S
C1647 N1655 1.427 . S
C1648 H1639 0.930 . S
C1648 C1646 1.378 . S
C1648 C1649 1.367 . S
C1649 C1648 1.367 . S
C1649 C1651 1.433 . S
C1650 C1646 1.350 . S
C1650 C1647 1.463 . S
C1650 N1654 1.427 . S
C1651 H1641 0.929 . S
C1651 C1649 1.433 . S
C1651 N1654 1.384 . S
C1652 H1643 0.929 . S
C1652 C1644 1.378 . S
C1652 C1647 1.350 . S
C1653 H1640 0.929 . S
C1653 C1645 1.433 . S
C1653 N1655 1.384 . S
N1654 C1650 1.427 . S
N1654 C1651 1.384 . S
N1655 C1647 1.427 . S
N1655 C1653 1.384 . S
H1656 C1662 0.930 . S
H1657 C1666 0.930 . S
H1658 C1671 0.929 . S
H1659 C1669 0.929 . S
H1660 C1664 0.929 . S
H1661 C1670 0.929 . S
C1662 H1656 0.930 . S
C1662 C1663 1.367 . S
C1662 C1670 1.378 . S
C1663 C1662 1.367 . S
C1663 C1671 1.433 . S
C1664 H1660 0.929 . S
C1664 C1666 1.378 . S
C1664 C1668 1.350 . S
C1665 C1668 1.463 . S
C1665 C1670 1.350 . S
C1665 N1673 1.427 . S
C1666 H1657 0.930 . S
C1666 C1664 1.378 . S
C1666 C1667 1.367 . S
C1667 C1666 1.367 . S
C1667 C1669 1.433 . S
C1668 C1664 1.350 . S
C1668 C1665 1.463 . S
C1668 N1672 1.427 . S
C1669 H1659 0.929 . S
C1669 C1667 1.433 . S
C1669 N1672 1.384 . S
C1670 H1661 0.929 . S
C1670 C1662 1.378 . S
C1670 C1665 1.350 . S
C1671 H1658 0.929 . S
C1671 C1663 1.433 . S
C1671 N1673 1.384 . S
N1672 C1668 1.427 . S
N1672 C1669 1.384 . S
N1673 C1665 1.427 . S
N1673 C1671 1.384 . S
H1674 C1680 0.930 . S
H1675 C1684 0.930 . S
H1676 C1689 0.929 . S
H1677 C1687 0.929 . S
H1678 C1682 0.929 . S
H1679 C1688 0.929 . S
C1680 H1674 0.930 . S
C1680 C1681 1.367 . S
C1680 C1688 1.378 . S
C1681 C1680 1.367 . S
C1681 C1689 1.433 . S
C1682 H1678 0.929 . S
C1682 C1684 1.378 . S
C1682 C1686 1.350 . S
C1683 C1686 1.463 . S
C1683 C1688 1.350 . S
C1683 N1691 1.427 . S
C1684 H1675 0.930 . S
C1684 C1682 1.378 . S
C1684 C1685 1.367 . S
C1685 C1684 1.367 . S
C1685 C1687 1.433 . S
C1686 C1682 1.350 . S
C1686 C1683 1.463 . S
C1686 N1690 1.427 . S
C1687 H1677 0.929 . S
C1687 C1685 1.433 . S
C1687 N1690 1.384 . S
C1688 H1679 0.929 . S
C1688 C1680 1.378 . S
C1688 C1683 1.350 . S
C1689 H1676 0.929 . S
C1689 C1681 1.433 . S
C1689 N1691 1.384 . S
N1690 C1686 1.427 . S
N1690 C1687 1.384 . S
N1691 C1683 1.427 . S
N1691 C1689 1.384 . S
H1692 C1698 0.930 . S
H1693 C1702 0.930 . S
H1694 C1707 0.929 . S
H1695 C1705 0.929 . S
H1696 C1700 0.929 . S
H1697 C1706 0.929 . S
C1698 H1692 0.930 . S
C1698 C1699 1.367 . S
C1698 C1706 1.378 . S
C1699 C1698 1.367 . S
C1699 C1707 1.433 . S
C1700 H1696 0.929 . S
C1700 C1702 1.378 . S
C1700 C1704 1.350 . S
C1701 C1704 1.463 . S
C1701 C1706 1.350 . S
C1701 N1709 1.427 . S
C1702 H1693 0.930 . S
C1702 C1700 1.378 . S
C1702 C1703 1.367 . S
C1703 C1702 1.367 . S
C1703 C1705 1.433 . S
C1704 C1700 1.350 . S
C1704 C1701 1.463 . S
C1704 N1708 1.427 . S
C1705 H1695 0.929 . S
C1705 C1703 1.433 . S
C1705 N1708 1.384 . S
C1706 H1697 0.929 . S
C1706 C1698 1.378 . S
C1706 C1701 1.350 . S
C1707 H1694 0.929 . S
C1707 C1699 1.433 . S
C1707 N1709 1.384 . S
N1708 C1704 1.427 . S
N1708 C1705 1.384 . S
N1709 C1701 1.427 . S
N1709 C1707 1.384 . S
H1710 C1716 0.930 . S
H1711 C1720 0.930 . S
H1712 C1725 0.929 . S
H1713 C1723 0.929 . S
H1714 C1718 0.929 . S
H1715 C1724 0.929 . S
C1716 H1710 0.930 . S
C1716 C1717 1.367 . S
C1716 C1724 1.378 . S
C1717 C1716 1.367 . S
C1717 C1725 1.433 . S
C1718 H1714 0.929 . S
C1718 C1720 1.378 . S
C1718 C1722 1.350 . S
C1719 C1722 1.463 . S
C1719 C1724 1.350 . S
C1719 N1727 1.427 . S
C1720 H1711 0.930 . S
C1720 C1718 1.378 . S
C1720 C1721 1.367 . S
C1721 C1720 1.367 . S
C1721 C1723 1.433 . S
C1722 C1718 1.350 . S
C1722 C1719 1.463 . S
C1722 N1726 1.427 . S
C1723 H1713 0.929 . S
C1723 C1721 1.433 . S
C1723 N1726 1.384 . S
C1724 H1715 0.929 . S
C1724 C1716 1.378 . S
C1724 C1719 1.350 . S
C1725 H1712 0.929 . S
C1725 C1717 1.433 . S
C1725 N1727 1.384 . S
N1726 C1722 1.427 . S
N1726 C1723 1.384 . S
N1727 C1719 1.427 . S
N1727 C1725 1.384 . S
H1728 C1734 0.930 . S
H1729 C1738 0.930 . S
H1730 C1743 0.929 . S
H1731 C1741 0.929 . S
H1732 C1736 0.929 . S
H1733 C1742 0.929 . S
C1734 H1728 0.930 . S
C1734 C1735 1.367 . S
C1734 C1742 1.378 . S
C1735 C1734 1.367 . S
C1735 C1743 1.433 . S
C1736 H1732 0.929 . S
C1736 C1738 1.378 . S
C1736 C1740 1.350 . S
C1737 C1740 1.463 . S
C1737 C1742 1.350 . S
C1737 N1745 1.427 . S
C1738 H1729 0.930 . S
C1738 C1736 1.378 . S
C1738 C1739 1.367 . S
C1739 C1738 1.367 . S
C1739 C1741 1.433 . S
C1740 C1736 1.350 . S
C1740 C1737 1.463 . S
C1740 N1744 1.427 . S
C1741 H1731 0.929 . S
C1741 C1739 1.433 . S
C1741 N1744 1.384 . S
C1742 H1733 0.929 . S
C1742 C1734 1.378 . S
C1742 C1737 1.350 . S
C1743 H1730 0.929 . S
C1743 C1735 1.433 . S
C1743 N1745 1.384 . S
N1744 C1740 1.427 . S
N1744 C1741 1.384 . S
N1745 C1737 1.427 . S
N1745 C1743 1.384 . S
H1746 C1752 0.930 . S
H1747 C1756 0.930 . S
H1748 C1761 0.929 . S
H1749 C1759 0.929 . S
H1750 C1754 0.929 . S
H1751 C1760 0.929 . S
C1752 H1746 0.930 . S
C1752 C1753 1.367 . S
C1752 C1760 1.378 . S
C1753 C1752 1.367 . S
C1753 C1761 1.433 . S
C1754 H1750 0.929 . S
C1754 C1756 1.378 . S
C1754 C1758 1.350 . S
C1755 C1758 1.463 . S
C1755 C1760 1.350 . S
C1755 N1763 1.427 . S
C1756 H1747 0.930 . S
C1756 C1754 1.378 . S
C1756 C1757 1.367 . S
C1757 C1756 1.367 . S
C1757 C1759 1.433 . S
C1758 C1754 1.350 . S
C1758 C1755 1.463 . S
C1758 N1762 1.427 . S
C1759 H1749 0.929 . S
C1759 C1757 1.433 . S
C1759 N1762 1.384 . S
C1760 H1751 0.929 . S
C1760 C1752 1.378 . S
C1760 C1755 1.350 . S
C1761 H1748 0.929 . S
C1761 C1753 1.433 . S
C1761 N1763 1.384 . S
N1762 C1758 1.427 . S
N1762 C1759 1.384 . S
N1763 C1755 1.427 . S
N1763 C1761 1.384 . S
H1764 C1770 0.930 . S
H1765 C1774 0.930 . S
H1766 C1779 0.929 . S
H1767 C1777 0.929 . S
H1768 C1772 0.929 . S
H1769 C1778 0.929 . S
C1770 H1764 0.930 . S
C1770 C1771 1.367 . S
C1770 C1778 1.378 . S
C1771 C1770 1.367 . S
C1771 C1779 1.433 . S
C1772 H1768 0.929 . S
C1772 C1774 1.378 . S
C1772 C1776 1.350 . S
C1773 C1776 1.463 . S
C1773 C1778 1.350 . S
C1773 N1781 1.427 . S
C1774 H1765 0.930 . S
C1774 C1772 1.378 . S
C1774 C1775 1.367 . S
C1775 C1774 1.367 . S
C1775 C1777 1.433 . S
C1776 C1772 1.350 . S
C1776 C1773 1.463 . S
C1776 N1780 1.427 . S
C1777 H1767 0.929 . S
C1777 C1775 1.433 . S
C1777 N1780 1.384 . S
C1778 H1769 0.929 . S
C1778 C1770 1.378 . S
C1778 C1773 1.350 . S
C1779 H1766 0.929 . S
C1779 C1771 1.433 . S
C1779 N1781 1.384 . S
N1780 C1776 1.427 . S
N1780 C1777 1.384 . S
N1781 C1773 1.427 . S
N1781 C1779 1.384 . S
H1782 C1788 0.930 . S
H1783 C1792 0.930 . S
H1784 C1797 0.929 . S
H1785 C1795 0.929 . S
H1786 C1790 0.929 . S
H1787 C1796 0.929 . S
C1788 H1782 0.930 . S
C1788 C1789 1.367 . S
C1788 C1796 1.378 . S
C1789 C1788 1.367 . S
C1789 C1797 1.433 . S
C1790 H1786 0.929 . S
C1790 C1792 1.378 . S
C1790 C1794 1.350 . S
C1791 C1794 1.463 . S
C1791 C1796 1.350 . S
C1791 N1799 1.427 . S
C1792 H1783 0.930 . S
C1792 C1790 1.378 . S
C1792 C1793 1.367 . S
C1793 C1792 1.367 . S
C1793 C1795 1.433 . S
C1794 C1790 1.350 . S
C1794 C1791 1.463 . S
C1794 N1798 1.427 . S
C1795 H1785 0.929 . S
C1795 C1793 1.433 . S
C1795 N1798 1.384 . S
C1796 H1787 0.929 . S
C1796 C1788 1.378 . S
C1796 C1791 1.350 . S
C1797 H1784 0.929 . S
C1797 C1789 1.433 . S
C1797 N1799 1.384 . S
N1798 C1794 1.427 . S
N1798 C1795 1.384 . S
N1799 C1791 1.427 . S
N1799 C1797 1.384 . S
H1800 C1806 0.930 . S
H1801 C1810 0.930 . S
H1802 C1815 0.929 . S
H1803 C1813 0.929 . S
H1804 C1808 0.929 . S
H1805 C1814 0.929 . S
C1806 H1800 0.930 . S
C1806 C1807 1.367 . S
C1806 C1814 1.378 . S
C1807 C1806 1.367 . S
C1807 C1815 1.433 . S
C1808 H1804 0.929 . S
C1808 C1810 1.378 . S
C1808 C1812 1.350 . S
C1809 C1812 1.463 . S
C1809 C1814 1.350 . S
C1809 N1817 1.427 . S
C1810 H1801 0.930 . S
C1810 C1808 1.378 . S
C1810 C1811 1.367 . S
C1811 C1810 1.367 . S
C1811 C1813 1.433 . S
C1812 C1808 1.350 . S
C1812 C1809 1.463 . S
C1812 N1816 1.427 . S
C1813 H1803 0.929 . S
C1813 C1811 1.433 . S
C1813 N1816 1.384 . S
C1814 H1805 0.929 . S
C1814 C1806 1.378 . S
C1814 C1809 1.350 . S
C1815 H1802 0.929 . S
C1815 C1807 1.433 . S
C1815 N1817 1.384 . S
N1816 C1812 1.427 . S
N1816 C1813 1.384 . S
N1817 C1809 1.427 . S
N1817 C1815 1.384 . S
H1818 C1824 0.930 . S
H1819 C1828 0.930 . S
H1820 C1833 0.929 . S
H1821 C1831 0.929 . S
H1822 C1826 0.929 . S
H1823 C1832 0.929 . S
C1824 H1818 0.930 . S
C1824 C1825 1.367 . S
C1824 C1832 1.378 . S
C1825 C1824 1.367 . S
C1825 C1833 1.433 . S
C1826 H1822 0.929 . S
C1826 C1828 1.378 . S
C1826 C1830 1.350 . S
C1827 C1830 1.463 . S
C1827 C1832 1.350 . S
C1827 N1835 1.427 . S
C1828 H1819 0.930 . S
C1828 C1826 1.378 . S
C1828 C1829 1.367 . S
C1829 C1828 1.367 . S
C1829 C1831 1.433 . S
C1830 C1826 1.350 . S
C1830 C1827 1.463 . S
C1830 N1834 1.427 . S
C1831 H1821 0.929 . S
C1831 C1829 1.433 . S
C1831 N1834 1.384 . S
C1832 H1823 0.929 . S
C1832 C1824 1.378 . S
C1832 C1827 1.350 . S
C1833 H1820 0.929 . S
C1833 C1825 1.433 . S
C1833 N1835 1.384 . S
N1834 C1830 1.427 . S
N1834 C1831 1.384 . S
N1835 C1827 1.427 . S
N1835 C1833 1.384 . S
H1836 C1842 0.930 . S
H1837 C1846 0.930 . S
H1838 C1851 0.929 . S
H1839 C1849 0.929 . S
H1840 C1844 0.929 . S
H1841 C1850 0.929 . S
C1842 H1836 0.930 . S
C1842 C1843 1.367 . S
C1842 C1850 1.378 . S
C1843 C1842 1.367 . S
C1843 C1851 1.433 . S
C1844 H1840 0.929 . S
C1844 C1846 1.378 . S
C1844 C1848 1.350 . S
C1845 C1848 1.463 . S
C1845 C1850 1.350 . S
C1845 N1853 1.427 . S
C1846 H1837 0.930 . S
C1846 C1844 1.378 . S
C1846 C1847 1.367 . S
C1847 C1846 1.367 . S
C1847 C1849 1.433 . S
C1848 C1844 1.350 . S
C1848 C1845 1.463 . S
C1848 N1852 1.427 . S
C1849 H1839 0.929 . S
C1849 C1847 1.433 . S
C1849 N1852 1.384 . S
C1850 H1841 0.929 . S
C1850 C1842 1.378 . S
C1850 C1845 1.350 . S
C1851 H1838 0.929 . S
C1851 C1843 1.433 . S
C1851 N1853 1.384 . S
N1852 C1848 1.427 . S
N1852 C1849 1.384 . S
N1853 C1845 1.427 . S
N1853 C1851 1.384 . S
H1854 C1860 0.930 . S
H1855 C1864 0.930 . S
H1856 C1869 0.929 . S
H1857 C1867 0.929 . S
H1858 C1862 0.929 . S
H1859 C1868 0.929 . S
C1860 H1854 0.930 . S
C1860 C1861 1.367 1_565 S
C1860 C1868 1.378 . S
C1861 C1860 1.367 1_545 S
C1861 C1869 1.433 . S
C1862 H1858 0.929 . S
C1862 C1864 1.378 . S
C1862 C1866 1.350 1_545 S
C1863 C1866 1.463 1_545 S
C1863 C1868 1.350 1_545 S
C1863 N1871 1.427 . S
C1864 H1855 0.930 . S
C1864 C1862 1.378 . S
C1864 C1865 1.367 1_545 S
C1865 C1864 1.367 1_565 S
C1865 C1867 1.433 . S
C1866 C1862 1.350 1_565 S
C1866 C1863 1.463 1_565 S
C1866 N1870 1.427 . S
C1867 H1857 0.929 . S
C1867 C1865 1.433 . S
C1867 N1870 1.384 . S
C1868 H1859 0.929 . S
C1868 C1860 1.378 . S
C1868 C1863 1.350 1_565 S
C1869 H1856 0.929 . S
C1869 C1861 1.433 . S
C1869 N1871 1.384 . S
N1870 C1866 1.427 . S
N1870 C1867 1.384 . S
N1871 C1863 1.427 . S
N1871 C1869 1.384 . S
H1872 C1878 0.930 . S
H1873 C1882 0.930 . S
H1874 C1887 0.929 . S
H1875 C1885 0.929 . S
H1876 C1880 0.929 . S
H1877 C1886 0.929 . S
C1878 H1872 0.930 . S
C1878 C1879 1.367 1_455 S
C1878 C1886 1.378 . S
C1879 C1878 1.367 1_655 S
C1879 C1887 1.433 . S
C1880 H1876 0.929 . S
C1880 C1882 1.378 . S
C1880 C1884 1.350 1_655 S
C1881 C1884 1.463 1_655 S
C1881 C1886 1.350 1_655 S
C1881 N1889 1.427 . S
C1882 H1873 0.930 . S
C1882 C1880 1.378 . S
C1882 C1883 1.367 1_655 S
C1883 C1882 1.367 1_455 S
C1883 C1885 1.433 . S
C1884 C1880 1.350 1_455 S
C1884 C1881 1.463 1_455 S
C1884 N1888 1.427 . S
C1885 H1875 0.929 . S
C1885 C1883 1.433 . S
C1885 N1888 1.384 . S
C1886 H1877 0.929 . S
C1886 C1878 1.378 . S
C1886 C1881 1.350 1_455 S
C1887 H1874 0.929 . S
C1887 C1879 1.433 . S
C1887 N1889 1.384 . S
N1888 C1884 1.427 . S
N1888 C1885 1.384 . S
N1889 C1881 1.427 . S
N1889 C1887 1.384 . S
H1890 C1896 0.930 . S
H1891 C1900 0.930 . S
H1892 C1905 0.929 . S
H1893 C1903 0.929 . S
H1894 C1898 0.929 . S
H1895 C1904 0.929 . S
C1896 H1890 0.930 . S
C1896 C1897 1.367 . S
C1896 C1904 1.378 . S
C1897 C1896 1.367 . S
C1897 C1905 1.433 . S
C1898 H1894 0.929 . S
C1898 C1900 1.378 . S
C1898 C1902 1.350 . S
C1899 C1902 1.463 . S
C1899 C1904 1.350 . S
C1899 N1907 1.427 . S
C1900 H1891 0.930 . S
C1900 C1898 1.378 . S
C1900 C1901 1.367 . S
C1901 C1900 1.367 . S
C1901 C1903 1.433 . S
C1902 C1898 1.350 . S
C1902 C1899 1.463 . S
C1902 N1906 1.427 . S
C1903 H1893 0.929 . S
C1903 C1901 1.433 . S
C1903 N1906 1.384 . S
C1904 H1895 0.929 . S
C1904 C1896 1.378 . S
C1904 C1899 1.350 . S
C1905 H1892 0.929 . S
C1905 C1897 1.433 . S
C1905 N1907 1.384 . S
N1906 C1902 1.427 . S
N1906 C1903 1.384 . S
N1907 C1899 1.427 . S
N1907 C1905 1.384 . S
H1908 C1914 0.930 . S
H1909 C1918 0.930 . S
H1910 C1923 0.929 . S
H1911 C1921 0.929 . S
H1912 C1916 0.929 . S
H1913 C1922 0.929 . S
C1914 H1908 0.930 . S
C1914 C1915 1.367 . S
C1914 C1922 1.378 . S
C1915 C1914 1.367 . S
C1915 C1923 1.433 1_545 S
C1916 H1912 0.929 . S
C1916 C1918 1.378 . S
C1916 C1920 1.350 . S
C1917 C1920 1.463 1_545 S
C1917 C1922 1.350 . S
C1917 N1925 1.427 1_545 S
C1918 H1909 0.930 . S
C1918 C1916 1.378 . S
C1918 C1919 1.367 . S
C1919 C1918 1.367 . S
C1919 C1921 1.433 1_565 S
C1920 C1916 1.350 . S
C1920 C1917 1.463 1_565 S
C1920 N1924 1.427 1_565 S
C1921 H1911 0.929 . S
C1921 C1919 1.433 1_545 S
C1921 N1924 1.384 . S
C1922 H1913 0.929 . S
C1922 C1914 1.378 . S
C1922 C1917 1.350 . S
C1923 H1910 0.929 . S
C1923 C1915 1.433 1_565 S
C1923 N1925 1.384 . S
N1924 C1920 1.427 1_545 S
N1924 C1921 1.384 . S
N1925 C1917 1.427 1_565 S
N1925 C1923 1.384 . S
H1926 C1932 0.930 . S
H1927 C1936 0.930 . S
H1928 C1941 0.929 . S
H1929 C1939 0.929 . S
H1930 C1934 0.929 . S
H1931 C1940 0.929 . S
C1932 H1926 0.930 . S
C1932 C1933 1.367 . S
C1932 C1940 1.378 . S
C1933 C1932 1.367 . S
C1933 C1941 1.433 . S
C1934 H1930 0.929 . S
C1934 C1936 1.378 . S
C1934 C1938 1.350 . S
C1935 C1938 1.463 1_655 S
C1935 C1940 1.350 . S
C1935 N1943 1.427 . S
C1936 H1927 0.930 . S
C1936 C1934 1.378 . S
C1936 C1937 1.367 . S
C1937 C1936 1.367 . S
C1937 C1939 1.433 . S
C1938 C1934 1.350 . S
C1938 C1935 1.463 1_455 S
C1938 N1942 1.427 . S
C1939 H1929 0.929 . S
C1939 C1937 1.433 . S
C1939 N1942 1.384 . S
C1940 H1931 0.929 . S
C1940 C1932 1.378 . S
C1940 C1935 1.350 . S
C1941 H1928 0.929 . S
C1941 C1933 1.433 . S
C1941 N1943 1.384 . S
N1942 C1938 1.427 . S
N1942 C1939 1.384 . S
N1943 C1935 1.427 . S
N1943 C1941 1.384 . S
H1944 C1950 0.930 . S
H1945 C1954 0.930 . S
H1946 C1959 0.929 . S
H1947 C1957 0.929 . S
H1948 C1952 0.929 . S
H1949 C1958 0.929 . S
C1950 H1944 0.930 . S
C1950 C1951 1.367 . S
C1950 C1958 1.378 . S
C1951 C1950 1.367 . S
C1951 C1959 1.433 . S
C1952 H1948 0.929 . S
C1952 C1954 1.378 . S
C1952 C1956 1.350 . S
C1953 C1956 1.463 . S
C1953 C1958 1.350 . S
C1953 N1961 1.427 . S
C1954 H1945 0.930 . S
C1954 C1952 1.378 . S
C1954 C1955 1.367 . S
C1955 C1954 1.367 . S
C1955 C1957 1.433 . S
C1956 C1952 1.350 . S
C1956 C1953 1.463 . S
C1956 N1960 1.427 . S
C1957 H1947 0.929 . S
C1957 C1955 1.433 . S
C1957 N1960 1.384 . S
C1958 H1949 0.929 . S
C1958 C1950 1.378 . S
C1958 C1953 1.350 . S
C1959 H1946 0.929 . S
C1959 C1951 1.433 . S
C1959 N1961 1.384 . S
N1960 C1956 1.427 . S
N1960 C1957 1.384 . S
N1961 C1953 1.427 . S
N1961 C1959 1.384 . S
H1962 C1968 0.930 . S
H1963 C1972 0.930 . S
H1964 C1977 0.929 . S
H1965 C1975 0.929 . S
H1966 C1970 0.929 . S
H1967 C1976 0.929 . S
C1968 H1962 0.930 . S
C1968 C1969 1.367 . S
C1968 C1976 1.378 . S
C1969 C1968 1.367 . S
C1969 C1977 1.433 . S
C1970 H1966 0.929 . S
C1970 C1972 1.378 . S
C1970 C1974 1.350 . S
C1971 C1974 1.463 . S
C1971 C1976 1.350 . S
C1971 N1979 1.427 . S
C1972 H1963 0.930 . S
C1972 C1970 1.378 . S
C1972 C1973 1.367 . S
C1973 C1972 1.367 . S
C1973 C1975 1.433 . S
C1974 C1970 1.350 . S
C1974 C1971 1.463 . S
C1974 N1978 1.427 . S
C1975 H1965 0.929 . S
C1975 C1973 1.433 . S
C1975 N1978 1.384 . S
C1976 H1967 0.929 . S
C1976 C1968 1.378 . S
C1976 C1971 1.350 . S
C1977 H1964 0.929 . S
C1977 C1969 1.433 . S
C1977 N1979 1.384 . S
N1978 C1974 1.427 . S
N1978 C1975 1.384 . S
N1979 C1971 1.427 . S
N1979 C1977 1.384 . S
H1980 C1986 0.930 . S
H1981 C1990 0.930 . S
H1982 C1995 0.929 . S
H1983 C1993 0.929 . S
H1984 C1988 0.929 . S
H1985 C1994 0.929 . S
C1986 H1980 0.930 . S
C1986 C1987 1.367 . S
C1986 C1994 1.378 . S
C1987 C1986 1.367 . S
C1987 C1995 1.433 . S
C1988 H1984 0.929 . S
C1988 C1990 1.378 . S
C1988 C1992 1.350 . S
C1989 C1992 1.463 . S
C1989 C1994 1.350 . S
C1989 N1997 1.427 . S
C1990 H1981 0.930 . S
C1990 C1988 1.378 . S
C1990 C1991 1.367 . S
C1991 C1990 1.367 . S
C1991 C1993 1.433 . S
C1992 C1988 1.350 . S
C1992 C1989 1.463 . S
C1992 N1996 1.427 . S
C1993 H1983 0.929 . S
C1993 C1991 1.433 . S
C1993 N1996 1.384 . S
C1994 H1985 0.929 . S
C1994 C1986 1.378 . S
C1994 C1989 1.350 . S
C1995 H1982 0.929 . S
C1995 C1987 1.433 . S
C1995 N1997 1.384 . S
N1996 C1992 1.427 . S
N1996 C1993 1.384 . S
N1997 C1989 1.427 . S
N1997 C1995 1.384 . S
H1998 C2004 0.930 . S
H1999 C2008 0.943 . S
H2000 C2013 0.929 . S
H2001 C2011 0.929 . S
H2002 C2006 0.929 . S
H2003 C2012 0.929 . S
C2004 H1998 0.930 . S
C2004 C2005 1.367 . S
C2004 C2012 1.378 . S
C2005 C2004 1.367 . S
C2005 C2013 1.433 . S
C2006 H2002 0.929 . S
C2006 C2008 1.378 . S
C2006 C2010 1.350 . S
C2007 C2010 1.463 . S
C2007 C2012 1.350 . S
C2007 N2015 1.427 . S
C2008 H1999 0.943 . S
C2008 C2006 1.378 . S
C2008 C2009 1.367 1_554 S
C2009 C2008 1.367 1_556 S
C2009 C2011 1.433 1_556 S
C2010 C2006 1.350 . S
C2010 C2007 1.463 . S
C2010 N2014 1.427 . S
C2011 H2001 0.929 . S
C2011 C2009 1.433 1_554 S
C2011 N2014 1.384 . S
C2012 H2003 0.929 . S
C2012 C2004 1.378 . S
C2012 C2007 1.350 . S
C2013 H2000 0.929 . S
C2013 C2005 1.433 . S
C2013 N2015 1.384 . S
N2014 C2010 1.427 . S
N2014 C2011 1.384 . S
N2015 C2007 1.427 . S
N2015 C2013 1.384 . S
H2016 C2022 0.930 . S
H2017 C2026 0.930 . S
H2018 C2031 0.929 1_556 S
H2019 C2029 0.929 . S
H2020 C2024 0.929 . S
H2021 C2030 0.929 . S
C2022 H2016 0.930 . S
C2022 C2023 1.367 1_554 S
C2022 C2030 1.378 . S
C2023 C2022 1.367 1_556 S
C2023 C2031 1.433 1_556 S
C2024 H2020 0.929 . S
C2024 C2026 1.378 . S
C2024 C2028 1.350 . S
C2025 C2028 1.463 . S
C2025 C2030 1.350 . S
C2025 N2033 1.427 . S
C2026 H2017 0.930 . S
C2026 C2024 1.378 . S
C2026 C2027 1.367 . S
C2027 C2026 1.367 . S
C2027 C2029 1.433 . S
C2028 C2024 1.350 . S
C2028 C2025 1.463 . S
C2028 N2032 1.427 . S
C2029 H2019 0.929 . S
C2029 C2027 1.433 . S
C2029 N2032 1.384 . S
C2030 H2021 0.929 . S
C2030 C2022 1.378 . S
C2030 C2025 1.350 . S
C2031 H2018 0.929 1_554 S
C2031 C2023 1.433 1_554 S
C2031 N2033 1.384 . S
N2032 C2028 1.427 . S
N2032 C2029 1.384 . S
N2033 C2025 1.427 . S
N2033 C2031 1.384 . S
H2034 C2040 0.930 . S
H2035 C2044 0.930 . S
H2036 C2049 0.929 1_556 S
H2037 C2047 0.929 . S
H2038 C2042 0.929 . S
H2039 C2048 0.929 . S
C2040 H2034 0.930 . S
C2040 C2041 1.367 1_554 S
C2040 C2048 1.378 . S
C2041 C2040 1.367 1_556 S
C2041 C2049 1.433 1_556 S
C2042 H2038 0.929 . S
C2042 C2044 1.378 . S
C2042 C2046 1.350 . S
C2043 C2046 1.463 . S
C2043 C2048 1.350 . S
C2043 N2051 1.427 . S
C2044 H2035 0.930 . S
C2044 C2042 1.378 . S
C2044 C2045 1.367 . S
C2045 C2044 1.367 . S
C2045 C2047 1.433 . S
C2046 C2042 1.350 . S
C2046 C2043 1.463 . S
C2046 N2050 1.427 . S
C2047 H2037 0.929 . S
C2047 C2045 1.433 . S
C2047 N2050 1.384 . S
C2048 H2039 0.929 . S
C2048 C2040 1.378 . S
C2048 C2043 1.350 . S
C2049 H2036 0.929 1_554 S
C2049 C2041 1.433 1_554 S
C2049 N2051 1.384 . S
N2050 C2046 1.427 . S
N2050 C2047 1.384 . S
N2051 C2043 1.427 . S
N2051 C2049 1.384 . S
H2052 C2058 0.930 . S
H2053 C2062 0.930 . S
H2054 C2067 0.929 1_554 S
H2055 C2065 0.929 . S
H2056 C2060 0.929 . S
H2057 C2066 0.929 . S
C2058 H2052 0.930 . S
C2058 C2059 1.367 1_556 S
C2058 C2066 1.378 . S
C2059 C2058 1.367 1_554 S
C2059 C2067 1.433 1_554 S
C2060 H2056 0.929 . S
C2060 C2062 1.378 . S
C2060 C2064 1.350 . S
C2061 C2064 1.463 . S
C2061 C2066 1.350 . S
C2061 N2069 1.427 . S
C2062 H2053 0.930 . S
C2062 C2060 1.378 . S
C2062 C2063 1.367 . S
C2063 C2062 1.367 . S
C2063 C2065 1.433 . S
C2064 C2060 1.350 . S
C2064 C2061 1.463 . S
C2064 N2068 1.427 . S
C2065 H2055 0.929 . S
C2065 C2063 1.433 . S
C2065 N2068 1.384 . S
C2066 H2057 0.929 . S
C2066 C2058 1.378 . S
C2066 C2061 1.350 . S
C2067 H2054 0.929 1_556 S
C2067 C2059 1.433 1_556 S
C2067 N2069 1.384 . S
N2068 C2064 1.427 . S
N2068 C2065 1.384 . S
N2069 C2061 1.427 . S
N2069 C2067 1.384 . S
H2070 C2076 0.930 1_554 S
H2071 C2080 0.930 . S
H2072 C2085 0.929 . S
H2073 C2083 0.929 . S
H2074 C2078 0.929 . S
H2075 C2084 0.929 . S
C2076 H2070 0.930 1_556 S
C2076 C2077 1.367 1_556 S
C2076 C2084 1.378 . S
C2077 C2076 1.367 1_554 S
C2077 C2085 1.433 1_554 S
C2078 H2074 0.929 . S
C2078 C2080 1.378 . S
C2078 C2082 1.350 . S
C2079 C2082 1.463 . S
C2079 C2084 1.350 . S
C2079 N2087 1.427 . S
C2080 H2071 0.930 . S
C2080 C2078 1.378 . S
C2080 C2081 1.367 . S
C2081 C2080 1.367 . S
C2081 C2083 1.433 . S
C2082 C2078 1.350 . S
C2082 C2079 1.463 . S
C2082 N2086 1.427 . S
C2083 H2073 0.929 . S
C2083 C2081 1.433 . S
C2083 N2086 1.384 . S
C2084 H2075 0.929 . S
C2084 C2076 1.378 . S
C2084 C2079 1.350 . S
C2085 H2072 0.929 . S
C2085 C2077 1.433 1_556 S
C2085 N2087 1.384 . S
N2086 C2082 1.427 . S
N2086 C2083 1.384 . S
N2087 C2079 1.427 . S
N2087 C2085 1.384 . S
H2088 C2094 0.930 1_554 S
H2089 C2098 0.930 . S
H2090 C2103 0.929 . S
H2091 C2101 0.929 . S
H2092 C2096 0.929 . S
H2093 C2102 0.929 . S
C2094 H2088 0.930 1_556 S
C2094 C2095 1.367 1_556 S
C2094 C2102 1.378 . S
C2095 C2094 1.367 1_554 S
C2095 C2103 1.433 1_554 S
C2096 H2092 0.929 . S
C2096 C2098 1.378 . S
C2096 C2100 1.350 . S
C2097 C2100 1.463 . S
C2097 C2102 1.350 . S
C2097 N2105 1.427 . S
C2098 H2089 0.930 . S
C2098 C2096 1.378 . S
C2098 C2099 1.367 . S
C2099 C2098 1.367 . S
C2099 C2101 1.433 . S
C2100 C2096 1.350 . S
C2100 C2097 1.463 . S
C2100 N2104 1.427 . S
C2101 H2091 0.929 . S
C2101 C2099 1.433 . S
C2101 N2104 1.384 . S
C2102 H2093 0.929 . S
C2102 C2094 1.378 . S
C2102 C2097 1.350 . S
C2103 H2090 0.929 . S
C2103 C2095 1.433 1_556 S
C2103 N2105 1.384 . S
N2104 C2100 1.427 . S
N2104 C2101 1.384 . S
N2105 C2097 1.427 . S
N2105 C2103 1.384 . S
H2106 C2112 0.930 . S
H2107 C2116 0.930 . S
H2108 C2121 0.929 . S
H2109 C2119 0.929 . S
H2110 C2114 0.929 . S
H2111 C2120 0.929 . S
C2112 H2106 0.930 . S
C2112 C2113 1.367 . S
C2112 C2120 1.378 . S
C2113 C2112 1.367 . S
C2113 C2121 1.433 . S
C2114 H2110 0.929 . S
C2114 C2116 1.378 . S
C2114 C2118 1.350 . S
C2115 C2118 1.463 . S
C2115 C2120 1.350 . S
C2115 N2123 1.427 . S
C2116 H2107 0.930 . S
C2116 C2114 1.378 . S
C2116 C2117 1.367 . S
C2117 C2116 1.367 . S
C2117 C2119 1.433 . S
C2118 C2114 1.350 . S
C2118 C2115 1.463 . S
C2118 N2122 1.427 . S
C2119 H2109 0.929 . S
C2119 C2117 1.433 . S
C2119 N2122 1.384 . S
C2120 H2111 0.929 . S
C2120 C2112 1.378 . S
C2120 C2115 1.350 . S
C2121 H2108 0.929 . S
C2121 C2113 1.433 . S
C2121 N2123 1.384 . S
N2122 C2118 1.427 . S
N2122 C2119 1.384 . S
N2123 C2115 1.427 . S
N2123 C2121 1.384 . S
H2124 C2130 0.930 . S
H2125 C2134 0.930 . S
H2126 C2139 0.929 . S
H2127 C2137 0.929 . S
H2128 C2132 0.929 . S
H2129 C2138 0.929 . S
C2130 H2124 0.930 . S
C2130 C2131 1.367 . S
C2130 C2138 1.378 . S
C2131 C2130 1.367 . S
C2131 C2139 1.433 . S
C2132 H2128 0.929 . S
C2132 C2134 1.378 . S
C2132 C2136 1.350 . S
C2133 C2136 1.463 . S
C2133 C2138 1.350 . S
C2133 N2141 1.427 . S
C2134 H2125 0.930 . S
C2134 C2132 1.378 . S
C2134 C2135 1.367 . S
C2135 C2134 1.367 . S
C2135 C2137 1.433 . S
C2136 C2132 1.350 . S
C2136 C2133 1.463 . S
C2136 N2140 1.427 . S
C2137 H2127 0.929 . S
C2137 C2135 1.433 . S
C2137 N2140 1.384 . S
C2138 H2129 0.929 . S
C2138 C2130 1.378 . S
C2138 C2133 1.350 . S
C2139 H2126 0.929 . S
C2139 C2131 1.433 . S
C2139 N2141 1.384 . S
N2140 C2136 1.427 . S
N2140 C2137 1.384 . S
N2141 C2133 1.427 . S
N2141 C2139 1.384 . S
H2142 C2148 0.930 . S
H2143 C2152 0.930 . S
H2144 C2157 0.929 . S
H2145 C2155 0.929 . S
H2146 C2150 0.929 . S
H2147 C2156 0.929 . S
C2148 H2142 0.930 . S
C2148 C2149 1.367 . S
C2148 C2156 1.378 . S
C2149 C2148 1.367 . S
C2149 C2157 1.433 . S
C2150 H2146 0.929 . S
C2150 C2152 1.378 . S
C2150 C2154 1.350 . S
C2151 C2154 1.463 . S
C2151 C2156 1.350 . S
C2151 N2159 1.427 . S
C2152 H2143 0.930 . S
C2152 C2150 1.378 . S
C2152 C2153 1.367 . S
C2153 C2152 1.367 . S
C2153 C2155 1.433 . S
C2154 C2150 1.350 . S
C2154 C2151 1.463 . S
C2154 N2158 1.427 . S
C2155 H2145 0.929 . S
C2155 C2153 1.433 . S
C2155 N2158 1.384 . S
C2156 H2147 0.929 . S
C2156 C2148 1.378 . S
C2156 C2151 1.350 . S
C2157 H2144 0.929 . S
C2157 C2149 1.433 . S
C2157 N2159 1.384 . S
N2158 C2154 1.427 . S
N2158 C2155 1.384 . S
N2159 C2151 1.427 . S
N2159 C2157 1.384 . S
H2160 C2166 0.952 . S
H2161 C2170 0.930 . S
H2162 C2175 0.929 . S
H2163 C2173 0.929 . S
H2164 C2168 0.929 . S
H2165 C2174 0.929 . S
C2166 H2160 0.952 . S
C2166 C2167 1.367 . S
C2166 C2174 1.378 . S
C2167 C2166 1.367 . S
C2167 C2175 1.433 . S
C2168 H2164 0.929 . S
C2168 C2170 1.378 . S
C2168 C2172 1.350 . S
C2169 C2172 1.463 . S
C2169 C2174 1.350 . S
C2169 N2177 1.427 . S
C2170 H2161 0.930 . S
C2170 C2168 1.378 . S
C2170 C2171 1.367 . S
C2171 C2170 1.367 . S
C2171 C2173 1.433 . S
C2172 C2168 1.350 . S
C2172 C2169 1.463 . S
C2172 N2176 1.427 . S
C2173 H2163 0.929 . S
C2173 C2171 1.433 . S
C2173 N2176 1.384 . S
C2174 H2165 0.929 . S
C2174 C2166 1.378 . S
C2174 C2169 1.350 . S
C2175 H2162 0.929 . S
C2175 C2167 1.433 . S
C2175 N2177 1.384 . S
N2176 C2172 1.427 . S
N2176 C2173 1.384 . S
N2177 C2169 1.427 . S
N2177 C2175 1.384 . S
H2178 C2184 0.930 . S
H2179 C2188 0.930 . S
H2180 C2193 0.929 . S
H2181 C2191 0.929 1_554 S
H2182 C2186 0.929 . S
H2183 C2192 0.929 . S
C2184 H2178 0.930 . S
C2184 C2185 1.367 . S
C2184 C2192 1.378 . S
C2185 C2184 1.367 . S
C2185 C2193 1.433 . S
C2186 H2182 0.929 . S
C2186 C2188 1.378 . S
C2186 C2190 1.350 . S
C2187 C2190 1.463 . S
C2187 C2192 1.350 . S
C2187 N2195 1.427 . S
C2188 H2179 0.930 . S
C2188 C2186 1.378 . S
C2188 C2189 1.367 . S
C2189 C2188 1.367 . S
C2189 C2191 1.433 . S
C2190 C2186 1.350 . S
C2190 C2187 1.463 . S
C2190 N2194 1.427 . S
C2191 H2181 0.929 1_556 S
C2191 C2189 1.433 . S
C2191 N2194 1.384 . S
C2192 H2183 0.929 . S
C2192 C2184 1.378 . S
C2192 C2187 1.350 . S
C2193 H2180 0.929 . S
C2193 C2185 1.433 . S
C2193 N2195 1.384 . S
N2194 C2190 1.427 . S
N2194 C2191 1.384 . S
N2195 C2187 1.427 . S
N2195 C2193 1.384 . S
H2196 C2202 0.930 1_554 S
H2197 C2206 0.930 . S
H2198 C2211 0.929 . S
H2199 C2209 0.929 . S
H2200 C2204 0.929 . S
H2201 C2210 0.929 . S
C2202 H2196 0.930 1_556 S
C2202 C2203 1.367 . S
C2202 C2210 1.378 . S
C2203 C2202 1.367 . S
C2203 C2211 1.433 . S
C2204 H2200 0.929 . S
C2204 C2206 1.378 . S
C2204 C2208 1.350 . S
C2205 C2208 1.463 . S
C2205 C2210 1.350 . S
C2205 N2213 1.427 . S
C2206 H2197 0.930 . S
C2206 C2204 1.378 . S
C2206 C2207 1.367 . S
C2207 C2206 1.367 . S
C2207 C2209 1.433 . S
C2208 C2204 1.350 . S
C2208 C2205 1.463 . S
C2208 N2212 1.427 . S
C2209 H2199 0.929 . S
C2209 C2207 1.433 . S
C2209 N2212 1.384 . S
C2210 H2201 0.929 . S
C2210 C2202 1.378 . S
C2210 C2205 1.350 . S
C2211 H2198 0.929 . S
C2211 C2203 1.433 . S
C2211 N2213 1.384 . S
N2212 C2208 1.427 . S
N2212 C2209 1.384 . S
N2213 C2205 1.427 . S
N2213 C2211 1.384 . S
H2214 C2220 0.930 . S
H2215 C2224 0.930 . S
H2216 C2229 0.929 . S
H2217 C2227 0.929 . S
H2218 C2222 0.929 . S
H2219 C2228 0.929 . S
C2220 H2214 0.930 . S
C2220 C2221 1.367 . S
C2220 C2228 1.378 . S
C2221 C2220 1.367 . S
C2221 C2229 1.433 . S
C2222 H2218 0.929 . S
C2222 C2224 1.378 . S
C2222 C2226 1.350 . S
C2223 C2226 1.463 . S
C2223 C2228 1.350 . S
C2223 N2231 1.427 . S
C2224 H2215 0.930 . S
C2224 C2222 1.378 . S
C2224 C2225 1.367 . S
C2225 C2224 1.367 . S
C2225 C2227 1.433 . S
C2226 C2222 1.350 . S
C2226 C2223 1.463 . S
C2226 N2230 1.427 . S
C2227 H2217 0.929 . S
C2227 C2225 1.433 . S
C2227 N2230 1.384 . S
C2228 H2219 0.929 . S
C2228 C2220 1.378 . S
C2228 C2223 1.350 . S
C2229 H2216 0.929 . S
C2229 C2221 1.433 . S
C2229 N2231 1.384 . S
N2230 C2226 1.427 . S
N2230 C2227 1.384 . S
N2231 C2223 1.427 . S
N2231 C2229 1.384 . S
H2232 C2238 0.930 . S
H2233 C2242 0.930 . S
H2234 C2247 0.929 . S
H2235 C2245 0.929 . S
H2236 C2240 0.929 . S
H2237 C2246 0.929 . S
C2238 H2232 0.930 . S
C2238 C2239 1.367 . S
C2238 C2246 1.378 . S
C2239 C2238 1.367 . S
C2239 C2247 1.433 . S
C2240 H2236 0.929 . S
C2240 C2242 1.378 . S
C2240 C2244 1.350 . S
C2241 C2244 1.463 . S
C2241 C2246 1.350 . S
C2241 N2249 1.427 . S
C2242 H2233 0.930 . S
C2242 C2240 1.378 . S
C2242 C2243 1.367 . S
C2243 C2242 1.367 . S
C2243 C2245 1.433 . S
C2244 C2240 1.350 . S
C2244 C2241 1.463 . S
C2244 N2248 1.427 . S
C2245 H2235 0.929 . S
C2245 C2243 1.433 . S
C2245 N2248 1.384 . S
C2246 H2237 0.929 . S
C2246 C2238 1.378 . S
C2246 C2241 1.350 . S
C2247 H2234 0.929 . S
C2247 C2239 1.433 . S
C2247 N2249 1.384 . S
N2248 C2244 1.427 . S
N2248 C2245 1.384 . S
N2249 C2241 1.427 . S
N2249 C2247 1.384 . S
H2250 C2256 0.930 . S
H2251 C2260 0.930 . S
H2252 C2265 0.929 . S
H2253 C2263 0.929 . S
H2254 C2258 0.929 . S
H2255 C2264 0.929 . S
C2256 H2250 0.930 . S
C2256 C2257 1.367 . S
C2256 C2264 1.378 . S
C2257 C2256 1.367 . S
C2257 C2265 1.433 . S
C2258 H2254 0.929 . S
C2258 C2260 1.378 . S
C2258 C2262 1.350 . S
C2259 C2262 1.463 . S
C2259 C2264 1.350 . S
C2259 N2267 1.427 . S
C2260 H2251 0.930 . S
C2260 C2258 1.378 . S
C2260 C2261 1.367 . S
C2261 C2260 1.367 . S
C2261 C2263 1.433 . S
C2262 C2258 1.350 . S
C2262 C2259 1.463 . S
C2262 N2266 1.427 . S
C2263 H2253 0.929 . S
C2263 C2261 1.433 . S
C2263 N2266 1.384 . S
C2264 H2255 0.929 . S
C2264 C2256 1.378 . S
C2264 C2259 1.350 . S
C2265 H2252 0.929 . S
C2265 C2257 1.433 . S
C2265 N2267 1.384 . S
N2266 C2262 1.427 . S
N2266 C2263 1.384 . S
N2267 C2259 1.427 . S
N2267 C2265 1.384 . S
H2268 C2274 0.930 . S
H2269 C2278 0.930 1_556 S
H2270 C2283 0.929 . S
H2271 C2281 0.929 . S
H2272 C2276 0.929 . S
H2273 C2282 0.929 . S
C2274 H2268 0.930 . S
C2274 C2275 1.367 . S
C2274 C2282 1.378 . S
C2275 C2274 1.367 . S
C2275 C2283 1.433 . S
C2276 H2272 0.929 . S
C2276 C2278 1.378 . S
C2276 C2280 1.350 . S
C2277 C2280 1.463 . S
C2277 C2282 1.350 . S
C2277 N2285 1.427 . S
C2278 H2269 0.930 1_554 S
C2278 C2276 1.378 . S
C2278 C2279 1.367 . S
C2279 C2278 1.367 . S
C2279 C2281 1.433 . S
C2280 C2276 1.350 . S
C2280 C2277 1.463 . S
C2280 N2284 1.427 . S
C2281 H2271 0.929 . S
C2281 C2279 1.433 . S
C2281 N2284 1.384 . S
C2282 H2273 0.929 . S
C2282 C2274 1.378 . S
C2282 C2277 1.350 . S
C2283 H2270 0.929 . S
C2283 C2275 1.433 . S
C2283 N2285 1.384 . S
N2284 C2280 1.427 . S
N2284 C2281 1.384 . S
N2285 C2277 1.427 . S
N2285 C2283 1.384 . S
H2286 C2292 0.930 1_556 S
H2287 C2296 0.930 . S
H2288 C2301 0.929 . S
H2289 C2299 0.929 . S
H2290 C2294 0.929 . S
H2291 C2300 0.929 . S
C2292 H2286 0.930 1_554 S
C2292 C2293 1.367 . S
C2292 C2300 1.378 . S
C2293 C2292 1.367 . S
C2293 C2301 1.433 . S
C2294 H2290 0.929 . S
C2294 C2296 1.378 . S
C2294 C2298 1.350 . S
C2295 C2298 1.463 . S
C2295 C2300 1.350 . S
C2295 N2303 1.427 . S
C2296 H2287 0.930 . S
C2296 C2294 1.378 . S
C2296 C2297 1.367 . S
C2297 C2296 1.367 . S
C2297 C2299 1.433 . S
C2298 C2294 1.350 . S
C2298 C2295 1.463 . S
C2298 N2302 1.427 . S
C2299 H2289 0.929 . S
C2299 C2297 1.433 . S
C2299 N2302 1.384 . S
C2300 H2291 0.929 . S
C2300 C2292 1.378 . S
C2300 C2295 1.350 . S
C2301 H2288 0.929 . S
C2301 C2293 1.433 . S
C2301 N2303 1.384 . S
N2302 C2298 1.427 . S
N2302 C2299 1.384 . S
N2303 C2295 1.427 . S
N2303 C2301 1.384 . S
H2304 C2310 0.930 . S
H2305 C2314 0.930 . S
H2306 C2319 0.929 . S
H2307 C2317 0.929 . S
H2308 C2312 0.929 . S
H2309 C2318 0.929 . S
C2310 H2304 0.930 . S
C2310 C2311 1.367 . S
C2310 C2318 1.378 . S
C2311 C2310 1.367 . S
C2311 C2319 1.433 . S
C2312 H2308 0.929 . S
C2312 C2314 1.378 . S
C2312 C2316 1.350 . S
C2313 C2316 1.463 . S
C2313 C2318 1.350 . S
C2313 N2321 1.427 . S
C2314 H2305 0.930 . S
C2314 C2312 1.378 . S
C2314 C2315 1.367 . S
C2315 C2314 1.367 . S
C2315 C2317 1.433 . S
C2316 C2312 1.350 . S
C2316 C2313 1.463 . S
C2316 N2320 1.427 . S
C2317 H2307 0.929 . S
C2317 C2315 1.433 . S
C2317 N2320 1.384 . S
C2318 H2309 0.929 . S
C2318 C2310 1.378 . S
C2318 C2313 1.350 . S
C2319 H2306 0.929 . S
C2319 C2311 1.433 . S
C2319 N2321 1.384 . S
N2320 C2316 1.427 . S
N2320 C2317 1.384 . S
N2321 C2313 1.427 . S
N2321 C2319 1.384 . S
H2322 C2328 0.930 . S
H2323 C2332 0.930 . S
H2324 C2337 0.929 . S
H2325 C2335 0.929 . S
H2326 C2330 0.929 . S
H2327 C2336 0.929 . S
C2328 H2322 0.930 . S
C2328 C2329 1.367 . S
C2328 C2336 1.378 . S
C2329 C2328 1.367 . S
C2329 C2337 1.433 . S
C2330 H2326 0.929 . S
C2330 C2332 1.378 . S
C2330 C2334 1.350 . S
C2331 C2334 1.463 . S
C2331 C2336 1.350 . S
C2331 N2339 1.427 . S
C2332 H2323 0.930 . S
C2332 C2330 1.378 . S
C2332 C2333 1.367 . S
C2333 C2332 1.367 . S
C2333 C2335 1.433 . S
C2334 C2330 1.350 . S
C2334 C2331 1.463 . S
C2334 N2338 1.427 . S
C2335 H2325 0.929 . S
C2335 C2333 1.433 . S
C2335 N2338 1.384 . S
C2336 H2327 0.929 . S
C2336 C2328 1.378 . S
C2336 C2331 1.350 . S
C2337 H2324 0.929 . S
C2337 C2329 1.433 . S
C2337 N2339 1.384 . S
N2338 C2334 1.427 . S
N2338 C2335 1.384 . S
N2339 C2331 1.427 . S
N2339 C2337 1.384 . S
H2340 C2346 0.930 . S
H2341 C2350 0.930 . S
H2342 C2355 0.929 . S
H2343 C2353 0.929 . S
H2344 C2348 0.929 . S
H2345 C2354 0.929 . S
C2346 H2340 0.930 . S
C2346 C2347 1.367 . S
C2346 C2354 1.378 . S
C2347 C2346 1.367 . S
C2347 C2355 1.433 . S
C2348 H2344 0.929 . S
C2348 C2350 1.378 . S
C2348 C2352 1.350 . S
C2349 C2352 1.463 . S
C2349 C2354 1.350 . S
C2349 N2357 1.427 . S
C2350 H2341 0.930 . S
C2350 C2348 1.378 . S
C2350 C2351 1.367 . S
C2351 C2350 1.367 . S
C2351 C2353 1.433 . S
C2352 C2348 1.350 . S
C2352 C2349 1.463 . S
C2352 N2356 1.427 . S
C2353 H2343 0.929 . S
C2353 C2351 1.433 . S
C2353 N2356 1.384 . S
C2354 H2345 0.929 . S
C2354 C2346 1.378 . S
C2354 C2349 1.350 . S
C2355 H2342 0.929 . S
C2355 C2347 1.433 . S
C2355 N2357 1.384 . S
N2356 C2352 1.427 . S
N2356 C2353 1.384 . S
N2357 C2349 1.427 . S
N2357 C2355 1.384 . S
H2358 C2364 0.930 . S
H2359 C2368 0.930 . S
H2360 C2373 0.929 . S
H2361 C2371 0.929 . S
H2362 C2366 0.929 . S
H2363 C2372 0.929 . S
C2364 H2358 0.930 . S
C2364 C2365 1.367 . S
C2364 C2372 1.378 . S
C2365 C2364 1.367 . S
C2365 C2373 1.433 . S
C2366 H2362 0.929 . S
C2366 C2368 1.378 . S
C2366 C2370 1.350 . S
C2367 C2370 1.463 . S
C2367 C2372 1.350 . S
C2367 N2375 1.427 . S
C2368 H2359 0.930 . S
C2368 C2366 1.378 . S
C2368 C2369 1.367 . S
C2369 C2368 1.367 . S
C2369 C2371 1.433 . S
C2370 C2366 1.350 . S
C2370 C2367 1.463 . S
C2370 N2374 1.427 . S
C2371 H2361 0.929 . S
C2371 C2369 1.433 . S
C2371 N2374 1.384 . S
C2372 H2363 0.929 . S
C2372 C2364 1.378 . S
C2372 C2367 1.350 . S
C2373 H2360 0.929 . S
C2373 C2365 1.433 . S
C2373 N2375 1.384 . S
N2374 C2370 1.427 . S
N2374 C2371 1.384 . S
N2375 C2367 1.427 . S
N2375 C2373 1.384 . S
H2376 C2382 0.930 . S
H2377 C2386 0.930 . S
H2378 C2391 0.929 . S
H2379 C2389 0.929 . S
H2380 C2384 0.929 . S
H2381 C2390 0.929 . S
C2382 H2376 0.930 . S
C2382 C2383 1.367 . S
C2382 C2390 1.378 . S
C2383 C2382 1.367 . S
C2383 C2391 1.433 . S
C2384 H2380 0.929 . S
C2384 C2386 1.378 . S
C2384 C2388 1.350 . S
C2385 C2388 1.463 1_455 S
C2385 C2390 1.350 . S
C2385 N2393 1.427 . S
C2386 H2377 0.930 . S
C2386 C2384 1.378 . S
C2386 C2387 1.367 . S
C2387 C2386 1.367 . S
C2387 C2389 1.433 . S
C2388 C2384 1.350 . S
C2388 C2385 1.463 1_655 S
C2388 N2392 1.427 . S
C2389 H2379 0.929 . S
C2389 C2387 1.433 . S
C2389 N2392 1.384 . S
C2390 H2381 0.929 . S
C2390 C2382 1.378 . S
C2390 C2385 1.350 . S
C2391 H2378 0.929 . S
C2391 C2383 1.433 . S
C2391 N2393 1.384 . S
N2392 C2388 1.427 . S
N2392 C2389 1.384 . S
N2393 C2385 1.427 . S
N2393 C2391 1.384 . S
H2394 C2400 0.930 . S
H2395 C2404 0.930 . S
H2396 C2409 0.929 . S
H2397 C2407 0.929 . S
H2398 C2402 0.929 . S
H2399 C2408 0.929 . S
C2400 H2394 0.930 . S
C2400 C2401 1.367 . S
C2400 C2408 1.378 . S
C2401 C2400 1.367 . S
C2401 C2409 1.433 . S
C2402 H2398 0.929 . S
C2402 C2404 1.378 . S
C2402 C2406 1.350 . S
C2403 C2406 1.463 . S
C2403 C2408 1.350 . S
C2403 N2411 1.427 . S
C2404 H2395 0.930 . S
C2404 C2402 1.378 . S
C2404 C2405 1.367 . S
C2405 C2404 1.367 . S
C2405 C2407 1.433 . S
C2406 C2402 1.350 . S
C2406 C2403 1.463 . S
C2406 N2410 1.427 . S
C2407 H2397 0.929 . S
C2407 C2405 1.433 . S
C2407 N2410 1.384 . S
C2408 H2399 0.929 . S
C2408 C2400 1.378 . S
C2408 C2403 1.350 . S
C2409 H2396 0.929 . S
C2409 C2401 1.433 . S
C2409 N2411 1.384 . S
N2410 C2406 1.427 . S
N2410 C2407 1.384 . S
N2411 C2403 1.427 . S
N2411 C2409 1.384 . S
H2412 C2418 0.930 . S
H2413 C2422 0.930 . S
H2414 C2427 0.929 . S
H2415 C2425 0.929 . S
H2416 C2420 0.929 . S
H2417 C2426 0.929 . S
C2418 H2412 0.930 . S
C2418 C2419 1.367 . S
C2418 C2426 1.378 . S
C2419 C2418 1.367 . S
C2419 C2427 1.433 . S
C2420 H2416 0.929 . S
C2420 C2422 1.378 . S
C2420 C2424 1.350 . S
C2421 C2424 1.463 1_545 S
C2421 C2426 1.350 . S
C2421 N2429 1.427 . S
C2422 H2413 0.930 . S
C2422 C2420 1.378 . S
C2422 C2423 1.367 . S
C2423 C2422 1.367 . S
C2423 C2425 1.433 . S
C2424 C2420 1.350 . S
C2424 C2421 1.463 1_565 S
C2424 N2428 1.427 . S
C2425 H2415 0.929 . S
C2425 C2423 1.433 . S
C2425 N2428 1.384 . S
C2426 H2417 0.929 . S
C2426 C2418 1.378 . S
C2426 C2421 1.350 . S
C2427 H2414 0.929 . S
C2427 C2419 1.433 . S
C2427 N2429 1.384 . S
N2428 C2424 1.427 . S
N2428 C2425 1.384 . S
N2429 C2421 1.427 . S
N2429 C2427 1.384 . S
H2430 C2436 0.930 . S
H2431 C2440 0.930 . S
H2432 C2445 0.929 . S
H2433 C2443 0.929 . S
H2434 C2438 0.929 . S
H2435 C2444 0.929 . S
C2436 H2430 0.930 . S
C2436 C2437 1.367 . S
C2436 C2444 1.378 . S
C2437 C2436 1.367 . S
C2437 C2445 1.433 . S
C2438 H2434 0.929 . S
C2438 C2440 1.378 . S
C2438 C2442 1.350 . S
C2439 C2442 1.463 1_545 S
C2439 C2444 1.350 . S
C2439 N2447 1.427 . S
C2440 H2431 0.930 . S
C2440 C2438 1.378 . S
C2440 C2441 1.367 . S
C2441 C2440 1.367 . S
C2441 C2443 1.433 . S
C2442 C2438 1.350 . S
C2442 C2439 1.463 1_565 S
C2442 N2446 1.427 . S
C2443 H2433 0.929 . S
C2443 C2441 1.433 . S
C2443 N2446 1.384 . S
C2444 H2435 0.929 . S
C2444 C2436 1.378 . S
C2444 C2439 1.350 . S
C2445 H2432 0.929 . S
C2445 C2437 1.433 . S
C2445 N2447 1.384 . S
N2446 C2442 1.427 . S
N2446 C2443 1.384 . S
N2447 C2439 1.427 . S
N2447 C2445 1.384 . S
H2448 C2454 0.930 . S
H2449 C2458 0.930 . S
H2450 C2463 0.929 . S
H2451 C2461 0.929 . S
H2452 C2456 0.929 . S
H2453 C2462 0.929 . S
C2454 H2448 0.930 . S
C2454 C2455 1.367 . S
C2454 C2462 1.378 . S
C2455 C2454 1.367 . S
C2455 C2463 1.433 . S
C2456 H2452 0.929 . S
C2456 C2458 1.378 . S
C2456 C2460 1.350 . S
C2457 C2460 1.463 1_655 S
C2457 C2462 1.350 . S
C2457 N2465 1.427 . S
C2458 H2449 0.930 . S
C2458 C2456 1.378 . S
C2458 C2459 1.367 . S
C2459 C2458 1.367 . S
C2459 C2461 1.433 . S
C2460 C2456 1.350 . S
C2460 C2457 1.463 1_455 S
C2460 N2464 1.427 . S
C2461 H2451 0.929 . S
C2461 C2459 1.433 . S
C2461 N2464 1.384 . S
C2462 H2453 0.929 . S
C2462 C2454 1.378 . S
C2462 C2457 1.350 . S
C2463 H2450 0.929 . S
C2463 C2455 1.433 . S
C2463 N2465 1.384 . S
N2464 C2460 1.427 . S
N2464 C2461 1.384 . S
N2465 C2457 1.427 . S
N2465 C2463 1.384 . S
H2466 C2472 0.930 . S
H2467 C2476 0.930 . S
H2468 C2481 0.929 . S
H2469 C2479 0.929 . S
H2470 C2474 0.929 . S
H2471 C2480 0.929 . S
C2472 H2466 0.930 . S
C2472 C2473 1.367 . S
C2472 C2480 1.378 . S
C2473 C2472 1.367 . S
C2473 C2481 1.433 . S
C2474 H2470 0.929 . S
C2474 C2476 1.378 . S
C2474 C2478 1.350 . S
C2475 C2478 1.463 . S
C2475 C2480 1.350 . S
C2475 N2483 1.427 . S
C2476 H2467 0.930 . S
C2476 C2474 1.378 . S
C2476 C2477 1.367 . S
C2477 C2476 1.367 . S
C2477 C2479 1.433 . S
C2478 C2474 1.350 . S
C2478 C2475 1.463 . S
C2478 N2482 1.427 . S
C2479 H2469 0.929 . S
C2479 C2477 1.433 . S
C2479 N2482 1.384 . S
C2480 H2471 0.929 . S
C2480 C2472 1.378 . S
C2480 C2475 1.350 . S
C2481 H2468 0.929 . S
C2481 C2473 1.433 . S
C2481 N2483 1.384 . S
N2482 C2478 1.427 . S
N2482 C2479 1.384 . S
N2483 C2475 1.427 . S
N2483 C2481 1.384 . S
H2484 C2490 0.930 . S
H2485 C2494 0.930 . S
H2486 C2499 0.929 . S
H2487 C2497 0.929 . S
H2488 C2492 0.929 . S
H2489 C2498 0.929 . S
C2490 H2484 0.930 . S
C2490 C2491 1.367 . S
C2490 C2498 1.378 . S
C2491 C2490 1.367 . S
C2491 C2499 1.433 . S
C2492 H2488 0.929 . S
C2492 C2494 1.378 . S
C2492 C2496 1.350 . S
C2493 C2496 1.463 . S
C2493 C2498 1.350 . S
C2493 N2501 1.427 . S
C2494 H2485 0.930 . S
C2494 C2492 1.378 . S
C2494 C2495 1.367 . S
C2495 C2494 1.367 . S
C2495 C2497 1.433 . S
C2496 C2492 1.350 . S
C2496 C2493 1.463 . S
C2496 N2500 1.427 . S
C2497 H2487 0.929 . S
C2497 C2495 1.433 . S
C2497 N2500 1.384 . S
C2498 H2489 0.929 . S
C2498 C2490 1.378 . S
C2498 C2493 1.350 . S
C2499 H2486 0.929 . S
C2499 C2491 1.433 . S
C2499 N2501 1.384 . S
N2500 C2496 1.427 . S
N2500 C2497 1.384 . S
N2501 C2493 1.427 . S
N2501 C2499 1.384 . S
H2502 C2508 0.930 . S
H2503 C2512 0.930 . S
H2504 C2517 0.929 . S
H2505 C2515 0.929 . S
H2506 C2510 0.929 . S
H2507 C2516 0.929 . S
C2508 H2502 0.930 . S
C2508 C2509 1.367 . S
C2508 C2516 1.378 . S
C2509 C2508 1.367 . S
C2509 C2517 1.433 . S
C2510 H2506 0.929 . S
C2510 C2512 1.378 . S
C2510 C2514 1.350 . S
C2511 C2514 1.463 . S
C2511 C2516 1.350 . S
C2511 N2519 1.427 . S
C2512 H2503 0.930 . S
C2512 C2510 1.378 . S
C2512 C2513 1.367 . S
C2513 C2512 1.367 . S
C2513 C2515 1.433 . S
C2514 C2510 1.350 . S
C2514 C2511 1.463 . S
C2514 N2518 1.427 . S
C2515 H2505 0.929 . S
C2515 C2513 1.433 . S
C2515 N2518 1.384 . S
C2516 H2507 0.929 . S
C2516 C2508 1.378 . S
C2516 C2511 1.350 . S
C2517 H2504 0.929 . S
C2517 C2509 1.433 . S
C2517 N2519 1.384 . S
N2518 C2514 1.427 . S
N2518 C2515 1.384 . S
N2519 C2511 1.427 . S
N2519 C2517 1.384 . S
H2520 C2526 0.930 . S
H2521 C2530 0.930 . S
H2522 C2535 0.929 . S
H2523 C2533 0.929 . S
H2524 C2528 0.929 . S
H2525 C2534 0.929 . S
C2526 H2520 0.930 . S
C2526 C2527 1.367 . S
C2526 C2534 1.378 . S
C2527 C2526 1.367 . S
C2527 C2535 1.433 . S
C2528 H2524 0.929 . S
C2528 C2530 1.378 . S
C2528 C2532 1.350 . S
C2529 C2532 1.463 . S
C2529 C2534 1.350 . S
C2529 N2537 1.427 . S
C2530 H2521 0.930 . S
C2530 C2528 1.378 . S
C2530 C2531 1.367 . S
C2531 C2530 1.367 . S
C2531 C2533 1.433 . S
C2532 C2528 1.350 . S
C2532 C2529 1.463 . S
C2532 N2536 1.427 . S
C2533 H2523 0.929 . S
C2533 C2531 1.433 . S
C2533 N2536 1.384 . S
C2534 H2525 0.929 . S
C2534 C2526 1.378 . S
C2534 C2529 1.350 . S
C2535 H2522 0.929 . S
C2535 C2527 1.433 . S
C2535 N2537 1.384 . S
N2536 C2532 1.427 . S
N2536 C2533 1.384 . S
N2537 C2529 1.427 . S
N2537 C2535 1.384 . S
H2538 C2544 0.930 . S
H2539 C2548 0.930 . S
H2540 C2553 0.929 . S
H2541 C2551 0.929 . S
H2542 C2546 0.929 . S
H2543 C2552 0.929 . S
C2544 H2538 0.930 . S
C2544 C2545 1.367 . S
C2544 C2552 1.378 . S
C2545 C2544 1.367 . S
C2545 C2553 1.433 . S
C2546 H2542 0.929 . S
C2546 C2548 1.378 . S
C2546 C2550 1.350 . S
C2547 C2550 1.463 . S
C2547 C2552 1.350 . S
C2547 N2555 1.427 . S
C2548 H2539 0.930 . S
C2548 C2546 1.378 . S
C2548 C2549 1.367 . S
C2549 C2548 1.367 . S
C2549 C2551 1.433 . S
C2550 C2546 1.350 . S
C2550 C2547 1.463 . S
C2550 N2554 1.427 . S
C2551 H2541 0.929 . S
C2551 C2549 1.433 . S
C2551 N2554 1.384 . S
C2552 H2543 0.929 . S
C2552 C2544 1.378 . S
C2552 C2547 1.350 . S
C2553 H2540 0.929 . S
C2553 C2545 1.433 . S
C2553 N2555 1.384 . S
N2554 C2550 1.427 . S
N2554 C2551 1.384 . S
N2555 C2547 1.427 . S
N2555 C2553 1.384 . S
H2556 C2562 0.930 . S
H2557 C2566 0.930 . S
H2558 C2571 0.929 . S
H2559 C2569 0.929 . S
H2560 C2564 0.929 . S
H2561 C2570 0.929 . S
C2562 H2556 0.930 . S
C2562 C2563 1.367 . S
C2562 C2570 1.378 . S
C2563 C2562 1.367 . S
C2563 C2571 1.433 . S
C2564 H2560 0.929 . S
C2564 C2566 1.378 . S
C2564 C2568 1.350 . S
C2565 C2568 1.463 . S
C2565 C2570 1.350 . S
C2565 N2573 1.427 . S
C2566 H2557 0.930 . S
C2566 C2564 1.378 . S
C2566 C2567 1.367 . S
C2567 C2566 1.367 . S
C2567 C2569 1.433 . S
C2568 C2564 1.350 . S
C2568 C2565 1.463 . S
C2568 N2572 1.427 . S
C2569 H2559 0.929 . S
C2569 C2567 1.433 . S
C2569 N2572 1.384 . S
C2570 H2561 0.929 . S
C2570 C2562 1.378 . S
C2570 C2565 1.350 . S
C2571 H2558 0.929 . S
C2571 C2563 1.433 . S
C2571 N2573 1.384 . S
N2572 C2568 1.427 . S
N2572 C2569 1.384 . S
N2573 C2565 1.427 . S
N2573 C2571 1.384 . S
H2574 C2580 0.930 . S
H2575 C2584 0.930 . S
H2576 C2589 0.929 . S
H2577 C2587 0.929 . S
H2578 C2582 0.929 . S
H2579 C2588 0.929 . S
C2580 H2574 0.930 . S
C2580 C2581 1.367 . S
C2580 C2588 1.378 . S
C2581 C2580 1.367 . S
C2581 C2589 1.433 . S
C2582 H2578 0.929 . S
C2582 C2584 1.378 . S
C2582 C2586 1.350 . S
C2583 C2586 1.463 . S
C2583 C2588 1.350 . S
C2583 N2591 1.427 . S
C2584 H2575 0.930 . S
C2584 C2582 1.378 . S
C2584 C2585 1.367 . S
C2585 C2584 1.367 . S
C2585 C2587 1.433 . S
C2586 C2582 1.350 . S
C2586 C2583 1.463 . S
C2586 N2590 1.427 . S
C2587 H2577 0.929 . S
C2587 C2585 1.433 . S
C2587 N2590 1.384 . S
C2588 H2579 0.929 . S
C2588 C2580 1.378 . S
C2588 C2583 1.350 . S
C2589 H2576 0.929 . S
C2589 C2581 1.433 . S
C2589 N2591 1.384 . S
N2590 C2586 1.427 . S
N2590 C2587 1.384 . S
N2591 C2583 1.427 . S
N2591 C2589 1.384 . S
H2592 C2598 0.930 . S
H2593 C2602 0.930 . S
H2594 C2607 0.929 . S
H2595 C2605 0.929 . S
H2596 C2600 0.929 . S
H2597 C2606 0.929 . S
C2598 H2592 0.930 . S
C2598 C2599 1.367 . S
C2598 C2606 1.378 . S
C2599 C2598 1.367 . S
C2599 C2607 1.433 . S
C2600 H2596 0.929 . S
C2600 C2602 1.378 . S
C2600 C2604 1.350 . S
C2601 C2604 1.463 . S
C2601 C2606 1.350 . S
C2601 N2609 1.427 . S
C2602 H2593 0.930 . S
C2602 C2600 1.378 . S
C2602 C2603 1.367 . S
C2603 C2602 1.367 . S
C2603 C2605 1.433 . S
C2604 C2600 1.350 . S
C2604 C2601 1.463 . S
C2604 N2608 1.427 . S
C2605 H2595 0.929 . S
C2605 C2603 1.433 . S
C2605 N2608 1.384 . S
C2606 H2597 0.929 . S
C2606 C2598 1.378 . S
C2606 C2601 1.350 . S
C2607 H2594 0.929 . S
C2607 C2599 1.433 . S
C2607 N2609 1.384 . S
N2608 C2604 1.427 . S
N2608 C2605 1.384 . S
N2609 C2601 1.427 . S
N2609 C2607 1.384 . S
H2610 C2616 0.930 . S
H2611 C2620 0.930 . S
H2612 C2625 0.929 . S
H2613 C2623 0.929 . S
H2614 C2618 0.929 . S
H2615 C2624 0.929 . S
C2616 H2610 0.930 . S
C2616 C2617 1.367 . S
C2616 C2624 1.378 . S
C2617 C2616 1.367 . S
C2617 C2625 1.433 . S
C2618 H2614 0.929 . S
C2618 C2620 1.378 . S
C2618 C2622 1.350 . S
C2619 C2622 1.463 . S
C2619 C2624 1.350 . S
C2619 N2627 1.427 . S
C2620 H2611 0.930 . S
C2620 C2618 1.378 . S
C2620 C2621 1.367 . S
C2621 C2620 1.367 . S
C2621 C2623 1.433 . S
C2622 C2618 1.350 . S
C2622 C2619 1.463 . S
C2622 N2626 1.427 . S
C2623 H2613 0.929 . S
C2623 C2621 1.433 . S
C2623 N2626 1.384 . S
C2624 H2615 0.929 . S
C2624 C2616 1.378 . S
C2624 C2619 1.350 . S
C2625 H2612 0.929 . S
C2625 C2617 1.433 . S
C2625 N2627 1.384 . S
N2626 C2622 1.427 . S
N2626 C2623 1.384 . S
N2627 C2619 1.427 . S
N2627 C2625 1.384 . S
H2628 C2634 0.930 . S
H2629 C2638 0.930 . S
H2630 C2643 0.929 . S
H2631 C2641 0.929 . S
H2632 C2636 0.929 . S
H2633 C2642 0.929 . S
C2634 H2628 0.930 . S
C2634 C2635 1.367 . S
C2634 C2642 1.378 . S
C2635 C2634 1.367 . S
C2635 C2643 1.433 . S
C2636 H2632 0.929 . S
C2636 C2638 1.378 . S
C2636 C2640 1.350 . S
C2637 C2640 1.463 . S
C2637 C2642 1.350 . S
C2637 N2645 1.427 . S
C2638 H2629 0.930 . S
C2638 C2636 1.378 . S
C2638 C2639 1.367 . S
C2639 C2638 1.367 . S
C2639 C2641 1.433 . S
C2640 C2636 1.350 . S
C2640 C2637 1.463 . S
C2640 N2644 1.427 . S
C2641 H2631 0.929 . S
C2641 C2639 1.433 . S
C2641 N2644 1.384 . S
C2642 H2633 0.929 . S
C2642 C2634 1.378 . S
C2642 C2637 1.350 . S
C2643 H2630 0.929 . S
C2643 C2635 1.433 . S
C2643 N2645 1.384 . S
N2644 C2640 1.427 . S
N2644 C2641 1.384 . S
N2645 C2637 1.427 . S
N2645 C2643 1.384 . S
H2646 C2652 0.930 . S
H2647 C2656 0.930 . S
H2648 C2661 0.929 . S
H2649 C2659 0.929 . S
H2650 C2654 0.929 . S
H2651 C2660 0.929 . S
C2652 H2646 0.930 . S
C2652 C2653 1.367 . S
C2652 C2660 1.378 . S
C2653 C2652 1.367 . S
C2653 C2661 1.433 . S
C2654 H2650 0.929 . S
C2654 C2656 1.378 . S
C2654 C2658 1.350 . S
C2655 C2658 1.463 . S
C2655 C2660 1.350 . S
C2655 N2663 1.427 . S
C2656 H2647 0.930 . S
C2656 C2654 1.378 . S
C2656 C2657 1.367 . S
C2657 C2656 1.367 . S
C2657 C2659 1.433 . S
C2658 C2654 1.350 . S
C2658 C2655 1.463 . S
C2658 N2662 1.427 . S
C2659 H2649 0.929 . S
C2659 C2657 1.433 . S
C2659 N2662 1.384 . S
C2660 H2651 0.929 . S
C2660 C2652 1.378 . S
C2660 C2655 1.350 . S
C2661 H2648 0.929 . S
C2661 C2653 1.433 . S
C2661 N2663 1.384 . S
N2662 C2658 1.427 . S
N2662 C2659 1.384 . S
N2663 C2655 1.427 . S
N2663 C2661 1.384 . S
H2664 C2670 0.930 . S
H2665 C2674 0.930 . S
H2666 C2679 0.929 . S
H2667 C2677 0.929 . S
H2668 C2672 0.929 . S
H2669 C2678 0.929 . S
C2670 H2664 0.930 . S
C2670 C2671 1.367 . S
C2670 C2678 1.378 . S
C2671 C2670 1.367 . S
C2671 C2679 1.433 . S
C2672 H2668 0.929 . S
C2672 C2674 1.378 . S
C2672 C2676 1.350 . S
C2673 C2676 1.463 . S
C2673 C2678 1.350 . S
C2673 N2681 1.427 . S
C2674 H2665 0.930 . S
C2674 C2672 1.378 . S
C2674 C2675 1.367 . S
C2675 C2674 1.367 . S
C2675 C2677 1.433 . S
C2676 C2672 1.350 . S
C2676 C2673 1.463 . S
C2676 N2680 1.427 . S
C2677 H2667 0.929 . S
C2677 C2675 1.433 . S
C2677 N2680 1.384 . S
C2678 H2669 0.929 . S
C2678 C2670 1.378 . S
C2678 C2673 1.350 . S
C2679 H2666 0.929 . S
C2679 C2671 1.433 . S
C2679 N2681 1.384 . S
N2680 C2676 1.427 . S
N2680 C2677 1.384 . S
N2681 C2673 1.427 . S
N2681 C2679 1.384 . S
H2682 C2688 0.930 . S
H2683 C2692 0.930 . S
H2684 C2697 0.929 . S
H2685 C2695 0.929 . S
H2686 C2690 0.929 . S
H2687 C2696 0.929 . S
C2688 H2682 0.930 . S
C2688 C2689 1.367 . S
C2688 C2696 1.378 . S
C2689 C2688 1.367 . S
C2689 C2697 1.433 . S
C2690 H2686 0.929 . S
C2690 C2692 1.378 . S
C2690 C2694 1.350 . S
C2691 C2694 1.463 . S
C2691 C2696 1.350 . S
C2691 N2699 1.427 . S
C2692 H2683 0.930 . S
C2692 C2690 1.378 . S
C2692 C2693 1.367 . S
C2693 C2692 1.367 . S
C2693 C2695 1.433 . S
C2694 C2690 1.350 . S
C2694 C2691 1.463 . S
C2694 N2698 1.427 . S
C2695 H2685 0.929 . S
C2695 C2693 1.433 . S
C2695 N2698 1.384 . S
C2696 H2687 0.929 . S
C2696 C2688 1.378 . S
C2696 C2691 1.350 . S
C2697 H2684 0.929 . S
C2697 C2689 1.433 . S
C2697 N2699 1.384 . S
N2698 C2694 1.427 . S
N2698 C2695 1.384 . S
N2699 C2691 1.427 . S
N2699 C2697 1.384 . S
H2700 C2706 0.930 . S
H2701 C2710 0.930 . S
H2702 C2715 0.929 . S
H2703 C2713 0.929 . S
H2704 C2708 0.929 . S
H2705 C2714 0.929 . S
C2706 H2700 0.930 . S
C2706 C2707 1.367 . S
C2706 C2714 1.378 . S
C2707 C2706 1.367 . S
C2707 C2715 1.433 . S
C2708 H2704 0.929 . S
C2708 C2710 1.378 . S
C2708 C2712 1.350 . S
C2709 C2712 1.463 1_455 S
C2709 C2714 1.350 . S
C2709 N2717 1.427 . S
C2710 H2701 0.930 . S
C2710 C2708 1.378 . S
C2710 C2711 1.367 . S
C2711 C2710 1.367 . S
C2711 C2713 1.433 . S
C2712 C2708 1.350 . S
C2712 C2709 1.463 1_655 S
C2712 N2716 1.427 . S
C2713 H2703 0.929 . S
C2713 C2711 1.433 . S
C2713 N2716 1.384 . S
C2714 H2705 0.929 . S
C2714 C2706 1.378 . S
C2714 C2709 1.350 . S
C2715 H2702 0.929 . S
C2715 C2707 1.433 . S
C2715 N2717 1.384 . S
N2716 C2712 1.427 . S
N2716 C2713 1.384 . S
N2717 C2709 1.427 . S
N2717 C2715 1.384 . S
H2718 C2724 0.930 . S
H2719 C2728 0.930 . S
H2720 C2733 0.929 . S
H2721 C2731 0.929 . S
H2722 C2726 0.929 . S
H2723 C2732 0.929 . S
C2724 H2718 0.930 . S
C2724 C2725 1.367 . S
C2724 C2732 1.378 . S
C2725 C2724 1.367 . S
C2725 C2733 1.433 . S
C2726 H2722 0.929 . S
C2726 C2728 1.378 . S
C2726 C2730 1.350 . S
C2727 C2730 1.463 . S
C2727 C2732 1.350 . S
C2727 N2735 1.427 . S
C2728 H2719 0.930 . S
C2728 C2726 1.378 . S
C2728 C2729 1.367 . S
C2729 C2728 1.367 . S
C2729 C2731 1.433 . S
C2730 C2726 1.350 . S
C2730 C2727 1.463 . S
C2730 N2734 1.427 . S
C2731 H2721 0.929 . S
C2731 C2729 1.433 . S
C2731 N2734 1.384 . S
C2732 H2723 0.929 . S
C2732 C2724 1.378 . S
C2732 C2727 1.350 . S
C2733 H2720 0.929 . S
C2733 C2725 1.433 . S
C2733 N2735 1.384 . S
N2734 C2730 1.427 . S
N2734 C2731 1.384 . S
N2735 C2727 1.427 . S
N2735 C2733 1.384 . S
H2736 C2742 0.930 . S
H2737 C2746 0.930 . S
H2738 C2751 0.929 . S
H2739 C2749 0.929 . S
H2740 C2744 0.929 . S
H2741 C2750 0.929 . S
C2742 H2736 0.930 . S
C2742 C2743 1.367 . S
C2742 C2750 1.378 . S
C2743 C2742 1.367 . S
C2743 C2751 1.433 . S
C2744 H2740 0.929 . S
C2744 C2746 1.378 . S
C2744 C2748 1.350 . S
C2745 C2748 1.463 1_545 S
C2745 C2750 1.350 . S
C2745 N2753 1.427 . S
C2746 H2737 0.930 . S
C2746 C2744 1.378 . S
C2746 C2747 1.367 . S
C2747 C2746 1.367 . S
C2747 C2749 1.433 . S
C2748 C2744 1.350 . S
C2748 C2745 1.463 1_565 S
C2748 N2752 1.427 . S
C2749 H2739 0.929 . S
C2749 C2747 1.433 . S
C2749 N2752 1.384 . S
C2750 H2741 0.929 . S
C2750 C2742 1.378 . S
C2750 C2745 1.350 . S
C2751 H2738 0.929 . S
C2751 C2743 1.433 . S
C2751 N2753 1.384 . S
N2752 C2748 1.427 . S
N2752 C2749 1.384 . S
N2753 C2745 1.427 . S
N2753 C2751 1.384 . S
H2754 C2760 0.930 . S
H2755 C2764 0.930 . S
H2756 C2769 0.929 . S
H2757 C2767 0.929 . S
H2758 C2762 0.929 . S
H2759 C2768 0.929 . S
C2760 H2754 0.930 . S
C2760 C2761 1.367 . S
C2760 C2768 1.378 . S
C2761 C2760 1.367 . S
C2761 C2769 1.433 . S
C2762 H2758 0.929 . S
C2762 C2764 1.378 . S
C2762 C2766 1.350 . S
C2763 C2766 1.463 1_545 S
C2763 C2768 1.350 . S
C2763 N2771 1.427 . S
C2764 H2755 0.930 . S
C2764 C2762 1.378 . S
C2764 C2765 1.367 . S
C2765 C2764 1.367 . S
C2765 C2767 1.433 . S
C2766 C2762 1.350 . S
C2766 C2763 1.463 1_565 S
C2766 N2770 1.427 . S
C2767 H2757 0.929 . S
C2767 C2765 1.433 . S
C2767 N2770 1.384 . S
C2768 H2759 0.929 . S
C2768 C2760 1.378 . S
C2768 C2763 1.350 . S
C2769 H2756 0.929 . S
C2769 C2761 1.433 . S
C2769 N2771 1.384 . S
N2770 C2766 1.427 . S
N2770 C2767 1.384 . S
N2771 C2763 1.427 . S
N2771 C2769 1.384 . S
H2772 C2778 0.930 . S
H2773 C2782 0.930 . S
H2774 C2787 0.929 . S
H2775 C2785 0.929 . S
H2776 C2780 0.929 . S
H2777 C2786 0.929 . S
C2778 H2772 0.930 . S
C2778 C2779 1.367 . S
C2778 C2786 1.378 . S
C2779 C2778 1.367 . S
C2779 C2787 1.433 . S
C2780 H2776 0.929 . S
C2780 C2782 1.378 . S
C2780 C2784 1.350 . S
C2781 C2784 1.463 1_455 S
C2781 C2786 1.350 . S
C2781 N2789 1.427 . S
C2782 H2773 0.930 . S
C2782 C2780 1.378 . S
C2782 C2783 1.367 . S
C2783 C2782 1.367 . S
C2783 C2785 1.433 . S
C2784 C2780 1.350 . S
C2784 C2781 1.463 1_655 S
C2784 N2788 1.427 . S
C2785 H2775 0.929 . S
C2785 C2783 1.433 . S
C2785 N2788 1.384 . S
C2786 H2777 0.929 . S
C2786 C2778 1.378 . S
C2786 C2781 1.350 . S
C2787 H2774 0.929 . S
C2787 C2779 1.433 . S
C2787 N2789 1.384 . S
N2788 C2784 1.427 . S
N2788 C2785 1.384 . S
N2789 C2781 1.427 . S
N2789 C2787 1.384 . S
H2790 C2796 0.930 . S
H2791 C2800 0.930 . S
H2792 C2805 0.929 . S
H2793 C2803 0.929 . S
H2794 C2798 0.929 . S
H2795 C2804 0.929 . S
C2796 H2790 0.930 . S
C2796 C2797 1.367 . S
C2796 C2804 1.378 . S
C2797 C2796 1.367 . S
C2797 C2805 1.433 . S
C2798 H2794 0.929 . S
C2798 C2800 1.378 . S
C2798 C2802 1.350 . S
C2799 C2802 1.463 . S
C2799 C2804 1.350 . S
C2799 N2807 1.427 . S
C2800 H2791 0.930 . S
C2800 C2798 1.378 . S
C2800 C2801 1.367 . S
C2801 C2800 1.367 . S
C2801 C2803 1.433 . S
C2802 C2798 1.350 . S
C2802 C2799 1.463 . S
C2802 N2806 1.427 . S
C2803 H2793 0.929 . S
C2803 C2801 1.433 . S
C2803 N2806 1.384 . S
C2804 H2795 0.929 . S
C2804 C2796 1.378 . S
C2804 C2799 1.350 . S
C2805 H2792 0.929 . S
C2805 C2797 1.433 . S
C2805 N2807 1.384 . S
N2806 C2802 1.427 . S
N2806 C2803 1.384 . S
N2807 C2799 1.427 . S
N2807 C2805 1.384 . S
C1195 C252 1.377 1_554 S
C1199 N13 1.354 . S
C1213 N46 1.345 . S
C1217 C285 1.363 1_554 S
C1231 C219 1.377 1_554 S
C1235 N79 1.354 . S
C1249 C384 1.368 . S
C1253 N112 1.346 . S
C1267 C318 1.376 . S
C1271 N145 1.357 . S
C1285 N178 1.349 . S
C1289 C351 1.374 . S
C1303 N211 1.358 . S
C1307 C54 1.377 1_556 S
C1321 N244 1.344 . S
C1325 C87 1.365 1_556 S
C1339 N277 1.344 . S
C1343 C21 1.364 1_556 S
C1357 C186 1.369 . S
C1361 N310 1.344 . S
C1375 C120 1.373 . S
C1379 N343 1.348 . S
C1393 N376 1.346 . S
C1397 C153 1.372 . S
C1411 C648 1.377 . S
C1415 N409 1.358 . S
C1429 C681 1.369 . S
C1433 N442 1.344 . S
C1447 C615 1.378 . S
C1451 N475 1.359 . S
C1465 C780 1.369 . S
C1469 N508 1.344 . S
C1483 C714 1.374 . S
C1487 N541 1.348 . S
C1501 C747 1.371 . S
C1505 N574 1.352 . S
C1519 N607 1.348 . S
C1523 C450 1.369 . S
C1537 N640 1.356 . S
C1541 C483 1.374 . S
C1555 C417 1.378 . S
C1559 N673 1.355 . S
C1573 N706 1.353 . S
C1577 C582 1.377 . S
C1591 N739 1.358 . S
C1595 C516 1.376 . S
C1609 N772 1.358 . S
C1613 C549 1.377 . S
C1627 C1044 1.370 . S
C1631 N805 1.345 . S
C1645 C1077 1.375 . S
C1649 N838 1.357 . S
C1663 N871 1.345 . S
C1667 C1011 1.368 . S
C1681 N904 1.348 . S
C1685 C1176 1.369 . S
C1699 N937 1.346 . S
C1703 C1110 1.371 . S
C1717 N970 1.350 . S
C1721 C1143 1.375 . S
C1735 C846 1.377 . S
C1739 N1003 1.358 . S
C1753 C879 1.378 . S
C1757 N1036 1.358 . S
C1771 N1069 1.349 . S
C1775 C813 1.374 . S
C1789 C978 1.378 . S
C1793 N1102 1.357 . S
C1807 C912 1.369 . S
C1811 N1135 1.345 . S
C1825 N1168 1.346 . S
C1829 C945 1.372 . S
C1843 C7 1.638 . S
C1847 C106 1.639 . S
C1861 C40 1.640 . S
C1865 C139 1.639 . S
C1879 C73 1.640 . S
C1883 C172 1.638 . S
C1897 C304 1.649 . S
C1901 C205 1.650 . S
C1915 C337 1.651 . S
C1919 C238 1.650 . S
C1933 C370 1.646 . S
C1937 C271 1.644 . S
C1951 C403 1.643 . S
C1955 C502 1.645 . S
C1969 C436 1.650 . S
C1973 C535 1.651 . S
C1987 C568 1.651 . S
C1991 C469 1.651 . S
C2005 C601 1.643 . S
C2009 C700 1.645 . S
C2023 C733 1.651 . S
C2027 C634 1.650 . S
C2041 C766 1.649 . S
C2045 C667 1.647 . S
C2059 C898 1.648 . S
C2063 C799 1.646 . S
C2077 C931 1.638 . S
C2081 C832 1.638 . S
C2095 C964 1.639 . S
C2099 C865 1.641 . S
C2113 C1096 1.641 . S
C2117 C997 1.643 . S
C2131 C1129 1.638 . S
C2135 C1030 1.639 . S
C2149 C1063 1.644 . S
C2153 C1162 1.642 . S
C2167 C18 2.367 . S
C2171 C546 2.369 . S
C2185 C579 2.371 . S
C2189 C51 2.369 . S
C2203 C84 2.368 . S
C2207 C513 2.367 . S
C2221 C876 2.367 . S
C2225 C117 2.371 . S
C2239 C150 2.371 . S
C2243 C810 2.367 . S
C2257 C843 2.369 . S
C2261 C183 2.370 . S
C2275 C1140 2.367 . S
C2279 C216 2.368 . S
C2293 C249 2.369 . S
C2297 C1173 2.368 . S
C2311 C1107 2.367 . S
C2315 C282 2.369 . S
C2329 C315 2.371 . S
C2333 C678 2.368 . S
C2347 C348 2.368 . S
C2351 C612 2.368 . S
C2365 C645 2.367 . S
C2369 C381 2.370 . S
C2383 C942 2.368 . S
C2387 C414 2.371 . S
C2401 C975 2.371 . S
C2405 C447 2.368 . S
C2419 C480 2.367 . S
C2423 C909 2.370 . S
C2437 C711 2.367 . S
C2441 C1074 2.370 . S
C2455 C744 2.369 . S
C2459 C1008 2.370 . S
C2473 C1041 2.370 . S
C2477 C777 2.370 . S
C2491 N959 0.565 . S
C2495 N2 0.585 . S
C2509 N893 0.576 . S
C2513 N35 0.582 . S
C2527 N926 0.543 . S
C2531 N68 0.575 . S
C2545 N101 0.547 . S
C2549 N431 0.535 . S
C2563 N134 0.550 . S
C2567 N464 0.534 . S
C2581 N398 0.534 . S
C2585 N167 0.552 . S
C2599 N200 0.560 . S
C2603 N761 0.535 . S
C2617 N695 0.584 . S
C2621 N233 0.572 . S
C2635 N266 0.584 . S
C2639 N728 0.571 . S
C2653 N299 0.583 . S
C2657 N1025 0.574 . S
C2671 N1058 0.564 . S
C2675 N332 0.536 . S
C2689 N365 0.534 . S
C2693 N992 0.550 . S
C2707 N827 0.581 . S
C2711 N497 0.577 . S
C2725 N530 0.578 . S
C2729 N860 0.581 . S
C2743 N563 0.561 . S
C2747 N794 0.535 . S
C2761 N596 0.584 . S
C2765 N1157 0.560 . S
C2779 N1091 0.585 . S
C2783 N629 0.569 . S
C2797 N1124 0.562 . S
C2801 N662 0.585 . S
