# Generated by pormake.
# Topology ure, (4)-cn, num edge types: 1
# Building blocks:
#     Node 0, Type 0, BuildingBlock: TATPOV_clean_sbu_0, # of connection points: 4
#     Node 1, Type 0, BuildingBlock: TATPOV_clean_sbu_0, # of connection points: 4
#     Node 2, Type 0, BuildingBlock: TATPOV_clean_sbu_0, # of connection points: 4
#     Node 3, Type 0, BuildingBlock: TATPOV_clean_sbu_0, # of connection points: 4
#     Node 4, Type 0, BuildingBlock: TATPOV_clean_sbu_0, # of connection points: 4
#     Node 5, Type 0, BuildingBlock: TATPOV_clean_sbu_0, # of connection points: 4
#     Node 6, Type 0, BuildingBlock: TATPOV_clean_sbu_0, # of connection points: 4
#     Node 7, Type 0, BuildingBlock: TATPOV_clean_sbu_0, # of connection points: 4
#     Node 8, Type 0, BuildingBlock: TATPOV_clean_sbu_0, # of connection points: 4
#     Node 9, Type 0, BuildingBlock: TATPOV_clean_sbu_0, # of connection points: 4
#     Node 10, Type 0, BuildingBlock: TATPOV_clean_sbu_0, # of connection points: 4
#     Node 11, Type 0, BuildingBlock: TATPOV_clean_sbu_0, # of connection points: 4
#     Node 12, Type 0, BuildingBlock: TATPOV_clean_sbu_0, # of connection points: 4
#     Node 13, Type 0, BuildingBlock: TATPOV_clean_sbu_0, # of connection points: 4
#     Node 14, Type 0, BuildingBlock: TATPOV_clean_sbu_0, # of connection points: 4
#     Node 15, Type 0, BuildingBlock: TATPOV_clean_sbu_0, # of connection points: 4
#     Edge 16, Type (0, 0), BuildingBlock: OJICUG_clean_linker_0, # of connection points: 2
#     Edge 17, Type (0, 0), BuildingBlock: OJICUG_clean_linker_0, # of connection points: 2
#     Edge 18, Type (0, 0), BuildingBlock: OJICUG_clean_linker_0, # of connection points: 2
#     Edge 19, Type (0, 0), BuildingBlock: OJICUG_clean_linker_0, # of connection points: 2
#     Edge 20, Type (0, 0), BuildingBlock: OJICUG_clean_linker_0, # of connection points: 2
#     Edge 21, Type (0, 0), BuildingBlock: OJICUG_clean_linker_0, # of connection points: 2
#     Edge 22, Type (0, 0), BuildingBlock: OJICUG_clean_linker_0, # of connection points: 2
#     Edge 23, Type (0, 0), BuildingBlock: OJICUG_clean_linker_0, # of connection points: 2
#     Edge 24, Type (0, 0), BuildingBlock: OJICUG_clean_linker_0, # of connection points: 2
#     Edge 25, Type (0, 0), BuildingBlock: OJICUG_clean_linker_0, # of connection points: 2
#     Edge 26, Type (0, 0), BuildingBlock: OJICUG_clean_linker_0, # of connection points: 2
#     Edge 27, Type (0, 0), BuildingBlock: OJICUG_clean_linker_0, # of connection points: 2
#     Edge 28, Type (0, 0), BuildingBlock: OJICUG_clean_linker_0, # of connection points: 2
#     Edge 29, Type (0, 0), BuildingBlock: OJICUG_clean_linker_0, # of connection points: 2
#     Edge 30, Type (0, 0), BuildingBlock: OJICUG_clean_linker_0, # of connection points: 2
#     Edge 31, Type (0, 0), BuildingBlock: OJICUG_clean_linker_0, # of connection points: 2
#     Edge 32, Type (0, 0), BuildingBlock: OJICUG_clean_linker_0, # of connection points: 2
#     Edge 33, Type (0, 0), BuildingBlock: OJICUG_clean_linker_0, # of connection points: 2
#     Edge 34, Type (0, 0), BuildingBlock: OJICUG_clean_linker_0, # of connection points: 2
#     Edge 35, Type (0, 0), BuildingBlock: OJICUG_clean_linker_0, # of connection points: 2
#     Edge 36, Type (0, 0), BuildingBlock: OJICUG_clean_linker_0, # of connection points: 2
#     Edge 37, Type (0, 0), BuildingBlock: OJICUG_clean_linker_0, # of connection points: 2
#     Edge 38, Type (0, 0), BuildingBlock: OJICUG_clean_linker_0, # of connection points: 2
#     Edge 39, Type (0, 0), BuildingBlock: OJICUG_clean_linker_0, # of connection points: 2
#     Edge 40, Type (0, 0), BuildingBlock: OJICUG_clean_linker_0, # of connection points: 2
#     Edge 41, Type (0, 0), BuildingBlock: OJICUG_clean_linker_0, # of connection points: 2
#     Edge 42, Type (0, 0), BuildingBlock: OJICUG_clean_linker_0, # of connection points: 2
#     Edge 43, Type (0, 0), BuildingBlock: OJICUG_clean_linker_0, # of connection points: 2
#     Edge 44, Type (0, 0), BuildingBlock: OJICUG_clean_linker_0, # of connection points: 2
#     Edge 45, Type (0, 0), BuildingBlock: OJICUG_clean_linker_0, # of connection points: 2
#     Edge 46, Type (0, 0), BuildingBlock: OJICUG_clean_linker_0, # of connection points: 2
#     Edge 47, Type (0, 0), BuildingBlock: OJICUG_clean_linker_0, # of connection points: 2
# Relax obj value: 0.108
# Max RMSD: 0.074
# Mean RMSD: 0.074
data_MOF--net-ure--node1-TATPOV_clean_sbu_0--edge1-OJICUG_clean_linker_0
_symmetry_space_group_name_H-M    P1
_symmetry_Int_Tables_number       1
_symmetry_cell_setting            triclinic
loop_
_symmetry_equiv_pos_as_xyz
'x, y, z'
_cell_length_a     24.076189
_cell_length_b     22.618916
_cell_length_c     22.667306
_cell_angle_alpha  90.070088
_cell_angle_beta   89.925967
_cell_angle_gamma 90.550769
loop_
_atom_site_label
_atom_site_type_symbol
_atom_site_fract_x
_atom_site_fract_y
_atom_site_fract_z
_atom_type_partial_charge
Zn0 Zn 0.3282 0.29547 0.35114 0.0
Zn1 Zn 0.2861 0.22956 0.28085 0.0
O2 O 0.37066 0.21741 0.26675 0.0
O3 O 0.39894 0.30176 0.30489 0.0
O4 O 0.24555 0.17902 0.22042 0.0
O5 O 0.32287 0.23846 0.41804 0.0
O6 O 0.25644 0.20128 0.36302 0.0
C7 C 0.40904 0.25597 0.27492 0.0
C8 C 0.25436 0.35893 0.28932 0.0
O9 O 0.26264 0.31372 0.25707 0.0
O10 O 0.27087 0.3587 0.34219 0.0
C11 C 0.25441 0.18712 0.16563 0.0
O12 O 0.29249 0.22585 0.14944 0.0
C13 C 0.2807 0.20526 0.41297 0.0
Zn14 Zn 0.89939 0.059 0.51437 0.0
Zn15 Zn 0.9567 0.98271 0.46537 0.0
O16 O 0.87814 0.94293 0.46763 0.0
O17 O 0.83832 0.00098 0.5324 0.0
O18 O 0.00665 0.92499 0.4239 0.0
O19 O 0.89549 0.11288 0.44409 0.0
O20 O 0.9662 0.05937 0.41625 0.0
C21 C 0.83717 0.95442 0.50148 0.0
C22 C 0.99332 0.0349 0.58247 0.0
O23 O 0.99448 0.99164 0.54642 0.0
O24 O 0.95808 0.07536 0.57535 0.0
C25 C 0.0202 0.87608 0.44718 0.0
O26 O 0.99817 0.86084 0.49807 0.0
C27 C 0.93711 0.10591 0.4108 0.0
Zn28 Zn 0.17126 0.6951 0.85734 0.0
Zn29 Zn 0.21415 0.76133 0.78641 0.0
O30 O 0.12949 0.77471 0.7734 0.0
O31 O 0.0994 0.69187 0.81322 0.0
O32 O 0.25464 0.81696 0.73041 0.0
O33 O 0.17999 0.75051 0.92538 0.0
O34 O 0.24518 0.78705 0.8683 0.0
C35 C 0.09018 0.73754 0.78288 0.0
C36 C 0.24446 0.63139 0.79201 0.0
O37 O 0.23747 0.67733 0.76048 0.0
O38 O 0.22693 0.63084 0.84457 0.0
C39 C 0.27017 0.80205 0.67886 0.0
O40 O 0.2572 0.7491 0.65903 0.0
C41 C 0.2225 0.78297 0.91901 0.0
Zn42 Zn 0.61229 0.93256 0.01228 0.0
Zn43 Zn 0.55285 0.00972 0.96595 0.0
O44 O 0.63162 0.04952 0.96634 0.0
O45 O 0.674 0.99027 0.02797 0.0
O46 O 0.50105 0.06782 0.92697 0.0
O47 O 0.61313 0.87941 0.94134 0.0
O48 O 0.54241 0.93388 0.91569 0.0
C49 C 0.67387 0.0374 -0.00196 0.0
C50 C 0.52079 0.9556 0.08426 0.0
O51 O 0.51773 -0.00138 0.04816 0.0
O52 O 0.5564 0.91572 0.07593 0.0
C53 C 0.48138 0.11227 0.95411 0.0
O54 O 0.49796 0.12338 0.00824 0.0
C55 C 0.57107 0.88718 0.90901 0.0
Zn56 Zn 0.37021 0.67608 0.20105 0.0
Zn57 Zn 0.29352 0.7239 0.26485 0.0
O58 O 0.36345 0.74016 0.31616 0.0
O59 O 0.42255 0.68274 0.26991 0.0
O60 O 0.23058 0.76432 0.30705 0.0
O61 O 0.36674 0.73774 0.13707 0.0
O62 O 0.29111 0.76449 0.18371 0.0
C63 C 0.41083 0.71558 0.31335 0.0
C64 C 0.28349 0.59482 0.22604 0.0
O65 O 0.26897 0.63648 0.26057 0.0
O66 O 0.32436 0.60221 0.19161 0.0
C67 C 0.20091 0.74135 0.3476 0.0
O68 O 0.21222 0.68789 0.36645 0.0
C69 C 0.32284 0.768 0.13876 0.0
Zn70 Zn 0.56792 0.02581 0.39135 0.0
Zn71 Zn 0.5013 0.97757 0.45067 0.0
O72 O 0.57676 0.94094 0.47529 0.0
O73 O 0.62137 0.95807 0.39287 0.0
O74 O 0.44381 0.93363 0.49971 0.0
O75 O 0.57934 0.09532 0.44458 0.0
O76 O 0.49589 0.0673 0.4722 0.0
C77 C 0.61905 0.93266 0.44243 0.0
C78 C 0.4835 0.99181 0.31984 0.0
O79 O 0.47757 0.95805 0.36439 0.0
O80 O 0.51633 0.03546 0.32328 0.0
C81 C 0.4207 0.95316 0.54622 0.0
O82 O 0.43411 0.00613 0.56567 0.0
C83 C 0.53425 0.10679 0.47055 0.0
Zn84 Zn 0.13802 0.31145 0.69895 0.0
Zn85 Zn 0.21335 0.26464 0.76256 0.0
O86 O 0.14265 0.24701 0.81293 0.0
O87 O 0.08461 0.30537 0.76675 0.0
O88 O 0.2763 0.22463 0.80542 0.0
O89 O 0.14114 0.25017 0.63458 0.0
O90 O 0.21728 0.22453 0.68061 0.0
C91 C 0.09547 0.27201 0.80991 0.0
C92 C 0.22181 0.39462 0.72537 0.0
O93 O 0.23635 0.35307 0.76001 0.0
O94 O 0.18231 0.38617 0.68952 0.0
C95 C 0.29907 0.24321 0.85262 0.0
O96 O 0.2804 0.29145 0.87785 0.0
C97 C 0.18545 0.22061 0.63579 0.0
Zn98 Zn 0.94343 0.97094 0.88696 0.0
Zn99 Zn 0.00997 0.01782 0.94731 0.0
O100 O 0.93395 0.05527 0.96978 0.0
O101 O 0.89031 0.03875 0.88673 0.0
O102 O 0.06559 0.0558 0.0037 0.0
O103 O 0.92924 0.90168 0.93949 0.0
O104 O 0.01273 0.92822 0.9681 0.0
C105 C 0.89193 0.06364 0.93663 0.0
C106 C 0.03095 0.00221 0.81716 0.0
O107 O 0.03706 0.03656 0.86142 0.0
O108 O 0.99656 0.95994 0.8205 0.0
C109 C 0.11149 0.07984 0.98871 0.0
O110 O 0.12523 0.08176 0.93264 0.0
C111 C 0.97375 0.88952 0.96608 0.0
Zn112 Zn 0.83611 0.16751 0.71864 0.0
Zn113 Zn 0.77031 0.22972 0.77469 0.0
O114 O 0.8443 0.23641 0.82255 0.0
O115 O 0.88869 0.16012 0.78671 0.0
O116 O 0.71554 0.28317 0.81604 0.0
O117 O 0.85047 0.22861 0.65594 0.0
O118 O 0.775 0.26822 0.69217 0.0
C119 C 0.8859 0.20175 0.82385 0.0
C120 C 0.73836 0.10363 0.7382 0.0
O121 O 0.7317 0.14699 0.77349 0.0
O122 O 0.77939 0.104 0.70333 0.0
C123 C 0.67593 0.26513 0.84882 0.0
O124 O 0.67073 0.20841 0.85999 0.0
C125 C 0.81184 0.26584 0.65178 0.0
Zn126 Zn 0.06055 0.56464 0.88641 0.0
Zn127 Zn 1.00243 0.51415 0.95463 0.0
O128 O 0.08406 0.49384 0.97675 0.0
O129 O 0.12323 0.50704 0.89051 0.0
O130 O 0.95498 0.4692 0.01399 0.0
O131 O 0.0641 0.63785 0.93598 0.0
O132 O 0.98579 0.6025 0.97137 0.0
C133 C 0.12629 0.48888 0.94304 0.0
C134 C 0.97753 0.51352 0.82304 0.0
O135 O 0.97614 0.48478 0.87147 0.0
O136 O 0.00647 0.56023 0.82004 0.0
C137 C 0.93866 0.41646 0.00412 0.0
O138 O 0.95307 0.3908 0.95451 0.0
C139 C 0.02017 0.64537 0.96546 0.0
Zn140 Zn 0.66578 0.82546 0.23059 0.0
Zn141 Zn 0.73365 0.76597 0.28409 0.0
O142 O 0.66017 0.75624 0.33235 0.0
O143 O 0.61512 0.83343 0.30022 0.0
O144 O 0.78982 0.71366 0.32455 0.0
O145 O 0.65008 0.76357 0.16898 0.0
O146 O 0.72891 0.72847 0.20124 0.0
C147 C 0.61838 0.79047 0.33562 0.0
C148 C 0.76179 0.89216 0.2461 0.0
O149 O 0.76975 0.84995 0.28232 0.0
O150 O 0.72055 0.88976 0.21172 0.0
C151 C 0.83383 0.73194 0.35007 0.0
O152 O 0.84395 0.78897 0.35355 0.0
C153 C 0.69055 0.72895 0.1625 0.0
Zn154 Zn 0.07998 0.36643 0.53239 0.0
Zn155 Zn 0.03136 0.4474 0.47075 0.0
O156 O 0.11353 0.47559 0.46914 0.0
O157 O 0.14958 0.41611 0.53529 0.0
O158 O 0.98815 0.50977 0.4278 0.0
O159 O 0.06922 0.30771 0.46652 0.0
O160 O 0.01329 0.37092 0.42404 0.0
C161 C 0.15458 0.45994 0.50095 0.0
C162 C 0.99508 0.41838 0.59826 0.0
O163 O 0.99639 0.45199 0.55322 0.0
O164 O 0.02457 0.37238 0.59921 0.0
C165 C 0.99027 0.56363 0.44382 0.0
O166 O 0.02417 0.57927 0.48659 0.0
C167 C 0.03495 0.31978 0.42608 0.0
Zn168 Zn 0.4252 0.62888 0.02676 0.0
Zn169 Zn 0.4722 0.54698 0.96469 0.0
O170 O 0.38985 0.51911 0.9652 0.0
O171 O 0.35549 0.57966 0.03166 0.0
O172 O 0.5148 0.48413 0.92131 0.0
O173 O 0.43532 0.6874 0.96089 0.0
O174 O 0.49065 0.62349 0.91826 0.0
C175 C 0.34961 0.53532 -0.00195 0.0
C176 C 0.51025 0.57642 0.09124 0.0
O177 O 0.50787 0.5425 0.04644 0.0
O178 O 0.48154 0.62298 0.09241 0.0
C179 C 0.51657 0.43164 0.94124 0.0
O180 O 0.4868 0.41781 0.98794 0.0
C181 C 0.4696 0.67494 0.92048 0.0
Zn182 Zn 0.77895 0.81624 0.86071 0.0
Zn183 Zn 0.73708 0.74637 0.7962 0.0
O184 O 0.82164 0.74003 0.77705 0.0
O185 O 0.84685 0.82698 0.81121 0.0
O186 O 0.69759 0.68704 0.74346 0.0
O187 O 0.78357 0.76098 0.92862 0.0
O188 O 0.71608 0.71688 0.88055 0.0
C189 C 0.85852 0.78068 0.78271 0.0
C190 C 0.69778 0.87404 0.80424 0.0
O191 O 0.70596 0.82849 0.77221 0.0
O192 O 0.71765 0.87541 0.85578 0.0
C193 C 0.68772 0.69577 0.68908 0.0
O194 O 0.70499 0.74519 0.66444 0.0
C195 C 0.74462 0.7233 0.92749 0.0
Zn196 Zn 0.72033 0.18664 0.35596 0.0
Zn197 Zn 0.76212 0.25254 0.28838 0.0
O198 O 0.67757 0.25874 0.26968 0.0
O199 O 0.65316 0.17261 0.3062 0.0
O200 O 0.8017 0.30479 0.22852 0.0
O201 O 0.71504 0.24618 0.42031 0.0
O202 O 0.78455 0.28566 0.37146 0.0
C203 C 0.64114 0.21779 0.27627 0.0
C204 C 0.80047 0.12524 0.30362 0.0
O205 O 0.79165 0.16879 0.26936 0.0
O206 O 0.78162 0.12697 0.3556 0.0
C207 C 0.80686 0.28648 0.17568 0.0
O208 O 0.7846 0.23526 0.16107 0.0
C209 C 0.75539 0.28214 0.41845 0.0
Zn210 Zn 0.44274 0.42846 0.38041 0.0
Zn211 Zn 0.50094 0.48173 0.44777 0.0
O212 O 0.41962 0.50165 0.47093 0.0
O213 O 0.37876 0.4844 0.38629 0.0
O214 O 0.54857 0.53399 0.5003 0.0
O215 O 0.44257 0.35617 0.43107 0.0
O216 O 0.51898 0.39419 0.46862 0.0
C217 C 0.37662 0.50454 0.43823 0.0
C218 C 0.52401 0.48011 0.31527 0.0
O219 O 0.52582 0.50874 0.36375 0.0
O220 O 0.49499 0.43345 0.31232 0.0
C221 C 0.55743 0.52552 0.5549 0.0
O222 O 0.53505 0.47913 0.58081 0.0
C223 C 0.48559 0.35038 0.46234 0.0
C224 C 0.23136 0.16356 0.06013 0.0
C225 C 0.21944 0.15702 0.12056 0.0
H226 H 0.20692 0.14437 0.97129 0.0
C227 C 0.1724 0.12369 0.13725 0.0
H228 H 0.26729 0.18887 0.04566 0.0
C229 C 0.13752 0.09847 0.09452 0.0
C230 C 0.14905 0.10564 0.03408 0.0
H231 H 0.1619 0.11787 0.18337 0.0
H232 H 0.10134 0.07358 0.10895 0.0
C233 C 0.19669 0.13803 0.01741 0.0
C234 C 0.09315 0.86031 0.37008 0.0
C235 C 0.06423 0.83967 0.41998 0.0
H236 H 0.15898 0.84588 0.30855 0.0
C237 C 0.07976 0.78549 0.44516 0.0
H238 H 0.08237 0.90188 0.34957 0.0
C239 C 0.12374 0.75309 0.42138 0.0
C240 C 0.15343 0.77452 0.37228 0.0
H241 H 0.05842 0.7684 0.48371 0.0
H242 H 0.13492 0.71171 0.44201 0.0
C243 C 0.13732 0.82827 0.34668 0.0
C244 C 0.35675 0.93536 0.63222 0.0
C245 C 0.38015 0.9157 0.5789 0.0
H246 H 0.3036 0.91517 0.70547 0.0
C247 C 0.36517 0.85934 0.55759 0.0
H248 H 0.36719 0.97859 0.64982 0.0
C249 C 0.32852 0.82307 0.58938 0.0
C250 C 0.30608 0.84218 0.64336 0.0
H251 H 0.38221 0.84283 0.51657 0.0
H252 H 0.31856 0.77962 0.57203 0.0
C253 C 0.32021 0.89898 0.66413 0.0
C254 C 0.41422 0.13154 0.87203 0.0
C255 C 0.43668 0.14781 0.92698 0.0
H256 H 0.35327 0.14847 0.80578 0.0
C257 C 0.41417 0.19662 0.95686 0.0
H258 H 0.43044 0.09417 0.84781 0.0
C259 C 0.36972 0.22789 0.93268 0.0
C260 C 0.3467 0.21092 0.87817 0.0
H261 H 0.43045 0.21038 -0.00072 0.0
H262 H 0.35308 0.26496 0.95703 0.0
C263 C 0.36973 0.1626 0.84801 0.0
C264 C 0.63531 0.36669 0.85327 0.0
C265 C 0.63465 0.30746 0.87202 0.0
H266 H 0.5982 0.45203 0.85967 0.0
C267 C 0.59358 0.28892 0.9123 0.0
H268 H 0.66612 0.38236 0.82197 0.0
C269 C 0.55463 0.32899 0.93407 0.0
C270 C 0.55563 0.38834 0.91566 0.0
H271 H 0.5917 0.24354 0.92744 0.0
H272 H 0.52391 0.31347 0.96555 0.0
C273 C 0.59612 0.40659 0.87463 0.0
C274 C 0.89283 0.40855 0.10368 0.0
C275 C 0.90411 0.38403 0.04791 0.0
H276 H 0.85343 0.39709 0.18785 0.0
C277 C 0.88232 0.32776 0.03434 0.0
H278 H 0.90898 0.4518 0.11557 0.0
C279 C 0.85026 0.29662 0.07558 0.0
C280 C 0.83944 0.32078 0.13159 0.0
H281 H 0.89005 0.30755 0.99179 0.0
H282 H 0.83444 0.25324 0.06362 0.0
C283 C 0.86099 0.37718 0.14514 0.0
C284 C 0.90712 0.58805 0.38251 0.0
C285 C 0.95163 0.6071 0.41806 0.0
H286 H 0.83477 0.61226 0.33385 0.0
C287 C 0.9574 0.66771 0.43069 0.0
H288 H 0.90132 0.54164 0.37213 0.0
C289 C 0.91934 0.70836 0.40842 0.0
C290 C 0.87432 0.68912 0.37364 0.0
H291 H 0.9912 0.68376 0.45798 0.0
H292 H 0.92495 0.75476 0.41898 0.0
C293 C 0.86875 0.62853 0.36083 0.0
C294 C 0.60284 0.55897 0.64914 0.0
C295 C 0.59178 0.56839 0.58901 0.0
H296 H 0.6418 0.59147 0.72777 0.0
C297 C 0.61333 0.61964 0.56188 0.0
H298 H 0.58695 0.52 0.67144 0.0
C299 C 0.64478 0.66069 0.59421 0.0
C300 C 0.65554 0.65147 0.65443 0.0
H301 H 0.60563 0.62838 0.51565 0.0
H302 H 0.66039 0.69982 0.57196 0.0
C303 C 0.63438 0.59998 0.68145 0.0
C304 C 0.28662 0.17683 0.51856 0.0
C305 C 0.254 0.18427 0.46781 0.0
H306 H 0.28986 0.18058 0.6126 0.0
C307 C 0.19609 0.18707 0.4738 0.0
H308 H 0.33138 0.1738 0.51509 0.0
C309 C 0.17215 0.19208 0.52985 0.0
C310 C 0.20593 0.1934 0.58051 0.0
H311 H 0.17007 0.19231 0.43538 0.0
H312 H 0.12803 0.20056 0.53302 0.0
C313 C 0.26272 0.18084 0.57453 0.0
C314 C 0.06104 0.97318 0.71715 0.0
C315 C 0.04973 0.01861 0.75761 0.0
H316 H 0.05197 0.94262 0.62833 0.0
C317 C 0.03631 0.07473 0.73613 0.0
H318 H 0.0728 0.92988 0.73261 0.0
C319 C 0.0241 0.08221 0.67647 0.0
C320 C 0.0256 0.03358 0.63777 0.0
H321 H 0.02744 0.11053 0.76601 0.0
H322 H 0.0078 0.12431 0.66219 0.0
C323 C 0.04891 0.9805 0.65741 0.0
C324 C 0.22032 0.81336 0.02419 0.0
C325 C 0.25129 0.80343 0.97267 0.0
H326 H 0.21957 0.8122 0.1183 0.0
C327 C 0.30919 0.79833 0.97677 0.0
H328 H 0.17563 0.81812 0.02207 0.0
C329 C 0.33448 0.79387 0.03207 0.0
C330 C 0.30207 0.79517 0.08378 0.0
H331 H 0.33395 0.79084 0.93765 0.0
H332 H 0.3783 0.78359 0.03398 0.0
C333 C 0.24562 0.80987 0.07938 0.0
C334 C 0.45261 0.01696 0.21923 0.0
C335 C 0.46654 0.97329 0.26042 0.0
H336 H 0.45868 0.04558 0.1296 0.0
C337 C 0.48296 0.91759 0.24013 0.0
H338 H 0.43844 0.05967 0.23393 0.0
C339 C 0.49487 0.90932 0.18044 0.0
C340 C 0.49004 0.95667 0.14061 0.0
H341 H 0.49383 0.88311 0.27085 0.0
H342 H 0.51321 0.86791 0.16683 0.0
C343 C 0.46432 0.0088 0.15951 0.0
C344 C 0.488 0.1871 0.26201 0.0
C345 C 0.46715 0.24449 0.25843 0.0
H346 H 0.56019 0.13338 0.26883 0.0
C347 C 0.50424 0.29202 0.24936 0.0
H348 H 0.46036 0.15013 0.27026 0.0
C349 C 0.5616 0.2829 0.24946 0.0
C350 C 0.58257 0.22603 0.25896 0.0
H351 H 0.48887 0.33667 0.24579 0.0
H352 H 0.58926 0.32085 0.24676 0.0
C353 C 0.54523 0.17785 0.26204 0.0
C354 C 0.04465 0.21955 0.38297 0.0
C355 C 0.01226 0.2702 0.39094 0.0
H356 H 0.04527 0.12531 0.37975 0.0
C357 C 0.95482 0.26616 0.38121 0.0
H358 H 0.08928 0.22205 0.38793 0.0
C359 C 0.92915 0.2105 0.37733 0.0
C360 C 0.96115 0.15894 0.382 0.0
H361 H 0.92912 0.30501 0.38489 0.0
H362 H 0.88421 0.20788 0.37863 0.0
C363 C 0.01924 0.16407 0.37786 0.0
C364 C 0.95538 0.81846 0.76899 0.0
C365 C 0.91716 0.771 0.76617 0.0
H366 H 0.0407 0.84467 0.77704 0.0
C367 C 0.93718 0.71356 0.75762 0.0
H368 H 0.94117 0.86332 0.77514 0.0
C369 C 0.99434 0.70327 0.75802 0.0
C370 C 0.03226 0.75016 0.76656 0.0
H371 H 0.90888 0.67612 0.75517 0.0
H372 H 0.00888 0.65825 0.7551 0.0
C373 C 0.01245 0.80806 0.76934 0.0
C374 C 0.55129 0.72757 0.87789 0.0
C375 C 0.49357 0.72441 0.88624 0.0
H376 H 0.62266 0.78465 0.87682 0.0
C377 C 0.46207 0.77572 0.87834 0.0
H378 H 0.57654 0.68845 0.8824 0.0
C379 C 0.48843 0.83081 0.87433 0.0
C380 C 0.5465 0.83486 0.87937 0.0
H381 H 0.41732 0.77406 0.88269 0.0
H382 H 0.46301 0.87003 0.87627 0.0
C383 C 0.57776 0.7828 0.87469 0.0
C384 C 0.55405 0.71101 0.36966 0.0
C385 C 0.56659 0.77161 0.36568 0.0
H386 H 0.49041 0.64487 0.35926 0.0
C387 C 0.52281 0.81218 0.37012 0.0
H388 H 0.58674 0.67845 0.36829 0.0
C389 C 0.46783 0.7929 0.363 0.0
C390 C 0.45677 0.73278 0.35297 0.0
H391 H 0.53159 0.85916 0.36964 0.0
H392 H 0.43576 0.82553 0.35651 0.0
C393 C 0.49899 0.69173 0.36363 0.0
C394 C 0.46828 0.18825 0.4932 0.0
C395 C 0.52316 0.1689 0.487 0.0
H396 H 0.41347 0.26207 0.49116 0.0
C397 C 0.5665 0.21124 0.48567 0.0
H398 H 0.43405 0.15687 0.4947 0.0
C399 C 0.5547 0.27164 0.48386 0.0
C400 C 0.4994 0.29044 0.48292 0.0
H401 H 0.60937 0.19769 0.48151 0.0
H402 H 0.58851 0.30299 0.4778 0.0
C403 C 0.4565 0.24852 0.49088 0.0
C404 C 0.03608 0.19482 0.85624 0.0
C405 C 0.04867 0.25488 0.84854 0.0
H406 H 0.9709 0.12979 0.85648 0.0
C407 C 0.00688 0.29651 0.85893 0.0
H408 H 0.06793 0.16184 0.85034 0.0
C409 C 0.95125 0.27836 0.86201 0.0
C410 C 0.93764 0.21829 0.85524 0.0
H411 H 0.01665 0.34322 0.85637 0.0
H412 H 0.91928 0.3117 0.86067 0.0
C413 C 0.98043 0.17653 0.85957 0.0
C414 C 0.03787 0.80789 0.99311 0.0
C415 C 0.98353 0.82762 0.98364 0.0
H416 H 0.09185 0.7334 -0.00395 0.0
C417 C 0.93987 0.78578 0.98097 0.0
H418 H 0.07231 0.83894 -0.00415 0.0
C419 C 0.95113 0.7253 0.98118 0.0
C420 C 0.00622 0.70595 0.98365 0.0
H421 H 0.89739 0.79966 0.97434 0.0
H422 H 0.91731 0.69416 0.97414 0.0
C423 C 0.04911 0.7475 0.99289 0.0
C424 C 0.26647 0.4307 0.20823 0.0
C425 C 0.24173 0.41627 0.26244 0.0
H426 H 0.30028 0.49951 0.15454 0.0
C427 C 0.21839 0.46128 0.29688 0.0
H428 H 0.28473 0.39678 0.18075 0.0
C429 C 0.22615 0.52048 0.28108 0.0
C430 C 0.25889 0.53507 0.23182 0.0
H431 H 0.19838 0.45085 0.33845 0.0
H432 H 0.2112 0.55461 0.31042 0.0
C433 C 0.27565 0.48975 0.19338 0.0
C434 C 0.71384 0.00193 0.70413 0.0
C435 C 0.70574 0.04822 0.74456 0.0
H436 H 0.71461 0.90845 0.69072 0.0
C437 C 0.67608 0.03647 0.79659 0.0
H438 H 0.73483 0.01016 0.66269 0.0
C439 C 0.6658 0.978 0.81362 0.0
C440 C 0.6828 0.93101 0.77733 0.0
H441 H 0.6661 0.0717 0.82683 0.0
H442 H 0.65019 0.96965 0.85766 0.0
C443 C 0.70179 0.94361 0.72009 0.0
C444 C 0.25147 0.52404 0.03241 0.0
C445 C 0.29391 0.50742 0.99317 0.0
H446 H 0.16412 0.52816 0.04842 0.0
C447 C 0.28048 0.47048 0.94536 0.0
H448 H 0.26041 0.55185 0.07021 0.0
C449 C 0.22481 0.45795 0.93215 0.0
C450 C 0.18216 0.48054 0.96779 0.0
H451 H 0.31248 0.45566 0.91535 0.0
H452 H 0.21486 0.43465 0.89169 0.0
C453 C 0.19612 0.51 0.02025 0.0
C454 C 0.79581 0.05206 0.22252 0.0
C455 C 0.81489 0.06701 0.27916 0.0
H456 H 0.76333 0.98325 0.1675 0.0
C457 C 0.8323 0.02174 0.31709 0.0
H458 H 0.78272 0.08595 0.19193 0.0
C459 C 0.82267 0.9626 0.30213 0.0
C460 C 0.7932 0.94848 0.2506 0.0
H461 H 0.84804 0.03199 0.36067 0.0
H462 H 0.83313 0.92875 0.33352 0.0
C463 C 0.78432 0.99311 0.20863 0.0
C464 C 0.82471 0.07002 0.01919 0.0
C465 C 0.83902 0.08519 0.96107 0.0
H466 H 0.75904 0.04303 0.07705 0.0
C467 C 0.79692 0.10353 0.9224 0.0
H468 H 0.8562 0.05633 0.05029 0.0
C469 C 0.7411 0.09707 0.93841 0.0
C470 C 0.727 0.07028 0.99215 0.0
H471 H 0.80681 0.1163 0.87754 0.0
H472 H 0.70955 0.10626 0.90613 0.0
C473 C 0.76891 0.06198 0.03443 0.0
C474 C 0.28207 0.52969 0.79884 0.0
C475 C 0.25804 0.57439 0.76468 0.0
H476 H 0.29136 0.43646 0.81155 0.0
C477 C 0.23389 0.55972 0.71031 0.0
H478 H 0.3016 0.5404 0.84056 0.0
C479 C 0.22644 0.50053 0.69469 0.0
C480 C 0.24427 0.45526 0.73256 0.0
H481 H 0.21495 0.59337 0.68316 0.0
H482 H 0.20235 0.49046 0.6556 0.0
C483 C 0.27589 0.4704 0.78242 0.0
C484 C 0.25353 0.47202 0.53202 0.0
C485 C 0.21015 0.48758 0.49366 0.0
H486 H 0.34124 0.46824 0.54552 0.0
C487 C 0.22248 0.52282 0.4443 0.0
H488 H 0.24551 0.44531 0.57076 0.0
C489 C 0.27783 0.53486 0.42914 0.0
C490 C 0.32127 0.51339 0.46418 0.0
H491 H 0.18981 0.53663 0.41475 0.0
H492 H 0.28689 0.55693 0.38782 0.0
C493 C 0.30857 0.48557 0.51782 0.0
C494 C 0.67113 0.70147 0.00123 0.0
C495 C 0.72695 0.69773 0.98407 0.0
H496 H 0.61501 0.71341 0.07342 0.0
C497 C 0.76749 0.68602 0.02684 0.0
H498 H 0.63917 0.71038 0.96904 0.0
C499 C 0.7538 0.68737 0.08661 0.0
C500 C 0.69957 0.70165 0.1041 0.0
H501 H 0.81081 0.6824 0.01439 0.0
H502 H 0.78704 0.68454 0.11862 0.0
C503 C 0.65746 0.70365 0.06113 0.0
C504 C 0.54441 0.56797 0.25229 0.0
C505 C 0.544 0.50637 0.25953 0.0
H506 H 0.53369 0.63958 0.19177 0.0
C507 C 0.54928 0.47016 0.2095 0.0
H508 H 0.5423 0.5969 0.29006 0.0
C509 C 0.54578 0.49444 0.15317 0.0
C510 C 0.53597 0.55517 0.14626 0.0
H511 H 0.55057 0.42253 0.21384 0.0
H512 H 0.54444 0.46467 0.11571 0.0
C513 C 0.53962 0.59234 0.19591 0.0
C514 C 0.73526 0.31837 0.51919 0.0
C515 C 0.77473 0.30637 0.47517 0.0
H516 H 0.71669 0.31641 0.61134 0.0
C517 C 0.8304 0.29907 0.49137 0.0
H518 H 0.69205 0.32462 0.50766 0.0
C519 C 0.84454 0.29344 0.55085 0.0
C520 C 0.80307 0.29559 0.59458 0.0
H521 H 0.86149 0.28965 0.45843 0.0
H522 H 0.8866 0.28099 0.56194 0.0
C523 C 0.74942 0.31342 0.57866 0.0
C524 C 0.96518 0.40169 0.70283 0.0
C525 C 0.96892 0.43913 0.65345 0.0
H526 H 0.96073 0.39671 0.79695 0.0
C527 C 0.95797 0.4996 0.66067 0.0
H528 H 0.97196 0.3546 0.69846 0.0
C529 C 0.95298 0.52351 0.71715 0.0
C530 C 0.95806 0.48718 0.76705 0.0
H531 H 0.95937 0.52956 0.62342 0.0
H532 H 0.95079 0.57108 0.72179 0.0
C533 C 0.95886 0.42568 0.75931 0.0
C534 C 0.76874 0.89417 0.44383 0.0
C535 C 0.78369 0.92195 0.49684 0.0
H536 H 0.70226 0.87597 0.38366 0.0
C537 C 0.74225 0.93183 0.53938 0.0
H538 H 0.8 0.88273 0.41184 0.0
C539 C 0.68622 0.92535 0.52464 0.0
C540 C 0.67135 0.90984 0.4668 0.0
H541 H 0.75291 0.95092 0.58165 0.0
H542 H 0.65525 0.9405 0.55577 0.0
C543 C 0.71273 0.88936 0.42819 0.0
loop_
_geom_bond_atom_site_label_1
_geom_bond_atom_site_label_2
_geom_bond_distance
_geom_bond_site_symmetry_2
_ccdc_geom_bond_type
Zn0 O3 2.031 . S
Zn0 O5 2.049 . S
Zn0 O10 2.067 . S
Zn1 O2 1.962 . S
Zn1 O4 1.986 . S
Zn1 O6 1.996 . S
Zn1 O9 1.943 . S
O2 Zn1 1.962 . S
O2 C7 1.254 . S
O3 Zn0 2.031 . S
O3 C7 1.269 . S
O4 Zn1 1.986 . S
O4 C11 1.262 . S
O5 Zn0 2.049 . S
O5 C13 1.260 . S
O6 Zn1 1.996 . S
O6 C13 1.257 . S
C7 O2 1.254 . S
C7 O3 1.269 . S
C8 O9 1.249 . S
C8 O10 1.270 . S
O9 Zn1 1.943 . S
O9 C8 1.249 . S
O10 Zn0 2.067 . S
O10 C8 1.270 . S
C11 O4 1.262 . S
C11 O12 1.232 . S
O12 C11 1.232 . S
C13 O5 1.260 . S
C13 O6 1.257 . S
Zn14 O17 2.031 . S
Zn14 O19 2.049 . S
Zn14 O24 2.067 . S
Zn15 O16 1.962 1_545 S
Zn15 O18 1.986 1_645 S
Zn15 O20 1.996 . S
Zn15 O23 1.943 1_545 S
O16 Zn15 1.962 1_565 S
O16 C21 1.254 . S
O17 Zn14 2.031 . S
O17 C21 1.269 1_545 S
O18 Zn15 1.986 1_465 S
O18 C25 1.262 . S
O19 Zn14 2.049 . S
O19 C27 1.260 . S
O20 Zn15 1.996 . S
O20 C27 1.257 . S
C21 O16 1.254 . S
C21 O17 1.269 1_565 S
C22 O23 1.249 1_545 S
C22 O24 1.270 . S
O23 Zn15 1.943 1_565 S
O23 C22 1.249 1_565 S
O24 Zn14 2.067 . S
O24 C22 1.270 . S
C25 O18 1.262 . S
C25 O26 1.232 1_455 S
O26 C25 1.232 1_655 S
C27 O19 1.260 . S
C27 O20 1.257 . S
Zn28 O31 2.031 . S
Zn28 O33 2.049 . S
Zn28 O38 2.067 . S
Zn29 O30 1.962 . S
Zn29 O32 1.986 . S
Zn29 O34 1.996 . S
Zn29 O37 1.943 . S
O30 Zn29 1.962 . S
O30 C35 1.254 . S
O31 Zn28 2.031 . S
O31 C35 1.269 . S
O32 Zn29 1.986 . S
O32 C39 1.262 . S
O33 Zn28 2.049 . S
O33 C41 1.260 . S
O34 Zn29 1.996 . S
O34 C41 1.257 . S
C35 O30 1.254 . S
C35 O31 1.269 . S
C36 O37 1.249 . S
C36 O38 1.270 . S
O37 Zn29 1.943 . S
O37 C36 1.249 . S
O38 Zn28 2.067 . S
O38 C36 1.270 . S
C39 O32 1.262 . S
C39 O40 1.232 . S
O40 C39 1.232 . S
C41 O33 1.260 . S
C41 O34 1.257 . S
Zn42 O45 2.031 . S
Zn42 O47 2.049 . S
Zn42 O52 2.067 . S
Zn43 O44 1.961 1_564 S
Zn43 O46 1.984 1_564 S
Zn43 O48 1.996 . S
Zn43 O51 1.946 1_565 S
O44 Zn43 1.961 1_546 S
O44 C49 1.254 1_556 S
O45 Zn42 2.031 . S
O45 C49 1.269 1_565 S
O46 Zn43 1.984 1_546 S
O46 C53 1.262 . S
O47 Zn42 2.049 . S
O47 C55 1.260 . S
O48 Zn43 1.996 . S
O48 C55 1.259 . S
C49 O44 1.254 1_554 S
C49 O45 1.269 1_545 S
C50 O51 1.249 1_565 S
C50 O52 1.270 . S
O51 Zn43 1.946 1_545 S
O51 C50 1.249 1_545 S
O52 Zn42 2.067 . S
O52 C50 1.270 . S
C53 O46 1.262 . S
C53 O54 1.232 . S
O54 C53 1.232 . S
C55 O47 1.260 . S
C55 O48 1.259 . S
Zn56 O59 2.031 . S
Zn56 O61 2.049 . S
Zn56 O66 2.067 . S
Zn57 O58 1.962 . S
Zn57 O60 1.986 . S
Zn57 O62 1.996 . S
Zn57 O65 1.943 . S
O58 Zn57 1.962 . S
O58 C63 1.254 . S
O59 Zn56 2.031 . S
O59 C63 1.269 . S
O60 Zn57 1.986 . S
O60 C67 1.262 . S
O61 Zn56 2.049 . S
O61 C69 1.260 . S
O62 Zn57 1.996 . S
O62 C69 1.257 . S
C63 O58 1.254 . S
C63 O59 1.269 . S
C64 O65 1.249 . S
C64 O66 1.270 . S
O65 Zn57 1.943 . S
O65 C64 1.249 . S
O66 Zn56 2.067 . S
O66 C64 1.270 . S
C67 O60 1.262 . S
C67 O68 1.232 . S
O68 C67 1.232 . S
C69 O61 1.260 . S
C69 O62 1.257 . S
Zn70 O73 2.031 . S
Zn70 O75 2.049 . S
Zn70 O80 2.067 . S
Zn71 O72 1.962 1_545 S
Zn71 O74 1.986 1_545 S
Zn71 O76 1.996 . S
Zn71 O79 1.943 1_545 S
O72 Zn71 1.962 1_565 S
O72 C77 1.254 . S
O73 Zn70 2.031 . S
O73 C77 1.269 1_545 S
O74 Zn71 1.986 1_565 S
O74 C81 1.262 . S
O75 Zn70 2.049 . S
O75 C83 1.260 . S
O76 Zn71 1.996 . S
O76 C83 1.257 . S
C77 O72 1.254 . S
C77 O73 1.269 1_565 S
C78 O79 1.249 1_545 S
C78 O80 1.270 . S
O79 Zn71 1.943 1_565 S
O79 C78 1.249 1_565 S
O80 Zn70 2.067 . S
O80 C78 1.270 . S
C81 O74 1.262 . S
C81 O82 1.232 . S
O82 C81 1.232 . S
C83 O75 1.260 . S
C83 O76 1.257 . S
Zn84 O87 2.031 . S
Zn84 O89 2.049 . S
Zn84 O94 2.067 . S
Zn85 O86 1.962 . S
Zn85 O88 1.986 . S
Zn85 O90 1.996 . S
Zn85 O93 1.943 . S
O86 Zn85 1.962 . S
O86 C91 1.254 . S
O87 Zn84 2.031 . S
O87 C91 1.269 . S
O88 Zn85 1.986 . S
O88 C95 1.262 . S
O89 Zn84 2.049 . S
O89 C97 1.260 . S
O90 Zn85 1.996 . S
O90 C97 1.257 . S
C91 O86 1.254 . S
C91 O87 1.269 . S
C92 O93 1.249 . S
C92 O94 1.270 . S
O93 Zn85 1.943 . S
O93 C92 1.249 . S
O94 Zn84 2.067 . S
O94 C92 1.270 . S
C95 O88 1.262 . S
C95 O96 1.232 . S
O96 C95 1.232 . S
C97 O89 1.260 . S
C97 O90 1.257 . S
Zn98 O101 2.031 . S
Zn98 O103 2.049 . S
Zn98 O108 2.067 . S
Zn99 O100 1.961 1_566 S
Zn99 O102 1.984 1_666 S
Zn99 O104 1.996 . S
Zn99 O107 1.946 1_565 S
O100 Zn99 1.961 1_544 S
O100 C105 1.254 1_554 S
O101 Zn98 2.031 . S
O101 C105 1.269 1_565 S
O102 Zn99 1.984 1_444 S
O102 C109 1.262 . S
O103 Zn98 2.049 . S
O103 C111 1.260 . S
O104 Zn99 1.996 . S
O104 C111 1.259 . S
C105 O100 1.254 1_556 S
C105 O101 1.269 1_545 S
C106 O107 1.249 1_565 S
C106 O108 1.270 . S
O107 Zn99 1.946 1_545 S
O107 C106 1.249 1_545 S
O108 Zn98 2.067 . S
O108 C106 1.270 . S
C109 O102 1.262 . S
C109 O110 1.232 1_455 S
O110 C109 1.232 1_655 S
C111 O103 1.260 . S
C111 O104 1.259 . S
Zn112 O115 2.031 . S
Zn112 O117 2.049 . S
Zn112 O122 2.067 . S
Zn113 O114 1.962 . S
Zn113 O116 1.986 . S
Zn113 O118 1.996 . S
Zn113 O121 1.943 . S
O114 Zn113 1.962 . S
O114 C119 1.254 . S
O115 Zn112 2.031 . S
O115 C119 1.269 . S
O116 Zn113 1.986 . S
O116 C123 1.262 . S
O117 Zn112 2.049 . S
O117 C125 1.260 . S
O118 Zn113 1.996 . S
O118 C125 1.257 . S
C119 O114 1.254 . S
C119 O115 1.269 . S
C120 O121 1.249 . S
C120 O122 1.270 . S
O121 Zn113 1.943 . S
O121 C120 1.249 . S
O122 Zn112 2.067 . S
O122 C120 1.270 . S
C123 O116 1.262 . S
C123 O124 1.232 . S
O124 C123 1.232 . S
C125 O117 1.260 . S
C125 O118 1.257 . S
Zn126 O129 2.031 . S
Zn126 O131 2.049 . S
Zn126 O136 2.067 . S
Zn127 O128 1.961 1_556 S
Zn127 O130 1.984 1_456 S
Zn127 O132 1.996 . S
Zn127 O135 1.946 . S
O128 Zn127 1.961 1_554 S
O128 C133 1.254 1_554 S
O129 Zn126 2.031 . S
O129 C133 1.269 . S
O130 Zn127 1.984 1_654 S
O130 C137 1.262 . S
O131 Zn126 2.049 . S
O131 C139 1.260 . S
O132 Zn127 1.996 . S
O132 C139 1.259 . S
C133 O128 1.254 1_556 S
C133 O129 1.269 . S
C134 O135 1.249 . S
C134 O136 1.270 . S
O135 Zn127 1.946 . S
O135 C134 1.249 . S
O136 Zn126 2.067 . S
O136 C134 1.270 . S
C137 O130 1.262 . S
C137 O138 1.232 1_655 S
O138 C137 1.232 1_455 S
C139 O131 1.260 . S
C139 O132 1.259 . S
Zn140 O143 2.031 . S
Zn140 O145 2.049 . S
Zn140 O150 2.067 . S
Zn141 O142 1.962 . S
Zn141 O144 1.986 . S
Zn141 O146 1.996 . S
Zn141 O149 1.943 . S
O142 Zn141 1.962 . S
O142 C147 1.254 . S
O143 Zn140 2.031 . S
O143 C147 1.269 . S
O144 Zn141 1.986 . S
O144 C151 1.262 . S
O145 Zn140 2.049 . S
O145 C153 1.260 . S
O146 Zn141 1.996 . S
O146 C153 1.257 . S
C147 O142 1.254 . S
C147 O143 1.269 . S
C148 O149 1.249 . S
C148 O150 1.270 . S
O149 Zn141 1.943 . S
O149 C148 1.249 . S
O150 Zn140 2.067 . S
O150 C148 1.270 . S
C151 O144 1.262 . S
C151 O152 1.232 . S
O152 C151 1.232 . S
C153 O145 1.260 . S
C153 O146 1.257 . S
Zn154 O157 2.031 . S
Zn154 O159 2.049 . S
Zn154 O164 2.067 . S
Zn155 O156 1.962 . S
Zn155 O158 1.986 1_455 S
Zn155 O160 1.996 . S
Zn155 O163 1.943 . S
O156 Zn155 1.962 . S
O156 C161 1.254 . S
O157 Zn154 2.031 . S
O157 C161 1.269 . S
O158 Zn155 1.986 1_655 S
O158 C165 1.262 . S
O159 Zn154 2.049 . S
O159 C167 1.260 . S
O160 Zn155 1.996 . S
O160 C167 1.257 . S
C161 O156 1.254 . S
C161 O157 1.269 . S
C162 O163 1.249 . S
C162 O164 1.270 . S
O163 Zn155 1.943 . S
O163 C162 1.249 . S
O164 Zn154 2.067 . S
O164 C162 1.270 . S
C165 O158 1.262 . S
C165 O166 1.232 1_655 S
O166 C165 1.232 1_455 S
C167 O159 1.260 . S
C167 O160 1.257 . S
Zn168 O171 2.031 . S
Zn168 O173 2.049 . S
Zn168 O178 2.067 . S
Zn169 O170 1.961 1_554 S
Zn169 O172 1.984 1_554 S
Zn169 O174 1.996 . S
Zn169 O177 1.946 . S
O170 Zn169 1.961 1_556 S
O170 C175 1.254 1_556 S
O171 Zn168 2.031 . S
O171 C175 1.269 . S
O172 Zn169 1.984 1_556 S
O172 C179 1.262 . S
O173 Zn168 2.049 . S
O173 C181 1.260 . S
O174 Zn169 1.996 . S
O174 C181 1.259 . S
C175 O170 1.254 1_554 S
C175 O171 1.269 . S
C176 O177 1.249 . S
C176 O178 1.270 . S
O177 Zn169 1.946 . S
O177 C176 1.249 . S
O178 Zn168 2.067 . S
O178 C176 1.270 . S
C179 O172 1.262 . S
C179 O180 1.232 . S
O180 C179 1.232 . S
C181 O173 1.260 . S
C181 O174 1.259 . S
Zn182 O185 2.031 . S
Zn182 O187 2.049 . S
Zn182 O192 2.067 . S
Zn183 O184 1.962 . S
Zn183 O186 1.986 . S
Zn183 O188 1.996 . S
Zn183 O191 1.943 . S
O184 Zn183 1.962 . S
O184 C189 1.254 . S
O185 Zn182 2.031 . S
O185 C189 1.269 . S
O186 Zn183 1.986 . S
O186 C193 1.262 . S
O187 Zn182 2.049 . S
O187 C195 1.260 . S
O188 Zn183 1.996 . S
O188 C195 1.257 . S
C189 O184 1.254 . S
C189 O185 1.269 . S
C190 O191 1.249 . S
C190 O192 1.270 . S
O191 Zn183 1.943 . S
O191 C190 1.249 . S
O192 Zn182 2.067 . S
O192 C190 1.270 . S
C193 O186 1.262 . S
C193 O194 1.232 . S
O194 C193 1.232 . S
C195 O187 1.260 . S
C195 O188 1.257 . S
Zn196 O199 2.031 . S
Zn196 O201 2.049 . S
Zn196 O206 2.067 . S
Zn197 O198 1.962 . S
Zn197 O200 1.986 . S
Zn197 O202 1.996 . S
Zn197 O205 1.943 . S
O198 Zn197 1.962 . S
O198 C203 1.254 . S
O199 Zn196 2.031 . S
O199 C203 1.269 . S
O200 Zn197 1.986 . S
O200 C207 1.262 . S
O201 Zn196 2.049 . S
O201 C209 1.260 . S
O202 Zn197 1.996 . S
O202 C209 1.257 . S
C203 O198 1.254 . S
C203 O199 1.269 . S
C204 O205 1.249 . S
C204 O206 1.270 . S
O205 Zn197 1.943 . S
O205 C204 1.249 . S
O206 Zn196 2.067 . S
O206 C204 1.270 . S
C207 O200 1.262 . S
C207 O208 1.232 . S
O208 C207 1.232 . S
C209 O201 1.260 . S
C209 O202 1.257 . S
Zn210 O213 2.031 . S
Zn210 O215 2.049 . S
Zn210 O220 2.067 . S
Zn211 O212 1.962 . S
Zn211 O214 1.986 . S
Zn211 O216 1.996 . S
Zn211 O219 1.943 . S
O212 Zn211 1.962 . S
O212 C217 1.254 . S
O213 Zn210 2.031 . S
O213 C217 1.269 . S
O214 Zn211 1.986 . S
O214 C221 1.262 . S
O215 Zn210 2.049 . S
O215 C223 1.260 . S
O216 Zn211 1.996 . S
O216 C223 1.257 . S
C217 O212 1.254 . S
C217 O213 1.269 . S
C218 O219 1.249 . S
C218 O220 1.270 . S
O219 Zn211 1.943 . S
O219 C218 1.249 . S
O220 Zn210 2.067 . S
O220 C218 1.270 . S
C221 O214 1.262 . S
C221 O222 1.232 . S
O222 C221 1.232 . S
C223 O215 1.260 . S
C223 O216 1.257 . S
C224 C225 1.387 . S
C224 H228 0.950 . S
C224 C233 1.390 . S
C225 C224 1.387 . S
C225 C227 1.387 . S
H226 C233 0.950 . S
C227 C225 1.387 . S
C227 C229 1.390 . S
C227 H231 0.950 . S
H228 C224 0.950 . S
C229 C227 1.390 . S
C229 C230 1.387 . S
C229 H232 0.950 . S
C230 C229 1.387 . S
C230 C233 1.387 . S
H231 C227 0.950 . S
H232 C229 0.950 . S
C233 C224 1.390 . S
C233 H226 0.950 . S
C233 C230 1.387 . S
C234 C235 1.387 . S
C234 H238 0.950 . S
C234 C243 1.390 . S
C235 C234 1.387 . S
C235 C237 1.387 . S
H236 C243 0.950 . S
C237 C235 1.387 . S
C237 C239 1.390 . S
C237 H241 0.950 . S
H238 C234 0.950 . S
C239 C237 1.390 . S
C239 C240 1.387 . S
C239 H242 0.950 . S
C240 C239 1.387 . S
C240 C243 1.387 . S
H241 C237 0.950 . S
H242 C239 0.950 . S
C243 C234 1.390 . S
C243 H236 0.950 . S
C243 C240 1.387 . S
C244 C245 1.387 . S
C244 H248 0.950 . S
C244 C253 1.390 . S
C245 C244 1.387 . S
C245 C247 1.387 . S
H246 C253 0.950 . S
C247 C245 1.387 . S
C247 C249 1.390 . S
C247 H251 0.950 . S
H248 C244 0.950 . S
C249 C247 1.390 . S
C249 C250 1.387 . S
C249 H252 0.950 . S
C250 C249 1.387 . S
C250 C253 1.387 . S
H251 C247 0.950 . S
H252 C249 0.950 . S
C253 C244 1.390 . S
C253 H246 0.950 . S
C253 C250 1.387 . S
C254 C255 1.387 . S
C254 H258 0.950 . S
C254 C263 1.390 . S
C255 C254 1.387 . S
C255 C257 1.387 . S
H256 C263 0.950 . S
C257 C255 1.387 . S
C257 C259 1.390 . S
C257 H261 0.950 . S
H258 C254 0.950 . S
C259 C257 1.390 . S
C259 C260 1.387 . S
C259 H262 0.950 . S
C260 C259 1.387 . S
C260 C263 1.387 . S
H261 C257 0.950 . S
H262 C259 0.950 . S
C263 C254 1.390 . S
C263 H256 0.950 . S
C263 C260 1.387 . S
C264 C265 1.387 . S
C264 H268 0.950 . S
C264 C273 1.390 . S
C265 C264 1.387 . S
C265 C267 1.387 . S
H266 C273 0.950 . S
C267 C265 1.387 . S
C267 C269 1.390 . S
C267 H271 0.950 . S
H268 C264 0.950 . S
C269 C267 1.390 . S
C269 C270 1.387 . S
C269 H272 0.950 . S
C270 C269 1.387 . S
C270 C273 1.387 . S
H271 C267 0.950 . S
H272 C269 0.950 . S
C273 C264 1.390 . S
C273 H266 0.950 . S
C273 C270 1.387 . S
C274 C275 1.387 . S
C274 H278 0.950 . S
C274 C283 1.390 . S
C275 C274 1.387 . S
C275 C277 1.387 . S
H276 C283 0.950 . S
C277 C275 1.387 . S
C277 C279 1.390 . S
C277 H281 0.950 . S
H278 C274 0.950 . S
C279 C277 1.390 . S
C279 C280 1.387 . S
C279 H282 0.950 . S
C280 C279 1.387 . S
C280 C283 1.387 . S
H281 C277 0.950 . S
H282 C279 0.950 . S
C283 C274 1.390 . S
C283 H276 0.950 . S
C283 C280 1.387 . S
C284 C285 1.387 . S
C284 H288 0.950 . S
C284 C293 1.390 . S
C285 C284 1.387 . S
C285 C287 1.387 . S
H286 C293 0.950 . S
C287 C285 1.387 . S
C287 C289 1.390 . S
C287 H291 0.950 . S
H288 C284 0.950 . S
C289 C287 1.390 . S
C289 C290 1.387 . S
C289 H292 0.950 . S
C290 C289 1.387 . S
C290 C293 1.387 . S
H291 C287 0.950 . S
H292 C289 0.950 . S
C293 C284 1.390 . S
C293 H286 0.950 . S
C293 C290 1.387 . S
C294 C295 1.387 . S
C294 H298 0.950 . S
C294 C303 1.390 . S
C295 C294 1.387 . S
C295 C297 1.387 . S
H296 C303 0.950 . S
C297 C295 1.387 . S
C297 C299 1.390 . S
C297 H301 0.950 . S
H298 C294 0.950 . S
C299 C297 1.390 . S
C299 C300 1.387 . S
C299 H302 0.950 . S
C300 C299 1.387 . S
C300 C303 1.387 . S
H301 C297 0.950 . S
H302 C299 0.950 . S
C303 C294 1.390 . S
C303 H296 0.950 . S
C303 C300 1.387 . S
C304 C305 1.387 . S
C304 H308 0.950 . S
C304 C313 1.390 . S
C305 C304 1.387 . S
C305 C307 1.387 . S
H306 C313 0.950 . S
C307 C305 1.387 . S
C307 C309 1.390 . S
C307 H311 0.950 . S
H308 C304 0.950 . S
C309 C307 1.390 . S
C309 C310 1.387 . S
C309 H312 0.950 . S
C310 C309 1.387 . S
C310 C313 1.387 . S
H311 C307 0.950 . S
H312 C309 0.950 . S
C313 C304 1.390 . S
C313 H306 0.950 . S
C313 C310 1.387 . S
C314 C315 1.387 1_455 S
C314 H318 0.950 . S
C314 C323 1.390 1_545 S
C315 C314 1.387 1_655 S
C315 C317 1.387 . S
H316 C323 0.950 . S
C317 C315 1.387 . S
C317 C319 1.390 1_545 S
C317 H321 0.950 . S
H318 C314 0.950 . S
C319 C317 1.390 1_565 S
C319 C320 1.387 . S
C319 H322 0.950 . S
C320 C319 1.387 . S
C320 C323 1.387 1_655 S
H321 C317 0.950 . S
H322 C319 0.950 . S
C323 C314 1.390 1_565 S
C323 H316 0.950 . S
C323 C320 1.387 1_455 S
C324 C325 1.387 . S
C324 H328 0.950 . S
C324 C333 1.390 1_556 S
C325 C324 1.387 . S
C325 C327 1.387 . S
H326 C333 0.950 . S
C327 C325 1.387 . S
C327 C329 1.390 1_556 S
C327 H331 0.950 . S
H328 C324 0.950 . S
C329 C327 1.390 1_554 S
C329 C330 1.387 . S
C329 H332 0.950 . S
C330 C329 1.387 . S
C330 C333 1.387 . S
H331 C327 0.950 . S
H332 C329 0.950 . S
C333 C324 1.390 1_554 S
C333 H326 0.950 . S
C333 C330 1.387 . S
C334 C335 1.387 . S
C334 H338 0.950 . S
C334 C343 1.390 1_565 S
C335 C334 1.387 . S
C335 C337 1.387 . S
H336 C343 0.950 . S
C337 C335 1.387 . S
C337 C339 1.390 1_565 S
C337 H341 0.950 . S
H338 C334 0.950 . S
C339 C337 1.390 1_545 S
C339 C340 1.387 . S
C339 H342 0.950 . S
C340 C339 1.387 . S
C340 C343 1.387 . S
H341 C337 0.950 . S
H342 C339 0.950 . S
C343 C334 1.390 1_545 S
C343 H336 0.950 . S
C343 C340 1.387 . S
C344 C345 1.387 . S
C344 H348 0.950 . S
C344 C353 1.390 . S
C345 C344 1.387 . S
C345 C347 1.387 . S
H346 C353 0.950 . S
C347 C345 1.387 . S
C347 C349 1.390 . S
C347 H351 0.950 . S
H348 C344 0.950 . S
C349 C347 1.390 . S
C349 C350 1.387 . S
C349 H352 0.950 . S
C350 C349 1.387 . S
C350 C353 1.387 . S
H351 C347 0.950 . S
H352 C349 0.950 . S
C353 C344 1.390 . S
C353 H346 0.950 . S
C353 C350 1.387 . S
C354 C355 1.387 . S
C354 H358 0.950 . S
C354 C363 1.390 1_655 S
C355 C354 1.387 . S
C355 C357 1.387 . S
H356 C363 0.950 . S
C357 C355 1.387 . S
C357 C359 1.390 1_655 S
C357 H361 0.950 . S
H358 C354 0.950 . S
C359 C357 1.390 1_455 S
C359 C360 1.387 . S
C359 H362 0.950 . S
C360 C359 1.387 . S
C360 C363 1.387 . S
H361 C357 0.950 . S
H362 C359 0.950 . S
C363 C354 1.390 1_455 S
C363 H356 0.950 . S
C363 C360 1.387 . S
C364 C365 1.387 . S
C364 H368 0.950 . S
C364 C373 1.390 1_655 S
C365 C364 1.387 . S
C365 C367 1.387 . S
H366 C373 0.950 . S
C367 C365 1.387 . S
C367 C369 1.390 1_655 S
C367 H371 0.950 . S
H368 C364 0.950 . S
C369 C367 1.390 1_455 S
C369 C370 1.387 . S
C369 H372 0.950 . S
C370 C369 1.387 . S
C370 C373 1.387 . S
H371 C367 0.950 . S
H372 C369 0.950 . S
C373 C364 1.390 1_455 S
C373 H366 0.950 . S
C373 C370 1.387 . S
C374 C375 1.387 . S
C374 H378 0.950 . S
C374 C383 1.390 . S
C375 C374 1.387 . S
C375 C377 1.387 1_554 S
H376 C383 0.950 . S
C377 C375 1.387 1_556 S
C377 C379 1.390 . S
C377 H381 0.950 . S
H378 C374 0.950 . S
C379 C377 1.390 . S
C379 C380 1.387 1_556 S
C379 H382 0.950 . S
C380 C379 1.387 1_554 S
C380 C383 1.387 . S
H381 C377 0.950 . S
H382 C379 0.950 . S
C383 C374 1.390 . S
C383 H376 0.950 . S
C383 C380 1.387 . S
C384 C385 1.387 . S
C384 H388 0.950 . S
C384 C393 1.390 . S
C385 C384 1.387 . S
C385 C387 1.387 . S
H386 C393 0.950 . S
C387 C385 1.387 . S
C387 C389 1.390 . S
C387 H391 0.950 . S
H388 C384 0.950 . S
C389 C387 1.390 . S
C389 C390 1.387 . S
C389 H392 0.950 . S
C390 C389 1.387 . S
C390 C393 1.387 . S
H391 C387 0.950 . S
H392 C389 0.950 . S
C393 C384 1.390 . S
C393 H386 0.950 . S
C393 C390 1.387 . S
C394 C395 1.387 . S
C394 H398 0.950 . S
C394 C403 1.390 . S
C395 C394 1.387 . S
C395 C397 1.387 . S
H396 C403 0.950 . S
C397 C395 1.387 . S
C397 C399 1.390 . S
C397 H401 0.950 . S
H398 C394 0.950 . S
C399 C397 1.390 . S
C399 C400 1.387 . S
C399 H402 0.950 . S
C400 C399 1.387 . S
C400 C403 1.387 . S
H401 C397 0.950 . S
H402 C399 0.950 . S
C403 C394 1.390 . S
C403 H396 0.950 . S
C403 C400 1.387 . S
C404 C405 1.387 . S
C404 H408 0.950 . S
C404 C413 1.390 1_455 S
C405 C404 1.387 . S
C405 C407 1.387 . S
H406 C413 0.950 . S
C407 C405 1.387 . S
C407 C409 1.390 1_455 S
C407 H411 0.950 . S
H408 C404 0.950 . S
C409 C407 1.390 1_655 S
C409 C410 1.387 . S
C409 H412 0.950 . S
C410 C409 1.387 . S
C410 C413 1.387 . S
H411 C407 0.950 . S
H412 C409 0.950 . S
C413 C404 1.390 1_655 S
C413 H406 0.950 . S
C413 C410 1.387 . S
C414 C415 1.387 . S
C414 H418 0.950 . S
C414 C423 1.390 1_455 S
C415 C414 1.387 . S
C415 C417 1.387 1_556 S
H416 C423 0.950 . S
C417 C415 1.387 1_554 S
C417 C419 1.390 1_455 S
C417 H421 0.950 . S
H418 C414 0.950 . S
C419 C417 1.390 1_655 S
C419 C420 1.387 1_554 S
C419 H422 0.950 . S
C420 C419 1.387 1_556 S
C420 C423 1.387 . S
H421 C417 0.950 . S
H422 C419 0.950 . S
C423 C414 1.390 1_655 S
C423 H416 0.950 . S
C423 C420 1.387 . S
C424 C425 1.387 . S
C424 H428 0.950 . S
C424 C433 1.390 . S
C425 C424 1.387 . S
C425 C427 1.387 . S
H426 C433 0.950 . S
C427 C425 1.387 . S
C427 C429 1.390 . S
C427 H431 0.950 . S
H428 C424 0.950 . S
C429 C427 1.390 . S
C429 C430 1.387 . S
C429 H432 0.950 . S
C430 C429 1.387 . S
C430 C433 1.387 . S
H431 C427 0.950 . S
H432 C429 0.950 . S
C433 C424 1.390 . S
C433 H426 0.950 . S
C433 C430 1.387 . S
C434 C435 1.387 . S
C434 H438 0.950 . S
C434 C443 1.390 1_545 S
C435 C434 1.387 . S
C435 C437 1.387 . S
H436 C443 0.950 . S
C437 C435 1.387 . S
C437 C439 1.390 1_545 S
C437 H441 0.950 . S
H438 C434 0.950 . S
C439 C437 1.390 1_565 S
C439 C440 1.387 . S
C439 H442 0.950 . S
C440 C439 1.387 . S
C440 C443 1.387 . S
H441 C437 0.950 . S
H442 C439 0.950 . S
C443 C434 1.390 1_565 S
C443 H436 0.950 . S
C443 C440 1.387 . S
C444 C445 1.388 . S
C444 H448 0.950 . S
C444 C453 1.390 1_556 S
C445 C444 1.388 . S
C445 C447 1.388 . S
H446 C453 0.950 . S
C447 C445 1.388 . S
C447 C449 1.390 1_556 S
C447 H451 0.950 . S
H448 C444 0.950 . S
C449 C447 1.390 1_554 S
C449 C450 1.388 . S
C449 H452 0.950 . S
C450 C449 1.388 . S
C450 C453 1.388 . S
H451 C447 0.950 . S
H452 C449 0.950 . S
C453 C444 1.390 1_554 S
C453 H446 0.950 . S
C453 C450 1.388 . S
C454 C455 1.387 . S
C454 H458 0.950 . S
C454 C463 1.390 1_545 S
C455 C454 1.387 . S
C455 C457 1.387 . S
H456 C463 0.950 . S
C457 C455 1.387 . S
C457 C459 1.390 1_545 S
C457 H461 0.950 . S
H458 C454 0.950 . S
C459 C457 1.390 1_565 S
C459 C460 1.387 . S
C459 H462 0.950 . S
C460 C459 1.387 . S
C460 C463 1.387 . S
H461 C457 0.950 . S
H462 C459 0.950 . S
C463 C454 1.390 1_565 S
C463 H456 0.950 . S
C463 C460 1.387 . S
C464 C465 1.388 1_565 S
C464 H468 0.950 . S
C464 C473 1.390 1_554 S
C465 C464 1.388 1_545 S
C465 C467 1.388 . S
H466 C473 0.950 . S
C467 C465 1.388 . S
C467 C469 1.390 1_554 S
C467 H471 0.950 . S
H468 C464 0.950 . S
C469 C467 1.390 1_556 S
C469 C470 1.388 . S
C469 H472 0.950 . S
C470 C469 1.388 . S
C470 C473 1.388 1_545 S
H471 C467 0.950 . S
H472 C469 0.950 . S
C473 C464 1.390 1_556 S
C473 H466 0.950 . S
C473 C470 1.388 1_565 S
C474 C475 1.387 . S
C474 H478 0.950 . S
C474 C483 1.390 . S
C475 C474 1.387 . S
C475 C477 1.387 . S
H476 C483 0.950 . S
C477 C475 1.387 . S
C477 C479 1.390 . S
C477 H481 0.950 . S
H478 C474 0.950 . S
C479 C477 1.390 . S
C479 C480 1.387 . S
C479 H482 0.950 . S
C480 C479 1.387 . S
C480 C483 1.387 . S
H481 C477 0.950 . S
H482 C479 0.950 . S
C483 C474 1.390 . S
C483 H476 0.950 . S
C483 C480 1.387 . S
C484 C485 1.387 . S
C484 H488 0.950 . S
C484 C493 1.390 . S
C485 C484 1.387 . S
C485 C487 1.387 . S
H486 C493 0.950 . S
C487 C485 1.387 . S
C487 C489 1.390 . S
C487 H491 0.950 . S
H488 C484 0.950 . S
C489 C487 1.390 . S
C489 C490 1.387 . S
C489 H492 0.950 . S
C490 C489 1.387 . S
C490 C493 1.387 . S
H491 C487 0.950 . S
H492 C489 0.950 . S
C493 C484 1.390 . S
C493 H486 0.950 . S
C493 C490 1.387 . S
C494 C495 1.387 . S
C494 H498 0.950 . S
C494 C503 1.390 1_556 S
C495 C494 1.387 . S
C495 C497 1.387 . S
H496 C503 0.950 . S
C497 C495 1.387 . S
C497 C499 1.390 1_556 S
C497 H501 0.950 . S
H498 C494 0.950 . S
C499 C497 1.390 1_554 S
C499 C500 1.387 . S
C499 H502 0.950 . S
C500 C499 1.387 . S
C500 C503 1.387 . S
H501 C497 0.950 . S
H502 C499 0.950 . S
C503 C494 1.390 1_554 S
C503 H496 0.950 . S
C503 C500 1.387 . S
C504 C505 1.387 . S
C504 H508 0.950 . S
C504 C513 1.390 . S
C505 C504 1.387 . S
C505 C507 1.387 . S
H506 C513 0.950 . S
C507 C505 1.387 . S
C507 C509 1.390 . S
C507 H511 0.950 . S
H508 C504 0.950 . S
C509 C507 1.390 . S
C509 C510 1.387 . S
C509 H512 0.950 . S
C510 C509 1.387 . S
C510 C513 1.387 . S
H511 C507 0.950 . S
H512 C509 0.950 . S
C513 C504 1.390 . S
C513 H506 0.950 . S
C513 C510 1.387 . S
C514 C515 1.387 . S
C514 H518 0.950 . S
C514 C523 1.390 . S
C515 C514 1.387 . S
C515 C517 1.387 . S
H516 C523 0.950 . S
C517 C515 1.387 . S
C517 C519 1.390 . S
C517 H521 0.950 . S
H518 C514 0.950 . S
C519 C517 1.390 . S
C519 C520 1.387 . S
C519 H522 0.950 . S
C520 C519 1.387 . S
C520 C523 1.387 . S
H521 C517 0.950 . S
H522 C519 0.950 . S
C523 C514 1.390 . S
C523 H516 0.950 . S
C523 C520 1.387 . S
C524 C525 1.387 . S
C524 H528 0.950 . S
C524 C533 1.390 . S
C525 C524 1.387 . S
C525 C527 1.387 1_455 S
H526 C533 0.950 . S
C527 C525 1.387 1_655 S
C527 C529 1.390 . S
C527 H531 0.950 . S
H528 C524 0.950 . S
C529 C527 1.390 . S
C529 C530 1.387 1_655 S
C529 H532 0.950 . S
C530 C529 1.387 1_455 S
C530 C533 1.387 . S
H531 C527 0.950 . S
H532 C529 0.950 . S
C533 C524 1.390 . S
C533 H526 0.950 . S
C533 C530 1.387 . S
C534 C535 1.387 . S
C534 H538 0.950 . S
C534 C543 1.390 . S
C535 C534 1.387 . S
C535 C537 1.387 1_565 S
H536 C543 0.950 . S
C537 C535 1.387 1_545 S
C537 C539 1.390 . S
C537 H541 0.950 . S
H538 C534 0.950 . S
C539 C537 1.390 . S
C539 C540 1.387 1_545 S
C539 H542 0.950 . S
C540 C539 1.387 1_565 S
C540 C543 1.387 . S
H541 C537 0.950 . S
H542 C539 0.950 . S
C543 C534 1.390 . S
C543 H536 0.950 . S
C543 C540 1.387 . S
C225 C11 1.673 . S
C230 C109 1.673 . S
C235 C25 1.673 . S
C240 C67 1.673 . S
C245 C81 1.673 . S
C250 C39 1.673 . S
C255 C53 1.673 . S
C260 C95 1.673 . S
C265 C123 1.673 . S
C270 C179 1.673 . S
C275 C137 1.673 . S
C280 C207 1.673 . S
C285 C165 1.673 . S
C290 C151 1.673 . S
C295 C221 1.673 . S
C300 C193 1.673 . S
C305 C13 1.171 . S
C310 C97 1.171 . S
C315 C106 1.349 1_545 S
C320 C22 1.349 1_565 S
C325 C41 1.165 . S
C330 C69 1.165 . S
C335 C78 1.345 1_565 S
C340 C50 1.345 1_545 S
C345 C7 1.212 . S
C350 C203 1.212 . S
C355 C167 1.165 1_655 S
C360 C27 1.165 1_455 S
C365 C189 1.212 . S
C370 C35 1.212 . S
C375 C181 1.165 . S
C380 C55 1.165 . S
C385 C147 1.212 . S
C390 C63 1.212 . S
C395 C83 1.165 . S
C400 C223 1.165 . S
C405 C91 1.210 . S
C410 C119 1.210 . S
C415 C111 1.165 1_455 S
C420 C139 1.165 1_655 S
C425 C8 1.345 . S
C430 C64 1.345 . S
C435 C120 1.349 . S
C440 C190 1.349 . S
C445 C175 1.210 1_556 S
C450 C133 1.210 1_554 S
C455 C204 1.345 . S
C460 C148 1.345 . S
C465 C105 1.210 1_554 S
C470 C49 1.210 1_556 S
C475 C36 1.345 . S
C480 C92 1.345 . S
C485 C161 1.210 . S
C490 C217 1.210 . S
C495 C195 1.171 . S
C500 C153 1.171 . S
C505 C218 1.349 . S
C510 C176 1.349 . S
C515 C209 1.171 . S
C520 C125 1.171 . S
C525 C162 1.345 . S
C530 C134 1.345 . S
C535 C21 1.212 . S
C540 C77 1.212 . S
