# Generated by pormake.
# Topology ure, (4)-cn, num edge types: 1
# Building blocks:
#     Node 0, Type 0, BuildingBlock: ICAMEG_clean_sbu_1, # of connection points: 4
#     Node 1, Type 0, BuildingBlock: ICAMEG_clean_sbu_1, # of connection points: 4
#     Node 2, Type 0, BuildingBlock: ICAMEG_clean_sbu_1, # of connection points: 4
#     Node 3, Type 0, BuildingBlock: ICAMEG_clean_sbu_1, # of connection points: 4
#     Node 4, Type 0, BuildingBlock: ICAMEG_clean_sbu_1, # of connection points: 4
#     Node 5, Type 0, BuildingBlock: ICAMEG_clean_sbu_1, # of connection points: 4
#     Node 6, Type 0, BuildingBlock: ICAMEG_clean_sbu_1, # of connection points: 4
#     Node 7, Type 0, BuildingBlock: ICAMEG_clean_sbu_1, # of connection points: 4
#     Node 8, Type 0, BuildingBlock: ICAMEG_clean_sbu_1, # of connection points: 4
#     Node 9, Type 0, BuildingBlock: ICAMEG_clean_sbu_1, # of connection points: 4
#     Node 10, Type 0, BuildingBlock: ICAMEG_clean_sbu_1, # of connection points: 4
#     Node 11, Type 0, BuildingBlock: ICAMEG_clean_sbu_1, # of connection points: 4
#     Node 12, Type 0, BuildingBlock: ICAMEG_clean_sbu_1, # of connection points: 4
#     Node 13, Type 0, BuildingBlock: ICAMEG_clean_sbu_1, # of connection points: 4
#     Node 14, Type 0, BuildingBlock: ICAMEG_clean_sbu_1, # of connection points: 4
#     Node 15, Type 0, BuildingBlock: ICAMEG_clean_sbu_1, # of connection points: 4
#     Edge 16, Type (0, 0), BuildingBlock: ZUJKAS_clean_linker_0, # of connection points: 2
#     Edge 17, Type (0, 0), BuildingBlock: ZUJKAS_clean_linker_0, # of connection points: 2
#     Edge 18, Type (0, 0), BuildingBlock: ZUJKAS_clean_linker_0, # of connection points: 2
#     Edge 19, Type (0, 0), BuildingBlock: ZUJKAS_clean_linker_0, # of connection points: 2
#     Edge 20, Type (0, 0), BuildingBlock: ZUJKAS_clean_linker_0, # of connection points: 2
#     Edge 21, Type (0, 0), BuildingBlock: ZUJKAS_clean_linker_0, # of connection points: 2
#     Edge 22, Type (0, 0), BuildingBlock: ZUJKAS_clean_linker_0, # of connection points: 2
#     Edge 23, Type (0, 0), BuildingBlock: ZUJKAS_clean_linker_0, # of connection points: 2
#     Edge 24, Type (0, 0), BuildingBlock: ZUJKAS_clean_linker_0, # of connection points: 2
#     Edge 25, Type (0, 0), BuildingBlock: ZUJKAS_clean_linker_0, # of connection points: 2
#     Edge 26, Type (0, 0), BuildingBlock: ZUJKAS_clean_linker_0, # of connection points: 2
#     Edge 27, Type (0, 0), BuildingBlock: ZUJKAS_clean_linker_0, # of connection points: 2
#     Edge 28, Type (0, 0), BuildingBlock: ZUJKAS_clean_linker_0, # of connection points: 2
#     Edge 29, Type (0, 0), BuildingBlock: ZUJKAS_clean_linker_0, # of connection points: 2
#     Edge 30, Type (0, 0), BuildingBlock: ZUJKAS_clean_linker_0, # of connection points: 2
#     Edge 31, Type (0, 0), BuildingBlock: ZUJKAS_clean_linker_0, # of connection points: 2
#     Edge 32, Type (0, 0), BuildingBlock: ZUJKAS_clean_linker_0, # of connection points: 2
#     Edge 33, Type (0, 0), BuildingBlock: ZUJKAS_clean_linker_0, # of connection points: 2
#     Edge 34, Type (0, 0), BuildingBlock: ZUJKAS_clean_linker_0, # of connection points: 2
#     Edge 35, Type (0, 0), BuildingBlock: ZUJKAS_clean_linker_0, # of connection points: 2
#     Edge 36, Type (0, 0), BuildingBlock: ZUJKAS_clean_linker_0, # of connection points: 2
#     Edge 37, Type (0, 0), BuildingBlock: ZUJKAS_clean_linker_0, # of connection points: 2
#     Edge 38, Type (0, 0), BuildingBlock: ZUJKAS_clean_linker_0, # of connection points: 2
#     Edge 39, Type (0, 0), BuildingBlock: ZUJKAS_clean_linker_0, # of connection points: 2
#     Edge 40, Type (0, 0), BuildingBlock: ZUJKAS_clean_linker_0, # of connection points: 2
#     Edge 41, Type (0, 0), BuildingBlock: ZUJKAS_clean_linker_0, # of connection points: 2
#     Edge 42, Type (0, 0), BuildingBlock: ZUJKAS_clean_linker_0, # of connection points: 2
#     Edge 43, Type (0, 0), BuildingBlock: ZUJKAS_clean_linker_0, # of connection points: 2
#     Edge 44, Type (0, 0), BuildingBlock: ZUJKAS_clean_linker_0, # of connection points: 2
#     Edge 45, Type (0, 0), BuildingBlock: ZUJKAS_clean_linker_0, # of connection points: 2
#     Edge 46, Type (0, 0), BuildingBlock: ZUJKAS_clean_linker_0, # of connection points: 2
#     Edge 47, Type (0, 0), BuildingBlock: ZUJKAS_clean_linker_0, # of connection points: 2
# Relax obj value: 0.300
# Max RMSD: 0.316
# Mean RMSD: 0.229
data_MOF--net-ure--node1-ICAMEG_clean_sbu_1--edge1-ZUJKAS_clean_linker_0
_symmetry_space_group_name_H-M    P1
_symmetry_Int_Tables_number       1
_symmetry_cell_setting            triclinic
loop_
_symmetry_equiv_pos_as_xyz
'x, y, z'
_cell_length_a     41.967472
_cell_length_b     42.785319
_cell_length_c     41.477238
_cell_angle_alpha  94.353185
_cell_angle_beta   95.087456
_cell_angle_gamma 100.46117
loop_
_atom_site_label
_atom_site_type_symbol
_atom_site_fract_x
_atom_site_fract_y
_atom_site_fract_z
_atom_type_partial_charge
Co0 Co 0.34001 0.32127 0.30886 0.0
Co1 Co 0.2917 0.24778 0.30331 0.0
O2 O 0.30025 0.29145 0.29039 0.0
C3 C 0.29424 0.36577 0.31956 0.0
O4 O 0.27659 0.3442 0.33485 0.0
C5 C 0.28106 0.23628 0.23108 0.0
O6 O 0.30709 0.2579 0.2288 0.0
O7 O 0.33478 0.2409 0.29032 0.0
O8 O 0.36499 0.28625 0.3147 0.0
H9 H 0.32015 0.15493 0.35933 0.0
H10 H 0.30711 0.33563 0.24733 0.0
O11 O 0.31785 0.3588 0.30493 0.0
H12 H 0.41287 0.31337 0.21884 0.0
H13 H 0.42977 0.42601 0.29443 0.0
H14 H 0.38122 0.32329 0.37329 0.0
H15 H 0.39885 0.3115 0.27496 0.0
H16 H 0.37737 0.37955 0.28187 0.0
O17 O 0.27135 0.23073 0.25864 0.0
H18 H 0.3298 0.2098 0.34293 0.0
H19 H 0.23578 0.19273 0.29037 0.0
H20 H 0.43338 0.36217 0.40852 0.0
H21 H 0.32051 0.33842 0.19085 0.0
H22 H 0.46898 0.43361 0.35245 0.0
H23 H 0.37368 0.32715 0.17624 0.0
O24 O 0.32582 0.31646 0.35316 0.0
H25 H 0.18505 0.28481 0.28661 0.0
H26 H 0.25543 0.23606 0.36148 0.0
H27 H 0.20282 0.24618 0.37763 0.0
H28 H 0.16718 0.27067 0.34003 0.0
H29 H 0.23806 0.27452 0.27157 0.0
H30 H 0.22524 0.13758 0.30594 0.0
H31 H 0.26755 0.1184 0.34078 0.0
O32 O 0.31128 0.26312 0.34888 0.0
C33 C 0.36217 0.25808 0.30122 0.0
C34 C 0.3015 0.16303 0.34419 0.0
C35 C 0.24824 0.15328 0.3142 0.0
N36 N 0.28333 0.20452 0.31587 0.0
C37 C 0.30679 0.19409 0.33488 0.0
C38 C 0.25439 0.18451 0.30539 0.0
C39 C 0.27199 0.14254 0.33376 0.0
C40 C 0.33056 0.33128 0.24136 0.0
N41 N 0.35234 0.32398 0.26479 0.0
C42 C 0.33791 0.33265 0.20925 0.0
C43 C 0.3677 0.32625 0.20104 0.0
C44 C 0.38968 0.3185 0.22492 0.0
C45 C 0.38152 0.31739 0.25678 0.0
C46 C 0.42458 0.40903 0.31218 0.0
C47 C 0.39231 0.34413 0.36253 0.0
C48 C 0.39178 0.37865 0.3045 0.0
N49 N 0.3794 0.35141 0.32726 0.0
C50 C 0.42566 0.36767 0.38404 0.0
C51 C 0.44867 0.41358 0.34806 0.0
C52 C 0.31848 0.29013 0.3658 0.0
C53 C 0.20034 0.27408 0.30318 0.0
C54 C 0.24015 0.24684 0.34504 0.0
C55 C 0.21033 0.25244 0.35428 0.0
C56 C 0.19034 0.26617 0.33317 0.0
N57 N 0.24977 0.25464 0.31557 0.0
C58 C 0.23032 0.26813 0.29476 0.0
Co59 Co 0.99846 0.03039 0.52587 0.0
Co60 Co 0.96892 0.94903 0.50958 0.0
O61 O 0.99494 0.98957 0.49981 0.0
C62 C 0.97132 0.05698 0.46692 0.0
O63 O 0.94317 0.03769 0.46683 0.0
C64 C 0.03617 0.93563 0.50762 0.0
O65 O 0.04741 0.96285 0.52525 0.0
O66 O 0.9852 0.95648 0.55698 0.0
O67 O 1.00181 0.00953 0.56672 0.0
H68 H 0.89021 0.87917 0.57047 0.0
H69 H 0.04272 0.02421 0.47497 0.0
O70 O 0.996 0.05353 0.48561 0.0
H71 H 0.11465 0.05592 0.57726 0.0
H72 H 0.04072 0.14788 0.55601 0.0
H73 H 0.96905 0.05139 0.5842 0.0
H74 H 0.05504 0.04982 0.57683 0.0
H75 H 0.03522 0.09665 0.52259 0.0
O76 O 0.00559 0.92633 0.50048 0.0
H77 H 0.92332 0.92987 0.55836 0.0
H78 H 0.9592 0.88162 0.48011 0.0
H79 H 0.97329 0.10233 0.61783 0.0
H80 H 0.10226 0.03037 0.47418 0.0
H81 H 0.0094 0.15104 0.60382 0.0
H82 H 0.13863 0.0462 0.52563 0.0
O83 O 0.95007 0.02379 0.52629 0.0
H84 H 0.97987 0.94092 0.38974 0.0
H85 H 0.90313 0.92756 0.47327 0.0
H86 H 0.8825 0.91389 0.4157 0.0
H87 H 0.92106 0.92031 0.37326 0.0
H88 H 0.99959 0.9537 0.44789 0.0
H89 H 0.9267 0.83039 0.49153 0.0
H90 H 0.89176 0.82896 0.53691 0.0
O91 O 0.93169 0.97074 0.51785 0.0
C92 C 0.99652 0.98163 0.57606 0.0
C93 C 0.90532 0.87949 0.55062 0.0
C94 C 0.92585 0.8521 0.50636 0.0
N95 N 0.94319 0.90874 0.51858 0.0
C96 C 0.9241 0.90813 0.54363 0.0
C97 C 0.94433 0.88118 0.50011 0.0
C98 C 0.90622 0.85132 0.5318 0.0
C99 C 0.05843 0.03134 0.4974 0.0
N100 N 0.04543 0.03657 0.52593 0.0
C101 C 0.09211 0.03469 0.49683 0.0
C102 C 0.1125 0.04353 0.52571 0.0
C103 C 0.09906 0.04894 0.55469 0.0
C104 C 0.06527 0.0453 0.55434 0.0
C105 C 0.02474 0.12688 0.56221 0.0
C106 C 0.98473 0.0725 0.57787 0.0
C107 C 0.02156 0.09778 0.54342 0.0
N108 N 1.00203 0.07097 0.55158 0.0
C109 C 0.98702 0.10128 0.597 0.0
C110 C 0.00725 0.12861 0.58911 0.0
C111 C 0.9271 0.9993 0.52327 0.0
C112 C 0.96286 0.93796 0.40791 0.0
C113 C 0.92 0.93076 0.45504 0.0
C114 C 0.90818 0.92295 0.42238 0.0
C115 C 0.92981 0.9265 0.39868 0.0
N116 N 0.95256 0.94116 0.46395 0.0
C117 C 0.97387 0.94518 0.44087 0.0
Co118 Co 0.23623 0.69607 0.81775 0.0
Co119 Co 0.25897 0.77665 0.81409 0.0
O120 O 0.26514 0.7327 0.80371 0.0
C121 C 0.29535 0.673 0.84647 0.0
O122 O 0.30043 0.69585 0.87036 0.0
C123 C 0.26627 0.77577 0.74261 0.0
O124 O 0.24445 0.74924 0.73712 0.0
O125 O 0.21279 0.76532 0.79387 0.0
O126 O 0.19794 0.71756 0.81238 0.0
H127 H 0.1991 0.86055 0.85548 0.0
H128 H 0.27672 0.68604 0.76436 0.0
O129 O 0.27336 0.67235 0.82297 0.0
H130 H 0.16323 0.64633 0.71702 0.0
H131 H 0.19259 0.579 0.8231 0.0
H132 H 0.18452 0.68866 0.8625 0.0
H133 H 0.17537 0.66795 0.77451 0.0
H134 H 0.22758 0.62526 0.80415 0.0
O135 O 0.2743 0.78893 0.77149 0.0
H136 H 0.20779 0.80562 0.84304 0.0
H137 H 0.29698 0.84112 0.80568 0.0
H138 H 0.14879 0.64307 0.88179 0.0
H139 H 0.26569 0.66434 0.70678 0.0
H140 H 0.15274 0.58775 0.86209 0.0
H141 H 0.20859 0.64436 0.68275 0.0
O142 O 0.24549 0.71505 0.86357 0.0
H143 H 0.3791 0.77689 0.81928 0.0
H144 H 0.29188 0.81176 0.87678 0.0
H145 H 0.34844 0.82442 0.9027 0.0
H146 H 0.39255 0.80703 0.87386 0.0
H147 H 0.3221 0.76446 0.79439 0.0
H148 H 0.28912 0.89641 0.81746 0.0
H149 H 0.23995 0.90641 0.84266 0.0
O150 O 0.24451 0.7665 0.8576 0.0
C151 C 0.19103 0.742 0.79965 0.0
C152 C 0.22066 0.8565 0.84455 0.0
C153 C 0.27116 0.87663 0.82317 0.0
N154 N 0.25293 0.82015 0.82378 0.0
C155 C 0.22574 0.82545 0.83751 0.0
C156 C 0.27542 0.84525 0.81645 0.0
C157 C 0.24357 0.88222 0.83733 0.0
C158 C 0.25183 0.67715 0.75411 0.0
N159 N 0.22675 0.67813 0.7728 0.0
C160 C 0.24573 0.66499 0.72149 0.0
C161 C 0.21368 0.65382 0.70801 0.0
C162 C 0.18822 0.65494 0.72721 0.0
C163 C 0.19524 0.66729 0.75974 0.0
C164 C 0.19062 0.60299 0.83183 0.0
C165 C 0.18626 0.66468 0.85366 0.0
C166 C 0.21044 0.62929 0.82125 0.0
N167 N 0.20802 0.65968 0.83207 0.0
C168 C 0.16601 0.63895 0.86473 0.0
C169 C 0.16825 0.60792 0.8537 0.0
C170 C 0.24459 0.74329 0.8752 0.0
C171 C 0.3601 0.78464 0.83207 0.0
C172 C 0.31087 0.80393 0.86415 0.0
C173 C 0.34289 0.81127 0.87891 0.0
C174 C 0.36763 0.80152 0.8627 0.0
N175 N 0.30368 0.78742 0.83406 0.0
C176 C 0.3278 0.77773 0.81806 0.0
Co177 Co 0.54382 0.95891 0.04546 0.0
Co178 Co 0.50649 0.96432 0.96974 0.0
O179 O 0.513 0.97611 0.01682 0.0
C180 C 0.49261 0.93766 0.08966 0.0
O181 O 0.48092 0.91208 0.06967 0.0
C182 C 0.51601 0.03587 0.97066 0.0
O183 O 0.54454 0.03901 0.98765 0.0
O184 O 0.55431 0.97744 0.96639 0.0
O185 O 0.57403 0.95787 0.01107 0.0
H186 H 0.53133 0.91297 0.8642 0.0
H187 H 0.52093 0.01748 0.06828 0.0
O188 O 0.51469 0.95956 0.08165 0.0
H189 H 0.64033 0.04897 0.07211 0.0
H190 H 0.60731 0.95085 0.15243 0.0
H191 H 0.58243 0.90764 0.0375 0.0
H192 H 0.61295 0.99353 0.05439 0.0
H193 H 0.56955 0.97288 0.11551 0.0
O194 O 0.49885 0.00825 0.96222 0.0
H195 H 0.53888 0.92752 0.92341 0.0
H196 H 0.46027 0.97754 0.91573 0.0
H197 H 0.62061 0.88514 0.07349 0.0
H198 H 0.54735 0.07317 0.08642 0.0
H199 H 0.63327 0.90675 0.13143 0.0
H200 H 0.60747 0.08921 0.08836 0.0
O201 O 0.52233 0.91471 0.02885 0.0
H202 H 0.39874 0.97647 0.00815 0.0
H203 H 0.45643 0.90666 0.94453 0.0
H204 H 0.39802 0.88901 0.94979 0.0
H205 H 0.36874 0.92407 0.98172 0.0
H206 H 0.45728 0.99306 0.00253 0.0
H207 H 0.45206 0.96375 0.85639 0.0
H208 H 0.48765 0.93112 0.83026 0.0
O209 O 0.51259 0.91969 0.97564 0.0
C210 C 0.57712 0.96797 0.9832 0.0
C211 C 0.51562 0.92715 0.87531 0.0
C212 C 0.47117 0.95569 0.87092 0.0
N213 N 0.49996 0.95324 0.92306 0.0
C214 C 0.51975 0.93542 0.90884 0.0
C215 C 0.47601 0.96351 0.90453 0.0
C216 C 0.49113 0.93736 0.85627 0.0
C217 C 0.54713 0.02425 0.06933 0.0
N218 N 0.56539 1.00226 0.06052 0.0
C219 C 0.56194 0.05583 0.07951 0.0
C220 C 0.59567 0.06482 0.08055 0.0
C221 C 0.61412 0.04226 0.07142 0.0
C222 C 0.59847 0.01092 0.06135 0.0
C223 C 0.60205 0.94128 0.12722 0.0
C224 C 0.58798 0.91734 0.0626 0.0
C225 C 0.58063 0.95361 0.10619 0.0
N226 N 0.57398 0.94175 0.07427 0.0
C227 C 0.60955 0.90443 0.08291 0.0
C228 C 0.61661 0.91654 0.11542 0.0
C229 C 0.51468 0.90274 0.99948 0.0
C230 C 0.41122 0.96101 0.99413 0.0
C231 C 0.44394 0.922 0.9586 0.0
C232 C 0.41082 0.9119 0.96141 0.0
C233 C 0.3944 0.93159 0.97932 0.0
N234 N 0.46026 0.95092 0.97313 0.0
C235 C 0.44434 0.97031 0.99079 0.0
Co236 Co 0.31308 0.72307 0.26486 0.0
Co237 Co 0.32736 0.76782 0.33805 0.0
O238 O 0.30329 0.75735 0.29443 0.0
C239 C 0.29686 0.77248 0.21979 0.0
O240 O 0.29282 0.79314 0.24341 0.0
C241 C 0.25821 0.76643 0.35241 0.0
O242 O 0.2491 0.73889 0.3348 0.0
O243 O 0.31302 0.72273 0.3484 0.0
O244 O 0.32358 0.69839 0.30199 0.0
H245 H 0.40248 0.74918 0.43295 0.0
H246 H 0.24901 0.74342 0.25518 0.0
O247 O 0.30376 0.74557 0.22558 0.0
H248 H 0.22295 0.62832 0.26813 0.0
H249 H 0.29637 0.64702 0.16326 0.0
H250 H 0.36604 0.68557 0.26574 0.0
H251 H 0.28001 0.65599 0.26993 0.0
H252 H 0.2828 0.68898 0.20084 0.0
O253 O 0.28799 0.78032 0.35575 0.0
H254 H 0.37274 0.73711 0.3781 0.0
H255 H 0.33143 0.82018 0.39105 0.0
H256 H 0.38032 0.64337 0.229 0.0
H257 H 0.19162 0.71661 0.25269 0.0
H258 H 0.34537 0.62383 0.17732 0.0
H259 H 0.17823 0.65863 0.25927 0.0
O260 O 0.359 0.74548 0.26796 0.0
H261 H 0.31032 0.8709 0.29501 0.0
H262 H 0.39108 0.81364 0.34484 0.0
H263 H 0.40896 0.8685 0.33065 0.0
H264 H 0.36846 0.89759 0.30563 0.0
H265 H 0.29353 0.81578 0.30922 0.0
H266 H 0.36048 0.83299 0.44614 0.0
H267 H 0.39643 0.79743 0.46737 0.0
O268 O 0.36835 0.75694 0.32188 0.0
C269 C 0.31772 0.69809 0.33155 0.0
C270 C 0.38692 0.76489 0.42395 0.0
C271 C 0.36332 0.8119 0.43137 0.0
N272 N 0.35046 0.77797 0.38131 0.0
C273 C 0.37006 0.7582 0.39288 0.0
C274 C 0.34683 0.80446 0.40019 0.0
C275 C 0.3835 0.79195 0.44326 0.0
C276 C 0.24346 0.71814 0.25751 0.0
N277 N 0.26792 0.70129 0.26216 0.0
C278 C 0.21087 0.70309 0.25632 0.0
C279 C 0.20338 0.67058 0.26008 0.0
C280 C 0.22844 0.65356 0.26505 0.0
C281 C 0.26074 0.6694 0.26608 0.0
C282 C 0.31175 0.65528 0.18575 0.0
C283 C 0.35057 0.67705 0.24342 0.0
C284 C 0.30422 0.67908 0.20711 0.0
N285 N 0.32345 0.68954 0.23563 0.0
C286 C 0.35884 0.65321 0.22266 0.0
C287 C 0.33924 0.64227 0.19365 0.0
C288 C 0.37838 0.75406 0.29378 0.0
C289 C 0.32821 0.85848 0.3059 0.0
C290 C 0.37331 0.82597 0.33369 0.0
C291 C 0.38358 0.85713 0.32585 0.0
C292 C 0.36084 0.87344 0.31184 0.0
N293 N 0.34128 0.81141 0.32771 0.0
C294 C 0.31883 0.82729 0.31405 0.0
Co295 Co 0.52802 0.03524 0.47691 0.0
Co296 Co 0.524 0.96075 0.5018 0.0
O297 O 0.51055 1.00258 0.50496 0.0
C298 C 0.54643 0.09353 0.52285 0.0
O299 O 0.57673 0.09377 0.51704 0.0
C300 C 0.45307 0.94654 0.51592 0.0
O301 O 0.44854 0.9748 0.50859 0.0
O302 O 0.5072 0.95443 0.45477 0.0
O303 O 0.53141 1.00191 0.44128 0.0
H304 H 0.57572 0.87587 0.44867 0.0
H305 H 0.46613 0.04018 0.50444 0.0
O306 O 0.52417 0.06986 0.51132 0.0
H307 H 0.43947 0.03202 0.38553 0.0
H308 H 0.53483 0.13864 0.42448 0.0
H309 H 0.5834 0.04302 0.43673 0.0
H310 H 0.49545 0.03228 0.40923 0.0
H311 H 0.51135 0.09723 0.45838 0.0
O312 O 0.48051 0.93829 0.51336 0.0
H313 H 0.55948 0.9284 0.45481 0.0
H314 H 0.5157 0.90395 0.54025 0.0
H315 H 0.60759 0.0838 0.40252 0.0
H316 H 0.40988 0.04063 0.48177 0.0
H317 H 0.58333 0.13205 0.39624 0.0
H318 H 0.39621 0.03637 0.42189 0.0
O319 O 0.57276 0.03358 0.49611 0.0
H320 H 0.51891 0.99386 0.61992 0.0
H321 H 0.58517 0.95261 0.5402 0.0
H322 H 0.60658 0.96209 0.59807 0.0
H323 H 0.57331 0.98272 0.63843 0.0
H324 H 0.4986 0.98442 0.56177 0.0
H325 H 0.53121 0.85107 0.53485 0.0
H326 H 0.56156 0.83677 0.48887 0.0
O327 O 0.56868 0.98062 0.49107 0.0
C328 C 0.51658 0.97317 0.43353 0.0
C329 C 0.56257 0.88185 0.46885 0.0
C330 C 0.53755 0.86791 0.51719 0.0
N331 N 0.53681 0.91934 0.49794 0.0
C332 C 0.55336 0.91159 0.47249 0.0
C333 C 0.52874 0.89787 0.52006 0.0
C334 C 0.55459 0.85991 0.4914 0.0
C335 C 0.46042 0.03851 0.47837 0.0
N336 N 0.48405 0.03596 0.45823 0.0
C337 C 0.4285 0.0387 0.46567 0.0
C338 C 0.42084 0.03628 0.43207 0.0
C339 C 0.44508 0.0338 0.41166 0.0
C340 C 0.47673 0.03373 0.42524 0.0
C341 C 0.54565 0.11772 0.42703 0.0
C342 C 0.57266 0.06393 0.43414 0.0
C343 C 0.53247 0.0942 0.44624 0.0
N344 N 0.54601 0.06771 0.44964 0.0
C345 C 0.58647 0.08694 0.41471 0.0
C346 C 0.57284 0.11401 0.41119 0.0
C347 C 0.58568 0.00884 0.49581 0.0
C348 C 0.53356 0.9847 0.60259 0.0
C349 C 0.57052 0.96162 0.55757 0.0
C350 C 0.58278 0.96691 0.59033 0.0
C351 C 0.56411 0.97849 0.61296 0.0
N352 N 0.54041 0.96753 0.54759 0.0
C353 C 0.5221 0.97914 0.56962 0.0
Co354 Co 0.28132 0.32928 0.76363 0.0
Co355 Co 0.28551 0.28295 0.82639 0.0
O356 O 0.29807 0.29452 0.78373 0.0
C357 C 0.288 0.28238 0.70678 0.0
O358 O 0.2969 0.26149 0.72558 0.0
C359 C 0.34864 0.27869 0.8623 0.0
O360 O 0.34281 0.30067 0.88369 0.0
O361 O 0.30426 0.32765 0.84488 0.0
O362 O 0.28023 0.35257 0.80698 0.0
H363 H 0.23864 0.30092 0.93206 0.0
H364 H 0.34309 0.31045 0.74632 0.0
O365 O 0.28123 0.30834 0.7188 0.0
H366 H 0.37207 0.42577 0.78001 0.0
H367 H 0.27276 0.40757 0.67983 0.0
H368 H 0.22943 0.36555 0.77788 0.0
H369 H 0.31561 0.39693 0.78016 0.0
H370 H 0.29543 0.36535 0.7059 0.0
O371 O 0.32913 0.27019 0.83638 0.0
H372 H 0.25403 0.31382 0.87789 0.0
H373 H 0.29152 0.22835 0.86621 0.0
H374 H 0.20628 0.40795 0.75272 0.0
H375 H 0.39959 0.33844 0.74554 0.0
H376 H 0.22794 0.42925 0.70332 0.0
H377 H 0.41446 0.39657 0.76254 0.0
O378 O 0.23632 0.30594 0.76532 0.0
H379 H 0.28753 0.18079 0.75902 0.0
H380 H 0.22244 0.23756 0.8281 0.0
H381 H 0.1992 0.18311 0.80327 0.0
H382 H 0.23185 0.15429 0.76852 0.0
H383 H 0.3097 0.23546 0.78404 0.0
H384 H 0.27666 0.21459 0.92029 0.0
H385 H 0.24998 0.251 0.9536 0.0
O386 O 0.24114 0.29447 0.81711 0.0
C387 C 0.29585 0.35256 0.83465 0.0
C388 C 0.25024 0.28486 0.91777 0.0
C389 C 0.27157 0.2364 0.91117 0.0
N390 N 0.27361 0.27187 0.86889 0.0
C391 C 0.25899 0.29203 0.88708 0.0
C392 C 0.27993 0.24433 0.88057 0.0
C393 C 0.25661 0.25685 0.92984 0.0
C394 C 0.34908 0.33577 0.75327 0.0
N395 N 0.32575 0.35204 0.7626 0.0
C396 C 0.38126 0.3515 0.75299 0.0
C397 C 0.3896 0.38409 0.76259 0.0
C398 C 0.3658 0.40049 0.7724 0.0
C399 C 0.33386 0.384 0.77236 0.0
C400 C 0.26315 0.39852 0.70138 0.0
C401 C 0.23915 0.37478 0.7565 0.0
C402 C 0.27582 0.37453 0.71622 0.0
N403 N 0.26392 0.36308 0.74355 0.0
C404 C 0.22587 0.39876 0.74231 0.0
C405 C 0.23801 0.41068 0.71458 0.0
C406 C 0.22381 0.29777 0.79103 0.0
C407 C 0.27307 0.19309 0.77414 0.0
C408 C 0.23673 0.22533 0.81279 0.0
C409 C 0.22347 0.19442 0.79891 0.0
C410 C 0.24182 0.17825 0.77945 0.0
N411 N 0.26742 0.23974 0.80748 0.0
C412 C 0.28553 0.22402 0.78842 0.0
Co413 Co 0.97215 0.95258 0.94 0.0
Co414 Co 0.97507 0.02403 0.98261 0.0
O415 O 0.9905 0.98342 0.9775 0.0
C416 C 0.974 0.90882 0.9928 0.0
O417 O 0.96221 0.92858 0.01218 0.0
C418 C 0.0472 0.04517 0.99197 0.0
O419 O 0.05006 0.0244 0.96797 0.0
O420 O 0.98624 0.03378 0.93808 0.0
O421 O 0.96221 0.98662 0.91273 0.0
H422 H 0.91185 0.10659 0.94662 0.0
H423 H 0.03616 0.94608 0.97181 0.0
O424 O 0.98019 0.91581 0.96444 0.0
H425 H 0.0591 0.97883 0.86358 0.0
H426 H 0.98988 0.85888 0.85151 0.0
H427 H 0.90642 0.94333 0.90071 0.0
H428 H 1.0036 0.9718 0.87939 0.0
H429 H 1.00091 0.90095 0.90418 0.0
O430 O 0.01939 0.04714 1.00099 0.0
H431 H 0.93173 0.05584 0.94135 0.0
H432 H 0.98615 0.07871 0.03414 0.0
H433 H 0.87249 0.90596 0.84863 0.0
H434 H 0.09215 0.9523 0.95667 0.0
H435 H 0.93137 0.84734 0.812 0.0
H436 H 0.10403 0.96882 0.90221 0.0
O437 O 0.9281 0.94958 0.95592 0.0
H438 H 0.99769 0.98879 0.09372 0.0
H439 H 0.91692 0.02535 0.01908 0.0
H440 H 0.90308 0.01213 0.0736 0.0
H441 H 0.94365 0.99377 0.11138 0.0
H442 H 0.01041 1.00202 0.03883 0.0
H443 H 0.96712 0.12989 0.04026 0.0
H444 H 0.92956 0.14404 0.99636 0.0
O445 O 0.92983 1.00229 0.9649 0.0
C446 C 0.97413 0.016 0.91236 0.0
C447 C 0.92812 0.10065 0.96596 0.0
C448 C 0.95918 0.11375 0.0185 0.0
N449 N 0.95987 0.06418 0.98751 0.0
C450 C 0.9394 0.0719 0.96316 0.0
C451 C 0.96994 0.08476 0.01486 0.0
C452 C 0.9381 0.12166 0.99386 0.0
C453 C 0.0408 0.95249 0.94774 0.0
N454 N 0.01599 0.95748 0.9262 0.0
C455 C 0.07272 0.95631 0.93944 0.0
C456 C 0.07939 0.96568 0.90894 0.0
C457 C 0.05421 0.97127 0.88727 0.0
C458 C 0.0226 0.96717 0.89641 0.0
C459 C 0.97123 0.87232 0.85689 0.0
C460 C 0.91803 0.92543 0.88974 0.0
C461 C 0.97784 0.89972 0.89 0.0
N462 N 0.95387 0.92196 0.90252 0.0
C463 C 0.89731 0.90303 0.85627 0.0
C464 C 0.93517 0.86542 0.83268 0.0
C465 C 0.91407 0.97353 0.96029 0.0
C466 C 0.97984 0.99684 0.07752 0.0
C467 C 0.93468 0.01728 0.03533 0.0
C468 C 0.92672 0.00989 0.06621 0.0
C469 C 0.9495 0.9996 0.08739 0.0
N470 N 0.96452 0.01457 0.02585 0.0
C471 C 0.98695 0.00446 0.04646 0.0
Co472 Co 0.8111 0.22695 0.7691 0.0
Co473 Co 0.82406 0.27156 0.84244 0.0
O474 O 0.80123 0.26157 0.79818 0.0
C475 C 0.79781 0.27691 0.72344 0.0
O476 O 0.79339 0.29774 0.74673 0.0
C477 C 0.75438 0.272 0.85377 0.0
O478 O 0.74513 0.24521 0.83493 0.0
O479 O 0.80841 0.2266 0.85249 0.0
O480 O 0.81955 0.20192 0.80648 0.0
H481 H 0.89549 0.25135 0.93947 0.0
H482 H 0.7481 0.24892 0.75706 0.0
O483 O 0.80386 0.24978 0.72959 0.0
H484 H 0.71838 0.13394 0.76933 0.0
H485 H 0.79595 0.15089 0.66762 0.0
H486 H 0.86279 0.18794 0.772 0.0
H487 H 0.77603 0.16039 0.77327 0.0
H488 H 0.7823 0.19346 0.70435 0.0
O489 O 0.78444 0.28487 0.85888 0.0
H490 H 0.86727 0.23979 0.88393 0.0
H491 H 0.82774 0.32411 0.89514 0.0
H492 H 0.8771 0.14511 0.73613 0.0
H493 H 0.69019 0.22335 0.75245 0.0
H494 H 0.84357 0.1263 0.6835 0.0
H495 H 0.67496 0.16542 0.75868 0.0
O496 O 0.85745 0.24832 0.7737 0.0
H497 H 0.811 0.37539 0.79865 0.0
H498 H 0.88859 0.31609 0.85082 0.0
H499 H 0.90827 0.37076 0.83702 0.0
H500 H 0.86938 0.40087 0.81079 0.0
H501 H 0.79238 0.32044 0.81256 0.0
H502 H 0.8553 0.33644 0.95088 0.0
H503 H 0.88959 0.3 0.97335 0.0
O504 O 0.86524 0.25974 0.82768 0.0
C505 C 0.81315 0.20184 0.83588 0.0
C506 C 0.88066 0.26744 0.92993 0.0
C507 C 0.85806 0.31517 0.93636 0.0
N508 N 0.84596 0.28129 0.88624 0.0
C509 C 0.86465 0.26104 0.89848 0.0
C510 C 0.84242 0.308 0.90481 0.0
C511 C 0.87732 0.29472 0.94894 0.0
C512 C 0.74178 0.22366 0.75924 0.0
N513 N 0.76554 0.20617 0.76489 0.0
C514 C 0.70888 0.20932 0.75685 0.0
C515 C 0.70035 0.17684 0.76042 0.0
C516 C 0.7247 0.15917 0.7664 0.0
C517 C 0.75732 0.17432 0.76864 0.0
C518 C 0.8107 0.15882 0.69052 0.0
C519 C 0.84794 0.17976 0.74925 0.0
C520 C 0.80313 0.18297 0.71141 0.0
N521 N 0.82157 0.19302 0.74045 0.0
C522 C 0.85623 0.15555 0.72899 0.0
C523 C 0.83742 0.14504 0.69945 0.0
C524 C 0.87612 0.25637 0.80005 0.0
C525 C 0.8282 0.36253 0.81008 0.0
C526 C 0.87151 0.32889 0.8392 0.0
C527 C 0.8828 0.35993 0.83156 0.0
C528 C 0.86095 0.37681 0.81687 0.0
N529 N 0.83934 0.31501 0.8324 0.0
C530 C 0.81778 0.33144 0.81807 0.0
Co531 Co 0.02715 0.54169 0.9757 0.0
Co532 Co 0.02368 0.46759 1.00133 0.0
O533 O 0.0099 0.50923 0.00404 0.0
C534 C 0.04486 0.60011 0.02164 0.0
O535 O 0.07531 0.60049 0.01637 0.0
C536 C 0.953 0.45327 0.01635 0.0
O537 O 0.94855 0.48186 0.01015 0.0
O538 O 0.00685 0.46091 0.95433 0.0
O539 O 0.03101 0.5082 0.94032 0.0
H540 H 0.0762 0.38293 0.94897 0.0
H541 H 0.965 0.54632 0.00282 0.0
O542 O 0.0228 0.57639 0.00979 0.0
H543 H 0.93875 0.53682 0.8838 0.0
H544 H 0.03332 0.64477 0.92284 0.0
H545 H 0.08263 0.54968 0.93567 0.0
H546 H 0.99477 0.53774 0.90783 0.0
H547 H 0.00996 0.60331 0.95674 0.0
O548 O 0.98026 0.44495 0.01288 0.0
H549 H 0.05958 0.43531 0.95472 0.0
H550 H 0.0156 0.41099 0.04008 0.0
H551 H 0.10665 0.59047 0.90139 0.0
H552 H 0.9087 0.54604 0.9798 0.0
H553 H 0.08202 0.63848 0.89482 0.0
H554 H 0.89524 0.54111 0.91987 0.0
O555 O 0.07192 0.54057 0.99518 0.0
H556 H 0.01862 0.50167 0.11927 0.0
H557 H 0.0848 0.45969 0.03994 0.0
H558 H 0.10621 0.46953 0.09779 0.0
H559 H 0.07296 0.49052 0.13797 0.0
H560 H 0.99833 0.49188 0.06115 0.0
H561 H 0.03146 0.35825 0.03505 0.0
H562 H 0.06211 0.34397 0.98931 0.0
O563 O 0.06834 0.48767 0.99062 0.0
C564 C 0.01615 0.47942 0.93288 0.0
C565 C 0.06292 0.38891 0.96905 0.0
C566 C 0.03777 0.37504 0.01733 0.0
N567 N 0.03678 0.42631 0.99779 0.0
C568 C 0.0535 0.41856 0.97247 0.0
C569 C 0.02876 0.40491 0.01999 0.0
C570 C 0.05498 0.36705 0.99167 0.0
C571 C 0.95938 0.54435 0.97673 0.0
N572 N 0.98315 0.54185 0.95675 0.0
C573 C 0.92743 0.54413 0.96383 0.0
C574 C 0.91989 0.54134 0.9302 0.0
C575 C 0.94428 0.5389 0.90996 0.0
C576 C 0.97595 0.53924 0.92373 0.0
C577 C 0.04428 0.62396 0.9255 0.0
C578 C 0.07171 0.57045 0.93291 0.0
C579 C 0.03119 0.60041 0.94471 0.0
N580 N 0.04494 0.57408 0.94827 0.0
C581 C 0.08543 0.59349 0.91346 0.0
C582 C 0.0716 0.62042 0.90979 0.0
C583 C 0.0851 0.516 0.99532 0.0
C584 C 0.03325 0.49233 0.10203 0.0
C585 C 0.07015 0.46885 0.05722 0.0
C586 C 0.08242 0.47435 0.08998 0.0
C587 C 0.06376 0.48612 0.1125 0.0
N588 N 0.04006 0.47473 0.04713 0.0
C589 C 0.02179 0.48657 0.06906 0.0
Co590 Co 0.78721 0.81711 0.26362 0.0
Co591 Co 0.78243 0.78017 0.33341 0.0
O592 O 0.79828 0.78369 0.29025 0.0
C593 C 0.76613 0.78237 0.19897 0.0
O594 O 0.73715 0.78877 0.20253 0.0
C595 C 0.85109 0.7668 0.34261 0.0
O596 O 0.8601 0.7841 0.31905 0.0
O597 O 0.80485 0.82518 0.34686 0.0
O598 O 0.78631 0.84675 0.30307 0.0
H599 H 0.73206 0.81899 0.43061 0.0
H600 H 0.84473 0.78921 0.24953 0.0
O601 O 0.7884 0.78882 0.22285 0.0
H602 H 0.88729 0.90419 0.27769 0.0
H603 H 0.79549 0.88568 0.16981 0.0
H604 H 0.73879 0.85959 0.26626 0.0
H605 H 0.82871 0.88237 0.27686 0.0
H606 H 0.81088 0.84501 0.20397 0.0
O607 O 0.82218 0.76404 0.35066 0.0
H608 H 0.75132 0.82166 0.37624 0.0
H609 H 0.78135 0.73251 0.38264 0.0
H610 H 0.72277 0.90058 0.23288 0.0
H611 H 0.90347 0.81019 0.24931 0.0
H612 H 0.75115 0.91382 0.18421 0.0
H613 H 0.92514 0.86804 0.26367 0.0
O614 O 0.7403 0.79926 0.26505 0.0
H615 H 0.77496 0.66916 0.28036 0.0
H616 H 0.716 0.74213 0.33801 0.0
H617 H 0.68804 0.68706 0.31967 0.0
H618 H 0.7176 0.65009 0.29073 0.0
H619 H 0.80188 0.72459 0.29879 0.0
H620 H 0.7627 0.72904 0.43719 0.0
H621 H 0.73772 0.77242 0.46148 0.0
O622 O 0.74109 0.79496 0.31842 0.0
C623 C 0.79941 0.84915 0.33225 0.0
C624 C 0.74286 0.79991 0.42027 0.0
C625 C 0.76009 0.74945 0.42398 0.0
N626 N 0.76734 0.77724 0.37619 0.0
C627 C 0.75376 0.80127 0.38946 0.0
C628 C 0.77071 0.75161 0.39311 0.0
C629 C 0.74606 0.77379 0.43759 0.0
C630 C 0.85392 0.81446 0.25544 0.0
N631 N 0.83328 0.83446 0.26327 0.0
C632 C 0.88723 0.82619 0.25542 0.0
C633 C 0.89938 0.85864 0.26352 0.0
C634 C 0.87817 0.87893 0.27142 0.0
C635 C 0.84501 0.86637 0.27109 0.0
C636 C 0.78293 0.88013 0.19095 0.0
C637 C 0.75131 0.86523 0.24517 0.0
C638 C 0.79151 0.85707 0.21038 0.0
N639 N 0.77569 0.8498 0.23708 0.0
C640 C 0.74212 0.88847 0.22634 0.0
C641 C 0.75805 0.89589 0.19904 0.0
C642 C 0.72578 0.79584 0.29059 0.0
C643 C 0.76186 0.68501 0.29303 0.0
C644 C 0.72901 0.72627 0.32531 0.0
C645 C 0.71306 0.69506 0.31505 0.0
C646 C 0.72966 0.67434 0.29883 0.0
N647 N 0.76066 0.73654 0.31967 0.0
C648 C 0.77702 0.7164 0.30362 0.0
Co649 Co 0.03415 0.44899 0.54491 0.0
Co650 Co 0.01037 0.45591 0.46482 0.0
O651 O 0.0079 0.46638 0.51162 0.0
C652 C 0.98701 0.42295 0.5892 0.0
O653 O 0.99264 0.39487 0.579 0.0
C654 C 0.01413 0.52714 0.47035 0.0
O655 O 0.0338 0.5302 0.4973 0.0
O656 O 0.0587 0.4709 0.47045 0.0
O657 O 0.07056 0.45007 0.51692 0.0
H658 H 0.05705 0.40996 0.36849 0.0
H659 H 0.00652 0.50562 0.56425 0.0
O660 O 0.99864 0.44746 0.57507 0.0
H661 H 0.12555 0.54051 0.58709 0.0
H662 H 0.08298 0.43974 0.65864 0.0
H663 H 0.07334 0.39787 0.54338 0.0
H664 H 0.10193 0.48531 0.56473 0.0
H665 H 0.0508 0.46249 0.61701 0.0
O666 O 1.00344 0.49968 0.45523 0.0
H667 H 0.05289 0.42247 0.42679 0.0
H668 H 0.97332 0.46849 0.4038 0.0
H669 H 0.10602 0.3746 0.58421 0.0
H670 H 0.02911 0.56097 0.58708 0.0
H671 H 0.11095 0.3955 0.64233 0.0
H672 H 0.08905 0.57874 0.59856 0.0
O673 O 0.01497 0.40508 0.52495 0.0
H674 H 0.89445 0.46298 0.48071 0.0
H675 H 0.96611 0.3974 0.43182 0.0
H676 H 0.90676 0.37764 0.42569 0.0
H677 H 0.87046 0.41056 0.45015 0.0
H678 H 0.95403 0.48172 0.48652 0.0
H679 H 0.97678 0.45667 0.34524 0.0
H680 H 0.01881 0.4271 0.32724 0.0
O681 O 0.01637 0.41141 0.47198 0.0
C682 C 0.07887 0.46176 0.49088 0.0
C683 C 0.03859 0.42281 0.37602 0.0
C684 C 0.99358 0.44907 0.36298 0.0
N685 N 0.01282 0.44611 0.41873 0.0
C686 C 0.03608 0.42992 0.40902 0.0
C687 C 0.9918 0.45578 0.39618 0.0
C688 C 0.01715 0.43246 0.3529 0.0
C689 C 0.03261 0.5131 0.56951 0.0
N690 N 0.05284 0.4922 0.56331 0.0
C691 C 0.04527 0.5445 0.58229 0.0
C692 C 0.0789 0.55448 0.58867 0.0
C693 C 0.09939 0.53305 0.5822 0.0
C694 C 0.08587 0.50184 0.5694 0.0
C695 C 0.08105 0.43044 0.63339 0.0
C696 C 0.07541 0.40715 0.5686 0.0
C697 C 0.06283 0.44321 0.60969 0.0
N698 N 0.06013 0.43151 0.57773 0.0
C699 C 0.09395 0.39387 0.59162 0.0
C700 C 0.09671 0.40561 0.62423 0.0
C701 C 0.01308 0.3938 0.49537 0.0
C702 C 0.91 0.44845 0.46988 0.0
C703 C 0.95053 0.41183 0.44268 0.0
C704 C 0.91691 0.40053 0.43905 0.0
C705 C 0.89656 0.41902 0.45276 0.0
N706 N 0.96353 0.44078 0.45941 0.0
C707 C 0.94375 0.45898 0.47302 0.0
Co708 Co 0.49857 0.53768 0.04476 0.0
Co709 Co 0.46711 0.46071 0.01134 0.0
O710 O 0.49618 0.50216 0.01168 0.0
C711 C 0.48239 0.56989 0.98626 0.0
O712 O 0.45707 0.54683 0.97792 0.0
C713 C 0.53237 0.44359 0.0066 0.0
O714 O 0.54386 0.46573 0.03057 0.0
O715 O 0.48202 0.45674 0.05795 0.0
O716 O 0.4954 0.50803 0.07918 0.0
H717 H 0.38324 0.37877 0.05344 0.0
H718 H 0.54895 0.53983 0.99887 0.0
O719 O 0.50217 0.56859 0.01101 0.0
H720 H 0.60858 0.54738 0.10797 0.0
H721 H 0.54089 0.64897 0.09828 0.0
H722 H 0.4642 0.54778 0.10298 0.0
H723 H 0.54902 0.54391 0.10148 0.0
H724 H 0.53798 0.60378 0.05682 0.0
O725 O 0.50219 0.43842 0.99621 0.0
H726 H 0.42013 0.4309 0.05469 0.0
H727 H 0.45265 0.40202 0.96503 0.0
H728 H 0.46664 0.5922 0.14519 0.0
H729 H 0.60859 0.54355 0.00423 0.0
H730 H 0.50516 0.64328 0.14297 0.0
H731 H 0.63877 0.54725 0.0591 0.0
O732 O 0.45018 0.53378 0.0398 0.0
H733 H 0.48195 0.48841 0.8974 0.0
H734 H 0.40189 0.45492 0.97409 0.0
H735 H 0.38289 0.46867 0.92031 0.0
H736 H 0.42297 0.48517 0.8811 0.0
H737 H 0.50014 0.47672 0.95263 0.0
H738 H 0.41625 0.34951 0.96287 0.0
H739 H 0.38114 0.33766 0.00726 0.0
O740 O 0.43122 0.4816 0.02584 0.0
C741 C 0.49066 0.47818 0.08187 0.0
C742 C 0.39841 0.38366 0.03395 0.0
C743 C 0.41696 0.36722 0.98313 0.0
N744 N 0.43847 0.4195 0.00995 0.0
C745 C 0.41932 0.41313 0.03452 0.0
C746 C 0.43758 0.39696 0.98453 0.0
C747 C 0.39725 0.3606 0.00803 0.0
C748 C 0.56198 0.54168 0.02282 0.0
N749 N 0.54555 0.54166 0.04982 0.0
C750 C 0.59572 0.54368 0.02571 0.0
C751 C 0.61263 0.54571 0.0565 0.0
C752 C 0.5957 0.54576 0.08393 0.0
C753 C 0.56197 0.54369 0.0801 0.0
C754 C 0.52403 0.62683 0.09953 0.0
C755 C 0.48119 0.56985 0.10197 0.0
C756 C 0.52221 0.60119 0.07606 0.0
N757 N 0.50108 0.5731 0.07759 0.0
C758 C 0.48239 0.59496 0.12588 0.0
C759 C 0.50399 0.62361 0.12461 0.0
C760 C 0.42687 0.50976 0.03391 0.0
C761 C 0.46422 0.48102 0.91409 0.0
C762 C 0.41958 0.46231 0.95744 0.0
C763 C 0.40862 0.46979 0.92678 0.0
C764 C 0.43112 0.47918 0.90495 0.0
N765 N 0.45213 0.46509 0.9666 0.0
C766 C 0.47436 0.47404 0.94528 0.0
Co767 Co 0.83765 0.8251 0.80623 0.0
Co768 Co 0.78603 0.75337 0.80085 0.0
O769 O 0.79724 0.7966 0.7878 0.0
C770 C 0.79276 0.8703 0.81564 0.0
O771 O 0.77393 0.84817 0.82919 0.0
C772 C 0.7793 0.73985 0.72887 0.0
O773 O 0.80888 0.75631 0.72857 0.0
O774 O 0.82896 0.744 0.78977 0.0
O775 O 0.861 0.78909 0.81265 0.0
H776 H 0.80656 0.65891 0.85884 0.0
H777 H 0.80569 0.83909 0.74406 0.0
O778 O 0.817 0.86357 0.8019 0.0
H779 H 0.91033 0.81267 0.71702 0.0
H780 H 0.9294 0.92758 0.79077 0.0
H781 H 0.87824 0.8272 0.8712 0.0
H782 H 0.89617 0.81309 0.77325 0.0
H783 H 0.87688 0.88148 0.77825 0.0
O784 O 0.76654 0.7373 0.75552 0.0
H785 H 0.81991 0.71359 0.84241 0.0
H786 H 0.72816 0.70058 0.78599 0.0
H787 H 0.93004 0.86655 0.90672 0.0
H788 H 0.81923 0.83955 0.68744 0.0
H789 H 0.96746 0.93622 0.84943 0.0
H790 H 0.87185 0.82618 0.67359 0.0
O791 O 0.82315 0.82136 0.85056 0.0
H792 H 0.68283 0.79578 0.77996 0.0
H793 H 0.74731 0.74405 0.85764 0.0
H794 H 0.69506 0.75701 0.87176 0.0
H795 H 0.6624 0.78302 0.83274 0.0
H796 H 0.7354 0.78265 0.76695 0.0
H797 H 0.71394 0.64566 0.80154 0.0
H798 H 0.75324 0.62454 0.83835 0.0
O799 O 0.80465 0.76842 0.84683 0.0
C800 C 0.85685 0.76036 0.8004 0.0
C801 C 0.7892 0.66786 0.84285 0.0
C802 C 0.73724 0.66041 0.81066 0.0
N803 N 0.77478 0.71031 0.81341 0.0
C804 C 0.7966 0.69882 0.83352 0.0
C805 C 0.74547 0.69149 0.80185 0.0
C806 C 0.75929 0.64858 0.83132 0.0
C807 C 0.82887 0.83376 0.73835 0.0
N808 N 0.85026 0.82656 0.7622 0.0
C809 C 0.83631 0.83385 0.70619 0.0
C810 C 0.8658 0.82627 0.69842 0.0
C811 C 0.88739 0.81868 0.72276 0.0
C812 C 0.87914 0.81885 0.75465 0.0
C813 C 0.92371 0.91107 0.80885 0.0
C814 C 0.88983 0.84766 0.86016 0.0
C815 C 0.89088 0.88079 0.80116 0.0
N816 N 0.87773 0.85424 0.82438 0.0
C817 C 0.92287 0.87152 0.8819 0.0
C818 C 0.94699 0.91634 0.84522 0.0
C819 C 0.81386 0.79548 0.86347 0.0
C820 C 0.69682 0.78441 0.79714 0.0
C821 C 0.73332 0.75549 0.84058 0.0
C822 C 0.7037 0.76269 0.84868 0.0
C823 C 0.68538 0.77727 0.82677 0.0
N824 N 0.74436 0.76254 0.81146 0.0
C825 C 0.72655 0.77684 0.78987 0.0
Co826 Co 0.74274 0.20071 0.32068 0.0
Co827 Co 0.76562 0.28124 0.31696 0.0
O828 O 0.77159 0.23726 0.30646 0.0
C829 C 0.79991 0.1748 0.34966 0.0
O830 O 0.80307 0.1949 0.37577 0.0
C831 C 0.77207 0.28045 0.2454 0.0
O832 O 0.74975 0.25428 0.24008 0.0
O833 O 0.71937 0.26996 0.29691 0.0
O834 O 0.70454 0.22235 0.31577 0.0
H835 H 0.70628 0.36539 0.35878 0.0
H836 H 0.78252 0.19072 0.26664 0.0
O837 O 0.77987 0.17687 0.32524 0.0
H838 H 0.66858 0.15121 0.22061 0.0
H839 H 0.6988 0.0837 0.32615 0.0
H840 H 0.69155 0.19347 0.36602 0.0
H841 H 0.68144 0.1727 0.27808 0.0
H842 H 0.73369 0.12988 0.30693 0.0
O843 O 0.78076 0.29341 0.27427 0.0
H844 H 0.7147 0.3104 0.34617 0.0
H845 H 0.80373 0.3456 0.30837 0.0
H846 H 0.65588 0.14797 0.38554 0.0
H847 H 0.77077 0.16914 0.20907 0.0
H848 H 0.65942 0.09261 0.36563 0.0
H849 H 0.71344 0.14926 0.18569 0.0
O850 O 0.75245 0.21975 0.36645 0.0
H851 H 0.88562 0.28066 0.32197 0.0
H852 H 0.79886 0.31641 0.37951 0.0
H853 H 0.85542 0.32858 0.40541 0.0
H854 H 0.89931 0.31069 0.37659 0.0
H855 H 0.82861 0.26874 0.29707 0.0
H856 H 0.79615 0.40096 0.32033 0.0
H857 H 0.7472 0.41114 0.34585 0.0
O858 O 0.75132 0.27116 0.36055 0.0
C859 C 0.69762 0.24667 0.30278 0.0
C860 C 0.72775 0.36127 0.34772 0.0
C861 C 0.77815 0.38123 0.3261 0.0
N862 N 0.75974 0.32478 0.32669 0.0
C863 C 0.73267 0.33018 0.34058 0.0
C864 C 0.78226 0.34982 0.31928 0.0
C865 C 0.7507 0.38693 0.34043 0.0
C866 C 0.75754 0.18186 0.25669 0.0
N867 N 0.73273 0.18282 0.27574 0.0
C868 C 0.75102 0.16978 0.22406 0.0
C869 C 0.71885 0.15867 0.21095 0.0
C870 C 0.69367 0.15977 0.23052 0.0
C871 C 0.7011 0.17204 0.26303 0.0
C872 C 0.69701 0.10772 0.33499 0.0
C873 C 0.69313 0.16946 0.35708 0.0
C874 C 0.71679 0.13397 0.32427 0.0
N875 N 0.71461 0.16439 0.33523 0.0
C876 C 0.67291 0.14379 0.36829 0.0
C877 C 0.67492 0.11273 0.35713 0.0
C878 C 0.75155 0.24796 0.37813 0.0
C879 C 0.86672 0.28861 0.33476 0.0
C880 C 0.81775 0.30841 0.36685 0.0
C881 C 0.84978 0.31547 0.38161 0.0
C882 C 0.87439 0.30545 0.36542 0.0
N883 N 0.81041 0.29189 0.33677 0.0
C884 C 0.83441 0.282 0.32075 0.0
Co885 Co 0.47633 0.44721 0.44341 0.0
Co886 Co 0.48256 0.51767 0.48862 0.0
O887 O 0.49581 0.47644 0.48147 0.0
C888 C 0.47705 0.40208 0.49485 0.0
O889 O 0.46543 0.4218 0.51443 0.0
C890 C 0.55481 0.53946 0.49466 0.0
O891 O 0.55558 0.52666 0.46501 0.0
O892 O 0.49307 0.52856 0.4441 0.0
O893 O 0.46739 0.48248 0.41749 0.0
H894 H 0.42343 0.60518 0.45882 0.0
H895 H 0.53995 0.43936 0.47474 0.0
O896 O 0.48342 0.40938 0.46663 0.0
H897 H 0.56354 0.47403 0.3674 0.0
H898 H 0.49187 0.35612 0.35135 0.0
H899 H 0.40947 0.43904 0.40556 0.0
H900 H 0.50778 0.46652 0.38289 0.0
H901 H 0.50382 0.39651 0.40502 0.0
O902 O 0.52795 0.5376 0.50713 0.0
H903 H 0.44024 0.55309 0.45056 0.0
H904 H 0.49772 0.5707 0.54196 0.0
H905 H 0.37444 0.40268 0.3532 0.0
H906 H 0.59606 0.44595 0.45987 0.0
H907 H 0.43273 0.34531 0.3132 0.0
H908 H 0.60823 0.46345 0.40584 0.0
O909 O 0.43268 0.44538 0.45993 0.0
H910 H 0.50441 0.47696 0.59732 0.0
H911 H 0.42577 0.52055 0.52662 0.0
H912 H 0.41205 0.50594 0.58077 0.0
H913 H 0.45156 0.48404 0.61657 0.0
H914 H 0.51703 0.49162 0.54285 0.0
H915 H 0.4818 0.62315 0.55106 0.0
H916 H 0.44427 0.64063 0.50937 0.0
O917 O 0.43652 0.49825 0.4712 0.0
C918 C 0.48009 0.51178 0.41801 0.0
C919 C 0.43974 0.59781 0.4772 0.0
C920 C 0.47253 0.60791 0.52895 0.0
N921 N 0.46978 0.55879 0.49582 0.0
C922 C 0.44929 0.56831 0.47269 0.0
C923 C 0.48154 0.57823 0.52362 0.0
C924 C 0.45146 0.61769 0.50556 0.0
C925 C 0.54473 0.44622 0.45084 0.0
N926 N 0.52002 0.45151 0.42936 0.0
C927 C 0.57671 0.45022 0.4427 0.0
C928 C 0.58354 0.46012 0.41243 0.0
C929 C 0.55846 0.466 0.39084 0.0
C930 C 0.52676 0.46168 0.39979 0.0
C931 C 0.47333 0.36932 0.35765 0.0
C932 C 0.42085 0.42143 0.39368 0.0
C933 C 0.4806 0.39588 0.39137 0.0
N934 N 0.45697 0.41777 0.40531 0.0
C935 C 0.3994 0.39968 0.36007 0.0
C936 C 0.43684 0.36285 0.33432 0.0
C937 C 0.41976 0.46989 0.4658 0.0
C938 C 0.48703 0.48655 0.58198 0.0
C939 C 0.44305 0.51093 0.542 0.0
C940 C 0.43517 0.50277 0.57268 0.0
C941 C 0.45736 0.4905 0.59275 0.0
N942 N 0.47224 0.50705 0.53163 0.0
C943 C 0.49408 0.49499 0.55116 0.0
H944 H 0.24934 0.17515 0.22835 0.0
H945 H 0.21615 0.14291 0.18233 0.0
H946 H 0.23774 0.22076 0.12248 0.0
H947 H 0.27253 0.25283 0.16857 0.0
H948 H 0.16271 0.15503 0.15479 0.0
H949 H 0.24699 0.14723 0.06014 0.0
H950 H 0.26119 0.16145 0.10195 0.0
H951 H 0.24592 0.18752 0.07488 0.0
C952 C 0.24739 0.1853 0.20527 0.0
C953 C 0.26327 0.21657 0.20204 0.0
C954 C 0.22846 0.1668 0.17893 0.0
C955 C 0.22448 0.17925 0.14881 0.0
C956 C 0.24097 0.21031 0.14522 0.0
H957 H 0.04995 0.10512 0.01931 0.0
H958 H 0.09505 0.13895 0.05394 0.0
C959 C 0.26062 0.22872 0.17159 0.0
C960 C 0.20055 0.16056 0.12262 0.0
H961 H 0.19024 0.12913 0.04325 0.0
C962 C 0.1689 0.14928 0.13047 0.0
C963 C 0.20859 0.15272 0.09094 0.0
C964 C 0.24261 0.16257 0.0815 0.0
C965 C 0.14513 0.13043 0.10775 0.0
C966 C 0.15269 0.12369 0.07568 0.0
C967 C 0.18439 0.13467 0.06773 0.0
C968 C 0.12766 0.10533 0.05038 0.0
C969 C 0.11235 0.11733 0.11871 0.0
C970 C 0.13178 0.07606 0.03509 0.0
C971 C 0.10613 0.05689 0.01454 0.0
C972 C 0.07603 0.06666 0.00947 0.0
C973 C 0.07272 0.09675 0.02332 0.0
C974 C 0.09843 0.11607 0.04318 0.0
H975 H 0.11387 0.11638 0.14549 0.0
H976 H 0.09504 0.13316 0.11217 0.0
H977 H 0.10229 0.09295 0.10687 0.0
H978 H 0.15427 0.06745 0.04014 0.0
H979 H 0.10928 0.03383 0.00403 0.0
H980 H 0.10308 0.95023 0.51177 0.0
H981 H 0.13964 0.91985 0.48573 0.0
H982 H 0.05723 0.8475 0.44602 0.0
H983 H 0.02059 0.87771 0.4715 0.0
H984 H 0.14984 0.85767 0.49208 0.0
H985 H 0.10232 0.86983 0.36539 0.0
H986 H 0.09316 0.89375 0.39986 0.0
H987 H 0.07163 0.85332 0.3901 0.0
C988 C 0.09273 0.9278 0.49761 0.0
C989 C 0.05883 0.91654 0.49367 0.0
C990 C 0.11367 0.91047 0.48269 0.0
C991 C 0.10115 0.88166 0.46339 0.0
C992 C 0.06743 0.87 0.46013 0.0
H993 H 0.19173 0.74623 0.35029 0.0
H994 H 0.15303 0.7728 0.37786 0.0
C995 C 0.04651 0.88726 0.47496 0.0
C996 C 0.12331 0.86366 0.44685 0.0
H997 H 0.13972 0.83482 0.37213 0.0
C998 C 0.14769 0.85277 0.46585 0.0
C999 C 0.12043 0.85712 0.41259 0.0
C1000 C 0.09568 0.86934 0.39071 0.0
C1001 C 0.169 0.83526 0.45162 0.0
C1002 C 0.16625 0.82889 0.41737 0.0
C1003 C 0.14172 0.83955 0.39837 0.0
C1004 C 0.18954 0.81246 0.40076 0.0
C1005 C 0.19401 0.82335 0.47345 0.0
C1006 C 0.2228 0.82615 0.404 0.0
C1007 C 0.24486 0.81112 0.38832 0.0
C1008 C 0.23423 0.78202 0.36881 0.0
C1009 C 0.2008 0.76848 0.36523 0.0
C1010 C 0.17865 0.78366 0.38095 0.0
H1011 H 0.18707 0.82217 0.49863 0.0
H1012 H 0.19732 0.7993 0.46395 0.0
H1013 H 0.21775 0.83999 0.47456 0.0
H1014 H 0.23171 0.84869 0.41851 0.0
H1015 H 0.27032 0.82248 0.39151 0.0
H1016 H 0.45039 0.88366 0.52538 0.0
H1017 H 0.41404 0.85074 0.55755 0.0
H1018 H 0.36391 0.92872 0.57607 0.0
H1019 H 0.39982 0.96167 0.54324 0.0
H1020 H 0.41037 0.8623 0.62081 0.0
H1021 H 0.28777 0.85505 0.55598 0.0
H1022 H 0.3247 0.86857 0.5377 0.0
H1023 H 0.30939 0.89539 0.5653 0.0
C1024 C 0.43127 0.89369 0.53579 0.0
C1025 C 0.42812 0.9254 0.53175 0.0
C1026 C 0.41047 0.87478 0.55422 0.0
C1027 C 0.38598 0.88705 0.56913 0.0
C1028 C 0.38208 0.91838 0.56429 0.0
H1029 H 0.30964 0.83212 0.74636 0.0
H1030 H 0.33715 0.85701 0.70296 0.0
C1031 C 0.40277 0.93729 0.54559 0.0
C1032 C 0.36683 0.86812 0.59212 0.0
H1033 H 0.28955 0.84004 0.61061 0.0
C1034 C 0.38394 0.85722 0.61832 0.0
C1035 C 0.33231 0.86103 0.58881 0.0
C1036 C 0.31244 0.87033 0.56024 0.0
C1037 C 0.36766 0.84036 0.6417 0.0
C1038 C 0.3332 0.83473 0.63937 0.0
C1039 C 0.31596 0.84465 0.61262 0.0
C1040 C 0.31494 0.81977 0.66525 0.0
C1041 C 0.38761 0.82863 0.66871 0.0
C1042 C 0.29235 0.79092 0.65842 0.0
C1043 C 0.27624 0.77654 0.68336 0.0
C1044 C 0.28234 0.79088 0.71555 0.0
C1045 C 0.30445 0.82014 0.722 0.0
C1046 C 0.32039 0.83443 0.69717 0.0
H1047 H 0.41211 0.82628 0.66179 0.0
H1048 H 0.39109 0.84607 0.69052 0.0
H1049 H 0.37517 0.80517 0.67534 0.0
H1050 H 0.2876 0.77926 0.63391 0.0
H1051 H 0.2593 0.75409 0.67748 0.0
H1052 H 0.45532 0.03681 0.94173 0.0
H1053 H 0.43343 0.08239 0.92414 0.0
H1054 H 0.52446 0.14498 0.95908 0.0
H1055 H 0.5469 0.0991 0.97686 0.0
H1056 H 0.42729 0.1382 0.96337 0.0
H1057 H 0.50477 0.16582 0.8632 0.0
H1058 H 0.49995 0.12789 0.88036 0.0
H1059 H 0.52546 0.16252 0.90235 0.0
C1060 C 0.47089 0.06019 0.94568 0.0
C1061 C 0.50302 0.0642 0.96065 0.0
C1062 C 0.45824 0.08628 0.9356 0.0
C1063 C 0.47737 0.11705 0.93995 0.0
C1064 C 0.50941 0.12135 0.95506 0.0
H1065 H 0.39083 0.28679 0.91788 0.0
H1066 H 0.42531 0.25014 0.93683 0.0
C1067 C 0.52213 0.09515 0.96538 0.0
C1068 C 0.46307 0.14438 0.92917 0.0
H1069 H 0.46623 0.19855 0.87239 0.0
C1070 C 0.436 0.15161 0.94369 0.0
C1071 C 0.47422 0.16157 0.90321 0.0
C1072 C 0.50255 0.15407 0.88609 0.0
C1073 C 0.41959 0.17532 0.93282 0.0
C1074 C 0.43072 0.19255 0.90688 0.0
C1075 C 0.45792 0.18549 0.89243 0.0
C1076 C 0.41328 0.21689 0.89367 0.0
C1077 C 0.38978 0.18106 0.94849 0.0
C1078 C 0.3961 0.21105 0.86253 0.0
C1079 C 0.37634 0.232 0.85153 0.0
C1080 C 0.3735 0.2593 0.87146 0.0
C1081 C 0.39225 0.26596 0.90191 0.0
C1082 C 0.41192 0.24496 0.91288 0.0
H1083 H 0.38077 0.16172 0.96371 0.0
H1084 H 0.3959 0.20389 0.96429 0.0
H1085 H 0.36982 0.183 0.92973 0.0
H1086 H 0.39688 0.18956 0.84726 0.0
H1087 H 0.3623 0.22609 0.82796 0.0
H1088 H 0.6873 0.2568 0.84392 0.0
H1089 H 0.6482 0.28514 0.86851 0.0
H1090 H 0.72762 0.35144 0.92344 0.0
H1091 H 0.76659 0.32391 0.89871 0.0
H1092 H 0.63713 0.29685 0.93237 0.0
H1093 H 0.6767 0.41163 0.88107 0.0
H1094 H 0.68918 0.37527 0.86679 0.0
H1095 H 0.70966 0.39842 0.90326 0.0
C1096 C 0.69642 0.27746 0.86118 0.0
C1097 C 0.73015 0.28817 0.86907 0.0
C1098 C 0.67403 0.29365 0.87523 0.0
C1099 C 0.68493 0.3209 0.89734 0.0
C1100 C 0.71855 0.33108 0.9058 0.0
H1101 H 0.59897 0.45152 0.01789 0.0
H1102 H 0.63497 0.42082 0.99142 0.0
C1103 C 0.74086 0.31509 0.89172 0.0
C1104 C 0.66138 0.33848 0.91213 0.0
H1105 H 0.64231 0.41267 0.92382 0.0
C1106 C 0.63806 0.3221 0.93024 0.0
C1107 C 0.66253 0.37149 0.9094 0.0
C1108 C 0.68564 0.39017 0.88881 0.0
C1109 C 0.6166 0.33798 0.94643 0.0
C1110 C 0.61821 0.37108 0.94418 0.0
C1111 C 0.64125 0.38737 0.92577 0.0
C1112 C 0.59615 0.38927 0.96061 0.0
C1113 C 0.59295 0.31938 0.96655 0.0
C1114 C 0.56236 0.382 0.95189 0.0
C1115 C 0.54172 0.39953 0.9669 0.0
C1116 C 0.55441 0.42481 0.991 0.0
C1117 C 0.58831 0.43212 0.9996 0.0
C1118 C 0.60895 0.41463 0.98444 0.0
H1119 H 0.59994 0.29639 0.97212 0.0
H1120 H 0.59139 0.33349 0.98976 0.0
H1121 H 0.56835 0.31398 0.95284 0.0
H1122 H 0.55194 0.36296 0.93315 0.0
H1123 H 0.51578 0.39329 0.95951 0.0
H1124 H 0.94997 0.38993 0.0238 0.0
H1125 H 0.91445 0.35644 0.05624 0.0
H1126 H 0.86588 0.43471 0.07902 0.0
H1127 H 0.90091 0.4682 0.0459 0.0
H1128 H 0.91291 0.3666 0.11994 0.0
H1129 H 0.78887 0.36201 0.05972 0.0
H1130 H 0.82511 0.37567 0.04042 0.0
H1131 H 0.81101 0.40211 0.06941 0.0
C1132 C 0.93132 0.3999 0.03519 0.0
C1133 C 0.92837 0.43184 0.03227 0.0
C1134 C 0.91101 0.38067 0.05379 0.0
C1135 C 0.88723 0.39286 0.06998 0.0
C1136 C 0.88349 0.42443 0.06624 0.0
H1137 H 0.81668 0.33594 0.24887 0.0
H1138 H 0.84313 0.36097 0.20495 0.0
C1139 C 0.90367 0.44366 0.04737 0.0
C1140 C 0.86875 0.37356 0.09315 0.0
H1141 H 0.79226 0.34611 0.11403 0.0
C1142 C 0.88651 0.36189 0.11837 0.0
C1143 C 0.83426 0.36695 0.09103 0.0
C1144 C 0.81367 0.37705 0.06349 0.0
C1145 C 0.8709 0.34477 0.14198 0.0
C1146 C 0.83653 0.33967 0.1409 0.0
C1147 C 0.81862 0.35032 0.11509 0.0
C1148 C 0.81908 0.32456 0.16719 0.0
C1149 C 0.89149 0.33224 0.16788 0.0
C1150 C 0.79584 0.29613 0.16055 0.0
C1151 C 0.78034 0.28167 0.18579 0.0
C1152 C 0.7877 0.29553 0.21811 0.0
C1153 C 0.81052 0.32435 0.22441 0.0
C1154 C 0.82585 0.33871 0.19928 0.0
H1155 H 0.9155 0.32957 0.15986 0.0
H1156 H 0.89604 0.34937 0.19 0.0
H1157 H 0.87899 0.30879 0.17449 0.0
H1158 H 0.79008 0.28486 0.13592 0.0
H1159 H 0.76283 0.25958 0.18002 0.0
H1160 H 0.98293 0.53028 0.41049 0.0
H1161 H 0.96069 0.57457 0.39006 0.0
H1162 H 0.99575 0.63182 0.48066 0.0
H1163 H 0.01889 0.5875 0.50117 0.0
H1164 H 0.91373 0.60098 0.41315 0.0
H1165 H 0.02456 0.69452 0.41576 0.0
H1166 H 0.02638 0.6532 0.4201 0.0
H1167 H 0.01905 0.6786 0.45414 0.0
C1168 C 0.98627 0.55235 0.42607 0.0
C1169 C 1.00271 0.55524 0.45756 0.0
C1170 C 0.9735 0.57775 0.41428 0.0
C1171 C 0.97671 0.60676 0.4336 0.0
C1172 C 0.99352 0.60997 0.46494 0.0
H1173 H 0.84483 0.73856 0.3991 0.0
H1174 H 0.87692 0.70189 0.42204 0.0
C1175 C 0.00659 0.58453 0.47674 0.0
C1176 C 0.96047 0.63252 0.42143 0.0
H1177 H 0.97361 0.71072 0.40478 0.0
C1178 C 0.92691 0.62494 0.4113 0.0
C1179 C 0.97763 0.66376 0.41857 0.0
C1180 C 0.01395 0.67302 0.42741 0.0
C1181 C 0.91004 0.64756 0.39865 0.0
C1182 C 0.92693 0.67909 0.39678 0.0
C1183 C 0.96058 0.68668 0.40653 0.0
C1184 C 0.90984 0.70424 0.38462 0.0
C1185 C 0.87434 0.63718 0.38674 0.0
C1186 C 0.91862 0.71919 0.3568 0.0
C1187 C 0.90044 0.74062 0.34373 0.0
C1188 C 0.87309 0.74742 0.35824 0.0
C1189 C 0.86541 0.73355 0.38697 0.0
C1190 C 0.88369 0.71242 0.4001 0.0
H1191 H 0.8675 0.61085 0.3813 0.0
H1192 H 0.85954 0.64434 0.4059 0.0
H1193 H 0.86793 0.64857 0.36449 0.0
H1194 H 0.93885 0.71342 0.34454 0.0
H1195 H 0.90705 0.75089 0.32162 0.0
H1196 H 0.61439 0.56225 0.47365 0.0
H1197 H 0.66241 0.5951 0.50626 0.0
H1198 H 0.61047 0.59006 0.59143 0.0
H1199 H 0.56287 0.55765 0.55947 0.0
H1200 H 0.66302 0.65617 0.5448 0.0
H1201 H 0.69886 0.56424 0.62002 0.0
H1202 H 0.67397 0.55434 0.58147 0.0
H1203 H 0.65601 0.56463 0.61767 0.0
C1204 C 0.61342 0.56788 0.49941 0.0
C1205 C 0.58483 0.55735 0.51397 0.0
C1206 C 0.64078 0.58669 0.51792 0.0
C1207 C 0.64004 0.59466 0.55128 0.0
C1208 C 0.61171 0.58377 0.56583 0.0
H1209 H 0.7174 0.70546 0.72184 0.0
H1210 H 0.68895 0.67145 0.67447 0.0
C1211 C 0.58443 0.56535 0.54743 0.0
C1212 C 0.66792 0.61562 0.57125 0.0
H1213 H 0.71602 0.61895 0.64263 0.0
C1214 C 0.67536 0.64799 0.56573 0.0
C1215 C 0.68395 0.60478 0.59843 0.0
C1216 C 0.67805 0.57002 0.60463 0.0
C1217 C 0.69658 0.67025 0.5882 0.0
C1218 C 0.7107 0.65968 0.6166 0.0
C1219 C 0.70496 0.627 0.6209 0.0
C1220 C 0.72803 0.68226 0.64406 0.0
C1221 C 0.70208 0.70517 0.58269 0.0
C1222 C 0.75937 0.69999 0.64248 0.0
C1223 C 0.7759 0.71962 0.66972 0.0
C1224 C 0.76128 0.72165 0.69889 0.0
C1225 C 0.72952 0.70441 0.6999 0.0
C1226 C 0.71317 0.6849 0.67283 0.0
H1227 H 0.68758 0.70974 0.5604 0.0
H1228 H 0.69556 0.71925 0.60389 0.0
H1229 H 0.72827 0.71384 0.58035 0.0
H1230 H 0.7713 0.69806 0.6205 0.0
H1231 H 0.80035 0.73253 0.66818 0.0
H1232 H 0.329 0.34148 0.41252 0.0
H1233 H 0.32684 0.33968 0.47137 0.0
H1234 H 0.30779 0.23679 0.45859 0.0
H1235 H 0.30973 0.23816 0.4004 0.0
H1236 H 0.26282 0.26361 0.49355 0.0
H1237 H 0.39165 0.31273 0.54196 0.0
H1238 H 0.37288 0.33572 0.51385 0.0
H1239 H 0.37997 0.29705 0.50005 0.0
C1240 C 0.32465 0.3185 0.42231 0.0
C1241 C 0.3193 0.28999 0.40161 0.0
C1242 C 0.32361 0.31752 0.45593 0.0
C1243 C 0.31734 0.28806 0.46927 0.0
C1244 C 0.31269 0.25974 0.44876 0.0
H1245 H 0.32158 0.2441 0.67214 0.0
H1246 H 0.3288 0.24374 0.61389 0.0
C1247 C 0.31375 0.26065 0.4154 0.0
C1248 C 0.31327 0.28621 0.5042 0.0
H1249 H 0.35362 0.30167 0.58058 0.0
C1250 C 0.28268 0.27192 0.51259 0.0
C1251 C 0.33935 0.2967 0.52885 0.0
C1252 C 0.37294 0.31122 0.5209 0.0
C1253 C 0.2773 0.26818 0.54506 0.0
C1254 C 0.30313 0.27925 0.5698 0.0
C1255 C 0.3339 0.29317 0.56146 0.0
C1256 C 0.298 0.27818 0.60455 0.0
C1257 C 0.24405 0.25227 0.5527 0.0
C1258 C 0.2781 0.29738 0.61828 0.0
C1259 C 0.27393 0.29761 0.65125 0.0
C1260 C 0.28961 0.27862 0.67125 0.0
C1261 C 0.30895 0.25874 0.6573 0.0
C1262 C 0.31331 0.25871 0.62416 0.0
H1263 H 0.22932 0.23851 0.53089 0.0
H1264 H 0.24614 0.23593 0.57202 0.0
H1265 H 0.23075 0.27081 0.56168 0.0
H1266 H 0.26627 0.31273 0.60359 0.0
H1267 H 0.25886 0.31322 0.66121 0.0
H1268 H 0.02656 0.04968 0.88751 0.0
H1269 H 0.03363 0.04935 0.82928 0.0
H1270 H 0.93302 1.0033 0.80582 0.0
H1271 H 0.92587 0.00424 0.86342 0.0
H1272 H 0.02674 0.99286 0.79167 0.0
H1273 H 0.94267 0.06462 0.73706 0.0
H1274 H 0.9547 0.06791 0.78025 0.0
H1275 H 0.92247 0.03625 0.76178 0.0
C1276 C 0.00559 0.04127 0.86981 0.0
C1277 C 0.97558 0.0274 0.87983 0.0
C1278 C 0.00973 0.04057 0.83659 0.0
C1279 C 0.9838 0.02643 0.81312 0.0
C1280 C 0.95319 0.01497 0.82327 0.0
H1281 H 0.95626 0.94519 0.61279 0.0
H1282 H 0.95547 0.95372 0.67195 0.0
C1283 C 0.94909 0.01561 0.85626 0.0
C1284 C 0.98938 0.01956 0.77864 0.0
H1285 H 0.9591 0.02541 0.70057 0.0
C1286 C 0.01232 1.00042 0.77175 0.0
C1287 C 0.9703 0.0291 0.75264 0.0
C1288 C 0.94639 0.05086 0.7583 0.0
C1289 C 0.01608 0.98998 0.7396 0.0
C1290 C 0.99637 0.9988 0.7138 0.0
C1291 C 0.97382 0.01829 0.72056 0.0
C1292 C 0.99976 0.98942 0.67938 0.0
C1293 C 0.04055 0.96904 0.73326 0.0
C1294 C 0.02545 0.00593 0.66433 0.0
C1295 C 0.02584 1.00123 0.6307 0.0
C1296 C 1.00066 0.97978 0.61155 0.0
C1297 C 0.9762 0.96153 0.62697 0.0
C1298 C 0.97557 0.96657 0.66068 0.0
H1299 H 0.05143 0.96135 0.75603 0.0
H1300 H 0.02881 0.94754 0.71684 0.0
H1301 H 0.06041 0.98234 0.72084 0.0
H1302 H 0.04424 0.02373 0.67836 0.0
H1303 H 0.04499 0.01559 0.61947 0.0
H1304 H 0.24277 0.80036 0.90911 0.0
H1305 H 0.2479 0.81263 0.968 0.0
H1306 H 0.2517 0.71439 0.98128 0.0
H1307 H 0.24671 0.7017 0.92229 0.0
H1308 H 0.2096 0.7454 0.02237 0.0
H1309 H 0.33624 0.81395 0.02501 0.0
H1310 H 0.3056 0.82443 0.99688 0.0
H1311 H 0.31693 0.78611 0.99096 0.0
C1312 C 0.24456 0.78123 0.92444 0.0
C1313 C 0.24474 0.75005 0.91085 0.0
C1314 C 0.2475 0.78836 0.95813 0.0
C1315 C 0.25056 0.76451 0.97891 0.0
C1316 C 0.24946 0.73314 0.96556 0.0
H1317 H 0.32329 0.74676 0.16948 0.0
H1318 H 0.31059 0.75063 0.11167 0.0
C1319 C 0.24666 0.72596 0.93184 0.0
C1320 C 0.2563 0.77241 0.01457 0.0
H1321 H 0.31462 0.80886 0.07515 0.0
C1322 C 0.23234 0.75965 0.03397 0.0
C1323 C 0.28608 0.79093 0.02948 0.0
C1324 C 0.31288 0.80456 0.00967 0.0
C1325 C 0.23774 0.76426 0.06807 0.0
C1326 C 0.26782 0.7821 0.08297 0.0
C1327 C 0.29143 0.79558 0.06355 0.0
C1328 C 0.27705 0.78285 0.11833 0.0
C1329 C 0.21199 0.74874 0.08802 0.0
C1330 C 0.26296 0.80042 0.14131 0.0
C1331 C 0.27043 0.79849 0.1747 0.0
C1332 C 0.29175 0.77865 0.1853 0.0
C1333 C 0.30657 0.76208 0.16209 0.0
C1334 C 0.29942 0.76429 0.12903 0.0
H1335 H 0.19081 0.73384 0.07265 0.0
H1336 H 0.22252 0.73352 0.10499 0.0
H1337 H 0.20317 0.76746 0.10288 0.0
H1338 H 0.24574 0.81502 0.1334 0.0
H1339 H 0.25859 0.81141 0.19204 0.0
H1340 H 0.54112 0.00416 0.38362 0.0
H1341 H 0.52714 0.99003 0.32567 0.0
H1342 H 0.46468 0.90311 0.3444 0.0
H1343 H 0.47826 0.9173 0.40335 0.0
H1344 H 0.51106 0.90078 0.29101 0.0
H1345 H 0.43256 0.99146 0.28045 0.0
H1346 H 0.47121 0.00556 0.30413 0.0
H1347 H 0.44191 0.97496 0.31824 0.0
C1348 C 0.52445 0.98192 0.3757 0.0
C1349 C 0.51045 0.96208 0.39833 0.0
C1350 C 0.51647 0.97394 0.34244 0.0
C1351 C 0.4944 0.9459 0.33083 0.0
C1352 C 0.48148 0.92508 0.35302 0.0
H1353 H 0.45519 0.89085 0.11909 0.0
H1354 H 0.44981 0.88919 0.17728 0.0
C1355 C 0.48935 0.93317 0.38662 0.0
C1356 C 0.48491 0.93939 0.29536 0.0
H1357 H 0.4521 0.97293 0.23134 0.0
C1358 C 0.49746 0.91589 0.27785 0.0
C1359 C 0.46723 0.95931 0.27843 0.0
C1360 C 0.45216 0.98408 0.29623 0.0
C1361 C 0.49467 0.91324 0.24365 0.0
C1362 C 0.47862 0.9345 0.22672 0.0
C1363 C 0.46452 0.95678 0.24433 0.0
C1364 C 0.47903 0.93616 0.19113 0.0
C1365 C 0.51064 0.88909 0.226 0.0
C1366 C 0.49601 0.96367 0.17946 0.0
C1367 C 0.49897 0.96483 0.14625 0.0
C1368 C 0.48487 0.93849 0.12394 0.0
C1369 C 0.46643 0.91156 0.13554 0.0
C1370 C 0.46355 0.91042 0.16885 0.0
H1371 H 0.52638 0.87797 0.24287 0.0
H1372 H 0.49154 0.86985 0.21288 0.0
H1373 H 0.52563 0.90044 0.20775 0.0
H1374 H 0.50798 0.98391 0.19623 0.0
H1375 H 0.51329 0.98598 0.13825 0.0
H1376 H 0.4121 0.26045 0.34742 0.0
H1377 H 0.46798 0.25604 0.33873 0.0
H1378 H 0.4384 0.22988 0.23649 0.0
H1379 H 0.38184 0.23306 0.24552 0.0
H1380 H 0.48525 0.19807 0.25906 0.0
H1381 H 0.50416 0.30549 0.32958 0.0
H1382 H 0.48126 0.3075 0.29116 0.0
H1383 H 0.52358 0.32664 0.29874 0.0
C1384 C 0.41737 0.25271 0.3233 0.0
C1385 C 0.39279 0.24682 0.29717 0.0
C1386 C 0.44936 0.25072 0.31824 0.0
C1387 C 0.45759 0.24376 0.28677 0.0
C1388 C 0.43264 0.23564 0.26092 0.0
H1389 H 0.669 0.28968 0.26925 0.0
H1390 H 0.61038 0.28933 0.25803 0.0
C1391 C 0.40034 0.23708 0.26612 0.0
C1392 C 0.4924 0.24637 0.2811 0.0
H1393 H 0.56647 0.29598 0.29858 0.0
C1394 C 0.50296 0.21961 0.26724 0.0
C1395 C 0.51547 0.27484 0.29067 0.0
C1396 C 0.50547 0.30535 0.30298 0.0
C1397 C 0.53622 0.21985 0.26495 0.0
C1398 C 0.55955 0.24728 0.27768 0.0
C1399 C 0.54875 0.27476 0.28931 0.0
C1400 C 0.59503 0.24689 0.2823 0.0
C1401 C 0.54597 0.19052 0.24925 0.0
C1402 C 0.60591 0.22362 0.30011 0.0
C1403 C 0.63906 0.22366 0.30633 0.0
C1404 C 0.66247 0.24736 0.29542 0.0
C1405 C 0.65167 0.27104 0.27791 0.0
C1406 C 0.6182 0.27081 0.27143 0.0
H1407 H 0.52667 0.17782 0.23024 0.0
H1408 H 0.5691 0.19657 0.23804 0.0
H1409 H 0.54921 0.1738 0.26793 0.0
H1410 H 0.58873 0.20565 0.30988 0.0
H1411 H 0.64623 0.20517 0.32021 0.0
H1412 H 0.02055 0.36078 0.43822 0.0
H1413 H 0.01112 0.303 0.42542 0.0
H1414 H 0.98155 0.28952 0.52118 0.0
H1415 H 0.99206 0.34718 0.53459 0.0
H1416 H 0.02248 0.25263 0.50722 0.0
H1417 H 0.928 0.23928 0.40242 0.0
H1418 H 0.96463 0.26625 0.39656 0.0
H1419 H 0.94068 0.276 0.42846 0.0
C1420 C 0.01191 0.34555 0.45656 0.0
C1421 C 0.0071 0.3587 0.48751 0.0
C1422 C 0.00619 0.31246 0.44903 0.0
C1423 C 0.99495 0.29184 0.47206 0.0
C1424 C 0.99005 0.30493 0.50292 0.0
H1425 H 0.92123 0.08882 0.45499 0.0
H1426 H 0.92684 0.1462 0.45066 0.0
C1427 C 0.99616 0.33797 0.51061 0.0
C1428 C 0.99031 0.25665 0.46495 0.0
H1429 H 0.95114 0.19331 0.41202 0.0
C1430 C 0.00682 0.23972 0.48641 0.0
C1431 C 0.96952 0.23969 0.43802 0.0
C1432 C 0.94943 0.25618 0.41524 0.0
C1433 C 1.00321 0.20645 0.4818 0.0
C1434 C 0.98357 0.18958 0.45416 0.0
C1435 C 0.96676 0.20637 0.43276 0.0
C1436 C 0.97901 0.15429 0.44855 0.0
C1437 C 0.01955 0.18961 0.50736 0.0
C1438 C 0.00608 0.13947 0.44647 0.0
C1439 C 1.00302 0.10677 0.44932 0.0
C1440 C 0.97269 0.08824 0.4536 0.0
C1441 C 0.94494 0.10243 0.45171 0.0
C1442 C 0.94812 0.1353 0.44936 0.0
H1443 H 0.02636 0.20483 0.53075 0.0
H1444 H 1.00332 0.1672 0.51193 0.0
H1445 H 0.04217 0.18347 0.49885 0.0
H1446 H 0.03001 0.15358 0.44495 0.0
H1447 H 0.02479 0.09644 0.45042 0.0
H1448 H 0.90553 0.76023 0.84729 0.0
H1449 H 0.96119 0.75432 0.83921 0.0
H1450 H 0.9326 0.73013 0.73655 0.0
H1451 H 0.87629 0.73478 0.74495 0.0
H1452 H 0.978 0.69693 0.75858 0.0
H1453 H 0.99882 0.80324 0.83137 0.0
H1454 H 0.97654 0.80645 0.79296 0.0
H1455 H 0.01908 0.82461 0.80114 0.0
C1456 C 0.91093 0.7525 0.82322 0.0
C1457 C 0.88671 0.7476 0.79679 0.0
C1458 C 0.94281 0.74969 0.8185 0.0
C1459 C 0.95132 0.74292 0.7871 0.0
C1460 C 0.92665 0.73571 0.76094 0.0
H1461 H 0.16246 0.78622 0.76802 0.0
H1462 H 0.10392 0.78681 0.75824 0.0
C1463 C 0.89445 0.73797 0.76578 0.0
C1464 C 0.98616 0.74487 0.78176 0.0
H1465 H 0.06101 0.79301 0.7998 0.0
C1466 C 0.99611 0.71806 0.76721 0.0
C1467 C 0.00976 0.77284 0.79191 0.0
C1468 C 1.00046 0.80352 0.80484 0.0
C1469 C 0.02922 0.71776 0.76456 0.0
C1470 C 0.05307 0.74465 0.77768 0.0
C1471 C 0.0429 0.77217 0.79023 0.0
C1472 C 0.08847 0.74368 0.78141 0.0
C1473 C 0.03822 0.68848 0.7479 0.0
C1474 C 0.09931 0.71965 0.79804 0.0
C1475 C 0.13243 0.7191 0.80336 0.0
C1476 C 0.15587 0.743 0.79277 0.0
C1477 C 0.14511 0.7674 0.77638 0.0
C1478 C 0.11167 0.76773 0.77077 0.0
H1479 H 0.01857 0.67643 0.72891 0.0
H1480 H 0.06121 0.69445 0.73643 0.0
H1481 H 0.04138 0.67122 0.76605 0.0
H1482 H 0.08215 0.70151 0.80761 0.0
H1483 H 0.13956 0.70005 0.81638 0.0
H1484 H 0.43418 0.59283 0.95181 0.0
H1485 H 0.43551 0.64852 0.9407 0.0
H1486 H 0.53668 0.6724 0.9794 0.0
H1487 H 0.5357 0.61713 0.98997 0.0
H1488 H 0.44702 0.69586 0.9903 0.0
H1489 H 0.53682 0.72444 0.90224 0.0
H1490 H 0.51868 0.68387 0.90799 0.0
H1491 H 0.55313 0.70503 0.93497 0.0
C1492 C 0.457 0.60973 0.95679 0.0
C1493 C 0.48479 0.60069 0.97196 0.0
C1494 C 0.45767 0.64156 0.9506 0.0
C1495 C 0.48624 0.66458 0.95906 0.0
C1496 C 0.51455 0.65501 0.97205 0.0
H1497 H 0.51806 0.85722 0.04221 0.0
H1498 H 0.50795 0.7993 0.02956 0.0
C1499 C 0.51388 0.62338 0.97831 0.0
C1500 C 0.48564 0.69908 0.95902 0.0
H1501 H 0.52859 0.76899 0.93832 0.0
C1502 C 0.4644 0.71181 0.97837 0.0
C1503 C 0.50815 0.71987 0.94332 0.0
C1504 C 0.53023 0.70753 0.9207 0.0
C1505 C 0.46631 0.74487 0.9839 0.0
C1506 C 0.49048 0.7657 0.97017 0.0
C1507 C 0.51045 0.75296 0.9493 0.0
C1508 C 0.49607 0.80074 0.97788 0.0
C1509 C 0.44272 0.7572 0.00473 0.0
C1510 C 0.49354 0.82073 0.95293 0.0
C1511 C 0.49956 0.85381 0.96 0.0
C1512 C 0.50834 0.8676 0.99223 0.0
C1513 C 0.5111 0.84745 0.01718 0.0
C1514 C 0.50513 0.81432 0.01003 0.0
H1515 H 0.42028 0.73897 0.00525 0.0
H1516 H 0.45443 0.76318 0.03004 0.0
H1517 H 0.43571 0.77909 0.99582 0.0
H1518 H 0.48682 0.8107 0.92794 0.0
H1519 H 0.49735 0.86852 0.9401 0.0
H1520 H 0.68733 0.79468 0.3406 0.0
H1521 H 0.62826 0.79 0.33722 0.0
H1522 H 0.62359 0.78806 0.23285 0.0
H1523 H 0.68285 0.7928 0.23584 0.0
H1524 H 0.58826 0.83195 0.30612 0.0
H1525 H 0.55937 0.70553 0.25226 0.0
H1526 H 0.59883 0.72339 0.27317 0.0
H1527 H 0.58759 0.73306 0.23291 0.0
C1528 C 0.67387 0.7933 0.31685 0.0
C1529 C 0.68995 0.79393 0.28845 0.0
C1530 C 0.64007 0.79069 0.31502 0.0
C1531 C 0.62158 0.78839 0.2848 0.0
C1532 C 0.63745 0.78945 0.2564 0.0
H1533 H 0.40994 0.75151 0.2387 0.0
H1534 H 0.46871 0.762 0.23498 0.0
C1535 C 0.67134 0.79225 0.25819 0.0
C1536 C 0.58566 0.78458 0.28321 0.0
H1537 H 0.51506 0.73055 0.26148 0.0
C1538 C 0.57219 0.80986 0.29626 0.0
C1539 C 0.56485 0.75578 0.27016 0.0
C1540 C 0.57822 0.72772 0.25647 0.0
C1541 C 0.53836 0.80703 0.29674 0.0
C1542 C 0.51757 0.77787 0.28456 0.0
C1543 C 0.53104 0.75285 0.27088 0.0
C1544 C 0.4819 0.7724 0.28681 0.0
C1545 C 0.52517 0.83541 0.30994 0.0
C1546 C 0.4698 0.77432 0.31722 0.0
C1547 C 0.43624 0.76836 0.31948 0.0
C1548 C 0.41402 0.7601 0.29133 0.0
C1549 C 0.42628 0.75787 0.26089 0.0
C1550 C 0.45988 0.76388 0.25868 0.0
H1551 H 0.54283 0.85808 0.30949 0.0
H1552 H 0.50192 0.83719 0.29581 0.0
H1553 H 0.52044 0.83272 0.33558 0.0
H1554 H 0.48633 0.78005 0.33932 0.0
H1555 H 0.42778 0.77008 0.34336 0.0
H1556 H 0.58547 0.1462 0.55638 0.0
H1557 H 0.57297 0.19968 0.56473 0.0
H1558 H 0.47481 0.16392 0.52048 0.0
H1559 H 0.48665 0.11035 0.51372 0.0
H1560 H 0.56091 0.23348 0.51902 0.0
H1561 H 0.45493 0.22379 0.58964 0.0
H1562 H 0.47832 0.19244 0.58617 0.0
H1563 H 0.44625 0.19484 0.55499 0.0
C1564 C 0.5609 0.14956 0.54947 0.0
C1565 C 0.53711 0.12398 0.53437 0.0
C1566 C 0.55379 0.18021 0.55413 0.0
C1567 C 0.52283 0.18605 0.54345 0.0
C1568 C 0.49859 0.16015 0.52983 0.0
H1569 H 0.48662 0.35149 0.45562 0.0
H1570 H 0.49777 0.3005 0.47102 0.0
C1571 C 0.5055 0.12939 0.52577 0.0
C1572 C 0.5173 0.21947 0.54239 0.0
H1573 H 0.4621 0.26772 0.55536 0.0
C1574 C 0.53957 0.24102 0.52759 0.0
C1575 C 0.48973 0.2298 0.55384 0.0
C1576 C 0.4662 0.20905 0.57237 0.0
C1577 C 0.53435 0.27184 0.5226 0.0
C1578 C 0.50545 0.2812 0.53159 0.0
C1579 C 0.48396 0.26037 0.54789 0.0
C1580 C 0.49655 0.31176 0.52261 0.0
C1581 C 0.55991 0.29399 0.50751 0.0
C1582 C 0.49046 0.33462 0.5463 0.0
C1583 C 0.48354 0.36391 0.53746 0.0
C1584 C 0.48269 0.37077 0.50479 0.0
C1585 C 0.48771 0.34733 0.48111 0.0
C1586 C 0.49425 0.31812 0.48988 0.0
H1587 H 0.58438 0.28783 0.51244 0.0
H1588 H 0.55378 0.2916 0.48075 0.0
H1589 H 0.56124 0.31927 0.51679 0.0
H1590 H 0.49173 0.33008 0.57168 0.0
H1591 H 0.47954 0.38138 0.55623 0.0
H1592 H 0.17783 0.29935 0.74012 0.0
H1593 H 0.11889 0.29302 0.74109 0.0
H1594 H 0.1295 0.28175 0.8437 0.0
H1595 H 0.18834 0.28719 0.84286 0.0
H1596 H 0.08075 0.23764 0.81206 0.0
H1597 H 0.06761 0.35702 0.77536 0.0
H1598 H 0.08686 0.33495 0.74687 0.0
H1599 H 0.10676 0.3472 0.78726 0.0
C1600 C 0.16769 0.2956 0.76295 0.0
C1601 C 0.18795 0.29388 0.79143 0.0
C1602 C 0.13395 0.29225 0.7635 0.0
C1603 C 0.11977 0.28756 0.7926 0.0
C1604 C 0.13988 0.28556 0.82099 0.0
H1605 H 0.92398 0.26695 0.85126 0.0
H1606 H 0.98288 0.27433 0.84913 0.0
C1607 C 0.17358 0.28868 0.82044 0.0
C1608 C 0.0839 0.28359 0.79334 0.0
H1609 H 0.01853 0.31936 0.77661 0.0
C1610 C 0.06721 0.25561 0.80448 0.0
C1611 C 0.06618 0.30706 0.78344 0.0
C1612 C 0.08278 0.33838 0.77286 0.0
C1613 C 0.03332 0.25027 0.80558 0.0
C1614 C 0.01567 0.27357 0.79545 0.0
C1615 C 0.03221 0.30151 0.78423 0.0
C1616 C 0.97999 0.2694 0.79663 0.0
C1617 C 0.01649 0.21953 0.81715 0.0
C1618 C 0.95892 0.26459 0.76777 0.0
C1619 C 0.92518 0.26021 0.76883 0.0
C1620 C 0.91191 0.26091 0.79884 0.0
C1621 C 0.93325 0.26616 0.82772 0.0
C1622 C 0.96695 0.27031 0.82659 0.0
H1623 H 0.03251 0.20155 0.81832 0.0
H1624 H 0.0093 0.22451 0.84186 0.0
H1625 H 0.994 0.20919 0.80085 0.0
H1626 H 0.96858 0.26393 0.74441 0.0
H1627 H 0.90954 0.25636 0.74612 0.0
H1628 H 0.98131 0.85761 0.9533 0.0
H1629 H 0.99148 0.80624 0.96831 0.0
H1630 H 0.98995 0.83708 0.06955 0.0
H1631 H 0.97862 0.88877 0.05445 0.0
H1632 H 0.04292 0.79472 0.00349 0.0
H1633 H 0.93178 0.74975 0.06211 0.0
H1634 H 0.93512 0.78379 0.03863 0.0
H1635 H 0.95424 0.78794 0.07964 0.0
C1636 C 0.98295 0.85356 0.97881 0.0
C1637 C 0.97932 0.87742 0.00272 0.0
C1638 C 0.98874 0.82405 0.98736 0.0
C1639 C 0.99131 0.81758 0.02005 0.0
C1640 C 0.98745 0.84123 0.04411 0.0
H1641 H 0.08311 0.65294 0.05585 0.0
H1642 H 0.07031 0.70647 0.06299 0.0
C1643 C 0.98121 0.87084 0.03548 0.0
C1644 C 0.99969 0.78658 0.02834 0.0
H1645 H 0.97219 0.71769 0.06234 0.0
C1646 C 0.02753 0.77795 0.01654 0.0
C1647 C 0.97944 0.76457 0.04507 0.0
C1648 C 0.94831 0.77174 0.05687 0.0
C1649 C 0.03519 0.74773 0.02001 0.0
C1650 C 0.01524 0.72576 0.03714 0.0
C1651 C 0.98775 0.73464 0.04964 0.0
C1652 C 0.021 0.69262 0.03957 0.0
C1653 C 0.06361 0.73914 0.00363 0.0
C1654 C 0.99669 0.66651 0.02669 0.0
C1655 C 1.00364 0.63572 0.02352 0.0
C1656 C 0.03521 0.63052 0.03274 0.0
C1657 C 0.0587 0.65623 0.04811 0.0
C1658 C 0.05149 0.68691 0.05191 0.0
H1659 H 0.07075 0.75525 0.98462 0.0
H1660 H 0.08499 0.74142 0.02199 0.0
H1661 H 0.05776 0.71421 0.9921 0.0
H1662 H 0.97287 0.67017 0.01726 0.0
H1663 H 0.9849 0.61647 0.01167 0.0
H1664 H 0.33161 0.41694 0.29698 0.0
H1665 H 0.33173 0.47333 0.31052 0.0
H1666 H 0.25038 0.44906 0.36628 0.0
H1667 H 0.25019 0.39204 0.35318 0.0
H1668 H 0.24606 0.49977 0.32591 0.0
H1669 H 0.36579 0.52052 0.40022 0.0
H1670 H 0.36541 0.50023 0.36073 0.0
H1671 H 0.34125 0.48106 0.38989 0.0
C1672 C 0.3135 0.42339 0.31195 0.0
C1673 C 0.29102 0.3998 0.32417 0.0
C1674 C 0.31383 0.45574 0.31992 0.0
C1675 C 0.29174 0.46537 0.34028 0.0
C1676 C 0.26808 0.44206 0.35112 0.0
H1677 H 0.27571 0.66963 0.37291 0.0
H1678 H 0.26756 0.61309 0.38419 0.0
C1679 C 0.26788 0.40951 0.34339 0.0
C1680 C 0.29364 0.49987 0.3499 0.0
H1681 H 0.34691 0.56677 0.38358 0.0
C1682 C 0.26779 0.51444 0.33908 0.0
C1683 C 0.32197 0.51885 0.36728 0.0
C1684 C 0.35008 0.50437 0.38051 0.0
C1685 C 0.27057 0.54784 0.34289 0.0
C1686 C 0.29966 0.56702 0.35878 0.0
C1687 C 0.3246 0.55213 0.37149 0.0
C1688 C 0.30694 0.60225 0.35751 0.0
C1689 C 0.24332 0.56238 0.32777 0.0
C1690 C 0.3329 0.61533 0.34061 0.0
C1691 C 0.33775 0.64733 0.33461 0.0
C1692 C 0.31685 0.66718 0.34544 0.0
C1693 C 0.29229 0.65488 0.3645 0.0
C1694 C 0.28736 0.62252 0.37051 0.0
H1695 H 0.22486 0.54448 0.31196 0.0
H1696 H 0.23087 0.57279 0.34727 0.0
H1697 H 0.25307 0.58184 0.31301 0.0
H1698 H 0.34845 0.60034 0.33046 0.0
H1699 H 0.35698 0.6562 0.31997 0.0
H1700 H 0.76746 0.17057 0.87187 0.0
H1701 H 0.76051 0.1138 0.88212 0.0
H1702 H 0.84904 0.10712 0.8387 0.0
H1703 H 0.85628 0.16316 0.82938 0.0
H1704 H 0.75099 0.06559 0.83465 0.0
H1705 H 0.86054 0.05653 0.9138 0.0
H1706 H 0.84863 0.09429 0.90832 0.0
H1707 H 0.87241 0.0774 0.87979 0.0
C1708 C 0.78605 0.15718 0.86593 0.0
C1709 C 0.81254 0.17121 0.85013 0.0
C1710 C 0.78194 0.12473 0.87145 0.0
C1711 C 0.80449 0.10617 0.8616 0.0
C1712 C 0.83177 0.1209 0.84741 0.0
H1713 H 0.8328 0.92271 0.79808 0.0
H1714 H 0.8321 0.97877 0.81311 0.0
C1715 C 0.83581 0.153 0.84191 0.0
C1716 C 0.79806 0.07081 0.86192 0.0
H1717 H 0.83698 0.00896 0.87636 0.0
C1718 C 0.76935 0.0531 0.84458 0.0
C1719 C 0.82203 0.05445 0.8748 0.0
C1720 C 0.85242 0.07175 0.89547 0.0
C1721 C 0.7651 0.0198 0.83766 0.0
C1722 C 0.79011 0.00379 0.84866 0.0
C1723 C 0.81793 0.02126 0.86764 0.0
C1724 C 0.78915 0.96946 0.83873 0.0
C1725 C 0.73482 1.00234 0.81692 0.0
C1726 C 0.76497 0.94548 0.84778 0.0
C1727 C 0.76527 0.9132 0.8392 0.0
C1728 C 0.78974 0.90432 0.82131 0.0
C1729 C 0.81344 0.92853 0.81167 0.0
C1730 C 0.81323 0.96068 0.82044 0.0
H1731 H 0.72095 0.01899 0.80522 0.0
H1732 H 0.74113 0.98573 0.79766 0.0
H1733 H 0.71866 0.98804 0.83237 0.0
H1734 H 0.7463 0.95171 0.86208 0.0
H1735 H 0.74683 0.89521 0.84726 0.0
H1736 H 0.40472 0.56609 0.04518 0.0
H1737 H 0.34791 0.57332 0.04339 0.0
H1738 H 0.31506 0.47189 0.02092 0.0
H1739 H 0.37116 0.46429 0.02347 0.0
H1740 H 0.29901 0.55921 0.99303 0.0
H1741 H 0.26307 0.48971 0.0952 0.0
H1742 H 0.30513 0.50235 0.08825 0.0
H1743 H 0.28085 0.46688 0.06609 0.0
C1744 C 0.38539 0.54527 0.04029 0.0
C1745 C 0.39269 0.51457 0.03467 0.0
C1746 C 0.35293 0.54948 0.03916 0.0
C1747 C 0.32718 0.52309 0.03261 0.0
C1748 C 0.33444 0.49254 0.02686 0.0
H1749 H 0.12189 0.46971 0.98924 0.0
H1750 H 0.18086 0.47554 0.99921 0.0
C1751 C 0.3667 0.48829 0.02811 0.0
C1752 C 0.29259 0.52714 0.03047 0.0
H1753 H 0.21932 0.49786 0.05715 0.0
C1754 C 0.2816 0.54616 0.00731 0.0
C1755 C 0.26995 0.51046 0.04946 0.0
C1756 C 0.28042 0.49149 0.07638 0.0
C1757 C 0.2483 0.54728 1.00118 0.0
C1758 C 0.22549 0.52916 0.01898 0.0
C1759 C 0.23674 0.5114 0.0432 0.0
C1760 C 0.18971 0.52661 0.01174 0.0
C1761 C 0.23758 0.5666 0.97471 0.0
C1762 C 0.17491 0.55341 0.01545 0.0
C1763 C 0.141 0.55021 0.00951 0.0
C1764 C 0.1212 0.52005 1.00015 0.0
C1765 C 0.13623 0.49332 0.99642 0.0
C1766 C 0.17002 0.49659 1.00216 0.0
H1767 H 0.25755 0.57513 0.95982 0.0
H1768 H 0.21671 0.55227 0.95849 0.0
H1769 H 0.2295 0.58785 0.98581 0.0
H1770 H 0.18948 0.57672 0.02355 0.0
H1771 H 0.13029 0.57127 0.01285 0.0
H1772 H 0.79245 0.12509 0.3025 0.0
H1773 H 0.80457 0.07231 0.30864 0.0
H1774 H 0.85239 0.10458 0.40489 0.0
H1775 H 0.83887 0.15743 0.39956 0.0
H1776 H 0.85649 0.04615 0.31956 0.0
H1777 H 0.78338 0.03263 0.42472 0.0
H1778 H 0.78457 0.06616 0.40079 0.0
H1779 H 0.81797 0.06481 0.43069 0.0
C1780 C 0.80585 0.12122 0.32492 0.0
C1781 C 0.81398 0.1454 0.35084 0.0
C1782 C 0.81286 0.09092 0.32836 0.0
C1783 C 0.82855 0.08411 0.3576 0.0
C1784 C 0.83931 0.10894 0.3825 0.0
H1785 H 0.85945 0.88481 0.35159 0.0
H1786 H 0.87193 0.94329 0.3632 0.0
C1787 C 0.83186 0.13928 0.37926 0.0
C1788 C 0.83133 0.0505 0.3622 0.0
H1789 H 0.80389 0.98825 0.40589 0.0
C1790 C 0.84537 0.03356 0.33868 0.0
C1791 C 0.81653 0.03398 0.38702 0.0
C1792 C 0.79951 0.05018 0.41211 0.0
C1793 C 0.84361 1.00042 0.3383 0.0
C1794 C 0.82833 0.98388 0.36283 0.0
C1795 C 0.81575 1.00103 0.38727 0.0
C1796 C 0.82159 0.94845 0.36125 0.0
C1797 C 0.85627 0.98321 0.31045 0.0
C1798 C 0.78917 0.93196 0.35793 0.0
C1799 C 0.78206 0.89879 0.35149 0.0
C1800 C 0.80723 0.8815 0.3489 0.0
C1801 C 0.83971 0.89765 0.35438 0.0
C1802 C 0.84682 0.93098 0.36049 0.0
H1803 H 0.86076 0.99835 0.2901 0.0
H1804 H 0.87968 0.97653 0.31913 0.0
H1805 H 0.83883 0.96102 0.3009 0.0
H1806 H 0.76926 0.9449 0.3583 0.0
H1807 H 0.75682 0.88681 0.34655 0.0
H1808 H 0.87848 0.01771 0.94422 0.0
H1809 H 0.81987 0.01356 0.94006 0.0
H1810 H 0.8084 0.91584 0.96318 0.0
H1811 H 0.86795 0.91953 0.9662 0.0
H1812 H 0.76056 0.92427 0.91673 0.0
H1813 H 0.77227 0.01788 0.01896 0.0
H1814 H 0.79517 0.03193 0.98676 0.0
H1815 H 0.80608 0.99988 0.00854 0.0
C1816 C 0.86365 0.99524 0.94839 0.0
C1817 C 0.87801 0.96917 0.95624 0.0
C1818 C 0.83003 0.99296 0.94608 0.0
C1819 C 0.80976 0.96479 0.95234 0.0
C1820 C 0.82367 0.93802 0.95869 0.0
H1821 H 0.60963 0.91946 0.98699 0.0
H1822 H 0.66471 0.91798 0.97357 0.0
C1823 C 0.85764 0.94015 0.96051 0.0
C1824 C 0.77431 0.96422 0.95318 0.0
H1825 H 0.72051 0.00418 0.98777 0.0
C1826 C 0.75178 0.94167 0.9323 0.0
C1827 C 0.7628 0.98685 0.97367 0.0
C1828 C 0.78534 0.01026 0.99847 0.0
C1829 C 0.71813 0.94164 0.93088 0.0
C1830 C 0.70682 0.96463 0.95097 0.0
C1831 C 0.72932 0.98706 0.97185 0.0
C1832 C 0.67167 0.96373 0.95371 0.0
C1833 C 0.6949 0.91722 0.90778 0.0
C1834 C 0.65707 0.98995 0.9468 0.0
C1835 C 0.62526 0.99083 0.95442 0.0
C1836 C 0.60813 0.96582 0.96973 0.0
C1837 C 0.62242 0.93918 0.9754 0.0
C1838 C 0.65379 0.93812 0.96744 0.0
H1839 H 0.70755 0.9065 0.88861 0.0
H1840 H 0.68334 0.89773 0.92154 0.0
H1841 H 0.67528 0.92809 0.89602 0.0
H1842 H 0.67068 0.01013 0.93654 0.0
H1843 H 0.61484 0.01169 0.95004 0.0
H1844 H 0.28704 0.62018 0.80313 0.0
H1845 H 0.30189 0.56909 0.81232 0.0
H1846 H 0.35335 0.60897 0.90522 0.0
H1847 H 0.33713 0.66026 0.89684 0.0
H1848 H 0.35599 0.54663 0.82222 0.0
H1849 H 0.29035 0.53621 0.93277 0.0
H1850 H 0.28836 0.56809 0.90716 0.0
H1851 H 0.32392 0.56926 0.93517 0.0
C1852 C 0.30175 0.61835 0.82547 0.0
C1853 C 0.31031 0.64428 0.84952 0.0
C1854 C 0.31036 0.589 0.83065 0.0
C1855 C 0.32806 0.58481 0.85984 0.0
C1856 C 0.33885 0.61129 0.88292 0.0
H1857 H 0.35736 0.38461 0.85296 0.0
H1858 H 0.37303 0.44249 0.86515 0.0
C1859 C 0.32986 0.64073 0.87791 0.0
C1860 C 0.33312 0.55213 0.86615 0.0
H1861 H 0.31005 0.49156 0.91342 0.0
C1862 C 0.34641 0.53469 0.84244 0.0
C1863 C 0.32056 0.53651 0.89256 0.0
C1864 C 0.30477 0.55332 0.91828 0.0
C1865 C 0.3453 0.50172 0.843 0.0
C1866 C 0.33164 0.48586 0.86875 0.0
C1867 C 0.32058 0.50375 0.89376 0.0
C1868 C 0.3237 0.45041 0.86739 0.0
C1869 C 0.35634 0.48383 0.81459 0.0
C1870 C 0.29091 0.43525 0.86592 0.0
C1871 C 0.28198 0.40226 0.85868 0.0
C1872 C 0.30574 0.38373 0.85354 0.0
C1873 C 0.33873 0.39836 0.85779 0.0
C1874 C 0.34764 0.43154 0.86435 0.0
H1875 H 0.36055 0.49868 0.79397 0.0
H1876 H 0.37957 0.47637 0.82242 0.0
H1877 H 0.33794 0.46211 0.80569 0.0
H1878 H 0.27193 0.44918 0.868 0.0
H1879 H 0.25634 0.39149 0.85476 0.0
H1880 H 0.10953 0.48249 0.43767 0.0
H1881 H 0.16656 0.48237 0.42802 0.0
H1882 H 0.18212 0.44166 0.51876 0.0
H1883 H 0.12644 0.44243 0.52896 0.0
H1884 H 0.22877 0.49194 0.51331 0.0
H1885 H 0.21106 0.4079 0.40149 0.0
H1886 H 0.19136 0.44169 0.39866 0.0
H1887 H 0.17834 0.41237 0.42592 0.0
C1888 C 0.12518 0.4736 0.45554 0.0
C1889 C 0.11325 0.46264 0.48416 0.0
C1890 C 0.15765 0.47321 0.44983 0.0
C1891 C 0.17853 0.46161 0.4725 0.0
C1892 C 0.16654 0.45064 0.50087 0.0
H1893 H 0.37257 0.41493 0.46212 0.0
H1894 H 0.31336 0.41171 0.46188 0.0
C1895 C 0.13449 0.45119 0.50665 0.0
C1896 C 0.21347 0.46229 0.46831 0.0
H1897 H 0.26554 0.43177 0.42121 0.0
C1898 C 0.23675 0.47889 0.49304 0.0
C1899 C 0.22387 0.44478 0.44219 0.0
C1900 C 0.1999 0.42541 0.41565 0.0
C1901 C 0.26999 0.47847 0.4925 0.0
C1902 C 0.28057 0.46177 0.46593 0.0
C1903 C 0.25738 0.44488 0.44128 0.0
C1904 C 0.31577 0.46279 0.46316 0.0
C1905 C 0.29337 0.49533 0.52094 0.0
C1906 C 0.33651 0.49234 0.463 0.0
C1907 C 0.37002 0.49428 0.46377 0.0
C1908 C 0.38377 0.46661 0.4639 0.0
C1909 C 0.36284 0.43672 0.46237 0.0
C1910 C 0.32903 0.43484 0.46206 0.0
H1911 H 0.28081 0.49798 0.5432 0.0
H1912 H 0.31349 0.48227 0.5264 0.0
H1913 H 0.30407 0.51962 0.51503 0.0
H1914 H 0.32678 0.51412 0.46282 0.0
H1915 H 0.38512 0.51773 0.46426 0.0
H1916 H 0.83155 0.84718 0.90969 0.0
H1917 H 0.83176 0.84682 0.96886 0.0
H1918 H 0.79743 0.74489 0.95727 0.0
H1919 H 0.7978 0.74479 0.89885 0.0
H1920 H 0.78098 0.8289 0.0036 0.0
H1921 H 0.87154 0.75248 0.02795 0.0
H1922 H 0.86741 0.77084 0.99039 0.0
H1923 H 0.84084 0.73398 0.99597 0.0
C1924 C 0.82436 0.82466 0.91979 0.0
C1925 C 0.81473 0.79602 0.89938 0.0
C1926 C 0.82454 0.82449 0.95361 0.0
C1927 C 0.81531 0.79569 0.96757 0.0
C1928 C 0.8056 0.76724 0.94721 0.0
H1929 H 0.72563 0.76433 0.14287 0.0
H1930 H 0.74022 0.76753 0.08734 0.0
C1931 C 0.8055 0.76734 0.91363 0.0
C1932 C 0.81335 0.79519 0.0031 0.0
H1933 H 0.83358 0.75546 0.06803 0.0
C1934 C 0.79286 0.8132 0.01781 0.0
C1935 C 0.82935 0.7752 0.02188 0.0
C1936 C 0.8538 0.75732 0.00831 0.0
C1937 C 0.78655 0.81044 0.05025 0.0
C1938 C 0.80034 0.78835 0.06816 0.0
C1939 C 0.82231 0.77173 0.05405 0.0
C1940 C 0.79202 0.78219 0.10147 0.0
C1941 C 0.76516 0.83128 0.06497 0.0
C1942 C 0.81648 0.78696 0.12768 0.0
C1943 C 0.80826 0.78442 0.15948 0.0
C1944 C 0.77537 0.77727 0.16558 0.0
C1945 C 0.75114 0.77022 0.13905 0.0
C1946 C 0.75942 0.77241 0.1073 0.0
H1947 H 0.76522 0.8532 0.05219 0.0
H1948 H 0.7397 0.81787 0.06266 0.0
H1949 H 0.77318 0.83845 0.09114 0.0
H1950 H 0.84185 0.79409 0.12372 0.0
H1951 H 0.82757 0.79001 0.17932 0.0
H1952 H 0.43017 0.50688 0.37145 0.0
H1953 H 0.43519 0.5037 0.3132 0.0
H1954 H 0.53894 0.53725 0.33276 0.0
H1955 H 0.5339 0.54029 0.39146 0.0
H1956 H 0.4618 0.54307 0.26669 0.0
H1957 H 0.52902 0.44495 0.28967 0.0
H1958 H 0.50891 0.46322 0.3206 0.0
H1959 H 0.54752 0.48332 0.31018 0.0
C1960 C 0.45381 0.51518 0.36328 0.0
C1961 C 0.48163 0.52402 0.38587 0.0
C1962 C 0.45671 0.51299 0.32998 0.0
C1963 C 0.48752 0.51946 0.31869 0.0
C1964 C 0.51498 0.53168 0.34106 0.0
H1965 H 0.54436 0.48984 0.12509 0.0
H1966 H 0.54407 0.49672 0.18421 0.0
C1967 C 0.51203 0.53408 0.37455 0.0
C1968 C 0.4908 0.51 0.28413 0.0
H1969 H 0.52024 0.4563 0.2351 0.0
C1970 C 0.47468 0.5242 0.25978 0.0
C1971 C 0.50729 0.48506 0.27516 0.0
C1972 C 0.52396 0.46798 0.30021 0.0
C1973 C 0.47493 0.5144 0.22671 0.0
C1974 C 0.49115 0.48928 0.21782 0.0
C1975 C 0.50755 0.4753 0.24208 0.0
C1976 C 0.49243 0.47839 0.18326 0.0
C1977 C 0.45822 0.53128 0.20144 0.0
C1978 C 0.46391 0.46383 0.16343 0.0
C1979 C 0.46417 0.45941 0.12965 0.0
C1980 C 0.49295 0.46956 0.11545 0.0
C1981 C 0.52201 0.48138 0.1356 0.0
C1982 C 0.5218 0.48559 0.1693 0.0
H1983 H 0.45241 0.55398 0.21197 0.0
H1984 H 0.47373 0.53656 0.18143 0.0
H1985 H 0.43509 0.51556 0.19079 0.0
H1986 H 0.44107 0.45783 0.17386 0.0
H1987 H 0.44134 0.45102 0.11456 0.0
H1988 H 0.7506 0.30515 0.41228 0.0
H1989 H 0.75533 0.31712 0.47119 0.0
H1990 H 0.75729 0.21845 0.48404 0.0
H1991 H 0.75272 0.20606 0.42503 0.0
H1992 H 0.71504 0.25007 0.52456 0.0
H1993 H 0.84267 0.31675 0.52942 0.0
H1994 H 0.81283 0.32781 0.5008 0.0
H1995 H 0.8235 0.28918 0.49511 0.0
C1996 C 0.75193 0.28587 0.42752 0.0
C1997 C 0.7517 0.25465 0.4138 0.0
C1998 C 0.75465 0.29284 0.46122 0.0
C1999 C 0.75704 0.26876 0.48189 0.0
C2000 C 0.75558 0.23738 0.46841 0.0
H2001 H 0.82532 0.2506 0.67426 0.0
H2002 H 0.81421 0.25424 0.61619 0.0
C2003 C 0.75302 0.23037 0.43467 0.0
C2004 C 0.7623 0.27643 0.5176 0.0
H2005 H 0.81996 0.31213 0.57909 0.0
C2006 C 0.73778 0.26399 0.53654 0.0
C2007 C 0.79208 0.2945 0.53301 0.0
C2008 C 0.81947 0.30774 0.5137 0.0
C2009 C 0.74256 0.26856 0.57066 0.0
C2010 C 0.77259 0.28606 0.58607 0.0
C2011 C 0.79681 0.29913 0.5671 0.0
C2012 C 0.78098 0.28696 0.62159 0.0
C2013 C 0.71616 0.25343 0.59012 0.0
C2014 C 0.76656 0.30491 0.64395 0.0
C2015 C 0.77313 0.30312 0.67748 0.0
C2016 C 0.79386 0.28305 0.68885 0.0
C2017 C 0.80905 0.26612 0.66628 0.0
C2018 C 0.8028 0.26819 0.63306 0.0
H2019 H 0.69518 0.2386 0.57442 0.0
H2020 H 0.72612 0.23821 0.60748 0.0
H2021 H 0.70721 0.27237 0.60452 0.0
H2022 H 0.74976 0.31969 0.63544 0.0
H2023 H 0.761 0.3163 0.69433 0.0
H2024 H 0.99104 0.47864 0.62847 0.0
H2025 H 0.98788 0.48322 0.68731 0.0
H2026 H 0.95838 0.38113 0.68448 0.0
H2027 H 0.96124 0.3762 0.6258 0.0
H2028 H 0.93433 0.45403 0.73104 0.0
H2029 H 0.05194 0.4105 0.74125 0.0
H2030 H 0.03797 0.42793 0.70556 0.0
H2031 H 0.01916 0.38839 0.71291 0.0
C2032 C 0.98283 0.45724 0.64013 0.0
C2033 C 0.97676 0.427 0.6224 0.0
C2034 C 0.98117 0.4599 0.6738 0.0
C2035 C 0.97335 0.43245 0.69021 0.0
C2036 C 0.96471 0.40255 0.67225 0.0
H2037 H 0.97162 0.42772 0.903 0.0
H2038 H 0.9589 0.41259 0.84418 0.0
C2039 C 0.9663 0.39984 0.63867 0.0
C2040 C 0.97773 0.43471 0.72622 0.0
H2041 H 0.03069 0.42366 0.78996 0.0
C2042 C 0.95517 0.44712 0.74399 0.0
C2043 C 0.00502 0.42567 0.74294 0.0
C2044 C 0.03011 0.4125 0.72487 0.0
C2045 C 0.95953 0.45117 0.7782 0.0
C2046 C 0.98718 0.44275 0.79484 0.0
C2047 C 0.00941 0.42985 0.77706 0.0
C2048 C 0.9953 0.4504 0.8304 0.0
C2049 C 0.93526 0.46543 0.79643 0.0
C2050 C 0.02037 0.47616 0.84196 0.0
C2051 C 0.0276 0.48487 0.87526 0.0
C2052 C 0.0101 0.46779 0.89785 0.0
C2053 C 0.98562 0.44126 0.88626 0.0
C2054 C 0.97819 0.43272 0.85272 0.0
H2055 H 0.91617 0.47262 0.77984 0.0
H2056 H 0.92326 0.44772 0.81191 0.0
H2057 H 0.94797 0.48665 0.81274 0.0
H2058 H 0.03393 0.49 0.8251 0.0
H2059 H 0.0467 0.50534 0.88326 0.0
H2060 H 0.90526 0.05562 0.53534 0.0
H2061 H 0.84868 0.06299 0.53537 0.0
H2062 H 0.81517 0.96174 0.51205 0.0
H2063 H 0.87119 0.95397 0.51295 0.0
H2064 H 0.79862 0.05078 0.48769 0.0
H2065 H 0.76555 0.97769 0.58808 0.0
H2066 H 0.80723 0.98997 0.57977 0.0
H2067 H 0.7817 0.95536 0.55725 0.0
C2068 C 0.88586 0.03485 0.53059 0.0
C2069 C 0.89296 0.00414 0.52442 0.0
C2070 C 0.8535 0.03915 0.53052 0.0
C2071 C 0.82762 0.01286 0.52438 0.0
C2072 C 0.83467 0.98231 0.5178 0.0
H2073 H 0.62176 0.96244 0.4864 0.0
H2074 H 0.68075 0.9676 0.4946 0.0
C2075 C 0.86687 0.97795 0.51811 0.0
C2076 C 0.79312 0.01709 0.52373 0.0
H2077 H 0.72085 0.98737 0.55216 0.0
C2078 C 0.78166 0.03727 0.50207 0.0
C2079 C 0.77106 0.99986 0.54291 0.0
C2080 C 0.78211 0.9798 0.56856 0.0
C2081 C 0.74841 0.03912 0.49763 0.0
C2082 C 0.72612 0.02035 0.51542 0.0
C2083 C 0.73786 1.00137 0.53815 0.0
C2084 C 0.69028 0.01828 0.50948 0.0
C2085 C 0.73713 0.05995 0.4729 0.0
C2086 C 0.67584 0.04508 0.51518 0.0
C2087 C 0.64192 0.04229 0.51019 0.0
C2088 C 0.62176 0.01252 0.49989 0.0
C2089 C 0.6364 0.98576 0.49434 0.0
C2090 C 0.67021 0.98864 0.49905 0.0
H2091 H 0.75681 0.06983 0.45825 0.0
H2092 H 0.71622 0.04624 0.45629 0.0
H2093 H 0.7289 0.08037 0.48553 0.0
H2094 H 0.69072 0.06804 0.52406 0.0
H2095 H 0.63149 0.06332 0.51499 0.0
loop_
_geom_bond_atom_site_label_1
_geom_bond_atom_site_label_2
_geom_bond_distance
_geom_bond_site_symmetry_2
_ccdc_geom_bond_type
Co0 O2 2.143 . S
Co0 O8 2.074 . S
Co0 O11 2.093 . S
Co0 O24 2.097 . S
Co0 N41 2.151 . S
Co0 N49 2.214 . S
Co1 O2 2.160 . S
Co1 O7 2.058 . S
Co1 O17 2.057 . S
Co1 O32 2.037 . S
Co1 N36 2.145 . S
Co1 N57 2.257 . S
O2 Co0 2.143 . S
O2 Co1 2.160 . S
C3 O4 1.278 . S
C3 O11 1.224 . S
O4 C3 1.278 . S
C5 O6 1.245 . S
C5 O17 1.232 . S
O6 C5 1.245 . S
O7 Co1 2.058 . S
O7 C33 1.269 . S
O8 Co0 2.074 . S
O8 C33 1.257 . S
H9 C34 0.930 . S
H10 C40 0.930 . S
O11 Co0 2.093 . S
O11 C3 1.224 . S
H12 C44 0.929 . S
H13 C46 0.930 . S
H14 C47 0.930 . S
H15 C45 0.929 . S
H16 C48 0.928 . S
O17 Co1 2.057 . S
O17 C5 1.232 . S
H18 C37 0.929 . S
H19 C38 0.929 . S
H20 C50 0.931 . S
H21 C42 0.929 . S
H22 C51 0.930 . S
H23 C43 0.931 . S
O24 Co0 2.097 . S
O24 C52 1.214 . S
H25 C53 0.929 . S
H26 C54 0.929 . S
H27 C55 0.930 . S
H28 C56 0.929 . S
H29 C58 0.930 . S
H30 C35 0.930 . S
H31 C39 0.930 . S
O32 Co1 2.037 . S
O32 C52 1.234 . S
C33 O7 1.269 . S
C33 O8 1.257 . S
C34 H9 0.930 . S
C34 C37 1.388 . S
C34 C39 1.418 . S
C35 H30 0.930 . S
C35 C38 1.404 . S
C35 C39 1.353 . S
N36 Co1 2.145 . S
N36 C37 1.397 . S
N36 C38 1.334 . S
C37 H18 0.929 . S
C37 C34 1.388 . S
C37 N36 1.397 . S
C38 H19 0.929 . S
C38 C35 1.404 . S
C38 N36 1.334 . S
C39 H31 0.930 . S
C39 C34 1.418 . S
C39 C35 1.353 . S
C40 H10 0.930 . S
C40 N41 1.330 . S
C40 C42 1.446 . S
N41 Co0 2.151 . S
N41 C40 1.330 . S
N41 C45 1.418 . S
C42 H21 0.929 . S
C42 C40 1.446 . S
C42 C43 1.332 . S
C43 H23 0.931 . S
C43 C42 1.332 . S
C43 C44 1.267 . S
C44 H12 0.929 . S
C44 C43 1.267 . S
C44 C45 1.251 . S
C45 H15 0.929 . S
C45 N41 1.418 . S
C45 C44 1.251 . S
C46 H13 0.930 . S
C46 C48 1.406 . S
C46 C51 1.261 . S
C47 H14 0.930 . S
C47 N49 1.325 . S
C47 C50 1.357 . S
C48 H16 0.928 . S
C48 C46 1.406 . S
C48 N49 1.261 . S
N49 Co0 2.214 . S
N49 C47 1.325 . S
N49 C48 1.261 . S
C50 H20 0.931 . S
C50 C47 1.357 . S
C50 C51 1.312 . S
C51 H22 0.930 . S
C51 C46 1.261 . S
C51 C50 1.312 . S
C52 O24 1.214 . S
C52 O32 1.234 . S
C53 H25 0.929 . S
C53 C56 1.391 . S
C53 C58 1.391 . S
C54 H26 0.929 . S
C54 C55 1.390 . S
C54 N57 1.391 . S
C55 H27 0.930 . S
C55 C54 1.390 . S
C55 C56 1.392 . S
C56 H28 0.929 . S
C56 C53 1.391 . S
C56 C55 1.392 . S
N57 Co1 2.257 . S
N57 C54 1.391 . S
N57 C58 1.388 . S
C58 H29 0.930 . S
C58 C53 1.391 . S
C58 N57 1.388 . S
Co59 O61 2.143 . S
Co59 O67 2.074 . S
Co59 O70 2.093 . S
Co59 O83 2.097 . S
Co59 N100 2.151 1_655 S
Co59 N108 2.214 . S
Co60 O61 2.160 1_565 S
Co60 O66 2.058 . S
Co60 O76 2.057 1_655 S
Co60 O91 2.037 . S
Co60 N95 2.145 . S
Co60 N116 2.257 . S
O61 Co59 2.143 . S
O61 Co60 2.160 1_545 S
C62 O63 1.278 . S
C62 O70 1.224 . S
O63 C62 1.278 . S
C64 O65 1.245 1_565 S
C64 O76 1.232 . S
O65 C64 1.245 1_545 S
O66 Co60 2.058 . S
O66 C92 1.269 . S
O67 Co59 2.074 . S
O67 C92 1.257 1_545 S
H68 C93 0.930 . S
H69 C99 0.930 . S
O70 Co59 2.093 . S
O70 C62 1.224 . S
H71 C103 0.929 . S
H72 C105 0.930 . S
H73 C106 0.930 . S
H74 C104 0.929 . S
H75 C107 0.928 . S
O76 Co60 2.057 1_455 S
O76 C64 1.232 . S
H77 C96 0.929 . S
H78 C97 0.929 . S
H79 C109 0.931 . S
H80 C101 0.929 . S
H81 C110 0.930 . S
H82 C102 0.931 . S
O83 Co59 2.097 . S
O83 C111 1.214 . S
H84 C112 0.929 . S
H85 C113 0.929 . S
H86 C114 0.930 . S
H87 C115 0.929 . S
H88 C117 0.930 . S
H89 C94 0.930 . S
H90 C98 0.930 . S
O91 Co60 2.037 . S
O91 C111 1.234 1_565 S
C92 O66 1.269 . S
C92 O67 1.257 1_565 S
C93 H68 0.930 . S
C93 C96 1.388 . S
C93 C98 1.418 . S
C94 H89 0.930 . S
C94 C97 1.404 . S
C94 C98 1.353 . S
N95 Co60 2.145 . S
N95 C96 1.397 . S
N95 C97 1.334 . S
C96 H77 0.929 . S
C96 C93 1.388 . S
C96 N95 1.397 . S
C97 H78 0.929 . S
C97 C94 1.404 . S
C97 N95 1.334 . S
C98 H90 0.930 . S
C98 C93 1.418 . S
C98 C94 1.353 . S
C99 H69 0.930 . S
C99 N100 1.330 . S
C99 C101 1.446 . S
N100 Co59 2.151 1_455 S
N100 C99 1.330 . S
N100 C104 1.418 . S
C101 H80 0.929 . S
C101 C99 1.446 . S
C101 C102 1.332 . S
C102 H82 0.931 . S
C102 C101 1.332 . S
C102 C103 1.267 . S
C103 H71 0.929 . S
C103 C102 1.267 . S
C103 C104 1.251 . S
C104 H74 0.929 . S
C104 N100 1.418 . S
C104 C103 1.251 . S
C105 H72 0.930 . S
C105 C107 1.406 . S
C105 C110 1.261 . S
C106 H73 0.930 . S
C106 N108 1.325 . S
C106 C109 1.357 . S
C107 H75 0.928 . S
C107 C105 1.406 . S
C107 N108 1.261 . S
N108 Co59 2.214 . S
N108 C106 1.325 . S
N108 C107 1.261 . S
C109 H79 0.931 . S
C109 C106 1.357 . S
C109 C110 1.312 . S
C110 H81 0.930 . S
C110 C105 1.261 . S
C110 C109 1.312 . S
C111 O83 1.214 . S
C111 O91 1.234 1_545 S
C112 H84 0.929 . S
C112 C115 1.391 . S
C112 C117 1.391 . S
C113 H85 0.929 . S
C113 C114 1.390 . S
C113 N116 1.391 . S
C114 H86 0.930 . S
C114 C113 1.390 . S
C114 C115 1.392 1_565 S
C115 H87 0.929 . S
C115 C112 1.391 . S
C115 C114 1.392 1_545 S
N116 Co60 2.257 . S
N116 C113 1.391 . S
N116 C117 1.388 1_565 S
C117 H88 0.930 . S
C117 C112 1.391 . S
C117 N116 1.388 1_545 S
Co118 O120 2.143 . S
Co118 O126 2.074 . S
Co118 O129 2.093 . S
Co118 O142 2.097 . S
Co118 N159 2.151 . S
Co118 N167 2.214 . S
Co119 O120 2.160 . S
Co119 O125 2.058 . S
Co119 O135 2.057 . S
Co119 O150 2.037 . S
Co119 N154 2.145 . S
Co119 N175 2.257 . S
O120 Co118 2.143 . S
O120 Co119 2.160 . S
C121 O122 1.278 . S
C121 O129 1.224 . S
O122 C121 1.278 . S
C123 O124 1.245 . S
C123 O135 1.232 . S
O124 C123 1.245 . S
O125 Co119 2.058 . S
O125 C151 1.269 . S
O126 Co118 2.074 . S
O126 C151 1.257 . S
H127 C152 0.930 . S
H128 C158 0.930 . S
O129 Co118 2.093 . S
O129 C121 1.224 . S
H130 C162 0.929 . S
H131 C164 0.930 . S
H132 C165 0.930 . S
H133 C163 0.929 . S
H134 C166 0.928 . S
O135 Co119 2.057 . S
O135 C123 1.232 . S
H136 C155 0.929 . S
H137 C156 0.929 . S
H138 C168 0.931 . S
H139 C160 0.929 . S
H140 C169 0.930 . S
H141 C161 0.931 . S
O142 Co118 2.097 . S
O142 C170 1.214 . S
H143 C171 0.929 . S
H144 C172 0.929 . S
H145 C173 0.930 . S
H146 C174 0.929 . S
H147 C176 0.930 . S
H148 C153 0.930 . S
H149 C157 0.930 . S
O150 Co119 2.037 . S
O150 C170 1.234 . S
C151 O125 1.269 . S
C151 O126 1.257 . S
C152 H127 0.930 . S
C152 C155 1.388 . S
C152 C157 1.418 . S
C153 H148 0.930 . S
C153 C156 1.404 . S
C153 C157 1.353 . S
N154 Co119 2.145 . S
N154 C155 1.397 . S
N154 C156 1.334 . S
C155 H136 0.929 . S
C155 C152 1.388 . S
C155 N154 1.397 . S
C156 H137 0.929 . S
C156 C153 1.404 . S
C156 N154 1.334 . S
C157 H149 0.930 . S
C157 C152 1.418 . S
C157 C153 1.353 . S
C158 H128 0.930 . S
C158 N159 1.330 . S
C158 C160 1.446 . S
N159 Co118 2.151 . S
N159 C158 1.330 . S
N159 C163 1.418 . S
C160 H139 0.929 . S
C160 C158 1.446 . S
C160 C161 1.332 . S
C161 H141 0.931 . S
C161 C160 1.332 . S
C161 C162 1.267 . S
C162 H130 0.929 . S
C162 C161 1.267 . S
C162 C163 1.251 . S
C163 H133 0.929 . S
C163 N159 1.418 . S
C163 C162 1.251 . S
C164 H131 0.930 . S
C164 C166 1.406 . S
C164 C169 1.261 . S
C165 H132 0.930 . S
C165 N167 1.325 . S
C165 C168 1.357 . S
C166 H134 0.928 . S
C166 C164 1.406 . S
C166 N167 1.261 . S
N167 Co118 2.214 . S
N167 C165 1.325 . S
N167 C166 1.261 . S
C168 H138 0.931 . S
C168 C165 1.357 . S
C168 C169 1.312 . S
C169 H140 0.930 . S
C169 C164 1.261 . S
C169 C168 1.312 . S
C170 O142 1.214 . S
C170 O150 1.234 . S
C171 H143 0.929 . S
C171 C174 1.391 . S
C171 C176 1.391 . S
C172 H144 0.929 . S
C172 C173 1.390 . S
C172 N175 1.391 . S
C173 H145 0.930 . S
C173 C172 1.390 . S
C173 C174 1.392 . S
C174 H146 0.929 . S
C174 C171 1.391 . S
C174 C173 1.392 . S
N175 Co119 2.257 . S
N175 C172 1.391 . S
N175 C176 1.388 . S
C176 H147 0.930 . S
C176 C171 1.391 . S
C176 N175 1.388 . S
Co177 O179 2.143 . S
Co177 O185 2.057 1_554 S
Co177 O188 2.093 . S
Co177 O201 2.097 . S
Co177 N218 2.151 . S
Co177 N226 2.214 . S
Co178 O179 2.160 1_556 S
Co178 O184 2.058 . S
Co178 O194 2.057 . S
Co178 O209 2.037 . S
Co178 N213 2.145 . S
Co178 N234 2.257 . S
O179 Co177 2.143 . S
O179 Co178 2.160 1_554 S
C180 O181 1.278 . S
C180 O188 1.224 . S
O181 C180 1.278 . S
C182 O183 1.245 . S
C182 O194 1.232 1_545 S
O183 C182 1.245 . S
O184 Co178 2.058 . S
O184 C210 1.269 . S
O185 Co177 2.057 1_556 S
O185 C210 1.278 . S
H186 C211 0.930 . S
H187 C217 0.930 . S
O188 Co177 2.093 . S
O188 C180 1.224 . S
H189 C221 0.929 . S
H190 C223 0.930 . S
H191 C224 0.930 . S
H192 C222 0.929 . S
H193 C225 0.928 . S
O194 Co178 2.057 . S
O194 C182 1.232 1_565 S
H195 C214 0.929 . S
H196 C215 0.929 . S
H197 C227 0.931 . S
H198 C219 0.929 . S
H199 C228 0.930 . S
H200 C220 0.931 . S
O201 Co177 2.097 . S
O201 C229 1.214 1_554 S
H202 C230 0.929 . S
H203 C231 0.929 . S
H204 C232 0.930 . S
H205 C233 0.929 . S
H206 C235 0.930 . S
H207 C212 0.930 . S
H208 C216 0.930 . S
O209 Co178 2.037 . S
O209 C229 1.234 . S
C210 O184 1.269 . S
C210 O185 1.278 . S
C211 H186 0.930 . S
C211 C214 1.388 . S
C211 C216 1.418 . S
C212 H207 0.930 . S
C212 C215 1.404 . S
C212 C216 1.353 . S
N213 Co178 2.145 . S
N213 C214 1.397 . S
N213 C215 1.334 . S
C214 H195 0.929 . S
C214 C211 1.388 . S
C214 N213 1.397 . S
C215 H196 0.929 . S
C215 C212 1.404 . S
C215 N213 1.334 . S
C216 H208 0.930 . S
C216 C211 1.418 . S
C216 C212 1.353 . S
C217 H187 0.930 . S
C217 N218 1.330 1_545 S
C217 C219 1.446 . S
N218 Co177 2.151 . S
N218 C217 1.330 1_565 S
N218 C222 1.418 . S
C219 H198 0.929 . S
C219 C217 1.446 . S
C219 C220 1.332 . S
C220 H200 0.931 . S
C220 C219 1.332 . S
C220 C221 1.267 . S
C221 H189 0.929 . S
C221 C220 1.267 . S
C221 C222 1.251 1_545 S
C222 H192 0.929 . S
C222 N218 1.418 . S
C222 C221 1.251 1_565 S
C223 H190 0.930 . S
C223 C225 1.406 . S
C223 C228 1.261 . S
C224 H191 0.930 . S
C224 N226 1.325 . S
C224 C227 1.357 . S
C225 H193 0.928 . S
C225 C223 1.406 . S
C225 N226 1.261 . S
N226 Co177 2.214 . S
N226 C224 1.325 . S
N226 C225 1.261 . S
C227 H197 0.931 . S
C227 C224 1.357 . S
C227 C228 1.312 . S
C228 H199 0.930 . S
C228 C223 1.261 . S
C228 C227 1.312 . S
C229 O201 1.214 1_556 S
C229 O209 1.234 . S
C230 H202 0.929 . S
C230 C233 1.391 . S
C230 C235 1.391 . S
C231 H203 0.929 . S
C231 C232 1.390 . S
C231 N234 1.391 . S
C232 H204 0.930 . S
C232 C231 1.390 . S
C232 C233 1.392 . S
C233 H205 0.929 . S
C233 C230 1.391 . S
C233 C232 1.392 . S
N234 Co178 2.257 . S
N234 C231 1.391 . S
N234 C235 1.388 . S
C235 H206 0.930 . S
C235 C230 1.391 . S
C235 N234 1.388 . S
Co236 O238 2.143 . S
Co236 O244 2.074 . S
Co236 O247 2.093 . S
Co236 O260 2.097 . S
Co236 N277 2.151 . S
Co236 N285 2.214 . S
Co237 O238 2.160 . S
Co237 O243 2.058 . S
Co237 O253 2.057 . S
Co237 O268 2.037 . S
Co237 N272 2.145 . S
Co237 N293 2.257 . S
O238 Co236 2.143 . S
O238 Co237 2.160 . S
C239 O240 1.278 . S
C239 O247 1.224 . S
O240 C239 1.278 . S
C241 O242 1.245 . S
C241 O253 1.232 . S
O242 C241 1.245 . S
O243 Co237 2.058 . S
O243 C269 1.269 . S
O244 Co236 2.074 . S
O244 C269 1.257 . S
H245 C270 0.930 . S
H246 C276 0.930 . S
O247 Co236 2.093 . S
O247 C239 1.224 . S
H248 C280 0.929 . S
H249 C282 0.930 . S
H250 C283 0.930 . S
H251 C281 0.929 . S
H252 C284 0.928 . S
O253 Co237 2.057 . S
O253 C241 1.232 . S
H254 C273 0.929 . S
H255 C274 0.929 . S
H256 C286 0.931 . S
H257 C278 0.929 . S
H258 C287 0.930 . S
H259 C279 0.931 . S
O260 Co236 2.097 . S
O260 C288 1.214 . S
H261 C289 0.929 . S
H262 C290 0.929 . S
H263 C291 0.930 . S
H264 C292 0.929 . S
H265 C294 0.930 . S
H266 C271 0.930 . S
H267 C275 0.930 . S
O268 Co237 2.037 . S
O268 C288 1.234 . S
C269 O243 1.269 . S
C269 O244 1.257 . S
C270 H245 0.930 . S
C270 C273 1.388 . S
C270 C275 1.418 . S
C271 H266 0.930 . S
C271 C274 1.404 . S
C271 C275 1.353 . S
N272 Co237 2.145 . S
N272 C273 1.397 . S
N272 C274 1.334 . S
C273 H254 0.929 . S
C273 C270 1.388 . S
C273 N272 1.397 . S
C274 H255 0.929 . S
C274 C271 1.404 . S
C274 N272 1.334 . S
C275 H267 0.930 . S
C275 C270 1.418 . S
C275 C271 1.353 . S
C276 H246 0.930 . S
C276 N277 1.330 . S
C276 C278 1.446 . S
N277 Co236 2.151 . S
N277 C276 1.330 . S
N277 C281 1.418 . S
C278 H257 0.929 . S
C278 C276 1.446 . S
C278 C279 1.332 . S
C279 H259 0.931 . S
C279 C278 1.332 . S
C279 C280 1.267 . S
C280 H248 0.929 . S
C280 C279 1.267 . S
C280 C281 1.251 . S
C281 H251 0.929 . S
C281 N277 1.418 . S
C281 C280 1.251 . S
C282 H249 0.930 . S
C282 C284 1.406 . S
C282 C287 1.261 . S
C283 H250 0.930 . S
C283 N285 1.325 . S
C283 C286 1.357 . S
C284 H252 0.928 . S
C284 C282 1.406 . S
C284 N285 1.261 . S
N285 Co236 2.214 . S
N285 C283 1.325 . S
N285 C284 1.261 . S
C286 H256 0.931 . S
C286 C283 1.357 . S
C286 C287 1.312 . S
C287 H258 0.930 . S
C287 C282 1.261 . S
C287 C286 1.312 . S
C288 O260 1.214 . S
C288 O268 1.234 . S
C289 H261 0.929 . S
C289 C292 1.391 . S
C289 C294 1.391 . S
C290 H262 0.929 . S
C290 C291 1.390 . S
C290 N293 1.391 . S
C291 H263 0.930 . S
C291 C290 1.390 . S
C291 C292 1.392 . S
C292 H264 0.929 . S
C292 C289 1.391 . S
C292 C291 1.392 . S
N293 Co237 2.257 . S
N293 C290 1.391 . S
N293 C294 1.388 . S
C294 H265 0.930 . S
C294 C289 1.391 . S
C294 N293 1.388 . S
Co295 O297 2.143 . S
Co295 O303 2.063 1_545 S
Co295 O306 2.093 . S
Co295 O319 2.097 . S
Co295 N336 2.151 . S
Co295 N344 2.214 . S
Co296 O297 2.160 1_565 S
Co296 O302 2.058 . S
Co296 O312 2.057 . S
Co296 O327 2.037 . S
Co296 N331 2.145 . S
Co296 N352 2.257 . S
O297 Co295 2.143 . S
O297 Co296 2.160 1_545 S
C298 O299 1.278 . S
C298 O306 1.224 . S
O299 C298 1.278 . S
C300 O301 1.245 . S
C300 O312 1.232 . S
O301 C300 1.245 . S
O302 Co296 2.058 . S
O302 C328 1.269 . S
O303 Co295 2.063 1_565 S
O303 C328 1.269 . S
H304 C329 0.930 . S
H305 C335 0.930 . S
O306 Co295 2.093 . S
O306 C298 1.224 . S
H307 C339 0.929 . S
H308 C341 0.930 . S
H309 C342 0.930 . S
H310 C340 0.929 . S
H311 C343 0.928 . S
O312 Co296 2.057 . S
O312 C300 1.232 . S
H313 C332 0.929 . S
H314 C333 0.929 . S
H315 C345 0.931 . S
H316 C337 0.929 . S
H317 C346 0.930 . S
H318 C338 0.931 . S
O319 Co295 2.097 . S
O319 C347 1.214 . S
H320 C348 0.929 . S
H321 C349 0.929 . S
H322 C350 0.930 . S
H323 C351 0.929 . S
H324 C353 0.930 . S
H325 C330 0.930 . S
H326 C334 0.930 . S
O327 Co296 2.037 . S
O327 C347 1.234 1_565 S
C328 O302 1.269 . S
C328 O303 1.269 . S
C329 H304 0.930 . S
C329 C332 1.388 . S
C329 C334 1.418 . S
C330 H325 0.930 . S
C330 C333 1.404 . S
C330 C334 1.353 . S
N331 Co296 2.145 . S
N331 C332 1.397 . S
N331 C333 1.334 . S
C332 H313 0.929 . S
C332 C329 1.388 . S
C332 N331 1.397 . S
C333 H314 0.929 . S
C333 C330 1.404 . S
C333 N331 1.334 . S
C334 H326 0.930 . S
C334 C329 1.418 . S
C334 C330 1.353 . S
C335 H305 0.930 . S
C335 N336 1.330 . S
C335 C337 1.446 . S
N336 Co295 2.151 . S
N336 C335 1.330 . S
N336 C340 1.418 . S
C337 H316 0.929 . S
C337 C335 1.446 . S
C337 C338 1.332 . S
C338 H318 0.931 . S
C338 C337 1.332 . S
C338 C339 1.267 . S
C339 H307 0.929 . S
C339 C338 1.267 . S
C339 C340 1.251 . S
C340 H310 0.929 . S
C340 N336 1.418 . S
C340 C339 1.251 . S
C341 H308 0.930 . S
C341 C343 1.406 . S
C341 C346 1.261 . S
C342 H309 0.930 . S
C342 N344 1.325 . S
C342 C345 1.357 . S
C343 H311 0.928 . S
C343 C341 1.406 . S
C343 N344 1.261 . S
N344 Co295 2.214 . S
N344 C342 1.325 . S
N344 C343 1.261 . S
C345 H315 0.931 . S
C345 C342 1.357 . S
C345 C346 1.312 . S
C346 H317 0.930 . S
C346 C341 1.261 . S
C346 C345 1.312 . S
C347 O319 1.214 . S
C347 O327 1.234 1_545 S
C348 H320 0.929 . S
C348 C351 1.391 . S
C348 C353 1.391 . S
C349 H321 0.929 . S
C349 C350 1.390 1_565 S
C349 N352 1.391 . S
C350 H322 0.930 . S
C350 C349 1.390 1_545 S
C350 C351 1.392 . S
C351 H323 0.929 . S
C351 C348 1.391 . S
C351 C350 1.392 . S
N352 Co296 2.257 . S
N352 C349 1.391 . S
N352 C353 1.388 1_565 S
C353 H324 0.930 . S
C353 C348 1.391 . S
C353 N352 1.388 1_545 S
Co354 O356 2.143 . S
Co354 O362 2.074 . S
Co354 O365 2.093 . S
Co354 O378 2.097 . S
Co354 N395 2.151 . S
Co354 N403 2.214 . S
Co355 O356 2.160 . S
Co355 O361 2.058 . S
Co355 O371 2.057 . S
Co355 O386 2.037 . S
Co355 N390 2.145 . S
Co355 N411 2.257 . S
O356 Co354 2.143 . S
O356 Co355 2.160 . S
C357 O358 1.278 . S
C357 O365 1.224 . S
O358 C357 1.278 . S
C359 O360 1.245 . S
C359 O371 1.232 . S
O360 C359 1.245 . S
O361 Co355 2.058 . S
O361 C387 1.269 . S
O362 Co354 2.074 . S
O362 C387 1.257 . S
H363 C388 0.930 . S
H364 C394 0.930 . S
O365 Co354 2.093 . S
O365 C357 1.224 . S
H366 C398 0.929 . S
H367 C400 0.930 . S
H368 C401 0.930 . S
H369 C399 0.929 . S
H370 C402 0.928 . S
O371 Co355 2.057 . S
O371 C359 1.232 . S
H372 C391 0.929 . S
H373 C392 0.929 . S
H374 C404 0.931 . S
H375 C396 0.929 . S
H376 C405 0.930 . S
H377 C397 0.931 . S
O378 Co354 2.097 . S
O378 C406 1.214 . S
H379 C407 0.929 . S
H380 C408 0.929 . S
H381 C409 0.930 . S
H382 C410 0.929 . S
H383 C412 0.930 . S
H384 C389 0.930 . S
H385 C393 0.930 . S
O386 Co355 2.037 . S
O386 C406 1.234 . S
C387 O361 1.269 . S
C387 O362 1.257 . S
C388 H363 0.930 . S
C388 C391 1.388 . S
C388 C393 1.418 . S
C389 H384 0.930 . S
C389 C392 1.404 . S
C389 C393 1.353 . S
N390 Co355 2.145 . S
N390 C391 1.397 . S
N390 C392 1.334 . S
C391 H372 0.929 . S
C391 C388 1.388 . S
C391 N390 1.397 . S
C392 H373 0.929 . S
C392 C389 1.404 . S
C392 N390 1.334 . S
C393 H385 0.930 . S
C393 C388 1.418 . S
C393 C389 1.353 . S
C394 H364 0.930 . S
C394 N395 1.330 . S
C394 C396 1.446 . S
N395 Co354 2.151 . S
N395 C394 1.330 . S
N395 C399 1.418 . S
C396 H375 0.929 . S
C396 C394 1.446 . S
C396 C397 1.332 . S
C397 H377 0.931 . S
C397 C396 1.332 . S
C397 C398 1.267 . S
C398 H366 0.929 . S
C398 C397 1.267 . S
C398 C399 1.251 . S
C399 H369 0.929 . S
C399 N395 1.418 . S
C399 C398 1.251 . S
C400 H367 0.930 . S
C400 C402 1.406 . S
C400 C405 1.261 . S
C401 H368 0.930 . S
C401 N403 1.325 . S
C401 C404 1.357 . S
C402 H370 0.928 . S
C402 C400 1.406 . S
C402 N403 1.261 . S
N403 Co354 2.214 . S
N403 C401 1.325 . S
N403 C402 1.261 . S
C404 H374 0.931 . S
C404 C401 1.357 . S
C404 C405 1.312 . S
C405 H376 0.930 . S
C405 C400 1.261 . S
C405 C404 1.312 . S
C406 O378 1.214 . S
C406 O386 1.234 . S
C407 H379 0.929 . S
C407 C410 1.391 . S
C407 C412 1.391 . S
C408 H380 0.929 . S
C408 C409 1.390 . S
C408 N411 1.391 . S
C409 H381 0.930 . S
C409 C408 1.390 . S
C409 C410 1.392 . S
C410 H382 0.929 . S
C410 C407 1.391 . S
C410 C409 1.392 . S
N411 Co355 2.257 . S
N411 C408 1.391 . S
N411 C412 1.388 . S
C412 H383 0.930 . S
C412 C407 1.391 . S
C412 N411 1.388 . S
Co413 O415 2.143 . S
Co413 O421 2.074 . S
Co413 O424 2.093 . S
Co413 O437 2.097 . S
Co413 N454 2.151 1_655 S
Co413 N462 2.214 . S
Co414 O415 2.160 . S
Co414 O420 2.058 1_565 S
Co414 O430 2.057 1_666 S
Co414 O445 2.037 . S
Co414 N449 2.145 1_566 S
Co414 N470 2.257 1_556 S
O415 Co413 2.143 . S
O415 Co414 2.160 . S
C416 O417 1.278 1_556 S
C416 O424 1.224 . S
O417 C416 1.278 1_554 S
C418 O419 1.249 1_545 S
C418 O430 1.232 . S
O419 C418 1.249 1_565 S
O420 Co414 2.058 1_545 S
O420 C446 1.269 1_545 S
O421 Co413 2.074 . S
O421 C446 1.257 . S
H422 C447 0.930 . S
H423 C453 0.930 . S
O424 Co413 2.093 . S
O424 C416 1.224 . S
H425 C457 0.929 . S
H426 C459 0.930 . S
H427 C460 0.930 . S
H428 C458 0.929 . S
H429 C461 0.928 . S
O430 Co414 2.057 1_444 S
O430 C418 1.232 . S
H431 C450 0.929 . S
H432 C451 0.921 1_455 S
H433 C463 0.931 . S
H434 C455 0.929 . S
H435 C464 0.930 . S
H436 C456 0.931 . S
O437 Co413 2.097 . S
O437 C465 1.214 . S
H438 C466 0.929 . S
H439 C467 0.929 . S
H440 C468 0.930 . S
H441 C469 0.929 . S
H442 C471 0.930 1_455 S
H443 C448 0.930 . S
H444 C452 0.930 . S
O445 Co414 2.037 . S
O445 C465 1.234 . S
C446 O420 1.269 1_565 S
C446 O421 1.257 . S
C447 H422 0.930 . S
C447 C450 1.388 . S
C447 C452 1.418 1_556 S
C448 H443 0.930 . S
C448 C451 1.404 . S
C448 C452 1.353 . S
N449 Co414 2.145 1_544 S
N449 C450 1.397 1_554 S
N449 C451 1.334 . S
C450 H431 0.929 . S
C450 C447 1.388 . S
C450 N449 1.397 1_556 S
C451 H432 0.921 1_655 S
C451 C448 1.404 . S
C451 N449 1.334 . S
C452 H444 0.930 . S
C452 C447 1.418 1_554 S
C452 C448 1.353 . S
C453 H423 0.930 . S
C453 N454 1.330 . S
C453 C455 1.446 . S
N454 Co413 2.151 1_455 S
N454 C453 1.330 . S
N454 C458 1.418 . S
C455 H434 0.929 . S
C455 C453 1.446 . S
C455 C456 1.332 . S
C456 H436 0.931 . S
C456 C455 1.332 . S
C456 C457 1.267 . S
C457 H425 0.929 . S
C457 C456 1.267 . S
C457 C458 1.251 . S
C458 H428 0.929 . S
C458 N454 1.418 . S
C458 C457 1.251 . S
C459 H426 0.930 . S
C459 C461 1.406 . S
C459 C464 1.261 . S
C460 H427 0.930 . S
C460 N462 1.325 . S
C460 C463 1.357 . S
C461 H429 0.928 . S
C461 C459 1.406 . S
C461 N462 1.261 . S
N462 Co413 2.214 . S
N462 C460 1.325 . S
N462 C461 1.261 . S
C463 H433 0.931 . S
C463 C460 1.357 . S
C463 C464 1.312 . S
C464 H435 0.930 . S
C464 C459 1.261 . S
C464 C463 1.312 . S
C465 O437 1.214 . S
C465 O445 1.234 . S
C466 H438 0.929 . S
C466 C469 1.391 . S
C466 C471 1.391 . S
C467 H439 0.929 . S
C467 C468 1.390 . S
C467 N470 1.391 . S
C468 H440 0.930 . S
C468 C467 1.390 . S
C468 C469 1.392 . S
C469 H441 0.929 . S
C469 C466 1.391 . S
C469 C468 1.392 . S
N470 Co414 2.257 1_554 S
N470 C467 1.391 . S
N470 C471 1.388 . S
C471 H442 0.930 1_655 S
C471 C466 1.391 . S
C471 N470 1.388 . S
Co472 O474 2.143 . S
Co472 O480 2.074 . S
Co472 O483 2.093 . S
Co472 O496 2.097 . S
Co472 N513 2.151 . S
Co472 N521 2.214 . S
Co473 O474 2.160 . S
Co473 O479 2.058 . S
Co473 O489 2.057 . S
Co473 O504 2.037 . S
Co473 N508 2.145 . S
Co473 N529 2.257 . S
O474 Co472 2.143 . S
O474 Co473 2.160 . S
C475 O476 1.278 . S
C475 O483 1.224 . S
O476 C475 1.278 . S
C477 O478 1.245 . S
C477 O489 1.232 . S
O478 C477 1.245 . S
O479 Co473 2.058 . S
O479 C505 1.269 . S
O480 Co472 2.074 . S
O480 C505 1.257 . S
H481 C506 0.930 . S
H482 C512 0.930 . S
O483 Co472 2.093 . S
O483 C475 1.224 . S
H484 C516 0.929 . S
H485 C518 0.930 . S
H486 C519 0.930 . S
H487 C517 0.929 . S
H488 C520 0.928 . S
O489 Co473 2.057 . S
O489 C477 1.232 . S
H490 C509 0.929 . S
H491 C510 0.929 . S
H492 C522 0.931 . S
H493 C514 0.929 . S
H494 C523 0.930 . S
H495 C515 0.931 . S
O496 Co472 2.097 . S
O496 C524 1.214 . S
H497 C525 0.929 . S
H498 C526 0.929 . S
H499 C527 0.930 . S
H500 C528 0.929 . S
H501 C530 0.930 . S
H502 C507 0.930 . S
H503 C511 0.930 . S
O504 Co473 2.037 . S
O504 C524 1.234 . S
C505 O479 1.269 . S
C505 O480 1.257 . S
C506 H481 0.930 . S
C506 C509 1.388 . S
C506 C511 1.418 . S
C507 H502 0.930 . S
C507 C510 1.404 . S
C507 C511 1.353 . S
N508 Co473 2.145 . S
N508 C509 1.397 . S
N508 C510 1.334 . S
C509 H490 0.929 . S
C509 C506 1.388 . S
C509 N508 1.397 . S
C510 H491 0.929 . S
C510 C507 1.404 . S
C510 N508 1.334 . S
C511 H503 0.930 . S
C511 C506 1.418 . S
C511 C507 1.353 . S
C512 H482 0.930 . S
C512 N513 1.330 . S
C512 C514 1.446 . S
N513 Co472 2.151 . S
N513 C512 1.330 . S
N513 C517 1.418 . S
C514 H493 0.929 . S
C514 C512 1.446 . S
C514 C515 1.332 . S
C515 H495 0.931 . S
C515 C514 1.332 . S
C515 C516 1.267 . S
C516 H484 0.929 . S
C516 C515 1.267 . S
C516 C517 1.251 . S
C517 H487 0.929 . S
C517 N513 1.418 . S
C517 C516 1.251 . S
C518 H485 0.930 . S
C518 C520 1.406 . S
C518 C523 1.261 . S
C519 H486 0.930 . S
C519 N521 1.325 . S
C519 C522 1.357 . S
C520 H488 0.928 . S
C520 C518 1.406 . S
C520 N521 1.261 . S
N521 Co472 2.214 . S
N521 C519 1.325 . S
N521 C520 1.261 . S
C522 H492 0.931 . S
C522 C519 1.357 . S
C522 C523 1.312 . S
C523 H494 0.930 . S
C523 C518 1.261 . S
C523 C522 1.312 . S
C524 O496 1.214 . S
C524 O504 1.234 . S
C525 H497 0.929 . S
C525 C528 1.391 . S
C525 C530 1.391 . S
C526 H498 0.929 . S
C526 C527 1.390 . S
C526 N529 1.391 . S
C527 H499 0.930 . S
C527 C526 1.390 . S
C527 C528 1.392 . S
C528 H500 0.929 . S
C528 C525 1.391 . S
C528 C527 1.392 . S
N529 Co473 2.257 . S
N529 C526 1.391 . S
N529 C530 1.388 . S
C530 H501 0.930 . S
C530 C525 1.391 . S
C530 N529 1.388 . S
Co531 O533 2.131 1_456 S
Co531 O539 2.074 . S
Co531 O542 2.093 . S
Co531 O555 2.097 . S
Co531 N572 2.151 1_455 S
Co531 N580 2.214 . S
Co532 O533 2.162 1_455 S
Co532 O538 2.058 1_454 S
Co532 O548 2.057 1_455 S
Co532 O563 2.037 1_554 S
Co532 N567 2.145 . S
Co532 N588 2.257 . S
O533 Co531 2.131 1_654 S
O533 Co532 2.162 1_655 S
C534 O535 1.279 . S
C534 O542 1.225 1_654 S
O535 C534 1.279 . S
C536 O537 1.245 . S
C536 O548 1.232 . S
O537 C536 1.245 . S
O538 Co532 2.058 1_656 S
O538 C564 1.269 . S
O539 Co531 2.074 . S
O539 C564 1.257 1_455 S
H540 C565 0.930 1_556 S
H541 C571 0.930 . S
O542 Co531 2.093 . S
O542 C534 1.225 1_456 S
H543 C575 0.929 . S
H544 C577 0.930 . S
H545 C578 0.930 . S
H546 C576 0.929 . S
H547 C579 0.928 . S
O548 Co532 2.057 1_655 S
O548 C536 1.232 . S
H549 C568 0.929 1_556 S
H550 C569 0.929 1_655 S
H551 C581 0.931 . S
H552 C573 0.929 . S
H553 C582 0.930 . S
H554 C574 0.931 . S
O555 Co531 2.097 . S
O555 C583 1.214 . S
H556 C584 0.929 . S
H557 C585 0.929 . S
H558 C586 0.930 . S
H559 C587 0.929 . S
H560 C589 0.930 1_655 S
H561 C566 0.930 . S
H562 C570 0.930 . S
O563 Co532 2.037 1_556 S
O563 C583 1.234 . S
C564 O538 1.269 . S
C564 O539 1.257 1_655 S
C565 H540 0.930 1_554 S
C565 C568 1.388 . S
C565 C570 1.418 . S
C566 H561 0.930 . S
C566 C569 1.404 . S
C566 C570 1.353 . S
N567 Co532 2.145 . S
N567 C568 1.397 . S
N567 C569 1.334 . S
C568 H549 0.929 1_554 S
C568 C565 1.388 . S
C568 N567 1.397 . S
C569 H550 0.929 1_455 S
C569 C566 1.404 . S
C569 N567 1.334 . S
C570 H562 0.930 . S
C570 C565 1.418 . S
C570 C566 1.353 . S
C571 H541 0.930 . S
C571 N572 1.330 . S
C571 C573 1.446 . S
N572 Co531 2.151 1_655 S
N572 C571 1.330 . S
N572 C576 1.418 . S
C573 H552 0.929 . S
C573 C571 1.446 . S
C573 C574 1.332 . S
C574 H554 0.931 . S
C574 C573 1.332 . S
C574 C575 1.267 . S
C575 H543 0.929 . S
C575 C574 1.267 . S
C575 C576 1.251 . S
C576 H546 0.929 . S
C576 N572 1.418 . S
C576 C575 1.251 . S
C577 H544 0.930 . S
C577 C579 1.406 . S
C577 C582 1.261 . S
C578 H545 0.930 . S
C578 N580 1.325 . S
C578 C581 1.357 . S
C579 H547 0.928 . S
C579 C577 1.406 . S
C579 N580 1.261 . S
N580 Co531 2.214 . S
N580 C578 1.325 . S
N580 C579 1.261 . S
C581 H551 0.931 . S
C581 C578 1.357 . S
C581 C582 1.312 . S
C582 H553 0.930 . S
C582 C577 1.261 . S
C582 C581 1.312 . S
C583 O555 1.214 . S
C583 O563 1.234 . S
C584 H556 0.929 . S
C584 C587 1.391 . S
C584 C589 1.391 . S
C585 H557 0.929 . S
C585 C586 1.390 . S
C585 N588 1.391 . S
C586 H558 0.930 . S
C586 C585 1.390 . S
C586 C587 1.392 . S
C587 H559 0.929 . S
C587 C584 1.391 . S
C587 C586 1.392 . S
N588 Co532 2.257 . S
N588 C585 1.391 . S
N588 C589 1.388 . S
C589 H560 0.930 1_455 S
C589 C584 1.391 . S
C589 N588 1.388 . S
Co590 O592 2.143 . S
Co590 O598 2.074 . S
Co590 O601 2.093 . S
Co590 O614 2.097 . S
Co590 N631 2.151 . S
Co590 N639 2.214 . S
Co591 O592 2.160 . S
Co591 O597 2.058 . S
Co591 O607 2.057 . S
Co591 O622 2.037 . S
Co591 N626 2.145 . S
Co591 N647 2.257 . S
O592 Co590 2.143 . S
O592 Co591 2.160 . S
C593 O594 1.278 . S
C593 O601 1.224 . S
O594 C593 1.278 . S
C595 O596 1.245 . S
C595 O607 1.232 . S
O596 C595 1.245 . S
O597 Co591 2.058 . S
O597 C623 1.269 . S
O598 Co590 2.074 . S
O598 C623 1.257 . S
H599 C624 0.930 . S
H600 C630 0.930 . S
O601 Co590 2.093 . S
O601 C593 1.224 . S
H602 C634 0.929 . S
H603 C636 0.930 . S
H604 C637 0.930 . S
H605 C635 0.929 . S
H606 C638 0.928 . S
O607 Co591 2.057 . S
O607 C595 1.232 . S
H608 C627 0.929 . S
H609 C628 0.929 . S
H610 C640 0.931 . S
H611 C632 0.929 . S
H612 C641 0.930 . S
H613 C633 0.931 . S
O614 Co590 2.097 . S
O614 C642 1.214 . S
H615 C643 0.929 . S
H616 C644 0.929 . S
H617 C645 0.930 . S
H618 C646 0.929 . S
H619 C648 0.930 . S
H620 C625 0.930 . S
H621 C629 0.930 . S
O622 Co591 2.037 . S
O622 C642 1.234 . S
C623 O597 1.269 . S
C623 O598 1.257 . S
C624 H599 0.930 . S
C624 C627 1.388 . S
C624 C629 1.418 . S
C625 H620 0.930 . S
C625 C628 1.404 . S
C625 C629 1.353 . S
N626 Co591 2.145 . S
N626 C627 1.397 . S
N626 C628 1.334 . S
C627 H608 0.929 . S
C627 C624 1.388 . S
C627 N626 1.397 . S
C628 H609 0.929 . S
C628 C625 1.404 . S
C628 N626 1.334 . S
C629 H621 0.930 . S
C629 C624 1.418 . S
C629 C625 1.353 . S
C630 H600 0.930 . S
C630 N631 1.330 . S
C630 C632 1.446 . S
N631 Co590 2.151 . S
N631 C630 1.330 . S
N631 C635 1.418 . S
C632 H611 0.929 . S
C632 C630 1.446 . S
C632 C633 1.332 . S
C633 H613 0.931 . S
C633 C632 1.332 . S
C633 C634 1.267 . S
C634 H602 0.929 . S
C634 C633 1.267 . S
C634 C635 1.251 . S
C635 H605 0.929 . S
C635 N631 1.418 . S
C635 C634 1.251 . S
C636 H603 0.930 . S
C636 C638 1.406 . S
C636 C641 1.261 . S
C637 H604 0.930 . S
C637 N639 1.325 . S
C637 C640 1.357 . S
C638 H606 0.928 . S
C638 C636 1.406 . S
C638 N639 1.261 . S
N639 Co590 2.214 . S
N639 C637 1.325 . S
N639 C638 1.261 . S
C640 H610 0.931 . S
C640 C637 1.357 . S
C640 C641 1.312 . S
C641 H612 0.930 . S
C641 C636 1.261 . S
C641 C640 1.312 . S
C642 O614 1.214 . S
C642 O622 1.234 . S
C643 H615 0.929 . S
C643 C646 1.391 . S
C643 C648 1.391 . S
C644 H616 0.929 . S
C644 C645 1.390 . S
C644 N647 1.391 . S
C645 H617 0.930 . S
C645 C644 1.390 . S
C645 C646 1.392 . S
C646 H618 0.929 . S
C646 C643 1.391 . S
C646 C645 1.392 . S
N647 Co591 2.257 . S
N647 C644 1.391 . S
N647 C648 1.388 . S
C648 H619 0.930 . S
C648 C643 1.391 . S
C648 N647 1.388 . S
Co649 O651 2.143 . S
Co649 O657 2.074 . S
Co649 O660 2.093 . S
Co649 O673 2.097 . S
Co649 N690 2.151 . S
Co649 N698 2.214 . S
Co650 O651 2.160 . S
Co650 O656 2.058 . S
Co650 O666 2.057 1_455 S
Co650 O681 2.037 . S
Co650 N685 2.145 1_455 S
Co650 N706 2.257 1_455 S
O651 Co649 2.143 . S
O651 Co650 2.160 . S
C652 O653 1.278 1_455 S
C652 O660 1.224 . S
O653 C652 1.278 1_655 S
C654 O655 1.245 . S
C654 O666 1.232 1_455 S
O655 C654 1.245 . S
O656 Co650 2.058 . S
O656 C682 1.269 . S
O657 Co649 2.074 . S
O657 C682 1.257 . S
H658 C683 0.930 . S
H659 C689 0.930 . S
O660 Co649 2.093 . S
O660 C652 1.224 . S
H661 C693 0.929 . S
H662 C695 0.930 . S
H663 C696 0.930 . S
H664 C694 0.929 . S
H665 C697 0.928 . S
O666 Co650 2.057 1_655 S
O666 C654 1.232 1_655 S
H667 C686 0.929 . S
H668 C687 0.929 . S
H669 C699 0.931 . S
H670 C691 0.929 . S
H671 C700 0.930 . S
H672 C692 0.931 . S
O673 Co649 2.097 . S
O673 C701 1.214 . S
H674 C702 0.929 . S
H675 C703 0.929 . S
H676 C704 0.930 . S
H677 C705 0.929 . S
H678 C707 0.930 . S
H679 C684 0.930 . S
H680 C688 0.930 . S
O681 Co650 2.037 . S
O681 C701 1.234 . S
C682 O656 1.269 . S
C682 O657 1.257 . S
C683 H658 0.930 . S
C683 C686 1.388 . S
C683 C688 1.418 1_455 S
C684 H679 0.930 . S
C684 C687 1.404 . S
C684 C688 1.353 . S
N685 Co650 2.145 1_655 S
N685 C686 1.397 1_655 S
N685 C687 1.334 . S
C686 H667 0.929 . S
C686 C683 1.388 . S
C686 N685 1.397 1_455 S
C687 H668 0.929 . S
C687 C684 1.404 . S
C687 N685 1.334 . S
C688 H680 0.930 . S
C688 C683 1.418 1_655 S
C688 C684 1.353 . S
C689 H659 0.930 . S
C689 N690 1.330 . S
C689 C691 1.446 . S
N690 Co649 2.151 . S
N690 C689 1.330 . S
N690 C694 1.418 . S
C691 H670 0.929 . S
C691 C689 1.446 . S
C691 C692 1.332 . S
C692 H672 0.931 . S
C692 C691 1.332 . S
C692 C693 1.267 . S
C693 H661 0.929 . S
C693 C692 1.267 . S
C693 C694 1.251 . S
C694 H664 0.929 . S
C694 N690 1.418 . S
C694 C693 1.251 . S
C695 H662 0.930 . S
C695 C697 1.406 . S
C695 C700 1.261 . S
C696 H663 0.930 . S
C696 N698 1.325 . S
C696 C699 1.357 . S
C697 H665 0.928 . S
C697 C695 1.406 . S
C697 N698 1.261 . S
N698 Co649 2.214 . S
N698 C696 1.325 . S
N698 C697 1.261 . S
C699 H669 0.931 . S
C699 C696 1.357 . S
C699 C700 1.312 . S
C700 H671 0.930 . S
C700 C695 1.261 . S
C700 C699 1.312 . S
C701 O673 1.214 . S
C701 O681 1.234 . S
C702 H674 0.929 . S
C702 C705 1.391 . S
C702 C707 1.391 . S
C703 H675 0.929 . S
C703 C704 1.390 . S
C703 N706 1.391 . S
C704 H676 0.930 . S
C704 C703 1.390 . S
C704 C705 1.392 . S
C705 H677 0.929 . S
C705 C702 1.391 . S
C705 C704 1.392 . S
N706 Co650 2.257 1_655 S
N706 C703 1.391 . S
N706 C707 1.388 . S
C707 H678 0.930 . S
C707 C702 1.391 . S
C707 N706 1.388 . S
Co708 O710 2.143 . S
Co708 O716 2.074 . S
Co708 O719 2.093 . S
Co708 O732 2.097 . S
Co708 N749 2.151 . S
Co708 N757 2.214 . S
Co709 O710 2.160 1_556 S
Co709 O715 2.061 1_556 S
Co709 O725 2.056 . S
Co709 O740 2.037 1_556 S
Co709 N744 2.144 . S
Co709 N765 2.254 . S
O710 Co708 2.143 . S
O710 Co709 2.160 1_554 S
C711 O712 1.278 . S
C711 O719 1.224 1_556 S
O712 C711 1.278 . S
C713 O714 1.255 . S
C713 O725 1.232 . S
O714 C713 1.255 . S
O715 Co709 2.061 1_554 S
O715 C741 1.269 . S
O716 Co708 2.074 . S
O716 C741 1.257 . S
H717 C742 0.930 1_554 S
H718 C748 0.930 . S
O719 Co708 2.093 . S
O719 C711 1.224 1_554 S
H720 C752 0.929 . S
H721 C754 0.930 . S
H722 C755 0.930 . S
H723 C753 0.929 . S
H724 C756 0.928 . S
O725 Co709 2.056 . S
O725 C713 1.232 . S
H726 C745 0.929 . S
H727 C746 0.929 . S
H728 C758 0.931 . S
H729 C750 0.929 . S
H730 C759 0.930 . S
H731 C751 0.931 . S
O732 Co708 2.097 . S
O732 C760 1.214 . S
H733 C761 0.929 . S
H734 C762 0.929 . S
H735 C763 0.930 . S
H736 C764 0.929 . S
H737 C766 0.930 . S
H738 C743 0.930 . S
H739 C747 0.930 . S
O740 Co709 2.037 1_554 S
O740 C760 1.234 . S
C741 O715 1.269 . S
C741 O716 1.257 . S
C742 H717 0.930 1_556 S
C742 C745 1.388 1_556 S
C742 C747 1.418 . S
C743 H738 0.930 . S
C743 C746 1.404 . S
C743 C747 1.353 . S
N744 Co709 2.144 . S
N744 C745 1.397 1_556 S
N744 C746 1.334 . S
C745 H726 0.929 . S
C745 C742 1.388 1_554 S
C745 N744 1.397 1_554 S
C746 H727 0.929 . S
C746 C743 1.404 . S
C746 N744 1.334 . S
C747 H739 0.930 . S
C747 C742 1.418 . S
C747 C743 1.353 . S
C748 H718 0.930 . S
C748 N749 1.330 . S
C748 C750 1.446 . S
N749 Co708 2.151 . S
N749 C748 1.330 . S
N749 C753 1.418 . S
C750 H729 0.929 . S
C750 C748 1.446 . S
C750 C751 1.332 . S
C751 H731 0.931 . S
C751 C750 1.332 . S
C751 C752 1.267 . S
C752 H720 0.929 . S
C752 C751 1.267 . S
C752 C753 1.251 . S
C753 H723 0.929 . S
C753 N749 1.418 . S
C753 C752 1.251 . S
C754 H721 0.930 . S
C754 C756 1.406 . S
C754 C759 1.261 . S
C755 H722 0.930 . S
C755 N757 1.325 . S
C755 C758 1.357 . S
C756 H724 0.928 . S
C756 C754 1.406 . S
C756 N757 1.261 . S
N757 Co708 2.214 . S
N757 C755 1.325 . S
N757 C756 1.261 . S
C758 H728 0.931 . S
C758 C755 1.357 . S
C758 C759 1.312 . S
C759 H730 0.930 . S
C759 C754 1.261 . S
C759 C758 1.312 . S
C760 O732 1.214 . S
C760 O740 1.234 . S
C761 H733 0.929 . S
C761 C764 1.391 . S
C761 C766 1.391 . S
C762 H734 0.929 . S
C762 C763 1.390 . S
C762 N765 1.391 . S
C763 H735 0.930 . S
C763 C762 1.390 . S
C763 C764 1.392 . S
C764 H736 0.929 . S
C764 C761 1.391 . S
C764 C763 1.392 . S
N765 Co709 2.254 . S
N765 C762 1.391 . S
N765 C766 1.388 . S
C766 H737 0.930 . S
C766 C761 1.391 . S
C766 N765 1.388 . S
Co767 O769 2.143 . S
Co767 O775 2.074 . S
Co767 O778 2.093 . S
Co767 O791 2.097 . S
Co767 N808 2.151 . S
Co767 N816 2.214 . S
Co768 O769 2.160 . S
Co768 O774 2.058 . S
Co768 O784 2.057 . S
Co768 O799 2.037 . S
Co768 N803 2.145 . S
Co768 N824 2.257 . S
O769 Co767 2.143 . S
O769 Co768 2.160 . S
C770 O771 1.278 . S
C770 O778 1.224 . S
O771 C770 1.278 . S
C772 O773 1.245 . S
C772 O784 1.232 . S
O773 C772 1.245 . S
O774 Co768 2.058 . S
O774 C800 1.269 . S
O775 Co767 2.074 . S
O775 C800 1.257 . S
H776 C801 0.930 . S
H777 C807 0.930 . S
O778 Co767 2.093 . S
O778 C770 1.224 . S
H779 C811 0.929 . S
H780 C813 0.930 . S
H781 C814 0.930 . S
H782 C812 0.929 . S
H783 C815 0.928 . S
O784 Co768 2.057 . S
O784 C772 1.232 . S
H785 C804 0.929 . S
H786 C805 0.929 . S
H787 C817 0.931 . S
H788 C809 0.929 . S
H789 C818 0.930 . S
H790 C810 0.931 . S
O791 Co767 2.097 . S
O791 C819 1.214 . S
H792 C820 0.929 . S
H793 C821 0.929 . S
H794 C822 0.930 . S
H795 C823 0.929 . S
H796 C825 0.930 . S
H797 C802 0.930 . S
H798 C806 0.930 . S
O799 Co768 2.037 . S
O799 C819 1.234 . S
C800 O774 1.269 . S
C800 O775 1.257 . S
C801 H776 0.930 . S
C801 C804 1.388 . S
C801 C806 1.418 . S
C802 H797 0.930 . S
C802 C805 1.404 . S
C802 C806 1.353 . S
N803 Co768 2.145 . S
N803 C804 1.397 . S
N803 C805 1.334 . S
C804 H785 0.929 . S
C804 C801 1.388 . S
C804 N803 1.397 . S
C805 H786 0.929 . S
C805 C802 1.404 . S
C805 N803 1.334 . S
C806 H798 0.930 . S
C806 C801 1.418 . S
C806 C802 1.353 . S
C807 H777 0.930 . S
C807 N808 1.330 . S
C807 C809 1.446 . S
N808 Co767 2.151 . S
N808 C807 1.330 . S
N808 C812 1.418 . S
C809 H788 0.929 . S
C809 C807 1.446 . S
C809 C810 1.332 . S
C810 H790 0.931 . S
C810 C809 1.332 . S
C810 C811 1.267 . S
C811 H779 0.929 . S
C811 C810 1.267 . S
C811 C812 1.251 . S
C812 H782 0.929 . S
C812 N808 1.418 . S
C812 C811 1.251 . S
C813 H780 0.930 . S
C813 C815 1.406 . S
C813 C818 1.261 . S
C814 H781 0.930 . S
C814 N816 1.325 . S
C814 C817 1.357 . S
C815 H783 0.928 . S
C815 C813 1.406 . S
C815 N816 1.261 . S
N816 Co767 2.214 . S
N816 C814 1.325 . S
N816 C815 1.261 . S
C817 H787 0.931 . S
C817 C814 1.357 . S
C817 C818 1.312 . S
C818 H789 0.930 . S
C818 C813 1.261 . S
C818 C817 1.312 . S
C819 O791 1.214 . S
C819 O799 1.234 . S
C820 H792 0.929 . S
C820 C823 1.391 . S
C820 C825 1.391 . S
C821 H793 0.929 . S
C821 C822 1.390 . S
C821 N824 1.391 . S
C822 H794 0.930 . S
C822 C821 1.390 . S
C822 C823 1.392 . S
C823 H795 0.929 . S
C823 C820 1.391 . S
C823 C822 1.392 . S
N824 Co768 2.257 . S
N824 C821 1.391 . S
N824 C825 1.388 . S
C825 H796 0.930 . S
C825 C820 1.391 . S
C825 N824 1.388 . S
Co826 O828 2.143 . S
Co826 O834 2.074 . S
Co826 O837 2.093 . S
Co826 O850 2.097 . S
Co826 N867 2.151 . S
Co826 N875 2.214 . S
Co827 O828 2.160 . S
Co827 O833 2.058 . S
Co827 O843 2.057 . S
Co827 O858 2.037 . S
Co827 N862 2.145 . S
Co827 N883 2.257 . S
O828 Co826 2.143 . S
O828 Co827 2.160 . S
C829 O830 1.278 . S
C829 O837 1.224 . S
O830 C829 1.278 . S
C831 O832 1.245 . S
C831 O843 1.232 . S
O832 C831 1.245 . S
O833 Co827 2.058 . S
O833 C859 1.269 . S
O834 Co826 2.074 . S
O834 C859 1.257 . S
H835 C860 0.930 . S
H836 C866 0.930 . S
O837 Co826 2.093 . S
O837 C829 1.224 . S
H838 C870 0.929 . S
H839 C872 0.930 . S
H840 C873 0.930 . S
H841 C871 0.929 . S
H842 C874 0.928 . S
O843 Co827 2.057 . S
O843 C831 1.232 . S
H844 C863 0.929 . S
H845 C864 0.929 . S
H846 C876 0.931 . S
H847 C868 0.929 . S
H848 C877 0.930 . S
H849 C869 0.931 . S
O850 Co826 2.097 . S
O850 C878 1.214 . S
H851 C879 0.929 . S
H852 C880 0.929 . S
H853 C881 0.930 . S
H854 C882 0.929 . S
H855 C884 0.930 . S
H856 C861 0.930 . S
H857 C865 0.930 . S
O858 Co827 2.037 . S
O858 C878 1.234 . S
C859 O833 1.269 . S
C859 O834 1.257 . S
C860 H835 0.930 . S
C860 C863 1.388 . S
C860 C865 1.418 . S
C861 H856 0.930 . S
C861 C864 1.404 . S
C861 C865 1.353 . S
N862 Co827 2.145 . S
N862 C863 1.397 . S
N862 C864 1.334 . S
C863 H844 0.929 . S
C863 C860 1.388 . S
C863 N862 1.397 . S
C864 H845 0.929 . S
C864 C861 1.404 . S
C864 N862 1.334 . S
C865 H857 0.930 . S
C865 C860 1.418 . S
C865 C861 1.353 . S
C866 H836 0.930 . S
C866 N867 1.330 . S
C866 C868 1.446 . S
N867 Co826 2.151 . S
N867 C866 1.330 . S
N867 C871 1.418 . S
C868 H847 0.929 . S
C868 C866 1.446 . S
C868 C869 1.332 . S
C869 H849 0.931 . S
C869 C868 1.332 . S
C869 C870 1.267 . S
C870 H838 0.929 . S
C870 C869 1.267 . S
C870 C871 1.251 . S
C871 H841 0.929 . S
C871 N867 1.418 . S
C871 C870 1.251 . S
C872 H839 0.930 . S
C872 C874 1.406 . S
C872 C877 1.261 . S
C873 H840 0.930 . S
C873 N875 1.325 . S
C873 C876 1.357 . S
C874 H842 0.928 . S
C874 C872 1.406 . S
C874 N875 1.261 . S
N875 Co826 2.214 . S
N875 C873 1.325 . S
N875 C874 1.261 . S
C876 H846 0.931 . S
C876 C873 1.357 . S
C876 C877 1.312 . S
C877 H848 0.930 . S
C877 C872 1.261 . S
C877 C876 1.312 . S
C878 O850 1.214 . S
C878 O858 1.234 . S
C879 H851 0.929 . S
C879 C882 1.391 . S
C879 C884 1.391 . S
C880 H852 0.929 . S
C880 C881 1.390 . S
C880 N883 1.391 . S
C881 H853 0.930 . S
C881 C880 1.390 . S
C881 C882 1.392 . S
C882 H854 0.929 . S
C882 C879 1.391 . S
C882 C881 1.392 . S
N883 Co827 2.257 . S
N883 C880 1.391 . S
N883 C884 1.388 . S
C884 H855 0.930 . S
C884 C879 1.391 . S
C884 N883 1.388 . S
Co885 O887 2.143 . S
Co885 O893 2.074 . S
Co885 O896 2.093 . S
Co885 O909 2.097 . S
Co885 N926 2.151 . S
Co885 N934 2.214 . S
Co886 O887 2.160 . S
Co886 O892 2.058 . S
Co886 O902 2.057 . S
Co886 O917 2.037 . S
Co886 N921 2.145 . S
Co886 N942 2.257 . S
O887 Co885 2.143 . S
O887 Co886 2.160 . S
C888 O889 1.278 . S
C888 O896 1.224 . S
O889 C888 1.278 . S
C890 O891 1.245 . S
C890 O902 1.232 . S
O891 C890 1.245 . S
O892 Co886 2.058 . S
O892 C918 1.269 . S
O893 Co885 2.074 . S
O893 C918 1.257 . S
H894 C919 0.930 . S
H895 C925 0.930 . S
O896 Co885 2.093 . S
O896 C888 1.224 . S
H897 C929 0.929 . S
H898 C931 0.930 . S
H899 C932 0.930 . S
H900 C930 0.929 . S
H901 C933 0.928 . S
O902 Co886 2.057 . S
O902 C890 1.232 . S
H903 C922 0.929 . S
H904 C923 0.929 . S
H905 C935 0.931 . S
H906 C927 0.929 . S
H907 C936 0.930 . S
H908 C928 0.931 . S
O909 Co885 2.097 . S
O909 C937 1.214 . S
H910 C938 0.929 . S
H911 C939 0.929 . S
H912 C940 0.930 . S
H913 C941 0.929 . S
H914 C943 0.930 . S
H915 C920 0.930 . S
H916 C924 0.930 . S
O917 Co886 2.037 . S
O917 C937 1.234 . S
C918 O892 1.269 . S
C918 O893 1.257 . S
C919 H894 0.930 . S
C919 C922 1.388 . S
C919 C924 1.418 . S
C920 H915 0.930 . S
C920 C923 1.404 . S
C920 C924 1.353 . S
N921 Co886 2.145 . S
N921 C922 1.397 . S
N921 C923 1.334 . S
C922 H903 0.929 . S
C922 C919 1.388 . S
C922 N921 1.397 . S
C923 H904 0.929 . S
C923 C920 1.404 . S
C923 N921 1.334 . S
C924 H916 0.930 . S
C924 C919 1.418 . S
C924 C920 1.353 . S
C925 H895 0.930 . S
C925 N926 1.330 . S
C925 C927 1.446 . S
N926 Co885 2.151 . S
N926 C925 1.330 . S
N926 C930 1.418 . S
C927 H906 0.929 . S
C927 C925 1.446 . S
C927 C928 1.332 . S
C928 H908 0.931 . S
C928 C927 1.332 . S
C928 C929 1.267 . S
C929 H897 0.929 . S
C929 C928 1.267 . S
C929 C930 1.251 . S
C930 H900 0.929 . S
C930 N926 1.418 . S
C930 C929 1.251 . S
C931 H898 0.930 . S
C931 C933 1.406 . S
C931 C936 1.261 . S
C932 H899 0.930 . S
C932 N934 1.325 . S
C932 C935 1.357 . S
C933 H901 0.928 . S
C933 C931 1.406 . S
C933 N934 1.261 . S
N934 Co885 2.214 . S
N934 C932 1.325 . S
N934 C933 1.261 . S
C935 H905 0.931 . S
C935 C932 1.357 . S
C935 C936 1.312 . S
C936 H907 0.930 . S
C936 C931 1.261 . S
C936 C935 1.312 . S
C937 O909 1.214 . S
C937 O917 1.234 . S
C938 H910 0.929 . S
C938 C941 1.391 . S
C938 C943 1.391 . S
C939 H911 0.929 . S
C939 C940 1.390 . S
C939 N942 1.391 . S
C940 H912 0.930 . S
C940 C939 1.390 . S
C940 C941 1.392 . S
C941 H913 0.929 . S
C941 C938 1.391 . S
C941 C940 1.392 . S
N942 Co886 2.257 . S
N942 C939 1.391 . S
N942 C943 1.388 . S
C943 H914 0.930 . S
C943 C938 1.391 . S
C943 N942 1.388 . S
H944 C952 0.929 . S
H945 C954 0.930 . S
H946 C956 0.930 . S
H947 C959 0.929 . S
H948 C962 0.930 . S
H949 C964 0.960 . S
H950 C964 0.960 . S
H951 C964 0.960 . S
C952 H944 0.929 . S
C952 C953 1.377 . S
C952 C954 1.384 . S
C953 C952 1.377 . S
C953 C959 1.390 . S
C954 H945 0.930 . S
C954 C952 1.384 . S
C954 C955 1.372 . S
C955 C954 1.372 . S
C955 C956 1.400 . S
C955 C960 1.490 . S
C956 H946 0.930 . S
C956 C955 1.400 . S
C956 C959 1.386 . S
H957 C973 0.930 . S
H958 C974 0.931 . S
C959 H947 0.929 . S
C959 C953 1.390 . S
C959 C956 1.386 . S
C960 C955 1.490 . S
C960 C962 1.395 . S
C960 C963 1.403 . S
H961 C967 0.930 . S
C962 H948 0.930 . S
C962 C960 1.395 . S
C962 C965 1.403 . S
C963 C960 1.403 . S
C963 C964 1.524 . S
C963 C967 1.400 . S
C964 H949 0.960 . S
C964 H950 0.960 . S
C964 H951 0.960 . S
C964 C963 1.524 . S
C965 C962 1.403 . S
C965 C966 1.392 . S
C965 C969 1.495 . S
C966 C965 1.392 . S
C966 C967 1.385 . S
C966 C968 1.478 . S
C967 H961 0.930 . S
C967 C963 1.400 . S
C967 C966 1.385 . S
C968 C966 1.478 . S
C968 C970 1.381 . S
C968 C974 1.383 . S
C969 C965 1.495 . S
C969 H975 0.959 . S
C969 H976 0.961 . S
C969 H977 0.960 . S
C970 C968 1.381 . S
C970 C971 1.394 . S
C970 H978 0.930 . S
C971 C970 1.394 . S
C971 C972 1.383 . S
C971 H979 0.929 . S
C972 C971 1.383 . S
C972 C973 1.377 . S
C973 H957 0.930 . S
C973 C972 1.377 . S
C973 C974 1.379 . S
C974 H958 0.931 . S
C974 C968 1.383 . S
C974 C973 1.379 . S
H975 C969 0.959 . S
H976 C969 0.961 . S
H977 C969 0.960 . S
H978 C970 0.930 . S
H979 C971 0.929 . S
H980 C988 0.929 . S
H981 C990 0.930 . S
H982 C992 0.930 . S
H983 C995 0.929 . S
H984 C998 0.930 . S
H985 C1000 0.960 . S
H986 C1000 0.960 . S
H987 C1000 0.960 . S
C988 H980 0.929 . S
C988 C989 1.377 . S
C988 C990 1.384 . S
C989 C988 1.377 . S
C989 C995 1.390 . S
C990 H981 0.930 . S
C990 C988 1.384 . S
C990 C991 1.372 . S
C991 C990 1.372 . S
C991 C992 1.400 . S
C991 C996 1.490 . S
C992 H982 0.930 . S
C992 C991 1.400 . S
C992 C995 1.386 . S
H993 C1009 0.930 . S
H994 C1010 0.931 . S
C995 H983 0.929 . S
C995 C989 1.390 . S
C995 C992 1.386 . S
C996 C991 1.490 . S
C996 C998 1.395 . S
C996 C999 1.403 . S
H997 C1003 0.930 . S
C998 H984 0.930 . S
C998 C996 1.395 . S
C998 C1001 1.403 . S
C999 C996 1.403 . S
C999 C1000 1.524 . S
C999 C1003 1.400 . S
C1000 H985 0.960 . S
C1000 H986 0.960 . S
C1000 H987 0.960 . S
C1000 C999 1.524 . S
C1001 C998 1.403 . S
C1001 C1002 1.392 . S
C1001 C1005 1.495 . S
C1002 C1001 1.392 . S
C1002 C1003 1.385 . S
C1002 C1004 1.478 . S
C1003 H997 0.930 . S
C1003 C999 1.400 . S
C1003 C1002 1.385 . S
C1004 C1002 1.478 . S
C1004 C1006 1.381 . S
C1004 C1010 1.383 . S
C1005 C1001 1.495 . S
C1005 H1011 0.959 . S
C1005 H1012 0.961 . S
C1005 H1013 0.960 . S
C1006 C1004 1.381 . S
C1006 C1007 1.394 . S
C1006 H1014 0.930 . S
C1007 C1006 1.394 . S
C1007 C1008 1.383 . S
C1007 H1015 0.929 . S
C1008 C1007 1.383 . S
C1008 C1009 1.377 . S
C1009 H993 0.930 . S
C1009 C1008 1.377 . S
C1009 C1010 1.379 . S
C1010 H994 0.931 . S
C1010 C1004 1.383 . S
C1010 C1009 1.379 . S
H1011 C1005 0.959 . S
H1012 C1005 0.961 . S
H1013 C1005 0.960 . S
H1014 C1006 0.930 . S
H1015 C1007 0.929 . S
H1016 C1024 0.929 . S
H1017 C1026 0.930 . S
H1018 C1028 0.930 . S
H1019 C1031 0.929 . S
H1020 C1034 0.930 . S
H1021 C1036 0.960 . S
H1022 C1036 0.960 . S
H1023 C1036 0.960 . S
C1024 H1016 0.929 . S
C1024 C1025 1.377 . S
C1024 C1026 1.384 . S
C1025 C1024 1.377 . S
C1025 C1031 1.390 . S
C1026 H1017 0.930 . S
C1026 C1024 1.384 . S
C1026 C1027 1.372 . S
C1027 C1026 1.372 . S
C1027 C1028 1.400 . S
C1027 C1032 1.490 . S
C1028 H1018 0.930 . S
C1028 C1027 1.400 . S
C1028 C1031 1.386 . S
H1029 C1045 0.930 . S
H1030 C1046 0.931 . S
C1031 H1019 0.929 . S
C1031 C1025 1.390 . S
C1031 C1028 1.386 . S
C1032 C1027 1.490 . S
C1032 C1034 1.395 . S
C1032 C1035 1.403 . S
H1033 C1039 0.930 . S
C1034 H1020 0.930 . S
C1034 C1032 1.395 . S
C1034 C1037 1.403 . S
C1035 C1032 1.403 . S
C1035 C1036 1.524 . S
C1035 C1039 1.400 . S
C1036 H1021 0.960 . S
C1036 H1022 0.960 . S
C1036 H1023 0.960 . S
C1036 C1035 1.524 . S
C1037 C1034 1.403 . S
C1037 C1038 1.392 . S
C1037 C1041 1.495 . S
C1038 C1037 1.392 . S
C1038 C1039 1.385 . S
C1038 C1040 1.478 . S
C1039 H1033 0.930 . S
C1039 C1035 1.400 . S
C1039 C1038 1.385 . S
C1040 C1038 1.478 . S
C1040 C1042 1.381 . S
C1040 C1046 1.383 . S
C1041 C1037 1.495 . S
C1041 H1047 0.959 . S
C1041 H1048 0.961 . S
C1041 H1049 0.960 . S
C1042 C1040 1.381 . S
C1042 C1043 1.394 . S
C1042 H1050 0.930 . S
C1043 C1042 1.394 . S
C1043 C1044 1.383 . S
C1043 H1051 0.929 . S
C1044 C1043 1.383 . S
C1044 C1045 1.377 . S
C1045 H1029 0.930 . S
C1045 C1044 1.377 . S
C1045 C1046 1.379 . S
C1046 H1030 0.931 . S
C1046 C1040 1.383 . S
C1046 C1045 1.379 . S
H1047 C1041 0.959 . S
H1048 C1041 0.961 . S
H1049 C1041 0.960 . S
H1050 C1042 0.930 . S
H1051 C1043 0.929 . S
H1052 C1060 0.929 . S
H1053 C1062 0.930 . S
H1054 C1064 0.930 . S
H1055 C1067 0.929 . S
H1056 C1070 0.930 . S
H1057 C1072 0.960 . S
H1058 C1072 0.960 . S
H1059 C1072 0.960 . S
C1060 H1052 0.929 . S
C1060 C1061 1.377 . S
C1060 C1062 1.384 . S
C1061 C1060 1.377 . S
C1061 C1067 1.390 . S
C1062 H1053 0.930 . S
C1062 C1060 1.384 . S
C1062 C1063 1.372 . S
C1063 C1062 1.372 . S
C1063 C1064 1.400 . S
C1063 C1068 1.490 . S
C1064 H1054 0.930 . S
C1064 C1063 1.400 . S
C1064 C1067 1.386 . S
H1065 C1081 0.930 . S
H1066 C1082 0.931 . S
C1067 H1055 0.929 . S
C1067 C1061 1.390 . S
C1067 C1064 1.386 . S
C1068 C1063 1.490 . S
C1068 C1070 1.395 . S
C1068 C1071 1.403 . S
H1069 C1075 0.930 . S
C1070 H1056 0.930 . S
C1070 C1068 1.395 . S
C1070 C1073 1.403 . S
C1071 C1068 1.403 . S
C1071 C1072 1.524 . S
C1071 C1075 1.400 . S
C1072 H1057 0.960 . S
C1072 H1058 0.960 . S
C1072 H1059 0.960 . S
C1072 C1071 1.524 . S
C1073 C1070 1.403 . S
C1073 C1074 1.392 . S
C1073 C1077 1.495 . S
C1074 C1073 1.392 . S
C1074 C1075 1.385 . S
C1074 C1076 1.478 . S
C1075 H1069 0.930 . S
C1075 C1071 1.400 . S
C1075 C1074 1.385 . S
C1076 C1074 1.478 . S
C1076 C1078 1.381 . S
C1076 C1082 1.383 . S
C1077 C1073 1.495 . S
C1077 H1083 0.959 . S
C1077 H1084 0.961 . S
C1077 H1085 0.960 . S
C1078 C1076 1.381 . S
C1078 C1079 1.394 . S
C1078 H1086 0.930 . S
C1079 C1078 1.394 . S
C1079 C1080 1.383 . S
C1079 H1087 0.929 . S
C1080 C1079 1.383 . S
C1080 C1081 1.377 . S
C1081 H1065 0.930 . S
C1081 C1080 1.377 . S
C1081 C1082 1.379 . S
C1082 H1066 0.931 . S
C1082 C1076 1.383 . S
C1082 C1081 1.379 . S
H1083 C1077 0.959 . S
H1084 C1077 0.961 . S
H1085 C1077 0.960 . S
H1086 C1078 0.930 . S
H1087 C1079 0.929 . S
H1088 C1096 0.929 . S
H1089 C1098 0.930 . S
H1090 C1100 0.930 . S
H1091 C1103 0.929 . S
H1092 C1106 0.930 . S
H1093 C1108 0.960 . S
H1094 C1108 0.960 . S
H1095 C1108 0.960 . S
C1096 H1088 0.929 . S
C1096 C1097 1.377 . S
C1096 C1098 1.384 . S
C1097 C1096 1.377 . S
C1097 C1103 1.390 . S
C1098 H1089 0.930 . S
C1098 C1096 1.384 . S
C1098 C1099 1.372 . S
C1099 C1098 1.372 . S
C1099 C1100 1.400 . S
C1099 C1104 1.490 . S
C1100 H1090 0.930 . S
C1100 C1099 1.400 . S
C1100 C1103 1.386 . S
H1101 C1117 0.930 . S
H1102 C1118 0.931 . S
C1103 H1091 0.929 . S
C1103 C1097 1.390 . S
C1103 C1100 1.386 . S
C1104 C1099 1.490 . S
C1104 C1106 1.395 . S
C1104 C1107 1.403 . S
H1105 C1111 0.930 . S
C1106 H1092 0.930 . S
C1106 C1104 1.395 . S
C1106 C1109 1.403 . S
C1107 C1104 1.403 . S
C1107 C1108 1.524 . S
C1107 C1111 1.400 . S
C1108 H1093 0.960 . S
C1108 H1094 0.960 . S
C1108 H1095 0.960 . S
C1108 C1107 1.524 . S
C1109 C1106 1.403 . S
C1109 C1110 1.392 . S
C1109 C1113 1.495 . S
C1110 C1109 1.392 . S
C1110 C1111 1.385 . S
C1110 C1112 1.478 . S
C1111 H1105 0.930 . S
C1111 C1107 1.400 . S
C1111 C1110 1.385 . S
C1112 C1110 1.478 . S
C1112 C1114 1.381 . S
C1112 C1118 1.383 . S
C1113 C1109 1.495 . S
C1113 H1119 0.959 . S
C1113 H1120 0.961 . S
C1113 H1121 0.960 . S
C1114 C1112 1.381 . S
C1114 C1115 1.394 . S
C1114 H1122 0.930 . S
C1115 C1114 1.394 . S
C1115 C1116 1.383 . S
C1115 H1123 0.929 . S
C1116 C1115 1.383 . S
C1116 C1117 1.377 . S
C1117 H1101 0.930 . S
C1117 C1116 1.377 . S
C1117 C1118 1.379 . S
C1118 H1102 0.931 . S
C1118 C1112 1.383 . S
C1118 C1117 1.379 . S
H1119 C1113 0.959 . S
H1120 C1113 0.961 . S
H1121 C1113 0.960 . S
H1122 C1114 0.930 . S
H1123 C1115 0.929 . S
H1124 C1132 0.929 . S
H1125 C1134 0.930 . S
H1126 C1136 0.930 . S
H1127 C1139 0.929 . S
H1128 C1142 0.930 . S
H1129 C1144 0.960 . S
H1130 C1144 0.960 . S
H1131 C1144 0.960 . S
C1132 H1124 0.929 . S
C1132 C1133 1.377 . S
C1132 C1134 1.384 . S
C1133 C1132 1.377 . S
C1133 C1139 1.390 . S
C1134 H1125 0.930 . S
C1134 C1132 1.384 . S
C1134 C1135 1.372 . S
C1135 C1134 1.372 . S
C1135 C1136 1.400 . S
C1135 C1140 1.490 . S
C1136 H1126 0.930 . S
C1136 C1135 1.400 . S
C1136 C1139 1.386 . S
H1137 C1153 0.930 . S
H1138 C1154 0.931 . S
C1139 H1127 0.929 . S
C1139 C1133 1.390 . S
C1139 C1136 1.386 . S
C1140 C1135 1.490 . S
C1140 C1142 1.395 . S
C1140 C1143 1.403 . S
H1141 C1147 0.930 . S
C1142 H1128 0.930 . S
C1142 C1140 1.395 . S
C1142 C1145 1.403 . S
C1143 C1140 1.403 . S
C1143 C1144 1.524 . S
C1143 C1147 1.400 . S
C1144 H1129 0.960 . S
C1144 H1130 0.960 . S
C1144 H1131 0.960 . S
C1144 C1143 1.524 . S
C1145 C1142 1.403 . S
C1145 C1146 1.392 . S
C1145 C1149 1.495 . S
C1146 C1145 1.392 . S
C1146 C1147 1.385 . S
C1146 C1148 1.478 . S
C1147 H1141 0.930 . S
C1147 C1143 1.400 . S
C1147 C1146 1.385 . S
C1148 C1146 1.478 . S
C1148 C1150 1.381 . S
C1148 C1154 1.383 . S
C1149 C1145 1.495 . S
C1149 H1155 0.959 . S
C1149 H1156 0.961 . S
C1149 H1157 0.960 . S
C1150 C1148 1.381 . S
C1150 C1151 1.394 . S
C1150 H1158 0.930 . S
C1151 C1150 1.394 . S
C1151 C1152 1.383 . S
C1151 H1159 0.929 . S
C1152 C1151 1.383 . S
C1152 C1153 1.377 . S
C1153 H1137 0.930 . S
C1153 C1152 1.377 . S
C1153 C1154 1.379 . S
C1154 H1138 0.931 . S
C1154 C1148 1.383 . S
C1154 C1153 1.379 . S
H1155 C1149 0.959 . S
H1156 C1149 0.961 . S
H1157 C1149 0.960 . S
H1158 C1150 0.930 . S
H1159 C1151 0.929 . S
H1160 C1168 0.929 . S
H1161 C1170 0.930 . S
H1162 C1172 0.930 . S
H1163 C1175 0.929 1_455 S
H1164 C1178 0.930 . S
H1165 C1180 0.960 . S
H1166 C1180 0.960 . S
H1167 C1180 0.960 . S
C1168 H1160 0.929 . S
C1168 C1169 1.377 . S
C1168 C1170 1.384 . S
C1169 C1168 1.377 . S
C1169 C1175 1.390 . S
C1170 H1161 0.930 . S
C1170 C1168 1.384 . S
C1170 C1171 1.372 . S
C1171 C1170 1.372 . S
C1171 C1172 1.400 . S
C1171 C1176 1.490 . S
C1172 H1162 0.930 . S
C1172 C1171 1.400 . S
C1172 C1175 1.386 . S
H1173 C1189 0.930 . S
H1174 C1190 0.931 . S
C1175 H1163 0.929 1_655 S
C1175 C1169 1.390 . S
C1175 C1172 1.386 . S
C1176 C1171 1.490 . S
C1176 C1178 1.395 . S
C1176 C1179 1.403 . S
H1177 C1183 0.930 . S
C1178 H1164 0.930 . S
C1178 C1176 1.395 . S
C1178 C1181 1.403 . S
C1179 C1176 1.403 . S
C1179 C1180 1.524 1_655 S
C1179 C1183 1.400 . S
C1180 H1165 0.960 . S
C1180 H1166 0.960 . S
C1180 H1167 0.960 . S
C1180 C1179 1.524 1_455 S
C1181 C1178 1.403 . S
C1181 C1182 1.392 . S
C1181 C1185 1.495 . S
C1182 C1181 1.392 . S
C1182 C1183 1.385 . S
C1182 C1184 1.478 . S
C1183 H1177 0.930 . S
C1183 C1179 1.400 . S
C1183 C1182 1.385 . S
C1184 C1182 1.478 . S
C1184 C1186 1.381 . S
C1184 C1190 1.383 . S
C1185 C1181 1.495 . S
C1185 H1191 0.959 . S
C1185 H1192 0.961 . S
C1185 H1193 0.960 . S
C1186 C1184 1.381 . S
C1186 C1187 1.394 . S
C1186 H1194 0.930 . S
C1187 C1186 1.394 . S
C1187 C1188 1.383 . S
C1187 H1195 0.929 . S
C1188 C1187 1.383 . S
C1188 C1189 1.377 . S
C1189 H1173 0.930 . S
C1189 C1188 1.377 . S
C1189 C1190 1.379 . S
C1190 H1174 0.931 . S
C1190 C1184 1.383 . S
C1190 C1189 1.379 . S
H1191 C1185 0.959 . S
H1192 C1185 0.961 . S
H1193 C1185 0.960 . S
H1194 C1186 0.930 . S
H1195 C1187 0.929 . S
H1196 C1204 0.929 . S
H1197 C1206 0.930 . S
H1198 C1208 0.930 . S
H1199 C1211 0.929 . S
H1200 C1214 0.930 . S
H1201 C1216 0.960 . S
H1202 C1216 0.960 . S
H1203 C1216 0.960 . S
C1204 H1196 0.929 . S
C1204 C1205 1.377 . S
C1204 C1206 1.384 . S
C1205 C1204 1.377 . S
C1205 C1211 1.390 . S
C1206 H1197 0.930 . S
C1206 C1204 1.384 . S
C1206 C1207 1.372 . S
C1207 C1206 1.372 . S
C1207 C1208 1.400 . S
C1207 C1212 1.490 . S
C1208 H1198 0.930 . S
C1208 C1207 1.400 . S
C1208 C1211 1.386 . S
H1209 C1225 0.930 . S
H1210 C1226 0.931 . S
C1211 H1199 0.929 . S
C1211 C1205 1.390 . S
C1211 C1208 1.386 . S
C1212 C1207 1.490 . S
C1212 C1214 1.395 . S
C1212 C1215 1.403 . S
H1213 C1219 0.930 . S
C1214 H1200 0.930 . S
C1214 C1212 1.395 . S
C1214 C1217 1.403 . S
C1215 C1212 1.403 . S
C1215 C1216 1.524 . S
C1215 C1219 1.400 . S
C1216 H1201 0.960 . S
C1216 H1202 0.960 . S
C1216 H1203 0.960 . S
C1216 C1215 1.524 . S
C1217 C1214 1.403 . S
C1217 C1218 1.392 . S
C1217 C1221 1.495 . S
C1218 C1217 1.392 . S
C1218 C1219 1.385 . S
C1218 C1220 1.478 . S
C1219 H1213 0.930 . S
C1219 C1215 1.400 . S
C1219 C1218 1.385 . S
C1220 C1218 1.478 . S
C1220 C1222 1.381 . S
C1220 C1226 1.383 . S
C1221 C1217 1.495 . S
C1221 H1227 0.959 . S
C1221 H1228 0.961 . S
C1221 H1229 0.960 . S
C1222 C1220 1.381 . S
C1222 C1223 1.394 . S
C1222 H1230 0.930 . S
C1223 C1222 1.394 . S
C1223 C1224 1.383 . S
C1223 H1231 0.929 . S
C1224 C1223 1.383 . S
C1224 C1225 1.377 . S
C1225 H1209 0.930 . S
C1225 C1224 1.377 . S
C1225 C1226 1.379 . S
C1226 H1210 0.931 . S
C1226 C1220 1.383 . S
C1226 C1225 1.379 . S
H1227 C1221 0.959 . S
H1228 C1221 0.961 . S
H1229 C1221 0.960 . S
H1230 C1222 0.930 . S
H1231 C1223 0.929 . S
H1232 C1240 0.929 . S
H1233 C1242 0.930 . S
H1234 C1244 0.930 . S
H1235 C1247 0.929 . S
H1236 C1250 0.930 . S
H1237 C1252 0.960 . S
H1238 C1252 0.960 . S
H1239 C1252 0.960 . S
C1240 H1232 0.929 . S
C1240 C1241 1.377 . S
C1240 C1242 1.384 . S
C1241 C1240 1.377 . S
C1241 C1247 1.390 . S
C1242 H1233 0.930 . S
C1242 C1240 1.384 . S
C1242 C1243 1.372 . S
C1243 C1242 1.372 . S
C1243 C1244 1.400 . S
C1243 C1248 1.490 . S
C1244 H1234 0.930 . S
C1244 C1243 1.400 . S
C1244 C1247 1.386 . S
H1245 C1261 0.930 . S
H1246 C1262 0.931 . S
C1247 H1235 0.929 . S
C1247 C1241 1.390 . S
C1247 C1244 1.386 . S
C1248 C1243 1.490 . S
C1248 C1250 1.395 . S
C1248 C1251 1.403 . S
H1249 C1255 0.930 . S
C1250 H1236 0.930 . S
C1250 C1248 1.395 . S
C1250 C1253 1.403 . S
C1251 C1248 1.403 . S
C1251 C1252 1.524 . S
C1251 C1255 1.400 . S
C1252 H1237 0.960 . S
C1252 H1238 0.960 . S
C1252 H1239 0.960 . S
C1252 C1251 1.524 . S
C1253 C1250 1.403 . S
C1253 C1254 1.392 . S
C1253 C1257 1.495 . S
C1254 C1253 1.392 . S
C1254 C1255 1.385 . S
C1254 C1256 1.478 . S
C1255 H1249 0.930 . S
C1255 C1251 1.400 . S
C1255 C1254 1.385 . S
C1256 C1254 1.478 . S
C1256 C1258 1.381 . S
C1256 C1262 1.383 . S
C1257 C1253 1.495 . S
C1257 H1263 0.959 . S
C1257 H1264 0.961 . S
C1257 H1265 0.960 . S
C1258 C1256 1.381 . S
C1258 C1259 1.394 . S
C1258 H1266 0.930 . S
C1259 C1258 1.394 . S
C1259 C1260 1.383 . S
C1259 H1267 0.929 . S
C1260 C1259 1.383 . S
C1260 C1261 1.377 . S
C1261 H1245 0.930 . S
C1261 C1260 1.377 . S
C1261 C1262 1.379 . S
C1262 H1246 0.931 . S
C1262 C1256 1.383 . S
C1262 C1261 1.379 . S
H1263 C1257 0.959 . S
H1264 C1257 0.961 . S
H1265 C1257 0.960 . S
H1266 C1258 0.930 . S
H1267 C1259 0.929 . S
H1268 C1276 0.929 . S
H1269 C1278 0.930 . S
H1270 C1280 0.930 . S
H1271 C1283 0.929 . S
H1272 C1286 0.930 . S
H1273 C1288 0.960 . S
H1274 C1288 0.960 . S
H1275 C1288 0.960 . S
C1276 H1268 0.929 . S
C1276 C1277 1.377 1_455 S
C1276 C1278 1.384 . S
C1277 C1276 1.377 1_655 S
C1277 C1283 1.390 . S
C1278 H1269 0.930 . S
C1278 C1276 1.384 . S
C1278 C1279 1.372 1_455 S
C1279 C1278 1.372 1_655 S
C1279 C1280 1.400 . S
C1279 C1284 1.490 . S
C1280 H1270 0.930 . S
C1280 C1279 1.400 . S
C1280 C1283 1.386 . S
H1281 C1297 0.930 . S
H1282 C1298 0.931 . S
C1283 H1271 0.929 . S
C1283 C1277 1.390 . S
C1283 C1280 1.386 . S
C1284 C1279 1.490 . S
C1284 C1286 1.395 . S
C1284 C1287 1.403 1_565 S
H1285 C1291 0.930 . S
C1286 H1272 0.930 . S
C1286 C1284 1.395 . S
C1286 C1289 1.403 . S
C1287 C1284 1.403 1_545 S
C1287 C1288 1.524 . S
C1287 C1291 1.400 . S
C1288 H1273 0.960 . S
C1288 H1274 0.960 . S
C1288 H1275 0.960 . S
C1288 C1287 1.524 . S
C1289 C1286 1.403 . S
C1289 C1290 1.392 . S
C1289 C1293 1.495 . S
C1290 C1289 1.392 . S
C1290 C1291 1.385 1_565 S
C1290 C1292 1.478 . S
C1291 H1285 0.930 . S
C1291 C1287 1.400 . S
C1291 C1290 1.385 1_545 S
C1292 C1290 1.478 . S
C1292 C1294 1.381 1_655 S
C1292 C1298 1.383 . S
C1293 C1289 1.495 . S
C1293 H1299 0.959 . S
C1293 H1300 0.961 . S
C1293 H1301 0.960 1_655 S
C1294 C1292 1.381 1_455 S
C1294 C1295 1.394 . S
C1294 H1302 0.930 . S
C1295 C1294 1.394 . S
C1295 C1296 1.383 1_455 S
C1295 H1303 0.929 . S
C1296 C1295 1.383 1_655 S
C1296 C1297 1.377 . S
C1297 H1281 0.930 . S
C1297 C1296 1.377 . S
C1297 C1298 1.379 . S
C1298 H1282 0.931 . S
C1298 C1292 1.383 . S
C1298 C1297 1.379 . S
H1299 C1293 0.959 . S
H1300 C1293 0.961 . S
H1301 C1293 0.960 1_455 S
H1302 C1294 0.930 . S
H1303 C1295 0.929 . S
H1304 C1312 0.929 . S
H1305 C1314 0.930 . S
H1306 C1316 0.930 . S
H1307 C1319 0.929 . S
H1308 C1322 0.930 . S
H1309 C1324 0.960 . S
H1310 C1324 0.960 1_556 S
H1311 C1324 0.946 1_556 S
C1312 H1304 0.929 . S
C1312 C1313 1.377 . S
C1312 C1314 1.384 . S
C1313 C1312 1.377 . S
C1313 C1319 1.390 . S
C1314 H1305 0.930 . S
C1314 C1312 1.384 . S
C1314 C1315 1.372 . S
C1315 C1314 1.372 . S
C1315 C1316 1.400 . S
C1315 C1320 1.490 1_556 S
C1316 H1306 0.930 . S
C1316 C1315 1.400 . S
C1316 C1319 1.386 . S
H1317 C1333 0.930 . S
H1318 C1334 0.931 . S
C1319 H1307 0.929 . S
C1319 C1313 1.390 . S
C1319 C1316 1.386 . S
C1320 C1315 1.490 1_554 S
C1320 C1322 1.395 . S
C1320 C1323 1.403 . S
H1321 C1327 0.930 . S
C1322 H1308 0.930 . S
C1322 C1320 1.395 . S
C1322 C1325 1.403 . S
C1323 C1320 1.403 . S
C1323 C1324 1.524 . S
C1323 C1327 1.400 . S
C1324 H1309 0.960 . S
C1324 H1310 0.960 1_554 S
C1324 H1311 0.946 1_554 S
C1324 C1323 1.524 . S
C1325 C1322 1.403 . S
C1325 C1326 1.392 . S
C1325 C1329 1.495 . S
C1326 C1325 1.392 . S
C1326 C1327 1.385 . S
C1326 C1328 1.478 . S
C1327 H1321 0.930 . S
C1327 C1323 1.400 . S
C1327 C1326 1.385 . S
C1328 C1326 1.478 . S
C1328 C1330 1.381 . S
C1328 C1334 1.383 . S
C1329 C1325 1.495 . S
C1329 H1335 0.959 . S
C1329 H1336 0.961 . S
C1329 H1337 0.960 . S
C1330 C1328 1.381 . S
C1330 C1331 1.394 . S
C1330 H1338 0.930 . S
C1331 C1330 1.394 . S
C1331 C1332 1.383 . S
C1331 H1339 0.929 . S
C1332 C1331 1.383 . S
C1332 C1333 1.377 . S
C1333 H1317 0.930 . S
C1333 C1332 1.377 . S
C1333 C1334 1.379 . S
C1334 H1318 0.931 . S
C1334 C1328 1.383 . S
C1334 C1333 1.379 . S
H1335 C1329 0.959 . S
H1336 C1329 0.961 . S
H1337 C1329 0.960 . S
H1338 C1330 0.930 . S
H1339 C1331 0.929 . S
H1340 C1348 0.929 . S
H1341 C1350 0.930 . S
H1342 C1352 0.930 . S
H1343 C1355 0.929 . S
H1344 C1358 0.930 . S
H1345 C1360 0.960 . S
H1346 C1360 0.960 1_545 S
H1347 C1360 0.960 . S
C1348 H1340 0.929 . S
C1348 C1349 1.377 . S
C1348 C1350 1.384 . S
C1349 C1348 1.377 . S
C1349 C1355 1.390 . S
C1350 H1341 0.930 . S
C1350 C1348 1.384 . S
C1350 C1351 1.372 . S
C1351 C1350 1.372 . S
C1351 C1352 1.400 . S
C1351 C1356 1.490 . S
C1352 H1342 0.930 . S
C1352 C1351 1.400 . S
C1352 C1355 1.386 . S
H1353 C1369 0.930 . S
H1354 C1370 0.931 . S
C1355 H1343 0.929 . S
C1355 C1349 1.390 . S
C1355 C1352 1.386 . S
C1356 C1351 1.490 . S
C1356 C1358 1.395 . S
C1356 C1359 1.403 . S
H1357 C1363 0.930 . S
C1358 H1344 0.930 . S
C1358 C1356 1.395 . S
C1358 C1361 1.403 . S
C1359 C1356 1.403 . S
C1359 C1360 1.524 . S
C1359 C1363 1.400 . S
C1360 H1345 0.960 . S
C1360 H1346 0.960 1_565 S
C1360 H1347 0.960 . S
C1360 C1359 1.524 . S
C1361 C1358 1.403 . S
C1361 C1362 1.392 . S
C1361 C1365 1.495 . S
C1362 C1361 1.392 . S
C1362 C1363 1.385 . S
C1362 C1364 1.478 . S
C1363 H1357 0.930 . S
C1363 C1359 1.400 . S
C1363 C1362 1.385 . S
C1364 C1362 1.478 . S
C1364 C1366 1.381 . S
C1364 C1370 1.383 . S
C1365 C1361 1.495 . S
C1365 H1371 0.959 . S
C1365 H1372 0.961 . S
C1365 H1373 0.960 . S
C1366 C1364 1.381 . S
C1366 C1367 1.394 . S
C1366 H1374 0.930 . S
C1367 C1366 1.394 . S
C1367 C1368 1.383 . S
C1367 H1375 0.929 . S
C1368 C1367 1.383 . S
C1368 C1369 1.377 . S
C1369 H1353 0.930 . S
C1369 C1368 1.377 . S
C1369 C1370 1.379 . S
C1370 H1354 0.931 . S
C1370 C1364 1.383 . S
C1370 C1369 1.379 . S
H1371 C1365 0.959 . S
H1372 C1365 0.961 . S
H1373 C1365 0.960 . S
H1374 C1366 0.930 . S
H1375 C1367 0.929 . S
H1376 C1384 0.929 . S
H1377 C1386 0.930 . S
H1378 C1388 0.930 . S
H1379 C1391 0.929 . S
H1380 C1394 0.930 . S
H1381 C1396 0.960 . S
H1382 C1396 0.960 . S
H1383 C1396 0.960 . S
C1384 H1376 0.929 . S
C1384 C1385 1.377 . S
C1384 C1386 1.384 . S
C1385 C1384 1.377 . S
C1385 C1391 1.390 . S
C1386 H1377 0.930 . S
C1386 C1384 1.384 . S
C1386 C1387 1.372 . S
C1387 C1386 1.372 . S
C1387 C1388 1.400 . S
C1387 C1392 1.490 . S
C1388 H1378 0.930 . S
C1388 C1387 1.400 . S
C1388 C1391 1.386 . S
H1389 C1405 0.930 . S
H1390 C1406 0.931 . S
C1391 H1379 0.929 . S
C1391 C1385 1.390 . S
C1391 C1388 1.386 . S
C1392 C1387 1.490 . S
C1392 C1394 1.395 . S
C1392 C1395 1.403 . S
H1393 C1399 0.930 . S
C1394 H1380 0.930 . S
C1394 C1392 1.395 . S
C1394 C1397 1.403 . S
C1395 C1392 1.403 . S
C1395 C1396 1.524 . S
C1395 C1399 1.400 . S
C1396 H1381 0.960 . S
C1396 H1382 0.960 . S
C1396 H1383 0.960 . S
C1396 C1395 1.524 . S
C1397 C1394 1.403 . S
C1397 C1398 1.392 . S
C1397 C1401 1.495 . S
C1398 C1397 1.392 . S
C1398 C1399 1.385 . S
C1398 C1400 1.478 . S
C1399 H1393 0.930 . S
C1399 C1395 1.400 . S
C1399 C1398 1.385 . S
C1400 C1398 1.478 . S
C1400 C1402 1.381 . S
C1400 C1406 1.383 . S
C1401 C1397 1.495 . S
C1401 H1407 0.959 . S
C1401 H1408 0.961 . S
C1401 H1409 0.960 . S
C1402 C1400 1.381 . S
C1402 C1403 1.394 . S
C1402 H1410 0.930 . S
C1403 C1402 1.394 . S
C1403 C1404 1.383 . S
C1403 H1411 0.929 . S
C1404 C1403 1.383 . S
C1404 C1405 1.377 . S
C1405 H1389 0.930 . S
C1405 C1404 1.377 . S
C1405 C1406 1.379 . S
C1406 H1390 0.931 . S
C1406 C1400 1.383 . S
C1406 C1405 1.379 . S
H1407 C1401 0.959 . S
H1408 C1401 0.961 . S
H1409 C1401 0.960 . S
H1410 C1402 0.930 . S
H1411 C1403 0.929 . S
H1412 C1420 0.929 . S
H1413 C1422 0.930 . S
H1414 C1424 0.930 . S
H1415 C1427 0.929 1_655 S
H1416 C1430 0.930 . S
H1417 C1432 0.960 . S
H1418 C1432 0.960 . S
H1419 C1432 0.960 . S
C1420 H1412 0.929 . S
C1420 C1421 1.377 . S
C1420 C1422 1.384 . S
C1421 C1420 1.377 . S
C1421 C1427 1.390 . S
C1422 H1413 0.930 . S
C1422 C1420 1.384 . S
C1422 C1423 1.372 . S
C1423 C1422 1.372 . S
C1423 C1424 1.400 1_455 S
C1423 C1428 1.490 . S
C1424 H1414 0.930 . S
C1424 C1423 1.400 1_655 S
C1424 C1427 1.386 1_655 S
H1425 C1441 0.930 . S
H1426 C1442 0.931 . S
C1427 H1415 0.929 1_455 S
C1427 C1421 1.390 . S
C1427 C1424 1.386 1_455 S
C1428 C1423 1.490 . S
C1428 C1430 1.395 . S
C1428 C1431 1.403 1_455 S
H1429 C1435 0.930 . S
C1430 H1416 0.930 . S
C1430 C1428 1.395 . S
C1430 C1433 1.403 . S
C1431 C1428 1.403 1_655 S
C1431 C1432 1.524 . S
C1431 C1435 1.400 . S
C1432 H1417 0.960 . S
C1432 H1418 0.960 . S
C1432 H1419 0.960 . S
C1432 C1431 1.524 . S
C1433 C1430 1.403 . S
C1433 C1434 1.392 . S
C1433 C1437 1.495 . S
C1434 C1433 1.392 . S
C1434 C1435 1.385 1_455 S
C1434 C1436 1.478 . S
C1435 H1429 0.930 . S
C1435 C1431 1.400 . S
C1435 C1434 1.385 1_655 S
C1436 C1434 1.478 . S
C1436 C1438 1.381 . S
C1436 C1442 1.383 1_455 S
C1437 C1433 1.495 . S
C1437 H1443 0.959 . S
C1437 H1444 0.961 . S
C1437 H1445 0.960 . S
C1438 C1436 1.381 . S
C1438 C1439 1.394 . S
C1438 H1446 0.930 . S
C1439 C1438 1.394 . S
C1439 C1440 1.376 1_455 S
C1439 H1447 0.929 . S
C1440 C1439 1.376 1_655 S
C1440 C1441 1.384 . S
C1441 H1425 0.930 . S
C1441 C1440 1.384 . S
C1441 C1442 1.379 . S
C1442 H1426 0.931 . S
C1442 C1436 1.383 1_655 S
C1442 C1441 1.379 . S
H1443 C1437 0.959 . S
H1444 C1437 0.961 . S
H1445 C1437 0.960 . S
H1446 C1438 0.930 . S
H1447 C1439 0.929 . S
H1448 C1456 0.929 . S
H1449 C1458 0.930 . S
H1450 C1460 0.930 . S
H1451 C1463 0.929 . S
H1452 C1466 0.930 1_655 S
H1453 C1468 0.960 . S
H1454 C1468 0.960 1_655 S
H1455 C1468 0.960 1_655 S
C1456 H1448 0.929 . S
C1456 C1457 1.377 . S
C1456 C1458 1.384 . S
C1457 C1456 1.377 . S
C1457 C1463 1.390 . S
C1458 H1449 0.930 . S
C1458 C1456 1.384 . S
C1458 C1459 1.372 . S
C1459 C1458 1.372 . S
C1459 C1460 1.400 . S
C1459 C1464 1.490 . S
C1460 H1450 0.930 . S
C1460 C1459 1.400 . S
C1460 C1463 1.386 . S
H1461 C1477 0.930 . S
H1462 C1478 0.931 . S
C1463 H1451 0.929 . S
C1463 C1457 1.390 . S
C1463 C1460 1.386 . S
C1464 C1459 1.490 . S
C1464 C1466 1.395 1_655 S
C1464 C1467 1.403 1_655 S
H1465 C1471 0.930 . S
C1466 H1452 0.930 1_455 S
C1466 C1464 1.395 1_455 S
C1466 C1469 1.403 . S
C1467 C1464 1.403 1_455 S
C1467 C1468 1.524 . S
C1467 C1471 1.400 . S
C1468 H1453 0.960 . S
C1468 H1454 0.960 1_455 S
C1468 H1455 0.960 1_455 S
C1468 C1467 1.524 . S
C1469 C1466 1.403 . S
C1469 C1470 1.392 . S
C1469 C1473 1.495 . S
C1470 C1469 1.392 . S
C1470 C1471 1.385 . S
C1470 C1472 1.478 . S
C1471 H1465 0.930 . S
C1471 C1467 1.400 . S
C1471 C1470 1.385 . S
C1472 C1470 1.478 . S
C1472 C1474 1.381 . S
C1472 C1478 1.383 . S
C1473 C1469 1.495 . S
C1473 H1479 0.959 . S
C1473 H1480 0.961 . S
C1473 H1481 0.960 . S
C1474 C1472 1.381 . S
C1474 C1475 1.394 . S
C1474 H1482 0.930 . S
C1475 C1474 1.394 . S
C1475 C1476 1.383 . S
C1475 H1483 0.929 . S
C1476 C1475 1.383 . S
C1476 C1477 1.377 . S
C1477 H1461 0.930 . S
C1477 C1476 1.377 . S
C1477 C1478 1.379 . S
C1478 H1462 0.931 . S
C1478 C1472 1.383 . S
C1478 C1477 1.379 . S
H1479 C1473 0.959 . S
H1480 C1473 0.961 . S
H1481 C1473 0.960 . S
H1482 C1474 0.930 . S
H1483 C1475 0.929 . S
H1484 C1492 0.929 . S
H1485 C1494 0.930 . S
H1486 C1496 0.930 1_554 S
H1487 C1499 0.929 1_554 S
H1488 C1502 0.930 . S
H1489 C1504 0.960 . S
H1490 C1504 0.960 . S
H1491 C1504 0.960 . S
C1492 H1484 0.929 . S
C1492 C1493 1.377 . S
C1492 C1494 1.384 . S
C1493 C1492 1.377 . S
C1493 C1499 1.390 . S
C1494 H1485 0.930 . S
C1494 C1492 1.384 . S
C1494 C1495 1.372 . S
C1495 C1494 1.372 . S
C1495 C1496 1.400 . S
C1495 C1500 1.490 . S
C1496 H1486 0.930 1_556 S
C1496 C1495 1.400 . S
C1496 C1499 1.386 . S
H1497 C1513 0.930 . S
H1498 C1514 0.931 . S
C1499 H1487 0.929 1_556 S
C1499 C1493 1.390 . S
C1499 C1496 1.386 . S
C1500 C1495 1.490 . S
C1500 C1502 1.395 1_556 S
C1500 C1503 1.403 . S
H1501 C1507 0.930 . S
C1502 H1488 0.930 . S
C1502 C1500 1.395 1_554 S
C1502 C1505 1.403 . S
C1503 C1500 1.403 . S
C1503 C1504 1.524 . S
C1503 C1507 1.400 . S
C1504 H1489 0.960 . S
C1504 H1490 0.960 . S
C1504 H1491 0.960 . S
C1504 C1503 1.524 . S
C1505 C1502 1.403 . S
C1505 C1506 1.392 1_554 S
C1505 C1509 1.495 . S
C1506 C1505 1.392 1_556 S
C1506 C1507 1.385 . S
C1506 C1508 1.478 . S
C1507 H1501 0.930 . S
C1507 C1503 1.400 . S
C1507 C1506 1.385 . S
C1508 C1506 1.478 . S
C1508 C1510 1.381 . S
C1508 C1514 1.383 1_556 S
C1509 C1505 1.495 . S
C1509 H1515 0.959 . S
C1509 H1516 0.961 . S
C1509 H1517 0.960 . S
C1510 C1508 1.381 . S
C1510 C1511 1.394 . S
C1510 H1518 0.930 . S
C1511 C1510 1.394 . S
C1511 C1512 1.383 . S
C1511 H1519 0.929 . S
C1512 C1511 1.383 . S
C1512 C1513 1.377 1_556 S
C1513 H1497 0.930 . S
C1513 C1512 1.377 1_554 S
C1513 C1514 1.379 . S
C1514 H1498 0.931 . S
C1514 C1508 1.383 1_554 S
C1514 C1513 1.379 . S
H1515 C1509 0.959 . S
H1516 C1509 0.961 . S
H1517 C1509 0.960 . S
H1518 C1510 0.930 . S
H1519 C1511 0.929 . S
H1520 C1528 0.929 . S
H1521 C1530 0.930 . S
H1522 C1532 0.930 . S
H1523 C1535 0.929 . S
H1524 C1538 0.930 . S
H1525 C1540 0.960 . S
H1526 C1540 0.960 . S
H1527 C1540 0.960 . S
C1528 H1520 0.929 . S
C1528 C1529 1.377 . S
C1528 C1530 1.384 . S
C1529 C1528 1.377 . S
C1529 C1535 1.390 . S
C1530 H1521 0.930 . S
C1530 C1528 1.384 . S
C1530 C1531 1.372 . S
C1531 C1530 1.372 . S
C1531 C1532 1.400 . S
C1531 C1536 1.490 . S
C1532 H1522 0.930 . S
C1532 C1531 1.400 . S
C1532 C1535 1.386 . S
H1533 C1549 0.930 . S
H1534 C1550 0.931 . S
C1535 H1523 0.929 . S
C1535 C1529 1.390 . S
C1535 C1532 1.386 . S
C1536 C1531 1.490 . S
C1536 C1538 1.395 . S
C1536 C1539 1.403 . S
H1537 C1543 0.930 . S
C1538 H1524 0.930 . S
C1538 C1536 1.395 . S
C1538 C1541 1.403 . S
C1539 C1536 1.403 . S
C1539 C1540 1.524 . S
C1539 C1543 1.400 . S
C1540 H1525 0.960 . S
C1540 H1526 0.960 . S
C1540 H1527 0.960 . S
C1540 C1539 1.524 . S
C1541 C1538 1.403 . S
C1541 C1542 1.392 . S
C1541 C1545 1.495 . S
C1542 C1541 1.392 . S
C1542 C1543 1.385 . S
C1542 C1544 1.478 . S
C1543 H1537 0.930 . S
C1543 C1539 1.400 . S
C1543 C1542 1.385 . S
C1544 C1542 1.478 . S
C1544 C1546 1.381 . S
C1544 C1550 1.383 . S
C1545 C1541 1.495 . S
C1545 H1551 0.959 . S
C1545 H1552 0.961 . S
C1545 H1553 0.960 . S
C1546 C1544 1.381 . S
C1546 C1547 1.394 . S
C1546 H1554 0.930 . S
C1547 C1546 1.394 . S
C1547 C1548 1.383 . S
C1547 H1555 0.929 . S
C1548 C1547 1.383 . S
C1548 C1549 1.377 . S
C1549 H1533 0.930 . S
C1549 C1548 1.377 . S
C1549 C1550 1.379 . S
C1550 H1534 0.931 . S
C1550 C1544 1.383 . S
C1550 C1549 1.379 . S
H1551 C1545 0.959 . S
H1552 C1545 0.961 . S
H1553 C1545 0.960 . S
H1554 C1546 0.930 . S
H1555 C1547 0.929 . S
H1556 C1564 0.929 . S
H1557 C1566 0.930 . S
H1558 C1568 0.930 . S
H1559 C1571 0.929 . S
H1560 C1574 0.930 . S
H1561 C1576 0.960 . S
H1562 C1576 0.960 . S
H1563 C1576 0.960 . S
C1564 H1556 0.929 . S
C1564 C1565 1.377 . S
C1564 C1566 1.384 . S
C1565 C1564 1.377 . S
C1565 C1571 1.390 . S
C1566 H1557 0.930 . S
C1566 C1564 1.384 . S
C1566 C1567 1.372 . S
C1567 C1566 1.372 . S
C1567 C1568 1.400 . S
C1567 C1572 1.490 . S
C1568 H1558 0.930 . S
C1568 C1567 1.400 . S
C1568 C1571 1.386 . S
H1569 C1585 0.930 . S
H1570 C1586 0.931 . S
C1571 H1559 0.929 . S
C1571 C1565 1.390 . S
C1571 C1568 1.386 . S
C1572 C1567 1.490 . S
C1572 C1574 1.395 . S
C1572 C1575 1.403 . S
H1573 C1579 0.930 . S
C1574 H1560 0.930 . S
C1574 C1572 1.395 . S
C1574 C1577 1.403 . S
C1575 C1572 1.403 . S
C1575 C1576 1.524 . S
C1575 C1579 1.400 . S
C1576 H1561 0.960 . S
C1576 H1562 0.960 . S
C1576 H1563 0.960 . S
C1576 C1575 1.524 . S
C1577 C1574 1.403 . S
C1577 C1578 1.392 . S
C1577 C1581 1.495 . S
C1578 C1577 1.392 . S
C1578 C1579 1.385 . S
C1578 C1580 1.478 . S
C1579 H1573 0.930 . S
C1579 C1575 1.400 . S
C1579 C1578 1.385 . S
C1580 C1578 1.478 . S
C1580 C1582 1.381 . S
C1580 C1586 1.383 . S
C1581 C1577 1.495 . S
C1581 H1587 0.959 . S
C1581 H1588 0.961 . S
C1581 H1589 0.960 . S
C1582 C1580 1.381 . S
C1582 C1583 1.394 . S
C1582 H1590 0.930 . S
C1583 C1582 1.394 . S
C1583 C1584 1.383 . S
C1583 H1591 0.929 . S
C1584 C1583 1.383 . S
C1584 C1585 1.377 . S
C1585 H1569 0.930 . S
C1585 C1584 1.377 . S
C1585 C1586 1.379 . S
C1586 H1570 0.931 . S
C1586 C1580 1.383 . S
C1586 C1585 1.379 . S
H1587 C1581 0.959 . S
H1588 C1581 0.961 . S
H1589 C1581 0.960 . S
H1590 C1582 0.930 . S
H1591 C1583 0.929 . S
H1592 C1600 0.929 . S
H1593 C1602 0.930 . S
H1594 C1604 0.930 . S
H1595 C1607 0.929 . S
H1596 C1610 0.930 . S
H1597 C1612 0.960 . S
H1598 C1612 0.960 . S
H1599 C1612 0.960 . S
C1600 H1592 0.929 . S
C1600 C1601 1.377 . S
C1600 C1602 1.384 . S
C1601 C1600 1.377 . S
C1601 C1607 1.390 . S
C1602 H1593 0.930 . S
C1602 C1600 1.384 . S
C1602 C1603 1.372 . S
C1603 C1602 1.372 . S
C1603 C1604 1.400 . S
C1603 C1608 1.490 . S
C1604 H1594 0.930 . S
C1604 C1603 1.400 . S
C1604 C1607 1.386 . S
H1605 C1621 0.930 . S
H1606 C1622 0.931 . S
C1607 H1595 0.929 . S
C1607 C1601 1.390 . S
C1607 C1604 1.386 . S
C1608 C1603 1.490 . S
C1608 C1610 1.395 . S
C1608 C1611 1.403 . S
H1609 C1615 0.930 . S
C1610 H1596 0.930 . S
C1610 C1608 1.395 . S
C1610 C1613 1.403 . S
C1611 C1608 1.403 . S
C1611 C1612 1.524 . S
C1611 C1615 1.400 . S
C1612 H1597 0.960 . S
C1612 H1598 0.960 . S
C1612 H1599 0.960 . S
C1612 C1611 1.524 . S
C1613 C1610 1.403 . S
C1613 C1614 1.392 . S
C1613 C1617 1.495 . S
C1614 C1613 1.392 . S
C1614 C1615 1.385 . S
C1614 C1616 1.478 1_455 S
C1615 H1609 0.930 . S
C1615 C1611 1.400 . S
C1615 C1614 1.385 . S
C1616 C1614 1.478 1_655 S
C1616 C1618 1.381 . S
C1616 C1622 1.383 . S
C1617 C1613 1.495 . S
C1617 H1623 0.959 . S
C1617 H1624 0.961 . S
C1617 H1625 0.960 . S
C1618 C1616 1.381 . S
C1618 C1619 1.394 . S
C1618 H1626 0.930 . S
C1619 C1618 1.394 . S
C1619 C1620 1.383 . S
C1619 H1627 0.929 . S
C1620 C1619 1.383 . S
C1620 C1621 1.377 . S
C1621 H1605 0.930 . S
C1621 C1620 1.377 . S
C1621 C1622 1.379 . S
C1622 H1606 0.931 . S
C1622 C1616 1.383 . S
C1622 C1621 1.379 . S
H1623 C1617 0.959 . S
H1624 C1617 0.961 . S
H1625 C1617 0.960 . S
H1626 C1618 0.930 . S
H1627 C1619 0.929 . S
H1628 C1636 0.935 . S
H1629 C1638 0.930 1_455 S
H1630 C1640 0.930 . S
H1631 C1643 0.929 . S
H1632 C1646 0.930 . S
H1633 C1648 0.960 . S
H1634 C1648 0.950 1_556 S
H1635 C1648 0.960 . S
C1636 H1628 0.935 . S
C1636 C1637 1.377 1_556 S
C1636 C1638 1.384 . S
C1637 C1636 1.377 1_554 S
C1637 C1643 1.390 . S
C1638 H1629 0.930 1_655 S
C1638 C1636 1.384 . S
C1638 C1639 1.372 1_556 S
C1639 C1638 1.372 1_554 S
C1639 C1640 1.400 . S
C1639 C1644 1.490 . S
C1640 H1630 0.930 . S
C1640 C1639 1.400 . S
C1640 C1643 1.386 . S
H1641 C1657 0.930 . S
H1642 C1658 0.931 . S
C1643 H1631 0.929 . S
C1643 C1637 1.390 . S
C1643 C1640 1.386 . S
C1644 C1639 1.490 . S
C1644 C1646 1.395 1_655 S
C1644 C1647 1.403 . S
H1645 C1651 0.930 . S
C1646 H1632 0.930 . S
C1646 C1644 1.395 1_455 S
C1646 C1649 1.403 . S
C1647 C1644 1.403 . S
C1647 C1648 1.524 . S
C1647 C1651 1.400 . S
C1648 H1633 0.960 . S
C1648 H1634 0.950 1_554 S
C1648 H1635 0.960 . S
C1648 C1647 1.524 . S
C1649 C1646 1.403 . S
C1649 C1650 1.392 1_455 S
C1649 C1653 1.495 . S
C1650 C1649 1.392 1_655 S
C1650 C1651 1.385 . S
C1650 C1652 1.480 . S
C1651 H1645 0.930 . S
C1651 C1647 1.400 . S
C1651 C1650 1.385 . S
C1652 C1650 1.480 . S
C1652 C1654 1.378 1_654 S
C1652 C1658 1.384 . S
C1653 C1649 1.495 . S
C1653 H1659 0.959 . S
C1653 H1660 0.961 . S
C1653 H1661 0.960 1_554 S
C1654 C1652 1.378 1_456 S
C1654 C1655 1.394 . S
C1654 H1662 0.930 . S
C1655 C1654 1.394 . S
C1655 C1656 1.383 1_456 S
C1655 H1663 0.929 . S
C1656 C1655 1.383 1_654 S
C1656 C1657 1.377 . S
C1657 H1641 0.930 . S
C1657 C1656 1.377 . S
C1657 C1658 1.379 . S
C1658 H1642 0.931 . S
C1658 C1652 1.384 . S
C1658 C1657 1.379 . S
H1659 C1653 0.959 . S
H1660 C1653 0.961 . S
H1661 C1653 0.960 1_556 S
H1662 C1654 0.930 . S
H1663 C1655 0.929 . S
H1664 C1672 0.929 . S
H1665 C1674 0.930 . S
H1666 C1676 0.930 . S
H1667 C1679 0.929 . S
H1668 C1682 0.930 . S
H1669 C1684 0.960 . S
H1670 C1684 0.960 . S
H1671 C1684 0.960 . S
C1672 H1664 0.929 . S
C1672 C1673 1.377 . S
C1672 C1674 1.384 . S
C1673 C1672 1.377 . S
C1673 C1679 1.390 . S
C1674 H1665 0.930 . S
C1674 C1672 1.384 . S
C1674 C1675 1.372 . S
C1675 C1674 1.372 . S
C1675 C1676 1.400 . S
C1675 C1680 1.490 . S
C1676 H1666 0.930 . S
C1676 C1675 1.400 . S
C1676 C1679 1.386 . S
H1677 C1693 0.930 . S
H1678 C1694 0.931 . S
C1679 H1667 0.929 . S
C1679 C1673 1.390 . S
C1679 C1676 1.386 . S
C1680 C1675 1.490 . S
C1680 C1682 1.395 . S
C1680 C1683 1.403 . S
H1681 C1687 0.930 . S
C1682 H1668 0.930 . S
C1682 C1680 1.395 . S
C1682 C1685 1.403 . S
C1683 C1680 1.403 . S
C1683 C1684 1.524 . S
C1683 C1687 1.400 . S
C1684 H1669 0.960 . S
C1684 H1670 0.960 . S
C1684 H1671 0.960 . S
C1684 C1683 1.524 . S
C1685 C1682 1.403 . S
C1685 C1686 1.392 . S
C1685 C1689 1.495 . S
C1686 C1685 1.392 . S
C1686 C1687 1.385 . S
C1686 C1688 1.478 . S
C1687 H1681 0.930 . S
C1687 C1683 1.400 . S
C1687 C1686 1.385 . S
C1688 C1686 1.478 . S
C1688 C1690 1.381 . S
C1688 C1694 1.383 . S
C1689 C1685 1.495 . S
C1689 H1695 0.959 . S
C1689 H1696 0.961 . S
C1689 H1697 0.960 . S
C1690 C1688 1.381 . S
C1690 C1691 1.394 . S
C1690 H1698 0.930 . S
C1691 C1690 1.394 . S
C1691 C1692 1.383 . S
C1691 H1699 0.929 . S
C1692 C1691 1.383 . S
C1692 C1693 1.377 . S
C1693 H1677 0.930 . S
C1693 C1692 1.377 . S
C1693 C1694 1.379 . S
C1694 H1678 0.931 . S
C1694 C1688 1.383 . S
C1694 C1693 1.379 . S
H1695 C1689 0.959 . S
H1696 C1689 0.961 . S
H1697 C1689 0.960 . S
H1698 C1690 0.930 . S
H1699 C1691 0.929 . S
H1700 C1708 0.929 . S
H1701 C1710 0.930 . S
H1702 C1712 0.930 . S
H1703 C1715 0.929 . S
H1704 C1718 0.930 . S
H1705 C1720 0.960 . S
H1706 C1720 0.960 . S
H1707 C1720 0.960 . S
C1708 H1700 0.929 . S
C1708 C1709 1.377 . S
C1708 C1710 1.384 . S
C1709 C1708 1.377 . S
C1709 C1715 1.390 . S
C1710 H1701 0.930 . S
C1710 C1708 1.384 . S
C1710 C1711 1.372 . S
C1711 C1710 1.372 . S
C1711 C1712 1.400 . S
C1711 C1716 1.490 . S
C1712 H1702 0.930 . S
C1712 C1711 1.400 . S
C1712 C1715 1.386 . S
H1713 C1729 0.930 . S
H1714 C1730 0.931 . S
C1715 H1703 0.929 . S
C1715 C1709 1.390 . S
C1715 C1712 1.386 . S
C1716 C1711 1.490 . S
C1716 C1718 1.395 . S
C1716 C1719 1.403 . S
H1717 C1723 0.930 . S
C1718 H1704 0.930 . S
C1718 C1716 1.395 . S
C1718 C1721 1.403 . S
C1719 C1716 1.403 . S
C1719 C1720 1.524 . S
C1719 C1723 1.400 . S
C1720 H1705 0.960 . S
C1720 H1706 0.960 . S
C1720 H1707 0.960 . S
C1720 C1719 1.524 . S
C1721 C1718 1.403 . S
C1721 C1722 1.392 1_545 S
C1721 C1725 1.495 1_545 S
C1722 C1721 1.392 1_565 S
C1722 C1723 1.385 1_565 S
C1722 C1724 1.478 . S
C1723 H1717 0.930 . S
C1723 C1719 1.400 . S
C1723 C1722 1.385 1_545 S
C1724 C1722 1.478 . S
C1724 C1726 1.381 . S
C1724 C1730 1.383 . S
C1725 C1721 1.495 1_565 S
C1725 H1731 0.959 1_565 S
C1725 H1732 0.961 . S
C1725 H1733 0.960 . S
C1726 C1724 1.381 . S
C1726 C1727 1.394 . S
C1726 H1734 0.930 . S
C1727 C1726 1.394 . S
C1727 C1728 1.383 . S
C1727 H1735 0.929 . S
C1728 C1727 1.383 . S
C1728 C1729 1.377 . S
C1729 H1713 0.930 . S
C1729 C1728 1.377 . S
C1729 C1730 1.379 . S
C1730 H1714 0.931 . S
C1730 C1724 1.383 . S
C1730 C1729 1.379 . S
H1731 C1725 0.959 1_545 S
H1732 C1725 0.961 . S
H1733 C1725 0.960 . S
H1734 C1726 0.930 . S
H1735 C1727 0.929 . S
H1736 C1744 0.929 . S
H1737 C1746 0.930 . S
H1738 C1748 0.930 . S
H1739 C1751 0.937 . S
H1740 C1754 0.930 . S
H1741 C1756 0.960 . S
H1742 C1756 0.960 . S
H1743 C1756 0.960 . S
C1744 H1736 0.929 . S
C1744 C1745 1.377 . S
C1744 C1746 1.384 . S
C1745 C1744 1.377 . S
C1745 C1751 1.383 1_554 S
C1746 H1737 0.930 . S
C1746 C1744 1.384 . S
C1746 C1747 1.372 . S
C1747 C1746 1.372 . S
C1747 C1748 1.400 1_554 S
C1747 C1752 1.490 . S
C1748 H1738 0.930 . S
C1748 C1747 1.400 1_556 S
C1748 C1751 1.385 . S
H1749 C1765 0.930 . S
H1750 C1766 0.931 . S
C1751 H1739 0.937 . S
C1751 C1745 1.383 1_556 S
C1751 C1748 1.385 . S
C1752 C1747 1.490 . S
C1752 C1754 1.395 1_554 S
C1752 C1755 1.403 . S
H1753 C1759 0.930 . S
C1754 H1740 0.930 . S
C1754 C1752 1.395 1_556 S
C1754 C1757 1.403 . S
C1755 C1752 1.403 . S
C1755 C1756 1.524 . S
C1755 C1759 1.400 . S
C1756 H1741 0.960 . S
C1756 H1742 0.960 . S
C1756 H1743 0.960 . S
C1756 C1755 1.524 . S
C1757 C1754 1.403 . S
C1757 C1758 1.392 . S
C1757 C1761 1.495 . S
C1758 C1757 1.392 . S
C1758 C1759 1.385 1_556 S
C1758 C1760 1.478 . S
C1759 H1753 0.930 . S
C1759 C1755 1.400 . S
C1759 C1758 1.385 1_554 S
C1760 C1758 1.478 . S
C1760 C1762 1.381 1_556 S
C1760 C1766 1.383 . S
C1761 C1757 1.495 . S
C1761 H1767 0.959 . S
C1761 H1768 0.961 . S
C1761 H1769 0.960 . S
C1762 C1760 1.381 1_554 S
C1762 C1763 1.394 . S
C1762 H1770 0.930 . S
C1763 C1762 1.394 . S
C1763 C1764 1.383 1_554 S
C1763 H1771 0.929 . S
C1764 C1763 1.383 1_556 S
C1764 C1765 1.377 . S
C1765 H1749 0.930 . S
C1765 C1764 1.377 . S
C1765 C1766 1.379 . S
C1766 H1750 0.931 . S
C1766 C1760 1.383 . S
C1766 C1765 1.379 . S
H1767 C1761 0.959 . S
H1768 C1761 0.961 . S
H1769 C1761 0.960 . S
H1770 C1762 0.930 . S
H1771 C1763 0.929 . S
H1772 C1780 0.929 . S
H1773 C1782 0.930 . S
H1774 C1784 0.930 . S
H1775 C1787 0.929 . S
H1776 C1790 0.930 . S
H1777 C1792 0.960 . S
H1778 C1792 0.960 . S
H1779 C1792 0.960 . S
C1780 H1772 0.929 . S
C1780 C1781 1.377 . S
C1780 C1782 1.384 . S
C1781 C1780 1.377 . S
C1781 C1787 1.390 . S
C1782 H1773 0.930 . S
C1782 C1780 1.384 . S
C1782 C1783 1.372 . S
C1783 C1782 1.372 . S
C1783 C1784 1.400 . S
C1783 C1788 1.490 . S
C1784 H1774 0.930 . S
C1784 C1783 1.400 . S
C1784 C1787 1.386 . S
H1785 C1801 0.930 . S
H1786 C1802 0.931 . S
C1787 H1775 0.929 . S
C1787 C1781 1.390 . S
C1787 C1784 1.386 . S
C1788 C1783 1.490 . S
C1788 C1790 1.395 . S
C1788 C1791 1.403 . S
H1789 C1795 0.930 . S
C1790 H1776 0.930 . S
C1790 C1788 1.395 . S
C1790 C1793 1.403 1_545 S
C1791 C1788 1.403 . S
C1791 C1792 1.524 . S
C1791 C1795 1.400 1_545 S
C1792 H1777 0.960 . S
C1792 H1778 0.960 . S
C1792 H1779 0.960 . S
C1792 C1791 1.524 . S
C1793 C1790 1.403 1_565 S
C1793 C1794 1.392 . S
C1793 C1797 1.495 . S
C1794 C1793 1.392 . S
C1794 C1795 1.385 . S
C1794 C1796 1.478 . S
C1795 H1789 0.930 . S
C1795 C1791 1.400 1_565 S
C1795 C1794 1.385 . S
C1796 C1794 1.478 . S
C1796 C1798 1.381 . S
C1796 C1802 1.383 . S
C1797 C1793 1.495 . S
C1797 H1803 0.959 . S
C1797 H1804 0.961 . S
C1797 H1805 0.960 . S
C1798 C1796 1.381 . S
C1798 C1799 1.394 . S
C1798 H1806 0.930 . S
C1799 C1798 1.394 . S
C1799 C1800 1.383 . S
C1799 H1807 0.929 . S
C1800 C1799 1.383 . S
C1800 C1801 1.377 . S
C1801 H1785 0.930 . S
C1801 C1800 1.377 . S
C1801 C1802 1.379 . S
C1802 H1786 0.931 . S
C1802 C1796 1.383 . S
C1802 C1801 1.379 . S
H1803 C1797 0.959 . S
H1804 C1797 0.961 . S
H1805 C1797 0.960 . S
H1806 C1798 0.930 . S
H1807 C1799 0.929 . S
H1808 C1816 0.929 . S
H1809 C1818 0.930 . S
H1810 C1820 0.930 1_554 S
H1811 C1823 0.929 1_554 S
H1812 C1826 0.930 . S
H1813 C1828 0.960 1_545 S
H1814 C1828 0.960 1_546 S
H1815 C1828 0.960 . S
C1816 H1808 0.929 . S
C1816 C1817 1.377 . S
C1816 C1818 1.384 . S
C1817 C1816 1.377 . S
C1817 C1823 1.390 . S
C1818 H1809 0.930 . S
C1818 C1816 1.384 . S
C1818 C1819 1.372 . S
C1819 C1818 1.372 . S
C1819 C1820 1.400 . S
C1819 C1824 1.490 . S
C1820 H1810 0.930 1_556 S
C1820 C1819 1.400 . S
C1820 C1823 1.386 . S
H1821 C1837 0.930 1_554 S
H1822 C1838 0.931 1_554 S
C1823 H1811 0.929 1_556 S
C1823 C1817 1.390 . S
C1823 C1820 1.386 . S
C1824 C1819 1.490 . S
C1824 C1826 1.395 . S
C1824 C1827 1.403 . S
H1825 C1831 0.930 . S
C1826 H1812 0.930 . S
C1826 C1824 1.395 . S
C1826 C1829 1.403 . S
C1827 C1824 1.403 . S
C1827 C1828 1.524 1_556 S
C1827 C1831 1.400 . S
C1828 H1813 0.960 1_565 S
C1828 H1814 0.960 1_564 S
C1828 H1815 0.960 . S
C1828 C1827 1.524 1_554 S
C1829 C1826 1.403 . S
C1829 C1830 1.392 . S
C1829 C1833 1.495 . S
C1830 C1829 1.392 . S
C1830 C1831 1.385 . S
C1830 C1832 1.478 . S
C1831 H1825 0.930 . S
C1831 C1827 1.400 . S
C1831 C1830 1.385 . S
C1832 C1830 1.478 . S
C1832 C1834 1.381 . S
C1832 C1838 1.383 . S
C1833 C1829 1.495 . S
C1833 H1839 0.959 . S
C1833 H1840 0.961 . S
C1833 H1841 0.960 . S
C1834 C1832 1.381 . S
C1834 C1835 1.394 . S
C1834 H1842 0.930 . S
C1835 C1834 1.394 . S
C1835 C1836 1.383 . S
C1835 H1843 0.929 . S
C1836 C1835 1.383 . S
C1836 C1837 1.377 . S
C1837 H1821 0.930 1_556 S
C1837 C1836 1.377 . S
C1837 C1838 1.379 . S
C1838 H1822 0.931 1_556 S
C1838 C1832 1.383 . S
C1838 C1837 1.379 . S
H1839 C1833 0.959 . S
H1840 C1833 0.961 . S
H1841 C1833 0.960 . S
H1842 C1834 0.930 . S
H1843 C1835 0.929 . S
H1844 C1852 0.929 . S
H1845 C1854 0.930 . S
H1846 C1856 0.930 . S
H1847 C1859 0.929 . S
H1848 C1862 0.930 . S
H1849 C1864 0.960 . S
H1850 C1864 0.960 . S
H1851 C1864 0.960 . S
C1852 H1844 0.929 . S
C1852 C1853 1.377 . S
C1852 C1854 1.384 . S
C1853 C1852 1.377 . S
C1853 C1859 1.390 . S
C1854 H1845 0.930 . S
C1854 C1852 1.384 . S
C1854 C1855 1.372 . S
C1855 C1854 1.372 . S
C1855 C1856 1.400 . S
C1855 C1860 1.490 . S
C1856 H1846 0.930 . S
C1856 C1855 1.400 . S
C1856 C1859 1.386 . S
H1857 C1873 0.930 . S
H1858 C1874 0.931 . S
C1859 H1847 0.929 . S
C1859 C1853 1.390 . S
C1859 C1856 1.386 . S
C1860 C1855 1.490 . S
C1860 C1862 1.395 . S
C1860 C1863 1.403 . S
H1861 C1867 0.930 . S
C1862 H1848 0.930 . S
C1862 C1860 1.395 . S
C1862 C1865 1.403 . S
C1863 C1860 1.403 . S
C1863 C1864 1.524 . S
C1863 C1867 1.400 . S
C1864 H1849 0.960 . S
C1864 H1850 0.960 . S
C1864 H1851 0.960 . S
C1864 C1863 1.524 . S
C1865 C1862 1.403 . S
C1865 C1866 1.392 . S
C1865 C1869 1.495 . S
C1866 C1865 1.392 . S
C1866 C1867 1.385 . S
C1866 C1868 1.478 . S
C1867 H1861 0.930 . S
C1867 C1863 1.400 . S
C1867 C1866 1.385 . S
C1868 C1866 1.478 . S
C1868 C1870 1.381 . S
C1868 C1874 1.383 . S
C1869 C1865 1.495 . S
C1869 H1875 0.959 . S
C1869 H1876 0.961 . S
C1869 H1877 0.960 . S
C1870 C1868 1.381 . S
C1870 C1871 1.394 . S
C1870 H1878 0.930 . S
C1871 C1870 1.394 . S
C1871 C1872 1.383 . S
C1871 H1879 0.929 . S
C1872 C1871 1.383 . S
C1872 C1873 1.377 . S
C1873 H1857 0.930 . S
C1873 C1872 1.377 . S
C1873 C1874 1.379 . S
C1874 H1858 0.931 . S
C1874 C1868 1.383 . S
C1874 C1873 1.379 . S
H1875 C1869 0.959 . S
H1876 C1869 0.961 . S
H1877 C1869 0.960 . S
H1878 C1870 0.930 . S
H1879 C1871 0.929 . S
H1880 C1888 0.929 . S
H1881 C1890 0.930 . S
H1882 C1892 0.930 . S
H1883 C1895 0.929 . S
H1884 C1898 0.930 . S
H1885 C1900 0.960 . S
H1886 C1900 0.960 . S
H1887 C1900 0.960 . S
C1888 H1880 0.929 . S
C1888 C1889 1.377 . S
C1888 C1890 1.384 . S
C1889 C1888 1.377 . S
C1889 C1895 1.390 . S
C1890 H1881 0.930 . S
C1890 C1888 1.384 . S
C1890 C1891 1.372 . S
C1891 C1890 1.372 . S
C1891 C1892 1.400 . S
C1891 C1896 1.490 . S
C1892 H1882 0.930 . S
C1892 C1891 1.400 . S
C1892 C1895 1.386 . S
H1893 C1909 0.930 . S
H1894 C1910 0.931 . S
C1895 H1883 0.929 . S
C1895 C1889 1.390 . S
C1895 C1892 1.386 . S
C1896 C1891 1.490 . S
C1896 C1898 1.395 . S
C1896 C1899 1.403 . S
H1897 C1903 0.930 . S
C1898 H1884 0.930 . S
C1898 C1896 1.395 . S
C1898 C1901 1.403 . S
C1899 C1896 1.403 . S
C1899 C1900 1.524 . S
C1899 C1903 1.400 . S
C1900 H1885 0.960 . S
C1900 H1886 0.960 . S
C1900 H1887 0.960 . S
C1900 C1899 1.524 . S
C1901 C1898 1.403 . S
C1901 C1902 1.392 . S
C1901 C1905 1.495 . S
C1902 C1901 1.392 . S
C1902 C1903 1.385 . S
C1902 C1904 1.478 . S
C1903 H1897 0.930 . S
C1903 C1899 1.400 . S
C1903 C1902 1.385 . S
C1904 C1902 1.478 . S
C1904 C1906 1.381 . S
C1904 C1910 1.383 . S
C1905 C1901 1.495 . S
C1905 H1911 0.959 . S
C1905 H1912 0.961 . S
C1905 H1913 0.960 . S
C1906 C1904 1.381 . S
C1906 C1907 1.394 . S
C1906 H1914 0.930 . S
C1907 C1906 1.394 . S
C1907 C1908 1.383 . S
C1907 H1915 0.929 . S
C1908 C1907 1.383 . S
C1908 C1909 1.377 . S
C1909 H1893 0.930 . S
C1909 C1908 1.377 . S
C1909 C1910 1.379 . S
C1910 H1894 0.931 . S
C1910 C1904 1.383 . S
C1910 C1909 1.379 . S
H1911 C1905 0.959 . S
H1912 C1905 0.961 . S
H1913 C1905 0.960 . S
H1914 C1906 0.930 . S
H1915 C1907 0.929 . S
H1916 C1924 0.929 . S
H1917 C1926 0.930 . S
H1918 C1928 0.930 . S
H1919 C1931 0.929 . S
H1920 C1934 0.930 . S
H1921 C1936 0.960 . S
H1922 C1936 0.960 1_556 S
H1923 C1936 0.960 1_556 S
C1924 H1916 0.929 . S
C1924 C1925 1.377 . S
C1924 C1926 1.384 . S
C1925 C1924 1.377 . S
C1925 C1931 1.390 . S
C1926 H1917 0.930 . S
C1926 C1924 1.384 . S
C1926 C1927 1.372 . S
C1927 C1926 1.372 . S
C1927 C1928 1.400 . S
C1927 C1932 1.490 1_556 S
C1928 H1918 0.930 . S
C1928 C1927 1.400 . S
C1928 C1931 1.386 . S
H1929 C1945 0.930 . S
H1930 C1946 0.931 . S
C1931 H1919 0.929 . S
C1931 C1925 1.390 . S
C1931 C1928 1.386 . S
C1932 C1927 1.490 1_554 S
C1932 C1934 1.395 . S
C1932 C1935 1.403 . S
H1933 C1939 0.930 . S
C1934 H1920 0.930 . S
C1934 C1932 1.395 . S
C1934 C1937 1.403 . S
C1935 C1932 1.403 . S
C1935 C1936 1.524 . S
C1935 C1939 1.400 . S
C1936 H1921 0.960 . S
C1936 H1922 0.960 1_554 S
C1936 H1923 0.960 1_554 S
C1936 C1935 1.524 . S
C1937 C1934 1.403 . S
C1937 C1938 1.392 . S
C1937 C1941 1.495 . S
C1938 C1937 1.392 . S
C1938 C1939 1.385 . S
C1938 C1940 1.478 . S
C1939 H1933 0.930 . S
C1939 C1935 1.400 . S
C1939 C1938 1.385 . S
C1940 C1938 1.478 . S
C1940 C1942 1.381 . S
C1940 C1946 1.383 . S
C1941 C1937 1.495 . S
C1941 H1947 0.959 . S
C1941 H1948 0.961 . S
C1941 H1949 0.960 . S
C1942 C1940 1.381 . S
C1942 C1943 1.394 . S
C1942 H1950 0.930 . S
C1943 C1942 1.394 . S
C1943 C1944 1.383 . S
C1943 H1951 0.929 . S
C1944 C1943 1.383 . S
C1944 C1945 1.377 . S
C1945 H1929 0.930 . S
C1945 C1944 1.377 . S
C1945 C1946 1.379 . S
C1946 H1930 0.931 . S
C1946 C1940 1.383 . S
C1946 C1945 1.379 . S
H1947 C1941 0.959 . S
H1948 C1941 0.961 . S
H1949 C1941 0.960 . S
H1950 C1942 0.930 . S
H1951 C1943 0.929 . S
H1952 C1960 0.929 . S
H1953 C1962 0.930 . S
H1954 C1964 0.930 . S
H1955 C1967 0.929 . S
H1956 C1970 0.930 . S
H1957 C1972 0.960 . S
H1958 C1972 0.960 . S
H1959 C1972 0.960 . S
C1960 H1952 0.929 . S
C1960 C1961 1.377 . S
C1960 C1962 1.384 . S
C1961 C1960 1.377 . S
C1961 C1967 1.390 . S
C1962 H1953 0.930 . S
C1962 C1960 1.384 . S
C1962 C1963 1.372 . S
C1963 C1962 1.372 . S
C1963 C1964 1.400 . S
C1963 C1968 1.490 . S
C1964 H1954 0.930 . S
C1964 C1963 1.400 . S
C1964 C1967 1.386 . S
H1965 C1981 0.930 . S
H1966 C1982 0.931 . S
C1967 H1955 0.929 . S
C1967 C1961 1.390 . S
C1967 C1964 1.386 . S
C1968 C1963 1.490 . S
C1968 C1970 1.395 . S
C1968 C1971 1.403 . S
H1969 C1975 0.930 . S
C1970 H1956 0.930 . S
C1970 C1968 1.395 . S
C1970 C1973 1.403 . S
C1971 C1968 1.403 . S
C1971 C1972 1.524 . S
C1971 C1975 1.400 . S
C1972 H1957 0.960 . S
C1972 H1958 0.960 . S
C1972 H1959 0.960 . S
C1972 C1971 1.524 . S
C1973 C1970 1.403 . S
C1973 C1974 1.392 . S
C1973 C1977 1.495 . S
C1974 C1973 1.392 . S
C1974 C1975 1.385 . S
C1974 C1976 1.478 . S
C1975 H1969 0.930 . S
C1975 C1971 1.400 . S
C1975 C1974 1.385 . S
C1976 C1974 1.478 . S
C1976 C1978 1.381 . S
C1976 C1982 1.383 . S
C1977 C1973 1.495 . S
C1977 H1983 0.959 . S
C1977 H1984 0.961 . S
C1977 H1985 0.960 . S
C1978 C1976 1.381 . S
C1978 C1979 1.394 . S
C1978 H1986 0.930 . S
C1979 C1978 1.394 . S
C1979 C1980 1.383 . S
C1979 H1987 0.929 . S
C1980 C1979 1.383 . S
C1980 C1981 1.377 . S
C1981 H1965 0.930 . S
C1981 C1980 1.377 . S
C1981 C1982 1.379 . S
C1982 H1966 0.931 . S
C1982 C1976 1.383 . S
C1982 C1981 1.379 . S
H1983 C1977 0.959 . S
H1984 C1977 0.961 . S
H1985 C1977 0.960 . S
H1986 C1978 0.930 . S
H1987 C1979 0.929 . S
H1988 C1996 0.929 . S
H1989 C1998 0.930 . S
H1990 C2000 0.930 . S
H1991 C2003 0.929 . S
H1992 C2006 0.930 . S
H1993 C2008 0.960 . S
H1994 C2008 0.960 . S
H1995 C2008 0.960 . S
C1996 H1988 0.929 . S
C1996 C1997 1.377 . S
C1996 C1998 1.384 . S
C1997 C1996 1.377 . S
C1997 C2003 1.390 . S
C1998 H1989 0.930 . S
C1998 C1996 1.384 . S
C1998 C1999 1.372 . S
C1999 C1998 1.372 . S
C1999 C2000 1.400 . S
C1999 C2004 1.490 . S
C2000 H1990 0.930 . S
C2000 C1999 1.400 . S
C2000 C2003 1.386 . S
H2001 C2017 0.930 . S
H2002 C2018 0.931 . S
C2003 H1991 0.929 . S
C2003 C1997 1.390 . S
C2003 C2000 1.386 . S
C2004 C1999 1.490 . S
C2004 C2006 1.395 . S
C2004 C2007 1.403 . S
H2005 C2011 0.930 . S
C2006 H1992 0.930 . S
C2006 C2004 1.395 . S
C2006 C2009 1.403 . S
C2007 C2004 1.403 . S
C2007 C2008 1.524 . S
C2007 C2011 1.400 . S
C2008 H1993 0.960 . S
C2008 H1994 0.960 . S
C2008 H1995 0.960 . S
C2008 C2007 1.524 . S
C2009 C2006 1.403 . S
C2009 C2010 1.392 . S
C2009 C2013 1.495 . S
C2010 C2009 1.392 . S
C2010 C2011 1.385 . S
C2010 C2012 1.478 . S
C2011 H2005 0.930 . S
C2011 C2007 1.400 . S
C2011 C2010 1.385 . S
C2012 C2010 1.478 . S
C2012 C2014 1.381 . S
C2012 C2018 1.383 . S
C2013 C2009 1.495 . S
C2013 H2019 0.959 . S
C2013 H2020 0.961 . S
C2013 H2021 0.960 . S
C2014 C2012 1.381 . S
C2014 C2015 1.394 . S
C2014 H2022 0.930 . S
C2015 C2014 1.394 . S
C2015 C2016 1.383 . S
C2015 H2023 0.929 . S
C2016 C2015 1.383 . S
C2016 C2017 1.377 . S
C2017 H2001 0.930 . S
C2017 C2016 1.377 . S
C2017 C2018 1.379 . S
C2018 H2002 0.931 . S
C2018 C2012 1.383 . S
C2018 C2017 1.379 . S
H2019 C2013 0.959 . S
H2020 C2013 0.961 . S
H2021 C2013 0.960 . S
H2022 C2014 0.930 . S
H2023 C2015 0.929 . S
H2024 C2032 0.929 . S
H2025 C2034 0.930 . S
H2026 C2036 0.930 . S
H2027 C2039 0.929 . S
H2028 C2042 0.930 . S
H2029 C2044 0.960 . S
H2030 C2044 0.960 . S
H2031 C2044 0.960 . S
C2032 H2024 0.929 . S
C2032 C2033 1.377 1_455 S
C2032 C2034 1.384 . S
C2033 C2032 1.377 1_655 S
C2033 C2039 1.390 . S
C2034 H2025 0.930 . S
C2034 C2032 1.384 . S
C2034 C2035 1.372 1_455 S
C2035 C2034 1.372 1_655 S
C2035 C2036 1.400 . S
C2035 C2040 1.490 . S
C2036 H2026 0.930 . S
C2036 C2035 1.400 . S
C2036 C2039 1.386 . S
H2037 C2053 0.930 . S
H2038 C2054 0.931 . S
C2039 H2027 0.929 . S
C2039 C2033 1.390 . S
C2039 C2036 1.386 . S
C2040 C2035 1.490 . S
C2040 C2042 1.395 . S
C2040 C2043 1.403 1_655 S
H2041 C2047 0.930 . S
C2042 H2028 0.930 . S
C2042 C2040 1.395 . S
C2042 C2045 1.403 . S
C2043 C2040 1.403 1_455 S
C2043 C2044 1.524 . S
C2043 C2047 1.400 . S
C2044 H2029 0.960 . S
C2044 H2030 0.960 . S
C2044 H2031 0.960 . S
C2044 C2043 1.524 . S
C2045 C2042 1.403 . S
C2045 C2046 1.392 . S
C2045 C2049 1.495 . S
C2046 C2045 1.392 . S
C2046 C2047 1.385 1_655 S
C2046 C2048 1.478 . S
C2047 H2041 0.930 . S
C2047 C2043 1.400 . S
C2047 C2046 1.385 1_455 S
C2048 C2046 1.478 . S
C2048 C2050 1.381 . S
C2048 C2054 1.383 . S
C2049 C2045 1.495 . S
C2049 H2055 0.959 . S
C2049 H2056 0.961 . S
C2049 H2057 0.960 . S
C2050 C2048 1.381 . S
C2050 C2051 1.395 1_655 S
C2050 H2058 0.930 1_655 S
C2051 C2050 1.395 1_455 S
C2051 C2052 1.382 1_455 S
C2051 H2059 0.930 . S
C2052 C2051 1.382 1_655 S
C2052 C2053 1.377 . S
C2053 H2037 0.930 . S
C2053 C2052 1.377 . S
C2053 C2054 1.379 . S
C2054 H2038 0.931 . S
C2054 C2048 1.383 . S
C2054 C2053 1.379 . S
H2055 C2049 0.959 . S
H2056 C2049 0.961 . S
H2057 C2049 0.960 . S
H2058 C2050 0.930 1_455 S
H2059 C2051 0.930 . S
H2060 C2068 0.929 . S
H2061 C2070 0.930 . S
H2062 C2072 0.933 . S
H2063 C2075 0.933 . S
H2064 C2078 0.930 . S
H2065 C2080 0.960 . S
H2066 C2080 0.960 . S
H2067 C2080 0.960 . S
C2068 H2060 0.929 . S
C2068 C2069 1.377 . S
C2068 C2070 1.384 . S
C2069 C2068 1.377 . S
C2069 C2075 1.390 . S
C2070 H2061 0.930 . S
C2070 C2068 1.384 . S
C2070 C2071 1.372 . S
C2071 C2070 1.372 . S
C2071 C2072 1.400 . S
C2071 C2076 1.490 . S
C2072 H2062 0.933 . S
C2072 C2071 1.400 . S
C2072 C2075 1.386 . S
H2073 C2089 0.930 . S
H2074 C2090 0.931 . S
C2075 H2063 0.933 . S
C2075 C2069 1.390 . S
C2075 C2072 1.386 . S
C2076 C2071 1.490 . S
C2076 C2078 1.395 . S
C2076 C2079 1.403 1_545 S
H2077 C2083 0.930 . S
C2078 H2064 0.930 . S
C2078 C2076 1.395 . S
C2078 C2081 1.403 . S
C2079 C2076 1.403 1_565 S
C2079 C2080 1.524 . S
C2079 C2083 1.400 . S
C2080 H2065 0.960 . S
C2080 H2066 0.960 . S
C2080 H2067 0.960 . S
C2080 C2079 1.524 . S
C2081 C2078 1.403 . S
C2081 C2082 1.392 . S
C2081 C2085 1.495 . S
C2082 C2081 1.392 . S
C2082 C2083 1.385 1_545 S
C2082 C2084 1.478 . S
C2083 H2077 0.930 . S
C2083 C2079 1.400 . S
C2083 C2082 1.385 1_565 S
C2084 C2082 1.478 . S
C2084 C2086 1.381 . S
C2084 C2090 1.383 . S
C2085 C2081 1.495 . S
C2085 H2091 0.959 . S
C2085 H2092 0.961 . S
C2085 H2093 0.960 . S
C2086 C2084 1.381 . S
C2086 C2087 1.394 . S
C2086 H2094 0.930 . S
C2087 C2086 1.394 . S
C2087 C2088 1.383 . S
C2087 H2095 0.929 . S
C2088 C2087 1.383 . S
C2088 C2089 1.377 . S
C2089 H2073 0.930 . S
C2089 C2088 1.377 . S
C2089 C2090 1.379 . S
C2090 H2074 0.931 . S
C2090 C2084 1.383 . S
C2090 C2089 1.379 . S
H2091 C2085 0.959 . S
H2092 C2085 0.961 . S
H2093 C2085 0.960 . S
H2094 C2086 0.930 . S
H2095 C2087 0.929 . S
C953 C5 1.842 . S
C972 C418 1.822 . S
C989 C64 1.984 . S
C1008 C241 1.977 . S
C1025 C300 1.763 . S
C1044 C123 1.778 . S
C1061 C182 1.997 . S
C1080 C359 1.956 . S
C1097 C477 1.984 . S
C1116 C713 1.973 . S
C1133 C536 1.762 . S
C1152 C831 1.777 . S
C1169 C654 1.996 1_655 S
C1188 C595 1.948 . S
C1205 C890 1.837 . S
C1224 C772 1.845 . S
C1241 C52 0.896 . S
C1260 C357 0.891 . S
C1277 C446 1.578 . S
C1296 C92 1.598 . S
C1313 C170 0.779 . S
C1332 C239 0.794 . S
C1349 C328 1.830 . S
C1368 C180 1.815 . S
C1385 C33 1.123 . S
C1404 C859 1.115 . S
C1421 C701 0.332 . S
C1440 C62 0.513 . S
C1457 C800 1.122 . S
C1476 C151 1.112 . S
C1493 C711 0.468 . S
C1512 C229 0.324 . S
C1529 C642 2.100 . S
C1548 C288 2.102 . S
C1565 C298 0.856 . S
C1584 C888 0.855 . S
C1601 C406 2.101 . S
C1620 C524 2.103 . S
C1637 C416 0.851 1_554 S
C1656 C534 0.819 . S
C1673 C3 1.574 . S
C1692 C269 1.561 . S
C1709 C505 1.584 . S
C1728 C770 1.596 . S
C1745 C760 1.618 . S
C1764 C583 1.622 . S
C1781 C829 1.030 . S
C1800 C623 0.966 . S
C1817 C465 1.384 . S
C1836 C210 1.369 . S
C1853 C121 1.031 . S
C1872 C387 0.964 . S
C1889 C682 1.366 . S
C1908 C937 1.375 . S
C1925 C819 0.897 . S
C1944 C593 0.838 . S
C1961 C918 1.572 . S
C1980 C741 1.561 . S
C1997 C878 0.781 . S
C2016 C475 0.760 . S
C2033 C652 1.843 1_655 S
C2052 C564 1.823 . S
C2069 C111 1.619 . S
C2088 C347 1.618 . S
