# Generated by pormake.
# Topology snp, (6)-cn, num edge types: 1
# Building blocks:
#     Node 0, Type 0, BuildingBlock: BETDIP_clean_sbu_0, # of connection points: 6
#     Node 1, Type 0, BuildingBlock: BETDIP_clean_sbu_0, # of connection points: 6
#     Node 2, Type 0, BuildingBlock: BETDIP_clean_sbu_0, # of connection points: 6
#     Node 3, Type 0, BuildingBlock: BETDIP_clean_sbu_0, # of connection points: 6
#     Edge 4, Type (0, 0), BuildingBlock: FUNLAD_clean_linker_1, # of connection points: 2
#     Edge 5, Type (0, 0), BuildingBlock: FUNLAD_clean_linker_1, # of connection points: 2
#     Edge 6, Type (0, 0), BuildingBlock: FUNLAD_clean_linker_1, # of connection points: 2
#     Edge 7, Type (0, 0), BuildingBlock: FUNLAD_clean_linker_1, # of connection points: 2
#     Edge 8, Type (0, 0), BuildingBlock: FUNLAD_clean_linker_1, # of connection points: 2
#     Edge 9, Type (0, 0), BuildingBlock: FUNLAD_clean_linker_1, # of connection points: 2
#     Edge 10, Type (0, 0), BuildingBlock: FUNLAD_clean_linker_1, # of connection points: 2
#     Edge 11, Type (0, 0), BuildingBlock: FUNLAD_clean_linker_1, # of connection points: 2
#     Edge 12, Type (0, 0), BuildingBlock: FUNLAD_clean_linker_1, # of connection points: 2
#     Edge 13, Type (0, 0), BuildingBlock: FUNLAD_clean_linker_1, # of connection points: 2
#     Edge 14, Type (0, 0), BuildingBlock: FUNLAD_clean_linker_1, # of connection points: 2
#     Edge 15, Type (0, 0), BuildingBlock: FUNLAD_clean_linker_1, # of connection points: 2
# Relax obj value: 0.693
# Max RMSD: 0.181
# Mean RMSD: 0.170
data_MOF--net-snp--node1-BETDIP_clean_sbu_0--edge1-FUNLAD_clean_linker_1
_symmetry_space_group_name_H-M    P1
_symmetry_Int_Tables_number       1
_symmetry_cell_setting            triclinic
loop_
_symmetry_equiv_pos_as_xyz
'x, y, z'
_cell_length_a     25.478695
_cell_length_b     25.969409
_cell_length_c     30.046407
_cell_angle_alpha  91.167915
_cell_angle_beta   92.905366
_cell_angle_gamma 103.52253
loop_
_atom_site_label
_atom_site_type_symbol
_atom_site_fract_x
_atom_site_fract_y
_atom_site_fract_z
_atom_type_partial_charge
Tb0 Tb 0.24754 0.07893 0.19568 0.0
Tb1 Tb 0.32087 0.17884 0.18369 0.0
C2 C 0.20553 0.98274 0.20696 0.0
C3 C 0.22102 0.93279 0.19842 0.0
C4 C 0.19601 0.88806 0.22133 0.0
C5 C 0.21836 0.8439 0.22269 0.0
C6 C 0.26634 0.84432 0.20152 0.0
C7 C 0.28904 0.88747 0.17578 0.0
C8 C 0.2668 0.93184 0.17458 0.0
C9 C 0.2007 0.1613 0.18175 0.0
C10 C 0.25949 0.15709 0.27852 0.0
C11 C 0.37263 0.27322 0.17666 0.0
C12 C 0.4119 0.29925 1.14526 0.0
C13 C 0.44255 0.27014 1.12228 0.0
C14 C 0.4724 0.29228 1.08685 0.0
C15 C 0.47211 0.34378 1.0737 0.0
C16 C 0.44412 0.3741 1.09875 0.0
C17 C 0.41423 0.35184 1.13426 0.0
C18 C 0.37424 0.10333 0.18897 0.0
C19 C 0.28511 0.09948 1.09646 0.0
O20 O 0.19282 0.0084 0.1725 0.0
O21 O 0.23797 0.01388 0.23642 0.0
O22 O 0.23982 0.14972 0.16379 0.0
O23 O 0.18257 0.12132 0.20633 0.0
O24 O 0.24063 0.108 0.26323 0.0
O25 O 0.29207 0.19144 0.25336 0.0
O26 O 0.32369 0.25437 1.15918 0.0
O27 O 0.38838 0.23985 0.20328 0.0
O28 O 0.33458 0.10659 0.21276 0.0
O29 O 0.38278 0.14217 0.16225 0.0
O30 O 0.30779 0.14913 1.11174 0.0
O31 O 0.2631 0.06363 1.12504 0.0
H32 H 0.16101 0.88843 0.24028 0.0
H33 H 0.19953 0.81038 0.24184 0.0
H34 H 0.32593 0.88829 1.15909 0.0
H35 H 0.28711 0.96648 1.15733 0.0
H36 H 0.44125 0.2294 1.13011 0.0
H37 H 0.49311 0.26787 1.06794 0.0
H38 H 0.44167 0.41343 1.08922 0.0
H39 H 0.39047 0.3747 1.1515 0.0
Tb40 Tb 0.0247 0.31908 0.66358 0.0
Tb41 Tb 0.12566 0.29472 0.6863 0.0
C42 C 0.9537 0.37227 0.66199 0.0
C43 C 0.94002 0.41306 0.63376 0.0
C44 C 0.89121 0.42809 0.63862 0.0
C45 C 0.87368 0.46054 0.60741 0.0
C46 C 0.90475 0.47801 0.57101 0.0
C47 C 0.95617 0.46702 0.56884 0.0
C48 C 0.97317 0.43389 0.59952 0.0
C49 C 0.01831 0.22271 0.63954 0.0
C50 C 0.09799 0.29957 0.58336 0.0
C51 C 0.21671 0.27253 0.69483 0.0
C52 C 0.26876 0.30018 0.71666 0.0
C53 C 0.30388 0.27095 0.73482 0.0
C54 C 0.35074 0.29663 0.75989 0.0
C55 C 0.36271 0.35199 0.76749 0.0
C56 C 0.32911 0.38133 0.74689 0.0
C57 C 0.28229 0.35565 0.7219 0.0
C58 C 0.12478 0.39743 0.69884 0.0
C59 C 0.04229 0.26984 0.76221 0.0
O60 O 0.99946 0.38603 0.68582 0.0
O61 O 0.9469 0.32549 0.64261 0.0
O62 O 0.04493 0.24494 0.67488 0.0
O63 O 0.99016 0.25241 0.62034 0.0
O64 O 0.06179 0.32655 0.59611 0.0
O65 O 0.12219 0.27646 0.61422 0.0
O66 O 0.17777 0.25596 0.72145 0.0
O67 O 0.20042 0.29513 0.66009 0.0
O68 O 0.10421 0.36709 0.66636 0.0
O69 O 0.14858 0.37064 0.72528 0.0
O70 O 0.08922 0.26433 0.74831 0.0
O71 O 1.01088 0.29169 0.73493 0.0
H72 H 0.86532 0.41242 0.66508 0.0
H73 H 0.83406 0.46861 0.60986 0.0
H74 H 0.98183 0.48126 0.54188 0.0
H75 H 1.01086 0.42245 0.59515 0.0
H76 H 0.29424 0.22816 0.73076 0.0
H77 H 0.37662 0.27292 0.77421 0.0
H78 H 0.33748 0.42395 0.75211 0.0
H79 H 0.25581 0.37902 0.70794 0.0
Tb80 Tb 0.8968 0.12535 0.19401 0.0
Tb81 Tb 0.86833 0.02314 1.15492 0.0
C82 C 0.88986 0.21858 0.21182 0.0
C83 C 0.87148 0.25275 0.24373 0.0
C84 C 0.87392 0.30529 0.23259 0.0
C85 C 0.85586 0.33921 0.26153 0.0
C86 C 0.8348 0.32085 0.30219 0.0
C87 C 0.83219 0.26788 0.31306 0.0
C88 C 0.85012 0.23385 0.28389 0.0
C89 C 0.98347 0.09417 0.16953 0.0
C90 C 0.91623 0.03936 0.25949 0.0
C91 C 0.85837 0.92632 1.13484 0.0
C92 C 0.88525 0.88966 1.11195 0.0
C93 C 0.88229 0.88417 1.06527 0.0
C94 C 0.90326 0.84547 1.04446 0.0
C95 C 0.92708 0.8111 1.06995 0.0
C96 C 0.93169 0.81781 1.11645 0.0
C97 C 0.91046 0.85637 1.13732 0.0
C98 C 0.78162 0.05694 0.17834 0.0
C99 C 0.88839 0.11428 1.08431 0.0
O100 O 0.85198 0.18313 0.19001 0.0
O101 O 0.93185 0.20023 0.22385 0.0
O102 O 0.93788 0.08516 1.14911 0.0
O103 O 0.98147 0.12323 0.20462 0.0
O104 O 0.90678 0.08758 0.2589 0.0
O105 O 0.90769 0.01035 0.22146 0.0
O106 O 0.88275 0.94961 0.17157 0.0
O107 O 0.8368 0.95818 1.11078 0.0
O108 O 0.82619 0.06323 0.20078 0.0
O109 O 0.7843 0.0293 1.14293 0.0
O110 O 0.88939 0.06365 1.09003 0.0
O111 O 0.88569 0.14317 1.12103 0.0
H112 H 0.89032 0.32029 0.20153 0.0
H113 H 0.86029 0.38003 0.25247 0.0
H114 H 0.81678 0.25296 0.34444 0.0
H115 H 0.84769 0.19314 0.29271 0.0
H116 H 0.86317 0.90921 1.04478 0.0
H117 H 0.90091 0.84277 1.00838 0.0
H118 H 0.9505 0.79232 1.13672 0.0
H119 H 0.91285 0.85946 0.17342 0.0
Tb120 Tb 0.06015 0.86783 0.68121 0.0
Tb121 Tb 0.17209 0.91499 0.65613 0.0
C122 C 0.98027 0.79696 0.70128 0.0
C123 C 0.97081 0.75361 0.73241 0.0
C124 C 1.01436 0.73763 0.75359 0.0
C125 C 1.00507 0.69883 0.78557 0.0
C126 C 0.95194 0.67538 0.79692 0.0
C127 C 0.9085 0.68942 0.77341 0.0
C128 C 0.91786 0.72828 0.74143 0.0
C129 C 0.08564 0.97028 0.68413 0.0
C130 C 0.15609 0.90525 0.76115 0.0
C131 C 0.25559 0.9646 0.62101 0.0
C132 C 0.27326 0.96141 0.57501 0.0
C133 C 0.24121 0.97082 0.5379 0.0
C134 C 0.25392 0.95931 0.49461 0.0
C135 C 0.29884 0.93778 0.48755 0.0
C136 C 0.33271 0.93185 0.52451 0.0
C137 C 0.32003 0.94341 0.56776 0.0
C138 C 0.14386 0.80938 0.65659 0.0
C139 C 0.06948 0.91403 0.58368 0.0
O140 O 1.0117 0.79162 0.66929 0.0
O141 O 0.99185 0.8451 0.719 0.0
O142 O 0.11612 0.94069 0.69442 0.0
O143 O 0.03648 0.94272 0.67477 0.0
O144 O 0.1085 0.87219 0.74767 0.0
O145 O 0.18668 0.9317 0.73012 0.0
O146 O 0.2132 0.9841 0.62617 0.0
O147 O 0.2539 0.9222 0.6442 0.0
O148 O 0.11592 0.84039 0.64263 0.0
O149 O 0.19144 0.83752 0.66878 0.0
O150 O 0.12293 0.92814 0.59364 0.0
O151 O 0.03689 0.88712 0.61279 0.0
H152 H 0.05559 0.75653 0.74656 0.0
H153 H 0.03987 0.69026 0.80307 0.0
H154 H 0.86723 0.67249 0.78162 0.0
H155 H 0.88381 0.73983 0.72486 0.0
H156 H 0.2053 0.98548 0.54221 0.0
H157 H 0.22783 0.96653 0.46709 0.0
H158 H 0.36797 0.91607 0.52013 0.0
H159 H 0.34561 0.93616 0.59571 0.0
H160 H 0.07047 0.11832 0.16591 0.0
C161 C 0.0331 0.10659 1.14515 0.0
H162 H 0.99472 0.11687 1.08299 0.0
H163 H 0.13852 0.33229 0.17728 0.0
H164 H 0.04806 0.3455 0.18829 0.0
H165 H 0.96714 0.28189 1.15506 0.0
H166 H 0.97656 0.20369 1.112 0.0
C167 C 0.03175 0.12579 1.10384 0.0
C168 C 0.07052 0.17619 1.09633 0.0
C169 C 0.06404 0.22234 1.11897 0.0
C170 C 0.11034 0.25916 1.13719 0.0
C171 C 0.10398 0.30314 0.16293 0.0
C172 C 0.05254 0.31117 0.16916 0.0
C173 C 1.00692 0.27522 1.15059 0.0
C174 C 1.01248 0.23071 1.12621 0.0
H175 H 0.21572 0.22722 0.23214 0.0
C176 C 0.204 0.21687 0.19741 0.0
H177 H 0.21072 0.2967 0.18668 0.0
H178 H 0.09158 0.10866 1.0335 0.0
H179 H 0.17938 0.11431 1.00227 0.0
H180 H 0.26012 0.18424 1.03049 0.0
H181 H 0.25283 0.24525 1.09134 0.0
C182 C 0.19992 0.25731 0.17107 0.0
C183 C 0.16149 0.24874 1.13163 0.0
C184 C 0.1669 0.21396 1.0967 0.0
C185 C 0.1208 0.1759 1.07964 0.0
C186 C 0.12624 0.13859 1.0468 0.0
C187 C 0.17622 0.14185 1.0288 0.0
C188 C 0.22141 0.18085 1.04461 0.0
C189 C 0.21725 0.21568 1.07936 0.0
H190 H 0.06828 0.04657 0.68568 0.0
C191 C 0.09861 0.02598 0.69649 0.0
H192 H 0.17513 0.03023 0.73069 0.0
H193 H 0.1278 0.17997 0.59344 0.0
H194 H 0.21973 0.18016 0.57215 0.0
H195 H 0.28358 0.15036 0.62469 0.0
H196 H 0.25503 0.11868 0.69849 0.0
C197 C 0.14438 0.05092 0.72042 0.0
C198 C 0.15531 0.10908 0.7278 0.0
C199 C 0.17568 0.13526 0.68985 0.0
C200 C 0.13913 0.15268 0.66019 0.0
C201 C 0.1553 0.16785 0.61732 0.0
C202 C 0.20745 0.16783 0.60498 0.0
C203 C 0.24353 0.15112 0.63464 0.0
C204 C 0.22744 0.13381 0.67659 0.0
H205 H 0.98076 0.15295 0.59733 0.0
C206 C 1.01128 0.16764 0.62406 0.0
H207 H 0.0345 0.0963 0.62243 0.0
H208 H 0.12834 0.09686 0.81273 0.0
H209 H 0.04021 0.10191 0.84011 0.0
H210 H 0.9714 0.1263 0.7893 0.0
H211 H 0.99131 0.15129 0.71308 0.0
C212 C 0.04156 0.13546 0.63834 0.0
C213 C 0.0859 0.14991 0.67309 0.0
C214 C 0.07411 0.14152 0.71845 0.0
C215 C 0.11251 0.12516 0.74722 0.0
C216 C 0.10004 0.11123 0.79105 0.0
C217 C 0.04978 0.11304 0.80642 0.0
C218 C 1.01095 0.12685 0.77776 0.0
C219 C 0.02277 0.14112 0.73419 0.0
H220 H 0.73322 0.10065 0.21859 0.0
C221 C 0.73025 0.06923 0.19353 0.0
H222 H 0.67974 0.01213 1.15034 0.0
H223 H 0.49005 0.07612 0.2737 0.0
H224 H 0.53974 0.0548 0.33917 0.0
H225 H 0.62828 0.03298 0.33293 0.0
H226 H 0.66847 0.03325 0.26143 0.0
C227 C 0.68084 0.04343 0.17519 0.0
C228 C 0.62714 0.05835 0.18134 0.0
C229 C 0.60292 0.05652 0.22325 0.0
C230 C 0.5503 0.06738 0.22675 0.0
C231 C 0.52893 0.06737 0.2692 0.0
C232 C 0.55703 0.05515 0.30697 0.0
C233 C 0.60697 0.04291 0.30345 0.0
C234 C 0.62977 0.04346 0.26221 0.0
H235 H 0.41117 0.03783 0.214 0.0
C236 C 0.41995 0.07733 0.20091 0.0
H237 H 0.47798 0.14166 0.17827 0.0
H238 H 0.65914 0.06675 1.09559 0.0
H239 H 0.60635 0.08147 1.03006 0.0
H240 H 0.51363 0.09318 1.0356 0.0
H241 H 0.47328 0.09075 1.10699 0.0
C242 C 0.47148 0.10198 0.19116 0.0
C243 C 0.5204 0.07826 0.18827 0.0
C244 C 0.5435 0.07735 1.14622 0.0
C245 C 0.59662 0.06855 1.14284 0.0
C246 C 0.61857 0.07107 1.10026 0.0
C247 C 0.58882 0.07994 1.06222 0.0
C248 C 0.53672 0.08673 1.06536 0.0
C249 C 0.5142 0.08558 1.10666 0.0
H250 H 0.16748 0.47821 0.72347 0.0
C251 C 0.13527 0.45673 0.70035 0.0
H252 H 0.07493 0.46226 0.65204 0.0
H253 H 0.14532 0.70498 0.7555 0.0
H254 H 0.12892 0.66023 0.82518 0.0
H255 H 0.10183 0.56281 0.82653 0.0
H256 H 0.09389 0.5093 0.75859 0.0
C257 C 0.10654 0.48437 0.67512 0.0
C258 C 0.11787 0.54454 0.67489 0.0
C259 C 0.11954 0.57579 0.71473 0.0
C260 C 0.13217 0.63254 0.71366 0.0
C261 C 0.13564 0.6621 0.75426 0.0
C262 C 0.12588 0.63693 0.7945 0.0
C263 C 0.11091 0.58205 0.79527 0.0
C264 C 0.10728 0.55171 0.75598 0.0
H265 H 0.08558 0.73184 0.64201 0.0
C266 C 0.12584 0.75015 0.65621 0.0
H267 H 0.19696 0.7372 0.68815 0.0
H268 H 0.11464 0.49902 0.59134 0.0
H269 H 0.12614 0.54396 0.52169 0.0
H270 H 0.14516 0.64138 0.51996 0.0
H271 H 0.15251 0.69456 0.58805 0.0
C272 C 0.15747 0.71876 0.67249 0.0
C273 C 0.14002 0.6588 0.67261 0.0
C274 C 0.13552 0.62762 0.63255 0.0
C275 C 0.1246 0.57091 0.63366 0.0
C276 C 0.12179 0.54173 0.59286 0.0
C277 C 0.12868 0.56708 0.55245 0.0
C278 C 0.13939 0.62193 0.55148 0.0
C279 C 0.14323 0.65201 0.5909 0.0
H280 H 0.08594 0.30696 0.50879 0.0
C281 C 0.11018 0.2922 0.534 0.0
H282 H 0.17155 0.25172 0.54649 0.0
H283 H 0.22794 0.12404 0.3942 0.0
H284 H 0.18597 0.05598 0.44328 0.0
H285 H 0.13084 0.076 0.50345 0.0
H286 H 0.11874 0.16485 0.51566 0.0
C287 C 0.14906 0.26673 0.52019 0.0
C288 C 0.16384 0.25291 0.47218 0.0
C289 C 0.16706 0.19986 0.46115 0.0
C290 C 0.19487 0.18706 0.42292 0.0
C291 C 0.20297 0.1351 0.41887 0.0
C292 C 0.17996 0.09567 0.44757 0.0
C293 C 0.14924 0.10697 0.48167 0.0
C294 C 0.1431 0.15829 0.48864 0.0
H295 H 0.19462 0.14441 0.32623 0.0
C296 C 0.23234 0.17229 0.32017 0.0
H297 H 0.28449 0.24372 0.34384 0.0
H298 H 0.16832 0.35823 0.47926 0.0
H299 H 0.20021 0.42473 0.42548 0.0
H300 H 0.23581 0.4012 0.35514 0.0
H301 H 0.24143 0.31128 0.33838 0.0
C302 C 0.24758 0.21476 0.35004 0.0
C303 C 0.21545 0.22607 0.39106 0.0
C304 C 0.20848 0.27849 0.4004 0.0
C305 C 0.18475 0.29199 0.44082 0.0
C306 C 0.18358 0.34542 0.44916 0.0
C307 C 0.20199 0.38412 0.41854 0.0
C308 C 0.22223 0.37089 0.37896 0.0
C309 C 0.22556 0.31899 0.36989 0.0
H310 H 0.05837 0.23312 0.82638 0.0
C311 C 0.02687 0.24767 0.80857 0.0
H312 H 0.94592 0.25294 0.81102 0.0
H313 H 0.84385 0.07866 0.94581 0.0
H314 H 0.79245 0.04876 0.87631 0.0
H315 H 0.81818 0.09278 0.8062 0.0
H316 H 0.89568 0.16672 0.80458 0.0
C317 C 0.97863 0.2407 0.82916 0.0
C318 C 0.96495 0.21184 0.87407 0.0
C319 C 0.91855 0.16844 0.87593 0.0
C320 C 0.90333 0.14233 0.91724 0.0
C321 C 0.85744 0.09931 0.91606 0.0
C322 C 0.82737 0.08184 0.87638 0.0
C323 C 0.84182 0.10671 0.83689 0.0
C324 C 0.88653 0.1494 0.8365 0.0
H325 H 0.89473 0.18393 1.04046 0.0
C326 C 0.8998 0.14356 1.04006 0.0
H327 H 0.92412 0.08609 1.00054 0.0
H328 H 0.0513 0.29565 0.88854 0.0
H329 H 0.10364 0.32361 0.95795 0.0
H330 H 0.07954 0.27691 1.02726 0.0
H331 H 1.00195 0.2023 1.02792 0.0
C332 C 0.91918 0.12649 1.00171 0.0
C333 C 0.93295 0.15905 0.95874 0.0
C334 C 0.979 0.20268 0.95713 0.0
C335 C 0.99443 0.22894 0.91576 0.0
C336 C 0.03914 0.2731 0.91762 0.0
C337 C 0.06933 0.28987 0.95744 0.0
C338 C 0.05566 0.26365 0.99655 0.0
C339 C 1.01106 0.22082 0.99654 0.0
H340 H 0.99871 0.91298 0.53623 0.0
C341 C 0.04216 0.92877 0.53991 0.0
H342 H 0.10825 0.97545 0.50857 0.0
H343 H 0.03476 0.99634 0.30853 0.0
H344 H 0.10678 0.95075 0.30301 0.0
H345 H 0.14428 0.91475 0.36931 0.0
H346 H 0.11096 0.92497 0.4422 0.0
C347 C 0.06467 0.96052 0.50613 0.0
C348 C 0.03367 0.97585 0.46369 0.0
C349 C 0.05058 0.96787 0.41977 0.0
C350 C 0.02667 0.98703 0.3802 0.0
C351 C 0.04881 0.98087 0.33877 0.0
C352 C 0.09069 0.95513 0.33518 0.0
C353 C 0.11202 0.93504 0.3726 0.0
C354 C 0.09251 0.9413 0.41433 0.0
H355 H 0.93586 0.9728 0.29815 0.0
C356 C 0.93754 0.01487 0.30152 0.0
H357 H 0.96164 0.08157 0.34526 0.0
H358 H 0.99546 0.00917 0.53927 0.0
H359 H 0.92446 0.05591 0.54504 0.0
H360 H 0.87803 0.08089 0.47788 0.0
H361 H 0.90318 0.06062 0.40413 0.0
C362 C 0.96048 0.03965 0.34145 0.0
C363 C 0.98338 0.0135 0.38266 0.0
C364 C 0.96676 0.02171 0.42668 0.0
C365 C 0.99211 0.00436 0.46635 0.0
C366 C 0.97635 0.01836 0.50852 0.0
C367 C 0.93583 0.04574 0.51235 0.0
C368 C 0.90985 0.06005 0.4745 0.0
C369 C 0.92492 0.04833 0.43227 0.0
H370 H 0.1386 0.899 0.83362 0.0
C371 C 0.16835 0.91951 0.81145 0.0
H372 H 0.2389 0.97969 0.8074 0.0
H373 H 0.26931 0.13159 0.97376 0.0
H374 H 0.26317 0.18859 0.91259 0.0
H375 H 0.23553 0.15134 0.83667 0.0
H376 H 0.2145 0.05698 0.82166 0.0
C377 C 0.21055 0.95852 0.83033 0.0
C378 C 0.21956 0.97947 0.88009 0.0
C379 C 0.2305 0.03526 0.89033 0.0
C380 C 0.24468 0.05715 0.93549 0.0
C381 C 0.25685 0.11274 0.94177 0.0
C382 C 0.25379 0.14609 0.90656 0.0
C383 C 0.23845 0.12516 0.86381 0.0
C384 C 0.22689 0.07066 0.85564 0.0
H385 H 0.31906 0.10668 1.02861 0.0
C386 C 0.28605 0.08368 1.04647 0.0
H387 H 0.21658 0.02145 1.0426 0.0
H388 H 0.21337 0.87362 0.87616 0.0
H389 H 0.22159 0.81682 0.93762 0.0
H390 H 0.23801 0.85264 1.01477 0.0
H391 H 0.24944 0.9461 1.03127 0.0
C392 C 0.24845 0.04366 1.02307 0.0
C393 C 0.24573 0.02385 0.97291 0.0
C394 C 0.23605 0.9681 0.96234 0.0
C395 C 0.22437 0.94649 0.91688 0.0
C396 C 0.2198 0.8917 0.90927 0.0
C397 C 0.22481 0.85859 0.9443 0.0
C398 C 0.23421 0.8788 0.98781 0.0
C399 C 0.24008 0.93267 0.99685 0.0
H400 H 0.98316 0.75769 1.06474 0.0
C401 C 0.94866 0.76912 1.04852 0.0
H402 H 0.89042 0.75354 0.9945 0.0
H403 H 0.07791 0.69545 0.8806 0.0
H404 H 0.13124 0.78404 0.89858 0.0
H405 H 0.10421 0.83977 0.95672 0.0
H406 H 0.02371 0.80713 0.99642 0.0
C407 C 0.92757 0.74594 1.00925 0.0
C408 C 0.95251 0.70919 0.98392 0.0
C409 C 1.00108 0.72893 0.96225 0.0
C410 C 1.01596 0.69773 0.92786 0.0
C411 C 0.0639 0.71823 0.90592 0.0
C412 C 0.09528 0.76887 0.91637 0.0
C413 C 0.08003 0.80013 0.94903 0.0
C414 C 0.03356 0.78066 0.97178 0.0
H415 H 0.903 0.64881 0.85323 0.0
C416 C 0.94063 0.6462 0.83869 0.0
H417 H 1.01607 0.62774 0.85174 0.0
H418 H 0.86454 0.65538 1.02593 0.0
H419 H 0.81124 0.5662 1.00637 0.0
H420 H 0.83591 0.51405 0.94446 0.0
H421 H 0.91445 0.55095 0.90175 0.0
C422 C 0.97917 0.63319 0.86545 0.0
C423 C 0.98048 0.64905 0.91339 0.0
C424 C 0.9365 0.62647 0.93905 0.0
C425 C 0.92235 0.65664 0.97444 0.0
C426 C 0.87668 0.63406 0.99843 0.0
C427 C 0.84599 0.58301 0.98762 0.0
C428 C 0.85989 0.55362 0.95275 0.0
C429 C 0.90462 0.57505 0.9285 0.0
H430 H 0.30588 0.78134 0.18017 0.0
C431 C 0.29531 0.80186 0.209 0.0
H432 H 0.33296 0.75814 0.25307 0.0
H433 H 0.34367 0.97966 0.37194 0.0
H434 H 0.41327 0.0193 0.32243 0.0
H435 H 0.43555 0.96715 0.25953 0.0
H436 H 0.38705 0.87583 0.24479 0.0
C437 C 0.31236 0.79017 0.24995 0.0
C438 C 0.30444 0.81942 0.29149 0.0
C439 C 0.33447 0.87223 0.30062 0.0
C440 C 0.32345 0.90142 0.33821 0.0
C441 C 0.35186 0.95503 0.34493 0.0
C442 C 0.39167 0.97838 0.3166 0.0
C443 C 0.40402 0.94915 0.28104 0.0
C444 C 0.37578 0.89677 0.2729 0.0
H445 H 0.34988 0.90997 0.43922 0.0
C446 C 0.31053 0.91868 0.44285 0.0
H447 H 0.23253 0.91037 0.41161 0.0
H448 H 0.24156 0.71841 0.2846 0.0
H449 H 0.17449 0.67734 0.33563 0.0
H450 H 0.15723 0.72677 0.40216 0.0
H451 H 0.20664 0.81748 0.41801 0.0
C452 C 0.27347 0.90604 0.40838 0.0
C453 C 0.28416 0.8769 0.36781 0.0
C454 C 0.25506 0.82365 0.35921 0.0
C455 C 0.26536 0.79489 0.32111 0.0
C456 C 0.23551 0.74193 0.31319 0.0
C457 C 0.1969 0.71788 0.3422 0.0
C458 C 0.18715 0.74572 0.37963 0.0
C459 C 0.21579 0.79791 0.38825 0.0
H460 H 0.42118 0.42226 0.79816 0.0
C461 C 0.40602 0.37966 0.80037 0.0
H462 H 0.4017 0.31427 0.84201 0.0
H463 H 0.59069 0.39909 0.98123 0.0
H464 H 0.64192 0.36016 0.92881 0.0
H465 H 0.60439 0.33354 0.85214 0.0
H466 H 0.5157 0.34587 0.82727 0.0
C467 C 0.41824 0.35619 0.83761 0.0
C468 C 0.44762 0.38664 0.87725 0.0
C469 C 0.49966 0.38025 0.89067 0.0
C470 C 0.52111 0.39515 0.9348 0.0
C471 C 0.5727 0.38756 0.94801 0.0
C472 C 0.60236 0.36558 0.91829 0.0
C473 C 0.58122 0.3506 0.87509 0.0
C474 C 0.53036 0.35766 0.86127 0.0
H475 H 0.49093 0.32736 1.00531 0.0
C476 C 0.49133 0.35964 1.02912 0.0
H477 H 0.50042 0.44233 1.03691 0.0
H478 H 0.3498 0.41238 0.85999 0.0
H479 H 0.30332 0.4576 0.91046 0.0
H480 H 0.34243 0.48598 0.98628 0.0
H481 H 0.42818 0.46877 1.01199 0.0
C482 C 0.49893 0.40912 1.01407 0.0
C483 C 0.49001 0.41553 0.96537 0.0
C484 C 0.44192 0.42952 0.94989 0.0
C485 C 0.41998 0.4141 0.90589 0.0
C486 C 0.36922 0.42412 0.89258 0.0
C487 C 0.34187 0.44997 0.92135 0.0
C488 C 0.36383 0.46587 0.96405 0.0
C489 C 0.41306 0.45557 0.97844 0.0
H490 H 0.82337 0.34544 0.37059 0.0
C491 C 0.82108 0.35706 0.33608 0.0
H492 H 0.80772 0.41761 0.29358 0.0
H493 H 0.78144 0.44177 0.51563 0.0
H494 H 0.6969 0.37569 0.50361 0.0
H495 H 0.66313 0.34137 0.42767 0.0
H496 H 0.71491 0.37286 0.36321 0.0
C497 C 0.81062 0.40456 0.32746 0.0
C498 C 0.81244 0.44288 0.36526 0.0
C499 C 0.78024 0.4273 0.4018 0.0
C500 C 0.79936 0.44786 0.44525 0.0
C501 C 0.76884 0.42797 0.48181 0.0
C502 C 0.72006 0.39009 0.4753 0.0
C503 C 0.70102 0.37074 0.43254 0.0
C504 C 0.73085 0.38885 0.39603 0.0
H505 H 0.84714 0.51941 0.53755 0.0
C506 C 0.87888 0.49873 0.53221 0.0
H507 H 0.9158 0.45908 0.48549 0.0
H508 H 0.87138 0.49538 0.29936 0.0
H509 H 0.95018 0.56949 0.31008 0.0
H510 H 0.9828 0.60615 0.38566 0.0
H511 H 0.93656 0.56854 0.45115 0.0
C512 C 0.8857 0.48172 0.49092 0.0
C513 C 0.85005 0.48485 0.45112 0.0
C514 C 0.87508 0.50891 0.41345 0.0
C515 C 0.85623 0.48787 0.3701 0.0
C516 C 0.88429 0.51006 0.33304 0.0
C517 C 0.92934 0.55259 0.3388 0.0
C518 C 0.94772 0.57325 0.38137 0.0
C519 C 0.92118 0.55151 0.4185 0.0
loop_
_geom_bond_atom_site_label_1
_geom_bond_atom_site_label_2
_geom_bond_distance
_geom_bond_site_symmetry_2
_ccdc_geom_bond_type
Tb0 C2 2.809 . S
Tb0 O20 2.484 . S
Tb0 O21 2.440 . S
Tb0 O22 2.658 1_554 S
Tb0 O23 2.409 . S
Tb0 O24 2.378 . S
Tb0 O28 2.325 . S
Tb0 O31 2.341 1_554 S
Tb1 C11 2.809 . S
Tb1 O22 2.325 . S
Tb1 O25 2.341 1_556 S
Tb1 O26 2.484 . S
Tb1 O27 2.440 . S
Tb1 O28 2.658 1_556 S
Tb1 O29 2.409 . S
Tb1 O30 2.378 . S
C2 Tb0 2.809 . S
C2 C3 1.514 . S
C2 O20 1.248 . S
C2 O21 1.266 . S
C3 C2 1.514 . S
C3 C4 1.359 . S
C3 C8 1.348 . S
C4 C3 1.359 . S
C4 C5 1.380 . S
C4 H32 0.929 . S
C5 C4 1.380 . S
C5 C6 1.347 . S
C5 H33 0.931 . S
C6 C5 1.347 . S
C6 C7 1.369 . S
C7 C6 1.369 . S
C7 C8 1.408 . S
C7 H34 0.930 1_545 S
C8 C3 1.348 . S
C8 C7 1.408 . S
C8 H35 0.930 . S
C9 O22 1.281 1_554 S
C9 O23 1.254 . S
C10 O24 1.236 . S
C10 O25 1.266 . S
C11 Tb1 2.809 . S
C11 C12 1.514 . S
C11 O26 1.248 . S
C11 O27 1.266 . S
C12 C11 1.514 . S
C12 C13 1.359 . S
C12 C17 1.348 . S
C13 C12 1.359 . S
C13 C14 1.380 . S
C13 H36 0.929 . S
C14 C13 1.380 . S
C14 C15 1.347 . S
C14 H37 0.931 . S
C15 C14 1.347 . S
C15 C16 1.369 . S
C16 C15 1.369 . S
C16 C17 1.408 . S
C16 H38 0.930 . S
C17 C12 1.348 . S
C17 C16 1.408 . S
C17 H39 0.930 . S
C18 O28 1.281 . S
C18 O29 1.254 1_554 S
C19 O30 1.236 . S
C19 O31 1.266 . S
O20 Tb0 2.484 . S
O20 C2 1.248 . S
O21 Tb0 2.440 . S
O21 C2 1.266 . S
O22 Tb0 2.658 1_556 S
O22 Tb1 2.325 . S
O22 C9 1.281 1_556 S
O23 Tb0 2.409 . S
O23 C9 1.254 . S
O24 Tb0 2.378 . S
O24 C10 1.236 . S
O25 Tb1 2.341 1_554 S
O25 C10 1.266 . S
O26 Tb1 2.484 . S
O26 C11 1.248 . S
O27 Tb1 2.440 . S
O27 C11 1.266 . S
O28 Tb0 2.325 . S
O28 Tb1 2.658 1_554 S
O28 C18 1.281 . S
O29 Tb1 2.409 . S
O29 C18 1.254 1_556 S
O30 Tb1 2.378 . S
O30 C19 1.236 . S
O31 Tb0 2.341 1_556 S
O31 C19 1.266 . S
H32 C4 0.929 . S
H33 C5 0.931 . S
H34 C7 0.930 1_565 S
H35 C8 0.930 . S
H36 C13 0.929 . S
H37 C14 0.931 . S
H38 C16 0.930 . S
H39 C17 0.930 . S
Tb40 C42 2.809 1_455 S
Tb40 O60 2.484 . S
Tb40 O61 2.440 1_455 S
Tb40 O62 2.658 . S
Tb40 O63 2.409 . S
Tb40 O64 2.378 . S
Tb40 O68 2.325 . S
Tb40 O71 2.341 . S
Tb41 C51 2.809 . S
Tb41 O62 2.325 . S
Tb41 O65 2.341 . S
Tb41 O66 2.484 . S
Tb41 O67 2.440 . S
Tb41 O68 2.658 . S
Tb41 O69 2.409 . S
Tb41 O70 2.378 . S
C42 Tb40 2.809 1_655 S
C42 C43 1.514 . S
C42 O60 1.248 1_655 S
C42 O61 1.266 . S
C43 C42 1.514 . S
C43 C44 1.359 . S
C43 C48 1.348 . S
C44 C43 1.359 . S
C44 C45 1.380 . S
C44 H72 0.929 . S
C45 C44 1.380 . S
C45 C46 1.347 . S
C45 H73 0.931 . S
C46 C45 1.347 . S
C46 C47 1.369 . S
C47 C46 1.369 . S
C47 C48 1.408 . S
C47 H74 0.930 . S
C48 C43 1.348 . S
C48 C47 1.408 . S
C48 H75 0.930 . S
C49 O62 1.281 . S
C49 O63 1.254 . S
C50 O64 1.236 . S
C50 O65 1.266 . S
C51 Tb41 2.809 . S
C51 C52 1.514 . S
C51 O66 1.248 . S
C51 O67 1.266 . S
C52 C51 1.514 . S
C52 C53 1.359 . S
C52 C57 1.348 . S
C53 C52 1.359 . S
C53 C54 1.380 . S
C53 H76 0.929 . S
C54 C53 1.380 . S
C54 C55 1.347 . S
C54 H77 0.931 . S
C55 C54 1.347 . S
C55 C56 1.369 . S
C56 C55 1.369 . S
C56 C57 1.408 . S
C56 H78 0.930 . S
C57 C52 1.348 . S
C57 C56 1.408 . S
C57 H79 0.930 . S
C58 O68 1.281 . S
C58 O69 1.254 . S
C59 O70 1.236 . S
C59 O71 1.266 . S
O60 Tb40 2.484 . S
O60 C42 1.248 1_455 S
O61 Tb40 2.440 1_655 S
O61 C42 1.266 . S
O62 Tb40 2.658 . S
O62 Tb41 2.325 . S
O62 C49 1.281 . S
O63 Tb40 2.409 . S
O63 C49 1.254 . S
O64 Tb40 2.378 . S
O64 C50 1.236 . S
O65 Tb41 2.341 . S
O65 C50 1.266 . S
O66 Tb41 2.484 . S
O66 C51 1.248 . S
O67 Tb41 2.440 . S
O67 C51 1.266 . S
O68 Tb40 2.325 . S
O68 Tb41 2.658 . S
O68 C58 1.281 . S
O69 Tb41 2.409 . S
O69 C58 1.254 . S
O70 Tb41 2.378 . S
O70 C59 1.236 . S
O71 Tb40 2.341 . S
O71 C59 1.266 . S
H72 C44 0.929 . S
H73 C45 0.931 . S
H74 C47 0.930 . S
H75 C48 0.930 . S
H76 C53 0.929 . S
H77 C54 0.931 . S
H78 C56 0.930 . S
H79 C57 0.930 . S
Tb80 C82 2.809 . S
Tb80 O100 2.484 . S
Tb80 O101 2.440 . S
Tb80 O102 2.658 1_554 S
Tb80 O103 2.409 . S
Tb80 O104 2.378 . S
Tb80 O108 2.325 . S
Tb80 O111 2.341 1_554 S
Tb81 C91 2.809 . S
Tb81 O102 2.325 1_565 S
Tb81 O105 2.341 1_556 S
Tb81 O106 2.484 . S
Tb81 O107 2.440 . S
Tb81 O108 2.658 1_566 S
Tb81 O109 2.409 . S
Tb81 O110 2.378 1_565 S
C82 Tb80 2.809 . S
C82 C83 1.514 . S
C82 O100 1.248 . S
C82 O101 1.266 . S
C83 C82 1.514 . S
C83 C84 1.359 . S
C83 C88 1.348 . S
C84 C83 1.359 . S
C84 C85 1.380 . S
C84 H112 0.929 . S
C85 C84 1.380 . S
C85 C86 1.347 . S
C85 H113 0.931 . S
C86 C85 1.347 . S
C86 C87 1.369 . S
C87 C86 1.369 . S
C87 C88 1.408 . S
C87 H114 0.930 . S
C88 C83 1.348 . S
C88 C87 1.408 . S
C88 H115 0.930 . S
C89 O102 1.281 1_554 S
C89 O103 1.254 . S
C90 O104 1.236 1_565 S
C90 O105 1.266 . S
C91 Tb81 2.809 . S
C91 C92 1.514 . S
C91 O106 1.248 . S
C91 O107 1.266 . S
C92 C91 1.514 . S
C92 C93 1.359 . S
C92 C97 1.348 . S
C93 C92 1.359 . S
C93 C94 1.380 . S
C93 H116 0.929 . S
C94 C93 1.380 . S
C94 C95 1.347 . S
C94 H117 0.931 . S
C95 C94 1.347 . S
C95 C96 1.369 . S
C96 C95 1.369 . S
C96 C97 1.408 . S
C96 H118 0.930 . S
C97 C92 1.348 . S
C97 C96 1.408 . S
C97 H119 0.930 . S
C98 O108 1.281 . S
C98 O109 1.254 1_544 S
C99 O110 1.236 . S
C99 O111 1.266 . S
O100 Tb80 2.484 . S
O100 C82 1.248 . S
O101 Tb80 2.440 . S
O101 C82 1.266 . S
O102 Tb80 2.658 1_556 S
O102 Tb81 2.325 1_545 S
O102 C89 1.281 1_556 S
O103 Tb80 2.409 . S
O103 C89 1.254 . S
O104 Tb80 2.378 . S
O104 C90 1.236 1_545 S
O105 Tb81 2.341 1_554 S
O105 C90 1.266 . S
O106 Tb81 2.484 . S
O106 C91 1.248 . S
O107 Tb81 2.440 . S
O107 C91 1.266 . S
O108 Tb80 2.325 . S
O108 Tb81 2.658 1_544 S
O108 C98 1.281 . S
O109 Tb81 2.409 . S
O109 C98 1.254 1_566 S
O110 Tb81 2.378 1_545 S
O110 C99 1.236 . S
O111 Tb80 2.341 1_556 S
O111 C99 1.266 . S
H112 C84 0.929 . S
H113 C85 0.931 . S
H114 C87 0.930 . S
H115 C88 0.930 . S
H116 C93 0.929 . S
H117 C94 0.931 . S
H118 C96 0.930 . S
H119 C97 0.930 . S
Tb120 C122 2.809 1_455 S
Tb120 O140 2.484 . S
Tb120 O141 2.440 1_455 S
Tb120 O142 2.658 . S
Tb120 O143 2.409 . S
Tb120 O144 2.378 . S
Tb120 O148 2.325 . S
Tb120 O151 2.341 . S
Tb121 C131 2.809 . S
Tb121 O142 2.325 . S
Tb121 O145 2.341 . S
Tb121 O146 2.484 . S
Tb121 O147 2.440 . S
Tb121 O148 2.658 . S
Tb121 O149 2.409 . S
Tb121 O150 2.378 . S
C122 Tb120 2.809 1_655 S
C122 C123 1.514 . S
C122 O140 1.248 1_655 S
C122 O141 1.266 . S
C123 C122 1.514 . S
C123 C124 1.359 . S
C123 C128 1.348 . S
C124 C123 1.359 . S
C124 C125 1.380 . S
C124 H152 0.929 . S
C125 C124 1.380 . S
C125 C126 1.347 . S
C125 H153 0.931 . S
C126 C125 1.347 . S
C126 C127 1.369 . S
C127 C126 1.369 . S
C127 C128 1.408 . S
C127 H154 0.930 . S
C128 C123 1.348 . S
C128 C127 1.408 . S
C128 H155 0.930 . S
C129 O142 1.281 . S
C129 O143 1.254 . S
C130 O144 1.236 . S
C130 O145 1.266 . S
C131 Tb121 2.809 . S
C131 C132 1.514 . S
C131 O146 1.248 . S
C131 O147 1.266 . S
C132 C131 1.514 . S
C132 C133 1.359 . S
C132 C137 1.348 . S
C133 C132 1.359 . S
C133 C134 1.380 . S
C133 H156 0.929 . S
C134 C133 1.380 . S
C134 C135 1.347 . S
C134 H157 0.931 . S
C135 C134 1.347 . S
C135 C136 1.369 . S
C136 C135 1.369 . S
C136 C137 1.408 . S
C136 H158 0.930 . S
C137 C132 1.348 . S
C137 C136 1.408 . S
C137 H159 0.930 . S
C138 O148 1.281 . S
C138 O149 1.254 . S
C139 O150 1.236 . S
C139 O151 1.266 . S
O140 Tb120 2.484 . S
O140 C122 1.248 1_455 S
O141 Tb120 2.440 1_655 S
O141 C122 1.266 . S
O142 Tb120 2.658 . S
O142 Tb121 2.325 . S
O142 C129 1.281 . S
O143 Tb120 2.409 . S
O143 C129 1.254 . S
O144 Tb120 2.378 . S
O144 C130 1.236 . S
O145 Tb121 2.341 . S
O145 C130 1.266 . S
O146 Tb121 2.484 . S
O146 C131 1.248 . S
O147 Tb121 2.440 . S
O147 C131 1.266 . S
O148 Tb120 2.325 . S
O148 Tb121 2.658 . S
O148 C138 1.281 . S
O149 Tb121 2.409 . S
O149 C138 1.254 . S
O150 Tb121 2.378 . S
O150 C139 1.236 . S
O151 Tb120 2.341 . S
O151 C139 1.266 . S
H152 C124 0.929 . S
H153 C125 0.931 . S
H154 C127 0.930 . S
H155 C128 0.930 . S
H156 C133 0.929 . S
H157 C134 0.931 . S
H158 C136 0.930 . S
H159 C137 0.930 . S
H160 C161 0.952 1_565 S
C161 H160 0.952 1_545 S
C161 C167 1.264 1_556 S
H162 C167 0.950 . S
H163 C171 0.949 . S
H164 C172 0.950 . S
H165 C173 0.951 . S
H166 C174 0.955 . S
C167 C161 1.264 1_554 S
C167 H162 0.950 . S
C167 C168 1.478 1_655 S
C168 C167 1.478 1_455 S
C168 C169 1.397 . S
C168 C185 1.394 1_554 S
C169 C168 1.397 . S
C169 C170 1.438 . S
C169 C174 1.429 . S
C170 C169 1.438 . S
C170 C171 1.428 . S
C170 C183 1.394 . S
C171 H163 0.949 . S
C171 C170 1.428 . S
C171 C172 1.345 . S
C172 H164 0.950 . S
C172 C171 1.345 . S
C172 C173 1.424 . S
C173 H165 0.951 . S
C173 C172 1.424 . S
C173 C174 1.347 . S
C174 H166 0.955 . S
C174 C169 1.429 . S
C174 C173 1.347 . S
H175 C176 0.951 . S
C176 H175 0.951 . S
C176 C182 1.265 . S
H177 C182 0.950 1_556 S
H178 C186 0.949 1_655 S
H179 C187 0.950 . S
H180 C188 0.951 . S
H181 C189 0.951 . S
C182 C176 1.265 . S
C182 H177 0.950 1_554 S
C182 C183 1.478 . S
C183 C170 1.394 . S
C183 C182 1.478 . S
C183 C184 1.397 1_554 S
C184 C183 1.397 1_556 S
C184 C185 1.438 . S
C184 C189 1.429 . S
C185 C168 1.394 1_556 S
C185 C184 1.438 . S
C185 C186 1.428 . S
C186 H178 0.949 1_455 S
C186 C185 1.428 . S
C186 C187 1.345 . S
C187 H179 0.950 . S
C187 C186 1.345 . S
C187 C188 1.424 . S
C188 H180 0.951 . S
C188 C187 1.424 . S
C188 C189 1.347 . S
C189 H181 0.951 . S
C189 C184 1.429 . S
C189 C188 1.347 . S
H190 C191 0.951 . S
C191 H190 0.951 . S
C191 C197 1.265 1_565 S
H192 C197 0.950 . S
H193 C201 0.949 . S
H194 C202 0.950 . S
H195 C203 0.951 . S
H196 C204 0.951 . S
C197 C191 1.265 1_545 S
C197 H192 0.950 . S
C197 C198 1.478 . S
C198 C197 1.478 . S
C198 C199 1.397 . S
C198 C215 1.394 . S
C199 C198 1.397 . S
C199 C200 1.438 . S
C199 C204 1.429 . S
C200 C199 1.438 . S
C200 C201 1.428 . S
C200 C213 1.394 . S
C201 H193 0.949 . S
C201 C200 1.428 . S
C201 C202 1.345 . S
C202 H194 0.950 . S
C202 C201 1.345 . S
C202 C203 1.424 . S
C203 H195 0.951 . S
C203 C202 1.424 . S
C203 C204 1.347 . S
C204 H196 0.951 . S
C204 C199 1.429 . S
C204 C203 1.347 . S
H205 C206 0.951 . S
C206 H205 0.951 . S
C206 C212 1.265 . S
H207 C212 0.950 . S
H208 C216 0.949 . S
H209 C217 0.950 . S
H210 C218 0.951 . S
H211 C219 0.951 . S
C212 C206 1.265 . S
C212 H207 0.950 . S
C212 C213 1.478 . S
C213 C200 1.394 . S
C213 C212 1.478 . S
C213 C214 1.397 . S
C214 C213 1.397 . S
C214 C215 1.438 . S
C214 C219 1.429 . S
C215 C198 1.394 . S
C215 C214 1.438 . S
C215 C216 1.428 . S
C216 H208 0.949 . S
C216 C215 1.428 . S
C216 C217 1.345 . S
C217 H209 0.950 . S
C217 C216 1.345 . S
C217 C218 1.424 . S
C218 H210 0.951 . S
C218 C217 1.424 . S
C218 C219 1.347 . S
C219 H211 0.951 . S
C219 C214 1.429 . S
C219 C218 1.347 . S
H220 C221 0.951 . S
C221 H220 0.951 . S
C221 C227 1.265 . S
H222 C227 0.950 1_565 S
H223 C231 0.949 . S
H224 C232 0.950 . S
H225 C233 0.951 . S
H226 C234 0.951 . S
C227 C221 1.265 . S
C227 H222 0.950 1_545 S
C227 C228 1.478 . S
C228 C227 1.478 . S
C228 C229 1.397 . S
C228 C245 1.394 1_554 S
C229 C228 1.397 . S
C229 C230 1.438 . S
C229 C234 1.429 . S
C230 C229 1.438 . S
C230 C231 1.428 . S
C230 C243 1.394 . S
C231 H223 0.949 . S
C231 C230 1.428 . S
C231 C232 1.345 . S
C232 H224 0.950 . S
C232 C231 1.345 . S
C232 C233 1.424 . S
C233 H225 0.951 . S
C233 C232 1.424 . S
C233 C234 1.347 . S
C234 H226 0.951 . S
C234 C229 1.429 . S
C234 C233 1.347 . S
H235 C236 0.951 . S
C236 H235 0.951 . S
C236 C242 1.265 . S
H237 C242 0.950 . S
H238 C246 0.949 . S
H239 C247 0.950 . S
H240 C248 0.951 . S
H241 C249 0.951 . S
C242 C236 1.265 . S
C242 H237 0.950 . S
C242 C243 1.478 . S
C243 C230 1.394 . S
C243 C242 1.478 . S
C243 C244 1.397 1_554 S
C244 C243 1.397 1_556 S
C244 C245 1.438 . S
C244 C249 1.429 . S
C245 C228 1.394 1_556 S
C245 C244 1.438 . S
C245 C246 1.428 . S
C246 H238 0.949 . S
C246 C245 1.428 . S
C246 C247 1.345 . S
C247 H239 0.950 . S
C247 C246 1.345 . S
C247 C248 1.424 . S
C248 H240 0.951 . S
C248 C247 1.424 . S
C248 C249 1.347 . S
C249 H241 0.951 . S
C249 C244 1.429 . S
C249 C248 1.347 . S
H250 C251 0.951 . S
C251 H250 0.951 . S
C251 C257 1.265 . S
H252 C257 0.950 . S
H253 C261 0.949 . S
H254 C262 0.950 . S
H255 C263 0.951 . S
H256 C264 0.951 . S
C257 C251 1.265 . S
C257 H252 0.950 . S
C257 C258 1.478 . S
C258 C257 1.478 . S
C258 C259 1.397 . S
C258 C275 1.394 . S
C259 C258 1.397 . S
C259 C260 1.438 . S
C259 C264 1.429 . S
C260 C259 1.438 . S
C260 C261 1.428 . S
C260 C273 1.394 . S
C261 H253 0.949 . S
C261 C260 1.428 . S
C261 C262 1.345 . S
C262 H254 0.950 . S
C262 C261 1.345 . S
C262 C263 1.424 . S
C263 H255 0.951 . S
C263 C262 1.424 . S
C263 C264 1.347 . S
C264 H256 0.951 . S
C264 C259 1.429 . S
C264 C263 1.347 . S
H265 C266 0.951 . S
C266 H265 0.951 . S
C266 C272 1.265 . S
H267 C272 0.950 . S
H268 C276 0.949 . S
H269 C277 0.950 . S
H270 C278 0.951 . S
H271 C279 0.951 . S
C272 C266 1.265 . S
C272 H267 0.950 . S
C272 C273 1.478 . S
C273 C260 1.394 . S
C273 C272 1.478 . S
C273 C274 1.397 . S
C274 C273 1.397 . S
C274 C275 1.438 . S
C274 C279 1.429 . S
C275 C258 1.394 . S
C275 C274 1.438 . S
C275 C276 1.428 . S
C276 H268 0.949 . S
C276 C275 1.428 . S
C276 C277 1.345 . S
C277 H269 0.950 . S
C277 C276 1.345 . S
C277 C278 1.424 . S
C278 H270 0.951 . S
C278 C277 1.424 . S
C278 C279 1.347 . S
C279 H271 0.951 . S
C279 C274 1.429 . S
C279 C278 1.347 . S
H280 C281 0.951 . S
C281 H280 0.951 . S
C281 C287 1.265 . S
H282 C287 0.950 . S
H283 C291 0.949 . S
H284 C292 0.950 . S
H285 C293 0.951 . S
H286 C294 0.951 . S
C287 C281 1.265 . S
C287 H282 0.950 . S
C287 C288 1.478 . S
C288 C287 1.478 . S
C288 C289 1.397 . S
C288 C305 1.394 . S
C289 C288 1.397 . S
C289 C290 1.438 . S
C289 C294 1.429 . S
C290 C289 1.438 . S
C290 C291 1.428 . S
C290 C303 1.394 . S
C291 H283 0.949 . S
C291 C290 1.428 . S
C291 C292 1.345 . S
C292 H284 0.950 . S
C292 C291 1.345 . S
C292 C293 1.424 . S
C293 H285 0.951 . S
C293 C292 1.424 . S
C293 C294 1.347 . S
C294 H286 0.951 . S
C294 C289 1.429 . S
C294 C293 1.347 . S
H295 C296 0.951 . S
C296 H295 0.951 . S
C296 C302 1.265 . S
H297 C302 0.950 . S
H298 C306 0.949 . S
H299 C307 0.950 . S
H300 C308 0.951 . S
H301 C309 0.951 . S
C302 C296 1.265 . S
C302 H297 0.950 . S
C302 C303 1.478 . S
C303 C290 1.394 . S
C303 C302 1.478 . S
C303 C304 1.397 . S
C304 C303 1.397 . S
C304 C305 1.438 . S
C304 C309 1.429 . S
C305 C288 1.394 . S
C305 C304 1.438 . S
C305 C306 1.428 . S
C306 H298 0.949 . S
C306 C305 1.428 . S
C306 C307 1.345 . S
C307 H299 0.950 . S
C307 C306 1.345 . S
C307 C308 1.424 . S
C308 H300 0.951 . S
C308 C307 1.424 . S
C308 C309 1.347 . S
C309 H301 0.951 . S
C309 C304 1.429 . S
C309 C308 1.347 . S
H310 C311 0.951 1_455 S
C311 H310 0.951 1_655 S
C311 C317 1.265 . S
H312 C317 0.950 . S
H313 C321 0.949 . S
H314 C322 0.950 . S
H315 C323 0.951 . S
H316 C324 0.951 . S
C317 C311 1.265 . S
C317 H312 0.950 . S
C317 C318 1.478 . S
C318 C317 1.478 . S
C318 C319 1.397 . S
C318 C335 1.394 . S
C319 C318 1.397 . S
C319 C320 1.438 . S
C319 C324 1.429 . S
C320 C319 1.438 . S
C320 C321 1.428 . S
C320 C333 1.394 . S
C321 H313 0.949 . S
C321 C320 1.428 . S
C321 C322 1.345 . S
C322 H314 0.950 . S
C322 C321 1.345 . S
C322 C323 1.424 . S
C323 H315 0.951 . S
C323 C322 1.424 . S
C323 C324 1.347 . S
C324 H316 0.951 . S
C324 C319 1.429 . S
C324 C323 1.347 . S
H325 C326 0.951 . S
C326 H325 0.951 . S
C326 C332 1.265 . S
H327 C332 0.950 . S
H328 C336 0.949 . S
H329 C337 0.950 . S
H330 C338 0.951 . S
H331 C339 0.951 . S
C332 C326 1.265 . S
C332 H327 0.950 . S
C332 C333 1.478 . S
C333 C320 1.394 . S
C333 C332 1.478 . S
C333 C334 1.397 . S
C334 C333 1.397 . S
C334 C335 1.438 . S
C334 C339 1.429 . S
C335 C318 1.394 . S
C335 C334 1.438 . S
C335 C336 1.428 . S
C336 H328 0.949 . S
C336 C335 1.428 . S
C336 C337 1.345 . S
C337 H329 0.950 . S
C337 C336 1.345 . S
C337 C338 1.424 . S
C338 H330 0.951 . S
C338 C337 1.424 . S
C338 C339 1.347 . S
C339 H331 0.951 . S
C339 C334 1.429 . S
C339 C338 1.347 . S
H340 C341 0.951 . S
C341 H340 0.951 . S
C341 C347 1.265 . S
H342 C347 0.950 1_455 S
H343 C351 0.949 . S
H344 C352 0.950 . S
H345 C353 0.951 . S
H346 C354 0.951 . S
C347 C341 1.265 . S
C347 H342 0.950 1_655 S
C347 C348 1.478 . S
C348 C347 1.478 . S
C348 C349 1.397 . S
C348 C365 1.394 . S
C349 C348 1.397 . S
C349 C350 1.438 . S
C349 C354 1.429 . S
C350 C349 1.438 . S
C350 C351 1.428 . S
C350 C363 1.394 . S
C351 H343 0.949 . S
C351 C350 1.428 . S
C351 C352 1.345 . S
C352 H344 0.950 . S
C352 C351 1.345 . S
C352 C353 1.424 . S
C353 H345 0.951 . S
C353 C352 1.424 . S
C353 C354 1.347 . S
C354 H346 0.951 . S
C354 C349 1.429 . S
C354 C353 1.347 . S
H355 C356 0.951 . S
C356 H355 0.951 . S
C356 C362 1.265 . S
H357 C362 0.950 . S
H358 C366 0.949 . S
H359 C367 0.950 . S
H360 C368 0.951 . S
H361 C369 0.951 . S
C362 C356 1.265 . S
C362 H357 0.950 . S
C362 C363 1.478 . S
C363 C350 1.394 . S
C363 C362 1.478 . S
C363 C364 1.397 . S
C364 C363 1.397 . S
C364 C365 1.438 . S
C364 C369 1.429 1_565 S
C365 C348 1.394 . S
C365 C364 1.438 . S
C365 C366 1.428 . S
C366 H358 0.949 . S
C366 C365 1.428 . S
C366 C367 1.345 1_565 S
C367 H359 0.950 . S
C367 C366 1.345 1_545 S
C367 C368 1.424 . S
C368 H360 0.951 . S
C368 C367 1.424 . S
C368 C369 1.347 . S
C369 H361 0.951 . S
C369 C364 1.429 1_545 S
C369 C368 1.347 . S
H370 C371 0.951 . S
C371 H370 0.951 . S
C371 C377 1.265 . S
H372 C377 0.950 . S
H373 C381 0.949 . S
H374 C382 0.950 . S
H375 C383 0.951 . S
H376 C384 0.951 . S
C377 C371 1.265 . S
C377 H372 0.950 . S
C377 C378 1.478 . S
C378 C377 1.478 . S
C378 C379 1.397 1_565 S
C378 C395 1.394 . S
C379 C378 1.397 1_545 S
C379 C380 1.438 . S
C379 C384 1.429 . S
C380 C379 1.438 . S
C380 C381 1.428 . S
C380 C393 1.394 . S
C381 H373 0.949 . S
C381 C380 1.428 . S
C381 C382 1.345 . S
C382 H374 0.950 . S
C382 C381 1.345 . S
C382 C383 1.424 . S
C383 H375 0.951 . S
C383 C382 1.424 . S
C383 C384 1.347 . S
C384 H376 0.951 . S
C384 C379 1.429 . S
C384 C383 1.347 . S
H385 C386 0.951 . S
C386 H385 0.951 . S
C386 C392 1.265 . S
H387 C392 0.950 . S
H388 C396 0.949 . S
H389 C397 0.950 . S
H390 C398 0.951 . S
H391 C399 0.951 . S
C392 C386 1.265 . S
C392 H387 0.950 . S
C392 C393 1.478 . S
C393 C380 1.394 . S
C393 C392 1.478 . S
C393 C394 1.397 1_545 S
C394 C393 1.397 1_565 S
C394 C395 1.438 . S
C394 C399 1.429 . S
C395 C378 1.394 . S
C395 C394 1.438 . S
C395 C396 1.428 . S
C396 H388 0.949 . S
C396 C395 1.428 . S
C396 C397 1.345 . S
C397 H389 0.950 . S
C397 C396 1.345 . S
C397 C398 1.424 . S
C398 H390 0.951 . S
C398 C397 1.424 . S
C398 C399 1.347 . S
C399 H391 0.951 . S
C399 C394 1.429 . S
C399 C398 1.347 . S
H400 C401 0.951 . S
C401 H400 0.951 . S
C401 C407 1.265 . S
H402 C407 0.950 . S
H403 C411 0.949 . S
H404 C412 0.950 . S
H405 C413 0.951 1_545 S
H406 C414 0.951 . S
C407 C401 1.265 . S
C407 H402 0.950 . S
C407 C408 1.478 . S
C408 C407 1.478 . S
C408 C409 1.397 . S
C408 C425 1.394 . S
C409 C408 1.397 . S
C409 C410 1.438 . S
C409 C414 1.429 . S
C410 C409 1.438 . S
C410 C411 1.428 . S
C410 C423 1.394 . S
C411 H403 0.949 . S
C411 C410 1.428 . S
C411 C412 1.345 . S
C412 H404 0.950 . S
C412 C411 1.345 . S
C412 C413 1.424 . S
C413 H405 0.951 1_565 S
C413 C412 1.424 . S
C413 C414 1.347 . S
C414 H406 0.951 . S
C414 C409 1.429 . S
C414 C413 1.347 . S
H415 C416 0.951 . S
C416 H415 0.951 . S
C416 C422 1.265 . S
H417 C422 0.950 . S
H418 C426 0.949 . S
H419 C427 0.950 . S
H420 C428 0.951 . S
H421 C429 0.951 . S
C422 C416 1.265 . S
C422 H417 0.950 . S
C422 C423 1.478 . S
C423 C410 1.394 . S
C423 C422 1.478 . S
C423 C424 1.397 . S
C424 C423 1.397 . S
C424 C425 1.438 . S
C424 C429 1.429 . S
C425 C408 1.394 . S
C425 C424 1.438 . S
C425 C426 1.428 . S
C426 H418 0.949 . S
C426 C425 1.428 . S
C426 C427 1.345 . S
C427 H419 0.950 . S
C427 C426 1.345 . S
C427 C428 1.424 . S
C428 H420 0.951 . S
C428 C427 1.424 . S
C428 C429 1.347 . S
C429 H421 0.951 . S
C429 C424 1.429 . S
C429 C428 1.347 . S
H430 C431 0.951 . S
C431 H430 0.951 . S
C431 C437 1.265 . S
H432 C437 0.950 . S
H433 C441 0.949 . S
H434 C442 0.950 . S
H435 C443 0.951 . S
H436 C444 0.951 . S
C437 C431 1.265 . S
C437 H432 0.950 . S
C437 C438 1.478 . S
C438 C437 1.478 . S
C438 C439 1.397 . S
C438 C455 1.394 1_545 S
C439 C438 1.397 . S
C439 C440 1.438 1_545 S
C439 C444 1.429 . S
C440 C439 1.438 1_565 S
C440 C441 1.428 1_565 S
C440 C453 1.394 . S
C441 H433 0.949 . S
C441 C440 1.428 1_545 S
C441 C442 1.345 . S
C442 H434 0.950 . S
C442 C441 1.345 . S
C442 C443 1.424 . S
C443 H435 0.951 . S
C443 C442 1.424 . S
C443 C444 1.347 . S
C444 H436 0.951 . S
C444 C439 1.429 . S
C444 C443 1.347 . S
H445 C446 0.951 . S
C446 H445 0.951 . S
C446 C452 1.265 . S
H447 C452 0.950 . S
H448 C456 0.949 . S
H449 C457 0.950 . S
H450 C458 0.951 . S
H451 C459 0.951 . S
C452 C446 1.265 . S
C452 H447 0.950 . S
C452 C453 1.478 . S
C453 C440 1.394 . S
C453 C452 1.478 . S
C453 C454 1.397 . S
C454 C453 1.397 . S
C454 C455 1.438 . S
C454 C459 1.429 . S
C455 C438 1.394 1_565 S
C455 C454 1.438 . S
C455 C456 1.428 . S
C456 H448 0.949 . S
C456 C455 1.428 . S
C456 C457 1.345 . S
C457 H449 0.950 . S
C457 C456 1.345 . S
C457 C458 1.424 . S
C458 H450 0.951 . S
C458 C457 1.424 . S
C458 C459 1.347 . S
C459 H451 0.951 . S
C459 C454 1.429 . S
C459 C458 1.347 . S
H460 C461 0.951 . S
C461 H460 0.951 . S
C461 C467 1.265 . S
H462 C467 0.950 . S
H463 C471 0.949 . S
H464 C472 0.950 . S
H465 C473 0.951 . S
H466 C474 0.951 . S
C467 C461 1.265 . S
C467 H462 0.950 . S
C467 C468 1.478 . S
C468 C467 1.478 . S
C468 C469 1.397 . S
C468 C485 1.394 . S
C469 C468 1.397 . S
C469 C470 1.438 . S
C469 C474 1.429 . S
C470 C469 1.438 . S
C470 C471 1.428 . S
C470 C483 1.394 . S
C471 H463 0.949 . S
C471 C470 1.428 . S
C471 C472 1.345 . S
C472 H464 0.950 . S
C472 C471 1.345 . S
C472 C473 1.424 . S
C473 H465 0.951 . S
C473 C472 1.424 . S
C473 C474 1.347 . S
C474 H466 0.951 . S
C474 C469 1.429 . S
C474 C473 1.347 . S
H475 C476 0.951 . S
C476 H475 0.951 . S
C476 C482 1.265 . S
H477 C482 0.950 . S
H478 C486 0.949 . S
H479 C487 0.950 . S
H480 C488 0.951 . S
H481 C489 0.951 . S
C482 C476 1.265 . S
C482 H477 0.950 . S
C482 C483 1.478 . S
C483 C470 1.394 . S
C483 C482 1.478 . S
C483 C484 1.397 . S
C484 C483 1.397 . S
C484 C485 1.438 . S
C484 C489 1.429 . S
C485 C468 1.394 . S
C485 C484 1.438 . S
C485 C486 1.428 . S
C486 H478 0.949 . S
C486 C485 1.428 . S
C486 C487 1.345 . S
C487 H479 0.950 . S
C487 C486 1.345 . S
C487 C488 1.424 . S
C488 H480 0.951 . S
C488 C487 1.424 . S
C488 C489 1.347 . S
C489 H481 0.951 . S
C489 C484 1.429 . S
C489 C488 1.347 . S
H490 C491 0.951 . S
C491 H490 0.951 . S
C491 C497 1.265 . S
H492 C497 0.950 . S
H493 C501 0.949 . S
H494 C502 0.950 . S
H495 C503 0.951 . S
H496 C504 0.951 . S
C497 C491 1.265 . S
C497 H492 0.950 . S
C497 C498 1.478 . S
C498 C497 1.478 . S
C498 C499 1.397 . S
C498 C515 1.394 . S
C499 C498 1.397 . S
C499 C500 1.438 . S
C499 C504 1.429 . S
C500 C499 1.438 . S
C500 C501 1.428 . S
C500 C513 1.394 . S
C501 H493 0.949 . S
C501 C500 1.428 . S
C501 C502 1.345 . S
C502 H494 0.950 . S
C502 C501 1.345 . S
C502 C503 1.424 . S
C503 H495 0.951 . S
C503 C502 1.424 . S
C503 C504 1.347 . S
C504 H496 0.951 . S
C504 C499 1.429 . S
C504 C503 1.347 . S
H505 C506 0.951 . S
C506 H505 0.951 . S
C506 C512 1.265 . S
H507 C512 0.950 . S
H508 C516 0.949 . S
H509 C517 0.950 . S
H510 C518 0.951 . S
H511 C519 0.951 . S
C512 C506 1.265 . S
C512 H507 0.950 . S
C512 C513 1.478 . S
C513 C500 1.394 . S
C513 C512 1.478 . S
C513 C514 1.397 . S
C514 C513 1.397 . S
C514 C515 1.438 . S
C514 C519 1.429 . S
C515 C498 1.394 . S
C515 C514 1.438 . S
C515 C516 1.428 . S
C516 H508 0.949 . S
C516 C515 1.428 . S
C516 C517 1.345 . S
C517 H509 0.950 . S
C517 C516 1.345 . S
C517 C518 1.424 . S
C518 H510 0.951 . S
C518 C517 1.424 . S
C518 C519 1.347 . S
C519 H511 0.951 . S
C519 C514 1.429 . S
C519 C518 1.347 . S
C161 C89 0.777 1_556 S
C176 C9 0.776 . S
C191 C129 0.334 . S
C206 C49 0.588 . S
C221 C98 1.136 . S
C236 C18 1.139 . S
C251 C58 0.648 . S
C266 C138 0.819 . S
C281 C50 4.492 . S
C296 C10 4.462 . S
C311 C59 4.634 1_655 S
C326 C99 4.643 . S
C341 C139 4.722 1_655 S
C356 C90 4.599 . S
C371 C130 4.402 . S
C386 C19 4.477 . S
C401 C95 0.923 . S
C416 C126 0.934 . S
C431 C6 1.059 . S
C446 C135 1.038 . S
C461 C55 0.937 . S
C476 C15 0.998 . S
C491 C86 1.006 . S
C506 C46 1.152 . S
