# Generated by pormake.
# Topology wfz, (7)-cn, num edge types: 1
# Building blocks:
#     Node 0, Type 0, BuildingBlock: HICVOG_clean_sbu_0, # of connection points: 7
#     Node 1, Type 0, BuildingBlock: HICVOG_clean_sbu_0, # of connection points: 7
#     Node 2, Type 0, BuildingBlock: HICVOG_clean_sbu_0, # of connection points: 7
#     Node 3, Type 0, BuildingBlock: HICVOG_clean_sbu_0, # of connection points: 7
#     Node 4, Type 0, BuildingBlock: HICVOG_clean_sbu_0, # of connection points: 7
#     Node 5, Type 0, BuildingBlock: HICVOG_clean_sbu_0, # of connection points: 7
#     Node 6, Type 0, BuildingBlock: HICVOG_clean_sbu_0, # of connection points: 7
#     Node 7, Type 0, BuildingBlock: HICVOG_clean_sbu_0, # of connection points: 7
#     Edge 8, Type (0, 0), BuildingBlock: KIFKEQ_clean_linker_1, # of connection points: 2
#     Edge 9, Type (0, 0), BuildingBlock: KIFKEQ_clean_linker_1, # of connection points: 2
#     Edge 10, Type (0, 0), BuildingBlock: KIFKEQ_clean_linker_1, # of connection points: 2
#     Edge 11, Type (0, 0), BuildingBlock: KIFKEQ_clean_linker_1, # of connection points: 2
#     Edge 12, Type (0, 0), BuildingBlock: KIFKEQ_clean_linker_1, # of connection points: 2
#     Edge 13, Type (0, 0), BuildingBlock: KIFKEQ_clean_linker_1, # of connection points: 2
#     Edge 14, Type (0, 0), BuildingBlock: KIFKEQ_clean_linker_1, # of connection points: 2
#     Edge 15, Type (0, 0), BuildingBlock: KIFKEQ_clean_linker_1, # of connection points: 2
#     Edge 16, Type (0, 0), BuildingBlock: KIFKEQ_clean_linker_1, # of connection points: 2
#     Edge 17, Type (0, 0), BuildingBlock: KIFKEQ_clean_linker_1, # of connection points: 2
#     Edge 18, Type (0, 0), BuildingBlock: KIFKEQ_clean_linker_1, # of connection points: 2
#     Edge 19, Type (0, 0), BuildingBlock: KIFKEQ_clean_linker_1, # of connection points: 2
#     Edge 20, Type (0, 0), BuildingBlock: KIFKEQ_clean_linker_1, # of connection points: 2
#     Edge 21, Type (0, 0), BuildingBlock: KIFKEQ_clean_linker_1, # of connection points: 2
#     Edge 22, Type (0, 0), BuildingBlock: KIFKEQ_clean_linker_1, # of connection points: 2
#     Edge 23, Type (0, 0), BuildingBlock: KIFKEQ_clean_linker_1, # of connection points: 2
#     Edge 24, Type (0, 0), BuildingBlock: KIFKEQ_clean_linker_1, # of connection points: 2
#     Edge 25, Type (0, 0), BuildingBlock: KIFKEQ_clean_linker_1, # of connection points: 2
#     Edge 26, Type (0, 0), BuildingBlock: KIFKEQ_clean_linker_1, # of connection points: 2
#     Edge 27, Type (0, 0), BuildingBlock: KIFKEQ_clean_linker_1, # of connection points: 2
#     Edge 28, Type (0, 0), BuildingBlock: KIFKEQ_clean_linker_1, # of connection points: 2
#     Edge 29, Type (0, 0), BuildingBlock: KIFKEQ_clean_linker_1, # of connection points: 2
#     Edge 30, Type (0, 0), BuildingBlock: KIFKEQ_clean_linker_1, # of connection points: 2
#     Edge 31, Type (0, 0), BuildingBlock: KIFKEQ_clean_linker_1, # of connection points: 2
#     Edge 32, Type (0, 0), BuildingBlock: KIFKEQ_clean_linker_1, # of connection points: 2
#     Edge 33, Type (0, 0), BuildingBlock: KIFKEQ_clean_linker_1, # of connection points: 2
#     Edge 34, Type (0, 0), BuildingBlock: KIFKEQ_clean_linker_1, # of connection points: 2
#     Edge 35, Type (0, 0), BuildingBlock: KIFKEQ_clean_linker_1, # of connection points: 2
# Relax obj value: 0.179
# Max RMSD: 0.259
# Mean RMSD: 0.259
data_MOF--net-wfz--node1-HICVOG_clean_sbu_0--edge1-KIFKEQ_clean_linker_1
_symmetry_space_group_name_H-M    P1
_symmetry_Int_Tables_number       1
_symmetry_cell_setting            triclinic
loop_
_symmetry_equiv_pos_as_xyz
'x, y, z'
_cell_length_a     23.915449
_cell_length_b     23.918555
_cell_length_c     63.537154
_cell_angle_alpha  90.025235
_cell_angle_beta   89.847463
_cell_angle_gamma 90.018534
loop_
_atom_site_label
_atom_site_type_symbol
_atom_site_fract_x
_atom_site_fract_y
_atom_site_fract_z
_atom_type_partial_charge
Zn0 Zn 0.23442 0.47313 0.40809 0.0
C1 C 0.36279 0.46415 0.44821 0.0
N2 N 0.36662 0.41202 0.44053 0.0
C3 C 0.33023 0.41262 0.4245 0.0
N4 N 0.30525 0.46287 0.42243 0.0
N5 N 0.32628 0.4959 0.43722 0.0
C6 C 0.27904 0.60386 0.47349 0.0
O7 O 0.24079 0.57393 0.46388 0.0
O8 O 0.22818 0.42714 0.38133 0.0
Zn9 Zn 0.33108 0.57743 0.4351 0.0
N10 N 0.17613 0.44617 0.42683 0.0
C11 C 0.14098 0.43237 0.46148 0.0
C12 C 0.18312 0.45071 0.44797 0.0
C13 C 0.12873 0.42354 0.41861 0.0
N14 N 0.09361 0.40993 0.45331 0.0
C15 C 0.08572 0.40487 0.43216 0.0
O16 O 0.26907 0.61353 0.41781 0.0
C17 C 0.22787 0.60286 0.40574 0.0
O18 O 0.21396 0.55289 0.40127 0.0
H19 H 0.22117 0.46823 0.45427 0.0
H20 H 0.12563 0.41947 0.40173 0.0
C21 C 0.43462 0.6404 0.42374 0.0
C22 C 0.48665 0.64453 0.41317 0.0
C23 C 0.47173 0.55477 0.39824 0.0
C24 C 0.42047 0.55109 0.40844 0.0
N25 N 0.40301 0.59315 0.4213 0.0
N26 N 0.50346 0.60106 0.40086 0.0
H27 H 0.4199 0.67367 0.43388 0.0
C28 C 0.24994 0.43989 0.36369 0.0
O29 O 0.28243 0.48407 0.3624 0.0
O30 O 0.32556 0.61229 0.46424 0.0
H31 H 0.39484 0.51457 0.40609 0.0
H32 H 0.14593 0.43574 0.47835 0.0
H33 H 0.48613 0.52118 0.38819 0.0
Zn34 Zn 1.00234 0.82893 0.6845 0.0
C35 C 0.16667 0.82398 0.67303 0.0
N36 N 0.16913 0.8583 0.68971 0.0
C37 C 0.11723 0.85523 0.69773 0.0
N38 N 0.08373 0.82145 0.68623 0.0
N39 N 0.11543 0.80112 0.67089 0.0
C40 C 0.1395 0.74525 0.61268 0.0
O41 O 0.09744 0.78037 0.61136 0.0
O42 O 0.96815 0.82101 0.7137 0.0
Zn43 Zn 0.10324 0.7305 0.65676 0.0
N44 N 0.98811 0.90338 0.67275 0.0
C45 C 0.02829 0.98138 0.65495 0.0
C46 C 0.03288 0.92786 0.66319 0.0
C47 C 0.93766 0.93015 0.67362 0.0
N48 N 0.97862 1.00826 0.65606 0.0
C49 C 0.93268 0.98438 0.66499 0.0
O50 O 0.02309 0.71403 0.64951 0.0
C51 C 0.97348 0.73013 0.65349 0.0
O52 O 0.96349 0.77104 0.66585 0.0
H53 H 0.0722 0.90619 0.66188 0.0
H54 H 0.90237 0.90982 0.68107 0.0
C55 C 0.14816 0.62342 0.66775 0.0
C56 C 0.16477 0.58003 0.68144 0.0
C57 C 0.13778 0.63656 0.71055 0.0
C58 C 0.12179 0.67918 0.69691 0.0
N59 N 0.12687 0.67167 0.6758 0.0
N60 N 0.15892 0.58834 0.70255 0.0
H61 H 0.15298 0.62006 0.6509 0.0
C62 C 0.97438 0.77348 0.72236 0.0
O63 O 1.00162 0.73431 0.71212 0.0
O64 O 0.14999 0.72196 0.63022 0.0
H65 H 0.1058 0.71804 0.7031 0.0
H66 H 0.06386 1.00135 0.64755 0.0
H67 H 0.13384 0.64188 0.7274 0.0
Zn68 Zn 0.74991 0.50355 0.93421 0.0
C69 C 0.75539 0.66824 0.92336 0.0
N70 N 0.72055 0.67038 0.93993 0.0
C71 C 0.72312 0.61825 0.94766 0.0
N72 N 0.75722 0.58497 0.93615 0.0
N73 N 0.77812 0.61701 0.92102 0.0
C74 C 0.8335 0.63908 0.86238 0.0
O75 O 0.79862 0.59674 0.86131 0.0
O76 O 0.75589 0.46932 0.96336 0.0
Zn77 Zn 0.84855 0.60482 0.90658 0.0
N78 N 0.6763 0.48925 0.92161 0.0
C79 C 0.60158 0.5298 0.90213 0.0
C80 C 0.65435 0.53361 0.91107 0.0
C81 C 0.64765 0.43985 0.92289 0.0
N82 N 0.57283 0.48125 0.90364 0.0
C83 C 0.59409 0.43565 0.91361 0.0
O84 O 0.86554 0.52463 0.89942 0.0
C85 C 0.85043 0.47495 0.90379 0.0
O86 O 0.80963 0.46506 0.91623 0.0
H87 H 0.67748 0.57205 0.90953 0.0
H88 H 0.66589 0.40485 0.93119 0.0
C89 C 0.95544 0.65149 0.91716 0.0
C90 C 0.99887 0.66872 0.93072 0.0
C91 C 0.94321 0.64092 0.95999 0.0
C92 C 0.90061 0.6242 0.94647 0.0
N93 N 0.90764 0.62943 0.92535 0.0
N94 N 0.99099 0.66276 0.95185 0.0
H95 H 0.95844 0.65632 0.90031 0.0
C96 C 0.80306 0.47605 0.97221 0.0
O97 O 0.84226 0.50382 0.96217 0.0
O98 O 0.85659 0.65066 0.87986 0.0
H99 H 0.86212 0.60751 0.95277 0.0
H100 H 0.58364 0.5651 0.89393 0.0
H101 H 0.93824 0.63691 0.97685 0.0
Zn102 Zn 0.07999 0.25726 0.18495 0.0
C103 C 0.91528 0.26883 0.17413 0.0
N104 N 0.91125 0.23833 0.19178 0.0
C105 C 0.96338 0.23981 0.19953 0.0
N106 N 0.99868 0.26899 0.18694 0.0
N107 N 0.9677 0.28843 0.17127 0.0
C108 C 0.94305 0.33515 0.1107 0.0
O109 O 0.98475 0.29968 0.10898 0.0
O110 O 0.11567 0.26353 0.21406 0.0
Zn111 Zn 0.98521 0.35241 0.15359 0.0
N112 N 0.09106 0.182 0.17287 0.0
C113 C 0.04677 0.10562 0.15547 0.0
C114 C 0.04386 0.15732 0.16533 0.0
C115 C 0.14194 0.15636 0.17066 0.0
N116 N 0.09707 0.08059 0.15306 0.0
C117 C 0.1452 0.10412 0.16023 0.0
O118 O 0.06494 0.35858 0.1439 0.0
C119 C 0.11366 0.34652 0.15048 0.0
O120 O 0.12127 0.31285 0.16581 0.0
H121 H 1.00391 0.17776 0.16651 0.0
H122 H 0.17925 0.17713 0.17626 0.0
C123 C 0.93418 0.45811 0.16596 0.0
C124 C 0.93365 0.50941 0.17693 0.0
C125 C 1.01341 0.48011 0.19617 0.0
C126 C 1.01451 0.43015 0.18492 0.0
N127 N 0.97484 0.41982 0.17019 0.0
N128 N 0.97354 0.51871 0.19178 0.0
H129 H 0.90454 0.4498 0.15351 0.0
C130 C 0.10028 0.30427 0.22558 0.0
O131 O 0.06194 0.33856 0.21847 0.0
O132 O 0.93455 0.35957 0.1282 0.0
H133 H 0.04784 0.40046 0.18731 0.0
H134 H 1.0094 0.08585 0.14945 0.0
H135 H 0.04491 0.48885 0.20791 0.0
Zn136 Zn 0.83043 1.0035 0.34672 0.0
C137 C 0.82125 0.1677 0.35841 0.0
N138 N 0.85262 0.17154 0.34094 0.0
C139 C 0.85066 0.11952 0.33301 0.0
N140 N 0.82055 0.0846 0.34536 0.0
N141 N 0.80117 0.11548 0.3611 0.0
C142 C 0.74818 0.13967 0.42023 0.0
O143 O 0.78328 0.09767 0.42186 0.0
O144 O 0.82005 0.97138 0.31724 0.0
Zn145 Zn 0.73283 0.10095 0.37647 0.0
N146 N 0.90613 0.98999 0.35798 0.0
C147 C 0.98515 0.03225 0.37439 0.0
C148 C 0.93309 0.0366 0.36497 0.0
C149 C 0.92978 0.93826 0.36044 0.0
N150 N 1.00816 0.98117 0.37709 0.0
C151 C 0.98226 0.93361 0.37054 0.0
O152 O 0.72019 1.02068 0.38444 0.0
C153 C 0.73568 0.97153 0.37947 0.0
O154 O 0.77427 0.96298 0.36591 0.0
H155 H 0.91417 0.07724 0.36378 0.0
H156 H 0.90723 0.90142 0.35538 0.0
C157 C 0.62495 0.14581 0.36618 0.0
C158 C 0.5797 0.15912 0.35289 0.0
C159 C 0.6305 0.12148 0.32395 0.0
C160 C 0.67486 0.10829 0.33723 0.0
N161 N 0.67124 0.12062 0.35805 0.0
N162 N 0.58425 0.14655 0.33203 0.0
H163 H 0.62431 0.15602 0.38274 0.0
C164 C 0.76925 0.96533 0.3117 0.0
O165 O 0.72977 0.97931 0.32511 0.0
O166 O 0.72476 0.14913 0.40264 0.0
H167 H 0.71195 0.08852 0.33098 0.0
H168 H 1.00671 0.06917 0.37995 0.0
H169 H 0.63282 0.11198 0.30732 0.0
Zn170 Zn 0.57834 0.32711 0.59762 0.0
C171 C 0.41381 0.33079 0.60891 0.0
N172 N 0.41379 0.36846 0.59327 0.0
C173 C 0.46566 0.36396 0.58534 0.0
N174 N 0.49666 0.32579 0.59584 0.0
N175 N 0.46342 0.30439 0.61052 0.0
C176 C 0.43826 0.24741 0.66867 0.0
O177 O 0.48146 0.28119 0.66988 0.0
O178 O 0.61374 0.32602 0.56848 0.0
Zn179 Zn 0.47245 0.23249 0.62438 0.0
N180 N 0.59671 0.39319 0.61436 0.0
C181 C 0.56868 0.44134 0.64539 0.0
C182 C 0.56208 0.3977 0.63127 0.0
C183 C 0.63929 0.43052 0.61125 0.0
N184 N 0.61069 0.47835 0.6424 0.0
C185 C 0.64693 0.47475 0.62586 0.0
O186 O 0.55148 0.21008 0.63133 0.0
C187 C 0.60142 0.22166 0.62595 0.0
O188 O 0.61246 0.26193 0.61349 0.0
H189 H 0.52974 0.36702 0.63391 0.0
H190 H 0.66635 0.42555 0.59773 0.0
C191 C 0.42321 0.12763 0.61316 0.0
C192 C 0.40491 0.08507 0.59941 0.0
C193 C 0.43171 0.14193 0.57037 0.0
C194 C 0.44981 0.18358 0.58409 0.0
N195 N 0.44537 0.17557 0.60519 0.0
N196 N 0.40975 0.09398 0.5783 0.0
H197 H 0.41932 0.12374 0.63004 0.0
C198 C 0.60444 0.2807 0.55857 0.0
O199 O 0.57351 0.24216 0.56761 0.0
O200 O 0.4262 0.22511 0.65108 0.0
H201 H 0.46718 0.22199 0.57799 0.0
H202 H 0.54111 0.44543 0.65883 0.0
H203 H 0.43498 0.14768 0.55352 0.0
Zn204 Zn 0.25068 0.07743 0.84674 0.0
C205 C 0.25445 0.91282 0.858 0.0
N206 N 0.21928 0.91085 0.8416 0.0
C207 C 0.2223 0.96287 0.83377 0.0
N208 N 0.25707 0.99589 0.84505 0.0
N209 N 0.27783 0.9638 0.86016 0.0
C210 C 0.3353 0.95101 0.91928 0.0
O211 O 0.30964 0.99957 0.919 0.0
O212 O 0.25685 0.11154 0.81747 0.0
Zn213 Zn 0.34788 0.97535 0.87479 0.0
N214 N 0.17741 0.09249 0.85966 0.0
C215 C 0.10387 0.05285 0.88018 0.0
C216 C 0.15636 0.04886 0.87093 0.0
C217 C 0.14818 0.14144 0.85798 0.0
N218 N 0.07451 0.1009 0.87827 0.0
C219 C 0.09491 0.14583 0.86759 0.0
O220 O 0.36602 0.05571 0.88142 0.0
C221 C 0.35154 0.10542 0.87686 0.0
O222 O 0.31087 0.11542 0.86446 0.0
H223 H 0.18 1.01086 0.87279 0.0
H224 H 0.16572 0.17591 0.84913 0.0
C225 C 0.45486 0.92754 0.8644 0.0
C226 C 0.4983 0.91019 0.85079 0.0
C227 C 0.44262 0.9373 0.82156 0.0
C228 C 0.40006 0.95427 0.83512 0.0
N229 N 0.40706 0.94937 0.85624 0.0
N230 N 0.4904 0.91571 0.82966 0.0
H231 H 0.45792 0.92313 0.88127 0.0
C232 C 0.30336 0.10366 0.80816 0.0
O233 O 0.34214 0.07438 0.81772 0.0
O234 O 0.35308 0.9307 0.90201 0.0
H235 H 0.36169 0.97108 0.82885 0.0
H236 H 0.08663 1.01809 0.88895 0.0
H237 H 0.43766 0.94104 0.80469 0.0
Zn238 Zn 0.60683 0.85107 0.12534 0.0
C239 C 0.61943 0.72441 0.08445 0.0
N240 N 0.67056 0.71961 0.09291 0.0
C241 C 0.66862 0.75533 0.10918 0.0
N242 N 0.61845 0.78089 0.11063 0.0
N243 N 0.58688 0.76078 0.09523 0.0
C244 C 0.4726 0.8137 0.06031 0.0
O245 O 0.49229 0.85304 0.07268 0.0
O246 O 0.65059 0.85541 0.15268 0.0
Zn247 Zn 0.50539 0.75485 0.09644 0.0
N248 N 0.63397 0.91041 0.10713 0.0
C249 C 0.64359 0.94799 0.07266 0.0
C250 C 0.62579 0.90544 0.08606 0.0
C251 C 0.65924 0.95646 0.1154 0.0
N252 N 0.66866 0.99398 0.08087 0.0
C253 C 0.67702 1.00004 0.10196 0.0
O254 O 0.46706 0.81487 0.11438 0.0
C255 C 0.47668 0.85571 0.12679 0.0
O256 O 0.52628 0.87014 0.13156 0.0
H257 H 0.60554 0.86874 0.07974 0.0
H258 H 0.66578 0.95827 0.1322 0.0
C259 C 0.44277 0.64937 0.10628 0.0
C260 C 0.43896 0.59664 0.11633 0.0
C261 C 0.52823 0.61159 0.13159 0.0
C262 C 0.5315 0.66352 0.12196 0.0
N263 N 0.48964 0.68136 0.10914 0.0
N264 N 0.48236 0.57956 0.12855 0.0
H265 H 0.40952 0.66441 0.09625 0.0
C266 C 0.63088 0.83584 0.16976 0.0
O267 O 0.58296 0.80899 0.1693 0.0
O268 O 0.47343 0.76336 0.06686 0.0
H269 H 0.56752 0.68941 0.12479 0.0
H270 H 0.63745 0.94457 0.05585 0.0
H271 H 0.56172 0.59695 0.14159 0.0
H272 H 0.36397 0.42751 0.38442 0.0
H273 H 0.31271 0.30142 0.42882 0.0
H274 H 0.41253 0.35723 0.36372 0.0
H275 H 0.35971 0.22997 0.4078 0.0
H276 H 0.53494 0.15967 0.39317 0.0
H277 H 0.45709 0.21417 0.40607 0.0
H278 H 0.42558 0.275 0.34317 0.0
H279 H 0.5061 0.2226 0.33032 0.0
C280 C 0.35986 0.38404 0.38895 0.0
C281 C 0.33407 0.36969 0.40804 0.0
C282 C 0.38835 0.34357 0.37719 0.0
C283 C 0.39151 0.28798 0.38439 0.0
C284 C 0.35954 0.27264 0.40211 0.0
C285 C 0.33162 0.31329 0.41396 0.0
C286 C 0.51215 0.18501 0.38201 0.0
C287 C 0.52842 0.18798 0.36074 0.0
C288 C 0.46627 0.21548 0.38938 0.0
C289 C 0.43477 0.2493 0.37569 0.0
C290 C 0.44922 0.25004 0.35423 0.0
C291 C 0.49538 0.21973 0.34686 0.0
H292 H 0.41426 0.03441 0.63862 0.0
H293 H 0.33758 1.01329 0.57753 0.0
H294 H 0.36307 0.95477 0.65166 0.0
H295 H 0.28895 0.93065 0.59036 0.0
H296 H 0.14545 0.86265 0.63412 0.0
H297 H 0.21172 0.914 0.6126 0.0
H298 H 0.34645 0.85821 0.65269 0.0
H299 H 0.27888 0.8084 0.67464 0.0
C300 C 0.38663 1.01301 0.62785 0.0
C301 C 0.37873 0.03217 0.60713 0.0
C302 C 0.35807 0.96599 0.63527 0.0
C303 C 0.32139 0.93602 0.62214 0.0
C304 C 0.31604 0.95312 0.60107 0.0
C305 C 0.34426 1.00053 0.59368 0.0
C306 C 0.1896 0.85856 0.63755 0.0
C307 C 0.20722 0.83094 0.65583 0.0
C308 C 0.22783 0.88867 0.62532 0.0
C309 C 0.2845 0.89169 0.6312 0.0
C310 C 0.30292 0.85823 0.64805 0.0
C311 C 0.26448 0.82872 0.66041 0.0
H312 H 0.57206 0.84564 0.82858 0.0
H313 H 0.54665 0.91676 0.89051 0.0
H314 H 0.65435 0.79675 0.84134 0.0
H315 H 0.62615 0.86527 0.90342 0.0
H316 H 0.7717 0.78008 0.92624 0.0
H317 H 0.72316 0.84926 0.90474 0.0
H318 H 0.66931 0.71756 0.86278 0.0
H319 H 0.71919 0.64968 0.88393 0.0
C320 C 0.5838 0.85108 0.8449 0.0
C321 C 0.55104 0.88403 0.85858 0.0
C322 C 0.63105 0.82272 0.85223 0.0
C323 C 0.64686 0.82637 0.87348 0.0
C324 C 0.61585 0.86161 0.88689 0.0
C325 C 0.56895 0.89034 0.87953 0.0
C326 C 0.75215 0.76674 0.91172 0.0
C327 C 0.74992 0.70982 0.90651 0.0
C328 C 0.72338 0.80609 0.8996 0.0
C329 C 0.69078 0.78891 0.88235 0.0
C330 C 0.69402 0.7327 0.87585 0.0
C331 C 0.72331 0.69356 0.88785 0.0
H332 H 0.80263 0.28111 0.1754 0.0
H333 H 0.93827 0.22529 0.13593 0.0
H334 H 0.73689 0.22647 0.15441 0.0
H335 H 0.87356 0.16985 0.11519 0.0
H336 H 0.6719 0.04815 0.1417 0.0
H337 H 0.72382 0.12786 0.15457 0.0
H338 H 0.7954 0.15272 0.09277 0.0
H339 H 0.74555 0.07069 0.08003 0.0
C340 C 0.81788 0.25941 0.16155 0.0
C341 C 0.8753 0.25829 0.15701 0.0
C342 C 0.78048 0.22718 0.14976 0.0
C343 C 0.80003 0.19246 0.13343 0.0
C344 C 0.85672 0.19616 0.12754 0.0
C345 C 0.89396 0.22869 0.13927 0.0
C346 C 0.69912 0.06981 0.13081 0.0
C347 C 0.70554 0.05144 0.10989 0.0
C348 C 0.72813 0.11669 0.13813 0.0
C349 C 0.76399 0.14704 0.12473 0.0
C350 C 0.76872 0.13008 0.10362 0.0
C351 C 0.73985 0.08302 0.0963 0.0
H352 H 0.03641 0.41354 0.39271 0.0
H353 H 1.01403 0.33665 0.45378 0.0
H354 H 0.95704 0.36218 0.3795 0.0
H355 H 0.93192 0.2877 0.44075 0.0
H356 H 0.8079 0.28023 0.35711 0.0
H357 H 0.85971 0.34669 0.37879 0.0
H358 H 0.91557 0.21055 0.41823 0.0
H359 H 0.86253 0.14526 0.39691 0.0
C360 C 1.01482 0.38582 0.40343 0.0
C361 C 0.03341 0.37806 0.42423 0.0
C362 C 0.96802 0.35712 0.39591 0.0
C363 C 0.93781 0.3204 0.40901 0.0
C364 C 0.95455 0.3149 0.4301 0.0
C365 C 1.00166 0.34331 0.43759 0.0
C366 C 0.8288 0.26525 0.37113 0.0
C367 C 0.83045 0.20786 0.37559 0.0
C368 C 0.85942 0.30306 0.38333 0.0
C369 C 0.89325 0.28393 0.39994 0.0
C370 C 0.88993 0.22715 0.40569 0.0
C371 C 0.85885 0.18952 0.3936 0.0
H372 H 0.15908 0.53142 0.6417 0.0
H373 H 0.22875 0.5063 0.70376 0.0
H374 H 0.21213 0.453 0.6287 0.0
H375 H 0.27912 0.42483 0.69091 0.0
H376 H 0.42942 0.36484 0.64875 0.0
H377 H 0.35927 0.41182 0.66992 0.0
H378 H 0.23108 0.35707 0.62667 0.0
H379 H 0.30261 0.31174 0.60512 0.0
C380 C 0.18546 0.50935 0.6527 0.0
C381 C 0.19107 0.52721 0.6737 0.0
C382 C 0.21511 0.46301 0.64528 0.0
C383 C 0.25053 0.43243 0.65868 0.0
C384 C 0.25315 0.44788 0.68001 0.0
C385 C 0.22391 0.49464 0.6874 0.0
C386 C 0.38587 0.35992 0.64452 0.0
C387 C 0.37123 0.33403 0.62552 0.0
C388 C 0.34539 0.3875 0.65655 0.0
C389 C 0.28943 0.38972 0.64973 0.0
C390 C 0.27397 0.35768 0.63207 0.0
C391 C 0.31468 0.33071 0.61992 0.0
H392 H 0.26978 0.80113 0.85429 0.0
H393 H 0.22243 0.92997 0.89823 0.0
H394 H 0.22192 0.73148 0.87582 0.0
H395 H 0.17218 0.86163 0.91927 0.0
H396 H 0.04664 0.66374 0.89077 0.0
H397 H 0.12568 0.71581 0.87777 0.0
H398 H 0.1551 0.7821 0.94006 0.0
H399 H 0.07299 0.7327 0.95294 0.0
C400 C 0.25132 0.81399 0.86912 0.0
C401 C 0.25005 0.87067 0.87472 0.0
C402 C 0.22284 0.77438 0.88125 0.0
C403 C 0.19125 0.79108 0.89891 0.0
C404 C 0.19584 0.84688 0.90583 0.0
C405 C 0.2252 0.88627 0.89385 0.0
C406 C 0.06905 0.68981 0.90179 0.0
C407 C 0.0515 0.6953 0.92285 0.0
C408 C 0.11577 0.71889 0.89436 0.0
C409 C 0.14709 0.75365 0.9078 0.0
C410 C 0.13159 0.75657 0.92913 0.0
C411 C 0.08445 0.72787 0.93654 0.0
H412 H 0.95445 0.62122 0.17627 0.0
H413 H 0.8227 0.50073 0.16606 0.0
H414 H 0.89141 0.69667 0.16567 0.0
H415 H 0.75971 0.57626 0.15567 0.0
H416 H 0.64637 0.72041 0.14875 0.0
H417 H 0.71211 0.6671 0.17026 0.0
H418 H 0.84687 0.71588 0.12886 0.0
H419 H 0.78081 0.76813 0.10719 0.0
C420 C 0.91182 0.61092 0.17203 0.0
C421 C 0.89378 0.5549 0.17171 0.0
C422 C 0.87585 0.65414 0.16599 0.0
C423 C 0.82065 0.64238 0.16 0.0
C424 C 0.80189 0.58663 0.16049 0.0
C425 C 0.83816 0.54329 0.16614 0.0
C426 C 0.69052 0.72246 0.14499 0.0
C427 C 0.70875 0.74891 0.12648 0.0
C428 C 0.72798 0.69112 0.15708 0.0
C429 C 0.78435 0.68663 0.151 0.0
C430 C 0.8037 0.71873 0.13395 0.0
C431 C 0.76604 0.74915 0.12165 0.0
H432 H 0.14856 0.80195 0.57541 0.0
H433 H 0.20014 0.64993 0.60647 0.0
H434 H 0.19155 0.76895 0.5426 0.0
H435 H 0.24191 0.61673 0.57359 0.0
H436 H 0.21363 0.55555 0.50321 0.0
H437 H 0.18895 0.59184 0.53794 0.0
H438 H 0.29266 0.73664 0.52701 0.0
H439 H 0.31886 0.69933 0.49223 0.0
C440 C 0.16956 0.76183 0.57529 0.0
C441 C 0.17063 0.7284 0.59348 0.0
C442 C 0.19441 0.74315 0.55656 0.0
C443 C 0.21982 0.69025 0.55559 0.0
C444 C 0.22243 0.65761 0.57393 0.0
C445 C 0.19864 0.67673 0.59274 0.0
C446 C 0.23165 0.59486 0.50829 0.0
C447 C 0.268 0.62476 0.49502 0.0
C448 C 0.21774 0.61545 0.52819 0.0
C449 C 0.23887 0.66702 0.53512 0.0
C450 C 0.27578 0.6968 0.52199 0.0
C451 C 0.29089 0.6754 0.50219 0.0
H452 H 0.93005 0.69719 0.85551 0.0
H453 H 0.776 0.64802 0.82535 0.0
H454 H 0.96339 0.73691 0.82229 0.0
H455 H 0.80909 0.68919 0.79222 0.0
H456 H 0.88215 0.81755 0.7421 0.0
H457 H 0.84509 0.79211 0.777 0.0
H458 H 0.98392 0.67962 0.78603 0.0
H459 H 1.01984 0.70344 0.75112 0.0
C460 C 0.90284 0.69585 0.84191 0.0
C461 C 0.85052 0.66911 0.843 0.0
C462 C 0.92204 0.71845 0.82291 0.0
C463 C 0.88878 0.71601 0.80475 0.0
C464 C 0.83533 0.69187 0.80606 0.0
C465 C 0.81659 0.66809 0.82496 0.0
C466 C 0.9048 0.78771 0.75164 0.0
C467 C 0.95364 0.7622 0.7439 0.0
C468 C 0.88355 0.77307 0.77151 0.0
C469 C 0.91179 0.73402 0.78414 0.0
C470 C 0.96157 0.71006 0.77664 0.0
C471 C 0.98191 0.7235 0.75664 0.0
H472 H 0.87123 0.52257 1.00132 0.0
H473 H 0.75993 0.38288 0.99152 0.0
H474 H 0.89518 0.48639 0.03608 0.0
H475 H 0.78545 0.34559 0.02631 0.0
H476 H 0.93098 0.27744 0.07379 0.0
H477 H 0.88734 0.31051 0.04122 0.0
H478 H 0.84049 0.46407 0.0722 0.0
H479 H 0.88283 0.4308 0.10487 0.0
C480 C 0.85174 0.48419 1.00666 0.0
C481 C 0.8139 0.45537 0.99373 0.0
C482 C 0.86523 0.46369 0.02658 0.0
C483 C 0.84215 0.41326 0.03383 0.0
C484 C 0.80378 0.38457 0.02103 0.0
C485 C 0.7891 0.40594 1.00123 0.0
C486 C 0.91049 0.31782 0.07374 0.0
C487 C 0.91071 0.35167 0.09184 0.0
C488 C 0.8853 0.33655 0.05516 0.0
C489 C 0.86083 0.38988 0.05424 0.0
C490 C 0.85923 0.42285 0.07252 0.0
C491 C 0.88336 0.40369 0.09121 0.0
H492 H 0.04928 0.35437 0.25873 0.0
H493 H 0.20452 0.27613 0.24028 0.0
H494 H 0.08909 0.37764 0.2929 0.0
H495 H 0.24508 0.30082 0.2746 0.0
H496 H 0.30091 0.44158 0.32502 0.0
H497 H 0.26731 0.39903 0.29233 0.0
H498 H 0.12796 0.32693 0.32598 0.0
H499 H 0.16169 0.36859 0.35868 0.0
C500 C 0.09186 0.34178 0.26205 0.0
C501 C 0.12385 0.31354 0.24682 0.0
C502 C 0.11454 0.35487 0.28167 0.0
C503 C 0.17016 0.34106 0.2864 0.0
C504 C 0.20211 0.31204 0.27132 0.0
C505 C 0.17887 0.29771 0.25177 0.0
C506 C 0.2636 0.41592 0.3255 0.0
C507 C 0.23374 0.40888 0.34442 0.0
C508 C 0.24459 0.39132 0.30682 0.0
C509 C 0.1949 0.35995 0.30662 0.0
C510 C 0.16623 0.35117 0.32567 0.0
C511 C 0.1857 0.37493 0.34439 0.0
H512 H 0.72199 0.90293 0.1773 0.0
H513 H 0.60201 0.79629 0.20859 0.0
H514 H 0.75965 0.93098 0.21145 0.0
H515 H 0.64026 0.82334 0.24255 0.0
H516 H 0.66463 0.94264 0.29747 0.0
H517 H 0.63672 0.90767 0.26329 0.0
H518 H 0.8097 0.90232 0.24365 0.0
H519 H 0.83794 0.93868 0.27816 0.0
C520 C 0.70421 0.88478 0.19143 0.0
C521 C 0.65846 0.84787 0.1902 0.0
C522 C 0.72598 0.90071 0.21102 0.0
C523 C 0.70251 0.88005 0.2298 0.0
C524 C 0.65857 0.84106 0.22844 0.0
C525 C 0.6368 0.82528 0.20893 0.0
C526 C 0.69697 0.93395 0.28596 0.0
C527 C 0.75363 0.94326 0.29065 0.0
C528 C 0.68089 0.9134 0.26634 0.0
C529 C 0.72093 0.90147 0.25074 0.0
C530 C 0.77775 0.91118 0.25529 0.0
C531 C 0.79396 0.93172 0.27509 0.0
H532 H 0.55442 0.22077 0.52778 0.0
H533 H 0.70237 0.3181 0.54079 0.0
H534 H 0.59165 0.19657 0.49317 0.0
H535 H 0.74055 0.29245 0.50608 0.0
H536 H 0.80348 0.14825 0.45777 0.0
H537 H 0.77011 0.19268 0.49021 0.0
H538 H 0.62097 0.24688 0.4581 0.0
H539 H 0.65449 0.20346 0.4256 0.0
C540 C 0.59481 0.2373 0.52315 0.0
C541 C 0.62564 0.27113 0.53698 0.0
C542 C 0.61596 0.22368 0.50329 0.0
C543 C 0.66898 0.24258 0.49697 0.0
C544 C 0.69959 0.27728 0.51062 0.0
C545 C 0.6777 0.29212 0.53038 0.0
C546 C 0.76399 0.1704 0.45756 0.0
C547 C 0.73144 0.17193 0.43917 0.0
C548 C 0.74511 0.19611 0.47608 0.0
C549 C 0.69288 0.22299 0.47666 0.0
C550 C 0.66129 0.22624 0.45809 0.0
C551 C 0.6806 0.20148 0.43949 0.0
H552 H 0.26272 0.19917 0.78979 0.0
H553 H 0.36856 0.05625 0.77813 0.0
H554 H 0.288 0.23722 0.75504 0.0
H555 H 0.39223 0.09324 0.7434 0.0
H556 H 0.37664 0.15273 0.67489 0.0
H557 H 0.33632 0.11896 0.70794 0.0
H558 H 0.39021 0.26961 0.73923 0.0
H559 H 0.43189 0.30312 0.70625 0.0
C560 C 0.29063 0.17558 0.77968 0.0
C561 C 0.31394 0.12495 0.78666 0.0
C562 C 0.30521 0.1974 0.75991 0.0
C563 C 0.34197 0.16806 0.74658 0.0
C564 C 0.36356 0.11652 0.75331 0.0
C565 C 0.35021 0.09553 0.77321 0.0
C566 C 0.37922 0.17909 0.68872 0.0
C567 C 0.40783 0.23045 0.688 0.0
C568 C 0.35626 0.15963 0.70763 0.0
C569 C 0.36027 0.19167 0.72609 0.0
C570 C 0.38629 0.24429 0.72517 0.0
C571 C 0.41036 0.26327 0.70635 0.0
H572 H 0.45672 0.91837 0.04489 0.0
H573 H 0.43756 0.74434 0.02813 0.0
H574 H 0.41983 0.94592 1.01096 0.0
H575 H 0.39956 0.77236 0.99383 0.0
H576 H 0.39847 0.85673 0.92633 0.0
H577 H 0.42859 0.81915 0.96029 0.0
H578 H 0.33124 0.94543 0.99226 0.0
H579 H 0.30194 0.98334 0.95853 0.0
C580 C 0.4444 0.88582 0.03398 0.0
C581 C 0.44987 0.82906 0.03934 0.0
C582 C 0.42277 0.90173 1.01451 0.0
C583 C 0.40602 0.86143 0.99972 0.0
C584 C 0.41212 0.80447 1.00487 0.0
C585 C 0.43361 0.78843 0.02454 0.0
C586 C 0.38299 0.87603 0.94062 0.0
C587 C 0.34832 0.92354 0.93967 0.0
C588 C 0.4001 0.85433 0.96009 0.0
C589 C 0.383 0.87975 0.97902 0.0
C590 C 0.34618 0.92553 0.978 0.0
C591 C 0.32911 0.94713 0.95862 0.0
H592 H 0.74523 0.86049 0.36915 0.0
H593 H 0.65255 0.97324 0.40935 0.0
H594 H 0.68604 0.78352 0.3806 0.0
H595 H 0.59407 0.89584 0.42116 0.0
H596 H 0.45781 0.75634 0.41353 0.0
H597 H 0.52072 0.83578 0.40806 0.0
H598 H 0.66253 0.72395 0.4093 0.0
H599 H 0.59977 0.64502 0.41422 0.0
C600 C 0.7129 0.86877 0.38071 0.0
C601 C 0.7038 0.92328 0.38824 0.0
C602 C 0.67892 0.82446 0.38737 0.0
C603 C 0.63499 0.83328 0.40184 0.0
C604 C 0.62688 0.88752 0.40981 0.0
C605 C 0.66082 0.93189 0.40312 0.0
C606 C 0.50248 0.74902 0.41317 0.0
C607 C 0.52375 0.69433 0.41423 0.0
C608 C 0.53867 0.79455 0.40996 0.0
C609 C 0.59685 0.7863 0.40785 0.0
C610 C 0.61802 0.73189 0.41026 0.0
C611 C 0.58199 0.68661 0.41328 0.0
H612 H 0.59498 0.1286 0.65128 0.0
H613 H 0.71353 0.23444 0.61874 0.0
H614 H 0.6718 0.0702 0.66386 0.0
H615 H 0.78966 0.17579 0.63099 0.0
H616 H 0.92079 0.09596 0.67002 0.0
H617 H 0.83873 0.15279 0.66296 0.0
H618 H 0.74261 1.00339 0.65074 0.0
H619 H 0.82517 0.94612 0.65821 0.0
C620 C 0.63734 0.13955 0.64683 0.0
C621 C 0.64796 0.1865 0.63403 0.0
C622 C 0.68133 0.10582 0.65396 0.0
C623 C 0.73698 0.11842 0.64858 0.0
C624 C 0.74745 0.16537 0.6358 0.0
C625 C 0.70363 0.19891 0.62864 0.0
C626 C 0.8819 0.0751 0.66618 0.0
C627 C 0.8796 1.01654 0.66459 0.0
C628 C 0.83493 0.10774 0.66197 0.0
C629 C 0.78433 0.0828 0.65584 0.0
C630 C 0.78092 0.02397 0.65547 0.0
C631 C 0.82815 0.99109 0.65982 0.0
H632 H 0.62861 0.32603 0.90904 0.0
H633 H 0.48163 0.42844 0.91737 0.0
H634 H 0.56893 0.24474 0.90236 0.0
H635 H 0.42227 0.34761 0.91119 0.0
H636 H 0.33858 0.21742 0.8691 0.0
H637 H 0.39756 0.29408 0.88084 0.0
H638 H 0.50041 0.17796 0.91553 0.0
H639 H 0.44196 0.10082 0.9034 0.0
C640 C 0.58366 0.33086 0.91006 0.0
C641 C 0.55987 0.38376 0.91364 0.0
C642 C 0.54935 0.2843 0.90616 0.0
C643 C 0.49063 0.28974 0.90584 0.0
C644 C 0.4672 0.34204 0.91073 0.0
C645 C 0.50129 0.38836 0.91446 0.0
C646 C 0.37346 0.20811 0.87936 0.0
C647 C 0.38532 0.15275 0.88525 0.0
C648 C 0.40725 0.25224 0.88621 0.0
C649 C 0.45383 0.24239 0.89923 0.0
C650 C 0.46532 0.18711 0.90536 0.0
C651 C 0.43147 0.14288 0.89849 0.0
H652 H 0.17034 0.04391 0.12552 0.0
H653 H 0.23996 0.09471 0.18516 0.0
H654 H 0.25074 0.98471 0.11902 0.0
H655 H 0.32095 0.03385 0.17882 0.0
H656 H 0.48109 0.95485 0.14863 0.0
H657 H 0.40386 1.01729 0.15744 0.0
H658 H 0.28725 0.89831 0.13126 0.0
H659 H 0.36436 0.83675 0.12191 0.0
C660 C 0.20302 0.04248 0.13729 0.0
C661 C 0.19847 0.07395 0.15591 0.0
C662 C 0.24906 1.00801 0.13363 0.0
C663 C 0.29199 1.0033 0.14858 0.0
C664 C 0.28871 0.03642 0.16693 0.0
C665 C 0.24241 0.0715 0.17056 0.0
C666 C 0.43892 0.94171 0.14491 0.0
C667 C 0.42916 0.89078 0.13435 0.0
C668 C 0.39453 0.97758 0.15005 0.0
C669 C 0.33921 0.96344 0.14481 0.0
C670 C 0.32937 0.9114 0.13508 0.0
C671 C 0.37366 0.87573 0.12985 0.0
H672 H 0.03821 0.90774 0.40598 0.0
H673 H 0.99082 0.8381 0.34594 0.0
H674 H 0.09606 0.82672 0.41303 0.0
H675 H 0.05032 0.75637 0.35285 0.0
H676 H 0.12861 0.5967 0.38407 0.0
H677 H 0.06567 0.67325 0.3749 0.0
H678 H 0.18373 0.79159 0.40055 0.0
H679 H 0.24582 0.71536 0.41016 0.0
C680 C 0.03999 0.87481 0.39428 0.0
C681 C 1.01015 0.87958 0.37534 0.0
C682 C 0.07365 0.82846 0.39825 0.0
C683 C 0.07911 0.78549 0.38331 0.0
C684 C 0.04717 0.78875 0.36471 0.0
C685 C 1.01289 0.83541 0.36076 0.0
C686 C 0.1414 0.63911 0.38761 0.0
C687 C 0.19224 0.64967 0.39808 0.0
C688 C 0.10527 0.68305 0.38227 0.0
C689 C 0.11907 0.73863 0.38726 0.0
C690 C 0.17097 0.74923 0.39692 0.0
C691 C 0.20691 0.70544 0.40231 0.0
H692 H 0.65164 0.57472 0.64608 0.0
H693 H 0.74858 0.4708 0.60385 0.0
H694 H 0.72936 0.63765 0.64963 0.0
H695 H 0.82585 0.53681 0.60629 0.0
H696 H 0.97496 0.62199 0.63966 0.0
H697 H 0.89609 0.56413 0.62943 0.0
H698 H 0.786 0.70643 0.63641 0.0
H699 H 0.86476 0.76323 0.64792 0.0
C700 C 0.68919 0.56558 0.63715 0.0
C701 C 0.69327 0.51679 0.62481 0.0
C702 C 0.73399 0.60257 0.639 0.0
C703 C 0.78455 0.59284 0.6283 0.0
C704 C 0.78803 0.54547 0.6151 0.0
C705 C 0.74311 0.50777 0.61344 0.0
C706 C 0.93395 0.64107 0.63883 0.0
C707 C 0.92609 0.69715 0.64486 0.0
C708 C 0.88853 0.60785 0.63278 0.0
C709 C 0.834 0.63 0.63223 0.0
C710 C 0.82685 0.6871 0.63717 0.0
C711 C 0.87214 0.72 0.64365 0.0
H712 H 0.12827 0.25599 0.87118 0.0
H713 H 0.98236 0.15152 0.86407 0.0
H714 H 0.06778 0.33685 0.8776 0.0
H715 H 0.92215 0.23192 0.86994 0.0
H716 H 0.83765 0.36294 0.91169 0.0
H717 H 0.89684 0.28637 0.89992 0.0
H718 H 0.99872 0.40244 0.86456 0.0
H719 H 0.94013 0.47945 0.87674 0.0
C720 C 0.08336 0.25062 0.87035 0.0
C721 C 0.06012 0.19729 0.8672 0.0
C722 C 0.04858 0.29693 0.8741 0.0
C723 C 0.98991 0.29083 0.87468 0.0
C724 C 0.96701 0.23805 0.87019 0.0
C725 C 1.0016 0.19197 0.86663 0.0
C726 C 0.87233 0.37223 0.90126 0.0
C727 C 0.88393 0.42756 0.89523 0.0
C728 C 0.90626 0.32815 0.89439 0.0
C729 C 0.9527 0.33803 0.8812 0.0
C730 C 0.96379 0.39326 0.87487 0.0
C731 C 0.92985 0.43742 0.88177 0.0
H732 H 0.32675 0.62439 0.11551 0.0
H733 H 0.43954 0.48352 0.11519 0.0
H734 H 0.24783 0.56067 0.12093 0.0
H735 H 0.36117 0.42012 0.12026 0.0
H736 H 0.22446 0.33935 0.16148 0.0
H737 H 0.30118 0.3986 0.14968 0.0
H738 H 0.18954 0.4848 0.10737 0.0
H739 H 0.11249 0.42612 0.11937 0.0
C740 C 0.33454 0.57981 0.11594 0.0
C741 C 0.38949 0.5591 0.11501 0.0
C742 C 0.28933 0.54319 0.11913 0.0
C743 C 0.2982 0.48519 0.12142 0.0
C744 C 0.35283 0.46452 0.11912 0.0
C745 C 0.39776 0.50093 0.11603 0.0
C746 C 0.21629 0.37037 0.14946 0.0
C747 C 0.16205 0.37779 0.14147 0.0
C748 C 0.26044 0.40436 0.14261 0.0
C749 C 0.25163 0.44676 0.12757 0.0
C750 C 0.19775 0.45315 0.11915 0.0
C751 C 0.15361 0.41906 0.12595 0.0
H752 H 0.45606 0.47525 0.57911 0.0
H753 H 0.5023 0.32172 0.54829 0.0
H754 H 0.44594 0.52078 0.54485 0.0
H755 H 0.49487 0.36726 0.51417 0.0
H756 H 0.47407 0.4535 0.45399 0.0
H757 H 0.52035 0.44393 0.4881 0.0
H758 H 0.36827 0.49594 0.51918 0.0
H759 H 0.32196 0.50305 0.48521 0.0
C760 C 0.46738 0.45222 0.56504 0.0
C761 C 0.48195 0.39541 0.56637 0.0
C762 C 0.46109 0.47813 0.54544 0.0
C763 C 0.46945 0.44766 0.5268 0.0
C764 C 0.48917 0.39231 0.52822 0.0
C765 C 0.49462 0.36624 0.54783 0.0
C766 C 0.45155 0.46557 0.4681 0.0
C767 C 0.39489 0.48077 0.46695 0.0
C768 C 0.47788 0.45962 0.48761 0.0
C769 C 0.44797 0.46893 0.50634 0.0
C770 C 0.39286 0.48941 0.50505 0.0
C771 C 0.36637 0.49459 0.48552 0.0
H772 H 0.26244 1.0007 0.79654 0.0
H773 H 0.11096 0.95169 0.82831 0.0
H774 H 0.21586 0.99148 0.7627 0.0
H775 H 0.06418 0.94059 0.79437 0.0
H776 H 0.1301 0.9664 0.70301 0.0
H777 H 0.14049 1.01393 0.73686 0.0
H778 H 0.08575 0.86404 0.76871 0.0
H779 H 0.07686 0.81668 0.73491 0.0
C780 C 0.2181 0.99179 0.79634 0.0
C781 C 0.18988 0.97863 0.81503 0.0
C782 C 0.19141 0.98549 0.77689 0.0
C783 C 0.13632 0.96473 0.77582 0.0
C784 C 0.10667 0.95627 0.79466 0.0
C785 C 0.13325 0.96317 0.81408 0.0
C786 C 0.11771 0.94467 0.71724 0.0
C787 C 0.10144 0.88826 0.71637 0.0
C788 C 0.12415 0.97168 0.73661 0.0
C789 C 0.11449 0.94269 0.75549 0.0
C790 C 0.0928 0.88794 0.75447 0.0
C791 C 0.08682 0.86081 0.73506 0.0
H792 H 0.57686 0.76292 0.04759 0.0
H793 H 0.63365 0.61351 0.07875 0.0
H794 H 0.58575 0.71631 1.0136 0.0
H795 H 0.64338 0.56665 0.04476 0.0
H796 H 0.61197 0.63058 0.95356 0.0
H797 H 0.56561 0.64142 0.98768 0.0
H798 H 0.71716 0.58854 0.01868 0.0
H799 H 0.76321 0.57928 0.98466 0.0
C800 C 0.58784 0.71902 0.04725 0.0
C801 C 0.60371 0.69156 0.06576 0.0
C802 C 0.59367 0.6923 0.02773 0.0
C803 C 0.61615 0.63788 0.02643 0.0
C804 C 0.62666 0.60872 0.04519 0.0
C805 C 0.62058 0.63536 0.06465 0.0
C806 C 0.63429 0.61864 0.96768 0.0
C807 C 0.69073 0.60258 0.96649 0.0
C808 C 0.60797 0.62543 0.98721 0.0
C809 C 0.63772 0.61636 1.00594 0.0
C810 C 0.6926 0.59507 1.0046 0.0
C811 C 0.71899 0.58878 0.98505 0.0
H812 H 0.95873 0.12734 0.20324 0.0
H813 H 0.99 0.27827 0.2382 0.0
H814 H 0.94586 0.076 0.23629 0.0
H815 H 0.98048 0.22723 0.27102 0.0
H816 H 0.81588 0.07621 0.29559 0.0
H817 H 0.86447 0.08989 0.26205 0.0
H818 H 1.01016 0.14908 0.29529 0.0
H819 H 0.96155 0.13497 0.32869 0.0
C820 C 0.96637 0.14872 0.218 0.0
C821 C 0.97801 0.20635 0.21816 0.0
C822 C 0.9584 0.11949 0.23689 0.0
C823 C 0.96234 0.1474 0.25628 0.0
C824 C 0.97844 0.20405 0.25639 0.0
C825 C 0.98517 0.23337 0.23752 0.0
C826 C 0.8594 0.08879 0.29573 0.0
C827 C 0.88514 0.10424 0.31466 0.0
C828 C 0.88721 0.09714 0.27651 0.0
C829 C 0.94088 0.12157 0.27603 0.0
C830 C 0.96869 0.13085 0.29515 0.0
C831 C 0.94103 0.12231 0.31427 0.0
loop_
_geom_bond_atom_site_label_1
_geom_bond_atom_site_label_2
_geom_bond_distance
_geom_bond_site_symmetry_2
_ccdc_geom_bond_type
Zn0 N4 2.020 . S
Zn0 O8 2.019 . S
Zn0 N10 2.119 . S
Zn0 O18 1.975 . S
C1 N2 1.334 . S
C1 N5 1.336 . S
N2 C1 1.334 . S
N2 C3 1.334 . S
C3 N2 1.334 . S
C3 N4 1.336 . S
N4 Zn0 2.020 . S
N4 C3 1.336 . S
N4 N5 1.354 . S
N5 C1 1.336 . S
N5 N4 1.354 . S
N5 Zn9 2.020 . S
C6 O7 1.244 . S
C6 O30 1.257 . S
O7 C6 1.244 . S
O8 Zn0 2.019 . S
O8 C28 1.257 . S
Zn9 N5 2.020 . S
Zn9 O16 1.975 . S
Zn9 N25 2.119 . S
Zn9 O30 2.019 . S
N10 Zn0 2.119 . S
N10 C12 1.334 . S
N10 C13 1.328 . S
C11 C12 1.391 . S
C11 N14 1.329 . S
C11 H32 0.930 . S
C12 N10 1.334 . S
C12 C11 1.391 . S
C12 H19 0.930 . S
C13 N10 1.328 . S
C13 C15 1.392 . S
C13 H20 0.930 . S
N14 C11 1.329 . S
N14 C15 1.331 . S
C15 C13 1.392 . S
C15 N14 1.331 . S
O16 Zn9 1.975 . S
O16 C17 1.252 . S
C17 O16 1.252 . S
C17 O18 1.252 . S
O18 Zn0 1.975 . S
O18 C17 1.252 . S
H19 C12 0.930 . S
H20 C13 0.930 . S
C21 C22 1.392 . S
C21 N25 1.328 . S
C21 H27 0.930 . S
C22 C21 1.392 . S
C22 N26 1.331 . S
C23 C24 1.391 . S
C23 N26 1.329 . S
C23 H33 0.930 . S
C24 C23 1.391 . S
C24 N25 1.334 . S
C24 H31 0.930 . S
N25 Zn9 2.119 . S
N25 C21 1.328 . S
N25 C24 1.334 . S
N26 C22 1.331 . S
N26 C23 1.329 . S
H27 C21 0.930 . S
C28 O8 1.257 . S
C28 O29 1.244 . S
O29 C28 1.244 . S
O30 C6 1.257 . S
O30 Zn9 2.019 . S
H31 C24 0.930 . S
H32 C11 0.930 . S
H33 C23 0.930 . S
Zn34 N38 2.020 1_655 S
Zn34 O42 2.019 . S
Zn34 N44 2.119 . S
Zn34 O52 1.975 . S
C35 N36 1.334 . S
C35 N39 1.336 . S
N36 C35 1.334 . S
N36 C37 1.334 . S
C37 N36 1.334 . S
C37 N38 1.336 . S
N38 Zn34 2.020 1_455 S
N38 C37 1.336 . S
N38 N39 1.354 . S
N39 C35 1.336 . S
N39 N38 1.354 . S
N39 Zn43 2.020 . S
C40 O41 1.244 . S
C40 O64 1.257 . S
O41 C40 1.244 . S
O42 Zn34 2.019 . S
O42 C62 1.257 . S
Zn43 N39 2.020 . S
Zn43 O50 1.975 1_455 S
Zn43 N59 2.119 . S
Zn43 O64 2.019 . S
N44 Zn34 2.119 . S
N44 C46 1.334 . S
N44 C47 1.328 . S
C45 C46 1.391 . S
C45 N48 1.329 . S
C45 H66 0.930 . S
C46 N44 1.334 . S
C46 C45 1.391 . S
C46 H53 0.930 . S
C47 N44 1.328 . S
C47 C49 1.392 . S
C47 H54 0.930 . S
N48 C45 1.329 . S
N48 C49 1.331 . S
C49 C47 1.392 . S
C49 N48 1.331 . S
O50 Zn43 1.975 1_655 S
O50 C51 1.252 . S
C51 O50 1.252 . S
C51 O52 1.252 . S
O52 Zn34 1.975 . S
O52 C51 1.252 . S
H53 C46 0.930 . S
H54 C47 0.930 . S
C55 C56 1.392 . S
C55 N59 1.328 . S
C55 H61 0.930 . S
C56 C55 1.392 . S
C56 N60 1.331 . S
C57 C58 1.391 . S
C57 N60 1.329 . S
C57 H67 0.930 . S
C58 C57 1.391 . S
C58 N59 1.334 . S
C58 H65 0.930 . S
N59 Zn43 2.119 . S
N59 C55 1.328 . S
N59 C58 1.334 . S
N60 C56 1.331 . S
N60 C57 1.329 . S
H61 C55 0.930 . S
C62 O42 1.257 . S
C62 O63 1.244 . S
O63 C62 1.244 . S
O64 C40 1.257 . S
O64 Zn43 2.019 . S
H65 C58 0.930 . S
H66 C45 0.930 . S
H67 C57 0.930 . S
Zn68 N72 2.020 . S
Zn68 O76 2.019 . S
Zn68 N78 2.119 . S
Zn68 O86 1.975 . S
C69 N70 1.334 . S
C69 N73 1.336 . S
N70 C69 1.334 . S
N70 C71 1.334 . S
C71 N70 1.334 . S
C71 N72 1.336 . S
N72 Zn68 2.020 . S
N72 C71 1.336 . S
N72 N73 1.354 . S
N73 C69 1.336 . S
N73 N72 1.354 . S
N73 Zn77 2.020 . S
C74 O75 1.244 . S
C74 O98 1.257 . S
O75 C74 1.244 . S
O76 Zn68 2.019 . S
O76 C96 1.257 . S
Zn77 N73 2.020 . S
Zn77 O84 1.975 . S
Zn77 N93 2.119 . S
Zn77 O98 2.019 . S
N78 Zn68 2.119 . S
N78 C80 1.334 . S
N78 C81 1.328 . S
C79 C80 1.391 . S
C79 N82 1.329 . S
C79 H100 0.930 . S
C80 N78 1.334 . S
C80 C79 1.391 . S
C80 H87 0.930 . S
C81 N78 1.328 . S
C81 C83 1.392 . S
C81 H88 0.930 . S
N82 C79 1.329 . S
N82 C83 1.331 . S
C83 C81 1.392 . S
C83 N82 1.331 . S
O84 Zn77 1.975 . S
O84 C85 1.252 . S
C85 O84 1.252 . S
C85 O86 1.252 . S
O86 Zn68 1.975 . S
O86 C85 1.252 . S
H87 C80 0.930 . S
H88 C81 0.930 . S
C89 C90 1.392 . S
C89 N93 1.328 . S
C89 H95 0.930 . S
C90 C89 1.392 . S
C90 N94 1.331 . S
C91 C92 1.391 . S
C91 N94 1.329 . S
C91 H101 0.930 . S
C92 C91 1.391 . S
C92 N93 1.334 . S
C92 H99 0.930 . S
N93 Zn77 2.119 . S
N93 C89 1.328 . S
N93 C92 1.334 . S
N94 C90 1.331 . S
N94 C91 1.329 . S
H95 C89 0.930 . S
C96 O76 1.257 . S
C96 O97 1.244 . S
O97 C96 1.244 . S
O98 C74 1.257 . S
O98 Zn77 2.019 . S
H99 C92 0.930 . S
H100 C79 0.930 . S
H101 C91 0.930 . S
Zn102 N106 2.020 1_455 S
Zn102 O110 2.019 . S
Zn102 N112 2.119 . S
Zn102 O120 1.975 . S
C103 N104 1.334 . S
C103 N107 1.336 . S
N104 C103 1.334 . S
N104 C105 1.334 . S
C105 N104 1.334 . S
C105 N106 1.336 . S
N106 Zn102 2.020 1_655 S
N106 C105 1.336 . S
N106 N107 1.354 . S
N107 C103 1.336 . S
N107 N106 1.354 . S
N107 Zn111 2.020 . S
C108 O109 1.244 . S
C108 O132 1.257 . S
O109 C108 1.244 . S
O110 Zn102 2.019 . S
O110 C130 1.257 . S
Zn111 N107 2.020 . S
Zn111 O118 1.975 1_655 S
Zn111 N127 2.119 . S
Zn111 O132 2.019 . S
N112 Zn102 2.119 . S
N112 C114 1.334 . S
N112 C115 1.328 . S
C113 C114 1.391 . S
C113 N116 1.329 . S
C113 H134 0.930 . S
C114 N112 1.334 . S
C114 C113 1.391 . S
C114 H121 0.930 . S
C115 N112 1.328 . S
C115 C117 1.392 . S
C115 H122 0.930 . S
N116 C113 1.329 . S
N116 C117 1.331 . S
C117 C115 1.392 . S
C117 N116 1.331 . S
O118 Zn111 1.975 1_455 S
O118 C119 1.252 . S
C119 O118 1.252 . S
C119 O120 1.252 . S
O120 Zn102 1.975 . S
O120 C119 1.252 . S
H121 C114 0.930 . S
H122 C115 0.930 . S
C123 C124 1.392 . S
C123 N127 1.328 . S
C123 H129 0.930 . S
C124 C123 1.392 . S
C124 N128 1.331 . S
C125 C126 1.391 . S
C125 N128 1.329 . S
C125 H135 0.930 . S
C126 C125 1.391 . S
C126 N127 1.334 . S
C126 H133 0.930 . S
N127 Zn111 2.119 . S
N127 C123 1.328 . S
N127 C126 1.334 . S
N128 C124 1.331 . S
N128 C125 1.329 . S
H129 C123 0.930 . S
C130 O110 1.257 . S
C130 O131 1.244 . S
O131 C130 1.244 . S
O132 C108 1.257 . S
O132 Zn111 2.019 . S
H133 C126 0.930 . S
H134 C113 0.930 . S
H135 C125 0.930 . S
Zn136 N140 2.020 1_565 S
Zn136 O144 2.019 . S
Zn136 N146 2.119 . S
Zn136 O154 1.975 . S
C137 N138 1.334 . S
C137 N141 1.336 . S
N138 C137 1.334 . S
N138 C139 1.334 . S
C139 N138 1.334 . S
C139 N140 1.336 . S
N140 Zn136 2.020 1_545 S
N140 C139 1.336 . S
N140 N141 1.354 . S
N141 C137 1.336 . S
N141 N140 1.354 . S
N141 Zn145 2.020 . S
C142 O143 1.244 . S
C142 O166 1.257 . S
O143 C142 1.244 . S
O144 Zn136 2.019 . S
O144 C164 1.257 . S
Zn145 N141 2.020 . S
Zn145 O152 1.975 1_545 S
Zn145 N161 2.119 . S
Zn145 O166 2.019 . S
N146 Zn136 2.119 . S
N146 C148 1.334 . S
N146 C149 1.328 . S
C147 C148 1.391 . S
C147 N150 1.329 . S
C147 H168 0.930 . S
C148 N146 1.334 . S
C148 C147 1.391 . S
C148 H155 0.930 . S
C149 N146 1.328 . S
C149 C151 1.392 . S
C149 H156 0.930 . S
N150 C147 1.329 . S
N150 C151 1.331 . S
C151 C149 1.392 . S
C151 N150 1.331 . S
O152 Zn145 1.975 1_565 S
O152 C153 1.252 . S
C153 O152 1.252 . S
C153 O154 1.252 . S
O154 Zn136 1.975 . S
O154 C153 1.252 . S
H155 C148 0.930 . S
H156 C149 0.930 . S
C157 C158 1.392 . S
C157 N161 1.328 . S
C157 H163 0.930 . S
C158 C157 1.392 . S
C158 N162 1.331 . S
C159 C160 1.391 . S
C159 N162 1.329 . S
C159 H169 0.930 . S
C160 C159 1.391 . S
C160 N161 1.334 . S
C160 H167 0.930 . S
N161 Zn145 2.119 . S
N161 C157 1.328 . S
N161 C160 1.334 . S
N162 C158 1.331 . S
N162 C159 1.329 . S
H163 C157 0.930 . S
C164 O144 1.257 . S
C164 O165 1.244 . S
O165 C164 1.244 . S
O166 C142 1.257 . S
O166 Zn145 2.019 . S
H167 C160 0.930 . S
H168 C147 0.930 . S
H169 C159 0.930 . S
Zn170 N174 2.020 . S
Zn170 O178 2.019 . S
Zn170 N180 2.119 . S
Zn170 O188 1.975 . S
C171 N172 1.334 . S
C171 N175 1.336 . S
N172 C171 1.334 . S
N172 C173 1.334 . S
C173 N172 1.334 . S
C173 N174 1.336 . S
N174 Zn170 2.020 . S
N174 C173 1.336 . S
N174 N175 1.354 . S
N175 C171 1.336 . S
N175 N174 1.354 . S
N175 Zn179 2.020 . S
C176 O177 1.244 . S
C176 O200 1.257 . S
O177 C176 1.244 . S
O178 Zn170 2.019 . S
O178 C198 1.257 . S
Zn179 N175 2.020 . S
Zn179 O186 1.975 . S
Zn179 N195 2.119 . S
Zn179 O200 2.019 . S
N180 Zn170 2.119 . S
N180 C182 1.334 . S
N180 C183 1.328 . S
C181 C182 1.391 . S
C181 N184 1.329 . S
C181 H202 0.930 . S
C182 N180 1.334 . S
C182 C181 1.391 . S
C182 H189 0.930 . S
C183 N180 1.328 . S
C183 C185 1.392 . S
C183 H190 0.930 . S
N184 C181 1.329 . S
N184 C185 1.331 . S
C185 C183 1.392 . S
C185 N184 1.331 . S
O186 Zn179 1.975 . S
O186 C187 1.252 . S
C187 O186 1.252 . S
C187 O188 1.252 . S
O188 Zn170 1.975 . S
O188 C187 1.252 . S
H189 C182 0.930 . S
H190 C183 0.930 . S
C191 C192 1.392 . S
C191 N195 1.328 . S
C191 H197 0.930 . S
C192 C191 1.392 . S
C192 N196 1.331 . S
C193 C194 1.391 . S
C193 N196 1.329 . S
C193 H203 0.930 . S
C194 C193 1.391 . S
C194 N195 1.334 . S
C194 H201 0.930 . S
N195 Zn179 2.119 . S
N195 C191 1.328 . S
N195 C194 1.334 . S
N196 C192 1.331 . S
N196 C193 1.329 . S
H197 C191 0.930 . S
C198 O178 1.257 . S
C198 O199 1.244 . S
O199 C198 1.244 . S
O200 C176 1.257 . S
O200 Zn179 2.019 . S
H201 C194 0.930 . S
H202 C181 0.930 . S
H203 C193 0.930 . S
Zn204 N208 2.020 1_545 S
Zn204 O212 2.019 . S
Zn204 N214 2.119 . S
Zn204 O222 1.975 . S
C205 N206 1.334 . S
C205 N209 1.336 . S
N206 C205 1.334 . S
N206 C207 1.334 . S
C207 N206 1.334 . S
C207 N208 1.336 . S
N208 Zn204 2.020 1_565 S
N208 C207 1.336 . S
N208 N209 1.354 . S
N209 C205 1.336 . S
N209 N208 1.354 . S
N209 Zn213 2.020 . S
C210 O211 1.244 . S
C210 O234 1.257 . S
O211 C210 1.244 . S
O212 Zn204 2.019 . S
O212 C232 1.257 . S
Zn213 N209 2.020 . S
Zn213 O220 1.975 1_565 S
Zn213 N229 2.119 . S
Zn213 O234 2.019 . S
N214 Zn204 2.119 . S
N214 C216 1.334 . S
N214 C217 1.328 . S
C215 C216 1.391 . S
C215 N218 1.329 . S
C215 H236 0.930 . S
C216 N214 1.334 . S
C216 C215 1.391 . S
C216 H223 0.930 . S
C217 N214 1.328 . S
C217 C219 1.392 . S
C217 H224 0.930 . S
N218 C215 1.329 . S
N218 C219 1.331 . S
C219 C217 1.392 . S
C219 N218 1.331 . S
O220 Zn213 1.975 1_545 S
O220 C221 1.252 . S
C221 O220 1.252 . S
C221 O222 1.252 . S
O222 Zn204 1.975 . S
O222 C221 1.252 . S
H223 C216 0.930 . S
H224 C217 0.930 . S
C225 C226 1.392 . S
C225 N229 1.328 . S
C225 H231 0.930 . S
C226 C225 1.392 . S
C226 N230 1.331 . S
C227 C228 1.391 . S
C227 N230 1.329 . S
C227 H237 0.930 . S
C228 C227 1.391 . S
C228 N229 1.334 . S
C228 H235 0.930 . S
N229 Zn213 2.119 . S
N229 C225 1.328 . S
N229 C228 1.334 . S
N230 C226 1.331 . S
N230 C227 1.329 . S
H231 C225 0.930 . S
C232 O212 1.257 . S
C232 O233 1.244 . S
O233 C232 1.244 . S
O234 C210 1.257 . S
O234 Zn213 2.019 . S
H235 C228 0.930 . S
H236 C215 0.930 . S
H237 C227 0.930 . S
Zn238 N242 2.020 . S
Zn238 O246 2.019 . S
Zn238 N248 2.119 . S
Zn238 O256 1.975 . S
C239 N240 1.334 . S
C239 N243 1.336 . S
N240 C239 1.334 . S
N240 C241 1.334 . S
C241 N240 1.334 . S
C241 N242 1.336 . S
N242 Zn238 2.020 . S
N242 C241 1.336 . S
N242 N243 1.354 . S
N243 C239 1.336 . S
N243 N242 1.354 . S
N243 Zn247 2.020 . S
C244 O245 1.244 . S
C244 O268 1.257 . S
O245 C244 1.244 . S
O246 Zn238 2.019 . S
O246 C266 1.257 . S
Zn247 N243 2.020 . S
Zn247 O254 1.975 . S
Zn247 N263 2.119 . S
Zn247 O268 2.019 . S
N248 Zn238 2.119 . S
N248 C250 1.334 . S
N248 C251 1.328 . S
C249 C250 1.391 . S
C249 N252 1.329 . S
C249 H270 0.930 . S
C250 N248 1.334 . S
C250 C249 1.391 . S
C250 H257 0.930 . S
C251 N248 1.328 . S
C251 C253 1.392 . S
C251 H258 0.930 . S
N252 C249 1.329 . S
N252 C253 1.331 . S
C253 C251 1.392 . S
C253 N252 1.331 . S
O254 Zn247 1.975 . S
O254 C255 1.252 . S
C255 O254 1.252 . S
C255 O256 1.252 . S
O256 Zn238 1.975 . S
O256 C255 1.252 . S
H257 C250 0.930 . S
H258 C251 0.930 . S
C259 C260 1.392 . S
C259 N263 1.328 . S
C259 H265 0.930 . S
C260 C259 1.392 . S
C260 N264 1.331 . S
C261 C262 1.391 . S
C261 N264 1.329 . S
C261 H271 0.930 . S
C262 C261 1.391 . S
C262 N263 1.334 . S
C262 H269 0.930 . S
N263 Zn247 2.119 . S
N263 C259 1.328 . S
N263 C262 1.334 . S
N264 C260 1.331 . S
N264 C261 1.329 . S
H265 C259 0.930 . S
C266 O246 1.257 . S
C266 O267 1.244 . S
O267 C266 1.244 . S
O268 C244 1.257 . S
O268 Zn247 2.019 . S
H269 C262 0.930 . S
H270 C249 0.930 . S
H271 C261 0.930 . S
H272 C280 0.950 . S
H273 C285 0.950 . S
H274 C282 0.950 . S
H275 C284 0.950 . S
H276 C286 0.950 . S
H277 C288 0.950 . S
H278 C290 0.950 . S
H279 C291 0.950 . S
C280 H272 0.950 . S
C280 C281 1.386 . S
C280 C282 1.391 . S
C281 C280 1.386 . S
C281 C285 1.393 . S
C282 H274 0.950 . S
C282 C280 1.391 . S
C282 C283 1.400 . S
C283 C282 1.400 . S
C283 C284 1.398 . S
C283 C289 1.491 . S
C284 H275 0.950 . S
C284 C283 1.398 . S
C284 C285 1.391 . S
C285 H273 0.950 . S
C285 C281 1.393 . S
C285 C284 1.391 . S
C286 H276 0.950 . S
C286 C287 1.386 . S
C286 C288 1.391 . S
C287 C286 1.386 . S
C287 C291 1.393 . S
C288 H277 0.950 . S
C288 C286 1.391 . S
C288 C289 1.400 . S
C289 C283 1.491 . S
C289 C288 1.400 . S
C289 C290 1.398 . S
C290 H278 0.950 . S
C290 C289 1.398 . S
C290 C291 1.391 . S
C291 H279 0.950 . S
C291 C287 1.393 . S
C291 C290 1.391 . S
H292 C300 0.950 . S
H293 C305 0.950 . S
H294 C302 0.950 . S
H295 C304 0.950 . S
H296 C306 0.950 . S
H297 C308 0.950 . S
H298 C310 0.950 . S
H299 C311 0.950 . S
C300 H292 0.950 . S
C300 C301 1.386 . S
C300 C302 1.391 1_545 S
C301 C300 1.386 . S
C301 C305 1.393 . S
C302 H294 0.950 . S
C302 C300 1.391 1_565 S
C302 C303 1.400 . S
C303 C302 1.400 . S
C303 C304 1.398 . S
C303 C309 1.491 . S
C304 H295 0.950 . S
C304 C303 1.398 . S
C304 C305 1.391 1_565 S
C305 H293 0.950 . S
C305 C301 1.393 . S
C305 C304 1.391 1_545 S
C306 H296 0.950 . S
C306 C307 1.386 . S
C306 C308 1.391 . S
C307 C306 1.386 . S
C307 C311 1.393 . S
C308 H297 0.950 . S
C308 C306 1.391 . S
C308 C309 1.400 . S
C309 C303 1.491 . S
C309 C308 1.400 . S
C309 C310 1.398 . S
C310 H298 0.950 . S
C310 C309 1.398 . S
C310 C311 1.391 . S
C311 H299 0.950 . S
C311 C307 1.393 . S
C311 C310 1.391 . S
H312 C320 0.950 . S
H313 C325 0.950 . S
H314 C322 0.950 . S
H315 C324 0.950 . S
H316 C326 0.950 . S
H317 C328 0.950 . S
H318 C330 0.950 . S
H319 C331 0.950 . S
C320 H312 0.950 . S
C320 C321 1.386 . S
C320 C322 1.391 . S
C321 C320 1.386 . S
C321 C325 1.393 . S
C322 H314 0.950 . S
C322 C320 1.391 . S
C322 C323 1.400 . S
C323 C322 1.400 . S
C323 C324 1.398 . S
C323 C329 1.491 . S
C324 H315 0.950 . S
C324 C323 1.398 . S
C324 C325 1.391 . S
C325 H313 0.950 . S
C325 C321 1.393 . S
C325 C324 1.391 . S
C326 H316 0.950 . S
C326 C327 1.386 . S
C326 C328 1.391 . S
C327 C326 1.386 . S
C327 C331 1.393 . S
C328 H317 0.950 . S
C328 C326 1.391 . S
C328 C329 1.400 . S
C329 C323 1.491 . S
C329 C328 1.400 . S
C329 C330 1.398 . S
C330 H318 0.950 . S
C330 C329 1.398 . S
C330 C331 1.391 . S
C331 H319 0.950 . S
C331 C327 1.393 . S
C331 C330 1.391 . S
H332 C340 0.950 . S
H333 C345 0.950 . S
H334 C342 0.950 . S
H335 C344 0.950 . S
H336 C346 0.950 . S
H337 C348 0.950 . S
H338 C350 0.950 . S
H339 C351 0.950 . S
C340 H332 0.950 . S
C340 C341 1.386 . S
C340 C342 1.391 . S
C341 C340 1.386 . S
C341 C345 1.393 . S
C342 H334 0.950 . S
C342 C340 1.391 . S
C342 C343 1.400 . S
C343 C342 1.400 . S
C343 C344 1.398 . S
C343 C349 1.491 . S
C344 H335 0.950 . S
C344 C343 1.398 . S
C344 C345 1.391 . S
C345 H333 0.950 . S
C345 C341 1.393 . S
C345 C344 1.391 . S
C346 H336 0.950 . S
C346 C347 1.386 . S
C346 C348 1.391 1_565 S
C347 C346 1.386 . S
C347 C351 1.393 1_565 S
C348 H337 0.950 . S
C348 C346 1.391 1_545 S
C348 C349 1.400 . S
C349 C343 1.491 . S
C349 C348 1.400 . S
C349 C350 1.398 . S
C350 H338 0.950 . S
C350 C349 1.398 . S
C350 C351 1.391 . S
C351 H339 0.950 . S
C351 C347 1.393 1_545 S
C351 C350 1.391 . S
H352 C360 0.950 . S
H353 C365 0.950 . S
H354 C362 0.950 . S
H355 C364 0.950 . S
H356 C366 0.950 . S
H357 C368 0.950 . S
H358 C370 0.950 . S
H359 C371 0.950 . S
C360 H352 0.950 . S
C360 C361 1.386 . S
C360 C362 1.391 1_455 S
C361 C360 1.386 . S
C361 C365 1.393 1_455 S
C362 H354 0.950 . S
C362 C360 1.391 1_655 S
C362 C363 1.400 . S
C363 C362 1.400 . S
C363 C364 1.398 . S
C363 C369 1.491 . S
C364 H355 0.950 . S
C364 C363 1.398 . S
C364 C365 1.391 . S
C365 H353 0.950 . S
C365 C361 1.393 1_655 S
C365 C364 1.391 . S
C366 H356 0.950 . S
C366 C367 1.386 . S
C366 C368 1.391 . S
C367 C366 1.386 . S
C367 C371 1.393 . S
C368 H357 0.950 . S
C368 C366 1.391 . S
C368 C369 1.400 . S
C369 C363 1.491 . S
C369 C368 1.400 . S
C369 C370 1.398 . S
C370 H358 0.950 . S
C370 C369 1.398 . S
C370 C371 1.391 . S
C371 H359 0.950 . S
C371 C367 1.393 . S
C371 C370 1.391 . S
H372 C380 0.950 . S
H373 C385 0.950 . S
H374 C382 0.950 . S
H375 C384 0.950 . S
H376 C386 0.950 . S
H377 C388 0.950 . S
H378 C390 0.950 . S
H379 C391 0.950 . S
C380 H372 0.950 . S
C380 C381 1.386 . S
C380 C382 1.391 . S
C381 C380 1.386 . S
C381 C385 1.393 . S
C382 H374 0.950 . S
C382 C380 1.391 . S
C382 C383 1.400 . S
C383 C382 1.400 . S
C383 C384 1.398 . S
C383 C389 1.491 . S
C384 H375 0.950 . S
C384 C383 1.398 . S
C384 C385 1.391 . S
C385 H373 0.950 . S
C385 C381 1.393 . S
C385 C384 1.391 . S
C386 H376 0.950 . S
C386 C387 1.386 . S
C386 C388 1.391 . S
C387 C386 1.386 . S
C387 C391 1.393 . S
C388 H377 0.950 . S
C388 C386 1.391 . S
C388 C389 1.400 . S
C389 C383 1.491 . S
C389 C388 1.400 . S
C389 C390 1.398 . S
C390 H378 0.950 . S
C390 C389 1.398 . S
C390 C391 1.391 . S
C391 H379 0.950 . S
C391 C387 1.393 . S
C391 C390 1.391 . S
H392 C400 0.950 . S
H393 C405 0.950 . S
H394 C402 0.950 . S
H395 C404 0.950 . S
H396 C406 0.950 . S
H397 C408 0.950 . S
H398 C410 0.950 . S
H399 C411 0.950 . S
C400 H392 0.950 . S
C400 C401 1.386 . S
C400 C402 1.391 . S
C401 C400 1.386 . S
C401 C405 1.393 . S
C402 H394 0.950 . S
C402 C400 1.391 . S
C402 C403 1.400 . S
C403 C402 1.400 . S
C403 C404 1.398 . S
C403 C409 1.491 . S
C404 H395 0.950 . S
C404 C403 1.398 . S
C404 C405 1.391 . S
C405 H393 0.950 . S
C405 C401 1.393 . S
C405 C404 1.391 . S
C406 H396 0.950 . S
C406 C407 1.386 . S
C406 C408 1.391 1_655 S
C407 C406 1.386 . S
C407 C411 1.393 1_655 S
C408 H397 0.950 . S
C408 C406 1.391 1_455 S
C408 C409 1.400 . S
C409 C403 1.491 . S
C409 C408 1.400 . S
C409 C410 1.398 . S
C410 H398 0.950 . S
C410 C409 1.398 . S
C410 C411 1.391 . S
C411 H399 0.950 . S
C411 C407 1.393 1_455 S
C411 C410 1.391 . S
H412 C420 0.950 . S
H413 C425 0.950 . S
H414 C422 0.950 . S
H415 C424 0.950 . S
H416 C426 0.950 . S
H417 C428 0.950 . S
H418 C430 0.950 . S
H419 C431 0.950 . S
C420 H412 0.950 . S
C420 C421 1.386 . S
C420 C422 1.391 . S
C421 C420 1.386 . S
C421 C425 1.393 . S
C422 H414 0.950 . S
C422 C420 1.391 . S
C422 C423 1.400 . S
C423 C422 1.400 . S
C423 C424 1.398 . S
C423 C429 1.491 . S
C424 H415 0.950 . S
C424 C423 1.398 . S
C424 C425 1.391 . S
C425 H413 0.950 . S
C425 C421 1.393 . S
C425 C424 1.391 . S
C426 H416 0.950 . S
C426 C427 1.386 . S
C426 C428 1.391 . S
C427 C426 1.386 . S
C427 C431 1.393 . S
C428 H417 0.950 . S
C428 C426 1.391 . S
C428 C429 1.400 . S
C429 C423 1.491 . S
C429 C428 1.400 . S
C429 C430 1.398 . S
C430 H418 0.950 . S
C430 C429 1.398 . S
C430 C431 1.391 . S
C431 H419 0.950 . S
C431 C427 1.393 . S
C431 C430 1.391 . S
H432 C440 0.950 . S
H433 C445 0.950 . S
H434 C442 0.950 . S
H435 C444 0.950 . S
H436 C446 0.950 . S
H437 C448 0.950 . S
H438 C450 0.950 . S
H439 C451 0.950 . S
C440 H432 0.950 . S
C440 C441 1.386 . S
C440 C442 1.391 . S
C441 C440 1.386 . S
C441 C445 1.393 . S
C442 H434 0.950 . S
C442 C440 1.391 . S
C442 C443 1.400 . S
C443 C442 1.400 . S
C443 C444 1.398 . S
C443 C449 1.491 . S
C444 H435 0.950 . S
C444 C443 1.398 . S
C444 C445 1.391 . S
C445 H433 0.950 . S
C445 C441 1.393 . S
C445 C444 1.391 . S
C446 H436 0.950 . S
C446 C447 1.386 . S
C446 C448 1.391 . S
C447 C446 1.386 . S
C447 C451 1.393 . S
C448 H437 0.950 . S
C448 C446 1.391 . S
C448 C449 1.400 . S
C449 C443 1.491 . S
C449 C448 1.400 . S
C449 C450 1.398 . S
C450 H438 0.950 . S
C450 C449 1.398 . S
C450 C451 1.391 . S
C451 H439 0.950 . S
C451 C447 1.393 . S
C451 C450 1.391 . S
H452 C460 0.950 . S
H453 C465 0.950 . S
H454 C462 0.950 . S
H455 C464 0.950 . S
H456 C466 0.950 . S
H457 C468 0.950 . S
H458 C470 0.950 . S
H459 C471 0.950 . S
C460 H452 0.950 . S
C460 C461 1.386 . S
C460 C462 1.391 . S
C461 C460 1.386 . S
C461 C465 1.393 . S
C462 H454 0.950 . S
C462 C460 1.391 . S
C462 C463 1.400 . S
C463 C462 1.400 . S
C463 C464 1.398 . S
C463 C469 1.491 . S
C464 H455 0.950 . S
C464 C463 1.398 . S
C464 C465 1.391 . S
C465 H453 0.950 . S
C465 C461 1.393 . S
C465 C464 1.391 . S
C466 H456 0.950 . S
C466 C467 1.386 . S
C466 C468 1.391 . S
C467 C466 1.386 . S
C467 C471 1.393 . S
C468 H457 0.950 . S
C468 C466 1.391 . S
C468 C469 1.400 . S
C469 C463 1.491 . S
C469 C468 1.400 . S
C469 C470 1.398 . S
C470 H458 0.950 . S
C470 C469 1.398 . S
C470 C471 1.391 . S
C471 H459 0.950 . S
C471 C467 1.393 . S
C471 C470 1.391 . S
H472 C480 0.950 . S
H473 C485 0.950 . S
H474 C482 0.950 . S
H475 C484 0.950 . S
H476 C486 0.950 . S
H477 C488 0.950 . S
H478 C490 0.950 . S
H479 C491 0.950 . S
C480 H472 0.950 . S
C480 C481 1.386 . S
C480 C482 1.391 1_556 S
C481 C480 1.386 . S
C481 C485 1.393 . S
C482 H474 0.950 . S
C482 C480 1.391 1_554 S
C482 C483 1.400 . S
C483 C482 1.400 . S
C483 C484 1.398 . S
C483 C489 1.491 . S
C484 H475 0.950 . S
C484 C483 1.398 . S
C484 C485 1.391 1_554 S
C485 H473 0.950 . S
C485 C481 1.393 . S
C485 C484 1.391 1_556 S
C486 H476 0.950 . S
C486 C487 1.386 . S
C486 C488 1.391 . S
C487 C486 1.386 . S
C487 C491 1.393 . S
C488 H477 0.950 . S
C488 C486 1.391 . S
C488 C489 1.400 . S
C489 C483 1.491 . S
C489 C488 1.400 . S
C489 C490 1.398 . S
C490 H478 0.950 . S
C490 C489 1.398 . S
C490 C491 1.391 . S
C491 H479 0.950 . S
C491 C487 1.393 . S
C491 C490 1.391 . S
H492 C500 0.950 . S
H493 C505 0.950 . S
H494 C502 0.950 . S
H495 C504 0.950 . S
H496 C506 0.950 . S
H497 C508 0.950 . S
H498 C510 0.950 . S
H499 C511 0.950 . S
C500 H492 0.950 . S
C500 C501 1.386 . S
C500 C502 1.391 . S
C501 C500 1.386 . S
C501 C505 1.393 . S
C502 H494 0.950 . S
C502 C500 1.391 . S
C502 C503 1.400 . S
C503 C502 1.400 . S
C503 C504 1.398 . S
C503 C509 1.491 . S
C504 H495 0.950 . S
C504 C503 1.398 . S
C504 C505 1.391 . S
C505 H493 0.950 . S
C505 C501 1.393 . S
C505 C504 1.391 . S
C506 H496 0.950 . S
C506 C507 1.386 . S
C506 C508 1.391 . S
C507 C506 1.386 . S
C507 C511 1.393 . S
C508 H497 0.950 . S
C508 C506 1.391 . S
C508 C509 1.400 . S
C509 C503 1.491 . S
C509 C508 1.400 . S
C509 C510 1.398 . S
C510 H498 0.950 . S
C510 C509 1.398 . S
C510 C511 1.391 . S
C511 H499 0.950 . S
C511 C507 1.393 . S
C511 C510 1.391 . S
H512 C520 0.950 . S
H513 C525 0.950 . S
H514 C522 0.950 . S
H515 C524 0.950 . S
H516 C526 0.950 . S
H517 C528 0.950 . S
H518 C530 0.950 . S
H519 C531 0.950 . S
C520 H512 0.950 . S
C520 C521 1.386 . S
C520 C522 1.391 . S
C521 C520 1.386 . S
C521 C525 1.393 . S
C522 H514 0.950 . S
C522 C520 1.391 . S
C522 C523 1.400 . S
C523 C522 1.400 . S
C523 C524 1.398 . S
C523 C529 1.491 . S
C524 H515 0.950 . S
C524 C523 1.398 . S
C524 C525 1.391 . S
C525 H513 0.950 . S
C525 C521 1.393 . S
C525 C524 1.391 . S
C526 H516 0.950 . S
C526 C527 1.386 . S
C526 C528 1.391 . S
C527 C526 1.386 . S
C527 C531 1.393 . S
C528 H517 0.950 . S
C528 C526 1.391 . S
C528 C529 1.400 . S
C529 C523 1.491 . S
C529 C528 1.400 . S
C529 C530 1.398 . S
C530 H518 0.950 . S
C530 C529 1.398 . S
C530 C531 1.391 . S
C531 H519 0.950 . S
C531 C527 1.393 . S
C531 C530 1.391 . S
H532 C540 0.950 . S
H533 C545 0.950 . S
H534 C542 0.950 . S
H535 C544 0.950 . S
H536 C546 0.950 . S
H537 C548 0.950 . S
H538 C550 0.950 . S
H539 C551 0.950 . S
C540 H532 0.950 . S
C540 C541 1.386 . S
C540 C542 1.391 . S
C541 C540 1.386 . S
C541 C545 1.393 . S
C542 H534 0.950 . S
C542 C540 1.391 . S
C542 C543 1.400 . S
C543 C542 1.400 . S
C543 C544 1.398 . S
C543 C549 1.491 . S
C544 H535 0.950 . S
C544 C543 1.398 . S
C544 C545 1.391 . S
C545 H533 0.950 . S
C545 C541 1.393 . S
C545 C544 1.391 . S
C546 H536 0.950 . S
C546 C547 1.386 . S
C546 C548 1.391 . S
C547 C546 1.386 . S
C547 C551 1.393 . S
C548 H537 0.950 . S
C548 C546 1.391 . S
C548 C549 1.400 . S
C549 C543 1.491 . S
C549 C548 1.400 . S
C549 C550 1.398 . S
C550 H538 0.950 . S
C550 C549 1.398 . S
C550 C551 1.391 . S
C551 H539 0.950 . S
C551 C547 1.393 . S
C551 C550 1.391 . S
H552 C560 0.950 . S
H553 C565 0.950 . S
H554 C562 0.950 . S
H555 C564 0.950 . S
H556 C566 0.950 . S
H557 C568 0.950 . S
H558 C570 0.950 . S
H559 C571 0.950 . S
C560 H552 0.950 . S
C560 C561 1.386 . S
C560 C562 1.391 . S
C561 C560 1.386 . S
C561 C565 1.393 . S
C562 H554 0.950 . S
C562 C560 1.391 . S
C562 C563 1.400 . S
C563 C562 1.400 . S
C563 C564 1.398 . S
C563 C569 1.491 . S
C564 H555 0.950 . S
C564 C563 1.398 . S
C564 C565 1.391 . S
C565 H553 0.950 . S
C565 C561 1.393 . S
C565 C564 1.391 . S
C566 H556 0.950 . S
C566 C567 1.386 . S
C566 C568 1.391 . S
C567 C566 1.386 . S
C567 C571 1.393 . S
C568 H557 0.950 . S
C568 C566 1.391 . S
C568 C569 1.400 . S
C569 C563 1.491 . S
C569 C568 1.400 . S
C569 C570 1.398 . S
C570 H558 0.950 . S
C570 C569 1.398 . S
C570 C571 1.391 . S
C571 H559 0.950 . S
C571 C567 1.393 . S
C571 C570 1.391 . S
H572 C580 0.950 . S
H573 C585 0.950 . S
H574 C582 0.950 . S
H575 C584 0.950 . S
H576 C586 0.950 . S
H577 C588 0.950 . S
H578 C590 0.950 . S
H579 C591 0.948 1_545 S
C580 H572 0.950 . S
C580 C581 1.386 . S
C580 C582 1.391 1_554 S
C581 C580 1.386 . S
C581 C585 1.393 . S
C582 H574 0.950 . S
C582 C580 1.391 1_556 S
C582 C583 1.400 . S
C583 C582 1.400 . S
C583 C584 1.398 . S
C583 C589 1.491 . S
C584 H575 0.950 . S
C584 C583 1.398 . S
C584 C585 1.391 1_556 S
C585 H573 0.950 . S
C585 C581 1.393 . S
C585 C584 1.391 1_554 S
C586 H576 0.950 . S
C586 C587 1.386 . S
C586 C588 1.391 . S
C587 C586 1.386 . S
C587 C591 1.393 . S
C588 H577 0.950 . S
C588 C586 1.391 . S
C588 C589 1.400 . S
C589 C583 1.491 . S
C589 C588 1.400 . S
C589 C590 1.398 . S
C590 H578 0.950 . S
C590 C589 1.398 . S
C590 C591 1.391 . S
C591 H579 0.948 1_565 S
C591 C587 1.393 . S
C591 C590 1.391 . S
H592 C600 0.950 . S
H593 C605 0.950 . S
H594 C602 0.950 . S
H595 C604 0.950 . S
H596 C606 0.950 . S
H597 C608 0.950 . S
H598 C610 0.950 . S
H599 C611 0.950 . S
C600 H592 0.950 . S
C600 C601 1.386 . S
C600 C602 1.391 . S
C601 C600 1.386 . S
C601 C605 1.393 . S
C602 H594 0.950 . S
C602 C600 1.391 . S
C602 C603 1.400 . S
C603 C602 1.400 . S
C603 C604 1.398 . S
C603 C609 1.491 . S
C604 H595 0.950 . S
C604 C603 1.398 . S
C604 C605 1.391 . S
C605 H593 0.950 . S
C605 C601 1.393 . S
C605 C604 1.391 . S
C606 H596 0.950 . S
C606 C607 1.386 . S
C606 C608 1.391 . S
C607 C606 1.386 . S
C607 C611 1.393 . S
C608 H597 0.950 . S
C608 C606 1.391 . S
C608 C609 1.400 . S
C609 C603 1.491 . S
C609 C608 1.400 . S
C609 C610 1.398 . S
C610 H598 0.950 . S
C610 C609 1.398 . S
C610 C611 1.391 . S
C611 H599 0.950 . S
C611 C607 1.393 . S
C611 C610 1.391 . S
H612 C620 0.950 . S
H613 C625 0.950 . S
H614 C622 0.950 . S
H615 C624 0.950 . S
H616 C626 0.950 . S
H617 C628 0.950 1_545 S
H618 C630 0.950 . S
H619 C631 0.950 . S
C620 H612 0.950 . S
C620 C621 1.386 . S
C620 C622 1.391 . S
C621 C620 1.386 . S
C621 C625 1.393 . S
C622 H614 0.950 . S
C622 C620 1.391 . S
C622 C623 1.400 . S
C623 C622 1.400 . S
C623 C624 1.398 . S
C623 C629 1.491 1_545 S
C624 H615 0.950 . S
C624 C623 1.398 . S
C624 C625 1.391 . S
C625 H613 0.950 . S
C625 C621 1.393 . S
C625 C624 1.391 . S
C626 H616 0.950 . S
C626 C627 1.386 . S
C626 C628 1.391 . S
C627 C626 1.386 . S
C627 C631 1.393 . S
C628 H617 0.950 1_565 S
C628 C626 1.391 . S
C628 C629 1.400 . S
C629 C623 1.491 1_565 S
C629 C628 1.400 . S
C629 C630 1.398 . S
C630 H618 0.950 . S
C630 C629 1.398 . S
C630 C631 1.391 . S
C631 H619 0.950 . S
C631 C627 1.393 . S
C631 C630 1.391 . S
H632 C640 0.950 . S
H633 C645 0.950 . S
H634 C642 0.950 . S
H635 C644 0.950 . S
H636 C646 0.950 . S
H637 C648 0.950 . S
H638 C650 0.950 . S
H639 C651 0.950 . S
C640 H632 0.950 . S
C640 C641 1.386 . S
C640 C642 1.391 . S
C641 C640 1.386 . S
C641 C645 1.393 . S
C642 H634 0.950 . S
C642 C640 1.391 . S
C642 C643 1.400 . S
C643 C642 1.400 . S
C643 C644 1.398 . S
C643 C649 1.491 . S
C644 H635 0.950 . S
C644 C643 1.398 . S
C644 C645 1.391 . S
C645 H633 0.950 . S
C645 C641 1.393 . S
C645 C644 1.391 . S
C646 H636 0.950 . S
C646 C647 1.386 . S
C646 C648 1.391 . S
C647 C646 1.386 . S
C647 C651 1.393 . S
C648 H637 0.950 . S
C648 C646 1.391 . S
C648 C649 1.400 . S
C649 C643 1.491 . S
C649 C648 1.400 . S
C649 C650 1.398 . S
C650 H638 0.950 . S
C650 C649 1.398 . S
C650 C651 1.391 . S
C651 H639 0.950 . S
C651 C647 1.393 . S
C651 C650 1.391 . S
H652 C660 0.950 . S
H653 C665 0.950 . S
H654 C662 0.950 . S
H655 C664 0.950 1_565 S
H656 C666 0.950 . S
H657 C668 0.950 . S
H658 C670 0.950 . S
H659 C671 0.950 . S
C660 H652 0.950 . S
C660 C661 1.386 . S
C660 C662 1.391 . S
C661 C660 1.386 . S
C661 C665 1.393 . S
C662 H654 0.950 . S
C662 C660 1.391 . S
C662 C663 1.400 . S
C663 C662 1.400 . S
C663 C664 1.398 . S
C663 C669 1.478 1_545 S
C664 H655 0.950 1_545 S
C664 C663 1.398 . S
C664 C665 1.391 . S
C665 H653 0.950 . S
C665 C661 1.393 . S
C665 C664 1.391 . S
C666 H656 0.950 . S
C666 C667 1.386 . S
C666 C668 1.391 . S
C667 C666 1.386 . S
C667 C671 1.393 . S
C668 H657 0.950 . S
C668 C666 1.391 . S
C668 C669 1.417 . S
C669 C663 1.478 1_565 S
C669 C668 1.417 . S
C669 C670 1.395 1_565 S
C670 H658 0.950 . S
C670 C669 1.395 1_545 S
C670 C671 1.391 1_545 S
C671 H659 0.950 . S
C671 C667 1.393 . S
C671 C670 1.391 1_565 S
H672 C680 0.950 . S
H673 C685 0.950 . S
H674 C682 0.950 . S
H675 C684 0.950 . S
H676 C686 0.950 . S
H677 C688 0.950 . S
H678 C690 0.950 . S
H679 C691 0.950 . S
C680 H672 0.950 . S
C680 C681 1.386 . S
C680 C682 1.391 . S
C681 C680 1.386 . S
C681 C685 1.393 . S
C682 H674 0.950 . S
C682 C680 1.391 . S
C682 C683 1.400 . S
C683 C682 1.400 . S
C683 C684 1.398 . S
C683 C689 1.491 1_655 S
C684 H675 0.950 . S
C684 C683 1.398 . S
C684 C685 1.391 . S
C685 H673 0.950 . S
C685 C681 1.393 . S
C685 C684 1.391 . S
C686 H676 0.950 . S
C686 C687 1.386 . S
C686 C688 1.391 . S
C687 C686 1.386 . S
C687 C691 1.393 . S
C688 H677 0.950 . S
C688 C686 1.391 . S
C688 C689 1.400 . S
C689 C683 1.491 1_455 S
C689 C688 1.400 . S
C689 C690 1.398 . S
C690 H678 0.950 . S
C690 C689 1.398 . S
C690 C691 1.391 . S
C691 H679 0.950 . S
C691 C687 1.393 . S
C691 C690 1.391 . S
H692 C700 0.950 . S
H693 C705 0.950 . S
H694 C702 0.950 . S
H695 C704 0.950 . S
H696 C706 0.950 . S
H697 C708 0.950 . S
H698 C710 0.950 . S
H699 C711 0.950 . S
C700 H692 0.950 . S
C700 C701 1.386 . S
C700 C702 1.391 . S
C701 C700 1.386 . S
C701 C705 1.393 . S
C702 H694 0.950 . S
C702 C700 1.391 . S
C702 C703 1.400 . S
C703 C702 1.400 . S
C703 C704 1.398 . S
C703 C709 1.491 . S
C704 H695 0.950 . S
C704 C703 1.398 . S
C704 C705 1.391 . S
C705 H693 0.950 . S
C705 C701 1.393 . S
C705 C704 1.391 . S
C706 H696 0.950 . S
C706 C707 1.386 . S
C706 C708 1.391 . S
C707 C706 1.386 . S
C707 C711 1.393 . S
C708 H697 0.950 . S
C708 C706 1.391 . S
C708 C709 1.400 . S
C709 C703 1.491 . S
C709 C708 1.400 . S
C709 C710 1.398 . S
C710 H698 0.950 . S
C710 C709 1.398 . S
C710 C711 1.391 . S
C711 H699 0.950 . S
C711 C707 1.393 . S
C711 C710 1.391 . S
H712 C720 0.950 . S
H713 C725 0.950 . S
H714 C722 0.950 . S
H715 C724 0.950 . S
H716 C726 0.950 . S
H717 C728 0.950 . S
H718 C730 0.950 . S
H719 C731 0.950 . S
C720 H712 0.950 . S
C720 C721 1.386 . S
C720 C722 1.391 . S
C721 C720 1.386 . S
C721 C725 1.393 . S
C722 H714 0.950 . S
C722 C720 1.391 . S
C722 C723 1.400 . S
C723 C722 1.400 . S
C723 C724 1.398 . S
C723 C729 1.492 1_455 S
C724 H715 0.950 . S
C724 C723 1.398 . S
C724 C725 1.391 . S
C725 H713 0.950 . S
C725 C721 1.393 . S
C725 C724 1.391 . S
C726 H716 0.950 . S
C726 C727 1.386 . S
C726 C728 1.391 . S
C727 C726 1.386 . S
C727 C731 1.393 . S
C728 H717 0.950 . S
C728 C726 1.391 . S
C728 C729 1.400 . S
C729 C723 1.492 1_655 S
C729 C728 1.400 . S
C729 C730 1.398 . S
C730 H718 0.950 . S
C730 C729 1.398 . S
C730 C731 1.391 . S
C731 H719 0.950 . S
C731 C727 1.393 . S
C731 C730 1.391 . S
H732 C740 0.950 . S
H733 C745 0.950 . S
H734 C742 0.950 . S
H735 C744 0.950 . S
H736 C746 0.950 . S
H737 C748 0.950 . S
H738 C750 0.950 . S
H739 C751 0.950 . S
C740 H732 0.950 . S
C740 C741 1.386 . S
C740 C742 1.391 . S
C741 C740 1.386 . S
C741 C745 1.393 . S
C742 H734 0.950 . S
C742 C740 1.391 . S
C742 C743 1.400 . S
C743 C742 1.400 . S
C743 C744 1.398 . S
C743 C749 1.491 . S
C744 H735 0.950 . S
C744 C743 1.398 . S
C744 C745 1.391 . S
C745 H733 0.950 . S
C745 C741 1.393 . S
C745 C744 1.391 . S
C746 H736 0.950 . S
C746 C747 1.386 . S
C746 C748 1.391 . S
C747 C746 1.386 . S
C747 C751 1.393 . S
C748 H737 0.950 . S
C748 C746 1.391 . S
C748 C749 1.400 . S
C749 C743 1.491 . S
C749 C748 1.400 . S
C749 C750 1.398 . S
C750 H738 0.950 . S
C750 C749 1.398 . S
C750 C751 1.391 . S
C751 H739 0.950 . S
C751 C747 1.393 . S
C751 C750 1.391 . S
H752 C760 0.950 . S
H753 C765 0.950 . S
H754 C762 0.950 . S
H755 C764 0.950 . S
H756 C766 0.950 . S
H757 C768 0.950 . S
H758 C770 0.950 . S
H759 C771 0.950 . S
C760 H752 0.950 . S
C760 C761 1.386 . S
C760 C762 1.391 . S
C761 C760 1.386 . S
C761 C765 1.393 . S
C762 H754 0.950 . S
C762 C760 1.391 . S
C762 C763 1.400 . S
C763 C762 1.400 . S
C763 C764 1.398 . S
C763 C769 1.491 . S
C764 H755 0.950 . S
C764 C763 1.398 . S
C764 C765 1.391 . S
C765 H753 0.950 . S
C765 C761 1.393 . S
C765 C764 1.391 . S
C766 H756 0.950 . S
C766 C767 1.386 . S
C766 C768 1.391 . S
C767 C766 1.386 . S
C767 C771 1.393 . S
C768 H757 0.950 . S
C768 C766 1.391 . S
C768 C769 1.400 . S
C769 C763 1.491 . S
C769 C768 1.400 . S
C769 C770 1.398 . S
C770 H758 0.950 . S
C770 C769 1.398 . S
C770 C771 1.391 . S
C771 H759 0.950 . S
C771 C767 1.393 . S
C771 C770 1.391 . S
H772 C780 0.950 . S
H773 C785 0.950 1_545 S
H774 C782 0.950 . S
H775 C784 0.950 . S
H776 C786 0.950 . S
H777 C788 0.950 . S
H778 C790 0.950 . S
H779 C791 0.950 . S
C780 H772 0.950 . S
C780 C781 1.386 . S
C780 C782 1.391 . S
C781 C780 1.386 . S
C781 C785 1.393 . S
C782 H774 0.950 . S
C782 C780 1.391 . S
C782 C783 1.400 . S
C783 C782 1.400 . S
C783 C784 1.398 . S
C783 C789 1.491 . S
C784 H775 0.950 . S
C784 C783 1.398 . S
C784 C785 1.391 . S
C785 H773 0.950 1_565 S
C785 C781 1.393 . S
C785 C784 1.391 . S
C786 H776 0.950 . S
C786 C787 1.386 . S
C786 C788 1.391 . S
C787 C786 1.386 . S
C787 C791 1.393 . S
C788 H777 0.950 . S
C788 C786 1.391 . S
C788 C789 1.400 . S
C789 C783 1.491 . S
C789 C788 1.400 . S
C789 C790 1.398 . S
C790 H778 0.950 . S
C790 C789 1.398 . S
C790 C791 1.391 . S
C791 H779 0.950 . S
C791 C787 1.393 . S
C791 C790 1.391 . S
H792 C800 0.950 . S
H793 C805 0.950 . S
H794 C802 0.950 . S
H795 C804 0.950 . S
H796 C806 0.950 . S
H797 C808 0.950 . S
H798 C810 0.950 . S
H799 C811 0.950 . S
C800 H792 0.950 . S
C800 C801 1.386 . S
C800 C802 1.391 . S
C801 C800 1.386 . S
C801 C805 1.393 . S
C802 H794 0.950 . S
C802 C800 1.391 . S
C802 C803 1.400 . S
C803 C802 1.400 . S
C803 C804 1.398 . S
C803 C809 1.491 1_554 S
C804 H795 0.950 . S
C804 C803 1.398 . S
C804 C805 1.391 . S
C805 H793 0.950 . S
C805 C801 1.393 . S
C805 C804 1.391 . S
C806 H796 0.950 . S
C806 C807 1.386 . S
C806 C808 1.391 . S
C807 C806 1.386 . S
C807 C811 1.393 . S
C808 H797 0.950 . S
C808 C806 1.391 . S
C808 C809 1.400 . S
C809 C803 1.491 1_556 S
C809 C808 1.400 . S
C809 C810 1.398 . S
C810 H798 0.950 . S
C810 C809 1.398 . S
C810 C811 1.391 . S
C811 H799 0.950 . S
C811 C807 1.393 . S
C811 C810 1.391 . S
H812 C820 0.950 . S
H813 C825 0.950 . S
H814 C822 0.950 . S
H815 C824 0.950 . S
H816 C826 0.950 . S
H817 C828 0.950 . S
H818 C830 0.950 . S
H819 C831 0.950 . S
C820 H812 0.950 . S
C820 C821 1.386 . S
C820 C822 1.391 . S
C821 C820 1.386 . S
C821 C825 1.393 . S
C822 H814 0.950 . S
C822 C820 1.391 . S
C822 C823 1.400 . S
C823 C822 1.400 . S
C823 C824 1.398 . S
C823 C829 1.491 . S
C824 H815 0.950 . S
C824 C823 1.398 . S
C824 C825 1.391 . S
C825 H813 0.950 . S
C825 C821 1.393 . S
C825 C824 1.391 . S
C826 H816 0.950 . S
C826 C827 1.386 . S
C826 C828 1.391 . S
C827 C826 1.386 . S
C827 C831 1.393 . S
C828 H817 0.950 . S
C828 C826 1.391 . S
C828 C829 1.400 . S
C829 C823 1.491 . S
C829 C828 1.400 . S
C829 C830 1.398 . S
C830 H818 0.950 . S
C830 C829 1.398 . S
C830 C831 1.391 . S
C831 H819 0.950 . S
C831 C827 1.393 . S
C831 C830 1.391 . S
C281 C3 1.262 . S
C287 C158 1.404 . S
C301 C192 1.408 . S
C307 C35 1.283 . S
C321 C226 1.404 . S
C327 C69 1.261 . S
C341 C103 1.272 . S
C347 C253 1.410 . S
C361 C15 1.396 . S
C367 C137 1.252 . S
C381 C56 1.415 . S
C387 C171 1.295 . S
C401 C205 1.278 . S
C407 C90 1.413 . S
C421 C124 1.419 . S
C427 C241 1.296 . S
C441 C40 1.413 . S
C447 C6 1.443 . S
C461 C74 1.423 . S
C467 C62 1.455 . S
C481 C96 1.455 . S
C487 C108 1.430 . S
C501 C130 1.455 . S
C507 C28 1.423 . S
C521 C266 1.411 . S
C527 C164 1.445 . S
C541 C198 1.455 . S
C547 C142 1.428 . S
C561 C232 1.443 . S
C567 C176 1.419 . S
C581 C244 1.454 . S
C587 C210 1.432 . S
C601 C153 1.883 . S
C607 C22 1.655 . S
C621 C187 1.886 . S
C627 C49 1.686 . S
C641 C83 1.691 . S
C647 C221 1.887 . S
C661 C117 1.692 . S
C667 C255 1.887 . S
C681 C151 1.678 . S
C687 C17 1.886 . S
C701 C185 1.655 . S
C707 C51 1.883 . S
C721 C219 1.672 . S
C727 C85 1.884 . S
C741 C260 1.685 . S
C747 C119 1.886 . S
C761 C173 2.099 . S
C767 C1 2.079 . S
C781 C207 2.085 . S
C787 C37 2.078 . S
C801 C239 2.083 . S
C807 C71 2.079 . S
C821 C105 2.098 . S
C827 C139 2.088 . S
