# Generated by pormake.
# Topology ske, (6)-cn, num edge types: 1
# Building blocks:
#     Node 0, Type 0, BuildingBlock: CUWYAW_clean_sbu_0, # of connection points: 6
#     Node 1, Type 0, BuildingBlock: CUWYAW_clean_sbu_0, # of connection points: 6
#     Node 2, Type 0, BuildingBlock: CUWYAW_clean_sbu_0, # of connection points: 6
#     Node 3, Type 0, BuildingBlock: CUWYAW_clean_sbu_0, # of connection points: 6
#     Node 4, Type 0, BuildingBlock: CUWYAW_clean_sbu_0, # of connection points: 6
#     Node 5, Type 0, BuildingBlock: CUWYAW_clean_sbu_0, # of connection points: 6
#     Node 6, Type 0, BuildingBlock: CUWYAW_clean_sbu_0, # of connection points: 6
#     Node 7, Type 0, BuildingBlock: CUWYAW_clean_sbu_0, # of connection points: 6
#     Edge 8, Type (0, 0), BuildingBlock: KIFKEQ_clean_linker_1, # of connection points: 2
#     Edge 9, Type (0, 0), BuildingBlock: KIFKEQ_clean_linker_1, # of connection points: 2
#     Edge 10, Type (0, 0), BuildingBlock: KIFKEQ_clean_linker_1, # of connection points: 2
#     Edge 11, Type (0, 0), BuildingBlock: KIFKEQ_clean_linker_1, # of connection points: 2
#     Edge 12, Type (0, 0), BuildingBlock: KIFKEQ_clean_linker_1, # of connection points: 2
#     Edge 13, Type (0, 0), BuildingBlock: KIFKEQ_clean_linker_1, # of connection points: 2
#     Edge 14, Type (0, 0), BuildingBlock: KIFKEQ_clean_linker_1, # of connection points: 2
#     Edge 15, Type (0, 0), BuildingBlock: KIFKEQ_clean_linker_1, # of connection points: 2
#     Edge 16, Type (0, 0), BuildingBlock: KIFKEQ_clean_linker_1, # of connection points: 2
#     Edge 17, Type (0, 0), BuildingBlock: KIFKEQ_clean_linker_1, # of connection points: 2
#     Edge 18, Type (0, 0), BuildingBlock: KIFKEQ_clean_linker_1, # of connection points: 2
#     Edge 19, Type (0, 0), BuildingBlock: KIFKEQ_clean_linker_1, # of connection points: 2
#     Edge 20, Type (0, 0), BuildingBlock: KIFKEQ_clean_linker_1, # of connection points: 2
#     Edge 21, Type (0, 0), BuildingBlock: KIFKEQ_clean_linker_1, # of connection points: 2
#     Edge 22, Type (0, 0), BuildingBlock: KIFKEQ_clean_linker_1, # of connection points: 2
#     Edge 23, Type (0, 0), BuildingBlock: KIFKEQ_clean_linker_1, # of connection points: 2
#     Edge 24, Type (0, 0), BuildingBlock: KIFKEQ_clean_linker_1, # of connection points: 2
#     Edge 25, Type (0, 0), BuildingBlock: KIFKEQ_clean_linker_1, # of connection points: 2
#     Edge 26, Type (0, 0), BuildingBlock: KIFKEQ_clean_linker_1, # of connection points: 2
#     Edge 27, Type (0, 0), BuildingBlock: KIFKEQ_clean_linker_1, # of connection points: 2
#     Edge 28, Type (0, 0), BuildingBlock: KIFKEQ_clean_linker_1, # of connection points: 2
#     Edge 29, Type (0, 0), BuildingBlock: KIFKEQ_clean_linker_1, # of connection points: 2
#     Edge 30, Type (0, 0), BuildingBlock: KIFKEQ_clean_linker_1, # of connection points: 2
#     Edge 31, Type (0, 0), BuildingBlock: KIFKEQ_clean_linker_1, # of connection points: 2
# Relax obj value: 0.182
# Max RMSD: 0.193
# Mean RMSD: 0.187
data_MOF--net-ske--node1-CUWYAW_clean_sbu_0--edge1-KIFKEQ_clean_linker_1
_symmetry_space_group_name_H-M    P1
_symmetry_Int_Tables_number       1
_symmetry_cell_setting            triclinic
loop_
_symmetry_equiv_pos_as_xyz
'x, y, z'
_cell_length_a     104.0088
_cell_length_b     29.446292
_cell_length_c     15.802151
_cell_angle_alpha  89.789082
_cell_angle_beta   89.970221
_cell_angle_gamma 97.74224
loop_
_atom_site_label
_atom_site_type_symbol
_atom_site_fract_x
_atom_site_fract_y
_atom_site_fract_z
_atom_type_partial_charge
C0 C 0.18304 0.23466 0.54379 0.0
Eu1 Eu 0.15971 0.25817 0.53184 0.0
C2 C 0.19571 0.24293 0.58858 0.0
C3 C 0.2052 0.27935 0.56455 0.0
C4 C 0.21775 0.28323 0.59827 0.0
C5 C 0.22118 0.25074 0.6567 0.0
C6 C 0.21157 0.21512 0.68269 0.0
C7 C 0.19902 0.21115 0.64874 0.0
C8 C 0.15395 0.34589 0.5231 0.0
C9 C 0.14574 0.26556 0.71408 0.0
C10 C 0.10754 0.28872 0.52825 0.0
Eu11 Eu 0.13088 0.26503 0.53725 0.0
C12 C 0.09387 0.27722 0.50071 0.0
C13 C 0.08617 0.23688 0.528 0.0
C14 C 0.07273 0.23081 0.51493 0.0
C15 C 0.06666 0.26489 0.47429 0.0
C16 C 0.07449 0.30412 0.44319 0.0
C17 C 0.08793 0.31024 0.45654 0.0
C18 C 0.13664 0.17685 0.54038 0.0
C19 C 0.14519 0.26087 0.35581 0.0
O20 O 0.17297 0.21354 0.5844 0.0
O21 O 0.17998 0.2667 0.49299 0.0
O22 O 0.16394 0.33209 0.4874 0.0
O23 O 0.1482 0.31424 0.56872 0.0
O24 O 0.15534 0.25041 0.67264 0.0
O25 O 0.13618 0.28128 0.67322 0.0
O26 O 0.11654 0.30107 0.4717 0.0
O27 O 0.1116 0.26473 0.59003 0.0
O28 O 0.1265 0.18973 0.5756 0.0
O29 O 0.14237 0.20966 0.49782 0.0
O30 O 0.136 0.27806 0.39817 0.0
O31 O 0.15428 0.24202 0.39608 0.0
H32 H 0.20307 0.30427 0.51781 0.0
H33 H 0.22483 0.31148 0.5777 0.0
H34 H 0.21387 0.18919 0.72683 0.0
H35 H 0.19201 0.18226 0.66757 0.0
H36 H 0.09045 0.21076 0.56234 0.0
H37 H 0.06703 0.19984 0.53848 0.0
H38 H 0.07017 0.33125 0.41231 0.0
H39 H 0.09361 0.34188 0.43575 0.0
C40 C 0.8523 0.28388 0.54239 0.0
Eu41 Eu 0.87563 0.26038 0.53074 0.0
C42 C 0.83957 0.27488 0.58652 0.0
C43 C 0.83002 0.23947 0.55952 0.0
C44 C 0.81744 0.23501 0.59298 0.0
C45 C 0.81404 0.26593 0.65409 0.0
C46 C 0.82369 0.3005 0.68297 0.0
C47 C 0.83628 0.30505 0.6493 0.0
C48 C 0.88129 0.17257 0.52261 0.0
C49 C 0.88954 0.25261 0.71307 0.0
C50 C 0.92774 0.22929 0.52739 0.0
Eu51 Eu 0.90443 0.25319 0.53629 0.0
C52 C 0.94143 0.24088 0.50003 0.0
C53 C 0.94909 0.28126 0.52695 0.0
C54 C 0.96254 0.28743 0.51398 0.0
C55 C 0.96865 0.25343 0.47382 0.0
C56 C 0.96085 0.21417 0.44312 0.0
C57 C 0.94741 0.20795 0.45637 0.0
C58 C 0.89875 0.34146 0.53898 0.0
C59 C 0.89018 0.25785 0.35483 0.0
O60 O 0.86231 0.30443 0.58399 0.0
O61 O 0.85544 0.25256 0.49069 0.0
O62 O 0.87133 0.18658 0.48688 0.0
O63 O 0.88707 0.20405 0.56803 0.0
O64 O 0.87998 0.26801 0.67145 0.0
O65 O 0.89908 0.23673 0.67236 0.0
O66 O 0.91877 0.21741 0.47065 0.0
O67 O 0.92366 0.25293 0.58931 0.0
O68 O 0.90887 0.32839 0.57423 0.0
O69 O 0.89301 0.30883 0.49653 0.0
O70 O 0.89932 0.24035 0.39736 0.0
O71 O 0.88114 0.27692 0.39496 0.0
H72 H 0.83214 0.21583 0.5107 0.0
H73 H 0.81033 0.20756 0.57011 0.0
H74 H 0.82141 0.32524 0.72926 0.0
H75 H 0.84333 0.33316 0.67052 0.0
H76 H 0.94478 0.30732 0.56089 0.0
H77 H 0.96821 0.31842 0.53722 0.0
H78 H 0.9652 0.18709 0.41264 0.0
H79 H 0.94176 0.17629 0.43587 0.0
C80 C 0.10739 0.78801 0.50412 0.0
Eu81 Eu 0.13077 0.7647 0.49756 0.0
C82 C 0.09385 0.77858 0.53542 0.0
C83 C 0.08656 0.73494 0.52854 0.0
C84 C 0.07316 0.72885 0.54409 0.0
C85 C 0.06673 0.76624 0.56668 0.0
C86 C 0.0742 0.8094 0.5773 0.0
C87 C 0.08759 0.81544 0.56171 0.0
C88 C 0.1367 0.67687 0.49445 0.0
C89 C 0.14494 0.75948 0.68014 0.0
C90 C 0.18308 0.73554 0.49093 0.0
Eu91 Eu 0.15966 0.7583 0.50346 0.0
C92 C 0.19575 0.74418 0.44595 0.0
C93 C 0.20439 0.78452 0.45959 0.0
C94 C 0.21701 0.78933 0.42645 0.0
C95 C 0.22133 0.75395 0.37893 0.0
C96 C 0.21252 0.71425 0.36304 0.0
C97 C 0.19992 0.70938 0.39645 0.0
C98 C 0.15373 0.84589 0.51087 0.0
C99 C 0.14568 0.7651 0.3216 0.0
O100 O 0.11665 0.80432 0.55617 0.0
O101 O 0.11116 0.75987 0.44842 0.0
O102 O 0.12667 0.68987 0.45787 0.0
O103 O 0.14237 0.70943 0.53755 0.0
O104 O 0.13529 0.77422 0.63801 0.0
O105 O 0.1545 0.74327 0.64013 0.0
O106 O 0.17305 0.71428 0.45059 0.0
O107 O 0.17995 0.76734 0.54152 0.0
O108 O 0.16376 0.83233 0.54649 0.0
O109 O 0.14809 0.8141 0.46559 0.0
O110 O 0.15501 0.74855 0.36351 0.0
O111 O 0.13638 0.78243 0.36222 0.0
H112 H 0.09112 0.70584 0.50825 0.0
H113 H 0.06778 0.69496 0.53672 0.0
H114 H 0.06963 0.8391 0.59369 0.0
H115 H 0.09295 0.84953 0.56647 0.0
H116 H 0.20156 0.81199 0.49778 0.0
H117 H 0.22344 0.82066 0.43893 0.0
H118 H 0.21552 0.6861 0.32753 0.0
H119 H 0.19357 0.67762 0.38589 0.0
C120 C 0.9278 0.73104 0.50383 0.0
Eu121 Eu 0.90435 0.75386 0.49699 0.0
C122 C 0.94135 0.73998 0.53533 0.0
C123 C 0.94967 0.7797 0.51172 0.0
C124 C 0.96303 0.78349 0.52802 0.0
C125 C 0.96841 0.74761 0.56809 0.0
C126 C 0.95994 0.70893 0.59534 0.0
C127 C 0.9466 0.70513 0.57891 0.0
C128 C 0.89832 0.84156 0.49312 0.0
C129 C 0.89016 0.75874 0.67957 0.0
C130 C 0.85196 0.78207 0.49044 0.0
Eu131 Eu 0.87544 0.75981 0.5029 0.0
C132 C 0.83925 0.77333 0.44593 0.0
C133 C 0.82984 0.73677 0.47056 0.0
C134 C 0.81725 0.73249 0.43735 0.0
C135 C 0.81369 0.76472 0.37884 0.0
C136 C 0.82322 0.80048 0.35224 0.0
C137 C 0.83582 0.80483 0.38568 0.0
C138 C 0.88149 0.67235 0.51094 0.0
C139 C 0.88947 0.75349 0.32106 0.0
O140 O 0.91848 0.71407 0.55531 0.0
O141 O 0.92403 0.75945 0.44826 0.0
O142 O 0.90837 0.82873 0.4565 0.0
O143 O 0.89268 0.80888 0.53655 0.0
O144 O 0.89984 0.74422 0.63757 0.0
O145 O 0.88057 0.77478 0.6394 0.0
O146 O 0.86197 0.80355 0.44983 0.0
O147 O 0.85514 0.75029 0.54126 0.0
O148 O 0.87145 0.68569 0.5466 0.0
O149 O 0.88709 0.7043 0.46539 0.0
O150 O 0.8801 0.76985 0.36283 0.0
O151 O 0.89879 0.73628 0.36182 0.0
H152 H 0.94598 0.80708 0.47734 0.0
H153 H 0.9692 0.81364 0.5054 0.0
H154 H 0.96366 0.68096 0.62772 0.0
H155 H 0.94046 0.67397 0.59723 0.0
H156 H 0.83206 0.71206 0.51742 0.0
H157 H 0.81024 0.70414 0.4584 0.0
H158 H 0.82082 0.82622 0.30802 0.0
H159 H 0.84275 0.83383 0.3664 0.0
C160 C 0.68295 0.73273 0.05091 0.0
Eu161 Eu 0.6597 0.75682 0.03888 0.0
C162 C 0.69532 0.73828 0.09869 0.0
C163 C 0.70202 0.78168 0.11826 0.0
C164 C 0.71445 0.78577 0.15447 0.0
C165 C 0.72045 0.7466 0.1719 0.0
C166 C 0.71351 0.70324 0.15429 0.0
C167 C 0.70113 0.6992 0.11811 0.0
C168 C 0.65385 0.84427 0.02936 0.0
C169 C 0.64567 0.76436 0.22099 0.0
C170 C 0.60733 0.78658 0.0364 0.0
Eu171 Eu 0.63075 0.76335 0.04409 0.0
C172 C 0.59366 0.77718 1.00731 0.0
C173 C 0.58546 0.73761 0.03314 0.0
C174 C 0.57205 0.73354 1.01883 0.0
C175 C 0.56649 0.769 0.97868 0.0
C176 C 0.57482 0.80753 0.94935 0.0
C177 C 0.58822 0.81158 0.96371 0.0
C178 C 0.63672 0.67539 0.04615 0.0
C179 C 0.64514 0.75971 0.8624 0.0
O180 O 0.67269 0.70977 0.08655 0.0
O181 O 0.6802 0.76748 1.00579 0.0
O182 O 0.66383 0.83044 0.99369 0.0
O183 O 0.64808 0.81272 0.07536 0.0
O184 O 0.65535 0.74965 0.17972 0.0
O185 O 0.63602 0.77951 0.18012 0.0
O186 O 0.61651 0.8015 0.98242 0.0
O187 O 0.61121 0.75987 0.09457 0.0
O188 O 0.62657 0.68787 0.08193 0.0
O189 O 0.64237 0.70852 1.00406 0.0
O190 O 0.63572 0.77569 0.90466 0.0
O191 O 0.65443 0.74184 0.90247 0.0
H192 H 0.69779 0.81248 0.10401 0.0
H193 H 0.71938 0.81969 0.16828 0.0
H194 H 0.71783 0.67231 0.16565 0.0
H195 H 0.69623 0.66538 0.10284 0.0
H196 H 0.58931 0.71059 0.06759 0.0
H197 H 0.56597 0.70353 0.04297 0.0
H198 H 0.57096 0.83517 0.91685 0.0
H199 H 0.59427 0.84262 0.94374 0.0
C200 C 0.35239 0.79216 0.05416 0.0
Eu201 Eu 0.37533 0.76542 0.04234 0.0
C202 C 0.33999 0.78703 0.10145 0.0
C203 C 0.33412 0.74435 0.13208 0.0
C204 C 0.32169 0.73993 0.16841 0.0
C205 C 0.31487 0.77806 0.17483 0.0
C206 C 0.32099 0.82089 0.14592 0.0
C207 C 0.33338 0.82525 0.10974 0.0
C208 C 0.38035 0.67702 0.03473 0.0
C209 C 0.38924 0.75641 0.22398 0.0
C210 C 0.42729 0.72987 0.04155 0.0
Eu211 Eu 0.40417 0.75552 0.0478 0.0
C212 C 0.44091 0.73889 1.01173 0.0
C213 C 0.44828 0.78236 0.01913 0.0
C214 C 0.46171 0.78809 1.00463 0.0
C215 C 0.46809 0.75048 0.9826 0.0
C216 C 0.46055 0.70748 0.97165 0.0
C217 C 0.44714 0.7018 0.98617 0.0
C218 C 0.39892 0.84422 0.04945 0.0
C219 C 0.3899 0.76097 0.86546 0.0
O220 O 0.36274 0.81349 0.09097 0.0
O221 O 0.35488 0.75748 1.00842 0.0
O222 O 0.37041 0.69168 1.00009 0.0
O223 O 0.38642 0.7082 0.07957 0.0
O224 O 0.38004 0.77397 0.18239 0.0
O225 O 0.39838 0.73831 0.18316 0.0
O226 O 0.41807 0.71546 0.98779 0.0
O227 O 0.4236 0.75734 0.09877 0.0
O228 O 0.40888 0.83059 0.08592 0.0
O229 O 0.39305 0.81174 1.00726 0.0
O230 O 0.39942 0.74548 0.90775 0.0
O231 O 0.38052 0.77848 0.90513 0.0
H232 H 0.33902 0.71429 0.12647 0.0
H233 H 0.31739 0.70655 0.19106 0.0
H234 H 0.31603 0.85092 0.14853 0.0
H235 H 0.33767 0.85842 0.08588 0.0
H236 H 0.44374 0.81162 0.0389 0.0
H237 H 0.46714 0.82187 1.01223 0.0
H238 H 0.46508 0.6776 0.9557 0.0
H239 H 0.4417 0.66784 0.98104 0.0
C240 C 0.60799 0.28542 0.99948 0.0
Eu241 Eu 0.63156 0.26376 0.99244 0.0
C242 C 0.59431 0.2712 0.02471 0.0
C243 C 0.58713 0.23093 0.99303 0.0
C244 C 0.57367 0.22238 1.00479 0.0
C245 C 0.56707 0.25378 0.04865 0.0
C246 C 0.57437 0.2929 0.08381 0.0
C247 C 0.58782 0.30155 0.07165 0.0
C248 C 0.63746 0.17585 0.99033 0.0
C249 C 0.64583 0.26075 0.17484 0.0
C250 C 0.68368 0.23446 0.9866 0.0
Eu251 Eu 0.66034 0.25773 0.99847 0.0
C252 C 0.69597 0.24008 0.93787 0.0
C253 C 0.70282 0.28352 0.91966 0.0
C254 C 0.7152 0.28756 0.88284 0.0
C255 C 0.721 0.2483 0.86344 0.0
C256 C 0.71392 0.20493 0.8795 0.0
C257 C 0.70158 0.20093 0.91635 0.0
C258 C 0.65436 0.3452 1.00778 0.0
C259 C 0.64654 0.26567 0.8165 0.0
O260 O 0.6167 0.29713 0.05799 0.0
O261 O 0.61252 0.26372 0.93652 0.0
O262 O 0.62748 0.18883 0.95326 0.0
O263 O 0.64311 0.20855 0.03314 0.0
O264 O 0.6363 0.27585 0.1321 0.0
O265 O 0.65528 0.24361 0.13536 0.0
O266 O 0.67344 0.21079 0.95255 0.0
O267 O 0.68087 0.26945 0.03026 0.0
O268 O 0.66433 0.33137 0.04378 0.0
O269 O 0.64877 0.31376 0.96146 0.0
O270 O 0.65586 0.24897 0.85814 0.0
O271 O 0.63721 0.2826 0.85752 0.0
H272 H 0.59183 0.20682 0.95646 0.0
H273 H 0.56838 0.19159 0.97797 0.0
H274 H 0.56961 0.31803 0.11725 0.0
H275 H 0.59308 0.3331 0.09582 0.0
H276 H 0.69875 0.31438 0.93553 0.0
H277 H 0.72027 0.32149 0.87023 0.0
H278 H 0.7181 0.17393 0.8665 0.0
H279 H 0.69656 0.16708 0.93055 0.0
C280 C 0.42808 0.25169 0.02372 0.0
Eu281 Eu 0.40369 0.26098 1.00702 0.0
C282 C 0.44211 0.24838 0.03313 0.0
C283 C 0.4511 0.28845 0.03681 0.0
C284 C 0.4644 0.28601 0.04317 0.0
C285 C 0.4691 0.24338 0.04671 0.0
C286 C 0.46005 0.2032 0.04343 0.0
C287 C 0.44671 0.20569 0.03644 0.0
C288 C 0.39574 0.34524 0.99365 0.0
C289 C 0.38887 0.25984 0.18649 0.0
C290 C 0.35102 0.27975 0.99533 0.0
Eu291 Eu 0.37473 0.26029 1.01006 0.0
C292 C 0.33887 0.2742 0.94526 0.0
C293 C 0.3322 0.23083 0.92514 0.0
C294 C 0.31991 0.22684 0.88718 0.0
C295 C 0.314 0.26608 0.86863 0.0
C296 C 0.32091 0.30941 0.88673 0.0
C297 C 0.33317 0.31335 0.9246 0.0
C298 C 0.38205 0.17521 0.02421 0.0
C299 C 0.38972 0.25811 0.82736 0.0
O300 O 0.41939 0.2175 1.00132 0.0
O301 O 0.42344 0.28995 0.03855 0.0
O302 O 0.40524 0.33245 0.95078 0.0
O303 O 0.39098 0.31344 0.0427 0.0
O304 O 0.39828 0.2441 0.14409 0.0
O305 O 0.37952 0.27706 0.14618 0.0
O306 O 0.36116 0.30561 0.96422 0.0
O307 O 0.35407 0.24426 0.03703 0.0
O308 O 0.37194 0.18777 0.06065 0.0
O309 O 0.38732 0.20692 0.97634 0.0
O310 O 0.37903 0.2644 0.86873 0.0
O311 O 0.40048 0.2518 0.86731 0.0
H312 H 0.44788 0.32189 0.03346 0.0
H313 H 0.47101 0.31772 0.04365 0.0
H314 H 0.46325 0.16976 0.04699 0.0
H315 H 0.44001 0.17422 0.03383 0.0
H316 H 0.33634 0.19997 0.9404 0.0
H317 H 0.31498 0.19295 0.87305 0.0
H318 H 0.31665 0.34038 0.87458 0.0
H319 H 0.33803 0.34715 0.94034 0.0
H320 H 0.24365 0.27109 0.56549 0.0
H321 H 0.2297 0.23478 0.81744 0.0
H322 H 0.26593 0.27345 0.6143 0.0
H323 H 0.25203 0.2375 0.86664 0.0
H324 H 0.29299 0.20296 0.90997 0.0
H325 H 0.27082 0.19832 0.85756 0.0
H326 H 0.28206 0.3171 0.69961 0.0
H327 H 0.30433 0.32045 0.74909 0.0
C328 C 0.24533 0.26416 0.63163 0.0
C329 C 0.23483 0.25293 0.68753 0.0
C330 C 0.25814 0.26548 0.65969 0.0
C331 C 0.26085 0.2557 0.74457 0.0
C332 C 0.25035 0.2445 0.80054 0.0
C333 C 0.23752 0.24305 0.77237 0.0
C334 C 0.2908 0.22766 0.86302 0.0
C335 C 0.30052 0.26208 0.83388 0.0
C336 C 0.278 0.2254 0.8338 0.0
C337 C 0.27456 0.25748 0.77456 0.0
C338 C 0.28432 0.29152 0.74459 0.0
C339 C 0.29711 0.29376 0.77376 0.0
H340 H 0.73072 0.19582 0.74169 0.0
H341 H 0.74209 0.3096 0.90948 0.0
H342 H 0.75307 0.19957 0.69286 0.0
H343 H 0.76434 0.31459 0.85806 0.0
H344 H 0.80538 0.27769 0.81598 0.0
H345 H 0.783 0.27421 0.86501 0.0
H346 H 0.76933 0.24543 0.6102 0.0
H347 H 0.79165 0.24865 0.56147 0.0
C348 C 0.73797 0.22176 0.76805 0.0
C349 C 0.73455 0.25233 0.82976 0.0
C350 C 0.75079 0.22423 0.73933 0.0
C351 C 0.76058 0.25736 0.77148 0.0
C352 C 0.75713 0.28825 0.83255 0.0
C353 C 0.7443 0.28579 0.86124 0.0
C354 C 0.7976 0.27085 0.77035 0.0
C355 C 0.80036 0.26324 0.68479 0.0
C356 C 0.78475 0.26895 0.79842 0.0
C357 C 0.7743 0.25951 0.74167 0.0
C358 C 0.77708 0.25198 0.65611 0.0
C359 C 0.78991 0.2538 0.62811 0.0
H360 H 0.29509 0.70744 0.1499 0.0
H361 H 0.30375 0.83788 0.27592 0.0
H362 H 0.27278 0.70092 0.20067 0.0
H363 H 0.28132 0.8324 0.32325 0.0
H364 H 0.2434 0.78806 0.4649 0.0
H365 H 0.26586 0.79268 0.41832 0.0
H366 H 0.25299 0.73267 0.17876 0.0
H367 H 0.23049 0.72767 0.22589 0.0
C368 C 0.29228 0.73465 0.18883 0.0
C369 C 0.3013 0.77321 0.20863 0.0
C370 C 0.2794 0.73122 0.217 0.0
C371 C 0.27515 0.76623 0.26583 0.0
C372 C 0.28421 0.8045 0.28653 0.0
C373 C 0.29708 0.80791 0.25845 0.0
C374 C 0.24534 0.77629 0.40191 0.0
C375 C 0.23508 0.75765 0.34912 0.0
C376 C 0.25826 0.77891 0.37512 0.0
C377 C 0.26133 0.76309 0.29459 0.0
C378 C 0.25106 0.74451 0.24171 0.0
C379 C 0.23813 0.74175 0.26865 0.0
H380 H 0.73047 0.69227 0.29004 0.0
H381 H 0.74132 0.81006 0.12904 0.0
H382 H 0.75284 0.69625 0.33814 0.0
H383 H 0.76359 0.81527 0.17998 0.0
H384 H 0.80494 0.78048 0.21846 0.0
H385 H 0.78254 0.77697 0.17015 0.0
H386 H 0.76896 0.74036 0.42288 0.0
H387 H 0.79131 0.74356 0.47083 0.0
C388 C 0.73761 0.71914 0.26499 0.0
C389 C 0.73402 0.75075 0.20532 0.0
C390 C 0.75045 0.72175 0.29338 0.0
C391 C 0.7601 0.75606 0.26302 0.0
C392 C 0.75649 0.788 0.20406 0.0
C393 C 0.74364 0.7854 0.17567 0.0
C394 C 0.79718 0.77191 0.26383 0.0
C395 C 0.79998 0.76209 0.34852 0.0
C396 C 0.7843 0.76999 0.23616 0.0
C397 C 0.77386 0.75834 0.29246 0.0
C398 C 0.77669 0.74864 0.3772 0.0
C399 C 0.78955 0.75045 0.40477 0.0
H400 H 0.13187 0.8803 0.456 0.0
H401 H 0.16954 0.92081 0.56705 0.0
H402 H 0.12756 0.96033 0.46084 0.0
H403 H 0.16536 1.00043 0.57042 0.0
H404 H 0.1581 0.14431 0.47654 0.0
H405 H 0.16208 0.06432 0.46613 0.0
H406 H 0.12449 0.01975 0.5761 0.0
H407 H 0.12062 0.09969 0.58793 0.0
C408 C 0.13924 0.90629 0.48096 0.0
C409 C 0.15104 0.89423 0.51107 0.0
C410 C 0.13676 0.95205 0.48405 0.0
C411 C 0.14614 0.98685 0.51577 0.0
C412 C 0.15799 0.97466 0.54482 0.0
C413 C 0.16035 0.92894 0.54321 0.0
C414 C 0.1507 0.11742 0.49857 0.0
C415 C 0.13906 0.12836 0.53328 0.0
C416 C 0.15298 0.07161 0.49275 0.0
C417 C 0.14358 0.03558 0.52008 0.0
C418 C 0.13187 0.04659 0.55373 0.0
C419 C 0.12969 0.09242 0.56096 0.0
H420 H 0.91476 0.41842 0.58641 0.0
H421 H 0.87726 0.3742 0.47583 0.0
H422 H 0.91085 0.4984 0.57508 0.0
H423 H 0.87324 0.45422 0.46591 0.0
H424 H 0.86575 0.59712 0.56769 0.0
H425 H 0.86997 0.51753 0.57076 0.0
H426 H 0.90772 0.55835 0.46001 0.0
H427 H 0.90336 0.63834 0.45546 0.0
C428 C 0.90567 0.42579 0.55971 0.0
C429 C 0.89631 0.38996 0.5321 0.0
C430 C 0.90347 0.47164 0.55277 0.0
C431 C 0.89174 0.48276 0.51951 0.0
C432 C 0.88235 0.44684 0.49224 0.0
C433 C 0.88465 0.40102 0.49777 0.0
C434 C 0.87493 0.58916 0.54355 0.0
C435 C 0.88422 0.62405 0.51115 0.0
C436 C 0.87732 0.54346 0.54499 0.0
C437 C 0.88917 0.53148 0.5155 0.0
C438 C 0.89852 0.56646 0.48355 0.0
C439 C 0.89602 0.61221 0.48063 0.0
H440 H 0.87689 0.87409 0.55751 0.0
H441 H 0.91419 0.91861 0.44347 0.0
H442 H 0.87287 0.95409 0.56733 0.0
H443 H 0.91027 0.99852 0.45468 0.0
H444 H 0.9032 0.13793 0.57537 0.0
H445 H 0.90743 0.05786 0.57013 0.0
H446 H 0.86943 0.01805 0.46319 0.0
H447 H 0.86532 0.09779 0.46703 0.0
C448 C 0.88424 0.90096 0.53475 0.0
C449 C 0.89584 0.89 0.49955 0.0
C450 C 0.88193 0.94676 0.5402 0.0
C451 C 0.89127 0.98275 0.51201 0.0
C452 C 0.90294 0.97171 0.47772 0.0
C453 C 0.90514 0.9259 0.47085 0.0
C454 C 0.89576 0.112 0.55093 0.0
C455 C 0.88392 0.12417 0.52173 0.0
C456 C 0.89819 0.06621 0.54759 0.0
C457 C 0.88874 0.0315 0.51648 0.0
C458 C 0.87686 0.04378 0.48828 0.0
C459 C 0.87453 0.08955 0.49014 0.0
H460 H 0.12086 0.59994 0.44496 0.0
H461 H 0.15816 0.64416 0.55839 0.0
H462 H 0.12482 0.52003 0.45579 0.0
H463 H 0.16223 0.56416 0.56779 0.0
H464 H 0.16987 0.42102 0.46713 0.0
H465 H 0.1657 0.50072 0.46341 0.0
H466 H 0.12773 0.46015 0.57095 0.0
H467 H 0.13202 0.38013 0.57606 0.0
C468 C 0.12992 0.59259 0.47213 0.0
C469 C 0.1392 0.62841 0.50076 0.0
C470 C 0.13215 0.54677 0.47877 0.0
C471 C 0.14383 0.53564 0.51275 0.0
C472 C 0.15316 0.57155 0.54089 0.0
C473 C 0.15082 0.61736 0.53568 0.0
C474 C 0.16065 0.42908 0.49037 0.0
C475 C 0.15128 0.39426 0.52211 0.0
C476 C 0.15829 0.47483 0.48859 0.0
C477 C 0.1464 0.4869 0.51701 0.0
C478 C 0.13697 0.45198 0.54822 0.0
C479 C 0.13943 0.40621 0.55149 0.0
H480 H 0.62098 0.59767 0.09428 0.0
H481 H 0.65811 0.64366 0.97926 0.0
H482 H 0.62499 0.51795 0.08042 0.0
H483 H 0.66224 0.56391 0.967 0.0
H484 H 0.67018 0.42007 0.06425 0.0
H485 H 0.66588 0.49954 0.06993 0.0
H486 H 0.6279 0.45933 0.96298 0.0
H487 H 0.63233 0.37948 0.9558 0.0
C488 C 0.63001 0.59076 0.06614 0.0
C489 C 0.63924 0.62703 0.03807 0.0
C490 C 0.63227 0.54505 0.05776 0.0
C491 C 0.64392 0.53449 0.02253 0.0
C492 C 0.65319 0.57085 0.99484 0.0
C493 C 0.65082 0.61653 1.00179 0.0
C494 C 0.66093 0.42815 0.04147 0.0
C495 C 0.65161 0.39347 1.00933 0.0
C496 C 0.65849 0.47378 0.04442 0.0
C497 C 0.64656 0.48588 1.0168 0.0
C498 C 0.63717 0.45112 0.98509 0.0
C499 C 0.63972 0.40546 0.98061 0.0
H500 H 0.37758 0.87766 0.98612 0.0
H501 H 0.41516 0.92071 0.09662 0.0
H502 H 0.37371 0.95786 0.97719 0.0
H503 H 0.41143 1.00095 0.08543 0.0
H504 H 0.4034 0.14064 0.96054 0.0
H505 H 0.40779 0.06066 0.96473 0.0
H506 H 0.37109 0.02087 0.08964 0.0
H507 H 0.36691 0.10047 0.0879 0.0
C508 C 0.38502 0.90425 1.00826 0.0
C509 C 0.39664 0.89283 0.04258 0.0
C510 C 0.38281 0.95014 1.00313 0.0
C511 C 0.39228 0.98575 0.03044 0.0
C512 C 0.404 0.97434 0.06328 0.0
C513 C 0.40609 0.92838 0.0701 0.0
C514 C 0.39633 0.11482 0.98923 0.0
C515 C 0.38485 0.12698 0.02424 0.0
C516 C 0.39883 0.06908 0.99167 0.0
C517 C 0.38976 0.03444 0.02731 0.0
C518 C 0.37822 0.04664 0.06115 0.0
C519 C 0.37586 0.09234 0.0604 0.0
H520 H 0.41088 0.42162 0.93431 0.0
H521 H 0.37522 0.37836 0.06934 0.0
H522 H 0.40737 0.50174 0.94921 0.0
H523 H 0.37155 0.45864 0.08244 0.0
H524 H 0.36361 0.60331 0.98377 0.0
H525 H 0.36725 0.52313 0.97713 0.0
H526 H 0.40609 0.56031 0.07254 0.0
H527 H 0.40232 0.64082 0.08121 0.0
C528 C 0.40225 0.42921 0.96683 0.0
C529 C 0.39331 0.39365 1.00051 0.0
C530 C 0.4003 0.47513 0.97585 0.0
C531 C 0.38921 0.48654 1.01725 0.0
C532 C 0.38017 0.45091 0.05002 0.0
C533 C 0.38227 0.40499 0.04253 0.0
C534 C 0.3729 0.59439 1.00388 0.0
C535 C 0.38268 0.62838 0.03311 0.0
C536 C 0.37496 0.54841 1.00037 0.0
C537 C 0.38695 0.53536 0.02431 0.0
C538 C 0.39677 0.56938 0.05332 0.0
C539 C 0.39461 0.61538 0.05856 0.0
H540 H 0.62151 0.09897 0.94165 0.0
H541 H 0.65859 0.1428 0.05821 0.0
H542 H 0.62519 0.01887 0.95579 0.0
H543 H 0.66239 0.06266 0.0708 0.0
H544 H 0.66992 0.91884 0.97335 0.0
H545 H 0.6659 0.9986 0.96765 0.0
H546 H 0.62774 0.95944 0.07349 0.0
H547 H 0.63189 0.87924 0.08076 0.0
C548 C 0.63046 0.0915 0.9702 0.0
C549 C 0.63978 0.12727 0.99864 0.0
C550 C 0.63252 0.04558 0.97875 0.0
C551 C 0.64407 0.0343 1.01451 0.0
C552 C 0.65342 0.07016 0.04258 0.0
C553 C 0.65125 0.11606 0.03546 0.0
C554 C 0.66069 0.9272 0.99587 0.0
C555 C 0.65123 0.8927 0.02772 0.0
C556 C 0.65841 0.973 0.99292 0.0
C557 C 0.64652 0.98548 0.02024 0.0
C558 C 0.63699 0.95092 0.05163 0.0
C559 C 0.63938 0.90507 0.05612 0.0
H560 H 0.13186 0.31198 0.25074 0.0
H561 H 0.1585 0.21151 0.24834 0.0
H562 H 0.13231 0.31472 0.09667 0.0
H563 H 0.15853 0.21257 0.09442 0.0
H564 H 0.16593 0.25539 0.82076 0.0
H565 H 0.1659 0.25564 0.97492 0.0
H566 H 0.12538 0.27446 0.97395 0.0
H567 H 0.12563 0.27628 0.8201 0.0
C568 C 0.13771 0.2901 0.21726 0.0
C569 C 0.14515 0.26159 0.26192 0.0
C570 C 0.13792 0.29145 0.12866 0.0
C571 C 0.14546 0.26386 0.08233 0.0
C572 C 0.15281 0.23503 0.12741 0.0
C573 C 0.15272 0.23414 0.21595 0.0
C574 C 0.15703 0.25975 0.85354 0.0
C575 C 0.1458 0.26595 0.808 0.0
C576 C 0.15697 0.25957 0.94218 0.0
C577 C 0.14562 0.26495 0.98765 0.0
C578 C 0.13438 0.27107 0.94169 0.0
C579 C 0.13449 0.27184 0.85315 0.0
H580 H 0.90341 0.20638 0.25041 0.0
H581 H 0.87696 0.3075 0.24668 0.0
H582 H 0.90292 0.2035 0.0964 0.0
H583 H 0.8769 0.3063 0.09276 0.0
H584 H 0.8694 0.26337 0.81981 0.0
H585 H 0.86945 0.26329 0.97399 0.0
H586 H 0.90989 0.24342 0.9729 0.0
H587 H 0.90962 0.24143 0.8191 0.0
C588 C 0.89759 0.22838 0.21664 0.0
C589 C 0.89021 0.25712 0.26093 0.0
C590 C 0.89736 0.22694 0.12807 0.0
C591 C 0.88987 0.25467 0.08136 0.0
C592 C 0.88259 0.28373 0.12605 0.0
C593 C 0.88269 0.28471 0.21459 0.0
C594 C 0.87828 0.25881 0.85257 0.0
C595 C 0.88949 0.25226 0.80702 0.0
C596 C 0.87835 0.2591 0.94121 0.0
C597 C 0.88969 0.25348 0.98667 0.0
C598 C 0.9009 0.24701 0.94069 0.0
C599 C 0.90077 0.24613 0.85217 0.0
H600 H 0.132 0.81377 0.21434 0.0
H601 H 0.15945 0.71606 0.21641 0.0
H602 H 0.13194 0.81314 0.06029 0.0
H603 H 0.15897 0.71365 0.06253 0.0
H604 H 0.16524 0.75149 0.78592 0.0
H605 H 0.16558 0.75428 0.93958 0.0
H606 H 0.12483 0.76987 0.94108 0.0
H607 H 0.1247 0.76923 0.78685 0.0
C608 C 0.13796 0.7919 0.18186 0.0
C609 C 0.14576 0.76509 0.22773 0.0
C610 C 0.13786 0.79123 0.09329 0.0
C611 C 0.14542 0.76324 0.0482 0.0
C612 C 0.15319 0.73632 0.09448 0.0
C613 C 0.15343 0.73749 0.18301 0.0
C614 C 0.15634 0.75546 0.81904 0.0
C615 C 0.14494 0.7601 0.77402 0.0
C616 C 0.15651 0.75679 0.90749 0.0
C617 C 0.14523 0.76216 0.95355 0.0
C618 C 0.13379 0.7665 0.90822 0.0
C619 C 0.13367 0.76581 0.81959 0.0
H620 H 0.86984 0.76644 0.78538 0.0
H621 H 0.91043 0.74938 0.78625 0.0
H622 H 0.86951 0.76379 0.93909 0.0
H623 H 0.91031 0.74888 0.94048 0.0
H624 H 0.90321 0.70504 0.21443 0.0
H625 H 0.90325 0.70558 0.0604 0.0
H626 H 0.8761 0.80463 0.06132 0.0
H627 H 0.87563 0.8023 0.21526 0.0
C628 C 0.87875 0.76264 0.81849 0.0
C629 C 0.89016 0.75816 0.77344 0.0
C630 C 0.87859 0.7614 0.90696 0.0
C631 C 0.88989 0.75626 0.953 0.0
C632 C 0.90135 0.75207 0.90764 0.0
C633 C 0.90145 0.75268 0.819 0.0
C634 C 0.89721 0.7268 0.18167 0.0
C635 C 0.88938 0.75351 0.2272 0.0
C636 C 0.89731 0.72741 0.0931 0.0
C637 C 0.88971 0.75525 0.04765 0.0
C638 C 0.88191 0.78208 0.09359 0.0
C639 C 0.88168 0.78096 0.18213 0.0
H640 H 0.62543 0.77359 0.32693 0.0
H641 H 0.666 0.75614 0.32758 0.0
H642 H 0.62521 0.77191 0.48078 0.0
H643 H 0.66597 0.75655 0.48173 0.0
H644 H 0.6588 0.71165 0.75487 0.0
H645 H 0.65884 0.71284 0.60098 0.0
H646 H 0.63192 0.81266 0.60347 0.0
H647 H 0.63146 0.80975 0.75754 0.0
C648 C 0.63436 0.76995 0.35999 0.0
C649 C 0.64573 0.76494 0.31486 0.0
C650 C 0.63426 0.76925 0.44851 0.0
C651 C 0.64557 0.76412 0.49442 0.0
C652 C 0.657 0.75969 0.44898 0.0
C653 C 0.65705 0.75977 0.36037 0.0
C654 C 0.65287 0.7338 0.72255 0.0
C655 C 0.64511 0.76053 0.76855 0.0
C656 C 0.65296 0.73477 0.63403 0.0
C657 C 0.64542 0.76299 0.58906 0.0
C658 C 0.63769 0.78988 0.63542 0.0
C659 C 0.63747 0.78843 0.72399 0.0
H660 H 0.40999 0.74922 0.75884 0.0
H661 H 0.36967 0.77 0.75966 0.0
H662 H 0.40986 0.74854 0.60461 0.0
H663 H 0.36932 0.76719 0.606 0.0
H664 H 0.37578 0.80618 0.32977 0.0
H665 H 0.37621 0.8079 0.48365 0.0
H666 H 0.40254 0.70608 0.48478 0.0
H667 H 0.40255 0.70611 0.33071 0.0
C668 C 0.40106 0.75327 0.72608 0.0
C669 C 0.38986 0.75991 0.77161 0.0
C670 C 0.40095 0.75256 0.63745 0.0
C671 C 0.38957 0.75783 0.59209 0.0
C672 C 0.37835 0.76398 0.63811 0.0
C673 C 0.37852 0.76532 0.72656 0.0
C674 C 0.38164 0.7841 0.36291 0.0
C675 C 0.38913 0.75604 0.31787 0.0
C676 C 0.38184 0.78486 0.45144 0.0
C677 C 0.3894 0.75707 0.49743 0.0
C678 C 0.39679 0.72863 0.45202 0.0
C679 C 0.39672 0.72835 0.36344 0.0
H680 H 0.66615 0.25326 0.28065 0.0
H681 H 0.62566 0.27166 0.28143 0.0
H682 H 0.66651 0.25635 0.43425 0.0
H683 H 0.6258 0.27255 0.43571 0.0
H684 H 0.63287 0.3149 0.70996 0.0
H685 H 0.63286 0.31501 0.55584 0.0
H686 H 0.6599 0.21557 0.55663 0.0
H687 H 0.66035 0.21729 0.71049 0.0
C688 C 0.65727 0.25748 0.31375 0.0
C689 C 0.64587 0.26213 0.26869 0.0
C690 C 0.65745 0.25897 0.40219 0.0
C691 C 0.64617 0.26447 0.44826 0.0
C692 C 0.63475 0.26903 0.40288 0.0
C693 C 0.63463 0.26821 0.31421 0.0
C694 C 0.63886 0.29322 0.67712 0.0
C695 C 0.64665 0.26622 0.72259 0.0
C696 C 0.63878 0.29298 0.58851 0.0
C697 C 0.64635 0.26522 0.54297 0.0
C698 C 0.65412 0.23811 0.58889 0.0
C699 C 0.65433 0.23887 0.67743 0.0
H700 H 0.37367 0.3018 0.29445 0.0
H701 H 0.40424 0.21601 0.29095 0.0
H702 H 0.37397 0.30143 0.44844 0.0
H703 H 0.40425 0.21426 0.44508 0.0
H704 H 0.41037 0.25969 0.71943 0.0
H705 H 0.41015 0.26033 0.56543 0.0
H706 H 0.3684 0.25435 0.56847 0.0
H707 H 0.36868 0.25534 0.72249 0.0
C708 C 0.38039 0.28254 0.32654 0.0
C709 C 0.38895 0.25901 0.28029 0.0
C710 C 0.38051 0.28208 0.41504 0.0
C711 C 0.38912 0.25775 0.45963 0.0
C712 C 0.39763 0.23399 0.41314 0.0
C713 C 0.39758 0.23477 0.3246 0.0
C714 C 0.40113 0.25846 0.68729 0.0
C715 C 0.38955 0.25754 0.73347 0.0
C716 C 0.401 0.25856 0.59877 0.0
C717 C 0.38926 0.25736 0.55408 0.0
C718 C 0.37765 0.25608 0.60047 0.0
C719 C 0.3778 0.25637 0.689 0.0
H720 H 0.04903 0.2347 0.59743 0.0
H721 H 0.05153 0.28742 0.3417 0.0
H722 H 0.02553 0.23211 0.59392 0.0
H723 H 0.02796 0.28592 0.33902 0.0
H724 H 0.98385 0.23103 0.3417 0.0
H725 H 1.00742 0.23262 0.33927 0.0
H726 H 1.00973 0.28643 0.59342 0.0
H727 H 0.98623 0.28374 0.59671 0.0
C728 C 0.04456 0.24534 0.54006 0.0
C729 C 0.05221 0.26116 0.46975 0.0
C730 C 0.03108 0.24442 0.53847 0.0
C731 C 0.02484 0.25915 0.46643 0.0
C732 C 0.03243 0.27412 0.3954 0.0
C733 C 0.04596 0.27531 0.39718 0.0
C734 C 0.98939 0.24316 0.39707 0.0
C735 C 0.9831 0.25727 0.46938 0.0
C736 C 1.00292 0.2444 0.39543 0.0
C737 C 1.01048 0.2594 0.46633 0.0
C738 C 1.0042 0.27411 0.53808 0.0
C739 C 0.99072 0.27313 0.53954 0.0
H740 H 0.98295 0.67739 0.54668 0.0
H741 H 0.98662 0.82154 0.60676 0.0
H742 H 1.00641 0.6802 0.5535 0.0
H743 H 1.01019 0.82477 0.61003 0.0
H744 H 0.05183 0.80612 0.68178 0.0
H745 H 0.02821 0.80083 0.68754 0.0
H746 H 0.02521 0.70996 0.47245 0.0
H747 H 0.04873 0.71522 0.46673 0.0
C748 C 0.98873 0.70966 0.56216 0.0
C749 C 0.9828 0.74922 0.57634 0.0
C750 C 1.00225 0.7114 0.5649 0.0
C751 C 1.01027 0.75277 0.5818 0.0
C752 C 1.00435 0.79219 0.59754 0.0
C753 C 0.99081 0.79045 0.59474 0.0
C754 C 0.04613 0.78504 0.63563 0.0
C755 C 0.05226 0.76102 0.5739 0.0
C756 C 0.03257 0.78207 0.63885 0.0
C757 C 0.02474 0.75498 0.58046 0.0
C758 C 0.03086 0.73054 0.51946 0.0
C759 C 0.04441 0.7335 0.51624 0.0
H760 H 0.54824 0.69462 0.94328 0.0
H761 H 0.55191 0.83909 1.00064 0.0
H762 H 0.52466 0.69119 0.94137 0.0
H763 H 0.52843 0.83604 0.99537 0.0
H764 H 0.48611 0.80152 0.0826 0.0
H765 H 0.50964 0.80653 0.07721 0.0
H766 H 0.50662 0.71486 0.86331 0.0
H767 H 0.48301 0.70988 0.86862 0.0
C768 C 0.54405 0.72572 0.95507 0.0
C769 C 0.55206 0.76713 0.97212 0.0
C770 C 0.5305 0.72386 0.95307 0.0
C771 C 0.52457 0.76332 0.96837 0.0
C772 C 0.53259 0.80481 0.98428 0.0
C773 C 0.54612 0.80668 0.98615 0.0
C774 C 0.49043 0.78298 0.03343 0.0
C775 C 0.48258 0.75537 0.97592 0.0
C776 C 0.50398 0.7858 0.03042 0.0
C777 C 0.5101 0.76109 0.96983 0.0
C778 C 0.50227 0.73383 0.9117 0.0
C779 C 0.4887 0.73103 0.91467 0.0
H780 H 0.48324 0.18207 0.97093 0.0
H781 H 0.48745 0.29988 0.13576 0.0
H782 H 0.50657 0.18034 0.97711 0.0
H783 H 0.5108 0.29984 0.13776 0.0
H784 H 0.55155 0.26775 0.18422 0.0
H785 H 0.52793 0.26172 0.18817 0.0
H786 H 0.52627 0.22098 0.92551 0.0
H787 H 0.54981 0.22619 0.92234 0.0
C788 C 0.4891 0.2075 1.00886 0.0
C789 C 0.48337 0.24122 0.05255 0.0
C790 C 0.50255 0.20689 1.01148 0.0
C791 C 0.51067 0.2401 0.05757 0.0
C792 C 0.50491 0.27335 0.10232 0.0
C793 C 0.49147 0.27379 0.10011 0.0
C794 C 0.54612 0.25738 0.12743 0.0
C795 C 0.5526 0.24742 0.05303 0.0
C796 C 0.53256 0.25406 0.12953 0.0
C797 C 0.5251 0.24103 0.05705 0.0
C798 C 0.5316 0.23036 0.98306 0.0
C799 C 0.54515 0.23339 0.98117 0.0
loop_
_geom_bond_atom_site_label_1
_geom_bond_atom_site_label_2
_geom_bond_distance
_geom_bond_site_symmetry_2
_ccdc_geom_bond_type
C0 Eu1 2.835 . S
C0 C2 1.500 . S
C0 O20 1.257 . S
C0 O21 1.260 . S
Eu1 C0 2.835 . S
Eu1 O20 2.473 . S
Eu1 O21 2.480 . S
Eu1 O22 2.430 . S
Eu1 O23 2.670 . S
Eu1 O24 2.394 . S
Eu1 O29 2.355 . S
Eu1 O31 2.374 . S
C2 C0 1.500 . S
C2 C3 1.377 . S
C2 C7 1.377 . S
C3 C2 1.377 . S
C3 C4 1.395 . S
C3 H32 0.931 . S
C4 C3 1.395 . S
C4 C5 1.383 . S
C4 H33 0.931 . S
C5 C4 1.383 . S
C5 C6 1.394 . S
C6 C5 1.394 . S
C6 C7 1.378 . S
C6 H34 0.931 . S
C7 C2 1.377 . S
C7 C6 1.378 . S
C7 H35 0.931 . S
C8 O22 1.259 . S
C8 O23 1.270 . S
C9 O24 1.251 . S
C9 O25 1.251 . S
C10 Eu11 2.835 . S
C10 C12 1.500 . S
C10 O26 1.257 . S
C10 O27 1.260 . S
Eu11 C10 2.835 . S
Eu11 O23 2.355 . S
Eu11 O25 2.374 . S
Eu11 O26 2.473 . S
Eu11 O27 2.480 . S
Eu11 O28 2.430 . S
Eu11 O29 2.670 . S
Eu11 O30 2.394 . S
C12 C10 1.500 . S
C12 C13 1.377 . S
C12 C17 1.377 . S
C13 C12 1.377 . S
C13 C14 1.395 . S
C13 H36 0.931 . S
C14 C13 1.395 . S
C14 C15 1.383 . S
C14 H37 0.931 . S
C15 C14 1.383 . S
C15 C16 1.394 . S
C16 C15 1.394 . S
C16 C17 1.378 . S
C16 H38 0.931 . S
C17 C12 1.377 . S
C17 C16 1.378 . S
C17 H39 0.931 . S
C18 O28 1.259 . S
C18 O29 1.270 . S
C19 O30 1.251 . S
C19 O31 1.251 . S
O20 C0 1.257 . S
O20 Eu1 2.473 . S
O21 C0 1.260 . S
O21 Eu1 2.480 . S
O22 Eu1 2.430 . S
O22 C8 1.259 . S
O23 Eu1 2.670 . S
O23 C8 1.270 . S
O23 Eu11 2.355 . S
O24 Eu1 2.394 . S
O24 C9 1.251 . S
O25 C9 1.251 . S
O25 Eu11 2.374 . S
O26 C10 1.257 . S
O26 Eu11 2.473 . S
O27 C10 1.260 . S
O27 Eu11 2.480 . S
O28 Eu11 2.430 . S
O28 C18 1.259 . S
O29 Eu1 2.355 . S
O29 Eu11 2.670 . S
O29 C18 1.270 . S
O30 Eu11 2.394 . S
O30 C19 1.251 . S
O31 Eu1 2.374 . S
O31 C19 1.251 . S
H32 C3 0.931 . S
H33 C4 0.931 . S
H34 C6 0.931 . S
H35 C7 0.931 . S
H36 C13 0.931 . S
H37 C14 0.931 . S
H38 C16 0.931 . S
H39 C17 0.931 . S
C40 Eu41 2.835 . S
C40 C42 1.500 . S
C40 O60 1.257 . S
C40 O61 1.260 . S
Eu41 C40 2.835 . S
Eu41 O60 2.473 . S
Eu41 O61 2.480 . S
Eu41 O62 2.430 . S
Eu41 O63 2.670 . S
Eu41 O64 2.394 . S
Eu41 O69 2.355 . S
Eu41 O71 2.374 . S
C42 C40 1.500 . S
C42 C43 1.377 . S
C42 C47 1.377 . S
C43 C42 1.377 . S
C43 C44 1.395 . S
C43 H72 0.931 . S
C44 C43 1.395 . S
C44 C45 1.383 . S
C44 H73 0.931 . S
C45 C44 1.383 . S
C45 C46 1.394 . S
C46 C45 1.394 . S
C46 C47 1.378 . S
C46 H74 0.931 . S
C47 C42 1.377 . S
C47 C46 1.378 . S
C47 H75 0.931 . S
C48 O62 1.259 . S
C48 O63 1.270 . S
C49 O64 1.251 . S
C49 O65 1.251 . S
C50 Eu51 2.835 . S
C50 C52 1.500 . S
C50 O66 1.257 . S
C50 O67 1.260 . S
Eu51 C50 2.835 . S
Eu51 O63 2.355 . S
Eu51 O65 2.374 . S
Eu51 O66 2.473 . S
Eu51 O67 2.480 . S
Eu51 O68 2.430 . S
Eu51 O69 2.670 . S
Eu51 O70 2.394 . S
C52 C50 1.500 . S
C52 C53 1.377 . S
C52 C57 1.377 . S
C53 C52 1.377 . S
C53 C54 1.395 . S
C53 H76 0.931 . S
C54 C53 1.395 . S
C54 C55 1.383 . S
C54 H77 0.931 . S
C55 C54 1.383 . S
C55 C56 1.394 . S
C56 C55 1.394 . S
C56 C57 1.378 . S
C56 H78 0.931 . S
C57 C52 1.377 . S
C57 C56 1.378 . S
C57 H79 0.931 . S
C58 O68 1.259 . S
C58 O69 1.270 . S
C59 O70 1.251 . S
C59 O71 1.251 . S
O60 C40 1.257 . S
O60 Eu41 2.473 . S
O61 C40 1.260 . S
O61 Eu41 2.480 . S
O62 Eu41 2.430 . S
O62 C48 1.259 . S
O63 Eu41 2.670 . S
O63 C48 1.270 . S
O63 Eu51 2.355 . S
O64 Eu41 2.394 . S
O64 C49 1.251 . S
O65 C49 1.251 . S
O65 Eu51 2.374 . S
O66 C50 1.257 . S
O66 Eu51 2.473 . S
O67 C50 1.260 . S
O67 Eu51 2.480 . S
O68 Eu51 2.430 . S
O68 C58 1.259 . S
O69 Eu41 2.355 . S
O69 Eu51 2.670 . S
O69 C58 1.270 . S
O70 Eu51 2.394 . S
O70 C59 1.251 . S
O71 Eu41 2.374 . S
O71 C59 1.251 . S
H72 C43 0.931 . S
H73 C44 0.931 . S
H74 C46 0.931 . S
H75 C47 0.931 . S
H76 C53 0.931 . S
H77 C54 0.931 . S
H78 C56 0.931 . S
H79 C57 0.931 . S
C80 Eu81 2.835 . S
C80 C82 1.500 . S
C80 O100 1.257 . S
C80 O101 1.260 . S
Eu81 C80 2.835 . S
Eu81 O100 2.473 . S
Eu81 O101 2.480 . S
Eu81 O102 2.430 . S
Eu81 O103 2.670 . S
Eu81 O104 2.394 . S
Eu81 O109 2.355 . S
Eu81 O111 2.374 . S
C82 C80 1.500 . S
C82 C83 1.377 . S
C82 C87 1.377 . S
C83 C82 1.377 . S
C83 C84 1.395 . S
C83 H112 0.931 . S
C84 C83 1.395 . S
C84 C85 1.383 . S
C84 H113 0.931 . S
C85 C84 1.383 . S
C85 C86 1.394 . S
C86 C85 1.394 . S
C86 C87 1.378 . S
C86 H114 0.931 . S
C87 C82 1.377 . S
C87 C86 1.378 . S
C87 H115 0.931 . S
C88 O102 1.259 . S
C88 O103 1.270 . S
C89 O104 1.251 . S
C89 O105 1.251 . S
C90 Eu91 2.835 . S
C90 C92 1.500 . S
C90 O106 1.257 . S
C90 O107 1.260 . S
Eu91 C90 2.835 . S
Eu91 O103 2.355 . S
Eu91 O105 2.374 . S
Eu91 O106 2.473 . S
Eu91 O107 2.480 . S
Eu91 O108 2.430 . S
Eu91 O109 2.670 . S
Eu91 O110 2.394 . S
C92 C90 1.500 . S
C92 C93 1.377 . S
C92 C97 1.377 . S
C93 C92 1.377 . S
C93 C94 1.395 . S
C93 H116 0.931 . S
C94 C93 1.395 . S
C94 C95 1.383 . S
C94 H117 0.931 . S
C95 C94 1.383 . S
C95 C96 1.394 . S
C96 C95 1.394 . S
C96 C97 1.378 . S
C96 H118 0.931 . S
C97 C92 1.377 . S
C97 C96 1.378 . S
C97 H119 0.931 . S
C98 O108 1.259 . S
C98 O109 1.270 . S
C99 O110 1.251 . S
C99 O111 1.251 . S
O100 C80 1.257 . S
O100 Eu81 2.473 . S
O101 C80 1.260 . S
O101 Eu81 2.480 . S
O102 Eu81 2.430 . S
O102 C88 1.259 . S
O103 Eu81 2.670 . S
O103 C88 1.270 . S
O103 Eu91 2.355 . S
O104 Eu81 2.394 . S
O104 C89 1.251 . S
O105 C89 1.251 . S
O105 Eu91 2.374 . S
O106 C90 1.257 . S
O106 Eu91 2.473 . S
O107 C90 1.260 . S
O107 Eu91 2.480 . S
O108 Eu91 2.430 . S
O108 C98 1.259 . S
O109 Eu81 2.355 . S
O109 Eu91 2.670 . S
O109 C98 1.270 . S
O110 Eu91 2.394 . S
O110 C99 1.251 . S
O111 Eu81 2.374 . S
O111 C99 1.251 . S
H112 C83 0.931 . S
H113 C84 0.931 . S
H114 C86 0.931 . S
H115 C87 0.931 . S
H116 C93 0.931 . S
H117 C94 0.931 . S
H118 C96 0.931 . S
H119 C97 0.931 . S
C120 Eu121 2.835 . S
C120 C122 1.500 . S
C120 O140 1.257 . S
C120 O141 1.260 . S
Eu121 C120 2.835 . S
Eu121 O140 2.473 . S
Eu121 O141 2.480 . S
Eu121 O142 2.430 . S
Eu121 O143 2.670 . S
Eu121 O144 2.394 . S
Eu121 O149 2.355 . S
Eu121 O151 2.374 . S
C122 C120 1.500 . S
C122 C123 1.377 . S
C122 C127 1.377 . S
C123 C122 1.377 . S
C123 C124 1.395 . S
C123 H152 0.931 . S
C124 C123 1.395 . S
C124 C125 1.383 . S
C124 H153 0.931 . S
C125 C124 1.383 . S
C125 C126 1.394 . S
C126 C125 1.394 . S
C126 C127 1.378 . S
C126 H154 0.931 . S
C127 C122 1.377 . S
C127 C126 1.378 . S
C127 H155 0.931 . S
C128 O142 1.259 . S
C128 O143 1.270 . S
C129 O144 1.251 . S
C129 O145 1.251 . S
C130 Eu131 2.835 . S
C130 C132 1.500 . S
C130 O146 1.257 . S
C130 O147 1.260 . S
Eu131 C130 2.835 . S
Eu131 O143 2.355 . S
Eu131 O145 2.374 . S
Eu131 O146 2.473 . S
Eu131 O147 2.480 . S
Eu131 O148 2.430 . S
Eu131 O149 2.670 . S
Eu131 O150 2.394 . S
C132 C130 1.500 . S
C132 C133 1.377 . S
C132 C137 1.377 . S
C133 C132 1.377 . S
C133 C134 1.395 . S
C133 H156 0.931 . S
C134 C133 1.395 . S
C134 C135 1.383 . S
C134 H157 0.931 . S
C135 C134 1.383 . S
C135 C136 1.394 . S
C136 C135 1.394 . S
C136 C137 1.378 . S
C136 H158 0.931 . S
C137 C132 1.377 . S
C137 C136 1.378 . S
C137 H159 0.931 . S
C138 O148 1.259 . S
C138 O149 1.270 . S
C139 O150 1.251 . S
C139 O151 1.251 . S
O140 C120 1.257 . S
O140 Eu121 2.473 . S
O141 C120 1.260 . S
O141 Eu121 2.480 . S
O142 Eu121 2.430 . S
O142 C128 1.259 . S
O143 Eu121 2.670 . S
O143 C128 1.270 . S
O143 Eu131 2.355 . S
O144 Eu121 2.394 . S
O144 C129 1.251 . S
O145 C129 1.251 . S
O145 Eu131 2.374 . S
O146 C130 1.257 . S
O146 Eu131 2.473 . S
O147 C130 1.260 . S
O147 Eu131 2.480 . S
O148 Eu131 2.430 . S
O148 C138 1.259 . S
O149 Eu121 2.355 . S
O149 Eu131 2.670 . S
O149 C138 1.270 . S
O150 Eu131 2.394 . S
O150 C139 1.251 . S
O151 Eu121 2.374 . S
O151 C139 1.251 . S
H152 C123 0.931 . S
H153 C124 0.931 . S
H154 C126 0.931 . S
H155 C127 0.931 . S
H156 C133 0.931 . S
H157 C134 0.931 . S
H158 C136 0.931 . S
H159 C137 0.931 . S
C160 Eu161 2.835 1_554 S
C160 C162 1.500 . S
C160 O180 1.257 . S
C160 O181 1.260 . S
Eu161 C160 2.835 1_556 S
Eu161 O180 2.473 1_556 S
Eu161 O181 2.480 1_556 S
Eu161 O182 2.430 . S
Eu161 O183 2.670 . S
Eu161 O184 2.394 1_556 S
Eu161 O189 2.355 1_556 S
Eu161 O191 2.374 . S
C162 C160 1.500 . S
C162 C163 1.377 . S
C162 C167 1.377 . S
C163 C162 1.377 . S
C163 C164 1.395 . S
C163 H192 0.931 . S
C164 C163 1.395 . S
C164 C165 1.383 . S
C164 H193 0.931 . S
C165 C164 1.383 . S
C165 C166 1.394 . S
C166 C165 1.394 . S
C166 C167 1.378 . S
C166 H194 0.931 . S
C167 C162 1.377 . S
C167 C166 1.378 . S
C167 H195 0.931 . S
C168 O182 1.259 . S
C168 O183 1.270 . S
C169 O184 1.251 . S
C169 O185 1.251 . S
C170 Eu171 2.835 1_556 S
C170 C172 1.500 . S
C170 O186 1.257 . S
C170 O187 1.260 . S
Eu171 C170 2.835 1_554 S
Eu171 O183 2.355 1_554 S
Eu171 O185 2.374 . S
Eu171 O186 2.473 1_554 S
Eu171 O187 2.480 1_554 S
Eu171 O188 2.430 . S
Eu171 O189 2.670 . S
Eu171 O190 2.394 1_554 S
C172 C170 1.500 . S
C172 C173 1.377 . S
C172 C177 1.377 . S
C173 C172 1.377 . S
C173 C174 1.395 . S
C173 H196 0.931 . S
C174 C173 1.395 . S
C174 C175 1.383 . S
C174 H197 0.931 . S
C175 C174 1.383 . S
C175 C176 1.394 . S
C176 C175 1.394 . S
C176 C177 1.378 . S
C176 H198 0.931 . S
C177 C172 1.377 . S
C177 C176 1.378 . S
C177 H199 0.931 . S
C178 O188 1.259 . S
C178 O189 1.270 . S
C179 O190 1.251 . S
C179 O191 1.251 . S
O180 C160 1.257 . S
O180 Eu161 2.473 1_554 S
O181 C160 1.260 . S
O181 Eu161 2.480 1_554 S
O182 Eu161 2.430 . S
O182 C168 1.259 . S
O183 Eu161 2.670 . S
O183 C168 1.270 . S
O183 Eu171 2.355 1_556 S
O184 Eu161 2.394 1_554 S
O184 C169 1.251 . S
O185 C169 1.251 . S
O185 Eu171 2.374 . S
O186 C170 1.257 . S
O186 Eu171 2.473 1_556 S
O187 C170 1.260 . S
O187 Eu171 2.480 1_556 S
O188 Eu171 2.430 . S
O188 C178 1.259 . S
O189 Eu161 2.355 1_554 S
O189 Eu171 2.670 . S
O189 C178 1.270 . S
O190 Eu171 2.394 1_556 S
O190 C179 1.251 . S
O191 Eu161 2.374 . S
O191 C179 1.251 . S
H192 C163 0.931 . S
H193 C164 0.931 . S
H194 C166 0.931 . S
H195 C167 0.931 . S
H196 C173 0.931 . S
H197 C174 0.931 . S
H198 C176 0.931 . S
H199 C177 0.931 . S
C200 Eu201 2.835 1_554 S
C200 C202 1.500 . S
C200 O220 1.257 . S
C200 O221 1.260 . S
Eu201 C200 2.835 1_556 S
Eu201 O220 2.473 1_556 S
Eu201 O221 2.480 1_556 S
Eu201 O222 2.430 . S
Eu201 O223 2.670 . S
Eu201 O224 2.394 1_556 S
Eu201 O229 2.355 1_556 S
Eu201 O231 2.374 . S
C202 C200 1.500 . S
C202 C203 1.377 . S
C202 C207 1.377 . S
C203 C202 1.377 . S
C203 C204 1.395 . S
C203 H232 0.931 . S
C204 C203 1.395 . S
C204 C205 1.383 . S
C204 H233 0.931 . S
C205 C204 1.383 . S
C205 C206 1.394 . S
C206 C205 1.394 . S
C206 C207 1.378 . S
C206 H234 0.931 . S
C207 C202 1.377 . S
C207 C206 1.378 . S
C207 H235 0.931 . S
C208 O222 1.259 . S
C208 O223 1.270 . S
C209 O224 1.251 . S
C209 O225 1.251 . S
C210 Eu211 2.835 1_556 S
C210 C212 1.500 . S
C210 O226 1.257 . S
C210 O227 1.260 . S
Eu211 C210 2.835 1_554 S
Eu211 O223 2.355 1_554 S
Eu211 O225 2.374 . S
Eu211 O226 2.473 1_554 S
Eu211 O227 2.480 1_554 S
Eu211 O228 2.430 . S
Eu211 O229 2.670 . S
Eu211 O230 2.394 1_554 S
C212 C210 1.500 . S
C212 C213 1.377 . S
C212 C217 1.377 . S
C213 C212 1.377 . S
C213 C214 1.395 . S
C213 H236 0.931 . S
C214 C213 1.395 . S
C214 C215 1.383 . S
C214 H237 0.931 . S
C215 C214 1.383 . S
C215 C216 1.394 . S
C216 C215 1.394 . S
C216 C217 1.378 . S
C216 H238 0.931 . S
C217 C212 1.377 . S
C217 C216 1.378 . S
C217 H239 0.931 . S
C218 O228 1.259 . S
C218 O229 1.270 . S
C219 O230 1.251 . S
C219 O231 1.251 . S
O220 C200 1.257 . S
O220 Eu201 2.473 1_554 S
O221 C200 1.260 . S
O221 Eu201 2.480 1_554 S
O222 Eu201 2.430 . S
O222 C208 1.259 . S
O223 Eu201 2.670 . S
O223 C208 1.270 . S
O223 Eu211 2.355 1_556 S
O224 Eu201 2.394 1_554 S
O224 C209 1.251 . S
O225 C209 1.251 . S
O225 Eu211 2.374 . S
O226 C210 1.257 . S
O226 Eu211 2.473 1_556 S
O227 C210 1.260 . S
O227 Eu211 2.480 1_556 S
O228 Eu211 2.430 . S
O228 C218 1.259 . S
O229 Eu201 2.355 1_554 S
O229 Eu211 2.670 . S
O229 C218 1.270 . S
O230 Eu211 2.394 1_556 S
O230 C219 1.251 . S
O231 Eu201 2.374 . S
O231 C219 1.251 . S
H232 C203 0.931 . S
H233 C204 0.931 . S
H234 C206 0.931 . S
H235 C207 0.931 . S
H236 C213 0.931 . S
H237 C214 0.931 . S
H238 C216 0.931 . S
H239 C217 0.931 . S
C240 Eu241 2.835 1_554 S
C240 C242 1.500 . S
C240 O260 1.257 . S
C240 O261 1.260 . S
Eu241 C240 2.835 1_556 S
Eu241 O260 2.473 1_556 S
Eu241 O261 2.480 1_556 S
Eu241 O262 2.430 . S
Eu241 O263 2.670 . S
Eu241 O264 2.394 1_556 S
Eu241 O269 2.355 1_556 S
Eu241 O271 2.374 . S
C242 C240 1.500 . S
C242 C243 1.377 . S
C242 C247 1.377 . S
C243 C242 1.377 . S
C243 C244 1.395 . S
C243 H272 0.931 . S
C244 C243 1.395 . S
C244 C245 1.383 . S
C244 H273 0.931 . S
C245 C244 1.383 . S
C245 C246 1.394 . S
C246 C245 1.394 . S
C246 C247 1.378 . S
C246 H274 0.931 . S
C247 C242 1.377 . S
C247 C246 1.378 . S
C247 H275 0.931 . S
C248 O262 1.259 . S
C248 O263 1.270 . S
C249 O264 1.251 . S
C249 O265 1.251 . S
C250 Eu251 2.835 1_556 S
C250 C252 1.500 . S
C250 O266 1.257 . S
C250 O267 1.260 . S
Eu251 C250 2.835 1_554 S
Eu251 O263 2.355 1_554 S
Eu251 O265 2.374 . S
Eu251 O266 2.473 1_554 S
Eu251 O267 2.480 1_554 S
Eu251 O268 2.430 . S
Eu251 O269 2.670 . S
Eu251 O270 2.394 1_554 S
C252 C250 1.500 . S
C252 C253 1.377 . S
C252 C257 1.377 . S
C253 C252 1.377 . S
C253 C254 1.395 . S
C253 H276 0.931 . S
C254 C253 1.395 . S
C254 C255 1.383 . S
C254 H277 0.931 . S
C255 C254 1.383 . S
C255 C256 1.394 . S
C256 C255 1.394 . S
C256 C257 1.378 . S
C256 H278 0.931 . S
C257 C252 1.377 . S
C257 C256 1.378 . S
C257 H279 0.931 . S
C258 O268 1.259 . S
C258 O269 1.270 . S
C259 O270 1.251 . S
C259 O271 1.251 . S
O260 C240 1.257 . S
O260 Eu241 2.473 1_554 S
O261 C240 1.260 . S
O261 Eu241 2.480 1_554 S
O262 Eu241 2.430 . S
O262 C248 1.259 . S
O263 Eu241 2.670 . S
O263 C248 1.270 . S
O263 Eu251 2.355 1_556 S
O264 Eu241 2.394 1_554 S
O264 C249 1.251 . S
O265 C249 1.251 . S
O265 Eu251 2.374 . S
O266 C250 1.257 . S
O266 Eu251 2.473 1_556 S
O267 C250 1.260 . S
O267 Eu251 2.480 1_556 S
O268 Eu251 2.430 . S
O268 C258 1.259 . S
O269 Eu241 2.355 1_554 S
O269 Eu251 2.670 . S
O269 C258 1.270 . S
O270 Eu251 2.394 1_556 S
O270 C259 1.251 . S
O271 Eu241 2.374 . S
O271 C259 1.251 . S
H272 C243 0.931 . S
H273 C244 0.931 . S
H274 C246 0.931 . S
H275 C247 0.931 . S
H276 C253 0.931 . S
H277 C254 0.931 . S
H278 C256 0.931 . S
H279 C257 0.931 . S
C280 Eu281 2.835 1_554 S
C280 C282 1.500 . S
C280 O300 1.257 . S
C280 O301 1.260 . S
Eu281 C280 2.835 1_556 S
Eu281 O300 2.473 1_556 S
Eu281 O301 2.480 1_556 S
Eu281 O302 2.430 . S
Eu281 O303 2.670 . S
Eu281 O304 2.394 1_556 S
Eu281 O309 2.355 1_556 S
Eu281 O311 2.374 . S
C282 C280 1.500 . S
C282 C283 1.377 . S
C282 C287 1.377 . S
C283 C282 1.377 . S
C283 C284 1.395 . S
C283 H312 0.931 . S
C284 C283 1.395 . S
C284 C285 1.383 . S
C284 H313 0.931 . S
C285 C284 1.383 . S
C285 C286 1.394 . S
C286 C285 1.394 . S
C286 C287 1.378 . S
C286 H314 0.931 . S
C287 C282 1.377 . S
C287 C286 1.378 . S
C287 H315 0.931 . S
C288 O302 1.259 . S
C288 O303 1.270 . S
C289 O304 1.251 . S
C289 O305 1.251 . S
C290 Eu291 2.835 1_556 S
C290 C292 1.500 . S
C290 O306 1.257 . S
C290 O307 1.260 . S
Eu291 C290 2.835 1_554 S
Eu291 O303 2.355 1_554 S
Eu291 O305 2.374 . S
Eu291 O306 2.473 1_554 S
Eu291 O307 2.480 1_554 S
Eu291 O308 2.430 . S
Eu291 O309 2.670 . S
Eu291 O310 2.394 1_554 S
C292 C290 1.500 . S
C292 C293 1.377 . S
C292 C297 1.377 . S
C293 C292 1.377 . S
C293 C294 1.395 . S
C293 H316 0.931 . S
C294 C293 1.395 . S
C294 C295 1.383 . S
C294 H317 0.931 . S
C295 C294 1.383 . S
C295 C296 1.394 . S
C296 C295 1.394 . S
C296 C297 1.378 . S
C296 H318 0.931 . S
C297 C292 1.377 . S
C297 C296 1.378 . S
C297 H319 0.931 . S
C298 O308 1.259 . S
C298 O309 1.270 . S
C299 O310 1.251 . S
C299 O311 1.251 . S
O300 C280 1.257 . S
O300 Eu281 2.473 1_554 S
O301 C280 1.260 . S
O301 Eu281 2.480 1_554 S
O302 Eu281 2.430 . S
O302 C288 1.259 . S
O303 Eu281 2.670 . S
O303 C288 1.270 . S
O303 Eu291 2.355 1_556 S
O304 Eu281 2.394 1_554 S
O304 C289 1.251 . S
O305 C289 1.251 . S
O305 Eu291 2.374 . S
O306 C290 1.257 . S
O306 Eu291 2.473 1_556 S
O307 C290 1.260 . S
O307 Eu291 2.480 1_556 S
O308 Eu291 2.430 . S
O308 C298 1.259 . S
O309 Eu281 2.355 1_554 S
O309 Eu291 2.670 . S
O309 C298 1.270 . S
O310 Eu291 2.394 1_556 S
O310 C299 1.251 . S
O311 Eu281 2.374 . S
O311 C299 1.251 . S
H312 C283 0.931 . S
H313 C284 0.931 . S
H314 C286 0.931 . S
H315 C287 0.931 . S
H316 C293 0.931 . S
H317 C294 0.931 . S
H318 C296 0.931 . S
H319 C297 0.931 . S
H320 C328 0.950 . S
H321 C333 0.950 . S
H322 C330 0.950 . S
H323 C332 0.950 . S
H324 C334 0.950 . S
H325 C336 0.950 . S
H326 C338 0.950 . S
H327 C339 0.950 . S
C328 H320 0.950 . S
C328 C329 1.386 . S
C328 C330 1.391 . S
C329 C328 1.386 . S
C329 C333 1.393 . S
C330 H322 0.950 . S
C330 C328 1.391 . S
C330 C331 1.400 . S
C331 C330 1.400 . S
C331 C332 1.398 . S
C331 C337 1.491 . S
C332 H323 0.950 . S
C332 C331 1.398 . S
C332 C333 1.391 . S
C333 H321 0.950 . S
C333 C329 1.393 . S
C333 C332 1.391 . S
C334 H324 0.950 . S
C334 C335 1.386 . S
C334 C336 1.391 . S
C335 C334 1.386 . S
C335 C339 1.393 . S
C336 H325 0.950 . S
C336 C334 1.391 . S
C336 C337 1.400 . S
C337 C331 1.491 . S
C337 C336 1.400 . S
C337 C338 1.398 . S
C338 H326 0.950 . S
C338 C337 1.398 . S
C338 C339 1.391 . S
C339 H327 0.950 . S
C339 C335 1.393 . S
C339 C338 1.391 . S
H340 C348 0.950 . S
H341 C353 0.950 . S
H342 C350 0.950 . S
H343 C352 0.950 . S
H344 C354 0.950 . S
H345 C356 0.950 . S
H346 C358 0.950 . S
H347 C359 0.950 . S
C348 H340 0.950 . S
C348 C349 1.386 . S
C348 C350 1.391 . S
C349 C348 1.386 . S
C349 C353 1.393 . S
C350 H342 0.950 . S
C350 C348 1.391 . S
C350 C351 1.400 . S
C351 C350 1.400 . S
C351 C352 1.398 . S
C351 C357 1.491 . S
C352 H343 0.950 . S
C352 C351 1.398 . S
C352 C353 1.391 . S
C353 H341 0.950 . S
C353 C349 1.393 . S
C353 C352 1.391 . S
C354 H344 0.950 . S
C354 C355 1.386 . S
C354 C356 1.391 . S
C355 C354 1.386 . S
C355 C359 1.393 . S
C356 H345 0.950 . S
C356 C354 1.391 . S
C356 C357 1.400 . S
C357 C351 1.491 . S
C357 C356 1.400 . S
C357 C358 1.398 . S
C358 H346 0.950 . S
C358 C357 1.398 . S
C358 C359 1.391 . S
C359 H347 0.950 . S
C359 C355 1.393 . S
C359 C358 1.391 . S
H360 C368 0.950 . S
H361 C373 0.950 . S
H362 C370 0.950 . S
H363 C372 0.950 . S
H364 C374 0.950 . S
H365 C376 0.950 . S
H366 C378 0.950 . S
H367 C379 0.950 . S
C368 H360 0.950 . S
C368 C369 1.386 . S
C368 C370 1.391 . S
C369 C368 1.386 . S
C369 C373 1.393 . S
C370 H362 0.950 . S
C370 C368 1.391 . S
C370 C371 1.400 . S
C371 C370 1.400 . S
C371 C372 1.398 . S
C371 C377 1.491 . S
C372 H363 0.950 . S
C372 C371 1.398 . S
C372 C373 1.391 . S
C373 H361 0.950 . S
C373 C369 1.393 . S
C373 C372 1.391 . S
C374 H364 0.950 . S
C374 C375 1.386 . S
C374 C376 1.391 . S
C375 C374 1.386 . S
C375 C379 1.393 . S
C376 H365 0.950 . S
C376 C374 1.391 . S
C376 C377 1.400 . S
C377 C371 1.491 . S
C377 C376 1.400 . S
C377 C378 1.398 . S
C378 H366 0.950 . S
C378 C377 1.398 . S
C378 C379 1.391 . S
C379 H367 0.950 . S
C379 C375 1.393 . S
C379 C378 1.391 . S
H380 C388 0.950 . S
H381 C393 0.950 . S
H382 C390 0.950 . S
H383 C392 0.950 . S
H384 C394 0.950 . S
H385 C396 0.950 . S
H386 C398 0.950 . S
H387 C399 0.950 . S
C388 H380 0.950 . S
C388 C389 1.386 . S
C388 C390 1.391 . S
C389 C388 1.386 . S
C389 C393 1.393 . S
C390 H382 0.950 . S
C390 C388 1.391 . S
C390 C391 1.400 . S
C391 C390 1.400 . S
C391 C392 1.398 . S
C391 C397 1.491 . S
C392 H383 0.950 . S
C392 C391 1.398 . S
C392 C393 1.391 . S
C393 H381 0.950 . S
C393 C389 1.393 . S
C393 C392 1.391 . S
C394 H384 0.950 . S
C394 C395 1.386 . S
C394 C396 1.391 . S
C395 C394 1.386 . S
C395 C399 1.393 . S
C396 H385 0.950 . S
C396 C394 1.391 . S
C396 C397 1.400 . S
C397 C391 1.491 . S
C397 C396 1.400 . S
C397 C398 1.398 . S
C398 H386 0.950 . S
C398 C397 1.398 . S
C398 C399 1.391 . S
C399 H387 0.950 . S
C399 C395 1.393 . S
C399 C398 1.391 . S
H400 C408 0.950 . S
H401 C413 0.950 . S
H402 C410 0.950 . S
H403 C412 0.950 . S
H404 C414 0.950 . S
H405 C416 0.950 . S
H406 C418 0.950 . S
H407 C419 0.950 . S
C408 H400 0.950 . S
C408 C409 1.386 . S
C408 C410 1.391 . S
C409 C408 1.386 . S
C409 C413 1.393 . S
C410 H402 0.950 . S
C410 C408 1.391 . S
C410 C411 1.400 . S
C411 C410 1.400 . S
C411 C412 1.398 . S
C411 C417 1.491 1_565 S
C412 H403 0.950 . S
C412 C411 1.398 . S
C412 C413 1.391 . S
C413 H401 0.950 . S
C413 C409 1.393 . S
C413 C412 1.391 . S
C414 H404 0.950 . S
C414 C415 1.386 . S
C414 C416 1.391 . S
C415 C414 1.386 . S
C415 C419 1.393 . S
C416 H405 0.950 . S
C416 C414 1.391 . S
C416 C417 1.400 . S
C417 C411 1.491 1_545 S
C417 C416 1.400 . S
C417 C418 1.398 . S
C418 H406 0.950 . S
C418 C417 1.398 . S
C418 C419 1.391 . S
C419 H407 0.950 . S
C419 C415 1.393 . S
C419 C418 1.391 . S
H420 C428 0.950 . S
H421 C433 0.950 . S
H422 C430 0.950 . S
H423 C432 0.950 . S
H424 C434 0.950 . S
H425 C436 0.950 . S
H426 C438 0.950 . S
H427 C439 0.950 . S
C428 H420 0.950 . S
C428 C429 1.386 . S
C428 C430 1.391 . S
C429 C428 1.386 . S
C429 C433 1.393 . S
C430 H422 0.950 . S
C430 C428 1.391 . S
C430 C431 1.400 . S
C431 C430 1.400 . S
C431 C432 1.398 . S
C431 C437 1.491 . S
C432 H423 0.950 . S
C432 C431 1.398 . S
C432 C433 1.391 . S
C433 H421 0.950 . S
C433 C429 1.393 . S
C433 C432 1.391 . S
C434 H424 0.950 . S
C434 C435 1.386 . S
C434 C436 1.391 . S
C435 C434 1.386 . S
C435 C439 1.393 . S
C436 H425 0.950 . S
C436 C434 1.391 . S
C436 C437 1.400 . S
C437 C431 1.491 . S
C437 C436 1.400 . S
C437 C438 1.398 . S
C438 H426 0.950 . S
C438 C437 1.398 . S
C438 C439 1.391 . S
C439 H427 0.950 . S
C439 C435 1.393 . S
C439 C438 1.391 . S
H440 C448 0.950 . S
H441 C453 0.950 . S
H442 C450 0.950 . S
H443 C452 0.950 . S
H444 C454 0.950 . S
H445 C456 0.950 . S
H446 C458 0.950 . S
H447 C459 0.950 . S
C448 H440 0.950 . S
C448 C449 1.386 . S
C448 C450 1.391 . S
C449 C448 1.386 . S
C449 C453 1.393 . S
C450 H442 0.950 . S
C450 C448 1.391 . S
C450 C451 1.400 . S
C451 C450 1.400 . S
C451 C452 1.398 . S
C451 C457 1.491 1_565 S
C452 H443 0.950 . S
C452 C451 1.398 . S
C452 C453 1.391 . S
C453 H441 0.950 . S
C453 C449 1.393 . S
C453 C452 1.391 . S
C454 H444 0.950 . S
C454 C455 1.386 . S
C454 C456 1.391 . S
C455 C454 1.386 . S
C455 C459 1.393 . S
C456 H445 0.950 . S
C456 C454 1.391 . S
C456 C457 1.400 . S
C457 C451 1.491 1_545 S
C457 C456 1.400 . S
C457 C458 1.398 . S
C458 H446 0.950 . S
C458 C457 1.398 . S
C458 C459 1.391 . S
C459 H447 0.950 . S
C459 C455 1.393 . S
C459 C458 1.391 . S
H460 C468 0.950 . S
H461 C473 0.950 . S
H462 C470 0.950 . S
H463 C472 0.950 . S
H464 C474 0.950 . S
H465 C476 0.950 . S
H466 C478 0.950 . S
H467 C479 0.950 . S
C468 H460 0.950 . S
C468 C469 1.386 . S
C468 C470 1.391 . S
C469 C468 1.386 . S
C469 C473 1.393 . S
C470 H462 0.950 . S
C470 C468 1.391 . S
C470 C471 1.400 . S
C471 C470 1.400 . S
C471 C472 1.398 . S
C471 C477 1.491 . S
C472 H463 0.950 . S
C472 C471 1.398 . S
C472 C473 1.391 . S
C473 H461 0.950 . S
C473 C469 1.393 . S
C473 C472 1.391 . S
C474 H464 0.950 . S
C474 C475 1.386 . S
C474 C476 1.391 . S
C475 C474 1.386 . S
C475 C479 1.393 . S
C476 H465 0.950 . S
C476 C474 1.391 . S
C476 C477 1.400 . S
C477 C471 1.491 . S
C477 C476 1.400 . S
C477 C478 1.398 . S
C478 H466 0.950 . S
C478 C477 1.398 . S
C478 C479 1.391 . S
C479 H467 0.950 . S
C479 C475 1.393 . S
C479 C478 1.391 . S
H480 C488 0.950 . S
H481 C493 0.950 . S
H482 C490 0.950 . S
H483 C492 0.950 . S
H484 C494 0.950 . S
H485 C496 0.950 . S
H486 C498 0.950 . S
H487 C499 0.950 . S
C488 H480 0.950 . S
C488 C489 1.386 . S
C488 C490 1.391 . S
C489 C488 1.386 . S
C489 C493 1.393 1_556 S
C490 H482 0.950 . S
C490 C488 1.391 . S
C490 C491 1.400 . S
C491 C490 1.400 . S
C491 C492 1.398 1_556 S
C491 C497 1.491 . S
C492 H483 0.950 . S
C492 C491 1.398 1_554 S
C492 C493 1.391 . S
C493 H481 0.950 . S
C493 C489 1.393 1_554 S
C493 C492 1.391 . S
C494 H484 0.950 . S
C494 C495 1.386 1_554 S
C494 C496 1.391 . S
C495 C494 1.386 1_556 S
C495 C499 1.393 . S
C496 H485 0.950 . S
C496 C494 1.391 . S
C496 C497 1.400 1_554 S
C497 C491 1.491 . S
C497 C496 1.400 1_556 S
C497 C498 1.398 . S
C498 H486 0.950 . S
C498 C497 1.398 . S
C498 C499 1.391 . S
C499 H487 0.950 . S
C499 C495 1.393 . S
C499 C498 1.391 . S
H500 C508 0.950 . S
H501 C513 0.950 . S
H502 C510 0.950 1_554 S
H503 C512 0.950 . S
H504 C514 0.950 . S
H505 C516 0.950 . S
H506 C518 0.950 . S
H507 C519 0.950 . S
C508 H500 0.950 . S
C508 C509 1.386 1_554 S
C508 C510 1.391 1_554 S
C509 C508 1.386 1_556 S
C509 C513 1.393 . S
C510 H502 0.950 1_556 S
C510 C508 1.391 1_556 S
C510 C511 1.400 . S
C511 C510 1.400 . S
C511 C512 1.398 . S
C511 C517 1.491 1_565 S
C512 H503 0.950 . S
C512 C511 1.398 . S
C512 C513 1.391 . S
C513 H501 0.950 . S
C513 C509 1.393 . S
C513 C512 1.391 . S
C514 H504 0.950 . S
C514 C515 1.386 . S
C514 C516 1.391 . S
C515 C514 1.386 . S
C515 C519 1.393 . S
C516 H505 0.950 . S
C516 C514 1.391 . S
C516 C517 1.400 . S
C517 C511 1.491 1_545 S
C517 C516 1.400 . S
C517 C518 1.398 . S
C518 H506 0.950 . S
C518 C517 1.398 . S
C518 C519 1.391 . S
C519 H507 0.950 . S
C519 C515 1.393 . S
C519 C518 1.391 . S
H520 C528 0.950 . S
H521 C533 0.950 . S
H522 C530 0.950 . S
H523 C532 0.950 . S
H524 C534 0.950 . S
H525 C536 0.950 . S
H526 C538 0.950 . S
H527 C539 0.950 . S
C528 H520 0.950 . S
C528 C529 1.386 1_556 S
C528 C530 1.391 . S
C529 C528 1.386 1_554 S
C529 C533 1.393 . S
C530 H522 0.950 . S
C530 C528 1.391 . S
C530 C531 1.400 1_556 S
C531 C530 1.400 1_554 S
C531 C532 1.398 . S
C531 C537 1.491 . S
C532 H523 0.950 . S
C532 C531 1.398 . S
C532 C533 1.391 . S
C533 H521 0.950 . S
C533 C529 1.393 . S
C533 C532 1.391 . S
C534 H524 0.950 . S
C534 C535 1.386 . S
C534 C536 1.391 . S
C535 C534 1.386 . S
C535 C539 1.393 1_554 S
C536 H525 0.950 . S
C536 C534 1.391 . S
C536 C537 1.400 . S
C537 C531 1.491 . S
C537 C536 1.400 . S
C537 C538 1.398 1_554 S
C538 H526 0.950 . S
C538 C537 1.398 1_556 S
C538 C539 1.391 . S
C539 H527 0.950 . S
C539 C535 1.393 1_556 S
C539 C538 1.391 . S
H540 C548 0.950 1_556 S
H541 C553 0.950 . S
H542 C550 0.950 . S
H543 C552 0.950 1_556 S
H544 C554 0.950 . S
H545 C556 0.950 . S
H546 C558 0.950 . S
H547 C559 0.950 . S
C548 H540 0.950 1_554 S
C548 C549 1.386 . S
C548 C550 1.391 . S
C549 C548 1.386 . S
C549 C553 1.393 . S
C550 H542 0.950 . S
C550 C548 1.391 . S
C550 C551 1.400 . S
C551 C550 1.400 . S
C551 C552 1.399 . S
C551 C557 1.491 1_545 S
C552 H543 0.950 1_554 S
C552 C551 1.399 . S
C552 C553 1.391 . S
C553 H541 0.950 . S
C553 C549 1.393 . S
C553 C552 1.391 . S
C554 H544 0.950 . S
C554 C555 1.386 . S
C554 C556 1.391 . S
C555 C554 1.386 . S
C555 C559 1.393 . S
C556 H545 0.950 . S
C556 C554 1.391 . S
C556 C557 1.400 . S
C557 C551 1.491 1_565 S
C557 C556 1.400 . S
C557 C558 1.398 . S
C558 H546 0.950 . S
C558 C557 1.398 . S
C558 C559 1.391 . S
C559 H547 0.950 . S
C559 C555 1.393 . S
C559 C558 1.391 . S
H560 C568 0.950 . S
H561 C573 0.950 . S
H562 C570 0.950 1_556 S
H563 C572 0.950 . S
H564 C574 0.950 . S
H565 C576 0.950 . S
H566 C578 0.950 . S
H567 C579 0.950 . S
C568 H560 0.950 . S
C568 C569 1.386 . S
C568 C570 1.391 . S
C569 C568 1.386 . S
C569 C573 1.393 . S
C570 H562 0.950 1_554 S
C570 C568 1.391 . S
C570 C571 1.400 1_554 S
C571 C570 1.400 1_556 S
C571 C572 1.398 1_556 S
C571 C577 1.491 . S
C572 H563 0.950 . S
C572 C571 1.398 1_554 S
C572 C573 1.391 . S
C573 H561 0.950 . S
C573 C569 1.393 . S
C573 C572 1.391 . S
C574 H564 0.950 . S
C574 C575 1.386 . S
C574 C576 1.391 . S
C575 C574 1.386 . S
C575 C579 1.393 . S
C576 H565 0.950 . S
C576 C574 1.391 . S
C576 C577 1.400 . S
C577 C571 1.491 . S
C577 C576 1.400 . S
C577 C578 1.398 . S
C578 H566 0.950 . S
C578 C577 1.398 . S
C578 C579 1.391 . S
C579 H567 0.950 . S
C579 C575 1.393 . S
C579 C578 1.391 . S
H580 C588 0.950 . S
H581 C593 0.950 . S
H582 C590 0.950 1_556 S
H583 C592 0.950 . S
H584 C594 0.950 . S
H585 C596 0.950 . S
H586 C598 0.950 . S
H587 C599 0.950 . S
C588 H580 0.950 . S
C588 C589 1.386 . S
C588 C590 1.391 . S
C589 C588 1.386 . S
C589 C593 1.393 . S
C590 H582 0.950 1_554 S
C590 C588 1.391 . S
C590 C591 1.400 1_554 S
C591 C590 1.400 1_556 S
C591 C592 1.398 1_556 S
C591 C597 1.491 . S
C592 H583 0.950 . S
C592 C591 1.398 1_554 S
C592 C593 1.391 . S
C593 H581 0.950 . S
C593 C589 1.393 . S
C593 C592 1.391 . S
C594 H584 0.950 . S
C594 C595 1.386 . S
C594 C596 1.391 . S
C595 C594 1.386 . S
C595 C599 1.393 . S
C596 H585 0.950 . S
C596 C594 1.391 . S
C596 C597 1.400 . S
C597 C591 1.491 . S
C597 C596 1.400 . S
C597 C598 1.398 . S
C598 H586 0.950 . S
C598 C597 1.398 . S
C598 C599 1.391 . S
C599 H587 0.950 . S
C599 C595 1.393 . S
C599 C598 1.391 . S
H600 C608 0.950 . S
H601 C613 0.950 . S
H602 C610 0.950 . S
H603 C612 0.950 . S
H604 C614 0.950 . S
H605 C616 0.950 . S
H606 C618 0.950 1_554 S
H607 C619 0.950 . S
C608 H600 0.950 . S
C608 C609 1.386 . S
C608 C610 1.391 . S
C609 C608 1.386 . S
C609 C613 1.393 . S
C610 H602 0.950 . S
C610 C608 1.391 . S
C610 C611 1.400 . S
C611 C610 1.400 . S
C611 C612 1.398 . S
C611 C617 1.491 . S
C612 H603 0.950 . S
C612 C611 1.398 . S
C612 C613 1.391 . S
C613 H601 0.950 . S
C613 C609 1.393 . S
C613 C612 1.391 . S
C614 H604 0.950 . S
C614 C615 1.386 . S
C614 C616 1.391 . S
C615 C614 1.386 . S
C615 C619 1.393 . S
C616 H605 0.950 . S
C616 C614 1.391 . S
C616 C617 1.400 1_556 S
C617 C611 1.491 . S
C617 C616 1.400 1_554 S
C617 C618 1.398 1_554 S
C618 H606 0.950 1_556 S
C618 C617 1.398 1_556 S
C618 C619 1.391 . S
C619 H607 0.950 . S
C619 C615 1.393 . S
C619 C618 1.391 . S
H620 C628 0.950 . S
H621 C633 0.950 . S
H622 C630 0.950 . S
H623 C632 0.950 1_554 S
H624 C634 0.950 . S
H625 C636 0.950 . S
H626 C638 0.950 . S
H627 C639 0.950 . S
C628 H620 0.950 . S
C628 C629 1.386 . S
C628 C630 1.391 . S
C629 C628 1.386 . S
C629 C633 1.393 . S
C630 H622 0.950 . S
C630 C628 1.391 . S
C630 C631 1.400 1_556 S
C631 C630 1.400 1_554 S
C631 C632 1.398 1_554 S
C631 C637 1.491 . S
C632 H623 0.950 1_556 S
C632 C631 1.398 1_556 S
C632 C633 1.391 . S
C633 H621 0.950 . S
C633 C629 1.393 . S
C633 C632 1.391 . S
C634 H624 0.950 . S
C634 C635 1.386 . S
C634 C636 1.391 . S
C635 C634 1.386 . S
C635 C639 1.393 . S
C636 H625 0.950 . S
C636 C634 1.391 . S
C636 C637 1.400 . S
C637 C631 1.491 . S
C637 C636 1.400 . S
C637 C638 1.398 . S
C638 H626 0.950 . S
C638 C637 1.398 . S
C638 C639 1.391 . S
C639 H627 0.950 . S
C639 C635 1.393 . S
C639 C638 1.391 . S
H640 C648 0.950 . S
H641 C653 0.950 . S
H642 C650 0.950 . S
H643 C652 0.950 . S
H644 C654 0.950 . S
H645 C656 0.950 . S
H646 C658 0.950 . S
H647 C659 0.950 . S
C648 H640 0.950 . S
C648 C649 1.386 . S
C648 C650 1.391 . S
C649 C648 1.386 . S
C649 C653 1.393 . S
C650 H642 0.950 . S
C650 C648 1.391 . S
C650 C651 1.400 . S
C651 C650 1.400 . S
C651 C652 1.398 . S
C651 C657 1.491 . S
C652 H643 0.950 . S
C652 C651 1.398 . S
C652 C653 1.391 . S
C653 H641 0.950 . S
C653 C649 1.393 . S
C653 C652 1.391 . S
C654 H644 0.950 . S
C654 C655 1.386 . S
C654 C656 1.391 . S
C655 C654 1.386 . S
C655 C659 1.393 . S
C656 H645 0.950 . S
C656 C654 1.391 . S
C656 C657 1.400 . S
C657 C651 1.491 . S
C657 C656 1.400 . S
C657 C658 1.398 . S
C658 H646 0.950 . S
C658 C657 1.398 . S
C658 C659 1.391 . S
C659 H647 0.950 . S
C659 C655 1.393 . S
C659 C658 1.391 . S
H660 C668 0.950 . S
H661 C673 0.950 . S
H662 C670 0.950 . S
H663 C672 0.950 . S
H664 C674 0.950 . S
H665 C676 0.950 . S
H666 C678 0.950 . S
H667 C679 0.950 . S
C668 H660 0.950 . S
C668 C669 1.386 . S
C668 C670 1.391 . S
C669 C668 1.386 . S
C669 C673 1.393 . S
C670 H662 0.950 . S
C670 C668 1.391 . S
C670 C671 1.400 . S
C671 C670 1.400 . S
C671 C672 1.398 . S
C671 C677 1.491 . S
C672 H663 0.950 . S
C672 C671 1.398 . S
C672 C673 1.391 . S
C673 H661 0.950 . S
C673 C669 1.393 . S
C673 C672 1.391 . S
C674 H664 0.950 . S
C674 C675 1.386 . S
C674 C676 1.391 . S
C675 C674 1.386 . S
C675 C679 1.393 . S
C676 H665 0.950 . S
C676 C674 1.391 . S
C676 C677 1.400 . S
C677 C671 1.491 . S
C677 C676 1.400 . S
C677 C678 1.398 . S
C678 H666 0.950 . S
C678 C677 1.398 . S
C678 C679 1.391 . S
C679 H667 0.950 . S
C679 C675 1.393 . S
C679 C678 1.391 . S
H680 C688 0.950 . S
H681 C693 0.950 . S
H682 C690 0.950 . S
H683 C692 0.950 . S
H684 C694 0.950 . S
H685 C696 0.950 . S
H686 C698 0.950 . S
H687 C699 0.950 . S
C688 H680 0.950 . S
C688 C689 1.386 . S
C688 C690 1.391 . S
C689 C688 1.386 . S
C689 C693 1.393 . S
C690 H682 0.950 . S
C690 C688 1.391 . S
C690 C691 1.400 . S
C691 C690 1.400 . S
C691 C692 1.398 . S
C691 C697 1.491 . S
C692 H683 0.950 . S
C692 C691 1.398 . S
C692 C693 1.391 . S
C693 H681 0.950 . S
C693 C689 1.393 . S
C693 C692 1.391 . S
C694 H684 0.950 . S
C694 C695 1.386 . S
C694 C696 1.391 . S
C695 C694 1.386 . S
C695 C699 1.393 . S
C696 H685 0.950 . S
C696 C694 1.391 . S
C696 C697 1.400 . S
C697 C691 1.491 . S
C697 C696 1.400 . S
C697 C698 1.398 . S
C698 H686 0.950 . S
C698 C697 1.398 . S
C698 C699 1.391 . S
C699 H687 0.950 . S
C699 C695 1.393 . S
C699 C698 1.391 . S
H700 C708 0.950 . S
H701 C713 0.950 . S
H702 C710 0.950 . S
H703 C712 0.950 . S
H704 C714 0.950 . S
H705 C716 0.950 . S
H706 C718 0.950 . S
H707 C719 0.950 . S
C708 H700 0.950 . S
C708 C709 1.386 . S
C708 C710 1.391 . S
C709 C708 1.386 . S
C709 C713 1.393 . S
C710 H702 0.950 . S
C710 C708 1.391 . S
C710 C711 1.400 . S
C711 C710 1.400 . S
C711 C712 1.398 . S
C711 C717 1.491 . S
C712 H703 0.950 . S
C712 C711 1.398 . S
C712 C713 1.391 . S
C713 H701 0.950 . S
C713 C709 1.393 . S
C713 C712 1.391 . S
C714 H704 0.950 . S
C714 C715 1.386 . S
C714 C716 1.391 . S
C715 C714 1.386 . S
C715 C719 1.393 . S
C716 H705 0.950 . S
C716 C714 1.391 . S
C716 C717 1.400 . S
C717 C711 1.491 . S
C717 C716 1.400 . S
C717 C718 1.398 . S
C718 H706 0.950 . S
C718 C717 1.398 . S
C718 C719 1.391 . S
C719 H707 0.950 . S
C719 C715 1.393 . S
C719 C718 1.391 . S
H720 C728 0.950 . S
H721 C733 0.950 . S
H722 C730 0.950 . S
H723 C732 0.950 . S
H724 C734 0.950 . S
H725 C736 0.950 . S
H726 C738 0.950 . S
H727 C739 0.950 . S
C728 H720 0.950 . S
C728 C729 1.386 . S
C728 C730 1.391 . S
C729 C728 1.386 . S
C729 C733 1.393 . S
C730 H722 0.950 . S
C730 C728 1.391 . S
C730 C731 1.400 . S
C731 C730 1.400 . S
C731 C732 1.398 . S
C731 C737 1.491 1_455 S
C732 H723 0.950 . S
C732 C731 1.398 . S
C732 C733 1.391 . S
C733 H721 0.950 . S
C733 C729 1.393 . S
C733 C732 1.391 . S
C734 H724 0.950 . S
C734 C735 1.386 . S
C734 C736 1.391 . S
C735 C734 1.386 . S
C735 C739 1.393 . S
C736 H725 0.950 . S
C736 C734 1.391 . S
C736 C737 1.400 . S
C737 C731 1.491 1_655 S
C737 C736 1.400 . S
C737 C738 1.398 . S
C738 H726 0.950 . S
C738 C737 1.398 . S
C738 C739 1.391 . S
C739 H727 0.950 . S
C739 C735 1.393 . S
C739 C738 1.391 . S
H740 C748 0.950 . S
H741 C753 0.950 . S
H742 C750 0.950 . S
H743 C752 0.950 . S
H744 C754 0.950 . S
H745 C756 0.950 . S
H746 C758 0.950 . S
H747 C759 0.950 . S
C748 H740 0.950 . S
C748 C749 1.386 . S
C748 C750 1.391 . S
C749 C748 1.386 . S
C749 C753 1.393 . S
C750 H742 0.950 . S
C750 C748 1.391 . S
C750 C751 1.400 . S
C751 C750 1.400 . S
C751 C752 1.398 . S
C751 C757 1.491 1_655 S
C752 H743 0.950 . S
C752 C751 1.398 . S
C752 C753 1.391 . S
C753 H741 0.950 . S
C753 C749 1.393 . S
C753 C752 1.391 . S
C754 H744 0.950 . S
C754 C755 1.386 . S
C754 C756 1.391 . S
C755 C754 1.386 . S
C755 C759 1.393 . S
C756 H745 0.950 . S
C756 C754 1.391 . S
C756 C757 1.400 . S
C757 C751 1.491 1_455 S
C757 C756 1.400 . S
C757 C758 1.398 . S
C758 H746 0.950 . S
C758 C757 1.398 . S
C758 C759 1.391 . S
C759 H747 0.950 . S
C759 C755 1.393 . S
C759 C758 1.391 . S
H760 C768 0.950 . S
H761 C773 0.950 . S
H762 C770 0.950 . S
H763 C772 0.950 . S
H764 C774 0.950 . S
H765 C776 0.950 . S
H766 C778 0.950 . S
H767 C779 0.950 . S
C768 H760 0.950 . S
C768 C769 1.386 . S
C768 C770 1.391 . S
C769 C768 1.386 . S
C769 C773 1.393 . S
C770 H762 0.950 . S
C770 C768 1.391 . S
C770 C771 1.400 . S
C771 C770 1.400 . S
C771 C772 1.398 . S
C771 C777 1.491 . S
C772 H763 0.950 . S
C772 C771 1.398 . S
C772 C773 1.391 . S
C773 H761 0.950 . S
C773 C769 1.393 . S
C773 C772 1.391 . S
C774 H764 0.950 . S
C774 C775 1.386 . S
C774 C776 1.391 . S
C775 C774 1.386 . S
C775 C779 1.393 . S
C776 H765 0.950 . S
C776 C774 1.391 . S
C776 C777 1.400 . S
C777 C771 1.491 . S
C777 C776 1.400 . S
C777 C778 1.398 . S
C778 H766 0.950 . S
C778 C777 1.398 . S
C778 C779 1.391 . S
C779 H767 0.950 . S
C779 C775 1.393 . S
C779 C778 1.391 . S
H780 C788 0.950 . S
H781 C793 0.950 . S
H782 C790 0.950 . S
H783 C792 0.950 . S
H784 C794 0.950 . S
H785 C796 0.950 . S
H786 C798 0.950 . S
H787 C799 0.950 . S
C788 H780 0.950 . S
C788 C789 1.386 . S
C788 C790 1.391 . S
C789 C788 1.386 . S
C789 C793 1.393 . S
C790 H782 0.950 . S
C790 C788 1.391 . S
C790 C791 1.400 . S
C791 C790 1.400 . S
C791 C792 1.398 . S
C791 C797 1.491 . S
C792 H783 0.950 . S
C792 C791 1.398 . S
C792 C793 1.391 . S
C793 H781 0.950 . S
C793 C789 1.393 . S
C793 C792 1.391 . S
C794 H784 0.950 . S
C794 C795 1.386 . S
C794 C796 1.391 . S
C795 C794 1.386 . S
C795 C799 1.393 . S
C796 H785 0.950 . S
C796 C794 1.391 . S
C796 C797 1.400 . S
C797 C791 1.491 . S
C797 C796 1.400 . S
C797 C798 1.398 . S
C798 H786 0.950 . S
C798 C797 1.398 . S
C798 C799 1.391 . S
C799 H787 0.950 . S
C799 C795 1.393 . S
C799 C798 1.391 . S
C329 C5 1.661 . S
C335 C295 1.660 . S
C349 C255 1.658 . S
C355 C45 1.658 . S
C369 C205 1.662 . S
C375 C95 1.662 . S
C389 C165 1.660 . S
C395 C135 1.659 . S
C409 C98 1.557 . S
C415 C18 1.529 . S
C429 C58 1.526 . S
C435 C138 1.554 . S
C449 C128 1.533 . S
C455 C48 1.564 . S
C469 C88 1.508 . S
C475 C8 1.555 . S
C489 C178 1.448 1_556 S
C495 C258 1.439 1_556 S
C509 C218 1.431 1_556 S
C515 C298 1.441 1_556 S
C529 C288 1.447 1_554 S
C535 C208 1.451 1_554 S
C549 C248 1.435 1_554 S
C555 C168 1.445 1_554 S
C569 C19 2.008 . S
C575 C9 2.008 . S
C589 C59 2.007 . S
C595 C49 2.007 . S
C609 C99 2.001 . S
C615 C89 2.001 . S
C629 C129 2.003 . S
C635 C139 2.003 . S
C649 C169 2.005 . S
C655 C179 2.005 . S
C669 C219 2.003 . S
C675 C209 2.003 . S
C689 C249 2.004 . S
C695 C259 2.004 . S
C709 C289 2.002 . S
C715 C299 2.002 . S
C729 C15 2.260 . S
C735 C55 2.257 . S
C749 C125 2.253 . S
C755 C85 2.259 . S
C769 C175 2.252 . S
C775 C215 2.264 . S
C789 C285 2.254 . S
C795 C245 2.260 . S
