# Generated by pormake.
# Topology uou, (4)-cn, num edge types: 1
# Building blocks:
#     Node 0, Type 0, BuildingBlock: NAHDIM_clean_sbu_0, # of connection points: 4
#     Node 1, Type 0, BuildingBlock: NAHDIM_clean_sbu_0, # of connection points: 4
#     Node 2, Type 0, BuildingBlock: NAHDIM_clean_sbu_0, # of connection points: 4
#     Node 3, Type 0, BuildingBlock: NAHDIM_clean_sbu_0, # of connection points: 4
#     Node 4, Type 0, BuildingBlock: NAHDIM_clean_sbu_0, # of connection points: 4
#     Node 5, Type 0, BuildingBlock: NAHDIM_clean_sbu_0, # of connection points: 4
#     Node 6, Type 0, BuildingBlock: NAHDIM_clean_sbu_0, # of connection points: 4
#     Node 7, Type 0, BuildingBlock: NAHDIM_clean_sbu_0, # of connection points: 4
#     Node 8, Type 0, BuildingBlock: NAHDIM_clean_sbu_0, # of connection points: 4
#     Node 9, Type 0, BuildingBlock: NAHDIM_clean_sbu_0, # of connection points: 4
#     Node 10, Type 0, BuildingBlock: NAHDIM_clean_sbu_0, # of connection points: 4
#     Node 11, Type 0, BuildingBlock: NAHDIM_clean_sbu_0, # of connection points: 4
#     Node 12, Type 0, BuildingBlock: NAHDIM_clean_sbu_0, # of connection points: 4
#     Node 13, Type 0, BuildingBlock: NAHDIM_clean_sbu_0, # of connection points: 4
#     Node 14, Type 0, BuildingBlock: NAHDIM_clean_sbu_0, # of connection points: 4
#     Node 15, Type 0, BuildingBlock: NAHDIM_clean_sbu_0, # of connection points: 4
#     Edge 16, Type (0, 0), BuildingBlock: EZIPEK_clean_linker_0, # of connection points: 2
#     Edge 17, Type (0, 0), BuildingBlock: EZIPEK_clean_linker_0, # of connection points: 2
#     Edge 18, Type (0, 0), BuildingBlock: EZIPEK_clean_linker_0, # of connection points: 2
#     Edge 19, Type (0, 0), BuildingBlock: EZIPEK_clean_linker_0, # of connection points: 2
#     Edge 20, Type (0, 0), BuildingBlock: EZIPEK_clean_linker_0, # of connection points: 2
#     Edge 21, Type (0, 0), BuildingBlock: EZIPEK_clean_linker_0, # of connection points: 2
#     Edge 22, Type (0, 0), BuildingBlock: EZIPEK_clean_linker_0, # of connection points: 2
#     Edge 23, Type (0, 0), BuildingBlock: EZIPEK_clean_linker_0, # of connection points: 2
#     Edge 24, Type (0, 0), BuildingBlock: EZIPEK_clean_linker_0, # of connection points: 2
#     Edge 25, Type (0, 0), BuildingBlock: EZIPEK_clean_linker_0, # of connection points: 2
#     Edge 26, Type (0, 0), BuildingBlock: EZIPEK_clean_linker_0, # of connection points: 2
#     Edge 27, Type (0, 0), BuildingBlock: EZIPEK_clean_linker_0, # of connection points: 2
#     Edge 28, Type (0, 0), BuildingBlock: EZIPEK_clean_linker_0, # of connection points: 2
#     Edge 29, Type (0, 0), BuildingBlock: EZIPEK_clean_linker_0, # of connection points: 2
#     Edge 30, Type (0, 0), BuildingBlock: EZIPEK_clean_linker_0, # of connection points: 2
#     Edge 31, Type (0, 0), BuildingBlock: EZIPEK_clean_linker_0, # of connection points: 2
#     Edge 32, Type (0, 0), BuildingBlock: EZIPEK_clean_linker_0, # of connection points: 2
#     Edge 33, Type (0, 0), BuildingBlock: EZIPEK_clean_linker_0, # of connection points: 2
#     Edge 34, Type (0, 0), BuildingBlock: EZIPEK_clean_linker_0, # of connection points: 2
#     Edge 35, Type (0, 0), BuildingBlock: EZIPEK_clean_linker_0, # of connection points: 2
#     Edge 36, Type (0, 0), BuildingBlock: EZIPEK_clean_linker_0, # of connection points: 2
#     Edge 37, Type (0, 0), BuildingBlock: EZIPEK_clean_linker_0, # of connection points: 2
#     Edge 38, Type (0, 0), BuildingBlock: EZIPEK_clean_linker_0, # of connection points: 2
#     Edge 39, Type (0, 0), BuildingBlock: EZIPEK_clean_linker_0, # of connection points: 2
#     Edge 40, Type (0, 0), BuildingBlock: EZIPEK_clean_linker_0, # of connection points: 2
#     Edge 41, Type (0, 0), BuildingBlock: EZIPEK_clean_linker_0, # of connection points: 2
#     Edge 42, Type (0, 0), BuildingBlock: EZIPEK_clean_linker_0, # of connection points: 2
#     Edge 43, Type (0, 0), BuildingBlock: EZIPEK_clean_linker_0, # of connection points: 2
#     Edge 44, Type (0, 0), BuildingBlock: EZIPEK_clean_linker_0, # of connection points: 2
#     Edge 45, Type (0, 0), BuildingBlock: EZIPEK_clean_linker_0, # of connection points: 2
#     Edge 46, Type (0, 0), BuildingBlock: EZIPEK_clean_linker_0, # of connection points: 2
#     Edge 47, Type (0, 0), BuildingBlock: EZIPEK_clean_linker_0, # of connection points: 2
# Relax obj value: 0.104
# Max RMSD: 0.144
# Mean RMSD: 0.144
data_MOF--net-uou--node1-NAHDIM_clean_sbu_0--edge1-EZIPEK_clean_linker_0
_symmetry_space_group_name_H-M    P1
_symmetry_Int_Tables_number       1
_symmetry_cell_setting            triclinic
loop_
_symmetry_equiv_pos_as_xyz
'x, y, z'
_cell_length_a     30.281076
_cell_length_b     29.365792
_cell_length_c     37.124603
_cell_angle_alpha  89.89399
_cell_angle_beta   89.92882
_cell_angle_gamma 89.900719
loop_
_atom_site_label
_atom_site_type_symbol
_atom_site_fract_x
_atom_site_fract_y
_atom_site_fract_z
_atom_type_partial_charge
C0 C 0.15252 0.02322 0.09951 0.0
O1 O 0.12192 -0.0031 0.08575 0.0
O2 O 0.04806 0.05804 0.15229 0.0
Zn3 Zn 0.07874 0.08171 0.10811 0.0
O4 O 0.05261 0.05817 0.06213 0.0
C5 C 0.03469 0.16568 0.11892 0.0
O6 O 0.00496 0.13772 0.13201 0.0
O7 O 0.14243 0.06271 0.11084 0.0
C8 C 0.01136 0.05458 0.0569 0.0
O9 O 0.98362 0.06442 0.08294 0.0
C10 C 0.03685 0.01768 0.1605 0.0
O11 O 0.04353 0.98417 0.13774 0.0
O12 O 0.07128 0.15005 0.1074 0.0
C13 C 0.33244 0.96033 0.10999 0.0
O14 O 0.36316 0.99039 0.10245 0.0
O15 O 0.43149 0.94614 0.1621 0.0
Zn16 Zn 0.40891 0.90946 0.12001 0.0
O17 O 0.43199 0.93195 0.07233 0.0
C18 C 0.46148 0.82892 0.11483 0.0
O19 O 0.48965 0.85848 0.10167 0.0
O20 O 0.34346 0.92002 0.11876 0.0
C21 C 0.46732 0.95442 0.06792 0.0
O22 O 0.49212 0.96458 0.09574 0.0
C23 C 0.46571 0.93523 0.17984 0.0
O24 O 0.49053 0.90133 0.16891 0.0
O25 O 0.42365 0.84236 0.12531 0.0
C26 C 0.64504 0.95397 0.36683 0.0
O27 O 0.61701 0.98812 0.36717 0.0
O28 O 0.54042 0.93437 0.32671 0.0
Zn29 Zn 0.56493 0.90859 0.37228 0.0
O30 O 0.54583 0.94333 0.41593 0.0
C31 C 0.50711 0.83341 0.36113 0.0
O32 O 0.4841 0.8651 0.34464 0.0
O33 O 0.63077 0.91339 0.36907 0.0
C34 C 0.50693 0.94168 0.42852 0.0
O35 O 0.47641 0.91791 0.41203 0.0
C36 C 0.52325 0.97291 0.32021 0.0
O37 O 0.52014 0.00394 0.34551 0.0
O38 O 0.54385 0.84343 0.37574 0.0
C39 C 0.82954 -5e-05 0.35564 0.0
O40 O 0.85915 0.96885 0.34759 0.0
O41 O 0.92904 0.02933 0.3129 0.0
Zn42 Zn 0.90679 0.05231 0.36074 0.0
O43 O 0.93186 0.01912 0.40336 0.0
C44 C 0.95374 0.13858 0.35425 0.0
O45 O 0.98248 0.11396 0.33636 0.0
O46 O 0.84175 0.04046 0.36221 0.0
C47 C 0.96775 0.03007 0.41866 0.0
O48 O -0.00714 0.06195 0.40478 0.0
C49 C 0.9688 0.01963 0.30514 0.0
O50 O -0.00114 0.01978 0.33062 0.0
O51 O 0.91866 0.12019 0.3663 0.0
C52 C 0.82446 0.97911 0.87412 0.0
O53 O 0.85275 0.01262 0.87042 0.0
O54 O 0.92403 0.95924 0.82688 0.0
Zn55 Zn 0.904 0.92958 0.87277 0.0
O56 O 0.93183 0.95782 0.91637 0.0
C57 C 0.95639 0.84928 0.88415 0.0
O58 O 0.98221 0.87858 0.90038 0.0
O59 O 0.83839 0.93834 0.87599 0.0
C60 C 0.94741 -0.00212 0.91767 0.0
O61 O 0.94703 0.02388 0.88885 0.0
C62 C 0.96395 0.95767 0.81653 0.0
O63 O -0.00595 0.93948 0.83754 0.0
O64 O 0.92004 0.86273 0.87064 0.0
C65 C 0.63853 0.02217 0.87843 0.0
O66 O 0.61006 0.9902 0.88694 0.0
O67 O 0.53535 0.03498 0.82968 0.0
Zn68 Zn 0.55917 0.07048 0.87189 0.0
O69 O 0.53878 0.04668 0.91999 0.0
C70 C 0.50654 0.15129 0.87935 0.0
O71 O 0.47878 0.12226 0.89378 0.0
O72 O 0.62476 0.06189 0.87066 0.0
C73 C 0.50367 0.02418 0.92539 0.0
O74 O 0.47748 0.01441 0.89835 0.0
C75 C 0.49878 0.04416 0.81464 0.0
O76 O 0.47248 0.07483 0.82879 0.0
O77 O 0.54358 0.13733 0.86754 0.0
C78 C 0.32785 0.02181 0.61102 0.0
O79 O 0.35578 0.98972 0.60159 0.0
O80 O 0.43471 0.04836 0.66037 0.0
Zn81 Zn 0.40749 0.0705 0.61448 0.0
O82 O 0.42883 0.03677 0.57114 0.0
C83 C 0.46055 0.1497 0.62187 0.0
O84 O 0.48613 0.1205 0.63869 0.0
O85 O 0.34198 0.06156 0.61794 0.0
C86 C 0.46916 0.03066 0.56334 0.0
O87 O 0.50018 0.04571 0.58491 0.0
C88 C 0.43779 0.00852 0.6734 0.0
O89 O 0.4234 0.97314 0.65535 0.0
O90 O 0.42386 0.13666 0.60884 0.0
C91 C 0.14285 0.97683 0.61712 0.0
O92 O 0.11378 0.00984 0.61432 0.0
O93 O 0.037 0.94739 0.66177 0.0
Zn94 Zn 0.06456 0.92656 0.61563 0.0
O95 O 0.04372 0.96043 0.57202 0.0
C96 C 0.01245 0.84633 0.62235 0.0
O97 O 0.98683 0.87452 0.64014 0.0
O98 O 0.12991 0.93574 0.6186 0.0
C99 C 0.00458 0.95806 0.56008 0.0
O100 O 0.97435 0.93554 0.57812 0.0
C101 C 0.02508 0.98643 0.67271 0.0
O102 O 0.02911 0.02238 0.6519 0.0
O103 O 0.04882 0.86036 0.60924 0.0
C104 C 0.65303 0.51443 0.11448 0.0
O105 O 0.62481 0.48057 0.11358 0.0
O106 O 0.54987 0.52927 0.16242 0.0
Zn107 Zn 0.57321 0.56294 0.11915 0.0
O108 O 0.54933 0.54045 0.07219 0.0
C109 C 0.51969 0.64192 0.10947 0.0
O110 O 0.49567 0.61256 0.0915 0.0
O111 O 0.639 0.55506 0.11739 0.0
C112 C 0.52963 0.50311 0.06661 0.0
O113 O 0.52315 0.47417 0.09308 0.0
C114 C 0.50934 0.53131 0.17112 0.0
O115 O 0.48108 0.55124 0.14943 0.0
O116 O 0.55577 0.62912 0.12386 0.0
C117 C 0.83921 0.47519 0.10161 0.0
O118 O 0.86634 0.50845 0.09335 0.0
O119 O 0.94036 0.44295 0.16112 0.0
Zn120 Zn 0.92029 0.42731 0.11173 0.0
O121 O 0.95155 0.46635 0.07573 0.0
C122 C 0.97847 0.35318 0.1137 0.0
O123 O 0.00414 0.38598 0.12536 0.0
O124 O 0.85451 0.43608 0.10941 0.0
C125 C 0.95517 0.45208 0.04365 0.0
O126 O 0.93779 0.41287 0.03447 0.0
C127 C 0.94162 0.48136 0.17661 0.0
O128 O 0.92896 0.51842 0.15966 0.0
O129 O 0.93885 0.36209 0.10475 0.0
C130 C 0.14025 0.45452 0.37301 0.0
O131 O 0.11063 0.48719 0.37436 0.0
O132 O 0.03849 0.44109 0.33092 0.0
Zn133 Zn 0.06207 0.40482 0.37298 0.0
O134 O 0.04113 0.4293 0.42038 0.0
C135 C 0.00722 0.32495 0.37809 0.0
O136 O 0.97947 0.35396 0.39265 0.0
O137 O 0.12779 0.41323 0.37209 0.0
C138 C 0.00546 0.45145 0.42425 0.0
O139 O 0.98005 0.45951 0.39636 0.0
C140 C 0.0013 0.43413 0.3162 0.0
O141 O 0.97399 0.40421 0.33001 0.0
O142 O 0.04521 0.33846 0.36806 0.0
C143 C 0.32336 0.50861 0.37466 0.0
O144 O 0.35382 0.47883 0.38367 0.0
O145 O 0.42801 0.54405 0.32401 0.0
Zn146 Zn 0.39909 0.56441 0.36983 0.0
O147 O 0.42385 0.53279 0.4136 0.0
C148 C 0.44605 0.64738 0.36083 0.0
O149 O 0.47422 0.61878 0.34627 0.0
O150 O 0.33439 0.54931 0.36719 0.0
C151 C 0.45781 0.54622 0.43052 0.0
O152 O 0.48038 0.58127 0.41867 0.0
C153 C 0.43684 0.50468 0.31193 0.0
O154 O 0.4277 0.46818 0.33098 0.0
O155 O 0.40967 0.63251 0.37343 0.0
C156 C 0.33329 0.47829 0.87079 0.0
O157 O 0.36397 0.50979 0.8691 0.0
O158 O 0.43447 0.45356 0.82723 0.0
Zn159 Zn 0.40952 0.4237 0.87164 0.0
O160 O 0.43509 0.44632 0.91821 0.0
C161 C 0.45719 0.34112 0.88239 0.0
O162 O 0.48381 0.36914 0.8992 0.0
O163 O 0.34443 0.43659 0.87238 0.0
C164 C 0.4664 0.47453 0.92206 0.0
O165 O 0.48441 0.49401 0.8938 0.0
C166 C 0.47377 0.447 0.81643 0.0
O167 O 0.50136 0.42336 0.83629 0.0
O168 O 0.42175 0.3562 0.86835 0.0
C169 C 0.15 0.53299 0.86825 0.0
O170 O 0.1198 0.50149 0.86369 0.0
O171 O 0.0509 0.571 0.81944 0.0
Zn172 Zn 0.07335 0.58768 0.86814 0.0
O173 O 0.04118 0.55163 0.90537 0.0
C174 C 0.01802 0.66364 0.87209 0.0
O175 O -0.01059 0.63128 0.86512 0.0
O176 O 0.13841 0.57444 0.8711 0.0
C177 C 0.05235 0.55514 0.93815 0.0
O178 O 0.08501 0.5821 0.94726 0.0
C179 C 0.03225 0.53363 0.81169 0.0
O180 O 0.02703 0.50196 0.83631 0.0
O181 O 0.05872 0.65375 0.87536 0.0
C182 C 0.82964 0.52466 0.60861 0.0
O183 O 0.86098 0.49398 0.60516 0.0
O184 O 0.9294 0.54866 0.65664 0.0
Zn185 Zn 0.90488 0.57873 0.61201 0.0
O186 O 0.92817 0.55256 0.56579 0.0
C187 C 0.95496 0.66067 0.60349 0.0
O188 O 0.98373 0.63217 0.58969 0.0
O189 O 0.8399 0.56635 0.6122 0.0
C190 C 0.96332 0.52938 0.56255 0.0
O191 O -0.01226 0.52054 0.59088 0.0
C192 C 0.96763 0.55689 0.66903 0.0
O193 O -0.005 0.58277 0.65087 0.0
O194 O 0.91763 0.64614 0.61418 0.0
C195 C 0.64729 0.46811 0.60647 0.0
O196 O 0.61724 0.49923 0.5997 0.0
O197 O 0.54336 0.43351 0.65832 0.0
Zn198 Zn 0.57052 0.41442 0.61116 0.0
O199 O 0.54531 0.44589 0.56776 0.0
C200 C 0.5178 0.33652 0.61287 0.0
O201 O 0.48867 0.36833 0.62025 0.0
O202 O 0.63561 0.42729 0.61261 0.0
C203 C 0.50737 0.46407 0.56583 0.0
O204 O 0.48106 0.46394 0.59393 0.0
C205 C 0.53489 0.47245 0.67147 0.0
O206 O 0.54248 0.50952 0.65264 0.0
O207 O 0.55774 0.34751 0.60686 0.0
C208 C 0.26015 0.97942 0.13918 0.0
C209 C 0.28553 0.97362 0.10737 0.0
C210 C 0.22451 0.00295 0.07072 0.0
C211 C 0.19831 0.00639 0.10228 0.0
N212 N 0.1877 0.99136 0.16557 0.0
N213 N 0.29047 0.97224 0.04258 0.0
C214 C 0.21513 0.99277 0.13629 0.0
C215 C 0.2673 0.98324 0.07302 0.0
N216 N 0.27956 0.97393 0.17216 0.0
N217 N 0.20899 0.01992 0.03881 0.0
H218 H 0.32192 0.95768 0.04328 0.0
H219 H 0.27728 0.97389 0.01674 0.0
H220 H 0.1776 0.0342 0.03605 0.0
H221 H 0.22825 0.02312 0.0157 0.0
H222 H 0.26435 0.98274 0.19633 0.0
H223 H 0.31229 0.96354 0.17536 0.0
H224 H 0.19653 0.97692 0.19016 0.0
H225 H 0.15469 0.00152 0.16456 0.0
C226 C 0.71532 0.98027 0.39504 0.0
C227 C 0.69278 0.96326 0.36443 0.0
C228 C 0.7593 0.97267 0.32754 0.0
C229 C 0.78252 0.98722 0.35863 0.0
N230 N 0.78566 -0.00276 0.42306 0.0
N231 N 0.69347 0.93762 0.30277 0.0
C232 C 0.76134 0.98907 0.39271 0.0
C233 C 0.71492 0.95752 0.33106 0.0
N234 N 0.69257 0.98844 0.42623 0.0
N235 N 0.77904 0.97544 0.29444 0.0
H236 H 0.66036 0.92797 0.30385 0.0
H237 H 0.70909 0.9278 0.27903 0.0
H238 H 0.81141 0.98666 0.29079 0.0
H239 H 0.7625 0.97013 0.27026 0.0
H240 H 0.70576 0.00607 0.44801 0.0
H241 H 0.65938 0.98 0.42968 0.0
H242 H 0.77318 0.99412 0.44909 0.0
H243 H 0.81956 0.00344 0.42253 0.0
C244 C 0.75519 0.00424 0.84324 0.0
C245 C 0.77666 0.98905 0.87505 0.0
C246 C 0.70829 -0.00087 0.90957 0.0
C247 C 0.68617 0.01146 0.87732 0.0
N248 N 0.68588 0.01887 0.8126 0.0
N249 N 0.77363 0.96693 0.93762 0.0
C250 C 0.70892 0.0124 0.8439 0.0
C251 C 0.75312 0.98475 0.90795 0.0
N252 N 0.77909 0.01093 0.81238 0.0
N253 N 0.68699 0.00323 0.94193 0.0
H254 H 0.80707 0.9584 0.9381 0.0
H255 H 0.75706 0.95784 0.96112 0.0
H256 H 0.65427 0.01403 0.94421 0.0
H257 H 0.70251 -0.00042 0.96677 0.0
H258 H 0.76667 0.02737 0.78968 0.0
H259 H 0.81241 0.00238 0.81002 0.0
H260 H 0.69955 0.01487 0.78707 0.0
H261 H 0.6519 0.02469 0.81193 0.0
C262 C 0.21141 0.00497 0.64709 0.0
C263 C 0.19032 0.98759 0.61594 0.0
C264 C 0.25808 -0.00223 0.58084 0.0
C265 C 0.28021 0.01153 0.61266 0.0
N266 N 0.28053 0.02183 0.67713 0.0
N267 N 0.19374 0.9622 0.55423 0.0
C268 C 0.25756 0.01366 0.64611 0.0
C269 C 0.21378 0.98226 0.58314 0.0
N270 N 0.18723 0.01346 0.6775 0.0
N271 N 0.27879 0.00158 0.54819 0.0
H272 H 0.16069 0.95226 0.5543 0.0
H273 H 0.21057 0.95246 0.53101 0.0
H274 H 0.311 0.01359 0.54534 0.0
H275 H 0.26296 -0.00323 0.52362 0.0
H276 H 0.1995 0.03105 0.69964 0.0
H277 H 0.15378 0.00547 0.67977 0.0
H278 H 0.26689 0.01877 0.70277 0.0
H279 H 0.3144 0.02819 0.67754 0.0
C280 C 0.77084 0.48267 0.13918 0.0
C281 C 0.79136 0.48447 0.1048 0.0
C282 C 0.72197 0.51023 0.07748 0.0
C283 C 0.70076 0.50505 0.11133 0.0
N284 N 0.7026 0.48102 0.17344 0.0
N285 N 0.78588 0.49306 0.04039 0.0
C286 C 0.72449 0.48956 0.1419 0.0
C287 C 0.76681 0.49657 0.07369 0.0
N288 N 0.79596 0.47651 0.16942 0.0
N289 N 0.69927 0.52847 0.04906 0.0
H290 H 0.81846 0.48251 0.03664 0.0
H291 H 0.76862 0.49677 0.01634 0.0
H292 H 0.6659 0.53721 0.05044 0.0
H293 H 0.71405 0.53787 0.02484 0.0
H294 H 0.78377 0.48005 0.1955 0.0
H295 H 0.83005 0.47151 0.16864 0.0
H296 H 0.71697 0.46457 0.19537 0.0
H297 H 0.66901 0.48762 0.17696 0.0
C298 C 0.25293 0.49487 0.341 0.0
C299 C 0.27648 0.49469 0.37402 0.0
C300 C 0.2123 0.46228 0.40516 0.0
C301 C 0.18762 0.46626 0.37288 0.0
N302 N 0.18199 0.4904 0.31092 0.0
N303 N 0.27736 0.48505 0.43856 0.0
C304 C 0.20721 0.48386 0.34104 0.0
C305 C 0.25593 0.47998 0.40639 0.0
N306 N 0.27474 0.50351 0.30943 0.0
N307 N 0.19404 0.44152 0.43462 0.0
H308 H 0.30908 0.49856 0.44066 0.0
H309 H 0.26248 0.47965 0.46349 0.0
H310 H 0.16154 0.42983 0.43524 0.0
H311 H 0.21191 0.43286 0.45757 0.0
H312 H 0.26063 0.49928 0.28411 0.0
H313 H 0.3083 0.51134 0.30828 0.0
H314 H 0.19287 0.50815 0.2883 0.0
H315 H 0.149 0.48043 0.30927 0.0
C316 C 0.21657 0.50072 0.83755 0.0
C317 C 0.1972 0.52006 0.86882 0.0
C318 C 0.26776 0.51396 0.90084 0.0
C319 C 0.28619 0.49159 0.87045 0.0
N320 N 0.27781 0.45904 0.81122 0.0
N321 N 0.20171 0.53984 0.93171 0.0
C322 C 0.2604 0.48338 0.83925 0.0
C323 C 0.22214 0.52556 0.90084 0.0
N324 N 0.19375 0.501 0.80575 0.0
N325 N 0.29393 0.52415 0.92971 0.0
H326 H 0.16848 0.54904 0.93271 0.0
H327 H 0.2166 0.53948 0.95696 0.0
H328 H 0.32661 0.5133 0.93189 0.0
H329 H 0.28416 0.54542 0.95067 0.0
H330 H 0.2075 0.4919 0.78109 0.0
H331 H 0.1619 0.51422 0.80331 0.0
H332 H 0.25917 0.44713 0.78968 0.0
H333 H 0.31057 0.44808 0.81045 0.0
C334 C 0.72195 0.4713 0.57774 0.0
C335 C 0.69432 0.48112 0.60759 0.0
C336 C 0.75628 0.51674 0.63921 0.0
C337 C 0.78289 0.51039 0.60813 0.0
N338 N 0.78994 0.48816 0.54586 0.0
N339 N 0.68281 0.51692 0.66524 0.0
C340 C 0.76552 0.4892 0.57689 0.0
C341 C 0.71079 0.50509 0.63787 0.0
N342 N 0.70656 0.44471 0.55029 0.0
N343 N 0.77498 0.53183 0.67052 0.0
H344 H 0.6499 0.50664 0.66616 0.0
H345 H 0.69135 0.53911 0.68592 0.0
H346 H 0.80831 0.5403 0.6727 0.0
H347 H 0.75853 0.53243 0.69514 0.0
H348 H 0.72655 0.43197 0.5298 0.0
H349 H 0.67425 0.43252 0.54927 0.0
H350 H 0.77751 0.47766 0.52112 0.0
H351 H 0.82174 0.50157 0.54399 0.0
C352 C 0.01237 0.97952 0.25677 0.0
C353 C 0.98217 0.01438 0.26683 0.0
C354 C 0.97775 0.03837 0.20382 0.0
C355 C 0.01418 0.01018 0.19536 0.0
N356 N 0.06952 0.95621 0.21494 0.0
N357 N 0.94308 0.08353 0.24972 0.0
C358 C 0.03223 0.98089 0.22201 0.0
C359 C 0.96627 0.04537 0.24029 0.0
N360 N 0.02125 0.94452 0.27996 0.0
N361 N 0.95391 0.05837 0.17688 0.0
H362 H 0.93622 0.09268 0.27617 0.0
H363 H 0.93508 0.10912 0.23134 0.0
H364 H 0.96067 0.05246 0.14975 0.0
H365 H 0.92463 0.07617 0.18149 0.0
H366 H 0.03995 0.91615 0.27272 0.0
H367 H 0.00604 0.94145 0.30507 0.0
H368 H 0.08683 0.9385 0.23477 0.0
H369 H 0.08511 0.95618 0.18991 0.0
C370 C 0.44606 0.95504 0.24382 0.0
C371 C 0.47609 0.95781 0.21438 0.0
C372 C 0.53427 0.98517 0.25454 0.0
C373 C 0.50489 0.98035 0.28397 0.0
N374 N 0.43054 0.97448 0.30613 0.0
N375 N 0.54367 0.98765 0.18964 0.0
C376 C 0.45979 0.97047 0.27826 0.0
C377 C 0.5186 0.97704 0.21911 0.0
N378 N 0.406 0.93423 0.23975 0.0
N379 N 0.57757 -0.0045 0.26081 0.0
H380 H 0.53252 0.9826 0.16336 0.0
H381 H 0.57348 0.00516 0.19105 0.0
H382 H 0.58923 0.00401 0.28639 0.0
H383 H 0.6021 0.99394 0.24117 0.0
H384 H 0.38519 0.92635 0.26121 0.0
H385 H 0.39457 0.92152 0.21532 0.0
H386 H 0.39647 0.97177 0.30303 0.0
H387 H 0.44015 0.98498 0.33178 0.0
C388 C 0.96504 0.96391 0.71427 0.0
C389 C 0.00401 0.98934 0.70848 0.0
C390 C 0.00975 0.00339 0.7733 0.0
C391 C 0.97556 0.97122 0.77931 0.0
N392 N 0.92474 0.91543 0.75519 0.0
N393 N 0.06535 0.03213 0.73203 0.0
C394 C 0.95376 0.95043 0.74973 0.0
C395 C 0.02664 0.00939 0.73782 0.0
N396 N 0.93889 0.95262 0.68567 0.0
N397 N 0.02545 0.0287 0.80134 0.0
H398 H 0.078 0.0382 0.70633 0.0
H399 H 0.08616 0.04263 0.75271 0.0
H400 H 0.01337 0.02547 0.82756 0.0
H401 H 0.0474 0.05566 0.79809 0.0
H402 H 0.90791 0.93766 0.68852 0.0
H403 H 0.94627 0.96265 0.65935 0.0
H404 H 0.91185 0.89595 0.73428 0.0
H405 H 0.91681 0.90258 0.78055 0.0
C406 C 0.50141 0.01819 0.71437 0.0
C407 C 0.45736 0.00362 0.70956 0.0
C408 C 0.447 0.00126 0.77492 0.0
C409 C 0.48771 0.02445 0.77917 0.0
N410 N 0.55286 0.0584 0.75241 0.0
N411 N 0.38713 0.98136 0.73464 0.0
C412 C 0.51527 0.03303 0.74888 0.0
C413 C 0.43002 0.99424 0.73968 0.0
N414 N 0.52972 0.01824 0.68567 0.0
N415 N 0.42488 0.98576 0.80459 0.0
H416 H 0.37392 0.97467 0.70928 0.0
H417 H 0.36398 0.97968 0.75536 0.0
H418 H 0.4369 0.99006 0.8307 0.0
H419 H 0.39707 0.96504 0.80321 0.0
H420 H 0.56344 0.02453 0.68797 0.0
H421 H 0.52011 0.00729 0.66011 0.0
H422 H 0.57121 0.0701 0.73054 0.0
H423 H 0.56404 0.07122 0.77688 0.0
C424 C 0.51497 0.5382 0.23835 0.0
C425 C 0.49505 0.51778 0.20774 0.0
C426 C 0.43914 0.48231 0.24651 0.0
C427 C 0.46012 0.50161 0.27701 0.0
N428 N 0.52478 0.53588 0.30302 0.0
N429 N 0.445 0.46209 0.18332 0.0
C430 C 0.50043 0.52543 0.27319 0.0
C431 C 0.45928 0.48706 0.21205 0.0
N432 N 0.54531 0.57231 0.23436 0.0
N433 N 0.39891 0.46177 0.25007 0.0
H434 H 0.45939 0.46454 0.15783 0.0
H435 H 0.42185 0.43604 0.18551 0.0
H436 H 0.38335 0.4572 0.27488 0.0
H437 H 0.37962 0.45197 0.22822 0.0
H438 H 0.55692 0.59161 0.25587 0.0
H439 H 0.55566 0.58474 0.20945 0.0
H440 H 0.55646 0.54958 0.30166 0.0
H441 H 0.51514 0.52632 0.32896 0.0
C442 C 0.95029 0.48091 0.27824 0.0
C443 C -0.00968 0.45604 0.2815 0.0
C444 C 0.00455 0.46683 0.21725 0.0
C445 C 0.96092 0.48314 0.21298 0.0
N446 N 0.8913 0.50606 0.23876 0.0
N447 N 0.05412 0.42122 0.25321 0.0
C448 C 0.9337 0.49117 0.24336 0.0
C449 C 0.01765 0.44862 0.25092 0.0
N450 N 0.92851 0.49502 0.30849 0.0
N451 N 0.03318 0.46836 0.18878 0.0
H452 H 0.06446 0.40556 0.27694 0.0
H453 H 0.07205 0.41057 0.23078 0.0
H454 H 0.02418 0.48189 0.16381 0.0
H455 H 0.06668 0.46076 0.191 0.0
H456 H 0.90129 0.51674 0.30794 0.0
H457 H 0.94027 0.48847 0.33439 0.0
H458 H 0.86804 0.507 0.25943 0.0
H459 H 0.87865 0.51537 0.2137 0.0
C460 C 0.53777 0.49502 0.73697 0.0
C461 C 0.51484 0.47453 0.70785 0.0
C462 C 0.46404 0.43754 0.74998 0.0
C463 C 0.48603 0.459 0.77909 0.0
N464 N 0.53743 0.51534 0.80035 0.0
N465 N 0.44922 0.43756 0.686 0.0
C466 C 0.52092 0.49009 0.77258 0.0
C467 C 0.47569 0.44942 0.71423 0.0
N468 N 0.57679 0.51708 0.73095 0.0
N469 N 0.43391 0.40378 0.7563 0.0
H470 H 0.45629 0.44694 0.65953 0.0
H471 H 0.41812 0.42297 0.6892 0.0
H472 H 0.42473 0.39313 0.78204 0.0
H473 H 0.42096 0.38335 0.736 0.0
H474 H 0.5978 0.52761 0.75148 0.0
H475 H 0.58962 0.52255 0.70529 0.0
H476 H 0.55975 0.54191 0.7968 0.0
H477 H 0.52585 0.51234 0.82672 0.0
C478 C 0.96965 0.55121 0.77112 0.0
C479 C 0.01088 0.52952 0.77631 0.0
C480 C 0.01671 0.51478 0.71168 0.0
C481 C 0.9793 0.54305 0.70601 0.0
N482 N 0.9222 0.59222 0.73001 0.0
N483 N 0.07451 0.49041 0.75276 0.0
C484 C 0.95575 0.56178 0.73564 0.0
C485 C 0.03447 0.51067 0.74696 0.0
N486 N 0.94398 0.56188 0.80024 0.0
N487 N 0.03467 0.49148 0.68338 0.0
H488 H 0.08723 0.48503 0.77853 0.0
H489 H 0.09597 0.48085 0.73218 0.0
H490 H 0.02195 0.49356 0.65732 0.0
H491 H 0.05954 0.46721 0.68614 0.0
H492 H 0.91166 0.57377 0.79813 0.0
H493 H 0.9535 0.55456 0.82663 0.0
H494 H 0.90766 0.61114 0.75055 0.0
H495 H 0.91102 0.60164 0.70453 0.0
C496 C 0.0176 0.23901 0.14982 0.0
C497 C 0.02456 0.21487 0.11724 0.0
C498 C 0.00572 0.28314 0.0823 0.0
C499 C -0.00559 0.30567 0.11477 0.0
N500 N 0.98465 0.30443 0.17928 0.0
N501 N 0.02076 0.21146 0.05236 0.0
C502 C -0.00082 0.28351 0.14855 0.0
C503 C 0.01774 0.23632 0.08339 0.0
N504 N 0.02978 0.21974 0.18189 0.0
N505 N 0.00607 0.30686 0.05057 0.0
H506 H 0.03026 0.17733 0.05191 0.0
H507 H 0.0109 0.22364 0.02727 0.0
H508 H -0.00314 0.34103 0.04875 0.0
H509 H 0.01872 0.29387 0.0266 0.0
H510 H 0.02977 0.23716 0.20629 0.0
H511 H 0.04373 0.1873 0.18373 0.0
H512 H 0.9826 0.2882 0.20418 0.0
H513 H 0.97128 0.3372 0.17951 0.0
C514 C 0.48083 0.75599 0.1468 0.0
C515 C 0.47296 0.78 0.11422 0.0
C516 C 0.50007 0.71515 0.07923 0.0
C517 C 0.5051 0.68989 0.11156 0.0
N518 N 0.49344 0.6829 0.17566 0.0
N519 N 0.46539 0.77938 0.0496 0.0
C520 C 0.49366 0.70936 0.14531 0.0
C521 C 0.47978 0.75866 0.08046 0.0
N522 N 0.47742 0.7781 0.17906 0.0
N523 N 0.51625 0.69832 0.04751 0.0
H524 H 0.449 0.81065 0.04965 0.0
H525 H 0.46549 0.76358 0.02451 0.0
H526 H 0.5321 0.66685 0.04557 0.0
H527 H 0.51777 0.7173 0.02382 0.0
H528 H 0.48772 0.76407 0.20343 0.0
H529 H 0.46693 0.81182 0.18125 0.0
H530 H 0.48088 0.69375 0.20032 0.0
H531 H 0.50261 0.64864 0.17563 0.0
C532 C 0.46307 0.7196 0.39459 0.0
C533 C 0.45704 0.69651 0.36136 0.0
C534 C 0.48664 0.76218 0.32849 0.0
C535 C 0.49057 0.78611 0.36148 0.0
N536 N 0.47555 0.79138 0.42514 0.0
N537 N 0.45379 0.69891 0.29649 0.0
C538 C 0.4768 0.7659 0.39435 0.0
C539 C 0.46611 0.71876 0.32823 0.0
N540 N 0.45756 0.6968 0.42639 0.0
N541 N 0.50414 0.78017 0.29761 0.0
H542 H 0.43781 0.66749 0.29532 0.0
H543 H 0.45539 0.71537 0.27166 0.0
H544 H 0.51975 0.81179 0.2967 0.0
H545 H 0.50674 0.76215 0.27357 0.0
H546 H 0.46692 0.70987 0.45129 0.0
H547 H 0.44619 0.66344 0.4278 0.0
H548 H 0.46103 0.78028 0.44902 0.0
H549 H 0.48596 0.82518 0.42616 0.0
C550 C 0.98764 0.26088 0.33644 0.0
C551 C -0.00681 0.27728 0.37213 0.0
C552 C 0.97063 0.20305 0.39655 0.0
C553 C 0.96342 0.1873 0.36088 0.0
N554 N 0.95617 0.2032 0.29751 0.0
N555 N 0.98565 0.26655 0.43633 0.0
C556 C 0.96961 0.21676 0.33097 0.0
C557 C 0.98308 0.24919 0.40222 0.0
N558 N -0.00049 0.28746 0.30771 0.0
N559 N 0.96789 0.17335 0.42489 0.0
H560 H -0.00137 0.29859 0.442 0.0
H561 H 0.97297 0.25021 0.45898 0.0
H562 H 0.95757 0.13974 0.42223 0.0
H563 H 0.97838 0.18094 0.45087 0.0
H564 H 0.00164 0.27544 0.28141 0.0
H565 H 0.0099 0.3211 0.31019 0.0
H566 H 0.95554 0.22443 0.27503 0.0
H567 H 0.94143 0.17172 0.29281 0.0
C568 C -0.00978 0.7354 0.84351 0.0
C569 C 0.0027 0.71125 0.87507 0.0
C570 C 0.97945 0.77559 0.91254 0.0
C571 C 0.97063 0.80122 0.88088 0.0
N572 N 0.9747 0.80869 0.81617 0.0
N573 N 0.01439 0.70927 0.93928 0.0
C574 C 0.97764 0.78193 0.84628 0.0
C575 C -0.00097 0.73171 0.9095 0.0
N576 N -0.00967 0.71383 0.81088 0.0
N577 N 0.96723 0.79239 0.94543 0.0
H578 H 0.02725 0.67631 0.93835 0.0
H579 H 0.01734 0.72437 0.96451 0.0
H580 H 0.95194 0.82398 0.94867 0.0
H581 H 0.96847 0.77353 0.96917 0.0
H582 H 0.97652 0.7278 0.78767 0.0
H583 H 0.00167 0.68057 0.80735 0.0
H584 H 0.9842 0.79795 0.79059 0.0
H585 H 0.96639 0.84314 0.817 0.0
C586 C 0.47304 0.26763 0.91364 0.0
C587 C 0.46835 0.29216 0.88093 0.0
C588 C 0.4873 0.22356 0.84657 0.0
C589 C 0.4956 0.20033 0.87943 0.0
N590 N 0.50542 0.20259 0.94385 0.0
N591 N 0.47769 0.29624 0.81641 0.0
C592 C 0.49098 0.22302 0.91289 0.0
C593 C 0.47718 0.27089 0.84735 0.0
N594 N 0.45891 0.2864 0.94532 0.0
N595 N 0.48779 0.20014 0.81478 0.0
H596 H 0.47057 0.33098 0.81589 0.0
H597 H 0.4886 0.28377 0.79171 0.0
H598 H 0.49588 0.16568 0.81309 0.0
H599 H 0.47708 0.21395 0.79044 0.0
H600 H 0.45718 0.26829 0.96943 0.0
H601 H 0.44485 0.31879 0.94692 0.0
H602 H 0.50703 0.21923 0.96856 0.0
H603 H 0.52012 0.17045 0.94418 0.0
C604 C 0.49042 0.21489 0.58584 0.0
C605 C 0.47432 0.19773 0.61909 0.0
C606 C 0.49185 0.26984 0.64882 0.0
C607 C 0.50458 0.28824 0.615 0.0
N608 N 0.51099 0.28115 0.55051 0.0
N609 N 0.45377 0.20969 0.68112 0.0
C610 C 0.50263 0.26152 0.58325 0.0
C611 C 0.47342 0.22543 0.65032 0.0
N612 N 0.49541 0.18621 0.55714 0.0
N613 N 0.49887 0.29425 0.67965 0.0
H614 H 0.44015 0.17718 0.68326 0.0
H615 H 0.44772 0.22989 0.70361 0.0
H616 H 0.51258 0.32683 0.67967 0.0
H617 H 0.49471 0.28096 0.70544 0.0
H618 H 0.51151 0.19529 0.5334 0.0
H619 H 0.48634 0.15197 0.55797 0.0
H620 H 0.50519 0.26503 0.52603 0.0
H621 H 0.52082 0.31498 0.54765 0.0
C622 C 0.98756 0.78282 0.58233 0.0
C623 C -0.00176 0.79869 0.61732 0.0
C624 C 0.97504 0.72589 0.64364 0.0
C625 C 0.96753 0.70886 0.60838 0.0
N626 N 0.97011 0.71871 0.54387 0.0
N627 N 0.00828 0.78449 0.68076 0.0
C628 C 0.97498 0.73661 0.57762 0.0
C629 C -0.00663 0.77009 0.64791 0.0
N630 N 0.98735 0.81252 0.55389 0.0
N631 N 0.96491 0.69974 0.67305 0.0
H632 H 0.02237 0.81645 0.68484 0.0
H633 H 0.01019 0.76371 0.70344 0.0
H634 H 0.95417 0.66615 0.67125 0.0
H635 H 0.96447 0.71206 0.69932 0.0
H636 H 0.97508 0.80453 0.52851 0.0
H637 H -0.00371 0.84665 0.55623 0.0
H638 H 0.98056 0.73509 0.52048 0.0
H639 H 0.95762 0.68618 0.53919 0.0
C640 C 0.00063 0.99079 0.96862 0.0
C641 C 0.96551 0.01484 0.95203 0.0
C642 C 0.96403 0.06847 0.0024 0.0
C643 C -0.00513 0.04064 0.0211 0.0
N644 N 0.03574 0.97003 0.02471 0.0
N645 N 0.90855 0.07234 0.95561 0.0
C646 C 0.0114 0.00031 0.00496 0.0
C647 C 0.94576 0.05264 0.96952 0.0
N648 N 0.02474 0.96001 0.94926 0.0
N649 N 0.9535 0.11078 0.01512 0.0
H650 H 0.89386 0.0616 0.93172 0.0
H651 H 0.89007 0.09666 0.96943 0.0
H652 H 0.96686 0.12429 0.03864 0.0
H653 H 0.93487 0.13424 0.0005 0.0
H654 H 0.05324 0.94445 0.95909 0.0
H655 H 0.01913 0.95405 0.92196 0.0
H656 H 0.04496 0.93808 0.01511 0.0
H657 H 0.04265 0.97468 0.05196 0.0
C658 C 0.49839 0.95895 0.96852 0.0
C659 C 0.49418 0.00635 0.96186 0.0
C660 C 0.474 0.01972 0.02505 0.0
C661 C 0.47817 0.97233 0.03174 0.0
N662 N 0.48999 0.89585 0.01023 0.0
N663 N 0.4841 0.08292 0.98384 0.0
C664 C 0.48916 0.94165 0.00354 0.0
C665 C 0.4838 0.03704 0.99018 0.0
N666 N 0.5139 0.93097 0.94186 0.0
N667 N 0.45786 0.04772 0.05145 0.0
H668 H 0.48839 0.09681 0.95831 0.0
H669 H 0.48273 0.10748 0.00397 0.0
H670 H 0.45014 0.03644 0.07735 0.0
H671 H 0.44882 0.0815 0.04726 0.0
H672 H 0.52251 0.89701 0.94567 0.0
H673 H 0.5213 0.94237 0.91593 0.0
H674 H 0.492 0.871 0.99037 0.0
H675 H 0.48656 0.88222 0.03595 0.0
C676 C 0.50235 0.96576 0.52896 0.0
C677 C 0.48062 0.00856 0.5289 0.0
C678 C 0.47265 0.00538 0.46324 0.0
C679 C 0.49708 0.96419 0.46306 0.0
N680 N 0.53953 0.90698 0.49451 0.0
N681 N 0.45176 0.0732 0.49627 0.0
C682 C 0.51341 0.94502 0.49558 0.0
C683 C 0.46745 0.02948 0.4961 0.0
N684 N 0.51038 0.94393 0.56088 0.0
N685 N 0.45418 0.02126 0.43203 0.0
H686 H 0.44805 0.09224 0.51977 0.0
H687 H 0.44606 0.09216 0.47302 0.0
H688 H 0.45878 0.00551 0.40715 0.0
H689 H 0.43177 0.04815 0.4311 0.0
H690 H 0.5215 0.91044 0.5627 0.0
H691 H 0.50271 0.95801 0.5859 0.0
H692 H 0.55689 0.89461 0.51666 0.0
H693 H 0.54606 0.88903 0.47087 0.0
C694 C 0.01651 0.95761 0.49342 0.0
C695 C -0.00535 0.97631 0.52391 0.0
C696 C 0.95318 0.02833 0.48492 0.0
C697 C 0.97749 0.01194 0.45484 0.0
N698 N 0.03614 0.96585 0.43037 0.0
N699 N 0.94712 0.0333 0.55 0.0
C700 C 0.01045 0.97812 0.4591 0.0
C701 C 0.9641 0.01259 0.52003 0.0
N702 N 0.04138 0.91892 0.49701 0.0
N703 N 0.91952 0.05883 0.47988 0.0
H704 H 0.9544 0.02265 0.57615 0.0
H705 H 0.92858 0.06316 0.54923 0.0
H706 H 0.91215 0.07336 0.45495 0.0
H707 H 0.89711 0.06781 0.49994 0.0
H708 H 0.05416 0.90081 0.47529 0.0
H709 H 0.04615 0.90239 0.52159 0.0
H710 H 0.06405 0.9453 0.4326 0.0
H711 H 0.03144 0.97887 0.40449 0.0
C712 C 0.46855 0.50328 0.0216 0.0
C713 C 0.51318 0.49348 0.03008 0.0
C714 C 0.5272 0.47011 0.96778 0.0
C715 C 0.48349 0.48334 0.95866 0.0
N716 N 0.41498 0.51985 0.97487 0.0
N717 N 0.58689 0.47338 0.01119 0.0
C718 C 0.45472 0.5018 0.98507 0.0
C719 C 0.54312 0.47869 0.00311 0.0
N720 N 0.4394 0.51386 0.0485 0.0
N721 N 0.55277 0.44739 0.94328 0.0
H722 H 0.59941 0.47703 0.0372 0.0
H723 H 0.61127 0.4682 0.99181 0.0
H724 H 0.54247 0.44042 0.91709 0.0
H725 H 0.58287 0.43222 0.94966 0.0
H726 H 0.40545 0.51654 0.0446 0.0
H727 H 0.44868 0.5166 0.07546 0.0
H728 H 0.39427 0.53787 0.99214 0.0
H729 H 0.40446 0.52058 0.94814 0.0
C730 C 0.02594 0.47043 0.01244 0.0
C731 C 0.98017 0.47885 0.01704 0.0
C732 C 0.98307 0.5406 0.97278 0.0
C733 C 0.02792 0.52957 0.9659 0.0
N734 N 0.09076 0.48025 0.97484 0.0
N735 N 0.91337 0.5175 -0.0007 0.0
C736 C 0.04916 0.49358 0.98467 0.0
C737 C 0.95818 0.5127 -0.00346 0.0
N738 N 0.0473 0.44089 0.03503 0.0
N739 N 0.96482 0.57872 0.95761 0.0
H740 H 0.89431 0.49835 0.01715 0.0
H741 H 0.89465 0.53796 0.98221 0.0
H742 H 0.98216 0.60015 0.94021 0.0
H743 H 0.93381 0.59135 0.96451 0.0
H744 H 0.08147 0.43706 0.0357 0.0
H745 H 0.0311 0.42249 0.05514 0.0
H746 H 0.1062 0.45113 0.98476 0.0
H747 H 0.10871 0.49625 0.95445 0.0
C748 C 0.97249 0.46152 0.52277 0.0
C749 C 0.97466 0.50946 0.52724 0.0
C750 C -0.0033 0.51914 0.46407 0.0
C751 C -0.00549 0.47124 0.45962 0.0
N752 N 0.98592 0.39592 0.48464 0.0
N753 N 0.98296 0.58476 0.50194 0.0
C754 C 0.98406 0.44214 0.48898 0.0
C755 C 0.98507 0.53853 0.4978 0.0
N756 N 0.95647 0.43488 0.55012 0.0
N757 N 0.01268 0.54576 0.43668 0.0
H758 H 0.9772 0.6004 0.52662 0.0
H759 H 0.98431 0.6079 0.48072 0.0
H760 H 0.02199 0.53284 0.41164 0.0
H761 H 0.02014 0.58015 0.4393 0.0
H762 H 0.94919 0.40044 0.54753 0.0
H763 H 0.94698 0.44778 0.57511 0.0
H764 H 0.98429 0.37263 0.50574 0.0
H765 H -0.0083 0.38045 0.45986 0.0
C766 C 0.48989 0.45728 0.50023 0.0
C767 C 0.49292 0.48475 0.53155 0.0
C768 C 0.46744 0.55096 0.4973 0.0
C769 C 0.46951 0.52481 0.46523 0.0
N770 N 0.48834 0.45477 0.43499 0.0
N771 N 0.49164 0.55916 0.55905 0.0
C772 C 0.48218 0.47834 0.46634 0.0
C773 C 0.48354 0.53201 0.52992 0.0
N774 N 0.49278 0.41093 0.50308 0.0
N775 N 0.44834 0.59317 0.49694 0.0
H776 H 0.50375 0.54667 0.58344 0.0
H777 H 0.4901 0.59457 0.55804 0.0
H778 H 0.4348 0.60763 0.47379 0.0
H779 H 0.44185 0.61183 0.52019 0.0
H780 H 0.48631 0.38886 0.48181 0.0
H781 H 0.49757 0.39423 0.52758 0.0
H782 H 0.50219 0.42232 0.43398 0.0
H783 H 0.4831 0.4691 0.40961 0.0
loop_
_geom_bond_atom_site_label_1
_geom_bond_atom_site_label_2
_geom_bond_distance
_geom_bond_site_symmetry_2
_ccdc_geom_bond_type
C0 O1 1.160 . S
C0 O7 1.185 . S
O1 C0 1.160 . S
O2 Zn3 1.899 . S
O2 C10 1.284 . S
Zn3 O2 1.899 . S
Zn3 O4 2.032 . S
Zn3 O7 2.086 . S
Zn3 O12 1.977 . S
O4 Zn3 2.032 . S
O4 C8 1.278 . S
C5 O6 1.203 . S
C5 O12 1.267 . S
O6 C5 1.203 . S
O7 C0 1.185 . S
O7 Zn3 2.086 . S
C8 O4 1.278 . S
C8 O9 1.211 1_455 S
O9 C8 1.211 1_655 S
C10 O2 1.284 . S
C10 O11 1.273 1_455 S
O11 C10 1.273 1_655 S
O12 Zn3 1.977 . S
O12 C5 1.267 . S
C13 O14 1.160 . S
C13 O20 1.185 . S
O14 C13 1.160 . S
O15 Zn16 1.899 . S
O15 C23 1.284 . S
Zn16 O15 1.899 . S
Zn16 O17 2.032 . S
Zn16 O20 2.086 . S
Zn16 O25 1.977 . S
O17 Zn16 2.032 . S
O17 C21 1.278 . S
C18 O19 1.203 . S
C18 O25 1.267 . S
O19 C18 1.203 . S
O20 C13 1.185 . S
O20 Zn16 2.086 . S
C21 O17 1.278 . S
C21 O22 1.211 . S
O22 C21 1.211 . S
C23 O15 1.284 . S
C23 O24 1.273 . S
O24 C23 1.273 . S
O25 Zn16 1.977 . S
O25 C18 1.267 . S
C26 O27 1.160 . S
C26 O33 1.185 . S
O27 C26 1.160 . S
O28 Zn29 1.899 . S
O28 C36 1.284 . S
Zn29 O28 1.899 . S
Zn29 O30 2.032 . S
Zn29 O33 2.086 . S
Zn29 O38 1.977 . S
O30 Zn29 2.032 . S
O30 C34 1.278 . S
C31 O32 1.203 . S
C31 O38 1.267 . S
O32 C31 1.203 . S
O33 C26 1.185 . S
O33 Zn29 2.086 . S
C34 O30 1.278 . S
C34 O35 1.211 . S
O35 C34 1.211 . S
C36 O28 1.284 . S
C36 O37 1.273 . S
O37 C36 1.273 . S
O38 Zn29 1.977 . S
O38 C31 1.267 . S
C39 O40 1.160 . S
C39 O46 1.185 . S
O40 C39 1.160 . S
O41 Zn42 1.899 . S
O41 C49 1.284 . S
Zn42 O41 1.899 . S
Zn42 O43 2.032 . S
Zn42 O46 2.086 . S
Zn42 O51 1.977 . S
O43 Zn42 2.032 . S
O43 C47 1.278 . S
C44 O45 1.203 . S
C44 O51 1.267 . S
O45 C44 1.203 . S
O46 C39 1.185 . S
O46 Zn42 2.086 . S
C47 O43 1.278 . S
C47 O48 1.211 1_655 S
O48 C47 1.211 1_455 S
C49 O41 1.284 . S
C49 O50 1.273 1_655 S
O50 C49 1.273 1_455 S
O51 Zn42 1.977 . S
O51 C44 1.267 . S
C52 O53 1.160 . S
C52 O59 1.185 . S
O53 C52 1.160 . S
O54 Zn55 1.899 . S
O54 C62 1.284 . S
Zn55 O54 1.899 . S
Zn55 O56 2.032 . S
Zn55 O59 2.086 . S
Zn55 O64 1.977 . S
O56 Zn55 2.032 . S
O56 C60 1.278 . S
C57 O58 1.203 . S
C57 O64 1.267 . S
O58 C57 1.203 . S
O59 C52 1.185 . S
O59 Zn55 2.086 . S
C60 O56 1.278 . S
C60 O61 1.211 1_655 S
O61 C60 1.211 1_455 S
C62 O54 1.284 . S
C62 O63 1.273 1_655 S
O63 C62 1.273 1_455 S
O64 Zn55 1.977 . S
O64 C57 1.267 . S
C65 O66 1.160 . S
C65 O72 1.185 . S
O66 C65 1.160 . S
O67 Zn68 1.899 . S
O67 C75 1.284 . S
Zn68 O67 1.899 . S
Zn68 O69 2.032 . S
Zn68 O72 2.086 . S
Zn68 O77 1.977 . S
O69 Zn68 2.032 . S
O69 C73 1.278 . S
C70 O71 1.203 . S
C70 O77 1.267 . S
O71 C70 1.203 . S
O72 C65 1.185 . S
O72 Zn68 2.086 . S
C73 O69 1.278 . S
C73 O74 1.211 . S
O74 C73 1.211 . S
C75 O67 1.284 . S
C75 O76 1.273 . S
O76 C75 1.273 . S
O77 Zn68 1.977 . S
O77 C70 1.267 . S
C78 O79 1.160 . S
C78 O85 1.185 . S
O79 C78 1.160 . S
O80 Zn81 1.899 . S
O80 C88 1.284 . S
Zn81 O80 1.899 . S
Zn81 O82 2.032 . S
Zn81 O85 2.086 . S
Zn81 O90 1.977 . S
O82 Zn81 2.032 . S
O82 C86 1.278 . S
C83 O84 1.203 . S
C83 O90 1.267 . S
O84 C83 1.203 . S
O85 C78 1.185 . S
O85 Zn81 2.086 . S
C86 O82 1.278 . S
C86 O87 1.211 . S
O87 C86 1.211 . S
C88 O80 1.284 . S
C88 O89 1.273 . S
O89 C88 1.273 . S
O90 Zn81 1.977 . S
O90 C83 1.267 . S
C91 O92 1.160 . S
C91 O98 1.185 . S
O92 C91 1.160 . S
O93 Zn94 1.899 . S
O93 C101 1.284 . S
Zn94 O93 1.899 . S
Zn94 O95 2.032 . S
Zn94 O98 2.086 . S
Zn94 O103 1.977 . S
O95 Zn94 2.032 . S
O95 C99 1.278 . S
C96 O97 1.203 . S
C96 O103 1.267 . S
O97 C96 1.203 . S
O98 C91 1.185 . S
O98 Zn94 2.086 . S
C99 O95 1.278 . S
C99 O100 1.211 1_455 S
O100 C99 1.211 1_655 S
C101 O93 1.284 . S
C101 O102 1.273 1_455 S
O102 C101 1.273 1_655 S
O103 Zn94 1.977 . S
O103 C96 1.267 . S
C104 O105 1.160 . S
C104 O111 1.185 . S
O105 C104 1.160 . S
O106 Zn107 1.899 . S
O106 C114 1.284 . S
Zn107 O106 1.899 . S
Zn107 O108 2.032 . S
Zn107 O111 2.086 . S
Zn107 O116 1.977 . S
O108 Zn107 2.032 . S
O108 C112 1.278 . S
C109 O110 1.203 . S
C109 O116 1.267 . S
O110 C109 1.203 . S
O111 C104 1.185 . S
O111 Zn107 2.086 . S
C112 O108 1.278 . S
C112 O113 1.211 . S
O113 C112 1.211 . S
C114 O106 1.284 . S
C114 O115 1.273 . S
O115 C114 1.273 . S
O116 Zn107 1.977 . S
O116 C109 1.267 . S
C117 O118 1.160 . S
C117 O124 1.185 . S
O118 C117 1.160 . S
O119 Zn120 1.899 . S
O119 C127 1.284 . S
Zn120 O119 1.899 . S
Zn120 O121 2.032 . S
Zn120 O124 2.086 . S
Zn120 O129 1.977 . S
O121 Zn120 2.032 . S
O121 C125 1.278 . S
C122 O123 1.203 . S
C122 O129 1.267 . S
O123 C122 1.203 . S
O124 C117 1.185 . S
O124 Zn120 2.086 . S
C125 O121 1.278 . S
C125 O126 1.211 1_655 S
O126 C125 1.211 1_455 S
C127 O119 1.284 . S
C127 O128 1.273 1_655 S
O128 C127 1.273 1_455 S
O129 Zn120 1.977 . S
O129 C122 1.267 . S
C130 O131 1.160 . S
C130 O137 1.185 . S
O131 C130 1.160 . S
O132 Zn133 1.899 . S
O132 C140 1.284 . S
Zn133 O132 1.899 . S
Zn133 O134 2.032 . S
Zn133 O137 2.086 . S
Zn133 O142 1.977 . S
O134 Zn133 2.032 . S
O134 C138 1.278 . S
C135 O136 1.203 . S
C135 O142 1.267 . S
O136 C135 1.203 . S
O137 C130 1.185 . S
O137 Zn133 2.086 . S
C138 O134 1.278 . S
C138 O139 1.211 1_455 S
O139 C138 1.211 1_655 S
C140 O132 1.284 . S
C140 O141 1.273 1_455 S
O141 C140 1.273 1_655 S
O142 Zn133 1.977 . S
O142 C135 1.267 . S
C143 O144 1.160 . S
C143 O150 1.185 . S
O144 C143 1.160 . S
O145 Zn146 1.899 . S
O145 C153 1.284 . S
Zn146 O145 1.899 . S
Zn146 O147 2.032 . S
Zn146 O150 2.086 . S
Zn146 O155 1.977 . S
O147 Zn146 2.032 . S
O147 C151 1.278 . S
C148 O149 1.203 . S
C148 O155 1.267 . S
O149 C148 1.203 . S
O150 C143 1.185 . S
O150 Zn146 2.086 . S
C151 O147 1.278 . S
C151 O152 1.211 . S
O152 C151 1.211 . S
C153 O145 1.284 . S
C153 O154 1.273 . S
O154 C153 1.273 . S
O155 Zn146 1.977 . S
O155 C148 1.267 . S
C156 O157 1.160 . S
C156 O163 1.185 . S
O157 C156 1.160 . S
O158 Zn159 1.899 . S
O158 C166 1.284 . S
Zn159 O158 1.899 . S
Zn159 O160 2.032 . S
Zn159 O163 2.086 . S
Zn159 O168 1.977 . S
O160 Zn159 2.032 . S
O160 C164 1.278 . S
C161 O162 1.203 . S
C161 O168 1.267 . S
O162 C161 1.203 . S
O163 C156 1.185 . S
O163 Zn159 2.086 . S
C164 O160 1.278 . S
C164 O165 1.211 . S
O165 C164 1.211 . S
C166 O158 1.284 . S
C166 O167 1.273 . S
O167 C166 1.273 . S
O168 Zn159 1.977 . S
O168 C161 1.267 . S
C169 O170 1.160 . S
C169 O176 1.185 . S
O170 C169 1.160 . S
O171 Zn172 1.899 . S
O171 C179 1.284 . S
Zn172 O171 1.899 . S
Zn172 O173 2.032 . S
Zn172 O176 2.086 . S
Zn172 O181 1.977 . S
O173 Zn172 2.032 . S
O173 C177 1.278 . S
C174 O175 1.203 . S
C174 O181 1.267 . S
O175 C174 1.203 . S
O176 C169 1.185 . S
O176 Zn172 2.086 . S
C177 O173 1.278 . S
C177 O178 1.211 1_455 S
O178 C177 1.211 1_655 S
C179 O171 1.284 . S
C179 O180 1.273 1_455 S
O180 C179 1.273 1_655 S
O181 Zn172 1.977 . S
O181 C174 1.267 . S
C182 O183 1.160 . S
C182 O189 1.185 . S
O183 C182 1.160 . S
O184 Zn185 1.899 . S
O184 C192 1.284 . S
Zn185 O184 1.899 . S
Zn185 O186 2.032 . S
Zn185 O189 2.086 . S
Zn185 O194 1.977 . S
O186 Zn185 2.032 . S
O186 C190 1.278 . S
C187 O188 1.203 . S
C187 O194 1.267 . S
O188 C187 1.203 . S
O189 C182 1.185 . S
O189 Zn185 2.086 . S
C190 O186 1.278 . S
C190 O191 1.211 1_655 S
O191 C190 1.211 1_455 S
C192 O184 1.284 . S
C192 O193 1.273 1_655 S
O193 C192 1.273 1_455 S
O194 Zn185 1.977 . S
O194 C187 1.267 . S
C195 O196 1.160 . S
C195 O202 1.185 . S
O196 C195 1.160 . S
O197 Zn198 1.899 . S
O197 C205 1.284 . S
Zn198 O197 1.899 . S
Zn198 O199 2.032 . S
Zn198 O202 2.086 . S
Zn198 O207 1.977 . S
O199 Zn198 2.032 . S
O199 C203 1.278 . S
C200 O201 1.203 . S
C200 O207 1.267 . S
O201 C200 1.203 . S
O202 C195 1.185 . S
O202 Zn198 2.086 . S
C203 O199 1.278 . S
C203 O204 1.211 . S
O204 C203 1.211 . S
C205 O197 1.284 . S
C205 O206 1.273 . S
O206 C205 1.273 . S
O207 Zn198 1.977 . S
O207 C200 1.267 . S
C208 C209 1.363 . S
C208 C214 1.379 . S
C208 N216 1.356 . S
C209 C208 1.363 . S
C209 C215 1.363 1_565 S
C210 C211 1.363 . S
C210 C215 1.379 . S
C210 N217 1.356 . S
C211 C210 1.363 . S
C211 C214 1.363 1_545 S
N212 C214 1.356 . S
N212 H224 0.984 . S
N212 H225 0.985 1_565 S
N213 C215 1.356 . S
N213 H218 0.984 1_545 S
N213 H219 0.985 . S
C214 C208 1.379 . S
C214 C211 1.363 1_565 S
C214 N212 1.356 . S
C215 C209 1.363 1_545 S
C215 C210 1.379 . S
C215 N213 1.356 . S
N216 C208 1.356 . S
N216 H222 0.984 . S
N216 H223 0.984 . S
N217 C210 1.356 . S
N217 H220 0.984 . S
N217 H221 0.985 . S
H218 N213 0.984 1_565 S
H219 N213 0.985 . S
H220 N217 0.984 . S
H221 N217 0.985 . S
H222 N216 0.984 . S
H223 N216 0.984 . S
H224 N212 0.984 . S
H225 N212 0.985 1_545 S
C226 C227 1.363 1_545 S
C226 C232 1.379 . S
C226 N234 1.356 . S
C227 C226 1.363 1_565 S
C227 C233 1.363 . S
C228 C229 1.363 1_565 S
C228 C233 1.379 . S
C228 N235 1.356 . S
C229 C228 1.363 1_545 S
C229 C232 1.363 . S
N230 C232 1.356 . S
N230 H242 0.984 . S
N230 H243 0.985 . S
N231 C233 1.356 . S
N231 H236 0.984 . S
N231 H237 0.985 . S
C232 C226 1.379 . S
C232 C229 1.363 . S
C232 N230 1.356 . S
C233 C227 1.363 . S
C233 C228 1.379 . S
C233 N231 1.356 . S
N234 C226 1.356 . S
N234 H240 0.984 . S
N234 H241 0.984 1_545 S
N235 C228 1.356 . S
N235 H238 0.984 1_565 S
N235 H239 0.985 . S
H236 N231 0.984 . S
H237 N231 0.985 . S
H238 N235 0.984 1_545 S
H239 N235 0.985 . S
H240 N234 0.984 . S
H241 N234 0.984 1_565 S
H242 N230 0.984 . S
H243 N230 0.985 . S
C244 C245 1.363 1_545 S
C244 C250 1.379 . S
C244 N252 1.356 . S
C245 C244 1.363 1_565 S
C245 C251 1.363 . S
C246 C247 1.363 1_565 S
C246 C251 1.379 . S
C246 N253 1.356 . S
C247 C246 1.363 1_545 S
C247 C250 1.363 . S
N248 C250 1.356 . S
N248 H260 0.984 . S
N248 H261 0.985 . S
N249 C251 1.356 . S
N249 H254 0.984 . S
N249 H255 0.985 . S
C250 C244 1.379 . S
C250 C247 1.363 . S
C250 N248 1.356 . S
C251 C245 1.363 . S
C251 C246 1.379 . S
C251 N249 1.356 . S
N252 C244 1.356 . S
N252 H258 0.984 . S
N252 H259 0.984 1_545 S
N253 C246 1.356 . S
N253 H256 0.984 1_565 S
N253 H257 0.985 . S
H254 N249 0.984 . S
H255 N249 0.985 . S
H256 N253 0.984 1_545 S
H257 N253 0.985 . S
H258 N252 0.984 . S
H259 N252 0.984 1_565 S
H260 N248 0.984 . S
H261 N248 0.985 . S
C262 C263 1.363 1_545 S
C262 C268 1.379 . S
C262 N270 1.356 . S
C263 C262 1.363 1_565 S
C263 C269 1.363 . S
C264 C265 1.363 1_565 S
C264 C269 1.379 . S
C264 N271 1.356 . S
C265 C264 1.363 1_545 S
C265 C268 1.363 . S
N266 C268 1.356 . S
N266 H278 0.984 . S
N266 H279 0.985 . S
N267 C269 1.356 . S
N267 H272 0.984 . S
N267 H273 0.985 . S
C268 C262 1.379 . S
C268 C265 1.363 . S
C268 N266 1.356 . S
C269 C263 1.363 . S
C269 C264 1.379 . S
C269 N267 1.356 . S
N270 C262 1.356 . S
N270 H276 0.984 . S
N270 H277 0.984 1_545 S
N271 C264 1.356 . S
N271 H274 0.984 1_565 S
N271 H275 0.985 . S
H272 N267 0.984 . S
H273 N267 0.985 . S
H274 N271 0.984 1_545 S
H275 N271 0.985 . S
H276 N270 0.984 . S
H277 N270 0.984 1_565 S
H278 N266 0.984 . S
H279 N266 0.985 . S
C280 C281 1.363 . S
C280 C286 1.379 . S
C280 N288 1.356 . S
C281 C280 1.363 . S
C281 C287 1.363 . S
C282 C283 1.363 . S
C282 C287 1.379 . S
C282 N289 1.356 . S
C283 C282 1.363 . S
C283 C286 1.363 . S
N284 C286 1.356 . S
N284 H296 0.984 . S
N284 H297 0.985 . S
N285 C287 1.356 . S
N285 H290 0.984 . S
N285 H291 0.985 . S
C286 C280 1.379 . S
C286 C283 1.363 . S
C286 N284 1.356 . S
C287 C281 1.363 . S
C287 C282 1.379 . S
C287 N285 1.356 . S
N288 C280 1.356 . S
N288 H294 0.984 . S
N288 H295 0.984 . S
N289 C282 1.356 . S
N289 H292 0.984 . S
N289 H293 0.985 . S
H290 N285 0.984 . S
H291 N285 0.985 . S
H292 N289 0.984 . S
H293 N289 0.985 . S
H294 N288 0.984 . S
H295 N288 0.984 . S
H296 N284 0.984 . S
H297 N284 0.985 . S
C298 C299 1.363 . S
C298 C304 1.379 . S
C298 N306 1.356 . S
C299 C298 1.363 . S
C299 C305 1.363 . S
C300 C301 1.363 . S
C300 C305 1.379 . S
C300 N307 1.356 . S
C301 C300 1.363 . S
C301 C304 1.363 . S
N302 C304 1.356 . S
N302 H314 0.984 . S
N302 H315 0.985 . S
N303 C305 1.356 . S
N303 H308 0.984 . S
N303 H309 0.985 . S
C304 C298 1.379 . S
C304 C301 1.363 . S
C304 N302 1.356 . S
C305 C299 1.363 . S
C305 C300 1.379 . S
C305 N303 1.356 . S
N306 C298 1.356 . S
N306 H312 0.984 . S
N306 H313 0.984 . S
N307 C300 1.356 . S
N307 H310 0.984 . S
N307 H311 0.985 . S
H308 N303 0.984 . S
H309 N303 0.985 . S
H310 N307 0.984 . S
H311 N307 0.985 . S
H312 N306 0.984 . S
H313 N306 0.984 . S
H314 N302 0.984 . S
H315 N302 0.985 . S
C316 C317 1.363 . S
C316 C322 1.379 . S
C316 N324 1.356 . S
C317 C316 1.363 . S
C317 C323 1.363 . S
C318 C319 1.363 . S
C318 C323 1.379 . S
C318 N325 1.356 . S
C319 C318 1.363 . S
C319 C322 1.363 . S
N320 C322 1.356 . S
N320 H332 0.984 . S
N320 H333 0.985 . S
N321 C323 1.356 . S
N321 H326 0.984 . S
N321 H327 0.985 . S
C322 C316 1.379 . S
C322 C319 1.363 . S
C322 N320 1.356 . S
C323 C317 1.363 . S
C323 C318 1.379 . S
C323 N321 1.356 . S
N324 C316 1.356 . S
N324 H330 0.984 . S
N324 H331 0.984 . S
N325 C318 1.356 . S
N325 H328 0.984 . S
N325 H329 0.985 . S
H326 N321 0.984 . S
H327 N321 0.985 . S
H328 N325 0.984 . S
H329 N325 0.985 . S
H330 N324 0.984 . S
H331 N324 0.984 . S
H332 N320 0.984 . S
H333 N320 0.985 . S
C334 C335 1.363 . S
C334 C340 1.379 . S
C334 N342 1.356 . S
C335 C334 1.363 . S
C335 C341 1.363 . S
C336 C337 1.363 . S
C336 C341 1.379 . S
C336 N343 1.356 . S
C337 C336 1.363 . S
C337 C340 1.363 . S
N338 C340 1.356 . S
N338 H350 0.984 . S
N338 H351 0.985 . S
N339 C341 1.356 . S
N339 H344 0.984 . S
N339 H345 0.985 . S
C340 C334 1.379 . S
C340 C337 1.363 . S
C340 N338 1.356 . S
C341 C335 1.363 . S
C341 C336 1.379 . S
C341 N339 1.356 . S
N342 C334 1.356 . S
N342 H348 0.984 . S
N342 H349 0.984 . S
N343 C336 1.356 . S
N343 H346 0.984 . S
N343 H347 0.985 . S
H344 N339 0.984 . S
H345 N339 0.985 . S
H346 N343 0.984 . S
H347 N343 0.985 . S
H348 N342 0.984 . S
H349 N342 0.984 . S
H350 N338 0.984 . S
H351 N338 0.985 . S
C352 C353 1.363 1_455 S
C352 C358 1.379 . S
C352 N360 1.356 1_545 S
C353 C352 1.363 1_655 S
C353 C359 1.363 . S
C354 C355 1.363 1_655 S
C354 C359 1.379 . S
C354 N361 1.356 . S
C355 C354 1.363 1_455 S
C355 C358 1.363 . S
N356 C358 1.356 1_565 S
N356 H368 0.984 . S
N356 H369 0.985 . S
N357 C359 1.356 . S
N357 H362 0.984 . S
N357 H363 0.985 . S
C358 C352 1.379 . S
C358 C355 1.363 . S
C358 N356 1.356 1_545 S
C359 C353 1.363 . S
C359 C354 1.379 . S
C359 N357 1.356 . S
N360 C352 1.356 1_565 S
N360 H366 0.984 . S
N360 H367 0.984 . S
N361 C354 1.356 . S
N361 H364 0.984 . S
N361 H365 0.985 . S
H362 N357 0.984 . S
H363 N357 0.985 . S
H364 N361 0.984 . S
H365 N361 0.985 . S
H366 N360 0.984 . S
H367 N360 0.984 . S
H368 N356 0.984 . S
H369 N356 0.985 . S
C370 C371 1.363 . S
C370 C376 1.379 . S
C370 N378 1.356 . S
C371 C370 1.363 . S
C371 C377 1.363 . S
C372 C373 1.363 . S
C372 C377 1.379 . S
C372 N379 1.356 1_565 S
C373 C372 1.363 . S
C373 C376 1.363 . S
N374 C376 1.356 . S
N374 H386 0.984 . S
N374 H387 0.985 . S
N375 C377 1.356 1_545 S
N375 H380 0.984 . S
N375 H381 0.985 . S
C376 C370 1.379 . S
C376 C373 1.363 . S
C376 N374 1.356 . S
C377 C371 1.363 . S
C377 C372 1.379 . S
C377 N375 1.356 1_565 S
N378 C370 1.356 . S
N378 H384 0.984 . S
N378 H385 0.984 . S
N379 C372 1.356 1_545 S
N379 H382 0.984 . S
N379 H383 0.985 . S
H380 N375 0.984 . S
H381 N375 0.985 . S
H382 N379 0.984 . S
H383 N379 0.985 . S
H384 N378 0.984 . S
H385 N378 0.984 . S
H386 N374 0.984 . S
H387 N374 0.985 . S
C388 C389 1.363 1_655 S
C388 C394 1.379 . S
C388 N396 1.356 . S
C389 C388 1.363 1_455 S
C389 C395 1.363 . S
C390 C391 1.363 1_455 S
C390 C395 1.379 . S
C390 N397 1.356 1_565 S
C391 C390 1.363 1_655 S
C391 C394 1.363 . S
N392 C394 1.356 . S
N392 H404 0.984 . S
N392 H405 0.985 . S
N393 C395 1.356 1_545 S
N393 H398 0.984 . S
N393 H399 0.985 . S
C394 C388 1.379 . S
C394 C391 1.363 . S
C394 N392 1.356 . S
C395 C389 1.363 . S
C395 C390 1.379 . S
C395 N393 1.356 1_565 S
N396 C388 1.356 . S
N396 H402 0.984 . S
N396 H403 0.984 . S
N397 C390 1.356 1_545 S
N397 H400 0.984 . S
N397 H401 0.985 . S
H398 N393 0.984 . S
H399 N393 0.985 . S
H400 N397 0.984 . S
H401 N397 0.985 . S
H402 N396 0.984 . S
H403 N396 0.984 . S
H404 N392 0.984 . S
H405 N392 0.985 . S
C406 C407 1.363 . S
C406 C412 1.379 . S
C406 N414 1.356 . S
C407 C406 1.363 . S
C407 C413 1.363 . S
C408 C409 1.363 . S
C408 C413 1.379 . S
C408 N415 1.356 1_545 S
C409 C408 1.363 . S
C409 C412 1.363 . S
N410 C412 1.356 . S
N410 H422 0.984 . S
N410 H423 0.985 . S
N411 C413 1.356 1_565 S
N411 H416 0.984 . S
N411 H417 0.985 . S
C412 C406 1.379 . S
C412 C409 1.363 . S
C412 N410 1.356 . S
C413 C407 1.363 . S
C413 C408 1.379 . S
C413 N411 1.356 1_545 S
N414 C406 1.356 . S
N414 H420 0.984 . S
N414 H421 0.984 . S
N415 C408 1.356 1_565 S
N415 H418 0.984 . S
N415 H419 0.985 . S
H416 N411 0.984 . S
H417 N411 0.985 . S
H418 N415 0.984 . S
H419 N415 0.985 . S
H420 N414 0.984 . S
H421 N414 0.984 . S
H422 N410 0.984 . S
H423 N410 0.985 . S
C424 C425 1.363 . S
C424 C430 1.379 . S
C424 N432 1.356 . S
C425 C424 1.363 . S
C425 C431 1.363 . S
C426 C427 1.363 . S
C426 C431 1.379 . S
C426 N433 1.356 . S
C427 C426 1.363 . S
C427 C430 1.363 . S
N428 C430 1.356 . S
N428 H440 0.984 . S
N428 H441 0.985 . S
N429 C431 1.356 . S
N429 H434 0.984 . S
N429 H435 0.985 . S
C430 C424 1.379 . S
C430 C427 1.363 . S
C430 N428 1.356 . S
C431 C425 1.363 . S
C431 C426 1.379 . S
C431 N429 1.356 . S
N432 C424 1.356 . S
N432 H438 0.984 . S
N432 H439 0.984 . S
N433 C426 1.356 . S
N433 H436 0.984 . S
N433 H437 0.985 . S
H434 N429 0.984 . S
H435 N429 0.985 . S
H436 N433 0.984 . S
H437 N433 0.985 . S
H438 N432 0.984 . S
H439 N432 0.984 . S
H440 N428 0.984 . S
H441 N428 0.985 . S
C442 C443 1.363 1_655 S
C442 C448 1.379 . S
C442 N450 1.356 . S
C443 C442 1.363 1_455 S
C443 C449 1.363 . S
C444 C445 1.363 1_455 S
C444 C449 1.379 . S
C444 N451 1.356 . S
C445 C444 1.363 1_655 S
C445 C448 1.363 . S
N446 C448 1.356 . S
N446 H458 0.984 . S
N446 H459 0.985 . S
N447 C449 1.356 . S
N447 H452 0.984 . S
N447 H453 0.985 . S
C448 C442 1.379 . S
C448 C445 1.363 . S
C448 N446 1.356 . S
C449 C443 1.363 . S
C449 C444 1.379 . S
C449 N447 1.356 . S
N450 C442 1.356 . S
N450 H456 0.984 . S
N450 H457 0.984 . S
N451 C444 1.356 . S
N451 H454 0.984 . S
N451 H455 0.985 . S
H452 N447 0.984 . S
H453 N447 0.985 . S
H454 N451 0.984 . S
H455 N451 0.985 . S
H456 N450 0.984 . S
H457 N450 0.984 . S
H458 N446 0.984 . S
H459 N446 0.985 . S
C460 C461 1.363 . S
C460 C466 1.379 . S
C460 N468 1.356 . S
C461 C460 1.363 . S
C461 C467 1.363 . S
C462 C463 1.363 . S
C462 C467 1.379 . S
C462 N469 1.356 . S
C463 C462 1.363 . S
C463 C466 1.363 . S
N464 C466 1.356 . S
N464 H476 0.984 . S
N464 H477 0.985 . S
N465 C467 1.356 . S
N465 H470 0.984 . S
N465 H471 0.985 . S
C466 C460 1.379 . S
C466 C463 1.363 . S
C466 N464 1.356 . S
C467 C461 1.363 . S
C467 C462 1.379 . S
C467 N465 1.356 . S
N468 C460 1.356 . S
N468 H474 0.984 . S
N468 H475 0.984 . S
N469 C462 1.356 . S
N469 H472 0.984 . S
N469 H473 0.985 . S
H470 N465 0.984 . S
H471 N465 0.985 . S
H472 N469 0.984 . S
H473 N469 0.985 . S
H474 N468 0.984 . S
H475 N468 0.984 . S
H476 N464 0.984 . S
H477 N464 0.985 . S
C478 C479 1.363 1_655 S
C478 C484 1.379 . S
C478 N486 1.356 . S
C479 C478 1.363 1_455 S
C479 C485 1.363 . S
C480 C481 1.363 1_455 S
C480 C485 1.379 . S
C480 N487 1.356 . S
C481 C480 1.363 1_655 S
C481 C484 1.363 . S
N482 C484 1.356 . S
N482 H494 0.984 . S
N482 H495 0.985 . S
N483 C485 1.356 . S
N483 H488 0.984 . S
N483 H489 0.985 . S
C484 C478 1.379 . S
C484 C481 1.363 . S
C484 N482 1.356 . S
C485 C479 1.363 . S
C485 C480 1.379 . S
C485 N483 1.356 . S
N486 C478 1.356 . S
N486 H492 0.984 . S
N486 H493 0.984 . S
N487 C480 1.356 . S
N487 H490 0.984 . S
N487 H491 0.985 . S
H488 N483 0.984 . S
H489 N483 0.985 . S
H490 N487 0.984 . S
H491 N487 0.985 . S
H492 N486 0.984 . S
H493 N486 0.984 . S
H494 N482 0.984 . S
H495 N482 0.985 . S
C496 C497 1.363 1_655 S
C496 C502 1.379 . S
C496 N504 1.356 . S
C497 C496 1.363 1_455 S
C497 C503 1.363 . S
C498 C499 1.363 1_455 S
C498 C503 1.379 . S
C498 N505 1.356 . S
C499 C498 1.363 1_655 S
C499 C502 1.363 . S
N500 C502 1.356 . S
N500 H512 0.984 . S
N500 H513 0.985 . S
N501 C503 1.356 . S
N501 H506 0.984 . S
N501 H507 0.985 . S
C502 C496 1.379 . S
C502 C499 1.363 . S
C502 N500 1.356 . S
C503 C497 1.363 . S
C503 C498 1.379 . S
C503 N501 1.356 . S
N504 C496 1.356 . S
N504 H510 0.984 . S
N504 H511 0.984 1_655 S
N505 C498 1.356 . S
N505 H508 0.984 1_455 S
N505 H509 0.985 . S
H506 N501 0.984 . S
H507 N501 0.985 . S
H508 N505 0.984 1_655 S
H509 N505 0.985 . S
H510 N504 0.984 . S
H511 N504 0.984 1_455 S
H512 N500 0.984 . S
H513 N500 0.985 . S
C514 C515 1.363 . S
C514 C520 1.379 . S
C514 N522 1.356 . S
C515 C514 1.363 . S
C515 C521 1.363 . S
C516 C517 1.363 . S
C516 C521 1.379 . S
C516 N523 1.356 . S
C517 C516 1.363 . S
C517 C520 1.363 . S
N518 C520 1.356 . S
N518 H530 0.984 . S
N518 H531 0.985 . S
N519 C521 1.356 . S
N519 H524 0.984 . S
N519 H525 0.985 . S
C520 C514 1.379 . S
C520 C517 1.363 . S
C520 N518 1.356 . S
C521 C515 1.363 . S
C521 C516 1.379 . S
C521 N519 1.356 . S
N522 C514 1.356 . S
N522 H528 0.984 . S
N522 H529 0.984 . S
N523 C516 1.356 . S
N523 H526 0.984 . S
N523 H527 0.985 . S
H524 N519 0.984 . S
H525 N519 0.985 . S
H526 N523 0.984 . S
H527 N523 0.985 . S
H528 N522 0.984 . S
H529 N522 0.984 . S
H530 N518 0.984 . S
H531 N518 0.985 . S
C532 C533 1.363 . S
C532 C538 1.379 . S
C532 N540 1.356 . S
C533 C532 1.363 . S
C533 C539 1.363 . S
C534 C535 1.363 . S
C534 C539 1.379 . S
C534 N541 1.356 . S
C535 C534 1.363 . S
C535 C538 1.363 . S
N536 C538 1.356 . S
N536 H548 0.984 . S
N536 H549 0.985 . S
N537 C539 1.356 . S
N537 H542 0.984 . S
N537 H543 0.985 . S
C538 C532 1.379 . S
C538 C535 1.363 . S
C538 N536 1.356 . S
C539 C533 1.363 . S
C539 C534 1.379 . S
C539 N537 1.356 . S
N540 C532 1.356 . S
N540 H546 0.984 . S
N540 H547 0.984 . S
N541 C534 1.356 . S
N541 H544 0.984 . S
N541 H545 0.985 . S
H542 N537 0.984 . S
H543 N537 0.985 . S
H544 N541 0.984 . S
H545 N541 0.985 . S
H546 N540 0.984 . S
H547 N540 0.984 . S
H548 N536 0.984 . S
H549 N536 0.985 . S
C550 C551 1.363 1_655 S
C550 C556 1.379 . S
C550 N558 1.356 . S
C551 C550 1.363 1_455 S
C551 C557 1.363 . S
C552 C553 1.363 1_455 S
C552 C557 1.379 . S
C552 N559 1.356 . S
C553 C552 1.363 1_655 S
C553 C556 1.363 . S
N554 C556 1.356 . S
N554 H566 0.984 . S
N554 H567 0.985 . S
N555 C557 1.356 . S
N555 H560 0.984 . S
N555 H561 0.985 . S
C556 C550 1.379 . S
C556 C553 1.363 . S
C556 N554 1.356 . S
C557 C551 1.363 . S
C557 C552 1.379 . S
C557 N555 1.356 . S
N558 C550 1.356 . S
N558 H564 0.984 . S
N558 H565 0.984 1_655 S
N559 C552 1.356 . S
N559 H562 0.984 1_455 S
N559 H563 0.985 . S
H560 N555 0.984 . S
H561 N555 0.985 . S
H562 N559 0.984 1_655 S
H563 N559 0.985 . S
H564 N558 0.984 . S
H565 N558 0.984 1_455 S
H566 N554 0.984 . S
H567 N554 0.985 . S
C568 C569 1.363 . S
C568 C574 1.379 . S
C568 N576 1.356 . S
C569 C568 1.363 . S
C569 C575 1.363 1_455 S
C570 C571 1.363 . S
C570 C575 1.379 . S
C570 N577 1.356 . S
C571 C570 1.363 . S
C571 C574 1.363 1_655 S
N572 C574 1.356 . S
N572 H584 0.984 . S
N572 H585 0.985 1_455 S
N573 C575 1.356 . S
N573 H578 0.984 1_655 S
N573 H579 0.985 . S
C574 C568 1.379 . S
C574 C571 1.363 1_455 S
C574 N572 1.356 . S
C575 C569 1.363 1_655 S
C575 C570 1.379 . S
C575 N573 1.356 . S
N576 C568 1.356 . S
N576 H582 0.984 . S
N576 H583 0.984 . S
N577 C570 1.356 . S
N577 H580 0.984 . S
N577 H581 0.985 . S
H578 N573 0.984 1_455 S
H579 N573 0.985 . S
H580 N577 0.984 . S
H581 N577 0.985 . S
H582 N576 0.984 . S
H583 N576 0.984 . S
H584 N572 0.984 . S
H585 N572 0.985 1_655 S
C586 C587 1.363 . S
C586 C592 1.379 . S
C586 N594 1.356 . S
C587 C586 1.363 . S
C587 C593 1.363 . S
C588 C589 1.363 . S
C588 C593 1.379 . S
C588 N595 1.356 . S
C589 C588 1.363 . S
C589 C592 1.363 . S
N590 C592 1.356 . S
N590 H602 0.984 . S
N590 H603 0.985 . S
N591 C593 1.356 . S
N591 H596 0.984 . S
N591 H597 0.985 . S
C592 C586 1.379 . S
C592 C589 1.363 . S
C592 N590 1.356 . S
C593 C587 1.363 . S
C593 C588 1.379 . S
C593 N591 1.356 . S
N594 C586 1.356 . S
N594 H600 0.984 . S
N594 H601 0.984 . S
N595 C588 1.356 . S
N595 H598 0.984 . S
N595 H599 0.985 . S
H596 N591 0.984 . S
H597 N591 0.985 . S
H598 N595 0.984 . S
H599 N595 0.985 . S
H600 N594 0.984 . S
H601 N594 0.984 . S
H602 N590 0.984 . S
H603 N590 0.985 . S
C604 C605 1.363 . S
C604 C610 1.379 . S
C604 N612 1.356 . S
C605 C604 1.363 . S
C605 C611 1.363 . S
C606 C607 1.363 . S
C606 C611 1.379 . S
C606 N613 1.356 . S
C607 C606 1.363 . S
C607 C610 1.363 . S
N608 C610 1.356 . S
N608 H620 0.984 . S
N608 H621 0.985 . S
N609 C611 1.356 . S
N609 H614 0.984 . S
N609 H615 0.985 . S
C610 C604 1.379 . S
C610 C607 1.363 . S
C610 N608 1.356 . S
C611 C605 1.363 . S
C611 C606 1.379 . S
C611 N609 1.356 . S
N612 C604 1.356 . S
N612 H618 0.984 . S
N612 H619 0.984 . S
N613 C606 1.356 . S
N613 H616 0.984 . S
N613 H617 0.985 . S
H614 N609 0.984 . S
H615 N609 0.985 . S
H616 N613 0.984 . S
H617 N613 0.985 . S
H618 N612 0.984 . S
H619 N612 0.984 . S
H620 N608 0.984 . S
H621 N608 0.985 . S
C622 C623 1.363 1_655 S
C622 C628 1.379 . S
C622 N630 1.356 . S
C623 C622 1.363 1_455 S
C623 C629 1.363 . S
C624 C625 1.363 1_455 S
C624 C629 1.379 . S
C624 N631 1.356 . S
C625 C624 1.363 1_655 S
C625 C628 1.363 . S
N626 C628 1.356 . S
N626 H638 0.984 . S
N626 H639 0.985 . S
N627 C629 1.356 . S
N627 H632 0.984 . S
N627 H633 0.985 . S
C628 C622 1.379 . S
C628 C625 1.363 . S
C628 N626 1.356 . S
C629 C623 1.363 . S
C629 C624 1.379 . S
C629 N627 1.356 . S
N630 C622 1.356 . S
N630 H636 0.984 . S
N630 H637 0.984 1_655 S
N631 C624 1.356 . S
N631 H634 0.984 1_455 S
N631 H635 0.985 . S
H632 N627 0.984 . S
H633 N627 0.985 . S
H634 N631 0.984 1_655 S
H635 N631 0.985 . S
H636 N630 0.984 . S
H637 N630 0.984 1_455 S
H638 N626 0.984 . S
H639 N626 0.985 . S
C640 C641 1.363 . S
C640 C646 1.379 1_556 S
C640 N648 1.356 . S
C641 C640 1.363 . S
C641 C647 1.363 1_665 S
C642 C643 1.363 . S
C642 C647 1.379 1_554 S
C642 N649 1.356 . S
C643 C642 1.363 . S
C643 C646 1.363 1_445 S
N644 C646 1.356 . S
N644 H656 0.984 . S
N644 H657 0.985 . S
N645 C647 1.356 . S
N645 H650 0.984 . S
N645 H651 0.985 . S
C646 C640 1.379 1_554 S
C646 C643 1.363 1_665 S
C646 N644 1.356 . S
C647 C641 1.363 1_445 S
C647 C642 1.379 1_556 S
C647 N645 1.356 . S
N648 C640 1.356 . S
N648 H654 0.984 . S
N648 H655 0.984 . S
N649 C642 1.356 . S
N649 H652 0.984 . S
N649 H653 0.985 . S
H650 N645 0.984 . S
H651 N645 0.985 . S
H652 N649 0.984 . S
H653 N649 0.985 . S
H654 N648 0.984 . S
H655 N648 0.984 . S
H656 N644 0.984 . S
H657 N644 0.985 . S
C658 C659 1.363 1_565 S
C658 C664 1.379 1_556 S
C658 N666 1.356 . S
C659 C658 1.363 1_545 S
C659 C665 1.363 . S
C660 C661 1.363 1_545 S
C660 C665 1.379 1_554 S
C660 N667 1.356 . S
C661 C660 1.363 1_565 S
C661 C664 1.363 . S
N662 C664 1.356 . S
N662 H674 0.984 . S
N662 H675 0.985 . S
N663 C665 1.356 . S
N663 H668 0.984 . S
N663 H669 0.985 . S
C664 C658 1.379 1_554 S
C664 C661 1.363 . S
C664 N662 1.356 . S
C665 C659 1.363 . S
C665 C660 1.379 1_556 S
C665 N663 1.356 . S
N666 C658 1.356 . S
N666 H672 0.984 . S
N666 H673 0.984 . S
N667 C660 1.356 . S
N667 H670 0.984 . S
N667 H671 0.985 . S
H668 N663 0.984 . S
H669 N663 0.985 . S
H670 N667 0.984 . S
H671 N667 0.985 . S
H672 N666 0.984 . S
H673 N666 0.984 . S
H674 N662 0.984 . S
H675 N662 0.985 . S
C676 C677 1.363 1_565 S
C676 C682 1.379 . S
C676 N684 1.356 . S
C677 C676 1.363 1_545 S
C677 C683 1.363 . S
C678 C679 1.363 1_545 S
C678 C683 1.379 . S
C678 N685 1.356 . S
C679 C678 1.363 1_565 S
C679 C682 1.363 . S
N680 C682 1.356 . S
N680 H692 0.984 . S
N680 H693 0.985 . S
N681 C683 1.356 . S
N681 H686 0.984 . S
N681 H687 0.985 . S
C682 C676 1.379 . S
C682 C679 1.363 . S
C682 N680 1.356 . S
C683 C677 1.363 . S
C683 C678 1.379 . S
C683 N681 1.356 . S
N684 C676 1.356 . S
N684 H690 0.984 . S
N684 H691 0.984 . S
N685 C678 1.356 . S
N685 H688 0.984 . S
N685 H689 0.985 . S
H686 N681 0.984 . S
H687 N681 0.985 . S
H688 N685 0.984 . S
H689 N685 0.985 . S
H690 N684 0.984 . S
H691 N684 0.984 . S
H692 N680 0.984 . S
H693 N680 0.985 . S
C694 C695 1.363 . S
C694 C700 1.379 . S
C694 N702 1.356 . S
C695 C694 1.363 . S
C695 C701 1.363 1_465 S
C696 C697 1.363 . S
C696 C701 1.379 . S
C696 N703 1.356 . S
C697 C696 1.363 . S
C697 C700 1.363 1_645 S
N698 C700 1.356 . S
N698 H710 0.984 . S
N698 H711 0.985 . S
N699 C701 1.356 . S
N699 H704 0.984 . S
N699 H705 0.985 . S
C700 C694 1.379 . S
C700 C697 1.363 1_465 S
C700 N698 1.356 . S
C701 C695 1.363 1_645 S
C701 C696 1.379 . S
C701 N699 1.356 . S
N702 C694 1.356 . S
N702 H708 0.984 . S
N702 H709 0.984 . S
N703 C696 1.356 . S
N703 H706 0.984 . S
N703 H707 0.985 . S
H704 N699 0.984 . S
H705 N699 0.985 . S
H706 N703 0.984 . S
H707 N703 0.985 . S
H708 N702 0.984 . S
H709 N702 0.984 . S
H710 N698 0.984 . S
H711 N698 0.985 . S
C712 C713 1.363 . S
C712 C718 1.379 1_554 S
C712 N720 1.356 . S
C713 C712 1.363 . S
C713 C719 1.363 . S
C714 C715 1.363 . S
C714 C719 1.379 1_556 S
C714 N721 1.356 . S
C715 C714 1.363 . S
C715 C718 1.363 . S
N716 C718 1.356 . S
N716 H728 0.984 . S
N716 H729 0.985 . S
N717 C719 1.356 . S
N717 H722 0.984 . S
N717 H723 0.985 . S
C718 C712 1.379 1_556 S
C718 C715 1.363 . S
C718 N716 1.356 . S
C719 C713 1.363 . S
C719 C714 1.379 1_554 S
C719 N717 1.356 . S
N720 C712 1.356 . S
N720 H726 0.984 . S
N720 H727 0.984 . S
N721 C714 1.356 . S
N721 H724 0.984 . S
N721 H725 0.985 . S
H722 N717 0.984 . S
H723 N717 0.985 . S
H724 N721 0.984 . S
H725 N721 0.985 . S
H726 N720 0.984 . S
H727 N720 0.984 . S
H728 N716 0.984 . S
H729 N716 0.985 . S
C730 C731 1.363 1_455 S
C730 C736 1.379 1_554 S
C730 N738 1.356 . S
C731 C730 1.363 1_655 S
C731 C737 1.363 . S
C732 C733 1.363 1_655 S
C732 C737 1.379 1_556 S
C732 N739 1.356 . S
C733 C732 1.363 1_455 S
C733 C736 1.363 . S
N734 C736 1.356 . S
N734 H746 0.984 . S
N734 H747 0.985 . S
N735 C737 1.356 . S
N735 H740 0.984 . S
N735 H741 0.985 . S
C736 C730 1.379 1_556 S
C736 C733 1.363 . S
C736 N734 1.356 . S
C737 C731 1.363 . S
C737 C732 1.379 1_554 S
C737 N735 1.356 . S
N738 C730 1.356 . S
N738 H744 0.984 . S
N738 H745 0.984 . S
N739 C732 1.356 . S
N739 H742 0.984 . S
N739 H743 0.985 . S
H740 N735 0.984 . S
H741 N735 0.985 . S
H742 N739 0.984 . S
H743 N739 0.985 . S
H744 N738 0.984 . S
H745 N738 0.984 . S
H746 N734 0.984 . S
H747 N734 0.985 . S
C748 C749 1.363 1_455 S
C748 C754 1.379 . S
C748 N756 1.356 . S
C749 C748 1.363 1_655 S
C749 C755 1.363 . S
C750 C751 1.363 1_655 S
C750 C755 1.379 . S
C750 N757 1.356 . S
C751 C750 1.363 1_455 S
C751 C754 1.363 . S
N752 C754 1.356 . S
N752 H764 0.984 . S
N752 H765 0.985 . S
N753 C755 1.356 . S
N753 H758 0.984 . S
N753 H759 0.985 . S
C754 C748 1.379 . S
C754 C751 1.363 . S
C754 N752 1.356 . S
C755 C749 1.363 . S
C755 C750 1.379 . S
C755 N753 1.356 . S
N756 C748 1.356 . S
N756 H762 0.984 . S
N756 H763 0.984 . S
N757 C750 1.356 . S
N757 H760 0.984 . S
N757 H761 0.985 . S
H758 N753 0.984 . S
H759 N753 0.985 . S
H760 N757 0.984 . S
H761 N757 0.985 . S
H762 N756 0.984 . S
H763 N756 0.984 . S
H764 N752 0.984 . S
H765 N752 0.985 . S
C766 C767 1.363 . S
C766 C772 1.379 . S
C766 N774 1.356 . S
C767 C766 1.363 . S
C767 C773 1.363 . S
C768 C769 1.363 . S
C768 C773 1.379 . S
C768 N775 1.356 . S
C769 C768 1.363 . S
C769 C772 1.363 . S
N770 C772 1.356 . S
N770 H782 0.984 . S
N770 H783 0.985 . S
N771 C773 1.356 . S
N771 H776 0.984 . S
N771 H777 0.985 . S
C772 C766 1.379 . S
C772 C769 1.363 . S
C772 N770 1.356 . S
C773 C767 1.363 . S
C773 C768 1.379 . S
C773 N771 1.356 . S
N774 C766 1.356 . S
N774 H780 0.984 . S
N774 H781 0.984 . S
N775 C768 1.356 . S
N775 H778 0.984 . S
N775 H779 0.985 . S
H776 N771 0.984 . S
H777 N771 0.985 . S
H778 N775 0.984 . S
H779 N775 0.985 . S
H780 N774 0.984 . S
H781 N774 0.984 . S
H782 N770 0.984 . S
H783 N770 0.985 . S
C209 C13 1.458 . S
C211 C0 1.458 . S
C227 C26 1.458 . S
C229 C39 1.458 . S
C245 C52 1.458 . S
C247 C65 1.458 . S
C263 C91 1.458 . S
C265 C78 1.458 . S
C281 C117 1.458 . S
C283 C104 1.458 . S
C299 C143 1.458 . S
C301 C130 1.458 . S
C317 C169 1.458 . S
C319 C156 1.458 . S
C335 C195 1.458 . S
C337 C182 1.458 . S
C353 C49 1.341 . S
C355 C10 1.341 . S
C371 C23 1.341 . S
C373 C36 1.341 . S
C389 C101 1.341 . S
C391 C62 1.341 . S
C407 C88 1.341 . S
C409 C75 1.341 . S
C425 C114 1.341 . S
C427 C153 1.341 . S
C443 C140 1.341 . S
C445 C127 1.341 . S
C461 C205 1.341 . S
C463 C166 1.341 . S
C479 C179 1.341 . S
C481 C192 1.341 . S
C497 C5 1.461 . S
C499 C122 1.461 . S
C515 C18 1.461 . S
C517 C109 1.461 . S
C533 C148 1.461 . S
C535 C31 1.461 . S
C551 C135 1.461 . S
C553 C44 1.461 . S
C569 C174 1.461 . S
C571 C57 1.461 . S
C587 C161 1.461 . S
C589 C70 1.461 . S
C605 C83 1.461 . S
C607 C200 1.461 . S
C623 C96 1.461 . S
C625 C187 1.461 . S
C641 C60 1.174 . S
C643 C8 1.174 . S
C659 C73 1.174 . S
C661 C21 1.174 . S
C677 C86 1.174 . S
C679 C34 1.174 . S
C695 C99 1.174 . S
C697 C47 1.174 . S
C713 C112 1.174 . S
C715 C164 1.174 . S
C731 C125 1.174 . S
C733 C177 1.174 . S
C749 C190 1.174 . S
C751 C138 1.174 . S
C767 C203 1.174 . S
C769 C151 1.174 . S
