# Generated by pormake.
# Topology fna, (5)-cn, num edge types: 1
# Building blocks:
#     Node 0, Type 0, BuildingBlock: BEQFEK_clean_sbu_0, # of connection points: 5
#     Node 1, Type 0, BuildingBlock: BEQFEK_clean_sbu_0, # of connection points: 5
#     Node 2, Type 0, BuildingBlock: BEQFEK_clean_sbu_0, # of connection points: 5
#     Node 3, Type 0, BuildingBlock: BEQFEK_clean_sbu_0, # of connection points: 5
#     Node 4, Type 0, BuildingBlock: BEQFEK_clean_sbu_0, # of connection points: 5
#     Node 5, Type 0, BuildingBlock: BEQFEK_clean_sbu_0, # of connection points: 5
#     Node 6, Type 0, BuildingBlock: BEQFEK_clean_sbu_0, # of connection points: 5
#     Node 7, Type 0, BuildingBlock: BEQFEK_clean_sbu_0, # of connection points: 5
#     Node 8, Type 0, BuildingBlock: BEQFEK_clean_sbu_0, # of connection points: 5
#     Node 9, Type 0, BuildingBlock: BEQFEK_clean_sbu_0, # of connection points: 5
#     Node 10, Type 0, BuildingBlock: BEQFEK_clean_sbu_0, # of connection points: 5
#     Node 11, Type 0, BuildingBlock: BEQFEK_clean_sbu_0, # of connection points: 5
#     Edge 12, Type (0, 0), BuildingBlock: UVAHIK_clean_linker_0, # of connection points: 2
#     Edge 13, Type (0, 0), BuildingBlock: UVAHIK_clean_linker_0, # of connection points: 2
#     Edge 14, Type (0, 0), BuildingBlock: UVAHIK_clean_linker_0, # of connection points: 2
#     Edge 15, Type (0, 0), BuildingBlock: UVAHIK_clean_linker_0, # of connection points: 2
#     Edge 16, Type (0, 0), BuildingBlock: UVAHIK_clean_linker_0, # of connection points: 2
#     Edge 17, Type (0, 0), BuildingBlock: UVAHIK_clean_linker_0, # of connection points: 2
#     Edge 18, Type (0, 0), BuildingBlock: UVAHIK_clean_linker_0, # of connection points: 2
#     Edge 19, Type (0, 0), BuildingBlock: UVAHIK_clean_linker_0, # of connection points: 2
#     Edge 20, Type (0, 0), BuildingBlock: UVAHIK_clean_linker_0, # of connection points: 2
#     Edge 21, Type (0, 0), BuildingBlock: UVAHIK_clean_linker_0, # of connection points: 2
#     Edge 22, Type (0, 0), BuildingBlock: UVAHIK_clean_linker_0, # of connection points: 2
#     Edge 23, Type (0, 0), BuildingBlock: UVAHIK_clean_linker_0, # of connection points: 2
#     Edge 24, Type (0, 0), BuildingBlock: UVAHIK_clean_linker_0, # of connection points: 2
#     Edge 25, Type (0, 0), BuildingBlock: UVAHIK_clean_linker_0, # of connection points: 2
#     Edge 26, Type (0, 0), BuildingBlock: UVAHIK_clean_linker_0, # of connection points: 2
#     Edge 27, Type (0, 0), BuildingBlock: UVAHIK_clean_linker_0, # of connection points: 2
#     Edge 28, Type (0, 0), BuildingBlock: UVAHIK_clean_linker_0, # of connection points: 2
#     Edge 29, Type (0, 0), BuildingBlock: UVAHIK_clean_linker_0, # of connection points: 2
#     Edge 30, Type (0, 0), BuildingBlock: UVAHIK_clean_linker_0, # of connection points: 2
#     Edge 31, Type (0, 0), BuildingBlock: UVAHIK_clean_linker_0, # of connection points: 2
#     Edge 32, Type (0, 0), BuildingBlock: UVAHIK_clean_linker_0, # of connection points: 2
#     Edge 33, Type (0, 0), BuildingBlock: UVAHIK_clean_linker_0, # of connection points: 2
#     Edge 34, Type (0, 0), BuildingBlock: UVAHIK_clean_linker_0, # of connection points: 2
#     Edge 35, Type (0, 0), BuildingBlock: UVAHIK_clean_linker_0, # of connection points: 2
#     Edge 36, Type (0, 0), BuildingBlock: UVAHIK_clean_linker_0, # of connection points: 2
#     Edge 37, Type (0, 0), BuildingBlock: UVAHIK_clean_linker_0, # of connection points: 2
#     Edge 38, Type (0, 0), BuildingBlock: UVAHIK_clean_linker_0, # of connection points: 2
#     Edge 39, Type (0, 0), BuildingBlock: UVAHIK_clean_linker_0, # of connection points: 2
#     Edge 40, Type (0, 0), BuildingBlock: UVAHIK_clean_linker_0, # of connection points: 2
#     Edge 41, Type (0, 0), BuildingBlock: UVAHIK_clean_linker_0, # of connection points: 2
# Relax obj value: 0.677
# Max RMSD: 0.270
# Mean RMSD: 0.270
data_MOF--net-fna--node1-BEQFEK_clean_sbu_0--edge1-UVAHIK_clean_linker_0
_symmetry_space_group_name_H-M    P1
_symmetry_Int_Tables_number       1
_symmetry_cell_setting            triclinic
loop_
_symmetry_equiv_pos_as_xyz
'x, y, z'
_cell_length_a     56.327917
_cell_length_b     56.350319
_cell_length_c     50.32506
_cell_angle_alpha  89.962486
_cell_angle_beta   90.01251
_cell_angle_gamma 120.03066
loop_
_atom_site_label
_atom_site_type_symbol
_atom_site_fract_x
_atom_site_fract_y
_atom_site_fract_z
_atom_type_partial_charge
Co0 Co 0.3476 0.34411 0.48027 0.0
Co1 Co 0.33698 0.31674 0.42402 0.0
C2 C 0.39128 0.36528 0.43864 0.0
O3 O 0.38237 0.3655 0.46174 0.0
O4 O 0.37593 0.34806 0.42112 0.0
C5 C 0.3763 0.37044 0.52815 0.0
O6 O 0.39832 0.37877 0.51348 0.0
C7 C 0.34255 0.28642 0.37863 0.0
C8 C 0.29998 0.26439 0.36364 0.0
C9 C 0.32559 0.26709 0.35997 0.0
N10 N 0.32739 0.29412 0.393 0.0
N11 N 0.30209 0.28119 0.38362 0.0
C12 C 0.3728 0.29821 0.38226 0.0
H13 H 0.37657 0.28821 0.39943 0.0
H14 H 0.38238 0.29534 0.3642 0.0
H15 H 0.3827 0.32042 0.3865 0.0
C16 C 0.33274 0.28868 0.49766 0.0
N17 N 0.33664 0.30675 0.47832 0.0
N18 N 0.33256 0.29479 0.45498 0.0
C19 C 0.32588 0.2684 0.45891 0.0
C20 C 0.32566 0.26372 0.48608 0.0
C21 C 0.33794 0.29603 0.52651 0.0
H22 H 0.32411 0.30348 0.53342 0.0
H23 H 0.35938 0.3129 0.52905 0.0
H24 H 0.33483 0.27851 0.53901 0.0
O25 O 0.31916 0.35049 0.46547 0.0
O26 O 0.3104 0.33058 0.42588 0.0
H27 H 0.30362 0.24778 0.42387 0.0
H28 H 0.31145 0.22694 0.44538 0.0
C29 C 0.31928 0.24787 0.43725 0.0
H30 H 0.33801 0.2537 0.42545 0.0
H31 H 0.28601 0.28317 0.39144 0.0
O32 O 0.35278 0.35586 0.51776 0.0
C33 C 0.30579 0.34377 0.44379 0.0
Co34 Co 0.02495 0.35714 0.65384 0.0
Co35 Co 0.03399 0.33962 0.59777 0.0
C36 C 0.04439 0.39639 0.60863 0.0
O37 O 0.03809 0.3902 0.63284 0.0
O38 O 0.04304 0.37875 0.59191 0.0
C39 C 0.01125 0.38056 0.69644 0.0
O40 O 0.9979 0.3854 0.67777 0.0
C41 C 0.06536 0.34056 0.55099 0.0
C42 C 0.04057 0.2983 0.53577 0.0
C43 C 0.06457 0.32288 0.53134 0.0
N44 N 0.04288 0.32704 0.56622 0.0
N45 N 0.02796 0.30189 0.55682 0.0
C46 C 0.08825 0.36886 0.55702 0.0
H47 H 0.08729 0.37421 0.57805 0.0
H48 H 0.10841 0.37051 0.55302 0.0
H49 H 0.08627 0.38372 0.54407 0.0
C50 C 0.06374 0.33957 0.66948 0.0
N51 N 0.04912 0.34363 0.65081 0.0
N52 N 0.05398 0.33664 0.62735 0.0
C53 C 0.07219 0.32784 0.63055 0.0
C54 C 0.07877 0.32934 0.65736 0.0
C55 C 0.06406 0.34655 0.69823 0.0
H56 H 0.043 0.33455 0.70642 0.0
H57 H 0.0706 0.36861 0.70006 0.0
H58 H 0.07815 0.34231 0.71005 0.0
O59 O 0.98783 0.32907 0.64347 0.0
O60 O 0.9937 0.31499 0.60411 0.0
H61 H 0.06511 0.30247 0.59642 0.0
H62 H 0.09392 0.30767 0.61665 0.0
C63 C 0.08254 0.31748 0.60867 0.0
H64 H 0.09647 0.33486 0.59575 0.0
H65 H 0.00961 0.28693 0.5653 0.0
O66 O 0.02392 0.36793 0.6906 0.0
C67 C 0.97824 0.31347 0.62333 0.0
Co68 Co 0.65415 0.00102 0.81405 0.0
Co69 Co 0.68497 0.02287 0.76005 0.0
C70 C 0.63367 0.02421 0.77255 0.0
O71 O 0.63242 0.01343 0.79499 0.0
O72 O 0.65278 0.02889 0.75616 0.0
C73 C 0.63021 0.00652 0.86097 0.0
O74 O 0.63465 0.02921 0.8492 0.0
C75 C 0.7171 0.06427 0.71948 0.0
C76 C 0.74178 0.04754 0.70233 0.0
C77 C 0.73827 0.07019 0.7017 0.0
N78 N 0.70917 0.0397 0.73061 0.0
N79 N 0.7236 0.02957 0.71985 0.0
C80 C 0.70392 0.0811 0.72541 0.0
H81 H 0.70972 0.08988 0.74567 0.0
H82 H 0.7098 0.09778 0.71068 0.0
H83 H 0.68133 0.06786 0.72494 0.0
C84 C 0.70812 0.04214 0.83568 0.0
N85 N 0.69125 0.02898 0.81517 0.0
N86 N 0.70445 0.03884 0.79262 0.0
C87 C 0.7303 0.05886 0.79825 0.0
C88 C 0.73339 0.0616 0.82565 0.0
C89 C 0.69956 0.03715 0.86425 0.0
H90 H 0.68761 0.01481 0.86818 0.0
H91 H 0.68631 0.04606 0.86844 0.0
H92 H 0.71729 0.04673 0.87797 0.0
O93 O 0.6508 0.96807 0.79767 0.0
O94 O 0.67323 0.98275 0.75945 0.0
H95 H 0.75266 0.05994 0.76343 0.0
H96 H 0.77265 0.08627 0.78738 0.0
C97 C 0.75214 0.07438 0.778 0.0
H98 H 0.74751 0.08878 0.76732 0.0
H99 H 0.72188 0.0109 0.72531 0.0
O100 O 0.63782 0.99127 0.84972 0.0
C101 C 0.65953 0.96353 0.77606 0.0
Co102 Co 0.65018 0.65747 0.97949 0.0
Co103 Co 0.66145 0.68703 0.92437 0.0
C104 C 0.6067 0.63941 0.93753 0.0
O105 O 0.61565 0.63817 0.96029 0.0
O106 O 0.62221 0.6569 0.92031 0.0
C107 C 0.61913 0.63905 0.02599 0.0
O108 O 0.60383 0.64629 0.01244 0.0
C109 C 0.65694 0.71837 0.87929 0.0
C110 C 0.70019 0.74253 0.86651 0.0
C111 C 0.6743 0.73871 0.86161 0.0
N112 N 0.67208 0.71111 0.89429 0.0
N113 N 0.69783 0.72535 0.88625 0.0
C114 C 0.62638 0.70508 0.88127 0.0
H115 H 0.61722 0.68255 0.88243 0.0
H116 H 0.62087 0.71201 0.8997 0.0
H117 H 0.61749 0.7098 0.86379 0.0
C118 C 0.66877 0.71338 -0.00088 0.0
N119 N 0.66306 0.69539 0.97922 0.0
N120 N 0.66619 0.70783 0.95624 0.0
C121 C 0.67325 0.73417 0.96101 0.0
C122 C 0.67527 0.73851 0.98831 0.0
C123 C 0.66642 0.7062 0.02803 0.0
H124 H 0.64462 0.69658 0.03411 0.0
H125 H 0.67843 0.72455 0.04058 0.0
H126 H 0.67369 0.69146 0.03158 0.0
O127 O 0.67776 0.65012 0.9643 0.0
O128 O 0.68711 0.67188 0.92554 0.0
H129 H 0.68347 0.77503 0.94865 0.0
H130 H 0.65947 0.74739 0.92757 0.0
C131 C 0.67814 0.75487 0.93995 0.0
H132 H 0.69515 0.75748 0.92694 0.0
H133 H 0.71395 0.7239 0.89477 0.0
O134 O 0.6413 0.64257 0.01579 0.0
C135 C 0.69118 0.65754 0.94264 0.0
Co136 Co 0.99622 0.65389 0.14095 0.0
Co137 Co 0.97484 0.66275 0.08649 0.0
C138 C 0.9752 0.6108 0.09894 0.0
O139 O 0.98534 0.62043 0.12153 0.0
O140 O 0.96996 0.62478 0.08243 0.0
C141 C 0.99252 0.62399 0.18753 0.0
O142 O 0.97377 0.60337 0.17367 0.0
C143 C 0.93533 0.65435 0.04345 0.0
C144 C 0.95371 0.69629 0.02711 0.0
C145 C 0.93127 0.67015 0.02469 0.0
N146 N 0.9588 0.67064 0.05662 0.0
N147 N 0.96979 0.69558 0.04649 0.0
C148 C 0.9179 0.62414 0.04812 0.0
H149 H 0.9309 0.61515 0.05293 0.0
H150 H 0.90408 0.62043 0.06523 0.0
H151 H 0.90539 0.61363 0.03034 0.0
C152 C 0.95426 0.66544 0.16176 0.0
N153 N 0.96774 0.66215 0.14132 0.0
N154 N 0.95788 0.66536 0.11872 0.0
C155 C 0.9375 0.67068 0.12426 0.0
C156 C 0.93466 0.67096 0.15169 0.0
C157 C 0.95917 0.66178 0.19033 0.0
H158 H 0.98131 0.67466 0.19494 0.0
H159 H 0.95314 0.64004 0.19375 0.0
H160 H 0.94718 0.66712 0.20404 0.0
O161 O 0.02923 0.68378 0.12528 0.0
O162 O 0.01495 0.69191 0.08696 0.0
H163 H 0.93608 0.69221 0.0898 0.0
H164 H 0.90861 0.68367 0.11321 0.0
C165 C 0.9217 0.67643 0.10388 0.0
H166 H 0.90847 0.65746 0.09254 0.0
H167 H 0.988 0.71231 0.05326 0.0
O168 O 0.00486 0.64779 0.17726 0.0
C169 C 0.03393 0.69728 0.10381 0.0
Co170 Co 0.34247 0.99954 0.31667 0.0
Co171 Co 0.31076 0.97786 0.26296 0.0
C172 C 0.3639 0.98015 0.27169 0.0
O173 O 0.36487 0.99047 0.29431 0.0
O174 O 0.34361 0.97342 0.25617 0.0
C175 C 0.3663 0.98879 0.35994 0.0
O176 O 0.36066 0.96751 0.34496 0.0
C177 C 0.28028 0.94279 0.2169 0.0
C178 C 0.24808 0.95389 0.21193 0.0
C179 C 0.25671 0.93638 0.20244 0.0
N180 N 0.28476 0.9626 0.2345 0.0
N181 N 0.26569 0.96943 0.23105 0.0
C182 C 0.29886 0.93114 0.21363 0.0
H183 H 0.29536 0.91671 0.23016 0.0
H184 H 0.29546 0.92042 0.19433 0.0
H185 H 0.3205 0.94785 0.21448 0.0
C186 C 0.29052 0.95541 0.33846 0.0
N187 N 0.30623 0.9701 0.31787 0.0
N188 N 0.29303 0.95966 0.29548 0.0
C189 C 0.26854 0.93735 0.30124 0.0
C190 C 0.26624 0.93391 0.32872 0.0
C191 C 0.29803 0.96269 0.36704 0.0
H192 H 0.3107 0.98523 0.36934 0.0
H193 H 0.30997 0.95313 0.37408 0.0
H194 H 0.27941 0.95504 0.37959 0.0
O195 O 0.34362 0.03245 0.30344 0.0
O196 O 0.32168 0.01794 0.26494 0.0
H197 H 0.23845 0.92904 0.27137 0.0
H198 H 0.23285 0.89908 0.28967 0.0
C199 C 0.24867 0.91872 0.28081 0.0
H200 H 0.25982 0.91436 0.26519 0.0
H201 H 0.26417 0.98409 0.24243 0.0
O202 O 0.35976 0.00614 0.35189 0.0
C203 C 0.33448 0.0369 0.28205 0.0
Co204 Co 0.66097 0.65492 0.3474 0.0
Co205 Co 0.69276 0.66492 0.4009 0.0
C206 C 0.64088 0.61261 0.39069 0.0
O207 O 0.63953 0.62188 0.36812 0.0
O208 O 0.66045 0.62699 0.40669 0.0
C209 C 0.63793 0.62349 0.30148 0.0
O210 O 0.64453 0.60697 0.31365 0.0
C211 C 0.72343 0.6596 0.44643 0.0
C212 C 0.75171 0.70325 0.45571 0.0
C213 C 0.74494 0.67692 0.46305 0.0
N214 N 0.71815 0.67512 0.42979 0.0
N215 N 0.73496 0.70116 0.43567 0.0
C216 C 0.70719 0.62893 0.44707 0.0
H217 H 0.71238 0.62061 0.42944 0.0
H218 H 0.71113 0.62058 0.46545 0.0
H219 H 0.68502 0.62199 0.44616 0.0
C220 C 0.71373 0.66515 0.32521 0.0
N221 N 0.69776 0.6633 0.34587 0.0
N222 N 0.71112 0.66626 0.36822 0.0
C223 C 0.73604 0.66959 0.36233 0.0
C224 C 0.73837 0.66878 0.33484 0.0
C225 C 0.70604 0.66452 0.29663 0.0
H226 H 0.69279 0.67373 0.29426 0.0
H227 H 0.69471 0.64296 0.28968 0.0
H228 H 0.72458 0.67591 0.28405 0.0
O229 O 0.65824 0.68535 0.36217 0.0
O230 O 0.68109 0.69344 0.40012 0.0
H231 H 0.76409 0.69122 0.39378 0.0
H232 H 0.77396 0.67111 0.37347 0.0
C233 C 0.7564 0.67174 0.38267 0.0
H234 H 0.74619 0.65463 0.39703 0.0
H235 H 0.7353 0.71755 0.42566 0.0
O236 O 0.64378 0.64619 0.31216 0.0
C237 C 0.66743 0.69898 0.38351 0.0
Co238 Co 0.00325 0.65511 0.51643 0.0
Co239 Co 0.02479 0.68558 0.57048 0.0
C240 C 0.02536 0.63374 0.55803 0.0
O241 O 0.01459 0.63256 0.53559 0.0
O242 O 0.03067 0.6532 0.57421 0.0
C243 C 0.0036 0.62682 0.4696 0.0
O244 O 0.0203 0.6217 0.48344 0.0
C245 C 0.0669 0.71853 0.6096 0.0
C246 C 0.04609 0.73495 0.63448 0.0
C247 C 0.07075 0.73548 0.63111 0.0
N248 N 0.04122 0.70864 0.60054 0.0
N249 N 0.02879 0.71831 0.61563 0.0
C250 C 0.08655 0.71044 0.59865 0.0
H251 H 0.08024 0.70176 0.57839 0.0
H252 H 0.10776 0.72805 0.59816 0.0
H253 H 0.08647 0.69455 0.61175 0.0
C254 C 0.04531 0.70844 0.49514 0.0
N255 N 0.03174 0.69194 0.51573 0.0
N256 N 0.04115 0.70545 0.53819 0.0
C257 C 0.06105 0.73132 0.53236 0.0
C258 C 0.06432 0.73397 0.50494 0.0
C259 C 0.04126 0.69914 0.46679 0.0
H260 H 0.04519 0.6818 0.46493 0.0
H261 H 0.0552 0.7156 0.45303 0.0
H262 H 0.01969 0.69174 0.4609 0.0
O263 O 0.9703 0.65209 0.5325 0.0
O264 O 0.98474 0.67403 0.57094 0.0
H265 H 0.06176 0.752 0.56843 0.0
H266 H 0.08482 0.77412 0.5429 0.0
C267 C 0.07591 0.75361 0.55234 0.0
H268 H 0.09289 0.7516 0.56105 0.0
H269 H 0.00864 0.71393 0.61279 0.0
O270 O 0.99388 0.64068 0.48003 0.0
C271 C 0.96564 0.66061 0.55417 0.0
Co272 Co 0.35157 0.00786 0.67891 0.0
Co273 Co 0.33786 0.02935 0.73067 0.0
C274 C 0.39294 0.03545 0.72223 0.0
O275 O 0.38515 0.02415 0.69968 0.0
O276 O 0.37667 0.03833 0.73773 0.0
C277 C 0.38389 0.01762 0.63348 0.0
O278 O 0.39849 0.04152 0.64513 0.0
C279 C 0.33977 0.06325 0.77657 0.0
C280 C 0.29575 0.0495 0.78147 0.0
C281 C 0.32148 0.06747 0.79161 0.0
N282 N 0.32543 0.04397 0.75818 0.0
N283 N 0.29914 0.03572 0.76139 0.0
C284 C 0.37006 0.0759 0.78046 0.0
H285 H 0.38092 0.08912 0.76315 0.0
H286 H 0.37714 0.08803 0.79904 0.0
H287 H 0.37544 0.0595 0.78152 0.0
C288 C 0.33639 0.04583 0.65392 0.0
N289 N 0.33942 0.0334 0.67541 0.0
N290 N 0.33566 0.04424 0.69704 0.0
C291 C 0.33089 0.06459 0.68987 0.0
C292 C 0.3313 0.06632 0.66224 0.0
C293 C 0.33734 0.03758 0.62583 0.0
H294 H 0.3298 0.01528 0.62472 0.0
H295 H 0.35878 0.04891 0.61853 0.0
H296 H 0.32461 0.04258 0.6127 0.0
O297 O 0.3234 0.97377 0.69504 0.0
O298 O 0.31168 0.98869 0.73079 0.0
H299 H 0.30742 0.07263 0.71798 0.0
H300 H 0.33154 0.10241 0.69931 0.0
C301 C 0.32825 0.08336 0.70913 0.0
H302 H 0.3434 0.08879 0.72538 0.0
H303 H 0.28351 0.02085 0.74965 0.0
O304 O 0.36184 0.99949 0.64433 0.0
C305 C 0.30874 0.96925 0.71566 0.0
Co306 Co 0.34652 0.34181 0.85753 0.0
Co307 Co 0.31401 0.33282 0.91037 0.0
C308 C 0.36529 0.38571 0.89888 0.0
O309 O 0.36739 0.37578 0.87699 0.0
O310 O 0.34553 0.37154 0.91479 0.0
C311 C 0.37207 0.37177 0.8109 0.0
O312 O 0.37091 0.3914 0.82385 0.0
C313 C 0.28008 0.33979 0.95082 0.0
C314 C 0.26142 0.29979 0.97134 0.0
C315 C 0.26176 0.32458 0.97107 0.0
N316 N 0.28968 0.32447 0.93982 0.0
N317 N 0.27867 0.30073 0.95238 0.0
C318 C 0.28725 0.36752 0.94058 0.0
H319 H 0.29697 0.37112 0.92069 0.0
H320 H 0.26865 0.36951 0.93931 0.0
H321 H 0.30207 0.38342 0.95434 0.0
C322 C 0.29375 0.32947 0.83408 0.0
N323 N 0.3094 0.33238 0.85537 0.0
N324 N 0.29519 0.329 0.87724 0.0
C325 C 0.26979 0.32379 0.87028 0.0
C326 C 0.2683 0.32436 0.84269 0.0
C327 C 0.30277 0.33099 0.80583 0.0
H328 H 0.31585 0.3528 0.80008 0.0
H329 H 0.28496 0.3213 0.79213 0.0
H330 H 0.31482 0.32045 0.80372 0.0
O331 O 0.34995 0.31246 0.87402 0.0
O332 O 0.32651 0.30496 0.91152 0.0
H333 H 0.22738 0.30989 0.87994 0.0
H334 H 0.25222 0.33995 0.8972 0.0
C335 C 0.24783 0.31973 0.88952 0.0
H336 H 0.24739 0.30691 0.90642 0.0
H337 H 0.28252 0.28494 0.94765 0.0
O338 O 0.36281 0.34845 0.82182 0.0
C339 C 0.3407 0.29938 0.89564 0.0
Co340 Co 0.99477 0.3453 0.01506 0.0
Co341 Co 0.97203 0.30947 0.06655 0.0
C342 C 0.96722 0.35921 0.05847 0.0
O343 O 0.97894 0.36295 0.0361 0.0
O344 O 0.96356 0.33962 0.07378 0.0
C345 C 0.98975 0.37336 0.97057 0.0
O346 O 0.96845 0.37055 0.98389 0.0
C347 C 0.94049 0.27878 0.11437 0.0
C348 C 0.94309 0.24113 0.11041 0.0
C349 C 0.93108 0.25287 0.12554 0.0
N350 N 0.95634 0.28147 0.09324 0.0
N351 N 0.95832 0.25915 0.09145 0.0
C352 C 0.93639 0.30145 0.12443 0.0
H353 H 0.91875 0.30085 0.11396 0.0
H354 H 0.93259 0.29963 0.14616 0.0
H355 H 0.95491 0.32154 0.12044 0.0
C356 C 0.95576 0.2932 0.98942 0.0
N357 N 0.96841 0.30799 0.01119 0.0
N358 N 0.95698 0.2932 0.03261 0.0
C359 C 0.93593 0.26861 0.02498 0.0
C360 C 0.93459 0.26778 0.99736 0.0
C361 C 0.96424 0.30314 0.96155 0.0
H362 H 0.98686 0.31615 0.96037 0.0
H363 H 0.95491 0.3156 0.95553 0.0
H364 H 0.95742 0.28574 0.94751 0.0
O365 O 0.02833 0.34984 0.03126 0.0
O366 O 0.01255 0.32298 0.06683 0.0
H367 H 0.92309 0.23336 0.04957 0.0
H368 H 0.89538 0.23514 0.03386 0.0
C369 C 0.91565 0.24745 0.04359 0.0
H370 H 0.91316 0.25735 0.06157 0.0
H371 H 0.9693 0.25584 0.07664 0.0
O372 O 0.0041 0.3638 0.98024 0.0
C373 C 0.03232 0.33916 0.05179 0.0
Co374 Co 0.64384 0.98656 0.17968 0.0
Co375 Co 0.65974 0.97134 0.23406 0.0
C376 C 0.60485 0.96588 0.22557 0.0
O377 O 0.61165 0.97427 0.20192 0.0
O378 O 0.62155 0.96423 0.24151 0.0
C379 C 0.60902 0.97181 0.13551 0.0
O380 O 0.59444 0.94999 0.15026 0.0
C381 C 0.6582 0.93805 0.28024 0.0
C382 C 0.70237 0.95608 0.28887 0.0
C383 C 0.67666 0.93526 0.29648 0.0
N384 N 0.67246 0.95912 0.26347 0.0
N385 N 0.69882 0.97002 0.26903 0.0
C386 C 0.62751 0.92181 0.28115 0.0
H387 H 0.6197 0.90865 0.26323 0.0
H388 H 0.61996 0.909 0.2993 0.0
H389 H 0.61919 0.93593 0.28099 0.0
C390 C 0.65713 0.94561 0.1597 0.0
N391 N 0.65474 0.96009 0.17966 0.0
N392 N 0.66027 0.95232 0.20239 0.0
C393 C 0.66592 0.93203 0.19744 0.0
C394 C 0.66382 0.92703 0.17021 0.0
C395 C 0.65469 0.95055 0.13083 0.0
H396 H 0.66222 0.9726 0.12724 0.0
H397 H 0.63287 0.93849 0.12476 0.0
H398 H 0.66669 0.94406 0.11837 0.0
O399 O 0.67414 0.02174 0.19136 0.0
O400 O 0.6864 0.0118 0.22985 0.0
H401 H 0.69139 0.93149 0.22861 0.0
H402 H 0.67392 0.89988 0.20993 0.0
C403 C 0.67201 0.91701 0.2184 0.0
H404 H 0.65535 0.90872 0.23337 0.0
H405 H 0.71446 0.98653 0.25873 0.0
O406 O 0.63196 0.99073 0.14411 0.0
C407 C 0.68964 0.02899 0.21167 0.0
C408 C 0.30855 0.09276 0.64752 0.0
C409 C 0.33 0.08703 0.64514 0.0
C410 C 0.30679 0.11118 0.63 0.0
C411 C 0.34839 0.16681 0.58174 0.0
H412 H 0.27762 0.15041 0.55378 0.0
C413 C 0.33991 0.22921 0.49569 0.0
C414 C 0.32169 0.23893 0.50001 0.0
C415 C 0.33919 0.20883 0.51213 0.0
C416 C 0.2975 0.15529 0.56151 0.0
H417 H 0.36689 0.09664 0.62335 0.0
H418 H 0.36349 0.12792 0.59243 0.0
H419 H 0.28028 0.11961 0.58635 0.0
H420 H 0.2875 0.23425 0.52358 0.0
H421 H 0.28596 0.19838 0.55225 0.0
H422 H 0.36562 0.2023 0.55677 0.0
C423 C 0.34813 0.11862 0.60787 0.0
C424 C 0.29904 0.13775 0.58029 0.0
C425 C 0.34992 0.1004 0.62539 0.0
C426 C 0.3017 0.22693 0.51994 0.0
C427 C 0.30082 0.20642 0.53627 0.0
C428 C 0.34687 0.18417 0.56287 0.0
C429 C 0.32649 0.12419 0.60981 0.0
C430 C 0.32454 0.14325 0.59057 0.0
C431 C 0.32007 0.19771 0.53302 0.0
C432 C 0.32144 0.17859 0.55247 0.0
H433 H 0.29289 0.08261 0.66257 0.0
H434 H 0.29004 0.11525 0.63231 0.0
H435 H 0.36833 0.17205 0.5896 0.0
H436 H 0.35555 0.2383 0.48046 0.0
H437 H 0.35403 0.20225 0.50893 0.0
C438 C 0.0889 0.30193 0.68931 0.0
C439 C 0.0984 0.32328 0.67068 0.0
C440 C 0.10727 0.29979 0.70645 0.0
C441 C 0.17161 0.34441 0.73966 0.0
H442 H 0.17124 0.27772 0.75945 0.0
C443 C 0.25386 0.34624 0.8084 0.0
C444 C 0.24679 0.32421 0.82575 0.0
C445 C 0.23502 0.34532 0.78988 0.0
C446 C 0.1713 0.29645 0.75448 0.0
H447 H 0.13422 0.35845 0.65435 0.0
H448 H 0.16657 0.35488 0.68446 0.0
H449 H 0.14063 0.27648 0.72432 0.0
H450 H 0.21443 0.28409 0.83782 0.0
H451 H 0.18076 0.28278 0.80605 0.0
H452 H 0.2015 0.36435 0.77013 0.0
C453 C 0.14497 0.33976 0.68578 0.0
C454 C 0.15393 0.29574 0.7342 0.0
C455 C 0.1266 0.34166 0.66842 0.0
C456 C 0.22019 0.30148 0.82485 0.0
C457 C 0.20113 0.30061 0.80638 0.0
C458 C 0.18868 0.34507 0.7601 0.0
C459 C 0.13537 0.31928 0.70548 0.0
C460 C 0.15413 0.31979 0.72644 0.0
C461 C 0.20845 0.32239 0.78841 0.0
C462 C 0.18898 0.32117 0.76764 0.0
H463 H 0.06711 0.28779 0.69152 0.0
H464 H 0.09929 0.28393 0.72152 0.0
H465 H 0.17172 0.36314 0.73453 0.0
H466 H 0.27433 0.36397 0.8087 0.0
H467 H 0.24166 0.36229 0.77616 0.0
C468 C 0.76676 0.11026 0.83694 0.0
C469 C 0.75721 0.08228 0.84085 0.0
C470 C 0.78757 0.12983 0.85304 0.0
C471 C 0.81915 0.13696 0.91902 0.0
H472 H 0.87439 0.20759 0.89158 0.0
C473 C 0.90781 0.21844 0.98367 0.0
C474 C 0.91415 0.24571 0.98014 0.0
C475 C 0.88935 0.19789 0.96657 0.0
C476 C 0.85895 0.18803 0.89958 0.0
H477 H 0.76261 0.05264 0.86341 0.0
H478 H 0.79928 0.08682 0.89149 0.0
H479 H 0.84191 0.17289 0.8611 0.0
H480 H 0.90542 0.27276 0.95683 0.0
H481 H 0.87333 0.23702 0.92692 0.0
H482 H 0.83616 0.15221 0.95752 0.0
C483 C 0.79033 0.0937 0.87645 0.0
C484 C 0.84034 0.16814 0.88211 0.0
C485 C 0.76949 0.07416 0.86035 0.0
C486 C 0.90132 0.25199 0.95962 0.0
C487 C 0.88298 0.23152 0.94249 0.0
C488 C 0.83782 0.15684 0.93648 0.0
C489 C 0.79931 0.12176 0.87329 0.0
C490 C 0.82005 0.14244 0.89164 0.0
C491 C 0.87694 0.20427 0.94561 0.0
C492 C 0.85777 0.1827 0.92699 0.0
H493 H 0.75746 0.11691 0.82202 0.0
H494 H 0.79378 0.15122 0.85021 0.0
H495 H 0.80352 0.11755 0.92711 0.0
H496 H 0.91757 0.21314 -0.00072 0.0
H497 H 0.88525 0.17711 0.96939 0.0
C498 C 0.65909 0.77033 0.00242 0.0
C499 C 0.67929 0.76278 0.00317 0.0
C500 C 0.66037 0.79023 0.01986 0.0
C501 C 0.68974 0.82147 0.08505 0.0
H502 H 0.66231 0.87004 0.06608 0.0
C503 C 0.69018 0.90426 0.15547 0.0
C504 C 0.66608 0.9058 0.15503 0.0
C505 C 0.69355 0.88706 0.13761 0.0
C506 C 0.6699 0.85647 0.0717 0.0
H507 H 0.71732 0.77072 0.02142 0.0
H508 H 0.72011 0.80613 0.05154 0.0
H509 H 0.66652 0.84172 0.03196 0.0
H510 H 0.62604 0.88966 0.13698 0.0
H511 H 0.63184 0.85977 0.1059 0.0
H512 H 0.69314 0.83646 0.12487 0.0
C513 C 0.70292 0.79633 0.038 0.0
C514 C 0.67229 0.84022 0.05215 0.0
C515 C 0.70152 0.77632 0.02062 0.0
C516 C 0.64493 0.889 0.13747 0.0
C517 C 0.64832 0.87205 0.11961 0.0
C518 C 0.68755 0.83793 0.10459 0.0
C519 C 0.68199 0.80305 0.0383 0.0
C520 C 0.68179 0.82215 0.05863 0.0
C521 C 0.67291 0.87141 0.11899 0.0
C522 C 0.67711 0.85521 0.09819 0.0
H523 H 0.64162 0.75987 0.98926 0.0
H524 H 0.64371 0.7946 0.0197 0.0
H525 H 0.6968 0.80753 0.09086 0.0
H526 H 0.70685 0.91725 0.16871 0.0
H527 H 0.71271 0.88694 0.13756 0.0
C528 C 0.92305 0.69542 0.18603 0.0
C529 C 0.9143 0.67431 0.16723 0.0
C530 C 0.90434 0.69612 0.2038 0.0
C531 C 0.83893 0.64958 0.23614 0.0
H532 H 0.83952 0.71608 0.25711 0.0
C533 C 0.75355 0.64767 0.30032 0.0
C534 C 0.76036 0.66871 0.31883 0.0
C535 C 0.77328 0.64865 0.2829 0.0
C536 C 0.83938 0.69739 0.25179 0.0
H537 H 0.87929 0.63813 0.1512 0.0
H538 H 0.84632 0.63933 0.18219 0.0
H539 H 0.87127 0.71808 0.22292 0.0
H540 H 0.79316 0.70692 0.33433 0.0
H541 H 0.82815 0.70849 0.30412 0.0
H542 H 0.80732 0.62887 0.26507 0.0
C543 C 0.86767 0.65519 0.18343 0.0
C544 C 0.85746 0.69853 0.23208 0.0
C545 C 0.8864 0.65463 0.16554 0.0
C546 C 0.78752 0.69038 0.32028 0.0
C547 C 0.80738 0.6914 0.30279 0.0
C548 C 0.82098 0.64846 0.2559 0.0
C549 C 0.87655 0.67559 0.20315 0.0
C550 C 0.85726 0.67458 0.22388 0.0
C551 C 0.80038 0.67069 0.28364 0.0
C552 C 0.82078 0.6723 0.26383 0.0
H553 H 0.94457 0.71075 0.18763 0.0
H554 H 0.91186 0.71201 0.21881 0.0
H555 H 0.83869 0.63087 0.2307 0.0
H556 H 0.73273 0.63066 0.29894 0.0
H557 H 0.767 0.63251 0.26828 0.0
C558 C 0.21667 0.9047 0.34142 0.0
C559 C 0.24416 0.91167 0.34458 0.0
C560 C 0.19639 0.88532 0.35825 0.0
C561 C 0.18328 0.82999 0.40673 0.0
H562 H 0.12684 0.84407 0.43319 0.0
C563 C 0.11283 0.76812 0.4936 0.0
C564 C 0.08473 0.75771 0.48939 0.0
C565 C 0.13211 0.78796 0.47646 0.0
C566 C 0.14239 0.8398 0.42585 0.0
H567 H 0.27197 0.90328 0.36697 0.0
H568 H 0.23702 0.87021 0.39669 0.0
H569 H 0.16019 0.87534 0.40086 0.0
H570 H 0.05457 0.76067 0.4652 0.0
H571 H 0.08824 0.79559 0.43528 0.0
H572 H 0.16571 0.7947 0.43201 0.0
C573 C 0.2308 0.87926 0.38115 0.0
C574 C 0.16142 0.85762 0.4072 0.0
C575 C 0.25093 0.89845 0.3643 0.0
C576 C 0.0762 0.76842 0.46869 0.0
C577 C 0.09545 0.78841 0.45168 0.0
C578 C 0.16442 0.81235 0.4255 0.0
C579 C 0.20329 0.8726 0.37855 0.0
C580 C 0.1822 0.85301 0.39748 0.0
C581 C 0.12359 0.79793 0.45499 0.0
C582 C 0.14383 0.8171 0.43536 0.0
H583 H 0.21098 0.91474 0.32642 0.0
H584 H 0.17536 0.88041 0.35543 0.0
H585 H 0.19862 0.82545 0.39933 0.0
H586 H 0.11981 0.76009 0.50946 0.0
H587 H 0.15367 0.7952 0.47973 0.0
C588 C 0.31635 0.23928 0.31852 0.0
C589 C 0.33126 0.2495 0.34225 0.0
C590 C 0.31917 0.22013 0.30319 0.0
C591 C 0.31379 0.1641 0.29095 0.0
H592 H 0.38412 0.16846 0.28092 0.0
C593 C 0.3576 0.08654 0.29328 0.0
C594 C 0.33801 0.06451 0.27808 0.0
C595 C 0.35902 0.11191 0.29262 0.0
C596 C 0.36431 0.16695 0.28345 0.0
H597 H 0.36 0.24657 0.36891 0.0
H598 H 0.36579 0.21431 0.34172 0.0
H599 H 0.38247 0.2087 0.29625 0.0
H600 H 0.30546 0.05226 0.24909 0.0
H601 H 0.30791 0.09697 0.24794 0.0
H602 H 0.29555 0.12189 0.2799 0.0
C603 C 0.3524 0.22159 0.33464 0.0
C604 C 0.3634 0.18999 0.29217 0.0
C605 C 0.34928 0.24038 0.35013 0.0
C606 C 0.32075 0.06886 0.26106 0.0
C607 C 0.32205 0.09438 0.26052 0.0
C608 C 0.31469 0.14094 0.28244 0.0
C609 C 0.33708 0.21095 0.31124 0.0
C610 C 0.33813 0.18849 0.29696 0.0
C611 C 0.34085 0.11601 0.27675 0.0
C612 C 0.33996 0.14181 0.27965 0.0
H613 H 0.30205 0.24568 0.3121 0.0
H614 H 0.30704 0.21215 0.28529 0.0
H615 H 0.29402 0.16233 0.29461 0.0
H616 H 0.37136 0.08397 0.30645 0.0
H617 H 0.37348 0.12789 0.30568 0.0
C618 C 0.26275 0.33636 0.42107 0.0
C619 C 0.28273 0.34918 0.44096 0.0
C620 C 0.23867 0.3379 0.42157 0.0
C621 C 0.20481 0.37183 0.4569 0.0
H622 H 0.13944 0.30076 0.44869 0.0
C623 C 0.10127 0.35207 0.49848 0.0
C624 C 0.08629 0.3272 0.51223 0.0
C625 C 0.12309 0.35647 0.48194 0.0
C626 C 0.15748 0.32078 0.45114 0.0
H627 H 0.29402 0.37545 0.47571 0.0
H628 H 0.2523 0.37755 0.47698 0.0
H629 H 0.18332 0.30735 0.43375 0.0
H630 H 0.08148 0.28703 0.51869 0.0
H631 H 0.11993 0.29489 0.49085 0.0
H632 H 0.17945 0.38459 0.47642 0.0
C633 C 0.25503 0.36655 0.46074 0.0
C634 C 0.18266 0.32471 0.44212 0.0
C635 C 0.27899 0.3651 0.46018 0.0
C636 C 0.09271 0.30641 0.5083 0.0
C637 C 0.11468 0.3109 0.49211 0.0
C638 C 0.17971 0.36779 0.4663 0.0
C639 C 0.23415 0.35229 0.44197 0.0
C640 C 0.20684 0.34998 0.44589 0.0
C641 C 0.13049 0.33616 0.47903 0.0
C642 C 0.1559 0.34188 0.46451 0.0
H643 H 0.26507 0.32406 0.40587 0.0
H644 H 0.22322 0.32704 0.40653 0.0
H645 H 0.22288 0.39179 0.45952 0.0
H646 H 0.09623 0.36816 0.50058 0.0
H647 H 0.13438 0.37595 0.47176 0.0
C648 C 0.76562 0.12153 0.70168 0.0
C649 C 0.75738 0.09656 0.68866 0.0
C650 C 0.78615 0.14612 0.69094 0.0
C651 C 0.82884 0.17844 0.63069 0.0
H652 H 0.88044 0.22762 0.6831 0.0
C653 C 0.93955 0.26786 0.60827 0.0
C654 C 0.94909 0.29157 0.62394 0.0
C655 C 0.91343 0.24518 0.61271 0.0
C656 C 0.86603 0.21435 0.66819 0.0
H657 H 0.76433 0.0778 0.65422 0.0
H658 H 0.8009 0.12077 0.63579 0.0
H659 H 0.84014 0.18593 0.69758 0.0
H660 H 0.93781 0.31103 0.65476 0.0
H661 H 0.89241 0.2718 0.66218 0.0
H662 H 0.85569 0.20687 0.60127 0.0
C663 C 0.79084 0.12144 0.65387 0.0
C664 C 0.84282 0.19041 0.67651 0.0
C665 C 0.77001 0.09679 0.66451 0.0
C666 C 0.93127 0.29292 0.64264 0.0
C667 C 0.90527 0.2704 0.64697 0.0
C668 C 0.85232 0.20246 0.62232 0.0
C669 C 0.79954 0.14635 0.66727 0.0
C670 C 0.82383 0.17216 0.65792 0.0
C671 C 0.89648 0.24593 0.63282 0.0
C672 C 0.87108 0.22071 0.64105 0.0
H673 H 0.75728 0.12211 0.72087 0.0
H674 H 0.79208 0.16493 0.70167 0.0
H675 H 0.81456 0.1649 0.61585 0.0
H676 H 0.95279 0.26621 0.5937 0.0
H677 H 0.9072 0.22657 0.6015 0.0
C678 C 0.63555 0.91374 0.78687 0.0
C679 C 0.65545 0.93574 0.77184 0.0
C680 C 0.63458 0.88855 0.78709 0.0
C681 C 0.68114 0.86154 0.78018 0.0
H682 H 0.61482 0.79299 0.79573 0.0
C683 C 0.68354 0.76632 0.81999 0.0
C684 C 0.66838 0.75589 0.84355 0.0
C685 C 0.68004 0.78477 0.80414 0.0
C686 C 0.6335 0.81193 0.79122 0.0
H687 H 0.68871 0.94797 0.7437 0.0
H688 H 0.68693 0.90361 0.74394 0.0
H689 H 0.61146 0.83165 0.77832 0.0
H690 H 0.63865 0.75781 0.86954 0.0
H691 H 0.63177 0.78895 0.84148 0.0
H692 H 0.70312 0.84198 0.79388 0.0
C693 C 0.67228 0.90608 0.75584 0.0
C694 C 0.63161 0.83409 0.78129 0.0
C695 C 0.67318 0.9314 0.75553 0.0
C696 C 0.64959 0.76422 0.85087 0.0
C697 C 0.64583 0.78232 0.83488 0.0
C698 C 0.68302 0.83927 0.78988 0.0
C699 C 0.6535 0.88464 0.77228 0.0
C700 C 0.65541 0.85953 0.77674 0.0
C701 C 0.66124 0.79306 0.81153 0.0
C702 C 0.65921 0.81462 0.79648 0.0
H703 H 0.62143 0.91632 0.79951 0.0
H704 H 0.62003 0.87272 0.80023 0.0
H705 H 0.6999 0.88085 0.77715 0.0
H706 H 0.69843 0.76054 0.81403 0.0
H707 H 0.69226 0.79282 0.7863 0.0
C708 C 0.73539 0.6669 0.92123 0.0
C709 C 0.71376 0.65156 0.93899 0.0
C710 C 0.75907 0.66464 0.9217 0.0
C711 C 0.81258 0.6733 0.94521 0.0
H712 H 0.81269 0.6071 0.96614 0.0
C713 C 0.88049 0.64445 0.01632 0.0
C714 C 0.90721 0.66276 0.00746 0.0
C715 C 0.85779 0.63981 0.00115 0.0
C716 C 0.813 0.62573 0.96017 0.0
H717 H 0.69905 0.62018 0.96956 0.0
H718 H 0.74005 0.61649 0.97059 0.0
H719 H 0.77045 0.60409 0.94977 0.0
H720 H 0.93105 0.69056 0.97575 0.0
H721 H 0.89127 0.68269 0.94935 0.0
H722 H 0.8549 0.69501 0.95644 0.0
C723 C 0.73894 0.63019 0.95618 0.0
C724 C 0.78883 0.62403 0.95082 0.0
C725 C 0.71543 0.63249 0.95576 0.0
C726 C 0.9107 0.67617 0.98299 0.0
C727 C 0.88797 0.67171 0.96791 0.0
C728 C 0.83679 0.67497 0.95439 0.0
C729 C 0.76144 0.64689 0.93982 0.0
C730 C 0.78807 0.64791 0.94419 0.0
C731 C 0.86126 0.65372 0.977 0.0
C732 C 0.837 0.65131 0.96287 0.0
H733 H 0.7347 0.68171 0.908 0.0
H734 H 0.77589 0.67752 0.90857 0.0
H735 H 0.81274 0.69215 0.94059 0.0
H736 H 0.87692 0.63471 0.03557 0.0
H737 H 0.83747 0.62636 0.00903 0.0
C738 C 0.22395 0.91548 0.16452 0.0
C739 C 0.24059 0.91322 0.18404 0.0
C740 C 0.20552 0.8926 0.14969 0.0
C741 C 0.16718 0.81734 0.15606 0.0
H742 H 0.14432 0.81894 0.08367 0.0
C743 C 0.08416 0.7194 0.11018 0.0
C744 C 0.06171 0.72099 0.10027 0.0
C745 C 0.10939 0.7431 0.11395 0.0
C746 C 0.15057 0.81825 0.10388 0.0
H747 H 0.25053 0.88482 0.20333 0.0
H748 H 0.22006 0.8457 0.17642 0.0
H749 H 0.18289 0.86026 0.10295 0.0
H750 H 0.04851 0.7482 0.08431 0.0
H751 H 0.09281 0.79004 0.09137 0.0
H752 H 0.1349 0.77572 0.15732 0.0
C753 C 0.2209 0.86504 0.17273 0.0
C754 C 0.17257 0.84189 0.11496 0.0
C755 C 0.23899 0.88777 0.1878 0.0
C756 C 0.06559 0.74647 0.09186 0.0
C757 C 0.09092 0.77038 0.09595 0.0
C758 C 0.1455 0.79385 0.14498 0.0
C759 C 0.20329 0.86691 0.15407 0.0
C760 C 0.18107 0.84171 0.14127 0.0
C761 C 0.11261 0.76896 0.10829 0.0
C762 C 0.13686 0.79397 0.11882 0.0
H763 H 0.22452 0.93477 0.16135 0.0
H764 H 0.1921 0.89481 0.13575 0.0
H765 H 0.17245 0.81653 0.1766 0.0
H766 H 0.08174 0.69994 0.11656 0.0
H767 H 0.12593 0.7413 0.12288 0.0
C768 C 0.9158 0.63639 0.54354 0.0
C769 C 0.93785 0.65652 0.55833 0.0
C770 C 0.89058 0.63537 0.54323 0.0
C771 C 0.83618 0.63287 0.54875 0.0
H772 H 0.84521 0.70431 0.53318 0.0
C773 C 0.77172 0.68674 0.50518 0.0
C774 C 0.7604 0.67024 0.48256 0.0
C775 C 0.78923 0.68283 0.52202 0.0
C776 C 0.84212 0.68423 0.53805 0.0
H777 H 0.95015 0.69016 0.58598 0.0
H778 H 0.90578 0.6884 0.58545 0.0
H779 H 0.88366 0.70103 0.55084 0.0
H780 H 0.75915 0.63712 0.45953 0.0
H781 H 0.7891 0.62989 0.48909 0.0
H782 H 0.79504 0.61608 0.53444 0.0
C783 C 0.90821 0.67355 0.57389 0.0
C784 C 0.86419 0.68234 0.54827 0.0
C785 C 0.93354 0.67445 0.57434 0.0
C786 C 0.76653 0.6494 0.47737 0.0
C787 C 0.78388 0.64538 0.49427 0.0
C788 C 0.81416 0.63476 0.53841 0.0
C789 C 0.88674 0.65454 0.55764 0.0
C790 C 0.86179 0.6566 0.55277 0.0
C791 C 0.79584 0.66237 0.5165 0.0
C792 C 0.81721 0.66042 0.53204 0.0
H793 H 0.91838 0.62211 0.53116 0.0
H794 H 0.87469 0.62064 0.53027 0.0
H795 H 0.83351 0.61274 0.55249 0.0
H796 H 0.7675 0.7031 0.50953 0.0
H797 H 0.79807 0.69619 0.53903 0.0
C798 C 0.28962 0.91882 0.71411 0.0
C799 C 0.28598 0.94113 0.71993 0.0
C800 C 0.26703 0.89242 0.7121 0.0
C801 C 0.19017 0.8514 0.71837 0.0
H802 H 0.19797 0.81372 0.65751 0.0
C803 C 0.0973 0.75511 0.67295 0.0
C804 C 0.09644 0.75406 0.6451 0.0
C805 C 0.12111 0.7744 0.68612 0.0
C806 C 0.19534 0.82399 0.67448 0.0
H807 H 0.25626 0.95336 0.72983 0.0
H808 H 0.21661 0.9076 0.725 0.0
H809 H 0.23779 0.85386 0.67484 0.0
H810 H 0.11895 0.77311 0.60908 0.0
H811 H 0.16024 0.80683 0.63173 0.0
H812 H 0.14716 0.82253 0.71648 0.0
C813 C 0.23683 0.91006 0.72278 0.0
C814 C 0.21839 0.84686 0.68484 0.0
C815 C 0.25957 0.93639 0.72551 0.0
C816 C 0.11954 0.77272 0.63058 0.0
C817 C 0.14318 0.79212 0.64365 0.0
C818 C 0.16696 0.82868 0.70771 0.0
C819 C 0.2402 0.88789 0.71495 0.0
C820 C 0.21611 0.8613 0.70658 0.0
C821 C 0.14431 0.7933 0.6716 0.0
C822 C 0.16918 0.81514 0.68518 0.0
H823 H 0.30989 0.92199 0.70998 0.0
H824 H 0.2706 0.8758 0.70702 0.0
H825 H 0.1876 0.86161 0.73542 0.0
H826 H 0.07951 0.74109 0.68451 0.0
H827 H 0.12127 0.77459 0.70763 0.0
C828 C 0.36527 0.27378 0.88704 0.0
C829 C 0.34423 0.27544 0.90034 0.0
C830 C 0.36535 0.24912 0.88598 0.0
C831 C 0.31522 0.17639 0.88432 0.0
H832 H 0.38016 0.17054 0.87272 0.0
C833 C 0.30883 0.08155 0.83393 0.0
C834 C 0.32712 0.08804 0.81256 0.0
C835 C 0.31236 0.10163 0.85235 0.0
C836 C 0.36182 0.1718 0.87604 0.0
H837 H 0.30811 0.25322 0.925 0.0
H838 H 0.30827 0.20985 0.92324 0.0
H839 H 0.38443 0.21145 0.89397 0.0
H840 H 0.36291 0.1209 0.79326 0.0
H841 H 0.36941 0.15575 0.82557 0.0
H842 H 0.29277 0.13729 0.86539 0.0
C843 C 0.32453 0.22765 0.91335 0.0
C844 C 0.36424 0.19519 0.88823 0.0
C845 C 0.32456 0.25252 0.91455 0.0
C846 C 0.34917 0.11494 0.81012 0.0
C847 C 0.3528 0.13497 0.8286 0.0
C848 C 0.31279 0.15295 0.87226 0.0
C849 C 0.34432 0.22543 0.89814 0.0
C850 C 0.34112 0.19826 0.89148 0.0
C851 C 0.3342 0.12865 0.84969 0.0
C852 C 0.3362 0.15089 0.86704 0.0
H853 H 0.38086 0.29118 0.87609 0.0
H854 H 0.3808 0.24822 0.87391 0.0
H855 H 0.297 0.17814 0.88621 0.0
H856 H 0.29151 0.061 0.83615 0.0
H857 H 0.29771 0.09615 0.86841 0.0
C858 C 0.08308 0.36834 0.04854 0.0
C859 C 0.0601 0.34342 0.05601 0.0
C860 C 0.10895 0.37075 0.04699 0.0
C861 C 0.14734 0.33304 0.05902 0.0
H862 H 0.18659 0.37278 0.99585 0.0
C863 C 0.21864 0.30868 0.99715 0.0
C864 C 0.24327 0.3306 0.98726 0.0
C865 C 0.20001 0.3135 0.01103 0.0
C866 C 0.17616 0.36199 0.01382 0.0
H867 H 0.04625 0.30195 0.06919 0.0
H868 H 0.09104 0.30558 0.06534 0.0
H869 H 0.14714 0.37556 0.01079 0.0
H870 H 0.26863 0.37499 0.98695 0.0
H871 H 0.23535 0.3833 0.00981 0.0
H872 H 0.17564 0.31805 0.06064 0.0
C873 C 0.0895 0.32364 0.06139 0.0
C874 C 0.15352 0.36366 0.02256 0.0
C875 C 0.06371 0.32147 0.06357 0.0
C876 C 0.24937 0.35754 0.99286 0.0
C877 C 0.23048 0.36236 0.00639 0.0
C878 C 0.16977 0.33103 0.04997 0.0
C879 C 0.1123 0.34803 0.05211 0.0
C880 C 0.13844 0.34882 0.04502 0.0
C881 C 0.20546 0.34037 0.01528 0.0
C882 C 0.18407 0.34512 0.02702 0.0
H883 H 0.08085 0.38568 0.04287 0.0
H884 H 0.1261 0.39015 0.04067 0.0
H885 H 0.13667 0.32176 0.07668 0.0
H886 H 0.21324 0.28763 0.99349 0.0
H887 H 0.1808 0.29614 0.01749 0.0
C888 C 0.71807 0.07488 0.19073 0.0
C889 C 0.71312 0.05746 0.21258 0.0
C890 C 0.74158 0.10058 0.18955 0.0
C891 C 0.81205 0.13913 0.21631 0.0
H892 H 0.81238 0.1948 0.17092 0.0
C893 C 0.90772 0.21405 0.15766 0.0
C894 C 0.90985 0.23783 0.14627 0.0
C895 C 0.88521 0.19665 0.1734 0.0
C896 C 0.81304 0.18008 0.18424 0.0
H897 H 0.72856 0.05414 0.25106 0.0
H898 H 0.7695 0.09973 0.24942 0.0
H899 H 0.76937 0.15713 0.18575 0.0
H900 H 0.88957 0.26197 0.14357 0.0
H901 H 0.85253 0.23377 0.17318 0.0
H902 H 0.85579 0.16278 0.21581 0.0
C903 C 0.75537 0.09307 0.23283 0.0
C904 C 0.78806 0.15794 0.19235 0.0
C905 C 0.7318 0.067 0.23388 0.0
C906 C 0.88962 0.2446 0.1525 0.0
C907 C 0.8676 0.22771 0.16904 0.0
C908 C 0.83714 0.16177 0.20884 0.0
C909 C 0.7608 0.11001 0.21038 0.0
C910 C 0.78717 0.13638 0.20724 0.0
C911 C 0.86434 0.2028 0.17878 0.0
C912 C 0.83804 0.1819 0.19154 0.0
H913 H 0.70427 0.06832 0.17387 0.0
H914 H 0.74514 0.11249 0.1716 0.0
H915 H 0.81234 0.12311 0.22794 0.0
H916 H 0.92282 0.20804 0.15334 0.0
H917 H 0.88362 0.17763 0.17997 0.0
C918 C 0.6518 0.88571 0.30967 0.0
C919 C 0.67161 0.91299 0.31529 0.0
C920 C 0.64898 0.86443 0.32602 0.0
C921 C 0.63991 0.82376 0.36986 0.0
H922 H 0.70721 0.82199 0.3802 0.0
C923 C 0.68182 0.74523 0.40331 0.0
C924 C 0.66361 0.72286 0.38757 0.0
C925 C 0.68079 0.76959 0.40304 0.0
C926 C 0.68826 0.82236 0.3782 0.0
H927 H 0.70425 0.93934 0.34224 0.0
H928 H 0.69957 0.90194 0.37072 0.0
H929 H 0.70926 0.86352 0.36341 0.0
H930 H 0.62871 0.70768 0.36095 0.0
H931 H 0.627 0.74975 0.36039 0.0
H932 H 0.61883 0.78228 0.38368 0.0
C933 C 0.68594 0.89716 0.35388 0.0
C934 C 0.68944 0.84619 0.36849 0.0
C935 C 0.68858 0.91852 0.33763 0.0
C936 C 0.6432 0.72463 0.37313 0.0
C937 C 0.64205 0.74875 0.37301 0.0
C938 C 0.63873 0.80001 0.37972 0.0
C939 C 0.66626 0.86986 0.34808 0.0
C940 C 0.66522 0.84675 0.36323 0.0
C941 C 0.66135 0.77183 0.38728 0.0
C942 C 0.66283 0.79865 0.38293 0.0
H943 H 0.63933 0.88055 0.29192 0.0
H944 H 0.63414 0.84355 0.32059 0.0
H945 H 0.62093 0.82379 0.36645 0.0
H946 H 0.69776 0.74446 0.41466 0.0
H947 H 0.69577 0.78695 0.41446 0.0
C948 C 0.43898 0.39608 0.45409 0.0
C949 C 0.42023 0.38559 0.43292 0.0
C950 C 0.46559 0.41756 0.45011 0.0
C951 C 0.51794 0.45762 0.39941 0.0
H952 H 0.54137 0.51628 0.45107 0.0
C953 C 0.60102 0.56787 0.37721 0.0
C954 C 0.61921 0.5843 0.39732 0.0
C955 C 0.57972 0.54158 0.3827 0.0
C956 C 0.53546 0.4999 0.43678 0.0
H957 H 0.41517 0.38822 0.39056 0.0
H958 H 0.46198 0.42637 0.38349 0.0
H959 H 0.49823 0.47378 0.45752 0.0
H960 H 0.62963 0.58551 0.43894 0.0
H961 H 0.59191 0.53908 0.4487 0.0
H962 H 0.55497 0.48407 0.37837 0.0
C963 C 0.45596 0.41776 0.40324 0.0
C964 C 0.51066 0.47554 0.4404 0.0
C965 C 0.42917 0.396 0.40725 0.0
C966 C 0.6159 0.57343 0.42307 0.0
C967 C 0.5943 0.54692 0.42863 0.0
C968 C 0.5428 0.48198 0.39581 0.0
C969 C 0.47418 0.42922 0.42482 0.0
C970 C 0.5014 0.45429 0.42155 0.0
C971 C 0.57588 0.53082 0.40847 0.0
C972 C 0.55157 0.50361 0.41419 0.0
H973 H 0.43296 0.38797 0.47399 0.0
H974 H 0.47932 0.4254 0.46699 0.0
H975 H 0.51158 0.44147 0.38478 0.0
H976 H 0.60295 0.57539 0.35705 0.0
H977 H 0.5657 0.53001 0.36681 0.0
C978 C 0.0454 0.43027 0.57554 0.0
C979 C 0.05247 0.4246 0.60052 0.0
C980 C 0.04855 0.45614 0.57036 0.0
C981 C 0.05036 0.51337 0.60752 0.0
H982 H 0.06636 0.54879 0.53864 0.0
C983 C 0.04652 0.61303 0.58759 0.0
C984 C 0.03226 0.6122 0.56436 0.0
C985 C 0.05344 0.5927 0.59241 0.0
C986 C 0.06185 0.53911 0.55801 0.0
H987 H 0.07072 0.44203 0.6387 0.0
H988 H 0.07696 0.48711 0.62942 0.0
H989 H 0.0714 0.50859 0.54519 0.0
H990 H 0.01381 0.58906 0.52822 0.0
H991 H 0.02569 0.55411 0.53668 0.0
H992 H 0.04021 0.54348 0.62016 0.0
C993 C 0.06808 0.47152 0.61415 0.0
C994 C 0.06467 0.51606 0.56172 0.0
C995 C 0.06466 0.44573 0.6194 0.0
C996 C 0.02501 0.59063 0.54623 0.0
C997 C 0.03201 0.57058 0.55095 0.0
C998 C 0.0476 0.53643 0.60382 0.0
C999 C 0.05908 0.47674 0.59001 0.0
C1000 C 0.05851 0.50264 0.5864 0.0
C1001 C 0.04639 0.57138 0.57398 0.0
C1002 C 0.05276 0.5492 0.57888 0.0
H1003 H 0.0359 0.4143 0.56069 0.0
H1004 H 0.04132 0.45947 0.55155 0.0
H1005 H 0.045 0.50329 0.6267 0.0
H1006 H 0.05248 0.6294 0.6019 0.0
H1007 H 0.06454 0.5938 0.61037 0.0
C1008 C 0.59346 0.02855 0.78612 0.0
C1009 C 0.61264 0.03188 0.76644 0.0
C1010 C 0.57335 0.03542 0.78111 0.0
C1011 C 0.53413 0.04207 0.72698 0.0
H1012 H 0.5102 0.07379 0.78193 0.0
C1013 C 0.44161 0.05529 0.70934 0.0
C1014 C 0.42172 0.04535 0.72953 0.0
C1015 C 0.46796 0.06009 0.71423 0.0
C1016 C 0.51661 0.06485 0.76644 0.0
H1017 H 0.62592 0.04555 0.72608 0.0
H1018 H 0.59035 0.0575 0.71719 0.0
H1019 H 0.55141 0.07048 0.78877 0.0
H1020 H 0.41417 0.03441 0.77113 0.0
H1021 H 0.46044 0.0422 0.77974 0.0
H1022 H 0.49903 0.03563 0.70496 0.0
C1023 C 0.59102 0.04942 0.73653 0.0
C1024 C 0.54021 0.063 0.77031 0.0
C1025 C 0.61138 0.04261 0.7416 0.0
C1026 C 0.4292 0.04209 0.75528 0.0
C1027 C 0.45567 0.04659 0.76014 0.0
C1028 C 0.51058 0.04392 0.72312 0.0
C1029 C 0.57176 0.0458 0.75627 0.0
C1030 C 0.54892 0.0511 0.75082 0.0
C1031 C 0.47498 0.05467 0.73936 0.0
C1032 C 0.5013 0.05495 0.74295 0.0
H1033 H 0.59374 0.02041 0.80555 0.0
H1034 H 0.55855 0.03187 0.79658 0.0
H1035 H 0.54002 0.03241 0.71178 0.0
H1036 H 0.43648 0.05844 0.68939 0.0
H1037 H 0.48255 0.06706 0.698 0.0
C1038 C 0.55875 0.6112 0.95315 0.0
C1039 C 0.57755 0.61992 0.932 0.0
C1040 C 0.53206 0.58962 0.94987 0.0
C1041 C 0.48066 0.54377 0.90036 0.0
H1042 H 0.45836 0.49046 0.95746 0.0
C1043 C 0.40562 0.42998 0.88499 0.0
C1044 C 0.38602 0.41464 0.90459 0.0
C1045 C 0.4253 0.45721 0.88932 0.0
C1046 C 0.46394 0.50534 0.94161 0.0
H1047 H 0.58276 0.61416 0.89035 0.0
H1048 H 0.53596 0.57566 0.8846 0.0
H1049 H 0.49983 0.5348 0.96216 0.0
H1050 H 0.37177 0.41622 0.94421 0.0
H1051 H 0.40694 0.46431 0.95205 0.0
H1052 H 0.44521 0.51369 0.87943 0.0
C1053 C 0.54183 0.58582 0.90371 0.0
C1054 C 0.48776 0.5308 0.94425 0.0
C1055 C 0.56863 0.6078 0.90694 0.0
C1056 C 0.38661 0.42742 0.92876 0.0
C1057 C 0.40668 0.45489 0.93322 0.0
C1058 C 0.45685 0.51827 0.89771 0.0
C1059 C 0.52356 0.57594 0.92543 0.0
C1060 C 0.49673 0.55011 0.92343 0.0
C1061 C 0.42618 0.47002 0.91344 0.0
C1062 C 0.44863 0.49853 0.91804 0.0
H1063 H 0.56494 0.62056 0.97258 0.0
H1064 H 0.51833 0.58308 0.96678 0.0
H1065 H 0.48673 0.55834 0.88417 0.0
H1066 H 0.40597 0.42097 0.8661 0.0
H1067 H 0.44035 0.46806 0.87392 0.0
C1068 C 0.9445 0.38525 0.04545 0.0
C1069 C 0.95695 0.37781 0.06542 0.0
C1070 C 0.93936 0.40672 0.04938 0.0
C1071 C 0.93855 0.45472 0.09936 0.0
H1072 H 0.96354 0.50535 0.03978 0.0
C1073 C 0.97591 0.56853 0.11188 0.0
C1074 C 0.96886 0.58245 0.09303 0.0
C1075 C 0.96933 0.54154 0.1078 0.0
C1076 C 0.95595 0.49122 0.05639 0.0
H1077 H 0.9722 0.38558 0.10576 0.0
H1078 H 0.96378 0.42386 0.11265 0.0
H1079 H 0.96053 0.46093 0.03522 0.0
H1080 H 0.94953 0.57872 0.05481 0.0
H1081 H 0.93822 0.53105 0.04744 0.0
H1082 H 0.93497 0.48558 0.12077 0.0
C1083 C 0.95764 0.41281 0.09401 0.0
C1084 C 0.95422 0.46572 0.05383 0.0
C1085 C 0.96249 0.39095 0.09015 0.0
C1086 C 0.95528 0.56862 0.06968 0.0
C1087 C 0.94879 0.54138 0.0655 0.0
C1088 C 0.94033 0.48025 0.10191 0.0
C1089 C 0.94693 0.42154 0.07327 0.0
C1090 C 0.94602 0.44738 0.07545 0.0
C1091 C 0.95557 0.52754 0.08472 0.0
C1092 C 0.94969 0.49903 0.08066 0.0
H1093 H 0.93961 0.37504 0.02634 0.0
H1094 H 0.93038 0.41236 0.03329 0.0
H1095 H 0.93174 0.44091 0.11621 0.0
H1096 H 0.9866 0.57844 0.13003 0.0
H1097 H 0.97548 0.53175 0.12266 0.0
C1098 C 0.3857 0.95985 0.24235 0.0
C1099 C 0.38652 0.97498 0.26488 0.0
C1100 C 0.40669 0.95376 0.23783 0.0
C1101 C 0.46143 0.94848 0.27342 0.0
H1102 H 0.49709 0.96267 0.2048 0.0
C1103 C 0.57078 0.96543 0.25802 0.0
C1104 C 0.5766 0.95762 0.23354 0.0
C1105 C 0.54476 0.96219 0.26266 0.0
C1106 C 0.48707 0.95805 0.224 0.0
H1107 H 0.41054 0.99621 0.29985 0.0
H1108 H 0.44656 0.98578 0.29186 0.0
H1109 H 0.45641 0.96694 0.21003 0.0
H1110 H 0.55947 0.93805 0.19577 0.0
H1111 H 0.51411 0.93152 0.20415 0.0
H1112 H 0.49238 0.94011 0.28756 0.0
C1113 C 0.42961 0.97812 0.27797 0.0
C1114 C 0.46374 0.96052 0.22694 0.0
C1115 C 0.40894 0.98428 0.28238 0.0
C1116 C 0.55557 0.94464 0.21468 0.0
C1117 C 0.52964 0.94108 0.2194 0.0
C1118 C 0.48471 0.94591 0.27048 0.0
C1119 C 0.42862 0.96254 0.25589 0.0
C1120 C 0.45104 0.95636 0.25181 0.0
C1121 C 0.52421 0.95081 0.24296 0.0
C1122 C 0.4981 0.95114 0.24583 0.0
H1123 H 0.36871 0.95234 0.22854 0.0
H1124 H 0.40551 0.94177 0.22055 0.0
H1125 H 0.4518 0.94475 0.29278 0.0
H1126 H 0.58674 0.97559 0.27279 0.0
H1127 H 0.54128 0.97 0.28101 0.0
C1128 C 0.38011 0.35389 0.76855 0.0
C1129 C 0.38005 0.37535 0.78266 0.0
C1130 C 0.38403 0.35575 0.74113 0.0
C1131 C 0.40607 0.40286 0.68355 0.0
H1132 H 0.35202 0.33784 0.6463 0.0
C1133 C 0.40468 0.3884 0.56932 0.0
C1134 C 0.3788 0.37535 0.55705 0.0
C1135 C 0.40683 0.39065 0.59696 0.0
C1136 C 0.36712 0.35622 0.65641 0.0
H1137 H 0.38574 0.41629 0.7794 0.0
H1138 H 0.39221 0.41935 0.73138 0.0
H1139 H 0.35388 0.33757 0.69451 0.0
H1140 H 0.33493 0.35562 0.56396 0.0
H1141 H 0.33872 0.35987 0.61208 0.0
H1142 H 0.41879 0.42165 0.64521 0.0
C1143 C 0.38942 0.40118 0.74156 0.0
C1144 C 0.36847 0.35593 0.684 0.0
C1145 C 0.38556 0.39935 0.76904 0.0
C1146 C 0.35517 0.36559 0.57283 0.0
C1147 C 0.35732 0.36787 0.60039 0.0
C1148 C 0.40475 0.40312 0.65582 0.0
C1149 C 0.38789 0.37906 0.72726 0.0
C1150 C 0.38786 0.37925 0.69788 0.0
C1151 C 0.38312 0.37989 0.61275 0.0
C1152 C 0.38507 0.37986 0.64204 0.0
H1153 H 0.37621 0.33524 0.77853 0.0
H1154 H 0.38327 0.3386 0.73065 0.0
H1155 H 0.42129 0.42108 0.69376 0.0
H1156 H 0.42328 0.39616 0.55768 0.0
H1157 H 0.42697 0.39989 0.60598 0.0
C1158 C 0.99429 0.39946 0.73203 0.0
C1159 C 0.01176 0.38972 0.72397 0.0
C1160 C 0.99405 0.40683 0.75851 0.0
C1161 C 0.03319 0.42348 0.8214 0.0
H1162 H 0.96164 0.38536 0.85489 0.0
C1163 C 0.01722 0.38661 0.92875 0.0
C1164 C 0.99555 0.38533 0.94366 0.0
C1165 C 0.02122 0.39552 0.90244 0.0
C1166 C 0.98174 0.39677 0.84585 0.0
H1167 H 0.04343 0.3811 0.73698 0.0
H1168 H 0.04292 0.39381 0.78298 0.0
H1169 H 0.96501 0.38614 0.80666 0.0
H1170 H 0.96196 0.39379 0.9432 0.0
H1171 H 0.96903 0.40945 0.89713 0.0
H1172 H 0.04997 0.43308 0.86065 0.0
C1173 C 0.02955 0.39595 0.76891 0.0
C1174 C 0.98365 0.39719 0.8182 0.0
C1175 C 0.02961 0.38837 0.7426 0.0
C1176 C 0.97871 0.39433 0.93212 0.0
C1177 C 0.98271 0.40325 0.90575 0.0
C1178 C 0.03128 0.42315 0.84904 0.0
C1179 C 0.01152 0.40489 0.77721 0.0
C1180 C 0.00943 0.40959 0.80579 0.0
C1181 C 0.00366 0.40339 0.89049 0.0
C1182 C 0.00558 0.40882 0.86155 0.0
H1183 H 0.98038 0.40081 0.71806 0.0
H1184 H 0.97999 0.4137 0.76443 0.0
H1185 H 0.0533 0.43359 0.81225 0.0
H1186 H 0.03061 0.37988 0.93708 0.0
H1187 H 0.03729 0.39498 0.89112 0.0
C1188 C 0.62103 0.02055 0.90496 0.0
C1189 C 0.61829 0.99975 0.88778 0.0
C1190 C 0.6118 0.0144 0.93115 0.0
C1191 C 0.59673 0.96141 0.98195 0.0
H1192 H 0.57649 0.00651 0.02353 0.0
C1193 C 0.58202 0.94871 0.09481 0.0
C1194 C 0.60059 0.97292 0.10808 0.0
C1195 C 0.57662 0.94937 0.06783 0.0
C1196 C 0.58183 0.9936 0.01204 0.0
H1197 H 0.6022 0.95606 0.88368 0.0
H1198 H 0.58492 0.94504 0.92901 0.0
H1199 H 0.58003 0.0116 0.97523 0.0
H1200 H 0.62664 0.01695 0.1042 0.0
H1201 H 0.61685 0.01811 0.05711 0.0
H1202 H 0.59868 0.94362 0.01883 0.0
C1203 C 0.59515 0.96627 0.92273 0.0
C1204 C 0.5841 0.99663 0.98445 0.0
C1205 C 0.60493 0.97252 0.89673 0.0
C1206 C 0.61239 0.99797 0.09437 0.0
C1207 C 0.60662 0.99868 0.06754 0.0
C1208 C 0.59397 0.95808 0.00941 0.0
C1209 C 0.59915 0.98722 0.9405 0.0
C1210 C 0.59246 0.98118 0.96916 0.0
C1211 C 0.58929 0.9743 0.05391 0.0
C1212 C 0.58731 0.97469 0.02473 0.0
H1213 H 0.63136 0.04175 0.89852 0.0
H1214 H 0.6157 0.03117 0.94429 0.0
H1215 H 0.60367 0.94947 0.97103 0.0
H1216 H 0.57264 0.92911 0.10492 0.0
H1217 H 0.56319 0.93034 0.05765 0.0
C1218 C 0.59226 0.63294 0.06735 0.0
C1219 C 0.61198 0.62942 0.05359 0.0
C1220 C 0.58733 0.62624 0.09424 0.0
C1221 C 0.59639 0.58839 0.14887 0.0
H1222 H 0.61014 0.6512 0.19164 0.0
C1223 C 0.63202 0.60105 0.25745 0.0
C1224 C 0.62628 0.61715 0.27458 0.0
C1225 C 0.62357 0.59766 0.23097 0.0
C1226 C 0.60547 0.63312 0.18019 0.0
H1227 H 0.64083 0.61468 0.05664 0.0
H1228 H 0.63202 0.60278 0.10367 0.0
H1229 H 0.60652 0.65317 0.1438 0.0
H1230 H 0.60554 0.64059 0.27837 0.0
H1231 H 0.58961 0.63364 0.23252 0.0
H1232 H 0.5955 0.56833 0.18525 0.0
C1233 C 0.62046 0.61075 0.09363 0.0
C1234 C 0.60352 0.63435 0.15271 0.0
C1235 C 0.62566 0.61778 0.06682 0.0
C1236 C 0.61057 0.62843 0.26535 0.0
C1237 C 0.60159 0.62455 0.23906 0.0
C1238 C 0.59789 0.58695 0.17648 0.0
C1239 C 0.60175 0.61555 0.10768 0.0
C1240 C 0.59966 0.61229 0.13679 0.0
C1241 C 0.60876 0.60989 0.2213 0.0
C1242 C 0.60319 0.60961 0.19242 0.0
H1243 H 0.58134 0.6418 0.05764 0.0
H1244 H 0.57276 0.63005 0.10472 0.0
H1245 H 0.59322 0.57106 0.13691 0.0
H1246 H 0.6442 0.59221 0.26413 0.0
H1247 H 0.62984 0.58657 0.21787 0.0
C1248 C 0.01675 0.64252 0.23053 0.0
C1249 C 0.99667 0.6204 0.21582 0.0
C1250 C 0.01857 0.64027 0.25791 0.0
C1251 C 0.99669 0.59202 0.31437 0.0
H1252 H 0.00117 0.65379 0.35279 0.0
C1253 C 0.01332 0.60867 0.42818 0.0
C1254 C 0.99908 0.61987 0.44114 0.0
C1255 C 0.0116 0.60535 0.40062 0.0
C1256 C 0.99965 0.63628 0.34235 0.0
H1257 H 0.9638 0.57805 0.21795 0.0
H1258 H 0.96676 0.57429 0.26598 0.0
H1259 H 0.00295 0.65486 0.30459 0.0
H1260 H 0.97043 0.63463 0.43571 0.0
H1261 H 0.96726 0.62858 0.38774 0.0
H1262 H 0.99297 0.57333 0.35245 0.0
C1263 C 0.9812 0.59327 0.25626 0.0
C1264 C 0.0011 0.63707 0.31477 0.0
C1265 C 0.97942 0.59549 0.2288 0.0
C1266 C 0.98191 0.62624 0.42626 0.0
C1267 C 0.98017 0.62289 0.3988 0.0
C1268 C 0.99533 0.59126 0.34212 0.0
C1269 C 0.00029 0.6159 0.27114 0.0
C1270 C 0.99965 0.61499 0.30048 0.0
C1271 C 0.99561 0.61318 0.38564 0.0
C1272 C 0.99665 0.61336 0.35631 0.0
H1273 H 0.03057 0.66188 0.22103 0.0
H1274 H 0.03385 0.65786 0.26886 0.0
H1275 H 0.9956 0.57476 0.3038 0.0
H1276 H 0.02663 0.60345 0.43914 0.0
H1277 H 0.02378 0.5979 0.39094 0.0
C1278 C 0.38176 0.98615 0.59764 0.0
C1279 C 0.39123 0.01292 0.60677 0.0
C1280 C 0.38644 0.98156 0.57142 0.0
C1281 C 0.42283 0.01733 0.50878 0.0
H1282 H 0.35824 0.95761 0.47597 0.0
C1283 C 0.38798 0.01559 0.40114 0.0
C1284 C 0.37747 0.99097 0.38685 0.0
C1285 C 0.39623 0.01689 0.42749 0.0
C1286 C 0.37666 0.97403 0.4849 0.0
H1287 H 0.41387 0.05596 0.59621 0.0
H1288 H 0.42083 0.04804 0.55017 0.0
H1289 H 0.36046 0.96206 0.52392 0.0
H1290 H 0.36841 0.94876 0.38844 0.0
H1291 H 0.38219 0.95093 0.43482 0.0
H1292 H 0.43784 0.03031 0.46917 0.0
C1293 C 0.4106 0.03051 0.56327 0.0
C1294 C 0.37805 0.97658 0.51245 0.0
C1295 C 0.40642 0.0351 0.58964 0.0
C1296 C 0.37639 0.968 0.399 0.0
C1297 C 0.38425 0.96919 0.42548 0.0
C1298 C 0.4212 0.01503 0.48112 0.0
C1299 C 0.4001 0.00363 0.55365 0.0
C1300 C 0.40082 0.99867 0.52475 0.0
C1301 C 0.39374 0.9935 0.44005 0.0
C1302 C 0.39781 0.99371 0.469 0.0
H1303 H 0.37034 0.96872 0.61064 0.0
H1304 H 0.37867 0.96064 0.56492 0.0
H1305 H 0.44095 0.03424 0.51758 0.0
H1306 H 0.38921 0.03366 0.39218 0.0
H1307 H 0.40321 0.03579 0.43844 0.0
loop_
_geom_bond_atom_site_label_1
_geom_bond_atom_site_label_2
_geom_bond_distance
_geom_bond_site_symmetry_2
_ccdc_geom_bond_type
Co0 O3 1.970 . S
Co0 N17 1.989 . S
Co0 O25 1.967 . S
Co0 O32 1.920 . S
Co1 O4 1.966 . S
Co1 N10 2.022 . S
Co1 N18 1.993 . S
Co1 O26 1.941 . S
C2 O3 1.258 . S
C2 O4 1.263 . S
O3 Co0 1.970 . S
O3 C2 1.258 . S
O4 Co1 1.966 . S
O4 C2 1.263 . S
C5 O6 1.235 . S
C5 O32 1.289 . S
O6 C5 1.235 . S
C7 C9 1.400 . S
C7 N10 1.351 . S
C7 C12 1.501 . S
C8 C9 1.387 . S
C8 N11 1.341 . S
C9 C7 1.400 . S
C9 C8 1.387 . S
N10 Co1 2.022 . S
N10 C7 1.351 . S
N10 N11 1.365 . S
N11 C8 1.341 . S
N11 N10 1.365 . S
N11 H31 0.862 . S
C12 C7 1.501 . S
C12 H13 0.961 . S
C12 H14 0.961 . S
C12 H15 0.960 . S
H13 C12 0.961 . S
H14 C12 0.961 . S
H15 C12 0.960 . S
C16 N17 1.342 . S
C16 C20 1.401 . S
C16 C21 1.499 . S
N17 Co0 1.989 . S
N17 C16 1.342 . S
N17 N18 1.388 . S
N18 Co1 1.993 . S
N18 N17 1.388 . S
N18 C19 1.346 . S
C19 N18 1.346 . S
C19 C20 1.396 . S
C19 C29 1.510 . S
C20 C16 1.401 . S
C20 C19 1.396 . S
C21 C16 1.499 . S
C21 H22 0.959 . S
C21 H23 0.960 . S
C21 H24 0.961 . S
H22 C21 0.959 . S
H23 C21 0.960 . S
H24 C21 0.961 . S
O25 Co0 1.967 . S
O25 C33 1.258 . S
O26 Co1 1.941 . S
O26 C33 1.266 . S
H27 C29 0.959 . S
H28 C29 0.961 . S
C29 C19 1.510 . S
C29 H27 0.959 . S
C29 H28 0.961 . S
C29 H30 0.960 . S
H30 C29 0.960 . S
H31 N11 0.862 . S
O32 Co0 1.920 . S
O32 C5 1.289 . S
C33 O25 1.258 . S
C33 O26 1.266 . S
Co34 O37 1.970 . S
Co34 N51 1.989 . S
Co34 O59 1.967 . S
Co34 O66 1.920 . S
Co35 O38 1.966 . S
Co35 N44 2.022 . S
Co35 N52 1.993 . S
Co35 O60 1.941 . S
C36 O37 1.258 . S
C36 O38 1.263 . S
O37 Co34 1.970 . S
O37 C36 1.258 . S
O38 Co35 1.966 . S
O38 C36 1.263 . S
C39 O40 1.235 . S
C39 O66 1.289 . S
O40 C39 1.235 . S
C41 C43 1.400 . S
C41 N44 1.351 . S
C41 C46 1.501 . S
C42 C43 1.387 . S
C42 N45 1.341 . S
C43 C41 1.400 . S
C43 C42 1.387 . S
N44 Co35 2.022 . S
N44 C41 1.351 . S
N44 N45 1.365 . S
N45 C42 1.341 . S
N45 N44 1.365 . S
N45 H65 0.862 . S
C46 C41 1.501 . S
C46 H47 0.961 . S
C46 H48 0.961 . S
C46 H49 0.960 . S
H47 C46 0.961 . S
H48 C46 0.961 . S
H49 C46 0.960 . S
C50 N51 1.342 . S
C50 C54 1.401 . S
C50 C55 1.499 . S
N51 Co34 1.989 . S
N51 C50 1.342 . S
N51 N52 1.388 . S
N52 Co35 1.993 . S
N52 N51 1.388 . S
N52 C53 1.346 . S
C53 N52 1.346 . S
C53 C54 1.396 . S
C53 C63 1.510 . S
C54 C50 1.401 . S
C54 C53 1.396 . S
C55 C50 1.499 . S
C55 H56 0.959 . S
C55 H57 0.960 . S
C55 H58 0.961 . S
H56 C55 0.959 . S
H57 C55 0.960 . S
H58 C55 0.961 . S
O59 Co34 1.967 . S
O59 C67 1.258 1_455 S
O60 Co35 1.941 . S
O60 C67 1.266 1_455 S
H61 C63 0.959 . S
H62 C63 0.961 . S
C63 C53 1.510 . S
C63 H61 0.959 . S
C63 H62 0.961 . S
C63 H64 0.960 . S
H64 C63 0.960 . S
H65 N45 0.862 . S
O66 Co34 1.920 . S
O66 C39 1.289 . S
C67 O59 1.258 1_655 S
C67 O60 1.266 1_655 S
Co68 O71 1.970 . S
Co68 N85 1.989 . S
Co68 O93 1.967 . S
Co68 O100 1.920 . S
Co69 O72 1.966 . S
Co69 N78 2.022 . S
Co69 N86 1.993 . S
Co69 O94 1.941 . S
C70 O71 1.258 . S
C70 O72 1.263 . S
O71 Co68 1.970 . S
O71 C70 1.258 . S
O72 Co69 1.966 . S
O72 C70 1.263 . S
C73 O74 1.235 . S
C73 O100 1.289 . S
O74 C73 1.235 . S
C75 C77 1.400 . S
C75 N78 1.351 . S
C75 C80 1.501 . S
C76 C77 1.387 . S
C76 N79 1.341 . S
C77 C75 1.400 . S
C77 C76 1.387 . S
N78 Co69 2.022 . S
N78 C75 1.351 . S
N78 N79 1.365 . S
N79 C76 1.341 . S
N79 N78 1.365 . S
N79 H99 0.862 . S
C80 C75 1.501 . S
C80 H81 0.961 . S
C80 H82 0.961 . S
C80 H83 0.960 . S
H81 C80 0.961 . S
H82 C80 0.961 . S
H83 C80 0.960 . S
C84 N85 1.342 . S
C84 C88 1.401 . S
C84 C89 1.499 . S
N85 Co68 1.989 . S
N85 C84 1.342 . S
N85 N86 1.388 . S
N86 Co69 1.993 . S
N86 N85 1.388 . S
N86 C87 1.346 . S
C87 N86 1.346 . S
C87 C88 1.396 . S
C87 C97 1.510 . S
C88 C84 1.401 . S
C88 C87 1.396 . S
C89 C84 1.499 . S
C89 H90 0.959 . S
C89 H91 0.960 . S
C89 H92 0.961 . S
H90 C89 0.959 . S
H91 C89 0.960 . S
H92 C89 0.961 . S
O93 Co68 1.967 . S
O93 C101 1.258 1_545 S
O94 Co69 1.941 . S
O94 C101 1.266 1_545 S
H95 C97 0.959 . S
H96 C97 0.961 . S
C97 C87 1.510 . S
C97 H95 0.959 . S
C97 H96 0.961 . S
C97 H98 0.960 . S
H98 C97 0.960 . S
H99 N79 0.862 . S
O100 Co68 1.920 . S
O100 C73 1.289 . S
C101 O93 1.258 1_565 S
C101 O94 1.266 1_565 S
Co102 O105 1.970 . S
Co102 N119 1.989 . S
Co102 O127 1.967 . S
Co102 O134 1.920 1_556 S
Co103 O106 1.966 . S
Co103 N112 2.022 . S
Co103 N120 1.993 . S
Co103 O128 1.941 . S
C104 O105 1.258 . S
C104 O106 1.263 . S
O105 Co102 1.970 . S
O105 C104 1.258 . S
O106 Co103 1.966 . S
O106 C104 1.263 . S
C107 O108 1.235 . S
C107 O134 1.289 . S
O108 C107 1.235 . S
C109 C111 1.400 . S
C109 N112 1.351 . S
C109 C114 1.501 . S
C110 C111 1.387 . S
C110 N113 1.341 . S
C111 C109 1.400 . S
C111 C110 1.387 . S
N112 Co103 2.022 . S
N112 C109 1.351 . S
N112 N113 1.365 . S
N113 C110 1.341 . S
N113 N112 1.365 . S
N113 H133 0.862 . S
C114 C109 1.501 . S
C114 H115 0.961 . S
C114 H116 0.961 . S
C114 H117 0.960 . S
H115 C114 0.961 . S
H116 C114 0.961 . S
H117 C114 0.960 . S
C118 N119 1.342 1_554 S
C118 C122 1.401 1_554 S
C118 C123 1.499 . S
N119 Co102 1.989 . S
N119 C118 1.342 1_556 S
N119 N120 1.388 . S
N120 Co103 1.993 . S
N120 N119 1.388 . S
N120 C121 1.346 . S
C121 N120 1.346 . S
C121 C122 1.396 . S
C121 C131 1.510 . S
C122 C118 1.401 1_556 S
C122 C121 1.396 . S
C123 C118 1.499 . S
C123 H124 0.959 . S
C123 H125 0.960 . S
C123 H126 0.961 . S
H124 C123 0.959 . S
H125 C123 0.960 . S
H126 C123 0.961 . S
O127 Co102 1.967 . S
O127 C135 1.258 . S
O128 Co103 1.941 . S
O128 C135 1.266 . S
H129 C131 0.959 . S
H130 C131 0.961 . S
C131 C121 1.510 . S
C131 H129 0.959 . S
C131 H130 0.961 . S
C131 H132 0.960 . S
H132 C131 0.960 . S
H133 N113 0.862 . S
O134 Co102 1.920 1_554 S
O134 C107 1.289 . S
C135 O127 1.258 . S
C135 O128 1.266 . S
Co136 O139 1.970 . S
Co136 N153 1.989 . S
Co136 O161 1.967 . S
Co136 O168 1.920 . S
Co137 O140 1.966 . S
Co137 N146 2.022 . S
Co137 N154 1.993 . S
Co137 O162 1.941 . S
C138 O139 1.258 . S
C138 O140 1.263 . S
O139 Co136 1.970 . S
O139 C138 1.258 . S
O140 Co137 1.966 . S
O140 C138 1.263 . S
C141 O142 1.235 . S
C141 O168 1.289 . S
O142 C141 1.235 . S
C143 C145 1.400 . S
C143 N146 1.351 . S
C143 C148 1.501 . S
C144 C145 1.387 . S
C144 N147 1.341 . S
C145 C143 1.400 . S
C145 C144 1.387 . S
N146 Co137 2.022 . S
N146 C143 1.351 . S
N146 N147 1.365 . S
N147 C144 1.341 . S
N147 N146 1.365 . S
N147 H167 0.862 . S
C148 C143 1.501 . S
C148 H149 0.961 . S
C148 H150 0.961 . S
C148 H151 0.960 . S
H149 C148 0.961 . S
H150 C148 0.961 . S
H151 C148 0.960 . S
C152 N153 1.342 . S
C152 C156 1.401 . S
C152 C157 1.499 . S
N153 Co136 1.989 . S
N153 C152 1.342 . S
N153 N154 1.388 . S
N154 Co137 1.993 . S
N154 N153 1.388 . S
N154 C155 1.346 . S
C155 N154 1.346 . S
C155 C156 1.396 . S
C155 C165 1.510 . S
C156 C152 1.401 . S
C156 C155 1.396 . S
C157 C152 1.499 . S
C157 H158 0.959 . S
C157 H159 0.960 . S
C157 H160 0.961 . S
H158 C157 0.959 . S
H159 C157 0.960 . S
H160 C157 0.961 . S
O161 Co136 1.967 . S
O161 C169 1.258 1_655 S
O162 Co137 1.941 . S
O162 C169 1.266 1_655 S
H163 C165 0.959 . S
H164 C165 0.961 . S
C165 C155 1.510 . S
C165 H163 0.959 . S
C165 H164 0.961 . S
C165 H166 0.960 . S
H166 C165 0.960 . S
H167 N147 0.862 . S
O168 Co136 1.920 . S
O168 C141 1.289 . S
C169 O161 1.258 1_455 S
C169 O162 1.266 1_455 S
Co170 O173 1.970 . S
Co170 N187 1.989 . S
Co170 O195 1.967 . S
Co170 O202 1.920 . S
Co171 O174 1.966 . S
Co171 N180 2.022 . S
Co171 N188 1.993 . S
Co171 O196 1.941 . S
C172 O173 1.258 . S
C172 O174 1.263 . S
O173 Co170 1.970 . S
O173 C172 1.258 . S
O174 Co171 1.966 . S
O174 C172 1.263 . S
C175 O176 1.235 . S
C175 O202 1.289 . S
O176 C175 1.235 . S
C177 C179 1.400 . S
C177 N180 1.351 . S
C177 C182 1.501 . S
C178 C179 1.387 . S
C178 N181 1.341 . S
C179 C177 1.400 . S
C179 C178 1.387 . S
N180 Co171 2.022 . S
N180 C177 1.351 . S
N180 N181 1.365 . S
N181 C178 1.341 . S
N181 N180 1.365 . S
N181 H201 0.862 . S
C182 C177 1.501 . S
C182 H183 0.961 . S
C182 H184 0.961 . S
C182 H185 0.960 . S
H183 C182 0.961 . S
H184 C182 0.961 . S
H185 C182 0.960 . S
C186 N187 1.342 . S
C186 C190 1.401 . S
C186 C191 1.499 . S
N187 Co170 1.989 . S
N187 C186 1.342 . S
N187 N188 1.388 . S
N188 Co171 1.993 . S
N188 N187 1.388 . S
N188 C189 1.346 . S
C189 N188 1.346 . S
C189 C190 1.396 . S
C189 C199 1.510 . S
C190 C186 1.401 . S
C190 C189 1.396 . S
C191 C186 1.499 . S
C191 H192 0.959 . S
C191 H193 0.960 . S
C191 H194 0.961 . S
H192 C191 0.959 . S
H193 C191 0.960 . S
H194 C191 0.961 . S
O195 Co170 1.967 . S
O195 C203 1.258 1_565 S
O196 Co171 1.941 . S
O196 C203 1.266 1_565 S
H197 C199 0.959 . S
H198 C199 0.961 . S
C199 C189 1.510 . S
C199 H197 0.959 . S
C199 H198 0.961 . S
C199 H200 0.960 . S
H200 C199 0.960 . S
H201 N181 0.862 . S
O202 Co170 1.920 . S
O202 C175 1.289 . S
C203 O195 1.258 1_545 S
C203 O196 1.266 1_545 S
Co204 O207 1.970 . S
Co204 N221 1.989 . S
Co204 O229 1.967 . S
Co204 O236 1.920 . S
Co205 O208 1.966 . S
Co205 N214 2.022 . S
Co205 N222 1.993 . S
Co205 O230 1.941 . S
C206 O207 1.258 . S
C206 O208 1.263 . S
O207 Co204 1.970 . S
O207 C206 1.258 . S
O208 Co205 1.966 . S
O208 C206 1.263 . S
C209 O210 1.235 . S
C209 O236 1.289 . S
O210 C209 1.235 . S
C211 C213 1.400 . S
C211 N214 1.351 . S
C211 C216 1.501 . S
C212 C213 1.387 . S
C212 N215 1.341 . S
C213 C211 1.400 . S
C213 C212 1.387 . S
N214 Co205 2.022 . S
N214 C211 1.351 . S
N214 N215 1.365 . S
N215 C212 1.341 . S
N215 N214 1.365 . S
N215 H235 0.862 . S
C216 C211 1.501 . S
C216 H217 0.961 . S
C216 H218 0.961 . S
C216 H219 0.960 . S
H217 C216 0.961 . S
H218 C216 0.961 . S
H219 C216 0.960 . S
C220 N221 1.342 . S
C220 C224 1.401 . S
C220 C225 1.499 . S
N221 Co204 1.989 . S
N221 C220 1.342 . S
N221 N222 1.388 . S
N222 Co205 1.993 . S
N222 N221 1.388 . S
N222 C223 1.346 . S
C223 N222 1.346 . S
C223 C224 1.396 . S
C223 C233 1.510 . S
C224 C220 1.401 . S
C224 C223 1.396 . S
C225 C220 1.499 . S
C225 H226 0.959 . S
C225 H227 0.960 . S
C225 H228 0.961 . S
H226 C225 0.959 . S
H227 C225 0.960 . S
H228 C225 0.961 . S
O229 Co204 1.967 . S
O229 C237 1.258 . S
O230 Co205 1.941 . S
O230 C237 1.266 . S
H231 C233 0.959 . S
H232 C233 0.961 . S
C233 C223 1.510 . S
C233 H231 0.959 . S
C233 H232 0.961 . S
C233 H234 0.960 . S
H234 C233 0.960 . S
H235 N215 0.862 . S
O236 Co204 1.920 . S
O236 C209 1.289 . S
C237 O229 1.258 . S
C237 O230 1.266 . S
Co238 O241 1.970 . S
Co238 N255 1.989 . S
Co238 O263 1.967 . S
Co238 O270 1.920 . S
Co239 O242 1.966 . S
Co239 N248 2.022 . S
Co239 N256 1.993 . S
Co239 O264 1.941 . S
C240 O241 1.258 . S
C240 O242 1.263 . S
O241 Co238 1.970 . S
O241 C240 1.258 . S
O242 Co239 1.966 . S
O242 C240 1.263 . S
C243 O244 1.235 . S
C243 O270 1.289 . S
O244 C243 1.235 . S
C245 C247 1.400 . S
C245 N248 1.351 . S
C245 C250 1.501 . S
C246 C247 1.387 . S
C246 N249 1.341 . S
C247 C245 1.400 . S
C247 C246 1.387 . S
N248 Co239 2.022 . S
N248 C245 1.351 . S
N248 N249 1.365 . S
N249 C246 1.341 . S
N249 N248 1.365 . S
N249 H269 0.862 . S
C250 C245 1.501 . S
C250 H251 0.961 . S
C250 H252 0.961 . S
C250 H253 0.960 . S
H251 C250 0.961 . S
H252 C250 0.961 . S
H253 C250 0.960 . S
C254 N255 1.342 . S
C254 C258 1.401 . S
C254 C259 1.499 . S
N255 Co238 1.989 . S
N255 C254 1.342 . S
N255 N256 1.388 . S
N256 Co239 1.993 . S
N256 N255 1.388 . S
N256 C257 1.346 . S
C257 N256 1.346 . S
C257 C258 1.396 . S
C257 C267 1.510 . S
C258 C254 1.401 . S
C258 C257 1.396 . S
C259 C254 1.499 . S
C259 H260 0.959 . S
C259 H261 0.960 . S
C259 H262 0.961 . S
H260 C259 0.959 . S
H261 C259 0.960 . S
H262 C259 0.961 . S
O263 Co238 1.967 . S
O263 C271 1.258 1_455 S
O264 Co239 1.941 . S
O264 C271 1.266 1_455 S
H265 C267 0.959 . S
H266 C267 0.961 . S
C267 C257 1.510 . S
C267 H265 0.959 . S
C267 H266 0.961 . S
C267 H268 0.960 . S
H268 C267 0.960 . S
H269 N249 0.862 . S
O270 Co238 1.920 . S
O270 C243 1.289 . S
C271 O263 1.258 1_655 S
C271 O264 1.266 1_655 S
Co272 O275 1.970 . S
Co272 N289 1.989 . S
Co272 O297 1.967 . S
Co272 O304 1.920 . S
Co273 O276 1.966 . S
Co273 N282 2.022 . S
Co273 N290 1.993 . S
Co273 O298 1.941 . S
C274 O275 1.258 . S
C274 O276 1.263 . S
O275 Co272 1.970 . S
O275 C274 1.258 . S
O276 Co273 1.966 . S
O276 C274 1.263 . S
C277 O278 1.235 . S
C277 O304 1.289 . S
O278 C277 1.235 . S
C279 C281 1.400 . S
C279 N282 1.351 . S
C279 C284 1.501 . S
C280 C281 1.387 . S
C280 N283 1.341 . S
C281 C279 1.400 . S
C281 C280 1.387 . S
N282 Co273 2.022 . S
N282 C279 1.351 . S
N282 N283 1.365 . S
N283 C280 1.341 . S
N283 N282 1.365 . S
N283 H303 0.862 . S
C284 C279 1.501 . S
C284 H285 0.961 . S
C284 H286 0.961 . S
C284 H287 0.960 . S
H285 C284 0.961 . S
H286 C284 0.961 . S
H287 C284 0.960 . S
C288 N289 1.342 . S
C288 C292 1.401 . S
C288 C293 1.499 . S
N289 Co272 1.989 . S
N289 C288 1.342 . S
N289 N290 1.388 . S
N290 Co273 1.993 . S
N290 N289 1.388 . S
N290 C291 1.346 . S
C291 N290 1.346 . S
C291 C292 1.396 . S
C291 C301 1.510 . S
C292 C288 1.401 . S
C292 C291 1.396 . S
C293 C288 1.499 . S
C293 H294 0.959 . S
C293 H295 0.960 . S
C293 H296 0.961 . S
H294 C293 0.959 . S
H295 C293 0.960 . S
H296 C293 0.961 . S
O297 Co272 1.967 . S
O297 C305 1.258 1_545 S
O298 Co273 1.941 . S
O298 C305 1.266 1_545 S
H299 C301 0.959 . S
H300 C301 0.961 . S
C301 C291 1.510 . S
C301 H299 0.959 . S
C301 H300 0.961 . S
C301 H302 0.960 . S
H302 C301 0.960 . S
H303 N283 0.862 . S
O304 Co272 1.920 . S
O304 C277 1.289 . S
C305 O297 1.258 1_565 S
C305 O298 1.266 1_565 S
Co306 O309 1.970 . S
Co306 N323 1.989 . S
Co306 O331 1.967 . S
Co306 O338 1.920 . S
Co307 O310 1.966 . S
Co307 N316 2.022 . S
Co307 N324 1.993 . S
Co307 O332 1.941 . S
C308 O309 1.258 . S
C308 O310 1.263 . S
O309 Co306 1.970 . S
O309 C308 1.258 . S
O310 Co307 1.966 . S
O310 C308 1.263 . S
C311 O312 1.235 . S
C311 O338 1.289 . S
O312 C311 1.235 . S
C313 C315 1.400 . S
C313 N316 1.351 . S
C313 C318 1.501 . S
C314 C315 1.387 . S
C314 N317 1.341 . S
C315 C313 1.400 . S
C315 C314 1.387 . S
N316 Co307 2.022 . S
N316 C313 1.351 . S
N316 N317 1.365 . S
N317 C314 1.341 . S
N317 N316 1.365 . S
N317 H337 0.862 . S
C318 C313 1.501 . S
C318 H319 0.961 . S
C318 H320 0.961 . S
C318 H321 0.960 . S
H319 C318 0.961 . S
H320 C318 0.961 . S
H321 C318 0.960 . S
C322 N323 1.342 . S
C322 C326 1.401 . S
C322 C327 1.499 . S
N323 Co306 1.989 . S
N323 C322 1.342 . S
N323 N324 1.388 . S
N324 Co307 1.993 . S
N324 N323 1.388 . S
N324 C325 1.346 . S
C325 N324 1.346 . S
C325 C326 1.396 . S
C325 C335 1.510 . S
C326 C322 1.401 . S
C326 C325 1.396 . S
C327 C322 1.499 . S
C327 H328 0.959 . S
C327 H329 0.960 . S
C327 H330 0.961 . S
H328 C327 0.959 . S
H329 C327 0.960 . S
H330 C327 0.961 . S
O331 Co306 1.967 . S
O331 C339 1.258 . S
O332 Co307 1.941 . S
O332 C339 1.266 . S
H333 C335 0.959 . S
H334 C335 0.961 . S
C335 C325 1.510 . S
C335 H333 0.959 . S
C335 H334 0.961 . S
C335 H336 0.960 . S
H336 C335 0.960 . S
H337 N317 0.862 . S
O338 Co306 1.920 . S
O338 C311 1.289 . S
C339 O331 1.258 . S
C339 O332 1.266 . S
Co340 O343 1.970 . S
Co340 N357 1.989 . S
Co340 O365 1.967 . S
Co340 O372 1.920 1_554 S
Co341 O344 1.966 . S
Co341 N350 2.022 . S
Co341 N358 1.993 . S
Co341 O366 1.941 . S
C342 O343 1.258 . S
C342 O344 1.263 . S
O343 Co340 1.970 . S
O343 C342 1.258 . S
O344 Co341 1.966 . S
O344 C342 1.263 . S
C345 O346 1.235 . S
C345 O372 1.289 . S
O346 C345 1.235 . S
C347 C349 1.400 . S
C347 N350 1.351 . S
C347 C352 1.501 . S
C348 C349 1.387 . S
C348 N351 1.341 . S
C349 C347 1.400 . S
C349 C348 1.387 . S
N350 Co341 2.022 . S
N350 C347 1.351 . S
N350 N351 1.365 . S
N351 C348 1.341 . S
N351 N350 1.365 . S
N351 H371 0.862 . S
C352 C347 1.501 . S
C352 H353 0.961 . S
C352 H354 0.961 . S
C352 H355 0.960 . S
H353 C352 0.961 . S
H354 C352 0.961 . S
H355 C352 0.960 . S
C356 N357 1.342 1_556 S
C356 C360 1.401 1_556 S
C356 C361 1.499 . S
N357 Co340 1.989 . S
N357 C356 1.342 1_554 S
N357 N358 1.388 . S
N358 Co341 1.993 . S
N358 N357 1.388 . S
N358 C359 1.346 . S
C359 N358 1.346 . S
C359 C360 1.396 . S
C359 C369 1.510 . S
C360 C356 1.401 1_554 S
C360 C359 1.396 . S
C361 C356 1.499 . S
C361 H362 0.959 . S
C361 H363 0.960 . S
C361 H364 0.961 . S
H362 C361 0.959 . S
H363 C361 0.960 . S
H364 C361 0.961 . S
O365 Co340 1.967 . S
O365 C373 1.258 1_655 S
O366 Co341 1.941 . S
O366 C373 1.266 1_655 S
H367 C369 0.959 . S
H368 C369 0.961 . S
C369 C359 1.510 . S
C369 H367 0.959 . S
C369 H368 0.961 . S
C369 H370 0.960 . S
H370 C369 0.960 . S
H371 N351 0.862 . S
O372 Co340 1.920 1_556 S
O372 C345 1.289 . S
C373 O365 1.258 1_455 S
C373 O366 1.266 1_455 S
Co374 O377 1.970 . S
Co374 N391 1.989 . S
Co374 O399 1.967 . S
Co374 O406 1.920 . S
Co375 O378 1.966 . S
Co375 N384 2.022 . S
Co375 N392 1.993 . S
Co375 O400 1.941 . S
C376 O377 1.258 . S
C376 O378 1.263 . S
O377 Co374 1.970 . S
O377 C376 1.258 . S
O378 Co375 1.966 . S
O378 C376 1.263 . S
C379 O380 1.235 . S
C379 O406 1.289 . S
O380 C379 1.235 . S
C381 C383 1.400 . S
C381 N384 1.351 . S
C381 C386 1.501 . S
C382 C383 1.387 . S
C382 N385 1.341 . S
C383 C381 1.400 . S
C383 C382 1.387 . S
N384 Co375 2.022 . S
N384 C381 1.351 . S
N384 N385 1.365 . S
N385 C382 1.341 . S
N385 N384 1.365 . S
N385 H405 0.862 . S
C386 C381 1.501 . S
C386 H387 0.961 . S
C386 H388 0.961 . S
C386 H389 0.960 . S
H387 C386 0.961 . S
H388 C386 0.961 . S
H389 C386 0.960 . S
C390 N391 1.342 . S
C390 C394 1.401 . S
C390 C395 1.499 . S
N391 Co374 1.989 . S
N391 C390 1.342 . S
N391 N392 1.388 . S
N392 Co375 1.993 . S
N392 N391 1.388 . S
N392 C393 1.346 . S
C393 N392 1.346 . S
C393 C394 1.396 . S
C393 C403 1.510 . S
C394 C390 1.401 . S
C394 C393 1.396 . S
C395 C390 1.499 . S
C395 H396 0.959 . S
C395 H397 0.960 . S
C395 H398 0.961 . S
H396 C395 0.959 . S
H397 C395 0.960 . S
H398 C395 0.961 . S
O399 Co374 1.967 . S
O399 C407 1.258 1_565 S
O400 Co375 1.941 . S
O400 C407 1.266 1_565 S
H401 C403 0.959 . S
H402 C403 0.961 . S
C403 C393 1.510 . S
C403 H401 0.959 . S
C403 H402 0.961 . S
C403 H404 0.960 . S
H404 C403 0.960 . S
H405 N385 0.862 . S
O406 Co374 1.920 . S
O406 C379 1.289 . S
C407 O399 1.258 1_545 S
C407 O400 1.266 1_545 S
C408 C409 1.349 . S
C408 C410 1.327 . S
C408 H433 0.950 . S
C409 C408 1.349 . S
C409 C425 1.349 . S
C410 C408 1.327 . S
C410 C429 1.429 . S
C410 H434 0.950 . S
C411 C428 1.574 . S
C411 C430 1.368 . S
C411 H435 0.949 . S
H412 C416 0.949 . S
C413 C414 1.349 . S
C413 C415 1.327 . S
C413 H436 0.950 . S
C414 C413 1.349 . S
C414 C426 1.349 . S
C415 C413 1.327 . S
C415 C431 1.429 . S
C415 H437 0.950 . S
C416 H412 0.949 . S
C416 C424 1.574 . S
C416 C432 1.368 . S
H417 C425 0.950 . S
H418 C423 0.950 . S
H419 C424 0.949 . S
H420 C426 0.950 . S
H421 C427 0.950 . S
H422 C428 0.949 . S
C423 H418 0.950 . S
C423 C425 1.327 . S
C423 C429 1.429 . S
C424 C416 1.574 . S
C424 H419 0.949 . S
C424 C430 1.368 . S
C425 C409 1.349 . S
C425 H417 0.950 . S
C425 C423 1.327 . S
C426 C414 1.349 . S
C426 H420 0.950 . S
C426 C427 1.327 . S
C427 H421 0.950 . S
C427 C426 1.327 . S
C427 C431 1.429 . S
C428 C411 1.574 . S
C428 H422 0.949 . S
C428 C432 1.368 . S
C429 C410 1.429 . S
C429 C423 1.429 . S
C429 C430 1.523 . S
C430 C411 1.368 . S
C430 C424 1.368 . S
C430 C429 1.523 . S
C431 C415 1.429 . S
C431 C427 1.429 . S
C431 C432 1.523 . S
C432 C416 1.368 . S
C432 C428 1.368 . S
C432 C431 1.523 . S
H433 C408 0.950 . S
H434 C410 0.950 . S
H435 C411 0.949 . S
H436 C413 0.950 . S
H437 C415 0.950 . S
C438 C439 1.349 . S
C438 C440 1.327 . S
C438 H463 0.950 . S
C439 C438 1.349 . S
C439 C455 1.349 . S
C440 C438 1.327 . S
C440 C459 1.429 . S
C440 H464 0.950 . S
C441 C458 1.574 . S
C441 C460 1.368 . S
C441 H465 0.949 . S
H442 C446 0.949 . S
C443 C444 1.349 . S
C443 C445 1.327 . S
C443 H466 0.950 . S
C444 C443 1.349 . S
C444 C456 1.349 . S
C445 C443 1.327 . S
C445 C461 1.429 . S
C445 H467 0.950 . S
C446 H442 0.949 . S
C446 C454 1.574 . S
C446 C462 1.368 . S
H447 C455 0.950 . S
H448 C453 0.950 . S
H449 C454 0.949 . S
H450 C456 0.950 . S
H451 C457 0.950 . S
H452 C458 0.949 . S
C453 H448 0.950 . S
C453 C455 1.327 . S
C453 C459 1.429 . S
C454 C446 1.574 . S
C454 H449 0.949 . S
C454 C460 1.368 . S
C455 C439 1.349 . S
C455 H447 0.950 . S
C455 C453 1.327 . S
C456 C444 1.349 . S
C456 H450 0.950 . S
C456 C457 1.327 . S
C457 H451 0.950 . S
C457 C456 1.327 . S
C457 C461 1.429 . S
C458 C441 1.574 . S
C458 H452 0.949 . S
C458 C462 1.368 . S
C459 C440 1.429 . S
C459 C453 1.429 . S
C459 C460 1.523 . S
C460 C441 1.368 . S
C460 C454 1.368 . S
C460 C459 1.523 . S
C461 C445 1.429 . S
C461 C457 1.429 . S
C461 C462 1.523 . S
C462 C446 1.368 . S
C462 C458 1.368 . S
C462 C461 1.523 . S
H463 C438 0.950 . S
H464 C440 0.950 . S
H465 C441 0.949 . S
H466 C443 0.950 . S
H467 C445 0.950 . S
C468 C469 1.349 . S
C468 C470 1.327 . S
C468 H493 0.950 . S
C469 C468 1.349 . S
C469 C485 1.349 . S
C470 C468 1.327 . S
C470 C489 1.429 . S
C470 H494 0.950 . S
C471 C488 1.574 . S
C471 C490 1.368 . S
C471 H495 0.949 . S
H472 C476 0.949 . S
C473 C474 1.349 . S
C473 C475 1.327 . S
C473 H496 0.950 1_556 S
C474 C473 1.349 . S
C474 C486 1.349 . S
C475 C473 1.327 . S
C475 C491 1.429 . S
C475 H497 0.950 . S
C476 H472 0.949 . S
C476 C484 1.574 . S
C476 C492 1.368 . S
H477 C485 0.950 . S
H478 C483 0.950 . S
H479 C484 0.949 . S
H480 C486 0.950 . S
H481 C487 0.950 . S
H482 C488 0.949 . S
C483 H478 0.950 . S
C483 C485 1.327 . S
C483 C489 1.429 . S
C484 C476 1.574 . S
C484 H479 0.949 . S
C484 C490 1.368 . S
C485 C469 1.349 . S
C485 H477 0.950 . S
C485 C483 1.327 . S
C486 C474 1.349 . S
C486 H480 0.950 . S
C486 C487 1.327 . S
C487 H481 0.950 . S
C487 C486 1.327 . S
C487 C491 1.429 . S
C488 C471 1.574 . S
C488 H482 0.949 . S
C488 C492 1.368 . S
C489 C470 1.429 . S
C489 C483 1.429 . S
C489 C490 1.523 . S
C490 C471 1.368 . S
C490 C484 1.368 . S
C490 C489 1.523 . S
C491 C475 1.429 . S
C491 C487 1.429 . S
C491 C492 1.523 . S
C492 C476 1.368 . S
C492 C488 1.368 . S
C492 C491 1.523 . S
H493 C468 0.950 . S
H494 C470 0.950 . S
H495 C471 0.949 . S
H496 C473 0.950 1_554 S
H497 C475 0.950 . S
C498 C499 1.349 1_556 S
C498 C500 1.327 1_556 S
C498 H523 0.950 . S
C499 C498 1.349 1_554 S
C499 C515 1.349 . S
C500 C498 1.327 1_554 S
C500 C519 1.429 . S
C500 H524 0.950 . S
C501 C518 1.574 . S
C501 C520 1.368 . S
C501 H525 0.949 . S
H502 C506 0.949 . S
C503 C504 1.349 . S
C503 C505 1.327 . S
C503 H526 0.950 . S
C504 C503 1.349 . S
C504 C516 1.349 . S
C505 C503 1.327 . S
C505 C521 1.429 . S
C505 H527 0.950 . S
C506 H502 0.949 . S
C506 C514 1.574 . S
C506 C522 1.368 . S
H507 C515 0.950 . S
H508 C513 0.950 . S
H509 C514 0.949 . S
H510 C516 0.950 . S
H511 C517 0.950 . S
H512 C518 0.949 . S
C513 H508 0.950 . S
C513 C515 1.327 . S
C513 C519 1.429 . S
C514 C506 1.574 . S
C514 H509 0.949 . S
C514 C520 1.368 . S
C515 C499 1.349 . S
C515 H507 0.950 . S
C515 C513 1.327 . S
C516 C504 1.349 . S
C516 H510 0.950 . S
C516 C517 1.327 . S
C517 H511 0.950 . S
C517 C516 1.327 . S
C517 C521 1.429 . S
C518 C501 1.574 . S
C518 H512 0.949 . S
C518 C522 1.368 . S
C519 C500 1.429 . S
C519 C513 1.429 . S
C519 C520 1.523 . S
C520 C501 1.368 . S
C520 C514 1.368 . S
C520 C519 1.523 . S
C521 C505 1.429 . S
C521 C517 1.429 . S
C521 C522 1.523 . S
C522 C506 1.368 . S
C522 C518 1.368 . S
C522 C521 1.523 . S
H523 C498 0.950 . S
H524 C500 0.950 . S
H525 C501 0.949 . S
H526 C503 0.950 . S
H527 C505 0.950 . S
C528 C529 1.349 . S
C528 C530 1.327 . S
C528 H553 0.950 . S
C529 C528 1.349 . S
C529 C545 1.349 . S
C530 C528 1.327 . S
C530 C549 1.429 . S
C530 H554 0.950 . S
C531 C548 1.574 . S
C531 C550 1.368 . S
C531 H555 0.949 . S
H532 C536 0.949 . S
C533 C534 1.349 . S
C533 C535 1.327 . S
C533 H556 0.950 . S
C534 C533 1.349 . S
C534 C546 1.349 . S
C535 C533 1.327 . S
C535 C551 1.429 . S
C535 H557 0.950 . S
C536 H532 0.949 . S
C536 C544 1.574 . S
C536 C552 1.368 . S
H537 C545 0.950 . S
H538 C543 0.950 . S
H539 C544 0.949 . S
H540 C546 0.950 . S
H541 C547 0.950 . S
H542 C548 0.949 . S
C543 H538 0.950 . S
C543 C545 1.327 . S
C543 C549 1.429 . S
C544 C536 1.574 . S
C544 H539 0.949 . S
C544 C550 1.368 . S
C545 C529 1.349 . S
C545 H537 0.950 . S
C545 C543 1.327 . S
C546 C534 1.349 . S
C546 H540 0.950 . S
C546 C547 1.327 . S
C547 H541 0.950 . S
C547 C546 1.327 . S
C547 C551 1.429 . S
C548 C531 1.574 . S
C548 H542 0.949 . S
C548 C552 1.368 . S
C549 C530 1.429 . S
C549 C543 1.429 . S
C549 C550 1.523 . S
C550 C531 1.368 . S
C550 C544 1.368 . S
C550 C549 1.523 . S
C551 C535 1.429 . S
C551 C547 1.429 . S
C551 C552 1.523 . S
C552 C536 1.368 . S
C552 C548 1.368 . S
C552 C551 1.523 . S
H553 C528 0.950 . S
H554 C530 0.950 . S
H555 C531 0.949 . S
H556 C533 0.950 . S
H557 C535 0.950 . S
C558 C559 1.349 . S
C558 C560 1.327 . S
C558 H583 0.950 . S
C559 C558 1.349 . S
C559 C575 1.349 . S
C560 C558 1.327 . S
C560 C579 1.429 . S
C560 H584 0.950 . S
C561 C578 1.574 . S
C561 C580 1.368 . S
C561 H585 0.949 . S
H562 C566 0.949 . S
C563 C564 1.349 . S
C563 C565 1.327 . S
C563 H586 0.950 . S
C564 C563 1.349 . S
C564 C576 1.349 . S
C565 C563 1.327 . S
C565 C581 1.429 . S
C565 H587 0.950 . S
C566 H562 0.949 . S
C566 C574 1.574 . S
C566 C582 1.368 . S
H567 C575 0.950 . S
H568 C573 0.950 . S
H569 C574 0.949 . S
H570 C576 0.950 . S
H571 C577 0.950 . S
H572 C578 0.949 . S
C573 H568 0.950 . S
C573 C575 1.327 . S
C573 C579 1.429 . S
C574 C566 1.574 . S
C574 H569 0.949 . S
C574 C580 1.368 . S
C575 C559 1.349 . S
C575 H567 0.950 . S
C575 C573 1.327 . S
C576 C564 1.349 . S
C576 H570 0.950 . S
C576 C577 1.327 . S
C577 H571 0.950 . S
C577 C576 1.327 . S
C577 C581 1.429 . S
C578 C561 1.574 . S
C578 H572 0.949 . S
C578 C582 1.368 . S
C579 C560 1.429 . S
C579 C573 1.429 . S
C579 C580 1.523 . S
C580 C561 1.368 . S
C580 C574 1.368 . S
C580 C579 1.523 . S
C581 C565 1.429 . S
C581 C577 1.429 . S
C581 C582 1.523 . S
C582 C566 1.368 . S
C582 C578 1.368 . S
C582 C581 1.523 . S
H583 C558 0.950 . S
H584 C560 0.950 . S
H585 C561 0.949 . S
H586 C563 0.950 . S
H587 C565 0.950 . S
C588 C589 1.349 . S
C588 C590 1.327 . S
C588 H613 0.950 . S
C589 C588 1.349 . S
C589 C605 1.349 . S
C590 C588 1.327 . S
C590 C609 1.429 . S
C590 H614 0.950 . S
C591 C608 1.574 . S
C591 C610 1.368 . S
C591 H615 0.949 . S
H592 C596 0.949 . S
C593 C594 1.349 . S
C593 C595 1.327 . S
C593 H616 0.950 . S
C594 C593 1.349 . S
C594 C606 1.349 . S
C595 C593 1.327 . S
C595 C611 1.429 . S
C595 H617 0.950 . S
C596 H592 0.949 . S
C596 C604 1.574 . S
C596 C612 1.368 . S
H597 C605 0.950 . S
H598 C603 0.950 . S
H599 C604 0.949 . S
H600 C606 0.950 . S
H601 C607 0.950 . S
H602 C608 0.949 . S
C603 H598 0.950 . S
C603 C605 1.327 . S
C603 C609 1.429 . S
C604 C596 1.574 . S
C604 H599 0.949 . S
C604 C610 1.368 . S
C605 C589 1.349 . S
C605 H597 0.950 . S
C605 C603 1.327 . S
C606 C594 1.349 . S
C606 H600 0.950 . S
C606 C607 1.327 . S
C607 H601 0.950 . S
C607 C606 1.327 . S
C607 C611 1.429 . S
C608 C591 1.574 . S
C608 H602 0.949 . S
C608 C612 1.368 . S
C609 C590 1.429 . S
C609 C603 1.429 . S
C609 C610 1.523 . S
C610 C591 1.368 . S
C610 C604 1.368 . S
C610 C609 1.523 . S
C611 C595 1.429 . S
C611 C607 1.429 . S
C611 C612 1.523 . S
C612 C596 1.368 . S
C612 C608 1.368 . S
C612 C611 1.523 . S
H613 C588 0.950 . S
H614 C590 0.950 . S
H615 C591 0.949 . S
H616 C593 0.950 . S
H617 C595 0.950 . S
C618 C619 1.349 . S
C618 C620 1.327 . S
C618 H643 0.950 . S
C619 C618 1.349 . S
C619 C635 1.349 . S
C620 C618 1.327 . S
C620 C639 1.429 . S
C620 H644 0.950 . S
C621 C638 1.574 . S
C621 C640 1.368 . S
C621 H645 0.949 . S
H622 C626 0.949 . S
C623 C624 1.349 . S
C623 C625 1.327 . S
C623 H646 0.950 . S
C624 C623 1.349 . S
C624 C636 1.349 . S
C625 C623 1.327 . S
C625 C641 1.429 . S
C625 H647 0.950 . S
C626 H622 0.949 . S
C626 C634 1.574 . S
C626 C642 1.368 . S
H627 C635 0.950 . S
H628 C633 0.950 . S
H629 C634 0.949 . S
H630 C636 0.950 . S
H631 C637 0.950 . S
H632 C638 0.949 . S
C633 H628 0.950 . S
C633 C635 1.327 . S
C633 C639 1.429 . S
C634 C626 1.574 . S
C634 H629 0.949 . S
C634 C640 1.368 . S
C635 C619 1.349 . S
C635 H627 0.950 . S
C635 C633 1.327 . S
C636 C624 1.349 . S
C636 H630 0.950 . S
C636 C637 1.327 . S
C637 H631 0.950 . S
C637 C636 1.327 . S
C637 C641 1.429 . S
C638 C621 1.574 . S
C638 H632 0.949 . S
C638 C642 1.368 . S
C639 C620 1.429 . S
C639 C633 1.429 . S
C639 C640 1.523 . S
C640 C621 1.368 . S
C640 C634 1.368 . S
C640 C639 1.523 . S
C641 C625 1.429 . S
C641 C637 1.429 . S
C641 C642 1.523 . S
C642 C626 1.368 . S
C642 C638 1.368 . S
C642 C641 1.523 . S
H643 C618 0.950 . S
H644 C620 0.950 . S
H645 C621 0.949 . S
H646 C623 0.950 . S
H647 C625 0.950 . S
C648 C649 1.349 . S
C648 C650 1.327 . S
C648 H673 0.950 . S
C649 C648 1.349 . S
C649 C665 1.349 . S
C650 C648 1.327 . S
C650 C669 1.429 . S
C650 H674 0.950 . S
C651 C668 1.574 . S
C651 C670 1.368 . S
C651 H675 0.949 . S
H652 C656 0.949 . S
C653 C654 1.349 . S
C653 C655 1.327 . S
C653 H676 0.950 . S
C654 C653 1.349 . S
C654 C666 1.349 . S
C655 C653 1.327 . S
C655 C671 1.429 . S
C655 H677 0.950 . S
C656 H652 0.949 . S
C656 C664 1.574 . S
C656 C672 1.368 . S
H657 C665 0.950 . S
H658 C663 0.950 . S
H659 C664 0.949 . S
H660 C666 0.950 . S
H661 C667 0.950 . S
H662 C668 0.949 . S
C663 H658 0.950 . S
C663 C665 1.327 . S
C663 C669 1.429 . S
C664 C656 1.574 . S
C664 H659 0.949 . S
C664 C670 1.368 . S
C665 C649 1.349 . S
C665 H657 0.950 . S
C665 C663 1.327 . S
C666 C654 1.349 . S
C666 H660 0.950 . S
C666 C667 1.327 . S
C667 H661 0.950 . S
C667 C666 1.327 . S
C667 C671 1.429 . S
C668 C651 1.574 . S
C668 H662 0.949 . S
C668 C672 1.368 . S
C669 C650 1.429 . S
C669 C663 1.429 . S
C669 C670 1.523 . S
C670 C651 1.368 . S
C670 C664 1.368 . S
C670 C669 1.523 . S
C671 C655 1.429 . S
C671 C667 1.429 . S
C671 C672 1.523 . S
C672 C656 1.368 . S
C672 C668 1.368 . S
C672 C671 1.523 . S
H673 C648 0.950 . S
H674 C650 0.950 . S
H675 C651 0.949 . S
H676 C653 0.950 . S
H677 C655 0.950 . S
C678 C679 1.349 . S
C678 C680 1.327 . S
C678 H703 0.950 . S
C679 C678 1.349 . S
C679 C695 1.349 . S
C680 C678 1.327 . S
C680 C699 1.429 . S
C680 H704 0.950 . S
C681 C698 1.574 . S
C681 C700 1.368 . S
C681 H705 0.949 . S
H682 C686 0.949 . S
C683 C684 1.349 . S
C683 C685 1.327 . S
C683 H706 0.950 . S
C684 C683 1.349 . S
C684 C696 1.349 . S
C685 C683 1.327 . S
C685 C701 1.429 . S
C685 H707 0.950 . S
C686 H682 0.949 . S
C686 C694 1.574 . S
C686 C702 1.368 . S
H687 C695 0.950 . S
H688 C693 0.950 . S
H689 C694 0.949 . S
H690 C696 0.950 . S
H691 C697 0.950 . S
H692 C698 0.949 . S
C693 H688 0.950 . S
C693 C695 1.327 . S
C693 C699 1.429 . S
C694 C686 1.574 . S
C694 H689 0.949 . S
C694 C700 1.368 . S
C695 C679 1.349 . S
C695 H687 0.950 . S
C695 C693 1.327 . S
C696 C684 1.349 . S
C696 H690 0.950 . S
C696 C697 1.327 . S
C697 H691 0.950 . S
C697 C696 1.327 . S
C697 C701 1.429 . S
C698 C681 1.574 . S
C698 H692 0.949 . S
C698 C702 1.368 . S
C699 C680 1.429 . S
C699 C693 1.429 . S
C699 C700 1.523 . S
C700 C681 1.368 . S
C700 C694 1.368 . S
C700 C699 1.523 . S
C701 C685 1.429 . S
C701 C697 1.429 . S
C701 C702 1.523 . S
C702 C686 1.368 . S
C702 C698 1.368 . S
C702 C701 1.523 . S
H703 C678 0.950 . S
H704 C680 0.950 . S
H705 C681 0.949 . S
H706 C683 0.950 . S
H707 C685 0.950 . S
C708 C709 1.349 . S
C708 C710 1.327 . S
C708 H733 0.950 . S
C709 C708 1.349 . S
C709 C725 1.349 . S
C710 C708 1.327 . S
C710 C729 1.429 . S
C710 H734 0.950 . S
C711 C728 1.574 . S
C711 C730 1.368 1_554 S
C711 H735 0.949 . S
H712 C716 0.949 . S
C713 C714 1.349 . S
C713 C715 1.327 . S
C713 H736 0.950 . S
C714 C713 1.349 . S
C714 C726 1.349 . S
C715 C713 1.327 . S
C715 C731 1.429 . S
C715 H737 0.950 . S
C716 H712 0.949 . S
C716 C724 1.574 . S
C716 C732 1.368 . S
H717 C725 0.950 . S
H718 C723 0.950 1_554 S
H719 C724 0.949 . S
H720 C726 0.950 1_556 S
H721 C727 0.950 . S
H722 C728 0.949 . S
C723 H718 0.950 1_556 S
C723 C725 1.327 . S
C723 C729 1.429 . S
C724 C716 1.574 . S
C724 H719 0.949 . S
C724 C730 1.368 . S
C725 C709 1.349 . S
C725 H717 0.950 . S
C725 C723 1.327 . S
C726 C714 1.349 . S
C726 H720 0.950 1_554 S
C726 C727 1.327 1_554 S
C727 H721 0.950 . S
C727 C726 1.327 1_556 S
C727 C731 1.429 1_556 S
C728 C711 1.574 . S
C728 H722 0.949 . S
C728 C732 1.368 1_554 S
C729 C710 1.429 . S
C729 C723 1.429 . S
C729 C730 1.523 . S
C730 C711 1.368 1_556 S
C730 C724 1.368 . S
C730 C729 1.523 . S
C731 C715 1.429 . S
C731 C727 1.429 1_554 S
C731 C732 1.523 1_554 S
C732 C716 1.368 . S
C732 C728 1.368 1_556 S
C732 C731 1.523 1_556 S
H733 C708 0.950 . S
H734 C710 0.950 . S
H735 C711 0.949 . S
H736 C713 0.950 . S
H737 C715 0.950 . S
C738 C739 1.349 . S
C738 C740 1.327 . S
C738 H763 0.950 . S
C739 C738 1.349 . S
C739 C755 1.349 . S
C740 C738 1.327 . S
C740 C759 1.429 . S
C740 H764 0.950 . S
C741 C758 1.574 . S
C741 C760 1.368 . S
C741 H765 0.949 . S
H742 C746 0.949 . S
C743 C744 1.349 . S
C743 C745 1.327 . S
C743 H766 0.950 . S
C744 C743 1.349 . S
C744 C756 1.349 . S
C745 C743 1.327 . S
C745 C761 1.429 . S
C745 H767 0.950 . S
C746 H742 0.949 . S
C746 C754 1.574 . S
C746 C762 1.368 . S
H747 C755 0.950 . S
H748 C753 0.950 . S
H749 C754 0.949 . S
H750 C756 0.950 . S
H751 C757 0.950 . S
H752 C758 0.949 . S
C753 H748 0.950 . S
C753 C755 1.327 . S
C753 C759 1.429 . S
C754 C746 1.574 . S
C754 H749 0.949 . S
C754 C760 1.368 . S
C755 C739 1.349 . S
C755 H747 0.950 . S
C755 C753 1.327 . S
C756 C744 1.349 . S
C756 H750 0.950 . S
C756 C757 1.327 . S
C757 H751 0.950 . S
C757 C756 1.327 . S
C757 C761 1.429 . S
C758 C741 1.574 . S
C758 H752 0.949 . S
C758 C762 1.368 . S
C759 C740 1.429 . S
C759 C753 1.429 . S
C759 C760 1.523 . S
C760 C741 1.368 . S
C760 C754 1.368 . S
C760 C759 1.523 . S
C761 C745 1.429 . S
C761 C757 1.429 . S
C761 C762 1.523 . S
C762 C746 1.368 . S
C762 C758 1.368 . S
C762 C761 1.523 . S
H763 C738 0.950 . S
H764 C740 0.950 . S
H765 C741 0.949 . S
H766 C743 0.950 . S
H767 C745 0.950 . S
C768 C769 1.349 . S
C768 C770 1.327 . S
C768 H793 0.950 . S
C769 C768 1.349 . S
C769 C785 1.349 . S
C770 C768 1.327 . S
C770 C789 1.429 . S
C770 H794 0.950 . S
C771 C788 1.574 . S
C771 C790 1.368 . S
C771 H795 0.949 . S
H772 C776 0.949 . S
C773 C774 1.349 . S
C773 C775 1.327 . S
C773 H796 0.950 . S
C774 C773 1.349 . S
C774 C786 1.349 . S
C775 C773 1.327 . S
C775 C791 1.429 . S
C775 H797 0.950 . S
C776 H772 0.949 . S
C776 C784 1.574 . S
C776 C792 1.368 . S
H777 C785 0.950 . S
H778 C783 0.950 . S
H779 C784 0.949 . S
H780 C786 0.950 . S
H781 C787 0.950 . S
H782 C788 0.949 . S
C783 H778 0.950 . S
C783 C785 1.327 . S
C783 C789 1.429 . S
C784 C776 1.574 . S
C784 H779 0.949 . S
C784 C790 1.368 . S
C785 C769 1.349 . S
C785 H777 0.950 . S
C785 C783 1.327 . S
C786 C774 1.349 . S
C786 H780 0.950 . S
C786 C787 1.327 . S
C787 H781 0.950 . S
C787 C786 1.327 . S
C787 C791 1.429 . S
C788 C771 1.574 . S
C788 H782 0.949 . S
C788 C792 1.368 . S
C789 C770 1.429 . S
C789 C783 1.429 . S
C789 C790 1.523 . S
C790 C771 1.368 . S
C790 C784 1.368 . S
C790 C789 1.523 . S
C791 C775 1.429 . S
C791 C787 1.429 . S
C791 C792 1.523 . S
C792 C776 1.368 . S
C792 C788 1.368 . S
C792 C791 1.523 . S
H793 C768 0.950 . S
H794 C770 0.950 . S
H795 C771 0.949 . S
H796 C773 0.950 . S
H797 C775 0.950 . S
C798 C799 1.349 . S
C798 C800 1.327 . S
C798 H823 0.950 . S
C799 C798 1.349 . S
C799 C815 1.349 . S
C800 C798 1.327 . S
C800 C819 1.429 . S
C800 H824 0.950 . S
C801 C818 1.574 . S
C801 C820 1.368 . S
C801 H825 0.949 . S
H802 C806 0.949 . S
C803 C804 1.349 . S
C803 C805 1.327 . S
C803 H826 0.950 . S
C804 C803 1.349 . S
C804 C816 1.349 . S
C805 C803 1.327 . S
C805 C821 1.429 . S
C805 H827 0.950 . S
C806 H802 0.949 . S
C806 C814 1.574 . S
C806 C822 1.368 . S
H807 C815 0.950 . S
H808 C813 0.950 . S
H809 C814 0.949 . S
H810 C816 0.950 . S
H811 C817 0.950 . S
H812 C818 0.949 . S
C813 H808 0.950 . S
C813 C815 1.327 . S
C813 C819 1.429 . S
C814 C806 1.574 . S
C814 H809 0.949 . S
C814 C820 1.368 . S
C815 C799 1.349 . S
C815 H807 0.950 . S
C815 C813 1.327 . S
C816 C804 1.349 . S
C816 H810 0.950 . S
C816 C817 1.327 . S
C817 H811 0.950 . S
C817 C816 1.327 . S
C817 C821 1.429 . S
C818 C801 1.574 . S
C818 H812 0.949 . S
C818 C822 1.368 . S
C819 C800 1.429 . S
C819 C813 1.429 . S
C819 C820 1.523 . S
C820 C801 1.368 . S
C820 C814 1.368 . S
C820 C819 1.523 . S
C821 C805 1.429 . S
C821 C817 1.429 . S
C821 C822 1.523 . S
C822 C806 1.368 . S
C822 C818 1.368 . S
C822 C821 1.523 . S
H823 C798 0.950 . S
H824 C800 0.950 . S
H825 C801 0.949 . S
H826 C803 0.950 . S
H827 C805 0.950 . S
C828 C829 1.349 . S
C828 C830 1.327 . S
C828 H853 0.950 . S
C829 C828 1.349 . S
C829 C845 1.349 . S
C830 C828 1.327 . S
C830 C849 1.429 . S
C830 H854 0.950 . S
C831 C848 1.574 . S
C831 C850 1.368 . S
C831 H855 0.949 . S
H832 C836 0.949 . S
C833 C834 1.349 . S
C833 C835 1.327 . S
C833 H856 0.950 . S
C834 C833 1.349 . S
C834 C846 1.349 . S
C835 C833 1.327 . S
C835 C851 1.429 . S
C835 H857 0.950 . S
C836 H832 0.949 . S
C836 C844 1.574 . S
C836 C852 1.368 . S
H837 C845 0.950 . S
H838 C843 0.950 . S
H839 C844 0.949 . S
H840 C846 0.950 . S
H841 C847 0.950 . S
H842 C848 0.949 . S
C843 H838 0.950 . S
C843 C845 1.327 . S
C843 C849 1.429 . S
C844 C836 1.574 . S
C844 H839 0.949 . S
C844 C850 1.368 . S
C845 C829 1.349 . S
C845 H837 0.950 . S
C845 C843 1.327 . S
C846 C834 1.349 . S
C846 H840 0.950 . S
C846 C847 1.327 . S
C847 H841 0.950 . S
C847 C846 1.327 . S
C847 C851 1.429 . S
C848 C831 1.574 . S
C848 H842 0.949 . S
C848 C852 1.368 . S
C849 C830 1.429 . S
C849 C843 1.429 . S
C849 C850 1.523 . S
C850 C831 1.368 . S
C850 C844 1.368 . S
C850 C849 1.523 . S
C851 C835 1.429 . S
C851 C847 1.429 . S
C851 C852 1.523 . S
C852 C836 1.368 . S
C852 C848 1.368 . S
C852 C851 1.523 . S
H853 C828 0.950 . S
H854 C830 0.950 . S
H855 C831 0.949 . S
H856 C833 0.950 . S
H857 C835 0.950 . S
C858 C859 1.349 . S
C858 C860 1.327 . S
C858 H883 0.950 . S
C859 C858 1.349 . S
C859 C875 1.349 . S
C860 C858 1.327 . S
C860 C879 1.429 . S
C860 H884 0.950 . S
C861 C878 1.574 1_554 S
C861 C880 1.368 . S
C861 H885 0.949 1_554 S
H862 C866 0.949 . S
C863 C864 1.349 . S
C863 C865 1.327 . S
C863 H886 0.950 . S
C864 C863 1.349 . S
C864 C876 1.349 . S
C865 C863 1.327 . S
C865 C881 1.429 . S
C865 H887 0.950 . S
C866 H862 0.949 . S
C866 C874 1.574 . S
C866 C882 1.368 . S
H867 C875 0.950 . S
H868 C873 0.950 . S
H869 C874 0.949 . S
H870 C876 0.950 . S
H871 C877 0.965 . S
H872 C878 0.949 . S
C873 H868 0.950 . S
C873 C875 1.327 . S
C873 C879 1.429 . S
C874 C866 1.574 . S
C874 H869 0.949 . S
C874 C880 1.368 . S
C875 C859 1.349 . S
C875 H867 0.950 . S
C875 C873 1.327 . S
C876 C864 1.349 . S
C876 H870 0.950 . S
C876 C877 1.319 1_556 S
C877 H871 0.965 . S
C877 C876 1.319 1_554 S
C877 C881 1.422 1_554 S
C878 C861 1.574 1_556 S
C878 H872 0.949 . S
C878 C882 1.368 1_556 S
C879 C860 1.429 . S
C879 C873 1.429 . S
C879 C880 1.523 . S
C880 C861 1.368 . S
C880 C874 1.368 . S
C880 C879 1.523 . S
C881 C865 1.429 . S
C881 C877 1.422 1_556 S
C881 C882 1.523 1_556 S
C882 C866 1.368 . S
C882 C878 1.368 1_554 S
C882 C881 1.523 1_554 S
H883 C858 0.950 . S
H884 C860 0.950 . S
H885 C861 0.949 1_556 S
H886 C863 0.950 . S
H887 C865 0.950 . S
C888 C889 1.349 . S
C888 C890 1.327 . S
C888 H913 0.950 . S
C889 C888 1.349 . S
C889 C905 1.349 . S
C890 C888 1.327 . S
C890 C909 1.429 . S
C890 H914 0.950 . S
C891 C908 1.574 . S
C891 C910 1.368 . S
C891 H915 0.949 . S
H892 C896 0.949 . S
C893 C894 1.349 . S
C893 C895 1.327 . S
C893 H916 0.950 . S
C894 C893 1.349 . S
C894 C906 1.349 . S
C895 C893 1.327 . S
C895 C911 1.429 . S
C895 H917 0.950 . S
C896 H892 0.949 . S
C896 C904 1.574 . S
C896 C912 1.368 . S
H897 C905 0.950 . S
H898 C903 0.950 . S
H899 C904 0.949 . S
H900 C906 0.950 . S
H901 C907 0.950 . S
H902 C908 0.949 . S
C903 H898 0.950 . S
C903 C905 1.327 . S
C903 C909 1.429 . S
C904 C896 1.574 . S
C904 H899 0.949 . S
C904 C910 1.368 . S
C905 C889 1.349 . S
C905 H897 0.950 . S
C905 C903 1.327 . S
C906 C894 1.349 . S
C906 H900 0.950 . S
C906 C907 1.327 . S
C907 H901 0.950 . S
C907 C906 1.327 . S
C907 C911 1.429 . S
C908 C891 1.574 . S
C908 H902 0.949 . S
C908 C912 1.368 . S
C909 C890 1.429 . S
C909 C903 1.429 . S
C909 C910 1.523 . S
C910 C891 1.368 . S
C910 C904 1.368 . S
C910 C909 1.523 . S
C911 C895 1.429 . S
C911 C907 1.429 . S
C911 C912 1.523 . S
C912 C896 1.368 . S
C912 C908 1.368 . S
C912 C911 1.523 . S
H913 C888 0.950 . S
H914 C890 0.950 . S
H915 C891 0.949 . S
H916 C893 0.950 . S
H917 C895 0.950 . S
C918 C919 1.349 . S
C918 C920 1.327 . S
C918 H943 0.950 . S
C919 C918 1.349 . S
C919 C935 1.349 . S
C920 C918 1.327 . S
C920 C939 1.429 . S
C920 H944 0.950 . S
C921 C938 1.574 . S
C921 C940 1.368 . S
C921 H945 0.949 . S
H922 C926 0.949 . S
C923 C924 1.349 . S
C923 C925 1.327 . S
C923 H946 0.950 . S
C924 C923 1.349 . S
C924 C936 1.349 . S
C925 C923 1.327 . S
C925 C941 1.429 . S
C925 H947 0.950 . S
C926 H922 0.949 . S
C926 C934 1.574 . S
C926 C942 1.368 . S
H927 C935 0.950 . S
H928 C933 0.950 . S
H929 C934 0.949 . S
H930 C936 0.950 . S
H931 C937 0.950 . S
H932 C938 0.949 . S
C933 H928 0.950 . S
C933 C935 1.327 . S
C933 C939 1.429 . S
C934 C926 1.574 . S
C934 H929 0.949 . S
C934 C940 1.368 . S
C935 C919 1.349 . S
C935 H927 0.950 . S
C935 C933 1.327 . S
C936 C924 1.349 . S
C936 H930 0.950 . S
C936 C937 1.327 . S
C937 H931 0.950 . S
C937 C936 1.327 . S
C937 C941 1.429 . S
C938 C921 1.574 . S
C938 H932 0.949 . S
C938 C942 1.368 . S
C939 C920 1.429 . S
C939 C933 1.429 . S
C939 C940 1.523 . S
C940 C921 1.368 . S
C940 C934 1.368 . S
C940 C939 1.523 . S
C941 C925 1.429 . S
C941 C937 1.429 . S
C941 C942 1.523 . S
C942 C926 1.368 . S
C942 C938 1.368 . S
C942 C941 1.523 . S
H943 C918 0.950 . S
H944 C920 0.950 . S
H945 C921 0.949 . S
H946 C923 0.950 . S
H947 C925 0.950 . S
C948 C949 1.349 . S
C948 C950 1.327 . S
C948 H973 0.950 . S
C949 C948 1.349 . S
C949 C965 1.349 . S
C950 C948 1.327 . S
C950 C969 1.429 . S
C950 H974 0.950 . S
C951 C968 1.574 . S
C951 C970 1.368 . S
C951 H975 0.949 . S
H952 C956 0.949 . S
C953 C954 1.349 . S
C953 C955 1.327 . S
C953 H976 0.950 . S
C954 C953 1.349 . S
C954 C966 1.349 . S
C955 C953 1.327 . S
C955 C971 1.429 . S
C955 H977 0.950 . S
C956 H952 0.949 . S
C956 C964 1.574 . S
C956 C972 1.368 . S
H957 C965 0.950 . S
H958 C963 0.950 . S
H959 C964 0.949 . S
H960 C966 0.950 . S
H961 C967 0.950 . S
H962 C968 0.949 . S
C963 H958 0.950 . S
C963 C965 1.327 . S
C963 C969 1.429 . S
C964 C956 1.574 . S
C964 H959 0.949 . S
C964 C970 1.368 . S
C965 C949 1.349 . S
C965 H957 0.950 . S
C965 C963 1.327 . S
C966 C954 1.349 . S
C966 H960 0.950 . S
C966 C967 1.327 . S
C967 H961 0.950 . S
C967 C966 1.327 . S
C967 C971 1.429 . S
C968 C951 1.574 . S
C968 H962 0.949 . S
C968 C972 1.368 . S
C969 C950 1.429 . S
C969 C963 1.429 . S
C969 C970 1.523 . S
C970 C951 1.368 . S
C970 C964 1.368 . S
C970 C969 1.523 . S
C971 C955 1.429 . S
C971 C967 1.429 . S
C971 C972 1.523 . S
C972 C956 1.368 . S
C972 C968 1.368 . S
C972 C971 1.523 . S
H973 C948 0.950 . S
H974 C950 0.950 . S
H975 C951 0.949 . S
H976 C953 0.950 . S
H977 C955 0.950 . S
C978 C979 1.349 . S
C978 C980 1.327 . S
C978 H1003 0.950 . S
C979 C978 1.349 . S
C979 C995 1.349 . S
C980 C978 1.327 . S
C980 C999 1.429 . S
C980 H1004 0.950 . S
C981 C998 1.574 . S
C981 C1000 1.368 . S
C981 H1005 0.949 . S
H982 C986 0.949 . S
C983 C984 1.349 . S
C983 C985 1.327 . S
C983 H1006 0.950 . S
C984 C983 1.349 . S
C984 C996 1.349 . S
C985 C983 1.327 . S
C985 C1001 1.429 . S
C985 H1007 0.950 . S
C986 H982 0.949 . S
C986 C994 1.574 . S
C986 C1002 1.368 . S
H987 C995 0.950 . S
H988 C993 0.950 . S
H989 C994 0.949 . S
H990 C996 0.950 . S
H991 C997 0.950 . S
H992 C998 0.949 . S
C993 H988 0.950 . S
C993 C995 1.327 . S
C993 C999 1.429 . S
C994 C986 1.574 . S
C994 H989 0.949 . S
C994 C1000 1.368 . S
C995 C979 1.349 . S
C995 H987 0.950 . S
C995 C993 1.327 . S
C996 C984 1.349 . S
C996 H990 0.950 . S
C996 C997 1.327 . S
C997 H991 0.950 . S
C997 C996 1.327 . S
C997 C1001 1.429 . S
C998 C981 1.574 . S
C998 H992 0.949 . S
C998 C1002 1.368 . S
C999 C980 1.429 . S
C999 C993 1.429 . S
C999 C1000 1.523 . S
C1000 C981 1.368 . S
C1000 C994 1.368 . S
C1000 C999 1.523 . S
C1001 C985 1.429 . S
C1001 C997 1.429 . S
C1001 C1002 1.523 . S
C1002 C986 1.368 . S
C1002 C998 1.368 . S
C1002 C1001 1.523 . S
H1003 C978 0.950 . S
H1004 C980 0.950 . S
H1005 C981 0.949 . S
H1006 C983 0.950 . S
H1007 C985 0.950 . S
C1008 C1009 1.349 . S
C1008 C1010 1.327 . S
C1008 H1033 0.950 . S
C1009 C1008 1.349 . S
C1009 C1025 1.349 . S
C1010 C1008 1.327 . S
C1010 C1029 1.429 . S
C1010 H1034 0.950 . S
C1011 C1028 1.574 . S
C1011 C1030 1.368 . S
C1011 H1035 0.949 . S
H1012 C1016 0.949 . S
C1013 C1014 1.349 . S
C1013 C1015 1.327 . S
C1013 H1036 0.950 . S
C1014 C1013 1.349 . S
C1014 C1026 1.349 . S
C1015 C1013 1.327 . S
C1015 C1031 1.429 . S
C1015 H1037 0.950 . S
C1016 H1012 0.949 . S
C1016 C1024 1.574 . S
C1016 C1032 1.368 . S
H1017 C1025 0.950 . S
H1018 C1023 0.950 . S
H1019 C1024 0.949 . S
H1020 C1026 0.950 . S
H1021 C1027 0.950 . S
H1022 C1028 0.949 . S
C1023 H1018 0.950 . S
C1023 C1025 1.327 . S
C1023 C1029 1.429 . S
C1024 C1016 1.574 . S
C1024 H1019 0.949 . S
C1024 C1030 1.368 . S
C1025 C1009 1.349 . S
C1025 H1017 0.950 . S
C1025 C1023 1.327 . S
C1026 C1014 1.349 . S
C1026 H1020 0.950 . S
C1026 C1027 1.327 . S
C1027 H1021 0.950 . S
C1027 C1026 1.327 . S
C1027 C1031 1.429 . S
C1028 C1011 1.574 . S
C1028 H1022 0.949 . S
C1028 C1032 1.368 . S
C1029 C1010 1.429 . S
C1029 C1023 1.429 . S
C1029 C1030 1.523 . S
C1030 C1011 1.368 . S
C1030 C1024 1.368 . S
C1030 C1029 1.523 . S
C1031 C1015 1.429 . S
C1031 C1027 1.429 . S
C1031 C1032 1.523 . S
C1032 C1016 1.368 . S
C1032 C1028 1.368 . S
C1032 C1031 1.523 . S
H1033 C1008 0.950 . S
H1034 C1010 0.950 . S
H1035 C1011 0.949 . S
H1036 C1013 0.950 . S
H1037 C1015 0.950 . S
C1038 C1039 1.349 . S
C1038 C1040 1.327 . S
C1038 H1063 0.950 . S
C1039 C1038 1.349 . S
C1039 C1055 1.349 . S
C1040 C1038 1.327 . S
C1040 C1059 1.429 . S
C1040 H1064 0.950 . S
C1041 C1058 1.574 . S
C1041 C1060 1.368 . S
C1041 H1065 0.949 . S
H1042 C1046 0.949 . S
C1043 C1044 1.349 . S
C1043 C1045 1.327 . S
C1043 H1066 0.950 . S
C1044 C1043 1.349 . S
C1044 C1056 1.349 . S
C1045 C1043 1.327 . S
C1045 C1061 1.429 . S
C1045 H1067 0.950 . S
C1046 H1042 0.949 . S
C1046 C1054 1.574 . S
C1046 C1062 1.368 . S
H1047 C1055 0.950 . S
H1048 C1053 0.950 . S
H1049 C1054 0.949 . S
H1050 C1056 0.950 . S
H1051 C1057 0.950 . S
H1052 C1058 0.949 . S
C1053 H1048 0.950 . S
C1053 C1055 1.327 . S
C1053 C1059 1.429 . S
C1054 C1046 1.574 . S
C1054 H1049 0.949 . S
C1054 C1060 1.368 . S
C1055 C1039 1.349 . S
C1055 H1047 0.950 . S
C1055 C1053 1.327 . S
C1056 C1044 1.349 . S
C1056 H1050 0.950 . S
C1056 C1057 1.327 . S
C1057 H1051 0.950 . S
C1057 C1056 1.327 . S
C1057 C1061 1.429 . S
C1058 C1041 1.574 . S
C1058 H1052 0.949 . S
C1058 C1062 1.368 . S
C1059 C1040 1.429 . S
C1059 C1053 1.429 . S
C1059 C1060 1.523 . S
C1060 C1041 1.368 . S
C1060 C1054 1.368 . S
C1060 C1059 1.523 . S
C1061 C1045 1.429 . S
C1061 C1057 1.429 . S
C1061 C1062 1.523 . S
C1062 C1046 1.368 . S
C1062 C1058 1.368 . S
C1062 C1061 1.523 . S
H1063 C1038 0.950 . S
H1064 C1040 0.950 . S
H1065 C1041 0.949 . S
H1066 C1043 0.950 . S
H1067 C1045 0.950 . S
C1068 C1069 1.349 . S
C1068 C1070 1.327 . S
C1068 H1093 0.950 . S
C1069 C1068 1.349 . S
C1069 C1085 1.349 . S
C1070 C1068 1.327 . S
C1070 C1089 1.429 . S
C1070 H1094 0.950 . S
C1071 C1088 1.574 . S
C1071 C1090 1.368 . S
C1071 H1095 0.993 . S
H1072 C1076 0.949 . S
C1073 C1074 1.349 . S
C1073 C1075 1.327 . S
C1073 H1096 0.950 . S
C1074 C1073 1.349 . S
C1074 C1086 1.349 . S
C1075 C1073 1.327 . S
C1075 C1091 1.429 . S
C1075 H1097 0.950 . S
C1076 H1072 0.949 . S
C1076 C1084 1.574 . S
C1076 C1092 1.368 . S
H1077 C1085 0.950 . S
H1078 C1083 0.950 . S
H1079 C1084 0.949 . S
H1080 C1086 0.950 . S
H1081 C1087 0.950 . S
H1082 C1088 0.968 . S
C1083 H1078 0.950 . S
C1083 C1085 1.327 . S
C1083 C1089 1.429 . S
C1084 C1076 1.574 . S
C1084 H1079 0.949 . S
C1084 C1090 1.368 . S
C1085 C1069 1.349 . S
C1085 H1077 0.950 . S
C1085 C1083 1.327 . S
C1086 C1074 1.349 . S
C1086 H1080 0.950 . S
C1086 C1087 1.327 . S
C1087 H1081 0.950 . S
C1087 C1086 1.327 . S
C1087 C1091 1.429 . S
C1088 C1071 1.574 . S
C1088 H1082 0.968 . S
C1088 C1092 1.368 . S
C1089 C1070 1.429 . S
C1089 C1083 1.429 . S
C1089 C1090 1.523 . S
C1090 C1071 1.368 . S
C1090 C1084 1.368 . S
C1090 C1089 1.523 . S
C1091 C1075 1.429 . S
C1091 C1087 1.429 . S
C1091 C1092 1.523 . S
C1092 C1076 1.368 . S
C1092 C1088 1.368 . S
C1092 C1091 1.523 . S
H1093 C1068 0.950 . S
H1094 C1070 0.950 . S
H1095 C1071 0.993 . S
H1096 C1073 0.950 . S
H1097 C1075 0.950 . S
C1098 C1099 1.349 . S
C1098 C1100 1.327 . S
C1098 H1123 0.950 . S
C1099 C1098 1.349 . S
C1099 C1115 1.349 . S
C1100 C1098 1.327 . S
C1100 C1119 1.429 . S
C1100 H1124 0.950 . S
C1101 C1118 1.574 . S
C1101 C1120 1.368 . S
C1101 H1125 0.949 . S
H1102 C1106 0.949 . S
C1103 C1104 1.349 . S
C1103 C1105 1.327 . S
C1103 H1126 0.950 . S
C1104 C1103 1.349 . S
C1104 C1116 1.349 . S
C1105 C1103 1.327 . S
C1105 C1121 1.429 . S
C1105 H1127 0.950 . S
C1106 H1102 0.949 . S
C1106 C1114 1.574 . S
C1106 C1122 1.368 . S
H1107 C1115 0.950 . S
H1108 C1113 0.950 . S
H1109 C1114 0.949 . S
H1110 C1116 0.950 . S
H1111 C1117 0.950 . S
H1112 C1118 0.949 . S
C1113 H1108 0.950 . S
C1113 C1115 1.327 . S
C1113 C1119 1.429 . S
C1114 C1106 1.574 . S
C1114 H1109 0.949 . S
C1114 C1120 1.368 . S
C1115 C1099 1.349 . S
C1115 H1107 0.950 . S
C1115 C1113 1.327 . S
C1116 C1104 1.349 . S
C1116 H1110 0.950 . S
C1116 C1117 1.327 . S
C1117 H1111 0.950 . S
C1117 C1116 1.327 . S
C1117 C1121 1.429 . S
C1118 C1101 1.574 . S
C1118 H1112 0.949 . S
C1118 C1122 1.368 . S
C1119 C1100 1.429 . S
C1119 C1113 1.429 . S
C1119 C1120 1.523 . S
C1120 C1101 1.368 . S
C1120 C1114 1.368 . S
C1120 C1119 1.523 . S
C1121 C1105 1.429 . S
C1121 C1117 1.429 . S
C1121 C1122 1.523 . S
C1122 C1106 1.368 . S
C1122 C1118 1.368 . S
C1122 C1121 1.523 . S
H1123 C1098 0.950 . S
H1124 C1100 0.950 . S
H1125 C1101 0.949 . S
H1126 C1103 0.950 . S
H1127 C1105 0.950 . S
C1128 C1129 1.349 . S
C1128 C1130 1.327 . S
C1128 H1153 0.950 . S
C1129 C1128 1.349 . S
C1129 C1145 1.349 . S
C1130 C1128 1.327 . S
C1130 C1149 1.429 . S
C1130 H1154 0.950 . S
C1131 C1148 1.574 . S
C1131 C1150 1.368 . S
C1131 H1155 0.949 . S
H1132 C1136 0.949 . S
C1133 C1134 1.349 . S
C1133 C1135 1.327 . S
C1133 H1156 0.950 . S
C1134 C1133 1.349 . S
C1134 C1146 1.349 . S
C1135 C1133 1.327 . S
C1135 C1151 1.429 . S
C1135 H1157 0.950 . S
C1136 H1132 0.949 . S
C1136 C1144 1.574 . S
C1136 C1152 1.368 . S
H1137 C1145 0.950 . S
H1138 C1143 0.950 . S
H1139 C1144 0.949 . S
H1140 C1146 0.950 . S
H1141 C1147 0.950 . S
H1142 C1148 0.949 . S
C1143 H1138 0.950 . S
C1143 C1145 1.327 . S
C1143 C1149 1.429 . S
C1144 C1136 1.574 . S
C1144 H1139 0.949 . S
C1144 C1150 1.368 . S
C1145 C1129 1.349 . S
C1145 H1137 0.950 . S
C1145 C1143 1.327 . S
C1146 C1134 1.349 . S
C1146 H1140 0.950 . S
C1146 C1147 1.327 . S
C1147 H1141 0.950 . S
C1147 C1146 1.327 . S
C1147 C1151 1.429 . S
C1148 C1131 1.574 . S
C1148 H1142 0.949 . S
C1148 C1152 1.368 . S
C1149 C1130 1.429 . S
C1149 C1143 1.429 . S
C1149 C1150 1.523 . S
C1150 C1131 1.368 . S
C1150 C1144 1.368 . S
C1150 C1149 1.523 . S
C1151 C1135 1.429 . S
C1151 C1147 1.429 . S
C1151 C1152 1.523 . S
C1152 C1136 1.368 . S
C1152 C1148 1.368 . S
C1152 C1151 1.523 . S
H1153 C1128 0.950 . S
H1154 C1130 0.950 . S
H1155 C1131 0.949 . S
H1156 C1133 0.950 . S
H1157 C1135 0.950 . S
C1158 C1159 1.349 . S
C1158 C1160 1.327 . S
C1158 H1183 0.950 . S
C1159 C1158 1.349 . S
C1159 C1175 1.349 . S
C1160 C1158 1.327 . S
C1160 C1179 1.429 . S
C1160 H1184 0.950 1_455 S
C1161 C1178 1.574 . S
C1161 C1180 1.368 . S
C1161 H1185 0.949 . S
H1162 C1166 0.949 . S
C1163 C1164 1.349 . S
C1163 C1165 1.327 . S
C1163 H1186 0.950 . S
C1164 C1163 1.349 . S
C1164 C1176 1.349 . S
C1165 C1163 1.327 . S
C1165 C1181 1.429 . S
C1165 H1187 0.950 1_655 S
C1166 H1162 0.949 . S
C1166 C1174 1.574 . S
C1166 C1182 1.368 . S
H1167 C1175 0.950 . S
H1168 C1173 0.950 . S
H1169 C1174 0.949 . S
H1170 C1176 0.950 . S
H1171 C1177 0.950 . S
H1172 C1178 0.949 . S
C1173 H1168 0.950 . S
C1173 C1175 1.327 . S
C1173 C1179 1.429 . S
C1174 C1166 1.574 . S
C1174 H1169 0.949 . S
C1174 C1180 1.368 1_655 S
C1175 C1159 1.349 . S
C1175 H1167 0.950 . S
C1175 C1173 1.327 . S
C1176 C1164 1.349 . S
C1176 H1170 0.950 . S
C1176 C1177 1.327 . S
C1177 H1171 0.950 . S
C1177 C1176 1.327 . S
C1177 C1181 1.429 . S
C1178 C1161 1.574 . S
C1178 H1172 0.949 . S
C1178 C1182 1.368 1_455 S
C1179 C1160 1.429 . S
C1179 C1173 1.429 . S
C1179 C1180 1.523 . S
C1180 C1161 1.368 . S
C1180 C1174 1.368 1_455 S
C1180 C1179 1.523 . S
C1181 C1165 1.429 . S
C1181 C1177 1.429 . S
C1181 C1182 1.523 . S
C1182 C1166 1.368 . S
C1182 C1178 1.368 1_655 S
C1182 C1181 1.523 . S
H1183 C1158 0.950 . S
H1184 C1160 0.950 1_655 S
H1185 C1161 0.949 . S
H1186 C1163 0.950 . S
H1187 C1165 0.950 1_455 S
C1188 C1189 1.349 . S
C1188 C1190 1.327 . S
C1188 H1213 0.950 . S
C1189 C1188 1.349 . S
C1189 C1205 1.310 1_545 S
C1190 C1188 1.327 . S
C1190 C1209 1.429 . S
C1190 H1214 0.950 . S
C1191 C1208 1.574 1_556 S
C1191 C1210 1.368 1_565 S
C1191 H1215 0.949 . S
H1192 C1196 0.949 . S
C1193 C1194 1.349 . S
C1193 C1195 1.327 . S
C1193 H1216 0.950 . S
C1194 C1193 1.349 . S
C1194 C1206 1.309 1_565 S
C1195 C1193 1.327 . S
C1195 C1211 1.429 . S
C1195 H1217 0.950 . S
C1196 H1192 0.949 . S
C1196 C1204 1.574 1_554 S
C1196 C1212 1.368 1_545 S
H1197 C1205 0.982 . S
H1198 C1203 0.950 . S
H1199 C1204 0.949 . S
H1200 C1206 0.983 . S
H1201 C1207 0.950 . S
H1202 C1208 0.949 . S
C1203 H1198 0.950 . S
C1203 C1205 1.335 . S
C1203 C1209 1.429 1_565 S
C1204 C1196 1.574 1_556 S
C1204 H1199 0.949 . S
C1204 C1210 1.368 . S
C1205 C1189 1.310 1_565 S
C1205 H1197 0.982 . S
C1205 C1203 1.335 . S
C1206 C1194 1.309 1_545 S
C1206 H1200 0.983 . S
C1206 C1207 1.335 . S
C1207 H1201 0.950 . S
C1207 C1206 1.335 . S
C1207 C1211 1.429 1_545 S
C1208 C1191 1.574 1_554 S
C1208 H1202 0.949 . S
C1208 C1212 1.368 . S
C1209 C1190 1.429 . S
C1209 C1203 1.429 1_545 S
C1209 C1210 1.523 . S
C1210 C1191 1.368 1_545 S
C1210 C1204 1.368 . S
C1210 C1209 1.523 . S
C1211 C1195 1.429 . S
C1211 C1207 1.429 1_565 S
C1211 C1212 1.523 . S
C1212 C1196 1.368 1_565 S
C1212 C1208 1.368 . S
C1212 C1211 1.523 . S
H1213 C1188 0.950 . S
H1214 C1190 0.950 . S
H1215 C1191 0.949 . S
H1216 C1193 0.950 . S
H1217 C1195 0.950 . S
C1218 C1219 1.349 . S
C1218 C1220 1.327 . S
C1218 H1243 0.950 . S
C1219 C1218 1.349 . S
C1219 C1235 1.349 . S
C1220 C1218 1.327 . S
C1220 C1239 1.429 . S
C1220 H1244 0.950 . S
C1221 C1238 1.574 . S
C1221 C1240 1.368 . S
C1221 H1245 0.949 . S
H1222 C1226 0.949 . S
C1223 C1224 1.349 . S
C1223 C1225 1.327 . S
C1223 H1246 0.950 . S
C1224 C1223 1.349 . S
C1224 C1236 1.349 . S
C1225 C1223 1.327 . S
C1225 C1241 1.429 . S
C1225 H1247 0.950 . S
C1226 H1222 0.949 . S
C1226 C1234 1.574 . S
C1226 C1242 1.368 . S
H1227 C1235 0.950 . S
H1228 C1233 0.950 . S
H1229 C1234 0.949 . S
H1230 C1236 0.950 . S
H1231 C1237 0.950 . S
H1232 C1238 0.949 . S
C1233 H1228 0.950 . S
C1233 C1235 1.327 . S
C1233 C1239 1.429 . S
C1234 C1226 1.574 . S
C1234 H1229 0.949 . S
C1234 C1240 1.368 . S
C1235 C1219 1.349 . S
C1235 H1227 0.950 . S
C1235 C1233 1.327 . S
C1236 C1224 1.349 . S
C1236 H1230 0.950 . S
C1236 C1237 1.327 . S
C1237 H1231 0.950 . S
C1237 C1236 1.327 . S
C1237 C1241 1.429 . S
C1238 C1221 1.574 . S
C1238 H1232 0.949 . S
C1238 C1242 1.368 . S
C1239 C1220 1.429 . S
C1239 C1233 1.429 . S
C1239 C1240 1.523 . S
C1240 C1221 1.368 . S
C1240 C1234 1.368 . S
C1240 C1239 1.523 . S
C1241 C1225 1.429 . S
C1241 C1237 1.429 . S
C1241 C1242 1.523 . S
C1242 C1226 1.368 . S
C1242 C1238 1.368 . S
C1242 C1241 1.523 . S
H1243 C1218 0.950 . S
H1244 C1220 0.950 . S
H1245 C1221 0.949 . S
H1246 C1223 0.950 . S
H1247 C1225 0.950 . S
C1248 C1249 1.349 . S
C1248 C1250 1.327 . S
C1248 H1273 0.950 . S
C1249 C1248 1.349 . S
C1249 C1265 1.349 . S
C1250 C1248 1.327 . S
C1250 C1269 1.429 . S
C1250 H1274 0.950 . S
C1251 C1268 1.569 1_655 S
C1251 C1270 1.368 . S
C1251 H1275 0.949 . S
H1252 C1256 0.949 . S
C1253 C1254 1.349 . S
C1253 C1255 1.327 . S
C1253 H1276 0.950 . S
C1254 C1253 1.349 . S
C1254 C1266 1.349 . S
C1255 C1253 1.327 . S
C1255 C1271 1.429 . S
C1255 H1277 0.950 . S
C1256 H1252 0.949 . S
C1256 C1264 1.576 . S
C1256 C1272 1.368 . S
H1257 C1265 0.950 . S
H1258 C1263 0.950 . S
H1259 C1264 0.944 . S
H1260 C1266 0.950 . S
H1261 C1267 0.950 . S
H1262 C1268 0.944 . S
C1263 H1258 0.950 . S
C1263 C1265 1.327 . S
C1263 C1269 1.429 . S
C1264 C1256 1.576 . S
C1264 H1259 0.944 . S
C1264 C1270 1.373 1_455 S
C1265 C1249 1.349 . S
C1265 H1257 0.950 . S
C1265 C1263 1.327 . S
C1266 C1254 1.349 . S
C1266 H1260 0.950 . S
C1266 C1267 1.327 . S
C1267 H1261 0.950 . S
C1267 C1266 1.327 . S
C1267 C1271 1.429 . S
C1268 C1251 1.569 1_455 S
C1268 H1262 0.944 . S
C1268 C1272 1.359 . S
C1269 C1250 1.429 . S
C1269 C1263 1.429 . S
C1269 C1270 1.523 . S
C1270 C1251 1.368 . S
C1270 C1264 1.373 1_655 S
C1270 C1269 1.523 . S
C1271 C1255 1.429 . S
C1271 C1267 1.429 . S
C1271 C1272 1.523 . S
C1272 C1256 1.368 . S
C1272 C1268 1.359 . S
C1272 C1271 1.523 . S
H1273 C1248 0.950 . S
H1274 C1250 0.950 . S
H1275 C1251 0.949 . S
H1276 C1253 0.950 . S
H1277 C1255 0.950 . S
C1278 C1279 1.349 1_565 S
C1278 C1280 1.327 . S
C1278 H1303 0.950 . S
C1279 C1278 1.349 1_545 S
C1279 C1295 1.349 . S
C1280 C1278 1.327 . S
C1280 C1299 1.429 1_565 S
C1280 H1304 0.950 . S
C1281 C1298 1.574 . S
C1281 C1300 1.368 . S
C1281 H1305 0.949 . S
H1282 C1286 0.949 . S
C1283 C1284 1.349 1_545 S
C1283 C1285 1.327 . S
C1283 H1306 0.950 . S
C1284 C1283 1.349 1_565 S
C1284 C1296 1.349 . S
C1285 C1283 1.327 . S
C1285 C1301 1.429 1_545 S
C1285 H1307 0.950 . S
C1286 H1282 0.949 . S
C1286 C1294 1.574 . S
C1286 C1302 1.368 . S
H1287 C1295 0.950 . S
H1288 C1293 0.950 . S
H1289 C1294 0.949 . S
H1290 C1296 0.950 . S
H1291 C1297 0.950 . S
H1292 C1298 0.949 . S
C1293 H1288 0.950 . S
C1293 C1295 1.327 . S
C1293 C1299 1.429 . S
C1294 C1286 1.574 . S
C1294 H1289 0.949 . S
C1294 C1300 1.368 1_565 S
C1295 C1279 1.349 . S
C1295 H1287 0.950 . S
C1295 C1293 1.327 . S
C1296 C1284 1.349 . S
C1296 H1290 0.950 . S
C1296 C1297 1.327 . S
C1297 H1291 0.950 . S
C1297 C1296 1.327 . S
C1297 C1301 1.429 . S
C1298 C1281 1.574 . S
C1298 H1292 0.949 . S
C1298 C1302 1.368 1_545 S
C1299 C1280 1.429 1_545 S
C1299 C1293 1.429 . S
C1299 C1300 1.523 . S
C1300 C1281 1.368 . S
C1300 C1294 1.368 1_545 S
C1300 C1299 1.523 . S
C1301 C1285 1.429 1_565 S
C1301 C1297 1.429 . S
C1301 C1302 1.523 . S
C1302 C1286 1.368 . S
C1302 C1298 1.368 1_565 S
C1302 C1301 1.523 . S
H1303 C1278 0.950 . S
H1304 C1280 0.950 . S
H1305 C1281 0.949 . S
H1306 C1283 0.950 . S
H1307 C1285 0.950 . S
C409 C292 0.661 . S
C414 C20 0.661 . S
C439 C54 0.661 . S
C444 C326 0.661 . S
C469 C88 0.661 . S
C474 C360 0.661 1_556 S
C499 C122 0.661 1_554 S
C504 C394 0.661 . S
C529 C156 0.661 . S
C534 C224 0.661 . S
C559 C190 0.661 . S
C564 C258 0.661 . S
C589 C9 1.520 . S
C594 C203 1.663 . S
C619 C33 1.663 . S
C624 C43 1.520 . S
C649 C77 1.520 . S
C654 C67 1.663 . S
C679 C101 1.663 . S
C684 C111 1.520 . S
C709 C135 1.663 . S
C714 C145 1.520 . S
C739 C179 1.520 . S
C744 C169 1.663 . S
C769 C271 1.663 . S
C774 C213 1.520 . S
C799 C305 1.663 . S
C804 C247 1.520 . S
C829 C339 1.663 . S
C834 C281 1.520 . S
C859 C373 1.663 . S
C864 C315 1.520 . S
C889 C407 1.663 . S
C894 C349 1.520 . S
C919 C383 1.520 . S
C924 C237 1.663 . S
C949 C2 0.987 . S
C954 C206 0.987 . S
C979 C36 0.986 . S
C984 C240 0.986 . S
C1009 C70 0.986 . S
C1014 C274 0.986 . S
C1039 C104 0.986 . S
C1044 C308 0.986 . S
C1069 C342 0.986 . S
C1074 C138 0.986 . S
C1099 C172 0.986 . S
C1104 C376 0.986 . S
C1129 C311 1.141 . S
C1134 C5 1.141 . S
C1159 C39 1.141 . S
C1164 C345 1.141 . S
C1189 C73 1.141 . S
C1194 C379 1.141 . S
C1219 C107 1.141 . S
C1224 C209 1.141 . S
C1249 C141 1.141 . S
C1254 C243 1.141 . S
C1279 C277 1.141 . S
C1284 C175 1.141 . S
