# Generated by pormake.
# Topology dia-g, (3)-cn, num edge types: 1
# Building blocks:
#     Node 0, Type 0, BuildingBlock: OLANEW_clean_sbu_2, # of connection points: 3
#     Node 1, Type 0, BuildingBlock: OLANEW_clean_sbu_2, # of connection points: 3
#     Node 2, Type 0, BuildingBlock: OLANEW_clean_sbu_2, # of connection points: 3
#     Node 3, Type 0, BuildingBlock: OLANEW_clean_sbu_2, # of connection points: 3
#     Node 4, Type 0, BuildingBlock: OLANEW_clean_sbu_2, # of connection points: 3
#     Node 5, Type 0, BuildingBlock: OLANEW_clean_sbu_2, # of connection points: 3
#     Node 6, Type 0, BuildingBlock: OLANEW_clean_sbu_2, # of connection points: 3
#     Node 7, Type 0, BuildingBlock: OLANEW_clean_sbu_2, # of connection points: 3
#     Node 8, Type 0, BuildingBlock: OLANEW_clean_sbu_2, # of connection points: 3
#     Node 9, Type 0, BuildingBlock: OLANEW_clean_sbu_2, # of connection points: 3
#     Node 10, Type 0, BuildingBlock: OLANEW_clean_sbu_2, # of connection points: 3
#     Node 11, Type 0, BuildingBlock: OLANEW_clean_sbu_2, # of connection points: 3
#     Node 12, Type 0, BuildingBlock: OLANEW_clean_sbu_2, # of connection points: 3
#     Node 13, Type 0, BuildingBlock: OLANEW_clean_sbu_2, # of connection points: 3
#     Node 14, Type 0, BuildingBlock: OLANEW_clean_sbu_2, # of connection points: 3
#     Node 15, Type 0, BuildingBlock: OLANEW_clean_sbu_2, # of connection points: 3
#     Edge 16, Type (0, 0), BuildingBlock: TEMPAE_clean_linker_10, # of connection points: 2
#     Edge 17, Type (0, 0), BuildingBlock: TEMPAE_clean_linker_10, # of connection points: 2
#     Edge 18, Type (0, 0), BuildingBlock: TEMPAE_clean_linker_10, # of connection points: 2
#     Edge 19, Type (0, 0), BuildingBlock: TEMPAE_clean_linker_10, # of connection points: 2
#     Edge 20, Type (0, 0), BuildingBlock: TEMPAE_clean_linker_10, # of connection points: 2
#     Edge 21, Type (0, 0), BuildingBlock: TEMPAE_clean_linker_10, # of connection points: 2
#     Edge 22, Type (0, 0), BuildingBlock: TEMPAE_clean_linker_10, # of connection points: 2
#     Edge 23, Type (0, 0), BuildingBlock: TEMPAE_clean_linker_10, # of connection points: 2
#     Edge 24, Type (0, 0), BuildingBlock: TEMPAE_clean_linker_10, # of connection points: 2
#     Edge 25, Type (0, 0), BuildingBlock: TEMPAE_clean_linker_10, # of connection points: 2
#     Edge 26, Type (0, 0), BuildingBlock: TEMPAE_clean_linker_10, # of connection points: 2
#     Edge 27, Type (0, 0), BuildingBlock: TEMPAE_clean_linker_10, # of connection points: 2
#     Edge 28, Type (0, 0), BuildingBlock: TEMPAE_clean_linker_10, # of connection points: 2
#     Edge 29, Type (0, 0), BuildingBlock: TEMPAE_clean_linker_10, # of connection points: 2
#     Edge 30, Type (0, 0), BuildingBlock: TEMPAE_clean_linker_10, # of connection points: 2
#     Edge 31, Type (0, 0), BuildingBlock: TEMPAE_clean_linker_10, # of connection points: 2
#     Edge 32, Type (0, 0), BuildingBlock: TEMPAE_clean_linker_10, # of connection points: 2
#     Edge 33, Type (0, 0), BuildingBlock: TEMPAE_clean_linker_10, # of connection points: 2
#     Edge 34, Type (0, 0), BuildingBlock: TEMPAE_clean_linker_10, # of connection points: 2
#     Edge 35, Type (0, 0), BuildingBlock: TEMPAE_clean_linker_10, # of connection points: 2
#     Edge 36, Type (0, 0), BuildingBlock: TEMPAE_clean_linker_10, # of connection points: 2
#     Edge 37, Type (0, 0), BuildingBlock: TEMPAE_clean_linker_10, # of connection points: 2
#     Edge 38, Type (0, 0), BuildingBlock: TEMPAE_clean_linker_10, # of connection points: 2
#     Edge 39, Type (0, 0), BuildingBlock: TEMPAE_clean_linker_10, # of connection points: 2
# Relax obj value: 0.011
# Max RMSD: 0.029
# Mean RMSD: 0.029
data_MOF--net-dia-g--node1-OLANEW_clean_sbu_2--edge1-TEMPAE_clean_linker_10
_symmetry_space_group_name_H-M    P1
_symmetry_Int_Tables_number       1
_symmetry_cell_setting            triclinic
loop_
_symmetry_equiv_pos_as_xyz
'x, y, z'
_cell_length_a     59.210532
_cell_length_b     59.206751
_cell_length_c     84.975631
_cell_angle_alpha  90.002898
_cell_angle_beta   90.002236
_cell_angle_gamma 89.959176
loop_
_atom_site_label
_atom_site_type_symbol
_atom_site_fract_x
_atom_site_fract_y
_atom_site_fract_z
_atom_type_partial_charge
O0 O 0.12067 0.16057 0.42862 0.0
Cd1 Cd 0.12228 0.16232 0.39995 0.0
O2 O 0.10254 0.12878 0.42506 0.0
Cd3 Cd 0.08388 0.09909 0.43303 0.0
O4 O 0.06239 0.07049 0.43892 0.0
C5 C 0.05114 0.06971 0.45165 0.0
O6 O 0.0529 0.0864 0.46177 0.0
C7 C 0.11135 0.14311 0.43437 0.0
C8 C 0.16701 0.16221 0.38985 0.0
O9 O 0.15566 0.18064 0.39029 0.0
O10 O 0.1572 0.14389 0.394 0.0
O11 O 0.83925 0.62176 0.68318 0.0
Cd12 Cd 0.829 0.6213 0.65536 0.0
O13 O 0.87122 0.60419 0.67879 0.0
Cd14 Cd 0.90242 0.58682 0.68543 0.0
O15 O 0.93299 0.56739 0.69012 0.0
C16 C 0.9366 0.55851 0.70351 0.0
O17 O 0.92175 0.5615 0.71481 0.0
C18 C 0.85756 0.61343 0.68839 0.0
C19 C 0.82948 0.6649 0.64298 0.0
O20 O 0.81218 0.65733 0.65034 0.0
O21 O 0.84655 0.65178 0.64135 0.0
O22 O 0.37609 0.34688 0.93276 0.0
Cd23 Cd 0.37438 0.34798 0.90408 0.0
O24 O 0.39847 0.37616 0.93119 0.0
Cd25 Cd 0.42045 0.40315 0.93982 0.0
O26 O 0.4431 0.43172 0.94355 0.0
C27 C 0.45727 0.4362 0.93276 0.0
O28 O 0.45781 0.4233 0.92018 0.0
C29 C 0.38746 0.3622 0.93959 0.0
C30 C 0.32952 0.34725 0.89423 0.0
O31 O 0.34157 0.32927 0.89386 0.0
O32 O 0.33872 0.36556 0.89905 0.0
O33 O 0.65945 0.8708 0.18885 0.0
Cd34 Cd 0.67169 0.871 0.16142 0.0
O35 O 0.62598 0.8843 0.18288 0.0
Cd36 Cd 0.59318 0.89867 0.18925 0.0
O37 O 0.56395 0.92089 0.19211 0.0
C38 C 0.56563 0.94086 0.18675 0.0
O39 O 0.58464 0.94699 0.18001 0.0
C40 C 0.63989 0.87714 0.19312 0.0
C41 C 0.66957 0.82766 0.14869 0.0
O42 O 0.68673 0.83411 0.1567 0.0
O43 O 0.65342 0.84176 0.14658 0.0
O44 O 0.11963 0.34398 0.82318 0.0
Cd45 Cd 0.12105 0.34446 0.85187 0.0
O46 O 0.1045 0.37755 0.82532 0.0
Cd47 Cd 0.08845 0.4084 0.81668 0.0
O48 O 0.06941 0.43849 0.81018 0.0
C49 C 0.05506 0.43781 0.79907 0.0
O50 O 0.05231 0.41885 0.79125 0.0
C51 C 0.11193 0.36168 0.81665 0.0
C52 C 0.16579 0.34501 0.86194 0.0
O53 O 0.1544 0.32661 0.86201 0.0
O54 O 0.15598 0.36312 0.85732 0.0
O55 O 0.6564 0.62805 0.06271 0.0
Cd56 Cd 0.66588 0.62677 0.09065 0.0
O57 O 0.6284 0.6042 0.06546 0.0
Cd58 Cd 0.60092 0.58195 0.05793 0.0
O59 O 0.57256 0.55864 0.05537 0.0
C60 C 0.57592 0.53748 0.05627 0.0
O61 O 0.59664 0.53004 0.05826 0.0
C62 C 0.64025 0.6169 0.05666 0.0
C63 C 0.66586 0.67013 0.10347 0.0
O64 O 0.68322 0.66235 0.09627 0.0
O65 O 0.6485 0.65733 0.10474 0.0
O66 O 0.37587 0.15774 0.31693 0.0
Cd67 Cd 0.37463 0.15964 0.3456 0.0
O68 O 0.39658 0.12755 0.32032 0.0
Cd69 Cd 0.41741 0.09879 0.31326 0.0
O70 O 0.44078 0.07051 0.31094 0.0
C71 C 0.46151 0.07375 0.31408 0.0
O72 O 0.46814 0.0941 0.31816 0.0
C73 C 0.38641 0.14104 0.31107 0.0
C74 C 0.33001 0.16043 0.35593 0.0
O75 O 0.3417 0.17862 0.35541 0.0
O76 O 0.33946 0.1419 0.35175 0.0
O77 O 0.838 0.86833 0.56046 0.0
Cd78 Cd 0.82733 0.86759 0.5882 0.0
O79 O 0.87273 0.87895 0.56576 0.0
Cd80 Cd 0.90555 0.89187 0.55809 0.0
O81 O 0.93458 0.91332 0.55267 0.0
C82 C 0.93333 0.93381 0.55706 0.0
O83 O 0.91497 0.94066 0.56432 0.0
C84 C 0.85768 0.87358 0.55578 0.0
C85 C 0.8286 0.82373 0.60004 0.0
O86 O 0.81129 0.83107 0.59257 0.0
O87 O 0.84532 0.83717 0.602 0.0
O88 O 0.62749 0.67128 0.93815 0.0
Cd89 Cd 0.62799 0.68476 0.91099 0.0
O90 O 0.61034 0.63993 0.93142 0.0
Cd91 Cd 0.59291 0.60803 0.93601 0.0
O92 O 0.57336 0.57704 0.9387 0.0
C93 C 0.55283 0.57714 0.93436 0.0
O94 O 0.54421 0.59587 0.92863 0.0
C95 C 0.61905 0.65235 0.94201 0.0
C96 C 0.67088 0.68072 0.89771 0.0
O97 O 0.66556 0.69789 0.90613 0.0
O98 O 0.65587 0.66544 0.89552 0.0
O99 O 0.34224 0.12763 0.19013 0.0
Cd100 Cd 0.33037 0.12543 0.16266 0.0
O101 O 0.37213 0.10662 0.1859 0.0
Cd102 Cd 0.40172 0.08657 0.19258 0.0
O103 O 0.43033 0.06361 0.19554 0.0
C104 C 0.43311 0.04827 0.18526 0.0
O105 O 0.41873 0.04695 0.17351 0.0
C106 C 0.35993 0.11804 0.19532 0.0
C107 C 0.33007 0.1682 0.14896 0.0
O108 O 0.31316 0.16108 0.15696 0.0
O109 O 0.34709 0.15501 0.14732 0.0
O110 O 0.87329 0.85221 0.43074 0.0
Cd111 Cd 0.87144 0.85647 0.40218 0.0
O112 O 0.88581 0.88683 0.43062 0.0
Cd113 Cd 0.89754 0.92012 0.4384 0.0
O114 O 0.91798 0.94929 0.4449 0.0
C115 C 0.93512 0.94656 0.45371 0.0
O116 O 0.93965 0.92626 0.4591 0.0
C117 C 0.88 0.86938 0.43841 0.0
C118 C 0.82729 0.8514 0.39139 0.0
O119 O 0.84148 0.83512 0.39032 0.0
O120 O 0.83398 0.87005 0.39744 0.0
O121 O 0.14918 0.36281 0.69362 0.0
Cd122 Cd 0.15977 0.36494 0.66589 0.0
O123 O 0.12104 0.38644 0.69042 0.0
Cd124 Cd 0.09354 0.40873 0.69797 0.0
O125 O 0.06481 0.43111 0.70217 0.0
C126 C 0.06715 0.4498 0.70935 0.0
O127 O 0.08722 0.45546 0.71463 0.0
C128 C 0.13271 0.3738 0.6994 0.0
C129 C 0.15836 0.32258 0.6516 0.0
O130 O 0.17567 0.32892 0.65949 0.0
O131 O 0.14169 0.3363 0.65041 0.0
O132 O 0.62076 0.83357 0.31451 0.0
Cd133 Cd 0.62223 0.83171 0.3432 0.0
O134 O 0.60968 0.86821 0.31848 0.0
Cd135 Cd 0.59924 0.9033 0.31478 0.0
O136 O 0.58007 0.9344 0.31155 0.0
C137 C 0.56736 0.94081 0.32274 0.0
O138 O 0.56689 0.92886 0.33577 0.0
C139 C 0.6148 0.85252 0.30884 0.0
C140 C 0.6666 0.83537 0.35385 0.0
O141 O 0.65691 0.81606 0.35299 0.0
O142 O 0.65531 0.8529 0.34979 0.0
O143 O 0.14587 0.1307 0.55731 0.0
Cd144 Cd 0.15565 0.12718 0.58511 0.0
O145 O 0.11863 0.10577 0.55915 0.0
Cd146 Cd 0.0925 0.08302 0.5501 0.0
O147 O 0.06605 0.05812 0.54553 0.0
C148 C 0.06524 0.04096 0.55449 0.0
O149 O 0.08043 0.03894 0.56568 0.0
C150 C 0.13008 0.11951 0.55086 0.0
C151 C 0.15586 0.16928 0.5998 0.0
O152 O 0.17309 0.16221 0.59211 0.0
O153 O 0.13853 0.15638 0.60063 0.0
O154 O 0.86901 0.6583 0.8091 0.0
Cd155 Cd 0.86973 0.66964 0.83674 0.0
O156 O 0.89109 0.62932 0.81369 0.0
Cd157 Cd 0.91224 0.6004 0.80737 0.0
O158 O 0.93334 0.57056 0.80404 0.0
C159 C 0.94738 0.56897 0.79277 0.0
O160 O 0.94904 0.58565 0.78264 0.0
C161 C 0.87963 0.64111 0.80405 0.0
C162 C 0.82644 0.67089 0.84967 0.0
O163 O 0.83434 0.68772 0.84195 0.0
O164 O 0.83904 0.65343 0.85131 0.0
O165 O 0.34095 0.36591 0.06067 0.0
Cd166 Cd 0.32871 0.36732 0.08808 0.0
O167 O 0.37222 0.38428 0.06587 0.0
Cd168 Cd 0.40314 0.40246 0.05965 0.0
O169 O 0.43312 0.42298 0.05518 0.0
C170 C 0.44276 0.43237 0.06682 0.0
O171 O 0.43445 0.42917 0.08099 0.0
C172 C 0.35943 0.37446 0.05598 0.0
C173 C 0.32911 0.32439 0.10152 0.0
O174 O 0.31217 0.33128 0.09345 0.0
O175 O 0.34585 0.33786 0.10333 0.0
C176 C 0.10392 0.12087 0.5277 0.0
C177 C 0.12585 0.12218 0.53384 0.0
C178 C 0.09989 0.12407 0.51156 0.0
C179 C 0.11826 0.1287 0.50139 0.0
C180 C 0.14043 0.13003 0.50756 0.0
C181 C 0.14392 0.12689 0.52372 0.0
C182 C 0.07601 0.12275 0.50541 0.0
C183 C 0.16049 0.13474 0.49708 0.0
C184 C 0.11414 0.11746 0.45756 0.0
C185 C 0.11135 0.13931 0.45153 0.0
C186 C 0.11559 0.11366 0.47381 0.0
C187 C 0.11447 0.13222 0.48427 0.0
C188 C 0.11129 0.15431 0.47827 0.0
C189 C 0.10993 0.15761 0.46193 0.0
C190 C 0.11919 0.08988 0.47974 0.0
C191 C 0.10989 0.17452 0.48907 0.0
H192 H 0.08982 0.118 0.53557 0.0
H193 H 0.16089 0.12796 0.52845 0.0
H194 H 0.07118 0.13914 0.50004 0.0
H195 H 0.07482 0.10974 0.49606 0.0
H196 H 0.06365 0.1186 0.51482 0.0
H197 H 0.17666 0.13492 0.50371 0.0
H198 H 0.16162 0.12172 0.48772 0.0
H199 H 0.15836 0.15131 0.49117 0.0
H200 H 0.11616 0.10338 0.44955 0.0
H201 H 0.10789 0.17454 0.45727 0.0
H202 H 0.10653 0.0857 0.48891 0.0
H203 H 0.13612 0.08852 0.48526 0.0
H204 H 0.11799 0.07715 0.47016 0.0
H205 H 0.09686 0.17169 0.49823 0.0
H206 H 0.10577 0.19031 0.48262 0.0
H207 H 0.12627 0.17686 0.4952 0.0
C208 C 0.84449 0.61458 0.71622 0.0
C209 C 0.86241 0.61451 0.70544 0.0
C210 C 0.84839 0.61728 0.73238 0.0
C211 C 0.87077 0.62007 0.7379 0.0
C212 C 0.889 0.61944 0.72713 0.0
C213 C 0.88458 0.61688 0.71099 0.0
C214 C 0.82847 0.61787 0.74348 0.0
C215 C 0.9131 0.62232 0.73258 0.0
C216 C 0.87618 0.65286 0.77603 0.0
C217 C 0.87881 0.63552 0.7871 0.0
C218 C 0.87421 0.64807 0.75994 0.0
C219 C 0.87479 0.62534 0.75478 0.0
C220 C 0.87783 0.60774 0.76587 0.0
C221 C 0.87959 0.61304 0.78194 0.0
C222 C 0.87097 0.66732 0.74849 0.0
C223 C 0.87852 0.58331 0.76082 0.0
H224 H 0.82732 0.61279 0.71197 0.0
H225 H 0.89842 0.61775 0.7027 0.0
H226 H 0.83088 0.60544 0.75311 0.0
H227 H 0.82719 0.63482 0.74898 0.0
H228 H 0.81228 0.61411 0.73742 0.0
H229 H 0.92544 0.61904 0.723 0.0
H230 H 0.9156 0.63981 0.73692 0.0
H231 H 0.91678 0.61073 0.74251 0.0
H232 H 0.87553 0.67026 0.77999 0.0
H233 H 0.88069 0.59951 0.79046 0.0
H234 H 0.85426 0.66578 0.74268 0.0
H235 H 0.884 0.66658 0.73913 0.0
H236 H 0.87192 0.68408 0.75433 0.0
H237 H 0.86172 0.57824 0.75624 0.0
H238 H 0.88313 0.57185 0.77066 0.0
H239 H 0.89088 0.58097 0.75113 0.0
C240 C 0.38379 0.34471 0.96616 0.0
C241 C 0.38692 0.36406 0.95693 0.0
C242 C 0.38107 0.34633 0.98253 0.0
C243 C 0.38128 0.36785 0.98979 0.0
C244 C 0.38497 0.38741 0.98057 0.0
C245 C 0.38762 0.38528 0.96422 0.0
C246 C 0.3772 0.32507 0.99197 0.0
C247 C 0.38515 0.41067 0.98786 0.0
C248 C 0.34816 0.37391 0.02777 0.0
C249 C 0.36534 0.37342 0.0391 0.0
C250 C 0.35318 0.37235 0.01168 0.0
C251 C 0.37593 0.37003 0.00682 0.0
C252 C 0.39337 0.36946 0.01822 0.0
C253 C 0.38784 0.37108 0.03426 0.0
C254 C 0.33409 0.37308 0.99989 0.0
C255 C 0.4178 0.36682 0.01348 0.0
H256 H 0.38312 0.32828 0.96054 0.0
H257 H 0.38911 0.40036 0.95711 0.0
H258 H 0.38919 0.32426 0.00199 0.0
H259 H 0.35989 0.32526 0.99698 0.0
H260 H 0.37919 0.30956 0.98474 0.0
H261 H 0.39017 0.42394 0.97931 0.0
H262 H 0.36806 0.41476 0.9924 0.0
H263 H 0.39694 0.41117 0.998 0.0
H264 H 0.33073 0.37564 0.0315 0.0
H265 H 0.40109 0.36983 0.043 0.0
H266 H 0.33378 0.3572 0.99297 0.0
H267 H 0.33676 0.38716 0.99148 0.0
H268 H 0.31736 0.37534 0.00561 0.0
H269 H 0.4202 0.35046 0.00733 0.0
H270 H 0.4294 0.36746 0.02374 0.0
H271 H 0.42262 0.38037 0.0051 0.0
C272 C 0.64902 0.88269 0.2214 0.0
C273 C 0.6336 0.87591 0.20986 0.0
C274 C 0.64413 0.87989 0.23743 0.0
C275 C 0.62372 0.86926 0.24195 0.0
C276 C 0.60796 0.86261 0.2303 0.0
C277 C 0.61297 0.86633 0.21435 0.0
C278 C 0.66105 0.88787 0.24951 0.0
C279 C 0.58636 0.85057 0.2346 0.0
C280 C 0.6265 0.84055 0.28182 0.0
C281 C 0.6152 0.85611 0.29151 0.0
C282 C 0.62854 0.84418 0.26556 0.0
C283 C 0.61954 0.86411 0.25883 0.0
C284 C 0.60751 0.87952 0.2684 0.0
C285 C 0.60503 0.87503 0.28454 0.0
C286 C 0.64085 0.82693 0.25566 0.0
C287 C 0.59786 0.9011 0.26171 0.0
H288 H 0.66496 0.89014 0.21787 0.0
H289 H 0.60124 0.86076 0.20535 0.0
H290 H 0.65259 0.89867 0.25842 0.0
H291 H 0.6683 0.87314 0.2558 0.0
H292 H 0.6751 0.8976 0.24412 0.0
H293 H 0.57527 0.84778 0.22424 0.0
H294 H 0.59045 0.83392 0.2399 0.0
H295 H 0.57683 0.86032 0.24355 0.0
H296 H 0.63415 0.82565 0.28697 0.0
H297 H 0.59509 0.88642 0.29156 0.0
H298 H 0.65685 0.83427 0.2512 0.0
H299 H 0.6305 0.82223 0.24528 0.0
H300 H 0.64492 0.81136 0.26239 0.0
H301 H 0.61168 0.91152 0.2567 0.0
H302 H 0.58881 0.91126 0.27072 0.0
H303 H 0.586 0.89726 0.25198 0.0
C304 C 0.11015 0.34453 0.78984 0.0
C305 C 0.11214 0.36379 0.79932 0.0
C306 C 0.11185 0.34606 0.77339 0.0
C307 C 0.11579 0.36735 0.76632 0.0
C308 C 0.11741 0.38691 0.77583 0.0
C309 C 0.11578 0.38484 0.79223 0.0
C310 C 0.11008 0.32483 0.76364 0.0
C311 C 0.1217 0.40989 0.76874 0.0
C312 C 0.14592 0.36834 0.72694 0.0
C313 C 0.12808 0.37234 0.71647 0.0
C314 C 0.14211 0.36667 0.74318 0.0
C315 C 0.11988 0.36897 0.74909 0.0
C316 C 0.10174 0.37282 0.73857 0.0
C317 C 0.10604 0.3743 0.72234 0.0
C318 C 0.16192 0.36252 0.75401 0.0
C319 C 0.0778 0.37527 0.74445 0.0
H320 H 0.10747 0.32821 0.7953 0.0
H321 H 0.11836 0.39962 0.7995 0.0
H322 H 0.09721 0.32699 0.75427 0.0
H323 H 0.12646 0.32146 0.75774 0.0
H324 H 0.10553 0.30985 0.77084 0.0
H325 H 0.12058 0.42363 0.77762 0.0
H326 H 0.13879 0.41026 0.76338 0.0
H327 H 0.10936 0.41338 0.75922 0.0
H328 H 0.16298 0.36671 0.72243 0.0
H329 H 0.09208 0.37641 0.71426 0.0
H330 H 0.1592 0.34678 0.76083 0.0
H331 H 0.16339 0.37656 0.7626 0.0
H332 H 0.17813 0.36103 0.74751 0.0
H333 H 0.07254 0.35958 0.75057 0.0
H334 H 0.06567 0.37876 0.73478 0.0
H335 H 0.07679 0.38922 0.75315 0.0
C336 C 0.61799 0.66167 0.97057 0.0
C337 C 0.61936 0.64531 0.9587 0.0
C338 C 0.61979 0.65568 0.98648 0.0
C339 C 0.62324 0.63277 0.99062 0.0
C340 C 0.62417 0.61609 0.97869 0.0
C341 C 0.62234 0.62259 0.96284 0.0
C342 C 0.61867 0.67398 0.99885 0.0
C343 C 0.62796 0.59152 0.98264 0.0
C344 C 0.65369 0.62377 0.02934 0.0
C345 C 0.63579 0.61894 0.0396 0.0
C346 C 0.64988 0.62756 0.01328 0.0
C347 C 0.62758 0.62666 0.00733 0.0
C348 C 0.60946 0.62129 0.01754 0.0
C349 C 0.61378 0.6176 0.0336 0.0
C350 C 0.66968 0.6332 0.00278 0.0
C351 C 0.58545 0.62026 0.01162 0.0
H352 H 0.61572 0.67926 0.96739 0.0
H353 H 0.62422 0.60998 0.95371 0.0
H354 H 0.60581 0.66971 0.00785 0.0
H355 H 0.63518 0.67527 0.00496 0.0
H356 H 0.61448 0.69075 0.99375 0.0
H357 H 0.62616 0.58043 0.97216 0.0
H358 H 0.64518 0.58927 0.98754 0.0
H359 H 0.61581 0.58591 0.99177 0.0
H360 H 0.67074 0.62484 0.03394 0.0
H361 H 0.59979 0.61465 0.04154 0.0
H362 H 0.6678 0.65063 0.99816 0.0
H363 H 0.67011 0.62164 0.99252 0.0
H364 H 0.68608 0.632 0.00908 0.0
H365 H 0.57992 0.63736 0.00792 0.0
H366 H 0.57357 0.61394 0.02073 0.0
H367 H 0.58434 0.60913 0.00115 0.0
C368 C 0.38814 0.12097 0.21722 0.0
C369 C 0.36562 0.11997 0.2122 0.0
C370 C 0.39346 0.12392 0.23321 0.0
C371 C 0.37581 0.12597 0.24436 0.0
C372 C 0.35305 0.12481 0.23933 0.0
C373 C 0.34824 0.12195 0.22331 0.0
C374 C 0.41792 0.12529 0.23812 0.0
C375 C 0.33373 0.12679 0.25087 0.0
C376 C 0.3855 0.11515 0.28786 0.0
C377 C 0.38604 0.13718 0.29389 0.0
C378 C 0.38308 0.11124 0.27166 0.0
C379 C 0.38095 0.12982 0.26128 0.0
C380 C 0.38203 0.15212 0.26727 0.0
C381 C 0.38442 0.15552 0.28354 0.0
C382 C 0.38178 0.08723 0.26574 0.0
C383 C 0.37991 0.17237 0.25658 0.0
H384 H 0.40161 0.12022 0.20862 0.0
H385 H 0.3308 0.12123 0.21944 0.0
H386 H 0.42142 0.14214 0.24328 0.0
H387 H 0.42154 0.11254 0.24735 0.0
H388 H 0.42964 0.12249 0.2281 0.0
H389 H 0.317 0.12492 0.24509 0.0
H390 H 0.33532 0.1137 0.26014 0.0
H391 H 0.33431 0.14348 0.25679 0.0
H392 H 0.38586 0.10092 0.29585 0.0
H393 H 0.38473 0.17257 0.28819 0.0
H394 H 0.39373 0.08467 0.25584 0.0
H395 H 0.36455 0.08381 0.2612 0.0
H396 H 0.38567 0.07472 0.27511 0.0
H397 H 0.39215 0.1711 0.24673 0.0
H398 H 0.38285 0.18852 0.26291 0.0
H399 H 0.36274 0.17282 0.25134 0.0
C400 C 0.89073 0.88553 0.46482 0.0
C401 C 0.87954 0.86906 0.4559 0.0
C402 C 0.88816 0.88666 0.48122 0.0
C403 C 0.87512 0.87009 0.48902 0.0
C404 C 0.86506 0.85245 0.48024 0.0
C405 C 0.86714 0.85232 0.46379 0.0
C406 C 0.89902 0.90588 0.49013 0.0
C407 C 0.85164 0.834 0.48819 0.0
C408 C 0.88244 0.86336 0.5332 0.0
C409 C 0.86276 0.87367 0.53884 0.0
C410 C 0.8867 0.86195 0.51697 0.0
C411 C 0.87118 0.87169 0.50625 0.0
C412 C 0.85158 0.88269 0.51198 0.0
C413 C 0.8474 0.88317 0.52822 0.0
C414 C 0.90739 0.84945 0.5113 0.0
C415 C 0.83503 0.89394 0.50095 0.0
H416 H 0.90158 0.89757 0.45913 0.0
H417 H 0.85868 0.83924 0.45709 0.0
H418 H 0.88637 0.9144 0.49774 0.0
H419 H 0.9125 0.89925 0.49792 0.0
H420 H 0.90655 0.91868 0.48215 0.0
H421 H 0.84673 0.82039 0.47987 0.0
H422 H 0.8616 0.82644 0.49792 0.0
H423 H 0.83607 0.84123 0.49341 0.0
H424 H 0.89411 0.8557 0.54147 0.0
H425 H 0.8322 0.89119 0.53266 0.0
H426 H 0.9181 0.86076 0.50406 0.0
H427 H 0.90224 0.83512 0.50369 0.0
H428 H 0.91773 0.84278 0.52118 0.0
H429 H 0.84399 0.90628 0.49336 0.0
H430 H 0.82133 0.90287 0.50736 0.0
H431 H 0.82729 0.88114 0.4931 0.0
C432 C 0.94719 0.9866 0.44957 0.0
C433 C 0.95098 0.96547 0.45655 0.0
C434 C 0.96328 0.0039 0.45067 0.0
C435 C 0.98365 -2e-05 0.45896 0.0
C436 C 0.98704 0.97914 0.46677 0.0
C437 C 0.97067 0.9621 0.46545 0.0
C438 C 0.95895 0.02598 0.4423 0.0
C439 C 0.00842 0.97446 0.4759 0.0
C440 C 0.03385 0.03298 0.44369 0.0
C441 C 0.03507 0.05095 0.45441 0.0
C442 C 0.01764 0.01593 0.44537 0.0
C443 C 0.0022 0.01684 0.45807 0.0
C444 C 0.0038 0.03448 0.46926 0.0
C445 C 0.02025 0.05135 0.4673 0.0
C446 C 0.0166 0.99728 0.43325 0.0
C447 C 0.98764 0.036 0.48296 0.0
H448 H 0.93194 0.98944 0.44279 0.0
H449 H 0.97364 0.9459 0.47102 0.0
H450 H 0.96182 0.04039 0.45039 0.0
H451 H 0.97095 0.0278 0.43235 0.0
H452 H 0.94147 0.0271 0.4376 0.0
H453 H 0.00748 0.95837 0.48259 0.0
H454 H 0.02292 0.97347 0.46765 0.0
H455 H 0.01193 0.98842 0.48425 0.0
H456 H 0.04533 0.03242 0.43376 0.0
H457 H 0.02111 0.06514 0.47567 0.0
H458 H 0.00031 0.99814 0.42683 0.0
H459 H 0.01741 0.98055 0.43911 0.0
H460 H 0.03056 0.99837 0.42455 0.0
H461 H 0.97049 0.04016 0.47856 0.0
H462 H 0.99276 0.04914 0.49158 0.0
H463 H 0.98647 0.01952 0.48911 0.0
C464 C 0.02636 0.45932 0.70529 0.0
C465 C 0.04783 0.46562 0.71073 0.0
C466 C 0.00828 0.47465 0.70544 0.0
C467 C 0.01175 0.49686 0.71109 0.0
C468 C 0.03311 0.50306 0.7172 0.0
C469 C 0.05091 0.48737 0.71693 0.0
C470 C 0.98559 0.46725 0.69919 0.0
C471 C 0.03731 0.52646 0.72359 0.0
C472 C 0.97285 0.54154 0.69405 0.0
C473 C 0.95663 0.54391 0.70598 0.0
C474 C 0.99118 0.52672 0.69579 0.0
C475 C 0.99335 0.5139 0.70977 0.0
C476 C 0.97743 0.51672 0.72205 0.0
C477 C 0.95924 0.53167 0.71999 0.0
C478 C 0.00792 0.52438 0.68247 0.0
C479 C 0.97885 0.50337 0.73713 0.0
H480 H 0.02374 0.44248 0.70064 0.0
H481 H 0.06738 0.49236 0.72127 0.0
H482 H 0.97236 0.47015 0.70822 0.0
H483 H 0.98105 0.47751 0.68873 0.0
H484 H 0.98541 0.44913 0.69581 0.0
H485 H 0.05385 0.52776 0.72971 0.0
H486 H 0.03703 0.53882 0.71378 0.0
H487 H 0.02373 0.53131 0.73193 0.0
H488 H 0.97106 0.55103 0.68322 0.0
H489 H 0.94681 0.53337 0.72929 0.0
H490 H 0.00743 0.5069 0.67778 0.0
H491 H 0.02531 0.52746 0.68684 0.0
H492 H 0.00441 0.5363 0.67267 0.0
H493 H 0.9696 0.48723 0.73561 0.0
H494 H 0.9709 0.51271 0.74704 0.0
H495 H 0.99653 0.49928 0.74035 0.0
C496 C 0.51673 0.55632 0.92961 0.0
C497 C 0.53899 0.55633 0.93527 0.0
C498 C 0.50362 0.5366 0.92987 0.0
C499 C 0.51296 0.5164 0.93596 0.0
C500 C 0.53528 0.51636 0.94194 0.0
C501 C 0.54805 0.53633 0.9415 0.0
C502 C 0.47989 0.53729 0.92337 0.0
C503 C 0.54577 0.49515 0.94857 0.0
C504 C 0.4717 0.47005 0.94735 0.0
C505 C 0.47228 0.45613 0.93399 0.0
C506 C 0.4852 0.4895 0.94831 0.0
C507 C 0.49955 0.49517 0.93559 0.0
C508 C 0.50052 0.48097 0.9222 0.0
C509 C 0.4869 0.46162 0.92158 0.0
C510 C 0.4838 0.50419 0.9628 0.0
C511 C 0.51563 0.48646 0.9084 0.0
H512 H 0.50958 0.57168 0.92479 0.0
H513 H 0.56521 0.5362 0.94594 0.0
H514 H 0.47846 0.5256 0.91321 0.0
H515 H 0.4677 0.53151 0.93243 0.0
H516 H 0.47492 0.55449 0.91944 0.0
H517 H 0.56301 0.49813 0.95329 0.0
H518 H 0.53504 0.48828 0.95815 0.0
H519 H 0.54678 0.48203 0.93928 0.0
H520 H 0.46051 0.4659 0.95702 0.0
H521 H 0.48751 0.45095 0.91122 0.0
H522 H 0.47732 0.52115 0.95956 0.0
H523 H 0.50087 0.50658 0.96793 0.0
H524 H 0.47257 0.4969 0.97195 0.0
H525 H 0.51048 0.50282 0.90314 0.0
H526 H 0.51499 0.47327 0.89911 0.0
H527 H 0.53336 0.4883 0.9124 0.0
C528 C 0.54797 0.97823 0.18062 0.0
C529 C 0.54637 0.95683 0.18762 0.0
C530 C 0.52968 0.99331 0.18082 0.0
C531 C 0.50929 0.98689 0.18826 0.0
C532 C 0.50767 0.96549 0.19561 0.0
C533 C 0.52622 0.95069 0.19518 0.0
C534 C 0.53205 0.01597 0.17282 0.0
C535 C 0.48622 0.95809 0.20373 0.0
C536 C 0.46767 0.03343 0.19888 0.0
C537 C 0.45236 0.03231 0.1863 0.0
C538 C 0.48615 0.01858 0.19979 0.0
C539 C 0.4894 0.00227 0.18782 0.0
C540 C 0.47392 0.00094 0.17516 0.0
C541 C 0.45559 0.01595 0.17456 0.0
C542 C 0.5023 0.02047 0.21348 0.0
C543 C 0.47684 0.98382 0.16214 0.0
H544 H 0.56347 0.98316 0.17477 0.0
H545 H 0.52485 0.93422 0.20067 0.0
H546 H 0.51971 0.0173 0.16304 0.0
H547 H 0.52821 0.02976 0.18125 0.0
H548 H 0.54928 0.01868 0.168 0.0
H549 H 0.48799 0.9413 0.20943 0.0
H550 H 0.48131 0.97064 0.2128 0.0
H551 H 0.47223 0.95724 0.19506 0.0
H552 H 0.4653 0.04599 0.20802 0.0
H553 H 0.44386 0.01493 0.1648 0.0
H554 H 0.51947 0.02457 0.20912 0.0
H555 H 0.50345 0.00406 0.21973 0.0
H556 H 0.49708 0.03368 0.22203 0.0
H557 H 0.49321 0.98661 0.15609 0.0
H558 H 0.46309 0.98473 0.15327 0.0
H559 H 0.47724 0.96651 0.16713 0.0
C560 C 0.98014 0.54849 0.78065 0.0
C561 C 0.96254 0.5491 0.79171 0.0
C562 C 0.99547 0.53038 0.78028 0.0
C563 C 0.99315 0.51252 0.79123 0.0
C564 C 0.97494 0.51264 0.80201 0.0
C565 C 0.9599 0.53094 0.80215 0.0
C566 C 0.01451 0.53072 0.76848 0.0
C567 C 0.97156 0.49358 0.81358 0.0
C568 C 0.02211 0.45578 0.78546 0.0
C569 C 0.04039 0.45757 0.79588 0.0
C570 C 0.00693 0.47375 0.78339 0.0
C571 C 0.01017 0.49406 0.79193 0.0
C572 C 0.02908 0.49625 0.80201 0.0
C573 C 0.04394 0.47799 0.80388 0.0
C574 C 0.98699 0.47017 0.77261 0.0
C575 C 0.03315 0.5176 0.81132 0.0
H576 H 0.98226 0.56238 0.77248 0.0
H577 H 0.94621 0.53113 0.81061 0.0
H578 H 0.03047 0.53523 0.77455 0.0
H579 H 0.01691 0.51381 0.76311 0.0
H580 H 0.01148 0.54324 0.75897 0.0
H581 H 0.95634 0.49605 0.82103 0.0
H582 H 0.96985 0.47736 0.80714 0.0
H583 H 0.98655 0.49213 0.82136 0.0
H584 H 0.01919 0.44009 0.77921 0.0
H585 H 0.0581 0.47957 0.81188 0.0
H586 H 0.9781 0.48602 0.76953 0.0
H587 H 0.97477 0.45872 0.77847 0.0
H588 H 0.99254 0.46174 0.76159 0.0
H589 H 0.03355 0.53241 0.80333 0.0
H590 H 0.04924 0.51702 0.81803 0.0
H591 H 0.01906 0.52026 0.81973 0.0
C592 C 0.4729 0.45773 0.07742 0.0
C593 C 0.46274 0.44708 0.06449 0.0
C594 C 0.49153 0.47207 0.07544 0.0
C595 C 0.50026 0.47585 0.06016 0.0
C596 C 0.49023 0.46502 0.04706 0.0
C597 C 0.47157 0.45076 0.04938 0.0
C598 C 0.50178 0.48331 0.08971 0.0
C599 C 0.49911 0.46862 0.03059 0.0
C600 C 0.53441 0.52956 0.05475 0.0
C601 C 0.55663 0.52153 0.05614 0.0
C602 C 0.51592 0.51479 0.05563 0.0
C603 C 0.51972 0.49142 0.05795 0.0
C604 C 0.5421 0.48311 0.05893 0.0
C605 C 0.56028 0.49826 0.05801 0.0
C606 C 0.4923 0.52428 0.05451 0.0
C607 C 0.54683 0.45828 0.06135 0.0
H608 H 0.46622 0.45498 0.08914 0.0
H609 H 0.46385 0.44257 0.03932 0.0
H610 H 0.51991 0.4788 0.09068 0.0
H611 H 0.50078 0.50194 0.08846 0.0
H612 H 0.49316 0.47838 0.10081 0.0
H613 H 0.48967 0.45863 0.0217 0.0
H614 H 0.49794 0.48676 0.02743 0.0
H615 H 0.51721 0.46383 0.03001 0.0
H616 H 0.53141 0.54749 0.05325 0.0
H617 H 0.57738 0.49187 0.05904 0.0
H618 H 0.48324 0.52145 0.06576 0.0
H619 H 0.48268 0.51542 0.04516 0.0
H620 H 0.49223 0.54267 0.05191 0.0
H621 H 0.54004 0.45284 0.07292 0.0
H622 H 0.56517 0.45437 0.06099 0.0
H623 H 0.53816 0.44814 0.05219 0.0
C624 C 0.50032 0.05814 0.31828 0.0
C625 C 0.4777 0.05466 0.31402 0.0
C626 C 0.51558 0.04003 0.31913 0.0
C627 C 0.50804 0.01793 0.31562 0.0
C628 C 0.48537 0.01436 0.31095 0.0
C629 C 0.47047 0.03277 0.31021 0.0
C630 C 0.53964 0.04449 0.32414 0.0
C631 C 0.47673 0.99102 0.30707 0.0
C632 C 0.55142 0.97241 0.30655 0.0
C633 C 0.55267 0.96091 0.32096 0.0
C634 C 0.53701 0.99106 0.30463 0.0
C635 C 0.52361 0.9984 0.31745 0.0
C636 C 0.52496 0.98699 0.33206 0.0
C637 C 0.53944 0.96837 0.33363 0.0
C638 C 0.53596 0.00278 0.28887 0.0
C639 C 0.51099 0.99438 0.34602 0.0
H640 H 0.50609 0.075 0.32121 0.0
H641 H 0.45303 0.02993 0.30686 0.0
H642 H 0.5432 0.03558 0.33536 0.0
H643 H 0.55155 0.03777 0.31521 0.0
H644 H 0.54308 0.06277 0.32582 0.0
H645 H 0.45892 0.99124 0.30296 0.0
H646 H 0.48736 0.9832 0.2978 0.0
H647 H 0.47786 0.98007 0.31764 0.0
H648 H 0.56155 0.96673 0.29669 0.0
H649 H 0.54032 0.95962 0.34482 0.0
H650 H 0.5403 0.02089 0.29023 0.0
H651 H 0.51851 0.00197 0.28414 0.0
H652 H 0.54763 0.99512 0.28013 0.0
H653 H 0.51473 0.01225 0.34894 0.0
H654 H 0.51421 0.98387 0.35662 0.0
H655 H 0.49276 0.99336 0.34308 0.0
C656 C 0.03089 0.02573 0.5408 0.0
C657 C 0.04681 0.02416 0.553 0.0
C658 C 0.01263 0.01063 0.53991 0.0
C659 C 0.0102 0.99365 0.55152 0.0
C660 C 0.02656 0.9916 0.56358 0.0
C661 C 0.04468 0.00682 0.56415 0.0
C662 C 0.99568 0.01316 0.52675 0.0
C663 C 0.02455 0.97375 0.57621 0.0
C664 C 0.9521 0.971 0.56167 0.0
C665 C 0.95252 0.94952 0.55471 0.0
C666 C 0.97054 0.98573 0.56035 0.0
C667 C 0.98985 0.97891 0.55175 0.0
C668 C 0.99013 0.95755 0.54426 0.0
C669 C 0.97149 0.94304 0.54589 0.0
C670 C 0.9696 0.00835 0.56855 0.0
C671 C 0.01033 0.94981 0.53484 0.0
H672 H 0.03251 0.03896 0.53206 0.0
H673 H 0.05692 0.00541 0.57358 0.0
H674 H 0.99471 0.99727 0.51986 0.0
H675 H 0.97862 0.01636 0.53167 0.0
H676 H 6e-05 0.0272 0.51864 0.0
H677 H 0.03927 0.9737 0.58432 0.0
H678 H 0.00902 0.97671 0.58322 0.0
H679 H 0.02303 0.95678 0.57079 0.0
H680 H 0.93751 0.97619 0.56848 0.0
H681 H 0.97188 0.92654 0.54037 0.0
H682 H 0.97302 0.02213 0.56003 0.0
H683 H 0.98288 0.00916 0.57774 0.0
H684 H 0.95297 0.01151 0.57418 0.0
H685 H 0.01464 0.96256 0.52576 0.0
H686 H 0.00734 0.93333 0.52894 0.0
H687 H 0.0252 0.94812 0.54269 0.0
C688 C 0.29065 0.14582 0.35426 0.0
C689 C 0.3062 0.1608 0.36099 0.0
C690 C 0.26781 0.14629 0.35865 0.0
C691 C 0.26058 0.16154 0.37046 0.0
C692 C 0.27635 0.17643 0.37749 0.0
C693 C 0.29893 0.17616 0.37245 0.0
C694 C 0.25139 0.13065 0.35052 0.0
C695 C 0.26943 0.19241 0.39048 0.0
C696 C 0.19852 0.17735 0.37347 0.0
C697 C 0.19087 0.1621 0.38487 0.0
C698 C 0.22112 0.17713 0.36847 0.0
C699 C 0.23653 0.16183 0.37549 0.0
C700 C 0.22893 0.1467 0.38725 0.0
C701 C 0.20606 0.14674 0.3916 0.0
C702 C 0.22844 0.19301 0.35554 0.0
C703 C 0.24497 0.13063 0.39536 0.0
H704 H 0.29627 0.13408 0.34528 0.0
H705 H 0.31102 0.18763 0.37773 0.0
H706 H 0.24376 0.11893 0.35919 0.0
H707 H 0.23741 0.14059 0.34524 0.0
H708 H 0.25957 0.12051 0.34111 0.0
H709 H 0.28392 0.20229 0.39511 0.0
H710 H 0.25644 0.20435 0.38611 0.0
H711 H 0.26176 0.18277 0.40033 0.0
H712 H 0.1867 0.18912 0.3682 0.0
H713 H 0.20016 0.13507 0.40053 0.0
H714 H 0.23586 0.18324 0.34566 0.0
H715 H 0.24172 0.20458 0.35995 0.0
H716 H 0.2142 0.2033 0.35094 0.0
H717 H 0.25232 0.11874 0.38667 0.0
H718 H 0.23655 0.12068 0.40476 0.0
H719 H 0.25919 0.1402 0.40066 0.0
C720 C 0.84503 0.69421 0.62478 0.0
C721 C 0.82974 0.68815 0.63665 0.0
C722 C 0.84522 0.71617 0.61855 0.0
C723 C 0.8301 0.73256 0.62459 0.0
C724 C 0.81486 0.72661 0.63674 0.0
C725 C 0.8147 0.70441 0.6425 0.0
C726 C 0.8614 0.72178 0.60538 0.0
C727 C 0.79879 0.74374 0.6437 0.0
C728 C 0.84417 0.79453 0.61833 0.0
C729 C 0.82921 0.80038 0.60621 0.0
C730 C 0.84458 0.77253 0.62449 0.0
C731 C 0.83003 0.7559 0.61811 0.0
C732 C 0.81518 0.76164 0.60569 0.0
C733 C 0.81476 0.78389 0.6 0.0
C734 C 0.86033 0.76716 0.63795 0.0
C735 C 0.79974 0.74426 0.59837 0.0
H736 H 0.85661 0.68166 0.62016 0.0
H737 H 0.80297 0.69984 0.65176 0.0
H738 H 0.85186 0.72778 0.59495 0.0
H739 H 0.8728 0.73567 0.60903 0.0
H740 H 0.87186 0.70703 0.60186 0.0
H741 H 0.78853 0.73658 0.65344 0.0
H742 H 0.80839 0.75845 0.64826 0.0
H743 H 0.78719 0.75012 0.63447 0.0
H744 H 0.85529 0.80727 0.62321 0.0
H745 H 0.8033 0.7883 0.59054 0.0
H746 H 0.87209 0.75342 0.63453 0.0
H747 H 0.85048 0.76103 0.64821 0.0
H748 H 0.87042 0.78205 0.64166 0.0
H749 H 0.80979 0.72971 0.59404 0.0
H750 H 0.78981 0.75126 0.58841 0.0
H751 H 0.78783 0.7377 0.60734 0.0
C752 C 0.29007 0.36157 0.89655 0.0
C753 C 0.30557 0.34686 0.88946 0.0
C754 C 0.26713 0.36107 0.89243 0.0
C755 C 0.2597 0.34603 0.88056 0.0
C756 C 0.27539 0.33139 0.87318 0.0
C757 C 0.2981 0.33171 0.87792 0.0
C758 C 0.2508 0.37646 0.9009 0.0
C759 C 0.26824 0.3156 0.86014 0.0
C760 C 0.19768 0.32997 0.87806 0.0
C761 C 0.18971 0.3453 0.8668 0.0
C762 C 0.22037 0.33026 0.88285 0.0
C763 C 0.23554 0.34573 0.87579 0.0
C764 C 0.22761 0.36099 0.86421 0.0
C765 C 0.20468 0.36084 0.86004 0.0
C766 C 0.22805 0.3142 0.89558 0.0
C767 C 0.24338 0.37728 0.85609 0.0
H768 H 0.29582 0.37315 0.90559 0.0
H769 H 0.31013 0.32043 0.87236 0.0
H770 H 0.24286 0.38829 0.89242 0.0
H771 H 0.23704 0.36635 0.90627 0.0
H772 H 0.25915 0.38649 0.91029 0.0
H773 H 0.28266 0.30583 0.85527 0.0
H774 H 0.25539 0.30355 0.86456 0.0
H775 H 0.26031 0.32538 0.85046 0.0
H776 H 0.18605 0.31805 0.88336 0.0
H777 H 0.19855 0.37257 0.85122 0.0
H778 H 0.23565 0.32384 0.90545 0.0
H779 H 0.2413 0.30275 0.89093 0.0
H780 H 0.21397 0.30378 0.90025 0.0
H781 H 0.2509 0.38899 0.86482 0.0
H782 H 0.23469 0.38743 0.8469 0.0
H783 H 0.25749 0.36788 0.85051 0.0
C784 C 0.68218 0.78739 0.14829 0.0
C785 C 0.66846 0.80455 0.14212 0.0
C786 C 0.68128 0.76535 0.14225 0.0
C787 C 0.66667 0.76048 0.12951 0.0
C788 C 0.65284 0.77777 0.12318 0.0
C789 C 0.65373 0.79956 0.12968 0.0
C790 C 0.69595 0.74727 0.14953 0.0
C791 C 0.63736 0.77332 0.1094 0.0
C792 C 0.68147 0.70928 0.10464 0.0
C793 C 0.66586 0.69326 0.11005 0.0
C794 C 0.68164 0.73134 0.11068 0.0
C795 C 0.66615 0.73737 0.12266 0.0
C796 C 0.65043 0.72123 0.12823 0.0
C797 C 0.65031 0.69942 0.12173 0.0
C798 C 0.69836 0.7482 0.10421 0.0
C799 C 0.63394 0.72691 0.1412 0.0
H800 H 0.69346 0.79113 0.15799 0.0
H801 H 0.64316 0.8128 0.12483 0.0
H802 H 0.68534 0.7329 0.15346 0.0
H803 H 0.70796 0.74063 0.14063 0.0
H804 H 0.70575 0.75363 0.15975 0.0
H805 H 0.62782 0.78863 0.1058 0.0
H806 H 0.64736 0.76725 0.0992 0.0
H807 H 0.62513 0.75983 0.11243 0.0
H808 H 0.6934 0.70465 0.09552 0.0
H809 H 0.63828 0.68705 0.126 0.0
H810 H 0.70986 0.75393 0.11371 0.0
H811 H 0.68931 0.76334 0.09977 0.0
H812 H 0.7087 0.74107 0.0945 0.0
H813 H 0.64327 0.73224 0.1519 0.0
H814 H 0.62291 0.71239 0.14429 0.0
H815 H 0.6231 0.74129 0.1376 0.0
C816 C 0.79721 0.65648 0.86841 0.0
C817 C 0.80349 0.67169 0.85654 0.0
C818 C 0.77566 0.65744 0.87528 0.0
C819 C 0.7599 0.67371 0.86993 0.0
C820 C 0.76602 0.68884 0.85775 0.0
C821 C 0.78782 0.68779 0.85131 0.0
C822 C 0.76988 0.64128 0.88842 0.0
C823 C 0.74954 0.70616 0.85154 0.0
C824 C 0.6976 0.66374 0.87821 0.0
C825 C 0.69367 0.67867 0.89073 0.0
C826 C 0.71906 0.662 0.87127 0.0
C827 C 0.7371 0.67518 0.87722 0.0
C828 C 0.7333 0.69 0.89003 0.0
C829 C 0.71158 0.69173 0.89652 0.0
C830 C 0.72237 0.6463 0.85746 0.0
C831 C 0.75219 0.70403 0.89688 0.0
H832 H 0.8093 0.64407 0.87255 0.0
H833 H 0.79253 0.69948 0.84206 0.0
H834 H 0.76539 0.65089 0.89919 0.0
H835 H 0.75492 0.63103 0.88515 0.0
H836 H 0.78406 0.62967 0.89124 0.0
H837 H 0.75666 0.71613 0.84164 0.0
H838 H 0.7339 0.69768 0.84744 0.0
H839 H 0.74464 0.71796 0.86109 0.0
H840 H 0.68379 0.65369 0.87363 0.0
H841 H 0.70867 0.70318 0.90627 0.0
H842 H 0.73553 0.63357 0.86025 0.0
H843 H 0.72837 0.656 0.8471 0.0
H844 H 0.70658 0.63731 0.8542 0.0
H845 H 0.76631 0.6929 0.90059 0.0
H846 H 0.74661 0.71416 0.90717 0.0
H847 H 0.75892 0.71569 0.8878 0.0
C848 C 0.34428 0.29624 0.12074 0.0
C849 C 0.32935 0.3015 0.10847 0.0
C850 C 0.34451 0.27462 0.12753 0.0
C851 C 0.32979 0.25776 0.12167 0.0
C852 C 0.31487 0.26291 0.10916 0.0
C853 C 0.31466 0.2848 0.10282 0.0
C854 C 0.36036 0.26988 0.14106 0.0
C855 C 0.29921 0.24527 0.1024 0.0
C856 C 0.34496 0.19648 0.12974 0.0
C857 C 0.32998 0.19105 0.14194 0.0
C858 C 0.34494 0.21808 0.12293 0.0
C859 C 0.32991 0.23475 0.12869 0.0
C860 C 0.31491 0.22942 0.14111 0.0
C861 C 0.31497 0.20755 0.14748 0.0
C862 C 0.36089 0.22302 0.10949 0.0
C863 C 0.29892 0.24686 0.14776 0.0
H864 H 0.35558 0.30913 0.12521 0.0
H865 H 0.3032 0.28874 0.09325 0.0
H866 H 0.3506 0.26419 0.15148 0.0
H867 H 0.37212 0.25601 0.13788 0.0
H868 H 0.37045 0.28494 0.14441 0.0
H869 H 0.28906 0.25185 0.09241 0.0
H870 H 0.30913 0.23051 0.09827 0.0
H871 H 0.28751 0.23913 0.11165 0.0
H872 H 0.35652 0.18374 0.12536 0.0
H873 H 0.30346 0.20348 0.15699 0.0
H874 H 0.37242 0.23701 0.11274 0.0
H875 H 0.35117 0.2286 0.09902 0.0
H876 H 0.37121 0.20807 0.10619 0.0
H877 H 0.30857 0.26174 0.15197 0.0
H878 H 0.28872 0.24015 0.15769 0.0
H879 H 0.28727 0.25287 0.13844 0.0
C880 C 0.78635 0.861 0.39303 0.0
C881 C 0.8038 0.84875 0.38587 0.0
C882 C 0.76388 0.85846 0.38808 0.0
C883 C 0.7589 0.84388 0.37534 0.0
C884 C 0.77654 0.83171 0.36792 0.0
C885 C 0.79876 0.83401 0.37346 0.0
C886 C 0.74546 0.87122 0.39658 0.0
C887 C 0.77199 0.81653 0.354 0.0
C888 C 0.69908 0.82189 0.37008 0.0
C889 C 0.69019 0.83741 0.35928 0.0
C890 C 0.72135 0.82395 0.37557 0.0
C891 C 0.73523 0.84151 0.3697 0.0
C892 C 0.72644 0.85695 0.35853 0.0
C893 C 0.70388 0.85493 0.35366 0.0
C894 C 0.72991 0.80758 0.38782 0.0
C895 C 0.7409 0.87549 0.35165 0.0
H896 H 0.79021 0.87226 0.40272 0.0
H897 H 0.81229 0.82466 0.36785 0.0
H898 H 0.73689 0.88297 0.38835 0.0
H899 H 0.7325 0.85925 0.40098 0.0
H900 H 0.75205 0.88112 0.40669 0.0
H901 H 0.78767 0.80875 0.34929 0.0
H902 H 0.76018 0.80285 0.35741 0.0
H903 H 0.76376 0.82633 0.34446 0.0
H904 H 0.68843 0.80842 0.37451 0.0
H905 H 0.69707 0.86682 0.34519 0.0
H906 H 0.7357 0.81697 0.39837 0.0
H907 H 0.74465 0.79812 0.38318 0.0
H908 H 0.71678 0.79525 0.39147 0.0
H909 H 0.74651 0.88712 0.3611 0.0
H910 H 0.73179 0.88546 0.34258 0.0
H911 H 0.7563 0.86812 0.34625 0.0
C912 C 0.172 0.28278 0.64933 0.0
C913 C 0.15767 0.30007 0.64408 0.0
C914 C 0.17148 0.26129 0.64238 0.0
C915 C 0.15662 0.25715 0.62965 0.0
C916 C 0.14224 0.27461 0.62422 0.0
C917 C 0.14275 0.2958 0.63163 0.0
C918 C 0.18674 0.24297 0.64871 0.0
C919 C 0.1265 0.27098 0.61046 0.0
C920 C 0.17129 0.20835 0.60249 0.0
C921 C 0.15598 0.19174 0.60741 0.0
C922 C 0.17146 0.22982 0.60948 0.0
C923 C 0.15629 0.23461 0.62192 0.0
C924 C 0.14093 0.21783 0.62704 0.0
C925 C 0.14079 0.19666 0.61959 0.0
C926 C 0.18778 0.24743 0.60348 0.0
C927 C 0.12482 0.22216 0.64048 0.0
H928 H 0.18345 0.28597 0.65904 0.0
H929 H 0.13174 0.30916 0.62747 0.0
H930 H 0.17655 0.2281 0.65226 0.0
H931 H 0.19856 0.23728 0.63939 0.0
H932 H 0.19677 0.24872 0.65901 0.0
H933 H 0.11664 0.28639 0.60754 0.0
H934 H 0.13634 0.26585 0.59993 0.0
H935 H 0.11454 0.25709 0.61311 0.0
H936 H 0.18296 0.20467 0.593 0.0
H937 H 0.129 0.18382 0.62349 0.0
H938 H 0.19942 0.25261 0.61305 0.0
H939 H 0.1784 0.26273 0.59972 0.0
H940 H 0.19799 0.24122 0.5934 0.0
H941 H 0.13443 0.22688 0.6512 0.0
H942 H 0.11421 0.2072 0.64321 0.0
H943 H 0.11356 0.23655 0.63759 0.0
loop_
_geom_bond_atom_site_label_1
_geom_bond_atom_site_label_2
_geom_bond_distance
_geom_bond_site_symmetry_2
_ccdc_geom_bond_type
O0 Cd1 2.300 . S
O0 C7 1.275 . S
Cd1 O0 2.300 . S
Cd1 O9 2.381 . S
Cd1 O10 2.378 . S
O2 Cd3 2.385 . S
O2 C7 1.255 . S
Cd3 O2 2.385 . S
Cd3 O4 2.317 . S
O4 Cd3 2.317 . S
O4 C5 1.232 . S
C5 O4 1.232 . S
C5 O6 1.218 . S
O6 C5 1.218 . S
C7 O0 1.275 . S
C7 O2 1.255 . S
C8 O9 1.258 . S
C8 O10 1.256 . S
O9 Cd1 2.381 . S
O9 C8 1.258 . S
O10 Cd1 2.378 . S
O10 C8 1.256 . S
O11 Cd12 2.300 . S
O11 C18 1.275 . S
Cd12 O11 2.300 . S
Cd12 O20 2.381 . S
Cd12 O21 2.378 . S
O13 Cd14 2.385 . S
O13 C18 1.255 . S
Cd14 O13 2.385 . S
Cd14 O15 2.317 . S
O15 Cd14 2.317 . S
O15 C16 1.232 . S
C16 O15 1.232 . S
C16 O17 1.218 . S
O17 C16 1.218 . S
C18 O11 1.275 . S
C18 O13 1.255 . S
C19 O20 1.258 . S
C19 O21 1.256 . S
O20 Cd12 2.381 . S
O20 C19 1.258 . S
O21 Cd12 2.378 . S
O21 C19 1.256 . S
O22 Cd23 2.300 . S
O22 C29 1.275 . S
Cd23 O22 2.300 . S
Cd23 O31 2.381 . S
Cd23 O32 2.378 . S
O24 Cd25 2.385 . S
O24 C29 1.255 . S
Cd25 O24 2.385 . S
Cd25 O26 2.317 . S
O26 Cd25 2.317 . S
O26 C27 1.232 . S
C27 O26 1.232 . S
C27 O28 1.218 . S
O28 C27 1.218 . S
C29 O22 1.275 . S
C29 O24 1.255 . S
C30 O31 1.258 . S
C30 O32 1.256 . S
O31 Cd23 2.381 . S
O31 C30 1.258 . S
O32 Cd23 2.378 . S
O32 C30 1.256 . S
O33 Cd34 2.300 . S
O33 C40 1.275 . S
Cd34 O33 2.300 . S
Cd34 O42 2.381 . S
Cd34 O43 2.378 . S
O35 Cd36 2.385 . S
O35 C40 1.255 . S
Cd36 O35 2.385 . S
Cd36 O37 2.317 . S
O37 Cd36 2.317 . S
O37 C38 1.232 . S
C38 O37 1.232 . S
C38 O39 1.218 . S
O39 C38 1.218 . S
C40 O33 1.275 . S
C40 O35 1.255 . S
C41 O42 1.258 . S
C41 O43 1.256 . S
O42 Cd34 2.381 . S
O42 C41 1.258 . S
O43 Cd34 2.378 . S
O43 C41 1.256 . S
O44 Cd45 2.300 . S
O44 C51 1.275 . S
Cd45 O44 2.300 . S
Cd45 O53 2.381 . S
Cd45 O54 2.378 . S
O46 Cd47 2.385 . S
O46 C51 1.255 . S
Cd47 O46 2.385 . S
Cd47 O48 2.317 . S
O48 Cd47 2.317 . S
O48 C49 1.232 . S
C49 O48 1.232 . S
C49 O50 1.218 . S
O50 C49 1.218 . S
C51 O44 1.275 . S
C51 O46 1.255 . S
C52 O53 1.258 . S
C52 O54 1.256 . S
O53 Cd45 2.381 . S
O53 C52 1.258 . S
O54 Cd45 2.378 . S
O54 C52 1.256 . S
O55 Cd56 2.300 . S
O55 C62 1.275 . S
Cd56 O55 2.300 . S
Cd56 O64 2.381 . S
Cd56 O65 2.378 . S
O57 Cd58 2.385 . S
O57 C62 1.255 . S
Cd58 O57 2.385 . S
Cd58 O59 2.317 . S
O59 Cd58 2.317 . S
O59 C60 1.232 . S
C60 O59 1.232 . S
C60 O61 1.218 . S
O61 C60 1.218 . S
C62 O55 1.275 . S
C62 O57 1.255 . S
C63 O64 1.258 . S
C63 O65 1.256 . S
O64 Cd56 2.381 . S
O64 C63 1.258 . S
O65 Cd56 2.378 . S
O65 C63 1.256 . S
O66 Cd67 2.300 . S
O66 C73 1.275 . S
Cd67 O66 2.300 . S
Cd67 O75 2.381 . S
Cd67 O76 2.378 . S
O68 Cd69 2.385 . S
O68 C73 1.255 . S
Cd69 O68 2.385 . S
Cd69 O70 2.317 . S
O70 Cd69 2.317 . S
O70 C71 1.232 . S
C71 O70 1.232 . S
C71 O72 1.218 . S
O72 C71 1.218 . S
C73 O66 1.275 . S
C73 O68 1.255 . S
C74 O75 1.258 . S
C74 O76 1.256 . S
O75 Cd67 2.381 . S
O75 C74 1.258 . S
O76 Cd67 2.378 . S
O76 C74 1.256 . S
O77 Cd78 2.300 . S
O77 C84 1.275 . S
Cd78 O77 2.300 . S
Cd78 O86 2.381 . S
Cd78 O87 2.378 . S
O79 Cd80 2.385 . S
O79 C84 1.255 . S
Cd80 O79 2.385 . S
Cd80 O81 2.317 . S
O81 Cd80 2.317 . S
O81 C82 1.232 . S
C82 O81 1.232 . S
C82 O83 1.218 . S
O83 C82 1.218 . S
C84 O77 1.275 . S
C84 O79 1.255 . S
C85 O86 1.258 . S
C85 O87 1.256 . S
O86 Cd78 2.381 . S
O86 C85 1.258 . S
O87 Cd78 2.378 . S
O87 C85 1.256 . S
O88 Cd89 2.300 . S
O88 C95 1.275 . S
Cd89 O88 2.300 . S
Cd89 O97 2.381 . S
Cd89 O98 2.378 . S
O90 Cd91 2.385 . S
O90 C95 1.255 . S
Cd91 O90 2.385 . S
Cd91 O92 2.317 . S
O92 Cd91 2.317 . S
O92 C93 1.232 . S
C93 O92 1.232 . S
C93 O94 1.218 . S
O94 C93 1.218 . S
C95 O88 1.275 . S
C95 O90 1.255 . S
C96 O97 1.258 . S
C96 O98 1.256 . S
O97 Cd89 2.381 . S
O97 C96 1.258 . S
O98 Cd89 2.378 . S
O98 C96 1.256 . S
O99 Cd100 2.300 . S
O99 C106 1.275 . S
Cd100 O99 2.300 . S
Cd100 O108 2.381 . S
Cd100 O109 2.378 . S
O101 Cd102 2.385 . S
O101 C106 1.255 . S
Cd102 O101 2.385 . S
Cd102 O103 2.317 . S
O103 Cd102 2.317 . S
O103 C104 1.232 . S
C104 O103 1.232 . S
C104 O105 1.218 . S
O105 C104 1.218 . S
C106 O99 1.275 . S
C106 O101 1.255 . S
C107 O108 1.258 . S
C107 O109 1.256 . S
O108 Cd100 2.381 . S
O108 C107 1.258 . S
O109 Cd100 2.378 . S
O109 C107 1.256 . S
O110 Cd111 2.300 . S
O110 C117 1.275 . S
Cd111 O110 2.300 . S
Cd111 O119 2.381 . S
Cd111 O120 2.378 . S
O112 Cd113 2.385 . S
O112 C117 1.255 . S
Cd113 O112 2.385 . S
Cd113 O114 2.317 . S
O114 Cd113 2.317 . S
O114 C115 1.232 . S
C115 O114 1.232 . S
C115 O116 1.218 . S
O116 C115 1.218 . S
C117 O110 1.275 . S
C117 O112 1.255 . S
C118 O119 1.258 . S
C118 O120 1.256 . S
O119 Cd111 2.381 . S
O119 C118 1.258 . S
O120 Cd111 2.378 . S
O120 C118 1.256 . S
O121 Cd122 2.300 . S
O121 C128 1.275 . S
Cd122 O121 2.300 . S
Cd122 O130 2.381 . S
Cd122 O131 2.378 . S
O123 Cd124 2.385 . S
O123 C128 1.255 . S
Cd124 O123 2.385 . S
Cd124 O125 2.317 . S
O125 Cd124 2.317 . S
O125 C126 1.232 . S
C126 O125 1.232 . S
C126 O127 1.218 . S
O127 C126 1.218 . S
C128 O121 1.275 . S
C128 O123 1.255 . S
C129 O130 1.258 . S
C129 O131 1.256 . S
O130 Cd122 2.381 . S
O130 C129 1.258 . S
O131 Cd122 2.378 . S
O131 C129 1.256 . S
O132 Cd133 2.300 . S
O132 C139 1.275 . S
Cd133 O132 2.300 . S
Cd133 O141 2.381 . S
Cd133 O142 2.378 . S
O134 Cd135 2.385 . S
O134 C139 1.255 . S
Cd135 O134 2.385 . S
Cd135 O136 2.317 . S
O136 Cd135 2.317 . S
O136 C137 1.232 . S
C137 O136 1.232 . S
C137 O138 1.218 . S
O138 C137 1.218 . S
C139 O132 1.275 . S
C139 O134 1.255 . S
C140 O141 1.258 . S
C140 O142 1.256 . S
O141 Cd133 2.381 . S
O141 C140 1.258 . S
O142 Cd133 2.378 . S
O142 C140 1.256 . S
O143 Cd144 2.300 . S
O143 C150 1.275 . S
Cd144 O143 2.300 . S
Cd144 O152 2.381 . S
Cd144 O153 2.378 . S
O145 Cd146 2.385 . S
O145 C150 1.255 . S
Cd146 O145 2.385 . S
Cd146 O147 2.317 . S
O147 Cd146 2.317 . S
O147 C148 1.232 . S
C148 O147 1.232 . S
C148 O149 1.218 . S
O149 C148 1.218 . S
C150 O143 1.275 . S
C150 O145 1.255 . S
C151 O152 1.258 . S
C151 O153 1.256 . S
O152 Cd144 2.381 . S
O152 C151 1.258 . S
O153 Cd144 2.378 . S
O153 C151 1.256 . S
O154 Cd155 2.300 . S
O154 C161 1.275 . S
Cd155 O154 2.300 . S
Cd155 O163 2.381 . S
Cd155 O164 2.378 . S
O156 Cd157 2.385 . S
O156 C161 1.255 . S
Cd157 O156 2.385 . S
Cd157 O158 2.317 . S
O158 Cd157 2.317 . S
O158 C159 1.232 . S
C159 O158 1.232 . S
C159 O160 1.218 . S
O160 C159 1.218 . S
C161 O154 1.275 . S
C161 O156 1.255 . S
C162 O163 1.258 . S
C162 O164 1.256 . S
O163 Cd155 2.381 . S
O163 C162 1.258 . S
O164 Cd155 2.378 . S
O164 C162 1.256 . S
O165 Cd166 2.300 . S
O165 C172 1.275 . S
Cd166 O165 2.300 . S
Cd166 O174 2.381 . S
Cd166 O175 2.378 . S
O167 Cd168 2.385 . S
O167 C172 1.255 . S
Cd168 O167 2.385 . S
Cd168 O169 2.317 . S
O169 Cd168 2.317 . S
O169 C170 1.232 . S
C170 O169 1.232 . S
C170 O171 1.218 . S
O171 C170 1.218 . S
C172 O165 1.275 . S
C172 O167 1.255 . S
C173 O174 1.258 . S
C173 O175 1.256 . S
O174 Cd166 2.381 . S
O174 C173 1.258 . S
O175 Cd166 2.378 . S
O175 C173 1.256 . S
C176 C177 1.391 . S
C176 C178 1.394 . S
C176 H192 0.931 . S
C177 C176 1.391 . S
C177 C181 1.376 . S
C178 C176 1.394 . S
C178 C179 1.369 . S
C178 C182 1.531 . S
C179 C178 1.369 . S
C179 C180 1.410 . S
C179 C187 1.503 . S
C180 C179 1.410 . S
C180 C181 1.392 . S
C180 C183 1.511 . S
C181 C177 1.376 . S
C181 C180 1.392 . S
C181 H193 0.929 . S
C182 C178 1.531 . S
C182 H194 0.960 . S
C182 H195 0.962 . S
C182 H196 0.960 . S
C183 C180 1.511 . S
C183 H197 0.961 . S
C183 H198 0.961 . S
C183 H199 0.961 . S
C184 C185 1.370 . S
C184 C186 1.363 . S
C184 H200 0.931 . S
C185 C184 1.370 . S
C185 C189 1.408 . S
C186 C184 1.363 . S
C186 C187 1.370 . S
C186 C190 1.524 . S
C187 C179 1.503 . S
C187 C186 1.370 . S
C187 C188 1.403 . S
C188 C187 1.403 . S
C188 C189 1.404 . S
C188 C191 1.539 . S
C189 C185 1.408 . S
C189 C188 1.404 . S
C189 H201 0.930 . S
C190 C186 1.524 . S
C190 H202 0.956 . S
C190 H203 0.961 . S
C190 H204 0.961 . S
C191 C188 1.539 . S
C191 H205 0.958 . S
C191 H206 0.961 . S
C191 H207 0.960 . S
H192 C176 0.931 . S
H193 C181 0.929 . S
H194 C182 0.960 . S
H195 C182 0.962 . S
H196 C182 0.960 . S
H197 C183 0.961 . S
H198 C183 0.961 . S
H199 C183 0.961 . S
H200 C184 0.931 . S
H201 C189 0.930 . S
H202 C190 0.956 . S
H203 C190 0.961 . S
H204 C190 0.961 . S
H205 C191 0.958 . S
H206 C191 0.961 . S
H207 C191 0.960 . S
C208 C209 1.391 . S
C208 C210 1.394 . S
C208 H224 0.931 . S
C209 C208 1.391 . S
C209 C213 1.376 . S
C210 C208 1.394 . S
C210 C211 1.369 . S
C210 C214 1.531 . S
C211 C210 1.369 . S
C211 C212 1.410 . S
C211 C219 1.503 . S
C212 C211 1.410 . S
C212 C213 1.392 . S
C212 C215 1.511 . S
C213 C209 1.376 . S
C213 C212 1.392 . S
C213 H225 0.929 . S
C214 C210 1.531 . S
C214 H226 0.960 . S
C214 H227 0.962 . S
C214 H228 0.960 . S
C215 C212 1.511 . S
C215 H229 0.961 . S
C215 H230 0.961 . S
C215 H231 0.961 . S
C216 C217 1.370 . S
C216 C218 1.363 . S
C216 H232 0.931 . S
C217 C216 1.370 . S
C217 C221 1.408 . S
C218 C216 1.363 . S
C218 C219 1.370 . S
C218 C222 1.524 . S
C219 C211 1.503 . S
C219 C218 1.370 . S
C219 C220 1.403 . S
C220 C219 1.403 . S
C220 C221 1.404 . S
C220 C223 1.539 . S
C221 C217 1.408 . S
C221 C220 1.404 . S
C221 H233 0.930 . S
C222 C218 1.524 . S
C222 H234 0.956 . S
C222 H235 0.961 . S
C222 H236 0.961 . S
C223 C220 1.539 . S
C223 H237 0.958 . S
C223 H238 0.961 . S
C223 H239 0.960 . S
H224 C208 0.931 . S
H225 C213 0.929 . S
H226 C214 0.960 . S
H227 C214 0.962 . S
H228 C214 0.960 . S
H229 C215 0.961 . S
H230 C215 0.961 . S
H231 C215 0.961 . S
H232 C216 0.931 . S
H233 C221 0.930 . S
H234 C222 0.956 . S
H235 C222 0.961 . S
H236 C222 0.961 . S
H237 C223 0.958 . S
H238 C223 0.961 . S
H239 C223 0.960 . S
C240 C241 1.391 . S
C240 C242 1.394 . S
C240 H256 0.931 . S
C241 C240 1.391 . S
C241 C245 1.376 . S
C242 C240 1.394 . S
C242 C243 1.369 . S
C242 C246 1.531 . S
C243 C242 1.369 . S
C243 C244 1.410 . S
C243 C251 1.503 1_556 S
C244 C243 1.410 . S
C244 C245 1.392 . S
C244 C247 1.511 . S
C245 C241 1.376 . S
C245 C244 1.392 . S
C245 H257 0.929 . S
C246 C242 1.531 . S
C246 H258 0.960 1_556 S
C246 H259 0.962 . S
C246 H260 0.960 . S
C247 C244 1.511 . S
C247 H261 0.961 . S
C247 H262 0.961 1_556 S
C247 H263 0.961 . S
C248 C249 1.370 . S
C248 C250 1.363 . S
C248 H264 0.931 . S
C249 C248 1.370 . S
C249 C253 1.408 . S
C250 C248 1.363 . S
C250 C251 1.370 . S
C250 C254 1.524 . S
C251 C243 1.503 1_554 S
C251 C250 1.370 . S
C251 C252 1.403 . S
C252 C251 1.403 . S
C252 C253 1.404 . S
C252 C255 1.539 . S
C253 C249 1.408 . S
C253 C252 1.404 . S
C253 H265 0.930 . S
C254 C250 1.524 . S
C254 H266 0.956 . S
C254 H267 0.948 1_554 S
C254 H268 0.961 . S
C255 C252 1.539 . S
C255 H269 0.958 . S
C255 H270 0.961 . S
C255 H271 0.928 1_554 S
H256 C240 0.931 . S
H257 C245 0.929 . S
H258 C246 0.960 1_554 S
H259 C246 0.962 . S
H260 C246 0.960 . S
H261 C247 0.961 . S
H262 C247 0.961 1_554 S
H263 C247 0.961 . S
H264 C248 0.931 . S
H265 C253 0.930 . S
H266 C254 0.956 . S
H267 C254 0.948 1_556 S
H268 C254 0.961 . S
H269 C255 0.958 . S
H270 C255 0.961 . S
H271 C255 0.928 1_556 S
C272 C273 1.391 . S
C272 C274 1.394 . S
C272 H288 0.931 . S
C273 C272 1.391 . S
C273 C277 1.376 . S
C274 C272 1.394 . S
C274 C275 1.369 . S
C274 C278 1.531 . S
C275 C274 1.369 . S
C275 C276 1.410 . S
C275 C283 1.503 . S
C276 C275 1.410 . S
C276 C277 1.392 . S
C276 C279 1.511 . S
C277 C273 1.376 . S
C277 C276 1.392 . S
C277 H289 0.929 . S
C278 C274 1.531 . S
C278 H290 0.960 . S
C278 H291 0.962 . S
C278 H292 0.960 . S
C279 C276 1.511 . S
C279 H293 0.961 . S
C279 H294 0.961 . S
C279 H295 0.961 . S
C280 C281 1.370 . S
C280 C282 1.363 . S
C280 H296 0.931 . S
C281 C280 1.370 . S
C281 C285 1.408 . S
C282 C280 1.363 . S
C282 C283 1.370 . S
C282 C286 1.524 . S
C283 C275 1.503 . S
C283 C282 1.370 . S
C283 C284 1.403 . S
C284 C283 1.403 . S
C284 C285 1.404 . S
C284 C287 1.539 . S
C285 C281 1.408 . S
C285 C284 1.404 . S
C285 H297 0.930 . S
C286 C282 1.524 . S
C286 H298 0.956 . S
C286 H299 0.961 . S
C286 H300 0.961 . S
C287 C284 1.539 . S
C287 H301 0.958 . S
C287 H302 0.961 . S
C287 H303 0.960 . S
H288 C272 0.931 . S
H289 C277 0.929 . S
H290 C278 0.960 . S
H291 C278 0.962 . S
H292 C278 0.960 . S
H293 C279 0.961 . S
H294 C279 0.961 . S
H295 C279 0.961 . S
H296 C280 0.931 . S
H297 C285 0.930 . S
H298 C286 0.956 . S
H299 C286 0.961 . S
H300 C286 0.961 . S
H301 C287 0.958 . S
H302 C287 0.961 . S
H303 C287 0.960 . S
C304 C305 1.391 . S
C304 C306 1.394 . S
C304 H320 0.931 . S
C305 C304 1.391 . S
C305 C309 1.376 . S
C306 C304 1.394 . S
C306 C307 1.369 . S
C306 C310 1.531 . S
C307 C306 1.369 . S
C307 C308 1.410 . S
C307 C315 1.503 . S
C308 C307 1.410 . S
C308 C309 1.392 . S
C308 C311 1.511 . S
C309 C305 1.376 . S
C309 C308 1.392 . S
C309 H321 0.929 . S
C310 C306 1.531 . S
C310 H322 0.960 . S
C310 H323 0.962 . S
C310 H324 0.960 . S
C311 C308 1.511 . S
C311 H325 0.961 . S
C311 H326 0.961 . S
C311 H327 0.961 . S
C312 C313 1.370 . S
C312 C314 1.363 . S
C312 H328 0.931 . S
C313 C312 1.370 . S
C313 C317 1.408 . S
C314 C312 1.363 . S
C314 C315 1.370 . S
C314 C318 1.524 . S
C315 C307 1.503 . S
C315 C314 1.370 . S
C315 C316 1.403 . S
C316 C315 1.403 . S
C316 C317 1.404 . S
C316 C319 1.539 . S
C317 C313 1.408 . S
C317 C316 1.404 . S
C317 H329 0.930 . S
C318 C314 1.524 . S
C318 H330 0.956 . S
C318 H331 0.961 . S
C318 H332 0.961 . S
C319 C316 1.539 . S
C319 H333 0.958 . S
C319 H334 0.961 . S
C319 H335 0.960 . S
H320 C304 0.931 . S
H321 C309 0.929 . S
H322 C310 0.960 . S
H323 C310 0.962 . S
H324 C310 0.960 . S
H325 C311 0.961 . S
H326 C311 0.961 . S
H327 C311 0.961 . S
H328 C312 0.931 . S
H329 C317 0.930 . S
H330 C318 0.956 . S
H331 C318 0.961 . S
H332 C318 0.961 . S
H333 C319 0.958 . S
H334 C319 0.961 . S
H335 C319 0.960 . S
C336 C337 1.391 . S
C336 C338 1.394 . S
C336 H352 0.931 . S
C337 C336 1.391 . S
C337 C341 1.376 . S
C338 C336 1.394 . S
C338 C339 1.369 . S
C338 C342 1.531 . S
C339 C338 1.369 . S
C339 C340 1.410 . S
C339 C347 1.503 1_556 S
C340 C339 1.410 . S
C340 C341 1.392 . S
C340 C343 1.511 . S
C341 C337 1.376 . S
C341 C340 1.392 . S
C341 H353 0.929 . S
C342 C338 1.531 . S
C342 H354 0.901 1_556 S
C342 H355 0.962 . S
C342 H356 0.960 . S
C343 C340 1.511 . S
C343 H357 0.961 . S
C343 H358 0.961 1_556 S
C343 H359 0.961 . S
C344 C345 1.370 . S
C344 C346 1.363 . S
C344 H360 0.931 . S
C345 C344 1.370 . S
C345 C349 1.408 . S
C346 C344 1.363 . S
C346 C347 1.370 . S
C346 C350 1.524 . S
C347 C339 1.503 1_554 S
C347 C346 1.370 . S
C347 C348 1.403 . S
C348 C347 1.403 . S
C348 C349 1.404 . S
C348 C351 1.539 . S
C349 C345 1.408 . S
C349 C348 1.404 . S
C349 H361 0.930 . S
C350 C346 1.524 . S
C350 H362 0.961 . S
C350 H363 0.961 1_554 S
C350 H364 0.961 . S
C351 C348 1.539 . S
C351 H365 0.958 . S
C351 H366 0.961 . S
C351 H367 1.002 . S
H352 C336 0.931 . S
H353 C341 0.929 . S
H354 C342 0.901 1_554 S
H355 C342 0.962 . S
H356 C342 0.960 . S
H357 C343 0.961 . S
H358 C343 0.961 1_554 S
H359 C343 0.961 . S
H360 C344 0.931 . S
H361 C349 0.930 . S
H362 C350 0.961 . S
H363 C350 0.961 1_556 S
H364 C350 0.961 . S
H365 C351 0.958 . S
H366 C351 0.961 . S
H367 C351 1.002 . S
C368 C369 1.391 . S
C368 C370 1.394 . S
C368 H384 0.931 . S
C369 C368 1.391 . S
C369 C373 1.376 . S
C370 C368 1.394 . S
C370 C371 1.369 . S
C370 C374 1.531 . S
C371 C370 1.369 . S
C371 C372 1.410 . S
C371 C379 1.503 . S
C372 C371 1.410 . S
C372 C373 1.392 . S
C372 C375 1.511 . S
C373 C369 1.376 . S
C373 C372 1.392 . S
C373 H385 0.929 . S
C374 C370 1.531 . S
C374 H386 0.960 . S
C374 H387 0.962 . S
C374 H388 0.960 . S
C375 C372 1.511 . S
C375 H389 0.961 . S
C375 H390 0.961 . S
C375 H391 0.961 . S
C376 C377 1.370 . S
C376 C378 1.363 . S
C376 H392 0.931 . S
C377 C376 1.370 . S
C377 C381 1.408 . S
C378 C376 1.363 . S
C378 C379 1.370 . S
C378 C382 1.524 . S
C379 C371 1.503 . S
C379 C378 1.370 . S
C379 C380 1.403 . S
C380 C379 1.403 . S
C380 C381 1.404 . S
C380 C383 1.539 . S
C381 C377 1.408 . S
C381 C380 1.404 . S
C381 H393 0.930 . S
C382 C378 1.524 . S
C382 H394 0.956 . S
C382 H395 0.961 . S
C382 H396 0.961 . S
C383 C380 1.539 . S
C383 H397 0.958 . S
C383 H398 0.961 . S
C383 H399 0.960 . S
H384 C368 0.931 . S
H385 C373 0.929 . S
H386 C374 0.960 . S
H387 C374 0.962 . S
H388 C374 0.960 . S
H389 C375 0.961 . S
H390 C375 0.961 . S
H391 C375 0.961 . S
H392 C376 0.931 . S
H393 C381 0.930 . S
H394 C382 0.956 . S
H395 C382 0.961 . S
H396 C382 0.961 . S
H397 C383 0.958 . S
H398 C383 0.961 . S
H399 C383 0.960 . S
C400 C401 1.391 . S
C400 C402 1.394 . S
C400 H416 0.931 . S
C401 C400 1.391 . S
C401 C405 1.376 . S
C402 C400 1.394 . S
C402 C403 1.369 . S
C402 C406 1.531 . S
C403 C402 1.369 . S
C403 C404 1.410 . S
C403 C411 1.503 . S
C404 C403 1.410 . S
C404 C405 1.392 . S
C404 C407 1.511 . S
C405 C401 1.376 . S
C405 C404 1.392 . S
C405 H417 0.929 . S
C406 C402 1.531 . S
C406 H418 0.960 . S
C406 H419 0.962 . S
C406 H420 0.960 . S
C407 C404 1.511 . S
C407 H421 0.961 . S
C407 H422 0.961 . S
C407 H423 0.961 . S
C408 C409 1.370 . S
C408 C410 1.363 . S
C408 H424 0.931 . S
C409 C408 1.370 . S
C409 C413 1.408 . S
C410 C408 1.363 . S
C410 C411 1.370 . S
C410 C414 1.524 . S
C411 C403 1.503 . S
C411 C410 1.370 . S
C411 C412 1.403 . S
C412 C411 1.403 . S
C412 C413 1.404 . S
C412 C415 1.539 . S
C413 C409 1.408 . S
C413 C412 1.404 . S
C413 H425 0.930 . S
C414 C410 1.524 . S
C414 H426 0.956 . S
C414 H427 0.961 . S
C414 H428 0.961 . S
C415 C412 1.539 . S
C415 H429 0.958 . S
C415 H430 0.961 . S
C415 H431 0.960 . S
H416 C400 0.931 . S
H417 C405 0.929 . S
H418 C406 0.960 . S
H419 C406 0.962 . S
H420 C406 0.960 . S
H421 C407 0.961 . S
H422 C407 0.961 . S
H423 C407 0.961 . S
H424 C408 0.931 . S
H425 C413 0.930 . S
H426 C414 0.956 . S
H427 C414 0.961 . S
H428 C414 0.961 . S
H429 C415 0.958 . S
H430 C415 0.961 . S
H431 C415 0.960 . S
C432 C433 1.391 . S
C432 C434 1.394 . S
C432 H448 0.931 . S
C433 C432 1.391 . S
C433 C437 1.376 . S
C434 C432 1.394 . S
C434 C435 1.369 . S
C434 C438 1.531 1_565 S
C435 C434 1.369 . S
C435 C436 1.410 . S
C435 C443 1.503 1_665 S
C436 C435 1.410 . S
C436 C437 1.392 . S
C436 C439 1.511 1_655 S
C437 C433 1.376 . S
C437 C436 1.392 . S
C437 H449 0.929 . S
C438 C434 1.531 1_545 S
C438 H450 0.960 . S
C438 H451 0.962 . S
C438 H452 0.960 . S
C439 C436 1.511 1_455 S
C439 H453 0.961 . S
C439 H454 0.961 . S
C439 H455 0.961 . S
C440 C441 1.370 . S
C440 C442 1.363 . S
C440 H456 0.931 . S
C441 C440 1.370 . S
C441 C445 1.408 . S
C442 C440 1.363 . S
C442 C443 1.370 . S
C442 C446 1.524 1_545 S
C443 C435 1.503 1_445 S
C443 C442 1.370 . S
C443 C444 1.403 . S
C444 C443 1.403 . S
C444 C445 1.404 . S
C444 C447 1.539 1_455 S
C445 C441 1.408 . S
C445 C444 1.404 . S
C445 H457 0.930 . S
C446 C442 1.524 1_565 S
C446 H458 0.956 . S
C446 H459 0.961 . S
C446 H460 0.961 . S
C447 C444 1.539 1_655 S
C447 H461 0.958 . S
C447 H462 0.961 . S
C447 H463 0.960 . S
H448 C432 0.931 . S
H449 C437 0.929 . S
H450 C438 0.960 . S
H451 C438 0.962 . S
H452 C438 0.960 . S
H453 C439 0.961 . S
H454 C439 0.961 . S
H455 C439 0.961 . S
H456 C440 0.931 . S
H457 C445 0.930 . S
H458 C446 0.956 . S
H459 C446 0.961 . S
H460 C446 0.961 . S
H461 C447 0.958 . S
H462 C447 0.961 . S
H463 C447 0.960 . S
C464 C465 1.391 . S
C464 C466 1.394 . S
C464 H480 0.931 . S
C465 C464 1.391 . S
C465 C469 1.376 . S
C466 C464 1.394 . S
C466 C467 1.369 . S
C466 C470 1.531 1_455 S
C467 C466 1.369 . S
C467 C468 1.410 . S
C467 C475 1.503 1_455 S
C468 C467 1.410 . S
C468 C469 1.392 . S
C468 C471 1.511 . S
C469 C465 1.376 . S
C469 C468 1.392 . S
C469 H481 0.929 . S
C470 C466 1.531 1_655 S
C470 H482 0.960 . S
C470 H483 0.962 . S
C470 H484 0.960 . S
C471 C468 1.511 . S
C471 H485 0.961 . S
C471 H486 0.961 . S
C471 H487 0.961 . S
C472 C473 1.370 . S
C472 C474 1.363 . S
C472 H488 0.931 . S
C473 C472 1.370 . S
C473 C477 1.408 . S
C474 C472 1.363 . S
C474 C475 1.370 . S
C474 C478 1.524 1_655 S
C475 C467 1.503 1_655 S
C475 C474 1.370 . S
C475 C476 1.403 . S
C476 C475 1.403 . S
C476 C477 1.404 . S
C476 C479 1.539 . S
C477 C473 1.408 . S
C477 C476 1.404 . S
C477 H489 0.930 . S
C478 C474 1.524 1_455 S
C478 H490 0.956 . S
C478 H491 0.961 . S
C478 H492 0.961 . S
C479 C476 1.539 . S
C479 H493 0.958 . S
C479 H494 0.961 . S
C479 H495 0.960 . S
H480 C464 0.931 . S
H481 C469 0.929 . S
H482 C470 0.960 . S
H483 C470 0.962 . S
H484 C470 0.960 . S
H485 C471 0.961 . S
H486 C471 0.961 . S
H487 C471 0.961 . S
H488 C472 0.931 . S
H489 C477 0.930 . S
H490 C478 0.956 . S
H491 C478 0.961 . S
H492 C478 0.961 . S
H493 C479 0.958 . S
H494 C479 0.961 . S
H495 C479 0.960 . S
C496 C497 1.391 . S
C496 C498 1.394 . S
C496 H512 0.931 . S
C497 C496 1.391 . S
C497 C501 1.376 . S
C498 C496 1.394 . S
C498 C499 1.369 . S
C498 C502 1.531 . S
C499 C498 1.369 . S
C499 C500 1.410 . S
C499 C507 1.503 . S
C500 C499 1.410 . S
C500 C501 1.392 . S
C500 C503 1.511 . S
C501 C497 1.376 . S
C501 C500 1.392 . S
C501 H513 0.929 . S
C502 C498 1.531 . S
C502 H514 0.960 . S
C502 H515 0.962 . S
C502 H516 0.960 . S
C503 C500 1.511 . S
C503 H517 0.961 . S
C503 H518 0.961 . S
C503 H519 0.961 . S
C504 C505 1.370 . S
C504 C506 1.363 . S
C504 H520 0.931 . S
C505 C504 1.370 . S
C505 C509 1.408 . S
C506 C504 1.363 . S
C506 C507 1.370 . S
C506 C510 1.524 . S
C507 C499 1.503 . S
C507 C506 1.370 . S
C507 C508 1.403 . S
C508 C507 1.403 . S
C508 C509 1.404 . S
C508 C511 1.539 . S
C509 C505 1.408 . S
C509 C508 1.404 . S
C509 H521 0.930 . S
C510 C506 1.524 . S
C510 H522 0.956 . S
C510 H523 0.961 . S
C510 H524 0.961 . S
C511 C508 1.539 . S
C511 H525 0.958 . S
C511 H526 0.961 . S
C511 H527 0.960 . S
H512 C496 0.931 . S
H513 C501 0.929 . S
H514 C502 0.960 . S
H515 C502 0.962 . S
H516 C502 0.960 . S
H517 C503 0.961 . S
H518 C503 0.961 . S
H519 C503 0.961 . S
H520 C504 0.931 . S
H521 C509 0.930 . S
H522 C510 0.956 . S
H523 C510 0.961 . S
H524 C510 0.961 . S
H525 C511 0.958 . S
H526 C511 0.961 . S
H527 C511 0.960 . S
C528 C529 1.391 . S
C528 C530 1.394 . S
C528 H544 0.931 . S
C529 C528 1.391 . S
C529 C533 1.376 . S
C530 C528 1.394 . S
C530 C531 1.369 . S
C530 C534 1.531 1_565 S
C531 C530 1.369 . S
C531 C532 1.410 . S
C531 C539 1.503 1_565 S
C532 C531 1.410 . S
C532 C533 1.392 . S
C532 C535 1.511 . S
C533 C529 1.376 . S
C533 C532 1.392 . S
C533 H545 0.929 . S
C534 C530 1.531 1_545 S
C534 H546 0.960 . S
C534 H547 0.962 . S
C534 H548 0.960 . S
C535 C532 1.511 . S
C535 H549 0.961 . S
C535 H550 0.961 . S
C535 H551 0.961 . S
C536 C537 1.370 . S
C536 C538 1.363 . S
C536 H552 0.931 . S
C537 C536 1.370 . S
C537 C541 1.408 . S
C538 C536 1.363 . S
C538 C539 1.370 . S
C538 C542 1.524 . S
C539 C531 1.503 1_545 S
C539 C538 1.370 . S
C539 C540 1.403 . S
C540 C539 1.403 . S
C540 C541 1.404 . S
C540 C543 1.539 1_545 S
C541 C537 1.408 . S
C541 C540 1.404 . S
C541 H553 0.930 . S
C542 C538 1.524 . S
C542 H554 0.956 . S
C542 H555 0.957 1_545 S
C542 H556 0.961 . S
C543 C540 1.539 1_565 S
C543 H557 0.958 1_565 S
C543 H558 0.961 . S
C543 H559 0.960 . S
H544 C528 0.931 . S
H545 C533 0.929 . S
H546 C534 0.960 . S
H547 C534 0.962 . S
H548 C534 0.960 . S
H549 C535 0.961 . S
H550 C535 0.961 . S
H551 C535 0.961 . S
H552 C536 0.931 . S
H553 C541 0.930 . S
H554 C542 0.956 . S
H555 C542 0.957 1_565 S
H556 C542 0.961 . S
H557 C543 0.958 1_545 S
H558 C543 0.961 . S
H559 C543 0.960 . S
C560 C561 1.391 . S
C560 C562 1.394 . S
C560 H576 0.931 . S
C561 C560 1.391 . S
C561 C565 1.376 . S
C562 C560 1.394 . S
C562 C563 1.369 . S
C562 C566 1.531 1_655 S
C563 C562 1.369 . S
C563 C564 1.410 . S
C563 C571 1.503 1_655 S
C564 C563 1.410 . S
C564 C565 1.392 . S
C564 C567 1.511 . S
C565 C561 1.376 . S
C565 C564 1.392 . S
C565 H577 0.929 . S
C566 C562 1.531 1_455 S
C566 H578 0.960 . S
C566 H579 0.962 . S
C566 H580 0.960 . S
C567 C564 1.511 . S
C567 H581 0.961 . S
C567 H582 0.961 . S
C567 H583 0.961 . S
C568 C569 1.370 . S
C568 C570 1.363 . S
C568 H584 0.931 . S
C569 C568 1.370 . S
C569 C573 1.408 . S
C570 C568 1.363 . S
C570 C571 1.370 . S
C570 C574 1.524 1_455 S
C571 C563 1.503 1_455 S
C571 C570 1.370 . S
C571 C572 1.403 . S
C572 C571 1.403 . S
C572 C573 1.404 . S
C572 C575 1.539 . S
C573 C569 1.408 . S
C573 C572 1.404 . S
C573 H585 0.930 . S
C574 C570 1.524 1_655 S
C574 H586 0.956 . S
C574 H587 0.961 . S
C574 H588 0.961 . S
C575 C572 1.539 . S
C575 H589 0.958 . S
C575 H590 0.961 . S
C575 H591 0.960 . S
H576 C560 0.931 . S
H577 C565 0.929 . S
H578 C566 0.960 . S
H579 C566 0.962 . S
H580 C566 0.960 . S
H581 C567 0.961 . S
H582 C567 0.961 . S
H583 C567 0.961 . S
H584 C568 0.931 . S
H585 C573 0.930 . S
H586 C574 0.956 . S
H587 C574 0.961 . S
H588 C574 0.961 . S
H589 C575 0.958 . S
H590 C575 0.961 . S
H591 C575 0.960 . S
C592 C593 1.391 . S
C592 C594 1.394 . S
C592 H608 0.931 . S
C593 C592 1.391 . S
C593 C597 1.376 . S
C594 C592 1.394 . S
C594 C595 1.369 . S
C594 C598 1.531 . S
C595 C594 1.369 . S
C595 C596 1.410 . S
C595 C603 1.503 . S
C596 C595 1.410 . S
C596 C597 1.392 . S
C596 C599 1.511 . S
C597 C593 1.376 . S
C597 C596 1.392 . S
C597 H609 0.929 . S
C598 C594 1.531 . S
C598 H610 0.960 . S
C598 H611 0.962 . S
C598 H612 0.960 . S
C599 C596 1.511 . S
C599 H613 0.961 . S
C599 H614 0.961 . S
C599 H615 0.961 . S
C600 C601 1.370 . S
C600 C602 1.363 . S
C600 H616 0.931 . S
C601 C600 1.370 . S
C601 C605 1.408 . S
C602 C600 1.363 . S
C602 C603 1.370 . S
C602 C606 1.524 . S
C603 C595 1.503 . S
C603 C602 1.370 . S
C603 C604 1.403 . S
C604 C603 1.403 . S
C604 C605 1.404 . S
C604 C607 1.539 . S
C605 C601 1.408 . S
C605 C604 1.404 . S
C605 H617 0.930 . S
C606 C602 1.524 . S
C606 H618 0.956 . S
C606 H619 0.961 . S
C606 H620 0.961 . S
C607 C604 1.539 . S
C607 H621 0.958 . S
C607 H622 0.961 . S
C607 H623 0.960 . S
H608 C592 0.931 . S
H609 C597 0.929 . S
H610 C598 0.960 . S
H611 C598 0.962 . S
H612 C598 0.960 . S
H613 C599 0.961 . S
H614 C599 0.961 . S
H615 C599 0.961 . S
H616 C600 0.931 . S
H617 C605 0.930 . S
H618 C606 0.956 . S
H619 C606 0.961 . S
H620 C606 0.961 . S
H621 C607 0.958 . S
H622 C607 0.961 . S
H623 C607 0.960 . S
C624 C625 1.391 . S
C624 C626 1.394 . S
C624 H640 0.931 . S
C625 C624 1.391 . S
C625 C629 1.376 . S
C626 C624 1.394 . S
C626 C627 1.369 . S
C626 C630 1.531 . S
C627 C626 1.369 . S
C627 C628 1.410 . S
C627 C635 1.503 1_545 S
C628 C627 1.410 . S
C628 C629 1.392 . S
C628 C631 1.511 1_545 S
C629 C625 1.376 . S
C629 C628 1.392 . S
C629 H641 0.929 . S
C630 C626 1.531 . S
C630 H642 0.960 . S
C630 H643 0.962 . S
C630 H644 0.960 . S
C631 C628 1.511 1_565 S
C631 H645 0.961 . S
C631 H646 0.961 . S
C631 H647 0.961 . S
C632 C633 1.370 . S
C632 C634 1.363 . S
C632 H648 0.931 . S
C633 C632 1.370 . S
C633 C637 1.408 . S
C634 C632 1.363 . S
C634 C635 1.370 . S
C634 C638 1.524 . S
C635 C627 1.503 1_565 S
C635 C634 1.370 . S
C635 C636 1.403 . S
C636 C635 1.403 . S
C636 C637 1.404 . S
C636 C639 1.539 . S
C637 C633 1.408 . S
C637 C636 1.404 . S
C637 H649 0.930 . S
C638 C634 1.524 . S
C638 H650 0.956 1_565 S
C638 H651 0.961 . S
C638 H652 0.961 . S
C639 C636 1.539 . S
C639 H653 0.958 1_565 S
C639 H654 0.961 . S
C639 H655 0.965 . S
H640 C624 0.931 . S
H641 C629 0.929 . S
H642 C630 0.960 . S
H643 C630 0.962 . S
H644 C630 0.960 . S
H645 C631 0.961 . S
H646 C631 0.961 . S
H647 C631 0.961 . S
H648 C632 0.931 . S
H649 C637 0.930 . S
H650 C638 0.956 1_545 S
H651 C638 0.961 . S
H652 C638 0.961 . S
H653 C639 0.958 1_545 S
H654 C639 0.961 . S
H655 C639 0.965 . S
C656 C657 1.391 . S
C656 C658 1.394 . S
C656 H672 0.931 . S
C657 C656 1.391 . S
C657 C661 1.376 . S
C658 C656 1.394 . S
C658 C659 1.369 . S
C658 C662 1.531 1_455 S
C659 C658 1.369 . S
C659 C660 1.410 . S
C659 C667 1.503 1_445 S
C660 C659 1.410 . S
C660 C661 1.392 . S
C660 C663 1.511 1_545 S
C661 C657 1.376 . S
C661 C660 1.392 . S
C661 H673 0.929 . S
C662 C658 1.531 1_655 S
C662 H674 0.960 . S
C662 H675 0.962 . S
C662 H676 0.960 . S
C663 C660 1.511 1_565 S
C663 H677 0.961 . S
C663 H678 0.961 . S
C663 H679 0.961 . S
C664 C665 1.370 . S
C664 C666 1.363 . S
C664 H680 0.931 . S
C665 C664 1.370 . S
C665 C669 1.408 . S
C666 C664 1.363 . S
C666 C667 1.370 . S
C666 C670 1.524 1_565 S
C667 C659 1.503 1_665 S
C667 C666 1.370 . S
C667 C668 1.403 . S
C668 C667 1.403 . S
C668 C669 1.404 . S
C668 C671 1.539 1_655 S
C669 C665 1.408 . S
C669 C668 1.404 . S
C669 H681 0.930 . S
C670 C666 1.524 1_545 S
C670 H682 0.956 . S
C670 H683 0.961 . S
C670 H684 0.961 . S
C671 C668 1.539 1_455 S
C671 H685 0.958 . S
C671 H686 0.961 . S
C671 H687 0.960 . S
H672 C656 0.931 . S
H673 C661 0.929 . S
H674 C662 0.960 . S
H675 C662 0.962 . S
H676 C662 0.960 . S
H677 C663 0.961 . S
H678 C663 0.961 . S
H679 C663 0.961 . S
H680 C664 0.931 . S
H681 C669 0.930 . S
H682 C670 0.956 . S
H683 C670 0.961 . S
H684 C670 0.961 . S
H685 C671 0.958 . S
H686 C671 0.961 . S
H687 C671 0.960 . S
C688 C689 1.391 . S
C688 C690 1.394 . S
C688 H704 0.931 . S
C689 C688 1.391 . S
C689 C693 1.376 . S
C690 C688 1.394 . S
C690 C691 1.369 . S
C690 C694 1.531 . S
C691 C690 1.369 . S
C691 C692 1.410 . S
C691 C699 1.503 . S
C692 C691 1.410 . S
C692 C693 1.392 . S
C692 C695 1.511 . S
C693 C689 1.376 . S
C693 C692 1.392 . S
C693 H705 0.929 . S
C694 C690 1.531 . S
C694 H706 0.960 . S
C694 H707 0.962 . S
C694 H708 0.960 . S
C695 C692 1.511 . S
C695 H709 0.961 . S
C695 H710 0.961 . S
C695 H711 0.961 . S
C696 C697 1.370 . S
C696 C698 1.363 . S
C696 H712 0.931 . S
C697 C696 1.370 . S
C697 C701 1.408 . S
C698 C696 1.363 . S
C698 C699 1.370 . S
C698 C702 1.524 . S
C699 C691 1.503 . S
C699 C698 1.370 . S
C699 C700 1.403 . S
C700 C699 1.403 . S
C700 C701 1.404 . S
C700 C703 1.539 . S
C701 C697 1.408 . S
C701 C700 1.404 . S
C701 H713 0.930 . S
C702 C698 1.524 . S
C702 H714 0.956 . S
C702 H715 0.961 . S
C702 H716 0.961 . S
C703 C700 1.539 . S
C703 H717 0.958 . S
C703 H718 0.961 . S
C703 H719 0.960 . S
H704 C688 0.931 . S
H705 C693 0.929 . S
H706 C694 0.960 . S
H707 C694 0.962 . S
H708 C694 0.960 . S
H709 C695 0.961 . S
H710 C695 0.961 . S
H711 C695 0.961 . S
H712 C696 0.931 . S
H713 C701 0.930 . S
H714 C702 0.956 . S
H715 C702 0.961 . S
H716 C702 0.961 . S
H717 C703 0.958 . S
H718 C703 0.961 . S
H719 C703 0.960 . S
C720 C721 1.391 . S
C720 C722 1.394 . S
C720 H736 0.931 . S
C721 C720 1.391 . S
C721 C725 1.376 . S
C722 C720 1.394 . S
C722 C723 1.369 . S
C722 C726 1.531 . S
C723 C722 1.369 . S
C723 C724 1.410 . S
C723 C731 1.503 . S
C724 C723 1.410 . S
C724 C725 1.392 . S
C724 C727 1.511 . S
C725 C721 1.376 . S
C725 C724 1.392 . S
C725 H737 0.929 . S
C726 C722 1.531 . S
C726 H738 0.960 . S
C726 H739 0.962 . S
C726 H740 0.960 . S
C727 C724 1.511 . S
C727 H741 0.961 . S
C727 H742 0.961 . S
C727 H743 0.961 . S
C728 C729 1.370 . S
C728 C730 1.363 . S
C728 H744 0.931 . S
C729 C728 1.370 . S
C729 C733 1.408 . S
C730 C728 1.363 . S
C730 C731 1.370 . S
C730 C734 1.524 . S
C731 C723 1.503 . S
C731 C730 1.370 . S
C731 C732 1.403 . S
C732 C731 1.403 . S
C732 C733 1.404 . S
C732 C735 1.539 . S
C733 C729 1.408 . S
C733 C732 1.404 . S
C733 H745 0.930 . S
C734 C730 1.524 . S
C734 H746 0.956 . S
C734 H747 0.961 . S
C734 H748 0.961 . S
C735 C732 1.539 . S
C735 H749 0.958 . S
C735 H750 0.961 . S
C735 H751 0.960 . S
H736 C720 0.931 . S
H737 C725 0.929 . S
H738 C726 0.960 . S
H739 C726 0.962 . S
H740 C726 0.960 . S
H741 C727 0.961 . S
H742 C727 0.961 . S
H743 C727 0.961 . S
H744 C728 0.931 . S
H745 C733 0.930 . S
H746 C734 0.956 . S
H747 C734 0.961 . S
H748 C734 0.961 . S
H749 C735 0.958 . S
H750 C735 0.961 . S
H751 C735 0.960 . S
C752 C753 1.391 . S
C752 C754 1.394 . S
C752 H768 0.931 . S
C753 C752 1.391 . S
C753 C757 1.376 . S
C754 C752 1.394 . S
C754 C755 1.369 . S
C754 C758 1.531 . S
C755 C754 1.369 . S
C755 C756 1.410 . S
C755 C763 1.503 . S
C756 C755 1.410 . S
C756 C757 1.392 . S
C756 C759 1.511 . S
C757 C753 1.376 . S
C757 C756 1.392 . S
C757 H769 0.929 . S
C758 C754 1.531 . S
C758 H770 0.960 . S
C758 H771 0.962 . S
C758 H772 0.960 . S
C759 C756 1.511 . S
C759 H773 0.961 . S
C759 H774 0.961 . S
C759 H775 0.961 . S
C760 C761 1.370 . S
C760 C762 1.363 . S
C760 H776 0.931 . S
C761 C760 1.370 . S
C761 C765 1.408 . S
C762 C760 1.363 . S
C762 C763 1.370 . S
C762 C766 1.524 . S
C763 C755 1.503 . S
C763 C762 1.370 . S
C763 C764 1.403 . S
C764 C763 1.403 . S
C764 C765 1.404 . S
C764 C767 1.539 . S
C765 C761 1.408 . S
C765 C764 1.404 . S
C765 H777 0.930 . S
C766 C762 1.524 . S
C766 H778 0.956 . S
C766 H779 0.961 . S
C766 H780 0.961 . S
C767 C764 1.539 . S
C767 H781 0.958 . S
C767 H782 0.961 . S
C767 H783 0.960 . S
H768 C752 0.931 . S
H769 C757 0.929 . S
H770 C758 0.960 . S
H771 C758 0.962 . S
H772 C758 0.960 . S
H773 C759 0.961 . S
H774 C759 0.961 . S
H775 C759 0.961 . S
H776 C760 0.931 . S
H777 C765 0.930 . S
H778 C766 0.956 . S
H779 C766 0.961 . S
H780 C766 0.961 . S
H781 C767 0.958 . S
H782 C767 0.961 . S
H783 C767 0.960 . S
C784 C785 1.391 . S
C784 C786 1.394 . S
C784 H800 0.931 . S
C785 C784 1.391 . S
C785 C789 1.376 . S
C786 C784 1.394 . S
C786 C787 1.369 . S
C786 C790 1.531 . S
C787 C786 1.369 . S
C787 C788 1.410 . S
C787 C795 1.503 . S
C788 C787 1.410 . S
C788 C789 1.392 . S
C788 C791 1.511 . S
C789 C785 1.376 . S
C789 C788 1.392 . S
C789 H801 0.929 . S
C790 C786 1.531 . S
C790 H802 0.960 . S
C790 H803 0.962 . S
C790 H804 0.960 . S
C791 C788 1.511 . S
C791 H805 0.961 . S
C791 H806 0.961 . S
C791 H807 0.961 . S
C792 C793 1.370 . S
C792 C794 1.363 . S
C792 H808 0.931 . S
C793 C792 1.370 . S
C793 C797 1.408 . S
C794 C792 1.363 . S
C794 C795 1.370 . S
C794 C798 1.524 . S
C795 C787 1.503 . S
C795 C794 1.370 . S
C795 C796 1.403 . S
C796 C795 1.403 . S
C796 C797 1.404 . S
C796 C799 1.539 . S
C797 C793 1.408 . S
C797 C796 1.404 . S
C797 H809 0.930 . S
C798 C794 1.524 . S
C798 H810 0.956 . S
C798 H811 0.961 . S
C798 H812 0.961 . S
C799 C796 1.539 . S
C799 H813 0.958 . S
C799 H814 0.961 . S
C799 H815 0.960 . S
H800 C784 0.931 . S
H801 C789 0.929 . S
H802 C790 0.960 . S
H803 C790 0.962 . S
H804 C790 0.960 . S
H805 C791 0.961 . S
H806 C791 0.961 . S
H807 C791 0.961 . S
H808 C792 0.931 . S
H809 C797 0.930 . S
H810 C798 0.956 . S
H811 C798 0.961 . S
H812 C798 0.961 . S
H813 C799 0.958 . S
H814 C799 0.961 . S
H815 C799 0.960 . S
C816 C817 1.391 . S
C816 C818 1.394 . S
C816 H832 0.931 . S
C817 C816 1.391 . S
C817 C821 1.376 . S
C818 C816 1.394 . S
C818 C819 1.369 . S
C818 C822 1.531 . S
C819 C818 1.369 . S
C819 C820 1.410 . S
C819 C827 1.503 . S
C820 C819 1.410 . S
C820 C821 1.392 . S
C820 C823 1.511 . S
C821 C817 1.376 . S
C821 C820 1.392 . S
C821 H833 0.929 . S
C822 C818 1.531 . S
C822 H834 0.960 . S
C822 H835 0.962 . S
C822 H836 0.960 . S
C823 C820 1.511 . S
C823 H837 0.961 . S
C823 H838 0.961 . S
C823 H839 0.961 . S
C824 C825 1.370 . S
C824 C826 1.363 . S
C824 H840 0.931 . S
C825 C824 1.370 . S
C825 C829 1.408 . S
C826 C824 1.363 . S
C826 C827 1.370 . S
C826 C830 1.524 . S
C827 C819 1.503 . S
C827 C826 1.370 . S
C827 C828 1.403 . S
C828 C827 1.403 . S
C828 C829 1.404 . S
C828 C831 1.539 . S
C829 C825 1.408 . S
C829 C828 1.404 . S
C829 H841 0.930 . S
C830 C826 1.524 . S
C830 H842 0.956 . S
C830 H843 0.961 . S
C830 H844 0.961 . S
C831 C828 1.539 . S
C831 H845 0.958 . S
C831 H846 0.961 . S
C831 H847 0.960 . S
H832 C816 0.931 . S
H833 C821 0.929 . S
H834 C822 0.960 . S
H835 C822 0.962 . S
H836 C822 0.960 . S
H837 C823 0.961 . S
H838 C823 0.961 . S
H839 C823 0.961 . S
H840 C824 0.931 . S
H841 C829 0.930 . S
H842 C830 0.956 . S
H843 C830 0.961 . S
H844 C830 0.961 . S
H845 C831 0.958 . S
H846 C831 0.961 . S
H847 C831 0.960 . S
C848 C849 1.391 . S
C848 C850 1.394 . S
C848 H864 0.931 . S
C849 C848 1.391 . S
C849 C853 1.376 . S
C850 C848 1.394 . S
C850 C851 1.369 . S
C850 C854 1.531 . S
C851 C850 1.369 . S
C851 C852 1.410 . S
C851 C859 1.503 . S
C852 C851 1.410 . S
C852 C853 1.392 . S
C852 C855 1.511 . S
C853 C849 1.376 . S
C853 C852 1.392 . S
C853 H865 0.929 . S
C854 C850 1.531 . S
C854 H866 0.960 . S
C854 H867 0.962 . S
C854 H868 0.960 . S
C855 C852 1.511 . S
C855 H869 0.961 . S
C855 H870 0.961 . S
C855 H871 0.961 . S
C856 C857 1.370 . S
C856 C858 1.363 . S
C856 H872 0.931 . S
C857 C856 1.370 . S
C857 C861 1.408 . S
C858 C856 1.363 . S
C858 C859 1.370 . S
C858 C862 1.524 . S
C859 C851 1.503 . S
C859 C858 1.370 . S
C859 C860 1.403 . S
C860 C859 1.403 . S
C860 C861 1.404 . S
C860 C863 1.539 . S
C861 C857 1.408 . S
C861 C860 1.404 . S
C861 H873 0.930 . S
C862 C858 1.524 . S
C862 H874 0.956 . S
C862 H875 0.961 . S
C862 H876 0.961 . S
C863 C860 1.539 . S
C863 H877 0.958 . S
C863 H878 0.961 . S
C863 H879 0.960 . S
H864 C848 0.931 . S
H865 C853 0.929 . S
H866 C854 0.960 . S
H867 C854 0.962 . S
H868 C854 0.960 . S
H869 C855 0.961 . S
H870 C855 0.961 . S
H871 C855 0.961 . S
H872 C856 0.931 . S
H873 C861 0.930 . S
H874 C862 0.956 . S
H875 C862 0.961 . S
H876 C862 0.961 . S
H877 C863 0.958 . S
H878 C863 0.961 . S
H879 C863 0.960 . S
C880 C881 1.391 . S
C880 C882 1.394 . S
C880 H896 0.931 . S
C881 C880 1.391 . S
C881 C885 1.376 . S
C882 C880 1.394 . S
C882 C883 1.369 . S
C882 C886 1.531 . S
C883 C882 1.369 . S
C883 C884 1.410 . S
C883 C891 1.503 . S
C884 C883 1.410 . S
C884 C885 1.392 . S
C884 C887 1.511 . S
C885 C881 1.376 . S
C885 C884 1.392 . S
C885 H897 0.929 . S
C886 C882 1.531 . S
C886 H898 0.960 . S
C886 H899 0.962 . S
C886 H900 0.960 . S
C887 C884 1.511 . S
C887 H901 0.961 . S
C887 H902 0.961 . S
C887 H903 0.961 . S
C888 C889 1.370 . S
C888 C890 1.363 . S
C888 H904 0.931 . S
C889 C888 1.370 . S
C889 C893 1.408 . S
C890 C888 1.363 . S
C890 C891 1.370 . S
C890 C894 1.524 . S
C891 C883 1.503 . S
C891 C890 1.370 . S
C891 C892 1.403 . S
C892 C891 1.403 . S
C892 C893 1.404 . S
C892 C895 1.539 . S
C893 C889 1.408 . S
C893 C892 1.404 . S
C893 H905 0.930 . S
C894 C890 1.524 . S
C894 H906 0.956 . S
C894 H907 0.961 . S
C894 H908 0.961 . S
C895 C892 1.539 . S
C895 H909 0.958 . S
C895 H910 0.961 . S
C895 H911 0.960 . S
H896 C880 0.931 . S
H897 C885 0.929 . S
H898 C886 0.960 . S
H899 C886 0.962 . S
H900 C886 0.960 . S
H901 C887 0.961 . S
H902 C887 0.961 . S
H903 C887 0.961 . S
H904 C888 0.931 . S
H905 C893 0.930 . S
H906 C894 0.956 . S
H907 C894 0.961 . S
H908 C894 0.961 . S
H909 C895 0.958 . S
H910 C895 0.961 . S
H911 C895 0.960 . S
C912 C913 1.391 . S
C912 C914 1.394 . S
C912 H928 0.931 . S
C913 C912 1.391 . S
C913 C917 1.376 . S
C914 C912 1.394 . S
C914 C915 1.369 . S
C914 C918 1.531 . S
C915 C914 1.369 . S
C915 C916 1.410 . S
C915 C923 1.503 . S
C916 C915 1.410 . S
C916 C917 1.392 . S
C916 C919 1.511 . S
C917 C913 1.376 . S
C917 C916 1.392 . S
C917 H929 0.929 . S
C918 C914 1.531 . S
C918 H930 0.960 . S
C918 H931 0.962 . S
C918 H932 0.960 . S
C919 C916 1.511 . S
C919 H933 0.961 . S
C919 H934 0.961 . S
C919 H935 0.961 . S
C920 C921 1.370 . S
C920 C922 1.363 . S
C920 H936 0.931 . S
C921 C920 1.370 . S
C921 C925 1.408 . S
C922 C920 1.363 . S
C922 C923 1.370 . S
C922 C926 1.524 . S
C923 C915 1.503 . S
C923 C922 1.370 . S
C923 C924 1.403 . S
C924 C923 1.403 . S
C924 C925 1.404 . S
C924 C927 1.539 . S
C925 C921 1.408 . S
C925 C924 1.404 . S
C925 H937 0.930 . S
C926 C922 1.524 . S
C926 H938 0.956 . S
C926 H939 0.961 . S
C926 H940 0.961 . S
C927 C924 1.539 . S
C927 H941 0.958 . S
C927 H942 0.961 . S
C927 H943 0.960 . S
H928 C912 0.931 . S
H929 C917 0.929 . S
H930 C918 0.960 . S
H931 C918 0.962 . S
H932 C918 0.960 . S
H933 C919 0.961 . S
H934 C919 0.961 . S
H935 C919 0.961 . S
H936 C920 0.931 . S
H937 C925 0.930 . S
H938 C926 0.956 . S
H939 C926 0.961 . S
H940 C926 0.961 . S
H941 C927 0.958 . S
H942 C927 0.961 . S
H943 C927 0.960 . S
C177 C150 1.497 . S
C185 C7 1.536 . S
C209 C18 1.537 . S
C217 C161 1.530 . S
C241 C29 1.565 . S
C249 C172 1.512 . S
C273 C40 1.545 . S
C281 C139 1.526 . S
C305 C51 1.542 . S
C313 C128 1.528 . S
C337 C95 1.510 . S
C345 C62 1.541 . S
C369 C106 1.502 . S
C377 C73 1.533 . S
C401 C117 1.485 . S
C409 C84 1.544 . S
C433 C115 1.254 . S
C441 C5 1.314 . S
C465 C126 1.255 . S
C473 C16 1.313 . S
C497 C93 1.353 . S
C505 C27 1.346 . S
C529 C38 1.344 . S
C537 C104 1.348 . S
C561 C159 1.383 . S
C569 C49 1.328 . S
C593 C170 1.257 . S
C601 C60 1.331 . S
C625 C71 1.370 . S
C633 C137 1.340 . S
C657 C148 1.324 . S
C665 C82 1.294 . S
C689 C74 1.614 . S
C697 C8 1.615 . S
C721 C19 1.643 . S
C729 C85 1.620 . S
C753 C30 1.621 . S
C761 C52 1.615 . S
C785 C41 1.596 . S
C793 C63 1.624 . S
C817 C162 1.647 . S
C825 C96 1.626 . S
C849 C173 1.644 . S
C857 C107 1.620 . S
C881 C118 1.621 . S
C889 C140 1.615 . S
C913 C129 1.596 . S
C921 C151 1.626 . S
