# Generated by pormake.
# Topology uod, (4)-cn, num edge types: 1
# Building blocks:
#     Node 0, Type 0, BuildingBlock: KUFVIS_clean_sbu_0, # of connection points: 4
#     Node 1, Type 0, BuildingBlock: KUFVIS_clean_sbu_0, # of connection points: 4
#     Node 2, Type 0, BuildingBlock: KUFVIS_clean_sbu_0, # of connection points: 4
#     Node 3, Type 0, BuildingBlock: KUFVIS_clean_sbu_0, # of connection points: 4
#     Node 4, Type 0, BuildingBlock: KUFVIS_clean_sbu_0, # of connection points: 4
#     Node 5, Type 0, BuildingBlock: KUFVIS_clean_sbu_0, # of connection points: 4
#     Node 6, Type 0, BuildingBlock: KUFVIS_clean_sbu_0, # of connection points: 4
#     Node 7, Type 0, BuildingBlock: KUFVIS_clean_sbu_0, # of connection points: 4
#     Node 8, Type 0, BuildingBlock: KUFVIS_clean_sbu_0, # of connection points: 4
#     Node 9, Type 0, BuildingBlock: KUFVIS_clean_sbu_0, # of connection points: 4
#     Node 10, Type 0, BuildingBlock: KUFVIS_clean_sbu_0, # of connection points: 4
#     Node 11, Type 0, BuildingBlock: KUFVIS_clean_sbu_0, # of connection points: 4
#     Node 12, Type 0, BuildingBlock: KUFVIS_clean_sbu_0, # of connection points: 4
#     Node 13, Type 0, BuildingBlock: KUFVIS_clean_sbu_0, # of connection points: 4
#     Node 14, Type 0, BuildingBlock: KUFVIS_clean_sbu_0, # of connection points: 4
#     Node 15, Type 0, BuildingBlock: KUFVIS_clean_sbu_0, # of connection points: 4
#     Node 16, Type 0, BuildingBlock: KUFVIS_clean_sbu_0, # of connection points: 4
#     Node 17, Type 0, BuildingBlock: KUFVIS_clean_sbu_0, # of connection points: 4
#     Node 18, Type 0, BuildingBlock: KUFVIS_clean_sbu_0, # of connection points: 4
#     Node 19, Type 0, BuildingBlock: KUFVIS_clean_sbu_0, # of connection points: 4
#     Node 20, Type 0, BuildingBlock: KUFVIS_clean_sbu_0, # of connection points: 4
#     Node 21, Type 0, BuildingBlock: KUFVIS_clean_sbu_0, # of connection points: 4
#     Node 22, Type 0, BuildingBlock: KUFVIS_clean_sbu_0, # of connection points: 4
#     Node 23, Type 0, BuildingBlock: KUFVIS_clean_sbu_0, # of connection points: 4
#     Node 24, Type 0, BuildingBlock: KUFVIS_clean_sbu_0, # of connection points: 4
#     Node 25, Type 0, BuildingBlock: KUFVIS_clean_sbu_0, # of connection points: 4
#     Node 26, Type 0, BuildingBlock: KUFVIS_clean_sbu_0, # of connection points: 4
#     Node 27, Type 0, BuildingBlock: KUFVIS_clean_sbu_0, # of connection points: 4
#     Node 28, Type 0, BuildingBlock: KUFVIS_clean_sbu_0, # of connection points: 4
#     Node 29, Type 0, BuildingBlock: KUFVIS_clean_sbu_0, # of connection points: 4
#     Node 30, Type 0, BuildingBlock: KUFVIS_clean_sbu_0, # of connection points: 4
#     Node 31, Type 0, BuildingBlock: KUFVIS_clean_sbu_0, # of connection points: 4
#     Edge 32, Type (0, 0), BuildingBlock: CIFDUS_clean_linker_0, # of connection points: 2
#     Edge 33, Type (0, 0), BuildingBlock: CIFDUS_clean_linker_0, # of connection points: 2
#     Edge 34, Type (0, 0), BuildingBlock: CIFDUS_clean_linker_0, # of connection points: 2
#     Edge 35, Type (0, 0), BuildingBlock: CIFDUS_clean_linker_0, # of connection points: 2
#     Edge 36, Type (0, 0), BuildingBlock: CIFDUS_clean_linker_0, # of connection points: 2
#     Edge 37, Type (0, 0), BuildingBlock: CIFDUS_clean_linker_0, # of connection points: 2
#     Edge 38, Type (0, 0), BuildingBlock: CIFDUS_clean_linker_0, # of connection points: 2
#     Edge 39, Type (0, 0), BuildingBlock: CIFDUS_clean_linker_0, # of connection points: 2
#     Edge 40, Type (0, 0), BuildingBlock: CIFDUS_clean_linker_0, # of connection points: 2
#     Edge 41, Type (0, 0), BuildingBlock: CIFDUS_clean_linker_0, # of connection points: 2
#     Edge 42, Type (0, 0), BuildingBlock: CIFDUS_clean_linker_0, # of connection points: 2
#     Edge 43, Type (0, 0), BuildingBlock: CIFDUS_clean_linker_0, # of connection points: 2
#     Edge 44, Type (0, 0), BuildingBlock: CIFDUS_clean_linker_0, # of connection points: 2
#     Edge 45, Type (0, 0), BuildingBlock: CIFDUS_clean_linker_0, # of connection points: 2
#     Edge 46, Type (0, 0), BuildingBlock: CIFDUS_clean_linker_0, # of connection points: 2
#     Edge 47, Type (0, 0), BuildingBlock: CIFDUS_clean_linker_0, # of connection points: 2
#     Edge 48, Type (0, 0), BuildingBlock: CIFDUS_clean_linker_0, # of connection points: 2
#     Edge 49, Type (0, 0), BuildingBlock: CIFDUS_clean_linker_0, # of connection points: 2
#     Edge 50, Type (0, 0), BuildingBlock: CIFDUS_clean_linker_0, # of connection points: 2
#     Edge 51, Type (0, 0), BuildingBlock: CIFDUS_clean_linker_0, # of connection points: 2
#     Edge 52, Type (0, 0), BuildingBlock: CIFDUS_clean_linker_0, # of connection points: 2
#     Edge 53, Type (0, 0), BuildingBlock: CIFDUS_clean_linker_0, # of connection points: 2
#     Edge 54, Type (0, 0), BuildingBlock: CIFDUS_clean_linker_0, # of connection points: 2
#     Edge 55, Type (0, 0), BuildingBlock: CIFDUS_clean_linker_0, # of connection points: 2
#     Edge 56, Type (0, 0), BuildingBlock: CIFDUS_clean_linker_0, # of connection points: 2
#     Edge 57, Type (0, 0), BuildingBlock: CIFDUS_clean_linker_0, # of connection points: 2
#     Edge 58, Type (0, 0), BuildingBlock: CIFDUS_clean_linker_0, # of connection points: 2
#     Edge 59, Type (0, 0), BuildingBlock: CIFDUS_clean_linker_0, # of connection points: 2
#     Edge 60, Type (0, 0), BuildingBlock: CIFDUS_clean_linker_0, # of connection points: 2
#     Edge 61, Type (0, 0), BuildingBlock: CIFDUS_clean_linker_0, # of connection points: 2
#     Edge 62, Type (0, 0), BuildingBlock: CIFDUS_clean_linker_0, # of connection points: 2
#     Edge 63, Type (0, 0), BuildingBlock: CIFDUS_clean_linker_0, # of connection points: 2
#     Edge 64, Type (0, 0), BuildingBlock: CIFDUS_clean_linker_0, # of connection points: 2
#     Edge 65, Type (0, 0), BuildingBlock: CIFDUS_clean_linker_0, # of connection points: 2
#     Edge 66, Type (0, 0), BuildingBlock: CIFDUS_clean_linker_0, # of connection points: 2
#     Edge 67, Type (0, 0), BuildingBlock: CIFDUS_clean_linker_0, # of connection points: 2
#     Edge 68, Type (0, 0), BuildingBlock: CIFDUS_clean_linker_0, # of connection points: 2
#     Edge 69, Type (0, 0), BuildingBlock: CIFDUS_clean_linker_0, # of connection points: 2
#     Edge 70, Type (0, 0), BuildingBlock: CIFDUS_clean_linker_0, # of connection points: 2
#     Edge 71, Type (0, 0), BuildingBlock: CIFDUS_clean_linker_0, # of connection points: 2
#     Edge 72, Type (0, 0), BuildingBlock: CIFDUS_clean_linker_0, # of connection points: 2
#     Edge 73, Type (0, 0), BuildingBlock: CIFDUS_clean_linker_0, # of connection points: 2
#     Edge 74, Type (0, 0), BuildingBlock: CIFDUS_clean_linker_0, # of connection points: 2
#     Edge 75, Type (0, 0), BuildingBlock: CIFDUS_clean_linker_0, # of connection points: 2
#     Edge 76, Type (0, 0), BuildingBlock: CIFDUS_clean_linker_0, # of connection points: 2
#     Edge 77, Type (0, 0), BuildingBlock: CIFDUS_clean_linker_0, # of connection points: 2
#     Edge 78, Type (0, 0), BuildingBlock: CIFDUS_clean_linker_0, # of connection points: 2
#     Edge 79, Type (0, 0), BuildingBlock: CIFDUS_clean_linker_0, # of connection points: 2
#     Edge 80, Type (0, 0), BuildingBlock: CIFDUS_clean_linker_0, # of connection points: 2
#     Edge 81, Type (0, 0), BuildingBlock: CIFDUS_clean_linker_0, # of connection points: 2
#     Edge 82, Type (0, 0), BuildingBlock: CIFDUS_clean_linker_0, # of connection points: 2
#     Edge 83, Type (0, 0), BuildingBlock: CIFDUS_clean_linker_0, # of connection points: 2
#     Edge 84, Type (0, 0), BuildingBlock: CIFDUS_clean_linker_0, # of connection points: 2
#     Edge 85, Type (0, 0), BuildingBlock: CIFDUS_clean_linker_0, # of connection points: 2
#     Edge 86, Type (0, 0), BuildingBlock: CIFDUS_clean_linker_0, # of connection points: 2
#     Edge 87, Type (0, 0), BuildingBlock: CIFDUS_clean_linker_0, # of connection points: 2
#     Edge 88, Type (0, 0), BuildingBlock: CIFDUS_clean_linker_0, # of connection points: 2
#     Edge 89, Type (0, 0), BuildingBlock: CIFDUS_clean_linker_0, # of connection points: 2
#     Edge 90, Type (0, 0), BuildingBlock: CIFDUS_clean_linker_0, # of connection points: 2
#     Edge 91, Type (0, 0), BuildingBlock: CIFDUS_clean_linker_0, # of connection points: 2
#     Edge 92, Type (0, 0), BuildingBlock: CIFDUS_clean_linker_0, # of connection points: 2
#     Edge 93, Type (0, 0), BuildingBlock: CIFDUS_clean_linker_0, # of connection points: 2
#     Edge 94, Type (0, 0), BuildingBlock: CIFDUS_clean_linker_0, # of connection points: 2
#     Edge 95, Type (0, 0), BuildingBlock: CIFDUS_clean_linker_0, # of connection points: 2
# Relax obj value: 0.201
# Max RMSD: 0.180
# Mean RMSD: 0.174
data_MOF--net-uod--node1-KUFVIS_clean_sbu_0--edge1-CIFDUS_clean_linker_0
_symmetry_space_group_name_H-M    P1
_symmetry_Int_Tables_number       1
_symmetry_cell_setting            triclinic
loop_
_symmetry_equiv_pos_as_xyz
'x, y, z'
_cell_length_a     74.640525
_cell_length_b     23.456362
_cell_length_c     56.148277
_cell_angle_alpha  89.921537
_cell_angle_beta   89.988573
_cell_angle_gamma 89.969779
loop_
_atom_site_label
_atom_site_type_symbol
_atom_site_fract_x
_atom_site_fract_y
_atom_site_fract_z
_atom_type_partial_charge
Mn0 Mn 0.05328 0.37345 0.08614 0.0
Mn1 Mn 0.05748 0.39261 0.1453 0.0
C2 C 0.06277 0.45896 0.10094 0.0
C3 C 0.03439 0.38778 0.05284 0.0
C4 C 0.0863 0.336 0.11544 0.0
O5 O 0.04007 0.30403 0.09945 0.0
O6 O 0.04431 0.321 0.13849 0.0
C7 C 0.01892 0.41354 0.15415 0.0
N8 N 0.03625 0.43134 0.15546 0.0
C9 C 0.02728 0.52166 0.17196 0.0
C10 C 0.00935 0.50411 0.17093 0.0
C11 C 0.00515 0.44983 0.16197 0.0
C12 C 0.04042 0.48361 0.16395 0.0
H13 H 0.01562 0.3721 0.14705 0.0
C14 C 0.03844 0.29015 0.12139 0.0
O15 O 0.04815 0.35371 0.05143 0.0
O16 O 0.03082 0.40742 0.07366 0.0
N17 N 0.06992 0.46025 0.15476 0.0
C18 C 0.08791 0.47016 0.15501 0.0
C19 C 0.09439 0.52224 0.16382 0.0
C20 C 0.08233 0.56335 0.17244 0.0
C21 C 0.06391 0.5516 0.17254 0.0
C22 C 0.05827 0.49858 0.16389 0.0
H23 H 0.09723 0.43874 0.1484 0.0
O24 O 0.06577 0.44614 0.07895 0.0
O25 O 0.05384 0.422 0.1134 0.0
O26 O 0.07789 0.33715 0.09535 0.0
O27 O 0.07973 0.35517 0.13495 0.0
C28 C 0.05093 0.59049 0.18077 0.0
C29 C 0.03262 0.57563 0.18039 0.0
H30 H 0.99869 0.53205 0.17687 0.0
H31 H 0.99133 0.4361 0.16101 0.0
H32 H 0.10863 0.53084 0.16382 0.0
H33 H 0.08736 0.60375 0.17894 0.0
H34 H 0.05486 0.63208 0.1873 0.0
H35 H 0.02275 0.60607 0.18658 0.0
Mn36 Mn 0.21236 0.84641 0.08628 0.0
Mn37 Mn 0.21479 0.84582 0.14609 0.0
C38 C 0.20539 0.76576 0.10709 0.0
C39 C 0.22811 0.82363 0.05099 0.0
C40 C 0.18229 0.89038 0.11941 0.0
O41 O 0.22589 0.92009 0.09299 0.0
O42 O 0.22605 0.91607 0.13301 0.0
C43 C 0.25416 0.83135 0.14818 0.0
N44 N 0.23744 0.81241 0.1538 0.0
C45 C 0.24945 0.72811 0.1724 0.0
C46 C 0.2668 0.74694 0.16696 0.0
C47 C 0.26916 0.79878 0.1548 0.0
C48 C 0.23502 0.76247 0.16543 0.0
H49 H 0.25604 0.87084 0.13861 0.0
C50 C 0.2296 0.94135 0.11333 0.0
O51 O 0.21386 0.85571 0.05015 0.0
O52 O 0.23378 0.81052 0.07188 0.0
N53 N 0.20453 0.78069 0.16148 0.0
C54 C 0.18694 0.76957 0.16605 0.0
C55 C 0.18227 0.71971 0.17847 0.0
C56 C 0.19573 0.68211 0.18622 0.0
C57 C 0.21376 0.69532 0.18191 0.0
C58 C 0.2176 0.74607 0.16978 0.0
H59 H 0.17655 0.79823 0.16005 0.0
O60 O 0.20012 0.77157 0.08532 0.0
O61 O 0.21519 0.80652 0.11574 0.0
O62 O 0.18848 0.88373 0.09808 0.0
O63 O 0.19115 0.87774 0.13827 0.0
C64 C 0.22807 0.66006 0.18911 0.0
C65 C 0.2459 0.67635 0.18428 0.0
H66 H 0.2784 0.72183 0.17194 0.0
H67 H 0.28251 0.81346 0.15043 0.0
H68 H 0.16833 0.71005 0.18189 0.0
H69 H 0.19207 0.64334 0.19552 0.0
H70 H 0.22551 0.62025 0.1983 0.0
H71 H 0.25678 0.64877 0.1898 0.0
Mn72 Mn 0.04522 0.86193 0.15787 0.0
Mn73 Mn 0.04239 0.85629 0.09802 0.0
C74 C 0.04979 0.77801 0.13826 0.0
C75 C 0.03023 0.84389 0.19415 0.0
C76 C 0.07577 0.89719 0.12379 0.0
O77 O 0.03319 0.9381 0.15003 0.0
O78 O 0.03221 0.92877 0.1101 0.0
C79 C 1.00286 0.84808 0.0955 0.0
N80 N 0.01931 0.82605 0.09044 0.0
C81 C 0.00618 0.74324 0.07218 0.0
C82 C 0.98909 0.76523 0.07705 0.0
C83 C 0.98744 0.81786 0.08878 0.0
C84 C 0.02105 0.77537 0.07923 0.0
H85 H 1.00154 0.88826 0.10469 0.0
C86 C 0.02943 0.95714 0.12923 0.0
O87 O 0.04496 0.8737 0.19381 0.0
O88 O 0.02344 0.83174 0.17374 0.0
N89 N 0.05175 0.78845 0.08376 0.0
C90 C 0.0692 0.77379 0.07994 0.0
C91 C 0.07319 0.7224 0.06828 0.0
C92 C 0.05922 0.68695 0.06046 0.0
C93 C 0.04139 0.70377 0.06398 0.0
C94 C 0.03823 0.75579 0.07545 0.0
H95 H 0.07998 0.80073 0.08601 0.0
O96 O 0.05572 0.78455 0.15966 0.0
O97 O 0.041 0.82033 0.12905 0.0
O98 O 0.06969 0.89293 0.14524 0.0
O99 O 0.0665 0.88509 0.10529 0.0
C100 C 0.02663 0.6708 0.05669 0.0
C101 C 0.00902 0.69046 0.06082 0.0
H102 H 0.97716 0.74195 0.07198 0.0
H103 H 0.9743 0.83497 0.0927 0.0
H104 H 0.08699 0.7099 0.06551 0.0
H105 H 0.06235 0.64699 0.05175 0.0
H106 H 0.0287 0.63018 0.04798 0.0
H107 H 0.99776 0.66463 0.05523 0.0
Mn108 Mn 0.22384 0.36921 0.17215 0.0
Mn109 Mn 0.22183 0.3664 0.11223 0.0
C110 C 0.21845 0.45089 0.15125 0.0
C111 C 0.2413 0.38904 0.20603 0.0
C112 C 0.19045 0.33251 0.14342 0.0
O113 O 0.23472 0.29146 0.16467 0.0
O114 O 0.23193 0.29374 0.12472 0.0
C115 C 0.26101 0.36787 0.10402 0.0
N116 N 0.24459 0.39195 0.10078 0.0
C117 C 0.25736 0.4702 0.07881 0.0
C118 C 0.2744 0.44604 0.08179 0.0
C119 C 0.27623 0.39466 0.09446 0.0
C120 C 0.24268 0.44144 0.08866 0.0
H121 H 0.2625 0.32864 0.11392 0.0
C122 C 0.23621 0.26832 0.14414 0.0
O123 O 0.22639 0.36054 0.20796 0.0
O124 O 0.24677 0.39937 0.18471 0.0
N125 N 0.21236 0.43383 0.09768 0.0
C126 C 0.19495 0.45108 0.09612 0.0
C127 C 0.19081 0.50182 0.08399 0.0
C128 C 0.20456 0.53393 0.07341 0.0
C129 C 0.2223 0.51448 0.07469 0.0
C130 C 0.22559 0.4633 0.0868 0.0
H131 H 0.18434 0.4267 0.10432 0.0
O132 O 0.21403 0.44742 0.17344 0.0
O133 O 0.22617 0.40658 0.14191 0.0
O134 O 0.19844 0.33845 0.16361 0.0
O135 O 0.19803 0.34214 0.12335 0.0
C136 C 0.23686 0.54407 0.06458 0.0
C137 C 0.25438 0.52198 0.06666 0.0
H138 H 0.28617 0.46669 0.07452 0.0
H139 H 0.28934 0.37589 0.09692 0.0
H140 H 0.17707 0.51639 0.08299 0.0
H141 H 0.20134 0.5734 0.06433 0.0
H142 H 0.23472 0.58395 0.05526 0.0
H143 H 0.26548 0.54521 0.05891 0.0
Mn144 Mn 0.96124 0.62773 0.91815 0.0
Mn145 Mn 0.93853 0.51219 0.93794 0.0
C146 C 0.93236 0.6098 0.90401 0.0
C147 C 0.96942 0.72361 0.91706 0.0
C148 C 0.96664 0.50649 0.90004 0.0
O149 O 0.97583 0.60528 0.94794 0.0
O150 O 0.96045 0.52559 0.957 0.0
C151 C 0.9273 0.56148 0.98411 0.0
N152 N 0.92306 0.535 0.9633 0.0
C153 C 0.89211 0.52689 0.97475 0.0
C154 C 0.89613 0.55387 0.99638 0.0
C155 C 0.91379 0.57144 1.00103 0.0
C156 C 0.90611 0.51829 0.95858 0.0
H157 H 0.94088 0.5747 0.98775 0.0
C158 C 0.97367 0.55933 0.95998 0.0
O159 O 0.97936 0.6844 0.90761 0.0
O160 O 0.95584 0.70638 0.92968 0.0
N161 N 0.91718 0.49096 0.92161 0.0
C162 C 0.91555 0.46714 0.89964 0.0
C163 C 0.89877 0.44738 0.89213 0.0
C164 C 0.88384 0.45193 0.90726 0.0
C165 C 0.88591 0.47588 0.92995 0.0
C166 C 0.90305 0.49407 0.93662 0.0
H167 H 0.92701 0.46282 0.88803 0.0
O168 O 0.94371 0.64013 0.89203 0.0
O169 O 0.93806 0.5905 0.9246 0.0
O170 O 0.9712 0.55853 0.90083 0.0
O171 O 0.95389 0.48478 0.91213 0.0
C172 C 0.87166 0.48298 0.94613 0.0
C173 C 0.87473 0.50872 0.96848 0.0
H174 H 0.88575 0.56161 0.00948 0.0
H175 H 0.91699 0.59242 0.01764 0.0
H176 H 0.8975 0.42807 0.87485 0.0
H177 H 0.87089 0.43676 0.90131 0.0
H178 H 0.85824 0.4694 0.94147 0.0
H179 H 0.86363 0.51461 0.98066 0.0
Mn180 Mn 0.80943 0.10998 0.91434 0.0
Mn181 Mn 0.83431 0.2163 0.93821 0.0
C182 C 0.83823 0.12629 0.89958 0.0
C183 C 0.79893 0.01707 0.91139 0.0
C184 C 0.80484 0.23465 0.90223 0.0
O185 O 0.7952 0.13195 0.94435 0.0
O186 O 0.81428 0.19657 0.9598 0.0
C187 C 0.84954 0.1541 0.97938 0.0
N188 N 0.85189 0.18673 0.95956 0.0
C189 C 0.88341 0.19689 0.96745 0.0
C190 C 0.88136 0.16335 0.98798 0.0
C191 C 0.86437 0.14159 0.99388 0.0
C192 C 0.86819 0.20721 0.95355 0.0
H193 H 0.83642 0.13821 0.98409 0.0
C194 C 0.79963 0.16847 0.96019 0.0
O195 O 0.7901 0.05976 0.90269 0.0
O196 O 0.81296 0.02871 0.92426 0.0
N197 N 0.85404 0.24323 0.91986 0.0
C198 C 0.85367 0.27365 0.89921 0.0
C199 C 0.86947 0.29872 0.89077 0.0
C200 C 0.88549 0.29269 0.9037 0.0
C201 C 0.8855 0.26162 0.92505 0.0
C202 C 0.86927 0.23803 0.93269 0.0
H203 H 0.84134 0.27953 0.88946 0.0
O204 O 0.8264 0.0975 0.88781 0.0
O205 O 0.83333 0.14254 0.921 0.0
O206 O 0.80102 0.18278 0.89866 0.0
O207 O 0.81689 0.25169 0.91664 0.0
C208 C 0.90093 0.25318 0.93909 0.0
C209 C 0.89991 0.22047 0.96019 0.0
H210 H 0.89274 0.15396 0.9993 0.0
H211 H 0.86269 0.11572 0.0097 0.0
H212 H 0.86907 0.32359 0.8746 0.0
H213 H 0.89765 0.31251 0.89727 0.0
H214 H 0.91368 0.27095 0.93366 0.0
H215 H 0.91191 0.21355 0.97066 0.0
Mn216 Mn 0.96798 0.10338 0.83672 0.0
Mn217 Mn 0.94333 0.20115 0.80811 0.0
C218 C 0.93975 0.12554 0.85261 0.0
C219 C 0.9773 0.00948 0.84167 0.0
C220 C 0.97596 0.22708 0.83878 0.0
O221 O 0.9816 0.12071 0.8054 0.0
O222 O 0.95871 0.1593 0.78533 0.0
C223 C 0.9202 0.13051 0.77712 0.0
N224 N 0.92203 0.17218 0.79379 0.0
C225 C 0.89078 0.19659 0.79112 0.0
C226 C 0.88852 0.15388 0.77392 0.0
C227 C 0.90327 0.12044 0.76702 0.0
C228 C 0.90789 0.20399 0.80081 0.0
H229 H 0.9316 0.10554 0.77149 0.0
C230 C 0.97521 0.14581 0.787 0.0
O231 O 0.98721 0.05173 0.84853 0.0
O232 O 0.96295 0.02179 0.82964 0.0
N233 N 0.9277 0.24513 0.82777 0.0
C234 C 0.93203 0.28285 0.84528 0.0
C235 C 0.91891 0.32026 0.85393 0.0
C236 C 0.90151 0.3185 0.84448 0.0
C237 C 0.89722 0.27837 0.82696 0.0
C238 C 0.91093 0.24287 0.81873 0.0
H239 H 0.94547 0.28559 0.85216 0.0
O240 O 0.95169 0.09776 0.86467 0.0
O241 O 0.9442 0.13638 0.8305 0.0
O242 O 0.97723 0.17866 0.84874 0.0
O243 O 0.96485 0.23769 0.82203 0.0
C244 C 0.87997 0.27294 0.81701 0.0
C245 C 0.87672 0.23177 0.79921 0.0
H246 H 0.87552 0.14624 0.76598 0.0
H247 H 0.90163 0.08741 0.75376 0.0
H248 H 0.9223 0.35116 0.86749 0.0
H249 H 0.89162 0.34868 0.85053 0.0
H250 H 0.86909 0.29989 0.82305 0.0
H251 H 0.86335 0.22733 0.79195 0.0
Mn252 Mn 0.80734 0.6436 0.82805 0.0
Mn253 Mn 0.83133 0.54491 0.79786 0.0
C254 C 0.83733 0.62916 0.83813 0.0
C255 C 0.79621 0.73474 0.83434 0.0
C256 C 0.80437 0.51714 0.8364 0.0
O257 O 0.79106 0.62321 0.79964 0.0
O258 O 0.81018 0.5678 0.77879 0.0
C259 C 0.84414 0.61627 0.75786 0.0
N260 N 0.84766 0.57998 0.77621 0.0
C261 C 0.87906 0.57786 0.76658 0.0
C262 C 0.87579 0.61507 0.74749 0.0
C263 C 0.85827 0.63452 0.74317 0.0
C264 C 0.86447 0.56126 0.7806 0.0
H265 H 0.83066 0.63095 0.75448 0.0
C266 C 0.79497 0.59186 0.78171 0.0
O267 O 0.78859 0.6903 0.84353 0.0
O268 O 0.80926 0.72607 0.81941 0.0
N269 N 0.85209 0.51647 0.8137 0.0
C270 C 0.85297 0.48263 0.83338 0.0
C271 C 0.86949 0.45956 0.84027 0.0
C272 C 0.88498 0.47155 0.82691 0.0
C273 C 0.8837 0.50603 0.80656 0.0
C274 C 0.86677 0.52688 0.80029 0.0
H275 H 0.84111 0.47271 0.84358 0.0
O276 O 0.82634 0.65468 0.85241 0.0
O277 O 0.83074 0.6152 0.8173 0.0
O278 O 0.80103 0.56787 0.84269 0.0
O279 O 0.81512 0.50394 0.81962 0.0
C280 C 0.89855 0.52109 0.79239 0.0
C281 C 0.89625 0.55723 0.77248 0.0
H282 H 0.88665 0.62929 0.73613 0.0
H283 H 0.85565 0.66337 0.72852 0.0
H284 H 0.87013 0.432 0.85566 0.0
H285 H 0.89776 0.45396 0.83234 0.0
H286 H 0.91183 0.50575 0.79682 0.0
H287 H 0.9078 0.56919 0.76193 0.0
Mn288 Mn 0.04681 0.88885 0.59706 0.0
Mn289 Mn 0.04905 0.90945 0.65632 0.0
C290 C 0.0574 0.97283 0.61184 0.0
C291 C 0.029 0.90459 0.56279 0.0
C292 C 0.07805 0.8473 0.62884 0.0
O293 O 0.03236 0.82165 0.60988 0.0
O294 O 0.03551 0.83883 0.64903 0.0
C295 C 0.01046 0.93527 0.66197 0.0
N296 N 0.0279 0.95107 0.66455 0.0
C297 C 0.0193 0.04301 0.67979 0.0
C298 C 1.00125 0.02755 0.67746 0.0
C299 C 0.99681 0.97346 0.6685 0.0
C300 C 0.03231 0.00316 0.673 0.0
H301 H 0.007 0.89395 0.65488 0.0
C302 C 0.03013 0.80785 0.63171 0.0
O303 O 0.04227 0.86847 0.56223 0.0
O304 O 0.02528 0.9259 0.58325 0.0
N305 N 0.06186 0.97573 0.66651 0.0
C306 C 0.0799 0.98284 0.66873 0.0
C307 C 0.08661 0.03414 0.67802 0.0
C308 C 0.07471 0.07727 0.68518 0.0
C309 C 0.05618 0.0682 0.68345 0.0
C310 C 0.05029 0.01587 0.67439 0.0
H311 H 0.08909 0.94976 0.66327 0.0
O312 O 0.06066 0.95891 0.59003 0.0
O313 O 0.04733 0.93833 0.62403 0.0
O314 O 0.0705 0.849 0.60812 0.0
O315 O 0.07113 0.86888 0.6477 0.0
C316 C 0.04334 0.10899 0.69039 0.0
C317 C 0.02491 0.0965 0.68845 0.0
H318 H 0.99069 0.05691 0.68244 0.0
H319 H 0.9829 0.96132 0.66654 0.0
H320 H 0.10092 0.04057 0.67951 0.0
H321 H 0.07993 0.11703 0.69207 0.0
H322 H 0.04748 0.15013 0.69718 0.0
H323 H 0.01516 0.12829 0.69371 0.0
Mn324 Mn 0.22138 0.37352 0.58974 0.0
Mn325 Mn 0.21783 0.37044 0.64952 0.0
C326 C 0.21469 0.29054 0.60911 0.0
C327 C 0.23967 0.35467 0.55646 0.0
C328 C 0.18757 0.41047 0.6175 0.0
O329 O 0.23291 0.44931 0.59904 0.0
O330 O 0.22914 0.44255 0.63877 0.0
C331 C 0.25674 0.36362 0.6594 0.0
N332 N 0.23999 0.3411 0.66146 0.0
C333 C 0.25139 0.25893 0.68223 0.0
C334 C 0.26874 0.28142 0.68046 0.0
C335 C 0.27142 0.33399 0.66899 0.0
C336 C 0.23727 0.2905 0.67243 0.0
H337 H 0.2589 0.40375 0.65042 0.0
C338 C 0.23437 0.46939 0.62013 0.0
O339 O 0.22509 0.38481 0.55421 0.0
O340 O 0.24437 0.34205 0.57788 0.0
N341 N 0.20727 0.30267 0.66238 0.0
C342 C 0.18966 0.28735 0.66294 0.0
C343 C 0.18469 0.23586 0.6739 0.0
C344 C 0.19784 0.20094 0.68431 0.0
C345 C 0.21581 0.21834 0.68405 0.0
C346 C 0.21993 0.27044 0.67314 0.0
H347 H 0.17952 0.31388 0.65485 0.0
O348 O 0.21085 0.29636 0.58681 0.0
O349 O 0.22254 0.33321 0.61938 0.0
O350 O 0.19605 0.40592 0.5976 0.0
O351 O 0.19456 0.39846 0.63773 0.0
C352 C 0.2298 0.18589 0.69406 0.0
C353 C 0.24759 0.20614 0.69312 0.0
H354 H 0.28011 0.25857 0.68774 0.0
H355 H 0.28478 0.35152 0.66746 0.0
H356 H 0.17078 0.22287 0.67413 0.0
H357 H 0.19398 0.16092 0.69248 0.0
H358 H 0.22704 0.14523 0.70246 0.0
H359 H 0.25827 0.18079 0.70077 0.0
Mn360 Mn 0.04858 0.37732 0.66873 0.0
Mn361 Mn 0.05176 0.37711 0.60889 0.0
C362 C 0.05459 0.29498 0.64831 0.0
C363 C 0.03064 0.35461 0.70211 0.0
C364 C 0.08231 0.41463 0.64102 0.0
O365 O 0.03708 0.45427 0.66021 0.0
O366 O 0.0404 0.44833 0.62034 0.0
C367 C 0.01284 0.37095 0.59896 0.0
N368 N 0.02959 0.34848 0.59672 0.0
C369 C 0.01817 0.26737 0.57535 0.0
C370 C 1.00082 0.28986 0.5773 0.0
C371 C 0.99816 0.34187 0.58916 0.0
C372 C 0.0323 0.29842 0.58536 0.0
H373 H 0.01068 0.41062 0.60825 0.0
C374 C 0.03524 0.4746 0.63913 0.0
O375 O 0.04529 0.3842 0.70461 0.0
O376 O 0.02554 0.34599 0.68052 0.0
N377 N 0.0623 0.3098 0.59558 0.0
C378 C 0.07987 0.29401 0.59517 0.0
C379 C 0.08481 0.24291 0.58392 0.0
C380 C 0.07167 0.20876 0.57313 0.0
C381 C 0.05372 0.22648 0.57337 0.0
C382 C 0.04963 0.27822 0.58455 0.0
H383 H 0.09002 0.31987 0.60357 0.0
O384 O 0.05885 0.29929 0.67051 0.0
O385 O 0.04695 0.33887 0.63872 0.0
O386 O 0.07396 0.40903 0.66097 0.0
O387 O 0.0751 0.40437 0.62078 0.0
C388 C 0.03972 0.19462 0.56311 0.0
C389 C 0.02195 0.21503 0.56413 0.0
H390 H 0.98945 0.26741 0.56988 0.0
H391 H 0.9848 0.35937 0.59083 0.0
H392 H 0.0987 0.2296 0.58376 0.0
H393 H 0.0755 0.16901 0.56475 0.0
H394 H 0.04244 0.15425 0.55449 0.0
H395 H 0.01128 0.19006 0.5563 0.0
Mn396 Mn 0.21399 0.88383 0.65875 0.0
Mn397 Mn 0.21286 0.90357 0.59942 0.0
C398 C 0.20414 0.9683 0.64334 0.0
C399 C 0.23142 0.89837 0.69329 0.0
C400 C 0.18323 0.84261 0.62629 0.0
O401 O 0.22852 0.81634 0.64661 0.0
O402 O 0.22648 0.83319 0.60726 0.0
C403 C 0.2515 0.92973 0.59467 0.0
N404 N 0.23408 0.94533 0.59162 0.0
C405 C 0.24277 0.0376 0.57675 0.0
C406 C 0.26081 0.02234 0.57957 0.0
C407 C 0.26519 0.96817 0.58857 0.0
C408 C 0.22972 -0.00254 0.58307 0.0
H409 H 0.25492 0.8884 0.60185 0.0
C410 C 0.23152 0.80264 0.62496 0.0
O411 O 0.21792 0.86311 0.69366 0.0
O412 O 0.23541 0.91998 0.67296 0.0
N413 N 0.20012 0.96981 0.58891 0.0
C414 C 0.18209 0.97722 0.58666 0.0
C415 C 0.17545 0.02874 0.57741 0.0
C416 C 0.18741 0.07188 0.57043 0.0
C417 C 0.20591 0.06268 0.57235 0.0
C418 C 0.21174 0.01009 0.5813 0.0
H419 H 0.17284 0.94422 0.59203 0.0
O420 O 0.20032 0.95476 0.66505 0.0
O421 O 0.21416 0.93276 0.63164 0.0
O422 O 0.19037 0.8448 0.64723 0.0
O423 O 0.19066 0.86297 0.60751 0.0
C424 C 0.21881 0.1037 0.56583 0.0
C425 C 0.23722 0.09127 0.56814 0.0
H426 H 0.2714 0.05194 0.57497 0.0
H427 H 0.27908 0.95619 0.59092 0.0
H428 H 0.16115 0.03535 0.57583 0.0
H429 H 0.18224 0.11184 0.5636 0.0
H430 H 0.21471 0.14504 0.55915 0.0
H431 H 0.24699 0.12332 0.56327 0.0
Mn432 Mn 0.95844 0.13699 0.42431 0.0
Mn433 Mn 0.93508 0.02372 0.44472 0.0
C434 C 0.93082 0.11448 0.40702 0.0
C435 C 0.96588 0.23355 0.42156 0.0
C436 C 0.96489 0.013 0.40973 0.0
O437 O 0.97154 0.12009 0.45592 0.0
O438 O 0.95653 0.03968 0.46431 0.0
C439 C 0.92281 0.08135 0.48867 0.0
N440 N 0.91904 0.05113 0.46861 0.0
C441 C 0.88788 0.04446 0.4792 0.0
C442 C 0.89142 0.07538 0.50004 0.0
C443 C 0.90895 0.09417 0.50472 0.0
C444 C 0.9022 0.03369 0.46374 0.0
H445 H 0.9363 0.09534 0.49241 0.0
C446 C 0.9694 0.07426 0.468 0.0
O447 O 0.97673 0.19413 0.41419 0.0
O448 O 0.9518 0.21656 0.43319 0.0
N449 N 0.91411 -0.00072 0.42828 0.0
C450 C 0.91307 0.9697 0.40749 0.0
C451 C 0.89655 0.94711 0.40035 0.0
C452 C 0.8813 0.95453 0.4147 0.0
C453 C 0.88279 0.98402 0.43628 0.0
C454 C 0.89966 0.00511 0.44261 0.0
H455 H 0.92482 0.96277 0.39664 0.0
O456 O 0.9428 0.14437 0.39605 0.0
O457 O 0.93494 0.0992 0.42887 0.0
O458 O 0.96962 0.06511 0.41017 0.0
O459 O 0.95118 0.99295 0.42044 0.0
C460 C 0.86823 0.99321 0.45179 0.0
C461 C 0.87074 0.02387 0.47314 0.0
H462 H 0.88078 0.085 0.51254 0.0
H463 H 0.91178 0.11812 0.52075 0.0
H464 H 0.89572 0.92305 0.38406 0.0
H465 H 0.86857 0.93691 0.40917 0.0
H466 H 0.85501 0.97746 0.44733 0.0
H467 H 0.85941 0.03127 0.48479 0.0
Mn468 Mn 0.81373 0.61436 0.42805 0.0
Mn469 Mn 0.83765 0.72724 0.44742 0.0
C470 C 0.84085 0.63675 0.4095 0.0
C471 C 0.80607 0.51812 0.42605 0.0
C472 C 0.80703 0.73846 0.41373 0.0
O473 O 0.80139 0.6312 0.46006 0.0
O474 O 0.81664 0.7114 0.46782 0.0
C475 C 0.85084 0.66871 0.49075 0.0
N476 N 0.85419 0.69922 0.47059 0.0
C477 C 0.8856 0.70509 0.47985 0.0
C478 C 0.8825 0.67386 0.50077 0.0
C479 C 0.86506 0.65532 0.50617 0.0
C480 C 0.87095 0.71636 0.46503 0.0
H481 H 0.83742 0.65492 0.49503 0.0
C482 C 0.80383 0.67691 0.47199 0.0
O483 O 0.79513 0.55759 0.41895 0.0
O484 O 0.82051 0.53496 0.43689 0.0
N485 N 0.85825 0.75172 0.43017 0.0
C486 C 0.8588 0.78238 0.4096 0.0
C487 C 0.87513 0.80554 0.40197 0.0
C488 C 0.89072 0.79731 0.41558 0.0
C489 C 0.88975 0.76668 0.43697 0.0
C490 C 0.87303 0.74536 0.44387 0.0
H491 H 0.84679 0.78999 0.39934 0.0
O492 O 0.82861 0.60673 0.39914 0.0
O493 O 0.83733 0.65198 0.43152 0.0
O494 O 0.80229 0.68636 0.41434 0.0
O495 O 0.82101 0.75839 0.42385 0.0
C496 C 0.90465 0.75689 0.45182 0.0
C497 C 0.90261 0.72562 0.47314 0.0
H498 H 0.89341 0.66385 0.5128 0.0
H499 H 0.86256 0.63114 0.52226 0.0
H500 H 0.87554 0.83084 0.38596 0.0
H501 H 0.9033 0.81541 0.40968 0.0
H502 H 0.91777 0.77277 0.4469 0.0
H503 H 0.9142 0.71784 0.4843 0.0
Mn504 Mn 0.96739 0.61015 0.33672 0.0
Mn505 Mn 0.94241 0.71448 0.3118 0.0
C506 C 0.93999 0.6349 0.35403 0.0
C507 C 0.97562 0.51534 0.34314 0.0
C508 C 0.97278 0.73797 0.34497 0.0
O509 O 0.97982 0.61987 0.3042 0.0
O510 O 0.96348 0.69485 0.29216 0.0
C511 C 0.92965 0.64289 0.27189 0.0
N512 N 0.92608 0.6787 0.29035 0.0
C513 C 0.89463 0.6794 0.28107 0.0
C514 C 0.89795 0.64261 0.26189 0.0
C515 C 0.91553 0.62403 0.25737 0.0
C516 C 0.9092 0.69594 0.29512 0.0
H517 H 0.94318 0.62906 0.26826 0.0
C518 C 0.97673 0.6611 0.28986 0.0
O519 O 0.98636 0.55687 0.3484 0.0
O520 O 0.96106 0.52849 0.33174 0.0
N521 N 0.92164 0.74203 0.32784 0.0
C522 C 0.9209 0.7788 0.34654 0.0
C523 C 0.90446 0.80351 0.35278 0.0
C524 C 0.88892 0.7902 0.3398 0.0
C525 C 0.89006 0.75296 0.32037 0.0
C526 C 0.90691 0.73068 0.31464 0.0
H527 H 0.93287 0.79027 0.35624 0.0
O528 O 0.95245 0.60887 0.36575 0.0
O529 O 0.94346 0.64446 0.33143 0.0
O530 O 0.97807 0.68652 0.34709 0.0
O531 O 0.95876 0.75326 0.33358 0.0
C532 C 0.87522 0.73778 0.30624 0.0
C533 C 0.87747 0.70052 0.28674 0.0
H534 H 0.88711 0.62839 0.25053 0.0
H535 H 0.9182 0.59561 0.24262 0.0
H536 H 0.90394 0.83377 0.3672 0.0
H537 H 0.87625 0.80957 0.34455 0.0
H538 H 0.862 0.75422 0.3103 0.0
H539 H 0.86594 0.68872 0.27613 0.0
Mn540 Mn 0.80196 0.14222 0.34181 0.0
Mn541 Mn 0.82569 0.03833 0.31482 0.0
C542 C 0.8299 0.11657 0.35721 0.0
C543 C 0.79399 0.23666 0.34895 0.0
C544 C 0.7967 0.01421 0.34995 0.0
O545 O 0.78838 0.13421 0.31016 0.0
O546 O 0.80373 0.05842 0.29689 0.0
C547 C 0.8367 0.11093 0.27423 0.0
N548 N 0.84107 0.07473 0.29228 0.0
C549 C 0.87211 0.07497 0.28079 0.0
C550 C 0.86796 0.11217 0.262 0.0
C551 C 0.85018 0.13046 0.25879 0.0
C552 C 0.85815 0.05773 0.29579 0.0
H553 H 0.82302 0.12459 0.27161 0.0
C554 C 0.79058 0.09295 0.29564 0.0
O555 O 0.78344 0.19505 0.35483 0.0
O556 O 0.80819 0.22383 0.33674 0.0
N557 N 0.84713 0.01041 0.32916 0.0
C558 C 0.84868 0.97311 0.34763 0.0
C559 C 0.8654 0.94861 0.35261 0.0
C560 C 0.88038 0.96271 0.33862 0.0
C561 C 0.87839 0.00047 0.31945 0.0
C562 C 0.86128 0.02248 0.31499 0.0
H563 H 0.83715 0.9611 0.35812 0.0
O564 O 0.81789 0.14231 0.36984 0.0
O565 O 0.82561 0.1078 0.3348 0.0
O566 O 0.79152 0.06565 0.35248 0.0
O567 O 0.81031 -0.00093 0.3377 0.0
C568 C 0.89262 0.01643 0.30436 0.0
C569 C 0.88952 0.05414 0.28518 0.0
H570 H 0.8783 0.12694 0.24994 0.0
H571 H 0.84687 0.1592 0.24435 0.0
H572 H 0.86659 0.91792 0.36685 0.0
H573 H 0.89326 0.94353 0.34242 0.0
H574 H 0.90602 0.00023 0.30743 0.0
H575 H 0.90059 0.06651 0.27382 0.0
Mn576 Mn 0.53966 0.35888 0.59162 0.0
Mn577 Mn 0.54337 0.36269 0.65149 0.0
C578 C 0.5453 0.44296 0.6108 0.0
C579 C 0.521 0.37383 0.55839 0.0
C580 C 0.57393 0.32616 0.61921 0.0
O581 O 0.52955 0.28088 0.60117 0.0
O582 O 0.53267 0.2898 0.64091 0.0
C583 C 0.50445 0.36628 0.6615 0.0
N584 N 0.52101 0.39009 0.66353 0.0
C585 C 0.50907 0.47053 0.68482 0.0
C586 C 0.49189 0.4467 0.68309 0.0
C587 C 0.48958 0.39438 0.67134 0.0
C588 C 0.52337 0.44063 0.67464 0.0
H589 H 0.50258 0.32625 0.65236 0.0
C590 C 0.52805 0.26151 0.62243 0.0
O591 O 0.53635 0.34799 0.55605 0.0
O592 O 0.51599 0.38514 0.57981 0.0
N593 N 0.55343 0.43099 0.66446 0.0
C594 C 0.57099 0.44661 0.66573 0.0
C595 C 0.57566 0.49753 0.67731 0.0
C596 C 0.56227 0.53142 0.68774 0.0
C597 C 0.54437 0.51341 0.68694 0.0
C598 C 0.54056 0.46194 0.67539 0.0
H599 H 0.58134 0.42073 0.65775 0.0
O600 O 0.54881 0.43782 0.58841 0.0
O601 O 0.53811 0.39932 0.62129 0.0
O602 O 0.56546 0.33093 0.59932 0.0
O603 O 0.56681 0.33664 0.63952 0.0
C604 C 0.53017 0.54428 0.6973 0.0
C605 C 0.51253 0.52286 0.6962 0.0
H606 H 0.48039 0.46827 0.69065 0.0
H607 H 0.47635 0.37582 0.66985 0.0
H608 H 0.58953 0.51083 0.67804 0.0
H609 H 0.5659 0.57096 0.69643 0.0
H610 H 0.53267 0.58444 0.70621 0.0
H611 H 0.50171 0.54671 0.70427 0.0
Mn612 Mn 0.72305 0.86573 0.59478 0.0
Mn613 Mn 0.7172 0.85215 0.654 0.0
C614 C 0.7156 0.77959 0.61093 0.0
C615 C 0.74261 0.85298 0.56237 0.0
C616 C 0.68829 0.89835 0.62128 0.0
O617 O 0.73402 0.93972 0.60725 0.0
O618 O 0.72888 0.92595 0.64638 0.0
C619 C 0.75569 0.84229 0.66608 0.0
N620 N 0.73883 0.82007 0.66639 0.0
C621 C 0.74925 0.73429 0.68548 0.0
C622 C 0.7667 0.7564 0.68549 0.0
C623 C 0.76992 0.81062 0.67573 0.0
C624 C 0.7356 0.7678 0.67562 0.0
H625 H 0.75825 0.88376 0.65844 0.0
C626 C 0.73457 0.95628 0.62895 0.0
O627 O 0.72814 0.88358 0.56005 0.0
O628 O 0.7465 0.83643 0.58362 0.0
N629 N 0.70604 0.78271 0.66409 0.0
C630 C 0.68833 0.76856 0.66356 0.0
C631 C 0.68278 0.716 0.67304 0.0
C632 C 0.69544 0.67884 0.68315 0.0
C633 C 0.7135 0.69507 0.68411 0.0
C634 C 0.7182 0.74832 0.67467 0.0
H635 H 0.67854 0.79693 0.65579 0.0
O636 O 0.71274 0.78935 0.58862 0.0
O637 O 0.723 0.82024 0.62309 0.0
O638 O 0.69746 0.89671 0.60184 0.0
O639 O 0.69449 0.88284 0.64155 0.0
C640 C 0.72702 0.6606 0.6941 0.0
C641 C 0.74489 0.68017 0.69473 0.0
H642 H 0.77772 0.73206 0.69288 0.0
H643 H 0.78337 0.82789 0.67559 0.0
H644 H 0.66879 0.70396 0.67237 0.0
H645 H 0.69114 0.63804 0.69017 0.0
H646 H 0.72384 0.619 0.70136 0.0
H647 H 0.75516 0.65338 0.70245 0.0
Mn648 Mn 0.54971 0.84308 0.66683 0.0
Mn649 Mn 0.55602 0.82958 0.60772 0.0
C650 C 0.56018 0.75931 0.65114 0.0
C651 C 0.53002 0.82559 0.69899 0.0
C652 C 0.58335 0.88547 0.64014 0.0
O653 O 0.5365 0.91299 0.65381 0.0
O654 O 0.5421 0.89945 0.61484 0.0
C655 C 0.51794 0.80686 0.59643 0.0
N656 N 0.53542 0.79032 0.59585 0.0
C657 C 0.52762 0.70071 0.57774 0.0
C658 C 0.50955 0.71698 0.57802 0.0
C659 C 0.50469 0.77027 0.58742 0.0
C660 C 0.54023 0.73896 0.58698 0.0
H661 H 0.51412 0.84754 0.60385 0.0
C662 C 0.53543 0.92844 0.63199 0.0
O663 O 0.54356 0.86015 0.70141 0.0
O664 O 0.52712 0.80696 0.67781 0.0
N665 N 0.56925 0.76371 0.59794 0.0
C666 C 0.58733 0.75551 0.59813 0.0
C667 C 0.59449 0.70496 0.58869 0.0
C668 C 0.583 0.66361 0.57899 0.0
C669 C 0.56448 0.67366 0.57845 0.0
C670 C 0.55817 0.72527 0.58775 0.0
H671 H 0.59622 0.7872 0.60553 0.0
O672 O 0.56241 0.77022 0.67349 0.0
O673 O 0.55149 0.79716 0.63887 0.0
O674 O 0.57425 0.88167 0.65961 0.0
O675 O 0.57767 0.86765 0.61992 0.0
C676 C 0.55205 0.63453 0.56903 0.0
C677 C 0.53362 0.64792 0.56879 0.0
H678 H 0.49928 0.68883 0.57113 0.0
H679 H 0.49076 0.78302 0.5878 0.0
H680 H 0.6088 0.69772 0.58901 0.0
H681 H 0.58854 0.62439 0.57198 0.0
H682 H 0.55651 0.59397 0.56198 0.0
H683 H 0.52418 0.61739 0.56161 0.0
Mn684 Mn 0.71191 0.38023 0.66743 0.0
Mn685 Mn 0.70716 0.38292 0.60783 0.0
C686 C 0.70177 0.4607 0.64852 0.0
C687 C 0.7311 0.4049 0.6994 0.0
C688 C 0.67887 0.33364 0.64087 0.0
O689 O 0.72535 0.30798 0.65749 0.0
O690 O 0.721 0.31493 0.61792 0.0
C691 C 0.74551 0.40388 0.59749 0.0
N692 N 0.72804 0.42017 0.59565 0.0
C693 C 0.73633 0.50704 0.5756 0.0
C694 C 0.75439 0.49098 0.57715 0.0
C695 C 0.75899 0.43916 0.58815 0.0
C696 C 0.72348 0.47007 0.58519 0.0
H697 H 0.74914 0.36443 0.60618 0.0
C698 C 0.72721 0.28915 0.63625 0.0
O699 O 0.7174 0.37141 0.70286 0.0
O700 O 0.73438 0.41796 0.67761 0.0
N701 N 0.69417 0.4467 0.59536 0.0
C702 C 0.6761 0.45487 0.59453 0.0
C703 C 0.66922 0.50403 0.58351 0.0
C704 C 0.68097 0.54406 0.57337 0.0
C705 C 0.69948 0.53398 0.5739 0.0
C706 C 0.70553 0.48369 0.58471 0.0
H707 H 0.66702 0.42432 0.60235 0.0
O708 O 0.69911 0.45404 0.67107 0.0
O709 O 0.71083 0.42097 0.63795 0.0
O710 O 0.68746 0.34085 0.66059 0.0
O711 O 0.68521 0.34712 0.62037 0.0
C712 C 0.71217 0.57184 0.56415 0.0
C713 C 0.73059 0.55851 0.56509 0.0
H714 H 0.76483 0.51819 0.57005 0.0
H715 H 0.77291 0.4266 0.58952 0.0
H716 H 0.6549 0.51128 0.58302 0.0
H717 H 0.67563 0.58227 0.56517 0.0
H718 H 0.70791 0.61138 0.55591 0.0
H719 H 0.74023 0.58808 0.55762 0.0
Mn720 Mn 0.4644 0.64725 0.42448 0.0
Mn721 Mn 0.43764 0.55988 0.45612 0.0
C722 C 0.43485 0.63508 0.41105 0.0
C723 C 0.4769 0.73814 0.41928 0.0
C724 C 0.46673 0.52007 0.42204 0.0
O725 O 0.47944 0.62373 0.45386 0.0
O726 O 0.45644 0.59537 0.47599 0.0
C727 C 0.4206 0.64257 0.48884 0.0
N728 N 0.41915 0.59937 0.47279 0.0
C729 C 0.38752 0.59054 0.48006 0.0
C730 C 0.38865 0.63489 0.49672 0.0
C731 C 0.40524 0.66128 0.501 0.0
C732 C 0.40323 0.57429 0.46828 0.0
H733 H 0.43341 0.66221 0.49242 0.0
C734 C 0.47325 0.59748 0.47207 0.0
O735 O 0.48442 0.69298 0.41044 0.0
O736 O 0.46312 0.73 0.43296 0.0
N737 N 0.41866 0.52254 0.43947 0.0
C738 C 0.4197 0.48283 0.42184 0.0
C739 C 0.40423 0.45275 0.4152 0.0
C740 C 0.38792 0.46343 0.42688 0.0
C741 C 0.38715 0.50473 0.44483 0.0
C742 C 0.40301 0.53307 0.4508 0.0
H743 H 0.43228 0.47333 0.41324 0.0
O744 O 0.44693 0.66047 0.39841 0.0
O745 O 0.43986 0.62238 0.43279 0.0
O746 O 0.46976 0.56768 0.41174 0.0
O747 O 0.45606 0.51412 0.43967 0.0
C748 C 0.37127 0.51886 0.45707 0.0
C749 C 0.37143 0.56203 0.47456 0.0
H750 H 0.37685 0.64918 0.50625 0.0
H751 H 0.40621 0.69557 0.51381 0.0
H752 H 0.40498 0.42069 0.40143 0.0
H753 H 0.37607 0.43947 0.42209 0.0
H754 H 0.3588 0.49752 0.45286 0.0
H755 H 0.35907 0.57331 0.48351 0.0
Mn756 Mn 0.30912 0.10732 0.42309 0.0
Mn757 Mn 0.33147 0.22598 0.43967 0.0
C758 C 0.33583 0.13139 0.40372 0.0
C759 C 0.30327 0.00986 0.42288 0.0
C760 C 0.29972 0.22786 0.40715 0.0
O761 O 0.29695 0.12602 0.45507 0.0
O762 O 0.31177 0.20776 0.46192 0.0
C763 C 0.34781 0.17702 0.48316 0.0
N764 N 0.34955 0.20546 0.46214 0.0
C765 C 0.38079 0.22344 0.46943 0.0
C766 C 0.37937 0.19439 0.4912 0.0
C767 C 0.36283 0.17078 0.49802 0.0
C768 C 0.36543 0.22754 0.45525 0.0
H769 H 0.33504 0.15961 0.48855 0.0
C770 C 0.29943 0.17203 0.46682 0.0
O771 O 0.2915 0.04645 0.41546 0.0
O772 O 0.3174 0.03041 0.43332 0.0
N773 N 0.35067 0.2527 0.42031 0.0
C774 C 0.34975 0.27808 0.39854 0.0
C775 C 0.36509 0.30392 0.38904 0.0
C776 C 0.38116 0.30405 0.40212 0.0
C777 C 0.3817 0.27839 0.42465 0.0
C778 C 0.36594 0.25358 0.43326 0.0
H779 H 0.33733 0.27922 0.38868 0.0
O780 O 0.32389 0.09891 0.39406 0.0
O781 O 0.33216 0.14886 0.4254 0.0
O782 O 0.29612 0.17498 0.40808 0.0
O783 O 0.31334 0.25091 0.41688 0.0
C784 C 0.39723 0.27635 0.4389 0.0
C785 C 0.39682 0.24845 0.4612 0.0
H786 H 0.39088 0.18986 0.50279 0.0
H787 H 0.36162 0.14829 0.51479 0.0
H788 H 0.36434 0.32456 0.37186 0.0
H789 H 0.39299 0.32419 0.39485 0.0
H790 H 0.40962 0.29532 0.43272 0.0
H791 H 0.4089 0.24635 0.47184 0.0
Mn792 Mn 0.46586 0.12038 0.33991 0.0
Mn793 Mn 0.43881 0.2093 0.30876 0.0
C794 C 0.43648 0.13467 0.35297 0.0
C795 C 0.47774 0.02951 0.34768 0.0
C796 C 0.46523 0.25105 0.34477 0.0
O797 O 0.4807 0.13433 0.30957 0.0
O798 O 0.46183 0.19612 0.29223 0.0
C799 C 0.43187 0.12548 0.27058 0.0
N800 N 0.4256 0.1628 0.28714 0.0
C801 C 0.39514 0.1474 0.27482 0.0
C802 C 0.40124 0.10882 0.25755 0.0
C803 C 0.41968 0.09757 0.25551 0.0
C804 C 0.4079 0.17298 0.2896 0.0
H805 H 0.44606 0.1173 0.26888 0.0
C806 C 0.47691 0.17075 0.2934 0.0
O807 O 0.48561 0.07537 0.35525 0.0
O808 O 0.46386 0.03652 0.33412 0.0
N809 N 0.4161 0.23075 0.32143 0.0
C810 C 0.41269 0.27203 0.33784 0.0
C811 C 0.39508 0.29145 0.34097 0.0
C812 C 0.38109 0.2678 0.32749 0.0
C813 C 0.38499 0.22649 0.31023 0.0
C814 C 0.40291 0.21026 0.30732 0.0
H815 H 0.42342 0.2914 0.34787 0.0
O816 O 0.44872 0.11315 0.36651 0.0
O817 O 0.44135 0.14407 0.33081 0.0
O818 O 0.47191 0.20246 0.35027 0.0
O819 O 0.45202 0.25838 0.33062 0.0
C820 C 0.3719 0.20189 0.29537 0.0
C821 C 0.37695 0.16184 0.27786 0.0
H822 H 0.39189 0.08769 0.24574 0.0
H823 H 0.42449 0.06785 0.24224 0.0
H824 H 0.39246 0.32593 0.35316 0.0
H825 H 0.3675 0.2828 0.33004 0.0
H826 H 0.35792 0.21339 0.29728 0.0
H827 H 0.36676 0.14295 0.26663 0.0
Mn828 Mn 0.30765 0.63273 0.34075 0.0
Mn829 Mn 0.33386 0.52726 0.31957 0.0
C830 C 0.33466 0.61209 0.35978 0.0
C831 C 0.29856 0.72686 0.34556 0.0
C832 C 0.30238 0.50561 0.35066 0.0
O833 O 0.29665 0.62042 0.30764 0.0
O834 O 0.31299 0.5429 0.29875 0.0
C835 C 0.34706 0.59306 0.27813 0.0
N836 N 0.35044 0.5605 0.29771 0.0
C837 C 0.38201 0.55873 0.28915 0.0
C838 C 0.37889 0.59215 0.26883 0.0
C839 C 0.36135 0.60966 0.26338 0.0
C840 C 0.36728 0.54415 0.3033 0.0
H841 H 0.33357 0.60597 0.27377 0.0
C842 C 0.29992 0.57666 0.29481 0.0
O843 O 0.28788 0.6849 0.35048 0.0
O844 O 0.31365 0.71434 0.33531 0.0
N845 N 0.35448 0.50375 0.33713 0.0
C846 C 0.35518 0.47252 0.35756 0.0
C847 C 0.37175 0.45158 0.36553 0.0
C848 C 0.38737 0.46227 0.35232 0.0
C849 C 0.38627 0.49361 0.33112 0.0
C850 C 0.36938 0.5131 0.32396 0.0
H851 H 0.34314 0.46308 0.3675 0.0
O852 O 0.32148 0.63661 0.37065 0.0
O853 O 0.33194 0.60007 0.33722 0.0
O854 O 0.29675 0.55679 0.35107 0.0
O855 O 0.31727 0.49004 0.34156 0.0
C856 C 0.40126 0.50642 0.31681 0.0
C857 C 0.39915 0.53936 0.29594 0.0
H858 H 0.38986 0.60473 0.25733 0.0
H859 H 0.35883 0.6355 0.24775 0.0
H860 H 0.37241 0.4263 0.38155 0.0
H861 H 0.40012 0.44586 0.35851 0.0
H862 H 0.4145 0.49189 0.32189 0.0
H863 H 0.41081 0.54966 0.28527 0.0
Mn864 Mn 0.54373 0.87983 0.09872 0.0
Mn865 Mn 0.5415 0.89434 0.15835 0.0
C866 C 0.54816 0.96672 0.11577 0.0
C867 C 0.52799 0.89097 0.06257 0.0
C868 C 0.57498 0.85239 0.13311 0.0
O869 O 0.53231 0.80445 0.10878 0.0
O870 O 0.53218 0.81885 0.1484 0.0
C871 C 0.5019 0.89842 0.16079 0.0
N872 N 0.51808 0.92305 0.1652 0.0
C873 C 0.50396 0.00763 0.18059 0.0
C874 C 0.48715 0.98299 0.17636 0.0
C875 C 0.48613 0.92813 0.16644 0.0
C876 C 0.51922 0.97583 0.17473 0.0
H877 H 0.50105 0.85656 0.1529 0.0
C878 C 0.52929 0.78768 0.13009 0.0
O879 O 0.54295 0.86227 0.0632 0.0
O880 O 0.52154 0.90625 0.08279 0.0
N881 N 0.55007 0.96516 0.17083 0.0
C882 C 0.56731 0.98175 0.17475 0.0
C883 C 0.5707 0.03524 0.18504 0.0
C884 C 0.55632 0.07084 0.19136 0.0
C885 C 0.53869 0.05196 0.18791 0.0
C886 C 0.53616 -0.00222 0.17803 0.0
H887 H 0.5784 0.95469 0.16979 0.0
O888 O 0.55376 0.9571 0.09441 0.0
O889 O 0.53968 0.92564 0.12643 0.0
O890 O 0.56857 0.85226 0.11173 0.0
O891 O 0.56589 0.86727 0.15146 0.0
C892 C 0.52354 0.08495 0.19368 0.0
C893 C 0.50618 0.06279 0.19007 0.0
H894 H 0.47495 0.0059 0.18056 0.0
H895 H 0.4732 0.90895 0.16301 0.0
H896 H 0.58434 0.04928 0.18782 0.0
H897 H 0.55898 0.11248 0.19889 0.0
H898 H 0.52508 0.12764 0.20065 0.0
H899 H 0.49463 0.08862 0.19456 0.0
Mn900 Mn 0.72491 0.38144 0.0823 0.0
Mn901 Mn 0.72331 0.38604 0.14227 0.0
C902 C 0.72008 0.3001 0.10375 0.0
C903 C 0.74213 0.3609 0.04822 0.0
C904 C 0.69152 0.41698 0.11125 0.0
O905 O 0.73531 0.46028 0.08917 0.0
O906 O 0.73288 0.45873 0.12917 0.0
C907 C 0.76256 0.38691 0.14988 0.0
N908 N 0.74629 0.36211 0.15353 0.0
C909 C 0.75967 0.28543 0.17587 0.0
C910 C 0.77655 0.31035 0.17246 0.0
C911 C 0.77799 0.3613 0.1594 0.0
C912 C 0.74476 0.313 0.16602 0.0
H913 H 0.76374 0.42582 0.1397 0.0
C914 C 0.73681 0.484 0.1096 0.0
O915 O 0.72704 0.38855 0.04637 0.0
O916 O 0.74793 0.35242 0.06954 0.0
N917 N 0.71432 0.31877 0.15747 0.0
C918 C 0.69701 0.30108 0.15967 0.0
C919 C 0.69322 0.25082 0.17233 0.0
C920 C 0.70724 0.2197 0.18283 0.0
C921 C 0.72488 0.23974 0.18097 0.0
C922 C 0.72781 0.29039 0.16832 0.0
H923 H 0.68619 0.32473 0.15156 0.0
O924 O 0.7156 0.30261 0.08157 0.0
O925 O 0.72765 0.34502 0.11277 0.0
O926 O 0.69941 0.41081 0.091 0.0
O927 O 0.69928 0.40855 0.13129 0.0
C928 C 0.73968 0.21131 0.19107 0.0
C929 C 0.75707 0.23408 0.18849 0.0
H930 H 0.78849 0.29064 0.1797 0.0
H931 H 0.79098 0.38066 0.15662 0.0
H932 H 0.67956 0.23585 0.17382 0.0
H933 H 0.70429 0.18061 0.19235 0.0
H934 H 0.73783 0.17185 0.2008 0.0
H935 H 0.76835 0.21174 0.19627 0.0
Mn936 Mn 0.55535 0.3679 0.1704 0.0
Mn937 Mn 0.55801 0.35515 0.11073 0.0
C938 C 0.56434 0.28412 0.15346 0.0
C939 C 0.53767 0.35169 0.20453 0.0
C940 C 0.58751 0.40878 0.14028 0.0
O941 O 0.54166 0.43842 0.15899 0.0
O942 O 0.54493 0.42564 0.1195 0.0
C943 C 0.51927 0.33506 0.10306 0.0
N944 N 0.53657 0.3175 0.1007 0.0
C945 C 0.52726 0.22928 0.08268 0.0
C946 C 0.50936 0.24661 0.08478 0.0
C947 C 0.50535 0.29972 0.09502 0.0
C948 C 0.54057 0.26638 0.09094 0.0
H949 H 0.51611 0.37559 0.11113 0.0
C950 C 0.53937 0.45441 0.13741 0.0
O951 O 0.55153 0.38538 0.20549 0.0
O952 O 0.53341 0.33252 0.18385 0.0
N953 N 0.57025 0.28863 0.09952 0.0
C954 C 0.58822 0.27847 0.09863 0.0
C955 C 0.5945 0.22732 0.08868 0.0
C956 C 0.58226 0.18738 0.0796 0.0
C957 C 0.56386 0.19935 0.08023 0.0
C958 C 0.55842 0.25142 0.09003 0.0
H959 H 0.59768 0.30896 0.10563 0.0
O960 O 0.56808 0.29456 0.1755 0.0
O961 O 0.5551 0.32247 0.14221 0.0
O962 O 0.57957 0.40549 0.16063 0.0
O963 O 0.58051 0.39159 0.12073 0.0
C964 C 0.55071 0.16148 0.07168 0.0
C965 C 0.53242 0.17635 0.07298 0.0
H966 H 0.49858 0.21936 0.0787 0.0
H967 H 0.49155 0.31327 0.09681 0.0
H968 H 0.60873 0.21853 0.08815 0.0
H969 H 0.58714 0.14766 0.07221 0.0
H970 H 0.5545 0.12064 0.06423 0.0
H971 H 0.52242 0.14667 0.06655 0.0
Mn972 Mn 0.71214 0.90524 0.16919 0.0
Mn973 Mn 0.71383 0.90771 0.10932 0.0
C974 C 0.70517 0.98686 0.14899 0.0
C975 C 0.72829 0.92591 0.20438 0.0
C976 C 0.68164 0.86251 0.13647 0.0
O977 O 0.72547 0.83151 0.16167 0.0
O978 O 0.72527 0.83695 0.12168 0.0
C979 C 0.75316 0.92222 0.10631 0.0
N980 N 0.73636 0.94133 0.10121 0.0
C981 C 0.74809 0.02607 0.08267 0.0
C982 C 0.76552 0.00708 0.08759 0.0
C983 C 0.76806 0.95493 0.09946 0.0
C984 C 0.73377 0.99156 0.08988 0.0
H985 H 0.75518 0.88248 0.11567 0.0
C986 C 0.72899 0.81093 0.14113 0.0
O987 O 0.71398 0.89413 0.20516 0.0
O988 O 0.73377 0.94017 0.18352 0.0
N989 N 0.70334 0.9734 0.0946 0.0
C990 C 0.68569 0.98475 0.09059 0.0
C991 C 0.68084 0.03492 0.07851 0.0
C992 C 0.69418 0.07261 0.07053 0.0
C993 C 0.71227 0.05922 0.07428 0.0
C994 C 0.71629 0.00815 0.08608 0.0
H995 H 0.67539 0.95599 0.09676 0.0
O996 O 0.70009 0.98044 0.17081 0.0
O997 O 0.71471 0.94597 0.1399 0.0
O998 O 0.68806 0.86875 0.15769 0.0
O999 O 0.69028 0.87553 0.11749 0.0
C1000 C 0.72647 0.0946 0.06684 0.0
C1001 C 0.74437 0.07813 0.07111 0.0
H1002 H 0.77704 0.03229 0.08242 0.0
H1003 H 0.78147 0.94012 0.10342 0.0
H1004 H 0.66685 0.04474 0.07554 0.0
H1005 H 0.69039 0.11162 0.06149 0.0
H1006 H 0.72378 0.13465 0.0579 0.0
H1007 H 0.75517 0.10583 0.06541 0.0
Mn1008 Mn 0.46048 0.11981 0.92101 0.0
Mn1009 Mn 0.43624 0.01241 0.94523 0.0
C1010 C 0.43176 0.10039 0.90654 0.0
C1011 C 0.46948 0.21428 0.91613 0.0
C1012 C 0.46604 0.99371 0.9103 0.0
O1013 O 0.47413 0.10423 0.95232 0.0
O1014 O 0.45722 0.03086 0.96538 0.0
C1015 C 0.42266 0.07454 0.98736 0.0
N1016 N 0.4195 0.04247 0.96763 0.0
C1017 C 0.38795 0.03786 0.97625 0.0
C1018 C 0.39085 0.07071 0.99675 0.0
C1019 C 0.40827 0.08928 1.00228 0.0
C1020 C 0.4028 0.02448 0.96212 0.0
H1021 H 0.43606 0.08851 0.99166 0.0
C1022 C 0.47093 0.06329 0.96687 0.0
O1023 O 0.47938 0.17233 0.90899 0.0
O1024 O 0.45524 0.20144 0.92833 0.0
N1025 N 0.41578 0.98724 0.92788 0.0
C1026 C 0.41527 0.95867 0.90681 0.0
C1027 C 0.39887 0.93787 0.89839 0.0
C1028 C 0.38315 0.94635 0.91174 0.0
C1029 C 0.38407 0.97546 0.93353 0.0
C1030 C 0.40087 0.99454 0.94116 0.0
H1031 H 0.42733 0.95158 0.89659 0.0
O1032 O 0.44365 0.12609 0.89362 0.0
O1033 O 0.43691 0.08627 0.92807 0.0
O1034 O 0.47047 0.04559 0.9078 0.0
O1035 O 0.45282 0.97682 0.9228 0.0
C1036 C 0.36896 0.98723 0.94776 0.0
C1037 C 0.3709 0.01859 0.96907 0.0
H1038 H 0.37979 0.08228 0.00827 0.0
H1039 H 0.4106 0.11477 0.01803 0.0
H1040 H 0.39847 0.91502 0.88174 0.0
H1041 H 0.37048 0.9305 0.90509 0.0
H1042 H 0.35577 0.97311 0.94232 0.0
H1043 H 0.35915 0.02812 0.97968 0.0
Mn1044 Mn 0.30109 0.59132 0.91686 0.0
Mn1045 Mn 0.32545 0.69329 0.94454 0.0
C1046 C 0.32988 0.61165 0.9031 0.0
C1047 C 0.29135 0.49846 0.91059 0.0
C1048 C 0.2981 0.71921 0.90718 0.0
O1049 O 0.28623 0.60521 0.94708 0.0
O1050 O 0.30295 0.67639 0.96185 0.0
C1051 C 0.33483 0.6207 0.98582 0.0
N1052 N 0.33997 0.6558 0.96775 0.0
C1053 C 0.37077 0.65183 0.98018 0.0
C1054 C 0.36583 0.61572 0.999 0.0
C1055 C 0.34779 0.59984 1.00175 0.0
C1056 C 0.35731 0.67041 0.96466 0.0
H1057 H 0.32094 0.60891 0.98806 0.0
C1058 C 0.28899 0.6451 0.96207 0.0
O1059 O 0.28233 0.54183 0.9028 0.0
O1060 O 0.30511 0.50892 0.92406 0.0
N1061 N 0.34745 0.71848 0.93083 0.0
C1062 C 0.34973 0.75621 0.91262 0.0
C1063 C 0.36677 0.7791 0.90829 0.0
C1064 C 0.38136 0.76276 0.92256 0.0
C1065 C 0.37861 0.725 0.94158 0.0
C1066 C 0.3612 0.70487 0.94547 0.0
H1067 H 0.33851 0.76997 0.90191 0.0
O1068 O 0.31819 0.58519 0.89025 0.0
O1069 O 0.32491 0.62294 0.92507 0.0
O1070 O 0.29271 0.66825 0.90414 0.0
O1071 O 0.31098 0.73356 0.92089 0.0
C1072 C 0.39237 0.7075 0.95715 0.0
C1073 C 0.38849 0.67044 0.97629 0.0
H1074 H 0.37576 0.59999 0.01145 0.0
H1075 H 0.34387 0.57197 0.01621 0.0
H1076 H 0.36851 0.81053 0.89443 0.0
H1077 H 0.39451 0.78049 0.91914 0.0
H1078 H 0.40599 0.72217 0.95452 0.0
H1079 H 0.39919 0.65698 0.98805 0.0
Mn1080 Mn 0.4575 0.59311 0.8345 0.0
Mn1081 Mn 0.43436 0.70714 0.8143 0.0
C1082 C 0.43036 0.61758 0.85256 0.0
C1083 C 0.4641 0.49608 0.83726 0.0
C1084 C 0.46513 0.71686 0.84798 0.0
O1085 O 0.47012 0.60853 0.80249 0.0
O1086 O 0.45509 0.68882 0.7937 0.0
C1087 C 0.42031 0.64945 0.77135 0.0
N1088 N 0.41741 0.68062 0.79142 0.0
C1089 C 0.3861 0.69082 0.78224 0.0
C1090 C 0.38873 0.65893 0.76141 0.0
C1091 C 0.40589 0.63789 0.75602 0.0
C1092 C 0.40092 0.70024 0.79696 0.0
H1093 H 0.43353 0.63382 0.76707 0.0
C1094 C 0.46776 0.65348 0.78993 0.0
O1095 O 0.47543 0.5345 0.84425 0.0
O1096 O 0.45004 0.51425 0.8259 0.0
N1097 N 0.41411 0.73382 0.83175 0.0
C1098 C 0.41392 0.76351 0.85256 0.0
C1099 C 0.39786 0.7883 0.86038 0.0
C1100 C 0.38222 0.78286 0.84662 0.0
C1101 C 0.38282 0.75277 0.82511 0.0
C1102 C 0.39925 0.72953 0.8181 0.0
H1103 H 0.426 0.76891 0.86291 0.0
O1104 O 0.44237 0.58729 0.86326 0.0
O1105 O 0.43415 0.63219 0.83053 0.0
O1106 O 0.46945 0.66437 0.84807 0.0
O1107 O 0.45137 0.73724 0.8375 0.0
C1108 C 0.36777 0.74507 0.8103 0.0
C1109 C 0.36937 0.71365 0.78897 0.0
H1110 H 0.37767 0.65028 0.74946 0.0
H1111 H 0.40803 0.61319 0.74 0.0
H1112 H 0.39768 0.8123 0.87677 0.0
H1113 H 0.36986 0.80234 0.85256 0.0
H1114 H 0.35487 0.76252 0.81528 0.0
H1115 H 0.35767 0.70736 0.77788 0.0
Mn1116 Mn 0.30723 0.1246 0.82781 0.0
Mn1117 Mn 0.33106 0.01878 0.80158 0.0
C1118 C 0.33686 0.10865 0.83944 0.0
C1119 C 0.29659 0.21708 0.8329 0.0
C1120 C 0.3041 -0.00136 0.84021 0.0
O1121 O 0.2917 0.10534 0.7986 0.0
O1122 O 0.30878 0.03474 0.78359 0.0
C1123 C 0.34148 0.08238 0.75821 0.0
N1124 N 0.34611 0.0504 0.77749 0.0
C1125 C 0.37705 0.04863 0.76552 0.0
C1126 C 0.37263 0.08144 0.74545 0.0
C1127 C 0.35478 0.09858 0.74184 0.0
C1128 C 0.36325 0.03407 0.78123 0.0
H1129 H 0.32773 0.09519 0.75538 0.0
C1130 C 0.29453 0.06498 0.78373 0.0
O1131 O 0.28839 0.17344 0.84182 0.0
O1132 O 0.3101 0.2069 0.81886 0.0
N1133 N 0.35272 0.99514 0.81666 0.0
C1134 C 0.35465 0.96441 0.83708 0.0
C1135 C 0.37158 0.9432 0.84325 0.0
C1136 C 0.38639 0.95387 0.82843 0.0
C1137 C 0.38399 0.98489 0.80728 0.0
C1138 C 0.36669 0.0038 0.80179 0.0
H1139 H 0.3433 0.9554 0.8484 0.0
O1140 O 0.32558 0.13513 0.853 0.0
O1141 O 0.33073 0.09312 0.81852 0.0
O1142 O 0.2995 0.05021 0.843 0.0
O1143 O 0.31623 0.98202 0.82585 0.0
C1144 C 0.39807 -0.00191 0.79147 0.0
C1145 C 0.39462 0.03022 0.77068 0.0
H1146 H 0.38284 0.09395 0.73276 0.0
H1147 H 0.35127 0.124 0.72643 0.0
H1148 H 0.37305 0.91785 0.85918 0.0
H1149 H 0.39947 0.93771 0.83338 0.0
H1150 H 0.41162 0.98422 0.79526 0.0
H1151 H 0.40558 0.04067 0.75881 0.0
H1152 H 0.07801 0.71288 0.12776 0.0
H1153 H 0.02032 0.71599 0.12936 0.0
H1154 H 0.01932 0.61475 0.11879 0.0
H1155 H 0.03507 0.52561 0.11027 0.0
H1156 H 0.09257 0.52437 0.10418 0.0
H1157 H 0.09368 0.62585 0.11488 0.0
C1158 C 0.06529 0.69125 0.12529 0.0
C1159 C 0.04927 0.72095 0.12858 0.0
C1160 C 0.06488 0.63405 0.11864 0.0
C1161 C 0.03275 0.69337 0.12609 0.0
C1162 C 0.03219 0.63582 0.12026 0.0
C1163 C 0.0478 0.54782 0.11155 0.0
C1164 C 0.0638 0.51828 0.10778 0.0
C1165 C 0.04819 0.60579 0.11672 0.0
C1166 C 0.08023 0.54692 0.10799 0.0
C1167 C 0.08083 0.60451 0.11395 0.0
H1168 H 0.23331 0.69841 0.11535 0.0
H1169 H 0.17575 0.70626 0.11901 0.0
H1170 H 0.17463 0.60713 0.13295 0.0
H1171 H 0.19033 0.51916 0.14438 0.0
H1172 H 0.24759 0.50812 0.13616 0.0
H1173 H 0.24878 0.60821 0.12365 0.0
C1174 C 0.22061 0.67832 0.11963 0.0
C1175 C 0.20468 0.70926 0.1175 0.0
C1176 C 0.2201 0.62113 0.12642 0.0
C1177 C 0.18814 0.68293 0.12157 0.0
C1178 C 0.18752 0.62655 0.12931 0.0
C1179 C 0.20296 0.53877 0.13939 0.0
C1180 C 0.21877 0.50697 0.14037 0.0
C1181 C 0.20342 0.59537 0.1318 0.0
C1182 C 0.23524 0.53213 0.13464 0.0
C1183 C 0.23592 0.58914 0.12776 0.0
H1184 H 0.97955 0.33372 0.82078 0.0
H1185 H 0.99266 0.23036 0.88207 0.0
H1186 H 0.99532 0.3155 0.90646 0.0
H1187 H 0.98478 0.41336 0.91246 0.0
H1188 H 0.96926 0.51554 0.85213 0.0
H1189 H 0.97666 0.43702 0.82512 0.0
C1190 C 0.98356 0.32999 0.83929 0.0
C1191 C 0.98495 0.27597 0.84996 0.0
C1192 C 0.98414 0.37881 0.85347 0.0
C1193 C 0.99094 0.27154 0.87363 0.0
C1194 C 0.9923 0.32019 0.88767 0.0
C1195 C 0.9837 0.41875 0.8933 0.0
C1196 C 0.97622 0.46869 0.88402 0.0
C1197 C 0.98747 0.37321 0.87817 0.0
C1198 C 0.97494 0.47667 0.85937 0.0
C1199 C 0.97905 0.43182 0.84404 0.0
H1200 H 0.79741 0.40976 0.82212 0.0
H1201 H 0.79442 0.52196 0.88288 0.0
H1202 H 0.78963 0.44068 0.90915 0.0
H1203 H 0.79372 0.33837 0.91539 0.0
H1204 H 0.79814 0.22604 0.85498 0.0
H1205 H 0.79442 0.30667 0.82783 0.0
C1206 C 0.7953 0.41631 0.84105 0.0
C1207 C 0.79689 0.471 0.85079 0.0
C1208 C 0.79294 0.36948 0.85605 0.0
C1209 C 0.79356 0.47979 0.87513 0.0
C1210 C 0.79089 0.43342 0.89016 0.0
C1211 C 0.79326 0.33164 0.89627 0.0
C1212 C 0.79665 0.27746 0.88696 0.0
C1213 C 0.79168 0.37809 0.88094 0.0
C1214 C 0.79568 0.268 0.86234 0.0
C1215 C 0.79375 0.31403 0.84686 0.0
H1216 H 0.03204 0.04968 0.61884 0.0
H1217 H 0.08923 0.02646 0.6174 0.0
H1218 H 0.09369 0.12698 0.62815 0.0
H1219 H 0.08083 0.21945 0.64016 0.0
H1220 H 0.02372 0.24461 0.63631 0.0
H1221 H 0.01944 0.14452 0.62555 0.0
C1222 C 0.04542 0.06692 0.62114 0.0
C1223 C 0.06032 0.0314 0.6188 0.0
C1224 C 0.04778 0.12448 0.6262 0.0
C1225 C 0.07768 0.05364 0.62021 0.0
C1226 C 0.08019 0.11071 0.62617 0.0
C1227 C 0.06755 0.20286 0.63644 0.0
C1228 C 0.05262 0.2384 0.63844 0.0
C1229 C 0.0653 0.1462 0.62957 0.0
C1230 C 0.03535 0.2174 0.63419 0.0
C1231 C 0.03291 0.16048 0.62823 0.0
H1232 H 0.23121 0.03968 0.63791 0.0
H1233 H 0.17365 0.02897 0.63643 0.0
H1234 H 0.17164 0.13064 0.6261 0.0
H1235 H 0.18677 0.22067 0.61558 0.0
H1236 H 0.24412 0.23311 0.62227 0.0
H1237 H 0.24598 0.13177 0.63242 0.0
C1238 C 0.21828 0.05988 0.63507 0.0
C1239 C 0.20261 0.0276 0.63652 0.0
C1240 C 0.21731 0.11802 0.63029 0.0
C1241 C 0.18582 0.05362 0.63434 0.0
C1242 C 0.1847 0.11136 0.62863 0.0
C1243 C 0.19955 0.20104 0.61978 0.0
C1244 C 0.21524 0.23339 0.61882 0.0
C1245 C 0.2004 0.14367 0.62625 0.0
C1246 C 0.2319 0.20842 0.62365 0.0
C1247 C 0.23295 0.15079 0.62924 0.0
H1248 H 0.97838 0.9129 0.42366 0.0
H1249 H 0.97365 0.02531 0.36325 0.0
H1250 H 0.98138 0.94706 0.33634 0.0
H1251 H 0.98092 0.84358 0.33033 0.0
H1252 H 0.98377 0.73071 0.39084 0.0
H1253 H 0.98615 0.81231 0.41763 0.0
C1254 C 0.97972 0.92035 0.40465 0.0
C1255 C 0.97509 0.97349 0.3951 0.0
C1256 C 0.9837 0.87509 0.38945 0.0
C1257 C 0.97707 0.98406 0.37069 0.0
C1258 C 0.98135 0.93938 0.35538 0.0
C1259 C 0.98284 0.83715 0.34932 0.0
C1260 C 0.98168 0.78209 0.35888 0.0
C1261 C 0.98344 0.88409 0.36452 0.0
C1262 C 0.98449 0.77319 0.38329 0.0
C1263 C 0.98561 0.81977 0.39859 0.0
H1264 H 0.79394 0.83822 0.42857 0.0
H1265 H 0.79684 0.72683 0.36774 0.0
H1266 H 0.78805 0.80533 0.34146 0.0
H1267 H 0.78811 0.90888 0.33561 0.0
H1268 H 0.78717 0.02078 0.39641 0.0
H1269 H 0.78579 0.93874 0.42318 0.0
C1270 C 0.79199 0.83104 0.40964 0.0
C1271 C 0.7964 0.77817 0.39973 0.0
C1272 C 0.7874 0.87644 0.39478 0.0
C1273 C 0.79362 0.76791 0.37545 0.0
C1274 C 0.78872 0.81273 0.36049 0.0
C1275 C 0.78682 0.91499 0.3547 0.0
C1276 C 0.78825 0.9699 0.36428 0.0
C1277 C 0.78682 0.86781 0.36985 0.0
C1278 C 0.78624 0.97841 0.38884 0.0
C1279 C 0.7857 0.93158 0.40411 0.0
H1280 H 0.5322 0.69358 0.64283 0.0
H1281 H 0.58984 0.69357 0.64531 0.0
H1282 H 0.59042 0.59341 0.63245 0.0
H1283 H 0.57409 0.50796 0.61884 0.0
H1284 H 0.5165 0.50408 0.6236 0.0
H1285 H 0.51606 0.60479 0.63509 0.0
C1286 C 0.54484 0.67139 0.64035 0.0
C1287 C 0.56099 0.7004 0.64359 0.0
C1288 C 0.54495 0.61385 0.63436 0.0
C1289 C 0.57735 0.6716 0.64185 0.0
C1290 C 0.57764 0.61473 0.63468 0.0
C1291 C 0.56155 0.52925 0.62292 0.0
C1292 C 0.54539 0.49954 0.62103 0.0
C1293 C 0.5615 0.58579 0.63058 0.0
C1294 C 0.52906 0.5267 0.62568 0.0
C1295 C 0.52881 0.58395 0.63206 0.0
H1296 H 0.68707 0.71111 0.61526 0.0
H1297 H 0.74447 0.71779 0.6226 0.0
H1298 H 0.74532 0.61584 0.63194 0.0
H1299 H 0.72954 0.52624 0.63901 0.0
H1300 H 0.67188 0.52333 0.63977 0.0
H1301 H 0.671 0.62313 0.62641 0.0
C1302 C 0.69965 0.68997 0.61926 0.0
C1303 C 0.71562 0.72095 0.61895 0.0
C1304 C 0.6999 0.63253 0.62575 0.0
C1305 C 0.73203 0.69411 0.62352 0.0
C1306 C 0.73251 0.63615 0.62865 0.0
C1307 C 0.71684 0.54758 0.63585 0.0
C1308 C 0.70079 0.51797 0.63901 0.0
C1309 C 0.71652 0.60516 0.62989 0.0
C1310 C 0.68432 0.54574 0.63639 0.0
C1311 C 0.68385 0.60244 0.62896 0.0
H1312 H 0.47536 0.50109 0.37605 0.0
H1313 H 0.47391 0.42074 0.44517 0.0
H1314 H 0.47731 0.32714 0.4268 0.0
H1315 H 0.47404 0.26822 0.39088 0.0
H1316 H 0.47254 0.34941 0.322 0.0
H1317 H 0.47734 0.44241 0.34031 0.0
C1318 C 0.47641 0.46324 0.3871 0.0
C1319 C 0.47399 0.46738 0.41176 0.0
C1320 C 0.47756 0.40956 0.37639 0.0
C1321 C 0.47539 0.41818 0.426 0.0
C1322 C 0.47728 0.36469 0.41553 0.0
C1323 C 0.47538 0.30619 0.37996 0.0
C1324 C 0.47269 0.30274 0.35535 0.0
C1325 C 0.47734 0.35972 0.39069 0.0
C1326 C 0.47433 0.35178 0.34114 0.0
C1327 C 0.47703 0.40482 0.35156 0.0
H1328 H 0.29385 0.40482 0.33184 0.0
H1329 H 0.287 0.50862 0.39443 0.0
H1330 H 0.27846 0.42445 0.41758 0.0
H1331 H 0.28292 0.32156 0.42187 0.0
H1332 H 0.29307 0.21825 0.36002 0.0
H1333 H 0.28946 0.30148 0.33423 0.0
C1334 C 0.28983 0.40891 0.35035 0.0
C1335 C 0.29158 0.4615 0.36189 0.0
C1336 C 0.28562 0.36035 0.36354 0.0
C1337 C 0.28597 0.46779 0.38553 0.0
C1338 C 0.2812 0.41976 0.39872 0.0
C1339 C 0.28333 0.31712 0.40263 0.0
C1340 C 0.28866 0.26517 0.39262 0.0
C1341 C 0.2824 0.36558 0.38828 0.0
C1342 C 0.28906 0.25848 0.36786 0.0
C1343 C 0.28731 0.30618 0.35322 0.0
H1344 H 0.53603 0.22111 0.14327 0.0
H1345 H 0.59358 0.21662 0.14831 0.0
H1346 H 0.59367 0.11588 0.13637 0.0
H1347 H 0.57704 0.03018 0.12425 0.0
H1348 H 0.51934 0.03268 0.12376 0.0
H1349 H 0.5194 0.13436 0.13377 0.0
C1350 C 0.54855 0.1979 0.14143 0.0
C1351 C 0.56483 0.22554 0.14549 0.0
C1352 C 0.54836 0.14036 0.13551 0.0
C1353 C 0.58101 0.19554 0.14441 0.0
C1354 C 0.58103 0.1384 0.1377 0.0
C1355 C 0.56456 0.05322 0.12673 0.0
C1356 C 0.54823 0.02486 0.12422 0.0
C1357 C 0.56476 0.11057 0.13316 0.0
C1358 C 0.532 0.05425 0.12657 0.0
C1359 C 0.53205 0.11202 0.13209 0.0
H1360 H 0.73347 0.05271 0.14082 0.0
H1361 H 0.67585 0.0489 0.13779 0.0
H1362 H 0.67531 0.14802 0.12374 0.0
H1363 H 0.69156 0.23435 0.11155 0.0
H1364 H 0.74892 0.24158 0.11916 0.0
H1365 H 0.74949 0.14181 0.13225 0.0
C1366 C 0.72088 0.07371 0.13671 0.0
C1367 C 0.70476 0.04385 0.13898 0.0
C1368 C 0.72071 0.13087 0.12982 0.0
C1369 C 0.68837 0.07136 0.13512 0.0
C1370 C 0.68808 0.12774 0.12732 0.0
C1371 C 0.70408 0.21404 0.11656 0.0
C1372 C 0.7201 0.24465 0.1152 0.0
C1373 C 0.70419 0.15769 0.12451 0.0
C1374 C 0.73642 0.21853 0.12097 0.0
C1375 C 0.73674 0.1617 0.12818 0.0
H1376 H 0.47835 0.81644 0.83323 0.0
H1377 H 0.4743 0.70628 0.89443 0.0
H1378 H 0.47955 0.78728 0.92091 0.0
H1379 H 0.47588 0.8904 0.92584 0.0
H1380 H 0.47727 0.00077 0.86442 0.0
H1381 H 0.48303 0.91894 0.83861 0.0
C1382 C 0.47944 0.81015 0.85235 0.0
C1383 C 0.47554 0.7567 0.86218 0.0
C1384 C 0.48161 0.85708 0.86728 0.0
C1385 C 0.47717 0.74767 0.88674 0.0
C1386 C 0.47994 0.79399 0.90181 0.0
C1387 C 0.47809 0.89644 0.90689 0.0
C1388 C 0.4756 0.95042 0.8967 0.0
C1389 C 0.48072 0.84921 0.89224 0.0
C1390 C 0.47891 0.959 0.87239 0.0
C1391 C 0.48206 0.91228 0.85768 0.0
H1392 H 0.29028 0.82582 0.92049 0.0
H1393 H 0.28967 0.7117 0.86037 0.0
H1394 H 0.28765 0.7927 0.8331 0.0
H1395 H 0.29375 0.89425 0.82686 0.0
H1396 H 0.29583 0.0081 0.88702 0.0
H1397 H 0.28927 0.92897 0.91403 0.0
C1398 C 0.28908 0.81897 0.90143 0.0
C1399 C 0.2906 0.76382 0.89218 0.0
C1400 C 0.28854 0.8655 0.88601 0.0
C1401 C 0.28866 0.75432 0.86767 0.0
C1402 C 0.28771 0.80051 0.85213 0.0
C1403 C 0.2923 0.90164 0.84585 0.0
C1404 C 0.29576 0.95572 0.85527 0.0
C1405 C 0.28887 0.85608 0.86112 0.0
C1406 C 0.29342 0.96613 0.87965 0.0
C1407 C 0.28976 0.92103 0.89502 0.0
H1408 H 0.9909 0.45816 0.96013 0.0
H1409 H 0.9863 0.61535 0.99931 0.0
H1410 H 0.00456 0.57471 0.03148 0.0
H1411 H 0.02063 0.49354 0.04914 0.0
H1412 H 0.02677 0.3375 0.00944 0.0
H1413 H 0.00934 0.37897 0.97645 0.0
C1414 C 0.99426 0.4839 0.97553 0.0
C1415 C 0.98735 0.53988 0.97735 0.0
C1416 C 0.00496 0.46041 0.99378 0.0
C1417 C 0.99168 0.57272 0.99736 0.0
C1418 C 1.00203 0.54929 0.01578 0.0
C1419 C 0.01816 0.46841 0.03326 0.0
C1420 C 0.02471 0.41191 0.03193 0.0
C1421 C 0.00851 0.493 0.01433 0.0
C1422 C 0.02178 0.3807 0.01099 0.0
C1423 C 0.01182 0.4045 0.99218 0.0
H1424 H 0.26852 0.73905 0.95816 0.0
H1425 H 0.27864 0.59472 0.00375 0.0
H1426 H 0.25992 0.63756 0.03492 0.0
H1427 H 0.24286 0.71916 0.0502 0.0
H1428 H 0.23209 0.86367 0.00485 0.0
H1429 H 0.24871 0.81739 0.97227 0.0
C1430 C 0.26615 0.71634 0.97471 0.0
C1431 C 0.27468 0.66336 0.97862 0.0
C1432 C 0.25547 0.74157 0.99254 0.0
C1433 C 0.2719 0.63477 1.00021 0.0
C1434 C 0.26134 0.65958 0.01806 0.0
C1435 C 0.24406 0.74059 0.03313 0.0
C1436 C 0.23652 0.79539 0.03006 0.0
C1437 C 0.25343 0.71347 0.0146 0.0
C1438 C 0.23784 0.82182 0.00771 0.0
C1439 C 0.24737 0.79531 0.98914 0.0
H1440 H 0.01468 0.7403 0.19585 0.0
H1441 H 0.03007 0.88063 0.24096 0.0
H1442 H 0.01659 0.83186 0.27542 0.0
H1443 H 0.99825 0.75263 0.29176 0.0
H1444 H 0.98343 0.61226 0.24651 0.0
H1445 H 0.9992 0.65711 0.21297 0.0
C1446 C 0.01509 0.76039 0.21323 0.0
C1447 C 0.02301 0.81485 0.21574 0.0
C1448 C 0.00763 0.7316 0.23289 0.0
C1449 C 0.02389 0.83929 0.23849 0.0
C1450 C 0.01621 0.81127 0.25816 0.0
C1451 C 0.999 0.73108 0.2747 0.0
C1452 C 0.99001 0.67857 0.27166 0.0
C1453 C 0.00783 0.75779 0.25548 0.0
C1454 C 0.99063 0.65173 0.2494 0.0
C1455 C 0.99944 0.67787 0.23019 0.0
H1456 H 0.25692 0.49252 0.2051 0.0
H1457 H 0.24518 0.35259 0.25249 0.0
H1458 H 0.26122 0.40166 0.28478 0.0
H1459 H 0.28016 0.48179 0.29854 0.0
H1460 H 0.29083 0.62304 0.25152 0.0
H1461 H 0.27327 0.57657 0.21998 0.0
C1462 C 0.25788 0.47263 0.22251 0.0
C1463 C 0.25022 0.41826 0.2263 0.0
C1464 C 0.26675 0.50169 0.24099 0.0
C1465 C 0.25112 0.39393 0.24909 0.0
C1466 C 0.26027 0.42208 0.2675 0.0
C1467 C 0.27829 0.50286 0.2815 0.0
C1468 C 0.28662 0.55596 0.27731 0.0
C1469 C 0.26829 0.47563 0.26355 0.0
C1470 C 0.28431 0.58274 0.2552 0.0
C1471 C 0.27444 0.5558 0.23716 0.0
H1472 H 0.77495 0.25099 0.9544 0.0
H1473 H 0.79649 0.13437 0.00633 0.0
H1474 H 0.78037 0.18456 0.0381 0.0
H1475 H 0.76237 0.26594 0.05133 0.0
H1476 H 0.74058 0.38383 0.9999 0.0
H1477 H 0.75479 0.32937 0.96758 0.0
C1478 C 0.77558 0.23558 0.97261 0.0
C1479 C 0.78644 0.18799 0.97803 0.0
C1480 C 0.76671 0.26593 0.99083 0.0
C1481 C 0.78779 0.16969 1.00173 0.0
C1482 C 0.7788 0.19898 0.01988 0.0
C1483 C 0.76077 0.28015 0.03305 0.0
C1484 C 0.75074 0.32988 0.02809 0.0
C1485 C 0.76864 0.24801 0.01469 0.0
C1486 C 0.74842 0.34638 0.00425 0.0
C1487 C 0.75648 0.31501 0.98579 0.0
H1488 H 1.00301 0.21907 0.79351 0.0
H1489 H 0.97283 0.13199 0.73919 0.0
H1490 H 0.98702 0.19062 0.70847 0.0
H1491 H 0.00623 0.2703 0.69729 0.0
H1492 H 0.03638 0.36048 0.75087 0.0
H1493 H 0.02367 0.29793 0.78176 0.0
C1494 C 1.00005 0.21172 0.77485 0.0
C1495 C 0.98725 0.16997 0.76854 0.0
C1496 C 0.00778 0.24744 0.7573 0.0
C1497 C 0.98295 0.16265 0.74441 0.0
C1498 C 0.99087 0.1968 0.7269 0.0
C1499 C 0.00998 0.27696 0.71574 0.0
C1500 C 0.02205 0.32111 0.72172 0.0
C1501 C 1.00294 0.24019 0.73319 0.0
C1502 C 0.02693 0.3277 0.74573 0.0
C1503 C 0.01977 0.2915 0.76336 0.0
H1504 H 0.75505 0.49013 0.69378 0.0
H1505 H 0.72912 0.39034 0.74841 0.0
H1506 H 0.74476 0.44607 0.77913 0.0
H1507 H 0.76712 0.52064 0.79018 0.0
H1508 H 0.79316 0.61685 0.73471 0.0
H1509 H 0.77585 0.5658 0.70452 0.0
C1510 C 0.7528 0.48001 0.71239 0.0
C1511 C 0.74107 0.43517 0.71869 0.0
C1512 C 0.76161 0.51263 0.7298 0.0
C1513 C 0.73822 0.42387 0.74298 0.0
C1514 C 0.74707 0.45611 0.76054 0.0
C1515 C 0.76842 0.53186 0.77151 0.0
C1516 C 0.78095 0.57398 0.76467 0.0
C1517 C 0.75883 0.50063 0.75416 0.0
C1518 C 0.7832 0.58613 0.7404 0.0
C1519 C 0.7735 0.55627 0.72315 0.0
H1520 H 0.98396 0.96938 0.47102 0.0
H1521 H 0.9852 0.13461 0.50452 0.0
H1522 H 0.0043 0.09591 0.53638 0.0
H1523 H 0.01871 0.01352 0.556 0.0
H1524 H 0.01886 0.84939 0.52151 0.0
H1525 H 1.00113 0.88927 0.48849 0.0
C1526 C 0.98858 0.99711 0.4852 0.0
C1527 C 0.98303 0.0548 0.48557 0.0
C1528 C 0.99964 0.97458 0.50325 0.0
C1529 C 0.9893 0.09034 0.5038 0.0
C1530 C 1.00011 0.06803 0.52206 0.0
C1531 C 0.01493 0.98644 0.54118 0.0
C1532 C 0.01984 0.92815 0.54137 0.0
C1533 C 0.00504 0.00999 0.52219 0.0
C1534 C 0.0152 0.89408 0.52183 0.0
C1535 C 0.00503 0.91694 0.50303 0.0
H1536 H 0.27942 0.26657 0.46376 0.0
H1537 H 0.29054 0.12413 0.50997 0.0
H1538 H 0.27291 0.16923 0.5418 0.0
H1539 H 0.256 0.25197 0.55702 0.0
H1540 H 0.24383 0.39294 0.51033 0.0
H1541 H 0.26022 0.3456 0.4779 0.0
C1542 C 0.27764 0.24493 0.48069 0.0
C1543 C 0.28615 0.19192 0.48456 0.0
C1544 C 0.26754 0.27126 0.49877 0.0
C1545 C 0.2839 0.16437 0.50651 0.0
C1546 C 0.27396 0.1905 0.52472 0.0
C1547 C 0.25697 0.27254 0.53975 0.0
C1548 C 0.24904 0.32669 0.53621 0.0
C1549 C 0.26604 0.24444 0.52118 0.0
C1550 C 0.24997 0.3518 0.51357 0.0
C1551 C 0.25931 0.32462 0.49507 0.0
H1552 H 0.23884 0.00799 0.70257 0.0
H1553 H 0.24515 0.83896 0.73159 0.0
H1554 H 0.26475 0.87722 0.76299 0.0
H1555 H 0.28205 0.95783 0.77981 0.0
H1556 H 0.27451 0.12738 0.75182 0.0
H1557 H 0.25319 0.08991 0.72235 0.0
C1558 C 0.24432 0.9796 0.716 0.0
C1559 C 0.24071 0.92057 0.71471 0.0
C1560 C 0.2554 0.00205 0.73396 0.0
C1561 C 0.24769 0.88439 0.7323 0.0
C1562 C 0.25898 0.90631 0.7501 0.0
C1563 C 0.27558 0.98665 0.76735 0.0
C1564 C 0.27999 0.04525 0.76771 0.0
C1565 C 0.26324 0.96485 0.75073 0.0
C1566 C 0.27136 0.0823 0.75184 0.0
C1567 C 0.25925 0.06079 0.73496 0.0
H1568 H 0.7881 0.77983 0.47229 0.0
H1569 H 0.78941 0.62051 0.51059 0.0
H1570 H 0.77027 0.66188 0.54181 0.0
H1571 H 0.75496 0.74546 0.55922 0.0
H1572 H 0.75211 0.90301 0.51975 0.0
H1573 H 0.77018 0.86033 0.48774 0.0
C1574 C 0.78403 0.754 0.4874 0.0
C1575 C 0.79026 0.69728 0.48932 0.0
C1576 C 0.77297 0.77804 0.50503 0.0
C1577 C 0.78474 0.66402 0.50873 0.0
C1578 C 0.77392 0.6879 0.5266 0.0
C1579 C 0.7583 0.7705 0.54358 0.0
C1580 C 0.75254 0.82783 0.54201 0.0
C1581 C 0.76828 0.74518 0.52514 0.0
C1582 C 0.75652 0.85918 0.52142 0.0
C1583 C 0.76684 0.83471 0.50319 0.0
H1584 H 0.74366 0.02962 0.20653 0.0
H1585 H 0.73254 0.88154 0.24966 0.0
H1586 H 0.74969 0.92368 0.28267 0.0
H1587 H 0.76991 -0.0006 0.29779 0.0
H1588 H 0.78021 0.14814 0.25483 0.0
H1589 H 0.7611 0.10935 0.22311 0.0
C1590 C 0.74491 0.00655 0.22321 0.0
C1591 C 0.7371 0.9519 0.22552 0.0
C1592 C 0.75455 0.03143 0.24206 0.0
C1593 C 0.73849 0.9233 0.24739 0.0
C1594 C 0.74832 0.94744 0.2662 0.0
C1595 C 0.76757 0.02387 0.28167 0.0
C1596 C 0.77628 0.07685 0.27865 0.0
C1597 C 0.75665 0.00102 0.26357 0.0
C1598 C 0.7734 0.10792 0.25767 0.0
C1599 C 0.76263 0.08539 0.2395 0.0
H1600 H 0.46362 0.50609 0.49874 0.0
H1601 H 0.51002 0.60336 0.47765 0.0
H1602 H 0.52939 0.5373 0.49981 0.0
H1603 H 0.53291 0.45345 0.5268 0.0
H1604 H 0.48607 0.35865 0.54776 0.0
H1605 H 0.46718 0.42088 0.52341 0.0
C1606 C 0.47796 0.51346 0.49914 0.0
C1607 C 0.48526 0.56071 0.48691 0.0
C1608 C 0.489 0.4746 0.51141 0.0
C1609 C 0.50396 0.56811 0.48716 0.0
C1610 C 0.51506 0.52998 0.49969 0.0
C1611 C 0.51865 0.44527 0.52526 0.0
C1612 C 0.51094 0.40026 0.53847 0.0
C1613 C 0.50774 0.48294 0.5119 0.0
C1614 C 0.49236 0.39182 0.53722 0.0
C1615 C 0.48153 0.42802 0.5236 0.0
H1616 H 0.51365 0.72288 0.70015 0.0
H1617 H 0.52381 0.87085 0.74363 0.0
H1618 H 0.50634 0.82799 0.77618 0.0
H1619 H 0.487 0.75013 0.79138 0.0
H1620 H 0.47805 0.60076 0.74841 0.0
H1621 H 0.49637 0.64256 0.7164 0.0
C1622 C 0.51201 0.74603 0.71672 0.0
C1623 C 0.51975 0.80073 0.71928 0.0
C1624 C 0.50232 0.72052 0.73543 0.0
C1625 C 0.51787 0.82919 0.7411 0.0
C1626 C 0.50791 0.80455 0.75969 0.0
C1627 C 0.48939 0.72625 0.77515 0.0
C1628 C 0.48131 0.6722 0.77226 0.0
C1629 C 0.49997 0.75045 0.75697 0.0
C1630 C 0.48436 0.64181 0.75118 0.0
C1631 C 0.4947 0.66593 0.73286 0.0
H1632 H 0.483 0.28158 0.28455 0.0
H1633 H 0.50337 0.11418 0.26811 0.0
H1634 H 0.52541 0.15698 0.24085 0.0
H1635 H 0.5365 0.24173 0.21846 0.0
H1636 H 0.51712 0.40897 0.23697 0.0
H1637 H 0.49683 0.36655 0.26656 0.0
C1638 C 0.49222 0.25432 0.27489 0.0
C1639 C 0.49123 0.19452 0.27783 0.0
C1640 C 0.50485 0.2793 0.25949 0.0
C1641 C 0.50366 0.16004 0.26587 0.0
C1642 C 0.51616 0.18459 0.25018 0.0
C1643 C 0.52811 0.26889 0.22942 0.0
C1644 C 0.52831 0.3285 0.2257 0.0
C1645 C 0.51659 0.24406 0.24644 0.0
C1646 C 0.51734 0.36327 0.23978 0.0
C1647 C 0.50564 0.33888 0.25648 0.0
H1648 H 0.48774 0.96208 0.96788 0.0
H1649 H 0.4841 0.12163 0.00552 0.0
H1650 H 0.50235 0.0819 0.03802 0.0
H1651 H 0.51691 -0.00094 0.05706 0.0
H1652 H 0.52159 0.8403 0.01898 0.0
H1653 H 0.50541 0.88239 0.98502 0.0
C1654 C 0.49127 0.98845 0.98303 0.0
C1655 C 0.48462 0.0448 0.98438 0.0
C1656 C 0.50173 0.96515 1.00154 0.0
C1657 C 0.48921 0.07856 0.00401 0.0
C1658 C 0.4995 0.05557 0.02263 0.0
C1659 C 0.5145 0.97374 0.04122 0.0
C1660 C 0.52017 0.91624 0.04062 0.0
C1661 C 0.50544 -0.00146 0.02181 0.0
C1662 C 0.51731 0.88437 0.01988 0.0
C1663 C 0.50801 0.90848 1.00055 0.0
H1664 H 0.16981 0.31365 0.10405 0.0
H1665 H 0.16683 0.32201 0.18083 0.0
H1666 H 0.13419 0.31524 0.1787 0.0
H1667 H 0.10665 0.3184 0.15506 0.0
H1668 H 0.10955 0.31609 0.07823 0.0
H1669 H 0.14218 0.30782 0.0805 0.0
C1670 C 0.16212 0.31329 0.12044 0.0
C1671 C 0.17091 0.31911 0.14263 0.0
C1672 C 0.14332 0.31068 0.11905 0.0
C1673 C 0.16056 0.31788 0.16353 0.0
C1674 C 0.14185 0.31422 0.1623 0.0
C1675 C 0.11432 0.31527 0.13871 0.0
C1676 C 0.10552 0.31863 0.11643 0.0
C1677 C 0.13309 0.31233 0.14015 0.0
C1678 C 0.11582 0.3137 0.09559 0.0
C1679 C 0.13454 0.30944 0.09689 0.0
H1680 H 0.1029 0.91417 0.15636 0.0
H1681 H 0.09237 0.90998 0.08072 0.0
H1682 H 0.12421 0.91301 0.07237 0.0
H1683 H 0.15539 0.90511 0.08633 0.0
H1684 H 0.16596 0.91337 0.16189 0.0
H1685 H 0.13416 0.92131 0.17008 0.0
C1686 C 0.10752 0.91504 0.13805 0.0
C1687 C 0.09506 0.91058 0.11936 0.0
C1688 C 0.12607 0.91695 0.13315 0.0
C1689 C 0.10148 0.9124 0.09569 0.0
C1690 C 0.11981 0.91407 0.09076 0.0
C1691 C 0.1508 0.90985 0.10455 0.0
C1692 C 0.16323 0.90734 0.12335 0.0
C1693 C 0.13229 0.91452 0.10934 0.0
C1694 C 0.15685 0.91412 0.14688 0.0
C1695 C 0.13855 0.9186 0.15171 0.0
H1696 H 0.84895 0.60661 0.88269 0.0
H1697 H 0.8681 0.64592 0.81236 0.0
H1698 H 0.89915 0.63378 0.8258 0.0
H1699 H 0.92082 0.61467 0.85824 0.0
H1700 H 0.9015 0.61061 0.93035 0.0
H1701 H 0.87055 0.60576 0.91602 0.0
C1702 C 0.85994 0.61165 0.87022 0.0
C1703 C 0.85623 0.62159 0.84592 0.0
C1704 C 0.8777 0.61038 0.87867 0.0
C1705 C 0.87059 0.63253 0.83049 0.0
C1706 C 0.88834 0.62704 0.83838 0.0
C1707 C 0.90983 0.61188 0.87082 0.0
C1708 C 0.9135 0.60705 0.89541 0.0
C1709 C 0.89205 0.61551 0.86245 0.0
C1710 C 0.89908 0.60812 0.91141 0.0
C1711 C 0.88137 0.60702 0.90317 0.0
H1712 H 0.90605 0.12483 0.83262 0.0
H1713 H 0.93355 0.1403 0.89954 0.0
H1714 H 0.90502 0.13706 0.92061 0.0
H1715 H 0.87193 0.12567 0.91985 0.0
H1716 H 0.84452 0.13938 0.85266 0.0
H1717 H 0.87305 0.13704 0.83165 0.0
C1718 C 0.90583 0.13308 0.8515 0.0
C1719 C 0.92204 0.13619 0.86409 0.0
C1720 C 0.88926 0.13621 0.86356 0.0
C1721 C 0.92132 0.13927 0.88916 0.0
C1722 C 0.90497 0.13752 0.90133 0.0
C1723 C 0.87221 0.13243 0.90079 0.0
C1724 C 0.85601 0.13542 0.88811 0.0
C1725 C 0.88879 0.13601 0.88873 0.0
C1726 C 0.85674 0.13838 0.86306 0.0
C1727 C 0.87309 0.1373 0.85093 0.0
H1728 H 0.15794 0.82031 0.66068 0.0
H1729 H 0.16581 0.82122 0.58448 0.0
H1730 H 0.13371 0.81486 0.57816 0.0
H1731 H 0.10313 0.82547 0.59409 0.0
H1732 H 0.09529 0.82133 0.67027 0.0
H1733 H 0.12731 0.81145 0.67648 0.0
C1734 C 0.1527 0.8175 0.6427 0.0
C1735 C 0.16439 0.82288 0.6232 0.0
C1736 C 0.13404 0.8141 0.63903 0.0
C1737 C 0.15722 0.81848 0.59999 0.0
C1738 C 0.13876 0.81495 0.59625 0.0
C1739 C 0.10835 0.82078 0.61201 0.0
C1740 C 0.09673 0.82579 0.6316 0.0
C1741 C 0.12698 0.81533 0.61562 0.0
C1742 C 0.10386 0.819 0.65473 0.0
C1743 C 0.12226 0.81341 0.6584 0.0
H1744 H 0.10403 0.42973 0.60233 0.0
H1745 H 0.10506 0.42701 0.67927 0.0
H1746 H 0.13776 0.43203 0.6785 0.0
H1747 H 0.16594 0.42687 0.65614 0.0
H1748 H 0.16492 0.42475 0.57921 0.0
H1749 H 0.13226 0.43256 0.57996 0.0
C1750 C 0.11131 0.43099 0.61903 0.0
C1751 C 0.10192 0.42741 0.64089 0.0
C1752 C 0.13016 0.43256 0.61846 0.0
C1753 C 0.11178 0.42956 0.6622 0.0
C1754 C 0.13053 0.43214 0.66176 0.0
C1755 C 0.15868 0.42882 0.63943 0.0
C1756 C 0.16804 0.42461 0.61759 0.0
C1757 C 0.13986 0.43206 0.64 0.0
C1758 C 0.15822 0.42775 0.59627 0.0
C1759 C 0.13949 0.43194 0.5967 0.0
H1760 H 0.86401 0.12071 0.33783 0.0
H1761 H 0.83563 0.09606 0.4038 0.0
H1762 H 0.86376 0.09813 0.42565 0.0
H1763 H 0.89673 0.11127 0.42611 0.0
H1764 H 0.92537 0.10665 0.35961 0.0
H1765 H 0.89718 0.11054 0.33777 0.0
C1766 C 0.86399 0.1111 0.35667 0.0
C1767 C 0.84759 0.10555 0.36877 0.0
C1768 C 0.88041 0.10718 0.36915 0.0
C1769 C 0.84799 0.09921 0.39376 0.0
C1770 C 0.86412 0.10023 0.40639 0.0
C1771 C 0.89683 0.10678 0.40695 0.0
C1772 C 0.91328 0.10591 0.39476 0.0
C1773 C 0.88047 0.10417 0.39431 0.0
C1774 C 0.91297 0.10598 0.36964 0.0
C1775 C 0.89681 0.10808 0.35703 0.0
H1776 H 0.90536 0.63071 0.33672 0.0
H1777 H 0.93586 0.65476 0.40097 0.0
H1778 H 0.90843 0.65304 0.42444 0.0
H1779 H 0.87548 0.63999 0.42674 0.0
H1780 H 0.8448 0.64524 0.36188 0.0
H1781 H 0.87227 0.64107 0.33851 0.0
C1782 C 0.90598 0.64018 0.35554 0.0
C1783 C 0.92274 0.6456 0.3667 0.0
C1784 C 0.88999 0.64423 0.36893 0.0
C1785 C 0.92318 0.65177 0.39167 0.0
C1786 C 0.90746 0.65094 0.40522 0.0
C1787 C 0.87478 0.64468 0.4076 0.0
C1788 C 0.85798 0.64569 0.39632 0.0
C1789 C 0.89073 0.64722 0.39407 0.0
C1790 C 0.8575 0.64579 0.37121 0.0
C1791 C 0.87324 0.64353 0.35772 0.0
H1792 H 0.59589 0.31247 0.6577 0.0
H1793 H 0.59628 0.31127 0.58073 0.0
H1794 H 0.62895 0.30485 0.58105 0.0
H1795 H 0.65725 0.31096 0.6029 0.0
H1796 H 0.65691 0.31847 0.67978 0.0
H1797 H 0.62427 0.30979 0.67966 0.0
C1798 C 0.60302 0.3101 0.6409 0.0
C1799 C 0.59349 0.31314 0.61916 0.0
C1800 C 0.62184 0.30774 0.6412 0.0
C1801 C 0.60313 0.30936 0.59772 0.0
C1802 C 0.62186 0.30587 0.59789 0.0
C1803 C 0.65015 0.30989 0.61974 0.0
C1804 C 0.65966 0.31618 0.64136 0.0
C1805 C 0.63135 0.30675 0.61951 0.0
C1806 C 0.65007 0.31391 0.66288 0.0
C1807 C 0.63135 0.30936 0.66281 0.0
H1808 H 0.60534 0.90775 0.60245 0.0
H1809 H 0.60452 0.90537 0.67938 0.0
H1810 H 0.63704 0.91728 0.68004 0.0
H1811 H 0.66579 0.9152 0.65891 0.0
H1812 H 0.66667 0.91202 0.58198 0.0
H1813 H 0.63395 0.91618 0.5813 0.0
C1814 C 0.61217 0.91069 0.61945 0.0
C1815 C 0.60238 0.90477 0.64088 0.0
C1816 C 0.63092 0.91599 0.61969 0.0
C1817 C 0.61158 0.90955 0.66262 0.0
C1818 C 0.63024 0.91599 0.663 0.0
C1819 C 0.65891 0.91626 0.6419 0.0
C1820 C 0.66881 0.91244 0.62048 0.0
C1821 C 0.64008 0.9172 0.64165 0.0
C1822 C 0.65952 0.91469 0.59873 0.0
C1823 C 0.64077 0.91671 0.59834 0.0
H1824 H 0.40055 0.63732 0.42981 0.0
H1825 H 0.42979 0.61367 0.36455 0.0
H1826 H 0.40187 0.61106 0.34231 0.0
H1827 H 0.36879 0.61767 0.3414 0.0
H1828 H 0.33974 0.60957 0.40749 0.0
H1829 H 0.36756 0.62194 0.42958 0.0
C1830 C 0.40086 0.62637 0.41117 0.0
C1831 C 0.41738 0.62248 0.39935 0.0
C1832 C 0.38464 0.61917 0.39853 0.0
C1833 C 0.41732 0.61543 0.3744 0.0
C1834 C 0.40132 0.61359 0.36155 0.0
C1835 C 0.36862 0.61356 0.36057 0.0
C1836 C 0.35217 0.60921 0.37252 0.0
C1837 C 0.38486 0.6149 0.37341 0.0
C1838 C 0.35221 0.61107 0.39763 0.0
C1839 C 0.36816 0.61785 0.4104 0.0
H1840 H 0.40252 0.11785 0.33423 0.0
H1841 H 0.43041 0.16622 0.39819 0.0
H1842 H 0.40246 0.1636 0.42042 0.0
H1843 H 0.36989 0.14398 0.42193 0.0
H1844 H 0.34098 0.1264 0.35607 0.0
H1845 H 0.36914 0.12111 0.33419 0.0
C1846 C 0.40234 0.13251 0.35248 0.0
C1847 C 0.41859 0.14503 0.36401 0.0
C1848 C 0.3859 0.13636 0.36492 0.0
C1849 C 0.41812 0.15778 0.38854 0.0
C1850 C 0.4021 0.15651 0.40138 0.0
C1851 C 0.36963 0.14371 0.40269 0.0
C1852 C 0.35316 0.13875 0.39079 0.0
C1853 C 0.38585 0.14608 0.38978 0.0
C1854 C 0.35338 0.13184 0.36583 0.0
C1855 C 0.36952 0.12899 0.35318 0.0
H1856 H 0.65487 0.84957 0.16989 0.0
H1857 H 0.66513 0.83719 0.09437 0.0
H1858 H 0.6333 0.82794 0.08654 0.0
H1859 H 0.60206 0.83459 0.10048 0.0
H1860 H 0.59188 0.84378 0.17612 0.0
H1861 H 0.62378 0.84224 0.18421 0.0
C1862 C 0.65022 0.84366 0.15177 0.0
C1863 C 0.66256 0.84525 0.13285 0.0
C1864 C 0.63169 0.83838 0.1472 0.0
C1865 C 0.65608 0.83711 0.10945 0.0
C1866 C 0.63777 0.83186 0.10483 0.0
C1867 C 0.60677 0.83515 0.11874 0.0
C1868 C 0.59438 0.84043 0.13749 0.0
C1869 C 0.62536 0.83424 0.12348 0.0
C1870 C 0.60093 0.84063 0.1611 0.0
C1871 C 0.61929 0.83981 0.16587 0.0
H1872 H 0.67097 0.43552 0.15071 0.0
H1873 H 0.66767 0.42502 0.074 0.0
H1874 H 0.635 0.4298 0.07641 0.0
H1875 H 0.60761 0.42568 0.10032 0.0
H1876 H 0.61091 0.43024 0.17713 0.0
H1877 H 0.64346 0.44015 0.1745 0.0
C1878 C 0.6632 0.43497 0.1344 0.0
C1879 C 0.67191 0.42916 0.11216 0.0
C1880 C 0.6444 0.43642 0.13595 0.0
C1881 C 0.66145 0.42919 0.09135 0.0
C1882 C 0.64273 0.4317 0.09273 0.0
C1883 C 0.61534 0.42964 0.11659 0.0
C1884 C 0.60669 0.42645 0.13897 0.0
C1885 C 0.63408 0.43361 0.11496 0.0
C1886 C 0.61708 0.4324 0.15969 0.0
C1887 C 0.63574 0.43766 0.15818 0.0
H1888 H 0.42035 0.09552 0.86056 0.0
H1889 H 0.40091 0.11266 0.93224 0.0
H1890 H 0.36995 0.10651 0.91809 0.0
H1891 H 0.34841 0.09846 0.88489 0.0
H1892 H 0.36781 0.11865 0.81331 0.0
H1893 H 0.39879 0.10828 0.82732 0.0
C1894 C 0.40932 0.09705 0.87311 0.0
C1895 C 0.41291 0.09817 0.89781 0.0
C1896 C 0.39157 0.09995 0.86454 0.0
C1897 C 0.39849 0.10519 0.91354 0.0
C1898 C 0.38079 0.10336 0.90532 0.0
C1899 C 0.35942 0.09979 0.87229 0.0
C1900 C 0.35576 0.1033 0.84767 0.0
C1901 C 0.37716 0.10009 0.88082 0.0
C1902 C 0.37021 0.10977 0.83193 0.0
C1903 C 0.38793 0.10542 0.84008 0.0
H1904 H 0.39622 0.62308 0.83392 0.0
H1905 H 0.42525 0.62256 0.90013 0.0
H1906 H 0.39719 0.6169 0.92219 0.0
H1907 H 0.36401 0.60659 0.92231 0.0
H1908 H 0.33531 0.63726 0.85701 0.0
H1909 H 0.36333 0.63742 0.83488 0.0
C1910 C 0.39645 0.6264 0.85312 0.0
C1911 C 0.41294 0.62605 0.86513 0.0
C1912 C 0.38018 0.62825 0.86595 0.0
C1913 C 0.41279 0.62415 0.89024 0.0
C1914 C 0.39671 0.62103 0.90299 0.0
C1915 C 0.36391 0.6178 0.90361 0.0
C1916 C 0.34747 0.62438 0.89172 0.0
C1917 C 0.38026 0.62296 0.89105 0.0
C1918 C 0.34773 0.63321 0.86687 0.0
C1919 C 0.36379 0.63346 0.85409 0.0
H1920 H 0.0298 0.043 0.16229 0.0
H1921 H 0.01735 0.00852 0.0886 0.0
H1922 H 0.0168 0.1101 0.08001 0.0
H1923 H 0.02484 0.20767 0.09186 0.0
H1924 H 0.03676 0.24217 0.16574 0.0
H1925 H 0.03222 0.14243 0.17562 0.0
C1926 C 0.02647 0.05762 0.1445 0.0
C1927 C 0.02413 0.01782 0.12606 0.0
C1928 C 0.02637 0.11646 0.13949 0.0
C1929 C 0.01962 0.03793 0.10314 0.0
C1930 C 0.01935 0.09623 0.09812 0.0
C1931 C 0.02608 0.1937 0.1102 0.0
C1932 C 0.03162 0.2325 0.1278 0.0
C1933 C 0.02354 0.13579 0.1159 0.0
C1934 C 0.03283 0.21344 0.15159 0.0
C1935 C 0.03027 0.15611 0.15735 0.0
H1936 H 0.23802 0.00195 0.15327 0.0
H1937 H 0.23592 0.01613 0.07658 0.0
H1938 H 0.24071 0.11877 0.07952 0.0
H1939 H 0.24101 0.20533 0.10385 0.0
H1940 H 0.24128 0.19166 0.1806 0.0
H1941 H 0.24203 0.08789 0.1775 0.0
C1942 C 0.2389 0.02716 0.13711 0.0
C1943 C 0.23625 0.0011 0.11472 0.0
C1944 C 0.24117 0.08647 0.13893 0.0
C1945 C 0.23771 0.03476 0.09406 0.0
C1946 C 0.24038 0.09364 0.09573 0.0
C1947 C 0.24154 0.17987 0.11998 0.0
C1948 C 0.24074 0.20664 0.14246 0.0
C1949 C 0.24143 0.12015 0.11809 0.0
C1950 C 0.24173 0.17256 0.16305 0.0
C1951 C 0.24205 0.11306 0.1613 0.0
H1952 H 0.99454 0.76936 0.88727 0.0
H1953 H 0.94699 0.81216 0.92728 0.0
H1954 H 0.94508 0.90343 0.90656 0.0
H1955 H 0.9555 0.96803 0.87498 0.0
H1956 H 1.00366 0.92892 0.83608 0.0
H1957 H 0.00662 0.83853 0.85809 0.0
C1958 C 0.98397 0.79912 0.89183 0.0
C1959 C 0.97087 0.78362 0.9088 0.0
C1960 C 0.9828 0.85142 0.87956 0.0
C1961 C 0.95728 0.82285 0.91443 0.0
C1962 C 0.95605 0.87488 0.90237 0.0
C1963 C 0.96655 0.9393 0.87124 0.0
C1964 C 0.97906 0.95375 0.85353 0.0
C1965 C 0.96843 0.88883 0.88448 0.0
C1966 C 0.99368 0.91766 0.84929 0.0
C1967 C 0.99541 0.86639 0.86199 0.0
H1968 H 0.79038 0.99107 0.86637 0.0
H1969 H 0.80169 0.91434 0.93454 0.0
H1970 H 0.79959 0.81909 0.91658 0.0
H1971 H 0.79677 0.7587 0.88088 0.0
H1972 H 0.79028 0.8367 0.8119 0.0
H1973 H 0.78813 0.93104 0.83068 0.0
C1974 C 0.79203 0.95339 0.87739 0.0
C1975 C 0.79581 0.95936 0.90184 0.0
C1976 C 0.79178 0.89939 0.86668 0.0
C1977 C 0.79854 0.91051 0.91578 0.0
C1978 C 0.79741 0.85627 0.90547 0.0
C1979 C 0.79457 0.79642 0.87005 0.0
C1980 C 0.79331 0.79115 0.84513 0.0
C1981 C 0.79433 0.85032 0.88088 0.0
C1982 C 0.79106 0.84005 0.83111 0.0
C1983 C 0.7899 0.89375 0.84186 0.0
H1984 H 0.02125 0.72148 0.6012 0.0
H1985 H 0.02639 0.76028 0.67605 0.0
H1986 H 0.02616 0.65915 0.68564 0.0
H1987 H 0.02995 0.55965 0.67216 0.0
H1988 H 0.02435 0.52188 0.59725 0.0
H1989 H 0.01915 0.62187 0.58862 0.0
C1990 C 0.02183 0.70805 0.61968 0.0
C1991 C 0.02435 0.74879 0.63771 0.0
C1992 C 0.02197 0.64952 0.62516 0.0
C1993 C 0.02477 0.73015 0.66161 0.0
C1994 C 0.02475 0.67205 0.66719 0.0
C1995 C 0.02718 0.57307 0.65404 0.0
C1996 C 0.02813 0.53322 0.63539 0.0
C1997 C 0.02425 0.63126 0.64901 0.0
C1998 C 0.02422 0.55157 0.61201 0.0
C1999 C 0.0212 0.60896 0.60696 0.0
H2000 H 0.23855 0.55366 0.58669 0.0
H2001 H 0.24379 0.51994 0.66201 0.0
H2002 H 0.24635 0.62143 0.66995 0.0
H2003 H 0.24182 0.71972 0.65642 0.0
H2004 H 0.23653 0.75396 0.58114 0.0
H2005 H 0.23972 0.65292 0.57245 0.0
C2006 C 0.24071 0.56834 0.60477 0.0
C2007 C 0.24045 0.52908 0.62373 0.0
C2008 C 0.24196 0.62721 0.60937 0.0
C2009 C 0.2435 0.54911 0.64704 0.0
C2010 C 0.24496 0.60733 0.65167 0.0
C2011 C 0.2418 0.70541 0.63806 0.0
C2012 C 0.23843 0.74456 0.61959 0.0
C2013 C 0.24336 0.64687 0.63311 0.0
C2014 C 0.23877 0.72496 0.59586 0.0
C2015 C 0.24052 0.66692 0.59081 0.0
H2016 H 0.95176 0.47185 0.37354 0.0
H2017 H 1.00334 0.43819 0.34226 0.0
H2018 H 0.00574 0.34941 0.3655 0.0
H2019 H 0.99239 0.28006 0.39385 0.0
H2020 H 0.94165 0.31941 0.42697 0.0
H2021 H 0.93995 0.40814 0.40448 0.0
C2022 C 0.96344 0.44463 0.37166 0.0
C2023 C 0.97711 0.4602 0.35571 0.0
C2024 C 0.965 0.39536 0.38577 0.0
C2025 C 0.9925 0.4261 0.35405 0.0
C2026 C 0.99389 0.37572 0.36747 0.0
C2027 C 0.98114 0.30858 0.39652 0.0
C2028 C 0.96713 0.29269 0.41208 0.0
C2029 C 0.98018 0.35982 0.38337 0.0
C2030 C 0.95266 0.33035 0.41525 0.0
C2031 C 0.95156 0.38096 0.40218 0.0
H2032 H 0.81841 0.27895 0.37864 0.0
H2033 H 0.76646 0.31442 0.34879 0.0
H2034 H 0.76473 0.40326 0.372 0.0
H2035 H 0.77882 0.47221 0.39969 0.0
H2036 H 0.83002 0.43141 0.43125 0.0
H2037 H 0.83097 0.34225 0.40907 0.0
C2038 C 0.80679 0.30657 0.37708 0.0
C2039 C 0.79283 0.29159 0.36155 0.0
C2040 C 0.80564 0.35587 0.39113 0.0
C2041 C 0.77752 0.32613 0.36027 0.0
C2042 C 0.77651 0.37651 0.37366 0.0
C2043 C 0.79001 0.44328 0.4021 0.0
C2044 C 0.80439 0.45885 0.41707 0.0
C2045 C 0.79054 0.39193 0.3891 0.0
C2046 C 0.81876 0.42069 0.41995 0.0
C2047 C 0.81941 0.36986 0.40706 0.0
H2048 H 0.524 0.01285 0.66216 0.0
H2049 H 0.53101 0.97415 0.58755 0.0
H2050 H 0.52668 0.07386 0.57735 0.0
H2051 H 0.52598 0.17417 0.59009 0.0
H2052 H 0.51847 0.21259 0.66462 0.0
H2053 H 0.51759 0.11151 0.67405 0.0
C2054 C 0.52417 0.02589 0.64362 0.0
C2055 C 0.52835 0.98594 0.62582 0.0
C2056 C 0.5218 0.08377 0.63774 0.0
C2057 C 0.52821 0.00386 0.60182 0.0
C2058 C 0.52576 0.06115 0.59587 0.0
C2059 C 0.52367 0.16051 0.60829 0.0
C2060 C 0.52281 0.20119 0.62662 0.0
C2061 C 0.52334 0.10189 0.61377 0.0
C2062 C 0.51961 0.1824 0.65012 0.0
C2063 C 0.51912 0.1244 0.65562 0.0
H2064 H 0.73418 0.20498 0.66893 0.0
H2065 H 0.73767 0.24337 0.59383 0.0
H2066 H 0.74309 0.14342 0.585 0.0
H2067 H 0.74167 0.04345 0.59782 0.0
H2068 H 0.73835 0.00484 0.67293 0.0
H2069 H 0.73844 0.10597 0.68233 0.0
C2070 C 0.73658 0.19179 0.6507 0.0
C2071 C 0.735 0.23165 0.63208 0.0
C2072 C 0.73951 0.13375 0.64559 0.0
C2073 C 0.73838 0.21359 0.60856 0.0
C2074 C 0.74148 0.15624 0.60342 0.0
C2075 C 0.74142 0.05699 0.61628 0.0
C2076 C 0.73949 0.01628 0.63451 0.0
C2077 C 0.74124 0.11557 0.62167 0.0
C2078 C 0.73946 0.03499 0.65838 0.0
C2079 C 0.73946 0.09305 0.66385 0.0
H2080 H 0.48394 0.76867 0.37381 0.0
H2081 H 0.47841 0.8376 0.44449 0.0
H2082 H 0.48105 0.93467 0.42854 0.0
H2083 H 0.48166 7e-05 0.39396 0.0
H2084 H 0.48233 0.9306 0.32302 0.0
H2085 H 0.48504 0.83391 0.33934 0.0
C2086 C 0.48377 0.80498 0.38575 0.0
C2087 C 0.48133 0.79603 0.41036 0.0
C2088 C 0.48427 0.86066 0.37626 0.0
C2089 C 0.48051 0.84345 0.42555 0.0
C2090 C 0.48192 0.89892 0.41639 0.0
C2091 C 0.48286 0.96374 0.38213 0.0
C2092 C 0.48218 0.97236 0.35731 0.0
C2093 C 0.48337 0.90811 0.39171 0.0
C2094 C 0.48309 0.92495 0.34214 0.0
C2095 C 0.48454 0.86971 0.3515 0.0
H2096 H 0.32176 0.775 0.37549 0.0
H2097 H 0.26959 0.79887 0.34433 0.0
H2098 H 0.2655 0.8867 0.36765 0.0
H2099 H 0.27748 0.95793 0.396 0.0
H2100 H 0.32896 0.92857 0.42892 0.0
H2101 H 0.33233 0.84038 0.40647 0.0
C2102 C 0.3096 0.80001 0.37359 0.0
C2103 C 0.29624 0.78206 0.35766 0.0
C2104 C 0.30708 0.84854 0.38778 0.0
C2105 C 0.28021 0.81303 0.35605 0.0
C2106 C 0.27784 0.86277 0.36954 0.0
C2107 C 0.28926 0.93163 0.39867 0.0
C2108 C 0.30299 0.95022 0.41408 0.0
C2109 C 0.29122 0.88098 0.38546 0.0
C2110 C 0.31815 0.91545 0.41728 0.0
C2111 C 0.32021 0.86525 0.40421 0.0
H2112 H 0.52934 0.5376 0.16907 0.0
H2113 H 0.53263 0.50144 0.09376 0.0
H2114 H 0.52714 0.60108 0.08454 0.0
H2115 H 0.52624 0.70069 0.09781 0.0
H2116 H 0.52249 0.73697 0.17306 0.0
H2117 H 0.52294 0.63562 0.18205 0.0
C2118 C 0.52848 0.55119 0.15063 0.0
C2119 C 0.53192 0.51198 0.13225 0.0
C2120 C 0.52541 0.60905 0.1453 0.0
C2121 C 0.53043 0.53057 0.10843 0.0
C2122 C 0.52731 0.5878 0.10304 0.0
C2123 C 0.52509 0.68654 0.11614 0.0
C2124 C 0.52483 0.72682 0.13467 0.0
C2125 C 0.52554 0.62785 0.12134 0.0
C2126 C 0.52306 0.70726 0.15832 0.0
C2127 C 0.52337 0.64907 0.16358 0.0
H2128 H 0.74226 0.54729 0.14963 0.0
H2129 H 0.74018 0.56121 0.07295 0.0
H2130 H 0.74018 0.66505 0.07613 0.0
H2131 H 0.73632 0.7507 0.10067 0.0
H2132 H 0.7366 0.73597 0.17738 0.0
H2133 H 0.74193 0.63366 0.17406 0.0
C2134 C 0.74209 0.57284 0.13352 0.0
C2135 C 0.7409 0.54606 0.11106 0.0
C2136 C 0.74155 0.63253 0.13548 0.0
C2137 C 0.74099 0.58029 0.09047 0.0
C2138 C 0.74087 0.63982 0.09228 0.0
C2139 C 0.73782 0.72546 0.11674 0.0
C2140 C 0.73573 0.75128 0.13928 0.0
C2141 C 0.74044 0.66628 0.11471 0.0
C2142 C 0.73796 0.71755 0.1598 0.0
C2143 C 0.74095 0.65884 0.15792 0.0
H2144 H 0.4474 0.25741 0.88347 0.0
H2145 H 0.49627 0.29337 0.92123 0.0
H2146 H 0.49994 0.38228 0.89839 0.0
H2147 H 0.48861 0.45049 0.86818 0.0
H2148 H 0.44051 0.40974 0.82902 0.0
H2149 H 0.43748 0.32104 0.85132 0.0
C2150 C 0.45871 0.28528 0.88688 0.0
C2151 C 0.47124 0.27032 0.90448 0.0
C2152 C 0.46105 0.33466 0.87305 0.0
C2153 C 0.48624 0.30515 0.90818 0.0
C2154 C 0.4884 0.35552 0.89496 0.0
C2155 C 0.47766 0.42168 0.86417 0.0
C2156 C 0.46478 0.43707 0.84691 0.0
C2157 C 0.47587 0.37071 0.87731 0.0
C2158 C 0.45066 0.39914 0.84208 0.0
C2159 C 0.4488 0.34858 0.85502 0.0
H2160 H 0.28858 0.24186 0.87828 0.0
H2161 H 0.29797 0.32039 0.80996 0.0
H2162 H 0.29485 0.41519 0.82808 0.0
H2163 H 0.2916 0.4751 0.86394 0.0
H2164 H 0.28692 0.39581 0.93291 0.0
H2165 H 0.28591 0.30138 0.91407 0.0
C2166 C 0.28962 0.27979 0.86728 0.0
C2167 C 0.29316 0.27442 0.84274 0.0
C2168 C 0.28874 0.33368 0.87805 0.0
C2169 C 0.29506 0.32368 0.82881 0.0
C2170 C 0.29333 0.3777 0.8392 0.0
C2171 C 0.29002 0.43703 0.87474 0.0
C2172 C 0.28893 0.44195 0.89969 0.0
C2173 C 0.29044 0.38314 0.86385 0.0
C2174 C 0.28752 0.39269 0.91368 0.0
C2175 C 0.28702 0.33893 0.9029 0.0
loop_
_geom_bond_atom_site_label_1
_geom_bond_atom_site_label_2
_geom_bond_distance
_geom_bond_site_symmetry_2
_ccdc_geom_bond_type
Mn0 O5 2.095 . S
Mn0 O15 2.162 . S
Mn0 O16 2.297 . S
Mn0 O24 2.385 . S
Mn0 O25 2.209 . S
Mn0 O26 2.094 . S
Mn1 O6 2.121 . S
Mn1 N8 2.257 . S
Mn1 N17 2.282 . S
Mn1 O25 2.215 . S
Mn1 O27 2.117 . S
C2 O24 1.234 . S
C2 O25 1.283 . S
C3 O15 1.281 . S
C3 O16 1.236 . S
C4 O26 1.240 . S
C4 O27 1.264 . S
O5 Mn0 2.095 . S
O5 C14 1.250 . S
O6 Mn1 2.121 . S
O6 C14 1.258 . S
C7 N8 1.326 . S
C7 C11 1.460 . S
C7 H13 0.929 . S
N8 Mn1 2.257 . S
N8 C7 1.326 . S
N8 C12 1.362 . S
C9 C10 1.258 . S
C9 C12 1.431 . S
C9 C29 1.449 . S
C10 C9 1.258 . S
C10 C11 1.477 . S
C10 H30 0.961 . S
C11 C7 1.460 . S
C11 C10 1.477 . S
C11 H31 0.930 1_455 S
C12 N8 1.362 . S
C12 C9 1.431 . S
C12 C22 1.476 . S
H13 C7 0.929 . S
C14 O5 1.250 . S
C14 O6 1.258 . S
O15 Mn0 2.162 . S
O15 C3 1.281 . S
O16 Mn0 2.297 . S
O16 C3 1.236 . S
N17 Mn1 2.282 . S
N17 C18 1.328 . S
N17 C22 1.318 . S
C18 N17 1.328 . S
C18 C19 1.457 . S
C18 H23 0.929 . S
C19 C18 1.457 . S
C19 C20 1.291 . S
C19 H32 0.931 . S
C20 C19 1.291 . S
C20 C21 1.373 . S
C20 H33 0.929 . S
C21 C20 1.373 . S
C21 C22 1.396 . S
C21 C28 1.403 . S
C22 C12 1.476 . S
C22 N17 1.318 . S
C22 C21 1.396 . S
H23 C18 0.929 . S
O24 Mn0 2.385 . S
O24 C2 1.234 . S
O25 Mn0 2.209 . S
O25 Mn1 2.215 . S
O25 C2 1.283 . S
O26 Mn0 2.094 . S
O26 C4 1.240 . S
O27 Mn1 2.117 . S
O27 C4 1.264 . S
C28 C21 1.403 . S
C28 C29 1.399 . S
C28 H34 0.929 . S
C29 C9 1.449 . S
C29 C28 1.399 . S
C29 H35 0.930 . S
H30 C10 0.961 . S
H31 C11 0.930 1_655 S
H32 C19 0.931 . S
H33 C20 0.929 . S
H34 C28 0.929 . S
H35 C29 0.930 . S
Mn36 O41 2.095 . S
Mn36 O51 2.162 . S
Mn36 O52 2.297 . S
Mn36 O60 2.385 . S
Mn36 O61 2.209 . S
Mn36 O62 2.094 . S
Mn37 O42 2.121 . S
Mn37 N44 2.257 . S
Mn37 N53 2.282 . S
Mn37 O61 2.215 . S
Mn37 O63 2.117 . S
C38 O60 1.234 . S
C38 O61 1.283 . S
C39 O51 1.281 . S
C39 O52 1.236 . S
C40 O62 1.240 . S
C40 O63 1.264 . S
O41 Mn36 2.095 . S
O41 C50 1.250 . S
O42 Mn37 2.121 . S
O42 C50 1.258 . S
C43 N44 1.326 . S
C43 C47 1.460 . S
C43 H49 0.929 . S
N44 Mn37 2.257 . S
N44 C43 1.326 . S
N44 C48 1.362 . S
C45 C46 1.258 . S
C45 C48 1.431 . S
C45 C65 1.449 . S
C46 C45 1.258 . S
C46 C47 1.477 . S
C46 H66 0.931 . S
C47 C43 1.460 . S
C47 C46 1.477 . S
C47 H67 0.930 . S
C48 N44 1.362 . S
C48 C45 1.431 . S
C48 C58 1.476 . S
H49 C43 0.929 . S
C50 O41 1.250 . S
C50 O42 1.258 . S
O51 Mn36 2.162 . S
O51 C39 1.281 . S
O52 Mn36 2.297 . S
O52 C39 1.236 . S
N53 Mn37 2.282 . S
N53 C54 1.328 . S
N53 C58 1.318 . S
C54 N53 1.328 . S
C54 C55 1.457 . S
C54 H59 0.929 . S
C55 C54 1.457 . S
C55 C56 1.291 . S
C55 H68 0.931 . S
C56 C55 1.291 . S
C56 C57 1.373 . S
C56 H69 0.929 . S
C57 C56 1.373 . S
C57 C58 1.396 . S
C57 C64 1.403 . S
C58 C48 1.476 . S
C58 N53 1.318 . S
C58 C57 1.396 . S
H59 C54 0.929 . S
O60 Mn36 2.385 . S
O60 C38 1.234 . S
O61 Mn36 2.209 . S
O61 Mn37 2.215 . S
O61 C38 1.283 . S
O62 Mn36 2.094 . S
O62 C40 1.240 . S
O63 Mn37 2.117 . S
O63 C40 1.264 . S
C64 C57 1.403 . S
C64 C65 1.399 . S
C64 H70 0.929 . S
C65 C45 1.449 . S
C65 C64 1.399 . S
C65 H71 0.930 . S
H66 C46 0.931 . S
H67 C47 0.930 . S
H68 C55 0.931 . S
H69 C56 0.929 . S
H70 C64 0.929 . S
H71 C65 0.930 . S
Mn72 O77 2.095 . S
Mn72 O87 2.162 . S
Mn72 O88 2.297 . S
Mn72 O96 2.385 . S
Mn72 O97 2.209 . S
Mn72 O98 2.094 . S
Mn73 O78 2.121 . S
Mn73 N80 2.257 . S
Mn73 N89 2.282 . S
Mn73 O97 2.215 . S
Mn73 O99 2.117 . S
C74 O96 1.234 . S
C74 O97 1.283 . S
C75 O87 1.281 . S
C75 O88 1.236 . S
C76 O98 1.240 . S
C76 O99 1.264 . S
O77 Mn72 2.095 . S
O77 C86 1.250 . S
O78 Mn73 2.121 . S
O78 C86 1.258 . S
C79 N80 1.326 . S
C79 C83 1.460 . S
C79 H85 0.929 . S
N80 Mn73 2.257 . S
N80 C79 1.326 . S
N80 C84 1.362 . S
C81 C82 1.258 . S
C81 C84 1.431 . S
C81 C101 1.449 . S
C82 C81 1.258 . S
C82 C83 1.477 . S
C82 H102 0.961 . S
C83 C79 1.460 . S
C83 C82 1.477 . S
C83 H103 0.930 1_455 S
C84 N80 1.362 . S
C84 C81 1.431 . S
C84 C94 1.476 . S
H85 C79 0.929 . S
C86 O77 1.250 . S
C86 O78 1.258 . S
O87 Mn72 2.162 . S
O87 C75 1.281 . S
O88 Mn72 2.297 . S
O88 C75 1.236 . S
N89 Mn73 2.282 . S
N89 C90 1.328 . S
N89 C94 1.318 . S
C90 N89 1.328 . S
C90 C91 1.457 . S
C90 H95 0.929 . S
C91 C90 1.457 . S
C91 C92 1.291 . S
C91 H104 0.931 . S
C92 C91 1.291 . S
C92 C93 1.373 . S
C92 H105 0.929 . S
C93 C92 1.373 . S
C93 C94 1.396 . S
C93 C100 1.403 . S
C94 C84 1.476 . S
C94 N89 1.318 . S
C94 C93 1.396 . S
H95 C90 0.929 . S
O96 Mn72 2.385 . S
O96 C74 1.234 . S
O97 Mn72 2.209 . S
O97 Mn73 2.215 . S
O97 C74 1.283 . S
O98 Mn72 2.094 . S
O98 C76 1.240 . S
O99 Mn73 2.117 . S
O99 C76 1.264 . S
C100 C93 1.403 . S
C100 C101 1.399 . S
C100 H106 0.929 . S
C101 C81 1.449 . S
C101 C100 1.399 . S
C101 H107 0.930 . S
H102 C82 0.961 . S
H103 C83 0.930 1_655 S
H104 C91 0.931 . S
H105 C92 0.929 . S
H106 C100 0.929 . S
H107 C101 0.930 . S
Mn108 O113 2.095 . S
Mn108 O123 2.162 . S
Mn108 O124 2.297 . S
Mn108 O132 2.385 . S
Mn108 O133 2.209 . S
Mn108 O134 2.094 . S
Mn109 O114 2.121 . S
Mn109 N116 2.257 . S
Mn109 N125 2.282 . S
Mn109 O133 2.215 . S
Mn109 O135 2.117 . S
C110 O132 1.234 . S
C110 O133 1.283 . S
C111 O123 1.281 . S
C111 O124 1.236 . S
C112 O134 1.240 . S
C112 O135 1.264 . S
O113 Mn108 2.095 . S
O113 C122 1.250 . S
O114 Mn109 2.121 . S
O114 C122 1.258 . S
C115 N116 1.326 . S
C115 C119 1.460 . S
C115 H121 0.929 . S
N116 Mn109 2.257 . S
N116 C115 1.326 . S
N116 C120 1.362 . S
C117 C118 1.258 . S
C117 C120 1.431 . S
C117 C137 1.449 . S
C118 C117 1.258 . S
C118 C119 1.477 . S
C118 H138 0.931 . S
C119 C115 1.460 . S
C119 C118 1.477 . S
C119 H139 0.930 . S
C120 N116 1.362 . S
C120 C117 1.431 . S
C120 C130 1.476 . S
H121 C115 0.929 . S
C122 O113 1.250 . S
C122 O114 1.258 . S
O123 Mn108 2.162 . S
O123 C111 1.281 . S
O124 Mn108 2.297 . S
O124 C111 1.236 . S
N125 Mn109 2.282 . S
N125 C126 1.328 . S
N125 C130 1.318 . S
C126 N125 1.328 . S
C126 C127 1.457 . S
C126 H131 0.929 . S
C127 C126 1.457 . S
C127 C128 1.291 . S
C127 H140 0.931 . S
C128 C127 1.291 . S
C128 C129 1.373 . S
C128 H141 0.929 . S
C129 C128 1.373 . S
C129 C130 1.396 . S
C129 C136 1.403 . S
C130 C120 1.476 . S
C130 N125 1.318 . S
C130 C129 1.396 . S
H131 C126 0.929 . S
O132 Mn108 2.385 . S
O132 C110 1.234 . S
O133 Mn108 2.209 . S
O133 Mn109 2.215 . S
O133 C110 1.283 . S
O134 Mn108 2.094 . S
O134 C112 1.240 . S
O135 Mn109 2.117 . S
O135 C112 1.264 . S
C136 C129 1.403 . S
C136 C137 1.399 . S
C136 H142 0.929 . S
C137 C117 1.449 . S
C137 C136 1.399 . S
C137 H143 0.930 . S
H138 C118 0.931 . S
H139 C119 0.930 . S
H140 C127 0.931 . S
H141 C128 0.929 . S
H142 C136 0.929 . S
H143 C137 0.930 . S
Mn144 O149 2.095 . S
Mn144 O159 2.162 . S
Mn144 O160 2.297 . S
Mn144 O168 2.385 . S
Mn144 O169 2.209 . S
Mn144 O170 2.094 . S
Mn145 O150 2.121 . S
Mn145 N152 2.257 . S
Mn145 N161 2.282 . S
Mn145 O169 2.215 . S
Mn145 O171 2.117 . S
C146 O168 1.234 . S
C146 O169 1.283 . S
C147 O159 1.281 . S
C147 O160 1.236 . S
C148 O170 1.240 . S
C148 O171 1.264 . S
O149 Mn144 2.095 . S
O149 C158 1.250 . S
O150 Mn145 2.121 . S
O150 C158 1.258 . S
C151 N152 1.326 . S
C151 C155 1.460 . S
C151 H157 0.929 . S
N152 Mn145 2.257 . S
N152 C151 1.326 . S
N152 C156 1.362 . S
C153 C154 1.258 . S
C153 C156 1.431 . S
C153 C173 1.449 . S
C154 C153 1.258 . S
C154 C155 1.477 . S
C154 H174 0.931 . S
C155 C151 1.460 . S
C155 C154 1.477 . S
C155 H175 0.930 1_556 S
C156 N152 1.362 . S
C156 C153 1.431 . S
C156 C166 1.476 . S
H157 C151 0.929 . S
C158 O149 1.250 . S
C158 O150 1.258 . S
O159 Mn144 2.162 . S
O159 C147 1.281 . S
O160 Mn144 2.297 . S
O160 C147 1.236 . S
N161 Mn145 2.282 . S
N161 C162 1.328 . S
N161 C166 1.318 . S
C162 N161 1.328 . S
C162 C163 1.457 . S
C162 H167 0.929 . S
C163 C162 1.457 . S
C163 C164 1.291 . S
C163 H176 0.931 . S
C164 C163 1.291 . S
C164 C165 1.373 . S
C164 H177 0.929 . S
C165 C164 1.373 . S
C165 C166 1.396 . S
C165 C172 1.403 . S
C166 C156 1.476 . S
C166 N161 1.318 . S
C166 C165 1.396 . S
H167 C162 0.929 . S
O168 Mn144 2.385 . S
O168 C146 1.234 . S
O169 Mn144 2.209 . S
O169 Mn145 2.215 . S
O169 C146 1.283 . S
O170 Mn144 2.094 . S
O170 C148 1.240 . S
O171 Mn145 2.117 . S
O171 C148 1.264 . S
C172 C165 1.403 . S
C172 C173 1.399 . S
C172 H178 0.929 . S
C173 C153 1.449 . S
C173 C172 1.399 . S
C173 H179 0.930 . S
H174 C154 0.931 . S
H175 C155 0.930 1_554 S
H176 C163 0.931 . S
H177 C164 0.929 . S
H178 C172 0.929 . S
H179 C173 0.930 . S
Mn180 O185 2.095 . S
Mn180 O195 2.162 . S
Mn180 O196 2.297 . S
Mn180 O204 2.385 . S
Mn180 O205 2.209 . S
Mn180 O206 2.094 . S
Mn181 O186 2.121 . S
Mn181 N188 2.257 . S
Mn181 N197 2.282 . S
Mn181 O205 2.215 . S
Mn181 O207 2.117 . S
C182 O204 1.234 . S
C182 O205 1.283 . S
C183 O195 1.281 . S
C183 O196 1.236 . S
C184 O206 1.240 . S
C184 O207 1.264 . S
O185 Mn180 2.095 . S
O185 C194 1.250 . S
O186 Mn181 2.121 . S
O186 C194 1.258 . S
C187 N188 1.326 . S
C187 C191 1.460 . S
C187 H193 0.929 . S
N188 Mn181 2.257 . S
N188 C187 1.326 . S
N188 C192 1.362 . S
C189 C190 1.258 . S
C189 C192 1.431 . S
C189 C209 1.449 . S
C190 C189 1.258 . S
C190 C191 1.477 . S
C190 H210 0.931 . S
C191 C187 1.460 . S
C191 C190 1.477 . S
C191 H211 0.930 1_556 S
C192 N188 1.362 . S
C192 C189 1.431 . S
C192 C202 1.476 . S
H193 C187 0.929 . S
C194 O185 1.250 . S
C194 O186 1.258 . S
O195 Mn180 2.162 . S
O195 C183 1.281 . S
O196 Mn180 2.297 . S
O196 C183 1.236 . S
N197 Mn181 2.282 . S
N197 C198 1.328 . S
N197 C202 1.318 . S
C198 N197 1.328 . S
C198 C199 1.457 . S
C198 H203 0.929 . S
C199 C198 1.457 . S
C199 C200 1.291 . S
C199 H212 0.931 . S
C200 C199 1.291 . S
C200 C201 1.373 . S
C200 H213 0.929 . S
C201 C200 1.373 . S
C201 C202 1.396 . S
C201 C208 1.403 . S
C202 C192 1.476 . S
C202 N197 1.318 . S
C202 C201 1.396 . S
H203 C198 0.929 . S
O204 Mn180 2.385 . S
O204 C182 1.234 . S
O205 Mn180 2.209 . S
O205 Mn181 2.215 . S
O205 C182 1.283 . S
O206 Mn180 2.094 . S
O206 C184 1.240 . S
O207 Mn181 2.117 . S
O207 C184 1.264 . S
C208 C201 1.403 . S
C208 C209 1.399 . S
C208 H214 0.929 . S
C209 C189 1.449 . S
C209 C208 1.399 . S
C209 H215 0.930 . S
H210 C190 0.931 . S
H211 C191 0.930 1_554 S
H212 C199 0.931 . S
H213 C200 0.929 . S
H214 C208 0.929 . S
H215 C209 0.930 . S
Mn216 O221 2.095 . S
Mn216 O231 2.162 . S
Mn216 O232 2.297 . S
Mn216 O240 2.385 . S
Mn216 O241 2.209 . S
Mn216 O242 2.094 . S
Mn217 O222 2.121 . S
Mn217 N224 2.257 . S
Mn217 N233 2.282 . S
Mn217 O241 2.215 . S
Mn217 O243 2.117 . S
C218 O240 1.234 . S
C218 O241 1.283 . S
C219 O231 1.281 . S
C219 O232 1.236 . S
C220 O242 1.240 . S
C220 O243 1.264 . S
O221 Mn216 2.095 . S
O221 C230 1.250 . S
O222 Mn217 2.121 . S
O222 C230 1.258 . S
C223 N224 1.326 . S
C223 C227 1.460 . S
C223 H229 0.929 . S
N224 Mn217 2.257 . S
N224 C223 1.326 . S
N224 C228 1.362 . S
C225 C226 1.258 . S
C225 C228 1.431 . S
C225 C245 1.449 . S
C226 C225 1.258 . S
C226 C227 1.477 . S
C226 H246 0.931 . S
C227 C223 1.460 . S
C227 C226 1.477 . S
C227 H247 0.930 . S
C228 N224 1.362 . S
C228 C225 1.431 . S
C228 C238 1.476 . S
H229 C223 0.929 . S
C230 O221 1.250 . S
C230 O222 1.258 . S
O231 Mn216 2.162 . S
O231 C219 1.281 . S
O232 Mn216 2.297 . S
O232 C219 1.236 . S
N233 Mn217 2.282 . S
N233 C234 1.328 . S
N233 C238 1.318 . S
C234 N233 1.328 . S
C234 C235 1.457 . S
C234 H239 0.929 . S
C235 C234 1.457 . S
C235 C236 1.291 . S
C235 H248 0.931 . S
C236 C235 1.291 . S
C236 C237 1.373 . S
C236 H249 0.929 . S
C237 C236 1.373 . S
C237 C238 1.396 . S
C237 C244 1.403 . S
C238 C228 1.476 . S
C238 N233 1.318 . S
C238 C237 1.396 . S
H239 C234 0.929 . S
O240 Mn216 2.385 . S
O240 C218 1.234 . S
O241 Mn216 2.209 . S
O241 Mn217 2.215 . S
O241 C218 1.283 . S
O242 Mn216 2.094 . S
O242 C220 1.240 . S
O243 Mn217 2.117 . S
O243 C220 1.264 . S
C244 C237 1.403 . S
C244 C245 1.399 . S
C244 H250 0.929 . S
C245 C225 1.449 . S
C245 C244 1.399 . S
C245 H251 0.930 . S
H246 C226 0.931 . S
H247 C227 0.930 . S
H248 C235 0.931 . S
H249 C236 0.929 . S
H250 C244 0.929 . S
H251 C245 0.930 . S
Mn252 O257 2.095 . S
Mn252 O267 2.162 . S
Mn252 O268 2.297 . S
Mn252 O276 2.385 . S
Mn252 O277 2.209 . S
Mn252 O278 2.094 . S
Mn253 O258 2.121 . S
Mn253 N260 2.257 . S
Mn253 N269 2.282 . S
Mn253 O277 2.215 . S
Mn253 O279 2.117 . S
C254 O276 1.234 . S
C254 O277 1.283 . S
C255 O267 1.281 . S
C255 O268 1.236 . S
C256 O278 1.240 . S
C256 O279 1.264 . S
O257 Mn252 2.095 . S
O257 C266 1.250 . S
O258 Mn253 2.121 . S
O258 C266 1.258 . S
C259 N260 1.326 . S
C259 C263 1.460 . S
C259 H265 0.929 . S
N260 Mn253 2.257 . S
N260 C259 1.326 . S
N260 C264 1.362 . S
C261 C262 1.258 . S
C261 C264 1.431 . S
C261 C281 1.449 . S
C262 C261 1.258 . S
C262 C263 1.477 . S
C262 H282 0.931 . S
C263 C259 1.460 . S
C263 C262 1.477 . S
C263 H283 0.930 . S
C264 N260 1.362 . S
C264 C261 1.431 . S
C264 C274 1.476 . S
H265 C259 0.929 . S
C266 O257 1.250 . S
C266 O258 1.258 . S
O267 Mn252 2.162 . S
O267 C255 1.281 . S
O268 Mn252 2.297 . S
O268 C255 1.236 . S
N269 Mn253 2.282 . S
N269 C270 1.328 . S
N269 C274 1.318 . S
C270 N269 1.328 . S
C270 C271 1.457 . S
C270 H275 0.929 . S
C271 C270 1.457 . S
C271 C272 1.291 . S
C271 H284 0.931 . S
C272 C271 1.291 . S
C272 C273 1.373 . S
C272 H285 0.929 . S
C273 C272 1.373 . S
C273 C274 1.396 . S
C273 C280 1.403 . S
C274 C264 1.476 . S
C274 N269 1.318 . S
C274 C273 1.396 . S
H275 C270 0.929 . S
O276 Mn252 2.385 . S
O276 C254 1.234 . S
O277 Mn252 2.209 . S
O277 Mn253 2.215 . S
O277 C254 1.283 . S
O278 Mn252 2.094 . S
O278 C256 1.240 . S
O279 Mn253 2.117 . S
O279 C256 1.264 . S
C280 C273 1.403 . S
C280 C281 1.399 . S
C280 H286 0.929 . S
C281 C261 1.449 . S
C281 C280 1.399 . S
C281 H287 0.930 . S
H282 C262 0.931 . S
H283 C263 0.930 . S
H284 C271 0.931 . S
H285 C272 0.929 . S
H286 C280 0.929 . S
H287 C281 0.930 . S
Mn288 O293 2.095 . S
Mn288 O303 2.162 . S
Mn288 O304 2.297 . S
Mn288 O312 2.385 1_565 S
Mn288 O313 2.209 . S
Mn288 O314 2.094 . S
Mn289 O294 2.121 . S
Mn289 N296 2.257 . S
Mn289 N305 2.282 . S
Mn289 O313 2.215 . S
Mn289 O315 2.117 . S
C290 O312 1.234 1_565 S
C290 O313 1.283 . S
C291 O303 1.281 . S
C291 O304 1.236 . S
C292 O314 1.240 . S
C292 O315 1.264 . S
O293 Mn288 2.095 . S
O293 C302 1.250 . S
O294 Mn289 2.121 . S
O294 C302 1.258 . S
C295 N296 1.326 . S
C295 C299 1.460 . S
C295 H301 0.929 . S
N296 Mn289 2.257 . S
N296 C295 1.326 . S
N296 C300 1.362 . S
C297 C298 1.258 . S
C297 C300 1.431 . S
C297 C317 1.449 1_565 S
C298 C297 1.258 . S
C298 C299 1.477 . S
C298 H318 0.961 . S
C299 C295 1.460 . S
C299 C298 1.477 . S
C299 H319 0.930 1_455 S
C300 N296 1.362 . S
C300 C297 1.431 . S
C300 C310 1.476 . S
H301 C295 0.929 . S
C302 O293 1.250 . S
C302 O294 1.258 . S
O303 Mn288 2.162 . S
O303 C291 1.281 . S
O304 Mn288 2.297 . S
O304 C291 1.236 . S
N305 Mn289 2.282 . S
N305 C306 1.328 1_565 S
N305 C310 1.318 . S
C306 N305 1.328 1_545 S
C306 C307 1.457 . S
C306 H311 0.929 1_545 S
C307 C306 1.457 . S
C307 C308 1.291 . S
C307 H320 0.931 . S
C308 C307 1.291 . S
C308 C309 1.373 . S
C308 H321 0.929 . S
C309 C308 1.373 . S
C309 C310 1.396 1_545 S
C309 C316 1.403 . S
C310 C300 1.476 . S
C310 N305 1.318 . S
C310 C309 1.396 1_565 S
H311 C306 0.929 1_565 S
O312 Mn288 2.385 1_545 S
O312 C290 1.234 1_545 S
O313 Mn288 2.209 . S
O313 Mn289 2.215 . S
O313 C290 1.283 . S
O314 Mn288 2.094 . S
O314 C292 1.240 . S
O315 Mn289 2.117 . S
O315 C292 1.264 . S
C316 C309 1.403 . S
C316 C317 1.399 . S
C316 H322 0.929 . S
C317 C297 1.449 1_545 S
C317 C316 1.399 . S
C317 H323 0.930 . S
H318 C298 0.961 . S
H319 C299 0.930 1_655 S
H320 C307 0.931 . S
H321 C308 0.929 . S
H322 C316 0.929 . S
H323 C317 0.930 . S
Mn324 O329 2.095 . S
Mn324 O339 2.162 . S
Mn324 O340 2.297 . S
Mn324 O348 2.385 . S
Mn324 O349 2.209 . S
Mn324 O350 2.094 . S
Mn325 O330 2.121 . S
Mn325 N332 2.257 . S
Mn325 N341 2.282 . S
Mn325 O349 2.215 . S
Mn325 O351 2.117 . S
C326 O348 1.234 . S
C326 O349 1.283 . S
C327 O339 1.281 . S
C327 O340 1.236 . S
C328 O350 1.240 . S
C328 O351 1.264 . S
O329 Mn324 2.095 . S
O329 C338 1.250 . S
O330 Mn325 2.121 . S
O330 C338 1.258 . S
C331 N332 1.326 . S
C331 C335 1.460 . S
C331 H337 0.929 . S
N332 Mn325 2.257 . S
N332 C331 1.326 . S
N332 C336 1.362 . S
C333 C334 1.258 . S
C333 C336 1.431 . S
C333 C353 1.449 . S
C334 C333 1.258 . S
C334 C335 1.477 . S
C334 H354 0.931 . S
C335 C331 1.460 . S
C335 C334 1.477 . S
C335 H355 0.930 . S
C336 N332 1.362 . S
C336 C333 1.431 . S
C336 C346 1.476 . S
H337 C331 0.929 . S
C338 O329 1.250 . S
C338 O330 1.258 . S
O339 Mn324 2.162 . S
O339 C327 1.281 . S
O340 Mn324 2.297 . S
O340 C327 1.236 . S
N341 Mn325 2.282 . S
N341 C342 1.328 . S
N341 C346 1.318 . S
C342 N341 1.328 . S
C342 C343 1.457 . S
C342 H347 0.929 . S
C343 C342 1.457 . S
C343 C344 1.291 . S
C343 H356 0.931 . S
C344 C343 1.291 . S
C344 C345 1.373 . S
C344 H357 0.929 . S
C345 C344 1.373 . S
C345 C346 1.396 . S
C345 C352 1.403 . S
C346 C336 1.476 . S
C346 N341 1.318 . S
C346 C345 1.396 . S
H347 C342 0.929 . S
O348 Mn324 2.385 . S
O348 C326 1.234 . S
O349 Mn324 2.209 . S
O349 Mn325 2.215 . S
O349 C326 1.283 . S
O350 Mn324 2.094 . S
O350 C328 1.240 . S
O351 Mn325 2.117 . S
O351 C328 1.264 . S
C352 C345 1.403 . S
C352 C353 1.399 . S
C352 H358 0.929 . S
C353 C333 1.449 . S
C353 C352 1.399 . S
C353 H359 0.930 . S
H354 C334 0.931 . S
H355 C335 0.930 . S
H356 C343 0.931 . S
H357 C344 0.929 . S
H358 C352 0.929 . S
H359 C353 0.930 . S
Mn360 O365 2.095 . S
Mn360 O375 2.162 . S
Mn360 O376 2.297 . S
Mn360 O384 2.385 . S
Mn360 O385 2.209 . S
Mn360 O386 2.094 . S
Mn361 O366 2.121 . S
Mn361 N368 2.257 . S
Mn361 N377 2.282 . S
Mn361 O385 2.215 . S
Mn361 O387 2.117 . S
C362 O384 1.234 . S
C362 O385 1.283 . S
C363 O375 1.281 . S
C363 O376 1.236 . S
C364 O386 1.240 . S
C364 O387 1.264 . S
O365 Mn360 2.095 . S
O365 C374 1.250 . S
O366 Mn361 2.121 . S
O366 C374 1.258 . S
C367 N368 1.326 . S
C367 C371 1.460 . S
C367 H373 0.929 . S
N368 Mn361 2.257 . S
N368 C367 1.326 . S
N368 C372 1.362 . S
C369 C370 1.258 . S
C369 C372 1.431 . S
C369 C389 1.449 . S
C370 C369 1.258 . S
C370 C371 1.477 . S
C370 H390 0.961 . S
C371 C367 1.460 . S
C371 C370 1.477 . S
C371 H391 0.930 1_455 S
C372 N368 1.362 . S
C372 C369 1.431 . S
C372 C382 1.476 . S
H373 C367 0.929 . S
C374 O365 1.250 . S
C374 O366 1.258 . S
O375 Mn360 2.162 . S
O375 C363 1.281 . S
O376 Mn360 2.297 . S
O376 C363 1.236 . S
N377 Mn361 2.282 . S
N377 C378 1.328 . S
N377 C382 1.318 . S
C378 N377 1.328 . S
C378 C379 1.457 . S
C378 H383 0.929 . S
C379 C378 1.457 . S
C379 C380 1.291 . S
C379 H392 0.931 . S
C380 C379 1.291 . S
C380 C381 1.373 . S
C380 H393 0.929 . S
C381 C380 1.373 . S
C381 C382 1.396 . S
C381 C388 1.403 . S
C382 C372 1.476 . S
C382 N377 1.318 . S
C382 C381 1.396 . S
H383 C378 0.929 . S
O384 Mn360 2.385 . S
O384 C362 1.234 . S
O385 Mn360 2.209 . S
O385 Mn361 2.215 . S
O385 C362 1.283 . S
O386 Mn360 2.094 . S
O386 C364 1.240 . S
O387 Mn361 2.117 . S
O387 C364 1.264 . S
C388 C381 1.403 . S
C388 C389 1.399 . S
C388 H394 0.929 . S
C389 C369 1.449 . S
C389 C388 1.399 . S
C389 H395 0.930 . S
H390 C370 0.961 . S
H391 C371 0.930 1_655 S
H392 C379 0.931 . S
H393 C380 0.929 . S
H394 C388 0.929 . S
H395 C389 0.930 . S
Mn396 O401 2.095 . S
Mn396 O411 2.162 . S
Mn396 O412 2.297 . S
Mn396 O420 2.385 1_565 S
Mn396 O421 2.209 . S
Mn396 O422 2.094 . S
Mn397 O402 2.121 . S
Mn397 N404 2.257 . S
Mn397 N413 2.282 . S
Mn397 O421 2.215 . S
Mn397 O423 2.117 . S
C398 O420 1.234 1_565 S
C398 O421 1.283 . S
C399 O411 1.281 . S
C399 O412 1.236 . S
C400 O422 1.240 . S
C400 O423 1.264 . S
O401 Mn396 2.095 . S
O401 C410 1.250 . S
O402 Mn397 2.121 . S
O402 C410 1.258 . S
C403 N404 1.326 . S
C403 C407 1.460 . S
C403 H409 0.929 . S
N404 Mn397 2.257 . S
N404 C403 1.326 . S
N404 C408 1.362 . S
C405 C406 1.258 . S
C405 C408 1.431 . S
C405 C425 1.449 1_565 S
C406 C405 1.258 . S
C406 C407 1.477 . S
C406 H426 0.931 . S
C407 C403 1.460 . S
C407 C406 1.477 . S
C407 H427 0.930 . S
C408 N404 1.362 . S
C408 C405 1.431 . S
C408 C418 1.476 . S
H409 C403 0.929 . S
C410 O401 1.250 . S
C410 O402 1.258 . S
O411 Mn396 2.162 . S
O411 C399 1.281 . S
O412 Mn396 2.297 . S
O412 C399 1.236 . S
N413 Mn397 2.282 . S
N413 C414 1.328 1_565 S
N413 C418 1.318 . S
C414 N413 1.328 1_545 S
C414 C415 1.457 . S
C414 H419 0.929 1_545 S
C415 C414 1.457 . S
C415 C416 1.291 . S
C415 H428 0.931 . S
C416 C415 1.291 . S
C416 C417 1.373 . S
C416 H429 0.929 . S
C417 C416 1.373 . S
C417 C418 1.396 1_545 S
C417 C424 1.403 . S
C418 C408 1.476 . S
C418 N413 1.318 . S
C418 C417 1.396 1_565 S
H419 C414 0.929 1_565 S
O420 Mn396 2.385 1_545 S
O420 C398 1.234 1_545 S
O421 Mn396 2.209 . S
O421 Mn397 2.215 . S
O421 C398 1.283 . S
O422 Mn396 2.094 . S
O422 C400 1.240 . S
O423 Mn397 2.117 . S
O423 C400 1.264 . S
C424 C417 1.403 . S
C424 C425 1.399 . S
C424 H430 0.929 . S
C425 C405 1.449 1_545 S
C425 C424 1.399 . S
C425 H431 0.930 . S
H426 C406 0.931 . S
H427 C407 0.930 . S
H428 C415 0.931 . S
H429 C416 0.929 . S
H430 C424 0.929 . S
H431 C425 0.930 . S
Mn432 O437 2.095 . S
Mn432 O447 2.162 . S
Mn432 O448 2.297 . S
Mn432 O456 2.385 . S
Mn432 O457 2.209 . S
Mn432 O458 2.094 . S
Mn433 O438 2.121 . S
Mn433 N440 2.257 . S
Mn433 N449 2.282 1_545 S
Mn433 O457 2.215 . S
Mn433 O459 2.117 1_545 S
C434 O456 1.234 . S
C434 O457 1.283 . S
C435 O447 1.281 . S
C435 O448 1.236 . S
C436 O458 1.240 1_565 S
C436 O459 1.264 . S
O437 Mn432 2.095 . S
O437 C446 1.250 . S
O438 Mn433 2.121 . S
O438 C446 1.258 . S
C439 N440 1.326 . S
C439 C443 1.460 . S
C439 H445 0.929 . S
N440 Mn433 2.257 . S
N440 C439 1.326 . S
N440 C444 1.362 1_545 S
C441 C442 1.258 1_565 S
C441 C444 1.431 . S
C441 C461 1.449 . S
C442 C441 1.258 1_545 S
C442 C443 1.477 . S
C442 H462 0.931 1_545 S
C443 C439 1.460 . S
C443 C442 1.477 . S
C443 H463 0.930 . S
C444 N440 1.362 1_565 S
C444 C441 1.431 . S
C444 C454 1.476 . S
H445 C439 0.929 . S
C446 O437 1.250 . S
C446 O438 1.258 . S
O447 Mn432 2.162 . S
O447 C435 1.281 . S
O448 Mn432 2.297 . S
O448 C435 1.236 . S
N449 Mn433 2.282 1_565 S
N449 C450 1.328 . S
N449 C454 1.318 . S
C450 N449 1.328 . S
C450 C451 1.457 . S
C450 H455 0.929 . S
C451 C450 1.457 . S
C451 C452 1.291 . S
C451 H464 0.931 . S
C452 C451 1.291 . S
C452 C453 1.373 . S
C452 H465 0.929 . S
C453 C452 1.373 . S
C453 C454 1.396 . S
C453 C460 1.403 . S
C454 C444 1.476 . S
C454 N449 1.318 . S
C454 C453 1.396 . S
H455 C450 0.929 . S
O456 Mn432 2.385 . S
O456 C434 1.234 . S
O457 Mn432 2.209 . S
O457 Mn433 2.215 . S
O457 C434 1.283 . S
O458 Mn432 2.094 . S
O458 C436 1.240 1_545 S
O459 Mn433 2.117 1_565 S
O459 C436 1.264 . S
C460 C453 1.403 . S
C460 C461 1.399 . S
C460 H466 0.929 . S
C461 C441 1.449 . S
C461 C460 1.399 . S
C461 H467 0.930 . S
H462 C442 0.931 1_565 S
H463 C443 0.930 . S
H464 C451 0.931 . S
H465 C452 0.929 . S
H466 C460 0.929 . S
H467 C461 0.930 . S
Mn468 O473 2.095 . S
Mn468 O483 2.162 . S
Mn468 O484 2.297 . S
Mn468 O492 2.385 . S
Mn468 O493 2.209 . S
Mn468 O494 2.094 . S
Mn469 O474 2.121 . S
Mn469 N476 2.257 . S
Mn469 N485 2.282 . S
Mn469 O493 2.215 . S
Mn469 O495 2.117 . S
C470 O492 1.234 . S
C470 O493 1.283 . S
C471 O483 1.281 . S
C471 O484 1.236 . S
C472 O494 1.240 . S
C472 O495 1.264 . S
O473 Mn468 2.095 . S
O473 C482 1.250 . S
O474 Mn469 2.121 . S
O474 C482 1.258 . S
C475 N476 1.326 . S
C475 C479 1.460 . S
C475 H481 0.929 . S
N476 Mn469 2.257 . S
N476 C475 1.326 . S
N476 C480 1.362 . S
C477 C478 1.258 . S
C477 C480 1.431 . S
C477 C497 1.449 . S
C478 C477 1.258 . S
C478 C479 1.477 . S
C478 H498 0.931 . S
C479 C475 1.460 . S
C479 C478 1.477 . S
C479 H499 0.930 . S
C480 N476 1.362 . S
C480 C477 1.431 . S
C480 C490 1.476 . S
H481 C475 0.929 . S
C482 O473 1.250 . S
C482 O474 1.258 . S
O483 Mn468 2.162 . S
O483 C471 1.281 . S
O484 Mn468 2.297 . S
O484 C471 1.236 . S
N485 Mn469 2.282 . S
N485 C486 1.328 . S
N485 C490 1.318 . S
C486 N485 1.328 . S
C486 C487 1.457 . S
C486 H491 0.929 . S
C487 C486 1.457 . S
C487 C488 1.291 . S
C487 H500 0.931 . S
C488 C487 1.291 . S
C488 C489 1.373 . S
C488 H501 0.929 . S
C489 C488 1.373 . S
C489 C490 1.396 . S
C489 C496 1.403 . S
C490 C480 1.476 . S
C490 N485 1.318 . S
C490 C489 1.396 . S
H491 C486 0.929 . S
O492 Mn468 2.385 . S
O492 C470 1.234 . S
O493 Mn468 2.209 . S
O493 Mn469 2.215 . S
O493 C470 1.283 . S
O494 Mn468 2.094 . S
O494 C472 1.240 . S
O495 Mn469 2.117 . S
O495 C472 1.264 . S
C496 C489 1.403 . S
C496 C497 1.399 . S
C496 H502 0.929 . S
C497 C477 1.449 . S
C497 C496 1.399 . S
C497 H503 0.930 . S
H498 C478 0.931 . S
H499 C479 0.930 . S
H500 C487 0.931 . S
H501 C488 0.929 . S
H502 C496 0.929 . S
H503 C497 0.930 . S
Mn504 O509 2.095 . S
Mn504 O519 2.162 . S
Mn504 O520 2.297 . S
Mn504 O528 2.385 . S
Mn504 O529 2.209 . S
Mn504 O530 2.094 . S
Mn505 O510 2.121 . S
Mn505 N512 2.257 . S
Mn505 N521 2.282 . S
Mn505 O529 2.215 . S
Mn505 O531 2.117 . S
C506 O528 1.234 . S
C506 O529 1.283 . S
C507 O519 1.281 . S
C507 O520 1.236 . S
C508 O530 1.240 . S
C508 O531 1.264 . S
O509 Mn504 2.095 . S
O509 C518 1.250 . S
O510 Mn505 2.121 . S
O510 C518 1.258 . S
C511 N512 1.326 . S
C511 C515 1.460 . S
C511 H517 0.929 . S
N512 Mn505 2.257 . S
N512 C511 1.326 . S
N512 C516 1.362 . S
C513 C514 1.258 . S
C513 C516 1.431 . S
C513 C533 1.449 . S
C514 C513 1.258 . S
C514 C515 1.477 . S
C514 H534 0.931 . S
C515 C511 1.460 . S
C515 C514 1.477 . S
C515 H535 0.930 . S
C516 N512 1.362 . S
C516 C513 1.431 . S
C516 C526 1.476 . S
H517 C511 0.929 . S
C518 O509 1.250 . S
C518 O510 1.258 . S
O519 Mn504 2.162 . S
O519 C507 1.281 . S
O520 Mn504 2.297 . S
O520 C507 1.236 . S
N521 Mn505 2.282 . S
N521 C522 1.328 . S
N521 C526 1.318 . S
C522 N521 1.328 . S
C522 C523 1.457 . S
C522 H527 0.929 . S
C523 C522 1.457 . S
C523 C524 1.291 . S
C523 H536 0.931 . S
C524 C523 1.291 . S
C524 C525 1.373 . S
C524 H537 0.929 . S
C525 C524 1.373 . S
C525 C526 1.396 . S
C525 C532 1.403 . S
C526 C516 1.476 . S
C526 N521 1.318 . S
C526 C525 1.396 . S
H527 C522 0.929 . S
O528 Mn504 2.385 . S
O528 C506 1.234 . S
O529 Mn504 2.209 . S
O529 Mn505 2.215 . S
O529 C506 1.283 . S
O530 Mn504 2.094 . S
O530 C508 1.240 . S
O531 Mn505 2.117 . S
O531 C508 1.264 . S
C532 C525 1.403 . S
C532 C533 1.399 . S
C532 H538 0.929 . S
C533 C513 1.449 . S
C533 C532 1.399 . S
C533 H539 0.930 . S
H534 C514 0.931 . S
H535 C515 0.930 . S
H536 C523 0.931 . S
H537 C524 0.929 . S
H538 C532 0.929 . S
H539 C533 0.930 . S
Mn540 O545 2.095 . S
Mn540 O555 2.162 . S
Mn540 O556 2.297 . S
Mn540 O564 2.385 . S
Mn540 O565 2.209 . S
Mn540 O566 2.094 . S
Mn541 O546 2.121 . S
Mn541 N548 2.257 . S
Mn541 N557 2.282 1_545 S
Mn541 O565 2.215 . S
Mn541 O567 2.117 1_545 S
C542 O564 1.234 . S
C542 O565 1.283 . S
C543 O555 1.281 . S
C543 O556 1.236 . S
C544 O566 1.240 1_565 S
C544 O567 1.264 . S
O545 Mn540 2.095 . S
O545 C554 1.250 . S
O546 Mn541 2.121 . S
O546 C554 1.258 . S
C547 N548 1.326 . S
C547 C551 1.460 . S
C547 H553 0.929 . S
N548 Mn541 2.257 . S
N548 C547 1.326 . S
N548 C552 1.362 1_545 S
C549 C550 1.258 1_565 S
C549 C552 1.431 . S
C549 C569 1.449 . S
C550 C549 1.258 1_545 S
C550 C551 1.477 . S
C550 H570 0.931 1_545 S
C551 C547 1.460 . S
C551 C550 1.477 . S
C551 H571 0.930 . S
C552 N548 1.362 1_565 S
C552 C549 1.431 . S
C552 C562 1.476 . S
H553 C547 0.929 . S
C554 O545 1.250 . S
C554 O546 1.258 . S
O555 Mn540 2.162 . S
O555 C543 1.281 . S
O556 Mn540 2.297 . S
O556 C543 1.236 . S
N557 Mn541 2.282 1_565 S
N557 C558 1.328 . S
N557 C562 1.318 . S
C558 N557 1.328 . S
C558 C559 1.457 . S
C558 H563 0.929 . S
C559 C558 1.457 . S
C559 C560 1.291 . S
C559 H572 0.931 . S
C560 C559 1.291 . S
C560 C561 1.373 . S
C560 H573 0.929 . S
C561 C560 1.373 . S
C561 C562 1.396 . S
C561 C568 1.403 . S
C562 C552 1.476 . S
C562 N557 1.318 . S
C562 C561 1.396 . S
H563 C558 0.929 . S
O564 Mn540 2.385 . S
O564 C542 1.234 . S
O565 Mn540 2.209 . S
O565 Mn541 2.215 . S
O565 C542 1.283 . S
O566 Mn540 2.094 . S
O566 C544 1.240 1_545 S
O567 Mn541 2.117 1_565 S
O567 C544 1.264 . S
C568 C561 1.403 . S
C568 C569 1.399 . S
C568 H574 0.929 . S
C569 C549 1.449 . S
C569 C568 1.399 . S
C569 H575 0.930 . S
H570 C550 0.931 1_565 S
H571 C551 0.930 . S
H572 C559 0.931 . S
H573 C560 0.929 . S
H574 C568 0.929 . S
H575 C569 0.930 . S
Mn576 O581 2.095 . S
Mn576 O591 2.162 . S
Mn576 O592 2.297 . S
Mn576 O600 2.385 . S
Mn576 O601 2.209 . S
Mn576 O602 2.094 . S
Mn577 O582 2.121 . S
Mn577 N584 2.257 . S
Mn577 N593 2.282 . S
Mn577 O601 2.215 . S
Mn577 O603 2.117 . S
C578 O600 1.234 . S
C578 O601 1.283 . S
C579 O591 1.281 . S
C579 O592 1.236 . S
C580 O602 1.240 . S
C580 O603 1.264 . S
O581 Mn576 2.095 . S
O581 C590 1.250 . S
O582 Mn577 2.121 . S
O582 C590 1.258 . S
C583 N584 1.326 . S
C583 C587 1.460 . S
C583 H589 0.929 . S
N584 Mn577 2.257 . S
N584 C583 1.326 . S
N584 C588 1.362 . S
C585 C586 1.258 . S
C585 C588 1.431 . S
C585 C605 1.449 . S
C586 C585 1.258 . S
C586 C587 1.477 . S
C586 H606 0.931 . S
C587 C583 1.460 . S
C587 C586 1.477 . S
C587 H607 0.930 . S
C588 N584 1.362 . S
C588 C585 1.431 . S
C588 C598 1.476 . S
H589 C583 0.929 . S
C590 O581 1.250 . S
C590 O582 1.258 . S
O591 Mn576 2.162 . S
O591 C579 1.281 . S
O592 Mn576 2.297 . S
O592 C579 1.236 . S
N593 Mn577 2.282 . S
N593 C594 1.328 . S
N593 C598 1.318 . S
C594 N593 1.328 . S
C594 C595 1.457 . S
C594 H599 0.929 . S
C595 C594 1.457 . S
C595 C596 1.291 . S
C595 H608 0.931 . S
C596 C595 1.291 . S
C596 C597 1.373 . S
C596 H609 0.929 . S
C597 C596 1.373 . S
C597 C598 1.396 . S
C597 C604 1.403 . S
C598 C588 1.476 . S
C598 N593 1.318 . S
C598 C597 1.396 . S
H599 C594 0.929 . S
O600 Mn576 2.385 . S
O600 C578 1.234 . S
O601 Mn576 2.209 . S
O601 Mn577 2.215 . S
O601 C578 1.283 . S
O602 Mn576 2.094 . S
O602 C580 1.240 . S
O603 Mn577 2.117 . S
O603 C580 1.264 . S
C604 C597 1.403 . S
C604 C605 1.399 . S
C604 H610 0.929 . S
C605 C585 1.449 . S
C605 C604 1.399 . S
C605 H611 0.930 . S
H606 C586 0.931 . S
H607 C587 0.930 . S
H608 C595 0.931 . S
H609 C596 0.929 . S
H610 C604 0.929 . S
H611 C605 0.930 . S
Mn612 O617 2.095 . S
Mn612 O627 2.162 . S
Mn612 O628 2.297 . S
Mn612 O636 2.385 . S
Mn612 O637 2.209 . S
Mn612 O638 2.094 . S
Mn613 O618 2.121 . S
Mn613 N620 2.257 . S
Mn613 N629 2.282 . S
Mn613 O637 2.215 . S
Mn613 O639 2.117 . S
C614 O636 1.234 . S
C614 O637 1.283 . S
C615 O627 1.281 . S
C615 O628 1.236 . S
C616 O638 1.240 . S
C616 O639 1.264 . S
O617 Mn612 2.095 . S
O617 C626 1.250 . S
O618 Mn613 2.121 . S
O618 C626 1.258 . S
C619 N620 1.326 . S
C619 C623 1.460 . S
C619 H625 0.929 . S
N620 Mn613 2.257 . S
N620 C619 1.326 . S
N620 C624 1.362 . S
C621 C622 1.258 . S
C621 C624 1.431 . S
C621 C641 1.449 . S
C622 C621 1.258 . S
C622 C623 1.477 . S
C622 H642 0.931 . S
C623 C619 1.460 . S
C623 C622 1.477 . S
C623 H643 0.930 . S
C624 N620 1.362 . S
C624 C621 1.431 . S
C624 C634 1.476 . S
H625 C619 0.929 . S
C626 O617 1.250 . S
C626 O618 1.258 . S
O627 Mn612 2.162 . S
O627 C615 1.281 . S
O628 Mn612 2.297 . S
O628 C615 1.236 . S
N629 Mn613 2.282 . S
N629 C630 1.328 . S
N629 C634 1.318 . S
C630 N629 1.328 . S
C630 C631 1.457 . S
C630 H635 0.929 . S
C631 C630 1.457 . S
C631 C632 1.291 . S
C631 H644 0.931 . S
C632 C631 1.291 . S
C632 C633 1.373 . S
C632 H645 0.929 . S
C633 C632 1.373 . S
C633 C634 1.396 . S
C633 C640 1.403 . S
C634 C624 1.476 . S
C634 N629 1.318 . S
C634 C633 1.396 . S
H635 C630 0.929 . S
O636 Mn612 2.385 . S
O636 C614 1.234 . S
O637 Mn612 2.209 . S
O637 Mn613 2.215 . S
O637 C614 1.283 . S
O638 Mn612 2.094 . S
O638 C616 1.240 . S
O639 Mn613 2.117 . S
O639 C616 1.264 . S
C640 C633 1.403 . S
C640 C641 1.399 . S
C640 H646 0.929 . S
C641 C621 1.449 . S
C641 C640 1.399 . S
C641 H647 0.930 . S
H642 C622 0.931 . S
H643 C623 0.930 . S
H644 C631 0.931 . S
H645 C632 0.929 . S
H646 C640 0.929 . S
H647 C641 0.930 . S
Mn648 O653 2.095 . S
Mn648 O663 2.162 . S
Mn648 O664 2.297 . S
Mn648 O672 2.385 . S
Mn648 O673 2.209 . S
Mn648 O674 2.094 . S
Mn649 O654 2.121 . S
Mn649 N656 2.257 . S
Mn649 N665 2.282 . S
Mn649 O673 2.215 . S
Mn649 O675 2.117 . S
C650 O672 1.234 . S
C650 O673 1.283 . S
C651 O663 1.281 . S
C651 O664 1.236 . S
C652 O674 1.240 . S
C652 O675 1.264 . S
O653 Mn648 2.095 . S
O653 C662 1.250 . S
O654 Mn649 2.121 . S
O654 C662 1.258 . S
C655 N656 1.326 . S
C655 C659 1.460 . S
C655 H661 0.929 . S
N656 Mn649 2.257 . S
N656 C655 1.326 . S
N656 C660 1.362 . S
C657 C658 1.258 . S
C657 C660 1.431 . S
C657 C677 1.449 . S
C658 C657 1.258 . S
C658 C659 1.477 . S
C658 H678 0.931 . S
C659 C655 1.460 . S
C659 C658 1.477 . S
C659 H679 0.930 . S
C660 N656 1.362 . S
C660 C657 1.431 . S
C660 C670 1.476 . S
H661 C655 0.929 . S
C662 O653 1.250 . S
C662 O654 1.258 . S
O663 Mn648 2.162 . S
O663 C651 1.281 . S
O664 Mn648 2.297 . S
O664 C651 1.236 . S
N665 Mn649 2.282 . S
N665 C666 1.328 . S
N665 C670 1.318 . S
C666 N665 1.328 . S
C666 C667 1.457 . S
C666 H671 0.929 . S
C667 C666 1.457 . S
C667 C668 1.291 . S
C667 H680 0.931 . S
C668 C667 1.291 . S
C668 C669 1.373 . S
C668 H681 0.929 . S
C669 C668 1.373 . S
C669 C670 1.396 . S
C669 C676 1.403 . S
C670 C660 1.476 . S
C670 N665 1.318 . S
C670 C669 1.396 . S
H671 C666 0.929 . S
O672 Mn648 2.385 . S
O672 C650 1.234 . S
O673 Mn648 2.209 . S
O673 Mn649 2.215 . S
O673 C650 1.283 . S
O674 Mn648 2.094 . S
O674 C652 1.240 . S
O675 Mn649 2.117 . S
O675 C652 1.264 . S
C676 C669 1.403 . S
C676 C677 1.399 . S
C676 H682 0.929 . S
C677 C657 1.449 . S
C677 C676 1.399 . S
C677 H683 0.930 . S
H678 C658 0.931 . S
H679 C659 0.930 . S
H680 C667 0.931 . S
H681 C668 0.929 . S
H682 C676 0.929 . S
H683 C677 0.930 . S
Mn684 O689 2.095 . S
Mn684 O699 2.162 . S
Mn684 O700 2.297 . S
Mn684 O708 2.385 . S
Mn684 O709 2.209 . S
Mn684 O710 2.094 . S
Mn685 O690 2.121 . S
Mn685 N692 2.257 . S
Mn685 N701 2.282 . S
Mn685 O709 2.215 . S
Mn685 O711 2.117 . S
C686 O708 1.234 . S
C686 O709 1.283 . S
C687 O699 1.281 . S
C687 O700 1.236 . S
C688 O710 1.240 . S
C688 O711 1.264 . S
O689 Mn684 2.095 . S
O689 C698 1.250 . S
O690 Mn685 2.121 . S
O690 C698 1.258 . S
C691 N692 1.326 . S
C691 C695 1.460 . S
C691 H697 0.929 . S
N692 Mn685 2.257 . S
N692 C691 1.326 . S
N692 C696 1.362 . S
C693 C694 1.258 . S
C693 C696 1.431 . S
C693 C713 1.449 . S
C694 C693 1.258 . S
C694 C695 1.477 . S
C694 H714 0.931 . S
C695 C691 1.460 . S
C695 C694 1.477 . S
C695 H715 0.930 . S
C696 N692 1.362 . S
C696 C693 1.431 . S
C696 C706 1.476 . S
H697 C691 0.929 . S
C698 O689 1.250 . S
C698 O690 1.258 . S
O699 Mn684 2.162 . S
O699 C687 1.281 . S
O700 Mn684 2.297 . S
O700 C687 1.236 . S
N701 Mn685 2.282 . S
N701 C702 1.328 . S
N701 C706 1.318 . S
C702 N701 1.328 . S
C702 C703 1.457 . S
C702 H707 0.929 . S
C703 C702 1.457 . S
C703 C704 1.291 . S
C703 H716 0.931 . S
C704 C703 1.291 . S
C704 C705 1.373 . S
C704 H717 0.929 . S
C705 C704 1.373 . S
C705 C706 1.396 . S
C705 C712 1.403 . S
C706 C696 1.476 . S
C706 N701 1.318 . S
C706 C705 1.396 . S
H707 C702 0.929 . S
O708 Mn684 2.385 . S
O708 C686 1.234 . S
O709 Mn684 2.209 . S
O709 Mn685 2.215 . S
O709 C686 1.283 . S
O710 Mn684 2.094 . S
O710 C688 1.240 . S
O711 Mn685 2.117 . S
O711 C688 1.264 . S
C712 C705 1.403 . S
C712 C713 1.399 . S
C712 H718 0.929 . S
C713 C693 1.449 . S
C713 C712 1.399 . S
C713 H719 0.930 . S
H714 C694 0.931 . S
H715 C695 0.930 . S
H716 C703 0.931 . S
H717 C704 0.929 . S
H718 C712 0.929 . S
H719 C713 0.930 . S
Mn720 O725 2.095 . S
Mn720 O735 2.162 . S
Mn720 O736 2.297 . S
Mn720 O744 2.385 . S
Mn720 O745 2.209 . S
Mn720 O746 2.094 . S
Mn721 O726 2.121 . S
Mn721 N728 2.257 . S
Mn721 N737 2.282 . S
Mn721 O745 2.215 . S
Mn721 O747 2.117 . S
C722 O744 1.234 . S
C722 O745 1.283 . S
C723 O735 1.281 . S
C723 O736 1.236 . S
C724 O746 1.240 . S
C724 O747 1.264 . S
O725 Mn720 2.095 . S
O725 C734 1.250 . S
O726 Mn721 2.121 . S
O726 C734 1.258 . S
C727 N728 1.326 . S
C727 C731 1.460 . S
C727 H733 0.929 . S
N728 Mn721 2.257 . S
N728 C727 1.326 . S
N728 C732 1.362 . S
C729 C730 1.258 . S
C729 C732 1.431 . S
C729 C749 1.449 . S
C730 C729 1.258 . S
C730 C731 1.477 . S
C730 H750 0.931 . S
C731 C727 1.460 . S
C731 C730 1.477 . S
C731 H751 0.930 . S
C732 N728 1.362 . S
C732 C729 1.431 . S
C732 C742 1.476 . S
H733 C727 0.929 . S
C734 O725 1.250 . S
C734 O726 1.258 . S
O735 Mn720 2.162 . S
O735 C723 1.281 . S
O736 Mn720 2.297 . S
O736 C723 1.236 . S
N737 Mn721 2.282 . S
N737 C738 1.328 . S
N737 C742 1.318 . S
C738 N737 1.328 . S
C738 C739 1.457 . S
C738 H743 0.929 . S
C739 C738 1.457 . S
C739 C740 1.291 . S
C739 H752 0.931 . S
C740 C739 1.291 . S
C740 C741 1.373 . S
C740 H753 0.929 . S
C741 C740 1.373 . S
C741 C742 1.396 . S
C741 C748 1.403 . S
C742 C732 1.476 . S
C742 N737 1.318 . S
C742 C741 1.396 . S
H743 C738 0.929 . S
O744 Mn720 2.385 . S
O744 C722 1.234 . S
O745 Mn720 2.209 . S
O745 Mn721 2.215 . S
O745 C722 1.283 . S
O746 Mn720 2.094 . S
O746 C724 1.240 . S
O747 Mn721 2.117 . S
O747 C724 1.264 . S
C748 C741 1.403 . S
C748 C749 1.399 . S
C748 H754 0.929 . S
C749 C729 1.449 . S
C749 C748 1.399 . S
C749 H755 0.930 . S
H750 C730 0.931 . S
H751 C731 0.930 . S
H752 C739 0.931 . S
H753 C740 0.929 . S
H754 C748 0.929 . S
H755 C749 0.930 . S
Mn756 O761 2.095 . S
Mn756 O771 2.162 . S
Mn756 O772 2.297 . S
Mn756 O780 2.385 . S
Mn756 O781 2.209 . S
Mn756 O782 2.094 . S
Mn757 O762 2.121 . S
Mn757 N764 2.257 . S
Mn757 N773 2.282 . S
Mn757 O781 2.215 . S
Mn757 O783 2.117 . S
C758 O780 1.234 . S
C758 O781 1.283 . S
C759 O771 1.281 . S
C759 O772 1.236 . S
C760 O782 1.240 . S
C760 O783 1.264 . S
O761 Mn756 2.095 . S
O761 C770 1.250 . S
O762 Mn757 2.121 . S
O762 C770 1.258 . S
C763 N764 1.326 . S
C763 C767 1.460 . S
C763 H769 0.929 . S
N764 Mn757 2.257 . S
N764 C763 1.326 . S
N764 C768 1.362 . S
C765 C766 1.258 . S
C765 C768 1.431 . S
C765 C785 1.449 . S
C766 C765 1.258 . S
C766 C767 1.477 . S
C766 H786 0.931 . S
C767 C763 1.460 . S
C767 C766 1.477 . S
C767 H787 0.930 . S
C768 N764 1.362 . S
C768 C765 1.431 . S
C768 C778 1.476 . S
H769 C763 0.929 . S
C770 O761 1.250 . S
C770 O762 1.258 . S
O771 Mn756 2.162 . S
O771 C759 1.281 . S
O772 Mn756 2.297 . S
O772 C759 1.236 . S
N773 Mn757 2.282 . S
N773 C774 1.328 . S
N773 C778 1.318 . S
C774 N773 1.328 . S
C774 C775 1.457 . S
C774 H779 0.929 . S
C775 C774 1.457 . S
C775 C776 1.291 . S
C775 H788 0.931 . S
C776 C775 1.291 . S
C776 C777 1.373 . S
C776 H789 0.929 . S
C777 C776 1.373 . S
C777 C778 1.396 . S
C777 C784 1.403 . S
C778 C768 1.476 . S
C778 N773 1.318 . S
C778 C777 1.396 . S
H779 C774 0.929 . S
O780 Mn756 2.385 . S
O780 C758 1.234 . S
O781 Mn756 2.209 . S
O781 Mn757 2.215 . S
O781 C758 1.283 . S
O782 Mn756 2.094 . S
O782 C760 1.240 . S
O783 Mn757 2.117 . S
O783 C760 1.264 . S
C784 C777 1.403 . S
C784 C785 1.399 . S
C784 H790 0.929 . S
C785 C765 1.449 . S
C785 C784 1.399 . S
C785 H791 0.930 . S
H786 C766 0.931 . S
H787 C767 0.930 . S
H788 C775 0.931 . S
H789 C776 0.929 . S
H790 C784 0.929 . S
H791 C785 0.930 . S
Mn792 O797 2.095 . S
Mn792 O807 2.162 . S
Mn792 O808 2.297 . S
Mn792 O816 2.385 . S
Mn792 O817 2.209 . S
Mn792 O818 2.094 . S
Mn793 O798 2.121 . S
Mn793 N800 2.257 . S
Mn793 N809 2.282 . S
Mn793 O817 2.215 . S
Mn793 O819 2.117 . S
C794 O816 1.234 . S
C794 O817 1.283 . S
C795 O807 1.281 . S
C795 O808 1.236 . S
C796 O818 1.240 . S
C796 O819 1.264 . S
O797 Mn792 2.095 . S
O797 C806 1.250 . S
O798 Mn793 2.121 . S
O798 C806 1.258 . S
C799 N800 1.326 . S
C799 C803 1.460 . S
C799 H805 0.929 . S
N800 Mn793 2.257 . S
N800 C799 1.326 . S
N800 C804 1.362 . S
C801 C802 1.258 . S
C801 C804 1.431 . S
C801 C821 1.449 . S
C802 C801 1.258 . S
C802 C803 1.477 . S
C802 H822 0.931 . S
C803 C799 1.460 . S
C803 C802 1.477 . S
C803 H823 0.930 . S
C804 N800 1.362 . S
C804 C801 1.431 . S
C804 C814 1.476 . S
H805 C799 0.929 . S
C806 O797 1.250 . S
C806 O798 1.258 . S
O807 Mn792 2.162 . S
O807 C795 1.281 . S
O808 Mn792 2.297 . S
O808 C795 1.236 . S
N809 Mn793 2.282 . S
N809 C810 1.328 . S
N809 C814 1.318 . S
C810 N809 1.328 . S
C810 C811 1.457 . S
C810 H815 0.929 . S
C811 C810 1.457 . S
C811 C812 1.291 . S
C811 H824 0.931 . S
C812 C811 1.291 . S
C812 C813 1.373 . S
C812 H825 0.929 . S
C813 C812 1.373 . S
C813 C814 1.396 . S
C813 C820 1.403 . S
C814 C804 1.476 . S
C814 N809 1.318 . S
C814 C813 1.396 . S
H815 C810 0.929 . S
O816 Mn792 2.385 . S
O816 C794 1.234 . S
O817 Mn792 2.209 . S
O817 Mn793 2.215 . S
O817 C794 1.283 . S
O818 Mn792 2.094 . S
O818 C796 1.240 . S
O819 Mn793 2.117 . S
O819 C796 1.264 . S
C820 C813 1.403 . S
C820 C821 1.399 . S
C820 H826 0.929 . S
C821 C801 1.449 . S
C821 C820 1.399 . S
C821 H827 0.930 . S
H822 C802 0.931 . S
H823 C803 0.930 . S
H824 C811 0.931 . S
H825 C812 0.929 . S
H826 C820 0.929 . S
H827 C821 0.930 . S
Mn828 O833 2.095 . S
Mn828 O843 2.162 . S
Mn828 O844 2.297 . S
Mn828 O852 2.385 . S
Mn828 O853 2.209 . S
Mn828 O854 2.094 . S
Mn829 O834 2.121 . S
Mn829 N836 2.257 . S
Mn829 N845 2.282 . S
Mn829 O853 2.215 . S
Mn829 O855 2.117 . S
C830 O852 1.234 . S
C830 O853 1.283 . S
C831 O843 1.281 . S
C831 O844 1.236 . S
C832 O854 1.240 . S
C832 O855 1.264 . S
O833 Mn828 2.095 . S
O833 C842 1.250 . S
O834 Mn829 2.121 . S
O834 C842 1.258 . S
C835 N836 1.326 . S
C835 C839 1.460 . S
C835 H841 0.929 . S
N836 Mn829 2.257 . S
N836 C835 1.326 . S
N836 C840 1.362 . S
C837 C838 1.258 . S
C837 C840 1.431 . S
C837 C857 1.449 . S
C838 C837 1.258 . S
C838 C839 1.477 . S
C838 H858 0.931 . S
C839 C835 1.460 . S
C839 C838 1.477 . S
C839 H859 0.930 . S
C840 N836 1.362 . S
C840 C837 1.431 . S
C840 C850 1.476 . S
H841 C835 0.929 . S
C842 O833 1.250 . S
C842 O834 1.258 . S
O843 Mn828 2.162 . S
O843 C831 1.281 . S
O844 Mn828 2.297 . S
O844 C831 1.236 . S
N845 Mn829 2.282 . S
N845 C846 1.328 . S
N845 C850 1.318 . S
C846 N845 1.328 . S
C846 C847 1.457 . S
C846 H851 0.929 . S
C847 C846 1.457 . S
C847 C848 1.291 . S
C847 H860 0.931 . S
C848 C847 1.291 . S
C848 C849 1.373 . S
C848 H861 0.929 . S
C849 C848 1.373 . S
C849 C850 1.396 . S
C849 C856 1.403 . S
C850 C840 1.476 . S
C850 N845 1.318 . S
C850 C849 1.396 . S
H851 C846 0.929 . S
O852 Mn828 2.385 . S
O852 C830 1.234 . S
O853 Mn828 2.209 . S
O853 Mn829 2.215 . S
O853 C830 1.283 . S
O854 Mn828 2.094 . S
O854 C832 1.240 . S
O855 Mn829 2.117 . S
O855 C832 1.264 . S
C856 C849 1.403 . S
C856 C857 1.399 . S
C856 H862 0.929 . S
C857 C837 1.449 . S
C857 C856 1.399 . S
C857 H863 0.930 . S
H858 C838 0.931 . S
H859 C839 0.930 . S
H860 C847 0.931 . S
H861 C848 0.929 . S
H862 C856 0.929 . S
H863 C857 0.930 . S
Mn864 O869 2.095 . S
Mn864 O879 2.162 . S
Mn864 O880 2.297 . S
Mn864 O888 2.385 1_565 S
Mn864 O889 2.209 . S
Mn864 O890 2.094 . S
Mn865 O870 2.121 . S
Mn865 N872 2.257 . S
Mn865 N881 2.282 . S
Mn865 O889 2.215 . S
Mn865 O891 2.117 . S
C866 O888 1.234 1_565 S
C866 O889 1.283 . S
C867 O879 1.281 . S
C867 O880 1.236 . S
C868 O890 1.240 . S
C868 O891 1.264 . S
O869 Mn864 2.095 . S
O869 C878 1.250 . S
O870 Mn865 2.121 . S
O870 C878 1.258 . S
C871 N872 1.326 . S
C871 C875 1.460 . S
C871 H877 0.929 . S
N872 Mn865 2.257 . S
N872 C871 1.326 . S
N872 C876 1.362 . S
C873 C874 1.258 . S
C873 C876 1.431 . S
C873 C893 1.449 1_565 S
C874 C873 1.258 . S
C874 C875 1.477 . S
C874 H894 0.931 . S
C875 C871 1.460 . S
C875 C874 1.477 . S
C875 H895 0.930 . S
C876 N872 1.362 . S
C876 C873 1.431 . S
C876 C886 1.476 . S
H877 C871 0.929 . S
C878 O869 1.250 . S
C878 O870 1.258 . S
O879 Mn864 2.162 . S
O879 C867 1.281 . S
O880 Mn864 2.297 . S
O880 C867 1.236 . S
N881 Mn865 2.282 . S
N881 C882 1.328 1_565 S
N881 C886 1.318 . S
C882 N881 1.328 1_545 S
C882 C883 1.457 . S
C882 H887 0.929 1_545 S
C883 C882 1.457 . S
C883 C884 1.291 . S
C883 H896 0.931 . S
C884 C883 1.291 . S
C884 C885 1.373 . S
C884 H897 0.929 . S
C885 C884 1.373 . S
C885 C886 1.396 1_545 S
C885 C892 1.403 . S
C886 C876 1.476 . S
C886 N881 1.318 . S
C886 C885 1.396 1_565 S
H887 C882 0.929 1_565 S
O888 Mn864 2.385 1_545 S
O888 C866 1.234 1_545 S
O889 Mn864 2.209 . S
O889 Mn865 2.215 . S
O889 C866 1.283 . S
O890 Mn864 2.094 . S
O890 C868 1.240 . S
O891 Mn865 2.117 . S
O891 C868 1.264 . S
C892 C885 1.403 . S
C892 C893 1.399 . S
C892 H898 0.929 . S
C893 C873 1.449 1_545 S
C893 C892 1.399 . S
C893 H899 0.930 . S
H894 C874 0.931 . S
H895 C875 0.930 . S
H896 C883 0.931 . S
H897 C884 0.929 . S
H898 C892 0.929 . S
H899 C893 0.930 . S
Mn900 O905 2.095 . S
Mn900 O915 2.162 . S
Mn900 O916 2.297 . S
Mn900 O924 2.385 . S
Mn900 O925 2.209 . S
Mn900 O926 2.094 . S
Mn901 O906 2.121 . S
Mn901 N908 2.257 . S
Mn901 N917 2.282 . S
Mn901 O925 2.215 . S
Mn901 O927 2.117 . S
C902 O924 1.234 . S
C902 O925 1.283 . S
C903 O915 1.281 . S
C903 O916 1.236 . S
C904 O926 1.240 . S
C904 O927 1.264 . S
O905 Mn900 2.095 . S
O905 C914 1.250 . S
O906 Mn901 2.121 . S
O906 C914 1.258 . S
C907 N908 1.326 . S
C907 C911 1.460 . S
C907 H913 0.929 . S
N908 Mn901 2.257 . S
N908 C907 1.326 . S
N908 C912 1.362 . S
C909 C910 1.258 . S
C909 C912 1.431 . S
C909 C929 1.449 . S
C910 C909 1.258 . S
C910 C911 1.477 . S
C910 H930 0.931 . S
C911 C907 1.460 . S
C911 C910 1.477 . S
C911 H931 0.930 . S
C912 N908 1.362 . S
C912 C909 1.431 . S
C912 C922 1.476 . S
H913 C907 0.929 . S
C914 O905 1.250 . S
C914 O906 1.258 . S
O915 Mn900 2.162 . S
O915 C903 1.281 . S
O916 Mn900 2.297 . S
O916 C903 1.236 . S
N917 Mn901 2.282 . S
N917 C918 1.328 . S
N917 C922 1.318 . S
C918 N917 1.328 . S
C918 C919 1.457 . S
C918 H923 0.929 . S
C919 C918 1.457 . S
C919 C920 1.291 . S
C919 H932 0.931 . S
C920 C919 1.291 . S
C920 C921 1.373 . S
C920 H933 0.929 . S
C921 C920 1.373 . S
C921 C922 1.396 . S
C921 C928 1.403 . S
C922 C912 1.476 . S
C922 N917 1.318 . S
C922 C921 1.396 . S
H923 C918 0.929 . S
O924 Mn900 2.385 . S
O924 C902 1.234 . S
O925 Mn900 2.209 . S
O925 Mn901 2.215 . S
O925 C902 1.283 . S
O926 Mn900 2.094 . S
O926 C904 1.240 . S
O927 Mn901 2.117 . S
O927 C904 1.264 . S
C928 C921 1.403 . S
C928 C929 1.399 . S
C928 H934 0.929 . S
C929 C909 1.449 . S
C929 C928 1.399 . S
C929 H935 0.930 . S
H930 C910 0.931 . S
H931 C911 0.930 . S
H932 C919 0.931 . S
H933 C920 0.929 . S
H934 C928 0.929 . S
H935 C929 0.930 . S
Mn936 O941 2.095 . S
Mn936 O951 2.162 . S
Mn936 O952 2.297 . S
Mn936 O960 2.385 . S
Mn936 O961 2.209 . S
Mn936 O962 2.094 . S
Mn937 O942 2.121 . S
Mn937 N944 2.257 . S
Mn937 N953 2.282 . S
Mn937 O961 2.215 . S
Mn937 O963 2.117 . S
C938 O960 1.234 . S
C938 O961 1.283 . S
C939 O951 1.281 . S
C939 O952 1.236 . S
C940 O962 1.240 . S
C940 O963 1.264 . S
O941 Mn936 2.095 . S
O941 C950 1.250 . S
O942 Mn937 2.121 . S
O942 C950 1.258 . S
C943 N944 1.326 . S
C943 C947 1.460 . S
C943 H949 0.929 . S
N944 Mn937 2.257 . S
N944 C943 1.326 . S
N944 C948 1.362 . S
C945 C946 1.258 . S
C945 C948 1.431 . S
C945 C965 1.449 . S
C946 C945 1.258 . S
C946 C947 1.477 . S
C946 H966 0.931 . S
C947 C943 1.460 . S
C947 C946 1.477 . S
C947 H967 0.930 . S
C948 N944 1.362 . S
C948 C945 1.431 . S
C948 C958 1.476 . S
H949 C943 0.929 . S
C950 O941 1.250 . S
C950 O942 1.258 . S
O951 Mn936 2.162 . S
O951 C939 1.281 . S
O952 Mn936 2.297 . S
O952 C939 1.236 . S
N953 Mn937 2.282 . S
N953 C954 1.328 . S
N953 C958 1.318 . S
C954 N953 1.328 . S
C954 C955 1.457 . S
C954 H959 0.929 . S
C955 C954 1.457 . S
C955 C956 1.291 . S
C955 H968 0.931 . S
C956 C955 1.291 . S
C956 C957 1.373 . S
C956 H969 0.929 . S
C957 C956 1.373 . S
C957 C958 1.396 . S
C957 C964 1.403 . S
C958 C948 1.476 . S
C958 N953 1.318 . S
C958 C957 1.396 . S
H959 C954 0.929 . S
O960 Mn936 2.385 . S
O960 C938 1.234 . S
O961 Mn936 2.209 . S
O961 Mn937 2.215 . S
O961 C938 1.283 . S
O962 Mn936 2.094 . S
O962 C940 1.240 . S
O963 Mn937 2.117 . S
O963 C940 1.264 . S
C964 C957 1.403 . S
C964 C965 1.399 . S
C964 H970 0.929 . S
C965 C945 1.449 . S
C965 C964 1.399 . S
C965 H971 0.930 . S
H966 C946 0.931 . S
H967 C947 0.930 . S
H968 C955 0.931 . S
H969 C956 0.929 . S
H970 C964 0.929 . S
H971 C965 0.930 . S
Mn972 O977 2.095 . S
Mn972 O987 2.162 . S
Mn972 O988 2.297 . S
Mn972 O996 2.385 1_565 S
Mn972 O997 2.209 . S
Mn972 O998 2.094 . S
Mn973 O978 2.121 . S
Mn973 N980 2.257 . S
Mn973 N989 2.282 . S
Mn973 O997 2.215 . S
Mn973 O999 2.117 . S
C974 O996 1.234 1_565 S
C974 O997 1.283 . S
C975 O987 1.281 . S
C975 O988 1.236 . S
C976 O998 1.240 . S
C976 O999 1.264 . S
O977 Mn972 2.095 . S
O977 C986 1.250 . S
O978 Mn973 2.121 . S
O978 C986 1.258 . S
C979 N980 1.326 . S
C979 C983 1.460 . S
C979 H985 0.929 . S
N980 Mn973 2.257 . S
N980 C979 1.326 . S
N980 C984 1.362 . S
C981 C982 1.258 . S
C981 C984 1.431 . S
C981 C1001 1.449 1_565 S
C982 C981 1.258 . S
C982 C983 1.477 . S
C982 H1002 0.931 . S
C983 C979 1.460 . S
C983 C982 1.477 . S
C983 H1003 0.930 . S
C984 N980 1.362 . S
C984 C981 1.431 . S
C984 C994 1.476 . S
H985 C979 0.929 . S
C986 O977 1.250 . S
C986 O978 1.258 . S
O987 Mn972 2.162 . S
O987 C975 1.281 . S
O988 Mn972 2.297 . S
O988 C975 1.236 . S
N989 Mn973 2.282 . S
N989 C990 1.328 1_565 S
N989 C994 1.318 . S
C990 N989 1.328 1_545 S
C990 C991 1.457 . S
C990 H995 0.929 1_545 S
C991 C990 1.457 . S
C991 C992 1.291 . S
C991 H1004 0.931 . S
C992 C991 1.291 . S
C992 C993 1.373 . S
C992 H1005 0.929 . S
C993 C992 1.373 . S
C993 C994 1.396 1_545 S
C993 C1000 1.403 . S
C994 C984 1.476 . S
C994 N989 1.318 . S
C994 C993 1.396 1_565 S
H995 C990 0.929 1_565 S
O996 Mn972 2.385 1_545 S
O996 C974 1.234 1_545 S
O997 Mn972 2.209 . S
O997 Mn973 2.215 . S
O997 C974 1.283 . S
O998 Mn972 2.094 . S
O998 C976 1.240 . S
O999 Mn973 2.117 . S
O999 C976 1.264 . S
C1000 C993 1.403 . S
C1000 C1001 1.399 . S
C1000 H1006 0.929 . S
C1001 C981 1.449 1_545 S
C1001 C1000 1.399 . S
C1001 H1007 0.930 . S
H1002 C982 0.931 . S
H1003 C983 0.930 . S
H1004 C991 0.931 . S
H1005 C992 0.929 . S
H1006 C1000 0.929 . S
H1007 C1001 0.930 . S
Mn1008 O1013 2.095 . S
Mn1008 O1023 2.162 . S
Mn1008 O1024 2.297 . S
Mn1008 O1032 2.385 . S
Mn1008 O1033 2.209 . S
Mn1008 O1034 2.094 . S
Mn1009 O1014 2.121 . S
Mn1009 N1016 2.257 . S
Mn1009 N1025 2.282 1_545 S
Mn1009 O1033 2.215 . S
Mn1009 O1035 2.117 1_545 S
C1010 O1032 1.234 . S
C1010 O1033 1.283 . S
C1011 O1023 1.281 . S
C1011 O1024 1.236 . S
C1012 O1034 1.240 1_565 S
C1012 O1035 1.264 . S
O1013 Mn1008 2.095 . S
O1013 C1022 1.250 . S
O1014 Mn1009 2.121 . S
O1014 C1022 1.258 . S
C1015 N1016 1.326 . S
C1015 C1019 1.460 . S
C1015 H1021 0.929 . S
N1016 Mn1009 2.257 . S
N1016 C1015 1.326 . S
N1016 C1020 1.362 1_545 S
C1017 C1018 1.258 1_565 S
C1017 C1020 1.431 . S
C1017 C1037 1.449 . S
C1018 C1017 1.258 1_545 S
C1018 C1019 1.477 . S
C1018 H1038 0.931 1_545 S
C1019 C1015 1.460 . S
C1019 C1018 1.477 . S
C1019 H1039 0.930 1_556 S
C1020 N1016 1.362 1_565 S
C1020 C1017 1.431 . S
C1020 C1030 1.476 . S
H1021 C1015 0.929 . S
C1022 O1013 1.250 . S
C1022 O1014 1.258 . S
O1023 Mn1008 2.162 . S
O1023 C1011 1.281 . S
O1024 Mn1008 2.297 . S
O1024 C1011 1.236 . S
N1025 Mn1009 2.282 1_565 S
N1025 C1026 1.328 . S
N1025 C1030 1.318 . S
C1026 N1025 1.328 . S
C1026 C1027 1.457 . S
C1026 H1031 0.929 . S
C1027 C1026 1.457 . S
C1027 C1028 1.291 . S
C1027 H1040 0.931 . S
C1028 C1027 1.291 . S
C1028 C1029 1.373 . S
C1028 H1041 0.929 . S
C1029 C1028 1.373 . S
C1029 C1030 1.396 . S
C1029 C1036 1.403 . S
C1030 C1020 1.476 . S
C1030 N1025 1.318 . S
C1030 C1029 1.396 . S
H1031 C1026 0.929 . S
O1032 Mn1008 2.385 . S
O1032 C1010 1.234 . S
O1033 Mn1008 2.209 . S
O1033 Mn1009 2.215 . S
O1033 C1010 1.283 . S
O1034 Mn1008 2.094 . S
O1034 C1012 1.240 1_545 S
O1035 Mn1009 2.117 1_565 S
O1035 C1012 1.264 . S
C1036 C1029 1.403 . S
C1036 C1037 1.399 . S
C1036 H1042 0.929 . S
C1037 C1017 1.449 . S
C1037 C1036 1.399 . S
C1037 H1043 0.930 . S
H1038 C1018 0.931 1_565 S
H1039 C1019 0.930 1_554 S
H1040 C1027 0.931 . S
H1041 C1028 0.929 . S
H1042 C1036 0.929 . S
H1043 C1037 0.930 . S
Mn1044 O1049 2.095 . S
Mn1044 O1059 2.162 . S
Mn1044 O1060 2.297 . S
Mn1044 O1068 2.385 . S
Mn1044 O1069 2.209 . S
Mn1044 O1070 2.094 . S
Mn1045 O1050 2.121 . S
Mn1045 N1052 2.257 . S
Mn1045 N1061 2.282 . S
Mn1045 O1069 2.215 . S
Mn1045 O1071 2.117 . S
C1046 O1068 1.234 . S
C1046 O1069 1.283 . S
C1047 O1059 1.281 . S
C1047 O1060 1.236 . S
C1048 O1070 1.240 . S
C1048 O1071 1.264 . S
O1049 Mn1044 2.095 . S
O1049 C1058 1.250 . S
O1050 Mn1045 2.121 . S
O1050 C1058 1.258 . S
C1051 N1052 1.326 . S
C1051 C1055 1.460 . S
C1051 H1057 0.929 . S
N1052 Mn1045 2.257 . S
N1052 C1051 1.326 . S
N1052 C1056 1.362 . S
C1053 C1054 1.258 . S
C1053 C1056 1.431 . S
C1053 C1073 1.449 . S
C1054 C1053 1.258 . S
C1054 C1055 1.477 . S
C1054 H1074 0.931 . S
C1055 C1051 1.460 . S
C1055 C1054 1.477 . S
C1055 H1075 0.930 1_556 S
C1056 N1052 1.362 . S
C1056 C1053 1.431 . S
C1056 C1066 1.476 . S
H1057 C1051 0.929 . S
C1058 O1049 1.250 . S
C1058 O1050 1.258 . S
O1059 Mn1044 2.162 . S
O1059 C1047 1.281 . S
O1060 Mn1044 2.297 . S
O1060 C1047 1.236 . S
N1061 Mn1045 2.282 . S
N1061 C1062 1.328 . S
N1061 C1066 1.318 . S
C1062 N1061 1.328 . S
C1062 C1063 1.457 . S
C1062 H1067 0.929 . S
C1063 C1062 1.457 . S
C1063 C1064 1.291 . S
C1063 H1076 0.931 . S
C1064 C1063 1.291 . S
C1064 C1065 1.373 . S
C1064 H1077 0.929 . S
C1065 C1064 1.373 . S
C1065 C1066 1.396 . S
C1065 C1072 1.403 . S
C1066 C1056 1.476 . S
C1066 N1061 1.318 . S
C1066 C1065 1.396 . S
H1067 C1062 0.929 . S
O1068 Mn1044 2.385 . S
O1068 C1046 1.234 . S
O1069 Mn1044 2.209 . S
O1069 Mn1045 2.215 . S
O1069 C1046 1.283 . S
O1070 Mn1044 2.094 . S
O1070 C1048 1.240 . S
O1071 Mn1045 2.117 . S
O1071 C1048 1.264 . S
C1072 C1065 1.403 . S
C1072 C1073 1.399 . S
C1072 H1078 0.929 . S
C1073 C1053 1.449 . S
C1073 C1072 1.399 . S
C1073 H1079 0.930 . S
H1074 C1054 0.931 . S
H1075 C1055 0.930 1_554 S
H1076 C1063 0.931 . S
H1077 C1064 0.929 . S
H1078 C1072 0.929 . S
H1079 C1073 0.930 . S
Mn1080 O1085 2.095 . S
Mn1080 O1095 2.162 . S
Mn1080 O1096 2.297 . S
Mn1080 O1104 2.385 . S
Mn1080 O1105 2.209 . S
Mn1080 O1106 2.094 . S
Mn1081 O1086 2.121 . S
Mn1081 N1088 2.257 . S
Mn1081 N1097 2.282 . S
Mn1081 O1105 2.215 . S
Mn1081 O1107 2.117 . S
C1082 O1104 1.234 . S
C1082 O1105 1.283 . S
C1083 O1095 1.281 . S
C1083 O1096 1.236 . S
C1084 O1106 1.240 . S
C1084 O1107 1.264 . S
O1085 Mn1080 2.095 . S
O1085 C1094 1.250 . S
O1086 Mn1081 2.121 . S
O1086 C1094 1.258 . S
C1087 N1088 1.326 . S
C1087 C1091 1.460 . S
C1087 H1093 0.929 . S
N1088 Mn1081 2.257 . S
N1088 C1087 1.326 . S
N1088 C1092 1.362 . S
C1089 C1090 1.258 . S
C1089 C1092 1.431 . S
C1089 C1109 1.449 . S
C1090 C1089 1.258 . S
C1090 C1091 1.477 . S
C1090 H1110 0.931 . S
C1091 C1087 1.460 . S
C1091 C1090 1.477 . S
C1091 H1111 0.930 . S
C1092 N1088 1.362 . S
C1092 C1089 1.431 . S
C1092 C1102 1.476 . S
H1093 C1087 0.929 . S
C1094 O1085 1.250 . S
C1094 O1086 1.258 . S
O1095 Mn1080 2.162 . S
O1095 C1083 1.281 . S
O1096 Mn1080 2.297 . S
O1096 C1083 1.236 . S
N1097 Mn1081 2.282 . S
N1097 C1098 1.328 . S
N1097 C1102 1.318 . S
C1098 N1097 1.328 . S
C1098 C1099 1.457 . S
C1098 H1103 0.929 . S
C1099 C1098 1.457 . S
C1099 C1100 1.291 . S
C1099 H1112 0.931 . S
C1100 C1099 1.291 . S
C1100 C1101 1.373 . S
C1100 H1113 0.929 . S
C1101 C1100 1.373 . S
C1101 C1102 1.396 . S
C1101 C1108 1.403 . S
C1102 C1092 1.476 . S
C1102 N1097 1.318 . S
C1102 C1101 1.396 . S
H1103 C1098 0.929 . S
O1104 Mn1080 2.385 . S
O1104 C1082 1.234 . S
O1105 Mn1080 2.209 . S
O1105 Mn1081 2.215 . S
O1105 C1082 1.283 . S
O1106 Mn1080 2.094 . S
O1106 C1084 1.240 . S
O1107 Mn1081 2.117 . S
O1107 C1084 1.264 . S
C1108 C1101 1.403 . S
C1108 C1109 1.399 . S
C1108 H1114 0.929 . S
C1109 C1089 1.449 . S
C1109 C1108 1.399 . S
C1109 H1115 0.930 . S
H1110 C1090 0.931 . S
H1111 C1091 0.930 . S
H1112 C1099 0.931 . S
H1113 C1100 0.929 . S
H1114 C1108 0.929 . S
H1115 C1109 0.930 . S
Mn1116 O1121 2.095 . S
Mn1116 O1131 2.162 . S
Mn1116 O1132 2.297 . S
Mn1116 O1140 2.385 . S
Mn1116 O1141 2.209 . S
Mn1116 O1142 2.094 . S
Mn1117 O1122 2.121 . S
Mn1117 N1124 2.257 . S
Mn1117 N1133 2.282 1_545 S
Mn1117 O1141 2.215 . S
Mn1117 O1143 2.117 1_545 S
C1118 O1140 1.234 . S
C1118 O1141 1.283 . S
C1119 O1131 1.281 . S
C1119 O1132 1.236 . S
C1120 O1142 1.240 1_565 S
C1120 O1143 1.264 . S
O1121 Mn1116 2.095 . S
O1121 C1130 1.250 . S
O1122 Mn1117 2.121 . S
O1122 C1130 1.258 . S
C1123 N1124 1.326 . S
C1123 C1127 1.460 . S
C1123 H1129 0.929 . S
N1124 Mn1117 2.257 . S
N1124 C1123 1.326 . S
N1124 C1128 1.362 1_545 S
C1125 C1126 1.258 1_565 S
C1125 C1128 1.431 . S
C1125 C1145 1.449 . S
C1126 C1125 1.258 1_545 S
C1126 C1127 1.477 . S
C1126 H1146 0.931 1_545 S
C1127 C1123 1.460 . S
C1127 C1126 1.477 . S
C1127 H1147 0.930 . S
C1128 N1124 1.362 1_565 S
C1128 C1125 1.431 . S
C1128 C1138 1.476 . S
H1129 C1123 0.929 . S
C1130 O1121 1.250 . S
C1130 O1122 1.258 . S
O1131 Mn1116 2.162 . S
O1131 C1119 1.281 . S
O1132 Mn1116 2.297 . S
O1132 C1119 1.236 . S
N1133 Mn1117 2.282 1_565 S
N1133 C1134 1.328 . S
N1133 C1138 1.318 . S
C1134 N1133 1.328 . S
C1134 C1135 1.457 . S
C1134 H1139 0.929 . S
C1135 C1134 1.457 . S
C1135 C1136 1.291 . S
C1135 H1148 0.931 . S
C1136 C1135 1.291 . S
C1136 C1137 1.373 . S
C1136 H1149 0.929 . S
C1137 C1136 1.373 . S
C1137 C1138 1.396 . S
C1137 C1144 1.403 . S
C1138 C1128 1.476 . S
C1138 N1133 1.318 . S
C1138 C1137 1.396 . S
H1139 C1134 0.929 . S
O1140 Mn1116 2.385 . S
O1140 C1118 1.234 . S
O1141 Mn1116 2.209 . S
O1141 Mn1117 2.215 . S
O1141 C1118 1.283 . S
O1142 Mn1116 2.094 . S
O1142 C1120 1.240 1_545 S
O1143 Mn1117 2.117 1_565 S
O1143 C1120 1.264 . S
C1144 C1137 1.403 . S
C1144 C1145 1.399 . S
C1144 H1150 0.929 . S
C1145 C1125 1.449 . S
C1145 C1144 1.399 . S
C1145 H1151 0.930 . S
H1146 C1126 0.931 1_565 S
H1147 C1127 0.930 . S
H1148 C1135 0.931 . S
H1149 C1136 0.929 . S
H1150 C1144 0.929 . S
H1151 C1145 0.930 . S
H1152 C1158 0.930 . S
H1153 C1161 0.930 . S
H1154 C1162 0.930 1_655 S
H1155 C1163 0.930 . S
H1156 C1166 0.930 . S
H1157 C1167 0.930 . S
C1158 H1152 0.930 . S
C1158 C1159 1.355 . S
C1158 C1160 1.415 . S
C1159 C1158 1.355 . S
C1159 C1161 1.419 . S
C1160 C1158 1.415 . S
C1160 C1165 1.425 . S
C1160 C1167 1.409 . S
C1161 H1153 0.930 . S
C1161 C1159 1.419 . S
C1161 C1162 1.362 . S
C1162 H1154 0.930 1_455 S
C1162 C1161 1.362 . S
C1162 C1165 1.409 . S
C1163 H1155 0.930 . S
C1163 C1164 1.355 . S
C1163 C1165 1.415 . S
C1164 C1163 1.355 . S
C1164 C1166 1.419 . S
C1165 C1160 1.425 . S
C1165 C1162 1.409 . S
C1165 C1163 1.415 . S
C1166 H1156 0.930 . S
C1166 C1164 1.419 . S
C1166 C1167 1.362 . S
C1167 H1157 0.930 . S
C1167 C1160 1.409 . S
C1167 C1166 1.362 . S
H1168 C1174 0.930 . S
H1169 C1177 0.930 . S
H1170 C1178 0.930 . S
H1171 C1179 0.930 . S
H1172 C1182 0.930 . S
H1173 C1183 0.930 . S
C1174 H1168 0.930 . S
C1174 C1175 1.355 . S
C1174 C1176 1.415 . S
C1175 C1174 1.355 . S
C1175 C1177 1.419 . S
C1176 C1174 1.415 . S
C1176 C1181 1.425 . S
C1176 C1183 1.409 . S
C1177 H1169 0.930 . S
C1177 C1175 1.419 . S
C1177 C1178 1.362 . S
C1178 H1170 0.930 . S
C1178 C1177 1.362 . S
C1178 C1181 1.409 . S
C1179 H1171 0.930 . S
C1179 C1180 1.355 . S
C1179 C1181 1.415 . S
C1180 C1179 1.355 . S
C1180 C1182 1.419 . S
C1181 C1176 1.425 . S
C1181 C1178 1.409 . S
C1181 C1179 1.415 . S
C1182 H1172 0.930 . S
C1182 C1180 1.419 . S
C1182 C1183 1.362 . S
C1183 H1173 0.930 . S
C1183 C1176 1.409 . S
C1183 C1182 1.362 . S
H1184 C1190 0.930 . S
H1185 C1193 0.930 . S
H1186 C1194 0.930 . S
H1187 C1195 0.930 . S
H1188 C1198 0.930 . S
H1189 C1199 0.930 . S
C1190 H1184 0.930 . S
C1190 C1191 1.355 . S
C1190 C1192 1.415 . S
C1191 C1190 1.355 . S
C1191 C1193 1.419 . S
C1192 C1190 1.415 . S
C1192 C1197 1.425 . S
C1192 C1199 1.409 . S
C1193 H1185 0.930 . S
C1193 C1191 1.419 . S
C1193 C1194 1.362 . S
C1194 H1186 0.930 . S
C1194 C1193 1.362 . S
C1194 C1197 1.409 . S
C1195 H1187 0.930 . S
C1195 C1196 1.355 . S
C1195 C1197 1.415 . S
C1196 C1195 1.355 . S
C1196 C1198 1.419 . S
C1197 C1192 1.425 . S
C1197 C1194 1.409 . S
C1197 C1195 1.415 . S
C1198 H1188 0.930 . S
C1198 C1196 1.419 . S
C1198 C1199 1.362 . S
C1199 H1189 0.930 . S
C1199 C1192 1.409 . S
C1199 C1198 1.362 . S
H1200 C1206 0.930 . S
H1201 C1209 0.930 . S
H1202 C1210 0.930 . S
H1203 C1211 0.930 . S
H1204 C1214 0.930 . S
H1205 C1215 0.930 . S
C1206 H1200 0.930 . S
C1206 C1207 1.355 . S
C1206 C1208 1.415 . S
C1207 C1206 1.355 . S
C1207 C1209 1.419 . S
C1208 C1206 1.415 . S
C1208 C1213 1.425 . S
C1208 C1215 1.409 . S
C1209 H1201 0.930 . S
C1209 C1207 1.419 . S
C1209 C1210 1.362 . S
C1210 H1202 0.930 . S
C1210 C1209 1.362 . S
C1210 C1213 1.409 . S
C1211 H1203 0.930 . S
C1211 C1212 1.355 . S
C1211 C1213 1.415 . S
C1212 C1211 1.355 . S
C1212 C1214 1.419 . S
C1213 C1208 1.425 . S
C1213 C1210 1.409 . S
C1213 C1211 1.415 . S
C1214 H1204 0.930 . S
C1214 C1212 1.419 . S
C1214 C1215 1.362 . S
C1215 H1205 0.930 . S
C1215 C1208 1.409 . S
C1215 C1214 1.362 . S
H1216 C1222 0.930 . S
H1217 C1225 0.930 . S
H1218 C1226 0.930 . S
H1219 C1227 0.930 . S
H1220 C1230 0.930 . S
H1221 C1231 0.877 1_655 S
C1222 H1216 0.930 . S
C1222 C1223 1.355 . S
C1222 C1224 1.415 . S
C1223 C1222 1.355 . S
C1223 C1225 1.419 . S
C1224 C1222 1.415 . S
C1224 C1229 1.425 . S
C1224 C1231 1.409 . S
C1225 H1217 0.930 . S
C1225 C1223 1.419 . S
C1225 C1226 1.362 . S
C1226 H1218 0.930 . S
C1226 C1225 1.362 . S
C1226 C1229 1.409 . S
C1227 H1219 0.930 . S
C1227 C1228 1.355 . S
C1227 C1229 1.415 . S
C1228 C1227 1.355 . S
C1228 C1230 1.419 . S
C1229 C1224 1.425 . S
C1229 C1226 1.409 . S
C1229 C1227 1.415 . S
C1230 H1220 0.930 . S
C1230 C1228 1.419 . S
C1230 C1231 1.362 . S
C1231 H1221 0.877 1_455 S
C1231 C1224 1.409 . S
C1231 C1230 1.362 . S
H1232 C1238 0.930 . S
H1233 C1241 0.930 . S
H1234 C1242 0.930 . S
H1235 C1243 0.930 . S
H1236 C1246 0.930 . S
H1237 C1247 0.930 . S
C1238 H1232 0.930 . S
C1238 C1239 1.355 . S
C1238 C1240 1.415 . S
C1239 C1238 1.355 . S
C1239 C1241 1.419 . S
C1240 C1238 1.415 . S
C1240 C1245 1.425 . S
C1240 C1247 1.409 . S
C1241 H1233 0.930 . S
C1241 C1239 1.419 . S
C1241 C1242 1.362 . S
C1242 H1234 0.930 . S
C1242 C1241 1.362 . S
C1242 C1245 1.409 . S
C1243 H1235 0.930 . S
C1243 C1244 1.355 . S
C1243 C1245 1.415 . S
C1244 C1243 1.355 . S
C1244 C1246 1.419 . S
C1245 C1240 1.425 . S
C1245 C1242 1.409 . S
C1245 C1243 1.415 . S
C1246 H1236 0.930 . S
C1246 C1244 1.419 . S
C1246 C1247 1.362 . S
C1247 H1237 0.930 . S
C1247 C1240 1.409 . S
C1247 C1246 1.362 . S
H1248 C1254 0.930 . S
H1249 C1257 0.973 . S
H1250 C1258 0.930 1_455 S
H1251 C1259 0.930 . S
H1252 C1262 0.930 . S
H1253 C1263 0.930 . S
C1254 H1248 0.930 . S
C1254 C1255 1.355 . S
C1254 C1256 1.415 . S
C1255 C1254 1.355 . S
C1255 C1257 1.419 . S
C1256 C1254 1.415 . S
C1256 C1261 1.425 . S
C1256 C1263 1.409 . S
C1257 H1249 0.973 . S
C1257 C1255 1.419 . S
C1257 C1258 1.362 . S
C1258 H1250 0.930 1_655 S
C1258 C1257 1.362 . S
C1258 C1261 1.409 . S
C1259 H1251 0.930 . S
C1259 C1260 1.355 . S
C1259 C1261 1.415 . S
C1260 C1259 1.355 . S
C1260 C1262 1.419 . S
C1261 C1256 1.425 . S
C1261 C1258 1.409 . S
C1261 C1259 1.415 . S
C1262 H1252 0.930 . S
C1262 C1260 1.419 . S
C1262 C1263 1.362 . S
C1263 H1253 0.930 . S
C1263 C1256 1.409 . S
C1263 C1262 1.362 . S
H1264 C1270 0.930 . S
H1265 C1273 0.930 . S
H1266 C1274 0.930 . S
H1267 C1275 0.930 . S
H1268 C1278 0.930 . S
H1269 C1279 0.930 . S
C1270 H1264 0.930 . S
C1270 C1271 1.355 . S
C1270 C1272 1.415 . S
C1271 C1270 1.355 . S
C1271 C1273 1.419 . S
C1272 C1270 1.415 . S
C1272 C1277 1.425 . S
C1272 C1279 1.409 . S
C1273 H1265 0.930 . S
C1273 C1271 1.419 . S
C1273 C1274 1.362 . S
C1274 H1266 0.930 . S
C1274 C1273 1.362 . S
C1274 C1277 1.409 . S
C1275 H1267 0.930 . S
C1275 C1276 1.355 . S
C1275 C1277 1.415 . S
C1276 C1275 1.355 . S
C1276 C1278 1.419 . S
C1277 C1272 1.425 . S
C1277 C1274 1.409 . S
C1277 C1275 1.415 . S
C1278 H1268 0.930 . S
C1278 C1276 1.419 . S
C1278 C1279 1.362 . S
C1279 H1269 0.930 . S
C1279 C1272 1.409 . S
C1279 C1278 1.362 . S
H1280 C1286 0.930 . S
H1281 C1289 0.930 . S
H1282 C1290 0.930 . S
H1283 C1291 0.930 . S
H1284 C1294 0.930 . S
H1285 C1295 0.930 . S
C1286 H1280 0.930 . S
C1286 C1287 1.355 . S
C1286 C1288 1.415 . S
C1287 C1286 1.355 . S
C1287 C1289 1.419 . S
C1288 C1286 1.415 . S
C1288 C1293 1.425 . S
C1288 C1295 1.409 . S
C1289 H1281 0.930 . S
C1289 C1287 1.419 . S
C1289 C1290 1.362 . S
C1290 H1282 0.930 . S
C1290 C1289 1.362 . S
C1290 C1293 1.409 . S
C1291 H1283 0.930 . S
C1291 C1292 1.355 . S
C1291 C1293 1.415 . S
C1292 C1291 1.355 . S
C1292 C1294 1.419 . S
C1293 C1288 1.425 . S
C1293 C1290 1.409 . S
C1293 C1291 1.415 . S
C1294 H1284 0.930 . S
C1294 C1292 1.419 . S
C1294 C1295 1.362 . S
C1295 H1285 0.930 . S
C1295 C1288 1.409 . S
C1295 C1294 1.362 . S
H1296 C1302 0.930 . S
H1297 C1305 0.930 . S
H1298 C1306 0.930 . S
H1299 C1307 0.930 . S
H1300 C1310 0.930 . S
H1301 C1311 0.930 . S
C1302 H1296 0.930 . S
C1302 C1303 1.355 . S
C1302 C1304 1.415 . S
C1303 C1302 1.355 . S
C1303 C1305 1.419 . S
C1304 C1302 1.415 . S
C1304 C1309 1.425 . S
C1304 C1311 1.409 . S
C1305 H1297 0.930 . S
C1305 C1303 1.419 . S
C1305 C1306 1.362 . S
C1306 H1298 0.930 . S
C1306 C1305 1.362 . S
C1306 C1309 1.409 . S
C1307 H1299 0.930 . S
C1307 C1308 1.355 . S
C1307 C1309 1.415 . S
C1308 C1307 1.355 . S
C1308 C1310 1.419 . S
C1309 C1304 1.425 . S
C1309 C1306 1.409 . S
C1309 C1307 1.415 . S
C1310 H1300 0.930 . S
C1310 C1308 1.419 . S
C1310 C1311 1.362 . S
C1311 H1301 0.930 . S
C1311 C1304 1.409 . S
C1311 C1310 1.362 . S
H1312 C1318 0.930 . S
H1313 C1321 0.930 . S
H1314 C1322 0.930 . S
H1315 C1323 0.930 . S
H1316 C1326 0.930 . S
H1317 C1327 0.930 . S
C1318 H1312 0.930 . S
C1318 C1319 1.355 . S
C1318 C1320 1.415 . S
C1319 C1318 1.355 . S
C1319 C1321 1.419 . S
C1320 C1318 1.415 . S
C1320 C1325 1.425 . S
C1320 C1327 1.409 . S
C1321 H1313 0.930 . S
C1321 C1319 1.419 . S
C1321 C1322 1.362 . S
C1322 H1314 0.930 . S
C1322 C1321 1.362 . S
C1322 C1325 1.409 . S
C1323 H1315 0.930 . S
C1323 C1324 1.355 . S
C1323 C1325 1.415 . S
C1324 C1323 1.355 . S
C1324 C1326 1.419 . S
C1325 C1320 1.425 . S
C1325 C1322 1.409 . S
C1325 C1323 1.415 . S
C1326 H1316 0.930 . S
C1326 C1324 1.419 . S
C1326 C1327 1.362 . S
C1327 H1317 0.930 . S
C1327 C1320 1.409 . S
C1327 C1326 1.362 . S
H1328 C1334 0.930 . S
H1329 C1337 0.930 . S
H1330 C1338 0.930 . S
H1331 C1339 0.930 . S
H1332 C1342 0.930 . S
H1333 C1343 0.930 . S
C1334 H1328 0.930 . S
C1334 C1335 1.355 . S
C1334 C1336 1.415 . S
C1335 C1334 1.355 . S
C1335 C1337 1.419 . S
C1336 C1334 1.415 . S
C1336 C1341 1.425 . S
C1336 C1343 1.409 . S
C1337 H1329 0.930 . S
C1337 C1335 1.419 . S
C1337 C1338 1.362 . S
C1338 H1330 0.930 . S
C1338 C1337 1.362 . S
C1338 C1341 1.409 . S
C1339 H1331 0.930 . S
C1339 C1340 1.355 . S
C1339 C1341 1.415 . S
C1340 C1339 1.355 . S
C1340 C1342 1.419 . S
C1341 C1336 1.425 . S
C1341 C1338 1.409 . S
C1341 C1339 1.415 . S
C1342 H1332 0.930 . S
C1342 C1340 1.419 . S
C1342 C1343 1.362 . S
C1343 H1333 0.930 . S
C1343 C1336 1.409 . S
C1343 C1342 1.362 . S
H1344 C1350 0.930 . S
H1345 C1353 0.930 . S
H1346 C1354 0.930 . S
H1347 C1355 0.930 . S
H1348 C1358 0.930 . S
H1349 C1359 0.930 . S
C1350 H1344 0.930 . S
C1350 C1351 1.355 . S
C1350 C1352 1.415 . S
C1351 C1350 1.355 . S
C1351 C1353 1.419 . S
C1352 C1350 1.415 . S
C1352 C1357 1.425 . S
C1352 C1359 1.409 . S
C1353 H1345 0.930 . S
C1353 C1351 1.419 . S
C1353 C1354 1.362 . S
C1354 H1346 0.930 . S
C1354 C1353 1.362 . S
C1354 C1357 1.409 . S
C1355 H1347 0.930 . S
C1355 C1356 1.355 . S
C1355 C1357 1.415 . S
C1356 C1355 1.355 . S
C1356 C1358 1.419 . S
C1357 C1352 1.425 . S
C1357 C1354 1.409 . S
C1357 C1355 1.415 . S
C1358 H1348 0.930 . S
C1358 C1356 1.419 . S
C1358 C1359 1.362 . S
C1359 H1349 0.930 . S
C1359 C1352 1.409 . S
C1359 C1358 1.362 . S
H1360 C1366 0.930 . S
H1361 C1369 0.930 . S
H1362 C1370 0.930 . S
H1363 C1371 0.930 . S
H1364 C1374 0.930 . S
H1365 C1375 0.930 . S
C1366 H1360 0.930 . S
C1366 C1367 1.355 . S
C1366 C1368 1.415 . S
C1367 C1366 1.355 . S
C1367 C1369 1.419 . S
C1368 C1366 1.415 . S
C1368 C1373 1.425 . S
C1368 C1375 1.409 . S
C1369 H1361 0.930 . S
C1369 C1367 1.419 . S
C1369 C1370 1.362 . S
C1370 H1362 0.930 . S
C1370 C1369 1.362 . S
C1370 C1373 1.409 . S
C1371 H1363 0.930 . S
C1371 C1372 1.355 . S
C1371 C1373 1.415 . S
C1372 C1371 1.355 . S
C1372 C1374 1.419 . S
C1373 C1368 1.425 . S
C1373 C1370 1.409 . S
C1373 C1371 1.415 . S
C1374 H1364 0.930 . S
C1374 C1372 1.419 . S
C1374 C1375 1.362 . S
C1375 H1365 0.930 . S
C1375 C1368 1.409 . S
C1375 C1374 1.362 . S
H1376 C1382 0.930 . S
H1377 C1385 0.930 . S
H1378 C1386 0.930 . S
H1379 C1387 0.930 . S
H1380 C1390 0.930 . S
H1381 C1391 0.930 . S
C1382 H1376 0.930 . S
C1382 C1383 1.355 . S
C1382 C1384 1.415 . S
C1383 C1382 1.355 . S
C1383 C1385 1.419 . S
C1384 C1382 1.415 . S
C1384 C1389 1.425 . S
C1384 C1391 1.409 . S
C1385 H1377 0.930 . S
C1385 C1383 1.419 . S
C1385 C1386 1.362 . S
C1386 H1378 0.930 . S
C1386 C1385 1.362 . S
C1386 C1389 1.409 . S
C1387 H1379 0.930 . S
C1387 C1388 1.355 . S
C1387 C1389 1.415 . S
C1388 C1387 1.355 . S
C1388 C1390 1.419 . S
C1389 C1384 1.425 . S
C1389 C1386 1.409 . S
C1389 C1387 1.415 . S
C1390 H1380 0.930 . S
C1390 C1388 1.419 . S
C1390 C1391 1.362 . S
C1391 H1381 0.930 . S
C1391 C1384 1.409 . S
C1391 C1390 1.362 . S
H1392 C1398 0.930 . S
H1393 C1401 0.930 . S
H1394 C1402 0.930 . S
H1395 C1403 0.930 . S
H1396 C1406 0.930 . S
H1397 C1407 0.930 . S
C1398 H1392 0.930 . S
C1398 C1399 1.355 . S
C1398 C1400 1.415 . S
C1399 C1398 1.355 . S
C1399 C1401 1.419 . S
C1400 C1398 1.415 . S
C1400 C1405 1.425 . S
C1400 C1407 1.409 . S
C1401 H1393 0.930 . S
C1401 C1399 1.419 . S
C1401 C1402 1.362 . S
C1402 H1394 0.930 . S
C1402 C1401 1.362 . S
C1402 C1405 1.409 . S
C1403 H1395 0.930 . S
C1403 C1404 1.355 . S
C1403 C1405 1.415 . S
C1404 C1403 1.355 . S
C1404 C1406 1.419 . S
C1405 C1400 1.425 . S
C1405 C1402 1.409 . S
C1405 C1403 1.415 . S
C1406 H1396 0.930 . S
C1406 C1404 1.419 . S
C1406 C1407 1.362 . S
C1407 H1397 0.930 . S
C1407 C1400 1.409 . S
C1407 C1406 1.362 . S
H1408 C1414 0.930 . S
H1409 C1417 0.930 . S
H1410 C1418 0.930 . S
H1411 C1419 0.930 . S
H1412 C1422 0.930 . S
H1413 C1423 0.930 . S
C1414 H1408 0.930 . S
C1414 C1415 1.355 . S
C1414 C1416 1.415 1_556 S
C1415 C1414 1.355 . S
C1415 C1417 1.419 1_655 S
C1416 C1414 1.415 1_554 S
C1416 C1421 1.425 1_654 S
C1416 C1423 1.409 . S
C1417 H1409 0.930 . S
C1417 C1415 1.419 1_455 S
C1417 C1418 1.362 . S
C1418 H1410 0.930 . S
C1418 C1417 1.362 . S
C1418 C1421 1.409 . S
C1419 H1411 0.930 . S
C1419 C1420 1.355 . S
C1419 C1421 1.415 1_554 S
C1420 C1419 1.355 . S
C1420 C1422 1.419 1_455 S
C1421 C1416 1.425 1_456 S
C1421 C1418 1.409 . S
C1421 C1419 1.415 1_556 S
C1422 H1412 0.930 . S
C1422 C1420 1.419 1_655 S
C1422 C1423 1.362 . S
C1423 H1413 0.930 . S
C1423 C1416 1.409 . S
C1423 C1422 1.362 . S
H1424 C1430 0.930 . S
H1425 C1433 0.930 . S
H1426 C1434 0.930 . S
H1427 C1435 0.930 . S
H1428 C1438 0.930 . S
H1429 C1439 0.930 . S
C1430 H1424 0.930 . S
C1430 C1431 1.355 . S
C1430 C1432 1.415 1_556 S
C1431 C1430 1.355 . S
C1431 C1433 1.419 . S
C1432 C1430 1.415 1_554 S
C1432 C1437 1.425 1_554 S
C1432 C1439 1.409 . S
C1433 H1425 0.930 . S
C1433 C1431 1.419 . S
C1433 C1434 1.362 . S
C1434 H1426 0.930 . S
C1434 C1433 1.362 . S
C1434 C1437 1.409 . S
C1435 H1427 0.930 . S
C1435 C1436 1.355 . S
C1435 C1437 1.415 1_554 S
C1436 C1435 1.355 . S
C1436 C1438 1.419 . S
C1437 C1432 1.425 1_556 S
C1437 C1434 1.409 . S
C1437 C1435 1.415 1_556 S
C1438 H1428 0.930 . S
C1438 C1436 1.419 . S
C1438 C1439 1.362 . S
C1439 H1429 0.930 . S
C1439 C1432 1.409 . S
C1439 C1438 1.362 . S
H1440 C1446 0.930 . S
H1441 C1449 0.930 . S
H1442 C1450 0.930 . S
H1443 C1451 0.930 . S
H1444 C1454 0.930 . S
H1445 C1455 0.934 . S
C1446 H1440 0.930 . S
C1446 C1447 1.355 . S
C1446 C1448 1.415 . S
C1447 C1446 1.355 . S
C1447 C1449 1.419 . S
C1448 C1446 1.415 . S
C1448 C1453 1.425 1_455 S
C1448 C1455 1.410 . S
C1449 H1441 0.930 . S
C1449 C1447 1.419 . S
C1449 C1450 1.362 1_455 S
C1450 H1442 0.930 . S
C1450 C1449 1.362 1_655 S
C1450 C1453 1.409 . S
C1451 H1443 0.930 . S
C1451 C1452 1.355 . S
C1451 C1453 1.415 . S
C1452 C1451 1.355 . S
C1452 C1454 1.419 . S
C1453 C1448 1.425 1_655 S
C1453 C1450 1.409 . S
C1453 C1451 1.415 . S
C1454 H1444 0.930 . S
C1454 C1452 1.419 . S
C1454 C1455 1.358 1_655 S
C1455 H1445 0.934 . S
C1455 C1448 1.410 . S
C1455 C1454 1.358 1_455 S
H1456 C1462 0.930 . S
H1457 C1465 0.930 . S
H1458 C1466 0.930 . S
H1459 C1467 0.930 . S
H1460 C1470 0.930 . S
H1461 C1471 0.930 . S
C1462 H1456 0.930 . S
C1462 C1463 1.355 . S
C1462 C1464 1.415 . S
C1463 C1462 1.355 . S
C1463 C1465 1.419 . S
C1464 C1462 1.415 . S
C1464 C1469 1.425 . S
C1464 C1471 1.409 . S
C1465 H1457 0.930 . S
C1465 C1463 1.419 . S
C1465 C1466 1.362 . S
C1466 H1458 0.930 . S
C1466 C1465 1.362 . S
C1466 C1469 1.409 . S
C1467 H1459 0.930 . S
C1467 C1468 1.355 . S
C1467 C1469 1.415 . S
C1468 C1467 1.355 . S
C1468 C1470 1.419 . S
C1469 C1464 1.425 . S
C1469 C1466 1.409 . S
C1469 C1467 1.415 . S
C1470 H1460 0.930 . S
C1470 C1468 1.419 . S
C1470 C1471 1.362 . S
C1471 H1461 0.930 . S
C1471 C1464 1.409 . S
C1471 C1470 1.362 . S
H1472 C1478 0.930 . S
H1473 C1481 0.930 . S
H1474 C1482 0.930 . S
H1475 C1483 0.930 . S
H1476 C1486 0.930 . S
H1477 C1487 0.930 . S
C1478 H1472 0.930 . S
C1478 C1479 1.355 . S
C1478 C1480 1.415 . S
C1479 C1478 1.355 . S
C1479 C1481 1.419 . S
C1480 C1478 1.415 . S
C1480 C1485 1.425 1_556 S
C1480 C1487 1.409 . S
C1481 H1473 0.930 . S
C1481 C1479 1.419 . S
C1481 C1482 1.362 1_556 S
C1482 H1474 0.930 . S
C1482 C1481 1.362 1_554 S
C1482 C1485 1.409 . S
C1483 H1475 0.930 . S
C1483 C1484 1.355 . S
C1483 C1485 1.415 . S
C1484 C1483 1.355 . S
C1484 C1486 1.419 . S
C1485 C1480 1.425 1_554 S
C1485 C1482 1.409 . S
C1485 C1483 1.415 . S
C1486 H1476 0.930 . S
C1486 C1484 1.419 . S
C1486 C1487 1.362 1_554 S
C1487 H1477 0.930 . S
C1487 C1480 1.409 . S
C1487 C1486 1.362 1_556 S
H1488 C1494 0.930 . S
H1489 C1497 0.930 . S
H1490 C1498 0.930 . S
H1491 C1499 0.930 . S
H1492 C1502 0.930 . S
H1493 C1503 0.930 . S
C1494 H1488 0.930 . S
C1494 C1495 1.355 1_455 S
C1494 C1496 1.415 . S
C1495 C1494 1.355 1_655 S
C1495 C1497 1.419 . S
C1496 C1494 1.415 . S
C1496 C1501 1.425 1_455 S
C1496 C1503 1.409 . S
C1497 H1489 0.930 . S
C1497 C1495 1.419 . S
C1497 C1498 1.362 . S
C1498 H1490 0.930 . S
C1498 C1497 1.362 . S
C1498 C1501 1.409 . S
C1499 H1491 0.930 . S
C1499 C1500 1.355 1_655 S
C1499 C1501 1.415 . S
C1500 C1499 1.355 1_455 S
C1500 C1502 1.419 . S
C1501 C1496 1.425 1_655 S
C1501 C1498 1.409 . S
C1501 C1499 1.415 . S
C1502 H1492 0.930 . S
C1502 C1500 1.419 . S
C1502 C1503 1.362 . S
C1503 H1493 0.930 . S
C1503 C1496 1.409 . S
C1503 C1502 1.362 . S
H1504 C1510 0.930 . S
H1505 C1513 0.930 . S
H1506 C1514 0.930 . S
H1507 C1515 0.930 . S
H1508 C1518 0.930 . S
H1509 C1519 0.930 . S
C1510 H1504 0.930 . S
C1510 C1511 1.355 . S
C1510 C1512 1.415 . S
C1511 C1510 1.355 . S
C1511 C1513 1.419 . S
C1512 C1510 1.415 . S
C1512 C1517 1.425 . S
C1512 C1519 1.409 . S
C1513 H1505 0.930 . S
C1513 C1511 1.419 . S
C1513 C1514 1.362 . S
C1514 H1506 0.930 . S
C1514 C1513 1.362 . S
C1514 C1517 1.409 . S
C1515 H1507 0.930 . S
C1515 C1516 1.355 . S
C1515 C1517 1.415 . S
C1516 C1515 1.355 . S
C1516 C1518 1.419 . S
C1517 C1512 1.425 . S
C1517 C1514 1.409 . S
C1517 C1515 1.415 . S
C1518 H1508 0.930 . S
C1518 C1516 1.419 . S
C1518 C1519 1.362 . S
C1519 H1509 0.930 . S
C1519 C1512 1.409 . S
C1519 C1518 1.362 . S
H1520 C1526 0.930 . S
H1521 C1529 0.930 . S
H1522 C1530 0.930 . S
H1523 C1531 0.930 . S
H1524 C1534 0.930 . S
H1525 C1535 0.930 . S
C1526 H1520 0.930 . S
C1526 C1527 1.355 1_455 S
C1526 C1528 1.415 . S
C1527 C1526 1.355 1_655 S
C1527 C1529 1.419 . S
C1528 C1526 1.415 . S
C1528 C1533 1.425 1_445 S
C1528 C1535 1.409 1_545 S
C1529 H1521 0.930 . S
C1529 C1527 1.419 . S
C1529 C1530 1.362 . S
C1530 H1522 0.930 . S
C1530 C1529 1.362 . S
C1530 C1533 1.409 1_545 S
C1531 H1523 0.930 . S
C1531 C1532 1.355 1_655 S
C1531 C1533 1.415 . S
C1532 C1531 1.355 1_455 S
C1532 C1534 1.419 . S
C1533 C1528 1.425 1_665 S
C1533 C1530 1.409 1_565 S
C1533 C1531 1.415 . S
C1534 H1524 0.930 . S
C1534 C1532 1.419 . S
C1534 C1535 1.362 . S
C1535 H1525 0.930 . S
C1535 C1528 1.409 1_565 S
C1535 C1534 1.362 . S
H1536 C1542 0.930 . S
H1537 C1545 0.930 . S
H1538 C1546 0.930 . S
H1539 C1547 0.930 . S
H1540 C1550 0.930 . S
H1541 C1551 0.930 . S
C1542 H1536 0.930 . S
C1542 C1543 1.355 . S
C1542 C1544 1.415 . S
C1543 C1542 1.355 . S
C1543 C1545 1.419 . S
C1544 C1542 1.415 . S
C1544 C1549 1.425 . S
C1544 C1551 1.409 . S
C1545 H1537 0.930 . S
C1545 C1543 1.419 . S
C1545 C1546 1.362 . S
C1546 H1538 0.930 . S
C1546 C1545 1.362 . S
C1546 C1549 1.409 . S
C1547 H1539 0.930 . S
C1547 C1548 1.355 . S
C1547 C1549 1.415 . S
C1548 C1547 1.355 . S
C1548 C1550 1.419 . S
C1549 C1544 1.425 . S
C1549 C1546 1.409 . S
C1549 C1547 1.415 . S
C1550 H1540 0.930 . S
C1550 C1548 1.419 . S
C1550 C1551 1.362 . S
C1551 H1541 0.930 . S
C1551 C1544 1.409 . S
C1551 C1550 1.362 . S
H1552 C1558 0.930 . S
H1553 C1561 0.930 . S
H1554 C1562 0.930 . S
H1555 C1563 0.930 . S
H1556 C1566 0.930 . S
H1557 C1567 0.930 . S
C1558 H1552 0.930 . S
C1558 C1559 1.355 . S
C1558 C1560 1.415 . S
C1559 C1558 1.355 . S
C1559 C1561 1.419 . S
C1560 C1558 1.415 . S
C1560 C1565 1.425 1_565 S
C1560 C1567 1.409 . S
C1561 H1553 0.930 . S
C1561 C1559 1.419 . S
C1561 C1562 1.362 1_565 S
C1562 H1554 0.930 . S
C1562 C1561 1.362 1_545 S
C1562 C1565 1.409 . S
C1563 H1555 0.930 . S
C1563 C1564 1.355 . S
C1563 C1565 1.415 . S
C1564 C1563 1.355 . S
C1564 C1566 1.419 . S
C1565 C1560 1.425 1_545 S
C1565 C1562 1.409 . S
C1565 C1563 1.415 . S
C1566 H1556 0.930 . S
C1566 C1564 1.419 . S
C1566 C1567 1.362 1_545 S
C1567 H1557 0.930 . S
C1567 C1560 1.409 . S
C1567 C1566 1.362 1_565 S
H1568 C1574 0.930 . S
H1569 C1577 0.930 . S
H1570 C1578 0.930 . S
H1571 C1579 0.930 . S
H1572 C1582 0.930 . S
H1573 C1583 0.930 . S
C1574 H1568 0.930 . S
C1574 C1575 1.355 . S
C1574 C1576 1.415 . S
C1575 C1574 1.355 . S
C1575 C1577 1.419 . S
C1576 C1574 1.415 . S
C1576 C1581 1.425 . S
C1576 C1583 1.409 . S
C1577 H1569 0.930 . S
C1577 C1575 1.419 . S
C1577 C1578 1.362 . S
C1578 H1570 0.930 . S
C1578 C1577 1.362 . S
C1578 C1581 1.409 . S
C1579 H1571 0.930 . S
C1579 C1580 1.355 . S
C1579 C1581 1.415 . S
C1580 C1579 1.355 . S
C1580 C1582 1.419 . S
C1581 C1576 1.425 . S
C1581 C1578 1.409 . S
C1581 C1579 1.415 . S
C1582 H1572 0.930 . S
C1582 C1580 1.419 . S
C1582 C1583 1.362 . S
C1583 H1573 0.930 . S
C1583 C1576 1.409 . S
C1583 C1582 1.362 . S
H1584 C1590 0.930 . S
H1585 C1593 0.930 . S
H1586 C1594 0.930 1_545 S
H1587 C1595 0.930 . S
H1588 C1598 0.930 . S
H1589 C1599 0.930 . S
C1590 H1584 0.930 . S
C1590 C1591 1.355 . S
C1590 C1592 1.415 . S
C1591 C1590 1.355 . S
C1591 C1593 1.419 . S
C1592 C1590 1.415 . S
C1592 C1597 1.425 1_565 S
C1592 C1599 1.409 1_565 S
C1593 H1585 0.930 . S
C1593 C1591 1.419 . S
C1593 C1594 1.362 . S
C1594 H1586 0.930 1_565 S
C1594 C1593 1.362 . S
C1594 C1597 1.409 1_565 S
C1595 H1587 0.930 . S
C1595 C1596 1.355 . S
C1595 C1597 1.415 . S
C1596 C1595 1.355 . S
C1596 C1598 1.419 . S
C1597 C1592 1.425 1_545 S
C1597 C1594 1.409 1_545 S
C1597 C1595 1.415 . S
C1598 H1588 0.930 . S
C1598 C1596 1.419 . S
C1598 C1599 1.362 . S
C1599 H1589 0.930 . S
C1599 C1592 1.409 1_545 S
C1599 C1598 1.362 . S
H1600 C1606 0.930 . S
H1601 C1609 0.930 . S
H1602 C1610 0.930 . S
H1603 C1611 0.930 . S
H1604 C1614 0.930 . S
H1605 C1615 0.930 . S
C1606 H1600 0.930 . S
C1606 C1607 1.355 . S
C1606 C1608 1.415 . S
C1607 C1606 1.355 . S
C1607 C1609 1.419 . S
C1608 C1606 1.415 . S
C1608 C1613 1.425 . S
C1608 C1615 1.409 . S
C1609 H1601 0.930 . S
C1609 C1607 1.419 . S
C1609 C1610 1.362 . S
C1610 H1602 0.930 . S
C1610 C1609 1.362 . S
C1610 C1613 1.409 . S
C1611 H1603 0.930 . S
C1611 C1612 1.355 . S
C1611 C1613 1.415 . S
C1612 C1611 1.355 . S
C1612 C1614 1.419 . S
C1613 C1608 1.425 . S
C1613 C1610 1.409 . S
C1613 C1611 1.415 . S
C1614 H1604 0.930 . S
C1614 C1612 1.419 . S
C1614 C1615 1.362 . S
C1615 H1605 0.930 . S
C1615 C1608 1.409 . S
C1615 C1614 1.362 . S
H1616 C1622 0.930 . S
H1617 C1625 0.930 . S
H1618 C1626 0.930 . S
H1619 C1627 0.930 . S
H1620 C1630 0.930 . S
H1621 C1631 0.930 . S
C1622 H1616 0.930 . S
C1622 C1623 1.355 . S
C1622 C1624 1.415 . S
C1623 C1622 1.355 . S
C1623 C1625 1.419 . S
C1624 C1622 1.415 . S
C1624 C1629 1.425 . S
C1624 C1631 1.409 . S
C1625 H1617 0.930 . S
C1625 C1623 1.419 . S
C1625 C1626 1.362 . S
C1626 H1618 0.930 . S
C1626 C1625 1.362 . S
C1626 C1629 1.409 . S
C1627 H1619 0.930 . S
C1627 C1628 1.355 . S
C1627 C1629 1.415 . S
C1628 C1627 1.355 . S
C1628 C1630 1.419 . S
C1629 C1624 1.425 . S
C1629 C1626 1.409 . S
C1629 C1627 1.415 . S
C1630 H1620 0.930 . S
C1630 C1628 1.419 . S
C1630 C1631 1.362 . S
C1631 H1621 0.930 . S
C1631 C1624 1.409 . S
C1631 C1630 1.362 . S
H1632 C1638 0.930 . S
H1633 C1641 0.930 . S
H1634 C1642 0.930 . S
H1635 C1643 0.930 . S
H1636 C1646 0.930 . S
H1637 C1647 0.930 . S
C1638 H1632 0.930 . S
C1638 C1639 1.355 . S
C1638 C1640 1.415 . S
C1639 C1638 1.355 . S
C1639 C1641 1.419 . S
C1640 C1638 1.415 . S
C1640 C1645 1.425 . S
C1640 C1647 1.409 . S
C1641 H1633 0.930 . S
C1641 C1639 1.419 . S
C1641 C1642 1.362 . S
C1642 H1634 0.930 . S
C1642 C1641 1.362 . S
C1642 C1645 1.409 . S
C1643 H1635 0.930 . S
C1643 C1644 1.355 . S
C1643 C1645 1.415 . S
C1644 C1643 1.355 . S
C1644 C1646 1.419 . S
C1645 C1640 1.425 . S
C1645 C1642 1.409 . S
C1645 C1643 1.415 . S
C1646 H1636 0.930 . S
C1646 C1644 1.419 . S
C1646 C1647 1.362 . S
C1647 H1637 0.930 . S
C1647 C1640 1.409 . S
C1647 C1646 1.362 . S
H1648 C1654 0.930 . S
H1649 C1657 0.930 . S
H1650 C1658 0.930 . S
H1651 C1659 0.930 . S
H1652 C1662 0.930 . S
H1653 C1663 0.930 . S
C1654 H1648 0.930 . S
C1654 C1655 1.355 . S
C1654 C1656 1.407 1_556 S
C1655 C1654 1.355 . S
C1655 C1657 1.419 1_545 S
C1656 C1654 1.407 1_554 S
C1656 C1661 1.424 1_544 S
C1656 C1663 1.418 . S
C1657 H1649 0.930 . S
C1657 C1655 1.419 1_565 S
C1657 C1658 1.362 . S
C1658 H1650 0.930 . S
C1658 C1657 1.362 . S
C1658 C1661 1.409 . S
C1659 H1651 0.930 . S
C1659 C1660 1.355 . S
C1659 C1661 1.415 1_554 S
C1660 C1659 1.355 . S
C1660 C1662 1.419 1_565 S
C1661 C1656 1.424 1_566 S
C1661 C1658 1.409 . S
C1661 C1659 1.415 1_556 S
C1662 H1652 0.930 . S
C1662 C1660 1.419 1_545 S
C1662 C1663 1.362 . S
C1663 H1653 0.930 . S
C1663 C1656 1.418 . S
C1663 C1662 1.362 . S
H1664 C1670 0.930 . S
H1665 C1673 0.930 . S
H1666 C1674 0.930 . S
H1667 C1675 0.930 . S
H1668 C1678 0.930 . S
H1669 C1679 0.930 . S
C1670 H1664 0.930 . S
C1670 C1671 1.355 . S
C1670 C1672 1.415 . S
C1671 C1670 1.355 . S
C1671 C1673 1.419 . S
C1672 C1670 1.415 . S
C1672 C1677 1.425 . S
C1672 C1679 1.409 . S
C1673 H1665 0.930 . S
C1673 C1671 1.419 . S
C1673 C1674 1.362 . S
C1674 H1666 0.930 . S
C1674 C1673 1.362 . S
C1674 C1677 1.409 . S
C1675 H1667 0.930 . S
C1675 C1676 1.355 . S
C1675 C1677 1.415 . S
C1676 C1675 1.355 . S
C1676 C1678 1.419 . S
C1677 C1672 1.425 . S
C1677 C1674 1.409 . S
C1677 C1675 1.415 . S
C1678 H1668 0.930 . S
C1678 C1676 1.419 . S
C1678 C1679 1.362 . S
C1679 H1669 0.930 . S
C1679 C1672 1.409 . S
C1679 C1678 1.362 . S
H1680 C1686 0.930 . S
H1681 C1689 0.930 . S
H1682 C1690 0.930 . S
H1683 C1691 0.930 . S
H1684 C1694 0.930 . S
H1685 C1695 0.930 . S
C1686 H1680 0.930 . S
C1686 C1687 1.355 . S
C1686 C1688 1.415 . S
C1687 C1686 1.355 . S
C1687 C1689 1.419 . S
C1688 C1686 1.415 . S
C1688 C1693 1.425 . S
C1688 C1695 1.409 . S
C1689 H1681 0.930 . S
C1689 C1687 1.419 . S
C1689 C1690 1.362 . S
C1690 H1682 0.930 . S
C1690 C1689 1.362 . S
C1690 C1693 1.409 . S
C1691 H1683 0.930 . S
C1691 C1692 1.355 . S
C1691 C1693 1.415 . S
C1692 C1691 1.355 . S
C1692 C1694 1.419 . S
C1693 C1688 1.425 . S
C1693 C1690 1.409 . S
C1693 C1691 1.415 . S
C1694 H1684 0.930 . S
C1694 C1692 1.419 . S
C1694 C1695 1.362 . S
C1695 H1685 0.930 . S
C1695 C1688 1.409 . S
C1695 C1694 1.362 . S
H1696 C1702 0.930 . S
H1697 C1705 0.930 . S
H1698 C1706 0.930 . S
H1699 C1707 0.930 . S
H1700 C1710 0.930 . S
H1701 C1711 0.930 . S
C1702 H1696 0.930 . S
C1702 C1703 1.355 . S
C1702 C1704 1.415 . S
C1703 C1702 1.355 . S
C1703 C1705 1.419 . S
C1704 C1702 1.415 . S
C1704 C1709 1.425 . S
C1704 C1711 1.409 . S
C1705 H1697 0.930 . S
C1705 C1703 1.419 . S
C1705 C1706 1.362 . S
C1706 H1698 0.930 . S
C1706 C1705 1.362 . S
C1706 C1709 1.409 . S
C1707 H1699 0.930 . S
C1707 C1708 1.355 . S
C1707 C1709 1.415 . S
C1708 C1707 1.355 . S
C1708 C1710 1.419 . S
C1709 C1704 1.425 . S
C1709 C1706 1.409 . S
C1709 C1707 1.415 . S
C1710 H1700 0.930 . S
C1710 C1708 1.419 . S
C1710 C1711 1.362 . S
C1711 H1701 0.930 . S
C1711 C1704 1.409 . S
C1711 C1710 1.362 . S
H1712 C1718 0.930 . S
H1713 C1721 0.930 . S
H1714 C1722 0.930 . S
H1715 C1723 0.930 . S
H1716 C1726 0.930 . S
H1717 C1727 0.930 . S
C1718 H1712 0.930 . S
C1718 C1719 1.355 . S
C1718 C1720 1.415 . S
C1719 C1718 1.355 . S
C1719 C1721 1.419 . S
C1720 C1718 1.415 . S
C1720 C1725 1.425 . S
C1720 C1727 1.409 . S
C1721 H1713 0.930 . S
C1721 C1719 1.419 . S
C1721 C1722 1.362 . S
C1722 H1714 0.930 . S
C1722 C1721 1.362 . S
C1722 C1725 1.409 . S
C1723 H1715 0.930 . S
C1723 C1724 1.355 . S
C1723 C1725 1.415 . S
C1724 C1723 1.355 . S
C1724 C1726 1.419 . S
C1725 C1720 1.425 . S
C1725 C1722 1.409 . S
C1725 C1723 1.415 . S
C1726 H1716 0.930 . S
C1726 C1724 1.419 . S
C1726 C1727 1.362 . S
C1727 H1717 0.930 . S
C1727 C1720 1.409 . S
C1727 C1726 1.362 . S
H1728 C1734 0.930 . S
H1729 C1737 0.930 . S
H1730 C1738 0.930 . S
H1731 C1739 0.930 . S
H1732 C1742 0.930 . S
H1733 C1743 0.930 . S
C1734 H1728 0.930 . S
C1734 C1735 1.355 . S
C1734 C1736 1.415 . S
C1735 C1734 1.355 . S
C1735 C1737 1.419 . S
C1736 C1734 1.415 . S
C1736 C1741 1.425 . S
C1736 C1743 1.409 . S
C1737 H1729 0.930 . S
C1737 C1735 1.419 . S
C1737 C1738 1.362 . S
C1738 H1730 0.930 . S
C1738 C1737 1.362 . S
C1738 C1741 1.409 . S
C1739 H1731 0.930 . S
C1739 C1740 1.355 . S
C1739 C1741 1.415 . S
C1740 C1739 1.355 . S
C1740 C1742 1.419 . S
C1741 C1736 1.425 . S
C1741 C1738 1.409 . S
C1741 C1739 1.415 . S
C1742 H1732 0.930 . S
C1742 C1740 1.419 . S
C1742 C1743 1.362 . S
C1743 H1733 0.930 . S
C1743 C1736 1.409 . S
C1743 C1742 1.362 . S
H1744 C1750 0.930 . S
H1745 C1753 0.930 . S
H1746 C1754 0.930 . S
H1747 C1755 0.930 . S
H1748 C1758 0.930 . S
H1749 C1759 0.930 . S
C1750 H1744 0.930 . S
C1750 C1751 1.355 . S
C1750 C1752 1.415 . S
C1751 C1750 1.355 . S
C1751 C1753 1.419 . S
C1752 C1750 1.415 . S
C1752 C1757 1.425 . S
C1752 C1759 1.409 . S
C1753 H1745 0.930 . S
C1753 C1751 1.419 . S
C1753 C1754 1.362 . S
C1754 H1746 0.930 . S
C1754 C1753 1.362 . S
C1754 C1757 1.409 . S
C1755 H1747 0.930 . S
C1755 C1756 1.355 . S
C1755 C1757 1.415 . S
C1756 C1755 1.355 . S
C1756 C1758 1.419 . S
C1757 C1752 1.425 . S
C1757 C1754 1.409 . S
C1757 C1755 1.415 . S
C1758 H1748 0.930 . S
C1758 C1756 1.419 . S
C1758 C1759 1.362 . S
C1759 H1749 0.930 . S
C1759 C1752 1.409 . S
C1759 C1758 1.362 . S
H1760 C1766 0.930 . S
H1761 C1769 0.930 . S
H1762 C1770 0.930 . S
H1763 C1771 0.930 . S
H1764 C1774 0.930 . S
H1765 C1775 0.930 . S
C1766 H1760 0.930 . S
C1766 C1767 1.355 . S
C1766 C1768 1.415 . S
C1767 C1766 1.355 . S
C1767 C1769 1.419 . S
C1768 C1766 1.415 . S
C1768 C1773 1.425 . S
C1768 C1775 1.409 . S
C1769 H1761 0.930 . S
C1769 C1767 1.419 . S
C1769 C1770 1.362 . S
C1770 H1762 0.930 . S
C1770 C1769 1.362 . S
C1770 C1773 1.409 . S
C1771 H1763 0.930 . S
C1771 C1772 1.355 . S
C1771 C1773 1.415 . S
C1772 C1771 1.355 . S
C1772 C1774 1.419 . S
C1773 C1768 1.425 . S
C1773 C1770 1.409 . S
C1773 C1771 1.415 . S
C1774 H1764 0.930 . S
C1774 C1772 1.419 . S
C1774 C1775 1.362 . S
C1775 H1765 0.930 . S
C1775 C1768 1.409 . S
C1775 C1774 1.362 . S
H1776 C1782 0.930 . S
H1777 C1785 0.930 . S
H1778 C1786 0.930 . S
H1779 C1787 0.930 . S
H1780 C1790 0.930 . S
H1781 C1791 0.930 . S
C1782 H1776 0.930 . S
C1782 C1783 1.355 . S
C1782 C1784 1.415 . S
C1783 C1782 1.355 . S
C1783 C1785 1.419 . S
C1784 C1782 1.415 . S
C1784 C1789 1.425 . S
C1784 C1791 1.409 . S
C1785 H1777 0.930 . S
C1785 C1783 1.419 . S
C1785 C1786 1.362 . S
C1786 H1778 0.930 . S
C1786 C1785 1.362 . S
C1786 C1789 1.409 . S
C1787 H1779 0.930 . S
C1787 C1788 1.355 . S
C1787 C1789 1.415 . S
C1788 C1787 1.355 . S
C1788 C1790 1.419 . S
C1789 C1784 1.425 . S
C1789 C1786 1.409 . S
C1789 C1787 1.415 . S
C1790 H1780 0.930 . S
C1790 C1788 1.419 . S
C1790 C1791 1.362 . S
C1791 H1781 0.930 . S
C1791 C1784 1.409 . S
C1791 C1790 1.362 . S
H1792 C1798 0.930 . S
H1793 C1801 0.930 . S
H1794 C1802 0.930 . S
H1795 C1803 0.930 . S
H1796 C1806 0.930 . S
H1797 C1807 0.930 . S
C1798 H1792 0.930 . S
C1798 C1799 1.355 . S
C1798 C1800 1.415 . S
C1799 C1798 1.355 . S
C1799 C1801 1.419 . S
C1800 C1798 1.415 . S
C1800 C1805 1.425 . S
C1800 C1807 1.409 . S
C1801 H1793 0.930 . S
C1801 C1799 1.419 . S
C1801 C1802 1.362 . S
C1802 H1794 0.930 . S
C1802 C1801 1.362 . S
C1802 C1805 1.409 . S
C1803 H1795 0.930 . S
C1803 C1804 1.355 . S
C1803 C1805 1.415 . S
C1804 C1803 1.355 . S
C1804 C1806 1.419 . S
C1805 C1800 1.425 . S
C1805 C1802 1.409 . S
C1805 C1803 1.415 . S
C1806 H1796 0.930 . S
C1806 C1804 1.419 . S
C1806 C1807 1.362 . S
C1807 H1797 0.930 . S
C1807 C1800 1.409 . S
C1807 C1806 1.362 . S
H1808 C1814 0.930 . S
H1809 C1817 0.930 . S
H1810 C1818 0.930 . S
H1811 C1819 0.930 . S
H1812 C1822 0.930 . S
H1813 C1823 0.930 . S
C1814 H1808 0.930 . S
C1814 C1815 1.355 . S
C1814 C1816 1.415 . S
C1815 C1814 1.355 . S
C1815 C1817 1.419 . S
C1816 C1814 1.415 . S
C1816 C1821 1.425 . S
C1816 C1823 1.409 . S
C1817 H1809 0.930 . S
C1817 C1815 1.419 . S
C1817 C1818 1.362 . S
C1818 H1810 0.930 . S
C1818 C1817 1.362 . S
C1818 C1821 1.409 . S
C1819 H1811 0.930 . S
C1819 C1820 1.355 . S
C1819 C1821 1.415 . S
C1820 C1819 1.355 . S
C1820 C1822 1.419 . S
C1821 C1816 1.425 . S
C1821 C1818 1.409 . S
C1821 C1819 1.415 . S
C1822 H1812 0.930 . S
C1822 C1820 1.419 . S
C1822 C1823 1.362 . S
C1823 H1813 0.930 . S
C1823 C1816 1.409 . S
C1823 C1822 1.362 . S
H1824 C1830 0.930 . S
H1825 C1833 0.930 . S
H1826 C1834 0.930 . S
H1827 C1835 0.930 . S
H1828 C1838 0.930 . S
H1829 C1839 0.930 . S
C1830 H1824 0.930 . S
C1830 C1831 1.355 . S
C1830 C1832 1.415 . S
C1831 C1830 1.355 . S
C1831 C1833 1.419 . S
C1832 C1830 1.415 . S
C1832 C1837 1.425 . S
C1832 C1839 1.409 . S
C1833 H1825 0.930 . S
C1833 C1831 1.419 . S
C1833 C1834 1.362 . S
C1834 H1826 0.930 . S
C1834 C1833 1.362 . S
C1834 C1837 1.409 . S
C1835 H1827 0.930 . S
C1835 C1836 1.355 . S
C1835 C1837 1.415 . S
C1836 C1835 1.355 . S
C1836 C1838 1.419 . S
C1837 C1832 1.425 . S
C1837 C1834 1.409 . S
C1837 C1835 1.415 . S
C1838 H1828 0.930 . S
C1838 C1836 1.419 . S
C1838 C1839 1.362 . S
C1839 H1829 0.930 . S
C1839 C1832 1.409 . S
C1839 C1838 1.362 . S
H1840 C1846 0.930 . S
H1841 C1849 0.930 . S
H1842 C1850 0.930 . S
H1843 C1851 0.930 . S
H1844 C1854 0.930 . S
H1845 C1855 0.930 . S
C1846 H1840 0.930 . S
C1846 C1847 1.355 . S
C1846 C1848 1.415 . S
C1847 C1846 1.355 . S
C1847 C1849 1.419 . S
C1848 C1846 1.415 . S
C1848 C1853 1.425 . S
C1848 C1855 1.409 . S
C1849 H1841 0.930 . S
C1849 C1847 1.419 . S
C1849 C1850 1.362 . S
C1850 H1842 0.930 . S
C1850 C1849 1.362 . S
C1850 C1853 1.409 . S
C1851 H1843 0.930 . S
C1851 C1852 1.355 . S
C1851 C1853 1.415 . S
C1852 C1851 1.355 . S
C1852 C1854 1.419 . S
C1853 C1848 1.425 . S
C1853 C1850 1.409 . S
C1853 C1851 1.415 . S
C1854 H1844 0.930 . S
C1854 C1852 1.419 . S
C1854 C1855 1.362 . S
C1855 H1845 0.930 . S
C1855 C1848 1.409 . S
C1855 C1854 1.362 . S
H1856 C1862 0.930 . S
H1857 C1865 0.930 . S
H1858 C1866 0.930 . S
H1859 C1867 0.930 . S
H1860 C1870 0.930 . S
H1861 C1871 0.930 . S
C1862 H1856 0.930 . S
C1862 C1863 1.355 . S
C1862 C1864 1.415 . S
C1863 C1862 1.355 . S
C1863 C1865 1.419 . S
C1864 C1862 1.415 . S
C1864 C1869 1.425 . S
C1864 C1871 1.409 . S
C1865 H1857 0.930 . S
C1865 C1863 1.419 . S
C1865 C1866 1.362 . S
C1866 H1858 0.930 . S
C1866 C1865 1.362 . S
C1866 C1869 1.409 . S
C1867 H1859 0.930 . S
C1867 C1868 1.355 . S
C1867 C1869 1.415 . S
C1868 C1867 1.355 . S
C1868 C1870 1.419 . S
C1869 C1864 1.425 . S
C1869 C1866 1.409 . S
C1869 C1867 1.415 . S
C1870 H1860 0.930 . S
C1870 C1868 1.419 . S
C1870 C1871 1.362 . S
C1871 H1861 0.930 . S
C1871 C1864 1.409 . S
C1871 C1870 1.362 . S
H1872 C1878 0.930 . S
H1873 C1881 0.930 . S
H1874 C1882 0.930 . S
H1875 C1883 0.930 . S
H1876 C1886 0.930 . S
H1877 C1887 0.930 . S
C1878 H1872 0.930 . S
C1878 C1879 1.355 . S
C1878 C1880 1.415 . S
C1879 C1878 1.355 . S
C1879 C1881 1.419 . S
C1880 C1878 1.415 . S
C1880 C1885 1.425 . S
C1880 C1887 1.409 . S
C1881 H1873 0.930 . S
C1881 C1879 1.419 . S
C1881 C1882 1.362 . S
C1882 H1874 0.930 . S
C1882 C1881 1.362 . S
C1882 C1885 1.409 . S
C1883 H1875 0.930 . S
C1883 C1884 1.355 . S
C1883 C1885 1.415 . S
C1884 C1883 1.355 . S
C1884 C1886 1.419 . S
C1885 C1880 1.425 . S
C1885 C1882 1.409 . S
C1885 C1883 1.415 . S
C1886 H1876 0.930 . S
C1886 C1884 1.419 . S
C1886 C1887 1.362 . S
C1887 H1877 0.930 . S
C1887 C1880 1.409 . S
C1887 C1886 1.362 . S
H1888 C1894 0.930 . S
H1889 C1897 0.930 . S
H1890 C1898 0.930 . S
H1891 C1899 0.930 . S
H1892 C1902 0.930 . S
H1893 C1903 0.930 . S
C1894 H1888 0.930 . S
C1894 C1895 1.355 . S
C1894 C1896 1.415 . S
C1895 C1894 1.355 . S
C1895 C1897 1.419 . S
C1896 C1894 1.415 . S
C1896 C1901 1.425 . S
C1896 C1903 1.409 . S
C1897 H1889 0.930 . S
C1897 C1895 1.419 . S
C1897 C1898 1.362 . S
C1898 H1890 0.930 . S
C1898 C1897 1.362 . S
C1898 C1901 1.409 . S
C1899 H1891 0.930 . S
C1899 C1900 1.355 . S
C1899 C1901 1.415 . S
C1900 C1899 1.355 . S
C1900 C1902 1.419 . S
C1901 C1896 1.425 . S
C1901 C1898 1.409 . S
C1901 C1899 1.415 . S
C1902 H1892 0.930 . S
C1902 C1900 1.419 . S
C1902 C1903 1.362 . S
C1903 H1893 0.930 . S
C1903 C1896 1.409 . S
C1903 C1902 1.362 . S
H1904 C1910 0.930 . S
H1905 C1913 0.930 . S
H1906 C1914 0.930 . S
H1907 C1915 0.930 . S
H1908 C1918 0.930 . S
H1909 C1919 0.930 . S
C1910 H1904 0.930 . S
C1910 C1911 1.355 . S
C1910 C1912 1.415 . S
C1911 C1910 1.355 . S
C1911 C1913 1.419 . S
C1912 C1910 1.415 . S
C1912 C1917 1.425 . S
C1912 C1919 1.409 . S
C1913 H1905 0.930 . S
C1913 C1911 1.419 . S
C1913 C1914 1.362 . S
C1914 H1906 0.930 . S
C1914 C1913 1.362 . S
C1914 C1917 1.409 . S
C1915 H1907 0.930 . S
C1915 C1916 1.355 . S
C1915 C1917 1.415 . S
C1916 C1915 1.355 . S
C1916 C1918 1.419 . S
C1917 C1912 1.425 . S
C1917 C1914 1.409 . S
C1917 C1915 1.415 . S
C1918 H1908 0.930 . S
C1918 C1916 1.419 . S
C1918 C1919 1.362 . S
C1919 H1909 0.930 . S
C1919 C1912 1.409 . S
C1919 C1918 1.362 . S
H1920 C1926 0.930 . S
H1921 C1929 0.944 . S
H1922 C1930 0.930 . S
H1923 C1931 0.930 . S
H1924 C1934 0.930 . S
H1925 C1935 0.930 . S
C1926 H1920 0.930 . S
C1926 C1927 1.355 . S
C1926 C1928 1.415 . S
C1927 C1926 1.355 . S
C1927 C1929 1.419 . S
C1928 C1926 1.415 . S
C1928 C1933 1.425 . S
C1928 C1935 1.409 . S
C1929 H1921 0.944 . S
C1929 C1927 1.419 . S
C1929 C1930 1.362 . S
C1930 H1922 0.930 . S
C1930 C1929 1.362 . S
C1930 C1933 1.409 . S
C1931 H1923 0.930 . S
C1931 C1932 1.355 . S
C1931 C1933 1.415 . S
C1932 C1931 1.355 . S
C1932 C1934 1.419 . S
C1933 C1928 1.425 . S
C1933 C1930 1.409 . S
C1933 C1931 1.415 . S
C1934 H1924 0.930 . S
C1934 C1932 1.419 . S
C1934 C1935 1.362 . S
C1935 H1925 0.930 . S
C1935 C1928 1.409 . S
C1935 C1934 1.362 . S
H1936 C1942 0.930 . S
H1937 C1945 0.930 . S
H1938 C1946 0.930 . S
H1939 C1947 0.930 . S
H1940 C1950 0.930 . S
H1941 C1951 0.930 . S
C1942 H1936 0.930 . S
C1942 C1943 1.355 . S
C1942 C1944 1.415 . S
C1943 C1942 1.355 . S
C1943 C1945 1.419 . S
C1944 C1942 1.415 . S
C1944 C1949 1.425 . S
C1944 C1951 1.409 . S
C1945 H1937 0.930 . S
C1945 C1943 1.419 . S
C1945 C1946 1.362 . S
C1946 H1938 0.930 . S
C1946 C1945 1.362 . S
C1946 C1949 1.409 . S
C1947 H1939 0.930 . S
C1947 C1948 1.355 . S
C1947 C1949 1.415 . S
C1948 C1947 1.355 . S
C1948 C1950 1.419 . S
C1949 C1944 1.425 . S
C1949 C1946 1.409 . S
C1949 C1947 1.415 . S
C1950 H1940 0.930 . S
C1950 C1948 1.419 . S
C1950 C1951 1.362 . S
C1951 H1941 0.930 . S
C1951 C1944 1.409 . S
C1951 C1950 1.362 . S
H1952 C1958 0.930 . S
H1953 C1961 0.930 . S
H1954 C1962 0.930 . S
H1955 C1963 0.930 . S
H1956 C1966 0.930 . S
H1957 C1967 0.930 1_455 S
C1958 H1952 0.930 . S
C1958 C1959 1.355 . S
C1958 C1960 1.415 . S
C1959 C1958 1.355 . S
C1959 C1961 1.419 . S
C1960 C1958 1.415 . S
C1960 C1965 1.425 . S
C1960 C1967 1.409 . S
C1961 H1953 0.930 . S
C1961 C1959 1.419 . S
C1961 C1962 1.362 . S
C1962 H1954 0.930 . S
C1962 C1961 1.362 . S
C1962 C1965 1.409 . S
C1963 H1955 0.930 . S
C1963 C1964 1.355 . S
C1963 C1965 1.415 . S
C1964 C1963 1.355 . S
C1964 C1966 1.419 . S
C1965 C1960 1.425 . S
C1965 C1962 1.409 . S
C1965 C1963 1.415 . S
C1966 H1956 0.930 . S
C1966 C1964 1.419 . S
C1966 C1967 1.362 . S
C1967 H1957 0.930 1_655 S
C1967 C1960 1.409 . S
C1967 C1966 1.362 . S
H1968 C1974 0.930 . S
H1969 C1977 0.930 1_545 S
H1970 C1978 0.930 . S
H1971 C1979 0.930 . S
H1972 C1982 0.930 . S
H1973 C1983 0.930 . S
C1974 H1968 0.930 . S
C1974 C1975 1.355 . S
C1974 C1976 1.415 . S
C1975 C1974 1.355 . S
C1975 C1977 1.419 . S
C1976 C1974 1.415 . S
C1976 C1981 1.425 . S
C1976 C1983 1.409 . S
C1977 H1969 0.930 1_565 S
C1977 C1975 1.419 . S
C1977 C1978 1.362 . S
C1978 H1970 0.930 . S
C1978 C1977 1.362 . S
C1978 C1981 1.409 . S
C1979 H1971 0.930 . S
C1979 C1980 1.355 . S
C1979 C1981 1.415 . S
C1980 C1979 1.355 . S
C1980 C1982 1.419 . S
C1981 C1976 1.425 . S
C1981 C1978 1.409 . S
C1981 C1979 1.415 . S
C1982 H1972 0.930 . S
C1982 C1980 1.419 . S
C1982 C1983 1.362 . S
C1983 H1973 0.930 . S
C1983 C1976 1.409 . S
C1983 C1982 1.362 . S
H1984 C1990 0.930 . S
H1985 C1993 0.930 . S
H1986 C1994 0.930 . S
H1987 C1995 0.930 . S
H1988 C1998 0.930 . S
H1989 C1999 0.930 . S
C1990 H1984 0.930 . S
C1990 C1991 1.355 . S
C1990 C1992 1.415 . S
C1991 C1990 1.355 . S
C1991 C1993 1.419 . S
C1992 C1990 1.415 . S
C1992 C1997 1.425 . S
C1992 C1999 1.409 . S
C1993 H1985 0.930 . S
C1993 C1991 1.419 . S
C1993 C1994 1.362 . S
C1994 H1986 0.930 . S
C1994 C1993 1.362 . S
C1994 C1997 1.409 . S
C1995 H1987 0.930 . S
C1995 C1996 1.355 . S
C1995 C1997 1.415 . S
C1996 C1995 1.355 . S
C1996 C1998 1.419 . S
C1997 C1992 1.425 . S
C1997 C1994 1.409 . S
C1997 C1995 1.415 . S
C1998 H1988 0.930 . S
C1998 C1996 1.419 . S
C1998 C1999 1.362 . S
C1999 H1989 0.930 . S
C1999 C1992 1.409 . S
C1999 C1998 1.362 . S
H2000 C2006 0.930 . S
H2001 C2009 0.930 . S
H2002 C2010 0.930 . S
H2003 C2011 0.930 . S
H2004 C2014 0.930 . S
H2005 C2015 0.930 . S
C2006 H2000 0.930 . S
C2006 C2007 1.355 . S
C2006 C2008 1.415 . S
C2007 C2006 1.355 . S
C2007 C2009 1.419 . S
C2008 C2006 1.415 . S
C2008 C2013 1.425 . S
C2008 C2015 1.409 . S
C2009 H2001 0.930 . S
C2009 C2007 1.419 . S
C2009 C2010 1.362 . S
C2010 H2002 0.930 . S
C2010 C2009 1.362 . S
C2010 C2013 1.409 . S
C2011 H2003 0.930 . S
C2011 C2012 1.355 . S
C2011 C2013 1.415 . S
C2012 C2011 1.355 . S
C2012 C2014 1.419 . S
C2013 C2008 1.425 . S
C2013 C2010 1.409 . S
C2013 C2011 1.415 . S
C2014 H2004 0.930 . S
C2014 C2012 1.419 . S
C2014 C2015 1.362 . S
C2015 H2005 0.930 . S
C2015 C2008 1.409 . S
C2015 C2014 1.362 . S
H2016 C2022 0.930 . S
H2017 C2025 0.930 . S
H2018 C2026 0.930 . S
H2019 C2027 0.930 . S
H2020 C2030 0.930 . S
H2021 C2031 0.930 . S
C2022 H2016 0.930 . S
C2022 C2023 1.355 . S
C2022 C2024 1.415 . S
C2023 C2022 1.355 . S
C2023 C2025 1.419 . S
C2024 C2022 1.415 . S
C2024 C2029 1.425 . S
C2024 C2031 1.409 . S
C2025 H2017 0.930 . S
C2025 C2023 1.419 . S
C2025 C2026 1.362 . S
C2026 H2018 0.930 . S
C2026 C2025 1.362 . S
C2026 C2029 1.409 . S
C2027 H2019 0.930 . S
C2027 C2028 1.355 . S
C2027 C2029 1.415 . S
C2028 C2027 1.355 . S
C2028 C2030 1.419 . S
C2029 C2024 1.425 . S
C2029 C2026 1.409 . S
C2029 C2027 1.415 . S
C2030 H2020 0.930 . S
C2030 C2028 1.419 . S
C2030 C2031 1.362 . S
C2031 H2021 0.930 . S
C2031 C2024 1.409 . S
C2031 C2030 1.362 . S
H2032 C2038 0.930 . S
H2033 C2041 0.930 . S
H2034 C2042 0.930 . S
H2035 C2043 0.930 . S
H2036 C2046 0.930 . S
H2037 C2047 0.930 . S
C2038 H2032 0.930 . S
C2038 C2039 1.355 . S
C2038 C2040 1.415 . S
C2039 C2038 1.355 . S
C2039 C2041 1.419 . S
C2040 C2038 1.415 . S
C2040 C2045 1.425 . S
C2040 C2047 1.409 . S
C2041 H2033 0.930 . S
C2041 C2039 1.419 . S
C2041 C2042 1.362 . S
C2042 H2034 0.930 . S
C2042 C2041 1.362 . S
C2042 C2045 1.409 . S
C2043 H2035 0.930 . S
C2043 C2044 1.355 . S
C2043 C2045 1.415 . S
C2044 C2043 1.355 . S
C2044 C2046 1.419 . S
C2045 C2040 1.425 . S
C2045 C2042 1.409 . S
C2045 C2043 1.415 . S
C2046 H2036 0.930 . S
C2046 C2044 1.419 . S
C2046 C2047 1.362 . S
C2047 H2037 0.930 . S
C2047 C2040 1.409 . S
C2047 C2046 1.362 . S
H2048 C2054 0.930 . S
H2049 C2057 0.930 . S
H2050 C2058 0.930 . S
H2051 C2059 0.930 . S
H2052 C2062 0.930 . S
H2053 C2063 0.930 . S
C2054 H2048 0.930 . S
C2054 C2055 1.355 . S
C2054 C2056 1.415 . S
C2055 C2054 1.355 . S
C2055 C2057 1.419 . S
C2056 C2054 1.415 . S
C2056 C2061 1.425 . S
C2056 C2063 1.409 . S
C2057 H2049 0.930 . S
C2057 C2055 1.419 . S
C2057 C2058 1.362 . S
C2058 H2050 0.930 . S
C2058 C2057 1.362 . S
C2058 C2061 1.409 . S
C2059 H2051 0.930 . S
C2059 C2060 1.355 . S
C2059 C2061 1.415 . S
C2060 C2059 1.355 . S
C2060 C2062 1.419 . S
C2061 C2056 1.425 . S
C2061 C2058 1.409 . S
C2061 C2059 1.415 . S
C2062 H2052 0.930 . S
C2062 C2060 1.419 . S
C2062 C2063 1.362 . S
C2063 H2053 0.930 . S
C2063 C2056 1.409 . S
C2063 C2062 1.362 . S
H2064 C2070 0.930 . S
H2065 C2073 0.930 . S
H2066 C2074 0.930 . S
H2067 C2075 0.930 . S
H2068 C2078 0.930 . S
H2069 C2079 0.930 . S
C2070 H2064 0.930 . S
C2070 C2071 1.355 . S
C2070 C2072 1.415 . S
C2071 C2070 1.355 . S
C2071 C2073 1.419 . S
C2072 C2070 1.415 . S
C2072 C2077 1.425 . S
C2072 C2079 1.409 . S
C2073 H2065 0.930 . S
C2073 C2071 1.419 . S
C2073 C2074 1.362 . S
C2074 H2066 0.930 . S
C2074 C2073 1.362 . S
C2074 C2077 1.409 . S
C2075 H2067 0.930 . S
C2075 C2076 1.355 . S
C2075 C2077 1.415 . S
C2076 C2075 1.355 . S
C2076 C2078 1.419 . S
C2077 C2072 1.425 . S
C2077 C2074 1.409 . S
C2077 C2075 1.415 . S
C2078 H2068 0.930 . S
C2078 C2076 1.419 . S
C2078 C2079 1.362 . S
C2079 H2069 0.930 . S
C2079 C2072 1.409 . S
C2079 C2078 1.362 . S
H2080 C2086 0.930 . S
H2081 C2089 0.930 . S
H2082 C2090 0.930 . S
H2083 C2091 0.930 . S
H2084 C2094 0.930 . S
H2085 C2095 0.930 . S
C2086 H2080 0.930 . S
C2086 C2087 1.355 . S
C2086 C2088 1.415 . S
C2087 C2086 1.355 . S
C2087 C2089 1.419 . S
C2088 C2086 1.415 . S
C2088 C2093 1.425 . S
C2088 C2095 1.409 . S
C2089 H2081 0.930 . S
C2089 C2087 1.419 . S
C2089 C2090 1.362 . S
C2090 H2082 0.930 . S
C2090 C2089 1.362 . S
C2090 C2093 1.409 . S
C2091 H2083 0.930 . S
C2091 C2092 1.355 . S
C2091 C2093 1.415 . S
C2092 C2091 1.355 . S
C2092 C2094 1.419 . S
C2093 C2088 1.425 . S
C2093 C2090 1.409 . S
C2093 C2091 1.415 . S
C2094 H2084 0.930 . S
C2094 C2092 1.419 . S
C2094 C2095 1.362 . S
C2095 H2085 0.930 . S
C2095 C2088 1.409 . S
C2095 C2094 1.362 . S
H2096 C2102 0.930 . S
H2097 C2105 0.930 . S
H2098 C2106 0.930 . S
H2099 C2107 0.930 . S
H2100 C2110 0.930 . S
H2101 C2111 0.930 . S
C2102 H2096 0.930 . S
C2102 C2103 1.355 . S
C2102 C2104 1.415 . S
C2103 C2102 1.355 . S
C2103 C2105 1.419 . S
C2104 C2102 1.415 . S
C2104 C2109 1.425 . S
C2104 C2111 1.409 . S
C2105 H2097 0.930 . S
C2105 C2103 1.419 . S
C2105 C2106 1.362 . S
C2106 H2098 0.930 . S
C2106 C2105 1.362 . S
C2106 C2109 1.409 . S
C2107 H2099 0.930 . S
C2107 C2108 1.355 . S
C2107 C2109 1.415 . S
C2108 C2107 1.355 . S
C2108 C2110 1.419 . S
C2109 C2104 1.425 . S
C2109 C2106 1.409 . S
C2109 C2107 1.415 . S
C2110 H2100 0.930 . S
C2110 C2108 1.419 . S
C2110 C2111 1.362 . S
C2111 H2101 0.930 . S
C2111 C2104 1.409 . S
C2111 C2110 1.362 . S
H2112 C2118 0.930 . S
H2113 C2121 0.930 . S
H2114 C2122 0.930 . S
H2115 C2123 0.930 . S
H2116 C2126 0.930 . S
H2117 C2127 0.930 . S
C2118 H2112 0.930 . S
C2118 C2119 1.355 . S
C2118 C2120 1.415 . S
C2119 C2118 1.355 . S
C2119 C2121 1.419 . S
C2120 C2118 1.415 . S
C2120 C2125 1.425 . S
C2120 C2127 1.409 . S
C2121 H2113 0.930 . S
C2121 C2119 1.419 . S
C2121 C2122 1.362 . S
C2122 H2114 0.930 . S
C2122 C2121 1.362 . S
C2122 C2125 1.409 . S
C2123 H2115 0.930 . S
C2123 C2124 1.355 . S
C2123 C2125 1.415 . S
C2124 C2123 1.355 . S
C2124 C2126 1.419 . S
C2125 C2120 1.425 . S
C2125 C2122 1.409 . S
C2125 C2123 1.415 . S
C2126 H2116 0.930 . S
C2126 C2124 1.419 . S
C2126 C2127 1.362 . S
C2127 H2117 0.930 . S
C2127 C2120 1.409 . S
C2127 C2126 1.362 . S
H2128 C2134 0.930 . S
H2129 C2137 0.930 . S
H2130 C2138 0.930 . S
H2131 C2139 0.930 . S
H2132 C2142 0.930 . S
H2133 C2143 0.930 . S
C2134 H2128 0.930 . S
C2134 C2135 1.355 . S
C2134 C2136 1.415 . S
C2135 C2134 1.355 . S
C2135 C2137 1.419 . S
C2136 C2134 1.415 . S
C2136 C2141 1.425 . S
C2136 C2143 1.409 . S
C2137 H2129 0.930 . S
C2137 C2135 1.419 . S
C2137 C2138 1.362 . S
C2138 H2130 0.930 . S
C2138 C2137 1.362 . S
C2138 C2141 1.409 . S
C2139 H2131 0.930 . S
C2139 C2140 1.355 . S
C2139 C2141 1.415 . S
C2140 C2139 1.355 . S
C2140 C2142 1.419 . S
C2141 C2136 1.425 . S
C2141 C2138 1.409 . S
C2141 C2139 1.415 . S
C2142 H2132 0.930 . S
C2142 C2140 1.419 . S
C2142 C2143 1.362 . S
C2143 H2133 0.930 . S
C2143 C2136 1.409 . S
C2143 C2142 1.362 . S
H2144 C2150 0.930 . S
H2145 C2153 0.930 . S
H2146 C2154 0.930 . S
H2147 C2155 0.930 . S
H2148 C2158 0.930 . S
H2149 C2159 0.930 . S
C2150 H2144 0.930 . S
C2150 C2151 1.355 . S
C2150 C2152 1.415 . S
C2151 C2150 1.355 . S
C2151 C2153 1.419 . S
C2152 C2150 1.415 . S
C2152 C2157 1.425 . S
C2152 C2159 1.409 . S
C2153 H2145 0.930 . S
C2153 C2151 1.419 . S
C2153 C2154 1.362 . S
C2154 H2146 0.930 . S
C2154 C2153 1.362 . S
C2154 C2157 1.409 . S
C2155 H2147 0.930 . S
C2155 C2156 1.355 . S
C2155 C2157 1.415 . S
C2156 C2155 1.355 . S
C2156 C2158 1.419 . S
C2157 C2152 1.425 . S
C2157 C2154 1.409 . S
C2157 C2155 1.415 . S
C2158 H2148 0.930 . S
C2158 C2156 1.419 . S
C2158 C2159 1.362 . S
C2159 H2149 0.930 . S
C2159 C2152 1.409 . S
C2159 C2158 1.362 . S
H2160 C2166 0.930 . S
H2161 C2169 0.930 . S
H2162 C2170 0.930 . S
H2163 C2171 0.930 . S
H2164 C2174 0.930 . S
H2165 C2175 0.930 . S
C2166 H2160 0.930 . S
C2166 C2167 1.355 . S
C2166 C2168 1.415 . S
C2167 C2166 1.355 . S
C2167 C2169 1.419 . S
C2168 C2166 1.415 . S
C2168 C2173 1.425 . S
C2168 C2175 1.409 . S
C2169 H2161 0.930 . S
C2169 C2167 1.419 . S
C2169 C2170 1.362 . S
C2170 H2162 0.930 . S
C2170 C2169 1.362 . S
C2170 C2173 1.409 . S
C2171 H2163 0.930 . S
C2171 C2172 1.355 . S
C2171 C2173 1.415 . S
C2172 C2171 1.355 . S
C2172 C2174 1.419 . S
C2173 C2168 1.425 . S
C2173 C2170 1.409 . S
C2173 C2171 1.415 . S
C2174 H2164 0.930 . S
C2174 C2172 1.419 . S
C2174 C2175 1.362 . S
C2175 H2165 0.930 . S
C2175 C2168 1.409 . S
C2175 C2174 1.362 . S
C1159 C74 0.854 . S
C1164 C2 0.787 . S
C1175 C38 0.782 . S
C1180 C110 0.853 . S
C1191 C220 0.665 . S
C1196 C148 0.670 . S
C1207 C256 0.552 . S
C1212 C184 0.429 . S
C1223 C290 0.731 1_545 S
C1228 C362 0.827 . S
C1239 C398 0.690 1_545 S
C1244 C326 0.791 . S
C1255 C436 0.645 . S
C1260 C508 0.518 . S
C1271 C472 0.593 . S
C1276 C544 0.679 . S
C1287 C650 0.745 . S
C1292 C578 0.836 . S
C1303 C614 0.813 . S
C1308 C686 0.858 . S
C1319 C724 0.475 . S
C1324 C796 0.420 . S
C1335 C832 0.490 . S
C1340 C760 0.417 . S
C1351 C938 0.758 . S
C1356 C866 0.843 1_545 S
C1367 C974 0.697 1_545 S
C1372 C902 0.799 . S
C1383 C1084 0.542 . S
C1388 C1012 0.424 . S
C1399 C1048 0.587 . S
C1404 C1120 0.452 . S
C1415 C158 1.496 . S
C1420 C3 1.618 . S
C1431 C1058 1.460 . S
C1436 C39 1.603 . S
C1447 C75 1.630 . S
C1452 C518 1.527 . S
C1463 C111 1.629 . S
C1468 C842 1.526 . S
C1479 C194 1.507 . S
C1484 C903 1.620 . S
C1495 C230 1.438 . S
C1500 C363 1.591 . S
C1511 C687 1.625 . S
C1516 C266 1.519 . S
C1527 C446 1.444 . S
C1532 C291 1.593 . S
C1543 C770 1.421 . S
C1548 C327 1.585 . S
C1559 C399 1.593 . S
C1564 C1130 1.444 . S
C1575 C482 1.511 . S
C1580 C615 1.622 . S
C1591 C975 1.605 . S
C1596 C554 1.472 . S
C1607 C734 1.458 . S
C1612 C579 1.603 . S
C1623 C651 1.592 . S
C1628 C1094 1.439 . S
C1639 C806 1.444 . S
C1644 C939 1.597 . S
C1655 C1022 1.422 . S
C1660 C867 1.587 . S
C1671 C112 1.530 . S
C1676 C4 1.520 . S
C1687 C76 1.506 . S
C1692 C40 1.503 . S
C1703 C254 1.450 . S
C1708 C146 1.446 . S
C1719 C218 1.422 . S
C1724 C182 1.422 . S
C1735 C400 1.506 . S
C1740 C292 1.503 . S
C1751 C364 1.533 . S
C1756 C328 1.524 . S
C1767 C542 1.433 . S
C1772 C434 1.430 . S
C1783 C506 1.444 . S
C1788 C470 1.449 . S
C1799 C580 1.537 . S
C1804 C688 1.529 . S
C1815 C652 1.535 . S
C1820 C616 1.526 . S
C1831 C722 1.422 . S
C1836 C830 1.423 . S
C1847 C794 1.423 . S
C1852 C758 1.425 . S
C1863 C976 1.504 . S
C1868 C868 1.503 . S
C1879 C904 1.527 . S
C1884 C940 1.536 . S
C1895 C1010 1.476 . S
C1900 C1118 1.473 . S
C1911 C1082 1.422 . S
C1916 C1046 1.423 . S
C1927 C86 1.666 1_545 S
C1932 C14 1.636 . S
C1943 C50 1.696 1_545 S
C1948 C122 1.662 . S
C1959 C147 1.311 . S
C1964 C219 1.336 1_565 S
C1975 C183 1.315 1_565 S
C1980 C255 1.335 . S
C1991 C302 1.640 . S
C1996 C374 1.660 . S
C2007 C338 1.676 . S
C2012 C410 1.632 . S
C2023 C507 1.327 . S
C2028 C435 1.326 . S
C2039 C543 1.334 . S
C2044 C471 1.318 . S
C2055 C662 1.693 1_545 S
C2060 C590 1.632 . S
C2071 C698 1.689 . S
C2076 C626 1.631 1_545 S
C2087 C723 1.335 . S
C2092 C795 1.315 1_565 S
C2103 C831 1.334 . S
C2108 C759 1.318 1_565 S
C2119 C950 1.683 . S
C2124 C878 1.631 . S
C2135 C914 1.643 . S
C2140 C986 1.700 . S
C2151 C1011 1.324 . S
C2156 C1083 1.329 . S
C2167 C1119 1.324 . S
C2172 C1047 1.312 . S
