# Generated by pormake.
# Topology wio, (6)-cn, num edge types: 1
# Building blocks:
#     Node 0, Type 0, BuildingBlock: VOLQOD_clean_sbu_1, # of connection points: 6
#     Node 1, Type 0, BuildingBlock: VOLQOD_clean_sbu_1, # of connection points: 6
#     Node 2, Type 0, BuildingBlock: VOLQOD_clean_sbu_1, # of connection points: 6
#     Node 3, Type 0, BuildingBlock: VOLQOD_clean_sbu_1, # of connection points: 6
#     Node 4, Type 0, BuildingBlock: VOLQOD_clean_sbu_1, # of connection points: 6
#     Node 5, Type 0, BuildingBlock: VOLQOD_clean_sbu_1, # of connection points: 6
#     Node 6, Type 0, BuildingBlock: VOLQOD_clean_sbu_1, # of connection points: 6
#     Node 7, Type 0, BuildingBlock: VOLQOD_clean_sbu_1, # of connection points: 6
#     Node 8, Type 0, BuildingBlock: VOLQOD_clean_sbu_1, # of connection points: 6
#     Node 9, Type 0, BuildingBlock: VOLQOD_clean_sbu_1, # of connection points: 6
#     Node 10, Type 0, BuildingBlock: VOLQOD_clean_sbu_1, # of connection points: 6
#     Node 11, Type 0, BuildingBlock: VOLQOD_clean_sbu_1, # of connection points: 6
#     Node 12, Type 0, BuildingBlock: VOLQOD_clean_sbu_1, # of connection points: 6
#     Node 13, Type 0, BuildingBlock: VOLQOD_clean_sbu_1, # of connection points: 6
#     Node 14, Type 0, BuildingBlock: VOLQOD_clean_sbu_1, # of connection points: 6
#     Node 15, Type 0, BuildingBlock: VOLQOD_clean_sbu_1, # of connection points: 6
#     Node 16, Type 0, BuildingBlock: VOLQOD_clean_sbu_1, # of connection points: 6
#     Node 17, Type 0, BuildingBlock: VOLQOD_clean_sbu_1, # of connection points: 6
#     Node 18, Type 0, BuildingBlock: VOLQOD_clean_sbu_1, # of connection points: 6
#     Node 19, Type 0, BuildingBlock: VOLQOD_clean_sbu_1, # of connection points: 6
#     Node 20, Type 0, BuildingBlock: VOLQOD_clean_sbu_1, # of connection points: 6
#     Node 21, Type 0, BuildingBlock: VOLQOD_clean_sbu_1, # of connection points: 6
#     Node 22, Type 0, BuildingBlock: VOLQOD_clean_sbu_1, # of connection points: 6
#     Node 23, Type 0, BuildingBlock: VOLQOD_clean_sbu_1, # of connection points: 6
#     Node 24, Type 0, BuildingBlock: VOLQOD_clean_sbu_1, # of connection points: 6
#     Node 25, Type 0, BuildingBlock: VOLQOD_clean_sbu_1, # of connection points: 6
#     Node 26, Type 0, BuildingBlock: VOLQOD_clean_sbu_1, # of connection points: 6
#     Node 27, Type 0, BuildingBlock: VOLQOD_clean_sbu_1, # of connection points: 6
#     Node 28, Type 0, BuildingBlock: VOLQOD_clean_sbu_1, # of connection points: 6
#     Node 29, Type 0, BuildingBlock: VOLQOD_clean_sbu_1, # of connection points: 6
#     Node 30, Type 0, BuildingBlock: VOLQOD_clean_sbu_1, # of connection points: 6
#     Node 31, Type 0, BuildingBlock: VOLQOD_clean_sbu_1, # of connection points: 6
#     Edge 32, Type (0, 0), BuildingBlock: KIFKEQ_clean_linker_1, # of connection points: 2
#     Edge 33, Type (0, 0), BuildingBlock: KIFKEQ_clean_linker_1, # of connection points: 2
#     Edge 34, Type (0, 0), BuildingBlock: KIFKEQ_clean_linker_1, # of connection points: 2
#     Edge 35, Type (0, 0), BuildingBlock: KIFKEQ_clean_linker_1, # of connection points: 2
#     Edge 36, Type (0, 0), BuildingBlock: KIFKEQ_clean_linker_1, # of connection points: 2
#     Edge 37, Type (0, 0), BuildingBlock: KIFKEQ_clean_linker_1, # of connection points: 2
#     Edge 38, Type (0, 0), BuildingBlock: KIFKEQ_clean_linker_1, # of connection points: 2
#     Edge 39, Type (0, 0), BuildingBlock: KIFKEQ_clean_linker_1, # of connection points: 2
#     Edge 40, Type (0, 0), BuildingBlock: KIFKEQ_clean_linker_1, # of connection points: 2
#     Edge 41, Type (0, 0), BuildingBlock: KIFKEQ_clean_linker_1, # of connection points: 2
#     Edge 42, Type (0, 0), BuildingBlock: KIFKEQ_clean_linker_1, # of connection points: 2
#     Edge 43, Type (0, 0), BuildingBlock: KIFKEQ_clean_linker_1, # of connection points: 2
#     Edge 44, Type (0, 0), BuildingBlock: KIFKEQ_clean_linker_1, # of connection points: 2
#     Edge 45, Type (0, 0), BuildingBlock: KIFKEQ_clean_linker_1, # of connection points: 2
#     Edge 46, Type (0, 0), BuildingBlock: KIFKEQ_clean_linker_1, # of connection points: 2
#     Edge 47, Type (0, 0), BuildingBlock: KIFKEQ_clean_linker_1, # of connection points: 2
#     Edge 48, Type (0, 0), BuildingBlock: KIFKEQ_clean_linker_1, # of connection points: 2
#     Edge 49, Type (0, 0), BuildingBlock: KIFKEQ_clean_linker_1, # of connection points: 2
#     Edge 50, Type (0, 0), BuildingBlock: KIFKEQ_clean_linker_1, # of connection points: 2
#     Edge 51, Type (0, 0), BuildingBlock: KIFKEQ_clean_linker_1, # of connection points: 2
#     Edge 52, Type (0, 0), BuildingBlock: KIFKEQ_clean_linker_1, # of connection points: 2
#     Edge 53, Type (0, 0), BuildingBlock: KIFKEQ_clean_linker_1, # of connection points: 2
#     Edge 54, Type (0, 0), BuildingBlock: KIFKEQ_clean_linker_1, # of connection points: 2
#     Edge 55, Type (0, 0), BuildingBlock: KIFKEQ_clean_linker_1, # of connection points: 2
#     Edge 56, Type (0, 0), BuildingBlock: KIFKEQ_clean_linker_1, # of connection points: 2
#     Edge 57, Type (0, 0), BuildingBlock: KIFKEQ_clean_linker_1, # of connection points: 2
#     Edge 58, Type (0, 0), BuildingBlock: KIFKEQ_clean_linker_1, # of connection points: 2
#     Edge 59, Type (0, 0), BuildingBlock: KIFKEQ_clean_linker_1, # of connection points: 2
#     Edge 60, Type (0, 0), BuildingBlock: KIFKEQ_clean_linker_1, # of connection points: 2
#     Edge 61, Type (0, 0), BuildingBlock: KIFKEQ_clean_linker_1, # of connection points: 2
#     Edge 62, Type (0, 0), BuildingBlock: KIFKEQ_clean_linker_1, # of connection points: 2
#     Edge 63, Type (0, 0), BuildingBlock: KIFKEQ_clean_linker_1, # of connection points: 2
#     Edge 64, Type (0, 0), BuildingBlock: KIFKEQ_clean_linker_1, # of connection points: 2
#     Edge 65, Type (0, 0), BuildingBlock: KIFKEQ_clean_linker_1, # of connection points: 2
#     Edge 66, Type (0, 0), BuildingBlock: KIFKEQ_clean_linker_1, # of connection points: 2
#     Edge 67, Type (0, 0), BuildingBlock: KIFKEQ_clean_linker_1, # of connection points: 2
#     Edge 68, Type (0, 0), BuildingBlock: KIFKEQ_clean_linker_1, # of connection points: 2
#     Edge 69, Type (0, 0), BuildingBlock: KIFKEQ_clean_linker_1, # of connection points: 2
#     Edge 70, Type (0, 0), BuildingBlock: KIFKEQ_clean_linker_1, # of connection points: 2
#     Edge 71, Type (0, 0), BuildingBlock: KIFKEQ_clean_linker_1, # of connection points: 2
#     Edge 72, Type (0, 0), BuildingBlock: KIFKEQ_clean_linker_1, # of connection points: 2
#     Edge 73, Type (0, 0), BuildingBlock: KIFKEQ_clean_linker_1, # of connection points: 2
#     Edge 74, Type (0, 0), BuildingBlock: KIFKEQ_clean_linker_1, # of connection points: 2
#     Edge 75, Type (0, 0), BuildingBlock: KIFKEQ_clean_linker_1, # of connection points: 2
#     Edge 76, Type (0, 0), BuildingBlock: KIFKEQ_clean_linker_1, # of connection points: 2
#     Edge 77, Type (0, 0), BuildingBlock: KIFKEQ_clean_linker_1, # of connection points: 2
#     Edge 78, Type (0, 0), BuildingBlock: KIFKEQ_clean_linker_1, # of connection points: 2
#     Edge 79, Type (0, 0), BuildingBlock: KIFKEQ_clean_linker_1, # of connection points: 2
#     Edge 80, Type (0, 0), BuildingBlock: KIFKEQ_clean_linker_1, # of connection points: 2
#     Edge 81, Type (0, 0), BuildingBlock: KIFKEQ_clean_linker_1, # of connection points: 2
#     Edge 82, Type (0, 0), BuildingBlock: KIFKEQ_clean_linker_1, # of connection points: 2
#     Edge 83, Type (0, 0), BuildingBlock: KIFKEQ_clean_linker_1, # of connection points: 2
#     Edge 84, Type (0, 0), BuildingBlock: KIFKEQ_clean_linker_1, # of connection points: 2
#     Edge 85, Type (0, 0), BuildingBlock: KIFKEQ_clean_linker_1, # of connection points: 2
#     Edge 86, Type (0, 0), BuildingBlock: KIFKEQ_clean_linker_1, # of connection points: 2
#     Edge 87, Type (0, 0), BuildingBlock: KIFKEQ_clean_linker_1, # of connection points: 2
#     Edge 88, Type (0, 0), BuildingBlock: KIFKEQ_clean_linker_1, # of connection points: 2
#     Edge 89, Type (0, 0), BuildingBlock: KIFKEQ_clean_linker_1, # of connection points: 2
#     Edge 90, Type (0, 0), BuildingBlock: KIFKEQ_clean_linker_1, # of connection points: 2
#     Edge 91, Type (0, 0), BuildingBlock: KIFKEQ_clean_linker_1, # of connection points: 2
#     Edge 92, Type (0, 0), BuildingBlock: KIFKEQ_clean_linker_1, # of connection points: 2
#     Edge 93, Type (0, 0), BuildingBlock: KIFKEQ_clean_linker_1, # of connection points: 2
#     Edge 94, Type (0, 0), BuildingBlock: KIFKEQ_clean_linker_1, # of connection points: 2
#     Edge 95, Type (0, 0), BuildingBlock: KIFKEQ_clean_linker_1, # of connection points: 2
#     Edge 96, Type (0, 0), BuildingBlock: KIFKEQ_clean_linker_1, # of connection points: 2
#     Edge 97, Type (0, 0), BuildingBlock: KIFKEQ_clean_linker_1, # of connection points: 2
#     Edge 98, Type (0, 0), BuildingBlock: KIFKEQ_clean_linker_1, # of connection points: 2
#     Edge 99, Type (0, 0), BuildingBlock: KIFKEQ_clean_linker_1, # of connection points: 2
#     Edge 100, Type (0, 0), BuildingBlock: KIFKEQ_clean_linker_1, # of connection points: 2
#     Edge 101, Type (0, 0), BuildingBlock: KIFKEQ_clean_linker_1, # of connection points: 2
#     Edge 102, Type (0, 0), BuildingBlock: KIFKEQ_clean_linker_1, # of connection points: 2
#     Edge 103, Type (0, 0), BuildingBlock: KIFKEQ_clean_linker_1, # of connection points: 2
#     Edge 104, Type (0, 0), BuildingBlock: KIFKEQ_clean_linker_1, # of connection points: 2
#     Edge 105, Type (0, 0), BuildingBlock: KIFKEQ_clean_linker_1, # of connection points: 2
#     Edge 106, Type (0, 0), BuildingBlock: KIFKEQ_clean_linker_1, # of connection points: 2
#     Edge 107, Type (0, 0), BuildingBlock: KIFKEQ_clean_linker_1, # of connection points: 2
#     Edge 108, Type (0, 0), BuildingBlock: KIFKEQ_clean_linker_1, # of connection points: 2
#     Edge 109, Type (0, 0), BuildingBlock: KIFKEQ_clean_linker_1, # of connection points: 2
#     Edge 110, Type (0, 0), BuildingBlock: KIFKEQ_clean_linker_1, # of connection points: 2
#     Edge 111, Type (0, 0), BuildingBlock: KIFKEQ_clean_linker_1, # of connection points: 2
#     Edge 112, Type (0, 0), BuildingBlock: KIFKEQ_clean_linker_1, # of connection points: 2
#     Edge 113, Type (0, 0), BuildingBlock: KIFKEQ_clean_linker_1, # of connection points: 2
#     Edge 114, Type (0, 0), BuildingBlock: KIFKEQ_clean_linker_1, # of connection points: 2
#     Edge 115, Type (0, 0), BuildingBlock: KIFKEQ_clean_linker_1, # of connection points: 2
#     Edge 116, Type (0, 0), BuildingBlock: KIFKEQ_clean_linker_1, # of connection points: 2
#     Edge 117, Type (0, 0), BuildingBlock: KIFKEQ_clean_linker_1, # of connection points: 2
#     Edge 118, Type (0, 0), BuildingBlock: KIFKEQ_clean_linker_1, # of connection points: 2
#     Edge 119, Type (0, 0), BuildingBlock: KIFKEQ_clean_linker_1, # of connection points: 2
#     Edge 120, Type (0, 0), BuildingBlock: KIFKEQ_clean_linker_1, # of connection points: 2
#     Edge 121, Type (0, 0), BuildingBlock: KIFKEQ_clean_linker_1, # of connection points: 2
#     Edge 122, Type (0, 0), BuildingBlock: KIFKEQ_clean_linker_1, # of connection points: 2
#     Edge 123, Type (0, 0), BuildingBlock: KIFKEQ_clean_linker_1, # of connection points: 2
#     Edge 124, Type (0, 0), BuildingBlock: KIFKEQ_clean_linker_1, # of connection points: 2
#     Edge 125, Type (0, 0), BuildingBlock: KIFKEQ_clean_linker_1, # of connection points: 2
#     Edge 126, Type (0, 0), BuildingBlock: KIFKEQ_clean_linker_1, # of connection points: 2
#     Edge 127, Type (0, 0), BuildingBlock: KIFKEQ_clean_linker_1, # of connection points: 2
# Relax obj value: 0.385
# Max RMSD: 0.209
# Mean RMSD: 0.203
data_MOF--net-wio--node1-VOLQOD_clean_sbu_1--edge1-KIFKEQ_clean_linker_1
_symmetry_space_group_name_H-M    P1
_symmetry_Int_Tables_number       1
_symmetry_cell_setting            triclinic
loop_
_symmetry_equiv_pos_as_xyz
'x, y, z'
_cell_length_a     60.470003
_cell_length_b     60.41368
_cell_length_c     38.297725
_cell_angle_alpha  89.901673
_cell_angle_beta   89.916217
_cell_angle_gamma 90.003164
loop_
_atom_site_label
_atom_site_type_symbol
_atom_site_fract_x
_atom_site_fract_y
_atom_site_fract_z
_atom_type_partial_charge
O0 O 0.1671 0.0734 0.32061 0.0
Zn1 Zn 0.17024 0.09706 0.35688 0.0
O2 O 0.15027 0.12113 0.34521 0.0
Zn3 Zn 0.16738 0.14361 0.32114 0.0
Zn4 Zn 0.12819 0.11252 0.31169 0.0
Zn5 Zn 0.13405 0.13072 0.38645 0.0
O6 O 0.15918 0.1724 0.34398 0.0
O7 O 0.1393 0.16376 0.39149 0.0
O8 O 0.20245 0.10584 0.35281 0.0
O9 O 0.2005 0.13764 0.32396 0.0
O10 O 0.15992 0.1444 0.26881 0.0
O11 O 0.12538 0.13267 0.27065 0.0
O12 O 0.09817 0.10838 0.33122 0.0
O13 O 0.16317 0.08509 0.4049 0.0
O14 O 0.10073 0.12635 0.38131 0.0
O15 O 0.14143 0.1109 0.42838 0.0
C16 C 0.15381 0.07158 0.29504 0.0
C17 C 0.1485 0.17804 0.37141 0.0
C18 C 0.14149 0.14082 0.25368 0.0
C19 C 0.21188 0.12194 0.3372 0.0
C20 C 0.08926 0.11605 0.35866 0.0
C21 C 0.15195 0.09257 0.43057 0.0
O22 O 0.13812 0.08513 0.29013 0.0
O23 O 0.17638 0.92248 0.5842 0.0
Zn24 Zn 0.15048 0.92462 0.61576 0.0
O25 O 0.13063 0.90151 0.60077 0.0
Zn26 Zn 0.10929 0.91441 0.56928 0.0
Zn27 Zn 0.14821 0.88015 0.57552 0.0
Zn28 Zn 0.1183 0.88659 0.64127 0.0
O29 O 0.07946 0.90546 0.58776 0.0
O30 O 0.085 0.89234 0.64186 0.0
O31 O 0.13909 0.95542 0.60614 0.0
O32 O 0.11288 0.94807 0.56726 0.0
O33 O 0.11351 0.90341 0.51905 0.0
O34 O 0.14331 0.88229 0.52403 0.0
O35 O 0.14174 0.8491 0.58909 0.0
O36 O 0.16059 0.91914 0.66529 0.0
O37 O 0.12158 0.85324 0.63705 0.0
O38 O 0.13667 0.89393 0.68478 0.0
C39 C 0.1872 0.9053 0.57579 0.0
C40 C 0.07213 0.89789 0.61675 0.0
C41 C 0.12858 0.89145 0.50528 0.0
C42 C 0.12512 0.96193 0.5834 0.0
C43 C 0.13113 0.84096 0.61466 0.0
C44 C 0.15363 0.90625 0.68937 0.0
O45 O 0.18001 0.88617 0.58345 0.0
O46 O 0.35682 0.93535 0.83735 0.0
Zn47 Zn 0.36597 0.90455 0.8278 0.0
O48 O 0.3466 0.88442 0.85225 0.0
Zn49 Zn 0.36364 0.87191 0.89011 0.0
Zn50 Zn 0.32247 0.90232 0.86984 0.0
Zn51 Zn 0.33397 0.86328 0.82043 0.0
O52 O 0.35713 0.83887 0.89155 0.0
O53 O 0.34155 0.833 0.83936 0.0
O54 O 0.39745 0.90147 0.84139 0.0
O55 O 0.39695 0.87525 0.88188 0.0
O56 O 0.35722 0.89 0.93438 0.0
O57 O 0.3293 0.91212 0.91906 0.0
O58 O 0.29214 0.88914 0.86249 0.0
O59 O 0.36423 0.89969 0.7761 0.0
O60 O 0.30037 0.86723 0.81783 0.0
O61 O 0.34569 0.86813 0.77078 0.0
C62 C 0.33729 0.94038 0.82846 0.0
C63 C 0.3497 0.82578 0.86802 0.0
C64 C 0.34382 0.90585 0.94119 0.0
C65 C 0.40754 0.88872 0.86238 0.0
C66 C 0.2861 0.87728 0.83666 0.0
C67 C 0.35646 0.88421 0.75724 0.0
O68 O 0.32125 0.92827 0.83799 0.0
O69 O 0.31672 0.10805 0.08133 0.0
Zn70 Zn 0.34813 0.11735 0.08035 0.0
O71 O 0.36584 0.0972 0.10825 0.0
Zn72 Zn 0.37846 0.11453 0.14642 0.0
Zn73 Zn 0.34758 0.07361 0.12795 0.0
Zn74 Zn 0.38788 0.08327 0.07837 0.0
O75 O 0.41154 0.10866 0.1481 0.0
O76 O 0.41775 0.09083 0.09793 0.0
O77 O 0.35052 0.14889 0.09513 0.0
O78 O 0.37459 0.14769 0.13859 0.0
O79 O 0.3615 0.10838 0.19172 0.0
O80 O 0.34116 0.07886 0.17887 0.0
O81 O 0.35821 0.04268 0.11655 0.0
O82 O 0.35708 0.11674 0.02991 0.0
O83 O 0.3837 0.04986 0.07642 0.0
O84 O 0.38553 0.09365 0.02779 0.0
C85 C 0.30772 0.08971 0.08933 0.0
C86 C 0.42476 0.10019 0.12568 0.0
C87 C 0.34701 0.09393 0.20022 0.0
C88 C 0.36227 0.15866 0.11785 0.0
C89 C 0.37164 0.03609 0.09308 0.0
C90 C 0.37206 0.10679 0.01271 0.0
O91 O 0.31826 0.07449 0.10497 0.0
O92 O 0.1725 0.92866 0.14196 0.0
Zn93 Zn 0.17511 0.89797 0.12464 0.0
O94 O 0.15192 0.88012 0.14643 0.0
Zn95 Zn 0.16608 0.85925 0.17801 0.0
Zn96 Zn 0.13159 0.89844 0.17263 0.0
Zn97 Zn 0.13476 0.86627 0.10938 0.0
O98 O 0.15978 0.82874 0.15926 0.0
O99 O 0.14262 0.8335 0.10807 0.0
O100 O 0.20618 0.88907 0.13834 0.0
O101 O 0.1995 0.86459 0.18031 0.0
O102 O 0.15473 0.86255 0.22827 0.0
O103 O 0.134 0.8927 0.22394 0.0
O104 O 0.09981 0.89331 0.16041 0.0
O105 O 0.17023 0.90237 0.07297 0.0
O106 O 0.10167 0.86814 0.1186 0.0
O107 O 0.13888 0.88408 0.06422 0.0
C108 C 0.1564 0.93945 0.15463 0.0
C109 C 0.15128 0.82094 0.13131 0.0
C110 C 0.14289 0.8776 0.24236 0.0
C111 C 0.21302 0.87656 0.16291 0.0
C112 C 0.09036 0.88032 0.13906 0.0
C113 C 0.15366 0.89771 0.0538 0.0
O114 O 0.13875 0.93004 0.16493 0.0
O115 O 0.31337 0.92125 0.39257 0.0
Zn116 Zn 0.344 0.92734 0.37669 0.0
O117 O 0.36392 0.90546 0.39752 0.0
Zn118 Zn 0.38476 0.9209 0.4279 0.0
Zn119 Zn 0.34746 0.88434 0.42545 0.0
Zn120 Zn 0.37788 0.88859 0.35996 0.0
O121 O 0.41557 0.91471 0.40928 0.0
O122 O 0.4107 0.89612 0.35939 0.0
O123 O 0.35016 0.95878 0.39242 0.0
O124 O 0.37812 0.95423 0.42923 0.0
O125 O 0.3821 0.91053 0.4789 0.0
O126 O 0.35274 0.88864 0.47639 0.0
O127 O 0.35512 0.85285 0.41568 0.0
O128 O 0.34103 0.9237 0.32455 0.0
O129 O 0.37572 0.85528 0.36798 0.0
O130 O 0.36098 0.89353 0.31436 0.0
C131 C 0.30419 0.90421 0.40552 0.0
C132 C 0.42332 0.90535 0.38191 0.0
C133 C 0.36753 0.89854 0.49399 0.0
C134 C 0.36382 0.96669 0.41445 0.0
C135 C 0.36624 0.84377 0.39153 0.0
C136 C 0.34698 0.90804 0.30434 0.0
O137 O 0.31537 0.88798 0.41707 0.0
O138 O 0.33518 0.15942 0.62017 0.0
Zn139 Zn 0.32566 0.12646 0.62116 0.0
O140 O 0.34576 0.11161 0.65461 0.0
Zn141 Zn 0.36347 0.08967 0.63027 0.0
Zn142 Zn 0.36632 0.13085 0.67938 0.0
Zn143 Zn 0.32801 0.09713 0.68955 0.0
O144 O 0.35412 0.0589 0.64233 0.0
O145 O 0.32616 0.06532 0.67846 0.0
O146 O 0.32825 0.11111 0.57196 0.0
O147 O 0.3588 0.09124 0.57967 0.0
O148 O 0.39592 0.09281 0.6378 0.0
O149 O 0.3985 0.12271 0.67093 0.0
O150 O 0.36255 0.12961 0.7322 0.0
O151 O 0.29297 0.12463 0.63846 0.0
O152 O 0.34036 0.10061 0.73804 0.0
O153 O 0.29689 0.10777 0.68976 0.0
C154 C 0.34953 0.17034 0.63781 0.0
C155 C 0.33767 0.05217 0.66005 0.0
C156 C 0.4075 0.10693 0.65412 0.0
C157 C 0.34358 0.09851 0.56006 0.0
C158 C 0.35299 0.11519 0.75134 0.0
C159 C 0.28489 0.1174 0.66722 0.0
O160 O 0.3617 0.16125 0.66089 0.0
O161 O 0.18 0.07057 0.90313 0.0
Zn162 Zn 0.1505 0.07207 0.88052 0.0
O163 O 0.13427 0.09672 0.90076 0.0
Zn164 Zn 0.1135 0.08463 0.93452 0.0
Zn165 Zn 0.15464 0.1168 0.92331 0.0
Zn166 Zn 0.12037 0.11362 0.86357 0.0
O167 O 0.08288 0.09288 0.91782 0.0
O168 O 0.08728 0.10764 0.86462 0.0
O169 O 0.13762 0.04202 0.89221 0.0
O170 O 0.11685 0.05082 0.93803 0.0
O171 O 0.11855 0.09776 0.9832 0.0
O172 O 0.14742 0.1197 0.97431 0.0
O173 O 0.1539 0.14758 0.90427 0.0
O174 O 0.15691 0.07771 0.82946 0.0
O175 O 0.12392 0.1468 0.87115 0.0
O176 O 0.13685 0.10764 0.81757 0.0
C177 C 0.19226 0.08566 0.91555 0.0
C178 C 0.07489 0.10098 0.88967 0.0
C179 C 0.13289 0.11147 0.99459 0.0
C180 C 0.12625 0.03628 0.91884 0.0
C181 C 0.13943 0.1575 0.88602 0.0
C182 C 0.15119 0.09314 0.80856 0.0
O183 O 0.18516 0.10516 0.92086 0.0
O184 O 0.84033 0.9307 0.65392 0.0
Zn185 Zn 0.82856 0.90252 0.63456 0.0
O186 O 0.84789 0.87834 0.64865 0.0
Zn187 Zn 0.83093 0.85771 0.67752 0.0
Zn188 Zn 0.87186 0.88911 0.67706 0.0
Zn189 Zn 0.8617 0.86564 0.60694 0.0
O190 O 0.83528 0.82765 0.65591 0.0
O191 O 0.85255 0.83318 0.60485 0.0
O192 O 0.79709 0.89859 0.65167 0.0
O193 O 0.79822 0.86628 0.6793 0.0
O194 O 0.84101 0.85763 0.72904 0.0
O195 O 0.86764 0.88271 0.72731 0.0
O196 O 0.90137 0.87754 0.664 0.0
O197 O 0.82985 0.90834 0.58293 0.0
O198 O 0.89538 0.86579 0.61014 0.0
O199 O 0.85538 0.8849 0.56373 0.0
C200 C 0.85937 0.93595 0.6653 0.0
C201 C 0.84345 0.82033 0.62734 0.0
C202 C 0.8554 0.86955 0.74452 0.0
C203 C 0.78751 0.88331 0.66904 0.0
C204 C 0.90849 0.87 0.63526 0.0
C205 C 0.84242 0.90131 0.55867 0.0
O206 O 0.87375 0.92144 0.67283 0.0
O207 O 0.81814 0.08012 0.41631 0.0
Zn208 Zn 0.84487 0.07676 0.38614 0.0
O209 O 0.86552 0.09929 0.40162 0.0
Zn210 Zn 0.88559 0.08569 0.43448 0.0
Zn211 Zn 0.84787 0.12113 0.42484 0.0
Zn212 Zn 0.87894 0.11462 0.36236 0.0
O213 O 0.9163 0.0916 0.41557 0.0
O214 O 0.91147 0.10622 0.36228 0.0
O215 O 0.85501 0.0455 0.39644 0.0
O216 O 0.88007 0.05216 0.43748 0.0
O217 O 0.88117 0.09847 0.48395 0.0
O218 O 0.85143 0.11944 0.47634 0.0
O219 O 0.85521 0.15183 0.41218 0.0
O220 O 0.8363 0.08266 0.33612 0.0
O221 O 0.87779 0.14845 0.36713 0.0
O222 O 0.86061 0.10816 0.31859 0.0
C223 C 0.80827 0.09819 0.42279 0.0
C224 C 0.92404 0.09877 0.38653 0.0
C225 C 0.86591 0.1109 0.49625 0.0
C226 C 0.868 0.03861 0.42035 0.0
C227 C 0.86723 0.16049 0.38876 0.0
C228 C 0.84375 0.09587 0.31285 0.0
O229 O 0.81661 0.11637 0.41292 0.0
O230 O 0.67535 0.07456 0.15533 0.0
Zn231 Zn 0.67451 0.10432 0.13341 0.0
O232 O 0.65067 0.1212 0.15464 0.0
Zn233 Zn 0.66344 0.14224 0.18714 0.0
Zn234 Zn 0.63137 0.10121 0.17954 0.0
Zn235 Zn 0.63338 0.1349 0.11764 0.0
O236 O 0.65628 0.17289 0.16901 0.0
O237 O 0.64003 0.16801 0.11715 0.0
O238 O 0.70483 0.11633 0.14411 0.0
O239 O 0.697 0.13799 0.1893 0.0
O240 O 0.65153 0.13774 0.23708 0.0
O241 O 0.63239 0.10668 0.23107 0.0
O242 O 0.59977 0.10477 0.16633 0.0
O243 O 0.66843 0.09802 0.08259 0.0
O244 O 0.60049 0.13159 0.12681 0.0
O245 O 0.63824 0.11786 0.07195 0.0
C246 C 0.65982 0.0624 0.16671 0.0
C247 C 0.64791 0.18067 0.14089 0.0
C248 C 0.64012 0.12198 0.25026 0.0
C249 C 0.71106 0.12792 0.17009 0.0
C250 C 0.5898 0.11812 0.14611 0.0
C251 C 0.65258 0.10352 0.06245 0.0
O252 O 0.64059 0.07004 0.17255 0.0
O253 O 0.67832 0.9327 0.90668 0.0
Zn254 Zn 0.64957 0.93297 0.88178 0.0
O255 O 0.6316 0.90862 0.89946 0.0
Zn256 Zn 0.60934 0.92148 0.93026 0.0
Zn257 Zn 0.65001 0.8884 0.92573 0.0
Zn258 Zn 0.61969 0.89179 0.86015 0.0
O259 O 0.57963 0.91491 0.90869 0.0
O260 O 0.58636 0.89672 0.85888 0.0
O261 O 0.63773 0.96343 0.89322 0.0
O262 O 0.61367 0.95502 0.93496 0.0
O263 O 0.6112 0.90863 0.97996 0.0
O264 O 0.64174 0.8885 0.97598 0.0
O265 O 0.64734 0.85683 0.91101 0.0
O266 O 0.65741 0.92829 0.83123 0.0
O267 O 0.62449 0.85861 0.86589 0.0
O268 O 0.63705 0.8993 0.81566 0.0
C269 C 0.68953 0.91698 0.91969 0.0
C270 C 0.57294 0.90545 0.8808 0.0
C271 C 0.62595 0.89638 0.99399 0.0
C272 C 0.62491 0.96935 0.91797 0.0
C273 C 0.63626 0.84745 0.88712 0.0
C274 C 0.6519 0.91375 0.80877 0.0
O275 O 0.68139 0.89778 0.92408 0.0
O276 O 0.84511 0.07161 0.82544 0.0
Zn277 Zn 0.83371 0.09513 0.85676 0.0
O278 O 0.85109 0.12155 0.84893 0.0
Zn279 Zn 0.83202 0.14221 0.8242 0.0
Zn280 Zn 0.87616 0.11616 0.81827 0.0
Zn281 Zn 0.86332 0.1321 0.89348 0.0
O282 O 0.83672 0.17142 0.84761 0.0
O283 O 0.85438 0.16475 0.89792 0.0
O284 O 0.80106 0.09897 0.84577 0.0
O285 O 0.79957 0.13325 0.82529 0.0
O286 O 0.83975 0.14406 0.77206 0.0
O287 O 0.87352 0.13005 0.77145 0.0
O288 O 0.90526 0.12428 0.83795 0.0
O289 O 0.83794 0.08411 0.9056 0.0
O290 O 0.8972 0.13156 0.89318 0.0
O291 O 0.8556 0.11078 0.93412 0.0
C292 C 0.86317 0.06917 0.80882 0.0
C293 C 0.84517 0.17811 0.87629 0.0
C294 C 0.85743 0.13907 0.75569 0.0
C295 C 0.79001 0.11512 0.8333 0.0
C296 C 0.91128 0.12902 0.86872 0.0
C297 C 0.84661 0.09159 0.93348 0.0
O298 O 0.87746 0.08449 0.80683 0.0
O299 O 0.68228 0.0802 0.60465 0.0
Zn300 Zn 0.65256 0.0728 0.62381 0.0
O301 O 0.6312 0.09498 0.60845 0.0
Zn302 Zn 0.60923 0.08062 0.57855 0.0
Zn303 Zn 0.64572 0.11749 0.58114 0.0
Zn304 Zn 0.61929 0.11006 0.64962 0.0
O305 O 0.57952 0.0852 0.60205 0.0
O306 O 0.58667 0.10247 0.65258 0.0
O307 O 0.64529 0.04196 0.60693 0.0
O308 O 0.61552 0.04746 0.57423 0.0
O309 O 0.61001 0.09259 0.52768 0.0
O310 O 0.6392 0.11463 0.53063 0.0
O311 O 0.63751 0.14823 0.5942 0.0
O312 O 0.65801 0.07404 0.67548 0.0
O313 O 0.62113 0.14365 0.64545 0.0
O314 O 0.6378 0.10262 0.69299 0.0
C315 C 0.69027 0.09835 0.59353 0.0
C316 C 0.57317 0.09345 0.63116 0.0
C317 C 0.62424 0.10516 0.51286 0.0
C318 C 0.63035 0.0346 0.58658 0.0
C319 C 0.62836 0.15617 0.62121 0.0
C320 C 0.65248 0.08788 0.69897 0.0
O321 O 0.67799 0.11476 0.58622 0.0
O322 O 0.67446 0.92866 0.34463 0.0
Zn323 Zn 0.67446 0.89947 0.36861 0.0
O324 O 0.65036 0.88166 0.34991 0.0
Zn325 Zn 0.66371 0.85999 0.31865 0.0
Zn326 Zn 0.63035 0.90045 0.3241 0.0
Zn327 Zn 0.63306 0.86895 0.38822 0.0
O328 O 0.65779 0.82991 0.33964 0.0
O329 O 0.63907 0.83575 0.38926 0.0
O330 O 0.70504 0.88796 0.35755 0.0
O331 O 0.69716 0.86481 0.31444 0.0
O332 O 0.65115 0.86239 0.26892 0.0
O333 O 0.63032 0.89242 0.27374 0.0
O334 O 0.59897 0.89834 0.33945 0.0
O335 O 0.6693 0.90629 0.41931 0.0
O336 O 0.59976 0.87319 0.38148 0.0
O337 O 0.63985 0.88602 0.43325 0.0
C338 C 0.65894 0.9399 0.33116 0.0
C339 C 0.64843 0.82274 0.3674 0.0
C340 C 0.63859 0.87704 0.25529 0.0
C341 C 0.71125 0.87574 0.33227 0.0
C342 C 0.58901 0.88627 0.36162 0.0
C343 C 0.6544 0.90055 0.4411 0.0
O344 O 0.63991 0.9317 0.32583 0.0
O345 O 0.82105 0.92785 0.10047 0.0
Zn346 Zn 0.8508 0.92464 0.12176 0.0
O347 O 0.86519 0.89887 0.101 0.0
Zn348 Zn 0.88709 0.90941 0.06821 0.0
Zn349 Zn 0.84354 0.88079 0.07725 0.0
Zn350 Zn 0.87775 0.88072 0.13774 0.0
O351 O 0.91726 0.90171 0.08739 0.0
O352 O 0.91115 0.88546 0.13895 0.0
O353 O 0.86507 0.95404 0.10884 0.0
O354 O 0.88406 0.94285 0.06244 0.0
O355 O 0.88262 0.89585 0.01986 0.0
O356 O 0.85002 0.8794 0.02587 0.0
O357 O 0.8431 0.84936 0.09366 0.0
O358 O 0.8441 0.9192 0.17293 0.0
O359 O 0.87205 0.84801 0.12898 0.0
O360 O 0.86094 0.88708 0.18288 0.0
C361 C 0.8077 0.91361 0.0884 0.0
C362 C 0.92439 0.89301 0.11567 0.0
C363 C 0.86632 0.88523 0.00693 0.0
C364 C 0.87576 0.9584 0.08087 0.0
C365 C 0.85647 0.83837 0.11251 0.0
C366 C 0.84798 0.9026 0.19268 0.0
O367 O 0.81364 0.89384 0.08198 0.0
O368 O 0.67257 0.57158 0.85328 0.0
Zn369 Zn 0.67657 0.60199 0.87257 0.0
O370 O 0.65422 0.62188 0.85311 0.0
Zn371 Zn 0.6686 0.64311 0.82203 0.0
Zn372 Zn 0.63322 0.60509 0.82607 0.0
Zn373 Zn 0.63788 0.63569 0.89153 0.0
O374 O 0.66124 0.67362 0.84011 0.0
O375 O 0.64559 0.66864 0.89263 0.0
O376 O 0.70766 0.61072 0.85906 0.0
O377 O 0.70206 0.63799 0.82111 0.0
O378 O 0.65833 0.64001 0.77113 0.0
O379 O 0.63581 0.61122 0.77506 0.0
O380 O 0.60202 0.61104 0.83905 0.0
O381 O 0.67212 0.59708 0.92422 0.0
O382 O 0.60449 0.63364 0.88428 0.0
O383 O 0.64301 0.61809 0.93667 0.0
C384 C 0.65556 0.56221 0.84069 0.0
C385 C 0.65323 0.68126 0.86855 0.0
C386 C 0.64575 0.62571 0.75679 0.0
C387 C 0.71508 0.62467 0.83692 0.0
C388 C 0.59291 0.62277 0.86245 0.0
C389 C 0.65705 0.60326 0.94537 0.0
O390 O 0.63851 0.57316 0.83198 0.0
O391 O 0.68136 0.43145 0.1113 0.0
Zn392 Zn 0.65086 0.43274 0.13033 0.0
O393 O 0.63368 0.4086 0.11018 0.0
Zn394 Zn 0.61259 0.42145 0.07756 0.0
Zn395 Zn 0.65306 0.38841 0.08557 0.0
Zn396 Zn 0.61993 0.39164 0.14783 0.0
O397 O 0.582 0.41425 0.09555 0.0
O398 O 0.58687 0.39782 0.14734 0.0
O399 O 0.64052 0.46325 0.11579 0.0
O400 O 0.61686 0.45505 0.07349 0.0
O401 O 0.6168 0.40911 0.02825 0.0
O402 O 0.64749 0.38935 0.03403 0.0
O403 O 0.64899 0.35679 0.09937 0.0
O404 O 0.6553 0.42854 0.18198 0.0
O405 O 0.62348 0.35837 0.14078 0.0
O406 O 0.63615 0.398 0.19365 0.0
C407 C 0.69294 0.41551 0.09987 0.0
C408 C 0.57424 0.40563 0.12351 0.0
C409 C 0.63222 0.39735 0.01501 0.0
C410 C 0.62812 0.46927 0.09059 0.0
C411 C 0.63622 0.3472 0.12098 0.0
C412 C 0.64977 0.41307 0.20293 0.0
O413 O 0.68442 0.39686 0.09251 0.0
O414 O 0.86633 0.43257 0.33661 0.0
Zn415 Zn 0.86747 0.4007 0.32745 0.0
O416 O 0.84615 0.38545 0.35587 0.0
Zn417 Zn 0.8629 0.37129 0.39338 0.0
Zn418 Zn 0.82539 0.40701 0.37541 0.0
Zn419 Zn 0.83046 0.36453 0.32593 0.0
O420 O 0.85607 0.33851 0.39299 0.0
O421 O 0.8375 0.33356 0.3432 0.0
O422 O 0.89836 0.39186 0.33621 0.0
O423 O 0.89619 0.37357 0.38609 0.0
O424 O 0.85729 0.38716 0.43946 0.0
O425 O 0.8292 0.40968 0.42759 0.0
O426 O 0.79379 0.40051 0.36078 0.0
O427 O 0.86217 0.39646 0.2768 0.0
O428 O 0.79725 0.37074 0.32714 0.0
O429 O 0.83945 0.36776 0.27432 0.0
C430 C 0.851 0.44534 0.34683 0.0
C431 C 0.8472 0.32583 0.37026 0.0
C432 C 0.84353 0.40205 0.44885 0.0
C433 C 0.90759 0.38184 0.36134 0.0
C434 C 0.78527 0.38574 0.34115 0.0
C435 C 0.85148 0.38227 0.25918 0.0
O436 O 0.8328 0.43776 0.35853 0.0
O437 O 0.82079 0.60357 0.57211 0.0
Zn438 Zn 0.85204 0.6129 0.57351 0.0
O439 O 0.8691 0.59351 0.60338 0.0
Zn440 Zn 0.88102 0.61196 0.64083 0.0
Zn441 Zn 0.84986 0.57079 0.62321 0.0
Zn442 Zn 0.89172 0.57861 0.57557 0.0
O443 O 0.91425 0.60712 0.64328 0.0
O444 O 0.92142 0.5873 0.59534 0.0
O445 O 0.85336 0.64462 0.58667 0.0
O446 O 0.87638 0.64486 0.63149 0.0
O447 O 0.8637 0.6066 0.68599 0.0
O448 O 0.84199 0.57806 0.67305 0.0
O449 O 0.86116 0.5397 0.61637 0.0
O450 O 0.86245 0.61139 0.52429 0.0
O451 O 0.88743 0.5451 0.57674 0.0
O452 O 0.89015 0.58737 0.52396 0.0
C453 C 0.81148 0.58537 0.57982 0.0
C454 C 0.92794 0.59806 0.62214 0.0
C455 C 0.8483 0.59306 0.6942 0.0
C456 C 0.86427 0.65509 0.60958 0.0
C457 C 0.87503 0.5321 0.59435 0.0
C458 C 0.87732 0.60073 0.50799 0.0
O459 O 0.82134 0.57039 0.59706 0.0
O460 O 0.67068 0.42722 0.67174 0.0
Zn461 Zn 0.67255 0.40096 0.64021 0.0
O462 O 0.65059 0.3801 0.65659 0.0
Zn463 Zn 0.66476 0.35891 0.68707 0.0
Zn464 Zn 0.62972 0.397 0.6833 0.0
Zn465 Zn 0.63459 0.36739 0.61752 0.0
O466 O 0.65592 0.32884 0.66918 0.0
O467 O 0.64202 0.33441 0.61559 0.0
O468 O 0.70367 0.38989 0.64669 0.0
O469 O 0.69831 0.36292 0.68531 0.0
O470 O 0.65559 0.36305 0.73846 0.0
O471 O 0.63361 0.39227 0.73427 0.0
O472 O 0.59864 0.38978 0.67262 0.0
O473 O 0.66551 0.41056 0.59104 0.0
O474 O 0.60126 0.36884 0.62543 0.0
O475 O 0.63985 0.38648 0.57368 0.0
C476 C 0.65315 0.43703 0.68137 0.0
C477 C 0.64832 0.32151 0.64027 0.0
C478 C 0.64368 0.378 0.75272 0.0
C479 C 0.71128 0.37554 0.66796 0.0
C480 C 0.58965 0.37844 0.64872 0.0
C481 C 0.65198 0.4035 0.56805 0.0
O482 O 0.63431 0.42883 0.67484 0.0
O483 O 0.81522 0.42798 0.90617 0.0
Zn484 Zn 0.84354 0.42789 0.88015 0.0
O485 O 0.86171 0.40484 0.90042 0.0
Zn486 Zn 0.88255 0.41857 0.93202 0.0
Zn487 Zn 0.84252 0.38509 0.92613 0.0
Zn488 Zn 0.87547 0.3877 0.86342 0.0
O489 O 0.91316 0.41079 0.91481 0.0
O490 O 0.9083 0.39486 0.86258 0.0
O491 O 0.85453 0.4588 0.88922 0.0
O492 O 0.87764 0.45211 0.93303 0.0
O493 O 0.87821 0.40771 0.98219 0.0
O494 O 0.8477 0.38758 0.97748 0.0
O495 O 0.84761 0.35346 0.91483 0.0
O496 O 0.83656 0.42111 0.8299 0.0
O497 O 0.87279 0.35457 0.87279 0.0
O498 O 0.8587 0.3927 0.81782 0.0
C499 C 0.80352 0.41216 0.91775 0.0
C500 C 0.92084 0.40247 0.88661 0.0
C501 C 0.86278 0.39625 0.99607 0.0
C502 C 0.8665 0.46565 0.91434 0.0
C503 C 0.86052 0.34366 0.89377 0.0
C504 C 0.8434 0.40618 0.80899 0.0
O505 O 0.81092 0.39249 0.9186 0.0
O506 O 0.83038 0.65991 0.11948 0.0
Zn507 Zn 0.82513 0.62602 0.12127 0.0
O508 O 0.84806 0.61479 0.1528 0.0
Zn509 Zn 0.86963 0.59632 0.13029 0.0
Zn510 Zn 0.865 0.63601 0.17885 0.0
Zn511 Zn 0.83416 0.59455 0.18403 0.0
O512 O 0.87432 0.56933 0.16003 0.0
O513 O 0.83871 0.56433 0.16557 0.0
O514 O 0.82891 0.60937 0.07329 0.0
O515 O 0.85887 0.58867 0.08357 0.0
O516 O 0.89912 0.6102 0.12503 0.0
O517 O 0.89808 0.63515 0.16722 0.0
O518 O 0.86307 0.63005 0.23082 0.0
O519 O 0.79327 0.6203 0.14193 0.0
O520 O 0.84705 0.59696 0.2325 0.0
O521 O 0.80198 0.59909 0.18712 0.0
C522 C 0.84088 0.67286 0.14029 0.0
C523 C 0.85822 0.55728 0.16957 0.0
C524 C 0.90869 0.62454 0.14383 0.0
C525 C 0.84329 0.59492 0.06364 0.0
C526 C 0.85711 0.6128 0.24766 0.0
C527 C 0.78755 0.60904 0.1689 0.0
O528 O 0.85316 0.6655 0.16482 0.0
O529 O 0.67915 0.56953 0.40002 0.0
Zn530 Zn 0.64901 0.57088 0.37932 0.0
O531 O 0.63325 0.59583 0.39979 0.0
Zn532 Zn 0.61196 0.58431 0.43312 0.0
Zn533 Zn 0.65396 0.61519 0.42326 0.0
Zn534 Zn 0.61959 0.61304 0.36258 0.0
O535 O 0.58161 0.59288 0.41628 0.0
O536 O 0.58629 0.60717 0.36281 0.0
O537 O 0.63632 0.54106 0.39276 0.0
O538 O 0.61472 0.55065 0.43719 0.0
O539 O 0.61706 0.59683 0.48188 0.0
O540 O 0.64786 0.61628 0.47493 0.0
O541 O 0.65244 0.64648 0.40643 0.0
O542 O 0.65429 0.57572 0.32768 0.0
O543 O 0.6235 0.64607 0.37097 0.0
O544 O 0.63626 0.60707 0.31667 0.0
C545 C 0.69167 0.58456 0.41198 0.0
C546 C 0.57379 0.60074 0.38788 0.0
C547 C 0.63254 0.60875 0.49444 0.0
C548 C 0.62443 0.5358 0.41904 0.0
C549 C 0.63846 0.6566 0.38746 0.0
C550 C 0.64944 0.59166 0.30715 0.0
O551 O 0.68459 0.60396 0.41829 0.0
O552 O 0.32414 0.43223 0.14672 0.0
Zn553 Zn 0.32343 0.40156 0.12829 0.0
O554 O 0.34731 0.38455 0.14979 0.0
Zn555 Zn 0.33415 0.36372 0.1826 0.0
Zn556 Zn 0.3672 0.40413 0.17423 0.0
Zn557 Zn 0.36473 0.37049 0.1131 0.0
O558 O 0.34058 0.33296 0.16439 0.0
O559 O 0.35769 0.33754 0.11306 0.0
O560 O 0.29277 0.39111 0.14193 0.0
O561 O 0.30066 0.36861 0.18613 0.0
O562 O 0.34688 0.36762 0.23194 0.0
O563 O 0.36733 0.39783 0.22545 0.0
O564 O 0.39859 0.40088 0.15982 0.0
O565 O 0.32877 0.40621 0.07672 0.0
O566 O 0.39791 0.3736 0.12136 0.0
O567 O 0.35971 0.38725 0.06739 0.0
C568 C 0.33981 0.44382 0.15892 0.0
C569 C 0.34919 0.32504 0.13656 0.0
C570 C 0.35937 0.38262 0.24471 0.0
C571 C 0.28659 0.37937 0.16791 0.0
C572 C 0.40861 0.38743 0.1399 0.0
C573 C 0.34501 0.40097 0.05711 0.0
O574 O 0.35819 0.43534 0.16781 0.0
O575 O 0.32237 0.57573 0.9159 0.0
Zn576 Zn 0.3506 0.57567 0.88932 0.0
O577 O 0.36942 0.59904 0.90764 0.0
Zn578 Zn 0.39147 0.58504 0.93758 0.0
Zn579 Zn 0.35189 0.61965 0.93471 0.0
Zn580 Zn 0.38176 0.6159 0.8687 0.0
O581 O 0.42144 0.59257 0.91712 0.0
O582 O 0.41477 0.60996 0.86661 0.0
O583 O 0.3622 0.54484 0.898 0.0
O584 O 0.38696 0.55139 0.93943 0.0
O585 O 0.38936 0.59632 0.98809 0.0
O586 O 0.36207 0.6207 0.98413 0.0
O587 O 0.35326 0.65076 0.91773 0.0
O588 O 0.34235 0.58168 0.83926 0.0
O589 O 0.3782 0.6491 0.87548 0.0
O590 O 0.36407 0.60981 0.82416 0.0
C591 C 0.31206 0.59102 0.93173 0.0
C592 C 0.42822 0.60178 0.88896 0.0
C593 C 0.37665 0.61069 1.00205 0.0
C594 C 0.3753 0.53785 0.92163 0.0
C595 C 0.36534 0.66026 0.8951 0.0
C596 C 0.34855 0.59619 0.8171 0.0
O597 O 0.32074 0.60984 0.93721 0.0
O598 O 0.17308 0.57102 0.6748 0.0
Zn599 Zn 0.17625 0.59734 0.64337 0.0
O600 O 0.15357 0.61808 0.65822 0.0
Zn601 Zn 0.16677 0.63905 0.68985 0.0
Zn602 Zn 0.13193 0.60088 0.68292 0.0
Zn603 Zn 0.13829 0.63072 0.61845 0.0
O604 O 0.15871 0.66916 0.67106 0.0
O605 O 0.14609 0.66344 0.61672 0.0
O606 O 0.20717 0.60827 0.65298 0.0
O607 O 0.20042 0.63498 0.69134 0.0
O608 O 0.15552 0.63464 0.74006 0.0
O609 O 0.13461 0.6047 0.73445 0.0
O610 O 0.10105 0.60822 0.6708 0.0
O611 O 0.17098 0.58823 0.59336 0.0
O612 O 0.1046 0.62924 0.62381 0.0
O613 O 0.14497 0.61185 0.57539 0.0
C614 C 0.15496 0.56141 0.68197 0.0
C615 C 0.15198 0.67637 0.6415 0.0
C616 C 0.14365 0.61933 0.75351 0.0
C617 C 0.21401 0.62245 0.67511 0.0
C618 C 0.0925 0.61953 0.64639 0.0
C619 C 0.15778 0.59536 0.56993 0.0
O620 O 0.13687 0.56954 0.67135 0.0
O621 O 0.18248 0.41184 0.39662 0.0
Zn622 Zn 0.15272 0.4225 0.38225 0.0
O623 O 0.13026 0.40228 0.39985 0.0
Zn624 Zn 0.10939 0.41811 0.42949 0.0
Zn625 Zn 0.1436 0.37988 0.42822 0.0
Zn626 Zn 0.1173 0.38678 0.36038 0.0
O627 O 0.07911 0.41253 0.40906 0.0
O628 O 0.08508 0.39553 0.358 0.0
O629 O 0.14879 0.45321 0.40202 0.0
O630 O 0.11678 0.45117 0.4307 0.0
O631 O 0.11103 0.40784 0.4811 0.0
O632 O 0.13997 0.38543 0.47887 0.0
O633 O 0.13213 0.34983 0.41956 0.0
O634 O 0.15573 0.42184 0.32974 0.0
O635 O 0.11721 0.35336 0.36721 0.0
O636 O 0.13603 0.39201 0.31652 0.0
C637 C 0.18887 0.39299 0.40737 0.0
C638 C 0.07202 0.40414 0.38053 0.0
C639 C 0.12548 0.39581 0.49641 0.0
C640 C 0.13357 0.46219 0.42022 0.0
C641 C 0.12294 0.34137 0.39303 0.0
C642 C 0.15032 0.40669 0.30824 0.0
O643 O 0.17529 0.37854 0.4182 0.0
O644 O 0.32609 0.57294 0.34123 0.0
Zn645 Zn 0.32416 0.59929 0.37162 0.0
O646 O 0.34722 0.61949 0.35734 0.0
Zn647 Zn 0.33329 0.64146 0.32725 0.0
Zn648 Zn 0.36915 0.60341 0.33055 0.0
Zn649 Zn 0.36199 0.63107 0.39905 0.0
O650 O 0.34129 0.67097 0.34811 0.0
O651 O 0.35546 0.6644 0.4013 0.0
O652 O 0.29329 0.61028 0.36301 0.0
O653 O 0.29959 0.6371 0.32469 0.0
O654 O 0.34466 0.63973 0.27674 0.0
O655 O 0.36981 0.61322 0.28092 0.0
O656 O 0.3998 0.6076 0.34761 0.0
O657 O 0.32881 0.58897 0.42073 0.0
O658 O 0.39566 0.6282 0.39506 0.0
O659 O 0.35427 0.61178 0.44208 0.0
C660 C 0.34257 0.56302 0.32798 0.0
C661 C 0.34896 0.67773 0.37731 0.0
C662 C 0.35938 0.62741 0.26286 0.0
C663 C 0.28619 0.62432 0.34087 0.0
C664 C 0.40794 0.61813 0.37316 0.0
C665 C 0.34136 0.59511 0.44557 0.0
O666 O 0.36182 0.57146 0.32822 0.0
O667 O 0.17873 0.56863 0.10984 0.0
Zn668 Zn 0.14899 0.56939 0.1321 0.0
O669 O 0.13179 0.59336 0.11129 0.0
Zn670 Zn 0.10944 0.58051 0.08087 0.0
Zn671 Zn 0.15132 0.61225 0.08466 0.0
Zn672 Zn 0.11956 0.61184 0.14812 0.0
O673 O 0.07936 0.58894 0.10075 0.0
O674 O 0.08648 0.60716 0.15027 0.0
O675 O 0.1371 0.53883 0.12103 0.0
O676 O 0.1132 0.5468 0.07882 0.0
O677 O 0.11303 0.59157 0.03025 0.0
O678 O 0.14467 0.60999 0.03392 0.0
O679 O 0.14862 0.64435 0.09592 0.0
O680 O 0.15575 0.57578 0.18293 0.0
O681 O 0.12379 0.64457 0.13834 0.0
O682 O 0.1368 0.60666 0.19307 0.0
C683 C 0.19051 0.58416 0.09752 0.0
C684 C 0.07283 0.59892 0.12838 0.0
C685 C 0.12885 0.60228 0.01585 0.0
C686 C 0.12432 0.53265 0.0964 0.0
C687 C 0.13647 0.65484 0.11728 0.0
C688 C 0.15082 0.59206 0.20268 0.0
O689 O 0.18249 0.6031 0.09062 0.0
O690 O 0.16429 0.4339 0.8603 0.0
Zn691 Zn 0.16987 0.40295 0.87573 0.0
O692 O 0.14712 0.38354 0.85598 0.0
Zn693 Zn 0.16114 0.36271 0.82397 0.0
Zn694 Zn 0.12577 0.40058 0.82973 0.0
Zn695 Zn 0.13105 0.36939 0.89434 0.0
O696 O 0.15602 0.332 0.84312 0.0
O697 O 0.13819 0.33641 0.89388 0.0
O698 O 0.2008 0.39565 0.85833 0.0
O699 O 0.19427 0.36855 0.82062 0.0
O700 O 0.14941 0.36583 0.77368 0.0
O701 O 0.12856 0.39583 0.7784 0.0
O702 O 0.09451 0.39348 0.84181 0.0
O703 O 0.16709 0.40597 0.92814 0.0
O704 O 0.09779 0.37213 0.88863 0.0
O705 O 0.13715 0.38599 0.93984 0.0
C706 C 0.14711 0.44341 0.84854 0.0
C707 C 0.14735 0.32405 0.8709 0.0
C708 C 0.13753 0.38094 0.75976 0.0
C709 C 0.2076 0.38197 0.83534 0.0
C710 C 0.08591 0.38218 0.86624 0.0
C711 C 0.15183 0.39998 0.94916 0.0
O712 O 0.13043 0.43246 0.8382 0.0
O713 O 0.31896 0.40378 0.57529 0.0
Zn714 Zn 0.34316 0.41409 0.60661 0.0
O715 O 0.36875 0.39543 0.59824 0.0
Zn716 Zn 0.39041 0.41351 0.57342 0.0
Zn717 Zn 0.3622 0.37082 0.56763 0.0
Zn718 Zn 0.3786 0.38181 0.64213 0.0
O719 O 0.41927 0.40743 0.59722 0.0
O720 O 0.41147 0.38897 0.64654 0.0
O721 O 0.34863 0.44646 0.5947 0.0
O722 O 0.38288 0.44639 0.57408 0.0
O723 O 0.39225 0.40574 0.5212 0.0
O724 O 0.37541 0.37329 0.52043 0.0
O725 O 0.36934 0.34114 0.58588 0.0
O726 O 0.33264 0.41099 0.65628 0.0
O727 O 0.37606 0.34787 0.6416 0.0
O728 O 0.35843 0.39086 0.68295 0.0
C729 C 0.31592 0.38572 0.55892 0.0
C730 C 0.42534 0.39809 0.62563 0.0
C731 C 0.38577 0.38859 0.50474 0.0
C732 C 0.36519 0.45676 0.58194 0.0
C733 C 0.37327 0.33433 0.61651 0.0
C734 C 0.34018 0.40158 0.6836 0.0
O735 O 0.33061 0.37079 0.55755 0.0
H736 H 0.24088 0.08886 0.35526 0.0
H737 H 0.23749 0.15106 0.29964 0.0
H738 H 0.27768 0.08235 0.33134 0.0
H739 H 0.27411 0.14436 0.27541 0.0
H740 H 0.31893 0.06432 0.23125 0.0
H741 H 0.28969 0.07249 0.27289 0.0
H742 H 0.31395 0.13941 0.28279 0.0
H743 H 0.3432 0.13128 0.24063 0.0
C744 C 0.24812 0.10141 0.33855 0.0
C745 C 0.23598 0.12039 0.3291 0.0
C746 C 0.26922 0.09757 0.32462 0.0
C747 C 0.27881 0.11265 0.301 0.0
C748 C 0.26738 0.13242 0.29366 0.0
C749 C 0.24625 0.13624 0.30751 0.0
C750 C 0.31846 0.08061 0.24299 0.0
C751 C 0.33336 0.09716 0.23224 0.0
C752 C 0.30166 0.08531 0.26705 0.0
C753 C 0.29921 0.10673 0.28093 0.0
C754 C 0.31512 0.12283 0.27221 0.0
C755 C 0.33207 0.11808 0.24829 0.0
H756 H 0.18017 0.06114 0.45597 0.0
H757 H 0.11599 0.09029 0.47399 0.0
H758 H 0.17225 0.03283 0.49988 0.0
H759 H 0.10789 0.06158 0.51751 0.0
H760 H 0.09609 0.98383 0.54022 0.0
H761 H 0.10242 0.01889 0.50976 0.0
H762 H 0.1637 0.02742 0.5656 0.0
H763 H 0.15733 0.99266 0.5965 0.0
C764 C 0.16454 0.06177 0.46982 0.0
C765 C 0.14875 0.07802 0.46152 0.0
C766 C 0.16001 0.04556 0.49502 0.0
C767 C 0.1394 0.04492 0.51205 0.0
C768 C 0.12388 0.06162 0.50472 0.0
C769 C 0.12861 0.07816 0.48002 0.0
C770 C 0.11061 0.99346 0.54676 0.0
C771 C 0.12622 0.98527 0.57075 0.0
C772 C 0.11422 0.01358 0.5293 0.0
C773 C 0.13368 0.0258 0.53503 0.0
C774 C 0.14865 0.01828 0.56043 0.0
C775 C 0.14487 0.99839 0.57831 0.0
H776 H 0.26474 0.85008 0.7902 0.0
H777 H 0.25482 0.90823 0.8538 0.0
H778 H 0.22929 0.85684 0.76142 0.0
H779 H 0.21962 0.91511 0.82455 0.0
H780 H 0.15753 0.86883 0.72934 0.0
H781 H 0.18687 0.86018 0.77119 0.0
H782 H 0.21235 0.92655 0.76053 0.0
H783 H 0.18335 0.9351 0.71822 0.0
C784 C 0.2548 0.864 0.79864 0.0
C785 C 0.26274 0.87858 0.82436 0.0
C786 C 0.23445 0.86787 0.78214 0.0
C787 C 0.22172 0.88662 0.79052 0.0
C788 C 0.22912 0.90061 0.81736 0.0
C789 C 0.24925 0.89652 0.83431 0.0
C790 C 0.16901 0.88178 0.73663 0.0
C791 C 0.16804 0.9027 0.72041 0.0
C792 C 0.18595 0.87673 0.76037 0.0
C793 C 0.20201 0.89263 0.76904 0.0
C794 C 0.20016 0.91397 0.75458 0.0
C795 C 0.18353 0.91888 0.73032 0.0
H796 H 0.31471 0.9345 0.97208 0.0
H797 H 0.38138 0.90949 0.98085 0.0
H798 H 0.32293 0.96265 0.01575 0.0
H799 H 0.38962 0.93783 0.02447 0.0
H800 H 0.39988 0.01446 0.04848 0.0
H801 H 0.3934 0.97936 0.01873 0.0
H802 H 0.33343 0.97004 0.07817 0.0
H803 H 0.33989 0.00507 0.10813 0.0
C804 C 0.33097 0.93466 0.98391 0.0
C805 C 0.34738 0.91972 0.97281 0.0
C806 C 0.33567 0.95079 0.00905 0.0
C807 C 0.35699 0.95261 0.02343 0.0
C808 C 0.37309 0.93698 0.01368 0.0
C809 C 0.36829 0.9206 0.98889 0.0
C810 C 0.3856 0.00469 0.05589 0.0
C811 C 0.37037 0.01275 0.08062 0.0
C812 C 0.38191 0.9845 0.03886 0.0
C813 C 0.36277 0.97198 0.04581 0.0
C814 C 0.3482 0.9794 0.07195 0.0
C815 C 0.35204 0.99944 0.08932 0.0
H816 H 0.34173 0.86899 0.26885 0.0
H817 H 0.32016 0.93714 0.26933 0.0
H818 H 0.31209 0.85978 0.22811 0.0
H819 H 0.29065 0.92791 0.22857 0.0
H820 H 0.23505 0.85077 0.21076 0.0
H821 H 0.27104 0.85793 0.2372 0.0
H822 H 0.27998 0.91437 0.16941 0.0
H823 H 0.24403 0.90723 0.14283 0.0
C824 C 0.33117 0.88219 0.25943 0.0
C825 C 0.33336 0.90384 0.27259 0.0
C826 C 0.31398 0.87682 0.23636 0.0
C827 C 0.29877 0.89302 0.2254 0.0
C828 C 0.30207 0.91501 0.23632 0.0
C829 C 0.31905 0.92032 0.25974 0.0
C830 C 0.24486 0.86443 0.20093 0.0
C831 C 0.23647 0.87845 0.17471 0.0
C832 C 0.26558 0.8685 0.21604 0.0
C833 C 0.27838 0.88684 0.20562 0.0
C834 C 0.27047 0.90024 0.1783 0.0
C835 C 0.24988 0.89603 0.1629 0.0
H836 H 0.32923 0.99517 0.40187 0.0
H837 H 0.392 0.99115 0.45517 0.0
H838 H 0.32258 0.03147 0.42804 0.0
H839 H 0.38533 0.02728 0.48122 0.0
H840 H 0.37679 0.0962 0.51295 0.0
H841 H 0.38158 0.06692 0.46987 0.0
H842 H 0.31435 0.04565 0.4877 0.0
H843 H 0.30956 0.07532 0.53058 0.0
C844 C 0.34183 0.00216 0.41863 0.0
C845 C 0.36121 0.99011 0.42633 0.0
C846 C 0.3379 0.02294 0.43384 0.0
C847 C 0.35338 0.03241 0.45677 0.0
C848 C 0.37314 0.02074 0.46332 0.0
C849 C 0.37695 0.99988 0.44846 0.0
C850 C 0.36268 0.08597 0.50636 0.0
C851 C 0.34273 0.08822 0.52497 0.0
C852 C 0.36555 0.0689 0.48212 0.0
C853 C 0.34857 0.0535 0.47593 0.0
C854 C 0.32781 0.05718 0.49177 0.0
C855 C 0.32493 0.07438 0.51609 0.0
H856 H 0.1564 0.13138 0.7705 0.0
H857 H 0.17793 0.06329 0.77512 0.0
H858 H 0.1854 0.13939 0.72776 0.0
H859 H 0.2068 0.0713 0.7325 0.0
H860 H 0.2537 0.0881 0.6463 0.0
H861 H 0.21709 0.08266 0.67253 0.0
H862 H 0.22639 0.14161 0.7344 0.0
H863 H 0.26294 0.14683 0.70813 0.0
C864 C 0.16683 0.11794 0.76165 0.0
C865 C 0.1648 0.09667 0.77647 0.0
C866 C 0.18364 0.12261 0.73737 0.0
C867 C 0.19863 0.10607 0.72687 0.0
C868 C 0.19552 0.08445 0.73972 0.0
C869 C 0.17893 0.07984 0.76429 0.0
C870 C 0.24746 0.10035 0.66443 0.0
C871 C 0.2609 0.11817 0.6746 0.0
C872 C 0.22663 0.0971 0.67983 0.0
C873 C 0.21877 0.11162 0.70576 0.0
C874 C 0.23171 0.13024 0.71423 0.0
C875 C 0.25264 0.13334 0.69909 0.0
H876 H 0.18302 0.92316 0.01669 0.0
H877 H 0.1136 0.90695 0.02362 0.0
H878 H 0.17427 0.95417 0.97821 0.0
H879 H 0.10488 0.93816 0.98533 0.0
H880 H 0.10154 0.01619 0.97034 0.0
H881 H 0.10709 0.97947 0.99574 0.0
H882 H 0.15858 0.96631 0.9205 0.0
H883 H 0.153 0.00289 0.89487 0.0
C884 C 0.16595 0.92579 0.0092 0.0
C885 C 0.14906 0.91246 0.02336 0.0
C886 C 0.16092 0.94364 0.98714 0.0
C887 C 0.13883 0.94886 0.979 0.0
C888 C 0.12204 0.93476 0.9914 0.0
C889 C 0.1271 0.91667 0.01303 0.0
C890 C 0.11373 0.00532 0.95869 0.0
C891 C 0.12683 0.01267 0.93055 0.0
C892 C 0.11687 0.9842 0.97322 0.0
C893 C 0.1334 0.96995 0.96032 0.0
C894 C 0.14585 0.97692 0.93128 0.0
C895 C 0.14251 0.99789 0.91643 0.0
H896 H 0.76054 0.91908 0.65702 0.0
H897 H 0.76156 0.85528 0.70814 0.0
H898 H 0.72444 0.92673 0.68272 0.0
H899 H 0.7256 0.86309 0.73416 0.0
H900 H 0.68171 0.94324 0.78162 0.0
H901 H 0.71182 0.93526 0.74141 0.0
H902 H 0.68598 0.86941 0.72565 0.0
H903 H 0.65588 0.87731 0.76635 0.0
C904 C 0.75297 0.90652 0.67333 0.0
C905 C 0.76416 0.8866 0.68065 0.0
C906 C 0.73227 0.91099 0.68825 0.0
C907 C 0.7221 0.89563 0.71079 0.0
C908 C 0.73276 0.87524 0.71668 0.0
C909 C 0.75351 0.8708 0.70186 0.0
C910 C 0.68205 0.92724 0.76891 0.0
C911 C 0.66637 0.9109 0.77755 0.0
C912 C 0.69938 0.92265 0.74571 0.0
C913 C 0.70158 0.90155 0.73059 0.0
C914 C 0.68502 0.88571 0.73727 0.0
C915 C 0.66757 0.89036 0.76032 0.0
H916 H 0.89552 0.01607 0.4652 0.0
H917 H 0.83685 0.00767 0.40238 0.0
H918 H 0.88957 0.9795 0.49098 0.0
H919 H 0.83088 0.97126 0.42843 0.0
H920 H 0.81225 0.92953 0.52959 0.0
H921 H 0.81984 0.96009 0.48959 0.0
H922 H 0.88739 0.93803 0.47923 0.0
H923 H 0.87972 0.90719 0.51902 0.0
C924 C 0.8816 0.00629 0.45635 0.0
C925 C 0.86665 0.01498 0.43174 0.0
C926 C 0.87823 0.98526 0.47108 0.0
C927 C 0.85965 0.97247 0.46194 0.0
C928 C 0.84524 0.98073 0.43625 0.0
C929 C 0.84878 0.0016 0.42116 0.0
C930 C 0.82853 0.93074 0.51789 0.0
C931 C 0.84533 0.91581 0.52749 0.0
C932 C 0.83291 0.94832 0.49497 0.0
C933 C 0.8543 0.95168 0.48147 0.0
C934 C 0.87079 0.93603 0.48943 0.0
C935 C 0.8663 0.91817 0.51189 0.0
H936 H 0.73266 0.15379 0.21815 0.0
H937 H 0.74241 0.09799 0.14939 0.0
H938 H 0.76857 0.14651 0.24511 0.0
H939 H 0.77807 0.09061 0.17679 0.0
H940 H 0.84026 0.13414 0.27501 0.0
H941 H 0.81095 0.14382 0.23371 0.0
H942 H 0.78573 0.07711 0.23971 0.0
H943 H 0.8147 0.06751 0.28145 0.0
C944 C 0.74264 0.1403 0.20822 0.0
C945 C 0.73452 0.12646 0.18166 0.0
C946 C 0.76325 0.13616 0.22363 0.0
C947 C 0.77606 0.11787 0.21322 0.0
C948 C 0.7685 0.10472 0.18549 0.0
C949 C 0.74809 0.10908 0.16967 0.0
C950 C 0.82888 0.12134 0.26672 0.0
C951 C 0.82983 0.10002 0.28157 0.0
C952 C 0.81196 0.12698 0.24333 0.0
C953 C 0.79595 0.11128 0.23367 0.0
C954 C 0.79789 0.08954 0.24649 0.0
C955 C 0.8145 0.08403 0.27041 0.0
H956 H 0.59864 0.98948 0.9673 0.0
H957 H 0.65383 0.00212 0.89835 0.0
H958 H 0.60453 0.02534 0.99514 0.0
H959 H 0.6597 0.03789 0.92633 0.0
H960 H 0.61321 0.09654 0.02869 0.0
H961 H 0.60462 0.06676 0.98772 0.0
H962 H 0.67345 0.04794 0.98574 0.0
H963 H 0.68204 0.07754 0.02677 0.0
C964 C 0.61173 1.00005 0.95754 0.0
C965 C 0.62579 0.99273 0.93061 0.0
C966 C 0.61508 0.02069 0.97348 0.0
C967 C 0.63272 0.03446 0.96318 0.0
C968 C 0.64611 0.02762 0.93516 0.0
C969 C 0.64261 0.00712 0.91895 0.0
C970 C 0.62665 0.0865 0.01872 0.0
C971 C 0.64836 0.08949 0.03115 0.0
C972 C 0.62165 0.06924 0.99552 0.0
C973 C 0.63828 0.05478 0.98369 0.0
C974 C 0.66023 0.0588 0.99412 0.0
C975 C 0.66517 0.07582 0.0177 0.0
H976 H 0.76186 0.14445 0.80127 0.0
H977 H 0.76433 0.07808 0.84325 0.0
H978 H 0.72539 0.137 0.77727 0.0
H979 H 0.72756 0.07079 0.81987 0.0
H980 H 0.68261 0.0577 0.72292 0.0
H981 H 0.71308 0.06456 0.76264 0.0
H982 H 0.68662 0.12934 0.78554 0.0
H983 H 0.65623 0.12264 0.74495 0.0
C984 C 0.75445 0.12841 0.80611 0.0
C985 C 0.76627 0.11182 0.82396 0.0
C986 C 0.73338 0.12416 0.79245 0.0
C987 C 0.72347 0.10319 0.79628 0.0
C988 C 0.73477 0.08701 0.81584 0.0
C989 C 0.75586 0.09126 0.82948 0.0
C990 C 0.68289 0.07321 0.73708 0.0
C991 C 0.66699 0.08968 0.73032 0.0
C992 C 0.70044 0.07714 0.76005 0.0
C993 C 0.70263 0.09768 0.77701 0.0
C994 C 0.68575 0.1135 0.77242 0.0
C995 C 0.66811 0.10953 0.74945 0.0
H996 H 0.66248 0.00384 0.60096 0.0
H997 H 0.60189 0.01254 0.54284 0.0
H998 H 0.66791 0.96785 0.57358 0.0
H999 H 0.60747 0.9766 0.51531 0.0
H1000 H 0.6169 0.90631 0.48054 0.0
H1001 H 0.60983 0.93594 0.5225 0.0
H1002 H 0.67793 0.9568 0.51405 0.0
H1003 H 0.68501 0.92723 0.47243 0.0
C1004 C 0.6501 0.99798 0.58278 0.0
C1005 C 0.63181 0.01129 0.57396 0.0
C1006 C 0.6533 0.97733 0.56693 0.0
C1007 C 0.63824 0.96935 0.542 0.0
C1008 C 0.61932 0.9821 0.53461 0.0
C1009 C 0.61617 0.00282 0.5503 0.0
C1010 C 0.63054 0.91676 0.48846 0.0
C1011 C 0.65152 0.9144 0.47291 0.0
C1012 C 0.62641 0.93394 0.51222 0.0
C1013 C 0.64322 0.94897 0.52134 0.0
C1014 C 0.66459 0.94551 0.50783 0.0
C1015 C 0.66866 0.92852 0.48386 0.0
H1016 H 0.84035 0.86381 0.228 0.0
H1017 H 0.82126 0.93271 0.22596 0.0
H1018 H 0.80975 0.85578 0.26769 0.0
H1019 H 0.79078 0.92462 0.26581 0.0
H1020 H 0.73232 0.84953 0.28394 0.0
H1021 H 0.76858 0.85558 0.2574 0.0
H1022 H 0.7794 0.91137 0.32546 0.0
H1023 H 0.74324 0.90531 0.35222 0.0
C1024 C 0.83008 0.8774 0.23679 0.0
C1025 C 0.83331 0.89894 0.22353 0.0
C1026 C 0.81236 0.87271 0.25929 0.0
C1027 C 0.79761 0.88948 0.2696 0.0
C1028 C 0.80184 0.9113 0.25851 0.0
C1029 C 0.81937 0.91595 0.23563 0.0
C1030 C 0.74259 0.8628 0.2938 0.0
C1031 C 0.73472 0.87693 0.32022 0.0
C1032 C 0.76345 0.86624 0.27862 0.0
C1033 C 0.77687 0.88406 0.28914 0.0
C1034 C 0.76941 0.89762 0.31653 0.0
C1035 C 0.7487 0.89401 0.33204 0.0
H1036 H 0.87411 0.09468 0.99099 0.0
H1037 H 0.82527 0.05227 0.94307 0.0
H1038 H 0.8832 0.06484 0.03244 0.0
H1039 H 0.83466 0.02279 0.98392 0.0
H1040 H 0.89336 0.97304 0.01904 0.0
H1041 H 0.88605 0.0081 0.98949 0.0
H1042 H 0.84931 0.03105 0.07878 0.0
H1043 H 0.85631 0.99577 0.10872 0.0
C1044 C 0.86491 0.07932 0.98982 0.0
C1045 C 0.84901 0.07593 0.96347 0.0
C1046 C 0.87022 0.06224 0.01343 0.0
C1047 C 0.8597 0.04154 0.01107 0.0
C1048 C 0.84302 0.03859 0.98616 0.0
C1049 C 0.83766 0.05556 0.96281 0.0
C1050 C 0.88417 0.98565 0.03292 0.0
C1051 C 0.87534 0.98137 0.06633 0.0
C1052 C 0.88 0.00575 0.01589 0.0
C1053 C 0.86716 0.0222 0.03192 0.0
C1054 C 0.85941 0.01864 0.06604 0.0
C1055 C 0.86346 0.99842 0.0831 0.0
H1056 H 0.74573 0.59345 0.85598 0.0
H1057 H 0.73772 0.65149 0.7911 0.0
H1058 H 0.78159 0.58639 0.82907 0.0
H1059 H 0.77364 0.64435 0.76427 0.0
H1060 H 0.82023 0.56442 0.72746 0.0
H1061 H 0.79116 0.57379 0.76901 0.0
H1062 H 0.81474 0.64119 0.77237 0.0
H1063 H 0.84397 0.6318 0.73078 0.0
C1064 C 0.75177 0.60502 0.83654 0.0
C1065 C 0.73862 0.62297 0.82554 0.0
C1066 C 0.77232 0.60085 0.82096 0.0
C1067 C 0.78042 0.61466 0.79427 0.0
C1068 C 0.76798 0.63344 0.78491 0.0
C1069 C 0.74731 0.63751 0.80025 0.0
C1070 C 0.81964 0.58109 0.73778 0.0
C1071 C 0.83443 0.59734 0.72562 0.0
C1072 C 0.80295 0.58648 0.76169 0.0
C1073 C 0.80045 0.60832 0.77376 0.0
C1074 C 0.81607 0.62428 0.76328 0.0
C1075 C 0.83298 0.61881 0.73971 0.0
H1076 H 0.6181 0.59714 0.98084 0.0
H1077 H 0.68647 0.57655 0.97981 0.0
H1078 H 0.60939 0.56731 0.02186 0.0
H1079 H 0.67778 0.54693 0.02098 0.0
H1080 H 0.65792 0.50134 0.10935 0.0
H1081 H 0.66436 0.53703 0.08118 0.0
H1082 H 0.60851 0.52575 0.01353 0.0
H1083 H 0.60208 0.48993 0.04149 0.0
C1084 C 0.63143 0.58676 0.99021 0.0
C1085 C 0.65302 0.58931 0.97692 0.0
C1086 C 0.62636 0.56946 0.01343 0.0
C1087 C 0.64282 0.55455 0.02444 0.0
C1088 C 0.6647 0.55814 0.0132 0.0
C1089 C 0.6697 0.57518 0.98957 0.0
C1090 C 0.64669 0.5066 0.08896 0.0
C1091 C 0.62949 0.49259 0.07767 0.0
C1092 C 0.65051 0.52705 0.07264 0.0
C1093 C 0.63706 0.53424 0.04493 0.0
C1094 C 0.6191 0.52083 0.03496 0.0
C1095 C 0.61544 0.50022 0.05096 0.0
H1096 H 0.67664 0.44332 0.23494 0.0
H1097 H 0.65477 0.37541 0.24242 0.0
H1098 H 0.7064 0.4355 0.27577 0.0
H1099 H 0.68452 0.36765 0.28372 0.0
H1100 H 0.76099 0.35772 0.29979 0.0
H1101 H 0.72451 0.36426 0.275 0.0
H1102 H 0.71912 0.42494 0.33378 0.0
H1103 H 0.75577 0.41857 0.35835 0.0
C1104 C 0.67772 0.42687 0.24613 0.0
C1105 C 0.66335 0.40997 0.23502 0.0
C1106 C 0.69485 0.42238 0.26968 0.0
C1107 C 0.69815 0.40083 0.28267 0.0
C1108 C 0.68271 0.38434 0.27376 0.0
C1109 C 0.66545 0.38888 0.25036 0.0
C1110 C 0.75191 0.37226 0.30801 0.0
C1111 C 0.76154 0.3877 0.33088 0.0
C1112 C 0.73085 0.37596 0.29389 0.0
C1113 C 0.71886 0.39524 0.30213 0.0
C1114 C 0.72798 0.41008 0.32647 0.0
C1115 C 0.749 0.40633 0.34073 0.0
H1116 H 0.844 0.50153 0.61456 0.0
H1117 H 0.90233 0.50887 0.55022 0.0
H1118 H 0.83668 0.46566 0.58786 0.0
H1119 H 0.89496 0.47295 0.52369 0.0
H1120 H 0.88141 0.40379 0.48794 0.0
H1121 H 0.89086 0.43172 0.53149 0.0
H1122 H 0.82423 0.45716 0.52693 0.0
H1123 H 0.81478 0.4294 0.48334 0.0
C1124 C 0.85564 0.49529 0.59543 0.0
C1125 C 0.87368 0.5083 0.58435 0.0
C1126 C 0.85131 0.47474 0.57996 0.0
C1127 C 0.86508 0.46653 0.55338 0.0
C1128 C 0.88408 0.47871 0.54424 0.0
C1129 C 0.88828 0.49938 0.55942 0.0
C1130 C 0.86854 0.41484 0.49705 0.0
C1131 C 0.84733 0.4144 0.4819 0.0
C1132 C 0.87406 0.43102 0.52177 0.0
C1133 C 0.8584 0.44686 0.53237 0.0
C1134 C 0.83668 0.44517 0.51949 0.0
C1135 C 0.83125 0.42923 0.49443 0.0
H1136 H 0.73427 0.348 0.71204 0.0
H1137 H 0.74237 0.40558 0.64612 0.0
H1138 H 0.77057 0.35475 0.73754 0.0
H1139 H 0.77863 0.41226 0.67173 0.0
H1140 H 0.81591 0.43474 0.7746 0.0
H1141 H 0.78762 0.4252 0.73199 0.0
H1142 H 0.81173 0.35797 0.72932 0.0
H1143 H 0.8402 0.36753 0.77198 0.0
C1144 C 0.74399 0.36174 0.70227 0.0
C1145 C 0.73518 0.37638 0.67729 0.0
C1146 C 0.76488 0.36558 0.71685 0.0
C1147 C 0.77739 0.38422 0.70698 0.0
C1148 C 0.76928 0.39792 0.68022 0.0
C1149 C 0.7485 0.39398 0.6654 0.0
C1150 C 0.81563 0.41808 0.76418 0.0
C1151 C 0.83027 0.4019 0.77691 0.0
C1152 C 0.79941 0.41261 0.73965 0.0
C1153 C 0.79726 0.39075 0.72752 0.0
C1154 C 0.81283 0.3749 0.73844 0.0
C1155 C 0.82928 0.38046 0.76265 0.0
H1156 H 0.81025 0.56979 0.03478 0.0
H1157 H 0.87638 0.59391 0.01679 0.0
H1158 H 0.81602 0.54112 0.99028 0.0
H1159 H 0.8822 0.56549 0.9726 0.0
H1160 H 0.89384 0.48909 0.95772 0.0
H1161 H 0.88637 0.52474 0.98514 0.0
H1162 H 0.82562 0.53041 0.92682 0.0
H1163 H 0.8332 0.49481 0.89893 0.0
C1164 C 0.82555 0.5697 0.02005 0.0
C1165 C 0.8428 0.58417 0.02901 0.0
C1166 C 0.82899 0.55315 0.9948 0.0
C1167 C 0.84976 0.55078 0.97842 0.0
C1168 C 0.86617 0.56664 0.98512 0.0
C1169 C 0.86272 0.58311 0.0101 0.0
C1170 C 0.87917 0.49816 0.95006 0.0
C1171 C 0.86421 0.48905 0.926 0.0
C1172 C 0.87487 0.51864 0.96575 0.0
C1173 C 0.85533 0.53041 0.95822 0.0
C1174 C 0.84074 0.52172 0.93327 0.0
C1175 C 0.84524 0.50139 0.91707 0.0
H1176 H 0.75068 0.63543 0.15458 0.0
H1177 H 0.771 0.57632 0.20939 0.0
H1178 H 0.71321 0.63123 0.17928 0.0
H1179 H 0.73468 0.57252 0.23421 0.0
H1180 H 0.66311 0.63022 0.276 0.0
H1181 H 0.69387 0.63448 0.23508 0.0
H1182 H 0.69762 0.5634 0.22452 0.0
H1183 H 0.66772 0.55923 0.26668 0.0
C1184 C 0.74715 0.62146 0.17145 0.0
C1185 C 0.76399 0.60633 0.18007 0.0
C1186 C 0.72573 0.6191 0.18582 0.0
C1187 C 0.72068 0.60141 0.20871 0.0
C1188 C 0.73749 0.58608 0.21622 0.0
C1189 C 0.75863 0.58846 0.20218 0.0
C1190 C 0.67007 0.61553 0.26411 0.0
C1191 C 0.66308 0.59435 0.27496 0.0
C1192 C 0.68779 0.61798 0.24058 0.0
C1193 C 0.69877 0.59929 0.22705 0.0
C1194 C 0.69015 0.57821 0.23521 0.0
C1195 C 0.67278 0.57577 0.25914 0.0
H1196 H 0.61333 0.40879 0.53176 0.0
H1197 H 0.68099 0.43143 0.5355 0.0
H1198 H 0.60458 0.43813 0.48971 0.0
H1199 H 0.67234 0.46038 0.49309 0.0
H1200 H 0.65324 0.50282 0.40062 0.0
H1201 H 0.65919 0.46754 0.43031 0.0
H1202 H 0.60361 0.48078 0.49783 0.0
H1203 H 0.59775 0.5163 0.46852 0.0
C1204 C 0.6265 0.41955 0.52279 0.0
C1205 C 0.64789 0.41772 0.53696 0.0
C1206 C 0.62141 0.4365 0.49897 0.0
C1207 C 0.63773 0.45166 0.48819 0.0
C1208 C 0.65942 0.4489 0.50065 0.0
C1209 C 0.66439 0.4323 0.52498 0.0
C1210 C 0.64192 0.49805 0.42124 0.0
C1211 C 0.62504 0.51255 0.43223 0.0
C1212 C 0.64546 0.47785 0.4384 0.0
C1213 C 0.63198 0.47142 0.46657 0.0
C1214 C 0.61421 0.48519 0.47608 0.0
C1215 C 0.61088 0.50559 0.4593 0.0
H1216 H 0.17756 0.43675 0.27594 0.0
H1217 H 0.15705 0.36834 0.27155 0.0
H1218 H 0.20791 0.42868 0.23585 0.0
H1219 H 0.18759 0.36028 0.2317 0.0
H1220 H 0.25501 0.40958 0.14855 0.0
H1221 H 0.21892 0.41591 0.17542 0.0
H1222 H 0.22899 0.35942 0.24261 0.0
H1223 H 0.26521 0.35314 0.21602 0.0
C1224 C 0.17911 0.42013 0.26566 0.0
C1225 C 0.16478 0.40323 0.27712 0.0
C1226 C 0.19657 0.41549 0.24267 0.0
C1227 C 0.20038 0.39376 0.23089 0.0
C1228 C 0.18527 0.37714 0.24061 0.0
C1229 C 0.16758 0.38185 0.26317 0.0
C1230 C 0.2494 0.3982 0.16856 0.0
C1231 C 0.26316 0.38085 0.18012 0.0
C1232 C 0.22873 0.40196 0.18413 0.0
C1233 C 0.22107 0.38826 0.21129 0.0
C1234 C 0.23428 0.37019 0.22157 0.0
C1235 C 0.25511 0.36663 0.20637 0.0
H1236 H 0.316 0.4276 0.02155 0.0
H1237 H 0.38457 0.40762 0.02358 0.0
H1238 H 0.32534 0.4579 0.98206 0.0
H1239 H 0.39388 0.43805 0.98414 0.0
H1240 H 0.34633 0.5061 0.89878 0.0
H1241 H 0.33981 0.46953 0.92381 0.0
H1242 H 0.39453 0.4791 0.9944 0.0
H1243 H 0.40108 0.51576 0.9695 0.0
C1244 C 0.33296 0.42923 0.01276 0.0
C1245 C 0.3495 0.41513 0.02595 0.0
C1246 C 0.33834 0.44666 0.99008 0.0
C1247 C 0.36043 0.45062 0.98027 0.0
C1248 C 0.37675 0.43564 0.99154 0.0
C1249 C 0.37133 0.41801 0.01386 0.0
C1250 C 0.35732 0.50029 0.91913 0.0
C1251 C 0.37419 0.51407 0.93222 0.0
C1252 C 0.35345 0.47932 0.93363 0.0
C1253 C 0.3665 0.47141 0.96132 0.0
C1254 C 0.38424 0.48458 0.97294 0.0
C1255 C 0.38797 0.50567 0.95869 0.0
H1256 H 0.23572 0.65033 0.72029 0.0
H1257 H 0.24583 0.59243 0.6561 0.0
H1258 H 0.27191 0.64459 0.74699 0.0
H1259 H 0.28192 0.58674 0.68295 0.0
H1260 H 0.32108 0.56654 0.78514 0.0
H1261 H 0.29162 0.57476 0.7437 0.0
H1262 H 0.31333 0.64274 0.73823 0.0
H1263 H 0.34301 0.63448 0.77963 0.0
C1264 C 0.24582 0.63668 0.71125 0.0
C1265 C 0.23765 0.62177 0.68619 0.0
C1266 C 0.26664 0.63343 0.72652 0.0
C1267 C 0.27974 0.61506 0.71736 0.0
C1268 C 0.27214 0.6009 0.69088 0.0
C1269 C 0.25146 0.60428 0.67534 0.0
C1270 C 0.32 0.5831 0.77435 0.0
C1271 C 0.33443 0.59983 0.78581 0.0
C1272 C 0.30309 0.58782 0.75053 0.0
C1273 C 0.29997 0.60948 0.73789 0.0
C1274 C 0.31517 0.62594 0.74774 0.0
C1275 C 0.33233 0.62113 0.77119 0.0
H1276 H 0.11869 0.57986 0.54635 0.0
H1277 H 0.18864 0.57808 0.52532 0.0
H1278 H 0.11274 0.54986 0.50571 0.0
H1279 H 0.18279 0.54965 0.48137 0.0
H1280 H 0.17204 0.47946 0.44355 0.0
H1281 H 0.17781 0.51387 0.4741 0.0
H1282 H 0.10924 0.53149 0.45624 0.0
H1283 H 0.10329 0.49561 0.42885 0.0
C1284 C 0.13271 0.5736 0.53173 0.0
C1285 C 0.15411 0.58127 0.53894 0.0
C1286 C 0.12935 0.55628 0.50809 0.0
C1287 C 0.14726 0.54657 0.49004 0.0
C1288 C 0.16852 0.55572 0.49543 0.0
C1289 C 0.17195 0.57243 0.5202 0.0
C1290 C 0.15827 0.49084 0.44591 0.0
C1291 C 0.1372 0.48483 0.43392 0.0
C1292 C 0.16158 0.51089 0.46332 0.0
C1293 C 0.14405 0.52601 0.46828 0.0
C1294 C 0.12316 0.52033 0.4543 0.0
C1295 C 0.11969 0.49981 0.43805 0.0
H1296 H 0.17883 0.56349 0.23657 0.0
H1297 H 0.15664 0.63146 0.23691 0.0
H1298 H 0.20875 0.57324 0.27635 0.0
H1299 H 0.18671 0.64117 0.27652 0.0
H1300 H 0.26412 0.65034 0.29312 0.0
H1301 H 0.22802 0.64314 0.2669 0.0
H1302 H 0.21888 0.58728 0.33578 0.0
H1303 H 0.2548 0.59444 0.36217 0.0
C1304 C 0.17993 0.58039 0.24585 0.0
C1305 C 0.16527 0.59665 0.23335 0.0
C1306 C 0.19713 0.58599 0.26869 0.0
C1307 C 0.2003 0.60806 0.27932 0.0
C1308 C 0.18489 0.62408 0.26851 0.0
C1309 C 0.16748 0.61842 0.24607 0.0
C1310 C 0.25422 0.63685 0.3033 0.0
C1311 C 0.26258 0.62293 0.32967 0.0
C1312 C 0.23346 0.63273 0.28827 0.0
C1313 C 0.22064 0.61447 0.29899 0.0
C1314 C 0.22845 0.6013 0.32662 0.0
C1315 C 0.24904 0.60555 0.3419 0.0
H1316 H 0.18162 0.42653 0.9832 0.0
H1317 H 0.11346 0.40527 0.9865 0.0
H1318 H 0.1733 0.45561 0.02537 0.0
H1319 H 0.10515 0.43453 0.02849 0.0
H1320 H 0.09738 0.51171 0.049 0.0
H1321 H 0.10365 0.47603 0.02078 0.0
H1322 H 0.16067 0.46505 0.08616 0.0
H1323 H 0.15437 0.50063 0.11462 0.0
C1324 C 0.165 0.42762 0.99366 0.0
C1325 C 0.14825 0.41349 0.98128 0.0
C1326 C 0.16021 0.44435 0.01787 0.0
C1327 C 0.13847 0.44761 0.03003 0.0
C1328 C 0.122 0.43264 0.01935 0.0
C1329 C 0.12687 0.41568 0.99554 0.0
C1330 C 0.11095 0.50149 0.05799 0.0
C1331 C 0.12538 0.50921 0.08409 0.0
C1332 C 0.11453 0.48096 0.04182 0.0
C1333 C 0.13279 0.46771 0.05099 0.0
C1334 C 0.14658 0.47492 0.07823 0.0
C1335 C 0.14283 0.49529 0.09474 0.0
H1336 H 0.33734 0.36849 0.73245 0.0
H1337 H 0.30913 0.43164 0.70418 0.0
H1338 H 0.3079 0.36314 0.77574 0.0
H1339 H 0.28004 0.42646 0.7477 0.0
H1340 H 0.2307 0.35162 0.79651 0.0
H1341 H 0.26611 0.35695 0.76684 0.0
H1342 H 0.27199 0.42179 0.81292 0.0
H1343 H 0.2367 0.41643 0.843 0.0
C1344 C 0.32528 0.38153 0.73621 0.0
C1345 C 0.32559 0.40051 0.71485 0.0
C1346 C 0.30831 0.37836 0.76078 0.0
C1347 C 0.29156 0.39431 0.76502 0.0
C1348 C 0.29275 0.41392 0.74527 0.0
C1349 C 0.30942 0.41688 0.72028 0.0
C1350 C 0.23974 0.36683 0.80095 0.0
C1351 C 0.23074 0.38361 0.82208 0.0
C1352 C 0.2601 0.36984 0.78403 0.0
C1353 C 0.27181 0.38985 0.78737 0.0
C1354 C 0.2633 0.40625 0.80966 0.0
C1355 C 0.24312 0.40309 0.82706 0.0
H1356 H 0.39548 0.48354 0.54892 0.0
H1357 H 0.32929 0.48398 0.59153 0.0
H1358 H 0.38929 0.5201 0.52387 0.0
H1359 H 0.32328 0.52075 0.567 0.0
H1360 H 0.31122 0.56486 0.46871 0.0
H1361 H 0.31755 0.53424 0.50861 0.0
H1362 H 0.38272 0.55959 0.53135 0.0
H1363 H 0.37644 0.59028 0.4907 0.0
C1364 C 0.37977 0.4916 0.55366 0.0
C1365 C 0.36283 0.48057 0.572 0.0
C1366 C 0.37624 0.51271 0.53938 0.0
C1367 C 0.35568 0.5234 0.54302 0.0
C1368 C 0.33919 0.51291 0.5631 0.0
C1369 C 0.34271 0.49181 0.57739 0.0
C1370 C 0.32672 0.56427 0.48284 0.0
C1371 C 0.34334 0.58004 0.47628 0.0
C1372 C 0.33034 0.54666 0.50592 0.0
C1373 C 0.35076 0.54419 0.52306 0.0
C1374 C 0.36691 0.56076 0.51824 0.0
C1375 C 0.3632 0.57854 0.49525 0.0
H1376 H 0.11687 0.31562 0.33503 0.0
H1377 H 0.12643 0.31198 0.44674 0.0
H1378 H 0.12152 0.27552 0.33114 0.0
H1379 H 0.13136 0.27211 0.4427 0.0
H1380 H 0.12342 0.19733 0.42287 0.0
H1381 H 0.11363 0.2364 0.42826 0.0
H1382 H 0.15461 0.25172 0.33899 0.0
H1383 H 0.16427 0.21288 0.33329 0.0
C1384 C 0.11952 0.30624 0.35879 0.0
C1385 C 0.12153 0.31699 0.39111 0.0
C1386 C 0.12241 0.28333 0.35653 0.0
C1387 C 0.12717 0.27076 0.38656 0.0
C1388 C 0.12769 0.28134 0.41913 0.0
C1389 C 0.12495 0.30421 0.42138 0.0
C1390 C 0.13052 0.20906 0.40461 0.0
C1391 C 0.14461 0.20192 0.37762 0.0
C1392 C 0.12485 0.23141 0.40764 0.0
C1393 C 0.13306 0.24703 0.38368 0.0
C1394 C 0.14759 0.23999 0.35733 0.0
C1395 C 0.15333 0.21772 0.35436 0.0
H1396 H 0.04481 0.88591 0.56419 0.0
H1397 H 0.04577 0.89822 0.67513 0.0
H1398 H 0.0062 0.87549 0.56758 0.0
H1399 H 0.00643 0.88946 0.67843 0.0
H1400 H 0.93975 0.85785 0.68249 0.0
H1401 H 0.97962 0.86265 0.67756 0.0
H1402 H 0.97102 0.88813 0.5727 0.0
H1403 H 0.93147 0.88161 0.57708 0.0
C1404 C 0.03656 0.88683 0.58928 0.0
C1405 C 0.04823 0.89307 0.61938 0.0
C1406 C 0.01429 0.88092 0.59124 0.0
C1407 C 0.00287 0.88166 0.62324 0.0
C1408 C 0.01461 0.88816 0.65338 0.0
C1409 C 0.03713 0.89348 0.65153 0.0
C1410 C 0.94658 0.86392 0.65812 0.0
C1411 C 0.93263 0.86921 0.63007 0.0
C1412 C 0.96942 0.86704 0.65542 0.0
C1413 C 0.97878 0.87618 0.62494 0.0
C1414 C 0.96471 0.88073 0.59645 0.0
C1415 C 0.94194 0.87701 0.59886 0.0
H1416 H 0.34236 0.79332 0.81981 0.0
H1417 H 0.36186 0.80323 0.92726 0.0
H1418 H 0.34717 0.75355 0.82683 0.0
H1419 H 0.36669 0.7633 0.93409 0.0
H1420 H 0.34621 0.68935 0.94038 0.0
H1421 H 0.34283 0.72933 0.93438 0.0
H1422 H 0.37829 0.72662 0.83654 0.0
H1423 H 0.38167 0.68644 0.84239 0.0
C1424 C 0.34759 0.78704 0.845 0.0
C1425 C 0.35168 0.80152 0.87302 0.0
C1426 C 0.35053 0.76425 0.84887 0.0
C1427 C 0.35743 0.75534 0.88092 0.0
C1428 C 0.36125 0.76971 0.90912 0.0
C1429 C 0.35851 0.79258 0.90517 0.0
C1430 C 0.35336 0.69723 0.91758 0.0
C1431 C 0.36414 0.68466 0.89176 0.0
C1432 C 0.35153 0.72017 0.91431 0.0
C1433 C 0.36025 0.73108 0.88499 0.0
C1434 C 0.37122 0.7186 0.85928 0.0
C1435 C 0.37326 0.69562 0.86272 0.0
H1436 H 0.44715 0.11381 0.18417 0.0
H1437 H 0.45713 0.09249 0.07755 0.0
H1438 H 0.48701 0.11972 0.19013 0.0
H1439 H 0.49671 0.09848 0.08364 0.0
H1440 H 0.56254 0.13514 0.09569 0.0
H1441 H 0.52231 0.13149 0.09202 0.0
H1442 H 0.52176 0.09576 0.18975 0.0
H1443 H 0.56184 0.09931 0.19351 0.0
C1444 C 0.4578 0.1103 0.1621 0.0
C1445 C 0.44894 0.10263 0.13043 0.0
C1446 C 0.48059 0.11368 0.16553 0.0
C1447 C 0.49486 0.10974 0.13722 0.0
C1448 C 0.48603 0.10195 0.1057 0.0
C1449 C 0.46336 0.09833 0.10239 0.0
C1450 C 0.55381 0.12668 0.11653 0.0
C1451 C 0.56537 0.1174 0.14476 0.0
C1452 C 0.53083 0.1245 0.11433 0.0
C1453 C 0.51899 0.11326 0.14055 0.0
C1454 C 0.53047 0.10461 0.1693 0.0
C1455 C 0.55343 0.10655 0.17129 0.0
H1456 H 0.13845 0.79707 0.07371 0.0
H1457 H 0.16098 0.7895 0.18019 0.0
H1458 H 0.13408 0.7569 0.06932 0.0
H1459 H 0.15654 0.7496 0.17565 0.0
H1460 H 0.1548 0.68219 0.06828 0.0
H1461 H 0.15829 0.7224 0.07037 0.0
H1462 H 0.12429 0.72319 0.16956 0.0
H1463 H 0.12072 0.68292 0.16758 0.0
C1464 C 0.1426 0.78689 0.09606 0.0
C1465 C 0.15006 0.79656 0.12729 0.0
C1466 C 0.14011 0.7639 0.09352 0.0
C1467 C 0.14477 0.75019 0.12227 0.0
C1468 C 0.15251 0.75981 0.15326 0.0
C1469 C 0.15523 0.78268 0.15569 0.0
C1470 C 0.14797 0.69092 0.0905 0.0
C1471 C 0.13757 0.67933 0.11788 0.0
C1472 C 0.14988 0.71396 0.09155 0.0
C1473 C 0.14166 0.72588 0.12018 0.0
C1474 C 0.13098 0.71436 0.14733 0.0
C1475 C 0.12884 0.69133 0.1461 0.0
H1476 H 0.56087 0.90446 0.31403 0.0
H1477 H 0.5618 0.87212 0.41476 0.0
H1478 H 0.52099 0.9091 0.31855 0.0
H1479 H 0.52164 0.87684 0.41921 0.0
H1480 H 0.45523 0.91459 0.43039 0.0
H1481 H 0.49504 0.909 0.42533 0.0
H1482 H 0.48657 0.88594 0.31958 0.0
H1483 H 0.44668 0.89148 0.32449 0.0
C1484 C 0.55256 0.89825 0.33713 0.0
C1485 C 0.56457 0.88795 0.36411 0.0
C1486 C 0.52966 0.90082 0.33959 0.0
C1487 C 0.51819 0.89339 0.36925 0.0
C1488 C 0.5301 0.88292 0.39617 0.0
C1489 C 0.55305 0.88008 0.39352 0.0
C1490 C 0.46181 0.90849 0.40591 0.0
C1491 C 0.44769 0.90355 0.37779 0.0
C1492 C 0.48463 0.90507 0.40319 0.0
C1493 C 0.49392 0.89688 0.37216 0.0
C1494 C 0.4799 0.89235 0.34379 0.0
C1495 C 0.45704 0.89552 0.34662 0.0
H1496 H 0.38983 0.30236 0.57452 0.0
H1497 H 0.35401 0.31209 0.67086 0.0
H1498 H 0.38382 0.26239 0.57897 0.0
H1499 H 0.34737 0.27195 0.67466 0.0
H1500 H 0.31828 0.2028 0.62849 0.0
H1501 H 0.32495 0.24303 0.62572 0.0
H1502 H 0.39527 0.23151 0.63082 0.0
H1503 H 0.38868 0.19166 0.63466 0.0
C1504 C 0.38093 0.29587 0.59688 0.0
C1505 C 0.37258 0.31022 0.62256 0.0
C1506 C 0.37738 0.27309 0.59927 0.0
C1507 C 0.36491 0.26427 0.62687 0.0
C1508 C 0.35686 0.27849 0.65296 0.0
C1509 C 0.36091 0.30132 0.65105 0.0
C1510 C 0.33511 0.20894 0.62861 0.0
C1511 C 0.35297 0.19422 0.63165 0.0
C1512 C 0.33891 0.23185 0.62743 0.0
C1513 C 0.36061 0.2402 0.62837 0.0
C1514 C 0.37841 0.22542 0.6302 0.0
C1515 C 0.37463 0.20268 0.63226 0.0
H1516 H 0.04623 0.10671 0.94374 0.0
H1517 H 0.04914 0.1044 0.83118 0.0
H1518 H 0.0073 0.11634 0.9411 0.0
H1519 H 0.00976 0.11257 0.82832 0.0
H1520 H 0.944 0.14549 0.82781 0.0
H1521 H 0.98362 0.13991 0.83434 0.0
H1522 H 0.97185 0.10438 0.93086 0.0
H1523 H 0.93234 0.11151 0.92521 0.0
C1524 C 0.03839 0.10782 0.91838 0.0
C1525 C 0.05074 0.10475 0.88764 0.0
C1526 C 0.01597 0.1133 0.91684 0.0
C1527 C 0.00515 0.11541 0.8845 0.0
C1528 C 0.01749 0.11174 0.85375 0.0
C1529 C 0.04006 0.10676 0.85531 0.0
C1530 C 0.95004 0.13697 0.85083 0.0
C1531 C 0.9352 0.12902 0.87609 0.0
C1532 C 0.97274 0.13342 0.85435 0.0
C1533 C 0.98113 0.12121 0.88275 0.0
C1534 C 0.96621 0.11404 0.90878 0.0
C1535 C 0.94351 0.11812 0.90565 0.0
H1536 H 0.8316 0.788 0.67372 0.0
H1537 H 0.85829 0.79747 0.56991 0.0
H1538 H 0.83734 0.74831 0.66851 0.0
H1539 H 0.86398 0.75754 0.56488 0.0
H1540 H 0.84739 0.68234 0.55942 0.0
H1541 H 0.84178 0.72223 0.5624 0.0
H1542 H 0.87061 0.72313 0.66546 0.0
H1543 H 0.87625 0.68308 0.66262 0.0
C1544 C 0.83848 0.78165 0.6496 0.0
C1545 C 0.84453 0.79601 0.62223 0.0
C1546 C 0.84196 0.75888 0.64682 0.0
C1547 C 0.85136 0.74988 0.6165 0.0
C1548 C 0.85668 0.76406 0.58857 0.0
C1549 C 0.85341 0.78692 0.59146 0.0
C1550 C 0.85264 0.69102 0.58271 0.0
C1551 C 0.86219 0.6795 0.61088 0.0
C1552 C 0.84951 0.71389 0.58428 0.0
C1553 C 0.85564 0.72575 0.61421 0.0
C1554 C 0.86549 0.71434 0.64221 0.0
C1555 C 0.86886 0.69145 0.64049 0.0
H1556 H 0.06001 0.0981 0.31259 0.0
H1557 H 0.06377 0.12716 0.41553 0.0
H1558 H 0.02039 0.09322 0.31959 0.0
H1559 H 0.02381 0.12243 0.42228 0.0
H1560 H 0.95606 0.08823 0.43428 0.0
H1561 H 0.99597 0.09228 0.42808 0.0
H1562 H 0.98711 0.11648 0.32286 0.0
H1563 H 0.94723 0.11224 0.32876 0.0
C1564 C 0.0524 0.10349 0.33678 0.0
C1565 C 0.06512 0.11307 0.36353 0.0
C1566 C 0.02964 0.10079 0.34064 0.0
C1567 C 0.01896 0.10751 0.3714 0.0
C1568 C 0.03162 0.11692 0.39837 0.0
C1569 C 0.05448 0.11975 0.39444 0.0
C1570 C 0.96259 0.09427 0.40966 0.0
C1571 C 0.94837 0.09986 0.38195 0.0
C1572 C 0.98547 0.09677 0.40629 0.0
C1573 C 0.99467 0.10478 0.37506 0.0
C1574 C 0.98052 0.11007 0.34716 0.0
C1575 C 0.95763 0.10768 0.35057 0.0
H1576 H 0.65445 0.31837 0.07426 0.0
H1577 H 0.61893 0.32043 0.17222 0.0
H1578 H 0.65667 0.27819 0.07837 0.0
H1579 H 0.6212 0.28007 0.17623 0.0
H1580 H 0.6557 0.21228 0.19034 0.0
H1581 H 0.65167 0.25223 0.18491 0.0
H1582 H 0.6321 0.2446 0.07725 0.0
H1583 H 0.63611 0.20445 0.08254 0.0
C1584 C 0.64703 0.31026 0.09664 0.0
C1585 C 0.63658 0.32266 0.12302 0.0
C1586 C 0.6482 0.2872 0.09884 0.0
C1587 C 0.63917 0.27597 0.12764 0.0
C1588 C 0.6285 0.2883 0.15386 0.0
C1589 C 0.6271 0.3114 0.15148 0.0
C1590 C 0.65062 0.21904 0.1654 0.0
C1591 C 0.64628 0.20508 0.13683 0.0
C1592 C 0.64812 0.24196 0.16243 0.0
C1593 C 0.64145 0.25155 0.13073 0.0
C1594 C 0.63737 0.23768 0.10198 0.0
C1595 C 0.63963 0.21468 0.10505 0.0
H1596 H 0.43736 0.85774 0.88615 0.0
H1597 H 0.43287 0.9238 0.84319 0.0
H1598 H 0.47783 0.86143 0.88859 0.0
H1599 H 0.47292 0.92747 0.8463 0.0
H1600 H 0.54056 0.93273 0.90502 0.0
H1601 H 0.50058 0.92789 0.89999 0.0
H1602 H 0.51067 0.86807 0.84069 0.0
H1603 H 0.55085 0.8731 0.84504 0.0
C1604 C 0.44497 0.873 0.87735 0.0
C1605 C 0.43193 0.89046 0.86447 0.0
C1606 C 0.46806 0.87504 0.87855 0.0
C1607 C 0.47838 0.89474 0.86762 0.0
C1608 C 0.46534 0.91217 0.85498 0.0
C1609 C 0.44242 0.90999 0.85313 0.0
C1610 C 0.53427 0.91865 0.89063 0.0
C1611 C 0.54883 0.90336 0.87525 0.0
C1612 C 0.51142 0.91589 0.8878 0.0
C1613 C 0.50264 0.89755 0.87015 0.0
C1614 C 0.51711 0.88225 0.85466 0.0
C1615 C 0.54003 0.88527 0.85685 0.0
H1616 H 0.87501 0.31605 0.84185 0.0
H1617 H 0.84595 0.3159 0.94503 0.0
H1618 H 0.87175 0.2757 0.83981 0.0
H1619 H 0.84282 0.27566 0.94292 0.0
H1620 H 0.86135 0.20042 0.93357 0.0
H1621 H 0.86681 0.24046 0.93932 0.0
H1622 H 0.83789 0.25044 0.83755 0.0
H1623 H 0.83223 0.21086 0.83174 0.0
C1624 C 0.8682 0.30741 0.86421 0.0
C1625 C 0.86057 0.31917 0.89344 0.0
C1626 C 0.86622 0.28436 0.86298 0.0
C1627 C 0.85689 0.27262 0.89114 0.0
C1628 C 0.85014 0.28428 0.92094 0.0
C1629 C 0.85183 0.30733 0.92199 0.0
C1630 C 0.85593 0.21118 0.91262 0.0
C1631 C 0.84639 0.20235 0.8822 0.0
C1632 C 0.85911 0.23406 0.91589 0.0
C1633 C 0.85308 0.24845 0.88861 0.0
C1634 C 0.84308 0.23968 0.85867 0.0
C1635 C 0.83966 0.21697 0.85558 0.0
H1636 H 0.43211 0.08892 0.60218 0.0
H1637 H 0.43777 0.12048 0.70279 0.0
H1638 H 0.47197 0.08533 0.59896 0.0
H1639 H 0.47785 0.11563 0.70087 0.0
H1640 H 0.54182 0.06387 0.61061 0.0
H1641 H 0.50204 0.06615 0.61935 0.0
H1642 H 0.51066 0.12753 0.67584 0.0
H1643 H 0.55056 0.12427 0.66898 0.0
C1644 C 0.44194 0.09484 0.62388 0.0
C1645 C 0.43184 0.10496 0.65275 0.0
C1646 C 0.46487 0.09258 0.62224 0.0
C1647 C 0.47836 0.0999 0.64985 0.0
C1648 C 0.46816 0.11003 0.67885 0.0
C1649 C 0.44516 0.11275 0.68009 0.0
C1650 C 0.53516 0.07768 0.62526 0.0
C1651 C 0.54925 0.0939 0.63903 0.0
C1652 C 0.51231 0.07916 0.63001 0.0
C1653 C 0.50289 0.09727 0.64781 0.0
C1654 C 0.51715 0.1132 0.66237 0.0
C1655 C 0.54008 0.1114 0.65832 0.0
H1656 H 0.67664 0.7916 0.34169 0.0
H1657 H 0.6181 0.79912 0.4054 0.0
H1658 H 0.67396 0.75143 0.34744 0.0
H1659 H 0.61528 0.75876 0.41064 0.0
H1660 H 0.60589 0.68573 0.36807 0.0
H1661 H 0.60833 0.72622 0.36545 0.0
H1662 H 0.67645 0.72298 0.39847 0.0
H1663 H 0.67404 0.68272 0.40161 0.0
C1664 C 0.66326 0.78467 0.35705 0.0
C1665 C 0.6476 0.79852 0.37315 0.0
C1666 C 0.66177 0.7617 0.36038 0.0
C1667 C 0.64436 0.75206 0.37934 0.0
C1668 C 0.62876 0.76583 0.39566 0.0
C1669 C 0.63049 0.78888 0.3929 0.0
C1670 C 0.62138 0.69368 0.37473 0.0
C1671 C 0.63977 0.68103 0.385 0.0
C1672 C 0.62271 0.71681 0.37348 0.0
C1673 C 0.64257 0.72765 0.38182 0.0
C1674 C 0.66098 0.71501 0.39179 0.0
C1675 C 0.65955 0.69197 0.39366 0.0
H1676 H 0.95685 0.90006 0.06724 0.0
H1677 H 0.947 0.88062 0.17484 0.0
H1678 H 0.99657 0.89538 0.07405 0.0
H1679 H 0.98697 0.87595 0.18154 0.0
H1680 H 0.06118 0.89795 0.18598 0.0
H1681 H 0.02102 0.90005 0.18138 0.0
H1682 H 0.02371 0.86457 0.08371 0.0
H1683 H 0.06397 0.86245 0.0882 0.0
C1684 C 0.96312 0.89484 0.09242 0.0
C1685 C 0.94866 0.89077 0.12054 0.0
C1686 C 0.98591 0.89198 0.09619 0.0
C1687 C 0.99489 0.88517 0.12825 0.0
C1688 C 0.98053 0.88131 0.15654 0.0
C1689 C 0.95763 0.88394 0.15267 0.0
C1690 C 0.05323 0.89045 0.16361 0.0
C1691 C 0.06584 0.88013 0.13735 0.0
C1692 C 0.03019 0.89156 0.16111 0.0
C1693 C 0.01921 0.88257 0.13212 0.0
C1694 C 0.03174 0.87185 0.10619 0.0
C1695 C 0.05479 0.87053 0.10887 0.0
H1696 H 0.66213 0.7073 0.92525 0.0
H1697 H 0.63848 0.70955 0.81922 0.0
H1698 H 0.65851 0.74741 0.92939 0.0
H1699 H 0.6327 0.74912 0.8239 0.0
H1700 H 0.64189 0.82302 0.82815 0.0
H1701 H 0.64711 0.7832 0.82395 0.0
H1702 H 0.63675 0.77731 0.93558 0.0
H1703 H 0.63374 0.81736 0.93959 0.0
C1704 C 0.65588 0.71645 0.903 0.0
C1705 C 0.6508 0.70546 0.87184 0.0
C1706 C 0.65353 0.73948 0.90536 0.0
C1707 C 0.64525 0.75195 0.87697 0.0
C1708 C 0.63975 0.74057 0.84608 0.0
C1709 C 0.64286 0.71774 0.84339 0.0
C1710 C 0.6407 0.81307 0.85165 0.0
C1711 C 0.63742 0.82315 0.88414 0.0
C1712 C 0.64353 0.79012 0.84936 0.0
C1713 C 0.64236 0.77658 0.87943 0.0
C1714 C 0.63842 0.7869 0.91185 0.0
C1715 C 0.63638 0.8099 0.91421 0.0
H1716 H 0.55053 0.39297 0.18137 0.0
H1717 H 0.54284 0.41237 0.07334 0.0
H1718 H 0.51064 0.38705 0.1857 0.0
H1719 H 0.50309 0.40642 0.07783 0.0
H1720 H 0.4363 0.37048 0.08968 0.0
H1721 H 0.47659 0.37434 0.08637 0.0
H1722 H 0.47628 0.41051 0.1835 0.0
H1723 H 0.43627 0.40672 0.18689 0.0
C1724 C 0.54037 0.39607 0.15863 0.0
C1725 C 0.54992 0.40322 0.12706 0.0
C1726 C 0.51753 0.39269 0.16112 0.0
C1727 C 0.5038 0.39613 0.13202 0.0
C1728 C 0.51331 0.40334 0.10054 0.0
C1729 C 0.53608 0.40696 0.09813 0.0
C1730 C 0.44487 0.37909 0.11042 0.0
C1731 C 0.43307 0.38837 0.13843 0.0
C1732 C 0.46789 0.38142 0.10843 0.0
C1733 C 0.47954 0.39278 0.13465 0.0
C1734 C 0.46778 0.40153 0.16305 0.0
C1735 C 0.44483 0.39946 0.16484 0.0
H1736 H 0.83547 0.2935 0.32361 0.0
H1737 H 0.86612 0.30308 0.42441 0.0
H1738 H 0.84273 0.25385 0.32769 0.0
H1739 H 0.87357 0.26356 0.42812 0.0
H1740 H 0.85654 0.18966 0.4398 0.0
H1741 H 0.85233 0.22948 0.4351 0.0
H1742 H 0.87418 0.22696 0.32775 0.0
H1743 H 0.87818 0.18663 0.33233 0.0
C1744 C 0.84364 0.28718 0.34671 0.0
C1745 C 0.85008 0.30153 0.37379 0.0
C1746 C 0.84804 0.26448 0.34882 0.0
C1747 C 0.85885 0.25559 0.37811 0.0
C1748 C 0.86508 0.26988 0.4053 0.0
C1749 C 0.86078 0.29256 0.40316 0.0
C1750 C 0.86068 0.19756 0.41522 0.0
C1751 C 0.86761 0.18495 0.38635 0.0
C1752 C 0.85836 0.22044 0.41261 0.0
C1753 C 0.86281 0.23138 0.38103 0.0
C1754 C 0.87038 0.21892 0.35234 0.0
C1755 C 0.87289 0.1959 0.35503 0.0
H1756 H 0.96155 0.58619 0.57811 0.0
H1757 H 0.94893 0.61853 0.67679 0.0
H1758 H 0.00084 0.59404 0.58411 0.0
H1759 H 0.98834 0.62649 0.68255 0.0
H1760 H 0.06274 0.60945 0.6973 0.0
H1761 H 0.0229 0.60544 0.6918 0.0
H1762 H 0.02681 0.62621 0.58401 0.0
H1763 H 0.06699 0.63009 0.5894 0.0
C1764 C 0.96712 0.59489 0.60118 0.0
C1765 C 0.95202 0.60164 0.62706 0.0
C1766 C 0.98965 0.59961 0.60438 0.0
C1767 C 0.99766 0.61105 0.63363 0.0
C1768 C 0.98266 0.61757 0.65974 0.0
C1769 C 0.96007 0.61299 0.65645 0.0
C1770 C 0.05512 0.61341 0.67247 0.0
C1771 C 0.06807 0.61996 0.64369 0.0
C1772 C 0.03225 0.61121 0.66942 0.0
C1773 C 0.02173 0.61536 0.63744 0.0
C1774 C 0.03452 0.62264 0.6089 0.0
C1775 C 0.05748 0.62505 0.61205 0.0
H1776 H 0.65275 0.29547 0.58214 0.0
H1777 H 0.63517 0.29348 0.69128 0.0
H1778 H 0.64686 0.25561 0.57809 0.0
H1779 H 0.62742 0.25424 0.68698 0.0
H1780 H 0.63686 0.18004 0.67977 0.0
H1781 H 0.64185 0.21986 0.68402 0.0
H1782 H 0.62267 0.22684 0.57561 0.0
H1783 H 0.61964 0.18678 0.57108 0.0
C1784 C 0.64739 0.28647 0.60514 0.0
C1785 C 0.64471 0.29744 0.63708 0.0
C1786 C 0.64374 0.26362 0.60285 0.0
C1787 C 0.63662 0.25136 0.63224 0.0
C1788 C 0.63348 0.2627 0.66395 0.0
C1789 C 0.6378 0.28532 0.66643 0.0
C1790 C 0.63348 0.19021 0.65707 0.0
C1791 C 0.62785 0.18043 0.62515 0.0
C1792 C 0.63625 0.21314 0.6594 0.0
C1793 C 0.63281 0.22691 0.63008 0.0
C1794 C 0.62614 0.21697 0.59855 0.0
C1795 C 0.62406 0.19399 0.596 0.0
H1796 H 0.94871 0.38826 0.93686 0.0
H1797 H 0.94693 0.40937 0.82933 0.0
H1798 H 0.98797 0.38073 0.93195 0.0
H1799 H 0.98678 0.40396 0.82484 0.0
H1800 H 0.05545 0.37684 0.81496 0.0
H1801 H 0.01546 0.38028 0.8198 0.0
H1802 H 0.02245 0.39434 0.93017 0.0
H1803 H 0.06211 0.38872 0.92537 0.0
C1804 C 0.95696 0.39175 0.91232 0.0
C1805 C 0.94492 0.39949 0.88351 0.0
C1806 C 0.97959 0.38759 0.90947 0.0
C1807 C 0.99097 0.39179 0.87801 0.0
C1808 C 0.97877 0.39994 0.84931 0.0
C1809 C 0.95593 0.40335 0.85188 0.0
C1810 C 0.04822 0.38023 0.84029 0.0
C1811 C 0.06169 0.38231 0.86986 0.0
C1812 C 0.02529 0.38257 0.84309 0.0
C1813 C 0.01537 0.38788 0.87535 0.0
C1814 C 0.0291 0.38977 0.90497 0.0
C1815 C 0.05195 0.38665 0.90232 0.0
H1816 H 0.82366 0.81286 0.08413 0.0
H1817 H 0.88274 0.80868 0.14722 0.0
H1818 H 0.81823 0.77307 0.09022 0.0
H1819 H 0.87758 0.76886 0.15255 0.0
H1820 H 0.85003 0.70397 0.18913 0.0
H1821 H 0.8529 0.74369 0.18155 0.0
H1822 H 0.83329 0.73707 0.07363 0.0
H1823 H 0.82991 0.69692 0.08151 0.0
C1824 C 0.83558 0.80346 0.09913 0.0
C1825 C 0.85359 0.81404 0.11539 0.0
C1826 C 0.83251 0.7806 0.10242 0.0
C1827 C 0.84736 0.76776 0.12204 0.0
C1828 C 0.86556 0.7783 0.13779 0.0
C1829 C 0.86861 0.80115 0.13458 0.0
C1830 C 0.84618 0.71092 0.16376 0.0
C1831 C 0.83996 0.69722 0.13579 0.0
C1832 C 0.84799 0.73374 0.15937 0.0
C1833 C 0.84378 0.74356 0.12682 0.0
C1834 C 0.83664 0.73002 0.0991 0.0
C1835 C 0.83469 0.70703 0.10357 0.0
H1836 H 0.54615 0.6133 0.43981 0.0
H1837 H 0.54711 0.59582 0.33071 0.0
H1838 H 0.50665 0.61997 0.43683 0.0
H1839 H 0.50712 0.60057 0.32799 0.0
H1840 H 0.43792 0.62647 0.32245 0.0
H1841 H 0.47797 0.624 0.32606 0.0
H1842 H 0.47233 0.60524 0.43496 0.0
H1843 H 0.43234 0.60974 0.43153 0.0
C1844 C 0.53773 0.61052 0.41525 0.0
C1845 C 0.54963 0.60399 0.3855 0.0
C1846 C 0.51496 0.61418 0.41354 0.0
C1847 C 0.50329 0.61075 0.38222 0.0
C1848 C 0.51535 0.60395 0.35247 0.0
C1849 C 0.5383 0.60097 0.35398 0.0
C1850 C 0.44542 0.6222 0.34725 0.0
C1851 C 0.43218 0.61842 0.37677 0.0
C1852 C 0.4684 0.62044 0.3493 0.0
C1853 C 0.47874 0.61407 0.38069 0.0
C1854 C 0.46529 0.61057 0.4104 0.0
C1855 C 0.44229 0.61305 0.40855 0.0
H1856 H 0.37776 0.18557 0.1701 0.0
H1857 H 0.34446 0.18725 0.07032 0.0
H1858 H 0.37476 0.22588 0.17391 0.0
H1859 H 0.34149 0.22738 0.07427 0.0
H1860 H 0.33994 0.29351 0.18576 0.0
H1861 H 0.34396 0.25354 0.1808 0.0
H1862 H 0.36585 0.26104 0.0741 0.0
H1863 H 0.36184 0.30118 0.07889 0.0
C1864 C 0.3699 0.19451 0.14894 0.0
C1865 C 0.36129 0.18315 0.11998 0.0
C1866 C 0.36808 0.21756 0.15122 0.0
C1867 C 0.35785 0.22977 0.12441 0.0
C1868 C 0.34962 0.21846 0.0952 0.0
C1869 C 0.35121 0.19543 0.09309 0.0
C1870 C 0.3455 0.2867 0.16112 0.0
C1871 C 0.35053 0.30062 0.13268 0.0
C1872 C 0.34799 0.26378 0.15843 0.0
C1873 C 0.35535 0.25416 0.12716 0.0
C1874 C 0.36004 0.26798 0.0985 0.0
C1875 C 0.35778 0.29098 0.10128 0.0
H1876 H 0.56365 0.6087 0.81325 0.0
H1877 H 0.56685 0.6357 0.91756 0.0
H1878 H 0.52384 0.60425 0.81909 0.0
H1879 H 0.52676 0.63136 0.92324 0.0
H1880 H 0.46156 0.59204 0.93471 0.0
H1881 H 0.50097 0.59913 0.92774 0.0
H1882 H 0.48911 0.62572 0.82473 0.0
H1883 H 0.44962 0.61853 0.83147 0.0
C1884 C 0.55582 0.61392 0.83734 0.0
C1885 C 0.56846 0.62246 0.86504 0.0
C1886 C 0.53297 0.61146 0.84057 0.0
C1887 C 0.52218 0.61732 0.87168 0.0
C1888 C 0.53468 0.62644 0.89909 0.0
C1889 C 0.5576 0.6291 0.89574 0.0
C1890 C 0.46731 0.59926 0.91043 0.0
C1891 C 0.45236 0.60464 0.88359 0.0
C1892 C 0.48989 0.60354 0.90663 0.0
C1893 C 0.49811 0.61316 0.87582 0.0
C1894 C 0.48327 0.61821 0.84874 0.0
C1895 C 0.46064 0.61408 0.85262 0.0
H1896 H 0.12591 0.80971 0.56459 0.0
H1897 H 0.13757 0.81808 0.6748 0.0
H1898 H 0.12946 0.76978 0.57097 0.0
H1899 H 0.14315 0.77843 0.68113 0.0
H1900 H 0.13651 0.70478 0.69008 0.0
H1901 H 0.12887 0.74395 0.68357 0.0
H1902 H 0.15395 0.74158 0.57762 0.0
H1903 H 0.15966 0.7018 0.58364 0.0
C1904 C 0.12927 0.80287 0.59022 0.0
C1905 C 0.13131 0.8168 0.61927 0.0
C1906 C 0.13164 0.77999 0.59388 0.0
C1907 C 0.13689 0.77059 0.62653 0.0
C1908 C 0.13867 0.78475 0.65566 0.0
C1909 C 0.13556 0.80756 0.65213 0.0
C1910 C 0.1404 0.71273 0.66544 0.0
C1911 C 0.14878 0.70039 0.6374 0.0
C1912 C 0.13615 0.73529 0.66169 0.0
C1913 C 0.14086 0.74628 0.63009 0.0
C1914 C 0.14958 0.7338 0.60214 0.0
C1915 C 0.15314 0.71102 0.6056 0.0
H1916 H 0.93429 0.37245 0.41733 0.0
H1917 H 0.93615 0.39181 0.30863 0.0
H1918 H 0.97435 0.37754 0.42091 0.0
H1919 H 0.97588 0.39721 0.31243 0.0
H1920 H 0.03893 0.41734 0.42467 0.0
H1921 H -0.00048 0.40988 0.41943 0.0
H1922 H 0.01089 0.37767 0.32043 0.0
H1923 H 0.0503 0.38536 0.32528 0.0
C1924 C 0.94325 0.37749 0.39413 0.0
C1925 C 0.93203 0.38185 0.36278 0.0
C1926 C 0.96613 0.38063 0.39626 0.0
C1927 C 0.9782 0.38803 0.36704 0.0
C1928 C 0.96708 0.39141 0.33535 0.0
C1929 C 0.94427 0.38839 0.33325 0.0
C1930 C 0.03305 0.40888 0.40157 0.0
C1931 C 0.04784 0.40196 0.37539 0.0
C1932 C 0.01048 0.40437 0.39881 0.0
C1933 C 0.00216 0.39293 0.36976 0.0
C1934 C 0.01681 0.38657 0.34309 0.0
C1935 C 0.03941 0.39102 0.34587 0.0
H1936 H 0.36391 0.81792 0.33362 0.0
H1937 H 0.3688 0.81473 0.4458 0.0
H1938 H 0.35977 0.77799 0.33116 0.0
H1939 H 0.36664 0.77451 0.44361 0.0
H1940 H 0.33924 0.70449 0.43315 0.0
H1941 H 0.34435 0.74456 0.43682 0.0
H1942 H 0.37486 0.74412 0.3344 0.0
H1943 H 0.36781 0.70476 0.32999 0.0
C1944 C 0.36474 0.80852 0.3577 0.0
C1945 C 0.36671 0.81936 0.38985 0.0
C1946 C 0.36248 0.78549 0.35641 0.0
C1947 C 0.36286 0.77261 0.38722 0.0
C1948 C 0.36568 0.78362 0.41933 0.0
C1949 C 0.36722 0.80672 0.42064 0.0
C1950 C 0.34692 0.71316 0.41152 0.0
C1951 C 0.35284 0.70171 0.38114 0.0
C1952 C 0.35009 0.73613 0.41361 0.0
C1953 C 0.35993 0.74798 0.38576 0.0
C1954 C 0.36656 0.73605 0.35597 0.0
C1955 C 0.36271 0.71334 0.35349 0.0
H1956 H 0.03835 0.57787 0.0964 0.0
H1957 H 0.05295 0.62931 0.17112 0.0
H1958 H 0.9992 0.58657 0.10063 0.0
H1959 H 0.01382 0.63869 0.17429 0.0
H1960 H 0.93838 0.63335 0.19583 0.0
H1961 H 0.97833 0.62753 0.19362 0.0
H1962 H 0.97376 0.61371 0.08311 0.0
H1963 H 0.93387 0.61851 0.08589 0.0
C1964 C 0.0332 0.59105 0.11374 0.0
C1965 C 0.04882 0.60287 0.13338 0.0
C1966 C 0.01072 0.59625 0.1159 0.0
C1967 C 0.00326 0.61364 0.13735 0.0
C1968 C 0.01885 0.62512 0.15766 0.0
C1969 C 0.04134 0.61972 0.15583 0.0
C1970 C 0.94604 0.62956 0.17096 0.0
C1971 C 0.93302 0.62625 0.14108 0.0
C1972 C 0.96896 0.62614 0.16966 0.0
C1973 C 0.97931 0.61963 0.13832 0.0
C1974 C 0.96634 0.61796 0.10796 0.0
C1975 C 0.94349 0.62101 0.10941 0.0
H1976 H 0.17511 0.29382 0.8414 0.0
H1977 H 0.11839 0.2992 0.90962 0.0
H1978 H 0.173 0.25352 0.84505 0.0
H1979 H 0.11615 0.25874 0.91277 0.0
H1980 H 0.10614 0.18646 0.86922 0.0
H1981 H 0.10817 0.22698 0.86714 0.0
H1982 H 0.1774 0.22407 0.89398 0.0
H1983 H 0.1754 0.18377 0.89656 0.0
C1984 C 0.16226 0.2864 0.8573 0.0
C1985 C 0.14695 0.29969 0.87531 0.0
C1986 C 0.16108 0.26334 0.8594 0.0
C1987 C 0.14434 0.25307 0.87903 0.0
C1988 C 0.1291 0.26629 0.89722 0.0
C1989 C 0.13052 0.28941 0.89566 0.0
C1990 C 0.12179 0.19448 0.87453 0.0
C1991 C 0.1406 0.18192 0.88304 0.0
C1992 C 0.1229 0.21764 0.8736 0.0
C1993 C 0.14293 0.22859 0.88049 0.0
C1994 C 0.16178 0.21602 0.88844 0.0
C1995 C 0.16059 0.19296 0.88998 0.0
H1996 H 0.5633 0.36732 0.59327 0.0
H1997 H 0.5608 0.3885 0.70097 0.0
H1998 H 0.5231 0.37112 0.58946 0.0
H1999 H 0.52081 0.39237 0.697 0.0
H2000 H 0.45919 0.41203 0.58389 0.0
H2001 H 0.49841 0.40464 0.5906 0.0
H2002 H 0.48556 0.37092 0.68802 0.0
H2003 H 0.446 0.37829 0.68147 0.0
C2004 C 0.55417 0.37245 0.61622 0.0
C2005 C 0.56523 0.37781 0.64728 0.0
C2006 C 0.53121 0.37478 0.61398 0.0
C2007 C 0.51891 0.38227 0.64286 0.0
C2008 C 0.52985 0.38651 0.6744 0.0
C2009 C 0.55278 0.3844 0.67655 0.0
C2010 C 0.46462 0.40318 0.60695 0.0
C2011 C 0.44936 0.39572 0.63214 0.0
C2012 C 0.48712 0.39874 0.61054 0.0
C2013 C 0.49496 0.3869 0.63952 0.0
C2014 C 0.47991 0.38005 0.66536 0.0
C2015 C 0.45729 0.38433 0.66164 0.0
H2016 H 0.13796 0.07222 0.22902 0.0
H2017 H 0.17963 0.0345 0.29908 0.0
H2018 H 0.14327 0.04463 0.18387 0.0
H2019 H 0.18458 0.00656 0.25369 0.0
H2020 H 0.19491 0.96159 0.16543 0.0
H2021 H 0.19842 0.99819 0.19192 0.0
H2022 H 0.12749 0.00642 0.18637 0.0
H2023 H 0.12399 0.97008 0.16008 0.0
C2024 C 0.14825 0.058 0.23481 0.0
C2025 C 0.15787 0.05506 0.2679 0.0
C2026 C 0.15148 0.04243 0.20878 0.0
C2027 C 0.16424 0.0236 0.21548 0.0
C2028 C 0.17489 0.02119 0.24786 0.0
C2029 C 0.17179 0.03692 0.27395 0.0
C2030 C 0.1802 0.97159 0.16883 0.0
C2031 C 0.15912 0.96301 0.1616 0.0
C2032 C 0.18223 0.9924 0.18403 0.0
C2033 C 0.16322 0.0048 0.19149 0.0
C2034 C 0.14241 0.99715 0.18071 0.0
C2035 C 0.14036 0.97632 0.16597 0.0
H2036 H 0.22107 0.87733 0.56186 0.0
H2037 H 0.18782 0.93602 0.52425 0.0
H2038 H 0.24365 0.87672 0.50929 0.0
H2039 H 0.20953 0.93481 0.47081 0.0
H2040 H 0.27935 0.94072 0.41749 0.0
H2041 H 0.24652 0.94133 0.45362 0.0
H2042 H 0.24243 0.86993 0.44779 0.0
H2043 H 0.27619 0.86932 0.41303 0.0
C2044 C 0.21876 0.89015 0.54238 0.0
C2045 C 0.20314 0.90693 0.54728 0.0
C2046 C 0.23125 0.88954 0.51192 0.0
C2047 C 0.22798 0.90547 0.48556 0.0
C2048 C 0.21243 0.92237 0.49068 0.0
C2049 C 0.20024 0.92321 0.52145 0.0
C2050 C 0.27096 0.92522 0.42277 0.0
C2051 C 0.28063 0.90491 0.41384 0.0
C2052 C 0.25207 0.92556 0.44347 0.0
C2053 C 0.24254 0.90558 0.45473 0.0
C2054 C 0.25009 0.88551 0.44062 0.0
C2055 C 0.26924 0.88515 0.42054 0.0
H2056 H 0.36663 0.96996 0.80217 0.0
H2057 H 0.30246 0.94072 0.78314 0.0
H2058 H 0.3649 0.98848 0.74608 0.0
H2059 H 0.30096 0.95901 0.72642 0.0
H2060 H 0.29918 0.03247 0.67876 0.0
H2061 H 0.29706 0.9979 0.71054 0.0
H2062 H 0.36464 0.98316 0.68196 0.0
H2063 H 0.36698 0.01831 0.65081 0.0
C2064 C 0.35213 0.96757 0.78602 0.0
C2065 C 0.33457 0.9542 0.79727 0.0
C2066 C 0.35137 0.9777 0.75349 0.0
C2067 C 0.33304 0.97465 0.73148 0.0
C2068 C 0.31537 0.9614 0.74276 0.0
C2069 C 0.31609 0.95131 0.77547 0.0
C2070 C 0.3133 0.02142 0.67804 0.0
C2071 C 0.33362 0.02843 0.66418 0.0
C2072 C 0.31201 0.00147 0.69597 0.0
C2073 C 0.33106 0.98849 0.70002 0.0
C2074 C 0.34998 0.99341 0.68008 0.0
C2075 C 0.3513 0.01346 0.6622 0.0
H2076 H 0.22941 0.11034 0.91914 0.0
H2077 H 0.20086 0.04804 0.95159 0.0
H2078 H 0.25676 0.1074 0.96549 0.0
H2079 H 0.2278 0.04546 0.99886 0.0
H2080 H 0.29459 0.04965 0.06504 0.0
H2081 H 0.26772 0.04425 0.01834 0.0
H2082 H 0.24708 0.11242 0.02862 0.0
H2083 H 0.27435 0.11801 0.07442 0.0
C2084 C 0.22956 0.09565 0.93544 0.0
C2085 C 0.21298 0.07962 0.93241 0.0
C2086 C 0.24489 0.09413 0.96223 0.0
C2087 C 0.24356 0.07672 0.98649 0.0
C2088 C 0.22883 0.0592 0.98072 0.0
C2089 C 0.21362 0.06058 0.95351 0.0
C2090 C 0.2837 0.06322 0.0582 0.0
C2091 C 0.28674 0.0844 0.07257 0.0
C2092 C 0.26852 0.06015 0.03131 0.0
C2093 C 0.25619 0.0782 0.01908 0.0
C2094 C 0.25716 0.09851 0.03678 0.0
C2095 C 0.27245 0.10164 0.06327 0.0
H2096 H 0.89802 0.05974 0.76586 0.0
H2097 H 0.83484 0.03456 0.80175 0.0
H2098 H 0.89962 0.03049 0.72205 0.0
H2099 H 0.83668 0.0055 0.75818 0.0
H2100 H 0.89764 0.9528 0.69182 0.0
H2101 H 0.90122 0.98765 0.72294 0.0
H2102 H 0.83536 0.00617 0.6907 0.0
H2103 H 0.83146 0.9712 0.6599 0.0
C2104 C 0.88465 0.04784 0.76472 0.0
C2105 C 0.86616 0.04955 0.78694 0.0
C2106 C 0.88554 0.03129 0.73954 0.0
C2107 C 0.86794 0.01641 0.73628 0.0
C2108 C 0.85008 0.01738 0.75962 0.0
C2109 C 0.84921 0.03379 0.78482 0.0
C2110 C 0.88412 0.96454 0.69055 0.0
C2111 C 0.86391 0.95899 0.67468 0.0
C2112 C 0.88629 0.98451 0.70815 0.0
C2113 C 0.8683 0.99903 0.70983 0.0
C2114 C 0.8492 0.99479 0.69023 0.0
C2115 C 0.84701 0.97484 0.67265 0.0
H2116 H 0.71299 0.13472 0.57233 0.0
H2117 H 0.72023 0.06446 0.59126 0.0
H2118 H 0.74591 0.13443 0.53682 0.0
H2119 H 0.75409 0.06438 0.55672 0.0
H2120 H 0.77843 0.0667 0.44172 0.0
H2121 H 0.75541 0.0666 0.49409 0.0
H2122 H 0.78359 0.12946 0.52494 0.0
H2123 H 0.80527 0.1302 0.47174 0.0
C2124 C 0.72208 0.11934 0.56992 0.0
C2125 C 0.71358 0.09942 0.58318 0.0
C2126 C 0.74114 0.1192 0.54976 0.0
C2127 C 0.75213 0.09918 0.54305 0.0
C2128 C 0.74542 0.07988 0.56058 0.0
C2129 C 0.72617 0.07997 0.58055 0.0
C2130 C 0.77935 0.08057 0.45957 0.0
C2131 C 0.79301 0.0987 0.45232 0.0
C2132 C 0.76663 0.08033 0.48989 0.0
C2133 C 0.76783 0.098 0.51373 0.0
C2134 C 0.78207 0.11579 0.50684 0.0
C2135 C 0.7943 0.11629 0.47619 0.0
H2136 H 0.69832 0.04979 0.19707 0.0
H2137 H 0.6328 0.02679 0.17047 0.0
H2138 H 0.70169 0.02016 0.24009 0.0
H2139 H 0.63649 0.99675 0.21251 0.0
H2140 H 0.63132 0.97452 0.32151 0.0
H2141 H 0.63545 0.00287 0.27679 0.0
H2142 H 0.7016 0.9796 0.25473 0.0
H2143 H 0.69769 0.95157 0.30038 0.0
C2144 C 0.68508 0.03777 0.19929 0.0
C2145 C 0.66508 0.0407 0.18126 0.0
C2146 C 0.68698 0.02095 0.22404 0.0
C2147 C 0.66897 0.0069 0.23043 0.0
C2148 C 0.65024 0.00802 0.20886 0.0
C2149 C 0.64823 0.02495 0.18456 0.0
C2150 C 0.64698 0.97598 0.3079 0.0
C2151 C 0.66406 0.96081 0.31386 0.0
C2152 C 0.64924 0.99189 0.282 0.0
C2153 C 0.66849 0.99263 0.26147 0.0
C2154 C 0.68649 0.97905 0.26994 0.0
C2155 C 0.68432 0.96321 0.29623 0.0
H2156 H 0.7235 0.88889 0.93169 0.0
H2157 H 0.70156 0.95608 0.94926 0.0
H2158 H 0.75085 0.89303 0.97771 0.0
H2159 H 0.72878 0.96003 0.99599 0.0
H2160 H 0.79925 0.95271 0.05625 0.0
H2161 H 0.77068 0.95791 0.0119 0.0
H2162 H 0.74072 0.89593 0.0426 0.0
H2163 H 0.76954 0.89043 0.0861 0.0
C2164 C 0.72499 0.90472 0.94474 0.0
C2165 C 0.71025 0.92199 0.93757 0.0
C2166 C 0.74037 0.907 0.9713 0.0
C2167 C 0.74106 0.92651 0.99114 0.0
C2168 C 0.72816 0.94473 0.98131 0.0
C2169 C 0.7128 0.9425 0.95442 0.0
C2170 C 0.78597 0.94072 0.05451 0.0
C2171 C 0.78669 0.92092 0.07378 0.0
C2172 C 0.76979 0.94364 0.02902 0.0
C2173 C 0.75425 0.92685 0.02319 0.0
C2174 C 0.75312 0.90869 0.04603 0.0
C2175 C 0.76937 0.90566 0.07111 0.0
H2176 H 0.69218 0.5362 0.8322 0.0
H2177 H 0.62077 0.53555 0.8268 0.0
H2178 H 0.69341 0.50127 0.80031 0.0
H2179 H 0.62195 0.50155 0.79403 0.0
H2180 H 0.62638 0.43958 0.73738 0.0
H2181 H 0.62981 0.46395 0.78723 0.0
H2182 H 0.6867 0.49512 0.73915 0.0
H2183 H 0.68412 0.46934 0.69017 0.0
C2184 C 0.67677 0.52829 0.82507 0.0
C2185 C 0.6564 0.53879 0.831 0.0
C2186 C 0.67748 0.50845 0.80654 0.0
C2187 C 0.65784 0.499 0.79388 0.0
C2188 C 0.63743 0.50832 0.80338 0.0
C2189 C 0.63672 0.52798 0.82194 0.0
C2190 C 0.63957 0.45171 0.73742 0.0
C2191 C 0.65463 0.45317 0.70959 0.0
C2192 C 0.64163 0.46553 0.76609 0.0
C2193 C 0.65837 0.48159 0.76699 0.0
C2194 C 0.6738 0.48268 0.73947 0.0
C2195 C 0.67211 0.46832 0.71113 0.0
H2196 H 0.796 0.45069 0.95229 0.0
H2197 H 0.76985 0.38487 0.93623 0.0
H2198 H 0.77351 0.45452 0.00468 0.0
H2199 H 0.74678 0.38902 0.98786 0.0
H2200 H 0.72721 0.38675 0.09459 0.0
H2201 H 0.75601 0.3894 0.05026 0.0
H2202 H 0.73585 0.45653 0.02741 0.0
H2203 H 0.70778 0.4542 0.07274 0.0
C2204 C 0.78481 0.43737 0.9592 0.0
C2205 C 0.78482 0.41732 0.94058 0.0
C2206 C 0.77217 0.4395 0.98942 0.0
C2207 C 0.75922 0.42171 1.001 0.0
C2208 C 0.75746 0.40261 0.98028 0.0
C2209 C 0.77025 0.40039 0.95036 0.0
C2210 C 0.72969 0.40238 0.0812 0.0
C2211 C 0.71501 0.42004 0.08614 0.0
C2212 C 0.74589 0.40381 0.05556 0.0
C2213 C 0.74726 0.42277 0.03439 0.0
C2214 C 0.73484 0.44159 0.04302 0.0
C2215 C 0.71886 0.44029 0.06914 0.0
H2216 H 0.83325 0.52122 0.18183 0.0
H2217 H 0.88904 0.55818 0.2212 0.0
H2218 H 0.83169 0.50023 0.23601 0.0
H2219 H 0.88716 0.5375 0.27605 0.0
H2220 H 0.88912 0.46814 0.3366 0.0
H2221 H 0.89261 0.49948 0.29733 0.0
H2222 H 0.8216 0.50741 0.29761 0.0
H2223 H 0.81801 0.47541 0.33601 0.0
C2224 C 0.84545 0.52447 0.2019 0.0
C2225 C 0.86139 0.54102 0.19734 0.0
C2226 C 0.84423 0.51292 0.23319 0.0
C2227 C 0.85882 0.51786 0.26063 0.0
C2228 C 0.87558 0.53359 0.2554 0.0
C2229 C 0.8769 0.54509 0.22386 0.0
C2230 C 0.8743 0.47711 0.32934 0.0
C2231 C 0.85324 0.46883 0.33787 0.0
C2232 C 0.87633 0.49512 0.30695 0.0
C2233 C 0.8573 0.50511 0.29331 0.0
C2234 C 0.83647 0.49934 0.30693 0.0
C2235 C 0.83442 0.48119 0.32918 0.0
H2236 H 0.7285 0.60988 0.41401 0.0
H2237 H 0.70238 0.54617 0.4446 0.0
H2238 H 0.75798 0.60595 0.45679 0.0
H2239 H 0.73149 0.54256 0.48839 0.0
H2240 H 0.79952 0.54609 0.55112 0.0
H2241 H 0.77224 0.54166 0.50446 0.0
H2242 H 0.75042 0.60898 0.52083 0.0
H2243 H 0.77795 0.61355 0.5665 0.0
C2244 C 0.72957 0.59472 0.42907 0.0
C2245 C 0.7131 0.57853 0.42666 0.0
C2246 C 0.74619 0.59258 0.4538 0.0
C2247 C 0.74627 0.5744 0.47672 0.0
C2248 C 0.73151 0.55685 0.47127 0.0
C2249 C 0.715 0.55886 0.44607 0.0
C2250 C 0.7883 0.55962 0.54549 0.0
C2251 C 0.79086 0.58026 0.56184 0.0
C2252 C 0.77293 0.55715 0.51863 0.0
C2253 C 0.76 0.57528 0.5083 0.0
C2254 C 0.76089 0.59504 0.5275 0.0
C2255 C 0.77632 0.59757 0.55394 0.0
H2256 H 0.3046 0.55349 0.29342 0.0
H2257 H 0.37194 0.53143 0.30859 0.0
H2258 H 0.30103 0.52891 0.24342 0.0
H2259 H 0.36809 0.50624 0.25958 0.0
H2260 H 0.36818 0.47844 0.1579 0.0
H2261 H 0.36582 0.51024 0.19675 0.0
H2262 H 0.29981 0.49035 0.22711 0.0
H2263 H 0.30181 0.45932 0.18688 0.0
C2264 C 0.31839 0.54287 0.28671 0.0
C2265 C 0.33862 0.54436 0.3046 0.0
C2266 C 0.3164 0.52902 0.25789 0.0
C2267 C 0.33452 0.51631 0.24696 0.0
C2268 C 0.35415 0.51659 0.26657 0.0
C2269 C 0.35624 0.53063 0.29501 0.0
C2270 C 0.35284 0.48155 0.17172 0.0
C2271 C 0.33538 0.46638 0.17027 0.0
C2272 C 0.35157 0.49949 0.19422 0.0
C2273 C 0.33303 0.50204 0.216 0.0
C2274 C 0.31439 0.4886 0.21089 0.0
C2275 C 0.3155 0.47089 0.18777 0.0
H2276 H 0.30042 0.55126 0.95943 0.0
H2277 H 0.27888 0.61912 0.94819 0.0
H2278 H 0.27327 0.54565 0.00594 0.0
H2279 H 0.25141 0.61335 0.99371 0.0
H2280 H 0.22637 0.61077 0.09852 0.0
H2281 H 0.25695 0.60873 0.05719 0.0
H2282 H 0.23313 0.54533 0.02103 0.0
H2283 H 0.20306 0.54699 0.06352 0.0
C2284 C 0.28932 0.5647 0.96604 0.0
C2285 C 0.29181 0.58572 0.95076 0.0
C2286 C 0.274 0.56154 0.99282 0.0
C2287 C 0.26099 0.57933 0.00419 0.0
C2288 C 0.26196 0.59963 0.98632 0.0
C2289 C 0.27736 0.60285 0.95994 0.0
C2290 C 0.2283 0.596 0.08276 0.0
C2291 C 0.21236 0.57922 0.08353 0.0
C2292 C 0.24553 0.59495 0.05886 0.0
C2293 C 0.24668 0.57732 0.03507 0.0
C2294 C 0.23237 0.5592 0.03887 0.0
C2295 C 0.21529 0.56009 0.06329 0.0
H2296 H 0.11261 0.46956 0.82999 0.0
H2297 H 0.18297 0.47102 0.84994 0.0
H2298 H 0.11551 0.50348 0.79735 0.0
H2299 H 0.18579 0.50594 0.81837 0.0
H2300 H 0.18576 0.53143 0.70325 0.0
H2301 H 0.18469 0.50913 0.7564 0.0
H2302 H 0.12295 0.54032 0.78575 0.0
H2303 H 0.12315 0.56091 0.73152 0.0
C2304 C 0.12859 0.47762 0.82851 0.0
C2305 C 0.14773 0.46719 0.84098 0.0
C2306 C 0.13026 0.49729 0.81002 0.0
C2307 C 0.15108 0.50697 0.80417 0.0
C2308 C 0.16967 0.49835 0.82144 0.0
C2309 C 0.16802 0.47847 0.83974 0.0
C2310 C 0.17191 0.5332 0.72101 0.0
C2311 C 0.15424 0.54723 0.71289 0.0
C2312 C 0.17149 0.52089 0.75182 0.0
C2313 C 0.15367 0.52297 0.77533 0.0
C2314 C 0.13665 0.538 0.76789 0.0
C2315 C 0.13671 0.54966 0.73668 0.0
H2316 H 0.20833 0.35385 0.42393 0.0
H2317 H 0.22252 0.42305 0.40491 0.0
H2318 H 0.24246 0.35033 0.45637 0.0
H2319 H 0.25723 0.41922 0.43643 0.0
H2320 H 0.28245 0.41526 0.54902 0.0
H2321 H 0.25629 0.41543 0.50097 0.0
H2322 H 0.28214 0.35279 0.46481 0.0
H2323 H 0.30778 0.35211 0.51345 0.0
C2324 C 0.21918 0.36809 0.42552 0.0
C2325 C 0.21238 0.38901 0.41359 0.0
C2326 C 0.2388 0.36601 0.4439 0.0
C2327 C 0.25184 0.38477 0.45 0.0
C2328 C 0.24688 0.40475 0.43297 0.0
C2329 C 0.22714 0.40688 0.41475 0.0
C2330 C 0.28231 0.40136 0.53118 0.0
C2331 C 0.29725 0.38379 0.53486 0.0
C2332 C 0.2677 0.40168 0.50327 0.0
C2333 C 0.26787 0.38449 0.47861 0.0
C2334 C 0.28198 0.36638 0.48324 0.0
C2335 C 0.29648 0.36595 0.51129 0.0
H2336 H 0.10787 0.0947 0.04856 0.0
H2337 H 0.1586 0.14301 0.02583 0.0
H2338 H 0.10959 0.1046 0.11023 0.0
H2339 H 0.1599 0.15327 0.08717 0.0
H2340 H 0.1748 0.14497 0.20526 0.0
H2341 H 0.17209 0.13926 0.14239 0.0
H2342 H 0.10113 0.1332 0.15149 0.0
H2343 H 0.10389 0.1384 0.21432 0.0
C2344 C 0.11923 0.10756 0.05661 0.0
C2345 C 0.13312 0.11796 0.03211 0.0
C2346 C 0.12014 0.11337 0.09201 0.0
C2347 C 0.13489 0.12979 0.10384 0.0
C2348 C 0.14856 0.14035 0.07921 0.0
C2349 C 0.14771 0.1345 0.0439 0.0
C2350 C 0.15858 0.14292 0.19377 0.0
C2351 C 0.1396 0.14206 0.21499 0.0
C2352 C 0.15701 0.13958 0.15763 0.0
C2353 C 0.1364 0.13541 0.14178 0.0
C2354 C 0.11733 0.13581 0.16281 0.0
C2355 C 0.1189 0.13905 0.19888 0.0
H2356 H 0.1624 0.87373 0.46713 0.0
H2357 H 0.09724 0.90222 0.4561 0.0
H2358 H 0.16496 0.86943 0.40423 0.0
H2359 H 0.09951 0.89725 0.39294 0.0
H2360 H 0.15651 0.84731 0.29175 0.0
H2361 H 0.15174 0.84939 0.35502 0.0
H2362 H 0.1179 0.91197 0.34336 0.0
H2363 H 0.12201 0.90955 0.28051 0.0
C2364 C 0.14846 0.87886 0.45131 0.0
C2365 C 0.12958 0.88836 0.46679 0.0
C2366 C 0.14989 0.87624 0.41511 0.0
C2367 C 0.13244 0.88291 0.39328 0.0
C2368 C 0.11343 0.89219 0.4088 0.0
C2369 C 0.11206 0.89497 0.44508 0.0
C2370 C 0.14794 0.86143 0.30271 0.0
C2371 C 0.13968 0.87824 0.2809 0.0
C2372 C 0.1453 0.86271 0.33905 0.0
C2373 C 0.13443 0.88088 0.3545 0.0
C2374 C 0.12602 0.89754 0.33256 0.0
C2375 C 0.12854 0.8962 0.29635 0.0
H2376 H 0.34842 0.85211 0.70814 0.0
H2377 H 0.37136 0.91949 0.71904 0.0
H2378 H 0.35278 0.85493 0.64495 0.0
H2379 H 0.3751 0.9225 0.65598 0.0
H2380 H 0.39706 0.91499 0.5423 0.0
H2381 H 0.39582 0.91064 0.60579 0.0
H2382 H 0.33562 0.87258 0.59647 0.0
H2383 H 0.33717 0.87636 0.53354 0.0
C2384 C 0.35436 0.86753 0.69709 0.0
C2385 C 0.35955 0.88553 0.71876 0.0
C2386 C 0.35677 0.8692 0.6608 0.0
C2387 C 0.36425 0.88898 0.6452 0.0
C2388 C 0.36964 0.9069 0.66697 0.0
C2389 C 0.36737 0.90518 0.70323 0.0
C2390 C 0.38364 0.90562 0.55383 0.0
C2391 C 0.36727 0.89602 0.53266 0.0
C2392 C 0.38284 0.90321 0.59027 0.0
C2393 C 0.36564 0.89118 0.60639 0.0
C2394 C 0.34935 0.88159 0.58511 0.0
C2395 C 0.35018 0.88392 0.54885 0.0
H2396 H 0.36964 0.14836 0.79264 0.0
H2397 H 0.34601 0.0809 0.79652 0.0
H2398 H 0.37656 0.14716 0.85567 0.0
H2399 H 0.3532 0.0797 0.85916 0.0
H2400 H 0.35481 0.14072 0.97423 0.0
H2401 H 0.35197 0.1434 0.91075 0.0
H2402 H 0.38693 0.08148 0.90036 0.0
H2403 H 0.39004 0.07886 0.96398 0.0
C2404 C 0.36599 0.13328 0.80687 0.0
C2405 C 0.35718 0.11476 0.78954 0.0
C2406 C 0.36992 0.13262 0.84292 0.0
C2407 C 0.36554 0.1133 0.86225 0.0
C2408 C 0.35697 0.09473 0.84487 0.0
C2409 C 0.35268 0.09551 0.80903 0.0
C2410 C 0.36216 0.12781 0.95842 0.0
C2411 C 0.37261 0.10954 0.97419 0.0
C2412 C 0.3606 0.12941 0.92207 0.0
C2413 C 0.36912 0.1126 0.90064 0.0
C2414 C 0.38006 0.0946 0.91629 0.0
C2415 C 0.38198 0.09318 0.95268 0.0
H2416 H 0.88172 0.89608 0.78402 0.0
H2417 H 0.83456 0.8426 0.79291 0.0
H2418 H 0.88484 0.89772 0.84677 0.0
H2419 H 0.83837 0.84369 0.85655 0.0
H2420 H 0.83081 0.87171 0.96832 0.0
H2421 H 0.82888 0.86577 0.90563 0.0
H2422 H 0.89866 0.88036 0.89685 0.0
H2423 H 0.90033 0.88723 0.95948 0.0
C2424 C 0.87218 0.88438 0.79935 0.0
C2425 C 0.85782 0.8692 0.7832 0.0
C2426 C 0.87415 0.88522 0.83559 0.0
C2427 C 0.86199 0.87077 0.85703 0.0
C2428 C 0.84783 0.85528 0.84096 0.0
C2429 C 0.84572 0.85454 0.80443 0.0
C2430 C 0.84581 0.87355 0.95306 0.0
C2431 C 0.86571 0.88017 0.96897 0.0
C2432 C 0.84472 0.86996 0.91702 0.0
C2433 C 0.86356 0.87269 0.89588 0.0
C2434 C 0.88366 0.87856 0.91205 0.0
C2435 C 0.88468 0.88241 0.94806 0.0
H2436 H 0.89438 0.13947 0.71486 0.0
H2437 H 0.82308 0.14027 0.70901 0.0
H2438 H 0.89658 0.134 0.65203 0.0
H2439 H 0.82521 0.13409 0.64614 0.0
H2440 H 0.83675 0.13846 0.52906 0.0
H2441 H 0.83501 0.14821 0.5904 0.0
H2442 H 0.89026 0.10485 0.6114 0.0
H2443 H 0.8925 0.0956 0.54945 0.0
C2444 C 0.87915 0.13877 0.70005 0.0
C2445 C 0.85854 0.14028 0.71701 0.0
C2446 C 0.88041 0.13534 0.66402 0.0
C2447 C 0.8611 0.13314 0.64393 0.0
C2448 C 0.84047 0.13581 0.66064 0.0
C2449 C 0.83921 0.13944 0.69674 0.0
C2450 C 0.84862 0.13098 0.54665 0.0
C2451 C 0.86486 0.11623 0.53414 0.0
C2452 C 0.8475 0.13652 0.58201 0.0
C2453 C 0.8625 0.12741 0.60604 0.0
C2454 C 0.87867 0.11254 0.59361 0.0
C2455 C 0.87987 0.10706 0.55808 0.0
H2456 H 0.65453 0.12832 0.47483 0.0
H2457 H 0.59464 0.09003 0.46314 0.0
H2458 H 0.65678 0.13312 0.41233 0.0
H2459 H 0.59648 0.09557 0.39981 0.0
H2460 H 0.62246 0.08749 0.28726 0.0
H2461 H 0.61693 0.08442 0.34988 0.0
H2462 H 0.64194 0.15089 0.36313 0.0
H2463 H 0.64826 0.15363 0.30031 0.0
C2464 C 0.6416 0.1211 0.45897 0.0
C2465 C 0.62438 0.1087 0.47429 0.0
C2466 C 0.64282 0.12406 0.42286 0.0
C2467 C 0.62679 0.11488 0.40068 0.0
C2468 C 0.60932 0.1027 0.41594 0.0
C2469 C 0.60816 0.09961 0.45231 0.0
C2470 C 0.62673 0.10154 0.30344 0.0
C2471 C 0.63598 0.1208 0.2886 0.0
C2472 C 0.62336 0.09981 0.33951 0.0
C2473 C 0.62898 0.11735 0.36189 0.0
C2474 C 0.63776 0.13684 0.34692 0.0
C2475 C 0.64131 0.13849 0.3108 0.0
H2476 H 0.65811 0.87619 0.0323 0.0
H2477 H 0.5932 0.90545 0.04211 0.0
H2478 H 0.65914 0.86963 0.09462 0.0
H2479 H 0.59387 0.89806 0.10489 0.0
H2480 H 0.65107 0.84657 0.20544 0.0
H2481 H 0.6455 0.84896 0.14236 0.0
H2482 H 0.61143 0.91127 0.15576 0.0
H2483 H 0.6162 0.90847 0.21833 0.0
C2484 C 0.64385 0.88097 0.04769 0.0
C2485 C 0.62558 0.89149 0.03206 0.0
C2486 C 0.64439 0.877 0.08359 0.0
C2487 C 0.62659 0.88323 0.10504 0.0
C2488 C 0.60804 0.89331 0.08933 0.0
C2489 C 0.60758 0.89747 0.05328 0.0
C2490 C 0.64219 0.86062 0.19491 0.0
C2491 C 0.63421 0.87733 0.21707 0.0
C2492 C 0.63909 0.8621 0.15868 0.0
C2493 C 0.62809 0.8804 0.14374 0.0
C2494 C 0.61965 0.89676 0.16612 0.0
C2495 C 0.62258 0.8952 0.20219 0.0
H2496 H 0.62415 0.59442 0.7186 0.0
H2497 H 0.66095 0.65534 0.70731 0.0
H2498 H 0.62038 0.59192 0.65584 0.0
H2499 H 0.65648 0.65322 0.64393 0.0
H2500 H 0.60055 0.60069 0.54377 0.0
H2501 H 0.60262 0.60698 0.6065 0.0
H2502 H 0.66884 0.63283 0.5944 0.0
H2503 H 0.66643 0.62729 0.53163 0.0
C2504 C 0.63125 0.60749 0.70275 0.0
C2505 C 0.6429 0.62511 0.71819 0.0
C2506 C 0.62891 0.60612 0.66656 0.0
C2507 C 0.63799 0.62241 0.64455 0.0
C2508 C 0.64947 0.64021 0.65995 0.0
C2509 C 0.65195 0.64151 0.69635 0.0
C2510 C 0.61549 0.60784 0.55446 0.0
C2511 C 0.63333 0.61337 0.53257 0.0
C2512 C 0.61676 0.61135 0.59054 0.0
C2513 C 0.63599 0.62028 0.60578 0.0
C2514 C 0.65365 0.62621 0.58373 0.0
C2515 C 0.65231 0.62287 0.54763 0.0
H2516 H 0.62507 0.41147 0.79023 0.0
H2517 H 0.65755 0.34825 0.80288 0.0
H2518 H 0.62181 0.41503 0.85296 0.0
H2519 H 0.65361 0.35151 0.86626 0.0
H2520 H 0.66527 0.37748 0.97766 0.0
H2521 H 0.66751 0.37183 0.91496 0.0
H2522 H 0.60286 0.4013 0.90273 0.0
H2523 H 0.60093 0.40763 0.96555 0.0
C2524 C 0.63134 0.39815 0.80638 0.0
C2525 C 0.64157 0.37951 0.79134 0.0
C2526 C 0.6293 0.40015 0.84254 0.0
C2527 C 0.63727 0.38351 0.86489 0.0
C2528 C 0.64747 0.36479 0.84992 0.0
C2529 C 0.64965 0.36284 0.81355 0.0
C2530 C 0.65145 0.38272 0.96168 0.0
C2531 C 0.63294 0.39314 0.97676 0.0
C2532 C 0.6527 0.3793 0.92562 0.0
C2533 C 0.63541 0.38611 0.90358 0.0
C2534 C 0.61669 0.39616 0.91875 0.0
C2535 C 0.6155 0.39971 0.95485 0.0
H2536 H 0.82884 0.3789 0.03452 0.0
H2537 H 0.89448 0.40639 0.04484 0.0
H2538 H 0.82644 0.37461 0.09749 0.0
H2539 H 0.89236 0.4014 0.10798 0.0
H2540 H 0.87104 0.41444 0.21994 0.0
H2541 H 0.8741 0.41684 0.15703 0.0
H2542 H 0.83967 0.35449 0.14704 0.0
H2543 H 0.83596 0.3524 0.21059 0.0
C2544 C 0.84289 0.38383 0.05019 0.0
C2545 C 0.86185 0.39309 0.03453 0.0
C2546 C 0.84155 0.3812 0.0864 0.0
C2547 C 0.85917 0.38764 0.108 0.0
C2548 C 0.87829 0.39658 0.09228 0.0
C2549 C 0.87958 0.39936 0.05601 0.0
C2550 C 0.86412 0.40114 0.20448 0.0
C2551 C 0.85325 0.38318 0.22048 0.0
C2552 C 0.86605 0.40247 0.16823 0.0
C2553 C 0.85731 0.3858 0.14677 0.0
C2554 C 0.84642 0.36776 0.1627 0.0
C2555 C 0.84436 0.3665 0.19916 0.0
H2556 H 0.87314 0.64503 0.2909 0.0
H2557 H 0.85336 0.57626 0.28985 0.0
H2558 H 0.88138 0.64215 0.35303 0.0
H2559 H 0.86149 0.5735 0.35213 0.0
H2560 H 0.86135 0.63489 0.46928 0.0
H2561 H 0.85868 0.63755 0.40613 0.0
H2562 H 0.89257 0.57498 0.39582 0.0
H2563 H 0.89519 0.57221 0.45961 0.0
C2564 C 0.87057 0.62929 0.30386 0.0
C2565 C 0.86236 0.61095 0.2854 0.0
C2566 C 0.87527 0.62765 0.3395 0.0
C2567 C 0.87205 0.60762 0.35752 0.0
C2568 C 0.86435 0.58911 0.33893 0.0
C2569 C 0.85948 0.59078 0.3033 0.0
C2570 C 0.86849 0.62178 0.45363 0.0
C2571 C 0.87843 0.60328 0.46951 0.0
C2572 C 0.86705 0.62338 0.41736 0.0
C2573 C 0.87535 0.60645 0.39596 0.0
C2574 C 0.88585 0.58819 0.4117 0.0
C2575 C 0.88753 0.5867 0.44816 0.0
H2576 H 0.34165 0.35723 0.29754 0.0
H2577 H 0.39013 0.40827 0.27764 0.0
H2578 H 0.35056 0.35856 0.35963 0.0
H2579 H 0.39949 0.40911 0.33928 0.0
H2580 H 0.3908 0.42255 0.45758 0.0
H2581 H 0.38548 0.42068 0.39445 0.0
H2582 H 0.37829 0.34964 0.40142 0.0
H2583 H 0.38297 0.35163 0.46437 0.0
C2584 C 0.35433 0.36858 0.30631 0.0
C2585 C 0.36507 0.38267 0.2825 0.0
C2586 C 0.35958 0.36927 0.34195 0.0
C2587 C 0.37581 0.38395 0.35464 0.0
C2588 C 0.38668 0.39785 0.33069 0.0
C2589 C 0.38136 0.39725 0.29519 0.0
C2590 C 0.38857 0.40651 0.44551 0.0
C2591 C 0.38722 0.38728 0.46608 0.0
C2592 C 0.38545 0.4054 0.40926 0.0
C2593 C 0.38107 0.38502 0.39274 0.0
C2594 C 0.38101 0.36569 0.41322 0.0
C2595 C 0.38397 0.36681 0.44935 0.0
H2596 H 0.33295 0.64393 0.21064 0.0
H2597 H 0.39602 0.61247 0.22878 0.0
H2598 H 0.33888 0.64102 0.14778 0.0
H2599 H 0.40239 0.61032 0.16622 0.0
H2600 H 0.39365 0.5845 0.05422 0.0
H2601 H 0.39056 0.59027 0.11708 0.0
H2602 H 0.35882 0.65333 0.09866 0.0
H2603 H 0.36114 0.64709 0.03609 0.0
C2604 C 0.34827 0.63681 0.20122 0.0
C2605 C 0.36392 0.62833 0.22476 0.0
C2606 C 0.35175 0.63517 0.1651 0.0
C2607 C 0.37109 0.62524 0.15166 0.0
C2608 C 0.38708 0.61758 0.17539 0.0
C2609 C 0.38349 0.61899 0.21138 0.0
C2610 C 0.38627 0.5997 0.06365 0.0
C2611 C 0.37753 0.61524 0.04011 0.0
C2612 C 0.38452 0.60308 0.09976 0.0
C2613 C 0.37423 0.62223 0.1132 0.0
C2614 C 0.36635 0.63816 0.08948 0.0
C2615 C 0.36786 0.63465 0.05349 0.0
H2616 H 0.12322 0.58639 0.79038 0.0
H2617 H 0.15632 0.64918 0.80388 0.0
H2618 H 0.11859 0.58314 0.85312 0.0
H2619 H 0.15096 0.64629 0.86691 0.0
H2620 H 0.09741 0.59144 0.96651 0.0
H2621 H 0.09962 0.59699 0.9033 0.0
H2622 H 0.1646 0.62577 0.91515 0.0
H2623 H 0.16214 0.62091 0.97776 0.0
C2624 C 0.12937 0.59965 0.8067 0.0
C2625 C 0.1403 0.61802 0.79195 0.0
C2626 C 0.12651 0.59785 0.84281 0.0
C2627 C 0.13437 0.61443 0.86528 0.0
C2628 C 0.14498 0.63301 0.8505 0.0
C2629 C 0.14798 0.63474 0.8143 0.0
C2630 C 0.11209 0.59905 0.95559 0.0
C2631 C 0.12954 0.60572 0.97737 0.0
C2632 C 0.11343 0.60215 0.91931 0.0
C2633 C 0.1323 0.61189 0.90397 0.0
C2634 C 0.14963 0.61862 0.92589 0.0
C2635 C 0.14826 0.61564 0.96197 0.0
H2636 H 0.1498 0.35042 0.70993 0.0
H2637 H 0.11796 0.41398 0.72206 0.0
H2638 H 0.14512 0.35314 0.64675 0.0
H2639 H 0.11402 0.41706 0.65922 0.0
H2640 H 0.09438 0.40921 0.54495 0.0
H2641 H 0.09574 0.40421 0.60836 0.0
H2642 H 0.15961 0.37272 0.59855 0.0
H2643 H 0.15792 0.37701 0.5358 0.0
C2644 C 0.14186 0.36498 0.69918 0.0
C2645 C 0.13434 0.38196 0.72122 0.0
C2646 C 0.13926 0.36663 0.66287 0.0
C2647 C 0.12925 0.3854 0.64762 0.0
C2648 C 0.12149 0.4022 0.66981 0.0
C2649 C 0.12393 0.40048 0.70602 0.0
C2650 C 0.10866 0.4012 0.5564 0.0
C2651 C 0.12597 0.39349 0.53513 0.0
C2652 C 0.10951 0.39838 0.59281 0.0
C2653 C 0.12776 0.38791 0.6088 0.0
C2654 C 0.14505 0.38037 0.58737 0.0
C2655 C 0.14413 0.38304 0.55118 0.0
loop_
_geom_bond_atom_site_label_1
_geom_bond_atom_site_label_2
_geom_bond_distance
_geom_bond_site_symmetry_2
_ccdc_geom_bond_type
O0 Zn1 1.953 . S
O0 C16 1.225 . S
Zn1 O0 1.953 . S
Zn1 O2 1.949 . S
Zn1 O8 1.919 . S
Zn1 O13 1.924 . S
O2 Zn1 1.949 . S
O2 Zn3 1.923 . S
O2 Zn4 1.950 . S
O2 Zn5 1.945 . S
Zn3 O2 1.923 . S
Zn3 O6 1.933 . S
Zn3 O9 1.941 . S
Zn3 O10 1.965 . S
Zn4 O2 1.950 . S
Zn4 O11 1.938 . S
Zn4 O12 1.906 . S
Zn4 O22 1.953 . S
Zn5 O2 1.945 . S
Zn5 O7 1.932 . S
Zn5 O14 1.977 . S
Zn5 O15 1.910 . S
O6 Zn3 1.933 . S
O6 C17 1.226 . S
O7 Zn5 1.932 . S
O7 C17 1.307 . S
O8 Zn1 1.919 . S
O8 C19 1.253 . S
O9 Zn3 1.941 . S
O9 C19 1.283 . S
O10 Zn3 1.965 . S
O10 C18 1.303 . S
O11 Zn4 1.938 . S
O11 C18 1.247 . S
O12 Zn4 1.906 . S
O12 C20 1.304 . S
O13 Zn1 1.924 . S
O13 C21 1.311 . S
O14 Zn5 1.977 . S
O14 C20 1.272 . S
O15 Zn5 1.910 . S
O15 C21 1.231 . S
C16 O0 1.225 . S
C16 O22 1.298 . S
C17 O6 1.226 . S
C17 O7 1.307 . S
C18 O10 1.303 . S
C18 O11 1.247 . S
C19 O8 1.253 . S
C19 O9 1.283 . S
C20 O12 1.304 . S
C20 O14 1.272 . S
C21 O13 1.311 . S
C21 O15 1.231 . S
O22 Zn4 1.953 . S
O22 C16 1.298 . S
O23 Zn24 1.953 . S
O23 C39 1.225 . S
Zn24 O23 1.953 . S
Zn24 O25 1.949 . S
Zn24 O31 1.919 . S
Zn24 O36 1.924 . S
O25 Zn24 1.949 . S
O25 Zn26 1.923 . S
O25 Zn27 1.950 . S
O25 Zn28 1.945 . S
Zn26 O25 1.923 . S
Zn26 O29 1.933 . S
Zn26 O32 1.941 . S
Zn26 O33 1.965 . S
Zn27 O25 1.950 . S
Zn27 O34 1.938 . S
Zn27 O35 1.906 . S
Zn27 O45 1.953 . S
Zn28 O25 1.945 . S
Zn28 O30 1.932 . S
Zn28 O37 1.977 . S
Zn28 O38 1.910 . S
O29 Zn26 1.933 . S
O29 C40 1.226 . S
O30 Zn28 1.932 . S
O30 C40 1.307 . S
O31 Zn24 1.919 . S
O31 C42 1.253 . S
O32 Zn26 1.941 . S
O32 C42 1.283 . S
O33 Zn26 1.965 . S
O33 C41 1.303 . S
O34 Zn27 1.938 . S
O34 C41 1.247 . S
O35 Zn27 1.906 . S
O35 C43 1.304 . S
O36 Zn24 1.924 . S
O36 C44 1.311 . S
O37 Zn28 1.977 . S
O37 C43 1.272 . S
O38 Zn28 1.910 . S
O38 C44 1.231 . S
C39 O23 1.225 . S
C39 O45 1.298 . S
C40 O29 1.226 . S
C40 O30 1.307 . S
C41 O33 1.303 . S
C41 O34 1.247 . S
C42 O31 1.253 . S
C42 O32 1.283 . S
C43 O35 1.304 . S
C43 O37 1.272 . S
C44 O36 1.311 . S
C44 O38 1.231 . S
O45 Zn27 1.953 . S
O45 C39 1.298 . S
O46 Zn47 1.953 . S
O46 C62 1.225 . S
Zn47 O46 1.953 . S
Zn47 O48 1.949 . S
Zn47 O54 1.919 . S
Zn47 O59 1.924 . S
O48 Zn47 1.949 . S
O48 Zn49 1.923 . S
O48 Zn50 1.950 . S
O48 Zn51 1.945 . S
Zn49 O48 1.923 . S
Zn49 O52 1.933 . S
Zn49 O55 1.941 . S
Zn49 O56 1.965 . S
Zn50 O48 1.950 . S
Zn50 O57 1.938 . S
Zn50 O58 1.906 . S
Zn50 O68 1.953 . S
Zn51 O48 1.945 . S
Zn51 O53 1.932 . S
Zn51 O60 1.977 . S
Zn51 O61 1.910 . S
O52 Zn49 1.933 . S
O52 C63 1.226 . S
O53 Zn51 1.932 . S
O53 C63 1.307 . S
O54 Zn47 1.919 . S
O54 C65 1.253 . S
O55 Zn49 1.941 . S
O55 C65 1.283 . S
O56 Zn49 1.965 . S
O56 C64 1.303 . S
O57 Zn50 1.938 . S
O57 C64 1.247 . S
O58 Zn50 1.906 . S
O58 C66 1.304 . S
O59 Zn47 1.924 . S
O59 C67 1.311 . S
O60 Zn51 1.977 . S
O60 C66 1.272 . S
O61 Zn51 1.910 . S
O61 C67 1.231 . S
C62 O46 1.225 . S
C62 O68 1.298 . S
C63 O52 1.226 . S
C63 O53 1.307 . S
C64 O56 1.303 . S
C64 O57 1.247 . S
C65 O54 1.253 . S
C65 O55 1.283 . S
C66 O58 1.304 . S
C66 O60 1.272 . S
C67 O59 1.311 . S
C67 O61 1.231 . S
O68 Zn50 1.953 . S
O68 C62 1.298 . S
O69 Zn70 1.953 . S
O69 C85 1.225 . S
Zn70 O69 1.953 . S
Zn70 O71 1.949 . S
Zn70 O77 1.919 . S
Zn70 O82 1.924 . S
O71 Zn70 1.949 . S
O71 Zn72 1.923 . S
O71 Zn73 1.950 . S
O71 Zn74 1.945 . S
Zn72 O71 1.923 . S
Zn72 O75 1.933 . S
Zn72 O78 1.941 . S
Zn72 O79 1.965 . S
Zn73 O71 1.950 . S
Zn73 O80 1.938 . S
Zn73 O81 1.906 . S
Zn73 O91 1.953 . S
Zn74 O71 1.945 . S
Zn74 O76 1.932 . S
Zn74 O83 1.977 . S
Zn74 O84 1.910 . S
O75 Zn72 1.933 . S
O75 C86 1.226 . S
O76 Zn74 1.932 . S
O76 C86 1.307 . S
O77 Zn70 1.919 . S
O77 C88 1.253 . S
O78 Zn72 1.941 . S
O78 C88 1.283 . S
O79 Zn72 1.965 . S
O79 C87 1.303 . S
O80 Zn73 1.938 . S
O80 C87 1.247 . S
O81 Zn73 1.906 . S
O81 C89 1.304 . S
O82 Zn70 1.924 . S
O82 C90 1.311 1_554 S
O83 Zn74 1.977 . S
O83 C89 1.272 . S
O84 Zn74 1.910 . S
O84 C90 1.231 1_554 S
C85 O69 1.225 . S
C85 O91 1.298 . S
C86 O75 1.226 . S
C86 O76 1.307 . S
C87 O79 1.303 . S
C87 O80 1.247 . S
C88 O77 1.253 . S
C88 O78 1.283 . S
C89 O81 1.304 . S
C89 O83 1.272 . S
C90 O82 1.311 1_556 S
C90 O84 1.231 1_556 S
O91 Zn73 1.953 . S
O91 C85 1.298 . S
O92 Zn93 1.953 . S
O92 C108 1.225 . S
Zn93 O92 1.953 . S
Zn93 O94 1.949 . S
Zn93 O100 1.919 . S
Zn93 O105 1.924 . S
O94 Zn93 1.949 . S
O94 Zn95 1.923 . S
O94 Zn96 1.950 . S
O94 Zn97 1.945 . S
Zn95 O94 1.923 . S
Zn95 O98 1.933 . S
Zn95 O101 1.941 . S
Zn95 O102 1.965 . S
Zn96 O94 1.950 . S
Zn96 O103 1.938 . S
Zn96 O104 1.906 . S
Zn96 O114 1.953 . S
Zn97 O94 1.945 . S
Zn97 O99 1.932 . S
Zn97 O106 1.977 . S
Zn97 O107 1.910 . S
O98 Zn95 1.933 . S
O98 C109 1.226 . S
O99 Zn97 1.932 . S
O99 C109 1.307 . S
O100 Zn93 1.919 . S
O100 C111 1.253 . S
O101 Zn95 1.941 . S
O101 C111 1.283 . S
O102 Zn95 1.965 . S
O102 C110 1.303 . S
O103 Zn96 1.938 . S
O103 C110 1.247 . S
O104 Zn96 1.906 . S
O104 C112 1.304 . S
O105 Zn93 1.924 . S
O105 C113 1.311 . S
O106 Zn97 1.977 . S
O106 C112 1.272 . S
O107 Zn97 1.910 . S
O107 C113 1.231 . S
C108 O92 1.225 . S
C108 O114 1.298 . S
C109 O98 1.226 . S
C109 O99 1.307 . S
C110 O102 1.303 . S
C110 O103 1.247 . S
C111 O100 1.253 . S
C111 O101 1.283 . S
C112 O104 1.304 . S
C112 O106 1.272 . S
C113 O105 1.311 . S
C113 O107 1.231 . S
O114 Zn96 1.953 . S
O114 C108 1.298 . S
O115 Zn116 1.953 . S
O115 C131 1.225 . S
Zn116 O115 1.953 . S
Zn116 O117 1.949 . S
Zn116 O123 1.919 . S
Zn116 O128 1.924 . S
O117 Zn116 1.949 . S
O117 Zn118 1.923 . S
O117 Zn119 1.950 . S
O117 Zn120 1.945 . S
Zn118 O117 1.923 . S
Zn118 O121 1.933 . S
Zn118 O124 1.941 . S
Zn118 O125 1.965 . S
Zn119 O117 1.950 . S
Zn119 O126 1.938 . S
Zn119 O127 1.906 . S
Zn119 O137 1.953 . S
Zn120 O117 1.945 . S
Zn120 O122 1.932 . S
Zn120 O129 1.977 . S
Zn120 O130 1.910 . S
O121 Zn118 1.933 . S
O121 C132 1.226 . S
O122 Zn120 1.932 . S
O122 C132 1.307 . S
O123 Zn116 1.919 . S
O123 C134 1.253 . S
O124 Zn118 1.941 . S
O124 C134 1.283 . S
O125 Zn118 1.965 . S
O125 C133 1.303 . S
O126 Zn119 1.938 . S
O126 C133 1.247 . S
O127 Zn119 1.906 . S
O127 C135 1.304 . S
O128 Zn116 1.924 . S
O128 C136 1.311 . S
O129 Zn120 1.977 . S
O129 C135 1.272 . S
O130 Zn120 1.910 . S
O130 C136 1.231 . S
C131 O115 1.225 . S
C131 O137 1.298 . S
C132 O121 1.226 . S
C132 O122 1.307 . S
C133 O125 1.303 . S
C133 O126 1.247 . S
C134 O123 1.253 . S
C134 O124 1.283 . S
C135 O127 1.304 . S
C135 O129 1.272 . S
C136 O128 1.311 . S
C136 O130 1.231 . S
O137 Zn119 1.953 . S
O137 C131 1.298 . S
O138 Zn139 1.953 . S
O138 C154 1.225 . S
Zn139 O138 1.953 . S
Zn139 O140 1.949 . S
Zn139 O146 1.919 . S
Zn139 O151 1.924 . S
O140 Zn139 1.949 . S
O140 Zn141 1.923 . S
O140 Zn142 1.950 . S
O140 Zn143 1.945 . S
Zn141 O140 1.923 . S
Zn141 O144 1.933 . S
Zn141 O147 1.941 . S
Zn141 O148 1.965 . S
Zn142 O140 1.950 . S
Zn142 O149 1.938 . S
Zn142 O150 1.906 . S
Zn142 O160 1.953 . S
Zn143 O140 1.945 . S
Zn143 O145 1.932 . S
Zn143 O152 1.977 . S
Zn143 O153 1.910 . S
O144 Zn141 1.933 . S
O144 C155 1.226 . S
O145 Zn143 1.932 . S
O145 C155 1.307 . S
O146 Zn139 1.919 . S
O146 C157 1.253 . S
O147 Zn141 1.941 . S
O147 C157 1.283 . S
O148 Zn141 1.965 . S
O148 C156 1.303 . S
O149 Zn142 1.938 . S
O149 C156 1.247 . S
O150 Zn142 1.906 . S
O150 C158 1.304 . S
O151 Zn139 1.924 . S
O151 C159 1.311 . S
O152 Zn143 1.977 . S
O152 C158 1.272 . S
O153 Zn143 1.910 . S
O153 C159 1.231 . S
C154 O138 1.225 . S
C154 O160 1.298 . S
C155 O144 1.226 . S
C155 O145 1.307 . S
C156 O148 1.303 . S
C156 O149 1.247 . S
C157 O146 1.253 . S
C157 O147 1.283 . S
C158 O150 1.304 . S
C158 O152 1.272 . S
C159 O151 1.311 . S
C159 O153 1.231 . S
O160 Zn142 1.953 . S
O160 C154 1.298 . S
O161 Zn162 1.953 . S
O161 C177 1.225 . S
Zn162 O161 1.953 . S
Zn162 O163 1.949 . S
Zn162 O169 1.919 . S
Zn162 O174 1.924 . S
O163 Zn162 1.949 . S
O163 Zn164 1.923 . S
O163 Zn165 1.950 . S
O163 Zn166 1.945 . S
Zn164 O163 1.923 . S
Zn164 O167 1.933 . S
Zn164 O170 1.941 . S
Zn164 O171 1.965 . S
Zn165 O163 1.950 . S
Zn165 O172 1.938 . S
Zn165 O173 1.906 . S
Zn165 O183 1.953 . S
Zn166 O163 1.945 . S
Zn166 O168 1.932 . S
Zn166 O175 1.977 . S
Zn166 O176 1.910 . S
O167 Zn164 1.933 . S
O167 C178 1.226 . S
O168 Zn166 1.932 . S
O168 C178 1.307 . S
O169 Zn162 1.919 . S
O169 C180 1.253 . S
O170 Zn164 1.941 . S
O170 C180 1.283 . S
O171 Zn164 1.965 . S
O171 C179 1.303 1_556 S
O172 Zn165 1.938 . S
O172 C179 1.247 1_556 S
O173 Zn165 1.906 . S
O173 C181 1.304 . S
O174 Zn162 1.924 . S
O174 C182 1.311 . S
O175 Zn166 1.977 . S
O175 C181 1.272 . S
O176 Zn166 1.910 . S
O176 C182 1.231 . S
C177 O161 1.225 . S
C177 O183 1.298 . S
C178 O167 1.226 . S
C178 O168 1.307 . S
C179 O171 1.303 1_554 S
C179 O172 1.247 1_554 S
C180 O169 1.253 . S
C180 O170 1.283 . S
C181 O173 1.304 . S
C181 O175 1.272 . S
C182 O174 1.311 . S
C182 O176 1.231 . S
O183 Zn165 1.953 . S
O183 C177 1.298 . S
O184 Zn185 1.953 . S
O184 C200 1.225 . S
Zn185 O184 1.953 . S
Zn185 O186 1.949 . S
Zn185 O192 1.919 . S
Zn185 O197 1.924 . S
O186 Zn185 1.949 . S
O186 Zn187 1.923 . S
O186 Zn188 1.950 . S
O186 Zn189 1.945 . S
Zn187 O186 1.923 . S
Zn187 O190 1.933 . S
Zn187 O193 1.941 . S
Zn187 O194 1.965 . S
Zn188 O186 1.950 . S
Zn188 O195 1.938 . S
Zn188 O196 1.906 . S
Zn188 O206 1.953 . S
Zn189 O186 1.945 . S
Zn189 O191 1.932 . S
Zn189 O198 1.977 . S
Zn189 O199 1.910 . S
O190 Zn187 1.933 . S
O190 C201 1.226 . S
O191 Zn189 1.932 . S
O191 C201 1.307 . S
O192 Zn185 1.919 . S
O192 C203 1.253 . S
O193 Zn187 1.941 . S
O193 C203 1.283 . S
O194 Zn187 1.965 . S
O194 C202 1.303 . S
O195 Zn188 1.938 . S
O195 C202 1.247 . S
O196 Zn188 1.906 . S
O196 C204 1.304 . S
O197 Zn185 1.924 . S
O197 C205 1.311 . S
O198 Zn189 1.977 . S
O198 C204 1.272 . S
O199 Zn189 1.910 . S
O199 C205 1.231 . S
C200 O184 1.225 . S
C200 O206 1.298 . S
C201 O190 1.226 . S
C201 O191 1.307 . S
C202 O194 1.303 . S
C202 O195 1.247 . S
C203 O192 1.253 . S
C203 O193 1.283 . S
C204 O196 1.304 . S
C204 O198 1.272 . S
C205 O197 1.311 . S
C205 O199 1.231 . S
O206 Zn188 1.953 . S
O206 C200 1.298 . S
O207 Zn208 1.953 . S
O207 C223 1.225 . S
Zn208 O207 1.953 . S
Zn208 O209 1.949 . S
Zn208 O215 1.919 . S
Zn208 O220 1.924 . S
O209 Zn208 1.949 . S
O209 Zn210 1.923 . S
O209 Zn211 1.950 . S
O209 Zn212 1.945 . S
Zn210 O209 1.923 . S
Zn210 O213 1.933 . S
Zn210 O216 1.941 . S
Zn210 O217 1.965 . S
Zn211 O209 1.950 . S
Zn211 O218 1.938 . S
Zn211 O219 1.906 . S
Zn211 O229 1.953 . S
Zn212 O209 1.945 . S
Zn212 O214 1.932 . S
Zn212 O221 1.977 . S
Zn212 O222 1.910 . S
O213 Zn210 1.933 . S
O213 C224 1.226 . S
O214 Zn212 1.932 . S
O214 C224 1.307 . S
O215 Zn208 1.919 . S
O215 C226 1.253 . S
O216 Zn210 1.941 . S
O216 C226 1.283 . S
O217 Zn210 1.965 . S
O217 C225 1.303 . S
O218 Zn211 1.938 . S
O218 C225 1.247 . S
O219 Zn211 1.906 . S
O219 C227 1.304 . S
O220 Zn208 1.924 . S
O220 C228 1.311 . S
O221 Zn212 1.977 . S
O221 C227 1.272 . S
O222 Zn212 1.910 . S
O222 C228 1.231 . S
C223 O207 1.225 . S
C223 O229 1.298 . S
C224 O213 1.226 . S
C224 O214 1.307 . S
C225 O217 1.303 . S
C225 O218 1.247 . S
C226 O215 1.253 . S
C226 O216 1.283 . S
C227 O219 1.304 . S
C227 O221 1.272 . S
C228 O220 1.311 . S
C228 O222 1.231 . S
O229 Zn211 1.953 . S
O229 C223 1.298 . S
O230 Zn231 1.953 . S
O230 C246 1.225 . S
Zn231 O230 1.953 . S
Zn231 O232 1.949 . S
Zn231 O238 1.919 . S
Zn231 O243 1.924 . S
O232 Zn231 1.949 . S
O232 Zn233 1.923 . S
O232 Zn234 1.950 . S
O232 Zn235 1.945 . S
Zn233 O232 1.923 . S
Zn233 O236 1.933 . S
Zn233 O239 1.941 . S
Zn233 O240 1.965 . S
Zn234 O232 1.950 . S
Zn234 O241 1.938 . S
Zn234 O242 1.906 . S
Zn234 O252 1.953 . S
Zn235 O232 1.945 . S
Zn235 O237 1.932 . S
Zn235 O244 1.977 . S
Zn235 O245 1.910 . S
O236 Zn233 1.933 . S
O236 C247 1.226 . S
O237 Zn235 1.932 . S
O237 C247 1.307 . S
O238 Zn231 1.919 . S
O238 C249 1.253 . S
O239 Zn233 1.941 . S
O239 C249 1.283 . S
O240 Zn233 1.965 . S
O240 C248 1.303 . S
O241 Zn234 1.938 . S
O241 C248 1.247 . S
O242 Zn234 1.906 . S
O242 C250 1.304 . S
O243 Zn231 1.924 . S
O243 C251 1.311 . S
O244 Zn235 1.977 . S
O244 C250 1.272 . S
O245 Zn235 1.910 . S
O245 C251 1.231 . S
C246 O230 1.225 . S
C246 O252 1.298 . S
C247 O236 1.226 . S
C247 O237 1.307 . S
C248 O240 1.303 . S
C248 O241 1.247 . S
C249 O238 1.253 . S
C249 O239 1.283 . S
C250 O242 1.304 . S
C250 O244 1.272 . S
C251 O243 1.311 . S
C251 O245 1.231 . S
O252 Zn234 1.953 . S
O252 C246 1.298 . S
O253 Zn254 1.953 . S
O253 C269 1.225 . S
Zn254 O253 1.953 . S
Zn254 O255 1.949 . S
Zn254 O261 1.919 . S
Zn254 O266 1.924 . S
O255 Zn254 1.949 . S
O255 Zn256 1.923 . S
O255 Zn257 1.950 . S
O255 Zn258 1.945 . S
Zn256 O255 1.923 . S
Zn256 O259 1.933 . S
Zn256 O262 1.941 . S
Zn256 O263 1.965 . S
Zn257 O255 1.950 . S
Zn257 O264 1.938 . S
Zn257 O265 1.906 . S
Zn257 O275 1.953 . S
Zn258 O255 1.945 . S
Zn258 O260 1.932 . S
Zn258 O267 1.977 . S
Zn258 O268 1.910 . S
O259 Zn256 1.933 . S
O259 C270 1.226 . S
O260 Zn258 1.932 . S
O260 C270 1.307 . S
O261 Zn254 1.919 . S
O261 C272 1.253 . S
O262 Zn256 1.941 . S
O262 C272 1.283 . S
O263 Zn256 1.965 . S
O263 C271 1.303 1_556 S
O264 Zn257 1.938 . S
O264 C271 1.247 1_556 S
O265 Zn257 1.906 . S
O265 C273 1.304 . S
O266 Zn254 1.924 . S
O266 C274 1.311 . S
O267 Zn258 1.977 . S
O267 C273 1.272 . S
O268 Zn258 1.910 . S
O268 C274 1.231 . S
C269 O253 1.225 . S
C269 O275 1.298 . S
C270 O259 1.226 . S
C270 O260 1.307 . S
C271 O263 1.303 1_554 S
C271 O264 1.247 1_554 S
C272 O261 1.253 . S
C272 O262 1.283 . S
C273 O265 1.304 . S
C273 O267 1.272 . S
C274 O266 1.311 . S
C274 O268 1.231 . S
O275 Zn257 1.953 . S
O275 C269 1.298 . S
O276 Zn277 1.953 . S
O276 C292 1.225 . S
Zn277 O276 1.953 . S
Zn277 O278 1.949 . S
Zn277 O284 1.919 . S
Zn277 O289 1.924 . S
O278 Zn277 1.949 . S
O278 Zn279 1.923 . S
O278 Zn280 1.950 . S
O278 Zn281 1.945 . S
Zn279 O278 1.923 . S
Zn279 O282 1.933 . S
Zn279 O285 1.941 . S
Zn279 O286 1.965 . S
Zn280 O278 1.950 . S
Zn280 O287 1.938 . S
Zn280 O288 1.906 . S
Zn280 O298 1.953 . S
Zn281 O278 1.945 . S
Zn281 O283 1.932 . S
Zn281 O290 1.977 . S
Zn281 O291 1.910 . S
O282 Zn279 1.933 . S
O282 C293 1.226 . S
O283 Zn281 1.932 . S
O283 C293 1.307 . S
O284 Zn277 1.919 . S
O284 C295 1.253 . S
O285 Zn279 1.941 . S
O285 C295 1.283 . S
O286 Zn279 1.965 . S
O286 C294 1.303 . S
O287 Zn280 1.938 . S
O287 C294 1.247 . S
O288 Zn280 1.906 . S
O288 C296 1.304 . S
O289 Zn277 1.924 . S
O289 C297 1.311 . S
O290 Zn281 1.977 . S
O290 C296 1.272 . S
O291 Zn281 1.910 . S
O291 C297 1.231 . S
C292 O276 1.225 . S
C292 O298 1.298 . S
C293 O282 1.226 . S
C293 O283 1.307 . S
C294 O286 1.303 . S
C294 O287 1.247 . S
C295 O284 1.253 . S
C295 O285 1.283 . S
C296 O288 1.304 . S
C296 O290 1.272 . S
C297 O289 1.311 . S
C297 O291 1.231 . S
O298 Zn280 1.953 . S
O298 C292 1.298 . S
O299 Zn300 1.953 . S
O299 C315 1.225 . S
Zn300 O299 1.953 . S
Zn300 O301 1.949 . S
Zn300 O307 1.919 . S
Zn300 O312 1.924 . S
O301 Zn300 1.949 . S
O301 Zn302 1.923 . S
O301 Zn303 1.950 . S
O301 Zn304 1.945 . S
Zn302 O301 1.923 . S
Zn302 O305 1.933 . S
Zn302 O308 1.941 . S
Zn302 O309 1.965 . S
Zn303 O301 1.950 . S
Zn303 O310 1.938 . S
Zn303 O311 1.906 . S
Zn303 O321 1.953 . S
Zn304 O301 1.945 . S
Zn304 O306 1.932 . S
Zn304 O313 1.977 . S
Zn304 O314 1.910 . S
O305 Zn302 1.933 . S
O305 C316 1.226 . S
O306 Zn304 1.932 . S
O306 C316 1.307 . S
O307 Zn300 1.919 . S
O307 C318 1.253 . S
O308 Zn302 1.941 . S
O308 C318 1.283 . S
O309 Zn302 1.965 . S
O309 C317 1.303 . S
O310 Zn303 1.938 . S
O310 C317 1.247 . S
O311 Zn303 1.906 . S
O311 C319 1.304 . S
O312 Zn300 1.924 . S
O312 C320 1.311 . S
O313 Zn304 1.977 . S
O313 C319 1.272 . S
O314 Zn304 1.910 . S
O314 C320 1.231 . S
C315 O299 1.225 . S
C315 O321 1.298 . S
C316 O305 1.226 . S
C316 O306 1.307 . S
C317 O309 1.303 . S
C317 O310 1.247 . S
C318 O307 1.253 . S
C318 O308 1.283 . S
C319 O311 1.304 . S
C319 O313 1.272 . S
C320 O312 1.311 . S
C320 O314 1.231 . S
O321 Zn303 1.953 . S
O321 C315 1.298 . S
O322 Zn323 1.953 . S
O322 C338 1.225 . S
Zn323 O322 1.953 . S
Zn323 O324 1.949 . S
Zn323 O330 1.919 . S
Zn323 O335 1.924 . S
O324 Zn323 1.949 . S
O324 Zn325 1.923 . S
O324 Zn326 1.950 . S
O324 Zn327 1.945 . S
Zn325 O324 1.923 . S
Zn325 O328 1.933 . S
Zn325 O331 1.941 . S
Zn325 O332 1.965 . S
Zn326 O324 1.950 . S
Zn326 O333 1.938 . S
Zn326 O334 1.906 . S
Zn326 O344 1.953 . S
Zn327 O324 1.945 . S
Zn327 O329 1.932 . S
Zn327 O336 1.977 . S
Zn327 O337 1.910 . S
O328 Zn325 1.933 . S
O328 C339 1.226 . S
O329 Zn327 1.932 . S
O329 C339 1.307 . S
O330 Zn323 1.919 . S
O330 C341 1.253 . S
O331 Zn325 1.941 . S
O331 C341 1.283 . S
O332 Zn325 1.965 . S
O332 C340 1.303 . S
O333 Zn326 1.938 . S
O333 C340 1.247 . S
O334 Zn326 1.906 . S
O334 C342 1.304 . S
O335 Zn323 1.924 . S
O335 C343 1.311 . S
O336 Zn327 1.977 . S
O336 C342 1.272 . S
O337 Zn327 1.910 . S
O337 C343 1.231 . S
C338 O322 1.225 . S
C338 O344 1.298 . S
C339 O328 1.226 . S
C339 O329 1.307 . S
C340 O332 1.303 . S
C340 O333 1.247 . S
C341 O330 1.253 . S
C341 O331 1.283 . S
C342 O334 1.304 . S
C342 O336 1.272 . S
C343 O335 1.311 . S
C343 O337 1.231 . S
O344 Zn326 1.953 . S
O344 C338 1.298 . S
O345 Zn346 1.953 . S
O345 C361 1.225 . S
Zn346 O345 1.953 . S
Zn346 O347 1.949 . S
Zn346 O353 1.919 . S
Zn346 O358 1.924 . S
O347 Zn346 1.949 . S
O347 Zn348 1.923 . S
O347 Zn349 1.950 . S
O347 Zn350 1.945 . S
Zn348 O347 1.923 . S
Zn348 O351 1.933 . S
Zn348 O354 1.941 . S
Zn348 O355 1.965 . S
Zn349 O347 1.950 . S
Zn349 O356 1.938 . S
Zn349 O357 1.906 . S
Zn349 O367 1.953 . S
Zn350 O347 1.945 . S
Zn350 O352 1.932 . S
Zn350 O359 1.977 . S
Zn350 O360 1.910 . S
O351 Zn348 1.933 . S
O351 C362 1.226 . S
O352 Zn350 1.932 . S
O352 C362 1.307 . S
O353 Zn346 1.919 . S
O353 C364 1.253 . S
O354 Zn348 1.941 . S
O354 C364 1.283 . S
O355 Zn348 1.965 . S
O355 C363 1.303 1_554 S
O356 Zn349 1.938 . S
O356 C363 1.247 1_554 S
O357 Zn349 1.906 . S
O357 C365 1.304 . S
O358 Zn346 1.924 . S
O358 C366 1.311 . S
O359 Zn350 1.977 . S
O359 C365 1.272 . S
O360 Zn350 1.910 . S
O360 C366 1.231 . S
C361 O345 1.225 . S
C361 O367 1.298 . S
C362 O351 1.226 . S
C362 O352 1.307 . S
C363 O355 1.303 1_556 S
C363 O356 1.247 1_556 S
C364 O353 1.253 . S
C364 O354 1.283 . S
C365 O357 1.304 . S
C365 O359 1.272 . S
C366 O358 1.311 . S
C366 O360 1.231 . S
O367 Zn349 1.953 . S
O367 C361 1.298 . S
O368 Zn369 1.953 . S
O368 C384 1.225 . S
Zn369 O368 1.953 . S
Zn369 O370 1.949 . S
Zn369 O376 1.919 . S
Zn369 O381 1.924 . S
O370 Zn369 1.949 . S
O370 Zn371 1.923 . S
O370 Zn372 1.950 . S
O370 Zn373 1.945 . S
Zn371 O370 1.923 . S
Zn371 O374 1.933 . S
Zn371 O377 1.941 . S
Zn371 O378 1.965 . S
Zn372 O370 1.950 . S
Zn372 O379 1.938 . S
Zn372 O380 1.906 . S
Zn372 O390 1.953 . S
Zn373 O370 1.945 . S
Zn373 O375 1.932 . S
Zn373 O382 1.977 . S
Zn373 O383 1.910 . S
O374 Zn371 1.933 . S
O374 C385 1.226 . S
O375 Zn373 1.932 . S
O375 C385 1.307 . S
O376 Zn369 1.919 . S
O376 C387 1.253 . S
O377 Zn371 1.941 . S
O377 C387 1.283 . S
O378 Zn371 1.965 . S
O378 C386 1.303 . S
O379 Zn372 1.938 . S
O379 C386 1.247 . S
O380 Zn372 1.906 . S
O380 C388 1.304 . S
O381 Zn369 1.924 . S
O381 C389 1.311 . S
O382 Zn373 1.977 . S
O382 C388 1.272 . S
O383 Zn373 1.910 . S
O383 C389 1.231 . S
C384 O368 1.225 . S
C384 O390 1.298 . S
C385 O374 1.226 . S
C385 O375 1.307 . S
C386 O378 1.303 . S
C386 O379 1.247 . S
C387 O376 1.253 . S
C387 O377 1.283 . S
C388 O380 1.304 . S
C388 O382 1.272 . S
C389 O381 1.311 . S
C389 O383 1.231 . S
O390 Zn372 1.953 . S
O390 C384 1.298 . S
O391 Zn392 1.953 . S
O391 C407 1.225 . S
Zn392 O391 1.953 . S
Zn392 O393 1.949 . S
Zn392 O399 1.919 . S
Zn392 O404 1.924 . S
O393 Zn392 1.949 . S
O393 Zn394 1.923 . S
O393 Zn395 1.950 . S
O393 Zn396 1.945 . S
Zn394 O393 1.923 . S
Zn394 O397 1.933 . S
Zn394 O400 1.941 . S
Zn394 O401 1.965 . S
Zn395 O393 1.950 . S
Zn395 O402 1.938 . S
Zn395 O403 1.906 . S
Zn395 O413 1.953 . S
Zn396 O393 1.945 . S
Zn396 O398 1.932 . S
Zn396 O405 1.977 . S
Zn396 O406 1.910 . S
O397 Zn394 1.933 . S
O397 C408 1.226 . S
O398 Zn396 1.932 . S
O398 C408 1.307 . S
O399 Zn392 1.919 . S
O399 C410 1.253 . S
O400 Zn394 1.941 . S
O400 C410 1.283 . S
O401 Zn394 1.965 . S
O401 C409 1.303 1_554 S
O402 Zn395 1.938 . S
O402 C409 1.247 1_554 S
O403 Zn395 1.906 . S
O403 C411 1.304 . S
O404 Zn392 1.924 . S
O404 C412 1.311 . S
O405 Zn396 1.977 . S
O405 C411 1.272 . S
O406 Zn396 1.910 . S
O406 C412 1.231 . S
C407 O391 1.225 . S
C407 O413 1.298 . S
C408 O397 1.226 . S
C408 O398 1.307 . S
C409 O401 1.303 1_556 S
C409 O402 1.247 1_556 S
C410 O399 1.253 . S
C410 O400 1.283 . S
C411 O403 1.304 . S
C411 O405 1.272 . S
C412 O404 1.311 . S
C412 O406 1.231 . S
O413 Zn395 1.953 . S
O413 C407 1.298 . S
O414 Zn415 1.953 . S
O414 C430 1.225 . S
Zn415 O414 1.953 . S
Zn415 O416 1.949 . S
Zn415 O422 1.919 . S
Zn415 O427 1.924 . S
O416 Zn415 1.949 . S
O416 Zn417 1.923 . S
O416 Zn418 1.950 . S
O416 Zn419 1.945 . S
Zn417 O416 1.923 . S
Zn417 O420 1.933 . S
Zn417 O423 1.941 . S
Zn417 O424 1.965 . S
Zn418 O416 1.950 . S
Zn418 O425 1.938 . S
Zn418 O426 1.906 . S
Zn418 O436 1.953 . S
Zn419 O416 1.945 . S
Zn419 O421 1.932 . S
Zn419 O428 1.977 . S
Zn419 O429 1.910 . S
O420 Zn417 1.933 . S
O420 C431 1.226 . S
O421 Zn419 1.932 . S
O421 C431 1.307 . S
O422 Zn415 1.919 . S
O422 C433 1.253 . S
O423 Zn417 1.941 . S
O423 C433 1.283 . S
O424 Zn417 1.965 . S
O424 C432 1.303 . S
O425 Zn418 1.938 . S
O425 C432 1.247 . S
O426 Zn418 1.906 . S
O426 C434 1.304 . S
O427 Zn415 1.924 . S
O427 C435 1.311 . S
O428 Zn419 1.977 . S
O428 C434 1.272 . S
O429 Zn419 1.910 . S
O429 C435 1.231 . S
C430 O414 1.225 . S
C430 O436 1.298 . S
C431 O420 1.226 . S
C431 O421 1.307 . S
C432 O424 1.303 . S
C432 O425 1.247 . S
C433 O422 1.253 . S
C433 O423 1.283 . S
C434 O426 1.304 . S
C434 O428 1.272 . S
C435 O427 1.311 . S
C435 O429 1.231 . S
O436 Zn418 1.953 . S
O436 C430 1.298 . S
O437 Zn438 1.953 . S
O437 C453 1.225 . S
Zn438 O437 1.953 . S
Zn438 O439 1.949 . S
Zn438 O445 1.919 . S
Zn438 O450 1.924 . S
O439 Zn438 1.949 . S
O439 Zn440 1.923 . S
O439 Zn441 1.950 . S
O439 Zn442 1.945 . S
Zn440 O439 1.923 . S
Zn440 O443 1.933 . S
Zn440 O446 1.941 . S
Zn440 O447 1.965 . S
Zn441 O439 1.950 . S
Zn441 O448 1.938 . S
Zn441 O449 1.906 . S
Zn441 O459 1.953 . S
Zn442 O439 1.945 . S
Zn442 O444 1.932 . S
Zn442 O451 1.977 . S
Zn442 O452 1.910 . S
O443 Zn440 1.933 . S
O443 C454 1.226 . S
O444 Zn442 1.932 . S
O444 C454 1.307 . S
O445 Zn438 1.919 . S
O445 C456 1.253 . S
O446 Zn440 1.941 . S
O446 C456 1.283 . S
O447 Zn440 1.965 . S
O447 C455 1.303 . S
O448 Zn441 1.938 . S
O448 C455 1.247 . S
O449 Zn441 1.906 . S
O449 C457 1.304 . S
O450 Zn438 1.924 . S
O450 C458 1.311 . S
O451 Zn442 1.977 . S
O451 C457 1.272 . S
O452 Zn442 1.910 . S
O452 C458 1.231 . S
C453 O437 1.225 . S
C453 O459 1.298 . S
C454 O443 1.226 . S
C454 O444 1.307 . S
C455 O447 1.303 . S
C455 O448 1.247 . S
C456 O445 1.253 . S
C456 O446 1.283 . S
C457 O449 1.304 . S
C457 O451 1.272 . S
C458 O450 1.311 . S
C458 O452 1.231 . S
O459 Zn441 1.953 . S
O459 C453 1.298 . S
O460 Zn461 1.953 . S
O460 C476 1.225 . S
Zn461 O460 1.953 . S
Zn461 O462 1.949 . S
Zn461 O468 1.919 . S
Zn461 O473 1.924 . S
O462 Zn461 1.949 . S
O462 Zn463 1.923 . S
O462 Zn464 1.950 . S
O462 Zn465 1.945 . S
Zn463 O462 1.923 . S
Zn463 O466 1.933 . S
Zn463 O469 1.941 . S
Zn463 O470 1.965 . S
Zn464 O462 1.950 . S
Zn464 O471 1.938 . S
Zn464 O472 1.906 . S
Zn464 O482 1.953 . S
Zn465 O462 1.945 . S
Zn465 O467 1.932 . S
Zn465 O474 1.977 . S
Zn465 O475 1.910 . S
O466 Zn463 1.933 . S
O466 C477 1.226 . S
O467 Zn465 1.932 . S
O467 C477 1.307 . S
O468 Zn461 1.919 . S
O468 C479 1.253 . S
O469 Zn463 1.941 . S
O469 C479 1.283 . S
O470 Zn463 1.965 . S
O470 C478 1.303 . S
O471 Zn464 1.938 . S
O471 C478 1.247 . S
O472 Zn464 1.906 . S
O472 C480 1.304 . S
O473 Zn461 1.924 . S
O473 C481 1.311 . S
O474 Zn465 1.977 . S
O474 C480 1.272 . S
O475 Zn465 1.910 . S
O475 C481 1.231 . S
C476 O460 1.225 . S
C476 O482 1.298 . S
C477 O466 1.226 . S
C477 O467 1.307 . S
C478 O470 1.303 . S
C478 O471 1.247 . S
C479 O468 1.253 . S
C479 O469 1.283 . S
C480 O472 1.304 . S
C480 O474 1.272 . S
C481 O473 1.311 . S
C481 O475 1.231 . S
O482 Zn464 1.953 . S
O482 C476 1.298 . S
O483 Zn484 1.953 . S
O483 C499 1.225 . S
Zn484 O483 1.953 . S
Zn484 O485 1.949 . S
Zn484 O491 1.919 . S
Zn484 O496 1.924 . S
O485 Zn484 1.949 . S
O485 Zn486 1.923 . S
O485 Zn487 1.950 . S
O485 Zn488 1.945 . S
Zn486 O485 1.923 . S
Zn486 O489 1.933 . S
Zn486 O492 1.941 . S
Zn486 O493 1.965 . S
Zn487 O485 1.950 . S
Zn487 O494 1.938 . S
Zn487 O495 1.906 . S
Zn487 O505 1.953 . S
Zn488 O485 1.945 . S
Zn488 O490 1.932 . S
Zn488 O497 1.977 . S
Zn488 O498 1.910 . S
O489 Zn486 1.933 . S
O489 C500 1.226 . S
O490 Zn488 1.932 . S
O490 C500 1.307 . S
O491 Zn484 1.919 . S
O491 C502 1.253 . S
O492 Zn486 1.941 . S
O492 C502 1.283 . S
O493 Zn486 1.965 . S
O493 C501 1.303 1_556 S
O494 Zn487 1.938 . S
O494 C501 1.247 1_556 S
O495 Zn487 1.906 . S
O495 C503 1.304 . S
O496 Zn484 1.924 . S
O496 C504 1.311 . S
O497 Zn488 1.977 . S
O497 C503 1.272 . S
O498 Zn488 1.910 . S
O498 C504 1.231 . S
C499 O483 1.225 . S
C499 O505 1.298 . S
C500 O489 1.226 . S
C500 O490 1.307 . S
C501 O493 1.303 1_554 S
C501 O494 1.247 1_554 S
C502 O491 1.253 . S
C502 O492 1.283 . S
C503 O495 1.304 . S
C503 O497 1.272 . S
C504 O496 1.311 . S
C504 O498 1.231 . S
O505 Zn487 1.953 . S
O505 C499 1.298 . S
O506 Zn507 1.953 . S
O506 C522 1.225 . S
Zn507 O506 1.953 . S
Zn507 O508 1.949 . S
Zn507 O514 1.919 . S
Zn507 O519 1.924 . S
O508 Zn507 1.949 . S
O508 Zn509 1.923 . S
O508 Zn510 1.950 . S
O508 Zn511 1.945 . S
Zn509 O508 1.923 . S
Zn509 O512 1.933 . S
Zn509 O515 1.941 . S
Zn509 O516 1.965 . S
Zn510 O508 1.950 . S
Zn510 O517 1.938 . S
Zn510 O518 1.906 . S
Zn510 O528 1.953 . S
Zn511 O508 1.945 . S
Zn511 O513 1.932 . S
Zn511 O520 1.977 . S
Zn511 O521 1.910 . S
O512 Zn509 1.933 . S
O512 C523 1.226 . S
O513 Zn511 1.932 . S
O513 C523 1.307 . S
O514 Zn507 1.919 . S
O514 C525 1.253 . S
O515 Zn509 1.941 . S
O515 C525 1.283 . S
O516 Zn509 1.965 . S
O516 C524 1.303 . S
O517 Zn510 1.938 . S
O517 C524 1.247 . S
O518 Zn510 1.906 . S
O518 C526 1.304 . S
O519 Zn507 1.924 . S
O519 C527 1.311 . S
O520 Zn511 1.977 . S
O520 C526 1.272 . S
O521 Zn511 1.910 . S
O521 C527 1.231 . S
C522 O506 1.225 . S
C522 O528 1.298 . S
C523 O512 1.226 . S
C523 O513 1.307 . S
C524 O516 1.303 . S
C524 O517 1.247 . S
C525 O514 1.253 . S
C525 O515 1.283 . S
C526 O518 1.304 . S
C526 O520 1.272 . S
C527 O519 1.311 . S
C527 O521 1.231 . S
O528 Zn510 1.953 . S
O528 C522 1.298 . S
O529 Zn530 1.953 . S
O529 C545 1.225 . S
Zn530 O529 1.953 . S
Zn530 O531 1.949 . S
Zn530 O537 1.919 . S
Zn530 O542 1.924 . S
O531 Zn530 1.949 . S
O531 Zn532 1.923 . S
O531 Zn533 1.950 . S
O531 Zn534 1.945 . S
Zn532 O531 1.923 . S
Zn532 O535 1.933 . S
Zn532 O538 1.941 . S
Zn532 O539 1.965 . S
Zn533 O531 1.950 . S
Zn533 O540 1.938 . S
Zn533 O541 1.906 . S
Zn533 O551 1.953 . S
Zn534 O531 1.945 . S
Zn534 O536 1.932 . S
Zn534 O543 1.977 . S
Zn534 O544 1.910 . S
O535 Zn532 1.933 . S
O535 C546 1.226 . S
O536 Zn534 1.932 . S
O536 C546 1.307 . S
O537 Zn530 1.919 . S
O537 C548 1.253 . S
O538 Zn532 1.941 . S
O538 C548 1.283 . S
O539 Zn532 1.965 . S
O539 C547 1.303 . S
O540 Zn533 1.938 . S
O540 C547 1.247 . S
O541 Zn533 1.906 . S
O541 C549 1.304 . S
O542 Zn530 1.924 . S
O542 C550 1.311 . S
O543 Zn534 1.977 . S
O543 C549 1.272 . S
O544 Zn534 1.910 . S
O544 C550 1.231 . S
C545 O529 1.225 . S
C545 O551 1.298 . S
C546 O535 1.226 . S
C546 O536 1.307 . S
C547 O539 1.303 . S
C547 O540 1.247 . S
C548 O537 1.253 . S
C548 O538 1.283 . S
C549 O541 1.304 . S
C549 O543 1.272 . S
C550 O542 1.311 . S
C550 O544 1.231 . S
O551 Zn533 1.953 . S
O551 C545 1.298 . S
O552 Zn553 1.953 . S
O552 C568 1.225 . S
Zn553 O552 1.953 . S
Zn553 O554 1.949 . S
Zn553 O560 1.919 . S
Zn553 O565 1.924 . S
O554 Zn553 1.949 . S
O554 Zn555 1.923 . S
O554 Zn556 1.950 . S
O554 Zn557 1.945 . S
Zn555 O554 1.923 . S
Zn555 O558 1.933 . S
Zn555 O561 1.941 . S
Zn555 O562 1.965 . S
Zn556 O554 1.950 . S
Zn556 O563 1.938 . S
Zn556 O564 1.906 . S
Zn556 O574 1.953 . S
Zn557 O554 1.945 . S
Zn557 O559 1.932 . S
Zn557 O566 1.977 . S
Zn557 O567 1.910 . S
O558 Zn555 1.933 . S
O558 C569 1.226 . S
O559 Zn557 1.932 . S
O559 C569 1.307 . S
O560 Zn553 1.919 . S
O560 C571 1.253 . S
O561 Zn555 1.941 . S
O561 C571 1.283 . S
O562 Zn555 1.965 . S
O562 C570 1.303 . S
O563 Zn556 1.938 . S
O563 C570 1.247 . S
O564 Zn556 1.906 . S
O564 C572 1.304 . S
O565 Zn553 1.924 . S
O565 C573 1.311 . S
O566 Zn557 1.977 . S
O566 C572 1.272 . S
O567 Zn557 1.910 . S
O567 C573 1.231 . S
C568 O552 1.225 . S
C568 O574 1.298 . S
C569 O558 1.226 . S
C569 O559 1.307 . S
C570 O562 1.303 . S
C570 O563 1.247 . S
C571 O560 1.253 . S
C571 O561 1.283 . S
C572 O564 1.304 . S
C572 O566 1.272 . S
C573 O565 1.311 . S
C573 O567 1.231 . S
O574 Zn556 1.953 . S
O574 C568 1.298 . S
O575 Zn576 1.953 . S
O575 C591 1.225 . S
Zn576 O575 1.953 . S
Zn576 O577 1.949 . S
Zn576 O583 1.919 . S
Zn576 O588 1.924 . S
O577 Zn576 1.949 . S
O577 Zn578 1.923 . S
O577 Zn579 1.950 . S
O577 Zn580 1.945 . S
Zn578 O577 1.923 . S
Zn578 O581 1.933 . S
Zn578 O584 1.941 . S
Zn578 O585 1.965 . S
Zn579 O577 1.950 . S
Zn579 O586 1.938 . S
Zn579 O587 1.906 . S
Zn579 O597 1.953 . S
Zn580 O577 1.945 . S
Zn580 O582 1.932 . S
Zn580 O589 1.977 . S
Zn580 O590 1.910 . S
O581 Zn578 1.933 . S
O581 C592 1.226 . S
O582 Zn580 1.932 . S
O582 C592 1.307 . S
O583 Zn576 1.919 . S
O583 C594 1.253 . S
O584 Zn578 1.941 . S
O584 C594 1.283 . S
O585 Zn578 1.965 . S
O585 C593 1.303 1_556 S
O586 Zn579 1.938 . S
O586 C593 1.247 1_556 S
O587 Zn579 1.906 . S
O587 C595 1.304 . S
O588 Zn576 1.924 . S
O588 C596 1.311 . S
O589 Zn580 1.977 . S
O589 C595 1.272 . S
O590 Zn580 1.910 . S
O590 C596 1.231 . S
C591 O575 1.225 . S
C591 O597 1.298 . S
C592 O581 1.226 . S
C592 O582 1.307 . S
C593 O585 1.303 1_554 S
C593 O586 1.247 1_554 S
C594 O583 1.253 . S
C594 O584 1.283 . S
C595 O587 1.304 . S
C595 O589 1.272 . S
C596 O588 1.311 . S
C596 O590 1.231 . S
O597 Zn579 1.953 . S
O597 C591 1.298 . S
O598 Zn599 1.953 . S
O598 C614 1.225 . S
Zn599 O598 1.953 . S
Zn599 O600 1.949 . S
Zn599 O606 1.919 . S
Zn599 O611 1.924 . S
O600 Zn599 1.949 . S
O600 Zn601 1.923 . S
O600 Zn602 1.950 . S
O600 Zn603 1.945 . S
Zn601 O600 1.923 . S
Zn601 O604 1.933 . S
Zn601 O607 1.941 . S
Zn601 O608 1.965 . S
Zn602 O600 1.950 . S
Zn602 O609 1.938 . S
Zn602 O610 1.906 . S
Zn602 O620 1.953 . S
Zn603 O600 1.945 . S
Zn603 O605 1.932 . S
Zn603 O612 1.977 . S
Zn603 O613 1.910 . S
O604 Zn601 1.933 . S
O604 C615 1.226 . S
O605 Zn603 1.932 . S
O605 C615 1.307 . S
O606 Zn599 1.919 . S
O606 C617 1.253 . S
O607 Zn601 1.941 . S
O607 C617 1.283 . S
O608 Zn601 1.965 . S
O608 C616 1.303 . S
O609 Zn602 1.938 . S
O609 C616 1.247 . S
O610 Zn602 1.906 . S
O610 C618 1.304 . S
O611 Zn599 1.924 . S
O611 C619 1.311 . S
O612 Zn603 1.977 . S
O612 C618 1.272 . S
O613 Zn603 1.910 . S
O613 C619 1.231 . S
C614 O598 1.225 . S
C614 O620 1.298 . S
C615 O604 1.226 . S
C615 O605 1.307 . S
C616 O608 1.303 . S
C616 O609 1.247 . S
C617 O606 1.253 . S
C617 O607 1.283 . S
C618 O610 1.304 . S
C618 O612 1.272 . S
C619 O611 1.311 . S
C619 O613 1.231 . S
O620 Zn602 1.953 . S
O620 C614 1.298 . S
O621 Zn622 1.953 . S
O621 C637 1.225 . S
Zn622 O621 1.953 . S
Zn622 O623 1.949 . S
Zn622 O629 1.919 . S
Zn622 O634 1.924 . S
O623 Zn622 1.949 . S
O623 Zn624 1.923 . S
O623 Zn625 1.950 . S
O623 Zn626 1.945 . S
Zn624 O623 1.923 . S
Zn624 O627 1.933 . S
Zn624 O630 1.941 . S
Zn624 O631 1.965 . S
Zn625 O623 1.950 . S
Zn625 O632 1.938 . S
Zn625 O633 1.906 . S
Zn625 O643 1.953 . S
Zn626 O623 1.945 . S
Zn626 O628 1.932 . S
Zn626 O635 1.977 . S
Zn626 O636 1.910 . S
O627 Zn624 1.933 . S
O627 C638 1.226 . S
O628 Zn626 1.932 . S
O628 C638 1.307 . S
O629 Zn622 1.919 . S
O629 C640 1.253 . S
O630 Zn624 1.941 . S
O630 C640 1.283 . S
O631 Zn624 1.965 . S
O631 C639 1.303 . S
O632 Zn625 1.938 . S
O632 C639 1.247 . S
O633 Zn625 1.906 . S
O633 C641 1.304 . S
O634 Zn622 1.924 . S
O634 C642 1.311 . S
O635 Zn626 1.977 . S
O635 C641 1.272 . S
O636 Zn626 1.910 . S
O636 C642 1.231 . S
C637 O621 1.225 . S
C637 O643 1.298 . S
C638 O627 1.226 . S
C638 O628 1.307 . S
C639 O631 1.303 . S
C639 O632 1.247 . S
C640 O629 1.253 . S
C640 O630 1.283 . S
C641 O633 1.304 . S
C641 O635 1.272 . S
C642 O634 1.311 . S
C642 O636 1.231 . S
O643 Zn625 1.953 . S
O643 C637 1.298 . S
O644 Zn645 1.953 . S
O644 C660 1.225 . S
Zn645 O644 1.953 . S
Zn645 O646 1.949 . S
Zn645 O652 1.919 . S
Zn645 O657 1.924 . S
O646 Zn645 1.949 . S
O646 Zn647 1.923 . S
O646 Zn648 1.950 . S
O646 Zn649 1.945 . S
Zn647 O646 1.923 . S
Zn647 O650 1.933 . S
Zn647 O653 1.941 . S
Zn647 O654 1.965 . S
Zn648 O646 1.950 . S
Zn648 O655 1.938 . S
Zn648 O656 1.906 . S
Zn648 O666 1.953 . S
Zn649 O646 1.945 . S
Zn649 O651 1.932 . S
Zn649 O658 1.977 . S
Zn649 O659 1.910 . S
O650 Zn647 1.933 . S
O650 C661 1.226 . S
O651 Zn649 1.932 . S
O651 C661 1.307 . S
O652 Zn645 1.919 . S
O652 C663 1.253 . S
O653 Zn647 1.941 . S
O653 C663 1.283 . S
O654 Zn647 1.965 . S
O654 C662 1.303 . S
O655 Zn648 1.938 . S
O655 C662 1.247 . S
O656 Zn648 1.906 . S
O656 C664 1.304 . S
O657 Zn645 1.924 . S
O657 C665 1.311 . S
O658 Zn649 1.977 . S
O658 C664 1.272 . S
O659 Zn649 1.910 . S
O659 C665 1.231 . S
C660 O644 1.225 . S
C660 O666 1.298 . S
C661 O650 1.226 . S
C661 O651 1.307 . S
C662 O654 1.303 . S
C662 O655 1.247 . S
C663 O652 1.253 . S
C663 O653 1.283 . S
C664 O656 1.304 . S
C664 O658 1.272 . S
C665 O657 1.311 . S
C665 O659 1.231 . S
O666 Zn648 1.953 . S
O666 C660 1.298 . S
O667 Zn668 1.953 . S
O667 C683 1.225 . S
Zn668 O667 1.953 . S
Zn668 O669 1.949 . S
Zn668 O675 1.919 . S
Zn668 O680 1.924 . S
O669 Zn668 1.949 . S
O669 Zn670 1.923 . S
O669 Zn671 1.950 . S
O669 Zn672 1.945 . S
Zn670 O669 1.923 . S
Zn670 O673 1.933 . S
Zn670 O676 1.941 . S
Zn670 O677 1.965 . S
Zn671 O669 1.950 . S
Zn671 O678 1.938 . S
Zn671 O679 1.906 . S
Zn671 O689 1.953 . S
Zn672 O669 1.945 . S
Zn672 O674 1.932 . S
Zn672 O681 1.977 . S
Zn672 O682 1.910 . S
O673 Zn670 1.933 . S
O673 C684 1.226 . S
O674 Zn672 1.932 . S
O674 C684 1.307 . S
O675 Zn668 1.919 . S
O675 C686 1.253 . S
O676 Zn670 1.941 . S
O676 C686 1.283 . S
O677 Zn670 1.965 . S
O677 C685 1.303 1_554 S
O678 Zn671 1.938 . S
O678 C685 1.247 1_554 S
O679 Zn671 1.906 . S
O679 C687 1.304 . S
O680 Zn668 1.924 . S
O680 C688 1.311 . S
O681 Zn672 1.977 . S
O681 C687 1.272 . S
O682 Zn672 1.910 . S
O682 C688 1.231 . S
C683 O667 1.225 . S
C683 O689 1.298 . S
C684 O673 1.226 . S
C684 O674 1.307 . S
C685 O677 1.303 1_556 S
C685 O678 1.247 1_556 S
C686 O675 1.253 . S
C686 O676 1.283 . S
C687 O679 1.304 . S
C687 O681 1.272 . S
C688 O680 1.311 . S
C688 O682 1.231 . S
O689 Zn671 1.953 . S
O689 C683 1.298 . S
O690 Zn691 1.953 . S
O690 C706 1.225 . S
Zn691 O690 1.953 . S
Zn691 O692 1.949 . S
Zn691 O698 1.919 . S
Zn691 O703 1.924 . S
O692 Zn691 1.949 . S
O692 Zn693 1.923 . S
O692 Zn694 1.950 . S
O692 Zn695 1.945 . S
Zn693 O692 1.923 . S
Zn693 O696 1.933 . S
Zn693 O699 1.941 . S
Zn693 O700 1.965 . S
Zn694 O692 1.950 . S
Zn694 O701 1.938 . S
Zn694 O702 1.906 . S
Zn694 O712 1.953 . S
Zn695 O692 1.945 . S
Zn695 O697 1.932 . S
Zn695 O704 1.977 . S
Zn695 O705 1.910 . S
O696 Zn693 1.933 . S
O696 C707 1.226 . S
O697 Zn695 1.932 . S
O697 C707 1.307 . S
O698 Zn691 1.919 . S
O698 C709 1.253 . S
O699 Zn693 1.941 . S
O699 C709 1.283 . S
O700 Zn693 1.965 . S
O700 C708 1.303 . S
O701 Zn694 1.938 . S
O701 C708 1.247 . S
O702 Zn694 1.906 . S
O702 C710 1.304 . S
O703 Zn691 1.924 . S
O703 C711 1.311 . S
O704 Zn695 1.977 . S
O704 C710 1.272 . S
O705 Zn695 1.910 . S
O705 C711 1.231 . S
C706 O690 1.225 . S
C706 O712 1.298 . S
C707 O696 1.226 . S
C707 O697 1.307 . S
C708 O700 1.303 . S
C708 O701 1.247 . S
C709 O698 1.253 . S
C709 O699 1.283 . S
C710 O702 1.304 . S
C710 O704 1.272 . S
C711 O703 1.311 . S
C711 O705 1.231 . S
O712 Zn694 1.953 . S
O712 C706 1.298 . S
O713 Zn714 1.953 . S
O713 C729 1.225 . S
Zn714 O713 1.953 . S
Zn714 O715 1.949 . S
Zn714 O721 1.919 . S
Zn714 O726 1.924 . S
O715 Zn714 1.949 . S
O715 Zn716 1.923 . S
O715 Zn717 1.950 . S
O715 Zn718 1.945 . S
Zn716 O715 1.923 . S
Zn716 O719 1.933 . S
Zn716 O722 1.941 . S
Zn716 O723 1.965 . S
Zn717 O715 1.950 . S
Zn717 O724 1.938 . S
Zn717 O725 1.906 . S
Zn717 O735 1.953 . S
Zn718 O715 1.945 . S
Zn718 O720 1.932 . S
Zn718 O727 1.977 . S
Zn718 O728 1.910 . S
O719 Zn716 1.933 . S
O719 C730 1.226 . S
O720 Zn718 1.932 . S
O720 C730 1.307 . S
O721 Zn714 1.919 . S
O721 C732 1.253 . S
O722 Zn716 1.941 . S
O722 C732 1.283 . S
O723 Zn716 1.965 . S
O723 C731 1.303 . S
O724 Zn717 1.938 . S
O724 C731 1.247 . S
O725 Zn717 1.906 . S
O725 C733 1.304 . S
O726 Zn714 1.924 . S
O726 C734 1.311 . S
O727 Zn718 1.977 . S
O727 C733 1.272 . S
O728 Zn718 1.910 . S
O728 C734 1.231 . S
C729 O713 1.225 . S
C729 O735 1.298 . S
C730 O719 1.226 . S
C730 O720 1.307 . S
C731 O723 1.303 . S
C731 O724 1.247 . S
C732 O721 1.253 . S
C732 O722 1.283 . S
C733 O725 1.304 . S
C733 O727 1.272 . S
C734 O726 1.311 . S
C734 O728 1.231 . S
O735 Zn717 1.953 . S
O735 C729 1.298 . S
H736 C744 0.950 . S
H737 C749 0.950 . S
H738 C746 0.950 . S
H739 C748 0.950 . S
H740 C750 0.950 . S
H741 C752 0.950 . S
H742 C754 0.950 . S
H743 C755 0.950 . S
C744 H736 0.950 . S
C744 C745 1.386 . S
C744 C746 1.391 . S
C745 C744 1.386 . S
C745 C749 1.393 . S
C746 H738 0.950 . S
C746 C744 1.391 . S
C746 C747 1.400 . S
C747 C746 1.400 . S
C747 C748 1.398 . S
C747 C753 1.491 . S
C748 H739 0.950 . S
C748 C747 1.398 . S
C748 C749 1.391 . S
C749 H737 0.950 . S
C749 C745 1.393 . S
C749 C748 1.391 . S
C750 H740 0.950 . S
C750 C751 1.386 . S
C750 C752 1.391 . S
C751 C750 1.386 . S
C751 C755 1.393 . S
C752 H741 0.950 . S
C752 C750 1.391 . S
C752 C753 1.400 . S
C753 C747 1.491 . S
C753 C752 1.400 . S
C753 C754 1.398 . S
C754 H742 0.950 . S
C754 C753 1.398 . S
C754 C755 1.391 . S
C755 H743 0.950 . S
C755 C751 1.393 . S
C755 C754 1.391 . S
H756 C764 0.950 . S
H757 C769 0.950 . S
H758 C766 0.950 . S
H759 C768 0.950 . S
H760 C770 0.950 . S
H761 C772 0.950 1_545 S
H762 C774 0.950 . S
H763 C775 0.950 . S
C764 H756 0.950 . S
C764 C765 1.386 . S
C764 C766 1.391 . S
C765 C764 1.386 . S
C765 C769 1.393 . S
C766 H758 0.950 . S
C766 C764 1.391 . S
C766 C767 1.400 . S
C767 C766 1.400 . S
C767 C768 1.398 . S
C767 C773 1.491 1_545 S
C768 H759 0.950 . S
C768 C767 1.398 . S
C768 C769 1.391 . S
C769 H757 0.950 . S
C769 C765 1.393 . S
C769 C768 1.391 . S
C770 H760 0.950 . S
C770 C771 1.386 . S
C770 C772 1.391 . S
C771 C770 1.386 . S
C771 C775 1.393 . S
C772 H761 0.950 1_565 S
C772 C770 1.391 . S
C772 C773 1.400 . S
C773 C767 1.491 1_565 S
C773 C772 1.400 . S
C773 C774 1.398 . S
C774 H762 0.950 . S
C774 C773 1.398 . S
C774 C775 1.391 . S
C775 H763 0.950 . S
C775 C771 1.393 . S
C775 C774 1.391 . S
H776 C784 0.950 . S
H777 C789 0.950 . S
H778 C786 0.950 . S
H779 C788 0.950 . S
H780 C790 0.950 . S
H781 C792 0.950 . S
H782 C794 0.950 . S
H783 C795 0.950 . S
C784 H776 0.950 . S
C784 C785 1.386 . S
C784 C786 1.391 . S
C785 C784 1.386 . S
C785 C789 1.393 . S
C786 H778 0.950 . S
C786 C784 1.391 . S
C786 C787 1.400 . S
C787 C786 1.400 . S
C787 C788 1.398 . S
C787 C793 1.491 . S
C788 H779 0.950 . S
C788 C787 1.398 . S
C788 C789 1.391 . S
C789 H777 0.950 . S
C789 C785 1.393 . S
C789 C788 1.391 . S
C790 H780 0.950 . S
C790 C791 1.386 . S
C790 C792 1.391 . S
C791 C790 1.386 . S
C791 C795 1.393 . S
C792 H781 0.950 . S
C792 C790 1.391 . S
C792 C793 1.400 . S
C793 C787 1.491 . S
C793 C792 1.400 . S
C793 C794 1.398 . S
C794 H782 0.950 . S
C794 C793 1.398 . S
C794 C795 1.391 . S
C795 H783 0.950 . S
C795 C791 1.393 . S
C795 C794 1.391 . S
H796 C804 0.950 . S
H797 C809 0.950 . S
H798 C806 0.950 . S
H799 C808 0.950 . S
H800 C810 0.950 . S
H801 C812 0.967 . S
H802 C814 0.950 . S
H803 C815 0.950 . S
C804 H796 0.950 . S
C804 C805 1.386 . S
C804 C806 1.391 . S
C805 C804 1.386 . S
C805 C809 1.393 . S
C806 H798 0.950 . S
C806 C804 1.391 . S
C806 C807 1.400 . S
C807 C806 1.400 . S
C807 C808 1.398 . S
C807 C813 1.465 1_566 S
C808 H799 0.950 . S
C808 C807 1.398 . S
C808 C809 1.391 . S
C809 H797 0.950 . S
C809 C805 1.393 . S
C809 C808 1.391 . S
C810 H800 0.950 . S
C810 C811 1.386 . S
C810 C812 1.391 . S
C811 C810 1.386 . S
C811 C815 1.393 . S
C812 H801 0.967 . S
C812 C810 1.391 . S
C812 C813 1.411 . S
C813 C807 1.465 1_544 S
C813 C812 1.411 . S
C813 C814 1.415 . S
C814 H802 0.950 . S
C814 C813 1.415 . S
C814 C815 1.391 . S
C815 H803 0.950 . S
C815 C811 1.393 . S
C815 C814 1.391 . S
H816 C824 0.950 . S
H817 C829 0.950 . S
H818 C826 0.950 . S
H819 C828 0.950 . S
H820 C830 0.950 . S
H821 C832 0.950 . S
H822 C834 0.950 . S
H823 C835 0.950 . S
C824 H816 0.950 . S
C824 C825 1.386 . S
C824 C826 1.391 . S
C825 C824 1.386 . S
C825 C829 1.393 . S
C826 H818 0.950 . S
C826 C824 1.391 . S
C826 C827 1.400 . S
C827 C826 1.400 . S
C827 C828 1.398 . S
C827 C833 1.491 . S
C828 H819 0.950 . S
C828 C827 1.398 . S
C828 C829 1.391 . S
C829 H817 0.950 . S
C829 C825 1.393 . S
C829 C828 1.391 . S
C830 H820 0.950 . S
C830 C831 1.386 . S
C830 C832 1.391 . S
C831 C830 1.386 . S
C831 C835 1.393 . S
C832 H821 0.950 . S
C832 C830 1.391 . S
C832 C833 1.400 . S
C833 C827 1.491 . S
C833 C832 1.400 . S
C833 C834 1.398 . S
C834 H822 0.950 . S
C834 C833 1.398 . S
C834 C835 1.391 . S
C835 H823 0.950 . S
C835 C831 1.393 . S
C835 C834 1.391 . S
H836 C844 0.950 . S
H837 C849 0.950 . S
H838 C846 0.950 . S
H839 C848 0.950 . S
H840 C850 0.950 . S
H841 C852 0.950 . S
H842 C854 0.950 . S
H843 C855 0.950 . S
C844 H836 0.950 . S
C844 C845 1.386 . S
C844 C846 1.391 . S
C845 C844 1.386 . S
C845 C849 1.393 . S
C846 H838 0.950 . S
C846 C844 1.391 . S
C846 C847 1.400 . S
C847 C846 1.400 . S
C847 C848 1.398 . S
C847 C853 1.491 1_565 S
C848 H839 0.950 . S
C848 C847 1.398 . S
C848 C849 1.391 . S
C849 H837 0.950 . S
C849 C845 1.393 . S
C849 C848 1.391 . S
C850 H840 0.950 . S
C850 C851 1.386 . S
C850 C852 1.391 . S
C851 C850 1.386 . S
C851 C855 1.393 . S
C852 H841 0.950 . S
C852 C850 1.391 . S
C852 C853 1.400 . S
C853 C847 1.491 1_545 S
C853 C852 1.400 . S
C853 C854 1.398 . S
C854 H842 0.950 . S
C854 C853 1.398 . S
C854 C855 1.391 . S
C855 H843 0.950 . S
C855 C851 1.393 . S
C855 C854 1.391 . S
H856 C864 0.950 . S
H857 C869 0.950 . S
H858 C866 0.950 . S
H859 C868 0.950 . S
H860 C870 0.950 . S
H861 C872 0.950 . S
H862 C874 0.950 . S
H863 C875 0.950 . S
C864 H856 0.950 . S
C864 C865 1.386 . S
C864 C866 1.391 . S
C865 C864 1.386 . S
C865 C869 1.393 . S
C866 H858 0.950 . S
C866 C864 1.391 . S
C866 C867 1.400 . S
C867 C866 1.400 . S
C867 C868 1.398 . S
C867 C873 1.491 . S
C868 H859 0.950 . S
C868 C867 1.398 . S
C868 C869 1.391 . S
C869 H857 0.950 . S
C869 C865 1.393 . S
C869 C868 1.391 . S
C870 H860 0.950 . S
C870 C871 1.386 . S
C870 C872 1.391 . S
C871 C870 1.386 . S
C871 C875 1.393 . S
C872 H861 0.950 . S
C872 C870 1.391 . S
C872 C873 1.400 . S
C873 C867 1.491 . S
C873 C872 1.400 . S
C873 C874 1.398 . S
C874 H862 0.950 . S
C874 C873 1.398 . S
C874 C875 1.391 . S
C875 H863 0.950 . S
C875 C871 1.393 . S
C875 C874 1.391 . S
H876 C884 0.950 . S
H877 C889 0.950 . S
H878 C886 0.950 . S
H879 C888 0.950 . S
H880 C890 0.950 . S
H881 C892 0.950 . S
H882 C894 0.950 . S
H883 C895 0.950 . S
C884 H876 0.950 . S
C884 C885 1.386 . S
C884 C886 1.391 . S
C885 C884 1.386 . S
C885 C889 1.393 . S
C886 H878 0.950 . S
C886 C884 1.391 . S
C886 C887 1.400 . S
C887 C886 1.400 . S
C887 C888 1.398 . S
C887 C893 1.479 1_564 S
C888 H879 0.950 . S
C888 C887 1.398 . S
C888 C889 1.391 . S
C889 H877 0.950 . S
C889 C885 1.393 . S
C889 C888 1.391 . S
C890 H880 0.950 . S
C890 C891 1.386 . S
C890 C892 1.391 . S
C891 C890 1.386 . S
C891 C895 1.393 . S
C892 H881 0.950 . S
C892 C890 1.391 . S
C892 C893 1.406 . S
C893 C887 1.479 1_546 S
C893 C892 1.406 . S
C893 C894 1.404 . S
C894 H882 0.950 . S
C894 C893 1.404 . S
C894 C895 1.391 . S
C895 H883 0.950 . S
C895 C891 1.393 . S
C895 C894 1.391 . S
H896 C904 0.950 . S
H897 C909 0.950 . S
H898 C906 0.950 . S
H899 C908 0.950 . S
H900 C910 0.950 . S
H901 C912 0.950 . S
H902 C914 0.950 . S
H903 C915 0.950 . S
C904 H896 0.950 . S
C904 C905 1.386 . S
C904 C906 1.391 . S
C905 C904 1.386 . S
C905 C909 1.393 . S
C906 H898 0.950 . S
C906 C904 1.391 . S
C906 C907 1.400 . S
C907 C906 1.400 . S
C907 C908 1.398 . S
C907 C913 1.491 . S
C908 H899 0.950 . S
C908 C907 1.398 . S
C908 C909 1.391 . S
C909 H897 0.950 . S
C909 C905 1.393 . S
C909 C908 1.391 . S
C910 H900 0.950 . S
C910 C911 1.386 . S
C910 C912 1.391 . S
C911 C910 1.386 . S
C911 C915 1.393 . S
C912 H901 0.950 . S
C912 C910 1.391 . S
C912 C913 1.400 . S
C913 C907 1.491 . S
C913 C912 1.400 . S
C913 C914 1.398 . S
C914 H902 0.950 . S
C914 C913 1.398 . S
C914 C915 1.391 . S
C915 H903 0.950 . S
C915 C911 1.393 . S
C915 C914 1.391 . S
H916 C924 0.950 . S
H917 C929 0.950 . S
H918 C926 0.950 1_565 S
H919 C928 0.950 . S
H920 C930 0.950 . S
H921 C932 0.950 . S
H922 C934 0.950 . S
H923 C935 0.950 . S
C924 H916 0.950 . S
C924 C925 1.386 . S
C924 C926 1.391 . S
C925 C924 1.386 . S
C925 C929 1.393 . S
C926 H918 0.950 1_545 S
C926 C924 1.391 . S
C926 C927 1.400 . S
C927 C926 1.400 . S
C927 C928 1.398 . S
C927 C933 1.491 1_545 S
C928 H919 0.950 . S
C928 C927 1.398 . S
C928 C929 1.391 . S
C929 H917 0.950 . S
C929 C925 1.393 . S
C929 C928 1.391 . S
C930 H920 0.950 . S
C930 C931 1.386 . S
C930 C932 1.391 . S
C931 C930 1.386 . S
C931 C935 1.393 . S
C932 H921 0.950 . S
C932 C930 1.391 . S
C932 C933 1.400 . S
C933 C927 1.491 1_565 S
C933 C932 1.400 . S
C933 C934 1.398 . S
C934 H922 0.950 . S
C934 C933 1.398 . S
C934 C935 1.391 . S
C935 H923 0.950 . S
C935 C931 1.393 . S
C935 C934 1.391 . S
H936 C944 0.950 . S
H937 C949 0.950 . S
H938 C946 0.950 . S
H939 C948 0.950 . S
H940 C950 0.950 . S
H941 C952 0.950 . S
H942 C954 0.950 . S
H943 C955 0.950 . S
C944 H936 0.950 . S
C944 C945 1.386 . S
C944 C946 1.391 . S
C945 C944 1.386 . S
C945 C949 1.393 . S
C946 H938 0.950 . S
C946 C944 1.391 . S
C946 C947 1.400 . S
C947 C946 1.400 . S
C947 C948 1.398 . S
C947 C953 1.491 . S
C948 H939 0.950 . S
C948 C947 1.398 . S
C948 C949 1.391 . S
C949 H937 0.950 . S
C949 C945 1.393 . S
C949 C948 1.391 . S
C950 H940 0.950 . S
C950 C951 1.386 . S
C950 C952 1.391 . S
C951 C950 1.386 . S
C951 C955 1.393 . S
C952 H941 0.950 . S
C952 C950 1.391 . S
C952 C953 1.400 . S
C953 C947 1.491 . S
C953 C952 1.400 . S
C953 C954 1.398 . S
C954 H942 0.950 . S
C954 C953 1.398 . S
C954 C955 1.391 . S
C955 H943 0.950 . S
C955 C951 1.393 . S
C955 C954 1.391 . S
H956 C964 0.951 . S
H957 C969 0.950 . S
H958 C966 0.950 . S
H959 C968 0.968 . S
H960 C970 0.950 . S
H961 C972 0.950 1_556 S
H962 C974 0.950 . S
H963 C975 0.950 . S
C964 H956 0.951 . S
C964 C965 1.386 . S
C964 C966 1.391 1_556 S
C965 C964 1.386 . S
C965 C969 1.393 . S
C966 H958 0.950 . S
C966 C964 1.391 1_554 S
C966 C967 1.400 1_554 S
C967 C966 1.400 1_556 S
C967 C968 1.397 1_565 S
C967 C973 1.491 1_566 S
C968 H959 0.968 . S
C968 C967 1.397 1_545 S
C968 C969 1.375 1_545 S
C969 H957 0.950 . S
C969 C965 1.393 . S
C969 C968 1.375 1_565 S
C970 H960 0.950 . S
C970 C971 1.386 . S
C970 C972 1.391 . S
C971 C970 1.386 . S
C971 C975 1.393 . S
C972 H961 0.950 1_554 S
C972 C970 1.391 . S
C972 C973 1.400 . S
C973 C967 1.491 1_544 S
C973 C972 1.400 . S
C973 C974 1.398 . S
C974 H962 0.950 . S
C974 C973 1.398 . S
C974 C975 1.391 . S
C975 H963 0.950 . S
C975 C971 1.393 . S
C975 C974 1.391 . S
H976 C984 0.950 . S
H977 C989 0.950 . S
H978 C986 0.950 . S
H979 C988 0.950 . S
H980 C990 0.950 . S
H981 C992 0.950 . S
H982 C994 0.950 . S
H983 C995 0.950 . S
C984 H976 0.950 . S
C984 C985 1.386 . S
C984 C986 1.391 . S
C985 C984 1.386 . S
C985 C989 1.393 . S
C986 H978 0.950 . S
C986 C984 1.391 . S
C986 C987 1.400 . S
C987 C986 1.400 . S
C987 C988 1.398 . S
C987 C993 1.491 . S
C988 H979 0.950 . S
C988 C987 1.398 . S
C988 C989 1.391 . S
C989 H977 0.950 . S
C989 C985 1.393 . S
C989 C988 1.391 . S
C990 H980 0.950 . S
C990 C991 1.386 . S
C990 C992 1.391 . S
C991 C990 1.386 . S
C991 C995 1.393 . S
C992 H981 0.950 . S
C992 C990 1.391 . S
C992 C993 1.400 . S
C993 C987 1.491 . S
C993 C992 1.400 . S
C993 C994 1.398 . S
C994 H982 0.950 . S
C994 C993 1.398 . S
C994 C995 1.391 . S
C995 H983 0.950 . S
C995 C991 1.393 . S
C995 C994 1.391 . S
H996 C1004 0.950 . S
H997 C1009 0.950 . S
H998 C1006 0.950 . S
H999 C1008 0.950 1_565 S
H1000 C1010 0.950 . S
H1001 C1012 0.950 . S
H1002 C1014 0.950 . S
H1003 C1015 0.950 . S
C1004 H996 0.950 . S
C1004 C1005 1.386 . S
C1004 C1006 1.391 . S
C1005 C1004 1.386 . S
C1005 C1009 1.393 . S
C1006 H998 0.950 . S
C1006 C1004 1.391 . S
C1006 C1007 1.400 . S
C1007 C1006 1.400 . S
C1007 C1008 1.398 . S
C1007 C1013 1.491 1_545 S
C1008 H999 0.950 1_545 S
C1008 C1007 1.398 . S
C1008 C1009 1.391 . S
C1009 H997 0.950 . S
C1009 C1005 1.393 . S
C1009 C1008 1.391 . S
C1010 H1000 0.950 . S
C1010 C1011 1.386 . S
C1010 C1012 1.391 . S
C1011 C1010 1.386 . S
C1011 C1015 1.393 . S
C1012 H1001 0.950 . S
C1012 C1010 1.391 . S
C1012 C1013 1.400 . S
C1013 C1007 1.491 1_565 S
C1013 C1012 1.400 . S
C1013 C1014 1.398 . S
C1014 H1002 0.950 . S
C1014 C1013 1.398 . S
C1014 C1015 1.391 . S
C1015 H1003 0.950 . S
C1015 C1011 1.393 . S
C1015 C1014 1.391 . S
H1016 C1024 0.950 . S
H1017 C1029 0.950 . S
H1018 C1026 0.950 . S
H1019 C1028 0.950 . S
H1020 C1030 0.950 . S
H1021 C1032 0.950 . S
H1022 C1034 0.950 . S
H1023 C1035 0.950 . S
C1024 H1016 0.950 . S
C1024 C1025 1.386 . S
C1024 C1026 1.391 . S
C1025 C1024 1.386 . S
C1025 C1029 1.393 . S
C1026 H1018 0.950 . S
C1026 C1024 1.391 . S
C1026 C1027 1.400 . S
C1027 C1026 1.400 . S
C1027 C1028 1.398 . S
C1027 C1033 1.491 . S
C1028 H1019 0.950 . S
C1028 C1027 1.398 . S
C1028 C1029 1.391 . S
C1029 H1017 0.950 . S
C1029 C1025 1.393 . S
C1029 C1028 1.391 . S
C1030 H1020 0.950 . S
C1030 C1031 1.386 . S
C1030 C1032 1.391 . S
C1031 C1030 1.386 . S
C1031 C1035 1.393 . S
C1032 H1021 0.950 . S
C1032 C1030 1.391 . S
C1032 C1033 1.400 . S
C1033 C1027 1.491 . S
C1033 C1032 1.400 . S
C1033 C1034 1.398 . S
C1034 H1022 0.950 . S
C1034 C1033 1.398 . S
C1034 C1035 1.391 . S
C1035 H1023 0.950 . S
C1035 C1031 1.393 . S
C1035 C1034 1.391 . S
H1036 C1044 0.950 . S
H1037 C1049 0.950 . S
H1038 C1046 0.950 1_554 S
H1039 C1048 0.950 . S
H1040 C1050 0.950 . S
H1041 C1052 0.950 . S
H1042 C1054 0.950 1_545 S
H1043 C1055 0.950 . S
C1044 H1036 0.950 . S
C1044 C1045 1.386 . S
C1044 C1046 1.391 . S
C1045 C1044 1.386 . S
C1045 C1049 1.393 . S
C1046 H1038 0.950 1_556 S
C1046 C1044 1.391 . S
C1046 C1047 1.400 . S
C1047 C1046 1.400 . S
C1047 C1048 1.398 . S
C1047 C1053 1.480 1_546 S
C1048 H1039 0.950 . S
C1048 C1047 1.398 . S
C1048 C1049 1.391 . S
C1049 H1037 0.950 . S
C1049 C1045 1.393 . S
C1049 C1048 1.391 . S
C1050 H1040 0.950 . S
C1050 C1051 1.386 . S
C1050 C1052 1.391 1_554 S
C1051 C1050 1.386 . S
C1051 C1055 1.393 . S
C1052 H1041 0.950 . S
C1052 C1050 1.391 1_556 S
C1052 C1053 1.397 1_556 S
C1053 C1047 1.480 1_564 S
C1053 C1052 1.397 1_554 S
C1053 C1054 1.413 . S
C1054 H1042 0.950 1_565 S
C1054 C1053 1.413 . S
C1054 C1055 1.391 . S
C1055 H1043 0.950 . S
C1055 C1051 1.393 . S
C1055 C1054 1.391 . S
H1056 C1064 0.950 . S
H1057 C1069 0.950 . S
H1058 C1066 0.950 . S
H1059 C1068 0.950 . S
H1060 C1070 0.950 . S
H1061 C1072 0.950 . S
H1062 C1074 0.950 . S
H1063 C1075 0.950 . S
C1064 H1056 0.950 . S
C1064 C1065 1.386 . S
C1064 C1066 1.391 . S
C1065 C1064 1.386 . S
C1065 C1069 1.393 . S
C1066 H1058 0.950 . S
C1066 C1064 1.391 . S
C1066 C1067 1.400 . S
C1067 C1066 1.400 . S
C1067 C1068 1.398 . S
C1067 C1073 1.491 . S
C1068 H1059 0.950 . S
C1068 C1067 1.398 . S
C1068 C1069 1.391 . S
C1069 H1057 0.950 . S
C1069 C1065 1.393 . S
C1069 C1068 1.391 . S
C1070 H1060 0.950 . S
C1070 C1071 1.386 . S
C1070 C1072 1.391 . S
C1071 C1070 1.386 . S
C1071 C1075 1.393 . S
C1072 H1061 0.950 . S
C1072 C1070 1.391 . S
C1072 C1073 1.400 . S
C1073 C1067 1.491 . S
C1073 C1072 1.400 . S
C1073 C1074 1.398 . S
C1074 H1062 0.950 . S
C1074 C1073 1.398 . S
C1074 C1075 1.391 . S
C1075 H1063 0.950 . S
C1075 C1071 1.393 . S
C1075 C1074 1.391 . S
H1076 C1084 0.950 . S
H1077 C1089 0.950 . S
H1078 C1086 0.950 . S
H1079 C1088 0.950 . S
H1080 C1090 0.950 . S
H1081 C1092 0.950 1_556 S
H1082 C1094 0.950 . S
H1083 C1095 0.950 . S
C1084 H1076 0.950 . S
C1084 C1085 1.386 . S
C1084 C1086 1.391 . S
C1085 C1084 1.386 . S
C1085 C1089 1.393 . S
C1086 H1078 0.950 . S
C1086 C1084 1.391 . S
C1086 C1087 1.400 . S
C1087 C1086 1.400 . S
C1087 C1088 1.398 . S
C1087 C1093 1.491 1_556 S
C1088 H1079 0.950 . S
C1088 C1087 1.398 . S
C1088 C1089 1.391 . S
C1089 H1077 0.950 . S
C1089 C1085 1.393 . S
C1089 C1088 1.391 . S
C1090 H1080 0.950 . S
C1090 C1091 1.386 . S
C1090 C1092 1.391 . S
C1091 C1090 1.386 . S
C1091 C1095 1.393 . S
C1092 H1081 0.950 1_554 S
C1092 C1090 1.391 . S
C1092 C1093 1.400 . S
C1093 C1087 1.491 1_554 S
C1093 C1092 1.400 . S
C1093 C1094 1.398 . S
C1094 H1082 0.950 . S
C1094 C1093 1.398 . S
C1094 C1095 1.391 . S
C1095 H1083 0.950 . S
C1095 C1091 1.393 . S
C1095 C1094 1.391 . S
H1096 C1104 0.950 . S
H1097 C1109 0.950 . S
H1098 C1106 0.950 . S
H1099 C1108 0.950 . S
H1100 C1110 0.950 . S
H1101 C1112 0.950 . S
H1102 C1114 0.950 . S
H1103 C1115 0.950 . S
C1104 H1096 0.950 . S
C1104 C1105 1.386 . S
C1104 C1106 1.391 . S
C1105 C1104 1.386 . S
C1105 C1109 1.393 . S
C1106 H1098 0.950 . S
C1106 C1104 1.391 . S
C1106 C1107 1.400 . S
C1107 C1106 1.400 . S
C1107 C1108 1.398 . S
C1107 C1113 1.491 . S
C1108 H1099 0.950 . S
C1108 C1107 1.398 . S
C1108 C1109 1.391 . S
C1109 H1097 0.950 . S
C1109 C1105 1.393 . S
C1109 C1108 1.391 . S
C1110 H1100 0.950 . S
C1110 C1111 1.386 . S
C1110 C1112 1.391 . S
C1111 C1110 1.386 . S
C1111 C1115 1.393 . S
C1112 H1101 0.950 . S
C1112 C1110 1.391 . S
C1112 C1113 1.400 . S
C1113 C1107 1.491 . S
C1113 C1112 1.400 . S
C1113 C1114 1.398 . S
C1114 H1102 0.950 . S
C1114 C1113 1.398 . S
C1114 C1115 1.391 . S
C1115 H1103 0.950 . S
C1115 C1111 1.393 . S
C1115 C1114 1.391 . S
H1116 C1124 0.950 . S
H1117 C1129 0.950 . S
H1118 C1126 0.950 . S
H1119 C1128 0.950 . S
H1120 C1130 0.950 . S
H1121 C1132 0.950 . S
H1122 C1134 0.950 . S
H1123 C1135 0.950 . S
C1124 H1116 0.950 . S
C1124 C1125 1.386 . S
C1124 C1126 1.391 . S
C1125 C1124 1.386 . S
C1125 C1129 1.393 . S
C1126 H1118 0.950 . S
C1126 C1124 1.391 . S
C1126 C1127 1.400 . S
C1127 C1126 1.400 . S
C1127 C1128 1.398 . S
C1127 C1133 1.491 . S
C1128 H1119 0.950 . S
C1128 C1127 1.398 . S
C1128 C1129 1.391 . S
C1129 H1117 0.950 . S
C1129 C1125 1.393 . S
C1129 C1128 1.391 . S
C1130 H1120 0.950 . S
C1130 C1131 1.386 . S
C1130 C1132 1.391 . S
C1131 C1130 1.386 . S
C1131 C1135 1.393 . S
C1132 H1121 0.950 . S
C1132 C1130 1.391 . S
C1132 C1133 1.400 . S
C1133 C1127 1.491 . S
C1133 C1132 1.400 . S
C1133 C1134 1.398 . S
C1134 H1122 0.950 . S
C1134 C1133 1.398 . S
C1134 C1135 1.391 . S
C1135 H1123 0.950 . S
C1135 C1131 1.393 . S
C1135 C1134 1.391 . S
H1136 C1144 0.950 . S
H1137 C1149 0.950 . S
H1138 C1146 0.950 . S
H1139 C1148 0.950 . S
H1140 C1150 0.950 . S
H1141 C1152 0.950 . S
H1142 C1154 0.950 . S
H1143 C1155 0.950 . S
C1144 H1136 0.950 . S
C1144 C1145 1.386 . S
C1144 C1146 1.391 . S
C1145 C1144 1.386 . S
C1145 C1149 1.393 . S
C1146 H1138 0.950 . S
C1146 C1144 1.391 . S
C1146 C1147 1.400 . S
C1147 C1146 1.400 . S
C1147 C1148 1.398 . S
C1147 C1153 1.491 . S
C1148 H1139 0.950 . S
C1148 C1147 1.398 . S
C1148 C1149 1.391 . S
C1149 H1137 0.950 . S
C1149 C1145 1.393 . S
C1149 C1148 1.391 . S
C1150 H1140 0.950 . S
C1150 C1151 1.386 . S
C1150 C1152 1.391 . S
C1151 C1150 1.386 . S
C1151 C1155 1.393 . S
C1152 H1141 0.950 . S
C1152 C1150 1.391 . S
C1152 C1153 1.400 . S
C1153 C1147 1.491 . S
C1153 C1152 1.400 . S
C1153 C1154 1.398 . S
C1154 H1142 0.950 . S
C1154 C1153 1.398 . S
C1154 C1155 1.391 . S
C1155 H1143 0.950 . S
C1155 C1151 1.393 . S
C1155 C1154 1.391 . S
H1156 C1164 0.950 . S
H1157 C1169 0.950 . S
H1158 C1166 0.950 . S
H1159 C1168 0.950 . S
H1160 C1170 0.950 . S
H1161 C1172 0.950 . S
H1162 C1174 0.950 1_554 S
H1163 C1175 0.950 . S
C1164 H1156 0.950 . S
C1164 C1165 1.386 . S
C1164 C1166 1.391 . S
C1165 C1164 1.386 . S
C1165 C1169 1.393 . S
C1166 H1158 0.950 . S
C1166 C1164 1.391 . S
C1166 C1167 1.400 . S
C1167 C1166 1.400 . S
C1167 C1168 1.398 . S
C1167 C1173 1.507 . S
C1168 H1159 0.950 . S
C1168 C1167 1.398 . S
C1168 C1169 1.391 . S
C1169 H1157 0.950 . S
C1169 C1165 1.393 . S
C1169 C1168 1.391 . S
C1170 H1160 0.950 . S
C1170 C1171 1.386 . S
C1170 C1172 1.391 . S
C1171 C1170 1.386 . S
C1171 C1175 1.393 . S
C1172 H1161 0.950 . S
C1172 C1170 1.391 . S
C1172 C1173 1.385 1_556 S
C1173 C1167 1.507 . S
C1173 C1172 1.385 1_554 S
C1173 C1174 1.397 1_554 S
C1174 H1162 0.950 1_556 S
C1174 C1173 1.397 1_556 S
C1174 C1175 1.391 . S
C1175 H1163 0.950 . S
C1175 C1171 1.393 . S
C1175 C1174 1.391 . S
H1176 C1184 0.950 . S
H1177 C1189 0.950 . S
H1178 C1186 0.950 . S
H1179 C1188 0.950 . S
H1180 C1190 0.950 . S
H1181 C1192 0.950 . S
H1182 C1194 0.950 . S
H1183 C1195 0.950 . S
C1184 H1176 0.950 . S
C1184 C1185 1.386 . S
C1184 C1186 1.391 . S
C1185 C1184 1.386 . S
C1185 C1189 1.393 . S
C1186 H1178 0.950 . S
C1186 C1184 1.391 . S
C1186 C1187 1.400 . S
C1187 C1186 1.400 . S
C1187 C1188 1.398 . S
C1187 C1193 1.491 . S
C1188 H1179 0.950 . S
C1188 C1187 1.398 . S
C1188 C1189 1.391 . S
C1189 H1177 0.950 . S
C1189 C1185 1.393 . S
C1189 C1188 1.391 . S
C1190 H1180 0.950 . S
C1190 C1191 1.386 . S
C1190 C1192 1.391 . S
C1191 C1190 1.386 . S
C1191 C1195 1.393 . S
C1192 H1181 0.950 . S
C1192 C1190 1.391 . S
C1192 C1193 1.400 . S
C1193 C1187 1.491 . S
C1193 C1192 1.400 . S
C1193 C1194 1.398 . S
C1194 H1182 0.950 . S
C1194 C1193 1.398 . S
C1194 C1195 1.391 . S
C1195 H1183 0.950 . S
C1195 C1191 1.393 . S
C1195 C1194 1.391 . S
H1196 C1204 0.950 . S
H1197 C1209 0.950 . S
H1198 C1206 0.950 . S
H1199 C1208 0.950 . S
H1200 C1210 0.950 . S
H1201 C1212 0.950 . S
H1202 C1214 0.950 . S
H1203 C1215 0.950 . S
C1204 H1196 0.950 . S
C1204 C1205 1.386 . S
C1204 C1206 1.391 . S
C1205 C1204 1.386 . S
C1205 C1209 1.393 . S
C1206 H1198 0.950 . S
C1206 C1204 1.391 . S
C1206 C1207 1.400 . S
C1207 C1206 1.400 . S
C1207 C1208 1.398 . S
C1207 C1213 1.491 . S
C1208 H1199 0.950 . S
C1208 C1207 1.398 . S
C1208 C1209 1.391 . S
C1209 H1197 0.950 . S
C1209 C1205 1.393 . S
C1209 C1208 1.391 . S
C1210 H1200 0.950 . S
C1210 C1211 1.386 . S
C1210 C1212 1.391 . S
C1211 C1210 1.386 . S
C1211 C1215 1.393 . S
C1212 H1201 0.950 . S
C1212 C1210 1.391 . S
C1212 C1213 1.400 . S
C1213 C1207 1.491 . S
C1213 C1212 1.400 . S
C1213 C1214 1.398 . S
C1214 H1202 0.950 . S
C1214 C1213 1.398 . S
C1214 C1215 1.391 . S
C1215 H1203 0.950 . S
C1215 C1211 1.393 . S
C1215 C1214 1.391 . S
H1216 C1224 0.950 . S
H1217 C1229 0.950 . S
H1218 C1226 0.950 . S
H1219 C1228 0.950 . S
H1220 C1230 0.950 . S
H1221 C1232 0.950 . S
H1222 C1234 0.950 . S
H1223 C1235 0.950 . S
C1224 H1216 0.950 . S
C1224 C1225 1.386 . S
C1224 C1226 1.391 . S
C1225 C1224 1.386 . S
C1225 C1229 1.393 . S
C1226 H1218 0.950 . S
C1226 C1224 1.391 . S
C1226 C1227 1.400 . S
C1227 C1226 1.400 . S
C1227 C1228 1.398 . S
C1227 C1233 1.491 . S
C1228 H1219 0.950 . S
C1228 C1227 1.398 . S
C1228 C1229 1.391 . S
C1229 H1217 0.950 . S
C1229 C1225 1.393 . S
C1229 C1228 1.391 . S
C1230 H1220 0.950 . S
C1230 C1231 1.386 . S
C1230 C1232 1.391 . S
C1231 C1230 1.386 . S
C1231 C1235 1.393 . S
C1232 H1221 0.950 . S
C1232 C1230 1.391 . S
C1232 C1233 1.400 . S
C1233 C1227 1.491 . S
C1233 C1232 1.400 . S
C1233 C1234 1.398 . S
C1234 H1222 0.950 . S
C1234 C1233 1.398 . S
C1234 C1235 1.391 . S
C1235 H1223 0.950 . S
C1235 C1231 1.393 . S
C1235 C1234 1.391 . S
H1236 C1244 0.950 . S
H1237 C1249 0.950 . S
H1238 C1246 0.950 . S
H1239 C1248 0.950 1_556 S
H1240 C1250 0.950 . S
H1241 C1252 0.950 . S
H1242 C1254 0.950 . S
H1243 C1255 0.950 . S
C1244 H1236 0.950 . S
C1244 C1245 1.386 . S
C1244 C1246 1.391 . S
C1245 C1244 1.386 . S
C1245 C1249 1.393 . S
C1246 H1238 0.950 . S
C1246 C1244 1.391 . S
C1246 C1247 1.400 . S
C1247 C1246 1.400 . S
C1247 C1248 1.398 . S
C1247 C1253 1.491 1_554 S
C1248 H1239 0.950 1_554 S
C1248 C1247 1.398 . S
C1248 C1249 1.391 . S
C1249 H1237 0.950 . S
C1249 C1245 1.393 . S
C1249 C1248 1.391 . S
C1250 H1240 0.950 . S
C1250 C1251 1.386 . S
C1250 C1252 1.391 . S
C1251 C1250 1.386 . S
C1251 C1255 1.393 . S
C1252 H1241 0.950 . S
C1252 C1250 1.391 . S
C1252 C1253 1.400 . S
C1253 C1247 1.491 1_556 S
C1253 C1252 1.400 . S
C1253 C1254 1.398 1_556 S
C1254 H1242 0.950 . S
C1254 C1253 1.398 1_554 S
C1254 C1255 1.391 1_554 S
C1255 H1243 0.950 . S
C1255 C1251 1.393 . S
C1255 C1254 1.391 1_556 S
H1256 C1264 0.950 . S
H1257 C1269 0.950 . S
H1258 C1266 0.950 . S
H1259 C1268 0.950 . S
H1260 C1270 0.950 . S
H1261 C1272 0.950 . S
H1262 C1274 0.950 . S
H1263 C1275 0.950 . S
C1264 H1256 0.950 . S
C1264 C1265 1.386 . S
C1264 C1266 1.391 . S
C1265 C1264 1.386 . S
C1265 C1269 1.393 . S
C1266 H1258 0.950 . S
C1266 C1264 1.391 . S
C1266 C1267 1.400 . S
C1267 C1266 1.400 . S
C1267 C1268 1.398 . S
C1267 C1273 1.491 . S
C1268 H1259 0.950 . S
C1268 C1267 1.398 . S
C1268 C1269 1.391 . S
C1269 H1257 0.950 . S
C1269 C1265 1.393 . S
C1269 C1268 1.391 . S
C1270 H1260 0.950 . S
C1270 C1271 1.386 . S
C1270 C1272 1.391 . S
C1271 C1270 1.386 . S
C1271 C1275 1.393 . S
C1272 H1261 0.950 . S
C1272 C1270 1.391 . S
C1272 C1273 1.400 . S
C1273 C1267 1.491 . S
C1273 C1272 1.400 . S
C1273 C1274 1.398 . S
C1274 H1262 0.950 . S
C1274 C1273 1.398 . S
C1274 C1275 1.391 . S
C1275 H1263 0.950 . S
C1275 C1271 1.393 . S
C1275 C1274 1.391 . S
H1276 C1284 0.950 . S
H1277 C1289 0.950 . S
H1278 C1286 0.950 . S
H1279 C1288 0.950 . S
H1280 C1290 0.950 . S
H1281 C1292 0.950 . S
H1282 C1294 0.950 . S
H1283 C1295 0.950 . S
C1284 H1276 0.950 . S
C1284 C1285 1.386 . S
C1284 C1286 1.391 . S
C1285 C1284 1.386 . S
C1285 C1289 1.393 . S
C1286 H1278 0.950 . S
C1286 C1284 1.391 . S
C1286 C1287 1.400 . S
C1287 C1286 1.400 . S
C1287 C1288 1.398 . S
C1287 C1293 1.491 . S
C1288 H1279 0.950 . S
C1288 C1287 1.398 . S
C1288 C1289 1.391 . S
C1289 H1277 0.950 . S
C1289 C1285 1.393 . S
C1289 C1288 1.391 . S
C1290 H1280 0.950 . S
C1290 C1291 1.386 . S
C1290 C1292 1.391 . S
C1291 C1290 1.386 . S
C1291 C1295 1.393 . S
C1292 H1281 0.950 . S
C1292 C1290 1.391 . S
C1292 C1293 1.400 . S
C1293 C1287 1.491 . S
C1293 C1292 1.400 . S
C1293 C1294 1.398 . S
C1294 H1282 0.950 . S
C1294 C1293 1.398 . S
C1294 C1295 1.391 . S
C1295 H1283 0.950 . S
C1295 C1291 1.393 . S
C1295 C1294 1.391 . S
H1296 C1304 0.950 . S
H1297 C1309 0.950 . S
H1298 C1306 0.950 . S
H1299 C1308 0.950 . S
H1300 C1310 0.950 . S
H1301 C1312 0.950 . S
H1302 C1314 0.950 . S
H1303 C1315 0.950 . S
C1304 H1296 0.950 . S
C1304 C1305 1.386 . S
C1304 C1306 1.391 . S
C1305 C1304 1.386 . S
C1305 C1309 1.393 . S
C1306 H1298 0.950 . S
C1306 C1304 1.391 . S
C1306 C1307 1.400 . S
C1307 C1306 1.400 . S
C1307 C1308 1.398 . S
C1307 C1313 1.491 . S
C1308 H1299 0.950 . S
C1308 C1307 1.398 . S
C1308 C1309 1.391 . S
C1309 H1297 0.950 . S
C1309 C1305 1.393 . S
C1309 C1308 1.391 . S
C1310 H1300 0.950 . S
C1310 C1311 1.386 . S
C1310 C1312 1.391 . S
C1311 C1310 1.386 . S
C1311 C1315 1.393 . S
C1312 H1301 0.950 . S
C1312 C1310 1.391 . S
C1312 C1313 1.400 . S
C1313 C1307 1.491 . S
C1313 C1312 1.400 . S
C1313 C1314 1.398 . S
C1314 H1302 0.950 . S
C1314 C1313 1.398 . S
C1314 C1315 1.391 . S
C1315 H1303 0.950 . S
C1315 C1311 1.393 . S
C1315 C1314 1.391 . S
H1316 C1324 0.950 . S
H1317 C1329 0.950 . S
H1318 C1326 0.950 . S
H1319 C1328 0.950 1_554 S
H1320 C1330 0.950 . S
H1321 C1332 0.950 . S
H1322 C1334 0.950 . S
H1323 C1335 0.950 . S
C1324 H1316 0.950 . S
C1324 C1325 1.386 . S
C1324 C1326 1.391 . S
C1325 C1324 1.386 . S
C1325 C1329 1.393 . S
C1326 H1318 0.950 . S
C1326 C1324 1.391 . S
C1326 C1327 1.400 . S
C1327 C1326 1.400 . S
C1327 C1328 1.398 . S
C1327 C1333 1.470 1_556 S
C1328 H1319 0.950 1_556 S
C1328 C1327 1.398 . S
C1328 C1329 1.391 . S
C1329 H1317 0.950 . S
C1329 C1325 1.393 . S
C1329 C1328 1.391 . S
C1330 H1320 0.950 . S
C1330 C1331 1.386 . S
C1330 C1332 1.391 . S
C1331 C1330 1.386 . S
C1331 C1335 1.393 . S
C1332 H1321 0.950 . S
C1332 C1330 1.391 . S
C1332 C1333 1.428 . S
C1333 C1327 1.470 1_554 S
C1333 C1332 1.428 . S
C1333 C1334 1.392 1_554 S
C1334 H1322 0.950 . S
C1334 C1333 1.392 1_556 S
C1334 C1335 1.391 1_556 S
C1335 H1323 0.950 . S
C1335 C1331 1.393 . S
C1335 C1334 1.391 1_554 S
H1336 C1344 0.950 . S
H1337 C1349 0.950 . S
H1338 C1346 0.950 . S
H1339 C1348 0.950 . S
H1340 C1350 0.950 . S
H1341 C1352 0.950 . S
H1342 C1354 0.950 . S
H1343 C1355 0.950 . S
C1344 H1336 0.950 . S
C1344 C1345 1.386 . S
C1344 C1346 1.391 . S
C1345 C1344 1.386 . S
C1345 C1349 1.393 . S
C1346 H1338 0.950 . S
C1346 C1344 1.391 . S
C1346 C1347 1.400 . S
C1347 C1346 1.400 . S
C1347 C1348 1.398 . S
C1347 C1353 1.491 . S
C1348 H1339 0.950 . S
C1348 C1347 1.398 . S
C1348 C1349 1.391 . S
C1349 H1337 0.950 . S
C1349 C1345 1.393 . S
C1349 C1348 1.391 . S
C1350 H1340 0.950 . S
C1350 C1351 1.386 . S
C1350 C1352 1.391 . S
C1351 C1350 1.386 . S
C1351 C1355 1.393 . S
C1352 H1341 0.950 . S
C1352 C1350 1.391 . S
C1352 C1353 1.400 . S
C1353 C1347 1.491 . S
C1353 C1352 1.400 . S
C1353 C1354 1.398 . S
C1354 H1342 0.950 . S
C1354 C1353 1.398 . S
C1354 C1355 1.391 . S
C1355 H1343 0.950 . S
C1355 C1351 1.393 . S
C1355 C1354 1.391 . S
H1356 C1364 0.950 . S
H1357 C1369 0.950 . S
H1358 C1366 0.950 . S
H1359 C1368 0.950 . S
H1360 C1370 0.950 . S
H1361 C1372 0.950 . S
H1362 C1374 0.950 . S
H1363 C1375 0.950 . S
C1364 H1356 0.950 . S
C1364 C1365 1.386 . S
C1364 C1366 1.391 . S
C1365 C1364 1.386 . S
C1365 C1369 1.393 . S
C1366 H1358 0.950 . S
C1366 C1364 1.391 . S
C1366 C1367 1.400 . S
C1367 C1366 1.400 . S
C1367 C1368 1.398 . S
C1367 C1373 1.491 . S
C1368 H1359 0.950 . S
C1368 C1367 1.398 . S
C1368 C1369 1.391 . S
C1369 H1357 0.950 . S
C1369 C1365 1.393 . S
C1369 C1368 1.391 . S
C1370 H1360 0.950 . S
C1370 C1371 1.386 . S
C1370 C1372 1.391 . S
C1371 C1370 1.386 . S
C1371 C1375 1.393 . S
C1372 H1361 0.950 . S
C1372 C1370 1.391 . S
C1372 C1373 1.400 . S
C1373 C1367 1.491 . S
C1373 C1372 1.400 . S
C1373 C1374 1.398 . S
C1374 H1362 0.950 . S
C1374 C1373 1.398 . S
C1374 C1375 1.391 . S
C1375 H1363 0.950 . S
C1375 C1371 1.393 . S
C1375 C1374 1.391 . S
H1376 C1384 0.950 . S
H1377 C1389 0.950 . S
H1378 C1386 0.950 . S
H1379 C1388 0.950 . S
H1380 C1390 0.950 . S
H1381 C1392 0.950 . S
H1382 C1394 0.950 . S
H1383 C1395 0.950 . S
C1384 H1376 0.950 . S
C1384 C1385 1.386 . S
C1384 C1386 1.391 . S
C1385 C1384 1.386 . S
C1385 C1389 1.393 . S
C1386 H1378 0.950 . S
C1386 C1384 1.391 . S
C1386 C1387 1.400 . S
C1387 C1386 1.400 . S
C1387 C1388 1.398 . S
C1387 C1393 1.491 . S
C1388 H1379 0.950 . S
C1388 C1387 1.398 . S
C1388 C1389 1.391 . S
C1389 H1377 0.950 . S
C1389 C1385 1.393 . S
C1389 C1388 1.391 . S
C1390 H1380 0.950 . S
C1390 C1391 1.386 . S
C1390 C1392 1.391 . S
C1391 C1390 1.386 . S
C1391 C1395 1.393 . S
C1392 H1381 0.950 . S
C1392 C1390 1.391 . S
C1392 C1393 1.400 . S
C1393 C1387 1.491 . S
C1393 C1392 1.400 . S
C1393 C1394 1.398 . S
C1394 H1382 0.950 . S
C1394 C1393 1.398 . S
C1394 C1395 1.391 . S
C1395 H1383 0.950 . S
C1395 C1391 1.393 . S
C1395 C1394 1.391 . S
H1396 C1404 0.950 . S
H1397 C1409 0.950 . S
H1398 C1406 0.950 . S
H1399 C1408 0.950 . S
H1400 C1410 0.950 . S
H1401 C1412 0.950 . S
H1402 C1414 0.950 . S
H1403 C1415 0.950 . S
C1404 H1396 0.950 . S
C1404 C1405 1.386 . S
C1404 C1406 1.391 . S
C1405 C1404 1.386 . S
C1405 C1409 1.393 . S
C1406 H1398 0.950 . S
C1406 C1404 1.391 . S
C1406 C1407 1.400 . S
C1407 C1406 1.400 . S
C1407 C1408 1.398 . S
C1407 C1413 1.491 1_455 S
C1408 H1399 0.950 . S
C1408 C1407 1.398 . S
C1408 C1409 1.391 . S
C1409 H1397 0.950 . S
C1409 C1405 1.393 . S
C1409 C1408 1.391 . S
C1410 H1400 0.950 . S
C1410 C1411 1.386 . S
C1410 C1412 1.391 . S
C1411 C1410 1.386 . S
C1411 C1415 1.393 . S
C1412 H1401 0.950 . S
C1412 C1410 1.391 . S
C1412 C1413 1.400 . S
C1413 C1407 1.491 1_655 S
C1413 C1412 1.400 . S
C1413 C1414 1.398 . S
C1414 H1402 0.950 . S
C1414 C1413 1.398 . S
C1414 C1415 1.391 . S
C1415 H1403 0.950 . S
C1415 C1411 1.393 . S
C1415 C1414 1.391 . S
H1416 C1424 0.950 . S
H1417 C1429 0.950 . S
H1418 C1426 0.950 . S
H1419 C1428 0.950 . S
H1420 C1430 0.950 . S
H1421 C1432 0.950 . S
H1422 C1434 0.950 . S
H1423 C1435 0.950 . S
C1424 H1416 0.950 . S
C1424 C1425 1.386 . S
C1424 C1426 1.391 . S
C1425 C1424 1.386 . S
C1425 C1429 1.393 . S
C1426 H1418 0.950 . S
C1426 C1424 1.391 . S
C1426 C1427 1.400 . S
C1427 C1426 1.400 . S
C1427 C1428 1.398 . S
C1427 C1433 1.491 . S
C1428 H1419 0.950 . S
C1428 C1427 1.398 . S
C1428 C1429 1.391 . S
C1429 H1417 0.950 . S
C1429 C1425 1.393 . S
C1429 C1428 1.391 . S
C1430 H1420 0.950 . S
C1430 C1431 1.386 . S
C1430 C1432 1.391 . S
C1431 C1430 1.386 . S
C1431 C1435 1.393 . S
C1432 H1421 0.950 . S
C1432 C1430 1.391 . S
C1432 C1433 1.400 . S
C1433 C1427 1.491 . S
C1433 C1432 1.400 . S
C1433 C1434 1.398 . S
C1434 H1422 0.950 . S
C1434 C1433 1.398 . S
C1434 C1435 1.391 . S
C1435 H1423 0.950 . S
C1435 C1431 1.393 . S
C1435 C1434 1.391 . S
H1436 C1444 0.950 . S
H1437 C1449 0.950 . S
H1438 C1446 0.950 . S
H1439 C1448 0.950 . S
H1440 C1450 0.950 . S
H1441 C1452 0.950 . S
H1442 C1454 0.950 . S
H1443 C1455 0.950 . S
C1444 H1436 0.950 . S
C1444 C1445 1.386 . S
C1444 C1446 1.391 . S
C1445 C1444 1.386 . S
C1445 C1449 1.393 . S
C1446 H1438 0.950 . S
C1446 C1444 1.391 . S
C1446 C1447 1.400 . S
C1447 C1446 1.400 . S
C1447 C1448 1.398 . S
C1447 C1453 1.491 . S
C1448 H1439 0.950 . S
C1448 C1447 1.398 . S
C1448 C1449 1.391 . S
C1449 H1437 0.950 . S
C1449 C1445 1.393 . S
C1449 C1448 1.391 . S
C1450 H1440 0.950 . S
C1450 C1451 1.386 . S
C1450 C1452 1.391 . S
C1451 C1450 1.386 . S
C1451 C1455 1.393 . S
C1452 H1441 0.950 . S
C1452 C1450 1.391 . S
C1452 C1453 1.400 . S
C1453 C1447 1.491 . S
C1453 C1452 1.400 . S
C1453 C1454 1.398 . S
C1454 H1442 0.950 . S
C1454 C1453 1.398 . S
C1454 C1455 1.391 . S
C1455 H1443 0.950 . S
C1455 C1451 1.393 . S
C1455 C1454 1.391 . S
H1456 C1464 0.950 . S
H1457 C1469 0.950 . S
H1458 C1466 0.950 . S
H1459 C1468 0.950 . S
H1460 C1470 0.950 . S
H1461 C1472 0.950 . S
H1462 C1474 0.950 . S
H1463 C1475 0.950 . S
C1464 H1456 0.950 . S
C1464 C1465 1.386 . S
C1464 C1466 1.391 . S
C1465 C1464 1.386 . S
C1465 C1469 1.393 . S
C1466 H1458 0.950 . S
C1466 C1464 1.391 . S
C1466 C1467 1.400 . S
C1467 C1466 1.400 . S
C1467 C1468 1.398 . S
C1467 C1473 1.491 . S
C1468 H1459 0.950 . S
C1468 C1467 1.398 . S
C1468 C1469 1.391 . S
C1469 H1457 0.950 . S
C1469 C1465 1.393 . S
C1469 C1468 1.391 . S
C1470 H1460 0.950 . S
C1470 C1471 1.386 . S
C1470 C1472 1.391 . S
C1471 C1470 1.386 . S
C1471 C1475 1.393 . S
C1472 H1461 0.950 . S
C1472 C1470 1.391 . S
C1472 C1473 1.400 . S
C1473 C1467 1.491 . S
C1473 C1472 1.400 . S
C1473 C1474 1.398 . S
C1474 H1462 0.950 . S
C1474 C1473 1.398 . S
C1474 C1475 1.391 . S
C1475 H1463 0.950 . S
C1475 C1471 1.393 . S
C1475 C1474 1.391 . S
H1476 C1484 0.950 . S
H1477 C1489 0.950 . S
H1478 C1486 0.950 . S
H1479 C1488 0.950 . S
H1480 C1490 0.950 . S
H1481 C1492 0.950 . S
H1482 C1494 0.950 . S
H1483 C1495 0.950 . S
C1484 H1476 0.950 . S
C1484 C1485 1.386 . S
C1484 C1486 1.391 . S
C1485 C1484 1.386 . S
C1485 C1489 1.393 . S
C1486 H1478 0.950 . S
C1486 C1484 1.391 . S
C1486 C1487 1.400 . S
C1487 C1486 1.400 . S
C1487 C1488 1.398 . S
C1487 C1493 1.491 . S
C1488 H1479 0.950 . S
C1488 C1487 1.398 . S
C1488 C1489 1.391 . S
C1489 H1477 0.950 . S
C1489 C1485 1.393 . S
C1489 C1488 1.391 . S
C1490 H1480 0.950 . S
C1490 C1491 1.386 . S
C1490 C1492 1.391 . S
C1491 C1490 1.386 . S
C1491 C1495 1.393 . S
C1492 H1481 0.950 . S
C1492 C1490 1.391 . S
C1492 C1493 1.400 . S
C1493 C1487 1.491 . S
C1493 C1492 1.400 . S
C1493 C1494 1.398 . S
C1494 H1482 0.950 . S
C1494 C1493 1.398 . S
C1494 C1495 1.391 . S
C1495 H1483 0.950 . S
C1495 C1491 1.393 . S
C1495 C1494 1.391 . S
H1496 C1504 0.950 . S
H1497 C1509 0.950 . S
H1498 C1506 0.950 . S
H1499 C1508 0.950 . S
H1500 C1510 0.950 . S
H1501 C1512 0.950 . S
H1502 C1514 0.950 . S
H1503 C1515 0.950 . S
C1504 H1496 0.950 . S
C1504 C1505 1.386 . S
C1504 C1506 1.391 . S
C1505 C1504 1.386 . S
C1505 C1509 1.393 . S
C1506 H1498 0.950 . S
C1506 C1504 1.391 . S
C1506 C1507 1.400 . S
C1507 C1506 1.400 . S
C1507 C1508 1.398 . S
C1507 C1513 1.491 . S
C1508 H1499 0.950 . S
C1508 C1507 1.398 . S
C1508 C1509 1.391 . S
C1509 H1497 0.950 . S
C1509 C1505 1.393 . S
C1509 C1508 1.391 . S
C1510 H1500 0.950 . S
C1510 C1511 1.386 . S
C1510 C1512 1.391 . S
C1511 C1510 1.386 . S
C1511 C1515 1.393 . S
C1512 H1501 0.950 . S
C1512 C1510 1.391 . S
C1512 C1513 1.400 . S
C1513 C1507 1.491 . S
C1513 C1512 1.400 . S
C1513 C1514 1.398 . S
C1514 H1502 0.950 . S
C1514 C1513 1.398 . S
C1514 C1515 1.391 . S
C1515 H1503 0.950 . S
C1515 C1511 1.393 . S
C1515 C1514 1.391 . S
H1516 C1524 0.950 . S
H1517 C1529 0.950 . S
H1518 C1526 0.950 . S
H1519 C1528 0.950 . S
H1520 C1530 0.950 . S
H1521 C1532 0.950 . S
H1522 C1534 0.950 . S
H1523 C1535 0.950 . S
C1524 H1516 0.950 . S
C1524 C1525 1.386 . S
C1524 C1526 1.391 . S
C1525 C1524 1.386 . S
C1525 C1529 1.393 . S
C1526 H1518 0.950 . S
C1526 C1524 1.391 . S
C1526 C1527 1.400 . S
C1527 C1526 1.400 . S
C1527 C1528 1.398 . S
C1527 C1533 1.491 1_455 S
C1528 H1519 0.950 . S
C1528 C1527 1.398 . S
C1528 C1529 1.391 . S
C1529 H1517 0.950 . S
C1529 C1525 1.393 . S
C1529 C1528 1.391 . S
C1530 H1520 0.950 . S
C1530 C1531 1.386 . S
C1530 C1532 1.391 . S
C1531 C1530 1.386 . S
C1531 C1535 1.393 . S
C1532 H1521 0.950 . S
C1532 C1530 1.391 . S
C1532 C1533 1.400 . S
C1533 C1527 1.491 1_655 S
C1533 C1532 1.400 . S
C1533 C1534 1.398 . S
C1534 H1522 0.950 . S
C1534 C1533 1.398 . S
C1534 C1535 1.391 . S
C1535 H1523 0.950 . S
C1535 C1531 1.393 . S
C1535 C1534 1.391 . S
H1536 C1544 0.950 . S
H1537 C1549 0.950 . S
H1538 C1546 0.950 . S
H1539 C1548 0.950 . S
H1540 C1550 0.950 . S
H1541 C1552 0.950 . S
H1542 C1554 0.950 . S
H1543 C1555 0.950 . S
C1544 H1536 0.950 . S
C1544 C1545 1.386 . S
C1544 C1546 1.391 . S
C1545 C1544 1.386 . S
C1545 C1549 1.393 . S
C1546 H1538 0.950 . S
C1546 C1544 1.391 . S
C1546 C1547 1.400 . S
C1547 C1546 1.400 . S
C1547 C1548 1.398 . S
C1547 C1553 1.491 . S
C1548 H1539 0.950 . S
C1548 C1547 1.398 . S
C1548 C1549 1.391 . S
C1549 H1537 0.950 . S
C1549 C1545 1.393 . S
C1549 C1548 1.391 . S
C1550 H1540 0.950 . S
C1550 C1551 1.386 . S
C1550 C1552 1.391 . S
C1551 C1550 1.386 . S
C1551 C1555 1.393 . S
C1552 H1541 0.950 . S
C1552 C1550 1.391 . S
C1552 C1553 1.400 . S
C1553 C1547 1.491 . S
C1553 C1552 1.400 . S
C1553 C1554 1.398 . S
C1554 H1542 0.950 . S
C1554 C1553 1.398 . S
C1554 C1555 1.391 . S
C1555 H1543 0.950 . S
C1555 C1551 1.393 . S
C1555 C1554 1.391 . S
H1556 C1564 0.950 . S
H1557 C1569 0.950 . S
H1558 C1566 0.950 . S
H1559 C1568 0.950 . S
H1560 C1570 0.950 . S
H1561 C1572 0.950 . S
H1562 C1574 0.950 . S
H1563 C1575 0.950 . S
C1564 H1556 0.950 . S
C1564 C1565 1.386 . S
C1564 C1566 1.391 . S
C1565 C1564 1.386 . S
C1565 C1569 1.393 . S
C1566 H1558 0.950 . S
C1566 C1564 1.391 . S
C1566 C1567 1.400 . S
C1567 C1566 1.400 . S
C1567 C1568 1.398 . S
C1567 C1573 1.491 1_455 S
C1568 H1559 0.950 . S
C1568 C1567 1.398 . S
C1568 C1569 1.391 . S
C1569 H1557 0.950 . S
C1569 C1565 1.393 . S
C1569 C1568 1.391 . S
C1570 H1560 0.950 . S
C1570 C1571 1.386 . S
C1570 C1572 1.391 . S
C1571 C1570 1.386 . S
C1571 C1575 1.393 . S
C1572 H1561 0.950 . S
C1572 C1570 1.391 . S
C1572 C1573 1.400 . S
C1573 C1567 1.491 1_655 S
C1573 C1572 1.400 . S
C1573 C1574 1.398 . S
C1574 H1562 0.950 . S
C1574 C1573 1.398 . S
C1574 C1575 1.391 . S
C1575 H1563 0.950 . S
C1575 C1571 1.393 . S
C1575 C1574 1.391 . S
H1576 C1584 0.950 . S
H1577 C1589 0.950 . S
H1578 C1586 0.950 . S
H1579 C1588 0.950 . S
H1580 C1590 0.950 . S
H1581 C1592 0.950 . S
H1582 C1594 0.950 . S
H1583 C1595 0.950 . S
C1584 H1576 0.950 . S
C1584 C1585 1.386 . S
C1584 C1586 1.391 . S
C1585 C1584 1.386 . S
C1585 C1589 1.393 . S
C1586 H1578 0.950 . S
C1586 C1584 1.391 . S
C1586 C1587 1.400 . S
C1587 C1586 1.400 . S
C1587 C1588 1.398 . S
C1587 C1593 1.491 . S
C1588 H1579 0.950 . S
C1588 C1587 1.398 . S
C1588 C1589 1.391 . S
C1589 H1577 0.950 . S
C1589 C1585 1.393 . S
C1589 C1588 1.391 . S
C1590 H1580 0.950 . S
C1590 C1591 1.386 . S
C1590 C1592 1.391 . S
C1591 C1590 1.386 . S
C1591 C1595 1.393 . S
C1592 H1581 0.950 . S
C1592 C1590 1.391 . S
C1592 C1593 1.400 . S
C1593 C1587 1.491 . S
C1593 C1592 1.400 . S
C1593 C1594 1.398 . S
C1594 H1582 0.950 . S
C1594 C1593 1.398 . S
C1594 C1595 1.391 . S
C1595 H1583 0.950 . S
C1595 C1591 1.393 . S
C1595 C1594 1.391 . S
H1596 C1604 0.950 . S
H1597 C1609 0.950 . S
H1598 C1606 0.950 . S
H1599 C1608 0.950 . S
H1600 C1610 0.950 . S
H1601 C1612 0.950 . S
H1602 C1614 0.950 . S
H1603 C1615 0.950 . S
C1604 H1596 0.950 . S
C1604 C1605 1.386 . S
C1604 C1606 1.391 . S
C1605 C1604 1.386 . S
C1605 C1609 1.393 . S
C1606 H1598 0.950 . S
C1606 C1604 1.391 . S
C1606 C1607 1.400 . S
C1607 C1606 1.400 . S
C1607 C1608 1.398 . S
C1607 C1613 1.491 . S
C1608 H1599 0.950 . S
C1608 C1607 1.398 . S
C1608 C1609 1.391 . S
C1609 H1597 0.950 . S
C1609 C1605 1.393 . S
C1609 C1608 1.391 . S
C1610 H1600 0.950 . S
C1610 C1611 1.386 . S
C1610 C1612 1.391 . S
C1611 C1610 1.386 . S
C1611 C1615 1.393 . S
C1612 H1601 0.950 . S
C1612 C1610 1.391 . S
C1612 C1613 1.400 . S
C1613 C1607 1.491 . S
C1613 C1612 1.400 . S
C1613 C1614 1.398 . S
C1614 H1602 0.950 . S
C1614 C1613 1.398 . S
C1614 C1615 1.391 . S
C1615 H1603 0.950 . S
C1615 C1611 1.393 . S
C1615 C1614 1.391 . S
H1616 C1624 0.950 . S
H1617 C1629 0.950 . S
H1618 C1626 0.950 . S
H1619 C1628 0.950 . S
H1620 C1630 0.950 . S
H1621 C1632 0.950 . S
H1622 C1634 0.950 . S
H1623 C1635 0.950 . S
C1624 H1616 0.950 . S
C1624 C1625 1.386 . S
C1624 C1626 1.391 . S
C1625 C1624 1.386 . S
C1625 C1629 1.393 . S
C1626 H1618 0.950 . S
C1626 C1624 1.391 . S
C1626 C1627 1.400 . S
C1627 C1626 1.400 . S
C1627 C1628 1.398 . S
C1627 C1633 1.491 . S
C1628 H1619 0.950 . S
C1628 C1627 1.398 . S
C1628 C1629 1.391 . S
C1629 H1617 0.950 . S
C1629 C1625 1.393 . S
C1629 C1628 1.391 . S
C1630 H1620 0.950 . S
C1630 C1631 1.386 . S
C1630 C1632 1.391 . S
C1631 C1630 1.386 . S
C1631 C1635 1.393 . S
C1632 H1621 0.950 . S
C1632 C1630 1.391 . S
C1632 C1633 1.400 . S
C1633 C1627 1.491 . S
C1633 C1632 1.400 . S
C1633 C1634 1.398 . S
C1634 H1622 0.950 . S
C1634 C1633 1.398 . S
C1634 C1635 1.391 . S
C1635 H1623 0.950 . S
C1635 C1631 1.393 . S
C1635 C1634 1.391 . S
H1636 C1644 0.950 . S
H1637 C1649 0.950 . S
H1638 C1646 0.950 . S
H1639 C1648 0.950 . S
H1640 C1650 0.950 . S
H1641 C1652 0.950 . S
H1642 C1654 0.950 . S
H1643 C1655 0.950 . S
C1644 H1636 0.950 . S
C1644 C1645 1.386 . S
C1644 C1646 1.391 . S
C1645 C1644 1.386 . S
C1645 C1649 1.393 . S
C1646 H1638 0.950 . S
C1646 C1644 1.391 . S
C1646 C1647 1.400 . S
C1647 C1646 1.400 . S
C1647 C1648 1.398 . S
C1647 C1653 1.491 . S
C1648 H1639 0.950 . S
C1648 C1647 1.398 . S
C1648 C1649 1.391 . S
C1649 H1637 0.950 . S
C1649 C1645 1.393 . S
C1649 C1648 1.391 . S
C1650 H1640 0.950 . S
C1650 C1651 1.386 . S
C1650 C1652 1.391 . S
C1651 C1650 1.386 . S
C1651 C1655 1.393 . S
C1652 H1641 0.950 . S
C1652 C1650 1.391 . S
C1652 C1653 1.400 . S
C1653 C1647 1.491 . S
C1653 C1652 1.400 . S
C1653 C1654 1.398 . S
C1654 H1642 0.950 . S
C1654 C1653 1.398 . S
C1654 C1655 1.391 . S
C1655 H1643 0.950 . S
C1655 C1651 1.393 . S
C1655 C1654 1.391 . S
H1656 C1664 0.950 . S
H1657 C1669 0.950 . S
H1658 C1666 0.950 . S
H1659 C1668 0.950 . S
H1660 C1670 0.950 . S
H1661 C1672 0.950 . S
H1662 C1674 0.950 . S
H1663 C1675 0.950 . S
C1664 H1656 0.950 . S
C1664 C1665 1.386 . S
C1664 C1666 1.391 . S
C1665 C1664 1.386 . S
C1665 C1669 1.393 . S
C1666 H1658 0.950 . S
C1666 C1664 1.391 . S
C1666 C1667 1.400 . S
C1667 C1666 1.400 . S
C1667 C1668 1.398 . S
C1667 C1673 1.491 . S
C1668 H1659 0.950 . S
C1668 C1667 1.398 . S
C1668 C1669 1.391 . S
C1669 H1657 0.950 . S
C1669 C1665 1.393 . S
C1669 C1668 1.391 . S
C1670 H1660 0.950 . S
C1670 C1671 1.386 . S
C1670 C1672 1.391 . S
C1671 C1670 1.386 . S
C1671 C1675 1.393 . S
C1672 H1661 0.950 . S
C1672 C1670 1.391 . S
C1672 C1673 1.400 . S
C1673 C1667 1.491 . S
C1673 C1672 1.400 . S
C1673 C1674 1.398 . S
C1674 H1662 0.950 . S
C1674 C1673 1.398 . S
C1674 C1675 1.391 . S
C1675 H1663 0.950 . S
C1675 C1671 1.393 . S
C1675 C1674 1.391 . S
H1676 C1684 0.950 . S
H1677 C1689 0.950 . S
H1678 C1686 0.950 . S
H1679 C1688 0.950 . S
H1680 C1690 0.950 . S
H1681 C1692 0.950 . S
H1682 C1694 0.950 . S
H1683 C1695 0.950 . S
C1684 H1676 0.950 . S
C1684 C1685 1.386 . S
C1684 C1686 1.391 . S
C1685 C1684 1.386 . S
C1685 C1689 1.393 . S
C1686 H1678 0.950 . S
C1686 C1684 1.391 . S
C1686 C1687 1.400 . S
C1687 C1686 1.400 . S
C1687 C1688 1.398 . S
C1687 C1693 1.491 1_655 S
C1688 H1679 0.950 . S
C1688 C1687 1.398 . S
C1688 C1689 1.391 . S
C1689 H1677 0.950 . S
C1689 C1685 1.393 . S
C1689 C1688 1.391 . S
C1690 H1680 0.950 . S
C1690 C1691 1.386 . S
C1690 C1692 1.391 . S
C1691 C1690 1.386 . S
C1691 C1695 1.393 . S
C1692 H1681 0.950 . S
C1692 C1690 1.391 . S
C1692 C1693 1.400 . S
C1693 C1687 1.491 1_455 S
C1693 C1692 1.400 . S
C1693 C1694 1.398 . S
C1694 H1682 0.950 . S
C1694 C1693 1.398 . S
C1694 C1695 1.391 . S
C1695 H1683 0.950 . S
C1695 C1691 1.393 . S
C1695 C1694 1.391 . S
H1696 C1704 0.950 . S
H1697 C1709 0.950 . S
H1698 C1706 0.950 . S
H1699 C1708 0.950 . S
H1700 C1710 0.950 . S
H1701 C1712 0.950 . S
H1702 C1714 0.950 . S
H1703 C1715 0.950 . S
C1704 H1696 0.950 . S
C1704 C1705 1.386 . S
C1704 C1706 1.391 . S
C1705 C1704 1.386 . S
C1705 C1709 1.393 . S
C1706 H1698 0.950 . S
C1706 C1704 1.391 . S
C1706 C1707 1.400 . S
C1707 C1706 1.400 . S
C1707 C1708 1.398 . S
C1707 C1713 1.491 . S
C1708 H1699 0.950 . S
C1708 C1707 1.398 . S
C1708 C1709 1.391 . S
C1709 H1697 0.950 . S
C1709 C1705 1.393 . S
C1709 C1708 1.391 . S
C1710 H1700 0.950 . S
C1710 C1711 1.386 . S
C1710 C1712 1.391 . S
C1711 C1710 1.386 . S
C1711 C1715 1.393 . S
C1712 H1701 0.950 . S
C1712 C1710 1.391 . S
C1712 C1713 1.400 . S
C1713 C1707 1.491 . S
C1713 C1712 1.400 . S
C1713 C1714 1.398 . S
C1714 H1702 0.950 . S
C1714 C1713 1.398 . S
C1714 C1715 1.391 . S
C1715 H1703 0.950 . S
C1715 C1711 1.393 . S
C1715 C1714 1.391 . S
H1716 C1724 0.950 . S
H1717 C1729 0.950 . S
H1718 C1726 0.950 . S
H1719 C1728 0.950 . S
H1720 C1730 0.950 . S
H1721 C1732 0.950 . S
H1722 C1734 0.950 . S
H1723 C1735 0.950 . S
C1724 H1716 0.950 . S
C1724 C1725 1.386 . S
C1724 C1726 1.391 . S
C1725 C1724 1.386 . S
C1725 C1729 1.393 . S
C1726 H1718 0.950 . S
C1726 C1724 1.391 . S
C1726 C1727 1.400 . S
C1727 C1726 1.400 . S
C1727 C1728 1.398 . S
C1727 C1733 1.491 . S
C1728 H1719 0.950 . S
C1728 C1727 1.398 . S
C1728 C1729 1.391 . S
C1729 H1717 0.950 . S
C1729 C1725 1.393 . S
C1729 C1728 1.391 . S
C1730 H1720 0.950 . S
C1730 C1731 1.386 . S
C1730 C1732 1.391 . S
C1731 C1730 1.386 . S
C1731 C1735 1.393 . S
C1732 H1721 0.950 . S
C1732 C1730 1.391 . S
C1732 C1733 1.400 . S
C1733 C1727 1.491 . S
C1733 C1732 1.400 . S
C1733 C1734 1.398 . S
C1734 H1722 0.950 . S
C1734 C1733 1.398 . S
C1734 C1735 1.391 . S
C1735 H1723 0.950 . S
C1735 C1731 1.393 . S
C1735 C1734 1.391 . S
H1736 C1744 0.950 . S
H1737 C1749 0.950 . S
H1738 C1746 0.950 . S
H1739 C1748 0.950 . S
H1740 C1750 0.950 . S
H1741 C1752 0.950 . S
H1742 C1754 0.950 . S
H1743 C1755 0.950 . S
C1744 H1736 0.950 . S
C1744 C1745 1.386 . S
C1744 C1746 1.391 . S
C1745 C1744 1.386 . S
C1745 C1749 1.393 . S
C1746 H1738 0.950 . S
C1746 C1744 1.391 . S
C1746 C1747 1.400 . S
C1747 C1746 1.400 . S
C1747 C1748 1.398 . S
C1747 C1753 1.491 . S
C1748 H1739 0.950 . S
C1748 C1747 1.398 . S
C1748 C1749 1.391 . S
C1749 H1737 0.950 . S
C1749 C1745 1.393 . S
C1749 C1748 1.391 . S
C1750 H1740 0.950 . S
C1750 C1751 1.386 . S
C1750 C1752 1.391 . S
C1751 C1750 1.386 . S
C1751 C1755 1.393 . S
C1752 H1741 0.950 . S
C1752 C1750 1.391 . S
C1752 C1753 1.400 . S
C1753 C1747 1.491 . S
C1753 C1752 1.400 . S
C1753 C1754 1.398 . S
C1754 H1742 0.950 . S
C1754 C1753 1.398 . S
C1754 C1755 1.391 . S
C1755 H1743 0.950 . S
C1755 C1751 1.393 . S
C1755 C1754 1.391 . S
H1756 C1764 0.950 . S
H1757 C1769 0.950 . S
H1758 C1766 0.950 . S
H1759 C1768 0.950 . S
H1760 C1770 0.950 . S
H1761 C1772 0.950 . S
H1762 C1774 0.950 . S
H1763 C1775 0.950 . S
C1764 H1756 0.950 . S
C1764 C1765 1.386 . S
C1764 C1766 1.391 . S
C1765 C1764 1.386 . S
C1765 C1769 1.393 . S
C1766 H1758 0.950 . S
C1766 C1764 1.391 . S
C1766 C1767 1.400 . S
C1767 C1766 1.400 . S
C1767 C1768 1.398 . S
C1767 C1773 1.491 1_655 S
C1768 H1759 0.950 . S
C1768 C1767 1.398 . S
C1768 C1769 1.391 . S
C1769 H1757 0.950 . S
C1769 C1765 1.393 . S
C1769 C1768 1.391 . S
C1770 H1760 0.950 . S
C1770 C1771 1.386 . S
C1770 C1772 1.391 . S
C1771 C1770 1.386 . S
C1771 C1775 1.393 . S
C1772 H1761 0.950 . S
C1772 C1770 1.391 . S
C1772 C1773 1.400 . S
C1773 C1767 1.491 1_455 S
C1773 C1772 1.400 . S
C1773 C1774 1.398 . S
C1774 H1762 0.950 . S
C1774 C1773 1.398 . S
C1774 C1775 1.391 . S
C1775 H1763 0.950 . S
C1775 C1771 1.393 . S
C1775 C1774 1.391 . S
H1776 C1784 0.950 . S
H1777 C1789 0.950 . S
H1778 C1786 0.950 . S
H1779 C1788 0.950 . S
H1780 C1790 0.950 . S
H1781 C1792 0.950 . S
H1782 C1794 0.950 . S
H1783 C1795 0.950 . S
C1784 H1776 0.950 . S
C1784 C1785 1.386 . S
C1784 C1786 1.391 . S
C1785 C1784 1.386 . S
C1785 C1789 1.393 . S
C1786 H1778 0.950 . S
C1786 C1784 1.391 . S
C1786 C1787 1.400 . S
C1787 C1786 1.400 . S
C1787 C1788 1.398 . S
C1787 C1793 1.491 . S
C1788 H1779 0.950 . S
C1788 C1787 1.398 . S
C1788 C1789 1.391 . S
C1789 H1777 0.950 . S
C1789 C1785 1.393 . S
C1789 C1788 1.391 . S
C1790 H1780 0.950 . S
C1790 C1791 1.386 . S
C1790 C1792 1.391 . S
C1791 C1790 1.386 . S
C1791 C1795 1.393 . S
C1792 H1781 0.950 . S
C1792 C1790 1.391 . S
C1792 C1793 1.400 . S
C1793 C1787 1.491 . S
C1793 C1792 1.400 . S
C1793 C1794 1.398 . S
C1794 H1782 0.950 . S
C1794 C1793 1.398 . S
C1794 C1795 1.391 . S
C1795 H1783 0.950 . S
C1795 C1791 1.393 . S
C1795 C1794 1.391 . S
H1796 C1804 0.950 . S
H1797 C1809 0.950 . S
H1798 C1806 0.950 . S
H1799 C1808 0.950 . S
H1800 C1810 0.950 . S
H1801 C1812 0.950 . S
H1802 C1814 0.950 . S
H1803 C1815 0.950 . S
C1804 H1796 0.950 . S
C1804 C1805 1.386 . S
C1804 C1806 1.391 . S
C1805 C1804 1.386 . S
C1805 C1809 1.393 . S
C1806 H1798 0.950 . S
C1806 C1804 1.391 . S
C1806 C1807 1.400 . S
C1807 C1806 1.400 . S
C1807 C1808 1.398 . S
C1807 C1813 1.491 1_655 S
C1808 H1799 0.950 . S
C1808 C1807 1.398 . S
C1808 C1809 1.391 . S
C1809 H1797 0.950 . S
C1809 C1805 1.393 . S
C1809 C1808 1.391 . S
C1810 H1800 0.950 . S
C1810 C1811 1.386 . S
C1810 C1812 1.391 . S
C1811 C1810 1.386 . S
C1811 C1815 1.393 . S
C1812 H1801 0.950 . S
C1812 C1810 1.391 . S
C1812 C1813 1.400 . S
C1813 C1807 1.491 1_455 S
C1813 C1812 1.400 . S
C1813 C1814 1.398 . S
C1814 H1802 0.950 . S
C1814 C1813 1.398 . S
C1814 C1815 1.391 . S
C1815 H1803 0.950 . S
C1815 C1811 1.393 . S
C1815 C1814 1.391 . S
H1816 C1824 0.950 . S
H1817 C1829 0.950 . S
H1818 C1826 0.950 . S
H1819 C1828 0.950 . S
H1820 C1830 0.950 . S
H1821 C1832 0.950 . S
H1822 C1834 0.950 . S
H1823 C1835 0.950 . S
C1824 H1816 0.950 . S
C1824 C1825 1.386 . S
C1824 C1826 1.391 . S
C1825 C1824 1.386 . S
C1825 C1829 1.393 . S
C1826 H1818 0.950 . S
C1826 C1824 1.391 . S
C1826 C1827 1.400 . S
C1827 C1826 1.400 . S
C1827 C1828 1.398 . S
C1827 C1833 1.491 . S
C1828 H1819 0.950 . S
C1828 C1827 1.398 . S
C1828 C1829 1.391 . S
C1829 H1817 0.950 . S
C1829 C1825 1.393 . S
C1829 C1828 1.391 . S
C1830 H1820 0.950 . S
C1830 C1831 1.386 . S
C1830 C1832 1.391 . S
C1831 C1830 1.386 . S
C1831 C1835 1.393 . S
C1832 H1821 0.950 . S
C1832 C1830 1.391 . S
C1832 C1833 1.400 . S
C1833 C1827 1.491 . S
C1833 C1832 1.400 . S
C1833 C1834 1.398 . S
C1834 H1822 0.950 . S
C1834 C1833 1.398 . S
C1834 C1835 1.391 . S
C1835 H1823 0.950 . S
C1835 C1831 1.393 . S
C1835 C1834 1.391 . S
H1836 C1844 0.950 . S
H1837 C1849 0.950 . S
H1838 C1846 0.950 . S
H1839 C1848 0.950 . S
H1840 C1850 0.950 . S
H1841 C1852 0.950 . S
H1842 C1854 0.950 . S
H1843 C1855 0.950 . S
C1844 H1836 0.950 . S
C1844 C1845 1.386 . S
C1844 C1846 1.391 . S
C1845 C1844 1.386 . S
C1845 C1849 1.393 . S
C1846 H1838 0.950 . S
C1846 C1844 1.391 . S
C1846 C1847 1.400 . S
C1847 C1846 1.400 . S
C1847 C1848 1.398 . S
C1847 C1853 1.491 . S
C1848 H1839 0.950 . S
C1848 C1847 1.398 . S
C1848 C1849 1.391 . S
C1849 H1837 0.950 . S
C1849 C1845 1.393 . S
C1849 C1848 1.391 . S
C1850 H1840 0.950 . S
C1850 C1851 1.386 . S
C1850 C1852 1.391 . S
C1851 C1850 1.386 . S
C1851 C1855 1.393 . S
C1852 H1841 0.950 . S
C1852 C1850 1.391 . S
C1852 C1853 1.400 . S
C1853 C1847 1.491 . S
C1853 C1852 1.400 . S
C1853 C1854 1.398 . S
C1854 H1842 0.950 . S
C1854 C1853 1.398 . S
C1854 C1855 1.391 . S
C1855 H1843 0.950 . S
C1855 C1851 1.393 . S
C1855 C1854 1.391 . S
H1856 C1864 0.950 . S
H1857 C1869 0.950 . S
H1858 C1866 0.950 . S
H1859 C1868 0.950 . S
H1860 C1870 0.950 . S
H1861 C1872 0.950 . S
H1862 C1874 0.950 . S
H1863 C1875 0.950 . S
C1864 H1856 0.950 . S
C1864 C1865 1.386 . S
C1864 C1866 1.391 . S
C1865 C1864 1.386 . S
C1865 C1869 1.393 . S
C1866 H1858 0.950 . S
C1866 C1864 1.391 . S
C1866 C1867 1.400 . S
C1867 C1866 1.400 . S
C1867 C1868 1.398 . S
C1867 C1873 1.491 . S
C1868 H1859 0.950 . S
C1868 C1867 1.398 . S
C1868 C1869 1.391 . S
C1869 H1857 0.950 . S
C1869 C1865 1.393 . S
C1869 C1868 1.391 . S
C1870 H1860 0.950 . S
C1870 C1871 1.386 . S
C1870 C1872 1.391 . S
C1871 C1870 1.386 . S
C1871 C1875 1.393 . S
C1872 H1861 0.950 . S
C1872 C1870 1.391 . S
C1872 C1873 1.400 . S
C1873 C1867 1.491 . S
C1873 C1872 1.400 . S
C1873 C1874 1.398 . S
C1874 H1862 0.950 . S
C1874 C1873 1.398 . S
C1874 C1875 1.391 . S
C1875 H1863 0.950 . S
C1875 C1871 1.393 . S
C1875 C1874 1.391 . S
H1876 C1884 0.950 . S
H1877 C1889 0.950 . S
H1878 C1886 0.950 . S
H1879 C1888 0.950 . S
H1880 C1890 0.950 . S
H1881 C1892 0.950 . S
H1882 C1894 0.950 . S
H1883 C1895 0.950 . S
C1884 H1876 0.950 . S
C1884 C1885 1.386 . S
C1884 C1886 1.391 . S
C1885 C1884 1.386 . S
C1885 C1889 1.393 . S
C1886 H1878 0.950 . S
C1886 C1884 1.391 . S
C1886 C1887 1.400 . S
C1887 C1886 1.400 . S
C1887 C1888 1.398 . S
C1887 C1893 1.491 . S
C1888 H1879 0.950 . S
C1888 C1887 1.398 . S
C1888 C1889 1.391 . S
C1889 H1877 0.950 . S
C1889 C1885 1.393 . S
C1889 C1888 1.391 . S
C1890 H1880 0.950 . S
C1890 C1891 1.386 . S
C1890 C1892 1.391 . S
C1891 C1890 1.386 . S
C1891 C1895 1.393 . S
C1892 H1881 0.950 . S
C1892 C1890 1.391 . S
C1892 C1893 1.400 . S
C1893 C1887 1.491 . S
C1893 C1892 1.400 . S
C1893 C1894 1.398 . S
C1894 H1882 0.950 . S
C1894 C1893 1.398 . S
C1894 C1895 1.391 . S
C1895 H1883 0.950 . S
C1895 C1891 1.393 . S
C1895 C1894 1.391 . S
H1896 C1904 0.950 . S
H1897 C1909 0.950 . S
H1898 C1906 0.950 . S
H1899 C1908 0.950 . S
H1900 C1910 0.950 . S
H1901 C1912 0.950 . S
H1902 C1914 0.950 . S
H1903 C1915 0.950 . S
C1904 H1896 0.950 . S
C1904 C1905 1.386 . S
C1904 C1906 1.391 . S
C1905 C1904 1.386 . S
C1905 C1909 1.393 . S
C1906 H1898 0.950 . S
C1906 C1904 1.391 . S
C1906 C1907 1.400 . S
C1907 C1906 1.400 . S
C1907 C1908 1.398 . S
C1907 C1913 1.491 . S
C1908 H1899 0.950 . S
C1908 C1907 1.398 . S
C1908 C1909 1.391 . S
C1909 H1897 0.950 . S
C1909 C1905 1.393 . S
C1909 C1908 1.391 . S
C1910 H1900 0.950 . S
C1910 C1911 1.386 . S
C1910 C1912 1.391 . S
C1911 C1910 1.386 . S
C1911 C1915 1.393 . S
C1912 H1901 0.950 . S
C1912 C1910 1.391 . S
C1912 C1913 1.400 . S
C1913 C1907 1.491 . S
C1913 C1912 1.400 . S
C1913 C1914 1.398 . S
C1914 H1902 0.950 . S
C1914 C1913 1.398 . S
C1914 C1915 1.391 . S
C1915 H1903 0.950 . S
C1915 C1911 1.393 . S
C1915 C1914 1.391 . S
H1916 C1924 0.950 . S
H1917 C1929 0.950 . S
H1918 C1926 0.950 . S
H1919 C1928 0.950 . S
H1920 C1930 0.950 . S
H1921 C1932 0.950 . S
H1922 C1934 0.950 . S
H1923 C1935 0.950 . S
C1924 H1916 0.950 . S
C1924 C1925 1.386 . S
C1924 C1926 1.391 . S
C1925 C1924 1.386 . S
C1925 C1929 1.393 . S
C1926 H1918 0.950 . S
C1926 C1924 1.391 . S
C1926 C1927 1.400 . S
C1927 C1926 1.400 . S
C1927 C1928 1.398 . S
C1927 C1933 1.491 1_655 S
C1928 H1919 0.950 . S
C1928 C1927 1.398 . S
C1928 C1929 1.391 . S
C1929 H1917 0.950 . S
C1929 C1925 1.393 . S
C1929 C1928 1.391 . S
C1930 H1920 0.950 . S
C1930 C1931 1.386 . S
C1930 C1932 1.391 . S
C1931 C1930 1.386 . S
C1931 C1935 1.393 . S
C1932 H1921 0.950 . S
C1932 C1930 1.391 . S
C1932 C1933 1.400 . S
C1933 C1927 1.491 1_455 S
C1933 C1932 1.400 . S
C1933 C1934 1.398 . S
C1934 H1922 0.950 . S
C1934 C1933 1.398 . S
C1934 C1935 1.391 . S
C1935 H1923 0.950 . S
C1935 C1931 1.393 . S
C1935 C1934 1.391 . S
H1936 C1944 0.950 . S
H1937 C1949 0.950 . S
H1938 C1946 0.950 . S
H1939 C1948 0.950 . S
H1940 C1950 0.950 . S
H1941 C1952 0.950 . S
H1942 C1954 0.950 . S
H1943 C1955 0.950 . S
C1944 H1936 0.950 . S
C1944 C1945 1.386 . S
C1944 C1946 1.391 . S
C1945 C1944 1.386 . S
C1945 C1949 1.393 . S
C1946 H1938 0.950 . S
C1946 C1944 1.391 . S
C1946 C1947 1.400 . S
C1947 C1946 1.400 . S
C1947 C1948 1.398 . S
C1947 C1953 1.491 . S
C1948 H1939 0.950 . S
C1948 C1947 1.398 . S
C1948 C1949 1.391 . S
C1949 H1937 0.950 . S
C1949 C1945 1.393 . S
C1949 C1948 1.391 . S
C1950 H1940 0.950 . S
C1950 C1951 1.386 . S
C1950 C1952 1.391 . S
C1951 C1950 1.386 . S
C1951 C1955 1.393 . S
C1952 H1941 0.950 . S
C1952 C1950 1.391 . S
C1952 C1953 1.400 . S
C1953 C1947 1.491 . S
C1953 C1952 1.400 . S
C1953 C1954 1.398 . S
C1954 H1942 0.950 . S
C1954 C1953 1.398 . S
C1954 C1955 1.391 . S
C1955 H1943 0.950 . S
C1955 C1951 1.393 . S
C1955 C1954 1.391 . S
H1956 C1964 0.950 . S
H1957 C1969 0.950 . S
H1958 C1966 0.950 . S
H1959 C1968 0.950 . S
H1960 C1970 0.950 . S
H1961 C1972 0.950 . S
H1962 C1974 0.950 . S
H1963 C1975 0.950 . S
C1964 H1956 0.950 . S
C1964 C1965 1.386 . S
C1964 C1966 1.391 . S
C1965 C1964 1.386 . S
C1965 C1969 1.393 . S
C1966 H1958 0.950 . S
C1966 C1964 1.391 . S
C1966 C1967 1.400 . S
C1967 C1966 1.400 . S
C1967 C1968 1.398 . S
C1967 C1973 1.491 1_455 S
C1968 H1959 0.950 . S
C1968 C1967 1.398 . S
C1968 C1969 1.391 . S
C1969 H1957 0.950 . S
C1969 C1965 1.393 . S
C1969 C1968 1.391 . S
C1970 H1960 0.950 . S
C1970 C1971 1.386 . S
C1970 C1972 1.391 . S
C1971 C1970 1.386 . S
C1971 C1975 1.393 . S
C1972 H1961 0.950 . S
C1972 C1970 1.391 . S
C1972 C1973 1.400 . S
C1973 C1967 1.491 1_655 S
C1973 C1972 1.400 . S
C1973 C1974 1.398 . S
C1974 H1962 0.950 . S
C1974 C1973 1.398 . S
C1974 C1975 1.391 . S
C1975 H1963 0.950 . S
C1975 C1971 1.393 . S
C1975 C1974 1.391 . S
H1976 C1984 0.950 . S
H1977 C1989 0.950 . S
H1978 C1986 0.950 . S
H1979 C1988 0.950 . S
H1980 C1990 0.950 . S
H1981 C1992 0.950 . S
H1982 C1994 0.950 . S
H1983 C1995 0.950 . S
C1984 H1976 0.950 . S
C1984 C1985 1.386 . S
C1984 C1986 1.391 . S
C1985 C1984 1.386 . S
C1985 C1989 1.393 . S
C1986 H1978 0.950 . S
C1986 C1984 1.391 . S
C1986 C1987 1.400 . S
C1987 C1986 1.400 . S
C1987 C1988 1.398 . S
C1987 C1993 1.491 . S
C1988 H1979 0.950 . S
C1988 C1987 1.398 . S
C1988 C1989 1.391 . S
C1989 H1977 0.950 . S
C1989 C1985 1.393 . S
C1989 C1988 1.391 . S
C1990 H1980 0.950 . S
C1990 C1991 1.386 . S
C1990 C1992 1.391 . S
C1991 C1990 1.386 . S
C1991 C1995 1.393 . S
C1992 H1981 0.950 . S
C1992 C1990 1.391 . S
C1992 C1993 1.400 . S
C1993 C1987 1.491 . S
C1993 C1992 1.400 . S
C1993 C1994 1.398 . S
C1994 H1982 0.950 . S
C1994 C1993 1.398 . S
C1994 C1995 1.391 . S
C1995 H1983 0.950 . S
C1995 C1991 1.393 . S
C1995 C1994 1.391 . S
H1996 C2004 0.950 . S
H1997 C2009 0.950 . S
H1998 C2006 0.950 . S
H1999 C2008 0.950 . S
H2000 C2010 0.950 . S
H2001 C2012 0.950 . S
H2002 C2014 0.950 . S
H2003 C2015 0.950 . S
C2004 H1996 0.950 . S
C2004 C2005 1.386 . S
C2004 C2006 1.391 . S
C2005 C2004 1.386 . S
C2005 C2009 1.393 . S
C2006 H1998 0.950 . S
C2006 C2004 1.391 . S
C2006 C2007 1.400 . S
C2007 C2006 1.400 . S
C2007 C2008 1.398 . S
C2007 C2013 1.491 . S
C2008 H1999 0.950 . S
C2008 C2007 1.398 . S
C2008 C2009 1.391 . S
C2009 H1997 0.950 . S
C2009 C2005 1.393 . S
C2009 C2008 1.391 . S
C2010 H2000 0.950 . S
C2010 C2011 1.386 . S
C2010 C2012 1.391 . S
C2011 C2010 1.386 . S
C2011 C2015 1.393 . S
C2012 H2001 0.950 . S
C2012 C2010 1.391 . S
C2012 C2013 1.400 . S
C2013 C2007 1.491 . S
C2013 C2012 1.400 . S
C2013 C2014 1.398 . S
C2014 H2002 0.950 . S
C2014 C2013 1.398 . S
C2014 C2015 1.391 . S
C2015 H2003 0.950 . S
C2015 C2011 1.393 . S
C2015 C2014 1.391 . S
H2016 C2024 0.950 . S
H2017 C2029 0.950 . S
H2018 C2026 0.927 1_565 S
H2019 C2028 0.950 . S
H2020 C2030 0.950 . S
H2021 C2032 0.950 1_545 S
H2022 C2034 0.950 . S
H2023 C2035 0.950 . S
C2024 H2016 0.950 . S
C2024 C2025 1.386 . S
C2024 C2026 1.391 . S
C2025 C2024 1.386 . S
C2025 C2029 1.393 . S
C2026 H2018 0.927 1_545 S
C2026 C2024 1.391 . S
C2026 C2027 1.400 . S
C2027 C2026 1.400 . S
C2027 C2028 1.398 . S
C2027 C2033 1.491 1_545 S
C2028 H2019 0.950 . S
C2028 C2027 1.398 . S
C2028 C2029 1.391 . S
C2029 H2017 0.950 . S
C2029 C2025 1.393 . S
C2029 C2028 1.391 . S
C2030 H2020 0.950 . S
C2030 C2031 1.386 . S
C2030 C2032 1.391 . S
C2031 C2030 1.386 . S
C2031 C2035 1.393 . S
C2032 H2021 0.950 1_565 S
C2032 C2030 1.391 . S
C2032 C2033 1.400 . S
C2033 C2027 1.491 1_565 S
C2033 C2032 1.400 . S
C2033 C2034 1.398 . S
C2034 H2022 0.950 . S
C2034 C2033 1.398 . S
C2034 C2035 1.391 . S
C2035 H2023 0.950 . S
C2035 C2031 1.393 . S
C2035 C2034 1.391 . S
H2036 C2044 0.950 . S
H2037 C2049 0.950 . S
H2038 C2046 0.950 . S
H2039 C2048 0.950 . S
H2040 C2050 0.950 . S
H2041 C2052 0.950 . S
H2042 C2054 0.950 . S
H2043 C2055 0.950 . S
C2044 H2036 0.950 . S
C2044 C2045 1.386 . S
C2044 C2046 1.391 . S
C2045 C2044 1.386 . S
C2045 C2049 1.393 . S
C2046 H2038 0.950 . S
C2046 C2044 1.391 . S
C2046 C2047 1.400 . S
C2047 C2046 1.400 . S
C2047 C2048 1.398 . S
C2047 C2053 1.491 . S
C2048 H2039 0.950 . S
C2048 C2047 1.398 . S
C2048 C2049 1.391 . S
C2049 H2037 0.950 . S
C2049 C2045 1.393 . S
C2049 C2048 1.391 . S
C2050 H2040 0.950 . S
C2050 C2051 1.386 . S
C2050 C2052 1.391 . S
C2051 C2050 1.386 . S
C2051 C2055 1.393 . S
C2052 H2041 0.950 . S
C2052 C2050 1.391 . S
C2052 C2053 1.400 . S
C2053 C2047 1.491 . S
C2053 C2052 1.400 . S
C2053 C2054 1.398 . S
C2054 H2042 0.950 . S
C2054 C2053 1.398 . S
C2054 C2055 1.391 . S
C2055 H2043 0.950 . S
C2055 C2051 1.393 . S
C2055 C2054 1.391 . S
H2056 C2064 0.950 . S
H2057 C2069 0.950 . S
H2058 C2066 0.950 . S
H2059 C2068 0.950 . S
H2060 C2070 0.950 . S
H2061 C2072 0.953 . S
H2062 C2074 0.950 . S
H2063 C2075 0.950 . S
C2064 H2056 0.950 . S
C2064 C2065 1.386 . S
C2064 C2066 1.391 . S
C2065 C2064 1.386 . S
C2065 C2069 1.393 . S
C2066 H2058 0.950 . S
C2066 C2064 1.391 . S
C2066 C2067 1.400 . S
C2067 C2066 1.400 . S
C2067 C2068 1.398 . S
C2067 C2073 1.491 1_565 S
C2068 H2059 0.950 . S
C2068 C2067 1.398 . S
C2068 C2069 1.391 . S
C2069 H2057 0.950 . S
C2069 C2065 1.393 . S
C2069 C2068 1.391 . S
C2070 H2060 0.950 . S
C2070 C2071 1.386 . S
C2070 C2072 1.391 . S
C2071 C2070 1.386 . S
C2071 C2075 1.393 . S
C2072 H2061 0.953 . S
C2072 C2070 1.391 . S
C2072 C2073 1.400 . S
C2073 C2067 1.491 1_545 S
C2073 C2072 1.400 . S
C2073 C2074 1.398 . S
C2074 H2062 0.950 . S
C2074 C2073 1.398 . S
C2074 C2075 1.391 . S
C2075 H2063 0.950 . S
C2075 C2071 1.393 . S
C2075 C2074 1.391 . S
H2076 C2084 0.950 . S
H2077 C2089 0.950 . S
H2078 C2086 0.950 . S
H2079 C2088 0.950 . S
H2080 C2090 0.950 . S
H2081 C2092 0.950 . S
H2082 C2094 0.950 . S
H2083 C2095 0.950 . S
C2084 H2076 0.950 . S
C2084 C2085 1.386 . S
C2084 C2086 1.391 . S
C2085 C2084 1.386 . S
C2085 C2089 1.393 . S
C2086 H2078 0.950 . S
C2086 C2084 1.391 . S
C2086 C2087 1.400 . S
C2087 C2086 1.400 . S
C2087 C2088 1.398 1_556 S
C2087 C2093 1.491 1_556 S
C2088 H2079 0.950 . S
C2088 C2087 1.398 1_554 S
C2088 C2089 1.391 1_554 S
C2089 H2077 0.950 . S
C2089 C2085 1.393 . S
C2089 C2088 1.391 1_556 S
C2090 H2080 0.950 . S
C2090 C2091 1.386 . S
C2090 C2092 1.391 . S
C2091 C2090 1.386 . S
C2091 C2095 1.393 . S
C2092 H2081 0.950 . S
C2092 C2090 1.391 . S
C2092 C2093 1.400 . S
C2093 C2087 1.491 1_554 S
C2093 C2092 1.400 . S
C2093 C2094 1.398 1_554 S
C2094 H2082 0.950 . S
C2094 C2093 1.398 1_556 S
C2094 C2095 1.391 1_556 S
C2095 H2083 0.950 . S
C2095 C2091 1.393 . S
C2095 C2094 1.391 1_554 S
H2096 C2104 0.950 . S
H2097 C2109 0.950 . S
H2098 C2106 0.950 . S
H2099 C2108 0.950 1_565 S
H2100 C2110 0.950 . S
H2101 C2112 0.950 . S
H2102 C2114 0.952 . S
H2103 C2115 0.950 . S
C2104 H2096 0.950 . S
C2104 C2105 1.386 . S
C2104 C2106 1.391 . S
C2105 C2104 1.386 . S
C2105 C2109 1.393 . S
C2106 H2098 0.950 . S
C2106 C2104 1.391 . S
C2106 C2107 1.400 . S
C2107 C2106 1.400 . S
C2107 C2108 1.398 . S
C2107 C2113 1.491 1_545 S
C2108 H2099 0.950 1_545 S
C2108 C2107 1.398 . S
C2108 C2109 1.391 . S
C2109 H2097 0.950 . S
C2109 C2105 1.393 . S
C2109 C2108 1.391 . S
C2110 H2100 0.950 . S
C2110 C2111 1.386 . S
C2110 C2112 1.391 . S
C2111 C2110 1.386 . S
C2111 C2115 1.393 . S
C2112 H2101 0.950 . S
C2112 C2110 1.391 . S
C2112 C2113 1.400 . S
C2113 C2107 1.491 1_565 S
C2113 C2112 1.400 . S
C2113 C2114 1.398 . S
C2114 H2102 0.952 . S
C2114 C2113 1.398 . S
C2114 C2115 1.391 . S
C2115 H2103 0.950 . S
C2115 C2111 1.393 . S
C2115 C2114 1.391 . S
H2116 C2124 0.950 . S
H2117 C2129 0.950 . S
H2118 C2126 0.950 . S
H2119 C2128 0.950 . S
H2120 C2130 0.950 . S
H2121 C2132 0.950 . S
H2122 C2134 0.950 . S
H2123 C2135 0.950 . S
C2124 H2116 0.950 . S
C2124 C2125 1.386 . S
C2124 C2126 1.391 . S
C2125 C2124 1.386 . S
C2125 C2129 1.393 . S
C2126 H2118 0.950 . S
C2126 C2124 1.391 . S
C2126 C2127 1.400 . S
C2127 C2126 1.400 . S
C2127 C2128 1.398 . S
C2127 C2133 1.491 . S
C2128 H2119 0.950 . S
C2128 C2127 1.398 . S
C2128 C2129 1.391 . S
C2129 H2117 0.950 . S
C2129 C2125 1.393 . S
C2129 C2128 1.391 . S
C2130 H2120 0.950 . S
C2130 C2131 1.386 . S
C2130 C2132 1.391 . S
C2131 C2130 1.386 . S
C2131 C2135 1.393 . S
C2132 H2121 0.950 . S
C2132 C2130 1.391 . S
C2132 C2133 1.400 . S
C2133 C2127 1.491 . S
C2133 C2132 1.400 . S
C2133 C2134 1.398 . S
C2134 H2122 0.950 . S
C2134 C2133 1.398 . S
C2134 C2135 1.391 . S
C2135 H2123 0.950 . S
C2135 C2131 1.393 . S
C2135 C2134 1.391 . S
H2136 C2144 0.950 . S
H2137 C2149 0.950 . S
H2138 C2146 0.950 . S
H2139 C2148 0.950 . S
H2140 C2150 0.950 . S
H2141 C2152 0.950 . S
H2142 C2154 0.950 . S
H2143 C2155 0.950 . S
C2144 H2136 0.950 . S
C2144 C2145 1.386 . S
C2144 C2146 1.391 . S
C2145 C2144 1.386 . S
C2145 C2149 1.393 . S
C2146 H2138 0.950 . S
C2146 C2144 1.391 . S
C2146 C2147 1.400 . S
C2147 C2146 1.400 . S
C2147 C2148 1.398 . S
C2147 C2153 1.491 1_545 S
C2148 H2139 0.950 . S
C2148 C2147 1.398 . S
C2148 C2149 1.391 . S
C2149 H2137 0.950 . S
C2149 C2145 1.393 . S
C2149 C2148 1.391 . S
C2150 H2140 0.950 . S
C2150 C2151 1.386 . S
C2150 C2152 1.391 . S
C2151 C2150 1.386 . S
C2151 C2155 1.393 . S
C2152 H2141 0.950 . S
C2152 C2150 1.391 . S
C2152 C2153 1.400 . S
C2153 C2147 1.491 1_565 S
C2153 C2152 1.400 . S
C2153 C2154 1.398 . S
C2154 H2142 0.950 . S
C2154 C2153 1.398 . S
C2154 C2155 1.391 . S
C2155 H2143 0.950 . S
C2155 C2151 1.393 . S
C2155 C2154 1.391 . S
H2156 C2164 0.950 . S
H2157 C2169 0.950 . S
H2158 C2166 0.950 . S
H2159 C2168 0.950 . S
H2160 C2170 0.950 . S
H2161 C2172 0.950 . S
H2162 C2174 0.950 . S
H2163 C2175 0.950 . S
C2164 H2156 0.950 . S
C2164 C2165 1.386 . S
C2164 C2166 1.391 1_556 S
C2165 C2164 1.386 . S
C2165 C2169 1.393 . S
C2166 H2158 0.950 . S
C2166 C2164 1.391 1_554 S
C2166 C2167 1.400 1_554 S
C2167 C2166 1.400 1_556 S
C2167 C2168 1.398 . S
C2167 C2173 1.491 1_556 S
C2168 H2159 0.950 . S
C2168 C2167 1.398 . S
C2168 C2169 1.391 . S
C2169 H2157 0.950 . S
C2169 C2165 1.393 . S
C2169 C2168 1.391 . S
C2170 H2160 0.950 . S
C2170 C2171 1.386 . S
C2170 C2172 1.391 1_554 S
C2171 C2170 1.386 . S
C2171 C2175 1.393 . S
C2172 H2161 0.950 . S
C2172 C2170 1.391 1_556 S
C2172 C2173 1.400 1_556 S
C2173 C2167 1.491 1_554 S
C2173 C2172 1.400 1_554 S
C2173 C2174 1.398 . S
C2174 H2162 0.950 . S
C2174 C2173 1.398 . S
C2174 C2175 1.391 . S
C2175 H2163 0.950 . S
C2175 C2171 1.393 . S
C2175 C2174 1.391 . S
H2176 C2184 0.950 . S
H2177 C2189 0.950 . S
H2178 C2186 0.950 . S
H2179 C2188 0.950 . S
H2180 C2190 0.950 . S
H2181 C2192 0.950 . S
H2182 C2194 0.950 . S
H2183 C2195 0.950 . S
C2184 H2176 0.950 . S
C2184 C2185 1.386 . S
C2184 C2186 1.391 . S
C2185 C2184 1.386 . S
C2185 C2189 1.393 . S
C2186 H2178 0.950 . S
C2186 C2184 1.391 . S
C2186 C2187 1.400 . S
C2187 C2186 1.400 . S
C2187 C2188 1.398 . S
C2187 C2193 1.491 . S
C2188 H2179 0.950 . S
C2188 C2187 1.398 . S
C2188 C2189 1.391 . S
C2189 H2177 0.950 . S
C2189 C2185 1.393 . S
C2189 C2188 1.391 . S
C2190 H2180 0.950 . S
C2190 C2191 1.386 . S
C2190 C2192 1.391 . S
C2191 C2190 1.386 . S
C2191 C2195 1.393 . S
C2192 H2181 0.950 . S
C2192 C2190 1.391 . S
C2192 C2193 1.400 . S
C2193 C2187 1.491 . S
C2193 C2192 1.400 . S
C2193 C2194 1.398 . S
C2194 H2182 0.950 . S
C2194 C2193 1.398 . S
C2194 C2195 1.391 . S
C2195 H2183 0.950 . S
C2195 C2191 1.393 . S
C2195 C2194 1.391 . S
H2196 C2204 0.950 . S
H2197 C2209 0.950 . S
H2198 C2206 0.961 . S
H2199 C2208 0.950 . S
H2200 C2210 0.950 . S
H2201 C2212 0.925 1_556 S
H2202 C2214 0.950 . S
H2203 C2215 0.950 . S
C2204 H2196 0.950 . S
C2204 C2205 1.386 . S
C2204 C2206 1.384 1_556 S
C2205 C2204 1.386 . S
C2205 C2209 1.393 . S
C2206 H2198 0.961 . S
C2206 C2204 1.384 1_554 S
C2206 C2207 1.396 1_554 S
C2207 C2206 1.396 1_556 S
C2207 C2208 1.398 . S
C2207 C2213 1.491 1_556 S
C2208 H2199 0.950 . S
C2208 C2207 1.398 . S
C2208 C2209 1.391 . S
C2209 H2197 0.950 . S
C2209 C2205 1.393 . S
C2209 C2208 1.391 . S
C2210 H2200 0.950 . S
C2210 C2211 1.386 . S
C2210 C2212 1.407 . S
C2211 C2210 1.386 . S
C2211 C2215 1.393 . S
C2212 H2201 0.925 1_554 S
C2212 C2210 1.407 . S
C2212 C2213 1.409 . S
C2213 C2207 1.491 1_554 S
C2213 C2212 1.409 . S
C2213 C2214 1.398 . S
C2214 H2202 0.950 . S
C2214 C2213 1.398 . S
C2214 C2215 1.391 . S
C2215 H2203 0.950 . S
C2215 C2211 1.393 . S
C2215 C2214 1.391 . S
H2216 C2224 0.950 . S
H2217 C2229 0.950 . S
H2218 C2226 0.950 . S
H2219 C2228 0.950 . S
H2220 C2230 0.950 . S
H2221 C2232 0.950 . S
H2222 C2234 0.950 . S
H2223 C2235 0.950 . S
C2224 H2216 0.950 . S
C2224 C2225 1.386 . S
C2224 C2226 1.391 . S
C2225 C2224 1.386 . S
C2225 C2229 1.393 . S
C2226 H2218 0.950 . S
C2226 C2224 1.391 . S
C2226 C2227 1.400 . S
C2227 C2226 1.400 . S
C2227 C2228 1.398 . S
C2227 C2233 1.491 . S
C2228 H2219 0.950 . S
C2228 C2227 1.398 . S
C2228 C2229 1.391 . S
C2229 H2217 0.950 . S
C2229 C2225 1.393 . S
C2229 C2228 1.391 . S
C2230 H2220 0.950 . S
C2230 C2231 1.386 . S
C2230 C2232 1.391 . S
C2231 C2230 1.386 . S
C2231 C2235 1.393 . S
C2232 H2221 0.950 . S
C2232 C2230 1.391 . S
C2232 C2233 1.400 . S
C2233 C2227 1.491 . S
C2233 C2232 1.400 . S
C2233 C2234 1.398 . S
C2234 H2222 0.950 . S
C2234 C2233 1.398 . S
C2234 C2235 1.391 . S
C2235 H2223 0.950 . S
C2235 C2231 1.393 . S
C2235 C2234 1.391 . S
H2236 C2244 0.950 . S
H2237 C2249 0.950 . S
H2238 C2246 0.950 . S
H2239 C2248 0.950 . S
H2240 C2250 0.950 . S
H2241 C2252 0.950 . S
H2242 C2254 0.950 . S
H2243 C2255 0.950 . S
C2244 H2236 0.950 . S
C2244 C2245 1.386 . S
C2244 C2246 1.391 . S
C2245 C2244 1.386 . S
C2245 C2249 1.393 . S
C2246 H2238 0.950 . S
C2246 C2244 1.391 . S
C2246 C2247 1.400 . S
C2247 C2246 1.400 . S
C2247 C2248 1.398 . S
C2247 C2253 1.491 . S
C2248 H2239 0.950 . S
C2248 C2247 1.398 . S
C2248 C2249 1.391 . S
C2249 H2237 0.950 . S
C2249 C2245 1.393 . S
C2249 C2248 1.391 . S
C2250 H2240 0.950 . S
C2250 C2251 1.386 . S
C2250 C2252 1.391 . S
C2251 C2250 1.386 . S
C2251 C2255 1.393 . S
C2252 H2241 0.950 . S
C2252 C2250 1.391 . S
C2252 C2253 1.400 . S
C2253 C2247 1.491 . S
C2253 C2252 1.400 . S
C2253 C2254 1.398 . S
C2254 H2242 0.950 . S
C2254 C2253 1.398 . S
C2254 C2255 1.391 . S
C2255 H2243 0.950 . S
C2255 C2251 1.393 . S
C2255 C2254 1.391 . S
H2256 C2264 0.950 . S
H2257 C2269 0.950 . S
H2258 C2266 0.950 . S
H2259 C2268 0.950 . S
H2260 C2270 0.950 . S
H2261 C2272 0.950 . S
H2262 C2274 0.950 . S
H2263 C2275 0.950 . S
C2264 H2256 0.950 . S
C2264 C2265 1.386 . S
C2264 C2266 1.391 . S
C2265 C2264 1.386 . S
C2265 C2269 1.393 . S
C2266 H2258 0.950 . S
C2266 C2264 1.391 . S
C2266 C2267 1.400 . S
C2267 C2266 1.400 . S
C2267 C2268 1.398 . S
C2267 C2273 1.491 . S
C2268 H2259 0.950 . S
C2268 C2267 1.398 . S
C2268 C2269 1.391 . S
C2269 H2257 0.950 . S
C2269 C2265 1.393 . S
C2269 C2268 1.391 . S
C2270 H2260 0.950 . S
C2270 C2271 1.386 . S
C2270 C2272 1.391 . S
C2271 C2270 1.386 . S
C2271 C2275 1.393 . S
C2272 H2261 0.950 . S
C2272 C2270 1.391 . S
C2272 C2273 1.400 . S
C2273 C2267 1.491 . S
C2273 C2272 1.400 . S
C2273 C2274 1.398 . S
C2274 H2262 0.950 . S
C2274 C2273 1.398 . S
C2274 C2275 1.391 . S
C2275 H2263 0.950 . S
C2275 C2271 1.393 . S
C2275 C2274 1.391 . S
H2276 C2284 0.950 . S
H2277 C2289 0.950 . S
H2278 C2286 0.950 1_554 S
H2279 C2288 0.950 . S
H2280 C2290 0.950 . S
H2281 C2292 0.950 . S
H2282 C2294 0.950 . S
H2283 C2295 0.950 . S
C2284 H2276 0.950 . S
C2284 C2285 1.386 . S
C2284 C2286 1.391 . S
C2285 C2284 1.386 . S
C2285 C2289 1.393 . S
C2286 H2278 0.950 1_556 S
C2286 C2284 1.391 . S
C2286 C2287 1.400 . S
C2287 C2286 1.400 . S
C2287 C2288 1.398 . S
C2287 C2293 1.491 1_556 S
C2288 H2279 0.950 . S
C2288 C2287 1.398 . S
C2288 C2289 1.391 . S
C2289 H2277 0.950 . S
C2289 C2285 1.393 . S
C2289 C2288 1.391 . S
C2290 H2280 0.950 . S
C2290 C2291 1.386 . S
C2290 C2292 1.391 1_554 S
C2291 C2290 1.386 . S
C2291 C2295 1.393 . S
C2292 H2281 0.950 . S
C2292 C2290 1.391 1_556 S
C2292 C2293 1.400 1_556 S
C2293 C2287 1.491 1_554 S
C2293 C2292 1.400 1_554 S
C2293 C2294 1.398 . S
C2294 H2282 0.950 . S
C2294 C2293 1.398 . S
C2294 C2295 1.391 . S
C2295 H2283 0.950 . S
C2295 C2291 1.393 . S
C2295 C2294 1.391 . S
H2296 C2304 0.950 . S
H2297 C2309 0.950 . S
H2298 C2306 0.950 . S
H2299 C2308 0.950 . S
H2300 C2310 0.950 . S
H2301 C2312 0.950 . S
H2302 C2314 0.950 . S
H2303 C2315 0.950 . S
C2304 H2296 0.950 . S
C2304 C2305 1.386 . S
C2304 C2306 1.391 . S
C2305 C2304 1.386 . S
C2305 C2309 1.393 . S
C2306 H2298 0.950 . S
C2306 C2304 1.391 . S
C2306 C2307 1.400 . S
C2307 C2306 1.400 . S
C2307 C2308 1.398 . S
C2307 C2313 1.491 . S
C2308 H2299 0.950 . S
C2308 C2307 1.398 . S
C2308 C2309 1.391 . S
C2309 H2297 0.950 . S
C2309 C2305 1.393 . S
C2309 C2308 1.391 . S
C2310 H2300 0.950 . S
C2310 C2311 1.386 . S
C2310 C2312 1.391 . S
C2311 C2310 1.386 . S
C2311 C2315 1.393 . S
C2312 H2301 0.950 . S
C2312 C2310 1.391 . S
C2312 C2313 1.400 . S
C2313 C2307 1.491 . S
C2313 C2312 1.400 . S
C2313 C2314 1.398 . S
C2314 H2302 0.950 . S
C2314 C2313 1.398 . S
C2314 C2315 1.391 . S
C2315 H2303 0.950 . S
C2315 C2311 1.393 . S
C2315 C2314 1.391 . S
H2316 C2324 0.950 . S
H2317 C2329 0.950 . S
H2318 C2326 0.950 . S
H2319 C2328 0.950 . S
H2320 C2330 0.950 . S
H2321 C2332 0.950 . S
H2322 C2334 0.950 . S
H2323 C2335 0.950 . S
C2324 H2316 0.950 . S
C2324 C2325 1.386 . S
C2324 C2326 1.391 . S
C2325 C2324 1.386 . S
C2325 C2329 1.393 . S
C2326 H2318 0.950 . S
C2326 C2324 1.391 . S
C2326 C2327 1.400 . S
C2327 C2326 1.400 . S
C2327 C2328 1.398 . S
C2327 C2333 1.491 . S
C2328 H2319 0.950 . S
C2328 C2327 1.398 . S
C2328 C2329 1.391 . S
C2329 H2317 0.950 . S
C2329 C2325 1.393 . S
C2329 C2328 1.391 . S
C2330 H2320 0.950 . S
C2330 C2331 1.386 . S
C2330 C2332 1.391 . S
C2331 C2330 1.386 . S
C2331 C2335 1.393 . S
C2332 H2321 0.950 . S
C2332 C2330 1.391 . S
C2332 C2333 1.400 . S
C2333 C2327 1.491 . S
C2333 C2332 1.400 . S
C2333 C2334 1.398 . S
C2334 H2322 0.950 . S
C2334 C2333 1.398 . S
C2334 C2335 1.391 . S
C2335 H2323 0.950 . S
C2335 C2331 1.393 . S
C2335 C2334 1.391 . S
H2336 C2344 0.950 . S
H2337 C2349 0.950 . S
H2338 C2346 0.950 . S
H2339 C2348 0.950 . S
H2340 C2350 0.950 . S
H2341 C2352 0.950 . S
H2342 C2354 0.950 . S
H2343 C2355 0.950 . S
C2344 H2336 0.950 . S
C2344 C2345 1.386 . S
C2344 C2346 1.391 . S
C2345 C2344 1.386 . S
C2345 C2349 1.393 . S
C2346 H2338 0.950 . S
C2346 C2344 1.391 . S
C2346 C2347 1.400 . S
C2347 C2346 1.400 . S
C2347 C2348 1.398 . S
C2347 C2353 1.491 . S
C2348 H2339 0.950 . S
C2348 C2347 1.398 . S
C2348 C2349 1.391 . S
C2349 H2337 0.950 . S
C2349 C2345 1.393 . S
C2349 C2348 1.391 . S
C2350 H2340 0.950 . S
C2350 C2351 1.386 . S
C2350 C2352 1.391 . S
C2351 C2350 1.386 . S
C2351 C2355 1.393 . S
C2352 H2341 0.950 . S
C2352 C2350 1.391 . S
C2352 C2353 1.400 . S
C2353 C2347 1.491 . S
C2353 C2352 1.400 . S
C2353 C2354 1.398 . S
C2354 H2342 0.950 . S
C2354 C2353 1.398 . S
C2354 C2355 1.391 . S
C2355 H2343 0.950 . S
C2355 C2351 1.393 . S
C2355 C2354 1.391 . S
H2356 C2364 0.950 . S
H2357 C2369 0.950 . S
H2358 C2366 0.950 . S
H2359 C2368 0.950 . S
H2360 C2370 0.950 . S
H2361 C2372 0.950 . S
H2362 C2374 0.950 . S
H2363 C2375 0.950 . S
C2364 H2356 0.950 . S
C2364 C2365 1.386 . S
C2364 C2366 1.391 . S
C2365 C2364 1.386 . S
C2365 C2369 1.393 . S
C2366 H2358 0.950 . S
C2366 C2364 1.391 . S
C2366 C2367 1.400 . S
C2367 C2366 1.400 . S
C2367 C2368 1.398 . S
C2367 C2373 1.491 . S
C2368 H2359 0.950 . S
C2368 C2367 1.398 . S
C2368 C2369 1.391 . S
C2369 H2357 0.950 . S
C2369 C2365 1.393 . S
C2369 C2368 1.391 . S
C2370 H2360 0.950 . S
C2370 C2371 1.386 . S
C2370 C2372 1.391 . S
C2371 C2370 1.386 . S
C2371 C2375 1.393 . S
C2372 H2361 0.950 . S
C2372 C2370 1.391 . S
C2372 C2373 1.400 . S
C2373 C2367 1.491 . S
C2373 C2372 1.400 . S
C2373 C2374 1.398 . S
C2374 H2362 0.950 . S
C2374 C2373 1.398 . S
C2374 C2375 1.391 . S
C2375 H2363 0.950 . S
C2375 C2371 1.393 . S
C2375 C2374 1.391 . S
H2376 C2384 0.950 . S
H2377 C2389 0.950 . S
H2378 C2386 0.950 . S
H2379 C2388 0.950 . S
H2380 C2390 0.950 . S
H2381 C2392 0.950 . S
H2382 C2394 0.950 . S
H2383 C2395 0.950 . S
C2384 H2376 0.950 . S
C2384 C2385 1.386 . S
C2384 C2386 1.391 . S
C2385 C2384 1.386 . S
C2385 C2389 1.393 . S
C2386 H2378 0.950 . S
C2386 C2384 1.391 . S
C2386 C2387 1.400 . S
C2387 C2386 1.400 . S
C2387 C2388 1.398 . S
C2387 C2393 1.491 . S
C2388 H2379 0.950 . S
C2388 C2387 1.398 . S
C2388 C2389 1.391 . S
C2389 H2377 0.950 . S
C2389 C2385 1.393 . S
C2389 C2388 1.391 . S
C2390 H2380 0.950 . S
C2390 C2391 1.386 . S
C2390 C2392 1.391 . S
C2391 C2390 1.386 . S
C2391 C2395 1.393 . S
C2392 H2381 0.950 . S
C2392 C2390 1.391 . S
C2392 C2393 1.400 . S
C2393 C2387 1.491 . S
C2393 C2392 1.400 . S
C2393 C2394 1.398 . S
C2394 H2382 0.950 . S
C2394 C2393 1.398 . S
C2394 C2395 1.391 . S
C2395 H2383 0.950 . S
C2395 C2391 1.393 . S
C2395 C2394 1.391 . S
H2396 C2404 0.950 . S
H2397 C2409 0.950 . S
H2398 C2406 0.950 . S
H2399 C2408 0.950 . S
H2400 C2410 0.950 . S
H2401 C2412 0.950 . S
H2402 C2414 0.950 . S
H2403 C2415 0.950 . S
C2404 H2396 0.950 . S
C2404 C2405 1.386 . S
C2404 C2406 1.391 . S
C2405 C2404 1.386 . S
C2405 C2409 1.393 . S
C2406 H2398 0.950 . S
C2406 C2404 1.391 . S
C2406 C2407 1.400 . S
C2407 C2406 1.400 . S
C2407 C2408 1.398 . S
C2407 C2413 1.491 . S
C2408 H2399 0.950 . S
C2408 C2407 1.398 . S
C2408 C2409 1.391 . S
C2409 H2397 0.950 . S
C2409 C2405 1.393 . S
C2409 C2408 1.391 . S
C2410 H2400 0.950 . S
C2410 C2411 1.386 . S
C2410 C2412 1.391 . S
C2411 C2410 1.386 . S
C2411 C2415 1.393 . S
C2412 H2401 0.950 . S
C2412 C2410 1.391 . S
C2412 C2413 1.400 . S
C2413 C2407 1.491 . S
C2413 C2412 1.400 . S
C2413 C2414 1.398 . S
C2414 H2402 0.950 . S
C2414 C2413 1.398 . S
C2414 C2415 1.391 . S
C2415 H2403 0.950 . S
C2415 C2411 1.393 . S
C2415 C2414 1.391 . S
H2416 C2424 0.950 . S
H2417 C2429 0.950 . S
H2418 C2426 0.950 . S
H2419 C2428 0.950 . S
H2420 C2430 0.950 . S
H2421 C2432 0.950 . S
H2422 C2434 0.950 . S
H2423 C2435 0.950 . S
C2424 H2416 0.950 . S
C2424 C2425 1.386 . S
C2424 C2426 1.391 . S
C2425 C2424 1.386 . S
C2425 C2429 1.393 . S
C2426 H2418 0.950 . S
C2426 C2424 1.391 . S
C2426 C2427 1.400 . S
C2427 C2426 1.400 . S
C2427 C2428 1.398 . S
C2427 C2433 1.491 . S
C2428 H2419 0.950 . S
C2428 C2427 1.398 . S
C2428 C2429 1.391 . S
C2429 H2417 0.950 . S
C2429 C2425 1.393 . S
C2429 C2428 1.391 . S
C2430 H2420 0.950 . S
C2430 C2431 1.386 . S
C2430 C2432 1.391 . S
C2431 C2430 1.386 . S
C2431 C2435 1.393 . S
C2432 H2421 0.950 . S
C2432 C2430 1.391 . S
C2432 C2433 1.400 . S
C2433 C2427 1.491 . S
C2433 C2432 1.400 . S
C2433 C2434 1.398 . S
C2434 H2422 0.950 . S
C2434 C2433 1.398 . S
C2434 C2435 1.391 . S
C2435 H2423 0.950 . S
C2435 C2431 1.393 . S
C2435 C2434 1.391 . S
H2436 C2444 0.950 . S
H2437 C2449 0.950 . S
H2438 C2446 0.950 . S
H2439 C2448 0.950 . S
H2440 C2450 0.950 . S
H2441 C2452 0.950 . S
H2442 C2454 0.950 . S
H2443 C2455 0.950 . S
C2444 H2436 0.950 . S
C2444 C2445 1.386 . S
C2444 C2446 1.391 . S
C2445 C2444 1.386 . S
C2445 C2449 1.393 . S
C2446 H2438 0.950 . S
C2446 C2444 1.391 . S
C2446 C2447 1.400 . S
C2447 C2446 1.400 . S
C2447 C2448 1.398 . S
C2447 C2453 1.491 . S
C2448 H2439 0.950 . S
C2448 C2447 1.398 . S
C2448 C2449 1.391 . S
C2449 H2437 0.950 . S
C2449 C2445 1.393 . S
C2449 C2448 1.391 . S
C2450 H2440 0.950 . S
C2450 C2451 1.386 . S
C2450 C2452 1.391 . S
C2451 C2450 1.386 . S
C2451 C2455 1.393 . S
C2452 H2441 0.950 . S
C2452 C2450 1.391 . S
C2452 C2453 1.400 . S
C2453 C2447 1.491 . S
C2453 C2452 1.400 . S
C2453 C2454 1.398 . S
C2454 H2442 0.950 . S
C2454 C2453 1.398 . S
C2454 C2455 1.391 . S
C2455 H2443 0.950 . S
C2455 C2451 1.393 . S
C2455 C2454 1.391 . S
H2456 C2464 0.950 . S
H2457 C2469 0.950 . S
H2458 C2466 0.950 . S
H2459 C2468 0.950 . S
H2460 C2470 0.950 . S
H2461 C2472 0.950 . S
H2462 C2474 0.950 . S
H2463 C2475 0.950 . S
C2464 H2456 0.950 . S
C2464 C2465 1.386 . S
C2464 C2466 1.391 . S
C2465 C2464 1.386 . S
C2465 C2469 1.393 . S
C2466 H2458 0.950 . S
C2466 C2464 1.391 . S
C2466 C2467 1.400 . S
C2467 C2466 1.400 . S
C2467 C2468 1.398 . S
C2467 C2473 1.491 . S
C2468 H2459 0.950 . S
C2468 C2467 1.398 . S
C2468 C2469 1.391 . S
C2469 H2457 0.950 . S
C2469 C2465 1.393 . S
C2469 C2468 1.391 . S
C2470 H2460 0.950 . S
C2470 C2471 1.386 . S
C2470 C2472 1.391 . S
C2471 C2470 1.386 . S
C2471 C2475 1.393 . S
C2472 H2461 0.950 . S
C2472 C2470 1.391 . S
C2472 C2473 1.400 . S
C2473 C2467 1.491 . S
C2473 C2472 1.400 . S
C2473 C2474 1.398 . S
C2474 H2462 0.950 . S
C2474 C2473 1.398 . S
C2474 C2475 1.391 . S
C2475 H2463 0.950 . S
C2475 C2471 1.393 . S
C2475 C2474 1.391 . S
H2476 C2484 0.950 . S
H2477 C2489 0.950 . S
H2478 C2486 0.950 . S
H2479 C2488 0.950 . S
H2480 C2490 0.950 . S
H2481 C2492 0.950 . S
H2482 C2494 0.950 . S
H2483 C2495 0.950 . S
C2484 H2476 0.950 . S
C2484 C2485 1.386 . S
C2484 C2486 1.391 . S
C2485 C2484 1.386 . S
C2485 C2489 1.393 . S
C2486 H2478 0.950 . S
C2486 C2484 1.391 . S
C2486 C2487 1.400 . S
C2487 C2486 1.400 . S
C2487 C2488 1.398 . S
C2487 C2493 1.491 . S
C2488 H2479 0.950 . S
C2488 C2487 1.398 . S
C2488 C2489 1.391 . S
C2489 H2477 0.950 . S
C2489 C2485 1.393 . S
C2489 C2488 1.391 . S
C2490 H2480 0.950 . S
C2490 C2491 1.386 . S
C2490 C2492 1.391 . S
C2491 C2490 1.386 . S
C2491 C2495 1.393 . S
C2492 H2481 0.950 . S
C2492 C2490 1.391 . S
C2492 C2493 1.400 . S
C2493 C2487 1.491 . S
C2493 C2492 1.400 . S
C2493 C2494 1.398 . S
C2494 H2482 0.950 . S
C2494 C2493 1.398 . S
C2494 C2495 1.391 . S
C2495 H2483 0.950 . S
C2495 C2491 1.393 . S
C2495 C2494 1.391 . S
H2496 C2504 0.950 . S
H2497 C2509 0.950 . S
H2498 C2506 0.950 . S
H2499 C2508 0.950 . S
H2500 C2510 0.950 . S
H2501 C2512 0.950 . S
H2502 C2514 0.950 . S
H2503 C2515 0.950 . S
C2504 H2496 0.950 . S
C2504 C2505 1.386 . S
C2504 C2506 1.391 . S
C2505 C2504 1.386 . S
C2505 C2509 1.393 . S
C2506 H2498 0.950 . S
C2506 C2504 1.391 . S
C2506 C2507 1.400 . S
C2507 C2506 1.400 . S
C2507 C2508 1.398 . S
C2507 C2513 1.491 . S
C2508 H2499 0.950 . S
C2508 C2507 1.398 . S
C2508 C2509 1.391 . S
C2509 H2497 0.950 . S
C2509 C2505 1.393 . S
C2509 C2508 1.391 . S
C2510 H2500 0.950 . S
C2510 C2511 1.386 . S
C2510 C2512 1.391 . S
C2511 C2510 1.386 . S
C2511 C2515 1.393 . S
C2512 H2501 0.950 . S
C2512 C2510 1.391 . S
C2512 C2513 1.400 . S
C2513 C2507 1.491 . S
C2513 C2512 1.400 . S
C2513 C2514 1.398 . S
C2514 H2502 0.950 . S
C2514 C2513 1.398 . S
C2514 C2515 1.391 . S
C2515 H2503 0.950 . S
C2515 C2511 1.393 . S
C2515 C2514 1.391 . S
H2516 C2524 0.950 . S
H2517 C2529 0.950 . S
H2518 C2526 0.950 . S
H2519 C2528 0.950 . S
H2520 C2530 0.950 . S
H2521 C2532 0.950 . S
H2522 C2534 0.950 . S
H2523 C2535 0.950 . S
C2524 H2516 0.950 . S
C2524 C2525 1.386 . S
C2524 C2526 1.391 . S
C2525 C2524 1.386 . S
C2525 C2529 1.393 . S
C2526 H2518 0.950 . S
C2526 C2524 1.391 . S
C2526 C2527 1.400 . S
C2527 C2526 1.400 . S
C2527 C2528 1.398 . S
C2527 C2533 1.491 . S
C2528 H2519 0.950 . S
C2528 C2527 1.398 . S
C2528 C2529 1.391 . S
C2529 H2517 0.950 . S
C2529 C2525 1.393 . S
C2529 C2528 1.391 . S
C2530 H2520 0.950 . S
C2530 C2531 1.386 . S
C2530 C2532 1.391 . S
C2531 C2530 1.386 . S
C2531 C2535 1.393 . S
C2532 H2521 0.950 . S
C2532 C2530 1.391 . S
C2532 C2533 1.400 . S
C2533 C2527 1.491 . S
C2533 C2532 1.400 . S
C2533 C2534 1.398 . S
C2534 H2522 0.950 . S
C2534 C2533 1.398 . S
C2534 C2535 1.391 . S
C2535 H2523 0.950 . S
C2535 C2531 1.393 . S
C2535 C2534 1.391 . S
H2536 C2544 0.950 . S
H2537 C2549 0.950 . S
H2538 C2546 0.950 . S
H2539 C2548 0.950 . S
H2540 C2550 0.950 . S
H2541 C2552 0.950 . S
H2542 C2554 0.950 . S
H2543 C2555 0.950 . S
C2544 H2536 0.950 . S
C2544 C2545 1.386 . S
C2544 C2546 1.391 . S
C2545 C2544 1.386 . S
C2545 C2549 1.393 . S
C2546 H2538 0.950 . S
C2546 C2544 1.391 . S
C2546 C2547 1.400 . S
C2547 C2546 1.400 . S
C2547 C2548 1.398 . S
C2547 C2553 1.491 . S
C2548 H2539 0.950 . S
C2548 C2547 1.398 . S
C2548 C2549 1.391 . S
C2549 H2537 0.950 . S
C2549 C2545 1.393 . S
C2549 C2548 1.391 . S
C2550 H2540 0.950 . S
C2550 C2551 1.386 . S
C2550 C2552 1.391 . S
C2551 C2550 1.386 . S
C2551 C2555 1.393 . S
C2552 H2541 0.950 . S
C2552 C2550 1.391 . S
C2552 C2553 1.400 . S
C2553 C2547 1.491 . S
C2553 C2552 1.400 . S
C2553 C2554 1.398 . S
C2554 H2542 0.950 . S
C2554 C2553 1.398 . S
C2554 C2555 1.391 . S
C2555 H2543 0.950 . S
C2555 C2551 1.393 . S
C2555 C2554 1.391 . S
H2556 C2564 0.950 . S
H2557 C2569 0.950 . S
H2558 C2566 0.950 . S
H2559 C2568 0.950 . S
H2560 C2570 0.950 . S
H2561 C2572 0.950 . S
H2562 C2574 0.950 . S
H2563 C2575 0.950 . S
C2564 H2556 0.950 . S
C2564 C2565 1.386 . S
C2564 C2566 1.391 . S
C2565 C2564 1.386 . S
C2565 C2569 1.393 . S
C2566 H2558 0.950 . S
C2566 C2564 1.391 . S
C2566 C2567 1.400 . S
C2567 C2566 1.400 . S
C2567 C2568 1.398 . S
C2567 C2573 1.491 . S
C2568 H2559 0.950 . S
C2568 C2567 1.398 . S
C2568 C2569 1.391 . S
C2569 H2557 0.950 . S
C2569 C2565 1.393 . S
C2569 C2568 1.391 . S
C2570 H2560 0.950 . S
C2570 C2571 1.386 . S
C2570 C2572 1.391 . S
C2571 C2570 1.386 . S
C2571 C2575 1.393 . S
C2572 H2561 0.950 . S
C2572 C2570 1.391 . S
C2572 C2573 1.400 . S
C2573 C2567 1.491 . S
C2573 C2572 1.400 . S
C2573 C2574 1.398 . S
C2574 H2562 0.950 . S
C2574 C2573 1.398 . S
C2574 C2575 1.391 . S
C2575 H2563 0.950 . S
C2575 C2571 1.393 . S
C2575 C2574 1.391 . S
H2576 C2584 0.950 . S
H2577 C2589 0.950 . S
H2578 C2586 0.950 . S
H2579 C2588 0.950 . S
H2580 C2590 0.950 . S
H2581 C2592 0.950 . S
H2582 C2594 0.950 . S
H2583 C2595 0.950 . S
C2584 H2576 0.950 . S
C2584 C2585 1.386 . S
C2584 C2586 1.391 . S
C2585 C2584 1.386 . S
C2585 C2589 1.393 . S
C2586 H2578 0.950 . S
C2586 C2584 1.391 . S
C2586 C2587 1.400 . S
C2587 C2586 1.400 . S
C2587 C2588 1.398 . S
C2587 C2593 1.491 . S
C2588 H2579 0.950 . S
C2588 C2587 1.398 . S
C2588 C2589 1.391 . S
C2589 H2577 0.950 . S
C2589 C2585 1.393 . S
C2589 C2588 1.391 . S
C2590 H2580 0.950 . S
C2590 C2591 1.386 . S
C2590 C2592 1.391 . S
C2591 C2590 1.386 . S
C2591 C2595 1.393 . S
C2592 H2581 0.950 . S
C2592 C2590 1.391 . S
C2592 C2593 1.400 . S
C2593 C2587 1.491 . S
C2593 C2592 1.400 . S
C2593 C2594 1.398 . S
C2594 H2582 0.950 . S
C2594 C2593 1.398 . S
C2594 C2595 1.391 . S
C2595 H2583 0.950 . S
C2595 C2591 1.393 . S
C2595 C2594 1.391 . S
H2596 C2604 0.950 . S
H2597 C2609 0.950 . S
H2598 C2606 0.950 . S
H2599 C2608 0.950 . S
H2600 C2610 0.950 . S
H2601 C2612 0.950 . S
H2602 C2614 0.950 . S
H2603 C2615 0.950 . S
C2604 H2596 0.950 . S
C2604 C2605 1.386 . S
C2604 C2606 1.391 . S
C2605 C2604 1.386 . S
C2605 C2609 1.393 . S
C2606 H2598 0.950 . S
C2606 C2604 1.391 . S
C2606 C2607 1.400 . S
C2607 C2606 1.400 . S
C2607 C2608 1.398 . S
C2607 C2613 1.491 . S
C2608 H2599 0.950 . S
C2608 C2607 1.398 . S
C2608 C2609 1.391 . S
C2609 H2597 0.950 . S
C2609 C2605 1.393 . S
C2609 C2608 1.391 . S
C2610 H2600 0.950 . S
C2610 C2611 1.386 . S
C2610 C2612 1.391 . S
C2611 C2610 1.386 . S
C2611 C2615 1.393 . S
C2612 H2601 0.950 . S
C2612 C2610 1.391 . S
C2612 C2613 1.400 . S
C2613 C2607 1.491 . S
C2613 C2612 1.400 . S
C2613 C2614 1.398 . S
C2614 H2602 0.950 . S
C2614 C2613 1.398 . S
C2614 C2615 1.391 . S
C2615 H2603 0.950 . S
C2615 C2611 1.393 . S
C2615 C2614 1.391 . S
H2616 C2624 0.950 . S
H2617 C2629 0.950 . S
H2618 C2626 0.950 . S
H2619 C2628 0.950 . S
H2620 C2630 0.950 . S
H2621 C2632 0.950 . S
H2622 C2634 0.950 . S
H2623 C2635 0.950 . S
C2624 H2616 0.950 . S
C2624 C2625 1.386 . S
C2624 C2626 1.391 . S
C2625 C2624 1.386 . S
C2625 C2629 1.393 . S
C2626 H2618 0.950 . S
C2626 C2624 1.391 . S
C2626 C2627 1.400 . S
C2627 C2626 1.400 . S
C2627 C2628 1.398 . S
C2627 C2633 1.491 . S
C2628 H2619 0.950 . S
C2628 C2627 1.398 . S
C2628 C2629 1.391 . S
C2629 H2617 0.950 . S
C2629 C2625 1.393 . S
C2629 C2628 1.391 . S
C2630 H2620 0.950 . S
C2630 C2631 1.386 . S
C2630 C2632 1.391 . S
C2631 C2630 1.386 . S
C2631 C2635 1.393 . S
C2632 H2621 0.950 . S
C2632 C2630 1.391 . S
C2632 C2633 1.400 . S
C2633 C2627 1.491 . S
C2633 C2632 1.400 . S
C2633 C2634 1.398 . S
C2634 H2622 0.950 . S
C2634 C2633 1.398 . S
C2634 C2635 1.391 . S
C2635 H2623 0.950 . S
C2635 C2631 1.393 . S
C2635 C2634 1.391 . S
H2636 C2644 0.950 . S
H2637 C2649 0.950 . S
H2638 C2646 0.950 . S
H2639 C2648 0.950 . S
H2640 C2650 0.950 . S
H2641 C2652 0.950 . S
H2642 C2654 0.950 . S
H2643 C2655 0.950 . S
C2644 H2636 0.950 . S
C2644 C2645 1.386 . S
C2644 C2646 1.391 . S
C2645 C2644 1.386 . S
C2645 C2649 1.393 . S
C2646 H2638 0.950 . S
C2646 C2644 1.391 . S
C2646 C2647 1.400 . S
C2647 C2646 1.400 . S
C2647 C2648 1.398 . S
C2647 C2653 1.491 . S
C2648 H2639 0.950 . S
C2648 C2647 1.398 . S
C2648 C2649 1.391 . S
C2649 H2637 0.950 . S
C2649 C2645 1.393 . S
C2649 C2648 1.391 . S
C2650 H2640 0.950 . S
C2650 C2651 1.386 . S
C2650 C2652 1.391 . S
C2651 C2650 1.386 . S
C2651 C2655 1.393 . S
C2652 H2641 0.950 . S
C2652 C2650 1.391 . S
C2652 C2653 1.400 . S
C2653 C2647 1.491 . S
C2653 C2652 1.400 . S
C2653 C2654 1.398 . S
C2654 H2642 0.950 . S
C2654 C2653 1.398 . S
C2654 C2655 1.391 . S
C2655 H2643 0.950 . S
C2655 C2651 1.393 . S
C2655 C2654 1.391 . S
C745 C19 1.653 . S
C751 C87 1.811 . S
C765 C21 1.800 . S
C771 C42 1.643 . S
C785 C66 1.644 . S
C791 C44 1.764 . S
C805 C64 1.796 . S
C811 C89 1.646 . S
C825 C136 1.797 . S
C831 C111 1.653 . S
C845 C134 1.671 . S
C851 C157 1.807 . S
C865 C182 1.781 . S
C871 C159 1.696 . S
C885 C113 1.788 . S
C891 C180 1.629 . S
C905 C203 1.663 . S
C911 C274 1.797 . S
C925 C226 1.644 . S
C931 C205 1.805 . S
C945 C249 1.640 . S
C951 C228 1.781 . S
C965 C272 1.637 . S
C971 C251 1.779 . S
C985 C295 1.633 . S
C991 C320 1.794 . S
C1005 C318 1.645 . S
C1011 C343 1.778 . S
C1025 C366 1.786 . S
C1031 C341 1.658 . S
C1045 C297 1.791 . S
C1051 C364 1.645 . S
C1065 C387 1.654 . S
C1071 C455 1.811 . S
C1085 C389 1.793 . S
C1091 C410 1.662 . S
C1105 C412 1.766 . S
C1111 C434 1.613 . S
C1125 C457 1.656 . S
C1131 C432 1.793 . S
C1145 C479 1.671 . S
C1151 C504 1.797 . S
C1165 C525 1.807 . S
C1171 C502 1.671 . S
C1185 C527 1.679 . S
C1191 C550 1.786 . S
C1205 C481 1.783 . S
C1211 C548 1.660 . S
C1225 C642 1.794 . S
C1231 C571 1.644 . S
C1245 C573 1.802 . S
C1251 C594 1.640 . S
C1265 C617 1.632 . S
C1271 C596 1.787 . S
C1285 C619 1.785 . S
C1291 C640 1.640 . S
C1305 C688 1.790 . S
C1311 C663 1.664 . S
C1325 C711 1.779 . S
C1331 C686 1.639 . S
C1345 C734 1.788 . S
C1351 C709 1.650 . S
C1365 C732 1.630 . S
C1371 C665 1.790 . S
C1385 C641 1.339 . S
C1391 C17 1.350 . S
C1405 C40 1.358 . S
C1411 C204 1.340 . S
C1425 C63 1.350 . S
C1431 C595 1.317 . S
C1445 C86 1.353 . S
C1451 C250 1.327 . S
C1465 C109 1.380 . S
C1471 C687 1.362 . S
C1485 C342 1.348 . S
C1491 C132 1.361 . S
C1505 C733 1.379 . S
C1511 C154 1.398 . S
C1525 C178 1.354 . S
C1531 C296 1.350 . S
C1545 C201 1.406 . S
C1551 C456 1.381 . S
C1565 C20 1.324 . S
C1571 C224 1.335 . S
C1585 C411 1.336 . S
C1591 C247 1.346 . S
C1605 C65 1.391 . S
C1611 C270 1.412 . S
C1625 C503 1.369 . S
C1631 C293 1.378 . S
C1645 C156 1.339 . S
C1651 C316 1.387 . S
C1665 C339 1.365 . S
C1671 C549 1.346 . S
C1685 C362 1.371 . S
C1691 C112 1.364 . S
C1705 C385 1.361 . S
C1711 C273 1.359 . S
C1725 C408 1.371 . S
C1731 C572 1.363 . S
C1745 C431 1.349 . S
C1751 C227 1.318 . S
C1765 C454 1.352 . S
C1771 C618 1.324 . S
C1785 C477 1.370 . S
C1791 C319 1.369 . S
C1805 C500 1.349 . S
C1811 C710 1.331 . S
C1825 C365 1.380 . S
C1831 C522 1.397 . S
C1845 C546 1.367 . S
C1851 C664 1.349 . S
C1865 C88 1.373 . S
C1871 C569 1.389 . S
C1885 C388 1.327 . S
C1891 C592 1.334 . S
C1905 C43 1.335 . S
C1911 C615 1.354 . S
C1925 C433 1.399 . S
C1931 C638 1.415 . S
C1945 C135 1.363 . S
C1951 C661 1.379 . S
C1965 C684 1.405 . S
C1971 C524 1.367 . S
C1985 C707 1.367 . S
C1991 C181 1.350 . S
C2005 C480 1.354 . S
C2011 C730 1.355 . S
C2025 C16 0.169 . S
C2031 C108 0.110 . S
C2045 C39 0.139 . S
C2051 C131 0.125 . S
C2065 C62 0.121 . S
C2071 C155 0.115 . S
C2085 C177 0.152 . S
C2091 C85 0.108 . S
C2105 C292 0.178 . S
C2111 C200 0.111 . S
C2125 C315 0.195 . S
C2131 C223 0.134 . S
C2145 C246 0.115 . S
C2151 C338 0.163 . S
C2165 C269 0.196 . S
C2171 C361 0.162 . S
C2185 C384 0.194 . S
C2191 C476 0.157 . S
C2205 C499 0.168 . S
C2211 C407 0.194 . S
C2225 C523 0.188 . S
C2231 C430 0.180 . S
C2245 C545 0.149 . S
C2251 C453 0.107 . S
C2265 C660 0.167 . S
C2271 C568 0.105 . S
C2285 C591 0.157 . S
C2291 C683 0.113 . S
C2305 C706 0.201 . S
C2311 C614 0.174 . S
C2325 C637 0.141 . S
C2331 C729 0.198 . S
C2345 C179 1.041 . S
C2351 C18 1.040 . S
C2365 C41 1.050 . S
C2371 C110 1.050 . S
C2385 C67 1.026 . S
C2391 C133 1.028 . S
C2405 C158 0.944 . S
C2411 C90 0.966 . S
C2425 C202 1.045 . S
C2431 C363 1.041 . S
C2445 C294 1.058 . S
C2451 C225 1.055 . S
C2465 C317 1.053 . S
C2471 C248 1.048 . S
C2485 C271 1.032 . S
C2491 C340 1.031 . S
C2505 C386 1.039 . S
C2511 C547 1.042 . S
C2525 C478 1.047 . S
C2531 C409 1.052 . S
C2545 C501 1.028 . S
C2551 C435 1.022 . S
C2565 C526 0.944 . S
C2571 C458 0.966 . S
C2585 C570 1.043 . S
C2591 C731 1.044 . S
C2605 C662 1.056 . S
C2611 C593 1.058 . S
C2625 C616 1.048 . S
C2631 C685 1.048 . S
C2645 C708 1.032 . S
C2651 C639 1.037 . S
