# Generated by pormake.
# Topology fcr, (5)-cn, num edge types: 1
# Building blocks:
#     Node 0, Type 0, BuildingBlock: XOMCOT_clean_sbu_1, # of connection points: 5
#     Node 1, Type 0, BuildingBlock: XOMCOT_clean_sbu_1, # of connection points: 5
#     Node 2, Type 0, BuildingBlock: XOMCOT_clean_sbu_1, # of connection points: 5
#     Node 3, Type 0, BuildingBlock: XOMCOT_clean_sbu_1, # of connection points: 5
#     Node 4, Type 0, BuildingBlock: XOMCOT_clean_sbu_1, # of connection points: 5
#     Node 5, Type 0, BuildingBlock: XOMCOT_clean_sbu_1, # of connection points: 5
#     Node 6, Type 0, BuildingBlock: XOMCOT_clean_sbu_1, # of connection points: 5
#     Node 7, Type 0, BuildingBlock: XOMCOT_clean_sbu_1, # of connection points: 5
#     Node 8, Type 0, BuildingBlock: XOMCOT_clean_sbu_1, # of connection points: 5
#     Node 9, Type 0, BuildingBlock: XOMCOT_clean_sbu_1, # of connection points: 5
#     Node 10, Type 0, BuildingBlock: XOMCOT_clean_sbu_1, # of connection points: 5
#     Node 11, Type 0, BuildingBlock: XOMCOT_clean_sbu_1, # of connection points: 5
#     Node 12, Type 0, BuildingBlock: XOMCOT_clean_sbu_1, # of connection points: 5
#     Node 13, Type 0, BuildingBlock: XOMCOT_clean_sbu_1, # of connection points: 5
#     Node 14, Type 0, BuildingBlock: XOMCOT_clean_sbu_1, # of connection points: 5
#     Node 15, Type 0, BuildingBlock: XOMCOT_clean_sbu_1, # of connection points: 5
#     Node 16, Type 0, BuildingBlock: XOMCOT_clean_sbu_1, # of connection points: 5
#     Node 17, Type 0, BuildingBlock: XOMCOT_clean_sbu_1, # of connection points: 5
#     Node 18, Type 0, BuildingBlock: XOMCOT_clean_sbu_1, # of connection points: 5
#     Node 19, Type 0, BuildingBlock: XOMCOT_clean_sbu_1, # of connection points: 5
#     Node 20, Type 0, BuildingBlock: XOMCOT_clean_sbu_1, # of connection points: 5
#     Node 21, Type 0, BuildingBlock: XOMCOT_clean_sbu_1, # of connection points: 5
#     Node 22, Type 0, BuildingBlock: XOMCOT_clean_sbu_1, # of connection points: 5
#     Node 23, Type 0, BuildingBlock: XOMCOT_clean_sbu_1, # of connection points: 5
#     Node 24, Type 0, BuildingBlock: XOMCOT_clean_sbu_1, # of connection points: 5
#     Node 25, Type 0, BuildingBlock: XOMCOT_clean_sbu_1, # of connection points: 5
#     Node 26, Type 0, BuildingBlock: XOMCOT_clean_sbu_1, # of connection points: 5
#     Node 27, Type 0, BuildingBlock: XOMCOT_clean_sbu_1, # of connection points: 5
#     Node 28, Type 0, BuildingBlock: XOMCOT_clean_sbu_1, # of connection points: 5
#     Node 29, Type 0, BuildingBlock: XOMCOT_clean_sbu_1, # of connection points: 5
#     Node 30, Type 0, BuildingBlock: XOMCOT_clean_sbu_1, # of connection points: 5
#     Node 31, Type 0, BuildingBlock: XOMCOT_clean_sbu_1, # of connection points: 5
#     Node 32, Type 0, BuildingBlock: XOMCOT_clean_sbu_1, # of connection points: 5
#     Node 33, Type 0, BuildingBlock: XOMCOT_clean_sbu_1, # of connection points: 5
#     Node 34, Type 0, BuildingBlock: XOMCOT_clean_sbu_1, # of connection points: 5
#     Node 35, Type 0, BuildingBlock: XOMCOT_clean_sbu_1, # of connection points: 5
#     Node 36, Type 0, BuildingBlock: XOMCOT_clean_sbu_1, # of connection points: 5
#     Node 37, Type 0, BuildingBlock: XOMCOT_clean_sbu_1, # of connection points: 5
#     Node 38, Type 0, BuildingBlock: XOMCOT_clean_sbu_1, # of connection points: 5
#     Node 39, Type 0, BuildingBlock: XOMCOT_clean_sbu_1, # of connection points: 5
#     Node 40, Type 0, BuildingBlock: XOMCOT_clean_sbu_1, # of connection points: 5
#     Node 41, Type 0, BuildingBlock: XOMCOT_clean_sbu_1, # of connection points: 5
#     Node 42, Type 0, BuildingBlock: XOMCOT_clean_sbu_1, # of connection points: 5
#     Node 43, Type 0, BuildingBlock: XOMCOT_clean_sbu_1, # of connection points: 5
#     Node 44, Type 0, BuildingBlock: XOMCOT_clean_sbu_1, # of connection points: 5
#     Node 45, Type 0, BuildingBlock: XOMCOT_clean_sbu_1, # of connection points: 5
#     Node 46, Type 0, BuildingBlock: XOMCOT_clean_sbu_1, # of connection points: 5
#     Node 47, Type 0, BuildingBlock: XOMCOT_clean_sbu_1, # of connection points: 5
#     Edge 48, Type (0, 0), BuildingBlock: KIFKEQ_clean_linker_1, # of connection points: 2
#     Edge 49, Type (0, 0), BuildingBlock: KIFKEQ_clean_linker_1, # of connection points: 2
#     Edge 50, Type (0, 0), BuildingBlock: KIFKEQ_clean_linker_1, # of connection points: 2
#     Edge 51, Type (0, 0), BuildingBlock: KIFKEQ_clean_linker_1, # of connection points: 2
#     Edge 52, Type (0, 0), BuildingBlock: KIFKEQ_clean_linker_1, # of connection points: 2
#     Edge 53, Type (0, 0), BuildingBlock: KIFKEQ_clean_linker_1, # of connection points: 2
#     Edge 54, Type (0, 0), BuildingBlock: KIFKEQ_clean_linker_1, # of connection points: 2
#     Edge 55, Type (0, 0), BuildingBlock: KIFKEQ_clean_linker_1, # of connection points: 2
#     Edge 56, Type (0, 0), BuildingBlock: KIFKEQ_clean_linker_1, # of connection points: 2
#     Edge 57, Type (0, 0), BuildingBlock: KIFKEQ_clean_linker_1, # of connection points: 2
#     Edge 58, Type (0, 0), BuildingBlock: KIFKEQ_clean_linker_1, # of connection points: 2
#     Edge 59, Type (0, 0), BuildingBlock: KIFKEQ_clean_linker_1, # of connection points: 2
#     Edge 60, Type (0, 0), BuildingBlock: KIFKEQ_clean_linker_1, # of connection points: 2
#     Edge 61, Type (0, 0), BuildingBlock: KIFKEQ_clean_linker_1, # of connection points: 2
#     Edge 62, Type (0, 0), BuildingBlock: KIFKEQ_clean_linker_1, # of connection points: 2
#     Edge 63, Type (0, 0), BuildingBlock: KIFKEQ_clean_linker_1, # of connection points: 2
#     Edge 64, Type (0, 0), BuildingBlock: KIFKEQ_clean_linker_1, # of connection points: 2
#     Edge 65, Type (0, 0), BuildingBlock: KIFKEQ_clean_linker_1, # of connection points: 2
#     Edge 66, Type (0, 0), BuildingBlock: KIFKEQ_clean_linker_1, # of connection points: 2
#     Edge 67, Type (0, 0), BuildingBlock: KIFKEQ_clean_linker_1, # of connection points: 2
#     Edge 68, Type (0, 0), BuildingBlock: KIFKEQ_clean_linker_1, # of connection points: 2
#     Edge 69, Type (0, 0), BuildingBlock: KIFKEQ_clean_linker_1, # of connection points: 2
#     Edge 70, Type (0, 0), BuildingBlock: KIFKEQ_clean_linker_1, # of connection points: 2
#     Edge 71, Type (0, 0), BuildingBlock: KIFKEQ_clean_linker_1, # of connection points: 2
#     Edge 72, Type (0, 0), BuildingBlock: KIFKEQ_clean_linker_1, # of connection points: 2
#     Edge 73, Type (0, 0), BuildingBlock: KIFKEQ_clean_linker_1, # of connection points: 2
#     Edge 74, Type (0, 0), BuildingBlock: KIFKEQ_clean_linker_1, # of connection points: 2
#     Edge 75, Type (0, 0), BuildingBlock: KIFKEQ_clean_linker_1, # of connection points: 2
#     Edge 76, Type (0, 0), BuildingBlock: KIFKEQ_clean_linker_1, # of connection points: 2
#     Edge 77, Type (0, 0), BuildingBlock: KIFKEQ_clean_linker_1, # of connection points: 2
#     Edge 78, Type (0, 0), BuildingBlock: KIFKEQ_clean_linker_1, # of connection points: 2
#     Edge 79, Type (0, 0), BuildingBlock: KIFKEQ_clean_linker_1, # of connection points: 2
#     Edge 80, Type (0, 0), BuildingBlock: KIFKEQ_clean_linker_1, # of connection points: 2
#     Edge 81, Type (0, 0), BuildingBlock: KIFKEQ_clean_linker_1, # of connection points: 2
#     Edge 82, Type (0, 0), BuildingBlock: KIFKEQ_clean_linker_1, # of connection points: 2
#     Edge 83, Type (0, 0), BuildingBlock: KIFKEQ_clean_linker_1, # of connection points: 2
#     Edge 84, Type (0, 0), BuildingBlock: KIFKEQ_clean_linker_1, # of connection points: 2
#     Edge 85, Type (0, 0), BuildingBlock: KIFKEQ_clean_linker_1, # of connection points: 2
#     Edge 86, Type (0, 0), BuildingBlock: KIFKEQ_clean_linker_1, # of connection points: 2
#     Edge 87, Type (0, 0), BuildingBlock: KIFKEQ_clean_linker_1, # of connection points: 2
#     Edge 88, Type (0, 0), BuildingBlock: KIFKEQ_clean_linker_1, # of connection points: 2
#     Edge 89, Type (0, 0), BuildingBlock: KIFKEQ_clean_linker_1, # of connection points: 2
#     Edge 90, Type (0, 0), BuildingBlock: KIFKEQ_clean_linker_1, # of connection points: 2
#     Edge 91, Type (0, 0), BuildingBlock: KIFKEQ_clean_linker_1, # of connection points: 2
#     Edge 92, Type (0, 0), BuildingBlock: KIFKEQ_clean_linker_1, # of connection points: 2
#     Edge 93, Type (0, 0), BuildingBlock: KIFKEQ_clean_linker_1, # of connection points: 2
#     Edge 94, Type (0, 0), BuildingBlock: KIFKEQ_clean_linker_1, # of connection points: 2
#     Edge 95, Type (0, 0), BuildingBlock: KIFKEQ_clean_linker_1, # of connection points: 2
#     Edge 96, Type (0, 0), BuildingBlock: KIFKEQ_clean_linker_1, # of connection points: 2
#     Edge 97, Type (0, 0), BuildingBlock: KIFKEQ_clean_linker_1, # of connection points: 2
#     Edge 98, Type (0, 0), BuildingBlock: KIFKEQ_clean_linker_1, # of connection points: 2
#     Edge 99, Type (0, 0), BuildingBlock: KIFKEQ_clean_linker_1, # of connection points: 2
#     Edge 100, Type (0, 0), BuildingBlock: KIFKEQ_clean_linker_1, # of connection points: 2
#     Edge 101, Type (0, 0), BuildingBlock: KIFKEQ_clean_linker_1, # of connection points: 2
#     Edge 102, Type (0, 0), BuildingBlock: KIFKEQ_clean_linker_1, # of connection points: 2
#     Edge 103, Type (0, 0), BuildingBlock: KIFKEQ_clean_linker_1, # of connection points: 2
#     Edge 104, Type (0, 0), BuildingBlock: KIFKEQ_clean_linker_1, # of connection points: 2
#     Edge 105, Type (0, 0), BuildingBlock: KIFKEQ_clean_linker_1, # of connection points: 2
#     Edge 106, Type (0, 0), BuildingBlock: KIFKEQ_clean_linker_1, # of connection points: 2
#     Edge 107, Type (0, 0), BuildingBlock: KIFKEQ_clean_linker_1, # of connection points: 2
#     Edge 108, Type (0, 0), BuildingBlock: KIFKEQ_clean_linker_1, # of connection points: 2
#     Edge 109, Type (0, 0), BuildingBlock: KIFKEQ_clean_linker_1, # of connection points: 2
#     Edge 110, Type (0, 0), BuildingBlock: KIFKEQ_clean_linker_1, # of connection points: 2
#     Edge 111, Type (0, 0), BuildingBlock: KIFKEQ_clean_linker_1, # of connection points: 2
#     Edge 112, Type (0, 0), BuildingBlock: KIFKEQ_clean_linker_1, # of connection points: 2
#     Edge 113, Type (0, 0), BuildingBlock: KIFKEQ_clean_linker_1, # of connection points: 2
#     Edge 114, Type (0, 0), BuildingBlock: KIFKEQ_clean_linker_1, # of connection points: 2
#     Edge 115, Type (0, 0), BuildingBlock: KIFKEQ_clean_linker_1, # of connection points: 2
#     Edge 116, Type (0, 0), BuildingBlock: KIFKEQ_clean_linker_1, # of connection points: 2
#     Edge 117, Type (0, 0), BuildingBlock: KIFKEQ_clean_linker_1, # of connection points: 2
#     Edge 118, Type (0, 0), BuildingBlock: KIFKEQ_clean_linker_1, # of connection points: 2
#     Edge 119, Type (0, 0), BuildingBlock: KIFKEQ_clean_linker_1, # of connection points: 2
#     Edge 120, Type (0, 0), BuildingBlock: KIFKEQ_clean_linker_1, # of connection points: 2
#     Edge 121, Type (0, 0), BuildingBlock: KIFKEQ_clean_linker_1, # of connection points: 2
#     Edge 122, Type (0, 0), BuildingBlock: KIFKEQ_clean_linker_1, # of connection points: 2
#     Edge 123, Type (0, 0), BuildingBlock: KIFKEQ_clean_linker_1, # of connection points: 2
#     Edge 124, Type (0, 0), BuildingBlock: KIFKEQ_clean_linker_1, # of connection points: 2
#     Edge 125, Type (0, 0), BuildingBlock: KIFKEQ_clean_linker_1, # of connection points: 2
#     Edge 126, Type (0, 0), BuildingBlock: KIFKEQ_clean_linker_1, # of connection points: 2
#     Edge 127, Type (0, 0), BuildingBlock: KIFKEQ_clean_linker_1, # of connection points: 2
#     Edge 128, Type (0, 0), BuildingBlock: KIFKEQ_clean_linker_1, # of connection points: 2
#     Edge 129, Type (0, 0), BuildingBlock: KIFKEQ_clean_linker_1, # of connection points: 2
#     Edge 130, Type (0, 0), BuildingBlock: KIFKEQ_clean_linker_1, # of connection points: 2
#     Edge 131, Type (0, 0), BuildingBlock: KIFKEQ_clean_linker_1, # of connection points: 2
#     Edge 132, Type (0, 0), BuildingBlock: KIFKEQ_clean_linker_1, # of connection points: 2
#     Edge 133, Type (0, 0), BuildingBlock: KIFKEQ_clean_linker_1, # of connection points: 2
#     Edge 134, Type (0, 0), BuildingBlock: KIFKEQ_clean_linker_1, # of connection points: 2
#     Edge 135, Type (0, 0), BuildingBlock: KIFKEQ_clean_linker_1, # of connection points: 2
#     Edge 136, Type (0, 0), BuildingBlock: KIFKEQ_clean_linker_1, # of connection points: 2
#     Edge 137, Type (0, 0), BuildingBlock: KIFKEQ_clean_linker_1, # of connection points: 2
#     Edge 138, Type (0, 0), BuildingBlock: KIFKEQ_clean_linker_1, # of connection points: 2
#     Edge 139, Type (0, 0), BuildingBlock: KIFKEQ_clean_linker_1, # of connection points: 2
#     Edge 140, Type (0, 0), BuildingBlock: KIFKEQ_clean_linker_1, # of connection points: 2
#     Edge 141, Type (0, 0), BuildingBlock: KIFKEQ_clean_linker_1, # of connection points: 2
#     Edge 142, Type (0, 0), BuildingBlock: KIFKEQ_clean_linker_1, # of connection points: 2
#     Edge 143, Type (0, 0), BuildingBlock: KIFKEQ_clean_linker_1, # of connection points: 2
#     Edge 144, Type (0, 0), BuildingBlock: KIFKEQ_clean_linker_1, # of connection points: 2
#     Edge 145, Type (0, 0), BuildingBlock: KIFKEQ_clean_linker_1, # of connection points: 2
#     Edge 146, Type (0, 0), BuildingBlock: KIFKEQ_clean_linker_1, # of connection points: 2
#     Edge 147, Type (0, 0), BuildingBlock: KIFKEQ_clean_linker_1, # of connection points: 2
#     Edge 148, Type (0, 0), BuildingBlock: KIFKEQ_clean_linker_1, # of connection points: 2
#     Edge 149, Type (0, 0), BuildingBlock: KIFKEQ_clean_linker_1, # of connection points: 2
#     Edge 150, Type (0, 0), BuildingBlock: KIFKEQ_clean_linker_1, # of connection points: 2
#     Edge 151, Type (0, 0), BuildingBlock: KIFKEQ_clean_linker_1, # of connection points: 2
#     Edge 152, Type (0, 0), BuildingBlock: KIFKEQ_clean_linker_1, # of connection points: 2
#     Edge 153, Type (0, 0), BuildingBlock: KIFKEQ_clean_linker_1, # of connection points: 2
#     Edge 154, Type (0, 0), BuildingBlock: KIFKEQ_clean_linker_1, # of connection points: 2
#     Edge 155, Type (0, 0), BuildingBlock: KIFKEQ_clean_linker_1, # of connection points: 2
#     Edge 156, Type (0, 0), BuildingBlock: KIFKEQ_clean_linker_1, # of connection points: 2
#     Edge 157, Type (0, 0), BuildingBlock: KIFKEQ_clean_linker_1, # of connection points: 2
#     Edge 158, Type (0, 0), BuildingBlock: KIFKEQ_clean_linker_1, # of connection points: 2
#     Edge 159, Type (0, 0), BuildingBlock: KIFKEQ_clean_linker_1, # of connection points: 2
#     Edge 160, Type (0, 0), BuildingBlock: KIFKEQ_clean_linker_1, # of connection points: 2
#     Edge 161, Type (0, 0), BuildingBlock: KIFKEQ_clean_linker_1, # of connection points: 2
#     Edge 162, Type (0, 0), BuildingBlock: KIFKEQ_clean_linker_1, # of connection points: 2
#     Edge 163, Type (0, 0), BuildingBlock: KIFKEQ_clean_linker_1, # of connection points: 2
#     Edge 164, Type (0, 0), BuildingBlock: KIFKEQ_clean_linker_1, # of connection points: 2
#     Edge 165, Type (0, 0), BuildingBlock: KIFKEQ_clean_linker_1, # of connection points: 2
#     Edge 166, Type (0, 0), BuildingBlock: KIFKEQ_clean_linker_1, # of connection points: 2
#     Edge 167, Type (0, 0), BuildingBlock: KIFKEQ_clean_linker_1, # of connection points: 2
# Relax obj value: 0.108
# Max RMSD: 0.137
# Mean RMSD: 0.137
data_MOF--net-fcr--node1-XOMCOT_clean_sbu_1--edge1-KIFKEQ_clean_linker_1
_symmetry_space_group_name_H-M    P1
_symmetry_Int_Tables_number       1
_symmetry_cell_setting            triclinic
loop_
_symmetry_equiv_pos_as_xyz
'x, y, z'
_cell_length_a     66.291071
_cell_length_b     66.218818
_cell_length_c     66.307451
_cell_angle_alpha  89.995892
_cell_angle_beta   90.030026
_cell_angle_gamma 89.969984
loop_
_atom_site_label
_atom_site_type_symbol
_atom_site_fract_x
_atom_site_fract_y
_atom_site_fract_z
_atom_type_partial_charge
C0 C 0.11818 0.34113 0.23578 0.0
C1 C 0.11541 0.35504 0.22059 0.0
N2 N 0.12459 0.3724 0.22594 0.0
N3 N 0.12874 0.34973 0.25088 0.0
C4 C 0.13264 0.36872 0.24435 0.0
H5 H 0.11325 0.32556 0.23564 0.0
Co6 Co 0.13843 0.33652 0.274 0.0
C7 C 0.12395 0.3694 0.30281 0.0
O8 O 0.10793 0.35907 0.30809 0.0
N9 N 0.14912 0.32322 0.2971 0.0
C10 C 0.15481 0.31185 0.32824 0.0
C11 C 0.14402 0.32533 0.31673 0.0
C12 C 0.16315 0.30831 0.29721 0.0
N13 N 0.16686 0.30113 0.31593 0.0
O14 O 0.16543 0.34344 0.26587 0.0
H15 H 0.13271 0.3354 0.32253 0.0
H16 H 0.16987 0.30209 0.28374 0.0
O17 O 0.13636 0.36204 0.2899 0.0
C18 C 0.17106 0.32993 0.25335 0.0
O19 O 0.15833 0.31541 0.24876 0.0
N20 N 0.11169 0.32715 0.28019 0.0
C21 C 0.0741 0.30758 0.28283 0.0
C22 C 0.07533 0.32809 0.27756 0.0
C23 C 0.09426 0.33755 0.27616 0.0
C24 C 0.11057 0.307 0.28461 0.0
C25 C 0.09208 0.29714 0.28649 0.0
H26 H 0.09492 0.35317 0.27141 0.0
H27 H 0.12408 0.298 0.28576 0.0
H28 H 0.14164 0.37945 0.25274 0.0
H29 H 0.10801 0.35226 0.20631 0.0
H30 H 0.15364 0.3099 0.3444 0.0
H31 H 0.06182 0.33669 0.27428 0.0
H32 H 0.09196 0.28111 0.28977 0.0
C33 C 0.58805 0.65406 0.03922 0.0
C34 C 0.60166 0.65699 0.05464 0.0
N35 N 0.61914 0.64788 0.04963 0.0
N36 N 0.59699 0.64352 0.02429 0.0
C37 C 0.61586 0.63976 0.03118 0.0
H38 H 0.57246 0.65888 0.03907 0.0
Co39 Co 0.58429 0.6335 1.00103 0.0
C40 C 0.61697 0.64867 0.97245 0.0
O41 O 0.60621 0.66437 0.96698 0.0
N42 N 0.5715 0.62242 0.97787 0.0
C43 C 0.56061 0.61582 0.94675 0.0
C44 C 0.57398 0.62688 0.95813 0.0
C45 C 0.55653 0.60848 0.97796 0.0
N46 N 0.54963 0.60424 0.95926 0.0
O47 O 0.59174 0.60667 1.00924 0.0
H48 H 0.58425 0.6379 0.95213 0.0
H49 H 0.55001 0.60229 0.99153 0.0
O50 O 0.60989 0.63611 0.98539 0.0
C51 C 0.57831 0.60075 0.02169 0.0
O52 O 0.56362 0.61324 0.02636 0.0
N53 N 0.5744 0.66005 0.99462 0.0
C54 C 0.55412 0.69721 0.99114 0.0
C55 C 0.57445 0.69648 0.99705 0.0
C56 C 0.58429 0.67775 0.99879 0.0
C57 C 0.55437 0.66072 0.98968 0.0
C58 C 0.54419 0.679 0.98732 0.0
H59 H 0.5998 0.67745 1.00387 0.0
H60 H 0.54567 0.64703 0.98842 0.0
H61 H 0.62682 0.63082 0.02301 0.0
H62 H 0.59863 0.66448 0.06883 0.0
H63 H 0.55891 0.61651 0.93052 0.0
H64 H 0.58259 0.71023 1.00051 0.0
H65 H 0.52829 0.6788 0.98351 0.0
C66 C 0.90425 0.18658 0.23569 0.0
C67 C 0.90725 0.17257 0.22066 0.0
N68 N 0.89756 0.15543 0.22575 0.0
N69 N 0.89304 0.17824 0.25048 0.0
C70 C 0.88901 0.15931 0.24388 0.0
H71 H 0.90935 0.20209 0.23557 0.0
Co72 Co 0.88237 0.19167 0.27311 0.0
C73 C 0.89798 0.16018 0.30294 0.0
O74 O 0.91311 0.17155 0.30873 0.0
N75 N 0.87079 0.20504 0.2955 0.0
C76 C 0.86357 0.2168 0.3261 0.0
C77 C 0.87497 0.20323 0.31536 0.0
C78 C 0.85662 0.21979 0.29466 0.0
N79 N 0.85207 0.22731 0.31308 0.0
O80 O 0.85578 0.18321 0.2651 0.0
H81 H 0.88598 0.19327 0.32189 0.0
H82 H 0.85049 0.22556 0.28068 0.0
O83 O 0.88556 0.16666 0.28958 0.0
C84 C 0.84996 0.19375 0.25006 0.0
O85 O 0.86214 0.20763 0.24284 0.0
N86 N 0.90856 0.20247 0.27935 0.0
C87 C 0.94514 0.22413 0.28127 0.0
C88 C 0.94498 0.20322 0.27748 0.0
C89 C 0.92656 0.19274 0.27633 0.0
C90 C 0.90861 0.22283 0.28276 0.0
C91 C 0.92654 0.23372 0.28429 0.0
H92 H 0.92674 0.1769 0.27235 0.0
H93 H 0.89466 0.23117 0.28341 0.0
H94 H 0.87945 0.14881 0.25194 0.0
H95 H 0.91508 0.17516 0.20657 0.0
H96 H 0.86399 0.21896 0.34228 0.0
H97 H 0.95886 0.19513 0.27455 0.0
H98 H 0.92567 0.24976 0.28734 0.0
C99 C 0.43492 0.86553 0.04003 0.0
C100 C 0.42113 0.86234 0.0552 0.0
N101 N 0.40375 0.87172 0.05025 0.0
N102 N 0.42628 0.87663 0.02534 0.0
C103 C 0.40735 0.88031 0.03205 0.0
H104 H 0.45049 0.86062 0.03997 0.0
Co105 Co 0.43946 0.88744 1.00268 0.0
C106 C 0.40501 0.87516 0.97456 0.0
O107 O 0.41323 0.85792 0.96943 0.0
N108 N 0.4524 0.89913 0.98016 0.0
C109 C 0.46303 0.90626 0.94914 0.0
C110 C 0.45005 0.89465 0.96042 0.0
C111 C 0.46683 0.91358 0.98043 0.0
N112 N 0.47358 0.91819 0.96175 0.0
O113 O 0.43328 0.91413 0.01242 0.0
H114 H 0.44006 0.88324 0.95452 0.0
H115 H 0.4729 0.92004 0.99411 0.0
O116 O 0.41394 0.88705 0.98693 0.0
C117 C 0.44613 0.91818 0.0262 0.0
O118 O 0.45981 0.90444 0.03049 0.0
N119 N 0.44829 0.86086 0.99481 0.0
C120 C 0.46775 0.82332 0.99057 0.0
C121 C 0.44746 0.82438 0.99654 0.0
C122 C 0.43803 0.84329 0.99865 0.0
C123 C 0.46826 0.85981 0.98968 0.0
C124 C 0.47802 0.84136 0.98692 0.0
H125 H 0.42264 0.84378 1.00404 0.0
H126 H 0.47732 0.87329 0.98873 0.0
H127 H 0.39664 0.88964 0.02399 0.0
H128 H 0.42407 0.85458 0.06926 0.0
H129 H 0.46471 0.90578 0.93291 0.0
H130 H 0.43908 0.81076 0.99991 0.0
H131 H 0.49391 0.84128 0.98309 0.0
C132 C 0.10922 0.67816 0.2846 0.0
C133 C 0.10643 0.66406 0.29958 0.0
N134 N 0.12144 0.65036 0.29857 0.0
N135 N 0.12588 0.67346 0.27389 0.0
C136 C 0.13303 0.6565 0.28289 0.0
H137 H 0.09994 0.69136 0.28222 0.0
Co138 Co 0.13822 0.68876 0.25307 0.0
C139 C 0.12724 0.6492 0.23303 0.0
O140 O 0.1126 0.64559 0.24588 0.0
N141 N 0.15066 0.70397 0.2329 0.0
C142 C 0.1597 0.71698 0.20339 0.0
C143 C 0.1479 0.70272 0.21279 0.0
C144 C 0.16408 0.71911 0.23538 0.0
N145 N 0.16993 0.72734 0.21761 0.0
O146 O 0.16438 0.68084 0.26272 0.0
H147 H 0.13767 0.69235 0.20542 0.0
H148 H 0.16938 0.72398 0.25001 0.0
O149 O 0.13752 0.6655 0.23448 0.0
C150 C 0.16857 0.69053 0.27882 0.0
O151 O 0.15494 0.70281 0.28637 0.0
N152 N 0.11306 0.6991 0.2448 0.0
C153 C 0.07775 0.7217 0.23883 0.0
C154 C 0.07989 0.70228 0.23038 0.0
C155 C 0.09778 0.69122 0.23342 0.0
C156 C 0.11146 0.71809 0.2525 0.0
C157 C 0.09413 0.72962 0.24965 0.0
H158 H 0.0991 0.67649 0.22672 0.0
H159 H 0.1238 0.72425 0.26122 0.0
H160 H 0.14661 0.64888 0.278 0.0
H161 H 0.09464 0.66445 0.31085 0.0
H162 H 0.16018 0.71985 0.18733 0.0
H163 H 0.06775 0.6955 0.22182 0.0
H164 H 0.09366 0.7447 0.25594 0.0
C165 C 0.93202 0.66855 0.98269 0.0
C166 C 0.91775 0.67094 0.96775 0.0
N167 N 0.90388 0.65614 0.96956 0.0
N168 N 0.92718 0.65241 0.9941 0.0
C169 C 0.91011 0.64509 0.98557 0.0
H170 H 0.94535 0.67773 0.98468 0.0
Co171 Co 0.94204 0.64057 0.01539 0.0
C172 C 0.90179 0.65124 0.03445 0.0
O173 O 0.89779 0.66544 0.02121 0.0
N174 N 0.95676 0.62849 0.03624 0.0
C175 C 0.96825 0.61953 0.06645 0.0
C176 C 0.95457 0.6314 0.05627 0.0
C177 C 0.97198 0.61501 0.03461 0.0
N178 N 0.97922 0.60921 0.0528 0.0
O179 O 0.93462 0.6142 1.00574 0.0
H180 H 0.94384 0.64164 0.06307 0.0
H181 H 0.97753 0.60944 0.02031 0.0
O182 O 0.91836 0.64136 0.03337 0.0
C183 C 0.9454 0.61032 0.99026 0.0
O184 O 0.95823 0.62412 0.98408 0.0
N185 N 0.95191 0.66598 0.02346 0.0
C186 C 0.97395 0.70182 0.02839 0.0
C187 C 0.95373 0.70043 0.03486 0.0
C188 C 0.94298 0.68227 0.03241 0.0
C189 C 0.97158 0.66694 0.01765 0.0
C190 C 0.98289 0.68443 0.02023 0.0
H191 H 0.92756 0.68165 0.03737 0.0
H192 H 0.97851 0.65393 1.01061 0.0
H193 H 0.90238 0.63188 0.99121 0.0
H194 H 0.91806 0.68235 0.95609 0.0
H195 H 0.97024 0.61888 0.08264 0.0
H196 H 0.94606 0.71336 0.04125 0.0
H197 H 0.99856 0.68423 0.01565 0.0
C198 C 0.91586 0.84422 0.28344 0.0
C199 C 0.91839 0.85789 0.29887 0.0
N200 N 0.90349 0.87173 0.29786 0.0
N201 N 0.89953 0.84939 0.27245 0.0
C202 C 0.89216 0.86602 0.28183 0.0
H203 H 0.92519 0.83111 0.28076 0.0
Co204 Co 0.88819 0.8352 0.25039 0.0
C205 C 0.89763 0.87668 0.23305 0.0
O206 O 0.91128 0.8809 0.24677 0.0
N207 N 0.8768 0.8211 0.22881 0.0
C208 C 0.87074 0.80974 0.19788 0.0
C209 C 0.88135 0.82354 0.20914 0.0
C210 C 0.86336 0.80574 0.22917 0.0
N211 N 0.85942 0.79852 0.21049 0.0
O212 O 0.86157 0.84179 0.25987 0.0
H213 H 0.8921 0.83437 0.20334 0.0
H214 H 0.85714 0.79953 0.24293 0.0
O215 O 0.88859 0.8596 0.23331 0.0
C216 C 0.8572 0.83107 0.27525 0.0
O217 O 0.8708 0.81842 0.28224 0.0
N218 N 0.9139 0.82624 0.24215 0.0
C219 C 0.94995 0.80549 0.23467 0.0
C220 C 0.94785 0.82596 0.22934 0.0
C221 C 0.92955 0.83607 0.23302 0.0
C222 C 0.91575 0.80641 0.24731 0.0
C223 C 0.93349 0.79574 0.24362 0.0
H224 H 0.92823 0.85164 0.22864 0.0
H225 H 0.90329 0.79885 0.25466 0.0
H226 H 0.87882 0.87392 0.27672 0.0
H227 H 0.93004 0.85723 0.31028 0.0
H228 H 0.87143 0.80801 0.18167 0.0
H229 H 0.96019 0.83402 0.22231 0.0
H230 H 0.93448 0.7801 0.24829 0.0
C231 C 0.09158 0.87175 0.98701 0.0
C232 C 0.10537 0.86836 0.97189 0.0
N233 N 0.12273 0.87778 0.97674 0.0
N234 N 0.10022 0.88299 1.0016 0.0
C235 C 0.11916 0.88658 0.99484 0.0
H236 H 0.07599 0.86694 0.98706 0.0
Co237 Co 0.08684 0.89419 0.02399 0.0
C238 C 0.11786 0.88004 0.05456 0.0
O239 O 0.10584 0.86582 0.06129 0.0
N240 N 0.07334 0.90643 0.04595 0.0
C241 C 0.06204 0.91675 0.07585 0.0
C242 C 0.07582 0.90469 0.0661 0.0
C243 C 0.058 0.91979 0.04393 0.0
N244 N 0.05078 0.92627 0.06188 0.0
O245 O 0.09481 0.92069 0.015 0.0
H246 H 0.0867 0.89529 0.0736 0.0
H247 H 0.05186 0.92419 0.02946 0.0
O248 O 0.11193 0.89187 0.04042 0.0
C249 C 0.0844 0.92593 0.99966 0.0
O250 O 0.07078 0.91336 0.99263 0.0
N251 N 0.07677 0.86798 0.03131 0.0
C252 C 0.05715 0.83063 0.03472 0.0
C253 C 0.07768 0.83154 0.02985 0.0
C254 C 0.08723 0.85037 0.02821 0.0
C255 C 0.05663 0.86708 0.03576 0.0
C256 C 0.0467 0.84863 0.03799 0.0
H257 H 0.10295 0.85081 0.02387 0.0
H258 H 0.04769 0.88065 0.03657 0.0
H259 H 0.12985 0.89606 1.00274 0.0
H260 H 0.10245 0.86049 0.95789 0.0
H261 H 0.06054 0.91842 0.09202 0.0
H262 H 0.08612 0.81787 0.02681 0.0
H263 H 0.03066 0.84847 0.04114 0.0
C264 C 0.23366 0.11831 0.33736 0.0
C265 C 0.21782 0.11481 0.35026 0.0
N266 N 0.22157 0.12435 0.36783 0.0
N267 N 0.24753 0.12987 0.34673 0.0
C268 C 0.23977 0.13326 0.36533 0.0
H269 H 0.23451 0.11366 0.32174 0.0
Co270 Co 0.26944 0.14262 0.33409 0.0
C271 C 0.30271 0.12882 0.36107 0.0
O272 O 0.31155 0.12038 0.34546 0.0
N273 N 0.29087 0.15669 0.32131 0.0
C274 C 0.31793 0.17561 0.31472 0.0
C275 C 0.30869 0.1634 0.32868 0.0
C276 C 0.28929 0.16609 0.30323 0.0
N277 N 0.30572 0.1773 0.29863 0.0
O278 O 0.26005 0.1682 0.34399 0.0
H279 H 0.3143 0.16106 0.34374 0.0
H280 H 0.276 0.16506 0.29383 0.0
O281 O 0.28605 0.13837 0.35861 0.0
C282 C 0.24499 0.17404 0.33351 0.0
O283 O 0.23834 0.16227 0.31901 0.0
N284 N 0.27725 0.1173 0.32233 0.0
C285 C 0.28136 0.08057 0.30123 0.0
C286 C 0.27931 0.08086 0.32236 0.0
C287 C 0.27714 0.09933 0.33258 0.0
C288 C 0.27909 0.11712 0.30183 0.0
C289 C 0.2817 0.09918 0.29116 0.0
H290 H 0.27456 0.09915 0.34869 0.0
H291 H 0.27746 0.13076 0.29327 0.0
H292 H 0.24655 0.1434 0.37619 0.0
H293 H 0.20416 0.10663 0.34665 0.0
H294 H 0.33208 0.18348 0.31679 0.0
H295 H 0.27849 0.06694 0.33089 0.0
H296 H 0.2834 0.10002 0.27495 0.0
C297 C 0.36231 0.53894 0.93373 0.0
C298 C 0.3598 0.55418 0.91982 0.0
N299 N 0.37368 0.55191 0.90513 0.0
N300 N 0.37759 0.52685 0.92786 0.0
C301 C 0.38435 0.53532 0.91052 0.0
H302 H 0.35383 0.53721 0.94754 0.0
Co303 Co 0.38886 0.5048 0.94207 0.0
C304 C 0.37635 0.48635 0.90184 0.0
O305 O 0.36279 0.50025 0.8978 0.0
N306 N 0.40026 0.48314 0.95616 0.0
C307 C 0.4059 0.45229 0.96802 0.0
C308 C 0.39524 0.4635 0.95422 0.0
C309 C 0.41405 0.48352 0.97121 0.0
N310 N 0.41772 0.46488 0.97876 0.0
O311 O 0.41536 0.51293 0.93361 0.0
H312 H 0.3841 0.45772 0.94379 0.0
H313 H 0.42063 0.49728 0.97704 0.0
O314 O 0.38639 0.48709 0.91832 0.0
C315 C 0.42096 0.52854 0.94338 0.0
O316 O 0.40849 0.53653 0.95656 0.0
N317 N 0.36337 0.49797 0.9528 0.0
C318 C 0.32792 0.49418 0.97575 0.0
C319 C 0.32827 0.48896 0.95511 0.0
C320 C 0.34622 0.49078 0.94393 0.0
C321 C 0.36337 0.50273 0.97278 0.0
C322 C 0.34609 0.50063 0.98453 0.0
H323 H 0.34599 0.48686 0.92821 0.0
H324 H 0.37699 0.50852 0.97966 0.0
H325 H 0.39688 0.52927 0.90201 0.0
H326 H 0.349 0.56638 0.92093 0.0
H327 H 0.40485 0.43612 0.97014 0.0
H328 H 0.31474 0.48402 0.94745 0.0
H329 H 0.34711 0.50421 1.00041 0.0
C330 C 0.78925 0.4102 0.33779 0.0
C331 C 0.80408 0.41314 0.35202 0.0
N332 N 0.79881 0.40328 0.36901 0.0
N333 N 0.77442 0.3988 0.34578 0.0
C334 C 0.78075 0.39468 0.36477 0.0
H335 H 0.78957 0.41545 0.32235 0.0
Co336 Co 0.75212 0.38812 0.33177 0.0
C337 C 0.72132 0.4031 0.36265 0.0
O338 O 0.7155 0.41827 0.35133 0.0
N339 N 0.72998 0.37662 0.31781 0.0
C340 C 0.69957 0.36999 0.30522 0.0
C341 C 0.71021 0.38151 0.3187 0.0
C342 C 0.73086 0.36194 0.30358 0.0
N343 N 0.71254 0.3577 0.2956 0.0
O344 O 0.75998 0.36146 0.34018 0.0
H345 H 0.7037 0.39311 0.32792 0.0
H346 H 0.74481 0.35512 0.29853 0.0
O347 O 0.7351 0.39102 0.35639 0.0
C348 C 0.77526 0.35574 0.32996 0.0
O349 O 0.78284 0.36811 0.31645 0.0
N350 N 0.74604 0.41431 0.32109 0.0
C351 C 0.74294 0.45096 0.29991 0.0
C352 C 0.74592 0.45078 0.32089 0.0
C353 C 0.74794 0.43229 0.33113 0.0
C354 C 0.74374 0.41442 0.30061 0.0
C355 C 0.74181 0.43241 0.28986 0.0
H356 H 0.75138 0.43243 0.34708 0.0
H357 H 0.74416 0.40047 0.2922 0.0
H358 H 0.77254 0.385 0.37505 0.0
H359 H 0.81816 0.42105 0.34965 0.0
H360 H 0.68349 0.37085 0.30249 0.0
H361 H 0.74748 0.46477 0.3292 0.0
H362 H 0.73979 0.43174 0.27366 0.0
C363 C 0.65161 0.98433 0.94206 0.0
C364 C 0.65451 0.96847 0.929 0.0
N365 N 0.64605 0.97317 0.91109 0.0
N366 N 0.64164 0.99924 0.93246 0.0
C367 C 0.6384 0.992 0.91363 0.0
H368 H 0.65597 0.98476 0.95778 0.0
Co369 Co 0.63116 0.02255 0.94484 0.0
C370 C 0.64723 0.05154 0.91304 0.0
O371 O 0.66193 0.05766 0.92479 0.0
N372 N 0.61966 0.04551 0.95738 0.0
C373 C 0.6119 0.07648 0.96792 0.0
C374 C 0.62324 0.06541 0.95459 0.0
C375 C 0.60585 0.045 0.97244 0.0
N376 N 0.60099 0.06365 0.97923 0.0
O377 O 0.60462 0.01455 0.93631 0.0
H378 H 0.6337 0.07182 0.94403 0.0
H379 H 0.60016 0.03114 0.97892 0.0
O380 O 0.63476 0.03814 0.91937 0.0
C381 C 0.59834 0.9999 0.9471 0.0
O382 O 0.60996 0.99304 0.96162 0.0
N383 N 0.65737 0.02895 0.95545 0.0
C384 C 0.69438 0.03202 0.97596 0.0
C385 C 0.69372 0.02647 0.95554 0.0
C386 C 0.67509 0.02492 0.94559 0.0
C387 C 0.65791 0.03385 0.97549 0.0
C388 C 0.67615 0.03593 0.98583 0.0
H389 H 0.67489 0.02008 0.93001 0.0
H390 H 0.64415 0.03527 0.98403 0.0
H391 H 0.62961 0.99995 0.9024 0.0
H392 H 0.66199 0.95441 0.93263 0.0
H393 H 0.61189 0.09277 0.96931 0.0
H394 H 0.70746 0.02309 0.94738 0.0
H395 H 0.67589 0.03957 1.00175 0.0
C396 C 0.23679 0.90758 0.18779 0.0
C397 C 0.22184 0.91106 0.17381 0.0
N398 N 0.22691 0.90172 0.15646 0.0
N399 N 0.25147 0.89636 0.17929 0.0
C400 C 0.24494 0.89286 0.16025 0.0
H401 H 0.23675 0.91247 0.20336 0.0
Co402 Co 0.27404 0.8855 0.19267 0.0
C403 C 0.30357 0.8983 0.15995 0.0
O404 O 0.30988 0.9138 0.17053 0.0
N405 N 0.29641 0.87369 0.20607 0.0
C406 C 0.32708 0.86587 0.21737 0.0
C407 C 0.31633 0.87741 0.20392 0.0
C408 C 0.29555 0.85969 0.22098 0.0
N409 N 0.314 0.85472 0.22814 0.0
O410 O 0.26441 0.85882 0.18614 0.0
H411 H 0.32291 0.88817 0.19375 0.0
H412 H 0.28159 0.85384 0.22705 0.0
O413 O 0.28999 0.88652 0.16713 0.0
C414 C 0.25031 0.85489 0.19867 0.0
O415 O 0.24599 0.86857 0.21239 0.0
N416 N 0.28168 0.91204 0.20163 0.0
C417 C 0.28525 0.94991 0.22047 0.0
C418 C 0.27994 0.94845 0.20002 0.0
C419 C 0.27815 0.9294 0.19092 0.0
C420 C 0.28644 0.91341 0.22167 0.0
C421 C 0.2888 0.93207 0.23117 0.0
H422 H 0.27339 0.92861 0.17533 0.0
H423 H 0.2874 0.90003 0.2309 0.0
H424 H 0.25304 0.88354 0.14958 0.0
H425 H 0.20786 0.91904 0.17655 0.0
H426 H 0.34331 0.86586 0.21919 0.0
H427 H 0.27682 0.96189 0.19125 0.0
H428 H 0.29221 0.93246 0.24715 0.0
C429 C 0.15388 0.54036 0.0861 0.0
C430 C 0.15641 0.55669 0.09869 0.0
N431 N 0.14731 0.55266 0.11644 0.0
N432 N 0.14347 0.5259 0.09588 0.0
C433 C 0.1396 0.53384 0.11429 0.0
H434 H 0.15886 0.53927 0.07061 0.0
Co435 Co 0.13342 0.50216 0.08426 0.0
C436 C 0.1469 0.47289 0.11603 0.0
O437 O 0.15864 0.46404 0.10276 0.0
N438 N 0.12197 0.47866 0.07224 0.0
C439 C 0.10659 0.44934 0.06592 0.0
C440 C 0.11712 0.46039 0.07998 0.0
C441 C 0.11347 0.47841 0.05365 0.0
N442 N 0.10427 0.46072 0.04928 0.0
O443 O 0.10657 0.51104 0.09067 0.0
H444 H 0.11986 0.45539 0.09517 0.0
H445 H 0.11361 0.4913 0.04366 0.0
O446 O 0.13591 0.48792 0.11062 0.0
C447 C 0.10074 0.52216 0.07605 0.0
O448 O 0.11339 0.52559 0.06119 0.0
N449 N 0.16018 0.49491 0.0757 0.0
C450 C 0.19872 0.49092 0.0586 0.0
C451 C 0.19646 0.49663 0.07885 0.0
C452 C 0.17705 0.49846 0.08715 0.0
C453 C 0.1624 0.48978 0.05585 0.0
C454 C 0.18141 0.48718 0.04722 0.0
H455 H 0.17555 0.50337 0.10263 0.0
H456 H 0.14956 0.48875 0.04605 0.0
H457 H 0.13039 0.52634 0.12548 0.0
H458 H 0.16413 0.57056 0.09488 0.0
H459 H 0.10083 0.43421 0.06803 0.0
H460 H 0.20955 0.50001 0.08803 0.0
H461 H 0.18254 0.48343 0.03135 0.0
C462 C 0.78792 0.61164 0.17398 0.0
C463 C 0.80311 0.60919 0.16007 0.0
N464 N 0.8026 0.62487 0.14715 0.0
N465 N 0.77758 0.62874 0.16987 0.0
C466 C 0.78704 0.63649 0.15345 0.0
H467 H 0.78507 0.60167 0.18654 0.0
Co468 Co 0.75642 0.64072 0.18503 0.0
C469 C 0.73701 0.63002 0.14509 0.0
O470 O 0.7503 0.61581 0.14127 0.0
N471 N 0.73595 0.65271 0.20009 0.0
C472 C 0.70617 0.66117 0.21288 0.0
C473 C 0.71589 0.64971 0.19855 0.0
C474 C 0.73809 0.66589 0.21547 0.0
N475 N 0.72015 0.67138 0.22356 0.0
O476 O 0.76584 0.66713 0.17749 0.0
H477 H 0.70877 0.6395 0.18801 0.0
H478 H 0.7526 0.67126 0.22064 0.0
O479 O 0.73804 0.64 0.16159 0.0
C480 C 0.78183 0.67143 0.18732 0.0
O481 O 0.78942 0.65781 0.19959 0.0
N482 N 0.74834 0.61539 0.19496 0.0
C483 C 0.74156 0.58006 0.21722 0.0
C484 C 0.73257 0.58285 0.19815 0.0
C485 C 0.73603 0.60075 0.18726 0.0
C486 C 0.75681 0.61306 0.21352 0.0
C487 C 0.75379 0.59559 0.22479 0.0
H488 H 0.72871 0.60273 0.17289 0.0
H489 H 0.76639 0.62488 0.21947 0.0
H490 H 0.7825 0.65041 0.14622 0.0
H491 H 0.81409 0.59709 0.15995 0.0
H492 H 0.69008 0.66137 0.21562 0.0
H493 H 0.72276 0.57142 0.19181 0.0
H494 H 0.76139 0.59415 0.23917 0.0
C495 C 0.86705 0.98731 0.08883 0.0
C496 C 0.86431 0.97159 0.10214 0.0
N497 N 0.87476 0.97562 0.11911 0.0
N498 N 0.87888 1.00143 0.09747 0.0
C499 C 0.88347 0.99381 0.11585 0.0
H500 H 0.86131 0.98813 0.07358 0.0
Co501 Co 0.88952 0.0245 0.08503 0.0
C502 C 0.87617 0.05558 0.1149 0.0
O503 O 0.86565 0.06455 0.10069 0.0
N504 N 0.9015 0.04735 0.07233 0.0
C505 C 0.91894 0.0755 0.06587 0.0
C506 C 0.9078 0.06521 0.08004 0.0
C507 C 0.90982 0.047 0.05368 0.0
N508 N 0.92015 0.06399 0.04924 0.0
O509 O 0.91617 0.01574 0.09232 0.0
H510 H 0.90594 0.07018 0.09538 0.0
H511 H 0.90927 0.03395 0.04387 0.0
O512 O 0.88652 0.03977 0.11064 0.0
C513 C 0.9217 1.00372 0.07832 0.0
O514 O 0.90866 0.99955 0.06396 0.0
N515 N 0.86313 0.03151 0.07545 0.0
C516 C 0.82527 0.03341 0.05621 0.0
C517 C 0.8267 0.0311 0.07727 0.0
C518 C 0.84577 0.03 0.08657 0.0
C519 C 0.86179 0.03374 0.05504 0.0
C520 C 0.84326 0.03531 0.0453 0.0
H521 H 0.84659 0.02698 0.10258 0.0
H522 H 0.875 0.03302 0.04576 0.0
H523 H 0.89347 1.00125 0.1264 0.0
H524 H 0.85604 0.95781 0.09916 0.0
H525 H 0.92612 0.09003 0.06794 0.0
H526 H 0.81329 0.02916 0.08637 0.0
H527 H 0.84317 0.03729 0.02909 0.0
C528 C 0.34267 0.24135 0.10781 0.0
C529 C 0.35677 0.22625 0.10554 0.0
N530 N 0.36992 0.22725 0.12102 0.0
N531 N 0.34685 0.25209 0.1246 0.0
C532 C 0.3635 0.24302 0.13233 0.0
H533 H 0.32991 0.24384 0.09799 0.0
Co534 Co 0.33175 0.2734 0.13638 0.0
C535 C 0.37161 0.29251 0.12558 0.0
O536 O 0.37434 0.28023 0.11026 0.0
N537 N 0.31679 0.29417 0.14831 0.0
C538 C 0.30551 0.32421 0.15818 0.0
C539 C 0.31956 0.31428 0.14653 0.0
C540 C 0.30085 0.29225 0.16086 0.0
N541 N 0.29373 0.31032 0.16721 0.0
O542 O 0.33857 0.26349 0.16276 0.0
H543 H 0.33102 0.32133 0.13731 0.0
H544 H 0.29475 0.27783 0.16548 0.0
O545 O 0.35557 0.29115 0.13624 0.0
C546 C 0.32678 0.24869 0.16641 0.0
O547 O 0.3142 0.2431 0.15213 0.0
N548 N 0.32231 0.28178 0.11096 0.0
C549 C 0.30084 0.28655 0.07488 0.0
C550 C 0.31955 0.29621 0.07775 0.0
C551 C 0.33006 0.29375 0.09607 0.0
C552 C 0.3037 0.27336 0.10876 0.0
C553 C 0.29278 0.2755 0.09099 0.0
H554 H 0.34428 0.30135 0.09802 0.0
H555 H 0.29749 0.26439 0.12089 0.0
H556 H 0.37074 0.24795 0.1461 0.0
H557 H 0.35679 0.21494 0.09377 0.0
H558 H 0.30392 0.34041 0.15963 0.0
H559 H 0.32623 0.30514 0.06582 0.0
H560 H 0.27815 0.26832 0.08985 0.0
C561 C 0.33807 0.78796 0.40869 0.0
C562 C 0.35193 0.80318 0.41145 0.0
N563 N 0.36876 0.79849 0.40106 0.0
N564 N 0.34619 0.77346 0.39693 0.0
C565 C 0.36486 0.7804 0.39237 0.0
H566 H 0.32276 0.78779 0.41433 0.0
Co567 Co 0.33265 0.75089 0.38628 0.0
C568 C 0.36373 0.72029 0.40136 0.0
O569 O 0.35186 0.71381 0.4158 0.0
N570 N 0.31897 0.72856 0.37474 0.0
C571 C 0.30722 0.69804 0.36696 0.0
C572 C 0.32109 0.70855 0.37814 0.0
C573 C 0.3037 0.72971 0.36117 0.0
N574 N 0.29619 0.71134 0.35632 0.0
O575 O 0.34098 0.75887 0.35966 0.0
H576 H 0.33161 0.70162 0.38829 0.0
H577 H 0.29763 0.74383 0.35562 0.0
O578 O 0.35765 0.73427 0.38937 0.0
C579 C 0.33055 0.77403 0.35393 0.0
O580 O 0.31682 0.78137 0.3662 0.0
N581 N 0.3221 0.74466 0.41239 0.0
C582 C 0.30129 0.74103 0.44925 0.0
C583 C 0.32231 0.74409 0.44878 0.0
C584 C 0.33231 0.74639 0.43025 0.0
C585 C 0.30163 0.74246 0.41268 0.0
C586 C 0.29104 0.74042 0.43074 0.0
H587 H 0.34828 0.74975 0.43026 0.0
H588 H 0.2931 0.7432 0.39883 0.0
H589 H 0.37514 0.77262 0.38235 0.0
H590 H 0.34945 0.8171 0.41964 0.0
H591 H 0.30528 0.68181 0.36684 0.0
H592 H 0.33101 0.74494 0.46256 0.0
H593 H 0.27478 0.73921 0.43008 0.0
C594 C 0.036 0.42898 0.86071 0.0
C595 C 0.05026 0.41437 0.8568 0.0
N596 N 0.04738 0.39889 0.86968 0.0
N597 N 0.02395 0.42272 0.87586 0.0
C598 C 0.03123 0.40429 0.88092 0.0
H599 H 0.03526 0.44367 0.85365 0.0
Co600 Co 1.00454 0.43768 0.89019 0.0
C601 C 0.9667 0.41446 0.88411 0.0
O602 O 0.95738 0.43154 0.88016 0.0
N603 N 0.9854 0.4524 0.90556 0.0
C604 C 0.96391 0.45844 0.93074 0.0
C605 C 0.97398 0.44381 0.92011 0.0
C606 C 0.98241 0.47249 0.9082 0.0
N607 N 0.96927 0.47655 0.92332 0.0
O608 O 0.01532 0.42765 0.91512 0.0
H609 H 0.97379 0.42785 0.92359 0.0
H610 H 0.99029 0.48405 0.89992 0.0
O611 O 0.98561 0.41462 0.88814 0.0
C612 C 0.03146 0.43732 0.91914 0.0
O613 O 0.03799 0.45069 0.90603 0.0
N614 N 0.99577 0.4496 0.86569 0.0
C615 C 0.99025 0.4716 0.82984 0.0
C616 C 0.98384 0.45138 0.8314 0.0
C617 C 0.98719 0.44048 0.84929 0.0
C618 C 1.00292 0.46881 0.86403 0.0
C619 C 1.00011 0.48012 0.84652 0.0
H620 H 0.98351 0.42461 0.84959 0.0
H621 H 1.01194 0.47507 0.87607 0.0
H622 H 0.02529 0.3954 0.89325 0.0
H623 H 0.06257 0.41564 0.84616 0.0
H624 H 0.9544 0.45595 0.94376 0.0
H625 H 0.97659 0.44387 0.81884 0.0
H626 H 1.00646 0.49516 0.84584 0.0
C627 C 0.68941 0.73313 0.40604 0.0
C628 C 0.67568 0.7178 0.40888 0.0
N629 N 0.65862 0.7225 0.39886 0.0
N630 N 0.68097 0.74771 0.3946 0.0
C631 C 0.66226 0.74071 0.39029 0.0
H632 H 0.70481 0.73336 0.41144 0.0
Co633 Co 0.69421 0.77052 0.38393 0.0
C634 C 0.66238 0.80036 0.3981 0.0
O635 O 0.67402 0.80677 0.41277 0.0
N636 N 0.70754 0.79307 0.37222 0.0
C637 C 0.71887 0.82374 0.36425 0.0
C638 C 0.7051 0.81308 0.37546 0.0
C639 C 0.72288 0.79209 0.35871 0.0
N640 N 0.73009 0.81053 0.35372 0.0
O641 O 0.68702 0.76157 0.35729 0.0
H642 H 0.69447 0.81989 0.38559 0.0
H643 H 0.72926 0.77808 0.35329 0.0
O644 O 0.66873 0.78655 0.38607 0.0
C645 C 0.69941 0.74744 0.35295 0.0
O646 O 0.71322 0.74267 0.36637 0.0
N647 N 0.70386 0.77759 0.41031 0.0
C648 C 0.72332 0.78209 0.44769 0.0
C649 C 0.70287 0.77667 0.4467 0.0
C650 C 0.69346 0.77435 0.42787 0.0
C651 C 0.72396 0.78215 0.41122 0.0
C652 C 0.73378 0.78494 0.42961 0.0
H653 H 0.67783 0.76967 0.42741 0.0
H654 H 0.73294 0.78276 0.39769 0.0
H655 H 0.65175 0.74856 0.38056 0.0
H656 H 0.6784 0.70382 0.41689 0.0
H657 H 0.7206 0.83999 0.36403 0.0
H658 H 0.69428 0.77403 0.46034 0.0
H659 H 0.74977 0.78833 0.42964 0.0
C660 C 0.49061 0.59499 0.36213 0.0
C661 C 0.47541 0.60891 0.3597 0.0
N662 N 0.47682 0.62276 0.37453 0.0
N663 N 0.50188 0.59996 0.37834 0.0
C664 C 0.49291 0.61686 0.38569 0.0
H665 H 0.49285 0.58179 0.35283 0.0
Co666 Co 0.52368 0.58516 0.3896 0.0
C667 C 0.54236 0.62553 0.37833 0.0
O668 O 0.52862 0.62957 0.36463 0.0
N669 N 0.54495 0.57048 0.40086 0.0
C670 C 0.57557 0.5582 0.40672 0.0
C671 C 0.56464 0.57222 0.39603 0.0
C672 C 0.54425 0.55532 0.41451 0.0
N673 N 0.56275 0.54754 0.41834 0.0
O674 O 0.5151 0.59284 0.41628 0.0
H675 H 0.57066 0.5827 0.38508 0.0
H676 H 0.53038 0.54966 0.42098 0.0
O677 O 0.54166 0.60887 0.3881 0.0
C678 C 0.49943 0.58284 0.4213 0.0
O679 O 0.49163 0.57016 0.40821 0.0
N680 N 0.5309 0.57514 0.36396 0.0
C681 C 0.53508 0.55317 0.32803 0.0
C682 C 0.54316 0.57277 0.32986 0.0
C683 C 0.54094 0.58356 0.34805 0.0
C684 C 0.52375 0.5559 0.36264 0.0
C685 C 0.52568 0.5447 0.34497 0.0
H686 H 0.54708 0.59857 0.34908 0.0
H687 H 0.51604 0.54934 0.37543 0.0
H688 H 0.49822 0.62471 0.39898 0.0
H689 H 0.46379 0.60838 0.34826 0.0
H690 H 0.59172 0.55595 0.40587 0.0
H691 H 0.55063 0.57991 0.31722 0.0
H692 H 0.51966 0.52951 0.34459 0.0
C693 C 0.18433 0.78643 0.61774 0.0
C694 C 0.17048 0.80149 0.61419 0.0
N695 N 0.15363 0.79747 0.62486 0.0
N696 N 0.17627 0.77272 0.63041 0.0
C697 C 0.15761 0.7799 0.63458 0.0
H698 H 0.1996 0.78589 0.61202 0.0
Co699 Co 0.18976 0.75073 0.64206 0.0
C700 C 0.1617 0.7172 0.63071 0.0
O701 O 0.17676 0.70764 0.62205 0.0
N702 N 0.20357 0.72892 0.65491 0.0
C703 C 0.21035 0.70217 0.67424 0.0
C704 C 0.1958 0.71199 0.66326 0.0
C705 C 0.22275 0.72937 0.66206 0.0
N706 N 0.2274 0.71316 0.67365 0.0
O707 O 0.1819 0.75998 0.66829 0.0
H708 H 0.18017 0.70758 0.66306 0.0
H709 H 0.23262 0.74219 0.66014 0.0
O710 O 0.16487 0.73422 0.6394 0.0
C711 C 0.19584 0.77215 0.67362 0.0
O712 O 0.21024 0.77612 0.66058 0.0
N713 N 0.1998 0.74337 0.61616 0.0
C714 C 0.21913 0.7406 0.57868 0.0
C715 C 0.19807 0.73895 0.58006 0.0
C716 C 0.18862 0.741 0.59894 0.0
C717 C 0.22023 0.74538 0.61476 0.0
C718 C 0.23017 0.74386 0.59632 0.0
H719 H 0.17233 0.74146 0.59957 0.0
H720 H 0.22892 0.74959 0.62778 0.0
H721 H 0.14739 0.77263 0.64502 0.0
H722 H 0.17307 0.81492 0.60526 0.0
H723 H 0.20808 0.6884 0.6827 0.0
H724 H 0.18898 0.73714 0.5666 0.0
H725 H 0.24639 0.74583 0.59578 0.0
C726 C 0.0373 0.58973 0.65992 0.0
C727 C 0.05256 0.60353 0.66274 0.0
N728 N 0.04823 0.62021 0.65194 0.0
N729 N 0.02313 0.59777 0.64771 0.0
C730 C 0.03034 0.6163 0.64291 0.0
H731 H 0.03685 0.57453 0.6659 0.0
Co732 Co 1.00043 0.58441 0.63715 0.0
C733 C 0.97084 0.61708 0.65102 0.0
O734 O 0.96446 0.60655 0.6665 0.0
N735 N 0.97788 0.57106 0.62584 0.0
C736 C 0.94704 0.55946 0.61941 0.0
C737 C 0.95816 0.57279 0.63067 0.0
C738 C 0.97826 0.5565 0.61147 0.0
N739 N 0.95967 0.54911 0.60736 0.0
O740 O 1.00889 0.59187 0.61041 0.0
H741 H 0.95201 0.58249 0.64209 0.0
H742 H 0.99203 0.55079 0.60482 0.0
O743 O 0.98435 0.60979 0.63923 0.0
C744 C 0.02387 0.58094 0.60519 0.0
O745 O 0.03066 0.56733 0.61791 0.0
N746 N 0.99377 0.57457 0.66347 0.0
C747 C 0.99083 0.55404 0.70044 0.0
C748 C 0.99379 0.57503 0.69989 0.0
C749 C 0.99576 0.58494 0.68124 0.0
C750 C 0.99126 0.55409 0.66395 0.0
C751 C 0.98948 0.54365 0.68212 0.0
H752 H 0.99948 0.60084 0.68109 0.0
H753 H 0.99157 0.54543 0.65017 0.0
H754 H 0.02289 0.62647 0.63252 0.0
H755 H 0.06628 0.60108 0.67126 0.0
H756 H 0.93087 0.55735 0.62029 0.0
H757 H 0.99551 0.58355 0.71373 0.0
H758 H 0.98751 0.52741 0.6818 0.0
C759 C 0.98848 0.93836 0.65502 0.0
C760 C 0.97321 0.92465 0.65821 0.0
N761 N 0.97827 0.90709 0.64924 0.0
N762 N 1.00335 0.92945 0.64437 0.0
C763 C 0.99661 0.91047 0.6409 0.0
H764 H 0.98852 0.95402 0.65965 0.0
Co765 Co 0.02635 0.94235 0.63388 0.0
C766 C 0.05538 0.90995 0.64867 0.0
O767 O 0.06155 0.92114 0.66379 0.0
N768 N 0.04903 0.95528 0.62239 0.0
C769 C 0.07984 0.96619 0.6147 0.0
C770 C 0.06893 0.95272 0.62604 0.0
C771 C 0.04834 0.97036 0.60859 0.0
N772 N 0.06689 0.97735 0.60374 0.0
O773 O 0.01782 0.93475 0.60719 0.0
H774 H 0.0754 0.94224 0.63658 0.0
H775 H 0.03442 0.97668 0.60287 0.0
O776 O 0.04207 0.91679 0.63638 0.0
C777 C 1.00309 0.94586 0.60164 0.0
O778 O 0.99647 0.95985 0.61403 0.0
N779 N 0.03322 0.95217 0.66033 0.0
C780 C 0.03648 0.97176 0.69777 0.0
C781 C 0.03068 0.95142 0.69667 0.0
C782 C 0.02915 0.9419 0.67782 0.0
C783 C 0.03843 0.97214 0.66136 0.0
C784 C 0.04067 0.982 0.67984 0.0
H785 H 0.02418 0.92635 0.67728 0.0
H786 H 0.03992 0.98105 0.64784 0.0
H787 H 1.00477 0.89953 0.63192 0.0
H788 H 0.95904 0.92772 0.66569 0.0
H789 H 0.09609 0.96777 0.61471 0.0
H790 H 0.02702 0.94307 0.71022 0.0
H791 H 0.04454 0.9979 0.68002 0.0
C792 C 0.61201 0.84996 0.74067 0.0
C793 C 0.60925 0.86426 0.7259 0.0
N794 N 0.62427 0.87791 0.72716 0.0
N795 N 0.62867 0.85446 0.75149 0.0
C796 C 0.63586 0.87152 0.74275 0.0
H797 H 0.60259 0.83686 0.74287 0.0
Co798 Co 0.64078 0.83921 0.7725 0.0
C799 C 0.62949 0.87872 0.79229 0.0
O800 O 0.61434 0.88167 0.77985 0.0
N801 N 0.65292 0.8241 0.79296 0.0
C802 C 0.66206 0.81195 0.82284 0.0
C803 C 0.65061 0.82626 0.81306 0.0
C804 C 0.66569 0.80833 0.79089 0.0
N805 N 0.67159 0.80064 0.80887 0.0
O806 O 0.66711 0.84656 0.76265 0.0
H807 H 0.64109 0.83743 0.82021 0.0
H808 H 0.67022 0.80236 0.7764 0.0
O809 O 0.64027 0.86274 0.79072 0.0
C810 C 0.67076 0.83557 0.74726 0.0
O811 O 0.65665 0.82303 0.74116 0.0
N812 N 0.61553 0.82931 0.78077 0.0
C813 C 0.57975 0.8075 0.78577 0.0
C814 C 0.5828 0.82585 0.79605 0.0
C815 C 0.60094 0.83659 0.79339 0.0
C816 C 0.61319 0.811 0.77172 0.0
C817 C 0.59547 0.79997 0.77386 0.0
H818 H 0.60306 0.85055 0.80145 0.0
H819 H 0.62511 0.80517 0.76224 0.0
H820 H 0.6494 0.87908 0.74781 0.0
H821 H 0.59744 0.86408 0.71464 0.0
H822 H 0.66331 0.81015 0.83901 0.0
H823 H 0.57114 0.83205 0.80566 0.0
H824 H 0.59409 0.78563 0.76611 0.0
C825 C 0.09118 0.16017 0.54014 0.0
C826 C 0.10533 0.16317 0.55503 0.0
N827 N 0.12236 0.15337 0.5498 0.0
N828 N 0.09931 0.14886 0.52531 0.0
C829 C 0.11829 0.1448 0.53171 0.0
H830 H 0.07566 0.16523 0.54047 0.0
Co831 Co 0.0853 0.13764 0.50332 0.0
C832 C 0.11454 0.15251 0.4714 0.0
O833 O 0.10196 0.16669 0.46566 0.0
N834 N 0.07122 0.12536 0.48173 0.0
C835 C 0.05876 0.11537 0.45217 0.0
C836 C 0.07235 0.12791 0.46154 0.0
C837 C 0.05678 0.11111 0.48414 0.0
N838 N 0.04891 0.10476 0.4664 0.0
O839 O 0.09418 0.11122 0.5116 0.0
H840 H 0.08196 0.13837 0.45377 0.0
H841 H 0.05203 0.10566 0.49875 0.0
O842 O 0.10966 0.1406 0.48587 0.0
C843 C 0.0846 0.10558 0.52731 0.0
O844 O 0.07123 0.11787 0.53526 0.0
N845 N 0.07429 0.16369 0.49675 0.0
C846 C 0.05352 0.20057 0.49338 0.0
C847 C 0.07427 0.20016 0.49759 0.0
C848 C 0.08435 0.18159 0.49931 0.0
C849 C 0.05395 0.16401 0.49324 0.0
C850 C 0.04345 0.18216 0.49103 0.0
H851 H 0.10025 0.18158 0.50302 0.0
H852 H 0.04538 0.15018 0.49301 0.0
H853 H 0.12863 0.1351 0.52361 0.0
H854 H 0.10288 0.17102 0.56914 0.0
H855 H 0.05592 0.1147 0.43612 0.0
H856 H 0.0826 0.21405 0.49975 0.0
H857 H 0.02731 0.18174 0.48849 0.0
C858 C 0.41392 0.68554 0.73765 0.0
C859 C 0.41706 0.67114 0.72298 0.0
N860 N 0.40524 0.65515 0.72708 0.0
N861 N 0.40056 0.67847 0.7513 0.0
C862 C 0.39532 0.66 0.74423 0.0
H863 H 0.42053 0.70047 0.73802 0.0
Co864 Co 0.38912 0.69271 0.77319 0.0
C865 C 0.40225 0.66157 0.80452 0.0
O866 O 0.417 0.67302 0.81107 0.0
N867 N 0.3768 0.70689 0.79484 0.0
C868 C 0.3685 0.71899 0.82505 0.0
C869 C 0.38005 0.70518 0.81489 0.0
C870 C 0.36297 0.72194 0.79332 0.0
N871 N 0.35778 0.72965 0.81152 0.0
O872 O 0.36272 0.68503 0.76389 0.0
H873 H 0.39045 0.69506 0.82205 0.0
H874 H 0.35743 0.72768 0.77908 0.0
O875 O 0.39074 0.66782 0.79023 0.0
C876 C 0.35831 0.69558 0.74837 0.0
O877 O 0.37156 0.70882 0.74186 0.0
N878 N 0.41522 0.70275 0.78068 0.0
C879 C 0.45222 0.72284 0.78625 0.0
C880 C 0.45159 0.70195 0.78247 0.0
C881 C 0.433 0.69228 0.77937 0.0
C882 C 0.41576 0.72318 0.78355 0.0
C883 C 0.43389 0.73338 0.78671 0.0
H884 H 0.4329 0.67636 0.77571 0.0
H885 H 0.40212 0.73202 0.78254 0.0
H886 H 0.38395 0.65054 0.75117 0.0
H887 H 0.42649 0.67271 0.70975 0.0
H888 H 0.36819 0.72113 0.84123 0.0
H889 H 0.46534 0.69315 0.78167 0.0
H890 H 0.43354 0.74962 0.78857 0.0
C891 C 0.9319 0.36826 0.53952 0.0
C892 C 0.91813 0.36479 0.55463 0.0
N893 N 0.90096 0.37472 0.55013 0.0
N894 N 0.92342 0.38002 0.52523 0.0
C895 C 0.9046 0.38387 0.53221 0.0
H896 H 0.94742 0.3632 0.53933 0.0
Co897 Co 0.9371 0.39185 0.5033 0.0
C898 C 0.90685 0.37788 0.47174 0.0
O899 O 0.91899 0.36369 0.46516 0.0
N900 N 0.95087 0.4047 0.48185 0.0
C901 C 0.96324 0.41517 0.45245 0.0
C902 C 0.94927 0.40287 0.46163 0.0
C903 C 0.96585 0.41833 0.48448 0.0
N904 N 0.97377 0.42489 0.46684 0.0
O905 O 0.92849 0.41802 0.51246 0.0
H906 H 0.93913 0.39297 0.45375 0.0
H907 H 0.97109 0.423 0.49919 0.0
O908 O 0.91244 0.38945 0.48623 0.0
C909 C 0.93871 0.42306 0.52798 0.0
O910 O 0.95223 0.41037 0.53503 0.0
N911 N 0.94798 0.36599 0.49587 0.0
C912 C 0.96951 0.32936 0.49308 0.0
C913 C 0.94856 0.32949 0.49651 0.0
C914 C 0.93812 0.34793 0.49801 0.0
C915 C 0.96833 0.36596 0.49259 0.0
C916 C 0.97915 0.34803 0.4906 0.0
H917 H 0.92222 0.34769 0.50165 0.0
H918 H 0.97674 0.37988 0.4925 0.0
H919 H 0.89406 0.3938 0.52465 0.0
H920 H 0.92094 0.35649 0.56842 0.0
H921 H 0.9659 0.41619 0.43638 0.0
H922 H 0.94039 0.31555 0.49894 0.0
H923 H 0.9952 0.34895 0.48772 0.0
C924 C 0.6073 0.17701 0.78638 0.0
C925 C 0.60484 0.16294 0.80143 0.0
N926 N 0.61994 0.14935 0.80023 0.0
N927 N 0.62382 0.17239 0.77541 0.0
C928 C 0.63128 0.15554 0.78439 0.0
H929 H 0.59784 0.19009 0.78406 0.0
Co930 Co 0.63546 0.18762 0.75414 0.0
C931 C 0.62498 0.14751 0.73456 0.0
O932 O 0.6111 0.14311 0.748 0.0
N933 N 0.64714 0.20266 0.73341 0.0
C934 C 0.65475 0.21511 0.70325 0.0
C935 C 0.64296 0.20147 0.71354 0.0
C936 C 0.66139 0.21715 0.73488 0.0
N937 N 0.6664 0.22497 0.7167 0.0
O938 O 0.66201 0.18016 0.76334 0.0
H939 H 0.63195 0.19141 0.70692 0.0
H940 H 0.66769 0.2221 0.7491 0.0
O941 O 0.63459 0.16423 0.73573 0.0
C942 C 0.66631 0.19025 0.77919 0.0
O943 O 0.65262 0.20251 0.78664 0.0
N944 N 0.60997 0.19756 0.74645 0.0
C945 C 0.57415 0.21962 0.74197 0.0
C946 C 0.57608 0.20014 0.73362 0.0
C947 C 0.59423 0.18928 0.73601 0.0
C948 C 0.60854 0.21668 0.75386 0.0
C949 C 0.59093 0.22793 0.75178 0.0
H950 H 0.59536 0.17434 0.72972 0.0
H951 H 0.6212 0.22311 0.76191 0.0
H952 H 0.64482 0.14798 0.7793 0.0
H953 H 0.59319 0.16323 0.81284 0.0
H954 H 0.65481 0.21742 0.6871 0.0
H955 H 0.56354 0.19314 0.72583 0.0
H956 H 0.59046 0.24303 0.75803 0.0
C957 C 0.43015 0.16386 0.4858 0.0
C958 C 0.41583 0.16616 0.47095 0.0
N959 N 0.4028 0.1506 0.47208 0.0
N960 N 0.42617 0.14699 0.49652 0.0
C961 C 0.40951 0.13915 0.4876 0.0
H962 H 0.44277 0.17386 0.48832 0.0
Co963 Co 0.44092 0.13583 0.51826 0.0
C964 C 0.40073 0.14658 0.53676 0.0
O965 O 0.39744 0.1614 0.52401 0.0
N966 N 0.45541 0.12458 0.53967 0.0
C967 C 0.46655 0.11707 0.57041 0.0
C968 C 0.4533 0.12876 0.55948 0.0
C969 C 0.47007 0.11044 0.53891 0.0
N970 N 0.47701 0.10546 0.55742 0.0
O971 O 0.43434 0.10908 0.50889 0.0
H972 H 0.44276 0.1396 0.56564 0.0
H973 H 0.47579 0.1041 0.52502 0.0
O974 O 0.41701 0.13629 0.53563 0.0
C975 C 0.44702 0.10468 0.49508 0.0
O976 O 0.46005 0.11861 0.48965 0.0
N977 N 0.45008 0.16156 0.52614 0.0
C978 C 0.47142 0.19773 0.53113 0.0
C979 C 0.45228 0.1951 0.53997 0.0
C980 C 0.44183 0.17676 0.5374 0.0
C981 C 0.46898 0.16359 0.51838 0.0
C982 C 0.47985 0.1814 0.52066 0.0
H983 H 0.4273 0.17502 0.5444 0.0
H984 H 0.47553 0.15126 0.50993 0.0
H985 H 0.40225 0.12541 0.49263 0.0
H986 H 0.41539 0.17812 0.45983 0.0
H987 H 0.46815 0.11692 0.58666 0.0
H988 H 0.44525 0.20722 0.54838 0.0
H989 H 0.49479 0.18235 0.51411 0.0
C990 C 0.41237 0.34555 0.78785 0.0
C991 C 0.41457 0.35869 0.80376 0.0
N992 N 0.40023 0.37302 0.80232 0.0
N993 N 0.39675 0.35153 0.7762 0.0
C994 C 0.38964 0.36834 0.78552 0.0
H995 H 0.42125 0.33209 0.78547 0.0
Co996 Co 0.38499 0.3371 0.75447 0.0
C997 C 0.39688 0.37729 0.73589 0.0
O998 O 0.4106 0.38099 0.74969 0.0
N999 N 0.37311 0.32262 0.7335 0.0
C1000 C 0.36524 0.31005 0.70347 0.0
C1001 C 0.37642 0.32439 0.71351 0.0
C1002 C 0.36003 0.30711 0.73526 0.0
N1003 N 0.35492 0.29912 0.71717 0.0
O1004 O 0.3586 0.34536 0.7633 0.0
H1005 H 0.38676 0.335 0.70669 0.0
H1006 H 0.35457 0.30169 0.74964 0.0
O1007 O 0.38683 0.36079 0.73645 0.0
C1008 C 0.35354 0.33562 0.77911 0.0
O1009 O 0.36647 0.32279 0.78697 0.0
N1010 N 0.41028 0.32652 0.74695 0.0
C1011 C 0.44562 0.30374 0.74227 0.0
C1012 C 0.4442 0.32344 0.73437 0.0
C1013 C 0.42629 0.33465 0.73684 0.0
C1014 C 0.4112 0.3072 0.75394 0.0
C1015 C 0.42857 0.2956 0.75175 0.0
H1016 H 0.42556 0.34975 0.73085 0.0
H1017 H 0.39834 0.3009 0.76175 0.0
H1018 H 0.37648 0.37658 0.78046 0.0
H1019 H 0.42572 0.35759 0.81565 0.0
H1020 H 0.36538 0.30741 0.68736 0.0
H1021 H 0.45695 0.33034 0.72686 0.0
H1022 H 0.42864 0.28034 0.75764 0.0
C1023 C 0.59475 0.36166 0.48746 0.0
C1024 C 0.60871 0.3593 0.47228 0.0
N1025 N 0.62281 0.37385 0.47411 0.0
N1026 N 0.59998 0.37755 0.49907 0.0
C1027 C 0.61707 0.38473 0.49043 0.0
H1028 H 0.58137 0.35258 0.48942 0.0
Co1029 Co 0.58546 0.38892 0.52091 0.0
C1030 C 0.62532 0.3766 0.53962 0.0
O1031 O 0.62862 0.36221 0.52638 0.0
N1032 N 0.5712 0.4003 0.54232 0.0
C1033 C 0.55969 0.40649 0.57315 0.0
C1034 C 0.5732 0.39544 0.56198 0.0
C1035 C 0.5564 0.41434 0.54188 0.0
N1036 N 0.54911 0.41839 0.56051 0.0
O1037 O 0.59324 0.41551 0.51225 0.0
H1038 H 0.58361 0.38431 0.56785 0.0
H1039 H 0.5507 0.42102 0.52812 0.0
O1040 O 0.6092 0.38717 0.53856 0.0
C1041 C 0.58293 0.42038 0.49673 0.0
O1042 O 0.57003 0.40723 0.48938 0.0
N1043 N 0.57527 0.3634 0.52818 0.0
C1044 C 0.55275 0.32787 0.53249 0.0
C1045 C 0.57218 0.32952 0.54092 0.0
C1046 C 0.58323 0.34753 0.5387 0.0
C1047 C 0.55616 0.36229 0.52072 0.0
C1048 C 0.54468 0.34483 0.52272 0.0
H1049 H 0.598 0.34847 0.54534 0.0
H1050 H 0.54992 0.37512 0.51276 0.0
H1051 H 0.62512 0.39776 0.49608 0.0
H1052 H 0.60801 0.34815 0.46039 0.0
H1053 H 0.55779 0.40576 0.58935 0.0
H1054 H 0.579 0.31688 0.54873 0.0
H1055 H 0.52958 0.34464 0.51649 0.0
C1056 C 0.73273 0.61799 0.83653 0.0
C1057 C 0.71781 0.61491 0.85063 0.0
N1058 N 0.72333 0.62393 0.86802 0.0
N1059 N 0.74785 0.62864 0.84498 0.0
C1060 C 0.74162 0.6322 0.86411 0.0
H1061 H 0.73235 0.61329 0.82091 0.0
Co1062 Co 0.77044 0.63913 0.83137 0.0
C1063 C 0.80069 0.62544 0.86274 0.0
O1064 O 0.80676 0.61054 0.8512 0.0
N1065 N 0.79281 0.65079 0.8177 0.0
C1066 C 0.82313 0.66076 0.80708 0.0
C1067 C 0.81291 0.64899 0.82075 0.0
C1068 C 0.79137 0.66378 0.80198 0.0
N1069 N 0.80955 0.6701 0.79523 0.0
O1070 O 0.76156 0.66591 0.83837 0.0
H1071 H 0.82008 0.63967 0.83189 0.0
H1072 H 0.77717 0.66845 0.7955 0.0
O1073 O 0.78677 0.6374 0.85654 0.0
C1074 C 0.74817 0.67088 0.82543 0.0
O1075 O 0.74302 0.65745 0.81176 0.0
N1076 N 0.77749 0.61253 0.82199 0.0
C1077 C 0.78139 0.57474 0.8031 0.0
C1078 C 0.77558 0.57611 0.82339 0.0
C1079 C 0.77372 0.59513 0.83257 0.0
C1080 C 0.78263 0.6112 0.80204 0.0
C1081 C 0.78519 0.59258 0.79253 0.0
H1082 H 0.76889 0.59587 0.84812 0.0
H1083 H 0.78384 0.62457 0.79286 0.0
H1084 H 0.75012 0.64119 0.87476 0.0
H1085 H 0.70354 0.60745 0.84792 0.0
H1086 H 0.83935 0.66188 0.80568 0.0
H1087 H 0.77223 0.56262 0.832 0.0
H1088 H 0.78903 0.59218 0.77666 0.0
C1089 C 0.86904 0.03975 0.43497 0.0
C1090 C 0.86577 0.05484 0.42109 0.0
N1091 N 0.87514 0.04982 0.40376 0.0
N1092 N 0.88016 0.025 0.42643 0.0
C1093 C 0.88383 0.03166 0.40746 0.0
H1094 H 0.86416 0.03979 0.45053 0.0
Co1095 Co 0.89093 1.00242 0.44003 0.0
C1096 C 0.87696 0.97207 0.40863 0.0
O1097 O 0.86204 0.96607 0.42015 0.0
N1098 N 0.9027 0.98007 0.45374 0.0
C1099 C 0.91058 0.94955 0.46552 0.0
C1100 C 0.89909 0.96007 0.45186 0.0
C1101 C 0.91663 0.98118 0.46869 0.0
N1102 N 0.92162 0.96283 0.47615 0.0
O1103 O 0.91754 1.01141 0.43286 0.0
H1104 H 0.88851 0.95321 0.44171 0.0
H1105 H 0.92243 0.99524 0.47461 0.0
O1106 O 0.889 0.98594 0.41483 0.0
C1107 C 0.92162 0.02558 0.44528 0.0
O1108 O 0.90803 0.03017 0.45898 0.0
N1109 N 0.86458 0.99545 0.44967 0.0
C1110 C 0.82716 0.99264 0.46931 0.0
C1111 C 0.82823 0.99728 0.44868 0.0
C1112 C 0.84707 0.99876 0.43918 0.0
C1113 C 0.86362 0.9914 0.46987 0.0
C1114 C 0.84519 0.98947 0.47981 0.0
H1115 H 0.84759 1.00303 0.42344 0.0
H1116 H 0.87717 0.99071 0.47885 0.0
H1117 H 0.8932 0.02359 0.39679 0.0
H1118 H 0.85795 0.0689 0.42392 0.0
H1119 H 0.91066 0.93333 0.46755 0.0
H1120 H 0.81464 1.00009 0.44004 0.0
H1121 H 0.84513 0.98662 0.4959 0.0
C1122 C 0.28841 0.91066 0.83954 0.0
C1123 C 0.3033 0.91392 0.85369 0.0
N1124 N 0.29887 0.90301 0.87023 0.0
N1125 N 0.27434 0.89813 0.84732 0.0
C1126 C 0.28134 0.89353 0.86596 0.0
H1127 H 0.28817 0.91653 0.82432 0.0
Co1128 Co 0.25203 0.88644 0.83407 0.0
C1129 C 0.2219 0.90115 0.86541 0.0
O1130 O 0.21544 0.9158 0.85377 0.0
N1131 N 0.22998 0.87376 0.82113 0.0
C1132 C 0.19972 0.86422 0.81008 0.0
C1133 C 0.20991 0.87679 0.82305 0.0
C1134 C 0.23151 0.85919 0.80689 0.0
N1135 N 0.21332 0.85314 0.79986 0.0
O1136 O 0.26128 0.86019 0.84247 0.0
H1137 H 0.20285 0.88763 0.83283 0.0
H1138 H 0.24579 0.85369 0.80127 0.0
O1139 O 0.23572 0.88913 0.85913 0.0
C1140 C 0.27642 0.85515 0.8317 0.0
O1141 O 0.28302 0.86786 0.818 0.0
N1142 N 0.2445 0.9123 0.82312 0.0
C1143 C 0.24068 0.94844 0.80085 0.0
C1144 C 0.24526 0.94878 0.8216 0.0
C1145 C 0.24718 0.93059 0.83241 0.0
C1146 C 0.24027 0.91188 0.80295 0.0
C1147 C 0.23762 0.92953 0.79185 0.0
H1148 H 0.25154 0.93121 0.84812 0.0
H1149 H 0.2398 0.89779 0.79483 0.0
H1150 H 0.27406 0.88285 0.87595 0.0
H1151 H 0.31688 0.92275 0.8516 0.0
H1152 H 0.18352 0.86343 0.8083 0.0
H1153 H 0.24821 0.96287 0.82932 0.0
H1154 H 0.23376 0.92814 0.77606 0.0
C1155 C 0.15698 0.48543 0.43807 0.0
C1156 C 0.15997 0.47053 0.42391 0.0
N1157 N 0.15069 0.47603 0.40665 0.0
N1158 N 0.1461 0.5005 0.4298 0.0
C1159 C 0.14236 0.49428 0.4107 0.0
H1160 H 0.16186 0.48502 0.45364 0.0
Co1161 Co 0.13555 0.52301 0.44359 0.0
C1162 C 0.14951 0.55332 0.41204 0.0
O1163 O 0.16468 0.55922 0.42329 0.0
N1164 N 0.124 0.54534 0.45742 0.0
C1165 C 0.11658 0.57591 0.46934 0.0
C1166 C 0.12798 0.56528 0.4557 0.0
C1167 C 0.10996 0.54436 0.47227 0.0
N1168 N 0.10525 0.56275 0.47982 0.0
O1169 O 0.10879 0.51429 0.43634 0.0
H1170 H 0.13879 0.57199 0.4457 0.0
H1171 H 0.10391 0.53035 0.47803 0.0
O1172 O 0.13747 0.53957 0.41848 0.0
C1173 C 0.10426 0.49995 0.4484 0.0
O1174 O 0.11764 0.4947 0.46208 0.0
N1175 N 0.16202 0.52977 0.45327 0.0
C1176 C 0.19952 0.53305 0.47288 0.0
C1177 C 0.19842 0.52825 0.45227 0.0
C1178 C 0.17955 0.52653 0.44279 0.0
C1179 C 0.16302 0.5338 0.47348 0.0
C1180 C 0.18147 0.53598 0.48338 0.0
H1181 H 0.17902 0.52222 0.42706 0.0
H1182 H 0.14948 0.53441 0.48247 0.0
H1183 H 0.13316 0.50275 0.40019 0.0
H1184 H 0.16754 0.45628 0.42652 0.0
H1185 H 0.11679 0.59211 0.47148 0.0
H1186 H 0.21201 0.52558 0.44361 0.0
H1187 H 0.18153 0.53892 0.49946 0.0
C1188 C 0.73495 0.40705 0.68501 0.0
C1189 C 0.71871 0.409 0.67219 0.0
N1190 N 0.72055 0.39523 0.65735 0.0
N1191 N 0.7472 0.39227 0.67821 0.0
C1192 C 0.73779 0.38513 0.66153 0.0
H1193 H 0.7374 0.41567 0.69864 0.0
Co1194 Co 0.77028 0.38179 0.69114 0.0
C1195 C 0.78615 0.39262 0.64913 0.0
O1196 O 0.77122 0.40489 0.64469 0.0
N1197 N 0.79298 0.37095 0.70421 0.0
C1198 C 0.82434 0.36572 0.71497 0.0
C1199 C 0.81245 0.3763 0.70159 0.0
C1200 C 0.79343 0.35712 0.71922 0.0
N1201 N 0.81233 0.35362 0.72601 0.0
O1202 O 0.76167 0.35496 0.68425 0.0
H1203 H 0.81763 0.3876 0.69102 0.0
H1204 H 0.78009 0.35036 0.7257 0.0
O1205 O 0.78665 0.38376 0.6663 0.0
C1206 C 0.74907 0.34988 0.6979 0.0
O1207 O 0.74461 0.36321 0.71191 0.0
N1208 N 0.77748 0.40774 0.70052 0.0
C1209 C 0.78096 0.44432 0.7217 0.0
C1210 C 0.78344 0.44361 0.70057 0.0
C1211 C 0.78175 0.4251 0.69024 0.0
C1212 C 0.7755 0.40815 0.72096 0.0
C1213 C 0.7776 0.42601 0.7318 0.0
H1214 H 0.78301 0.42504 0.67408 0.0
H1215 H 0.77168 0.39446 0.72897 0.0
H1216 H 0.7434 0.37256 0.65272 0.0
H1217 H 0.70653 0.4198 0.67367 0.0
H1218 H 0.84054 0.36702 0.71657 0.0
H1219 H 0.7859 0.45726 0.69196 0.0
H1220 H 0.77622 0.42535 0.74805 0.0
C1221 C 0.65428 0.04236 0.58595 0.0
C1222 C 0.6566 0.05787 0.59959 0.0
N1223 N 0.64721 0.0527 0.61686 0.0
N1224 N 0.64383 0.02723 0.59466 0.0
C1225 C 0.63954 0.03407 0.61343 0.0
H1226 H 0.6594 0.04232 0.57046 0.0
Co1227 Co 0.63431 1.00372 0.58191 0.0
C1228 C 0.65043 0.97525 0.61407 0.0
O1229 O 0.66552 0.96948 0.60264 0.0
N1230 N 0.62369 0.98025 0.56904 0.0
C1231 C 0.61728 0.94895 0.55841 0.0
C1232 C 0.62806 0.9605 0.57184 0.0
C1233 C 0.61001 0.98014 0.5538 0.0
N1234 N 0.60593 0.96132 0.54703 0.0
O1235 O 0.60743 1.01117 0.58948 0.0
H1236 H 0.63868 0.9545 0.58249 0.0
H1237 H 0.60384 0.99366 0.54708 0.0
O1238 O 0.63769 0.98825 0.60744 0.0
C1239 C 0.60166 0.02363 0.57598 0.0
O1240 O 0.61448 0.02855 0.56168 0.0
N1241 N 0.6608 0.99808 0.57189 0.0
C1242 C 0.69777 0.99631 0.55116 0.0
C1243 C 0.69711 1.00108 0.57181 0.0
C1244 C 0.67846 1.00217 0.58183 0.0
C1245 C 0.66135 0.99383 0.55174 0.0
C1246 C 0.6795 0.99234 0.54132 0.0
H1247 H 0.67818 1.00678 0.59747 0.0
H1248 H 0.6476 0.99244 0.54316 0.0
H1249 H 0.63052 0.02573 0.62418 0.0
H1250 H 0.66385 0.07223 0.5967 0.0
H1251 H 0.61792 0.93267 0.55703 0.0
H1252 H 0.71075 1.00474 0.58001 0.0
H1253 H 0.67907 0.98856 0.52543 0.0
C1254 C 0.28931 0.11102 0.67954 0.0
C1255 C 0.30529 0.1087 0.66647 0.0
N1256 N 0.30426 0.12338 0.65245 0.0
N1257 N 0.27806 0.12699 0.67372 0.0
C1258 C 0.2878 0.13437 0.65734 0.0
H1259 H 0.28641 0.10188 0.69274 0.0
Co1260 Co 0.25606 0.13864 0.68752 0.0
C1261 C 0.23893 0.1303 0.64552 0.0
O1262 O 0.25307 0.11734 0.64052 0.0
N1263 N 0.23464 0.15055 0.70142 0.0
C1264 C 0.20426 0.15957 0.71243 0.0
C1265 C 0.21463 0.14823 0.69842 0.0
C1266 C 0.23606 0.16309 0.7174 0.0
N1267 N 0.21781 0.16885 0.7244 0.0
O1268 O 0.26628 0.16512 0.68125 0.0
H1269 H 0.20798 0.13858 0.68708 0.0
H1270 H 0.25028 0.16785 0.72384 0.0
O1271 O 0.23909 0.13858 0.66297 0.0
C1272 C 0.28084 0.16874 0.69333 0.0
O1273 O 0.28598 0.15458 0.70627 0.0
N1274 N 0.24722 0.11301 0.69622 0.0
C1275 C 0.2402 0.07639 0.71598 0.0
C1276 C 0.23758 0.07801 0.69501 0.0
C1277 C 0.24094 0.09662 0.68537 0.0
C1278 C 0.24984 0.1115 0.71658 0.0
C1279 C 0.2461 0.09351 0.72678 0.0
H1280 H 0.23915 0.0975 0.66929 0.0
H1281 H 0.25545 0.12434 0.72495 0.0
H1282 H 0.28303 0.14778 0.64932 0.0
H1283 H 0.31678 0.09711 0.66726 0.0
H1284 H 0.18803 0.16041 0.71406 0.0
H1285 H 0.23318 0.06497 0.68619 0.0
H1286 H 0.24863 0.09276 0.74291 0.0
C1287 C 0.37114 0.4865 0.58972 0.0
C1288 C 0.36818 0.47112 0.60334 0.0
N1289 N 0.37806 0.47572 0.6205 0.0
N1290 N 0.38251 0.50104 0.5983 0.0
C1291 C 0.38669 0.49393 0.61701 0.0
H1292 H 0.36586 0.48682 0.57428 0.0
Co1293 Co 0.39311 0.52386 0.58503 0.0
C1294 C 0.37922 0.55262 0.61847 0.0
O1295 O 0.36253 0.55794 0.6093 0.0
N1296 N 0.40456 0.54637 0.57185 0.0
C1297 C 0.41098 0.57722 0.56026 0.0
C1298 C 0.39986 0.56611 0.57379 0.0
C1299 C 0.41872 0.54592 0.55713 0.0
N1300 N 0.42282 0.56451 0.54972 0.0
O1301 O 0.41974 0.5152 0.59241 0.0
H1302 H 0.38852 0.57214 0.58376 0.0
H1303 H 0.42514 0.5321 0.55125 0.0
O1304 O 0.39139 0.54001 0.61027 0.0
C1305 C 0.42485 0.50036 0.58126 0.0
O1306 O 0.41211 0.49392 0.5675 0.0
N1307 N 0.36669 0.5308 0.57525 0.0
C1308 C 0.32961 0.53305 0.5545 0.0
C1309 C 0.33027 0.52876 0.57527 0.0
C1310 C 0.34894 0.52746 0.58529 0.0
C1311 C 0.36612 0.53479 0.55502 0.0
C1312 C 0.34794 0.53653 0.54461 0.0
H1313 H 0.34913 0.52289 0.60095 0.0
H1314 H 0.37984 0.53562 0.54634 0.0
H1315 H 0.39635 0.50171 0.62763 0.0
H1316 H 0.36016 0.45717 0.6005 0.0
H1317 H 0.4101 0.5934 0.5581 0.0
H1318 H 0.31659 0.52545 0.58355 0.0
H1319 H 0.34843 0.53999 0.52866 0.0
C1320 C 0.8422 0.73936 0.6159 0.0
C1321 C 0.85608 0.72427 0.61256 0.0
N1322 N 0.87324 0.72891 0.62247 0.0
N1323 N 0.85058 0.75374 0.62761 0.0
C1324 C 0.86945 0.7469 0.63145 0.0
H1325 H 0.82668 0.73945 0.61086 0.0
Co1326 Co 0.83711 0.77569 0.63963 0.0
C1327 C 0.86802 0.80666 0.62629 0.0
O1328 O 0.85587 0.81381 0.61238 0.0
N1329 N 0.82362 0.79732 0.65273 0.0
C1330 C 0.81263 0.827 0.66415 0.0
C1331 C 0.82651 0.81751 0.652 0.0
C1332 C 0.80792 0.79504 0.6656 0.0
N1333 N 0.80085 0.81285 0.6727 0.0
O1334 O 0.84499 0.7656 0.66569 0.0
H1335 H 0.83763 0.82523 0.6431 0.0
H1336 H 0.8016 0.7805 0.66943 0.0
O1337 O 0.86216 0.79221 0.63776 0.0
C1338 C 0.83315 0.75087 0.66947 0.0
O1339 O 0.8193 0.74629 0.65602 0.0
N1340 N 0.82676 0.78377 0.61382 0.0
C1341 C 0.8056 0.78644 0.57706 0.0
C1342 C 0.8265 0.78278 0.57738 0.0
C1343 C 0.83675 0.78134 0.59588 0.0
C1344 C 0.80648 0.78749 0.61358 0.0
C1345 C 0.79584 0.78941 0.59556 0.0
H1346 H 0.85259 0.77742 0.59581 0.0
H1347 H 0.79792 0.78781 0.62736 0.0
H1348 H 0.87987 0.7546 0.64138 0.0
H1349 H 0.85326 0.71035 0.60448 0.0
H1350 H 0.81097 0.84316 0.66595 0.0
H1351 H 0.83473 0.78003 0.56355 0.0
H1352 H 0.77981 0.79248 0.59628 0.0
C1353 C 0.84467 0.28353 0.91496 0.0
C1354 C 0.85898 0.29834 0.91744 0.0
N1355 N 0.87087 0.29857 0.90103 0.0
N1356 N 0.8475 0.27412 0.89708 0.0
C1357 C 0.86361 0.28383 0.88891 0.0
H1358 H 0.83293 0.28013 0.9257 0.0
Co1359 Co 0.83206 0.25267 0.88557 0.0
C1360 C 0.87165 0.23324 0.89736 0.0
O1361 O 0.87502 0.24646 0.91174 0.0
N1362 N 0.81691 0.23174 0.87418 0.0
C1363 C 0.80464 0.20118 0.86789 0.0
C1364 C 0.81892 0.2119 0.87838 0.0
C1365 C 0.8013 0.23271 0.86104 0.0
N1366 N 0.79351 0.21424 0.85698 0.0
O1367 O 0.83988 0.26118 0.859 0.0
H1368 H 0.82982 0.20559 0.88875 0.0
H1369 H 0.79539 0.24673 0.85507 0.0
O1370 O 0.85545 0.23433 0.88691 0.0
C1371 C 0.83034 0.27715 0.85396 0.0
O1372 O 0.81782 0.28528 0.86699 0.0
N1373 N 0.82193 0.24541 0.91109 0.0
C1374 C 0.80016 0.241 0.947 0.0
C1375 C 0.81837 0.23047 0.94398 0.0
C1376 C 0.82909 0.23286 0.9258 0.0
C1377 C 0.80385 0.25491 0.91346 0.0
C1378 C 0.79285 0.25308 0.93126 0.0
H1379 H 0.84295 0.22461 0.92373 0.0
H1380 H 0.79816 0.26441 0.90147 0.0
H1381 H 0.87008 0.28002 0.87443 0.0
H1382 H 0.86019 0.30853 0.93015 0.0
H1383 H 0.80259 0.18497 0.86834 0.0
H1384 H 0.82445 0.22079 0.95566 0.0
H1385 H 0.77867 0.26109 0.93264 0.0
C1386 C 0.53506 0.92553 0.3602 0.0
C1387 C 0.54993 0.91134 0.35734 0.0
N1388 N 0.54887 0.89763 0.37232 0.0
N1389 N 0.52436 0.9209 0.37688 0.0
C1390 C 0.5333 0.90388 0.384 0.0
H1391 H 0.53269 0.93866 0.35083 0.0
Co1392 Co 0.50327 0.93607 0.38902 0.0
C1393 C 0.48378 0.89618 0.37815 0.0
O1394 O 0.49645 0.89284 0.3633 0.0
N1395 N 0.48278 0.9511 0.40117 0.0
C1396 C 0.45282 0.96323 0.40999 0.0
C1397 C 0.46271 0.94894 0.39865 0.0
C1398 C 0.48475 0.96687 0.41395 0.0
N1399 N 0.46668 0.97458 0.41965 0.0
O1400 O 0.51292 0.92848 0.41531 0.0
H1401 H 0.45565 0.93785 0.389 0.0
H1402 H 0.49922 0.97281 0.41859 0.0
O1403 O 0.48508 0.91248 0.38846 0.0
C1404 C 0.52899 0.93815 0.41965 0.0
O1405 O 0.53671 0.95038 0.40609 0.0
N1406 N 0.49493 0.94603 0.36378 0.0
C1407 C 0.48769 0.96851 0.32869 0.0
C1408 C 0.47868 0.94944 0.33152 0.0
C1409 C 0.48234 0.93846 0.34932 0.0
C1410 C 0.5034 0.96461 0.36142 0.0
C1411 C 0.50014 0.97599 0.34406 0.0
H1412 H 0.4749 0.92417 0.35138 0.0
H1413 H 0.51315 0.97049 0.37312 0.0
H1414 H 0.52836 0.89624 0.39754 0.0
H1415 H 0.56111 0.91163 0.34546 0.0
H1416 H 0.43663 0.96501 0.41102 0.0
H1417 H 0.46868 0.94319 0.32021 0.0
H1418 H 0.50771 0.9904 0.34258 0.0
C1419 C 0.1827 0.23705 0.90891 0.0
C1420 C 0.16936 0.22134 0.91139 0.0
N1421 N 0.15516 0.22253 0.89688 0.0
N1422 N 0.17694 0.2484 0.89301 0.0
C1423 C 0.16029 0.23892 0.8858 0.0
H1424 H 0.1959 0.23975 0.91807 0.0
Co1425 Co 0.19022 0.27126 0.88223 0.0
C1426 C 0.14878 0.28737 0.89327 0.0
O1427 O 0.14549 0.27362 0.90717 0.0
N1428 N 0.20354 0.29372 0.87129 0.0
C1429 C 0.21376 0.32519 0.86562 0.0
C1430 C 0.20025 0.31329 0.87594 0.0
C1431 C 0.21914 0.29411 0.85815 0.0
N1432 N 0.22561 0.3131 0.85439 0.0
O1433 O 0.18331 0.26239 0.85559 0.0
H1434 H 0.18904 0.3186 0.88654 0.0
H1435 H 0.22615 0.28073 0.852 0.0
O1436 O 0.16546 0.28749 0.88359 0.0
C1437 C 0.19693 0.25 0.85003 0.0
O1438 O 0.21142 0.24549 0.8628 0.0
N1439 N 0.19947 0.27891 0.90797 0.0
C1440 C 0.22093 0.28435 0.94398 0.0
C1441 C 0.20081 0.29099 0.94218 0.0
C1442 C 0.1903 0.28819 0.92393 0.0
C1443 C 0.21917 0.2732 0.90928 0.0
C1444 C 0.23013 0.27581 0.92698 0.0
H1445 H 0.17491 0.29328 0.9229 0.0
H1446 H 0.22633 0.26613 0.89644 0.0
H1447 H 0.15185 0.24426 0.87289 0.0
H1448 H 0.17032 0.20972 0.92283 0.0
H1449 H 0.21484 0.34148 0.86642 0.0
H1450 H 0.1931 0.29778 0.95488 0.0
H1451 H 0.24573 0.27096 0.92733 0.0
C1452 C 0.98659 0.09255 0.86249 0.0
C1453 C 0.97053 0.10553 0.86017 0.0
N1454 N 0.97147 0.11968 0.87474 0.0
N1455 N 0.99796 0.09858 0.87826 0.0
C1456 C 0.98811 0.11496 0.88562 0.0
H1457 H 0.98944 0.07925 0.85347 0.0
Co1458 Co 0.02072 0.08532 0.88933 0.0
C1459 C 0.03742 0.12698 0.87855 0.0
O1460 O 0.02258 0.13187 0.86635 0.0
N1461 N 0.04311 0.07204 0.90072 0.0
C1462 C 0.07447 0.06156 0.9065 0.0
C1463 C 0.06263 0.07465 0.89556 0.0
C1464 C 0.04348 0.05726 0.91482 0.0
N1465 N 0.0624 0.05061 0.91865 0.0
O1466 O 1.01173 0.09262 0.91584 0.0
H1467 H 0.06792 0.0851 0.88419 0.0
H1468 H 0.03009 0.05092 0.92163 0.0
O1469 O 0.03743 0.10981 0.8874 0.0
C1470 C 0.99888 0.07914 0.92073 0.0
O1471 O 0.99474 0.06493 0.90749 0.0
N1472 N 0.02834 0.07562 0.86366 0.0
C1473 C 0.03274 0.05419 0.82737 0.0
C1474 C 0.0354 0.07532 0.82805 0.0
C1475 C 0.03325 0.08578 0.84641 0.0
C1476 C 0.02616 0.05517 0.8633 0.0
C1477 C 0.02871 0.0442 0.84559 0.0
H1478 H 0.03466 0.10196 0.84643 0.0
H1479 H 0.02191 0.04727 0.87692 0.0
H1480 H 0.99321 0.12339 0.89863 0.0
H1481 H 0.95874 0.10426 0.84895 0.0
H1482 H 0.0907 0.06013 0.90548 0.0
H1483 H 0.03836 0.08386 0.81445 0.0
H1484 H 0.02716 0.02795 0.84629 0.0
C1485 C 0.68418 0.28827 0.11756 0.0
C1486 C 0.67127 0.30436 0.11524 0.0
N1487 N 0.65414 0.30051 0.12551 0.0
N1488 N 0.67524 0.27403 0.12901 0.0
C1489 C 0.65694 0.28192 0.13365 0.0
H1490 H 0.69945 0.28731 0.11191 0.0
Co1491 Co 0.68827 0.25113 0.13973 0.0
C1492 C 0.65551 0.22154 0.12649 0.0
O1493 O 0.66629 0.21484 0.11132 0.0
N1494 N 0.70148 0.22858 0.15138 0.0
C1495 C 0.71292 0.19789 0.15901 0.0
C1496 C 0.69943 0.20865 0.14752 0.0
C1497 C 0.71635 0.22944 0.1654 0.0
N1498 N 0.72362 0.21097 0.17025 0.0
O1499 O 0.68126 0.26017 0.1664 0.0
H1500 H 0.68932 0.20206 0.13671 0.0
H1501 H 0.72232 0.24343 0.17132 0.0
O1502 O 0.66262 0.23533 0.1381 0.0
C1503 C 0.69276 0.27484 0.17127 0.0
O1504 O 0.70649 0.28088 0.15831 0.0
N1505 N 0.69764 0.24382 0.11335 0.0
C1506 C 0.71706 0.23909 0.07585 0.0
C1507 C 0.69635 0.24367 0.07695 0.0
C1508 C 0.68704 0.24633 0.0958 0.0
C1509 C 0.71789 0.24003 0.11241 0.0
C1510 C 0.72773 0.23731 0.09401 0.0
H1511 H 0.67132 0.25073 0.09628 0.0
H1512 H 0.72691 0.24004 0.12596 0.0
H1513 H 0.64643 0.2747 0.14383 0.0
H1514 H 0.67453 0.31807 0.10698 0.0
H1515 H 0.71482 0.18166 0.1589 0.0
H1516 H 0.68744 0.24548 0.06338 0.0
H1517 H 0.74387 0.23477 0.09409 0.0
C1518 C 0.53499 0.09176 0.16254 0.0
C1519 C 0.54958 0.10617 0.1658 0.0
N1520 N 0.5447 0.1229 0.15527 0.0
N1521 N 0.52068 0.09935 0.15023 0.0
C1522 C 0.52705 0.11832 0.14598 0.0
H1523 H 0.53529 0.07638 0.16802 0.0
Co1524 Co 0.49954 0.08461 0.13823 0.0
C1525 C 0.4665 0.11387 0.15136 0.0
O1526 O 0.45988 0.1017 0.16549 0.0
N1527 N 0.47875 0.06981 0.12535 0.0
C1528 C 0.44977 0.05593 0.11559 0.0
C1529 C 0.45857 0.06987 0.12814 0.0
C1530 C 0.48174 0.05561 0.11095 0.0
N1531 N 0.46435 0.04687 0.10473 0.0
O1532 O 0.50851 0.09347 0.11209 0.0
H1533 H 0.4505 0.07885 0.13893 0.0
H1534 H 0.49653 0.05157 0.10541 0.0
O1535 O 0.48149 0.10859 0.14031 0.0
C1536 C 0.52469 0.0843 0.10709 0.0
O1537 O 0.53276 0.07147 0.11989 0.0
N1538 N 0.49237 0.07356 0.16393 0.0
C1539 C 0.48848 0.05206 0.20031 0.0
C1540 C 0.49037 0.07321 0.2003 0.0
C1541 C 0.49274 0.08363 0.18197 0.0
C1542 C 0.49097 0.05297 0.16388 0.0
C1543 C 0.48866 0.04206 0.18171 0.0
H1544 H 0.49532 0.09976 0.18229 0.0
H1545 H 0.49249 0.04463 0.14998 0.0
H1546 H 0.51931 0.12822 0.13555 0.0
H1547 H 0.56337 0.10397 0.17427 0.0
H1548 H 0.43388 0.05222 0.11519 0.0
H1549 H 0.49086 0.08154 0.21434 0.0
H1550 H 0.48742 0.02577 0.18088 0.0
C1551 C 0.48788 0.43068 0.16469 0.0
C1552 C 0.47201 0.41749 0.16695 0.0
N1553 N 0.47308 0.40351 0.15225 0.0
N1554 N 0.49913 0.42508 0.14866 0.0
C1555 C 0.48964 0.40844 0.1414 0.0
H1556 H 0.49051 0.44389 0.17386 0.0
Co1557 Co 0.52073 0.43958 0.13676 0.0
C1558 C 0.53936 0.39916 0.14777 0.0
O1559 O 0.52623 0.39573 0.16221 0.0
N1560 N 0.54165 0.45406 0.12475 0.0
C1561 C 0.57173 0.46547 0.11534 0.0
C1562 C 0.56172 0.45154 0.12706 0.0
C1563 C 0.53981 0.46967 0.11178 0.0
N1564 N 0.55791 0.4769 0.10573 0.0
O1565 O 0.51118 0.43209 0.11037 0.0
H1566 H 0.56867 0.44043 0.1368 0.0
H1567 H 0.52541 0.47551 0.10677 0.0
O1568 O 0.53845 0.41562 0.13767 0.0
C1569 C 0.49551 0.44239 0.10593 0.0
O1570 O 0.48831 0.45505 0.1194 0.0
N1571 N 0.52892 0.44953 0.16212 0.0
C1572 C 0.534 0.47146 0.19795 0.0
C1573 C 0.5423 0.45198 0.1958 0.0
C1574 C 0.53964 0.44121 0.17765 0.0
C1575 C 0.52167 0.46872 0.16369 0.0
C1576 C 0.52401 0.47989 0.18132 0.0
H1577 H 0.54598 0.4263 0.17638 0.0
H1578 H 0.51346 0.47522 0.15116 0.0
H1579 H 0.49439 0.40051 0.12794 0.0
H1580 H 0.46043 0.41833 0.17842 0.0
H1581 H 0.58792 0.4673 0.11432 0.0
H1582 H 0.55026 0.4449 0.20819 0.0
H1583 H 0.51783 0.49501 0.18192 0.0
H1584 H 0.20498 0.18039 0.33577 0.0
H1585 H 0.2621 0.2115 0.33715 0.0
H1586 H 0.18726 0.21265 0.3343 0.0
H1587 H 0.24429 0.24411 0.33524 0.0
H1588 H 0.20175 0.28954 0.29798 0.0
H1589 H 0.22228 0.25985 0.30625 0.0
H1590 H 0.18129 0.24498 0.35455 0.0
H1591 H 0.16082 0.2745 0.3463 0.0
C1592 C 0.21369 0.19423 0.33623 0.0
C1593 C 0.23484 0.19355 0.33676 0.0
C1594 C 0.20357 0.21269 0.33538 0.0
C1595 C 0.21439 0.23089 0.33457 0.0
C1596 C 0.23559 0.23028 0.33578 0.0
C1597 C 0.24576 0.21171 0.3371 0.0
C1598 C 0.19723 0.27998 0.31043 0.0
C1599 C 0.17962 0.28433 0.32143 0.0
C1600 C 0.20908 0.26314 0.3153 0.0
C1601 C 0.20339 0.25015 0.33108 0.0
C1602 C 0.18603 0.25473 0.34232 0.0
C1603 C 0.17436 0.27169 0.33764 0.0
H1604 H 0.42847 0.56836 0.94044 0.0
H1605 H 0.45802 0.51031 0.94082 0.0
H1606 H 0.46115 0.58522 0.94148 0.0
H1607 H 0.49106 0.52729 0.94229 0.0
H1608 H 0.53746 0.57007 0.97821 0.0
H1609 H 0.50741 0.5499 0.97057 0.0
H1610 H 0.49351 0.58955 0.92081 0.0
H1611 H 0.52341 0.60967 0.92843 0.0
C1612 C 0.44205 0.55924 0.94036 0.0
C1613 C 0.44081 0.53808 0.94044 0.0
C1614 C 0.46075 0.56888 0.94093 0.0
C1615 C 0.47864 0.55757 0.94202 0.0
C1616 C 0.47747 0.53634 0.9415 0.0
C1617 C 0.45866 0.52665 0.94046 0.0
C1618 C 0.52805 0.57436 0.96556 0.0
C1619 C 0.53276 0.59152 0.95399 0.0
C1620 C 0.51099 0.5627 0.96106 0.0
C1621 C 0.49815 0.56816 0.94508 0.0
C1622 C 0.50314 0.58501 0.93322 0.0
C1623 C 0.52031 0.59648 0.93754 0.0
H1624 H 0.81838 0.23963 0.29318 0.0
H1625 H 0.85687 0.25378 0.34378 0.0
H1626 H 0.79787 0.26961 0.30057 0.0
H1627 H 0.8364 0.28338 0.35121 0.0
H1628 H 0.81494 0.34839 0.3336 0.0
H1629 H 0.8321 0.31589 0.33156 0.0
H1630 H 0.77453 0.28557 0.32832 0.0
H1631 H 0.75725 0.31846 0.33074 0.0
C1632 C 0.82238 0.24904 0.30592 0.0
C1633 C 0.8393 0.24433 0.31784 0.0
C1634 C 0.81052 0.26604 0.31029 0.0
C1635 C 0.81553 0.27881 0.32649 0.0
C1636 C 0.83219 0.27385 0.33861 0.0
C1637 C 0.84386 0.25681 0.3344 0.0
C1638 C 0.80595 0.33473 0.33297 0.0
C1639 C 0.78482 0.33583 0.33256 0.0
C1640 C 0.81576 0.31613 0.33179 0.0
C1641 C 0.80466 0.29819 0.32973 0.0
C1642 C 0.78344 0.29919 0.32983 0.0
C1643 C 0.77356 0.31791 0.33146 0.0
H1644 H 0.49971 0.91446 0.93061 0.0
H1645 H 0.48431 0.95265 0.98107 0.0
H1646 H 0.52848 0.93614 0.92298 0.0
H1647 H 0.51326 0.97433 0.97348 0.0
H1648 H 0.56059 0.01665 0.94513 0.0
H1649 H 0.52835 0.99817 0.94612 0.0
H1650 H 0.56079 0.9417 0.94282 0.0
H1651 H 0.59267 0.96006 0.94222 0.0
C1652 C 0.50227 0.92766 0.93989 0.0
C1653 C 0.48979 0.93176 0.95653 0.0
C1654 C 0.51881 0.94002 0.93556 0.0
C1655 C 0.52311 0.95693 0.94762 0.0
C1656 C 0.5102 0.96151 0.9638 0.0
C1657 C 0.49378 0.94898 0.96829 0.0
C1658 C 0.56066 1.00032 0.94405 0.0
C1659 C 0.57897 0.9897 0.94343 0.0
C1660 C 0.54231 0.98976 0.94483 0.0
C1661 C 0.54208 0.96849 0.94458 0.0
C1662 C 0.56045 0.95805 0.94284 0.0
C1663 C 0.57868 0.96854 0.9425 0.0
H1664 H 0.19012 0.73741 0.18321 0.0
H1665 H 0.18035 0.75623 0.24485 0.0
H1666 H 0.2103 0.76764 0.17726 0.0
H1667 H 0.20114 0.78578 0.23912 0.0
H1668 H 0.21448 0.84817 0.21668 0.0
H1669 H 0.19644 0.81669 0.22055 0.0
H1670 H 0.24206 0.78593 0.18562 0.0
H1671 H 0.26025 0.81807 0.1814 0.0
C1672 C 0.19229 0.74788 0.19554 0.0
C1673 C 0.18326 0.74438 0.21447 0.0
C1674 C 0.2041 0.76511 0.19215 0.0
C1675 C 0.20715 0.77929 0.20762 0.0
C1676 C 0.19879 0.77538 0.22673 0.0
C1677 C 0.18699 0.75823 0.2301 0.0
C1678 C 0.22075 0.83476 0.20973 0.0
C1679 C 0.23895 0.83561 0.1989 0.0
C1680 C 0.21042 0.81662 0.21209 0.0
C1681 C 0.218 0.79865 0.2038 0.0
C1682 C 0.23584 0.79951 0.19224 0.0
C1683 C 0.24625 0.81788 0.1898 0.0
H1684 H 0.0781 0.54013 0.10589 0.0
H1685 H 0.07778 0.52449 0.04276 0.0
H1686 H 0.04745 0.56042 0.10091 0.0
H1687 H 0.04702 0.54382 0.03785 0.0
H1688 H 1.01143 0.60137 0.02898 0.0
H1689 H 0.03923 0.57849 0.0359 0.0
H1690 H 1.01196 0.5623 0.09284 0.0
H1691 H 0.98422 0.58562 0.08596 0.0
C1692 C 0.07112 0.54057 0.09112 0.0
C1693 C 0.08032 0.53093 0.07468 0.0
C1694 C 0.05361 0.55221 0.08821 0.0
C1695 C 0.04496 0.55417 0.06884 0.0
C1696 C 0.05355 0.54326 0.05281 0.0
C1697 C 0.07108 0.53198 0.05566 0.0
C1698 C 1.01123 0.5928 0.04287 0.0
C1699 C 0.99553 0.59531 0.05685 0.0
C1700 C 0.02719 0.57959 0.04687 0.0
C1701 C 0.02782 0.56831 0.06489 0.0
C1702 C 1.01212 0.57084 0.07892 0.0
C1703 C 0.99619 0.58421 0.07495 0.0
H1704 H 0.76462 0.70911 0.18688 0.0
H1705 H 0.82184 0.67808 0.18575 0.0
H1706 H 0.78238 0.74154 0.19093 0.0
H1707 H 0.83947 0.71017 0.18942 0.0
H1708 H 0.86539 0.7726 0.17956 0.0
H1709 H 0.84505 0.74324 0.17073 0.0
H1710 H 0.80481 0.75614 0.22022 0.0
H1711 H 0.82521 0.78578 0.22905 0.0
C1712 C 0.78096 0.70932 0.18693 0.0
C1713 C 0.79192 0.6912 0.18589 0.0
C1714 C 0.79109 0.72778 0.18948 0.0
C1715 C 0.8123 0.72835 0.19055 0.0
C1716 C 0.82316 0.71025 0.1885 0.0
C1717 C 0.81307 0.69189 0.18641 0.0
C1718 C 0.85206 0.76938 0.18841 0.0
C1719 C 0.84694 0.78151 0.20505 0.0
C1720 C 0.84047 0.7525 0.18339 0.0
C1721 C 0.82333 0.74743 0.19475 0.0
C1722 C 0.81784 0.75982 0.21108 0.0
C1723 C 0.82963 0.77662 0.21627 0.0
H1724 H 0.02676 0.92787 0.09508 0.0
H1725 H 0.0366 0.95548 0.0369 0.0
H1726 H 0.99726 0.9492 0.10023 0.0
H1727 H 1.00706 0.97679 0.04205 0.0
H1728 H 0.9387 0.98644 0.04558 0.0
H1729 H 0.97111 0.96995 0.04271 0.0
H1730 H 0.98414 0.98424 0.10492 0.0
H1731 H 0.95104 1.00084 0.10792 0.0
C1732 C 0.02286 0.9387 0.08351 0.0
C1733 C 0.03399 0.93975 0.06544 0.0
C1734 C 1.00594 0.95099 0.08651 0.0
C1735 C 0.9997 0.96462 0.07152 0.0
C1736 C 1.01125 0.9662 0.05378 0.0
C1737 C 0.02816 0.95392 0.05077 0.0
C1738 C 0.94842 0.98621 0.05871 0.0
C1739 C 0.9422 0.99487 0.07705 0.0
C1740 C 0.96717 0.97688 0.05697 0.0
C1741 C 0.98031 0.97584 0.07353 0.0
C1742 C 0.97429 0.98472 0.0919 0.0
C1743 C 0.95543 0.9943 0.09361 0.0
H1744 H 0.34197 0.18906 0.28346 0.0
H1745 H 0.27775 0.19249 0.27272 0.0
H1746 H 0.34814 0.20759 0.25227 0.0
H1747 H 0.28399 0.21073 0.24151 0.0
H1748 H 0.30329 0.21676 0.17624 0.0
H1749 H 0.29886 0.20092 0.20879 0.0
H1750 H 0.34284 0.24138 0.23473 0.0
H1751 H 0.34744 0.25752 0.20162 0.0
C1752 C 0.32914 0.19394 0.27463 0.0
C1753 C 0.30933 0.18904 0.2806 0.0
C1754 C 0.33272 0.20459 0.25675 0.0
C1755 C 0.31658 0.21048 0.24435 0.0
C1756 C 0.29678 0.20608 0.25057 0.0
C1757 C 0.29319 0.19553 0.26846 0.0
C1758 C 0.31212 0.22238 0.18878 0.0
C1759 C 0.32565 0.23855 0.18631 0.0
C1760 C 0.30944 0.21332 0.20753 0.0
C1761 C 0.32024 0.22009 0.22441 0.0
C1762 C 0.33428 0.23587 0.22196 0.0
C1763 C 0.33691 0.2451 0.20305 0.0
H1764 H 0.41126 0.43468 1.00543 0.0
H1765 H 0.45248 0.48294 0.99081 0.0
H1766 H 0.43157 0.42609 0.03485 0.0
H1767 H 0.47288 0.47434 0.02052 0.0
H1768 H 0.51251 0.44073 0.06822 0.0
H1769 H 0.49471 0.44467 0.0358 0.0
H1770 H 0.43777 0.44565 0.06736 0.0
H1771 H 0.45544 0.44211 0.09941 0.0
C1772 C 0.42481 0.4433 1.00834 0.0
C1773 C 0.43023 0.45953 0.99578 0.0
C1774 C 0.4364 0.43842 0.02526 0.0
C1775 C 0.45383 0.44951 0.02996 0.0
C1776 C 0.45962 0.46541 0.01714 0.0
C1777 C 0.44784 0.47048 1.0003 0.0
C1778 C 0.49618 0.44132 0.06806 0.0
C1779 C 0.48529 0.44099 0.08622 0.0
C1780 C 0.48603 0.4438 0.04961 0.0
C1781 C 0.46486 0.44551 0.04908 0.0
C1782 C 0.45405 0.44423 0.06725 0.0
C1783 C 0.46416 0.4422 0.08559 0.0
H1784 H 0.68298 0.36272 0.26796 0.0
H1785 H 0.73132 0.32263 0.28543 0.0
H1786 H 0.67519 0.34104 0.23939 0.0
H1787 H 0.72355 0.30085 0.25643 0.0
H1788 H 0.69091 0.25906 0.20952 0.0
H1789 H 0.69444 0.27806 0.24133 0.0
H1790 H 0.69536 0.33388 0.20769 0.0
H1791 H 0.6922 0.31503 0.17629 0.0
C1792 C 0.6918 0.34912 0.26587 0.0
C1793 C 0.7078 0.34442 0.27899 0.0
C1794 C 0.68737 0.33675 0.24941 0.0
C1795 C 0.69872 0.31925 0.24569 0.0
C1796 C 0.71442 0.31417 0.25906 0.0
C1797 C 0.71902 0.32673 0.27548 0.0
C1798 C 0.69138 0.2754 0.20911 0.0
C1799 C 0.69109 0.28567 0.19059 0.0
C1800 C 0.69365 0.28623 0.22721 0.0
C1801 C 0.6952 0.30744 0.22696 0.0
C1802 C 0.69403 0.31759 0.2084 0.0
C1803 C 0.69221 0.30682 0.19043 0.0
H1804 H 0.56784 0.0437 0.99273 0.0
H1805 H 0.60562 0.0955 1.00434 0.0
H1806 H 0.54746 0.05209 0.02249 0.0
H1807 H 0.58529 0.1039 0.03375 0.0
H1808 H 0.5643 0.08863 0.09955 0.0
H1809 H 0.5814 0.08565 0.06713 0.0
H1810 H 0.5238 0.08025 0.03717 0.0
H1811 H 0.50659 0.08361 0.06993 0.0
C1812 C 0.57171 0.0569 1.00155 0.0
C1813 C 0.58838 0.06889 0.99619 0.0
C1814 C 0.55993 0.06184 0.01842 0.0
C1815 C 0.56477 0.07869 0.0304 0.0
C1816 C 0.58121 0.09083 0.02482 0.0
C1817 C 0.59279 0.08605 1.00789 0.0
C1818 C 0.55529 0.08735 0.08596 0.0
C1819 C 0.53417 0.08657 0.08713 0.0
C1820 C 0.56505 0.08562 0.06742 0.0
C1821 C 0.55394 0.08264 0.04963 0.0
C1822 C 0.53272 0.08245 0.05068 0.0
C1823 C 0.52288 0.08463 0.06932 0.0
H1824 H 0.33599 0.81373 0.34775 0.0
H1825 H 0.33032 0.75706 0.31625 0.0
H1826 H 0.33419 0.83194 0.31583 0.0
H1827 H 0.32816 0.77539 0.28396 0.0
H1828 H 0.29354 0.82127 0.24011 0.0
H1829 H 0.30105 0.79985 0.26935 0.0
H1830 H 0.3529 0.8368 0.28302 0.0
H1831 H 0.34534 0.85821 0.25408 0.0
C1832 C 0.33483 0.80518 0.33386 0.0
C1833 C 0.33352 0.78405 0.33434 0.0
C1834 C 0.33378 0.81558 0.31559 0.0
C1835 C 0.33096 0.8051 0.29739 0.0
C1836 C 0.33026 0.78384 0.29779 0.0
C1837 C 0.33174 0.77336 0.31615 0.0
C1838 C 0.30656 0.82475 0.24935 0.0
C1839 C 0.31879 0.8415 0.24481 0.0
C1840 C 0.311 0.81236 0.26592 0.0
C1841 C 0.32759 0.81664 0.27844 0.0
C1842 C 0.33999 0.83315 0.27367 0.0
C1843 C 0.33571 0.84536 0.25702 0.0
H1844 H 0.01587 0.43004 0.95681 0.0
H1845 H 0.07157 0.44056 0.92488 0.0
H1846 H 0.03368 0.43404 0.989 0.0
H1847 H 0.08948 0.44377 0.95672 0.0
H1848 H 0.10875 0.47784 0.01235 0.0
H1849 H 0.09094 0.46939 0.9816 0.0
H1850 H 0.05869 0.4222 0.01293 0.0
H1851 H 0.07579 0.4314 0.04414 0.0
C1852 C 0.03202 0.43258 0.95672 0.0
C1853 C 0.04234 0.43518 0.93843 0.0
C1854 C 0.04224 0.43492 0.97513 0.0
C1855 C 0.06297 0.43971 0.97547 0.0
C1856 C 0.07343 0.44075 0.95707 0.0
C1857 C 0.06321 0.4387 0.9388 0.0
C1858 C 0.09773 0.46581 0.01286 0.0
C1859 C 0.09378 0.45539 0.03089 0.0
C1860 C 0.08769 0.46072 0.99506 0.0
C1861 C 0.07351 0.44491 0.99466 0.0
C1862 C 0.06945 0.43449 0.01268 0.0
C1863 C 0.07946 0.43966 0.03057 0.0
H1864 H 0.68566 0.69157 0.23322 0.0
H1865 H 0.74667 0.68053 0.25343 0.0
H1866 H 0.67899 0.71074 0.26399 0.0
H1867 H 0.74023 0.70026 0.28356 0.0
H1868 H 0.71593 0.71102 0.34558 0.0
H1869 H 0.72015 0.69403 0.31356 0.0
H1870 H 0.68769 0.74204 0.28364 0.0
H1871 H 0.68317 0.7592 0.31629 0.0
C1872 C 0.69769 0.69327 0.24412 0.0
C1873 C 0.71666 0.6842 0.24087 0.0
C1874 C 0.6939 0.70448 0.26165 0.0
C1875 C 0.70898 0.70681 0.27635 0.0
C1876 C 0.72814 0.69844 0.27271 0.0
C1877 C 0.73193 0.68727 0.25526 0.0
C1878 C 0.70957 0.71801 0.33224 0.0
C1879 C 0.69942 0.7366 0.33344 0.0
C1880 C 0.71212 0.70829 0.31382 0.0
C1881 C 0.70469 0.71689 0.29596 0.0
C1882 C 0.69366 0.73506 0.29716 0.0
C1883 C 0.69104 0.74487 0.3158 0.0
H1884 H 0.95393 0.087 0.04528 0.0
H1885 H 0.91158 0.05056 1.0118 0.0
H1886 H 0.97372 0.09223 0.0146 0.0
H1887 H 0.9311 0.05592 0.98122 0.0
H1888 H 0.98189 0.04643 0.93791 0.0
H1889 H 0.96327 0.04427 0.96917 0.0
H1890 H 0.97429 0.1076 0.98035 0.0
H1891 H 0.99361 0.10967 0.94871 0.0
C1892 C 0.9487 0.08032 0.03134 0.0
C1893 C 0.9313 0.06813 0.03103 0.0
C1894 C 0.96002 0.08336 0.01375 0.0
C1895 C 0.95416 0.07428 0.99551 0.0
C1896 C 0.93635 0.06273 0.99512 0.0
C1897 C 0.92513 0.05963 0.01265 0.0
C1898 C 0.98042 0.05997 0.94697 0.0
C1899 C 0.98902 0.07831 0.94071 0.0
C1900 C 0.9696 0.05873 0.9649 0.0
C1901 C 0.96688 0.07585 0.97708 0.0
C1902 C 0.9761 0.09413 0.97126 0.0
C1903 C 0.98713 0.09535 0.95319 0.0
H1904 H 0.26092 0.28669 0.17288 0.0
H1905 H 0.28851 0.34246 0.1922 0.0
H1906 H 0.2328 0.29272 0.19556 0.0
H1907 H 0.2604 0.34843 0.21528 0.0
H1908 H 0.19393 0.36066 0.23727 0.0
H1909 H 0.22477 0.35667 0.21708 0.0
H1910 H 0.2249 0.29274 0.23031 0.0
H1911 H 0.194 0.29671 0.24956 0.0
C1912 C 0.26111 0.30013 0.18216 0.0
C1913 C 0.27705 0.31401 0.18075 0.0
C1914 C 0.24497 0.30361 0.19526 0.0
C1915 C 0.24436 0.32099 0.2075 0.0
C1916 C 0.26024 0.33498 0.20599 0.0
C1917 C 0.27638 0.33154 0.19275 0.0
C1918 C 0.2009 0.3459 0.23613 0.0
C1919 C 0.19158 0.32897 0.24479 0.0
C1920 C 0.21851 0.34355 0.22454 0.0
C1921 C 0.22712 0.32426 0.22164 0.0
C1922 C 0.21841 0.30769 0.23161 0.0
C1923 C 0.20079 0.30999 0.24284 0.0
H1924 H 0.17525 0.68911 0.31882 0.0
H1925 H 0.20618 0.6901 0.26161 0.0
H1926 H 0.20734 0.69266 0.33644 0.0
H1927 H 0.23862 0.69405 0.27936 0.0
H1928 H 0.28342 0.73123 0.32282 0.0
H1929 H 0.25351 0.72334 0.30236 0.0
H1930 H 0.24015 0.673 0.34146 0.0
H1931 H 0.26973 0.68086 0.36179 0.0
C1932 C 0.18902 0.68973 0.31005 0.0
C1933 C 0.18833 0.68915 0.28891 0.0
C1934 C 0.20738 0.69178 0.32012 0.0
C1935 C 0.22545 0.69372 0.30926 0.0
C1936 C 0.22487 0.69268 0.28806 0.0
C1937 C 0.20641 0.69017 0.27795 0.0
C1938 C 0.27408 0.71848 0.32696 0.0
C1939 C 0.27892 0.70668 0.34391 0.0
C1940 C 0.25714 0.71383 0.31515 0.0
C1941 C 0.24457 0.69751 0.3203 0.0
C1942 C 0.24956 0.68565 0.33713 0.0
C1943 C 0.26656 0.69011 0.34872 0.0
H1944 H 0.93512 0.48617 0.94374 0.0
H1945 H 0.99133 0.51109 0.92225 0.0
H1946 H 0.92683 0.51846 0.9595 0.0
H1947 H 0.98311 0.5432 0.93793 0.0
H1948 H 0.95651 0.60339 0.95171 0.0
H1949 H 0.9603 0.57119 0.93467 0.0
H1950 H 0.9374 0.54047 0.98739 0.0
H1951 H 0.93315 0.57313 1.00442 0.0
C1952 C 0.94573 0.49851 0.94239 0.0
C1953 C 0.96389 0.49599 0.93166 0.0
C1954 C 0.94098 0.51701 0.95146 0.0
C1955 C 0.95425 0.53347 0.94996 0.0
C1956 C 0.97233 0.53098 0.93908 0.0
C1957 C 0.97706 0.51252 0.93002 0.0
C1958 C 0.95207 0.5898 0.95964 0.0
C1959 C 0.94472 0.59076 0.97949 0.0
C1960 C 0.95437 0.5713 0.94989 0.0
C1961 C 0.94956 0.55318 0.95977 0.0
C1962 C 0.94122 0.55416 0.97932 0.0
C1963 C 0.93877 0.57283 0.98909 0.0
H1964 H 0.81938 0.83219 0.25845 0.0
H1965 H 0.85095 0.83155 0.31535 0.0
H1966 H 0.78707 0.82841 0.27646 0.0
H1967 H 0.81896 0.82825 0.33323 0.0
H1968 H 0.75658 0.84104 0.35903 0.0
H1969 H 0.78617 0.84877 0.33857 0.0
H1970 H 0.77231 0.79858 0.29945 0.0
H1971 H 0.74254 0.79076 0.32009 0.0
C1972 C 0.81932 0.83177 0.27478 0.0
C1973 C 0.83755 0.83229 0.28557 0.0
C1974 C 0.80094 0.82939 0.28504 0.0
C1975 C 0.80055 0.828 0.30623 0.0
C1976 C 0.81878 0.82941 0.31693 0.0
C1977 C 0.83706 0.8313 0.30671 0.0
C1978 C 0.75967 0.83179 0.34594 0.0
C1979 C 0.74724 0.81526 0.34119 0.0
C1980 C 0.77666 0.83619 0.33427 0.0
C1981 C 0.78148 0.82433 0.31739 0.0
C1982 C 0.76881 0.80809 0.31228 0.0
C1983 C 0.75194 0.80348 0.32418 0.0
H1984 H 0.54396 0.53559 0.45273 0.0
H1985 H 0.59306 0.5208 0.41262 0.0
H1986 H 0.55208 0.50591 0.47338 0.0
H1987 H 0.60122 0.49144 0.43322 0.0
H1988 H 0.58484 0.42688 0.45677 0.0
H1989 H 0.58192 0.45896 0.43899 0.0
H1990 H 0.58076 0.49057 0.49594 0.0
H1991 H 0.58404 0.4581 0.51384 0.0
C1992 C 0.5565 0.52608 0.44838 0.0
C1993 C 0.56781 0.53053 0.431 0.0
C1994 C 0.5613 0.50925 0.46032 0.0
C1995 C 0.57732 0.4964 0.45492 0.0
C1996 C 0.58878 0.50105 0.43773 0.0
C1997 C 0.58415 0.51794 0.42599 0.0
C1998 C 0.58443 0.44072 0.46547 0.0
C1999 C 0.58483 0.4401 0.48662 0.0
C2000 C 0.58276 0.45909 0.45531 0.0
C2001 C 0.58104 0.47727 0.46607 0.0
C2002 C 0.58198 0.47675 0.48729 0.0
C2003 C 0.58409 0.45827 0.4975 0.0
H2004 H 0.23369 0.68617 0.70434 0.0
H2005 H 0.26392 0.7312 0.66802 0.0
H2006 H 0.26498 0.67931 0.72194 0.0
H2007 H 0.29481 0.72519 0.68653 0.0
H2008 H 0.35255 0.69901 0.70833 0.0
H2009 H 0.32081 0.70152 0.69019 0.0
H2010 H 0.28833 0.69227 0.74597 0.0
H2011 H 0.32049 0.68885 0.76398 0.0
C2012 C 0.24689 0.69468 0.70001 0.0
C2013 C 0.24602 0.70928 0.68451 0.0
C2014 C 0.2649 0.69086 0.71038 0.0
C2015 C 0.28257 0.70158 0.70569 0.0
C2016 C 0.28166 0.7163 0.69037 0.0
C2017 C 0.26373 0.71999 0.67987 0.0
C2018 C 0.3386 0.69719 0.71665 0.0
C2019 C 0.33893 0.6938 0.73755 0.0
C2020 C 0.32037 0.69886 0.7063 0.0
C2021 C 0.30189 0.69759 0.71662 0.0
C2022 C 0.30223 0.69326 0.73746 0.0
C2023 C 0.32061 0.69126 0.74782 0.0
H2024 H 0.97845 0.53729 0.57288 0.0
H2025 H 0.92887 0.52286 0.61255 0.0
H2026 H 0.96994 0.50796 0.55187 0.0
H2027 H 0.92031 0.49397 0.59157 0.0
H2028 H 0.93599 0.42935 0.56789 0.0
H2029 H 0.93908 0.46132 0.58581 0.0
H2030 H 0.94129 0.49314 0.529 0.0
H2031 H 0.93786 0.46078 0.51095 0.0
C2032 C 0.96571 0.52795 0.57704 0.0
C2033 C 0.95438 0.5324 0.59442 0.0
C2034 C 0.96069 0.51134 0.5649 0.0
C2035 C 0.94443 0.49872 0.57008 0.0
C2036 C 0.93293 0.5034 0.58722 0.0
C2037 C 0.9378 0.52004 0.59919 0.0
C2038 C 0.9366 0.44324 0.55925 0.0
C2039 C 0.93646 0.44271 0.53811 0.0
C2040 C 0.93839 0.46153 0.56949 0.0
C2041 C 0.9405 0.47972 0.55881 0.0
C2042 C 0.93977 0.47931 0.53759 0.0
C2043 C 0.93755 0.4609 0.52729 0.0
H2044 H 0.09846 1.00285 0.60811 0.0
H2045 H 0.04668 0.99047 0.57058 0.0
H2046 H 0.10632 0.03238 0.58767 0.0
H2047 H 0.05452 0.02032 0.55012 0.0
H2048 H 0.08458 0.06842 0.50913 0.0
H2049 H 0.08213 0.03552 0.52632 0.0
H2050 H 0.08754 0.06551 0.58389 0.0
H2051 H 0.0896 0.09806 0.56682 0.0
C2052 C 0.0889 1.00626 0.59532 0.0
C2053 C 0.07189 0.99432 0.59101 0.0
C2054 C 0.09337 0.02325 0.58367 0.0
C2055 C 0.08106 0.02865 0.56729 0.0
C2056 C 0.06439 0.0164 0.56254 0.0
C2057 C 0.05976 0.99948 0.57438 0.0
C2058 C 0.0858 0.06779 0.52541 0.0
C2059 C 0.08747 0.08564 0.53671 0.0
C2060 C 0.08416 0.04907 0.53524 0.0
C2061 C 0.08459 0.04798 0.55644 0.0
C2062 C 0.08732 0.06582 0.56756 0.0
C2063 C 0.08853 0.08445 0.5578 0.0
H2064 H 0.74654 0.70079 0.85459 0.0
H2065 H 0.72971 0.68736 0.79308 0.0
H2066 H 0.72995 0.73396 0.85158 0.0
H2067 H 0.71336 0.71989 0.79018 0.0
H2068 H 0.70037 0.78584 0.78374 0.0
H2069 H 0.72129 0.75604 0.78891 0.0
H2070 H 0.69429 0.74701 0.84744 0.0
H2071 H 0.67319 0.77671 0.84225 0.0
C2072 C 0.73947 0.70495 0.84045 0.0
C2073 C 0.73935 0.69141 0.82414 0.0
C2074 C 0.72991 0.72385 0.83874 0.0
C2075 C 0.72042 0.72959 0.82059 0.0
C2076 C 0.72075 0.71613 0.80426 0.0
C2077 C 0.73001 0.69733 0.80603 0.0
C2078 C 0.6988 0.77752 0.79769 0.0
C2079 C 0.68484 0.78363 0.81243 0.0
C2080 C 0.71089 0.76047 0.8007 0.0
C2081 C 0.70938 0.74908 0.81855 0.0
C2082 C 0.69599 0.75557 0.83363 0.0
C2083 C 0.68383 0.77261 0.83059 0.0
H2084 H 0.92841 0.06199 0.462 0.0
H2085 H 0.95862 0.0142 0.42953 0.0
H2086 H 0.96019 0.0793 0.46666 0.0
H2087 H 0.99103 0.03171 0.43449 0.0
H2088 H 0.04022 0.08352 0.43231 0.0
H2089 H 1.01013 0.0633 0.42581 0.0
H2090 H 0.99023 0.07362 0.48693 0.0
H2091 H 0.0197 0.09444 0.4932 0.0
C2092 C 0.94191 0.05515 0.45581 0.0
C2093 C 0.94103 0.0366 0.44557 0.0
C2094 C 0.96019 0.06505 0.45863 0.0
C2095 C 0.97823 0.05667 0.45139 0.0
C2096 C 0.97736 0.0385 0.44033 0.0
C2097 C 0.95886 0.02851 0.43743 0.0
C2098 C 0.02941 0.08154 0.44437 0.0
C2099 C 0.0323 0.09097 0.46321 0.0
C2100 C 1.01228 0.06972 0.44068 0.0
C2101 C 0.99764 0.06709 0.45574 0.0
C2102 C 1.00103 0.07568 0.47486 0.0
C2103 C 0.0181 0.08748 0.47854 0.0
H2104 H 0.26006 0.8172 0.83013 0.0
H2105 H 0.31627 0.84938 0.83604 0.0
H2106 H 0.27882 0.78529 0.82617 0.0
H2107 H 0.33491 0.81785 0.83239 0.0
H2108 H 0.36185 0.75607 0.84231 0.0
H2109 H 0.34049 0.78488 0.85012 0.0
H2110 H 0.30313 0.77133 0.79854 0.0
H2111 H 0.32457 0.74203 0.7908 0.0
C2112 C 0.27637 0.8173 0.83122 0.0
C2113 C 0.28679 0.83558 0.8337 0.0
C2114 C 0.28709 0.79917 0.82866 0.0
C2115 C 0.30834 0.79909 0.82891 0.0
C2116 C 0.31858 0.81735 0.8323 0.0
C2117 C 0.30793 0.8354 0.83445 0.0
C2118 C 0.34895 0.759 0.83275 0.0
C2119 C 0.34491 0.7467 0.81592 0.0
C2120 C 0.33677 0.77561 0.83718 0.0
C2121 C 0.32011 0.78035 0.82499 0.0
C2122 C 0.31576 0.76791 0.80833 0.0
C2123 C 0.32815 0.75131 0.80375 0.0
H2124 H 1.00346 0.43329 0.49389 0.0
H2125 H 0.9837 0.44624 0.43311 0.0
H2126 H 0.03378 0.45292 0.48819 0.0
H2127 H 0.01468 0.46527 0.42717 0.0
H2128 H 0.06779 0.51252 0.43225 0.0
H2129 H 0.03485 0.49585 0.43641 0.0
H2130 H 0.06385 0.44699 0.46841 0.0
H2131 H 0.09616 0.46351 0.46457 0.0
C2132 C 1.00541 0.44043 0.47935 0.0
C2133 C 0.99109 0.43789 0.46392 0.0
C2134 C 0.02299 0.45155 0.476 0.0
C2135 C 0.02686 0.46039 0.45709 0.0
C2136 C 1.01219 0.45864 0.44189 0.0
C2137 C 0.99452 0.44751 0.44526 0.0
C2138 C 0.06704 0.49812 0.43995 0.0
C2139 C 0.08452 0.48946 0.44828 0.0
C2140 C 0.04822 0.48859 0.44237 0.0
C2141 C 0.04666 0.47029 0.45315 0.0
C2142 C 0.06436 0.46134 0.46059 0.0
C2143 C 0.08296 0.47079 0.45824 0.0
H2144 H 0.743 0.32162 0.66781 0.0
H2145 H 0.73492 0.33208 0.73158 0.0
H2146 H 0.72521 0.28915 0.67111 0.0
H2147 H 0.71729 0.30024 0.73482 0.0
H2148 H 0.69889 0.23563 0.73924 0.0
H2149 H 0.72183 0.26375 0.73326 0.0
H2150 H 0.6897 0.2785 0.67855 0.0
H2151 H 0.6667 0.25045 0.68454 0.0
C2152 C 0.73767 0.31688 0.6825 0.0
C2153 C 0.74021 0.32944 0.69939 0.0
C2154 C 0.7274 0.29841 0.68439 0.0
C2155 C 0.71985 0.2921 0.70325 0.0
C2156 C 0.72311 0.30444 0.72014 0.0
C2157 C 0.73308 0.32284 0.71822 0.0
C2158 C 0.69667 0.24486 0.72596 0.0
C2159 C 0.68074 0.24087 0.71254 0.0
C2160 C 0.70989 0.26093 0.72246 0.0
C2161 C 0.70754 0.27344 0.70547 0.0
C2162 C 0.6921 0.26901 0.69164 0.0
C2163 C 0.67885 0.25294 0.69514 0.0
H2164 H 0.57457 0.03031 0.60693 0.0
H2165 H 0.58225 0.03573 0.54249 0.0
H2166 H 0.54178 0.04763 0.60422 0.0
H2167 H 0.55018 0.05294 0.53981 0.0
H2168 H 0.48637 0.07173 0.53639 0.0
H2169 H 0.5141 0.04847 0.54288 0.0
H2170 H 0.53049 0.08272 0.59584 0.0
H2171 H 0.50256 0.10592 0.58941 0.0
C2172 C 0.56912 0.03492 0.59222 0.0
C2173 C 0.58097 0.03183 0.57495 0.0
C2174 C 0.55048 0.04493 0.59067 0.0
C2175 C 0.54336 0.05165 0.57178 0.0
C2176 C 0.555 0.04775 0.55454 0.0
C2177 C 0.57353 0.03803 0.55611 0.0
C2178 C 0.49586 0.07429 0.54943 0.0
C2179 C 0.49246 0.09088 0.56218 0.0
C2180 C 0.51169 0.06091 0.55322 0.0
C2181 C 0.52463 0.06386 0.56978 0.0
C2182 C 0.52068 0.0799 0.58308 0.0
C2183 C 0.50474 0.09326 0.57934 0.0
H2184 H 0.34593 0.26877 0.74325 0.0
H2185 H 0.33551 0.28936 0.68228 0.0
H2186 H 0.32683 0.23833 0.73624 0.0
H2187 H 0.31699 0.25832 0.67503 0.0
H2188 H 0.26929 0.20562 0.67746 0.0
H2189 H 0.28602 0.23834 0.68282 0.0
H2190 H 0.33326 0.20839 0.71631 0.0
H2191 H 0.31664 0.17624 0.71129 0.0
C2192 C 0.33946 0.26696 0.72839 0.0
C2193 C 0.3425 0.28157 0.71331 0.0
C2194 C 0.32867 0.24932 0.72428 0.0
C2195 C 0.32063 0.24572 0.70496 0.0
C2196 C 0.32298 0.26062 0.69006 0.0
C2197 C 0.33381 0.27832 0.69418 0.0
C2198 C 0.28335 0.20611 0.68577 0.0
C2199 C 0.29151 0.18838 0.69413 0.0
C2200 C 0.29292 0.2248 0.68886 0.0
C2201 C 0.31077 0.22603 0.70036 0.0
C2202 C 0.31925 0.20812 0.7079 0.0
C2203 C 0.30975 0.18962 0.70487 0.0
H2204 H 0.53797 0.45316 0.54186 0.0
H2205 H 0.52288 0.41357 0.59134 0.0
H2206 H 0.50911 0.47474 0.5504 0.0
H2207 H 0.49433 0.43512 0.59991 0.0
H2208 H 0.43023 0.46026 0.58353 0.0
H2209 H 0.46182 0.44161 0.58073 0.0
H2210 H 0.49483 0.4978 0.57927 0.0
H2211 H 0.46287 0.51657 0.58245 0.0
C2212 C 0.52857 0.44913 0.55458 0.0
C2213 C 0.53266 0.43161 0.56586 0.0
C2214 C 0.51223 0.46159 0.55962 0.0
C2215 C 0.49953 0.45661 0.57585 0.0
C2216 C 0.50386 0.43931 0.58732 0.0
C2217 C 0.52027 0.42703 0.58244 0.0
C2218 C 0.4443 0.4686 0.58313 0.0
C2219 C 0.44424 0.48977 0.5834 0.0
C2220 C 0.46236 0.45795 0.58152 0.0
C2221 C 0.48078 0.46826 0.57972 0.0
C2222 C 0.48082 0.48951 0.58056 0.0
C2223 C 0.46264 0.50021 0.58261 0.0
H2224 H 0.84316 0.69284 0.7888 0.0
H2225 H 0.78546 0.67709 0.76287 0.0
H2226 H 0.85111 0.71284 0.75884 0.0
H2227 H 0.79309 0.69755 0.73348 0.0
H2228 H 0.82103 0.71242 0.67422 0.0
H2229 H 0.81642 0.69382 0.70534 0.0
H2230 H 0.84122 0.74381 0.73904 0.0
H2231 H 0.84616 0.76259 0.70735 0.0
C2232 C 0.83213 0.69366 0.77679 0.0
C2233 C 0.81372 0.68312 0.77822 0.0
C2234 C 0.83663 0.70532 0.75972 0.0
C2235 C 0.82286 0.70659 0.74367 0.0
C2236 C 0.80421 0.69659 0.74542 0.0
C2237 C 0.79971 0.68501 0.76243 0.0
C2238 C 0.8257 0.71944 0.68822 0.0
C2239 C 0.83374 0.73906 0.68838 0.0
C2240 C 0.82292 0.7088 0.7061 0.0
C2241 C 0.82796 0.71751 0.72472 0.0
C2242 C 0.83711 0.73673 0.7249 0.0
C2243 C 0.84 0.74745 0.70681 0.0
H2244 H 0.01952 0.9453 0.56371 0.0
H2245 H 0.96316 0.94217 0.59598 0.0
H2246 H 1.00086 0.94787 0.53163 0.0
H2247 H 0.94462 0.94434 0.56427 0.0
H2248 H 0.91769 0.93213 0.50276 0.0
H2249 H 0.9391 0.92478 0.53174 0.0
H2250 H 0.97677 0.9758 0.51697 0.0
H2251 H 0.95528 0.98316 0.48771 0.0
C2252 C 1.00319 0.94455 0.56383 0.0
C2253 C 0.9927 0.94332 0.58217 0.0
C2254 C 0.99254 0.94626 0.54559 0.0
C2255 C 0.97129 0.94634 0.54547 0.0
C2256 C 0.96096 0.94415 0.56383 0.0
C2257 C 0.97155 0.94288 0.58197 0.0
C2258 C 0.93068 0.94164 0.50548 0.0
C2259 C 0.93475 0.95827 0.49294 0.0
C2260 C 0.94289 0.93746 0.52215 0.0
C2261 C 0.95963 0.94968 0.5266 0.0
C2262 C 0.96408 0.96601 0.51378 0.0
C2263 C 0.95166 0.97036 0.4972 0.0
H2264 H 0.22901 0.78807 0.69102 0.0
H2265 H 0.16584 0.77674 0.70227 0.0
H2266 H 0.23195 0.80516 0.72311 0.0
H2267 H 0.16887 0.79399 0.73503 0.0
H2268 H 0.18048 0.85188 0.7753 0.0
H2269 H 0.17489 0.8294 0.74678 0.0
H2270 H 0.23137 0.79941 0.75937 0.0
H2271 H 0.23696 0.82186 0.78797 0.0
C2272 C 0.21571 0.78911 0.70045 0.0
C2273 C 0.19712 0.78117 0.69401 0.0
C2274 C 0.21748 0.79877 0.71901 0.0
C2275 C 0.20069 0.80089 0.73171 0.0
C2276 C 0.18208 0.79266 0.72551 0.0
C2277 C 0.18034 0.78272 0.70685 0.0
C2278 C 0.19156 0.84028 0.77226 0.0
C2279 C 0.20932 0.83888 0.78385 0.0
C2280 C 0.18829 0.82733 0.7559 0.0
C2281 C 0.20273 0.8127 0.7507 0.0
C2282 C 0.22009 0.81076 0.76278 0.0
C2283 C 0.22336 0.82369 0.77913 0.0
H2284 H 0.07133 0.54279 0.49128 0.0
H2285 H 0.10947 0.59338 0.50647 0.0
H2286 H 0.04988 0.55037 0.52049 0.0
H2287 H 0.08808 0.60099 0.53535 0.0
H2288 H 0.06383 0.58422 0.59951 0.0
H2289 H 0.08233 0.58169 0.56783 0.0
H2290 H 0.02606 0.57842 0.53516 0.0
H2291 H 1.00743 0.58133 0.56721 0.0
C2292 C 0.07508 0.55554 0.50078 0.0
C2293 C 0.09214 0.56744 0.49657 0.0
C2294 C 0.06268 0.56003 0.51734 0.0
C2295 C 0.06729 0.57631 0.53016 0.0
C2296 C 0.08416 0.58833 0.52576 0.0
C2297 C 0.09636 0.58402 0.50914 0.0
C2298 C 0.05542 0.58347 0.5855 0.0
C2299 C 0.03426 0.5832 0.58569 0.0
C2300 C 0.06599 0.582 0.56738 0.0
C2301 C 0.05565 0.57979 0.54902 0.0
C2302 C 0.0344 0.58003 0.54912 0.0
C2303 C 0.02376 0.58194 0.56735 0.0
H2304 H 0.79476 0.31861 0.73773 0.0
H2305 H 0.84302 0.35986 0.75225 0.0
H2306 H 0.80303 0.29843 0.76757 0.0
H2307 H 0.85131 0.3397 0.78199 0.0
H2308 H 0.8324 0.31713 0.84677 0.0
H2309 H 0.83109 0.33428 0.81426 0.0
H2310 H 0.83155 0.27663 0.78384 0.0
H2311 H 0.83325 0.25936 0.81671 0.0
C2312 C 0.80722 0.32326 0.74721 0.0
C2313 C 0.81815 0.3409 0.74271 0.0
C2314 C 0.8121 0.3116 0.76415 0.0
C2315 C 0.82783 0.31749 0.77709 0.0
C2316 C 0.83909 0.33482 0.77229 0.0
C2317 C 0.83439 0.34631 0.75522 0.0
C2318 C 0.83266 0.30813 0.83312 0.0
C2319 C 0.83296 0.28696 0.83417 0.0
C2320 C 0.83197 0.31794 0.81451 0.0
C2321 C 0.83115 0.3068 0.79652 0.0
C2322 C 0.8321 0.28557 0.79751 0.0
C2323 C 0.83325 0.27572 0.81623 0.0
H2324 H 0.57181 0.97991 0.53402 0.0
H2325 H 0.61174 0.92994 0.52157 0.0
H2326 H 0.55156 0.971 0.50434 0.0
H2327 H 0.59157 0.92106 0.4921 0.0
H2328 H 0.56898 0.9364 0.42665 0.0
H2329 H 0.58639 0.93987 0.45887 0.0
H2330 H 0.52906 0.94171 0.48969 0.0
H2331 H 0.51153 0.93781 0.45715 0.0
C2332 C 0.57619 0.96699 0.52502 0.0
C2333 C 0.59341 0.95567 0.53011 0.0
C2334 C 0.56449 0.96176 0.50818 0.0
C2335 C 0.56997 0.9453 0.49594 0.0
C2336 C 0.58699 0.93382 0.50124 0.0
C2337 C 0.59849 0.93886 0.51818 0.0
C2338 C 0.56011 0.93707 0.44036 0.0
C2339 C 0.53896 0.93668 0.43949 0.0
C2340 C 0.57006 0.93906 0.4588 0.0
C2341 C 0.55908 0.94113 0.47679 0.0
C2342 C 0.53787 0.94021 0.47602 0.0
C2343 C 0.52787 0.93776 0.4575 0.0
H2344 H 0.23035 0.24653 0.8275 0.0
H2345 H 0.16639 0.2347 0.82645 0.0
H2346 H 0.23446 0.22853 0.79587 0.0
H2347 H 0.17052 0.21569 0.79486 0.0
H2348 H 0.1856 0.19356 0.73009 0.0
H2349 H 0.17919 0.21545 0.75916 0.0
H2350 H 0.23416 0.19397 0.78694 0.0
H2351 H 0.24062 0.17261 0.75793 0.0
C2352 C 0.21712 0.24012 0.82034 0.0
C2353 C 0.19809 0.24181 0.82941 0.0
C2354 C 0.21948 0.22964 0.8023 0.0
C2355 C 0.20292 0.22016 0.79304 0.0
C2356 C 0.1836 0.2228 0.80157 0.0
C2357 C 0.18119 0.23367 0.81961 0.0
C2358 C 0.19624 0.19354 0.74248 0.0
C2359 C 0.21374 0.18152 0.74161 0.0
C2360 C 0.19256 0.20605 0.75914 0.0
C2361 C 0.20628 0.20672 0.77532 0.0
C2362 C 0.22354 0.19434 0.77454 0.0
C2363 C 0.22726 0.18202 0.75789 0.0
H2364 H 0.45713 0.54558 0.53769 0.0
H2365 H 0.41711 0.59488 0.52299 0.0
H2366 H 0.47741 0.55325 0.50769 0.0
H2367 H 0.43731 0.60254 0.49326 0.0
H2368 H 0.45953 0.58473 0.42854 0.0
H2369 H 0.44235 0.58243 0.46095 0.0
H2370 H 0.49988 0.58171 0.4915 0.0
H2371 H 0.51719 0.5844 0.45871 0.0
C2372 C 0.45275 0.5581 0.52815 0.0
C2373 C 0.43547 0.56957 0.53271 0.0
C2374 C 0.46446 0.56263 0.51111 0.0
C2375 C 0.45895 0.57851 0.49815 0.0
C2376 C 0.44192 0.59019 0.50295 0.0
C2377 C 0.4304 0.58585 0.52006 0.0
C2378 C 0.4685 0.58453 0.44221 0.0
C2379 C 0.48964 0.5849 0.44119 0.0
C2380 C 0.45867 0.58322 0.46076 0.0
C2381 C 0.46976 0.58183 0.47877 0.0
C2382 C 0.49097 0.58269 0.47783 0.0
C2383 C 0.50085 0.58445 0.45916 0.0
H2384 H 0.67782 0.82228 0.70945 0.0
H2385 H 0.70812 0.84805 0.76104 0.0
H2386 H 0.70994 0.81734 0.69276 0.0
H2387 H 0.74079 0.84278 0.74422 0.0
H2388 H 0.793 0.84568 0.69618 0.0
H2389 H 0.76206 0.85279 0.71486 0.0
H2390 H 0.73831 0.79472 0.6972 0.0
H2391 H 0.76872 0.78794 0.67797 0.0
C2392 C 0.6914 0.82698 0.71723 0.0
C2393 C 0.69043 0.83539 0.73667 0.0
C2394 C 0.70987 0.82399 0.70769 0.0
C2395 C 0.728 0.82922 0.71731 0.0
C2396 C 0.72708 0.83854 0.73641 0.0
C2397 C 0.70841 0.84161 0.74603 0.0
C2398 C 0.78116 0.83444 0.69621 0.0
C2399 C 0.78335 0.81631 0.68529 0.0
C2400 C 0.7635 0.83846 0.70712 0.0
C2401 C 0.74758 0.82446 0.70733 0.0
C2402 C 0.75011 0.80603 0.69706 0.0
C2403 C 0.76772 0.80201 0.68619 0.0
H2404 H 0.7804 0.23354 0.82321 0.0
H2405 H 0.7673 0.18354 0.86287 0.0
H2406 H 0.75069 0.22493 0.80278 0.0
H2407 H 0.73798 0.17491 0.8425 0.0
H2408 H 0.67301 0.18822 0.81913 0.0
H2409 H 0.70489 0.1927 0.8369 0.0
H2410 H 0.73623 0.19615 0.77993 0.0
H2411 H 0.70398 0.19135 0.76204 0.0
C2412 C 0.77123 0.22073 0.82753 0.0
C2413 C 0.77621 0.20925 0.84468 0.0
C2414 C 0.75439 0.21565 0.81572 0.0
C2415 C 0.74205 0.1992 0.82101 0.0
C2416 C 0.74716 0.18768 0.83805 0.0
C2417 C 0.76405 0.19259 0.84967 0.0
C2418 C 0.68678 0.18946 0.81041 0.0
C2419 C 0.68612 0.18921 0.78926 0.0
C2420 C 0.70503 0.19205 0.82057 0.0
C2421 C 0.72306 0.19485 0.80982 0.0
C2422 C 0.72253 0.19412 0.78859 0.0
C2423 C 0.70419 0.19111 0.77837 0.0
H2424 H 0.43274 0.99777 0.42132 0.0
H2425 H 0.49189 0.99054 0.44785 0.0
H2426 H 0.42702 0.02752 0.4421 0.0
H2427 H 0.48617 0.02051 0.46839 0.0
H2428 H 0.47963 0.0893 0.47612 0.0
H2429 H 0.48351 0.05669 0.46008 0.0
H2430 H 0.42296 0.04053 0.47781 0.0
H2431 H 0.41898 0.07372 0.4941 0.0
C2432 C 0.44445 1.00228 0.43175 0.0
C2433 C 0.46291 0.99173 0.43267 0.0
C2434 C 0.4411 0.01937 0.44372 0.0
C2435 C 0.45615 0.02644 0.45683 0.0
C2436 C 0.47436 0.0156 0.45822 0.0
C2437 C 0.47769 0.99846 0.44633 0.0
C2438 C 0.46708 0.07885 0.47671 0.0
C2439 C 0.44892 0.08418 0.48629 0.0
C2440 C 0.46942 0.06002 0.46765 0.0
C2441 C 0.45361 0.04595 0.46772 0.0
C2442 C 0.43541 0.05111 0.47745 0.0
C2443 C 0.43314 0.07003 0.48683 0.0
H2444 H 0.34609 0.33818 0.81893 0.0
H2445 H 0.31634 0.33676 0.76108 0.0
H2446 H 0.31357 0.33538 0.8359 0.0
H2447 H 0.2835 0.33353 0.77816 0.0
H2448 H 0.23902 0.29496 0.82027 0.0
H2449 H 0.26875 0.30424 0.80037 0.0
H2450 H 0.28015 0.35412 0.84068 0.0
H2451 H 0.25054 0.34486 0.86053 0.0
C2452 C 0.33247 0.33769 0.80988 0.0
C2453 C 0.33363 0.33782 0.78875 0.0
C2454 C 0.31387 0.33611 0.81958 0.0
C2455 C 0.29601 0.33416 0.80836 0.0
C2456 C 0.29707 0.33494 0.78716 0.0
C2457 C 0.31576 0.337 0.77741 0.0
C2458 C 0.24783 0.30795 0.82479 0.0
C2459 C 0.24249 0.31911 0.84203 0.0
C2460 C 0.2647 0.3134 0.81328 0.0
C2461 C 0.27673 0.32993 0.81896 0.0
C2462 C 0.27116 0.3413 0.83596 0.0
C2463 C 0.25416 0.33604 0.84728 0.0
H2464 H 0.04418 0.03884 0.95337 0.0
H2465 H 0.09418 0.02533 0.91392 0.0
H2466 H 0.05334 1.01003 0.97468 0.0
H2467 H 0.1034 0.99675 0.93525 0.0
H2468 H 0.0884 0.93186 0.95978 0.0
H2469 H 0.08566 0.96366 0.94143 0.0
H2470 H 0.08152 0.99598 0.99784 0.0
H2471 H 0.08461 0.96383 0.0163 0.0
C2472 C 0.05717 0.0298 0.94931 0.0
C2473 C 0.06837 0.03433 0.93187 0.0
C2474 C 0.06256 0.01347 0.96164 0.0
C2475 C 0.07911 1.00115 0.95665 0.0
C2476 C 0.09055 1.00594 0.93946 0.0
C2477 C 0.08531 0.02238 0.92729 0.0
C2478 C 0.08747 0.94583 0.96825 0.0
C2479 C 0.08693 0.9455 0.9894 0.0
C2480 C 0.0859 0.96404 0.95776 0.0
C2481 C 0.0833 0.98232 0.96818 0.0
C2482 C 0.08343 0.98209 0.98943 0.0
C2483 C 0.08544 0.9638 0.99998 0.0
H2484 H 0.74962 0.17968 0.16645 0.0
H2485 H 0.73578 0.23133 0.2037 0.0
H2486 H 0.77867 0.17203 0.18763 0.0
H2487 H 0.76517 0.22373 0.2249 0.0
H2488 H 0.81236 0.19408 0.26722 0.0
H2489 H 0.77997 0.19651 0.24911 0.0
H2490 H 0.8115 0.19062 0.19243 0.0
H2491 H 0.84352 0.18854 0.21043 0.0
C2492 C 0.75261 0.18926 0.17932 0.0
C2493 C 0.74038 0.20616 0.18334 0.0
C2494 C 0.76933 0.18493 0.1914 0.0
C2495 C 0.7742 0.19726 0.20794 0.0
C2496 C 0.76168 0.21384 0.21237 0.0
C2497 C 0.74501 0.21833 0.2001 0.0
C2498 C 0.81217 0.19274 0.25094 0.0
C2499 C 0.83029 0.19089 0.24016 0.0
C2500 C 0.79374 0.19439 0.24058 0.0
C2501 C 0.79322 0.1938 0.21935 0.0
C2502 C 0.81135 0.19094 0.20876 0.0
C2503 C 0.82968 0.18972 0.21905 0.0
H2504 H 0.4665 0.92627 0.06052 0.0
H2505 H 0.42784 0.95445 0.01624 0.0
H2506 H 0.47071 0.95828 0.07754 0.0
H2507 H 0.4324 0.9871 0.03334 0.0
H2508 H 0.43014 0.0359 0.08473 0.0
H2509 H 0.42489 1.00552 0.06469 0.0
H2510 H 0.48767 0.98981 0.07225 0.0
H2511 H 0.49272 0.01953 0.09305 0.0
C2512 C 0.4589 0.93938 0.05434 0.0
C2513 C 0.44694 0.93781 0.0369 0.0
C2514 C 0.46148 0.95783 0.06406 0.0
C2515 C 0.45226 0.9754 0.05661 0.0
C2516 C 0.43975 0.97384 0.03946 0.0
C2517 C 0.4371 0.95518 0.02968 0.0
C2518 C 0.44284 0.02595 0.08222 0.0
C2519 C 0.4618 0.03011 0.09093 0.0
C2520 C 0.43985 1.00863 0.07047 0.0
C2521 C 0.45576 0.99503 0.06709 0.0
C2522 C 0.47494 0.99972 0.07492 0.0
C2523 C 0.47792 0.01697 0.0867 0.0
H2524 H 0.60882 0.57812 0.03848 0.0
H2525 H 0.5455 0.57712 0.0236 0.0
H2526 H 0.60465 0.54681 0.05797 0.0
H2527 H 0.54138 0.54574 0.04214 0.0
H2528 H 0.53392 0.50933 0.09926 0.0
H2529 H 0.54024 0.53765 0.07689 0.0
H2530 H 0.59693 0.51092 0.05893 0.0
H2531 H 0.59064 0.48257 0.0817 0.0
C2532 C 0.59419 0.57085 0.0389 0.0
C2533 C 0.57745 0.58002 0.02973 0.0
C2534 C 0.59174 0.55297 0.05006 0.0
C2535 C 0.57254 0.54397 0.05204 0.0
C2536 C 0.55623 0.55254 0.04154 0.0
C2537 C 0.55861 0.57042 0.03072 0.0
C2538 C 0.54763 0.50935 0.09041 0.0
C2539 C 0.56169 0.4936 0.09223 0.0
C2540 C 0.55128 0.5256 0.0775 0.0
C2541 C 0.56903 0.52652 0.06586 0.0
C2542 C 0.58319 0.51082 0.06775 0.0
C2543 C 0.57957 0.49455 0.0808 0.0
H2544 H 0.06067 0.28081 0.31126 0.0
H2545 H 0.04344 0.3089 0.25513 0.0
H2546 H 0.02981 0.2608 0.31084 0.0
H2547 H 0.01288 0.28847 0.25425 0.0
H2548 H 0.95093 0.26266 0.26703 0.0
H2549 H 0.98112 0.28317 0.2684 0.0
H2550 H 0.01373 0.23332 0.29502 0.0
H2551 H 0.98295 0.21315 0.29494 0.0
C2552 C 0.05026 0.28268 0.2988 0.0
C2553 C 0.05449 0.29652 0.28327 0.0
C2554 C 0.03261 0.27106 0.29845 0.0
C2555 C 0.01874 0.27279 0.28244 0.0
C2556 C 0.02292 0.28686 0.26702 0.0
C2557 C 0.04049 0.29863 0.2675 0.0
C2558 C 0.9644 0.25608 0.27352 0.0
C2559 C 0.96426 0.23622 0.28116 0.0
C2560 C 0.98192 0.26783 0.27399 0.0
C2561 C 1.00004 0.26005 0.28185 0.0
C2562 C 1.00005 0.24004 0.28915 0.0
C2563 C 0.9824 0.22832 0.28885 0.0
H2564 H 0.5516 0.72695 0.01971 0.0
H2565 H 0.53022 0.71068 0.96044 0.0
H2566 H 0.5299 0.75698 0.01925 0.0
H2567 H 0.50871 0.74073 0.95988 0.0
H2568 H 0.49146 0.80938 0.95994 0.0
H2569 H 0.51279 0.77919 0.95969 0.0
H2570 H 0.4914 0.76355 0.01913 0.0
H2571 H 0.46987 0.7937 0.01928 0.0
C2572 C 0.5425 0.72997 1.00648 0.0
C2573 C 0.54265 0.71652 0.99008 0.0
C2574 C 0.52992 0.74701 1.0063 0.0
C2575 C 0.5175 0.75115 0.98957 0.0
C2576 C 0.51813 0.73799 0.97295 0.0
C2577 C 0.53042 0.72079 0.97328 0.0
C2578 C 0.49115 0.79935 0.97285 0.0
C2579 C 0.47892 0.80383 0.98958 0.0
C2580 C 0.50334 0.78208 0.9727 0.0
C2581 C 0.50389 0.76907 0.98945 0.0
C2582 C 0.49145 0.7734 1.00609 0.0
C2583 C 0.47895 0.7905 1.00608 0.0
H2584 H 0.98815 0.81797 0.24424 0.0
H2585 H 0.95538 0.76754 0.21923 0.0
H2586 H 0.0192 0.79797 0.24366 0.0
H2587 H 0.98638 0.7475 0.21875 0.0
H2588 H 0.05159 0.72408 0.20637 0.0
H2589 H 0.0212 0.7449 0.20324 0.0
H2590 H 0.03062 0.76774 0.26345 0.0
H2591 H 0.06038 0.74664 0.26691 0.0
C2592 C 0.98765 0.80275 0.23829 0.0
C2593 C 0.96928 0.79432 0.23189 0.0
C2594 C 1.00539 0.79121 0.23813 0.0
C2595 C 1.00523 0.77106 0.23133 0.0
C2596 C 0.98705 0.76297 0.22402 0.0
C2597 C 0.96927 0.77441 0.22441 0.0
C2598 C 0.04708 0.73335 0.21904 0.0
C2599 C 0.05872 0.73376 0.23681 0.0
C2600 C 0.0297 0.74537 0.21719 0.0
C2601 C 0.02366 0.75822 0.23299 0.0
C2602 C 0.03512 0.75841 0.2508 0.0
C2603 C 0.05226 0.74628 0.25275 0.0
H2604 H 1.00315 0.71544 1.00233 0.0
H2605 H 0.97156 0.7325 0.05676 0.0
H2606 H 0.02394 0.74512 1.00494 0.0
H2607 H 0.99116 0.76356 0.05822 0.0
H2608 H 0.04212 0.80927 0.06657 0.0
H2609 H 0.02211 0.77822 0.06545 0.0
H2610 H 0.02531 0.77908 1.00024 0.0
H2611 H 0.04634 0.80916 1.00178 0.0
C2612 C 1.00056 0.72549 0.01494 0.0
C2613 C 0.98574 0.72114 0.02953 0.0
C2614 C 1.01232 0.74293 0.01619 0.0
C2615 C 1.00937 0.75706 0.03175 0.0
C2616 C 0.99425 0.75299 0.04616 0.0
C2617 C 0.98269 0.73524 0.04513 0.0
C2618 C 0.03872 0.80249 0.0521 0.0
C2619 C 0.04598 0.81128 0.03428 0.0
C2620 C 0.02703 0.78485 0.05137 0.0
C2621 C 0.02197 0.77587 0.03274 0.0
C2622 C 0.0292 0.78502 0.01493 0.0
C2623 C 0.04121 0.80237 0.01573 0.0
H2624 H 0.25652 0.97945 0.21978 0.0
H2625 H 0.31426 0.96466 0.24588 0.0
H2626 H 0.2553 1.01031 0.23966 0.0
H2627 H 0.31368 0.99605 0.26515 0.0
H2628 H 0.29848 0.04401 0.31196 0.0
H2629 H 0.29925 1.01277 0.29257 0.0
H2630 H 0.26772 0.04248 0.24379 0.0
H2631 H 0.26541 0.07289 0.26372 0.0
C2632 C 0.26918 0.98306 0.22947 0.0
C2633 C 0.28552 0.96967 0.23119 0.0
C2634 C 0.26854 1.00082 0.24091 0.0
C2635 C 0.28441 1.0059 0.25416 0.0
C2636 C 0.30096 0.9926 0.25551 0.0
C2637 C 0.30142 0.97466 0.2443 0.0
C2638 C 0.29145 0.0438 0.29723 0.0
C2639 C 0.28205 0.06122 0.28948 0.0
C2640 C 0.29216 0.0259 0.28591 0.0
C2641 C 0.28364 0.02492 0.26643 0.0
C2642 C 0.27424 0.04236 0.25876 0.0
C2643 C 0.27326 0.06009 0.27015 0.0
H2644 H 0.31719 0.51829 1.00791 0.0
H2645 H 0.29495 0.4687 0.97178 0.0
H2646 H 0.28788 0.51611 0.02918 0.0
H2647 H 0.26431 0.46807 0.99181 0.0
H2648 H 0.21754 0.459 0.04064 0.0
H2649 H 0.24893 0.45924 0.02141 0.0
H2650 H 0.2548 0.52338 0.03273 0.0
H2651 H 0.22429 0.52246 0.0531 0.0
C2652 C 0.30611 0.50683 1.0044 0.0
C2653 C 0.30891 0.49345 0.9881 0.0
C2654 C 0.28886 0.50589 0.01648 0.0
C2655 C 0.27337 0.49195 0.01241 0.0
C2656 C 0.27593 0.4788 0.99585 0.0
C2657 C 0.29347 0.47942 0.98401 0.0
C2658 C 0.22588 0.473 0.03927 0.0
C2659 C 0.21872 0.49064 0.04857 0.0
C2660 C 0.24375 0.47327 0.02798 0.0
C2661 C 0.25466 0.49136 0.02522 0.0
C2662 C 0.24734 0.50899 0.03473 0.0
C2663 C 0.22975 0.50856 0.04641 0.0
H2664 H 0.73968 0.54088 0.20347 0.0
H2665 H 0.73736 0.57611 0.25824 0.0
H2666 H 0.73834 0.50994 0.22337 0.0
H2667 H 0.73723 0.54531 0.27812 0.0
H2668 H 0.72186 0.48558 0.30886 0.0
H2669 H 0.71924 0.51639 0.28869 0.0
H2670 H 0.75967 0.49062 0.2445 0.0
H2671 H 0.76184 0.45986 0.2644 0.0
C2672 C 0.73872 0.54207 0.21973 0.0
C2673 C 0.73885 0.56108 0.22918 0.0
C2674 C 0.73826 0.52428 0.23121 0.0
C2675 C 0.73797 0.52499 0.25246 0.0
C2676 C 0.73734 0.54403 0.26184 0.0
C2677 C 0.73769 0.56178 0.25038 0.0
C2678 C 0.73024 0.48658 0.29488 0.0
C2679 C 0.74194 0.47019 0.2882 0.0
C2680 C 0.72876 0.50426 0.28327 0.0
C2681 C 0.73911 0.50605 0.26478 0.0
C2682 C 0.75104 0.4897 0.25833 0.0
C2683 C 0.75239 0.47204 0.26983 0.0
H2684 H 0.78812 0.04837 0.06799 0.0
H2685 H 0.81737 0.0162 0.01944 0.0
H2686 H 0.75641 0.04749 0.04923 0.0
H2687 H 0.78647 0.01675 1.00021 0.0
H2688 H 0.72415 1.00351 0.97645 0.0
H2689 H 0.75472 1.00303 0.99679 0.0
H2690 H 0.73902 0.06135 0.02162 0.0
H2691 H 0.70796 0.06125 1.00183 0.0
C2692 C 0.78786 0.04116 0.05334 0.0
C2693 C 0.80552 0.03262 0.04523 0.0
C2694 C 0.7697 0.0409 0.0424 0.0
C2695 C 0.76872 0.03216 0.02302 0.0
C2696 C 0.78636 0.02341 0.01511 0.0
C2697 C 0.80434 0.02345 0.02609 0.0
C2698 C 0.72735 0.0163 0.98612 0.0
C2699 C 0.71371 0.03247 0.98742 0.0
C2700 C 0.74494 0.01608 0.99783 0.0
C2701 C 0.74958 0.0322 1.01094 0.0
C2702 C 0.73592 0.04847 1.01205 0.0
C2703 C 0.71817 0.04853 1.00056 0.0
H2704 H 0.24623 0.25598 0.95983 0.0
H2705 H 0.22154 0.31505 0.97229 0.0
H2706 H 0.26627 0.25774 0.99032 0.0
H2707 H 0.24112 0.31642 1.00367 0.0
H2708 H 0.29519 0.3187 0.04881 0.0
H2709 H 0.27582 0.31899 0.01723 0.0
H2710 H 0.26157 0.25591 0.02568 0.0
H2711 H 0.28141 0.25542 0.05634 0.0
C2712 C 0.24508 0.26942 0.96907 0.0
C2713 C 0.23233 0.28545 0.96342 0.0
C2714 C 0.25644 0.27032 0.98677 0.0
C2715 C 0.25531 0.28719 0.9996 0.0
C2716 C 0.24252 0.30327 0.99407 0.0
C2717 C 0.23109 0.30238 0.97621 0.0
C2718 C 0.2881 0.30487 0.04374 0.0
C2719 C 0.2898 0.28707 0.05522 0.0
C2720 C 0.27679 0.30509 0.02578 0.0
C2721 C 0.26709 0.28747 0.01884 0.0
C2722 C 0.26898 0.26972 0.03032 0.0
C2723 C 0.28022 0.2695 0.04812 0.0
H2724 H 0.3093 0.75974 0.48561 0.0
H2725 H 0.2669 0.71906 0.45728 0.0
H2726 H 0.28973 0.75856 0.51646 0.0
H2727 H 0.24634 0.71942 0.48746 0.0
H2728 H 0.22131 0.71004 0.55099 0.0
H2729 H 0.24182 0.70898 0.52035 0.0
H2730 H 0.26073 0.77057 0.53126 0.0
H2731 H 0.2412 0.77091 0.56235 0.0
C2732 C 0.29586 0.75048 0.48588 0.0
C2733 C 0.28977 0.73961 0.46868 0.0
C2734 C 0.28432 0.75012 0.50357 0.0
C2735 C 0.26612 0.73914 0.50459 0.0
C2736 C 0.26025 0.72796 0.48752 0.0
C2737 C 0.27197 0.72803 0.46995 0.0
C2738 C 0.2298 0.72332 0.54665 0.0
C2739 C 0.22974 0.74053 0.55898 0.0
C2740 C 0.24155 0.7228 0.52905 0.0
C2741 C 0.25324 0.73964 0.5232 0.0
C2742 C 0.25251 0.75707 0.53538 0.0
C2743 C 0.24111 0.75741 0.55312 0.0
H2744 H 0.99238 0.45812 0.79052 0.0
H2745 H 0.98317 0.51233 0.82561 0.0
H2746 H 0.991 0.47795 0.75972 0.0
H2747 H 0.98336 0.53233 0.79494 0.0
H2748 H 0.96877 0.56219 0.73454 0.0
H2749 H 0.96672 0.54207 0.76541 0.0
H2750 H 1.01054 0.50033 0.74095 0.0
H2751 H 1.01185 0.52 0.71003 0.0
C2752 C 0.98994 0.47424 0.79175 0.0
C2753 C 0.98803 0.48352 0.81074 0.0
C2754 C 0.9895 0.48574 0.774 0.0
C2755 C 0.98737 0.50691 0.77467 0.0
C2756 C 0.9849 0.51611 0.79364 0.0
C2757 C 0.9851 0.5046 0.81136 0.0
C2758 C 0.97798 0.54874 0.73587 0.0
C2759 C 0.99034 0.5426 0.7198 0.0
C2760 C 0.97687 0.53718 0.75359 0.0
C2761 C 0.98833 0.51934 0.75578 0.0
C2762 C 1.00103 0.51357 0.73977 0.0
C2763 C 1.00192 0.52495 0.72202 0.0
H2764 H 0.74932 0.81165 0.46009 0.0
H2765 H 0.7225 0.75549 0.47922 0.0
H2766 H 0.76906 0.81292 0.49112 0.0
H2767 H 0.74271 0.75623 0.50991 0.0
H2768 H 0.76737 0.77159 0.57139 0.0
H2769 H 0.74714 0.77177 0.54105 0.0
H2770 H 0.7967 0.79838 0.50812 0.0
H2771 H 0.81656 0.79961 0.53908 0.0
C2772 C 0.74768 0.79955 0.47096 0.0
C2773 C 0.73427 0.78352 0.46726 0.0
C2774 C 0.75914 0.80016 0.4887 0.0
C2775 C 0.75766 0.78463 0.50313 0.0
C2776 C 0.74407 0.76868 0.49942 0.0
C2777 C 0.73244 0.76821 0.48179 0.0
C2778 C 0.77393 0.77789 0.55782 0.0
C2779 C 0.79362 0.7859 0.55791 0.0
C2780 C 0.76235 0.77764 0.54021 0.0
C2781 C 0.77016 0.78507 0.52195 0.0
C2782 C 0.78998 0.79281 0.52191 0.0
C2783 C 0.80153 0.79327 0.53965 0.0
H2784 H 0.5041 0.4939 0.21522 0.0
H2785 H 0.56575 0.47512 0.22483 0.0
H2786 H 0.50534 0.51413 0.24566 0.0
H2787 H 0.56675 0.49496 0.25608 0.0
H2788 H 0.56613 0.54993 0.30033 0.0
H2789 H 0.56661 0.53002 0.26912 0.0
H2790 H 0.50589 0.50981 0.28126 0.0
H2791 H 0.50513 0.53011 0.31167 0.0
C2792 C 0.51799 0.49408 0.22383 0.0
C2793 C 0.53488 0.48294 0.21739 0.0
C2794 C 0.51862 0.50556 0.2415 0.0
C2795 C 0.53612 0.5062 0.25347 0.0
C2796 C 0.55306 0.49499 0.24716 0.0
C2797 C 0.55242 0.48341 0.22937 0.0
C2798 C 0.55283 0.54139 0.29619 0.0
C2799 C 0.53563 0.54161 0.30863 0.0
C2800 C 0.55319 0.52977 0.27842 0.0
C2801 C 0.53629 0.51826 0.27259 0.0
C2802 C 0.51912 0.51862 0.28504 0.0
C2803 C 0.51877 0.53014 0.30269 0.0
H2804 H 0.05532 0.06151 0.79292 0.0
H2805 H 1.01113 0.02019 0.81731 0.0
H2806 H 0.05591 0.04212 0.76175 0.0
H2807 H 0.01336 0.99981 0.78738 0.0
H2808 H 1.00557 0.97567 0.72442 0.0
H2809 H 1.0043 0.99639 0.75467 0.0
H2810 H 0.06671 0.01331 0.74556 0.0
H2811 H 0.06724 0.99357 0.71446 0.0
C2812 C 0.0458 0.04828 0.79178 0.0
C2813 C 0.03335 0.04248 0.80797 0.0
C2814 C 0.04639 0.03687 0.77393 0.0
C2815 C 0.03477 0.01914 0.77181 0.0
C2816 C 0.02234 0.01344 0.78803 0.0
C2817 C 0.02141 0.02503 0.8056 0.0
C2818 C 0.01903 0.98372 0.72905 0.0
C2819 C 0.03654 0.9829 0.71722 0.0
C2820 C 0.0184 0.9956 0.7465 0.0
C2821 C 0.03545 1.00664 0.75291 0.0
C2822 C 0.05311 1.00546 0.7411 0.0
C2823 C 0.05355 0.99393 0.72336 0.0
H2824 H 0.46101 0.75459 0.81147 0.0
H2825 H 0.48761 0.71674 0.76556 0.0
H2826 H 0.49135 0.77536 0.81201 0.0
H2827 H 0.51829 0.73688 0.76683 0.0
H2828 H 0.55894 0.79049 0.75472 0.0
H2829 H 0.52885 0.76961 0.75615 0.0
H2830 H 0.52658 0.77734 0.82082 0.0
H2831 H 0.55677 0.79864 0.81925 0.0
C2832 C 0.47339 0.75057 0.8016 0.0
C2833 C 0.4717 0.73405 0.78831 0.0
C2834 C 0.49091 0.76239 0.80208 0.0
C2835 C 0.50727 0.758 0.78932 0.0
C2836 C 0.50587 0.741 0.77661 0.0
C2837 C 0.48834 0.72922 0.77609 0.0
C2838 C 0.55206 0.78771 0.76927 0.0
C2839 C 0.56039 0.79608 0.7869 0.0
C2840 C 0.53483 0.77561 0.77012 0.0
C2841 C 0.52539 0.77143 0.78864 0.0
C2842 C 0.53338 0.78028 0.80626 0.0
C2843 C 0.55066 0.79252 0.80539 0.0
H2844 H 1.00802 0.32355 0.50733 0.0
H2845 H 0.95858 0.29141 0.47949 0.0
H2846 H 0.02845 0.29337 0.50619 0.0
H2847 H 0.97861 0.26053 0.47991 0.0
H2848 H 0.02585 0.21266 0.46521 0.0
H2849 H 1.00565 0.24347 0.46496 0.0
H2850 H 0.03399 0.26218 0.52068 0.0
H2851 H 0.05471 0.23182 0.52028 0.0
C2852 C 1.00143 0.31006 0.50088 0.0
C2853 C 0.98161 0.3102 0.49319 0.0
C2854 C 0.01313 0.2925 0.5006 0.0
C2855 C 1.00533 0.27428 0.49299 0.0
C2856 C 0.98537 0.27427 0.4856 0.0
C2857 C 0.97371 0.29198 0.48563 0.0
C2858 C 0.02781 0.22348 0.47731 0.0
C2859 C 0.04198 0.21988 0.49269 0.0
C2860 C 0.01609 0.2411 0.4773 0.0
C2861 C 0.018 0.25549 0.49283 0.0
C2862 C 0.03226 0.2518 0.5082 0.0
C2863 C 0.04419 0.23432 0.50803 0.0
H2864 H 0.47306 0.30014 0.71104 0.0
H2865 H 0.46161 0.28001 0.77191 0.0
H2866 H 0.50382 0.27951 0.71022 0.0
H2867 H 0.49152 0.259 0.7708 0.0
H2868 H 0.55727 0.24186 0.77218 0.0
H2869 H 0.52715 0.2626 0.77125 0.0
H2870 H 0.51617 0.24419 0.70973 0.0
H2871 H 0.54712 0.22383 0.71043 0.0
C2872 C 0.47708 0.29137 0.72423 0.0
C2873 C 0.46474 0.29172 0.7415 0.0
C2874 C 0.49458 0.27935 0.72367 0.0
C2875 C 0.50023 0.26754 0.74044 0.0
C2876 C 0.48787 0.26802 0.75767 0.0
C2877 C 0.4705 0.27995 0.75822 0.0
C2878 C 0.54859 0.2423 0.75834 0.0
C2879 C 0.5548 0.23124 0.74132 0.0
C2880 C 0.53111 0.25408 0.75789 0.0
C2881 C 0.5191 0.2551 0.74043 0.0
C2882 C 0.52515 0.24393 0.72337 0.0
C2883 C 0.54275 0.23206 0.72384 0.0
H2884 H 0.52937 0.31183 0.5026 0.0
H2885 H 0.54934 0.30015 0.56352 0.0
H2886 H 0.50886 0.28161 0.50338 0.0
H2887 H 0.52939 0.26899 0.56392 0.0
H2888 H 0.47531 0.22419 0.56317 0.0
H2889 H 0.49481 0.25565 0.56426 0.0
H2890 H 0.51294 0.24624 0.5024 0.0
H2891 H 0.4929 0.21573 0.50103 0.0
C2892 C 0.52938 0.30283 0.51624 0.0
C2893 C 0.54095 0.30862 0.53307 0.0
C2894 C 0.51776 0.28526 0.51658 0.0
C2895 C 0.51748 0.2727 0.53367 0.0
C2896 C 0.52908 0.27838 0.55056 0.0
C2897 C 0.54073 0.29612 0.55024 0.0
C2898 C 0.48327 0.22903 0.54976 0.0
C2899 C 0.48258 0.21731 0.53205 0.0
C2900 C 0.49466 0.24692 0.55045 0.0
C2901 C 0.5055 0.25356 0.53341 0.0
C2902 C 0.50463 0.24185 0.51575 0.0
C2903 C 0.49329 0.22412 0.51505 0.0
H2904 H 0.81254 0.55858 0.78149 0.0
H2905 H 0.75126 0.54705 0.79975 0.0
H2906 H 0.81278 0.52728 0.76203 0.0
H2907 H 0.75074 0.51655 0.77933 0.0
H2908 H 0.75924 0.4539 0.75572 0.0
H2909 H 0.7607 0.48401 0.77595 0.0
H2910 H 0.80222 0.51074 0.73335 0.0
H2911 H 0.80242 0.47945 0.71409 0.0
C2912 C 0.7991 0.54928 0.78128 0.0
C2913 C 0.78197 0.55507 0.79232 0.0
C2914 C 0.7991 0.53143 0.76991 0.0
C2915 C 0.78177 0.51912 0.76889 0.0
C2916 C 0.76461 0.52513 0.77999 0.0
C2917 C 0.76481 0.54272 0.79171 0.0
C2918 C 0.76913 0.46591 0.75079 0.0
C2919 C 0.78104 0.46381 0.7333 0.0
C2920 C 0.76961 0.48357 0.76229 0.0
C2921 C 0.78154 0.50014 0.75647 0.0
C2922 C 0.7931 0.49829 0.73869 0.0
C2923 C 0.79296 0.48036 0.72736 0.0
H2924 H 0.70397 1.00952 0.51247 0.0
H2925 H 0.73547 0.98349 0.56329 0.0
H2926 H 0.73446 1.00768 0.49248 0.0
H2927 H 0.76656 0.98295 0.5436 0.0
H2928 H 0.8137 0.96495 0.49679 0.0
H2929 H 0.78275 0.96603 0.51666 0.0
H2930 H 0.76621 0.02207 0.48753 0.0
H2931 H 0.79682 0.02051 0.46727 0.0
C2932 C 0.71741 1.00337 0.51944 0.0
C2933 C 0.71707 0.99635 0.53949 0.0
C2934 C 0.73508 1.00263 0.508 0.0
C2935 C 0.75311 0.99513 0.51631 0.0
C2936 C 0.75292 0.98851 0.53652 0.0
C2937 C 0.73513 0.98908 0.54795 0.0
C2938 C 0.80335 0.97742 0.49458 0.0
C2939 C 0.80764 0.99258 0.48037 0.0
C2940 C 0.78567 0.97815 0.5061 0.0
C2941 C 0.7719 0.99419 0.50386 0.0
C2942 C 0.7762 1.00928 0.48949 0.0
C2943 C 0.79377 1.00841 0.47783 0.0
H2944 H 0.25103 0.95292 0.76085 0.0
H2945 H 0.22951 0.98722 0.81199 0.0
H2946 H 0.24856 0.98244 0.73987 0.0
H2947 H 0.22921 0.01755 0.79134 0.0
H2948 H 0.21432 0.06682 0.74645 0.0
H2949 H 0.21352 0.03589 0.76649 0.0
H2950 H 0.26298 1.01212 0.73107 0.0
H2951 H 0.26254 0.04247 0.71036 0.0
C2952 C 0.24568 0.96672 0.76774 0.0
C2953 C 0.24011 0.96731 0.78826 0.0
C2954 C 0.24471 0.98397 0.75565 0.0
C2955 C 0.23874 1.0027 0.7637 0.0
C2956 C 0.23353 1.00345 0.78432 0.0
C2957 C 0.23405 0.986 0.79636 0.0
C2958 C 0.22469 0.05471 0.7428 0.0
C2959 C 0.23829 0.05684 0.72672 0.0
C2960 C 0.22448 0.03706 0.75446 0.0
C2961 C 0.23826 0.02127 0.75067 0.0
C2962 C 0.25177 0.02353 0.73436 0.0
C2963 C 0.25162 0.04098 0.72242 0.0
H2964 H 0.32342 0.51938 0.51589 0.0
H2965 H 0.29171 0.54574 0.56637 0.0
H2966 H 0.29287 0.52045 0.49597 0.0
H2967 H 0.26055 0.54544 0.54677 0.0
H2968 H 0.21239 0.56126 0.50017 0.0
H2969 H 0.24348 0.56125 0.51986 0.0
H2970 H 0.26149 0.50553 0.49102 0.0
H2971 H 0.23073 0.50604 0.47091 0.0
C2972 C 0.30994 0.52548 0.52281 0.0
C2973 C 0.31027 0.53279 0.54276 0.0
C2974 C 0.2922 0.52575 0.5114 0.0
C2975 C 0.27406 0.53304 0.51962 0.0
C2976 C 0.27425 0.54002 0.53972 0.0
C2977 C 0.29211 0.53993 0.55111 0.0
C2978 C 0.22309 0.54908 0.49799 0.0
C2979 C 0.21913 0.53371 0.48389 0.0
C2980 C 0.24087 0.54896 0.50941 0.0
C2981 C 0.25513 0.53334 0.50722 0.0
C2982 C 0.25116 0.51804 0.49297 0.0
C2983 C 0.23348 0.5183 0.48138 0.0
H2984 H 0.71099 0.26123 0.04121 0.0
H2985 H 0.74814 0.21351 0.06565 0.0
H2986 H 0.73052 0.26045 1.01016 0.0
H2987 H 0.7684 0.21355 0.03505 0.0
H2988 H 0.79112 0.2074 0.96975 0.0
H2989 H 0.77014 0.20568 1.00007 0.0
H2990 H 0.76263 0.27049 0.99834 0.0
H2991 H 0.78312 0.27204 0.968 0.0
C2992 C 0.7232 0.25043 0.03995 0.0
C2993 C 0.72797 0.23752 0.05612 0.0
C2994 C 0.73466 0.2502 0.02219 0.0
C2995 C 0.75132 0.23713 0.02007 0.0
C2996 C 0.75568 0.22377 0.03598 0.0
C2997 C 0.74416 0.22393 0.0537 0.0
C2998 C 0.78509 0.22126 0.97598 0.0
C2999 C 0.78867 0.23982 0.96633 0.0
C3000 C 0.77303 0.22031 0.99338 0.0
C3001 C 0.76438 0.23793 1.00164 0.0
C3002 C 0.76848 0.25652 0.99221 0.0
C3003 C 0.78037 0.25744 0.97482 0.0
H3004 H 0.48292 1.00953 0.32502 0.0
H3005 H 0.48588 0.95493 0.28952 0.0
H3006 H 0.48241 0.02963 0.29434 0.0
H3007 H 0.48434 0.97503 0.25872 0.0
H3008 H 0.50823 0.01698 0.20947 0.0
H3009 H 0.50599 0.99683 0.24001 0.0
H3010 H 0.46391 0.03982 0.26519 0.0
H3011 H 0.46641 0.06021 0.23451 0.0
C3012 C 0.4833 1.00177 0.31065 0.0
C3013 C 0.48474 0.98055 0.30983 0.0
C3014 C 0.48276 0.01334 0.29299 0.0
C3015 C 0.48353 1.00405 0.27393 0.0
C3016 C 0.48411 0.98278 0.27309 0.0
C3017 C 0.48471 0.97119 0.29079 0.0
C3018 C 0.49834 0.02208 0.22144 0.0
C3019 C 0.48738 0.04018 0.21943 0.0
C3020 C 0.49699 1.01044 0.23898 0.0
C3021 C 0.4846 0.01649 0.2551 0.0
C3022 C 0.47375 0.03472 0.2532 0.0
C3023 C 0.47518 0.04645 0.23561 0.0
H3024 H 0.11344 0.47309 0.14067 0.0
H3025 H 0.1738 0.44916 0.13576 0.0
H3026 H 0.10745 0.45148 0.17015 0.0
H3027 H 0.16789 0.42772 0.16497 0.0
H3028 H 0.15624 0.39847 0.22515 0.0
H3029 H 0.16145 0.42641 0.20158 0.0
H3030 H 0.1035 0.41429 0.17443 0.0
H3031 H 0.0982 0.38662 0.19817 0.0
C3032 C 0.12556 0.46359 0.14615 0.0
C3033 C 0.14406 0.46277 0.13583 0.0
C3034 C 0.12209 0.45107 0.16292 0.0
C3035 C 0.13716 0.43775 0.16989 0.0
C3036 C 0.156 0.43787 0.16019 0.0
C3037 C 0.15936 0.45011 0.14334 0.0
C3038 C 0.14445 0.40202 0.21443 0.0
C3039 C 0.12687 0.39018 0.21346 0.0
C3040 C 0.14749 0.41795 0.2008 0.0
C3041 C 0.13293 0.42257 0.18602 0.0
C3042 C 0.11496 0.4113 0.18569 0.0
C3043 C 0.11201 0.39528 0.19917 0.0
H3044 H 0.73391 0.61664 0.10622 0.0
H3045 H 0.70193 0.65128 0.15115 0.0
H3046 H 0.70632 0.62172 0.08256 0.0
H3047 H 0.67383 0.65562 0.12784 0.0
H3048 H 0.63339 0.6753 0.07629 0.0
H3049 H 0.66229 0.67176 0.09874 0.0
H3050 H 0.6734 0.61207 0.07473 0.0
H3051 H 0.64488 0.61609 0.05182 0.0
C3052 C 0.7209 0.62525 0.11112 0.0
C3053 C 0.72017 0.63352 0.13064 0.0
C3054 C 0.70494 0.62805 0.09755 0.0
C3055 C 0.68762 0.63901 0.10316 0.0
C3056 C 0.68696 0.64736 0.12273 0.0
C3057 C 0.70307 0.64476 0.13622 0.0
C3058 C 0.64206 0.66146 0.07581 0.0
C3059 C 0.63684 0.646 0.06225 0.0
C3060 C 0.65862 0.65934 0.08879 0.0
C3061 C 0.6703 0.64156 0.08878 0.0
C3062 C 0.6651 0.62615 0.07504 0.0
C3063 C 0.64868 0.6284 0.06187 0.0
H3064 H 0.92466 0.13993 0.19949 0.0
H3065 H 0.86466 0.13115 0.22306 0.0
H3066 H 0.91924 0.11258 0.17535 0.0
H3067 H 0.85925 0.10363 0.199 0.0
H3068 H 0.84984 0.08179 0.1322 0.0
H3069 H 0.85519 0.10315 0.16162 0.0
H3070 H 0.91327 0.07526 0.17133 0.0
H3071 H 0.90782 0.05368 0.14173 0.0
C3072 C 0.91039 0.13199 0.19965 0.0
C3073 C 0.89506 0.1378 0.21312 0.0
C3074 C 0.90735 0.11618 0.18595 0.0
C3075 C 0.88879 0.10593 0.18519 0.0
C3076 C 0.87368 0.1113 0.19911 0.0
C3077 C 0.87682 0.12696 0.21301 0.0
C3078 C 0.86362 0.07994 0.1408 0.0
C3079 C 0.87844 0.06608 0.13457 0.0
C3080 C 0.86664 0.09213 0.15775 0.0
C3081 C 0.8847 0.091 0.16881 0.0
C3082 C 0.89925 0.0766 0.16304 0.0
C3083 C 0.89608 0.06413 0.14619 0.0
H3084 H 0.39114 0.84628 0.07981 0.0
H3085 H 0.37614 0.9022 0.04984 0.0
H3086 H 0.36399 0.85192 0.10392 0.0
H3087 H 0.34852 0.90747 0.0735 0.0
H3088 H 0.32559 0.92424 0.13722 0.0
H3089 H 0.34704 0.91669 0.1086 0.0
H3090 H 0.32762 0.85445 0.11025 0.0
H3091 H 0.30612 0.86207 0.13943 0.0
C3092 C 0.38194 0.85969 0.07821 0.0
C3093 C 0.38612 0.87392 0.06299 0.0
C3094 C 0.36616 0.86279 0.09192 0.0
C3095 C 0.3541 0.88023 0.09081 0.0
C3096 C 0.35767 0.894 0.075 0.0
C3097 C 0.37344 0.89088 0.06128 0.0
C3098 C 0.32565 0.90896 0.13138 0.0
C3099 C 0.31422 0.89373 0.14075 0.0
C3100 C 0.33789 0.90466 0.11479 0.0
C3101 C 0.33917 0.88494 0.10706 0.0
C3102 C 0.32716 0.86978 0.11594 0.0
C3103 C 0.31471 0.87415 0.13255 0.0
H3104 H 0.15685 0.63042 0.30529 0.0
H3105 H 0.09429 0.63216 0.3235 0.0
H3106 H 0.1633 0.60417 0.33004 0.0
H3107 H 0.10104 0.60669 0.34903 0.0
H3108 H 0.11634 0.55118 0.38674 0.0
H3109 H 0.10939 0.57226 0.35712 0.0
H3110 H 0.16654 0.60249 0.36543 0.0
H3111 H 0.17364 0.58131 0.39426 0.0
C3112 C 0.14439 0.62518 0.31441 0.0
C3113 C 0.12506 0.63375 0.31239 0.0
C3114 C 0.14816 0.6102 0.32885 0.0
C3115 C 0.13277 0.60339 0.34182 0.0
C3116 C 0.11327 0.61139 0.3393 0.0
C3117 C 0.10947 0.6263 0.32478 0.0
C3118 C 0.1275 0.56215 0.38202 0.0
C3119 C 0.1455 0.56456 0.39299 0.0
C3120 C 0.12347 0.57435 0.36513 0.0
C3121 C 0.13738 0.58918 0.35879 0.0
C3122 C 0.15557 0.59109 0.36952 0.0
C3123 C 0.15957 0.57898 0.38628 0.0
H3124 H 0.80078 0.65998 0.88615 0.0
H3125 H 0.82788 0.60087 0.88108 0.0
H3126 H 0.82363 0.66785 0.91418 0.0
H3127 H 0.85083 0.60883 0.90831 0.0
H3128 H 0.88218 0.62129 0.96609 0.0
H3129 H 0.85447 0.61449 0.94327 0.0
H3130 H 0.85899 0.67503 0.91948 0.0
H3131 H 0.88605 0.68228 0.94315 0.0
C3132 C 0.81141 0.6486 0.89114 0.0
C3133 C 0.81253 0.62984 0.88128 0.0
C3134 C 0.82465 0.65317 0.90707 0.0
C3135 C 0.8392 0.63902 0.91353 0.0
C3136 C 0.83971 0.62004 0.90406 0.0
C3137 C 0.82658 0.61552 0.88824 0.0
C3138 C 0.87715 0.63335 0.95633 0.0
C3139 C 0.88671 0.65234 0.95651 0.0
C3140 C 0.86128 0.62934 0.94299 0.0
C3141 C 0.85454 0.64411 0.92928 0.0
C3142 C 0.86362 0.6633 0.92987 0.0
C3143 C 0.87943 0.66737 0.94332 0.0
H3144 H 0.85181 0.94532 0.39049 0.0
H3145 H 0.91069 0.97246 0.38402 0.0
H3146 H 0.85862 0.9232 0.36232 0.0
H3147 H 0.91738 0.95045 0.35501 0.0
H3148 H 0.9306 0.88904 0.32354 0.0
H3149 H 0.92429 0.91542 0.3482 0.0
H3150 H 0.86281 0.92032 0.32716 0.0
H3151 H 0.86874 0.89318 0.3033 0.0
C3152 C 0.86617 0.9468 0.38285 0.0
C3153 C 0.88077 0.96062 0.3897 0.0
C3154 C 0.87001 0.93415 0.36647 0.0
C3155 C 0.88857 0.93492 0.35627 0.0
C3156 C 0.903 0.94923 0.36265 0.0
C3157 C 0.89912 0.96199 0.37917 0.0
C3158 C 0.91567 0.89558 0.3242 0.0
C3159 C 0.90013 0.88856 0.31148 0.0
C3160 C 0.91214 0.91102 0.33821 0.0
C3161 C 0.89299 0.92001 0.33987 0.0
C3162 C 0.87767 0.91356 0.32662 0.0
C3163 C 0.88116 0.89803 0.31271 0.0
H3164 H 0.14906 0.90925 0.97534 0.0
H3165 H 0.13614 0.85122 0.94869 0.0
H3166 H 0.17633 0.91428 0.95112 0.0
H3167 H 0.16301 0.85645 0.92413 0.0
H3168 H 0.22076 0.86647 0.88846 0.0
H3169 H 0.19949 0.86002 0.91805 0.0
H3170 H 0.17712 0.92122 0.91512 0.0
H3171 H 0.19832 0.92765 0.88599 0.0
C3172 C 0.15221 0.89742 0.96454 0.0
C3173 C 0.14024 0.8799 0.96388 0.0
C3174 C 0.16775 0.90038 0.9505 0.0
C3175 C 0.1718 0.88584 0.93552 0.0
C3176 C 0.16045 0.86791 0.9355 0.0
C3177 C 0.14487 0.86501 0.94946 0.0
C3178 C 0.21155 0.87861 0.89439 0.0
C3179 C 0.21116 0.89753 0.88476 0.0
C3180 C 0.19925 0.87489 0.91124 0.0
C3181 C 0.1865 0.89008 0.91897 0.0
C3182 C 0.18686 0.90921 0.9098 0.0
C3183 C 0.19895 0.91286 0.89294 0.0
H3184 H 0.2299 0.12827 0.40783 0.0
H3185 H 0.18109 0.12767 0.36475 0.0
H3186 H 0.20548 0.1346 0.43516 0.0
H3187 H 0.15703 0.13404 0.39173 0.0
H3188 H 0.12644 0.17387 0.43849 0.0
H3189 H 0.15347 0.16631 0.41506 0.0
H3190 H 0.17154 0.11554 0.45157 0.0
H3191 H 0.1439 0.12288 0.47532 0.0
C3192 C 0.21401 0.12941 0.40423 0.0
C3193 C 0.20743 0.12739 0.38414 0.0
C3194 C 0.20007 0.13288 0.41984 0.0
C3195 C 0.17939 0.13483 0.41553 0.0
C3196 C 0.17288 0.13265 0.39549 0.0
C3197 C 0.18667 0.12887 0.38004 0.0
C3198 C 0.13616 0.16114 0.44178 0.0
C3199 C 0.13275 0.14883 0.45876 0.0
C3200 C 0.15168 0.15682 0.42826 0.0
C3201 C 0.16446 0.14024 0.43137 0.0
C3202 C 0.16187 0.12844 0.44884 0.0
C3203 C 0.14604 0.13262 0.46238 0.0
H3204 H 0.42721 0.64225 0.83058 0.0
H3205 H 0.36769 0.63814 0.80437 0.0
H3206 H 0.41972 0.61415 0.85261 0.0
H3207 H 0.36026 0.60924 0.82634 0.0
H3208 H 0.34721 0.57866 0.88847 0.0
H3209 H 0.35385 0.60293 0.86176 0.0
H3210 H 0.41408 0.57895 0.85513 0.0
H3211 H 0.40785 0.55544 0.88252 0.0
C3212 C 0.41255 0.63513 0.82928 0.0
C3213 C 0.39799 0.64261 0.81577 0.0
C3214 C 0.40831 0.6188 0.84188 0.0
C3215 C 0.38936 0.60933 0.84137 0.0
C3216 C 0.37495 0.61632 0.82733 0.0
C3217 C 0.37925 0.63276 0.8146 0.0
C3218 C 0.36192 0.57857 0.88144 0.0
C3219 C 0.37706 0.56515 0.88803 0.0
C3220 C 0.36563 0.59235 0.86583 0.0
C3221 C 0.38456 0.59308 0.8563 0.0
C3222 C 0.39941 0.57911 0.86232 0.0
C3223 C 0.39575 0.5654 0.87798 0.0
H3224 H 0.88727 0.35182 0.44686 0.0
H3225 H 0.88365 0.41249 0.47042 0.0
H3226 H 0.85895 0.35861 0.42462 0.0
H3227 H 0.85491 0.41932 0.44807 0.0
H3228 H 0.82652 0.42946 0.38384 0.0
H3229 H 0.85021 0.42363 0.4114 0.0
H3230 H 0.82292 0.36551 0.42253 0.0
H3231 H 0.79954 0.37115 0.3946 0.0
C3232 C 0.88023 0.36657 0.44751 0.0
C3233 C 0.88785 0.38165 0.46037 0.0
C3234 C 0.86383 0.37043 0.4348 0.0
C3235 C 0.85461 0.38954 0.43444 0.0
C3236 C 0.86177 0.40448 0.44781 0.0
C3237 C 0.87814 0.40053 0.46073 0.0
C3238 C 0.8255 0.41547 0.39222 0.0
C3239 C 0.81122 0.4007 0.38682 0.0
C3240 C 0.83896 0.41222 0.4082 0.0
C3241 C 0.8386 0.39405 0.41917 0.0
C3242 C 0.82379 0.37959 0.41427 0.0
C3243 C 0.81024 0.3829 0.39836 0.0
H3244 H 0.64778 0.93212 0.91039 0.0
H3245 H 0.63996 0.98422 0.87196 0.0
H3246 H 0.64476 0.91006 0.88135 0.0
H3247 H 0.63686 0.96197 0.84273 0.0
H3248 H 0.60958 0.91417 0.79976 0.0
H3249 H 0.61412 0.93729 0.82797 0.0
H3250 H 0.6621 0.89964 0.85101 0.0
H3251 H 0.65732 0.87627 0.82294 0.0
C3252 C 0.64568 0.93897 0.89573 0.0
C3253 C 0.64424 0.96009 0.89364 0.0
C3254 C 0.64394 0.92622 0.87899 0.0
C3255 C 0.64067 0.93416 0.8596 0.0
C3256 C 0.63917 0.95528 0.85745 0.0
C3257 C 0.64094 0.96807 0.87424 0.0
C3258 C 0.62116 0.91082 0.81079 0.0
C3259 C 0.63301 0.89325 0.80907 0.0
C3260 C 0.62385 0.92419 0.82693 0.0
C3261 C 0.63845 0.92037 0.84186 0.0
C3262 C 0.65051 0.90295 0.83997 0.0
C3263 C 0.64785 0.88958 0.82379 0.0
H3264 H 0.1989 0.9284 0.14303 0.0
H3265 H 0.2264 0.87092 0.12932 0.0
H3266 H 0.17511 0.92368 0.11538 0.0
H3267 H 0.20296 0.86645 0.10128 0.0
H3268 H 0.13833 0.85312 0.07765 0.0
H3269 H 0.16705 0.85924 0.09953 0.0
H3270 H 0.16995 0.92094 0.0786 0.0
H3271 H 0.14078 0.91477 0.05661 0.0
C3272 C 0.20002 0.91484 0.13399 0.0
C3273 C 0.21444 0.89993 0.13862 0.0
C3274 C 0.18651 0.91225 0.11795 0.0
C3275 C 0.187 0.89462 0.10613 0.0
C3276 C 0.20199 0.88011 0.11021 0.0
C3277 C 0.21557 0.88275 0.1262 0.0
C3278 C 0.14522 0.86795 0.07747 0.0
C3279 C 0.13714 0.8835 0.06547 0.0
C3280 C 0.16184 0.87142 0.08995 0.0
C3281 C 0.17084 0.8906 0.09092 0.0
C3282 C 0.16326 0.90602 0.07835 0.0
C3283 C 0.14666 0.90247 0.06564 0.0
H3284 H 0.14874 0.59372 0.11594 0.0
H3285 H 0.14057 0.54272 0.15569 0.0
H3286 H 0.14467 0.61662 0.14426 0.0
H3287 H 0.13653 0.56573 0.18416 0.0
H3288 H 0.10792 0.61348 0.22555 0.0
H3289 H 0.11323 0.59013 0.19773 0.0
H3290 H 0.16064 0.62844 0.1747 0.0
H3291 H 0.15501 0.65211 0.20238 0.0
C3292 C 0.14633 0.58731 0.13074 0.0
C3293 C 0.14505 0.56625 0.13343 0.0
C3294 C 0.144 0.60052 0.14706 0.0
C3295 C 0.14031 0.59311 0.16658 0.0
C3296 C 0.13908 0.57204 0.16931 0.0
C3297 C 0.1414 0.5588 0.15296 0.0
C3298 C 0.11951 0.61696 0.21459 0.0
C3299 C 0.13099 0.63476 0.21623 0.0
C3300 C 0.12266 0.60344 0.19866 0.0
C3301 C 0.13738 0.60731 0.18389 0.0
C3302 C 0.14898 0.62506 0.18562 0.0
C3303 C 0.14584 0.6386 0.20158 0.0
H3304 H 0.86536 0.66948 0.041 0.0
H3305 H 0.90516 0.62398 0.06553 0.0
H3306 H 0.84131 0.66306 0.06797 0.0
H3307 H 0.8812 0.61783 0.0928 0.0
H3308 H 0.82411 0.5972 0.12593 0.0
H3309 H 0.84812 0.60354 0.09889 0.0
H3310 H 0.83676 0.66758 0.10386 0.0
H3311 H 0.81271 0.66121 0.13093 0.0
C3312 C 0.86905 0.65815 0.05219 0.0
C3313 C 0.88724 0.64724 0.05104 0.0
C3314 C 0.85527 0.65456 0.06776 0.0
C3315 C 0.85927 0.63995 0.08263 0.0
C3316 C 0.87747 0.62902 0.08148 0.0
C3317 C 0.89129 0.63262 0.06589 0.0
C3318 C 0.82681 0.61266 0.12138 0.0
C3319 C 0.81642 0.62868 0.13069 0.0
C3320 C 0.84063 0.6163 0.10586 0.0
C3321 C 0.84448 0.63608 0.09918 0.0
C3322 C 0.834 0.65212 0.10839 0.0
C3323 C 0.82015 0.64847 0.12394 0.0
H3324 H 0.90772 0.97236 0.14319 0.0
H3325 H 0.84796 0.94844 0.13367 0.0
H3326 H 0.91291 0.94859 0.17075 0.0
H3327 H 0.85283 0.92494 0.16156 0.0
H3328 H 0.87582 0.87112 0.19824 0.0
H3329 H 0.87021 0.89526 0.17104 0.0
H3330 H 0.90387 0.94031 0.20409 0.0
H3331 H 0.9101 0.91595 0.23082 0.0
C3332 C 0.89555 0.96224 0.1472 0.0
C3333 C 0.87743 0.96231 0.13619 0.0
C3334 C 0.8985 0.94856 0.16306 0.0
C3335 C 0.88332 0.93469 0.16849 0.0
C3336 C 0.86505 0.93504 0.15764 0.0
C3337 C 0.8622 0.9486 0.14167 0.0
C3338 C 0.88202 0.88617 0.19969 0.0
C3339 C 0.89351 0.89152 0.2167 0.0
C3340 C 0.87869 0.90012 0.18412 0.0
C3341 C 0.8866 0.91985 0.18523 0.0
C3342 C 0.89785 0.92521 0.20242 0.0
C3343 C 0.90133 0.91123 0.21788 0.0
H3344 H 0.4362 0.12986 0.17396 0.0
H3345 H 0.47046 0.14064 0.11962 0.0
H3346 H 0.41501 0.1587 0.16654 0.0
H3347 H 0.4493 0.17014 0.11234 0.0
H3348 H 0.3898 0.20319 0.09431 0.0
H3349 H 0.41505 0.17758 0.10183 0.0
H3350 H 0.41349 0.1946 0.16468 0.0
H3351 H 0.38757 0.21955 0.15734 0.0
C3352 C 0.43941 0.13854 0.16049 0.0
C3353 C 0.45502 0.13277 0.14732 0.0
C3354 C 0.42728 0.15528 0.15631 0.0
C3355 C 0.43037 0.16687 0.13883 0.0
C3356 C 0.44632 0.16144 0.12584 0.0
C3357 C 0.45855 0.14461 0.13007 0.0
C3358 C 0.39475 0.20147 0.10976 0.0
C3359 C 0.38631 0.21337 0.12523 0.0
C3360 C 0.4095 0.18691 0.11404 0.0
C3361 C 0.41628 0.18384 0.1339 0.0
C3362 C 0.40843 0.19628 0.14924 0.0
C3363 C 0.39365 0.21081 0.14498 0.0
H3364 H 0.38494 0.82415 0.42832 0.0
H3365 H 0.39195 0.80211 0.36756 0.0
H3366 H 0.41322 0.84713 0.42343 0.0
H3367 H 0.41984 0.82553 0.36225 0.0
H3368 H 0.48023 0.85772 0.36359 0.0
H3369 H 0.45341 0.83344 0.36977 0.0
H3370 H 0.42281 0.8771 0.40738 0.0
H3371 H 0.45015 0.90103 0.40187 0.0
C3372 C 0.39251 0.8243 0.41386 0.0
C3373 C 0.38621 0.81128 0.39835 0.0
C3374 C 0.40869 0.83758 0.41097 0.0
C3375 C 0.4189 0.83843 0.39237 0.0
C3376 C 0.41267 0.82518 0.37691 0.0
C3377 C 0.39663 0.81171 0.37991 0.0
C3378 C 0.4678 0.86214 0.37323 0.0
C3379 C 0.46737 0.88139 0.38219 0.0
C3380 C 0.45228 0.84821 0.37668 0.0
C3381 C 0.43574 0.85318 0.38904 0.0
C3382 C 0.43538 0.87248 0.39804 0.0
C3383 C 0.45103 0.88633 0.39477 0.0
H3384 H 0.11092 0.29052 0.9095 0.0
H3385 H 0.15163 0.32018 0.86817 0.0
H3386 H 0.08566 0.3165 0.90324 0.0
H3387 H 0.12657 0.34648 0.86233 0.0
H3388 H 0.07064 0.38048 0.84154 0.0
H3389 H 0.09461 0.35302 0.84681 0.0
H3390 H 0.0786 0.35129 0.90994 0.0
H3391 H 0.05453 0.37855 0.90457 0.0
C3392 C 0.11454 0.30263 0.89914 0.0
C3393 C 0.13337 0.30323 0.88937 0.0
C3394 C 0.10005 0.31763 0.89562 0.0
C3395 C 0.104 0.33368 0.88229 0.0
C3396 C 0.12283 0.33422 0.87247 0.0
C3397 C 0.13729 0.31918 0.87593 0.0
C3398 C 0.07223 0.37422 0.85653 0.0
C3399 C 0.06061 0.38176 0.8726 0.0
C3400 C 0.08604 0.3585 0.85959 0.0
C3401 C 0.08869 0.34993 0.87884 0.0
C3402 C 0.07681 0.35726 0.89485 0.0
C3403 C 0.06294 0.37293 0.89176 0.0
H3404 H 0.64361 0.69591 0.42595 0.0
H3405 H 0.634 0.71979 0.36621 0.0
H3406 H 0.6152 0.67301 0.4215 0.0
H3407 H 0.60592 0.6965 0.36138 0.0
H3408 H 0.5454 0.6644 0.36468 0.0
H3409 H 0.57262 0.68839 0.37023 0.0
H3410 H 0.60496 0.64349 0.40483 0.0
H3411 H 0.57728 0.61979 0.39993 0.0
C3412 C 0.63546 0.69618 0.4118 0.0
C3413 C 0.6411 0.70969 0.39645 0.0
C3414 C 0.61919 0.68295 0.40917 0.0
C3415 C 0.60818 0.68266 0.391 0.0
C3416 C 0.61373 0.6964 0.37572 0.0
C3417 C 0.62989 0.70979 0.37845 0.0
C3418 C 0.55831 0.65964 0.37351 0.0
C3419 C 0.55911 0.64011 0.38184 0.0
C3420 C 0.57405 0.67341 0.3766 0.0
C3421 C 0.59118 0.66801 0.38796 0.0
C3422 C 0.59194 0.64843 0.39628 0.0
C3423 C 0.57609 0.63472 0.39336 0.0
H3424 H 0.38967 0.72264 0.36878 0.0
H3425 H 0.38134 0.69259 0.42599 0.0
H3426 H 0.41938 0.70155 0.3623 0.0
H3427 H 0.4103 0.67138 0.41936 0.0
H3428 H 0.47034 0.6427 0.40992 0.0
H3429 H 0.44581 0.66928 0.41633 0.0
H3430 H 0.42692 0.667 0.35402 0.0
H3431 H 0.45214 0.64121 0.34737 0.0
C3432 C 0.39425 0.71171 0.38004 0.0
C3433 C 0.38299 0.70927 0.39784 0.0
C3434 C 0.4112 0.69949 0.37627 0.0
C3435 C 0.41729 0.68463 0.39026 0.0
C3436 C 0.40636 0.68278 0.40832 0.0
C3437 C 0.38954 0.6949 0.41205 0.0
C3438 C 0.46126 0.64809 0.39747 0.0
C3439 C 0.46318 0.6395 0.37815 0.0
C3440 C 0.44698 0.66324 0.4012 0.0
C3441 C 0.43412 0.67022 0.38576 0.0
C3442 C 0.43657 0.66219 0.36629 0.0
C3443 C 0.4509 0.6471 0.36254 0.0
H3444 H 0.13986 0.82529 0.59808 0.0
H3445 H 0.12783 0.79968 0.65674 0.0
H3446 H 0.11333 0.85018 0.60341 0.0
H3447 H 0.10077 0.82409 0.66176 0.0
H3448 H 0.07879 0.88898 0.67501 0.0
H3449 H 0.0998 0.85974 0.66847 0.0
H3450 H 0.0774 0.85723 0.60733 0.0
H3451 H 0.05639 0.88703 0.61387 0.0
C3452 C 0.13144 0.82481 0.61205 0.0
C3453 C 0.13627 0.81058 0.62709 0.0
C3454 C 0.116 0.83896 0.615 0.0
C3455 C 0.10495 0.83931 0.63309 0.0
C3456 C 0.10915 0.82449 0.64775 0.0
C3457 C 0.12458 0.81031 0.64479 0.0
C3458 C 0.07811 0.88212 0.6602 0.0
C3459 C 0.06599 0.89051 0.64492 0.0
C3460 C 0.0901 0.86517 0.65648 0.0
C3461 C 0.0904 0.85606 0.63734 0.0
C3462 C 0.07772 0.86398 0.6222 0.0
C3463 C 0.06556 0.88097 0.62597 0.0
H3464 H 0.05359 0.64182 0.61759 0.0
H3465 H 0.07294 0.63722 0.67953 0.0
H3466 H 0.07862 0.6684 0.61177 0.0
H3467 H 0.09795 0.66374 0.67377 0.0
H3468 H 0.13252 0.72191 0.65982 0.0
H3469 H 0.10242 0.70091 0.66486 0.0
H3470 H 0.11671 0.66748 0.61083 0.0
H3471 H 0.14669 0.68821 0.60594 0.0
C3472 C 0.06292 0.64676 0.63005 0.0
C3473 C 0.06136 0.63737 0.649 0.0
C3474 C 0.07735 0.66188 0.6267 0.0
C3475 C 0.09031 0.66817 0.6423 0.0
C3476 C 0.0881 0.65939 0.66148 0.0
C3477 C 0.0739 0.64408 0.66474 0.0
C3478 C 0.129 0.71031 0.64886 0.0
C3479 C 0.14203 0.70665 0.63253 0.0
C3480 C 0.11186 0.69821 0.65181 0.0
C3481 C 0.1072 0.68249 0.63827 0.0
C3482 C 0.11974 0.67955 0.62144 0.0
C3483 C 0.137 0.69137 0.6187 0.0
H3484 H 0.88852 0.83008 0.59972 0.0
H3485 H 0.89103 0.80804 0.66095 0.0
H3486 H 0.91749 0.8516 0.6061 0.0
H3487 H 0.92038 0.82971 0.66739 0.0
H3488 H 0.94986 0.894 0.67554 0.0
H3489 H 0.92568 0.86669 0.67048 0.0
H3490 H 0.95365 0.85254 0.61341 0.0
H3491 H 0.97755 0.88018 0.61828 0.0
C3492 C 0.89547 0.82961 0.61451 0.0
C3493 C 0.88736 0.81742 0.62987 0.0
C3494 C 0.91222 0.84188 0.61813 0.0
C3495 C 0.92129 0.84248 0.63728 0.0
C3496 C 0.91365 0.82974 0.65251 0.0
C3497 C 0.89693 0.81721 0.64879 0.0
C3498 C 0.95093 0.88499 0.66196 0.0
C3499 C 0.96554 0.88946 0.64723 0.0
C3500 C 0.93719 0.86916 0.65916 0.0
C3501 C 0.93762 0.85745 0.64148 0.0
C3502 C 0.95276 0.86139 0.62711 0.0
C3503 C 0.96659 0.87714 0.62998 0.0
H3504 H 0.61782 0.97748 0.63991 0.0
H3505 H 0.67536 0.94791 0.63188 0.0
H3506 H 0.61152 0.95661 0.66976 0.0
H3507 H 0.66888 0.92685 0.66095 0.0
H3508 H 0.65957 0.89808 0.72073 0.0
H3509 H 0.66581 0.92471 0.69631 0.0
H3510 H 0.60344 0.92229 0.67757 0.0
H3511 H 0.59692 0.89653 0.70277 0.0
C3512 C 0.62918 0.96669 0.64458 0.0
C3513 C 0.64703 0.96432 0.63337 0.0
C3514 C 0.62552 0.9546 0.66161 0.0
C3515 C 0.63964 0.93991 0.66782 0.0
C3516 C 0.65774 0.93813 0.65693 0.0
C3517 C 0.6614 0.95017 0.64005 0.0
C3518 C 0.64706 0.90343 0.71173 0.0
C3519 C 0.62777 0.89479 0.71367 0.0
C3520 C 0.6507 0.91863 0.69749 0.0
C3521 C 0.63521 0.92556 0.68468 0.0
C3522 C 0.61575 0.91751 0.68719 0.0
C3523 C 0.61207 0.90241 0.70151 0.0
H3524 H 0.20422 0.15219 0.65177 0.0
H3525 H 0.23598 0.11812 0.60622 0.0
H3526 H 0.17656 0.15787 0.62823 0.0
H3527 H 0.20878 0.12446 0.58243 0.0
H3528 H 0.14694 0.12062 0.55179 0.0
H3529 H 0.17527 0.11544 0.57468 0.0
H3530 H 0.16646 0.17539 0.59893 0.0
H3531 H 0.13783 0.18023 0.57636 0.0
C3532 C 0.20539 0.14602 0.6367 0.0
C3533 C 0.22231 0.13455 0.63101 0.0
C3534 C 0.18956 0.14942 0.62308 0.0
C3535 C 0.19029 0.14161 0.60331 0.0
C3536 C 0.2074 0.13041 0.59758 0.0
C3537 C 0.22313 0.12687 0.61124 0.0
C3538 C 0.15123 0.13277 0.56183 0.0
C3539 C 0.14009 0.15083 0.56225 0.0
C3540 C 0.16752 0.12983 0.575 0.0
C3541 C 0.17324 0.14495 0.58884 0.0
C3542 C 0.16232 0.1632 0.58887 0.0
C3543 C 0.14594 0.16605 0.57584 0.0
H3544 H 0.43376 0.63175 0.70999 0.0
H3545 H 0.36958 0.64018 0.71452 0.0
H3546 H 0.42869 0.60401 0.68631 0.0
H3547 H 0.36415 0.61372 0.68967 0.0
H3548 H 0.35591 0.55932 0.65138 0.0
H3549 H 0.36295 0.58131 0.67991 0.0
H3550 H 0.42143 0.59514 0.6543 0.0
H3551 H 0.41475 0.57165 0.62684 0.0
C3552 C 0.41853 0.62758 0.7058 0.0
C3553 C 0.40206 0.63794 0.71415 0.0
C3554 C 0.41554 0.61181 0.69201 0.0
C3555 C 0.39595 0.60637 0.68565 0.0
C3556 C 0.37948 0.61682 0.6943 0.0
C3557 C 0.38251 0.63217 0.70854 0.0
C3558 C 0.37045 0.56674 0.65223 0.0
C3559 C 0.38485 0.56368 0.63704 0.0
C3560 C 0.37444 0.57968 0.66845 0.0
C3561 C 0.39268 0.59061 0.66955 0.0
C3562 C 0.40732 0.58697 0.65447 0.0
C3563 C 0.40353 0.57348 0.63858 0.0
H3564 H 0.87578 0.40698 0.55338 0.0
H3565 H 0.88661 0.34707 0.57652 0.0
H3566 H 0.84796 0.41116 0.5771 0.0
H3567 H 0.85859 0.35096 0.59996 0.0
H3568 H 0.8219 0.37217 0.65424 0.0
H3569 H 0.84913 0.36788 0.62992 0.0
H3570 H 0.81475 0.40115 0.5856 0.0
H3571 H 0.78788 0.40601 0.61012 0.0
C3572 C 0.872 0.39456 0.56329 0.0
C3573 C 0.88349 0.37671 0.56306 0.0
C3574 C 0.85602 0.39694 0.57696 0.0
C3575 C 0.85098 0.38145 0.59066 0.0
C3576 C 0.86222 0.36342 0.59003 0.0
C3577 C 0.87827 0.36113 0.5765 0.0
C3578 C 0.82015 0.37859 0.63931 0.0
C3579 C 0.80268 0.38951 0.63422 0.0
C3580 C 0.83575 0.37601 0.62526 0.0
C3581 C 0.83426 0.38414 0.60566 0.0
C3582 C 0.81668 0.39493 0.60058 0.0
C3583 C 0.80116 0.39762 0.61466 0.0
H3584 H 0.61468 0.0493 0.88706 0.0
H3585 H 0.67193 0.07926 0.89551 0.0
H3586 H 0.60816 0.0705 0.85748 0.0
H3587 H 0.66523 0.10063 0.86668 0.0
H3588 H 0.65553 0.12973 0.80686 0.0
H3589 H 0.66213 0.10316 0.83131 0.0
H3590 H 0.59974 0.10488 0.85001 0.0
H3591 H 0.5929 0.13063 0.82483 0.0
C3592 C 0.62594 0.06024 0.88253 0.0
C3593 C 0.64377 0.06261 0.89379 0.0
C3594 C 0.62215 0.07253 0.86566 0.0
C3595 C 0.63611 0.08744 0.85964 0.0
C3596 C 0.65421 0.08921 0.87056 0.0
C3597 C 0.65798 0.07698 0.8873 0.0
C3598 C 0.6431 0.12423 0.81587 0.0
C3599 C 0.6237 0.13264 0.81388 0.0
C3600 C 0.64694 0.10908 0.83012 0.0
C3601 C 0.63154 0.10192 0.8429 0.0
C3602 C 0.61199 0.10982 0.84041 0.0
C3603 C 0.60813 0.12489 0.82609 0.0
H3604 H 0.38048 0.17826 0.45177 0.0
H3605 H 0.38654 0.11421 0.46232 0.0
H3606 H 0.35383 0.17177 0.42729 0.0
H3607 H 0.35944 0.10772 0.43822 0.0
H3608 H 0.33441 0.10551 0.37268 0.0
H3609 H 0.35638 0.11006 0.40168 0.0
H3610 H 0.31915 0.15949 0.4222 0.0
H3611 H 0.29712 0.15504 0.39283 0.0
C3612 C 0.37604 0.16279 0.44897 0.0
C3613 C 0.38585 0.14676 0.45888 0.0
C3614 C 0.36055 0.15908 0.43511 0.0
C3615 C 0.35449 0.13921 0.43071 0.0
C3616 C 0.36386 0.1232 0.44109 0.0
C3617 C 0.3793 0.12693 0.45505 0.0
C3618 C 0.33071 0.1172 0.3835 0.0
C3619 C 0.31408 0.13001 0.38034 0.0
C3620 C 0.34327 0.11972 0.40023 0.0
C3621 C 0.33963 0.13521 0.41426 0.0
C3622 C 0.32252 0.14756 0.41156 0.0
C3623 C 0.3098 0.14491 0.39482 0.0
H3624 H 0.40668 0.37244 0.84264 0.0
H3625 H 0.38502 0.41018 0.79424 0.0
H3626 H 0.40061 0.39955 0.86664 0.0
H3627 H 0.37944 0.4377 0.81812 0.0
H3628 H 0.3538 0.47668 0.86863 0.0
H3629 H 0.35911 0.44923 0.84482 0.0
H3630 H 0.4124 0.43103 0.87776 0.0
H3631 H 0.40655 0.45802 0.90204 0.0
C3632 C 0.40083 0.38665 0.83709 0.0
C3633 C 0.3964 0.38916 0.8165 0.0
C3634 C 0.39739 0.40229 0.85086 0.0
C3635 C 0.38962 0.421 0.84444 0.0
C3636 C 0.38514 0.42346 0.82379 0.0
C3637 C 0.38838 0.40771 0.81003 0.0
C3638 C 0.36664 0.4668 0.87083 0.0
C3639 C 0.37973 0.46957 0.8873 0.0
C3640 C 0.36979 0.45109 0.85704 0.0
C3641 C 0.38623 0.4378 0.85921 0.0
C3642 C 0.39936 0.44067 0.87569 0.0
C3643 C 0.39609 0.45626 0.8896 0.0
H3644 H 0.64318 0.40918 0.4687 0.0
H3645 H 0.64082 0.34716 0.44859 0.0
H3646 H 0.66982 0.41598 0.44446 0.0
H3647 H 0.66672 0.35426 0.42363 0.0
H3648 H 0.72299 0.36964 0.38751 0.0
H3649 H 0.70151 0.3624 0.41671 0.0
H3650 H 0.67189 0.42003 0.40899 0.0
H3651 H 0.69347 0.42739 0.38051 0.0
C3652 C 0.64839 0.39691 0.45927 0.0
C3653 C 0.63956 0.37764 0.46059 0.0
C3654 C 0.66358 0.40089 0.44514 0.0
C3655 C 0.67035 0.38575 0.43185 0.0
C3656 C 0.66206 0.36629 0.43366 0.0
C3657 C 0.64692 0.36229 0.44784 0.0
C3658 C 0.71208 0.38084 0.39227 0.0
C3659 C 0.70992 0.39904 0.38155 0.0
C3660 C 0.69965 0.37665 0.40892 0.0
C3661 C 0.68486 0.39059 0.41525 0.0
C3662 C 0.68324 0.40901 0.40485 0.0
C3663 C 0.69558 0.41318 0.38831 0.0
H3664 H 0.7247 0.654 0.89602 0.0
H3665 H 0.69392 0.59856 0.88104 0.0
H3666 H 0.70192 0.65894 0.92447 0.0
H3667 H 0.67072 0.60384 0.90902 0.0
H3668 H 0.63738 0.61254 0.9682 0.0
H3669 H 0.66573 0.60548 0.94548 0.0
H3670 H 0.66696 0.66826 0.92784 0.0
H3671 H 0.63913 0.67527 0.95053 0.0
C3672 C 0.71327 0.64272 0.8989 0.0
C3673 C 0.71108 0.62598 0.88601 0.0
C3674 C 0.70004 0.64565 0.91514 0.0
C3675 C 0.68429 0.63189 0.91901 0.0
C3676 C 0.68269 0.61469 0.90666 0.0
C3677 C 0.69588 0.6118 0.8904 0.0
C3678 C 0.644 0.62487 0.95975 0.0
C3679 C 0.63589 0.64445 0.96112 0.0
C3680 C 0.66014 0.62081 0.94659 0.0
C3681 C 0.66863 0.63628 0.93468 0.0
C3682 C 0.66105 0.65598 0.93685 0.0
C3683 C 0.64492 0.65999 0.94982 0.0
H3684 H 0.84868 0.07805 0.39039 0.0
H3685 H 0.90626 0.05074 0.377 0.0
H3686 H 0.85375 0.10235 0.36326 0.0
H3687 H 0.91111 0.07471 0.34943 0.0
H3688 H 0.92471 0.13941 0.32616 0.0
H3689 H 0.91839 0.11055 0.34782 0.0
H3690 H 0.85674 0.10824 0.32686 0.0
H3691 H 0.86307 0.13756 0.30515 0.0
C3692 C 0.86235 0.07708 0.38152 0.0
C3693 C 0.87716 0.06255 0.3861 0.0
C3694 C 0.86515 0.0909 0.36577 0.0
C3695 C 0.88291 0.09063 0.35418 0.0
C3696 C 0.89736 0.07554 0.3582 0.0
C3697 C 0.8945 0.06164 0.37391 0.0
C3698 C 0.90983 0.13266 0.32594 0.0
C3699 C 0.89435 0.14095 0.314 0.0
C3700 C 0.90625 0.11594 0.3383 0.0
C3701 C 0.88703 0.10702 0.3392 0.0
C3702 C 0.87168 0.11485 0.32671 0.0
C3703 C 0.87533 0.13157 0.31415 0.0
H3704 H 0.3181 0.93171 0.89176 0.0
H3705 H 0.30911 0.86752 0.88728 0.0
H3706 H 0.34127 0.92669 0.91994 0.0
H3707 H 0.33335 0.86201 0.91426 0.0
H3708 H 0.37019 0.85437 0.96952 0.0
H3709 H 0.34234 0.86231 0.94694 0.0
H3710 H 0.37272 0.9175 0.9295 0.0
H3711 H 0.39955 0.91009 0.95352 0.0
C3712 C 0.32121 0.91649 0.89686 0.0
C3713 C 0.31176 0.90002 0.8875 0.0
C3714 C 0.33468 0.91351 0.91292 0.0
C3715 C 0.33954 0.89387 0.91965 0.0
C3716 C 0.32984 0.87742 0.91015 0.0
C3717 C 0.31596 0.88049 0.8945 0.0
C3718 C 0.37053 0.86845 0.9612 0.0
C3719 C 0.38686 0.88171 0.96338 0.0
C3720 C 0.35471 0.87291 0.94792 0.0
C3721 C 0.35517 0.89043 0.9358 0.0
C3722 C 0.37138 0.90401 0.93859 0.0
C3723 C 0.38689 0.8998 0.95239 0.0
H3724 H 0.17579 0.44643 0.39341 0.0
H3725 H 0.12035 0.47748 0.37894 0.0
H3726 H 0.17006 0.42309 0.36561 0.0
H3727 H 0.11499 0.4546 0.35065 0.0
H3728 H 0.09788 0.39191 0.32503 0.0
H3729 H 0.10541 0.41975 0.34755 0.0
H3730 H 0.16791 0.41776 0.32928 0.0
H3731 H 0.16033 0.38936 0.30675 0.0
C3732 C 0.16246 0.44842 0.3842 0.0
C3733 C 0.14841 0.46374 0.3887 0.0
C3734 C 0.1593 0.43516 0.36804 0.0
C3735 C 0.14198 0.4368 0.35589 0.0
C3736 C 0.12837 0.45267 0.35984 0.0
C3737 C 0.13155 0.46596 0.37599 0.0
C3738 C 0.11322 0.39751 0.32557 0.0
C3739 C 0.12853 0.38825 0.31415 0.0
C3740 C 0.11752 0.41366 0.33844 0.0
C3741 C 0.1373 0.42106 0.34037 0.0
C3742 C 0.15254 0.41231 0.32836 0.0
C3743 C 0.14818 0.39615 0.31531 0.0
H3744 H 0.62488 0.40634 0.56839 0.0
H3745 H 0.6581 0.35347 0.54958 0.0
H3746 H 0.64813 0.41092 0.59649 0.0
H3747 H 0.6809 0.35759 0.57806 0.0
H3748 H 0.73009 0.3817 0.61994 0.0
H3749 H 0.7074 0.37754 0.59128 0.0
H3750 H 0.65738 0.39728 0.62814 0.0
H3751 H 0.68021 0.40183 0.65655 0.0
C3752 C 0.6371 0.39564 0.57028 0.0
C3753 C 0.63961 0.37956 0.55666 0.0
C3754 C 0.65038 0.39817 0.58653 0.0
C3755 C 0.66646 0.3846 0.5897 0.0
C3756 C 0.66895 0.36855 0.57601 0.0
C3757 C 0.65576 0.36611 0.55969 0.0
C3758 C 0.71422 0.38499 0.62194 0.0
C3759 C 0.707 0.39213 0.64055 0.0
C3760 C 0.70116 0.38259 0.60549 0.0
C3761 C 0.68046 0.38711 0.60726 0.0
C3762 C 0.67324 0.39404 0.62599 0.0
C3763 C 0.68634 0.39659 0.64236 0.0
H3764 H 0.61258 0.10829 0.73109 0.0
H3765 H 0.64612 0.15441 0.69962 0.0
H3766 H 0.61862 0.08487 0.70348 0.0
H3767 H 0.65144 0.13131 0.67152 0.0
H3768 H 0.67349 0.08027 0.63156 0.0
H3769 H 0.66874 0.10265 0.66033 0.0
H3770 H 0.6097 0.07682 0.67036 0.0
H3771 H 0.61492 0.05401 0.64197 0.0
C3772 C 0.62113 0.1135 0.71818 0.0
C3773 C 0.62884 0.13328 0.71761 0.0
C3774 C 0.6245 0.10007 0.70221 0.0
C3775 C 0.63549 0.10606 0.68506 0.0
C3776 C 0.64321 0.1259 0.68454 0.0
C3777 C 0.64004 0.13927 0.70064 0.0
C3778 C 0.65952 0.07938 0.63996 0.0
C3779 C 0.6446 0.06533 0.63446 0.0
C3780 C 0.65671 0.09232 0.65644 0.0
C3781 C 0.63875 0.09178 0.66778 0.0
C3782 C 0.62389 0.07755 0.66232 0.0
C3783 C 0.62683 0.06444 0.64597 0.0
H3784 H 0.34428 0.11513 0.65139 0.0
H3785 H 0.29534 0.13916 0.61583 0.0
H3786 H 0.36745 0.12069 0.62343 0.0
H3787 H 0.31829 0.14424 0.58756 0.0
H3788 H 0.36828 0.16962 0.54781 0.0
H3789 H 0.3452 0.16418 0.57579 0.0
H3790 H 0.37683 0.10918 0.59115 0.0
H3791 H 0.40042 0.1151 0.56361 0.0
C3792 C 0.33843 0.12141 0.63749 0.0
C3793 C 0.31797 0.12673 0.63586 0.0
C3794 C 0.35171 0.12455 0.62138 0.0
C3795 C 0.34484 0.13289 0.60309 0.0
C3796 C 0.32429 0.13813 0.60147 0.0
C3797 C 0.31107 0.13519 0.61768 0.0
C3798 C 0.37031 0.15634 0.55713 0.0
C3799 C 0.38624 0.14281 0.55344 0.0
C3800 C 0.35695 0.15313 0.57316 0.0
C3801 C 0.35903 0.13621 0.58585 0.0
C3802 C 0.37489 0.12257 0.58199 0.0
C3803 C 0.38837 0.12588 0.56606 0.0
H3804 H 0.41062 0.47237 0.64516 0.0
H3805 H 0.35054 0.4495 0.63531 0.0
H3806 H 0.41509 0.44872 0.67304 0.0
H3807 H 0.3546 0.42628 0.66351 0.0
H3808 H 0.37515 0.37234 0.70092 0.0
H3809 H 0.37072 0.39641 0.67347 0.0
H3810 H 0.40618 0.44029 0.70622 0.0
H3811 H 0.41128 0.41591 0.73319 0.0
C3812 C 0.39823 0.46252 0.64919 0.0
C3813 C 0.38025 0.4628 0.63796 0.0
C3814 C 0.40076 0.44892 0.66523 0.0
C3815 C 0.38526 0.43536 0.67063 0.0
C3816 C 0.36709 0.43605 0.65962 0.0
C3817 C 0.36468 0.44948 0.64347 0.0
C3818 C 0.38203 0.38711 0.70225 0.0
C3819 C 0.39365 0.3921 0.71927 0.0
C3820 C 0.37937 0.40104 0.68653 0.0
C3821 C 0.38806 0.42046 0.68747 0.0
C3822 C 0.39953 0.42545 0.70464 0.0
C3823 C 0.40236 0.41145 0.72025 0.0
H3824 H 0.9699 0.63832 0.61518 0.0
H3825 H 0.94769 0.63944 0.67639 0.0
H3826 H 0.94907 0.66793 0.60726 0.0
H3827 H 0.92688 0.6685 0.6685 0.0
H3828 H 0.89948 0.7282 0.65407 0.0
H3829 H 0.92642 0.70388 0.66003 0.0
H3830 H 0.91297 0.67495 0.60324 0.0
H3831 H 0.88651 0.69973 0.59694 0.0
C3832 C 0.96082 0.64503 0.627 0.0
C3833 C 0.96038 0.63641 0.64638 0.0
C3834 C 0.94877 0.6619 0.62244 0.0
C3835 C 0.9362 0.67062 0.63722 0.0
C3836 C 0.93649 0.66243 0.65677 0.0
C3837 C 0.94836 0.64559 0.66126 0.0
C3838 C 0.90251 0.71696 0.64263 0.0
C3839 C 0.89059 0.71587 0.6251 0.0
C3840 C 0.91787 0.70285 0.64614 0.0
C3841 C 0.92178 0.68726 0.63223 0.0
C3842 C 0.91051 0.68677 0.61425 0.0
C3843 C 0.89513 0.70086 0.61075 0.0
H3844 H 0.88152 0.31481 0.86503 0.0
H3845 H 0.89688 0.31423 0.92824 0.0
H3846 H 0.90688 0.34111 0.85917 0.0
H3847 H 0.92211 0.34049 0.92247 0.0
H3848 H 0.97637 0.3783 0.90215 0.0
H3849 H 0.95507 0.34812 0.90484 0.0
H3850 H 0.90898 0.37761 0.86947 0.0
H3851 H 0.93005 0.40762 0.86689 0.0
C3852 C 0.89055 0.32006 0.87759 0.0
C3853 C 0.88713 0.31255 0.89711 0.0
C3854 C 0.90496 0.33522 0.87428 0.0
C3855 C 0.91648 0.34295 0.89037 0.0
C3856 C 0.91362 0.33478 0.90973 0.0
C3857 C 0.89904 0.31987 0.91307 0.0
C3858 C 0.96179 0.37822 0.89477 0.0
C3859 C 0.95487 0.39541 0.88441 0.0
C3860 C 0.94956 0.36098 0.89639 0.0
C3861 C 0.93031 0.36046 0.88737 0.0
C3862 C 0.92377 0.37741 0.87642 0.0
C3863 C 0.93582 0.39468 0.87507 0.0
H3864 H 0.64439 0.82752 0.42296 0.0
H3865 H 0.63662 0.79821 0.36529 0.0
H3866 H 0.61531 0.84855 0.41647 0.0
H3867 H 0.60671 0.8191 0.35895 0.0
H3868 H 0.57333 0.87932 0.3448 0.0
H3869 H 0.59861 0.85353 0.35109 0.0
H3870 H 0.57998 0.85053 0.41343 0.0
H3871 H 0.55548 0.87717 0.40744 0.0
C3872 C 0.63628 0.82532 0.40895 0.0
C3873 C 0.64303 0.81123 0.39456 0.0
C3874 C 0.61937 0.83734 0.4053 0.0
C3875 C 0.60852 0.83564 0.38717 0.0
C3876 C 0.61482 0.82104 0.37299 0.0
C3877 C 0.63188 0.80893 0.37667 0.0
C3878 C 0.57463 0.87331 0.35991 0.0
C3879 C 0.56246 0.88077 0.37567 0.0
C3880 C 0.589 0.85819 0.36344 0.0
C3881 C 0.59157 0.84997 0.38283 0.0
C3882 C 0.57876 0.85674 0.39837 0.0
C3883 C 0.56447 0.87195 0.39487 0.0
H3884 H 0.13674 0.19959 0.92537 0.0
H3885 H 0.13459 0.21495 0.86212 0.0
H3886 H 0.10846 0.17668 0.92085 0.0
H3887 H 0.10621 0.19191 0.85756 0.0
H3888 H 0.04272 0.16429 0.86144 0.0
H3889 H 0.07094 0.18746 0.86576 0.0
H3890 H 0.09974 0.1448 0.9058 0.0
H3891 H 0.0713 0.12181 0.90183 0.0
C3892 C 0.13039 0.19796 0.91043 0.0
C3893 C 0.13811 0.20913 0.8941 0.0
C3894 C 0.11411 0.18476 0.90783 0.0
C3895 C 0.10502 0.1823 0.88882 0.0
C3896 C 0.11263 0.19358 0.87249 0.0
C3897 C 0.12894 0.20682 0.87509 0.0
C3898 C 0.05505 0.15983 0.8712 0.0
C3899 C 0.05466 0.14113 0.8813 0.0
C3900 C 0.07134 0.1731 0.87357 0.0
C3901 C 0.08771 0.16806 0.88612 0.0
C3902 C 0.08731 0.14935 0.89622 0.0
C3903 C 0.07102 0.13607 0.89385 0.0
H3904 H 0.86811 0.20077 0.8718 0.0
H3905 H 0.90849 0.22779 0.91522 0.0
H3906 H 0.89205 0.17327 0.86668 0.0
H3907 H 0.93265 0.20064 0.90971 0.0
H3908 H 0.96278 0.13842 0.91021 0.0
H3909 H 0.93857 0.16561 0.91575 0.0
H3910 H 0.9241 0.16565 0.85221 0.0
H3911 H 0.94809 0.13836 0.84679 0.0
C3912 C 0.88213 0.20093 0.88018 0.0
C3913 C 0.88631 0.21654 0.89395 0.0
C3914 C 0.89596 0.18518 0.87716 0.0
C3915 C 0.91439 0.18464 0.88776 0.0
C3916 C 0.91853 0.2003 0.9015 0.0
C3917 C 0.90469 0.21599 0.90457 0.0
C3918 C 0.95456 0.14433 0.8974 0.0
C3919 C 0.95741 0.1361 0.87805 0.0
C3920 C 0.94064 0.15998 0.90056 0.0
C3921 C 0.92925 0.16791 0.88444 0.0
C3922 C 0.93224 0.15974 0.86508 0.0
C3923 C 0.94608 0.14406 0.86195 0.0
H3924 H 0.54652 0.36346 0.16745 0.0
H3925 H 0.56956 0.40102 0.11945 0.0
H3926 H 0.57384 0.33948 0.16194 0.0
H3927 H 0.59664 0.37677 0.1136 0.0
H3928 H 0.65495 0.34151 0.12379 0.0
H3929 H 0.62708 0.36475 0.12868 0.0
H3930 H 0.58704 0.31443 0.13929 0.0
H3931 H 0.61519 0.29103 0.13449 0.0
C3932 C 0.55734 0.36658 0.15562 0.0
C3933 C 0.55582 0.38429 0.14396 0.0
C3934 C 0.57298 0.3527 0.15236 0.0
C3935 C 0.58757 0.3561 0.13733 0.0
C3936 C 0.58591 0.37373 0.12553 0.0
C3937 C 0.57028 0.38763 0.1288 0.0
C3938 C 0.6402 0.33529 0.12692 0.0
C3939 C 0.63739 0.31427 0.12857 0.0
C3940 C 0.62413 0.3487 0.12973 0.0
C3941 C 0.60467 0.34158 0.13426 0.0
C3942 C 0.60183 0.32055 0.13604 0.0
C3943 C 0.61798 0.30708 0.13327 0.0
H3944 H 0.63364 0.22115 0.16199 0.0
H3945 H 0.6337 0.19778 0.1012 0.0
H3946 H 0.60414 0.20018 0.1698 0.0
H3947 H 0.6048 0.1768 0.10899 0.0
H3948 H 0.54563 0.14826 0.12291 0.0
H3949 H 0.56953 0.17552 0.11673 0.0
H3950 H 0.59724 0.16438 0.17463 0.0
H3951 H 0.57285 0.13766 0.18112 0.0
C3952 C 0.62722 0.2118 0.15024 0.0
C3953 C 0.63615 0.21108 0.13102 0.0
C3954 C 0.61041 0.19964 0.15474 0.0
C3955 C 0.60205 0.18667 0.14006 0.0
C3956 C 0.61055 0.18671 0.12064 0.0
C3957 C 0.62732 0.19869 0.11621 0.0
C3958 C 0.5565 0.15188 0.13453 0.0
C3959 C 0.55737 0.14051 0.15244 0.0
C3960 C 0.57039 0.16742 0.1309 0.0
C3961 C 0.58555 0.17207 0.14507 0.0
C3962 C 0.58577 0.16137 0.16339 0.0
C3963 C 0.5719 0.14583 0.16701 0.0
H3964 H 0.43302 0.40372 0.16036 0.0
H3965 H 0.4805 0.367 0.13518 0.0
H3966 H 0.40877 0.37693 0.154 0.0
H3967 H 0.45633 0.33981 0.1292 0.0
H3968 H 0.40434 0.30305 0.10277 0.0
H3969 H 0.42874 0.32974 0.10906 0.0
H3970 H 0.39802 0.34472 0.16456 0.0
H3971 H 0.37315 0.31846 0.15783 0.0
C3972 C 0.43834 0.38979 0.15368 0.0
C3973 C 0.45875 0.3875 0.14835 0.0
C3974 C 0.4244 0.37434 0.15007 0.0
C3975 C 0.43048 0.35602 0.14116 0.0
C3976 C 0.45094 0.35376 0.1358 0.0
C3977 C 0.46486 0.36933 0.13926 0.0
C3978 C 0.40277 0.31203 0.11634 0.0
C3979 C 0.38671 0.30859 0.12977 0.0
C3980 C 0.4169 0.3273 0.12003 0.0
C3981 C 0.4155 0.33951 0.13735 0.0
C3982 C 0.39949 0.33592 0.15088 0.0
C3983 C 0.38525 0.32074 0.1471 0.0
loop_
_geom_bond_atom_site_label_1
_geom_bond_atom_site_label_2
_geom_bond_distance
_geom_bond_site_symmetry_2
_ccdc_geom_bond_type
C0 C1 1.351 . S
C0 N3 1.368 . S
C0 H5 0.931 . S
C1 C0 1.351 . S
C1 N2 1.373 . S
C1 H29 0.930 . S
N2 C1 1.373 . S
N2 C4 1.340 . S
N3 C0 1.368 . S
N3 C4 1.321 . S
N3 Co6 2.135 . S
C4 N2 1.340 . S
C4 N3 1.321 . S
C4 H28 0.930 . S
H5 C0 0.931 . S
Co6 N3 2.135 . S
Co6 N9 2.121 . S
Co6 O14 2.055 . S
Co6 O17 2.039 . S
Co6 N20 2.140 . S
C7 O8 1.227 . S
C7 O17 1.265 . S
O8 C7 1.227 . S
N9 Co6 2.121 . S
N9 C11 1.375 . S
N9 C12 1.313 . S
C10 C11 1.338 . S
C10 N13 1.377 . S
C10 H30 0.930 . S
C11 N9 1.375 . S
C11 C10 1.338 . S
C11 H15 0.931 . S
C12 N9 1.313 . S
C12 N13 1.344 . S
C12 H16 0.930 . S
N13 C10 1.377 . S
N13 C12 1.344 . S
O14 Co6 2.055 . S
O14 C18 1.253 . S
H15 C11 0.931 . S
H16 C12 0.930 . S
O17 Co6 2.039 . S
O17 C7 1.265 . S
C18 O14 1.253 . S
C18 O19 1.227 . S
O19 C18 1.227 . S
N20 Co6 2.140 . S
N20 C23 1.346 . S
N20 C24 1.345 . S
C21 C22 1.387 . S
C21 C25 1.391 . S
C22 C21 1.387 . S
C22 C23 1.369 . S
C22 H31 0.929 . S
C23 N20 1.346 . S
C23 C22 1.369 . S
C23 H26 0.928 . S
C24 N20 1.345 . S
C24 C25 1.371 . S
C24 H27 0.931 . S
C25 C21 1.391 . S
C25 C24 1.371 . S
C25 H32 0.930 . S
H26 C23 0.928 . S
H27 C24 0.931 . S
H28 C4 0.930 . S
H29 C1 0.930 . S
H30 C10 0.930 . S
H31 C22 0.929 . S
H32 C25 0.930 . S
C33 C34 1.351 . S
C33 N36 1.368 . S
C33 H38 0.931 . S
C34 C33 1.351 . S
C34 N35 1.373 . S
C34 H62 0.930 . S
N35 C34 1.373 . S
N35 C37 1.340 . S
N36 C33 1.368 . S
N36 C37 1.321 . S
N36 Co39 2.135 . S
C37 N35 1.340 . S
C37 N36 1.321 . S
C37 H61 0.930 . S
H38 C33 0.931 . S
Co39 N36 2.135 . S
Co39 N42 2.159 . S
Co39 O47 2.055 . S
Co39 O50 2.039 . S
Co39 N53 2.140 . S
C40 O41 1.227 . S
C40 O50 1.265 1_556 S
O41 C40 1.227 . S
N42 Co39 2.159 . S
N42 C44 1.328 1_554 S
N42 C45 1.317 . S
C43 C44 1.338 . S
C43 N46 1.377 . S
C43 H63 0.930 . S
C44 N42 1.328 1_556 S
C44 C43 1.338 . S
C44 H48 0.931 . S
C45 N42 1.317 . S
C45 N46 1.344 1_554 S
C45 H49 0.930 . S
N46 C43 1.377 . S
N46 C45 1.344 1_556 S
O47 Co39 2.055 . S
O47 C51 1.253 . S
H48 C44 0.931 . S
H49 C45 0.930 . S
O50 Co39 2.039 . S
O50 C40 1.265 1_554 S
C51 O47 1.253 . S
C51 O52 1.227 . S
O52 C51 1.227 . S
N53 Co39 2.140 . S
N53 C56 1.346 . S
N53 C57 1.345 . S
C54 C55 1.387 . S
C54 C58 1.391 . S
C55 C54 1.387 . S
C55 C56 1.369 . S
C55 H64 0.929 . S
C56 N53 1.346 . S
C56 C55 1.369 . S
C56 H59 0.928 . S
C57 N53 1.345 . S
C57 C58 1.371 . S
C57 H60 0.931 . S
C58 C54 1.391 . S
C58 C57 1.371 . S
C58 H65 0.930 . S
H59 C56 0.928 . S
H60 C57 0.931 . S
H61 C37 0.930 . S
H62 C34 0.930 . S
H63 C43 0.930 . S
H64 C55 0.929 . S
H65 C58 0.930 . S
C66 C67 1.351 . S
C66 N69 1.368 . S
C66 H71 0.931 . S
C67 C66 1.351 . S
C67 N68 1.373 . S
C67 H95 0.930 . S
N68 C67 1.373 . S
N68 C70 1.340 . S
N69 C66 1.368 . S
N69 C70 1.321 . S
N69 Co72 2.135 . S
C70 N68 1.340 . S
C70 N69 1.321 . S
C70 H94 0.930 . S
H71 C66 0.931 . S
Co72 N69 2.135 . S
Co72 N75 2.121 . S
Co72 O80 2.055 . S
Co72 O83 2.039 . S
Co72 N86 2.140 . S
C73 O74 1.227 . S
C73 O83 1.265 . S
O74 C73 1.227 . S
N75 Co72 2.121 . S
N75 C77 1.375 . S
N75 C78 1.313 . S
C76 C77 1.338 . S
C76 N79 1.377 . S
C76 H96 0.930 . S
C77 N75 1.375 . S
C77 C76 1.338 . S
C77 H81 0.931 . S
C78 N75 1.313 . S
C78 N79 1.344 . S
C78 H82 0.930 . S
N79 C76 1.377 . S
N79 C78 1.344 . S
O80 Co72 2.055 . S
O80 C84 1.253 . S
H81 C77 0.931 . S
H82 C78 0.930 . S
O83 Co72 2.039 . S
O83 C73 1.265 . S
C84 O80 1.253 . S
C84 O85 1.227 . S
O85 C84 1.227 . S
N86 Co72 2.140 . S
N86 C89 1.346 . S
N86 C90 1.345 . S
C87 C88 1.387 . S
C87 C91 1.391 . S
C88 C87 1.387 . S
C88 C89 1.369 . S
C88 H97 0.929 . S
C89 N86 1.346 . S
C89 C88 1.369 . S
C89 H92 0.928 . S
C90 N86 1.345 . S
C90 C91 1.371 . S
C90 H93 0.931 . S
C91 C87 1.391 . S
C91 C90 1.371 . S
C91 H98 0.930 . S
H92 C89 0.928 . S
H93 C90 0.931 . S
H94 C70 0.930 . S
H95 C67 0.930 . S
H96 C76 0.930 . S
H97 C88 0.929 . S
H98 C91 0.930 . S
C99 C100 1.351 . S
C99 N102 1.368 . S
C99 H104 0.931 . S
C100 C99 1.351 . S
C100 N101 1.373 . S
C100 H128 0.930 . S
N101 C100 1.373 . S
N101 C103 1.340 . S
N102 C99 1.368 . S
N102 C103 1.321 . S
N102 Co105 2.135 . S
C103 N101 1.340 . S
C103 N102 1.321 . S
C103 H127 0.930 . S
H104 C99 0.931 . S
Co105 N102 2.135 . S
Co105 N108 2.159 . S
Co105 O113 2.055 . S
Co105 O116 2.039 . S
Co105 N119 2.140 . S
C106 O107 1.227 . S
C106 O116 1.265 1_556 S
O107 C106 1.227 . S
N108 Co105 2.159 . S
N108 C110 1.328 1_554 S
N108 C111 1.317 . S
C109 C110 1.338 . S
C109 N112 1.377 . S
C109 H129 0.930 . S
C110 N108 1.328 1_556 S
C110 C109 1.338 . S
C110 H114 0.931 . S
C111 N108 1.317 . S
C111 N112 1.344 1_554 S
C111 H115 0.930 . S
N112 C109 1.377 . S
N112 C111 1.344 1_556 S
O113 Co105 2.055 . S
O113 C117 1.253 . S
H114 C110 0.931 . S
H115 C111 0.930 . S
O116 Co105 2.039 . S
O116 C106 1.265 1_554 S
C117 O113 1.253 . S
C117 O118 1.227 . S
O118 C117 1.227 . S
N119 Co105 2.140 . S
N119 C122 1.346 . S
N119 C123 1.345 . S
C120 C121 1.387 . S
C120 C124 1.391 . S
C121 C120 1.387 . S
C121 C122 1.369 . S
C121 H130 0.929 . S
C122 N119 1.346 . S
C122 C121 1.369 . S
C122 H125 0.928 . S
C123 N119 1.345 . S
C123 C124 1.371 . S
C123 H126 0.931 . S
C124 C120 1.391 . S
C124 C123 1.371 . S
C124 H131 0.930 . S
H125 C122 0.928 . S
H126 C123 0.931 . S
H127 C103 0.930 . S
H128 C100 0.930 . S
H129 C109 0.930 . S
H130 C121 0.929 . S
H131 C124 0.930 . S
C132 C133 1.351 . S
C132 N135 1.368 . S
C132 H137 0.931 . S
C133 C132 1.351 . S
C133 N134 1.373 . S
C133 H161 0.930 . S
N134 C133 1.373 . S
N134 C136 1.340 . S
N135 C132 1.368 . S
N135 C136 1.321 . S
N135 Co138 2.135 . S
C136 N134 1.340 . S
C136 N135 1.321 . S
C136 H160 0.930 . S
H137 C132 0.931 . S
Co138 N135 2.135 . S
Co138 N141 2.121 . S
Co138 O146 2.055 . S
Co138 O149 2.039 . S
Co138 N152 2.140 . S
C139 O140 1.227 . S
C139 O149 1.265 . S
O140 C139 1.227 . S
N141 Co138 2.121 . S
N141 C143 1.375 . S
N141 C144 1.313 . S
C142 C143 1.338 . S
C142 N145 1.377 . S
C142 H162 0.930 . S
C143 N141 1.375 . S
C143 C142 1.338 . S
C143 H147 0.931 . S
C144 N141 1.313 . S
C144 N145 1.344 . S
C144 H148 0.930 . S
N145 C142 1.377 . S
N145 C144 1.344 . S
O146 Co138 2.055 . S
O146 C150 1.253 . S
H147 C143 0.931 . S
H148 C144 0.930 . S
O149 Co138 2.039 . S
O149 C139 1.265 . S
C150 O146 1.253 . S
C150 O151 1.227 . S
O151 C150 1.227 . S
N152 Co138 2.140 . S
N152 C155 1.346 . S
N152 C156 1.345 . S
C153 C154 1.387 . S
C153 C157 1.391 . S
C154 C153 1.387 . S
C154 C155 1.369 . S
C154 H163 0.929 . S
C155 N152 1.346 . S
C155 C154 1.369 . S
C155 H158 0.928 . S
C156 N152 1.345 . S
C156 C157 1.371 . S
C156 H159 0.931 . S
C157 C153 1.391 . S
C157 C156 1.371 . S
C157 H164 0.930 . S
H158 C155 0.928 . S
H159 C156 0.931 . S
H160 C136 0.930 . S
H161 C133 0.930 . S
H162 C142 0.930 . S
H163 C154 0.929 . S
H164 C157 0.930 . S
C165 C166 1.351 . S
C165 N168 1.368 . S
C165 H170 0.931 . S
C166 C165 1.351 . S
C166 N167 1.373 . S
C166 H194 0.930 . S
N167 C166 1.373 . S
N167 C169 1.340 . S
N168 C165 1.368 . S
N168 C169 1.321 . S
N168 Co171 2.135 . S
C169 N167 1.340 . S
C169 N168 1.321 . S
C169 H193 0.930 . S
H170 C165 0.931 . S
Co171 N168 2.135 . S
Co171 N174 2.159 . S
Co171 O179 2.055 . S
Co171 O182 2.039 . S
Co171 N185 2.140 . S
C172 O173 1.227 . S
C172 O182 1.265 1_554 S
O173 C172 1.227 . S
N174 Co171 2.159 . S
N174 C176 1.328 1_556 S
N174 C177 1.317 . S
C175 C176 1.338 . S
C175 N178 1.377 . S
C175 H195 0.930 . S
C176 N174 1.328 1_554 S
C176 C175 1.338 . S
C176 H180 0.931 . S
C177 N174 1.317 . S
C177 N178 1.344 1_556 S
C177 H181 0.930 . S
N178 C175 1.377 . S
N178 C177 1.344 1_554 S
O179 Co171 2.055 . S
O179 C183 1.253 . S
H180 C176 0.931 . S
H181 C177 0.930 . S
O182 Co171 2.039 . S
O182 C172 1.265 1_556 S
C183 O179 1.253 . S
C183 O184 1.227 . S
O184 C183 1.227 . S
N185 Co171 2.140 . S
N185 C188 1.346 . S
N185 C189 1.345 . S
C186 C187 1.387 . S
C186 C190 1.391 . S
C187 C186 1.387 . S
C187 C188 1.369 . S
C187 H196 0.929 . S
C188 N185 1.346 . S
C188 C187 1.369 . S
C188 H191 0.928 . S
C189 N185 1.345 . S
C189 C190 1.371 . S
C189 H192 0.931 . S
C190 C186 1.391 . S
C190 C189 1.371 . S
C190 H197 0.930 . S
H191 C188 0.928 . S
H192 C189 0.931 . S
H193 C169 0.930 . S
H194 C166 0.930 . S
H195 C175 0.930 . S
H196 C187 0.929 . S
H197 C190 0.930 . S
C198 C199 1.351 . S
C198 N201 1.368 . S
C198 H203 0.931 . S
C199 C198 1.351 . S
C199 N200 1.373 . S
C199 H227 0.930 . S
N200 C199 1.373 . S
N200 C202 1.340 . S
N201 C198 1.368 . S
N201 C202 1.321 . S
N201 Co204 2.135 . S
C202 N200 1.340 . S
C202 N201 1.321 . S
C202 H226 0.930 . S
H203 C198 0.931 . S
Co204 N201 2.135 . S
Co204 N207 2.121 . S
Co204 O212 2.055 . S
Co204 O215 2.039 . S
Co204 N218 2.140 . S
C205 O206 1.227 . S
C205 O215 1.265 . S
O206 C205 1.227 . S
N207 Co204 2.121 . S
N207 C209 1.375 . S
N207 C210 1.313 . S
C208 C209 1.338 . S
C208 N211 1.377 . S
C208 H228 0.930 . S
C209 N207 1.375 . S
C209 C208 1.338 . S
C209 H213 0.931 . S
C210 N207 1.313 . S
C210 N211 1.344 . S
C210 H214 0.930 . S
N211 C208 1.377 . S
N211 C210 1.344 . S
O212 Co204 2.055 . S
O212 C216 1.253 . S
H213 C209 0.931 . S
H214 C210 0.930 . S
O215 Co204 2.039 . S
O215 C205 1.265 . S
C216 O212 1.253 . S
C216 O217 1.227 . S
O217 C216 1.227 . S
N218 Co204 2.140 . S
N218 C221 1.346 . S
N218 C222 1.345 . S
C219 C220 1.387 . S
C219 C223 1.391 . S
C220 C219 1.387 . S
C220 C221 1.369 . S
C220 H229 0.929 . S
C221 N218 1.346 . S
C221 C220 1.369 . S
C221 H224 0.928 . S
C222 N218 1.345 . S
C222 C223 1.371 . S
C222 H225 0.931 . S
C223 C219 1.391 . S
C223 C222 1.371 . S
C223 H230 0.930 . S
H224 C221 0.928 . S
H225 C222 0.931 . S
H226 C202 0.930 . S
H227 C199 0.930 . S
H228 C208 0.930 . S
H229 C220 0.929 . S
H230 C223 0.930 . S
C231 C232 1.351 . S
C231 N234 1.368 . S
C231 H236 0.931 . S
C232 C231 1.351 . S
C232 N233 1.373 . S
C232 H260 0.930 . S
N233 C232 1.373 . S
N233 C235 1.340 . S
N234 C231 1.368 . S
N234 C235 1.321 . S
N234 Co237 2.135 . S
C235 N233 1.340 . S
C235 N234 1.321 . S
C235 H259 0.930 . S
H236 C231 0.931 . S
Co237 N234 2.135 . S
Co237 N240 2.159 . S
Co237 O245 2.055 . S
Co237 O248 2.039 . S
Co237 N251 2.140 . S
C238 O239 1.227 . S
C238 O248 1.265 1_554 S
O239 C238 1.227 . S
N240 Co237 2.159 . S
N240 C242 1.328 1_556 S
N240 C243 1.317 . S
C241 C242 1.338 . S
C241 N244 1.377 . S
C241 H261 0.930 . S
C242 N240 1.328 1_554 S
C242 C241 1.338 . S
C242 H246 0.931 . S
C243 N240 1.317 . S
C243 N244 1.344 1_556 S
C243 H247 0.930 . S
N244 C241 1.377 . S
N244 C243 1.344 1_554 S
O245 Co237 2.055 . S
O245 C249 1.253 . S
H246 C242 0.931 . S
H247 C243 0.930 . S
O248 Co237 2.039 . S
O248 C238 1.265 1_556 S
C249 O245 1.253 . S
C249 O250 1.227 . S
O250 C249 1.227 . S
N251 Co237 2.140 . S
N251 C254 1.346 . S
N251 C255 1.345 . S
C252 C253 1.387 . S
C252 C256 1.391 . S
C253 C252 1.387 . S
C253 C254 1.369 . S
C253 H262 0.929 . S
C254 N251 1.346 . S
C254 C253 1.369 . S
C254 H257 0.928 . S
C255 N251 1.345 . S
C255 C256 1.371 . S
C255 H258 0.931 . S
C256 C252 1.391 . S
C256 C255 1.371 . S
C256 H263 0.930 . S
H257 C254 0.928 . S
H258 C255 0.931 . S
H259 C235 0.930 . S
H260 C232 0.930 . S
H261 C241 0.930 . S
H262 C253 0.929 . S
H263 C256 0.930 . S
C264 C265 1.351 . S
C264 N267 1.368 . S
C264 H269 0.931 . S
C265 C264 1.351 . S
C265 N266 1.373 . S
C265 H293 0.930 . S
N266 C265 1.373 . S
N266 C268 1.340 . S
N267 C264 1.368 . S
N267 C268 1.321 . S
N267 Co270 2.135 . S
C268 N266 1.340 . S
C268 N267 1.321 . S
C268 H292 0.930 . S
H269 C264 0.931 . S
Co270 N267 2.135 . S
Co270 N273 2.121 . S
Co270 O278 2.055 . S
Co270 O281 2.039 . S
Co270 N284 2.140 . S
C271 O272 1.227 . S
C271 O281 1.265 . S
O272 C271 1.227 . S
N273 Co270 2.121 . S
N273 C275 1.375 . S
N273 C276 1.313 . S
C274 C275 1.338 . S
C274 N277 1.377 . S
C274 H294 0.930 . S
C275 N273 1.375 . S
C275 C274 1.338 . S
C275 H279 0.931 . S
C276 N273 1.313 . S
C276 N277 1.344 . S
C276 H280 0.930 . S
N277 C274 1.377 . S
N277 C276 1.344 . S
O278 Co270 2.055 . S
O278 C282 1.253 . S
H279 C275 0.931 . S
H280 C276 0.930 . S
O281 Co270 2.039 . S
O281 C271 1.265 . S
C282 O278 1.253 . S
C282 O283 1.227 . S
O283 C282 1.227 . S
N284 Co270 2.140 . S
N284 C287 1.346 . S
N284 C288 1.345 . S
C285 C286 1.387 . S
C285 C289 1.391 . S
C286 C285 1.387 . S
C286 C287 1.369 . S
C286 H295 0.929 . S
C287 N284 1.346 . S
C287 C286 1.369 . S
C287 H290 0.928 . S
C288 N284 1.345 . S
C288 C289 1.371 . S
C288 H291 0.931 . S
C289 C285 1.391 . S
C289 C288 1.371 . S
C289 H296 0.930 . S
H290 C287 0.928 . S
H291 C288 0.931 . S
H292 C268 0.930 . S
H293 C265 0.930 . S
H294 C274 0.930 . S
H295 C286 0.929 . S
H296 C289 0.930 . S
C297 C298 1.351 . S
C297 N300 1.368 . S
C297 H302 0.931 . S
C298 C297 1.351 . S
C298 N299 1.373 . S
C298 H326 0.930 . S
N299 C298 1.373 . S
N299 C301 1.340 . S
N300 C297 1.368 . S
N300 C301 1.321 . S
N300 Co303 2.135 . S
C301 N299 1.340 . S
C301 N300 1.321 . S
C301 H325 0.930 . S
H302 C297 0.931 . S
Co303 N300 2.135 . S
Co303 N306 2.121 . S
Co303 O311 2.055 . S
Co303 O314 2.039 . S
Co303 N317 2.140 . S
C304 O305 1.227 . S
C304 O314 1.265 . S
O305 C304 1.227 . S
N306 Co303 2.121 . S
N306 C308 1.375 . S
N306 C309 1.313 . S
C307 C308 1.338 . S
C307 N310 1.377 . S
C307 H327 0.930 . S
C308 N306 1.375 . S
C308 C307 1.338 . S
C308 H312 0.931 . S
C309 N306 1.313 . S
C309 N310 1.344 . S
C309 H313 0.930 . S
N310 C307 1.377 . S
N310 C309 1.344 . S
O311 Co303 2.055 . S
O311 C315 1.253 . S
H312 C308 0.931 . S
H313 C309 0.930 . S
O314 Co303 2.039 . S
O314 C304 1.265 . S
C315 O311 1.253 . S
C315 O316 1.227 . S
O316 C315 1.227 . S
N317 Co303 2.140 . S
N317 C320 1.346 . S
N317 C321 1.345 . S
C318 C319 1.387 . S
C318 C322 1.391 . S
C319 C318 1.387 . S
C319 C320 1.369 . S
C319 H328 0.929 . S
C320 N317 1.346 . S
C320 C319 1.369 . S
C320 H323 0.928 . S
C321 N317 1.345 . S
C321 C322 1.371 . S
C321 H324 0.931 . S
C322 C318 1.391 . S
C322 C321 1.371 . S
C322 H329 0.930 . S
H323 C320 0.928 . S
H324 C321 0.931 . S
H325 C301 0.930 . S
H326 C298 0.930 . S
H327 C307 0.930 . S
H328 C319 0.929 . S
H329 C322 0.930 . S
C330 C331 1.351 . S
C330 N333 1.368 . S
C330 H335 0.931 . S
C331 C330 1.351 . S
C331 N332 1.373 . S
C331 H359 0.930 . S
N332 C331 1.373 . S
N332 C334 1.340 . S
N333 C330 1.368 . S
N333 C334 1.321 . S
N333 Co336 2.135 . S
C334 N332 1.340 . S
C334 N333 1.321 . S
C334 H358 0.930 . S
H335 C330 0.931 . S
Co336 N333 2.135 . S
Co336 N339 2.121 . S
Co336 O344 2.055 . S
Co336 O347 2.039 . S
Co336 N350 2.140 . S
C337 O338 1.227 . S
C337 O347 1.265 . S
O338 C337 1.227 . S
N339 Co336 2.121 . S
N339 C341 1.375 . S
N339 C342 1.313 . S
C340 C341 1.338 . S
C340 N343 1.377 . S
C340 H360 0.930 . S
C341 N339 1.375 . S
C341 C340 1.338 . S
C341 H345 0.931 . S
C342 N339 1.313 . S
C342 N343 1.344 . S
C342 H346 0.930 . S
N343 C340 1.377 . S
N343 C342 1.344 . S
O344 Co336 2.055 . S
O344 C348 1.253 . S
H345 C341 0.931 . S
H346 C342 0.930 . S
O347 Co336 2.039 . S
O347 C337 1.265 . S
C348 O344 1.253 . S
C348 O349 1.227 . S
O349 C348 1.227 . S
N350 Co336 2.140 . S
N350 C353 1.346 . S
N350 C354 1.345 . S
C351 C352 1.387 . S
C351 C355 1.391 . S
C352 C351 1.387 . S
C352 C353 1.369 . S
C352 H361 0.929 . S
C353 N350 1.346 . S
C353 C352 1.369 . S
C353 H356 0.928 . S
C354 N350 1.345 . S
C354 C355 1.371 . S
C354 H357 0.931 . S
C355 C351 1.391 . S
C355 C354 1.371 . S
C355 H362 0.930 . S
H356 C353 0.928 . S
H357 C354 0.931 . S
H358 C334 0.930 . S
H359 C331 0.930 . S
H360 C340 0.930 . S
H361 C352 0.929 . S
H362 C355 0.930 . S
C363 C364 1.351 . S
C363 N366 1.368 . S
C363 H368 0.931 . S
C364 C363 1.351 . S
C364 N365 1.373 . S
C364 H392 0.930 . S
N365 C364 1.373 . S
N365 C367 1.340 . S
N366 C363 1.368 . S
N366 C367 1.321 . S
N366 Co369 2.135 . S
C367 N365 1.340 . S
C367 N366 1.321 . S
C367 H391 0.930 . S
H368 C363 0.931 . S
Co369 N366 2.135 . S
Co369 N372 2.159 . S
Co369 O377 2.055 . S
Co369 O380 2.039 . S
Co369 N383 2.140 . S
C370 O371 1.227 . S
C370 O380 1.265 1_545 S
O371 C370 1.227 . S
N372 Co369 2.159 . S
N372 C374 1.328 1_565 S
N372 C375 1.317 . S
C373 C374 1.338 . S
C373 N376 1.377 . S
C373 H393 0.930 . S
C374 N372 1.328 1_545 S
C374 C373 1.338 . S
C374 H378 0.931 . S
C375 N372 1.317 . S
C375 N376 1.344 1_565 S
C375 H379 0.930 . S
N376 C373 1.377 . S
N376 C375 1.344 1_545 S
O377 Co369 2.055 . S
O377 C381 1.253 . S
H378 C374 0.931 . S
H379 C375 0.930 . S
O380 Co369 2.039 . S
O380 C370 1.265 1_565 S
C381 O377 1.253 . S
C381 O382 1.227 . S
O382 C381 1.227 . S
N383 Co369 2.140 . S
N383 C386 1.346 . S
N383 C387 1.345 . S
C384 C385 1.387 . S
C384 C388 1.391 . S
C385 C384 1.387 . S
C385 C386 1.369 . S
C385 H394 0.929 . S
C386 N383 1.346 . S
C386 C385 1.369 . S
C386 H389 0.928 . S
C387 N383 1.345 . S
C387 C388 1.371 . S
C387 H390 0.931 . S
C388 C384 1.391 . S
C388 C387 1.371 . S
C388 H395 0.930 . S
H389 C386 0.928 . S
H390 C387 0.931 . S
H391 C367 0.930 . S
H392 C364 0.930 . S
H393 C373 0.930 . S
H394 C385 0.929 . S
H395 C388 0.930 . S
C396 C397 1.351 . S
C396 N399 1.368 . S
C396 H401 0.931 . S
C397 C396 1.351 . S
C397 N398 1.373 . S
C397 H425 0.930 . S
N398 C397 1.373 . S
N398 C400 1.340 . S
N399 C396 1.368 . S
N399 C400 1.321 . S
N399 Co402 2.135 . S
C400 N398 1.340 . S
C400 N399 1.321 . S
C400 H424 0.930 . S
H401 C396 0.931 . S
Co402 N399 2.135 . S
Co402 N405 2.121 . S
Co402 O410 2.055 . S
Co402 O413 2.039 . S
Co402 N416 2.140 . S
C403 O404 1.227 . S
C403 O413 1.265 . S
O404 C403 1.227 . S
N405 Co402 2.121 . S
N405 C407 1.375 . S
N405 C408 1.313 . S
C406 C407 1.338 . S
C406 N409 1.377 . S
C406 H426 0.930 . S
C407 N405 1.375 . S
C407 C406 1.338 . S
C407 H411 0.931 . S
C408 N405 1.313 . S
C408 N409 1.344 . S
C408 H412 0.930 . S
N409 C406 1.377 . S
N409 C408 1.344 . S
O410 Co402 2.055 . S
O410 C414 1.253 . S
H411 C407 0.931 . S
H412 C408 0.930 . S
O413 Co402 2.039 . S
O413 C403 1.265 . S
C414 O410 1.253 . S
C414 O415 1.227 . S
O415 C414 1.227 . S
N416 Co402 2.140 . S
N416 C419 1.346 . S
N416 C420 1.345 . S
C417 C418 1.387 . S
C417 C421 1.391 . S
C418 C417 1.387 . S
C418 C419 1.369 . S
C418 H427 0.929 . S
C419 N416 1.346 . S
C419 C418 1.369 . S
C419 H422 0.928 . S
C420 N416 1.345 . S
C420 C421 1.371 . S
C420 H423 0.931 . S
C421 C417 1.391 . S
C421 C420 1.371 . S
C421 H428 0.930 . S
H422 C419 0.928 . S
H423 C420 0.931 . S
H424 C400 0.930 . S
H425 C397 0.930 . S
H426 C406 0.930 . S
H427 C418 0.929 . S
H428 C421 0.930 . S
C429 C430 1.351 . S
C429 N432 1.368 . S
C429 H434 0.931 . S
C430 C429 1.351 . S
C430 N431 1.373 . S
C430 H458 0.930 . S
N431 C430 1.373 . S
N431 C433 1.340 . S
N432 C429 1.368 . S
N432 C433 1.321 . S
N432 Co435 2.135 . S
C433 N431 1.340 . S
C433 N432 1.321 . S
C433 H457 0.930 . S
H434 C429 0.931 . S
Co435 N432 2.135 . S
Co435 N438 2.121 . S
Co435 O443 2.055 . S
Co435 O446 2.039 . S
Co435 N449 2.140 . S
C436 O437 1.227 . S
C436 O446 1.265 . S
O437 C436 1.227 . S
N438 Co435 2.121 . S
N438 C440 1.375 . S
N438 C441 1.313 . S
C439 C440 1.338 . S
C439 N442 1.377 . S
C439 H459 0.930 . S
C440 N438 1.375 . S
C440 C439 1.338 . S
C440 H444 0.931 . S
C441 N438 1.313 . S
C441 N442 1.344 . S
C441 H445 0.930 . S
N442 C439 1.377 . S
N442 C441 1.344 . S
O443 Co435 2.055 . S
O443 C447 1.253 . S
H444 C440 0.931 . S
H445 C441 0.930 . S
O446 Co435 2.039 . S
O446 C436 1.265 . S
C447 O443 1.253 . S
C447 O448 1.227 . S
O448 C447 1.227 . S
N449 Co435 2.140 . S
N449 C452 1.346 . S
N449 C453 1.345 . S
C450 C451 1.387 . S
C450 C454 1.391 . S
C451 C450 1.387 . S
C451 C452 1.369 . S
C451 H460 0.929 . S
C452 N449 1.346 . S
C452 C451 1.369 . S
C452 H455 0.928 . S
C453 N449 1.345 . S
C453 C454 1.371 . S
C453 H456 0.931 . S
C454 C450 1.391 . S
C454 C453 1.371 . S
C454 H461 0.930 . S
H455 C452 0.928 . S
H456 C453 0.931 . S
H457 C433 0.930 . S
H458 C430 0.930 . S
H459 C439 0.930 . S
H460 C451 0.929 . S
H461 C454 0.930 . S
C462 C463 1.351 . S
C462 N465 1.368 . S
C462 H467 0.931 . S
C463 C462 1.351 . S
C463 N464 1.373 . S
C463 H491 0.930 . S
N464 C463 1.373 . S
N464 C466 1.340 . S
N465 C462 1.368 . S
N465 C466 1.321 . S
N465 Co468 2.135 . S
C466 N464 1.340 . S
C466 N465 1.321 . S
C466 H490 0.930 . S
H467 C462 0.931 . S
Co468 N465 2.135 . S
Co468 N471 2.121 . S
Co468 O476 2.055 . S
Co468 O479 2.039 . S
Co468 N482 2.140 . S
C469 O470 1.227 . S
C469 O479 1.265 . S
O470 C469 1.227 . S
N471 Co468 2.121 . S
N471 C473 1.375 . S
N471 C474 1.313 . S
C472 C473 1.338 . S
C472 N475 1.377 . S
C472 H492 0.930 . S
C473 N471 1.375 . S
C473 C472 1.338 . S
C473 H477 0.931 . S
C474 N471 1.313 . S
C474 N475 1.344 . S
C474 H478 0.930 . S
N475 C472 1.377 . S
N475 C474 1.344 . S
O476 Co468 2.055 . S
O476 C480 1.253 . S
H477 C473 0.931 . S
H478 C474 0.930 . S
O479 Co468 2.039 . S
O479 C469 1.265 . S
C480 O476 1.253 . S
C480 O481 1.227 . S
O481 C480 1.227 . S
N482 Co468 2.140 . S
N482 C485 1.346 . S
N482 C486 1.345 . S
C483 C484 1.387 . S
C483 C487 1.391 . S
C484 C483 1.387 . S
C484 C485 1.369 . S
C484 H493 0.929 . S
C485 N482 1.346 . S
C485 C484 1.369 . S
C485 H488 0.928 . S
C486 N482 1.345 . S
C486 C487 1.371 . S
C486 H489 0.931 . S
C487 C483 1.391 . S
C487 C486 1.371 . S
C487 H494 0.930 . S
H488 C485 0.928 . S
H489 C486 0.931 . S
H490 C466 0.930 . S
H491 C463 0.930 . S
H492 C472 0.930 . S
H493 C484 0.929 . S
H494 C487 0.930 . S
C495 C496 1.351 . S
C495 N498 1.368 . S
C495 H500 0.931 . S
C496 C495 1.351 . S
C496 N497 1.373 . S
C496 H524 0.930 . S
N497 C496 1.373 . S
N497 C499 1.340 . S
N498 C495 1.368 . S
N498 C499 1.321 . S
N498 Co501 2.135 . S
C499 N497 1.340 . S
C499 N498 1.321 . S
C499 H523 0.930 . S
H500 C495 0.931 . S
Co501 N498 2.135 . S
Co501 N504 2.159 . S
Co501 O509 2.055 . S
Co501 O512 2.039 . S
Co501 N515 2.140 . S
C502 O503 1.227 . S
C502 O512 1.265 1_545 S
O503 C502 1.227 . S
N504 Co501 2.159 . S
N504 C506 1.328 1_565 S
N504 C507 1.317 . S
C505 C506 1.338 . S
C505 N508 1.377 . S
C505 H525 0.930 . S
C506 N504 1.328 1_545 S
C506 C505 1.338 . S
C506 H510 0.931 . S
C507 N504 1.317 . S
C507 N508 1.344 1_565 S
C507 H511 0.930 . S
N508 C505 1.377 . S
N508 C507 1.344 1_545 S
O509 Co501 2.055 . S
O509 C513 1.253 . S
H510 C506 0.931 . S
H511 C507 0.930 . S
O512 Co501 2.039 . S
O512 C502 1.265 1_565 S
C513 O509 1.253 . S
C513 O514 1.227 . S
O514 C513 1.227 . S
N515 Co501 2.140 . S
N515 C518 1.346 . S
N515 C519 1.345 . S
C516 C517 1.387 . S
C516 C520 1.391 . S
C517 C516 1.387 . S
C517 C518 1.369 . S
C517 H526 0.929 . S
C518 N515 1.346 . S
C518 C517 1.369 . S
C518 H521 0.928 . S
C519 N515 1.345 . S
C519 C520 1.371 . S
C519 H522 0.931 . S
C520 C516 1.391 . S
C520 C519 1.371 . S
C520 H527 0.930 . S
H521 C518 0.928 . S
H522 C519 0.931 . S
H523 C499 0.930 . S
H524 C496 0.930 . S
H525 C505 0.930 . S
H526 C517 0.929 . S
H527 C520 0.930 . S
C528 C529 1.351 . S
C528 N531 1.368 . S
C528 H533 0.931 . S
C529 C528 1.351 . S
C529 N530 1.373 . S
C529 H557 0.930 . S
N530 C529 1.373 . S
N530 C532 1.340 . S
N531 C528 1.368 . S
N531 C532 1.321 . S
N531 Co534 2.135 . S
C532 N530 1.340 . S
C532 N531 1.321 . S
C532 H556 0.930 . S
H533 C528 0.931 . S
Co534 N531 2.135 . S
Co534 N537 2.121 . S
Co534 O542 2.055 . S
Co534 O545 2.039 . S
Co534 N548 2.140 . S
C535 O536 1.227 . S
C535 O545 1.265 . S
O536 C535 1.227 . S
N537 Co534 2.121 . S
N537 C539 1.375 . S
N537 C540 1.313 . S
C538 C539 1.338 . S
C538 N541 1.377 . S
C538 H558 0.930 . S
C539 N537 1.375 . S
C539 C538 1.338 . S
C539 H543 0.931 . S
C540 N537 1.313 . S
C540 N541 1.344 . S
C540 H544 0.930 . S
N541 C538 1.377 . S
N541 C540 1.344 . S
O542 Co534 2.055 . S
O542 C546 1.253 . S
H543 C539 0.931 . S
H544 C540 0.930 . S
O545 Co534 2.039 . S
O545 C535 1.265 . S
C546 O542 1.253 . S
C546 O547 1.227 . S
O547 C546 1.227 . S
N548 Co534 2.140 . S
N548 C551 1.346 . S
N548 C552 1.345 . S
C549 C550 1.387 . S
C549 C553 1.391 . S
C550 C549 1.387 . S
C550 C551 1.369 . S
C550 H559 0.929 . S
C551 N548 1.346 . S
C551 C550 1.369 . S
C551 H554 0.928 . S
C552 N548 1.345 . S
C552 C553 1.371 . S
C552 H555 0.931 . S
C553 C549 1.391 . S
C553 C552 1.371 . S
C553 H560 0.930 . S
H554 C551 0.928 . S
H555 C552 0.931 . S
H556 C532 0.930 . S
H557 C529 0.930 . S
H558 C538 0.930 . S
H559 C550 0.929 . S
H560 C553 0.930 . S
C561 C562 1.351 . S
C561 N564 1.368 . S
C561 H566 0.931 . S
C562 C561 1.351 . S
C562 N563 1.373 . S
C562 H590 0.930 . S
N563 C562 1.373 . S
N563 C565 1.340 . S
N564 C561 1.368 . S
N564 C565 1.321 . S
N564 Co567 2.135 . S
C565 N563 1.340 . S
C565 N564 1.321 . S
C565 H589 0.930 . S
H566 C561 0.931 . S
Co567 N564 2.135 . S
Co567 N570 2.121 . S
Co567 O575 2.055 . S
Co567 O578 2.039 . S
Co567 N581 2.140 . S
C568 O569 1.227 . S
C568 O578 1.265 . S
O569 C568 1.227 . S
N570 Co567 2.121 . S
N570 C572 1.375 . S
N570 C573 1.313 . S
C571 C572 1.338 . S
C571 N574 1.377 . S
C571 H591 0.930 . S
C572 N570 1.375 . S
C572 C571 1.338 . S
C572 H576 0.931 . S
C573 N570 1.313 . S
C573 N574 1.344 . S
C573 H577 0.930 . S
N574 C571 1.377 . S
N574 C573 1.344 . S
O575 Co567 2.055 . S
O575 C579 1.253 . S
H576 C572 0.931 . S
H577 C573 0.930 . S
O578 Co567 2.039 . S
O578 C568 1.265 . S
C579 O575 1.253 . S
C579 O580 1.227 . S
O580 C579 1.227 . S
N581 Co567 2.140 . S
N581 C584 1.346 . S
N581 C585 1.345 . S
C582 C583 1.387 . S
C582 C586 1.391 . S
C583 C582 1.387 . S
C583 C584 1.369 . S
C583 H592 0.929 . S
C584 N581 1.346 . S
C584 C583 1.369 . S
C584 H587 0.928 . S
C585 N581 1.345 . S
C585 C586 1.371 . S
C585 H588 0.931 . S
C586 C582 1.391 . S
C586 C585 1.371 . S
C586 H593 0.930 . S
H587 C584 0.928 . S
H588 C585 0.931 . S
H589 C565 0.930 . S
H590 C562 0.930 . S
H591 C571 0.930 . S
H592 C583 0.929 . S
H593 C586 0.930 . S
C594 C595 1.351 . S
C594 N597 1.368 . S
C594 H599 0.931 . S
C595 C594 1.351 . S
C595 N596 1.373 . S
C595 H623 0.930 . S
N596 C595 1.373 . S
N596 C598 1.340 . S
N597 C594 1.368 . S
N597 C598 1.321 . S
N597 Co600 2.135 . S
C598 N596 1.340 . S
C598 N597 1.321 . S
C598 H622 0.930 . S
H599 C594 0.931 . S
Co600 N597 2.135 . S
Co600 N603 2.159 . S
Co600 O608 2.055 . S
Co600 O611 2.039 . S
Co600 N614 2.140 . S
C601 O602 1.227 . S
C601 O611 1.265 1_655 S
O602 C601 1.227 . S
N603 Co600 2.159 . S
N603 C605 1.328 1_455 S
N603 C606 1.317 . S
C604 C605 1.338 . S
C604 N607 1.377 . S
C604 H624 0.930 . S
C605 N603 1.328 1_655 S
C605 C604 1.338 . S
C605 H609 0.931 . S
C606 N603 1.317 . S
C606 N607 1.344 1_455 S
C606 H610 0.930 . S
N607 C604 1.377 . S
N607 C606 1.344 1_655 S
O608 Co600 2.055 . S
O608 C612 1.253 . S
H609 C605 0.931 . S
H610 C606 0.930 . S
O611 Co600 2.039 . S
O611 C601 1.265 1_455 S
C612 O608 1.253 . S
C612 O613 1.227 . S
O613 C612 1.227 . S
N614 Co600 2.140 . S
N614 C617 1.346 . S
N614 C618 1.345 . S
C615 C616 1.387 . S
C615 C619 1.391 . S
C616 C615 1.387 . S
C616 C617 1.369 . S
C616 H625 0.929 . S
C617 N614 1.346 . S
C617 C616 1.369 . S
C617 H620 0.928 . S
C618 N614 1.345 . S
C618 C619 1.371 . S
C618 H621 0.931 . S
C619 C615 1.391 . S
C619 C618 1.371 . S
C619 H626 0.930 . S
H620 C617 0.928 . S
H621 C618 0.931 . S
H622 C598 0.930 . S
H623 C595 0.930 . S
H624 C604 0.930 . S
H625 C616 0.929 . S
H626 C619 0.930 . S
C627 C628 1.351 . S
C627 N630 1.368 . S
C627 H632 0.931 . S
C628 C627 1.351 . S
C628 N629 1.373 . S
C628 H656 0.930 . S
N629 C628 1.373 . S
N629 C631 1.340 . S
N630 C627 1.368 . S
N630 C631 1.321 . S
N630 Co633 2.135 . S
C631 N629 1.340 . S
C631 N630 1.321 . S
C631 H655 0.930 . S
H632 C627 0.931 . S
Co633 N630 2.135 . S
Co633 N636 2.121 . S
Co633 O641 2.055 . S
Co633 O644 2.039 . S
Co633 N647 2.140 . S
C634 O635 1.227 . S
C634 O644 1.265 . S
O635 C634 1.227 . S
N636 Co633 2.121 . S
N636 C638 1.375 . S
N636 C639 1.313 . S
C637 C638 1.338 . S
C637 N640 1.377 . S
C637 H657 0.930 . S
C638 N636 1.375 . S
C638 C637 1.338 . S
C638 H642 0.931 . S
C639 N636 1.313 . S
C639 N640 1.344 . S
C639 H643 0.930 . S
N640 C637 1.377 . S
N640 C639 1.344 . S
O641 Co633 2.055 . S
O641 C645 1.253 . S
H642 C638 0.931 . S
H643 C639 0.930 . S
O644 Co633 2.039 . S
O644 C634 1.265 . S
C645 O641 1.253 . S
C645 O646 1.227 . S
O646 C645 1.227 . S
N647 Co633 2.140 . S
N647 C650 1.346 . S
N647 C651 1.345 . S
C648 C649 1.387 . S
C648 C652 1.391 . S
C649 C648 1.387 . S
C649 C650 1.369 . S
C649 H658 0.929 . S
C650 N647 1.346 . S
C650 C649 1.369 . S
C650 H653 0.928 . S
C651 N647 1.345 . S
C651 C652 1.371 . S
C651 H654 0.931 . S
C652 C648 1.391 . S
C652 C651 1.371 . S
C652 H659 0.930 . S
H653 C650 0.928 . S
H654 C651 0.931 . S
H655 C631 0.930 . S
H656 C628 0.930 . S
H657 C637 0.930 . S
H658 C649 0.929 . S
H659 C652 0.930 . S
C660 C661 1.351 . S
C660 N663 1.368 . S
C660 H665 0.931 . S
C661 C660 1.351 . S
C661 N662 1.373 . S
C661 H689 0.930 . S
N662 C661 1.373 . S
N662 C664 1.340 . S
N663 C660 1.368 . S
N663 C664 1.321 . S
N663 Co666 2.135 . S
C664 N662 1.340 . S
C664 N663 1.321 . S
C664 H688 0.930 . S
H665 C660 0.931 . S
Co666 N663 2.135 . S
Co666 N669 2.121 . S
Co666 O674 2.055 . S
Co666 O677 2.039 . S
Co666 N680 2.140 . S
C667 O668 1.227 . S
C667 O677 1.265 . S
O668 C667 1.227 . S
N669 Co666 2.121 . S
N669 C671 1.375 . S
N669 C672 1.313 . S
C670 C671 1.338 . S
C670 N673 1.377 . S
C670 H690 0.930 . S
C671 N669 1.375 . S
C671 C670 1.338 . S
C671 H675 0.931 . S
C672 N669 1.313 . S
C672 N673 1.344 . S
C672 H676 0.930 . S
N673 C670 1.377 . S
N673 C672 1.344 . S
O674 Co666 2.055 . S
O674 C678 1.253 . S
H675 C671 0.931 . S
H676 C672 0.930 . S
O677 Co666 2.039 . S
O677 C667 1.265 . S
C678 O674 1.253 . S
C678 O679 1.227 . S
O679 C678 1.227 . S
N680 Co666 2.140 . S
N680 C683 1.346 . S
N680 C684 1.345 . S
C681 C682 1.387 . S
C681 C685 1.391 . S
C682 C681 1.387 . S
C682 C683 1.369 . S
C682 H691 0.929 . S
C683 N680 1.346 . S
C683 C682 1.369 . S
C683 H686 0.928 . S
C684 N680 1.345 . S
C684 C685 1.371 . S
C684 H687 0.931 . S
C685 C681 1.391 . S
C685 C684 1.371 . S
C685 H692 0.930 . S
H686 C683 0.928 . S
H687 C684 0.931 . S
H688 C664 0.930 . S
H689 C661 0.930 . S
H690 C670 0.930 . S
H691 C682 0.929 . S
H692 C685 0.930 . S
C693 C694 1.351 . S
C693 N696 1.368 . S
C693 H698 0.931 . S
C694 C693 1.351 . S
C694 N695 1.373 . S
C694 H722 0.930 . S
N695 C694 1.373 . S
N695 C697 1.340 . S
N696 C693 1.368 . S
N696 C697 1.321 . S
N696 Co699 2.135 . S
C697 N695 1.340 . S
C697 N696 1.321 . S
C697 H721 0.930 . S
H698 C693 0.931 . S
Co699 N696 2.135 . S
Co699 N702 2.121 . S
Co699 O707 2.055 . S
Co699 O710 2.039 . S
Co699 N713 2.140 . S
C700 O701 1.227 . S
C700 O710 1.265 . S
O701 C700 1.227 . S
N702 Co699 2.121 . S
N702 C704 1.375 . S
N702 C705 1.313 . S
C703 C704 1.338 . S
C703 N706 1.377 . S
C703 H723 0.930 . S
C704 N702 1.375 . S
C704 C703 1.338 . S
C704 H708 0.931 . S
C705 N702 1.313 . S
C705 N706 1.344 . S
C705 H709 0.930 . S
N706 C703 1.377 . S
N706 C705 1.344 . S
O707 Co699 2.055 . S
O707 C711 1.253 . S
H708 C704 0.931 . S
H709 C705 0.930 . S
O710 Co699 2.039 . S
O710 C700 1.265 . S
C711 O707 1.253 . S
C711 O712 1.227 . S
O712 C711 1.227 . S
N713 Co699 2.140 . S
N713 C716 1.346 . S
N713 C717 1.345 . S
C714 C715 1.387 . S
C714 C718 1.391 . S
C715 C714 1.387 . S
C715 C716 1.369 . S
C715 H724 0.929 . S
C716 N713 1.346 . S
C716 C715 1.369 . S
C716 H719 0.928 . S
C717 N713 1.345 . S
C717 C718 1.371 . S
C717 H720 0.931 . S
C718 C714 1.391 . S
C718 C717 1.371 . S
C718 H725 0.930 . S
H719 C716 0.928 . S
H720 C717 0.931 . S
H721 C697 0.930 . S
H722 C694 0.930 . S
H723 C703 0.930 . S
H724 C715 0.929 . S
H725 C718 0.930 . S
C726 C727 1.351 . S
C726 N729 1.368 . S
C726 H731 0.931 . S
C727 C726 1.351 . S
C727 N728 1.373 . S
C727 H755 0.930 . S
N728 C727 1.373 . S
N728 C730 1.340 . S
N729 C726 1.368 . S
N729 C730 1.321 . S
N729 Co732 2.135 . S
C730 N728 1.340 . S
C730 N729 1.321 . S
C730 H754 0.930 . S
H731 C726 0.931 . S
Co732 N729 2.135 . S
Co732 N735 2.159 . S
Co732 O740 2.055 . S
Co732 O743 2.039 . S
Co732 N746 2.140 . S
C733 O734 1.227 . S
C733 O743 1.265 1_655 S
O734 C733 1.227 . S
N735 Co732 2.159 . S
N735 C737 1.328 1_455 S
N735 C738 1.317 . S
C736 C737 1.338 . S
C736 N739 1.377 . S
C736 H756 0.930 . S
C737 N735 1.328 1_655 S
C737 C736 1.338 . S
C737 H741 0.931 . S
C738 N735 1.317 . S
C738 N739 1.344 1_455 S
C738 H742 0.930 . S
N739 C736 1.377 . S
N739 C738 1.344 1_655 S
O740 Co732 2.055 . S
O740 C744 1.253 . S
H741 C737 0.931 . S
H742 C738 0.930 . S
O743 Co732 2.039 . S
O743 C733 1.265 1_455 S
C744 O740 1.253 . S
C744 O745 1.227 . S
O745 C744 1.227 . S
N746 Co732 2.140 . S
N746 C749 1.346 . S
N746 C750 1.345 . S
C747 C748 1.387 . S
C747 C751 1.391 . S
C748 C747 1.387 . S
C748 C749 1.369 . S
C748 H757 0.929 . S
C749 N746 1.346 . S
C749 C748 1.369 . S
C749 H752 0.928 . S
C750 N746 1.345 . S
C750 C751 1.371 . S
C750 H753 0.931 . S
C751 C747 1.391 . S
C751 C750 1.371 . S
C751 H758 0.930 . S
H752 C749 0.928 . S
H753 C750 0.931 . S
H754 C730 0.930 . S
H755 C727 0.930 . S
H756 C736 0.930 . S
H757 C748 0.929 . S
H758 C751 0.930 . S
C759 C760 1.351 . S
C759 N762 1.368 . S
C759 H764 0.931 . S
C760 C759 1.351 . S
C760 N761 1.373 . S
C760 H788 0.930 . S
N761 C760 1.373 . S
N761 C763 1.340 . S
N762 C759 1.368 . S
N762 C763 1.321 . S
N762 Co765 2.135 . S
C763 N761 1.340 . S
C763 N762 1.321 . S
C763 H787 0.930 . S
H764 C759 0.931 . S
Co765 N762 2.135 . S
Co765 N768 2.159 . S
Co765 O773 2.055 . S
Co765 O776 2.039 . S
Co765 N779 2.140 . S
C766 O767 1.227 . S
C766 O776 1.265 1_455 S
O767 C766 1.227 . S
N768 Co765 2.159 . S
N768 C770 1.328 1_655 S
N768 C771 1.317 . S
C769 C770 1.338 . S
C769 N772 1.377 . S
C769 H789 0.930 . S
C770 N768 1.328 1_455 S
C770 C769 1.338 . S
C770 H774 0.931 . S
C771 N768 1.317 . S
C771 N772 1.344 1_655 S
C771 H775 0.930 . S
N772 C769 1.377 . S
N772 C771 1.344 1_455 S
O773 Co765 2.055 . S
O773 C777 1.253 . S
H774 C770 0.931 . S
H775 C771 0.930 . S
O776 Co765 2.039 . S
O776 C766 1.265 1_655 S
C777 O773 1.253 . S
C777 O778 1.227 . S
O778 C777 1.227 . S
N779 Co765 2.140 . S
N779 C782 1.346 . S
N779 C783 1.345 . S
C780 C781 1.387 . S
C780 C784 1.391 . S
C781 C780 1.387 . S
C781 C782 1.369 . S
C781 H790 0.929 . S
C782 N779 1.346 . S
C782 C781 1.369 . S
C782 H785 0.928 . S
C783 N779 1.345 . S
C783 C784 1.371 . S
C783 H786 0.931 . S
C784 C780 1.391 . S
C784 C783 1.371 . S
C784 H791 0.930 . S
H785 C782 0.928 . S
H786 C783 0.931 . S
H787 C763 0.930 . S
H788 C760 0.930 . S
H789 C769 0.930 . S
H790 C781 0.929 . S
H791 C784 0.930 . S
C792 C793 1.351 . S
C792 N795 1.368 . S
C792 H797 0.931 . S
C793 C792 1.351 . S
C793 N794 1.373 . S
C793 H821 0.930 . S
N794 C793 1.373 . S
N794 C796 1.340 . S
N795 C792 1.368 . S
N795 C796 1.321 . S
N795 Co798 2.135 . S
C796 N794 1.340 . S
C796 N795 1.321 . S
C796 H820 0.930 . S
H797 C792 0.931 . S
Co798 N795 2.135 . S
Co798 N801 2.121 . S
Co798 O806 2.055 . S
Co798 O809 2.039 . S
Co798 N812 2.140 . S
C799 O800 1.227 . S
C799 O809 1.265 . S
O800 C799 1.227 . S
N801 Co798 2.121 . S
N801 C803 1.375 . S
N801 C804 1.313 . S
C802 C803 1.338 . S
C802 N805 1.377 . S
C802 H822 0.930 . S
C803 N801 1.375 . S
C803 C802 1.338 . S
C803 H807 0.931 . S
C804 N801 1.313 . S
C804 N805 1.344 . S
C804 H808 0.930 . S
N805 C802 1.377 . S
N805 C804 1.344 . S
O806 Co798 2.055 . S
O806 C810 1.253 . S
H807 C803 0.931 . S
H808 C804 0.930 . S
O809 Co798 2.039 . S
O809 C799 1.265 . S
C810 O806 1.253 . S
C810 O811 1.227 . S
O811 C810 1.227 . S
N812 Co798 2.140 . S
N812 C815 1.346 . S
N812 C816 1.345 . S
C813 C814 1.387 . S
C813 C817 1.391 . S
C814 C813 1.387 . S
C814 C815 1.369 . S
C814 H823 0.929 . S
C815 N812 1.346 . S
C815 C814 1.369 . S
C815 H818 0.928 . S
C816 N812 1.345 . S
C816 C817 1.371 . S
C816 H819 0.931 . S
C817 C813 1.391 . S
C817 C816 1.371 . S
C817 H824 0.930 . S
H818 C815 0.928 . S
H819 C816 0.931 . S
H820 C796 0.930 . S
H821 C793 0.930 . S
H822 C802 0.930 . S
H823 C814 0.929 . S
H824 C817 0.930 . S
C825 C826 1.351 . S
C825 N828 1.368 . S
C825 H830 0.931 . S
C826 C825 1.351 . S
C826 N827 1.373 . S
C826 H854 0.930 . S
N827 C826 1.373 . S
N827 C829 1.340 . S
N828 C825 1.368 . S
N828 C829 1.321 . S
N828 Co831 2.135 . S
C829 N827 1.340 . S
C829 N828 1.321 . S
C829 H853 0.930 . S
H830 C825 0.931 . S
Co831 N828 2.135 . S
Co831 N834 2.121 . S
Co831 O839 2.055 . S
Co831 O842 2.039 . S
Co831 N845 2.140 . S
C832 O833 1.227 . S
C832 O842 1.265 . S
O833 C832 1.227 . S
N834 Co831 2.121 . S
N834 C836 1.375 . S
N834 C837 1.313 . S
C835 C836 1.338 . S
C835 N838 1.377 . S
C835 H855 0.930 . S
C836 N834 1.375 . S
C836 C835 1.338 . S
C836 H840 0.931 . S
C837 N834 1.313 . S
C837 N838 1.344 . S
C837 H841 0.930 . S
N838 C835 1.377 . S
N838 C837 1.344 . S
O839 Co831 2.055 . S
O839 C843 1.253 . S
H840 C836 0.931 . S
H841 C837 0.930 . S
O842 Co831 2.039 . S
O842 C832 1.265 . S
C843 O839 1.253 . S
C843 O844 1.227 . S
O844 C843 1.227 . S
N845 Co831 2.140 . S
N845 C848 1.346 . S
N845 C849 1.345 . S
C846 C847 1.387 . S
C846 C850 1.391 . S
C847 C846 1.387 . S
C847 C848 1.369 . S
C847 H856 0.929 . S
C848 N845 1.346 . S
C848 C847 1.369 . S
C848 H851 0.928 . S
C849 N845 1.345 . S
C849 C850 1.371 . S
C849 H852 0.931 . S
C850 C846 1.391 . S
C850 C849 1.371 . S
C850 H857 0.930 . S
H851 C848 0.928 . S
H852 C849 0.931 . S
H853 C829 0.930 . S
H854 C826 0.930 . S
H855 C835 0.930 . S
H856 C847 0.929 . S
H857 C850 0.930 . S
C858 C859 1.351 . S
C858 N861 1.368 . S
C858 H863 0.931 . S
C859 C858 1.351 . S
C859 N860 1.373 . S
C859 H887 0.930 . S
N860 C859 1.373 . S
N860 C862 1.340 . S
N861 C858 1.368 . S
N861 C862 1.321 . S
N861 Co864 2.135 . S
C862 N860 1.340 . S
C862 N861 1.321 . S
C862 H886 0.930 . S
H863 C858 0.931 . S
Co864 N861 2.135 . S
Co864 N867 2.121 . S
Co864 O872 2.055 . S
Co864 O875 2.039 . S
Co864 N878 2.140 . S
C865 O866 1.227 . S
C865 O875 1.265 . S
O866 C865 1.227 . S
N867 Co864 2.121 . S
N867 C869 1.375 . S
N867 C870 1.313 . S
C868 C869 1.338 . S
C868 N871 1.377 . S
C868 H888 0.930 . S
C869 N867 1.375 . S
C869 C868 1.338 . S
C869 H873 0.931 . S
C870 N867 1.313 . S
C870 N871 1.344 . S
C870 H874 0.930 . S
N871 C868 1.377 . S
N871 C870 1.344 . S
O872 Co864 2.055 . S
O872 C876 1.253 . S
H873 C869 0.931 . S
H874 C870 0.930 . S
O875 Co864 2.039 . S
O875 C865 1.265 . S
C876 O872 1.253 . S
C876 O877 1.227 . S
O877 C876 1.227 . S
N878 Co864 2.140 . S
N878 C881 1.346 . S
N878 C882 1.345 . S
C879 C880 1.387 . S
C879 C883 1.391 . S
C880 C879 1.387 . S
C880 C881 1.369 . S
C880 H889 0.929 . S
C881 N878 1.346 . S
C881 C880 1.369 . S
C881 H884 0.928 . S
C882 N878 1.345 . S
C882 C883 1.371 . S
C882 H885 0.931 . S
C883 C879 1.391 . S
C883 C882 1.371 . S
C883 H890 0.930 . S
H884 C881 0.928 . S
H885 C882 0.931 . S
H886 C862 0.930 . S
H887 C859 0.930 . S
H888 C868 0.930 . S
H889 C880 0.929 . S
H890 C883 0.930 . S
C891 C892 1.351 . S
C891 N894 1.368 . S
C891 H896 0.931 . S
C892 C891 1.351 . S
C892 N893 1.373 . S
C892 H920 0.930 . S
N893 C892 1.373 . S
N893 C895 1.340 . S
N894 C891 1.368 . S
N894 C895 1.321 . S
N894 Co897 2.135 . S
C895 N893 1.340 . S
C895 N894 1.321 . S
C895 H919 0.930 . S
H896 C891 0.931 . S
Co897 N894 2.135 . S
Co897 N900 2.121 . S
Co897 O905 2.055 . S
Co897 O908 2.039 . S
Co897 N911 2.140 . S
C898 O899 1.227 . S
C898 O908 1.265 . S
O899 C898 1.227 . S
N900 Co897 2.121 . S
N900 C902 1.375 . S
N900 C903 1.313 . S
C901 C902 1.338 . S
C901 N904 1.377 . S
C901 H921 0.930 . S
C902 N900 1.375 . S
C902 C901 1.338 . S
C902 H906 0.931 . S
C903 N900 1.313 . S
C903 N904 1.344 . S
C903 H907 0.930 . S
N904 C901 1.377 . S
N904 C903 1.344 . S
O905 Co897 2.055 . S
O905 C909 1.253 . S
H906 C902 0.931 . S
H907 C903 0.930 . S
O908 Co897 2.039 . S
O908 C898 1.265 . S
C909 O905 1.253 . S
C909 O910 1.227 . S
O910 C909 1.227 . S
N911 Co897 2.140 . S
N911 C914 1.346 . S
N911 C915 1.345 . S
C912 C913 1.387 . S
C912 C916 1.391 . S
C913 C912 1.387 . S
C913 C914 1.369 . S
C913 H922 0.929 . S
C914 N911 1.346 . S
C914 C913 1.369 . S
C914 H917 0.928 . S
C915 N911 1.345 . S
C915 C916 1.371 . S
C915 H918 0.931 . S
C916 C912 1.391 . S
C916 C915 1.371 . S
C916 H923 0.930 . S
H917 C914 0.928 . S
H918 C915 0.931 . S
H919 C895 0.930 . S
H920 C892 0.930 . S
H921 C901 0.930 . S
H922 C913 0.929 . S
H923 C916 0.930 . S
C924 C925 1.351 . S
C924 N927 1.368 . S
C924 H929 0.931 . S
C925 C924 1.351 . S
C925 N926 1.373 . S
C925 H953 0.930 . S
N926 C925 1.373 . S
N926 C928 1.340 . S
N927 C924 1.368 . S
N927 C928 1.321 . S
N927 Co930 2.135 . S
C928 N926 1.340 . S
C928 N927 1.321 . S
C928 H952 0.930 . S
H929 C924 0.931 . S
Co930 N927 2.135 . S
Co930 N933 2.121 . S
Co930 O938 2.055 . S
Co930 O941 2.039 . S
Co930 N944 2.140 . S
C931 O932 1.227 . S
C931 O941 1.265 . S
O932 C931 1.227 . S
N933 Co930 2.121 . S
N933 C935 1.375 . S
N933 C936 1.313 . S
C934 C935 1.338 . S
C934 N937 1.377 . S
C934 H954 0.930 . S
C935 N933 1.375 . S
C935 C934 1.338 . S
C935 H939 0.931 . S
C936 N933 1.313 . S
C936 N937 1.344 . S
C936 H940 0.930 . S
N937 C934 1.377 . S
N937 C936 1.344 . S
O938 Co930 2.055 . S
O938 C942 1.253 . S
H939 C935 0.931 . S
H940 C936 0.930 . S
O941 Co930 2.039 . S
O941 C931 1.265 . S
C942 O938 1.253 . S
C942 O943 1.227 . S
O943 C942 1.227 . S
N944 Co930 2.140 . S
N944 C947 1.346 . S
N944 C948 1.345 . S
C945 C946 1.387 . S
C945 C949 1.391 . S
C946 C945 1.387 . S
C946 C947 1.369 . S
C946 H955 0.929 . S
C947 N944 1.346 . S
C947 C946 1.369 . S
C947 H950 0.928 . S
C948 N944 1.345 . S
C948 C949 1.371 . S
C948 H951 0.931 . S
C949 C945 1.391 . S
C949 C948 1.371 . S
C949 H956 0.930 . S
H950 C947 0.928 . S
H951 C948 0.931 . S
H952 C928 0.930 . S
H953 C925 0.930 . S
H954 C934 0.930 . S
H955 C946 0.929 . S
H956 C949 0.930 . S
C957 C958 1.351 . S
C957 N960 1.368 . S
C957 H962 0.931 . S
C958 C957 1.351 . S
C958 N959 1.373 . S
C958 H986 0.930 . S
N959 C958 1.373 . S
N959 C961 1.340 . S
N960 C957 1.368 . S
N960 C961 1.321 . S
N960 Co963 2.135 . S
C961 N959 1.340 . S
C961 N960 1.321 . S
C961 H985 0.930 . S
H962 C957 0.931 . S
Co963 N960 2.135 . S
Co963 N966 2.121 . S
Co963 O971 2.055 . S
Co963 O974 2.039 . S
Co963 N977 2.140 . S
C964 O965 1.227 . S
C964 O974 1.265 . S
O965 C964 1.227 . S
N966 Co963 2.121 . S
N966 C968 1.375 . S
N966 C969 1.313 . S
C967 C968 1.338 . S
C967 N970 1.377 . S
C967 H987 0.930 . S
C968 N966 1.375 . S
C968 C967 1.338 . S
C968 H972 0.931 . S
C969 N966 1.313 . S
C969 N970 1.344 . S
C969 H973 0.930 . S
N970 C967 1.377 . S
N970 C969 1.344 . S
O971 Co963 2.055 . S
O971 C975 1.253 . S
H972 C968 0.931 . S
H973 C969 0.930 . S
O974 Co963 2.039 . S
O974 C964 1.265 . S
C975 O971 1.253 . S
C975 O976 1.227 . S
O976 C975 1.227 . S
N977 Co963 2.140 . S
N977 C980 1.346 . S
N977 C981 1.345 . S
C978 C979 1.387 . S
C978 C982 1.391 . S
C979 C978 1.387 . S
C979 C980 1.369 . S
C979 H988 0.929 . S
C980 N977 1.346 . S
C980 C979 1.369 . S
C980 H983 0.928 . S
C981 N977 1.345 . S
C981 C982 1.371 . S
C981 H984 0.931 . S
C982 C978 1.391 . S
C982 C981 1.371 . S
C982 H989 0.930 . S
H983 C980 0.928 . S
H984 C981 0.931 . S
H985 C961 0.930 . S
H986 C958 0.930 . S
H987 C967 0.930 . S
H988 C979 0.929 . S
H989 C982 0.930 . S
C990 C991 1.351 . S
C990 N993 1.368 . S
C990 H995 0.931 . S
C991 C990 1.351 . S
C991 N992 1.373 . S
C991 H1019 0.930 . S
N992 C991 1.373 . S
N992 C994 1.340 . S
N993 C990 1.368 . S
N993 C994 1.321 . S
N993 Co996 2.135 . S
C994 N992 1.340 . S
C994 N993 1.321 . S
C994 H1018 0.930 . S
H995 C990 0.931 . S
Co996 N993 2.135 . S
Co996 N999 2.121 . S
Co996 O1004 2.055 . S
Co996 O1007 2.039 . S
Co996 N1010 2.140 . S
C997 O998 1.227 . S
C997 O1007 1.265 . S
O998 C997 1.227 . S
N999 Co996 2.121 . S
N999 C1001 1.375 . S
N999 C1002 1.313 . S
C1000 C1001 1.338 . S
C1000 N1003 1.377 . S
C1000 H1020 0.930 . S
C1001 N999 1.375 . S
C1001 C1000 1.338 . S
C1001 H1005 0.931 . S
C1002 N999 1.313 . S
C1002 N1003 1.344 . S
C1002 H1006 0.930 . S
N1003 C1000 1.377 . S
N1003 C1002 1.344 . S
O1004 Co996 2.055 . S
O1004 C1008 1.253 . S
H1005 C1001 0.931 . S
H1006 C1002 0.930 . S
O1007 Co996 2.039 . S
O1007 C997 1.265 . S
C1008 O1004 1.253 . S
C1008 O1009 1.227 . S
O1009 C1008 1.227 . S
N1010 Co996 2.140 . S
N1010 C1013 1.346 . S
N1010 C1014 1.345 . S
C1011 C1012 1.387 . S
C1011 C1015 1.391 . S
C1012 C1011 1.387 . S
C1012 C1013 1.369 . S
C1012 H1021 0.929 . S
C1013 N1010 1.346 . S
C1013 C1012 1.369 . S
C1013 H1016 0.928 . S
C1014 N1010 1.345 . S
C1014 C1015 1.371 . S
C1014 H1017 0.931 . S
C1015 C1011 1.391 . S
C1015 C1014 1.371 . S
C1015 H1022 0.930 . S
H1016 C1013 0.928 . S
H1017 C1014 0.931 . S
H1018 C994 0.930 . S
H1019 C991 0.930 . S
H1020 C1000 0.930 . S
H1021 C1012 0.929 . S
H1022 C1015 0.930 . S
C1023 C1024 1.351 . S
C1023 N1026 1.368 . S
C1023 H1028 0.931 . S
C1024 C1023 1.351 . S
C1024 N1025 1.373 . S
C1024 H1052 0.930 . S
N1025 C1024 1.373 . S
N1025 C1027 1.340 . S
N1026 C1023 1.368 . S
N1026 C1027 1.321 . S
N1026 Co1029 2.135 . S
C1027 N1025 1.340 . S
C1027 N1026 1.321 . S
C1027 H1051 0.930 . S
H1028 C1023 0.931 . S
Co1029 N1026 2.135 . S
Co1029 N1032 2.121 . S
Co1029 O1037 2.055 . S
Co1029 O1040 2.039 . S
Co1029 N1043 2.140 . S
C1030 O1031 1.227 . S
C1030 O1040 1.265 . S
O1031 C1030 1.227 . S
N1032 Co1029 2.121 . S
N1032 C1034 1.375 . S
N1032 C1035 1.313 . S
C1033 C1034 1.338 . S
C1033 N1036 1.377 . S
C1033 H1053 0.930 . S
C1034 N1032 1.375 . S
C1034 C1033 1.338 . S
C1034 H1038 0.931 . S
C1035 N1032 1.313 . S
C1035 N1036 1.344 . S
C1035 H1039 0.930 . S
N1036 C1033 1.377 . S
N1036 C1035 1.344 . S
O1037 Co1029 2.055 . S
O1037 C1041 1.253 . S
H1038 C1034 0.931 . S
H1039 C1035 0.930 . S
O1040 Co1029 2.039 . S
O1040 C1030 1.265 . S
C1041 O1037 1.253 . S
C1041 O1042 1.227 . S
O1042 C1041 1.227 . S
N1043 Co1029 2.140 . S
N1043 C1046 1.346 . S
N1043 C1047 1.345 . S
C1044 C1045 1.387 . S
C1044 C1048 1.391 . S
C1045 C1044 1.387 . S
C1045 C1046 1.369 . S
C1045 H1054 0.929 . S
C1046 N1043 1.346 . S
C1046 C1045 1.369 . S
C1046 H1049 0.928 . S
C1047 N1043 1.345 . S
C1047 C1048 1.371 . S
C1047 H1050 0.931 . S
C1048 C1044 1.391 . S
C1048 C1047 1.371 . S
C1048 H1055 0.930 . S
H1049 C1046 0.928 . S
H1050 C1047 0.931 . S
H1051 C1027 0.930 . S
H1052 C1024 0.930 . S
H1053 C1033 0.930 . S
H1054 C1045 0.929 . S
H1055 C1048 0.930 . S
C1056 C1057 1.351 . S
C1056 N1059 1.368 . S
C1056 H1061 0.931 . S
C1057 C1056 1.351 . S
C1057 N1058 1.373 . S
C1057 H1085 0.930 . S
N1058 C1057 1.373 . S
N1058 C1060 1.340 . S
N1059 C1056 1.368 . S
N1059 C1060 1.321 . S
N1059 Co1062 2.135 . S
C1060 N1058 1.340 . S
C1060 N1059 1.321 . S
C1060 H1084 0.930 . S
H1061 C1056 0.931 . S
Co1062 N1059 2.135 . S
Co1062 N1065 2.121 . S
Co1062 O1070 2.055 . S
Co1062 O1073 2.039 . S
Co1062 N1076 2.140 . S
C1063 O1064 1.227 . S
C1063 O1073 1.265 . S
O1064 C1063 1.227 . S
N1065 Co1062 2.121 . S
N1065 C1067 1.375 . S
N1065 C1068 1.313 . S
C1066 C1067 1.338 . S
C1066 N1069 1.377 . S
C1066 H1086 0.930 . S
C1067 N1065 1.375 . S
C1067 C1066 1.338 . S
C1067 H1071 0.931 . S
C1068 N1065 1.313 . S
C1068 N1069 1.344 . S
C1068 H1072 0.930 . S
N1069 C1066 1.377 . S
N1069 C1068 1.344 . S
O1070 Co1062 2.055 . S
O1070 C1074 1.253 . S
H1071 C1067 0.931 . S
H1072 C1068 0.930 . S
O1073 Co1062 2.039 . S
O1073 C1063 1.265 . S
C1074 O1070 1.253 . S
C1074 O1075 1.227 . S
O1075 C1074 1.227 . S
N1076 Co1062 2.140 . S
N1076 C1079 1.346 . S
N1076 C1080 1.345 . S
C1077 C1078 1.387 . S
C1077 C1081 1.391 . S
C1078 C1077 1.387 . S
C1078 C1079 1.369 . S
C1078 H1087 0.929 . S
C1079 N1076 1.346 . S
C1079 C1078 1.369 . S
C1079 H1082 0.928 . S
C1080 N1076 1.345 . S
C1080 C1081 1.371 . S
C1080 H1083 0.931 . S
C1081 C1077 1.391 . S
C1081 C1080 1.371 . S
C1081 H1088 0.930 . S
H1082 C1079 0.928 . S
H1083 C1080 0.931 . S
H1084 C1060 0.930 . S
H1085 C1057 0.930 . S
H1086 C1066 0.930 . S
H1087 C1078 0.929 . S
H1088 C1081 0.930 . S
C1089 C1090 1.351 . S
C1089 N1092 1.368 . S
C1089 H1094 0.931 . S
C1090 C1089 1.351 . S
C1090 N1091 1.373 . S
C1090 H1118 0.930 . S
N1091 C1090 1.373 . S
N1091 C1093 1.340 . S
N1092 C1089 1.368 . S
N1092 C1093 1.321 . S
N1092 Co1095 2.135 . S
C1093 N1091 1.340 . S
C1093 N1092 1.321 . S
C1093 H1117 0.930 . S
H1094 C1089 0.931 . S
Co1095 N1092 2.135 . S
Co1095 N1098 2.159 . S
Co1095 O1103 2.055 . S
Co1095 O1106 2.039 . S
Co1095 N1109 2.140 . S
C1096 O1097 1.227 . S
C1096 O1106 1.265 1_565 S
O1097 C1096 1.227 . S
N1098 Co1095 2.159 . S
N1098 C1100 1.328 1_545 S
N1098 C1101 1.317 . S
C1099 C1100 1.338 . S
C1099 N1102 1.377 . S
C1099 H1119 0.930 . S
C1100 N1098 1.328 1_565 S
C1100 C1099 1.338 . S
C1100 H1104 0.931 . S
C1101 N1098 1.317 . S
C1101 N1102 1.344 1_545 S
C1101 H1105 0.930 . S
N1102 C1099 1.377 . S
N1102 C1101 1.344 1_565 S
O1103 Co1095 2.055 . S
O1103 C1107 1.253 . S
H1104 C1100 0.931 . S
H1105 C1101 0.930 . S
O1106 Co1095 2.039 . S
O1106 C1096 1.265 1_545 S
C1107 O1103 1.253 . S
C1107 O1108 1.227 . S
O1108 C1107 1.227 . S
N1109 Co1095 2.140 . S
N1109 C1112 1.346 . S
N1109 C1113 1.345 . S
C1110 C1111 1.387 . S
C1110 C1114 1.391 . S
C1111 C1110 1.387 . S
C1111 C1112 1.369 . S
C1111 H1120 0.929 . S
C1112 N1109 1.346 . S
C1112 C1111 1.369 . S
C1112 H1115 0.928 . S
C1113 N1109 1.345 . S
C1113 C1114 1.371 . S
C1113 H1116 0.931 . S
C1114 C1110 1.391 . S
C1114 C1113 1.371 . S
C1114 H1121 0.930 . S
H1115 C1112 0.928 . S
H1116 C1113 0.931 . S
H1117 C1093 0.930 . S
H1118 C1090 0.930 . S
H1119 C1099 0.930 . S
H1120 C1111 0.929 . S
H1121 C1114 0.930 . S
C1122 C1123 1.351 . S
C1122 N1125 1.368 . S
C1122 H1127 0.931 . S
C1123 C1122 1.351 . S
C1123 N1124 1.373 . S
C1123 H1151 0.930 . S
N1124 C1123 1.373 . S
N1124 C1126 1.340 . S
N1125 C1122 1.368 . S
N1125 C1126 1.321 . S
N1125 Co1128 2.135 . S
C1126 N1124 1.340 . S
C1126 N1125 1.321 . S
C1126 H1150 0.930 . S
H1127 C1122 0.931 . S
Co1128 N1125 2.135 . S
Co1128 N1131 2.121 . S
Co1128 O1136 2.055 . S
Co1128 O1139 2.039 . S
Co1128 N1142 2.140 . S
C1129 O1130 1.227 . S
C1129 O1139 1.265 . S
O1130 C1129 1.227 . S
N1131 Co1128 2.121 . S
N1131 C1133 1.375 . S
N1131 C1134 1.313 . S
C1132 C1133 1.338 . S
C1132 N1135 1.377 . S
C1132 H1152 0.930 . S
C1133 N1131 1.375 . S
C1133 C1132 1.338 . S
C1133 H1137 0.931 . S
C1134 N1131 1.313 . S
C1134 N1135 1.344 . S
C1134 H1138 0.930 . S
N1135 C1132 1.377 . S
N1135 C1134 1.344 . S
O1136 Co1128 2.055 . S
O1136 C1140 1.253 . S
H1137 C1133 0.931 . S
H1138 C1134 0.930 . S
O1139 Co1128 2.039 . S
O1139 C1129 1.265 . S
C1140 O1136 1.253 . S
C1140 O1141 1.227 . S
O1141 C1140 1.227 . S
N1142 Co1128 2.140 . S
N1142 C1145 1.346 . S
N1142 C1146 1.345 . S
C1143 C1144 1.387 . S
C1143 C1147 1.391 . S
C1144 C1143 1.387 . S
C1144 C1145 1.369 . S
C1144 H1153 0.929 . S
C1145 N1142 1.346 . S
C1145 C1144 1.369 . S
C1145 H1148 0.928 . S
C1146 N1142 1.345 . S
C1146 C1147 1.371 . S
C1146 H1149 0.931 . S
C1147 C1143 1.391 . S
C1147 C1146 1.371 . S
C1147 H1154 0.930 . S
H1148 C1145 0.928 . S
H1149 C1146 0.931 . S
H1150 C1126 0.930 . S
H1151 C1123 0.930 . S
H1152 C1132 0.930 . S
H1153 C1144 0.929 . S
H1154 C1147 0.930 . S
C1155 C1156 1.351 . S
C1155 N1158 1.368 . S
C1155 H1160 0.931 . S
C1156 C1155 1.351 . S
C1156 N1157 1.373 . S
C1156 H1184 0.930 . S
N1157 C1156 1.373 . S
N1157 C1159 1.340 . S
N1158 C1155 1.368 . S
N1158 C1159 1.321 . S
N1158 Co1161 2.135 . S
C1159 N1157 1.340 . S
C1159 N1158 1.321 . S
C1159 H1183 0.930 . S
H1160 C1155 0.931 . S
Co1161 N1158 2.135 . S
Co1161 N1164 2.121 . S
Co1161 O1169 2.055 . S
Co1161 O1172 2.039 . S
Co1161 N1175 2.140 . S
C1162 O1163 1.227 . S
C1162 O1172 1.265 . S
O1163 C1162 1.227 . S
N1164 Co1161 2.121 . S
N1164 C1166 1.375 . S
N1164 C1167 1.313 . S
C1165 C1166 1.338 . S
C1165 N1168 1.377 . S
C1165 H1185 0.930 . S
C1166 N1164 1.375 . S
C1166 C1165 1.338 . S
C1166 H1170 0.931 . S
C1167 N1164 1.313 . S
C1167 N1168 1.344 . S
C1167 H1171 0.930 . S
N1168 C1165 1.377 . S
N1168 C1167 1.344 . S
O1169 Co1161 2.055 . S
O1169 C1173 1.253 . S
H1170 C1166 0.931 . S
H1171 C1167 0.930 . S
O1172 Co1161 2.039 . S
O1172 C1162 1.265 . S
C1173 O1169 1.253 . S
C1173 O1174 1.227 . S
O1174 C1173 1.227 . S
N1175 Co1161 2.140 . S
N1175 C1178 1.346 . S
N1175 C1179 1.345 . S
C1176 C1177 1.387 . S
C1176 C1180 1.391 . S
C1177 C1176 1.387 . S
C1177 C1178 1.369 . S
C1177 H1186 0.929 . S
C1178 N1175 1.346 . S
C1178 C1177 1.369 . S
C1178 H1181 0.928 . S
C1179 N1175 1.345 . S
C1179 C1180 1.371 . S
C1179 H1182 0.931 . S
C1180 C1176 1.391 . S
C1180 C1179 1.371 . S
C1180 H1187 0.930 . S
H1181 C1178 0.928 . S
H1182 C1179 0.931 . S
H1183 C1159 0.930 . S
H1184 C1156 0.930 . S
H1185 C1165 0.930 . S
H1186 C1177 0.929 . S
H1187 C1180 0.930 . S
C1188 C1189 1.351 . S
C1188 N1191 1.368 . S
C1188 H1193 0.931 . S
C1189 C1188 1.351 . S
C1189 N1190 1.373 . S
C1189 H1217 0.930 . S
N1190 C1189 1.373 . S
N1190 C1192 1.340 . S
N1191 C1188 1.368 . S
N1191 C1192 1.321 . S
N1191 Co1194 2.135 . S
C1192 N1190 1.340 . S
C1192 N1191 1.321 . S
C1192 H1216 0.930 . S
H1193 C1188 0.931 . S
Co1194 N1191 2.135 . S
Co1194 N1197 2.121 . S
Co1194 O1202 2.055 . S
Co1194 O1205 2.039 . S
Co1194 N1208 2.140 . S
C1195 O1196 1.227 . S
C1195 O1205 1.265 . S
O1196 C1195 1.227 . S
N1197 Co1194 2.121 . S
N1197 C1199 1.375 . S
N1197 C1200 1.313 . S
C1198 C1199 1.338 . S
C1198 N1201 1.377 . S
C1198 H1218 0.930 . S
C1199 N1197 1.375 . S
C1199 C1198 1.338 . S
C1199 H1203 0.931 . S
C1200 N1197 1.313 . S
C1200 N1201 1.344 . S
C1200 H1204 0.930 . S
N1201 C1198 1.377 . S
N1201 C1200 1.344 . S
O1202 Co1194 2.055 . S
O1202 C1206 1.253 . S
H1203 C1199 0.931 . S
H1204 C1200 0.930 . S
O1205 Co1194 2.039 . S
O1205 C1195 1.265 . S
C1206 O1202 1.253 . S
C1206 O1207 1.227 . S
O1207 C1206 1.227 . S
N1208 Co1194 2.140 . S
N1208 C1211 1.346 . S
N1208 C1212 1.345 . S
C1209 C1210 1.387 . S
C1209 C1213 1.391 . S
C1210 C1209 1.387 . S
C1210 C1211 1.369 . S
C1210 H1219 0.929 . S
C1211 N1208 1.346 . S
C1211 C1210 1.369 . S
C1211 H1214 0.928 . S
C1212 N1208 1.345 . S
C1212 C1213 1.371 . S
C1212 H1215 0.931 . S
C1213 C1209 1.391 . S
C1213 C1212 1.371 . S
C1213 H1220 0.930 . S
H1214 C1211 0.928 . S
H1215 C1212 0.931 . S
H1216 C1192 0.930 . S
H1217 C1189 0.930 . S
H1218 C1198 0.930 . S
H1219 C1210 0.929 . S
H1220 C1213 0.930 . S
C1221 C1222 1.351 . S
C1221 N1224 1.368 . S
C1221 H1226 0.931 . S
C1222 C1221 1.351 . S
C1222 N1223 1.373 . S
C1222 H1250 0.930 . S
N1223 C1222 1.373 . S
N1223 C1225 1.340 . S
N1224 C1221 1.368 . S
N1224 C1225 1.321 . S
N1224 Co1227 2.135 . S
C1225 N1223 1.340 . S
C1225 N1224 1.321 . S
C1225 H1249 0.930 . S
H1226 C1221 0.931 . S
Co1227 N1224 2.135 . S
Co1227 N1230 2.159 . S
Co1227 O1235 2.055 . S
Co1227 O1238 2.039 . S
Co1227 N1241 2.140 . S
C1228 O1229 1.227 . S
C1228 O1238 1.265 1_565 S
O1229 C1228 1.227 . S
N1230 Co1227 2.159 . S
N1230 C1232 1.328 1_545 S
N1230 C1233 1.317 . S
C1231 C1232 1.338 . S
C1231 N1234 1.377 . S
C1231 H1251 0.930 . S
C1232 N1230 1.328 1_565 S
C1232 C1231 1.338 . S
C1232 H1236 0.931 . S
C1233 N1230 1.317 . S
C1233 N1234 1.344 1_545 S
C1233 H1237 0.930 . S
N1234 C1231 1.377 . S
N1234 C1233 1.344 1_565 S
O1235 Co1227 2.055 . S
O1235 C1239 1.253 . S
H1236 C1232 0.931 . S
H1237 C1233 0.930 . S
O1238 Co1227 2.039 . S
O1238 C1228 1.265 1_545 S
C1239 O1235 1.253 . S
C1239 O1240 1.227 . S
O1240 C1239 1.227 . S
N1241 Co1227 2.140 . S
N1241 C1244 1.346 . S
N1241 C1245 1.345 . S
C1242 C1243 1.387 . S
C1242 C1246 1.391 . S
C1243 C1242 1.387 . S
C1243 C1244 1.369 . S
C1243 H1252 0.929 . S
C1244 N1241 1.346 . S
C1244 C1243 1.369 . S
C1244 H1247 0.928 . S
C1245 N1241 1.345 . S
C1245 C1246 1.371 . S
C1245 H1248 0.931 . S
C1246 C1242 1.391 . S
C1246 C1245 1.371 . S
C1246 H1253 0.930 . S
H1247 C1244 0.928 . S
H1248 C1245 0.931 . S
H1249 C1225 0.930 . S
H1250 C1222 0.930 . S
H1251 C1231 0.930 . S
H1252 C1243 0.929 . S
H1253 C1246 0.930 . S
C1254 C1255 1.351 . S
C1254 N1257 1.368 . S
C1254 H1259 0.931 . S
C1255 C1254 1.351 . S
C1255 N1256 1.373 . S
C1255 H1283 0.930 . S
N1256 C1255 1.373 . S
N1256 C1258 1.340 . S
N1257 C1254 1.368 . S
N1257 C1258 1.321 . S
N1257 Co1260 2.135 . S
C1258 N1256 1.340 . S
C1258 N1257 1.321 . S
C1258 H1282 0.930 . S
H1259 C1254 0.931 . S
Co1260 N1257 2.135 . S
Co1260 N1263 2.121 . S
Co1260 O1268 2.055 . S
Co1260 O1271 2.039 . S
Co1260 N1274 2.140 . S
C1261 O1262 1.227 . S
C1261 O1271 1.265 . S
O1262 C1261 1.227 . S
N1263 Co1260 2.121 . S
N1263 C1265 1.375 . S
N1263 C1266 1.313 . S
C1264 C1265 1.338 . S
C1264 N1267 1.377 . S
C1264 H1284 0.930 . S
C1265 N1263 1.375 . S
C1265 C1264 1.338 . S
C1265 H1269 0.931 . S
C1266 N1263 1.313 . S
C1266 N1267 1.344 . S
C1266 H1270 0.930 . S
N1267 C1264 1.377 . S
N1267 C1266 1.344 . S
O1268 Co1260 2.055 . S
O1268 C1272 1.253 . S
H1269 C1265 0.931 . S
H1270 C1266 0.930 . S
O1271 Co1260 2.039 . S
O1271 C1261 1.265 . S
C1272 O1268 1.253 . S
C1272 O1273 1.227 . S
O1273 C1272 1.227 . S
N1274 Co1260 2.140 . S
N1274 C1277 1.346 . S
N1274 C1278 1.345 . S
C1275 C1276 1.387 . S
C1275 C1279 1.391 . S
C1276 C1275 1.387 . S
C1276 C1277 1.369 . S
C1276 H1285 0.929 . S
C1277 N1274 1.346 . S
C1277 C1276 1.369 . S
C1277 H1280 0.928 . S
C1278 N1274 1.345 . S
C1278 C1279 1.371 . S
C1278 H1281 0.931 . S
C1279 C1275 1.391 . S
C1279 C1278 1.371 . S
C1279 H1286 0.930 . S
H1280 C1277 0.928 . S
H1281 C1278 0.931 . S
H1282 C1258 0.930 . S
H1283 C1255 0.930 . S
H1284 C1264 0.930 . S
H1285 C1276 0.929 . S
H1286 C1279 0.930 . S
C1287 C1288 1.351 . S
C1287 N1290 1.368 . S
C1287 H1292 0.931 . S
C1288 C1287 1.351 . S
C1288 N1289 1.373 . S
C1288 H1316 0.930 . S
N1289 C1288 1.373 . S
N1289 C1291 1.340 . S
N1290 C1287 1.368 . S
N1290 C1291 1.321 . S
N1290 Co1293 2.135 . S
C1291 N1289 1.340 . S
C1291 N1290 1.321 . S
C1291 H1315 0.930 . S
H1292 C1287 0.931 . S
Co1293 N1290 2.135 . S
Co1293 N1296 2.121 . S
Co1293 O1301 2.055 . S
Co1293 O1304 2.039 . S
Co1293 N1307 2.140 . S
C1294 O1295 1.227 . S
C1294 O1304 1.265 . S
O1295 C1294 1.227 . S
N1296 Co1293 2.121 . S
N1296 C1298 1.375 . S
N1296 C1299 1.313 . S
C1297 C1298 1.338 . S
C1297 N1300 1.377 . S
C1297 H1317 0.930 . S
C1298 N1296 1.375 . S
C1298 C1297 1.338 . S
C1298 H1302 0.931 . S
C1299 N1296 1.313 . S
C1299 N1300 1.344 . S
C1299 H1303 0.930 . S
N1300 C1297 1.377 . S
N1300 C1299 1.344 . S
O1301 Co1293 2.055 . S
O1301 C1305 1.253 . S
H1302 C1298 0.931 . S
H1303 C1299 0.930 . S
O1304 Co1293 2.039 . S
O1304 C1294 1.265 . S
C1305 O1301 1.253 . S
C1305 O1306 1.227 . S
O1306 C1305 1.227 . S
N1307 Co1293 2.140 . S
N1307 C1310 1.346 . S
N1307 C1311 1.345 . S
C1308 C1309 1.387 . S
C1308 C1312 1.391 . S
C1309 C1308 1.387 . S
C1309 C1310 1.369 . S
C1309 H1318 0.929 . S
C1310 N1307 1.346 . S
C1310 C1309 1.369 . S
C1310 H1313 0.928 . S
C1311 N1307 1.345 . S
C1311 C1312 1.371 . S
C1311 H1314 0.931 . S
C1312 C1308 1.391 . S
C1312 C1311 1.371 . S
C1312 H1319 0.930 . S
H1313 C1310 0.928 . S
H1314 C1311 0.931 . S
H1315 C1291 0.930 . S
H1316 C1288 0.930 . S
H1317 C1297 0.930 . S
H1318 C1309 0.929 . S
H1319 C1312 0.930 . S
C1320 C1321 1.351 . S
C1320 N1323 1.368 . S
C1320 H1325 0.931 . S
C1321 C1320 1.351 . S
C1321 N1322 1.373 . S
C1321 H1349 0.930 . S
N1322 C1321 1.373 . S
N1322 C1324 1.340 . S
N1323 C1320 1.368 . S
N1323 C1324 1.321 . S
N1323 Co1326 2.135 . S
C1324 N1322 1.340 . S
C1324 N1323 1.321 . S
C1324 H1348 0.930 . S
H1325 C1320 0.931 . S
Co1326 N1323 2.135 . S
Co1326 N1329 2.121 . S
Co1326 O1334 2.055 . S
Co1326 O1337 2.039 . S
Co1326 N1340 2.140 . S
C1327 O1328 1.227 . S
C1327 O1337 1.265 . S
O1328 C1327 1.227 . S
N1329 Co1326 2.121 . S
N1329 C1331 1.375 . S
N1329 C1332 1.313 . S
C1330 C1331 1.338 . S
C1330 N1333 1.377 . S
C1330 H1350 0.930 . S
C1331 N1329 1.375 . S
C1331 C1330 1.338 . S
C1331 H1335 0.931 . S
C1332 N1329 1.313 . S
C1332 N1333 1.344 . S
C1332 H1336 0.930 . S
N1333 C1330 1.377 . S
N1333 C1332 1.344 . S
O1334 Co1326 2.055 . S
O1334 C1338 1.253 . S
H1335 C1331 0.931 . S
H1336 C1332 0.930 . S
O1337 Co1326 2.039 . S
O1337 C1327 1.265 . S
C1338 O1334 1.253 . S
C1338 O1339 1.227 . S
O1339 C1338 1.227 . S
N1340 Co1326 2.140 . S
N1340 C1343 1.346 . S
N1340 C1344 1.345 . S
C1341 C1342 1.387 . S
C1341 C1345 1.391 . S
C1342 C1341 1.387 . S
C1342 C1343 1.369 . S
C1342 H1351 0.929 . S
C1343 N1340 1.346 . S
C1343 C1342 1.369 . S
C1343 H1346 0.928 . S
C1344 N1340 1.345 . S
C1344 C1345 1.371 . S
C1344 H1347 0.931 . S
C1345 C1341 1.391 . S
C1345 C1344 1.371 . S
C1345 H1352 0.930 . S
H1346 C1343 0.928 . S
H1347 C1344 0.931 . S
H1348 C1324 0.930 . S
H1349 C1321 0.930 . S
H1350 C1330 0.930 . S
H1351 C1342 0.929 . S
H1352 C1345 0.930 . S
C1353 C1354 1.351 . S
C1353 N1356 1.368 . S
C1353 H1358 0.931 . S
C1354 C1353 1.351 . S
C1354 N1355 1.373 . S
C1354 H1382 0.930 . S
N1355 C1354 1.373 . S
N1355 C1357 1.340 . S
N1356 C1353 1.368 . S
N1356 C1357 1.321 . S
N1356 Co1359 2.135 . S
C1357 N1355 1.340 . S
C1357 N1356 1.321 . S
C1357 H1381 0.930 . S
H1358 C1353 0.931 . S
Co1359 N1356 2.135 . S
Co1359 N1362 2.121 . S
Co1359 O1367 2.055 . S
Co1359 O1370 2.039 . S
Co1359 N1373 2.140 . S
C1360 O1361 1.227 . S
C1360 O1370 1.265 . S
O1361 C1360 1.227 . S
N1362 Co1359 2.121 . S
N1362 C1364 1.375 . S
N1362 C1365 1.313 . S
C1363 C1364 1.338 . S
C1363 N1366 1.377 . S
C1363 H1383 0.930 . S
C1364 N1362 1.375 . S
C1364 C1363 1.338 . S
C1364 H1368 0.931 . S
C1365 N1362 1.313 . S
C1365 N1366 1.344 . S
C1365 H1369 0.930 . S
N1366 C1363 1.377 . S
N1366 C1365 1.344 . S
O1367 Co1359 2.055 . S
O1367 C1371 1.253 . S
H1368 C1364 0.931 . S
H1369 C1365 0.930 . S
O1370 Co1359 2.039 . S
O1370 C1360 1.265 . S
C1371 O1367 1.253 . S
C1371 O1372 1.227 . S
O1372 C1371 1.227 . S
N1373 Co1359 2.140 . S
N1373 C1376 1.346 . S
N1373 C1377 1.345 . S
C1374 C1375 1.387 . S
C1374 C1378 1.391 . S
C1375 C1374 1.387 . S
C1375 C1376 1.369 . S
C1375 H1384 0.929 . S
C1376 N1373 1.346 . S
C1376 C1375 1.369 . S
C1376 H1379 0.928 . S
C1377 N1373 1.345 . S
C1377 C1378 1.371 . S
C1377 H1380 0.931 . S
C1378 C1374 1.391 . S
C1378 C1377 1.371 . S
C1378 H1385 0.930 . S
H1379 C1376 0.928 . S
H1380 C1377 0.931 . S
H1381 C1357 0.930 . S
H1382 C1354 0.930 . S
H1383 C1363 0.930 . S
H1384 C1375 0.929 . S
H1385 C1378 0.930 . S
C1386 C1387 1.351 . S
C1386 N1389 1.368 . S
C1386 H1391 0.931 . S
C1387 C1386 1.351 . S
C1387 N1388 1.373 . S
C1387 H1415 0.930 . S
N1388 C1387 1.373 . S
N1388 C1390 1.340 . S
N1389 C1386 1.368 . S
N1389 C1390 1.321 . S
N1389 Co1392 2.135 . S
C1390 N1388 1.340 . S
C1390 N1389 1.321 . S
C1390 H1414 0.930 . S
H1391 C1386 0.931 . S
Co1392 N1389 2.135 . S
Co1392 N1395 2.121 . S
Co1392 O1400 2.055 . S
Co1392 O1403 2.039 . S
Co1392 N1406 2.140 . S
C1393 O1394 1.227 . S
C1393 O1403 1.265 . S
O1394 C1393 1.227 . S
N1395 Co1392 2.121 . S
N1395 C1397 1.375 . S
N1395 C1398 1.313 . S
C1396 C1397 1.338 . S
C1396 N1399 1.377 . S
C1396 H1416 0.930 . S
C1397 N1395 1.375 . S
C1397 C1396 1.338 . S
C1397 H1401 0.931 . S
C1398 N1395 1.313 . S
C1398 N1399 1.344 . S
C1398 H1402 0.930 . S
N1399 C1396 1.377 . S
N1399 C1398 1.344 . S
O1400 Co1392 2.055 . S
O1400 C1404 1.253 . S
H1401 C1397 0.931 . S
H1402 C1398 0.930 . S
O1403 Co1392 2.039 . S
O1403 C1393 1.265 . S
C1404 O1400 1.253 . S
C1404 O1405 1.227 . S
O1405 C1404 1.227 . S
N1406 Co1392 2.140 . S
N1406 C1409 1.346 . S
N1406 C1410 1.345 . S
C1407 C1408 1.387 . S
C1407 C1411 1.391 . S
C1408 C1407 1.387 . S
C1408 C1409 1.369 . S
C1408 H1417 0.929 . S
C1409 N1406 1.346 . S
C1409 C1408 1.369 . S
C1409 H1412 0.928 . S
C1410 N1406 1.345 . S
C1410 C1411 1.371 . S
C1410 H1413 0.931 . S
C1411 C1407 1.391 . S
C1411 C1410 1.371 . S
C1411 H1418 0.930 . S
H1412 C1409 0.928 . S
H1413 C1410 0.931 . S
H1414 C1390 0.930 . S
H1415 C1387 0.930 . S
H1416 C1396 0.930 . S
H1417 C1408 0.929 . S
H1418 C1411 0.930 . S
C1419 C1420 1.351 . S
C1419 N1422 1.368 . S
C1419 H1424 0.931 . S
C1420 C1419 1.351 . S
C1420 N1421 1.373 . S
C1420 H1448 0.930 . S
N1421 C1420 1.373 . S
N1421 C1423 1.340 . S
N1422 C1419 1.368 . S
N1422 C1423 1.321 . S
N1422 Co1425 2.135 . S
C1423 N1421 1.340 . S
C1423 N1422 1.321 . S
C1423 H1447 0.930 . S
H1424 C1419 0.931 . S
Co1425 N1422 2.135 . S
Co1425 N1428 2.121 . S
Co1425 O1433 2.055 . S
Co1425 O1436 2.039 . S
Co1425 N1439 2.140 . S
C1426 O1427 1.227 . S
C1426 O1436 1.265 . S
O1427 C1426 1.227 . S
N1428 Co1425 2.121 . S
N1428 C1430 1.375 . S
N1428 C1431 1.313 . S
C1429 C1430 1.338 . S
C1429 N1432 1.377 . S
C1429 H1449 0.930 . S
C1430 N1428 1.375 . S
C1430 C1429 1.338 . S
C1430 H1434 0.931 . S
C1431 N1428 1.313 . S
C1431 N1432 1.344 . S
C1431 H1435 0.930 . S
N1432 C1429 1.377 . S
N1432 C1431 1.344 . S
O1433 Co1425 2.055 . S
O1433 C1437 1.253 . S
H1434 C1430 0.931 . S
H1435 C1431 0.930 . S
O1436 Co1425 2.039 . S
O1436 C1426 1.265 . S
C1437 O1433 1.253 . S
C1437 O1438 1.227 . S
O1438 C1437 1.227 . S
N1439 Co1425 2.140 . S
N1439 C1442 1.346 . S
N1439 C1443 1.345 . S
C1440 C1441 1.387 . S
C1440 C1444 1.391 . S
C1441 C1440 1.387 . S
C1441 C1442 1.369 . S
C1441 H1450 0.929 . S
C1442 N1439 1.346 . S
C1442 C1441 1.369 . S
C1442 H1445 0.928 . S
C1443 N1439 1.345 . S
C1443 C1444 1.371 . S
C1443 H1446 0.931 . S
C1444 C1440 1.391 . S
C1444 C1443 1.371 . S
C1444 H1451 0.930 . S
H1445 C1442 0.928 . S
H1446 C1443 0.931 . S
H1447 C1423 0.930 . S
H1448 C1420 0.930 . S
H1449 C1429 0.930 . S
H1450 C1441 0.929 . S
H1451 C1444 0.930 . S
C1452 C1453 1.351 . S
C1452 N1455 1.368 . S
C1452 H1457 0.931 . S
C1453 C1452 1.351 . S
C1453 N1454 1.373 . S
C1453 H1481 0.930 . S
N1454 C1453 1.373 . S
N1454 C1456 1.340 . S
N1455 C1452 1.368 . S
N1455 C1456 1.321 . S
N1455 Co1458 2.135 . S
C1456 N1454 1.340 . S
C1456 N1455 1.321 . S
C1456 H1480 0.930 . S
H1457 C1452 0.931 . S
Co1458 N1455 2.135 . S
Co1458 N1461 2.159 . S
Co1458 O1466 2.055 . S
Co1458 O1469 2.039 . S
Co1458 N1472 2.140 . S
C1459 O1460 1.227 . S
C1459 O1469 1.265 1_455 S
O1460 C1459 1.227 . S
N1461 Co1458 2.159 . S
N1461 C1463 1.328 1_655 S
N1461 C1464 1.317 . S
C1462 C1463 1.338 . S
C1462 N1465 1.377 . S
C1462 H1482 0.930 . S
C1463 N1461 1.328 1_455 S
C1463 C1462 1.338 . S
C1463 H1467 0.931 . S
C1464 N1461 1.317 . S
C1464 N1465 1.344 1_655 S
C1464 H1468 0.930 . S
N1465 C1462 1.377 . S
N1465 C1464 1.344 1_455 S
O1466 Co1458 2.055 . S
O1466 C1470 1.253 . S
H1467 C1463 0.931 . S
H1468 C1464 0.930 . S
O1469 Co1458 2.039 . S
O1469 C1459 1.265 1_655 S
C1470 O1466 1.253 . S
C1470 O1471 1.227 . S
O1471 C1470 1.227 . S
N1472 Co1458 2.140 . S
N1472 C1475 1.346 . S
N1472 C1476 1.345 . S
C1473 C1474 1.387 . S
C1473 C1477 1.391 . S
C1474 C1473 1.387 . S
C1474 C1475 1.369 . S
C1474 H1483 0.929 . S
C1475 N1472 1.346 . S
C1475 C1474 1.369 . S
C1475 H1478 0.928 . S
C1476 N1472 1.345 . S
C1476 C1477 1.371 . S
C1476 H1479 0.931 . S
C1477 C1473 1.391 . S
C1477 C1476 1.371 . S
C1477 H1484 0.930 . S
H1478 C1475 0.928 . S
H1479 C1476 0.931 . S
H1480 C1456 0.930 . S
H1481 C1453 0.930 . S
H1482 C1462 0.930 . S
H1483 C1474 0.929 . S
H1484 C1477 0.930 . S
C1485 C1486 1.351 . S
C1485 N1488 1.368 . S
C1485 H1490 0.931 . S
C1486 C1485 1.351 . S
C1486 N1487 1.373 . S
C1486 H1514 0.930 . S
N1487 C1486 1.373 . S
N1487 C1489 1.340 . S
N1488 C1485 1.368 . S
N1488 C1489 1.321 . S
N1488 Co1491 2.135 . S
C1489 N1487 1.340 . S
C1489 N1488 1.321 . S
C1489 H1513 0.930 . S
H1490 C1485 0.931 . S
Co1491 N1488 2.135 . S
Co1491 N1494 2.121 . S
Co1491 O1499 2.055 . S
Co1491 O1502 2.039 . S
Co1491 N1505 2.140 . S
C1492 O1493 1.227 . S
C1492 O1502 1.265 . S
O1493 C1492 1.227 . S
N1494 Co1491 2.121 . S
N1494 C1496 1.375 . S
N1494 C1497 1.313 . S
C1495 C1496 1.338 . S
C1495 N1498 1.377 . S
C1495 H1515 0.930 . S
C1496 N1494 1.375 . S
C1496 C1495 1.338 . S
C1496 H1500 0.931 . S
C1497 N1494 1.313 . S
C1497 N1498 1.344 . S
C1497 H1501 0.930 . S
N1498 C1495 1.377 . S
N1498 C1497 1.344 . S
O1499 Co1491 2.055 . S
O1499 C1503 1.253 . S
H1500 C1496 0.931 . S
H1501 C1497 0.930 . S
O1502 Co1491 2.039 . S
O1502 C1492 1.265 . S
C1503 O1499 1.253 . S
C1503 O1504 1.227 . S
O1504 C1503 1.227 . S
N1505 Co1491 2.140 . S
N1505 C1508 1.346 . S
N1505 C1509 1.345 . S
C1506 C1507 1.387 . S
C1506 C1510 1.391 . S
C1507 C1506 1.387 . S
C1507 C1508 1.369 . S
C1507 H1516 0.929 . S
C1508 N1505 1.346 . S
C1508 C1507 1.369 . S
C1508 H1511 0.928 . S
C1509 N1505 1.345 . S
C1509 C1510 1.371 . S
C1509 H1512 0.931 . S
C1510 C1506 1.391 . S
C1510 C1509 1.371 . S
C1510 H1517 0.930 . S
H1511 C1508 0.928 . S
H1512 C1509 0.931 . S
H1513 C1489 0.930 . S
H1514 C1486 0.930 . S
H1515 C1495 0.930 . S
H1516 C1507 0.929 . S
H1517 C1510 0.930 . S
C1518 C1519 1.351 . S
C1518 N1521 1.368 . S
C1518 H1523 0.931 . S
C1519 C1518 1.351 . S
C1519 N1520 1.373 . S
C1519 H1547 0.930 . S
N1520 C1519 1.373 . S
N1520 C1522 1.340 . S
N1521 C1518 1.368 . S
N1521 C1522 1.321 . S
N1521 Co1524 2.135 . S
C1522 N1520 1.340 . S
C1522 N1521 1.321 . S
C1522 H1546 0.930 . S
H1523 C1518 0.931 . S
Co1524 N1521 2.135 . S
Co1524 N1527 2.121 . S
Co1524 O1532 2.055 . S
Co1524 O1535 2.039 . S
Co1524 N1538 2.140 . S
C1525 O1526 1.227 . S
C1525 O1535 1.265 . S
O1526 C1525 1.227 . S
N1527 Co1524 2.121 . S
N1527 C1529 1.375 . S
N1527 C1530 1.313 . S
C1528 C1529 1.338 . S
C1528 N1531 1.377 . S
C1528 H1548 0.930 . S
C1529 N1527 1.375 . S
C1529 C1528 1.338 . S
C1529 H1533 0.931 . S
C1530 N1527 1.313 . S
C1530 N1531 1.344 . S
C1530 H1534 0.930 . S
N1531 C1528 1.377 . S
N1531 C1530 1.344 . S
O1532 Co1524 2.055 . S
O1532 C1536 1.253 . S
H1533 C1529 0.931 . S
H1534 C1530 0.930 . S
O1535 Co1524 2.039 . S
O1535 C1525 1.265 . S
C1536 O1532 1.253 . S
C1536 O1537 1.227 . S
O1537 C1536 1.227 . S
N1538 Co1524 2.140 . S
N1538 C1541 1.346 . S
N1538 C1542 1.345 . S
C1539 C1540 1.387 . S
C1539 C1543 1.391 . S
C1540 C1539 1.387 . S
C1540 C1541 1.369 . S
C1540 H1549 0.929 . S
C1541 N1538 1.346 . S
C1541 C1540 1.369 . S
C1541 H1544 0.928 . S
C1542 N1538 1.345 . S
C1542 C1543 1.371 . S
C1542 H1545 0.931 . S
C1543 C1539 1.391 . S
C1543 C1542 1.371 . S
C1543 H1550 0.930 . S
H1544 C1541 0.928 . S
H1545 C1542 0.931 . S
H1546 C1522 0.930 . S
H1547 C1519 0.930 . S
H1548 C1528 0.930 . S
H1549 C1540 0.929 . S
H1550 C1543 0.930 . S
C1551 C1552 1.351 . S
C1551 N1554 1.368 . S
C1551 H1556 0.931 . S
C1552 C1551 1.351 . S
C1552 N1553 1.373 . S
C1552 H1580 0.930 . S
N1553 C1552 1.373 . S
N1553 C1555 1.340 . S
N1554 C1551 1.368 . S
N1554 C1555 1.321 . S
N1554 Co1557 2.135 . S
C1555 N1553 1.340 . S
C1555 N1554 1.321 . S
C1555 H1579 0.930 . S
H1556 C1551 0.931 . S
Co1557 N1554 2.135 . S
Co1557 N1560 2.121 . S
Co1557 O1565 2.055 . S
Co1557 O1568 2.039 . S
Co1557 N1571 2.140 . S
C1558 O1559 1.227 . S
C1558 O1568 1.265 . S
O1559 C1558 1.227 . S
N1560 Co1557 2.121 . S
N1560 C1562 1.375 . S
N1560 C1563 1.313 . S
C1561 C1562 1.338 . S
C1561 N1564 1.377 . S
C1561 H1581 0.930 . S
C1562 N1560 1.375 . S
C1562 C1561 1.338 . S
C1562 H1566 0.931 . S
C1563 N1560 1.313 . S
C1563 N1564 1.344 . S
C1563 H1567 0.930 . S
N1564 C1561 1.377 . S
N1564 C1563 1.344 . S
O1565 Co1557 2.055 . S
O1565 C1569 1.253 . S
H1566 C1562 0.931 . S
H1567 C1563 0.930 . S
O1568 Co1557 2.039 . S
O1568 C1558 1.265 . S
C1569 O1565 1.253 . S
C1569 O1570 1.227 . S
O1570 C1569 1.227 . S
N1571 Co1557 2.140 . S
N1571 C1574 1.346 . S
N1571 C1575 1.345 . S
C1572 C1573 1.387 . S
C1572 C1576 1.391 . S
C1573 C1572 1.387 . S
C1573 C1574 1.369 . S
C1573 H1582 0.929 . S
C1574 N1571 1.346 . S
C1574 C1573 1.369 . S
C1574 H1577 0.928 . S
C1575 N1571 1.345 . S
C1575 C1576 1.371 . S
C1575 H1578 0.931 . S
C1576 C1572 1.391 . S
C1576 C1575 1.371 . S
C1576 H1583 0.930 . S
H1577 C1574 0.928 . S
H1578 C1575 0.931 . S
H1579 C1555 0.930 . S
H1580 C1552 0.930 . S
H1581 C1561 0.930 . S
H1582 C1573 0.929 . S
H1583 C1576 0.930 . S
H1584 C1592 0.950 . S
H1585 C1597 0.950 . S
H1586 C1594 0.950 . S
H1587 C1596 0.950 . S
H1588 C1598 0.950 . S
H1589 C1600 0.950 . S
H1590 C1602 0.950 . S
H1591 C1603 0.950 . S
C1592 H1584 0.950 . S
C1592 C1593 1.386 . S
C1592 C1594 1.391 . S
C1593 C1592 1.386 . S
C1593 C1597 1.393 . S
C1594 H1586 0.950 . S
C1594 C1592 1.391 . S
C1594 C1595 1.400 . S
C1595 C1594 1.400 . S
C1595 C1596 1.398 . S
C1595 C1601 1.491 . S
C1596 H1587 0.950 . S
C1596 C1595 1.398 . S
C1596 C1597 1.391 . S
C1597 H1585 0.950 . S
C1597 C1593 1.393 . S
C1597 C1596 1.391 . S
C1598 H1588 0.950 . S
C1598 C1599 1.386 . S
C1598 C1600 1.391 . S
C1599 C1598 1.386 . S
C1599 C1603 1.393 . S
C1600 H1589 0.950 . S
C1600 C1598 1.391 . S
C1600 C1601 1.400 . S
C1601 C1595 1.491 . S
C1601 C1600 1.400 . S
C1601 C1602 1.398 . S
C1602 H1590 0.950 . S
C1602 C1601 1.398 . S
C1602 C1603 1.391 . S
C1603 H1591 0.950 . S
C1603 C1599 1.393 . S
C1603 C1602 1.391 . S
H1604 C1612 0.950 . S
H1605 C1617 0.950 . S
H1606 C1614 0.950 . S
H1607 C1616 0.950 . S
H1608 C1618 0.950 . S
H1609 C1620 0.950 . S
H1610 C1622 0.950 . S
H1611 C1623 0.950 . S
C1612 H1604 0.950 . S
C1612 C1613 1.386 . S
C1612 C1614 1.391 . S
C1613 C1612 1.386 . S
C1613 C1617 1.393 . S
C1614 H1606 0.950 . S
C1614 C1612 1.391 . S
C1614 C1615 1.400 . S
C1615 C1614 1.400 . S
C1615 C1616 1.398 . S
C1615 C1621 1.491 . S
C1616 H1607 0.950 . S
C1616 C1615 1.398 . S
C1616 C1617 1.391 . S
C1617 H1605 0.950 . S
C1617 C1613 1.393 . S
C1617 C1616 1.391 . S
C1618 H1608 0.950 . S
C1618 C1619 1.386 . S
C1618 C1620 1.391 . S
C1619 C1618 1.386 . S
C1619 C1623 1.393 . S
C1620 H1609 0.950 . S
C1620 C1618 1.391 . S
C1620 C1621 1.400 . S
C1621 C1615 1.491 . S
C1621 C1620 1.400 . S
C1621 C1622 1.398 . S
C1622 H1610 0.950 . S
C1622 C1621 1.398 . S
C1622 C1623 1.391 . S
C1623 H1611 0.950 . S
C1623 C1619 1.393 . S
C1623 C1622 1.391 . S
H1624 C1632 0.950 . S
H1625 C1637 0.950 . S
H1626 C1634 0.950 . S
H1627 C1636 0.950 . S
H1628 C1638 0.950 . S
H1629 C1640 0.950 . S
H1630 C1642 0.950 . S
H1631 C1643 0.950 . S
C1632 H1624 0.950 . S
C1632 C1633 1.386 . S
C1632 C1634 1.391 . S
C1633 C1632 1.386 . S
C1633 C1637 1.393 . S
C1634 H1626 0.950 . S
C1634 C1632 1.391 . S
C1634 C1635 1.400 . S
C1635 C1634 1.400 . S
C1635 C1636 1.398 . S
C1635 C1641 1.491 . S
C1636 H1627 0.950 . S
C1636 C1635 1.398 . S
C1636 C1637 1.391 . S
C1637 H1625 0.950 . S
C1637 C1633 1.393 . S
C1637 C1636 1.391 . S
C1638 H1628 0.950 . S
C1638 C1639 1.386 . S
C1638 C1640 1.391 . S
C1639 C1638 1.386 . S
C1639 C1643 1.393 . S
C1640 H1629 0.950 . S
C1640 C1638 1.391 . S
C1640 C1641 1.400 . S
C1641 C1635 1.491 . S
C1641 C1640 1.400 . S
C1641 C1642 1.398 . S
C1642 H1630 0.950 . S
C1642 C1641 1.398 . S
C1642 C1643 1.391 . S
C1643 H1631 0.950 . S
C1643 C1639 1.393 . S
C1643 C1642 1.391 . S
H1644 C1652 0.950 . S
H1645 C1657 0.950 . S
H1646 C1654 0.950 . S
H1647 C1656 0.950 . S
H1648 C1658 0.950 . S
H1649 C1660 0.950 . S
H1650 C1662 0.950 . S
H1651 C1663 0.950 . S
C1652 H1644 0.950 . S
C1652 C1653 1.386 . S
C1652 C1654 1.391 . S
C1653 C1652 1.386 . S
C1653 C1657 1.393 . S
C1654 H1646 0.950 . S
C1654 C1652 1.391 . S
C1654 C1655 1.400 . S
C1655 C1654 1.400 . S
C1655 C1656 1.398 . S
C1655 C1661 1.491 . S
C1656 H1647 0.950 . S
C1656 C1655 1.398 . S
C1656 C1657 1.391 . S
C1657 H1645 0.950 . S
C1657 C1653 1.393 . S
C1657 C1656 1.391 . S
C1658 H1648 0.950 . S
C1658 C1659 1.386 . S
C1658 C1660 1.391 . S
C1659 C1658 1.386 . S
C1659 C1663 1.393 . S
C1660 H1649 0.950 . S
C1660 C1658 1.391 . S
C1660 C1661 1.400 . S
C1661 C1655 1.491 . S
C1661 C1660 1.400 . S
C1661 C1662 1.398 . S
C1662 H1650 0.950 . S
C1662 C1661 1.398 . S
C1662 C1663 1.391 . S
C1663 H1651 0.950 . S
C1663 C1659 1.393 . S
C1663 C1662 1.391 . S
H1664 C1672 0.950 . S
H1665 C1677 0.950 . S
H1666 C1674 0.950 . S
H1667 C1676 0.950 . S
H1668 C1678 0.950 . S
H1669 C1680 0.950 . S
H1670 C1682 0.950 . S
H1671 C1683 0.950 . S
C1672 H1664 0.950 . S
C1672 C1673 1.386 . S
C1672 C1674 1.391 . S
C1673 C1672 1.386 . S
C1673 C1677 1.393 . S
C1674 H1666 0.950 . S
C1674 C1672 1.391 . S
C1674 C1675 1.400 . S
C1675 C1674 1.400 . S
C1675 C1676 1.398 . S
C1675 C1681 1.491 . S
C1676 H1667 0.950 . S
C1676 C1675 1.398 . S
C1676 C1677 1.391 . S
C1677 H1665 0.950 . S
C1677 C1673 1.393 . S
C1677 C1676 1.391 . S
C1678 H1668 0.950 . S
C1678 C1679 1.386 . S
C1678 C1680 1.391 . S
C1679 C1678 1.386 . S
C1679 C1683 1.393 . S
C1680 H1669 0.950 . S
C1680 C1678 1.391 . S
C1680 C1681 1.400 . S
C1681 C1675 1.491 . S
C1681 C1680 1.400 . S
C1681 C1682 1.398 . S
C1682 H1670 0.950 . S
C1682 C1681 1.398 . S
C1682 C1683 1.391 . S
C1683 H1671 0.950 . S
C1683 C1679 1.393 . S
C1683 C1682 1.391 . S
H1684 C1692 0.950 . S
H1685 C1697 0.950 . S
H1686 C1694 0.950 . S
H1687 C1696 0.950 . S
H1688 C1698 0.950 1_556 S
H1689 C1700 0.956 . S
H1690 C1702 0.950 . S
H1691 C1703 0.950 . S
C1692 H1684 0.950 . S
C1692 C1693 1.386 . S
C1692 C1694 1.391 . S
C1693 C1692 1.386 . S
C1693 C1697 1.393 . S
C1694 H1686 0.950 . S
C1694 C1692 1.391 . S
C1694 C1695 1.400 . S
C1695 C1694 1.400 . S
C1695 C1696 1.398 . S
C1695 C1701 1.491 . S
C1696 H1687 0.950 . S
C1696 C1695 1.398 . S
C1696 C1697 1.391 . S
C1697 H1685 0.950 . S
C1697 C1693 1.393 . S
C1697 C1696 1.391 . S
C1698 H1688 0.950 1_554 S
C1698 C1699 1.386 1_455 S
C1698 C1700 1.391 . S
C1699 C1698 1.386 1_655 S
C1699 C1703 1.393 . S
C1700 H1689 0.956 . S
C1700 C1698 1.391 . S
C1700 C1701 1.400 . S
C1701 C1695 1.491 . S
C1701 C1700 1.400 . S
C1701 C1702 1.398 . S
C1702 H1690 0.950 . S
C1702 C1701 1.398 . S
C1702 C1703 1.391 1_455 S
C1703 H1691 0.950 . S
C1703 C1699 1.393 . S
C1703 C1702 1.391 1_655 S
H1704 C1712 0.950 . S
H1705 C1717 0.950 . S
H1706 C1714 0.950 . S
H1707 C1716 0.950 . S
H1708 C1718 0.950 . S
H1709 C1720 0.950 . S
H1710 C1722 0.950 . S
H1711 C1723 0.950 . S
C1712 H1704 0.950 . S
C1712 C1713 1.386 . S
C1712 C1714 1.391 . S
C1713 C1712 1.386 . S
C1713 C1717 1.393 . S
C1714 H1706 0.950 . S
C1714 C1712 1.391 . S
C1714 C1715 1.400 . S
C1715 C1714 1.400 . S
C1715 C1716 1.398 . S
C1715 C1721 1.491 . S
C1716 H1707 0.950 . S
C1716 C1715 1.398 . S
C1716 C1717 1.391 . S
C1717 H1705 0.950 . S
C1717 C1713 1.393 . S
C1717 C1716 1.391 . S
C1718 H1708 0.950 . S
C1718 C1719 1.386 . S
C1718 C1720 1.391 . S
C1719 C1718 1.386 . S
C1719 C1723 1.393 . S
C1720 H1709 0.950 . S
C1720 C1718 1.391 . S
C1720 C1721 1.400 . S
C1721 C1715 1.491 . S
C1721 C1720 1.400 . S
C1721 C1722 1.398 . S
C1722 H1710 0.950 . S
C1722 C1721 1.398 . S
C1722 C1723 1.391 . S
C1723 H1711 0.950 . S
C1723 C1719 1.393 . S
C1723 C1722 1.391 . S
H1724 C1732 0.950 1_455 S
H1725 C1737 0.954 1_556 S
H1726 C1734 0.950 . S
H1727 C1736 0.950 . S
H1728 C1738 0.950 . S
H1729 C1740 0.950 . S
H1730 C1742 0.950 . S
H1731 C1743 0.950 . S
C1732 H1724 0.950 1_655 S
C1732 C1733 1.386 1_655 S
C1732 C1734 1.391 . S
C1733 C1732 1.386 1_455 S
C1733 C1737 1.393 . S
C1734 H1726 0.950 . S
C1734 C1732 1.391 . S
C1734 C1735 1.400 . S
C1735 C1734 1.400 . S
C1735 C1736 1.398 . S
C1735 C1741 1.491 . S
C1736 H1727 0.950 . S
C1736 C1735 1.398 . S
C1736 C1737 1.391 1_655 S
C1737 H1725 0.954 1_554 S
C1737 C1733 1.393 . S
C1737 C1736 1.391 1_455 S
C1738 H1728 0.950 . S
C1738 C1739 1.386 . S
C1738 C1740 1.391 . S
C1739 C1738 1.386 . S
C1739 C1743 1.393 . S
C1740 H1729 0.950 . S
C1740 C1738 1.391 . S
C1740 C1741 1.400 . S
C1741 C1735 1.491 . S
C1741 C1740 1.400 . S
C1741 C1742 1.398 . S
C1742 H1730 0.950 . S
C1742 C1741 1.398 . S
C1742 C1743 1.391 . S
C1743 H1731 0.950 . S
C1743 C1739 1.393 . S
C1743 C1742 1.391 . S
H1744 C1752 0.950 . S
H1745 C1757 0.950 . S
H1746 C1754 0.950 . S
H1747 C1756 0.950 . S
H1748 C1758 0.950 . S
H1749 C1760 0.950 . S
H1750 C1762 0.950 . S
H1751 C1763 0.950 . S
C1752 H1744 0.950 . S
C1752 C1753 1.386 . S
C1752 C1754 1.391 . S
C1753 C1752 1.386 . S
C1753 C1757 1.393 . S
C1754 H1746 0.950 . S
C1754 C1752 1.391 . S
C1754 C1755 1.400 . S
C1755 C1754 1.400 . S
C1755 C1756 1.398 . S
C1755 C1761 1.491 . S
C1756 H1747 0.950 . S
C1756 C1755 1.398 . S
C1756 C1757 1.391 . S
C1757 H1745 0.950 . S
C1757 C1753 1.393 . S
C1757 C1756 1.391 . S
C1758 H1748 0.950 . S
C1758 C1759 1.386 . S
C1758 C1760 1.391 . S
C1759 C1758 1.386 . S
C1759 C1763 1.393 . S
C1760 H1749 0.950 . S
C1760 C1758 1.391 . S
C1760 C1761 1.400 . S
C1761 C1755 1.491 . S
C1761 C1760 1.400 . S
C1761 C1762 1.398 . S
C1762 H1750 0.950 . S
C1762 C1761 1.398 . S
C1762 C1763 1.391 . S
C1763 H1751 0.950 . S
C1763 C1759 1.393 . S
C1763 C1762 1.391 . S
H1764 C1772 0.950 . S
H1765 C1777 0.950 . S
H1766 C1774 0.950 . S
H1767 C1776 0.950 . S
H1768 C1778 0.950 . S
H1769 C1780 0.950 . S
H1770 C1782 0.950 . S
H1771 C1783 0.950 . S
C1772 H1764 0.950 . S
C1772 C1773 1.386 1_554 S
C1772 C1774 1.391 . S
C1773 C1772 1.386 1_556 S
C1773 C1777 1.393 . S
C1774 H1766 0.950 . S
C1774 C1772 1.391 . S
C1774 C1775 1.400 . S
C1775 C1774 1.400 . S
C1775 C1776 1.398 . S
C1775 C1781 1.491 . S
C1776 H1767 0.950 . S
C1776 C1775 1.398 . S
C1776 C1777 1.391 1_554 S
C1777 H1765 0.950 . S
C1777 C1773 1.393 . S
C1777 C1776 1.391 1_556 S
C1778 H1768 0.950 . S
C1778 C1779 1.386 . S
C1778 C1780 1.391 . S
C1779 C1778 1.386 . S
C1779 C1783 1.393 . S
C1780 H1769 0.950 . S
C1780 C1778 1.391 . S
C1780 C1781 1.400 . S
C1781 C1775 1.491 . S
C1781 C1780 1.400 . S
C1781 C1782 1.398 . S
C1782 H1770 0.950 . S
C1782 C1781 1.398 . S
C1782 C1783 1.391 . S
C1783 H1771 0.950 . S
C1783 C1779 1.393 . S
C1783 C1782 1.391 . S
H1784 C1792 0.950 . S
H1785 C1797 0.950 . S
H1786 C1794 0.950 . S
H1787 C1796 0.950 . S
H1788 C1798 0.950 . S
H1789 C1800 0.950 . S
H1790 C1802 0.950 . S
H1791 C1803 0.950 . S
C1792 H1784 0.950 . S
C1792 C1793 1.386 . S
C1792 C1794 1.391 . S
C1793 C1792 1.386 . S
C1793 C1797 1.393 . S
C1794 H1786 0.950 . S
C1794 C1792 1.391 . S
C1794 C1795 1.400 . S
C1795 C1794 1.400 . S
C1795 C1796 1.398 . S
C1795 C1801 1.491 . S
C1796 H1787 0.950 . S
C1796 C1795 1.398 . S
C1796 C1797 1.391 . S
C1797 H1785 0.950 . S
C1797 C1793 1.393 . S
C1797 C1796 1.391 . S
C1798 H1788 0.950 . S
C1798 C1799 1.386 . S
C1798 C1800 1.391 . S
C1799 C1798 1.386 . S
C1799 C1803 1.393 . S
C1800 H1789 0.950 . S
C1800 C1798 1.391 . S
C1800 C1801 1.400 . S
C1801 C1795 1.491 . S
C1801 C1800 1.400 . S
C1801 C1802 1.398 . S
C1802 H1790 0.950 . S
C1802 C1801 1.398 . S
C1802 C1803 1.391 . S
C1803 H1791 0.950 . S
C1803 C1799 1.393 . S
C1803 C1802 1.391 . S
H1804 C1812 0.950 . S
H1805 C1817 0.950 . S
H1806 C1814 0.950 . S
H1807 C1816 0.950 . S
H1808 C1818 0.950 . S
H1809 C1820 0.950 . S
H1810 C1822 0.950 . S
H1811 C1823 0.950 . S
C1812 H1804 0.950 . S
C1812 C1813 1.386 . S
C1812 C1814 1.391 1_556 S
C1813 C1812 1.386 . S
C1813 C1817 1.393 1_556 S
C1814 H1806 0.950 . S
C1814 C1812 1.391 1_554 S
C1814 C1815 1.400 . S
C1815 C1814 1.400 . S
C1815 C1816 1.398 . S
C1815 C1821 1.491 . S
C1816 H1807 0.950 . S
C1816 C1815 1.398 . S
C1816 C1817 1.391 . S
C1817 H1805 0.950 . S
C1817 C1813 1.393 1_554 S
C1817 C1816 1.391 . S
C1818 H1808 0.950 . S
C1818 C1819 1.386 . S
C1818 C1820 1.391 . S
C1819 C1818 1.386 . S
C1819 C1823 1.393 . S
C1820 H1809 0.950 . S
C1820 C1818 1.391 . S
C1820 C1821 1.400 . S
C1821 C1815 1.491 . S
C1821 C1820 1.400 . S
C1821 C1822 1.398 . S
C1822 H1810 0.950 . S
C1822 C1821 1.398 . S
C1822 C1823 1.391 . S
C1823 H1811 0.950 . S
C1823 C1819 1.393 . S
C1823 C1822 1.391 . S
H1824 C1832 0.950 . S
H1825 C1837 0.950 . S
H1826 C1834 0.950 . S
H1827 C1836 0.950 . S
H1828 C1838 0.950 . S
H1829 C1840 0.950 . S
H1830 C1842 0.950 . S
H1831 C1843 0.950 . S
C1832 H1824 0.950 . S
C1832 C1833 1.386 . S
C1832 C1834 1.391 . S
C1833 C1832 1.386 . S
C1833 C1837 1.393 . S
C1834 H1826 0.950 . S
C1834 C1832 1.391 . S
C1834 C1835 1.400 . S
C1835 C1834 1.400 . S
C1835 C1836 1.398 . S
C1835 C1841 1.491 . S
C1836 H1827 0.950 . S
C1836 C1835 1.398 . S
C1836 C1837 1.391 . S
C1837 H1825 0.950 . S
C1837 C1833 1.393 . S
C1837 C1836 1.391 . S
C1838 H1828 0.950 . S
C1838 C1839 1.386 . S
C1838 C1840 1.391 . S
C1839 C1838 1.386 . S
C1839 C1843 1.393 . S
C1840 H1829 0.950 . S
C1840 C1838 1.391 . S
C1840 C1841 1.400 . S
C1841 C1835 1.491 . S
C1841 C1840 1.400 . S
C1841 C1842 1.398 . S
C1842 H1830 0.950 . S
C1842 C1841 1.398 . S
C1842 C1843 1.391 . S
C1843 H1831 0.950 . S
C1843 C1839 1.393 . S
C1843 C1842 1.391 . S
H1844 C1852 0.950 . S
H1845 C1857 0.950 . S
H1846 C1854 0.950 . S
H1847 C1856 0.950 . S
H1848 C1858 0.950 . S
H1849 C1860 0.950 . S
H1850 C1862 0.950 . S
H1851 C1863 0.950 . S
C1852 H1844 0.950 . S
C1852 C1853 1.386 . S
C1852 C1854 1.391 . S
C1853 C1852 1.386 . S
C1853 C1857 1.393 . S
C1854 H1846 0.950 . S
C1854 C1852 1.391 . S
C1854 C1855 1.400 . S
C1855 C1854 1.400 . S
C1855 C1856 1.398 . S
C1855 C1861 1.491 . S
C1856 H1847 0.950 . S
C1856 C1855 1.398 . S
C1856 C1857 1.391 . S
C1857 H1845 0.950 . S
C1857 C1853 1.393 . S
C1857 C1856 1.391 . S
C1858 H1848 0.950 . S
C1858 C1859 1.386 1_556 S
C1858 C1860 1.391 . S
C1859 C1858 1.386 1_554 S
C1859 C1863 1.393 . S
C1860 H1849 0.950 . S
C1860 C1858 1.391 . S
C1860 C1861 1.400 . S
C1861 C1855 1.491 . S
C1861 C1860 1.400 . S
C1861 C1862 1.398 . S
C1862 H1850 0.950 . S
C1862 C1861 1.398 . S
C1862 C1863 1.391 1_556 S
C1863 H1851 0.950 . S
C1863 C1859 1.393 . S
C1863 C1862 1.391 1_554 S
H1864 C1872 0.950 . S
H1865 C1877 0.950 . S
H1866 C1874 0.950 . S
H1867 C1876 0.950 . S
H1868 C1878 0.950 . S
H1869 C1880 0.950 . S
H1870 C1882 0.950 . S
H1871 C1883 0.950 . S
C1872 H1864 0.950 . S
C1872 C1873 1.386 . S
C1872 C1874 1.391 . S
C1873 C1872 1.386 . S
C1873 C1877 1.393 . S
C1874 H1866 0.950 . S
C1874 C1872 1.391 . S
C1874 C1875 1.400 . S
C1875 C1874 1.400 . S
C1875 C1876 1.398 . S
C1875 C1881 1.491 . S
C1876 H1867 0.950 . S
C1876 C1875 1.398 . S
C1876 C1877 1.391 . S
C1877 H1865 0.950 . S
C1877 C1873 1.393 . S
C1877 C1876 1.391 . S
C1878 H1868 0.950 . S
C1878 C1879 1.386 . S
C1878 C1880 1.391 . S
C1879 C1878 1.386 . S
C1879 C1883 1.393 . S
C1880 H1869 0.950 . S
C1880 C1878 1.391 . S
C1880 C1881 1.400 . S
C1881 C1875 1.491 . S
C1881 C1880 1.400 . S
C1881 C1882 1.398 . S
C1882 H1870 0.950 . S
C1882 C1881 1.398 . S
C1882 C1883 1.391 . S
C1883 H1871 0.950 . S
C1883 C1879 1.393 . S
C1883 C1882 1.391 . S
H1884 C1892 0.950 . S
H1885 C1897 0.950 1_565 S
H1886 C1894 0.950 . S
H1887 C1896 0.950 . S
H1888 C1898 0.950 . S
H1889 C1900 0.950 . S
H1890 C1902 0.950 . S
H1891 C1903 0.950 . S
C1892 H1884 0.950 . S
C1892 C1893 1.386 . S
C1892 C1894 1.391 1_554 S
C1893 C1892 1.386 . S
C1893 C1897 1.393 1_554 S
C1894 H1886 0.950 . S
C1894 C1892 1.391 1_556 S
C1894 C1895 1.400 . S
C1895 C1894 1.400 . S
C1895 C1896 1.398 . S
C1895 C1901 1.491 . S
C1896 H1887 0.950 . S
C1896 C1895 1.398 . S
C1896 C1897 1.391 . S
C1897 H1885 0.950 1_545 S
C1897 C1893 1.393 1_556 S
C1897 C1896 1.391 . S
C1898 H1888 0.950 . S
C1898 C1899 1.386 . S
C1898 C1900 1.391 . S
C1899 C1898 1.386 . S
C1899 C1903 1.393 . S
C1900 H1889 0.950 . S
C1900 C1898 1.391 . S
C1900 C1901 1.400 . S
C1901 C1895 1.491 . S
C1901 C1900 1.400 . S
C1901 C1902 1.398 . S
C1902 H1890 0.950 . S
C1902 C1901 1.398 . S
C1902 C1903 1.391 . S
C1903 H1891 0.950 . S
C1903 C1899 1.393 . S
C1903 C1902 1.391 . S
H1904 C1912 0.950 . S
H1905 C1917 0.950 . S
H1906 C1914 0.950 . S
H1907 C1916 0.950 . S
H1908 C1918 0.950 . S
H1909 C1920 0.950 . S
H1910 C1922 0.950 . S
H1911 C1923 0.950 . S
C1912 H1904 0.950 . S
C1912 C1913 1.386 . S
C1912 C1914 1.391 . S
C1913 C1912 1.386 . S
C1913 C1917 1.393 . S
C1914 H1906 0.950 . S
C1914 C1912 1.391 . S
C1914 C1915 1.400 . S
C1915 C1914 1.400 . S
C1915 C1916 1.398 . S
C1915 C1921 1.491 . S
C1916 H1907 0.950 . S
C1916 C1915 1.398 . S
C1916 C1917 1.391 . S
C1917 H1905 0.950 . S
C1917 C1913 1.393 . S
C1917 C1916 1.391 . S
C1918 H1908 0.950 . S
C1918 C1919 1.386 . S
C1918 C1920 1.391 . S
C1919 C1918 1.386 . S
C1919 C1923 1.393 . S
C1920 H1909 0.950 . S
C1920 C1918 1.391 . S
C1920 C1921 1.400 . S
C1921 C1915 1.491 . S
C1921 C1920 1.400 . S
C1921 C1922 1.398 . S
C1922 H1910 0.950 . S
C1922 C1921 1.398 . S
C1922 C1923 1.391 . S
C1923 H1911 0.950 . S
C1923 C1919 1.393 . S
C1923 C1922 1.391 . S
H1924 C1932 0.950 . S
H1925 C1937 0.950 . S
H1926 C1934 0.950 . S
H1927 C1936 0.950 . S
H1928 C1938 0.950 . S
H1929 C1940 0.950 . S
H1930 C1942 0.950 . S
H1931 C1943 0.950 . S
C1932 H1924 0.950 . S
C1932 C1933 1.386 . S
C1932 C1934 1.391 . S
C1933 C1932 1.386 . S
C1933 C1937 1.393 . S
C1934 H1926 0.950 . S
C1934 C1932 1.391 . S
C1934 C1935 1.400 . S
C1935 C1934 1.400 . S
C1935 C1936 1.398 . S
C1935 C1941 1.491 . S
C1936 H1927 0.950 . S
C1936 C1935 1.398 . S
C1936 C1937 1.391 . S
C1937 H1925 0.950 . S
C1937 C1933 1.393 . S
C1937 C1936 1.391 . S
C1938 H1928 0.950 . S
C1938 C1939 1.386 . S
C1938 C1940 1.391 . S
C1939 C1938 1.386 . S
C1939 C1943 1.393 . S
C1940 H1929 0.950 . S
C1940 C1938 1.391 . S
C1940 C1941 1.400 . S
C1941 C1935 1.491 . S
C1941 C1940 1.400 . S
C1941 C1942 1.398 . S
C1942 H1930 0.950 . S
C1942 C1941 1.398 . S
C1942 C1943 1.391 . S
C1943 H1931 0.950 . S
C1943 C1939 1.393 . S
C1943 C1942 1.391 . S
H1944 C1952 0.950 . S
H1945 C1957 0.950 1_455 S
H1946 C1954 0.950 . S
H1947 C1956 0.950 . S
H1948 C1958 0.950 . S
H1949 C1960 0.950 . S
H1950 C1962 0.950 . S
H1951 C1963 0.950 . S
C1952 H1944 0.950 . S
C1952 C1953 1.386 . S
C1952 C1954 1.391 . S
C1953 C1952 1.386 . S
C1953 C1957 1.393 . S
C1954 H1946 0.950 . S
C1954 C1952 1.391 . S
C1954 C1955 1.400 . S
C1955 C1954 1.400 . S
C1955 C1956 1.398 . S
C1955 C1961 1.491 . S
C1956 H1947 0.950 . S
C1956 C1955 1.398 . S
C1956 C1957 1.391 . S
C1957 H1945 0.950 1_655 S
C1957 C1953 1.393 . S
C1957 C1956 1.391 . S
C1958 H1948 0.950 . S
C1958 C1959 1.386 . S
C1958 C1960 1.391 . S
C1959 C1958 1.386 . S
C1959 C1963 1.393 . S
C1960 H1949 0.950 . S
C1960 C1958 1.391 . S
C1960 C1961 1.400 . S
C1961 C1955 1.491 . S
C1961 C1960 1.400 . S
C1961 C1962 1.398 . S
C1962 H1950 0.950 . S
C1962 C1961 1.398 . S
C1962 C1963 1.391 . S
C1963 H1951 0.950 . S
C1963 C1959 1.393 . S
C1963 C1962 1.391 . S
H1964 C1972 0.950 . S
H1965 C1977 0.950 . S
H1966 C1974 0.950 . S
H1967 C1976 0.950 . S
H1968 C1978 0.950 . S
H1969 C1980 0.950 . S
H1970 C1982 0.950 . S
H1971 C1983 0.950 . S
C1972 H1964 0.950 . S
C1972 C1973 1.386 . S
C1972 C1974 1.391 . S
C1973 C1972 1.386 . S
C1973 C1977 1.393 . S
C1974 H1966 0.950 . S
C1974 C1972 1.391 . S
C1974 C1975 1.400 . S
C1975 C1974 1.400 . S
C1975 C1976 1.398 . S
C1975 C1981 1.491 . S
C1976 H1967 0.950 . S
C1976 C1975 1.398 . S
C1976 C1977 1.391 . S
C1977 H1965 0.950 . S
C1977 C1973 1.393 . S
C1977 C1976 1.391 . S
C1978 H1968 0.950 . S
C1978 C1979 1.386 . S
C1978 C1980 1.391 . S
C1979 C1978 1.386 . S
C1979 C1983 1.393 . S
C1980 H1969 0.950 . S
C1980 C1978 1.391 . S
C1980 C1981 1.400 . S
C1981 C1975 1.491 . S
C1981 C1980 1.400 . S
C1981 C1982 1.398 . S
C1982 H1970 0.950 . S
C1982 C1981 1.398 . S
C1982 C1983 1.391 . S
C1983 H1971 0.950 . S
C1983 C1979 1.393 . S
C1983 C1982 1.391 . S
H1984 C1992 0.950 . S
H1985 C1997 0.950 . S
H1986 C1994 0.950 . S
H1987 C1996 0.950 . S
H1988 C1998 0.950 . S
H1989 C2000 0.950 . S
H1990 C2002 0.950 . S
H1991 C2003 0.950 . S
C1992 H1984 0.950 . S
C1992 C1993 1.386 . S
C1992 C1994 1.391 . S
C1993 C1992 1.386 . S
C1993 C1997 1.393 . S
C1994 H1986 0.950 . S
C1994 C1992 1.391 . S
C1994 C1995 1.400 . S
C1995 C1994 1.400 . S
C1995 C1996 1.398 . S
C1995 C2001 1.491 . S
C1996 H1987 0.950 . S
C1996 C1995 1.398 . S
C1996 C1997 1.391 . S
C1997 H1985 0.950 . S
C1997 C1993 1.393 . S
C1997 C1996 1.391 . S
C1998 H1988 0.950 . S
C1998 C1999 1.386 . S
C1998 C2000 1.391 . S
C1999 C1998 1.386 . S
C1999 C2003 1.393 . S
C2000 H1989 0.950 . S
C2000 C1998 1.391 . S
C2000 C2001 1.400 . S
C2001 C1995 1.491 . S
C2001 C2000 1.400 . S
C2001 C2002 1.398 . S
C2002 H1990 0.950 . S
C2002 C2001 1.398 . S
C2002 C2003 1.391 . S
C2003 H1991 0.950 . S
C2003 C1999 1.393 . S
C2003 C2002 1.391 . S
H2004 C2012 0.950 . S
H2005 C2017 0.950 . S
H2006 C2014 0.950 . S
H2007 C2016 0.950 . S
H2008 C2018 0.950 . S
H2009 C2020 0.950 . S
H2010 C2022 0.950 . S
H2011 C2023 0.950 . S
C2012 H2004 0.950 . S
C2012 C2013 1.386 . S
C2012 C2014 1.391 . S
C2013 C2012 1.386 . S
C2013 C2017 1.393 . S
C2014 H2006 0.950 . S
C2014 C2012 1.391 . S
C2014 C2015 1.400 . S
C2015 C2014 1.400 . S
C2015 C2016 1.398 . S
C2015 C2021 1.491 . S
C2016 H2007 0.950 . S
C2016 C2015 1.398 . S
C2016 C2017 1.391 . S
C2017 H2005 0.950 . S
C2017 C2013 1.393 . S
C2017 C2016 1.391 . S
C2018 H2008 0.950 . S
C2018 C2019 1.386 . S
C2018 C2020 1.391 . S
C2019 C2018 1.386 . S
C2019 C2023 1.393 . S
C2020 H2009 0.950 . S
C2020 C2018 1.391 . S
C2020 C2021 1.400 . S
C2021 C2015 1.491 . S
C2021 C2020 1.400 . S
C2021 C2022 1.398 . S
C2022 H2010 0.950 . S
C2022 C2021 1.398 . S
C2022 C2023 1.391 . S
C2023 H2011 0.950 . S
C2023 C2019 1.393 . S
C2023 C2022 1.391 . S
H2024 C2032 0.950 . S
H2025 C2037 0.950 . S
H2026 C2034 0.950 . S
H2027 C2036 0.950 . S
H2028 C2038 0.950 . S
H2029 C2040 0.950 . S
H2030 C2042 0.950 . S
H2031 C2043 0.950 . S
C2032 H2024 0.950 . S
C2032 C2033 1.386 . S
C2032 C2034 1.391 . S
C2033 C2032 1.386 . S
C2033 C2037 1.393 . S
C2034 H2026 0.950 . S
C2034 C2032 1.391 . S
C2034 C2035 1.400 . S
C2035 C2034 1.400 . S
C2035 C2036 1.398 . S
C2035 C2041 1.491 . S
C2036 H2027 0.950 . S
C2036 C2035 1.398 . S
C2036 C2037 1.391 . S
C2037 H2025 0.950 . S
C2037 C2033 1.393 . S
C2037 C2036 1.391 . S
C2038 H2028 0.950 . S
C2038 C2039 1.386 . S
C2038 C2040 1.391 . S
C2039 C2038 1.386 . S
C2039 C2043 1.393 . S
C2040 H2029 0.950 . S
C2040 C2038 1.391 . S
C2040 C2041 1.400 . S
C2041 C2035 1.491 . S
C2041 C2040 1.400 . S
C2041 C2042 1.398 . S
C2042 H2030 0.950 . S
C2042 C2041 1.398 . S
C2042 C2043 1.391 . S
C2043 H2031 0.950 . S
C2043 C2039 1.393 . S
C2043 C2042 1.391 . S
H2044 C2052 0.950 . S
H2045 C2057 0.950 . S
H2046 C2054 0.950 . S
H2047 C2056 0.950 . S
H2048 C2058 0.950 . S
H2049 C2060 0.950 . S
H2050 C2062 0.950 . S
H2051 C2063 0.950 . S
C2052 H2044 0.950 . S
C2052 C2053 1.386 1_545 S
C2052 C2054 1.391 . S
C2053 C2052 1.386 1_565 S
C2053 C2057 1.393 . S
C2054 H2046 0.950 . S
C2054 C2052 1.391 . S
C2054 C2055 1.400 . S
C2055 C2054 1.400 . S
C2055 C2056 1.398 . S
C2055 C2061 1.491 . S
C2056 H2047 0.950 . S
C2056 C2055 1.398 . S
C2056 C2057 1.391 1_545 S
C2057 H2045 0.950 . S
C2057 C2053 1.393 . S
C2057 C2056 1.391 1_565 S
C2058 H2048 0.950 . S
C2058 C2059 1.386 . S
C2058 C2060 1.391 . S
C2059 C2058 1.386 . S
C2059 C2063 1.393 . S
C2060 H2049 0.950 . S
C2060 C2058 1.391 . S
C2060 C2061 1.400 . S
C2061 C2055 1.491 . S
C2061 C2060 1.400 . S
C2061 C2062 1.398 . S
C2062 H2050 0.950 . S
C2062 C2061 1.398 . S
C2062 C2063 1.391 . S
C2063 H2051 0.950 . S
C2063 C2059 1.393 . S
C2063 C2062 1.391 . S
H2064 C2072 0.950 . S
H2065 C2077 0.950 . S
H2066 C2074 0.950 . S
H2067 C2076 0.950 . S
H2068 C2078 0.950 . S
H2069 C2080 0.950 . S
H2070 C2082 0.950 . S
H2071 C2083 0.950 . S
C2072 H2064 0.950 . S
C2072 C2073 1.386 . S
C2072 C2074 1.391 . S
C2073 C2072 1.386 . S
C2073 C2077 1.393 . S
C2074 H2066 0.950 . S
C2074 C2072 1.391 . S
C2074 C2075 1.400 . S
C2075 C2074 1.400 . S
C2075 C2076 1.398 . S
C2075 C2081 1.491 . S
C2076 H2067 0.950 . S
C2076 C2075 1.398 . S
C2076 C2077 1.391 . S
C2077 H2065 0.950 . S
C2077 C2073 1.393 . S
C2077 C2076 1.391 . S
C2078 H2068 0.950 . S
C2078 C2079 1.386 . S
C2078 C2080 1.391 . S
C2079 C2078 1.386 . S
C2079 C2083 1.393 . S
C2080 H2069 0.950 . S
C2080 C2078 1.391 . S
C2080 C2081 1.400 . S
C2081 C2075 1.491 . S
C2081 C2080 1.400 . S
C2081 C2082 1.398 . S
C2082 H2070 0.950 . S
C2082 C2081 1.398 . S
C2082 C2083 1.391 . S
C2083 H2071 0.950 . S
C2083 C2079 1.393 . S
C2083 C2082 1.391 . S
H2084 C2092 0.950 . S
H2085 C2097 0.950 . S
H2086 C2094 0.950 . S
H2087 C2096 0.950 . S
H2088 C2098 0.950 . S
H2089 C2100 0.950 . S
H2090 C2102 0.950 . S
H2091 C2103 0.950 . S
C2092 H2084 0.950 . S
C2092 C2093 1.386 . S
C2092 C2094 1.391 . S
C2093 C2092 1.386 . S
C2093 C2097 1.393 . S
C2094 H2086 0.950 . S
C2094 C2092 1.391 . S
C2094 C2095 1.400 . S
C2095 C2094 1.400 . S
C2095 C2096 1.398 . S
C2095 C2101 1.491 . S
C2096 H2087 0.950 . S
C2096 C2095 1.398 . S
C2096 C2097 1.391 . S
C2097 H2085 0.950 . S
C2097 C2093 1.393 . S
C2097 C2096 1.391 . S
C2098 H2088 0.950 . S
C2098 C2099 1.386 . S
C2098 C2100 1.391 1_455 S
C2099 C2098 1.386 . S
C2099 C2103 1.393 1_455 S
C2100 H2089 0.950 . S
C2100 C2098 1.391 1_655 S
C2100 C2101 1.400 . S
C2101 C2095 1.491 . S
C2101 C2100 1.400 . S
C2101 C2102 1.398 . S
C2102 H2090 0.950 . S
C2102 C2101 1.398 . S
C2102 C2103 1.391 . S
C2103 H2091 0.950 . S
C2103 C2099 1.393 1_655 S
C2103 C2102 1.391 . S
H2104 C2112 0.950 . S
H2105 C2117 0.950 . S
H2106 C2114 0.950 . S
H2107 C2116 0.950 . S
H2108 C2118 0.950 . S
H2109 C2120 0.950 . S
H2110 C2122 0.950 . S
H2111 C2123 0.950 . S
C2112 H2104 0.950 . S
C2112 C2113 1.386 . S
C2112 C2114 1.391 . S
C2113 C2112 1.386 . S
C2113 C2117 1.393 . S
C2114 H2106 0.950 . S
C2114 C2112 1.391 . S
C2114 C2115 1.400 . S
C2115 C2114 1.400 . S
C2115 C2116 1.398 . S
C2115 C2121 1.491 . S
C2116 H2107 0.950 . S
C2116 C2115 1.398 . S
C2116 C2117 1.391 . S
C2117 H2105 0.950 . S
C2117 C2113 1.393 . S
C2117 C2116 1.391 . S
C2118 H2108 0.950 . S
C2118 C2119 1.386 . S
C2118 C2120 1.391 . S
C2119 C2118 1.386 . S
C2119 C2123 1.393 . S
C2120 H2109 0.950 . S
C2120 C2118 1.391 . S
C2120 C2121 1.400 . S
C2121 C2115 1.491 . S
C2121 C2120 1.400 . S
C2121 C2122 1.398 . S
C2122 H2110 0.950 . S
C2122 C2121 1.398 . S
C2122 C2123 1.391 . S
C2123 H2111 0.950 . S
C2123 C2119 1.393 . S
C2123 C2122 1.391 . S
H2124 C2132 0.950 . S
H2125 C2137 0.950 . S
H2126 C2134 0.950 . S
H2127 C2136 0.950 . S
H2128 C2138 0.950 . S
H2129 C2140 0.950 . S
H2130 C2142 0.950 . S
H2131 C2143 0.950 . S
C2132 H2124 0.950 . S
C2132 C2133 1.386 1_455 S
C2132 C2134 1.391 . S
C2133 C2132 1.386 1_655 S
C2133 C2137 1.393 . S
C2134 H2126 0.950 . S
C2134 C2132 1.391 . S
C2134 C2135 1.400 . S
C2135 C2134 1.400 . S
C2135 C2136 1.398 . S
C2135 C2141 1.491 . S
C2136 H2127 0.950 . S
C2136 C2135 1.398 . S
C2136 C2137 1.391 1_455 S
C2137 H2125 0.950 . S
C2137 C2133 1.393 . S
C2137 C2136 1.391 1_655 S
C2138 H2128 0.950 . S
C2138 C2139 1.386 . S
C2138 C2140 1.391 . S
C2139 C2138 1.386 . S
C2139 C2143 1.393 . S
C2140 H2129 0.950 . S
C2140 C2138 1.391 . S
C2140 C2141 1.400 . S
C2141 C2135 1.491 . S
C2141 C2140 1.400 . S
C2141 C2142 1.398 . S
C2142 H2130 0.950 . S
C2142 C2141 1.398 . S
C2142 C2143 1.391 . S
C2143 H2131 0.950 . S
C2143 C2139 1.393 . S
C2143 C2142 1.391 . S
H2144 C2152 0.950 . S
H2145 C2157 0.950 . S
H2146 C2154 0.950 . S
H2147 C2156 0.950 . S
H2148 C2158 0.950 . S
H2149 C2160 0.950 . S
H2150 C2162 0.950 . S
H2151 C2163 0.950 . S
C2152 H2144 0.950 . S
C2152 C2153 1.386 . S
C2152 C2154 1.391 . S
C2153 C2152 1.386 . S
C2153 C2157 1.393 . S
C2154 H2146 0.950 . S
C2154 C2152 1.391 . S
C2154 C2155 1.400 . S
C2155 C2154 1.400 . S
C2155 C2156 1.398 . S
C2155 C2161 1.491 . S
C2156 H2147 0.950 . S
C2156 C2155 1.398 . S
C2156 C2157 1.391 . S
C2157 H2145 0.950 . S
C2157 C2153 1.393 . S
C2157 C2156 1.391 . S
C2158 H2148 0.950 . S
C2158 C2159 1.386 . S
C2158 C2160 1.391 . S
C2159 C2158 1.386 . S
C2159 C2163 1.393 . S
C2160 H2149 0.950 . S
C2160 C2158 1.391 . S
C2160 C2161 1.400 . S
C2161 C2155 1.491 . S
C2161 C2160 1.400 . S
C2161 C2162 1.398 . S
C2162 H2150 0.950 . S
C2162 C2161 1.398 . S
C2162 C2163 1.391 . S
C2163 H2151 0.950 . S
C2163 C2159 1.393 . S
C2163 C2162 1.391 . S
H2164 C2172 0.950 . S
H2165 C2177 0.950 . S
H2166 C2174 0.950 . S
H2167 C2176 0.950 . S
H2168 C2178 0.950 . S
H2169 C2180 0.950 . S
H2170 C2182 0.950 . S
H2171 C2183 0.950 . S
C2172 H2164 0.950 . S
C2172 C2173 1.386 . S
C2172 C2174 1.391 . S
C2173 C2172 1.386 . S
C2173 C2177 1.393 . S
C2174 H2166 0.950 . S
C2174 C2172 1.391 . S
C2174 C2175 1.400 . S
C2175 C2174 1.400 . S
C2175 C2176 1.398 . S
C2175 C2181 1.491 . S
C2176 H2167 0.950 . S
C2176 C2175 1.398 . S
C2176 C2177 1.391 . S
C2177 H2165 0.950 . S
C2177 C2173 1.393 . S
C2177 C2176 1.391 . S
C2178 H2168 0.950 . S
C2178 C2179 1.386 . S
C2178 C2180 1.391 . S
C2179 C2178 1.386 . S
C2179 C2183 1.393 . S
C2180 H2169 0.950 . S
C2180 C2178 1.391 . S
C2180 C2181 1.400 . S
C2181 C2175 1.491 . S
C2181 C2180 1.400 . S
C2181 C2182 1.398 . S
C2182 H2170 0.950 . S
C2182 C2181 1.398 . S
C2182 C2183 1.391 . S
C2183 H2171 0.950 . S
C2183 C2179 1.393 . S
C2183 C2182 1.391 . S
H2184 C2192 0.950 . S
H2185 C2197 0.950 . S
H2186 C2194 0.950 . S
H2187 C2196 0.950 . S
H2188 C2198 0.950 . S
H2189 C2200 0.950 . S
H2190 C2202 0.950 . S
H2191 C2203 0.950 . S
C2192 H2184 0.950 . S
C2192 C2193 1.386 . S
C2192 C2194 1.391 . S
C2193 C2192 1.386 . S
C2193 C2197 1.393 . S
C2194 H2186 0.950 . S
C2194 C2192 1.391 . S
C2194 C2195 1.400 . S
C2195 C2194 1.400 . S
C2195 C2196 1.398 . S
C2195 C2201 1.491 . S
C2196 H2187 0.950 . S
C2196 C2195 1.398 . S
C2196 C2197 1.391 . S
C2197 H2185 0.950 . S
C2197 C2193 1.393 . S
C2197 C2196 1.391 . S
C2198 H2188 0.950 . S
C2198 C2199 1.386 . S
C2198 C2200 1.391 . S
C2199 C2198 1.386 . S
C2199 C2203 1.393 . S
C2200 H2189 0.950 . S
C2200 C2198 1.391 . S
C2200 C2201 1.400 . S
C2201 C2195 1.491 . S
C2201 C2200 1.400 . S
C2201 C2202 1.398 . S
C2202 H2190 0.950 . S
C2202 C2201 1.398 . S
C2202 C2203 1.391 . S
C2203 H2191 0.950 . S
C2203 C2199 1.393 . S
C2203 C2202 1.391 . S
H2204 C2212 0.950 . S
H2205 C2217 0.950 . S
H2206 C2214 0.950 . S
H2207 C2216 0.950 . S
H2208 C2218 0.950 . S
H2209 C2220 0.950 . S
H2210 C2222 0.950 . S
H2211 C2223 0.950 . S
C2212 H2204 0.950 . S
C2212 C2213 1.386 . S
C2212 C2214 1.391 . S
C2213 C2212 1.386 . S
C2213 C2217 1.393 . S
C2214 H2206 0.950 . S
C2214 C2212 1.391 . S
C2214 C2215 1.400 . S
C2215 C2214 1.400 . S
C2215 C2216 1.398 . S
C2215 C2221 1.491 . S
C2216 H2207 0.950 . S
C2216 C2215 1.398 . S
C2216 C2217 1.391 . S
C2217 H2205 0.950 . S
C2217 C2213 1.393 . S
C2217 C2216 1.391 . S
C2218 H2208 0.950 . S
C2218 C2219 1.386 . S
C2218 C2220 1.391 . S
C2219 C2218 1.386 . S
C2219 C2223 1.393 . S
C2220 H2209 0.950 . S
C2220 C2218 1.391 . S
C2220 C2221 1.400 . S
C2221 C2215 1.491 . S
C2221 C2220 1.400 . S
C2221 C2222 1.398 . S
C2222 H2210 0.950 . S
C2222 C2221 1.398 . S
C2222 C2223 1.391 . S
C2223 H2211 0.950 . S
C2223 C2219 1.393 . S
C2223 C2222 1.391 . S
H2224 C2232 0.950 . S
H2225 C2237 0.950 . S
H2226 C2234 0.950 . S
H2227 C2236 0.950 . S
H2228 C2238 0.950 . S
H2229 C2240 0.950 . S
H2230 C2242 0.950 . S
H2231 C2243 0.950 . S
C2232 H2224 0.950 . S
C2232 C2233 1.386 . S
C2232 C2234 1.391 . S
C2233 C2232 1.386 . S
C2233 C2237 1.393 . S
C2234 H2226 0.950 . S
C2234 C2232 1.391 . S
C2234 C2235 1.400 . S
C2235 C2234 1.400 . S
C2235 C2236 1.398 . S
C2235 C2241 1.491 . S
C2236 H2227 0.950 . S
C2236 C2235 1.398 . S
C2236 C2237 1.391 . S
C2237 H2225 0.950 . S
C2237 C2233 1.393 . S
C2237 C2236 1.391 . S
C2238 H2228 0.950 . S
C2238 C2239 1.386 . S
C2238 C2240 1.391 . S
C2239 C2238 1.386 . S
C2239 C2243 1.393 . S
C2240 H2229 0.950 . S
C2240 C2238 1.391 . S
C2240 C2241 1.400 . S
C2241 C2235 1.491 . S
C2241 C2240 1.400 . S
C2241 C2242 1.398 . S
C2242 H2230 0.950 . S
C2242 C2241 1.398 . S
C2242 C2243 1.391 . S
C2243 H2231 0.950 . S
C2243 C2239 1.393 . S
C2243 C2242 1.391 . S
H2244 C2252 0.950 . S
H2245 C2257 0.950 . S
H2246 C2254 0.950 . S
H2247 C2256 0.950 . S
H2248 C2258 0.950 . S
H2249 C2260 0.950 . S
H2250 C2262 0.950 . S
H2251 C2263 0.950 . S
C2252 H2244 0.950 . S
C2252 C2253 1.386 . S
C2252 C2254 1.391 . S
C2253 C2252 1.386 . S
C2253 C2257 1.393 . S
C2254 H2246 0.950 . S
C2254 C2252 1.391 . S
C2254 C2255 1.400 . S
C2255 C2254 1.400 . S
C2255 C2256 1.398 . S
C2255 C2261 1.491 . S
C2256 H2247 0.950 . S
C2256 C2255 1.398 . S
C2256 C2257 1.391 . S
C2257 H2245 0.950 . S
C2257 C2253 1.393 . S
C2257 C2256 1.391 . S
C2258 H2248 0.950 . S
C2258 C2259 1.386 . S
C2258 C2260 1.391 . S
C2259 C2258 1.386 . S
C2259 C2263 1.393 . S
C2260 H2249 0.950 . S
C2260 C2258 1.391 . S
C2260 C2261 1.400 . S
C2261 C2255 1.491 . S
C2261 C2260 1.400 . S
C2261 C2262 1.398 . S
C2262 H2250 0.950 . S
C2262 C2261 1.398 . S
C2262 C2263 1.391 . S
C2263 H2251 0.950 . S
C2263 C2259 1.393 . S
C2263 C2262 1.391 . S
H2264 C2272 0.950 . S
H2265 C2277 0.950 . S
H2266 C2274 0.950 . S
H2267 C2276 0.950 . S
H2268 C2278 0.950 . S
H2269 C2280 0.950 . S
H2270 C2282 0.950 . S
H2271 C2283 0.950 . S
C2272 H2264 0.950 . S
C2272 C2273 1.386 . S
C2272 C2274 1.391 . S
C2273 C2272 1.386 . S
C2273 C2277 1.393 . S
C2274 H2266 0.950 . S
C2274 C2272 1.391 . S
C2274 C2275 1.400 . S
C2275 C2274 1.400 . S
C2275 C2276 1.398 . S
C2275 C2281 1.491 . S
C2276 H2267 0.950 . S
C2276 C2275 1.398 . S
C2276 C2277 1.391 . S
C2277 H2265 0.950 . S
C2277 C2273 1.393 . S
C2277 C2276 1.391 . S
C2278 H2268 0.950 . S
C2278 C2279 1.386 . S
C2278 C2280 1.391 . S
C2279 C2278 1.386 . S
C2279 C2283 1.393 . S
C2280 H2269 0.950 . S
C2280 C2278 1.391 . S
C2280 C2281 1.400 . S
C2281 C2275 1.491 . S
C2281 C2280 1.400 . S
C2281 C2282 1.398 . S
C2282 H2270 0.950 . S
C2282 C2281 1.398 . S
C2282 C2283 1.391 . S
C2283 H2271 0.950 . S
C2283 C2279 1.393 . S
C2283 C2282 1.391 . S
H2284 C2292 0.950 . S
H2285 C2297 0.950 . S
H2286 C2294 0.950 . S
H2287 C2296 0.950 . S
H2288 C2298 0.950 . S
H2289 C2300 0.950 . S
H2290 C2302 0.950 . S
H2291 C2303 0.950 . S
C2292 H2284 0.950 . S
C2292 C2293 1.386 . S
C2292 C2294 1.391 . S
C2293 C2292 1.386 . S
C2293 C2297 1.393 . S
C2294 H2286 0.950 . S
C2294 C2292 1.391 . S
C2294 C2295 1.400 . S
C2295 C2294 1.400 . S
C2295 C2296 1.398 . S
C2295 C2301 1.491 . S
C2296 H2287 0.950 . S
C2296 C2295 1.398 . S
C2296 C2297 1.391 . S
C2297 H2285 0.950 . S
C2297 C2293 1.393 . S
C2297 C2296 1.391 . S
C2298 H2288 0.950 . S
C2298 C2299 1.386 . S
C2298 C2300 1.391 . S
C2299 C2298 1.386 . S
C2299 C2303 1.393 . S
C2300 H2289 0.950 . S
C2300 C2298 1.391 . S
C2300 C2301 1.400 . S
C2301 C2295 1.491 . S
C2301 C2300 1.400 . S
C2301 C2302 1.398 . S
C2302 H2290 0.950 . S
C2302 C2301 1.398 . S
C2302 C2303 1.391 . S
C2303 H2291 0.950 . S
C2303 C2299 1.393 . S
C2303 C2302 1.391 . S
H2304 C2312 0.950 . S
H2305 C2317 0.950 . S
H2306 C2314 0.950 . S
H2307 C2316 0.950 . S
H2308 C2318 0.950 . S
H2309 C2320 0.950 . S
H2310 C2322 0.950 . S
H2311 C2323 0.950 . S
C2312 H2304 0.950 . S
C2312 C2313 1.386 . S
C2312 C2314 1.391 . S
C2313 C2312 1.386 . S
C2313 C2317 1.393 . S
C2314 H2306 0.950 . S
C2314 C2312 1.391 . S
C2314 C2315 1.400 . S
C2315 C2314 1.400 . S
C2315 C2316 1.398 . S
C2315 C2321 1.491 . S
C2316 H2307 0.950 . S
C2316 C2315 1.398 . S
C2316 C2317 1.391 . S
C2317 H2305 0.950 . S
C2317 C2313 1.393 . S
C2317 C2316 1.391 . S
C2318 H2308 0.950 . S
C2318 C2319 1.386 . S
C2318 C2320 1.391 . S
C2319 C2318 1.386 . S
C2319 C2323 1.393 . S
C2320 H2309 0.950 . S
C2320 C2318 1.391 . S
C2320 C2321 1.400 . S
C2321 C2315 1.491 . S
C2321 C2320 1.400 . S
C2321 C2322 1.398 . S
C2322 H2310 0.950 . S
C2322 C2321 1.398 . S
C2322 C2323 1.391 . S
C2323 H2311 0.950 . S
C2323 C2319 1.393 . S
C2323 C2322 1.391 . S
H2324 C2332 0.950 . S
H2325 C2337 0.950 . S
H2326 C2334 0.950 . S
H2327 C2336 0.950 . S
H2328 C2338 0.950 . S
H2329 C2340 0.950 . S
H2330 C2342 0.950 . S
H2331 C2343 0.950 . S
C2332 H2324 0.950 . S
C2332 C2333 1.386 . S
C2332 C2334 1.391 . S
C2333 C2332 1.386 . S
C2333 C2337 1.393 . S
C2334 H2326 0.950 . S
C2334 C2332 1.391 . S
C2334 C2335 1.400 . S
C2335 C2334 1.400 . S
C2335 C2336 1.398 . S
C2335 C2341 1.491 . S
C2336 H2327 0.950 . S
C2336 C2335 1.398 . S
C2336 C2337 1.391 . S
C2337 H2325 0.950 . S
C2337 C2333 1.393 . S
C2337 C2336 1.391 . S
C2338 H2328 0.950 . S
C2338 C2339 1.386 . S
C2338 C2340 1.391 . S
C2339 C2338 1.386 . S
C2339 C2343 1.393 . S
C2340 H2329 0.950 . S
C2340 C2338 1.391 . S
C2340 C2341 1.400 . S
C2341 C2335 1.491 . S
C2341 C2340 1.400 . S
C2341 C2342 1.398 . S
C2342 H2330 0.950 . S
C2342 C2341 1.398 . S
C2342 C2343 1.391 . S
C2343 H2331 0.950 . S
C2343 C2339 1.393 . S
C2343 C2342 1.391 . S
H2344 C2352 0.950 . S
H2345 C2357 0.950 . S
H2346 C2354 0.950 . S
H2347 C2356 0.950 . S
H2348 C2358 0.950 . S
H2349 C2360 0.950 . S
H2350 C2362 0.950 . S
H2351 C2363 0.950 . S
C2352 H2344 0.950 . S
C2352 C2353 1.386 . S
C2352 C2354 1.391 . S
C2353 C2352 1.386 . S
C2353 C2357 1.393 . S
C2354 H2346 0.950 . S
C2354 C2352 1.391 . S
C2354 C2355 1.400 . S
C2355 C2354 1.400 . S
C2355 C2356 1.398 . S
C2355 C2361 1.491 . S
C2356 H2347 0.950 . S
C2356 C2355 1.398 . S
C2356 C2357 1.391 . S
C2357 H2345 0.950 . S
C2357 C2353 1.393 . S
C2357 C2356 1.391 . S
C2358 H2348 0.950 . S
C2358 C2359 1.386 . S
C2358 C2360 1.391 . S
C2359 C2358 1.386 . S
C2359 C2363 1.393 . S
C2360 H2349 0.950 . S
C2360 C2358 1.391 . S
C2360 C2361 1.400 . S
C2361 C2355 1.491 . S
C2361 C2360 1.400 . S
C2361 C2362 1.398 . S
C2362 H2350 0.950 . S
C2362 C2361 1.398 . S
C2362 C2363 1.391 . S
C2363 H2351 0.950 . S
C2363 C2359 1.393 . S
C2363 C2362 1.391 . S
H2364 C2372 0.950 . S
H2365 C2377 0.950 . S
H2366 C2374 0.950 . S
H2367 C2376 0.950 . S
H2368 C2378 0.950 . S
H2369 C2380 0.950 . S
H2370 C2382 0.950 . S
H2371 C2383 0.950 . S
C2372 H2364 0.950 . S
C2372 C2373 1.386 . S
C2372 C2374 1.391 . S
C2373 C2372 1.386 . S
C2373 C2377 1.393 . S
C2374 H2366 0.950 . S
C2374 C2372 1.391 . S
C2374 C2375 1.400 . S
C2375 C2374 1.400 . S
C2375 C2376 1.398 . S
C2375 C2381 1.491 . S
C2376 H2367 0.950 . S
C2376 C2375 1.398 . S
C2376 C2377 1.391 . S
C2377 H2365 0.950 . S
C2377 C2373 1.393 . S
C2377 C2376 1.391 . S
C2378 H2368 0.950 . S
C2378 C2379 1.386 . S
C2378 C2380 1.391 . S
C2379 C2378 1.386 . S
C2379 C2383 1.393 . S
C2380 H2369 0.950 . S
C2380 C2378 1.391 . S
C2380 C2381 1.400 . S
C2381 C2375 1.491 . S
C2381 C2380 1.400 . S
C2381 C2382 1.398 . S
C2382 H2370 0.950 . S
C2382 C2381 1.398 . S
C2382 C2383 1.391 . S
C2383 H2371 0.950 . S
C2383 C2379 1.393 . S
C2383 C2382 1.391 . S
H2384 C2392 0.950 . S
H2385 C2397 0.950 . S
H2386 C2394 0.950 . S
H2387 C2396 0.950 . S
H2388 C2398 0.950 . S
H2389 C2400 0.950 . S
H2390 C2402 0.950 . S
H2391 C2403 0.950 . S
C2392 H2384 0.950 . S
C2392 C2393 1.386 . S
C2392 C2394 1.391 . S
C2393 C2392 1.386 . S
C2393 C2397 1.393 . S
C2394 H2386 0.950 . S
C2394 C2392 1.391 . S
C2394 C2395 1.400 . S
C2395 C2394 1.400 . S
C2395 C2396 1.398 . S
C2395 C2401 1.491 . S
C2396 H2387 0.950 . S
C2396 C2395 1.398 . S
C2396 C2397 1.391 . S
C2397 H2385 0.950 . S
C2397 C2393 1.393 . S
C2397 C2396 1.391 . S
C2398 H2388 0.950 . S
C2398 C2399 1.386 . S
C2398 C2400 1.391 . S
C2399 C2398 1.386 . S
C2399 C2403 1.393 . S
C2400 H2389 0.950 . S
C2400 C2398 1.391 . S
C2400 C2401 1.400 . S
C2401 C2395 1.491 . S
C2401 C2400 1.400 . S
C2401 C2402 1.398 . S
C2402 H2390 0.950 . S
C2402 C2401 1.398 . S
C2402 C2403 1.391 . S
C2403 H2391 0.950 . S
C2403 C2399 1.393 . S
C2403 C2402 1.391 . S
H2404 C2412 0.950 . S
H2405 C2417 0.950 . S
H2406 C2414 0.950 . S
H2407 C2416 0.950 . S
H2408 C2418 0.950 . S
H2409 C2420 0.950 . S
H2410 C2422 0.950 . S
H2411 C2423 0.950 . S
C2412 H2404 0.950 . S
C2412 C2413 1.386 . S
C2412 C2414 1.391 . S
C2413 C2412 1.386 . S
C2413 C2417 1.393 . S
C2414 H2406 0.950 . S
C2414 C2412 1.391 . S
C2414 C2415 1.400 . S
C2415 C2414 1.400 . S
C2415 C2416 1.398 . S
C2415 C2421 1.491 . S
C2416 H2407 0.950 . S
C2416 C2415 1.398 . S
C2416 C2417 1.391 . S
C2417 H2405 0.950 . S
C2417 C2413 1.393 . S
C2417 C2416 1.391 . S
C2418 H2408 0.950 . S
C2418 C2419 1.386 . S
C2418 C2420 1.391 . S
C2419 C2418 1.386 . S
C2419 C2423 1.393 . S
C2420 H2409 0.950 . S
C2420 C2418 1.391 . S
C2420 C2421 1.400 . S
C2421 C2415 1.491 . S
C2421 C2420 1.400 . S
C2421 C2422 1.398 . S
C2422 H2410 0.950 . S
C2422 C2421 1.398 . S
C2422 C2423 1.391 . S
C2423 H2411 0.950 . S
C2423 C2419 1.393 . S
C2423 C2422 1.391 . S
H2424 C2432 0.950 . S
H2425 C2437 0.933 1_565 S
H2426 C2434 0.950 . S
H2427 C2436 0.950 . S
H2428 C2438 0.950 . S
H2429 C2440 0.950 . S
H2430 C2442 0.950 . S
H2431 C2443 0.950 . S
C2432 H2424 0.950 . S
C2432 C2433 1.386 . S
C2432 C2434 1.391 1_565 S
C2433 C2432 1.386 . S
C2433 C2437 1.365 1_565 S
C2434 H2426 0.950 . S
C2434 C2432 1.391 1_545 S
C2434 C2435 1.400 . S
C2435 C2434 1.400 . S
C2435 C2436 1.398 . S
C2435 C2441 1.491 . S
C2436 H2427 0.950 . S
C2436 C2435 1.398 . S
C2436 C2437 1.438 . S
C2437 H2425 0.933 1_545 S
C2437 C2433 1.365 1_545 S
C2437 C2436 1.438 . S
C2438 H2428 0.950 . S
C2438 C2439 1.386 . S
C2438 C2440 1.391 . S
C2439 C2438 1.386 . S
C2439 C2443 1.393 . S
C2440 H2429 0.950 . S
C2440 C2438 1.391 . S
C2440 C2441 1.400 . S
C2441 C2435 1.491 . S
C2441 C2440 1.400 . S
C2441 C2442 1.398 . S
C2442 H2430 0.950 . S
C2442 C2441 1.398 . S
C2442 C2443 1.391 . S
C2443 H2431 0.950 . S
C2443 C2439 1.393 . S
C2443 C2442 1.391 . S
H2444 C2452 0.950 . S
H2445 C2457 0.950 . S
H2446 C2454 0.950 . S
H2447 C2456 0.950 . S
H2448 C2458 0.950 . S
H2449 C2460 0.950 . S
H2450 C2462 0.950 . S
H2451 C2463 0.950 . S
C2452 H2444 0.950 . S
C2452 C2453 1.386 . S
C2452 C2454 1.391 . S
C2453 C2452 1.386 . S
C2453 C2457 1.393 . S
C2454 H2446 0.950 . S
C2454 C2452 1.391 . S
C2454 C2455 1.400 . S
C2455 C2454 1.400 . S
C2455 C2456 1.398 . S
C2455 C2461 1.491 . S
C2456 H2447 0.950 . S
C2456 C2455 1.398 . S
C2456 C2457 1.391 . S
C2457 H2445 0.950 . S
C2457 C2453 1.393 . S
C2457 C2456 1.391 . S
C2458 H2448 0.950 . S
C2458 C2459 1.386 . S
C2458 C2460 1.391 . S
C2459 C2458 1.386 . S
C2459 C2463 1.393 . S
C2460 H2449 0.950 . S
C2460 C2458 1.391 . S
C2460 C2461 1.400 . S
C2461 C2455 1.491 . S
C2461 C2460 1.400 . S
C2461 C2462 1.398 . S
C2462 H2450 0.950 . S
C2462 C2461 1.398 . S
C2462 C2463 1.391 . S
C2463 H2451 0.950 . S
C2463 C2459 1.393 . S
C2463 C2462 1.391 . S
H2464 C2472 0.950 . S
H2465 C2477 0.950 . S
H2466 C2474 0.950 . S
H2467 C2476 0.950 . S
H2468 C2478 0.950 . S
H2469 C2480 0.950 . S
H2470 C2482 0.950 . S
H2471 C2483 0.950 . S
C2472 H2464 0.950 . S
C2472 C2473 1.386 . S
C2472 C2474 1.391 1_545 S
C2473 C2472 1.386 . S
C2473 C2477 1.393 1_545 S
C2474 H2466 0.950 . S
C2474 C2472 1.391 1_565 S
C2474 C2475 1.400 . S
C2475 C2474 1.400 . S
C2475 C2476 1.398 . S
C2475 C2481 1.491 . S
C2476 H2467 0.950 . S
C2476 C2475 1.398 . S
C2476 C2477 1.391 . S
C2477 H2465 0.950 . S
C2477 C2473 1.393 1_565 S
C2477 C2476 1.391 . S
C2478 H2468 0.950 . S
C2478 C2479 1.386 . S
C2478 C2480 1.391 . S
C2479 C2478 1.386 . S
C2479 C2483 1.393 . S
C2480 H2469 0.950 . S
C2480 C2478 1.391 . S
C2480 C2481 1.400 . S
C2481 C2475 1.491 . S
C2481 C2480 1.400 . S
C2481 C2482 1.398 . S
C2482 H2470 0.950 . S
C2482 C2481 1.398 . S
C2482 C2483 1.391 . S
C2483 H2471 0.950 . S
C2483 C2479 1.393 . S
C2483 C2482 1.391 . S
H2484 C2492 0.950 . S
H2485 C2497 0.950 . S
H2486 C2494 0.950 . S
H2487 C2496 0.950 . S
H2488 C2498 0.950 . S
H2489 C2500 0.950 . S
H2490 C2502 0.950 . S
H2491 C2503 0.950 . S
C2492 H2484 0.950 . S
C2492 C2493 1.386 . S
C2492 C2494 1.391 . S
C2493 C2492 1.386 . S
C2493 C2497 1.393 . S
C2494 H2486 0.950 . S
C2494 C2492 1.391 . S
C2494 C2495 1.400 . S
C2495 C2494 1.400 . S
C2495 C2496 1.398 . S
C2495 C2501 1.491 . S
C2496 H2487 0.950 . S
C2496 C2495 1.398 . S
C2496 C2497 1.391 . S
C2497 H2485 0.950 . S
C2497 C2493 1.393 . S
C2497 C2496 1.391 . S
C2498 H2488 0.950 . S
C2498 C2499 1.386 . S
C2498 C2500 1.391 . S
C2499 C2498 1.386 . S
C2499 C2503 1.393 . S
C2500 H2489 0.950 . S
C2500 C2498 1.391 . S
C2500 C2501 1.400 . S
C2501 C2495 1.491 . S
C2501 C2500 1.400 . S
C2501 C2502 1.398 . S
C2502 H2490 0.950 . S
C2502 C2501 1.398 . S
C2502 C2503 1.391 . S
C2503 H2491 0.950 . S
C2503 C2499 1.393 . S
C2503 C2502 1.391 . S
H2504 C2512 0.950 . S
H2505 C2517 0.950 . S
H2506 C2514 0.950 . S
H2507 C2516 0.950 . S
H2508 C2518 0.950 . S
H2509 C2520 0.950 . S
H2510 C2522 0.950 . S
H2511 C2523 0.950 . S
C2512 H2504 0.950 . S
C2512 C2513 1.386 . S
C2512 C2514 1.391 . S
C2513 C2512 1.386 . S
C2513 C2517 1.393 . S
C2514 H2506 0.950 . S
C2514 C2512 1.391 . S
C2514 C2515 1.400 . S
C2515 C2514 1.400 . S
C2515 C2516 1.398 . S
C2515 C2521 1.491 . S
C2516 H2507 0.950 . S
C2516 C2515 1.398 . S
C2516 C2517 1.391 . S
C2517 H2505 0.950 . S
C2517 C2513 1.393 . S
C2517 C2516 1.391 . S
C2518 H2508 0.950 . S
C2518 C2519 1.386 . S
C2518 C2520 1.391 1_545 S
C2519 C2518 1.386 . S
C2519 C2523 1.393 1_545 S
C2520 H2509 0.950 . S
C2520 C2518 1.391 1_565 S
C2520 C2521 1.400 . S
C2521 C2515 1.491 . S
C2521 C2520 1.400 . S
C2521 C2522 1.398 . S
C2522 H2510 0.950 . S
C2522 C2521 1.398 . S
C2522 C2523 1.391 . S
C2523 H2511 0.950 . S
C2523 C2519 1.393 1_565 S
C2523 C2522 1.391 . S
H2524 C2532 0.950 . S
H2525 C2537 0.950 . S
H2526 C2534 0.950 . S
H2527 C2536 0.950 . S
H2528 C2538 0.950 . S
H2529 C2540 0.950 . S
H2530 C2542 0.950 . S
H2531 C2543 0.950 . S
C2532 H2524 0.950 . S
C2532 C2533 1.386 . S
C2532 C2534 1.391 . S
C2533 C2532 1.386 . S
C2533 C2537 1.393 . S
C2534 H2526 0.950 . S
C2534 C2532 1.391 . S
C2534 C2535 1.400 . S
C2535 C2534 1.400 . S
C2535 C2536 1.398 . S
C2535 C2541 1.491 . S
C2536 H2527 0.950 . S
C2536 C2535 1.398 . S
C2536 C2537 1.391 . S
C2537 H2525 0.950 . S
C2537 C2533 1.393 . S
C2537 C2536 1.391 . S
C2538 H2528 0.950 . S
C2538 C2539 1.386 . S
C2538 C2540 1.391 . S
C2539 C2538 1.386 . S
C2539 C2543 1.393 . S
C2540 H2529 0.950 . S
C2540 C2538 1.391 . S
C2540 C2541 1.400 . S
C2541 C2535 1.491 . S
C2541 C2540 1.400 . S
C2541 C2542 1.398 . S
C2542 H2530 0.950 . S
C2542 C2541 1.398 . S
C2542 C2543 1.391 . S
C2543 H2531 0.950 . S
C2543 C2539 1.393 . S
C2543 C2542 1.391 . S
H2544 C2552 0.950 . S
H2545 C2557 0.950 . S
H2546 C2554 0.950 . S
H2547 C2556 0.950 1_655 S
H2548 C2558 0.950 . S
H2549 C2560 0.950 . S
H2550 C2562 0.950 1_455 S
H2551 C2563 0.950 . S
C2552 H2544 0.950 . S
C2552 C2553 1.386 . S
C2552 C2554 1.391 . S
C2553 C2552 1.386 . S
C2553 C2557 1.393 . S
C2554 H2546 0.950 . S
C2554 C2552 1.391 . S
C2554 C2555 1.400 . S
C2555 C2554 1.400 . S
C2555 C2556 1.398 . S
C2555 C2561 1.491 1_455 S
C2556 H2547 0.950 1_455 S
C2556 C2555 1.398 . S
C2556 C2557 1.391 . S
C2557 H2545 0.950 . S
C2557 C2553 1.393 . S
C2557 C2556 1.391 . S
C2558 H2548 0.950 . S
C2558 C2559 1.386 . S
C2558 C2560 1.391 . S
C2559 C2558 1.386 . S
C2559 C2563 1.393 . S
C2560 H2549 0.950 . S
C2560 C2558 1.391 . S
C2560 C2561 1.400 . S
C2561 C2555 1.491 1_655 S
C2561 C2560 1.400 . S
C2561 C2562 1.398 . S
C2562 H2550 0.950 1_655 S
C2562 C2561 1.398 . S
C2562 C2563 1.391 . S
C2563 H2551 0.950 . S
C2563 C2559 1.393 . S
C2563 C2562 1.391 . S
H2564 C2572 0.950 . S
H2565 C2577 0.950 . S
H2566 C2574 0.950 . S
H2567 C2576 0.950 . S
H2568 C2578 0.950 . S
H2569 C2580 0.950 . S
H2570 C2582 0.950 . S
H2571 C2583 0.950 . S
C2572 H2564 0.950 . S
C2572 C2573 1.386 . S
C2572 C2574 1.391 . S
C2573 C2572 1.386 . S
C2573 C2577 1.393 . S
C2574 H2566 0.950 . S
C2574 C2572 1.391 . S
C2574 C2575 1.400 . S
C2575 C2574 1.400 . S
C2575 C2576 1.398 . S
C2575 C2581 1.491 . S
C2576 H2567 0.950 . S
C2576 C2575 1.398 . S
C2576 C2577 1.391 . S
C2577 H2565 0.950 . S
C2577 C2573 1.393 . S
C2577 C2576 1.391 . S
C2578 H2568 0.950 . S
C2578 C2579 1.386 . S
C2578 C2580 1.391 . S
C2579 C2578 1.386 . S
C2579 C2583 1.393 . S
C2580 H2569 0.950 . S
C2580 C2578 1.391 . S
C2580 C2581 1.400 . S
C2581 C2575 1.491 . S
C2581 C2580 1.400 . S
C2581 C2582 1.398 . S
C2582 H2570 0.950 . S
C2582 C2581 1.398 . S
C2582 C2583 1.391 . S
C2583 H2571 0.950 . S
C2583 C2579 1.393 . S
C2583 C2582 1.391 . S
H2584 C2592 0.950 . S
H2585 C2597 0.950 . S
H2586 C2594 0.950 1_455 S
H2587 C2596 0.950 . S
H2588 C2598 0.950 . S
H2589 C2600 0.950 1_655 S
H2590 C2602 0.950 . S
H2591 C2603 0.950 . S
C2592 H2584 0.950 . S
C2592 C2593 1.386 . S
C2592 C2594 1.391 . S
C2593 C2592 1.386 . S
C2593 C2597 1.393 . S
C2594 H2586 0.950 1_655 S
C2594 C2592 1.391 . S
C2594 C2595 1.400 . S
C2595 C2594 1.400 . S
C2595 C2596 1.398 . S
C2595 C2601 1.491 1_655 S
C2596 H2587 0.950 . S
C2596 C2595 1.398 . S
C2596 C2597 1.391 . S
C2597 H2585 0.950 . S
C2597 C2593 1.393 . S
C2597 C2596 1.391 . S
C2598 H2588 0.950 . S
C2598 C2599 1.386 . S
C2598 C2600 1.391 . S
C2599 C2598 1.386 . S
C2599 C2603 1.393 . S
C2600 H2589 0.950 1_455 S
C2600 C2598 1.391 . S
C2600 C2601 1.400 . S
C2601 C2595 1.491 1_455 S
C2601 C2600 1.400 . S
C2601 C2602 1.398 . S
C2602 H2590 0.950 . S
C2602 C2601 1.398 . S
C2602 C2603 1.391 . S
C2603 H2591 0.950 . S
C2603 C2599 1.393 . S
C2603 C2602 1.391 . S
H2604 C2612 0.950 . S
H2605 C2617 0.950 . S
H2606 C2614 0.967 . S
H2607 C2616 0.950 . S
H2608 C2618 0.950 . S
H2609 C2620 0.967 . S
H2610 C2622 0.950 . S
H2611 C2623 0.950 . S
C2612 H2604 0.950 . S
C2612 C2613 1.386 . S
C2612 C2614 1.391 . S
C2613 C2612 1.386 . S
C2613 C2617 1.393 . S
C2614 H2606 0.967 . S
C2614 C2612 1.391 . S
C2614 C2615 1.400 . S
C2615 C2614 1.400 . S
C2615 C2616 1.398 . S
C2615 C2621 1.491 1_655 S
C2616 H2607 0.950 . S
C2616 C2615 1.398 . S
C2616 C2617 1.391 . S
C2617 H2605 0.950 . S
C2617 C2613 1.393 . S
C2617 C2616 1.391 . S
C2618 H2608 0.950 . S
C2618 C2619 1.386 . S
C2618 C2620 1.391 . S
C2619 C2618 1.386 . S
C2619 C2623 1.393 . S
C2620 H2609 0.967 . S
C2620 C2618 1.391 . S
C2620 C2621 1.400 . S
C2621 C2615 1.491 1_455 S
C2621 C2620 1.400 . S
C2621 C2622 1.398 . S
C2622 H2610 0.950 . S
C2622 C2621 1.398 . S
C2622 C2623 1.391 . S
C2623 H2611 0.950 . S
C2623 C2619 1.393 . S
C2623 C2622 1.391 . S
H2624 C2632 0.950 . S
H2625 C2637 0.950 . S
H2626 C2634 0.950 . S
H2627 C2636 0.950 . S
H2628 C2638 0.950 . S
H2629 C2640 0.950 . S
H2630 C2642 0.950 . S
H2631 C2643 0.950 . S
C2632 H2624 0.950 . S
C2632 C2633 1.386 . S
C2632 C2634 1.391 . S
C2633 C2632 1.386 . S
C2633 C2637 1.393 . S
C2634 H2626 0.950 . S
C2634 C2632 1.391 . S
C2634 C2635 1.400 . S
C2635 C2634 1.400 . S
C2635 C2636 1.398 . S
C2635 C2641 1.491 1_565 S
C2636 H2627 0.950 . S
C2636 C2635 1.398 . S
C2636 C2637 1.391 . S
C2637 H2625 0.950 . S
C2637 C2633 1.393 . S
C2637 C2636 1.391 . S
C2638 H2628 0.950 . S
C2638 C2639 1.386 . S
C2638 C2640 1.391 . S
C2639 C2638 1.386 . S
C2639 C2643 1.393 . S
C2640 H2629 0.950 . S
C2640 C2638 1.391 . S
C2640 C2641 1.400 . S
C2641 C2635 1.491 1_545 S
C2641 C2640 1.400 . S
C2641 C2642 1.398 . S
C2642 H2630 0.950 . S
C2642 C2641 1.398 . S
C2642 C2643 1.391 . S
C2643 H2631 0.950 . S
C2643 C2639 1.393 . S
C2643 C2642 1.391 . S
H2644 C2652 0.950 . S
H2645 C2657 0.950 . S
H2646 C2654 0.952 . S
H2647 C2656 0.950 . S
H2648 C2658 0.950 . S
H2649 C2660 0.952 . S
H2650 C2662 0.950 . S
H2651 C2663 0.950 . S
C2652 H2644 0.950 . S
C2652 C2653 1.386 . S
C2652 C2654 1.391 . S
C2653 C2652 1.386 . S
C2653 C2657 1.393 . S
C2654 H2646 0.952 . S
C2654 C2652 1.391 . S
C2654 C2655 1.400 . S
C2655 C2654 1.400 . S
C2655 C2656 1.398 . S
C2655 C2661 1.491 1_556 S
C2656 H2647 0.950 . S
C2656 C2655 1.398 . S
C2656 C2657 1.391 . S
C2657 H2645 0.950 . S
C2657 C2653 1.393 . S
C2657 C2656 1.391 . S
C2658 H2648 0.950 . S
C2658 C2659 1.386 . S
C2658 C2660 1.391 . S
C2659 C2658 1.386 . S
C2659 C2663 1.393 . S
C2660 H2649 0.952 . S
C2660 C2658 1.391 . S
C2660 C2661 1.400 . S
C2661 C2655 1.491 1_554 S
C2661 C2660 1.400 . S
C2661 C2662 1.398 . S
C2662 H2650 0.950 . S
C2662 C2661 1.398 . S
C2662 C2663 1.391 . S
C2663 H2651 0.950 . S
C2663 C2659 1.393 . S
C2663 C2662 1.391 . S
H2664 C2672 0.950 . S
H2665 C2677 0.950 . S
H2666 C2674 0.950 . S
H2667 C2676 0.950 . S
H2668 C2678 0.950 . S
H2669 C2680 0.950 . S
H2670 C2682 0.950 . S
H2671 C2683 0.950 . S
C2672 H2664 0.950 . S
C2672 C2673 1.386 . S
C2672 C2674 1.391 . S
C2673 C2672 1.386 . S
C2673 C2677 1.393 . S
C2674 H2666 0.950 . S
C2674 C2672 1.391 . S
C2674 C2675 1.400 . S
C2675 C2674 1.400 . S
C2675 C2676 1.398 . S
C2675 C2681 1.491 . S
C2676 H2667 0.950 . S
C2676 C2675 1.398 . S
C2676 C2677 1.391 . S
C2677 H2665 0.950 . S
C2677 C2673 1.393 . S
C2677 C2676 1.391 . S
C2678 H2668 0.950 . S
C2678 C2679 1.386 . S
C2678 C2680 1.391 . S
C2679 C2678 1.386 . S
C2679 C2683 1.393 . S
C2680 H2669 0.950 . S
C2680 C2678 1.391 . S
C2680 C2681 1.400 . S
C2681 C2675 1.491 . S
C2681 C2680 1.400 . S
C2681 C2682 1.398 . S
C2682 H2670 0.950 . S
C2682 C2681 1.398 . S
C2682 C2683 1.391 . S
C2683 H2671 0.950 . S
C2683 C2679 1.393 . S
C2683 C2682 1.391 . S
H2684 C2692 0.950 . S
H2685 C2697 0.950 . S
H2686 C2694 0.950 . S
H2687 C2696 0.950 1_556 S
H2688 C2698 0.950 . S
H2689 C2700 0.950 . S
H2690 C2702 0.950 1_554 S
H2691 C2703 0.950 . S
C2692 H2684 0.950 . S
C2692 C2693 1.386 . S
C2692 C2694 1.391 . S
C2693 C2692 1.386 . S
C2693 C2697 1.393 . S
C2694 H2686 0.950 . S
C2694 C2692 1.391 . S
C2694 C2695 1.400 . S
C2695 C2694 1.400 . S
C2695 C2696 1.398 . S
C2695 C2701 1.491 1_554 S
C2696 H2687 0.950 1_554 S
C2696 C2695 1.398 . S
C2696 C2697 1.391 . S
C2697 H2685 0.950 . S
C2697 C2693 1.393 . S
C2697 C2696 1.391 . S
C2698 H2688 0.950 . S
C2698 C2699 1.386 . S
C2698 C2700 1.391 . S
C2699 C2698 1.386 . S
C2699 C2703 1.393 . S
C2700 H2689 0.950 . S
C2700 C2698 1.391 . S
C2700 C2701 1.400 . S
C2701 C2695 1.491 1_556 S
C2701 C2700 1.400 . S
C2701 C2702 1.398 . S
C2702 H2690 0.950 1_556 S
C2702 C2701 1.398 . S
C2702 C2703 1.391 . S
C2703 H2691 0.950 . S
C2703 C2699 1.393 . S
C2703 C2702 1.391 . S
H2704 C2712 0.950 . S
H2705 C2717 0.950 . S
H2706 C2714 0.950 . S
H2707 C2716 0.950 . S
H2708 C2718 0.950 . S
H2709 C2720 0.950 . S
H2710 C2722 0.950 . S
H2711 C2723 0.950 . S
C2712 H2704 0.950 . S
C2712 C2713 1.386 . S
C2712 C2714 1.391 . S
C2713 C2712 1.386 . S
C2713 C2717 1.393 . S
C2714 H2706 0.950 . S
C2714 C2712 1.391 . S
C2714 C2715 1.400 . S
C2715 C2714 1.400 . S
C2715 C2716 1.398 . S
C2715 C2721 1.491 1_556 S
C2716 H2707 0.950 . S
C2716 C2715 1.398 . S
C2716 C2717 1.391 . S
C2717 H2705 0.950 . S
C2717 C2713 1.393 . S
C2717 C2716 1.391 . S
C2718 H2708 0.950 . S
C2718 C2719 1.386 . S
C2718 C2720 1.391 . S
C2719 C2718 1.386 . S
C2719 C2723 1.393 . S
C2720 H2709 0.950 . S
C2720 C2718 1.391 . S
C2720 C2721 1.400 . S
C2721 C2715 1.491 1_554 S
C2721 C2720 1.400 . S
C2721 C2722 1.398 . S
C2722 H2710 0.950 . S
C2722 C2721 1.398 . S
C2722 C2723 1.391 . S
C2723 H2711 0.950 . S
C2723 C2719 1.393 . S
C2723 C2722 1.391 . S
H2724 C2732 0.950 . S
H2725 C2737 0.950 . S
H2726 C2734 0.950 . S
H2727 C2736 0.950 . S
H2728 C2738 0.950 . S
H2729 C2740 0.950 . S
H2730 C2742 0.950 . S
H2731 C2743 0.950 . S
C2732 H2724 0.950 . S
C2732 C2733 1.386 . S
C2732 C2734 1.391 . S
C2733 C2732 1.386 . S
C2733 C2737 1.393 . S
C2734 H2726 0.950 . S
C2734 C2732 1.391 . S
C2734 C2735 1.400 . S
C2735 C2734 1.400 . S
C2735 C2736 1.398 . S
C2735 C2741 1.491 . S
C2736 H2727 0.950 . S
C2736 C2735 1.398 . S
C2736 C2737 1.391 . S
C2737 H2725 0.950 . S
C2737 C2733 1.393 . S
C2737 C2736 1.391 . S
C2738 H2728 0.950 . S
C2738 C2739 1.386 . S
C2738 C2740 1.391 . S
C2739 C2738 1.386 . S
C2739 C2743 1.393 . S
C2740 H2729 0.950 . S
C2740 C2738 1.391 . S
C2740 C2741 1.400 . S
C2741 C2735 1.491 . S
C2741 C2740 1.400 . S
C2741 C2742 1.398 . S
C2742 H2730 0.950 . S
C2742 C2741 1.398 . S
C2742 C2743 1.391 . S
C2743 H2731 0.950 . S
C2743 C2739 1.393 . S
C2743 C2742 1.391 . S
H2744 C2752 0.950 . S
H2745 C2757 0.950 . S
H2746 C2754 0.950 . S
H2747 C2756 0.950 . S
H2748 C2758 0.950 . S
H2749 C2760 0.950 . S
H2750 C2762 0.950 . S
H2751 C2763 0.950 . S
C2752 H2744 0.950 . S
C2752 C2753 1.386 . S
C2752 C2754 1.391 . S
C2753 C2752 1.386 . S
C2753 C2757 1.393 . S
C2754 H2746 0.950 . S
C2754 C2752 1.391 . S
C2754 C2755 1.400 . S
C2755 C2754 1.400 . S
C2755 C2756 1.398 . S
C2755 C2761 1.491 . S
C2756 H2747 0.950 . S
C2756 C2755 1.398 . S
C2756 C2757 1.391 . S
C2757 H2745 0.950 . S
C2757 C2753 1.393 . S
C2757 C2756 1.391 . S
C2758 H2748 0.950 . S
C2758 C2759 1.386 . S
C2758 C2760 1.391 . S
C2759 C2758 1.386 . S
C2759 C2763 1.393 . S
C2760 H2749 0.950 . S
C2760 C2758 1.391 . S
C2760 C2761 1.400 . S
C2761 C2755 1.491 . S
C2761 C2760 1.400 . S
C2761 C2762 1.398 . S
C2762 H2750 0.950 . S
C2762 C2761 1.398 . S
C2762 C2763 1.391 . S
C2763 H2751 0.950 . S
C2763 C2759 1.393 . S
C2763 C2762 1.391 . S
H2764 C2772 0.950 . S
H2765 C2777 0.950 . S
H2766 C2774 0.950 . S
H2767 C2776 0.950 . S
H2768 C2778 0.950 . S
H2769 C2780 0.950 . S
H2770 C2782 0.950 . S
H2771 C2783 0.950 . S
C2772 H2764 0.950 . S
C2772 C2773 1.386 . S
C2772 C2774 1.391 . S
C2773 C2772 1.386 . S
C2773 C2777 1.393 . S
C2774 H2766 0.950 . S
C2774 C2772 1.391 . S
C2774 C2775 1.400 . S
C2775 C2774 1.400 . S
C2775 C2776 1.398 . S
C2775 C2781 1.491 . S
C2776 H2767 0.950 . S
C2776 C2775 1.398 . S
C2776 C2777 1.391 . S
C2777 H2765 0.950 . S
C2777 C2773 1.393 . S
C2777 C2776 1.391 . S
C2778 H2768 0.950 . S
C2778 C2779 1.386 . S
C2778 C2780 1.391 . S
C2779 C2778 1.386 . S
C2779 C2783 1.393 . S
C2780 H2769 0.950 . S
C2780 C2778 1.391 . S
C2780 C2781 1.400 . S
C2781 C2775 1.491 . S
C2781 C2780 1.400 . S
C2781 C2782 1.398 . S
C2782 H2770 0.950 . S
C2782 C2781 1.398 . S
C2782 C2783 1.391 . S
C2783 H2771 0.950 . S
C2783 C2779 1.393 . S
C2783 C2782 1.391 . S
H2784 C2792 0.950 . S
H2785 C2797 0.950 . S
H2786 C2794 0.950 . S
H2787 C2796 0.950 . S
H2788 C2798 0.950 . S
H2789 C2800 0.950 . S
H2790 C2802 0.950 . S
H2791 C2803 0.950 . S
C2792 H2784 0.950 . S
C2792 C2793 1.386 . S
C2792 C2794 1.391 . S
C2793 C2792 1.386 . S
C2793 C2797 1.393 . S
C2794 H2786 0.950 . S
C2794 C2792 1.391 . S
C2794 C2795 1.400 . S
C2795 C2794 1.400 . S
C2795 C2796 1.398 . S
C2795 C2801 1.491 . S
C2796 H2787 0.950 . S
C2796 C2795 1.398 . S
C2796 C2797 1.391 . S
C2797 H2785 0.950 . S
C2797 C2793 1.393 . S
C2797 C2796 1.391 . S
C2798 H2788 0.950 . S
C2798 C2799 1.386 . S
C2798 C2800 1.391 . S
C2799 C2798 1.386 . S
C2799 C2803 1.393 . S
C2800 H2789 0.950 . S
C2800 C2798 1.391 . S
C2800 C2801 1.400 . S
C2801 C2795 1.491 . S
C2801 C2800 1.400 . S
C2801 C2802 1.398 . S
C2802 H2790 0.950 . S
C2802 C2801 1.398 . S
C2802 C2803 1.391 . S
C2803 H2791 0.950 . S
C2803 C2799 1.393 . S
C2803 C2802 1.391 . S
H2804 C2812 0.950 . S
H2805 C2817 0.950 . S
H2806 C2814 0.950 . S
H2807 C2816 0.950 . S
H2808 C2818 0.950 . S
H2809 C2820 0.950 . S
H2810 C2822 0.950 . S
H2811 C2823 0.950 . S
C2812 H2804 0.950 . S
C2812 C2813 1.386 . S
C2812 C2814 1.391 . S
C2813 C2812 1.386 . S
C2813 C2817 1.393 . S
C2814 H2806 0.950 . S
C2814 C2812 1.391 . S
C2814 C2815 1.400 . S
C2815 C2814 1.400 . S
C2815 C2816 1.398 . S
C2815 C2821 1.491 1_545 S
C2816 H2807 0.950 . S
C2816 C2815 1.398 . S
C2816 C2817 1.391 . S
C2817 H2805 0.950 . S
C2817 C2813 1.393 . S
C2817 C2816 1.391 . S
C2818 H2808 0.950 . S
C2818 C2819 1.386 . S
C2818 C2820 1.391 . S
C2819 C2818 1.386 . S
C2819 C2823 1.393 . S
C2820 H2809 0.950 . S
C2820 C2818 1.391 . S
C2820 C2821 1.400 . S
C2821 C2815 1.491 1_565 S
C2821 C2820 1.400 . S
C2821 C2822 1.398 . S
C2822 H2810 0.950 . S
C2822 C2821 1.398 . S
C2822 C2823 1.391 . S
C2823 H2811 0.950 . S
C2823 C2819 1.393 . S
C2823 C2822 1.391 . S
H2824 C2832 0.950 . S
H2825 C2837 0.950 . S
H2826 C2834 0.950 . S
H2827 C2836 0.950 . S
H2828 C2838 0.950 . S
H2829 C2840 0.950 . S
H2830 C2842 0.950 . S
H2831 C2843 0.950 . S
C2832 H2824 0.950 . S
C2832 C2833 1.386 . S
C2832 C2834 1.391 . S
C2833 C2832 1.386 . S
C2833 C2837 1.393 . S
C2834 H2826 0.950 . S
C2834 C2832 1.391 . S
C2834 C2835 1.400 . S
C2835 C2834 1.400 . S
C2835 C2836 1.398 . S
C2835 C2841 1.491 . S
C2836 H2827 0.950 . S
C2836 C2835 1.398 . S
C2836 C2837 1.391 . S
C2837 H2825 0.950 . S
C2837 C2833 1.393 . S
C2837 C2836 1.391 . S
C2838 H2828 0.950 . S
C2838 C2839 1.386 . S
C2838 C2840 1.391 . S
C2839 C2838 1.386 . S
C2839 C2843 1.393 . S
C2840 H2829 0.950 . S
C2840 C2838 1.391 . S
C2840 C2841 1.400 . S
C2841 C2835 1.491 . S
C2841 C2840 1.400 . S
C2841 C2842 1.398 . S
C2842 H2830 0.950 . S
C2842 C2841 1.398 . S
C2842 C2843 1.391 . S
C2843 H2831 0.950 . S
C2843 C2839 1.393 . S
C2843 C2842 1.391 . S
H2844 C2852 0.950 . S
H2845 C2857 0.950 . S
H2846 C2854 0.954 1_455 S
H2847 C2856 0.950 . S
H2848 C2858 0.950 . S
H2849 C2860 0.954 1_655 S
H2850 C2862 0.950 . S
H2851 C2863 0.950 . S
C2852 H2844 0.950 . S
C2852 C2853 1.386 . S
C2852 C2854 1.389 . S
C2853 C2852 1.386 . S
C2853 C2857 1.393 . S
C2854 H2846 0.954 1_655 S
C2854 C2852 1.389 . S
C2854 C2855 1.399 . S
C2855 C2854 1.399 . S
C2855 C2856 1.398 . S
C2855 C2861 1.491 1_655 S
C2856 H2847 0.950 . S
C2856 C2855 1.398 . S
C2856 C2857 1.391 . S
C2857 H2845 0.950 . S
C2857 C2853 1.393 . S
C2857 C2856 1.391 . S
C2858 H2848 0.950 . S
C2858 C2859 1.386 . S
C2858 C2860 1.389 . S
C2859 C2858 1.386 . S
C2859 C2863 1.393 . S
C2860 H2849 0.954 1_455 S
C2860 C2858 1.389 . S
C2860 C2861 1.399 . S
C2861 C2855 1.491 1_455 S
C2861 C2860 1.399 . S
C2861 C2862 1.398 . S
C2862 H2850 0.950 . S
C2862 C2861 1.398 . S
C2862 C2863 1.391 . S
C2863 H2851 0.950 . S
C2863 C2859 1.393 . S
C2863 C2862 1.391 . S
H2864 C2872 0.950 . S
H2865 C2877 0.950 . S
H2866 C2874 0.950 . S
H2867 C2876 0.950 . S
H2868 C2878 0.950 . S
H2869 C2880 0.950 . S
H2870 C2882 0.950 . S
H2871 C2883 0.950 . S
C2872 H2864 0.950 . S
C2872 C2873 1.386 . S
C2872 C2874 1.391 . S
C2873 C2872 1.386 . S
C2873 C2877 1.393 . S
C2874 H2866 0.950 . S
C2874 C2872 1.391 . S
C2874 C2875 1.400 . S
C2875 C2874 1.400 . S
C2875 C2876 1.398 . S
C2875 C2881 1.491 . S
C2876 H2867 0.950 . S
C2876 C2875 1.398 . S
C2876 C2877 1.391 . S
C2877 H2865 0.950 . S
C2877 C2873 1.393 . S
C2877 C2876 1.391 . S
C2878 H2868 0.950 . S
C2878 C2879 1.386 . S
C2878 C2880 1.391 . S
C2879 C2878 1.386 . S
C2879 C2883 1.393 . S
C2880 H2869 0.950 . S
C2880 C2878 1.391 . S
C2880 C2881 1.400 . S
C2881 C2875 1.491 . S
C2881 C2880 1.400 . S
C2881 C2882 1.398 . S
C2882 H2870 0.950 . S
C2882 C2881 1.398 . S
C2882 C2883 1.391 . S
C2883 H2871 0.950 . S
C2883 C2879 1.393 . S
C2883 C2882 1.391 . S
H2884 C2892 0.950 . S
H2885 C2897 0.950 . S
H2886 C2894 0.950 . S
H2887 C2896 0.950 . S
H2888 C2898 0.950 . S
H2889 C2900 0.950 . S
H2890 C2902 0.950 . S
H2891 C2903 0.950 . S
C2892 H2884 0.950 . S
C2892 C2893 1.386 . S
C2892 C2894 1.391 . S
C2893 C2892 1.386 . S
C2893 C2897 1.393 . S
C2894 H2886 0.950 . S
C2894 C2892 1.391 . S
C2894 C2895 1.400 . S
C2895 C2894 1.400 . S
C2895 C2896 1.398 . S
C2895 C2901 1.491 . S
C2896 H2887 0.950 . S
C2896 C2895 1.398 . S
C2896 C2897 1.391 . S
C2897 H2885 0.950 . S
C2897 C2893 1.393 . S
C2897 C2896 1.391 . S
C2898 H2888 0.950 . S
C2898 C2899 1.386 . S
C2898 C2900 1.391 . S
C2899 C2898 1.386 . S
C2899 C2903 1.393 . S
C2900 H2889 0.950 . S
C2900 C2898 1.391 . S
C2900 C2901 1.400 . S
C2901 C2895 1.491 . S
C2901 C2900 1.400 . S
C2901 C2902 1.398 . S
C2902 H2890 0.950 . S
C2902 C2901 1.398 . S
C2902 C2903 1.391 . S
C2903 H2891 0.950 . S
C2903 C2899 1.393 . S
C2903 C2902 1.391 . S
H2904 C2912 0.950 . S
H2905 C2917 0.950 . S
H2906 C2914 0.950 . S
H2907 C2916 0.950 . S
H2908 C2918 0.950 . S
H2909 C2920 0.950 . S
H2910 C2922 0.950 . S
H2911 C2923 0.950 . S
C2912 H2904 0.950 . S
C2912 C2913 1.386 . S
C2912 C2914 1.391 . S
C2913 C2912 1.386 . S
C2913 C2917 1.393 . S
C2914 H2906 0.950 . S
C2914 C2912 1.391 . S
C2914 C2915 1.400 . S
C2915 C2914 1.400 . S
C2915 C2916 1.398 . S
C2915 C2921 1.491 . S
C2916 H2907 0.950 . S
C2916 C2915 1.398 . S
C2916 C2917 1.391 . S
C2917 H2905 0.950 . S
C2917 C2913 1.393 . S
C2917 C2916 1.391 . S
C2918 H2908 0.950 . S
C2918 C2919 1.386 . S
C2918 C2920 1.391 . S
C2919 C2918 1.386 . S
C2919 C2923 1.393 . S
C2920 H2909 0.950 . S
C2920 C2918 1.391 . S
C2920 C2921 1.400 . S
C2921 C2915 1.491 . S
C2921 C2920 1.400 . S
C2921 C2922 1.398 . S
C2922 H2910 0.950 . S
C2922 C2921 1.398 . S
C2922 C2923 1.391 . S
C2923 H2911 0.950 . S
C2923 C2919 1.393 . S
C2923 C2922 1.391 . S
H2924 C2932 0.950 . S
H2925 C2937 0.950 . S
H2926 C2934 0.950 . S
H2927 C2936 0.950 . S
H2928 C2938 0.950 . S
H2929 C2940 0.950 . S
H2930 C2942 0.950 . S
H2931 C2943 0.950 . S
C2932 H2924 0.950 . S
C2932 C2933 1.386 . S
C2932 C2934 1.391 . S
C2933 C2932 1.386 . S
C2933 C2937 1.393 . S
C2934 H2926 0.950 . S
C2934 C2932 1.391 . S
C2934 C2935 1.400 . S
C2935 C2934 1.400 . S
C2935 C2936 1.398 . S
C2935 C2941 1.491 . S
C2936 H2927 0.950 . S
C2936 C2935 1.398 . S
C2936 C2937 1.391 . S
C2937 H2925 0.950 . S
C2937 C2933 1.393 . S
C2937 C2936 1.391 . S
C2938 H2928 0.950 . S
C2938 C2939 1.386 . S
C2938 C2940 1.391 . S
C2939 C2938 1.386 . S
C2939 C2943 1.393 . S
C2940 H2929 0.950 . S
C2940 C2938 1.391 . S
C2940 C2941 1.400 . S
C2941 C2935 1.491 . S
C2941 C2940 1.400 . S
C2941 C2942 1.398 . S
C2942 H2930 0.950 . S
C2942 C2941 1.398 . S
C2942 C2943 1.391 . S
C2943 H2931 0.950 . S
C2943 C2939 1.393 . S
C2943 C2942 1.391 . S
H2944 C2952 0.950 . S
H2945 C2957 0.950 . S
H2946 C2954 0.950 . S
H2947 C2956 0.950 . S
H2948 C2958 0.950 . S
H2949 C2960 0.950 . S
H2950 C2962 0.950 . S
H2951 C2963 0.950 . S
C2952 H2944 0.950 . S
C2952 C2953 1.386 . S
C2952 C2954 1.391 . S
C2953 C2952 1.386 . S
C2953 C2957 1.393 . S
C2954 H2946 0.950 . S
C2954 C2952 1.391 . S
C2954 C2955 1.400 . S
C2955 C2954 1.400 . S
C2955 C2956 1.398 . S
C2955 C2961 1.491 1_565 S
C2956 H2947 0.950 . S
C2956 C2955 1.398 . S
C2956 C2957 1.391 . S
C2957 H2945 0.950 . S
C2957 C2953 1.393 . S
C2957 C2956 1.391 . S
C2958 H2948 0.950 . S
C2958 C2959 1.386 . S
C2958 C2960 1.391 . S
C2959 C2958 1.386 . S
C2959 C2963 1.393 . S
C2960 H2949 0.950 . S
C2960 C2958 1.391 . S
C2960 C2961 1.400 . S
C2961 C2955 1.491 1_545 S
C2961 C2960 1.400 . S
C2961 C2962 1.398 . S
C2962 H2950 0.950 . S
C2962 C2961 1.398 . S
C2962 C2963 1.391 . S
C2963 H2951 0.950 . S
C2963 C2959 1.393 . S
C2963 C2962 1.391 . S
H2964 C2972 0.950 . S
H2965 C2977 0.950 . S
H2966 C2974 0.950 . S
H2967 C2976 0.950 . S
H2968 C2978 0.950 . S
H2969 C2980 0.950 . S
H2970 C2982 0.950 . S
H2971 C2983 0.950 . S
C2972 H2964 0.950 . S
C2972 C2973 1.386 . S
C2972 C2974 1.391 . S
C2973 C2972 1.386 . S
C2973 C2977 1.393 . S
C2974 H2966 0.950 . S
C2974 C2972 1.391 . S
C2974 C2975 1.400 . S
C2975 C2974 1.400 . S
C2975 C2976 1.398 . S
C2975 C2981 1.491 . S
C2976 H2967 0.950 . S
C2976 C2975 1.398 . S
C2976 C2977 1.391 . S
C2977 H2965 0.950 . S
C2977 C2973 1.393 . S
C2977 C2976 1.391 . S
C2978 H2968 0.950 . S
C2978 C2979 1.386 . S
C2978 C2980 1.391 . S
C2979 C2978 1.386 . S
C2979 C2983 1.393 . S
C2980 H2969 0.950 . S
C2980 C2978 1.391 . S
C2980 C2981 1.400 . S
C2981 C2975 1.491 . S
C2981 C2980 1.400 . S
C2981 C2982 1.398 . S
C2982 H2970 0.950 . S
C2982 C2981 1.398 . S
C2982 C2983 1.391 . S
C2983 H2971 0.950 . S
C2983 C2979 1.393 . S
C2983 C2982 1.391 . S
H2984 C2992 0.950 . S
H2985 C2997 0.950 . S
H2986 C2994 0.950 1_556 S
H2987 C2996 0.950 . S
H2988 C2998 0.950 . S
H2989 C3000 0.950 1_554 S
H2990 C3002 0.950 . S
H2991 C3003 0.950 . S
C2992 H2984 0.950 . S
C2992 C2993 1.386 . S
C2992 C2994 1.391 . S
C2993 C2992 1.386 . S
C2993 C2997 1.393 . S
C2994 H2986 0.950 1_554 S
C2994 C2992 1.391 . S
C2994 C2995 1.400 . S
C2995 C2994 1.400 . S
C2995 C2996 1.398 . S
C2995 C3001 1.491 1_554 S
C2996 H2987 0.950 . S
C2996 C2995 1.398 . S
C2996 C2997 1.391 . S
C2997 H2985 0.950 . S
C2997 C2993 1.393 . S
C2997 C2996 1.391 . S
C2998 H2988 0.950 . S
C2998 C2999 1.386 . S
C2998 C3000 1.391 . S
C2999 C2998 1.386 . S
C2999 C3003 1.393 . S
C3000 H2989 0.950 1_556 S
C3000 C2998 1.391 . S
C3000 C3001 1.400 . S
C3001 C2995 1.491 1_556 S
C3001 C3000 1.400 . S
C3001 C3002 1.398 . S
C3002 H2990 0.950 . S
C3002 C3001 1.398 . S
C3002 C3003 1.391 . S
C3003 H2991 0.950 . S
C3003 C2999 1.393 . S
C3003 C3002 1.391 . S
H3004 C3012 0.950 . S
H3005 C3017 0.950 . S
H3006 C3014 0.965 . S
H3007 C3016 0.950 . S
H3008 C3018 0.950 . S
H3009 C3020 0.965 . S
H3010 C3022 0.950 . S
H3011 C3023 0.950 . S
C3012 H3004 0.950 . S
C3012 C3013 1.386 . S
C3012 C3014 1.382 1_565 S
C3013 C3012 1.386 . S
C3013 C3017 1.393 . S
C3014 H3006 0.965 . S
C3014 C3012 1.382 1_545 S
C3014 C3015 1.395 1_545 S
C3015 C3014 1.395 1_565 S
C3015 C3016 1.398 . S
C3015 C3021 1.491 1_565 S
C3016 H3007 0.950 . S
C3016 C3015 1.398 . S
C3016 C3017 1.391 . S
C3017 H3005 0.950 . S
C3017 C3013 1.393 . S
C3017 C3016 1.391 . S
C3018 H3008 0.950 . S
C3018 C3019 1.386 . S
C3018 C3020 1.382 1_545 S
C3019 C3018 1.386 . S
C3019 C3023 1.393 . S
C3020 H3009 0.965 . S
C3020 C3018 1.382 1_565 S
C3020 C3021 1.395 1_565 S
C3021 C3015 1.491 1_545 S
C3021 C3020 1.395 1_545 S
C3021 C3022 1.398 . S
C3022 H3010 0.950 . S
C3022 C3021 1.398 . S
C3022 C3023 1.391 . S
C3023 H3011 0.950 . S
C3023 C3019 1.393 . S
C3023 C3022 1.391 . S
H3024 C3032 0.950 . S
H3025 C3037 0.950 . S
H3026 C3034 0.950 . S
H3027 C3036 0.950 . S
H3028 C3038 0.950 . S
H3029 C3040 0.950 . S
H3030 C3042 0.950 . S
H3031 C3043 0.950 . S
C3032 H3024 0.950 . S
C3032 C3033 1.386 . S
C3032 C3034 1.391 . S
C3033 C3032 1.386 . S
C3033 C3037 1.393 . S
C3034 H3026 0.950 . S
C3034 C3032 1.391 . S
C3034 C3035 1.400 . S
C3035 C3034 1.400 . S
C3035 C3036 1.398 . S
C3035 C3041 1.491 . S
C3036 H3027 0.950 . S
C3036 C3035 1.398 . S
C3036 C3037 1.391 . S
C3037 H3025 0.950 . S
C3037 C3033 1.393 . S
C3037 C3036 1.391 . S
C3038 H3028 0.950 . S
C3038 C3039 1.386 . S
C3038 C3040 1.391 . S
C3039 C3038 1.386 . S
C3039 C3043 1.393 . S
C3040 H3029 0.950 . S
C3040 C3038 1.391 . S
C3040 C3041 1.400 . S
C3041 C3035 1.491 . S
C3041 C3040 1.400 . S
C3041 C3042 1.398 . S
C3042 H3030 0.950 . S
C3042 C3041 1.398 . S
C3042 C3043 1.391 . S
C3043 H3031 0.950 . S
C3043 C3039 1.393 . S
C3043 C3042 1.391 . S
H3044 C3052 0.950 . S
H3045 C3057 0.950 . S
H3046 C3054 0.950 . S
H3047 C3056 0.950 . S
H3048 C3058 0.950 . S
H3049 C3060 0.950 . S
H3050 C3062 0.950 . S
H3051 C3063 0.950 . S
C3052 H3044 0.950 . S
C3052 C3053 1.386 . S
C3052 C3054 1.391 . S
C3053 C3052 1.386 . S
C3053 C3057 1.393 . S
C3054 H3046 0.950 . S
C3054 C3052 1.391 . S
C3054 C3055 1.400 . S
C3055 C3054 1.400 . S
C3055 C3056 1.398 . S
C3055 C3061 1.491 . S
C3056 H3047 0.950 . S
C3056 C3055 1.398 . S
C3056 C3057 1.391 . S
C3057 H3045 0.950 . S
C3057 C3053 1.393 . S
C3057 C3056 1.391 . S
C3058 H3048 0.950 . S
C3058 C3059 1.386 . S
C3058 C3060 1.391 . S
C3059 C3058 1.386 . S
C3059 C3063 1.393 . S
C3060 H3049 0.950 . S
C3060 C3058 1.391 . S
C3060 C3061 1.400 . S
C3061 C3055 1.491 . S
C3061 C3060 1.400 . S
C3061 C3062 1.398 . S
C3062 H3050 0.950 . S
C3062 C3061 1.398 . S
C3062 C3063 1.391 . S
C3063 H3051 0.950 . S
C3063 C3059 1.393 . S
C3063 C3062 1.391 . S
H3064 C3072 0.950 . S
H3065 C3077 0.950 . S
H3066 C3074 0.950 . S
H3067 C3076 0.950 . S
H3068 C3078 0.950 . S
H3069 C3080 0.950 . S
H3070 C3082 0.950 . S
H3071 C3083 0.950 . S
C3072 H3064 0.950 . S
C3072 C3073 1.386 . S
C3072 C3074 1.391 . S
C3073 C3072 1.386 . S
C3073 C3077 1.393 . S
C3074 H3066 0.950 . S
C3074 C3072 1.391 . S
C3074 C3075 1.400 . S
C3075 C3074 1.400 . S
C3075 C3076 1.398 . S
C3075 C3081 1.491 . S
C3076 H3067 0.950 . S
C3076 C3075 1.398 . S
C3076 C3077 1.391 . S
C3077 H3065 0.950 . S
C3077 C3073 1.393 . S
C3077 C3076 1.391 . S
C3078 H3068 0.950 . S
C3078 C3079 1.386 . S
C3078 C3080 1.391 . S
C3079 C3078 1.386 . S
C3079 C3083 1.393 . S
C3080 H3069 0.950 . S
C3080 C3078 1.391 . S
C3080 C3081 1.400 . S
C3081 C3075 1.491 . S
C3081 C3080 1.400 . S
C3081 C3082 1.398 . S
C3082 H3070 0.950 . S
C3082 C3081 1.398 . S
C3082 C3083 1.391 . S
C3083 H3071 0.950 . S
C3083 C3079 1.393 . S
C3083 C3082 1.391 . S
H3084 C3092 0.950 . S
H3085 C3097 0.950 . S
H3086 C3094 0.950 . S
H3087 C3096 0.950 . S
H3088 C3098 0.950 . S
H3089 C3100 0.950 . S
H3090 C3102 0.950 . S
H3091 C3103 0.950 . S
C3092 H3084 0.950 . S
C3092 C3093 1.386 . S
C3092 C3094 1.391 . S
C3093 C3092 1.386 . S
C3093 C3097 1.393 . S
C3094 H3086 0.950 . S
C3094 C3092 1.391 . S
C3094 C3095 1.400 . S
C3095 C3094 1.400 . S
C3095 C3096 1.398 . S
C3095 C3101 1.491 . S
C3096 H3087 0.950 . S
C3096 C3095 1.398 . S
C3096 C3097 1.391 . S
C3097 H3085 0.950 . S
C3097 C3093 1.393 . S
C3097 C3096 1.391 . S
C3098 H3088 0.950 . S
C3098 C3099 1.386 . S
C3098 C3100 1.391 . S
C3099 C3098 1.386 . S
C3099 C3103 1.393 . S
C3100 H3089 0.950 . S
C3100 C3098 1.391 . S
C3100 C3101 1.400 . S
C3101 C3095 1.491 . S
C3101 C3100 1.400 . S
C3101 C3102 1.398 . S
C3102 H3090 0.950 . S
C3102 C3101 1.398 . S
C3102 C3103 1.391 . S
C3103 H3091 0.950 . S
C3103 C3099 1.393 . S
C3103 C3102 1.391 . S
H3104 C3112 0.950 . S
H3105 C3117 0.950 . S
H3106 C3114 0.950 . S
H3107 C3116 0.950 . S
H3108 C3118 0.950 . S
H3109 C3120 0.950 . S
H3110 C3122 0.950 . S
H3111 C3123 0.950 . S
C3112 H3104 0.950 . S
C3112 C3113 1.386 . S
C3112 C3114 1.391 . S
C3113 C3112 1.386 . S
C3113 C3117 1.393 . S
C3114 H3106 0.950 . S
C3114 C3112 1.391 . S
C3114 C3115 1.400 . S
C3115 C3114 1.400 . S
C3115 C3116 1.398 . S
C3115 C3121 1.491 . S
C3116 H3107 0.950 . S
C3116 C3115 1.398 . S
C3116 C3117 1.391 . S
C3117 H3105 0.950 . S
C3117 C3113 1.393 . S
C3117 C3116 1.391 . S
C3118 H3108 0.950 . S
C3118 C3119 1.386 . S
C3118 C3120 1.391 . S
C3119 C3118 1.386 . S
C3119 C3123 1.393 . S
C3120 H3109 0.950 . S
C3120 C3118 1.391 . S
C3120 C3121 1.400 . S
C3121 C3115 1.491 . S
C3121 C3120 1.400 . S
C3121 C3122 1.398 . S
C3122 H3110 0.950 . S
C3122 C3121 1.398 . S
C3122 C3123 1.391 . S
C3123 H3111 0.950 . S
C3123 C3119 1.393 . S
C3123 C3122 1.391 . S
H3124 C3132 0.950 . S
H3125 C3137 0.950 . S
H3126 C3134 0.950 . S
H3127 C3136 0.950 . S
H3128 C3138 0.950 . S
H3129 C3140 0.950 . S
H3130 C3142 0.950 . S
H3131 C3143 0.950 . S
C3132 H3124 0.950 . S
C3132 C3133 1.386 . S
C3132 C3134 1.391 . S
C3133 C3132 1.386 . S
C3133 C3137 1.393 . S
C3134 H3126 0.950 . S
C3134 C3132 1.391 . S
C3134 C3135 1.400 . S
C3135 C3134 1.400 . S
C3135 C3136 1.398 . S
C3135 C3141 1.491 . S
C3136 H3127 0.950 . S
C3136 C3135 1.398 . S
C3136 C3137 1.391 . S
C3137 H3125 0.950 . S
C3137 C3133 1.393 . S
C3137 C3136 1.391 . S
C3138 H3128 0.950 . S
C3138 C3139 1.386 . S
C3138 C3140 1.391 . S
C3139 C3138 1.386 . S
C3139 C3143 1.393 . S
C3140 H3129 0.950 . S
C3140 C3138 1.391 . S
C3140 C3141 1.400 . S
C3141 C3135 1.491 . S
C3141 C3140 1.400 . S
C3141 C3142 1.398 . S
C3142 H3130 0.950 . S
C3142 C3141 1.398 . S
C3142 C3143 1.391 . S
C3143 H3131 0.950 . S
C3143 C3139 1.393 . S
C3143 C3142 1.391 . S
H3144 C3152 0.950 . S
H3145 C3157 0.950 . S
H3146 C3154 0.950 . S
H3147 C3156 0.950 . S
H3148 C3158 0.950 . S
H3149 C3160 0.950 . S
H3150 C3162 0.950 . S
H3151 C3163 0.950 . S
C3152 H3144 0.950 . S
C3152 C3153 1.386 . S
C3152 C3154 1.391 . S
C3153 C3152 1.386 . S
C3153 C3157 1.393 . S
C3154 H3146 0.950 . S
C3154 C3152 1.391 . S
C3154 C3155 1.400 . S
C3155 C3154 1.400 . S
C3155 C3156 1.398 . S
C3155 C3161 1.491 . S
C3156 H3147 0.950 . S
C3156 C3155 1.398 . S
C3156 C3157 1.391 . S
C3157 H3145 0.950 . S
C3157 C3153 1.393 . S
C3157 C3156 1.391 . S
C3158 H3148 0.950 . S
C3158 C3159 1.386 . S
C3158 C3160 1.391 . S
C3159 C3158 1.386 . S
C3159 C3163 1.393 . S
C3160 H3149 0.950 . S
C3160 C3158 1.391 . S
C3160 C3161 1.400 . S
C3161 C3155 1.491 . S
C3161 C3160 1.400 . S
C3161 C3162 1.398 . S
C3162 H3150 0.950 . S
C3162 C3161 1.398 . S
C3162 C3163 1.391 . S
C3163 H3151 0.950 . S
C3163 C3159 1.393 . S
C3163 C3162 1.391 . S
H3164 C3172 0.950 . S
H3165 C3177 0.950 . S
H3166 C3174 0.950 . S
H3167 C3176 0.950 . S
H3168 C3178 0.950 . S
H3169 C3180 0.950 . S
H3170 C3182 0.950 . S
H3171 C3183 0.950 . S
C3172 H3164 0.950 . S
C3172 C3173 1.386 . S
C3172 C3174 1.391 . S
C3173 C3172 1.386 . S
C3173 C3177 1.393 . S
C3174 H3166 0.950 . S
C3174 C3172 1.391 . S
C3174 C3175 1.400 . S
C3175 C3174 1.400 . S
C3175 C3176 1.398 . S
C3175 C3181 1.491 . S
C3176 H3167 0.950 . S
C3176 C3175 1.398 . S
C3176 C3177 1.391 . S
C3177 H3165 0.950 . S
C3177 C3173 1.393 . S
C3177 C3176 1.391 . S
C3178 H3168 0.950 . S
C3178 C3179 1.386 . S
C3178 C3180 1.391 . S
C3179 C3178 1.386 . S
C3179 C3183 1.393 . S
C3180 H3169 0.950 . S
C3180 C3178 1.391 . S
C3180 C3181 1.400 . S
C3181 C3175 1.491 . S
C3181 C3180 1.400 . S
C3181 C3182 1.398 . S
C3182 H3170 0.950 . S
C3182 C3181 1.398 . S
C3182 C3183 1.391 . S
C3183 H3171 0.950 . S
C3183 C3179 1.393 . S
C3183 C3182 1.391 . S
H3184 C3192 0.950 . S
H3185 C3197 0.950 . S
H3186 C3194 0.950 . S
H3187 C3196 0.950 . S
H3188 C3198 0.950 . S
H3189 C3200 0.950 . S
H3190 C3202 0.950 . S
H3191 C3203 0.950 . S
C3192 H3184 0.950 . S
C3192 C3193 1.386 . S
C3192 C3194 1.391 . S
C3193 C3192 1.386 . S
C3193 C3197 1.393 . S
C3194 H3186 0.950 . S
C3194 C3192 1.391 . S
C3194 C3195 1.400 . S
C3195 C3194 1.400 . S
C3195 C3196 1.398 . S
C3195 C3201 1.491 . S
C3196 H3187 0.950 . S
C3196 C3195 1.398 . S
C3196 C3197 1.391 . S
C3197 H3185 0.950 . S
C3197 C3193 1.393 . S
C3197 C3196 1.391 . S
C3198 H3188 0.950 . S
C3198 C3199 1.386 . S
C3198 C3200 1.391 . S
C3199 C3198 1.386 . S
C3199 C3203 1.393 . S
C3200 H3189 0.950 . S
C3200 C3198 1.391 . S
C3200 C3201 1.400 . S
C3201 C3195 1.491 . S
C3201 C3200 1.400 . S
C3201 C3202 1.398 . S
C3202 H3190 0.950 . S
C3202 C3201 1.398 . S
C3202 C3203 1.391 . S
C3203 H3191 0.950 . S
C3203 C3199 1.393 . S
C3203 C3202 1.391 . S
H3204 C3212 0.950 . S
H3205 C3217 0.950 . S
H3206 C3214 0.950 . S
H3207 C3216 0.950 . S
H3208 C3218 0.950 . S
H3209 C3220 0.950 . S
H3210 C3222 0.950 . S
H3211 C3223 0.950 . S
C3212 H3204 0.950 . S
C3212 C3213 1.386 . S
C3212 C3214 1.391 . S
C3213 C3212 1.386 . S
C3213 C3217 1.393 . S
C3214 H3206 0.950 . S
C3214 C3212 1.391 . S
C3214 C3215 1.400 . S
C3215 C3214 1.400 . S
C3215 C3216 1.398 . S
C3215 C3221 1.491 . S
C3216 H3207 0.950 . S
C3216 C3215 1.398 . S
C3216 C3217 1.391 . S
C3217 H3205 0.950 . S
C3217 C3213 1.393 . S
C3217 C3216 1.391 . S
C3218 H3208 0.950 . S
C3218 C3219 1.386 . S
C3218 C3220 1.391 . S
C3219 C3218 1.386 . S
C3219 C3223 1.393 . S
C3220 H3209 0.950 . S
C3220 C3218 1.391 . S
C3220 C3221 1.400 . S
C3221 C3215 1.491 . S
C3221 C3220 1.400 . S
C3221 C3222 1.398 . S
C3222 H3210 0.950 . S
C3222 C3221 1.398 . S
C3222 C3223 1.391 . S
C3223 H3211 0.950 . S
C3223 C3219 1.393 . S
C3223 C3222 1.391 . S
H3224 C3232 0.950 . S
H3225 C3237 0.950 . S
H3226 C3234 0.950 . S
H3227 C3236 0.950 . S
H3228 C3238 0.950 . S
H3229 C3240 0.950 . S
H3230 C3242 0.950 . S
H3231 C3243 0.950 . S
C3232 H3224 0.950 . S
C3232 C3233 1.386 . S
C3232 C3234 1.391 . S
C3233 C3232 1.386 . S
C3233 C3237 1.393 . S
C3234 H3226 0.950 . S
C3234 C3232 1.391 . S
C3234 C3235 1.400 . S
C3235 C3234 1.400 . S
C3235 C3236 1.398 . S
C3235 C3241 1.491 . S
C3236 H3227 0.950 . S
C3236 C3235 1.398 . S
C3236 C3237 1.391 . S
C3237 H3225 0.950 . S
C3237 C3233 1.393 . S
C3237 C3236 1.391 . S
C3238 H3228 0.950 . S
C3238 C3239 1.386 . S
C3238 C3240 1.391 . S
C3239 C3238 1.386 . S
C3239 C3243 1.393 . S
C3240 H3229 0.950 . S
C3240 C3238 1.391 . S
C3240 C3241 1.400 . S
C3241 C3235 1.491 . S
C3241 C3240 1.400 . S
C3241 C3242 1.398 . S
C3242 H3230 0.950 . S
C3242 C3241 1.398 . S
C3242 C3243 1.391 . S
C3243 H3231 0.950 . S
C3243 C3239 1.393 . S
C3243 C3242 1.391 . S
H3244 C3252 0.950 . S
H3245 C3257 0.950 . S
H3246 C3254 0.950 . S
H3247 C3256 0.950 . S
H3248 C3258 0.950 . S
H3249 C3260 0.950 . S
H3250 C3262 0.950 . S
H3251 C3263 0.950 . S
C3252 H3244 0.950 . S
C3252 C3253 1.386 . S
C3252 C3254 1.391 . S
C3253 C3252 1.386 . S
C3253 C3257 1.393 . S
C3254 H3246 0.950 . S
C3254 C3252 1.391 . S
C3254 C3255 1.400 . S
C3255 C3254 1.400 . S
C3255 C3256 1.398 . S
C3255 C3261 1.491 . S
C3256 H3247 0.950 . S
C3256 C3255 1.398 . S
C3256 C3257 1.391 . S
C3257 H3245 0.950 . S
C3257 C3253 1.393 . S
C3257 C3256 1.391 . S
C3258 H3248 0.950 . S
C3258 C3259 1.386 . S
C3258 C3260 1.391 . S
C3259 C3258 1.386 . S
C3259 C3263 1.393 . S
C3260 H3249 0.950 . S
C3260 C3258 1.391 . S
C3260 C3261 1.400 . S
C3261 C3255 1.491 . S
C3261 C3260 1.400 . S
C3261 C3262 1.398 . S
C3262 H3250 0.950 . S
C3262 C3261 1.398 . S
C3262 C3263 1.391 . S
C3263 H3251 0.950 . S
C3263 C3259 1.393 . S
C3263 C3262 1.391 . S
H3264 C3272 0.950 . S
H3265 C3277 0.950 . S
H3266 C3274 0.950 . S
H3267 C3276 0.950 . S
H3268 C3278 0.950 . S
H3269 C3280 0.950 . S
H3270 C3282 0.950 . S
H3271 C3283 0.950 . S
C3272 H3264 0.950 . S
C3272 C3273 1.386 . S
C3272 C3274 1.391 . S
C3273 C3272 1.386 . S
C3273 C3277 1.393 . S
C3274 H3266 0.950 . S
C3274 C3272 1.391 . S
C3274 C3275 1.400 . S
C3275 C3274 1.400 . S
C3275 C3276 1.398 . S
C3275 C3281 1.491 . S
C3276 H3267 0.950 . S
C3276 C3275 1.398 . S
C3276 C3277 1.391 . S
C3277 H3265 0.950 . S
C3277 C3273 1.393 . S
C3277 C3276 1.391 . S
C3278 H3268 0.950 . S
C3278 C3279 1.386 . S
C3278 C3280 1.391 . S
C3279 C3278 1.386 . S
C3279 C3283 1.393 . S
C3280 H3269 0.950 . S
C3280 C3278 1.391 . S
C3280 C3281 1.400 . S
C3281 C3275 1.491 . S
C3281 C3280 1.400 . S
C3281 C3282 1.398 . S
C3282 H3270 0.950 . S
C3282 C3281 1.398 . S
C3282 C3283 1.391 . S
C3283 H3271 0.950 . S
C3283 C3279 1.393 . S
C3283 C3282 1.391 . S
H3284 C3292 0.950 . S
H3285 C3297 0.950 . S
H3286 C3294 0.950 . S
H3287 C3296 0.950 . S
H3288 C3298 0.950 . S
H3289 C3300 0.950 . S
H3290 C3302 0.950 . S
H3291 C3303 0.950 . S
C3292 H3284 0.950 . S
C3292 C3293 1.386 . S
C3292 C3294 1.391 . S
C3293 C3292 1.386 . S
C3293 C3297 1.393 . S
C3294 H3286 0.950 . S
C3294 C3292 1.391 . S
C3294 C3295 1.400 . S
C3295 C3294 1.400 . S
C3295 C3296 1.398 . S
C3295 C3301 1.491 . S
C3296 H3287 0.950 . S
C3296 C3295 1.398 . S
C3296 C3297 1.391 . S
C3297 H3285 0.950 . S
C3297 C3293 1.393 . S
C3297 C3296 1.391 . S
C3298 H3288 0.950 . S
C3298 C3299 1.386 . S
C3298 C3300 1.391 . S
C3299 C3298 1.386 . S
C3299 C3303 1.393 . S
C3300 H3289 0.950 . S
C3300 C3298 1.391 . S
C3300 C3301 1.400 . S
C3301 C3295 1.491 . S
C3301 C3300 1.400 . S
C3301 C3302 1.398 . S
C3302 H3290 0.950 . S
C3302 C3301 1.398 . S
C3302 C3303 1.391 . S
C3303 H3291 0.950 . S
C3303 C3299 1.393 . S
C3303 C3302 1.391 . S
H3304 C3312 0.950 . S
H3305 C3317 0.950 . S
H3306 C3314 0.950 . S
H3307 C3316 0.950 . S
H3308 C3318 0.950 . S
H3309 C3320 0.950 . S
H3310 C3322 0.950 . S
H3311 C3323 0.950 . S
C3312 H3304 0.950 . S
C3312 C3313 1.386 . S
C3312 C3314 1.391 . S
C3313 C3312 1.386 . S
C3313 C3317 1.393 . S
C3314 H3306 0.950 . S
C3314 C3312 1.391 . S
C3314 C3315 1.400 . S
C3315 C3314 1.400 . S
C3315 C3316 1.398 . S
C3315 C3321 1.491 . S
C3316 H3307 0.950 . S
C3316 C3315 1.398 . S
C3316 C3317 1.391 . S
C3317 H3305 0.950 . S
C3317 C3313 1.393 . S
C3317 C3316 1.391 . S
C3318 H3308 0.950 . S
C3318 C3319 1.386 . S
C3318 C3320 1.391 . S
C3319 C3318 1.386 . S
C3319 C3323 1.393 . S
C3320 H3309 0.950 . S
C3320 C3318 1.391 . S
C3320 C3321 1.400 . S
C3321 C3315 1.491 . S
C3321 C3320 1.400 . S
C3321 C3322 1.398 . S
C3322 H3310 0.950 . S
C3322 C3321 1.398 . S
C3322 C3323 1.391 . S
C3323 H3311 0.950 . S
C3323 C3319 1.393 . S
C3323 C3322 1.391 . S
H3324 C3332 0.950 . S
H3325 C3337 0.950 . S
H3326 C3334 0.950 . S
H3327 C3336 0.950 . S
H3328 C3338 0.950 . S
H3329 C3340 0.950 . S
H3330 C3342 0.950 . S
H3331 C3343 0.950 . S
C3332 H3324 0.950 . S
C3332 C3333 1.386 . S
C3332 C3334 1.391 . S
C3333 C3332 1.386 . S
C3333 C3337 1.393 . S
C3334 H3326 0.950 . S
C3334 C3332 1.391 . S
C3334 C3335 1.400 . S
C3335 C3334 1.400 . S
C3335 C3336 1.398 . S
C3335 C3341 1.491 . S
C3336 H3327 0.950 . S
C3336 C3335 1.398 . S
C3336 C3337 1.391 . S
C3337 H3325 0.950 . S
C3337 C3333 1.393 . S
C3337 C3336 1.391 . S
C3338 H3328 0.950 . S
C3338 C3339 1.386 . S
C3338 C3340 1.391 . S
C3339 C3338 1.386 . S
C3339 C3343 1.393 . S
C3340 H3329 0.950 . S
C3340 C3338 1.391 . S
C3340 C3341 1.400 . S
C3341 C3335 1.491 . S
C3341 C3340 1.400 . S
C3341 C3342 1.398 . S
C3342 H3330 0.950 . S
C3342 C3341 1.398 . S
C3342 C3343 1.391 . S
C3343 H3331 0.950 . S
C3343 C3339 1.393 . S
C3343 C3342 1.391 . S
H3344 C3352 0.950 . S
H3345 C3357 0.950 . S
H3346 C3354 0.950 . S
H3347 C3356 0.950 . S
H3348 C3358 0.950 . S
H3349 C3360 0.950 . S
H3350 C3362 0.950 . S
H3351 C3363 0.950 . S
C3352 H3344 0.950 . S
C3352 C3353 1.386 . S
C3352 C3354 1.391 . S
C3353 C3352 1.386 . S
C3353 C3357 1.393 . S
C3354 H3346 0.950 . S
C3354 C3352 1.391 . S
C3354 C3355 1.400 . S
C3355 C3354 1.400 . S
C3355 C3356 1.398 . S
C3355 C3361 1.491 . S
C3356 H3347 0.950 . S
C3356 C3355 1.398 . S
C3356 C3357 1.391 . S
C3357 H3345 0.950 . S
C3357 C3353 1.393 . S
C3357 C3356 1.391 . S
C3358 H3348 0.950 . S
C3358 C3359 1.386 . S
C3358 C3360 1.391 . S
C3359 C3358 1.386 . S
C3359 C3363 1.393 . S
C3360 H3349 0.950 . S
C3360 C3358 1.391 . S
C3360 C3361 1.400 . S
C3361 C3355 1.491 . S
C3361 C3360 1.400 . S
C3361 C3362 1.398 . S
C3362 H3350 0.950 . S
C3362 C3361 1.398 . S
C3362 C3363 1.391 . S
C3363 H3351 0.950 . S
C3363 C3359 1.393 . S
C3363 C3362 1.391 . S
H3364 C3372 0.950 . S
H3365 C3377 0.950 . S
H3366 C3374 0.950 . S
H3367 C3376 0.950 . S
H3368 C3378 0.950 . S
H3369 C3380 0.950 . S
H3370 C3382 0.950 . S
H3371 C3383 0.950 . S
C3372 H3364 0.950 . S
C3372 C3373 1.386 . S
C3372 C3374 1.391 . S
C3373 C3372 1.386 . S
C3373 C3377 1.393 . S
C3374 H3366 0.950 . S
C3374 C3372 1.391 . S
C3374 C3375 1.400 . S
C3375 C3374 1.400 . S
C3375 C3376 1.398 . S
C3375 C3381 1.491 . S
C3376 H3367 0.950 . S
C3376 C3375 1.398 . S
C3376 C3377 1.391 . S
C3377 H3365 0.950 . S
C3377 C3373 1.393 . S
C3377 C3376 1.391 . S
C3378 H3368 0.950 . S
C3378 C3379 1.386 . S
C3378 C3380 1.391 . S
C3379 C3378 1.386 . S
C3379 C3383 1.393 . S
C3380 H3369 0.950 . S
C3380 C3378 1.391 . S
C3380 C3381 1.400 . S
C3381 C3375 1.491 . S
C3381 C3380 1.400 . S
C3381 C3382 1.398 . S
C3382 H3370 0.950 . S
C3382 C3381 1.398 . S
C3382 C3383 1.391 . S
C3383 H3371 0.950 . S
C3383 C3379 1.393 . S
C3383 C3382 1.391 . S
H3384 C3392 0.950 . S
H3385 C3397 0.950 . S
H3386 C3394 0.950 . S
H3387 C3396 0.950 . S
H3388 C3398 0.950 . S
H3389 C3400 0.950 . S
H3390 C3402 0.950 . S
H3391 C3403 0.950 . S
C3392 H3384 0.950 . S
C3392 C3393 1.386 . S
C3392 C3394 1.391 . S
C3393 C3392 1.386 . S
C3393 C3397 1.393 . S
C3394 H3386 0.950 . S
C3394 C3392 1.391 . S
C3394 C3395 1.400 . S
C3395 C3394 1.400 . S
C3395 C3396 1.398 . S
C3395 C3401 1.491 . S
C3396 H3387 0.950 . S
C3396 C3395 1.398 . S
C3396 C3397 1.391 . S
C3397 H3385 0.950 . S
C3397 C3393 1.393 . S
C3397 C3396 1.391 . S
C3398 H3388 0.950 . S
C3398 C3399 1.386 . S
C3398 C3400 1.391 . S
C3399 C3398 1.386 . S
C3399 C3403 1.393 . S
C3400 H3389 0.950 . S
C3400 C3398 1.391 . S
C3400 C3401 1.400 . S
C3401 C3395 1.491 . S
C3401 C3400 1.400 . S
C3401 C3402 1.398 . S
C3402 H3390 0.950 . S
C3402 C3401 1.398 . S
C3402 C3403 1.391 . S
C3403 H3391 0.950 . S
C3403 C3399 1.393 . S
C3403 C3402 1.391 . S
H3404 C3412 0.950 . S
H3405 C3417 0.950 . S
H3406 C3414 0.950 . S
H3407 C3416 0.950 . S
H3408 C3418 0.950 . S
H3409 C3420 0.950 . S
H3410 C3422 0.950 . S
H3411 C3423 0.950 . S
C3412 H3404 0.950 . S
C3412 C3413 1.386 . S
C3412 C3414 1.391 . S
C3413 C3412 1.386 . S
C3413 C3417 1.393 . S
C3414 H3406 0.950 . S
C3414 C3412 1.391 . S
C3414 C3415 1.400 . S
C3415 C3414 1.400 . S
C3415 C3416 1.398 . S
C3415 C3421 1.491 . S
C3416 H3407 0.950 . S
C3416 C3415 1.398 . S
C3416 C3417 1.391 . S
C3417 H3405 0.950 . S
C3417 C3413 1.393 . S
C3417 C3416 1.391 . S
C3418 H3408 0.950 . S
C3418 C3419 1.386 . S
C3418 C3420 1.391 . S
C3419 C3418 1.386 . S
C3419 C3423 1.393 . S
C3420 H3409 0.950 . S
C3420 C3418 1.391 . S
C3420 C3421 1.400 . S
C3421 C3415 1.491 . S
C3421 C3420 1.400 . S
C3421 C3422 1.398 . S
C3422 H3410 0.950 . S
C3422 C3421 1.398 . S
C3422 C3423 1.391 . S
C3423 H3411 0.950 . S
C3423 C3419 1.393 . S
C3423 C3422 1.391 . S
H3424 C3432 0.950 . S
H3425 C3437 0.950 . S
H3426 C3434 0.950 . S
H3427 C3436 0.950 . S
H3428 C3438 0.950 . S
H3429 C3440 0.950 . S
H3430 C3442 0.950 . S
H3431 C3443 0.950 . S
C3432 H3424 0.950 . S
C3432 C3433 1.386 . S
C3432 C3434 1.391 . S
C3433 C3432 1.386 . S
C3433 C3437 1.393 . S
C3434 H3426 0.950 . S
C3434 C3432 1.391 . S
C3434 C3435 1.400 . S
C3435 C3434 1.400 . S
C3435 C3436 1.398 . S
C3435 C3441 1.491 . S
C3436 H3427 0.950 . S
C3436 C3435 1.398 . S
C3436 C3437 1.391 . S
C3437 H3425 0.950 . S
C3437 C3433 1.393 . S
C3437 C3436 1.391 . S
C3438 H3428 0.950 . S
C3438 C3439 1.386 . S
C3438 C3440 1.391 . S
C3439 C3438 1.386 . S
C3439 C3443 1.393 . S
C3440 H3429 0.950 . S
C3440 C3438 1.391 . S
C3440 C3441 1.400 . S
C3441 C3435 1.491 . S
C3441 C3440 1.400 . S
C3441 C3442 1.398 . S
C3442 H3430 0.950 . S
C3442 C3441 1.398 . S
C3442 C3443 1.391 . S
C3443 H3431 0.950 . S
C3443 C3439 1.393 . S
C3443 C3442 1.391 . S
H3444 C3452 0.950 . S
H3445 C3457 0.950 . S
H3446 C3454 0.950 . S
H3447 C3456 0.950 . S
H3448 C3458 0.950 . S
H3449 C3460 0.950 . S
H3450 C3462 0.950 . S
H3451 C3463 0.950 . S
C3452 H3444 0.950 . S
C3452 C3453 1.386 . S
C3452 C3454 1.391 . S
C3453 C3452 1.386 . S
C3453 C3457 1.393 . S
C3454 H3446 0.950 . S
C3454 C3452 1.391 . S
C3454 C3455 1.400 . S
C3455 C3454 1.400 . S
C3455 C3456 1.398 . S
C3455 C3461 1.491 . S
C3456 H3447 0.950 . S
C3456 C3455 1.398 . S
C3456 C3457 1.391 . S
C3457 H3445 0.950 . S
C3457 C3453 1.393 . S
C3457 C3456 1.391 . S
C3458 H3448 0.950 . S
C3458 C3459 1.386 . S
C3458 C3460 1.391 . S
C3459 C3458 1.386 . S
C3459 C3463 1.393 . S
C3460 H3449 0.950 . S
C3460 C3458 1.391 . S
C3460 C3461 1.400 . S
C3461 C3455 1.491 . S
C3461 C3460 1.400 . S
C3461 C3462 1.398 . S
C3462 H3450 0.950 . S
C3462 C3461 1.398 . S
C3462 C3463 1.391 . S
C3463 H3451 0.950 . S
C3463 C3459 1.393 . S
C3463 C3462 1.391 . S
H3464 C3472 0.950 . S
H3465 C3477 0.950 . S
H3466 C3474 0.950 . S
H3467 C3476 0.950 . S
H3468 C3478 0.950 . S
H3469 C3480 0.950 . S
H3470 C3482 0.950 . S
H3471 C3483 0.950 . S
C3472 H3464 0.950 . S
C3472 C3473 1.386 . S
C3472 C3474 1.391 . S
C3473 C3472 1.386 . S
C3473 C3477 1.393 . S
C3474 H3466 0.950 . S
C3474 C3472 1.391 . S
C3474 C3475 1.400 . S
C3475 C3474 1.400 . S
C3475 C3476 1.398 . S
C3475 C3481 1.491 . S
C3476 H3467 0.950 . S
C3476 C3475 1.398 . S
C3476 C3477 1.391 . S
C3477 H3465 0.950 . S
C3477 C3473 1.393 . S
C3477 C3476 1.391 . S
C3478 H3468 0.950 . S
C3478 C3479 1.386 . S
C3478 C3480 1.391 . S
C3479 C3478 1.386 . S
C3479 C3483 1.393 . S
C3480 H3469 0.950 . S
C3480 C3478 1.391 . S
C3480 C3481 1.400 . S
C3481 C3475 1.491 . S
C3481 C3480 1.400 . S
C3481 C3482 1.398 . S
C3482 H3470 0.950 . S
C3482 C3481 1.398 . S
C3482 C3483 1.391 . S
C3483 H3471 0.950 . S
C3483 C3479 1.393 . S
C3483 C3482 1.391 . S
H3484 C3492 0.950 . S
H3485 C3497 0.950 . S
H3486 C3494 0.950 . S
H3487 C3496 0.950 . S
H3488 C3498 0.950 . S
H3489 C3500 0.950 . S
H3490 C3502 0.950 . S
H3491 C3503 0.950 . S
C3492 H3484 0.950 . S
C3492 C3493 1.386 . S
C3492 C3494 1.391 . S
C3493 C3492 1.386 . S
C3493 C3497 1.393 . S
C3494 H3486 0.950 . S
C3494 C3492 1.391 . S
C3494 C3495 1.400 . S
C3495 C3494 1.400 . S
C3495 C3496 1.398 . S
C3495 C3501 1.491 . S
C3496 H3487 0.950 . S
C3496 C3495 1.398 . S
C3496 C3497 1.391 . S
C3497 H3485 0.950 . S
C3497 C3493 1.393 . S
C3497 C3496 1.391 . S
C3498 H3488 0.950 . S
C3498 C3499 1.386 . S
C3498 C3500 1.391 . S
C3499 C3498 1.386 . S
C3499 C3503 1.393 . S
C3500 H3489 0.950 . S
C3500 C3498 1.391 . S
C3500 C3501 1.400 . S
C3501 C3495 1.491 . S
C3501 C3500 1.400 . S
C3501 C3502 1.398 . S
C3502 H3490 0.950 . S
C3502 C3501 1.398 . S
C3502 C3503 1.391 . S
C3503 H3491 0.950 . S
C3503 C3499 1.393 . S
C3503 C3502 1.391 . S
H3504 C3512 0.950 . S
H3505 C3517 0.950 . S
H3506 C3514 0.950 . S
H3507 C3516 0.950 . S
H3508 C3518 0.950 . S
H3509 C3520 0.950 . S
H3510 C3522 0.950 . S
H3511 C3523 0.950 . S
C3512 H3504 0.950 . S
C3512 C3513 1.386 . S
C3512 C3514 1.391 . S
C3513 C3512 1.386 . S
C3513 C3517 1.393 . S
C3514 H3506 0.950 . S
C3514 C3512 1.391 . S
C3514 C3515 1.400 . S
C3515 C3514 1.400 . S
C3515 C3516 1.398 . S
C3515 C3521 1.491 . S
C3516 H3507 0.950 . S
C3516 C3515 1.398 . S
C3516 C3517 1.391 . S
C3517 H3505 0.950 . S
C3517 C3513 1.393 . S
C3517 C3516 1.391 . S
C3518 H3508 0.950 . S
C3518 C3519 1.386 . S
C3518 C3520 1.391 . S
C3519 C3518 1.386 . S
C3519 C3523 1.393 . S
C3520 H3509 0.950 . S
C3520 C3518 1.391 . S
C3520 C3521 1.400 . S
C3521 C3515 1.491 . S
C3521 C3520 1.400 . S
C3521 C3522 1.398 . S
C3522 H3510 0.950 . S
C3522 C3521 1.398 . S
C3522 C3523 1.391 . S
C3523 H3511 0.950 . S
C3523 C3519 1.393 . S
C3523 C3522 1.391 . S
H3524 C3532 0.950 . S
H3525 C3537 0.950 . S
H3526 C3534 0.950 . S
H3527 C3536 0.950 . S
H3528 C3538 0.950 . S
H3529 C3540 0.950 . S
H3530 C3542 0.950 . S
H3531 C3543 0.950 . S
C3532 H3524 0.950 . S
C3532 C3533 1.386 . S
C3532 C3534 1.391 . S
C3533 C3532 1.386 . S
C3533 C3537 1.393 . S
C3534 H3526 0.950 . S
C3534 C3532 1.391 . S
C3534 C3535 1.400 . S
C3535 C3534 1.400 . S
C3535 C3536 1.398 . S
C3535 C3541 1.491 . S
C3536 H3527 0.950 . S
C3536 C3535 1.398 . S
C3536 C3537 1.391 . S
C3537 H3525 0.950 . S
C3537 C3533 1.393 . S
C3537 C3536 1.391 . S
C3538 H3528 0.950 . S
C3538 C3539 1.386 . S
C3538 C3540 1.391 . S
C3539 C3538 1.386 . S
C3539 C3543 1.393 . S
C3540 H3529 0.950 . S
C3540 C3538 1.391 . S
C3540 C3541 1.400 . S
C3541 C3535 1.491 . S
C3541 C3540 1.400 . S
C3541 C3542 1.398 . S
C3542 H3530 0.950 . S
C3542 C3541 1.398 . S
C3542 C3543 1.391 . S
C3543 H3531 0.950 . S
C3543 C3539 1.393 . S
C3543 C3542 1.391 . S
H3544 C3552 0.950 . S
H3545 C3557 0.950 . S
H3546 C3554 0.950 . S
H3547 C3556 0.950 . S
H3548 C3558 0.950 . S
H3549 C3560 0.950 . S
H3550 C3562 0.950 . S
H3551 C3563 0.950 . S
C3552 H3544 0.950 . S
C3552 C3553 1.386 . S
C3552 C3554 1.391 . S
C3553 C3552 1.386 . S
C3553 C3557 1.393 . S
C3554 H3546 0.950 . S
C3554 C3552 1.391 . S
C3554 C3555 1.400 . S
C3555 C3554 1.400 . S
C3555 C3556 1.398 . S
C3555 C3561 1.491 . S
C3556 H3547 0.950 . S
C3556 C3555 1.398 . S
C3556 C3557 1.391 . S
C3557 H3545 0.950 . S
C3557 C3553 1.393 . S
C3557 C3556 1.391 . S
C3558 H3548 0.950 . S
C3558 C3559 1.386 . S
C3558 C3560 1.391 . S
C3559 C3558 1.386 . S
C3559 C3563 1.393 . S
C3560 H3549 0.950 . S
C3560 C3558 1.391 . S
C3560 C3561 1.400 . S
C3561 C3555 1.491 . S
C3561 C3560 1.400 . S
C3561 C3562 1.398 . S
C3562 H3550 0.950 . S
C3562 C3561 1.398 . S
C3562 C3563 1.391 . S
C3563 H3551 0.950 . S
C3563 C3559 1.393 . S
C3563 C3562 1.391 . S
H3564 C3572 0.950 . S
H3565 C3577 0.950 . S
H3566 C3574 0.950 . S
H3567 C3576 0.950 . S
H3568 C3578 0.950 . S
H3569 C3580 0.950 . S
H3570 C3582 0.950 . S
H3571 C3583 0.950 . S
C3572 H3564 0.950 . S
C3572 C3573 1.386 . S
C3572 C3574 1.391 . S
C3573 C3572 1.386 . S
C3573 C3577 1.393 . S
C3574 H3566 0.950 . S
C3574 C3572 1.391 . S
C3574 C3575 1.400 . S
C3575 C3574 1.400 . S
C3575 C3576 1.398 . S
C3575 C3581 1.491 . S
C3576 H3567 0.950 . S
C3576 C3575 1.398 . S
C3576 C3577 1.391 . S
C3577 H3565 0.950 . S
C3577 C3573 1.393 . S
C3577 C3576 1.391 . S
C3578 H3568 0.950 . S
C3578 C3579 1.386 . S
C3578 C3580 1.391 . S
C3579 C3578 1.386 . S
C3579 C3583 1.393 . S
C3580 H3569 0.950 . S
C3580 C3578 1.391 . S
C3580 C3581 1.400 . S
C3581 C3575 1.491 . S
C3581 C3580 1.400 . S
C3581 C3582 1.398 . S
C3582 H3570 0.950 . S
C3582 C3581 1.398 . S
C3582 C3583 1.391 . S
C3583 H3571 0.950 . S
C3583 C3579 1.393 . S
C3583 C3582 1.391 . S
H3584 C3592 0.950 . S
H3585 C3597 0.950 . S
H3586 C3594 0.950 . S
H3587 C3596 0.950 . S
H3588 C3598 0.950 . S
H3589 C3600 0.950 . S
H3590 C3602 0.950 . S
H3591 C3603 0.950 . S
C3592 H3584 0.950 . S
C3592 C3593 1.386 . S
C3592 C3594 1.391 . S
C3593 C3592 1.386 . S
C3593 C3597 1.393 . S
C3594 H3586 0.950 . S
C3594 C3592 1.391 . S
C3594 C3595 1.400 . S
C3595 C3594 1.400 . S
C3595 C3596 1.398 . S
C3595 C3601 1.491 . S
C3596 H3587 0.950 . S
C3596 C3595 1.398 . S
C3596 C3597 1.391 . S
C3597 H3585 0.950 . S
C3597 C3593 1.393 . S
C3597 C3596 1.391 . S
C3598 H3588 0.950 . S
C3598 C3599 1.386 . S
C3598 C3600 1.391 . S
C3599 C3598 1.386 . S
C3599 C3603 1.393 . S
C3600 H3589 0.950 . S
C3600 C3598 1.391 . S
C3600 C3601 1.400 . S
C3601 C3595 1.491 . S
C3601 C3600 1.400 . S
C3601 C3602 1.398 . S
C3602 H3590 0.950 . S
C3602 C3601 1.398 . S
C3602 C3603 1.391 . S
C3603 H3591 0.950 . S
C3603 C3599 1.393 . S
C3603 C3602 1.391 . S
H3604 C3612 0.950 . S
H3605 C3617 0.950 . S
H3606 C3614 0.950 . S
H3607 C3616 0.950 . S
H3608 C3618 0.950 . S
H3609 C3620 0.950 . S
H3610 C3622 0.950 . S
H3611 C3623 0.950 . S
C3612 H3604 0.950 . S
C3612 C3613 1.386 . S
C3612 C3614 1.391 . S
C3613 C3612 1.386 . S
C3613 C3617 1.393 . S
C3614 H3606 0.950 . S
C3614 C3612 1.391 . S
C3614 C3615 1.400 . S
C3615 C3614 1.400 . S
C3615 C3616 1.398 . S
C3615 C3621 1.491 . S
C3616 H3607 0.950 . S
C3616 C3615 1.398 . S
C3616 C3617 1.391 . S
C3617 H3605 0.950 . S
C3617 C3613 1.393 . S
C3617 C3616 1.391 . S
C3618 H3608 0.950 . S
C3618 C3619 1.386 . S
C3618 C3620 1.391 . S
C3619 C3618 1.386 . S
C3619 C3623 1.393 . S
C3620 H3609 0.950 . S
C3620 C3618 1.391 . S
C3620 C3621 1.400 . S
C3621 C3615 1.491 . S
C3621 C3620 1.400 . S
C3621 C3622 1.398 . S
C3622 H3610 0.950 . S
C3622 C3621 1.398 . S
C3622 C3623 1.391 . S
C3623 H3611 0.950 . S
C3623 C3619 1.393 . S
C3623 C3622 1.391 . S
H3624 C3632 0.950 . S
H3625 C3637 0.950 . S
H3626 C3634 0.950 . S
H3627 C3636 0.950 . S
H3628 C3638 0.950 . S
H3629 C3640 0.950 . S
H3630 C3642 0.950 . S
H3631 C3643 0.950 . S
C3632 H3624 0.950 . S
C3632 C3633 1.386 . S
C3632 C3634 1.391 . S
C3633 C3632 1.386 . S
C3633 C3637 1.393 . S
C3634 H3626 0.950 . S
C3634 C3632 1.391 . S
C3634 C3635 1.400 . S
C3635 C3634 1.400 . S
C3635 C3636 1.398 . S
C3635 C3641 1.491 . S
C3636 H3627 0.950 . S
C3636 C3635 1.398 . S
C3636 C3637 1.391 . S
C3637 H3625 0.950 . S
C3637 C3633 1.393 . S
C3637 C3636 1.391 . S
C3638 H3628 0.950 . S
C3638 C3639 1.386 . S
C3638 C3640 1.391 . S
C3639 C3638 1.386 . S
C3639 C3643 1.393 . S
C3640 H3629 0.950 . S
C3640 C3638 1.391 . S
C3640 C3641 1.400 . S
C3641 C3635 1.491 . S
C3641 C3640 1.400 . S
C3641 C3642 1.398 . S
C3642 H3630 0.950 . S
C3642 C3641 1.398 . S
C3642 C3643 1.391 . S
C3643 H3631 0.950 . S
C3643 C3639 1.393 . S
C3643 C3642 1.391 . S
H3644 C3652 0.950 . S
H3645 C3657 0.950 . S
H3646 C3654 0.950 . S
H3647 C3656 0.950 . S
H3648 C3658 0.950 . S
H3649 C3660 0.950 . S
H3650 C3662 0.950 . S
H3651 C3663 0.950 . S
C3652 H3644 0.950 . S
C3652 C3653 1.386 . S
C3652 C3654 1.391 . S
C3653 C3652 1.386 . S
C3653 C3657 1.393 . S
C3654 H3646 0.950 . S
C3654 C3652 1.391 . S
C3654 C3655 1.400 . S
C3655 C3654 1.400 . S
C3655 C3656 1.398 . S
C3655 C3661 1.491 . S
C3656 H3647 0.950 . S
C3656 C3655 1.398 . S
C3656 C3657 1.391 . S
C3657 H3645 0.950 . S
C3657 C3653 1.393 . S
C3657 C3656 1.391 . S
C3658 H3648 0.950 . S
C3658 C3659 1.386 . S
C3658 C3660 1.391 . S
C3659 C3658 1.386 . S
C3659 C3663 1.393 . S
C3660 H3649 0.950 . S
C3660 C3658 1.391 . S
C3660 C3661 1.400 . S
C3661 C3655 1.491 . S
C3661 C3660 1.400 . S
C3661 C3662 1.398 . S
C3662 H3650 0.950 . S
C3662 C3661 1.398 . S
C3662 C3663 1.391 . S
C3663 H3651 0.950 . S
C3663 C3659 1.393 . S
C3663 C3662 1.391 . S
H3664 C3672 0.950 . S
H3665 C3677 0.950 . S
H3666 C3674 0.950 . S
H3667 C3676 0.950 . S
H3668 C3678 0.950 . S
H3669 C3680 0.950 . S
H3670 C3682 0.950 . S
H3671 C3683 0.950 . S
C3672 H3664 0.950 . S
C3672 C3673 1.386 . S
C3672 C3674 1.391 . S
C3673 C3672 1.386 . S
C3673 C3677 1.393 . S
C3674 H3666 0.950 . S
C3674 C3672 1.391 . S
C3674 C3675 1.400 . S
C3675 C3674 1.400 . S
C3675 C3676 1.398 . S
C3675 C3681 1.491 . S
C3676 H3667 0.950 . S
C3676 C3675 1.398 . S
C3676 C3677 1.391 . S
C3677 H3665 0.950 . S
C3677 C3673 1.393 . S
C3677 C3676 1.391 . S
C3678 H3668 0.950 . S
C3678 C3679 1.386 . S
C3678 C3680 1.391 . S
C3679 C3678 1.386 . S
C3679 C3683 1.393 . S
C3680 H3669 0.950 . S
C3680 C3678 1.391 . S
C3680 C3681 1.400 . S
C3681 C3675 1.491 . S
C3681 C3680 1.400 . S
C3681 C3682 1.398 . S
C3682 H3670 0.950 . S
C3682 C3681 1.398 . S
C3682 C3683 1.391 . S
C3683 H3671 0.950 . S
C3683 C3679 1.393 . S
C3683 C3682 1.391 . S
H3684 C3692 0.950 . S
H3685 C3697 0.950 . S
H3686 C3694 0.950 . S
H3687 C3696 0.950 . S
H3688 C3698 0.950 . S
H3689 C3700 0.950 . S
H3690 C3702 0.950 . S
H3691 C3703 0.950 . S
C3692 H3684 0.950 . S
C3692 C3693 1.386 . S
C3692 C3694 1.391 . S
C3693 C3692 1.386 . S
C3693 C3697 1.393 . S
C3694 H3686 0.950 . S
C3694 C3692 1.391 . S
C3694 C3695 1.400 . S
C3695 C3694 1.400 . S
C3695 C3696 1.398 . S
C3695 C3701 1.491 . S
C3696 H3687 0.950 . S
C3696 C3695 1.398 . S
C3696 C3697 1.391 . S
C3697 H3685 0.950 . S
C3697 C3693 1.393 . S
C3697 C3696 1.391 . S
C3698 H3688 0.950 . S
C3698 C3699 1.386 . S
C3698 C3700 1.391 . S
C3699 C3698 1.386 . S
C3699 C3703 1.393 . S
C3700 H3689 0.950 . S
C3700 C3698 1.391 . S
C3700 C3701 1.400 . S
C3701 C3695 1.491 . S
C3701 C3700 1.400 . S
C3701 C3702 1.398 . S
C3702 H3690 0.950 . S
C3702 C3701 1.398 . S
C3702 C3703 1.391 . S
C3703 H3691 0.950 . S
C3703 C3699 1.393 . S
C3703 C3702 1.391 . S
H3704 C3712 0.950 . S
H3705 C3717 0.950 . S
H3706 C3714 0.950 . S
H3707 C3716 0.950 . S
H3708 C3718 0.950 . S
H3709 C3720 0.950 . S
H3710 C3722 0.950 . S
H3711 C3723 0.950 . S
C3712 H3704 0.950 . S
C3712 C3713 1.386 . S
C3712 C3714 1.391 . S
C3713 C3712 1.386 . S
C3713 C3717 1.393 . S
C3714 H3706 0.950 . S
C3714 C3712 1.391 . S
C3714 C3715 1.400 . S
C3715 C3714 1.400 . S
C3715 C3716 1.398 . S
C3715 C3721 1.491 . S
C3716 H3707 0.950 . S
C3716 C3715 1.398 . S
C3716 C3717 1.391 . S
C3717 H3705 0.950 . S
C3717 C3713 1.393 . S
C3717 C3716 1.391 . S
C3718 H3708 0.950 . S
C3718 C3719 1.386 . S
C3718 C3720 1.391 . S
C3719 C3718 1.386 . S
C3719 C3723 1.393 . S
C3720 H3709 0.950 . S
C3720 C3718 1.391 . S
C3720 C3721 1.400 . S
C3721 C3715 1.491 . S
C3721 C3720 1.400 . S
C3721 C3722 1.398 . S
C3722 H3710 0.950 . S
C3722 C3721 1.398 . S
C3722 C3723 1.391 . S
C3723 H3711 0.950 . S
C3723 C3719 1.393 . S
C3723 C3722 1.391 . S
H3724 C3732 0.950 . S
H3725 C3737 0.950 . S
H3726 C3734 0.950 . S
H3727 C3736 0.950 . S
H3728 C3738 0.950 . S
H3729 C3740 0.950 . S
H3730 C3742 0.950 . S
H3731 C3743 0.950 . S
C3732 H3724 0.950 . S
C3732 C3733 1.386 . S
C3732 C3734 1.391 . S
C3733 C3732 1.386 . S
C3733 C3737 1.393 . S
C3734 H3726 0.950 . S
C3734 C3732 1.391 . S
C3734 C3735 1.400 . S
C3735 C3734 1.400 . S
C3735 C3736 1.398 . S
C3735 C3741 1.491 . S
C3736 H3727 0.950 . S
C3736 C3735 1.398 . S
C3736 C3737 1.391 . S
C3737 H3725 0.950 . S
C3737 C3733 1.393 . S
C3737 C3736 1.391 . S
C3738 H3728 0.950 . S
C3738 C3739 1.386 . S
C3738 C3740 1.391 . S
C3739 C3738 1.386 . S
C3739 C3743 1.393 . S
C3740 H3729 0.950 . S
C3740 C3738 1.391 . S
C3740 C3741 1.400 . S
C3741 C3735 1.491 . S
C3741 C3740 1.400 . S
C3741 C3742 1.398 . S
C3742 H3730 0.950 . S
C3742 C3741 1.398 . S
C3742 C3743 1.391 . S
C3743 H3731 0.950 . S
C3743 C3739 1.393 . S
C3743 C3742 1.391 . S
H3744 C3752 0.950 . S
H3745 C3757 0.950 . S
H3746 C3754 0.950 . S
H3747 C3756 0.950 . S
H3748 C3758 0.950 . S
H3749 C3760 0.950 . S
H3750 C3762 0.950 . S
H3751 C3763 0.950 . S
C3752 H3744 0.950 . S
C3752 C3753 1.386 . S
C3752 C3754 1.391 . S
C3753 C3752 1.386 . S
C3753 C3757 1.393 . S
C3754 H3746 0.950 . S
C3754 C3752 1.391 . S
C3754 C3755 1.400 . S
C3755 C3754 1.400 . S
C3755 C3756 1.398 . S
C3755 C3761 1.491 . S
C3756 H3747 0.950 . S
C3756 C3755 1.398 . S
C3756 C3757 1.391 . S
C3757 H3745 0.950 . S
C3757 C3753 1.393 . S
C3757 C3756 1.391 . S
C3758 H3748 0.950 . S
C3758 C3759 1.386 . S
C3758 C3760 1.391 . S
C3759 C3758 1.386 . S
C3759 C3763 1.393 . S
C3760 H3749 0.950 . S
C3760 C3758 1.391 . S
C3760 C3761 1.400 . S
C3761 C3755 1.491 . S
C3761 C3760 1.400 . S
C3761 C3762 1.398 . S
C3762 H3750 0.950 . S
C3762 C3761 1.398 . S
C3762 C3763 1.391 . S
C3763 H3751 0.950 . S
C3763 C3759 1.393 . S
C3763 C3762 1.391 . S
H3764 C3772 0.950 . S
H3765 C3777 0.950 . S
H3766 C3774 0.950 . S
H3767 C3776 0.950 . S
H3768 C3778 0.950 . S
H3769 C3780 0.950 . S
H3770 C3782 0.950 . S
H3771 C3783 0.950 . S
C3772 H3764 0.950 . S
C3772 C3773 1.386 . S
C3772 C3774 1.391 . S
C3773 C3772 1.386 . S
C3773 C3777 1.393 . S
C3774 H3766 0.950 . S
C3774 C3772 1.391 . S
C3774 C3775 1.400 . S
C3775 C3774 1.400 . S
C3775 C3776 1.398 . S
C3775 C3781 1.491 . S
C3776 H3767 0.950 . S
C3776 C3775 1.398 . S
C3776 C3777 1.391 . S
C3777 H3765 0.950 . S
C3777 C3773 1.393 . S
C3777 C3776 1.391 . S
C3778 H3768 0.950 . S
C3778 C3779 1.386 . S
C3778 C3780 1.391 . S
C3779 C3778 1.386 . S
C3779 C3783 1.393 . S
C3780 H3769 0.950 . S
C3780 C3778 1.391 . S
C3780 C3781 1.400 . S
C3781 C3775 1.491 . S
C3781 C3780 1.400 . S
C3781 C3782 1.398 . S
C3782 H3770 0.950 . S
C3782 C3781 1.398 . S
C3782 C3783 1.391 . S
C3783 H3771 0.950 . S
C3783 C3779 1.393 . S
C3783 C3782 1.391 . S
H3784 C3792 0.950 . S
H3785 C3797 0.950 . S
H3786 C3794 0.950 . S
H3787 C3796 0.950 . S
H3788 C3798 0.950 . S
H3789 C3800 0.950 . S
H3790 C3802 0.950 . S
H3791 C3803 0.950 . S
C3792 H3784 0.950 . S
C3792 C3793 1.386 . S
C3792 C3794 1.391 . S
C3793 C3792 1.386 . S
C3793 C3797 1.393 . S
C3794 H3786 0.950 . S
C3794 C3792 1.391 . S
C3794 C3795 1.400 . S
C3795 C3794 1.400 . S
C3795 C3796 1.398 . S
C3795 C3801 1.491 . S
C3796 H3787 0.950 . S
C3796 C3795 1.398 . S
C3796 C3797 1.391 . S
C3797 H3785 0.950 . S
C3797 C3793 1.393 . S
C3797 C3796 1.391 . S
C3798 H3788 0.950 . S
C3798 C3799 1.386 . S
C3798 C3800 1.391 . S
C3799 C3798 1.386 . S
C3799 C3803 1.393 . S
C3800 H3789 0.950 . S
C3800 C3798 1.391 . S
C3800 C3801 1.400 . S
C3801 C3795 1.491 . S
C3801 C3800 1.400 . S
C3801 C3802 1.398 . S
C3802 H3790 0.950 . S
C3802 C3801 1.398 . S
C3802 C3803 1.391 . S
C3803 H3791 0.950 . S
C3803 C3799 1.393 . S
C3803 C3802 1.391 . S
H3804 C3812 0.950 . S
H3805 C3817 0.950 . S
H3806 C3814 0.950 . S
H3807 C3816 0.950 . S
H3808 C3818 0.950 . S
H3809 C3820 0.950 . S
H3810 C3822 0.950 . S
H3811 C3823 0.950 . S
C3812 H3804 0.950 . S
C3812 C3813 1.386 . S
C3812 C3814 1.391 . S
C3813 C3812 1.386 . S
C3813 C3817 1.393 . S
C3814 H3806 0.950 . S
C3814 C3812 1.391 . S
C3814 C3815 1.400 . S
C3815 C3814 1.400 . S
C3815 C3816 1.398 . S
C3815 C3821 1.491 . S
C3816 H3807 0.950 . S
C3816 C3815 1.398 . S
C3816 C3817 1.391 . S
C3817 H3805 0.950 . S
C3817 C3813 1.393 . S
C3817 C3816 1.391 . S
C3818 H3808 0.950 . S
C3818 C3819 1.386 . S
C3818 C3820 1.391 . S
C3819 C3818 1.386 . S
C3819 C3823 1.393 . S
C3820 H3809 0.950 . S
C3820 C3818 1.391 . S
C3820 C3821 1.400 . S
C3821 C3815 1.491 . S
C3821 C3820 1.400 . S
C3821 C3822 1.398 . S
C3822 H3810 0.950 . S
C3822 C3821 1.398 . S
C3822 C3823 1.391 . S
C3823 H3811 0.950 . S
C3823 C3819 1.393 . S
C3823 C3822 1.391 . S
H3824 C3832 0.950 . S
H3825 C3837 0.950 . S
H3826 C3834 0.950 . S
H3827 C3836 0.950 . S
H3828 C3838 0.950 . S
H3829 C3840 0.950 . S
H3830 C3842 0.950 . S
H3831 C3843 0.950 . S
C3832 H3824 0.950 . S
C3832 C3833 1.386 . S
C3832 C3834 1.391 . S
C3833 C3832 1.386 . S
C3833 C3837 1.393 . S
C3834 H3826 0.950 . S
C3834 C3832 1.391 . S
C3834 C3835 1.400 . S
C3835 C3834 1.400 . S
C3835 C3836 1.398 . S
C3835 C3841 1.491 . S
C3836 H3827 0.950 . S
C3836 C3835 1.398 . S
C3836 C3837 1.391 . S
C3837 H3825 0.950 . S
C3837 C3833 1.393 . S
C3837 C3836 1.391 . S
C3838 H3828 0.950 . S
C3838 C3839 1.386 . S
C3838 C3840 1.391 . S
C3839 C3838 1.386 . S
C3839 C3843 1.393 . S
C3840 H3829 0.950 . S
C3840 C3838 1.391 . S
C3840 C3841 1.400 . S
C3841 C3835 1.491 . S
C3841 C3840 1.400 . S
C3841 C3842 1.398 . S
C3842 H3830 0.950 . S
C3842 C3841 1.398 . S
C3842 C3843 1.391 . S
C3843 H3831 0.950 . S
C3843 C3839 1.393 . S
C3843 C3842 1.391 . S
H3844 C3852 0.950 . S
H3845 C3857 0.950 . S
H3846 C3854 0.950 . S
H3847 C3856 0.950 . S
H3848 C3858 0.950 . S
H3849 C3860 0.950 . S
H3850 C3862 0.950 . S
H3851 C3863 0.950 . S
C3852 H3844 0.950 . S
C3852 C3853 1.386 . S
C3852 C3854 1.391 . S
C3853 C3852 1.386 . S
C3853 C3857 1.393 . S
C3854 H3846 0.950 . S
C3854 C3852 1.391 . S
C3854 C3855 1.400 . S
C3855 C3854 1.400 . S
C3855 C3856 1.398 . S
C3855 C3861 1.491 . S
C3856 H3847 0.950 . S
C3856 C3855 1.398 . S
C3856 C3857 1.391 . S
C3857 H3845 0.950 . S
C3857 C3853 1.393 . S
C3857 C3856 1.391 . S
C3858 H3848 0.950 . S
C3858 C3859 1.386 . S
C3858 C3860 1.391 . S
C3859 C3858 1.386 . S
C3859 C3863 1.393 . S
C3860 H3849 0.950 . S
C3860 C3858 1.391 . S
C3860 C3861 1.400 . S
C3861 C3855 1.491 . S
C3861 C3860 1.400 . S
C3861 C3862 1.398 . S
C3862 H3850 0.950 . S
C3862 C3861 1.398 . S
C3862 C3863 1.391 . S
C3863 H3851 0.950 . S
C3863 C3859 1.393 . S
C3863 C3862 1.391 . S
H3864 C3872 0.950 . S
H3865 C3877 0.950 . S
H3866 C3874 0.950 . S
H3867 C3876 0.950 . S
H3868 C3878 0.950 . S
H3869 C3880 0.950 . S
H3870 C3882 0.950 . S
H3871 C3883 0.950 . S
C3872 H3864 0.950 . S
C3872 C3873 1.386 . S
C3872 C3874 1.391 . S
C3873 C3872 1.386 . S
C3873 C3877 1.393 . S
C3874 H3866 0.950 . S
C3874 C3872 1.391 . S
C3874 C3875 1.400 . S
C3875 C3874 1.400 . S
C3875 C3876 1.398 . S
C3875 C3881 1.491 . S
C3876 H3867 0.950 . S
C3876 C3875 1.398 . S
C3876 C3877 1.391 . S
C3877 H3865 0.950 . S
C3877 C3873 1.393 . S
C3877 C3876 1.391 . S
C3878 H3868 0.950 . S
C3878 C3879 1.386 . S
C3878 C3880 1.391 . S
C3879 C3878 1.386 . S
C3879 C3883 1.393 . S
C3880 H3869 0.950 . S
C3880 C3878 1.391 . S
C3880 C3881 1.400 . S
C3881 C3875 1.491 . S
C3881 C3880 1.400 . S
C3881 C3882 1.398 . S
C3882 H3870 0.950 . S
C3882 C3881 1.398 . S
C3882 C3883 1.391 . S
C3883 H3871 0.950 . S
C3883 C3879 1.393 . S
C3883 C3882 1.391 . S
H3884 C3892 0.950 . S
H3885 C3897 0.950 . S
H3886 C3894 0.950 . S
H3887 C3896 0.950 . S
H3888 C3898 0.950 . S
H3889 C3900 0.950 . S
H3890 C3902 0.950 . S
H3891 C3903 0.950 . S
C3892 H3884 0.950 . S
C3892 C3893 1.386 . S
C3892 C3894 1.391 . S
C3893 C3892 1.386 . S
C3893 C3897 1.393 . S
C3894 H3886 0.950 . S
C3894 C3892 1.391 . S
C3894 C3895 1.400 . S
C3895 C3894 1.400 . S
C3895 C3896 1.398 . S
C3895 C3901 1.491 . S
C3896 H3887 0.950 . S
C3896 C3895 1.398 . S
C3896 C3897 1.391 . S
C3897 H3885 0.950 . S
C3897 C3893 1.393 . S
C3897 C3896 1.391 . S
C3898 H3888 0.950 . S
C3898 C3899 1.386 . S
C3898 C3900 1.391 . S
C3899 C3898 1.386 . S
C3899 C3903 1.393 . S
C3900 H3889 0.950 . S
C3900 C3898 1.391 . S
C3900 C3901 1.400 . S
C3901 C3895 1.491 . S
C3901 C3900 1.400 . S
C3901 C3902 1.398 . S
C3902 H3890 0.950 . S
C3902 C3901 1.398 . S
C3902 C3903 1.391 . S
C3903 H3891 0.950 . S
C3903 C3899 1.393 . S
C3903 C3902 1.391 . S
H3904 C3912 0.950 . S
H3905 C3917 0.950 . S
H3906 C3914 0.950 . S
H3907 C3916 0.950 . S
H3908 C3918 0.950 . S
H3909 C3920 0.950 . S
H3910 C3922 0.950 . S
H3911 C3923 0.950 . S
C3912 H3904 0.950 . S
C3912 C3913 1.386 . S
C3912 C3914 1.391 . S
C3913 C3912 1.386 . S
C3913 C3917 1.393 . S
C3914 H3906 0.950 . S
C3914 C3912 1.391 . S
C3914 C3915 1.400 . S
C3915 C3914 1.400 . S
C3915 C3916 1.398 . S
C3915 C3921 1.491 . S
C3916 H3907 0.950 . S
C3916 C3915 1.398 . S
C3916 C3917 1.391 . S
C3917 H3905 0.950 . S
C3917 C3913 1.393 . S
C3917 C3916 1.391 . S
C3918 H3908 0.950 . S
C3918 C3919 1.386 . S
C3918 C3920 1.391 . S
C3919 C3918 1.386 . S
C3919 C3923 1.393 . S
C3920 H3909 0.950 . S
C3920 C3918 1.391 . S
C3920 C3921 1.400 . S
C3921 C3915 1.491 . S
C3921 C3920 1.400 . S
C3921 C3922 1.398 . S
C3922 H3910 0.950 . S
C3922 C3921 1.398 . S
C3922 C3923 1.391 . S
C3923 H3911 0.950 . S
C3923 C3919 1.393 . S
C3923 C3922 1.391 . S
H3924 C3932 0.950 . S
H3925 C3937 0.950 . S
H3926 C3934 0.950 . S
H3927 C3936 0.950 . S
H3928 C3938 0.950 . S
H3929 C3940 0.950 . S
H3930 C3942 0.950 . S
H3931 C3943 0.950 . S
C3932 H3924 0.950 . S
C3932 C3933 1.386 . S
C3932 C3934 1.391 . S
C3933 C3932 1.386 . S
C3933 C3937 1.393 . S
C3934 H3926 0.950 . S
C3934 C3932 1.391 . S
C3934 C3935 1.400 . S
C3935 C3934 1.400 . S
C3935 C3936 1.398 . S
C3935 C3941 1.491 . S
C3936 H3927 0.950 . S
C3936 C3935 1.398 . S
C3936 C3937 1.391 . S
C3937 H3925 0.950 . S
C3937 C3933 1.393 . S
C3937 C3936 1.391 . S
C3938 H3928 0.950 . S
C3938 C3939 1.386 . S
C3938 C3940 1.391 . S
C3939 C3938 1.386 . S
C3939 C3943 1.393 . S
C3940 H3929 0.950 . S
C3940 C3938 1.391 . S
C3940 C3941 1.400 . S
C3941 C3935 1.491 . S
C3941 C3940 1.400 . S
C3941 C3942 1.398 . S
C3942 H3930 0.950 . S
C3942 C3941 1.398 . S
C3942 C3943 1.391 . S
C3943 H3931 0.950 . S
C3943 C3939 1.393 . S
C3943 C3942 1.391 . S
H3944 C3952 0.950 . S
H3945 C3957 0.950 . S
H3946 C3954 0.950 . S
H3947 C3956 0.950 . S
H3948 C3958 0.950 . S
H3949 C3960 0.950 . S
H3950 C3962 0.950 . S
H3951 C3963 0.950 . S
C3952 H3944 0.950 . S
C3952 C3953 1.386 . S
C3952 C3954 1.391 . S
C3953 C3952 1.386 . S
C3953 C3957 1.393 . S
C3954 H3946 0.950 . S
C3954 C3952 1.391 . S
C3954 C3955 1.400 . S
C3955 C3954 1.400 . S
C3955 C3956 1.398 . S
C3955 C3961 1.491 . S
C3956 H3947 0.950 . S
C3956 C3955 1.398 . S
C3956 C3957 1.391 . S
C3957 H3945 0.950 . S
C3957 C3953 1.393 . S
C3957 C3956 1.391 . S
C3958 H3948 0.950 . S
C3958 C3959 1.386 . S
C3958 C3960 1.391 . S
C3959 C3958 1.386 . S
C3959 C3963 1.393 . S
C3960 H3949 0.950 . S
C3960 C3958 1.391 . S
C3960 C3961 1.400 . S
C3961 C3955 1.491 . S
C3961 C3960 1.400 . S
C3961 C3962 1.398 . S
C3962 H3950 0.950 . S
C3962 C3961 1.398 . S
C3962 C3963 1.391 . S
C3963 H3951 0.950 . S
C3963 C3959 1.393 . S
C3963 C3962 1.391 . S
H3964 C3972 0.950 . S
H3965 C3977 0.950 . S
H3966 C3974 0.950 . S
H3967 C3976 0.950 . S
H3968 C3978 0.950 . S
H3969 C3980 0.950 . S
H3970 C3982 0.950 . S
H3971 C3983 0.950 . S
C3972 H3964 0.950 . S
C3972 C3973 1.386 . S
C3972 C3974 1.391 . S
C3973 C3972 1.386 . S
C3973 C3977 1.393 . S
C3974 H3966 0.950 . S
C3974 C3972 1.391 . S
C3974 C3975 1.400 . S
C3975 C3974 1.400 . S
C3975 C3976 1.398 . S
C3975 C3981 1.491 . S
C3976 H3967 0.950 . S
C3976 C3975 1.398 . S
C3976 C3977 1.391 . S
C3977 H3965 0.950 . S
C3977 C3973 1.393 . S
C3977 C3976 1.391 . S
C3978 H3968 0.950 . S
C3978 C3979 1.386 . S
C3978 C3980 1.391 . S
C3979 C3978 1.386 . S
C3979 C3983 1.393 . S
C3980 H3969 0.950 . S
C3980 C3978 1.391 . S
C3980 C3981 1.400 . S
C3981 C3975 1.491 . S
C3981 C3980 1.400 . S
C3981 C3982 1.398 . S
C3982 H3970 0.950 . S
C3982 C3981 1.398 . S
C3982 C3983 1.391 . S
C3983 H3971 0.950 . S
C3983 C3979 1.393 . S
C3983 C3982 1.391 . S
C1593 C282 0.954 . S
C1599 N13 0.960 . S
C1613 C315 0.949 . S
C1619 N46 0.949 . S
C1633 N79 0.948 . S
C1639 C348 0.953 . S
C1653 N112 0.949 . S
C1659 C381 0.955 . S
C1673 N145 0.956 . S
C1679 C414 0.948 . S
C1693 C447 0.960 . S
C1699 N178 0.954 . S
C1713 C480 0.953 . S
C1719 N211 0.948 . S
C1733 N244 0.950 . S
C1739 C513 0.957 . S
C1753 N277 0.958 . S
C1759 C546 0.950 . S
C1773 N310 0.948 . S
C1779 C1569 0.953 . S
C1793 N343 0.958 . S
C1799 C1503 0.951 . S
C1813 N376 0.960 . S
C1819 C1536 0.955 . S
C1833 C579 0.953 . S
C1839 N409 0.959 . S
C1853 C612 0.959 . S
C1859 N442 0.958 . S
C1873 N475 0.949 . S
C1879 C645 0.948 . S
C1893 N508 0.958 . S
C1899 C1470 0.960 . S
C1913 N541 0.954 . S
C1919 C18 0.960 . S
C1933 C150 0.955 . S
C1939 N574 0.960 . S
C1953 N607 0.958 . S
C1959 C183 0.960 . S
C1973 C216 0.951 . S
C1979 N640 0.948 . S
C1993 N673 0.959 . S
C1999 C1041 0.953 . S
C2013 N706 0.951 . S
C2019 C876 0.947 . S
C2033 N739 0.959 . S
C2039 C909 0.953 . S
C2053 N772 0.949 . S
C2059 C843 0.955 . S
C2073 C1074 0.947 . S
C2079 N805 0.955 . S
C2093 C1107 0.947 . S
C2099 N838 0.950 . S
C2113 C1140 0.953 . S
C2119 N871 0.948 . S
C2133 N904 0.949 . S
C2139 C1173 0.948 . S
C2153 C1206 0.947 . S
C2159 N937 0.955 . S
C2173 C1239 0.958 . S
C2179 N970 0.951 . S
C2193 N1003 0.957 . S
C2199 C1272 0.960 . S
C2213 N1036 0.960 . S
C2219 C1305 0.954 . S
C2233 N1069 0.952 . S
C2239 C1338 0.946 . S
C2253 C777 0.955 . S
C2259 N1102 0.960 . S
C2273 C711 0.958 . S
C2279 N1135 0.951 . S
C2293 N1168 0.960 . S
C2299 C744 0.956 . S
C2313 N1201 0.948 . S
C2319 C1371 0.949 . S
C2333 N1234 0.959 . S
C2339 C1404 0.953 . S
C2353 C1437 0.960 . S
C2359 N1267 0.955 . S
C2373 N1300 0.960 . S
C2379 C678 0.955 . S
C2393 C810 0.959 . S
C2399 N1333 0.959 . S
C2413 N1366 0.948 . S
C2419 C942 0.954 . S
C2433 N1399 0.953 . S
C2439 C975 0.959 . S
C2453 C1008 0.956 . S
C2459 N1432 0.960 . S
C2473 N1465 0.959 . S
C2479 C249 0.952 . S
C2493 N1498 0.960 . S
C2499 C84 0.956 . S
C2513 C117 0.946 . S
C2519 N1531 0.951 . S
C2533 C51 0.959 . S
C2539 N1564 0.953 . S
C2553 C21 1.852 . S
C2559 C87 1.858 . S
C2573 C54 1.857 . S
C2579 C120 1.851 . S
C2593 C219 1.853 . S
C2599 C153 1.848 . S
C2613 C186 1.858 . S
C2619 C252 1.857 . S
C2633 C417 1.849 . S
C2639 C285 1.847 . S
C2653 C318 1.858 . S
C2659 C450 1.857 . S
C2673 C483 1.855 . S
C2679 C351 1.849 . S
C2693 C516 1.847 . S
C2699 C384 1.850 . S
C2713 C1440 1.847 . S
C2719 C549 1.850 . S
C2733 C582 1.853 . S
C2739 C714 1.848 . S
C2753 C615 1.850 . S
C2759 C747 1.856 . S
C2773 C648 1.855 . S
C2779 C1341 1.858 . S
C2793 C1572 1.856 . S
C2799 C681 1.858 . S
C2813 C1473 1.848 . S
C2819 C780 1.848 . S
C2833 C879 1.852 . S
C2839 C813 1.857 . S
C2853 C912 1.858 . S
C2859 C846 1.853 . S
C2873 C1011 1.857 . S
C2879 C945 1.858 . S
C2893 C1044 1.858 . S
C2899 C978 1.857 . S
C2913 C1077 1.853 . S
C2919 C1209 1.858 . S
C2933 C1242 1.858 . S
C2939 C1110 1.857 . S
C2953 C1143 1.847 . S
C2959 C1275 1.851 . S
C2973 C1308 1.857 . S
C2979 C1176 1.858 . S
C2993 C1506 1.853 . S
C2999 C1374 1.848 . S
C3013 C1407 1.854 . S
C3019 C1539 1.848 . S
C3033 C436 1.747 . S
C3039 N2 1.649 . S
C3053 C469 1.746 . S
C3059 N35 1.650 . S
C3073 N68 1.650 . S
C3079 C502 1.746 . S
C3093 N101 1.629 . S
C3099 C403 1.745 . S
C3113 N134 1.635 . S
C3119 C1162 1.744 . S
C3133 C1063 1.745 . S
C3139 N167 1.629 . S
C3153 C1096 1.745 . S
C3159 N200 1.631 . S
C3173 N233 1.637 . S
C3179 C1129 1.749 . S
C3193 N266 1.622 . S
C3199 C832 1.749 . S
C3213 C865 1.747 . S
C3219 N299 1.649 . S
C3233 C898 1.745 . S
C3239 N332 1.628 . S
C3253 N365 1.627 . S
C3259 C799 1.749 . S
C3273 N398 1.649 . S
C3279 C238 1.747 . S
C3293 N431 1.626 . S
C3299 C139 1.749 . S
C3313 C172 1.748 . S
C3319 N464 1.620 . S
C3333 N497 1.647 . S
C3339 C205 1.745 . S
C3353 C1525 1.745 . S
C3359 N530 1.624 . S
C3373 N563 1.649 . S
C3379 C1393 1.746 . S
C3393 C1426 1.746 . S
C3399 N596 1.650 . S
C3413 N629 1.647 . S
C3419 C667 1.745 . S
C3433 C568 1.746 . S
C3439 N662 1.621 . S
C3453 N695 1.631 . S
C3459 C766 1.749 . S
C3473 N728 1.641 . S
C3479 C700 1.749 . S
C3493 C1327 1.747 . S
C3499 N761 1.648 . S
C3513 C1228 1.747 . S
C3519 N794 1.648 . S
C3533 C1261 1.749 . S
C3539 N827 1.621 . S
C3553 N860 1.648 . S
C3559 C1294 1.745 . S
C3573 N893 1.646 . S
C3579 C1195 1.745 . S
C3593 C370 1.746 . S
C3599 N926 1.650 . S
C3613 N959 1.621 . S
C3619 C271 1.747 . S
C3633 N992 1.644 . S
C3639 C304 1.744 . S
C3653 N1025 1.633 . S
C3659 C337 1.749 . S
C3673 N1058 1.639 . S
C3679 C40 1.744 . S
C3693 N1091 1.622 . S
C3699 C73 1.746 . S
C3713 N1124 1.647 . S
C3719 C106 1.745 . S
C3733 N1157 1.620 . S
C3739 C7 1.747 . S
C3753 C1030 1.744 . S
C3759 N1190 1.641 . S
C3773 C931 1.746 . S
C3779 N1223 1.650 . S
C3793 N1256 1.650 . S
C3799 C964 1.746 . S
C3813 N1289 1.647 . S
C3819 C997 1.745 . S
C3833 C733 1.744 . S
C3839 N1322 1.638 . S
C3853 N1355 1.641 . S
C3859 C601 1.744 . S
C3873 C634 1.749 . S
C3879 N1388 1.640 . S
C3893 N1421 1.649 . S
C3899 C1459 1.746 . S
C3913 C1360 1.748 . S
C3919 N1454 1.620 . S
C3933 C1558 1.749 . S
C3939 N1487 1.629 . S
C3953 C1492 1.747 . S
C3959 N1520 1.620 . S
C3973 N1553 1.627 . S
C3979 C535 1.749 . S
