# Generated by pormake.
# Topology wge, (5)-cn, num edge types: 1
# Building blocks:
#     Node 0, Type 0, BuildingBlock: XOMCOT_clean_sbu_0, # of connection points: 5
#     Node 1, Type 0, BuildingBlock: XOMCOT_clean_sbu_0, # of connection points: 5
#     Node 2, Type 0, BuildingBlock: XOMCOT_clean_sbu_0, # of connection points: 5
#     Node 3, Type 0, BuildingBlock: XOMCOT_clean_sbu_0, # of connection points: 5
#     Node 4, Type 0, BuildingBlock: XOMCOT_clean_sbu_0, # of connection points: 5
#     Node 5, Type 0, BuildingBlock: XOMCOT_clean_sbu_0, # of connection points: 5
#     Node 6, Type 0, BuildingBlock: XOMCOT_clean_sbu_0, # of connection points: 5
#     Node 7, Type 0, BuildingBlock: XOMCOT_clean_sbu_0, # of connection points: 5
#     Node 8, Type 0, BuildingBlock: XOMCOT_clean_sbu_0, # of connection points: 5
#     Node 9, Type 0, BuildingBlock: XOMCOT_clean_sbu_0, # of connection points: 5
#     Node 10, Type 0, BuildingBlock: XOMCOT_clean_sbu_0, # of connection points: 5
#     Node 11, Type 0, BuildingBlock: XOMCOT_clean_sbu_0, # of connection points: 5
#     Node 12, Type 0, BuildingBlock: XOMCOT_clean_sbu_0, # of connection points: 5
#     Node 13, Type 0, BuildingBlock: XOMCOT_clean_sbu_0, # of connection points: 5
#     Node 14, Type 0, BuildingBlock: XOMCOT_clean_sbu_0, # of connection points: 5
#     Node 15, Type 0, BuildingBlock: XOMCOT_clean_sbu_0, # of connection points: 5
#     Node 16, Type 0, BuildingBlock: XOMCOT_clean_sbu_0, # of connection points: 5
#     Node 17, Type 0, BuildingBlock: XOMCOT_clean_sbu_0, # of connection points: 5
#     Node 18, Type 0, BuildingBlock: XOMCOT_clean_sbu_0, # of connection points: 5
#     Node 19, Type 0, BuildingBlock: XOMCOT_clean_sbu_0, # of connection points: 5
#     Node 20, Type 0, BuildingBlock: XOMCOT_clean_sbu_0, # of connection points: 5
#     Node 21, Type 0, BuildingBlock: XOMCOT_clean_sbu_0, # of connection points: 5
#     Node 22, Type 0, BuildingBlock: XOMCOT_clean_sbu_0, # of connection points: 5
#     Node 23, Type 0, BuildingBlock: XOMCOT_clean_sbu_0, # of connection points: 5
#     Node 24, Type 0, BuildingBlock: XOMCOT_clean_sbu_0, # of connection points: 5
#     Node 25, Type 0, BuildingBlock: XOMCOT_clean_sbu_0, # of connection points: 5
#     Node 26, Type 0, BuildingBlock: XOMCOT_clean_sbu_0, # of connection points: 5
#     Node 27, Type 0, BuildingBlock: XOMCOT_clean_sbu_0, # of connection points: 5
#     Node 28, Type 0, BuildingBlock: XOMCOT_clean_sbu_0, # of connection points: 5
#     Node 29, Type 0, BuildingBlock: XOMCOT_clean_sbu_0, # of connection points: 5
#     Node 30, Type 0, BuildingBlock: XOMCOT_clean_sbu_0, # of connection points: 5
#     Node 31, Type 0, BuildingBlock: XOMCOT_clean_sbu_0, # of connection points: 5
#     Edge 32, Type (0, 0), BuildingBlock: UVAHIK_clean_linker_0, # of connection points: 2
#     Edge 33, Type (0, 0), BuildingBlock: UVAHIK_clean_linker_0, # of connection points: 2
#     Edge 34, Type (0, 0), BuildingBlock: UVAHIK_clean_linker_0, # of connection points: 2
#     Edge 35, Type (0, 0), BuildingBlock: UVAHIK_clean_linker_0, # of connection points: 2
#     Edge 36, Type (0, 0), BuildingBlock: UVAHIK_clean_linker_0, # of connection points: 2
#     Edge 37, Type (0, 0), BuildingBlock: UVAHIK_clean_linker_0, # of connection points: 2
#     Edge 38, Type (0, 0), BuildingBlock: UVAHIK_clean_linker_0, # of connection points: 2
#     Edge 39, Type (0, 0), BuildingBlock: UVAHIK_clean_linker_0, # of connection points: 2
#     Edge 40, Type (0, 0), BuildingBlock: UVAHIK_clean_linker_0, # of connection points: 2
#     Edge 41, Type (0, 0), BuildingBlock: UVAHIK_clean_linker_0, # of connection points: 2
#     Edge 42, Type (0, 0), BuildingBlock: UVAHIK_clean_linker_0, # of connection points: 2
#     Edge 43, Type (0, 0), BuildingBlock: UVAHIK_clean_linker_0, # of connection points: 2
#     Edge 44, Type (0, 0), BuildingBlock: UVAHIK_clean_linker_0, # of connection points: 2
#     Edge 45, Type (0, 0), BuildingBlock: UVAHIK_clean_linker_0, # of connection points: 2
#     Edge 46, Type (0, 0), BuildingBlock: UVAHIK_clean_linker_0, # of connection points: 2
#     Edge 47, Type (0, 0), BuildingBlock: UVAHIK_clean_linker_0, # of connection points: 2
#     Edge 48, Type (0, 0), BuildingBlock: UVAHIK_clean_linker_0, # of connection points: 2
#     Edge 49, Type (0, 0), BuildingBlock: UVAHIK_clean_linker_0, # of connection points: 2
#     Edge 50, Type (0, 0), BuildingBlock: UVAHIK_clean_linker_0, # of connection points: 2
#     Edge 51, Type (0, 0), BuildingBlock: UVAHIK_clean_linker_0, # of connection points: 2
#     Edge 52, Type (0, 0), BuildingBlock: UVAHIK_clean_linker_0, # of connection points: 2
#     Edge 53, Type (0, 0), BuildingBlock: UVAHIK_clean_linker_0, # of connection points: 2
#     Edge 54, Type (0, 0), BuildingBlock: UVAHIK_clean_linker_0, # of connection points: 2
#     Edge 55, Type (0, 0), BuildingBlock: UVAHIK_clean_linker_0, # of connection points: 2
#     Edge 56, Type (0, 0), BuildingBlock: UVAHIK_clean_linker_0, # of connection points: 2
#     Edge 57, Type (0, 0), BuildingBlock: UVAHIK_clean_linker_0, # of connection points: 2
#     Edge 58, Type (0, 0), BuildingBlock: UVAHIK_clean_linker_0, # of connection points: 2
#     Edge 59, Type (0, 0), BuildingBlock: UVAHIK_clean_linker_0, # of connection points: 2
#     Edge 60, Type (0, 0), BuildingBlock: UVAHIK_clean_linker_0, # of connection points: 2
#     Edge 61, Type (0, 0), BuildingBlock: UVAHIK_clean_linker_0, # of connection points: 2
#     Edge 62, Type (0, 0), BuildingBlock: UVAHIK_clean_linker_0, # of connection points: 2
#     Edge 63, Type (0, 0), BuildingBlock: UVAHIK_clean_linker_0, # of connection points: 2
#     Edge 64, Type (0, 0), BuildingBlock: UVAHIK_clean_linker_0, # of connection points: 2
#     Edge 65, Type (0, 0), BuildingBlock: UVAHIK_clean_linker_0, # of connection points: 2
#     Edge 66, Type (0, 0), BuildingBlock: UVAHIK_clean_linker_0, # of connection points: 2
#     Edge 67, Type (0, 0), BuildingBlock: UVAHIK_clean_linker_0, # of connection points: 2
#     Edge 68, Type (0, 0), BuildingBlock: UVAHIK_clean_linker_0, # of connection points: 2
#     Edge 69, Type (0, 0), BuildingBlock: UVAHIK_clean_linker_0, # of connection points: 2
#     Edge 70, Type (0, 0), BuildingBlock: UVAHIK_clean_linker_0, # of connection points: 2
#     Edge 71, Type (0, 0), BuildingBlock: UVAHIK_clean_linker_0, # of connection points: 2
#     Edge 72, Type (0, 0), BuildingBlock: UVAHIK_clean_linker_0, # of connection points: 2
#     Edge 73, Type (0, 0), BuildingBlock: UVAHIK_clean_linker_0, # of connection points: 2
#     Edge 74, Type (0, 0), BuildingBlock: UVAHIK_clean_linker_0, # of connection points: 2
#     Edge 75, Type (0, 0), BuildingBlock: UVAHIK_clean_linker_0, # of connection points: 2
#     Edge 76, Type (0, 0), BuildingBlock: UVAHIK_clean_linker_0, # of connection points: 2
#     Edge 77, Type (0, 0), BuildingBlock: UVAHIK_clean_linker_0, # of connection points: 2
#     Edge 78, Type (0, 0), BuildingBlock: UVAHIK_clean_linker_0, # of connection points: 2
#     Edge 79, Type (0, 0), BuildingBlock: UVAHIK_clean_linker_0, # of connection points: 2
#     Edge 80, Type (0, 0), BuildingBlock: UVAHIK_clean_linker_0, # of connection points: 2
#     Edge 81, Type (0, 0), BuildingBlock: UVAHIK_clean_linker_0, # of connection points: 2
#     Edge 82, Type (0, 0), BuildingBlock: UVAHIK_clean_linker_0, # of connection points: 2
#     Edge 83, Type (0, 0), BuildingBlock: UVAHIK_clean_linker_0, # of connection points: 2
#     Edge 84, Type (0, 0), BuildingBlock: UVAHIK_clean_linker_0, # of connection points: 2
#     Edge 85, Type (0, 0), BuildingBlock: UVAHIK_clean_linker_0, # of connection points: 2
#     Edge 86, Type (0, 0), BuildingBlock: UVAHIK_clean_linker_0, # of connection points: 2
#     Edge 87, Type (0, 0), BuildingBlock: UVAHIK_clean_linker_0, # of connection points: 2
#     Edge 88, Type (0, 0), BuildingBlock: UVAHIK_clean_linker_0, # of connection points: 2
#     Edge 89, Type (0, 0), BuildingBlock: UVAHIK_clean_linker_0, # of connection points: 2
#     Edge 90, Type (0, 0), BuildingBlock: UVAHIK_clean_linker_0, # of connection points: 2
#     Edge 91, Type (0, 0), BuildingBlock: UVAHIK_clean_linker_0, # of connection points: 2
#     Edge 92, Type (0, 0), BuildingBlock: UVAHIK_clean_linker_0, # of connection points: 2
#     Edge 93, Type (0, 0), BuildingBlock: UVAHIK_clean_linker_0, # of connection points: 2
#     Edge 94, Type (0, 0), BuildingBlock: UVAHIK_clean_linker_0, # of connection points: 2
#     Edge 95, Type (0, 0), BuildingBlock: UVAHIK_clean_linker_0, # of connection points: 2
#     Edge 96, Type (0, 0), BuildingBlock: UVAHIK_clean_linker_0, # of connection points: 2
#     Edge 97, Type (0, 0), BuildingBlock: UVAHIK_clean_linker_0, # of connection points: 2
#     Edge 98, Type (0, 0), BuildingBlock: UVAHIK_clean_linker_0, # of connection points: 2
#     Edge 99, Type (0, 0), BuildingBlock: UVAHIK_clean_linker_0, # of connection points: 2
#     Edge 100, Type (0, 0), BuildingBlock: UVAHIK_clean_linker_0, # of connection points: 2
#     Edge 101, Type (0, 0), BuildingBlock: UVAHIK_clean_linker_0, # of connection points: 2
#     Edge 102, Type (0, 0), BuildingBlock: UVAHIK_clean_linker_0, # of connection points: 2
#     Edge 103, Type (0, 0), BuildingBlock: UVAHIK_clean_linker_0, # of connection points: 2
#     Edge 104, Type (0, 0), BuildingBlock: UVAHIK_clean_linker_0, # of connection points: 2
#     Edge 105, Type (0, 0), BuildingBlock: UVAHIK_clean_linker_0, # of connection points: 2
#     Edge 106, Type (0, 0), BuildingBlock: UVAHIK_clean_linker_0, # of connection points: 2
#     Edge 107, Type (0, 0), BuildingBlock: UVAHIK_clean_linker_0, # of connection points: 2
#     Edge 108, Type (0, 0), BuildingBlock: UVAHIK_clean_linker_0, # of connection points: 2
#     Edge 109, Type (0, 0), BuildingBlock: UVAHIK_clean_linker_0, # of connection points: 2
#     Edge 110, Type (0, 0), BuildingBlock: UVAHIK_clean_linker_0, # of connection points: 2
#     Edge 111, Type (0, 0), BuildingBlock: UVAHIK_clean_linker_0, # of connection points: 2
# Relax obj value: 0.090
# Max RMSD: 0.130
# Mean RMSD: 0.130
data_MOF--net-wge--node1-XOMCOT_clean_sbu_0--edge1-UVAHIK_clean_linker_0
_symmetry_space_group_name_H-M    P1
_symmetry_Int_Tables_number       1
_symmetry_cell_setting            triclinic
loop_
_symmetry_equiv_pos_as_xyz
'x, y, z'
_cell_length_a     87.543027
_cell_length_b     87.633676
_cell_length_c     51.688129
_cell_angle_alpha  89.988434
_cell_angle_beta   89.999967
_cell_angle_gamma 90.007951
loop_
_atom_site_label
_atom_site_type_symbol
_atom_site_fract_x
_atom_site_fract_y
_atom_site_fract_z
_atom_type_partial_charge
Co0 Co 0.23908 0.11993 0.0442 0.0
C1 C 0.25515 0.12109 0.09446 0.0
C2 C 0.26549 0.10513 0.06856 0.0
C3 C 0.27182 0.10316 0.0927 0.0
N4 N 0.25517 0.11658 0.06947 0.0
N5 N 0.26524 0.11321 0.10892 0.0
H6 H 0.24661 0.12843 0.10286 0.0
H7 H 0.26727 0.09768 0.05217 0.0
C8 C 0.2674 0.11827 0.01184 0.0
O9 O 0.27386 0.1278 0.02814 0.0
N10 N 0.22294 0.1227 0.01948 0.0
C11 C 0.21186 0.13333 0.02006 0.0
C12 C 0.20236 0.13103 -0.00081 0.0
C13 C 0.22006 0.114 -0.00139 0.0
N14 N 0.20753 0.11885 0.98578 0.0
C15 C 0.24177 0.15106 0.06166 0.0
C16 C 0.24923 0.16353 0.01421 0.0
C17 C 0.2477 0.17327 0.03557 0.0
C18 C 0.24387 0.16681 0.05952 0.0
C19 C 0.24705 0.14782 0.01723 0.0
N20 N 0.2439 0.14164 0.04095 0.0
H21 H 0.23765 0.14663 0.07973 0.0
H22 H 0.24743 0.1407 0.0002 0.0
H23 H 0.2107 0.14204 0.03476 0.0
H24 H 0.22703 0.10436 0.99297 0.0
O25 O 0.22417 0.12083 0.07188 0.0
O26 O 0.23152 0.09971 0.0519 0.0
O27 O 0.25349 0.11424 0.01514 0.0
C28 C 0.22316 0.10606 0.06973 0.0
H29 H 0.27976 0.09428 0.09829 0.0
H30 H 0.19225 0.13759 0.9946 0.0
H31 H 0.25192 0.16799 0.99521 0.0
H32 H 0.24187 0.17393 0.07631 0.0
Co33 Co 0.14182 0.98925 0.29581 0.0
C34 C 0.14154 1.0051 0.34628 0.0
C35 C 0.15783 0.01487 0.3203 0.0
C36 C 0.16019 0.02097 0.34451 0.0
N37 N 0.14594 1.00505 0.32124 0.0
N38 N 0.14992 0.01475 0.36078 0.0
H39 H 0.13387 0.99686 0.35468 0.0
H40 H 0.16527 0.01641 0.30382 0.0
C41 C 0.14434 0.01763 0.26376 0.0
O42 O 0.13527 0.02446 0.2804 0.0
N43 N 0.13833 0.97339 0.27086 0.0
C44 C 0.12678 0.96324 0.27035 0.0
C45 C 0.12882 0.95376 0.24936 0.0
C46 C 0.14732 0.96991 0.25062 0.0
N47 N 0.14176 0.95797 0.23712 0.0
C48 C 0.11099 0.99262 0.31426 0.0
C49 C 0.09813 1.00119 0.26766 0.0
C50 C 0.08862 0.99959 0.28934 0.0
C51 C 0.09528 0.99521 0.31283 0.0
C52 C 0.11385 0.99855 0.26998 0.0
N53 N 0.12023 0.99482 0.29332 0.0
H54 H 0.1155 0.98804 0.33194 0.0
H55 H 0.12076 0.99898 0.25271 0.0
H56 H 0.11759 0.96273 0.28431 0.0
H57 H 0.15768 0.97605 0.24586 0.0
O58 O 0.14062 0.97424 0.32326 0.0
O59 O 0.16186 0.98095 0.30296 0.0
O60 O 0.14777 1.00356 0.26681 0.0
C61 C 0.15535 0.97276 0.32084 0.0
H62 H 0.16944 0.02848 0.3501 0.0
H63 H 0.12153 0.94432 0.24386 0.0
H64 H 0.09347 1.00426 0.24897 0.0
H65 H 0.08833 0.99312 0.3298 0.0
Co66 Co 0.27322 0.89161 0.54503 0.0
C67 C 0.25761 0.89118 0.59579 0.0
C68 C 0.24836 0.90817 0.57054 0.0
C69 C 0.24231 0.91032 0.59483 0.0
N70 N 0.25782 0.896 0.57099 0.0
N71 N 0.24821 0.89963 0.61065 0.0
H72 H 0.26548 0.88297 0.60372 0.0
H73 H 0.24697 0.9158 0.55427 0.0
C74 C 0.24416 0.89418 0.51459 0.0
O75 O 0.23746 0.8856 0.53211 0.0
N76 N 0.28866 0.8878 0.51944 0.0
C77 C 0.29864 0.87612 0.51859 0.0
C78 C 0.30788 0.878 0.49723 0.0
C79 C 0.292 0.89671 0.49902 0.0
N80 N 0.30369 0.89097 0.48509 0.0
C81 C 0.27132 0.86101 0.56453 0.0
C82 C 0.25965 0.84755 0.52048 0.0
C83 C 0.26274 0.83829 0.54204 0.0
C84 C 0.26883 0.8453 0.56415 0.0
C85 C 0.26253 0.86326 0.52158 0.0
N86 N 0.26769 0.86997 0.54383 0.0
H87 H 0.27698 0.86577 0.58114 0.0
H88 H 0.26106 0.86988 0.50415 0.0
H89 H 0.29925 0.86697 0.5326 0.0
H90 H 0.28595 0.90714 0.49447 0.0
O91 O 0.28866 0.89084 0.57182 0.0
O92 O 0.2816 0.91177 0.55108 0.0
O93 O 0.2584 0.89721 0.5165 0.0
C94 C 0.29005 0.90551 0.56887 0.0
H95 H 0.235 0.91965 0.60076 0.0
H96 H 0.31717 0.8706 0.49144 0.0
H97 H 0.2552 0.84274 0.50272 0.0
H98 H 0.27224 0.83865 0.58084 0.0
Co99 Co 0.37048 0.02263 0.79501 0.0
C100 C 0.37099 0.00709 0.84578 0.0
C101 C 0.35481 0.99695 0.82001 0.0
C102 C 0.35256 0.99096 0.84434 0.0
N103 N 0.36657 0.00693 0.82074 0.0
N104 N 0.36275 0.99741 0.86047 0.0
H105 H 0.37858 0.01547 0.854 0.0
H106 H 0.34739 0.9952 0.80357 0.0
C107 C 0.36821 0.99407 0.76332 0.0
O108 O 0.37737 0.98742 0.78001 0.0
N109 N 0.37377 0.03839 0.76978 0.0
C110 C 0.38521 0.04867 0.76916 0.0
C111 C 0.38307 0.05805 0.74807 0.0
C112 C 0.36474 0.0417 0.74951 0.0
N113 N 0.37017 0.05366 0.73587 0.0
C114 C 0.4014 0.01965 0.81331 0.0
C115 C 0.4142 0.01109 0.76668 0.0
C116 C 0.42378 0.01293 0.78821 0.0
C117 C 0.41714 0.0173 0.81174 0.0
C118 C 0.39847 0.01352 0.76913 0.0
N119 N 0.39212 0.01727 0.79247 0.0
H120 H 0.39688 0.02424 0.83099 0.0
H121 H 0.39151 0.01293 0.75193 0.0
H122 H 0.39438 0.04934 0.78312 0.0
H123 H 0.35444 0.03544 0.74482 0.0
O124 O 0.37155 0.03781 0.8222 0.0
O125 O 0.35036 0.03074 0.80208 0.0
O126 O 0.36462 0.00811 0.76624 0.0
C127 C 0.35681 0.03911 0.81978 0.0
H128 H 0.34344 0.98334 0.85007 0.0
H129 H 0.39024 0.06755 0.74248 0.0
H130 H 0.41882 0.00799 0.74797 0.0
H131 H 0.42413 0.01956 0.8286 0.0
Co132 Co 0.23934 0.89164 0.95116 0.0
C133 C 0.25484 0.89101 0.90036 0.0
C134 C 0.26433 0.90792 0.92548 0.0
C135 C 0.27027 0.91005 0.90111 0.0
N136 N 0.25479 0.89581 0.92517 0.0
N137 N 0.26421 0.89942 0.88536 0.0
H138 H 0.24682 0.8829 0.89252 0.0
H139 H 0.26581 0.91558 0.94169 0.0
C140 C 0.26832 0.89439 0.98172 0.0
O141 O 0.27497 0.88559 0.96448 0.0
N142 N 0.22384 0.88804 0.97672 0.0
C143 C 0.21379 0.87641 0.97758 0.0
C144 C 0.20455 0.87834 -0.00109 0.0
C145 C 0.22054 0.89697 0.99712 0.0
N146 N 0.20881 0.89129 0.01105 0.0
C147 C 0.24162 0.86079 0.93265 0.0
C148 C 0.25268 0.848 0.97774 0.0
C149 C 0.24986 0.8384 0.95651 0.0
C150 C 0.24411 0.84507 0.93383 0.0
C151 C 0.24978 0.86367 0.97586 0.0
N152 N 0.24492 0.87004 0.95314 0.0
H153 H 0.23622 0.86532 0.91562 0.0
H154 H 0.25098 0.87052 0.99306 0.0
H155 H 0.21315 0.86725 0.9636 0.0
H156 H 0.22665 0.90736 0.00169 0.0
O157 O 0.22395 0.89059 0.92429 0.0
O158 O 0.23096 0.91172 0.94453 0.0
O159 O 0.2541 0.89753 0.97961 0.0
C160 C 0.22254 0.90529 0.92686 0.0
H161 H 0.27757 0.91936 0.89507 0.0
H162 H 0.19523 0.87098 0.00471 0.0
H163 H 0.25691 0.84349 0.99587 0.0
H164 H 0.24095 0.83817 0.9173 0.0
Co165 Co 0.37111 0.98899 0.20035 0.0
C166 C 0.37156 1.00474 0.14977 0.0
C167 C 0.3553 0.01468 0.17562 0.0
C168 C 0.353 0.02072 0.15134 0.0
N169 N 0.36713 1.00478 0.17481 0.0
N170 N 0.36325 0.0144 0.13516 0.0
H171 H 0.37919 0.99644 0.14147 0.0
H172 H 0.34786 0.01631 0.19207 0.0
C173 C 0.36867 0.01741 0.23242 0.0
O174 O 0.37773 0.02425 0.2158 0.0
N175 N 0.37448 0.97314 0.22538 0.0
C176 C 0.38597 0.96292 0.22593 0.0
C177 C 0.38388 0.95347 0.24694 0.0
C178 C 0.36546 0.96972 0.24563 0.0
N179 N 0.37095 0.95776 0.25917 0.0
C180 C 0.40198 0.99211 0.182 0.0
C181 C 0.41486 1.00064 0.22859 0.0
C182 C 0.42438 0.9989 0.20697 0.0
C183 C 0.41771 0.99454 0.18347 0.0
C184 C 0.39912 0.99817 0.22622 0.0
N185 N 0.39273 0.99443 0.20289 0.0
H186 H 0.39745 0.98752 0.16433 0.0
H187 H 0.39218 0.9987 0.24346 0.0
H188 H 0.39516 0.96234 0.21197 0.0
H189 H 0.35514 0.97592 0.25037 0.0
O190 O 0.37223 0.97394 0.17297 0.0
O191 O 0.35102 0.98082 0.1932 0.0
O192 O 0.36521 1.00335 0.22931 0.0
C193 C 0.35749 0.97256 0.17537 0.0
H194 H 0.34381 0.02826 0.14565 0.0
H195 H 0.3911 0.94399 0.25247 0.0
H196 H 0.41952 1.0037 0.24729 0.0
H197 H 0.42467 0.99235 0.16655 0.0
Co198 Co 0.27257 0.11951 0.44959 0.0
C199 C 0.25727 0.11998 0.39862 0.0
C200 C 0.24803 0.10281 0.42353 0.0
C201 C 0.24225 0.10061 0.39905 0.0
N202 N 0.25732 0.1151 0.42339 0.0
N203 N 0.24816 0.11141 0.38344 0.0
H204 H 0.26511 0.12831 0.39096 0.0
H205 H 0.24662 0.09511 0.4397 0.0
C206 C 0.24337 0.11661 0.47967 0.0
O207 O 0.2366 0.12508 0.46207 0.0
N208 N 0.28788 0.12335 0.47539 0.0
C209 C 0.29782 0.13507 0.47638 0.0
C210 C 0.30697 0.13322 0.49785 0.0
C211 C 0.29116 0.11445 0.49584 0.0
N212 N 0.30277 0.12023 0.50992 0.0
C213 C 0.27079 0.15021 0.43033 0.0
C214 C 0.25865 0.1634 0.47425 0.0
C215 C 0.26201 0.17282 0.45299 0.0
C216 C 0.26831 0.16594 0.43092 0.0
C217 C 0.26156 0.14771 0.47298 0.0
N218 N 0.26696 0.14113 0.45079 0.0
H219 H 0.27658 0.14553 0.41379 0.0
H220 H 0.25993 0.14102 0.49027 0.0
H221 H 0.29846 0.14423 0.46239 0.0
H222 H 0.28513 0.10399 0.5003 0.0
O223 O 0.28816 0.12029 0.42298 0.0
O224 O 0.28101 0.09938 0.44371 0.0
O225 O 0.25766 0.11381 0.47792 0.0
C226 C 0.28955 0.10562 0.42602 0.0
H227 H 0.23518 0.09117 0.39284 0.0
H228 H 0.31621 0.14065 0.50376 0.0
H229 H 0.25398 0.16807 0.49194 0.0
H230 H 0.27191 0.17268 0.41447 0.0
Co231 Co 0.14167 0.0215 0.69959 0.0
C232 C 0.14105 1.00551 0.6493 0.0
C233 C 0.15732 0.99562 0.67518 0.0
C234 C 0.15955 0.98948 0.65097 0.0
N235 N 0.14552 1.00555 0.6743 0.0
N236 N 0.14931 0.99577 0.63476 0.0
H237 H 0.13345 0.01383 0.64094 0.0
H238 H 0.1648 0.99405 0.69161 0.0
C239 C 0.14397 0.99322 0.73193 0.0
O240 O 0.13472 0.9865 0.71545 0.0
N241 N 0.13841 0.0375 0.72436 0.0
C242 C 0.12756 0.04837 0.72365 0.0
C243 C 0.12954 0.05783 0.74467 0.0
C244 C 0.14687 0.04044 0.74548 0.0
N245 N 0.14169 0.0528 0.75834 0.0
C246 C 0.11069 0.01835 0.68168 0.0
C247 C 0.09804 0.01035 0.72873 0.0
C248 C 0.08838 0.01197 0.70724 0.0
C249 C 0.09495 0.01606 0.68351 0.0
C250 C 0.11377 0.01273 0.72603 0.0
N251 N 0.12004 0.01618 0.70249 0.0
H252 H 0.11515 0.02271 0.6638 0.0
H253 H 0.1208 0.01232 0.74317 0.0
H254 H 0.11887 0.04936 0.70887 0.0
H255 H 0.15682 0.03385 0.75091 0.0
O256 O 0.14048 0.0364 0.67197 0.0
O257 O 0.16176 0.02961 0.69207 0.0
O258 O 0.14762 0.00722 0.72869 0.0
C259 C 0.15523 0.03778 0.67418 0.0
H260 H 0.16874 0.98191 0.64532 0.0
H261 H 0.12251 0.06756 0.74955 0.0
H262 H 0.09349 0.00747 0.74759 0.0
H263 H 0.08791 0.01816 0.66665 0.0
Co264 Co 0.77445 0.89095 0.95092 0.0
C265 C 0.75871 0.89038 0.90039 0.0
C266 C 0.74792 0.90578 0.92672 0.0
C267 C 0.74178 0.90804 0.90248 0.0
N268 N 0.75843 0.89451 0.92556 0.0
N269 N 0.74863 0.89832 0.88601 0.0
H270 H 0.76743 0.88331 0.89185 0.0
H271 H 0.7459 0.91298 0.94335 0.0
C272 C 0.74638 0.89287 0.98415 0.0
O273 O 0.73976 0.88278 0.96905 0.0
N274 N 0.79051 0.88796 0.97575 0.0
C275 C 0.80097 0.87668 0.97602 0.0
C276 C 0.81042 0.87882 0.99701 0.0
C277 C 0.7938 0.89691 0.99613 0.0
N278 N 0.8059 0.89156 0.00951 0.0
C279 C 0.77102 0.86006 0.93302 0.0
C280 C 0.76372 0.84725 0.98026 0.0
C281 C 0.7648 0.83772 0.95853 0.0
C282 C 0.76859 0.84436 0.93472 0.0
C283 C 0.76621 0.86296 0.97767 0.0
N284 N 0.76928 0.86932 0.95404 0.0
H285 H 0.77508 0.86457 0.91498 0.0
H286 H 0.76608 0.86995 0.99487 0.0
H287 H 0.80166 0.86758 0.96194 0.0
H288 H 0.78739 0.90705 0.00115 0.0
O289 O 0.78942 0.88979 0.92336 0.0
O290 O 0.78233 0.91105 0.94321 0.0
O291 O 0.76015 0.89702 0.97986 0.0
C292 C 0.79062 0.90455 0.92545 0.0
H293 H 0.73379 0.9169 0.89703 0.0
H294 H 0.82004 0.87173 0.00239 0.0
H295 H 0.7611 0.84262 -0.00083 0.0
H296 H 0.77029 0.83741 0.91764 0.0
Co297 Co 0.87031 0.02299 0.70074 0.0
C298 C 0.87078 0.00754 0.64989 0.0
C299 C 0.85465 0.99734 0.67567 0.0
C300 C 0.85239 0.99136 0.65136 0.0
N301 N 0.86638 0.00735 0.67493 0.0
N302 N 0.86256 0.99785 0.63521 0.0
H303 H 0.87833 0.01596 0.64167 0.0
H304 H 0.84724 0.99557 0.69213 0.0
C305 C 0.86825 0.9943 0.73196 0.0
O306 O 0.87746 0.98785 0.71512 0.0
N307 N 0.87362 0.03868 0.72607 0.0
C308 C 0.88505 0.04897 0.72668 0.0
C309 C 0.88308 0.05815 0.74805 0.0
C310 C 0.86475 0.0418 0.74664 0.0
N311 N 0.87029 0.05363 0.76045 0.0
C312 C 0.90124 0.02 0.68236 0.0
C313 C 0.91403 0.01143 0.72902 0.0
C314 C 0.92362 0.01323 0.70749 0.0
C315 C 0.91699 0.01761 0.68395 0.0
C316 C 0.89831 0.0139 0.72656 0.0
N317 N 0.89196 0.01765 0.70321 0.0
H318 H 0.89673 0.02457 0.66467 0.0
H319 H 0.89134 0.01334 0.74377 0.0
H320 H 0.89414 0.04975 0.71256 0.0
H321 H 0.85453 0.03546 0.75147 0.0
O322 O 0.87135 0.03824 0.67364 0.0
O323 O 0.85018 0.0311 0.69375 0.0
O324 O 0.86453 0.00833 0.72936 0.0
C325 C 0.85661 0.03951 0.67606 0.0
H326 H 0.84328 0.98372 0.64564 0.0
H327 H 0.89031 0.06759 0.75376 0.0
H328 H 0.91864 0.00832 0.74774 0.0
H329 H 0.92399 0.01984 0.66708 0.0
Co330 Co 0.73848 0.11935 0.45092 0.0
C331 C 0.75436 0.1198 0.40044 0.0
C332 C 0.76418 0.10351 0.42634 0.0
C333 C 0.77029 0.1012 0.40211 0.0
N334 N 0.75432 0.11535 0.42545 0.0
N335 N 0.76405 0.11148 0.38591 0.0
H336 H 0.74611 0.12747 0.39207 0.0
H337 H 0.76576 0.09608 0.44283 0.0
C338 C 0.76705 0.11747 0.4826 0.0
O339 O 0.77361 0.12655 0.46567 0.0
N340 N 0.72258 0.12276 0.47585 0.0
C341 C 0.71171 0.13361 0.47508 0.0
C342 C 0.70229 0.13175 0.49618 0.0
C343 C 0.71964 0.11438 0.49708 0.0
N344 N 0.70729 0.11963 0.50994 0.0
C345 C 0.74121 0.15016 0.43212 0.0
C346 C 0.74981 0.16326 0.4785 0.0
C347 C 0.74801 0.17268 0.45677 0.0
C348 C 0.74359 0.1659 0.43339 0.0
C349 C 0.74738 0.14752 0.47633 0.0
N350 N 0.74367 0.14102 0.45309 0.0
H351 H 0.73658 0.14554 0.41455 0.0
H352 H 0.74797 0.14068 0.49366 0.0
H353 H 0.71062 0.14215 0.46008 0.0
H354 H 0.72644 0.10466 0.50292 0.0
O355 O 0.72341 0.12011 0.42351 0.0
O356 O 0.73051 0.09914 0.44419 0.0
O357 O 0.753 0.1138 0.4799 0.0
C358 C 0.72218 0.10539 0.42622 0.0
H359 H 0.77784 0.09201 0.39647 0.0
H360 H 0.69233 0.13856 0.50067 0.0
H361 H 0.75291 0.168 0.49712 0.0
H362 H 0.74133 0.17278 0.4164 0.0
Co363 Co 0.64251 0.98735 0.20057 0.0
C364 C 0.6423 1.00384 0.15065 0.0
C365 C 0.65843 0.01338 0.17715 0.0
C366 C 0.66083 0.01982 0.15319 0.0
N367 N 0.64661 1.00349 0.17573 0.0
N368 N 0.65066 0.01374 0.13661 0.0
H369 H 0.63472 0.99566 0.14187 0.0
H370 H 0.66579 0.01477 0.19377 0.0
C371 C 0.64435 0.01544 0.23323 0.0
O372 O 0.63515 0.02207 0.21657 0.0
N373 N 0.63904 0.97116 0.22492 0.0
C374 C 0.62891 0.95966 0.22293 0.0
C375 C 0.63079 0.9501 0.24387 0.0
C376 C 0.64691 0.96855 0.24681 0.0
N377 N 0.64208 0.95577 0.25882 0.0
C378 C 0.61169 0.99074 0.18192 0.0
C379 C 0.59863 0.99833 0.22883 0.0
C380 C 0.58919 0.99712 0.207 0.0
C381 C 0.59596 0.99319 0.18334 0.0
C382 C 0.61436 0.99581 0.22652 0.0
N383 N 0.62085 0.99263 0.20304 0.0
H384 H 0.61629 0.98653 0.16404 0.0
H385 H 0.62123 0.99598 0.24386 0.0
H386 H 0.62086 0.95825 0.20722 0.0
H387 H 0.65629 0.97561 0.25338 0.0
O388 O 0.64153 0.97278 0.17247 0.0
O389 O 0.66265 0.97921 0.19346 0.0
O390 O 0.64816 1.00147 0.23005 0.0
C391 C 0.65624 0.97132 0.17509 0.0
H392 H 0.67003 0.02747 0.14798 0.0
H393 H 0.62434 0.93983 0.24782 0.0
H394 H 0.59391 1.00105 0.24764 0.0
H395 H 0.58907 0.99138 0.16621 0.0
Co396 Co 0.77329 0.12095 0.04669 0.0
C397 C 0.75745 0.1217 0.09715 0.0
C398 C 0.74652 0.10646 0.07072 0.0
C399 C 0.74026 0.1043 0.09489 0.0
N400 N 0.75719 0.11757 0.07198 0.0
N401 N 0.7472 0.11393 0.11141 0.0
H402 H 0.76625 0.12866 0.10576 0.0
H403 H 0.74444 0.0993 0.05406 0.0
C404 C 0.74523 0.11943 0.0134 0.0
O405 O 0.73875 0.12961 0.02849 0.0
N406 N 0.78941 0.12375 0.0219 0.0
C407 C 0.79998 0.13491 0.02157 0.0
C408 C 0.80941 0.13263 0.00059 0.0
C409 C 0.7926 0.11472 0.00158 0.0
N410 N 0.80476 0.11991 0.98817 0.0
C411 C 0.77016 0.15188 0.06464 0.0
C412 C 0.76312 0.1648 0.01736 0.0
C413 C 0.7642 0.1743 0.03913 0.0
C414 C 0.76787 0.16761 0.06295 0.0
C415 C 0.76545 0.14906 0.01994 0.0
N416 N 0.76839 0.14266 0.04359 0.0
H417 H 0.77413 0.14732 0.0827 0.0
H418 H 0.7653 0.14208 0.00272 0.0
H419 H 0.80077 0.14404 0.03559 0.0
H420 H 0.78609 0.10464 0.99662 0.0
O421 O 0.78825 0.12191 0.07429 0.0
O422 O 0.78091 0.10076 0.05439 0.0
O423 O 0.75894 0.11509 0.01771 0.0
C424 C 0.78928 0.10714 0.07216 0.0
H425 H 0.7321 0.09557 0.10026 0.0
H426 H 0.8191 0.13962 0.99516 0.0
H427 H 0.7606 0.16947 -0.00156 0.0
H428 H 0.76955 0.17454 0.08006 0.0
Co429 Co 0.64166 0.02438 0.79749 0.0
C430 C 0.64156 0.00814 0.8476 0.0
C431 C 0.65794 0.99874 0.82141 0.0
C432 C 0.66041 0.99253 0.84551 0.0
N433 N 0.64593 0.0084 0.82255 0.0
N434 N 0.65009 0.99853 0.86192 0.0
H435 H 0.63381 0.01625 0.85615 0.0
H436 H 0.66539 0.9974 0.80488 0.0
C437 C 0.64437 0.99628 0.76491 0.0
O438 O 0.6353 0.98935 0.78141 0.0
N439 N 0.63802 0.04041 0.77291 0.0
C440 C 0.62708 0.05118 0.77372 0.0
C441 C 0.62888 0.06063 0.75262 0.0
C442 C 0.64635 0.04339 0.75167 0.0
N443 N 0.641 0.05568 0.73879 0.0
C444 C 0.61078 0.02048 0.8156 0.0
C445 C 0.5982 0.01263 0.76842 0.0
C446 C 0.58853 0.01396 0.78995 0.0
C447 C 0.59506 0.01796 0.81376 0.0
C448 C 0.61389 0.01524 0.77113 0.0
N449 N 0.62014 0.01864 0.79471 0.0
H450 H 0.61519 0.02477 0.83356 0.0
H451 H 0.6209 0.01508 0.75395 0.0
H452 H 0.61845 0.0521 0.78861 0.0
H453 H 0.65634 0.03689 0.74614 0.0
O454 O 0.64026 0.03904 0.82542 0.0
O455 O 0.6616 0.03291 0.8048 0.0
O456 O 0.64778 0.01034 0.7682 0.0
C457 C 0.65495 0.04077 0.82297 0.0
H458 H 0.66977 0.98512 0.85095 0.0
H459 H 0.62175 0.0703 0.74776 0.0
H460 H 0.59369 0.00981 0.74952 0.0
H461 H 0.58801 0.01982 0.83068 0.0
Co462 Co 0.73968 0.89333 0.5473 0.0
C463 C 0.75605 0.89256 0.59723 0.0
C464 C 0.76584 0.90881 0.57119 0.0
C465 C 0.77219 0.91097 0.59529 0.0
N466 N 0.7558 0.89712 0.57229 0.0
N467 N 0.76597 0.90073 0.61158 0.0
H468 H 0.74784 0.88488 0.60569 0.0
H469 H 0.76737 0.91626 0.55471 0.0
C470 C 0.7679 0.89507 0.51434 0.0
O471 O 0.77466 0.8855 0.53021 0.0
N472 N 0.72352 0.89001 0.52282 0.0
C473 C 0.71204 0.87986 0.52493 0.0
C474 C 0.70238 0.88172 0.50414 0.0
C475 C 0.72078 0.8979 0.50098 0.0
N476 N 0.70793 0.89305 0.48915 0.0
C477 C 0.74165 0.86256 0.56614 0.0
C478 C 0.75115 0.8492 0.52051 0.0
C479 C 0.74892 0.83985 0.54227 0.0
C480 C 0.74388 0.84681 0.56519 0.0
C481 C 0.74855 0.86494 0.52223 0.0
N482 N 0.74457 0.87159 0.54521 0.0
H483 H 0.73681 0.86731 0.58346 0.0
H484 H 0.74938 0.87167 0.50481 0.0
H485 H 0.7107 0.87182 0.54064 0.0
H486 H 0.7278 0.90728 0.49432 0.0
O487 O 0.72484 0.89281 0.57513 0.0
O488 O 0.73198 0.91363 0.55412 0.0
O489 O 0.75397 0.89888 0.51801 0.0
C490 C 0.72372 0.90752 0.5723 0.0
H491 H 0.77991 0.92006 0.6008 0.0
H492 H 0.6921 0.87524 0.50034 0.0
H493 H 0.75476 0.84446 0.50218 0.0
H494 H 0.74111 0.8401 0.58215 0.0
Co495 Co 0.87072 0.98889 0.29609 0.0
C496 C 0.87059 1.00495 0.34641 0.0
C497 C 0.85418 0.01429 0.3202 0.0
C498 C 0.85165 0.02046 0.34431 0.0
N499 N 0.86625 1.00471 0.32134 0.0
N500 N 0.86199 0.01451 0.36071 0.0
H501 H 0.87839 0.9969 0.35498 0.0
H502 H 0.84676 0.01562 0.30363 0.0
C503 C 0.86811 0.01721 0.26418 0.0
O504 O 0.87718 0.02389 0.281 0.0
N505 N 0.87452 0.97302 0.27129 0.0
C506 C 0.8862 0.96301 0.27091 0.0
C507 C 0.88439 0.95355 0.24983 0.0
C508 C 0.86568 0.96947 0.25089 0.0
N509 N 0.87146 0.95763 0.23741 0.0
C510 C 0.90147 0.99284 0.31473 0.0
C511 C 0.91433 1.00108 0.26796 0.0
C512 C 0.92384 0.9997 0.28968 0.0
C513 C 0.91717 0.99549 0.31327 0.0
C514 C 0.89864 0.99837 0.2703 0.0
N515 N 0.89224 0.99478 0.2937 0.0
H516 H 0.89697 0.98837 0.3325 0.0
H517 H 0.89174 0.99861 0.25299 0.0
H518 H 0.89533 0.96261 0.28498 0.0
H519 H 0.8553 0.97551 0.24596 0.0
O520 O 0.87212 0.9741 0.3238 0.0
O521 O 0.8508 0.98021 0.30312 0.0
O522 O 0.86467 1.00311 0.26696 0.0
C523 C 0.85743 0.97233 0.32128 0.0
H524 H 0.84225 0.02782 0.34973 0.0
H525 H 0.89183 0.94424 0.24434 0.0
H526 H 0.91899 1.00402 0.2492 0.0
H527 H 0.92412 0.99357 0.33031 0.0
Co528 Co 0.73775 0.62221 0.54119 0.0
C529 C 0.75109 0.62429 0.59269 0.0
C530 C 0.76525 0.61068 0.56796 0.0
C531 C 0.77107 0.61015 0.59276 0.0
N532 N 0.75269 0.61951 0.56813 0.0
N533 N 0.76203 0.61861 0.60837 0.0
H534 H 0.74141 0.63092 0.59918 0.0
H535 H 0.76945 0.60441 0.55141 0.0
C536 C 0.75525 0.62132 0.49096 0.0
O537 O 0.74669 0.63243 0.48196 0.0
N538 N 0.72251 0.62476 0.5144 0.0
C539 C 0.71287 0.63655 0.51044 0.0
C540 C 0.70379 0.63332 0.48946 0.0
C541 C 0.71888 0.61437 0.49615 0.0
N542 N 0.70761 0.6194 0.4805 0.0
C543 C 0.73331 0.65371 0.55399 0.0
C544 C 0.75914 0.66525 0.53037 0.0
C545 C 0.74896 0.67535 0.54232 0.0
C546 C 0.73611 0.66938 0.55476 0.0
C547 C 0.75608 0.64955 0.5306 0.0
N548 N 0.74277 0.64401 0.54086 0.0
H549 H 0.72324 0.64947 0.56362 0.0
H550 H 0.76465 0.64199 0.52296 0.0
H551 H 0.7121 0.64675 0.52192 0.0
H552 H 0.7246 0.60349 0.4941 0.0
O553 O 0.72161 0.62229 0.56692 0.0
O554 O 0.73037 0.60163 0.54747 0.0
O555 O 0.75365 0.61674 0.5143 0.0
C556 C 0.72116 0.60754 0.56448 0.0
H557 H 0.78083 0.60349 0.59886 0.0
H558 H 0.69487 0.64054 0.48171 0.0
H559 H 0.76953 0.66942 0.52144 0.0
H560 H 0.7281 0.6768 0.56462 0.0
Co561 Co 0.64368 0.48955 0.79317 0.0
C562 C 0.64294 0.5062 0.8428 0.0
C563 C 0.65983 0.5152 0.8171 0.0
C564 C 0.66196 0.52163 0.84112 0.0
N565 N 0.64775 0.50563 0.81803 0.0
N566 N 0.65134 0.51587 0.85723 0.0
H567 H 0.63488 0.49831 0.85113 0.0
H568 H 0.66749 0.51635 0.8008 0.0
C569 C 0.64581 0.51786 0.7608 0.0
O570 O 0.637 0.52471 0.7778 0.0
N571 N 0.64012 0.47342 0.76881 0.0
C572 C 0.62985 0.46204 0.77092 0.0
C573 C 0.63169 0.45233 0.75021 0.0
C574 C 0.64804 0.47057 0.74705 0.0
N575 N 0.64311 0.45775 0.73528 0.0
C576 C 0.61288 0.49154 0.8121 0.0
C577 C 0.59958 0.50184 0.76693 0.0
C578 C 0.5902 0.49936 0.78859 0.0
C579 C 0.59713 0.49393 0.81127 0.0
C580 C 0.6153 0.49905 0.76849 0.0
N581 N 0.62194 0.49467 0.79127 0.0
H582 H 0.61761 0.48643 0.82923 0.0
H583 H 0.62201 0.50005 0.75107 0.0
H584 H 0.62178 0.46079 0.78661 0.0
H585 H 0.65754 0.47747 0.74046 0.0
O586 O 0.64304 0.47481 0.8211 0.0
O587 O 0.66397 0.48159 0.80003 0.0
O588 O 0.64917 0.50375 0.76366 0.0
C589 C 0.65775 0.4735 0.81834 0.0
H590 H 0.6713 0.52901 0.84676 0.0
H591 H 0.62516 0.44208 0.74645 0.0
H592 H 0.59486 0.50578 0.74876 0.0
H593 H 0.5904 0.49098 0.82812 0.0
Co594 Co 0.7727 0.39222 0.04794 0.0
C595 C 0.75587 0.39185 0.09745 0.0
C596 C 0.74655 0.40814 0.07103 0.0
C597 C 0.74004 0.41048 0.09495 0.0
N598 N 0.75636 0.39627 0.07244 0.0
N599 N 0.74597 0.40021 0.11149 0.0
H600 H 0.76399 0.3842 0.10624 0.0
H601 H 0.74531 0.41559 0.0545 0.0
C602 C 0.7449 0.3946 0.01435 0.0
O603 O 0.7379 0.3854 0.03057 0.0
N604 N 0.7891 0.38872 0.02401 0.0
C605 C 0.80044 0.37844 0.02634 0.0
C606 C 0.81031 0.38026 0.00583 0.0
C607 C 0.79211 0.39664 0.00233 0.0
N608 N 0.80501 0.39168 0.9908 0.0
C609 C 0.76912 0.36135 0.06603 0.0
C610 C 0.76188 0.34855 0.01875 0.0
C611 C 0.76309 0.33899 0.04042 0.0
C612 C 0.76679 0.34563 0.06427 0.0
C613 C 0.76424 0.36428 0.0214 0.0
N614 N 0.76731 0.37063 0.04503 0.0
H615 H 0.77322 0.36585 0.08405 0.0
H616 H 0.76414 0.37125 0.00418 0.0
H617 H 0.80153 0.37033 0.04201 0.0
H618 H 0.78527 0.40612 0.99557 0.0
O619 O 0.78716 0.39106 0.07626 0.0
O620 O 0.78084 0.41226 0.05556 0.0
O621 O 0.75889 0.39815 0.01813 0.0
C622 C 0.78873 0.40576 0.07384 0.0
H623 H 0.73246 0.41974 0.10021 0.0
H624 H 0.82056 0.37369 0.00221 0.0
H625 H 0.75933 0.34393 -0.00019 0.0
H626 H 0.76857 0.33865 0.08131 0.0
Co627 Co 0.87083 0.52381 0.2955 0.0
C628 C 0.86973 0.51048 0.34761 0.0
C629 C 0.85603 0.49761 0.32127 0.0
C630 C 0.853 0.49261 0.34602 0.0
N631 N 0.86681 0.50867 0.32216 0.0
N632 N 0.8615 0.50092 0.36247 0.0
H633 H 0.87638 0.51972 0.35554 0.0
H634 H 0.84954 0.49451 0.30429 0.0
C635 C 0.86965 0.49467 0.26475 0.0
O636 O 0.87889 0.48833 0.28167 0.0
N637 N 0.8743 0.53903 0.26948 0.0
C638 C 0.88565 0.54941 0.26866 0.0
C639 C 0.88368 0.55831 0.24695 0.0
C640 C 0.86549 0.54182 0.24874 0.0
N641 N 0.87098 0.55353 0.23461 0.0
C642 C 0.90138 0.52103 0.31577 0.0
C643 C 0.91519 0.51251 0.2699 0.0
C644 C 0.92432 0.51437 0.29198 0.0
C645 C 0.91717 0.51872 0.31512 0.0
C646 C 0.89941 0.51492 0.27142 0.0
N647 N 0.89257 0.51871 0.29435 0.0
H648 H 0.89644 0.52539 0.33327 0.0
H649 H 0.89277 0.51421 0.25385 0.0
H650 H 0.89464 0.55047 0.28291 0.0
H651 H 0.85529 0.53539 0.2441 0.0
O652 O 0.8711 0.53973 0.32166 0.0
O653 O 0.85047 0.53162 0.30101 0.0
O654 O 0.86567 0.50862 0.26738 0.0
C655 C 0.85636 0.54056 0.31846 0.0
H656 H 0.84408 0.48471 0.35165 0.0
H657 H 0.89082 0.56779 0.24104 0.0
H658 H 0.92018 0.50937 0.25149 0.0
H659 H 0.92379 0.52091 0.33242 0.0
Co660 Co 0.73987 0.39069 0.44975 0.0
C661 C 0.75595 0.39023 0.39954 0.0
C662 C 0.76592 0.40628 0.42568 0.0
C663 C 0.77205 0.40865 0.40148 0.0
N664 N 0.75593 0.39454 0.42462 0.0
N665 N 0.7657 0.39854 0.38511 0.0
H666 H 0.74757 0.38274 0.39105 0.0
H667 H 0.76752 0.41366 0.44222 0.0
C668 C 0.76812 0.39268 0.48229 0.0
O669 O 0.77482 0.38345 0.46577 0.0
N670 N 0.72375 0.38742 0.47432 0.0
C671 C 0.7123 0.37721 0.47256 0.0
C672 C 0.70266 0.37927 0.49333 0.0
C673 C 0.72103 0.39552 0.49592 0.0
N674 N 0.70822 0.39075 0.50795 0.0
C675 C 0.74289 0.35983 0.43143 0.0
C676 C 0.75071 0.34686 0.47831 0.0
C677 C 0.7492 0.33738 0.4566 0.0
C678 C 0.74517 0.3441 0.43297 0.0
C679 C 0.74836 0.36261 0.47588 0.0
N680 N 0.74502 0.36903 0.45242 0.0
H681 H 0.73858 0.36441 0.4136 0.0
H682 H 0.74875 0.36953 0.49314 0.0
H683 H 0.71096 0.36902 0.45708 0.0
H684 H 0.72802 0.40501 0.50223 0.0
O685 O 0.72504 0.38971 0.42197 0.0
O686 O 0.7319 0.41084 0.44238 0.0
O687 O 0.75413 0.39641 0.47903 0.0
C688 C 0.72373 0.40443 0.42435 0.0
H689 H 0.77963 0.41786 0.39597 0.0
H690 H 0.69238 0.37283 0.49738 0.0
H691 H 0.75352 0.34218 0.4971 0.0
H692 H 0.74314 0.33718 0.41595 0.0
Co693 Co 0.87067 0.48636 0.70271 0.0
C694 C 0.86952 0.50098 0.65152 0.0
C695 C 0.85578 0.5131 0.67879 0.0
C696 C 0.85273 0.51874 0.65444 0.0
N697 N 0.8666 0.50213 0.6771 0.0
N698 N 0.86126 0.5109 0.63738 0.0
H699 H 0.87622 0.492 0.64291 0.0
H700 H 0.84926 0.51574 0.69596 0.0
C701 C 0.86932 0.51467 0.73526 0.0
O702 O 0.87884 0.52116 0.71895 0.0
N703 N 0.87417 0.4705 0.72764 0.0
C704 C 0.8844 0.45907 0.72588 0.0
C705 C 0.88262 0.44966 0.74701 0.0
C706 C 0.86632 0.46799 0.74959 0.0
N707 N 0.87128 0.45533 0.76184 0.0
C708 C 0.90124 0.49045 0.6833 0.0
C709 C 0.91474 0.49691 0.73036 0.0
C710 C 0.92399 0.49616 0.70823 0.0
C711 C 0.91699 0.49285 0.68448 0.0
C712 C 0.89899 0.49444 0.7283 0.0
N713 N 0.89231 0.49167 0.70483 0.0
H714 H 0.89642 0.48688 0.66519 0.0
H715 H 0.89223 0.49436 0.74578 0.0
H716 H 0.89244 0.45761 0.7102 0.0
H717 H 0.85688 0.475 0.75602 0.0
O718 O 0.87155 0.47123 0.67544 0.0
O719 O 0.85048 0.47827 0.69591 0.0
O720 O 0.86512 0.50085 0.73173 0.0
C721 C 0.85681 0.46995 0.678 0.0
H722 H 0.84381 0.52676 0.64943 0.0
H723 H 0.88916 0.43947 0.75116 0.0
H724 H 0.91963 0.49924 0.7492 0.0
H725 H 0.92371 0.49152 0.66703 0.0
Co726 Co 0.77269 0.61971 0.94871 0.0
C727 C 0.75762 0.62134 0.8979 0.0
C728 C 0.74577 0.60599 0.92294 0.0
C729 C 0.73949 0.60493 0.89853 0.0
N730 N 0.75694 0.61662 0.9227 0.0
N731 N 0.74704 0.6146 0.88279 0.0
H732 H 0.76682 0.62812 0.89021 0.0
H733 H 0.74311 0.59864 0.93911 0.0
C734 C 0.74404 0.6179 0.98072 0.0
O735 O 0.7375 0.62751 0.96465 0.0
N736 N 0.78852 0.62244 0.97396 0.0
C737 C 0.79907 0.63362 0.97442 0.0
C738 C 0.80839 0.63138 0.99551 0.0
C739 C 0.79161 0.61343 0.99434 0.0
N740 N 0.80369 0.61867 0.00789 0.0
C741 C 0.77059 0.65083 0.9311 0.0
C742 C 0.76199 0.66346 0.97784 0.0
C743 C 0.76396 0.67311 0.95646 0.0
C744 C 0.7684 0.66657 0.93289 0.0
C745 C 0.76422 0.64772 0.97514 0.0
N746 N 0.76793 0.64146 0.95171 0.0
H747 H 0.77522 0.64639 0.91341 0.0
H748 H 0.76347 0.64066 0.99221 0.0
H749 H 0.79996 0.64271 0.96034 0.0
H750 H 0.78511 0.60332 -0.0008 0.0
O751 O 0.78804 0.62045 0.92163 0.0
O752 O 0.78018 0.59943 0.94134 0.0
O753 O 0.75797 0.61399 0.97732 0.0
C754 C 0.78887 0.60567 0.92387 0.0
H755 H 0.73069 0.59699 0.89262 0.0
H756 H 0.81807 0.63836 0.00101 0.0
H757 H 0.75889 0.66802 0.99659 0.0
H758 H 0.77078 0.67363 0.91617 0.0
Co759 Co 0.64209 0.51967 0.1964 0.0
C760 C 0.64168 0.50427 0.14562 0.0
C761 C 0.65849 0.49473 0.1709 0.0
C762 C 0.66077 0.4889 0.14648 0.0
N763 N 0.64636 0.50424 0.17049 0.0
N764 N 0.6502 0.495 0.13063 0.0
H765 H 0.63361 0.51231 0.13774 0.0
H766 H 0.6661 0.49323 0.18718 0.0
C767 C 0.64505 0.4908 0.2275 0.0
O768 O 0.63646 0.48378 0.21038 0.0
N769 N 0.63838 0.53511 0.22196 0.0
C770 C 0.62687 0.54528 0.22272 0.0
C771 C 0.62862 0.55419 0.24449 0.0
C772 C 0.64706 0.53799 0.24286 0.0
N773 N 0.64134 0.54958 0.25702 0.0
C774 C 0.61134 0.51757 0.17748 0.0
C775 C 0.59816 0.5063 0.22209 0.0
C776 C 0.58871 0.50934 0.20072 0.0
C777 C 0.59559 0.51518 0.17829 0.0
C778 C 0.6139 0.50907 0.22055 0.0
N779 N 0.62046 0.51408 0.19807 0.0
H780 H 0.61601 0.52304 0.16063 0.0
H781 H 0.62065 0.50767 0.23784 0.0
H782 H 0.61787 0.54617 0.20845 0.0
H783 H 0.65726 0.53163 0.24766 0.0
O784 O 0.64111 0.53507 0.16953 0.0
O785 O 0.6622 0.52812 0.18995 0.0
O786 O 0.64794 0.50503 0.22499 0.0
C787 C 0.6558 0.53654 0.17225 0.0
H788 H 0.67016 0.4817 0.14047 0.0
H789 H 0.62128 0.5635 0.25038 0.0
H790 H 0.59346 0.50201 0.24005 0.0
H791 H 0.58883 0.51852 0.1617 0.0
Co792 Co 0.27239 0.39057 0.45148 0.0
C793 C 0.25988 0.38792 0.39953 0.0
C794 C 0.24528 0.40177 0.42315 0.0
C795 C 0.23974 0.40184 0.39814 0.0
N796 N 0.25793 0.39306 0.42379 0.0
N797 N 0.24905 0.3932 0.38325 0.0
H798 H 0.26967 0.38126 0.3937 0.0
H799 H 0.24079 0.40819 0.43932 0.0
C800 C 0.25393 0.39097 0.50069 0.0
O801 O 0.26221 0.37964 0.50969 0.0
N802 N 0.28715 0.38821 0.47908 0.0
C803 C 0.29724 0.3768 0.48299 0.0
C804 C 0.30542 0.37982 0.50507 0.0
C805 C 0.2897 0.39824 0.49841 0.0
N806 N 0.30062 0.39325 0.51477 0.0
C807 C 0.27758 0.35904 0.43933 0.0
C808 C 0.25119 0.34739 0.4609 0.0
C809 C 0.26185 0.33729 0.45021 0.0
C810 C 0.27499 0.34333 0.43871 0.0
C811 C 0.25408 0.36311 0.46057 0.0
N812 N 0.26766 0.36871 0.4515 0.0
H813 H 0.28782 0.36338 0.43032 0.0
H814 H 0.24521 0.37065 0.46725 0.0
H815 H 0.29888 0.367 0.4708 0.0
H816 H 0.28338 0.40876 0.50081 0.0
O817 O 0.28902 0.39083 0.42657 0.0
O818 O 0.27951 0.41124 0.44582 0.0
O819 O 0.25596 0.39579 0.47758 0.0
C820 C 0.28916 0.40558 0.42928 0.0
H821 H 0.22996 0.40825 0.39141 0.0
H822 H 0.31438 0.37277 0.51317 0.0
H823 H 0.24057 0.3432 0.46897 0.0
H824 H 0.28338 0.33593 0.42975 0.0
Co825 Co 0.37025 0.51941 0.19978 0.0
C826 C 0.37449 0.50411 0.15034 0.0
C827 C 0.35744 0.49278 0.17319 0.0
C828 C 0.35727 0.48667 0.14861 0.0
N829 N 0.36817 0.50377 0.17404 0.0
N830 N 0.36797 0.49388 0.13433 0.0
H831 H 0.38251 0.51278 0.14416 0.0
H832 H 0.34945 0.49029 0.18859 0.0
C833 C 0.37028 0.50289 0.25093 0.0
O834 O 0.38141 0.51178 0.25892 0.0
N835 N 0.372 0.53534 0.22551 0.0
C836 C 0.38228 0.54677 0.22711 0.0
C837 C 0.3785 0.55596 0.24768 0.0
C838 C 0.36191 0.53799 0.24468 0.0
N839 N 0.36572 0.55038 0.25874 0.0
C840 C 0.40175 0.52521 0.18809 0.0
C841 C 0.41395 0.49963 0.21151 0.0
C842 C 0.42383 0.51022 0.20005 0.0
C843 C 0.41753 0.52296 0.18773 0.0
C844 C 0.39814 0.50216 0.21089 0.0
N845 N 0.39224 0.51532 0.20073 0.0
H846 H 0.3972 0.535 0.1781 0.0
H847 H 0.39077 0.4933 0.21816 0.0
H848 H 0.39172 0.5487 0.21419 0.0
H849 H 0.35187 0.53105 0.24804 0.0
O850 O 0.36973 0.53487 0.17281 0.0
O851 O 0.34942 0.52581 0.19302 0.0
O852 O 0.36534 0.50396 0.2277 0.0
C853 C 0.35497 0.53491 0.17551 0.0
H854 H 0.34919 0.47838 0.14128 0.0
H855 H 0.38476 0.56591 0.25408 0.0
H856 H 0.41837 0.48931 0.22028 0.0
H857 H 0.42476 0.53124 0.17813 0.0
Co858 Co 0.23862 0.621 0.95359 0.0
C859 C 0.25333 0.62559 0.90384 0.0
C860 C 0.26625 0.60978 0.92674 0.0
C861 C 0.27271 0.61064 0.9024 0.0
N862 N 0.25408 0.61914 0.92739 0.0
N863 N 0.26446 0.62054 0.88798 0.0
H864 H 0.24408 0.63299 0.89796 0.0
H865 H 0.26973 0.6023 0.9423 0.0
C866 C 0.25536 0.61915 0.00454 0.0
O867 O 0.24678 0.63022 0.01364 0.0
N868 N 0.22278 0.62279 0.97953 0.0
C869 C 0.2118 0.63353 0.9814 0.0
C870 C 0.20233 0.62991 0.00164 0.0
C871 C 0.21952 0.61253 -0.0018 0.0
N872 N 0.20722 0.61674 0.01227 0.0
C873 C 0.23405 0.65282 0.94326 0.0
C874 C 0.25983 0.66375 0.96782 0.0
C875 C 0.24973 0.67414 0.95639 0.0
C876 C 0.23688 0.66848 0.94353 0.0
C877 C 0.25673 0.64807 0.96658 0.0
N878 N 0.24345 0.6428 0.95582 0.0
H879 H 0.22418 0.6488 0.93282 0.0
H880 H 0.26526 0.64032 0.97376 0.0
H881 H 0.21027 0.64312 0.96868 0.0
H882 H 0.22614 0.60229 0.0015 0.0
O883 O 0.22304 0.62161 0.92688 0.0
O884 O 0.23151 0.60057 0.94553 0.0
O885 O 0.25404 0.61494 0.98095 0.0
C886 C 0.22257 0.60682 0.92847 0.0
H887 H 0.28233 0.604 0.89562 0.0
H888 H 0.19234 0.63628 0.00757 0.0
H889 H 0.27023 0.66767 0.97703 0.0
H890 H 0.22896 0.67612 0.93396 0.0
Co891 Co 0.14252 0.49072 0.70059 0.0
C892 C 0.1419 0.50732 0.6509 0.0
C893 C 0.15779 0.5172 0.67744 0.0
C894 C 0.16007 0.52369 0.65348 0.0
N895 N 0.14621 0.50705 0.67596 0.0
N896 N 0.15005 0.5174 0.63687 0.0
H897 H 0.13453 0.49895 0.6421 0.0
H898 H 0.16513 0.51872 0.69406 0.0
C899 C 0.14383 0.51871 0.73388 0.0
O900 O 0.13455 0.52542 0.71745 0.0
N901 N 0.13938 0.47436 0.72468 0.0
C902 C 0.12942 0.46272 0.72243 0.0
C903 C 0.13143 0.45305 0.74315 0.0
C904 C 0.14729 0.47171 0.74651 0.0
N905 N 0.14264 0.45877 0.75822 0.0
C906 C 0.11164 0.49314 0.68181 0.0
C907 C 0.09831 0.50045 0.72864 0.0
C908 C 0.08893 0.49884 0.7068 0.0
C909 C 0.09583 0.49509 0.68318 0.0
C910 C 0.11412 0.49846 0.72636 0.0
N911 N 0.12072 0.49539 0.70294 0.0
H912 H 0.11639 0.48901 0.66398 0.0
H913 H 0.12096 0.49889 0.74372 0.0
H914 H 0.12141 0.46131 0.70669 0.0
H915 H 0.15656 0.47886 0.75324 0.0
O916 O 0.14212 0.47606 0.67246 0.0
O917 O 0.1629 0.48328 0.6936 0.0
O918 O 0.14777 0.50482 0.73029 0.0
C919 C 0.15686 0.47504 0.67532 0.0
H920 H 0.16916 0.53148 0.64825 0.0
H921 H 0.12513 0.44265 0.74688 0.0
H922 H 0.09348 0.50304 0.74741 0.0
H923 H 0.08901 0.49301 0.66606 0.0
Co924 Co 0.27177 0.6202 0.54828 0.0
C925 C 0.25822 0.62492 0.59891 0.0
C926 C 0.24415 0.60994 0.57634 0.0
C927 C 0.23811 0.61099 0.60096 0.0
N928 N 0.25678 0.61868 0.57531 0.0
N929 N 0.24706 0.62037 0.61516 0.0
H930 H 0.26789 0.63186 0.60446 0.0
H931 H 0.24003 0.60281 0.56077 0.0
C932 C 0.25399 0.61973 0.49831 0.0
O933 O 0.26266 0.63077 0.48932 0.0
N934 N 0.28712 0.62164 0.52146 0.0
C935 C 0.29859 0.63184 0.51942 0.0
C936 C 0.30729 0.62826 0.49819 0.0
C937 C 0.28934 0.61168 0.50191 0.0
N938 N 0.30141 0.61564 0.48711 0.0
C939 C 0.27787 0.65174 0.55897 0.0
C940 C 0.25194 0.66382 0.53647 0.0
C941 C 0.26275 0.67374 0.54719 0.0
C942 C 0.27567 0.66752 0.55909 0.0
C943 C 0.25444 0.64804 0.53733 0.0
N944 N 0.26778 0.64219 0.54695 0.0
H945 H 0.28779 0.64726 0.56871 0.0
H946 H 0.24541 0.64065 0.53075 0.0
H947 H 0.30096 0.64104 0.53261 0.0
H948 H 0.28211 0.60188 0.49845 0.0
O949 O 0.28792 0.61982 0.57407 0.0
O950 O 0.27812 0.59942 0.55519 0.0
O951 O 0.25561 0.61508 0.52162 0.0
C952 C 0.28771 0.60504 0.57186 0.0
H953 H 0.22822 0.60486 0.60801 0.0
H954 H 0.3174 0.63429 0.49181 0.0
H955 H 0.24148 0.6682 0.52811 0.0
H956 H 0.28411 0.6748 0.56818 0.0
Co957 Co 0.14293 0.51927 0.29903 0.0
C958 C 0.14224 0.50366 0.3496 0.0
C959 C 0.15849 0.49353 0.32395 0.0
C960 C 0.16073 0.48759 0.34832 0.0
N961 N 0.14673 0.50351 0.32463 0.0
N962 N 0.15048 0.49403 0.36436 0.0
H963 H 0.13465 0.51205 0.35775 0.0
H964 H 0.16594 0.4918 0.30753 0.0
C965 C 0.14474 0.4906 0.26727 0.0
O966 O 0.13572 0.48387 0.28411 0.0
N967 N 0.13968 0.53503 0.27387 0.0
C968 C 0.1291 0.54616 0.27457 0.0
C969 C 0.13079 0.55508 0.25282 0.0
C970 C 0.14769 0.53727 0.25203 0.0
N971 N 0.14248 0.54944 0.23869 0.0
C972 C 0.11207 0.51735 0.31793 0.0
C973 C 0.09873 0.50839 0.27195 0.0
C974 C 0.08935 0.51079 0.29358 0.0
C975 C 0.09626 0.51537 0.31676 0.0
C976 C 0.11454 0.51044 0.27401 0.0
N977 N 0.12115 0.51437 0.29706 0.0
H978 H 0.11682 0.52212 0.3353 0.0
H979 H 0.12136 0.50944 0.2567 0.0
H980 H 0.12074 0.54764 0.28977 0.0
H981 H 0.15732 0.5303 0.24633 0.0
O982 O 0.14247 0.53452 0.32623 0.0
O983 O 0.16327 0.52698 0.30551 0.0
O984 O 0.1483 0.50464 0.27017 0.0
C985 C 0.15721 0.53554 0.32333 0.0
H986 H 0.16992 0.48008 0.35417 0.0
H987 H 0.12385 0.56483 0.2477 0.0
H988 H 0.09389 0.50515 0.25347 0.0
H989 H 0.08945 0.51807 0.33364 0.0
Co990 Co 0.23969 0.39094 0.04425 0.0
C991 C 0.2554 0.38839 0.0944 0.0
C992 C 0.26701 0.40406 0.06963 0.0
C993 C 0.27357 0.40476 0.09386 0.0
N994 N 0.2558 0.39348 0.06979 0.0
N995 N 0.26616 0.39489 0.10944 0.0
H996 H 0.24625 0.38157 0.10213 0.0
H997 H 0.2695 0.41166 0.05371 0.0
C998 C 0.26794 0.39303 0.01141 0.0
O999 O 0.27445 0.38299 0.02675 0.0
N1000 N 0.2235 0.38875 0.0195 0.0
C1001 C 0.21189 0.3787 0.02071 0.0
C1002 C 0.20225 0.38134 0.00019 0.0
C1003 C 0.22087 0.39736 -0.00157 0.0
N1004 N 0.20793 0.39306 0.98625 0.0
C1005 C 0.24187 0.35957 0.06022 0.0
C1006 C 0.24975 0.34762 0.01262 0.0
C1007 C 0.24816 0.33767 0.03372 0.0
C1008 C 0.24404 0.34387 0.0577 0.0
C1009 C 0.24752 0.36332 0.01605 0.0
N1010 N 0.24423 0.36924 0.03991 0.0
H1011 H 0.23753 0.36375 0.07829 0.0
H1012 H 0.24803 0.37065 -0.00073 0.0
H1013 H 0.21047 0.37016 0.03564 0.0
H1014 H 0.22802 0.40683 0.99259 0.0
O1015 O 0.22475 0.38964 0.07183 0.0
O1016 O 0.23231 0.4111 0.05318 0.0
O1017 O 0.25412 0.39712 0.01543 0.0
C1018 C 0.22386 0.40444 0.07058 0.0
H1019 H 0.28242 0.41262 0.09984 0.0
H1020 H 0.19189 0.37511 0.9958 0.0
H1021 H 0.25259 0.34333 0.99357 0.0
H1022 H 0.24191 0.33659 0.07424 0.0
Co1023 Co 0.37242 0.49112 0.79789 0.0
C1024 C 0.37607 0.50693 0.84718 0.0
C1025 C 0.35943 0.51809 0.82326 0.0
C1026 C 0.35915 0.52469 0.84746 0.0
N1027 N 0.36998 0.50692 0.82329 0.0
N1028 N 0.36958 0.51758 0.86243 0.0
H1029 H 0.38402 0.49835 0.85397 0.0
H1030 H 0.35169 0.5205 0.80746 0.0
C1031 C 0.37126 0.50726 0.74635 0.0
O1032 O 0.38252 0.49866 0.73798 0.0
N1033 N 0.37454 0.47508 0.77241 0.0
C1034 C 0.38575 0.46464 0.76963 0.0
C1035 C 0.38235 0.45548 0.74883 0.0
C1036 C 0.36427 0.47178 0.75381 0.0
N1037 N 0.36887 0.46004 0.73888 0.0
C1038 C 0.40418 0.48664 0.80909 0.0
C1039 C 0.41535 0.51207 0.78384 0.0
C1040 C 0.42569 0.50191 0.79531 0.0
C1041 C 0.4199 0.48928 0.80863 0.0
C1042 C 0.39963 0.50916 0.78529 0.0
N1043 N 0.39425 0.49601 0.79629 0.0
H1044 H 0.40006 0.47681 0.81953 0.0
H1045 H 0.39193 0.51768 0.77787 0.0
H1046 H 0.39566 0.46343 0.78176 0.0
H1047 H 0.35383 0.47817 0.75085 0.0
O1048 O 0.37278 0.4759 0.82518 0.0
O1049 O 0.3519 0.48397 0.80543 0.0
O1050 O 0.36669 0.50616 0.76979 0.0
C1051 C 0.358 0.47527 0.82301 0.0
H1052 H 0.35123 0.53335 0.85401 0.0
H1053 H 0.38917 0.44606 0.74178 0.0
H1054 H 0.41938 0.52231 0.77428 0.0
H1055 H 0.42749 0.48132 0.81821 0.0
C1056 C 0.16002 0.01904 0.22313 0.0
C1057 C 0.15114 0.0264 0.24205 0.0
C1058 C 0.16699 0.02741 0.20331 0.0
C1059 C 0.16618 0.06507 0.16988 0.0
H1060 H 0.20734 0.05394 0.14961 0.0
C1061 C 0.20473 0.10394 0.10673 0.0
C1062 C 0.21371 0.09685 0.08766 0.0
C1063 C 0.19644 0.0952 0.12454 0.0
C1064 C 0.19578 0.0571 0.15481 0.0
H1065 H 0.14251 0.04836 0.25476 0.0
H1066 H 0.15485 0.06296 0.22054 0.0
H1067 H 0.19413 0.039 0.18244 0.0
H1068 H 0.22085 0.07501 0.07211 0.0
H1069 H 0.20637 0.05977 0.1031 0.0
H1070 H 0.16799 0.08334 0.14247 0.0
C1071 C 0.15625 0.05068 0.22071 0.0
C1072 C 0.18818 0.0485 0.17364 0.0
C1073 C 0.14922 0.0423 0.24046 0.0
C1074 C 0.21405 0.08083 0.08657 0.0
C1075 C 0.20584 0.07209 0.10444 0.0
C1076 C 0.17383 0.07371 0.15113 0.0
C1077 C 0.16532 0.04337 0.20197 0.0
C1078 C 0.17328 0.05238 0.18148 0.0
C1079 C 0.19701 0.07916 0.12377 0.0
C1080 C 0.18873 0.06984 0.14339 0.0
H1081 H 0.16166 0.0068 0.22365 0.0
H1082 H 0.17366 0.02134 0.18899 0.0
H1083 H 0.15464 0.06827 0.17511 0.0
H1084 H 0.20426 0.11626 0.10815 0.0
H1085 H 0.18989 0.10101 0.13932 0.0
C1086 C 0.18039 0.963 0.33764 0.0
C1087 C 0.16435 0.96307 0.33872 0.0
C1088 C 0.18892 0.95465 0.35565 0.0
C1089 C 0.18593 0.93748 0.42106 0.0
H1090 H 0.2234 0.91694 0.40144 0.0
C1091 C 0.21912 0.89901 0.49237 0.0
C1092 C 0.23508 0.9008 0.49308 0.0
C1093 C 0.21045 0.90589 0.47283 0.0
C1094 C 0.21302 0.92272 0.40727 0.0
H1095 H 0.14467 0.95415 0.35921 0.0
H1096 H 0.15951 0.93936 0.39029 0.0
H1097 H 0.2083 0.93004 0.36856 0.0
H1098 H 0.25446 0.91099 0.47342 0.0
H1099 H 0.23933 0.92298 0.43937 0.0
H1100 H 0.19065 0.93014 0.45974 0.0
C1101 C 0.16554 0.94598 0.37584 0.0
C1102 C 0.20436 0.93025 0.38841 0.0
C1103 C 0.15702 0.95437 0.35789 0.0
C1104 C 0.24219 0.90938 0.47348 0.0
C1105 C 0.23352 0.91619 0.45387 0.0
C1106 C 0.19455 0.92989 0.43986 0.0
C1107 C 0.18162 0.94614 0.37516 0.0
C1108 C 0.19071 0.93778 0.39507 0.0
C1109 C 0.21753 0.91466 0.45344 0.0
C1110 C 0.20823 0.92245 0.43323 0.0
H1111 H 0.18639 0.96966 0.3232 0.0
H1112 H 0.20126 0.95522 0.35469 0.0
H1113 H 0.17565 0.94339 0.42704 0.0
H1114 H 0.21326 0.89246 0.5071 0.0
H1115 H 0.19818 0.90431 0.47289 0.0
C1116 C 0.3091 0.90749 0.60487 0.0
C1117 C 0.29985 0.91469 0.58631 0.0
C1118 C 0.31746 0.9161 0.62273 0.0
C1119 C 0.33183 0.9553 0.63644 0.0
H1120 H 0.33333 0.94043 0.70705 0.0
C1121 C 0.35246 0.99231 0.72276 0.0
C1122 C 0.36158 0.98516 0.74163 0.0
C1123 C 0.34569 0.98379 0.70293 0.0
C1124 C 0.33319 0.94466 0.68737 0.0
H1125 H 0.2923 0.93661 0.5717 0.0
H1126 H 0.30668 0.95166 0.60308 0.0
H1127 H 0.32024 0.92552 0.6741 0.0
H1128 H 0.3709 0.96344 0.7541 0.0
H1129 H 0.35912 0.94861 0.71953 0.0
H1130 H 0.3446 0.97459 0.64996 0.0
C1131 C 0.30769 0.93935 0.60362 0.0
C1132 C 0.32569 0.93609 0.66841 0.0
C1133 C 0.29939 0.93072 0.58566 0.0
C1134 C 0.36393 0.96932 0.73996 0.0
C1135 C 0.35709 0.96079 0.72022 0.0
C1136 C 0.33928 0.96392 0.65546 0.0
C1137 C 0.3167 0.93215 0.62261 0.0
C1138 C 0.32491 0.94127 0.64267 0.0
C1139 C 0.3478 0.96789 0.70156 0.0
C1140 C 0.34006 0.9587 0.68116 0.0
H1141 H 0.30975 0.89516 0.60583 0.0
H1142 H 0.32448 0.91015 0.63671 0.0
H1143 H 0.33166 0.95956 0.61677 0.0
H1144 H 0.35041 1.0045 0.72343 0.0
H1145 H 0.3385 0.9896 0.68902 0.0
C1146 C 0.35496 0.05804 0.856 0.0
C1147 C 0.34771 0.04884 0.83744 0.0
C1148 C 0.34635 0.06651 0.87373 0.0
C1149 C 0.30713 0.08126 0.88648 0.0
H1150 H 0.32155 0.08328 0.95733 0.0
C1151 C 0.26948 0.10221 0.97172 0.0
C1152 C 0.27646 0.11158 0.99039 0.0
C1153 C 0.27818 0.09535 0.9522 0.0
C1154 C 0.31744 0.08298 0.93757 0.0
H1155 H 0.32574 0.0414 0.82277 0.0
H1156 H 0.31073 0.05593 0.85391 0.0
H1157 H 0.33667 0.06991 0.92495 0.0
H1158 H 0.29804 0.12127 0.00285 0.0
H1159 H 0.31318 0.10931 0.96883 0.0
H1160 H 0.28774 0.09412 0.89936 0.0
C1161 C 0.32306 0.05686 0.85455 0.0
C1162 C 0.32614 0.07533 0.91894 0.0
C1163 C 0.33167 0.04846 0.83674 0.0
C1164 C 0.29229 0.11411 0.98883 0.0
C1165 C 0.30099 0.10717 0.96942 0.0
C1166 C 0.29839 0.08884 0.90517 0.0
C1167 C 0.33028 0.06591 0.87344 0.0
C1168 C 0.32111 0.07435 0.89314 0.0
C1169 C 0.29406 0.09762 0.95098 0.0
C1170 C 0.30344 0.08978 0.93094 0.0
H1171 H 0.3673 0.05861 0.857 0.0
H1172 H 0.35232 0.07354 0.88768 0.0
H1173 H 0.30299 0.08096 0.86675 0.0
H1174 H 0.2573 0.10002 0.97232 0.0
H1175 H 0.2725 0.08796 0.93842 0.0
C1176 C 0.20365 0.90706 0.89055 0.0
C1177 C 0.21277 0.91435 0.90918 0.0
C1178 C 0.19528 0.9156 0.87259 0.0
C1179 C 0.18062 0.9547 0.85884 0.0
H1180 H 0.17926 0.93987 0.78821 0.0
C1181 C 0.15977 0.99161 0.77247 0.0
C1182 C 0.15068 0.98439 0.75365 0.0
C1183 C 0.16661 0.98313 0.79231 0.0
C1184 C 0.17937 0.94409 0.8079 0.0
H1185 H 0.22011 0.93635 0.92379 0.0
H1186 H 0.20572 0.95125 0.89226 0.0
H1187 H 0.19243 0.92502 0.82118 0.0
H1188 H 0.14147 0.9626 0.74127 0.0
H1189 H 0.15337 0.94786 0.77583 0.0
H1190 H 0.16774 0.97393 0.84531 0.0
C1191 C 0.2048 0.93893 0.89173 0.0
C1192 C 0.18691 0.93555 0.82687 0.0
C1193 C 0.21312 0.93038 0.90977 0.0
C1194 C 0.14842 0.96854 0.75538 0.0
C1195 C 0.15533 0.96006 0.77511 0.0
C1196 C 0.17314 0.96329 0.83981 0.0
C1197 C 0.19589 0.93165 0.8727 0.0
C1198 C 0.18763 0.94072 0.85262 0.0
C1199 C 0.1646 0.96723 0.79371 0.0
C1200 C 0.17241 0.95808 0.81411 0.0
H1201 H 0.2031 0.89473 0.88962 0.0
H1202 H 0.18835 0.90958 0.85856 0.0
H1203 H 0.18074 0.95895 0.87851 0.0
H1204 H 0.16174 1.00381 0.77176 0.0
H1205 H 0.17378 0.989 0.80619 0.0
C1206 C 0.27032 0.90982 0.02257 0.0
C1207 C 0.2774 0.90106 0.00317 0.0
C1208 C 0.279 0.91662 0.04218 0.0
C1209 C 0.31809 0.92989 0.05643 0.0
H1210 H 0.30416 0.93033 0.12763 0.0
C1211 C 0.35571 0.95409 0.13847 0.0
C1212 C 0.34843 0.96292 0.15752 0.0
C1213 C 0.34713 0.94575 0.12053 0.0
C1214 C 0.30815 0.93046 0.1078 0.0
H1215 H 0.29917 0.8924 0.98948 0.0
H1216 H 0.31426 0.90422 0.02368 0.0
H1217 H 0.28897 0.91736 0.09471 0.0
H1218 H 0.32643 0.96977 0.17287 0.0
H1219 H 0.31147 0.95544 0.1414 0.0
H1220 H 0.33712 0.94317 0.06931 0.0
C1221 C 0.30201 0.90595 0.02358 0.0
C1222 C 0.29944 0.923 0.08893 0.0
C1223 C 0.29333 0.8991 0.00406 0.0
C1224 C 0.33239 0.96302 0.15852 0.0
C1225 C 0.32381 0.95473 0.14051 0.0
C1226 C 0.32676 0.9374 0.07525 0.0
C1227 C 0.29497 0.91488 0.04279 0.0
C1228 C 0.3043 0.92263 0.06301 0.0
C1229 C 0.33106 0.94609 0.12112 0.0
C1230 C 0.32191 0.93781 0.1012 0.0
H1231 H 0.25807 0.91157 0.02249 0.0
H1232 H 0.27323 0.92353 0.05653 0.0
H1233 H 0.32204 0.93004 0.03658 0.0
H1234 H 0.36805 0.95374 0.13722 0.0
H1235 H 0.35312 0.93904 0.10617 0.0
C1236 C 0.30847 0.10338 0.38978 0.0
C1237 C 0.29943 0.09636 0.40883 0.0
C1238 C 0.31693 0.09459 0.37229 0.0
C1239 C 0.31774 0.0564 0.34254 0.0
H1240 H 0.3587 0.06782 0.32158 0.0
C1241 C 0.35322 0.01866 0.27332 0.0
C1242 C 0.36196 0.02611 0.25429 0.0
C1243 C 0.34636 0.02695 0.29333 0.0
C1244 C 0.34721 0.06455 0.327 0.0
H1245 H 0.29241 0.07457 0.42479 0.0
H1246 H 0.3072 0.05923 0.39434 0.0
H1247 H 0.34544 0.08281 0.35441 0.0
H1248 H 0.37044 0.04813 0.2416 0.0
H1249 H 0.35827 0.06258 0.27616 0.0
H1250 H 0.31933 0.03832 0.31487 0.0
C1251 C 0.30765 0.07155 0.39277 0.0
C1252 C 0.33962 0.07314 0.34587 0.0
C1253 C 0.29926 0.08034 0.41034 0.0
C1254 C 0.36384 0.04201 0.25597 0.0
C1255 C 0.35691 0.0503 0.27592 0.0
C1256 C 0.32529 0.04785 0.32359 0.0
C1257 C 0.31647 0.07855 0.37337 0.0
C1258 C 0.32477 0.06919 0.35383 0.0
C1259 C 0.34798 0.04291 0.29478 0.0
C1260 C 0.34012 0.05183 0.31548 0.0
H1261 H 0.3088 0.1157 0.38804 0.0
H1262 H 0.32348 0.10036 0.35744 0.0
H1263 H 0.30622 0.05318 0.34789 0.0
H1264 H 0.35162 0.00641 0.27273 0.0
H1265 H 0.3398 0.02081 0.30773 0.0
C1266 C 0.18024 0.04745 0.65703 0.0
C1267 C 0.16419 0.0474 0.65613 0.0
C1268 C 0.18871 0.05578 0.63891 0.0
C1269 C 0.18551 0.07297 0.57354 0.0
H1270 H 0.22296 0.09365 0.59287 0.0
C1271 C 0.21837 0.11157 0.50193 0.0
C1272 C 0.23434 0.10992 0.50119 0.0
C1273 C 0.20977 0.10463 0.5215 0.0
C1274 C 0.21259 0.08783 0.58712 0.0
H1275 H 0.14446 0.05632 0.63581 0.0
H1276 H 0.15919 0.07106 0.60455 0.0
H1277 H 0.20801 0.08045 0.62586 0.0
H1278 H 0.25381 0.0999 0.52084 0.0
H1279 H 0.23882 0.08781 0.55493 0.0
H1280 H 0.19009 0.08034 0.53482 0.0
C1281 C 0.16527 0.06445 0.61894 0.0
C1282 C 0.20401 0.08024 0.60603 0.0
C1283 C 0.15681 0.05609 0.63701 0.0
C1284 C 0.24153 0.10141 0.52079 0.0
C1285 C 0.23294 0.09454 0.54044 0.0
C1286 C 0.19405 0.0806 0.55467 0.0
C1287 C 0.18135 0.06429 0.61947 0.0
C1288 C 0.19037 0.07267 0.59949 0.0
C1289 C 0.21693 0.09594 0.54091 0.0
C1290 C 0.20772 0.08809 0.56119 0.0
H1291 H 0.18628 0.0408 0.67144 0.0
H1292 H 0.20106 0.05521 0.63976 0.0
H1293 H 0.17523 0.06703 0.56764 0.0
H1294 H 0.21244 0.11806 0.48719 0.0
H1295 H 0.19749 0.10612 0.52147 0.0
C1296 C 0.85258 0.99205 0.77252 0.0
C1297 C 0.86165 0.98513 0.75337 0.0
C1298 C 0.84586 0.98328 0.79209 0.0
C1299 C 0.83331 0.94403 0.80644 0.0
H1300 H 0.8323 0.95809 0.87754 0.0
C1301 C 0.8091 0.90636 0.88851 0.0
C1302 C 0.80016 0.91361 0.90743 0.0
C1303 C 0.81741 0.91496 0.87054 0.0
C1304 C 0.83233 0.95406 0.85773 0.0
H1305 H 0.87092 0.96357 0.74003 0.0
H1306 H 0.85921 0.9483 0.77413 0.0
H1307 H 0.8452 0.9734 0.8447 0.0
H1308 H 0.79301 0.93557 0.92247 0.0
H1309 H 0.80726 0.95055 0.89095 0.0
H1310 H 0.82025 0.92485 0.81925 0.0
C1311 C 0.8572 0.9605 0.7739 0.0
C1312 C 0.83975 0.96284 0.83891 0.0
C1313 C 0.86399 0.96927 0.75443 0.0
C1314 C 0.79986 0.92963 0.90823 0.0
C1315 C 0.80811 0.93823 0.8902 0.0
C1316 C 0.82583 0.9353 0.82521 0.0
C1317 C 0.84797 0.96737 0.79286 0.0
C1318 C 0.84031 0.95794 0.81303 0.0
C1319 C 0.81691 0.93102 0.87097 0.0
C1320 C 0.82521 0.94019 0.85111 0.0
H1321 H 0.85054 1.00424 0.7723 0.0
H1322 H 0.83871 0.98891 0.80626 0.0
H1323 H 0.83333 0.94005 0.7866 0.0
H1324 H 0.8096 0.89403 0.88741 0.0
H1325 H 0.82424 0.909 0.8563 0.0
C1326 C 0.76913 0.10186 0.52327 0.0
C1327 C 0.77613 0.11092 0.50418 0.0
C1328 C 0.77784 0.09514 0.54293 0.0
C1329 C 0.8171 0.08259 0.55757 0.0
H1330 H 0.80279 0.08127 0.62852 0.0
C1331 C 0.85471 0.05826 0.63956 0.0
C1332 C 0.84749 0.04919 0.65834 0.0
C1333 C 0.84609 0.06662 0.6217 0.0
C1334 C 0.80689 0.08138 0.60875 0.0
H1335 H 0.79778 0.12019 0.4911 0.0
H1336 H 0.81292 0.10848 0.52536 0.0
H1337 H 0.78753 0.09422 0.59565 0.0
H1338 H 0.82552 0.04191 0.67328 0.0
H1339 H 0.81048 0.05628 0.64194 0.0
H1340 H 0.83631 0.06956 0.57043 0.0
C1341 C 0.80071 0.10647 0.525 0.0
C1342 C 0.79814 0.08883 0.58992 0.0
C1343 C 0.79201 0.11327 0.50544 0.0
C1344 C 0.83144 0.04886 0.65915 0.0
C1345 C 0.82281 0.05717 0.64122 0.0
C1346 C 0.82581 0.07508 0.57635 0.0
C1347 C 0.79376 0.09723 0.54388 0.0
C1348 C 0.80314 0.08952 0.56408 0.0
C1349 C 0.83002 0.06606 0.62208 0.0
C1350 C 0.82083 0.07436 0.60221 0.0
H1351 H 0.75693 0.09982 0.5229 0.0
H1352 H 0.77214 0.08798 0.55702 0.0
H1353 H 0.82117 0.08268 0.53778 0.0
H1354 H 0.86706 0.05879 0.63846 0.0
H1355 H 0.85205 0.07353 0.60756 0.0
C1356 C 0.70348 0.10319 0.38969 0.0
C1357 C 0.71262 0.09612 0.40855 0.0
C1358 C 0.69522 0.09443 0.3719 0.0
C1359 C 0.68083 0.0551 0.35925 0.0
H1360 H 0.67931 0.06928 0.28823 0.0
C1361 C 0.66013 0.01737 0.27376 0.0
C1362 C 0.65095 0.0244 0.25487 0.0
C1363 C 0.66693 0.02602 0.29342 0.0
C1364 C 0.67947 0.06524 0.30803 0.0
H1365 H 0.72011 0.07431 0.42373 0.0
H1366 H 0.70591 0.05903 0.39249 0.0
H1367 H 0.69242 0.08452 0.32075 0.0
H1368 H 0.64152 0.04605 0.2422 0.0
H1369 H 0.65335 0.06107 0.27642 0.0
H1370 H 0.66806 0.03567 0.34627 0.0
C1371 C 0.7049 0.07134 0.39165 0.0
C1372 C 0.68697 0.074 0.32674 0.0
C1373 C 0.71311 0.0801 0.40952 0.0
C1374 C 0.64854 0.04024 0.25636 0.0
C1375 C 0.65541 0.04889 0.2759 0.0
C1376 C 0.67339 0.04629 0.34048 0.0
C1377 C 0.69595 0.07838 0.37243 0.0
C1378 C 0.68775 0.06907 0.35262 0.0
C1379 C 0.6648 0.04191 0.29454 0.0
C1380 C 0.6726 0.05127 0.31465 0.0
H1381 H 0.70282 0.11551 0.38848 0.0
H1382 H 0.68825 0.10027 0.3577 0.0
H1383 H 0.681 0.05103 0.37903 0.0
H1384 H 0.66221 1.00518 0.27322 0.0
H1385 H 0.67419 0.0203 0.30736 0.0
C1386 C 0.74191 0.91455 0.0148 0.0
C1387 C 0.73763 0.90012 0.00538 0.0
C1388 C 0.73321 0.92181 0.03388 0.0
C1389 C 0.70754 0.91558 0.08786 0.0
H1390 H 0.69152 0.95592 0.0729 0.0
C1391 C 0.67984 0.95655 0.16369 0.0
C1392 C 0.66532 0.96204 0.15681 0.0
C1393 C 0.68862 0.94831 0.14584 0.0
C1394 C 0.69594 0.94467 0.07731 0.0
H1395 H 0.72114 0.88179 0.00911 0.0
H1396 H 0.70621 0.89433 0.04317 0.0
H1397 H 0.70735 0.9428 0.04072 0.0
H1398 H 0.64866 0.9634 0.12587 0.0
H1399 H 0.66423 0.94943 0.09447 0.0
H1400 H 0.69639 0.91763 0.12474 0.0
C1401 C 0.71619 0.90006 0.03545 0.0
C1402 C 0.70503 0.93721 0.05899 0.0
C1403 C 0.72469 0.89293 0.01592 0.0
C1404 C 0.65976 0.95918 0.13178 0.0
C1405 C 0.66868 0.95127 0.11377 0.0
C1406 C 0.69873 0.9232 0.10645 0.0
C1407 C 0.72027 0.91464 0.04435 0.0
C1408 C 0.71083 0.92257 0.06403 0.0
C1409 C 0.68319 0.94578 0.12062 0.0
C1410 C 0.69276 0.93776 0.10124 0.0
H1411 H 0.75178 0.92041 0.007 0.0
H1412 H 0.73662 0.93303 0.04051 0.0
H1413 H 0.71194 0.90432 0.09221 0.0
H1414 H 0.6844 0.95862 0.18285 0.0
H1415 H 0.69982 0.94425 0.15152 0.0
C1416 C 0.79832 0.08193 0.0892 0.0
C1417 C 0.79876 0.09795 0.09008 0.0
C1418 C 0.80658 0.07322 0.10707 0.0
C1419 C 0.8247 0.0759 0.1718 0.0
H1420 H 0.84378 0.03774 0.15181 0.0
C1421 C 0.86356 0.0421 0.24152 0.0
C1422 C 0.8613 0.02623 0.2428 0.0
C1423 C 0.85654 0.05079 0.2222 0.0
C1424 C 0.83841 0.04831 0.15774 0.0
H1425 H 0.80847 0.1174 0.11009 0.0
H1426 H 0.82313 0.10224 0.14091 0.0
H1427 H 0.83066 0.05312 0.1193 0.0
H1428 H 0.85012 0.00701 0.22432 0.0
H1429 H 0.83787 0.0222 0.19055 0.0
H1430 H 0.8325 0.07111 0.21021 0.0
C1431 C 0.81617 0.09637 0.12674 0.0
C1432 C 0.83086 0.05713 0.1391 0.0
C1433 C 0.80786 0.10508 0.10893 0.0
C1434 C 0.8521 0.01921 0.22393 0.0
C1435 C 0.84514 0.02791 0.20449 0.0
C1436 C 0.8323 0.06712 0.19038 0.0
C1437 C 0.81553 0.08031 0.12622 0.0
C1438 C 0.82387 0.07103 0.1459 0.0
C1439 C 0.84714 0.04383 0.20356 0.0
C1440 C 0.83923 0.05321 0.1836 0.0
H1441 H 0.79135 0.07608 0.075 0.0
H1442 H 0.80562 0.06091 0.10625 0.0
H1443 H 0.81921 0.08636 0.17791 0.0
H1444 H 0.8706 0.04789 0.25568 0.0
H1445 H 0.85849 0.06299 0.22183 0.0
C1446 C 0.65817 0.05308 0.86623 0.0
C1447 C 0.66382 0.05025 0.84124 0.0
C1448 C 0.66698 0.0611 0.88426 0.0
C1449 C 0.69697 0.08935 0.89163 0.0
H1450 H 0.70564 0.06975 0.95733 0.0
C1451 C 0.72345 0.11954 0.98179 0.0
C1452 C 0.73636 0.11225 0.99225 0.0
C1453 C 0.71482 0.11246 0.96238 0.0
C1454 C 0.70329 0.07534 0.93906 0.0
H1455 H 0.6829 0.05388 0.81527 0.0
H1456 H 0.6981 0.06844 0.84662 0.0
H1457 H 0.68971 0.05666 0.92525 0.0
H1458 H 0.75031 0.09182 0.9906 0.0
H1459 H 0.73492 0.07929 0.95728 0.0
H1460 H 0.71028 0.10819 0.90575 0.0
C1461 C 0.68694 0.06427 0.85226 0.0
C1462 C 0.69414 0.06791 0.92081 0.0
C1463 C 0.67828 0.05593 0.8344 0.0
C1464 C 0.74047 0.09776 0.98286 0.0
C1465 C 0.73164 0.09055 0.9639 0.0
C1466 C 0.70584 0.09694 0.91015 0.0
C1467 C 0.68145 0.06675 0.87746 0.0
C1468 C 0.69096 0.0748 0.89687 0.0
C1469 C 0.71873 0.09782 0.95352 0.0
C1470 C 0.70916 0.08995 0.93396 0.0
H1471 H 0.64712 0.04872 0.8721 0.0
H1472 H 0.66249 0.0629 0.90355 0.0
H1473 H 0.69463 0.09491 0.87333 0.0
H1474 H 0.72004 0.13072 0.98859 0.0
H1475 H 0.70487 0.11827 0.95473 0.0
C1476 C 0.66002 0.9951 0.72421 0.0
C1477 C 0.6512 0.98763 0.74311 0.0
C1478 C 0.66701 0.98681 0.70431 0.0
C1479 C 0.66632 0.94919 0.67075 0.0
H1480 H 0.70751 0.96035 0.65065 0.0
C1481 C 0.70516 0.90999 0.60901 0.0
C1482 C 0.7142 0.91691 0.58984 0.0
C1483 C 0.69679 0.91889 0.62645 0.0
C1484 C 0.69594 0.95719 0.65579 0.0
H1485 H 0.6427 0.9656 0.75569 0.0
H1486 H 0.65507 0.95116 0.72135 0.0
H1487 H 0.69419 0.97537 0.68326 0.0
H1488 H 0.7214 0.93861 0.57376 0.0
H1489 H 0.70677 0.95413 0.60417 0.0
H1490 H 0.66824 0.93084 0.64355 0.0
C1491 C 0.6564 0.96344 0.72159 0.0
C1492 C 0.68827 0.96583 0.67449 0.0
C1493 C 0.64936 0.97173 0.74141 0.0
C1494 C 0.71454 0.93292 0.5883 0.0
C1495 C 0.70624 0.94182 0.60583 0.0
C1496 C 0.67403 0.94052 0.65213 0.0
C1497 C 0.66541 0.97085 0.70286 0.0
C1498 C 0.67338 0.96191 0.68231 0.0
C1499 C 0.69733 0.93492 0.62523 0.0
C1500 C 0.68895 0.94438 0.6445 0.0
H1501 H 0.6616 0.00735 0.72482 0.0
H1502 H 0.67364 0.99295 0.69 0.0
H1503 H 0.65478 0.94598 0.67593 0.0
H1504 H 0.70469 0.89768 0.61076 0.0
H1505 H 0.69018 0.91321 0.64131 0.0
C1506 C 0.77202 0.91612 0.48231 0.0
C1507 C 0.7766 0.90203 0.49278 0.0
C1508 C 0.78069 0.92318 0.46297 0.0
C1509 C 0.80687 0.91659 0.40995 0.0
H1510 H 0.82218 0.9574 0.4233 0.0
C1511 C 0.83414 0.95713 0.33286 0.0
C1512 C 0.84857 0.9629 0.33964 0.0
C1513 C 0.82546 0.94891 0.35089 0.0
C1514 C 0.81796 0.94602 0.41935 0.0
H1515 H 0.79359 0.88409 0.49061 0.0
H1516 H 0.80847 0.89625 0.45608 0.0
H1517 H 0.80635 0.94454 0.45582 0.0
H1518 H 0.86519 0.96475 0.37058 0.0
H1519 H 0.84979 0.9508 0.40229 0.0
H1520 H 0.81819 0.91825 0.37316 0.0
C1521 C 0.79828 0.90187 0.4632 0.0
C1522 C 0.80888 0.93871 0.43785 0.0
C1523 C 0.78981 0.89496 0.48299 0.0
C1524 C 0.85417 0.9603 0.36474 0.0
C1525 C 0.84534 0.95241 0.38292 0.0
C1526 C 0.81567 0.92406 0.39116 0.0
C1527 C 0.79391 0.91614 0.45328 0.0
C1528 C 0.80333 0.9239 0.43339 0.0
C1529 C 0.8309 0.94668 0.37618 0.0
C1530 C 0.82138 0.93879 0.39579 0.0
H1531 H 0.76193 0.92189 0.48951 0.0
H1532 H 0.77706 0.93416 0.45555 0.0
H1533 H 0.80268 0.90519 0.40606 0.0
H1534 H 0.82954 0.95901 0.31366 0.0
H1535 H 0.81432 0.94465 0.3453 0.0
C1536 C 0.64965 0.54243 0.73671 0.0
C1537 C 0.65224 0.52664 0.73876 0.0
C1538 C 0.65629 0.5509 0.71671 0.0
C1539 C 0.67423 0.54761 0.65199 0.0
H1540 H 0.69192 0.5868 0.6697 0.0
C1541 C 0.71287 0.582 0.5815 0.0
C1542 C 0.71166 0.59799 0.58183 0.0
C1543 C 0.70491 0.5731 0.59956 0.0
C1544 C 0.68685 0.57599 0.66427 0.0
H1545 H 0.66364 0.50733 0.72094 0.0
H1546 H 0.67527 0.52214 0.68609 0.0
H1547 H 0.6794 0.5717 0.70302 0.0
H1548 H 0.70073 0.61715 0.60084 0.0
H1549 H 0.68665 0.60169 0.6319 0.0
H1550 H 0.68171 0.55194 0.61319 0.0
C1551 C 0.66802 0.52796 0.6999 0.0
C1552 C 0.67967 0.56731 0.68344 0.0
C1553 C 0.66141 0.51948 0.71998 0.0
C1554 C 0.70197 0.60486 0.60011 0.0
C1555 C 0.69399 0.59598 0.61809 0.0
C1556 C 0.68138 0.55634 0.63276 0.0
C1557 C 0.66567 0.54381 0.69818 0.0
C1558 C 0.67325 0.55301 0.67757 0.0
C1559 C 0.69553 0.58 0.61834 0.0
C1560 C 0.68777 0.57067 0.63864 0.0
H1561 H 0.64262 0.54833 0.75074 0.0
H1562 H 0.65405 0.56304 0.71576 0.0
H1563 H 0.66927 0.53672 0.64674 0.0
H1564 H 0.7203 0.57636 0.56774 0.0
H1565 H 0.7065 0.56085 0.59929 0.0
C1566 C 0.65976 0.45497 0.85509 0.0
C1567 C 0.66697 0.46406 0.83632 0.0
C1568 C 0.66836 0.44679 0.87319 0.0
C1569 C 0.70758 0.43244 0.88721 0.0
H1570 H 0.69235 0.43073 0.9576 0.0
C1571 C 0.74382 0.41063 0.97399 0.0
C1572 C 0.73634 0.40148 0.99244 0.0
C1573 C 0.73557 0.41771 0.95409 0.0
C1574 C 0.69669 0.43094 0.93798 0.0
H1575 H 0.68892 0.47155 0.82166 0.0
H1576 H 0.70396 0.45748 0.85349 0.0
H1577 H 0.67769 0.44408 0.92462 0.0
H1578 H 0.71433 0.39239 0.00405 0.0
H1579 H 0.7 0.40468 0.96942 0.0
H1580 H 0.72673 0.41946 0.90085 0.0
C1581 C 0.69164 0.45645 0.85401 0.0
C1582 C 0.68826 0.43859 0.919 0.0
C1583 C 0.68301 0.46458 0.83579 0.0
C1584 C 0.72047 0.39938 0.99025 0.0
C1585 C 0.71222 0.40652 0.97047 0.0
C1586 C 0.71607 0.42485 0.90627 0.0
C1587 C 0.68443 0.44756 0.87314 0.0
C1588 C 0.69353 0.4394 0.89331 0.0
C1589 C 0.71963 0.41588 0.95227 0.0
C1590 C 0.7107 0.42396 0.93188 0.0
H1591 H 0.64741 0.45426 0.85597 0.0
H1592 H 0.66239 0.43985 0.88727 0.0
H1593 H 0.71193 0.43264 0.86761 0.0
H1594 H 0.75603 0.41249 0.97506 0.0
H1595 H 0.74162 0.42492 0.94051 0.0
C1596 C 0.85401 0.49239 0.22422 0.0
C1597 C 0.86298 0.48544 0.24348 0.0
C1598 C 0.84703 0.48363 0.20492 0.0
C1599 C 0.83339 0.44463 0.19166 0.0
H1600 H 0.83199 0.45838 0.1204 0.0
C1601 C 0.80723 0.40731 0.11078 0.0
C1602 C 0.79842 0.4147 0.09181 0.0
C1603 C 0.81587 0.41576 0.1285 0.0
C1604 C 0.83212 0.45445 0.14026 0.0
H1605 H 0.87183 0.46379 0.25723 0.0
H1606 H 0.85965 0.44851 0.22355 0.0
H1607 H 0.84572 0.47344 0.15259 0.0
H1608 H 0.79182 0.43677 0.07652 0.0
H1609 H 0.80666 0.45151 0.10765 0.0
H1610 H 0.81958 0.4258 0.17955 0.0
C1611 C 0.85793 0.46074 0.22351 0.0
C1612 C 0.84003 0.46307 0.15871 0.0
C1613 C 0.865 0.46952 0.24273 0.0
C1614 C 0.79856 0.43072 0.0908 0.0
C1615 C 0.80714 0.43918 0.1086 0.0
C1616 C 0.82542 0.43605 0.17326 0.0
C1617 C 0.84877 0.46767 0.20448 0.0
C1618 C 0.84073 0.45829 0.18465 0.0
C1619 C 0.81585 0.43182 0.12781 0.0
C1620 C 0.82463 0.44085 0.1473 0.0
H1621 H 0.85221 0.50462 0.22417 0.0
H1622 H 0.83994 0.48932 0.19071 0.0
H1623 H 0.8335 0.44074 0.21155 0.0
H1624 H 0.80741 0.39498 0.11204 0.0
H1625 H 0.82261 0.40967 0.14271 0.0
C1626 C 0.77054 0.62031 0.44978 0.0
C1627 C 0.76685 0.61402 0.47403 0.0
C1628 C 0.781 0.61302 0.43341 0.0
C1629 C 0.79664 0.57519 0.4188 0.0
H1630 H 0.82833 0.59733 0.38213 0.0
C1631 C 0.8306 0.54853 0.33451 0.0
C1632 C 0.84657 0.55018 0.33522 0.0
C1633 C 0.8213 0.55675 0.35151 0.0
C1634 C 0.81957 0.591 0.39232 0.0
H1635 H 0.77142 0.59517 0.50014 0.0
H1636 H 0.78951 0.58241 0.47147 0.0
H1637 H 0.8115 0.61093 0.4122 0.0
H1638 H 0.86527 0.56198 0.35406 0.0
H1639 H 0.84893 0.57659 0.38354 0.0
H1640 H 0.80458 0.55529 0.39883 0.0
C1641 C 0.7843 0.59299 0.46514 0.0
C1642 C 0.80988 0.59879 0.40938 0.0
C1643 C 0.77399 0.60036 0.48162 0.0
C1644 C 0.85301 0.5605 0.35297 0.0
C1645 C 0.84366 0.56888 0.3698 0.0
C1646 C 0.80618 0.56745 0.40153 0.0
C1647 C 0.78786 0.59918 0.44078 0.0
C1648 C 0.79831 0.59097 0.42283 0.0
C1649 C 0.82771 0.56695 0.36946 0.0
C1650 C 0.81775 0.57525 0.38806 0.0
H1651 H 0.76526 0.63082 0.44333 0.0
H1652 H 0.78342 0.61802 0.41469 0.0
H1653 H 0.78777 0.56886 0.4287 0.0
H1654 H 0.82527 0.54065 0.32114 0.0
H1655 H 0.80904 0.55513 0.35059 0.0
C1656 C 0.66012 0.4898 0.2688 0.0
C1657 C 0.6518 0.48218 0.24944 0.0
C1658 C 0.66705 0.48165 0.28891 0.0
C1659 C 0.66689 0.44403 0.32239 0.0
H1660 H 0.70739 0.45639 0.34438 0.0
C1661 C 0.70553 0.40624 0.38703 0.0
C1662 C 0.7142 0.41351 0.40633 0.0
C1663 C 0.69722 0.41481 0.36903 0.0
C1664 C 0.696 0.4529 0.33872 0.0
H1665 H 0.6441 0.45998 0.23628 0.0
H1666 H 0.65636 0.44574 0.27108 0.0
H1667 H 0.69424 0.4709 0.31092 0.0
H1668 H 0.72077 0.43548 0.42206 0.0
H1669 H 0.70622 0.45043 0.39071 0.0
H1670 H 0.66879 0.42588 0.34999 0.0
C1671 C 0.65736 0.45806 0.27097 0.0
C1672 C 0.68843 0.46123 0.31951 0.0
C1673 C 0.65038 0.46623 0.2509 0.0
C1674 C 0.7142 0.42953 0.40744 0.0
C1675 C 0.70595 0.4381 0.38936 0.0
C1676 C 0.67448 0.43566 0.34154 0.0
C1677 C 0.66588 0.46565 0.29015 0.0
C1678 C 0.67378 0.4569 0.31103 0.0
C1679 C 0.69744 0.43085 0.36981 0.0
C1680 C 0.68915 0.43996 0.3499 0.0
H1681 H 0.66137 0.5021 0.2684 0.0
H1682 H 0.67328 0.48792 0.30355 0.0
H1683 H 0.65553 0.44049 0.31667 0.0
H1684 H 0.70533 0.39391 0.38557 0.0
H1685 H 0.69094 0.40885 0.35407 0.0
C1686 C 0.83159 0.46084 0.66084 0.0
C1687 C 0.84763 0.46052 0.65998 0.0
C1688 C 0.82293 0.4528 0.64258 0.0
C1689 C 0.82594 0.43564 0.57704 0.0
H1690 H 0.78778 0.41605 0.59573 0.0
C1691 C 0.79289 0.39721 0.50553 0.0
C1692 C 0.777 0.39935 0.50401 0.0
C1693 C 0.80141 0.40412 0.52522 0.0
C1694 C 0.79835 0.42157 0.59016 0.0
H1695 H 0.86717 0.45123 0.63959 0.0
H1696 H 0.85213 0.43695 0.60817 0.0
H1697 H 0.80287 0.4289 0.62895 0.0
H1698 H 0.75756 0.4102 0.52245 0.0
H1699 H 0.77244 0.42222 0.55683 0.0
H1700 H 0.82146 0.42823 0.5383 0.0
C1701 C 0.84618 0.44365 0.6226 0.0
C1702 C 0.80701 0.42896 0.6092 0.0
C1703 C 0.85482 0.45174 0.64078 0.0
C1704 C 0.76978 0.40832 0.523 0.0
C1705 C 0.7783 0.41515 0.5428 0.0
C1706 C 0.81734 0.42817 0.55806 0.0
C1707 C 0.83011 0.4442 0.62305 0.0
C1708 C 0.82092 0.43612 0.6029 0.0
C1709 C 0.79424 0.41327 0.54399 0.0
C1710 C 0.80343 0.42106 0.56436 0.0
H1711 H 0.82569 0.46758 0.67528 0.0
H1712 H 0.8106 0.45367 0.64338 0.0
H1713 H 0.83641 0.44127 0.57129 0.0
H1714 H 0.79883 0.39036 0.49129 0.0
H1715 H 0.81363 0.40226 0.52576 0.0
C1716 C 0.86478 0.53959 0.75801 0.0
C1717 C 0.86253 0.52372 0.75664 0.0
C1718 C 0.85763 0.54826 0.77726 0.0
C1719 C 0.82486 0.54703 0.8228 0.0
H1720 H 0.84494 0.58196 0.85383 0.0
C1721 C 0.79806 0.58029 0.9079 0.0
C1722 C 0.79853 0.5963 0.90648 0.0
C1723 C 0.80646 0.57137 0.89056 0.0
C1724 C 0.83914 0.57231 0.8452 0.0
H1725 H 0.85134 0.50448 0.77502 0.0
H1726 H 0.83914 0.51953 0.80884 0.0
H1727 H 0.85864 0.56638 0.8223 0.0
H1728 H 0.8084 0.6155 0.88598 0.0
H1729 H 0.82312 0.59991 0.85573 0.0
H1730 H 0.80538 0.55293 0.84576 0.0
C1731 C 0.84615 0.52535 0.79469 0.0
C1732 C 0.84698 0.56338 0.82707 0.0
C1733 C 0.85323 0.51669 0.77536 0.0
C1734 C 0.80782 0.60319 0.88763 0.0
C1735 C 0.81631 0.59426 0.87036 0.0
C1736 C 0.81706 0.5559 0.841 0.0
C1737 C 0.8481 0.54129 0.79573 0.0
C1738 C 0.83993 0.55063 0.81555 0.0
C1739 C 0.81561 0.57823 0.87145 0.0
C1740 C 0.82407 0.56868 0.85238 0.0
H1741 H 0.87182 0.54539 0.74386 0.0
H1742 H 0.85927 0.56051 0.77719 0.0
H1743 H 0.81892 0.5375 0.81401 0.0
H1744 H 0.79102 0.57461 0.9222 0.0
H1745 H 0.80582 0.55906 0.89216 0.0
C1746 C 0.65755 0.55578 0.13648 0.0
C1747 C 0.66487 0.54647 0.15481 0.0
C1748 C 0.66606 0.56441 0.11884 0.0
C1749 C 0.70518 0.57944 0.10584 0.0
H1750 H 0.6903 0.58208 0.03533 0.0
C1751 C 0.74222 0.60157 0.02059 0.0
C1752 C 0.73508 0.61098 0.00214 0.0
C1753 C 0.73367 0.59448 0.04008 0.0
C1754 C 0.69454 0.58161 0.055 0.0
H1755 H 0.68691 0.53904 0.16916 0.0
H1756 H 0.70178 0.55388 0.13817 0.0
H1757 H 0.67546 0.5683 0.06761 0.0
H1758 H 0.71335 0.62049 0.99005 0.0
H1759 H 0.69846 0.60812 0.02402 0.0
H1760 H 0.72442 0.59255 0.09296 0.0
C1761 C 0.68945 0.55475 0.13765 0.0
C1762 C 0.686 0.57373 0.07358 0.0
C1763 C 0.68092 0.54618 0.15539 0.0
C1764 C 0.71922 0.6133 0.00389 0.0
C1765 C 0.71066 0.60613 0.02328 0.0
C1766 C 0.71376 0.58727 0.0872 0.0
C1767 C 0.68214 0.56389 0.11896 0.0
C1768 C 0.69119 0.57252 0.09928 0.0
C1769 C 0.71775 0.59655 0.04151 0.0
C1770 C 0.70855 0.58845 0.06153 0.0
H1771 H 0.6452 0.55631 0.13557 0.0
H1772 H 0.66001 0.57151 0.10509 0.0
H1773 H 0.70945 0.57897 0.12548 0.0
H1774 H 0.75442 0.59953 0.01986 0.0
H1775 H 0.73948 0.58707 0.05366 0.0
C1776 C 0.36928 0.48932 0.29379 0.0
C1777 C 0.36304 0.49194 0.2691 0.0
C1778 C 0.36198 0.47957 0.31135 0.0
C1779 C 0.32415 0.46407 0.32733 0.0
H1780 H 0.34656 0.43418 0.3676 0.0
C1781 C 0.29665 0.43136 0.41253 0.0
C1782 C 0.29893 0.41548 0.41293 0.0
C1783 C 0.305 0.44062 0.3956 0.0
C1784 C 0.34015 0.44245 0.35645 0.0
H1785 H 0.34425 0.48618 0.2435 0.0
H1786 H 0.3315 0.46929 0.2742 0.0
H1787 H 0.36013 0.45019 0.33627 0.0
H1788 H 0.31205 0.39693 0.39633 0.0
H1789 H 0.3268 0.41315 0.36702 0.0
H1790 H 0.30418 0.45639 0.34746 0.0
C1791 C 0.34203 0.47482 0.27997 0.0
C1792 C 0.34793 0.45169 0.33865 0.0
C1793 C 0.34941 0.48443 0.26232 0.0
C1794 C 0.31004 0.40912 0.39652 0.0
C1795 C 0.31853 0.41842 0.37979 0.0
C1796 C 0.31641 0.45498 0.34532 0.0
C1797 C 0.34818 0.47235 0.30475 0.0
C1798 C 0.34 0.46255 0.3238 0.0
C1799 C 0.31595 0.43425 0.37888 0.0
C1800 C 0.32431 0.44404 0.36005 0.0
H1801 H 0.37975 0.49492 0.29966 0.0
H1802 H 0.36695 0.47798 0.33036 0.0
H1803 H 0.31773 0.47243 0.31636 0.0
H1804 H 0.28816 0.43662 0.42489 0.0
H1805 H 0.30287 0.4528 0.39556 0.0
C1806 C 0.35118 0.55549 0.14231 0.0
C1807 C 0.34495 0.54436 0.15881 0.0
C1808 C 0.34173 0.56408 0.12597 0.0
C1809 C 0.30453 0.56281 0.09302 0.0
H1810 H 0.30953 0.60661 0.08616 0.0
C1811 C 0.27366 0.59775 0.01374 0.0
C1812 C 0.26648 0.61132 0.02174 0.0
C1813 C 0.28352 0.5899 0.03038 0.0
C1814 C 0.30797 0.59439 0.08793 0.0
H1815 H 0.3239 0.53353 0.17113 0.0
H1816 H 0.30744 0.54839 0.14244 0.0
H1817 H 0.32603 0.59233 0.11578 0.0
H1818 H 0.26433 0.6274 0.05342 0.0
H1819 H 0.28171 0.61377 0.08234 0.0
H1820 H 0.28651 0.56484 0.06517 0.0
C1821 C 0.31964 0.55048 0.14214 0.0
C1822 C 0.31749 0.5862 0.10474 0.0
C1823 C 0.32906 0.54204 0.15869 0.0
C1824 C 0.26966 0.61699 0.04662 0.0
C1825 C 0.27967 0.60922 0.06317 0.0
C1826 C 0.29515 0.57096 0.07599 0.0
C1827 C 0.32586 0.56158 0.12553 0.0
C1828 C 0.31584 0.57032 0.10756 0.0
C1829 C 0.28659 0.59549 0.05534 0.0
C1830 C 0.29672 0.58685 0.07329 0.0
H1831 H 0.36338 0.55755 0.14193 0.0
H1832 H 0.34688 0.57245 0.11327 0.0
H1833 H 0.30305 0.55058 0.09458 0.0
H1834 H 0.27148 0.59303 0.99473 0.0
H1835 H 0.2888 0.57945 0.02367 0.0
C1836 C 0.21398 0.5816 0.91059 0.0
C1837 C 0.21301 0.5976 0.91068 0.0
C1838 C 0.20567 0.57298 0.89263 0.0
C1839 C 0.18641 0.57652 0.82892 0.0
H1840 H 0.16873 0.53738 0.84707 0.0
C1841 C 0.14777 0.54324 0.75808 0.0
C1842 C 0.15042 0.52747 0.75579 0.0
C1843 C 0.1547 0.55169 0.77784 0.0
C1844 C 0.17371 0.54824 0.84164 0.0
H1845 H 0.20224 0.6171 0.8924 0.0
H1846 H 0.18754 0.60211 0.86148 0.0
H1847 H 0.18198 0.55233 0.88003 0.0
H1848 H 0.16218 0.50817 0.77297 0.0
H1849 H 0.17427 0.52292 0.80738 0.0
H1850 H 0.17814 0.57244 0.79057 0.0
C1851 C 0.19495 0.59618 0.8749 0.0
C1852 C 0.18133 0.55681 0.86054 0.0
C1853 C 0.2033 0.60478 0.89279 0.0
C1854 C 0.1599 0.5203 0.77412 0.0
C1855 C 0.16677 0.52874 0.79395 0.0
C1856 C 0.17875 0.56799 0.81008 0.0
C1857 C 0.19615 0.58016 0.87436 0.0
C1858 C 0.1878 0.57107 0.85442 0.0
C1859 C 0.1644 0.54458 0.79588 0.0
C1860 C 0.17232 0.55373 0.81618 0.0
H1861 H 0.22142 0.57572 0.92406 0.0
H1862 H 0.20703 0.5607 0.89263 0.0
H1863 H 0.1915 0.58728 0.8233 0.0
H1864 H 0.14051 0.54914 0.74438 0.0
H1865 H 0.15244 0.56382 0.77897 0.0
C1866 C 0.18235 0.46701 0.65801 0.0
C1867 C 0.16636 0.46554 0.65792 0.0
C1868 C 0.19133 0.45855 0.64081 0.0
C1869 C 0.19173 0.42384 0.60083 0.0
H1870 H 0.2238 0.44468 0.56297 0.0
C1871 C 0.23887 0.39249 0.54204 0.0
C1872 C 0.24257 0.39859 0.51766 0.0
C1873 C 0.22887 0.40022 0.55864 0.0
C1874 C 0.21484 0.43871 0.57329 0.0
H1875 H 0.14727 0.45386 0.63998 0.0
H1876 H 0.163 0.4389 0.61018 0.0
H1877 H 0.20782 0.45898 0.59317 0.0
H1878 H 0.23843 0.41752 0.4915 0.0
H1879 H 0.22111 0.43102 0.52055 0.0
H1880 H 0.19885 0.40353 0.58102 0.0
C1881 C 0.16857 0.44663 0.62354 0.0
C1882 C 0.20578 0.44687 0.59076 0.0
C1883 C 0.15956 0.45524 0.64054 0.0
C1884 C 0.23584 0.41248 0.51012 0.0
C1885 C 0.22598 0.42027 0.52683 0.0
C1886 C 0.20093 0.41562 0.58358 0.0
C1887 C 0.18454 0.44829 0.62334 0.0
C1888 C 0.19412 0.43954 0.60473 0.0
C1889 C 0.22248 0.4143 0.55137 0.0
C1890 C 0.21257 0.42298 0.56957 0.0
H1891 H 0.18794 0.47487 0.67111 0.0
H1892 H 0.20362 0.45997 0.64129 0.0
H1893 H 0.18289 0.41786 0.61143 0.0
H1894 H 0.24384 0.38183 0.54847 0.0
H1895 H 0.22647 0.39538 0.57749 0.0
C1896 C 0.36948 0.5209 0.70363 0.0
C1897 C 0.3636 0.51813 0.72852 0.0
C1898 C 0.36184 0.53067 0.6865 0.0
C1899 C 0.32368 0.54607 0.67241 0.0
H1900 H 0.34539 0.5763 0.63174 0.0
C1901 C 0.29493 0.57925 0.58887 0.0
C1902 C 0.29733 0.59511 0.58838 0.0
C1903 C 0.30342 0.56993 0.6055 0.0
C1904 C 0.33917 0.56794 0.64302 0.0
H1905 H 0.34513 0.52358 0.75495 0.0
H1906 H 0.33181 0.54049 0.72502 0.0
H1907 H 0.35948 0.56013 0.66213 0.0
H1908 H 0.31073 0.61358 0.60461 0.0
H1909 H 0.32569 0.59725 0.63345 0.0
H1910 H 0.30338 0.55385 0.65337 0.0
C1911 C 0.34229 0.53508 0.71874 0.0
C1912 C 0.34725 0.55861 0.66027 0.0
C1913 C 0.35 0.52546 0.73595 0.0
C1914 C 0.30862 0.6014 0.60452 0.0
C1915 C 0.31723 0.59205 0.62096 0.0
C1916 C 0.31564 0.55527 0.65498 0.0
C1917 C 0.34807 0.53774 0.69377 0.0
C1918 C 0.33958 0.54761 0.67525 0.0
C1919 C 0.31461 0.57622 0.62184 0.0
C1920 C 0.32327 0.56634 0.64013 0.0
H1921 H 0.37992 0.51545 0.69727 0.0
H1922 H 0.36653 0.53241 0.66733 0.0
H1923 H 0.31745 0.53762 0.6835 0.0
H1924 H 0.28631 0.57404 0.5767 0.0
H1925 H 0.30124 0.55776 0.60554 0.0
C1926 C 0.23937 0.61817 0.4565 0.0
C1927 C 0.24269 0.61218 0.48112 0.0
C1928 C 0.22942 0.61051 0.43972 0.0
C1929 C 0.21492 0.57217 0.42532 0.0
H1930 H 0.18358 0.59321 0.38606 0.0
C1931 C 0.18269 0.54367 0.34054 0.0
C1932 C 0.16671 0.54525 0.34041 0.0
C1933 C 0.19166 0.55222 0.35763 0.0
C1934 C 0.19226 0.58718 0.39696 0.0
H1935 H 0.23793 0.59351 0.5075 0.0
H1936 H 0.22071 0.58011 0.47814 0.0
H1937 H 0.19951 0.60751 0.41659 0.0
H1938 H 0.14764 0.55725 0.35778 0.0
H1939 H 0.16337 0.57237 0.38738 0.0
H1940 H 0.20777 0.55187 0.40564 0.0
C1941 C 0.22583 0.59073 0.47182 0.0
C1942 C 0.20143 0.59538 0.41429 0.0
C1943 C 0.23563 0.59847 0.4887 0.0
C1944 C 0.15992 0.55579 0.3574 0.0
C1945 C 0.16893 0.56448 0.37428 0.0
C1946 C 0.20589 0.56402 0.40778 0.0
C1947 C 0.2227 0.59658 0.44706 0.0
C1948 C 0.21285 0.58795 0.42871 0.0
C1949 C 0.18489 0.56267 0.37477 0.0
C1950 C 0.19445 0.57142 0.3934 0.0
H1951 H 0.2446 0.62871 0.45003 0.0
H1952 H 0.22731 0.61526 0.42071 0.0
H1953 H 0.2237 0.56614 0.43597 0.0
H1954 H 0.18827 0.53563 0.32775 0.0
H1955 H 0.20394 0.55067 0.35737 0.0
C1956 C 0.16027 0.4891 0.22648 0.0
C1957 C 0.15136 0.48178 0.24545 0.0
C1958 C 0.16715 0.4807 0.20661 0.0
C1959 C 0.18034 0.44181 0.19083 0.0
H1960 H 0.18188 0.45715 0.12051 0.0
C1961 C 0.20526 0.40572 0.10738 0.0
C1962 C 0.21435 0.41327 0.08898 0.0
C1963 C 0.19687 0.414 0.12564 0.0
C1964 C 0.18171 0.45276 0.1401 0.0
H1965 H 0.14249 0.45989 0.25803 0.0
H1966 H 0.15444 0.44528 0.22332 0.0
H1967 H 0.1685 0.47172 0.15375 0.0
H1968 H 0.22164 0.43547 0.0752 0.0
H1969 H 0.20718 0.44992 0.10724 0.0
H1970 H 0.19371 0.42299 0.17737 0.0
C1971 C 0.15624 0.4575 0.22399 0.0
C1972 C 0.17401 0.46112 0.15915 0.0
C1973 C 0.1493 0.4659 0.2438 0.0
C1974 C 0.21469 0.4293 0.08903 0.0
C1975 C 0.20633 0.4376 0.10735 0.0
C1976 C 0.18809 0.43349 0.17181 0.0
C1977 C 0.16535 0.46478 0.20526 0.0
C1978 C 0.17325 0.45576 0.18478 0.0
C1979 C 0.19739 0.43005 0.12604 0.0
C1980 C 0.1889 0.43885 0.14618 0.0
H1981 H 0.1621 0.50132 0.22712 0.0
H1982 H 0.1742 0.48667 0.19267 0.0
H1983 H 0.18021 0.43747 0.21044 0.0
H1984 H 0.20471 0.39338 0.10783 0.0
H1985 H 0.18993 0.40779 0.13943 0.0
C1986 C 0.26988 0.41029 0.97263 0.0
C1987 C 0.2769 0.40028 0.99029 0.0
C1988 C 0.27849 0.41767 0.95352 0.0
C1989 C 0.3179 0.42995 0.93894 0.0
H1990 H 0.30287 0.43457 0.86883 0.0
C1991 C 0.35559 0.45589 0.85847 0.0
C1992 C 0.34859 0.4657 0.84053 0.0
C1993 C 0.34679 0.44738 0.87588 0.0
C1994 C 0.30717 0.43355 0.88839 0.0
H1995 H 0.29848 0.39001 0.00132 0.0
H1996 H 0.31346 0.40286 0.96803 0.0
H1997 H 0.28758 0.42076 0.90065 0.0
H1998 H 0.32682 0.47416 0.82666 0.0
H1999 H 0.31146 0.45954 0.85728 0.0
H2000 H 0.33735 0.44291 0.92696 0.0
C2001 C 0.30131 0.40511 0.96911 0.0
C2002 C 0.2984 0.4256 0.90663 0.0
C2003 C 0.29269 0.39766 0.9881 0.0
C2004 C 0.33257 0.46665 0.84016 0.0
C2005 C 0.32376 0.45819 0.85767 0.0
C2006 C 0.32662 0.43796 0.92077 0.0
C2007 C 0.29435 0.4153 0.95169 0.0
C2008 C 0.30367 0.42367 0.93213 0.0
C2009 C 0.33075 0.44851 0.87591 0.0
C2010 C 0.32141 0.43987 0.8952 0.0
H2011 H 0.25773 0.41257 0.97372 0.0
H2012 H 0.27278 0.42553 0.94056 0.0
H2013 H 0.32219 0.42892 0.95852 0.0
H2014 H 0.36792 0.45484 0.8592 0.0
H2015 H 0.3526 0.43985 0.88927 0.0
C2016 C 0.24921 0.1256 0.34238 0.0
C2017 C 0.24801 0.11168 0.35563 0.0
C2018 C 0.25081 0.12587 0.31551 0.0
C2019 C 0.24696 0.10189 0.25655 0.0
H2020 H 0.27546 0.13127 0.22783 0.0
C2021 C 0.26697 0.09939 0.15044 0.0
C2022 C 0.26576 0.11318 0.13672 0.0
C2023 C 0.26546 0.0992 0.17734 0.0
C2024 C 0.26742 0.12306 0.23559 0.0
H2025 H 0.24735 0.0871 0.3512 0.0
H2026 H 0.25036 0.08749 0.30438 0.0
H2027 H 0.27064 0.131 0.27429 0.0
H2028 H 0.26269 0.13759 0.14029 0.0
H2029 H 0.26024 0.13732 0.18744 0.0
H2030 H 0.24398 0.09381 0.21778 0.0
C2031 C 0.24974 0.09825 0.31459 0.0
C2032 C 0.26457 0.12295 0.26218 0.0
C2033 C 0.248 0.09801 0.34145 0.0
C2034 C 0.26363 0.12683 0.15047 0.0
C2035 C 0.26229 0.12667 0.17739 0.0
C2036 C 0.24992 0.10191 0.23 0.0
C2037 C 0.2514 0.11218 0.30133 0.0
C2038 C 0.25426 0.11239 0.27298 0.0
C2039 C 0.26288 0.11281 0.19102 0.0
C2040 C 0.26015 0.11252 0.21927 0.0
H2041 H 0.24912 0.13628 0.35291 0.0
H2042 H 0.25171 0.1368 0.30588 0.0
H2043 H 0.23878 0.09376 0.26412 0.0
H2044 H 0.26842 0.08868 0.14031 0.0
H2045 H 0.26609 0.08838 0.18743 0.0
C2046 C 0.16392 0.01559 0.40222 0.0
C2047 C 0.15005 0.01514 0.38857 0.0
C2048 C 0.16409 0.0139 0.4291 0.0
C2049 C 0.14026 0.01657 0.48742 0.0
H2050 H 0.16813 0.98642 0.51556 0.0
C2051 C 0.13574 0.99722 0.59318 0.0
C2052 C 0.14944 0.99549 0.60696 0.0
C2053 C 0.13591 0.999 0.56636 0.0
C2054 C 0.1604 0.995 0.50808 0.0
H2055 H 0.1255 0.01326 0.39224 0.0
H2056 H 0.12573 0.01049 0.43931 0.0
H2057 H 0.16857 0.99208 0.46934 0.0
H2058 H 0.17405 0.99393 0.6035 0.0
H2059 H 0.17442 0.99724 0.55668 0.0
H2060 H 0.13219 0.01969 0.52606 0.0
C2061 C 0.13647 0.01209 0.42925 0.0
C2062 C 0.16067 0.99825 0.48162 0.0
C2063 C 0.13633 0.0136 0.40237 0.0
C2064 C 0.1633 0.99502 0.59332 0.0
C2065 C 0.1635 0.99694 0.56648 0.0
C2066 C 0.14007 0.01343 0.51389 0.0
C2067 C 0.15037 0.01191 0.44281 0.0
C2068 C 0.15055 0.009 0.47103 0.0
C2069 C 0.14981 0.99926 0.55274 0.0
C2070 C 0.15007 1.00253 0.52453 0.0
H2071 H 0.17468 0.01657 0.39203 0.0
H2072 H 0.17495 0.01393 0.43913 0.0
H2073 H 0.13244 0.02503 0.47978 0.0
H2074 H 0.12491 0.99749 0.6033 0.0
H2075 H 0.12513 1.00039 0.55633 0.0
C2076 C 0.2471 0.91298 0.65265 0.0
C2077 C 0.24769 0.89934 0.63845 0.0
C2078 C 0.2485 0.91277 0.67956 0.0
C2079 C 0.26359 0.88859 0.73231 0.0
H2080 H 0.24167 0.91705 0.77613 0.0
C2081 C 0.2629 0.88539 0.84414 0.0
C2082 C 0.26447 0.89924 0.85755 0.0
C2083 C 0.26142 0.88527 0.81724 0.0
C2084 C 0.24797 0.90914 0.76407 0.0
H2085 H 0.24943 0.87476 0.6412 0.0
H2086 H 0.25147 0.87429 0.6883 0.0
H2087 H 0.23675 0.91679 0.7297 0.0
H2088 H 0.26595 0.92381 0.85333 0.0
H2089 H 0.26342 0.9236 0.80628 0.0
H2090 H 0.27462 0.88081 0.76688 0.0
C2091 C 0.25036 0.8852 0.67865 0.0
C2092 C 0.24517 0.90899 0.73749 0.0
C2093 C 0.2491 0.88544 0.65173 0.0
C2094 C 0.26495 0.91295 0.84349 0.0
C2095 C 0.26331 0.91285 0.81662 0.0
C2096 C 0.2663 0.88867 0.75893 0.0
C2097 C 0.2504 0.89889 0.69285 0.0
C2098 C 0.25298 0.89875 0.72126 0.0
C2099 C 0.26132 0.89903 0.80329 0.0
C2100 C 0.25857 0.89899 0.77504 0.0
H2101 H 0.24628 0.92388 0.6429 0.0
H2102 H 0.24869 0.92354 0.68981 0.0
H2103 H 0.27004 0.88076 0.72035 0.0
H2104 H 0.26254 0.87468 0.85457 0.0
H2105 H 0.25983 0.87446 0.80746 0.0
C2106 C 0.34889 0.99636 0.90205 0.0
C2107 C 0.36271 0.99709 0.88829 0.0
C2108 C 0.34877 0.99793 0.92896 0.0
C2109 C 0.37275 0.99507 0.98702 0.0
H2110 H 0.34449 0.02449 0.0162 0.0
C2111 C 0.37689 0.01309 0.09361 0.0
C2112 C 0.36317 0.01472 0.10735 0.0
C2113 C 0.37679 0.01153 0.06674 0.0
C2114 C 0.35232 0.0161 0.00844 0.0
H2115 H 0.38723 0.9994 0.89178 0.0
H2116 H 0.38709 1.00194 0.93891 0.0
H2117 H 0.3441 0.01939 0.9698 0.0
H2118 H 0.33856 0.01624 0.10377 0.0
H2119 H 0.33829 0.0133 0.05687 0.0
H2120 H 0.38083 0.99154 0.02555 0.0
C2121 C 0.37635 1.00022 0.9289 0.0
C2122 C 0.35209 0.01319 0.98187 0.0
C2123 C 0.37644 0.99884 0.90199 0.0
C2124 C 0.34933 0.01524 0.09362 0.0
C2125 C 0.3492 0.01353 0.06674 0.0
C2126 C 0.37289 0.99787 0.01362 0.0
C2127 C 0.36249 1.00007 0.94259 0.0
C2128 C 0.36235 1.0027 0.9709 0.0
C2129 C 0.36291 0.0114 0.05301 0.0
C2130 C 0.36274 0.00849 0.02465 0.0
H2131 H 0.33812 0.99521 0.89195 0.0
H2132 H 0.33794 0.99764 0.93909 0.0
H2133 H 0.38067 0.98681 0.97909 0.0
H2134 H 0.3877 0.01278 0.10378 0.0
H2135 H 0.38759 0.01028 0.05676 0.0
C2136 C 0.76717 0.91452 0.65319 0.0
C2137 C 0.7666 0.90072 0.63937 0.0
C2138 C 0.76571 0.91456 0.68012 0.0
C2139 C 0.76903 0.89058 0.73809 0.0
H2140 H 0.73874 0.91791 0.76728 0.0
C2141 C 0.75047 0.88513 0.84416 0.0
C2142 C 0.74836 0.89865 0.85821 0.0
C2143 C 0.75219 0.88552 0.81733 0.0
C2144 C 0.74738 0.91034 0.75953 0.0
H2145 H 0.76471 0.87619 0.64278 0.0
H2146 H 0.76239 0.8762 0.68994 0.0
H2147 H 0.74407 0.91867 0.72096 0.0
H2148 H 0.7461 0.9232 0.85527 0.0
H2149 H 0.74934 0.924 0.80842 0.0
H2150 H 0.77258 0.88238 0.77654 0.0
C2151 C 0.7639 0.88697 0.67996 0.0
C2152 C 0.75042 0.91079 0.733 0.0
C2153 C 0.76517 0.88695 0.65304 0.0
C2154 C 0.74748 0.91258 0.84485 0.0
C2155 C 0.74937 0.91301 0.818 0.0
C2156 C 0.76611 0.89023 0.76464 0.0
C2157 C 0.76385 0.9008 0.69371 0.0
C2158 C 0.7612 0.90084 0.72201 0.0
C2159 C 0.75203 0.89951 0.80396 0.0
C2160 C 0.75516 0.90002 0.77568 0.0
H2161 H 0.76807 0.9253 0.64311 0.0
H2162 H 0.76583 0.92536 0.69029 0.0
H2163 H 0.77752 0.8829 0.73015 0.0
H2164 H 0.75106 0.87425 0.85407 0.0
H2165 H 0.75383 0.87486 0.80711 0.0
C2166 C 0.84791 0.01534 0.40207 0.0
C2167 C 0.86181 0.01506 0.3885 0.0
C2168 C 0.84774 0.01388 0.42899 0.0
C2169 C 0.8714 0.01771 0.48728 0.0
H2170 H 0.84412 0.9873 0.51629 0.0
C2171 C 0.87614 0.99954 0.59365 0.0
C2172 C 0.86246 0.99758 0.60741 0.0
C2173 C 0.87597 1.00114 0.56679 0.0
C2174 C 0.85168 0.99597 0.50857 0.0
H2175 H 0.88638 0.01369 0.3923 0.0
H2176 H 0.88614 0.01134 0.43944 0.0
H2177 H 0.84365 0.9924 0.46989 0.0
H2178 H 0.83789 0.99549 0.60388 0.0
H2179 H 0.83752 0.99847 0.557 0.0
H2180 H 0.87932 0.02147 0.52584 0.0
C2181 C 0.87539 0.01263 0.42929 0.0
C2182 C 0.85139 0.99888 0.482 0.0
C2183 C 0.87554 0.0139 0.40238 0.0
C2184 C 0.84863 0.99675 0.59372 0.0
C2185 C 0.84843 0.99849 0.56685 0.0
C2186 C 0.8716 0.01489 0.51385 0.0
C2187 C 0.86147 0.01231 0.4428 0.0
C2188 C 0.86131 0.00972 0.4711 0.0
C2189 C 0.86208 1.00097 0.55312 0.0
C2190 C 0.86181 1.00391 0.52481 0.0
H2191 H 0.83715 0.01602 0.39182 0.0
H2192 H 0.83686 0.0138 0.43898 0.0
H2193 H 0.87905 0.02624 0.47939 0.0
H2194 H 0.88695 1.00007 0.6038 0.0
H2195 H 0.88673 1.00267 0.55678 0.0
C2196 C 0.76484 0.09765 0.34431 0.0
C2197 C 0.76451 0.11146 0.35811 0.0
C2198 C 0.76332 0.09762 0.3174 0.0
C2199 C 0.76708 0.12152 0.25947 0.0
H2200 H 0.7364 0.09469 0.2301 0.0
C2201 C 0.74902 0.12716 0.15323 0.0
C2202 C 0.74677 0.11364 0.1392 0.0
C2203 C 0.75058 0.12677 0.18009 0.0
C2204 C 0.74515 0.10211 0.23791 0.0
H2205 H 0.76294 0.13601 0.35472 0.0
H2206 H 0.76053 0.13602 0.30757 0.0
H2207 H 0.74159 0.09387 0.27648 0.0
H2208 H 0.7441 0.08914 0.1422 0.0
H2209 H 0.74709 0.08835 0.1891 0.0
H2210 H 0.77088 0.12963 0.22104 0.0
C2211 C 0.76189 0.12523 0.31755 0.0
C2212 C 0.74811 0.10163 0.26447 0.0
C2213 C 0.76322 0.12524 0.34446 0.0
C2214 C 0.7456 0.09975 0.1526 0.0
C2215 C 0.74733 0.09932 0.17948 0.0
C2216 C 0.76424 0.1219 0.23291 0.0
C2217 C 0.76164 0.11141 0.30381 0.0
C2218 C 0.75903 0.11141 0.27551 0.0
C2219 C 0.75013 0.11281 0.1935 0.0
C2220 C 0.75315 0.11229 0.22181 0.0
H2221 H 0.76563 0.08685 0.3544 0.0
H2222 H 0.76327 0.08682 0.30722 0.0
H2223 H 0.77568 0.12907 0.26747 0.0
H2224 H 0.74983 0.138 0.14328 0.0
H2225 H 0.75234 0.13742 0.19029 0.0
C2226 C 0.66423 0.99768 0.90322 0.0
C2227 C 0.65032 0.99807 0.88971 0.0
C2228 C 0.66448 0.99933 0.93011 0.0
C2229 C 0.64098 0.01478 0.98348 0.0
H2230 H 0.66975 0.99306 0.02703 0.0
C2231 C 0.63715 0.01309 0.0949 0.0
C2232 C 0.65084 0.01454 0.10884 0.0
C2233 C 0.63736 0.01201 0.06797 0.0
C2234 C 0.66178 0.99933 0.01504 0.0
H2235 H 0.62578 0.99968 0.89364 0.0
H2236 H 0.62611 1.00211 0.94068 0.0
H2237 H 0.66935 0.98814 0.98057 0.0
H2238 H 0.67546 0.01624 0.10558 0.0
H2239 H 0.67583 0.01438 0.05837 0.0
H2240 H 0.63323 0.02574 0.0181 0.0
C2241 C 0.63687 1.00099 0.93052 0.0
C2242 C 0.66154 0.99651 0.98844 0.0
C2243 C 0.63664 0.99948 0.90365 0.0
C2244 C 0.66473 0.01533 0.09529 0.0
C2245 C 0.66496 0.01408 0.06834 0.0
C2246 C 0.64115 0.0175 0.01008 0.0
C2247 C 0.65081 1.00128 0.94403 0.0
C2248 C 0.65109 1.00417 0.97235 0.0
C2249 C 0.65128 0.0122 0.05447 0.0
C2250 C 0.65152 0.00978 0.02612 0.0
H2251 H 0.67496 0.99685 0.89292 0.0
H2252 H 0.67543 0.99967 0.93983 0.0
H2253 H 0.63302 0.02114 0.9716 0.0
H2254 H 0.62632 0.01249 0.10495 0.0
H2255 H 0.62665 0.01048 0.05778 0.0
C2256 C 0.77022 0.60851 0.65109 0.0
C2257 C 0.76209 0.61931 0.63631 0.0
C2258 C 0.76874 0.60813 0.67802 0.0
C2259 C 0.74155 0.61571 0.72857 0.0
H2260 H 0.77593 0.61876 0.77561 0.0
C2261 C 0.75267 0.62841 0.84227 0.0
C2262 C 0.74634 0.61567 0.85495 0.0
C2263 C 0.75406 0.62866 0.81542 0.0
C2264 C 0.76627 0.61784 0.76261 0.0
H2265 H 0.74693 0.63893 0.63895 0.0
H2266 H 0.74394 0.63775 0.68562 0.0
H2267 H 0.78034 0.61949 0.72874 0.0
H2268 H 0.73557 0.59362 0.8489 0.0
H2269 H 0.73746 0.59444 0.80171 0.0
H2270 H 0.7275 0.61384 0.76247 0.0
C2271 C 0.75131 0.62953 0.67616 0.0
C2272 C 0.76879 0.61821 0.73594 0.0
C2273 C 0.753 0.63012 0.64937 0.0
C2274 C 0.74047 0.60362 0.8399 0.0
C2275 C 0.74162 0.60403 0.8129 0.0
C2276 C 0.73905 0.61502 0.75524 0.0
C2277 C 0.75896 0.6184 0.69062 0.0
C2278 C 0.75643 0.61734 0.71876 0.0
C2279 C 0.74881 0.61636 0.8006 0.0
C2280 C 0.75138 0.61628 0.77242 0.0
H2281 H 0.77729 0.59996 0.64195 0.0
H2282 H 0.77479 0.59947 0.68891 0.0
H2283 H 0.73187 0.61494 0.71557 0.0
H2284 H 0.75687 0.6381 0.8531 0.0
H2285 H 0.75939 0.63841 0.80622 0.0
C2286 C 0.63649 0.49677 0.08918 0.0
C2287 C 0.65024 0.49504 0.10282 0.0
C2288 C 0.63658 0.49882 0.0624 0.0
C2289 C 0.66099 0.49542 0.00399 0.0
H2290 H 0.63312 0.52576 0.97644 0.0
C2291 C 0.66505 0.51678 0.89892 0.0
C2292 C 0.65126 0.51646 0.88502 0.0
C2293 C 0.66503 0.51503 0.92577 0.0
C2294 C 0.64091 0.51722 0.98387 0.0
H2295 H 0.67486 0.49378 0.09912 0.0
H2296 H 0.67509 0.4975 0.05244 0.0
H2297 H 0.63276 0.51992 0.02256 0.0
H2298 H 0.62667 0.51484 0.88826 0.0
H2299 H 0.62659 0.51192 0.93531 0.0
H2300 H 0.66924 0.49288 0.96524 0.0
C2301 C 0.66419 0.49702 0.0623 0.0
C2302 C 0.64065 0.51379 0.01024 0.0
C2303 C 0.66407 0.49485 0.08907 0.0
C2304 C 0.63743 0.51508 0.89858 0.0
C2305 C 0.6374 0.51347 0.92545 0.0
C2306 C 0.66132 0.49893 0.97765 0.0
C2307 C 0.65046 0.49931 0.04872 0.0
C2308 C 0.65065 0.5028 0.0206 0.0
C2309 C 0.65122 0.51307 0.93922 0.0
C2310 C 0.65125 0.50983 0.96733 0.0
H2311 H 0.62568 0.49682 0.09936 0.0
H2312 H 0.62578 0.50021 0.05247 0.0
H2313 H 0.6687 0.48675 0.01125 0.0
H2314 H 0.67589 0.51765 0.88895 0.0
H2315 H 0.67584 0.51491 0.93598 0.0
C2316 C 0.76622 0.41286 0.34398 0.0
C2317 C 0.76586 0.3989 0.35731 0.0
C2318 C 0.76406 0.41328 0.3172 0.0
C2319 C 0.74702 0.3903 0.26459 0.0
H2320 H 0.7682 0.41887 0.21993 0.0
C2321 C 0.74656 0.38667 0.15315 0.0
C2322 C 0.74524 0.40038 0.13926 0.0
C2323 C 0.74797 0.38683 0.18003 0.0
C2324 C 0.76207 0.41097 0.23225 0.0
H2325 H 0.76384 0.37443 0.35313 0.0
H2326 H 0.76052 0.37504 0.30625 0.0
H2327 H 0.77417 0.41823 0.26604 0.0
H2328 H 0.744 0.42499 0.1426 0.0
H2329 H 0.74643 0.4253 0.18974 0.0
H2330 H 0.73515 0.38285 0.23063 0.0
C2331 C 0.762 0.38572 0.31649 0.0
C2332 C 0.76549 0.41058 0.25864 0.0
C2333 C 0.76403 0.38533 0.34326 0.0
C2334 C 0.74482 0.41425 0.15285 0.0
C2335 C 0.74639 0.41444 0.17976 0.0
C2336 C 0.74369 0.39062 0.23818 0.0
C2337 C 0.76161 0.39972 0.30321 0.0
C2338 C 0.75806 0.40019 0.27511 0.0
C2339 C 0.74824 0.40074 0.19354 0.0
C2340 C 0.75121 0.40091 0.22175 0.0
H2341 H 0.76737 0.42351 0.35439 0.0
H2342 H 0.76367 0.42427 0.30765 0.0
H2343 H 0.74082 0.38239 0.27679 0.0
H2344 H 0.74689 0.37585 0.14306 0.0
H2345 H 0.74946 0.37611 0.19014 0.0
C2346 C 0.85932 0.49644 0.59669 0.0
C2347 C 0.85929 0.51048 0.60982 0.0
C2348 C 0.85773 0.49594 0.56989 0.0
C2349 C 0.86455 0.51871 0.51217 0.0
H2350 H 0.83931 0.48826 0.47836 0.0
C2351 C 0.85904 0.51661 0.40169 0.0
C2352 C 0.85945 0.50217 0.38994 0.0
C2353 C 0.85751 0.51796 0.42841 0.0
C2354 C 0.84652 0.49673 0.48752 0.0
H2355 H 0.85715 0.53492 0.6055 0.0
H2356 H 0.85449 0.53412 0.55823 0.0
H2357 H 0.83914 0.49028 0.52548 0.0
H2358 H 0.85815 0.47786 0.39656 0.0
H2359 H 0.85586 0.4801 0.44368 0.0
H2360 H 0.87229 0.52492 0.47444 0.0
C2361 C 0.85584 0.52352 0.56878 0.0
C2362 C 0.84637 0.49792 0.51446 0.0
C2363 C 0.85728 0.524 0.59571 0.0
C2364 C 0.85789 0.48908 0.40531 0.0
C2365 C 0.8565 0.49041 0.43218 0.0
C2366 C 0.86478 0.51746 0.48527 0.0
C2367 C 0.85614 0.50947 0.55563 0.0
C2368 C 0.85546 0.50886 0.52704 0.0
C2369 C 0.85647 0.50488 0.44404 0.0
C2370 C 0.85583 0.5064 0.47262 0.0
H2371 H 0.8605 0.48581 0.60717 0.0
H2372 H 0.85811 0.48496 0.56028 0.0
H2373 H 0.87186 0.52708 0.52137 0.0
H2374 H 0.85976 0.5269 0.39016 0.0
H2375 H 0.85712 0.52927 0.43681 0.0
C2376 C 0.27272 0.4056 0.15249 0.0
C2377 C 0.267 0.39358 0.13723 0.0
C2378 C 0.27148 0.40507 0.17946 0.0
C2379 C 0.27356 0.39415 0.23718 0.0
H2380 H 0.23196 0.3898 0.26232 0.0
C2381 C 0.2584 0.38079 0.34326 0.0
C2382 C 0.24922 0.39189 0.35538 0.0
C2383 C 0.26034 0.3808 0.31649 0.0
C2384 C 0.2436 0.39103 0.25549 0.0
H2385 H 0.25669 0.37105 0.13864 0.0
H2386 H 0.254 0.37049 0.18551 0.0
H2387 H 0.23695 0.39006 0.21561 0.0
H2388 H 0.23408 0.4111 0.34818 0.0
H2389 H 0.23702 0.41058 0.30127 0.0
H2390 H 0.28024 0.3947 0.27708 0.0
C2391 C 0.2593 0.38032 0.17649 0.0
C2392 C 0.24645 0.39112 0.22892 0.0
C2393 C 0.26079 0.38071 0.14967 0.0
C2394 C 0.24123 0.40236 0.33975 0.0
C2395 C 0.24295 0.40215 0.31285 0.0
C2396 C 0.27073 0.39372 0.26377 0.0
C2397 C 0.26434 0.39262 0.19152 0.0
C2398 C 0.26145 0.39269 0.21961 0.0
C2399 C 0.25284 0.39162 0.30116 0.0
C2400 C 0.25574 0.39217 0.27308 0.0
H2401 H 0.27753 0.41571 0.14367 0.0
H2402 H 0.27547 0.41466 0.19081 0.0
H2403 H 0.28519 0.39535 0.23033 0.0
H2404 H 0.26437 0.37222 0.35438 0.0
H2405 H 0.26781 0.37239 0.30774 0.0
C2406 C 0.38491 0.51528 0.9022 0.0
C2407 C 0.37085 0.51819 0.89012 0.0
C2408 C 0.38576 0.51373 0.92906 0.0
C2409 C 0.36339 0.51944 0.98981 0.0
H2410 H 0.38945 0.48703 0.01565 0.0
C2411 C 0.35615 0.49369 0.09114 0.0
C2412 C 0.36931 0.49407 0.10666 0.0
C2413 C 0.35716 0.49647 0.06462 0.0
C2414 C 0.3822 0.49616 0.00865 0.0
H2415 H 0.34672 0.52204 0.89659 0.0
H2416 H 0.34805 0.519 0.94323 0.0
H2417 H 0.38988 0.49344 0.96969 0.0
H2418 H 0.39386 0.49688 0.10664 0.0
H2419 H 0.39572 0.50133 0.05986 0.0
H2420 H 0.35532 0.52167 0.02874 0.0
C2421 C 0.35854 0.51831 0.93222 0.0
C2422 C 0.38251 0.49994 0.98239 0.0
C2423 C 0.35775 0.52006 0.90543 0.0
C2424 C 0.38359 0.49651 0.09498 0.0
C2425 C 0.38464 0.49904 0.06835 0.0
C2426 C 0.36292 0.51548 0.01594 0.0
C2427 C 0.37251 0.51484 0.94436 0.0
C2428 C 0.37301 0.51156 0.97259 0.0
C2429 C 0.37138 0.49944 0.0531 0.0
C2430 C 0.37221 0.50373 0.02552 0.0
H2431 H 0.39517 0.5139 0.89075 0.0
H2432 H 0.39677 0.5114 0.93776 0.0
H2433 H 0.35617 0.52866 0.98312 0.0
H2434 H 0.34499 0.49205 0.09972 0.0
H2435 H 0.3468 0.49661 0.05316 0.0
C2436 C 0.25511 0.63511 0.6536 0.0
C2437 C 0.2467 0.623 0.64273 0.0
C2438 C 0.25686 0.63633 0.68033 0.0
C2439 C 0.26819 0.62587 0.73384 0.0
H2440 H 0.23462 0.62691 0.78276 0.0
C2441 C 0.27222 0.61243 0.84392 0.0
C2442 C 0.2652 0.62311 0.86042 0.0
C2443 C 0.27085 0.6138 0.81707 0.0
C2444 C 0.24407 0.62668 0.76924 0.0
H2445 H 0.2326 0.60333 0.65191 0.0
H2446 H 0.23521 0.60589 0.69871 0.0
H2447 H 0.22925 0.62672 0.73617 0.0
H2448 H 0.25243 0.64437 0.86128 0.0
H2449 H 0.24957 0.64632 0.81457 0.0
H2450 H 0.283 0.62534 0.76692 0.0
C2451 C 0.24067 0.61421 0.68626 0.0
C2452 C 0.24101 0.6265 0.74273 0.0
C2453 C 0.23913 0.61281 0.65943 0.0
C2454 C 0.25757 0.63566 0.84932 0.0
C2455 C 0.25598 0.63685 0.82256 0.0
C2456 C 0.27125 0.62573 0.76036 0.0
C2457 C 0.24992 0.62571 0.69682 0.0
C2458 C 0.25305 0.62614 0.72485 0.0
C2459 C 0.26231 0.62576 0.80628 0.0
C2460 C 0.25921 0.62618 0.77823 0.0
H2461 H 0.2607 0.64348 0.64149 0.0
H2462 H 0.26383 0.64545 0.68813 0.0
H2463 H 0.27765 0.62548 0.72033 0.0
H2464 H 0.27815 0.60261 0.85163 0.0
H2465 H 0.27584 0.60511 0.80478 0.0
C2466 C 0.16456 0.4941 0.40573 0.0
C2467 C 0.15067 0.4941 0.39215 0.0
C2468 C 0.16478 0.49662 0.43242 0.0
C2469 C 0.14122 0.51419 0.48374 0.0
H2470 H 0.16981 0.4942 0.52994 0.0
C2471 C 0.13679 0.51624 0.59501 0.0
C2472 C 0.15039 0.51794 0.6091 0.0
C2473 C 0.13717 0.51452 0.56819 0.0
C2474 C 0.1619 0.50001 0.51718 0.0
H2475 H 0.12612 0.4958 0.39583 0.0
H2476 H 0.12638 0.49974 0.44257 0.0
H2477 H 0.16955 0.48744 0.48415 0.0
H2478 H 0.17503 0.51957 0.60623 0.0
H2479 H 0.17572 0.51659 0.55918 0.0
H2480 H 0.13339 0.52652 0.51695 0.0
C2481 C 0.13716 0.49827 0.43258 0.0
C2482 C 0.16173 0.49613 0.49097 0.0
C2483 C 0.13697 0.49589 0.4059 0.0
C2484 C 0.16437 0.51846 0.59579 0.0
C2485 C 0.16477 0.51657 0.56896 0.0
C2486 C 0.14133 0.51798 0.50996 0.0
C2487 C 0.15109 0.49908 0.44606 0.0
C2488 C 0.15133 0.50311 0.47396 0.0
C2489 C 0.15119 0.5143 0.55498 0.0
C2490 C 0.15163 0.5109 0.52694 0.0
H2491 H 0.1753 0.49298 0.39553 0.0
H2492 H 0.17571 0.49731 0.44214 0.0
H2493 H 0.13331 0.52006 0.4711 0.0
H2494 H 0.1259 0.51582 0.60491 0.0
H2495 H 0.12654 0.5127 0.55793 0.0
C2496 C 0.19219 0.12122 0.94586 0.0
C2497 C 0.20089 0.11224 0.96289 0.0
C2498 C 0.1857 0.11479 0.92372 0.0
C2499 C 0.18911 0.08186 0.87965 0.0
H2500 H 0.14782 0.09287 0.85987 0.0
C2501 C 0.1564 0.05037 0.79894 0.0
C2502 C 0.14801 0.0594 0.78151 0.0
C2503 C 0.16273 0.05681 0.8212 0.0
C2504 C 0.15941 0.0898 0.86501 0.0
H2505 H 0.20937 0.08939 0.97021 0.0
H2506 H 0.19805 0.07817 0.93163 0.0
H2507 H 0.15917 0.10417 0.89846 0.0
H2508 H 0.13981 0.08231 0.77378 0.0
H2509 H 0.15082 0.09352 0.81265 0.0
H2510 H 0.18934 0.06748 0.84621 0.0
C2511 C 0.19646 0.09025 0.93517 0.0
C2512 C 0.16592 0.09628 0.88709 0.0
C2513 C 0.20296 0.09668 0.95729 0.0
C2514 C 0.146 0.07499 0.78696 0.0
C2515 C 0.15233 0.08142 0.80924 0.0
C2516 C 0.1826 0.07537 0.85759 0.0
C2517 C 0.18775 0.09923 0.91814 0.0
C2518 C 0.18084 0.09238 0.89465 0.0
C2519 C 0.16079 0.07241 0.82655 0.0
C2520 C 0.16768 0.07927 0.85003 0.0
H2521 H 0.19057 0.13328 0.94942 0.0
H2522 H 0.17925 0.12207 0.91077 0.0
H2523 H 0.20071 0.07881 0.88474 0.0
H2524 H 0.15793 0.03828 0.79558 0.0
H2525 H 0.16899 0.04952 0.83439 0.0
C2526 C 0.16436 0.95064 0.21151 0.0
C2527 C 0.14843 0.95102 0.21459 0.0
C2528 C 0.17086 0.94394 0.18963 0.0
C2529 C 0.16217 0.91756 0.13543 0.0
H2530 H 0.19831 0.93597 0.10535 0.0
C2531 C 0.19583 0.88848 0.05314 0.0
C2532 C 0.20203 0.89786 0.0338 0.0
C2533 C 0.18931 0.89487 0.07529 0.0
C2534 C 0.18812 0.93076 0.11331 0.0
H2535 H 0.1268 0.94491 0.19714 0.0
H2536 H 0.13808 0.93352 0.15855 0.0
H2537 H 0.18662 0.94752 0.1432 0.0
H2538 H 0.20598 0.92127 0.02212 0.0
H2539 H 0.19431 0.93248 0.06043 0.0
H2540 H 0.16333 0.90114 0.10491 0.0
C2541 C 0.1456 0.93804 0.17332 0.0
C2542 C 0.18154 0.93726 0.13529 0.0
C2543 C 0.13912 0.94459 0.19537 0.0
C2544 C 0.2015 0.91377 0.03693 0.0
C2545 C 0.19484 0.92017 0.05892 0.0
C2546 C 0.16867 0.91113 0.11329 0.0
C2547 C 0.16156 0.93763 0.17018 0.0
C2548 C 0.1685 0.93072 0.14668 0.0
C2549 C 0.1887 0.9108 0.07844 0.0
C2550 C 0.18175 0.91764 0.10198 0.0
H2551 H 0.17181 0.95529 0.22624 0.0
H2552 H 0.18319 0.94355 0.18814 0.0
H2553 H 0.15224 0.9121 0.14385 0.0
H2554 H 0.19627 0.87618 0.05134 0.0
H2555 H 0.18495 0.8873 0.09011 0.0
C2556 C 0.34833 0.95055 0.28483 0.0
C2557 C 0.36425 0.95085 0.28172 0.0
C2558 C 0.3418 0.94384 0.30669 0.0
C2559 C 0.35039 0.91727 0.36071 0.0
H2560 H 0.31434 0.93574 0.39095 0.0
C2561 C 0.31668 0.88816 0.443 0.0
C2562 C 0.31051 0.89754 0.46237 0.0
C2563 C 0.32322 0.89456 0.42085 0.0
C2564 C 0.3245 0.93052 0.38295 0.0
H2565 H 0.38585 0.9446 0.29913 0.0
H2566 H 0.37453 0.9332 0.33767 0.0
H2567 H 0.32605 0.94734 0.35315 0.0
H2568 H 0.30667 0.92095 0.47412 0.0
H2569 H 0.31836 0.93217 0.43583 0.0
H2570 H 0.34918 0.90079 0.39113 0.0
C2571 C 0.36702 0.93778 0.32293 0.0
C2572 C 0.33109 0.93705 0.36099 0.0
C2573 C 0.37354 0.94434 0.30091 0.0
C2574 C 0.31111 0.91345 0.45929 0.0
C2575 C 0.31779 0.91986 0.4373 0.0
C2576 C 0.34387 0.91082 0.38282 0.0
C2577 C 0.35106 0.93743 0.32609 0.0
C2578 C 0.3441 0.93049 0.34955 0.0
C2579 C 0.32387 0.9105 0.41774 0.0
C2580 C 0.33083 0.91735 0.3942 0.0
H2581 H 0.3409 0.95527 0.27013 0.0
H2582 H 0.32946 0.94352 0.30819 0.0
H2583 H 0.36029 0.9118 0.35224 0.0
H2584 H 0.3162 0.87586 0.44476 0.0
H2585 H 0.32754 0.88699 0.406 0.0
C2586 C 0.3475 0.06071 0.7102 0.0
C2587 C 0.36343 0.06048 0.7133 0.0
C2588 C 0.34093 0.06738 0.68834 0.0
C2589 C 0.3494 0.09402 0.63438 0.0
H2590 H 0.31342 0.07542 0.60409 0.0
C2591 C 0.31563 0.12305 0.55213 0.0
C2592 C 0.30954 0.11366 0.5327 0.0
C2593 C 0.32214 0.11666 0.5743 0.0
C2594 C 0.32355 0.08068 0.61211 0.0
H2595 H 0.385 0.06682 0.69584 0.0
H2596 H 0.3736 0.07816 0.65731 0.0
H2597 H 0.32518 0.06384 0.64186 0.0
H2598 H 0.3058 0.09025 0.52088 0.0
H2599 H 0.31746 0.07904 0.5592 0.0
H2600 H 0.34812 0.11052 0.604 0.0
C2601 C 0.36613 0.07355 0.67206 0.0
C2602 C 0.33018 0.07416 0.63405 0.0
C2603 C 0.37268 0.06702 0.69407 0.0
C2604 C 0.31019 0.09776 0.53575 0.0
C2605 C 0.31684 0.09135 0.55776 0.0
C2606 C 0.34285 0.10046 0.61229 0.0
C2607 C 0.35016 0.07383 0.66893 0.0
C2608 C 0.34316 0.08076 0.6455 0.0
C2609 C 0.32286 0.10073 0.57737 0.0
C2610 C 0.32983 0.09389 0.60089 0.0
H2611 H 0.3401 0.05597 0.72492 0.0
H2612 H 0.3286 0.06765 0.68685 0.0
H2613 H 0.35927 0.09953 0.64285 0.0
H2614 H 0.3151 0.13535 0.55039 0.0
H2615 H 0.32641 0.12424 0.58918 0.0
C2616 C 0.81922 0.88877 0.05128 0.0
C2617 C 0.81266 0.89814 0.03227 0.0
C2618 C 0.82568 0.89515 0.0735 0.0
C2619 C 0.82606 0.93074 0.11238 0.0
H2620 H 0.86229 0.91255 0.14252 0.0
C2621 C 0.84913 0.95008 0.21134 0.0
C2622 C 0.86503 0.95072 0.21465 0.0
C2623 C 0.84285 0.94349 0.18918 0.0
C2624 C 0.85227 0.91788 0.13422 0.0
H2625 H 0.80802 0.92151 0.02121 0.0
H2626 H 0.81961 0.93273 0.05961 0.0
H2627 H 0.8515 0.90177 0.10321 0.0
H2628 H 0.88684 0.94515 0.19735 0.0
H2629 H 0.87595 0.93397 0.15827 0.0
H2630 H 0.82716 0.94722 0.14277 0.0
C2631 C 0.8194 0.92042 0.05781 0.0
C2632 C 0.84594 0.91156 0.11186 0.0
C2633 C 0.81279 0.91402 0.03576 0.0
C2634 C 0.87454 0.94463 0.19539 0.0
C2635 C 0.86828 0.93819 0.17306 0.0
C2636 C 0.83247 0.93716 0.13458 0.0
C2637 C 0.82587 0.91106 0.07703 0.0
C2638 C 0.83272 0.91787 0.1007 0.0
C2639 C 0.85234 0.93755 0.16967 0.0
C2640 C 0.84562 0.93078 0.14586 0.0
H2641 H 0.81909 0.87648 0.04921 0.0
H2642 H 0.83029 0.88757 0.08808 0.0
H2643 H 0.81576 0.9358 0.10456 0.0
H2644 H 0.84153 0.95447 0.22609 0.0
H2645 H 0.83053 0.9429 0.18752 0.0
C2646 C 0.818 0.12248 0.9463 0.0
C2647 C 0.81144 0.11322 0.96546 0.0
C2648 C 0.82438 0.11599 0.92412 0.0
C2649 C 0.82472 0.08017 0.88574 0.0
H2650 H 0.86089 0.0983 0.85529 0.0
C2651 C 0.8479 0.06056 0.78688 0.0
C2652 C 0.8638 0.06018 0.78344 0.0
C2653 C 0.84157 0.06705 0.80909 0.0
C2654 C 0.85089 0.09297 0.86368 0.0
H2655 H 0.80672 0.08991 0.97683 0.0
H2656 H 0.81821 0.07848 0.93852 0.0
H2657 H 0.85012 0.10924 0.89443 0.0
H2658 H 0.88557 0.06597 0.80069 0.0
H2659 H 0.87461 0.07694 0.83987 0.0
H2660 H 0.82586 0.06352 0.85561 0.0
C2661 C 0.81805 0.0908 0.94015 0.0
C2662 C 0.84456 0.0994 0.88595 0.0
C2663 C 0.8115 0.09732 0.96215 0.0
C2664 C 0.87327 0.06632 0.80273 0.0
C2665 C 0.86697 0.07264 0.82511 0.0
C2666 C 0.83115 0.07364 0.86364 0.0
C2667 C 0.82452 0.10005 0.92079 0.0
C2668 C 0.83136 0.09312 0.89722 0.0
C2669 C 0.85103 0.07313 0.82855 0.0
C2670 C 0.84429 0.07999 0.85226 0.0
H2671 H 0.81792 0.13478 0.94823 0.0
H2672 H 0.82899 0.12349 0.90943 0.0
H2673 H 0.81444 0.07513 0.89365 0.0
H2674 H 0.84034 0.05611 0.77212 0.0
H2675 H 0.82926 0.06749 0.8108 0.0
C2676 C 0.69208 0.1227 0.54989 0.0
C2677 C 0.70061 0.1134 0.5331 0.0
C2678 C 0.68553 0.11663 0.57228 0.0
C2679 C 0.68853 0.08413 0.61736 0.0
H2680 H 0.64734 0.09572 0.63683 0.0
C2681 C 0.65549 0.05315 0.69802 0.0
C2682 C 0.64718 0.06223 0.71547 0.0
C2683 C 0.66184 0.05953 0.67574 0.0
C2684 C 0.65891 0.0925 0.63179 0.0
H2685 H 0.7087 0.09033 0.52651 0.0
H2686 H 0.69728 0.07974 0.56551 0.0
H2687 H 0.65887 0.10667 0.59805 0.0
H2688 H 0.63901 0.08515 0.7231 0.0
H2689 H 0.65007 0.09629 0.68414 0.0
H2690 H 0.68856 0.06994 0.65103 0.0
C2691 C 0.69588 0.0918 0.56158 0.0
C2692 C 0.66552 0.09877 0.6096 0.0
C2693 C 0.70243 0.09787 0.53922 0.0
C2694 C 0.64519 0.0778 0.70993 0.0
C2695 C 0.65153 0.08419 0.68761 0.0
C2696 C 0.68192 0.07785 0.63952 0.0
C2697 C 0.68735 0.10111 0.57836 0.0
C2698 C 0.68038 0.09462 0.6021 0.0
C2699 C 0.66 0.07514 0.67036 0.0
C2700 C 0.66703 0.08194 0.64693 0.0
H2701 H 0.69065 0.13475 0.54594 0.0
H2702 H 0.67922 0.12415 0.58501 0.0
H2703 H 0.70009 0.08089 0.61234 0.0
H2704 H 0.65699 0.04106 0.70143 0.0
H2705 H 0.66807 0.0522 0.66259 0.0
C2706 C 0.65404 0.95886 0.30168 0.0
C2707 C 0.64814 0.94933 0.28226 0.0
C2708 C 0.66026 0.95264 0.3242 0.0
C2709 C 0.66156 0.91707 0.36311 0.0
H2710 H 0.69735 0.93624 0.39301 0.0
C2711 C 0.71056 0.90497 0.44615 0.0
C2712 C 0.70125 0.89904 0.46585 0.0
C2713 C 0.70407 0.91086 0.42356 0.0
C2714 C 0.68746 0.93063 0.38478 0.0
H2715 H 0.64421 0.92585 0.27104 0.0
H2716 H 0.65536 0.91491 0.31009 0.0
H2717 H 0.68622 0.9467 0.35375 0.0
H2718 H 0.67788 0.89485 0.47762 0.0
H2719 H 0.6665 0.90541 0.43852 0.0
H2720 H 0.66314 0.90067 0.39361 0.0
C2721 C 0.65487 0.92721 0.30826 0.0
C2722 C 0.68092 0.93678 0.36245 0.0
C2723 C 0.6485 0.93346 0.28585 0.0
C2724 C 0.68533 0.89914 0.46257 0.0
C2725 C 0.67883 0.90516 0.44012 0.0
C2726 C 0.66817 0.91085 0.38532 0.0
C2727 C 0.66087 0.93673 0.32769 0.0
C2728 C 0.66786 0.93011 0.35138 0.0
C2729 C 0.68812 0.91109 0.42032 0.0
C2730 C 0.68118 0.91758 0.39648 0.0
H2731 H 0.65369 0.97114 0.29957 0.0
H2732 H 0.66447 0.96032 0.33896 0.0
H2733 H 0.6514 0.91173 0.35529 0.0
H2734 H 0.72287 0.90484 0.44803 0.0
H2735 H 0.71159 0.91506 0.40853 0.0
C2736 C 0.66351 0.55566 0.28458 0.0
C2737 C 0.64766 0.55582 0.28041 0.0
C2738 C 0.6697 0.56185 0.30714 0.0
C2739 C 0.66072 0.5888 0.35991 0.0
H2740 H 0.69605 0.57019 0.39237 0.0
C2741 C 0.69545 0.62017 0.43756 0.0
C2742 C 0.70104 0.61171 0.4586 0.0
C2743 C 0.6888 0.61283 0.41646 0.0
C2744 C 0.68608 0.57544 0.38373 0.0
H2745 H 0.62583 0.56226 0.2968 0.0
H2746 H 0.63657 0.57289 0.33644 0.0
H2747 H 0.6843 0.55795 0.35504 0.0
H2748 H 0.70403 0.58895 0.47411 0.0
H2749 H 0.69216 0.57605 0.43735 0.0
H2750 H 0.66224 0.60607 0.38894 0.0
C2751 C 0.64427 0.56828 0.32203 0.0
C2752 C 0.67947 0.56853 0.36211 0.0
C2753 C 0.6381 0.56218 0.29935 0.0
C2754 C 0.69995 0.59573 0.45803 0.0
C2755 C 0.69317 0.58836 0.43696 0.0
C2756 C 0.66727 0.59565 0.3816 0.0
C2757 C 0.66015 0.56826 0.32613 0.0
C2758 C 0.66679 0.57521 0.34979 0.0
C2759 C 0.68746 0.59685 0.41598 0.0
C2760 C 0.68013 0.58915 0.3936 0.0
H2761 H 0.67118 0.55103 0.27015 0.0
H2762 H 0.68199 0.56191 0.30942 0.0
H2763 H 0.65107 0.59435 0.35077 0.0
H2764 H 0.6964 0.63248 0.43726 0.0
H2765 H 0.68485 0.6197 0.40037 0.0
C2766 C 0.71094 0.40319 0.55048 0.0
C2767 C 0.70158 0.39706 0.53103 0.0
C2768 C 0.7045 0.40954 0.57273 0.0
C2769 C 0.68816 0.43025 0.61033 0.0
H2770 H 0.65183 0.4124 0.64074 0.0
C2771 C 0.65529 0.46016 0.69246 0.0
C2772 C 0.64922 0.45096 0.71218 0.0
C2773 C 0.66142 0.45357 0.67017 0.0
C2774 C 0.66206 0.41745 0.63267 0.0
H2775 H 0.67818 0.39292 0.51938 0.0
H2776 H 0.66688 0.40429 0.5579 0.0
H2777 H 0.66337 0.40052 0.60299 0.0
H2778 H 0.645 0.42768 0.72427 0.0
H2779 H 0.656 0.4161 0.68568 0.0
H2780 H 0.6872 0.44684 0.64057 0.0
C2781 C 0.67921 0.40386 0.55636 0.0
C2782 C 0.66857 0.41076 0.61077 0.0
C2783 C 0.68566 0.39737 0.53425 0.0
C2784 C 0.64939 0.43504 0.70919 0.0
C2785 C 0.65567 0.42843 0.68704 0.0
C2786 C 0.68174 0.43686 0.63236 0.0
C2787 C 0.68855 0.41004 0.57587 0.0
C2788 C 0.68168 0.41709 0.5993 0.0
C2789 C 0.66177 0.43761 0.66725 0.0
C2790 C 0.66859 0.43057 0.64377 0.0
H2791 H 0.72325 0.4029 0.54863 0.0
H2792 H 0.71206 0.41391 0.58757 0.0
H2793 H 0.69813 0.43556 0.60182 0.0
H2794 H 0.65511 0.47247 0.69413 0.0
H2795 H 0.66575 0.461 0.65512 0.0
C2796 C 0.80274 0.40367 0.94785 0.0
C2797 C 0.81189 0.3977 0.96772 0.0
C2798 C 0.80941 0.40974 0.92559 0.0
C2799 C 0.82618 0.42996 0.88781 0.0
H2800 H 0.86249 0.41145 0.85853 0.0
C2801 C 0.85937 0.45846 0.80471 0.0
C2802 C 0.86527 0.44893 0.78533 0.0
C2803 C 0.85327 0.45225 0.82733 0.0
C2804 C 0.85227 0.41668 0.8663 0.0
H2805 H 0.83515 0.39355 0.9801 0.0
H2806 H 0.84687 0.40445 0.94151 0.0
H2807 H 0.85068 0.40013 0.89656 0.0
H2808 H 0.86932 0.42545 0.7742 0.0
H2809 H 0.85836 0.41452 0.81338 0.0
H2810 H 0.8274 0.44615 0.85699 0.0
C2811 C 0.83453 0.40411 0.94277 0.0
C2812 C 0.84561 0.41031 0.88834 0.0
C2813 C 0.82784 0.39789 0.96491 0.0
C2814 C 0.86503 0.43306 0.78901 0.0
C2815 C 0.85878 0.42682 0.81149 0.0
C2816 C 0.83275 0.43625 0.86565 0.0
C2817 C 0.82539 0.41013 0.92284 0.0
C2818 C 0.83248 0.41688 0.89937 0.0
C2819 C 0.85279 0.43634 0.83091 0.0
C2820 C 0.84589 0.4297 0.85463 0.0
H2821 H 0.79041 0.40346 0.94939 0.0
H2822 H 0.80201 0.41399 0.91042 0.0
H2823 H 0.8162 0.43545 0.89598 0.0
H2824 H 0.85963 0.47075 0.8025 0.0
H2825 H 0.84903 0.45993 0.84208 0.0
C2826 C 0.84846 0.56018 0.2084 0.0
C2827 C 0.86437 0.55987 0.21157 0.0
C2828 C 0.842 0.56645 0.18614 0.0
C2829 C 0.85085 0.59204 0.13108 0.0
H2830 H 0.81432 0.57379 0.10206 0.0
C2831 C 0.81686 0.62127 0.04974 0.0
C2832 C 0.81038 0.61198 0.03056 0.0
C2833 C 0.82345 0.61479 0.07172 0.0
C2834 C 0.82462 0.57894 0.10972 0.0
H2835 H 0.88605 0.56557 0.1939 0.0
H2836 H 0.87484 0.57617 0.15459 0.0
H2837 H 0.82617 0.56235 0.13988 0.0
H2838 H 0.80591 0.58866 0.01898 0.0
H2839 H 0.81777 0.57725 0.05701 0.0
H2840 H 0.84964 0.60827 0.10032 0.0
C2841 C 0.8673 0.57196 0.16958 0.0
C2842 C 0.8313 0.5725 0.13167 0.0
C2843 C 0.87374 0.56586 0.19202 0.0
C2844 C 0.81064 0.59607 0.03368 0.0
C2845 C 0.81741 0.58957 0.0555 0.0
C2846 C 0.84427 0.59837 0.10897 0.0
C2847 C 0.85134 0.57237 0.1664 0.0
C2848 C 0.84444 0.57902 0.14271 0.0
C2849 C 0.82388 0.59885 0.07481 0.0
C2850 C 0.83102 0.59195 0.0981 0.0
H2851 H 0.84099 0.55585 0.22339 0.0
H2852 H 0.82967 0.56686 0.18461 0.0
H2853 H 0.86086 0.59748 0.13923 0.0
H2854 H 0.8166 0.63358 0.04792 0.0
H2855 H 0.82804 0.6223 0.08643 0.0
C2856 C 0.30653 0.4164 0.54012 0.0
C2857 C 0.3059 0.40043 0.53809 0.0
C2858 C 0.31246 0.42326 0.56238 0.0
C2859 C 0.3379 0.41462 0.61741 0.0
H2860 H 0.32153 0.4521 0.64603 0.0
C2861 C 0.36994 0.44774 0.69608 0.0
C2862 C 0.36133 0.45399 0.7164 0.0
C2863 C 0.36271 0.44175 0.67431 0.0
C2864 C 0.32614 0.44156 0.63839 0.0
H2865 H 0.3101 0.37916 0.55819 0.0
H2866 H 0.32018 0.39105 0.59713 0.0
H2867 H 0.30913 0.44035 0.60868 0.0
H2868 H 0.33842 0.45891 0.72986 0.0
H2869 H 0.32571 0.44818 0.69193 0.0
H2870 H 0.35463 0.41552 0.64739 0.0
C2871 C 0.31658 0.39831 0.5813 0.0
C2872 C 0.31915 0.43493 0.61682 0.0
C2873 C 0.31079 0.39148 0.55902 0.0
C2874 C 0.34533 0.45427 0.71438 0.0
C2875 C 0.33807 0.44817 0.69264 0.0
C2876 C 0.34482 0.42118 0.63898 0.0
C2877 C 0.31774 0.41427 0.58308 0.0
C2878 C 0.32497 0.42138 0.60609 0.0
C2879 C 0.34669 0.44174 0.67243 0.0
C2880 C 0.33909 0.43476 0.64966 0.0
H2881 H 0.3029 0.42355 0.52419 0.0
H2882 H 0.31333 0.43558 0.56304 0.0
H2883 H 0.34282 0.40431 0.60943 0.0
H2884 H 0.38229 0.44767 0.69685 0.0
H2885 H 0.36971 0.43721 0.65884 0.0
C2886 C 0.30453 0.59253 0.46003 0.0
C2887 C 0.3069 0.60822 0.46407 0.0
C2888 C 0.31034 0.58537 0.43794 0.0
C2889 C 0.34026 0.59015 0.38866 0.0
H2890 H 0.31635 0.56161 0.34806 0.0
C2891 C 0.35907 0.57183 0.28743 0.0
C2892 C 0.35802 0.55628 0.2812 0.0
C2893 C 0.35232 0.57746 0.3099 0.0
C2894 C 0.32321 0.56943 0.35939 0.0
H2895 H 0.31659 0.6288 0.4475 0.0
H2896 H 0.32673 0.61638 0.40921 0.0
H2897 H 0.30547 0.57263 0.38748 0.0
H2898 H 0.34889 0.53444 0.2935 0.0
H2899 H 0.33702 0.54432 0.33285 0.0
H2900 H 0.35795 0.58707 0.36069 0.0
C2901 C 0.32069 0.60952 0.42335 0.0
C2902 C 0.31699 0.57572 0.38193 0.0
C2903 C 0.31489 0.61664 0.44532 0.0
C2904 C 0.34975 0.54652 0.29763 0.0
C2905 C 0.34297 0.55216 0.32017 0.0
C2906 C 0.34645 0.58389 0.36623 0.0
C2907 C 0.31864 0.59379 0.41954 0.0
C2908 C 0.3254 0.58631 0.39655 0.0
C2909 C 0.34437 0.56766 0.32668 0.0
C2910 C 0.33792 0.57364 0.35114 0.0
H2911 H 0.2985 0.58572 0.4742 0.0
H2912 H 0.30867 0.57321 0.43555 0.0
H2913 H 0.34714 0.59803 0.39986 0.0
H2914 H 0.3651 0.57969 0.27491 0.0
H2915 H 0.35331 0.58953 0.31412 0.0
C2916 C 0.20233 0.59314 0.0373 0.0
C2917 C 0.20062 0.60899 0.03413 0.0
C2918 C 0.19566 0.58571 0.0584 0.0
C2919 C 0.16511 0.59026 0.1069 0.0
H2920 H 0.18822 0.56062 0.14652 0.0
C2921 C 0.14667 0.57077 0.20831 0.0
C2922 C 0.14834 0.55527 0.21462 0.0
C2923 C 0.1526 0.57649 0.18521 0.0
C2924 C 0.18154 0.56871 0.13543 0.0
H2925 H 0.19098 0.62948 0.05113 0.0
H2926 H 0.17936 0.61655 0.08771 0.0
H2927 H 0.19953 0.57204 0.10793 0.0
H2928 H 0.15721 0.53354 0.20126 0.0
H2929 H 0.1676 0.54355 0.16093 0.0
H2930 H 0.14719 0.58709 0.13448 0.0
C2931 C 0.18558 0.60982 0.07364 0.0
C2932 C 0.18802 0.57524 0.11335 0.0
C2933 C 0.19224 0.61723 0.05264 0.0
C2934 C 0.15596 0.54559 0.19719 0.0
C2935 C 0.1619 0.55131 0.17407 0.0
C2936 C 0.15864 0.58374 0.12893 0.0
C2937 C 0.18713 0.59397 0.07669 0.0
C2938 C 0.17995 0.58625 0.09908 0.0
C2939 C 0.16031 0.56683 0.16787 0.0
C2940 C 0.16686 0.57305 0.14363 0.0
H2941 H 0.20857 0.58645 0.02326 0.0
H2942 H 0.19695 0.57346 0.06018 0.0
H2943 H 0.1585 0.5985 0.09599 0.0
H2944 H 0.14108 0.57858 0.22147 0.0
H2945 H 0.15141 0.58856 0.18117 0.0
C2946 C 0.14935 0.43631 0.78462 0.0
C2947 C 0.14879 0.45221 0.78147 0.0
C2948 C 0.1557 0.42995 0.80691 0.0
C2949 C 0.18135 0.43919 0.8617 0.0
H2950 H 0.16348 0.40275 0.89157 0.0
C2951 C 0.18542 0.40019 0.96032 0.0
C2952 C 0.20134 0.39979 0.96351 0.0
C2953 C 0.17899 0.40672 0.93825 0.0
C2954 C 0.16853 0.41302 0.88365 0.0
H2955 H 0.15402 0.47393 0.79937 0.0
H2956 H 0.16481 0.46288 0.8386 0.0
H2957 H 0.15189 0.41417 0.85348 0.0
H2958 H 0.22304 0.40571 0.94605 0.0
H2959 H 0.21186 0.41683 0.90715 0.0
H2960 H 0.19766 0.43835 0.89242 0.0
C2961 C 0.16074 0.45529 0.82358 0.0
C2962 C 0.162 0.41944 0.86156 0.0
C2963 C 0.15452 0.46164 0.80117 0.0
C2964 C 0.21072 0.40604 0.94419 0.0
C2965 C 0.2043 0.41244 0.92197 0.0
C2966 C 0.1878 0.43283 0.88391 0.0
C2967 C 0.16148 0.43936 0.82666 0.0
C2968 C 0.16835 0.43259 0.85029 0.0
C2969 C 0.18835 0.41286 0.91874 0.0
C2970 C 0.18148 0.41965 0.89513 0.0
H2971 H 0.1452 0.42879 0.76957 0.0
H2972 H 0.15632 0.41764 0.80843 0.0
H2973 H 0.18666 0.4492 0.85333 0.0
H2974 H 0.17793 0.39568 0.97511 0.0
H2975 H 0.16666 0.40712 0.93665 0.0
C2976 C 0.24324 0.19773 0.0111 0.0
C2977 C 0.24929 0.19013 0.03277 0.0
C2978 C 0.24414 0.21363 0.00907 0.0
C2979 C 0.26464 0.24743 0.03494 0.0
H2980 H 0.22878 0.26948 0.01167 0.0
C2981 C 0.25721 0.31227 0.05027 0.0
C2982 C 0.25001 0.32087 0.03078 0.0
C2983 C 0.25807 0.29638 0.04851 0.0
C2984 C 0.23899 0.26351 0.01783 0.0
H2985 H 0.26138 0.19331 0.06898 0.0
H2986 H 0.26274 0.22102 0.06566 0.0
H2987 H 0.22851 0.24168 0.01235 0.0
H2988 H 0.23827 0.31942 0.99391 0.0
H2989 H 0.24001 0.29167 0.99063 0.0
H2990 H 0.27505 0.26928 0.04073 0.0
C2991 C 0.2574 0.21469 0.0501 0.0
C2992 C 0.23883 0.24755 0.01823 0.0
C2993 C 0.25647 0.1988 0.05215 0.0
C2994 C 0.24401 0.31318 0.00917 0.0
C2995 C 0.24484 0.29725 0.00744 0.0
C2996 C 0.2648 0.2634 0.03454 0.0
C2997 C 0.25115 0.22233 0.02862 0.0
C2998 C 0.2516 0.2393 0.02702 0.0
C2999 C 0.25175 0.28864 0.02722 0.0
C3000 C 0.25192 0.27164 0.02621 0.0
H3001 H 0.23747 0.19145 0.99594 0.0
H3002 H 0.23934 0.21912 0.99214 0.0
H3003 H 0.27478 0.24146 0.0414 0.0
H3004 H 0.26209 0.31784 0.06705 0.0
H3005 H 0.26334 0.29013 0.06423 0.0
C3006 C 0.94884 0.99581 0.26643 0.0
C3007 C 0.9407 1.00169 0.28767 0.0
C3008 C 0.9648 0.99676 0.2655 0.0
C3009 C 0.99826 1.00097 0.30848 0.0
H3010 H 0.02015 0.00917 0.24477 0.0
C3011 C 0.0636 0.00875 0.30745 0.0
C3012 C 0.07176 1.00161 0.28739 0.0
C3013 C 0.04767 0.00973 0.30658 0.0
C3014 C 0.01422 0.00673 0.26267 0.0
H3015 H 0.94298 0.01378 0.32406 0.0
H3016 H 0.97075 0.0155 0.32242 0.0
H3017 H 0.99225 0.00918 0.24483 0.0
H3018 H 0.06949 0.99007 0.25047 0.0
H3019 H 0.04169 0.99177 0.24897 0.0
H3020 H 0.02015 0.99838 0.32632 0.0
C3021 C 0.96483 0.00986 0.3067 0.0
C3022 C 0.99821 0.00674 0.26271 0.0
C3023 C 0.9489 0.0089 0.30763 0.0
C3024 C 0.0636 0.99582 0.2661 0.0
C3025 C 0.04764 0.99679 0.26525 0.0
C3026 C 0.01423 1.00096 0.30845 0.0
C3027 C 0.97301 1.00363 0.2858 0.0
C3028 C 0.99004 1.00387 0.28563 0.0
C3029 C 0.03946 1.00358 0.28565 0.0
C3030 C 0.02243 1.00384 0.28556 0.0
H3031 H 0.94292 0.98999 0.25089 0.0
H3032 H 0.97072 0.99168 0.24926 0.0
H3033 H 0.99236 0.99841 0.32638 0.0
H3034 H 0.06954 0.01355 0.32393 0.0
H3035 H 0.04178 0.01532 0.32238 0.0
C3036 C 0.25824 0.69804 0.52277 0.0
C3037 C 0.26058 0.69051 0.5464 0.0
C3038 C 0.25742 0.71399 0.52182 0.0
C3039 C 0.26721 0.74846 0.56122 0.0
H3040 H 0.24292 0.76946 0.50957 0.0
C3041 C 0.25643 0.81336 0.56394 0.0
C3042 C 0.26048 0.82137 0.54132 0.0
C3043 C 0.25555 0.79743 0.56398 0.0
C3044 C 0.24978 0.76371 0.52402 0.0
H3045 H 0.26322 0.69359 0.58769 0.0
H3046 H 0.26101 0.72128 0.58639 0.0
H3047 H 0.24262 0.7416 0.51134 0.0
H3048 H 0.26632 0.81863 0.50072 0.0
H3049 H 0.26415 0.79084 0.50071 0.0
H3050 H 0.27393 0.77066 0.57433 0.0
C3051 C 0.26045 0.71506 0.56833 0.0
C3052 C 0.24971 0.74773 0.525 0.0
C3053 C 0.26158 0.69916 0.56918 0.0
C3054 C 0.26298 0.81297 0.51845 0.0
C3055 C 0.26182 0.79702 0.51842 0.0
C3056 C 0.26703 0.76439 0.56054 0.0
C3057 C 0.25865 0.72277 0.54459 0.0
C3058 C 0.25846 0.73984 0.54361 0.0
C3059 C 0.25839 0.7891 0.54131 0.0
C3060 C 0.25836 0.77218 0.54192 0.0
H3061 H 0.25757 0.69161 0.50491 0.0
H3062 H 0.25626 0.71941 0.50311 0.0
H3063 H 0.27443 0.74293 0.57539 0.0
H3064 H 0.25402 0.81936 0.58178 0.0
H3065 H 0.25268 0.7916 0.58182 0.0
C3066 C 0.44854 0.01701 0.76437 0.0
C3067 C 0.44067 0.01124 0.78599 0.0
C3068 C 0.46449 0.01625 0.76308 0.0
C3069 C 0.49825 0.99675 0.79131 0.0
H3070 H 0.51998 0.03269 0.76768 0.0
C3071 C 0.56316 1.00501 0.80712 0.0
C3072 C 0.57167 0.01213 0.78744 0.0
C3073 C 0.54724 1.00403 0.80548 0.0
C3074 C 0.51411 0.02246 0.77397 0.0
H3075 H 0.44343 0.99971 0.82282 0.0
H3076 H 0.47123 0.99858 0.82073 0.0
H3077 H 0.49216 0.03247 0.7673 0.0
H3078 H 0.57 0.02372 0.75045 0.0
H3079 H 0.54229 0.02172 0.74733 0.0
H3080 H 0.52022 0.9868 0.7982 0.0
C3081 C 0.46507 1.00361 0.80468 0.0
C3082 C 0.49814 0.02234 0.77376 0.0
C3083 C 0.44913 1.0044 0.80601 0.0
C3084 C 0.56385 0.01801 0.76584 0.0
C3085 C 0.54793 0.01704 0.76421 0.0
C3086 C 0.51424 0.99687 0.7915 0.0
C3087 C 0.47297 0.00967 0.78332 0.0
C3088 C 0.48999 0.00952 0.78258 0.0
C3089 C 0.53939 0.01016 0.78412 0.0
C3090 C 0.52238 0.00977 0.78299 0.0
H3091 H 0.44242 0.0225 0.74873 0.0
H3092 H 0.47019 0.02088 0.74621 0.0
H3093 H 0.49235 0.9866 0.79788 0.0
H3094 H 0.5688 1.00022 0.82391 0.0
H3095 H 0.54105 0.99879 0.82129 0.0
C3096 C 0.25644 0.81302 0.93631 0.0
C3097 C 0.25211 0.8215 0.95824 0.0
C3098 C 0.25766 0.79712 0.93742 0.0
C3099 C 0.24562 0.76375 0.9775 0.0
H3100 H 0.27395 0.74215 0.93294 0.0
C3101 C 0.25462 0.69814 0.98147 0.0
C3102 C 0.25251 0.69082 0.95756 0.0
C3103 C 0.25588 0.71405 0.98271 0.0
C3104 C 0.266 0.74806 0.94549 0.0
H3105 H 0.24595 0.8196 -0.00117 0.0
H3106 H 0.24899 0.79213 0.00115 0.0
H3107 H 0.27407 0.76998 0.93363 0.0
H3108 H 0.25062 0.69424 0.91619 0.0
H3109 H 0.25326 0.72204 0.91829 0.0
H3110 H 0.23786 0.74167 0.98969 0.0
C3111 C 0.25097 0.79771 0.98277 0.0
C3112 C 0.26596 0.76403 0.94578 0.0
C3113 C 0.24949 0.8136 0.98154 0.0
C3114 C 0.2522 0.69963 0.93486 0.0
C3115 C 0.25377 0.71549 0.93605 0.0
C3116 C 0.24588 0.74778 0.97754 0.0
C3117 C 0.25487 0.78919 0.96064 0.0
C3118 C 0.2556 0.77213 0.96151 0.0
C3119 C 0.25539 0.72288 0.96002 0.0
C3120 C 0.25592 0.73979 0.96128 0.0
H3121 H 0.25884 0.81863 0.91809 0.0
H3122 H 0.26048 0.79106 0.91981 0.0
H3123 H 0.23727 0.76946 0.98951 0.0
H3124 H 0.2548 0.69159 -0.00076 0.0
H3125 H 0.25717 0.71948 0.00142 0.0
C3126 C 0.56421 0.0065 0.18903 0.0
C3127 C 0.57232 0.99912 0.2089 0.0
C3128 C 0.54828 0.00757 0.18992 0.0
C3129 C 0.51487 1.00464 0.23381 0.0
H3130 H 0.49284 0.9968 0.17012 0.0
C3131 C 0.44932 0.99478 0.2303 0.0
C3132 C 0.44126 1.0007 0.209 0.0
C3133 C 0.46529 0.9955 0.23118 0.0
C3134 C 0.49879 0.99924 0.18802 0.0
H3135 H 0.56996 0.98721 0.24548 0.0
H3136 H 0.54217 0.98911 0.24705 0.0
H3137 H 0.52062 0.99645 0.17008 0.0
H3138 H 0.44369 0.01264 0.17248 0.0
H3139 H 0.47147 0.014 0.1741 0.0
H3140 H 0.49297 0.00734 0.25176 0.0
C3141 C 0.54816 0.99423 0.2309 0.0
C3142 C 0.51475 0.99903 0.18799 0.0
C3143 C 0.56411 0.99315 0.23001 0.0
C3144 C 0.44954 0.00774 0.18897 0.0
C3145 C 0.46549 0.00849 0.18987 0.0
C3146 C 0.49887 1.00487 0.23384 0.0
C3147 C 0.54003 1.00129 0.21071 0.0
C3148 C 0.52301 1.00173 0.21087 0.0
C3149 C 0.47359 1.00219 0.21081 0.0
C3150 C 0.49062 1.00218 0.21092 0.0
H3151 H 0.57017 0.01145 0.1727 0.0
H3152 H 0.54242 0.01335 0.17428 0.0
H3153 H 0.52087 0.00694 0.25172 0.0
H3154 H 0.44332 0.9891 0.24589 0.0
H3155 H 0.47115 0.99038 0.24746 0.0
C3156 C 0.25613 0.19805 0.43159 0.0
C3157 C 0.25978 0.18975 0.45409 0.0
C3158 C 0.255 0.21396 0.43215 0.0
C3159 C 0.26605 0.24766 0.47236 0.0
H3160 H 0.23935 0.26903 0.42469 0.0
C3161 C 0.25648 0.31321 0.47473 0.0
C3162 C 0.25943 0.32055 0.45108 0.0
C3163 C 0.25539 0.29728 0.47591 0.0
C3164 C 0.24686 0.26319 0.43809 0.0
H3165 H 0.26477 0.19201 0.49508 0.0
H3166 H 0.26185 0.21951 0.49637 0.0
H3167 H 0.23908 0.24121 0.42597 0.0
H3168 H 0.26305 0.31711 0.41004 0.0
H3169 H 0.26068 0.28926 0.41198 0.0
H3170 H 0.27345 0.2698 0.48485 0.0
C3171 C 0.26037 0.21377 0.478 0.0
C3172 C 0.24681 0.24722 0.43874 0.0
C3173 C 0.26177 0.19786 0.47736 0.0
C3174 C 0.26081 0.31172 0.42852 0.0
C3175 C 0.25939 0.29582 0.42961 0.0
C3176 C 0.26585 0.26362 0.47204 0.0
C3177 C 0.25719 0.2221 0.45533 0.0
C3178 C 0.25656 0.23918 0.45565 0.0
C3179 C 0.25689 0.28844 0.45337 0.0
C3180 C 0.2564 0.27153 0.45469 0.0
H3181 H 0.25421 0.19228 0.41336 0.0
H3182 H 0.25274 0.21985 0.41415 0.0
H3183 H 0.27395 0.24201 0.4853 0.0
H3184 H 0.25547 0.31976 0.49241 0.0
H3185 H 0.2534 0.29186 0.49444 0.0
C3186 C 0.06292 1.00342 0.68988 0.0
C3187 C 0.07149 0.01033 0.70969 0.0
C3188 C 0.04699 1.00268 0.69139 0.0
C3189 C 0.01408 0.02153 0.72273 0.0
H3190 H 0.99182 0.98611 0.69822 0.0
C3191 C 0.94838 0.0171 0.73144 0.0
C3192 C 0.94049 0.01144 0.70974 0.0
C3193 C 0.96431 0.01613 0.73287 0.0
C3194 C 0.99786 0.99614 0.70495 0.0
H3195 H 0.06992 0.02176 0.74682 0.0
H3196 H 0.04216 0.02018 0.74972 0.0
H3197 H 0.01969 0.98584 0.69829 0.0
H3198 H 0.94323 0.99995 0.67288 0.0
H3199 H 0.971 0.99848 0.6752 0.0
H3200 H 0.99227 0.03189 0.72916 0.0
C3201 C 0.04777 0.01549 0.73283 0.0
C3202 C 0.01384 0.99599 0.70499 0.0
C3203 C 0.06372 0.01622 0.73132 0.0
C3204 C 0.94894 1.00455 0.68975 0.0
C3205 C 0.96486 1.00356 0.69122 0.0
C3206 C 0.9981 0.02168 0.72271 0.0
C3207 C 0.03919 0.00884 0.71277 0.0
C3208 C 0.02217 0.00872 0.71372 0.0
C3209 C 0.97277 0.00946 0.71269 0.0
C3210 C 0.98978 0.00903 0.71365 0.0
H3211 H 0.06854 0.99863 0.67306 0.0
H3212 H 0.04076 0.9976 0.67547 0.0
H3213 H 0.02009 0.03163 0.7292 0.0
H3214 H 0.94227 0.02262 0.74706 0.0
H3215 H 0.97001 0.02065 0.74982 0.0
C3216 C 0.75529 0.81274 0.9409 0.0
C3217 C 0.76279 0.82087 0.96061 0.0
C3218 C 0.75435 0.79683 0.94173 0.0
C3219 C 0.75792 0.7633 0.98507 0.0
H3220 H 0.7659 0.74179 0.92094 0.0
C3221 C 0.76809 0.69786 0.98026 0.0
C3222 C 0.76222 0.68996 0.95876 0.0
C3223 C 0.76733 0.71381 0.98147 0.0
C3224 C 0.76342 0.74758 0.93896 0.0
H3225 H 0.77495 0.81857 0.99696 0.0
H3226 H 0.77326 0.79077 -0.00153 0.0
H3227 H 0.76595 0.76953 0.9214 0.0
H3228 H 0.75034 0.69262 0.92223 0.0
H3229 H 0.74889 0.72035 0.92443 0.0
H3230 H 0.75545 0.74128 0.00263 0.0
C3231 C 0.76798 0.79675 0.98245 0.0
C3232 C 0.76346 0.76353 0.93922 0.0
C3233 C 0.76894 0.8127 0.9816 0.0
C3234 C 0.75521 0.69836 0.93886 0.0
C3235 C 0.75441 0.71427 0.9401 0.0
C3236 C 0.75785 0.74731 0.98481 0.0
C3237 C 0.76088 0.78861 0.96232 0.0
C3238 C 0.76069 0.7716 0.96225 0.0
C3239 C 0.76065 0.72223 0.96124 0.0
C3240 C 0.76058 0.73925 0.96172 0.0
H3241 H 0.75018 0.81868 0.92469 0.0
H3242 H 0.74852 0.79095 0.92617 0.0
H3243 H 0.75559 0.76916 0.00309 0.0
H3244 H 0.77373 0.69176 0.99577 0.0
H3245 H 0.77241 0.71955 0.99791 0.0
C3246 C 0.7569 0.19771 0.43838 0.0
C3247 C 0.74989 0.18955 0.45857 0.0
C3248 C 0.75788 0.21363 0.43924 0.0
C3249 C 0.75519 0.24698 0.48337 0.0
H3250 H 0.74689 0.26898 0.41983 0.0
C3251 C 0.74495 0.31244 0.47985 0.0
C3252 C 0.75096 0.3205 0.45861 0.0
C3253 C 0.74569 0.29648 0.48074 0.0
C3254 C 0.74944 0.26304 0.43768 0.0
H3255 H 0.73851 0.19179 0.49565 0.0
H3256 H 0.74019 0.21957 0.49713 0.0
H3257 H 0.74661 0.24123 0.41977 0.0
H3258 H 0.76305 0.31808 0.42222 0.0
H3259 H 0.76437 0.29032 0.42381 0.0
H3260 H 0.75787 0.26888 0.50129 0.0
C3261 C 0.74512 0.21364 0.48077 0.0
C3262 C 0.74928 0.24709 0.43765 0.0
C3263 C 0.74417 0.19769 0.47993 0.0
C3264 C 0.75807 0.31223 0.43865 0.0
C3265 C 0.75881 0.2963 0.43954 0.0
C3266 C 0.75533 0.26296 0.48341 0.0
C3267 C 0.75184 0.22182 0.46029 0.0
C3268 C 0.75217 0.23884 0.46047 0.0
C3269 C 0.75245 0.2882 0.46042 0.0
C3270 C 0.75247 0.27119 0.46054 0.0
H3271 H 0.76164 0.19178 0.42185 0.0
H3272 H 0.7634 0.21952 0.42337 0.0
H3273 H 0.75764 0.241 0.50123 0.0
H3274 H 0.73922 0.31841 0.4954 0.0
H3275 H 0.74054 0.29061 0.49698 0.0
C3276 C 0.76861 0.19932 0.01622 0.0
C3277 C 0.76229 0.19116 0.03706 0.0
C3278 C 0.76768 0.21528 0.01533 0.0
C3279 C 0.76249 0.2486 0.05833 0.0
H3280 H 0.75548 0.27067 0.99441 0.0
C3281 C 0.75392 0.31376 0.05764 0.0
C3282 C 0.76138 0.32212 0.03815 0.0
C3283 C 0.75319 0.29784 0.05651 0.0
C3284 C 0.75759 0.26468 0.01238 0.0
H3285 H 0.74942 0.19336 0.07272 0.0
H3286 H 0.74775 0.22109 0.07114 0.0
H3287 H 0.75569 0.24279 0.99415 0.0
H3288 H 0.77378 0.3202 0.00197 0.0
H3289 H 0.77251 0.29241 -1e-05 0.0
H3290 H 0.76451 0.27041 0.07657 0.0
C3291 C 0.75372 0.21522 0.05573 0.0
C3292 C 0.75771 0.24869 0.01224 0.0
C3293 C 0.75466 0.1993 0.05662 0.0
C3294 C 0.76777 0.31415 0.01715 0.0
C3295 C 0.76705 0.2982 0.01602 0.0
C3296 C 0.76238 0.26455 0.05848 0.0
C3297 C 0.76039 0.22344 0.03527 0.0
C3298 C 0.76014 0.24045 0.03523 0.0
C3299 C 0.75992 0.28983 0.03587 0.0
C3300 C 0.7599 0.27281 0.03553 0.0
H3301 H 0.77473 0.19344 0.00099 0.0
H3302 H 0.77309 0.22124 -0.00057 0.0
H3303 H 0.76472 0.24265 0.07631 0.0
H3304 H 0.74866 0.31955 0.07388 0.0
H3305 H 0.74734 0.2918 0.07187 0.0
C3306 C 0.74768 0.81468 0.51831 0.0
C3307 C 0.75106 0.82293 0.54102 0.0
C3308 C 0.74893 0.79875 0.51778 0.0
C3309 C 0.74575 0.76568 0.55952 0.0
H3310 H 0.76828 0.74365 0.50688 0.0
C3311 C 0.75157 0.70038 0.56514 0.0
C3312 C 0.75157 0.69205 0.54197 0.0
C3313 C 0.75281 0.71629 0.56479 0.0
C3314 C 0.76172 0.74956 0.52153 0.0
H3315 H 0.7591 0.82064 0.58062 0.0
H3316 H 0.76059 0.79289 0.57986 0.0
H3317 H 0.76769 0.77152 0.50603 0.0
H3318 H 0.75296 0.69369 0.50029 0.0
H3319 H 0.75444 0.7215 0.49942 0.0
H3320 H 0.73913 0.74399 0.5745 0.0
C3321 C 0.75697 0.79885 0.56254 0.0
C3322 C 0.76148 0.76555 0.52107 0.0
C3323 C 0.75601 0.81476 0.56296 0.0
C3324 C 0.75308 0.69988 0.51843 0.0
C3325 C 0.754 0.71584 0.51801 0.0
C3326 C 0.74573 0.74974 0.55972 0.0
C3327 C 0.75333 0.79067 0.54003 0.0
C3328 C 0.75357 0.77375 0.54017 0.0
C3329 C 0.7537 0.72431 0.54119 0.0
C3330 C 0.7538 0.7414 0.54084 0.0
H3331 H 0.74361 0.82044 0.50112 0.0
H3332 H 0.74594 0.79269 0.50022 0.0
H3333 H 0.73937 0.77173 0.57427 0.0
H3334 H 0.75055 0.69457 0.58356 0.0
H3335 H 0.75298 0.72226 0.58311 0.0
C3336 C 0.565 0.49892 0.76456 0.0
C3337 C 0.57327 0.50173 0.78744 0.0
C3338 C 0.54909 0.50055 0.76395 0.0
C3339 C 0.51611 0.51642 0.80187 0.0
H3340 H 0.49265 0.48831 0.75972 0.0
C3341 C 0.45156 0.50395 0.81581 0.0
C3342 C 0.44242 0.50431 0.79347 0.0
C3343 C 0.46745 0.50515 0.81395 0.0
C3344 C 0.49907 0.49633 0.77139 0.0
H3345 H 0.57103 0.50898 0.82744 0.0
H3346 H 0.54346 0.51089 0.82681 0.0
H3347 H 0.52046 0.48728 0.75872 0.0
H3348 H 0.44269 0.50626 0.75171 0.0
H3349 H 0.47061 0.50797 0.74838 0.0
H3350 H 0.49454 0.52487 0.81543 0.0
C3351 C 0.54923 0.50779 0.80905 0.0
C3352 C 0.51505 0.49582 0.77075 0.0
C3353 C 0.56513 0.50641 0.80955 0.0
C3354 C 0.44948 0.50606 0.76923 0.0
C3355 C 0.46541 0.50694 0.76732 0.0
C3356 C 0.50014 0.51671 0.80286 0.0
C3357 C 0.54092 0.50483 0.78628 0.0
C3358 C 0.52384 0.50581 0.7861 0.0
C3359 C 0.47455 0.50642 0.78966 0.0
C3360 C 0.49147 0.50663 0.78771 0.0
H3361 H 0.57073 0.49511 0.74717 0.0
H3362 H 0.54322 0.49842 0.74588 0.0
H3363 H 0.52236 0.52456 0.81353 0.0
H3364 H 0.44638 0.50262 0.83472 0.0
H3365 H 0.47424 0.50463 0.83146 0.0
C3366 C 0.06444 0.51505 0.27018 0.0
C3367 C 0.0724 0.50944 0.29183 0.0
C3368 C 0.04845 0.51465 0.26938 0.0
C3369 C 0.0148 0.51243 0.31262 0.0
H3370 H 0.99277 0.5035 0.24935 0.0
C3371 C 0.94923 0.50573 0.3114 0.0
C3372 C 0.94124 0.51253 0.29079 0.0
C3373 C 0.96517 0.50464 0.3109 0.0
C3374 C 0.99875 0.50616 0.26712 0.0
H3375 H 0.06975 0.49844 0.32914 0.0
H3376 H 0.04194 0.49767 0.32769 0.0
H3377 H 0.02065 0.50277 0.24952 0.0
H3378 H 0.94387 0.52347 0.2534 0.0
H3379 H 0.97166 0.52153 0.25251 0.0
H3380 H 0.99296 0.5159 0.33022 0.0
C3381 C 0.04802 0.50268 0.31154 0.0
C3382 C 0.01475 0.50574 0.26722 0.0
C3383 C 0.06398 0.50309 0.31236 0.0
C3384 C 0.94961 0.51796 0.26944 0.0
C3385 C 0.96556 0.51687 0.26894 0.0
C3386 C 0.99884 0.51284 0.31253 0.0
C3387 C 0.04003 0.50862 0.29019 0.0
C3388 C 0.02298 0.50887 0.28999 0.0
C3389 C 0.97356 0.51031 0.28978 0.0
C3390 C 0.99059 0.50971 0.28979 0.0
H3391 H 0.07053 0.52022 0.25419 0.0
H3392 H 0.04269 0.5195 0.25276 0.0
H3393 H 0.02075 0.51521 0.33038 0.0
H3394 H 0.94315 0.5012 0.32795 0.0
H3395 H 0.97092 0.49927 0.32707 0.0
C3396 C 0.06362 0.50741 0.68895 0.0
C3397 C 0.072 0.50021 0.7087 0.0
C3398 C 0.04767 0.50795 0.6899 0.0
C3399 C 0.01445 0.50345 0.734 0.0
H3400 H 0.99245 0.49611 0.6701 0.0
C3401 C 0.94922 0.49167 0.73046 0.0
C3402 C 0.94089 0.49806 0.70986 0.0
C3403 C 0.96518 0.49272 0.73113 0.0
C3404 C 0.99839 0.49838 0.68807 0.0
H3405 H 0.07008 0.48801 0.74507 0.0
H3406 H 0.04225 0.48891 0.74669 0.0
H3407 H 0.02024 0.49654 0.66984 0.0
H3408 H 0.94284 0.5111 0.67434 0.0
H3409 H 0.97061 0.51292 0.67551 0.0
H3410 H 0.99252 0.50514 0.75224 0.0
C3411 C 0.04804 0.49434 0.73063 0.0
C3412 C 0.01436 0.49863 0.68792 0.0
C3413 C 0.06402 0.49383 0.7297 0.0
C3414 C 0.9489 0.50581 0.69026 0.0
C3415 C 0.96483 0.50685 0.69092 0.0
C3416 C 0.99845 0.50317 0.73416 0.0
C3417 C 0.03965 0.50127 0.71059 0.0
C3418 C 0.02261 0.50118 0.71087 0.0
C3419 C 0.9732 0.50017 0.71121 0.0
C3420 C 0.99022 0.50065 0.71117 0.0
H3421 H 0.06942 0.51265 0.67271 0.0
H3422 H 0.04161 0.51364 0.67438 0.0
H3423 H 0.02041 0.50563 0.75198 0.0
H3424 H 0.94347 0.48543 0.74569 0.0
H3425 H 0.97126 0.48729 0.74689 0.0
C3426 C 0.44911 0.50879 0.17751 0.0
C3427 C 0.44063 0.50803 0.20051 0.0
C3428 C 0.46504 0.50766 0.17801 0.0
C3429 C 0.4981 0.4973 0.22081 0.0
H3430 H 0.52068 0.52086 0.17009 0.0
C3431 C 0.5636 0.51 0.22504 0.0
C3432 C 0.57175 0.50728 0.20197 0.0
C3433 C 0.54763 0.50901 0.22557 0.0
C3434 C 0.51451 0.51415 0.18427 0.0
H3435 H 0.44208 0.50544 0.24206 0.0
H3436 H 0.46993 0.50412 0.24322 0.0
H3437 H 0.49291 0.52149 0.16981 0.0
H3438 H 0.56924 0.50064 0.16168 0.0
H3439 H 0.54145 0.49959 0.1625 0.0
H3440 H 0.51998 0.49056 0.2358 0.0
C3441 C 0.46435 0.5051 0.22461 0.0
C3442 C 0.49855 0.51439 0.18404 0.0
C3443 C 0.44837 0.50592 0.22403 0.0
C3444 C 0.56345 0.50321 0.17965 0.0
C3445 C 0.5475 0.50251 0.18011 0.0
C3446 C 0.51411 0.4973 0.22132 0.0
C3447 C 0.47296 0.50609 0.2016 0.0
C3448 C 0.49006 0.50587 0.20216 0.0
C3449 C 0.53942 0.50554 0.20298 0.0
C3450 C 0.52246 0.50563 0.20291 0.0
H3451 H 0.44339 0.51025 0.15909 0.0
H3452 H 0.47111 0.50804 0.15978 0.0
H3453 H 0.49208 0.4904 0.23485 0.0
H3454 H 0.56948 0.51338 0.24255 0.0
H3455 H 0.54165 0.5115 0.24343 0.0
loop_
_geom_bond_atom_site_label_1
_geom_bond_atom_site_label_2
_geom_bond_distance
_geom_bond_site_symmetry_2
_ccdc_geom_bond_type
Co0 N4 2.148 . S
Co0 N10 2.128 . S
Co0 N20 2.194 . S
Co0 O25 2.351 . S
Co0 O26 2.155 . S
Co0 O27 2.096 . S
C1 N4 1.301 . S
C1 N5 1.328 . S
C1 H6 0.930 . S
C2 C3 1.333 . S
C2 N4 1.317 . S
C2 H7 0.930 . S
C3 C2 1.333 . S
C3 N5 1.350 . S
C3 H29 0.931 . S
N4 Co0 2.148 . S
N4 C1 1.301 . S
N4 C2 1.317 . S
N5 C1 1.328 . S
N5 C3 1.350 . S
H6 C1 0.930 . S
H7 C2 0.930 . S
C8 O9 1.224 . S
C8 O27 1.247 . S
O9 C8 1.224 . S
N10 Co0 2.128 . S
N10 C11 1.355 . S
N10 C13 1.311 . S
C11 N10 1.355 . S
C11 C12 1.363 . S
C11 H23 0.929 . S
C12 C11 1.363 . S
C12 N14 1.375 1_554 S
C12 H30 0.931 1_554 S
C13 N10 1.311 . S
C13 N14 1.347 1_554 S
C13 H24 0.929 . S
N14 C12 1.375 1_556 S
N14 C13 1.347 1_556 S
C15 C18 1.365 . S
C15 N20 1.328 . S
C15 H21 0.929 . S
C16 C17 1.362 . S
C16 C19 1.378 . S
C16 H31 0.929 . S
C17 C16 1.362 . S
C17 C18 1.366 . S
C18 C15 1.365 . S
C18 C17 1.366 . S
C18 H32 0.930 . S
C19 C16 1.378 . S
C19 N20 1.315 . S
C19 H22 0.930 . S
N20 Co0 2.194 . S
N20 C15 1.328 . S
N20 C19 1.315 . S
H21 C15 0.929 . S
H22 C19 0.930 . S
H23 C11 0.929 . S
H24 C13 0.929 . S
O25 Co0 2.351 . S
O25 C28 1.244 . S
O26 Co0 2.155 . S
O26 C28 1.240 . S
O27 Co0 2.096 . S
O27 C8 1.247 . S
C28 O25 1.244 . S
C28 O26 1.240 . S
H29 C3 0.931 . S
H30 C12 0.931 1_556 S
H31 C16 0.929 . S
H32 C18 0.930 . S
Co33 N37 2.148 . S
Co33 N43 2.128 . S
Co33 N53 2.194 . S
Co33 O58 2.351 . S
Co33 O59 2.155 . S
Co33 O60 2.096 . S
C34 N37 1.301 . S
C34 N38 1.328 . S
C34 H39 0.930 . S
C35 C36 1.333 . S
C35 N37 1.317 . S
C35 H40 0.930 . S
C36 C35 1.333 . S
C36 N38 1.350 . S
C36 H62 0.872 1_565 S
N37 Co33 2.148 . S
N37 C34 1.301 . S
N37 C35 1.317 . S
N38 C34 1.328 . S
N38 C36 1.350 . S
H39 C34 0.930 . S
H40 C35 0.930 . S
C41 O42 1.224 . S
C41 O60 1.247 . S
O42 C41 1.224 . S
N43 Co33 2.128 . S
N43 C44 1.355 . S
N43 C46 1.311 . S
C44 N43 1.355 . S
C44 C45 1.363 . S
C44 H56 0.929 . S
C45 C44 1.363 . S
C45 N47 1.375 . S
C45 H63 0.931 . S
C46 N43 1.311 . S
C46 N47 1.347 . S
C46 H57 0.929 . S
N47 C45 1.375 . S
N47 C46 1.347 . S
C48 C51 1.365 . S
C48 N53 1.328 . S
C48 H54 0.929 . S
C49 C50 1.362 . S
C49 C52 1.378 . S
C49 H64 0.929 . S
C50 C49 1.362 . S
C50 C51 1.366 . S
C51 C48 1.365 . S
C51 C50 1.366 . S
C51 H65 0.930 . S
C52 C49 1.378 . S
C52 N53 1.315 . S
C52 H55 0.930 . S
N53 Co33 2.194 . S
N53 C48 1.328 . S
N53 C52 1.315 . S
H54 C48 0.929 . S
H55 C52 0.930 . S
H56 C44 0.929 . S
H57 C46 0.929 . S
O58 Co33 2.351 . S
O58 C61 1.244 . S
O59 Co33 2.155 . S
O59 C61 1.240 . S
O60 Co33 2.096 . S
O60 C41 1.247 . S
C61 O58 1.244 . S
C61 O59 1.240 . S
H62 C36 0.872 1_545 S
H63 C45 0.931 . S
H64 C49 0.929 . S
H65 C51 0.930 . S
Co66 N70 2.148 . S
Co66 N76 2.128 . S
Co66 N86 2.194 . S
Co66 O91 2.351 . S
Co66 O92 2.155 . S
Co66 O93 2.096 . S
C67 N70 1.301 . S
C67 N71 1.328 . S
C67 H72 0.930 . S
C68 C69 1.333 . S
C68 N70 1.317 . S
C68 H73 0.930 . S
C69 C68 1.333 . S
C69 N71 1.350 . S
C69 H95 0.931 . S
N70 Co66 2.148 . S
N70 C67 1.301 . S
N70 C68 1.317 . S
N71 C67 1.328 . S
N71 C69 1.350 . S
H72 C67 0.930 . S
H73 C68 0.930 . S
C74 O75 1.224 . S
C74 O93 1.247 . S
O75 C74 1.224 . S
N76 Co66 2.128 . S
N76 C77 1.355 . S
N76 C79 1.311 . S
C77 N76 1.355 . S
C77 C78 1.363 . S
C77 H89 0.929 . S
C78 C77 1.363 . S
C78 N80 1.375 . S
C78 H96 0.931 . S
C79 N76 1.311 . S
C79 N80 1.347 . S
C79 H90 0.929 . S
N80 C78 1.375 . S
N80 C79 1.347 . S
C81 C84 1.365 . S
C81 N86 1.328 . S
C81 H87 0.929 . S
C82 C83 1.362 . S
C82 C85 1.378 . S
C82 H97 0.929 . S
C83 C82 1.362 . S
C83 C84 1.366 . S
C84 C81 1.365 . S
C84 C83 1.366 . S
C84 H98 0.930 . S
C85 C82 1.378 . S
C85 N86 1.315 . S
C85 H88 0.930 . S
N86 Co66 2.194 . S
N86 C81 1.328 . S
N86 C85 1.315 . S
H87 C81 0.929 . S
H88 C85 0.930 . S
H89 C77 0.929 . S
H90 C79 0.929 . S
O91 Co66 2.351 . S
O91 C94 1.244 . S
O92 Co66 2.155 . S
O92 C94 1.240 . S
O93 Co66 2.096 . S
O93 C74 1.247 . S
C94 O91 1.244 . S
C94 O92 1.240 . S
H95 C69 0.931 . S
H96 C78 0.931 . S
H97 C82 0.929 . S
H98 C84 0.930 . S
Co99 N103 2.148 . S
Co99 N109 2.128 . S
Co99 N119 2.194 . S
Co99 O124 2.351 . S
Co99 O125 2.155 . S
Co99 O126 2.096 . S
C100 N103 1.301 . S
C100 N104 1.328 . S
C100 H105 0.930 . S
C101 C102 1.333 . S
C101 N103 1.317 . S
C101 H106 0.930 . S
C102 C101 1.333 . S
C102 N104 1.350 . S
C102 H128 0.872 1_545 S
N103 Co99 2.148 . S
N103 C100 1.301 . S
N103 C101 1.317 . S
N104 C100 1.328 . S
N104 C102 1.350 . S
H105 C100 0.930 . S
H106 C101 0.930 . S
C107 O108 1.224 . S
C107 O126 1.247 . S
O108 C107 1.224 . S
N109 Co99 2.128 . S
N109 C110 1.355 . S
N109 C112 1.311 . S
C110 N109 1.355 . S
C110 C111 1.363 . S
C110 H122 0.929 . S
C111 C110 1.363 . S
C111 N113 1.375 . S
C111 H129 0.931 . S
C112 N109 1.311 . S
C112 N113 1.347 . S
C112 H123 0.929 . S
N113 C111 1.375 . S
N113 C112 1.347 . S
C114 C117 1.365 . S
C114 N119 1.328 . S
C114 H120 0.929 . S
C115 C116 1.362 . S
C115 C118 1.378 . S
C115 H130 0.929 . S
C116 C115 1.362 . S
C116 C117 1.366 . S
C117 C114 1.365 . S
C117 C116 1.366 . S
C117 H131 0.930 . S
C118 C115 1.378 . S
C118 N119 1.315 . S
C118 H121 0.930 . S
N119 Co99 2.194 . S
N119 C114 1.328 . S
N119 C118 1.315 . S
H120 C114 0.929 . S
H121 C118 0.930 . S
H122 C110 0.929 . S
H123 C112 0.929 . S
O124 Co99 2.351 . S
O124 C127 1.244 . S
O125 Co99 2.155 . S
O125 C127 1.240 . S
O126 Co99 2.096 . S
O126 C107 1.247 . S
C127 O124 1.244 . S
C127 O125 1.240 . S
H128 C102 0.872 1_565 S
H129 C111 0.931 . S
H130 C115 0.929 . S
H131 C117 0.930 . S
Co132 N136 2.148 . S
Co132 N142 2.128 . S
Co132 N152 2.194 . S
Co132 O157 2.351 . S
Co132 O158 2.155 . S
Co132 O159 2.096 . S
C133 N136 1.301 . S
C133 N137 1.328 . S
C133 H138 0.930 . S
C134 C135 1.333 . S
C134 N136 1.317 . S
C134 H139 0.930 . S
C135 C134 1.333 . S
C135 N137 1.350 . S
C135 H161 0.931 . S
N136 Co132 2.148 . S
N136 C133 1.301 . S
N136 C134 1.317 . S
N137 C133 1.328 . S
N137 C135 1.350 . S
H138 C133 0.930 . S
H139 C134 0.930 . S
C140 O141 1.224 . S
C140 O159 1.247 . S
O141 C140 1.224 . S
N142 Co132 2.128 . S
N142 C143 1.355 . S
N142 C145 1.311 . S
C143 N142 1.355 . S
C143 C144 1.363 . S
C143 H155 0.929 . S
C144 C143 1.363 . S
C144 N146 1.375 1_556 S
C144 H162 0.931 1_556 S
C145 N142 1.311 . S
C145 N146 1.347 1_556 S
C145 H156 0.929 . S
N146 C144 1.375 1_554 S
N146 C145 1.347 1_554 S
C147 C150 1.365 . S
C147 N152 1.328 . S
C147 H153 0.929 . S
C148 C149 1.362 . S
C148 C151 1.378 . S
C148 H163 0.929 . S
C149 C148 1.362 . S
C149 C150 1.366 . S
C150 C147 1.365 . S
C150 C149 1.366 . S
C150 H164 0.930 . S
C151 C148 1.378 . S
C151 N152 1.315 . S
C151 H154 0.930 . S
N152 Co132 2.194 . S
N152 C147 1.328 . S
N152 C151 1.315 . S
H153 C147 0.929 . S
H154 C151 0.930 . S
H155 C143 0.929 . S
H156 C145 0.929 . S
O157 Co132 2.351 . S
O157 C160 1.244 . S
O158 Co132 2.155 . S
O158 C160 1.240 . S
O159 Co132 2.096 . S
O159 C140 1.247 . S
C160 O157 1.244 . S
C160 O158 1.240 . S
H161 C135 0.931 . S
H162 C144 0.931 1_554 S
H163 C148 0.929 . S
H164 C150 0.930 . S
Co165 N169 2.148 . S
Co165 N175 2.128 . S
Co165 N185 2.194 . S
Co165 O190 2.351 . S
Co165 O191 2.155 . S
Co165 O192 2.096 . S
C166 N169 1.301 . S
C166 N170 1.328 . S
C166 H171 0.930 . S
C167 C168 1.333 . S
C167 N169 1.317 . S
C167 H172 0.930 . S
C168 C167 1.333 . S
C168 N170 1.350 . S
C168 H194 0.872 1_565 S
N169 Co165 2.148 . S
N169 C166 1.301 . S
N169 C167 1.317 . S
N170 C166 1.328 . S
N170 C168 1.350 . S
H171 C166 0.930 . S
H172 C167 0.930 . S
C173 O174 1.224 . S
C173 O192 1.247 . S
O174 C173 1.224 . S
N175 Co165 2.128 . S
N175 C176 1.355 . S
N175 C178 1.311 . S
C176 N175 1.355 . S
C176 C177 1.363 . S
C176 H188 0.929 . S
C177 C176 1.363 . S
C177 N179 1.375 . S
C177 H195 0.931 . S
C178 N175 1.311 . S
C178 N179 1.347 . S
C178 H189 0.929 . S
N179 C177 1.375 . S
N179 C178 1.347 . S
C180 C183 1.365 . S
C180 N185 1.328 . S
C180 H186 0.929 . S
C181 C182 1.362 . S
C181 C184 1.378 . S
C181 H196 0.929 . S
C182 C181 1.362 . S
C182 C183 1.366 . S
C183 C180 1.365 . S
C183 C182 1.366 . S
C183 H197 0.930 . S
C184 C181 1.378 . S
C184 N185 1.315 . S
C184 H187 0.930 . S
N185 Co165 2.194 . S
N185 C180 1.328 . S
N185 C184 1.315 . S
H186 C180 0.929 . S
H187 C184 0.930 . S
H188 C176 0.929 . S
H189 C178 0.929 . S
O190 Co165 2.351 . S
O190 C193 1.244 . S
O191 Co165 2.155 . S
O191 C193 1.240 . S
O192 Co165 2.096 . S
O192 C173 1.247 . S
C193 O190 1.244 . S
C193 O191 1.240 . S
H194 C168 0.872 1_545 S
H195 C177 0.931 . S
H196 C181 0.929 . S
H197 C183 0.930 . S
Co198 N202 2.148 . S
Co198 N208 2.128 . S
Co198 N218 2.194 . S
Co198 O223 2.351 . S
Co198 O224 2.155 . S
Co198 O225 2.096 . S
C199 N202 1.301 . S
C199 N203 1.328 . S
C199 H204 0.930 . S
C200 C201 1.333 . S
C200 N202 1.317 . S
C200 H205 0.930 . S
C201 C200 1.333 . S
C201 N203 1.350 . S
C201 H227 0.931 . S
N202 Co198 2.148 . S
N202 C199 1.301 . S
N202 C200 1.317 . S
N203 C199 1.328 . S
N203 C201 1.350 . S
H204 C199 0.930 . S
H205 C200 0.930 . S
C206 O207 1.224 . S
C206 O225 1.247 . S
O207 C206 1.224 . S
N208 Co198 2.128 . S
N208 C209 1.355 . S
N208 C211 1.311 . S
C209 N208 1.355 . S
C209 C210 1.363 . S
C209 H221 0.929 . S
C210 C209 1.363 . S
C210 N212 1.375 . S
C210 H228 0.931 . S
C211 N208 1.311 . S
C211 N212 1.347 . S
C211 H222 0.929 . S
N212 C210 1.375 . S
N212 C211 1.347 . S
C213 C216 1.365 . S
C213 N218 1.328 . S
C213 H219 0.929 . S
C214 C215 1.362 . S
C214 C217 1.378 . S
C214 H229 0.929 . S
C215 C214 1.362 . S
C215 C216 1.366 . S
C216 C213 1.365 . S
C216 C215 1.366 . S
C216 H230 0.930 . S
C217 C214 1.378 . S
C217 N218 1.315 . S
C217 H220 0.930 . S
N218 Co198 2.194 . S
N218 C213 1.328 . S
N218 C217 1.315 . S
H219 C213 0.929 . S
H220 C217 0.930 . S
H221 C209 0.929 . S
H222 C211 0.929 . S
O223 Co198 2.351 . S
O223 C226 1.244 . S
O224 Co198 2.155 . S
O224 C226 1.240 . S
O225 Co198 2.096 . S
O225 C206 1.247 . S
C226 O223 1.244 . S
C226 O224 1.240 . S
H227 C201 0.931 . S
H228 C210 0.931 . S
H229 C214 0.929 . S
H230 C216 0.930 . S
Co231 N235 2.148 . S
Co231 N241 2.128 . S
Co231 N251 2.194 . S
Co231 O256 2.351 . S
Co231 O257 2.155 . S
Co231 O258 2.096 . S
C232 N235 1.301 . S
C232 N236 1.328 . S
C232 H237 0.930 . S
C233 C234 1.333 . S
C233 N235 1.317 . S
C233 H238 0.930 . S
C234 C233 1.333 . S
C234 N236 1.350 . S
C234 H260 0.872 1_545 S
N235 Co231 2.148 . S
N235 C232 1.301 . S
N235 C233 1.317 . S
N236 C232 1.328 . S
N236 C234 1.350 . S
H237 C232 0.930 . S
H238 C233 0.930 . S
C239 O240 1.224 . S
C239 O258 1.247 . S
O240 C239 1.224 . S
N241 Co231 2.128 . S
N241 C242 1.355 . S
N241 C244 1.311 . S
C242 N241 1.355 . S
C242 C243 1.363 . S
C242 H254 0.929 . S
C243 C242 1.363 . S
C243 N245 1.375 . S
C243 H261 0.931 . S
C244 N241 1.311 . S
C244 N245 1.347 . S
C244 H255 0.929 . S
N245 C243 1.375 . S
N245 C244 1.347 . S
C246 C249 1.365 . S
C246 N251 1.328 . S
C246 H252 0.929 . S
C247 C248 1.362 . S
C247 C250 1.378 . S
C247 H262 0.929 . S
C248 C247 1.362 . S
C248 C249 1.366 . S
C249 C246 1.365 . S
C249 C248 1.366 . S
C249 H263 0.930 . S
C250 C247 1.378 . S
C250 N251 1.315 . S
C250 H253 0.930 . S
N251 Co231 2.194 . S
N251 C246 1.328 . S
N251 C250 1.315 . S
H252 C246 0.929 . S
H253 C250 0.930 . S
H254 C242 0.929 . S
H255 C244 0.929 . S
O256 Co231 2.351 . S
O256 C259 1.244 . S
O257 Co231 2.155 . S
O257 C259 1.240 . S
O258 Co231 2.096 . S
O258 C239 1.247 . S
C259 O256 1.244 . S
C259 O257 1.240 . S
H260 C234 0.872 1_565 S
H261 C243 0.931 . S
H262 C247 0.929 . S
H263 C249 0.930 . S
Co264 N268 2.148 . S
Co264 N274 2.128 . S
Co264 N284 2.194 . S
Co264 O289 2.351 . S
Co264 O290 2.155 . S
Co264 O291 2.096 . S
C265 N268 1.301 . S
C265 N269 1.328 . S
C265 H270 0.930 . S
C266 C267 1.333 . S
C266 N268 1.317 . S
C266 H271 0.930 . S
C267 C266 1.333 . S
C267 N269 1.350 . S
C267 H293 0.931 . S
N268 Co264 2.148 . S
N268 C265 1.301 . S
N268 C266 1.317 . S
N269 C265 1.328 . S
N269 C267 1.350 . S
H270 C265 0.930 . S
H271 C266 0.930 . S
C272 O273 1.224 . S
C272 O291 1.247 . S
O273 C272 1.224 . S
N274 Co264 2.128 . S
N274 C275 1.355 . S
N274 C277 1.311 . S
C275 N274 1.355 . S
C275 C276 1.363 . S
C275 H287 0.929 . S
C276 C275 1.363 . S
C276 N278 1.375 1_556 S
C276 H294 0.931 1_556 S
C277 N274 1.311 . S
C277 N278 1.347 1_556 S
C277 H288 0.929 . S
N278 C276 1.375 1_554 S
N278 C277 1.347 1_554 S
C279 C282 1.365 . S
C279 N284 1.328 . S
C279 H285 0.929 . S
C280 C281 1.362 . S
C280 C283 1.378 . S
C280 H295 0.929 . S
C281 C280 1.362 . S
C281 C282 1.366 . S
C282 C279 1.365 . S
C282 C281 1.366 . S
C282 H296 0.930 . S
C283 C280 1.378 . S
C283 N284 1.315 . S
C283 H286 0.930 . S
N284 Co264 2.194 . S
N284 C279 1.328 . S
N284 C283 1.315 . S
H285 C279 0.929 . S
H286 C283 0.930 . S
H287 C275 0.929 . S
H288 C277 0.929 . S
O289 Co264 2.351 . S
O289 C292 1.244 . S
O290 Co264 2.155 . S
O290 C292 1.240 . S
O291 Co264 2.096 . S
O291 C272 1.247 . S
C292 O289 1.244 . S
C292 O290 1.240 . S
H293 C267 0.931 . S
H294 C276 0.931 1_554 S
H295 C280 0.929 . S
H296 C282 0.930 . S
Co297 N301 2.148 . S
Co297 N307 2.128 . S
Co297 N317 2.194 . S
Co297 O322 2.351 . S
Co297 O323 2.155 . S
Co297 O324 2.096 . S
C298 N301 1.301 . S
C298 N302 1.328 . S
C298 H303 0.930 . S
C299 C300 1.333 . S
C299 N301 1.317 . S
C299 H304 0.930 . S
C300 C299 1.333 . S
C300 N302 1.350 . S
C300 H326 0.872 1_545 S
N301 Co297 2.148 . S
N301 C298 1.301 . S
N301 C299 1.317 . S
N302 C298 1.328 . S
N302 C300 1.350 . S
H303 C298 0.930 . S
H304 C299 0.930 . S
C305 O306 1.224 . S
C305 O324 1.247 . S
O306 C305 1.224 . S
N307 Co297 2.128 . S
N307 C308 1.355 . S
N307 C310 1.311 . S
C308 N307 1.355 . S
C308 C309 1.363 . S
C308 H320 0.929 . S
C309 C308 1.363 . S
C309 N311 1.375 . S
C309 H327 0.931 . S
C310 N307 1.311 . S
C310 N311 1.347 . S
C310 H321 0.929 . S
N311 C309 1.375 . S
N311 C310 1.347 . S
C312 C315 1.365 . S
C312 N317 1.328 . S
C312 H318 0.929 . S
C313 C314 1.362 . S
C313 C316 1.378 . S
C313 H328 0.929 . S
C314 C313 1.362 . S
C314 C315 1.366 . S
C315 C312 1.365 . S
C315 C314 1.366 . S
C315 H329 0.930 . S
C316 C313 1.378 . S
C316 N317 1.315 . S
C316 H319 0.930 . S
N317 Co297 2.194 . S
N317 C312 1.328 . S
N317 C316 1.315 . S
H318 C312 0.929 . S
H319 C316 0.930 . S
H320 C308 0.929 . S
H321 C310 0.929 . S
O322 Co297 2.351 . S
O322 C325 1.244 . S
O323 Co297 2.155 . S
O323 C325 1.240 . S
O324 Co297 2.096 . S
O324 C305 1.247 . S
C325 O322 1.244 . S
C325 O323 1.240 . S
H326 C300 0.872 1_565 S
H327 C309 0.931 . S
H328 C313 0.929 . S
H329 C315 0.930 . S
Co330 N334 2.148 . S
Co330 N340 2.128 . S
Co330 N350 2.194 . S
Co330 O355 2.351 . S
Co330 O356 2.155 . S
Co330 O357 2.096 . S
C331 N334 1.301 . S
C331 N335 1.328 . S
C331 H336 0.930 . S
C332 C333 1.333 . S
C332 N334 1.317 . S
C332 H337 0.930 . S
C333 C332 1.333 . S
C333 N335 1.350 . S
C333 H359 0.931 . S
N334 Co330 2.148 . S
N334 C331 1.301 . S
N334 C332 1.317 . S
N335 C331 1.328 . S
N335 C333 1.350 . S
H336 C331 0.930 . S
H337 C332 0.930 . S
C338 O339 1.224 . S
C338 O357 1.247 . S
O339 C338 1.224 . S
N340 Co330 2.128 . S
N340 C341 1.355 . S
N340 C343 1.311 . S
C341 N340 1.355 . S
C341 C342 1.363 . S
C341 H353 0.929 . S
C342 C341 1.363 . S
C342 N344 1.375 . S
C342 H360 0.931 . S
C343 N340 1.311 . S
C343 N344 1.347 . S
C343 H354 0.929 . S
N344 C342 1.375 . S
N344 C343 1.347 . S
C345 C348 1.365 . S
C345 N350 1.328 . S
C345 H351 0.929 . S
C346 C347 1.362 . S
C346 C349 1.378 . S
C346 H361 0.929 . S
C347 C346 1.362 . S
C347 C348 1.366 . S
C348 C345 1.365 . S
C348 C347 1.366 . S
C348 H362 0.930 . S
C349 C346 1.378 . S
C349 N350 1.315 . S
C349 H352 0.930 . S
N350 Co330 2.194 . S
N350 C345 1.328 . S
N350 C349 1.315 . S
H351 C345 0.929 . S
H352 C349 0.930 . S
H353 C341 0.929 . S
H354 C343 0.929 . S
O355 Co330 2.351 . S
O355 C358 1.244 . S
O356 Co330 2.155 . S
O356 C358 1.240 . S
O357 Co330 2.096 . S
O357 C338 1.247 . S
C358 O355 1.244 . S
C358 O356 1.240 . S
H359 C333 0.931 . S
H360 C342 0.931 . S
H361 C346 0.929 . S
H362 C348 0.930 . S
Co363 N367 2.148 . S
Co363 N373 2.128 . S
Co363 N383 2.194 . S
Co363 O388 2.351 . S
Co363 O389 2.155 . S
Co363 O390 2.096 . S
C364 N367 1.301 . S
C364 N368 1.328 . S
C364 H369 0.930 . S
C365 C366 1.333 . S
C365 N367 1.317 . S
C365 H370 0.930 . S
C366 C365 1.333 . S
C366 N368 1.350 . S
C366 H392 0.872 1_565 S
N367 Co363 2.148 . S
N367 C364 1.301 . S
N367 C365 1.317 . S
N368 C364 1.328 . S
N368 C366 1.350 . S
H369 C364 0.930 . S
H370 C365 0.930 . S
C371 O372 1.224 . S
C371 O390 1.247 . S
O372 C371 1.224 . S
N373 Co363 2.128 . S
N373 C374 1.355 . S
N373 C376 1.311 . S
C374 N373 1.355 . S
C374 C375 1.363 . S
C374 H386 0.929 . S
C375 C374 1.363 . S
C375 N377 1.375 . S
C375 H393 0.931 . S
C376 N373 1.311 . S
C376 N377 1.347 . S
C376 H387 0.929 . S
N377 C375 1.375 . S
N377 C376 1.347 . S
C378 C381 1.365 . S
C378 N383 1.328 . S
C378 H384 0.929 . S
C379 C380 1.362 . S
C379 C382 1.378 . S
C379 H394 0.929 . S
C380 C379 1.362 . S
C380 C381 1.366 . S
C381 C378 1.365 . S
C381 C380 1.366 . S
C381 H395 0.930 . S
C382 C379 1.378 . S
C382 N383 1.315 . S
C382 H385 0.930 . S
N383 Co363 2.194 . S
N383 C378 1.328 . S
N383 C382 1.315 . S
H384 C378 0.929 . S
H385 C382 0.930 . S
H386 C374 0.929 . S
H387 C376 0.929 . S
O388 Co363 2.351 . S
O388 C391 1.244 . S
O389 Co363 2.155 . S
O389 C391 1.240 . S
O390 Co363 2.096 . S
O390 C371 1.247 . S
C391 O388 1.244 . S
C391 O389 1.240 . S
H392 C366 0.872 1_545 S
H393 C375 0.931 . S
H394 C379 0.929 . S
H395 C381 0.930 . S
Co396 N400 2.148 . S
Co396 N406 2.128 . S
Co396 N416 2.194 . S
Co396 O421 2.351 . S
Co396 O422 2.155 . S
Co396 O423 2.096 . S
C397 N400 1.301 . S
C397 N401 1.328 . S
C397 H402 0.930 . S
C398 C399 1.333 . S
C398 N400 1.317 . S
C398 H403 0.930 . S
C399 C398 1.333 . S
C399 N401 1.350 . S
C399 H425 0.931 . S
N400 Co396 2.148 . S
N400 C397 1.301 . S
N400 C398 1.317 . S
N401 C397 1.328 . S
N401 C399 1.350 . S
H402 C397 0.930 . S
H403 C398 0.930 . S
C404 O405 1.224 . S
C404 O423 1.247 . S
O405 C404 1.224 . S
N406 Co396 2.128 . S
N406 C407 1.355 . S
N406 C409 1.311 . S
C407 N406 1.355 . S
C407 C408 1.363 . S
C407 H419 0.929 . S
C408 C407 1.363 . S
C408 N410 1.375 1_554 S
C408 H426 0.931 1_554 S
C409 N406 1.311 . S
C409 N410 1.347 1_554 S
C409 H420 0.929 . S
N410 C408 1.375 1_556 S
N410 C409 1.347 1_556 S
C411 C414 1.365 . S
C411 N416 1.328 . S
C411 H417 0.929 . S
C412 C413 1.362 . S
C412 C415 1.378 . S
C412 H427 0.929 . S
C413 C412 1.362 . S
C413 C414 1.366 . S
C414 C411 1.365 . S
C414 C413 1.366 . S
C414 H428 0.930 . S
C415 C412 1.378 . S
C415 N416 1.315 . S
C415 H418 0.930 . S
N416 Co396 2.194 . S
N416 C411 1.328 . S
N416 C415 1.315 . S
H417 C411 0.929 . S
H418 C415 0.930 . S
H419 C407 0.929 . S
H420 C409 0.929 . S
O421 Co396 2.351 . S
O421 C424 1.244 . S
O422 Co396 2.155 . S
O422 C424 1.240 . S
O423 Co396 2.096 . S
O423 C404 1.247 . S
C424 O421 1.244 . S
C424 O422 1.240 . S
H425 C399 0.931 . S
H426 C408 0.931 1_556 S
H427 C412 0.929 . S
H428 C414 0.930 . S
Co429 N433 2.148 . S
Co429 N439 2.128 . S
Co429 N449 2.194 . S
Co429 O454 2.351 . S
Co429 O455 2.155 . S
Co429 O456 2.096 . S
C430 N433 1.301 . S
C430 N434 1.328 . S
C430 H435 0.930 . S
C431 C432 1.333 . S
C431 N433 1.317 . S
C431 H436 0.930 . S
C432 C431 1.333 . S
C432 N434 1.350 . S
C432 H458 0.872 1_545 S
N433 Co429 2.148 . S
N433 C430 1.301 . S
N433 C431 1.317 . S
N434 C430 1.328 . S
N434 C432 1.350 . S
H435 C430 0.930 . S
H436 C431 0.930 . S
C437 O438 1.224 . S
C437 O456 1.247 . S
O438 C437 1.224 . S
N439 Co429 2.128 . S
N439 C440 1.355 . S
N439 C442 1.311 . S
C440 N439 1.355 . S
C440 C441 1.363 . S
C440 H452 0.929 . S
C441 C440 1.363 . S
C441 N443 1.375 . S
C441 H459 0.931 . S
C442 N439 1.311 . S
C442 N443 1.347 . S
C442 H453 0.929 . S
N443 C441 1.375 . S
N443 C442 1.347 . S
C444 C447 1.365 . S
C444 N449 1.328 . S
C444 H450 0.929 . S
C445 C446 1.362 . S
C445 C448 1.378 . S
C445 H460 0.929 . S
C446 C445 1.362 . S
C446 C447 1.366 . S
C447 C444 1.365 . S
C447 C446 1.366 . S
C447 H461 0.930 . S
C448 C445 1.378 . S
C448 N449 1.315 . S
C448 H451 0.930 . S
N449 Co429 2.194 . S
N449 C444 1.328 . S
N449 C448 1.315 . S
H450 C444 0.929 . S
H451 C448 0.930 . S
H452 C440 0.929 . S
H453 C442 0.929 . S
O454 Co429 2.351 . S
O454 C457 1.244 . S
O455 Co429 2.155 . S
O455 C457 1.240 . S
O456 Co429 2.096 . S
O456 C437 1.247 . S
C457 O454 1.244 . S
C457 O455 1.240 . S
H458 C432 0.872 1_565 S
H459 C441 0.931 . S
H460 C445 0.929 . S
H461 C447 0.930 . S
Co462 N466 2.148 . S
Co462 N472 2.128 . S
Co462 N482 2.194 . S
Co462 O487 2.351 . S
Co462 O488 2.155 . S
Co462 O489 2.096 . S
C463 N466 1.301 . S
C463 N467 1.328 . S
C463 H468 0.930 . S
C464 C465 1.333 . S
C464 N466 1.317 . S
C464 H469 0.930 . S
C465 C464 1.333 . S
C465 N467 1.350 . S
C465 H491 0.931 . S
N466 Co462 2.148 . S
N466 C463 1.301 . S
N466 C464 1.317 . S
N467 C463 1.328 . S
N467 C465 1.350 . S
H468 C463 0.930 . S
H469 C464 0.930 . S
C470 O471 1.224 . S
C470 O489 1.247 . S
O471 C470 1.224 . S
N472 Co462 2.128 . S
N472 C473 1.355 . S
N472 C475 1.311 . S
C473 N472 1.355 . S
C473 C474 1.363 . S
C473 H485 0.929 . S
C474 C473 1.363 . S
C474 N476 1.375 . S
C474 H492 0.931 . S
C475 N472 1.311 . S
C475 N476 1.347 . S
C475 H486 0.929 . S
N476 C474 1.375 . S
N476 C475 1.347 . S
C477 C480 1.365 . S
C477 N482 1.328 . S
C477 H483 0.929 . S
C478 C479 1.362 . S
C478 C481 1.378 . S
C478 H493 0.929 . S
C479 C478 1.362 . S
C479 C480 1.366 . S
C480 C477 1.365 . S
C480 C479 1.366 . S
C480 H494 0.930 . S
C481 C478 1.378 . S
C481 N482 1.315 . S
C481 H484 0.930 . S
N482 Co462 2.194 . S
N482 C477 1.328 . S
N482 C481 1.315 . S
H483 C477 0.929 . S
H484 C481 0.930 . S
H485 C473 0.929 . S
H486 C475 0.929 . S
O487 Co462 2.351 . S
O487 C490 1.244 . S
O488 Co462 2.155 . S
O488 C490 1.240 . S
O489 Co462 2.096 . S
O489 C470 1.247 . S
C490 O487 1.244 . S
C490 O488 1.240 . S
H491 C465 0.931 . S
H492 C474 0.931 . S
H493 C478 0.929 . S
H494 C480 0.930 . S
Co495 N499 2.148 . S
Co495 N505 2.128 . S
Co495 N515 2.194 . S
Co495 O520 2.351 . S
Co495 O521 2.155 . S
Co495 O522 2.096 . S
C496 N499 1.301 . S
C496 N500 1.328 . S
C496 H501 0.930 . S
C497 C498 1.333 . S
C497 N499 1.317 . S
C497 H502 0.930 . S
C498 C497 1.333 . S
C498 N500 1.350 . S
C498 H524 0.872 1_565 S
N499 Co495 2.148 . S
N499 C496 1.301 . S
N499 C497 1.317 . S
N500 C496 1.328 . S
N500 C498 1.350 . S
H501 C496 0.930 . S
H502 C497 0.930 . S
C503 O504 1.224 . S
C503 O522 1.247 . S
O504 C503 1.224 . S
N505 Co495 2.128 . S
N505 C506 1.355 . S
N505 C508 1.311 . S
C506 N505 1.355 . S
C506 C507 1.363 . S
C506 H518 0.929 . S
C507 C506 1.363 . S
C507 N509 1.375 . S
C507 H525 0.931 . S
C508 N505 1.311 . S
C508 N509 1.347 . S
C508 H519 0.929 . S
N509 C507 1.375 . S
N509 C508 1.347 . S
C510 C513 1.365 . S
C510 N515 1.328 . S
C510 H516 0.929 . S
C511 C512 1.362 . S
C511 C514 1.378 . S
C511 H526 0.929 . S
C512 C511 1.362 . S
C512 C513 1.366 . S
C513 C510 1.365 . S
C513 C512 1.366 . S
C513 H527 0.930 . S
C514 C511 1.378 . S
C514 N515 1.315 . S
C514 H517 0.930 . S
N515 Co495 2.194 . S
N515 C510 1.328 . S
N515 C514 1.315 . S
H516 C510 0.929 . S
H517 C514 0.930 . S
H518 C506 0.929 . S
H519 C508 0.929 . S
O520 Co495 2.351 . S
O520 C523 1.244 . S
O521 Co495 2.155 . S
O521 C523 1.240 . S
O522 Co495 2.096 . S
O522 C503 1.247 . S
C523 O520 1.244 . S
C523 O521 1.240 . S
H524 C498 0.872 1_545 S
H525 C507 0.931 . S
H526 C511 0.929 . S
H527 C513 0.930 . S
Co528 N532 2.148 . S
Co528 N538 2.128 . S
Co528 N548 2.194 . S
Co528 O553 2.351 . S
Co528 O554 2.155 . S
Co528 O555 2.096 . S
C529 N532 1.301 . S
C529 N533 1.328 . S
C529 H534 0.930 . S
C530 C531 1.333 . S
C530 N532 1.317 . S
C530 H535 0.930 . S
C531 C530 1.333 . S
C531 N533 1.350 . S
C531 H557 0.931 . S
N532 Co528 2.148 . S
N532 C529 1.301 . S
N532 C530 1.317 . S
N533 C529 1.328 . S
N533 C531 1.350 . S
H534 C529 0.930 . S
H535 C530 0.930 . S
C536 O537 1.224 . S
C536 O555 1.247 . S
O537 C536 1.224 . S
N538 Co528 2.128 . S
N538 C539 1.355 . S
N538 C541 1.311 . S
C539 N538 1.355 . S
C539 C540 1.363 . S
C539 H551 0.929 . S
C540 C539 1.363 . S
C540 N542 1.375 . S
C540 H558 0.931 . S
C541 N538 1.311 . S
C541 N542 1.347 . S
C541 H552 0.929 . S
N542 C540 1.375 . S
N542 C541 1.347 . S
C543 C546 1.365 . S
C543 N548 1.328 . S
C543 H549 0.929 . S
C544 C545 1.362 . S
C544 C547 1.378 . S
C544 H559 0.929 . S
C545 C544 1.362 . S
C545 C546 1.366 . S
C546 C543 1.365 . S
C546 C545 1.366 . S
C546 H560 0.930 . S
C547 C544 1.378 . S
C547 N548 1.315 . S
C547 H550 0.930 . S
N548 Co528 2.194 . S
N548 C543 1.328 . S
N548 C547 1.315 . S
H549 C543 0.929 . S
H550 C547 0.930 . S
H551 C539 0.929 . S
H552 C541 0.929 . S
O553 Co528 2.351 . S
O553 C556 1.244 . S
O554 Co528 2.155 . S
O554 C556 1.240 . S
O555 Co528 2.096 . S
O555 C536 1.247 . S
C556 O553 1.244 . S
C556 O554 1.240 . S
H557 C531 0.931 . S
H558 C540 0.931 . S
H559 C544 0.929 . S
H560 C546 0.930 . S
Co561 N565 2.148 . S
Co561 N571 2.128 . S
Co561 N581 2.194 . S
Co561 O586 2.351 . S
Co561 O587 2.155 . S
Co561 O588 2.096 . S
C562 N565 1.301 . S
C562 N566 1.328 . S
C562 H567 0.930 . S
C563 C564 1.333 . S
C563 N565 1.317 . S
C563 H568 0.930 . S
C564 C563 1.333 . S
C564 N566 1.350 . S
C564 H590 0.931 . S
N565 Co561 2.148 . S
N565 C562 1.301 . S
N565 C563 1.317 . S
N566 C562 1.328 . S
N566 C564 1.350 . S
H567 C562 0.930 . S
H568 C563 0.930 . S
C569 O570 1.224 . S
C569 O588 1.247 . S
O570 C569 1.224 . S
N571 Co561 2.128 . S
N571 C572 1.355 . S
N571 C574 1.311 . S
C572 N571 1.355 . S
C572 C573 1.363 . S
C572 H584 0.929 . S
C573 C572 1.363 . S
C573 N575 1.375 . S
C573 H591 0.931 . S
C574 N571 1.311 . S
C574 N575 1.347 . S
C574 H585 0.929 . S
N575 C573 1.375 . S
N575 C574 1.347 . S
C576 C579 1.365 . S
C576 N581 1.328 . S
C576 H582 0.929 . S
C577 C578 1.362 . S
C577 C580 1.378 . S
C577 H592 0.929 . S
C578 C577 1.362 . S
C578 C579 1.366 . S
C579 C576 1.365 . S
C579 C578 1.366 . S
C579 H593 0.930 . S
C580 C577 1.378 . S
C580 N581 1.315 . S
C580 H583 0.930 . S
N581 Co561 2.194 . S
N581 C576 1.328 . S
N581 C580 1.315 . S
H582 C576 0.929 . S
H583 C580 0.930 . S
H584 C572 0.929 . S
H585 C574 0.929 . S
O586 Co561 2.351 . S
O586 C589 1.244 . S
O587 Co561 2.155 . S
O587 C589 1.240 . S
O588 Co561 2.096 . S
O588 C569 1.247 . S
C589 O586 1.244 . S
C589 O587 1.240 . S
H590 C564 0.931 . S
H591 C573 0.931 . S
H592 C577 0.929 . S
H593 C579 0.930 . S
Co594 N598 2.148 . S
Co594 N604 2.128 . S
Co594 N614 2.194 . S
Co594 O619 2.351 . S
Co594 O620 2.155 . S
Co594 O621 2.096 . S
C595 N598 1.301 . S
C595 N599 1.328 . S
C595 H600 0.930 . S
C596 C597 1.333 . S
C596 N598 1.317 . S
C596 H601 0.930 . S
C597 C596 1.333 . S
C597 N599 1.350 . S
C597 H623 0.931 . S
N598 Co594 2.148 . S
N598 C595 1.301 . S
N598 C596 1.317 . S
N599 C595 1.328 . S
N599 C597 1.350 . S
H600 C595 0.930 . S
H601 C596 0.930 . S
C602 O603 1.224 . S
C602 O621 1.247 . S
O603 C602 1.224 . S
N604 Co594 2.128 . S
N604 C605 1.355 . S
N604 C607 1.311 . S
C605 N604 1.355 . S
C605 C606 1.363 . S
C605 H617 0.929 . S
C606 C605 1.363 . S
C606 N608 1.375 1_554 S
C606 H624 0.931 1_554 S
C607 N604 1.311 . S
C607 N608 1.347 1_554 S
C607 H618 0.929 . S
N608 C606 1.375 1_556 S
N608 C607 1.347 1_556 S
C609 C612 1.365 . S
C609 N614 1.328 . S
C609 H615 0.929 . S
C610 C611 1.362 . S
C610 C613 1.378 . S
C610 H625 0.929 . S
C611 C610 1.362 . S
C611 C612 1.366 . S
C612 C609 1.365 . S
C612 C611 1.366 . S
C612 H626 0.930 . S
C613 C610 1.378 . S
C613 N614 1.315 . S
C613 H616 0.930 . S
N614 Co594 2.194 . S
N614 C609 1.328 . S
N614 C613 1.315 . S
H615 C609 0.929 . S
H616 C613 0.930 . S
H617 C605 0.929 . S
H618 C607 0.929 . S
O619 Co594 2.351 . S
O619 C622 1.244 . S
O620 Co594 2.155 . S
O620 C622 1.240 . S
O621 Co594 2.096 . S
O621 C602 1.247 . S
C622 O619 1.244 . S
C622 O620 1.240 . S
H623 C597 0.931 . S
H624 C606 0.931 1_556 S
H625 C610 0.929 . S
H626 C612 0.930 . S
Co627 N631 2.148 . S
Co627 N637 2.128 . S
Co627 N647 2.194 . S
Co627 O652 2.351 . S
Co627 O653 2.155 . S
Co627 O654 2.096 . S
C628 N631 1.301 . S
C628 N632 1.328 . S
C628 H633 0.930 . S
C629 C630 1.333 . S
C629 N631 1.317 . S
C629 H634 0.930 . S
C630 C629 1.333 . S
C630 N632 1.350 . S
C630 H656 0.931 . S
N631 Co627 2.148 . S
N631 C628 1.301 . S
N631 C629 1.317 . S
N632 C628 1.328 . S
N632 C630 1.350 . S
H633 C628 0.930 . S
H634 C629 0.930 . S
C635 O636 1.224 . S
C635 O654 1.247 . S
O636 C635 1.224 . S
N637 Co627 2.128 . S
N637 C638 1.355 . S
N637 C640 1.311 . S
C638 N637 1.355 . S
C638 C639 1.363 . S
C638 H650 0.929 . S
C639 C638 1.363 . S
C639 N641 1.375 . S
C639 H657 0.931 . S
C640 N637 1.311 . S
C640 N641 1.347 . S
C640 H651 0.929 . S
N641 C639 1.375 . S
N641 C640 1.347 . S
C642 C645 1.365 . S
C642 N647 1.328 . S
C642 H648 0.929 . S
C643 C644 1.362 . S
C643 C646 1.378 . S
C643 H658 0.929 . S
C644 C643 1.362 . S
C644 C645 1.366 . S
C645 C642 1.365 . S
C645 C644 1.366 . S
C645 H659 0.930 . S
C646 C643 1.378 . S
C646 N647 1.315 . S
C646 H649 0.930 . S
N647 Co627 2.194 . S
N647 C642 1.328 . S
N647 C646 1.315 . S
H648 C642 0.929 . S
H649 C646 0.930 . S
H650 C638 0.929 . S
H651 C640 0.929 . S
O652 Co627 2.351 . S
O652 C655 1.244 . S
O653 Co627 2.155 . S
O653 C655 1.240 . S
O654 Co627 2.096 . S
O654 C635 1.247 . S
C655 O652 1.244 . S
C655 O653 1.240 . S
H656 C630 0.931 . S
H657 C639 0.931 . S
H658 C643 0.929 . S
H659 C645 0.930 . S
Co660 N664 2.148 . S
Co660 N670 2.128 . S
Co660 N680 2.194 . S
Co660 O685 2.351 . S
Co660 O686 2.155 . S
Co660 O687 2.096 . S
C661 N664 1.301 . S
C661 N665 1.328 . S
C661 H666 0.930 . S
C662 C663 1.333 . S
C662 N664 1.317 . S
C662 H667 0.930 . S
C663 C662 1.333 . S
C663 N665 1.350 . S
C663 H689 0.931 . S
N664 Co660 2.148 . S
N664 C661 1.301 . S
N664 C662 1.317 . S
N665 C661 1.328 . S
N665 C663 1.350 . S
H666 C661 0.930 . S
H667 C662 0.930 . S
C668 O669 1.224 . S
C668 O687 1.247 . S
O669 C668 1.224 . S
N670 Co660 2.128 . S
N670 C671 1.355 . S
N670 C673 1.311 . S
C671 N670 1.355 . S
C671 C672 1.363 . S
C671 H683 0.929 . S
C672 C671 1.363 . S
C672 N674 1.375 . S
C672 H690 0.931 . S
C673 N670 1.311 . S
C673 N674 1.347 . S
C673 H684 0.929 . S
N674 C672 1.375 . S
N674 C673 1.347 . S
C675 C678 1.365 . S
C675 N680 1.328 . S
C675 H681 0.929 . S
C676 C677 1.362 . S
C676 C679 1.378 . S
C676 H691 0.929 . S
C677 C676 1.362 . S
C677 C678 1.366 . S
C678 C675 1.365 . S
C678 C677 1.366 . S
C678 H692 0.930 . S
C679 C676 1.378 . S
C679 N680 1.315 . S
C679 H682 0.930 . S
N680 Co660 2.194 . S
N680 C675 1.328 . S
N680 C679 1.315 . S
H681 C675 0.929 . S
H682 C679 0.930 . S
H683 C671 0.929 . S
H684 C673 0.929 . S
O685 Co660 2.351 . S
O685 C688 1.244 . S
O686 Co660 2.155 . S
O686 C688 1.240 . S
O687 Co660 2.096 . S
O687 C668 1.247 . S
C688 O685 1.244 . S
C688 O686 1.240 . S
H689 C663 0.931 . S
H690 C672 0.931 . S
H691 C676 0.929 . S
H692 C678 0.930 . S
Co693 N697 2.148 . S
Co693 N703 2.128 . S
Co693 N713 2.194 . S
Co693 O718 2.351 . S
Co693 O719 2.155 . S
Co693 O720 2.096 . S
C694 N697 1.301 . S
C694 N698 1.328 . S
C694 H699 0.930 . S
C695 C696 1.333 . S
C695 N697 1.317 . S
C695 H700 0.930 . S
C696 C695 1.333 . S
C696 N698 1.350 . S
C696 H722 0.931 . S
N697 Co693 2.148 . S
N697 C694 1.301 . S
N697 C695 1.317 . S
N698 C694 1.328 . S
N698 C696 1.350 . S
H699 C694 0.930 . S
H700 C695 0.930 . S
C701 O702 1.224 . S
C701 O720 1.247 . S
O702 C701 1.224 . S
N703 Co693 2.128 . S
N703 C704 1.355 . S
N703 C706 1.311 . S
C704 N703 1.355 . S
C704 C705 1.363 . S
C704 H716 0.929 . S
C705 C704 1.363 . S
C705 N707 1.375 . S
C705 H723 0.931 . S
C706 N703 1.311 . S
C706 N707 1.347 . S
C706 H717 0.929 . S
N707 C705 1.375 . S
N707 C706 1.347 . S
C708 C711 1.365 . S
C708 N713 1.328 . S
C708 H714 0.929 . S
C709 C710 1.362 . S
C709 C712 1.378 . S
C709 H724 0.929 . S
C710 C709 1.362 . S
C710 C711 1.366 . S
C711 C708 1.365 . S
C711 C710 1.366 . S
C711 H725 0.930 . S
C712 C709 1.378 . S
C712 N713 1.315 . S
C712 H715 0.930 . S
N713 Co693 2.194 . S
N713 C708 1.328 . S
N713 C712 1.315 . S
H714 C708 0.929 . S
H715 C712 0.930 . S
H716 C704 0.929 . S
H717 C706 0.929 . S
O718 Co693 2.351 . S
O718 C721 1.244 . S
O719 Co693 2.155 . S
O719 C721 1.240 . S
O720 Co693 2.096 . S
O720 C701 1.247 . S
C721 O718 1.244 . S
C721 O719 1.240 . S
H722 C696 0.931 . S
H723 C705 0.931 . S
H724 C709 0.929 . S
H725 C711 0.930 . S
Co726 N730 2.148 . S
Co726 N736 2.128 . S
Co726 N746 2.194 . S
Co726 O751 2.351 . S
Co726 O752 2.155 . S
Co726 O753 2.096 . S
C727 N730 1.301 . S
C727 N731 1.328 . S
C727 H732 0.930 . S
C728 C729 1.333 . S
C728 N730 1.317 . S
C728 H733 0.930 . S
C729 C728 1.333 . S
C729 N731 1.350 . S
C729 H755 0.931 . S
N730 Co726 2.148 . S
N730 C727 1.301 . S
N730 C728 1.317 . S
N731 C727 1.328 . S
N731 C729 1.350 . S
H732 C727 0.930 . S
H733 C728 0.930 . S
C734 O735 1.224 . S
C734 O753 1.247 . S
O735 C734 1.224 . S
N736 Co726 2.128 . S
N736 C737 1.355 . S
N736 C739 1.311 . S
C737 N736 1.355 . S
C737 C738 1.363 . S
C737 H749 0.929 . S
C738 C737 1.363 . S
C738 N740 1.375 1_556 S
C738 H756 0.931 1_556 S
C739 N736 1.311 . S
C739 N740 1.347 1_556 S
C739 H750 0.929 . S
N740 C738 1.375 1_554 S
N740 C739 1.347 1_554 S
C741 C744 1.365 . S
C741 N746 1.328 . S
C741 H747 0.929 . S
C742 C743 1.362 . S
C742 C745 1.378 . S
C742 H757 0.929 . S
C743 C742 1.362 . S
C743 C744 1.366 . S
C744 C741 1.365 . S
C744 C743 1.366 . S
C744 H758 0.930 . S
C745 C742 1.378 . S
C745 N746 1.315 . S
C745 H748 0.930 . S
N746 Co726 2.194 . S
N746 C741 1.328 . S
N746 C745 1.315 . S
H747 C741 0.929 . S
H748 C745 0.930 . S
H749 C737 0.929 . S
H750 C739 0.929 . S
O751 Co726 2.351 . S
O751 C754 1.244 . S
O752 Co726 2.155 . S
O752 C754 1.240 . S
O753 Co726 2.096 . S
O753 C734 1.247 . S
C754 O751 1.244 . S
C754 O752 1.240 . S
H755 C729 0.931 . S
H756 C738 0.931 1_554 S
H757 C742 0.929 . S
H758 C744 0.930 . S
Co759 N763 2.148 . S
Co759 N769 2.128 . S
Co759 N779 2.194 . S
Co759 O784 2.351 . S
Co759 O785 2.155 . S
Co759 O786 2.096 . S
C760 N763 1.301 . S
C760 N764 1.328 . S
C760 H765 0.930 . S
C761 C762 1.333 . S
C761 N763 1.317 . S
C761 H766 0.930 . S
C762 C761 1.333 . S
C762 N764 1.350 . S
C762 H788 0.931 . S
N763 Co759 2.148 . S
N763 C760 1.301 . S
N763 C761 1.317 . S
N764 C760 1.328 . S
N764 C762 1.350 . S
H765 C760 0.930 . S
H766 C761 0.930 . S
C767 O768 1.224 . S
C767 O786 1.247 . S
O768 C767 1.224 . S
N769 Co759 2.128 . S
N769 C770 1.355 . S
N769 C772 1.311 . S
C770 N769 1.355 . S
C770 C771 1.363 . S
C770 H782 0.929 . S
C771 C770 1.363 . S
C771 N773 1.375 . S
C771 H789 0.931 . S
C772 N769 1.311 . S
C772 N773 1.347 . S
C772 H783 0.929 . S
N773 C771 1.375 . S
N773 C772 1.347 . S
C774 C777 1.365 . S
C774 N779 1.328 . S
C774 H780 0.929 . S
C775 C776 1.362 . S
C775 C778 1.378 . S
C775 H790 0.929 . S
C776 C775 1.362 . S
C776 C777 1.366 . S
C777 C774 1.365 . S
C777 C776 1.366 . S
C777 H791 0.930 . S
C778 C775 1.378 . S
C778 N779 1.315 . S
C778 H781 0.930 . S
N779 Co759 2.194 . S
N779 C774 1.328 . S
N779 C778 1.315 . S
H780 C774 0.929 . S
H781 C778 0.930 . S
H782 C770 0.929 . S
H783 C772 0.929 . S
O784 Co759 2.351 . S
O784 C787 1.244 . S
O785 Co759 2.155 . S
O785 C787 1.240 . S
O786 Co759 2.096 . S
O786 C767 1.247 . S
C787 O784 1.244 . S
C787 O785 1.240 . S
H788 C762 0.931 . S
H789 C771 0.931 . S
H790 C775 0.929 . S
H791 C777 0.930 . S
Co792 N796 2.148 . S
Co792 N802 2.128 . S
Co792 N812 2.194 . S
Co792 O817 2.351 . S
Co792 O818 2.155 . S
Co792 O819 2.096 . S
C793 N796 1.301 . S
C793 N797 1.328 . S
C793 H798 0.930 . S
C794 C795 1.333 . S
C794 N796 1.317 . S
C794 H799 0.930 . S
C795 C794 1.333 . S
C795 N797 1.350 . S
C795 H821 0.931 . S
N796 Co792 2.148 . S
N796 C793 1.301 . S
N796 C794 1.317 . S
N797 C793 1.328 . S
N797 C795 1.350 . S
H798 C793 0.930 . S
H799 C794 0.930 . S
C800 O801 1.224 . S
C800 O819 1.247 . S
O801 C800 1.224 . S
N802 Co792 2.128 . S
N802 C803 1.355 . S
N802 C805 1.311 . S
C803 N802 1.355 . S
C803 C804 1.363 . S
C803 H815 0.929 . S
C804 C803 1.363 . S
C804 N806 1.375 . S
C804 H822 0.931 . S
C805 N802 1.311 . S
C805 N806 1.347 . S
C805 H816 0.929 . S
N806 C804 1.375 . S
N806 C805 1.347 . S
C807 C810 1.365 . S
C807 N812 1.328 . S
C807 H813 0.929 . S
C808 C809 1.362 . S
C808 C811 1.378 . S
C808 H823 0.929 . S
C809 C808 1.362 . S
C809 C810 1.366 . S
C810 C807 1.365 . S
C810 C809 1.366 . S
C810 H824 0.930 . S
C811 C808 1.378 . S
C811 N812 1.315 . S
C811 H814 0.930 . S
N812 Co792 2.194 . S
N812 C807 1.328 . S
N812 C811 1.315 . S
H813 C807 0.929 . S
H814 C811 0.930 . S
H815 C803 0.929 . S
H816 C805 0.929 . S
O817 Co792 2.351 . S
O817 C820 1.244 . S
O818 Co792 2.155 . S
O818 C820 1.240 . S
O819 Co792 2.096 . S
O819 C800 1.247 . S
C820 O817 1.244 . S
C820 O818 1.240 . S
H821 C795 0.931 . S
H822 C804 0.931 . S
H823 C808 0.929 . S
H824 C810 0.930 . S
Co825 N829 2.148 . S
Co825 N835 2.128 . S
Co825 N845 2.194 . S
Co825 O850 2.351 . S
Co825 O851 2.155 . S
Co825 O852 2.096 . S
C826 N829 1.301 . S
C826 N830 1.328 . S
C826 H831 0.930 . S
C827 C828 1.333 . S
C827 N829 1.317 . S
C827 H832 0.930 . S
C828 C827 1.333 . S
C828 N830 1.350 . S
C828 H854 0.931 . S
N829 Co825 2.148 . S
N829 C826 1.301 . S
N829 C827 1.317 . S
N830 C826 1.328 . S
N830 C828 1.350 . S
H831 C826 0.930 . S
H832 C827 0.930 . S
C833 O834 1.224 . S
C833 O852 1.247 . S
O834 C833 1.224 . S
N835 Co825 2.128 . S
N835 C836 1.355 . S
N835 C838 1.311 . S
C836 N835 1.355 . S
C836 C837 1.363 . S
C836 H848 0.929 . S
C837 C836 1.363 . S
C837 N839 1.375 . S
C837 H855 0.931 . S
C838 N835 1.311 . S
C838 N839 1.347 . S
C838 H849 0.929 . S
N839 C837 1.375 . S
N839 C838 1.347 . S
C840 C843 1.365 . S
C840 N845 1.328 . S
C840 H846 0.929 . S
C841 C842 1.362 . S
C841 C844 1.378 . S
C841 H856 0.929 . S
C842 C841 1.362 . S
C842 C843 1.366 . S
C843 C840 1.365 . S
C843 C842 1.366 . S
C843 H857 0.930 . S
C844 C841 1.378 . S
C844 N845 1.315 . S
C844 H847 0.930 . S
N845 Co825 2.194 . S
N845 C840 1.328 . S
N845 C844 1.315 . S
H846 C840 0.929 . S
H847 C844 0.930 . S
H848 C836 0.929 . S
H849 C838 0.929 . S
O850 Co825 2.351 . S
O850 C853 1.244 . S
O851 Co825 2.155 . S
O851 C853 1.240 . S
O852 Co825 2.096 . S
O852 C833 1.247 . S
C853 O850 1.244 . S
C853 O851 1.240 . S
H854 C828 0.931 . S
H855 C837 0.931 . S
H856 C841 0.929 . S
H857 C843 0.930 . S
Co858 N862 2.148 . S
Co858 N868 2.128 . S
Co858 N878 2.194 . S
Co858 O883 2.351 . S
Co858 O884 2.155 . S
Co858 O885 2.096 . S
C859 N862 1.301 . S
C859 N863 1.328 . S
C859 H864 0.930 . S
C860 C861 1.333 . S
C860 N862 1.317 . S
C860 H865 0.930 . S
C861 C860 1.333 . S
C861 N863 1.350 . S
C861 H887 0.931 . S
N862 Co858 2.148 . S
N862 C859 1.301 . S
N862 C860 1.317 . S
N863 C859 1.328 . S
N863 C861 1.350 . S
H864 C859 0.930 . S
H865 C860 0.930 . S
C866 O867 1.224 . S
C866 O885 1.247 . S
O867 C866 1.224 . S
N868 Co858 2.128 . S
N868 C869 1.355 . S
N868 C871 1.311 . S
C869 N868 1.355 . S
C869 C870 1.363 . S
C869 H881 0.929 . S
C870 C869 1.363 . S
C870 N872 1.375 1_556 S
C870 H888 0.931 1_556 S
C871 N868 1.311 . S
C871 N872 1.347 1_556 S
C871 H882 0.929 . S
N872 C870 1.375 1_554 S
N872 C871 1.347 1_554 S
C873 C876 1.365 . S
C873 N878 1.328 . S
C873 H879 0.929 . S
C874 C875 1.362 . S
C874 C877 1.378 . S
C874 H889 0.929 . S
C875 C874 1.362 . S
C875 C876 1.366 . S
C876 C873 1.365 . S
C876 C875 1.366 . S
C876 H890 0.930 . S
C877 C874 1.378 . S
C877 N878 1.315 . S
C877 H880 0.930 . S
N878 Co858 2.194 . S
N878 C873 1.328 . S
N878 C877 1.315 . S
H879 C873 0.929 . S
H880 C877 0.930 . S
H881 C869 0.929 . S
H882 C871 0.929 . S
O883 Co858 2.351 . S
O883 C886 1.244 . S
O884 Co858 2.155 . S
O884 C886 1.240 . S
O885 Co858 2.096 . S
O885 C866 1.247 . S
C886 O883 1.244 . S
C886 O884 1.240 . S
H887 C861 0.931 . S
H888 C870 0.931 1_554 S
H889 C874 0.929 . S
H890 C876 0.930 . S
Co891 N895 2.148 . S
Co891 N901 2.128 . S
Co891 N911 2.194 . S
Co891 O916 2.351 . S
Co891 O917 2.155 . S
Co891 O918 2.096 . S
C892 N895 1.301 . S
C892 N896 1.328 . S
C892 H897 0.930 . S
C893 C894 1.333 . S
C893 N895 1.317 . S
C893 H898 0.930 . S
C894 C893 1.333 . S
C894 N896 1.350 . S
C894 H920 0.931 . S
N895 Co891 2.148 . S
N895 C892 1.301 . S
N895 C893 1.317 . S
N896 C892 1.328 . S
N896 C894 1.350 . S
H897 C892 0.930 . S
H898 C893 0.930 . S
C899 O900 1.224 . S
C899 O918 1.247 . S
O900 C899 1.224 . S
N901 Co891 2.128 . S
N901 C902 1.355 . S
N901 C904 1.311 . S
C902 N901 1.355 . S
C902 C903 1.363 . S
C902 H914 0.929 . S
C903 C902 1.363 . S
C903 N905 1.375 . S
C903 H921 0.931 . S
C904 N901 1.311 . S
C904 N905 1.347 . S
C904 H915 0.929 . S
N905 C903 1.375 . S
N905 C904 1.347 . S
C906 C909 1.365 . S
C906 N911 1.328 . S
C906 H912 0.929 . S
C907 C908 1.362 . S
C907 C910 1.378 . S
C907 H922 0.929 . S
C908 C907 1.362 . S
C908 C909 1.366 . S
C909 C906 1.365 . S
C909 C908 1.366 . S
C909 H923 0.930 . S
C910 C907 1.378 . S
C910 N911 1.315 . S
C910 H913 0.930 . S
N911 Co891 2.194 . S
N911 C906 1.328 . S
N911 C910 1.315 . S
H912 C906 0.929 . S
H913 C910 0.930 . S
H914 C902 0.929 . S
H915 C904 0.929 . S
O916 Co891 2.351 . S
O916 C919 1.244 . S
O917 Co891 2.155 . S
O917 C919 1.240 . S
O918 Co891 2.096 . S
O918 C899 1.247 . S
C919 O916 1.244 . S
C919 O917 1.240 . S
H920 C894 0.931 . S
H921 C903 0.931 . S
H922 C907 0.929 . S
H923 C909 0.930 . S
Co924 N928 2.148 . S
Co924 N934 2.128 . S
Co924 N944 2.194 . S
Co924 O949 2.351 . S
Co924 O950 2.155 . S
Co924 O951 2.096 . S
C925 N928 1.301 . S
C925 N929 1.328 . S
C925 H930 0.930 . S
C926 C927 1.333 . S
C926 N928 1.317 . S
C926 H931 0.930 . S
C927 C926 1.333 . S
C927 N929 1.350 . S
C927 H953 0.931 . S
N928 Co924 2.148 . S
N928 C925 1.301 . S
N928 C926 1.317 . S
N929 C925 1.328 . S
N929 C927 1.350 . S
H930 C925 0.930 . S
H931 C926 0.930 . S
C932 O933 1.224 . S
C932 O951 1.247 . S
O933 C932 1.224 . S
N934 Co924 2.128 . S
N934 C935 1.355 . S
N934 C937 1.311 . S
C935 N934 1.355 . S
C935 C936 1.363 . S
C935 H947 0.929 . S
C936 C935 1.363 . S
C936 N938 1.375 . S
C936 H954 0.931 . S
C937 N934 1.311 . S
C937 N938 1.347 . S
C937 H948 0.929 . S
N938 C936 1.375 . S
N938 C937 1.347 . S
C939 C942 1.365 . S
C939 N944 1.328 . S
C939 H945 0.929 . S
C940 C941 1.362 . S
C940 C943 1.378 . S
C940 H955 0.929 . S
C941 C940 1.362 . S
C941 C942 1.366 . S
C942 C939 1.365 . S
C942 C941 1.366 . S
C942 H956 0.930 . S
C943 C940 1.378 . S
C943 N944 1.315 . S
C943 H946 0.930 . S
N944 Co924 2.194 . S
N944 C939 1.328 . S
N944 C943 1.315 . S
H945 C939 0.929 . S
H946 C943 0.930 . S
H947 C935 0.929 . S
H948 C937 0.929 . S
O949 Co924 2.351 . S
O949 C952 1.244 . S
O950 Co924 2.155 . S
O950 C952 1.240 . S
O951 Co924 2.096 . S
O951 C932 1.247 . S
C952 O949 1.244 . S
C952 O950 1.240 . S
H953 C927 0.931 . S
H954 C936 0.931 . S
H955 C940 0.929 . S
H956 C942 0.930 . S
Co957 N961 2.148 . S
Co957 N967 2.128 . S
Co957 N977 2.194 . S
Co957 O982 2.351 . S
Co957 O983 2.155 . S
Co957 O984 2.096 . S
C958 N961 1.301 . S
C958 N962 1.328 . S
C958 H963 0.930 . S
C959 C960 1.333 . S
C959 N961 1.317 . S
C959 H964 0.930 . S
C960 C959 1.333 . S
C960 N962 1.350 . S
C960 H986 0.931 . S
N961 Co957 2.148 . S
N961 C958 1.301 . S
N961 C959 1.317 . S
N962 C958 1.328 . S
N962 C960 1.350 . S
H963 C958 0.930 . S
H964 C959 0.930 . S
C965 O966 1.224 . S
C965 O984 1.247 . S
O966 C965 1.224 . S
N967 Co957 2.128 . S
N967 C968 1.355 . S
N967 C970 1.311 . S
C968 N967 1.355 . S
C968 C969 1.363 . S
C968 H980 0.929 . S
C969 C968 1.363 . S
C969 N971 1.375 . S
C969 H987 0.931 . S
C970 N967 1.311 . S
C970 N971 1.347 . S
C970 H981 0.929 . S
N971 C969 1.375 . S
N971 C970 1.347 . S
C972 C975 1.365 . S
C972 N977 1.328 . S
C972 H978 0.929 . S
C973 C974 1.362 . S
C973 C976 1.378 . S
C973 H988 0.929 . S
C974 C973 1.362 . S
C974 C975 1.366 . S
C975 C972 1.365 . S
C975 C974 1.366 . S
C975 H989 0.930 . S
C976 C973 1.378 . S
C976 N977 1.315 . S
C976 H979 0.930 . S
N977 Co957 2.194 . S
N977 C972 1.328 . S
N977 C976 1.315 . S
H978 C972 0.929 . S
H979 C976 0.930 . S
H980 C968 0.929 . S
H981 C970 0.929 . S
O982 Co957 2.351 . S
O982 C985 1.244 . S
O983 Co957 2.155 . S
O983 C985 1.240 . S
O984 Co957 2.096 . S
O984 C965 1.247 . S
C985 O982 1.244 . S
C985 O983 1.240 . S
H986 C960 0.931 . S
H987 C969 0.931 . S
H988 C973 0.929 . S
H989 C975 0.930 . S
Co990 N994 2.148 . S
Co990 N1000 2.128 . S
Co990 N1010 2.194 . S
Co990 O1015 2.351 . S
Co990 O1016 2.155 . S
Co990 O1017 2.096 . S
C991 N994 1.301 . S
C991 N995 1.328 . S
C991 H996 0.930 . S
C992 C993 1.333 . S
C992 N994 1.317 . S
C992 H997 0.930 . S
C993 C992 1.333 . S
C993 N995 1.350 . S
C993 H1019 0.931 . S
N994 Co990 2.148 . S
N994 C991 1.301 . S
N994 C992 1.317 . S
N995 C991 1.328 . S
N995 C993 1.350 . S
H996 C991 0.930 . S
H997 C992 0.930 . S
C998 O999 1.224 . S
C998 O1017 1.247 . S
O999 C998 1.224 . S
N1000 Co990 2.128 . S
N1000 C1001 1.355 . S
N1000 C1003 1.311 . S
C1001 N1000 1.355 . S
C1001 C1002 1.363 . S
C1001 H1013 0.929 . S
C1002 C1001 1.363 . S
C1002 N1004 1.375 1_554 S
C1002 H1020 0.931 1_554 S
C1003 N1000 1.311 . S
C1003 N1004 1.347 1_554 S
C1003 H1014 0.929 . S
N1004 C1002 1.375 1_556 S
N1004 C1003 1.347 1_556 S
C1005 C1008 1.365 . S
C1005 N1010 1.328 . S
C1005 H1011 0.929 . S
C1006 C1007 1.362 . S
C1006 C1009 1.378 . S
C1006 H1021 0.929 . S
C1007 C1006 1.362 . S
C1007 C1008 1.366 . S
C1008 C1005 1.365 . S
C1008 C1007 1.366 . S
C1008 H1022 0.930 . S
C1009 C1006 1.378 . S
C1009 N1010 1.315 . S
C1009 H1012 0.930 . S
N1010 Co990 2.194 . S
N1010 C1005 1.328 . S
N1010 C1009 1.315 . S
H1011 C1005 0.929 . S
H1012 C1009 0.930 . S
H1013 C1001 0.929 . S
H1014 C1003 0.929 . S
O1015 Co990 2.351 . S
O1015 C1018 1.244 . S
O1016 Co990 2.155 . S
O1016 C1018 1.240 . S
O1017 Co990 2.096 . S
O1017 C998 1.247 . S
C1018 O1015 1.244 . S
C1018 O1016 1.240 . S
H1019 C993 0.931 . S
H1020 C1002 0.931 1_556 S
H1021 C1006 0.929 . S
H1022 C1008 0.930 . S
Co1023 N1027 2.148 . S
Co1023 N1033 2.128 . S
Co1023 N1043 2.194 . S
Co1023 O1048 2.351 . S
Co1023 O1049 2.155 . S
Co1023 O1050 2.096 . S
C1024 N1027 1.301 . S
C1024 N1028 1.328 . S
C1024 H1029 0.930 . S
C1025 C1026 1.333 . S
C1025 N1027 1.317 . S
C1025 H1030 0.930 . S
C1026 C1025 1.333 . S
C1026 N1028 1.350 . S
C1026 H1052 0.931 . S
N1027 Co1023 2.148 . S
N1027 C1024 1.301 . S
N1027 C1025 1.317 . S
N1028 C1024 1.328 . S
N1028 C1026 1.350 . S
H1029 C1024 0.930 . S
H1030 C1025 0.930 . S
C1031 O1032 1.224 . S
C1031 O1050 1.247 . S
O1032 C1031 1.224 . S
N1033 Co1023 2.128 . S
N1033 C1034 1.355 . S
N1033 C1036 1.311 . S
C1034 N1033 1.355 . S
C1034 C1035 1.363 . S
C1034 H1046 0.929 . S
C1035 C1034 1.363 . S
C1035 N1037 1.375 . S
C1035 H1053 0.931 . S
C1036 N1033 1.311 . S
C1036 N1037 1.347 . S
C1036 H1047 0.929 . S
N1037 C1035 1.375 . S
N1037 C1036 1.347 . S
C1038 C1041 1.365 . S
C1038 N1043 1.328 . S
C1038 H1044 0.929 . S
C1039 C1040 1.362 . S
C1039 C1042 1.378 . S
C1039 H1054 0.929 . S
C1040 C1039 1.362 . S
C1040 C1041 1.366 . S
C1041 C1038 1.365 . S
C1041 C1040 1.366 . S
C1041 H1055 0.930 . S
C1042 C1039 1.378 . S
C1042 N1043 1.315 . S
C1042 H1045 0.930 . S
N1043 Co1023 2.194 . S
N1043 C1038 1.328 . S
N1043 C1042 1.315 . S
H1044 C1038 0.929 . S
H1045 C1042 0.930 . S
H1046 C1034 0.929 . S
H1047 C1036 0.929 . S
O1048 Co1023 2.351 . S
O1048 C1051 1.244 . S
O1049 Co1023 2.155 . S
O1049 C1051 1.240 . S
O1050 Co1023 2.096 . S
O1050 C1031 1.247 . S
C1051 O1048 1.244 . S
C1051 O1049 1.240 . S
H1052 C1026 0.931 . S
H1053 C1035 0.931 . S
H1054 C1039 0.929 . S
H1055 C1041 0.930 . S
C1056 C1057 1.349 . S
C1056 C1058 1.327 1_565 S
C1056 H1081 0.950 . S
C1057 C1056 1.349 . S
C1057 C1073 1.349 1_565 S
C1058 C1056 1.327 1_545 S
C1058 C1077 1.429 . S
C1058 H1082 0.937 1_545 S
C1059 C1076 1.574 . S
C1059 C1078 1.368 . S
C1059 H1083 0.949 . S
H1060 C1064 0.949 . S
C1061 C1062 1.349 . S
C1061 C1063 1.327 . S
C1061 H1084 0.950 . S
C1062 C1061 1.349 . S
C1062 C1074 1.349 . S
C1063 C1061 1.327 . S
C1063 C1079 1.429 . S
C1063 H1085 0.950 . S
C1064 H1060 0.949 . S
C1064 C1072 1.574 . S
C1064 C1080 1.368 . S
H1065 C1073 0.950 . S
H1066 C1071 0.950 . S
H1067 C1072 0.949 . S
H1068 C1074 0.950 . S
H1069 C1075 0.950 . S
H1070 C1076 0.949 . S
C1071 H1066 0.950 . S
C1071 C1073 1.327 . S
C1071 C1077 1.429 . S
C1072 C1064 1.574 . S
C1072 H1067 0.949 . S
C1072 C1078 1.368 . S
C1073 C1057 1.349 1_545 S
C1073 H1065 0.950 . S
C1073 C1071 1.327 . S
C1074 C1062 1.349 . S
C1074 H1068 0.950 . S
C1074 C1075 1.327 . S
C1075 H1069 0.950 . S
C1075 C1074 1.327 . S
C1075 C1079 1.429 . S
C1076 C1059 1.574 . S
C1076 H1070 0.949 . S
C1076 C1080 1.368 . S
C1077 C1058 1.429 . S
C1077 C1071 1.429 . S
C1077 C1078 1.523 . S
C1078 C1059 1.368 . S
C1078 C1072 1.368 . S
C1078 C1077 1.523 . S
C1079 C1063 1.429 . S
C1079 C1075 1.429 . S
C1079 C1080 1.523 . S
C1080 C1064 1.368 . S
C1080 C1076 1.368 . S
C1080 C1079 1.523 . S
H1081 C1056 0.950 . S
H1082 C1058 0.937 1_565 S
H1083 C1059 0.949 . S
H1084 C1061 0.950 . S
H1085 C1063 0.950 . S
C1086 C1087 1.349 . S
C1086 C1088 1.327 . S
C1086 H1111 0.950 . S
C1087 C1086 1.349 . S
C1087 C1103 1.349 . S
C1088 C1086 1.327 . S
C1088 C1107 1.429 . S
C1088 H1112 0.950 . S
C1089 C1106 1.574 . S
C1089 C1108 1.368 . S
C1089 H1113 0.949 . S
H1090 C1094 0.949 . S
C1091 C1092 1.349 . S
C1091 C1093 1.327 . S
C1091 H1114 0.950 . S
C1092 C1091 1.349 . S
C1092 C1104 1.349 . S
C1093 C1091 1.327 . S
C1093 C1109 1.429 . S
C1093 H1115 0.950 . S
C1094 H1090 0.949 . S
C1094 C1102 1.574 . S
C1094 C1110 1.368 . S
H1095 C1103 0.950 . S
H1096 C1101 0.950 . S
H1097 C1102 0.949 . S
H1098 C1104 0.950 . S
H1099 C1105 0.950 . S
H1100 C1106 0.949 . S
C1101 H1096 0.950 . S
C1101 C1103 1.327 . S
C1101 C1107 1.429 . S
C1102 C1094 1.574 . S
C1102 H1097 0.949 . S
C1102 C1108 1.368 . S
C1103 C1087 1.349 . S
C1103 H1095 0.950 . S
C1103 C1101 1.327 . S
C1104 C1092 1.349 . S
C1104 H1098 0.950 . S
C1104 C1105 1.327 . S
C1105 H1099 0.950 . S
C1105 C1104 1.327 . S
C1105 C1109 1.429 . S
C1106 C1089 1.574 . S
C1106 H1100 0.949 . S
C1106 C1110 1.368 . S
C1107 C1088 1.429 . S
C1107 C1101 1.429 . S
C1107 C1108 1.523 . S
C1108 C1089 1.368 . S
C1108 C1102 1.368 . S
C1108 C1107 1.523 . S
C1109 C1093 1.429 . S
C1109 C1105 1.429 . S
C1109 C1110 1.523 . S
C1110 C1094 1.368 . S
C1110 C1106 1.368 . S
C1110 C1109 1.523 . S
H1111 C1086 0.950 . S
H1112 C1088 0.950 . S
H1113 C1089 0.949 . S
H1114 C1091 0.950 . S
H1115 C1093 0.950 . S
C1116 C1117 1.349 . S
C1116 C1118 1.327 . S
C1116 H1141 0.950 . S
C1117 C1116 1.349 . S
C1117 C1133 1.349 . S
C1118 C1116 1.327 . S
C1118 C1137 1.429 . S
C1118 H1142 0.950 . S
C1119 C1136 1.574 . S
C1119 C1138 1.368 . S
C1119 H1143 0.949 . S
H1120 C1124 0.949 . S
C1121 C1122 1.349 . S
C1121 C1123 1.327 1_545 S
C1121 H1144 0.950 . S
C1122 C1121 1.349 . S
C1122 C1134 1.349 1_545 S
C1123 C1121 1.327 1_565 S
C1123 C1139 1.429 . S
C1123 H1145 0.950 . S
C1124 H1120 0.949 . S
C1124 C1132 1.574 . S
C1124 C1140 1.368 . S
H1125 C1133 0.950 . S
H1126 C1131 0.950 . S
H1127 C1132 0.949 . S
H1128 C1134 0.950 . S
H1129 C1135 0.950 . S
H1130 C1136 0.949 . S
C1131 H1126 0.950 . S
C1131 C1133 1.327 . S
C1131 C1137 1.429 . S
C1132 C1124 1.574 . S
C1132 H1127 0.949 . S
C1132 C1138 1.368 . S
C1133 C1117 1.349 . S
C1133 H1125 0.950 . S
C1133 C1131 1.327 . S
C1134 C1122 1.349 1_565 S
C1134 H1128 0.950 . S
C1134 C1135 1.327 . S
C1135 H1129 0.950 . S
C1135 C1134 1.327 . S
C1135 C1139 1.429 . S
C1136 C1119 1.574 . S
C1136 H1130 0.949 . S
C1136 C1140 1.368 . S
C1137 C1118 1.429 . S
C1137 C1131 1.429 . S
C1137 C1138 1.523 . S
C1138 C1119 1.368 . S
C1138 C1132 1.368 . S
C1138 C1137 1.523 . S
C1139 C1123 1.429 . S
C1139 C1135 1.429 . S
C1139 C1140 1.523 . S
C1140 C1124 1.368 . S
C1140 C1136 1.368 . S
C1140 C1139 1.523 . S
H1141 C1116 0.950 . S
H1142 C1118 0.950 . S
H1143 C1119 0.949 . S
H1144 C1121 0.950 . S
H1145 C1123 0.950 . S
C1146 C1147 1.349 . S
C1146 C1148 1.327 . S
C1146 H1171 0.950 . S
C1147 C1146 1.349 . S
C1147 C1163 1.349 . S
C1148 C1146 1.327 . S
C1148 C1167 1.429 . S
C1148 H1172 0.950 . S
C1149 C1166 1.574 . S
C1149 C1168 1.368 . S
C1149 H1173 0.949 . S
H1150 C1154 0.949 . S
C1151 C1152 1.349 1_556 S
C1151 C1153 1.327 . S
C1151 H1174 0.950 . S
C1152 C1151 1.349 1_554 S
C1152 C1164 1.349 . S
C1153 C1151 1.327 . S
C1153 C1169 1.429 . S
C1153 H1175 0.950 . S
C1154 H1150 0.949 . S
C1154 C1162 1.574 . S
C1154 C1170 1.368 . S
H1155 C1163 0.950 . S
H1156 C1161 0.950 . S
H1157 C1162 0.949 . S
H1158 C1164 0.950 . S
H1159 C1165 0.950 1_554 S
H1160 C1166 0.949 . S
C1161 H1156 0.950 . S
C1161 C1163 1.327 . S
C1161 C1167 1.429 . S
C1162 C1154 1.574 . S
C1162 H1157 0.949 . S
C1162 C1168 1.368 . S
C1163 C1147 1.349 . S
C1163 H1155 0.950 . S
C1163 C1161 1.327 . S
C1164 C1152 1.349 . S
C1164 H1158 0.950 . S
C1164 C1165 1.327 1_554 S
C1165 H1159 0.950 1_556 S
C1165 C1164 1.327 1_556 S
C1165 C1169 1.429 . S
C1166 C1149 1.574 . S
C1166 H1160 0.949 . S
C1166 C1170 1.368 . S
C1167 C1148 1.429 . S
C1167 C1161 1.429 . S
C1167 C1168 1.523 . S
C1168 C1149 1.368 . S
C1168 C1162 1.368 . S
C1168 C1167 1.523 . S
C1169 C1153 1.429 . S
C1169 C1165 1.429 . S
C1169 C1170 1.523 . S
C1170 C1154 1.368 . S
C1170 C1166 1.368 . S
C1170 C1169 1.523 . S
H1171 C1146 0.950 . S
H1172 C1148 0.950 . S
H1173 C1149 0.949 . S
H1174 C1151 0.950 . S
H1175 C1153 0.950 . S
C1176 C1177 1.349 . S
C1176 C1178 1.327 . S
C1176 H1201 0.950 . S
C1177 C1176 1.349 . S
C1177 C1193 1.349 . S
C1178 C1176 1.327 . S
C1178 C1197 1.429 . S
C1178 H1202 0.950 . S
C1179 C1196 1.574 . S
C1179 C1198 1.368 . S
C1179 H1203 0.949 . S
H1180 C1184 0.949 . S
C1181 C1182 1.349 . S
C1181 C1183 1.327 1_545 S
C1181 H1204 0.950 . S
C1182 C1181 1.349 . S
C1182 C1194 1.349 1_545 S
C1183 C1181 1.327 1_565 S
C1183 C1199 1.429 . S
C1183 H1205 0.940 1_565 S
C1184 H1180 0.949 . S
C1184 C1192 1.574 . S
C1184 C1200 1.368 . S
H1185 C1193 0.950 . S
H1186 C1191 0.950 . S
H1187 C1192 0.949 . S
H1188 C1194 0.950 . S
H1189 C1195 0.950 . S
H1190 C1196 0.949 . S
C1191 H1186 0.950 . S
C1191 C1193 1.327 . S
C1191 C1197 1.429 . S
C1192 C1184 1.574 . S
C1192 H1187 0.949 . S
C1192 C1198 1.368 . S
C1193 C1177 1.349 . S
C1193 H1185 0.950 . S
C1193 C1191 1.327 . S
C1194 C1182 1.349 1_565 S
C1194 H1188 0.950 . S
C1194 C1195 1.327 . S
C1195 H1189 0.950 . S
C1195 C1194 1.327 . S
C1195 C1199 1.429 . S
C1196 C1179 1.574 . S
C1196 H1190 0.949 . S
C1196 C1200 1.368 . S
C1197 C1178 1.429 . S
C1197 C1191 1.429 . S
C1197 C1198 1.523 . S
C1198 C1179 1.368 . S
C1198 C1192 1.368 . S
C1198 C1197 1.523 . S
C1199 C1183 1.429 . S
C1199 C1195 1.429 . S
C1199 C1200 1.523 . S
C1200 C1184 1.368 . S
C1200 C1196 1.368 . S
C1200 C1199 1.523 . S
H1201 C1176 0.950 . S
H1202 C1178 0.950 . S
H1203 C1179 0.949 . S
H1204 C1181 0.950 . S
H1205 C1183 0.940 1_545 S
C1206 C1207 1.349 1_554 S
C1206 C1208 1.327 . S
C1206 H1231 0.950 . S
C1207 C1206 1.349 1_556 S
C1207 C1223 1.349 . S
C1208 C1206 1.327 . S
C1208 C1227 1.429 . S
C1208 H1232 0.950 . S
C1209 C1226 1.574 . S
C1209 C1228 1.368 . S
C1209 H1233 0.949 . S
H1210 C1214 0.949 . S
C1211 C1212 1.349 . S
C1211 C1213 1.327 . S
C1211 H1234 0.950 . S
C1212 C1211 1.349 . S
C1212 C1224 1.349 . S
C1213 C1211 1.327 . S
C1213 C1229 1.429 . S
C1213 H1235 0.950 . S
C1214 H1210 0.949 . S
C1214 C1222 1.574 . S
C1214 C1230 1.368 . S
H1215 C1223 0.950 . S
H1216 C1221 0.950 . S
H1217 C1222 0.949 . S
H1218 C1224 0.950 . S
H1219 C1225 0.950 . S
H1220 C1226 0.949 . S
C1221 H1216 0.950 . S
C1221 C1223 1.327 1_554 S
C1221 C1227 1.429 . S
C1222 C1214 1.574 . S
C1222 H1217 0.949 . S
C1222 C1228 1.368 . S
C1223 C1207 1.349 . S
C1223 H1215 0.950 . S
C1223 C1221 1.327 1_556 S
C1224 C1212 1.349 . S
C1224 H1218 0.950 . S
C1224 C1225 1.327 . S
C1225 H1219 0.950 . S
C1225 C1224 1.327 . S
C1225 C1229 1.429 . S
C1226 C1209 1.574 . S
C1226 H1220 0.949 . S
C1226 C1230 1.368 . S
C1227 C1208 1.429 . S
C1227 C1221 1.429 . S
C1227 C1228 1.523 . S
C1228 C1209 1.368 . S
C1228 C1222 1.368 . S
C1228 C1227 1.523 . S
C1229 C1213 1.429 . S
C1229 C1225 1.429 . S
C1229 C1230 1.523 . S
C1230 C1214 1.368 . S
C1230 C1226 1.368 . S
C1230 C1229 1.523 . S
H1231 C1206 0.950 . S
H1232 C1208 0.950 . S
H1233 C1209 0.949 . S
H1234 C1211 0.950 . S
H1235 C1213 0.950 . S
C1236 C1237 1.349 . S
C1236 C1238 1.327 . S
C1236 H1261 0.950 . S
C1237 C1236 1.349 . S
C1237 C1253 1.349 . S
C1238 C1236 1.327 . S
C1238 C1257 1.429 . S
C1238 H1262 0.950 . S
C1239 C1256 1.574 . S
C1239 C1258 1.368 . S
C1239 H1263 0.949 . S
H1240 C1244 0.949 . S
C1241 C1242 1.349 . S
C1241 C1243 1.327 1_565 S
C1241 H1264 0.950 . S
C1242 C1241 1.349 . S
C1242 C1254 1.349 1_565 S
C1243 C1241 1.327 1_545 S
C1243 C1259 1.429 . S
C1243 H1265 0.944 1_545 S
C1244 H1240 0.949 . S
C1244 C1252 1.574 . S
C1244 C1260 1.368 . S
H1245 C1253 0.950 . S
H1246 C1251 0.950 . S
H1247 C1252 0.949 . S
H1248 C1254 0.950 . S
H1249 C1255 0.950 . S
H1250 C1256 0.949 . S
C1251 H1246 0.950 . S
C1251 C1253 1.327 . S
C1251 C1257 1.429 . S
C1252 C1244 1.574 . S
C1252 H1247 0.949 . S
C1252 C1258 1.368 . S
C1253 C1237 1.349 . S
C1253 H1245 0.950 . S
C1253 C1251 1.327 . S
C1254 C1242 1.349 1_545 S
C1254 H1248 0.950 . S
C1254 C1255 1.327 . S
C1255 H1249 0.950 . S
C1255 C1254 1.327 . S
C1255 C1259 1.429 . S
C1256 C1239 1.574 . S
C1256 H1250 0.949 . S
C1256 C1260 1.368 . S
C1257 C1238 1.429 . S
C1257 C1251 1.429 . S
C1257 C1258 1.523 . S
C1258 C1239 1.368 . S
C1258 C1252 1.368 . S
C1258 C1257 1.523 . S
C1259 C1243 1.429 . S
C1259 C1255 1.429 . S
C1259 C1260 1.523 . S
C1260 C1244 1.368 . S
C1260 C1256 1.368 . S
C1260 C1259 1.523 . S
H1261 C1236 0.950 . S
H1262 C1238 0.950 . S
H1263 C1239 0.949 . S
H1264 C1241 0.950 . S
H1265 C1243 0.944 1_565 S
C1266 C1267 1.349 . S
C1266 C1268 1.327 . S
C1266 H1291 0.950 . S
C1267 C1266 1.349 . S
C1267 C1283 1.349 . S
C1268 C1266 1.327 . S
C1268 C1287 1.429 . S
C1268 H1292 0.950 . S
C1269 C1286 1.574 . S
C1269 C1288 1.368 . S
C1269 H1293 0.949 . S
H1270 C1274 0.949 . S
C1271 C1272 1.349 . S
C1271 C1273 1.327 . S
C1271 H1294 0.950 . S
C1272 C1271 1.349 . S
C1272 C1284 1.349 . S
C1273 C1271 1.327 . S
C1273 C1289 1.429 . S
C1273 H1295 0.950 . S
C1274 H1270 0.949 . S
C1274 C1282 1.574 . S
C1274 C1290 1.368 . S
H1275 C1283 0.950 . S
H1276 C1281 0.950 . S
H1277 C1282 0.949 . S
H1278 C1284 0.950 . S
H1279 C1285 0.950 . S
H1280 C1286 0.949 . S
C1281 H1276 0.950 . S
C1281 C1283 1.327 . S
C1281 C1287 1.429 . S
C1282 C1274 1.574 . S
C1282 H1277 0.949 . S
C1282 C1288 1.368 . S
C1283 C1267 1.349 . S
C1283 H1275 0.950 . S
C1283 C1281 1.327 . S
C1284 C1272 1.349 . S
C1284 H1278 0.950 . S
C1284 C1285 1.327 . S
C1285 H1279 0.950 . S
C1285 C1284 1.327 . S
C1285 C1289 1.429 . S
C1286 C1269 1.574 . S
C1286 H1280 0.949 . S
C1286 C1290 1.368 . S
C1287 C1268 1.429 . S
C1287 C1281 1.429 . S
C1287 C1288 1.523 . S
C1288 C1269 1.368 . S
C1288 C1282 1.368 . S
C1288 C1287 1.523 . S
C1289 C1273 1.429 . S
C1289 C1285 1.429 . S
C1289 C1290 1.523 . S
C1290 C1274 1.368 . S
C1290 C1286 1.368 . S
C1290 C1289 1.523 . S
H1291 C1266 0.950 . S
H1292 C1268 0.950 . S
H1293 C1269 0.949 . S
H1294 C1271 0.950 . S
H1295 C1273 0.950 . S
C1296 C1297 1.349 . S
C1296 C1298 1.327 1_545 S
C1296 H1321 0.950 . S
C1297 C1296 1.349 . S
C1297 C1313 1.349 1_545 S
C1298 C1296 1.327 1_565 S
C1298 C1317 1.429 . S
C1298 H1322 0.950 . S
C1299 C1316 1.574 . S
C1299 C1318 1.368 . S
C1299 H1323 0.949 . S
H1300 C1304 0.949 . S
C1301 C1302 1.349 . S
C1301 C1303 1.327 . S
C1301 H1324 0.950 . S
C1302 C1301 1.349 . S
C1302 C1314 1.349 . S
C1303 C1301 1.327 . S
C1303 C1319 1.429 . S
C1303 H1325 0.950 . S
C1304 H1300 0.949 . S
C1304 C1312 1.574 . S
C1304 C1320 1.368 . S
H1305 C1313 0.950 . S
H1306 C1311 0.950 . S
H1307 C1312 0.949 . S
H1308 C1314 0.950 . S
H1309 C1315 0.950 . S
H1310 C1316 0.949 . S
C1311 H1306 0.950 . S
C1311 C1313 1.327 . S
C1311 C1317 1.429 . S
C1312 C1304 1.574 . S
C1312 H1307 0.949 . S
C1312 C1318 1.368 . S
C1313 C1297 1.349 1_565 S
C1313 H1305 0.950 . S
C1313 C1311 1.327 . S
C1314 C1302 1.349 . S
C1314 H1308 0.950 . S
C1314 C1315 1.327 . S
C1315 H1309 0.950 . S
C1315 C1314 1.327 . S
C1315 C1319 1.429 . S
C1316 C1299 1.574 . S
C1316 H1310 0.949 . S
C1316 C1320 1.368 . S
C1317 C1298 1.429 . S
C1317 C1311 1.429 . S
C1317 C1318 1.523 . S
C1318 C1299 1.368 . S
C1318 C1312 1.368 . S
C1318 C1317 1.523 . S
C1319 C1303 1.429 . S
C1319 C1315 1.429 . S
C1319 C1320 1.523 . S
C1320 C1304 1.368 . S
C1320 C1316 1.368 . S
C1320 C1319 1.523 . S
H1321 C1296 0.950 . S
H1322 C1298 0.950 . S
H1323 C1299 0.949 . S
H1324 C1301 0.950 . S
H1325 C1303 0.950 . S
C1326 C1327 1.349 . S
C1326 C1328 1.327 . S
C1326 H1351 0.950 . S
C1327 C1326 1.349 . S
C1327 C1343 1.349 . S
C1328 C1326 1.327 . S
C1328 C1347 1.429 . S
C1328 H1352 0.950 . S
C1329 C1346 1.574 . S
C1329 C1348 1.368 . S
C1329 H1353 0.949 . S
H1330 C1334 0.949 . S
C1331 C1332 1.349 . S
C1331 C1333 1.327 . S
C1331 H1354 0.950 . S
C1332 C1331 1.349 . S
C1332 C1344 1.349 . S
C1333 C1331 1.327 . S
C1333 C1349 1.429 . S
C1333 H1355 0.950 . S
C1334 H1330 0.949 . S
C1334 C1342 1.574 . S
C1334 C1350 1.368 . S
H1335 C1343 0.950 . S
H1336 C1341 0.950 . S
H1337 C1342 0.949 . S
H1338 C1344 0.950 . S
H1339 C1345 0.950 . S
H1340 C1346 0.949 . S
C1341 H1336 0.950 . S
C1341 C1343 1.327 . S
C1341 C1347 1.429 . S
C1342 C1334 1.574 . S
C1342 H1337 0.949 . S
C1342 C1348 1.368 . S
C1343 C1327 1.349 . S
C1343 H1335 0.950 . S
C1343 C1341 1.327 . S
C1344 C1332 1.349 . S
C1344 H1338 0.950 . S
C1344 C1345 1.327 . S
C1345 H1339 0.950 . S
C1345 C1344 1.327 . S
C1345 C1349 1.429 . S
C1346 C1329 1.574 . S
C1346 H1340 0.949 . S
C1346 C1350 1.368 . S
C1347 C1328 1.429 . S
C1347 C1341 1.429 . S
C1347 C1348 1.523 . S
C1348 C1329 1.368 . S
C1348 C1342 1.368 . S
C1348 C1347 1.523 . S
C1349 C1333 1.429 . S
C1349 C1345 1.429 . S
C1349 C1350 1.523 . S
C1350 C1334 1.368 . S
C1350 C1346 1.368 . S
C1350 C1349 1.523 . S
H1351 C1326 0.950 . S
H1352 C1328 0.950 . S
H1353 C1329 0.949 . S
H1354 C1331 0.950 . S
H1355 C1333 0.950 . S
C1356 C1357 1.349 . S
C1356 C1358 1.327 . S
C1356 H1381 0.950 . S
C1357 C1356 1.349 . S
C1357 C1373 1.349 . S
C1358 C1356 1.327 . S
C1358 C1377 1.429 . S
C1358 H1382 0.950 . S
C1359 C1376 1.574 . S
C1359 C1378 1.368 . S
C1359 H1383 0.949 . S
H1360 C1364 0.949 . S
C1361 C1362 1.349 . S
C1361 C1363 1.327 1_565 S
C1361 H1384 0.950 . S
C1362 C1361 1.349 . S
C1362 C1374 1.349 1_565 S
C1363 C1361 1.327 1_545 S
C1363 C1379 1.429 . S
C1363 H1385 0.957 . S
C1364 H1360 0.949 . S
C1364 C1372 1.574 . S
C1364 C1380 1.368 . S
H1365 C1373 0.950 . S
H1366 C1371 0.950 . S
H1367 C1372 0.949 . S
H1368 C1374 0.950 . S
H1369 C1375 0.950 . S
H1370 C1376 0.949 . S
C1371 H1366 0.950 . S
C1371 C1373 1.327 . S
C1371 C1377 1.429 . S
C1372 C1364 1.574 . S
C1372 H1367 0.949 . S
C1372 C1378 1.368 . S
C1373 C1357 1.349 . S
C1373 H1365 0.950 . S
C1373 C1371 1.327 . S
C1374 C1362 1.349 1_545 S
C1374 H1368 0.950 . S
C1374 C1375 1.327 . S
C1375 H1369 0.950 . S
C1375 C1374 1.327 . S
C1375 C1379 1.429 . S
C1376 C1359 1.574 . S
C1376 H1370 0.949 . S
C1376 C1380 1.368 . S
C1377 C1358 1.429 . S
C1377 C1371 1.429 . S
C1377 C1378 1.523 . S
C1378 C1359 1.368 . S
C1378 C1372 1.368 . S
C1378 C1377 1.523 . S
C1379 C1363 1.429 . S
C1379 C1375 1.429 . S
C1379 C1380 1.523 . S
C1380 C1364 1.368 . S
C1380 C1376 1.368 . S
C1380 C1379 1.523 . S
H1381 C1356 0.950 . S
H1382 C1358 0.950 . S
H1383 C1359 0.949 . S
H1384 C1361 0.950 . S
H1385 C1363 0.957 . S
C1386 C1387 1.349 . S
C1386 C1388 1.327 1_556 S
C1386 H1411 0.950 . S
C1387 C1386 1.349 . S
C1387 C1403 1.349 1_556 S
C1388 C1386 1.327 1_554 S
C1388 C1407 1.429 . S
C1388 H1412 0.950 . S
C1389 C1406 1.574 . S
C1389 C1408 1.368 . S
C1389 H1413 0.949 . S
H1390 C1394 0.949 . S
C1391 C1392 1.349 . S
C1391 C1393 1.327 . S
C1391 H1414 0.950 . S
C1392 C1391 1.349 . S
C1392 C1404 1.349 . S
C1393 C1391 1.327 . S
C1393 C1409 1.429 . S
C1393 H1415 0.950 . S
C1394 H1390 0.949 . S
C1394 C1402 1.574 . S
C1394 C1410 1.368 . S
H1395 C1403 0.950 . S
H1396 C1401 0.950 . S
H1397 C1402 0.949 . S
H1398 C1404 0.950 . S
H1399 C1405 0.950 . S
H1400 C1406 0.949 . S
C1401 H1396 0.950 . S
C1401 C1403 1.327 . S
C1401 C1407 1.429 . S
C1402 C1394 1.574 . S
C1402 H1397 0.949 . S
C1402 C1408 1.368 . S
C1403 C1387 1.349 1_554 S
C1403 H1395 0.950 . S
C1403 C1401 1.327 . S
C1404 C1392 1.349 . S
C1404 H1398 0.950 . S
C1404 C1405 1.327 . S
C1405 H1399 0.950 . S
C1405 C1404 1.327 . S
C1405 C1409 1.429 . S
C1406 C1389 1.574 . S
C1406 H1400 0.949 . S
C1406 C1410 1.368 . S
C1407 C1388 1.429 . S
C1407 C1401 1.429 . S
C1407 C1408 1.523 . S
C1408 C1389 1.368 . S
C1408 C1402 1.368 . S
C1408 C1407 1.523 . S
C1409 C1393 1.429 . S
C1409 C1405 1.429 . S
C1409 C1410 1.523 . S
C1410 C1394 1.368 . S
C1410 C1406 1.368 . S
C1410 C1409 1.523 . S
H1411 C1386 0.950 . S
H1412 C1388 0.950 . S
H1413 C1389 0.949 . S
H1414 C1391 0.950 . S
H1415 C1393 0.950 . S
C1416 C1417 1.349 . S
C1416 C1418 1.327 . S
C1416 H1441 0.950 . S
C1417 C1416 1.349 . S
C1417 C1433 1.349 . S
C1418 C1416 1.327 . S
C1418 C1437 1.429 . S
C1418 H1442 0.950 . S
C1419 C1436 1.574 . S
C1419 C1438 1.368 . S
C1419 H1443 0.949 . S
H1420 C1424 0.949 . S
C1421 C1422 1.349 1_545 S
C1421 C1423 1.327 . S
C1421 H1444 0.950 . S
C1422 C1421 1.349 1_565 S
C1422 C1434 1.349 . S
C1423 C1421 1.327 . S
C1423 C1439 1.429 . S
C1423 H1445 0.950 . S
C1424 H1420 0.949 . S
C1424 C1432 1.574 . S
C1424 C1440 1.368 . S
H1425 C1433 0.950 . S
H1426 C1431 0.950 . S
H1427 C1432 0.949 . S
H1428 C1434 0.950 . S
H1429 C1435 0.950 . S
H1430 C1436 0.949 . S
C1431 H1426 0.950 . S
C1431 C1433 1.327 . S
C1431 C1437 1.429 . S
C1432 C1424 1.574 . S
C1432 H1427 0.949 . S
C1432 C1438 1.368 . S
C1433 C1417 1.349 . S
C1433 H1425 0.950 . S
C1433 C1431 1.327 . S
C1434 C1422 1.349 . S
C1434 H1428 0.950 . S
C1434 C1435 1.327 1_565 S
C1435 H1429 0.950 . S
C1435 C1434 1.327 1_545 S
C1435 C1439 1.429 . S
C1436 C1419 1.574 . S
C1436 H1430 0.949 . S
C1436 C1440 1.368 . S
C1437 C1418 1.429 . S
C1437 C1431 1.429 . S
C1437 C1438 1.523 . S
C1438 C1419 1.368 . S
C1438 C1432 1.368 . S
C1438 C1437 1.523 . S
C1439 C1423 1.429 . S
C1439 C1435 1.429 . S
C1439 C1440 1.523 . S
C1440 C1424 1.368 . S
C1440 C1436 1.368 . S
C1440 C1439 1.523 . S
H1441 C1416 0.950 . S
H1442 C1418 0.950 . S
H1443 C1419 0.949 . S
H1444 C1421 0.950 . S
H1445 C1423 0.950 . S
C1446 C1447 1.349 . S
C1446 C1448 1.327 . S
C1446 H1471 0.950 . S
C1447 C1446 1.349 . S
C1447 C1463 1.349 . S
C1448 C1446 1.327 . S
C1448 C1467 1.429 . S
C1448 H1472 0.950 . S
C1449 C1466 1.574 . S
C1449 C1468 1.368 . S
C1449 H1473 0.949 . S
H1450 C1454 0.949 . S
C1451 C1452 1.349 1_556 S
C1451 C1453 1.327 . S
C1451 H1474 0.950 . S
C1452 C1451 1.349 1_554 S
C1452 C1464 1.349 . S
C1453 C1451 1.327 . S
C1453 C1469 1.429 . S
C1453 H1475 0.950 . S
C1454 H1450 0.949 . S
C1454 C1462 1.574 . S
C1454 C1470 1.368 . S
H1455 C1463 0.950 . S
H1456 C1461 0.950 . S
H1457 C1462 0.949 . S
H1458 C1464 0.950 . S
H1459 C1465 0.950 . S
H1460 C1466 0.949 . S
C1461 H1456 0.950 . S
C1461 C1463 1.327 . S
C1461 C1467 1.429 . S
C1462 C1454 1.574 . S
C1462 H1457 0.949 . S
C1462 C1468 1.368 . S
C1463 C1447 1.349 . S
C1463 H1455 0.950 . S
C1463 C1461 1.327 . S
C1464 C1452 1.349 . S
C1464 H1458 0.950 . S
C1464 C1465 1.327 1_554 S
C1465 H1459 0.950 . S
C1465 C1464 1.327 1_556 S
C1465 C1469 1.429 . S
C1466 C1449 1.574 . S
C1466 H1460 0.949 . S
C1466 C1470 1.368 . S
C1467 C1448 1.429 . S
C1467 C1461 1.429 . S
C1467 C1468 1.523 . S
C1468 C1449 1.368 . S
C1468 C1462 1.368 . S
C1468 C1467 1.523 . S
C1469 C1453 1.429 . S
C1469 C1465 1.429 . S
C1469 C1470 1.523 . S
C1470 C1454 1.368 . S
C1470 C1466 1.368 . S
C1470 C1469 1.523 . S
H1471 C1446 0.950 . S
H1472 C1448 0.950 . S
H1473 C1449 0.949 . S
H1474 C1451 0.950 . S
H1475 C1453 0.950 . S
C1476 C1477 1.346 . S
C1476 C1478 1.333 1_545 S
C1476 H1501 0.947 . S
C1477 C1476 1.346 . S
C1477 C1493 1.332 1_545 S
C1478 C1476 1.333 1_565 S
C1478 C1497 1.429 . S
C1478 H1502 0.950 . S
C1479 C1496 1.574 . S
C1479 C1498 1.368 . S
C1479 H1503 0.949 . S
H1480 C1484 0.949 . S
C1481 C1482 1.349 . S
C1481 C1483 1.327 . S
C1481 H1504 0.950 . S
C1482 C1481 1.349 . S
C1482 C1494 1.349 . S
C1483 C1481 1.327 . S
C1483 C1499 1.429 . S
C1483 H1505 0.950 . S
C1484 H1480 0.949 . S
C1484 C1492 1.574 . S
C1484 C1500 1.368 . S
H1485 C1493 0.935 1_545 S
H1486 C1491 0.950 . S
H1487 C1492 0.949 . S
H1488 C1494 0.950 . S
H1489 C1495 0.950 . S
H1490 C1496 0.949 . S
C1491 H1486 0.950 . S
C1491 C1493 1.360 . S
C1491 C1497 1.429 . S
C1492 C1484 1.574 . S
C1492 H1487 0.949 . S
C1492 C1498 1.368 . S
C1493 C1477 1.332 1_565 S
C1493 H1485 0.935 1_565 S
C1493 C1491 1.360 . S
C1494 C1482 1.349 . S
C1494 H1488 0.950 . S
C1494 C1495 1.327 . S
C1495 H1489 0.950 . S
C1495 C1494 1.327 . S
C1495 C1499 1.429 . S
C1496 C1479 1.574 . S
C1496 H1490 0.949 . S
C1496 C1500 1.368 . S
C1497 C1478 1.429 . S
C1497 C1491 1.429 . S
C1497 C1498 1.523 . S
C1498 C1479 1.368 . S
C1498 C1492 1.368 . S
C1498 C1497 1.523 . S
C1499 C1483 1.429 . S
C1499 C1495 1.429 . S
C1499 C1500 1.523 . S
C1500 C1484 1.368 . S
C1500 C1496 1.368 . S
C1500 C1499 1.523 . S
H1501 C1476 0.947 . S
H1502 C1478 0.950 . S
H1503 C1479 0.949 . S
H1504 C1481 0.950 . S
H1505 C1483 0.950 . S
C1506 C1507 1.349 . S
C1506 C1508 1.327 . S
C1506 H1531 0.950 . S
C1507 C1506 1.349 . S
C1507 C1523 1.349 . S
C1508 C1506 1.327 . S
C1508 C1527 1.429 . S
C1508 H1532 0.950 . S
C1509 C1526 1.574 . S
C1509 C1528 1.368 . S
C1509 H1533 0.949 . S
H1510 C1514 0.949 . S
C1511 C1512 1.349 . S
C1511 C1513 1.327 . S
C1511 H1534 0.950 . S
C1512 C1511 1.349 . S
C1512 C1524 1.349 . S
C1513 C1511 1.327 . S
C1513 C1529 1.429 . S
C1513 H1535 0.950 . S
C1514 H1510 0.949 . S
C1514 C1522 1.574 . S
C1514 C1530 1.368 . S
H1515 C1523 0.950 . S
H1516 C1521 0.950 . S
H1517 C1522 0.949 . S
H1518 C1524 0.950 . S
H1519 C1525 0.950 . S
H1520 C1526 0.949 . S
C1521 H1516 0.950 . S
C1521 C1523 1.327 . S
C1521 C1527 1.429 . S
C1522 C1514 1.574 . S
C1522 H1517 0.949 . S
C1522 C1528 1.368 . S
C1523 C1507 1.349 . S
C1523 H1515 0.950 . S
C1523 C1521 1.327 . S
C1524 C1512 1.349 . S
C1524 H1518 0.950 . S
C1524 C1525 1.327 . S
C1525 H1519 0.950 . S
C1525 C1524 1.327 . S
C1525 C1529 1.429 . S
C1526 C1509 1.574 . S
C1526 H1520 0.949 . S
C1526 C1530 1.368 . S
C1527 C1508 1.429 . S
C1527 C1521 1.429 . S
C1527 C1528 1.523 . S
C1528 C1509 1.368 . S
C1528 C1522 1.368 . S
C1528 C1527 1.523 . S
C1529 C1513 1.429 . S
C1529 C1525 1.429 . S
C1529 C1530 1.523 . S
C1530 C1514 1.368 . S
C1530 C1526 1.368 . S
C1530 C1529 1.523 . S
H1531 C1506 0.950 . S
H1532 C1508 0.950 . S
H1533 C1509 0.949 . S
H1534 C1511 0.950 . S
H1535 C1513 0.950 . S
C1536 C1537 1.349 . S
C1536 C1538 1.327 . S
C1536 H1561 0.950 . S
C1537 C1536 1.349 . S
C1537 C1553 1.349 . S
C1538 C1536 1.327 . S
C1538 C1557 1.429 . S
C1538 H1562 0.950 . S
C1539 C1556 1.574 . S
C1539 C1558 1.368 . S
C1539 H1563 0.949 . S
H1540 C1544 0.949 . S
C1541 C1542 1.349 . S
C1541 C1543 1.327 . S
C1541 H1564 0.950 . S
C1542 C1541 1.349 . S
C1542 C1554 1.349 . S
C1543 C1541 1.327 . S
C1543 C1559 1.429 . S
C1543 H1565 0.950 . S
C1544 H1540 0.949 . S
C1544 C1552 1.574 . S
C1544 C1560 1.368 . S
H1545 C1553 0.950 . S
H1546 C1551 0.950 . S
H1547 C1552 0.949 . S
H1548 C1554 0.950 . S
H1549 C1555 0.950 . S
H1550 C1556 0.949 . S
C1551 H1546 0.950 . S
C1551 C1553 1.327 . S
C1551 C1557 1.429 . S
C1552 C1544 1.574 . S
C1552 H1547 0.949 . S
C1552 C1558 1.368 . S
C1553 C1537 1.349 . S
C1553 H1545 0.950 . S
C1553 C1551 1.327 . S
C1554 C1542 1.349 . S
C1554 H1548 0.950 . S
C1554 C1555 1.327 . S
C1555 H1549 0.950 . S
C1555 C1554 1.327 . S
C1555 C1559 1.429 . S
C1556 C1539 1.574 . S
C1556 H1550 0.949 . S
C1556 C1560 1.368 . S
C1557 C1538 1.429 . S
C1557 C1551 1.429 . S
C1557 C1558 1.523 . S
C1558 C1539 1.368 . S
C1558 C1552 1.368 . S
C1558 C1557 1.523 . S
C1559 C1543 1.429 . S
C1559 C1555 1.429 . S
C1559 C1560 1.523 . S
C1560 C1544 1.368 . S
C1560 C1556 1.368 . S
C1560 C1559 1.523 . S
H1561 C1536 0.950 . S
H1562 C1538 0.950 . S
H1563 C1539 0.949 . S
H1564 C1541 0.950 . S
H1565 C1543 0.950 . S
C1566 C1567 1.349 . S
C1566 C1568 1.327 . S
C1566 H1591 0.950 . S
C1567 C1566 1.349 . S
C1567 C1583 1.349 . S
C1568 C1566 1.327 . S
C1568 C1587 1.429 . S
C1568 H1592 0.950 . S
C1569 C1586 1.574 . S
C1569 C1588 1.368 . S
C1569 H1593 0.949 . S
H1570 C1574 0.949 . S
C1571 C1572 1.349 1_556 S
C1571 C1573 1.327 . S
C1571 H1594 0.950 . S
C1572 C1571 1.349 1_554 S
C1572 C1584 1.349 . S
C1573 C1571 1.327 . S
C1573 C1589 1.429 . S
C1573 H1595 0.950 . S
C1574 H1570 0.949 . S
C1574 C1582 1.574 . S
C1574 C1590 1.368 . S
H1575 C1583 0.950 . S
H1576 C1581 0.950 . S
H1577 C1582 0.949 . S
H1578 C1584 0.950 . S
H1579 C1585 0.950 1_554 S
H1580 C1586 0.949 . S
C1581 H1576 0.950 . S
C1581 C1583 1.327 . S
C1581 C1587 1.429 . S
C1582 C1574 1.574 . S
C1582 H1577 0.949 . S
C1582 C1588 1.368 . S
C1583 C1567 1.349 . S
C1583 H1575 0.950 . S
C1583 C1581 1.327 . S
C1584 C1572 1.349 . S
C1584 H1578 0.950 . S
C1584 C1585 1.327 1_554 S
C1585 H1579 0.950 1_556 S
C1585 C1584 1.327 1_556 S
C1585 C1589 1.429 . S
C1586 C1569 1.574 . S
C1586 H1580 0.949 . S
C1586 C1590 1.368 . S
C1587 C1568 1.429 . S
C1587 C1581 1.429 . S
C1587 C1588 1.523 . S
C1588 C1569 1.368 . S
C1588 C1582 1.368 . S
C1588 C1587 1.523 . S
C1589 C1573 1.429 . S
C1589 C1585 1.429 . S
C1589 C1590 1.523 . S
C1590 C1574 1.368 . S
C1590 C1586 1.368 . S
C1590 C1589 1.523 . S
H1591 C1566 0.950 . S
H1592 C1568 0.950 . S
H1593 C1569 0.949 . S
H1594 C1571 0.950 . S
H1595 C1573 0.950 . S
C1596 C1597 1.349 . S
C1596 C1598 1.327 . S
C1596 H1621 0.950 . S
C1597 C1596 1.349 . S
C1597 C1613 1.349 . S
C1598 C1596 1.327 . S
C1598 C1617 1.429 . S
C1598 H1622 0.950 . S
C1599 C1616 1.574 . S
C1599 C1618 1.368 . S
C1599 H1623 0.949 . S
H1600 C1604 0.949 . S
C1601 C1602 1.349 . S
C1601 C1603 1.327 . S
C1601 H1624 0.950 . S
C1602 C1601 1.349 . S
C1602 C1614 1.349 . S
C1603 C1601 1.327 . S
C1603 C1619 1.429 . S
C1603 H1625 0.950 . S
C1604 H1600 0.949 . S
C1604 C1612 1.574 . S
C1604 C1620 1.368 . S
H1605 C1613 0.950 . S
H1606 C1611 0.950 . S
H1607 C1612 0.949 . S
H1608 C1614 0.950 . S
H1609 C1615 0.950 . S
H1610 C1616 0.949 . S
C1611 H1606 0.950 . S
C1611 C1613 1.327 . S
C1611 C1617 1.429 . S
C1612 C1604 1.574 . S
C1612 H1607 0.949 . S
C1612 C1618 1.368 . S
C1613 C1597 1.349 . S
C1613 H1605 0.950 . S
C1613 C1611 1.327 . S
C1614 C1602 1.349 . S
C1614 H1608 0.950 . S
C1614 C1615 1.327 . S
C1615 H1609 0.950 . S
C1615 C1614 1.327 . S
C1615 C1619 1.429 . S
C1616 C1599 1.574 . S
C1616 H1610 0.949 . S
C1616 C1620 1.368 . S
C1617 C1598 1.429 . S
C1617 C1611 1.429 . S
C1617 C1618 1.523 . S
C1618 C1599 1.368 . S
C1618 C1612 1.368 . S
C1618 C1617 1.523 . S
C1619 C1603 1.429 . S
C1619 C1615 1.429 . S
C1619 C1620 1.523 . S
C1620 C1604 1.368 . S
C1620 C1616 1.368 . S
C1620 C1619 1.523 . S
H1621 C1596 0.950 . S
H1622 C1598 0.950 . S
H1623 C1599 0.949 . S
H1624 C1601 0.950 . S
H1625 C1603 0.950 . S
C1626 C1627 1.349 . S
C1626 C1628 1.327 . S
C1626 H1651 0.950 . S
C1627 C1626 1.349 . S
C1627 C1643 1.349 . S
C1628 C1626 1.327 . S
C1628 C1647 1.429 . S
C1628 H1652 0.950 . S
C1629 C1646 1.574 . S
C1629 C1648 1.368 . S
C1629 H1653 0.949 . S
H1630 C1634 0.949 . S
C1631 C1632 1.349 . S
C1631 C1633 1.327 . S
C1631 H1654 0.950 . S
C1632 C1631 1.349 . S
C1632 C1644 1.349 . S
C1633 C1631 1.327 . S
C1633 C1649 1.429 . S
C1633 H1655 0.950 . S
C1634 H1630 0.949 . S
C1634 C1642 1.574 . S
C1634 C1650 1.368 . S
H1635 C1643 0.950 . S
H1636 C1641 0.950 . S
H1637 C1642 0.949 . S
H1638 C1644 0.950 . S
H1639 C1645 0.950 . S
H1640 C1646 0.949 . S
C1641 H1636 0.950 . S
C1641 C1643 1.327 . S
C1641 C1647 1.429 . S
C1642 C1634 1.574 . S
C1642 H1637 0.949 . S
C1642 C1648 1.368 . S
C1643 C1627 1.349 . S
C1643 H1635 0.950 . S
C1643 C1641 1.327 . S
C1644 C1632 1.349 . S
C1644 H1638 0.950 . S
C1644 C1645 1.327 . S
C1645 H1639 0.950 . S
C1645 C1644 1.327 . S
C1645 C1649 1.429 . S
C1646 C1629 1.574 . S
C1646 H1640 0.949 . S
C1646 C1650 1.368 . S
C1647 C1628 1.429 . S
C1647 C1641 1.429 . S
C1647 C1648 1.523 . S
C1648 C1629 1.368 . S
C1648 C1642 1.368 . S
C1648 C1647 1.523 . S
C1649 C1633 1.429 . S
C1649 C1645 1.429 . S
C1649 C1650 1.523 . S
C1650 C1634 1.368 . S
C1650 C1646 1.368 . S
C1650 C1649 1.523 . S
H1651 C1626 0.950 . S
H1652 C1628 0.950 . S
H1653 C1629 0.949 . S
H1654 C1631 0.950 . S
H1655 C1633 0.950 . S
C1656 C1657 1.349 . S
C1656 C1658 1.327 . S
C1656 H1681 0.950 . S
C1657 C1656 1.349 . S
C1657 C1673 1.349 . S
C1658 C1656 1.327 . S
C1658 C1677 1.429 . S
C1658 H1682 0.950 . S
C1659 C1676 1.574 . S
C1659 C1678 1.368 . S
C1659 H1683 0.949 . S
H1660 C1664 0.949 . S
C1661 C1662 1.349 . S
C1661 C1663 1.327 . S
C1661 H1684 0.950 . S
C1662 C1661 1.349 . S
C1662 C1674 1.349 . S
C1663 C1661 1.327 . S
C1663 C1679 1.429 . S
C1663 H1685 0.950 . S
C1664 H1660 0.949 . S
C1664 C1672 1.574 . S
C1664 C1680 1.368 . S
H1665 C1673 0.950 . S
H1666 C1671 0.950 . S
H1667 C1672 0.949 . S
H1668 C1674 0.950 . S
H1669 C1675 0.950 . S
H1670 C1676 0.949 . S
C1671 H1666 0.950 . S
C1671 C1673 1.327 . S
C1671 C1677 1.429 . S
C1672 C1664 1.574 . S
C1672 H1667 0.949 . S
C1672 C1678 1.368 . S
C1673 C1657 1.349 . S
C1673 H1665 0.950 . S
C1673 C1671 1.327 . S
C1674 C1662 1.349 . S
C1674 H1668 0.950 . S
C1674 C1675 1.327 . S
C1675 H1669 0.950 . S
C1675 C1674 1.327 . S
C1675 C1679 1.429 . S
C1676 C1659 1.574 . S
C1676 H1670 0.949 . S
C1676 C1680 1.368 . S
C1677 C1658 1.429 . S
C1677 C1671 1.429 . S
C1677 C1678 1.523 . S
C1678 C1659 1.368 . S
C1678 C1672 1.368 . S
C1678 C1677 1.523 . S
C1679 C1663 1.429 . S
C1679 C1675 1.429 . S
C1679 C1680 1.523 . S
C1680 C1664 1.368 . S
C1680 C1676 1.368 . S
C1680 C1679 1.523 . S
H1681 C1656 0.950 . S
H1682 C1658 0.950 . S
H1683 C1659 0.949 . S
H1684 C1661 0.950 . S
H1685 C1663 0.950 . S
C1686 C1687 1.349 . S
C1686 C1688 1.327 . S
C1686 H1711 0.950 . S
C1687 C1686 1.349 . S
C1687 C1703 1.349 . S
C1688 C1686 1.327 . S
C1688 C1707 1.429 . S
C1688 H1712 0.950 . S
C1689 C1706 1.574 . S
C1689 C1708 1.368 . S
C1689 H1713 0.949 . S
H1690 C1694 0.949 . S
C1691 C1692 1.349 . S
C1691 C1693 1.327 . S
C1691 H1714 0.950 . S
C1692 C1691 1.349 . S
C1692 C1704 1.349 . S
C1693 C1691 1.327 . S
C1693 C1709 1.429 . S
C1693 H1715 0.950 . S
C1694 H1690 0.949 . S
C1694 C1702 1.574 . S
C1694 C1710 1.368 . S
H1695 C1703 0.950 . S
H1696 C1701 0.950 . S
H1697 C1702 0.949 . S
H1698 C1704 0.950 . S
H1699 C1705 0.950 . S
H1700 C1706 0.949 . S
C1701 H1696 0.950 . S
C1701 C1703 1.327 . S
C1701 C1707 1.429 . S
C1702 C1694 1.574 . S
C1702 H1697 0.949 . S
C1702 C1708 1.368 . S
C1703 C1687 1.349 . S
C1703 H1695 0.950 . S
C1703 C1701 1.327 . S
C1704 C1692 1.349 . S
C1704 H1698 0.950 . S
C1704 C1705 1.327 . S
C1705 H1699 0.950 . S
C1705 C1704 1.327 . S
C1705 C1709 1.429 . S
C1706 C1689 1.574 . S
C1706 H1700 0.949 . S
C1706 C1710 1.368 . S
C1707 C1688 1.429 . S
C1707 C1701 1.429 . S
C1707 C1708 1.523 . S
C1708 C1689 1.368 . S
C1708 C1702 1.368 . S
C1708 C1707 1.523 . S
C1709 C1693 1.429 . S
C1709 C1705 1.429 . S
C1709 C1710 1.523 . S
C1710 C1694 1.368 . S
C1710 C1706 1.368 . S
C1710 C1709 1.523 . S
H1711 C1686 0.950 . S
H1712 C1688 0.950 . S
H1713 C1689 0.949 . S
H1714 C1691 0.950 . S
H1715 C1693 0.950 . S
C1716 C1717 1.349 . S
C1716 C1718 1.327 . S
C1716 H1741 0.950 . S
C1717 C1716 1.349 . S
C1717 C1733 1.349 . S
C1718 C1716 1.327 . S
C1718 C1737 1.429 . S
C1718 H1742 0.950 . S
C1719 C1736 1.574 . S
C1719 C1738 1.368 . S
C1719 H1743 0.949 . S
H1720 C1724 0.949 . S
C1721 C1722 1.349 . S
C1721 C1723 1.327 . S
C1721 H1744 0.950 . S
C1722 C1721 1.349 . S
C1722 C1734 1.349 . S
C1723 C1721 1.327 . S
C1723 C1739 1.429 . S
C1723 H1745 0.950 . S
C1724 H1720 0.949 . S
C1724 C1732 1.574 . S
C1724 C1740 1.368 . S
H1725 C1733 0.950 . S
H1726 C1731 0.950 . S
H1727 C1732 0.949 . S
H1728 C1734 0.950 . S
H1729 C1735 0.950 . S
H1730 C1736 0.949 . S
C1731 H1726 0.950 . S
C1731 C1733 1.327 . S
C1731 C1737 1.429 . S
C1732 C1724 1.574 . S
C1732 H1727 0.949 . S
C1732 C1738 1.368 . S
C1733 C1717 1.349 . S
C1733 H1725 0.950 . S
C1733 C1731 1.327 . S
C1734 C1722 1.349 . S
C1734 H1728 0.950 . S
C1734 C1735 1.327 . S
C1735 H1729 0.950 . S
C1735 C1734 1.327 . S
C1735 C1739 1.429 . S
C1736 C1719 1.574 . S
C1736 H1730 0.949 . S
C1736 C1740 1.368 . S
C1737 C1718 1.429 . S
C1737 C1731 1.429 . S
C1737 C1738 1.523 . S
C1738 C1719 1.368 . S
C1738 C1732 1.368 . S
C1738 C1737 1.523 . S
C1739 C1723 1.429 . S
C1739 C1735 1.429 . S
C1739 C1740 1.523 . S
C1740 C1724 1.368 . S
C1740 C1736 1.368 . S
C1740 C1739 1.523 . S
H1741 C1716 0.950 . S
H1742 C1718 0.950 . S
H1743 C1719 0.949 . S
H1744 C1721 0.950 . S
H1745 C1723 0.950 . S
C1746 C1747 1.349 . S
C1746 C1748 1.327 . S
C1746 H1771 0.950 . S
C1747 C1746 1.349 . S
C1747 C1763 1.349 . S
C1748 C1746 1.327 . S
C1748 C1767 1.429 . S
C1748 H1772 0.950 . S
C1749 C1766 1.574 . S
C1749 C1768 1.368 . S
C1749 H1773 0.949 . S
H1750 C1754 0.949 . S
C1751 C1752 1.349 1_554 S
C1751 C1753 1.327 . S
C1751 H1774 0.950 . S
C1752 C1751 1.349 1_556 S
C1752 C1764 1.349 . S
C1753 C1751 1.327 . S
C1753 C1769 1.429 . S
C1753 H1775 0.950 . S
C1754 H1750 0.949 . S
C1754 C1762 1.574 . S
C1754 C1770 1.368 . S
H1755 C1763 0.950 . S
H1756 C1761 0.950 . S
H1757 C1762 0.949 . S
H1758 C1764 0.950 . S
H1759 C1765 0.950 1_556 S
H1760 C1766 0.949 . S
C1761 H1756 0.950 . S
C1761 C1763 1.327 . S
C1761 C1767 1.429 . S
C1762 C1754 1.574 . S
C1762 H1757 0.949 . S
C1762 C1768 1.368 . S
C1763 C1747 1.349 . S
C1763 H1755 0.950 . S
C1763 C1761 1.327 . S
C1764 C1752 1.349 . S
C1764 H1758 0.950 . S
C1764 C1765 1.327 1_556 S
C1765 H1759 0.950 1_554 S
C1765 C1764 1.327 1_554 S
C1765 C1769 1.429 . S
C1766 C1749 1.574 . S
C1766 H1760 0.949 . S
C1766 C1770 1.368 . S
C1767 C1748 1.429 . S
C1767 C1761 1.429 . S
C1767 C1768 1.523 . S
C1768 C1749 1.368 . S
C1768 C1762 1.368 . S
C1768 C1767 1.523 . S
C1769 C1753 1.429 . S
C1769 C1765 1.429 . S
C1769 C1770 1.523 . S
C1770 C1754 1.368 . S
C1770 C1766 1.368 . S
C1770 C1769 1.523 . S
H1771 C1746 0.950 . S
H1772 C1748 0.950 . S
H1773 C1749 0.949 . S
H1774 C1751 0.950 . S
H1775 C1753 0.950 . S
C1776 C1777 1.349 . S
C1776 C1778 1.327 . S
C1776 H1801 0.950 . S
C1777 C1776 1.349 . S
C1777 C1793 1.349 . S
C1778 C1776 1.327 . S
C1778 C1797 1.429 . S
C1778 H1802 0.950 . S
C1779 C1796 1.574 . S
C1779 C1798 1.368 . S
C1779 H1803 0.949 . S
H1780 C1784 0.949 . S
C1781 C1782 1.349 . S
C1781 C1783 1.327 . S
C1781 H1804 0.950 . S
C1782 C1781 1.349 . S
C1782 C1794 1.349 . S
C1783 C1781 1.327 . S
C1783 C1799 1.429 . S
C1783 H1805 0.950 . S
C1784 H1780 0.949 . S
C1784 C1792 1.574 . S
C1784 C1800 1.368 . S
H1785 C1793 0.950 . S
H1786 C1791 0.950 . S
H1787 C1792 0.949 . S
H1788 C1794 0.950 . S
H1789 C1795 0.950 . S
H1790 C1796 0.949 . S
C1791 H1786 0.950 . S
C1791 C1793 1.327 . S
C1791 C1797 1.429 . S
C1792 C1784 1.574 . S
C1792 H1787 0.949 . S
C1792 C1798 1.368 . S
C1793 C1777 1.349 . S
C1793 H1785 0.950 . S
C1793 C1791 1.327 . S
C1794 C1782 1.349 . S
C1794 H1788 0.950 . S
C1794 C1795 1.327 . S
C1795 H1789 0.950 . S
C1795 C1794 1.327 . S
C1795 C1799 1.429 . S
C1796 C1779 1.574 . S
C1796 H1790 0.949 . S
C1796 C1800 1.368 . S
C1797 C1778 1.429 . S
C1797 C1791 1.429 . S
C1797 C1798 1.523 . S
C1798 C1779 1.368 . S
C1798 C1792 1.368 . S
C1798 C1797 1.523 . S
C1799 C1783 1.429 . S
C1799 C1795 1.429 . S
C1799 C1800 1.523 . S
C1800 C1784 1.368 . S
C1800 C1796 1.368 . S
C1800 C1799 1.523 . S
H1801 C1776 0.950 . S
H1802 C1778 0.950 . S
H1803 C1779 0.949 . S
H1804 C1781 0.950 . S
H1805 C1783 0.950 . S
C1806 C1807 1.349 . S
C1806 C1808 1.327 . S
C1806 H1831 0.950 . S
C1807 C1806 1.349 . S
C1807 C1823 1.349 . S
C1808 C1806 1.327 . S
C1808 C1827 1.429 . S
C1808 H1832 0.950 . S
C1809 C1826 1.574 . S
C1809 C1828 1.368 . S
C1809 H1833 0.949 . S
H1810 C1814 0.949 . S
C1811 C1812 1.349 1_554 S
C1811 C1813 1.327 . S
C1811 H1834 0.950 . S
C1812 C1811 1.349 1_556 S
C1812 C1824 1.349 1_556 S
C1813 C1811 1.327 . S
C1813 C1829 1.429 . S
C1813 H1835 0.950 . S
C1814 H1810 0.949 . S
C1814 C1822 1.574 . S
C1814 C1830 1.368 . S
H1815 C1823 0.950 . S
H1816 C1821 0.950 . S
H1817 C1822 0.949 . S
H1818 C1824 0.950 1_556 S
H1819 C1825 0.950 . S
H1820 C1826 0.949 . S
C1821 H1816 0.950 . S
C1821 C1823 1.327 . S
C1821 C1827 1.429 . S
C1822 C1814 1.574 . S
C1822 H1817 0.949 . S
C1822 C1828 1.368 . S
C1823 C1807 1.349 . S
C1823 H1815 0.950 . S
C1823 C1821 1.327 . S
C1824 C1812 1.349 1_554 S
C1824 H1818 0.950 1_554 S
C1824 C1825 1.327 . S
C1825 H1819 0.950 . S
C1825 C1824 1.327 . S
C1825 C1829 1.429 . S
C1826 C1809 1.574 . S
C1826 H1820 0.949 . S
C1826 C1830 1.368 . S
C1827 C1808 1.429 . S
C1827 C1821 1.429 . S
C1827 C1828 1.523 . S
C1828 C1809 1.368 . S
C1828 C1822 1.368 . S
C1828 C1827 1.523 . S
C1829 C1813 1.429 . S
C1829 C1825 1.429 . S
C1829 C1830 1.523 . S
C1830 C1814 1.368 . S
C1830 C1826 1.368 . S
C1830 C1829 1.523 . S
H1831 C1806 0.950 . S
H1832 C1808 0.950 . S
H1833 C1809 0.949 . S
H1834 C1811 0.950 . S
H1835 C1813 0.950 . S
C1836 C1837 1.349 . S
C1836 C1838 1.327 . S
C1836 H1861 0.950 . S
C1837 C1836 1.349 . S
C1837 C1853 1.349 . S
C1838 C1836 1.327 . S
C1838 C1857 1.429 . S
C1838 H1862 0.950 . S
C1839 C1856 1.574 . S
C1839 C1858 1.368 . S
C1839 H1863 0.949 . S
H1840 C1844 0.949 . S
C1841 C1842 1.349 . S
C1841 C1843 1.327 . S
C1841 H1864 0.950 . S
C1842 C1841 1.349 . S
C1842 C1854 1.349 . S
C1843 C1841 1.327 . S
C1843 C1859 1.429 . S
C1843 H1865 0.950 . S
C1844 H1840 0.949 . S
C1844 C1852 1.574 . S
C1844 C1860 1.368 . S
H1845 C1853 0.950 . S
H1846 C1851 0.950 . S
H1847 C1852 0.949 . S
H1848 C1854 0.950 . S
H1849 C1855 0.950 . S
H1850 C1856 0.949 . S
C1851 H1846 0.950 . S
C1851 C1853 1.327 . S
C1851 C1857 1.429 . S
C1852 C1844 1.574 . S
C1852 H1847 0.949 . S
C1852 C1858 1.368 . S
C1853 C1837 1.349 . S
C1853 H1845 0.950 . S
C1853 C1851 1.327 . S
C1854 C1842 1.349 . S
C1854 H1848 0.950 . S
C1854 C1855 1.327 . S
C1855 H1849 0.950 . S
C1855 C1854 1.327 . S
C1855 C1859 1.429 . S
C1856 C1839 1.574 . S
C1856 H1850 0.949 . S
C1856 C1860 1.368 . S
C1857 C1838 1.429 . S
C1857 C1851 1.429 . S
C1857 C1858 1.523 . S
C1858 C1839 1.368 . S
C1858 C1852 1.368 . S
C1858 C1857 1.523 . S
C1859 C1843 1.429 . S
C1859 C1855 1.429 . S
C1859 C1860 1.523 . S
C1860 C1844 1.368 . S
C1860 C1856 1.368 . S
C1860 C1859 1.523 . S
H1861 C1836 0.950 . S
H1862 C1838 0.950 . S
H1863 C1839 0.949 . S
H1864 C1841 0.950 . S
H1865 C1843 0.950 . S
C1866 C1867 1.349 . S
C1866 C1868 1.327 . S
C1866 H1891 0.950 . S
C1867 C1866 1.349 . S
C1867 C1883 1.349 . S
C1868 C1866 1.327 . S
C1868 C1887 1.429 . S
C1868 H1892 0.950 . S
C1869 C1886 1.574 . S
C1869 C1888 1.368 . S
C1869 H1893 0.949 . S
H1870 C1874 0.949 . S
C1871 C1872 1.349 . S
C1871 C1873 1.327 . S
C1871 H1894 0.950 . S
C1872 C1871 1.349 . S
C1872 C1884 1.349 . S
C1873 C1871 1.327 . S
C1873 C1889 1.429 . S
C1873 H1895 0.950 . S
C1874 H1870 0.949 . S
C1874 C1882 1.574 . S
C1874 C1890 1.368 . S
H1875 C1883 0.950 . S
H1876 C1881 0.950 . S
H1877 C1882 0.949 . S
H1878 C1884 0.950 . S
H1879 C1885 0.950 . S
H1880 C1886 0.949 . S
C1881 H1876 0.950 . S
C1881 C1883 1.327 . S
C1881 C1887 1.429 . S
C1882 C1874 1.574 . S
C1882 H1877 0.949 . S
C1882 C1888 1.368 . S
C1883 C1867 1.349 . S
C1883 H1875 0.950 . S
C1883 C1881 1.327 . S
C1884 C1872 1.349 . S
C1884 H1878 0.950 . S
C1884 C1885 1.327 . S
C1885 H1879 0.950 . S
C1885 C1884 1.327 . S
C1885 C1889 1.429 . S
C1886 C1869 1.574 . S
C1886 H1880 0.949 . S
C1886 C1890 1.368 . S
C1887 C1868 1.429 . S
C1887 C1881 1.429 . S
C1887 C1888 1.523 . S
C1888 C1869 1.368 . S
C1888 C1882 1.368 . S
C1888 C1887 1.523 . S
C1889 C1873 1.429 . S
C1889 C1885 1.429 . S
C1889 C1890 1.523 . S
C1890 C1874 1.368 . S
C1890 C1886 1.368 . S
C1890 C1889 1.523 . S
H1891 C1866 0.950 . S
H1892 C1868 0.950 . S
H1893 C1869 0.949 . S
H1894 C1871 0.950 . S
H1895 C1873 0.950 . S
C1896 C1897 1.349 . S
C1896 C1898 1.327 . S
C1896 H1921 0.950 . S
C1897 C1896 1.349 . S
C1897 C1913 1.349 . S
C1898 C1896 1.327 . S
C1898 C1917 1.429 . S
C1898 H1922 0.950 . S
C1899 C1916 1.574 . S
C1899 C1918 1.368 . S
C1899 H1923 0.949 . S
H1900 C1904 0.949 . S
C1901 C1902 1.349 . S
C1901 C1903 1.327 . S
C1901 H1924 0.950 . S
C1902 C1901 1.349 . S
C1902 C1914 1.349 . S
C1903 C1901 1.327 . S
C1903 C1919 1.429 . S
C1903 H1925 0.950 . S
C1904 H1900 0.949 . S
C1904 C1912 1.574 . S
C1904 C1920 1.368 . S
H1905 C1913 0.950 . S
H1906 C1911 0.950 . S
H1907 C1912 0.949 . S
H1908 C1914 0.950 . S
H1909 C1915 0.950 . S
H1910 C1916 0.949 . S
C1911 H1906 0.950 . S
C1911 C1913 1.327 . S
C1911 C1917 1.429 . S
C1912 C1904 1.574 . S
C1912 H1907 0.949 . S
C1912 C1918 1.368 . S
C1913 C1897 1.349 . S
C1913 H1905 0.950 . S
C1913 C1911 1.327 . S
C1914 C1902 1.349 . S
C1914 H1908 0.950 . S
C1914 C1915 1.327 . S
C1915 H1909 0.950 . S
C1915 C1914 1.327 . S
C1915 C1919 1.429 . S
C1916 C1899 1.574 . S
C1916 H1910 0.949 . S
C1916 C1920 1.368 . S
C1917 C1898 1.429 . S
C1917 C1911 1.429 . S
C1917 C1918 1.523 . S
C1918 C1899 1.368 . S
C1918 C1912 1.368 . S
C1918 C1917 1.523 . S
C1919 C1903 1.429 . S
C1919 C1915 1.429 . S
C1919 C1920 1.523 . S
C1920 C1904 1.368 . S
C1920 C1916 1.368 . S
C1920 C1919 1.523 . S
H1921 C1896 0.950 . S
H1922 C1898 0.950 . S
H1923 C1899 0.949 . S
H1924 C1901 0.950 . S
H1925 C1903 0.950 . S
C1926 C1927 1.349 . S
C1926 C1928 1.327 . S
C1926 H1951 0.950 . S
C1927 C1926 1.349 . S
C1927 C1943 1.349 . S
C1928 C1926 1.327 . S
C1928 C1947 1.429 . S
C1928 H1952 0.950 . S
C1929 C1946 1.574 . S
C1929 C1948 1.368 . S
C1929 H1953 0.949 . S
H1930 C1934 0.949 . S
C1931 C1932 1.349 . S
C1931 C1933 1.327 . S
C1931 H1954 0.950 . S
C1932 C1931 1.349 . S
C1932 C1944 1.349 . S
C1933 C1931 1.327 . S
C1933 C1949 1.429 . S
C1933 H1955 0.950 . S
C1934 H1930 0.949 . S
C1934 C1942 1.574 . S
C1934 C1950 1.368 . S
H1935 C1943 0.950 . S
H1936 C1941 0.950 . S
H1937 C1942 0.949 . S
H1938 C1944 0.950 . S
H1939 C1945 0.950 . S
H1940 C1946 0.949 . S
C1941 H1936 0.950 . S
C1941 C1943 1.327 . S
C1941 C1947 1.429 . S
C1942 C1934 1.574 . S
C1942 H1937 0.949 . S
C1942 C1948 1.368 . S
C1943 C1927 1.349 . S
C1943 H1935 0.950 . S
C1943 C1941 1.327 . S
C1944 C1932 1.349 . S
C1944 H1938 0.950 . S
C1944 C1945 1.327 . S
C1945 H1939 0.950 . S
C1945 C1944 1.327 . S
C1945 C1949 1.429 . S
C1946 C1929 1.574 . S
C1946 H1940 0.949 . S
C1946 C1950 1.368 . S
C1947 C1928 1.429 . S
C1947 C1941 1.429 . S
C1947 C1948 1.523 . S
C1948 C1929 1.368 . S
C1948 C1942 1.368 . S
C1948 C1947 1.523 . S
C1949 C1933 1.429 . S
C1949 C1945 1.429 . S
C1949 C1950 1.523 . S
C1950 C1934 1.368 . S
C1950 C1946 1.368 . S
C1950 C1949 1.523 . S
H1951 C1926 0.950 . S
H1952 C1928 0.950 . S
H1953 C1929 0.949 . S
H1954 C1931 0.950 . S
H1955 C1933 0.950 . S
C1956 C1957 1.349 . S
C1956 C1958 1.327 . S
C1956 H1981 0.950 . S
C1957 C1956 1.349 . S
C1957 C1973 1.349 . S
C1958 C1956 1.327 . S
C1958 C1977 1.429 . S
C1958 H1982 0.950 . S
C1959 C1976 1.574 . S
C1959 C1978 1.368 . S
C1959 H1983 0.949 . S
H1960 C1964 0.949 . S
C1961 C1962 1.349 . S
C1961 C1963 1.327 . S
C1961 H1984 0.950 . S
C1962 C1961 1.349 . S
C1962 C1974 1.349 . S
C1963 C1961 1.327 . S
C1963 C1979 1.429 . S
C1963 H1985 0.950 . S
C1964 H1960 0.949 . S
C1964 C1972 1.574 . S
C1964 C1980 1.368 . S
H1965 C1973 0.950 . S
H1966 C1971 0.950 . S
H1967 C1972 0.949 . S
H1968 C1974 0.950 . S
H1969 C1975 0.950 . S
H1970 C1976 0.949 . S
C1971 H1966 0.950 . S
C1971 C1973 1.327 . S
C1971 C1977 1.429 . S
C1972 C1964 1.574 . S
C1972 H1967 0.949 . S
C1972 C1978 1.368 . S
C1973 C1957 1.349 . S
C1973 H1965 0.950 . S
C1973 C1971 1.327 . S
C1974 C1962 1.349 . S
C1974 H1968 0.950 . S
C1974 C1975 1.327 . S
C1975 H1969 0.950 . S
C1975 C1974 1.327 . S
C1975 C1979 1.429 . S
C1976 C1959 1.574 . S
C1976 H1970 0.949 . S
C1976 C1980 1.368 . S
C1977 C1958 1.429 . S
C1977 C1971 1.429 . S
C1977 C1978 1.523 . S
C1978 C1959 1.368 . S
C1978 C1972 1.368 . S
C1978 C1977 1.523 . S
C1979 C1963 1.429 . S
C1979 C1975 1.429 . S
C1979 C1980 1.523 . S
C1980 C1964 1.368 . S
C1980 C1976 1.368 . S
C1980 C1979 1.523 . S
H1981 C1956 0.950 . S
H1982 C1958 0.950 . S
H1983 C1959 0.949 . S
H1984 C1961 0.950 . S
H1985 C1963 0.950 . S
C1986 C1987 1.349 1_556 S
C1986 C1988 1.327 . S
C1986 H2011 0.950 . S
C1987 C1986 1.349 1_554 S
C1987 C2003 1.349 . S
C1988 C1986 1.327 . S
C1988 C2007 1.429 . S
C1988 H2012 0.950 . S
C1989 C2006 1.574 . S
C1989 C2008 1.368 . S
C1989 H2013 0.949 . S
H1990 C1994 0.949 . S
C1991 C1992 1.349 . S
C1991 C1993 1.327 . S
C1991 H2014 0.950 . S
C1992 C1991 1.349 . S
C1992 C2004 1.349 . S
C1993 C1991 1.327 . S
C1993 C2009 1.429 . S
C1993 H2015 0.950 . S
C1994 H1990 0.949 . S
C1994 C2002 1.574 . S
C1994 C2010 1.368 . S
H1995 C2003 0.950 . S
H1996 C2001 0.950 1_554 S
H1997 C2002 0.949 . S
H1998 C2004 0.950 . S
H1999 C2005 0.950 . S
H2000 C2006 0.949 . S
C2001 H1996 0.950 1_556 S
C2001 C2003 1.327 1_556 S
C2001 C2007 1.429 . S
C2002 C1994 1.574 . S
C2002 H1997 0.949 . S
C2002 C2008 1.368 . S
C2003 C1987 1.349 . S
C2003 H1995 0.950 . S
C2003 C2001 1.327 1_554 S
C2004 C1992 1.349 . S
C2004 H1998 0.950 . S
C2004 C2005 1.327 . S
C2005 H1999 0.950 . S
C2005 C2004 1.327 . S
C2005 C2009 1.429 . S
C2006 C1989 1.574 . S
C2006 H2000 0.949 . S
C2006 C2010 1.368 . S
C2007 C1988 1.429 . S
C2007 C2001 1.429 . S
C2007 C2008 1.523 . S
C2008 C1989 1.368 . S
C2008 C2002 1.368 . S
C2008 C2007 1.523 . S
C2009 C1993 1.429 . S
C2009 C2005 1.429 . S
C2009 C2010 1.523 . S
C2010 C1994 1.368 . S
C2010 C2006 1.368 . S
C2010 C2009 1.523 . S
H2011 C1986 0.950 . S
H2012 C1988 0.950 . S
H2013 C1989 0.949 . S
H2014 C1991 0.950 . S
H2015 C1993 0.950 . S
C2016 C2017 1.349 . S
C2016 C2018 1.327 . S
C2016 H2041 0.950 . S
C2017 C2016 1.349 . S
C2017 C2033 1.349 . S
C2018 C2016 1.327 . S
C2018 C2037 1.429 . S
C2018 H2042 0.950 . S
C2019 C2036 1.574 . S
C2019 C2038 1.368 . S
C2019 H2043 0.949 . S
H2020 C2024 0.949 . S
C2021 C2022 1.349 . S
C2021 C2023 1.327 . S
C2021 H2044 0.950 . S
C2022 C2021 1.349 . S
C2022 C2034 1.349 . S
C2023 C2021 1.327 . S
C2023 C2039 1.429 . S
C2023 H2045 0.950 . S
C2024 H2020 0.949 . S
C2024 C2032 1.574 . S
C2024 C2040 1.368 . S
H2025 C2033 0.950 . S
H2026 C2031 0.950 . S
H2027 C2032 0.949 . S
H2028 C2034 0.950 . S
H2029 C2035 0.950 . S
H2030 C2036 0.949 . S
C2031 H2026 0.950 . S
C2031 C2033 1.327 . S
C2031 C2037 1.429 . S
C2032 C2024 1.574 . S
C2032 H2027 0.949 . S
C2032 C2038 1.368 . S
C2033 C2017 1.349 . S
C2033 H2025 0.950 . S
C2033 C2031 1.327 . S
C2034 C2022 1.349 . S
C2034 H2028 0.950 . S
C2034 C2035 1.327 . S
C2035 H2029 0.950 . S
C2035 C2034 1.327 . S
C2035 C2039 1.429 . S
C2036 C2019 1.574 . S
C2036 H2030 0.949 . S
C2036 C2040 1.368 . S
C2037 C2018 1.429 . S
C2037 C2031 1.429 . S
C2037 C2038 1.523 . S
C2038 C2019 1.368 . S
C2038 C2032 1.368 . S
C2038 C2037 1.523 . S
C2039 C2023 1.429 . S
C2039 C2035 1.429 . S
C2039 C2040 1.523 . S
C2040 C2024 1.368 . S
C2040 C2036 1.368 . S
C2040 C2039 1.523 . S
H2041 C2016 0.950 . S
H2042 C2018 0.950 . S
H2043 C2019 0.949 . S
H2044 C2021 0.950 . S
H2045 C2023 0.950 . S
C2046 C2047 1.349 . S
C2046 C2048 1.327 . S
C2046 H2071 0.950 . S
C2047 C2046 1.349 . S
C2047 C2063 1.349 . S
C2048 C2046 1.327 . S
C2048 C2067 1.429 . S
C2048 H2072 0.950 . S
C2049 C2066 1.574 . S
C2049 C2068 1.368 1_545 S
C2049 H2073 0.949 . S
H2050 C2054 0.949 . S
C2051 C2052 1.349 . S
C2051 C2053 1.327 . S
C2051 H2074 0.950 . S
C2052 C2051 1.349 . S
C2052 C2064 1.349 . S
C2053 C2051 1.327 . S
C2053 C2069 1.429 . S
C2053 H2075 0.950 . S
C2054 H2050 0.949 . S
C2054 C2062 1.574 . S
C2054 C2070 1.368 1_565 S
H2055 C2063 0.934 1_545 S
H2056 C2061 0.884 1_545 S
H2057 C2062 0.949 . S
H2058 C2064 0.934 1_565 S
H2059 C2065 0.884 1_565 S
H2060 C2066 0.949 . S
C2061 H2056 0.884 1_565 S
C2061 C2063 1.353 . S
C2061 C2067 1.471 . S
C2062 C2054 1.574 . S
C2062 H2057 0.949 . S
C2062 C2068 1.368 . S
C2063 C2047 1.349 . S
C2063 H2055 0.934 1_565 S
C2063 C2061 1.353 . S
C2064 C2052 1.349 . S
C2064 H2058 0.934 1_545 S
C2064 C2065 1.353 . S
C2065 H2059 0.884 1_545 S
C2065 C2064 1.353 . S
C2065 C2069 1.471 . S
C2066 C2049 1.574 . S
C2066 H2060 0.949 . S
C2066 C2070 1.368 . S
C2067 C2048 1.429 . S
C2067 C2061 1.471 . S
C2067 C2068 1.523 . S
C2068 C2049 1.368 1_565 S
C2068 C2062 1.368 . S
C2068 C2067 1.523 . S
C2069 C2053 1.429 . S
C2069 C2065 1.471 . S
C2069 C2070 1.523 . S
C2070 C2054 1.368 1_545 S
C2070 C2066 1.368 . S
C2070 C2069 1.523 . S
H2071 C2046 0.950 . S
H2072 C2048 0.950 . S
H2073 C2049 0.949 . S
H2074 C2051 0.950 . S
H2075 C2053 0.950 . S
C2076 C2077 1.349 . S
C2076 C2078 1.327 . S
C2076 H2101 0.950 . S
C2077 C2076 1.349 . S
C2077 C2093 1.349 . S
C2078 C2076 1.327 . S
C2078 C2097 1.429 . S
C2078 H2102 0.950 . S
C2079 C2096 1.574 . S
C2079 C2098 1.368 . S
C2079 H2103 0.949 . S
H2080 C2084 0.949 . S
C2081 C2082 1.349 . S
C2081 C2083 1.327 . S
C2081 H2104 0.950 . S
C2082 C2081 1.349 . S
C2082 C2094 1.349 . S
C2083 C2081 1.327 . S
C2083 C2099 1.429 . S
C2083 H2105 0.950 . S
C2084 H2080 0.949 . S
C2084 C2092 1.574 . S
C2084 C2100 1.368 . S
H2085 C2093 0.950 . S
H2086 C2091 0.950 . S
H2087 C2092 0.949 . S
H2088 C2094 0.950 . S
H2089 C2095 0.950 . S
H2090 C2096 0.949 . S
C2091 H2086 0.950 . S
C2091 C2093 1.327 . S
C2091 C2097 1.429 . S
C2092 C2084 1.574 . S
C2092 H2087 0.949 . S
C2092 C2098 1.368 . S
C2093 C2077 1.349 . S
C2093 H2085 0.950 . S
C2093 C2091 1.327 . S
C2094 C2082 1.349 . S
C2094 H2088 0.950 . S
C2094 C2095 1.327 . S
C2095 H2089 0.950 . S
C2095 C2094 1.327 . S
C2095 C2099 1.429 . S
C2096 C2079 1.574 . S
C2096 H2090 0.949 . S
C2096 C2100 1.368 . S
C2097 C2078 1.429 . S
C2097 C2091 1.429 . S
C2097 C2098 1.523 . S
C2098 C2079 1.368 . S
C2098 C2092 1.368 . S
C2098 C2097 1.523 . S
C2099 C2083 1.429 . S
C2099 C2095 1.429 . S
C2099 C2100 1.523 . S
C2100 C2084 1.368 . S
C2100 C2096 1.368 . S
C2100 C2099 1.523 . S
H2101 C2076 0.950 . S
H2102 C2078 0.950 . S
H2103 C2079 0.949 . S
H2104 C2081 0.950 . S
H2105 C2083 0.950 . S
C2106 C2107 1.349 . S
C2106 C2108 1.327 . S
C2106 H2131 0.950 . S
C2107 C2106 1.349 . S
C2107 C2123 1.349 . S
C2108 C2106 1.327 . S
C2108 C2127 1.429 . S
C2108 H2132 0.950 . S
C2109 C2126 1.574 1_556 S
C2109 C2128 1.368 1_565 S
C2109 H2133 0.949 . S
H2110 C2114 0.949 . S
C2111 C2112 1.349 . S
C2111 C2113 1.327 . S
C2111 H2134 0.950 . S
C2112 C2111 1.349 . S
C2112 C2124 1.349 . S
C2113 C2111 1.327 . S
C2113 C2129 1.429 . S
C2113 H2135 0.950 . S
C2114 H2110 0.949 . S
C2114 C2122 1.574 1_554 S
C2114 C2130 1.368 1_545 S
H2115 C2123 0.950 . S
H2116 C2121 0.950 1_565 S
H2117 C2122 0.949 . S
H2118 C2124 0.950 . S
H2119 C2125 0.950 1_545 S
H2120 C2126 0.949 . S
C2121 H2116 0.950 1_545 S
C2121 C2123 1.327 . S
C2121 C2127 1.429 . S
C2122 C2114 1.574 1_556 S
C2122 H2117 0.949 . S
C2122 C2128 1.368 . S
C2123 C2107 1.349 . S
C2123 H2115 0.950 . S
C2123 C2121 1.327 . S
C2124 C2112 1.349 . S
C2124 H2118 0.950 . S
C2124 C2125 1.327 . S
C2125 H2119 0.950 1_565 S
C2125 C2124 1.327 . S
C2125 C2129 1.429 . S
C2126 C2109 1.574 1_554 S
C2126 H2120 0.949 . S
C2126 C2130 1.368 . S
C2127 C2108 1.429 . S
C2127 C2121 1.429 . S
C2127 C2128 1.523 . S
C2128 C2109 1.368 1_545 S
C2128 C2122 1.368 . S
C2128 C2127 1.523 . S
C2129 C2113 1.429 . S
C2129 C2125 1.429 . S
C2129 C2130 1.523 . S
C2130 C2114 1.368 1_565 S
C2130 C2126 1.368 . S
C2130 C2129 1.523 . S
H2131 C2106 0.950 . S
H2132 C2108 0.950 . S
H2133 C2109 0.949 . S
H2134 C2111 0.950 . S
H2135 C2113 0.950 . S
C2136 C2137 1.349 . S
C2136 C2138 1.327 . S
C2136 H2161 0.950 . S
C2137 C2136 1.349 . S
C2137 C2153 1.349 . S
C2138 C2136 1.327 . S
C2138 C2157 1.429 . S
C2138 H2162 0.950 . S
C2139 C2156 1.574 . S
C2139 C2158 1.368 . S
C2139 H2163 0.949 . S
H2140 C2144 0.949 . S
C2141 C2142 1.349 . S
C2141 C2143 1.327 . S
C2141 H2164 0.950 . S
C2142 C2141 1.349 . S
C2142 C2154 1.349 . S
C2143 C2141 1.327 . S
C2143 C2159 1.429 . S
C2143 H2165 0.950 . S
C2144 H2140 0.949 . S
C2144 C2152 1.574 . S
C2144 C2160 1.368 . S
H2145 C2153 0.950 . S
H2146 C2151 0.950 . S
H2147 C2152 0.949 . S
H2148 C2154 0.950 . S
H2149 C2155 0.950 . S
H2150 C2156 0.949 . S
C2151 H2146 0.950 . S
C2151 C2153 1.327 . S
C2151 C2157 1.429 . S
C2152 C2144 1.574 . S
C2152 H2147 0.949 . S
C2152 C2158 1.368 . S
C2153 C2137 1.349 . S
C2153 H2145 0.950 . S
C2153 C2151 1.327 . S
C2154 C2142 1.349 . S
C2154 H2148 0.950 . S
C2154 C2155 1.327 . S
C2155 H2149 0.950 . S
C2155 C2154 1.327 . S
C2155 C2159 1.429 . S
C2156 C2139 1.574 . S
C2156 H2150 0.949 . S
C2156 C2160 1.368 . S
C2157 C2138 1.429 . S
C2157 C2151 1.429 . S
C2157 C2158 1.523 . S
C2158 C2139 1.368 . S
C2158 C2152 1.368 . S
C2158 C2157 1.523 . S
C2159 C2143 1.429 . S
C2159 C2155 1.429 . S
C2159 C2160 1.523 . S
C2160 C2144 1.368 . S
C2160 C2156 1.368 . S
C2160 C2159 1.523 . S
H2161 C2136 0.950 . S
H2162 C2138 0.950 . S
H2163 C2139 0.949 . S
H2164 C2141 0.950 . S
H2165 C2143 0.950 . S
C2166 C2167 1.349 . S
C2166 C2168 1.327 . S
C2166 H2191 0.950 . S
C2167 C2166 1.349 . S
C2167 C2183 1.349 . S
C2168 C2166 1.327 . S
C2168 C2187 1.429 . S
C2168 H2192 0.950 . S
C2169 C2186 1.574 . S
C2169 C2188 1.368 1_545 S
C2169 H2193 0.949 . S
H2170 C2174 0.949 . S
C2171 C2172 1.349 . S
C2171 C2173 1.327 . S
C2171 H2194 0.950 . S
C2172 C2171 1.349 . S
C2172 C2184 1.349 . S
C2173 C2171 1.327 . S
C2173 C2189 1.429 . S
C2173 H2195 0.950 . S
C2174 H2170 0.949 . S
C2174 C2182 1.574 . S
C2174 C2190 1.368 1_565 S
H2175 C2183 0.968 . S
H2176 C2181 0.950 1_545 S
H2177 C2182 0.949 . S
H2178 C2184 0.968 . S
H2179 C2185 0.950 1_565 S
H2180 C2186 0.949 . S
C2181 H2176 0.950 1_565 S
C2181 C2183 1.327 . S
C2181 C2187 1.429 . S
C2182 C2174 1.574 . S
C2182 H2177 0.949 . S
C2182 C2188 1.368 . S
C2183 C2167 1.349 . S
C2183 H2175 0.968 . S
C2183 C2181 1.327 . S
C2184 C2172 1.349 . S
C2184 H2178 0.968 . S
C2184 C2185 1.327 . S
C2185 H2179 0.950 1_545 S
C2185 C2184 1.327 . S
C2185 C2189 1.429 . S
C2186 C2169 1.574 . S
C2186 H2180 0.949 . S
C2186 C2190 1.368 . S
C2187 C2168 1.429 . S
C2187 C2181 1.429 . S
C2187 C2188 1.523 . S
C2188 C2169 1.368 1_565 S
C2188 C2182 1.368 . S
C2188 C2187 1.523 . S
C2189 C2173 1.429 . S
C2189 C2185 1.429 . S
C2189 C2190 1.523 . S
C2190 C2174 1.368 1_545 S
C2190 C2186 1.368 . S
C2190 C2189 1.523 . S
H2191 C2166 0.950 . S
H2192 C2168 0.950 . S
H2193 C2169 0.949 . S
H2194 C2171 0.950 . S
H2195 C2173 0.950 . S
C2196 C2197 1.349 . S
C2196 C2198 1.327 . S
C2196 H2221 0.950 . S
C2197 C2196 1.349 . S
C2197 C2213 1.349 . S
C2198 C2196 1.327 . S
C2198 C2217 1.429 . S
C2198 H2222 0.950 . S
C2199 C2216 1.574 . S
C2199 C2218 1.368 . S
C2199 H2223 0.949 . S
H2200 C2204 0.949 . S
C2201 C2202 1.349 . S
C2201 C2203 1.327 . S
C2201 H2224 0.950 . S
C2202 C2201 1.349 . S
C2202 C2214 1.349 . S
C2203 C2201 1.327 . S
C2203 C2219 1.429 . S
C2203 H2225 0.950 . S
C2204 H2200 0.949 . S
C2204 C2212 1.574 . S
C2204 C2220 1.368 . S
H2205 C2213 0.950 . S
H2206 C2211 0.950 . S
H2207 C2212 0.949 . S
H2208 C2214 0.950 . S
H2209 C2215 0.950 . S
H2210 C2216 0.949 . S
C2211 H2206 0.950 . S
C2211 C2213 1.327 . S
C2211 C2217 1.429 . S
C2212 C2204 1.574 . S
C2212 H2207 0.949 . S
C2212 C2218 1.368 . S
C2213 C2197 1.349 . S
C2213 H2205 0.950 . S
C2213 C2211 1.327 . S
C2214 C2202 1.349 . S
C2214 H2208 0.950 . S
C2214 C2215 1.327 . S
C2215 H2209 0.950 . S
C2215 C2214 1.327 . S
C2215 C2219 1.429 . S
C2216 C2199 1.574 . S
C2216 H2210 0.949 . S
C2216 C2220 1.368 . S
C2217 C2198 1.429 . S
C2217 C2211 1.429 . S
C2217 C2218 1.523 . S
C2218 C2199 1.368 . S
C2218 C2212 1.368 . S
C2218 C2217 1.523 . S
C2219 C2203 1.429 . S
C2219 C2215 1.429 . S
C2219 C2220 1.523 . S
C2220 C2204 1.368 . S
C2220 C2216 1.368 . S
C2220 C2219 1.523 . S
H2221 C2196 0.950 . S
H2222 C2198 0.950 . S
H2223 C2199 0.949 . S
H2224 C2201 0.950 . S
H2225 C2203 0.950 . S
C2226 C2227 1.349 . S
C2226 C2228 1.327 . S
C2226 H2251 0.950 . S
C2227 C2226 1.349 . S
C2227 C2243 1.349 . S
C2228 C2226 1.327 . S
C2228 C2247 1.429 . S
C2228 H2252 0.950 1_545 S
C2229 C2246 1.574 1_556 S
C2229 C2248 1.368 . S
C2229 H2253 0.949 . S
H2230 C2234 0.949 . S
C2231 C2232 1.349 . S
C2231 C2233 1.327 . S
C2231 H2254 0.950 . S
C2232 C2231 1.349 . S
C2232 C2244 1.349 . S
C2233 C2231 1.327 . S
C2233 C2249 1.429 . S
C2233 H2255 0.950 1_565 S
C2234 H2230 0.949 . S
C2234 C2242 1.574 1_554 S
C2234 C2250 1.368 . S
H2235 C2243 0.950 . S
H2236 C2241 0.950 . S
H2237 C2242 0.949 . S
H2238 C2244 0.950 . S
H2239 C2245 0.950 . S
H2240 C2246 0.949 . S
C2241 H2236 0.950 . S
C2241 C2243 1.327 . S
C2241 C2247 1.429 . S
C2242 C2234 1.574 1_556 S
C2242 H2237 0.949 . S
C2242 C2248 1.368 1_565 S
C2243 C2227 1.349 . S
C2243 H2235 0.950 . S
C2243 C2241 1.327 . S
C2244 C2232 1.349 . S
C2244 H2238 0.950 . S
C2244 C2245 1.327 . S
C2245 H2239 0.950 . S
C2245 C2244 1.327 . S
C2245 C2249 1.429 . S
C2246 C2229 1.574 1_554 S
C2246 H2240 0.949 . S
C2246 C2250 1.368 1_545 S
C2247 C2228 1.429 . S
C2247 C2241 1.429 . S
C2247 C2248 1.523 . S
C2248 C2229 1.368 . S
C2248 C2242 1.368 1_545 S
C2248 C2247 1.523 . S
C2249 C2233 1.429 . S
C2249 C2245 1.429 . S
C2249 C2250 1.523 . S
C2250 C2234 1.368 . S
C2250 C2246 1.368 1_565 S
C2250 C2249 1.523 . S
H2251 C2226 0.950 . S
H2252 C2228 0.950 1_565 S
H2253 C2229 0.949 . S
H2254 C2231 0.950 . S
H2255 C2233 0.950 1_545 S
C2256 C2257 1.349 . S
C2256 C2258 1.327 . S
C2256 H2281 0.950 . S
C2257 C2256 1.349 . S
C2257 C2273 1.349 . S
C2258 C2256 1.327 . S
C2258 C2277 1.429 . S
C2258 H2282 0.950 . S
C2259 C2276 1.574 . S
C2259 C2278 1.368 . S
C2259 H2283 0.949 . S
H2260 C2264 0.949 . S
C2261 C2262 1.349 . S
C2261 C2263 1.327 . S
C2261 H2284 0.950 . S
C2262 C2261 1.349 . S
C2262 C2274 1.349 . S
C2263 C2261 1.327 . S
C2263 C2279 1.429 . S
C2263 H2285 0.950 . S
C2264 H2260 0.949 . S
C2264 C2272 1.574 . S
C2264 C2280 1.368 . S
H2265 C2273 0.950 . S
H2266 C2271 0.950 . S
H2267 C2272 0.949 . S
H2268 C2274 0.950 . S
H2269 C2275 0.950 . S
H2270 C2276 0.949 . S
C2271 H2266 0.950 . S
C2271 C2273 1.327 . S
C2271 C2277 1.429 . S
C2272 C2264 1.574 . S
C2272 H2267 0.949 . S
C2272 C2278 1.368 . S
C2273 C2257 1.349 . S
C2273 H2265 0.950 . S
C2273 C2271 1.327 . S
C2274 C2262 1.349 . S
C2274 H2268 0.950 . S
C2274 C2275 1.327 . S
C2275 H2269 0.950 . S
C2275 C2274 1.327 . S
C2275 C2279 1.429 . S
C2276 C2259 1.574 . S
C2276 H2270 0.949 . S
C2276 C2280 1.368 . S
C2277 C2258 1.429 . S
C2277 C2271 1.429 . S
C2277 C2278 1.523 . S
C2278 C2259 1.368 . S
C2278 C2272 1.368 . S
C2278 C2277 1.523 . S
C2279 C2263 1.429 . S
C2279 C2275 1.429 . S
C2279 C2280 1.523 . S
C2280 C2264 1.368 . S
C2280 C2276 1.368 . S
C2280 C2279 1.523 . S
H2281 C2256 0.950 . S
H2282 C2258 0.950 . S
H2283 C2259 0.949 . S
H2284 C2261 0.950 . S
H2285 C2263 0.950 . S
C2286 C2287 1.349 . S
C2286 C2288 1.327 . S
C2286 H2311 0.950 . S
C2287 C2286 1.349 . S
C2287 C2303 1.349 . S
C2288 C2286 1.327 . S
C2288 C2307 1.429 . S
C2288 H2312 0.950 . S
C2289 C2306 1.574 1_554 S
C2289 C2308 1.368 . S
C2289 H2313 0.949 . S
H2290 C2294 0.949 . S
C2291 C2292 1.349 . S
C2291 C2293 1.327 . S
C2291 H2314 0.950 . S
C2292 C2291 1.349 . S
C2292 C2304 1.349 . S
C2293 C2291 1.327 . S
C2293 C2309 1.429 . S
C2293 H2315 0.950 . S
C2294 H2290 0.949 . S
C2294 C2302 1.574 1_556 S
C2294 C2310 1.368 . S
H2295 C2303 0.950 . S
H2296 C2301 0.950 . S
H2297 C2302 0.949 . S
H2298 C2304 0.950 . S
H2299 C2305 0.950 . S
H2300 C2306 0.949 . S
C2301 H2296 0.950 . S
C2301 C2303 1.327 . S
C2301 C2307 1.429 . S
C2302 C2294 1.574 1_554 S
C2302 H2297 0.949 . S
C2302 C2308 1.368 . S
C2303 C2287 1.349 . S
C2303 H2295 0.950 . S
C2303 C2301 1.327 . S
C2304 C2292 1.349 . S
C2304 H2298 0.950 . S
C2304 C2305 1.327 . S
C2305 H2299 0.950 . S
C2305 C2304 1.327 . S
C2305 C2309 1.429 . S
C2306 C2289 1.574 1_556 S
C2306 H2300 0.949 . S
C2306 C2310 1.368 . S
C2307 C2288 1.429 . S
C2307 C2301 1.429 . S
C2307 C2308 1.523 . S
C2308 C2289 1.368 . S
C2308 C2302 1.368 . S
C2308 C2307 1.523 . S
C2309 C2293 1.429 . S
C2309 C2305 1.429 . S
C2309 C2310 1.523 . S
C2310 C2294 1.368 . S
C2310 C2306 1.368 . S
C2310 C2309 1.523 . S
H2311 C2286 0.950 . S
H2312 C2288 0.950 . S
H2313 C2289 0.949 . S
H2314 C2291 0.950 . S
H2315 C2293 0.950 . S
C2316 C2317 1.349 . S
C2316 C2318 1.327 . S
C2316 H2341 0.950 . S
C2317 C2316 1.349 . S
C2317 C2333 1.349 . S
C2318 C2316 1.327 . S
C2318 C2337 1.429 . S
C2318 H2342 0.950 . S
C2319 C2336 1.574 . S
C2319 C2338 1.368 . S
C2319 H2343 0.949 . S
H2320 C2324 0.949 . S
C2321 C2322 1.349 . S
C2321 C2323 1.327 . S
C2321 H2344 0.950 . S
C2322 C2321 1.349 . S
C2322 C2334 1.349 . S
C2323 C2321 1.327 . S
C2323 C2339 1.429 . S
C2323 H2345 0.950 . S
C2324 H2320 0.949 . S
C2324 C2332 1.574 . S
C2324 C2340 1.368 . S
H2325 C2333 0.950 . S
H2326 C2331 0.950 . S
H2327 C2332 0.949 . S
H2328 C2334 0.950 . S
H2329 C2335 0.950 . S
H2330 C2336 0.949 . S
C2331 H2326 0.950 . S
C2331 C2333 1.327 . S
C2331 C2337 1.429 . S
C2332 C2324 1.574 . S
C2332 H2327 0.949 . S
C2332 C2338 1.368 . S
C2333 C2317 1.349 . S
C2333 H2325 0.950 . S
C2333 C2331 1.327 . S
C2334 C2322 1.349 . S
C2334 H2328 0.950 . S
C2334 C2335 1.327 . S
C2335 H2329 0.950 . S
C2335 C2334 1.327 . S
C2335 C2339 1.429 . S
C2336 C2319 1.574 . S
C2336 H2330 0.949 . S
C2336 C2340 1.368 . S
C2337 C2318 1.429 . S
C2337 C2331 1.429 . S
C2337 C2338 1.523 . S
C2338 C2319 1.368 . S
C2338 C2332 1.368 . S
C2338 C2337 1.523 . S
C2339 C2323 1.429 . S
C2339 C2335 1.429 . S
C2339 C2340 1.523 . S
C2340 C2324 1.368 . S
C2340 C2336 1.368 . S
C2340 C2339 1.523 . S
H2341 C2316 0.950 . S
H2342 C2318 0.950 . S
H2343 C2319 0.949 . S
H2344 C2321 0.950 . S
H2345 C2323 0.950 . S
C2346 C2347 1.349 . S
C2346 C2348 1.327 . S
C2346 H2371 0.950 . S
C2347 C2346 1.349 . S
C2347 C2363 1.349 . S
C2348 C2346 1.327 . S
C2348 C2367 1.429 . S
C2348 H2372 0.950 . S
C2349 C2366 1.574 . S
C2349 C2368 1.368 . S
C2349 H2373 0.949 . S
H2350 C2354 0.949 . S
C2351 C2352 1.349 . S
C2351 C2353 1.327 . S
C2351 H2374 0.950 . S
C2352 C2351 1.349 . S
C2352 C2364 1.349 . S
C2353 C2351 1.327 . S
C2353 C2369 1.429 . S
C2353 H2375 0.950 . S
C2354 H2350 0.949 . S
C2354 C2362 1.574 . S
C2354 C2370 1.368 . S
H2355 C2363 0.950 . S
H2356 C2361 0.950 . S
H2357 C2362 0.949 . S
H2358 C2364 0.950 . S
H2359 C2365 0.950 . S
H2360 C2366 0.949 . S
C2361 H2356 0.950 . S
C2361 C2363 1.327 . S
C2361 C2367 1.429 . S
C2362 C2354 1.574 . S
C2362 H2357 0.949 . S
C2362 C2368 1.368 . S
C2363 C2347 1.349 . S
C2363 H2355 0.950 . S
C2363 C2361 1.327 . S
C2364 C2352 1.349 . S
C2364 H2358 0.950 . S
C2364 C2365 1.327 . S
C2365 H2359 0.950 . S
C2365 C2364 1.327 . S
C2365 C2369 1.429 . S
C2366 C2349 1.574 . S
C2366 H2360 0.949 . S
C2366 C2370 1.368 . S
C2367 C2348 1.429 . S
C2367 C2361 1.429 . S
C2367 C2368 1.523 . S
C2368 C2349 1.368 . S
C2368 C2362 1.368 . S
C2368 C2367 1.523 . S
C2369 C2353 1.429 . S
C2369 C2365 1.429 . S
C2369 C2370 1.523 . S
C2370 C2354 1.368 . S
C2370 C2366 1.368 . S
C2370 C2369 1.523 . S
H2371 C2346 0.950 . S
H2372 C2348 0.950 . S
H2373 C2349 0.949 . S
H2374 C2351 0.950 . S
H2375 C2353 0.950 . S
C2376 C2377 1.349 . S
C2376 C2378 1.327 . S
C2376 H2401 0.950 . S
C2377 C2376 1.349 . S
C2377 C2393 1.349 . S
C2378 C2376 1.327 . S
C2378 C2397 1.429 . S
C2378 H2402 0.950 . S
C2379 C2396 1.574 . S
C2379 C2398 1.368 . S
C2379 H2403 0.949 . S
H2380 C2384 0.949 . S
C2381 C2382 1.349 . S
C2381 C2383 1.327 . S
C2381 H2404 0.950 . S
C2382 C2381 1.349 . S
C2382 C2394 1.349 . S
C2383 C2381 1.327 . S
C2383 C2399 1.429 . S
C2383 H2405 0.950 . S
C2384 H2380 0.949 . S
C2384 C2392 1.574 . S
C2384 C2400 1.368 . S
H2385 C2393 0.950 . S
H2386 C2391 0.950 . S
H2387 C2392 0.949 . S
H2388 C2394 0.950 . S
H2389 C2395 0.950 . S
H2390 C2396 0.949 . S
C2391 H2386 0.950 . S
C2391 C2393 1.327 . S
C2391 C2397 1.429 . S
C2392 C2384 1.574 . S
C2392 H2387 0.949 . S
C2392 C2398 1.368 . S
C2393 C2377 1.349 . S
C2393 H2385 0.950 . S
C2393 C2391 1.327 . S
C2394 C2382 1.349 . S
C2394 H2388 0.950 . S
C2394 C2395 1.327 . S
C2395 H2389 0.950 . S
C2395 C2394 1.327 . S
C2395 C2399 1.429 . S
C2396 C2379 1.574 . S
C2396 H2390 0.949 . S
C2396 C2400 1.368 . S
C2397 C2378 1.429 . S
C2397 C2391 1.429 . S
C2397 C2398 1.523 . S
C2398 C2379 1.368 . S
C2398 C2392 1.368 . S
C2398 C2397 1.523 . S
C2399 C2383 1.429 . S
C2399 C2395 1.429 . S
C2399 C2400 1.523 . S
C2400 C2384 1.368 . S
C2400 C2396 1.368 . S
C2400 C2399 1.523 . S
H2401 C2376 0.950 . S
H2402 C2378 0.950 . S
H2403 C2379 0.949 . S
H2404 C2381 0.950 . S
H2405 C2383 0.950 . S
C2406 C2407 1.349 . S
C2406 C2408 1.327 . S
C2406 H2431 0.950 . S
C2407 C2406 1.349 . S
C2407 C2423 1.349 . S
C2408 C2406 1.327 . S
C2408 C2427 1.429 . S
C2408 H2432 0.950 . S
C2409 C2426 1.574 1_556 S
C2409 C2428 1.368 . S
C2409 H2433 0.949 . S
H2410 C2414 0.949 . S
C2411 C2412 1.349 . S
C2411 C2413 1.327 . S
C2411 H2434 0.950 . S
C2412 C2411 1.349 . S
C2412 C2424 1.349 . S
C2413 C2411 1.327 . S
C2413 C2429 1.429 . S
C2413 H2435 0.950 . S
C2414 H2410 0.949 . S
C2414 C2422 1.574 1_554 S
C2414 C2430 1.368 . S
H2415 C2423 0.950 . S
H2416 C2421 0.950 . S
H2417 C2422 0.949 . S
H2418 C2424 0.950 . S
H2419 C2425 0.950 . S
H2420 C2426 0.949 . S
C2421 H2416 0.950 . S
C2421 C2423 1.327 . S
C2421 C2427 1.429 . S
C2422 C2414 1.574 1_556 S
C2422 H2417 0.949 . S
C2422 C2428 1.368 . S
C2423 C2407 1.349 . S
C2423 H2415 0.950 . S
C2423 C2421 1.327 . S
C2424 C2412 1.349 . S
C2424 H2418 0.950 . S
C2424 C2425 1.327 . S
C2425 H2419 0.950 . S
C2425 C2424 1.327 . S
C2425 C2429 1.429 . S
C2426 C2409 1.574 1_554 S
C2426 H2420 0.949 . S
C2426 C2430 1.368 . S
C2427 C2408 1.429 . S
C2427 C2421 1.429 . S
C2427 C2428 1.523 . S
C2428 C2409 1.368 . S
C2428 C2422 1.368 . S
C2428 C2427 1.523 . S
C2429 C2413 1.429 . S
C2429 C2425 1.429 . S
C2429 C2430 1.523 . S
C2430 C2414 1.368 . S
C2430 C2426 1.368 . S
C2430 C2429 1.523 . S
H2431 C2406 0.950 . S
H2432 C2408 0.950 . S
H2433 C2409 0.949 . S
H2434 C2411 0.950 . S
H2435 C2413 0.950 . S
C2436 C2437 1.349 . S
C2436 C2438 1.327 . S
C2436 H2461 0.950 . S
C2437 C2436 1.349 . S
C2437 C2453 1.349 . S
C2438 C2436 1.327 . S
C2438 C2457 1.429 . S
C2438 H2462 0.950 . S
C2439 C2456 1.574 . S
C2439 C2458 1.368 . S
C2439 H2463 0.949 . S
H2440 C2444 0.949 . S
C2441 C2442 1.349 . S
C2441 C2443 1.327 . S
C2441 H2464 0.950 . S
C2442 C2441 1.349 . S
C2442 C2454 1.349 . S
C2443 C2441 1.327 . S
C2443 C2459 1.429 . S
C2443 H2465 0.950 . S
C2444 H2440 0.949 . S
C2444 C2452 1.574 . S
C2444 C2460 1.368 . S
H2445 C2453 0.950 . S
H2446 C2451 0.950 . S
H2447 C2452 0.949 . S
H2448 C2454 0.950 . S
H2449 C2455 0.950 . S
H2450 C2456 0.949 . S
C2451 H2446 0.950 . S
C2451 C2453 1.327 . S
C2451 C2457 1.429 . S
C2452 C2444 1.574 . S
C2452 H2447 0.949 . S
C2452 C2458 1.368 . S
C2453 C2437 1.349 . S
C2453 H2445 0.950 . S
C2453 C2451 1.327 . S
C2454 C2442 1.349 . S
C2454 H2448 0.950 . S
C2454 C2455 1.327 . S
C2455 H2449 0.950 . S
C2455 C2454 1.327 . S
C2455 C2459 1.429 . S
C2456 C2439 1.574 . S
C2456 H2450 0.949 . S
C2456 C2460 1.368 . S
C2457 C2438 1.429 . S
C2457 C2451 1.429 . S
C2457 C2458 1.523 . S
C2458 C2439 1.368 . S
C2458 C2452 1.368 . S
C2458 C2457 1.523 . S
C2459 C2443 1.429 . S
C2459 C2455 1.429 . S
C2459 C2460 1.523 . S
C2460 C2444 1.368 . S
C2460 C2456 1.368 . S
C2460 C2459 1.523 . S
H2461 C2436 0.950 . S
H2462 C2438 0.950 . S
H2463 C2439 0.949 . S
H2464 C2441 0.950 . S
H2465 C2443 0.950 . S
C2466 C2467 1.349 . S
C2466 C2468 1.327 . S
C2466 H2491 0.950 . S
C2467 C2466 1.349 . S
C2467 C2483 1.349 . S
C2468 C2466 1.327 . S
C2468 C2487 1.429 . S
C2468 H2492 0.950 . S
C2469 C2486 1.574 . S
C2469 C2488 1.368 . S
C2469 H2493 0.949 . S
H2470 C2474 0.949 . S
C2471 C2472 1.349 . S
C2471 C2473 1.327 . S
C2471 H2494 0.950 . S
C2472 C2471 1.349 . S
C2472 C2484 1.349 . S
C2473 C2471 1.327 . S
C2473 C2489 1.429 . S
C2473 H2495 0.950 . S
C2474 H2470 0.949 . S
C2474 C2482 1.574 . S
C2474 C2490 1.368 . S
H2475 C2483 0.950 . S
H2476 C2481 0.950 . S
H2477 C2482 0.949 . S
H2478 C2484 0.950 . S
H2479 C2485 0.950 . S
H2480 C2486 0.949 . S
C2481 H2476 0.950 . S
C2481 C2483 1.327 . S
C2481 C2487 1.429 . S
C2482 C2474 1.574 . S
C2482 H2477 0.949 . S
C2482 C2488 1.368 . S
C2483 C2467 1.349 . S
C2483 H2475 0.950 . S
C2483 C2481 1.327 . S
C2484 C2472 1.349 . S
C2484 H2478 0.950 . S
C2484 C2485 1.327 . S
C2485 H2479 0.950 . S
C2485 C2484 1.327 . S
C2485 C2489 1.429 . S
C2486 C2469 1.574 . S
C2486 H2480 0.949 . S
C2486 C2490 1.368 . S
C2487 C2468 1.429 . S
C2487 C2481 1.429 . S
C2487 C2488 1.523 . S
C2488 C2469 1.368 . S
C2488 C2482 1.368 . S
C2488 C2487 1.523 . S
C2489 C2473 1.429 . S
C2489 C2485 1.429 . S
C2489 C2490 1.523 . S
C2490 C2474 1.368 . S
C2490 C2486 1.368 . S
C2490 C2489 1.523 . S
H2491 C2466 0.950 . S
H2492 C2468 0.950 . S
H2493 C2469 0.949 . S
H2494 C2471 0.950 . S
H2495 C2473 0.950 . S
C2496 C2497 1.349 . S
C2496 C2498 1.327 . S
C2496 H2521 0.950 . S
C2497 C2496 1.349 . S
C2497 C2513 1.349 . S
C2498 C2496 1.327 . S
C2498 C2517 1.429 . S
C2498 H2522 0.950 . S
C2499 C2516 1.574 . S
C2499 C2518 1.368 . S
C2499 H2523 0.949 . S
H2500 C2504 0.949 . S
C2501 C2502 1.349 . S
C2501 C2503 1.327 . S
C2501 H2524 0.950 . S
C2502 C2501 1.349 . S
C2502 C2514 1.349 . S
C2503 C2501 1.327 . S
C2503 C2519 1.429 . S
C2503 H2525 0.950 . S
C2504 H2500 0.949 . S
C2504 C2512 1.574 . S
C2504 C2520 1.368 . S
H2505 C2513 0.950 . S
H2506 C2511 0.950 . S
H2507 C2512 0.949 . S
H2508 C2514 0.950 . S
H2509 C2515 0.950 . S
H2510 C2516 0.949 . S
C2511 H2506 0.950 . S
C2511 C2513 1.327 . S
C2511 C2517 1.429 . S
C2512 C2504 1.574 . S
C2512 H2507 0.949 . S
C2512 C2518 1.368 . S
C2513 C2497 1.349 . S
C2513 H2505 0.950 . S
C2513 C2511 1.327 . S
C2514 C2502 1.349 . S
C2514 H2508 0.950 . S
C2514 C2515 1.327 . S
C2515 H2509 0.950 . S
C2515 C2514 1.327 . S
C2515 C2519 1.429 . S
C2516 C2499 1.574 . S
C2516 H2510 0.949 . S
C2516 C2520 1.368 . S
C2517 C2498 1.429 . S
C2517 C2511 1.429 . S
C2517 C2518 1.523 . S
C2518 C2499 1.368 . S
C2518 C2512 1.368 . S
C2518 C2517 1.523 . S
C2519 C2503 1.429 . S
C2519 C2515 1.429 . S
C2519 C2520 1.523 . S
C2520 C2504 1.368 . S
C2520 C2516 1.368 . S
C2520 C2519 1.523 . S
H2521 C2496 0.950 . S
H2522 C2498 0.950 . S
H2523 C2499 0.949 . S
H2524 C2501 0.950 . S
H2525 C2503 0.950 . S
C2526 C2527 1.349 . S
C2526 C2528 1.327 . S
C2526 H2551 0.950 . S
C2527 C2526 1.349 . S
C2527 C2543 1.349 . S
C2528 C2526 1.327 . S
C2528 C2547 1.429 . S
C2528 H2552 0.950 . S
C2529 C2546 1.574 . S
C2529 C2548 1.368 . S
C2529 H2553 0.949 . S
H2530 C2534 0.949 . S
C2531 C2532 1.349 . S
C2531 C2533 1.327 . S
C2531 H2554 0.950 . S
C2532 C2531 1.349 . S
C2532 C2544 1.349 . S
C2533 C2531 1.327 . S
C2533 C2549 1.429 . S
C2533 H2555 0.950 . S
C2534 H2530 0.949 . S
C2534 C2542 1.574 . S
C2534 C2550 1.368 . S
H2535 C2543 0.950 . S
H2536 C2541 0.950 . S
H2537 C2542 0.949 . S
H2538 C2544 0.950 . S
H2539 C2545 0.950 . S
H2540 C2546 0.949 . S
C2541 H2536 0.950 . S
C2541 C2543 1.327 . S
C2541 C2547 1.429 . S
C2542 C2534 1.574 . S
C2542 H2537 0.949 . S
C2542 C2548 1.368 . S
C2543 C2527 1.349 . S
C2543 H2535 0.950 . S
C2543 C2541 1.327 . S
C2544 C2532 1.349 . S
C2544 H2538 0.950 . S
C2544 C2545 1.327 . S
C2545 H2539 0.950 . S
C2545 C2544 1.327 . S
C2545 C2549 1.429 . S
C2546 C2529 1.574 . S
C2546 H2540 0.949 . S
C2546 C2550 1.368 . S
C2547 C2528 1.429 . S
C2547 C2541 1.429 . S
C2547 C2548 1.523 . S
C2548 C2529 1.368 . S
C2548 C2542 1.368 . S
C2548 C2547 1.523 . S
C2549 C2533 1.429 . S
C2549 C2545 1.429 . S
C2549 C2550 1.523 . S
C2550 C2534 1.368 . S
C2550 C2546 1.368 . S
C2550 C2549 1.523 . S
H2551 C2526 0.950 . S
H2552 C2528 0.950 . S
H2553 C2529 0.949 . S
H2554 C2531 0.950 . S
H2555 C2533 0.950 . S
C2556 C2557 1.349 . S
C2556 C2558 1.327 . S
C2556 H2581 0.950 . S
C2557 C2556 1.349 . S
C2557 C2573 1.349 . S
C2558 C2556 1.327 . S
C2558 C2577 1.429 . S
C2558 H2582 0.950 . S
C2559 C2576 1.574 . S
C2559 C2578 1.368 . S
C2559 H2583 0.949 . S
H2560 C2564 0.949 . S
C2561 C2562 1.349 . S
C2561 C2563 1.327 . S
C2561 H2584 0.950 . S
C2562 C2561 1.349 . S
C2562 C2574 1.349 . S
C2563 C2561 1.327 . S
C2563 C2579 1.429 . S
C2563 H2585 0.950 . S
C2564 H2560 0.949 . S
C2564 C2572 1.574 . S
C2564 C2580 1.368 . S
H2565 C2573 0.950 . S
H2566 C2571 0.950 . S
H2567 C2572 0.949 . S
H2568 C2574 0.950 . S
H2569 C2575 0.950 . S
H2570 C2576 0.949 . S
C2571 H2566 0.950 . S
C2571 C2573 1.327 . S
C2571 C2577 1.429 . S
C2572 C2564 1.574 . S
C2572 H2567 0.949 . S
C2572 C2578 1.368 . S
C2573 C2557 1.349 . S
C2573 H2565 0.950 . S
C2573 C2571 1.327 . S
C2574 C2562 1.349 . S
C2574 H2568 0.950 . S
C2574 C2575 1.327 . S
C2575 H2569 0.950 . S
C2575 C2574 1.327 . S
C2575 C2579 1.429 . S
C2576 C2559 1.574 . S
C2576 H2570 0.949 . S
C2576 C2580 1.368 . S
C2577 C2558 1.429 . S
C2577 C2571 1.429 . S
C2577 C2578 1.523 . S
C2578 C2559 1.368 . S
C2578 C2572 1.368 . S
C2578 C2577 1.523 . S
C2579 C2563 1.429 . S
C2579 C2575 1.429 . S
C2579 C2580 1.523 . S
C2580 C2564 1.368 . S
C2580 C2576 1.368 . S
C2580 C2579 1.523 . S
H2581 C2556 0.950 . S
H2582 C2558 0.950 . S
H2583 C2559 0.949 . S
H2584 C2561 0.950 . S
H2585 C2563 0.950 . S
C2586 C2587 1.349 . S
C2586 C2588 1.327 . S
C2586 H2611 0.950 . S
C2587 C2586 1.349 . S
C2587 C2603 1.349 . S
C2588 C2586 1.327 . S
C2588 C2607 1.429 . S
C2588 H2612 0.950 . S
C2589 C2606 1.574 . S
C2589 C2608 1.368 . S
C2589 H2613 0.949 . S
H2590 C2594 0.949 . S
C2591 C2592 1.349 . S
C2591 C2593 1.327 . S
C2591 H2614 0.950 . S
C2592 C2591 1.349 . S
C2592 C2604 1.349 . S
C2593 C2591 1.327 . S
C2593 C2609 1.429 . S
C2593 H2615 0.950 . S
C2594 H2590 0.949 . S
C2594 C2602 1.574 . S
C2594 C2610 1.368 . S
H2595 C2603 0.950 . S
H2596 C2601 0.950 . S
H2597 C2602 0.949 . S
H2598 C2604 0.950 . S
H2599 C2605 0.950 . S
H2600 C2606 0.949 . S
C2601 H2596 0.950 . S
C2601 C2603 1.327 . S
C2601 C2607 1.429 . S
C2602 C2594 1.574 . S
C2602 H2597 0.949 . S
C2602 C2608 1.368 . S
C2603 C2587 1.349 . S
C2603 H2595 0.950 . S
C2603 C2601 1.327 . S
C2604 C2592 1.349 . S
C2604 H2598 0.950 . S
C2604 C2605 1.327 . S
C2605 H2599 0.950 . S
C2605 C2604 1.327 . S
C2605 C2609 1.429 . S
C2606 C2589 1.574 . S
C2606 H2600 0.949 . S
C2606 C2610 1.368 . S
C2607 C2588 1.429 . S
C2607 C2601 1.429 . S
C2607 C2608 1.523 . S
C2608 C2589 1.368 . S
C2608 C2602 1.368 . S
C2608 C2607 1.523 . S
C2609 C2593 1.429 . S
C2609 C2605 1.429 . S
C2609 C2610 1.523 . S
C2610 C2594 1.368 . S
C2610 C2606 1.368 . S
C2610 C2609 1.523 . S
H2611 C2586 0.950 . S
H2612 C2588 0.950 . S
H2613 C2589 0.949 . S
H2614 C2591 0.950 . S
H2615 C2593 0.950 . S
C2616 C2617 1.349 . S
C2616 C2618 1.327 . S
C2616 H2641 0.950 . S
C2617 C2616 1.349 . S
C2617 C2633 1.349 . S
C2618 C2616 1.327 . S
C2618 C2637 1.429 . S
C2618 H2642 0.950 . S
C2619 C2636 1.574 . S
C2619 C2638 1.368 . S
C2619 H2643 0.949 . S
H2620 C2624 0.949 . S
C2621 C2622 1.349 . S
C2621 C2623 1.327 . S
C2621 H2644 0.950 . S
C2622 C2621 1.349 . S
C2622 C2634 1.349 . S
C2623 C2621 1.327 . S
C2623 C2639 1.429 . S
C2623 H2645 0.950 . S
C2624 H2620 0.949 . S
C2624 C2632 1.574 . S
C2624 C2640 1.368 . S
H2625 C2633 0.950 . S
H2626 C2631 0.950 . S
H2627 C2632 0.949 . S
H2628 C2634 0.950 . S
H2629 C2635 0.950 . S
H2630 C2636 0.949 . S
C2631 H2626 0.950 . S
C2631 C2633 1.327 . S
C2631 C2637 1.429 . S
C2632 C2624 1.574 . S
C2632 H2627 0.949 . S
C2632 C2638 1.368 . S
C2633 C2617 1.349 . S
C2633 H2625 0.950 . S
C2633 C2631 1.327 . S
C2634 C2622 1.349 . S
C2634 H2628 0.950 . S
C2634 C2635 1.327 . S
C2635 H2629 0.950 . S
C2635 C2634 1.327 . S
C2635 C2639 1.429 . S
C2636 C2619 1.574 . S
C2636 H2630 0.949 . S
C2636 C2640 1.368 . S
C2637 C2618 1.429 . S
C2637 C2631 1.429 . S
C2637 C2638 1.523 . S
C2638 C2619 1.368 . S
C2638 C2632 1.368 . S
C2638 C2637 1.523 . S
C2639 C2623 1.429 . S
C2639 C2635 1.429 . S
C2639 C2640 1.523 . S
C2640 C2624 1.368 . S
C2640 C2636 1.368 . S
C2640 C2639 1.523 . S
H2641 C2616 0.950 . S
H2642 C2618 0.950 . S
H2643 C2619 0.949 . S
H2644 C2621 0.950 . S
H2645 C2623 0.950 . S
C2646 C2647 1.349 . S
C2646 C2648 1.327 . S
C2646 H2671 0.950 . S
C2647 C2646 1.349 . S
C2647 C2663 1.349 . S
C2648 C2646 1.327 . S
C2648 C2667 1.429 . S
C2648 H2672 0.950 . S
C2649 C2666 1.574 . S
C2649 C2668 1.368 . S
C2649 H2673 0.949 . S
H2650 C2654 0.949 . S
C2651 C2652 1.349 . S
C2651 C2653 1.327 . S
C2651 H2674 0.950 . S
C2652 C2651 1.349 . S
C2652 C2664 1.349 . S
C2653 C2651 1.327 . S
C2653 C2669 1.429 . S
C2653 H2675 0.950 . S
C2654 H2650 0.949 . S
C2654 C2662 1.574 . S
C2654 C2670 1.368 . S
H2655 C2663 0.950 . S
H2656 C2661 0.950 . S
H2657 C2662 0.949 . S
H2658 C2664 0.950 . S
H2659 C2665 0.950 . S
H2660 C2666 0.949 . S
C2661 H2656 0.950 . S
C2661 C2663 1.327 . S
C2661 C2667 1.429 . S
C2662 C2654 1.574 . S
C2662 H2657 0.949 . S
C2662 C2668 1.368 . S
C2663 C2647 1.349 . S
C2663 H2655 0.950 . S
C2663 C2661 1.327 . S
C2664 C2652 1.349 . S
C2664 H2658 0.950 . S
C2664 C2665 1.327 . S
C2665 H2659 0.950 . S
C2665 C2664 1.327 . S
C2665 C2669 1.429 . S
C2666 C2649 1.574 . S
C2666 H2660 0.949 . S
C2666 C2670 1.368 . S
C2667 C2648 1.429 . S
C2667 C2661 1.429 . S
C2667 C2668 1.523 . S
C2668 C2649 1.368 . S
C2668 C2662 1.368 . S
C2668 C2667 1.523 . S
C2669 C2653 1.429 . S
C2669 C2665 1.429 . S
C2669 C2670 1.523 . S
C2670 C2654 1.368 . S
C2670 C2666 1.368 . S
C2670 C2669 1.523 . S
H2671 C2646 0.950 . S
H2672 C2648 0.950 . S
H2673 C2649 0.949 . S
H2674 C2651 0.950 . S
H2675 C2653 0.950 . S
C2676 C2677 1.349 . S
C2676 C2678 1.327 . S
C2676 H2701 0.950 . S
C2677 C2676 1.349 . S
C2677 C2693 1.349 . S
C2678 C2676 1.327 . S
C2678 C2697 1.429 . S
C2678 H2702 0.950 . S
C2679 C2696 1.574 . S
C2679 C2698 1.368 . S
C2679 H2703 0.949 . S
H2680 C2684 0.949 . S
C2681 C2682 1.349 . S
C2681 C2683 1.327 . S
C2681 H2704 0.950 . S
C2682 C2681 1.349 . S
C2682 C2694 1.349 . S
C2683 C2681 1.327 . S
C2683 C2699 1.429 . S
C2683 H2705 0.950 . S
C2684 H2680 0.949 . S
C2684 C2692 1.574 . S
C2684 C2700 1.368 . S
H2685 C2693 0.950 . S
H2686 C2691 0.950 . S
H2687 C2692 0.949 . S
H2688 C2694 0.950 . S
H2689 C2695 0.950 . S
H2690 C2696 0.949 . S
C2691 H2686 0.950 . S
C2691 C2693 1.327 . S
C2691 C2697 1.429 . S
C2692 C2684 1.574 . S
C2692 H2687 0.949 . S
C2692 C2698 1.368 . S
C2693 C2677 1.349 . S
C2693 H2685 0.950 . S
C2693 C2691 1.327 . S
C2694 C2682 1.349 . S
C2694 H2688 0.950 . S
C2694 C2695 1.327 . S
C2695 H2689 0.950 . S
C2695 C2694 1.327 . S
C2695 C2699 1.429 . S
C2696 C2679 1.574 . S
C2696 H2690 0.949 . S
C2696 C2700 1.368 . S
C2697 C2678 1.429 . S
C2697 C2691 1.429 . S
C2697 C2698 1.523 . S
C2698 C2679 1.368 . S
C2698 C2692 1.368 . S
C2698 C2697 1.523 . S
C2699 C2683 1.429 . S
C2699 C2695 1.429 . S
C2699 C2700 1.523 . S
C2700 C2684 1.368 . S
C2700 C2696 1.368 . S
C2700 C2699 1.523 . S
H2701 C2676 0.950 . S
H2702 C2678 0.950 . S
H2703 C2679 0.949 . S
H2704 C2681 0.950 . S
H2705 C2683 0.950 . S
C2706 C2707 1.349 . S
C2706 C2708 1.327 . S
C2706 H2731 0.950 . S
C2707 C2706 1.349 . S
C2707 C2723 1.349 . S
C2708 C2706 1.327 . S
C2708 C2727 1.429 . S
C2708 H2732 0.950 . S
C2709 C2726 1.574 . S
C2709 C2728 1.368 . S
C2709 H2733 0.949 . S
H2710 C2714 0.949 . S
C2711 C2712 1.349 . S
C2711 C2713 1.327 . S
C2711 H2734 0.950 . S
C2712 C2711 1.349 . S
C2712 C2724 1.349 . S
C2713 C2711 1.327 . S
C2713 C2729 1.429 . S
C2713 H2735 0.950 . S
C2714 H2710 0.949 . S
C2714 C2722 1.574 . S
C2714 C2730 1.368 . S
H2715 C2723 0.950 . S
H2716 C2721 0.950 . S
H2717 C2722 0.949 . S
H2718 C2724 0.950 . S
H2719 C2725 0.950 . S
H2720 C2726 0.949 . S
C2721 H2716 0.950 . S
C2721 C2723 1.327 . S
C2721 C2727 1.429 . S
C2722 C2714 1.574 . S
C2722 H2717 0.949 . S
C2722 C2728 1.368 . S
C2723 C2707 1.349 . S
C2723 H2715 0.950 . S
C2723 C2721 1.327 . S
C2724 C2712 1.349 . S
C2724 H2718 0.950 . S
C2724 C2725 1.327 . S
C2725 H2719 0.950 . S
C2725 C2724 1.327 . S
C2725 C2729 1.429 . S
C2726 C2709 1.574 . S
C2726 H2720 0.949 . S
C2726 C2730 1.368 . S
C2727 C2708 1.429 . S
C2727 C2721 1.429 . S
C2727 C2728 1.523 . S
C2728 C2709 1.368 . S
C2728 C2722 1.368 . S
C2728 C2727 1.523 . S
C2729 C2713 1.429 . S
C2729 C2725 1.429 . S
C2729 C2730 1.523 . S
C2730 C2714 1.368 . S
C2730 C2726 1.368 . S
C2730 C2729 1.523 . S
H2731 C2706 0.950 . S
H2732 C2708 0.950 . S
H2733 C2709 0.949 . S
H2734 C2711 0.950 . S
H2735 C2713 0.950 . S
C2736 C2737 1.349 . S
C2736 C2738 1.327 . S
C2736 H2761 0.950 . S
C2737 C2736 1.349 . S
C2737 C2753 1.349 . S
C2738 C2736 1.327 . S
C2738 C2757 1.429 . S
C2738 H2762 0.950 . S
C2739 C2756 1.574 . S
C2739 C2758 1.368 . S
C2739 H2763 0.949 . S
H2740 C2744 0.949 . S
C2741 C2742 1.349 . S
C2741 C2743 1.327 . S
C2741 H2764 0.950 . S
C2742 C2741 1.349 . S
C2742 C2754 1.349 . S
C2743 C2741 1.327 . S
C2743 C2759 1.429 . S
C2743 H2765 0.950 . S
C2744 H2740 0.949 . S
C2744 C2752 1.574 . S
C2744 C2760 1.368 . S
H2745 C2753 0.950 . S
H2746 C2751 0.950 . S
H2747 C2752 0.949 . S
H2748 C2754 0.950 . S
H2749 C2755 0.950 . S
H2750 C2756 0.949 . S
C2751 H2746 0.950 . S
C2751 C2753 1.327 . S
C2751 C2757 1.429 . S
C2752 C2744 1.574 . S
C2752 H2747 0.949 . S
C2752 C2758 1.368 . S
C2753 C2737 1.349 . S
C2753 H2745 0.950 . S
C2753 C2751 1.327 . S
C2754 C2742 1.349 . S
C2754 H2748 0.950 . S
C2754 C2755 1.327 . S
C2755 H2749 0.950 . S
C2755 C2754 1.327 . S
C2755 C2759 1.429 . S
C2756 C2739 1.574 . S
C2756 H2750 0.949 . S
C2756 C2760 1.368 . S
C2757 C2738 1.429 . S
C2757 C2751 1.429 . S
C2757 C2758 1.523 . S
C2758 C2739 1.368 . S
C2758 C2752 1.368 . S
C2758 C2757 1.523 . S
C2759 C2743 1.429 . S
C2759 C2755 1.429 . S
C2759 C2760 1.523 . S
C2760 C2744 1.368 . S
C2760 C2756 1.368 . S
C2760 C2759 1.523 . S
H2761 C2736 0.950 . S
H2762 C2738 0.950 . S
H2763 C2739 0.949 . S
H2764 C2741 0.950 . S
H2765 C2743 0.950 . S
C2766 C2767 1.349 . S
C2766 C2768 1.327 . S
C2766 H2791 0.950 . S
C2767 C2766 1.349 . S
C2767 C2783 1.349 . S
C2768 C2766 1.327 . S
C2768 C2787 1.429 . S
C2768 H2792 0.950 . S
C2769 C2786 1.574 . S
C2769 C2788 1.368 . S
C2769 H2793 0.949 . S
H2770 C2774 0.949 . S
C2771 C2772 1.349 . S
C2771 C2773 1.327 . S
C2771 H2794 0.950 . S
C2772 C2771 1.349 . S
C2772 C2784 1.349 . S
C2773 C2771 1.327 . S
C2773 C2789 1.429 . S
C2773 H2795 0.950 . S
C2774 H2770 0.949 . S
C2774 C2782 1.574 . S
C2774 C2790 1.368 . S
H2775 C2783 0.950 . S
H2776 C2781 0.950 . S
H2777 C2782 0.949 . S
H2778 C2784 0.950 . S
H2779 C2785 0.950 . S
H2780 C2786 0.949 . S
C2781 H2776 0.950 . S
C2781 C2783 1.327 . S
C2781 C2787 1.429 . S
C2782 C2774 1.574 . S
C2782 H2777 0.949 . S
C2782 C2788 1.368 . S
C2783 C2767 1.349 . S
C2783 H2775 0.950 . S
C2783 C2781 1.327 . S
C2784 C2772 1.349 . S
C2784 H2778 0.950 . S
C2784 C2785 1.327 . S
C2785 H2779 0.950 . S
C2785 C2784 1.327 . S
C2785 C2789 1.429 . S
C2786 C2769 1.574 . S
C2786 H2780 0.949 . S
C2786 C2790 1.368 . S
C2787 C2768 1.429 . S
C2787 C2781 1.429 . S
C2787 C2788 1.523 . S
C2788 C2769 1.368 . S
C2788 C2782 1.368 . S
C2788 C2787 1.523 . S
C2789 C2773 1.429 . S
C2789 C2785 1.429 . S
C2789 C2790 1.523 . S
C2790 C2774 1.368 . S
C2790 C2786 1.368 . S
C2790 C2789 1.523 . S
H2791 C2766 0.950 . S
H2792 C2768 0.950 . S
H2793 C2769 0.949 . S
H2794 C2771 0.950 . S
H2795 C2773 0.950 . S
C2796 C2797 1.349 . S
C2796 C2798 1.327 . S
C2796 H2821 0.950 . S
C2797 C2796 1.349 . S
C2797 C2813 1.349 . S
C2798 C2796 1.327 . S
C2798 C2817 1.429 . S
C2798 H2822 0.950 . S
C2799 C2816 1.574 . S
C2799 C2818 1.368 . S
C2799 H2823 0.949 . S
H2800 C2804 0.949 . S
C2801 C2802 1.349 . S
C2801 C2803 1.327 . S
C2801 H2824 0.950 . S
C2802 C2801 1.349 . S
C2802 C2814 1.349 . S
C2803 C2801 1.327 . S
C2803 C2819 1.429 . S
C2803 H2825 0.950 . S
C2804 H2800 0.949 . S
C2804 C2812 1.574 . S
C2804 C2820 1.368 . S
H2805 C2813 0.950 . S
H2806 C2811 0.950 . S
H2807 C2812 0.949 . S
H2808 C2814 0.950 . S
H2809 C2815 0.950 . S
H2810 C2816 0.949 . S
C2811 H2806 0.950 . S
C2811 C2813 1.327 . S
C2811 C2817 1.429 . S
C2812 C2804 1.574 . S
C2812 H2807 0.949 . S
C2812 C2818 1.368 . S
C2813 C2797 1.349 . S
C2813 H2805 0.950 . S
C2813 C2811 1.327 . S
C2814 C2802 1.349 . S
C2814 H2808 0.950 . S
C2814 C2815 1.327 . S
C2815 H2809 0.950 . S
C2815 C2814 1.327 . S
C2815 C2819 1.429 . S
C2816 C2799 1.574 . S
C2816 H2810 0.949 . S
C2816 C2820 1.368 . S
C2817 C2798 1.429 . S
C2817 C2811 1.429 . S
C2817 C2818 1.523 . S
C2818 C2799 1.368 . S
C2818 C2812 1.368 . S
C2818 C2817 1.523 . S
C2819 C2803 1.429 . S
C2819 C2815 1.429 . S
C2819 C2820 1.523 . S
C2820 C2804 1.368 . S
C2820 C2816 1.368 . S
C2820 C2819 1.523 . S
H2821 C2796 0.950 . S
H2822 C2798 0.950 . S
H2823 C2799 0.949 . S
H2824 C2801 0.950 . S
H2825 C2803 0.950 . S
C2826 C2827 1.349 . S
C2826 C2828 1.327 . S
C2826 H2851 0.950 . S
C2827 C2826 1.349 . S
C2827 C2843 1.349 . S
C2828 C2826 1.327 . S
C2828 C2847 1.429 . S
C2828 H2852 0.950 . S
C2829 C2846 1.574 . S
C2829 C2848 1.368 . S
C2829 H2853 0.949 . S
H2830 C2834 0.949 . S
C2831 C2832 1.349 . S
C2831 C2833 1.327 . S
C2831 H2854 0.950 . S
C2832 C2831 1.349 . S
C2832 C2844 1.349 . S
C2833 C2831 1.327 . S
C2833 C2849 1.429 . S
C2833 H2855 0.950 . S
C2834 H2830 0.949 . S
C2834 C2842 1.574 . S
C2834 C2850 1.368 . S
H2835 C2843 0.950 . S
H2836 C2841 0.950 . S
H2837 C2842 0.949 . S
H2838 C2844 0.950 . S
H2839 C2845 0.950 . S
H2840 C2846 0.949 . S
C2841 H2836 0.950 . S
C2841 C2843 1.327 . S
C2841 C2847 1.429 . S
C2842 C2834 1.574 . S
C2842 H2837 0.949 . S
C2842 C2848 1.368 . S
C2843 C2827 1.349 . S
C2843 H2835 0.950 . S
C2843 C2841 1.327 . S
C2844 C2832 1.349 . S
C2844 H2838 0.950 . S
C2844 C2845 1.327 . S
C2845 H2839 0.950 . S
C2845 C2844 1.327 . S
C2845 C2849 1.429 . S
C2846 C2829 1.574 . S
C2846 H2840 0.949 . S
C2846 C2850 1.368 . S
C2847 C2828 1.429 . S
C2847 C2841 1.429 . S
C2847 C2848 1.523 . S
C2848 C2829 1.368 . S
C2848 C2842 1.368 . S
C2848 C2847 1.523 . S
C2849 C2833 1.429 . S
C2849 C2845 1.429 . S
C2849 C2850 1.523 . S
C2850 C2834 1.368 . S
C2850 C2846 1.368 . S
C2850 C2849 1.523 . S
H2851 C2826 0.950 . S
H2852 C2828 0.950 . S
H2853 C2829 0.949 . S
H2854 C2831 0.950 . S
H2855 C2833 0.950 . S
C2856 C2857 1.349 . S
C2856 C2858 1.327 . S
C2856 H2881 0.950 . S
C2857 C2856 1.349 . S
C2857 C2873 1.349 . S
C2858 C2856 1.327 . S
C2858 C2877 1.429 . S
C2858 H2882 0.950 . S
C2859 C2876 1.574 . S
C2859 C2878 1.368 . S
C2859 H2883 0.949 . S
H2860 C2864 0.949 . S
C2861 C2862 1.349 . S
C2861 C2863 1.327 . S
C2861 H2884 0.950 . S
C2862 C2861 1.349 . S
C2862 C2874 1.349 . S
C2863 C2861 1.327 . S
C2863 C2879 1.429 . S
C2863 H2885 0.950 . S
C2864 H2860 0.949 . S
C2864 C2872 1.574 . S
C2864 C2880 1.368 . S
H2865 C2873 0.950 . S
H2866 C2871 0.950 . S
H2867 C2872 0.949 . S
H2868 C2874 0.950 . S
H2869 C2875 0.950 . S
H2870 C2876 0.949 . S
C2871 H2866 0.950 . S
C2871 C2873 1.327 . S
C2871 C2877 1.429 . S
C2872 C2864 1.574 . S
C2872 H2867 0.949 . S
C2872 C2878 1.368 . S
C2873 C2857 1.349 . S
C2873 H2865 0.950 . S
C2873 C2871 1.327 . S
C2874 C2862 1.349 . S
C2874 H2868 0.950 . S
C2874 C2875 1.327 . S
C2875 H2869 0.950 . S
C2875 C2874 1.327 . S
C2875 C2879 1.429 . S
C2876 C2859 1.574 . S
C2876 H2870 0.949 . S
C2876 C2880 1.368 . S
C2877 C2858 1.429 . S
C2877 C2871 1.429 . S
C2877 C2878 1.523 . S
C2878 C2859 1.368 . S
C2878 C2872 1.368 . S
C2878 C2877 1.523 . S
C2879 C2863 1.429 . S
C2879 C2875 1.429 . S
C2879 C2880 1.523 . S
C2880 C2864 1.368 . S
C2880 C2876 1.368 . S
C2880 C2879 1.523 . S
H2881 C2856 0.950 . S
H2882 C2858 0.950 . S
H2883 C2859 0.949 . S
H2884 C2861 0.950 . S
H2885 C2863 0.950 . S
C2886 C2887 1.349 . S
C2886 C2888 1.327 . S
C2886 H2911 0.950 . S
C2887 C2886 1.349 . S
C2887 C2903 1.349 . S
C2888 C2886 1.327 . S
C2888 C2907 1.429 . S
C2888 H2912 0.950 . S
C2889 C2906 1.574 . S
C2889 C2908 1.368 . S
C2889 H2913 0.949 . S
H2890 C2894 0.949 . S
C2891 C2892 1.349 . S
C2891 C2893 1.327 . S
C2891 H2914 0.950 . S
C2892 C2891 1.349 . S
C2892 C2904 1.349 . S
C2893 C2891 1.327 . S
C2893 C2909 1.429 . S
C2893 H2915 0.950 . S
C2894 H2890 0.949 . S
C2894 C2902 1.574 . S
C2894 C2910 1.368 . S
H2895 C2903 0.950 . S
H2896 C2901 0.950 . S
H2897 C2902 0.949 . S
H2898 C2904 0.950 . S
H2899 C2905 0.950 . S
H2900 C2906 0.949 . S
C2901 H2896 0.950 . S
C2901 C2903 1.327 . S
C2901 C2907 1.429 . S
C2902 C2894 1.574 . S
C2902 H2897 0.949 . S
C2902 C2908 1.368 . S
C2903 C2887 1.349 . S
C2903 H2895 0.950 . S
C2903 C2901 1.327 . S
C2904 C2892 1.349 . S
C2904 H2898 0.950 . S
C2904 C2905 1.327 . S
C2905 H2899 0.950 . S
C2905 C2904 1.327 . S
C2905 C2909 1.429 . S
C2906 C2889 1.574 . S
C2906 H2900 0.949 . S
C2906 C2910 1.368 . S
C2907 C2888 1.429 . S
C2907 C2901 1.429 . S
C2907 C2908 1.523 . S
C2908 C2889 1.368 . S
C2908 C2902 1.368 . S
C2908 C2907 1.523 . S
C2909 C2893 1.429 . S
C2909 C2905 1.429 . S
C2909 C2910 1.523 . S
C2910 C2894 1.368 . S
C2910 C2906 1.368 . S
C2910 C2909 1.523 . S
H2911 C2886 0.950 . S
H2912 C2888 0.950 . S
H2913 C2889 0.949 . S
H2914 C2891 0.950 . S
H2915 C2893 0.950 . S
C2916 C2917 1.349 . S
C2916 C2918 1.327 . S
C2916 H2941 0.950 . S
C2917 C2916 1.349 . S
C2917 C2933 1.349 . S
C2918 C2916 1.327 . S
C2918 C2937 1.429 . S
C2918 H2942 0.950 . S
C2919 C2936 1.574 . S
C2919 C2938 1.368 . S
C2919 H2943 0.949 . S
H2920 C2924 0.949 . S
C2921 C2922 1.349 . S
C2921 C2923 1.327 . S
C2921 H2944 0.950 . S
C2922 C2921 1.349 . S
C2922 C2934 1.349 . S
C2923 C2921 1.327 . S
C2923 C2939 1.429 . S
C2923 H2945 0.950 . S
C2924 H2920 0.949 . S
C2924 C2932 1.574 . S
C2924 C2940 1.368 . S
H2925 C2933 0.950 . S
H2926 C2931 0.950 . S
H2927 C2932 0.949 . S
H2928 C2934 0.950 . S
H2929 C2935 0.950 . S
H2930 C2936 0.949 . S
C2931 H2926 0.950 . S
C2931 C2933 1.327 . S
C2931 C2937 1.429 . S
C2932 C2924 1.574 . S
C2932 H2927 0.949 . S
C2932 C2938 1.368 . S
C2933 C2917 1.349 . S
C2933 H2925 0.950 . S
C2933 C2931 1.327 . S
C2934 C2922 1.349 . S
C2934 H2928 0.950 . S
C2934 C2935 1.327 . S
C2935 H2929 0.950 . S
C2935 C2934 1.327 . S
C2935 C2939 1.429 . S
C2936 C2919 1.574 . S
C2936 H2930 0.949 . S
C2936 C2940 1.368 . S
C2937 C2918 1.429 . S
C2937 C2931 1.429 . S
C2937 C2938 1.523 . S
C2938 C2919 1.368 . S
C2938 C2932 1.368 . S
C2938 C2937 1.523 . S
C2939 C2923 1.429 . S
C2939 C2935 1.429 . S
C2939 C2940 1.523 . S
C2940 C2924 1.368 . S
C2940 C2936 1.368 . S
C2940 C2939 1.523 . S
H2941 C2916 0.950 . S
H2942 C2918 0.950 . S
H2943 C2919 0.949 . S
H2944 C2921 0.950 . S
H2945 C2923 0.950 . S
C2946 C2947 1.349 . S
C2946 C2948 1.327 . S
C2946 H2971 0.950 . S
C2947 C2946 1.349 . S
C2947 C2963 1.349 . S
C2948 C2946 1.327 . S
C2948 C2967 1.429 . S
C2948 H2972 0.950 . S
C2949 C2966 1.574 . S
C2949 C2968 1.368 . S
C2949 H2973 0.949 . S
H2950 C2954 0.949 . S
C2951 C2952 1.349 . S
C2951 C2953 1.327 . S
C2951 H2974 0.950 . S
C2952 C2951 1.349 . S
C2952 C2964 1.349 . S
C2953 C2951 1.327 . S
C2953 C2969 1.429 . S
C2953 H2975 0.950 . S
C2954 H2950 0.949 . S
C2954 C2962 1.574 . S
C2954 C2970 1.368 . S
H2955 C2963 0.950 . S
H2956 C2961 0.950 . S
H2957 C2962 0.949 . S
H2958 C2964 0.950 . S
H2959 C2965 0.950 . S
H2960 C2966 0.949 . S
C2961 H2956 0.950 . S
C2961 C2963 1.327 . S
C2961 C2967 1.429 . S
C2962 C2954 1.574 . S
C2962 H2957 0.949 . S
C2962 C2968 1.368 . S
C2963 C2947 1.349 . S
C2963 H2955 0.950 . S
C2963 C2961 1.327 . S
C2964 C2952 1.349 . S
C2964 H2958 0.950 . S
C2964 C2965 1.327 . S
C2965 H2959 0.950 . S
C2965 C2964 1.327 . S
C2965 C2969 1.429 . S
C2966 C2949 1.574 . S
C2966 H2960 0.949 . S
C2966 C2970 1.368 . S
C2967 C2948 1.429 . S
C2967 C2961 1.429 . S
C2967 C2968 1.523 . S
C2968 C2949 1.368 . S
C2968 C2962 1.368 . S
C2968 C2967 1.523 . S
C2969 C2953 1.429 . S
C2969 C2965 1.429 . S
C2969 C2970 1.523 . S
C2970 C2954 1.368 . S
C2970 C2966 1.368 . S
C2970 C2969 1.523 . S
H2971 C2946 0.950 . S
H2972 C2948 0.950 . S
H2973 C2949 0.949 . S
H2974 C2951 0.950 . S
H2975 C2953 0.950 . S
C2976 C2977 1.349 . S
C2976 C2978 1.327 . S
C2976 H3001 0.950 . S
C2977 C2976 1.349 . S
C2977 C2993 1.349 . S
C2978 C2976 1.327 . S
C2978 C2997 1.429 . S
C2978 H3002 0.950 . S
C2979 C2996 1.574 . S
C2979 C2998 1.368 . S
C2979 H3003 0.949 . S
H2980 C2984 0.949 . S
C2981 C2982 1.349 . S
C2981 C2983 1.327 . S
C2981 H3004 0.950 . S
C2982 C2981 1.349 . S
C2982 C2994 1.349 . S
C2983 C2981 1.327 . S
C2983 C2999 1.429 . S
C2983 H3005 0.950 . S
C2984 H2980 0.949 . S
C2984 C2992 1.574 . S
C2984 C3000 1.368 . S
H2985 C2993 0.950 . S
H2986 C2991 0.950 . S
H2987 C2992 0.949 . S
H2988 C2994 0.950 . S
H2989 C2995 0.950 . S
H2990 C2996 0.949 . S
C2991 H2986 0.950 . S
C2991 C2993 1.327 . S
C2991 C2997 1.429 . S
C2992 C2984 1.574 . S
C2992 H2987 0.949 . S
C2992 C2998 1.368 . S
C2993 C2977 1.349 . S
C2993 H2985 0.950 . S
C2993 C2991 1.327 . S
C2994 C2982 1.349 . S
C2994 H2988 0.950 . S
C2994 C2995 1.327 . S
C2995 H2989 0.950 . S
C2995 C2994 1.327 . S
C2995 C2999 1.429 . S
C2996 C2979 1.574 . S
C2996 H2990 0.949 . S
C2996 C3000 1.368 . S
C2997 C2978 1.429 . S
C2997 C2991 1.429 . S
C2997 C2998 1.523 . S
C2998 C2979 1.368 . S
C2998 C2992 1.368 . S
C2998 C2997 1.523 . S
C2999 C2983 1.429 . S
C2999 C2995 1.429 . S
C2999 C3000 1.523 . S
C3000 C2984 1.368 . S
C3000 C2996 1.368 . S
C3000 C2999 1.523 . S
H3001 C2976 0.950 . S
H3002 C2978 0.950 . S
H3003 C2979 0.949 . S
H3004 C2981 0.950 . S
H3005 C2983 0.950 . S
C3006 C3007 1.349 . S
C3006 C3008 1.327 . S
C3006 H3031 0.950 . S
C3007 C3006 1.349 . S
C3007 C3023 1.349 . S
C3008 C3006 1.327 . S
C3008 C3027 1.429 . S
C3008 H3032 0.950 . S
C3009 C3026 1.574 1_655 S
C3009 C3028 1.368 . S
C3009 H3033 0.949 . S
H3010 C3014 0.949 . S
C3011 C3012 1.349 . S
C3011 C3013 1.327 . S
C3011 H3034 0.950 . S
C3012 C3011 1.349 . S
C3012 C3024 1.349 . S
C3013 C3011 1.327 . S
C3013 C3029 1.429 . S
C3013 H3035 0.950 . S
C3014 H3010 0.949 . S
C3014 C3022 1.574 1_455 S
C3014 C3030 1.368 . S
H3015 C3023 0.950 . S
H3016 C3021 0.950 . S
H3017 C3022 0.949 . S
H3018 C3024 0.950 . S
H3019 C3025 0.950 . S
H3020 C3026 0.949 . S
C3021 H3016 0.950 . S
C3021 C3023 1.327 . S
C3021 C3027 1.429 . S
C3022 C3014 1.574 1_655 S
C3022 H3017 0.949 . S
C3022 C3028 1.368 . S
C3023 C3007 1.349 . S
C3023 H3015 0.950 . S
C3023 C3021 1.327 . S
C3024 C3012 1.349 . S
C3024 H3018 0.950 . S
C3024 C3025 1.327 . S
C3025 H3019 0.950 . S
C3025 C3024 1.327 . S
C3025 C3029 1.429 . S
C3026 C3009 1.574 1_455 S
C3026 H3020 0.949 . S
C3026 C3030 1.368 . S
C3027 C3008 1.429 . S
C3027 C3021 1.429 . S
C3027 C3028 1.523 . S
C3028 C3009 1.368 . S
C3028 C3022 1.368 . S
C3028 C3027 1.523 . S
C3029 C3013 1.429 . S
C3029 C3025 1.429 . S
C3029 C3030 1.523 . S
C3030 C3014 1.368 . S
C3030 C3026 1.368 . S
C3030 C3029 1.523 . S
H3031 C3006 0.950 . S
H3032 C3008 0.950 . S
H3033 C3009 0.949 . S
H3034 C3011 0.950 . S
H3035 C3013 0.950 . S
C3036 C3037 1.349 . S
C3036 C3038 1.327 . S
C3036 H3061 0.950 . S
C3037 C3036 1.349 . S
C3037 C3053 1.349 . S
C3038 C3036 1.327 . S
C3038 C3057 1.429 . S
C3038 H3062 0.950 . S
C3039 C3056 1.574 . S
C3039 C3058 1.368 . S
C3039 H3063 0.949 . S
H3040 C3044 0.949 . S
C3041 C3042 1.349 . S
C3041 C3043 1.327 . S
C3041 H3064 0.950 . S
C3042 C3041 1.349 . S
C3042 C3054 1.349 . S
C3043 C3041 1.327 . S
C3043 C3059 1.429 . S
C3043 H3065 0.950 . S
C3044 H3040 0.949 . S
C3044 C3052 1.574 . S
C3044 C3060 1.368 . S
H3045 C3053 0.950 . S
H3046 C3051 0.950 . S
H3047 C3052 0.949 . S
H3048 C3054 0.950 . S
H3049 C3055 0.950 . S
H3050 C3056 0.949 . S
C3051 H3046 0.950 . S
C3051 C3053 1.327 . S
C3051 C3057 1.429 . S
C3052 C3044 1.574 . S
C3052 H3047 0.949 . S
C3052 C3058 1.368 . S
C3053 C3037 1.349 . S
C3053 H3045 0.950 . S
C3053 C3051 1.327 . S
C3054 C3042 1.349 . S
C3054 H3048 0.950 . S
C3054 C3055 1.327 . S
C3055 H3049 0.950 . S
C3055 C3054 1.327 . S
C3055 C3059 1.429 . S
C3056 C3039 1.574 . S
C3056 H3050 0.949 . S
C3056 C3060 1.368 . S
C3057 C3038 1.429 . S
C3057 C3051 1.429 . S
C3057 C3058 1.523 . S
C3058 C3039 1.368 . S
C3058 C3052 1.368 . S
C3058 C3057 1.523 . S
C3059 C3043 1.429 . S
C3059 C3055 1.429 . S
C3059 C3060 1.523 . S
C3060 C3044 1.368 . S
C3060 C3056 1.368 . S
C3060 C3059 1.523 . S
H3061 C3036 0.950 . S
H3062 C3038 0.950 . S
H3063 C3039 0.949 . S
H3064 C3041 0.950 . S
H3065 C3043 0.950 . S
C3066 C3067 1.349 . S
C3066 C3068 1.327 . S
C3066 H3091 0.950 . S
C3067 C3066 1.349 . S
C3067 C3083 1.349 . S
C3068 C3066 1.327 . S
C3068 C3087 1.429 . S
C3068 H3092 0.950 . S
C3069 C3086 1.574 . S
C3069 C3088 1.368 . S
C3069 H3093 0.949 . S
H3070 C3074 0.949 . S
C3071 C3072 1.349 . S
C3071 C3073 1.327 . S
C3071 H3094 0.950 . S
C3072 C3071 1.349 . S
C3072 C3084 1.349 . S
C3073 C3071 1.327 . S
C3073 C3089 1.429 . S
C3073 H3095 0.950 . S
C3074 H3070 0.949 . S
C3074 C3082 1.574 . S
C3074 C3090 1.368 . S
H3075 C3083 0.950 . S
H3076 C3081 0.950 . S
H3077 C3082 0.949 . S
H3078 C3084 0.950 . S
H3079 C3085 0.950 . S
H3080 C3086 0.949 . S
C3081 H3076 0.950 . S
C3081 C3083 1.327 . S
C3081 C3087 1.429 . S
C3082 C3074 1.574 . S
C3082 H3077 0.949 . S
C3082 C3088 1.368 . S
C3083 C3067 1.349 . S
C3083 H3075 0.950 . S
C3083 C3081 1.327 . S
C3084 C3072 1.349 . S
C3084 H3078 0.950 . S
C3084 C3085 1.327 . S
C3085 H3079 0.950 . S
C3085 C3084 1.327 . S
C3085 C3089 1.429 . S
C3086 C3069 1.574 . S
C3086 H3080 0.949 . S
C3086 C3090 1.368 . S
C3087 C3068 1.429 . S
C3087 C3081 1.429 . S
C3087 C3088 1.523 . S
C3088 C3069 1.368 . S
C3088 C3082 1.368 . S
C3088 C3087 1.523 . S
C3089 C3073 1.429 . S
C3089 C3085 1.429 . S
C3089 C3090 1.523 . S
C3090 C3074 1.368 . S
C3090 C3086 1.368 . S
C3090 C3089 1.523 . S
H3091 C3066 0.950 . S
H3092 C3068 0.950 . S
H3093 C3069 0.949 . S
H3094 C3071 0.950 . S
H3095 C3073 0.950 . S
C3096 C3097 1.349 . S
C3096 C3098 1.327 . S
C3096 H3121 0.950 . S
C3097 C3096 1.349 . S
C3097 C3113 1.349 . S
C3098 C3096 1.327 . S
C3098 C3117 1.429 . S
C3098 H3122 0.950 . S
C3099 C3116 1.574 . S
C3099 C3118 1.368 . S
C3099 H3123 0.949 . S
H3100 C3104 0.949 . S
C3101 C3102 1.349 . S
C3101 C3103 1.327 . S
C3101 H3124 0.950 . S
C3102 C3101 1.349 . S
C3102 C3114 1.349 . S
C3103 C3101 1.327 . S
C3103 C3119 1.429 . S
C3103 H3125 0.950 . S
C3104 H3100 0.949 . S
C3104 C3112 1.574 . S
C3104 C3120 1.368 . S
H3105 C3113 0.950 . S
H3106 C3111 0.950 . S
H3107 C3112 0.949 . S
H3108 C3114 0.950 . S
H3109 C3115 0.950 . S
H3110 C3116 0.949 . S
C3111 H3106 0.950 . S
C3111 C3113 1.327 . S
C3111 C3117 1.429 . S
C3112 C3104 1.574 . S
C3112 H3107 0.949 . S
C3112 C3118 1.368 . S
C3113 C3097 1.349 . S
C3113 H3105 0.950 . S
C3113 C3111 1.327 . S
C3114 C3102 1.349 . S
C3114 H3108 0.950 . S
C3114 C3115 1.327 . S
C3115 H3109 0.950 . S
C3115 C3114 1.327 . S
C3115 C3119 1.429 . S
C3116 C3099 1.574 . S
C3116 H3110 0.949 . S
C3116 C3120 1.368 . S
C3117 C3098 1.429 . S
C3117 C3111 1.429 . S
C3117 C3118 1.523 . S
C3118 C3099 1.368 . S
C3118 C3112 1.368 . S
C3118 C3117 1.523 . S
C3119 C3103 1.429 . S
C3119 C3115 1.429 . S
C3119 C3120 1.523 . S
C3120 C3104 1.368 . S
C3120 C3116 1.368 . S
C3120 C3119 1.523 . S
H3121 C3096 0.950 . S
H3122 C3098 0.950 . S
H3123 C3099 0.949 . S
H3124 C3101 0.950 . S
H3125 C3103 0.950 . S
C3126 C3127 1.349 . S
C3126 C3128 1.327 . S
C3126 H3151 0.950 . S
C3127 C3126 1.349 . S
C3127 C3143 1.349 . S
C3128 C3126 1.327 . S
C3128 C3147 1.429 . S
C3128 H3152 0.950 . S
C3129 C3146 1.574 . S
C3129 C3148 1.368 . S
C3129 H3153 0.949 . S
H3130 C3134 0.949 . S
C3131 C3132 1.349 . S
C3131 C3133 1.327 . S
C3131 H3154 0.950 . S
C3132 C3131 1.349 . S
C3132 C3144 1.349 . S
C3133 C3131 1.327 . S
C3133 C3149 1.429 . S
C3133 H3155 0.950 . S
C3134 H3130 0.949 . S
C3134 C3142 1.574 . S
C3134 C3150 1.368 . S
H3135 C3143 0.950 . S
H3136 C3141 0.950 . S
H3137 C3142 0.949 . S
H3138 C3144 0.950 . S
H3139 C3145 0.950 . S
H3140 C3146 0.949 . S
C3141 H3136 0.950 . S
C3141 C3143 1.327 . S
C3141 C3147 1.429 . S
C3142 C3134 1.574 . S
C3142 H3137 0.949 . S
C3142 C3148 1.368 . S
C3143 C3127 1.349 . S
C3143 H3135 0.950 . S
C3143 C3141 1.327 . S
C3144 C3132 1.349 . S
C3144 H3138 0.950 . S
C3144 C3145 1.327 . S
C3145 H3139 0.950 . S
C3145 C3144 1.327 . S
C3145 C3149 1.429 . S
C3146 C3129 1.574 . S
C3146 H3140 0.949 . S
C3146 C3150 1.368 . S
C3147 C3128 1.429 . S
C3147 C3141 1.429 . S
C3147 C3148 1.523 . S
C3148 C3129 1.368 . S
C3148 C3142 1.368 . S
C3148 C3147 1.523 . S
C3149 C3133 1.429 . S
C3149 C3145 1.429 . S
C3149 C3150 1.523 . S
C3150 C3134 1.368 . S
C3150 C3146 1.368 . S
C3150 C3149 1.523 . S
H3151 C3126 0.950 . S
H3152 C3128 0.950 . S
H3153 C3129 0.949 . S
H3154 C3131 0.950 . S
H3155 C3133 0.950 . S
C3156 C3157 1.349 . S
C3156 C3158 1.327 . S
C3156 H3181 0.950 . S
C3157 C3156 1.349 . S
C3157 C3173 1.349 . S
C3158 C3156 1.327 . S
C3158 C3177 1.429 . S
C3158 H3182 0.950 . S
C3159 C3176 1.574 . S
C3159 C3178 1.368 . S
C3159 H3183 0.949 . S
H3160 C3164 0.949 . S
C3161 C3162 1.349 . S
C3161 C3163 1.327 . S
C3161 H3184 0.950 . S
C3162 C3161 1.349 . S
C3162 C3174 1.349 . S
C3163 C3161 1.327 . S
C3163 C3179 1.429 . S
C3163 H3185 0.950 . S
C3164 H3160 0.949 . S
C3164 C3172 1.574 . S
C3164 C3180 1.368 . S
H3165 C3173 0.950 . S
H3166 C3171 0.950 . S
H3167 C3172 0.949 . S
H3168 C3174 0.950 . S
H3169 C3175 0.950 . S
H3170 C3176 0.949 . S
C3171 H3166 0.950 . S
C3171 C3173 1.327 . S
C3171 C3177 1.429 . S
C3172 C3164 1.574 . S
C3172 H3167 0.949 . S
C3172 C3178 1.368 . S
C3173 C3157 1.349 . S
C3173 H3165 0.950 . S
C3173 C3171 1.327 . S
C3174 C3162 1.349 . S
C3174 H3168 0.950 . S
C3174 C3175 1.327 . S
C3175 H3169 0.950 . S
C3175 C3174 1.327 . S
C3175 C3179 1.429 . S
C3176 C3159 1.574 . S
C3176 H3170 0.949 . S
C3176 C3180 1.368 . S
C3177 C3158 1.429 . S
C3177 C3171 1.429 . S
C3177 C3178 1.523 . S
C3178 C3159 1.368 . S
C3178 C3172 1.368 . S
C3178 C3177 1.523 . S
C3179 C3163 1.429 . S
C3179 C3175 1.429 . S
C3179 C3180 1.523 . S
C3180 C3164 1.368 . S
C3180 C3176 1.368 . S
C3180 C3179 1.523 . S
H3181 C3156 0.950 . S
H3182 C3158 0.950 . S
H3183 C3159 0.949 . S
H3184 C3161 0.950 . S
H3185 C3163 0.950 . S
C3186 C3187 1.349 . S
C3186 C3188 1.327 . S
C3186 H3211 0.950 . S
C3187 C3186 1.349 . S
C3187 C3203 1.349 . S
C3188 C3186 1.327 . S
C3188 C3207 1.429 . S
C3188 H3212 0.950 . S
C3189 C3206 1.574 1_455 S
C3189 C3208 1.368 . S
C3189 H3213 0.949 . S
H3190 C3194 0.949 . S
C3191 C3192 1.349 . S
C3191 C3193 1.327 . S
C3191 H3214 0.950 . S
C3192 C3191 1.349 . S
C3192 C3204 1.349 . S
C3193 C3191 1.327 . S
C3193 C3209 1.429 . S
C3193 H3215 0.950 . S
C3194 H3190 0.949 . S
C3194 C3202 1.574 1_655 S
C3194 C3210 1.368 . S
H3195 C3203 0.950 . S
H3196 C3201 0.950 . S
H3197 C3202 0.949 . S
H3198 C3204 0.950 . S
H3199 C3205 0.950 . S
H3200 C3206 0.949 . S
C3201 H3196 0.950 . S
C3201 C3203 1.327 . S
C3201 C3207 1.429 . S
C3202 C3194 1.574 1_455 S
C3202 H3197 0.949 . S
C3202 C3208 1.368 . S
C3203 C3187 1.349 . S
C3203 H3195 0.950 . S
C3203 C3201 1.327 . S
C3204 C3192 1.349 . S
C3204 H3198 0.950 . S
C3204 C3205 1.327 . S
C3205 H3199 0.950 . S
C3205 C3204 1.327 . S
C3205 C3209 1.429 . S
C3206 C3189 1.574 1_655 S
C3206 H3200 0.949 . S
C3206 C3210 1.368 . S
C3207 C3188 1.429 . S
C3207 C3201 1.429 . S
C3207 C3208 1.523 . S
C3208 C3189 1.368 . S
C3208 C3202 1.368 . S
C3208 C3207 1.523 . S
C3209 C3193 1.429 . S
C3209 C3205 1.429 . S
C3209 C3210 1.523 . S
C3210 C3194 1.368 . S
C3210 C3206 1.368 . S
C3210 C3209 1.523 . S
H3211 C3186 0.950 . S
H3212 C3188 0.950 . S
H3213 C3189 0.949 . S
H3214 C3191 0.950 . S
H3215 C3193 0.950 . S
C3216 C3217 1.349 . S
C3216 C3218 1.327 . S
C3216 H3241 0.950 . S
C3217 C3216 1.349 . S
C3217 C3233 1.349 . S
C3218 C3216 1.327 . S
C3218 C3237 1.429 . S
C3218 H3242 0.950 . S
C3219 C3236 1.574 . S
C3219 C3238 1.368 . S
C3219 H3243 0.949 . S
H3220 C3224 0.949 . S
C3221 C3222 1.349 . S
C3221 C3223 1.327 . S
C3221 H3244 0.950 . S
C3222 C3221 1.349 . S
C3222 C3234 1.349 . S
C3223 C3221 1.327 . S
C3223 C3239 1.429 . S
C3223 H3245 0.950 . S
C3224 H3220 0.949 . S
C3224 C3232 1.574 . S
C3224 C3240 1.368 . S
H3225 C3233 0.950 . S
H3226 C3231 0.950 . S
H3227 C3232 0.949 . S
H3228 C3234 0.950 . S
H3229 C3235 0.950 . S
H3230 C3236 0.949 . S
C3231 H3226 0.950 . S
C3231 C3233 1.327 . S
C3231 C3237 1.429 . S
C3232 C3224 1.574 . S
C3232 H3227 0.949 . S
C3232 C3238 1.368 . S
C3233 C3217 1.349 . S
C3233 H3225 0.950 . S
C3233 C3231 1.327 . S
C3234 C3222 1.349 . S
C3234 H3228 0.950 . S
C3234 C3235 1.327 . S
C3235 H3229 0.950 . S
C3235 C3234 1.327 . S
C3235 C3239 1.429 . S
C3236 C3219 1.574 . S
C3236 H3230 0.949 . S
C3236 C3240 1.368 . S
C3237 C3218 1.429 . S
C3237 C3231 1.429 . S
C3237 C3238 1.523 . S
C3238 C3219 1.368 . S
C3238 C3232 1.368 . S
C3238 C3237 1.523 . S
C3239 C3223 1.429 . S
C3239 C3235 1.429 . S
C3239 C3240 1.523 . S
C3240 C3224 1.368 . S
C3240 C3236 1.368 . S
C3240 C3239 1.523 . S
H3241 C3216 0.950 . S
H3242 C3218 0.950 . S
H3243 C3219 0.949 . S
H3244 C3221 0.950 . S
H3245 C3223 0.950 . S
C3246 C3247 1.349 . S
C3246 C3248 1.327 . S
C3246 H3271 0.950 . S
C3247 C3246 1.349 . S
C3247 C3263 1.349 . S
C3248 C3246 1.327 . S
C3248 C3267 1.429 . S
C3248 H3272 0.950 . S
C3249 C3266 1.574 . S
C3249 C3268 1.368 . S
C3249 H3273 0.949 . S
H3250 C3254 0.949 . S
C3251 C3252 1.349 . S
C3251 C3253 1.327 . S
C3251 H3274 0.950 . S
C3252 C3251 1.349 . S
C3252 C3264 1.349 . S
C3253 C3251 1.327 . S
C3253 C3269 1.429 . S
C3253 H3275 0.950 . S
C3254 H3250 0.949 . S
C3254 C3262 1.574 . S
C3254 C3270 1.368 . S
H3255 C3263 0.950 . S
H3256 C3261 0.950 . S
H3257 C3262 0.949 . S
H3258 C3264 0.950 . S
H3259 C3265 0.950 . S
H3260 C3266 0.949 . S
C3261 H3256 0.950 . S
C3261 C3263 1.327 . S
C3261 C3267 1.429 . S
C3262 C3254 1.574 . S
C3262 H3257 0.949 . S
C3262 C3268 1.368 . S
C3263 C3247 1.349 . S
C3263 H3255 0.950 . S
C3263 C3261 1.327 . S
C3264 C3252 1.349 . S
C3264 H3258 0.950 . S
C3264 C3265 1.327 . S
C3265 H3259 0.950 . S
C3265 C3264 1.327 . S
C3265 C3269 1.429 . S
C3266 C3249 1.574 . S
C3266 H3260 0.949 . S
C3266 C3270 1.368 . S
C3267 C3248 1.429 . S
C3267 C3261 1.429 . S
C3267 C3268 1.523 . S
C3268 C3249 1.368 . S
C3268 C3262 1.368 . S
C3268 C3267 1.523 . S
C3269 C3253 1.429 . S
C3269 C3265 1.429 . S
C3269 C3270 1.523 . S
C3270 C3254 1.368 . S
C3270 C3266 1.368 . S
C3270 C3269 1.523 . S
H3271 C3246 0.950 . S
H3272 C3248 0.950 . S
H3273 C3249 0.949 . S
H3274 C3251 0.950 . S
H3275 C3253 0.950 . S
C3276 C3277 1.349 . S
C3276 C3278 1.327 . S
C3276 H3301 0.950 . S
C3277 C3276 1.349 . S
C3277 C3293 1.349 . S
C3278 C3276 1.327 . S
C3278 C3297 1.429 . S
C3278 H3302 0.950 . S
C3279 C3296 1.574 . S
C3279 C3298 1.368 . S
C3279 H3303 0.949 . S
H3280 C3284 0.949 . S
C3281 C3282 1.349 . S
C3281 C3283 1.327 . S
C3281 H3304 0.950 . S
C3282 C3281 1.349 . S
C3282 C3294 1.349 . S
C3283 C3281 1.327 . S
C3283 C3299 1.429 . S
C3283 H3305 0.950 . S
C3284 H3280 0.949 . S
C3284 C3292 1.574 . S
C3284 C3300 1.368 . S
H3285 C3293 0.950 . S
H3286 C3291 0.950 . S
H3287 C3292 0.949 . S
H3288 C3294 0.950 . S
H3289 C3295 0.950 . S
H3290 C3296 0.949 . S
C3291 H3286 0.950 . S
C3291 C3293 1.327 . S
C3291 C3297 1.429 . S
C3292 C3284 1.574 . S
C3292 H3287 0.949 . S
C3292 C3298 1.368 . S
C3293 C3277 1.349 . S
C3293 H3285 0.950 . S
C3293 C3291 1.327 . S
C3294 C3282 1.349 . S
C3294 H3288 0.950 . S
C3294 C3295 1.327 . S
C3295 H3289 0.950 . S
C3295 C3294 1.327 . S
C3295 C3299 1.429 . S
C3296 C3279 1.574 . S
C3296 H3290 0.949 . S
C3296 C3300 1.368 . S
C3297 C3278 1.429 . S
C3297 C3291 1.429 . S
C3297 C3298 1.523 . S
C3298 C3279 1.368 . S
C3298 C3292 1.368 . S
C3298 C3297 1.523 . S
C3299 C3283 1.429 . S
C3299 C3295 1.429 . S
C3299 C3300 1.523 . S
C3300 C3284 1.368 . S
C3300 C3296 1.368 . S
C3300 C3299 1.523 . S
H3301 C3276 0.950 . S
H3302 C3278 0.950 . S
H3303 C3279 0.949 . S
H3304 C3281 0.950 . S
H3305 C3283 0.950 . S
C3306 C3307 1.349 . S
C3306 C3308 1.327 . S
C3306 H3331 0.950 . S
C3307 C3306 1.349 . S
C3307 C3323 1.349 . S
C3308 C3306 1.327 . S
C3308 C3327 1.429 . S
C3308 H3332 0.950 . S
C3309 C3326 1.574 . S
C3309 C3328 1.368 . S
C3309 H3333 0.949 . S
H3310 C3314 0.949 . S
C3311 C3312 1.349 . S
C3311 C3313 1.327 . S
C3311 H3334 0.950 . S
C3312 C3311 1.349 . S
C3312 C3324 1.349 . S
C3313 C3311 1.327 . S
C3313 C3329 1.429 . S
C3313 H3335 0.950 . S
C3314 H3310 0.949 . S
C3314 C3322 1.574 . S
C3314 C3330 1.368 . S
H3315 C3323 0.950 . S
H3316 C3321 0.950 . S
H3317 C3322 0.949 . S
H3318 C3324 0.950 . S
H3319 C3325 0.950 . S
H3320 C3326 0.949 . S
C3321 H3316 0.950 . S
C3321 C3323 1.327 . S
C3321 C3327 1.429 . S
C3322 C3314 1.574 . S
C3322 H3317 0.949 . S
C3322 C3328 1.368 . S
C3323 C3307 1.349 . S
C3323 H3315 0.950 . S
C3323 C3321 1.327 . S
C3324 C3312 1.349 . S
C3324 H3318 0.950 . S
C3324 C3325 1.327 . S
C3325 H3319 0.950 . S
C3325 C3324 1.327 . S
C3325 C3329 1.429 . S
C3326 C3309 1.574 . S
C3326 H3320 0.949 . S
C3326 C3330 1.368 . S
C3327 C3308 1.429 . S
C3327 C3321 1.429 . S
C3327 C3328 1.523 . S
C3328 C3309 1.368 . S
C3328 C3322 1.368 . S
C3328 C3327 1.523 . S
C3329 C3313 1.429 . S
C3329 C3325 1.429 . S
C3329 C3330 1.523 . S
C3330 C3314 1.368 . S
C3330 C3326 1.368 . S
C3330 C3329 1.523 . S
H3331 C3306 0.950 . S
H3332 C3308 0.950 . S
H3333 C3309 0.949 . S
H3334 C3311 0.950 . S
H3335 C3313 0.950 . S
C3336 C3337 1.349 . S
C3336 C3338 1.327 . S
C3336 H3361 0.950 . S
C3337 C3336 1.349 . S
C3337 C3353 1.349 . S
C3338 C3336 1.327 . S
C3338 C3357 1.429 . S
C3338 H3362 0.950 . S
C3339 C3356 1.574 . S
C3339 C3358 1.368 . S
C3339 H3363 0.949 . S
H3340 C3344 0.949 . S
C3341 C3342 1.349 . S
C3341 C3343 1.327 . S
C3341 H3364 0.950 . S
C3342 C3341 1.349 . S
C3342 C3354 1.349 . S
C3343 C3341 1.327 . S
C3343 C3359 1.429 . S
C3343 H3365 0.950 . S
C3344 H3340 0.949 . S
C3344 C3352 1.574 . S
C3344 C3360 1.368 . S
H3345 C3353 0.950 . S
H3346 C3351 0.950 . S
H3347 C3352 0.949 . S
H3348 C3354 0.950 . S
H3349 C3355 0.950 . S
H3350 C3356 0.949 . S
C3351 H3346 0.950 . S
C3351 C3353 1.327 . S
C3351 C3357 1.429 . S
C3352 C3344 1.574 . S
C3352 H3347 0.949 . S
C3352 C3358 1.368 . S
C3353 C3337 1.349 . S
C3353 H3345 0.950 . S
C3353 C3351 1.327 . S
C3354 C3342 1.349 . S
C3354 H3348 0.950 . S
C3354 C3355 1.327 . S
C3355 H3349 0.950 . S
C3355 C3354 1.327 . S
C3355 C3359 1.429 . S
C3356 C3339 1.574 . S
C3356 H3350 0.949 . S
C3356 C3360 1.368 . S
C3357 C3338 1.429 . S
C3357 C3351 1.429 . S
C3357 C3358 1.523 . S
C3358 C3339 1.368 . S
C3358 C3352 1.368 . S
C3358 C3357 1.523 . S
C3359 C3343 1.429 . S
C3359 C3355 1.429 . S
C3359 C3360 1.523 . S
C3360 C3344 1.368 . S
C3360 C3356 1.368 . S
C3360 C3359 1.523 . S
H3361 C3336 0.950 . S
H3362 C3338 0.950 . S
H3363 C3339 0.949 . S
H3364 C3341 0.950 . S
H3365 C3343 0.950 . S
C3366 C3367 1.349 . S
C3366 C3368 1.327 . S
C3366 H3391 0.950 . S
C3367 C3366 1.349 . S
C3367 C3383 1.349 . S
C3368 C3366 1.327 . S
C3368 C3387 1.429 . S
C3368 H3392 0.950 . S
C3369 C3386 1.574 1_455 S
C3369 C3388 1.368 . S
C3369 H3393 0.949 . S
H3370 C3374 0.949 . S
C3371 C3372 1.349 . S
C3371 C3373 1.327 . S
C3371 H3394 0.950 . S
C3372 C3371 1.349 . S
C3372 C3384 1.349 . S
C3373 C3371 1.327 . S
C3373 C3389 1.429 . S
C3373 H3395 0.950 . S
C3374 H3370 0.949 . S
C3374 C3382 1.574 1_655 S
C3374 C3390 1.368 . S
H3375 C3383 0.950 . S
H3376 C3381 0.950 . S
H3377 C3382 0.949 . S
H3378 C3384 0.950 . S
H3379 C3385 0.950 . S
H3380 C3386 0.949 . S
C3381 H3376 0.950 . S
C3381 C3383 1.327 . S
C3381 C3387 1.429 . S
C3382 C3374 1.574 1_455 S
C3382 H3377 0.949 . S
C3382 C3388 1.368 . S
C3383 C3367 1.349 . S
C3383 H3375 0.950 . S
C3383 C3381 1.327 . S
C3384 C3372 1.349 . S
C3384 H3378 0.950 . S
C3384 C3385 1.327 . S
C3385 H3379 0.950 . S
C3385 C3384 1.327 . S
C3385 C3389 1.429 . S
C3386 C3369 1.574 1_655 S
C3386 H3380 0.949 . S
C3386 C3390 1.368 . S
C3387 C3368 1.429 . S
C3387 C3381 1.429 . S
C3387 C3388 1.523 . S
C3388 C3369 1.368 . S
C3388 C3382 1.368 . S
C3388 C3387 1.523 . S
C3389 C3373 1.429 . S
C3389 C3385 1.429 . S
C3389 C3390 1.523 . S
C3390 C3374 1.368 . S
C3390 C3386 1.368 . S
C3390 C3389 1.523 . S
H3391 C3366 0.950 . S
H3392 C3368 0.950 . S
H3393 C3369 0.949 . S
H3394 C3371 0.950 . S
H3395 C3373 0.950 . S
C3396 C3397 1.349 . S
C3396 C3398 1.327 . S
C3396 H3421 0.950 . S
C3397 C3396 1.349 . S
C3397 C3413 1.349 . S
C3398 C3396 1.327 . S
C3398 C3417 1.429 . S
C3398 H3422 0.950 . S
C3399 C3416 1.574 1_455 S
C3399 C3418 1.368 . S
C3399 H3423 0.949 . S
H3400 C3404 0.949 . S
C3401 C3402 1.349 . S
C3401 C3403 1.327 . S
C3401 H3424 0.950 . S
C3402 C3401 1.349 . S
C3402 C3414 1.349 . S
C3403 C3401 1.327 . S
C3403 C3419 1.429 . S
C3403 H3425 0.950 . S
C3404 H3400 0.949 . S
C3404 C3412 1.574 1_655 S
C3404 C3420 1.368 . S
H3405 C3413 0.950 . S
H3406 C3411 0.950 . S
H3407 C3412 0.949 . S
H3408 C3414 0.950 . S
H3409 C3415 0.950 . S
H3410 C3416 0.949 . S
C3411 H3406 0.950 . S
C3411 C3413 1.327 . S
C3411 C3417 1.429 . S
C3412 C3404 1.574 1_455 S
C3412 H3407 0.949 . S
C3412 C3418 1.368 . S
C3413 C3397 1.349 . S
C3413 H3405 0.950 . S
C3413 C3411 1.327 . S
C3414 C3402 1.349 . S
C3414 H3408 0.950 . S
C3414 C3415 1.327 . S
C3415 H3409 0.950 . S
C3415 C3414 1.327 . S
C3415 C3419 1.429 . S
C3416 C3399 1.574 1_655 S
C3416 H3410 0.949 . S
C3416 C3420 1.368 . S
C3417 C3398 1.429 . S
C3417 C3411 1.429 . S
C3417 C3418 1.523 . S
C3418 C3399 1.368 . S
C3418 C3412 1.368 . S
C3418 C3417 1.523 . S
C3419 C3403 1.429 . S
C3419 C3415 1.429 . S
C3419 C3420 1.523 . S
C3420 C3404 1.368 . S
C3420 C3416 1.368 . S
C3420 C3419 1.523 . S
H3421 C3396 0.950 . S
H3422 C3398 0.950 . S
H3423 C3399 0.949 . S
H3424 C3401 0.950 . S
H3425 C3403 0.950 . S
C3426 C3427 1.349 . S
C3426 C3428 1.327 . S
C3426 H3451 0.950 . S
C3427 C3426 1.349 . S
C3427 C3443 1.349 . S
C3428 C3426 1.327 . S
C3428 C3447 1.429 . S
C3428 H3452 0.950 . S
C3429 C3446 1.574 . S
C3429 C3448 1.368 . S
C3429 H3453 0.949 . S
H3430 C3434 0.949 . S
C3431 C3432 1.349 . S
C3431 C3433 1.327 . S
C3431 H3454 0.950 . S
C3432 C3431 1.349 . S
C3432 C3444 1.349 . S
C3433 C3431 1.327 . S
C3433 C3449 1.429 . S
C3433 H3455 0.950 . S
C3434 H3430 0.949 . S
C3434 C3442 1.574 . S
C3434 C3450 1.368 . S
H3435 C3443 0.950 . S
H3436 C3441 0.950 . S
H3437 C3442 0.949 . S
H3438 C3444 0.950 . S
H3439 C3445 0.950 . S
H3440 C3446 0.949 . S
C3441 H3436 0.950 . S
C3441 C3443 1.327 . S
C3441 C3447 1.429 . S
C3442 C3434 1.574 . S
C3442 H3437 0.949 . S
C3442 C3448 1.368 . S
C3443 C3427 1.349 . S
C3443 H3435 0.950 . S
C3443 C3441 1.327 . S
C3444 C3432 1.349 . S
C3444 H3438 0.950 . S
C3444 C3445 1.327 . S
C3445 H3439 0.950 . S
C3445 C3444 1.327 . S
C3445 C3449 1.429 . S
C3446 C3429 1.574 . S
C3446 H3440 0.949 . S
C3446 C3450 1.368 . S
C3447 C3428 1.429 . S
C3447 C3441 1.429 . S
C3447 C3448 1.523 . S
C3448 C3429 1.368 . S
C3448 C3442 1.368 . S
C3448 C3447 1.523 . S
C3449 C3433 1.429 . S
C3449 C3445 1.429 . S
C3449 C3450 1.523 . S
C3450 C3434 1.368 . S
C3450 C3446 1.368 . S
C3450 C3449 1.523 . S
H3451 C3426 0.950 . S
H3452 C3428 0.950 . S
H3453 C3429 0.949 . S
H3454 C3431 0.950 . S
H3455 C3433 0.950 . S
C1057 C41 2.010 . S
C1062 C28 1.992 . S
C1087 C61 1.992 . S
C1092 C74 2.010 . S
C1117 C94 1.992 . S
C1122 C107 2.010 . S
C1147 C127 1.992 . S
C1152 C8 2.010 . S
C1177 C160 1.992 . S
C1182 C239 2.010 . S
C1207 C140 2.010 . S
C1212 C193 1.992 . S
C1237 C226 1.992 . S
C1242 C173 2.010 . S
C1267 C259 1.992 . S
C1272 C206 2.010 . S
C1297 C305 2.010 . S
C1302 C292 1.992 . S
C1327 C338 2.010 . S
C1332 C325 1.992 . S
C1357 C358 1.992 . S
C1362 C371 2.010 . S
C1387 C272 2.010 . S
C1392 C391 1.992 . S
C1417 C424 1.992 . S
C1422 C503 2.010 . S
C1447 C457 1.992 . S
C1452 C404 2.010 . S
C1477 C437 2.010 . S
C1482 C490 1.992 . S
C1507 C470 2.010 . S
C1512 C523 1.992 . S
C1537 C569 2.010 . S
C1542 C556 1.992 . S
C1567 C589 1.992 . S
C1572 C602 2.010 . S
C1597 C635 2.010 . S
C1602 C622 1.992 . S
C1627 C536 2.010 . S
C1632 C655 1.992 . S
C1657 C767 2.010 . S
C1662 C688 1.992 . S
C1687 C721 1.992 . S
C1692 C668 2.010 . S
C1717 C701 2.010 . S
C1722 C754 1.992 . S
C1747 C787 1.992 . S
C1752 C734 2.010 . S
C1777 C833 2.010 . S
C1782 C820 1.992 . S
C1807 C853 1.992 . S
C1812 C866 2.010 . S
C1837 C886 1.992 . S
C1842 C899 2.010 . S
C1867 C919 1.992 . S
C1872 C800 2.010 . S
C1897 C1031 2.010 . S
C1902 C952 1.992 . S
C1927 C932 2.010 . S
C1932 C985 1.992 . S
C1957 C965 2.010 . S
C1962 C1018 1.992 . S
C1987 C998 2.010 . S
C1992 C1051 1.992 . S
C2017 N203 0.781 . S
C2022 N5 0.781 . S
C2047 N38 0.781 . S
C2052 N236 0.781 . S
C2077 N71 0.781 . S
C2082 N137 0.781 . S
C2107 N104 0.781 . S
C2112 N170 0.781 . S
C2137 N467 0.781 . S
C2142 N269 0.781 . S
C2167 N500 0.781 . S
C2172 N302 0.781 . S
C2197 N335 0.781 . S
C2202 N401 0.781 . S
C2227 N434 0.781 . S
C2232 N368 0.781 . S
C2257 N533 0.781 . S
C2262 N731 0.781 . S
C2287 N764 0.781 . S
C2292 N566 0.781 . S
C2317 N665 0.781 . S
C2322 N599 0.781 . S
C2347 N698 0.781 . S
C2352 N632 0.781 . S
C2377 N995 0.781 . S
C2382 N797 0.781 . S
C2407 N1028 0.781 . S
C2412 N830 0.781 . S
C2437 N929 0.781 . S
C2442 N863 0.781 . S
C2467 N962 0.781 . S
C2472 N896 0.781 . S
C2497 N14 0.927 . S
C2502 N245 0.927 . S
C2527 N47 0.927 . S
C2532 N146 0.927 . S
C2557 N179 0.927 . S
C2562 N80 0.927 . S
C2587 N113 0.927 . S
C2592 N212 0.927 . S
C2617 N278 0.927 . S
C2622 N509 0.927 . S
C2647 N410 0.927 . S
C2652 N311 0.927 . S
C2677 N344 0.927 . S
C2682 N443 0.927 . S
C2707 N377 0.927 . S
C2712 N476 0.927 . S
C2737 N773 0.927 . S
C2742 N542 0.927 . S
C2767 N674 0.927 . S
C2772 N575 0.927 . S
C2797 N608 0.927 . S
C2802 N707 0.927 . S
C2827 N641 0.927 . S
C2832 N740 0.927 . S
C2857 N806 0.927 . S
C2862 N1037 0.927 . S
C2887 N938 0.927 . S
C2892 N839 0.927 . S
C2917 N872 0.927 . S
C2922 N971 0.927 . S
C2947 N905 0.927 . S
C2952 N1004 0.927 . S
C2977 C17 1.267 . S
C2982 C1007 1.267 . S
C3007 C512 1.267 . S
C3012 C50 1.267 . S
C3037 C941 1.267 . S
C3042 C83 1.267 . S
C3067 C116 1.267 . S
C3072 C446 1.267 . S
C3097 C149 1.267 . S
C3102 C875 1.267 . S
C3127 C380 1.267 . S
C3132 C182 1.267 . S
C3157 C215 1.267 . S
C3162 C809 1.267 . S
C3187 C248 1.267 . S
C3192 C314 1.267 . S
C3217 C281 1.267 . S
C3222 C743 1.267 . S
C3247 C347 1.267 . S
C3252 C677 1.267 . S
C3277 C413 1.267 . S
C3282 C611 1.267 . S
C3307 C479 1.267 . S
C3312 C545 1.267 . S
C3337 C578 1.267 . S
C3342 C1040 1.267 . S
C3367 C974 1.267 . S
C3372 C644 1.267 . S
C3397 C908 1.267 . S
C3402 C710 1.267 . S
C3427 C842 1.267 . S
C3432 C776 1.267 . S
