# Generated by pormake.
# Topology fcu, (12)-cn, num edge types: 1
# Building blocks:
#     Node 0, Type 0, BuildingBlock: BOTCEU_clean_sbu_0, # of connection points: 12
#     Node 1, Type 0, BuildingBlock: BOTCEU_clean_sbu_0, # of connection points: 12
#     Node 2, Type 0, BuildingBlock: BOTCEU_clean_sbu_0, # of connection points: 12
#     Node 3, Type 0, BuildingBlock: BOTCEU_clean_sbu_0, # of connection points: 12
#     Edge 4, Type (0, 0), BuildingBlock: XIVTED_clean_linker_0, # of connection points: 2
#     Edge 5, Type (0, 0), BuildingBlock: XIVTED_clean_linker_0, # of connection points: 2
#     Edge 6, Type (0, 0), BuildingBlock: XIVTED_clean_linker_0, # of connection points: 2
#     Edge 7, Type (0, 0), BuildingBlock: XIVTED_clean_linker_0, # of connection points: 2
#     Edge 8, Type (0, 0), BuildingBlock: XIVTED_clean_linker_0, # of connection points: 2
#     Edge 9, Type (0, 0), BuildingBlock: XIVTED_clean_linker_0, # of connection points: 2
#     Edge 10, Type (0, 0), BuildingBlock: XIVTED_clean_linker_0, # of connection points: 2
#     Edge 11, Type (0, 0), BuildingBlock: XIVTED_clean_linker_0, # of connection points: 2
#     Edge 12, Type (0, 0), BuildingBlock: XIVTED_clean_linker_0, # of connection points: 2
#     Edge 13, Type (0, 0), BuildingBlock: XIVTED_clean_linker_0, # of connection points: 2
#     Edge 14, Type (0, 0), BuildingBlock: XIVTED_clean_linker_0, # of connection points: 2
#     Edge 15, Type (0, 0), BuildingBlock: XIVTED_clean_linker_0, # of connection points: 2
#     Edge 16, Type (0, 0), BuildingBlock: XIVTED_clean_linker_0, # of connection points: 2
#     Edge 17, Type (0, 0), BuildingBlock: XIVTED_clean_linker_0, # of connection points: 2
#     Edge 18, Type (0, 0), BuildingBlock: XIVTED_clean_linker_0, # of connection points: 2
#     Edge 19, Type (0, 0), BuildingBlock: XIVTED_clean_linker_0, # of connection points: 2
#     Edge 20, Type (0, 0), BuildingBlock: XIVTED_clean_linker_0, # of connection points: 2
#     Edge 21, Type (0, 0), BuildingBlock: XIVTED_clean_linker_0, # of connection points: 2
#     Edge 22, Type (0, 0), BuildingBlock: XIVTED_clean_linker_0, # of connection points: 2
#     Edge 23, Type (0, 0), BuildingBlock: XIVTED_clean_linker_0, # of connection points: 2
#     Edge 24, Type (0, 0), BuildingBlock: XIVTED_clean_linker_0, # of connection points: 2
#     Edge 25, Type (0, 0), BuildingBlock: XIVTED_clean_linker_0, # of connection points: 2
#     Edge 26, Type (0, 0), BuildingBlock: XIVTED_clean_linker_0, # of connection points: 2
#     Edge 27, Type (0, 0), BuildingBlock: XIVTED_clean_linker_0, # of connection points: 2
# Relax obj value: 0.052
# Max RMSD: 0.157
# Mean RMSD: 0.157
data_MOF--net-fcu--node1-BOTCEU_clean_sbu_0--edge1-XIVTED_clean_linker_0
_symmetry_space_group_name_H-M    P1
_symmetry_Int_Tables_number       1
_symmetry_cell_setting            triclinic
loop_
_symmetry_equiv_pos_as_xyz
'x, y, z'
_cell_length_a     36.25207
_cell_length_b     36.343309
_cell_length_c     36.355038
_cell_angle_alpha  100.48133
_cell_angle_beta   100.84618
_cell_angle_gamma 100.38239
loop_
_atom_site_label
_atom_site_type_symbol
_atom_site_fract_x
_atom_site_fract_y
_atom_site_fract_z
_atom_type_partial_charge
C0 C 0.14023 0.94173 0.10546 0.0
C1 C 0.13773 0.95737 0.1426 0.0
C2 C 0.09917 0.94524 0.1432 0.0
N3 N 0.10503 0.92158 0.08607 0.0
N4 N 0.08054 0.92395 0.10828 0.0
C5 C 0.17583 0.94088 0.09044 0.0
H6 H 0.16867 0.93567 0.05861 0.0
H7 H 0.18841 0.91715 0.09888 0.0
H8 H 0.19765 0.96811 0.10258 0.0
C9 C 0.08112 0.95106 0.17693 0.0
H10 H 0.05002 0.9501 0.16705 0.0
H11 H 0.09574 0.97882 0.19721 0.0
H12 H 0.08391 0.92759 0.19224 0.0
C13 C 0.95714 0.13248 0.83208 0.0
C14 C 0.01291 0.11822 0.8268 0.0
C15 C 0.98761 0.14035 0.81435 0.0
N16 N 0.96481 0.10761 0.85404 0.0
N17 N -0.00225 0.09869 0.85041 0.0
H18 H 0.92494 0.17495 0.84498 0.0
H19 H 0.91157 0.14864 0.79585 0.0
H20 H 0.89724 0.12613 0.83323 0.0
C21 C 0.9204 0.14614 0.82607 0.0
H22 H 0.06667 0.1469 0.8178 0.0
H23 H 0.04827 0.0985 0.79019 0.0
H24 H 0.06947 0.10671 0.84075 0.0
C25 C 0.05177 0.11768 0.81867 0.0
C26 C 0.0373 0.81605 0.0451 0.0
C27 C 0.0695 0.95476 0.01374 0.0
C28 C 0.93191 0.09811 0.10555 0.0
N29 N 0.9093 0.0725 0.07467 0.0
N30 N 0.90309 0.0892 0.04571 0.0
C31 C 0.93987 0.13329 0.09531 0.0
C32 C 0.92077 0.12639 0.05701 0.0
H33 H 0.92908 0.06004 0.14461 0.0
H34 H 0.9332 0.11032 0.16577 0.0
H35 H 0.97419 0.09421 0.15354 0.0
C36 C 0.94246 0.08996 0.14459 0.0
H37 H 0.91369 0.13929 0.00174 0.0
H38 H 0.94437 0.17794 0.04042 0.0
H39 H 0.89276 0.16715 0.03479 0.0
C40 C 0.91804 0.15451 0.032 0.0
C41 C 0.15192 0.84984 0.97573 0.0
C42 C 0.14094 0.83843 0.03081 0.0
N43 N 0.12848 0.87162 0.9879 0.0
N44 N 0.12164 0.86455 0.02049 0.0
C45 C 0.16075 0.82805 0.00263 0.0
H46 H 0.1913 0.86147 0.9402 0.0
H47 H 0.15846 0.81544 0.92358 0.0
H48 H 0.14171 0.85874 0.91805 0.0
C49 C 0.16112 0.84608 0.93697 0.0
C50 C 0.14008 0.82374 0.06652 0.0
H51 H 0.16867 0.81856 0.07863 0.0
H52 H 0.11862 0.79609 0.05943 0.0
H53 H 0.13163 0.84446 0.08806 0.0
C54 C 0.80742 0.00012 0.01107 0.0
C55 C 0.95461 0.00092 0.05418 0.0
C56 C 0.08407 0.11941 0.92955 0.0
N57 N 0.06331 0.0845 0.91002 0.0
C58 C 0.12164 0.11604 0.94329 0.0
N59 N 0.0854 0.05963 0.91107 0.0
C60 C 0.12114 0.07739 0.93086 0.0
H61 H 0.03948 0.14971 0.91439 0.0
H62 H 0.08854 0.17707 0.92209 0.0
H63 H 0.06933 0.16747 0.96223 0.0
C64 C 0.06928 0.15542 0.93192 0.0
H65 H 0.14269 0.02742 0.93782 0.0
C66 C 0.15382 0.05762 0.93684 0.0
H67 H 0.16794 0.05748 0.91227 0.0
H68 H 0.17545 0.07257 0.96376 0.0
C69 C 0.85691 0.97689 0.14922 0.0
C70 C 0.83769 0.02372 0.12516 0.0
N71 N 0.87532 0.98373 0.1216 0.0
N72 N 0.86335 0.01103 0.10673 0.0
C73 C 0.83245 0.00225 0.15268 0.0
H74 H 0.87914 0.95517 0.19754 0.0
C75 C 0.85975 0.94419 0.16856 0.0
H76 H 0.87187 0.92258 0.15181 0.0
H77 H 0.831 0.93054 0.17195 0.0
H78 H 0.8153 0.07289 0.14464 0.0
H79 H 0.79214 0.04569 0.09676 0.0
C80 C 0.82027 0.0567 0.11771 0.0
H81 H 0.83939 0.07604 0.10537 0.0
C82 C 0.00846 0.00602 0.81027 0.0
C83 C 0.98672 0.06045 0.94807 0.0
C84 C 0.83193 0.03231 0.85563 0.0
N85 N 0.86593 0.05034 0.8792 0.0
C86 C 0.83812 0.02122 0.819 0.0
C87 C 0.87762 0.03372 0.82295 0.0
N88 N 0.89318 0.0512 0.85997 0.0
C89 C 0.79436 0.02851 0.86751 0.0
H90 H 0.78332 0.0548 0.8655 0.0
H91 H 0.7728 0.00339 0.84848 0.0
H92 H 0.79853 0.02565 0.89782 0.0
C93 C 0.89883 0.03456 0.79148 0.0
H94 H 0.93023 0.03887 0.80316 0.0
H95 H 0.88841 0.00753 0.76911 0.0
H96 H 0.89353 0.05863 0.77781 0.0
C97 C 0.02917 0.8505 0.15164 0.0
C98 C 0.00469 0.84626 0.17655 0.0
C99 C 0.97615 0.8656 0.1654 0.0
N100 N 0.01525 0.87092 0.12728 0.0
N101 N 0.98401 0.88038 0.13579 0.0
H102 H 0.06107 0.80765 0.13899 0.0
H103 H 0.08224 0.84226 0.18342 0.0
H104 H 0.08483 0.85534 0.13787 0.0
C105 C 0.06669 0.83848 0.15314 0.0
C106 C 0.94119 0.86823 0.18105 0.0
H107 H 0.9292 0.84052 0.18771 0.0
H108 H 0.94936 0.89062 0.20812 0.0
H109 H 0.91906 0.87611 0.16022 0.0
C110 C 0.9252 0.15493 0.92652 0.0
C111 C 0.89477 0.00823 0.94773 0.0
C112 C 0.04709 0.86938 0.8576 0.0
C113 C 0.03955 0.83242 0.86382 0.0
C114 C 0.05227 0.83664 0.90323 0.0
N115 N 0.0635 0.8935 0.89159 0.0
N116 N 0.06679 0.87416 0.91875 0.0
C117 C 0.04215 0.88122 0.81999 0.0
H118 H 0.06896 0.88132 0.80946 0.0
H119 H 0.01797 0.86083 0.7983 0.0
H120 H 0.03693 0.91072 0.82374 0.0
C121 C 0.05603 0.80541 0.92443 0.0
H122 H 0.06149 0.8169 0.95584 0.0
H123 H 0.02946 0.78231 0.91496 0.0
H124 H 0.08032 0.79268 0.91789 0.0
C125 C 0.814 0.10864 -0.00493 0.0
C126 C 0.80343 0.13167 0.97009 0.0
C127 C 0.82175 0.12318 0.94018 0.0
N128 N 0.83702 0.088 0.98034 0.0
N129 N 0.84233 0.09716 0.94802 0.0
C130 C 0.80606 0.10923 0.03404 0.0
H131 H 0.77883 0.11854 0.036 0.0
H132 H 0.83012 0.12954 0.05592 0.0
H133 H 0.80447 0.08038 0.04039 0.0
C134 C 0.82354 0.14275 0.90759 0.0
H135 H 0.79415 0.14391 0.89303 0.0
H136 H 0.84048 0.17269 0.9189 0.0
H137 H 0.83708 0.12724 0.88649 0.0
C138 C 0.16515 0.95641 0.95753 0.0
C139 C 0.01536 0.96057 0.91485 0.0
C140 C 0.89103 0.85009 0.06662 0.0
N141 N 0.91118 0.88641 0.08025 0.0
N142 N 0.88802 0.90994 0.0759 0.0
C143 C 0.85284 0.85114 0.05254 0.0
C144 C 0.85215 0.8899 0.05898 0.0
H145 H 0.93848 0.82222 0.06705 0.0
H146 H 0.90624 0.80764 0.09635 0.0
H147 H 0.89124 0.79092 0.0449 0.0
C148 C 0.90774 0.81559 0.06852 0.0
H149 H 0.82649 0.9387 0.05673 0.0
H150 H 0.79811 0.89426 0.0253 0.0
H151 H 0.80149 0.90173 0.07608 0.0
C152 C 0.81765 0.90731 0.05386 0.0
C153 C 0.11918 0.00301 0.83298 0.0
N154 N 0.09858 -0.00883 0.85733 0.0
N155 N 0.10931 0.96116 0.86762 0.0
C156 C 0.14362 0.97821 0.82688 0.0
C157 C 0.13626 0.95176 0.8493 0.0
C158 C 0.11688 0.03829 0.8178 0.0
H159 H 0.12241 0.03447 0.78849 0.0
H160 H 0.13908 0.06281 0.83695 0.0
H161 H 0.08829 0.04516 0.81756 0.0
C162 C 0.15631 0.92012 0.85544 0.0
H163 H 0.14898 0.89767 0.82847 0.0
H164 H 0.18798 0.93137 0.86291 0.0
H165 H 0.14724 0.907 0.87848 0.0
C166 C 0.96397 0.97116 0.17189 0.0
C167 C 0.9777 0.91046 0.03149 0.0
Cu168 Cu 0.08558 0.88802 0.03921 0.0
Cu169 Cu 0.03285 0.89085 0.08904 0.0
Cu170 Cu 0.88341 0.02228 0.06577 0.0
Cu171 Cu 0.86944 0.05985 0.00142 0.0
Cu172 Cu 0.01426 0.0653 0.8792 0.0
Cu173 Cu 0.06405 0.01082 0.88215 0.0
Cu174 Cu 0.88112 0.07901 0.92868 0.0
Cu175 Cu 0.93964 0.084 0.88631 0.0
Cu176 Cu 0.08877 0.94414 0.9058 0.0
Cu177 Cu 0.09874 0.90133 0.96511 0.0
Cu178 Cu 0.96111 0.9098 0.106 0.0
Cu179 Cu 0.90921 0.96066 0.09868 0.0
H180 H 0.00709 0.80286 0.04465 0.0
H181 H 0.05676 0.81178 0.07054 0.0
H182 H 0.04499 0.80233 0.01862 0.0
H183 H 0.0986 0.97253 0.01655 0.0
H184 H 0.06175 0.9597 0.04202 0.0
H185 H 0.04817 0.96306 -0.00738 0.0
H186 H 0.79141 0.01616 -0.00709 0.0
H187 H 0.79858 0.00261 0.0388 0.0
H188 H 0.80081 0.96947 -0.00396 0.0
H189 H 0.96085 0.03235 0.05652 0.0
H190 H 0.956 0.98628 0.02511 0.0
H191 H 0.97643 -0.00595 0.07608 0.0
H192 H 0.02653 0.98632 0.80056 0.0
H193 H 0.0139 0.03197 0.79839 0.0
H194 H 0.97766 -0.0088 0.79996 0.0
H195 H 0.01853 0.06811 0.9577 0.0
H196 H 0.97578 0.03289 0.95538 0.0
H197 H 0.97483 0.0833 0.96314 0.0
H198 H 0.95433 0.17046 0.92602 0.0
H199 H 0.90431 0.15617 0.90064 0.0
H200 H 0.91664 0.16888 0.95229 0.0
H201 H 0.90684 0.0052 0.92177 0.0
H202 H 0.91155 -0.0036 0.96967 0.0
H203 H 0.86428 -0.00777 0.93989 0.0
H204 H 0.17828 0.97521 0.98642 0.0
H205 H 0.17664 0.93005 0.95471 0.0
H206 H 0.17242 0.97185 0.93533 0.0
H207 H -0.00301 0.95558 0.88555 0.0
H208 H 0.01376 0.93286 0.92382 0.0
H209 H 0.00502 0.98052 0.93532 0.0
H210 H 0.95782 3e-05 0.17964 0.0
H211 H 0.94519 0.95053 0.18312 0.0
H212 H -0.00543 0.97244 0.18466 0.0
H213 H 0.94662 0.91054 0.02685 0.0
H214 H -0.00785 0.93366 0.01974 0.0
H215 H 0.9811 0.88233 0.0164 0.0
O216 O 0.04085 0.8545 0.04671 0.0
O217 O 0.06961 0.91673 0.0019 0.0
O218 O 0.84618 0.01494 0.01752 0.0
O219 O 0.91856 -0.01116 0.06013 0.0
O220 O 0.01743 0.01632 0.8496 0.0
O221 O 0.9761 0.05698 0.90909 0.0
O222 O 0.92571 0.1174 0.9271 0.0
O223 O 0.89661 0.04623 0.96225 0.0
O224 O 0.12595 0.94686 0.95286 0.0
O225 O 0.05272 0.97605 0.91477 0.0
O226 O 0.957 0.95973 0.13272 0.0
O227 O -0.00658 0.91648 0.07007 0.0
C228 C 0.12115 0.42744 0.5587 0.0
C229 C 0.12467 0.44182 0.59756 0.0
C230 C 0.08822 0.42978 0.60406 0.0
N231 N 0.08473 0.40808 0.54366 0.0
N232 N 0.06512 0.40938 0.57052 0.0
C233 C 0.15234 0.42944 0.53703 0.0
H234 H 0.13982 0.42742 0.50634 0.0
H235 H 0.16631 0.40491 0.53916 0.0
H236 H 0.17455 0.45648 0.54913 0.0
C237 C 0.0773 0.43208 0.64196 0.0
H238 H 0.04559 0.42777 0.638 0.0
H239 H 0.09155 0.46019 0.66169 0.0
H240 H 0.08693 0.40925 0.65528 0.0
C241 C -0.01089 0.68409 0.39593 0.0
C242 C 0.03825 0.66218 0.37997 0.0
C243 C 0.01832 0.69117 0.37639 0.0
N244 N -0.00796 0.65255 0.40956 0.0
N245 N 0.02083 0.63918 0.39943 0.0
H246 H 0.9663 0.73328 0.41245 0.0
H247 H 0.94144 0.70294 0.36655 0.0
H248 H 0.93469 0.68804 0.41033 0.0
C249 C 0.95575 0.70299 0.39638 0.0
H250 H 0.08919 0.68341 0.36094 0.0
H251 H 0.06343 0.63527 0.3367 0.0
H252 H 0.09155 0.64394 0.38501 0.0
C253 C 0.07278 0.65605 0.36484 0.0
C254 C 0.00885 0.3038 0.50147 0.0
C255 C 0.03761 0.43977 0.47242 0.0
C256 C 0.93494 0.5718 0.63706 0.0
N257 N 0.91426 0.55923 0.60077 0.0
N258 N 0.91766 0.58724 0.58255 0.0
C259 C 0.95263 0.61014 0.64191 0.0
C260 C 0.94092 0.61893 0.60642 0.0
H261 H 0.92928 0.51828 0.65439 0.0
H262 H 0.90919 0.55325 0.68067 0.0
H263 H 0.96077 0.55886 0.69019 0.0
C264 C 0.93376 0.54917 0.66742 0.0
H265 H 0.94362 0.65559 0.56653 0.0
H266 H 0.97321 0.67698 0.61428 0.0
H267 H 0.92171 0.67098 0.60548 0.0
C268 C 0.94539 0.65793 0.59767 0.0
C269 C 0.13398 0.34454 0.43955 0.0
C270 C 0.11793 0.32899 0.49136 0.0
N271 N 0.10501 0.36076 0.44727 0.0
N272 N 0.095 0.35072 0.47758 0.0
C273 C 0.14339 0.32424 0.46764 0.0
H274 H 0.18523 0.36343 0.42073 0.0
H275 H 0.15151 0.32311 0.38836 0.0
H276 H 0.14136 0.37039 0.39184 0.0
C277 C 0.15412 0.35099 0.40822 0.0
C278 C 0.11751 0.31613 0.52812 0.0
H279 H 0.13868 0.33745 0.55195 0.0
H280 H 0.12559 0.28793 0.52642 0.0
H281 H 0.08873 0.31434 0.53471 0.0
C282 C 0.80523 0.52837 0.52913 0.0
C283 C 0.93375 0.48683 0.542 0.0
C284 C 0.09327 0.6256 0.46959 0.0
N285 N 0.07088 0.59533 0.4432 0.0
C286 C 0.13089 0.62056 0.47557 0.0
N287 N 0.09156 0.5707 0.43311 0.0
C288 C 0.12842 0.58488 0.45207 0.0
H289 H 0.04901 0.6565 0.47774 0.0
H290 H 0.08934 0.6822 0.46311 0.0
H291 H 0.09485 0.67616 0.51168 0.0
C292 C 0.08074 0.66221 0.48128 0.0
H293 H 0.18693 0.57845 0.46689 0.0
C294 C 0.16125 0.5683 0.44257 0.0
H295 H 0.15269 0.53653 0.43564 0.0
H296 H 0.16881 0.57745 0.41694 0.0
C297 C 0.84569 0.45201 0.64467 0.0
C298 C 0.83094 0.50592 0.63329 0.0
N299 N 0.86292 0.46283 0.61753 0.0
N300 N 0.85365 0.49464 0.61047 0.0
C301 C 0.82472 0.47902 0.65538 0.0
H302 H 0.8677 0.42406 0.68806 0.0
C303 C 0.84836 0.41631 0.65897 0.0
H304 H 0.86022 0.39669 0.63959 0.0
H305 H 0.81951 0.40167 0.66129 0.0
H306 H 0.8211 0.5564 0.66761 0.0
H307 H 0.78913 0.5392 0.62096 0.0
C308 C 0.81938 0.54364 0.637 0.0
H309 H 0.8383 0.56356 0.62508 0.0
C310 C 0.01728 0.55643 0.32661 0.0
C311 C 0.9852 0.55745 0.45969 0.0
C312 C 0.84921 0.59817 0.40572 0.0
N313 N 0.88526 0.60844 0.42727 0.0
C314 C 0.8514 0.59225 0.36738 0.0
C315 C 0.89071 0.59938 0.36821 0.0
N316 N 0.90993 0.60919 0.40517 0.0
C317 C 0.81401 0.59048 0.4215 0.0
H318 H 0.8217 0.58619 0.45119 0.0
H319 H 0.80029 0.61545 0.42216 0.0
H320 H 0.79287 0.56483 0.40289 0.0
C321 C 0.90953 0.59602 0.33486 0.0
H322 H 0.93816 0.61599 0.34253 0.0
H323 H 0.91389 0.56638 0.32723 0.0
H324 H 0.89111 0.60191 0.30952 0.0
C325 C 0.0198 0.33131 0.6158 0.0
C326 C -0.00223 0.32469 0.64247 0.0
C327 C 0.96973 0.34601 0.63681 0.0
N328 N 0.00496 0.35492 0.59575 0.0
N329 N 0.97561 0.36411 0.60874 0.0
H330 H 0.04758 0.28834 0.59276 0.0
H331 H 0.0727 0.31664 0.6396 0.0
H332 H 0.07313 0.33695 0.59746 0.0
C333 C 0.05558 0.31772 0.61124 0.0
C334 C 0.93628 0.34692 0.65534 0.0
H335 H 0.92439 0.31798 0.65945 0.0
H336 H 0.94608 0.36693 0.68396 0.0
H337 H 0.91352 0.35716 0.63763 0.0
C338 C 0.97373 0.68135 0.50122 0.0
C339 C 0.88894 0.53542 0.46627 0.0
C340 C 0.04147 0.39341 0.32131 0.0
C341 C 0.03299 0.35375 0.31641 0.0
C342 C 0.04282 0.34708 0.35311 0.0
N343 N 0.05601 0.40867 0.35888 0.0
N344 N 0.05635 0.38118 0.37778 0.0
C345 C 0.03984 0.41591 0.29066 0.0
H346 H 0.04768 0.44719 0.30338 0.0
H347 H 0.05972 0.40829 0.27223 0.0
H348 H 0.01035 0.40841 0.2721 0.0
C349 C 0.04187 0.30936 0.36428 0.0
H350 H 0.03727 0.31162 0.39387 0.0
H351 H 0.01885 0.28652 0.34376 0.0
H352 H 0.06999 0.30146 0.36388 0.0
C353 C 0.83763 0.64024 0.54443 0.0
C354 C 0.83363 0.67015 0.52595 0.0
C355 C 0.86047 0.67044 0.50319 0.0
N356 N 0.8648 0.6238 0.53237 0.0
N357 N 0.87855 0.64207 0.50808 0.0
C358 C 0.81449 0.62624 0.57105 0.0
H359 H 0.78817 0.60492 0.55414 0.0
H360 H 0.80555 0.65041 0.58788 0.0
H361 H 0.83158 0.61224 0.59061 0.0
C362 C 0.86367 0.69216 0.47224 0.0
H363 H 0.83521 0.68671 0.45201 0.0
H364 H 0.87252 0.72337 0.48524 0.0
H365 H 0.88523 0.68375 0.45633 0.0
C366 C 0.15267 0.45553 0.44136 0.0
C367 C 0.00718 0.47225 0.3891 0.0
C368 C 0.88285 0.33524 0.54528 0.0
N369 N 0.90046 0.37193 0.56062 0.0
N370 N 0.87489 0.39309 0.56282 0.0
C371 C 0.84347 0.33305 0.53809 0.0
C372 C 0.83945 0.37049 0.54977 0.0
H373 H 0.90246 0.29065 0.56887 0.0
H374 H 0.88894 0.27969 0.5173 0.0
H375 H 0.93371 0.31322 0.54224 0.0
C376 C 0.90323 0.30283 0.54308 0.0
H377 H 0.8071 0.41456 0.55013 0.0
H378 H 0.77913 0.3661 0.52755 0.0
H379 H 0.79521 0.38077 0.57896 0.0
C380 C 0.80302 0.38385 0.55143 0.0
C381 C 0.12498 0.53571 0.33854 0.0
N382 N 0.10355 0.51968 0.36039 0.0
N383 N 0.10924 0.48498 0.36048 0.0
C384 C 0.14418 0.5088 0.32334 0.0
C385 C 0.13338 0.47692 0.33811 0.0
C386 C 0.1263 0.57516 0.33174 0.0
H387 H 0.11355 0.57325 0.30102 0.0
H388 H 0.15661 0.59141 0.33827 0.0
H389 H 0.11026 0.59054 0.35015 0.0
C390 C 0.14564 0.43955 0.33122 0.0
H391 H 0.13087 0.42262 0.30191 0.0
H392 H 0.17714 0.44481 0.33316 0.0
H393 H 0.13791 0.42256 0.35221 0.0
C394 C 0.95777 0.45038 0.65632 0.0
C395 C 0.95907 0.40359 0.50886 0.0
Cu396 Cu 0.0606 0.37512 0.4974 0.0
Cu397 Cu 0.01698 0.37729 0.55647 0.0
Cu398 Cu 0.87664 0.51611 0.57607 0.0
Cu399 Cu 0.8817 0.57939 0.53699 0.0
Cu400 Cu 0.02542 0.59183 0.40885 0.0
Cu401 Cu 0.06857 0.53379 0.38856 0.0
Cu402 Cu 0.90667 0.61726 0.47879 0.0
Cu403 Cu 0.96081 0.62141 0.43144 0.0
Cu404 Cu 0.08179 0.45667 0.38732 0.0
Cu405 Cu 0.08096 0.39674 0.42882 0.0
Cu406 Cu 0.95031 0.39576 0.58432 0.0
Cu407 Cu 0.89494 0.44331 0.5889 0.0
H408 H 0.97768 0.29295 0.48818 0.0
H409 H 0.01596 0.29404 0.52855 0.0
H410 H 0.02578 0.29252 0.48134 0.0
H411 H 0.03822 0.44516 0.50354 0.0
H412 H 0.00896 0.44104 0.45621 0.0
H413 H 0.06012 0.46216 0.4676 0.0
H414 H 0.79596 0.54433 0.50707 0.0
H415 H 0.79574 0.53883 0.55552 0.0
H416 H 0.79211 0.49735 0.51789 0.0
H417 H 0.94135 0.5183 0.54474 0.0
H418 H 0.92946 0.47233 0.5115 0.0
H419 H 0.9575 0.47824 0.56004 0.0
H420 H -0.00256 0.52919 0.30975 0.0
H421 H 0.04342 0.56126 0.31501 0.0
H422 H 0.00257 0.58046 0.32443 0.0
H423 H 0.01444 0.55166 0.46633 0.0
H424 H 0.96372 0.52979 0.4513 0.0
H425 H 0.98046 0.57563 0.48559 0.0
H426 H -0.0042 0.68406 0.52781 0.0
H427 H 0.987 0.69637 0.48139 0.0
H428 H 0.94999 0.69453 0.50851 0.0
H429 H 0.85711 0.52903 0.46166 0.0
H430 H 0.89685 0.53856 0.43883 0.0
H431 H 0.90009 0.51154 0.47583 0.0
H432 H 0.1631 0.47871 0.4678 0.0
H433 H 0.16363 0.42994 0.44642 0.0
H434 H 0.16353 0.46542 0.41752 0.0
H435 H -0.00308 0.477 0.35998 0.0
H436 H 0.00081 0.441 0.38788 0.0
H437 H -0.00782 0.48664 0.40938 0.0
H438 H 0.97616 0.47977 0.66665 0.0
H439 H 0.93235 0.4481 0.66927 0.0
H440 H 0.97487 0.42973 0.66497 0.0
H441 H 0.92775 0.40004 0.50706 0.0
H442 H 0.96962 0.43018 0.49979 0.0
H443 H 0.96397 0.37862 0.48942 0.0
O444 O 0.01746 0.34309 0.50901 0.0
O445 O 0.04468 0.40423 0.46055 0.0
O446 O 0.84452 0.5338 0.53713 0.0
O447 O 0.90038 0.47708 0.55392 0.0
O448 O 0.02715 0.55433 0.36432 0.0
O449 O 0.98194 0.57605 0.43001 0.0
O450 O 0.95952 0.64329 0.48392 0.0
O451 O 0.9044 0.56883 0.49357 0.0
O452 O 0.11317 0.44659 0.43226 0.0
O453 O 0.04612 0.48688 0.40122 0.0
O454 O 0.94594 0.44243 0.61708 0.0
O455 O 0.97809 0.40606 0.54591 0.0
C456 C 0.61259 0.89274 0.55681 0.0
C457 C 0.61657 0.90851 0.59559 0.0
C458 C 0.57927 0.90166 0.60146 0.0
N459 N 0.57504 0.87781 0.54132 0.0
N460 N 0.55528 0.88288 0.56782 0.0
C461 C 0.64332 0.89284 0.5346 0.0
H462 H 0.6309 0.89183 0.50405 0.0
H463 H 0.65522 0.86693 0.53599 0.0
H464 H 0.66707 0.91865 0.54686 0.0
C465 C 0.56691 0.9118 0.63835 0.0
H466 H 0.5641 0.9421 0.64314 0.0
H467 H 0.58876 0.90886 0.66286 0.0
H468 H 0.5386 0.8935 0.6372 0.0
C469 C 0.49879 0.1699 0.39012 0.0
C470 C 0.54661 0.14577 0.37357 0.0
C471 C 0.52812 0.17592 0.37055 0.0
N472 N 0.50054 0.13818 0.40367 0.0
N473 N 0.52855 0.12349 0.39332 0.0
H474 H 0.47833 0.2183 0.41403 0.0
H475 H 0.45667 0.19784 0.36405 0.0
H476 H 0.44293 0.17362 0.40054 0.0
C477 C 0.46712 0.19095 0.39216 0.0
H478 H 0.59832 0.16538 0.35495 0.0
H479 H 0.57124 0.11767 0.33051 0.0
H480 H 0.59893 0.1257 0.37887 0.0
C481 C 0.58095 0.13844 0.35868 0.0
C482 C 0.48553 0.78943 0.49435 0.0
C483 C 0.54574 0.92923 0.48025 0.0
C484 C 0.45286 0.09397 0.64531 0.0
N485 N 0.42952 0.07862 0.61064 0.0
N486 N 0.43059 0.10396 0.58918 0.0
C487 C 0.46944 0.13175 0.64594 0.0
C488 C 0.45452 0.13704 0.6095 0.0
H489 H 0.43175 0.07664 0.69194 0.0
H490 H 0.48356 0.08693 0.69954 0.0
H491 H 0.45425 0.04298 0.66692 0.0
C492 C 0.4561 0.07398 0.67791 0.0
H493 H 0.4529 0.16888 0.56522 0.0
H494 H 0.48518 0.19417 0.61066 0.0
H495 H 0.43389 0.18782 0.60512 0.0
C496 C 0.45705 0.17417 0.59687 0.0
C497 C 0.60632 0.81171 0.42481 0.0
C498 C 0.59004 0.79545 0.47619 0.0
N499 N 0.58178 0.83246 0.43621 0.0
N500 N 0.57177 0.82237 0.46651 0.0
C501 C 0.61256 0.78769 0.45001 0.0
H502 H 0.65436 0.83476 0.4033 0.0
H503 H 0.62769 0.78802 0.37671 0.0
H504 H 0.60797 0.83008 0.37205 0.0
C505 C 0.62497 0.81637 0.39211 0.0
C506 C 0.59173 0.78321 0.5135 0.0
H507 H 0.62217 0.7876 0.52908 0.0
H508 H 0.57838 0.75215 0.50769 0.0
H509 H 0.57619 0.7996 0.53172 0.0
C510 C 0.31755 0.04604 0.54962 0.0
C511 C 0.4518 0.00521 0.56063 0.0
C512 C 0.60431 0.10762 0.46316 0.0
N513 N 0.57936 0.07918 0.4366 0.0
C514 C 0.63966 0.09709 0.47002 0.0
N515 N 0.59641 0.05125 0.42676 0.0
C516 C 0.63324 0.06079 0.44628 0.0
H517 H 0.61035 0.16634 0.45939 0.0
H518 H 0.60894 0.15824 0.50646 0.0
H519 H 0.56512 0.14519 0.46923 0.0
C520 C 0.59656 0.14657 0.47531 0.0
H521 H 0.64891 0.00696 0.43147 0.0
C522 C 0.66248 0.03801 0.43849 0.0
H523 H 0.67304 0.04478 0.41324 0.0
H524 H 0.68731 0.04496 0.4636 0.0
C525 C 0.36102 0.96796 0.65732 0.0
C526 C 0.35181 0.02563 0.65288 0.0
N527 N 0.37919 0.9804 0.63155 0.0
N528 N 0.37313 0.01439 0.62837 0.0
C529 C 0.34296 -0.00375 0.67177 0.0
H530 H 0.38631 0.91963 0.66243 0.0
C531 C 0.35982 0.92936 0.6665 0.0
H532 H 0.33489 0.90828 0.6466 0.0
H533 H 0.35664 0.93022 0.69641 0.0
H534 H 0.34577 0.07834 0.68628 0.0
H535 H 0.30635 0.05576 0.64596 0.0
C536 C 0.33818 0.06227 0.65592 0.0
H537 H 0.3517 0.08051 0.63853 0.0
C538 C 0.5209 0.03892 0.32368 0.0
C539 C 0.49676 0.05088 0.46349 0.0
C540 C 0.35869 0.08314 0.40398 0.0
N541 N 0.39468 0.09655 0.4255 0.0
C542 C 0.36096 0.07386 0.3657 0.0
C543 C 0.40017 0.08245 0.36652 0.0
N544 N 0.41927 0.09585 0.40331 0.0
C545 C 0.32325 0.079 0.41973 0.0
H546 H 0.32907 0.09712 0.44907 0.0
H547 H 0.29959 0.08666 0.40052 0.0
H548 H 0.31377 0.04869 0.42137 0.0
C549 C 0.41928 0.07601 0.33362 0.0
H550 H 0.44902 0.07259 0.34392 0.0
H551 H 0.40245 0.05036 0.31134 0.0
H552 H 0.42094 0.10139 0.32053 0.0
C553 C 0.49128 0.81257 0.60565 0.0
C554 C 0.46833 0.81034 0.63233 0.0
C555 C 0.44689 0.83815 0.62823 0.0
N556 N 0.48327 0.84004 0.58728 0.0
N557 N 0.45748 0.85575 0.60129 0.0
H558 H 0.51025 0.76316 0.58176 0.0
H559 H 0.53841 0.7887 0.62863 0.0
H560 H 0.54335 0.80809 0.58669 0.0
C561 C 0.52288 0.79213 0.60051 0.0
C562 C 0.41568 0.84663 0.6479 0.0
H563 H 0.40082 0.8205 0.65541 0.0
H564 H 0.42844 0.86893 0.67473 0.0
H565 H 0.39459 0.85775 0.62907 0.0
C566 C 0.48639 0.17409 0.49583 0.0
C567 C 0.3964 0.03396 0.47908 0.0
C568 C 0.52118 0.87818 0.31863 0.0
C569 C 0.5014 0.84064 0.31447 0.0
C570 C 0.51088 0.83254 0.3507 0.0
N571 N 0.54114 0.89069 0.35504 0.0
N572 N 0.53492 0.86388 0.37429 0.0
C573 C 0.52286 0.90108 0.28848 0.0
H574 H 0.5487 0.89846 0.27687 0.0
H575 H 0.49683 0.89051 0.26458 0.0
H576 H 0.52563 0.93188 0.30133 0.0
C577 C 0.50225 0.7944 0.36106 0.0
H578 H 0.51082 0.79751 0.39259 0.0
H579 H 0.47107 0.78109 0.35094 0.0
H580 H 0.51824 0.77503 0.34668 0.0
C581 C 0.35233 0.15407 0.54096 0.0
C582 C 0.34871 0.179 0.51624 0.0
C583 C 0.37316 0.17155 0.49204 0.0
N584 N 0.37705 0.13281 0.53085 0.0
N585 N 0.38977 0.14378 0.50212 0.0
C586 C 0.3296 0.14763 0.57037 0.0
H587 H 0.30077 0.12923 0.55576 0.0
H588 H 0.32543 0.17529 0.58582 0.0
H589 H 0.34452 0.13317 0.59115 0.0
C590 C 0.37709 0.18697 0.45717 0.0
H591 H 0.35457 0.16915 0.43212 0.0
H592 H 0.37333 0.21698 0.46137 0.0
H593 H 0.40557 0.1855 0.45076 0.0
C594 C 0.64402 0.91606 0.42567 0.0
C595 C 0.50746 0.95898 0.39485 0.0
C596 C 0.36844 0.85303 0.53853 0.0
N597 N 0.39328 0.88565 0.55788 0.0
N598 N 0.37463 0.91279 0.56563 0.0
C599 C 0.33158 0.85988 0.53433 0.0
C600 C 0.33665 0.89828 0.55217 0.0
H601 H 0.37332 0.79922 0.55241 0.0
H602 H 0.36231 0.79762 0.50178 0.0
H603 H 0.41052 0.81934 0.53031 0.0
C604 C 0.37941 0.81512 0.53011 0.0
H605 H 0.28082 0.90993 0.53429 0.0
H606 H 0.29635 0.91338 0.58493 0.0
H607 H 0.31752 0.95094 0.56405 0.0
C608 C 0.30607 0.91956 0.55909 0.0
C609 C 0.62314 0.01136 0.33295 0.0
N610 N 0.60019 -0.00436 0.35362 0.0
N611 N 0.60321 0.95996 0.35249 0.0
C612 C 0.6412 0.98359 0.31741 0.0
C613 C 0.62759 0.95117 0.33044 0.0
C614 C 0.63066 0.05282 0.33156 0.0
H615 H 0.61523 0.05598 0.30331 0.0
H616 H 0.66191 0.06416 0.33469 0.0
H617 H 0.62034 0.06954 0.35465 0.0
C618 C 0.63631 0.91235 0.32082 0.0
H619 H 0.63702 0.90486 0.29 0.0
H620 H 0.66514 0.91275 0.33806 0.0
H621 H 0.6145 0.89035 0.32734 0.0
C622 C 0.46889 0.95099 0.65716 0.0
C623 C 0.4606 0.90764 0.5092 0.0
Cu624 Cu 0.54624 0.8536 0.49278 0.0
Cu625 Cu 0.50318 0.86229 0.5513 0.0
Cu626 Cu 0.39229 0.03445 0.59082 0.0
Cu627 Cu 0.39303 0.09031 0.54401 0.0
Cu628 Cu 0.53255 0.07686 0.40517 0.0
Cu629 Cu 0.56923 0.01367 0.38459 0.0
Cu630 Cu 0.41648 0.11288 0.4773 0.0
Cu631 Cu 0.4703 0.11012 0.4288 0.0
Cu632 Cu 0.57586 0.93446 0.38195 0.0
Cu633 Cu 0.56584 0.87488 0.42324 0.0
Cu634 Cu 0.44445 0.89627 0.58168 0.0
Cu635 Cu 0.40451 0.95794 0.59722 0.0
H636 H 0.45604 0.78218 0.4992 0.0
H637 H 0.50523 0.77745 0.51364 0.0
H638 H 0.48514 0.777 0.46402 0.0
H639 H 0.54629 0.93193 0.51121 0.0
H640 H 0.52249 0.94205 0.46727 0.0
H641 H 0.57388 0.9448 0.47731 0.0
H642 H 0.30321 0.016 0.54822 0.0
H643 H 0.30482 0.05476 0.52323 0.0
H644 H 0.31317 0.0651 0.57506 0.0
H645 H 0.47382 0.00183 0.5847 0.0
H646 H 0.45779 0.03543 0.55779 0.0
H647 H 0.453 0.98648 0.53348 0.0
H648 H 0.49935 0.01307 0.30612 0.0
H649 H 0.54764 0.0413 0.31293 0.0
H650 H 0.50917 0.06477 0.32146 0.0
H651 H 0.52447 0.0416 0.4677 0.0
H652 H 0.47294 0.02582 0.46027 0.0
H653 H 0.49727 0.07325 0.48888 0.0
H654 H 0.50669 0.17663 0.52358 0.0
H655 H 0.50238 0.1863 0.47608 0.0
H656 H 0.46389 0.19018 0.50076 0.0
H657 H 0.36464 0.03012 0.47361 0.0
H658 H 0.40517 0.03061 0.45127 0.0
H659 H 0.40516 0.01189 0.49393 0.0
H660 H 0.66251 0.9454 0.43403 0.0
H661 H 0.65289 0.89986 0.44758 0.0
H662 H 0.64744 0.90124 0.39754 0.0
H663 H 0.49893 0.92917 0.39832 0.0
H664 H 0.49696 0.97845 0.41557 0.0
H665 H 0.49445 0.9604 0.36513 0.0
H666 H 0.44992 0.96277 0.67458 0.0
H667 H 0.47434 0.92401 0.66484 0.0
H668 H 0.49667 0.97214 0.66313 0.0
H669 H 0.42974 0.90821 0.50621 0.0
H670 H 0.47633 0.93532 0.50564 0.0
H671 H 0.46338 0.88396 0.48667 0.0
O672 O 0.49792 0.8285 0.50175 0.0
O673 O 0.53917 0.89122 0.46241 0.0
O674 O 0.3561 0.04844 0.55196 0.0
O675 O 0.41586 -0.00438 0.56771 0.0
O676 O 0.52871 0.03595 0.36125 0.0
O677 O 0.49161 0.06543 0.43109 0.0
O678 O 0.46963 0.13617 0.48 0.0
O679 O 0.41352 0.06993 0.50129 0.0
O680 O 0.60627 0.91798 0.42325 0.0
O681 O 0.54681 0.96973 0.40147 0.0
O682 O 0.45164 0.94391 0.61889 0.0
O683 O 0.47553 0.90215 0.54484 0.0
C684 C 0.63189 0.45843 0.10926 0.0
C685 C 0.6279 0.47215 0.1462 0.0
C686 C 0.59064 0.45428 0.1467 0.0
N687 N 0.59912 0.43369 0.08989 0.0
N688 N 0.57425 0.43132 0.1118 0.0
C689 C 0.66747 0.46515 0.09398 0.0
H690 H 0.65948 0.46507 0.06297 0.0
H691 H 0.68255 0.44151 0.09705 0.0
H692 H 0.68725 0.49281 0.10992 0.0
C693 C 0.57416 0.45335 0.18133 0.0
H694 H 0.54239 0.44342 0.17269 0.0
H695 H 0.58205 0.48221 0.20086 0.0
H696 H 0.58626 0.43325 0.19718 0.0
C697 C 0.45413 0.63657 0.8455 0.0
C698 C 0.51288 0.63179 0.84008 0.0
C699 C 0.4832 0.64933 0.82767 0.0
N700 N 0.4665 0.61294 0.867 0.0
N701 N 0.50133 0.60985 0.86353 0.0
H702 H 0.41519 0.67314 0.85453 0.0
H703 H 0.40237 0.6409 0.80818 0.0
H704 H 0.39516 0.62297 0.85047 0.0
C705 C 0.41422 0.64352 0.83924 0.0
H706 H 0.5629 0.66708 0.83066 0.0
H707 H 0.54904 0.61919 0.80154 0.0
H708 H 0.57202 0.6269 0.85172 0.0
C709 C 0.55164 0.63658 0.8307 0.0
C710 C 0.54532 0.31959 0.04663 0.0
C711 C 0.55331 0.4523 0.00991 0.0
C712 C 0.41811 0.57817 0.10592 0.0
N713 N 0.40044 0.553 0.07285 0.0
N714 N 0.39402 0.57134 0.04519 0.0
C715 C 0.423 0.61466 0.0985 0.0
C716 C 0.40745 0.60918 0.05948 0.0
H717 H 0.40082 0.56795 0.15687 0.0
H718 H 0.4513 0.58878 0.16399 0.0
H719 H 0.43194 0.5384 0.14055 0.0
C720 C 0.4263 0.56772 0.14411 0.0
H721 H 0.3912 0.62724 0.00699 0.0
H722 H 0.42512 0.66338 0.04503 0.0
H723 H 0.37548 0.65116 0.04727 0.0
C724 C 0.39941 0.63944 0.03824 0.0
C725 C 0.66797 0.37493 -0.00674 0.0
C726 C 0.65146 0.35701 0.04383 0.0
N727 N 0.64106 0.39298 0.0033 0.0
N728 N 0.63074 0.38201 0.03308 0.0
C729 C 0.6754 0.35126 0.0185 0.0
H730 H 0.71104 0.36949 0.96027 0.0
H731 H 0.66185 0.35563 0.93284 0.0
H732 H 0.68372 0.4056 0.95142 0.0
C733 C 0.68227 0.37663 0.95747 0.0
C734 C 0.64481 0.33538 0.07406 0.0
H735 H 0.67279 0.33445 0.0921 0.0
H736 H 0.6293 0.30539 0.06016 0.0
H737 H 0.62762 0.34916 0.09237 0.0
C738 C 0.2995 0.48224 0.00735 0.0
C739 C 0.44617 0.48118 0.0525 0.0
C740 C 0.58305 0.63538 0.94532 0.0
N741 N 0.56697 0.59935 0.92548 0.0
C742 C 0.62074 0.63637 0.96356 0.0
N743 N 0.59207 0.57776 0.93001 0.0
C744 C 0.6253 0.59894 0.95306 0.0
H745 H 0.53255 0.65881 0.94093 0.0
H746 H 0.56825 0.67963 0.91799 0.0
H747 H 0.5767 0.6919 0.96967 0.0
C748 C 0.564 0.66845 0.94368 0.0
H749 H 0.65594 0.55364 0.95457 0.0
C750 C 0.66209 0.5853 0.95884 0.0
H751 H 0.67841 0.59373 0.93761 0.0
H752 H 0.68024 0.59847 0.98804 0.0
C753 C 0.34865 0.46252 0.14865 0.0
C754 C 0.32893 0.5069 0.1207 0.0
N755 N 0.36668 0.46684 0.12019 0.0
N756 N 0.35415 0.49251 0.10293 0.0
C757 C 0.32451 0.48817 0.15018 0.0
H758 H 0.36453 0.44973 0.2038 0.0
C759 C 0.35404 0.43425 0.17324 0.0
H760 H 0.37483 0.41729 0.16464 0.0
H761 H 0.326 0.41453 0.17049 0.0
H762 H 0.29241 0.54731 0.12974 0.0
H763 H 0.29009 0.52593 0.08032 0.0
C764 C 0.3095 0.53738 0.1092 0.0
H765 H 0.33152 0.56201 0.10725 0.0
C766 C 0.53454 0.52897 0.81942 0.0
C767 C 0.49231 0.55576 0.9521 0.0
C768 C 0.33945 0.5207 0.85482 0.0
N769 N 0.37166 0.53918 0.88097 0.0
C770 C 0.34824 0.51587 0.81893 0.0
C771 C 0.38738 0.53207 0.82594 0.0
N772 N 0.40031 0.54589 0.86401 0.0
C773 C 0.30054 0.51213 0.86364 0.0
H774 H 0.30322 0.50667 0.89299 0.0
H775 H 0.28728 0.53725 0.86254 0.0
H776 H 0.28146 0.48699 0.84215 0.0
C777 C 0.40998 0.54003 0.79675 0.0
H778 H 0.44133 0.54673 0.80972 0.0
H779 H 0.40259 0.51493 0.7721 0.0
H780 H 0.40242 0.56487 0.78569 0.0
C781 C 0.53743 0.35014 0.15647 0.0
C782 C 0.51411 0.34167 0.18148 0.0
C783 C 0.48182 0.35638 0.17055 0.0
N784 N 0.51932 0.36825 0.13218 0.0
N785 N 0.48645 0.37248 0.14082 0.0
H786 H 0.57572 0.31433 0.14222 0.0
H787 H 0.5933 0.34799 0.18775 0.0
H788 H 0.59291 0.36433 0.14331 0.0
C789 C 0.57731 0.34407 0.15759 0.0
C790 C 0.44632 0.35295 0.18615 0.0
H791 H 0.43791 0.32377 0.19137 0.0
H792 H 0.45236 0.37394 0.214 0.0
H793 H 0.42231 0.35907 0.16599 0.0
C794 C 0.42726 0.64415 0.9468 0.0
C795 C 0.39272 0.49262 0.94864 0.0
C796 C 0.57627 0.39234 0.86604 0.0
C797 C 0.56819 0.35427 0.86907 0.0
C798 C 0.57665 0.35559 0.90832 0.0
N799 N 0.58886 0.41427 0.90168 0.0
N800 N 0.58939 0.39255 0.92677 0.0
C801 C 0.57173 0.40777 0.83042 0.0
H802 H 0.59859 0.40895 0.81981 0.0
H803 H 0.54751 0.38888 0.80759 0.0
H804 H 0.56685 0.43734 0.8368 0.0
C805 C 0.57437 0.32247 0.9276 0.0
H806 H 0.58914 0.33186 0.95839 0.0
H807 H 0.54372 0.30952 0.92558 0.0
H808 H 0.58718 0.30013 0.91288 0.0
C809 C 0.30434 0.5891 0.98774 0.0
C810 C 0.29583 0.61221 0.96204 0.0
C811 C 0.31815 0.60522 0.93533 0.0
N812 N 0.32997 0.56978 0.97628 0.0
N813 N 0.3386 0.57987 0.94544 0.0
C814 C 0.2939 0.59063 0.02577 0.0
H815 H 0.26383 0.57431 0.02124 0.0
H816 H 0.29562 0.62075 0.04023 0.0
H817 H 0.31339 0.5777 0.04429 0.0
C818 C 0.32089 0.62296 0.90157 0.0
H819 H 0.29196 0.62572 0.88728 0.0
H820 H 0.3398 0.6521 0.91126 0.0
H821 H 0.33334 0.60545 0.88087 0.0
C822 C 0.67254 0.48486 0.98699 0.0
C823 C 0.52601 0.46936 0.91316 0.0
C824 C 0.38941 0.33303 0.07411 0.0
N825 N 0.40781 0.37009 0.08697 0.0
N826 N 0.38292 0.39184 0.08195 0.0
C827 C 0.35039 0.33175 0.06093 0.0
C828 C 0.34757 0.36995 0.06643 0.0
H829 H 0.43708 0.30892 0.09555 0.0
H830 H 0.38989 0.27665 0.0842 0.0
H831 H 0.41222 0.28826 0.04641 0.0
C832 C 0.40836 0.29985 0.07551 0.0
H833 H 0.3204 0.41429 0.05043 0.0
H834 H 0.29106 0.3659 0.03189 0.0
H835 H 0.29905 0.38884 0.08195 0.0
C836 C 0.3124 0.38558 0.05681 0.0
C837 C 0.64173 0.53019 0.85563 0.0
N838 N 0.62089 0.51796 0.87962 0.0
N839 N 0.6337 0.48986 0.8921 0.0
C840 C 0.66879 0.50772 0.85232 0.0
C841 C 0.66261 0.48228 0.87599 0.0
C842 C 0.63613 0.56279 0.83694 0.0
H843 H 0.61702 0.55138 0.80788 0.0
H844 H 0.66415 0.5786 0.83379 0.0
H845 H 0.62238 0.58249 0.85407 0.0
C846 C 0.68048 0.44869 0.87966 0.0
H847 H 0.68267 0.43351 0.85103 0.0
H848 H 0.71 0.45906 0.89813 0.0
H849 H 0.6634 0.42857 0.89293 0.0
C850 C 0.4572 0.4596 0.17407 0.0
C851 C 0.46825 0.38982 0.03353 0.0
Cu852 Cu 0.58739 0.39722 0.04497 0.0
Cu853 Cu 0.53225 0.39015 0.09318 0.0
Cu854 Cu 0.37496 0.50254 0.06233 0.0
Cu855 Cu 0.36211 0.54229 -0.00024 0.0
Cu856 Cu 0.52225 0.57622 0.88909 0.0
Cu857 Cu 0.57888 0.53036 0.89665 0.0
Cu858 Cu 0.3808 0.56446 0.93127 0.0
Cu859 Cu 0.44349 0.58102 0.89431 0.0
Cu860 Cu 0.60603 0.46595 0.92193 0.0
Cu861 Cu 0.60929 0.41839 0.97702 0.0
Cu862 Cu 0.45744 0.39733 0.11018 0.0
Cu863 Cu 0.40203 0.44372 0.09999 0.0
H864 H 0.51474 0.30383 0.03771 0.0
H865 H 0.55921 0.31279 0.07361 0.0
H866 H 0.56033 0.31078 0.02369 0.0
H867 H 0.54662 0.45676 0.03871 0.0
H868 H 0.52642 0.44815 0.98779 0.0
H869 H 0.57434 0.4779 0.00837 0.0
H870 H 0.28949 0.46064 0.97972 0.0
H871 H 0.28439 0.50605 0.00609 0.0
H872 H 0.29304 0.46853 0.03096 0.0
H873 H 0.45016 0.5115 0.04997 0.0
H874 H 0.44919 0.46338 0.02553 0.0
H875 H 0.46847 0.47903 0.07697 0.0
H876 H 0.54788 0.50473 0.81013 0.0
H877 H 0.55053 0.55548 0.81375 0.0
H878 H 0.50415 0.52251 0.80315 0.0
H879 H 0.52216 0.55178 0.96001 0.0
H880 H 0.47229 0.53181 0.95791 0.0
H881 H 0.49031 0.5834 0.9696 0.0
H882 H 0.44899 0.65698 0.97414 0.0
H883 H 0.43567 0.65784 0.92388 0.0
H884 H 0.39885 0.6492 0.9504 0.0
H885 H 0.40742 0.49118 0.92445 0.0
H886 H 0.40794 0.48023 0.97109 0.0
H887 H 0.36249 0.47607 0.93799 0.0
H888 H 0.6863 0.46567 0.0028 0.0
H889 H 0.68589 0.48825 0.96243 0.0
H890 H 0.67692 0.51328 0.00658 0.0
H891 H 0.52588 0.43939 0.91561 0.0
H892 H 0.50953 0.48179 0.93304 0.0
H893 H 0.51235 0.46935 0.88319 0.0
H894 H 0.48817 0.47311 0.18592 0.0
H895 H 0.43988 0.48112 0.18071 0.0
H896 H 0.44883 0.43509 0.18723 0.0
H897 H 0.46674 0.35849 0.02684 0.0
H898 H 0.43861 0.39476 0.02784 0.0
H899 H 0.48471 0.40368 0.01511 0.0
O900 O 0.54704 0.35822 0.05218 0.0
O901 O 0.56859 0.42046 0.0038 0.0
O902 O 0.33841 0.49618 0.01381 0.0
O903 O 0.41024 0.46883 0.05861 0.0
O904 O 0.53571 0.53377 0.85789 0.0
O905 O 0.4831 0.55622 0.91386 0.0
O906 O 0.42548 0.60552 0.93709 0.0
O907 O 0.39306 0.5301 0.96381 0.0
O908 O 0.63386 0.46931 0.97379 0.0
O909 O 0.56321 0.49044 0.92256 0.0
O910 O 0.45065 0.44697 0.13505 0.0
O911 O 0.48595 0.40492 0.07147 0.0
H912 H 0.91018 0.19691 0.10539 0.0
H913 H 0.07301 0.30099 0.29389 0.0
H914 H 0.01021 0.1536 0.14461 0.0
H915 H 0.97155 0.34289 0.25661 0.0
H916 H 0.05487 0.25136 0.23453 0.0
H917 H 0.93707 0.25583 0.15494 0.0
C918 C 0.93821 0.20025 0.12402 0.0
C919 C 0.95804 0.17055 0.12141 0.0
C920 C 0.03667 0.27153 0.23912 0.0
C921 C 0.98845 0.23705 0.17842 0.0
C922 C 0.04686 0.29957 0.27304 0.0
C923 C 0.02329 0.32534 0.28 0.0
C924 C 0.00254 0.26929 0.21225 0.0
C925 C -0.00969 0.3233 0.252 0.0
C926 C 0.9534 0.23367 0.15245 0.0
C927 C -0.00614 0.17576 0.14641 0.0
N928 N 0.98062 0.29537 0.21935 0.0
N929 N 0.00784 0.20832 0.17423 0.0
H930 H 0.75725 0.00761 0.13381 0.0
H931 H 0.71214 0.96709 0.33051 0.0
H932 H 0.84477 -0.00076 0.22837 0.0
H933 H 0.63598 0.01108 0.25218 0.0
H934 H 0.75973 0.97424 0.29119 0.0
H935 H 0.71107 0.00589 0.17492 0.0
C936 C 0.76689 0.00598 0.16338 0.0
C937 C 0.80484 0.00354 0.17776 0.0
C938 C 0.73267 0.98246 0.28264 0.0
C939 C 0.75204 0.00051 0.22454 0.0
C940 C 0.70545 0.97804 0.30484 0.0
C941 C 0.67018 0.98826 0.29422 0.0
C942 C 0.72429 -0.00319 0.24941 0.0
C943 C 0.66304 0.00307 0.26126 0.0
C944 C 0.74046 0.00471 0.18673 0.0
C945 C 0.81557 0.00048 0.21599 0.0
N946 N 0.6898 0.00666 0.23976 0.0
N947 N 0.78922 -0.00121 0.23803 0.0
H948 H 0.00013 0.87031 0.25092 0.0
H949 H 0.02122 0.66947 0.30188 0.0
H950 H 0.01672 0.77428 0.17169 0.0
H951 H 0.01719 0.76749 0.3868 0.0
H952 H 0.0202 0.70837 0.25418 0.0
H953 H 0.00562 0.83378 0.30141 0.0
C954 C 0.00478 0.84147 0.24422 0.0
C955 C 0.00801 0.82509 0.20732 0.0
C956 C 0.01986 0.72162 0.28328 0.0
C957 C 0.01466 0.78355 0.2645 0.0
C958 C 0.02087 0.69949 0.31063 0.0
C959 C 0.01989 0.71557 0.34837 0.0
C960 C 0.0174 0.76007 0.29361 0.0
C961 C 0.0179 0.75416 0.35787 0.0
C962 C 0.0082 0.8208 0.27301 0.0
C963 C 0.01462 0.78802 0.20001 0.0
N964 N 0.01663 0.77523 0.33055 0.0
N965 N 0.01763 0.76842 0.22835 0.0
H966 H 0.34666 0.0973 0.29838 0.0
H967 H 0.15522 0.93254 0.20838 0.0
H968 H 0.30309 0.01158 0.35668 0.0
H969 H 0.19343 0.02175 0.15164 0.0
H970 H 0.20993 0.96098 0.26283 0.0
H971 H 0.29201 0.06926 0.24327 0.0
C972 C 0.32558 0.07249 0.29941 0.0
C973 C 0.32893 0.05685 0.33203 0.0
C974 C 0.2064 0.97448 0.23856 0.0
C975 C 0.26661 0.02489 0.2697 0.0
C976 C 0.17506 0.9584 0.20768 0.0
C977 C 0.17002 0.97506 0.17582 0.0
C978 C 0.23288 0.0074 0.23744 0.0
C979 C 0.19676 0.00802 0.17574 0.0
C980 C 0.29437 0.05665 0.26817 0.0
C981 C 0.30096 0.02493 0.33231 0.0
N982 N 0.22719 0.02319 0.20616 0.0
N983 N 0.27092 0.00997 0.30159 0.0
H984 H 0.07834 0.81304 0.80915 0.0
H985 H 0.91934 0.62325 0.70249 0.0
H986 H 0.98012 0.77104 0.85277 0.0
H987 H 0.02215 0.66052 0.66364 0.0
H988 H 0.94388 0.67393 0.76078 0.0
H989 H 0.06081 0.75477 0.75815 0.0
C990 C 0.05302 0.79137 0.80779 0.0
C991 C 0.03018 0.79666 0.83449 0.0
C992 C 0.96137 0.6708 0.73981 0.0
C993 C 0.01011 0.73015 0.77683 0.0
C994 C 0.9475 0.64173 0.70674 0.0
C995 C 0.96899 0.63795 0.6786 0.0
C996 C -0.00327 0.69639 0.7444 0.0
C997 C 0.0048 0.66295 0.68479 0.0
C998 C 0.04317 0.75808 0.77896 0.0
C999 C -0.00177 0.76773 0.83242 0.0
N1000 N 0.0175 0.69144 0.71701 0.0
N1001 N -0.01114 0.73569 0.80373 0.0
H1002 H 0.20057 0.04045 0.83281 0.0
H1003 H 0.2808 0.93799 0.66081 0.0
H1004 H 0.15431 0.92299 0.77123 0.0
H1005 H 0.34089 0.0465 0.73667 0.0
H1006 H 0.23266 0.93296 0.69947 0.0
H1007 H 0.25039 0.04492 0.79572 0.0
C1008 C 0.20089 0.01572 0.81125 0.0
C1009 C 0.17349 0.98136 0.80474 0.0
C1010 C 0.25642 0.95783 0.70779 0.0
C1011 C 0.23018 0.98599 0.76272 0.0
C1012 C 0.28399 0.96057 0.6859 0.0
C1013 C 0.31469 -0.00731 0.69575 0.0
C1014 C 0.25953 0.98761 0.73956 0.0
C1015 C 0.31718 0.02161 0.7279 0.0
C1016 C 0.2294 0.01814 0.79037 0.0
C1017 C 0.17528 0.94984 0.77716 0.0
N1018 N 0.28982 0.01846 0.74871 0.0
N1019 N 0.20313 0.95293 0.75697 0.0
H1020 H -0.00363 0.34065 0.7182 0.0
H1021 H 0.00778 0.12897 0.74518 0.0
H1022 H 0.00798 0.25128 0.62815 0.0
H1023 H 0.9798 0.21421 0.82802 0.0
H1024 H 0.01511 0.17526 0.70427 0.0
H1025 H -0.00279 0.29649 0.76142 0.0
C1026 C -0.00088 0.31167 0.7076 0.0
C1027 C 0.00176 0.29935 0.6696 0.0
C1028 C 0.00743 0.18384 0.73143 0.0
C1029 C 0.00309 0.24881 0.71874 0.0
C1030 C 0.00343 0.15754 0.75477 0.0
C1031 C -0.00713 0.16788 0.78969 0.0
C1032 C 0.00102 0.22068 0.74339 0.0
C1033 C 0.98723 0.205 0.80087 0.0
C1034 C -0.00023 0.28653 0.73227 0.0
C1035 C 0.00621 0.26189 0.65742 0.0
N1036 N -0.00867 0.2301 0.77774 0.0
N1037 N 0.0065 0.23777 0.68189 0.0
H1038 H 0.68289 0.88287 0.60991 0.0
H1039 H 0.7796 0.05405 0.794 0.0
H1040 H 0.63108 0.97687 0.64669 0.0
H1041 H 0.82973 0.95733 0.76282 0.0
H1042 H 0.72793 0.02907 0.73622 0.0
H1043 H 0.74033 0.91274 0.6615 0.0
C1044 C 0.68389 0.91004 0.62864 0.0
C1045 C 0.65232 0.9274 0.62451 0.0
C1046 C 0.75026 0.0133 0.7418 0.0
C1047 C 0.71729 0.9614 0.68345 0.0
C1048 C 0.77958 0.02748 0.77481 0.0
C1049 C 0.80844 0.00736 0.78305 0.0
C1050 C 0.74981 0.97868 0.71698 0.0
C1051 C 0.80783 0.97356 0.75716 0.0
C1052 C 0.71649 0.92694 0.65814 0.0
C1053 C 0.65465 0.96231 0.64953 0.0
N1054 N 0.7787 0.96003 0.72526 0.0
N1055 N 0.68655 0.97811 0.67809 0.0
H1056 H 0.346 0.26935 0.00447 0.0
H1057 H 0.12975 0.17292 0.0065 0.0
H1058 H 0.28266 0.3174 0.08306 0.0
H1059 H 0.19039 0.12951 0.92287 0.0
H1060 H 0.18665 0.22448 0.0372 0.0
H1061 H 0.29085 0.21509 0.97708 0.0
C1062 C 0.32058 0.26816 0.01618 0.0
C1063 C 0.31856 0.29775 0.04578 0.0
C1064 C 0.18756 0.20363 0.01218 0.0
C1065 C 0.25541 0.23644 0.01452 0.0
C1066 C 0.15503 0.17445 -0.00545 0.0
C1067 C 0.15559 0.14713 0.96225 0.0
C1068 C 0.22072 0.20537 -0.00277 0.0
C1069 C 0.18915 0.14979 0.94815 0.0
C1070 C 0.28904 0.23743 0.00041 0.0
C1071 C 0.28494 0.29531 0.05975 0.0
N1072 N 0.22042 0.17847 0.96571 0.0
N1073 N 0.25457 0.26521 0.04391 0.0
H1074 H 0.22397 0.60778 0.97583 0.0
H1075 H 0.23112 0.83113 0.98596 0.0
H1076 H 0.3213 0.68755 0.96232 0.0
H1077 H 0.13751 0.75435 0.00946 0.0
H1078 H 0.26408 0.77831 0.9758 0.0
H1079 H 0.19099 0.66065 0.98724 0.0
C1080 C 0.2382 0.63641 0.97501 0.0
C1081 C 0.27495 0.64331 0.96733 0.0
C1082 C 0.23644 0.77301 0.98343 0.0
C1083 C 0.23784 0.70373 0.98049 0.0
C1084 C 0.21766 0.80311 0.98912 0.0
C1085 C 0.18183 0.79701 -0.00118 0.0
C1086 C 0.21904 0.7365 0.98721 0.0
C1087 C 0.16553 0.76034 0.00279 0.0
C1088 C 0.21947 0.66653 0.98151 0.0
C1089 C 0.29241 0.68081 0.96678 0.0
N1090 N 0.18421 0.73136 -0.00317 0.0
N1091 N 0.27368 0.70963 0.97324 0.0
H1092 H 0.65774 0.29381 0.95487 0.0
H1093 H 0.82358 0.19058 0.03312 0.0
H1094 H 0.73397 0.33451 0.06715 0.0
H1095 H 0.74112 0.14588 0.92478 0.0
H1096 H 0.79195 0.24401 0.04608 0.0
H1097 H 0.68885 0.24 0.94295 0.0
C1098 C 0.68132 0.29142 0.97688 0.0
C1099 C 0.69385 0.31863 0.0118 0.0
C1100 C 0.78069 0.22251 0.0195 0.0
C1101 C 0.72918 0.25707 -0.00126 0.0
C1102 C 0.79859 0.19199 0.01221 0.0
C1103 C 0.78465 0.16393 0.97795 0.0
C1104 C 0.74875 0.22494 -0.00781 0.0
C1105 C 0.75282 0.16727 0.95137 0.0
C1106 C 0.69889 0.26064 0.97021 0.0
C1107 C 0.72371 0.31396 0.03986 0.0
N1108 N 0.73585 0.19729 0.95906 0.0
N1109 N 0.74058 0.28374 0.03266 0.0
H1110 H 0.7996 0.83479 0.9852 0.0
H1111 H 0.67141 0.65385 0.03302 0.0
H1112 H 0.83028 0.79482 0.08895 0.0
H1113 H 0.64181 0.69501 0.92981 0.0
H1114 H 0.72874 0.70655 0.05549 0.0
H1115 H 0.74083 0.78416 0.96497 0.0
C1116 C 0.79377 0.81523 0.00366 0.0
C1117 C 0.81932 0.81883 0.03876 0.0
C1118 C 0.70953 0.70426 0.02808 0.0
C1119 C 0.75262 0.76097 0.01604 0.0
C1120 C 0.67692 0.67434 0.01539 0.0
C1121 C 0.65216 0.67045 0.97972 0.0
C1122 C 0.71727 0.73018 0.00471 0.0
C1123 C 0.66009 0.69752 0.95777 0.0
C1124 C 0.76036 0.78636 -0.00783 0.0
C1125 C 0.81118 0.79258 0.0615 0.0
N1126 N 0.69216 0.7262 0.97054 0.0
N1127 N 0.77834 0.7647 0.04979 0.0
H1128 H 0.74443 0.50421 0.86533 0.0
H1129 H 0.75113 0.48701 0.64458 0.0
H1130 H 0.64791 0.50522 0.77607 0.0
H1131 H 0.84465 0.47353 0.73006 0.0
H1132 H 0.71327 0.49488 0.69309 0.0
H1133 H 0.78275 0.49482 0.817 0.0
C1134 C 0.73149 0.50268 0.83555 0.0
C1135 C 0.69325 0.50579 0.82449 0.0
C1136 C 0.74197 0.48999 0.70132 0.0
C1137 C 0.7364 0.495 0.7694 0.0
C1138 C 0.7635 0.48556 0.67369 0.0
C1139 C 0.80085 0.47977 0.68367 0.0
C1140 C 0.75811 0.48882 0.73923 0.0
C1141 C 0.81569 0.47759 0.72141 0.0
C1142 C 0.75324 0.4973 0.80806 0.0
C1143 C 0.67763 0.50387 0.78579 0.0
N1144 N 0.79428 0.48239 0.74808 0.0
N1145 N 0.69929 0.49852 0.75956 0.0
H1146 H 0.14493 0.50861 0.65168 0.0
H1147 H 0.33883 0.45911 0.75551 0.0
H1148 H 0.18557 0.40836 0.60915 0.0
H1149 H 0.29509 0.55655 0.79992 0.0
H1150 H 0.28736 0.44431 0.69693 0.0
H1151 H 0.20403 0.53089 0.70249 0.0
C1152 C 0.16652 0.49151 0.6531 0.0
C1153 C 0.16075 0.45677 0.62666 0.0
C1154 C 0.28919 0.46909 0.71938 0.0
C1155 C 0.22793 0.48164 0.68403 0.0
C1156 C 0.31848 0.47746 0.75256 0.0
C1157 C 0.32028 0.50847 0.78234 0.0
C1158 C 0.26191 0.49209 0.7164 0.0
C1159 C 0.29379 0.53182 0.77761 0.0
C1160 C 0.20021 0.50418 0.68183 0.0
C1161 C 0.18941 0.43557 0.62902 0.0
N1162 N 0.26539 0.52296 0.74531 0.0
N1163 N 0.22178 0.44823 0.65748 0.0
H1164 H 0.21048 0.56146 0.32972 0.0
H1165 H 0.26299 0.43492 0.15242 0.0
H1166 H 0.13249 0.4611 0.25397 0.0
H1167 H 0.32532 0.55123 0.20382 0.0
H1168 H 0.21682 0.44289 0.19279 0.0
H1169 H 0.25437 0.55873 0.28588 0.0
C1170 C 0.20237 0.53936 0.30346 0.0
C1171 C 0.16822 0.51129 0.29529 0.0
C1172 C 0.24053 0.46675 0.19526 0.0
C1173 C 0.21814 0.50734 0.24601 0.0
C1174 C 0.26693 0.46203 0.17255 0.0
C1175 C 0.29772 0.49242 0.17531 0.0
C1176 C 0.24532 0.50205 0.22105 0.0
C1177 C 0.3017 0.52724 0.20122 0.0
C1178 C 0.22743 0.5376 0.27869 0.0
C1179 C 0.15903 0.48281 0.26143 0.0
N1180 N 0.27577 0.53114 0.22338 0.0
N1181 N 0.18405 0.48132 0.23814 0.0
H1182 H 0.69118 0.44514 0.16854 0.0
H1183 H 0.78543 0.61796 0.35121 0.0
H1184 H 0.63656 0.5385 0.19959 0.0
H1185 H 0.84369 0.53165 0.30823 0.0
H1186 H 0.72959 0.58902 0.29752 0.0
H1187 H 0.74626 0.47569 0.22176 0.0
C1188 C 0.69103 0.47229 0.18664 0.0
C1189 C 0.65986 0.4898 0.17965 0.0
C1190 C 0.7547 0.57661 0.29971 0.0
C1191 C 0.72239 0.52476 0.24076 0.0
C1192 C 0.78642 0.59302 0.33027 0.0
C1193 C 0.81901 0.57712 0.33379 0.0
C1194 C 0.75573 0.54396 0.27285 0.0
C1195 C 0.81926 0.54506 0.30606 0.0
C1196 C 0.72237 0.48968 0.21703 0.0
C1197 C 0.66033 0.52435 0.20428 0.0
N1198 N 0.78797 0.5294 0.27679 0.0
N1199 N 0.69134 0.54091 0.23387 0.0
H1200 H 0.28566 0.83921 0.58134 0.0
H1201 H 0.1725 0.64675 0.42772 0.0
H1202 H 0.30009 0.81138 0.46531 0.0
H1203 H 0.16162 0.66966 0.54531 0.0
H1204 H 0.2188 0.70763 0.44106 0.0
H1205 H 0.23654 0.77953 0.5679 0.0
C1206 C 0.2775 0.82094 0.55271 0.0
C1207 C 0.29635 0.82985 0.52417 0.0
C1208 C 0.20681 0.69924 0.46419 0.0
C1209 C 0.24178 0.76154 0.50902 0.0
C1210 C 0.18096 0.66415 0.45675 0.0
C1211 C 0.16422 0.65301 0.48583 0.0
C1212 C 0.21558 0.72351 0.50087 0.0
C1213 C 0.17459 0.67728 0.52244 0.0
C1214 C 0.25003 0.78672 0.54521 0.0
C1215 C 0.28583 0.8052 0.48784 0.0
N1216 N 0.19963 0.71166 0.52898 0.0
N1217 N 0.25936 0.7719 0.48133 0.0
H1218 H 0.20044 0.33921 0.53208 0.0
H1219 H 0.29239 0.16592 0.45204 0.0
H1220 H 0.15986 0.2675 0.41787 0.0
H1221 H 0.33616 0.2394 0.56511 0.0
H1222 H 0.24377 0.20323 0.43896 0.0
H1223 H 0.25119 0.304 0.54465 0.0
C1224 C 0.20238 0.31599 0.50968 0.0
C1225 C 0.17601 0.30575 0.47407 0.0
C1226 C 0.26396 0.21133 0.46665 0.0
C1227 C 0.23368 0.26565 0.48799 0.0
C1228 C 0.29167 0.19012 0.47404 0.0
C1229 C 0.3182 0.20009 0.50951 0.0
C1230 C 0.26279 0.24261 0.49507 0.0
C1231 C 0.31591 0.231 0.53747 0.0
C1232 C 0.23133 0.29603 0.51678 0.0
C1233 C 0.17994 0.27619 0.44561 0.0
N1234 N 0.28861 0.25137 0.52961 0.0
N1235 N 0.20819 0.25691 0.45328 0.0
H1236 H 0.75818 0.63359 0.50509 0.0
H1237 H 0.6883 0.81984 0.46059 0.0
H1238 H 0.83369 0.74564 0.53066 0.0
H1239 H 0.60984 0.71428 0.4571 0.0
H1240 H 0.74249 0.7913 0.48117 0.0
H1241 H 0.70342 0.66153 0.48526 0.0
C1242 C 0.763 0.6643 0.50758 0.0
C1243 C 0.8002 0.68762 0.52006 0.0
C1244 C 0.71346 0.7742 0.47554 0.0
C1245 C 0.73822 0.7194 0.49589 0.0
C1246 C 0.68264 0.79023 0.46314 0.0
C1247 C 0.64489 0.76888 0.45645 0.0
C1248 C 0.70627 0.73667 0.48135 0.0
C1249 C 0.63877 0.73128 0.46167 0.0
C1250 C 0.73186 0.68013 0.4957 0.0
C1251 C 0.80527 0.7269 0.52122 0.0
N1252 N 0.66926 0.71625 0.47389 0.0
N1253 N 0.77456 0.74163 0.50903 0.0
H1254 H 0.69391 0.11463 0.43029 0.0
H1255 H 0.79563 0.31005 0.58257 0.0
H1256 H 0.66763 0.14348 0.5414 0.0
H1257 H 0.82596 0.27589 0.47436 0.0
H1258 H 0.75075 0.24772 0.56991 0.0
H1259 H 0.74734 0.17034 0.44911 0.0
C1260 C 0.7003 0.13206 0.45919 0.0
C1261 C 0.6767 0.12463 0.48454 0.0
C1262 C 0.76722 0.25383 0.54893 0.0
C1263 C 0.73638 0.18937 0.50558 0.0
C1264 C 0.79229 0.28945 0.55591 0.0
C1265 C 0.81384 0.29772 0.52916 0.0
C1266 C 0.76387 0.22667 0.51494 0.0
C1267 C 0.80955 0.2702 0.4955 0.0
C1268 C 0.73042 0.16423 0.46973 0.0
C1269 C 0.68529 0.14866 0.52115 0.0
N1270 N 0.78492 0.23578 0.48925 0.0
N1271 N 0.71427 0.18045 0.53049 0.0
H1272 H 0.50817 0.29418 0.86009 0.0
H1273 H 0.53749 0.18396 0.65987 0.0
H1274 H 0.59895 0.33696 0.80711 0.0
H1275 H 0.44148 0.14869 0.70937 0.0
H1276 H 0.56412 0.23752 0.71606 0.0
H1277 H 0.48684 0.2373 0.80755 0.0
C1278 C 0.52377 0.2913 0.83748 0.0
C1279 C 0.55524 0.31998 0.83767 0.0
C1280 C 0.53738 0.21786 0.71472 0.0
C1281 C 0.53091 0.25561 0.77736 0.0
C1282 C 0.52228 0.18749 0.68278 0.0
C1283 C 0.4875 0.16218 0.68039 0.0
C1284 C 0.51733 0.22265 0.74417 0.0
C1285 C 0.46873 0.16744 0.71059 0.0
C1286 C 0.51151 0.25904 0.80739 0.0
C1287 C 0.57417 0.3155 0.80749 0.0
N1288 N 0.48384 0.19723 0.74124 0.0
N1289 N 0.56166 0.28381 0.77838 0.0
H1290 H 0.46961 0.8326 0.70841 0.0
H1291 H 0.49674 0.63224 0.75616 0.0
H1292 H 0.47 0.73434 0.62185 0.0
H1293 H 0.46435 0.71899 0.8335 0.0
H1294 H 0.49266 0.67132 0.708 0.0
H1295 H 0.47221 0.79316 0.75609 0.0
C1296 C 0.46978 0.80258 0.69936 0.0
C1297 C 0.46933 0.78656 0.66115 0.0
C1298 C 0.48644 0.68183 0.73549 0.0
C1299 C 0.4733 0.74158 0.71561 0.0
C1300 C 0.48914 0.65975 0.76303 0.0
C1301 C 0.48119 0.67278 0.79874 0.0
C1302 C 0.47601 0.71725 0.74399 0.0
C1303 C 0.47054 0.70807 0.80611 0.0
C1304 C 0.47154 0.78017 0.72663 0.0
C1305 C 0.47076 0.74784 0.65116 0.0
N1306 N 0.46843 0.72927 0.77897 0.0
N1307 N 0.47279 0.72662 0.67829 0.0
H1308 H 0.4782 0.67808 0.10453 0.0
H1309 H 0.43136 0.79088 0.29416 0.0
H1310 H 0.38648 0.63323 0.15534 0.0
H1311 H 0.53336 0.82651 0.25332 0.0
H1312 H 0.40787 0.73825 0.23699 0.0
H1313 H 0.49259 0.73842 0.15281 0.0
C1314 C 0.46115 0.68118 0.12592 0.0
C1315 C 0.43177 0.65092 0.12683 0.0
C1316 C 0.43518 0.75789 0.24035 0.0
C1317 C 0.44761 0.71905 0.18155 0.0
C1318 C 0.44853 0.78769 0.27289 0.0
C1319 C 0.4843 0.81251 0.27825 0.0
C1320 C 0.45802 0.75311 0.21337 0.0
C1321 C 0.5054 0.808 0.24986 0.0
C1322 C 0.46925 0.71541 0.15334 0.0
C1323 C 0.41007 0.65588 0.15462 0.0
N1324 N 0.49208 0.77853 0.21868 0.0
N1325 N 0.41858 0.68937 0.18115 0.0
H1326 H 0.52939 0.25259 0.38736 0.0
H1327 H 0.53616 0.27378 0.17357 0.0
H1328 H 0.53695 0.16109 0.29709 0.0
H1329 H 0.50746 0.35893 0.25596 0.0
H1330 H 0.54608 0.23588 0.22196 0.0
H1331 H 0.53027 0.29572 0.34279 0.0
C1332 C 0.53154 0.24175 0.35825 0.0
C1333 C 0.53309 0.20337 0.34575 0.0
C1334 C 0.53777 0.26292 0.22959 0.0
C1335 C 0.5343 0.25217 0.29496 0.0
C1336 C 0.53237 0.28464 0.20207 0.0
C1337 C 0.52097 0.31936 0.21097 0.0
C1338 C 0.53164 0.27606 0.26624 0.0
C1339 C 0.51571 0.33194 0.24798 0.0
C1340 C 0.53213 0.26629 0.33291 0.0
C1341 C 0.53637 0.19068 0.30802 0.0
N1342 N 0.52103 0.3102 0.27438 0.0
N1343 N 0.53666 0.21499 0.28386 0.0
loop_
_geom_bond_atom_site_label_1
_geom_bond_atom_site_label_2
_geom_bond_distance
_geom_bond_site_symmetry_2
_ccdc_geom_bond_type
C0 C1 1.388 . S
C0 N3 1.338 . S
C0 C5 1.503 . S
C1 C0 1.388 . S
C1 C2 1.396 . S
C2 C1 1.396 . S
C2 N4 1.348 . S
C2 C9 1.504 . S
N3 C0 1.338 . S
N3 N4 1.361 . S
N3 Cu168 1.924 . S
N4 C2 1.348 . S
N4 N3 1.361 . S
N4 Cu169 1.964 . S
C5 C0 1.503 . S
C5 H6 0.979 . S
C5 H7 0.979 . S
C5 H8 0.979 . S
H6 C5 0.979 . S
H7 C5 0.979 . S
H8 C5 0.979 . S
C9 C2 1.504 . S
C9 H10 0.981 . S
C9 H11 0.980 1_565 S
C9 H12 0.979 . S
H10 C9 0.981 . S
H11 C9 0.980 1_545 S
H12 C9 0.979 . S
C13 C15 1.402 . S
C13 N16 1.356 . S
C13 C21 1.481 . S
C14 C15 1.400 1_455 S
C14 N17 1.331 . S
C14 C25 1.503 . S
C15 C13 1.402 . S
C15 C14 1.400 1_655 S
N16 C13 1.356 . S
N16 N17 1.334 1_655 S
N16 Cu175 1.941 . S
N17 C14 1.331 . S
N17 N16 1.334 1_455 S
N17 Cu172 1.943 . S
H18 C21 0.980 . S
H19 C21 0.980 . S
H20 C21 0.980 . S
C21 C13 1.481 . S
C21 H18 0.980 . S
C21 H19 0.980 . S
C21 H20 0.980 . S
H22 C25 0.978 . S
H23 C25 0.978 . S
H24 C25 0.983 . S
C25 C14 1.503 . S
C25 H22 0.978 . S
C25 H23 0.978 . S
C25 H24 0.983 . S
C26 H180 0.979 . S
C26 H181 0.981 . S
C26 H182 0.981 . S
C26 O216 1.438 . S
C27 H183 0.980 . S
C27 H184 0.979 . S
C27 H185 0.980 1_554 S
C27 O217 1.533 . S
C28 N29 1.338 . S
C28 C31 1.388 . S
C28 C36 1.503 . S
N29 C28 1.338 . S
N29 N30 1.361 . S
N29 Cu170 1.924 . S
N30 N29 1.361 . S
N30 C32 1.348 . S
N30 Cu171 1.964 . S
C31 C28 1.388 . S
C31 C32 1.396 . S
C32 N30 1.348 . S
C32 C31 1.396 . S
C32 C40 1.504 . S
H33 C36 0.979 . S
H34 C36 0.979 . S
H35 C36 0.979 . S
C36 C28 1.503 . S
C36 H33 0.979 . S
C36 H34 0.979 . S
C36 H35 0.979 . S
H37 C40 0.981 . S
H38 C40 0.980 1_455 S
H39 C40 0.979 . S
C40 C32 1.504 . S
C40 H37 0.981 . S
C40 H38 0.980 1_655 S
C40 H39 0.979 . S
C41 N43 1.356 . S
C41 C45 1.402 . S
C41 C49 1.481 . S
C42 N44 1.331 . S
C42 C45 1.400 1_554 S
C42 C50 1.503 . S
N43 C41 1.356 . S
N43 N44 1.334 1_556 S
N43 Cu177 1.941 . S
N44 C42 1.331 . S
N44 N43 1.334 1_554 S
N44 Cu168 1.943 . S
C45 C41 1.402 . S
C45 C42 1.400 1_556 S
H46 C49 0.980 . S
H47 C49 0.980 . S
H48 C49 0.980 . S
C49 C41 1.481 . S
C49 H46 0.980 . S
C49 H47 0.980 . S
C49 H48 0.980 . S
C50 C42 1.503 . S
C50 H51 0.978 . S
C50 H52 0.978 . S
C50 H53 0.983 . S
H51 C50 0.978 . S
H52 C50 0.978 . S
H53 C50 0.983 . S
C54 H186 0.979 . S
C54 H187 0.981 . S
C54 H188 0.981 . S
C54 O218 1.438 . S
C55 H189 0.980 . S
C55 H190 0.979 . S
C55 H191 0.980 1_545 S
C55 O219 1.533 . S
C56 N57 1.338 . S
C56 C58 1.388 . S
C56 C64 1.503 . S
N57 C56 1.338 . S
N57 N59 1.361 . S
N57 Cu172 1.924 . S
C58 C56 1.388 . S
C58 C60 1.396 . S
N59 N57 1.361 . S
N59 C60 1.348 . S
N59 Cu173 1.964 . S
C60 C58 1.396 . S
C60 N59 1.348 . S
C60 C66 1.504 . S
H61 C64 0.979 . S
H62 C64 0.979 . S
H63 C64 0.979 . S
C64 C56 1.503 . S
C64 H61 0.979 . S
C64 H62 0.979 . S
C64 H63 0.979 . S
H65 C66 0.981 . S
C66 C60 1.504 . S
C66 H65 0.981 . S
C66 H67 0.979 . S
C66 H68 0.980 1_556 S
H67 C66 0.979 . S
H68 C66 0.980 1_554 S
C69 N71 1.356 . S
C69 C73 1.402 . S
C69 C75 1.481 . S
C70 N72 1.331 . S
C70 C73 1.400 1_545 S
C70 C80 1.503 . S
N71 C69 1.356 . S
N71 N72 1.334 1_565 S
N71 Cu179 1.941 . S
N72 C70 1.331 . S
N72 N71 1.334 1_545 S
N72 Cu170 1.943 . S
C73 C69 1.402 . S
C73 C70 1.400 1_565 S
H74 C75 0.980 . S
C75 C69 1.481 . S
C75 H74 0.980 . S
C75 H76 0.980 . S
C75 H77 0.980 . S
H76 C75 0.980 . S
H77 C75 0.980 . S
H78 C80 0.978 . S
H79 C80 0.978 . S
C80 C70 1.503 . S
C80 H78 0.978 . S
C80 H79 0.978 . S
C80 H81 0.983 . S
H81 C80 0.983 . S
C82 H192 0.979 . S
C82 H193 0.981 . S
C82 H194 0.981 . S
C82 O220 1.438 . S
C83 H195 0.980 . S
C83 H196 0.979 . S
C83 H197 0.980 1_455 S
C83 O221 1.533 . S
C84 N85 1.338 . S
C84 C86 1.388 . S
C84 C89 1.503 . S
N85 C84 1.338 . S
N85 N88 1.361 . S
N85 Cu174 1.924 . S
C86 C84 1.388 . S
C86 C87 1.396 . S
C87 C86 1.396 . S
C87 N88 1.348 . S
C87 C93 1.504 . S
N88 N85 1.361 . S
N88 C87 1.348 . S
N88 Cu175 1.964 . S
C89 C84 1.503 . S
C89 H90 0.979 . S
C89 H91 0.979 . S
C89 H92 0.979 . S
H90 C89 0.979 . S
H91 C89 0.979 . S
H92 C89 0.979 . S
C93 C87 1.504 . S
C93 H94 0.981 . S
C93 H95 0.980 1_545 S
C93 H96 0.979 . S
H94 C93 0.981 . S
H95 C93 0.980 1_565 S
H96 C93 0.979 . S
C97 C98 1.402 . S
C97 N100 1.356 . S
C97 C105 1.481 . S
C98 C97 1.402 . S
C98 C99 1.400 1_455 S
C99 C98 1.400 1_655 S
C99 N101 1.330 . S
C99 C106 1.503 . S
N100 C97 1.356 . S
N100 N101 1.341 1_455 S
N100 Cu169 1.941 . S
N101 C99 1.330 . S
N101 N100 1.341 1_655 S
N101 Cu178 1.938 . S
H102 C105 0.980 . S
H103 C105 0.980 . S
H104 C105 0.980 . S
C105 C97 1.481 . S
C105 H102 0.980 . S
C105 H103 0.980 . S
C105 H104 0.980 . S
C106 C99 1.503 . S
C106 H107 0.978 . S
C106 H108 0.978 . S
C106 H109 0.983 . S
H107 C106 0.978 . S
H108 C106 0.978 . S
H109 C106 0.983 . S
C110 H198 0.979 . S
C110 H199 0.981 . S
C110 H200 0.981 . S
C110 O222 1.438 . S
C111 H201 0.980 . S
C111 H202 0.979 . S
C111 H203 0.980 1_556 S
C111 O223 1.533 . S
C112 C113 1.388 . S
C112 N115 1.338 . S
C112 C117 1.503 . S
C113 C112 1.388 . S
C113 C114 1.396 . S
C114 C113 1.396 . S
C114 N116 1.348 . S
C114 C121 1.504 . S
N115 C112 1.338 . S
N115 N116 1.361 . S
N115 Cu176 1.924 . S
N116 C114 1.348 . S
N116 N115 1.361 . S
N116 Cu177 1.964 . S
C117 C112 1.503 . S
C117 H118 0.979 . S
C117 H119 0.979 . S
C117 H120 0.979 . S
H118 C117 0.979 . S
H119 C117 0.979 . S
H120 C117 0.979 . S
C121 C114 1.504 . S
C121 H122 0.981 . S
C121 H123 0.980 1_455 S
C121 H124 0.979 . S
H122 C121 0.981 . S
H123 C121 0.980 1_655 S
H124 C121 0.979 . S
C125 C126 1.402 . S
C125 N128 1.356 . S
C125 C130 1.481 . S
C126 C125 1.402 . S
C126 C127 1.400 1_554 S
C127 C126 1.400 1_556 S
C127 N129 1.330 . S
C127 C134 1.503 . S
N128 C125 1.356 . S
N128 N129 1.341 1_554 S
N128 Cu171 1.941 . S
N129 C127 1.330 . S
N129 N128 1.341 1_556 S
N129 Cu174 1.938 . S
C130 C125 1.481 . S
C130 H131 0.980 . S
C130 H132 0.980 . S
C130 H133 0.980 . S
H131 C130 0.980 . S
H132 C130 0.980 . S
H133 C130 0.980 . S
C134 C127 1.503 . S
C134 H135 0.978 . S
C134 H136 0.978 . S
C134 H137 0.983 . S
H135 C134 0.978 . S
H136 C134 0.978 . S
H137 C134 0.983 . S
C138 H204 0.979 . S
C138 H205 0.981 . S
C138 H206 0.981 . S
C138 O224 1.438 . S
C139 H207 0.980 . S
C139 H208 0.979 . S
C139 H209 0.980 1_565 S
C139 O225 1.533 . S
C140 N141 1.338 . S
C140 C143 1.388 . S
C140 C148 1.503 . S
N141 C140 1.338 . S
N141 N142 1.361 . S
N141 Cu178 1.924 . S
N142 N141 1.361 . S
N142 C144 1.348 . S
N142 Cu179 1.964 . S
C143 C140 1.388 . S
C143 C144 1.396 . S
C144 N142 1.348 . S
C144 C143 1.396 . S
C144 C152 1.504 . S
H145 C148 0.979 . S
H146 C148 0.979 . S
H147 C148 0.979 . S
C148 C140 1.503 . S
C148 H145 0.979 . S
C148 H146 0.979 . S
C148 H147 0.979 . S
H149 C152 0.981 . S
H150 C152 0.980 1_556 S
H151 C152 0.979 . S
C152 C144 1.504 . S
C152 H149 0.981 . S
C152 H150 0.980 1_554 S
C152 H151 0.979 . S
C153 N154 1.356 . S
C153 C156 1.402 . S
C153 C158 1.481 . S
N154 C153 1.356 . S
N154 N155 1.341 1_545 S
N154 Cu173 1.941 . S
N155 N154 1.341 1_565 S
N155 C157 1.330 . S
N155 Cu176 1.938 . S
C156 C153 1.402 . S
C156 C157 1.400 1_545 S
C157 N155 1.330 . S
C157 C156 1.400 1_565 S
C157 C162 1.503 . S
C158 C153 1.481 . S
C158 H159 0.980 . S
C158 H160 0.980 . S
C158 H161 0.980 . S
H159 C158 0.980 . S
H160 C158 0.980 . S
H161 C158 0.980 . S
C162 C157 1.503 . S
C162 H163 0.978 . S
C162 H164 0.978 . S
C162 H165 0.983 . S
H163 C162 0.978 . S
H164 C162 0.978 . S
H165 C162 0.983 . S
C166 H210 0.979 . S
C166 H211 0.981 . S
C166 H212 0.981 . S
C166 O226 1.438 . S
C167 H213 0.980 . S
C167 H214 0.979 . S
C167 H215 0.980 1_655 S
C167 O227 1.533 . S
Cu168 N3 1.924 . S
Cu168 N44 1.943 . S
Cu168 O216 1.923 . S
Cu168 O217 1.930 . S
Cu169 N4 1.964 . S
Cu169 N100 1.941 . S
Cu169 O216 1.905 . S
Cu169 O227 1.920 1_455 S
Cu170 N29 1.924 . S
Cu170 N72 1.943 . S
Cu170 O218 1.923 . S
Cu170 O219 1.930 . S
Cu171 N30 1.964 . S
Cu171 N128 1.941 . S
Cu171 O218 1.905 . S
Cu171 O223 1.920 1_554 S
Cu172 N17 1.943 . S
Cu172 N57 1.924 . S
Cu172 O220 1.923 . S
Cu172 O221 1.930 . S
Cu173 N59 1.964 . S
Cu173 N154 1.941 . S
Cu173 O220 1.905 . S
Cu173 O225 1.920 1_545 S
Cu174 N85 1.924 . S
Cu174 N129 1.938 . S
Cu174 O222 1.923 . S
Cu174 O223 1.930 . S
Cu175 N16 1.941 . S
Cu175 N88 1.964 . S
Cu175 O221 1.920 1_655 S
Cu175 O222 1.905 . S
Cu176 N115 1.924 . S
Cu176 N155 1.938 . S
Cu176 O224 1.923 . S
Cu176 O225 1.930 . S
Cu177 N43 1.941 . S
Cu177 N116 1.964 . S
Cu177 O217 1.920 1_556 S
Cu177 O224 1.905 . S
Cu178 N101 1.938 . S
Cu178 N141 1.924 . S
Cu178 O226 1.923 . S
Cu178 O227 1.930 . S
Cu179 N71 1.941 . S
Cu179 N142 1.964 . S
Cu179 O219 1.920 1_565 S
Cu179 O226 1.905 . S
H180 C26 0.979 . S
H181 C26 0.981 . S
H182 C26 0.981 . S
H183 C27 0.980 . S
H184 C27 0.979 . S
H185 C27 0.980 1_556 S
H186 C54 0.979 . S
H187 C54 0.981 . S
H188 C54 0.981 . S
H189 C55 0.980 . S
H190 C55 0.979 . S
H191 C55 0.980 1_565 S
H192 C82 0.979 . S
H193 C82 0.981 . S
H194 C82 0.981 . S
H195 C83 0.980 . S
H196 C83 0.979 . S
H197 C83 0.980 1_655 S
H198 C110 0.979 . S
H199 C110 0.981 . S
H200 C110 0.981 . S
H201 C111 0.980 . S
H202 C111 0.979 . S
H203 C111 0.980 1_554 S
H204 C138 0.979 . S
H205 C138 0.981 . S
H206 C138 0.981 . S
H207 C139 0.980 . S
H208 C139 0.979 . S
H209 C139 0.980 1_545 S
H210 C166 0.979 . S
H211 C166 0.981 . S
H212 C166 0.981 . S
H213 C167 0.980 . S
H214 C167 0.979 . S
H215 C167 0.980 1_455 S
O216 C26 1.438 . S
O216 Cu168 1.923 . S
O216 Cu169 1.905 . S
O217 C27 1.533 . S
O217 Cu168 1.930 . S
O217 Cu177 1.920 1_554 S
O218 C54 1.438 . S
O218 Cu170 1.923 . S
O218 Cu171 1.905 . S
O219 C55 1.533 . S
O219 Cu170 1.930 . S
O219 Cu179 1.920 1_545 S
O220 C82 1.438 . S
O220 Cu172 1.923 . S
O220 Cu173 1.905 . S
O221 C83 1.533 . S
O221 Cu172 1.930 . S
O221 Cu175 1.920 1_455 S
O222 C110 1.438 . S
O222 Cu174 1.923 . S
O222 Cu175 1.905 . S
O223 C111 1.533 . S
O223 Cu171 1.920 1_556 S
O223 Cu174 1.930 . S
O224 C138 1.438 . S
O224 Cu176 1.923 . S
O224 Cu177 1.905 . S
O225 C139 1.533 . S
O225 Cu173 1.920 1_565 S
O225 Cu176 1.930 . S
O226 C166 1.438 . S
O226 Cu178 1.923 . S
O226 Cu179 1.905 . S
O227 C167 1.533 . S
O227 Cu169 1.920 1_655 S
O227 Cu178 1.930 . S
C228 C229 1.388 . S
C228 N231 1.338 . S
C228 C233 1.503 . S
C229 C228 1.388 . S
C229 C230 1.396 . S
C230 C229 1.396 . S
C230 N232 1.348 . S
C230 C237 1.504 . S
N231 C228 1.338 . S
N231 N232 1.361 . S
N231 Cu396 1.924 . S
N232 C230 1.348 . S
N232 N231 1.361 . S
N232 Cu397 1.964 . S
C233 C228 1.503 . S
C233 H234 0.979 . S
C233 H235 0.979 . S
C233 H236 0.979 . S
H234 C233 0.979 . S
H235 C233 0.979 . S
H236 C233 0.979 . S
C237 C230 1.504 . S
C237 H238 0.981 . S
C237 H239 0.980 . S
C237 H240 0.979 . S
H238 C237 0.981 . S
H239 C237 0.980 . S
H240 C237 0.979 . S
C241 C243 1.402 . S
C241 N244 1.356 . S
C241 C249 1.481 . S
C242 C243 1.400 1_455 S
C242 N245 1.331 . S
C242 C253 1.503 . S
C243 C241 1.402 . S
C243 C242 1.400 1_655 S
N244 C241 1.356 . S
N244 N245 1.334 1_655 S
N244 Cu403 1.941 . S
N245 C242 1.331 . S
N245 N244 1.334 1_455 S
N245 Cu400 1.943 . S
H246 C249 0.980 . S
H247 C249 0.980 . S
H248 C249 0.980 . S
C249 C241 1.481 . S
C249 H246 0.980 . S
C249 H247 0.980 . S
C249 H248 0.980 . S
H250 C253 0.978 . S
H251 C253 0.978 . S
H252 C253 0.983 . S
C253 C242 1.503 . S
C253 H250 0.978 . S
C253 H251 0.978 . S
C253 H252 0.983 . S
C254 H408 0.979 . S
C254 H409 0.981 . S
C254 H410 0.981 . S
C254 O444 1.438 . S
C255 H411 0.980 . S
C255 H412 0.979 . S
C255 H413 0.980 . S
C255 O445 1.533 . S
C256 N257 1.338 . S
C256 C259 1.388 . S
C256 C264 1.503 . S
N257 C256 1.338 . S
N257 N258 1.361 . S
N257 Cu398 1.924 . S
N258 N257 1.361 . S
N258 C260 1.348 . S
N258 Cu399 1.964 . S
C259 C256 1.388 . S
C259 C260 1.396 . S
C260 N258 1.348 . S
C260 C259 1.396 . S
C260 C268 1.504 . S
H261 C264 0.979 . S
H262 C264 0.979 . S
H263 C264 0.979 . S
C264 C256 1.503 . S
C264 H261 0.979 . S
C264 H262 0.979 . S
C264 H263 0.979 . S
H265 C268 0.981 . S
H266 C268 0.980 1_455 S
H267 C268 0.979 . S
C268 C260 1.504 . S
C268 H265 0.981 . S
C268 H266 0.980 1_655 S
C268 H267 0.979 . S
C269 N271 1.356 . S
C269 C273 1.402 . S
C269 C277 1.481 . S
C270 N272 1.325 . S
C270 C273 1.400 . S
C270 C278 1.503 . S
N271 C269 1.356 . S
N271 N272 1.365 . S
N271 Cu405 1.941 . S
N272 C270 1.325 . S
N272 N271 1.365 . S
N272 Cu396 1.924 . S
C273 C269 1.402 . S
C273 C270 1.400 . S
H274 C277 0.980 . S
H275 C277 0.980 . S
H276 C277 0.980 . S
C277 C269 1.481 . S
C277 H274 0.980 . S
C277 H275 0.980 . S
C277 H276 0.980 . S
C278 C270 1.503 . S
C278 H279 0.978 . S
C278 H280 0.978 . S
C278 H281 0.983 . S
H279 C278 0.978 . S
H280 C278 0.978 . S
H281 C278 0.983 . S
C282 H414 0.979 . S
C282 H415 0.981 . S
C282 H416 0.981 . S
C282 O446 1.438 . S
C283 H417 0.980 . S
C283 H418 0.979 . S
C283 H419 0.980 . S
C283 O447 1.533 . S
C284 N285 1.338 . S
C284 C286 1.388 . S
C284 C292 1.503 . S
N285 C284 1.338 . S
N285 N287 1.361 . S
N285 Cu400 1.924 . S
C286 C284 1.388 . S
C286 C288 1.396 . S
N287 N285 1.361 . S
N287 C288 1.348 . S
N287 Cu401 1.964 . S
C288 C286 1.396 . S
C288 N287 1.348 . S
C288 C294 1.504 . S
H289 C292 0.979 . S
H290 C292 0.979 . S
H291 C292 0.979 . S
C292 C284 1.503 . S
C292 H289 0.979 . S
C292 H290 0.979 . S
C292 H291 0.979 . S
H293 C294 0.981 . S
C294 C288 1.504 . S
C294 H293 0.981 . S
C294 H295 0.979 . S
C294 H296 0.980 . S
H295 C294 0.979 . S
H296 C294 0.980 . S
C297 N299 1.356 . S
C297 C301 1.402 . S
C297 C303 1.481 . S
C298 N300 1.325 . S
C298 C301 1.400 . S
C298 C308 1.503 . S
N299 C297 1.356 . S
N299 N300 1.365 . S
N299 Cu407 1.941 . S
N300 C298 1.325 . S
N300 N299 1.365 . S
N300 Cu398 1.924 . S
C301 C297 1.402 . S
C301 C298 1.400 . S
H302 C303 0.980 . S
C303 C297 1.481 . S
C303 H302 0.980 . S
C303 H304 0.980 . S
C303 H305 0.980 . S
H304 C303 0.980 . S
H305 C303 0.980 . S
H306 C308 0.978 . S
H307 C308 0.978 . S
C308 C298 1.503 . S
C308 H306 0.978 . S
C308 H307 0.978 . S
C308 H309 0.983 . S
H309 C308 0.983 . S
C310 H420 0.979 . S
C310 H421 0.981 . S
C310 H422 0.981 . S
C310 O448 1.438 . S
C311 H423 0.980 . S
C311 H424 0.979 . S
C311 H425 0.980 1_455 S
C311 O449 1.533 . S
C312 N313 1.338 . S
C312 C314 1.388 . S
C312 C317 1.503 . S
N313 C312 1.338 . S
N313 N316 1.361 . S
N313 Cu402 1.924 . S
C314 C312 1.388 . S
C314 C315 1.396 . S
C315 C314 1.396 . S
C315 N316 1.348 . S
C315 C321 1.504 . S
N316 N313 1.361 . S
N316 C315 1.348 . S
N316 Cu403 1.964 . S
C317 C312 1.503 . S
C317 H318 0.979 . S
C317 H319 0.979 . S
C317 H320 0.979 . S
H318 C317 0.979 . S
H319 C317 0.979 . S
H320 C317 0.979 . S
C321 C315 1.504 . S
C321 H322 0.981 . S
C321 H323 0.980 . S
C321 H324 0.979 . S
H322 C321 0.981 . S
H323 C321 0.980 . S
H324 C321 0.979 . S
C325 C326 1.402 . S
C325 N328 1.356 . S
C325 C333 1.481 . S
C326 C325 1.402 . S
C326 C327 1.400 1_455 S
C327 C326 1.400 1_655 S
C327 N329 1.330 . S
C327 C334 1.503 . S
N328 C325 1.356 . S
N328 N329 1.341 1_455 S
N328 Cu397 1.941 . S
N329 C327 1.330 . S
N329 N328 1.341 1_655 S
N329 Cu406 1.938 . S
H330 C333 0.980 . S
H331 C333 0.980 . S
H332 C333 0.980 . S
C333 C325 1.481 . S
C333 H330 0.980 . S
C333 H331 0.980 . S
C333 H332 0.980 . S
C334 C327 1.503 . S
C334 H335 0.978 . S
C334 H336 0.978 . S
C334 H337 0.983 . S
H335 C334 0.978 . S
H336 C334 0.978 . S
H337 C334 0.983 . S
C338 H426 0.979 . S
C338 H427 0.981 . S
C338 H428 0.981 . S
C338 O450 1.438 . S
C339 H429 0.980 . S
C339 H430 0.979 . S
C339 H431 0.980 . S
C339 O451 1.533 . S
C340 C341 1.388 . S
C340 N343 1.338 . S
C340 C345 1.503 . S
C341 C340 1.388 . S
C341 C342 1.396 . S
C342 C341 1.396 . S
C342 N344 1.348 . S
C342 C349 1.504 . S
N343 C340 1.338 . S
N343 N344 1.361 . S
N343 Cu404 1.924 . S
N344 C342 1.348 . S
N344 N343 1.361 . S
N344 Cu405 1.964 . S
C345 C340 1.503 . S
C345 H346 0.979 . S
C345 H347 0.979 . S
C345 H348 0.979 . S
H346 C345 0.979 . S
H347 C345 0.979 . S
H348 C345 0.979 . S
C349 C342 1.504 . S
C349 H350 0.981 . S
C349 H351 0.980 1_455 S
C349 H352 0.979 . S
H350 C349 0.981 . S
H351 C349 0.980 1_655 S
H352 C349 0.979 . S
C353 C354 1.402 . S
C353 N356 1.356 . S
C353 C358 1.481 . S
C354 C353 1.402 . S
C354 C355 1.400 . S
C355 C354 1.400 . S
C355 N357 1.325 . S
C355 C362 1.503 . S
N356 C353 1.356 . S
N356 N357 1.365 . S
N356 Cu399 1.941 . S
N357 C355 1.325 . S
N357 N356 1.365 . S
N357 Cu402 1.924 . S
C358 C353 1.481 . S
C358 H359 0.980 . S
C358 H360 0.980 . S
C358 H361 0.980 . S
H359 C358 0.980 . S
H360 C358 0.980 . S
H361 C358 0.980 . S
C362 C355 1.503 . S
C362 H363 0.978 . S
C362 H364 0.978 . S
C362 H365 0.983 . S
H363 C362 0.978 . S
H364 C362 0.978 . S
H365 C362 0.983 . S
C366 H432 0.979 . S
C366 H433 0.981 . S
C366 H434 0.981 . S
C366 O452 1.438 . S
C367 H435 0.980 . S
C367 H436 0.979 . S
C367 H437 0.980 . S
C367 O453 1.533 . S
C368 N369 1.338 . S
C368 C371 1.388 . S
C368 C376 1.503 . S
N369 C368 1.338 . S
N369 N370 1.361 . S
N369 Cu406 1.924 . S
N370 N369 1.361 . S
N370 C372 1.348 . S
N370 Cu407 1.964 . S
C371 C368 1.388 . S
C371 C372 1.396 . S
C372 N370 1.348 . S
C372 C371 1.396 . S
C372 C380 1.504 . S
H373 C376 0.979 . S
H374 C376 0.979 . S
H375 C376 0.979 . S
C376 C368 1.503 . S
C376 H373 0.979 . S
C376 H374 0.979 . S
C376 H375 0.979 . S
H377 C380 0.981 . S
H378 C380 0.980 . S
H379 C380 0.979 . S
C380 C372 1.504 . S
C380 H377 0.981 . S
C380 H378 0.980 . S
C380 H379 0.979 . S
C381 N382 1.356 . S
C381 C384 1.402 . S
C381 C386 1.481 . S
N382 C381 1.356 . S
N382 N383 1.365 . S
N382 Cu401 1.941 . S
N383 N382 1.365 . S
N383 C385 1.325 . S
N383 Cu404 1.924 . S
C384 C381 1.402 . S
C384 C385 1.400 . S
C385 N383 1.325 . S
C385 C384 1.400 . S
C385 C390 1.503 . S
C386 C381 1.481 . S
C386 H387 0.980 . S
C386 H388 0.980 . S
C386 H389 0.980 . S
H387 C386 0.980 . S
H388 C386 0.980 . S
H389 C386 0.980 . S
C390 C385 1.503 . S
C390 H391 0.978 . S
C390 H392 0.978 . S
C390 H393 0.983 . S
H391 C390 0.978 . S
H392 C390 0.978 . S
H393 C390 0.983 . S
C394 H438 0.979 . S
C394 H439 0.981 . S
C394 H440 0.981 . S
C394 O454 1.438 . S
C395 H441 0.980 . S
C395 H442 0.979 . S
C395 H443 0.980 1_655 S
C395 O455 1.533 . S
Cu396 N231 1.924 . S
Cu396 N272 1.924 . S
Cu396 O444 1.923 . S
Cu396 O445 1.930 . S
Cu397 N232 1.964 . S
Cu397 N328 1.941 . S
Cu397 O444 1.905 . S
Cu397 O455 1.920 1_455 S
Cu398 N257 1.924 . S
Cu398 N300 1.924 . S
Cu398 O446 1.923 . S
Cu398 O447 1.930 . S
Cu399 N258 1.964 . S
Cu399 N356 1.941 . S
Cu399 O446 1.905 . S
Cu399 O451 1.920 . S
Cu400 N245 1.943 . S
Cu400 N285 1.924 . S
Cu400 O448 1.923 . S
Cu400 O449 1.930 . S
Cu401 N287 1.964 . S
Cu401 N382 1.941 . S
Cu401 O448 1.905 . S
Cu401 O453 1.920 . S
Cu402 N313 1.924 . S
Cu402 N357 1.924 . S
Cu402 O450 1.923 . S
Cu402 O451 1.930 . S
Cu403 N244 1.941 . S
Cu403 N316 1.964 . S
Cu403 O449 1.920 1_655 S
Cu403 O450 1.905 . S
Cu404 N343 1.924 . S
Cu404 N383 1.924 . S
Cu404 O452 1.923 . S
Cu404 O453 1.930 . S
Cu405 N271 1.941 . S
Cu405 N344 1.964 . S
Cu405 O445 1.920 . S
Cu405 O452 1.905 . S
Cu406 N329 1.938 . S
Cu406 N369 1.924 . S
Cu406 O454 1.923 . S
Cu406 O455 1.930 . S
Cu407 N299 1.941 . S
Cu407 N370 1.964 . S
Cu407 O447 1.920 . S
Cu407 O454 1.905 . S
H408 C254 0.979 . S
H409 C254 0.981 . S
H410 C254 0.981 . S
H411 C255 0.980 . S
H412 C255 0.979 . S
H413 C255 0.980 . S
H414 C282 0.979 . S
H415 C282 0.981 . S
H416 C282 0.981 . S
H417 C283 0.980 . S
H418 C283 0.979 . S
H419 C283 0.980 . S
H420 C310 0.979 . S
H421 C310 0.981 . S
H422 C310 0.981 . S
H423 C311 0.980 . S
H424 C311 0.979 . S
H425 C311 0.980 1_655 S
H426 C338 0.979 . S
H427 C338 0.981 . S
H428 C338 0.981 . S
H429 C339 0.980 . S
H430 C339 0.979 . S
H431 C339 0.980 . S
H432 C366 0.979 . S
H433 C366 0.981 . S
H434 C366 0.981 . S
H435 C367 0.980 . S
H436 C367 0.979 . S
H437 C367 0.980 . S
H438 C394 0.979 . S
H439 C394 0.981 . S
H440 C394 0.981 . S
H441 C395 0.980 . S
H442 C395 0.979 . S
H443 C395 0.980 1_455 S
O444 C254 1.438 . S
O444 Cu396 1.923 . S
O444 Cu397 1.905 . S
O445 C255 1.533 . S
O445 Cu396 1.930 . S
O445 Cu405 1.920 . S
O446 C282 1.438 . S
O446 Cu398 1.923 . S
O446 Cu399 1.905 . S
O447 C283 1.533 . S
O447 Cu398 1.930 . S
O447 Cu407 1.920 . S
O448 C310 1.438 . S
O448 Cu400 1.923 . S
O448 Cu401 1.905 . S
O449 C311 1.533 . S
O449 Cu400 1.930 . S
O449 Cu403 1.920 1_455 S
O450 C338 1.438 . S
O450 Cu402 1.923 . S
O450 Cu403 1.905 . S
O451 C339 1.533 . S
O451 Cu399 1.920 . S
O451 Cu402 1.930 . S
O452 C366 1.438 . S
O452 Cu404 1.923 . S
O452 Cu405 1.905 . S
O453 C367 1.533 . S
O453 Cu401 1.920 . S
O453 Cu404 1.930 . S
O454 C394 1.438 . S
O454 Cu406 1.923 . S
O454 Cu407 1.905 . S
O455 C395 1.533 . S
O455 Cu397 1.920 1_655 S
O455 Cu406 1.930 . S
C456 C457 1.388 . S
C456 N459 1.338 . S
C456 C461 1.503 . S
C457 C456 1.388 . S
C457 C458 1.396 . S
C458 C457 1.396 . S
C458 N460 1.348 . S
C458 C465 1.504 . S
N459 C456 1.338 . S
N459 N460 1.361 . S
N459 Cu624 1.924 . S
N460 C458 1.348 . S
N460 N459 1.361 . S
N460 Cu625 1.964 . S
C461 C456 1.503 . S
C461 H462 0.979 . S
C461 H463 0.979 . S
C461 H464 0.979 . S
H462 C461 0.979 . S
H463 C461 0.979 . S
H464 C461 0.979 . S
C465 C458 1.504 . S
C465 H466 0.981 . S
C465 H467 0.980 1_565 S
C465 H468 0.979 . S
H466 C465 0.981 . S
H467 C465 0.980 1_545 S
H468 C465 0.979 . S
C469 C471 1.402 . S
C469 N472 1.356 . S
C469 C477 1.481 . S
C470 C471 1.400 . S
C470 N473 1.325 . S
C470 C481 1.503 . S
C471 C469 1.402 . S
C471 C470 1.400 . S
N472 C469 1.356 . S
N472 N473 1.365 . S
N472 Cu631 1.941 . S
N473 C470 1.325 . S
N473 N472 1.365 . S
N473 Cu628 1.924 . S
H474 C477 0.980 . S
H475 C477 0.980 . S
H476 C477 0.980 . S
C477 C469 1.481 . S
C477 H474 0.980 . S
C477 H475 0.980 . S
C477 H476 0.980 . S
H478 C481 0.978 . S
H479 C481 0.978 . S
H480 C481 0.983 . S
C481 C470 1.503 . S
C481 H478 0.978 . S
C481 H479 0.978 . S
C481 H480 0.983 . S
C482 H636 0.979 . S
C482 H637 0.981 . S
C482 H638 0.981 . S
C482 O672 1.438 . S
C483 H639 0.980 . S
C483 H640 0.979 . S
C483 H641 0.980 . S
C483 O673 1.533 . S
C484 N485 1.338 . S
C484 C487 1.388 . S
C484 C492 1.503 . S
N485 C484 1.338 . S
N485 N486 1.361 . S
N485 Cu626 1.924 . S
N486 N485 1.361 . S
N486 C488 1.348 . S
N486 Cu627 1.964 . S
C487 C484 1.388 . S
C487 C488 1.396 . S
C488 N486 1.348 . S
C488 C487 1.396 . S
C488 C496 1.504 . S
H489 C492 0.979 . S
H490 C492 0.979 . S
H491 C492 0.979 . S
C492 C484 1.503 . S
C492 H489 0.979 . S
C492 H490 0.979 . S
C492 H491 0.979 . S
H493 C496 0.981 . S
H494 C496 0.980 . S
H495 C496 0.979 . S
C496 C488 1.504 . S
C496 H493 0.981 . S
C496 H494 0.980 . S
C496 H495 0.979 . S
C497 N499 1.356 . S
C497 C501 1.402 . S
C497 C505 1.481 . S
C498 N500 1.325 . S
C498 C501 1.400 . S
C498 C506 1.503 . S
N499 C497 1.356 . S
N499 N500 1.365 . S
N499 Cu633 1.941 . S
N500 C498 1.325 . S
N500 N499 1.365 . S
N500 Cu624 1.924 . S
C501 C497 1.402 . S
C501 C498 1.400 . S
H502 C505 0.980 . S
H503 C505 0.980 . S
H504 C505 0.980 . S
C505 C497 1.481 . S
C505 H502 0.980 . S
C505 H503 0.980 . S
C505 H504 0.980 . S
C506 C498 1.503 . S
C506 H507 0.978 . S
C506 H508 0.978 . S
C506 H509 0.983 . S
H507 C506 0.978 . S
H508 C506 0.978 . S
H509 C506 0.983 . S
C510 H642 0.979 . S
C510 H643 0.981 . S
C510 H644 0.981 . S
C510 O674 1.438 . S
C511 H645 0.980 . S
C511 H646 0.979 . S
C511 H647 0.980 1_545 S
C511 O675 1.533 . S
C512 N513 1.338 . S
C512 C514 1.388 . S
C512 C520 1.503 . S
N513 C512 1.338 . S
N513 N515 1.361 . S
N513 Cu628 1.924 . S
C514 C512 1.388 . S
C514 C516 1.396 . S
N515 N513 1.361 . S
N515 C516 1.348 . S
N515 Cu629 1.964 . S
C516 C514 1.396 . S
C516 N515 1.348 . S
C516 C522 1.504 . S
H517 C520 0.979 . S
H518 C520 0.979 . S
H519 C520 0.979 . S
C520 C512 1.503 . S
C520 H517 0.979 . S
C520 H518 0.979 . S
C520 H519 0.979 . S
H521 C522 0.981 . S
C522 C516 1.504 . S
C522 H521 0.981 . S
C522 H523 0.979 . S
C522 H524 0.980 . S
H523 C522 0.979 . S
H524 C522 0.980 . S
C525 N527 1.356 . S
C525 C529 1.402 . S
C525 C531 1.481 . S
C526 N528 1.331 . S
C526 C529 1.400 1_545 S
C526 C536 1.503 . S
N527 C525 1.356 . S
N527 N528 1.334 1_565 S
N527 Cu635 1.941 . S
N528 C526 1.331 . S
N528 N527 1.334 1_545 S
N528 Cu626 1.943 . S
C529 C525 1.402 . S
C529 C526 1.400 1_565 S
H530 C531 0.980 . S
C531 C525 1.481 . S
C531 H530 0.980 . S
C531 H532 0.980 . S
C531 H533 0.980 . S
H532 C531 0.980 . S
H533 C531 0.980 . S
H534 C536 0.978 . S
H535 C536 0.978 . S
C536 C526 1.503 . S
C536 H534 0.978 . S
C536 H535 0.978 . S
C536 H537 0.983 . S
H537 C536 0.983 . S
C538 H648 0.979 . S
C538 H649 0.981 . S
C538 H650 0.981 . S
C538 O676 1.438 . S
C539 H651 0.980 . S
C539 H652 0.979 . S
C539 H653 0.980 . S
C539 O677 1.533 . S
C540 N541 1.338 . S
C540 C542 1.388 . S
C540 C545 1.503 . S
N541 C540 1.338 . S
N541 N544 1.361 . S
N541 Cu630 1.924 . S
C542 C540 1.388 . S
C542 C543 1.396 . S
C543 C542 1.396 . S
C543 N544 1.348 . S
C543 C549 1.504 . S
N544 N541 1.361 . S
N544 C543 1.348 . S
N544 Cu631 1.964 . S
C545 C540 1.503 . S
C545 H546 0.979 . S
C545 H547 0.979 . S
C545 H548 0.979 . S
H546 C545 0.979 . S
H547 C545 0.979 . S
H548 C545 0.979 . S
C549 C543 1.504 . S
C549 H550 0.981 . S
C549 H551 0.980 1_545 S
C549 H552 0.979 . S
H550 C549 0.981 . S
H551 C549 0.980 1_565 S
H552 C549 0.979 . S
C553 C554 1.402 . S
C553 N556 1.356 . S
C553 C561 1.481 . S
C554 C553 1.402 . S
C554 C555 1.400 . S
C555 C554 1.400 . S
C555 N557 1.325 . S
C555 C562 1.503 . S
N556 C553 1.356 . S
N556 N557 1.365 . S
N556 Cu625 1.941 . S
N557 C555 1.325 . S
N557 N556 1.365 . S
N557 Cu634 1.924 . S
H558 C561 0.980 . S
H559 C561 0.980 . S
H560 C561 0.980 . S
C561 C553 1.481 . S
C561 H558 0.980 . S
C561 H559 0.980 . S
C561 H560 0.980 . S
C562 C555 1.503 . S
C562 H563 0.978 . S
C562 H564 0.978 . S
C562 H565 0.983 . S
H563 C562 0.978 . S
H564 C562 0.978 . S
H565 C562 0.983 . S
C566 H654 0.979 . S
C566 H655 0.981 . S
C566 H656 0.981 . S
C566 O678 1.438 . S
C567 H657 0.980 . S
C567 H658 0.979 . S
C567 H659 0.980 . S
C567 O679 1.533 . S
C568 C569 1.388 . S
C568 N571 1.338 . S
C568 C573 1.503 . S
C569 C568 1.388 . S
C569 C570 1.396 . S
C570 C569 1.396 . S
C570 N572 1.348 . S
C570 C577 1.504 . S
N571 C568 1.338 . S
N571 N572 1.361 . S
N571 Cu632 1.924 . S
N572 C570 1.348 . S
N572 N571 1.361 . S
N572 Cu633 1.964 . S
C573 C568 1.503 . S
C573 H574 0.979 . S
C573 H575 0.979 . S
C573 H576 0.979 . S
H574 C573 0.979 . S
H575 C573 0.979 . S
H576 C573 0.979 . S
C577 C570 1.504 . S
C577 H578 0.981 . S
C577 H579 0.980 . S
C577 H580 0.979 . S
H578 C577 0.981 . S
H579 C577 0.980 . S
H580 C577 0.979 . S
C581 C582 1.402 . S
C581 N584 1.356 . S
C581 C586 1.481 . S
C582 C581 1.402 . S
C582 C583 1.400 . S
C583 C582 1.400 . S
C583 N585 1.325 . S
C583 C590 1.503 . S
N584 C581 1.356 . S
N584 N585 1.365 . S
N584 Cu627 1.941 . S
N585 C583 1.325 . S
N585 N584 1.365 . S
N585 Cu630 1.924 . S
C586 C581 1.481 . S
C586 H587 0.980 . S
C586 H588 0.980 . S
C586 H589 0.980 . S
H587 C586 0.980 . S
H588 C586 0.980 . S
H589 C586 0.980 . S
C590 C583 1.503 . S
C590 H591 0.978 . S
C590 H592 0.978 . S
C590 H593 0.983 . S
H591 C590 0.978 . S
H592 C590 0.978 . S
H593 C590 0.983 . S
C594 H660 0.979 . S
C594 H661 0.981 . S
C594 H662 0.981 . S
C594 O680 1.438 . S
C595 H663 0.980 . S
C595 H664 0.979 . S
C595 H665 0.980 1_565 S
C595 O681 1.533 . S
C596 N597 1.338 . S
C596 C599 1.388 . S
C596 C604 1.503 . S
N597 C596 1.338 . S
N597 N598 1.361 . S
N597 Cu634 1.924 . S
N598 N597 1.361 . S
N598 C600 1.348 . S
N598 Cu635 1.964 . S
C599 C596 1.388 . S
C599 C600 1.396 . S
C600 N598 1.348 . S
C600 C599 1.396 . S
C600 C608 1.504 . S
H601 C604 0.979 . S
H602 C604 0.979 . S
H603 C604 0.979 . S
C604 C596 1.503 . S
C604 H601 0.979 . S
C604 H602 0.979 . S
C604 H603 0.979 . S
H605 C608 0.981 . S
H606 C608 0.980 . S
H607 C608 0.979 . S
C608 C600 1.504 . S
C608 H605 0.981 . S
C608 H606 0.980 . S
C608 H607 0.979 . S
C609 N610 1.356 . S
C609 C612 1.402 . S
C609 C614 1.481 . S
N610 C609 1.356 . S
N610 N611 1.341 1_545 S
N610 Cu629 1.941 . S
N611 N610 1.341 1_565 S
N611 C613 1.330 . S
N611 Cu632 1.938 . S
C612 C609 1.402 . S
C612 C613 1.400 1_545 S
C613 N611 1.330 . S
C613 C612 1.400 1_565 S
C613 C618 1.503 . S
C614 C609 1.481 . S
C614 H615 0.980 . S
C614 H616 0.980 . S
C614 H617 0.980 . S
H615 C614 0.980 . S
H616 C614 0.980 . S
H617 C614 0.980 . S
C618 C613 1.503 . S
C618 H619 0.978 . S
C618 H620 0.978 . S
C618 H621 0.983 . S
H619 C618 0.978 . S
H620 C618 0.978 . S
H621 C618 0.983 . S
C622 H666 0.979 . S
C622 H667 0.981 . S
C622 H668 0.981 . S
C622 O682 1.438 . S
C623 H669 0.980 . S
C623 H670 0.979 . S
C623 H671 0.980 . S
C623 O683 1.533 . S
Cu624 N459 1.924 . S
Cu624 N500 1.924 . S
Cu624 O672 1.923 . S
Cu624 O673 1.930 . S
Cu625 N460 1.964 . S
Cu625 N556 1.941 . S
Cu625 O672 1.905 . S
Cu625 O683 1.920 . S
Cu626 N485 1.924 . S
Cu626 N528 1.943 . S
Cu626 O674 1.923 . S
Cu626 O675 1.930 . S
Cu627 N486 1.964 . S
Cu627 N584 1.941 . S
Cu627 O674 1.905 . S
Cu627 O679 1.920 . S
Cu628 N473 1.924 . S
Cu628 N513 1.924 . S
Cu628 O676 1.923 . S
Cu628 O677 1.930 . S
Cu629 N515 1.964 . S
Cu629 N610 1.941 . S
Cu629 O676 1.905 . S
Cu629 O681 1.920 1_545 S
Cu630 N541 1.924 . S
Cu630 N585 1.924 . S
Cu630 O678 1.923 . S
Cu630 O679 1.930 . S
Cu631 N472 1.941 . S
Cu631 N544 1.964 . S
Cu631 O677 1.920 . S
Cu631 O678 1.905 . S
Cu632 N571 1.924 . S
Cu632 N611 1.938 . S
Cu632 O680 1.923 . S
Cu632 O681 1.930 . S
Cu633 N499 1.941 . S
Cu633 N572 1.964 . S
Cu633 O673 1.920 . S
Cu633 O680 1.905 . S
Cu634 N557 1.924 . S
Cu634 N597 1.924 . S
Cu634 O682 1.923 . S
Cu634 O683 1.930 . S
Cu635 N527 1.941 . S
Cu635 N598 1.964 . S
Cu635 O675 1.920 1_565 S
Cu635 O682 1.905 . S
H636 C482 0.979 . S
H637 C482 0.981 . S
H638 C482 0.981 . S
H639 C483 0.980 . S
H640 C483 0.979 . S
H641 C483 0.980 . S
H642 C510 0.979 . S
H643 C510 0.981 . S
H644 C510 0.981 . S
H645 C511 0.980 . S
H646 C511 0.979 . S
H647 C511 0.980 1_565 S
H648 C538 0.979 . S
H649 C538 0.981 . S
H650 C538 0.981 . S
H651 C539 0.980 . S
H652 C539 0.979 . S
H653 C539 0.980 . S
H654 C566 0.979 . S
H655 C566 0.981 . S
H656 C566 0.981 . S
H657 C567 0.980 . S
H658 C567 0.979 . S
H659 C567 0.980 . S
H660 C594 0.979 . S
H661 C594 0.981 . S
H662 C594 0.981 . S
H663 C595 0.980 . S
H664 C595 0.979 . S
H665 C595 0.980 1_545 S
H666 C622 0.979 . S
H667 C622 0.981 . S
H668 C622 0.981 . S
H669 C623 0.980 . S
H670 C623 0.979 . S
H671 C623 0.980 . S
O672 C482 1.438 . S
O672 Cu624 1.923 . S
O672 Cu625 1.905 . S
O673 C483 1.533 . S
O673 Cu624 1.930 . S
O673 Cu633 1.920 . S
O674 C510 1.438 . S
O674 Cu626 1.923 . S
O674 Cu627 1.905 . S
O675 C511 1.533 . S
O675 Cu626 1.930 . S
O675 Cu635 1.920 1_545 S
O676 C538 1.438 . S
O676 Cu628 1.923 . S
O676 Cu629 1.905 . S
O677 C539 1.533 . S
O677 Cu628 1.930 . S
O677 Cu631 1.920 . S
O678 C566 1.438 . S
O678 Cu630 1.923 . S
O678 Cu631 1.905 . S
O679 C567 1.533 . S
O679 Cu627 1.920 . S
O679 Cu630 1.930 . S
O680 C594 1.438 . S
O680 Cu632 1.923 . S
O680 Cu633 1.905 . S
O681 C595 1.533 . S
O681 Cu629 1.920 1_565 S
O681 Cu632 1.930 . S
O682 C622 1.438 . S
O682 Cu634 1.923 . S
O682 Cu635 1.905 . S
O683 C623 1.533 . S
O683 Cu625 1.920 . S
O683 Cu634 1.930 . S
C684 C685 1.388 . S
C684 N687 1.338 . S
C684 C689 1.503 . S
C685 C684 1.388 . S
C685 C686 1.396 . S
C686 C685 1.396 . S
C686 N688 1.348 . S
C686 C693 1.504 . S
N687 C684 1.338 . S
N687 N688 1.361 . S
N687 Cu852 1.924 . S
N688 C686 1.348 . S
N688 N687 1.361 . S
N688 Cu853 1.964 . S
C689 C684 1.503 . S
C689 H690 0.979 . S
C689 H691 0.979 . S
C689 H692 0.979 . S
H690 C689 0.979 . S
H691 C689 0.979 . S
H692 C689 0.979 . S
C693 C686 1.504 . S
C693 H694 0.981 . S
C693 H695 0.980 . S
C693 H696 0.979 . S
H694 C693 0.981 . S
H695 C693 0.980 . S
H696 C693 0.979 . S
C697 C699 1.402 . S
C697 N700 1.356 . S
C697 C705 1.481 . S
C698 C699 1.400 . S
C698 N701 1.325 . S
C698 C709 1.503 . S
C699 C697 1.402 . S
C699 C698 1.400 . S
N700 C697 1.356 . S
N700 N701 1.365 . S
N700 Cu859 1.941 . S
N701 C698 1.325 . S
N701 N700 1.365 . S
N701 Cu856 1.924 . S
H702 C705 0.980 . S
H703 C705 0.980 . S
H704 C705 0.980 . S
C705 C697 1.481 . S
C705 H702 0.980 . S
C705 H703 0.980 . S
C705 H704 0.980 . S
H706 C709 0.978 . S
H707 C709 0.978 . S
H708 C709 0.983 . S
C709 C698 1.503 . S
C709 H706 0.978 . S
C709 H707 0.978 . S
C709 H708 0.983 . S
C710 H864 0.979 . S
C710 H865 0.981 . S
C710 H866 0.981 . S
C710 O900 1.438 . S
C711 H867 0.980 . S
C711 H868 0.979 . S
C711 H869 0.980 1_554 S
C711 O901 1.533 . S
C712 N713 1.338 . S
C712 C715 1.388 . S
C712 C720 1.503 . S
N713 C712 1.338 . S
N713 N714 1.361 . S
N713 Cu854 1.924 . S
N714 N713 1.361 . S
N714 C716 1.348 . S
N714 Cu855 1.964 . S
C715 C712 1.388 . S
C715 C716 1.396 . S
C716 N714 1.348 . S
C716 C715 1.396 . S
C716 C724 1.504 . S
H717 C720 0.979 . S
H718 C720 0.979 . S
H719 C720 0.979 . S
C720 C712 1.503 . S
C720 H717 0.979 . S
C720 H718 0.979 . S
C720 H719 0.979 . S
H721 C724 0.981 . S
H722 C724 0.980 . S
H723 C724 0.979 . S
C724 C716 1.504 . S
C724 H721 0.981 . S
C724 H722 0.980 . S
C724 H723 0.979 . S
C725 N727 1.356 . S
C725 C729 1.402 . S
C725 C733 1.481 . S
C726 N728 1.331 . S
C726 C729 1.400 1_554 S
C726 C734 1.503 . S
N727 C725 1.356 . S
N727 N728 1.334 1_556 S
N727 Cu861 1.941 . S
N728 C726 1.331 . S
N728 N727 1.334 1_554 S
N728 Cu852 1.943 . S
C729 C725 1.402 . S
C729 C726 1.400 1_556 S
H730 C733 0.980 . S
H731 C733 0.980 . S
H732 C733 0.980 . S
C733 C725 1.481 . S
C733 H730 0.980 . S
C733 H731 0.980 . S
C733 H732 0.980 . S
C734 C726 1.503 . S
C734 H735 0.978 . S
C734 H736 0.978 . S
C734 H737 0.983 . S
H735 C734 0.978 . S
H736 C734 0.978 . S
H737 C734 0.983 . S
C738 H870 0.979 . S
C738 H871 0.981 . S
C738 H872 0.981 . S
C738 O902 1.438 . S
C739 H873 0.980 . S
C739 H874 0.979 . S
C739 H875 0.980 . S
C739 O903 1.533 . S
C740 N741 1.338 . S
C740 C742 1.388 . S
C740 C748 1.503 . S
N741 C740 1.338 . S
N741 N743 1.361 . S
N741 Cu856 1.924 . S
C742 C740 1.388 . S
C742 C744 1.396 . S
N743 N741 1.361 . S
N743 C744 1.348 . S
N743 Cu857 1.964 . S
C744 C742 1.396 . S
C744 N743 1.348 . S
C744 C750 1.504 . S
H745 C748 0.979 . S
H746 C748 0.979 . S
H747 C748 0.979 . S
C748 C740 1.503 . S
C748 H745 0.979 . S
C748 H746 0.979 . S
C748 H747 0.979 . S
H749 C750 0.981 . S
C750 C744 1.504 . S
C750 H749 0.981 . S
C750 H751 0.979 . S
C750 H752 0.980 1_556 S
H751 C750 0.979 . S
H752 C750 0.980 1_554 S
C753 N755 1.356 . S
C753 C757 1.402 . S
C753 C759 1.481 . S
C754 N756 1.325 . S
C754 C757 1.400 . S
C754 C764 1.503 . S
N755 C753 1.356 . S
N755 N756 1.365 . S
N755 Cu863 1.941 . S
N756 C754 1.325 . S
N756 N755 1.365 . S
N756 Cu854 1.924 . S
C757 C753 1.402 . S
C757 C754 1.400 . S
H758 C759 0.980 . S
C759 C753 1.481 . S
C759 H758 0.980 . S
C759 H760 0.980 . S
C759 H761 0.980 . S
H760 C759 0.980 . S
H761 C759 0.980 . S
H762 C764 0.978 . S
H763 C764 0.978 . S
C764 C754 1.503 . S
C764 H762 0.978 . S
C764 H763 0.978 . S
C764 H765 0.983 . S
H765 C764 0.983 . S
C766 H876 0.979 . S
C766 H877 0.981 . S
C766 H878 0.981 . S
C766 O904 1.438 . S
C767 H879 0.980 . S
C767 H880 0.979 . S
C767 H881 0.980 . S
C767 O905 1.533 . S
C768 N769 1.338 . S
C768 C770 1.388 . S
C768 C773 1.503 . S
N769 C768 1.338 . S
N769 N772 1.361 . S
N769 Cu858 1.924 . S
C770 C768 1.388 . S
C770 C771 1.396 . S
C771 C770 1.396 . S
C771 N772 1.348 . S
C771 C777 1.504 . S
N772 N769 1.361 . S
N772 C771 1.348 . S
N772 Cu859 1.964 . S
C773 C768 1.503 . S
C773 H774 0.979 . S
C773 H775 0.979 . S
C773 H776 0.979 . S
H774 C773 0.979 . S
H775 C773 0.979 . S
H776 C773 0.979 . S
C777 C771 1.504 . S
C777 H778 0.981 . S
C777 H779 0.980 . S
C777 H780 0.979 . S
H778 C777 0.981 . S
H779 C777 0.980 . S
H780 C777 0.979 . S
C781 C782 1.402 . S
C781 N784 1.356 . S
C781 C789 1.481 . S
C782 C781 1.402 . S
C782 C783 1.400 . S
C783 C782 1.400 . S
C783 N785 1.325 . S
C783 C790 1.503 . S
N784 C781 1.356 . S
N784 N785 1.365 . S
N784 Cu853 1.941 . S
N785 C783 1.325 . S
N785 N784 1.365 . S
N785 Cu862 1.924 . S
H786 C789 0.980 . S
H787 C789 0.980 . S
H788 C789 0.980 . S
C789 C781 1.481 . S
C789 H786 0.980 . S
C789 H787 0.980 . S
C789 H788 0.980 . S
C790 C783 1.503 . S
C790 H791 0.978 . S
C790 H792 0.978 . S
C790 H793 0.983 . S
H791 C790 0.978 . S
H792 C790 0.978 . S
H793 C790 0.983 . S
C794 H882 0.979 . S
C794 H883 0.981 . S
C794 H884 0.981 . S
C794 O906 1.438 . S
C795 H885 0.980 . S
C795 H886 0.979 . S
C795 H887 0.980 1_556 S
C795 O907 1.533 . S
C796 C797 1.388 . S
C796 N799 1.338 . S
C796 C801 1.503 . S
C797 C796 1.388 . S
C797 C798 1.396 . S
C798 C797 1.396 . S
C798 N800 1.348 . S
C798 C805 1.504 . S
N799 C796 1.338 . S
N799 N800 1.361 . S
N799 Cu860 1.924 . S
N800 C798 1.348 . S
N800 N799 1.361 . S
N800 Cu861 1.964 . S
C801 C796 1.503 . S
C801 H802 0.979 . S
C801 H803 0.979 . S
C801 H804 0.979 . S
H802 C801 0.979 . S
H803 C801 0.979 . S
H804 C801 0.979 . S
C805 C798 1.504 . S
C805 H806 0.981 . S
C805 H807 0.980 . S
C805 H808 0.979 . S
H806 C805 0.981 . S
H807 C805 0.980 . S
H808 C805 0.979 . S
C809 C810 1.402 . S
C809 N812 1.356 . S
C809 C814 1.481 . S
C810 C809 1.402 . S
C810 C811 1.400 1_554 S
C811 C810 1.400 1_556 S
C811 N813 1.330 . S
C811 C818 1.503 . S
N812 C809 1.356 . S
N812 N813 1.341 1_554 S
N812 Cu855 1.941 . S
N813 C811 1.330 . S
N813 N812 1.341 1_556 S
N813 Cu858 1.938 . S
C814 C809 1.481 . S
C814 H815 0.980 . S
C814 H816 0.980 . S
C814 H817 0.980 . S
H815 C814 0.980 . S
H816 C814 0.980 . S
H817 C814 0.980 . S
C818 C811 1.503 . S
C818 H819 0.978 . S
C818 H820 0.978 . S
C818 H821 0.983 . S
H819 C818 0.978 . S
H820 C818 0.978 . S
H821 C818 0.983 . S
C822 H888 0.979 . S
C822 H889 0.981 . S
C822 H890 0.981 . S
C822 O908 1.438 . S
C823 H891 0.980 . S
C823 H892 0.979 . S
C823 H893 0.980 . S
C823 O909 1.533 . S
C824 N825 1.338 . S
C824 C827 1.388 . S
C824 C832 1.503 . S
N825 C824 1.338 . S
N825 N826 1.361 . S
N825 Cu862 1.924 . S
N826 N825 1.361 . S
N826 C828 1.348 . S
N826 Cu863 1.964 . S
C827 C824 1.388 . S
C827 C828 1.396 . S
C828 N826 1.348 . S
C828 C827 1.396 . S
C828 C836 1.504 . S
H829 C832 0.979 . S
H830 C832 0.979 . S
H831 C832 0.979 . S
C832 C824 1.503 . S
C832 H829 0.979 . S
C832 H830 0.979 . S
C832 H831 0.979 . S
H833 C836 0.981 . S
H834 C836 0.980 1_556 S
H835 C836 0.979 . S
C836 C828 1.504 . S
C836 H833 0.981 . S
C836 H834 0.980 1_554 S
C836 H835 0.979 . S
C837 N838 1.356 . S
C837 C840 1.402 . S
C837 C842 1.481 . S
N838 C837 1.356 . S
N838 N839 1.365 . S
N838 Cu857 1.941 . S
N839 N838 1.365 . S
N839 C841 1.325 . S
N839 Cu860 1.924 . S
C840 C837 1.402 . S
C840 C841 1.400 . S
C841 N839 1.325 . S
C841 C840 1.400 . S
C841 C846 1.503 . S
C842 C837 1.481 . S
C842 H843 0.980 . S
C842 H844 0.980 . S
C842 H845 0.980 . S
H843 C842 0.980 . S
H844 C842 0.980 . S
H845 C842 0.980 . S
C846 C841 1.503 . S
C846 H847 0.978 . S
C846 H848 0.978 . S
C846 H849 0.983 . S
H847 C846 0.978 . S
H848 C846 0.978 . S
H849 C846 0.983 . S
C850 H894 0.979 . S
C850 H895 0.981 . S
C850 H896 0.981 . S
C850 O910 1.438 . S
C851 H897 0.980 . S
C851 H898 0.979 . S
C851 H899 0.980 . S
C851 O911 1.533 . S
Cu852 N687 1.924 . S
Cu852 N728 1.943 . S
Cu852 O900 1.923 . S
Cu852 O901 1.930 . S
Cu853 N688 1.964 . S
Cu853 N784 1.941 . S
Cu853 O900 1.905 . S
Cu853 O911 1.920 . S
Cu854 N713 1.924 . S
Cu854 N756 1.924 . S
Cu854 O902 1.923 . S
Cu854 O903 1.930 . S
Cu855 N714 1.964 . S
Cu855 N812 1.941 . S
Cu855 O902 1.905 . S
Cu855 O907 1.920 1_554 S
Cu856 N701 1.924 . S
Cu856 N741 1.924 . S
Cu856 O904 1.923 . S
Cu856 O905 1.930 . S
Cu857 N743 1.964 . S
Cu857 N838 1.941 . S
Cu857 O904 1.905 . S
Cu857 O909 1.920 . S
Cu858 N769 1.924 . S
Cu858 N813 1.938 . S
Cu858 O906 1.923 . S
Cu858 O907 1.930 . S
Cu859 N700 1.941 . S
Cu859 N772 1.964 . S
Cu859 O905 1.920 . S
Cu859 O906 1.905 . S
Cu860 N799 1.924 . S
Cu860 N839 1.924 . S
Cu860 O908 1.923 . S
Cu860 O909 1.930 . S
Cu861 N727 1.941 . S
Cu861 N800 1.964 . S
Cu861 O901 1.920 1_556 S
Cu861 O908 1.905 . S
Cu862 N785 1.924 . S
Cu862 N825 1.924 . S
Cu862 O910 1.923 . S
Cu862 O911 1.930 . S
Cu863 N755 1.941 . S
Cu863 N826 1.964 . S
Cu863 O903 1.920 . S
Cu863 O910 1.905 . S
H864 C710 0.979 . S
H865 C710 0.981 . S
H866 C710 0.981 . S
H867 C711 0.980 . S
H868 C711 0.979 . S
H869 C711 0.980 1_556 S
H870 C738 0.979 . S
H871 C738 0.981 . S
H872 C738 0.981 . S
H873 C739 0.980 . S
H874 C739 0.979 . S
H875 C739 0.980 . S
H876 C766 0.979 . S
H877 C766 0.981 . S
H878 C766 0.981 . S
H879 C767 0.980 . S
H880 C767 0.979 . S
H881 C767 0.980 . S
H882 C794 0.979 . S
H883 C794 0.981 . S
H884 C794 0.981 . S
H885 C795 0.980 . S
H886 C795 0.979 . S
H887 C795 0.980 1_554 S
H888 C822 0.979 . S
H889 C822 0.981 . S
H890 C822 0.981 . S
H891 C823 0.980 . S
H892 C823 0.979 . S
H893 C823 0.980 . S
H894 C850 0.979 . S
H895 C850 0.981 . S
H896 C850 0.981 . S
H897 C851 0.980 . S
H898 C851 0.979 . S
H899 C851 0.980 . S
O900 C710 1.438 . S
O900 Cu852 1.923 . S
O900 Cu853 1.905 . S
O901 C711 1.533 . S
O901 Cu852 1.930 . S
O901 Cu861 1.920 1_554 S
O902 C738 1.438 . S
O902 Cu854 1.923 . S
O902 Cu855 1.905 . S
O903 C739 1.533 . S
O903 Cu854 1.930 . S
O903 Cu863 1.920 . S
O904 C766 1.438 . S
O904 Cu856 1.923 . S
O904 Cu857 1.905 . S
O905 C767 1.533 . S
O905 Cu856 1.930 . S
O905 Cu859 1.920 . S
O906 C794 1.438 . S
O906 Cu858 1.923 . S
O906 Cu859 1.905 . S
O907 C795 1.533 . S
O907 Cu855 1.920 1_556 S
O907 Cu858 1.930 . S
O908 C822 1.438 . S
O908 Cu860 1.923 . S
O908 Cu861 1.905 . S
O909 C823 1.533 . S
O909 Cu857 1.920 . S
O909 Cu860 1.930 . S
O910 C850 1.438 . S
O910 Cu862 1.923 . S
O910 Cu863 1.905 . S
O911 C851 1.533 . S
O911 Cu853 1.920 . S
O911 Cu862 1.930 . S
H912 C918 0.930 . S
H913 C922 0.930 . S
H914 C927 0.929 . S
H915 C925 0.929 . S
H916 C920 0.929 . S
H917 C926 0.929 . S
C918 H912 0.930 . S
C918 C919 1.367 1_655 S
C918 C926 1.378 . S
C919 C918 1.367 1_455 S
C919 C927 1.433 . S
C920 H916 0.929 . S
C920 C922 1.378 . S
C920 C924 1.360 . S
C921 C924 1.470 1_655 S
C921 C926 1.356 . S
C921 N929 1.419 1_655 S
C922 H913 0.930 . S
C922 C920 1.378 . S
C922 C923 1.367 1_455 S
C923 C922 1.367 1_655 S
C923 C925 1.433 . S
C924 C920 1.360 . S
C924 C921 1.470 1_455 S
C924 N928 1.412 1_455 S
C925 H915 0.929 . S
C925 C923 1.433 . S
C925 N928 1.384 . S
C926 H917 0.929 . S
C926 C918 1.378 . S
C926 C921 1.356 . S
C927 H914 0.929 . S
C927 C919 1.433 . S
C927 N929 1.384 . S
N928 C924 1.412 1_655 S
N928 C925 1.384 . S
N929 C921 1.419 1_455 S
N929 C927 1.384 . S
H930 C936 0.930 . S
H931 C940 0.930 . S
H932 C945 0.929 . S
H933 C943 0.929 . S
H934 C938 0.929 1_565 S
H935 C944 0.929 1_545 S
C936 H930 0.930 . S
C936 C937 1.367 . S
C936 C944 1.378 . S
C937 C936 1.367 . S
C937 C945 1.433 . S
C938 H934 0.929 1_545 S
C938 C940 1.378 . S
C938 C942 1.350 . S
C939 C942 1.463 1_565 S
C939 C944 1.350 . S
C939 N947 1.427 . S
C940 H931 0.930 . S
C940 C938 1.378 . S
C940 C941 1.367 . S
C941 C940 1.367 . S
C941 C943 1.433 . S
C942 C938 1.350 . S
C942 C939 1.463 1_545 S
C942 N946 1.427 . S
C943 H933 0.929 . S
C943 C941 1.433 . S
C943 N946 1.384 . S
C944 H935 0.929 1_565 S
C944 C936 1.378 . S
C944 C939 1.350 . S
C945 H932 0.929 . S
C945 C937 1.433 . S
C945 N947 1.384 . S
N946 C942 1.427 . S
N946 C943 1.384 . S
N947 C939 1.427 . S
N947 C945 1.384 . S
H948 C954 0.930 . S
H949 C958 0.930 . S
H950 C963 0.929 1_655 S
H951 C961 0.929 . S
H952 C956 0.929 . S
H953 C962 0.929 . S
C954 H948 0.930 . S
C954 C955 1.367 . S
C954 C962 1.378 . S
C955 C954 1.367 . S
C955 C963 1.433 . S
C956 H952 0.929 . S
C956 C958 1.378 . S
C956 C960 1.350 . S
C957 C960 1.463 1_455 S
C957 C962 1.350 . S
C957 N965 1.427 1_455 S
C958 H949 0.930 . S
C958 C956 1.378 . S
C958 C959 1.367 . S
C959 C958 1.367 . S
C959 C961 1.433 1_655 S
C960 C956 1.350 . S
C960 C957 1.463 1_655 S
C960 N964 1.427 1_655 S
C961 H951 0.929 . S
C961 C959 1.433 1_455 S
C961 N964 1.384 . S
C962 H953 0.929 . S
C962 C954 1.378 . S
C962 C957 1.350 . S
C963 H950 0.929 1_455 S
C963 C955 1.433 . S
C963 N965 1.384 1_455 S
N964 C960 1.427 1_455 S
N964 C961 1.384 . S
N965 C957 1.427 1_655 S
N965 C963 1.384 1_655 S
H966 C972 0.930 . S
H967 C976 0.930 . S
H968 C981 0.929 . S
H969 C979 0.929 . S
H970 C974 0.929 . S
H971 C980 0.929 . S
C972 H966 0.930 . S
C972 C973 1.367 1_545 S
C972 C980 1.378 . S
C973 C972 1.367 1_565 S
C973 C981 1.433 . S
C974 H970 0.929 . S
C974 C976 1.378 . S
C974 C978 1.349 . S
C975 C978 1.463 1_545 S
C975 C980 1.352 . S
C975 N983 1.424 1_545 S
C976 H967 0.930 . S
C976 C974 1.378 . S
C976 C977 1.367 1_565 S
C977 C976 1.367 1_545 S
C977 C979 1.433 . S
C978 C974 1.349 . S
C978 C975 1.463 1_565 S
C978 N982 1.429 1_565 S
C979 H969 0.929 . S
C979 C977 1.433 . S
C979 N982 1.384 . S
C980 H971 0.929 . S
C980 C972 1.378 . S
C980 C975 1.352 . S
C981 H968 0.929 . S
C981 C973 1.433 . S
C981 N983 1.384 . S
N982 C978 1.429 1_545 S
N982 C979 1.384 . S
N983 C975 1.424 1_565 S
N983 C981 1.384 . S
H984 C990 0.930 . S
H985 C994 0.930 . S
H986 C999 0.929 . S
H987 C997 0.929 . S
H988 C992 0.929 . S
H989 C998 0.929 . S
C990 H984 0.930 . S
C990 C991 1.367 1_455 S
C990 C998 1.378 . S
C991 C990 1.367 1_655 S
C991 C999 1.433 . S
C992 H988 0.929 . S
C992 C994 1.378 . S
C992 C996 1.353 . S
C993 C996 1.468 1_455 S
C993 C998 1.356 . S
C993 N1001 1.417 1_455 S
C994 H985 0.930 . S
C994 C992 1.378 . S
C994 C995 1.367 1_655 S
C995 C994 1.367 1_455 S
C995 C997 1.433 . S
C996 C992 1.353 . S
C996 C993 1.468 1_655 S
C996 N1000 1.423 1_655 S
C997 H987 0.929 . S
C997 C995 1.433 . S
C997 N1000 1.384 . S
C998 H989 0.929 . S
C998 C990 1.378 . S
C998 C993 1.356 . S
C999 H986 0.929 . S
C999 C991 1.433 . S
C999 N1001 1.384 . S
N1000 C996 1.423 1_455 S
N1000 C997 1.384 . S
N1001 C993 1.417 1_655 S
N1001 C999 1.384 . S
H1002 C1008 0.930 . S
H1003 C1012 0.930 . S
H1004 C1017 0.929 . S
H1005 C1015 0.929 . S
H1006 C1010 0.929 . S
H1007 C1016 0.929 . S
C1008 H1002 0.930 . S
C1008 C1009 1.367 . S
C1008 C1016 1.378 . S
C1009 C1008 1.367 . S
C1009 C1017 1.433 1_545 S
C1010 H1006 0.929 . S
C1010 C1012 1.378 . S
C1010 C1014 1.350 . S
C1011 C1014 1.463 1_545 S
C1011 C1016 1.350 . S
C1011 N1019 1.427 1_545 S
C1012 H1003 0.930 . S
C1012 C1010 1.378 . S
C1012 C1013 1.367 . S
C1013 C1012 1.367 . S
C1013 C1015 1.433 1_565 S
C1014 C1010 1.350 . S
C1014 C1011 1.463 1_565 S
C1014 N1018 1.427 1_565 S
C1015 H1005 0.929 . S
C1015 C1013 1.433 1_545 S
C1015 N1018 1.384 . S
C1016 H1007 0.929 . S
C1016 C1008 1.378 . S
C1016 C1011 1.350 . S
C1017 H1004 0.929 . S
C1017 C1009 1.433 1_565 S
C1017 N1019 1.384 . S
N1018 C1014 1.427 1_545 S
N1018 C1015 1.384 . S
N1019 C1011 1.427 1_565 S
N1019 C1017 1.384 . S
H1020 C1026 0.930 . S
H1021 C1030 0.930 . S
H1022 C1035 0.929 . S
H1023 C1033 0.929 . S
H1024 C1028 0.929 . S
H1025 C1034 0.929 . S
C1026 H1020 0.930 . S
C1026 C1027 1.367 . S
C1026 C1034 1.378 . S
C1027 C1026 1.367 . S
C1027 C1035 1.433 . S
C1028 H1024 0.929 . S
C1028 C1030 1.378 . S
C1028 C1032 1.350 . S
C1029 C1032 1.463 1_455 S
C1029 C1034 1.350 . S
C1029 N1037 1.427 . S
C1030 H1021 0.930 . S
C1030 C1028 1.378 . S
C1030 C1031 1.367 . S
C1031 C1030 1.367 . S
C1031 C1033 1.433 . S
C1032 C1028 1.350 . S
C1032 C1029 1.463 1_655 S
C1032 N1036 1.427 . S
C1033 H1023 0.929 . S
C1033 C1031 1.433 . S
C1033 N1036 1.384 . S
C1034 H1025 0.929 . S
C1034 C1026 1.378 . S
C1034 C1029 1.350 . S
C1035 H1022 0.929 . S
C1035 C1027 1.433 . S
C1035 N1037 1.384 . S
N1036 C1032 1.427 . S
N1036 C1033 1.384 . S
N1037 C1029 1.427 . S
N1037 C1035 1.384 . S
H1038 C1044 0.930 . S
H1039 C1048 0.930 . S
H1040 C1053 0.929 . S
H1041 C1051 0.929 . S
H1042 C1046 0.929 . S
H1043 C1052 0.929 . S
C1044 H1038 0.930 . S
C1044 C1045 1.367 1_565 S
C1044 C1052 1.378 . S
C1045 C1044 1.367 1_545 S
C1045 C1053 1.433 . S
C1046 H1042 0.929 . S
C1046 C1048 1.378 . S
C1046 C1050 1.356 . S
C1047 C1050 1.468 1_565 S
C1047 C1052 1.353 . S
C1047 N1055 1.423 1_565 S
C1048 H1039 0.930 . S
C1048 C1046 1.378 . S
C1048 C1049 1.367 1_545 S
C1049 C1048 1.367 1_565 S
C1049 C1051 1.433 . S
C1050 C1046 1.356 . S
C1050 C1047 1.468 1_545 S
C1050 N1054 1.417 1_545 S
C1051 H1041 0.929 . S
C1051 C1049 1.433 . S
C1051 N1054 1.384 . S
C1052 H1043 0.929 . S
C1052 C1044 1.378 . S
C1052 C1047 1.353 . S
C1053 H1040 0.929 . S
C1053 C1045 1.433 . S
C1053 N1055 1.384 . S
N1054 C1050 1.417 1_565 S
N1054 C1051 1.384 . S
N1055 C1047 1.423 1_545 S
N1055 C1053 1.384 . S
H1056 C1062 0.930 . S
H1057 C1066 0.930 . S
H1058 C1071 0.929 . S
H1059 C1069 0.929 . S
H1060 C1064 0.929 . S
H1061 C1070 0.929 . S
C1062 H1056 0.930 . S
C1062 C1063 1.367 . S
C1062 C1070 1.378 . S
C1063 C1062 1.367 . S
C1063 C1071 1.433 1_556 S
C1064 H1060 0.929 . S
C1064 C1066 1.378 . S
C1064 C1068 1.350 . S
C1065 C1068 1.463 1_556 S
C1065 C1070 1.350 . S
C1065 N1073 1.427 1_556 S
C1066 H1057 0.930 . S
C1066 C1064 1.378 . S
C1066 C1067 1.367 . S
C1067 C1066 1.367 . S
C1067 C1069 1.433 1_554 S
C1068 C1064 1.350 . S
C1068 C1065 1.463 1_554 S
C1068 N1072 1.427 1_554 S
C1069 H1059 0.929 . S
C1069 C1067 1.433 1_556 S
C1069 N1072 1.384 . S
C1070 H1061 0.929 . S
C1070 C1062 1.378 . S
C1070 C1065 1.350 . S
C1071 H1058 0.929 . S
C1071 C1063 1.433 1_554 S
C1071 N1073 1.384 . S
N1072 C1068 1.427 1_556 S
N1072 C1069 1.384 . S
N1073 C1065 1.427 1_554 S
N1073 C1071 1.384 . S
H1074 C1080 0.930 1_556 S
H1075 C1084 0.930 1_554 S
H1076 C1089 0.929 . S
H1077 C1087 0.929 . S
H1078 C1082 0.929 . S
H1079 C1088 0.929 . S
C1080 H1074 0.930 1_554 S
C1080 C1081 1.367 . S
C1080 C1088 1.378 1_554 S
C1081 C1080 1.367 . S
C1081 C1089 1.433 . S
C1082 H1078 0.929 . S
C1082 C1084 1.378 1_554 S
C1082 C1086 1.350 1_554 S
C1083 C1086 1.463 1_554 S
C1083 C1088 1.350 1_554 S
C1083 N1091 1.427 . S
C1084 H1075 0.930 1_556 S
C1084 C1082 1.378 1_556 S
C1084 C1085 1.367 . S
C1085 C1084 1.367 . S
C1085 C1087 1.433 . S
C1086 C1082 1.350 1_556 S
C1086 C1083 1.463 1_556 S
C1086 N1090 1.427 . S
C1087 H1077 0.929 . S
C1087 C1085 1.433 . S
C1087 N1090 1.384 . S
C1088 H1079 0.929 . S
C1088 C1080 1.378 1_556 S
C1088 C1083 1.350 1_556 S
C1089 H1076 0.929 . S
C1089 C1081 1.433 . S
C1089 N1091 1.384 . S
N1090 C1086 1.427 . S
N1090 C1087 1.384 . S
N1091 C1083 1.427 . S
N1091 C1089 1.384 . S
H1092 C1098 0.930 . S
H1093 C1102 0.930 . S
H1094 C1107 0.929 . S
H1095 C1105 0.929 . S
H1096 C1100 0.929 . S
H1097 C1106 0.929 . S
C1098 H1092 0.930 . S
C1098 C1099 1.367 . S
C1098 C1106 1.378 . S
C1099 C1098 1.367 . S
C1099 C1107 1.433 1_556 S
C1100 H1096 0.929 . S
C1100 C1102 1.378 . S
C1100 C1104 1.350 . S
C1101 C1104 1.463 1_556 S
C1101 C1106 1.350 . S
C1101 N1109 1.427 1_556 S
C1102 H1093 0.930 . S
C1102 C1100 1.378 . S
C1102 C1103 1.367 . S
C1103 C1102 1.367 . S
C1103 C1105 1.433 1_554 S
C1104 C1100 1.350 . S
C1104 C1101 1.463 1_554 S
C1104 N1108 1.427 1_554 S
C1105 H1095 0.929 . S
C1105 C1103 1.433 1_556 S
C1105 N1108 1.384 . S
C1106 H1097 0.929 . S
C1106 C1098 1.378 . S
C1106 C1101 1.350 . S
C1107 H1094 0.929 . S
C1107 C1099 1.433 1_554 S
C1107 N1109 1.384 . S
N1108 C1104 1.427 1_556 S
N1108 C1105 1.384 . S
N1109 C1101 1.427 1_554 S
N1109 C1107 1.384 . S
H1110 C1116 0.930 . S
H1111 C1120 0.930 . S
H1112 C1125 0.929 . S
H1113 C1123 0.929 . S
H1114 C1118 0.929 . S
H1115 C1124 0.929 . S
C1116 H1110 0.930 . S
C1116 C1117 1.367 . S
C1116 C1124 1.378 . S
C1117 C1116 1.367 . S
C1117 C1125 1.433 1_556 S
C1118 H1114 0.929 . S
C1118 C1120 1.378 . S
C1118 C1122 1.350 . S
C1119 C1122 1.463 1_556 S
C1119 C1124 1.350 . S
C1119 N1127 1.427 1_556 S
C1120 H1111 0.930 . S
C1120 C1118 1.378 . S
C1120 C1121 1.367 . S
C1121 C1120 1.367 . S
C1121 C1123 1.433 1_554 S
C1122 C1118 1.350 . S
C1122 C1119 1.463 1_554 S
C1122 N1126 1.427 1_554 S
C1123 H1113 0.929 . S
C1123 C1121 1.433 1_556 S
C1123 N1126 1.384 . S
C1124 H1115 0.929 . S
C1124 C1116 1.378 . S
C1124 C1119 1.350 . S
C1125 H1112 0.929 . S
C1125 C1117 1.433 1_554 S
C1125 N1127 1.384 . S
N1126 C1122 1.427 1_556 S
N1126 C1123 1.384 . S
N1127 C1119 1.427 1_554 S
N1127 C1125 1.384 . S
H1128 C1134 0.930 . S
H1129 C1138 0.930 . S
H1130 C1143 0.929 . S
H1131 C1141 0.929 . S
H1132 C1136 0.929 . S
H1133 C1142 0.929 . S
C1134 H1128 0.930 . S
C1134 C1135 1.367 . S
C1134 C1142 1.378 . S
C1135 C1134 1.367 . S
C1135 C1143 1.433 . S
C1136 H1132 0.929 . S
C1136 C1138 1.378 . S
C1136 C1140 1.350 . S
C1137 C1140 1.463 . S
C1137 C1142 1.350 . S
C1137 N1145 1.427 . S
C1138 H1129 0.930 . S
C1138 C1136 1.378 . S
C1138 C1139 1.367 . S
C1139 C1138 1.367 . S
C1139 C1141 1.433 . S
C1140 C1136 1.350 . S
C1140 C1137 1.463 . S
C1140 N1144 1.427 . S
C1141 H1131 0.929 . S
C1141 C1139 1.433 . S
C1141 N1144 1.384 . S
C1142 H1133 0.929 . S
C1142 C1134 1.378 . S
C1142 C1137 1.350 . S
C1143 H1130 0.929 . S
C1143 C1135 1.433 . S
C1143 N1145 1.384 . S
N1144 C1140 1.427 . S
N1144 C1141 1.384 . S
N1145 C1137 1.427 . S
N1145 C1143 1.384 . S
H1146 C1152 0.930 . S
H1147 C1156 0.930 . S
H1148 C1161 0.929 . S
H1149 C1159 0.929 . S
H1150 C1154 0.929 . S
H1151 C1160 0.929 . S
C1152 H1146 0.930 . S
C1152 C1153 1.367 . S
C1152 C1160 1.378 . S
C1153 C1152 1.367 . S
C1153 C1161 1.433 . S
C1154 H1150 0.929 . S
C1154 C1156 1.378 . S
C1154 C1158 1.350 . S
C1155 C1158 1.463 . S
C1155 C1160 1.350 . S
C1155 N1163 1.427 . S
C1156 H1147 0.930 . S
C1156 C1154 1.378 . S
C1156 C1157 1.367 . S
C1157 C1156 1.367 . S
C1157 C1159 1.433 . S
C1158 C1154 1.350 . S
C1158 C1155 1.463 . S
C1158 N1162 1.427 . S
C1159 H1149 0.929 . S
C1159 C1157 1.433 . S
C1159 N1162 1.384 . S
C1160 H1151 0.929 . S
C1160 C1152 1.378 . S
C1160 C1155 1.350 . S
C1161 H1148 0.929 . S
C1161 C1153 1.433 . S
C1161 N1163 1.384 . S
N1162 C1158 1.427 . S
N1162 C1159 1.384 . S
N1163 C1155 1.427 . S
N1163 C1161 1.384 . S
H1164 C1170 0.930 . S
H1165 C1174 0.930 . S
H1166 C1179 0.929 . S
H1167 C1177 0.929 . S
H1168 C1172 0.929 . S
H1169 C1178 0.929 . S
C1170 H1164 0.930 . S
C1170 C1171 1.367 . S
C1170 C1178 1.378 . S
C1171 C1170 1.367 . S
C1171 C1179 1.433 . S
C1172 H1168 0.929 . S
C1172 C1174 1.378 . S
C1172 C1176 1.350 . S
C1173 C1176 1.463 . S
C1173 C1178 1.350 . S
C1173 N1181 1.427 . S
C1174 H1165 0.930 . S
C1174 C1172 1.378 . S
C1174 C1175 1.367 . S
C1175 C1174 1.367 . S
C1175 C1177 1.433 . S
C1176 C1172 1.350 . S
C1176 C1173 1.463 . S
C1176 N1180 1.427 . S
C1177 H1167 0.929 . S
C1177 C1175 1.433 . S
C1177 N1180 1.384 . S
C1178 H1169 0.929 . S
C1178 C1170 1.378 . S
C1178 C1173 1.350 . S
C1179 H1166 0.929 . S
C1179 C1171 1.433 . S
C1179 N1181 1.384 . S
N1180 C1176 1.427 . S
N1180 C1177 1.384 . S
N1181 C1173 1.427 . S
N1181 C1179 1.384 . S
H1182 C1188 0.930 . S
H1183 C1192 0.930 . S
H1184 C1197 0.929 . S
H1185 C1195 0.929 . S
H1186 C1190 0.929 . S
H1187 C1196 0.929 . S
C1188 H1182 0.930 . S
C1188 C1189 1.367 . S
C1188 C1196 1.378 . S
C1189 C1188 1.367 . S
C1189 C1197 1.433 . S
C1190 H1186 0.929 . S
C1190 C1192 1.378 . S
C1190 C1194 1.350 . S
C1191 C1194 1.463 . S
C1191 C1196 1.350 . S
C1191 N1199 1.427 . S
C1192 H1183 0.930 . S
C1192 C1190 1.378 . S
C1192 C1193 1.367 . S
C1193 C1192 1.367 . S
C1193 C1195 1.433 . S
C1194 C1190 1.350 . S
C1194 C1191 1.463 . S
C1194 N1198 1.427 . S
C1195 H1185 0.929 . S
C1195 C1193 1.433 . S
C1195 N1198 1.384 . S
C1196 H1187 0.929 . S
C1196 C1188 1.378 . S
C1196 C1191 1.350 . S
C1197 H1184 0.929 . S
C1197 C1189 1.433 . S
C1197 N1199 1.384 . S
N1198 C1194 1.427 . S
N1198 C1195 1.384 . S
N1199 C1191 1.427 . S
N1199 C1197 1.384 . S
H1200 C1206 0.930 . S
H1201 C1210 0.930 . S
H1202 C1215 0.929 . S
H1203 C1213 0.929 . S
H1204 C1208 0.929 . S
H1205 C1214 0.929 . S
C1206 H1200 0.930 . S
C1206 C1207 1.367 . S
C1206 C1214 1.378 . S
C1207 C1206 1.367 . S
C1207 C1215 1.433 . S
C1208 H1204 0.929 . S
C1208 C1210 1.378 . S
C1208 C1212 1.350 . S
C1209 C1212 1.463 . S
C1209 C1214 1.350 . S
C1209 N1217 1.427 . S
C1210 H1201 0.930 . S
C1210 C1208 1.378 . S
C1210 C1211 1.367 . S
C1211 C1210 1.367 . S
C1211 C1213 1.433 . S
C1212 C1208 1.350 . S
C1212 C1209 1.463 . S
C1212 N1216 1.427 . S
C1213 H1203 0.929 . S
C1213 C1211 1.433 . S
C1213 N1216 1.384 . S
C1214 H1205 0.929 . S
C1214 C1206 1.378 . S
C1214 C1209 1.350 . S
C1215 H1202 0.929 . S
C1215 C1207 1.433 . S
C1215 N1217 1.384 . S
N1216 C1212 1.427 . S
N1216 C1213 1.384 . S
N1217 C1209 1.427 . S
N1217 C1215 1.384 . S
H1218 C1224 0.930 . S
H1219 C1228 0.930 . S
H1220 C1233 0.929 . S
H1221 C1231 0.929 . S
H1222 C1226 0.929 . S
H1223 C1232 0.929 . S
C1224 H1218 0.930 . S
C1224 C1225 1.367 . S
C1224 C1232 1.378 . S
C1225 C1224 1.367 . S
C1225 C1233 1.433 . S
C1226 H1222 0.929 . S
C1226 C1228 1.378 . S
C1226 C1230 1.350 . S
C1227 C1230 1.463 . S
C1227 C1232 1.350 . S
C1227 N1235 1.427 . S
C1228 H1219 0.930 . S
C1228 C1226 1.378 . S
C1228 C1229 1.367 . S
C1229 C1228 1.367 . S
C1229 C1231 1.433 . S
C1230 C1226 1.350 . S
C1230 C1227 1.463 . S
C1230 N1234 1.427 . S
C1231 H1221 0.929 . S
C1231 C1229 1.433 . S
C1231 N1234 1.384 . S
C1232 H1223 0.929 . S
C1232 C1224 1.378 . S
C1232 C1227 1.350 . S
C1233 H1220 0.929 . S
C1233 C1225 1.433 . S
C1233 N1235 1.384 . S
N1234 C1230 1.427 . S
N1234 C1231 1.384 . S
N1235 C1227 1.427 . S
N1235 C1233 1.384 . S
H1236 C1242 0.930 . S
H1237 C1246 0.930 . S
H1238 C1251 0.929 . S
H1239 C1249 0.929 . S
H1240 C1244 0.929 . S
H1241 C1250 0.929 . S
C1242 H1236 0.930 . S
C1242 C1243 1.367 . S
C1242 C1250 1.378 . S
C1243 C1242 1.367 . S
C1243 C1251 1.433 . S
C1244 H1240 0.929 . S
C1244 C1246 1.378 . S
C1244 C1248 1.350 . S
C1245 C1248 1.463 . S
C1245 C1250 1.350 . S
C1245 N1253 1.427 . S
C1246 H1237 0.930 . S
C1246 C1244 1.378 . S
C1246 C1247 1.367 . S
C1247 C1246 1.367 . S
C1247 C1249 1.433 . S
C1248 C1244 1.350 . S
C1248 C1245 1.463 . S
C1248 N1252 1.427 . S
C1249 H1239 0.929 . S
C1249 C1247 1.433 . S
C1249 N1252 1.384 . S
C1250 H1241 0.929 . S
C1250 C1242 1.378 . S
C1250 C1245 1.350 . S
C1251 H1238 0.929 . S
C1251 C1243 1.433 . S
C1251 N1253 1.384 . S
N1252 C1248 1.427 . S
N1252 C1249 1.384 . S
N1253 C1245 1.427 . S
N1253 C1251 1.384 . S
H1254 C1260 0.930 . S
H1255 C1264 0.930 . S
H1256 C1269 0.929 . S
H1257 C1267 0.929 . S
H1258 C1262 0.929 . S
H1259 C1268 0.929 . S
C1260 H1254 0.930 . S
C1260 C1261 1.367 . S
C1260 C1268 1.378 . S
C1261 C1260 1.367 . S
C1261 C1269 1.433 . S
C1262 H1258 0.929 . S
C1262 C1264 1.378 . S
C1262 C1266 1.350 . S
C1263 C1266 1.463 . S
C1263 C1268 1.350 . S
C1263 N1271 1.427 . S
C1264 H1255 0.930 . S
C1264 C1262 1.378 . S
C1264 C1265 1.367 . S
C1265 C1264 1.367 . S
C1265 C1267 1.433 . S
C1266 C1262 1.350 . S
C1266 C1263 1.463 . S
C1266 N1270 1.427 . S
C1267 H1257 0.929 . S
C1267 C1265 1.433 . S
C1267 N1270 1.384 . S
C1268 H1259 0.929 . S
C1268 C1260 1.378 . S
C1268 C1263 1.350 . S
C1269 H1256 0.929 . S
C1269 C1261 1.433 . S
C1269 N1271 1.384 . S
N1270 C1266 1.427 . S
N1270 C1267 1.384 . S
N1271 C1263 1.427 . S
N1271 C1269 1.384 . S
H1272 C1278 0.930 . S
H1273 C1282 0.930 . S
H1274 C1287 0.929 . S
H1275 C1285 0.929 . S
H1276 C1280 0.929 . S
H1277 C1286 0.929 . S
C1278 H1272 0.930 . S
C1278 C1279 1.367 . S
C1278 C1286 1.378 . S
C1279 C1278 1.367 . S
C1279 C1287 1.433 . S
C1280 H1276 0.929 . S
C1280 C1282 1.378 . S
C1280 C1284 1.350 . S
C1281 C1284 1.463 . S
C1281 C1286 1.350 . S
C1281 N1289 1.427 . S
C1282 H1273 0.930 . S
C1282 C1280 1.378 . S
C1282 C1283 1.367 . S
C1283 C1282 1.367 . S
C1283 C1285 1.433 . S
C1284 C1280 1.350 . S
C1284 C1281 1.463 . S
C1284 N1288 1.427 . S
C1285 H1275 0.929 . S
C1285 C1283 1.433 . S
C1285 N1288 1.384 . S
C1286 H1277 0.929 . S
C1286 C1278 1.378 . S
C1286 C1281 1.350 . S
C1287 H1274 0.929 . S
C1287 C1279 1.433 . S
C1287 N1289 1.384 . S
N1288 C1284 1.427 . S
N1288 C1285 1.384 . S
N1289 C1281 1.427 . S
N1289 C1287 1.384 . S
H1290 C1296 0.930 . S
H1291 C1300 0.930 . S
H1292 C1305 0.929 . S
H1293 C1303 0.929 . S
H1294 C1298 0.929 . S
H1295 C1304 0.929 . S
C1296 H1290 0.930 . S
C1296 C1297 1.367 . S
C1296 C1304 1.378 . S
C1297 C1296 1.367 . S
C1297 C1305 1.433 . S
C1298 H1294 0.929 . S
C1298 C1300 1.378 . S
C1298 C1302 1.350 . S
C1299 C1302 1.463 . S
C1299 C1304 1.350 . S
C1299 N1307 1.427 . S
C1300 H1291 0.930 . S
C1300 C1298 1.378 . S
C1300 C1301 1.367 . S
C1301 C1300 1.367 . S
C1301 C1303 1.433 . S
C1302 C1298 1.350 . S
C1302 C1299 1.463 . S
C1302 N1306 1.427 . S
C1303 H1293 0.929 . S
C1303 C1301 1.433 . S
C1303 N1306 1.384 . S
C1304 H1295 0.929 . S
C1304 C1296 1.378 . S
C1304 C1299 1.350 . S
C1305 H1292 0.929 . S
C1305 C1297 1.433 . S
C1305 N1307 1.384 . S
N1306 C1302 1.427 . S
N1306 C1303 1.384 . S
N1307 C1299 1.427 . S
N1307 C1305 1.384 . S
H1308 C1314 0.930 . S
H1309 C1318 0.930 . S
H1310 C1323 0.929 . S
H1311 C1321 0.929 . S
H1312 C1316 0.929 . S
H1313 C1322 0.929 . S
C1314 H1308 0.930 . S
C1314 C1315 1.367 . S
C1314 C1322 1.378 . S
C1315 C1314 1.367 . S
C1315 C1323 1.433 . S
C1316 H1312 0.929 . S
C1316 C1318 1.378 . S
C1316 C1320 1.350 . S
C1317 C1320 1.463 . S
C1317 C1322 1.350 . S
C1317 N1325 1.427 . S
C1318 H1309 0.930 . S
C1318 C1316 1.378 . S
C1318 C1319 1.367 . S
C1319 C1318 1.367 . S
C1319 C1321 1.433 . S
C1320 C1316 1.350 . S
C1320 C1317 1.463 . S
C1320 N1324 1.427 . S
C1321 H1311 0.929 . S
C1321 C1319 1.433 . S
C1321 N1324 1.384 . S
C1322 H1313 0.929 . S
C1322 C1314 1.378 . S
C1322 C1317 1.350 . S
C1323 H1310 0.929 . S
C1323 C1315 1.433 . S
C1323 N1325 1.384 . S
N1324 C1320 1.427 . S
N1324 C1321 1.384 . S
N1325 C1317 1.427 . S
N1325 C1323 1.384 . S
H1326 C1332 0.930 . S
H1327 C1336 0.930 . S
H1328 C1341 0.929 . S
H1329 C1339 0.929 . S
H1330 C1334 0.929 . S
H1331 C1340 0.929 . S
C1332 H1326 0.930 . S
C1332 C1333 1.367 . S
C1332 C1340 1.378 . S
C1333 C1332 1.367 . S
C1333 C1341 1.433 . S
C1334 H1330 0.929 . S
C1334 C1336 1.378 . S
C1334 C1338 1.350 . S
C1335 C1338 1.463 . S
C1335 C1340 1.350 . S
C1335 N1343 1.427 . S
C1336 H1327 0.930 . S
C1336 C1334 1.378 . S
C1336 C1337 1.367 . S
C1337 C1336 1.367 . S
C1337 C1339 1.433 . S
C1338 C1334 1.350 . S
C1338 C1335 1.463 . S
C1338 N1342 1.427 . S
C1339 H1329 0.929 . S
C1339 C1337 1.433 . S
C1339 N1342 1.384 . S
C1340 H1331 0.929 . S
C1340 C1332 1.378 . S
C1340 C1335 1.350 . S
C1341 H1328 0.929 . S
C1341 C1333 1.433 . S
C1341 N1343 1.384 . S
N1342 C1338 1.427 . S
N1342 C1339 1.384 . S
N1343 C1335 1.427 . S
N1343 C1341 1.384 . S
C919 C31 1.462 1_455 S
C923 C341 1.458 1_655 S
C937 C73 1.656 . S
C941 C612 1.655 . S
C955 C98 1.657 . S
C959 C243 1.658 . S
C973 C542 1.465 1_565 S
C977 C1 1.461 1_545 S
C991 C113 1.463 1_655 S
C995 C259 1.467 1_455 S
C1009 C156 1.655 . S
C1013 C529 1.655 . S
C1027 C326 1.657 . S
C1031 C15 1.657 . S
C1045 C457 1.463 1_545 S
C1049 C86 1.467 1_565 S
C1063 C827 1.483 1_556 S
C1067 C58 1.479 1_554 S
C1081 C810 1.635 . S
C1085 C45 1.635 . S
C1099 C729 1.655 . S
C1103 C126 1.655 . S
C1117 C143 1.477 1_556 S
C1121 C742 1.482 1_554 S
C1135 C840 1.655 . S
C1139 C301 1.661 . S
C1153 C229 1.482 . S
C1157 C770 1.482 . S
C1171 C384 1.656 . S
C1175 C757 1.650 . S
C1189 C685 1.462 . S
C1193 C314 1.462 . S
C1207 C599 1.465 . S
C1211 C286 1.465 . S
C1225 C273 1.637 . S
C1229 C582 1.631 . S
C1243 C354 1.636 . S
C1247 C501 1.641 . S
C1261 C514 1.465 . S
C1265 C371 1.465 . S
C1279 C797 1.478 . S
C1283 C487 1.478 . S
C1297 C554 1.656 . S
C1301 C699 1.661 . S
C1315 C715 1.478 . S
C1319 C569 1.479 . S
C1333 C471 1.636 . S
C1337 C782 1.630 . S
