# Generated by pormake.
# Topology wme, (6)-cn, num edge types: 1
# Building blocks:
#     Node 0, Type 0, BuildingBlock: FUNLAD_clean_sbu_0, # of connection points: 6
#     Node 1, Type 0, BuildingBlock: FUNLAD_clean_sbu_0, # of connection points: 6
#     Node 2, Type 0, BuildingBlock: FUNLAD_clean_sbu_0, # of connection points: 6
#     Node 3, Type 0, BuildingBlock: FUNLAD_clean_sbu_0, # of connection points: 6
#     Node 4, Type 0, BuildingBlock: FUNLAD_clean_sbu_0, # of connection points: 6
#     Node 5, Type 0, BuildingBlock: FUNLAD_clean_sbu_0, # of connection points: 6
#     Node 6, Type 0, BuildingBlock: FUNLAD_clean_sbu_0, # of connection points: 6
#     Node 7, Type 0, BuildingBlock: FUNLAD_clean_sbu_0, # of connection points: 6
#     Node 8, Type 0, BuildingBlock: FUNLAD_clean_sbu_0, # of connection points: 6
#     Node 9, Type 0, BuildingBlock: FUNLAD_clean_sbu_0, # of connection points: 6
#     Node 10, Type 0, BuildingBlock: FUNLAD_clean_sbu_0, # of connection points: 6
#     Node 11, Type 0, BuildingBlock: FUNLAD_clean_sbu_0, # of connection points: 6
#     Edge 12, Type (0, 0), BuildingBlock: UVAHIK_clean_linker_0, # of connection points: 2
#     Edge 13, Type (0, 0), BuildingBlock: UVAHIK_clean_linker_0, # of connection points: 2
#     Edge 14, Type (0, 0), BuildingBlock: UVAHIK_clean_linker_0, # of connection points: 2
#     Edge 15, Type (0, 0), BuildingBlock: UVAHIK_clean_linker_0, # of connection points: 2
#     Edge 16, Type (0, 0), BuildingBlock: UVAHIK_clean_linker_0, # of connection points: 2
#     Edge 17, Type (0, 0), BuildingBlock: UVAHIK_clean_linker_0, # of connection points: 2
#     Edge 18, Type (0, 0), BuildingBlock: UVAHIK_clean_linker_0, # of connection points: 2
#     Edge 19, Type (0, 0), BuildingBlock: UVAHIK_clean_linker_0, # of connection points: 2
#     Edge 20, Type (0, 0), BuildingBlock: UVAHIK_clean_linker_0, # of connection points: 2
#     Edge 21, Type (0, 0), BuildingBlock: UVAHIK_clean_linker_0, # of connection points: 2
#     Edge 22, Type (0, 0), BuildingBlock: UVAHIK_clean_linker_0, # of connection points: 2
#     Edge 23, Type (0, 0), BuildingBlock: UVAHIK_clean_linker_0, # of connection points: 2
#     Edge 24, Type (0, 0), BuildingBlock: UVAHIK_clean_linker_0, # of connection points: 2
#     Edge 25, Type (0, 0), BuildingBlock: UVAHIK_clean_linker_0, # of connection points: 2
#     Edge 26, Type (0, 0), BuildingBlock: UVAHIK_clean_linker_0, # of connection points: 2
#     Edge 27, Type (0, 0), BuildingBlock: UVAHIK_clean_linker_0, # of connection points: 2
#     Edge 28, Type (0, 0), BuildingBlock: UVAHIK_clean_linker_0, # of connection points: 2
#     Edge 29, Type (0, 0), BuildingBlock: UVAHIK_clean_linker_0, # of connection points: 2
#     Edge 30, Type (0, 0), BuildingBlock: UVAHIK_clean_linker_0, # of connection points: 2
#     Edge 31, Type (0, 0), BuildingBlock: UVAHIK_clean_linker_0, # of connection points: 2
#     Edge 32, Type (0, 0), BuildingBlock: UVAHIK_clean_linker_0, # of connection points: 2
#     Edge 33, Type (0, 0), BuildingBlock: UVAHIK_clean_linker_0, # of connection points: 2
#     Edge 34, Type (0, 0), BuildingBlock: UVAHIK_clean_linker_0, # of connection points: 2
#     Edge 35, Type (0, 0), BuildingBlock: UVAHIK_clean_linker_0, # of connection points: 2
#     Edge 36, Type (0, 0), BuildingBlock: UVAHIK_clean_linker_0, # of connection points: 2
#     Edge 37, Type (0, 0), BuildingBlock: UVAHIK_clean_linker_0, # of connection points: 2
#     Edge 38, Type (0, 0), BuildingBlock: UVAHIK_clean_linker_0, # of connection points: 2
#     Edge 39, Type (0, 0), BuildingBlock: UVAHIK_clean_linker_0, # of connection points: 2
#     Edge 40, Type (0, 0), BuildingBlock: UVAHIK_clean_linker_0, # of connection points: 2
#     Edge 41, Type (0, 0), BuildingBlock: UVAHIK_clean_linker_0, # of connection points: 2
#     Edge 42, Type (0, 0), BuildingBlock: UVAHIK_clean_linker_0, # of connection points: 2
#     Edge 43, Type (0, 0), BuildingBlock: UVAHIK_clean_linker_0, # of connection points: 2
#     Edge 44, Type (0, 0), BuildingBlock: UVAHIK_clean_linker_0, # of connection points: 2
#     Edge 45, Type (0, 0), BuildingBlock: UVAHIK_clean_linker_0, # of connection points: 2
#     Edge 46, Type (0, 0), BuildingBlock: UVAHIK_clean_linker_0, # of connection points: 2
#     Edge 47, Type (0, 0), BuildingBlock: UVAHIK_clean_linker_0, # of connection points: 2
# Relax obj value: 0.183
# Max RMSD: 0.207
# Mean RMSD: 0.207
data_MOF--net-wme--node1-FUNLAD_clean_sbu_0--edge1-UVAHIK_clean_linker_0
_symmetry_space_group_name_H-M    P1
_symmetry_Int_Tables_number       1
_symmetry_cell_setting            triclinic
loop_
_symmetry_equiv_pos_as_xyz
'x, y, z'
_cell_length_a     35.947274
_cell_length_b     36.013806
_cell_length_c     102.4533
_cell_angle_alpha  89.938836
_cell_angle_beta   89.987662
_cell_angle_gamma 119.8505
loop_
_atom_site_label
_atom_site_type_symbol
_atom_site_fract_x
_atom_site_fract_y
_atom_site_fract_z
_atom_type_partial_charge
C0 C 0.27904 0.26486 0.13945 0.0
N1 N 0.26325 0.32371 0.10608 0.0
C2 C 0.2964 0.31924 0.10153 0.0
C3 C 0.30164 0.31612 0.08816 0.0
C4 C 0.27305 0.31857 0.07937 0.0
C5 C 0.23976 0.32422 0.08425 0.0
C6 C 0.23513 0.32628 0.09773 0.0
Zn7 Zn 0.25508 0.32473 0.12585 0.0
C8 C 0.1694 0.25865 0.13442 0.0
N9 N 0.23892 0.32281 0.16725 0.0
C10 C 0.26826 0.32766 0.17648 0.0
C11 C 0.2 0.3175 0.17072 0.0
C12 C 0.18915 0.31669 0.18379 0.0
C13 C 0.21846 0.3213 0.19356 0.0
C14 C 0.25867 0.32712 0.18978 0.0
Zn15 Zn 0.2498 0.32301 0.14753 0.0
O16 O 0.27353 0.27777 0.12845 0.0
C17 C 0.33449 0.39135 0.13885 0.0
O18 O 0.27351 0.28074 0.14985 0.0
H19 H 0.17706 0.31396 0.16331 0.0
H20 H 0.31867 0.31768 0.1083 0.0
H21 H 0.29902 0.33185 0.17354 0.0
O22 O 0.31882 0.37411 0.1279 0.0
O23 O 0.31213 0.37643 0.14917 0.0
H24 H 0.20878 0.32945 0.10153 0.0
O25 O 0.22445 0.36384 0.14489 0.0
O26 O 0.23501 0.37067 0.12371 0.0
O27 O 0.18772 0.27054 0.14543 0.0
O28 O 0.19049 0.27606 0.1241 0.0
C29 C 0.22125 0.3791 0.13406 0.0
H30 H 0.32789 0.31209 0.0847 0.0
H31 H 0.21697 0.32597 0.07772 0.0
H32 H 0.15816 0.31303 0.1862 0.0
H33 H 0.28218 0.33063 0.19701 0.0
C34 C 3e-05 0.2706 0.63974 0.0
N35 N 0.92871 0.25796 0.60581 0.0
C36 C 0.96699 0.28979 0.60125 0.0
C37 C 0.97547 0.29457 0.58786 0.0
C38 C 0.94395 0.26693 0.57907 0.0
C39 C 0.90446 0.23486 0.58398 0.0
C40 C 0.89763 0.23063 0.59747 0.0
Zn41 Zn 0.91873 0.25124 0.62563 0.0
C42 C 0.89251 0.16495 0.63502 0.0
N43 N 0.90171 0.23958 0.66715 0.0
C44 C 0.92833 0.26773 0.67628 0.0
C45 C 0.86572 0.20287 0.67075 0.0
C46 C 0.85561 0.19289 0.68387 0.0
C47 C 0.88262 0.22087 0.69354 0.0
C48 C 0.91923 0.25903 0.68962 0.0
Zn49 Zn 0.91325 0.24855 0.64739 0.0
O50 O 0.98307 0.26687 0.62858 0.0
C51 C 0.93606 0.33401 0.63793 0.0
O52 O 0.97798 0.26589 0.64995 0.0
H53 H 0.8447 0.18089 0.66342 0.0
H54 H -0.00886 0.31151 0.608 0.0
H55 H 0.95678 0.29672 0.67322 0.0
O56 O 0.93552 0.31619 0.62716 0.0
O57 O 0.92844 0.31292 0.64851 0.0
H58 H 0.86754 0.20533 0.60127 0.0
O59 O 0.84836 0.23014 0.64449 0.0
O60 O 0.8538 0.23388 0.62316 0.0
O61 O 0.89729 0.18409 0.6458 0.0
O62 O 0.90027 0.18585 0.62442 0.0
C63 C 0.83096 0.22536 0.63337 0.0
H64 H 0.00619 0.31991 0.5844 0.0
H65 H 0.87951 0.21281 0.57746 0.0
H66 H 0.82663 0.16355 0.68642 0.0
H67 H 0.94099 0.28143 0.69676 0.0
C68 C 0.72254 0.00753 0.1404 0.0
N69 N 0.66116 0.93606 0.10694 0.0
C70 C 0.66779 0.97443 0.10238 0.0
C71 C 0.67186 0.98306 0.08901 0.0
C72 C 0.66819 0.95163 0.0802 0.0
C73 C 0.66031 0.91194 0.0851 0.0
C74 C 0.6573 0.90493 0.09859 0.0
Zn75 Zn 0.65872 0.92653 0.12677 0.0
C76 C 0.71773 0.89824 0.13584 0.0
N77 N 0.65576 0.91125 0.16833 0.0
C78 C 0.6579 0.93969 0.17746 0.0
C79 C 0.65388 0.87396 0.17192 0.0
C80 C 0.65466 0.86422 0.18503 0.0
C81 C 0.65771 0.89314 0.1947 0.0
C82 C 0.65884 0.93118 0.19079 0.0
Zn83 Zn 0.6573 0.92215 0.14856 0.0
O84 O 0.70793 0.99025 0.12938 0.0
C85 C 0.59612 0.94748 0.13944 0.0
O86 O 0.70647 0.98607 0.15078 0.0
H87 H 0.65224 0.85165 0.16458 0.0
H88 H 0.67032 -0.00138 0.10913 0.0
H89 H 0.65949 0.96922 0.17442 0.0
O90 O 0.61187 0.945 0.12857 0.0
O91 O 0.61005 0.94018 0.14999 0.0
H92 H 0.65233 0.87476 0.10238 0.0
O93 O 0.60875 0.85811 0.14597 0.0
O94 O 0.61018 0.86212 0.1246 0.0
O95 O 0.70389 0.90336 0.14669 0.0
O96 O 0.70475 0.90666 0.12531 0.0
C97 C 0.59534 0.84025 0.13497 0.0
H98 H 0.67753 0.01391 0.08556 0.0
H99 H 0.65754 0.88703 0.07858 0.0
H100 H 0.65281 0.83412 0.18754 0.0
H101 H 0.66141 0.95451 0.19792 0.0
C102 C 0.70255 0.71946 0.64155 0.0
N103 N 0.71901 0.66346 0.60771 0.0
C104 C 0.68649 0.66888 0.6031 0.0
C105 C 0.68222 0.67322 0.58974 0.0
C106 C 0.71106 0.67097 0.58101 0.0
C107 C 0.74379 0.66451 0.58595 0.0
C108 C 0.7475 0.66128 0.59943 0.0
Zn109 Zn 0.7249 0.65944 0.6275 0.0
C110 C 0.81019 0.72077 0.63739 0.0
N111 N 0.73434 0.65278 0.66897 0.0
C112 C 0.70594 0.65126 0.67805 0.0
C113 C 0.77036 0.65197 0.6726 0.0
C114 C 0.77887 0.64919 0.6857 0.0
C115 C 0.75023 0.64738 0.6953 0.0
C116 C 0.71343 0.64874 0.69138 0.0
Zn117 Zn 0.72643 0.65651 0.64925 0.0
O118 O 0.70677 0.70613 0.63048 0.0
C119 C 0.64202 0.5931 0.63944 0.0
O120 O 0.70826 0.70331 0.65187 0.0
H121 H 0.79288 0.65364 0.66531 0.0
H122 H 0.66385 0.67002 0.6098 0.0
H123 H 0.67753 0.65199 0.67497 0.0
O124 O 0.66038 0.61 0.62869 0.0
O125 O 0.66236 0.60737 0.65009 0.0
H126 H 0.7733 0.65727 0.60327 0.0
O127 O 0.7456 0.61038 0.64629 0.0
O128 O 0.74434 0.61355 0.62495 0.0
O129 O 0.79049 0.70513 0.64803 0.0
O130 O 0.79009 0.70802 0.62665 0.0
C131 C 0.75182 0.59862 0.63522 0.0
H132 H 0.65636 0.67782 0.58623 0.0
H133 H 0.76672 0.66284 0.57946 0.0
H134 H 0.80806 0.64913 0.68828 0.0
H135 H 0.6905 0.64734 0.6985 0.0
C136 C 0.98086 0.7127 0.1402 0.0
N137 N 0.05409 0.72565 0.10681 0.0
C138 C 0.016 0.69387 0.10215 0.0
C139 C 0.00786 0.68957 0.08876 0.0
C140 C 0.03954 0.71763 0.08006 0.0
C141 C 0.07891 0.74954 0.08506 0.0
C142 C 0.0854 0.75329 0.09856 0.0
Zn143 Zn 0.06301 0.73184 0.12663 0.0
C144 C 0.08928 0.81809 0.13613 0.0
N145 N 0.07708 0.7421 0.16816 0.0
C146 C 0.04987 0.71367 0.17715 0.0
C147 C 0.11303 0.77854 0.17192 0.0
C148 C 0.12246 0.788 0.18508 0.0
C149 C 0.09485 0.75973 0.1946 0.0
C150 C 0.05832 0.72183 0.19053 0.0
Zn151 Zn 0.06671 0.73383 0.14839 0.0
O152 O -0.00126 0.71643 0.1292 0.0
C153 C 0.0437 0.64849 0.13899 0.0
O154 O 0.00201 0.7174 0.1506 0.0
H155 H 0.13456 0.80067 0.16469 0.0
H156 H -0.00832 0.6719 0.10883 0.0
H157 H 0.0215 0.68489 0.17397 0.0
O158 O 0.04552 0.66652 0.12814 0.0
O159 O 0.0506 0.66948 0.14955 0.0
H160 H 0.11535 0.7785 0.10244 0.0
O161 O 0.13157 0.75129 0.14586 0.0
O162 O 0.1278 0.74872 0.1245 0.0
O163 O 0.08361 0.79828 0.14684 0.0
O164 O 0.08204 0.79773 0.12545 0.0
C165 C 0.14975 0.75632 0.13487 0.0
H166 H 0.97724 0.66433 0.08522 0.0
H167 H 0.10399 0.77187 0.0786 0.0
H168 H 0.15139 0.81716 0.18777 0.0
H169 H 0.03617 0.69922 0.19758 0.0
C170 C 0.26002 0.97904 0.64076 0.0
N171 N 0.31908 0.04954 0.60683 0.0
C172 C 0.31133 0.01095 0.6022 0.0
C173 C 0.3073 0.00271 0.58883 0.0
C174 C 0.3121 0.03473 0.57999 0.0
C175 C 0.32046 0.07446 0.58507 0.0
C176 C 0.32352 0.08109 0.59856 0.0
Zn177 Zn 0.32418 0.05918 0.62662 0.0
C178 C 0.26901 0.09029 0.63695 0.0
N179 N 0.33389 0.07433 0.66812 0.0
C180 C 0.33218 0.0457 0.67713 0.0
C181 C 0.33828 0.11258 0.67185 0.0
C182 C 0.34126 0.12343 0.68498 0.0
C183 C 0.3396 0.09471 0.69453 0.0
C184 C 0.33482 0.05524 0.69048 0.0
Zn185 Zn 0.32889 0.06296 0.64836 0.0
O186 O 0.27339 -0.00384 0.62963 0.0
C187 C 0.38634 0.03487 0.63804 0.0
O188 O 0.27849 5e-05 0.651 0.0
H189 H 0.33908 0.13484 0.66462 0.0
H190 H 0.30811 0.98631 0.60891 0.0
H191 H 0.32857 0.01543 0.67397 0.0
O192 O 0.36961 0.03833 0.6275 0.0
O193 O 0.37427 0.04248 0.64889 0.0
H194 H 0.32966 0.11156 0.60243 0.0
O195 O 0.3787 0.12595 0.6454 0.0
O196 O 0.37424 0.12286 0.62406 0.0
O197 O 0.28404 0.08421 0.64744 0.0
O198 O 0.27975 0.08147 0.62608 0.0
C199 C 0.3912 0.14406 0.63438 0.0
H200 H 0.3 0.97128 0.5855 0.0
H201 H 0.32511 0.10045 0.57871 0.0
H202 H 0.34399 0.15379 0.68764 0.0
H203 H 0.33349 0.03222 0.69755 0.0
C204 C 0.71993 0.70869 0.38299 0.0
N205 N 0.66042 0.72556 0.41605 0.0
C206 C 0.66375 0.69193 0.42069 0.0
C207 C 0.66621 0.6865 0.43409 0.0
C208 C 0.66436 0.71544 0.44292 0.0
C209 C 0.65986 0.74931 0.43782 0.0
C210 C 0.65839 0.75402 0.42432 0.0
Zn211 Zn 0.66049 0.73404 0.39625 0.0
C212 C 0.72867 0.81928 0.38794 0.0
N213 N 0.66492 0.75134 0.35485 0.0
C214 C 0.65927 0.72152 0.34572 0.0
C215 C 0.67114 0.79043 0.35125 0.0
C216 C 0.67186 0.80087 0.33813 0.0
C217 C 0.66626 0.77097 0.32846 0.0
C218 C 0.65977 0.7307 0.33239 0.0
Zn219 Zn 0.66379 0.7403 0.37459 0.0
O220 O 0.70654 0.71406 0.39392 0.0
C221 C 0.59292 0.65625 0.38295 0.0
O222 O 0.705 0.71509 0.37251 0.0
H223 H 0.67532 0.81375 0.35859 0.0
H224 H 0.66515 0.66951 0.41398 0.0
H225 H 0.65435 0.69063 0.34877 0.0
O226 O 0.60968 0.67093 0.39404 0.0
O227 O 0.60932 0.67888 0.37277 0.0
H228 H 0.65592 0.78066 0.42046 0.0
O229 O 0.62411 0.76729 0.37703 0.0
O230 O 0.61571 0.75574 0.39814 0.0
O231 O 0.71715 0.80146 0.37686 0.0
O232 O 0.71035 0.79801 0.39816 0.0
C233 C 0.6085 0.77049 0.38779 0.0
H234 H 0.67045 0.66033 0.43743 0.0
H235 H 0.65741 0.77203 0.44415 0.0
H236 H 0.67609 0.83196 0.33562 0.0
H237 H 0.65557 0.70675 0.32526 0.0
C238 C 0.00818 0.72415 0.88165 0.0
N239 N 0.93475 0.66436 0.91507 0.0
C240 C 0.97262 0.66981 0.91969 0.0
C241 C 0.98079 0.67311 0.93307 0.0
C242 C 0.94937 0.66987 0.94192 0.0
C243 C 0.91019 0.66343 0.93685 0.0
C244 C 0.9037 0.66115 0.92335 0.0
Zn245 Zn 0.9257 0.66207 0.89525 0.0
C246 C 0.9007 0.72296 0.8858 0.0
N247 N 0.91171 0.65879 0.85374 0.0
C248 C 0.93885 0.65806 0.8446 0.0
C249 C 0.87542 0.65915 0.85016 0.0
C250 C 0.86547 0.65942 0.83706 0.0
C251 C 0.89301 0.65931 0.82739 0.0
C252 C 0.92996 0.65814 0.83127 0.0
Zn253 Zn 0.92241 0.6605 0.87348 0.0
O254 O 0.99027 0.71002 0.89265 0.0
C255 C 0.94464 0.59763 0.88283 0.0
O256 O 0.98697 0.70815 0.87124 0.0
H257 H 0.85399 0.65948 0.8575 0.0
H258 H -0.00314 0.67206 0.91297 0.0
H259 H 0.96753 0.65778 0.84764 0.0
O260 O 0.94224 0.61357 0.89366 0.0
O261 O 0.93856 0.61228 0.87224 0.0
H262 H 0.87381 0.65689 0.9195 0.0
O263 O 0.85746 0.6134 0.87604 0.0
O264 O 0.86058 0.615 0.89741 0.0
O265 O 0.90582 0.70832 0.87512 0.0
O266 O 0.90769 0.70968 0.89651 0.0
C267 C 0.83894 0.60052 0.887 0.0
H268 H 0.01181 0.67888 0.93638 0.0
H269 H 0.88458 0.65992 0.9432 0.0
H270 H 0.83621 0.65942 0.83454 0.0
H271 H 0.95208 0.65812 0.8241 0.0
C272 C 0.266 -0.00109 0.38126 0.0
N273 N 0.25985 0.93009 0.41509 0.0
C274 C 0.28957 0.9693 0.41965 0.0
C275 C 0.29342 0.97783 0.43302 0.0
C276 C 0.26702 0.94547 0.4418 0.0
C277 C 0.23715 0.90506 0.4369 0.0
C278 C 0.23379 0.89812 0.42342 0.0
Zn279 Zn 0.2546 0.92023 0.39532 0.0
C280 C 0.16689 0.8857 0.38555 0.0
N281 N 0.24652 0.90432 0.35385 0.0
C282 C 0.27256 0.93338 0.3448 0.0
C283 C 0.21339 0.86559 0.35017 0.0
C284 C 0.20533 0.85475 0.33704 0.0
C285 C 0.23147 0.88393 0.32745 0.0
C286 C 0.26548 0.92383 0.33146 0.0
Zn287 Zn 0.25362 0.91588 0.37358 0.0
O288 O 0.26411 0.9824 0.39238 0.0
C289 C 0.34058 0.94692 0.38319 0.0
O290 O 0.26335 0.97791 0.37101 0.0
H291 H 0.19271 0.84295 0.35744 0.0
H292 H 0.31032 -0.00585 0.4129 0.0
H293 H 0.29869 0.96399 0.34793 0.0
O294 O 0.32154 0.94331 0.39399 0.0
O295 O 0.31956 0.9385 0.37259 0.0
H296 H 0.21021 0.86726 0.41961 0.0
O297 O 0.24326 0.85384 0.37647 0.0
O298 O 0.24364 0.85744 0.39782 0.0
O299 O 0.18737 0.8923 0.37492 0.0
O300 O 0.18729 0.89557 0.39628 0.0
C301 C 0.23934 0.83624 0.38749 0.0
H302 H 0.31713 0.00927 0.43647 0.0
H303 H 0.21609 0.87941 0.44341 0.0
H304 H 0.17822 0.82402 0.33443 0.0
H305 H 0.28653 0.94721 0.32437 0.0
C306 C 0.26254 0.27714 0.8804 0.0
N307 N 0.32149 0.26465 0.91425 0.0
C308 C 0.31579 0.29698 0.91877 0.0
C309 C 0.31263 0.3022 0.93214 0.0
C310 C 0.31623 0.27445 0.94107 0.0
C311 C 0.3228 0.24174 0.9361 0.0
C312 C 0.32493 0.23716 0.92262 0.0
Zn313 Zn 0.32412 0.25728 0.89449 0.0
C314 C 0.26323 0.17092 0.88552 0.0
N315 N 0.32842 0.24409 0.85309 0.0
C316 C 0.33029 0.27225 0.84388 0.0
C317 C 0.32697 0.20691 0.84962 0.0
C318 C 0.32671 0.19647 0.83654 0.0
C319 C 0.32805 0.22447 0.82679 0.0
C320 C 0.33034 0.2631 0.83057 0.0
Zn321 Zn 0.32645 0.25374 0.87278 0.0
O322 O 0.27591 0.27364 0.89156 0.0
C323 C 0.38991 0.33921 0.88191 0.0
O324 O 0.27953 0.27183 0.8702 0.0
H325 H 0.32578 0.18495 0.85702 0.0
H326 H 0.31332 0.31865 0.91198 0.0
H327 H 0.33141 0.30162 0.84684 0.0
O328 O 0.3726 0.32184 0.89273 0.0
O329 O 0.37615 0.31787 0.8714 0.0
H330 H 0.32932 0.21156 0.91886 0.0
O331 O 0.37244 0.23458 0.87568 0.0
O332 O 0.37121 0.23917 0.89698 0.0
O333 O 0.27749 0.18951 0.87464 0.0
O334 O 0.27679 0.19227 0.896 0.0
C335 C 0.38515 0.23002 0.88681 0.0
H336 H 0.30675 0.32741 0.93538 0.0
H337 H 0.32661 0.21996 0.94251 0.0
H338 H 0.32578 0.16677 0.83409 0.0
H339 H 0.33132 0.28553 0.82334 0.0
C340 C 0.97145 0.26292 0.38046 0.0
N341 N 0.04579 0.32258 0.4137 0.0
C342 C 0.00799 0.31697 0.41847 0.0
C343 C 0.00013 0.31347 0.43188 0.0
C344 C 0.03177 0.31668 0.44062 0.0
C345 C 0.07086 0.32329 0.43541 0.0
C346 C 0.07705 0.32577 0.42188 0.0
Zn347 Zn 0.05436 0.32507 0.39383 0.0
C348 C 0.07918 0.26403 0.38421 0.0
N349 N 0.06714 0.32837 0.35221 0.0
C350 C 0.03924 0.32826 0.3432 0.0
C351 C 0.10429 0.33004 0.34847 0.0
C352 C 0.11495 0.33223 0.33533 0.0
C353 C 0.08711 0.33246 0.32579 0.0
C354 C 0.04857 0.33007 0.32983 0.0
Zn355 Zn 0.0568 0.32612 0.37201 0.0
O356 O 0.98975 0.27727 0.39138 0.0
C357 C 0.03464 0.38896 0.38156 0.0
O358 O -0.00762 0.27834 0.36995 0.0
H359 H 0.12595 0.32962 0.3557 0.0
H360 H 0.98355 0.31473 0.41184 0.0
H361 H 0.00986 0.32685 0.34636 0.0
O362 O 0.03768 0.37333 0.39238 0.0
O363 O 0.04018 0.3741 0.37094 0.0
H364 H 0.10688 0.33016 0.41793 0.0
O365 O 0.12146 0.37358 0.37442 0.0
O366 O 0.1196 0.37241 0.3958 0.0
O367 O 0.07396 0.27856 0.3735 0.0
O368 O 0.07235 0.27748 0.3949 0.0
C369 C 0.14053 0.38696 0.38526 0.0
H370 H 0.96915 0.30757 0.43529 0.0
H371 H 0.09665 0.32679 0.44167 0.0
H372 H 0.14456 0.33315 0.33266 0.0
H373 H 0.02625 0.33021 0.32276 0.0
C374 C 0.71083 0.98321 0.88118 0.0
N375 N 0.72353 0.05509 0.91489 0.0
C376 C 0.69312 0.01642 0.91965 0.0
C377 C 0.68947 0.00838 0.93305 0.0
C378 C 0.71675 0.0407 0.94169 0.0
C379 C 0.74737 0.08055 0.93659 0.0
C380 C 0.75052 0.08697 0.92307 0.0
Zn381 Zn 0.72784 0.06418 0.89502 0.0
C382 C 0.81378 0.09394 0.88457 0.0
N383 N 0.73308 0.07808 0.85339 0.0
C384 C 0.70579 0.04947 0.84447 0.0
C385 C 0.76724 0.11589 0.84951 0.0
C386 C 0.77503 0.12631 0.83633 0.0
C387 C 0.74758 0.09763 0.82688 0.0
C388 C 0.71258 0.0586 0.83107 0.0
Zn389 Zn 0.72682 0.06729 0.87322 0.0
O390 O 0.71499 0.00084 0.89223 0.0
C391 C 0.64164 0.04063 0.88363 0.0
O392 O 0.71342 0.00393 0.87084 0.0
H393 H 0.78897 0.13815 0.85666 0.0
H394 H 0.67155 0.99164 0.91304 0.0
H395 H 0.67889 0.01954 0.84773 0.0
O396 O 0.66175 0.04403 0.89419 0.0
O397 O 0.66122 0.04777 0.87277 0.0
H398 H 0.77462 0.1174 0.91912 0.0
O399 O 0.74095 0.13073 0.87595 0.0
O400 O 0.74207 0.12814 0.89732 0.0
O401 O 0.7926 0.08758 0.8741 0.0
O402 O 0.79443 0.08583 0.89548 0.0
C403 C 0.74674 0.14919 0.88691 0.0
H404 H 0.66518 0.97737 0.93665 0.0
H405 H 0.76908 0.10616 0.94298 0.0
H406 H 0.80289 0.15634 0.83358 0.0
H407 H 0.69054 0.03561 0.8241 0.0
C408 C 0.11666 0.88635 0.14838 0.0
C409 C 0.10921 0.86513 0.13635 0.0
C410 C 0.141 0.93077 0.14903 0.0
C411 C 0.22325 0.02425 0.13104 0.0
H412 H 0.18968 0.08676 0.15452 0.0
C413 C 0.28213 0.20478 0.12844 0.0
C414 C 0.2826 0.2258 0.14005 0.0
C415 C 0.27124 0.16181 0.12869 0.0
C416 C 0.20009 0.06973 0.14814 0.0
H417 H 0.12021 0.87395 0.11547 0.0
H418 H 0.16208 0.95212 0.11657 0.0
H419 H 0.14543 0.00958 0.15291 0.0
H420 H 0.2784 0.22031 0.16116 0.0
H421 H 0.26004 0.14544 0.16159 0.0
H422 H 0.27739 0.08503 0.12601 0.0
C423 C 0.14969 0.93409 0.12553 0.0
C424 C 0.17453 0.02548 0.14715 0.0
C425 C 0.12528 0.88943 0.12488 0.0
C426 C 0.27761 0.2048 0.15203 0.0
C427 C 0.2668 0.16184 0.15227 0.0
C428 C 0.24884 0.06873 0.132 0.0
C429 C 0.15833 0.95512 0.13765 0.0
C430 C 0.18565 0.00224 0.13855 0.0
C431 C 0.26089 0.1393 0.14056 0.0
C432 C 0.23735 0.09191 0.14052 0.0
H433 H 0.1049 0.86859 0.15742 0.0
H434 H 0.14738 0.94592 0.15852 0.0
H435 H 0.23301 0.00709 0.12448 0.0
H436 H 0.28641 0.22028 0.11905 0.0
H437 H 0.26716 0.14538 0.1195 0.0
C438 C 0.23208 0.12571 0.6262 0.0
C439 C 0.24261 0.11113 0.63758 0.0
C440 C 0.21093 0.14935 0.62706 0.0
C441 C 0.14364 0.17174 0.64906 0.0
H442 H 0.18 0.2722 0.62729 0.0
C443 C 0.05682 0.26684 0.65279 0.0
C444 C 0.0419 0.27244 0.64068 0.0
C445 C 0.08962 0.25678 0.65331 0.0
C446 C 0.16955 0.24425 0.63343 0.0
H447 H 0.23848 0.10915 0.65875 0.0
H448 H 0.20172 0.15017 0.6602 0.0
H449 H 0.21783 0.23164 0.62595 0.0
H450 H 0.05305 0.27699 0.61976 0.0
H451 H 0.10962 0.2589 0.62068 0.0
H452 H 0.09475 0.18338 0.65631 0.0
C453 C 0.20955 0.14323 0.65063 0.0
C454 C 0.19101 0.22092 0.63261 0.0
C455 C 0.23069 0.11975 0.64978 0.0
C456 C 0.06348 0.27236 0.62925 0.0
C457 C 0.09614 0.26218 0.62977 0.0
C458 C 0.1222 0.19495 0.64987 0.0
C459 C 0.19981 0.15865 0.6393 0.0
C460 C 0.17794 0.18416 0.64032 0.0
C461 C 0.108 0.25213 0.64176 0.0
C462 C 0.13458 0.23121 0.64197 0.0
H463 H 0.24099 0.1197 0.61667 0.0
H464 H 0.20325 0.16032 0.61816 0.0
H465 H 0.13247 0.14326 0.65501 0.0
H466 H 0.04121 0.26721 0.66179 0.0
H467 H 0.09888 0.25024 0.66272 0.0
C468 C 0.77864 0.07311 0.12931 0.0
C469 C 0.76259 0.04907 0.14082 0.0
C470 C 0.82153 0.10506 0.1285 0.0
C471 C 0.923 0.1656 0.14708 0.0
H472 H 0.97197 0.14026 0.11694 0.0
C473 C 0.0998 0.2116 0.14551 0.0
C474 C 0.12252 0.2305 0.13396 0.0
C475 C 0.05527 0.1924 0.14581 0.0
C476 C 0.95884 0.14822 0.1253 0.0
H477 H 0.77719 0.04305 0.16099 0.0
H478 H 0.85218 0.0985 0.15954 0.0
H479 H 0.89457 0.10818 0.11877 0.0
H480 H 0.11629 0.24209 0.1135 0.0
H481 H 0.03831 0.20836 0.11404 0.0
H482 H 0.98745 0.20486 0.15375 0.0
C483 C 0.83176 0.09275 0.15113 0.0
C484 C 0.9145 0.13006 0.12632 0.0
C485 C 0.78875 0.06088 0.15196 0.0
C486 C 0.09964 0.22757 0.12253 0.0
C487 C 0.05501 0.20842 0.12285 0.0
C488 C 0.96742 0.18383 0.14605 0.0
C489 C 0.84904 0.11338 0.13918 0.0
C490 C 0.89608 0.13795 0.13733 0.0
C491 C 0.03255 0.19177 0.13459 0.0
C492 C 0.98569 0.17459 0.13527 0.0
H493 H 0.75895 0.06518 0.12062 0.0
H494 H 0.83382 0.12127 0.11926 0.0
H495 H 0.90969 0.17249 0.15561 0.0
H496 H 0.11652 0.21315 0.15447 0.0
H497 H 0.03868 0.17879 0.15491 0.0
C498 C 0.69076 0.77448 0.63065 0.0
C499 C 0.69932 0.75865 0.64212 0.0
C500 C 0.70068 0.81707 0.62989 0.0
C501 C 0.73916 0.9181 0.64841 0.0
H502 H 0.81427 0.96777 0.61848 0.0
C503 C 0.86687 0.09578 0.64672 0.0
C504 C 0.8723 0.11793 0.63494 0.0
C505 C 0.84157 0.05135 0.64718 0.0
C506 C 0.7929 0.95449 0.62677 0.0
H507 H 0.71979 0.77325 0.66228 0.0
H508 H 0.73742 0.84776 0.66093 0.0
H509 H 0.77047 0.89046 0.62034 0.0
H510 H 0.85677 0.11084 0.61431 0.0
H511 H 0.81234 0.03309 0.61513 0.0
H512 H 0.76235 0.98231 0.65494 0.0
C513 C 0.72314 0.82737 0.65252 0.0
C514 C 0.76762 0.91016 0.62782 0.0
C515 C 0.71306 0.78463 0.65329 0.0
C516 C 0.85346 0.09461 0.62351 0.0
C517 C 0.82791 0.05009 0.62399 0.0
C518 C 0.76434 0.96253 0.64732 0.0
C519 C 0.71936 0.84452 0.64058 0.0
C520 C 0.74103 0.89147 0.63875 0.0
C521 C 0.82096 0.0281 0.63589 0.0
C522 C 0.79211 0.98114 0.63661 0.0
H523 H 0.67948 0.75493 0.62193 0.0
H524 H 0.69647 0.82927 0.62067 0.0
H525 H 0.71875 0.90454 0.65688 0.0
H526 H 0.88115 0.11287 0.65569 0.0
H527 H 0.83777 0.03524 0.65643 0.0
C528 C 0.92588 0.72312 0.15193 0.0
C529 C 0.93893 0.71074 0.14062 0.0
C530 C 0.89322 0.73337 0.15128 0.0
C531 C 0.85432 0.77982 0.12725 0.0
H532 H 0.77394 0.76819 0.15433 0.0
C533 C 0.75026 0.86065 0.12397 0.0
C534 C 0.74456 0.87787 0.13559 0.0
C535 C 0.77036 0.83598 0.12416 0.0
C536 C 0.79651 0.77196 0.14673 0.0
H537 H 0.92448 0.69396 0.12017 0.0
H538 H 0.86715 0.71129 0.11912 0.0
H539 H 0.81065 0.72662 0.15572 0.0
H540 H 0.75717 0.88447 0.15643 0.0
H541 H 0.79327 0.84257 0.15669 0.0
H542 H 0.84151 0.82614 0.11848 0.0
C543 C 0.88292 0.71425 0.12838 0.0
C544 C 0.81726 0.74796 0.1475 0.0
C545 C 0.91559 0.70413 0.12902 0.0
C546 C 0.76089 0.87144 0.14731 0.0
C547 C 0.78113 0.84701 0.14749 0.0
C548 C 0.83376 0.8039 0.12651 0.0
C549 C 0.87305 0.73116 0.13932 0.0
C550 C 0.84679 0.75209 0.13784 0.0
C551 C 0.78532 0.82828 0.13598 0.0
C552 C 0.80516 0.80076 0.13635 0.0
H553 H 0.94318 0.72837 0.16103 0.0
H554 H 0.88627 0.74631 0.15989 0.0
H555 H 0.8776 0.78438 0.11979 0.0
H556 H 0.73771 0.86478 0.11481 0.0
H557 H 0.77295 0.82183 0.11513 0.0
C558 C 0.8778 0.76445 0.64974 0.0
C559 C 0.857 0.74947 0.63769 0.0
C560 C 0.92236 0.78598 0.65048 0.0
C561 C 0.01676 0.79737 0.63315 0.0
H562 H 0.07828 0.89605 0.65565 0.0
C563 C 0.19756 0.91714 0.63022 0.0
C564 C 0.21896 0.93851 0.64168 0.0
C565 C 0.15419 0.88629 0.6306 0.0
C566 C 0.06152 0.86794 0.64955 0.0
H567 H 0.86654 0.74685 0.61688 0.0
H568 H 0.94486 0.78538 0.61815 0.0
H569 H 0.00076 0.86219 0.65391 0.0
H570 H 0.2133 0.94058 0.66272 0.0
H571 H 0.13756 0.88619 0.66338 0.0
H572 H 0.07791 0.80387 0.6286 0.0
C573 C 0.92645 0.77967 0.62704 0.0
C574 C 0.01712 0.84875 0.64848 0.0
C575 C 0.88171 0.75812 0.62629 0.0
C576 C 0.19752 0.92506 0.6537 0.0
C577 C 0.1541 0.89416 0.65407 0.0
C578 C 0.06129 0.81665 0.63422 0.0
C579 C 0.94713 0.79307 0.63918 0.0
C580 C -0.00569 0.81348 0.6402 0.0
C581 C 0.13156 0.87621 0.64244 0.0
C582 C 0.08412 0.85231 0.64236 0.0
H583 H 0.85966 0.75827 0.65871 0.0
H584 H 0.93734 0.79567 0.65998 0.0
H585 H -0.00013 0.76971 0.62688 0.0
H586 H 0.21338 0.92646 0.62082 0.0
H587 H 0.13773 0.87299 0.62147 0.0
C588 C 0.09518 0.8502 0.39675 0.0
C589 C 0.11955 0.86338 0.38521 0.0
C590 C 0.05039 0.82591 0.39617 0.0
C591 C 0.9598 0.79995 0.37412 0.0
H592 H 0.89599 0.704 0.39753 0.0
C593 C 0.77863 0.70631 0.37062 0.0
C594 C 0.75844 0.70393 0.38258 0.0
C595 C 0.82104 0.71496 0.37037 0.0
C596 C 0.91343 0.73066 0.39092 0.0
H597 H 0.11602 0.86158 0.36403 0.0
H598 H 0.03846 0.81936 0.36307 0.0
H599 H 0.97439 0.74437 0.39864 0.0
H600 H 0.76487 0.70311 0.40364 0.0
H601 H 0.83882 0.71881 0.40317 0.0
H602 H 0.89932 0.78727 0.36659 0.0
C603 C 0.05372 0.82807 0.37255 0.0
C604 C 0.95823 0.75391 0.39161 0.0
C605 C 0.09826 0.85226 0.37312 0.0
C606 C 0.77969 0.70529 0.39425 0.0
C607 C 0.82215 0.71414 0.39399 0.0
C608 C 0.91521 0.7768 0.37342 0.0
C609 C 0.02925 0.81447 0.38405 0.0
C610 C 0.98182 0.78903 0.38328 0.0
C611 C 0.84398 0.72147 0.38205 0.0
C612 C 0.89144 0.74212 0.38188 0.0
H613 H 0.11068 0.85808 0.40621 0.0
H614 H 0.03231 0.81632 0.4052 0.0
H615 H 0.97697 0.82724 0.3677 0.0
H616 H 0.76292 0.70479 0.36145 0.0
H617 H 0.83674 0.7193 0.36101 0.0
C618 C 0.07318 0.7807 0.89285 0.0
C619 C 0.05008 0.76387 0.88123 0.0
C620 C 0.10537 0.82348 0.89348 0.0
C621 C 0.16924 0.92302 0.87436 0.0
H622 H 0.14144 0.97511 0.9031 0.0
C623 C 0.21994 0.1011 0.87418 0.0
C624 C 0.23605 0.12396 0.88586 0.0
C625 C 0.20043 0.0566 0.87407 0.0
C626 C 0.15014 0.96114 0.89514 0.0
H627 H 0.04606 0.77698 0.86076 0.0
H628 H 0.10205 0.85176 0.86189 0.0
H629 H 0.10797 0.89764 0.90191 0.0
H630 H 0.24291 0.11809 0.90668 0.0
H631 H 0.20891 0.04025 0.90649 0.0
H632 H 0.21084 0.9867 0.86747 0.0
C633 C 0.09529 0.83201 0.87052 0.0
C634 C 0.13113 0.91673 0.89448 0.0
C635 C 0.06313 0.78913 0.86988 0.0
C636 C 0.23052 0.10133 0.89754 0.0
C637 C 0.21115 0.05675 0.89742 0.0
C638 C 0.18842 0.96753 0.87504 0.0
C639 C 0.11496 0.85011 0.88251 0.0
C640 C 0.13995 0.89719 0.88398 0.0
C641 C 0.19678 0.03402 0.88563 0.0
C642 C 0.17844 0.98699 0.88532 0.0
H643 H 0.06431 0.76177 0.90172 0.0
H644 H 0.1208 0.83643 0.90276 0.0
H645 H 0.1768 0.9088 0.86621 0.0
H646 H 0.22355 0.11764 0.86502 0.0
H647 H 0.18866 0.0399 0.86489 0.0
C648 C 0.11276 0.22625 0.39547 0.0
C649 C 0.09719 0.23515 0.38401 0.0
C650 C 0.13488 0.20353 0.39486 0.0
C651 C 0.15327 0.13134 0.37381 0.0
H652 H 0.25865 0.17364 0.39361 0.0
C653 C 0.25503 0.05174 0.36847 0.0
C654 C 0.26392 0.03871 0.38043 0.0
C655 C 0.24215 0.08244 0.36819 0.0
C656 C 0.22928 0.16152 0.38803 0.0
H657 H 0.09109 0.22588 0.36301 0.0
H658 H 0.12953 0.18647 0.36198 0.0
H659 H 0.2169 0.21019 0.39517 0.0
H660 H 0.27097 0.05094 0.40129 0.0
H661 H 0.2482 0.1041 0.40078 0.0
H662 H 0.16509 0.08237 0.3668 0.0
C663 C 0.12461 0.19682 0.37143 0.0
C664 C 0.20526 0.1822 0.389 0.0
C665 C 0.10267 0.21952 0.37203 0.0
C666 C 0.26389 0.05999 0.39192 0.0
C667 C 0.25101 0.09065 0.39163 0.0
C668 C 0.17723 0.11073 0.37284 0.0
C669 C 0.14156 0.18919 0.3828 0.0
C670 C 0.1669 0.16714 0.38194 0.0
C671 C 0.23806 0.10064 0.37985 0.0
C672 C 0.21537 0.12545 0.37998 0.0
H673 H 0.10908 0.23797 0.40484 0.0
H674 H 0.14707 0.19751 0.40381 0.0
H675 H 0.12356 0.11868 0.36838 0.0
H676 H 0.25518 0.03624 0.35943 0.0
H677 H 0.23323 0.0903 0.35892 0.0
C678 C 0.20134 0.27972 0.89092 0.0
C679 C 0.22257 0.2791 0.87946 0.0
C680 C 0.1584 0.26918 0.8905 0.0
C681 C 0.06483 0.1995 0.87102 0.0
H682 H 0.00562 0.23672 0.89465 0.0
C683 C 0.88118 0.12223 0.87162 0.0
C684 C 0.86095 0.11457 0.88386 0.0
C685 C 0.9257 0.14589 0.87064 0.0
C686 C 0.0218 0.22583 0.88807 0.0
H687 H 0.21719 0.27242 0.8584 0.0
H688 H 0.14238 0.25481 0.85766 0.0
H689 H 0.08381 0.27817 0.89296 0.0
H690 H 0.87161 0.12497 0.9047 0.0
H691 H 0.94983 0.16589 0.90298 0.0
H692 H 0.00319 0.14676 0.86632 0.0
C693 C 0.1586 0.26217 0.867 0.0
C694 C 0.06647 0.24968 0.88705 0.0
C695 C 0.20155 0.2726 0.86742 0.0
C696 C 0.88629 0.1302 0.89514 0.0
C697 C 0.93099 0.15403 0.89414 0.0
C698 C 0.02031 0.17576 0.87203 0.0
C699 C 0.13599 0.25807 0.87862 0.0
C700 C 0.08849 0.23648 0.8786 0.0
C701 C 0.95108 0.16246 0.88186 0.0
C702 C -0.00166 0.18839 0.88067 0.0
H703 H 0.21678 0.28507 0.90035 0.0
H704 H 0.14198 0.26638 0.89963 0.0
H705 H 0.08082 0.1878 0.86466 0.0
H706 H 0.8626 0.11081 0.86273 0.0
H707 H 0.94019 0.15214 0.86103 0.0
C708 C 0.90579 0.20839 0.3919 0.0
C709 C 0.92934 0.22355 0.38026 0.0
C710 C 0.87372 0.16569 0.39299 0.0
C711 C 0.81374 0.06273 0.37508 0.0
H712 H 0.84286 0.01752 0.40538 0.0
C713 C 0.77598 0.88905 0.37708 0.0
C714 C 0.75676 0.86605 0.38856 0.0
C715 C 0.79388 0.93335 0.37676 0.0
C716 C 0.83388 0.0296 0.39698 0.0
H717 H 0.9341 0.20773 0.36014 0.0
H718 H 0.87861 0.1331 0.36209 0.0
H719 H 0.87219 0.09435 0.40322 0.0
H720 H 0.74383 0.87165 0.40894 0.0
H721 H 0.77551 0.94929 0.40838 0.0
H722 H 0.77646 -0.00217 0.36868 0.0
C723 C 0.88476 0.15401 0.37038 0.0
C724 C 0.8504 0.0736 0.39577 0.0
C725 C 0.91668 0.19683 0.36926 0.0
C726 C 0.75857 0.88852 0.39996 0.0
C727 C 0.7765 0.93294 0.39963 0.0
C728 C 0.79722 0.01868 0.3763 0.0
C729 C 0.86489 0.13751 0.38248 0.0
C730 C 0.84123 0.09069 0.38468 0.0
C731 C 0.79296 0.95552 0.3879 0.0
C732 C 0.80799 0.00184 0.38711 0.0
H733 H 0.91436 0.22858 0.40048 0.0
H734 H 0.85805 0.15402 0.40233 0.0
H735 H 0.80584 0.07498 0.36649 0.0
H736 H 0.77533 0.87266 0.36815 0.0
H737 H 0.80746 0.95014 0.36768 0.0
C738 C 0.8654 0.75938 0.89688 0.0
C739 C 0.8821 0.75132 0.88552 0.0
C740 C 0.8422 0.781 0.89609 0.0
C741 C 0.82206 0.85133 0.87461 0.0
H742 H 0.71582 0.80694 0.89413 0.0
C743 C 0.71887 0.9284 0.86854 0.0
C744 C 0.71083 0.94233 0.88046 0.0
C745 C 0.73104 0.89717 0.86838 0.0
C746 C 0.74537 0.81956 0.88861 0.0
H747 H 0.88913 0.76102 0.86453 0.0
H748 H 0.84879 0.79838 0.8632 0.0
H749 H 0.75926 0.77221 0.89609 0.0
H750 H 0.70379 0.93074 0.90136 0.0
H751 H 0.72536 0.87666 0.90107 0.0
H752 H 0.80875 0.89894 0.86726 0.0
C753 C 0.85366 0.7883 0.8727 0.0
C754 C 0.77038 0.79997 0.88981 0.0
C755 C 0.87672 0.76676 0.87348 0.0
C756 C 0.71037 0.92107 0.89203 0.0
C757 C 0.72253 0.88987 0.89186 0.0
C758 C 0.79708 0.87077 0.87338 0.0
C759 C 0.83554 0.79502 0.88396 0.0
C760 C 0.8091 0.81587 0.88287 0.0
C761 C 0.73522 0.87936 0.88012 0.0
C762 C 0.75862 0.85527 0.88042 0.0
H763 H 0.86894 0.74771 0.90628 0.0
H764 H 0.82912 0.78636 0.90495 0.0
H765 H 0.85202 0.86467 0.86928 0.0
H766 H 0.71899 0.94383 0.85945 0.0
H767 H 0.73975 0.88888 0.85916 0.0
C768 C 0.05611 0.59404 0.15001 0.0
C769 C 0.0413 0.60642 0.1391 0.0
C770 C 0.0645 0.5603 0.1491 0.0
C771 C 0.09334 0.50616 0.12383 0.0
H772 H 0.09951 0.44482 0.15405 0.0
C773 C 0.20655 0.43569 0.12545 0.0
C774 C 0.19534 0.40016 0.13348 0.0
C775 C 0.18127 0.45526 0.12539 0.0
C776 C 0.0974 0.46085 0.14538 0.0
H777 H 0.019 0.5903 0.11913 0.0
H778 H 0.03166 0.52991 0.11774 0.0
H779 H 0.06036 0.48307 0.1555 0.0
H780 H 0.14788 0.35512 0.14698 0.0
H781 H 0.10261 0.38723 0.1463 0.0
H782 H 0.12896 0.48248 0.11356 0.0
C783 C 0.03867 0.54746 0.12682 0.0
C784 C 0.07539 0.48349 0.1463 0.0
C785 C 0.03097 0.58176 0.12766 0.0
C786 C 0.15774 0.38329 0.14097 0.0
C787 C 0.13189 0.40189 0.14061 0.0
C788 C 0.11454 0.48265 0.12282 0.0
C789 C 0.05748 0.53763 0.13733 0.0
C790 C 0.07423 0.50758 0.13568 0.0
C791 C 0.1437 0.43873 0.13306 0.0
C792 C 0.11786 0.46061 0.13368 0.0
H793 H 0.06444 0.61243 0.15896 0.0
H794 H 0.07932 0.55414 0.15739 0.0
H795 H 0.09362 0.52464 0.11545 0.0
H796 H 0.23536 0.44896 0.11955 0.0
H797 H 0.19184 0.4839 0.11958 0.0
C798 C 0.75926 0.19478 0.64395 0.0
C799 C 0.78382 0.20407 0.63249 0.0
C800 C 0.7149 0.16831 0.64355 0.0
C801 C 0.62143 0.12455 0.62195 0.0
H802 H 0.569 0.04081 0.64973 0.0
C803 C 0.44021 0.02577 0.6252 0.0
C804 C 0.42503 0.03056 0.63737 0.0
C805 C 0.48249 0.03471 0.62384 0.0
C806 C 0.5832 0.06388 0.64189 0.0
H807 H 0.78094 0.19439 0.61153 0.0
H808 H 0.7031 0.14823 0.61083 0.0
H809 H 0.64698 0.08491 0.6486 0.0
H810 H 0.44039 0.04301 0.65795 0.0
H811 H 0.5141 0.05894 0.65557 0.0
H812 H 0.55782 0.10474 0.61548 0.0
C813 C 0.71833 0.16145 0.62012 0.0
C814 C 0.62777 0.08927 0.64127 0.0
C815 C 0.76285 0.18801 0.62051 0.0
C816 C 0.45124 0.0394 0.64842 0.0
C817 C 0.49356 0.04843 0.64705 0.0
C818 C 0.57689 0.09919 0.62256 0.0
C819 C 0.69409 0.15053 0.63169 0.0
C820 C 0.64723 0.12065 0.63151 0.0
C821 C 0.51024 0.04852 0.63463 0.0
C822 C 0.55726 0.06934 0.63273 0.0
H823 H 0.77441 0.20681 0.65333 0.0
H824 H 0.69692 0.16138 0.65257 0.0
H825 H 0.6355 0.14861 0.61436 0.0
H826 H 0.42053 0.01831 0.61652 0.0
H827 H 0.49424 0.0335 0.6142 0.0
C828 C 0.5492 0.77032 0.14597 0.0
C829 C 0.56724 0.79343 0.13442 0.0
C830 C 0.52855 0.72577 0.14599 0.0
C831 C 0.47828 0.63087 0.12483 0.0
H832 H 0.50048 0.57677 0.15427 0.0
C833 C 0.39851 0.4494 0.12755 0.0
C834 C 0.37514 0.43249 0.13914 0.0
C835 C 0.4302 0.49237 0.12684 0.0
C836 C 0.49409 0.59147 0.14599 0.0
H837 H 0.57631 0.78797 0.11372 0.0
H838 H 0.54018 0.70989 0.11377 0.0
H839 H 0.53659 0.65475 0.15294 0.0
H840 H 0.36978 0.44605 0.15947 0.0
H841 H 0.42501 0.52114 0.15822 0.0
H842 H 0.43522 0.56769 0.118 0.0
C843 C 0.54189 0.72632 0.12279 0.0
C844 C 0.51451 0.63604 0.14525 0.0
C845 C 0.56247 0.77101 0.12275 0.0
C846 C 0.38706 0.4582 0.15037 0.0
C847 C 0.41879 0.50125 0.14966 0.0
C848 C 0.45799 0.58634 0.12554 0.0
C849 C 0.52562 0.70334 0.13448 0.0
C850 C 0.50615 0.65616 0.13479 0.0
C851 C 0.43917 0.51916 0.13773 0.0
C852 C 0.46514 0.56619 0.13624 0.0
H853 H 0.55214 0.78669 0.1551 0.0
H854 H 0.51534 0.7089 0.15508 0.0
H855 H 0.4709 0.64541 0.11671 0.0
H856 H 0.39049 0.43021 0.11876 0.0
H857 H 0.44612 0.50519 0.1176 0.0
C858 C 0.78853 0.56655 0.62259 0.0
C859 C 0.77244 0.57206 0.63449 0.0
C860 C 0.81329 0.5465 0.62229 0.0
C861 C 0.88024 0.52089 0.64369 0.0
H862 H 0.86269 0.43739 0.61706 0.0
C863 C 0.92729 0.39085 0.64907 0.0
C864 C 0.93768 0.37579 0.63778 0.0
C865 C 0.91737 0.42364 0.64821 0.0
C866 C 0.86872 0.46135 0.62441 0.0
H867 H 0.76812 0.55928 0.65531 0.0
H868 H 0.81036 0.52355 0.65472 0.0
H869 H 0.82171 0.47446 0.61624 0.0
H870 H 0.95085 0.38669 0.61702 0.0
H871 H 0.93402 0.44425 0.61558 0.0
H872 H 0.92634 0.5067 0.65207 0.0
C873 C 0.80482 0.53566 0.64568 0.0
C874 C 0.84507 0.48245 0.62395 0.0
C875 C 0.7802 0.5557 0.64599 0.0
C876 C 0.94233 0.39714 0.62587 0.0
C877 C 0.93245 0.42994 0.62502 0.0
C878 C 0.90387 0.49973 0.64415 0.0
C879 C 0.82234 0.53158 0.63387 0.0
C880 C 0.84992 0.51177 0.63374 0.0
C881 C 0.91784 0.44204 0.63605 0.0
C882 C 0.89776 0.46914 0.63465 0.0
H883 H 0.78333 0.57906 0.61358 0.0
H884 H 0.82644 0.5439 0.61304 0.0
H885 H 0.88533 0.54404 0.65122 0.0
H886 H 0.92364 0.37523 0.6584 0.0
H887 H 0.90618 0.43222 0.65689 0.0
C888 C 0.53072 0.93896 0.15066 0.0
C889 C 0.55669 0.95052 0.13946 0.0
C890 C 0.48801 0.92902 0.1497 0.0
C891 C 0.40433 0.88105 0.12531 0.0
H892 H 0.33362 0.89075 0.15213 0.0
C893 C 0.22039 0.78382 0.14587 0.0
C894 C 0.19686 0.77672 0.13429 0.0
C895 C 0.26488 0.80946 0.14581 0.0
C896 C 0.35301 0.88759 0.14459 0.0
H897 H 0.56027 0.96654 0.11889 0.0
H898 H 0.48589 0.94971 0.11729 0.0
H899 H 0.41159 0.93473 0.15347 0.0
H900 H 0.20159 0.78945 0.11348 0.0
H901 H 0.27953 0.83433 0.11339 0.0
H902 H 0.346 0.83292 0.11667 0.0
C903 C 0.49814 0.94713 0.12671 0.0
C904 C 0.39755 0.91295 0.14533 0.0
C905 C 0.54078 0.95697 0.12765 0.0
C906 C 0.21889 0.79412 0.12254 0.0
C907 C 0.26349 0.81993 0.12249 0.0
C908 C 0.35984 0.85566 0.12459 0.0
C909 C 0.47076 0.93073 0.13755 0.0
C910 C 0.42368 0.90932 0.13583 0.0
C911 C 0.2868 0.82867 0.13419 0.0
C912 C 0.33378 0.85798 0.13438 0.0
H913 H 0.54213 0.93397 0.15991 0.0
H914 H 0.4677 0.91651 0.15824 0.0
H915 H 0.42362 0.87689 0.11796 0.0
H916 H 0.20436 0.77067 0.15508 0.0
H917 H 0.28209 0.81469 0.15492 0.0
C918 C 0.58566 0.52844 0.65092 0.0
C919 C 0.60126 0.55208 0.63932 0.0
C920 C 0.55601 0.48478 0.65042 0.0
C921 C 0.48474 0.39361 0.62937 0.0
H922 H 0.53563 0.33636 0.64818 0.0
C923 C 0.42672 0.21387 0.62233 0.0
C924 C 0.42075 0.19064 0.63391 0.0
C925 C 0.44857 0.25863 0.62255 0.0
C926 C 0.52069 0.35172 0.64298 0.0
H927 H 0.59356 0.55004 0.61826 0.0
H928 H 0.54182 0.47377 0.61744 0.0
H929 H 0.56628 0.41326 0.65033 0.0
H930 H 0.43484 0.19594 0.65466 0.0
H931 H 0.47232 0.27339 0.65506 0.0
H932 H 0.43893 0.33175 0.62208 0.0
C933 C 0.55283 0.48884 0.62688 0.0
C934 C 0.5381 0.39574 0.64427 0.0
C935 C 0.58258 0.53253 0.62736 0.0
C936 C 0.4389 0.21288 0.64555 0.0
C937 C 0.46056 0.25739 0.64578 0.0
C938 C 0.46699 0.34932 0.62817 0.0
C939 C 0.54137 0.46421 0.63834 0.0
C940 C 0.52025 0.4171 0.63753 0.0
C941 C 0.46485 0.28077 0.63435 0.0
C942 C 0.48478 0.32794 0.635 0.0
H943 H 0.59894 0.5427 0.6603 0.0
H944 H 0.54683 0.46651 0.65942 0.0
H945 H 0.47059 0.40946 0.62402 0.0
H946 H 0.413 0.19757 0.61321 0.0
H947 H 0.45205 0.27586 0.61355 0.0
C948 C 0.4079 0.96215 0.39481 0.0
C949 C 0.38405 0.95232 0.3832 0.0
C950 C 0.44321 0.95592 0.39571 0.0
C951 C 0.5101 0.9223 0.37626 0.0
H952 H 0.5081 0.86533 0.40858 0.0
C953 C 0.60631 0.83519 0.38102 0.0
C954 C 0.58835 0.79727 0.38835 0.0
C955 C 0.5888 0.86202 0.38151 0.0
C956 C 0.50878 0.88069 0.39943 0.0
H957 H 0.38091 0.93228 0.36308 0.0
H958 H 0.44079 0.91987 0.36474 0.0
H959 H 0.46668 0.90141 0.40682 0.0
H960 H 0.53864 0.75759 0.4021 0.0
H961 H 0.50555 0.80272 0.40225 0.0
H962 H 0.54871 0.89821 0.36842 0.0
C963 C 0.43324 0.9331 0.37314 0.0
C964 C 0.48571 0.90237 0.39851 0.0
C965 C 0.39853 0.94006 0.37218 0.0
C966 C 0.55276 0.78665 0.39631 0.0
C967 C 0.53427 0.81288 0.39649 0.0
C968 C 0.53225 0.89975 0.37707 0.0
C969 C 0.45485 0.93907 0.38509 0.0
C970 C 0.48521 0.9226 0.38679 0.0
C971 C 0.55198 0.8509 0.38903 0.0
C972 C 0.53124 0.87788 0.38859 0.0
H973 H 0.39782 0.97223 0.40342 0.0
H974 H 0.45994 0.96222 0.40494 0.0
H975 H 0.51136 0.93826 0.36717 0.0
H976 H 0.63455 0.8446 0.37506 0.0
H977 H 0.60437 0.89152 0.37597 0.0
C978 C 0.76922 0.56781 0.89913 0.0
C979 C 0.79185 0.57327 0.88744 0.0
C980 C 0.72444 0.54754 0.89907 0.0
C981 C 0.63415 0.52195 0.87673 0.0
H982 H 0.56543 0.44006 0.90343 0.0
C983 C 0.45655 0.39437 0.87079 0.0
C984 C 0.43045 0.38054 0.88197 0.0
C985 C 0.49948 0.42641 0.87174 0.0
C986 C 0.58415 0.46356 0.89604 0.0
H987 H 0.78531 0.55993 0.86665 0.0
H988 H 0.7074 0.52379 0.86662 0.0
H989 H 0.64328 0.47604 0.9048 0.0
H990 H 0.42732 0.39293 0.90256 0.0
H991 H 0.50206 0.44917 0.90414 0.0
H992 H 0.57487 0.50843 0.86777 0.0
C993 C 0.72419 0.53615 0.87576 0.0
C994 C 0.62878 0.48403 0.89681 0.0
C995 C 0.76882 0.55644 0.87581 0.0
C996 C 0.44679 0.40244 0.8938 0.0
C997 C 0.48967 0.43447 0.89474 0.0
C998 C 0.58949 0.5014 0.87595 0.0
C999 C 0.70155 0.53233 0.88732 0.0
C1000 C 0.65425 0.51283 0.88703 0.0
C1001 C 0.51693 0.44524 0.88387 0.0
C1002 C 0.56403 0.47146 0.88548 0.0
H1003 H 0.78609 0.58068 0.90823 0.0
H1004 H 0.70787 0.54514 0.90813 0.0
H1005 H 0.65298 0.54472 0.86918 0.0
H1006 H 0.44487 0.37827 0.86152 0.0
H1007 H 0.51969 0.434 0.86318 0.0
C1008 C 0.22027 0.76781 0.3764 0.0
C1009 C 0.22337 0.78987 0.388 0.0
C1010 C 0.19699 0.72333 0.37606 0.0
C1011 C 0.10786 0.633 0.39294 0.0
H1012 H 0.14087 0.5663 0.37111 0.0
C1013 C 0.03444 0.4492 0.39342 0.0
C1014 C 0.03428 0.4297 0.38152 0.0
C1015 C 0.04903 0.49303 0.39391 0.0
C1016 C 0.13088 0.58465 0.37706 0.0
H1017 H 0.20711 0.78268 0.40859 0.0
H1018 H 0.16711 0.70445 0.40808 0.0
H1019 H 0.18975 0.64257 0.37369 0.0
H1020 H 0.04271 0.43922 0.36056 0.0
H1021 H 0.06794 0.51569 0.36145 0.0
H1022 H 0.0493 0.57429 0.39655 0.0
C1023 C 0.1819 0.72179 0.39917 0.0
C1024 C 0.159 0.62827 0.3786 0.0
C1025 C 0.20524 0.7665 0.3995 0.0
C1026 C 0.04317 0.45346 0.36991 0.0
C1027 C 0.05785 0.49727 0.37041 0.0
C1028 C 0.07979 0.5891 0.39147 0.0
C1029 C 0.1765 0.69987 0.38735 0.0
C1030 C 0.14773 0.653 0.38649 0.0
C1031 C 0.0635 0.51778 0.38249 0.0
C1032 C 0.09098 0.56467 0.38343 0.0
H1033 H 0.23396 0.78493 0.36737 0.0
H1034 H 0.19324 0.70749 0.36678 0.0
H1035 H 0.09801 0.65137 0.39892 0.0
H1036 H 0.02714 0.43156 0.40252 0.0
H1037 H 0.0528 0.50806 0.40334 0.0
C1038 C 0.57904 0.03273 0.89643 0.0
C1039 C 0.59883 0.03676 0.88426 0.0
C1040 C 0.54568 0.04174 0.89765 0.0
C1041 C 0.47337 0.06918 0.87926 0.0
H1042 H 0.50514 0.15525 0.90627 0.0
C1043 C 0.41632 0.19325 0.89985 0.0
C1044 C 0.41089 0.20855 0.88778 0.0
C1045 C 0.43457 0.1669 0.9004 0.0
C1046 C 0.49532 0.13081 0.89883 0.0
H1047 H 0.59567 0.0481 0.86359 0.0
H1048 H 0.53785 0.06415 0.86574 0.0
H1049 H 0.53981 0.11204 0.90548 0.0
H1050 H 0.4222 0.20998 0.86692 0.0
H1051 H 0.4548 0.16495 0.86794 0.0
H1052 H 0.42988 0.08913 0.87236 0.0
C1053 C 0.54804 0.05415 0.87435 0.0
C1054 C 0.51501 0.10583 0.8984 0.0
C1055 C 0.58135 0.04506 0.87312 0.0
C1056 C 0.42576 0.19857 0.87637 0.0
C1057 C 0.44396 0.17233 0.87693 0.0
C1058 C 0.45366 0.09417 0.87969 0.0
C1059 C 0.53153 0.05487 0.88674 0.0
C1060 C 0.50502 0.07549 0.88843 0.0
C1061 C 0.44768 0.15543 0.8889 0.0
C1062 C 0.4653 0.12602 0.88927 0.0
H1063 H 0.59134 0.02571 0.90518 0.0
H1064 H 0.53281 0.04104 0.90727 0.0
H1065 H 0.46468 0.04572 0.87156 0.0
H1066 H 0.4049 0.20015 0.9088 0.0
H1067 H 0.43706 0.15435 0.90976 0.0
C1068 C 0.21113 0.42433 0.39694 0.0
C1069 C 0.18735 0.41606 0.38536 0.0
C1070 C 0.25595 0.44779 0.39659 0.0
C1071 C 0.34689 0.52324 0.37615 0.0
H1072 H 0.41124 0.4818 0.39576 0.0
C1073 C 0.52818 0.60427 0.37041 0.0
C1074 C 0.55075 0.61676 0.38226 0.0
C1075 C 0.48459 0.57381 0.37029 0.0
C1076 C 0.39366 0.49374 0.39025 0.0
H1077 H 0.19179 0.42699 0.36442 0.0
H1078 H 0.26953 0.46763 0.36385 0.0
H1079 H 0.33294 0.4438 0.39717 0.0
H1080 H 0.54646 0.60395 0.40309 0.0
H1081 H 0.47047 0.55118 0.40287 0.0
H1082 H 0.40728 0.57335 0.36933 0.0
C1083 C 0.25375 0.45629 0.3732 0.0
C1084 C 0.34892 0.4722 0.39113 0.0
C1085 C 0.20914 0.43286 0.37353 0.0
C1086 C 0.5299 0.59528 0.3938 0.0
C1087 C 0.48631 0.56487 0.39368 0.0
C1088 C 0.39147 0.54469 0.37527 0.0
C1089 C 0.27767 0.46354 0.38468 0.0
C1090 C 0.32512 0.4868 0.38408 0.0
C1091 C 0.46283 0.55531 0.38201 0.0
C1092 C 0.41536 0.53023 0.38231 0.0
H1093 H 0.19522 0.41168 0.40619 0.0
H1094 H 0.27361 0.45341 0.40563 0.0
H1095 H 0.32948 0.53564 0.37076 0.0
H1096 H 0.54342 0.61989 0.36133 0.0
H1097 H 0.46744 0.56626 0.36111 0.0
C1098 C 0.93893 0.53456 0.87102 0.0
C1099 C 0.94549 0.55711 0.88276 0.0
C1100 C 0.92576 0.49103 0.87126 0.0
C1101 C 0.90476 0.39845 0.892 0.0
H1102 H 0.79855 0.34214 0.87233 0.0
C1103 C 0.78131 0.21918 0.89881 0.0
C1104 C 0.76456 0.19592 0.88722 0.0
C1105 C 0.80486 0.2639 0.8985 0.0
C1106 C 0.82834 0.35723 0.87776 0.0
H1107 H 0.94958 0.55346 0.90383 0.0
H1108 H 0.9264 0.47745 0.9042 0.0
H1109 H 0.84493 0.41906 0.87044 0.0
H1110 H 0.75748 0.20122 0.86636 0.0
H1111 H 0.79859 0.27864 0.86583 0.0
H1112 H 0.88793 0.3363 0.89932 0.0
C1113 C 0.931 0.49322 0.89484 0.0
C1114 C 0.85506 0.40127 0.87661 0.0
C1115 C 0.94416 0.53678 0.89462 0.0
C1116 C 0.76991 0.21818 0.87547 0.0
C1117 C 0.79344 0.26266 0.87516 0.0
C1118 C 0.8781 0.35413 0.89307 0.0
C1119 C 0.91916 0.46953 0.88322 0.0
C1120 C 0.89351 0.42233 0.88371 0.0
C1121 C 0.81192 0.28601 0.88662 0.0
C1122 C 0.83958 0.33312 0.88595 0.0
H1123 H 0.94037 0.54949 0.8617 0.0
H1124 H 0.91775 0.47354 0.86214 0.0
H1125 H 0.93416 0.41402 0.89762 0.0
H1126 H 0.77776 0.20287 0.90801 0.0
H1127 H 0.81812 0.28112 0.90752 0.0
C1128 C 0.06859 0.30686 0.30261 0.0
C1129 C 0.09864 0.33458 0.31178 0.0
C1130 C 0.08102 0.30608 0.2897 0.0
C1131 C 0.16589 0.3681 0.26532 0.0
H1132 H 0.12833 0.25693 0.24975 0.0
C1133 C 0.23607 0.34989 0.21651 0.0
C1134 C 0.20668 0.32044 0.20753 0.0
C1135 C 0.22345 0.35119 0.22936 0.0
C1136 C 0.13878 0.28825 0.25388 0.0
H1137 H 0.16466 0.3847 0.31445 0.0
H1138 H 0.18633 0.3832 0.29201 0.0
H1139 H 0.10337 0.26136 0.2715 0.0
H1140 H 0.14157 0.2679 0.20519 0.0
H1141 H 0.11942 0.27073 0.22741 0.0
H1142 H 0.20116 0.39504 0.24769 0.0
C1143 C 0.15322 0.36203 0.29475 0.0
C1144 C 0.12437 0.29077 0.26635 0.0
C1145 C 0.14088 0.36263 0.30764 0.0
C1146 C 0.16486 0.29143 0.21181 0.0
C1147 C 0.15227 0.29274 0.22461 0.0
C1148 C 0.1802 0.36559 0.25283 0.0
C1149 C 0.12365 0.33327 0.28568 0.0
C1150 C 0.13778 0.33072 0.27222 0.0
C1151 C 0.1812 0.32297 0.23352 0.0
C1152 C 0.16686 0.32563 0.24695 0.0
H1153 H 0.03588 0.28475 0.30552 0.0
H1154 H 0.05735 0.28392 0.28289 0.0
H1155 H 0.17646 0.39938 0.26951 0.0
H1156 H 0.26844 0.37281 0.21351 0.0
H1157 H 0.24675 0.37448 0.23602 0.0
C1158 C 0.85687 0.16739 0.71182 0.0
C1159 C 0.87209 0.20967 0.70755 0.0
C1160 C 0.8439 0.15569 0.72474 0.0
C1161 C 0.80516 0.18798 0.75348 0.0
H1162 H 0.8304 0.10883 0.77182 0.0
C1163 C 0.77067 0.15064 0.80848 0.0
C1164 C 0.75659 0.1086 0.81279 0.0
C1165 C 0.78315 0.16235 0.79552 0.0
C1166 C 0.82254 0.13048 0.76678 0.0
H1167 H 0.88653 0.27308 0.71363 0.0
H1168 H 0.86434 0.25276 0.73632 0.0
H1169 H 0.85787 0.1319 0.74978 0.0
H1170 H 0.74339 0.04556 0.80672 0.0
H1171 H 0.76442 0.06579 0.78398 0.0
H1172 H 0.76976 0.1865 0.77047 0.0
C1173 C 0.86196 0.22854 0.72958 0.0
C1174 C 0.83843 0.14383 0.75415 0.0
C1175 C 0.87513 0.2403 0.71662 0.0
C1176 C 0.75388 0.07814 0.8037 0.0
C1177 C 0.76644 0.08989 0.79071 0.0
C1178 C 0.78922 0.17458 0.76611 0.0
C1179 C 0.84579 0.18596 0.73375 0.0
C1180 C 0.82992 0.17273 0.74734 0.0
C1181 C 0.78182 0.13231 0.78651 0.0
C1182 C 0.79771 0.14566 0.77292 0.0
H1183 H 0.85464 0.14312 0.70511 0.0
H1184 H 0.83134 0.12258 0.72757 0.0
H1185 H 0.79738 0.20968 0.74844 0.0
H1186 H 0.77263 0.17477 0.81519 0.0
H1187 H 0.79507 0.19534 0.79267 0.0
C1188 C 0.63747 0.89167 0.21836 0.0
C1189 C 0.66012 0.88331 0.20869 0.0
C1190 C 0.63794 0.87979 0.23136 0.0
C1191 C 0.65661 0.80497 0.25124 0.0
H1192 H 0.66888 0.88035 0.27992 0.0
C1193 C 0.63724 0.75221 0.30555 0.0
C1194 C 0.66675 0.78211 0.31443 0.0
C1195 C 0.63601 0.76396 0.29259 0.0
C1196 C 0.66562 0.85901 0.27201 0.0
H1197 H 0.70277 0.85786 0.20529 0.0
H1198 H 0.70333 0.83705 0.22785 0.0
H1199 H 0.668 0.90307 0.25751 0.0
H1200 H 0.71944 0.84725 0.31644 0.0
H1201 H 0.7171 0.86765 0.29392 0.0
H1202 H 0.65483 0.76115 0.26572 0.0
C1203 C 0.68445 0.8519 0.22535 0.0
C1204 C 0.66467 0.87186 0.25918 0.0
C1205 C 0.68412 0.86387 0.21241 0.0
C1206 C 0.69567 0.82365 0.30995 0.0
C1207 C 0.69433 0.8354 0.29704 0.0
C1208 C 0.65731 0.79202 0.26407 0.0
C1209 C 0.66099 0.85924 0.23496 0.0
C1210 C 0.66053 0.84514 0.24864 0.0
C1211 C 0.66419 0.80588 0.28824 0.0
C1212 C 0.66217 0.81903 0.2746 0.0
H1213 H 0.6184 0.90627 0.21582 0.0
H1214 H 0.61934 0.88568 0.23853 0.0
H1215 H 0.65286 0.78341 0.24334 0.0
H1216 H 0.61421 0.72011 0.30871 0.0
H1217 H 0.61221 0.74054 0.28607 0.0
C1218 C 0.75579 0.67121 0.71863 0.0
C1219 C 0.75981 0.64492 0.70928 0.0
C1220 C 0.76923 0.67197 0.7315 0.0
C1221 C 0.79688 0.612 0.75537 0.0
H1222 H 0.86445 0.72325 0.77156 0.0
C1223 C 0.88595 0.6333 0.80424 0.0
C1224 C 0.88254 0.66042 0.81342 0.0
C1225 C 0.87227 0.6319 0.79135 0.0
C1226 C 0.84532 0.6919 0.76723 0.0
H1227 H 0.77894 0.59718 0.70624 0.0
H1228 H 0.80268 0.59879 0.72859 0.0
H1229 H 0.83483 0.71826 0.74982 0.0
H1230 H 0.8641 0.70881 0.81612 0.0
H1231 H 0.83977 0.70594 0.79382 0.0
H1232 H 0.80732 0.58563 0.7728 0.0
C1233 C 0.78917 0.61882 0.72603 0.0
C1234 C 0.82822 0.68903 0.75478 0.0
C1235 C 0.77592 0.61818 0.71319 0.0
C1236 C 0.86661 0.68714 0.80933 0.0
C1237 C 0.85306 0.68581 0.79649 0.0
C1238 C 0.81395 0.61486 0.76783 0.0
C1239 C 0.78669 0.64625 0.73529 0.0
C1240 C 0.80376 0.64905 0.7487 0.0
C1241 C 0.85516 0.65778 0.78738 0.0
C1242 C 0.83833 0.65484 0.77393 0.0
H1243 H 0.74369 0.69231 0.7159 0.0
H1244 H 0.76634 0.69303 0.73845 0.0
H1245 H 0.77779 0.58067 0.75102 0.0
H1246 H 0.89792 0.61221 0.8071 0.0
H1247 H 0.87485 0.61036 0.78452 0.0
C1248 C 0.11907 0.8124 0.21298 0.0
C1249 C 0.1047 0.77041 0.20863 0.0
C1250 C 0.13178 0.82381 0.22591 0.0
C1251 C 0.17246 0.79254 0.25432 0.0
H1252 H 0.14439 0.86889 0.27306 0.0
C1253 C 0.20933 0.83088 0.30914 0.0
C1254 C 0.22205 0.87263 0.31342 0.0
C1255 C 0.19635 0.81874 0.29625 0.0
C1256 C 0.15304 0.84804 0.2679 0.0
H1257 H 0.09139 0.70716 0.21452 0.0
H1258 H 0.11329 0.72702 0.23725 0.0
H1259 H 0.11636 0.84543 0.25112 0.0
H1260 H 0.23237 0.93475 0.30736 0.0
H1261 H 0.21059 0.91383 0.28475 0.0
H1262 H 0.20933 0.79532 0.27107 0.0
C1263 C 0.11512 0.7512 0.23057 0.0
C1264 C 0.13681 0.83445 0.25534 0.0
C1265 C 0.10215 0.7397 0.21761 0.0
C1266 C 0.22297 0.90242 0.30437 0.0
C1267 C 0.20995 0.89025 0.29145 0.0
C1268 C 0.18878 0.80621 0.26687 0.0
C1269 C 0.13051 0.79353 0.23483 0.0
C1270 C 0.1464 0.80661 0.24839 0.0
C1271 C 0.19584 0.84806 0.2873 0.0
C1272 C 0.17932 0.8342 0.27382 0.0
H1273 H 0.12094 0.83667 0.20633 0.0
H1274 H 0.14376 0.85673 0.22883 0.0
H1275 H 0.18102 0.77165 0.24914 0.0
H1276 H 0.2088 0.8073 0.31582 0.0
H1277 H 0.18545 0.78593 0.29343 0.0
C1278 C 0.35533 0.24282 0.80372 0.0
C1279 C 0.32711 0.21283 0.81284 0.0
C1280 C 0.35668 0.23044 0.79086 0.0
C1281 C 0.29497 0.14559 0.76651 0.0
H1282 H 0.40643 0.18433 0.75075 0.0
C1283 C 0.3134 0.0763 0.71769 0.0
C1284 C 0.34177 0.10611 0.70856 0.0
C1285 C 0.3126 0.08866 0.73059 0.0
C1286 C 0.37503 0.17351 0.75496 0.0
H1287 H 0.2768 0.1469 0.81545 0.0
H1288 H 0.27943 0.12527 0.79313 0.0
H1289 H 0.40184 0.20893 0.77255 0.0
H1290 H 0.39307 0.17163 0.70599 0.0
H1291 H 0.39129 0.19328 0.72836 0.0
H1292 H 0.26813 0.11026 0.74892 0.0
C1293 C 0.30051 0.15833 0.79586 0.0
C1294 C 0.37241 0.18773 0.76744 0.0
C1295 C 0.29929 0.17064 0.8087 0.0
C1296 C 0.37043 0.14803 0.71274 0.0
C1297 C 0.3697 0.16035 0.72562 0.0
C1298 C 0.29759 0.13141 0.75403 0.0
C1299 C 0.3296 0.1879 0.78682 0.0
C1300 C 0.33234 0.1739 0.77337 0.0
C1301 C 0.3403 0.13104 0.73465 0.0
C1302 C 0.33765 0.14516 0.7481 0.0
H1303 H 0.37728 0.2755 0.80663 0.0
H1304 H 0.37908 0.25412 0.78408 0.0
H1305 H 0.26358 0.13476 0.77072 0.0
H1306 H 0.29077 0.04384 0.71475 0.0
H1307 H 0.28999 0.06512 0.73736 0.0
C1308 C 0.29454 0.24339 0.96373 0.0
C1309 C 0.31277 0.27939 0.95542 0.0
C1310 C 0.29114 0.24805 0.97715 0.0
C1311 C 0.27877 0.31412 1.00119 0.0
H1312 H 0.32907 0.27004 0.02585 0.0
C1313 C 0.2805 0.34588 0.0565 0.0
C1314 C 0.27756 0.3144 0.06518 0.0
C1315 C 0.28547 0.34216 0.04311 0.0
C1316 C 0.31408 0.28189 0.01915 0.0
H1317 H 0.34238 0.34878 0.95501 0.0
H1318 H 0.33434 0.35633 0.97832 0.0
H1319 H 0.33544 0.26149 1.0025 0.0
H1320 H 0.27635 0.25391 0.06679 0.0
H1321 H 0.28282 0.24607 0.04342 0.0
H1322 H 0.2557 0.33297 0.01766 0.0
C1323 C 0.323 0.32463 0.97434 0.0
C1324 C 0.31808 0.27721 1.00577 0.0
C1325 C 0.32727 0.32014 0.96096 0.0
C1326 C 0.27904 0.27883 0.06026 0.0
C1327 C 0.28309 0.2746 0.04686 0.0
C1328 C 0.27394 0.31802 0.01457 0.0
C1329 C 0.30503 0.28865 0.98254 0.0
C1330 C 0.30061 0.29344 0.99669 0.0
C1331 C 0.28669 0.30635 0.03808 0.0
C1332 C 0.29166 0.30209 0.02377 0.0
H1333 H 0.28214 0.2114 0.95988 0.0
H1334 H 0.27682 0.2198 0.9833 0.0
H1335 H 0.26469 0.32655 0.99434 0.0
H1336 H 0.27977 0.37378 0.0601 0.0
H1337 H 0.28899 0.36774 0.03675 0.0
C1338 C 0.04166 0.29398 0.46309 0.0
C1339 C 0.02375 0.31264 0.45502 0.0
C1340 C 0.03358 0.28962 0.47652 0.0
C1341 C 0.99034 0.32717 0.5036 0.0
H1342 H 0.98409 0.22959 0.52171 0.0
C1343 C 0.92424 0.27539 0.55624 0.0
C1344 C 0.95248 0.27143 0.56485 0.0
C1345 C 0.93295 0.28068 0.54285 0.0
C1346 C 0.9859 0.25704 0.51675 0.0
H1347 H 0.98365 0.34207 0.45504 0.0
H1348 H 0.96735 0.33192 0.47813 0.0
H1349 H -0.00144 0.23796 0.49832 0.0
H1350 H 0.01133 0.26898 0.56627 0.0
H1351 H 0.02589 0.27691 0.54275 0.0
H1352 H 0.97586 0.34498 0.52209 0.0
C1353 C 0.98874 0.32168 0.47419 0.0
C1354 C -0.00547 0.26213 0.50336 0.0
C1355 C -0.00251 0.3268 0.46081 0.0
C1356 C 0.9892 0.27216 0.55982 0.0
C1357 C -0.0026 0.27649 0.5464 0.0
C1358 C 0.98081 0.32153 0.51694 0.0
C1359 C 0.00666 0.30305 0.48227 0.0
C1360 C -0.00286 0.29743 0.49658 0.0
C1361 C 0.96952 0.2811 0.53782 0.0
C1362 C 0.97875 0.28657 0.52364 0.0
H1363 H 0.06153 0.28205 0.45906 0.0
H1364 H 0.04871 0.27583 0.48238 0.0
H1365 H -0.00708 0.35525 0.49887 0.0
H1366 H 0.89583 0.27509 0.55991 0.0
H1367 H 0.91092 0.284 0.53639 0.0
C1368 C 0.70924 -0.00251 0.06121 0.0
C1369 C 0.67324 0.96058 0.066 0.0
C1370 C 0.71422 0.00609 0.04781 0.0
C1371 C 0.67256 0.9546 0.01535 0.0
H1372 H 0.73075 0.07252 1.00356 0.0
C1373 C 0.71384 -0.00326 0.96099 0.0
C1374 C 0.71314 0.03261 0.95593 0.0
C1375 C 0.70968 0.98851 0.9744 0.0
C1376 C 0.71387 0.03934 1.00662 0.0
H1377 H 0.61385 0.90402 0.06066 0.0
H1378 H 0.6213 0.91977 0.03733 0.0
H1379 H 0.72015 0.05705 0.02672 0.0
H1380 H 0.70709 0.08778 0.96083 0.0
H1381 H 0.69785 0.07262 0.98418 0.0
H1382 H 0.66404 0.93684 0.99524 0.0
C1383 C 0.64662 0.94151 0.04379 0.0
C1384 C 0.70845 0.03042 0.02 0.0
C1385 C 0.64212 0.93251 0.05717 0.0
C1386 C 0.70814 0.06012 0.96452 0.0
C1387 C 0.7031 0.05146 0.97793 0.0
C1388 C 0.67727 0.96351 1.00197 0.0
C1389 C 0.68285 0.97839 0.03889 0.0
C1390 C 0.68796 0.98791 0.02458 0.0
C1391 C 0.70381 0.0155 0.98308 0.0
C1392 C 0.69826 0.00603 0.99739 0.0
H1393 H 0.73394 0.01939 0.06782 0.0
H1394 H 0.74304 0.03425 0.04448 0.0
H1395 H 0.65717 0.92146 0.01842 0.0
H1396 H 0.7181 0.97528 0.95456 0.0
H1397 H 0.71149 0.96113 0.97794 0.0
C1398 C 0.7067 0.71196 0.56195 0.0
C1399 C 0.70708 0.6757 0.56683 0.0
C1400 C 0.70266 0.71643 0.54855 0.0
C1401 C 0.65688 0.65691 0.51907 0.0
H1402 H 0.74338 0.75639 0.50048 0.0
C1403 C 0.65198 0.67002 0.463 0.0
C1404 C 0.6679 0.71073 0.45729 0.0
C1405 C 0.65678 0.66571 0.47636 0.0
C1406 C 0.71841 0.72876 0.50551 0.0
H1407 H 0.7031 0.61552 0.56171 0.0
H1408 H 0.69458 0.62271 0.53821 0.0
H1409 H 0.75139 0.74931 0.52383 0.0
H1410 H 0.7013 0.77892 0.46145 0.0
H1411 H 0.7069 0.77128 0.48473 0.0
H1412 H 0.62272 0.63696 0.50105 0.0
C1413 C 0.69803 0.64783 0.54476 0.0
C1414 C 0.7233 0.72464 0.51888 0.0
C1415 C 0.70307 0.64382 0.55813 0.0
C1416 C 0.68798 0.74694 0.46542 0.0
C1417 C 0.69199 0.74258 0.47883 0.0
C1418 C 0.65144 0.66143 0.50577 0.0
C1419 C 0.69795 0.68424 0.53987 0.0
C1420 C 0.6927 0.68859 0.52574 0.0
C1421 C 0.67685 0.70192 0.48449 0.0
C1422 C 0.68225 0.69734 0.49876 0.0
H1423 H 0.70989 0.73699 0.5685 0.0
H1424 H 0.70253 0.74469 0.54499 0.0
H1425 H 0.63264 0.62903 0.52423 0.0
H1426 H 0.63561 0.64122 0.45718 0.0
H1427 H 0.6452 0.63385 0.48024 0.0
C1428 C 0.98391 0.65927 0.96195 0.0
C1429 C 0.95773 0.67374 0.95628 0.0
C1430 C -0.00695 0.66431 0.9753 0.0
C1431 C 0.98887 0.7243 1.0045 0.0
H1432 H 0.00669 0.64063 0.02313 0.0
C1433 C -0.00536 0.71351 0.06089 0.0
C1434 C 0.03119 0.71377 0.06585 0.0
C1435 C 0.98641 0.70952 0.04749 0.0
C1436 C 0.002 0.66431 0.018 0.0
H1437 H 0.92045 0.70474 0.9605 0.0
H1438 H 0.93394 0.71083 0.98378 0.0
H1439 H 0.989 0.63048 0.99996 0.0
H1440 H 0.08756 0.70971 0.06082 0.0
H1441 H 0.07241 0.7014 0.03731 0.0
H1442 H 0.00016 0.75695 0.02283 0.0
C1443 C 0.94872 0.69687 0.97784 0.0
C1444 C -0.00789 0.65873 1.0047 0.0
C1445 C 0.94025 0.6926 0.96444 0.0
C1446 C 0.05928 0.70977 0.0572 0.0
C1447 C 0.05054 0.70483 0.04381 0.0
C1448 C -0.00213 0.72934 0.01786 0.0
C1449 C 0.97559 0.68317 0.98346 0.0
C1450 C 0.98557 0.68875 0.99772 0.0
C1451 C 0.0141 0.7048 0.03885 0.0
C1452 C 0.0047 0.6995 0.0247 0.0
H1453 H -0.00259 0.64385 0.9561 0.0
H1454 H 0.01437 0.65385 0.97914 0.0
H1455 H 0.98506 0.74867 0.99949 0.0
H1456 H 0.97263 0.71673 0.06739 0.0
H1457 H 0.95802 0.70941 0.04388 0.0
C1458 C 0.27575 0.92692 0.46474 0.0
C1459 C 0.27063 0.95407 0.45601 0.0
C1460 C 0.28041 0.93585 0.47811 0.0
C1461 C 0.30538 0.02403 0.50183 0.0
H1462 H 0.26056 0.93098 0.52692 0.0
C1463 C 0.29053 0.04511 0.55743 0.0
C1464 C 0.30825 0.02653 0.56564 0.0
C1465 C 0.28646 0.03688 0.54401 0.0
C1466 C 0.27338 0.95724 0.52 0.0
H1467 H 0.26513 0.01107 0.45434 0.0
H1468 H 0.27131 0.02577 0.47769 0.0
H1469 H 0.25103 0.91491 0.50365 0.0
H1470 H 0.33655 0.98541 0.5659 0.0
H1471 H 0.32764 0.9698 0.54262 0.0
H1472 H 0.32632 0.06617 0.51835 0.0
C1473 C 0.27338 -0.00157 0.47427 0.0
C1474 C 0.2682 0.94812 0.50665 0.0
C1475 C 0.26953 0.98991 0.46088 0.0
C1476 C 0.32181 -0.00045 0.56002 0.0
C1477 C 0.31699 0.99074 0.54665 0.0
C1478 C 0.30983 0.03308 0.51519 0.0
C1479 C 0.27925 0.97173 0.48308 0.0
C1480 C 0.28431 0.98139 0.49735 0.0
C1481 C 0.29931 0.00933 0.53853 0.0
C1482 C 0.29408 -0.00023 0.52438 0.0
H1483 H 0.27712 0.8993 0.46118 0.0
H1484 H 0.28568 0.91494 0.4845 0.0
H1485 H 0.31907 0.0506 0.49504 0.0
H1486 H 0.27899 0.06541 0.56136 0.0
H1487 H 0.2724 0.05133 0.53795 0.0
loop_
_geom_bond_atom_site_label_1
_geom_bond_atom_site_label_2
_geom_bond_distance
_geom_bond_site_symmetry_2
_ccdc_geom_bond_type
C0 O16 1.251 . S
C0 O18 1.254 . S
N1 C2 1.333 . S
N1 C6 1.307 . S
N1 Zn7 2.020 . S
C2 N1 1.333 . S
C2 C3 1.379 . S
C2 H20 0.952 . S
C3 C2 1.379 . S
C3 C4 1.390 . S
C3 H30 0.949 . S
C4 C3 1.390 . S
C4 C5 1.357 . S
C5 C4 1.357 . S
C5 C6 1.370 . S
C5 H31 0.950 . S
C6 N1 1.307 . S
C6 C5 1.370 . S
C6 H24 0.948 . S
Zn7 N1 2.020 . S
Zn7 O16 2.039 . S
Zn7 O22 2.034 . S
Zn7 O26 2.025 . S
Zn7 O28 2.024 . S
C8 O27 1.246 . S
C8 O28 1.249 . S
N9 C10 1.307 . S
N9 C11 1.333 . S
N9 Zn15 2.020 . S
C10 N9 1.307 . S
C10 C14 1.370 . S
C10 H21 0.948 . S
C11 N9 1.333 . S
C11 C12 1.379 . S
C11 H19 0.952 . S
C12 C11 1.379 . S
C12 C13 1.390 . S
C12 H32 0.949 . S
C13 C12 1.390 . S
C13 C14 1.357 . S
C14 C10 1.370 . S
C14 C13 1.357 . S
C14 H33 0.950 . S
Zn15 N9 2.020 . S
Zn15 O18 2.025 . S
Zn15 O23 2.024 . S
Zn15 O25 2.039 . S
Zn15 O27 2.034 . S
O16 C0 1.251 . S
O16 Zn7 2.039 . S
C17 O22 1.246 . S
C17 O23 1.249 . S
O18 C0 1.254 . S
O18 Zn15 2.025 . S
H19 C11 0.952 . S
H20 C2 0.952 . S
H21 C10 0.948 . S
O22 Zn7 2.034 . S
O22 C17 1.246 . S
O23 Zn15 2.024 . S
O23 C17 1.249 . S
H24 C6 0.948 . S
O25 Zn15 2.039 . S
O25 C29 1.251 . S
O26 Zn7 2.025 . S
O26 C29 1.254 . S
O27 C8 1.246 . S
O27 Zn15 2.034 . S
O28 Zn7 2.024 . S
O28 C8 1.249 . S
C29 O25 1.251 . S
C29 O26 1.254 . S
H30 C3 0.949 . S
H31 C5 0.950 . S
H32 C12 0.949 . S
H33 C14 0.950 . S
C34 O50 1.251 . S
C34 O52 1.254 . S
N35 C36 1.333 . S
N35 C40 1.307 . S
N35 Zn41 2.020 . S
C36 N35 1.333 . S
C36 C37 1.379 . S
C36 H54 0.952 . S
C37 C36 1.379 . S
C37 C38 1.390 . S
C37 H64 0.949 . S
C38 C37 1.390 . S
C38 C39 1.357 . S
C39 C38 1.357 . S
C39 C40 1.370 . S
C39 H65 0.950 . S
C40 N35 1.307 . S
C40 C39 1.370 . S
C40 H58 0.948 . S
Zn41 N35 2.020 . S
Zn41 O50 2.039 . S
Zn41 O56 2.034 . S
Zn41 O60 2.025 . S
Zn41 O62 2.024 . S
C42 O61 1.246 . S
C42 O62 1.249 . S
N43 C44 1.307 . S
N43 C45 1.333 . S
N43 Zn49 2.020 . S
C44 N43 1.307 . S
C44 C48 1.370 . S
C44 H55 0.948 . S
C45 N43 1.333 . S
C45 C46 1.379 . S
C45 H53 0.952 . S
C46 C45 1.379 . S
C46 C47 1.390 . S
C46 H66 0.949 . S
C47 C46 1.390 . S
C47 C48 1.357 . S
C48 C44 1.370 . S
C48 C47 1.357 . S
C48 H67 0.950 . S
Zn49 N43 2.020 . S
Zn49 O52 2.025 . S
Zn49 O57 2.024 . S
Zn49 O59 2.039 . S
Zn49 O61 2.034 . S
O50 C34 1.251 . S
O50 Zn41 2.039 . S
C51 O56 1.246 . S
C51 O57 1.249 . S
O52 C34 1.254 . S
O52 Zn49 2.025 . S
H53 C45 0.952 . S
H54 C36 0.952 . S
H55 C44 0.948 . S
O56 Zn41 2.034 . S
O56 C51 1.246 . S
O57 Zn49 2.024 . S
O57 C51 1.249 . S
H58 C40 0.948 . S
O59 Zn49 2.039 . S
O59 C63 1.251 . S
O60 Zn41 2.025 . S
O60 C63 1.254 . S
O61 C42 1.246 . S
O61 Zn49 2.034 . S
O62 Zn41 2.024 . S
O62 C42 1.249 . S
C63 O59 1.251 . S
C63 O60 1.254 . S
H64 C37 0.949 . S
H65 C39 0.950 . S
H66 C46 0.949 . S
H67 C48 0.950 . S
C68 O84 1.251 . S
C68 O86 1.254 . S
N69 C70 1.333 . S
N69 C74 1.307 . S
N69 Zn75 2.020 . S
C70 N69 1.333 . S
C70 C71 1.379 . S
C70 H88 0.952 . S
C71 C70 1.379 . S
C71 C72 1.390 . S
C71 H98 0.949 . S
C72 C71 1.390 . S
C72 C73 1.357 . S
C73 C72 1.357 . S
C73 C74 1.370 . S
C73 H99 0.950 . S
C74 N69 1.307 . S
C74 C73 1.370 . S
C74 H92 0.948 . S
Zn75 N69 2.020 . S
Zn75 O84 2.039 . S
Zn75 O90 2.034 . S
Zn75 O94 2.025 . S
Zn75 O96 2.024 . S
C76 O95 1.246 . S
C76 O96 1.249 . S
N77 C78 1.307 . S
N77 C79 1.333 . S
N77 Zn83 2.020 . S
C78 N77 1.307 . S
C78 C82 1.370 . S
C78 H89 0.948 . S
C79 N77 1.333 . S
C79 C80 1.379 . S
C79 H87 0.952 . S
C80 C79 1.379 . S
C80 C81 1.390 . S
C80 H100 0.949 . S
C81 C80 1.390 . S
C81 C82 1.357 . S
C82 C78 1.370 . S
C82 C81 1.357 . S
C82 H101 0.950 . S
Zn83 N77 2.020 . S
Zn83 O86 2.025 . S
Zn83 O91 2.024 . S
Zn83 O93 2.039 . S
Zn83 O95 2.034 . S
O84 C68 1.251 . S
O84 Zn75 2.039 . S
C85 O90 1.246 . S
C85 O91 1.249 . S
O86 C68 1.254 . S
O86 Zn83 2.025 . S
H87 C79 0.952 . S
H88 C70 0.952 . S
H89 C78 0.948 . S
O90 Zn75 2.034 . S
O90 C85 1.246 . S
O91 Zn83 2.024 . S
O91 C85 1.249 . S
H92 C74 0.948 . S
O93 Zn83 2.039 . S
O93 C97 1.251 . S
O94 Zn75 2.025 . S
O94 C97 1.254 . S
O95 C76 1.246 . S
O95 Zn83 2.034 . S
O96 Zn75 2.024 . S
O96 C76 1.249 . S
C97 O93 1.251 . S
C97 O94 1.254 . S
H98 C71 0.949 . S
H99 C73 0.950 . S
H100 C80 0.949 . S
H101 C82 0.950 . S
C102 O118 1.251 . S
C102 O120 1.254 . S
N103 C104 1.333 . S
N103 C108 1.307 . S
N103 Zn109 2.020 . S
C104 N103 1.333 . S
C104 C105 1.379 . S
C104 H122 0.952 . S
C105 C104 1.379 . S
C105 C106 1.390 . S
C105 H132 0.949 . S
C106 C105 1.390 . S
C106 C107 1.357 . S
C107 C106 1.357 . S
C107 C108 1.370 . S
C107 H133 0.950 . S
C108 N103 1.307 . S
C108 C107 1.370 . S
C108 H126 0.948 . S
Zn109 N103 2.020 . S
Zn109 O118 2.039 . S
Zn109 O124 2.034 . S
Zn109 O128 2.025 . S
Zn109 O130 2.024 . S
C110 O129 1.246 . S
C110 O130 1.249 . S
N111 C112 1.307 . S
N111 C113 1.333 . S
N111 Zn117 2.020 . S
C112 N111 1.307 . S
C112 C116 1.370 . S
C112 H123 0.948 . S
C113 N111 1.333 . S
C113 C114 1.379 . S
C113 H121 0.952 . S
C114 C113 1.379 . S
C114 C115 1.390 . S
C114 H134 0.949 . S
C115 C114 1.390 . S
C115 C116 1.357 . S
C116 C112 1.370 . S
C116 C115 1.357 . S
C116 H135 0.950 . S
Zn117 N111 2.020 . S
Zn117 O120 2.025 . S
Zn117 O125 2.024 . S
Zn117 O127 2.039 . S
Zn117 O129 2.034 . S
O118 C102 1.251 . S
O118 Zn109 2.039 . S
C119 O124 1.246 . S
C119 O125 1.249 . S
O120 C102 1.254 . S
O120 Zn117 2.025 . S
H121 C113 0.952 . S
H122 C104 0.952 . S
H123 C112 0.948 . S
O124 Zn109 2.034 . S
O124 C119 1.246 . S
O125 Zn117 2.024 . S
O125 C119 1.249 . S
H126 C108 0.948 . S
O127 Zn117 2.039 . S
O127 C131 1.251 . S
O128 Zn109 2.025 . S
O128 C131 1.254 . S
O129 C110 1.246 . S
O129 Zn117 2.034 . S
O130 Zn109 2.024 . S
O130 C110 1.249 . S
C131 O127 1.251 . S
C131 O128 1.254 . S
H132 C105 0.949 . S
H133 C107 0.950 . S
H134 C114 0.949 . S
H135 C116 0.950 . S
C136 O152 1.251 . S
C136 O154 1.254 . S
N137 C138 1.333 . S
N137 C142 1.307 . S
N137 Zn143 2.020 . S
C138 N137 1.333 . S
C138 C139 1.379 . S
C138 H156 0.952 . S
C139 C138 1.379 . S
C139 C140 1.390 . S
C139 H166 0.949 . S
C140 C139 1.390 . S
C140 C141 1.357 . S
C141 C140 1.357 . S
C141 C142 1.370 . S
C141 H167 0.950 . S
C142 N137 1.307 . S
C142 C141 1.370 . S
C142 H160 0.948 . S
Zn143 N137 2.020 . S
Zn143 O152 2.039 . S
Zn143 O158 2.034 . S
Zn143 O162 2.025 . S
Zn143 O164 2.024 . S
C144 O163 1.246 . S
C144 O164 1.249 . S
N145 C146 1.307 . S
N145 C147 1.333 . S
N145 Zn151 2.020 . S
C146 N145 1.307 . S
C146 C150 1.370 . S
C146 H157 0.948 . S
C147 N145 1.333 . S
C147 C148 1.379 . S
C147 H155 0.952 . S
C148 C147 1.379 . S
C148 C149 1.390 . S
C148 H168 0.949 . S
C149 C148 1.390 . S
C149 C150 1.357 . S
C150 C146 1.370 . S
C150 C149 1.357 . S
C150 H169 0.950 . S
Zn151 N145 2.020 . S
Zn151 O154 2.025 . S
Zn151 O159 2.024 . S
Zn151 O161 2.039 . S
Zn151 O163 2.034 . S
O152 C136 1.251 . S
O152 Zn143 2.039 . S
C153 O158 1.246 . S
C153 O159 1.249 . S
O154 C136 1.254 . S
O154 Zn151 2.025 . S
H155 C147 0.952 . S
H156 C138 0.952 . S
H157 C146 0.948 . S
O158 Zn143 2.034 . S
O158 C153 1.246 . S
O159 Zn151 2.024 . S
O159 C153 1.249 . S
H160 C142 0.948 . S
O161 Zn151 2.039 . S
O161 C165 1.251 . S
O162 Zn143 2.025 . S
O162 C165 1.254 . S
O163 C144 1.246 . S
O163 Zn151 2.034 . S
O164 Zn143 2.024 . S
O164 C144 1.249 . S
C165 O161 1.251 . S
C165 O162 1.254 . S
H166 C139 0.949 . S
H167 C141 0.950 . S
H168 C148 0.949 . S
H169 C150 0.950 . S
C170 O186 1.251 . S
C170 O188 1.254 . S
N171 C172 1.333 . S
N171 C176 1.307 . S
N171 Zn177 2.020 . S
C172 N171 1.333 . S
C172 C173 1.379 . S
C172 H190 0.952 . S
C173 C172 1.379 . S
C173 C174 1.390 . S
C173 H200 0.949 . S
C174 C173 1.390 . S
C174 C175 1.357 . S
C175 C174 1.357 . S
C175 C176 1.370 . S
C175 H201 0.950 . S
C176 N171 1.307 . S
C176 C175 1.370 . S
C176 H194 0.948 . S
Zn177 N171 2.020 . S
Zn177 O186 2.039 . S
Zn177 O192 2.034 . S
Zn177 O196 2.025 . S
Zn177 O198 2.024 . S
C178 O197 1.246 . S
C178 O198 1.249 . S
N179 C180 1.307 . S
N179 C181 1.333 . S
N179 Zn185 2.020 . S
C180 N179 1.307 . S
C180 C184 1.370 . S
C180 H191 0.948 . S
C181 N179 1.333 . S
C181 C182 1.379 . S
C181 H189 0.952 . S
C182 C181 1.379 . S
C182 C183 1.390 . S
C182 H202 0.949 . S
C183 C182 1.390 . S
C183 C184 1.357 . S
C184 C180 1.370 . S
C184 C183 1.357 . S
C184 H203 0.950 . S
Zn185 N179 2.020 . S
Zn185 O188 2.025 . S
Zn185 O193 2.024 . S
Zn185 O195 2.039 . S
Zn185 O197 2.034 . S
O186 C170 1.251 . S
O186 Zn177 2.039 . S
C187 O192 1.246 . S
C187 O193 1.249 . S
O188 C170 1.254 . S
O188 Zn185 2.025 . S
H189 C181 0.952 . S
H190 C172 0.952 . S
H191 C180 0.948 . S
O192 Zn177 2.034 . S
O192 C187 1.246 . S
O193 Zn185 2.024 . S
O193 C187 1.249 . S
H194 C176 0.948 . S
O195 Zn185 2.039 . S
O195 C199 1.251 . S
O196 Zn177 2.025 . S
O196 C199 1.254 . S
O197 C178 1.246 . S
O197 Zn185 2.034 . S
O198 Zn177 2.024 . S
O198 C178 1.249 . S
C199 O195 1.251 . S
C199 O196 1.254 . S
H200 C173 0.949 . S
H201 C175 0.950 . S
H202 C182 0.949 . S
H203 C184 0.950 . S
C204 O220 1.251 . S
C204 O222 1.254 . S
N205 C206 1.333 . S
N205 C210 1.307 . S
N205 Zn211 2.020 . S
C206 N205 1.333 . S
C206 C207 1.379 . S
C206 H224 0.952 . S
C207 C206 1.379 . S
C207 C208 1.390 . S
C207 H234 0.949 . S
C208 C207 1.390 . S
C208 C209 1.357 . S
C209 C208 1.357 . S
C209 C210 1.370 . S
C209 H235 0.950 . S
C210 N205 1.307 . S
C210 C209 1.370 . S
C210 H228 0.948 . S
Zn211 N205 2.020 . S
Zn211 O220 2.039 . S
Zn211 O226 2.034 . S
Zn211 O230 2.025 . S
Zn211 O232 2.024 . S
C212 O231 1.246 . S
C212 O232 1.249 . S
N213 C214 1.307 . S
N213 C215 1.333 . S
N213 Zn219 2.020 . S
C214 N213 1.307 . S
C214 C218 1.370 . S
C214 H225 0.948 . S
C215 N213 1.333 . S
C215 C216 1.379 . S
C215 H223 0.952 . S
C216 C215 1.379 . S
C216 C217 1.390 . S
C216 H236 0.949 . S
C217 C216 1.390 . S
C217 C218 1.357 . S
C218 C214 1.370 . S
C218 C217 1.357 . S
C218 H237 0.950 . S
Zn219 N213 2.020 . S
Zn219 O222 2.025 . S
Zn219 O227 2.024 . S
Zn219 O229 2.039 . S
Zn219 O231 2.034 . S
O220 C204 1.251 . S
O220 Zn211 2.039 . S
C221 O226 1.246 . S
C221 O227 1.249 . S
O222 C204 1.254 . S
O222 Zn219 2.025 . S
H223 C215 0.952 . S
H224 C206 0.952 . S
H225 C214 0.948 . S
O226 Zn211 2.034 . S
O226 C221 1.246 . S
O227 Zn219 2.024 . S
O227 C221 1.249 . S
H228 C210 0.948 . S
O229 Zn219 2.039 . S
O229 C233 1.251 . S
O230 Zn211 2.025 . S
O230 C233 1.254 . S
O231 C212 1.246 . S
O231 Zn219 2.034 . S
O232 Zn211 2.024 . S
O232 C212 1.249 . S
C233 O229 1.251 . S
C233 O230 1.254 . S
H234 C207 0.949 . S
H235 C209 0.950 . S
H236 C216 0.949 . S
H237 C218 0.950 . S
C238 O254 1.251 . S
C238 O256 1.254 . S
N239 C240 1.333 . S
N239 C244 1.307 . S
N239 Zn245 2.020 . S
C240 N239 1.333 . S
C240 C241 1.379 . S
C240 H258 0.952 . S
C241 C240 1.379 . S
C241 C242 1.390 . S
C241 H268 0.949 . S
C242 C241 1.390 . S
C242 C243 1.357 . S
C243 C242 1.357 . S
C243 C244 1.370 . S
C243 H269 0.950 . S
C244 N239 1.307 . S
C244 C243 1.370 . S
C244 H262 0.948 . S
Zn245 N239 2.020 . S
Zn245 O254 2.039 . S
Zn245 O260 2.034 . S
Zn245 O264 2.025 . S
Zn245 O266 2.024 . S
C246 O265 1.246 . S
C246 O266 1.249 . S
N247 C248 1.307 . S
N247 C249 1.333 . S
N247 Zn253 2.020 . S
C248 N247 1.307 . S
C248 C252 1.370 . S
C248 H259 0.948 . S
C249 N247 1.333 . S
C249 C250 1.379 . S
C249 H257 0.952 . S
C250 C249 1.379 . S
C250 C251 1.390 . S
C250 H270 0.949 . S
C251 C250 1.390 . S
C251 C252 1.357 . S
C252 C248 1.370 . S
C252 C251 1.357 . S
C252 H271 0.950 . S
Zn253 N247 2.020 . S
Zn253 O256 2.025 . S
Zn253 O261 2.024 . S
Zn253 O263 2.039 . S
Zn253 O265 2.034 . S
O254 C238 1.251 . S
O254 Zn245 2.039 . S
C255 O260 1.246 . S
C255 O261 1.249 . S
O256 C238 1.254 . S
O256 Zn253 2.025 . S
H257 C249 0.952 . S
H258 C240 0.952 . S
H259 C248 0.948 . S
O260 Zn245 2.034 . S
O260 C255 1.246 . S
O261 Zn253 2.024 . S
O261 C255 1.249 . S
H262 C244 0.948 . S
O263 Zn253 2.039 . S
O263 C267 1.251 . S
O264 Zn245 2.025 . S
O264 C267 1.254 . S
O265 C246 1.246 . S
O265 Zn253 2.034 . S
O266 Zn245 2.024 . S
O266 C246 1.249 . S
C267 O263 1.251 . S
C267 O264 1.254 . S
H268 C241 0.949 . S
H269 C243 0.950 . S
H270 C250 0.949 . S
H271 C252 0.950 . S
C272 O288 1.251 . S
C272 O290 1.254 . S
N273 C274 1.333 . S
N273 C278 1.307 . S
N273 Zn279 2.020 . S
C274 N273 1.333 . S
C274 C275 1.379 . S
C274 H292 0.952 . S
C275 C274 1.379 . S
C275 C276 1.390 . S
C275 H302 0.949 . S
C276 C275 1.390 . S
C276 C277 1.357 . S
C277 C276 1.357 . S
C277 C278 1.370 . S
C277 H303 0.950 . S
C278 N273 1.307 . S
C278 C277 1.370 . S
C278 H296 0.948 . S
Zn279 N273 2.020 . S
Zn279 O288 2.039 . S
Zn279 O294 2.034 . S
Zn279 O298 2.025 . S
Zn279 O300 2.024 . S
C280 O299 1.246 . S
C280 O300 1.249 . S
N281 C282 1.307 . S
N281 C283 1.333 . S
N281 Zn287 2.020 . S
C282 N281 1.307 . S
C282 C286 1.370 . S
C282 H293 0.948 . S
C283 N281 1.333 . S
C283 C284 1.379 . S
C283 H291 0.952 . S
C284 C283 1.379 . S
C284 C285 1.390 . S
C284 H304 0.949 . S
C285 C284 1.390 . S
C285 C286 1.357 . S
C286 C282 1.370 . S
C286 C285 1.357 . S
C286 H305 0.950 . S
Zn287 N281 2.020 . S
Zn287 O290 2.025 . S
Zn287 O295 2.024 . S
Zn287 O297 2.039 . S
Zn287 O299 2.034 . S
O288 C272 1.251 . S
O288 Zn279 2.039 . S
C289 O294 1.246 . S
C289 O295 1.249 . S
O290 C272 1.254 . S
O290 Zn287 2.025 . S
H291 C283 0.952 . S
H292 C274 0.952 . S
H293 C282 0.948 . S
O294 Zn279 2.034 . S
O294 C289 1.246 . S
O295 Zn287 2.024 . S
O295 C289 1.249 . S
H296 C278 0.948 . S
O297 Zn287 2.039 . S
O297 C301 1.251 . S
O298 Zn279 2.025 . S
O298 C301 1.254 . S
O299 C280 1.246 . S
O299 Zn287 2.034 . S
O300 Zn279 2.024 . S
O300 C280 1.249 . S
C301 O297 1.251 . S
C301 O298 1.254 . S
H302 C275 0.949 . S
H303 C277 0.950 . S
H304 C284 0.949 . S
H305 C286 0.950 . S
C306 O322 1.251 . S
C306 O324 1.254 . S
N307 C308 1.333 . S
N307 C312 1.307 . S
N307 Zn313 2.020 . S
C308 N307 1.333 . S
C308 C309 1.379 . S
C308 H326 0.952 . S
C309 C308 1.379 . S
C309 C310 1.390 . S
C309 H336 0.949 . S
C310 C309 1.390 . S
C310 C311 1.357 . S
C311 C310 1.357 . S
C311 C312 1.370 . S
C311 H337 0.950 . S
C312 N307 1.307 . S
C312 C311 1.370 . S
C312 H330 0.948 . S
Zn313 N307 2.020 . S
Zn313 O322 2.039 . S
Zn313 O328 2.034 . S
Zn313 O332 2.025 . S
Zn313 O334 2.024 . S
C314 O333 1.246 . S
C314 O334 1.249 . S
N315 C316 1.307 . S
N315 C317 1.333 . S
N315 Zn321 2.020 . S
C316 N315 1.307 . S
C316 C320 1.370 . S
C316 H327 0.948 . S
C317 N315 1.333 . S
C317 C318 1.379 . S
C317 H325 0.952 . S
C318 C317 1.379 . S
C318 C319 1.390 . S
C318 H338 0.949 . S
C319 C318 1.390 . S
C319 C320 1.357 . S
C320 C316 1.370 . S
C320 C319 1.357 . S
C320 H339 0.950 . S
Zn321 N315 2.020 . S
Zn321 O324 2.025 . S
Zn321 O329 2.024 . S
Zn321 O331 2.039 . S
Zn321 O333 2.034 . S
O322 C306 1.251 . S
O322 Zn313 2.039 . S
C323 O328 1.246 . S
C323 O329 1.249 . S
O324 C306 1.254 . S
O324 Zn321 2.025 . S
H325 C317 0.952 . S
H326 C308 0.952 . S
H327 C316 0.948 . S
O328 Zn313 2.034 . S
O328 C323 1.246 . S
O329 Zn321 2.024 . S
O329 C323 1.249 . S
H330 C312 0.948 . S
O331 Zn321 2.039 . S
O331 C335 1.251 . S
O332 Zn313 2.025 . S
O332 C335 1.254 . S
O333 C314 1.246 . S
O333 Zn321 2.034 . S
O334 Zn313 2.024 . S
O334 C314 1.249 . S
C335 O331 1.251 . S
C335 O332 1.254 . S
H336 C309 0.949 . S
H337 C311 0.950 . S
H338 C318 0.949 . S
H339 C320 0.950 . S
C340 O356 1.251 . S
C340 O358 1.254 . S
N341 C342 1.333 . S
N341 C346 1.307 . S
N341 Zn347 2.020 . S
C342 N341 1.333 . S
C342 C343 1.379 . S
C342 H360 0.952 . S
C343 C342 1.379 . S
C343 C344 1.390 . S
C343 H370 0.949 . S
C344 C343 1.390 . S
C344 C345 1.357 . S
C345 C344 1.357 . S
C345 C346 1.370 . S
C345 H371 0.950 . S
C346 N341 1.307 . S
C346 C345 1.370 . S
C346 H364 0.948 . S
Zn347 N341 2.020 . S
Zn347 O356 2.039 . S
Zn347 O362 2.034 . S
Zn347 O366 2.025 . S
Zn347 O368 2.024 . S
C348 O367 1.246 . S
C348 O368 1.249 . S
N349 C350 1.307 . S
N349 C351 1.333 . S
N349 Zn355 2.020 . S
C350 N349 1.307 . S
C350 C354 1.370 . S
C350 H361 0.948 . S
C351 N349 1.333 . S
C351 C352 1.379 . S
C351 H359 0.952 . S
C352 C351 1.379 . S
C352 C353 1.390 . S
C352 H372 0.949 . S
C353 C352 1.390 . S
C353 C354 1.357 . S
C354 C350 1.370 . S
C354 C353 1.357 . S
C354 H373 0.950 . S
Zn355 N349 2.020 . S
Zn355 O358 2.025 . S
Zn355 O363 2.024 . S
Zn355 O365 2.039 . S
Zn355 O367 2.034 . S
O356 C340 1.251 . S
O356 Zn347 2.039 . S
C357 O362 1.246 . S
C357 O363 1.249 . S
O358 C340 1.254 . S
O358 Zn355 2.025 . S
H359 C351 0.952 . S
H360 C342 0.952 . S
H361 C350 0.948 . S
O362 Zn347 2.034 . S
O362 C357 1.246 . S
O363 Zn355 2.024 . S
O363 C357 1.249 . S
H364 C346 0.948 . S
O365 Zn355 2.039 . S
O365 C369 1.251 . S
O366 Zn347 2.025 . S
O366 C369 1.254 . S
O367 C348 1.246 . S
O367 Zn355 2.034 . S
O368 Zn347 2.024 . S
O368 C348 1.249 . S
C369 O365 1.251 . S
C369 O366 1.254 . S
H370 C343 0.949 . S
H371 C345 0.950 . S
H372 C352 0.949 . S
H373 C354 0.950 . S
C374 O390 1.251 . S
C374 O392 1.254 . S
N375 C376 1.333 . S
N375 C380 1.307 . S
N375 Zn381 2.020 . S
C376 N375 1.333 . S
C376 C377 1.379 . S
C376 H394 0.952 . S
C377 C376 1.379 . S
C377 C378 1.390 . S
C377 H404 0.949 . S
C378 C377 1.390 . S
C378 C379 1.357 . S
C379 C378 1.357 . S
C379 C380 1.370 . S
C379 H405 0.950 . S
C380 N375 1.307 . S
C380 C379 1.370 . S
C380 H398 0.948 . S
Zn381 N375 2.020 . S
Zn381 O390 2.039 . S
Zn381 O396 2.034 . S
Zn381 O400 2.025 . S
Zn381 O402 2.024 . S
C382 O401 1.246 . S
C382 O402 1.249 . S
N383 C384 1.307 . S
N383 C385 1.333 . S
N383 Zn389 2.020 . S
C384 N383 1.307 . S
C384 C388 1.370 . S
C384 H395 0.948 . S
C385 N383 1.333 . S
C385 C386 1.379 . S
C385 H393 0.952 . S
C386 C385 1.379 . S
C386 C387 1.390 . S
C386 H406 0.949 . S
C387 C386 1.390 . S
C387 C388 1.357 . S
C388 C384 1.370 . S
C388 C387 1.357 . S
C388 H407 0.950 . S
Zn389 N383 2.020 . S
Zn389 O392 2.025 . S
Zn389 O397 2.024 . S
Zn389 O399 2.039 . S
Zn389 O401 2.034 . S
O390 C374 1.251 . S
O390 Zn381 2.039 . S
C391 O396 1.246 . S
C391 O397 1.249 . S
O392 C374 1.254 . S
O392 Zn389 2.025 . S
H393 C385 0.952 . S
H394 C376 0.952 . S
H395 C384 0.948 . S
O396 Zn381 2.034 . S
O396 C391 1.246 . S
O397 Zn389 2.024 . S
O397 C391 1.249 . S
H398 C380 0.948 . S
O399 Zn389 2.039 . S
O399 C403 1.251 . S
O400 Zn381 2.025 . S
O400 C403 1.254 . S
O401 C382 1.246 . S
O401 Zn389 2.034 . S
O402 Zn381 2.024 . S
O402 C382 1.249 . S
C403 O399 1.251 . S
C403 O400 1.254 . S
H404 C377 0.949 . S
H405 C379 0.950 . S
H406 C386 0.949 . S
H407 C388 0.950 . S
C408 C409 1.349 . S
C408 C410 1.327 . S
C408 H433 0.950 . S
C409 C408 1.349 . S
C409 C425 1.349 . S
C410 C408 1.327 . S
C410 C429 1.429 . S
C410 H434 0.950 . S
C411 C428 1.574 . S
C411 C430 1.368 . S
C411 H435 0.949 . S
H412 C416 0.949 . S
C413 C414 1.349 . S
C413 C415 1.327 . S
C413 H436 0.950 . S
C414 C413 1.349 . S
C414 C426 1.349 . S
C415 C413 1.327 . S
C415 C431 1.429 . S
C415 H437 0.950 . S
C416 H412 0.949 . S
C416 C424 1.574 . S
C416 C432 1.368 . S
H417 C425 0.950 . S
H418 C423 0.950 . S
H419 C424 0.949 . S
H420 C426 0.950 . S
H421 C427 0.950 . S
H422 C428 0.949 . S
C423 H418 0.950 . S
C423 C425 1.327 . S
C423 C429 1.429 . S
C424 C416 1.574 . S
C424 H419 0.949 . S
C424 C430 1.368 . S
C425 C409 1.349 . S
C425 H417 0.950 . S
C425 C423 1.327 . S
C426 C414 1.349 . S
C426 H420 0.950 . S
C426 C427 1.327 . S
C427 H421 0.950 . S
C427 C426 1.327 . S
C427 C431 1.429 . S
C428 C411 1.574 . S
C428 H422 0.949 . S
C428 C432 1.368 . S
C429 C410 1.429 . S
C429 C423 1.429 . S
C429 C430 1.523 1_565 S
C430 C411 1.368 . S
C430 C424 1.368 . S
C430 C429 1.523 1_545 S
C431 C415 1.429 . S
C431 C427 1.429 . S
C431 C432 1.523 . S
C432 C416 1.368 . S
C432 C428 1.368 . S
C432 C431 1.523 . S
H433 C408 0.950 . S
H434 C410 0.950 . S
H435 C411 0.949 . S
H436 C413 0.950 . S
H437 C415 0.950 . S
C438 C439 1.349 . S
C438 C440 1.327 . S
C438 H463 0.950 . S
C439 C438 1.349 . S
C439 C455 1.349 . S
C440 C438 1.327 . S
C440 C459 1.429 . S
C440 H464 0.950 . S
C441 C458 1.574 . S
C441 C460 1.368 . S
C441 H465 0.949 . S
H442 C446 0.949 . S
C443 C444 1.349 . S
C443 C445 1.327 1_655 S
C443 H466 0.950 . S
C444 C443 1.349 . S
C444 C456 1.349 . S
C445 C443 1.327 1_455 S
C445 C461 1.429 . S
C445 H467 0.950 . S
C446 H442 0.949 . S
C446 C454 1.574 . S
C446 C462 1.368 . S
H447 C455 0.950 . S
H448 C453 0.950 . S
H449 C454 0.949 . S
H450 C456 0.950 . S
H451 C457 0.950 . S
H452 C458 0.949 . S
C453 H448 0.950 . S
C453 C455 1.327 . S
C453 C459 1.429 . S
C454 C446 1.574 . S
C454 H449 0.949 . S
C454 C460 1.368 . S
C455 C439 1.349 . S
C455 H447 0.950 . S
C455 C453 1.327 . S
C456 C444 1.349 . S
C456 H450 0.950 . S
C456 C457 1.327 1_655 S
C457 H451 0.950 . S
C457 C456 1.327 1_455 S
C457 C461 1.429 . S
C458 C441 1.574 . S
C458 H452 0.949 . S
C458 C462 1.368 . S
C459 C440 1.429 . S
C459 C453 1.429 . S
C459 C460 1.523 . S
C460 C441 1.368 . S
C460 C454 1.368 . S
C460 C459 1.523 . S
C461 C445 1.429 . S
C461 C457 1.429 . S
C461 C462 1.523 . S
C462 C446 1.368 . S
C462 C458 1.368 . S
C462 C461 1.523 . S
H463 C438 0.950 . S
H464 C440 0.950 . S
H465 C441 0.949 . S
H466 C443 0.950 . S
H467 C445 0.950 . S
C468 C469 1.352 . S
C468 C470 1.325 1_565 S
C468 H493 0.959 . S
C469 C468 1.352 . S
C469 C485 1.349 . S
C470 C468 1.325 1_545 S
C470 C489 1.429 . S
C470 H494 0.950 . S
C471 C488 1.574 . S
C471 C490 1.368 . S
C471 H495 0.949 . S
H472 C476 0.949 . S
C473 C474 1.349 . S
C473 C475 1.327 . S
C473 H496 0.950 . S
C474 C473 1.349 . S
C474 C486 1.349 . S
C475 C473 1.327 . S
C475 C491 1.429 . S
C475 H497 0.950 . S
C476 H472 0.949 . S
C476 C484 1.574 . S
C476 C492 1.368 . S
H477 C485 0.950 . S
H478 C483 0.954 . S
H479 C484 0.949 . S
H480 C486 0.950 . S
H481 C487 0.950 1_655 S
H482 C488 0.949 . S
C483 H478 0.954 . S
C483 C485 1.330 . S
C483 C489 1.421 1_565 S
C484 C476 1.574 . S
C484 H479 0.949 . S
C484 C490 1.368 . S
C485 C469 1.349 . S
C485 H477 0.950 . S
C485 C483 1.330 . S
C486 C474 1.349 . S
C486 H480 0.950 . S
C486 C487 1.327 . S
C487 H481 0.950 1_455 S
C487 C486 1.327 . S
C487 C491 1.429 . S
C488 C471 1.574 . S
C488 H482 0.949 . S
C488 C492 1.368 . S
C489 C470 1.429 . S
C489 C483 1.421 1_545 S
C489 C490 1.523 . S
C490 C471 1.368 . S
C490 C484 1.368 . S
C490 C489 1.523 . S
C491 C475 1.429 . S
C491 C487 1.429 . S
C491 C492 1.523 1_455 S
C492 C476 1.368 . S
C492 C488 1.368 . S
C492 C491 1.523 1_655 S
H493 C468 0.959 . S
H494 C470 0.950 . S
H495 C471 0.949 . S
H496 C473 0.950 . S
H497 C475 0.950 . S
C498 C499 1.349 . S
C498 C500 1.327 . S
C498 H523 0.950 . S
C499 C498 1.349 . S
C499 C515 1.349 . S
C500 C498 1.327 . S
C500 C519 1.429 . S
C500 H524 0.950 . S
C501 C518 1.574 . S
C501 C520 1.368 . S
C501 H525 0.949 . S
H502 C506 0.949 . S
C503 C504 1.349 . S
C503 C505 1.327 . S
C503 H526 0.950 . S
C504 C503 1.349 . S
C504 C516 1.349 . S
C505 C503 1.327 . S
C505 C521 1.429 . S
C505 H527 0.950 . S
C506 H502 0.949 . S
C506 C514 1.574 . S
C506 C522 1.368 . S
H507 C515 0.950 . S
H508 C513 0.950 . S
H509 C514 0.949 . S
H510 C516 0.950 . S
H511 C517 0.950 . S
H512 C518 0.949 . S
C513 H508 0.950 . S
C513 C515 1.327 . S
C513 C519 1.429 . S
C514 C506 1.574 . S
C514 H509 0.949 . S
C514 C520 1.368 . S
C515 C499 1.349 . S
C515 H507 0.950 . S
C515 C513 1.327 . S
C516 C504 1.349 . S
C516 H510 0.950 . S
C516 C517 1.327 . S
C517 H511 0.950 . S
C517 C516 1.327 . S
C517 C521 1.429 . S
C518 C501 1.574 . S
C518 H512 0.949 . S
C518 C522 1.368 . S
C519 C500 1.429 . S
C519 C513 1.429 . S
C519 C520 1.523 . S
C520 C501 1.368 . S
C520 C514 1.368 . S
C520 C519 1.523 . S
C521 C505 1.429 . S
C521 C517 1.429 . S
C521 C522 1.523 1_545 S
C522 C506 1.368 . S
C522 C518 1.368 . S
C522 C521 1.523 1_565 S
H523 C498 0.950 . S
H524 C500 0.950 . S
H525 C501 0.949 . S
H526 C503 0.950 . S
H527 C505 0.950 . S
C528 C529 1.349 . S
C528 C530 1.301 1_455 S
C528 H553 0.950 . S
C529 C528 1.349 . S
C529 C545 1.349 . S
C530 C528 1.301 1_655 S
C530 C549 1.445 . S
C530 H554 0.948 . S
C531 C548 1.574 . S
C531 C550 1.368 . S
C531 H555 0.949 . S
H532 C536 0.949 . S
C533 C534 1.349 . S
C533 C535 1.327 . S
C533 H556 0.950 . S
C534 C533 1.349 . S
C534 C546 1.349 . S
C535 C533 1.327 . S
C535 C551 1.429 . S
C535 H557 0.950 . S
C536 H532 0.949 . S
C536 C544 1.574 . S
C536 C552 1.368 . S
H537 C545 0.950 . S
H538 C543 0.950 . S
H539 C544 0.949 . S
H540 C546 0.950 . S
H541 C547 0.950 . S
H542 C548 0.949 . S
C543 H538 0.950 . S
C543 C545 1.327 1_655 S
C543 C549 1.429 . S
C544 C536 1.574 . S
C544 H539 0.949 . S
C544 C550 1.368 . S
C545 C529 1.349 . S
C545 H537 0.950 . S
C545 C543 1.327 1_455 S
C546 C534 1.349 . S
C546 H540 0.950 . S
C546 C547 1.327 . S
C547 H541 0.950 . S
C547 C546 1.327 . S
C547 C551 1.429 . S
C548 C531 1.574 . S
C548 H542 0.949 . S
C548 C552 1.368 . S
C549 C530 1.445 . S
C549 C543 1.429 . S
C549 C550 1.523 . S
C550 C531 1.368 . S
C550 C544 1.368 . S
C550 C549 1.523 . S
C551 C535 1.429 . S
C551 C547 1.429 . S
C551 C552 1.523 . S
C552 C536 1.368 . S
C552 C548 1.368 . S
C552 C551 1.523 . S
H553 C528 0.950 . S
H554 C530 0.948 . S
H555 C531 0.949 . S
H556 C533 0.950 . S
H557 C535 0.950 . S
C558 C559 1.349 . S
C558 C560 1.327 . S
C558 H583 0.950 . S
C559 C558 1.349 . S
C559 C575 1.349 . S
C560 C558 1.327 . S
C560 C579 1.429 . S
C560 H584 0.950 . S
C561 C578 1.574 . S
C561 C580 1.368 . S
C561 H585 0.949 . S
H562 C566 0.949 . S
C563 C564 1.349 . S
C563 C565 1.327 1_545 S
C563 H586 0.950 . S
C564 C563 1.349 . S
C564 C576 1.349 . S
C565 C563 1.327 1_565 S
C565 C581 1.429 . S
C565 H587 0.950 . S
C566 H562 0.949 . S
C566 C574 1.574 . S
C566 C582 1.368 . S
H567 C575 0.950 . S
H568 C573 0.950 . S
H569 C574 0.949 . S
H570 C576 0.950 . S
H571 C577 0.950 . S
H572 C578 0.949 . S
C573 H568 0.950 . S
C573 C575 1.327 . S
C573 C579 1.429 . S
C574 C566 1.574 . S
C574 H569 0.949 . S
C574 C580 1.368 . S
C575 C559 1.349 . S
C575 H567 0.950 . S
C575 C573 1.327 . S
C576 C564 1.349 . S
C576 H570 0.950 . S
C576 C577 1.327 1_545 S
C577 H571 0.950 . S
C577 C576 1.327 1_565 S
C577 C581 1.429 . S
C578 C561 1.574 . S
C578 H572 0.949 . S
C578 C582 1.368 . S
C579 C560 1.429 . S
C579 C573 1.429 . S
C579 C580 1.523 1_655 S
C580 C561 1.368 . S
C580 C574 1.368 . S
C580 C579 1.523 1_455 S
C581 C565 1.429 . S
C581 C577 1.429 . S
C581 C582 1.523 . S
C582 C566 1.368 . S
C582 C578 1.368 . S
C582 C581 1.523 . S
H583 C558 0.950 . S
H584 C560 0.950 . S
H585 C561 0.949 . S
H586 C563 0.950 . S
H587 C565 0.950 . S
C588 C589 1.349 . S
C588 C590 1.327 . S
C588 H613 0.950 . S
C589 C588 1.349 . S
C589 C605 1.349 . S
C590 C588 1.327 . S
C590 C609 1.429 . S
C590 H614 0.950 . S
C591 C608 1.574 . S
C591 C610 1.368 . S
C591 H615 0.949 . S
H592 C596 0.949 . S
C593 C594 1.349 . S
C593 C595 1.327 . S
C593 H616 0.950 . S
C594 C593 1.349 . S
C594 C606 1.349 . S
C595 C593 1.327 . S
C595 C611 1.429 . S
C595 H617 0.950 . S
C596 H592 0.949 . S
C596 C604 1.574 . S
C596 C612 1.368 . S
H597 C605 0.950 . S
H598 C603 0.950 . S
H599 C604 0.949 . S
H600 C606 0.950 . S
H601 C607 0.950 . S
H602 C608 0.949 . S
C603 H598 0.950 . S
C603 C605 1.327 . S
C603 C609 1.429 . S
C604 C596 1.574 . S
C604 H599 0.949 . S
C604 C610 1.368 . S
C605 C589 1.349 . S
C605 H597 0.950 . S
C605 C603 1.327 . S
C606 C594 1.349 . S
C606 H600 0.950 . S
C606 C607 1.327 . S
C607 H601 0.950 . S
C607 C606 1.327 . S
C607 C611 1.429 . S
C608 C591 1.574 . S
C608 H602 0.949 . S
C608 C612 1.368 . S
C609 C590 1.429 . S
C609 C603 1.429 . S
C609 C610 1.523 1_455 S
C610 C591 1.368 . S
C610 C604 1.368 . S
C610 C609 1.523 1_655 S
C611 C595 1.429 . S
C611 C607 1.429 . S
C611 C612 1.523 . S
C612 C596 1.368 . S
C612 C608 1.368 . S
C612 C611 1.523 . S
H613 C588 0.950 . S
H614 C590 0.950 . S
H615 C591 0.949 . S
H616 C593 0.950 . S
H617 C595 0.950 . S
C618 C619 1.349 . S
C618 C620 1.327 1_655 S
C618 H643 0.950 . S
C619 C618 1.349 . S
C619 C635 1.349 . S
C620 C618 1.327 1_455 S
C620 C639 1.429 . S
C620 H644 0.950 . S
C621 C638 1.574 . S
C621 C640 1.368 . S
C621 H645 0.949 . S
H622 C626 0.949 . S
C623 C624 1.349 . S
C623 C625 1.327 . S
C623 H646 0.950 . S
C624 C623 1.349 . S
C624 C636 1.349 . S
C625 C623 1.327 . S
C625 C641 1.429 . S
C625 H647 0.950 . S
C626 H622 0.949 . S
C626 C634 1.574 . S
C626 C642 1.368 . S
H627 C635 0.950 . S
H628 C633 0.950 . S
H629 C634 0.949 . S
H630 C636 0.950 . S
H631 C637 0.950 . S
H632 C638 0.949 . S
C633 H628 0.950 . S
C633 C635 1.327 1_455 S
C633 C639 1.429 . S
C634 C626 1.574 . S
C634 H629 0.949 . S
C634 C640 1.368 . S
C635 C619 1.349 . S
C635 H627 0.950 . S
C635 C633 1.327 1_655 S
C636 C624 1.349 . S
C636 H630 0.950 . S
C636 C637 1.327 . S
C637 H631 0.950 . S
C637 C636 1.327 . S
C637 C641 1.429 . S
C638 C621 1.574 . S
C638 H632 0.949 . S
C638 C642 1.368 . S
C639 C620 1.429 . S
C639 C633 1.429 . S
C639 C640 1.523 . S
C640 C621 1.368 . S
C640 C634 1.368 . S
C640 C639 1.523 . S
C641 C625 1.429 . S
C641 C637 1.429 . S
C641 C642 1.523 1_545 S
C642 C626 1.368 . S
C642 C638 1.368 . S
C642 C641 1.523 1_565 S
H643 C618 0.950 . S
H644 C620 0.950 . S
H645 C621 0.949 . S
H646 C623 0.950 . S
H647 C625 0.950 . S
C648 C649 1.349 . S
C648 C650 1.327 . S
C648 H673 0.950 . S
C649 C648 1.349 . S
C649 C665 1.349 . S
C650 C648 1.327 . S
C650 C669 1.429 . S
C650 H674 0.950 . S
C651 C668 1.574 . S
C651 C670 1.368 . S
C651 H675 0.949 . S
H652 C656 0.949 . S
C653 C654 1.349 . S
C653 C655 1.327 1_565 S
C653 H676 0.950 . S
C654 C653 1.349 . S
C654 C666 1.349 . S
C655 C653 1.327 1_545 S
C655 C671 1.429 . S
C655 H677 0.950 . S
C656 H652 0.949 . S
C656 C664 1.574 . S
C656 C672 1.368 . S
H657 C665 0.950 . S
H658 C663 0.950 . S
H659 C664 0.949 . S
H660 C666 0.950 . S
H661 C667 0.950 . S
H662 C668 0.949 . S
C663 H658 0.950 . S
C663 C665 1.327 . S
C663 C669 1.429 . S
C664 C656 1.574 . S
C664 H659 0.949 . S
C664 C670 1.368 . S
C665 C649 1.349 . S
C665 H657 0.950 . S
C665 C663 1.327 . S
C666 C654 1.349 . S
C666 H660 0.950 . S
C666 C667 1.327 1_565 S
C667 H661 0.950 . S
C667 C666 1.327 1_545 S
C667 C671 1.429 . S
C668 C651 1.574 . S
C668 H662 0.949 . S
C668 C672 1.368 . S
C669 C650 1.429 . S
C669 C663 1.429 . S
C669 C670 1.523 . S
C670 C651 1.368 . S
C670 C664 1.368 . S
C670 C669 1.523 . S
C671 C655 1.429 . S
C671 C667 1.429 . S
C671 C672 1.523 . S
C672 C656 1.368 . S
C672 C668 1.368 . S
C672 C671 1.523 . S
H673 C648 0.950 . S
H674 C650 0.950 . S
H675 C651 0.949 . S
H676 C653 0.950 . S
H677 C655 0.950 . S
C678 C679 1.349 . S
C678 C680 1.327 . S
C678 H703 0.950 . S
C679 C678 1.349 . S
C679 C695 1.349 . S
C680 C678 1.327 . S
C680 C699 1.429 . S
C680 H704 0.950 . S
C681 C698 1.574 . S
C681 C700 1.368 . S
C681 H705 0.949 . S
H682 C686 0.949 . S
C683 C684 1.349 . S
C683 C685 1.327 . S
C683 H706 0.950 . S
C684 C683 1.349 . S
C684 C696 1.349 . S
C685 C683 1.327 . S
C685 C701 1.429 . S
C685 H707 0.950 . S
C686 H682 0.949 . S
C686 C694 1.574 . S
C686 C702 1.368 . S
H687 C695 0.950 . S
H688 C693 0.950 . S
H689 C694 0.949 . S
H690 C696 0.950 . S
H691 C697 0.950 1_455 S
H692 C698 0.949 . S
C693 H688 0.950 . S
C693 C695 1.327 . S
C693 C699 1.429 . S
C694 C686 1.574 . S
C694 H689 0.949 . S
C694 C700 1.368 . S
C695 C679 1.349 . S
C695 H687 0.950 . S
C695 C693 1.327 . S
C696 C684 1.349 . S
C696 H690 0.950 . S
C696 C697 1.327 . S
C697 H691 0.950 1_655 S
C697 C696 1.327 . S
C697 C701 1.429 . S
C698 C681 1.574 . S
C698 H692 0.949 . S
C698 C702 1.368 . S
C699 C680 1.429 . S
C699 C693 1.429 . S
C699 C700 1.523 . S
C700 C681 1.368 . S
C700 C694 1.368 . S
C700 C699 1.523 . S
C701 C685 1.429 . S
C701 C697 1.429 . S
C701 C702 1.523 1_655 S
C702 C686 1.368 . S
C702 C698 1.368 . S
C702 C701 1.523 1_455 S
H703 C678 0.950 . S
H704 C680 0.950 . S
H705 C681 0.949 . S
H706 C683 0.950 . S
H707 C685 0.950 . S
C708 C709 1.349 . S
C708 C710 1.327 1_455 S
C708 H733 0.950 . S
C709 C708 1.349 . S
C709 C725 1.349 . S
C710 C708 1.327 1_655 S
C710 C729 1.429 . S
C710 H734 0.950 . S
C711 C728 1.574 . S
C711 C730 1.368 . S
C711 H735 0.949 . S
H712 C716 0.949 . S
C713 C714 1.349 . S
C713 C715 1.327 . S
C713 H736 0.950 . S
C714 C713 1.349 . S
C714 C726 1.349 . S
C715 C713 1.327 . S
C715 C731 1.429 . S
C715 H737 0.950 . S
C716 H712 0.949 . S
C716 C724 1.574 . S
C716 C732 1.368 . S
H717 C725 0.950 . S
H718 C723 0.950 . S
H719 C724 0.949 . S
H720 C726 0.950 . S
H721 C727 0.950 . S
H722 C728 0.949 . S
C723 H718 0.950 . S
C723 C725 1.327 1_655 S
C723 C729 1.429 . S
C724 C716 1.574 . S
C724 H719 0.949 . S
C724 C730 1.368 . S
C725 C709 1.349 . S
C725 H717 0.950 . S
C725 C723 1.327 1_455 S
C726 C714 1.349 . S
C726 H720 0.950 . S
C726 C727 1.327 . S
C727 H721 0.950 . S
C727 C726 1.327 . S
C727 C731 1.429 . S
C728 C711 1.574 . S
C728 H722 0.949 . S
C728 C732 1.368 . S
C729 C710 1.429 . S
C729 C723 1.429 . S
C729 C730 1.523 . S
C730 C711 1.368 . S
C730 C724 1.368 . S
C730 C729 1.523 . S
C731 C715 1.429 . S
C731 C727 1.429 . S
C731 C732 1.523 1_565 S
C732 C716 1.368 . S
C732 C728 1.368 . S
C732 C731 1.523 1_545 S
H733 C708 0.950 . S
H734 C710 0.950 . S
H735 C711 0.949 . S
H736 C713 0.950 . S
H737 C715 0.950 . S
C738 C739 1.349 . S
C738 C740 1.327 . S
C738 H763 0.950 . S
C739 C738 1.349 . S
C739 C755 1.349 . S
C740 C738 1.327 . S
C740 C759 1.429 . S
C740 H764 0.950 . S
C741 C758 1.574 . S
C741 C760 1.368 . S
C741 H765 0.949 . S
H742 C746 0.949 . S
C743 C744 1.349 . S
C743 C745 1.327 1_545 S
C743 H766 0.950 . S
C744 C743 1.349 . S
C744 C756 1.349 . S
C745 C743 1.327 1_565 S
C745 C761 1.429 . S
C745 H767 0.950 . S
C746 H742 0.949 . S
C746 C754 1.574 . S
C746 C762 1.368 . S
H747 C755 0.950 . S
H748 C753 0.950 . S
H749 C754 0.949 . S
H750 C756 0.950 . S
H751 C757 0.950 . S
H752 C758 0.949 . S
C753 H748 0.950 . S
C753 C755 1.327 . S
C753 C759 1.429 . S
C754 C746 1.574 . S
C754 H749 0.949 . S
C754 C760 1.368 . S
C755 C739 1.349 . S
C755 H747 0.950 . S
C755 C753 1.327 . S
C756 C744 1.349 . S
C756 H750 0.950 . S
C756 C757 1.327 1_545 S
C757 H751 0.950 . S
C757 C756 1.327 1_565 S
C757 C761 1.429 . S
C758 C741 1.574 . S
C758 H752 0.949 . S
C758 C762 1.368 . S
C759 C740 1.429 . S
C759 C753 1.429 . S
C759 C760 1.523 . S
C760 C741 1.368 . S
C760 C754 1.368 . S
C760 C759 1.523 . S
C761 C745 1.429 . S
C761 C757 1.429 . S
C761 C762 1.523 . S
C762 C746 1.368 . S
C762 C758 1.368 . S
C762 C761 1.523 . S
H763 C738 0.950 . S
H764 C740 0.950 . S
H765 C741 0.949 . S
H766 C743 0.950 . S
H767 C745 0.950 . S
C768 C769 1.349 . S
C768 C770 1.327 . S
C768 H793 0.950 . S
C769 C768 1.349 . S
C769 C785 1.349 . S
C770 C768 1.327 . S
C770 C789 1.429 . S
C770 H794 0.950 . S
C771 C788 1.574 . S
C771 C790 1.368 . S
C771 H795 0.949 . S
H772 C776 0.949 . S
C773 C774 1.349 . S
C773 C775 1.327 . S
C773 H796 0.950 . S
C774 C773 1.349 . S
C774 C786 1.349 . S
C775 C773 1.327 . S
C775 C791 1.429 . S
C775 H797 0.950 . S
C776 H772 0.949 . S
C776 C784 1.574 . S
C776 C792 1.368 . S
H777 C785 0.950 . S
H778 C783 0.950 . S
H779 C784 0.949 . S
H780 C786 0.950 . S
H781 C787 0.950 . S
H782 C788 0.949 . S
C783 H778 0.950 . S
C783 C785 1.327 . S
C783 C789 1.429 . S
C784 C776 1.574 . S
C784 H779 0.949 . S
C784 C790 1.368 . S
C785 C769 1.349 . S
C785 H777 0.950 . S
C785 C783 1.327 . S
C786 C774 1.349 . S
C786 H780 0.950 . S
C786 C787 1.327 . S
C787 H781 0.950 . S
C787 C786 1.327 . S
C787 C791 1.429 . S
C788 C771 1.574 . S
C788 H782 0.949 . S
C788 C792 1.368 . S
C789 C770 1.429 . S
C789 C783 1.429 . S
C789 C790 1.523 . S
C790 C771 1.368 . S
C790 C784 1.368 . S
C790 C789 1.523 . S
C791 C775 1.429 . S
C791 C787 1.429 . S
C791 C792 1.523 . S
C792 C776 1.368 . S
C792 C788 1.368 . S
C792 C791 1.523 . S
H793 C768 0.950 . S
H794 C770 0.950 . S
H795 C771 0.949 . S
H796 C773 0.950 . S
H797 C775 0.950 . S
C798 C799 1.349 . S
C798 C800 1.327 . S
C798 H823 0.950 . S
C799 C798 1.349 . S
C799 C815 1.349 . S
C800 C798 1.327 . S
C800 C819 1.429 . S
C800 H824 0.950 . S
C801 C818 1.574 . S
C801 C820 1.368 . S
C801 H825 0.949 . S
H802 C806 0.949 . S
C803 C804 1.349 . S
C803 C805 1.327 . S
C803 H826 0.950 . S
C804 C803 1.349 . S
C804 C816 1.349 . S
C805 C803 1.327 . S
C805 C821 1.429 . S
C805 H827 0.950 . S
C806 H802 0.949 . S
C806 C814 1.574 . S
C806 C822 1.368 . S
H807 C815 0.950 . S
H808 C813 0.950 . S
H809 C814 0.949 . S
H810 C816 0.950 . S
H811 C817 0.950 . S
H812 C818 0.949 . S
C813 H808 0.950 . S
C813 C815 1.327 . S
C813 C819 1.429 . S
C814 C806 1.574 . S
C814 H809 0.949 . S
C814 C820 1.368 . S
C815 C799 1.349 . S
C815 H807 0.950 . S
C815 C813 1.327 . S
C816 C804 1.349 . S
C816 H810 0.950 . S
C816 C817 1.327 . S
C817 H811 0.950 . S
C817 C816 1.327 . S
C817 C821 1.429 . S
C818 C801 1.574 . S
C818 H812 0.949 . S
C818 C822 1.368 . S
C819 C800 1.429 . S
C819 C813 1.429 . S
C819 C820 1.523 . S
C820 C801 1.368 . S
C820 C814 1.368 . S
C820 C819 1.523 . S
C821 C805 1.429 . S
C821 C817 1.429 . S
C821 C822 1.523 . S
C822 C806 1.368 . S
C822 C818 1.368 . S
C822 C821 1.523 . S
H823 C798 0.950 . S
H824 C800 0.950 . S
H825 C801 0.949 . S
H826 C803 0.950 . S
H827 C805 0.950 . S
C828 C829 1.349 . S
C828 C830 1.327 . S
C828 H853 0.950 . S
C829 C828 1.349 . S
C829 C845 1.349 . S
C830 C828 1.327 . S
C830 C849 1.429 . S
C830 H854 0.950 . S
C831 C848 1.574 . S
C831 C850 1.368 . S
C831 H855 0.949 . S
H832 C836 0.949 . S
C833 C834 1.349 . S
C833 C835 1.327 . S
C833 H856 0.950 . S
C834 C833 1.349 . S
C834 C846 1.349 . S
C835 C833 1.327 . S
C835 C851 1.429 . S
C835 H857 0.950 . S
C836 H832 0.949 . S
C836 C844 1.574 . S
C836 C852 1.368 . S
H837 C845 0.950 . S
H838 C843 0.950 . S
H839 C844 0.949 . S
H840 C846 0.950 . S
H841 C847 0.950 . S
H842 C848 0.949 . S
C843 H838 0.950 . S
C843 C845 1.327 . S
C843 C849 1.429 . S
C844 C836 1.574 . S
C844 H839 0.949 . S
C844 C850 1.368 . S
C845 C829 1.349 . S
C845 H837 0.950 . S
C845 C843 1.327 . S
C846 C834 1.349 . S
C846 H840 0.950 . S
C846 C847 1.327 . S
C847 H841 0.950 . S
C847 C846 1.327 . S
C847 C851 1.429 . S
C848 C831 1.574 . S
C848 H842 0.949 . S
C848 C852 1.368 . S
C849 C830 1.429 . S
C849 C843 1.429 . S
C849 C850 1.523 . S
C850 C831 1.368 . S
C850 C844 1.368 . S
C850 C849 1.523 . S
C851 C835 1.429 . S
C851 C847 1.429 . S
C851 C852 1.523 . S
C852 C836 1.368 . S
C852 C848 1.368 . S
C852 C851 1.523 . S
H853 C828 0.950 . S
H854 C830 0.950 . S
H855 C831 0.949 . S
H856 C833 0.950 . S
H857 C835 0.950 . S
C858 C859 1.349 . S
C858 C860 1.327 . S
C858 H883 0.950 . S
C859 C858 1.349 . S
C859 C875 1.349 . S
C860 C858 1.327 . S
C860 C879 1.429 . S
C860 H884 0.950 . S
C861 C878 1.574 . S
C861 C880 1.368 . S
C861 H885 0.949 . S
H862 C866 0.949 . S
C863 C864 1.349 . S
C863 C865 1.327 . S
C863 H886 0.950 . S
C864 C863 1.349 . S
C864 C876 1.349 . S
C865 C863 1.327 . S
C865 C881 1.429 . S
C865 H887 0.950 . S
C866 H862 0.949 . S
C866 C874 1.574 . S
C866 C882 1.368 . S
H867 C875 0.950 . S
H868 C873 0.950 . S
H869 C874 0.949 . S
H870 C876 0.950 . S
H871 C877 0.950 . S
H872 C878 0.949 . S
C873 H868 0.950 . S
C873 C875 1.327 . S
C873 C879 1.429 . S
C874 C866 1.574 . S
C874 H869 0.949 . S
C874 C880 1.368 . S
C875 C859 1.349 . S
C875 H867 0.950 . S
C875 C873 1.327 . S
C876 C864 1.349 . S
C876 H870 0.950 . S
C876 C877 1.327 . S
C877 H871 0.950 . S
C877 C876 1.327 . S
C877 C881 1.429 . S
C878 C861 1.574 . S
C878 H872 0.949 . S
C878 C882 1.368 . S
C879 C860 1.429 . S
C879 C873 1.429 . S
C879 C880 1.523 . S
C880 C861 1.368 . S
C880 C874 1.368 . S
C880 C879 1.523 . S
C881 C865 1.429 . S
C881 C877 1.429 . S
C881 C882 1.523 . S
C882 C866 1.368 . S
C882 C878 1.368 . S
C882 C881 1.523 . S
H883 C858 0.950 . S
H884 C860 0.950 . S
H885 C861 0.949 . S
H886 C863 0.950 . S
H887 C865 0.950 . S
C888 C889 1.349 . S
C888 C890 1.327 . S
C888 H913 0.950 . S
C889 C888 1.349 . S
C889 C905 1.349 . S
C890 C888 1.327 . S
C890 C909 1.429 . S
C890 H914 0.950 . S
C891 C908 1.574 . S
C891 C910 1.368 . S
C891 H915 0.949 . S
H892 C896 0.949 . S
C893 C894 1.349 . S
C893 C895 1.327 . S
C893 H916 0.950 . S
C894 C893 1.349 . S
C894 C906 1.349 . S
C895 C893 1.327 . S
C895 C911 1.429 . S
C895 H917 0.950 . S
C896 H892 0.949 . S
C896 C904 1.574 . S
C896 C912 1.368 . S
H897 C905 0.950 . S
H898 C903 0.950 . S
H899 C904 0.949 . S
H900 C906 0.950 . S
H901 C907 0.950 . S
H902 C908 0.949 . S
C903 H898 0.950 . S
C903 C905 1.327 . S
C903 C909 1.429 . S
C904 C896 1.574 . S
C904 H899 0.949 . S
C904 C910 1.368 . S
C905 C889 1.349 . S
C905 H897 0.950 . S
C905 C903 1.327 . S
C906 C894 1.349 . S
C906 H900 0.950 . S
C906 C907 1.327 . S
C907 H901 0.950 . S
C907 C906 1.327 . S
C907 C911 1.429 . S
C908 C891 1.574 . S
C908 H902 0.949 . S
C908 C912 1.368 . S
C909 C890 1.429 . S
C909 C903 1.429 . S
C909 C910 1.523 . S
C910 C891 1.368 . S
C910 C904 1.368 . S
C910 C909 1.523 . S
C911 C895 1.429 . S
C911 C907 1.429 . S
C911 C912 1.523 . S
C912 C896 1.368 . S
C912 C908 1.368 . S
C912 C911 1.523 . S
H913 C888 0.950 . S
H914 C890 0.950 . S
H915 C891 0.949 . S
H916 C893 0.950 . S
H917 C895 0.950 . S
C918 C919 1.349 . S
C918 C920 1.327 . S
C918 H943 0.950 . S
C919 C918 1.349 . S
C919 C935 1.349 . S
C920 C918 1.327 . S
C920 C939 1.429 . S
C920 H944 0.950 . S
C921 C938 1.574 . S
C921 C940 1.368 . S
C921 H945 0.949 . S
H922 C926 0.949 . S
C923 C924 1.349 . S
C923 C925 1.327 . S
C923 H946 0.950 . S
C924 C923 1.349 . S
C924 C936 1.349 . S
C925 C923 1.327 . S
C925 C941 1.429 . S
C925 H947 0.950 . S
C926 H922 0.949 . S
C926 C934 1.574 . S
C926 C942 1.368 . S
H927 C935 0.950 . S
H928 C933 0.950 . S
H929 C934 0.949 . S
H930 C936 0.950 . S
H931 C937 0.950 . S
H932 C938 0.949 . S
C933 H928 0.950 . S
C933 C935 1.327 . S
C933 C939 1.429 . S
C934 C926 1.574 . S
C934 H929 0.949 . S
C934 C940 1.368 . S
C935 C919 1.349 . S
C935 H927 0.950 . S
C935 C933 1.327 . S
C936 C924 1.349 . S
C936 H930 0.950 . S
C936 C937 1.327 . S
C937 H931 0.950 . S
C937 C936 1.327 . S
C937 C941 1.429 . S
C938 C921 1.574 . S
C938 H932 0.949 . S
C938 C942 1.368 . S
C939 C920 1.429 . S
C939 C933 1.429 . S
C939 C940 1.523 . S
C940 C921 1.368 . S
C940 C934 1.368 . S
C940 C939 1.523 . S
C941 C925 1.429 . S
C941 C937 1.429 . S
C941 C942 1.523 . S
C942 C926 1.368 . S
C942 C938 1.368 . S
C942 C941 1.523 . S
H943 C918 0.950 . S
H944 C920 0.950 . S
H945 C921 0.949 . S
H946 C923 0.950 . S
H947 C925 0.950 . S
C948 C949 1.349 . S
C948 C950 1.327 . S
C948 H973 0.950 . S
C949 C948 1.349 . S
C949 C965 1.349 . S
C950 C948 1.327 . S
C950 C969 1.429 . S
C950 H974 0.950 . S
C951 C968 1.574 . S
C951 C970 1.368 . S
C951 H975 0.949 . S
H952 C956 0.949 . S
C953 C954 1.349 . S
C953 C955 1.327 . S
C953 H976 0.950 . S
C954 C953 1.349 . S
C954 C966 1.349 . S
C955 C953 1.327 . S
C955 C971 1.429 . S
C955 H977 0.950 . S
C956 H952 0.949 . S
C956 C964 1.574 . S
C956 C972 1.368 . S
H957 C965 0.950 . S
H958 C963 0.950 . S
H959 C964 0.949 . S
H960 C966 0.950 . S
H961 C967 0.950 . S
H962 C968 0.949 . S
C963 H958 0.950 . S
C963 C965 1.327 . S
C963 C969 1.429 . S
C964 C956 1.574 . S
C964 H959 0.949 . S
C964 C970 1.368 . S
C965 C949 1.349 . S
C965 H957 0.950 . S
C965 C963 1.327 . S
C966 C954 1.349 . S
C966 H960 0.950 . S
C966 C967 1.327 . S
C967 H961 0.950 . S
C967 C966 1.327 . S
C967 C971 1.429 . S
C968 C951 1.574 . S
C968 H962 0.949 . S
C968 C972 1.368 . S
C969 C950 1.429 . S
C969 C963 1.429 . S
C969 C970 1.523 . S
C970 C951 1.368 . S
C970 C964 1.368 . S
C970 C969 1.523 . S
C971 C955 1.429 . S
C971 C967 1.429 . S
C971 C972 1.523 . S
C972 C956 1.368 . S
C972 C968 1.368 . S
C972 C971 1.523 . S
H973 C948 0.950 . S
H974 C950 0.950 . S
H975 C951 0.949 . S
H976 C953 0.950 . S
H977 C955 0.950 . S
C978 C979 1.349 . S
C978 C980 1.327 . S
C978 H1003 0.950 . S
C979 C978 1.349 . S
C979 C995 1.349 . S
C980 C978 1.327 . S
C980 C999 1.429 . S
C980 H1004 0.950 . S
C981 C998 1.574 . S
C981 C1000 1.368 . S
C981 H1005 0.949 . S
H982 C986 0.949 . S
C983 C984 1.349 . S
C983 C985 1.327 . S
C983 H1006 0.950 . S
C984 C983 1.349 . S
C984 C996 1.349 . S
C985 C983 1.327 . S
C985 C1001 1.429 . S
C985 H1007 0.950 . S
C986 H982 0.949 . S
C986 C994 1.574 . S
C986 C1002 1.368 . S
H987 C995 0.950 . S
H988 C993 0.950 . S
H989 C994 0.949 . S
H990 C996 0.950 . S
H991 C997 0.950 . S
H992 C998 0.949 . S
C993 H988 0.950 . S
C993 C995 1.327 . S
C993 C999 1.429 . S
C994 C986 1.574 . S
C994 H989 0.949 . S
C994 C1000 1.368 . S
C995 C979 1.349 . S
C995 H987 0.950 . S
C995 C993 1.327 . S
C996 C984 1.349 . S
C996 H990 0.950 . S
C996 C997 1.327 . S
C997 H991 0.950 . S
C997 C996 1.327 . S
C997 C1001 1.429 . S
C998 C981 1.574 . S
C998 H992 0.949 . S
C998 C1002 1.368 . S
C999 C980 1.429 . S
C999 C993 1.429 . S
C999 C1000 1.523 . S
C1000 C981 1.368 . S
C1000 C994 1.368 . S
C1000 C999 1.523 . S
C1001 C985 1.429 . S
C1001 C997 1.429 . S
C1001 C1002 1.523 . S
C1002 C986 1.368 . S
C1002 C998 1.368 . S
C1002 C1001 1.523 . S
H1003 C978 0.950 . S
H1004 C980 0.950 . S
H1005 C981 0.949 . S
H1006 C983 0.950 . S
H1007 C985 0.950 . S
C1008 C1009 1.349 . S
C1008 C1010 1.327 . S
C1008 H1033 0.950 . S
C1009 C1008 1.349 . S
C1009 C1025 1.349 . S
C1010 C1008 1.327 . S
C1010 C1029 1.429 . S
C1010 H1034 0.950 . S
C1011 C1028 1.574 . S
C1011 C1030 1.368 . S
C1011 H1035 0.949 . S
H1012 C1016 0.949 . S
C1013 C1014 1.349 . S
C1013 C1015 1.327 . S
C1013 H1036 0.950 . S
C1014 C1013 1.349 . S
C1014 C1026 1.349 . S
C1015 C1013 1.327 . S
C1015 C1031 1.429 . S
C1015 H1037 0.950 . S
C1016 H1012 0.949 . S
C1016 C1024 1.574 . S
C1016 C1032 1.368 . S
H1017 C1025 0.950 . S
H1018 C1023 0.950 . S
H1019 C1024 0.949 . S
H1020 C1026 0.950 . S
H1021 C1027 0.950 . S
H1022 C1028 0.949 . S
C1023 H1018 0.950 . S
C1023 C1025 1.327 . S
C1023 C1029 1.429 . S
C1024 C1016 1.574 . S
C1024 H1019 0.949 . S
C1024 C1030 1.368 . S
C1025 C1009 1.349 . S
C1025 H1017 0.950 . S
C1025 C1023 1.327 . S
C1026 C1014 1.349 . S
C1026 H1020 0.950 . S
C1026 C1027 1.327 . S
C1027 H1021 0.950 . S
C1027 C1026 1.327 . S
C1027 C1031 1.429 . S
C1028 C1011 1.574 . S
C1028 H1022 0.949 . S
C1028 C1032 1.368 . S
C1029 C1010 1.429 . S
C1029 C1023 1.429 . S
C1029 C1030 1.523 . S
C1030 C1011 1.368 . S
C1030 C1024 1.368 . S
C1030 C1029 1.523 . S
C1031 C1015 1.429 . S
C1031 C1027 1.429 . S
C1031 C1032 1.523 . S
C1032 C1016 1.368 . S
C1032 C1028 1.368 . S
C1032 C1031 1.523 . S
H1033 C1008 0.950 . S
H1034 C1010 0.950 . S
H1035 C1011 0.949 . S
H1036 C1013 0.950 . S
H1037 C1015 0.950 . S
C1038 C1039 1.349 . S
C1038 C1040 1.327 . S
C1038 H1063 0.950 . S
C1039 C1038 1.349 . S
C1039 C1055 1.349 . S
C1040 C1038 1.327 . S
C1040 C1059 1.429 . S
C1040 H1064 0.950 . S
C1041 C1058 1.574 . S
C1041 C1060 1.368 . S
C1041 H1065 0.949 . S
H1042 C1046 0.949 . S
C1043 C1044 1.349 . S
C1043 C1045 1.327 . S
C1043 H1066 0.950 . S
C1044 C1043 1.349 . S
C1044 C1056 1.349 . S
C1045 C1043 1.327 . S
C1045 C1061 1.429 . S
C1045 H1067 0.950 . S
C1046 H1042 0.949 . S
C1046 C1054 1.574 . S
C1046 C1062 1.368 . S
H1047 C1055 0.950 . S
H1048 C1053 0.950 . S
H1049 C1054 0.949 . S
H1050 C1056 0.950 . S
H1051 C1057 0.950 . S
H1052 C1058 0.949 . S
C1053 H1048 0.950 . S
C1053 C1055 1.327 . S
C1053 C1059 1.429 . S
C1054 C1046 1.574 . S
C1054 H1049 0.949 . S
C1054 C1060 1.368 . S
C1055 C1039 1.349 . S
C1055 H1047 0.950 . S
C1055 C1053 1.327 . S
C1056 C1044 1.349 . S
C1056 H1050 0.950 . S
C1056 C1057 1.327 . S
C1057 H1051 0.950 . S
C1057 C1056 1.327 . S
C1057 C1061 1.429 . S
C1058 C1041 1.574 . S
C1058 H1052 0.949 . S
C1058 C1062 1.368 . S
C1059 C1040 1.429 . S
C1059 C1053 1.429 . S
C1059 C1060 1.523 . S
C1060 C1041 1.368 . S
C1060 C1054 1.368 . S
C1060 C1059 1.523 . S
C1061 C1045 1.429 . S
C1061 C1057 1.429 . S
C1061 C1062 1.523 . S
C1062 C1046 1.368 . S
C1062 C1058 1.368 . S
C1062 C1061 1.523 . S
H1063 C1038 0.950 . S
H1064 C1040 0.950 . S
H1065 C1041 0.949 . S
H1066 C1043 0.950 . S
H1067 C1045 0.950 . S
C1068 C1069 1.349 . S
C1068 C1070 1.327 . S
C1068 H1093 0.950 . S
C1069 C1068 1.349 . S
C1069 C1085 1.349 . S
C1070 C1068 1.327 . S
C1070 C1089 1.429 . S
C1070 H1094 0.950 . S
C1071 C1088 1.574 . S
C1071 C1090 1.368 . S
C1071 H1095 0.949 . S
H1072 C1076 0.949 . S
C1073 C1074 1.349 . S
C1073 C1075 1.327 . S
C1073 H1096 0.950 . S
C1074 C1073 1.349 . S
C1074 C1086 1.349 . S
C1075 C1073 1.327 . S
C1075 C1091 1.429 . S
C1075 H1097 0.950 . S
C1076 H1072 0.949 . S
C1076 C1084 1.574 . S
C1076 C1092 1.368 . S
H1077 C1085 0.950 . S
H1078 C1083 0.950 . S
H1079 C1084 0.949 . S
H1080 C1086 0.950 . S
H1081 C1087 0.950 . S
H1082 C1088 0.949 . S
C1083 H1078 0.950 . S
C1083 C1085 1.327 . S
C1083 C1089 1.429 . S
C1084 C1076 1.574 . S
C1084 H1079 0.949 . S
C1084 C1090 1.368 . S
C1085 C1069 1.349 . S
C1085 H1077 0.950 . S
C1085 C1083 1.327 . S
C1086 C1074 1.349 . S
C1086 H1080 0.950 . S
C1086 C1087 1.327 . S
C1087 H1081 0.950 . S
C1087 C1086 1.327 . S
C1087 C1091 1.429 . S
C1088 C1071 1.574 . S
C1088 H1082 0.949 . S
C1088 C1092 1.368 . S
C1089 C1070 1.429 . S
C1089 C1083 1.429 . S
C1089 C1090 1.523 . S
C1090 C1071 1.368 . S
C1090 C1084 1.368 . S
C1090 C1089 1.523 . S
C1091 C1075 1.429 . S
C1091 C1087 1.429 . S
C1091 C1092 1.523 . S
C1092 C1076 1.368 . S
C1092 C1088 1.368 . S
C1092 C1091 1.523 . S
H1093 C1068 0.950 . S
H1094 C1070 0.950 . S
H1095 C1071 0.949 . S
H1096 C1073 0.950 . S
H1097 C1075 0.950 . S
C1098 C1099 1.349 . S
C1098 C1100 1.327 . S
C1098 H1123 0.950 . S
C1099 C1098 1.349 . S
C1099 C1115 1.349 . S
C1100 C1098 1.327 . S
C1100 C1119 1.429 . S
C1100 H1124 0.950 . S
C1101 C1118 1.574 . S
C1101 C1120 1.368 . S
C1101 H1125 0.949 . S
H1102 C1106 0.949 . S
C1103 C1104 1.349 . S
C1103 C1105 1.327 . S
C1103 H1126 0.950 . S
C1104 C1103 1.349 . S
C1104 C1116 1.349 . S
C1105 C1103 1.327 . S
C1105 C1121 1.429 . S
C1105 H1127 0.950 . S
C1106 H1102 0.949 . S
C1106 C1114 1.574 . S
C1106 C1122 1.368 . S
H1107 C1115 0.950 . S
H1108 C1113 0.950 . S
H1109 C1114 0.949 . S
H1110 C1116 0.950 . S
H1111 C1117 0.950 . S
H1112 C1118 0.949 . S
C1113 H1108 0.950 . S
C1113 C1115 1.327 . S
C1113 C1119 1.429 . S
C1114 C1106 1.574 . S
C1114 H1109 0.949 . S
C1114 C1120 1.368 . S
C1115 C1099 1.349 . S
C1115 H1107 0.950 . S
C1115 C1113 1.327 . S
C1116 C1104 1.349 . S
C1116 H1110 0.950 . S
C1116 C1117 1.327 . S
C1117 H1111 0.950 . S
C1117 C1116 1.327 . S
C1117 C1121 1.429 . S
C1118 C1101 1.574 . S
C1118 H1112 0.949 . S
C1118 C1122 1.368 . S
C1119 C1100 1.429 . S
C1119 C1113 1.429 . S
C1119 C1120 1.523 . S
C1120 C1101 1.368 . S
C1120 C1114 1.368 . S
C1120 C1119 1.523 . S
C1121 C1105 1.429 . S
C1121 C1117 1.429 . S
C1121 C1122 1.523 . S
C1122 C1106 1.368 . S
C1122 C1118 1.368 . S
C1122 C1121 1.523 . S
H1123 C1098 0.950 . S
H1124 C1100 0.950 . S
H1125 C1101 0.949 . S
H1126 C1103 0.950 . S
H1127 C1105 0.950 . S
C1128 C1129 1.349 . S
C1128 C1130 1.327 . S
C1128 H1153 0.950 . S
C1129 C1128 1.349 . S
C1129 C1145 1.349 . S
C1130 C1128 1.327 . S
C1130 C1149 1.429 . S
C1130 H1154 0.950 . S
C1131 C1148 1.574 . S
C1131 C1150 1.368 . S
C1131 H1155 0.949 . S
H1132 C1136 0.949 . S
C1133 C1134 1.349 . S
C1133 C1135 1.327 . S
C1133 H1156 0.950 . S
C1134 C1133 1.349 . S
C1134 C1146 1.349 . S
C1135 C1133 1.327 . S
C1135 C1151 1.429 . S
C1135 H1157 0.950 . S
C1136 H1132 0.949 . S
C1136 C1144 1.574 . S
C1136 C1152 1.368 . S
H1137 C1145 0.950 . S
H1138 C1143 0.950 . S
H1139 C1144 0.949 . S
H1140 C1146 0.950 . S
H1141 C1147 0.950 . S
H1142 C1148 0.949 . S
C1143 H1138 0.950 . S
C1143 C1145 1.327 . S
C1143 C1149 1.429 . S
C1144 C1136 1.574 . S
C1144 H1139 0.949 . S
C1144 C1150 1.368 . S
C1145 C1129 1.349 . S
C1145 H1137 0.950 . S
C1145 C1143 1.327 . S
C1146 C1134 1.349 . S
C1146 H1140 0.950 . S
C1146 C1147 1.327 . S
C1147 H1141 0.950 . S
C1147 C1146 1.327 . S
C1147 C1151 1.429 . S
C1148 C1131 1.574 . S
C1148 H1142 0.949 . S
C1148 C1152 1.368 . S
C1149 C1130 1.429 . S
C1149 C1143 1.429 . S
C1149 C1150 1.523 . S
C1150 C1131 1.368 . S
C1150 C1144 1.368 . S
C1150 C1149 1.523 . S
C1151 C1135 1.429 . S
C1151 C1147 1.429 . S
C1151 C1152 1.523 . S
C1152 C1136 1.368 . S
C1152 C1148 1.368 . S
C1152 C1151 1.523 . S
H1153 C1128 0.950 . S
H1154 C1130 0.950 . S
H1155 C1131 0.949 . S
H1156 C1133 0.950 . S
H1157 C1135 0.950 . S
C1158 C1159 1.349 . S
C1158 C1160 1.327 . S
C1158 H1183 0.950 . S
C1159 C1158 1.349 . S
C1159 C1175 1.349 . S
C1160 C1158 1.327 . S
C1160 C1179 1.429 . S
C1160 H1184 0.950 . S
C1161 C1178 1.574 . S
C1161 C1180 1.368 . S
C1161 H1185 0.949 . S
H1162 C1166 0.949 . S
C1163 C1164 1.349 . S
C1163 C1165 1.327 . S
C1163 H1186 0.950 . S
C1164 C1163 1.349 . S
C1164 C1176 1.349 . S
C1165 C1163 1.327 . S
C1165 C1181 1.429 . S
C1165 H1187 0.950 . S
C1166 H1162 0.949 . S
C1166 C1174 1.574 . S
C1166 C1182 1.368 . S
H1167 C1175 0.950 . S
H1168 C1173 0.950 . S
H1169 C1174 0.949 . S
H1170 C1176 0.950 . S
H1171 C1177 0.950 . S
H1172 C1178 0.949 . S
C1173 H1168 0.950 . S
C1173 C1175 1.327 . S
C1173 C1179 1.429 . S
C1174 C1166 1.574 . S
C1174 H1169 0.949 . S
C1174 C1180 1.368 . S
C1175 C1159 1.349 . S
C1175 H1167 0.950 . S
C1175 C1173 1.327 . S
C1176 C1164 1.349 . S
C1176 H1170 0.950 . S
C1176 C1177 1.327 . S
C1177 H1171 0.950 . S
C1177 C1176 1.327 . S
C1177 C1181 1.429 . S
C1178 C1161 1.574 . S
C1178 H1172 0.949 . S
C1178 C1182 1.368 . S
C1179 C1160 1.429 . S
C1179 C1173 1.429 . S
C1179 C1180 1.523 . S
C1180 C1161 1.368 . S
C1180 C1174 1.368 . S
C1180 C1179 1.523 . S
C1181 C1165 1.429 . S
C1181 C1177 1.429 . S
C1181 C1182 1.523 . S
C1182 C1166 1.368 . S
C1182 C1178 1.368 . S
C1182 C1181 1.523 . S
H1183 C1158 0.950 . S
H1184 C1160 0.950 . S
H1185 C1161 0.949 . S
H1186 C1163 0.950 . S
H1187 C1165 0.950 . S
C1188 C1189 1.349 . S
C1188 C1190 1.327 . S
C1188 H1213 0.950 . S
C1189 C1188 1.349 . S
C1189 C1205 1.349 . S
C1190 C1188 1.327 . S
C1190 C1209 1.429 . S
C1190 H1214 0.950 . S
C1191 C1208 1.574 . S
C1191 C1210 1.368 . S
C1191 H1215 0.949 . S
H1192 C1196 0.949 . S
C1193 C1194 1.349 . S
C1193 C1195 1.327 . S
C1193 H1216 0.950 . S
C1194 C1193 1.349 . S
C1194 C1206 1.349 . S
C1195 C1193 1.327 . S
C1195 C1211 1.429 . S
C1195 H1217 0.950 . S
C1196 H1192 0.949 . S
C1196 C1204 1.574 . S
C1196 C1212 1.368 . S
H1197 C1205 0.950 . S
H1198 C1203 0.950 . S
H1199 C1204 0.949 . S
H1200 C1206 0.950 . S
H1201 C1207 0.950 . S
H1202 C1208 0.949 . S
C1203 H1198 0.950 . S
C1203 C1205 1.327 . S
C1203 C1209 1.429 . S
C1204 C1196 1.574 . S
C1204 H1199 0.949 . S
C1204 C1210 1.368 . S
C1205 C1189 1.349 . S
C1205 H1197 0.950 . S
C1205 C1203 1.327 . S
C1206 C1194 1.349 . S
C1206 H1200 0.950 . S
C1206 C1207 1.327 . S
C1207 H1201 0.950 . S
C1207 C1206 1.327 . S
C1207 C1211 1.429 . S
C1208 C1191 1.574 . S
C1208 H1202 0.949 . S
C1208 C1212 1.368 . S
C1209 C1190 1.429 . S
C1209 C1203 1.429 . S
C1209 C1210 1.523 . S
C1210 C1191 1.368 . S
C1210 C1204 1.368 . S
C1210 C1209 1.523 . S
C1211 C1195 1.429 . S
C1211 C1207 1.429 . S
C1211 C1212 1.523 . S
C1212 C1196 1.368 . S
C1212 C1208 1.368 . S
C1212 C1211 1.523 . S
H1213 C1188 0.950 . S
H1214 C1190 0.950 . S
H1215 C1191 0.949 . S
H1216 C1193 0.950 . S
H1217 C1195 0.950 . S
C1218 C1219 1.349 . S
C1218 C1220 1.327 . S
C1218 H1243 0.950 . S
C1219 C1218 1.349 . S
C1219 C1235 1.349 . S
C1220 C1218 1.327 . S
C1220 C1239 1.429 . S
C1220 H1244 0.950 . S
C1221 C1238 1.574 . S
C1221 C1240 1.368 . S
C1221 H1245 0.949 . S
H1222 C1226 0.949 . S
C1223 C1224 1.349 . S
C1223 C1225 1.327 . S
C1223 H1246 0.950 . S
C1224 C1223 1.349 . S
C1224 C1236 1.349 . S
C1225 C1223 1.327 . S
C1225 C1241 1.429 . S
C1225 H1247 0.950 . S
C1226 H1222 0.949 . S
C1226 C1234 1.574 . S
C1226 C1242 1.368 . S
H1227 C1235 0.950 . S
H1228 C1233 0.950 . S
H1229 C1234 0.949 . S
H1230 C1236 0.950 . S
H1231 C1237 0.950 . S
H1232 C1238 0.949 . S
C1233 H1228 0.950 . S
C1233 C1235 1.327 . S
C1233 C1239 1.429 . S
C1234 C1226 1.574 . S
C1234 H1229 0.949 . S
C1234 C1240 1.368 . S
C1235 C1219 1.349 . S
C1235 H1227 0.950 . S
C1235 C1233 1.327 . S
C1236 C1224 1.349 . S
C1236 H1230 0.950 . S
C1236 C1237 1.327 . S
C1237 H1231 0.950 . S
C1237 C1236 1.327 . S
C1237 C1241 1.429 . S
C1238 C1221 1.574 . S
C1238 H1232 0.949 . S
C1238 C1242 1.368 . S
C1239 C1220 1.429 . S
C1239 C1233 1.429 . S
C1239 C1240 1.523 . S
C1240 C1221 1.368 . S
C1240 C1234 1.368 . S
C1240 C1239 1.523 . S
C1241 C1225 1.429 . S
C1241 C1237 1.429 . S
C1241 C1242 1.523 . S
C1242 C1226 1.368 . S
C1242 C1238 1.368 . S
C1242 C1241 1.523 . S
H1243 C1218 0.950 . S
H1244 C1220 0.950 . S
H1245 C1221 0.949 . S
H1246 C1223 0.950 . S
H1247 C1225 0.950 . S
C1248 C1249 1.349 . S
C1248 C1250 1.327 . S
C1248 H1273 0.950 . S
C1249 C1248 1.349 . S
C1249 C1265 1.349 . S
C1250 C1248 1.327 . S
C1250 C1269 1.429 . S
C1250 H1274 0.950 . S
C1251 C1268 1.574 . S
C1251 C1270 1.368 . S
C1251 H1275 0.949 . S
H1252 C1256 0.949 . S
C1253 C1254 1.349 . S
C1253 C1255 1.327 . S
C1253 H1276 0.950 . S
C1254 C1253 1.349 . S
C1254 C1266 1.349 . S
C1255 C1253 1.327 . S
C1255 C1271 1.429 . S
C1255 H1277 0.950 . S
C1256 H1252 0.949 . S
C1256 C1264 1.574 . S
C1256 C1272 1.368 . S
H1257 C1265 0.950 . S
H1258 C1263 0.950 . S
H1259 C1264 0.949 . S
H1260 C1266 0.950 . S
H1261 C1267 0.950 . S
H1262 C1268 0.949 . S
C1263 H1258 0.950 . S
C1263 C1265 1.327 . S
C1263 C1269 1.429 . S
C1264 C1256 1.574 . S
C1264 H1259 0.949 . S
C1264 C1270 1.368 . S
C1265 C1249 1.349 . S
C1265 H1257 0.950 . S
C1265 C1263 1.327 . S
C1266 C1254 1.349 . S
C1266 H1260 0.950 . S
C1266 C1267 1.327 . S
C1267 H1261 0.950 . S
C1267 C1266 1.327 . S
C1267 C1271 1.429 . S
C1268 C1251 1.574 . S
C1268 H1262 0.949 . S
C1268 C1272 1.368 . S
C1269 C1250 1.429 . S
C1269 C1263 1.429 . S
C1269 C1270 1.523 . S
C1270 C1251 1.368 . S
C1270 C1264 1.368 . S
C1270 C1269 1.523 . S
C1271 C1255 1.429 . S
C1271 C1267 1.429 . S
C1271 C1272 1.523 . S
C1272 C1256 1.368 . S
C1272 C1268 1.368 . S
C1272 C1271 1.523 . S
H1273 C1248 0.950 . S
H1274 C1250 0.950 . S
H1275 C1251 0.949 . S
H1276 C1253 0.950 . S
H1277 C1255 0.950 . S
C1278 C1279 1.349 . S
C1278 C1280 1.327 . S
C1278 H1303 0.950 . S
C1279 C1278 1.349 . S
C1279 C1295 1.349 . S
C1280 C1278 1.327 . S
C1280 C1299 1.429 . S
C1280 H1304 0.950 . S
C1281 C1298 1.574 . S
C1281 C1300 1.368 . S
C1281 H1305 0.949 . S
H1282 C1286 0.949 . S
C1283 C1284 1.349 . S
C1283 C1285 1.327 . S
C1283 H1306 0.950 . S
C1284 C1283 1.349 . S
C1284 C1296 1.349 . S
C1285 C1283 1.327 . S
C1285 C1301 1.429 . S
C1285 H1307 0.950 . S
C1286 H1282 0.949 . S
C1286 C1294 1.574 . S
C1286 C1302 1.368 . S
H1287 C1295 0.950 . S
H1288 C1293 0.950 . S
H1289 C1294 0.949 . S
H1290 C1296 0.950 . S
H1291 C1297 0.950 . S
H1292 C1298 0.949 . S
C1293 H1288 0.950 . S
C1293 C1295 1.327 . S
C1293 C1299 1.429 . S
C1294 C1286 1.574 . S
C1294 H1289 0.949 . S
C1294 C1300 1.368 . S
C1295 C1279 1.349 . S
C1295 H1287 0.950 . S
C1295 C1293 1.327 . S
C1296 C1284 1.349 . S
C1296 H1290 0.950 . S
C1296 C1297 1.327 . S
C1297 H1291 0.950 . S
C1297 C1296 1.327 . S
C1297 C1301 1.429 . S
C1298 C1281 1.574 . S
C1298 H1292 0.949 . S
C1298 C1302 1.368 . S
C1299 C1280 1.429 . S
C1299 C1293 1.429 . S
C1299 C1300 1.523 . S
C1300 C1281 1.368 . S
C1300 C1294 1.368 . S
C1300 C1299 1.523 . S
C1301 C1285 1.429 . S
C1301 C1297 1.429 . S
C1301 C1302 1.523 . S
C1302 C1286 1.368 . S
C1302 C1298 1.368 . S
C1302 C1301 1.523 . S
H1303 C1278 0.950 . S
H1304 C1280 0.950 . S
H1305 C1281 0.949 . S
H1306 C1283 0.950 . S
H1307 C1285 0.950 . S
C1308 C1309 1.349 . S
C1308 C1310 1.327 . S
C1308 H1333 0.950 . S
C1309 C1308 1.349 . S
C1309 C1325 1.349 . S
C1310 C1308 1.327 . S
C1310 C1329 1.429 . S
C1310 H1334 0.950 . S
C1311 C1328 1.574 1_556 S
C1311 C1330 1.368 . S
C1311 H1335 0.949 . S
H1312 C1316 0.949 . S
C1313 C1314 1.349 . S
C1313 C1315 1.327 . S
C1313 H1336 0.950 . S
C1314 C1313 1.349 . S
C1314 C1326 1.349 . S
C1315 C1313 1.327 . S
C1315 C1331 1.429 . S
C1315 H1337 0.950 . S
C1316 H1312 0.949 . S
C1316 C1324 1.574 1_554 S
C1316 C1332 1.368 . S
H1317 C1325 0.950 . S
H1318 C1323 0.950 . S
H1319 C1324 0.949 . S
H1320 C1326 0.950 . S
H1321 C1327 0.950 . S
H1322 C1328 0.949 . S
C1323 H1318 0.950 . S
C1323 C1325 1.327 . S
C1323 C1329 1.429 . S
C1324 C1316 1.574 1_556 S
C1324 H1319 0.949 . S
C1324 C1330 1.368 . S
C1325 C1309 1.349 . S
C1325 H1317 0.950 . S
C1325 C1323 1.327 . S
C1326 C1314 1.349 . S
C1326 H1320 0.950 . S
C1326 C1327 1.327 . S
C1327 H1321 0.950 . S
C1327 C1326 1.327 . S
C1327 C1331 1.429 . S
C1328 C1311 1.574 1_554 S
C1328 H1322 0.949 . S
C1328 C1332 1.368 . S
C1329 C1310 1.429 . S
C1329 C1323 1.429 . S
C1329 C1330 1.523 . S
C1330 C1311 1.368 . S
C1330 C1324 1.368 . S
C1330 C1329 1.523 . S
C1331 C1315 1.429 . S
C1331 C1327 1.429 . S
C1331 C1332 1.523 . S
C1332 C1316 1.368 . S
C1332 C1328 1.368 . S
C1332 C1331 1.523 . S
H1333 C1308 0.950 . S
H1334 C1310 0.950 . S
H1335 C1311 0.949 . S
H1336 C1313 0.950 . S
H1337 C1315 0.950 . S
C1338 C1339 1.349 . S
C1338 C1340 1.327 . S
C1338 H1363 0.950 . S
C1339 C1338 1.349 . S
C1339 C1355 1.349 . S
C1340 C1338 1.327 . S
C1340 C1359 1.429 . S
C1340 H1364 0.950 . S
C1341 C1358 1.574 1_455 S
C1341 C1360 1.368 . S
C1341 H1365 0.949 . S
H1342 C1346 0.949 . S
C1343 C1344 1.349 . S
C1343 C1345 1.327 . S
C1343 H1366 0.950 . S
C1344 C1343 1.349 . S
C1344 C1356 1.349 . S
C1345 C1343 1.327 . S
C1345 C1361 1.429 . S
C1345 H1367 0.950 . S
C1346 H1342 0.949 . S
C1346 C1354 1.574 1_655 S
C1346 C1362 1.368 . S
H1347 C1355 0.950 . S
H1348 C1353 0.950 . S
H1349 C1354 0.949 . S
H1350 C1356 0.950 . S
H1351 C1357 0.950 . S
H1352 C1358 0.949 . S
C1353 H1348 0.950 . S
C1353 C1355 1.327 . S
C1353 C1359 1.429 . S
C1354 C1346 1.574 1_455 S
C1354 H1349 0.949 . S
C1354 C1360 1.368 . S
C1355 C1339 1.349 . S
C1355 H1347 0.950 . S
C1355 C1353 1.327 . S
C1356 C1344 1.349 . S
C1356 H1350 0.950 . S
C1356 C1357 1.327 . S
C1357 H1351 0.950 . S
C1357 C1356 1.327 . S
C1357 C1361 1.429 . S
C1358 C1341 1.574 1_655 S
C1358 H1352 0.949 . S
C1358 C1362 1.368 . S
C1359 C1340 1.429 . S
C1359 C1353 1.429 . S
C1359 C1360 1.523 . S
C1360 C1341 1.368 . S
C1360 C1354 1.368 . S
C1360 C1359 1.523 . S
C1361 C1345 1.429 . S
C1361 C1357 1.429 . S
C1361 C1362 1.523 . S
C1362 C1346 1.368 . S
C1362 C1358 1.368 . S
C1362 C1361 1.523 . S
H1363 C1338 0.950 . S
H1364 C1340 0.950 . S
H1365 C1341 0.949 . S
H1366 C1343 0.950 . S
H1367 C1345 0.950 . S
C1368 C1369 1.349 . S
C1368 C1370 1.327 . S
C1368 H1393 0.950 . S
C1369 C1368 1.349 . S
C1369 C1385 1.349 . S
C1370 C1368 1.327 . S
C1370 C1389 1.429 . S
C1370 H1394 0.950 1_565 S
C1371 C1388 1.511 1_554 S
C1371 C1390 1.425 . S
C1371 H1395 0.958 . S
H1372 C1376 0.958 . S
C1373 C1374 1.349 . S
C1373 C1375 1.327 . S
C1373 H1396 0.950 . S
C1374 C1373 1.349 . S
C1374 C1386 1.349 . S
C1375 C1373 1.327 . S
C1375 C1391 1.429 . S
C1375 H1397 0.950 1_545 S
C1376 H1372 0.958 . S
C1376 C1384 1.511 1_556 S
C1376 C1392 1.425 . S
H1377 C1385 0.950 . S
H1378 C1383 0.950 . S
H1379 C1384 0.949 . S
H1380 C1386 0.950 . S
H1381 C1387 0.950 . S
H1382 C1388 0.949 . S
C1383 H1378 0.950 . S
C1383 C1385 1.327 . S
C1383 C1389 1.429 . S
C1384 C1376 1.511 1_554 S
C1384 H1379 0.949 . S
C1384 C1390 1.368 1_545 S
C1385 C1369 1.349 . S
C1385 H1377 0.950 . S
C1385 C1383 1.327 . S
C1386 C1374 1.349 . S
C1386 H1380 0.950 . S
C1386 C1387 1.327 . S
C1387 H1381 0.950 . S
C1387 C1386 1.327 . S
C1387 C1391 1.429 . S
C1388 C1371 1.511 1_556 S
C1388 H1382 0.949 . S
C1388 C1392 1.368 1_565 S
C1389 C1370 1.429 . S
C1389 C1383 1.429 . S
C1389 C1390 1.523 . S
C1390 C1371 1.425 . S
C1390 C1384 1.368 1_565 S
C1390 C1389 1.523 . S
C1391 C1375 1.429 . S
C1391 C1387 1.429 . S
C1391 C1392 1.523 . S
C1392 C1376 1.425 . S
C1392 C1388 1.368 1_545 S
C1392 C1391 1.523 . S
H1393 C1368 0.950 . S
H1394 C1370 0.950 1_545 S
H1395 C1371 0.958 . S
H1396 C1373 0.950 . S
H1397 C1375 0.950 1_565 S
C1398 C1399 1.349 . S
C1398 C1400 1.327 . S
C1398 H1423 0.950 . S
C1399 C1398 1.349 . S
C1399 C1415 1.349 . S
C1400 C1398 1.327 . S
C1400 C1419 1.429 . S
C1400 H1424 0.950 . S
C1401 C1418 1.574 . S
C1401 C1420 1.368 . S
C1401 H1425 0.949 . S
H1402 C1406 0.949 . S
C1403 C1404 1.349 . S
C1403 C1405 1.327 . S
C1403 H1426 0.950 . S
C1404 C1403 1.349 . S
C1404 C1416 1.349 . S
C1405 C1403 1.327 . S
C1405 C1421 1.429 . S
C1405 H1427 0.950 . S
C1406 H1402 0.949 . S
C1406 C1414 1.574 . S
C1406 C1422 1.368 . S
H1407 C1415 0.950 . S
H1408 C1413 0.950 . S
H1409 C1414 0.949 . S
H1410 C1416 0.950 . S
H1411 C1417 0.950 . S
H1412 C1418 0.949 . S
C1413 H1408 0.950 . S
C1413 C1415 1.327 . S
C1413 C1419 1.429 . S
C1414 C1406 1.574 . S
C1414 H1409 0.949 . S
C1414 C1420 1.368 . S
C1415 C1399 1.349 . S
C1415 H1407 0.950 . S
C1415 C1413 1.327 . S
C1416 C1404 1.349 . S
C1416 H1410 0.950 . S
C1416 C1417 1.327 . S
C1417 H1411 0.950 . S
C1417 C1416 1.327 . S
C1417 C1421 1.429 . S
C1418 C1401 1.574 . S
C1418 H1412 0.949 . S
C1418 C1422 1.368 . S
C1419 C1400 1.429 . S
C1419 C1413 1.429 . S
C1419 C1420 1.523 . S
C1420 C1401 1.368 . S
C1420 C1414 1.368 . S
C1420 C1419 1.523 . S
C1421 C1405 1.429 . S
C1421 C1417 1.429 . S
C1421 C1422 1.523 . S
C1422 C1406 1.368 . S
C1422 C1418 1.368 . S
C1422 C1421 1.523 . S
H1423 C1398 0.950 . S
H1424 C1400 0.950 . S
H1425 C1401 0.949 . S
H1426 C1403 0.950 . S
H1427 C1405 0.950 . S
C1428 C1429 1.349 . S
C1428 C1430 1.327 . S
C1428 H1453 0.950 . S
C1429 C1428 1.349 . S
C1429 C1445 1.349 . S
C1430 C1428 1.327 . S
C1430 C1449 1.429 . S
C1430 H1454 0.950 . S
C1431 C1448 1.574 1_656 S
C1431 C1450 1.368 . S
C1431 H1455 0.949 . S
H1432 C1436 0.949 . S
C1433 C1434 1.349 . S
C1433 C1435 1.327 . S
C1433 H1456 0.950 . S
C1434 C1433 1.349 . S
C1434 C1446 1.349 . S
C1435 C1433 1.327 . S
C1435 C1451 1.429 . S
C1435 H1457 0.950 . S
C1436 H1432 0.949 . S
C1436 C1444 1.574 1_454 S
C1436 C1452 1.368 . S
H1437 C1445 0.950 . S
H1438 C1443 0.950 . S
H1439 C1444 0.949 . S
H1440 C1446 0.950 . S
H1441 C1447 0.950 . S
H1442 C1448 0.949 . S
C1443 H1438 0.950 . S
C1443 C1445 1.327 . S
C1443 C1449 1.429 . S
C1444 C1436 1.574 1_656 S
C1444 H1439 0.949 . S
C1444 C1450 1.368 . S
C1445 C1429 1.349 . S
C1445 H1437 0.950 . S
C1445 C1443 1.327 . S
C1446 C1434 1.349 . S
C1446 H1440 0.950 . S
C1446 C1447 1.327 . S
C1447 H1441 0.950 . S
C1447 C1446 1.327 . S
C1447 C1451 1.429 . S
C1448 C1431 1.574 1_454 S
C1448 H1442 0.949 . S
C1448 C1452 1.368 . S
C1449 C1430 1.429 . S
C1449 C1443 1.429 . S
C1449 C1450 1.523 . S
C1450 C1431 1.368 . S
C1450 C1444 1.368 . S
C1450 C1449 1.523 . S
C1451 C1435 1.429 . S
C1451 C1447 1.429 . S
C1451 C1452 1.523 . S
C1452 C1436 1.368 . S
C1452 C1448 1.368 . S
C1452 C1451 1.523 . S
H1453 C1428 0.950 . S
H1454 C1430 0.950 . S
H1455 C1431 0.949 . S
H1456 C1433 0.950 . S
H1457 C1435 0.950 . S
C1458 C1459 1.349 . S
C1458 C1460 1.327 . S
C1458 H1483 0.950 . S
C1459 C1458 1.349 . S
C1459 C1475 1.349 . S
C1460 C1458 1.327 . S
C1460 C1479 1.429 . S
C1460 H1484 0.950 . S
C1461 C1478 1.574 . S
C1461 C1480 1.368 1_545 S
C1461 H1485 0.949 . S
H1462 C1466 0.949 . S
C1463 C1464 1.349 . S
C1463 C1465 1.327 . S
C1463 H1486 0.950 . S
C1464 C1463 1.349 . S
C1464 C1476 1.349 . S
C1465 C1463 1.327 . S
C1465 C1481 1.429 . S
C1465 H1487 0.950 . S
C1466 H1462 0.949 . S
C1466 C1474 1.574 . S
C1466 C1482 1.368 1_565 S
H1467 C1475 0.950 . S
H1468 C1473 0.950 . S
H1469 C1474 0.949 . S
H1470 C1476 0.950 . S
H1471 C1477 0.950 . S
H1472 C1478 0.949 . S
C1473 H1468 0.950 . S
C1473 C1475 1.327 . S
C1473 C1479 1.429 . S
C1474 C1466 1.574 . S
C1474 H1469 0.949 . S
C1474 C1480 1.368 . S
C1475 C1459 1.349 . S
C1475 H1467 0.950 . S
C1475 C1473 1.327 . S
C1476 C1464 1.349 . S
C1476 H1470 0.950 . S
C1476 C1477 1.327 . S
C1477 H1471 0.950 . S
C1477 C1476 1.327 . S
C1477 C1481 1.429 . S
C1478 C1461 1.574 . S
C1478 H1472 0.949 . S
C1478 C1482 1.368 . S
C1479 C1460 1.429 . S
C1479 C1473 1.429 . S
C1479 C1480 1.523 . S
C1480 C1461 1.368 1_565 S
C1480 C1474 1.368 . S
C1480 C1479 1.523 . S
C1481 C1465 1.429 . S
C1481 C1477 1.429 . S
C1481 C1482 1.523 . S
C1482 C1466 1.368 1_545 S
C1482 C1478 1.368 . S
C1482 C1481 1.523 . S
H1483 C1458 0.950 . S
H1484 C1460 0.950 . S
H1485 C1461 0.949 . S
H1486 C1463 0.950 . S
H1487 C1465 0.950 . S
C409 C144 0.711 . S
C414 C0 0.713 . S
C439 C178 0.711 . S
C444 C34 0.713 . S
C469 C68 0.713 . S
C474 C8 0.710 . S
C499 C102 0.713 . S
C504 C42 0.711 . S
C529 C136 0.714 . S
C534 C76 0.711 . S
C559 C110 0.710 . S
C564 C170 0.713 . S
C589 C280 0.711 . S
C594 C204 0.713 . S
C619 C238 0.713 . S
C624 C314 0.710 . S
C649 C348 0.711 . S
C654 C272 0.714 . S
C679 C306 0.713 . S
C684 C382 0.711 . S
C709 C340 0.713 . S
C714 C212 0.710 . S
C739 C246 0.711 . S
C744 C374 0.713 . S
C769 C153 1.004 . S
C774 C29 1.011 . S
C799 C63 1.010 . S
C804 C187 1.004 . S
C829 C97 1.010 . S
C834 C17 1.004 . S
C859 C131 1.011 . S
C864 C51 1.004 . S
C889 C85 1.004 . S
C894 C165 1.010 . S
C919 C119 1.004 . S
C924 C199 1.010 . S
C949 C289 1.004 . S
C954 C233 1.011 . S
C979 C267 1.010 . S
C984 C323 1.004 . S
C1009 C301 1.010 . S
C1014 C357 1.004 . S
C1039 C391 1.004 . S
C1044 C335 1.011 . S
C1069 C369 1.010 . S
C1074 C221 1.004 . S
C1099 C255 1.004 . S
C1104 C403 1.010 . S
C1129 C353 1.589 . S
C1134 C13 1.589 . S
C1159 C47 1.589 . S
C1164 C387 1.589 . S
C1189 C81 1.589 . S
C1194 C217 1.589 . S
C1219 C115 1.589 . S
C1224 C251 1.589 . S
C1249 C149 1.589 . S
C1254 C285 1.589 . S
C1279 C319 1.589 . S
C1284 C183 1.589 . S
C1309 C310 1.787 . S
C1314 C4 1.787 . S
C1339 C344 1.786 . S
C1344 C38 1.786 . S
C1369 C72 1.786 . S
C1374 C378 1.786 . S
C1399 C106 1.787 . S
C1404 C208 1.787 . S
C1429 C242 1.786 . S
C1434 C140 1.786 . S
C1459 C276 1.786 . S
C1464 C174 1.786 . S
