# Generated by pormake.
# Topology sne, (6)-cn, num edge types: 1
# Building blocks:
#     Node 0, Type 0, BuildingBlock: OJICUG_clean_sbu_0, # of connection points: 6
#     Node 1, Type 0, BuildingBlock: OJICUG_clean_sbu_0, # of connection points: 6
#     Node 2, Type 0, BuildingBlock: OJICUG_clean_sbu_0, # of connection points: 6
#     Node 3, Type 0, BuildingBlock: OJICUG_clean_sbu_0, # of connection points: 6
#     Node 4, Type 0, BuildingBlock: OJICUG_clean_sbu_0, # of connection points: 6
#     Node 5, Type 0, BuildingBlock: OJICUG_clean_sbu_0, # of connection points: 6
#     Node 6, Type 0, BuildingBlock: OJICUG_clean_sbu_0, # of connection points: 6
#     Node 7, Type 0, BuildingBlock: OJICUG_clean_sbu_0, # of connection points: 6
#     Edge 8, Type (0, 0), BuildingBlock: XUDNAN_clean_linker_2, # of connection points: 2
#     Edge 9, Type (0, 0), BuildingBlock: XUDNAN_clean_linker_2, # of connection points: 2
#     Edge 10, Type (0, 0), BuildingBlock: XUDNAN_clean_linker_2, # of connection points: 2
#     Edge 11, Type (0, 0), BuildingBlock: XUDNAN_clean_linker_2, # of connection points: 2
#     Edge 12, Type (0, 0), BuildingBlock: XUDNAN_clean_linker_2, # of connection points: 2
#     Edge 13, Type (0, 0), BuildingBlock: XUDNAN_clean_linker_2, # of connection points: 2
#     Edge 14, Type (0, 0), BuildingBlock: XUDNAN_clean_linker_2, # of connection points: 2
#     Edge 15, Type (0, 0), BuildingBlock: XUDNAN_clean_linker_2, # of connection points: 2
#     Edge 16, Type (0, 0), BuildingBlock: XUDNAN_clean_linker_2, # of connection points: 2
#     Edge 17, Type (0, 0), BuildingBlock: XUDNAN_clean_linker_2, # of connection points: 2
#     Edge 18, Type (0, 0), BuildingBlock: XUDNAN_clean_linker_2, # of connection points: 2
#     Edge 19, Type (0, 0), BuildingBlock: XUDNAN_clean_linker_2, # of connection points: 2
#     Edge 20, Type (0, 0), BuildingBlock: XUDNAN_clean_linker_2, # of connection points: 2
#     Edge 21, Type (0, 0), BuildingBlock: XUDNAN_clean_linker_2, # of connection points: 2
#     Edge 22, Type (0, 0), BuildingBlock: XUDNAN_clean_linker_2, # of connection points: 2
#     Edge 23, Type (0, 0), BuildingBlock: XUDNAN_clean_linker_2, # of connection points: 2
#     Edge 24, Type (0, 0), BuildingBlock: XUDNAN_clean_linker_2, # of connection points: 2
#     Edge 25, Type (0, 0), BuildingBlock: XUDNAN_clean_linker_2, # of connection points: 2
#     Edge 26, Type (0, 0), BuildingBlock: XUDNAN_clean_linker_2, # of connection points: 2
#     Edge 27, Type (0, 0), BuildingBlock: XUDNAN_clean_linker_2, # of connection points: 2
#     Edge 28, Type (0, 0), BuildingBlock: XUDNAN_clean_linker_2, # of connection points: 2
#     Edge 29, Type (0, 0), BuildingBlock: XUDNAN_clean_linker_2, # of connection points: 2
#     Edge 30, Type (0, 0), BuildingBlock: XUDNAN_clean_linker_2, # of connection points: 2
#     Edge 31, Type (0, 0), BuildingBlock: XUDNAN_clean_linker_2, # of connection points: 2
# Relax obj value: 0.189
# Max RMSD: 0.224
# Mean RMSD: 0.224
data_MOF--net-sne--node1-OJICUG_clean_sbu_0--edge1-XUDNAN_clean_linker_2
_symmetry_space_group_name_H-M    P1
_symmetry_Int_Tables_number       1
_symmetry_cell_setting            triclinic
loop_
_symmetry_equiv_pos_as_xyz
'x, y, z'
_cell_length_a     34.720723
_cell_length_b     34.907687
_cell_length_c     28.356758
_cell_angle_alpha  90.180241
_cell_angle_beta   90.11584
_cell_angle_gamma 89.951006
loop_
_atom_site_label
_atom_site_type_symbol
_atom_site_fract_x
_atom_site_fract_y
_atom_site_fract_z
_atom_type_partial_charge
Sc0 Sc 0.33945 0.11971 0.4495 0.0
Sc1 Sc 0.25378 0.10881 0.38479 0.0
Sc2 Sc 0.30084 0.19807 0.38737 0.0
O3 O 0.29805 0.14201 0.40694 0.0
C4 C 0.3249 0.20161 0.49475 0.0
C5 C 0.26785 0.07332 0.48757 0.0
C6 C 0.21233 0.18618 0.41548 0.0
C7 C 0.32618 0.05436 0.37246 0.0
C8 C 0.38781 0.17184 0.37836 0.0
C9 C 0.26458 0.16222 0.29464 0.0
O10 O 0.3321 0.16612 0.49888 0.0
O11 O 0.24761 0.07846 0.45075 0.0
O12 O 0.24158 0.20754 0.40841 0.0
O13 O 0.34664 0.06972 0.40479 0.0
O14 O 0.35967 0.19221 0.36429 0.0
O15 O 0.25237 0.132 0.31426 0.0
O16 O 0.38474 0.14712 0.41088 0.0
O17 O 0.29298 0.06622 0.36034 0.0
O18 O 0.2832 0.18783 0.31653 0.0
O19 O 0.30077 0.08825 0.49286 0.0
O20 O 0.31806 0.2175 0.45561 0.0
O21 O 0.21252 0.15007 0.40894 0.0
Sc22 Sc 0.10598 0.80317 0.6722 0.0
Sc23 Sc 0.11052 0.70881 0.6322 0.0
Sc24 Sc 0.19151 0.7519 0.68265 0.0
O25 O 0.13615 0.75447 0.66209 0.0
C26 C 0.18324 0.83609 0.63685 0.0
C27 C 0.07035 0.77181 0.57473 0.0
C28 C 0.19497 0.70819 0.58541 0.0
C29 C 0.04602 0.743 0.70308 0.0
C30 C 0.15675 0.79881 0.76551 0.0
C31 C 0.15927 0.6695 0.71201 0.0
O32 O 0.14686 0.83476 0.63224 0.0
O33 O 0.09086 0.7419 0.57443 0.0
O34 O 0.20985 0.73095 0.61536 0.0
O35 O 0.06476 0.77324 0.71245 0.0
O36 O 0.1767 0.77081 0.75128 0.0
O37 O 0.1289 0.67147 0.68725 0.0
O38 O 0.13488 0.81811 0.73841 0.0
O39 O 0.05676 0.71879 0.67165 0.0
O40 O 0.18583 0.69461 0.71105 0.0
O41 O 0.07009 0.79511 0.60944 0.0
O42 O 0.20263 0.81035 0.65847 0.0
O43 O 0.1606 0.69552 0.58879 0.0
Sc44 Sc 0.75222 0.78501 0.34978 0.0
Sc45 Sc 0.82048 0.8563 0.3196 0.0
Sc46 Sc 0.73065 0.88217 0.36601 0.0
O47 O 0.76787 0.84107 0.34517 0.0
C48 C 0.67495 0.82541 0.31289 0.0
C49 C 0.79549 0.78674 0.2513 0.0
C50 C 0.76895 0.9199 0.27438 0.0
C51 C 0.84047 0.78497 0.38326 0.0
C52 C 0.71573 0.81754 0.44369 0.0
C53 C 0.80834 0.91575 0.40532 0.0
O54 O 0.69472 0.79544 0.32165 0.0
O55 O 0.81778 0.81448 0.26205 0.0
O56 O 0.744 0.91881 0.30712 0.0
O57 O 0.80792 0.76842 0.37903 0.0
O58 O 0.71221 0.85134 0.42775 0.0
O59 O 0.82941 0.90118 0.37303 0.0
O60 O 0.73165 0.79068 0.42058 0.0
O61 O 0.84848 0.81706 0.36512 0.0
O62 O 0.77268 0.90893 0.40899 0.0
O63 O 0.76995 0.77398 0.27899 0.0
O64 O 0.68556 0.85873 0.3249 0.0
O65 O 0.79736 0.89723 0.27211 0.0
Sc66 Sc 0.89314 0.21586 0.6023 0.0
Sc67 Sc 0.8888 0.30759 0.55447 0.0
Sc68 Sc 0.80509 0.25277 0.56602 0.0
O69 O 0.86242 0.25895 0.57411 0.0
C70 C 0.83838 0.16923 0.53925 0.0
C71 C 0.95279 0.24971 0.52654 0.0
C72 C 0.82762 0.29159 0.47056 0.0
C73 C 0.9299 0.286 0.653 0.0
C74 C 0.81495 0.21385 0.66286 0.0
C75 C 0.81217 0.3413 0.59575 0.0
O76 O 0.87304 0.17715 0.54932 0.0
O77 O 0.93186 0.27799 0.51527 0.0
O78 O 0.80879 0.2663 0.49294 0.0
O79 O 0.91518 0.25281 0.65594 0.0
O80 O 0.79813 0.23953 0.63887 0.0
O81 O 0.84858 0.34217 0.59264 0.0
O82 O 0.84698 0.19904 0.65034 0.0
O83 O 0.92599 0.30771 0.61706 0.0
O84 O 0.7922 0.31249 0.58278 0.0
O85 O 0.9438 0.2266 0.5594 0.0
O86 O 0.81034 0.19165 0.54892 0.0
O87 O 0.85503 0.31101 0.48914 0.0
Sc88 Sc 0.23309 0.28652 0.8795 0.0
Sc89 Sc 0.26086 0.38249 0.86932 0.0
Sc90 Sc 0.18823 0.3578 0.94763 0.0
O91 O 0.22767 0.34185 0.89905 0.0
C92 C 0.14182 0.3031 0.87868 0.0
C93 C 0.25003 0.32665 0.78222 0.0
C94 C 0.18496 0.42718 0.87372 0.0
C95 C 0.32049 0.31657 0.89267 0.0
C96 C 0.21253 0.27539 0.98691 0.0
C97 C 0.25377 0.41106 0.97699 0.0
O98 O 0.17102 0.2825 0.86773 0.0
O99 O 0.26296 0.35743 0.7998 0.0
O100 O 0.17649 0.41248 0.91343 0.0
O101 O 0.29606 0.28915 0.88876 0.0
O102 O 0.19523 0.3073 0.99055 0.0
O103 O 0.26366 0.41554 0.93413 0.0
O104 O 0.22925 0.26469 0.94954 0.0
O105 O 0.31138 0.35179 0.88899 0.0
O106 O 0.2312 0.38464 0.99009 0.0
O107 O 0.23662 0.29968 0.80671 0.0
O108 O 0.14355 0.33161 0.90671 0.0
O109 O 0.21135 0.41398 0.84747 0.0
Sc110 Sc 0.36104 0.69528 0.18324 0.0
Sc111 Sc 0.34875 0.78268 0.12408 0.0
Sc112 Sc 0.26927 0.73556 0.17293 0.0
O113 O 0.32643 0.73765 0.15942 0.0
C114 C 0.28591 0.65086 0.14672 0.0
C115 C 0.39524 0.71136 0.08149 0.0
C116 C 0.26951 0.77627 0.07154 0.0
C117 C 0.41507 0.76799 0.19842 0.0
C118 C 0.30425 0.70156 0.26863 0.0
C119 C 0.29191 0.82055 0.19845 0.0
O120 O 0.31905 0.65221 0.16582 0.0
O121 O 0.38465 0.7463 0.08115 0.0
O122 O 0.2524 0.76165 0.10672 0.0
O123 O 0.40751 0.7327 0.20365 0.0
O124 O 0.27625 0.70949 0.24142 0.0
O125 O 0.31608 0.82298 0.16496 0.0
O126 O 0.33883 0.69982 0.25408 0.0
O127 O 0.39461 0.7901 0.17338 0.0
O128 O 0.27334 0.79015 0.2081 0.0
O129 O 0.38652 0.68801 0.11428 0.0
O130 O 0.26467 0.68009 0.14006 0.0
O131 O 0.30551 0.782 0.07044 0.0
Sc132 Sc 0.75023 0.61815 0.85012 0.0
Sc133 Sc 0.66243 0.62268 0.79276 0.0
Sc134 Sc 0.69802 0.70308 0.85358 0.0
O135 O 0.70329 0.64829 0.83204 0.0
C136 C 0.74352 0.67347 0.94024 0.0
C137 C 0.68736 0.55919 0.86864 0.0
C138 C 0.61333 0.66867 0.86865 0.0
C139 C 0.73074 0.58008 0.74943 0.0
C140 C 0.785 0.69425 0.81464 0.0
C141 C 0.66397 0.70715 0.74989 0.0
O142 O 0.76198 0.64959 0.915 0.0
O143 O 0.66883 0.56987 0.83203 0.0
O144 O 0.6382 0.69519 0.87483 0.0
O145 O 0.74828 0.58058 0.78884 0.0
O146 O 0.75821 0.71425 0.83386 0.0
O147 O 0.65372 0.67218 0.74853 0.0
O148 O 0.78451 0.65785 0.8124 0.0
O149 O 0.70244 0.60202 0.74119 0.0
O150 O 0.68133 0.72203 0.78483 0.0
O151 O 0.71476 0.57841 0.88695 0.0
O152 O 0.7138 0.69057 0.92514 0.0
O153 O 0.61883 0.64035 0.84123 0.0
Sc154 Sc 0.63707 0.27504 0.09843 0.0
Sc155 Sc 0.6297 0.18307 0.04884 0.0
Sc156 Sc 0.71922 0.22987 0.05415 0.0
O157 O 0.66191 0.22913 0.06728 0.0
C158 C 0.69536 0.31276 0.02578 0.0
C159 C 0.57419 0.25289 0.02195 0.0
C160 C 0.68691 0.1866 0.963 0.0
C161 C 0.59228 0.20555 0.14635 0.0
C162 C 0.71507 0.27192 0.15474 0.0
C163 C 0.70738 0.14614 0.0899 0.0
O164 O 0.67053 0.31525 0.05849 0.0
O165 O 0.58223 0.21732 0.0229 0.0
O166 O 0.7137 0.20072 0.98795 0.0
O167 O 0.60005 0.24085 0.1417 0.0
O168 O 0.73343 0.25948 0.11906 0.0
O169 O 0.67323 0.14407 0.07367 0.0
O170 O 0.6786 0.27537 0.15517 0.0
O171 O 0.60378 0.17988 0.11775 0.0
O172 O 0.72755 0.1765 0.0894 0.0
O173 O 0.5935 0.27812 0.04428 0.0
O174 O 0.71373 0.28233 0.01625 0.0
O175 O 0.65279 0.18158 0.97793 0.0
H176 H 0.32904 0.03406 0.28056 0.0
H177 H 0.34235 0.99064 0.42254 0.0
H178 H 0.3335 0.9245 0.39297 0.0
H179 H 0.25641 0.97726 0.24636 0.0
H180 H 0.27176 0.96827 0.18666 0.0
H181 H 0.28647 0.01146 0.21635 0.0
H182 H 0.35851 -0.00437 0.20246 0.0
H183 H 0.34406 0.95332 0.17048 0.0
H184 H 0.37699 0.9494 0.21946 0.0
H185 H 0.30999 0.86575 0.35037 0.0
H186 H 0.29124 0.81487 0.29396 0.0
H187 H 0.29623 0.89674 0.17939 0.0
C188 C 0.33225 0.01036 0.30483 0.0
C189 C 0.33698 0.01697 0.35349 0.0
C190 C 0.33979 0.98574 0.38491 0.0
C191 C 0.33417 0.94824 0.36853 0.0
C192 C 0.3267 0.94284 0.32066 0.0
C193 C 0.32735 0.97285 0.28894 0.0
C194 C 0.31689 0.95971 0.23972 0.0
C195 C 0.28074 0.98042 0.22123 0.0
C196 C 0.35116 0.9648 0.20605 0.0
C197 C 0.30882 0.91794 0.24903 0.0
C198 C 0.31419 0.90881 0.29598 0.0
C199 C 0.30646 0.87234 0.31334 0.0
C200 C 0.29511 0.84386 0.28127 0.0
C201 C 0.29215 0.85216 0.23257 0.0
C202 C 0.29815 0.88984 0.21655 0.0
H203 H 0.98517 0.69531 0.67993 0.0
H204 H 0.02141 0.78258 0.78028 0.0
H205 H 0.95639 0.7842 0.81387 0.0
H206 H 0.8896 0.73197 0.6604 0.0
H207 H 0.86727 0.68543 0.65766 0.0
H208 H 0.91681 0.69113 0.64019 0.0
H209 H 0.93784 0.63918 0.7003 0.0
H210 H 0.8883 0.63286 0.71713 0.0
H211 H 0.92401 0.64412 0.76127 0.0
H212 H 0.88725 0.77839 0.83554 0.0
H213 H 0.82088 0.75676 0.85273 0.0
H214 H 0.82982 0.67203 0.741 0.0
C215 C 0.97957 0.71435 0.70935 0.0
C216 C 0.00843 0.739 0.72706 0.0
C217 C -0.00022 0.76361 0.76563 0.0
C218 C 0.96282 0.76498 0.78491 0.0
C219 C 0.93472 0.74141 0.76558 0.0
C220 C 0.94272 0.71598 0.72936 0.0
C221 C 0.90747 0.69267 0.7166 0.0
C222 C 0.89453 0.7008 0.66569 0.0
C223 C 0.91485 0.64967 0.72431 0.0
C224 C 0.87885 0.70854 0.75192 0.0
C225 C 0.8949 0.73725 0.77911 0.0
C226 C 0.87423 0.75592 0.81453 0.0
C227 C 0.83652 0.74376 0.82378 0.0
C228 C 0.82044 0.71287 0.79816 0.0
C229 C 0.84153 0.69583 0.76101 0.0
H230 H 0.70462 0.95897 0.24668 0.0
H231 H 0.82791 0.95016 0.22343 0.0
H232 H 0.82509 0.00559 0.16989 0.0
H233 H 0.68018 0.98756 0.1252 0.0
H234 H 0.64255 0.01949 0.14461 0.0
H235 H 0.65395 0.97739 0.17852 0.0
H236 H 0.66481 0.01984 0.25256 0.0
H237 H 0.65377 0.06204 0.21887 0.0
H238 H 0.69894 0.05867 0.25003 0.0
H239 H 0.81029 0.06603 0.12697 0.0
H240 H 0.78284 0.12427 0.09035 0.0
H241 H 0.66897 0.09106 0.13789 0.0
C242 C 0.7309 0.96844 0.22983 0.0
C243 C 0.76644 0.95048 0.23914 0.0
C244 C 0.8003 0.96346 0.21642 0.0
C245 C 0.79904 -0.00507 0.1861 0.0
C246 C 0.76364 0.01249 0.17836 0.0
C247 C 0.73008 -0.00063 0.19889 0.0
C248 C 0.69593 0.02388 0.18551 0.0
C249 C 0.66642 0.00069 0.15674 0.0
C250 C 0.6773 0.04219 0.22935 0.0
C251 C 0.7158 0.05346 0.15542 0.0
C252 C 0.75486 0.04648 0.15182 0.0
C253 C 0.77964 0.07149 0.12868 0.0
C254 C 0.76392 0.10449 0.10835 0.0
C255 C 0.72389 0.11164 0.11103 0.0
C256 C 0.6996 0.08572 0.13461 0.0
H257 H 0.13089 0.28047 0.78703 0.0
H258 H 0.06974 0.31517 0.91341 0.0
H259 H 0.00879 0.31707 0.8684 0.0
H260 H 0.08085 0.3415 0.70954 0.0
H261 H 0.07953 0.3084 0.66064 0.0
H262 H 0.11801 0.30577 0.70316 0.0
H263 H 0.10218 0.23466 0.71977 0.0
H264 H 0.06432 0.23667 0.67633 0.0
H265 H 0.05372 0.2214 0.73557 0.0
H266 H 0.95483 0.31702 0.80936 0.0
H267 H 0.91096 0.31144 0.74052 0.0
H268 H 0.00762 0.28079 0.65179 0.0
C269 C 0.10446 0.28731 0.80547 0.0
C270 C 0.10485 0.29709 0.85386 0.0
C271 C 0.06992 0.3072 0.87646 0.0
C272 C 0.03524 0.30856 0.85115 0.0
C273 C 0.03603 0.30012 0.80313 0.0
C274 C 0.06963 0.2894 0.78053 0.0
C275 C 0.06281 0.28328 0.72823 0.0
C276 C 0.08673 0.31143 0.69867 0.0
C277 C 0.07124 0.24152 0.71416 0.0
C278 C 0.02017 0.29229 0.72503 0.0
C279 C 0.00525 0.30186 0.76867 0.0
C280 C 0.96622 0.30993 0.77492 0.0
C281 C 0.94161 0.30709 0.73575 0.0
C282 C 0.95634 0.29696 0.69104 0.0
C283 C 0.99609 0.28993 0.68549 0.0
H284 H 0.27569 0.62821 0.05618 0.0
H285 H 0.27179 0.58907 0.20086 0.0
H286 H 0.26382 0.52219 0.17319 0.0
H287 H 0.20802 0.55729 0.00478 0.0
H288 H 0.23646 0.55269 0.95196 0.0
H289 H 0.236 0.5973 0.984 0.0
H290 H 0.31066 0.59421 0.98879 0.0
H291 H 0.31085 0.54887 0.95836 0.0
H292 H 0.3334 0.55316 0.01544 0.0
H293 H 0.2597 0.45983 0.12984 0.0
H294 H 0.2564 0.40589 0.07322 0.0
H295 H 0.26801 0.4859 0.95719 0.0
C296 C 0.27166 0.60558 0.08176 0.0
C297 C 0.27315 0.61332 0.13042 0.0
C298 C 0.26972 0.58326 0.16338 0.0
C299 C 0.26547 0.54537 0.14801 0.0
C300 C 0.26541 0.53831 0.09967 0.0
C301 C 0.26816 0.56755 0.06698 0.0
C302 C 0.27022 0.55199 0.01724 0.0
C303 C 0.23559 0.56563 0.98779 0.0
C304 C 0.30857 0.5627 -0.0064 0.0
C305 C 0.26812 0.50951 0.02711 0.0
C306 C 0.26524 0.50221 0.07481 0.0
C307 C 0.26199 0.46512 0.09236 0.0
C308 C 0.26038 0.43471 0.06006 0.0
C309 C 0.26247 0.44174 0.011 0.0
C310 C 0.26724 0.47956 -0.00545 0.0
H311 H 0.58036 0.72897 0.91764 0.0
H312 H 0.56393 0.60896 0.88178 0.0
H313 H 0.50466 0.60768 0.9289 0.0
H314 H 0.54789 0.72282 0.03621 0.0
H315 H 0.52362 0.76847 0.03594 0.0
H316 H 0.56434 0.76054 -0.00205 0.0
H317 H 0.52301 0.77952 0.92544 0.0
H318 H 0.4821 0.78744 0.96326 0.0
H319 H 0.47837 0.75476 0.91412 0.0
H320 H 0.44993 0.61754 0.98476 0.0
H321 H 0.40137 0.63967 0.04266 0.0
H322 H 0.4507 0.75376 0.03857 0.0
C323 C 0.56417 0.70252 0.91947 0.0
C324 C 0.57691 0.66914 0.89585 0.0
C325 C 0.55477 0.63507 0.89919 0.0
C326 C 0.52101 0.63395 0.92598 0.0
C327 C 0.50934 0.66721 0.9489 0.0
C328 C 0.52999 0.70097 0.94565 0.0
C329 C 0.51118 0.73251 0.97429 0.0
C330 C 0.53838 0.74692 0.01342 0.0
C331 C 0.49787 0.76551 0.94236 0.0
C332 C 0.47717 0.71098 -0.00543 0.0
C333 C 0.47674 0.67329 0.97968 0.0
C334 C 0.44955 0.64716 -0.00386 0.0
C335 C 0.42218 0.65988 0.02899 0.0
C336 C 0.42197 0.69847 0.04435 0.0
C337 C 0.4496 0.72432 0.02646 0.0
H338 H 0.69669 0.38781 0.05089 0.0
H339 H 0.70119 0.31107 0.9304 0.0
H340 H 0.69606 0.36651 0.87663 0.0
H341 H 0.62959 0.45352 0.00602 0.0
H342 H 0.6528 0.49557 0.0297 0.0
H343 H 0.65821 0.45018 0.05898 0.0
H344 H 0.73257 0.45532 0.05339 0.0
H345 H 0.72743 0.5012 0.02522 0.0
H346 H 0.75464 0.46368 -0.00315 0.0
H347 H 0.68386 0.42919 0.83714 0.0
H348 H 0.67907 0.49688 0.81275 0.0
H349 H 0.68762 0.53287 0.95897 0.0
C350 C 0.69726 0.3829 0.01315 0.0
C351 C 0.6993 0.34558 -0.00557 0.0
C352 C 0.70006 0.33975 0.94507 0.0
C353 C 0.69675 0.37091 0.91442 0.0
C354 C 0.69347 0.40739 0.93404 0.0
C355 C 0.69487 0.41364 0.98216 0.0
C356 C 0.69198 0.45574 -0.00588 0.0
C357 C 0.656 0.46422 0.02397 0.0
C358 C 0.72886 0.46981 0.01883 0.0
C359 C 0.68818 0.47217 0.94518 0.0
C360 C 0.68836 0.44374 0.9111 0.0
C361 C 0.68404 0.45178 0.86338 0.0
C362 C 0.68086 0.49015 0.84997 0.0
C363 C 0.68278 0.51967 0.88422 0.0
C364 C 0.68596 0.5106 0.93236 0.0
H365 H 0.5046 0.21656 0.01129 0.0
H366 H 0.56795 0.31838 0.971 0.0
H367 H 0.51127 0.34157 0.92676 0.0
H368 H 0.44707 0.20579 0.90241 0.0
H369 H 0.40415 0.19184 0.93362 0.0
H370 H 0.45092 0.18073 0.95772 0.0
H371 H 0.43294 0.21573 0.0353 0.0
H372 H 0.38617 0.22688 0.0115 0.0
H373 H 0.41679 0.26479 0.03302 0.0
H374 H 0.44836 0.35533 0.89075 0.0
H375 H 0.38031 0.36244 0.8695 0.0
H376 H 0.3545 0.25334 0.93567 0.0
C377 C 0.50663 0.24336 0.99232 0.0
C378 C 0.5407 0.26557 -0.00605 0.0
C379 C 0.54212 0.30099 0.96998 0.0
C380 C 0.51019 0.31423 0.94458 0.0
C381 C 0.47693 0.29191 0.94399 0.0
C382 C 0.47465 0.25742 0.9675 0.0
C383 C 0.43417 0.24097 0.9646 0.0
C384 C 0.43409 0.20255 0.93799 0.0
C385 C 0.41648 0.23687 0.01404 0.0
C386 C 0.41398 0.27195 0.93633 0.0
C387 C 0.43957 0.30065 0.92433 0.0
C388 C 0.42805 0.33304 0.89979 0.0
C389 C 0.38918 0.33682 0.88806 0.0
C390 C 0.36188 0.30855 0.90115 0.0
C391 C 0.37468 0.27522 0.92478 0.0
H392 H 0.79408 0.53284 0.7479 0.0
H393 H 0.68594 0.55505 0.67577 0.0
H394 H 0.69464 0.49613 0.62873 0.0
H395 H 0.84478 0.49346 0.64482 0.0
H396 H 0.87035 0.45866 0.67978 0.0
H397 H 0.85642 0.50383 0.70552 0.0
H398 H 0.82083 0.46757 0.77207 0.0
H399 H 0.83399 0.42231 0.7461 0.0
H400 H 0.78403 0.43325 0.7569 0.0
H401 H 0.71185 0.43083 0.59555 0.0
H402 H 0.74132 0.36939 0.57038 0.0
H403 H 0.83943 0.39196 0.66121 0.0
C404 C 0.77257 0.52578 0.72157 0.0
C405 C 0.73933 0.54869 0.71562 0.0
C406 C 0.71183 0.53822 0.68084 0.0
C407 C 0.71635 0.5046 0.65412 0.0
C408 C 0.74879 0.482 0.66207 0.0
C409 C 0.77685 0.49259 0.69421 0.0
C410 C 0.80891 0.46322 0.69626 0.0
C411 C 0.84739 0.48085 0.68065 0.0
C412 C 0.8121 0.44555 0.74577 0.0
C413 C 0.79431 0.43424 0.66066 0.0
C414 C 0.75936 0.4453 0.64169 0.0
C415 C 0.73948 0.42215 0.60967 0.0
C416 C 0.75623 0.3872 0.59587 0.0
C417 C 0.7927 0.37612 0.6136 0.0
C418 C 0.8117 0.39993 0.64665 0.0
H419 H 0.53218 0.24613 0.18143 0.0
H420 H 0.59563 0.14004 0.19913 0.0
H421 H 0.55317 0.12265 0.26593 0.0
H422 H 0.51135 0.26524 0.30456 0.0
H423 H 0.46338 0.28248 0.29255 0.0
H424 H 0.50069 0.28791 0.24901 0.0
H425 H 0.45853 0.25226 0.18739 0.0
H426 H 0.42103 0.24696 0.23059 0.0
H427 H 0.44014 0.20531 0.20103 0.0
H428 H 0.50367 0.11714 0.32993 0.0
H429 H 0.44613 0.11925 0.38034 0.0
H430 H 0.41257 0.22745 0.31693 0.0
C431 C 0.53742 0.21947 0.19983 0.0
C432 C 0.56734 0.19456 0.18585 0.0
C433 C 0.57283 0.15945 0.20966 0.0
C434 C 0.54907 0.14953 0.24768 0.0
C435 C 0.51982 0.17486 0.26069 0.0
C436 C 0.51357 0.20882 0.23702 0.0
C437 C 0.47828 0.22951 0.25528 0.0
C438 C 0.48909 0.2686 0.27663 0.0
C439 C 0.44769 0.23373 0.21625 0.0
C440 C 0.46545 0.20179 0.29293 0.0
C441 C 0.49019 0.17082 0.29603 0.0
C442 C 0.48412 0.14124 0.32786 0.0
C443 C 0.45137 0.14285 0.3565 0.0
C444 C 0.42475 0.17358 0.35261 0.0
C445 C 0.43235 0.20366 0.32082 0.0
H446 H 0.14918 0.59412 0.69205 0.0
H447 H 0.17625 0.67297 0.80564 0.0
H448 H 0.17585 0.61909 0.86251 0.0
H449 H 0.08835 0.52847 0.75718 0.0
H450 H 0.1076 0.48647 0.72852 0.0
H451 H 0.10633 0.53154 0.69771 0.0
H452 H 0.17992 0.52749 0.68276 0.0
H453 H 0.18116 0.4821 0.71253 0.0
H454 H 0.21208 0.52051 0.73199 0.0
H455 H 0.17196 0.55644 0.90639 0.0
H456 H 0.17945 0.48902 0.93157 0.0
H457 H 0.16031 0.45116 0.78773 0.0
C458 C 0.15491 0.59989 0.72897 0.0
C459 C 0.16257 0.63736 0.7449 0.0
C460 C 0.17054 0.64418 0.79311 0.0
C461 C 0.16987 0.61392 0.82556 0.0
C462 C 0.16169 0.57717 0.80884 0.0
C463 C 0.15532 0.56996 0.76148 0.0
C464 C 0.15136 0.52755 0.75169 0.0
C465 C 0.111 0.51796 0.73265 0.0
C466 C 0.18302 0.5136 0.71777 0.0
C467 C 0.15705 0.51188 0.80084 0.0
C468 C 0.16175 0.54098 0.83357 0.0
C469 C 0.16829 0.53341 0.88115 0.0
C470 C 0.17201 0.4951 0.89522 0.0
C471 C 0.16993 0.46518 0.86153 0.0
C472 C 0.16138 0.47365 0.81412 0.0
H473 H 0.63001 0.7608 0.29964 0.0
H474 H 0.63339 0.88367 0.27492 0.0
H475 H 0.56687 0.88189 0.24622 0.0
H476 H 0.57122 0.73834 0.19518 0.0
H477 H 0.5448 0.70106 0.22471 0.0
H478 H 0.59365 0.71147 0.24197 0.0
H479 H 0.57089 0.72174 0.32812 0.0
H480 H 0.52187 0.71207 0.31094 0.0
H481 H 0.53367 0.75641 0.34031 0.0
H482 H 0.49979 0.86879 0.22517 0.0
H483 H 0.43657 0.84306 0.20248 0.0
H484 H 0.47548 0.72825 0.23814 0.0
C485 C 0.61692 0.78716 0.28751 0.0
C486 C 0.63684 0.82238 0.29009 0.0
C487 C 0.61865 0.85634 0.27391 0.0
C488 C 0.5808 0.85574 0.25753 0.0
C489 C 0.56153 0.82094 0.25707 0.0
C490 C 0.57895 0.78713 0.27073 0.0
C491 C 0.55132 0.75373 0.26615 0.0
C492 C 0.56613 0.72442 0.22983 0.0
C493 C 0.54402 0.73489 0.31425 0.0
C494 C 0.51573 0.77436 0.24837 0.0
C495 C 0.52238 0.81313 0.24372 0.0
C496 C 0.49416 0.83841 0.22819 0.0
C497 C 0.45831 0.82349 0.21555 0.0
C498 C 0.45108 0.7836 0.21829 0.0
C499 C 0.48002 0.75887 0.23584 0.0
H500 H 0.86443 0.13119 0.46066 0.0
H501 H 0.79634 0.11778 0.58748 0.0
H502 H 0.79166 0.04812 0.57238 0.0
H503 H 0.80801 0.06418 0.39141 0.0
H504 H 0.84881 0.04681 0.35843 0.0
H505 H 0.84886 0.09493 0.38138 0.0
H506 H 0.91331 0.08063 0.42421 0.0
H507 H 0.91274 0.03206 0.40244 0.0
H508 H 0.91603 0.04115 0.46493 0.0
H509 H 0.79552 0.98084 0.54535 0.0
H510 H 0.79264 0.92173 0.49801 0.0
H511 H 0.85366 0.97809 0.38446 0.0
C512 C 0.84821 0.11345 0.48479 0.0
C513 C 0.83048 0.12951 0.52507 0.0
C514 C 0.80954 0.10583 0.55611 0.0
C515 C 0.8073 0.06627 0.5482 0.0
C516 C 0.82575 0.05105 0.50874 0.0
C517 C 0.84475 0.07395 0.47667 0.0
C518 C 0.85864 0.05062 0.43471 0.0
C519 C 0.83995 0.06498 0.38878 0.0
C520 C 0.90281 0.05116 0.4314 0.0
C521 C 0.84406 0.0111 0.44803 0.0
C522 C 0.82629 0.01202 0.49164 0.0
C523 C 0.80932 0.97972 0.51119 0.0
C524 C 0.80813 0.94618 0.4842 0.0
C525 C 0.82319 0.94532 0.43782 0.0
C526 C 0.8429 0.97768 0.42027 0.0
H527 H 0.15314 0.15129 0.4617 0.0
H528 H 0.18915 0.26072 0.40435 0.0
H529 H 0.1258 0.2884 0.42517 0.0
H530 H 0.05603 0.15423 0.42305 0.0
H531 H 0.0367 0.13275 0.47565 0.0
H532 H 0.08507 0.12169 0.45728 0.0
H533 H 0.11138 0.14348 0.53867 0.0
H534 H 0.06304 0.15415 0.55754 0.0
H535 H 0.09968 0.19064 0.56048 0.0
H536 H 0.05746 0.30264 0.4475 0.0
H537 H 0.99135 0.30533 0.47848 0.0
H538 H 0.00102 0.1871 0.52449 0.0
C539 C 0.14777 0.18113 0.45361 0.0
C540 C 0.17587 0.20383 0.43102 0.0
C541 C 0.16799 0.24286 0.42166 0.0
C542 C 0.13208 0.25874 0.43313 0.0
C543 C 0.10475 0.23528 0.45445 0.0
C544 C 0.1124 0.19751 0.46533 0.0
C545 C 0.07835 0.17863 0.48906 0.0
C546 C 0.06315 0.14483 0.45948 0.0
C547 C 0.08874 0.166 0.53943 0.0
C548 C 0.0501 0.2116 0.48937 0.0
C549 C 0.06579 0.24388 0.46883 0.0
C550 C 0.04495 0.27766 0.46396 0.0
C551 C 0.00728 0.27875 0.4814 0.0
C552 C 0.99096 0.24638 0.50394 0.0
C553 C 0.01269 0.21231 0.50758 0.0
H554 H 0.15999 0.8833 0.56569 0.0
H555 H 0.24989 0.86803 0.67057 0.0
H556 H 0.27769 0.9307 0.64851 0.0
H557 H 0.22081 0.92688 0.47803 0.0
H558 H 0.18351 0.95868 0.45742 0.0
H559 H 0.17093 0.91304 0.48238 0.0
H560 H 0.12674 0.94765 0.54264 0.0
H561 H 0.13992 0.99347 0.5185 0.0
H562 H 0.14671 0.98421 0.58046 0.0
H563 H 0.29408 -0.00427 0.61689 0.0
H564 H 0.3049 0.05351 0.56933 0.0
H565 H 0.20517 0.02518 0.4832 0.0
C566 C 0.18566 0.89305 0.58387 0.0
C567 C 0.20277 0.87095 0.61996 0.0
C568 C 0.23652 0.88444 0.6426 0.0
C569 C 0.25223 0.92013 0.63068 0.0
C570 C 0.23399 0.94165 0.5958 0.0
C571 C 0.20192 0.92828 0.57207 0.0
C572 C 0.18889 0.95609 0.53439 0.0
C573 C 0.1912 0.93757 0.48515 0.0
C574 C 0.14815 0.97124 0.54464 0.0
C575 C 0.21875 0.98725 0.54052 0.0
C576 C 0.24409 0.97863 0.57662 0.0
C577 C 0.27452 0.00272 0.58842 0.0
C578 C 0.28027 0.03563 0.56124 0.0
C579 C 0.25599 0.04394 0.52222 0.0
C580 C 0.22411 0.01992 0.51287 0.0
H581 H -0.00135 0.80461 0.58039 0.0
H582 H 0.0748 0.74255 0.48585 0.0
H583 H 0.02082 0.73212 0.43072 0.0
H584 H 0.91689 0.74538 0.56374 0.0
H585 H 0.88225 0.78384 0.56513 0.0
H586 H 0.92708 0.78839 0.59678 0.0
H587 H 0.94302 0.85116 0.552 0.0
H588 H 0.8976 0.84747 0.52165 0.0
H589 H 0.94163 0.85138 0.48844 0.0
H590 H 0.95853 0.72585 0.38752 0.0
H591 H 0.89419 0.73525 0.35161 0.0
H592 H 0.85844 0.8008 0.47375 0.0
C593 C 0.00422 0.78987 0.54743 0.0
C594 C 0.04093 0.77451 0.53729 0.0
C595 C 0.04687 0.75464 0.49423 0.0
C596 C 0.01633 0.7482 0.46293 0.0
C597 C 0.98005 0.76182 0.47519 0.0
C598 C 0.97398 0.78303 0.51578 0.0
C599 C 0.93218 0.7949 0.52014 0.0
C600 C 0.91352 0.77706 0.56406 0.0
C601 C 0.92839 0.83883 0.52055 0.0
C602 C 0.91593 0.77755 0.47529 0.0
C603 C 0.94389 0.75794 0.45035 0.0
C604 C 0.93625 0.74082 0.40684 0.0
C605 C 0.89957 0.74574 0.38702 0.0
C606 C 0.87136 0.76755 0.41081 0.0
C607 C 0.87924 0.78268 0.45597 0.0
H608 H 0.21452 0.29743 0.07908 0.0
H609 H 0.2185 0.19728 0.98829 0.0
H610 H 0.22842 0.15599 0.05807 0.0
H611 H 0.29014 0.2686 0.15275 0.0
H612 H 0.26966 0.28837 0.20589 0.0
H613 H 0.25816 0.30925 0.14967 0.0
H614 H 0.18531 0.29977 0.16584 0.0
H615 H 0.19657 0.27907 0.22233 0.0
H616 H 0.16757 0.25278 0.18057 0.0
H617 H 0.23981 0.12597 0.13843 0.0
H618 H 0.25598 0.11073 0.22168 0.0
H619 H 0.24902 0.23155 0.25691 0.0
C620 C 0.21659 0.26672 0.07401 0.0
C621 C 0.21524 0.2504 0.02855 0.0
C622 C 0.21925 0.21024 0.02304 0.0
C623 C 0.22477 0.18659 0.06239 0.0
C624 C 0.22663 0.20368 0.10679 0.0
C625 C 0.22286 0.24288 0.11269 0.0
C626 C 0.22914 0.25462 0.1634 0.0
C627 C 0.26384 0.2818 0.16818 0.0
C628 C 0.19246 0.27261 0.18426 0.0
C629 C 0.23746 0.21601 0.18505 0.0
C630 C 0.23525 0.18681 0.15219 0.0
C631 C 0.24167 0.14862 0.16447 0.0
C632 C 0.2508 0.14021 0.21164 0.0
C633 C 0.25418 0.17003 0.24528 0.0
C634 C 0.24721 0.20825 0.23167 0.0
H635 H 0.21667 0.73603 0.01982 0.0
H636 H 0.27228 0.84663 0.03206 0.0
H637 H 0.23729 0.86928 0.96139 0.0
H638 H 0.22801 0.72898 0.89941 0.0
H639 H 0.18319 0.70452 0.88825 0.0
H640 H 0.20614 0.70021 0.94475 0.0
H641 H 0.14346 0.72425 0.98491 0.0
H642 H 0.12071 0.7292 0.92803 0.0
H643 H 0.123 0.76959 0.96768 0.0
H644 H 0.20225 0.87764 0.88499 0.0
H645 H 0.1776 0.86775 0.8037 0.0
H646 H 0.14836 0.75069 0.83858 0.0
C647 C 0.22047 0.76531 0.00819 0.0
C648 C 0.24654 0.78988 0.03137 0.0
C649 C 0.25211 0.82759 0.01461 0.0
C650 C 0.23213 0.84078 0.97487 0.0
C651 C 0.20697 0.81573 0.95207 0.0
C652 C 0.20143 0.7786 0.96783 0.0
C653 C 0.17769 0.75561 0.93306 0.0
C654 C 0.20012 0.72028 0.91531 0.0
C655 C 0.13891 0.74399 0.95473 0.0
C656 C 0.1722 0.78506 0.89451 0.0
C657 C 0.18811 0.81998 0.90677 0.0
C658 C 0.18906 0.85067 0.87526 0.0
C659 C 0.17482 0.84499 0.82935 0.0
C660 C 0.16073 0.80872 0.81558 0.0
C661 C 0.15831 0.77892 0.84892 0.0
H662 H 0.73454 0.76517 0.19772 0.0
H663 H 0.85928 0.76997 0.1972 0.0
H664 H 0.8599 0.7377 0.1189 0.0
H665 H 0.72265 0.67428 0.14098 0.0
H666 H 0.6814 0.68914 0.10693 0.0
H667 H 0.69113 0.7112 0.1632 0.0
H668 H 0.69147 0.77819 0.12418 0.0
H669 H 0.68132 0.75642 0.06789 0.0
H670 H 0.72281 0.78696 0.07476 0.0
H671 H 0.8459 0.70209 0.04163 0.0
H672 H 0.81911 0.67522 0.96764 0.0
H673 H 0.70347 0.69884 0.01746 0.0
C674 C 0.76204 0.7593 0.18119 0.0
C675 C 0.79694 0.76956 0.20359 0.0
C676 C 0.83229 0.76223 0.18053 0.0
C677 C 0.83284 0.74373 0.13629 0.0
C678 C 0.79778 0.73351 0.11544 0.0
C679 C 0.76303 0.74176 0.13686 0.0
C680 C 0.72925 0.72996 0.10626 0.0
C681 C 0.70467 0.69932 0.13082 0.0
C682 C 0.70479 0.76497 0.09245 0.0
C683 C 0.75029 0.71349 0.06415 0.0
C684 C 0.78979 0.71516 0.07036 0.0
C685 C 0.81505 0.7009 0.03638 0.0
C686 C 0.79956 0.68542 -0.00538 0.0
C687 C 0.75922 0.68495 0.98682 0.0
C688 C 0.73441 0.69889 0.02238 0.0
H689 H 0.75839 0.25011 0.71304 0.0
H690 H 0.82796 0.14673 0.71067 0.0
H691 H 0.79458 0.12383 0.7822 0.0
H692 H 0.76122 0.2633 0.83593 0.0
H693 H 0.71279 0.28163 0.83995 0.0
H694 H 0.73971 0.28758 0.7864 0.0
H695 H 0.68473 0.25424 0.73977 0.0
H696 H 0.658 0.24759 0.79355 0.0
H697 H 0.66932 0.20694 0.75673 0.0
H698 H 0.75705 0.11449 0.8569 0.0
H699 H 0.72295 0.12243 0.93294 0.0
H700 H 0.67807 0.23163 0.88633 0.0
C701 C 0.76632 0.2224 0.72716 0.0
C702 C 0.79564 0.20007 0.70608 0.0
C703 C 0.80564 0.16434 0.72625 0.0
C704 C 0.78659 0.15096 0.7666 0.0
C705 C 0.75768 0.17366 0.78631 0.0
C706 C 0.74786 0.2088 0.76749 0.0
C707 C 0.71819 0.22921 0.79754 0.0
C708 C 0.73393 0.26768 0.81606 0.0
C709 C 0.68032 0.23481 0.77025 0.0
C710 C 0.71341 0.20043 0.83688 0.0
C711 C 0.73595 0.16826 0.82935 0.0
C712 C 0.73869 0.13912 0.8627 0.0
C713 C 0.71904 0.14365 0.90553 0.0
C714 C 0.69696 0.17692 0.91432 0.0
C715 C 0.69344 0.20521 0.87929 0.0
H716 H 0.70065 0.747 0.48081 0.0
H717 H 0.69674 0.86851 0.51376 0.0
H718 H 0.67428 0.85341 0.59419 0.0
H719 H 0.61551 0.71954 0.55107 0.0
H720 H 0.63709 0.67487 0.56886 0.0
H721 H 0.64897 0.69545 0.51252 0.0
H722 H 0.72154 0.69373 0.53433 0.0
H723 H 0.70989 0.67298 0.59044 0.0
H724 H 0.73758 0.71658 0.58799 0.0
H725 H 0.66045 0.82483 0.67328 0.0
H726 H 0.65572 0.78487 0.74483 0.0
H727 H 0.66549 0.68237 0.65884 0.0
C728 C 0.69466 0.77051 0.50471 0.0
C729 C 0.70052 0.80893 0.49107 0.0
C730 C 0.69229 0.83884 0.5234 0.0
C731 C 0.67942 0.83056 0.56908 0.0
C732 C 0.67433 0.7923 0.5815 0.0
C733 C 0.68141 0.76279 0.55011 0.0
C734 C 0.67598 0.72408 0.57291 0.0
C735 C 0.64238 0.70221 0.54997 0.0
C736 C 0.71348 0.70049 0.57134 0.0
C737 C 0.6662 0.73637 0.62262 0.0
C738 C 0.66505 0.77585 0.6268 0.0
C739 C 0.6604 0.79391 0.67029 0.0
C740 C 0.6578 0.77104 0.71069 0.0
C741 C 0.65965 0.7306 0.70714 0.0
C742 C 0.66283 0.71316 0.66239 0.0
H743 H 0.75741 0.27947 0.43024 0.0
H744 H 0.87354 0.31674 0.39794 0.0
H745 H 0.85631 0.3196 0.31309 0.0
H746 H 0.74459 0.21898 0.33351 0.0
H747 H 0.69463 0.23085 0.3242 0.0
H748 H 0.71528 0.23482 0.38223 0.0
H749 H 0.69414 0.30596 0.3869 0.0
H750 H 0.67314 0.30214 0.32891 0.0
H751 H 0.70853 0.33863 0.34109 0.0
H752 H 0.82795 0.3109 0.23112 0.0
H753 H 0.78962 0.2969 0.15952 0.0
H754 H 0.6912 0.26865 0.2467 0.0
C755 C 0.77915 0.28874 0.40542 0.0
C756 C 0.81689 0.29778 0.42059 0.0
C757 C 0.84441 0.30994 0.38707 0.0
C758 C 0.83489 0.3115 0.33886 0.0
C759 C 0.79758 0.30151 0.32505 0.0
C760 C 0.76999 0.29098 0.35753 0.0
C761 C 0.73227 0.28066 0.3338 0.0
C762 C 0.72106 0.23885 0.34404 0.0
C763 C 0.70012 0.30852 0.34855 0.0
C764 C 0.74311 0.28602 0.28263 0.0
C765 C 0.78092 0.29797 0.27823 0.0
C766 C 0.79815 0.30222 0.23422 0.0
C767 C 0.77621 0.29402 0.19378 0.0
C768 C 0.73733 0.28208 0.19757 0.0
C769 C 0.7206 0.27846 0.24266 0.0
H770 H 0.31383 0.32998 0.72691 0.0
H771 H 0.19175 0.30441 0.72608 0.0
H772 H 0.19792 0.27496 0.6474 0.0
H773 H 0.32413 0.3442 0.59302 0.0
H774 H 0.37067 0.32127 0.59343 0.0
H775 H 0.35512 0.34885 0.6438 0.0
H776 H 0.36745 0.28996 0.69701 0.0
H777 H 0.3818 0.26177 0.64685 0.0
H778 H 0.3432 0.24547 0.68415 0.0
H779 H 0.21841 0.2375 0.57978 0.0
H780 H 0.2513 0.19992 0.51825 0.0
H781 H 0.36114 0.24837 0.56032 0.0
C782 C 0.28824 0.32002 0.70875 0.0
C783 C 0.25219 0.31994 0.73151 0.0
C784 C 0.21936 0.30514 0.70834 0.0
C785 C 0.22266 0.28833 0.66387 0.0
C786 C 0.259 0.28666 0.64335 0.0
C787 C 0.29119 0.30272 0.66433 0.0
C788 C 0.32746 0.29277 0.63709 0.0
C789 C 0.3454 0.32893 0.61554 0.0
C790 C 0.35667 0.27121 0.66815 0.0
C791 C 0.3108 0.2669 0.59926 0.0
C792 C 0.27118 0.26426 0.60349 0.0
C793 C 0.24926 0.23997 0.57534 0.0
C794 C 0.26818 0.21845 0.54105 0.0
C795 C 0.30849 0.22134 0.53532 0.0
C796 C 0.33027 0.24578 0.56455 0.0
H797 H 0.23344 0.69395 0.31034 0.0
H798 H 0.35584 0.69634 0.34212 0.0
H799 H 0.34105 0.69153 0.42709 0.0
H800 H 0.20377 0.75193 0.40372 0.0
H801 H 0.15985 0.7261 0.41518 0.0
H802 H 0.18019 0.72585 0.3569 0.0
H803 H 0.18152 0.65162 0.35748 0.0
H804 H 0.16115 0.65165 0.4159 0.0
H805 H 0.20583 0.62694 0.40471 0.0
H806 H 0.31272 0.69387 0.50857 0.0
H807 H 0.27313 0.7015 0.58028 0.0
H808 H 0.1693 0.69509 0.49536 0.0
C809 C 0.25726 0.6929 0.33501 0.0
C810 C 0.29587 0.69551 0.31939 0.0
C811 C 0.32606 0.69419 0.35306 0.0
C812 C 0.31793 0.69143 0.40144 0.0
C813 C 0.27952 0.68953 0.41555 0.0
C814 C 0.24969 0.68989 0.38327 0.0
C815 C 0.21087 0.68953 0.40762 0.0
C816 C 0.1873 0.72549 0.39511 0.0
C817 C 0.18853 0.65273 0.39572 0.0
C818 C 0.22346 0.69003 0.45876 0.0
C819 C 0.26319 0.68983 0.46257 0.0
C820 C 0.28162 0.6933 0.50605 0.0
C821 C 0.25891 0.69769 0.54656 0.0
C822 C 0.21818 0.69832 0.5434 0.0
C823 C 0.20033 0.69366 0.49896 0.0
loop_
_geom_bond_atom_site_label_1
_geom_bond_atom_site_label_2
_geom_bond_distance
_geom_bond_site_symmetry_2
_ccdc_geom_bond_type
Sc0 O3 2.025 . S
Sc0 O10 2.105 . S
Sc0 O13 2.105 . S
Sc0 O16 2.105 . S
Sc0 O19 2.105 . S
Sc1 O3 2.025 . S
Sc1 O11 2.105 . S
Sc1 O15 2.105 . S
Sc1 O17 2.105 . S
Sc1 O21 2.105 . S
Sc2 O3 2.025 . S
Sc2 O12 2.105 . S
Sc2 O14 2.105 . S
Sc2 O18 2.105 . S
Sc2 O20 2.105 . S
O3 Sc0 2.025 . S
O3 Sc1 2.025 . S
O3 Sc2 2.025 . S
C4 O10 1.268 . S
C4 O20 1.268 . S
C5 O11 1.268 . S
C5 O19 1.268 . S
C6 O12 1.268 . S
C6 O21 1.268 . S
C7 O13 1.268 . S
C7 O17 1.268 . S
C8 O14 1.268 . S
C8 O16 1.268 . S
C9 O15 1.268 . S
C9 O18 1.268 . S
O10 Sc0 2.105 . S
O10 C4 1.268 . S
O11 Sc1 2.105 . S
O11 C5 1.268 . S
O12 Sc2 2.105 . S
O12 C6 1.268 . S
O13 Sc0 2.105 . S
O13 C7 1.268 . S
O14 Sc2 2.105 . S
O14 C8 1.268 . S
O15 Sc1 2.105 . S
O15 C9 1.268 . S
O16 Sc0 2.105 . S
O16 C8 1.268 . S
O17 Sc1 2.105 . S
O17 C7 1.268 . S
O18 Sc2 2.105 . S
O18 C9 1.268 . S
O19 Sc0 2.105 . S
O19 C5 1.268 . S
O20 Sc2 2.105 . S
O20 C4 1.268 . S
O21 Sc1 2.105 . S
O21 C6 1.268 . S
Sc22 O25 2.025 . S
Sc22 O32 2.105 . S
Sc22 O35 2.105 . S
Sc22 O38 2.105 . S
Sc22 O41 2.105 . S
Sc23 O25 2.025 . S
Sc23 O33 2.105 . S
Sc23 O37 2.105 . S
Sc23 O39 2.105 . S
Sc23 O43 2.105 . S
Sc24 O25 2.025 . S
Sc24 O34 2.105 . S
Sc24 O36 2.105 . S
Sc24 O40 2.105 . S
Sc24 O42 2.105 . S
O25 Sc22 2.025 . S
O25 Sc23 2.025 . S
O25 Sc24 2.025 . S
C26 O32 1.268 . S
C26 O42 1.268 . S
C27 O33 1.268 . S
C27 O41 1.268 . S
C28 O34 1.268 . S
C28 O43 1.268 . S
C29 O35 1.268 . S
C29 O39 1.268 . S
C30 O36 1.268 . S
C30 O38 1.268 . S
C31 O37 1.268 . S
C31 O40 1.268 . S
O32 Sc22 2.105 . S
O32 C26 1.268 . S
O33 Sc23 2.105 . S
O33 C27 1.268 . S
O34 Sc24 2.105 . S
O34 C28 1.268 . S
O35 Sc22 2.105 . S
O35 C29 1.268 . S
O36 Sc24 2.105 . S
O36 C30 1.268 . S
O37 Sc23 2.105 . S
O37 C31 1.268 . S
O38 Sc22 2.105 . S
O38 C30 1.268 . S
O39 Sc23 2.105 . S
O39 C29 1.268 . S
O40 Sc24 2.105 . S
O40 C31 1.268 . S
O41 Sc22 2.105 . S
O41 C27 1.268 . S
O42 Sc24 2.105 . S
O42 C26 1.268 . S
O43 Sc23 2.105 . S
O43 C28 1.268 . S
Sc44 O47 2.025 . S
Sc44 O54 2.105 . S
Sc44 O57 2.105 . S
Sc44 O60 2.105 . S
Sc44 O63 2.105 . S
Sc45 O47 2.025 . S
Sc45 O55 2.105 . S
Sc45 O59 2.105 . S
Sc45 O61 2.105 . S
Sc45 O65 2.105 . S
Sc46 O47 2.025 . S
Sc46 O56 2.105 . S
Sc46 O58 2.105 . S
Sc46 O62 2.105 . S
Sc46 O64 2.105 . S
O47 Sc44 2.025 . S
O47 Sc45 2.025 . S
O47 Sc46 2.025 . S
C48 O54 1.268 . S
C48 O64 1.268 . S
C49 O55 1.268 . S
C49 O63 1.268 . S
C50 O56 1.268 . S
C50 O65 1.268 . S
C51 O57 1.268 . S
C51 O61 1.268 . S
C52 O58 1.268 . S
C52 O60 1.268 . S
C53 O59 1.268 . S
C53 O62 1.268 . S
O54 Sc44 2.105 . S
O54 C48 1.268 . S
O55 Sc45 2.105 . S
O55 C49 1.268 . S
O56 Sc46 2.105 . S
O56 C50 1.268 . S
O57 Sc44 2.105 . S
O57 C51 1.268 . S
O58 Sc46 2.105 . S
O58 C52 1.268 . S
O59 Sc45 2.105 . S
O59 C53 1.268 . S
O60 Sc44 2.105 . S
O60 C52 1.268 . S
O61 Sc45 2.105 . S
O61 C51 1.268 . S
O62 Sc46 2.105 . S
O62 C53 1.268 . S
O63 Sc44 2.105 . S
O63 C49 1.268 . S
O64 Sc46 2.105 . S
O64 C48 1.268 . S
O65 Sc45 2.105 . S
O65 C50 1.268 . S
Sc66 O69 2.025 . S
Sc66 O76 2.105 . S
Sc66 O79 2.105 . S
Sc66 O82 2.105 . S
Sc66 O85 2.105 . S
Sc67 O69 2.025 . S
Sc67 O77 2.105 . S
Sc67 O81 2.105 . S
Sc67 O83 2.105 . S
Sc67 O87 2.105 . S
Sc68 O69 2.025 . S
Sc68 O78 2.105 . S
Sc68 O80 2.105 . S
Sc68 O84 2.105 . S
Sc68 O86 2.105 . S
O69 Sc66 2.025 . S
O69 Sc67 2.025 . S
O69 Sc68 2.025 . S
C70 O76 1.268 . S
C70 O86 1.268 . S
C71 O77 1.268 . S
C71 O85 1.268 . S
C72 O78 1.268 . S
C72 O87 1.268 . S
C73 O79 1.268 . S
C73 O83 1.268 . S
C74 O80 1.268 . S
C74 O82 1.268 . S
C75 O81 1.268 . S
C75 O84 1.268 . S
O76 Sc66 2.105 . S
O76 C70 1.268 . S
O77 Sc67 2.105 . S
O77 C71 1.268 . S
O78 Sc68 2.105 . S
O78 C72 1.268 . S
O79 Sc66 2.105 . S
O79 C73 1.268 . S
O80 Sc68 2.105 . S
O80 C74 1.268 . S
O81 Sc67 2.105 . S
O81 C75 1.268 . S
O82 Sc66 2.105 . S
O82 C74 1.268 . S
O83 Sc67 2.105 . S
O83 C73 1.268 . S
O84 Sc68 2.105 . S
O84 C75 1.268 . S
O85 Sc66 2.105 . S
O85 C71 1.268 . S
O86 Sc68 2.105 . S
O86 C70 1.268 . S
O87 Sc67 2.105 . S
O87 C72 1.268 . S
Sc88 O91 2.025 . S
Sc88 O98 2.105 . S
Sc88 O101 2.105 . S
Sc88 O104 2.105 . S
Sc88 O107 2.105 . S
Sc89 O91 2.025 . S
Sc89 O99 2.105 . S
Sc89 O103 2.105 . S
Sc89 O105 2.105 . S
Sc89 O109 2.105 . S
Sc90 O91 2.025 . S
Sc90 O100 2.105 . S
Sc90 O102 2.105 . S
Sc90 O106 2.105 . S
Sc90 O108 2.105 . S
O91 Sc88 2.025 . S
O91 Sc89 2.025 . S
O91 Sc90 2.025 . S
C92 O98 1.268 . S
C92 O108 1.268 . S
C93 O99 1.268 . S
C93 O107 1.268 . S
C94 O100 1.268 . S
C94 O109 1.268 . S
C95 O101 1.268 . S
C95 O105 1.268 . S
C96 O102 1.268 . S
C96 O104 1.268 . S
C97 O103 1.268 . S
C97 O106 1.268 . S
O98 Sc88 2.105 . S
O98 C92 1.268 . S
O99 Sc89 2.105 . S
O99 C93 1.268 . S
O100 Sc90 2.105 . S
O100 C94 1.268 . S
O101 Sc88 2.105 . S
O101 C95 1.268 . S
O102 Sc90 2.105 . S
O102 C96 1.268 . S
O103 Sc89 2.105 . S
O103 C97 1.268 . S
O104 Sc88 2.105 . S
O104 C96 1.268 . S
O105 Sc89 2.105 . S
O105 C95 1.268 . S
O106 Sc90 2.105 . S
O106 C97 1.268 . S
O107 Sc88 2.105 . S
O107 C93 1.268 . S
O108 Sc90 2.105 . S
O108 C92 1.268 . S
O109 Sc89 2.105 . S
O109 C94 1.268 . S
Sc110 O113 2.025 . S
Sc110 O120 2.105 . S
Sc110 O123 2.105 . S
Sc110 O126 2.105 . S
Sc110 O129 2.105 . S
Sc111 O113 2.025 . S
Sc111 O121 2.105 . S
Sc111 O125 2.105 . S
Sc111 O127 2.105 . S
Sc111 O131 2.105 . S
Sc112 O113 2.025 . S
Sc112 O122 2.105 . S
Sc112 O124 2.105 . S
Sc112 O128 2.105 . S
Sc112 O130 2.105 . S
O113 Sc110 2.025 . S
O113 Sc111 2.025 . S
O113 Sc112 2.025 . S
C114 O120 1.268 . S
C114 O130 1.268 . S
C115 O121 1.268 . S
C115 O129 1.268 . S
C116 O122 1.268 . S
C116 O131 1.268 . S
C117 O123 1.268 . S
C117 O127 1.268 . S
C118 O124 1.268 . S
C118 O126 1.268 . S
C119 O125 1.268 . S
C119 O128 1.268 . S
O120 Sc110 2.105 . S
O120 C114 1.268 . S
O121 Sc111 2.105 . S
O121 C115 1.268 . S
O122 Sc112 2.105 . S
O122 C116 1.268 . S
O123 Sc110 2.105 . S
O123 C117 1.268 . S
O124 Sc112 2.105 . S
O124 C118 1.268 . S
O125 Sc111 2.105 . S
O125 C119 1.268 . S
O126 Sc110 2.105 . S
O126 C118 1.268 . S
O127 Sc111 2.105 . S
O127 C117 1.268 . S
O128 Sc112 2.105 . S
O128 C119 1.268 . S
O129 Sc110 2.105 . S
O129 C115 1.268 . S
O130 Sc112 2.105 . S
O130 C114 1.268 . S
O131 Sc111 2.105 . S
O131 C116 1.268 . S
Sc132 O135 2.025 . S
Sc132 O142 2.105 . S
Sc132 O145 2.105 . S
Sc132 O148 2.105 . S
Sc132 O151 2.105 . S
Sc133 O135 2.025 . S
Sc133 O143 2.105 . S
Sc133 O147 2.105 . S
Sc133 O149 2.105 . S
Sc133 O153 2.105 . S
Sc134 O135 2.025 . S
Sc134 O144 2.105 . S
Sc134 O146 2.105 . S
Sc134 O150 2.105 . S
Sc134 O152 2.105 . S
O135 Sc132 2.025 . S
O135 Sc133 2.025 . S
O135 Sc134 2.025 . S
C136 O142 1.268 . S
C136 O152 1.268 . S
C137 O143 1.268 . S
C137 O151 1.268 . S
C138 O144 1.268 . S
C138 O153 1.268 . S
C139 O145 1.268 . S
C139 O149 1.268 . S
C140 O146 1.268 . S
C140 O148 1.268 . S
C141 O147 1.268 . S
C141 O150 1.268 . S
O142 Sc132 2.105 . S
O142 C136 1.268 . S
O143 Sc133 2.105 . S
O143 C137 1.268 . S
O144 Sc134 2.105 . S
O144 C138 1.268 . S
O145 Sc132 2.105 . S
O145 C139 1.268 . S
O146 Sc134 2.105 . S
O146 C140 1.268 . S
O147 Sc133 2.105 . S
O147 C141 1.268 . S
O148 Sc132 2.105 . S
O148 C140 1.268 . S
O149 Sc133 2.105 . S
O149 C139 1.268 . S
O150 Sc134 2.105 . S
O150 C141 1.268 . S
O151 Sc132 2.105 . S
O151 C137 1.268 . S
O152 Sc134 2.105 . S
O152 C136 1.268 . S
O153 Sc133 2.105 . S
O153 C138 1.268 . S
Sc154 O157 2.025 . S
Sc154 O164 2.105 . S
Sc154 O167 2.105 . S
Sc154 O170 2.105 . S
Sc154 O173 2.105 . S
Sc155 O157 2.025 . S
Sc155 O165 2.105 . S
Sc155 O169 2.105 . S
Sc155 O171 2.105 . S
Sc155 O175 2.105 . S
Sc156 O157 2.025 . S
Sc156 O166 2.105 . S
Sc156 O168 2.105 . S
Sc156 O172 2.105 . S
Sc156 O174 2.105 . S
O157 Sc154 2.025 . S
O157 Sc155 2.025 . S
O157 Sc156 2.025 . S
C158 O164 1.268 . S
C158 O174 1.268 . S
C159 O165 1.268 . S
C159 O173 1.268 . S
C160 O166 1.268 . S
C160 O175 1.268 . S
C161 O167 1.268 . S
C161 O171 1.268 . S
C162 O168 1.268 . S
C162 O170 1.268 . S
C163 O169 1.268 . S
C163 O172 1.268 . S
O164 Sc154 2.105 . S
O164 C158 1.268 . S
O165 Sc155 2.105 . S
O165 C159 1.268 . S
O166 Sc156 2.105 . S
O166 C160 1.268 . S
O167 Sc154 2.105 . S
O167 C161 1.268 . S
O168 Sc156 2.105 . S
O168 C162 1.268 . S
O169 Sc155 2.105 . S
O169 C163 1.268 . S
O170 Sc154 2.105 . S
O170 C162 1.268 . S
O171 Sc155 2.105 . S
O171 C161 1.268 . S
O172 Sc156 2.105 . S
O172 C163 1.268 . S
O173 Sc154 2.105 . S
O173 C159 1.268 . S
O174 Sc156 2.105 . S
O174 C158 1.268 . S
O175 Sc155 2.105 . S
O175 C160 1.268 . S
H176 C188 0.930 . S
H177 C190 0.930 . S
H178 C191 0.929 1_565 S
H179 C195 0.959 . S
H180 C195 0.959 . S
H181 C195 0.961 . S
H182 C196 0.960 . S
H183 C196 0.961 . S
H184 C196 0.959 . S
H185 C199 0.929 . S
H186 C200 0.931 . S
H187 C202 0.930 . S
C188 H176 0.930 . S
C188 C189 1.399 . S
C188 C193 1.399 1_545 S
C189 C188 1.399 . S
C189 C190 1.376 . S
C190 H177 0.930 . S
C190 C189 1.376 . S
C190 C191 1.395 . S
C191 H178 0.929 1_545 S
C191 C190 1.395 . S
C191 C192 1.384 1_545 S
C192 C191 1.384 1_565 S
C192 C193 1.394 . S
C192 C198 1.465 . S
C193 C188 1.399 1_565 S
C193 C192 1.394 . S
C193 C194 1.516 . S
C194 C193 1.516 . S
C194 C195 1.502 . S
C194 C196 1.561 . S
C194 C197 1.526 . S
C195 H179 0.959 . S
C195 H180 0.959 . S
C195 H181 0.961 . S
C195 C194 1.502 . S
C196 H182 0.960 . S
C196 H183 0.961 . S
C196 H184 0.959 . S
C196 C194 1.561 . S
C197 C194 1.526 . S
C197 C198 1.396 . S
C197 C202 1.390 . S
C198 C192 1.465 . S
C198 C197 1.396 . S
C198 C199 1.399 . S
C199 H185 0.929 . S
C199 C198 1.399 . S
C199 C200 1.385 . S
C200 H186 0.931 . S
C200 C199 1.385 . S
C200 C201 1.389 . S
C201 C200 1.389 . S
C201 C202 1.387 . S
C202 H187 0.930 . S
C202 C197 1.390 . S
C202 C201 1.387 . S
H203 C215 0.930 . S
H204 C217 0.930 . S
H205 C218 0.930 . S
H206 C222 0.959 . S
H207 C222 0.959 . S
H208 C222 0.961 . S
H209 C223 0.960 . S
H210 C223 0.961 . S
H211 C223 0.959 . S
H212 C226 0.929 . S
H213 C227 0.931 . S
H214 C229 0.930 . S
C215 H203 0.930 . S
C215 C216 1.399 . S
C215 C220 1.399 1_455 S
C216 C215 1.399 . S
C216 C217 1.376 . S
C217 H204 0.930 . S
C217 C216 1.376 . S
C217 C218 1.388 . S
C218 H205 0.930 . S
C218 C217 1.388 . S
C218 C219 1.390 1_455 S
C219 C218 1.390 1_655 S
C219 C220 1.394 . S
C219 C225 1.465 . S
C220 C215 1.399 1_655 S
C220 C219 1.394 . S
C220 C221 1.516 . S
C221 C220 1.516 . S
C221 C222 1.502 . S
C221 C223 1.561 . S
C221 C224 1.526 . S
C222 H206 0.959 . S
C222 H207 0.959 . S
C222 H208 0.961 . S
C222 C221 1.502 . S
C223 H209 0.960 . S
C223 H210 0.961 . S
C223 H211 0.959 . S
C223 C221 1.561 . S
C224 C221 1.526 . S
C224 C225 1.396 . S
C224 C229 1.390 . S
C225 C219 1.465 . S
C225 C224 1.396 . S
C225 C226 1.399 . S
C226 H212 0.929 . S
C226 C225 1.399 . S
C226 C227 1.385 . S
C227 H213 0.931 . S
C227 C226 1.385 . S
C227 C228 1.389 . S
C228 C227 1.389 . S
C228 C229 1.387 . S
C229 H214 0.930 . S
C229 C224 1.390 . S
C229 C228 1.387 . S
H230 C242 0.930 . S
H231 C244 0.930 . S
H232 C245 0.930 . S
H233 C249 0.959 . S
H234 C249 0.959 . S
H235 C249 0.961 1_565 S
H236 C250 0.960 . S
H237 C250 0.961 . S
H238 C250 0.959 . S
H239 C253 0.929 . S
H240 C254 0.931 . S
H241 C256 0.930 . S
C242 H230 0.930 . S
C242 C243 1.399 . S
C242 C247 1.399 1_565 S
C243 C242 1.399 . S
C243 C244 1.376 . S
C244 H231 0.930 . S
C244 C243 1.376 . S
C244 C245 1.388 1_565 S
C245 H232 0.930 . S
C245 C244 1.388 1_545 S
C245 C246 1.390 . S
C246 C245 1.390 . S
C246 C247 1.394 . S
C246 C252 1.465 . S
C247 C242 1.399 1_545 S
C247 C246 1.394 . S
C247 C248 1.516 . S
C248 C247 1.516 . S
C248 C249 1.502 . S
C248 C250 1.561 . S
C248 C251 1.526 . S
C249 H233 0.959 . S
C249 H234 0.959 . S
C249 H235 0.961 1_545 S
C249 C248 1.502 . S
C250 H236 0.960 . S
C250 H237 0.961 . S
C250 H238 0.959 . S
C250 C248 1.561 . S
C251 C248 1.526 . S
C251 C252 1.396 . S
C251 C256 1.390 . S
C252 C246 1.465 . S
C252 C251 1.396 . S
C252 C253 1.399 . S
C253 H239 0.929 . S
C253 C252 1.399 . S
C253 C254 1.385 . S
C254 H240 0.931 . S
C254 C253 1.385 . S
C254 C255 1.389 . S
C255 C254 1.389 . S
C255 C256 1.387 . S
C256 H241 0.930 . S
C256 C251 1.390 . S
C256 C255 1.387 . S
H257 C269 0.930 . S
H258 C271 0.930 . S
H259 C272 0.930 . S
H260 C276 0.959 . S
H261 C276 0.959 . S
H262 C276 0.961 . S
H263 C277 0.960 . S
H264 C277 0.961 1_655 S
H265 C277 0.959 . S
H266 C280 0.929 . S
H267 C281 0.931 . S
H268 C283 0.930 . S
C269 H257 0.930 . S
C269 C270 1.399 . S
C269 C274 1.399 . S
C270 C269 1.399 . S
C270 C271 1.376 . S
C271 H258 0.930 . S
C271 C270 1.376 . S
C271 C272 1.388 . S
C272 H259 0.930 . S
C272 C271 1.388 . S
C272 C273 1.390 . S
C273 C272 1.390 . S
C273 C274 1.394 . S
C273 C279 1.465 . S
C274 C269 1.399 . S
C274 C273 1.394 . S
C274 C275 1.516 . S
C275 C274 1.516 . S
C275 C276 1.502 . S
C275 C277 1.561 . S
C275 C278 1.526 . S
C276 H260 0.959 . S
C276 H261 0.959 . S
C276 H262 0.961 . S
C276 C275 1.502 . S
C277 H263 0.960 . S
C277 H264 0.961 1_455 S
C277 H265 0.959 . S
C277 C275 1.561 . S
C278 C275 1.526 . S
C278 C279 1.396 . S
C278 C283 1.390 1_455 S
C279 C273 1.465 . S
C279 C278 1.396 . S
C279 C280 1.399 . S
C280 H266 0.929 . S
C280 C279 1.399 . S
C280 C281 1.385 1_455 S
C281 H267 0.931 . S
C281 C280 1.385 1_655 S
C281 C282 1.389 . S
C282 C281 1.389 . S
C282 C283 1.387 . S
C283 H268 0.930 . S
C283 C278 1.390 1_655 S
C283 C282 1.387 . S
H284 C296 0.930 . S
H285 C298 0.930 . S
H286 C299 0.930 . S
H287 C303 0.959 . S
H288 C303 0.959 . S
H289 C303 0.961 . S
H290 C304 0.960 . S
H291 C304 0.961 . S
H292 C304 0.959 . S
H293 C307 0.929 . S
H294 C308 0.931 . S
H295 C310 0.930 . S
C296 H284 0.930 . S
C296 C297 1.399 . S
C296 C301 1.399 . S
C297 C296 1.399 . S
C297 C298 1.376 . S
C298 H285 0.930 . S
C298 C297 1.376 . S
C298 C299 1.388 . S
C299 H286 0.930 . S
C299 C298 1.388 . S
C299 C300 1.390 . S
C300 C299 1.390 . S
C300 C301 1.394 . S
C300 C306 1.465 . S
C301 C296 1.399 . S
C301 C300 1.394 . S
C301 C302 1.516 1_554 S
C302 C301 1.516 1_556 S
C302 C303 1.502 . S
C302 C304 1.561 . S
C302 C305 1.526 . S
C303 H287 0.959 . S
C303 H288 0.959 . S
C303 H289 0.961 . S
C303 C302 1.502 . S
C304 H290 0.960 . S
C304 H291 0.961 . S
C304 H292 0.959 . S
C304 C302 1.561 . S
C305 C302 1.526 . S
C305 C306 1.396 1_556 S
C305 C310 1.390 . S
C306 C300 1.465 . S
C306 C305 1.396 1_554 S
C306 C307 1.399 . S
C307 H293 0.929 . S
C307 C306 1.399 . S
C307 C308 1.385 . S
C308 H294 0.931 . S
C308 C307 1.385 . S
C308 C309 1.389 1_554 S
C309 C308 1.389 1_556 S
C309 C310 1.387 . S
C310 H295 0.930 . S
C310 C305 1.390 . S
C310 C309 1.387 . S
H311 C323 0.930 . S
H312 C325 0.930 . S
H313 C326 0.930 . S
H314 C330 0.959 . S
H315 C330 0.959 . S
H316 C330 0.961 . S
H317 C331 0.960 . S
H318 C331 0.961 . S
H319 C331 0.959 . S
H320 C334 0.929 . S
H321 C335 0.931 . S
H322 C337 0.930 . S
C323 H311 0.930 . S
C323 C324 1.399 . S
C323 C328 1.399 . S
C324 C323 1.399 . S
C324 C325 1.376 . S
C325 H312 0.930 . S
C325 C324 1.376 . S
C325 C326 1.388 . S
C326 H313 0.930 . S
C326 C325 1.388 . S
C326 C327 1.390 . S
C327 C326 1.390 . S
C327 C328 1.394 . S
C327 C333 1.465 . S
C328 C323 1.399 . S
C328 C327 1.394 . S
C328 C329 1.516 . S
C329 C328 1.516 . S
C329 C330 1.502 1_556 S
C329 C331 1.561 . S
C329 C332 1.526 . S
C330 H314 0.959 . S
C330 H315 0.959 . S
C330 H316 0.961 . S
C330 C329 1.502 1_554 S
C331 H317 0.960 . S
C331 H318 0.961 . S
C331 H319 0.959 . S
C331 C329 1.561 . S
C332 C329 1.526 . S
C332 C333 1.396 . S
C332 C337 1.390 1_556 S
C333 C327 1.465 . S
C333 C332 1.396 . S
C333 C334 1.399 . S
C334 H320 0.929 . S
C334 C333 1.399 . S
C334 C335 1.385 1_556 S
C335 H321 0.931 . S
C335 C334 1.385 1_554 S
C335 C336 1.389 . S
C336 C335 1.389 . S
C336 C337 1.387 . S
C337 H322 0.930 . S
C337 C332 1.390 1_554 S
C337 C336 1.387 . S
H338 C350 0.930 . S
H339 C352 0.930 . S
H340 C353 0.930 . S
H341 C357 0.959 . S
H342 C357 0.959 . S
H343 C357 0.961 . S
H344 C358 0.960 . S
H345 C358 0.961 . S
H346 C358 0.959 . S
H347 C361 0.929 . S
H348 C362 0.931 . S
H349 C364 0.930 1_554 S
C350 H338 0.930 . S
C350 C351 1.399 . S
C350 C355 1.399 . S
C351 C350 1.399 . S
C351 C352 1.376 . S
C352 H339 0.930 . S
C352 C351 1.376 . S
C352 C353 1.388 . S
C353 H340 0.930 . S
C353 C352 1.388 . S
C353 C354 1.390 . S
C354 C353 1.390 . S
C354 C355 1.394 . S
C354 C360 1.465 . S
C355 C350 1.399 . S
C355 C354 1.394 . S
C355 C356 1.516 . S
C356 C355 1.516 . S
C356 C357 1.502 . S
C356 C358 1.561 . S
C356 C359 1.526 . S
C357 H341 0.959 . S
C357 H342 0.959 . S
C357 H343 0.961 . S
C357 C356 1.502 . S
C358 H344 0.960 . S
C358 H345 0.961 . S
C358 H346 0.959 . S
C358 C356 1.561 . S
C359 C356 1.526 . S
C359 C360 1.396 . S
C359 C364 1.390 1_554 S
C360 C354 1.465 . S
C360 C359 1.396 . S
C360 C361 1.399 1_554 S
C361 H347 0.929 . S
C361 C360 1.399 1_556 S
C361 C362 1.385 . S
C362 H348 0.931 . S
C362 C361 1.385 . S
C362 C363 1.389 . S
C363 C362 1.389 . S
C363 C364 1.387 . S
C364 H349 0.930 1_556 S
C364 C359 1.390 1_556 S
C364 C363 1.387 . S
H365 C377 0.930 . S
H366 C379 0.930 . S
H367 C380 0.930 . S
H368 C384 0.959 . S
H369 C384 0.959 . S
H370 C384 0.961 . S
H371 C385 0.960 . S
H372 C385 0.961 1_556 S
H373 C385 0.959 . S
H374 C388 0.929 . S
H375 C389 0.931 . S
H376 C391 0.930 . S
C377 H365 0.930 . S
C377 C378 1.399 . S
C377 C382 1.399 1_554 S
C378 C377 1.399 . S
C378 C379 1.376 . S
C379 H366 0.930 . S
C379 C378 1.376 . S
C379 C380 1.388 . S
C380 H367 0.930 . S
C380 C379 1.388 . S
C380 C381 1.390 1_554 S
C381 C380 1.390 1_556 S
C381 C382 1.394 . S
C381 C387 1.465 . S
C382 C377 1.399 1_556 S
C382 C381 1.394 . S
C382 C383 1.516 . S
C383 C382 1.516 . S
C383 C384 1.502 . S
C383 C385 1.561 1_556 S
C383 C386 1.526 . S
C384 H368 0.959 . S
C384 H369 0.959 . S
C384 H370 0.961 . S
C384 C383 1.502 . S
C385 H371 0.960 . S
C385 H372 0.961 1_554 S
C385 H373 0.959 . S
C385 C383 1.561 1_554 S
C386 C383 1.526 . S
C386 C387 1.396 . S
C386 C391 1.390 . S
C387 C381 1.465 . S
C387 C386 1.396 . S
C387 C388 1.399 . S
C388 H374 0.929 . S
C388 C387 1.399 . S
C388 C389 1.385 . S
C389 H375 0.931 . S
C389 C388 1.385 . S
C389 C390 1.389 . S
C390 C389 1.389 . S
C390 C391 1.387 . S
C391 H376 0.930 . S
C391 C386 1.390 . S
C391 C390 1.387 . S
H392 C404 0.930 . S
H393 C406 0.930 . S
H394 C407 0.930 . S
H395 C411 0.959 . S
H396 C411 0.959 . S
H397 C411 0.961 . S
H398 C412 0.960 . S
H399 C412 0.961 . S
H400 C412 0.959 . S
H401 C415 0.929 . S
H402 C416 0.931 . S
H403 C418 0.930 . S
C404 H392 0.930 . S
C404 C405 1.399 . S
C404 C409 1.399 . S
C405 C404 1.399 . S
C405 C406 1.376 . S
C406 H393 0.930 . S
C406 C405 1.376 . S
C406 C407 1.388 . S
C407 H394 0.930 . S
C407 C406 1.388 . S
C407 C408 1.390 . S
C408 C407 1.390 . S
C408 C409 1.394 . S
C408 C414 1.465 . S
C409 C404 1.399 . S
C409 C408 1.394 . S
C409 C410 1.516 . S
C410 C409 1.516 . S
C410 C411 1.502 . S
C410 C412 1.561 . S
C410 C413 1.526 . S
C411 H395 0.959 . S
C411 H396 0.959 . S
C411 H397 0.961 . S
C411 C410 1.502 . S
C412 H398 0.960 . S
C412 H399 0.961 . S
C412 H400 0.959 . S
C412 C410 1.561 . S
C413 C410 1.526 . S
C413 C414 1.396 . S
C413 C418 1.390 . S
C414 C408 1.465 . S
C414 C413 1.396 . S
C414 C415 1.399 . S
C415 H401 0.929 . S
C415 C414 1.399 . S
C415 C416 1.385 . S
C416 H402 0.931 . S
C416 C415 1.385 . S
C416 C417 1.389 . S
C417 C416 1.389 . S
C417 C418 1.387 . S
C418 H403 0.930 . S
C418 C413 1.390 . S
C418 C417 1.387 . S
H419 C431 0.930 . S
H420 C433 0.930 . S
H421 C434 0.930 . S
H422 C438 0.959 . S
H423 C438 0.959 . S
H424 C438 0.961 . S
H425 C439 0.960 . S
H426 C439 0.961 . S
H427 C439 0.959 . S
H428 C442 0.929 . S
H429 C443 0.931 . S
H430 C445 0.930 . S
C431 H419 0.930 . S
C431 C432 1.399 . S
C431 C436 1.399 . S
C432 C431 1.399 . S
C432 C433 1.376 . S
C433 H420 0.930 . S
C433 C432 1.376 . S
C433 C434 1.388 . S
C434 H421 0.930 . S
C434 C433 1.388 . S
C434 C435 1.390 . S
C435 C434 1.390 . S
C435 C436 1.394 . S
C435 C441 1.465 . S
C436 C431 1.399 . S
C436 C435 1.394 . S
C436 C437 1.516 . S
C437 C436 1.516 . S
C437 C438 1.502 . S
C437 C439 1.561 . S
C437 C440 1.526 . S
C438 H422 0.959 . S
C438 H423 0.959 . S
C438 H424 0.961 . S
C438 C437 1.502 . S
C439 H425 0.960 . S
C439 H426 0.961 . S
C439 H427 0.959 . S
C439 C437 1.561 . S
C440 C437 1.526 . S
C440 C441 1.396 . S
C440 C445 1.390 . S
C441 C435 1.465 . S
C441 C440 1.396 . S
C441 C442 1.399 . S
C442 H428 0.929 . S
C442 C441 1.399 . S
C442 C443 1.385 . S
C443 H429 0.931 . S
C443 C442 1.385 . S
C443 C444 1.389 . S
C444 C443 1.389 . S
C444 C445 1.387 . S
C445 H430 0.930 . S
C445 C440 1.390 . S
C445 C444 1.387 . S
H446 C458 0.930 . S
H447 C460 0.930 . S
H448 C461 0.930 . S
H449 C465 0.959 . S
H450 C465 0.959 . S
H451 C465 0.961 . S
H452 C466 0.960 . S
H453 C466 0.961 . S
H454 C466 0.959 . S
H455 C469 0.929 . S
H456 C470 0.931 . S
H457 C472 0.930 . S
C458 H446 0.930 . S
C458 C459 1.399 . S
C458 C463 1.399 . S
C459 C458 1.399 . S
C459 C460 1.376 . S
C460 H447 0.930 . S
C460 C459 1.376 . S
C460 C461 1.388 . S
C461 H448 0.930 . S
C461 C460 1.388 . S
C461 C462 1.390 . S
C462 C461 1.390 . S
C462 C463 1.394 . S
C462 C468 1.465 . S
C463 C458 1.399 . S
C463 C462 1.394 . S
C463 C464 1.516 . S
C464 C463 1.516 . S
C464 C465 1.502 . S
C464 C466 1.561 . S
C464 C467 1.526 . S
C465 H449 0.959 . S
C465 H450 0.959 . S
C465 H451 0.961 . S
C465 C464 1.502 . S
C466 H452 0.960 . S
C466 H453 0.961 . S
C466 H454 0.959 . S
C466 C464 1.561 . S
C467 C464 1.526 . S
C467 C468 1.396 . S
C467 C472 1.390 . S
C468 C462 1.465 . S
C468 C467 1.396 . S
C468 C469 1.399 . S
C469 H455 0.929 . S
C469 C468 1.399 . S
C469 C470 1.385 . S
C470 H456 0.931 . S
C470 C469 1.385 . S
C470 C471 1.389 . S
C471 C470 1.389 . S
C471 C472 1.387 . S
C472 H457 0.930 . S
C472 C467 1.390 . S
C472 C471 1.387 . S
H473 C485 0.930 . S
H474 C487 0.930 . S
H475 C488 0.930 . S
H476 C492 0.959 . S
H477 C492 0.959 . S
H478 C492 0.961 . S
H479 C493 0.960 . S
H480 C493 0.961 . S
H481 C493 0.959 . S
H482 C496 0.929 . S
H483 C497 0.931 . S
H484 C499 0.930 . S
C485 H473 0.930 . S
C485 C486 1.399 . S
C485 C490 1.399 . S
C486 C485 1.399 . S
C486 C487 1.376 . S
C487 H474 0.930 . S
C487 C486 1.376 . S
C487 C488 1.388 . S
C488 H475 0.930 . S
C488 C487 1.388 . S
C488 C489 1.390 . S
C489 C488 1.390 . S
C489 C490 1.394 . S
C489 C495 1.465 . S
C490 C485 1.399 . S
C490 C489 1.394 . S
C490 C491 1.516 . S
C491 C490 1.516 . S
C491 C492 1.502 . S
C491 C493 1.561 . S
C491 C494 1.526 . S
C492 H476 0.959 . S
C492 H477 0.959 . S
C492 H478 0.961 . S
C492 C491 1.502 . S
C493 H479 0.960 . S
C493 H480 0.961 . S
C493 H481 0.959 . S
C493 C491 1.561 . S
C494 C491 1.526 . S
C494 C495 1.396 . S
C494 C499 1.390 . S
C495 C489 1.465 . S
C495 C494 1.396 . S
C495 C496 1.399 . S
C496 H482 0.929 . S
C496 C495 1.399 . S
C496 C497 1.385 . S
C497 H483 0.931 . S
C497 C496 1.385 . S
C497 C498 1.389 . S
C498 C497 1.389 . S
C498 C499 1.387 . S
C499 H484 0.930 . S
C499 C494 1.390 . S
C499 C498 1.387 . S
H500 C512 0.930 . S
H501 C514 0.930 . S
H502 C515 0.930 . S
H503 C519 0.959 . S
H504 C519 0.959 . S
H505 C519 0.961 . S
H506 C520 0.960 . S
H507 C520 0.961 . S
H508 C520 0.959 . S
H509 C523 0.929 . S
H510 C524 0.931 . S
H511 C526 0.930 . S
C512 H500 0.930 . S
C512 C513 1.399 . S
C512 C517 1.399 . S
C513 C512 1.399 . S
C513 C514 1.376 . S
C514 H501 0.930 . S
C514 C513 1.376 . S
C514 C515 1.388 . S
C515 H502 0.930 . S
C515 C514 1.388 . S
C515 C516 1.390 . S
C516 C515 1.390 . S
C516 C517 1.394 . S
C516 C522 1.465 . S
C517 C512 1.399 . S
C517 C516 1.394 . S
C517 C518 1.516 . S
C518 C517 1.516 . S
C518 C519 1.502 . S
C518 C520 1.561 . S
C518 C521 1.526 . S
C519 H503 0.959 . S
C519 H504 0.959 . S
C519 H505 0.961 . S
C519 C518 1.502 . S
C520 H506 0.960 . S
C520 H507 0.961 . S
C520 H508 0.959 . S
C520 C518 1.561 . S
C521 C518 1.526 . S
C521 C522 1.396 . S
C521 C526 1.390 1_545 S
C522 C516 1.465 . S
C522 C521 1.396 . S
C522 C523 1.399 1_545 S
C523 H509 0.929 . S
C523 C522 1.399 1_565 S
C523 C524 1.385 . S
C524 H510 0.931 . S
C524 C523 1.385 . S
C524 C525 1.389 . S
C525 C524 1.389 . S
C525 C526 1.387 . S
C526 H511 0.930 . S
C526 C521 1.390 1_565 S
C526 C525 1.387 . S
H527 C539 0.930 . S
H528 C541 0.930 . S
H529 C542 0.930 . S
H530 C546 0.959 . S
H531 C546 0.959 . S
H532 C546 0.961 . S
H533 C547 0.960 . S
H534 C547 0.961 1_655 S
H535 C547 0.959 . S
H536 C550 0.929 . S
H537 C551 0.931 . S
H538 C553 0.930 . S
C539 H527 0.930 . S
C539 C540 1.399 . S
C539 C544 1.399 . S
C540 C539 1.399 . S
C540 C541 1.376 . S
C541 H528 0.930 . S
C541 C540 1.376 . S
C541 C542 1.388 . S
C542 H529 0.930 . S
C542 C541 1.388 . S
C542 C543 1.390 . S
C543 C542 1.390 . S
C543 C544 1.394 . S
C543 C549 1.465 . S
C544 C539 1.399 . S
C544 C543 1.394 . S
C544 C545 1.516 . S
C545 C544 1.516 . S
C545 C546 1.502 . S
C545 C547 1.561 . S
C545 C548 1.526 . S
C546 H530 0.959 . S
C546 H531 0.959 . S
C546 H532 0.961 . S
C546 C545 1.502 . S
C547 H533 0.960 . S
C547 H534 0.961 1_455 S
C547 H535 0.959 . S
C547 C545 1.561 . S
C548 C545 1.526 . S
C548 C549 1.396 . S
C548 C553 1.390 1_455 S
C549 C543 1.465 . S
C549 C548 1.396 . S
C549 C550 1.399 . S
C550 H536 0.929 . S
C550 C549 1.399 . S
C550 C551 1.385 1_455 S
C551 H537 0.931 . S
C551 C550 1.385 1_655 S
C551 C552 1.389 . S
C552 C551 1.389 . S
C552 C553 1.387 . S
C553 H538 0.930 . S
C553 C548 1.390 1_655 S
C553 C552 1.387 . S
H554 C566 0.930 . S
H555 C568 0.930 . S
H556 C569 0.930 . S
H557 C573 0.959 . S
H558 C573 0.959 . S
H559 C573 0.961 . S
H560 C574 0.960 . S
H561 C574 0.961 . S
H562 C574 0.959 . S
H563 C577 0.929 . S
H564 C578 0.931 . S
H565 C580 0.930 . S
C566 H554 0.930 . S
C566 C567 1.399 . S
C566 C571 1.399 . S
C567 C566 1.399 . S
C567 C568 1.376 . S
C568 H555 0.930 . S
C568 C567 1.376 . S
C568 C569 1.388 . S
C569 H556 0.930 . S
C569 C568 1.388 . S
C569 C570 1.390 . S
C570 C569 1.390 . S
C570 C571 1.394 . S
C570 C576 1.465 . S
C571 C566 1.399 . S
C571 C570 1.394 . S
C571 C572 1.516 . S
C572 C571 1.516 . S
C572 C573 1.502 . S
C572 C574 1.561 . S
C572 C575 1.526 . S
C573 H557 0.959 . S
C573 H558 0.959 . S
C573 H559 0.961 . S
C573 C572 1.502 . S
C574 H560 0.960 . S
C574 H561 0.961 . S
C574 H562 0.959 . S
C574 C572 1.561 . S
C575 C572 1.526 . S
C575 C576 1.396 . S
C575 C580 1.390 1_565 S
C576 C570 1.465 . S
C576 C575 1.396 . S
C576 C577 1.399 1_565 S
C577 H563 0.929 . S
C577 C576 1.399 1_545 S
C577 C578 1.385 . S
C578 H564 0.931 . S
C578 C577 1.385 . S
C578 C579 1.389 . S
C579 C578 1.389 . S
C579 C580 1.387 . S
C580 H565 0.930 . S
C580 C575 1.390 1_545 S
C580 C579 1.387 . S
H581 C593 0.928 1_655 S
H582 C595 0.930 . S
H583 C596 0.930 . S
H584 C600 0.959 . S
H585 C600 0.959 . S
H586 C600 0.961 . S
H587 C601 0.960 . S
H588 C601 0.961 . S
H589 C601 0.959 . S
H590 C604 0.929 . S
H591 C605 0.931 . S
H592 C607 0.930 . S
C593 H581 0.928 1_455 S
C593 C594 1.399 . S
C593 C598 1.399 1_455 S
C594 C593 1.399 . S
C594 C595 1.376 . S
C595 H582 0.930 . S
C595 C594 1.376 . S
C595 C596 1.388 . S
C596 H583 0.930 . S
C596 C595 1.388 . S
C596 C597 1.390 1_455 S
C597 C596 1.390 1_655 S
C597 C598 1.394 . S
C597 C603 1.465 . S
C598 C593 1.399 1_655 S
C598 C597 1.394 . S
C598 C599 1.516 . S
C599 C598 1.516 . S
C599 C600 1.502 . S
C599 C601 1.561 . S
C599 C602 1.526 . S
C600 H584 0.959 . S
C600 H585 0.959 . S
C600 H586 0.961 . S
C600 C599 1.502 . S
C601 H587 0.960 . S
C601 H588 0.961 . S
C601 H589 0.959 . S
C601 C599 1.561 . S
C602 C599 1.526 . S
C602 C603 1.396 . S
C602 C607 1.390 . S
C603 C597 1.465 . S
C603 C602 1.396 . S
C603 C604 1.399 . S
C604 H590 0.929 . S
C604 C603 1.399 . S
C604 C605 1.385 . S
C605 H591 0.931 . S
C605 C604 1.385 . S
C605 C606 1.389 . S
C606 C605 1.389 . S
C606 C607 1.387 . S
C607 H592 0.930 . S
C607 C602 1.390 . S
C607 C606 1.387 . S
H608 C620 0.930 . S
H609 C622 0.930 1_556 S
H610 C623 0.930 . S
H611 C627 0.959 . S
H612 C627 0.959 . S
H613 C627 0.961 . S
H614 C628 0.960 . S
H615 C628 0.961 . S
H616 C628 0.959 . S
H617 C631 0.929 . S
H618 C632 0.931 . S
H619 C634 0.930 . S
C620 H608 0.930 . S
C620 C621 1.399 . S
C620 C625 1.399 . S
C621 C620 1.399 . S
C621 C622 1.376 . S
C622 H609 0.930 1_554 S
C622 C621 1.376 . S
C622 C623 1.388 . S
C623 H610 0.930 . S
C623 C622 1.388 . S
C623 C624 1.390 . S
C624 C623 1.390 . S
C624 C625 1.394 . S
C624 C630 1.465 . S
C625 C620 1.399 . S
C625 C624 1.394 . S
C625 C626 1.516 . S
C626 C625 1.516 . S
C626 C627 1.502 . S
C626 C628 1.561 . S
C626 C629 1.526 . S
C627 H611 0.959 . S
C627 H612 0.959 . S
C627 H613 0.961 . S
C627 C626 1.502 . S
C628 H614 0.960 . S
C628 H615 0.961 . S
C628 H616 0.959 . S
C628 C626 1.561 . S
C629 C626 1.526 . S
C629 C630 1.396 . S
C629 C634 1.390 . S
C630 C624 1.465 . S
C630 C629 1.396 . S
C630 C631 1.399 . S
C631 H617 0.929 . S
C631 C630 1.399 . S
C631 C632 1.385 . S
C632 H618 0.931 . S
C632 C631 1.385 . S
C632 C633 1.389 . S
C633 C632 1.389 . S
C633 C634 1.387 . S
C634 H619 0.930 . S
C634 C629 1.390 . S
C634 C633 1.387 . S
H635 C647 0.930 . S
H636 C649 0.930 . S
H637 C650 0.930 . S
H638 C654 0.959 . S
H639 C654 0.959 . S
H640 C654 0.961 . S
H641 C655 0.960 . S
H642 C655 0.961 . S
H643 C655 0.959 . S
H644 C658 0.929 . S
H645 C659 0.931 . S
H646 C661 0.930 . S
C647 H635 0.930 . S
C647 C648 1.399 . S
C647 C652 1.399 . S
C648 C647 1.399 . S
C648 C649 1.376 . S
C649 H636 0.930 . S
C649 C648 1.376 . S
C649 C650 1.388 . S
C650 H637 0.930 . S
C650 C649 1.388 . S
C650 C651 1.390 . S
C651 C650 1.390 . S
C651 C652 1.394 . S
C651 C657 1.465 . S
C652 C647 1.399 . S
C652 C651 1.394 . S
C652 C653 1.516 . S
C653 C652 1.516 . S
C653 C654 1.502 . S
C653 C655 1.561 . S
C653 C656 1.526 . S
C654 H638 0.959 . S
C654 H639 0.959 . S
C654 H640 0.961 . S
C654 C653 1.502 . S
C655 H641 0.960 . S
C655 H642 0.961 . S
C655 H643 0.959 . S
C655 C653 1.561 . S
C656 C653 1.526 . S
C656 C657 1.396 . S
C656 C661 1.390 . S
C657 C651 1.465 . S
C657 C656 1.396 . S
C657 C658 1.399 . S
C658 H644 0.929 . S
C658 C657 1.399 . S
C658 C659 1.385 . S
C659 H645 0.931 . S
C659 C658 1.385 . S
C659 C660 1.389 . S
C660 C659 1.389 . S
C660 C661 1.387 . S
C661 H646 0.930 . S
C661 C656 1.390 . S
C661 C660 1.387 . S
H662 C674 0.930 . S
H663 C676 0.930 . S
H664 C677 0.930 . S
H665 C681 0.959 . S
H666 C681 0.959 . S
H667 C681 0.961 . S
H668 C682 0.960 . S
H669 C682 0.961 . S
H670 C682 0.959 . S
H671 C685 0.929 . S
H672 C686 0.931 1_556 S
H673 C688 0.930 . S
C674 H662 0.930 . S
C674 C675 1.399 . S
C674 C679 1.399 . S
C675 C674 1.399 . S
C675 C676 1.376 . S
C676 H663 0.930 . S
C676 C675 1.376 . S
C676 C677 1.388 . S
C677 H664 0.930 . S
C677 C676 1.388 . S
C677 C678 1.390 . S
C678 C677 1.390 . S
C678 C679 1.394 . S
C678 C684 1.465 . S
C679 C674 1.399 . S
C679 C678 1.394 . S
C679 C680 1.516 . S
C680 C679 1.516 . S
C680 C681 1.502 . S
C680 C682 1.561 . S
C680 C683 1.526 . S
C681 H665 0.959 . S
C681 H666 0.959 . S
C681 H667 0.961 . S
C681 C680 1.502 . S
C682 H668 0.960 . S
C682 H669 0.961 . S
C682 H670 0.959 . S
C682 C680 1.561 . S
C683 C680 1.526 . S
C683 C684 1.396 . S
C683 C688 1.390 . S
C684 C678 1.465 . S
C684 C683 1.396 . S
C684 C685 1.399 . S
C685 H671 0.929 . S
C685 C684 1.399 . S
C685 C686 1.385 . S
C686 H672 0.931 1_554 S
C686 C685 1.385 . S
C686 C687 1.389 . S
C687 C686 1.389 . S
C687 C688 1.387 . S
C688 H673 0.930 . S
C688 C683 1.390 . S
C688 C687 1.387 . S
H689 C701 0.930 . S
H690 C703 0.930 . S
H691 C704 0.930 . S
H692 C708 0.959 . S
H693 C708 0.959 . S
H694 C708 0.961 . S
H695 C709 0.960 . S
H696 C709 0.961 . S
H697 C709 0.959 . S
H698 C712 0.929 . S
H699 C713 0.931 1_554 S
H700 C715 0.930 . S
C701 H689 0.930 . S
C701 C702 1.399 . S
C701 C706 1.399 . S
C702 C701 1.399 . S
C702 C703 1.376 . S
C703 H690 0.930 . S
C703 C702 1.376 . S
C703 C704 1.388 . S
C704 H691 0.930 . S
C704 C703 1.388 . S
C704 C705 1.390 . S
C705 C704 1.390 . S
C705 C706 1.394 . S
C705 C711 1.465 . S
C706 C701 1.399 . S
C706 C705 1.394 . S
C706 C707 1.516 . S
C707 C706 1.516 . S
C707 C708 1.502 . S
C707 C709 1.561 . S
C707 C710 1.526 . S
C708 H692 0.959 . S
C708 H693 0.959 . S
C708 H694 0.961 . S
C708 C707 1.502 . S
C709 H695 0.960 . S
C709 H696 0.961 . S
C709 H697 0.959 . S
C709 C707 1.561 . S
C710 C707 1.526 . S
C710 C711 1.396 . S
C710 C715 1.390 . S
C711 C705 1.465 . S
C711 C710 1.396 . S
C711 C712 1.399 . S
C712 H698 0.929 . S
C712 C711 1.399 . S
C712 C713 1.385 . S
C713 H699 0.931 1_556 S
C713 C712 1.385 . S
C713 C714 1.389 . S
C714 C713 1.389 . S
C714 C715 1.387 . S
C715 H700 0.930 . S
C715 C710 1.390 . S
C715 C714 1.387 . S
H716 C728 0.930 . S
H717 C730 0.930 . S
H718 C731 0.930 . S
H719 C735 0.959 . S
H720 C735 0.959 . S
H721 C735 0.961 . S
H722 C736 0.960 . S
H723 C736 0.961 . S
H724 C736 0.959 . S
H725 C739 0.929 . S
H726 C740 0.931 . S
H727 C742 0.930 . S
C728 H716 0.930 . S
C728 C729 1.399 . S
C728 C733 1.399 . S
C729 C728 1.399 . S
C729 C730 1.376 . S
C730 H717 0.930 . S
C730 C729 1.376 . S
C730 C731 1.388 . S
C731 H718 0.930 . S
C731 C730 1.388 . S
C731 C732 1.390 . S
C732 C731 1.390 . S
C732 C733 1.394 . S
C732 C738 1.465 . S
C733 C728 1.399 . S
C733 C732 1.394 . S
C733 C734 1.516 . S
C734 C733 1.516 . S
C734 C735 1.502 . S
C734 C736 1.561 . S
C734 C737 1.526 . S
C735 H719 0.959 . S
C735 H720 0.959 . S
C735 H721 0.961 . S
C735 C734 1.502 . S
C736 H722 0.960 . S
C736 H723 0.961 . S
C736 H724 0.959 . S
C736 C734 1.561 . S
C737 C734 1.526 . S
C737 C738 1.396 . S
C737 C742 1.390 . S
C738 C732 1.465 . S
C738 C737 1.396 . S
C738 C739 1.399 . S
C739 H725 0.929 . S
C739 C738 1.399 . S
C739 C740 1.385 . S
C740 H726 0.931 . S
C740 C739 1.385 . S
C740 C741 1.389 . S
C741 C740 1.389 . S
C741 C742 1.387 . S
C742 H727 0.930 . S
C742 C737 1.390 . S
C742 C741 1.387 . S
H743 C755 0.930 . S
H744 C757 0.930 . S
H745 C758 0.930 . S
H746 C762 0.959 . S
H747 C762 0.959 . S
H748 C762 0.961 . S
H749 C763 0.960 . S
H750 C763 0.961 . S
H751 C763 0.959 . S
H752 C766 0.929 . S
H753 C767 0.931 . S
H754 C769 0.930 . S
C755 H743 0.930 . S
C755 C756 1.399 . S
C755 C760 1.399 . S
C756 C755 1.399 . S
C756 C757 1.376 . S
C757 H744 0.930 . S
C757 C756 1.376 . S
C757 C758 1.388 . S
C758 H745 0.930 . S
C758 C757 1.388 . S
C758 C759 1.390 . S
C759 C758 1.390 . S
C759 C760 1.394 . S
C759 C765 1.465 . S
C760 C755 1.399 . S
C760 C759 1.394 . S
C760 C761 1.516 . S
C761 C760 1.516 . S
C761 C762 1.502 . S
C761 C763 1.561 . S
C761 C764 1.526 . S
C762 H746 0.959 . S
C762 H747 0.959 . S
C762 H748 0.961 . S
C762 C761 1.502 . S
C763 H749 0.960 . S
C763 H750 0.961 . S
C763 H751 0.959 . S
C763 C761 1.561 . S
C764 C761 1.526 . S
C764 C765 1.396 . S
C764 C769 1.390 . S
C765 C759 1.465 . S
C765 C764 1.396 . S
C765 C766 1.399 . S
C766 H752 0.929 . S
C766 C765 1.399 . S
C766 C767 1.385 . S
C767 H753 0.931 . S
C767 C766 1.385 . S
C767 C768 1.389 . S
C768 C767 1.389 . S
C768 C769 1.387 . S
C769 H754 0.930 . S
C769 C764 1.390 . S
C769 C768 1.387 . S
H770 C782 0.930 . S
H771 C784 0.930 . S
H772 C785 0.930 . S
H773 C789 0.959 . S
H774 C789 0.959 . S
H775 C789 0.961 . S
H776 C790 0.960 . S
H777 C790 0.961 . S
H778 C790 0.959 . S
H779 C793 0.929 . S
H780 C794 0.931 . S
H781 C796 0.930 . S
C782 H770 0.930 . S
C782 C783 1.399 . S
C782 C787 1.399 . S
C783 C782 1.399 . S
C783 C784 1.376 . S
C784 H771 0.930 . S
C784 C783 1.376 . S
C784 C785 1.388 . S
C785 H772 0.930 . S
C785 C784 1.388 . S
C785 C786 1.390 . S
C786 C785 1.390 . S
C786 C787 1.394 . S
C786 C792 1.465 . S
C787 C782 1.399 . S
C787 C786 1.394 . S
C787 C788 1.516 . S
C788 C787 1.516 . S
C788 C789 1.502 . S
C788 C790 1.561 . S
C788 C791 1.526 . S
C789 H773 0.959 . S
C789 H774 0.959 . S
C789 H775 0.961 . S
C789 C788 1.502 . S
C790 H776 0.960 . S
C790 H777 0.961 . S
C790 H778 0.959 . S
C790 C788 1.561 . S
C791 C788 1.526 . S
C791 C792 1.396 . S
C791 C796 1.390 . S
C792 C786 1.465 . S
C792 C791 1.396 . S
C792 C793 1.399 . S
C793 H779 0.929 . S
C793 C792 1.399 . S
C793 C794 1.385 . S
C794 H780 0.931 . S
C794 C793 1.385 . S
C794 C795 1.389 . S
C795 C794 1.389 . S
C795 C796 1.387 . S
C796 H781 0.930 . S
C796 C791 1.390 . S
C796 C795 1.387 . S
H797 C809 0.930 . S
H798 C811 0.930 . S
H799 C812 0.930 . S
H800 C816 0.959 . S
H801 C816 0.959 . S
H802 C816 0.961 . S
H803 C817 0.960 . S
H804 C817 0.961 . S
H805 C817 0.959 . S
H806 C820 0.929 . S
H807 C821 0.931 . S
H808 C823 0.930 . S
C809 H797 0.930 . S
C809 C810 1.399 . S
C809 C814 1.399 . S
C810 C809 1.399 . S
C810 C811 1.376 . S
C811 H798 0.930 . S
C811 C810 1.376 . S
C811 C812 1.388 . S
C812 H799 0.930 . S
C812 C811 1.388 . S
C812 C813 1.390 . S
C813 C812 1.390 . S
C813 C814 1.394 . S
C813 C819 1.465 . S
C814 C809 1.399 . S
C814 C813 1.394 . S
C814 C815 1.516 . S
C815 C814 1.516 . S
C815 C816 1.502 . S
C815 C817 1.561 . S
C815 C818 1.526 . S
C816 H800 0.959 . S
C816 H801 0.959 . S
C816 H802 0.961 . S
C816 C815 1.502 . S
C817 H803 0.960 . S
C817 H804 0.961 . S
C817 H805 0.959 . S
C817 C815 1.561 . S
C818 C815 1.526 . S
C818 C819 1.396 . S
C818 C823 1.390 . S
C819 C813 1.465 . S
C819 C818 1.396 . S
C819 C820 1.399 . S
C820 H806 0.929 . S
C820 C819 1.399 . S
C820 C821 1.385 . S
C821 H807 0.931 . S
C821 C820 1.385 . S
C821 C822 1.389 . S
C822 C821 1.389 . S
C822 C823 1.387 . S
C823 H808 0.930 . S
C823 C818 1.390 . S
C823 C822 1.387 . S
C189 C7 1.123 . S
C201 C119 1.191 . S
C216 C29 1.166 . S
C228 C140 1.188 . S
C243 C50 1.097 . S
C255 C163 1.197 . S
C270 C92 1.178 . S
C282 C73 1.144 . S
C297 C114 1.175 . S
C309 C97 1.186 . S
C324 C138 1.172 . S
C336 C115 1.188 . S
C351 C158 1.197 . S
C363 C137 1.098 . S
C378 C159 1.149 . S
C390 C95 1.177 . S
C405 C139 1.156 . S
C417 C75 1.183 . S
C432 C161 1.126 . S
C444 C8 1.183 . S
C459 C31 1.197 . S
C471 C94 1.096 . S
C486 C48 1.177 . S
C498 C117 1.151 . S
C513 C70 1.179 . S
C525 C53 1.168 . S
C540 C6 1.176 . S
C552 C71 1.153 . S
C567 C26 1.177 . S
C579 C5 1.177 . S
C594 C27 1.190 . S
C606 C51 1.173 . S
C621 C96 1.405 1_554 S
C633 C9 1.460 . S
C648 C116 1.410 1_556 S
C660 C30 1.441 . S
C675 C49 1.461 . S
C687 C136 1.406 1_554 S
C702 C74 1.436 . S
C714 C160 1.414 1_556 S
C729 C52 1.457 . S
C741 C141 1.411 . S
C756 C72 1.456 . S
C768 C162 1.405 . S
C783 C93 1.405 . S
C795 C4 1.460 . S
C810 C118 1.451 . S
C822 C28 1.406 . S
