# Generated by pormake.
# Topology sra, (4)-cn, num edge types: 1
# Building blocks:
#     Node 0, Type 0, BuildingBlock: ICAMEG_clean_sbu_1, # of connection points: 4
#     Node 1, Type 0, BuildingBlock: ICAMEG_clean_sbu_1, # of connection points: 4
#     Node 2, Type 0, BuildingBlock: ICAMEG_clean_sbu_1, # of connection points: 4
#     Node 3, Type 0, BuildingBlock: ICAMEG_clean_sbu_1, # of connection points: 4
#     Node 4, Type 0, BuildingBlock: ICAMEG_clean_sbu_1, # of connection points: 4
#     Node 5, Type 0, BuildingBlock: ICAMEG_clean_sbu_1, # of connection points: 4
#     Node 6, Type 0, BuildingBlock: ICAMEG_clean_sbu_1, # of connection points: 4
#     Node 7, Type 0, BuildingBlock: ICAMEG_clean_sbu_1, # of connection points: 4
#     Edge 8, Type (0, 0), None
#     Edge 9, Type (0, 0), None
#     Edge 10, Type (0, 0), None
#     Edge 11, Type (0, 0), None
#     Edge 12, Type (0, 0), None
#     Edge 13, Type (0, 0), None
#     Edge 14, Type (0, 0), None
#     Edge 15, Type (0, 0), None
#     Edge 16, Type (0, 0), None
#     Edge 17, Type (0, 0), None
#     Edge 18, Type (0, 0), None
#     Edge 19, Type (0, 0), None
#     Edge 20, Type (0, 0), None
#     Edge 21, Type (0, 0), None
#     Edge 22, Type (0, 0), None
#     Edge 23, Type (0, 0), None
# Relax obj value: 0.033
# Max RMSD: 0.060
# Mean RMSD: 0.060
data_MOF--net-sra--node1-ICAMEG_clean_sbu_1--edge1-none
_symmetry_space_group_name_H-M    P1
_symmetry_Int_Tables_number       1
_symmetry_cell_setting            triclinic
loop_
_symmetry_equiv_pos_as_xyz
'x, y, z'
_cell_length_a     14.428677
_cell_length_b     25.962042
_cell_length_c     15.347856
_cell_angle_alpha  89.997309
_cell_angle_beta   89.99901
_cell_angle_gamma 89.659846
loop_
_atom_site_label
_atom_site_type_symbol
_atom_site_fract_x
_atom_site_fract_y
_atom_site_fract_z
_atom_type_partial_charge
Co0 Co 0.03727 0.13878 0.2882 0.0
Co1 Co 0.95244 0.16033 0.07762 0.0
O2 O 0.03139 0.12272 0.16106 0.0
C3 C 0.23582 0.14617 0.23554 0.0
O4 O 0.21029 0.16616 0.16072 0.0
C5 C 0.92366 0.04799 0.03245 0.0
O6 O 0.95175 0.03548 0.1108 0.0
O7 O 0.84481 0.1545 0.15793 0.0
O8 O 0.89922 0.1478 0.2946 0.0
H9 H 0.75625 0.31517 0.01897 0.0
H10 H 0.12813 0.04348 0.2218 0.0
O11 O 0.17577 0.13065 0.28977 0.0
H12 H 0.87304 0.98466 0.41054 0.0
H13 H 0.16662 0.10912 0.58715 0.0
H14 H 0.95923 0.21804 0.40915 0.0
H15 H 0.91229 0.07679 0.40186 0.0
H16 H 0.13752 0.088 0.43356 0.0
O17 O 0.91193 0.09538 0.0129 0.0
H18 H 0.83996 0.25258 0.10896 0.0
H19 H 0.88151 0.15509 0.88948 0.0
H20 H 0.99014 0.24077 0.56276 0.0
H21 H 0.09102 0.95079 0.22884 0.0
H22 H 0.0957 0.18747 0.65177 0.0
H23 H 0.95806 0.92168 0.31873 0.0
O24 O 0.05234 0.21541 0.26649 0.0
H25 H 0.23465 0.08905 0.92605 0.0
H26 H 0.01641 0.23471 0.94224 0.0
H27 H 0.13805 0.23495 0.8298 0.0
H28 H 0.25008 0.16197 0.8226 0.0
H29 H 0.10828 0.08939 0.0331 0.0
H30 H 0.78711 0.21557 0.80135 0.0
H31 H 0.73294 0.29727 0.86154 0.0
O32 O 0.99569 0.22645 0.13161 0.0
C33 C 0.83289 0.15085 0.23989 0.0
C34 C 0.78391 0.28035 0.9899 0.0
C35 C 0.80228 0.22401 0.86743 0.0
N36 N 0.87145 0.20151 0.0036 0.0
C37 C 0.83254 0.24473 0.04024 0.0
C38 C 0.85343 0.18969 0.91871 0.0
C39 C 0.77073 0.27028 0.90206 0.0
C40 C 0.07319 0.03065 0.26434 0.0
N41 N 0.02114 0.06563 0.30974 0.0
C42 C 0.05193 0.97822 0.26739 0.0
C43 C 0.97778 0.96179 0.31833 0.0
C44 C 0.92915 0.99726 0.36902 0.0
C45 C 0.95192 0.04935 0.36391 0.0
C46 C 0.12201 0.13353 0.54833 0.0
C47 C 0.00448 0.19392 0.448 0.0
C48 C 0.10385 0.1214 0.46157 0.0
N49 N 0.04665 0.15187 0.41212 0.0
C50 C 0.02191 0.20719 0.53458 0.0
C51 C 0.08178 0.17727 0.58464 0.0
C52 C 0.03066 0.24413 0.20171 0.0
C53 C 0.18742 0.12154 0.92947 0.0
C54 C 0.06493 0.20349 0.93987 0.0
C55 C 0.13345 0.20338 0.87565 0.0
C56 C 0.19588 0.16235 0.87128 0.0
N57 N 0.05602 0.1633 0.9962 0.0
C58 C 0.11597 0.12233 0.99089 0.0
Co59 Co 0.04645 0.40557 0.2883 0.0
Co60 Co 0.13124 0.3841 0.07762 0.0
O61 O 0.05231 0.42165 0.16118 0.0
C62 C 0.84791 0.39811 0.23557 0.0
O63 O 0.87347 0.37821 0.16071 0.0
C64 C 0.15959 0.49649 0.03251 0.0
O65 O 0.13064 0.50897 0.11059 0.0
O66 O 0.23885 0.38977 0.158 0.0
O67 O 0.18451 0.39667 0.29468 0.0
H68 H 0.32721 0.2292 0.01851 0.0
H69 H 0.95523 0.5008 0.22203 0.0
O70 O 0.90792 0.41358 0.28988 0.0
H71 H 0.2102 0.55984 0.41068 0.0
H72 H 0.91711 0.43509 0.5873 0.0
H73 H 0.12469 0.32634 0.40921 0.0
H74 H 0.1713 0.46766 0.40193 0.0
H75 H 0.94608 0.45625 0.4337 0.0
O76 O 0.17193 0.44912 0.01315 0.0
H77 H 0.24315 0.29158 0.10861 0.0
H78 H 0.20313 0.38979 0.88978 0.0
H79 H 0.09386 0.30356 0.56282 0.0
H80 H 0.99202 0.59353 0.22913 0.0
H81 H 0.98823 0.35678 0.65187 0.0
H82 H 0.12493 0.62275 0.31897 0.0
O83 O 0.03162 0.32894 0.26656 0.0
H84 H 0.8485 0.4555 0.92699 0.0
H85 H 0.0678 0.31026 0.94086 0.0
H86 H 0.94589 0.31023 0.82883 0.0
H87 H 0.83333 0.38298 0.82272 0.0
H88 H 0.97498 0.45497 0.03383 0.0
H89 H 0.29821 0.3296 0.80171 0.0
H90 H 0.35154 0.2476 0.86138 0.0
O91 O 0.08779 0.31796 0.13146 0.0
C92 C 0.25081 0.39352 0.23995 0.0
C93 C 0.29977 0.26413 0.9896 0.0
C94 C 0.28237 0.32089 0.86756 0.0
N95 N 0.21227 0.34297 0.00353 0.0
C96 C 0.25089 0.29962 0.03999 0.0
C97 C 0.2309 0.35506 0.91886 0.0
C98 C 0.31353 0.27447 0.90192 0.0
C99 C 0.01015 0.51367 0.26455 0.0
N100 N 0.06236 0.47873 0.30988 0.0
C101 C 0.03122 0.56612 0.26763 0.0
C102 C 0.10534 0.58262 0.31855 0.0
C103 C 0.15413 0.54719 0.36917 0.0
C104 C 0.13155 0.49507 0.36402 0.0
C105 C 0.96175 0.41071 0.54845 0.0
C106 C 0.07939 0.35043 0.44808 0.0
C107 C 0.97985 0.42287 0.46168 0.0
N108 N 0.03711 0.39244 0.41222 0.0
C109 C 0.06202 0.33712 0.53466 0.0
C110 C 0.0021 0.367 0.58475 0.0
C111 C 0.05307 0.30025 0.20168 0.0
C112 C 0.89594 0.42308 0.92996 0.0
C113 C 0.01903 0.34137 0.93913 0.0
C114 C 0.95035 0.3416 0.87506 0.0
C115 C 0.88763 0.3825 0.87131 0.0
N116 N 0.02768 0.38129 0.99607 0.0
C117 C 0.96747 0.42217 0.99128 0.0
Co118 Co 0.04961 0.90283 0.71506 0.0
Co119 Co 0.97376 0.89266 0.92842 0.0
O120 O 0.05137 0.9227 0.8387 0.0
C121 C 0.24981 0.8975 0.76177 0.0
O122 O 0.2266 0.87947 0.83854 0.0
C123 C 0.91874 1.00706 0.96442 0.0
O124 O 0.8895 1.01712 0.88521 0.0
O125 O 0.86096 0.89992 0.85399 0.0
O126 O 0.91208 0.89309 0.71619 0.0
H127 H 0.74157 0.76575 0.03902 0.0
H128 H 0.13408 1.00098 0.77517 0.0
O129 O 0.18793 0.91094 0.70744 0.0
H130 H 0.87262 0.05078 0.58513 0.0
H131 H 0.1679 0.92292 0.41024 0.0
H132 H 0.95964 0.82362 0.60151 0.0
H133 H 0.92098 0.95991 0.59764 0.0
H134 H 0.14838 0.94668 0.56403 0.0
O135 O 0.95161 0.96279 0.98358 0.0
H136 H 0.85082 0.80139 0.93334 0.0
H137 H 0.92379 0.91934 0.11322 0.0
H138 H 0.97543 0.8006 0.44584 0.0
H139 H 0.08697 0.0924 0.76512 0.0
H140 H 0.08017 0.84906 0.35011 0.0
H141 H 0.95237 0.11716 0.67339 0.0
O142 O 0.06468 0.82727 0.74496 0.0
H143 H 0.25961 0.95865 0.07531 0.0
H144 H 0.04443 0.81327 0.05077 0.0
H145 H 0.17342 0.80802 0.1564 0.0
H146 H 0.28314 0.88106 0.16821 0.0
H147 H 0.13052 0.9613 0.97092 0.0
H148 H 0.79885 0.89338 0.20912 0.0
H149 H 0.70971 0.81332 0.1762 0.0
O150 O 1.00057 0.82156 0.87902 0.0
C151 C 0.84701 0.8953 0.77233 0.0
C152 C 0.7799 0.80024 0.05477 0.0
C153 C 0.81274 0.87114 0.15094 0.0
N154 N 0.8945 0.86264 0.01625 0.0
C155 C 0.8439 0.81994 0.99593 0.0
C156 C 0.882 0.88688 0.09439 0.0
C157 C 0.76262 0.82681 0.13189 0.0
C158 C 0.07764 1.01184 0.73249 0.0
N159 N 0.02979 0.97508 0.68782 0.0
C160 C 0.05074 0.06354 0.72778 0.0
C161 C 0.97539 0.07749 0.6759 0.0
C162 C 0.93035 0.04023 0.62665 0.0
C163 C 0.9586 0.98888 0.63355 0.0
C164 C 0.12153 0.90116 0.45146 0.0
C165 C 0.00404 0.84602 0.55949 0.0
C166 C 0.11022 0.91423 0.53887 0.0
N167 N 0.05318 0.88627 0.59209 0.0
C168 C 0.01236 0.83278 0.47169 0.0
C169 C 0.07233 0.85987 0.41785 0.0
C170 C 0.03609 0.80095 0.81058 0.0
C171 C 0.21417 0.92586 0.06934 0.0
C172 C 0.0933 0.84411 0.05446 0.0
C173 C 0.16566 0.84142 0.11476 0.0
C174 C 0.22682 0.88253 0.12175 0.0
N175 N 0.08144 0.88653 0.00333 0.0
C176 C 0.14082 0.92714 0.01012 0.0
Co177 Co 0.03384 0.64175 0.71504 0.0
Co178 Co 0.10968 0.65182 0.92839 0.0
O179 O 0.03203 0.62186 0.83866 0.0
C180 C 0.83365 0.64708 0.76176 0.0
O181 O 0.85688 0.66511 0.83852 0.0
C182 C 0.16486 0.53743 0.96452 0.0
O183 O 0.19497 0.52745 0.88556 0.0
O184 O 0.22247 0.6445 0.85399 0.0
O185 O 0.17139 0.65148 0.7162 0.0
H186 H 0.34163 0.77872 0.0396 0.0
H187 H 0.94936 0.54359 0.77512 0.0
O188 O 0.89552 0.63364 0.70741 0.0
H189 H 0.21085 0.4938 0.5851 0.0
H190 H 0.91569 0.62166 0.41021 0.0
H191 H 0.12354 0.72111 0.60163 0.0
H192 H 0.1625 0.58468 0.59763 0.0
H193 H 0.93527 0.59784 0.56397 0.0
O194 O 0.13155 0.58163 0.98344 0.0
H195 H 0.23256 0.74315 0.93369 0.0
H196 H 0.15983 0.62486 0.11305 0.0
H197 H 0.1075 0.74427 0.44605 0.0
H198 H 0.99648 0.45217 0.76507 0.0
H199 H 0.00309 0.69569 0.3502 0.0
H200 H 0.13109 0.42742 0.67334 0.0
O201 O 0.01879 0.71729 0.74499 0.0
H202 H 0.82372 0.58599 0.07533 0.0
H203 H 0.03917 0.73124 0.05072 0.0
H204 H 0.9102 0.73658 0.15637 0.0
H205 H 0.80035 0.6636 0.16823 0.0
H206 H 0.95274 0.58328 0.97088 0.0
H207 H 0.28478 0.65069 0.20898 0.0
H208 H 0.37356 0.73094 0.1766 0.0
O209 O 0.08306 0.72296 0.879 0.0
C210 C 0.23645 0.64919 0.77234 0.0
C211 C 0.30341 0.74416 0.05516 0.0
C212 C 0.27081 0.67305 0.15093 0.0
N213 N 0.18899 0.68173 0.0163 0.0
C214 C 0.2395 0.7245 0.9962 0.0
C215 C 0.20156 0.65736 0.09433 0.0
C216 C 0.32076 0.71747 0.13216 0.0
C217 C 0.00581 0.53273 0.73245 0.0
N218 N 0.05367 0.5695 0.68779 0.0
C219 C 0.03271 0.48104 0.72773 0.0
C220 C 0.10807 0.46708 0.67585 0.0
C221 C 0.15311 0.50436 0.62662 0.0
C222 C 0.12487 0.5557 0.63352 0.0
C223 C 0.96197 0.64346 0.45145 0.0
C224 C 0.07923 0.69868 0.55957 0.0
C225 C 0.97334 0.63034 0.53884 0.0
N226 N 0.03029 0.65834 0.59209 0.0
C227 C 0.07079 0.71199 0.47182 0.0
C228 C 0.01097 0.68484 0.41791 0.0
C229 C 0.04751 0.74359 0.81057 0.0
C230 C 0.86921 0.61876 0.06934 0.0
C231 C 0.99023 0.70044 0.05442 0.0
C232 C 0.91789 0.70318 0.11473 0.0
C233 C 0.85665 0.66209 0.12174 0.0
N234 N 0.002 0.65802 0.00328 0.0
C235 C 0.94253 0.61744 0.01009 0.0
Co236 Co 0.53713 0.63884 0.7883 0.0
Co237 Co 0.45236 0.66032 0.57763 0.0
O238 O 0.53128 0.62277 0.66118 0.0
C239 C 0.73568 0.6463 0.73557 0.0
O240 O 0.71011 0.66623 0.66071 0.0
C241 C 0.424 0.54794 0.53251 0.0
O242 O 0.45295 0.53545 0.61059 0.0
O243 O 0.34474 0.65465 0.658 0.0
O244 O 0.39908 0.64775 0.79468 0.0
H245 H 0.2564 0.81523 0.51852 0.0
H246 H 0.62834 0.54361 0.72203 0.0
O247 O 0.67566 0.63083 0.78987 0.0
H248 H 0.37336 0.48457 0.91069 0.0
H249 H 0.66647 0.6093 0.08729 0.0
H250 H 0.45891 0.71806 0.90921 0.0
H251 H 0.41227 0.57675 0.90193 0.0
H252 H 0.6375 0.58815 0.93369 0.0
O253 O 0.41167 0.59531 0.51314 0.0
H254 H 0.34042 0.75283 0.60863 0.0
H255 H 0.38055 0.65468 0.38976 0.0
H256 H 0.48975 0.74084 0.06282 0.0
H257 H 0.59154 0.45088 0.72913 0.0
H258 H 0.59537 0.68761 0.15187 0.0
H259 H 0.45863 0.42166 0.81898 0.0
O260 O 0.55199 0.71547 0.76656 0.0
H261 H 0.73507 0.58893 0.42694 0.0
H262 H 0.51586 0.7342 0.44096 0.0
H263 H 0.63777 0.73426 0.32891 0.0
H264 H 0.75028 0.66148 0.32273 0.0
H265 H 0.60859 0.58945 0.5338 0.0
H266 H 0.28553 0.71488 0.30168 0.0
H267 H 0.23214 0.79687 0.36138 0.0
O268 O 0.49581 0.72646 0.63147 0.0
C269 C 0.33278 0.6509 0.73995 0.0
C270 C 0.28385 0.7803 0.48961 0.0
C271 C 0.30132 0.72358 0.36755 0.0
N272 N 0.37134 0.70146 0.50353 0.0
C273 C 0.33271 0.74481 0.54 0.0
C274 C 0.35276 0.68939 0.41884 0.0
C275 C 0.27014 0.76999 0.40192 0.0
C276 C 0.57341 0.53074 0.76455 0.0
N277 N 0.52122 0.56568 0.80988 0.0
C278 C 0.55234 0.47829 0.76763 0.0
C279 C 0.47821 0.4618 0.81855 0.0
C280 C 0.42944 0.49722 0.86918 0.0
C281 C 0.45202 0.54934 0.86402 0.0
C282 C 0.62183 0.63368 0.04845 0.0
C283 C 0.5042 0.69398 0.94808 0.0
C284 C 0.60373 0.62153 0.96168 0.0
N285 N 0.54647 0.65196 0.91222 0.0
C286 C 0.52158 0.70728 0.03466 0.0
C287 C 0.58149 0.6774 0.08474 0.0
C288 C 0.53054 0.74416 0.70168 0.0
C289 C 0.68765 0.62135 0.42994 0.0
C290 C 0.5646 0.70309 0.43919 0.0
C291 C 0.63328 0.70286 0.37511 0.0
C292 C 0.69598 0.66195 0.37132 0.0
N293 N 0.55592 0.66315 0.49609 0.0
C294 C 0.61612 0.62225 0.49126 0.0
Co295 Co 0.54632 0.90563 0.78819 0.0
Co296 Co 0.63116 0.8841 0.57762 0.0
O297 O 0.5522 0.92169 0.66106 0.0
C298 C 0.34777 0.89825 0.73553 0.0
O299 O 0.37329 0.87826 0.66071 0.0
C300 C 0.65993 0.99643 0.53246 0.0
O301 O 0.63183 1.00894 0.61081 0.0
O302 O 0.73879 0.88992 0.65793 0.0
O303 O 0.68437 0.89662 0.7946 0.0
H304 H 0.82735 0.72925 0.51896 0.0
H305 H 0.45544 1.00093 0.7218 0.0
O306 O 0.40781 0.91375 0.78977 0.0
H307 H 0.71051 0.05976 0.91054 0.0
H308 H 0.41697 0.93527 0.08715 0.0
H309 H 0.62436 0.82637 0.90914 0.0
H310 H 0.67128 0.96763 0.90186 0.0
H311 H 0.44605 0.9564 0.93356 0.0
O312 O 0.67167 0.94905 0.5129 0.0
H313 H 0.74361 0.79183 0.60894 0.0
H314 H 0.70217 0.88937 0.3895 0.0
H315 H 0.59347 0.80363 0.06276 0.0
H316 H 0.49254 0.09362 0.72884 0.0
H317 H 0.4879 0.85692 0.15177 0.0
H318 H 0.6255 0.12273 0.81872 0.0
O319 O 0.53126 0.829 0.76649 0.0
H320 H 0.34892 0.95538 0.4261 0.0
H321 H 0.56725 0.80975 0.44213 0.0
H322 H 0.4456 0.80953 0.32972 0.0
H323 H 0.33352 0.88249 0.32259 0.0
H324 H 0.47529 0.95503 0.53314 0.0
H325 H 0.79663 0.82892 0.30138 0.0
H326 H 0.85074 0.7472 0.36154 0.0
O327 O 0.58791 0.81798 0.6316 0.0
C328 C 0.7507 0.89357 0.7399 0.0
C329 C 0.79971 0.76409 0.48989 0.0
C330 C 0.78141 0.82045 0.36744 0.0
N331 N 0.71217 0.84292 0.50359 0.0
C332 C 0.75106 0.7997 0.54023 0.0
C333 C 0.73023 0.85476 0.41872 0.0
C334 C 0.81294 0.77417 0.40206 0.0
C335 C 0.51038 1.01376 0.76434 0.0
N336 N 0.56243 0.97878 0.80974 0.0
C337 C 0.53163 0.06619 0.76739 0.0
C338 C 0.60577 0.08262 0.81833 0.0
C339 C 0.65441 0.04716 0.86902 0.0
C340 C 0.63165 0.99506 0.86391 0.0
C341 C 0.46158 0.91086 0.04833 0.0
C342 C 0.57911 0.85049 0.948 0.0
C343 C 0.47973 0.923 0.96157 0.0
N344 N 0.53694 0.89253 0.91212 0.0
C345 C 0.56169 0.8372 0.03459 0.0
C346 C 0.50182 0.86712 0.08465 0.0
C347 C 0.55295 0.80029 0.70171 0.0
C348 C 0.39617 0.92289 0.42949 0.0
C349 C 0.51871 0.84096 0.43981 0.0
C350 C 0.45018 0.84109 0.37559 0.0
C351 C 0.38773 0.8821 0.37126 0.0
N352 N 0.52759 0.88113 0.49618 0.0
C353 C 0.46762 0.92209 0.4909 0.0
Co354 Co 0.54975 0.40269 0.21504 0.0
Co355 Co 0.47391 0.39261 0.42839 0.0
O356 O 0.55156 0.42257 0.33866 0.0
C357 C 0.74993 0.39734 0.26176 0.0
O358 O 0.72669 0.37929 0.3385 0.0
C359 C 0.41873 0.507 0.46451 0.0
O360 O 0.38861 0.51699 0.38556 0.0
O361 O 0.36111 0.39993 0.35399 0.0
O362 O 0.4122 0.39295 0.2162 0.0
H363 H 0.24199 0.26569 0.53966 0.0
H364 H 0.63422 0.50085 0.27513 0.0
O365 O 0.68807 0.4108 0.20742 0.0
H366 H 0.37271 0.55064 0.08512 0.0
H367 H 0.66793 0.42279 0.91021 0.0
H368 H 0.46008 0.32332 0.10163 0.0
H369 H 0.4211 0.45976 0.09763 0.0
H370 H 0.64831 0.44662 0.06397 0.0
O371 O 0.45204 0.4628 0.48343 0.0
H372 H 0.35105 0.30126 0.43374 0.0
H373 H 0.42371 0.41959 0.61303 0.0
H374 H 0.47617 0.30016 0.94607 0.0
H375 H 0.58707 0.59226 0.26511 0.0
H376 H 0.58057 0.34876 0.85021 0.0
H377 H 0.45246 0.61702 0.17338 0.0
O378 O 0.5648 0.32715 0.24499 0.0
H379 H 0.75987 0.45842 0.57532 0.0
H380 H 0.5444 0.31318 0.55072 0.0
H381 H 0.67337 0.30783 0.65636 0.0
H382 H 0.78323 0.38081 0.66821 0.0
H383 H 0.63085 0.46114 0.47087 0.0
H384 H 0.29874 0.39377 0.70896 0.0
H385 H 0.21003 0.31349 0.67664 0.0
O386 O 0.50052 0.32147 0.379 0.0
C387 C 0.34714 0.39523 0.27234 0.0
C388 C 0.28019 0.30026 0.55521 0.0
C389 C 0.31274 0.3714 0.65093 0.0
N390 N 0.39459 0.3627 0.51631 0.0
C391 C 0.3441 0.31992 0.49623 0.0
C392 C 0.38199 0.38708 0.59433 0.0
C393 C 0.26282 0.32696 0.63219 0.0
C394 C 0.57776 0.5117 0.23246 0.0
N395 N 0.52992 0.47494 0.18779 0.0
C396 C 0.55085 0.5634 0.22776 0.0
C397 C 0.47549 0.57735 0.17588 0.0
C398 C 0.43046 0.54008 0.12664 0.0
C399 C 0.45872 0.48874 0.13353 0.0
C400 C 0.62164 0.401 0.95146 0.0
C401 C 0.5044 0.34576 0.05957 0.0
C402 C 0.61026 0.41411 0.03884 0.0
N403 N 0.55331 0.38611 0.09209 0.0
C404 C 0.51286 0.33245 0.97183 0.0
C405 C 0.57267 0.35961 0.91793 0.0
C406 C 0.53608 0.30084 0.31058 0.0
C407 C 0.71437 0.42566 0.56933 0.0
C408 C 0.59334 0.34398 0.55442 0.0
C409 C 0.66569 0.34124 0.61473 0.0
C410 C 0.72693 0.38232 0.62174 0.0
N411 N 0.58158 0.38641 0.50328 0.0
C412 C 0.64106 0.42698 0.51009 0.0
Co413 Co 0.53398 0.14161 0.21506 0.0
Co414 Co 0.60982 0.15177 0.42842 0.0
O415 O 0.53222 0.12173 0.3387 0.0
C416 C 0.33378 0.14692 0.26179 0.0
O417 O 0.35698 0.16493 0.33857 0.0
C418 C 0.66485 0.03737 0.46443 0.0
O419 O 0.69408 0.02732 0.38521 0.0
O420 O 0.72263 0.14451 0.35399 0.0
O421 O 0.67151 0.15134 0.21619 0.0
H422 H 0.84205 0.27867 0.53895 0.0
H423 H 0.44949 0.04346 0.27516 0.0
O424 O 0.39566 0.1335 0.20744 0.0
H425 H 0.71095 0.99366 0.08511 0.0
H426 H 0.41571 0.12154 0.91024 0.0
H427 H 0.62398 0.22082 0.10151 0.0
H428 H 0.66261 0.08453 0.09764 0.0
H429 H 0.4352 0.09777 0.06403 0.0
O430 O 0.63198 0.08164 0.48359 0.0
H431 H 0.73279 0.24302 0.43329 0.0
H432 H 0.65976 0.12511 0.61324 0.0
H433 H 0.60823 0.24383 0.94583 0.0
H434 H 0.49658 0.95203 0.26509 0.0
H435 H 0.50348 0.19539 0.8501 0.0
H436 H 0.63117 0.92727 0.17335 0.0
O437 O 0.51891 0.21717 0.24496 0.0
H438 H 0.32398 0.08576 0.57532 0.0
H439 H 0.53914 0.23115 0.55076 0.0
H440 H 0.41016 0.23639 0.65641 0.0
H441 H 0.30044 0.16334 0.66822 0.0
H442 H 0.45307 0.08312 0.47093 0.0
H443 H 0.78468 0.15107 0.70915 0.0
H444 H 0.87388 0.23112 0.67616 0.0
O445 O 0.58301 0.22287 0.37902 0.0
C446 C 0.73658 0.14913 0.27233 0.0
C447 C 0.8037 0.24419 0.55473 0.0
C448 C 0.77082 0.17331 0.65094 0.0
N449 N 0.68908 0.18179 0.51624 0.0
C450 C 0.73969 0.22449 0.4959 0.0
C451 C 0.70156 0.15756 0.5944 0.0
C452 C 0.82096 0.21763 0.63186 0.0
C453 C 0.50594 0.0326 0.23248 0.0
N454 N 0.55379 0.06936 0.18782 0.0
C455 C 0.53282 0.9809 0.22776 0.0
C456 C 0.60817 0.96694 0.17587 0.0
C457 C 0.65321 1.00421 0.12663 0.0
C458 C 0.62498 0.05556 0.13354 0.0
C459 C 0.46208 0.1433 0.95145 0.0
C460 C 0.57958 0.19842 0.05948 0.0
C461 C 0.47337 0.13022 0.03886 0.0
N462 N 0.53042 0.15818 0.09209 0.0
C463 C 0.57129 0.21166 0.97168 0.0
C464 C 0.5113 0.18457 0.91784 0.0
C465 C 0.5475 0.24348 0.31058 0.0
C466 C 0.36942 0.11855 0.56935 0.0
C467 C 0.49027 0.20031 0.55447 0.0
C468 C 0.41791 0.203 0.61477 0.0
C469 C 0.35676 0.16188 0.62176 0.0
N470 N 0.50214 0.1579 0.50333 0.0
C471 C 0.44277 0.11728 0.51013 0.0
loop_
_geom_bond_atom_site_label_1
_geom_bond_atom_site_label_2
_geom_bond_distance
_geom_bond_site_symmetry_2
_ccdc_geom_bond_type
Co0 O2 2.143 . S
Co0 O8 2.074 1_455 S
Co0 O11 2.093 . S
Co0 O24 2.097 . S
Co0 N41 2.151 . S
Co0 N49 2.214 . S
Co1 O2 2.160 1_655 S
Co1 O7 2.058 . S
Co1 O17 2.057 . S
Co1 O32 2.037 . S
Co1 N36 2.145 1_554 S
Co1 N57 2.257 1_654 S
O2 Co0 2.143 . S
O2 Co1 2.160 1_455 S
C3 O4 1.278 . S
C3 O11 1.224 . S
O4 C3 1.278 . S
C5 O6 1.245 . S
C5 O17 1.232 1_455 S
O6 C5 1.245 . S
O7 Co1 2.058 . S
O7 C33 1.269 . S
O8 Co0 2.074 1_655 S
O8 C33 1.257 . S
H9 C34 0.930 . S
H10 C40 0.930 . S
O11 Co0 2.093 . S
O11 C3 1.224 . S
H12 C44 0.929 . S
H13 C46 0.930 . S
H14 C47 0.930 . S
H15 C45 0.929 . S
H16 C48 0.928 . S
O17 Co1 2.057 . S
O17 C5 1.232 1_655 S
H18 C37 0.929 1_554 S
H19 C38 0.929 . S
H20 C50 0.931 . S
H21 C42 0.929 . S
H22 C51 0.930 1_655 S
H23 C43 0.931 . S
O24 Co0 2.097 . S
O24 C52 1.214 . S
H25 C53 0.929 . S
H26 C54 0.929 . S
H27 C55 0.930 . S
H28 C56 0.929 . S
H29 C58 0.930 . S
H30 C35 0.930 . S
H31 C39 0.930 . S
O32 Co1 2.037 . S
O32 C52 1.234 1_655 S
C33 O7 1.269 . S
C33 O8 1.257 . S
C34 H9 0.930 . S
C34 C37 1.388 . S
C34 C39 1.418 . S
C35 H30 0.930 . S
C35 C38 1.404 . S
C35 C39 1.353 . S
N36 Co1 2.145 1_556 S
N36 C37 1.397 . S
N36 C38 1.334 . S
C37 H18 0.929 1_556 S
C37 C34 1.388 . S
C37 N36 1.397 . S
C38 H19 0.929 . S
C38 C35 1.404 . S
C38 N36 1.334 . S
C39 H31 0.930 . S
C39 C34 1.418 . S
C39 C35 1.353 . S
C40 H10 0.930 . S
C40 N41 1.330 . S
C40 C42 1.446 1_545 S
N41 Co0 2.151 . S
N41 C40 1.330 . S
N41 C45 1.418 1_455 S
C42 H21 0.929 . S
C42 C40 1.446 1_565 S
C42 C43 1.332 . S
C43 H23 0.931 . S
C43 C42 1.332 . S
C43 C44 1.267 1_465 S
C44 H12 0.929 . S
C44 C43 1.267 1_645 S
C44 C45 1.251 . S
C45 H15 0.929 . S
C45 N41 1.418 1_655 S
C45 C44 1.251 . S
C46 H13 0.930 . S
C46 C48 1.406 . S
C46 C51 1.261 . S
C47 H14 0.930 . S
C47 N49 1.325 1_655 S
C47 C50 1.357 . S
C48 H16 0.928 . S
C48 C46 1.406 . S
C48 N49 1.261 . S
N49 Co0 2.214 . S
N49 C47 1.325 1_455 S
N49 C48 1.261 . S
C50 H20 0.931 . S
C50 C47 1.357 . S
C50 C51 1.312 1_655 S
C51 H22 0.930 1_455 S
C51 C46 1.261 . S
C51 C50 1.312 1_455 S
C52 O24 1.214 . S
C52 O32 1.234 1_455 S
C53 H25 0.929 . S
C53 C56 1.391 . S
C53 C58 1.391 . S
C54 H26 0.929 . S
C54 C55 1.390 . S
C54 N57 1.391 . S
C55 H27 0.930 . S
C55 C54 1.390 . S
C55 C56 1.392 . S
C56 H28 0.929 . S
C56 C53 1.391 . S
C56 C55 1.392 . S
N57 Co1 2.257 1_456 S
N57 C54 1.391 . S
N57 C58 1.388 . S
C58 H29 0.930 . S
C58 C53 1.391 . S
C58 N57 1.388 . S
Co59 O61 2.143 . S
Co59 O67 2.074 . S
Co59 O70 2.093 1_455 S
Co59 O83 2.097 . S
Co59 N100 2.151 . S
Co59 N108 2.214 . S
Co60 O61 2.160 . S
Co60 O66 2.058 . S
Co60 O76 2.057 . S
Co60 O91 2.037 . S
Co60 N95 2.145 1_554 S
Co60 N116 2.257 1_454 S
O61 Co59 2.143 . S
O61 Co60 2.160 . S
C62 O63 1.278 . S
C62 O70 1.224 . S
O63 C62 1.278 . S
C64 O65 1.245 . S
C64 O76 1.232 . S
O65 C64 1.245 . S
O66 Co60 2.058 . S
O66 C92 1.269 . S
O67 Co59 2.074 . S
O67 C92 1.257 . S
H68 C93 0.930 . S
H69 C99 0.930 . S
O70 Co59 2.093 1_655 S
O70 C62 1.224 . S
H71 C103 0.929 . S
H72 C105 0.930 1_655 S
H73 C106 0.930 . S
H74 C104 0.929 . S
H75 C107 0.928 1_655 S
O76 Co60 2.057 . S
O76 C64 1.232 . S
H77 C96 0.929 1_554 S
H78 C97 0.929 . S
H79 C109 0.931 . S
H80 C101 0.929 . S
H81 C110 0.930 . S
H82 C102 0.931 . S
O83 Co59 2.097 . S
O83 C111 1.214 . S
H84 C112 0.929 . S
H85 C113 0.929 1_455 S
H86 C114 0.930 . S
H87 C115 0.929 . S
H88 C117 0.930 . S
H89 C94 0.930 . S
H90 C98 0.930 . S
O91 Co60 2.037 . S
O91 C111 1.234 . S
C92 O66 1.269 . S
C92 O67 1.257 . S
C93 H68 0.930 . S
C93 C96 1.388 . S
C93 C98 1.418 . S
C94 H89 0.930 . S
C94 C97 1.404 . S
C94 C98 1.353 . S
N95 Co60 2.145 1_556 S
N95 C96 1.397 . S
N95 C97 1.334 . S
C96 H77 0.929 1_556 S
C96 C93 1.388 . S
C96 N95 1.397 . S
C97 H78 0.929 . S
C97 C94 1.404 . S
C97 N95 1.334 . S
C98 H90 0.930 . S
C98 C93 1.418 . S
C98 C94 1.353 . S
C99 H69 0.930 . S
C99 N100 1.330 1_655 S
C99 C101 1.446 . S
N100 Co59 2.151 . S
N100 C99 1.330 1_455 S
N100 C104 1.418 . S
C101 H80 0.929 . S
C101 C99 1.446 . S
C101 C102 1.332 1_655 S
C102 H82 0.931 . S
C102 C101 1.332 1_455 S
C102 C103 1.267 . S
C103 H71 0.929 . S
C103 C102 1.267 . S
C103 C104 1.251 . S
C104 H74 0.929 . S
C104 N100 1.418 . S
C104 C103 1.251 . S
C105 H72 0.930 1_455 S
C105 C107 1.406 . S
C105 C110 1.261 . S
C106 H73 0.930 . S
C106 N108 1.325 . S
C106 C109 1.357 . S
C107 H75 0.928 1_455 S
C107 C105 1.406 . S
C107 N108 1.261 . S
N108 Co59 2.214 . S
N108 C106 1.325 . S
N108 C107 1.261 . S
C109 H79 0.931 . S
C109 C106 1.357 . S
C109 C110 1.312 . S
C110 H81 0.930 . S
C110 C105 1.261 . S
C110 C109 1.312 . S
C111 O83 1.214 . S
C111 O91 1.234 . S
C112 H84 0.929 . S
C112 C115 1.391 . S
C112 C117 1.391 . S
C113 H85 0.929 1_655 S
C113 C114 1.390 . S
C113 N116 1.391 . S
C114 H86 0.930 . S
C114 C113 1.390 . S
C114 C115 1.392 . S
C115 H87 0.929 . S
C115 C112 1.391 . S
C115 C114 1.392 . S
N116 Co60 2.257 1_656 S
N116 C113 1.391 . S
N116 C117 1.388 . S
C117 H88 0.930 . S
C117 C112 1.391 . S
C117 N116 1.388 . S
Co118 O120 2.143 . S
Co118 O126 2.074 1_455 S
Co118 O129 2.093 . S
Co118 O142 2.097 . S
Co118 N159 2.151 . S
Co118 N167 2.214 . S
Co119 O120 2.160 1_655 S
Co119 O125 2.058 . S
Co119 O135 2.057 . S
Co119 O150 2.037 . S
Co119 N154 2.145 1_556 S
Co119 N175 2.257 1_656 S
O120 Co118 2.143 . S
O120 Co119 2.160 1_455 S
C121 O122 1.278 . S
C121 O129 1.224 . S
O122 C121 1.278 . S
C123 O124 1.245 . S
C123 O135 1.232 1_455 S
O124 C123 1.245 . S
O125 Co119 2.058 . S
O125 C151 1.269 . S
O126 Co118 2.074 1_655 S
O126 C151 1.257 . S
H127 C152 0.930 . S
H128 C158 0.930 . S
O129 Co118 2.093 . S
O129 C121 1.224 . S
H130 C162 0.929 . S
H131 C164 0.930 . S
H132 C165 0.930 . S
H133 C163 0.929 . S
H134 C166 0.928 . S
O135 Co119 2.057 . S
O135 C123 1.232 1_655 S
H136 C155 0.929 1_556 S
H137 C156 0.929 . S
H138 C168 0.931 . S
H139 C160 0.929 . S
H140 C169 0.930 1_655 S
H141 C161 0.931 . S
O142 Co118 2.097 . S
O142 C170 1.214 . S
H143 C171 0.929 . S
H144 C172 0.929 . S
H145 C173 0.930 . S
H146 C174 0.929 . S
H147 C176 0.930 . S
H148 C153 0.930 . S
H149 C157 0.930 . S
O150 Co119 2.037 . S
O150 C170 1.234 1_655 S
C151 O125 1.269 . S
C151 O126 1.257 . S
C152 H127 0.930 . S
C152 C155 1.388 . S
C152 C157 1.418 . S
C153 H148 0.930 . S
C153 C156 1.404 . S
C153 C157 1.353 . S
N154 Co119 2.145 1_554 S
N154 C155 1.397 . S
N154 C156 1.334 . S
C155 H136 0.929 1_554 S
C155 C152 1.388 . S
C155 N154 1.397 . S
C156 H137 0.929 . S
C156 C153 1.404 . S
C156 N154 1.334 . S
C157 H149 0.930 . S
C157 C152 1.418 . S
C157 C153 1.353 . S
C158 H128 0.930 . S
C158 N159 1.330 . S
C158 C160 1.446 1_565 S
N159 Co118 2.151 . S
N159 C158 1.330 . S
N159 C163 1.418 1_455 S
C160 H139 0.929 . S
C160 C158 1.446 1_545 S
C160 C161 1.332 . S
C161 H141 0.931 . S
C161 C160 1.332 . S
C161 C162 1.267 1_445 S
C162 H130 0.929 . S
C162 C161 1.267 1_665 S
C162 C163 1.251 . S
C163 H133 0.929 . S
C163 N159 1.418 1_655 S
C163 C162 1.251 . S
C164 H131 0.930 . S
C164 C166 1.406 . S
C164 C169 1.261 . S
C165 H132 0.930 . S
C165 N167 1.325 1_655 S
C165 C168 1.357 . S
C166 H134 0.928 . S
C166 C164 1.406 . S
C166 N167 1.261 . S
N167 Co118 2.214 . S
N167 C165 1.325 1_455 S
N167 C166 1.261 . S
C168 H138 0.931 . S
C168 C165 1.357 . S
C168 C169 1.312 1_655 S
C169 H140 0.930 1_455 S
C169 C164 1.261 . S
C169 C168 1.312 1_455 S
C170 O142 1.214 . S
C170 O150 1.234 1_455 S
C171 H143 0.929 . S
C171 C174 1.391 . S
C171 C176 1.391 . S
C172 H144 0.929 . S
C172 C173 1.390 . S
C172 N175 1.391 . S
C173 H145 0.930 . S
C173 C172 1.390 . S
C173 C174 1.392 . S
C174 H146 0.929 . S
C174 C171 1.391 . S
C174 C173 1.392 . S
N175 Co119 2.257 1_454 S
N175 C172 1.391 . S
N175 C176 1.388 . S
C176 H147 0.930 . S
C176 C171 1.391 . S
C176 N175 1.388 . S
Co177 O179 2.143 . S
Co177 O185 2.074 . S
Co177 O188 2.093 1_455 S
Co177 O201 2.097 . S
Co177 N218 2.151 . S
Co177 N226 2.214 . S
Co178 O179 2.160 . S
Co178 O184 2.058 . S
Co178 O194 2.057 . S
Co178 O209 2.037 . S
Co178 N213 2.145 1_556 S
Co178 N234 2.257 1_456 S
O179 Co177 2.143 . S
O179 Co178 2.160 . S
C180 O181 1.278 . S
C180 O188 1.224 . S
O181 C180 1.278 . S
C182 O183 1.245 . S
C182 O194 1.232 . S
O183 C182 1.245 . S
O184 Co178 2.058 . S
O184 C210 1.269 . S
O185 Co177 2.074 . S
O185 C210 1.257 . S
H186 C211 0.930 . S
H187 C217 0.930 . S
O188 Co177 2.093 1_655 S
O188 C180 1.224 . S
H189 C221 0.929 . S
H190 C223 0.930 1_655 S
H191 C224 0.930 . S
H192 C222 0.929 . S
H193 C225 0.928 1_655 S
O194 Co178 2.057 . S
O194 C182 1.232 . S
H195 C214 0.929 1_556 S
H196 C215 0.929 . S
H197 C227 0.931 . S
H198 C219 0.929 . S
H199 C228 0.930 . S
H200 C220 0.931 . S
O201 Co177 2.097 . S
O201 C229 1.214 . S
H202 C230 0.929 . S
H203 C231 0.929 1_455 S
H204 C232 0.930 . S
H205 C233 0.929 . S
H206 C235 0.930 . S
H207 C212 0.930 . S
H208 C216 0.930 . S
O209 Co178 2.037 . S
O209 C229 1.234 . S
C210 O184 1.269 . S
C210 O185 1.257 . S
C211 H186 0.930 . S
C211 C214 1.388 . S
C211 C216 1.418 . S
C212 H207 0.930 . S
C212 C215 1.404 . S
C212 C216 1.353 . S
N213 Co178 2.145 1_554 S
N213 C214 1.397 . S
N213 C215 1.334 . S
C214 H195 0.929 1_554 S
C214 C211 1.388 . S
C214 N213 1.397 . S
C215 H196 0.929 . S
C215 C212 1.404 . S
C215 N213 1.334 . S
C216 H208 0.930 . S
C216 C211 1.418 . S
C216 C212 1.353 . S
C217 H187 0.930 . S
C217 N218 1.330 1_655 S
C217 C219 1.446 . S
N218 Co177 2.151 . S
N218 C217 1.330 1_455 S
N218 C222 1.418 . S
C219 H198 0.929 . S
C219 C217 1.446 . S
C219 C220 1.332 1_655 S
C220 H200 0.931 . S
C220 C219 1.332 1_455 S
C220 C221 1.267 . S
C221 H189 0.929 . S
C221 C220 1.267 . S
C221 C222 1.251 . S
C222 H192 0.929 . S
C222 N218 1.418 . S
C222 C221 1.251 . S
C223 H190 0.930 1_455 S
C223 C225 1.406 . S
C223 C228 1.261 . S
C224 H191 0.930 . S
C224 N226 1.325 . S
C224 C227 1.357 . S
C225 H193 0.928 1_455 S
C225 C223 1.406 . S
C225 N226 1.261 . S
N226 Co177 2.214 . S
N226 C224 1.325 . S
N226 C225 1.261 . S
C227 H197 0.931 . S
C227 C224 1.357 . S
C227 C228 1.312 . S
C228 H199 0.930 . S
C228 C223 1.261 . S
C228 C227 1.312 . S
C229 O201 1.214 . S
C229 O209 1.234 . S
C230 H202 0.929 . S
C230 C233 1.391 . S
C230 C235 1.391 . S
C231 H203 0.929 1_655 S
C231 C232 1.390 . S
C231 N234 1.391 . S
C232 H204 0.930 . S
C232 C231 1.390 . S
C232 C233 1.392 . S
C233 H205 0.929 . S
C233 C230 1.391 . S
C233 C232 1.392 . S
N234 Co178 2.257 1_654 S
N234 C231 1.391 . S
N234 C235 1.388 . S
C235 H206 0.930 . S
C235 C230 1.391 . S
C235 N234 1.388 . S
Co236 O238 2.143 . S
Co236 O244 2.074 . S
Co236 O247 2.093 . S
Co236 O260 2.097 . S
Co236 N277 2.151 . S
Co236 N285 2.214 . S
Co237 O238 2.160 . S
Co237 O243 2.058 . S
Co237 O253 2.057 . S
Co237 O268 2.037 . S
Co237 N272 2.145 . S
Co237 N293 2.257 . S
O238 Co236 2.143 . S
O238 Co237 2.160 . S
C239 O240 1.278 . S
C239 O247 1.224 . S
O240 C239 1.278 . S
C241 O242 1.245 . S
C241 O253 1.232 . S
O242 C241 1.245 . S
O243 Co237 2.058 . S
O243 C269 1.269 . S
O244 Co236 2.074 . S
O244 C269 1.257 . S
H245 C270 0.930 . S
H246 C276 0.930 . S
O247 Co236 2.093 . S
O247 C239 1.224 . S
H248 C280 0.929 1_554 S
H249 C282 0.930 . S
H250 C283 0.930 . S
H251 C281 0.929 . S
H252 C284 0.928 . S
O253 Co237 2.057 . S
O253 C241 1.232 . S
H254 C273 0.929 . S
H255 C274 0.929 . S
H256 C286 0.931 . S
H257 C278 0.929 . S
H258 C287 0.930 . S
H259 C279 0.931 1_554 S
O260 Co236 2.097 . S
O260 C288 1.214 . S
H261 C289 0.929 . S
H262 C290 0.929 . S
H263 C291 0.930 . S
H264 C292 0.929 . S
H265 C294 0.930 . S
H266 C271 0.930 . S
H267 C275 0.930 . S
O268 Co237 2.037 . S
O268 C288 1.234 . S
C269 O243 1.269 . S
C269 O244 1.257 . S
C270 H245 0.930 . S
C270 C273 1.388 . S
C270 C275 1.418 . S
C271 H266 0.930 . S
C271 C274 1.404 . S
C271 C275 1.353 . S
N272 Co237 2.145 . S
N272 C273 1.397 . S
N272 C274 1.334 . S
C273 H254 0.929 . S
C273 C270 1.388 . S
C273 N272 1.397 . S
C274 H255 0.929 . S
C274 C271 1.404 . S
C274 N272 1.334 . S
C275 H267 0.930 . S
C275 C270 1.418 . S
C275 C271 1.353 . S
C276 H246 0.930 . S
C276 N277 1.330 . S
C276 C278 1.446 . S
N277 Co236 2.151 . S
N277 C276 1.330 . S
N277 C281 1.418 . S
C278 H257 0.929 . S
C278 C276 1.446 . S
C278 C279 1.332 . S
C279 H259 0.931 1_556 S
C279 C278 1.332 . S
C279 C280 1.267 . S
C280 H248 0.929 1_556 S
C280 C279 1.267 . S
C280 C281 1.251 . S
C281 H251 0.929 . S
C281 N277 1.418 . S
C281 C280 1.251 . S
C282 H249 0.930 . S
C282 C284 1.406 1_554 S
C282 C287 1.261 . S
C283 H250 0.930 . S
C283 N285 1.325 . S
C283 C286 1.357 . S
C284 H252 0.928 . S
C284 C282 1.406 1_556 S
C284 N285 1.261 . S
N285 Co236 2.214 . S
N285 C283 1.325 . S
N285 C284 1.261 . S
C286 H256 0.931 . S
C286 C283 1.357 . S
C286 C287 1.312 1_556 S
C287 H258 0.930 . S
C287 C282 1.261 . S
C287 C286 1.312 1_554 S
C288 O260 1.214 . S
C288 O268 1.234 . S
C289 H261 0.929 . S
C289 C292 1.391 . S
C289 C294 1.391 . S
C290 H262 0.929 . S
C290 C291 1.390 . S
C290 N293 1.391 . S
C291 H263 0.930 . S
C291 C290 1.390 . S
C291 C292 1.392 . S
C292 H264 0.929 . S
C292 C289 1.391 . S
C292 C291 1.392 . S
N293 Co237 2.257 . S
N293 C290 1.391 . S
N293 C294 1.388 . S
C294 H265 0.930 . S
C294 C289 1.391 . S
C294 N293 1.388 . S
Co295 O297 2.143 . S
Co295 O303 2.074 . S
Co295 O306 2.093 . S
Co295 O319 2.097 . S
Co295 N336 2.151 . S
Co295 N344 2.214 . S
Co296 O297 2.160 . S
Co296 O302 2.058 . S
Co296 O312 2.057 . S
Co296 O327 2.037 . S
Co296 N331 2.145 . S
Co296 N352 2.257 . S
O297 Co295 2.143 . S
O297 Co296 2.160 . S
C298 O299 1.278 . S
C298 O306 1.224 . S
O299 C298 1.278 . S
C300 O301 1.245 . S
C300 O312 1.232 . S
O301 C300 1.245 . S
O302 Co296 2.058 . S
O302 C328 1.269 . S
O303 Co295 2.074 . S
O303 C328 1.257 . S
H304 C329 0.930 . S
H305 C335 0.930 . S
O306 Co295 2.093 . S
O306 C298 1.224 . S
H307 C339 0.929 1_554 S
H308 C341 0.930 . S
H309 C342 0.930 . S
H310 C340 0.929 . S
H311 C343 0.928 . S
O312 Co296 2.057 . S
O312 C300 1.232 . S
H313 C332 0.929 . S
H314 C333 0.929 . S
H315 C345 0.931 . S
H316 C337 0.929 . S
H317 C346 0.930 . S
H318 C338 0.931 1_554 S
O319 Co295 2.097 . S
O319 C347 1.214 . S
H320 C348 0.929 . S
H321 C349 0.929 . S
H322 C350 0.930 . S
H323 C351 0.929 . S
H324 C353 0.930 . S
H325 C330 0.930 . S
H326 C334 0.930 . S
O327 Co296 2.037 . S
O327 C347 1.234 . S
C328 O302 1.269 . S
C328 O303 1.257 . S
C329 H304 0.930 . S
C329 C332 1.388 . S
C329 C334 1.418 . S
C330 H325 0.930 . S
C330 C333 1.404 . S
C330 C334 1.353 . S
N331 Co296 2.145 . S
N331 C332 1.397 . S
N331 C333 1.334 . S
C332 H313 0.929 . S
C332 C329 1.388 . S
C332 N331 1.397 . S
C333 H314 0.929 . S
C333 C330 1.404 . S
C333 N331 1.334 . S
C334 H326 0.930 . S
C334 C329 1.418 . S
C334 C330 1.353 . S
C335 H305 0.930 . S
C335 N336 1.330 . S
C335 C337 1.446 1_565 S
N336 Co295 2.151 . S
N336 C335 1.330 . S
N336 C340 1.418 . S
C337 H316 0.929 . S
C337 C335 1.446 1_545 S
C337 C338 1.332 . S
C338 H318 0.931 1_556 S
C338 C337 1.332 . S
C338 C339 1.267 1_545 S
C339 H307 0.929 1_556 S
C339 C338 1.267 1_565 S
C339 C340 1.251 . S
C340 H310 0.929 . S
C340 N336 1.418 . S
C340 C339 1.251 . S
C341 H308 0.930 . S
C341 C343 1.406 1_554 S
C341 C346 1.261 . S
C342 H309 0.930 . S
C342 N344 1.325 . S
C342 C345 1.357 . S
C343 H311 0.928 . S
C343 C341 1.406 1_556 S
C343 N344 1.261 . S
N344 Co295 2.214 . S
N344 C342 1.325 . S
N344 C343 1.261 . S
C345 H315 0.931 . S
C345 C342 1.357 . S
C345 C346 1.312 1_556 S
C346 H317 0.930 . S
C346 C341 1.261 . S
C346 C345 1.312 1_554 S
C347 O319 1.214 . S
C347 O327 1.234 . S
C348 H320 0.929 . S
C348 C351 1.391 . S
C348 C353 1.391 . S
C349 H321 0.929 . S
C349 C350 1.390 . S
C349 N352 1.391 . S
C350 H322 0.930 . S
C350 C349 1.390 . S
C350 C351 1.392 . S
C351 H323 0.929 . S
C351 C348 1.391 . S
C351 C350 1.392 . S
N352 Co296 2.257 . S
N352 C349 1.391 . S
N352 C353 1.388 . S
C353 H324 0.930 . S
C353 C348 1.391 . S
C353 N352 1.388 . S
Co354 O356 2.143 . S
Co354 O362 2.074 . S
Co354 O365 2.093 . S
Co354 O378 2.097 . S
Co354 N395 2.151 . S
Co354 N403 2.214 . S
Co355 O356 2.160 . S
Co355 O361 2.058 . S
Co355 O371 2.057 . S
Co355 O386 2.037 . S
Co355 N390 2.145 . S
Co355 N411 2.257 . S
O356 Co354 2.143 . S
O356 Co355 2.160 . S
C357 O358 1.278 . S
C357 O365 1.224 . S
O358 C357 1.278 . S
C359 O360 1.245 . S
C359 O371 1.232 . S
O360 C359 1.245 . S
O361 Co355 2.058 . S
O361 C387 1.269 . S
O362 Co354 2.074 . S
O362 C387 1.257 . S
H363 C388 0.930 . S
H364 C394 0.930 . S
O365 Co354 2.093 . S
O365 C357 1.224 . S
H366 C398 0.929 1_556 S
H367 C400 0.930 . S
H368 C401 0.930 . S
H369 C399 0.929 . S
H370 C402 0.928 . S
O371 Co355 2.057 . S
O371 C359 1.232 . S
H372 C391 0.929 . S
H373 C392 0.929 . S
H374 C404 0.931 . S
H375 C396 0.929 . S
H376 C405 0.930 . S
H377 C397 0.931 1_556 S
O378 Co354 2.097 . S
O378 C406 1.214 . S
H379 C407 0.929 . S
H380 C408 0.929 . S
H381 C409 0.930 . S
H382 C410 0.929 . S
H383 C412 0.930 . S
H384 C389 0.930 . S
H385 C393 0.930 . S
O386 Co355 2.037 . S
O386 C406 1.234 . S
C387 O361 1.269 . S
C387 O362 1.257 . S
C388 H363 0.930 . S
C388 C391 1.388 . S
C388 C393 1.418 . S
C389 H384 0.930 . S
C389 C392 1.404 . S
C389 C393 1.353 . S
N390 Co355 2.145 . S
N390 C391 1.397 . S
N390 C392 1.334 . S
C391 H372 0.929 . S
C391 C388 1.388 . S
C391 N390 1.397 . S
C392 H373 0.929 . S
C392 C389 1.404 . S
C392 N390 1.334 . S
C393 H385 0.930 . S
C393 C388 1.418 . S
C393 C389 1.353 . S
C394 H364 0.930 . S
C394 N395 1.330 . S
C394 C396 1.446 . S
N395 Co354 2.151 . S
N395 C394 1.330 . S
N395 C399 1.418 . S
C396 H375 0.929 . S
C396 C394 1.446 . S
C396 C397 1.332 . S
C397 H377 0.931 1_554 S
C397 C396 1.332 . S
C397 C398 1.267 . S
C398 H366 0.929 1_554 S
C398 C397 1.267 . S
C398 C399 1.251 . S
C399 H369 0.929 . S
C399 N395 1.418 . S
C399 C398 1.251 . S
C400 H367 0.930 . S
C400 C402 1.406 1_556 S
C400 C405 1.261 . S
C401 H368 0.930 . S
C401 N403 1.325 . S
C401 C404 1.357 . S
C402 H370 0.928 . S
C402 C400 1.406 1_554 S
C402 N403 1.261 . S
N403 Co354 2.214 . S
N403 C401 1.325 . S
N403 C402 1.261 . S
C404 H374 0.931 . S
C404 C401 1.357 . S
C404 C405 1.312 1_554 S
C405 H376 0.930 . S
C405 C400 1.261 . S
C405 C404 1.312 1_556 S
C406 O378 1.214 . S
C406 O386 1.234 . S
C407 H379 0.929 . S
C407 C410 1.391 . S
C407 C412 1.391 . S
C408 H380 0.929 . S
C408 C409 1.390 . S
C408 N411 1.391 . S
C409 H381 0.930 . S
C409 C408 1.390 . S
C409 C410 1.392 . S
C410 H382 0.929 . S
C410 C407 1.391 . S
C410 C409 1.392 . S
N411 Co355 2.257 . S
N411 C408 1.391 . S
N411 C412 1.388 . S
C412 H383 0.930 . S
C412 C407 1.391 . S
C412 N411 1.388 . S
Co413 O415 2.143 . S
Co413 O421 2.074 . S
Co413 O424 2.093 . S
Co413 O437 2.097 . S
Co413 N454 2.151 . S
Co413 N462 2.214 . S
Co414 O415 2.160 . S
Co414 O420 2.058 . S
Co414 O430 2.057 . S
Co414 O445 2.037 . S
Co414 N449 2.145 . S
Co414 N470 2.257 . S
O415 Co413 2.143 . S
O415 Co414 2.160 . S
C416 O417 1.278 . S
C416 O424 1.224 . S
O417 C416 1.278 . S
C418 O419 1.245 . S
C418 O430 1.232 . S
O419 C418 1.245 . S
O420 Co414 2.058 . S
O420 C446 1.269 . S
O421 Co413 2.074 . S
O421 C446 1.257 . S
H422 C447 0.930 . S
H423 C453 0.930 . S
O424 Co413 2.093 . S
O424 C416 1.224 . S
H425 C457 0.929 1_556 S
H426 C459 0.930 . S
H427 C460 0.930 . S
H428 C458 0.929 . S
H429 C461 0.928 . S
O430 Co414 2.057 . S
O430 C418 1.232 . S
H431 C450 0.929 . S
H432 C451 0.929 . S
H433 C463 0.931 . S
H434 C455 0.929 . S
H435 C464 0.930 . S
H436 C456 0.931 1_556 S
O437 Co413 2.097 . S
O437 C465 1.214 . S
H438 C466 0.929 . S
H439 C467 0.929 . S
H440 C468 0.930 . S
H441 C469 0.929 . S
H442 C471 0.930 . S
H443 C448 0.930 . S
H444 C452 0.930 . S
O445 Co414 2.037 . S
O445 C465 1.234 . S
C446 O420 1.269 . S
C446 O421 1.257 . S
C447 H422 0.930 . S
C447 C450 1.388 . S
C447 C452 1.418 . S
C448 H443 0.930 . S
C448 C451 1.404 . S
C448 C452 1.353 . S
N449 Co414 2.145 . S
N449 C450 1.397 . S
N449 C451 1.334 . S
C450 H431 0.929 . S
C450 C447 1.388 . S
C450 N449 1.397 . S
C451 H432 0.929 . S
C451 C448 1.404 . S
C451 N449 1.334 . S
C452 H444 0.930 . S
C452 C447 1.418 . S
C452 C448 1.353 . S
C453 H423 0.930 . S
C453 N454 1.330 . S
C453 C455 1.446 1_545 S
N454 Co413 2.151 . S
N454 C453 1.330 . S
N454 C458 1.418 . S
C455 H434 0.929 . S
C455 C453 1.446 1_565 S
C455 C456 1.332 . S
C456 H436 0.931 1_554 S
C456 C455 1.332 . S
C456 C457 1.267 1_565 S
C457 H425 0.929 1_554 S
C457 C456 1.267 1_545 S
C457 C458 1.251 . S
C458 H428 0.929 . S
C458 N454 1.418 . S
C458 C457 1.251 . S
C459 H426 0.930 . S
C459 C461 1.406 1_556 S
C459 C464 1.261 . S
C460 H427 0.930 . S
C460 N462 1.325 . S
C460 C463 1.357 . S
C461 H429 0.928 . S
C461 C459 1.406 1_554 S
C461 N462 1.261 . S
N462 Co413 2.214 . S
N462 C460 1.325 . S
N462 C461 1.261 . S
C463 H433 0.931 . S
C463 C460 1.357 . S
C463 C464 1.312 1_554 S
C464 H435 0.930 . S
C464 C459 1.261 . S
C464 C463 1.312 1_556 S
C465 O437 1.214 . S
C465 O445 1.234 . S
C466 H438 0.929 . S
C466 C469 1.391 . S
C466 C471 1.391 . S
C467 H439 0.929 . S
C467 C468 1.390 . S
C467 N470 1.391 . S
C468 H440 0.930 . S
C468 C467 1.390 . S
C468 C469 1.392 . S
C469 H441 0.929 . S
C469 C466 1.391 . S
C469 C468 1.392 . S
N470 Co414 2.257 . S
N470 C467 1.391 . S
N470 C471 1.388 . S
C471 H442 0.930 . S
C471 C466 1.391 . S
C471 N470 1.388 . S
C111 C52 1.672 . S
C170 C229 1.672 . S
C288 C347 1.672 . S
C406 C465 1.672 . S
C416 C3 1.182 . S
C357 C62 1.182 . S
C121 C298 1.182 . S
C239 C180 1.182 . S
C328 C151 1.806 . S
C269 C210 1.806 . S
C446 C33 1.806 . S
C92 C387 1.806 . S
C5 C123 1.502 1_544 S
C182 C64 1.502 1_556 S
C359 C241 1.502 . S
C300 C418 1.502 1_565 S
