# Generated by pormake.
# Topology sma, (6)-cn, num edge types: 1
# Building blocks:
#     Node 0, Type 0, BuildingBlock: VOLQOD_clean_sbu_1, # of connection points: 6
#     Node 1, Type 0, BuildingBlock: VOLQOD_clean_sbu_1, # of connection points: 6
#     Node 2, Type 0, BuildingBlock: VOLQOD_clean_sbu_1, # of connection points: 6
#     Edge 3, Type (0, 0), BuildingBlock: FUNLAD_clean_linker_1, # of connection points: 2
#     Edge 4, Type (0, 0), BuildingBlock: FUNLAD_clean_linker_1, # of connection points: 2
#     Edge 5, Type (0, 0), BuildingBlock: FUNLAD_clean_linker_1, # of connection points: 2
#     Edge 6, Type (0, 0), BuildingBlock: FUNLAD_clean_linker_1, # of connection points: 2
#     Edge 7, Type (0, 0), BuildingBlock: FUNLAD_clean_linker_1, # of connection points: 2
#     Edge 8, Type (0, 0), BuildingBlock: FUNLAD_clean_linker_1, # of connection points: 2
#     Edge 9, Type (0, 0), BuildingBlock: FUNLAD_clean_linker_1, # of connection points: 2
#     Edge 10, Type (0, 0), BuildingBlock: FUNLAD_clean_linker_1, # of connection points: 2
#     Edge 11, Type (0, 0), BuildingBlock: FUNLAD_clean_linker_1, # of connection points: 2
# Relax obj value: 0.284
# Max RMSD: 0.234
# Mean RMSD: 0.234
data_MOF--net-sma--node1-VOLQOD_clean_sbu_1--edge1-FUNLAD_clean_linker_1
_symmetry_space_group_name_H-M    P1
_symmetry_Int_Tables_number       1
_symmetry_cell_setting            triclinic
loop_
_symmetry_equiv_pos_as_xyz
'x, y, z'
_cell_length_a     31.572478
_cell_length_b     31.430582
_cell_length_c     17.395698
_cell_angle_alpha  90.374333
_cell_angle_beta   89.388523
_cell_angle_gamma 119.85573
loop_
_atom_site_label
_atom_site_type_symbol
_atom_site_fract_x
_atom_site_fract_y
_atom_site_fract_z
_atom_type_partial_charge
O0 O 0.03274 0.56032 0.95896 0.0
Zn1 Zn 0.0317 0.58509 0.06531 0.0
O2 O 0.01651 0.53279 0.13776 0.0
Zn3 Zn 0.06792 0.55403 0.21223 0.0
Zn4 Zn 0.00926 0.47466 0.08701 0.0
Zn5 Zn 0.9554 0.51563 0.18803 0.0
O6 O 0.0383 0.54191 0.31952 0.0
O7 O 0.96853 0.54128 0.29613 0.0
O8 O 0.0928 0.64892 0.09425 0.0
O9 O 0.11205 0.62646 0.20332 0.0
O10 O 0.11185 0.52504 0.18903 0.0
O11 O 0.07056 0.47194 0.09609 0.0
O12 O 0.95545 0.41305 0.13633 0.0
O13 O 0.97683 0.59946 0.05849 0.0
O14 O 0.91489 0.44264 0.20147 0.0
O15 O 0.91746 0.54053 0.12823 0.0
C16 C 0.01469 0.51705 0.93138 0.0
C17 C 1.00044 0.54342 0.34267 0.0
C18 C 0.10786 0.4936 0.13859 0.0
C19 C 0.11939 0.65911 0.15376 0.0
C20 C 0.92035 0.4068 0.18033 0.0
C21 C 0.93264 0.57617 0.08109 0.0
O22 O 1.0001 0.47926 0.97372 0.0
O23 O 0.48278 0.05208 0.33506 0.0
Zn24 Zn 0.4648 0.04236 0.44674 0.0
O25 O 0.50923 0.02718 0.49854 0.0
Zn26 Zn 0.55447 0.08125 0.56064 0.0
Zn27 Zn 0.5451 0.01161 0.42527 0.0
Zn28 Zn 0.47158 0.97192 0.56302 0.0
O29 O 0.55436 0.05711 0.66755 0.0
O30 O 0.47779 0.99442 0.67213 0.0
O31 O 0.46392 0.10047 0.49744 0.0
O32 O 0.52883 0.12781 0.57325 0.0
O33 O 0.62187 0.11872 0.51029 0.0
O34 O 0.6103 0.07122 0.40833 0.0
O35 O 0.55347 0.95443 0.46214 0.0
O36 O 0.3975 0.98324 0.44443 0.0
O37 O 0.49982 0.92787 0.55893 0.0
O38 O 0.40241 0.9319 0.52595 0.0
C39 C 0.49485 0.02597 0.29402 0.0
C40 C 0.51702 0.02572 0.70528 0.0
C41 C 0.63658 0.11003 0.44664 0.0
C42 C 0.49293 0.13085 0.54707 0.0
C43 C 0.53173 0.92493 0.5178 0.0
C44 C 0.37875 0.94153 0.47693 0.0
O45 O 0.51228 1.00076 0.3232 0.0
O46 O 0.46602 0.52043 0.63308 0.0
Zn47 Zn 0.4562 0.50294 0.74521 0.0
O48 O 0.51927 0.53697 0.79357 0.0
Zn49 Zn 0.52467 0.59035 0.85511 0.0
Zn50 Zn 0.57171 0.56262 0.71951 0.0
Zn51 Zn 0.5244 0.49087 0.85798 0.0
O52 O 0.54705 0.58565 0.96122 0.0
O53 O 0.51415 0.50423 0.96704 0.0
O54 O 0.40785 0.51773 0.80074 0.0
O55 O 0.45822 0.58187 0.87224 0.0
O56 O 0.56572 0.6558 0.8017 0.0
O57 O 0.59934 0.635 0.70654 0.0
O58 O 0.62688 0.55087 0.75197 0.0
O59 O 0.43011 0.42998 0.74442 0.0
O60 O 0.59171 0.50105 0.85153 0.0
O61 O 0.48014 0.42146 0.82326 0.0
C62 C 0.50136 0.52595 0.58991 0.0
C63 C 0.5318 0.54611 -0.00043 0.0
C64 C 0.593 0.66688 0.74201 0.0
C65 C 0.41548 0.55122 0.84969 0.0
C66 C 0.62827 0.52533 0.80757 0.0
C67 C 0.4446 0.40334 0.77654 0.0
O68 O 0.54246 0.53471 0.61687 0.0
H69 H 0.14152 0.45274 0.09027 0.0
C70 C 0.14951 0.48678 0.11892 0.0
H71 H 0.20265 0.56081 0.1363 0.0
H72 H 0.33642 0.46328 0.01001 0.0
H73 H 0.32291 0.42645 0.13649 0.0
H74 H 0.26723 0.43336 0.22983 0.0
H75 H 0.2249 0.47752 0.19729 0.0
C76 C 0.19507 0.52514 0.1149 0.0
C77 C 0.23113 0.52323 0.06125 0.0
C78 C 0.25515 0.49696 0.08078 0.0
C79 C 0.2872 0.49296 0.02682 0.0
C80 C 0.31141 0.46721 0.04844 0.0
C81 C 0.30404 0.44593 0.12093 0.0
C82 C 0.27268 0.44982 0.17349 0.0
C83 C 0.24847 0.47506 0.15401 0.0
H84 H 0.38242 0.58763 0.91477 0.0
C85 C 0.37456 0.55334 0.88717 0.0
H86 H 0.32369 0.47776 0.8776 0.0
H87 H 0.19089 0.57651 0.00541 0.0
H88 H 0.20403 0.61298 0.8789 0.0
H89 H 0.25826 0.60455 0.78447 0.0
H90 H 0.29975 0.55961 0.81619 0.0
C91 C 0.33086 0.51327 0.89905 0.0
C92 C 0.29516 0.51532 0.95344 0.0
C93 C 0.27093 0.54142 0.93379 0.0
C94 C 0.23925 0.54577 -0.01201 0.0
C95 C 0.21543 0.57202 0.96669 0.0
C96 C 0.22258 0.59312 0.89413 0.0
C97 C 0.25314 0.58842 0.84101 0.0
C98 C 0.27698 0.56278 0.86016 0.0
H99 H 0.67742 0.15233 0.34655 0.0
C100 C 0.68035 0.14885 0.40812 0.0
H101 H 0.72461 0.17594 0.50557 0.0
H102 H 0.82667 0.27398 0.15675 0.0
H103 H 0.80365 0.19146 0.11637 0.0
H104 H 0.76669 0.12269 0.20844 0.0
H105 H 0.74994 0.13606 0.34054 0.0
C106 C 0.72196 0.17993 0.44417 0.0
C107 C 0.7626 0.22207 0.40138 0.0
C108 C 0.77763 0.21471 0.32751 0.0
C109 C 0.80386 0.25514 0.27701 0.0
C110 C 0.8109 0.24546 0.19968 0.0
C111 C 0.79729 0.19805 0.1754 0.0
C112 C 0.77619 0.1593 0.22705 0.0
C113 C 0.76636 0.16733 0.30229 0.0
H114 H 0.90285 0.33254 0.216 0.0
C115 C 0.88925 0.35821 0.21558 0.0
H116 H 0.83483 0.37365 0.25319 0.0
H117 H 0.74908 0.25055 0.54527 0.0
H118 H 0.78571 0.33349 0.59382 0.0
H119 H 0.84085 0.40377 0.51237 0.0
H120 H 0.85873 0.39145 0.38114 0.0
C121 C 0.84746 0.34717 0.25283 0.0
C122 C 0.82131 0.30366 0.30439 0.0
C123 C 0.81287 0.31127 0.3824 0.0
C124 C 0.78252 0.27055 0.4304 0.0
C125 C 0.77247 0.27969 0.50643 0.0
C126 C 0.79333 0.32731 0.53526 0.0
C127 C 0.82428 0.36688 0.48937 0.0
C128 C 0.834 0.35923 0.41388 0.0
H129 H 0.51649 0.85732 0.57592 0.0
C130 C 0.54288 0.88628 0.53859 0.0
H131 H 0.61379 0.91782 0.49003 0.0
H132 H 0.66454 0.81957 0.77019 0.0
H133 H 0.72094 0.9065 0.79061 0.0
H134 H 0.72034 0.96869 0.70544 0.0
H135 H 0.6636 0.94447 0.59913 0.0
C136 C 0.58515 0.88756 0.52243 0.0
C137 C 0.59498 0.85079 0.55986 0.0
C138 C 0.62917 0.86559 0.62047 0.0
C139 C 0.62939 0.82977 0.6699 0.0
C140 C 0.66291 0.84543 0.73127 0.0
C141 C 0.6954 0.89511 0.74352 0.0
C142 C 0.69507 0.93014 0.69554 0.0
C143 C 0.66229 0.91578 0.63481 0.0
H144 H 0.63748 0.7241 0.65723 0.0
C145 C 0.61174 0.71508 0.70473 0.0
H146 H 0.56222 0.73219 0.75992 0.0
H147 H 0.53349 0.81025 0.43844 0.0
H148 H 0.47871 0.72329 0.41548 0.0
H149 H 0.47656 0.66112 0.50397 0.0
H150 H 0.52931 0.68533 0.61497 0.0
C151 C 0.59028 0.74228 0.71591 0.0
C152 C 0.59562 0.77942 0.65829 0.0
C153 C 0.56429 0.76443 0.59377 0.0
C154 C 0.56458 0.80018 0.54385 0.0
C155 C 0.53357 0.7844 0.47918 0.0
C156 C 0.50226 0.73469 0.46513 0.0
C157 C 0.50113 0.69971 0.51483 0.0
C158 C 0.53166 0.71415 0.57845 0.0
H159 H 0.66994 0.4949 0.86068 0.0
C160 C 0.67359 0.52579 0.82743 0.0
H161 H 0.72148 0.59923 0.79513 0.0
H162 H 0.83207 0.6119 0.10803 0.0
H163 H 0.7952 0.66178 0.1386 0.0
H164 H 0.74138 0.6705 0.04597 0.0
H165 H 0.72406 0.62938 0.92226 0.0
C166 C 0.71759 0.56625 0.8217 0.0
C167 C 0.75813 0.56966 0.86901 0.0
C168 C 0.76913 0.59529 0.94001 0.0
C169 C 0.80048 0.59062 -0.00683 0.0
C170 C 0.80914 0.61482 0.06506 0.0
C171 C 0.78806 0.64342 0.08346 0.0
C172 C 0.75772 0.64829 0.03134 0.0
C173 C 0.74807 0.62445 0.96051 0.0
H174 H 0.91265 0.623 0.01491 0.0
C175 C 0.89807 0.58767 0.04333 0.0
H176 H 0.83769 0.51621 0.05346 0.0
H177 H 0.7499 0.52189 0.73363 0.0
H178 H 0.79007 0.47528 0.69994 0.0
H179 H 0.84545 0.468 0.79121 0.0
H180 H 0.86058 0.50668 0.91685 0.0
C181 C 0.85156 0.55309 0.03122 0.0
C182 C 0.82134 0.56103 0.97447 0.0
C183 C 0.8129 0.53807 0.90136 0.0
C184 C 0.7812 0.54239 0.84859 0.0
C185 C 0.77331 0.51918 0.77599 0.0
C186 C 0.7963 0.49259 0.75587 0.0
C187 C 0.82746 0.48847 0.80727 0.0
C188 C 0.83575 0.51078 0.87929 0.0
H189 H 0.32113 0.8642 0.47008 0.0
C190 C 0.33275 0.90056 0.44735 0.0
H191 H 0.32271 0.94128 0.36079 0.0
H192 H 0.24927 0.77098 0.11568 0.0
H193 H 0.31892 0.83839 0.05204 0.0
H194 H 0.36911 0.91696 0.11931 0.0
H195 H 0.3509 0.92835 0.2505 0.0
C196 C 0.31026 0.90521 0.38521 0.0
C197 C 0.275 0.86115 0.3405 0.0
C198 C 0.28605 0.85542 0.26291 0.0
C199 C 0.2568 0.81023 0.22363 0.0
C200 C 0.26974 0.80476 0.14754 0.0
C201 C 0.30975 0.84308 0.11046 0.0
C202 C 0.33811 0.88726 0.14838 0.0
C203 C 0.32695 0.89339 0.22386 0.0
H204 H 0.15456 0.73983 0.14035 0.0
C205 C 0.15658 0.7106 0.17008 0.0
H206 H 0.19049 0.69198 0.25692 0.0
H207 H 0.23705 0.86382 0.48163 0.0
H208 H 0.16664 0.79658 0.54429 0.0
H209 H 0.11861 0.7171 0.4778 0.0
H210 H 0.13942 0.70471 0.34933 0.0
C211 C 0.1892 0.72145 0.22661 0.0
C212 C 0.21654 0.77111 0.26183 0.0
C213 C 0.20393 0.77788 0.33759 0.0
C214 C 0.23258 0.82317 0.37644 0.0
C215 C 0.21781 0.82942 0.45086 0.0
C216 C 0.17719 0.79135 0.48714 0.0
C217 C 0.15003 0.74669 0.44988 0.0
C218 C 0.16271 0.73995 0.37591 0.0
H219 H 0.39216 0.33645 0.71405 0.0
C220 C 0.42536 0.35279 0.74787 0.0
H221 H 0.48706 0.34798 0.7807 0.0
H222 H 0.41402 0.12806 0.70139 0.0
H223 H 0.40225 0.12139 0.83996 0.0
H224 H 0.40779 0.19046 0.91617 0.0
H225 H 0.42518 0.26664 0.8543 0.0
C226 C 0.45318 0.33149 0.7486 0.0
C227 C 0.44208 0.28767 0.70102 0.0
C228 C 0.4312 0.24326 0.73782 0.0
C229 C 0.42826 0.20357 0.69398 0.0
C230 C 0.41748 0.15963 0.73225 0.0
C231 C 0.41036 0.15523 0.81163 0.0
C232 C 0.41347 0.19411 0.85453 0.0
C233 C 0.42364 0.23766 0.81836 0.0
H234 H 0.51231 0.19572 0.61832 0.0
C235 C 0.48453 0.16937 0.57987 0.0
H236 H 0.41464 0.14562 0.53256 0.0
H237 H 0.46436 0.36803 0.6107 0.0
H238 H 0.47376 0.37316 0.47251 0.0
H239 H 0.46564 0.30297 0.39662 0.0
H240 H 0.44798 0.22691 0.45935 0.0
C241 C 0.44336 0.17122 0.57027 0.0
C242 C 0.43667 0.20854 0.61345 0.0
C243 C 0.44446 0.25167 0.57589 0.0
C244 C 0.44802 0.29172 0.6197 0.0
C245 C 0.45948 0.33572 0.58077 0.0
C246 C 0.46544 0.33938 0.50116 0.0
C247 C 0.4609 0.29987 0.45845 0.0
C248 C 0.4508 0.25651 0.49511 0.0
H249 H 0.0235 0.48963 0.8188 0.0
C250 C 0.0094 0.51074 0.84794 0.0
H251 H 0.97312 0.55125 0.83927 0.0
H252 H 0.04707 0.63264 0.50701 0.0
H253 H 0.06937 0.70627 0.58263 0.0
H254 H 0.059 0.7019 0.72298 0.0
H255 H 0.02395 0.62426 0.78923 0.0
C256 C 0.98811 0.53146 0.80837 0.0
C257 C 0.98966 0.53324 0.72297 0.0
C258 C 0.0118 0.57946 0.6856 0.0
C259 C 0.01937 0.58216 0.60469 0.0
C260 C 0.04087 0.62861 0.56846 0.0
C261 C 0.05415 0.67111 0.61098 0.0
C262 C 0.04799 0.66867 0.69018 0.0
C263 C 0.02753 0.62362 0.72747 0.0
H264 H 0.95977 0.54861 0.44272 0.0
C265 C 0.9914 0.54563 0.4254 0.0
H266 H 0.04978 0.53665 0.46366 0.0
H267 H 0.93217 0.43874 0.7731 0.0
H268 H 0.90253 0.36471 0.69614 0.0
H269 H 0.92092 0.36954 0.5572 0.0
H270 H 0.96822 0.44843 0.49414 0.0
C271 C 0.01912 0.54161 0.47941 0.0
C272 C 0.00581 0.53879 0.56197 0.0
C273 C 0.97999 0.49241 0.59826 0.0
C274 C 0.97085 0.48958 0.67872 0.0
C275 C 0.94215 0.44286 0.71281 0.0
C276 C 0.92449 0.40012 0.66915 0.0
C277 C 0.93477 0.40285 0.59089 0.0
C278 C 0.9621 0.44835 0.55548 0.0
H279 H 0.46698 0.04103 0.18842 0.0
C280 C 0.48803 0.02509 0.21076 0.0
H281 H 0.52878 0.9902 0.18359 0.0
H282 H 0.4357 0.9107 0.85991 0.0
H283 H 0.4072 0.83526 0.93151 0.0
H284 H 0.42051 0.83701 0.07124 0.0
H285 H 0.46283 0.91422 0.13998 0.0
C286 C 0.50822 0.00686 0.16212 0.0
C287 C 0.50058 0.00629 0.07818 0.0
C288 C 0.47544 0.96072 0.03919 0.0
C289 C 0.467 0.95969 0.95902 0.0
C290 C 0.44262 0.91371 0.92101 0.0
C291 C 0.4261 0.87006 0.9614 0.0
C292 C 0.43367 0.87104 0.04002 0.0
C293 C 0.45813 0.91569 0.07874 0.0
H294 H 0.55531 0.04708 0.81574 0.0
C295 C 0.51961 0.0262 0.78932 0.0
H296 H 0.44352 0.98222 0.808 0.0
H297 H 0.55637 0.1005 0.13283 0.0
H298 H 0.57776 0.17543 0.06407 0.0
H299 H 0.5528 0.17276 0.92934 0.0
H300 H 0.50801 0.09515 0.86205 0.0
C301 C 0.47939 0.00332 0.83366 0.0
C302 C 0.48331 0.00423 0.91855 0.0
C303 C 0.50601 0.04964 0.95846 0.0
C304 C 0.51682 0.05087 0.0376 0.0
C305 C 0.54427 0.09709 0.07407 0.0
C306 C 0.55725 0.1405 0.03502 0.0
C307 C 0.54347 0.13902 0.9591 0.0
C308 C 0.51818 0.09424 0.92095 0.0
H309 H 0.45747 0.50909 0.48477 0.0
C310 C 0.49399 0.52162 0.50648 0.0
H311 H 0.56759 0.54482 0.47807 0.0
H312 H 0.52923 0.44406 0.15506 0.0
H313 H 0.55377 0.39469 0.2282 0.0
H314 H 0.56362 0.40425 0.36885 0.0
H315 H 0.5498 0.46384 0.43688 0.0
C316 C 0.53109 0.5332 0.45719 0.0
C317 C 0.52281 0.52637 0.37334 0.0
C318 C 0.53056 0.49094 0.33475 0.0
C319 C 0.52379 0.48466 0.25409 0.0
C320 C 0.53303 0.44991 0.21651 0.0
C321 C 0.54723 0.42131 0.2578 0.0
C322 C 0.55288 0.42676 0.33693 0.0
C323 C 0.54486 0.4612 0.37524 0.0
H324 H 0.55725 0.58457 0.11016 0.0
C325 C 0.53382 0.54909 0.08366 0.0
H326 H 0.48226 0.47426 0.10172 0.0
H327 H 0.50897 0.60085 0.42852 0.0
H328 H 0.47639 0.64417 0.35759 0.0
H329 H 0.45471 0.62563 0.22097 0.0
H330 H 0.46706 0.56478 0.15378 0.0
C331 C 0.50593 0.50982 0.12773 0.0
C332 C 0.50849 0.51327 0.21274 0.0
C333 C 0.49768 0.54642 0.2522 0.0
C334 C 0.50682 0.55451 0.33214 0.0
C335 C 0.50009 0.59117 0.36877 0.0
C336 C 0.48176 0.61664 0.32863 0.0
C337 C 0.46978 0.60639 0.25158 0.0
C338 C 0.47753 0.57171 0.21352 0.0
loop_
_geom_bond_atom_site_label_1
_geom_bond_atom_site_label_2
_geom_bond_distance
_geom_bond_site_symmetry_2
_ccdc_geom_bond_type
O0 Zn1 1.953 1_556 S
O0 C16 1.225 . S
Zn1 O0 1.953 1_554 S
Zn1 O2 1.949 . S
Zn1 O8 1.919 . S
Zn1 O13 1.924 1_455 S
O2 Zn1 1.949 . S
O2 Zn3 1.923 . S
O2 Zn4 1.955 1_455 S
O2 Zn5 1.945 1_455 S
Zn3 O2 1.923 . S
Zn3 O6 1.933 . S
Zn3 O9 1.941 . S
Zn3 O10 1.965 . S
Zn4 O2 1.955 1_655 S
Zn4 O11 1.919 1_655 S
Zn4 O12 1.913 . S
Zn4 O22 1.956 1_554 S
Zn5 O2 1.945 1_655 S
Zn5 O7 1.932 . S
Zn5 O14 1.977 . S
Zn5 O15 1.910 . S
O6 Zn3 1.933 . S
O6 C17 1.226 . S
O7 Zn5 1.932 . S
O7 C17 1.307 1_655 S
O8 Zn1 1.919 . S
O8 C19 1.253 . S
O9 Zn3 1.941 . S
O9 C19 1.283 . S
O10 Zn3 1.965 . S
O10 C18 1.303 . S
O11 Zn4 1.919 1_455 S
O11 C18 1.247 . S
O12 Zn4 1.913 . S
O12 C20 1.304 . S
O13 Zn1 1.924 1_655 S
O13 C21 1.311 . S
O14 Zn5 1.977 . S
O14 C20 1.272 . S
O15 Zn5 1.910 . S
O15 C21 1.231 . S
C16 O0 1.225 . S
C16 O22 1.298 1_455 S
C17 O6 1.226 . S
C17 O7 1.307 1_455 S
C18 O10 1.303 . S
C18 O11 1.247 . S
C19 O8 1.253 . S
C19 O9 1.283 . S
C20 O12 1.304 . S
C20 O14 1.272 . S
C21 O13 1.311 . S
C21 O15 1.231 . S
O22 Zn4 1.956 1_556 S
O22 C16 1.298 1_655 S
O23 Zn24 1.953 . S
O23 C39 1.225 . S
Zn24 O23 1.953 . S
Zn24 O25 1.949 . S
Zn24 O31 1.919 . S
Zn24 O36 1.924 1_545 S
O25 Zn24 1.949 . S
O25 Zn26 1.923 . S
O25 Zn27 1.950 . S
O25 Zn28 1.945 1_545 S
Zn26 O25 1.923 . S
Zn26 O29 1.933 . S
Zn26 O32 1.941 . S
Zn26 O33 1.965 . S
Zn27 O25 1.950 . S
Zn27 O34 1.938 . S
Zn27 O35 1.906 1_545 S
Zn27 O45 1.953 . S
Zn28 O25 1.945 1_565 S
Zn28 O30 1.932 . S
Zn28 O37 1.977 . S
Zn28 O38 1.910 . S
O29 Zn26 1.933 . S
O29 C40 1.226 . S
O30 Zn28 1.932 . S
O30 C40 1.307 1_565 S
O31 Zn24 1.919 . S
O31 C42 1.253 . S
O32 Zn26 1.941 . S
O32 C42 1.283 . S
O33 Zn26 1.965 . S
O33 C41 1.303 . S
O34 Zn27 1.938 . S
O34 C41 1.247 . S
O35 Zn27 1.906 1_565 S
O35 C43 1.304 . S
O36 Zn24 1.924 1_565 S
O36 C44 1.311 . S
O37 Zn28 1.977 . S
O37 C43 1.272 . S
O38 Zn28 1.910 . S
O38 C44 1.231 . S
C39 O23 1.225 . S
C39 O45 1.298 . S
C40 O29 1.226 . S
C40 O30 1.307 1_545 S
C41 O33 1.303 . S
C41 O34 1.247 . S
C42 O31 1.253 . S
C42 O32 1.283 . S
C43 O35 1.304 . S
C43 O37 1.272 . S
C44 O36 1.311 . S
C44 O38 1.231 . S
O45 Zn27 1.953 . S
O45 C39 1.298 . S
O46 Zn47 1.953 . S
O46 C62 1.225 . S
Zn47 O46 1.953 . S
Zn47 O48 1.949 . S
Zn47 O54 1.919 . S
Zn47 O59 1.924 . S
O48 Zn47 1.949 . S
O48 Zn49 1.923 . S
O48 Zn50 1.950 . S
O48 Zn51 1.945 . S
Zn49 O48 1.923 . S
Zn49 O52 1.933 1_556 S
Zn49 O55 1.941 . S
Zn49 O56 1.965 . S
Zn50 O48 1.950 . S
Zn50 O57 1.938 . S
Zn50 O58 1.906 . S
Zn50 O68 1.953 . S
Zn51 O48 1.945 . S
Zn51 O53 1.932 1_556 S
Zn51 O60 1.977 . S
Zn51 O61 1.910 . S
O52 Zn49 1.933 1_554 S
O52 C63 1.226 . S
O53 Zn51 1.932 1_554 S
O53 C63 1.307 . S
O54 Zn47 1.919 . S
O54 C65 1.253 . S
O55 Zn49 1.941 . S
O55 C65 1.283 . S
O56 Zn49 1.965 . S
O56 C64 1.303 . S
O57 Zn50 1.938 . S
O57 C64 1.247 . S
O58 Zn50 1.906 . S
O58 C66 1.304 . S
O59 Zn47 1.924 . S
O59 C67 1.311 . S
O60 Zn51 1.977 . S
O60 C66 1.272 . S
O61 Zn51 1.910 . S
O61 C67 1.231 . S
C62 O46 1.225 . S
C62 O68 1.298 . S
C63 O52 1.226 . S
C63 O53 1.307 . S
C64 O56 1.303 . S
C64 O57 1.247 . S
C65 O54 1.253 . S
C65 O55 1.283 . S
C66 O58 1.304 . S
C66 O60 1.272 . S
C67 O59 1.311 . S
C67 O61 1.231 . S
O68 Zn50 1.953 . S
O68 C62 1.298 . S
H69 C70 0.951 . S
C70 H69 0.951 . S
C70 C76 1.265 . S
H71 C76 0.950 . S
H72 C80 0.949 1_556 S
H73 C81 0.950 . S
H74 C82 0.951 . S
H75 C83 0.951 . S
C76 C70 1.265 . S
C76 H71 0.950 . S
C76 C77 1.478 . S
C77 C76 1.478 . S
C77 C78 1.397 . S
C77 C94 1.394 1_554 S
C78 C77 1.397 . S
C78 C79 1.433 1_554 S
C78 C83 1.429 . S
C79 C78 1.433 1_556 S
C79 C80 1.427 1_556 S
C79 C92 1.400 . S
C80 H72 0.949 1_554 S
C80 C79 1.427 1_554 S
C80 C81 1.345 . S
C81 H73 0.950 . S
C81 C80 1.345 . S
C81 C82 1.424 . S
C82 H74 0.951 . S
C82 C81 1.424 . S
C82 C83 1.347 . S
C83 H75 0.951 . S
C83 C78 1.429 . S
C83 C82 1.347 . S
H84 C85 0.951 . S
C85 H84 0.951 . S
C85 C91 1.265 . S
H86 C91 0.950 . S
H87 C95 0.949 1_554 S
H88 C96 0.950 . S
H89 C97 0.951 . S
H90 C98 0.951 . S
C91 C85 1.265 . S
C91 H86 0.950 . S
C91 C92 1.478 . S
C92 C79 1.400 . S
C92 C91 1.478 . S
C92 C93 1.397 . S
C93 C92 1.397 . S
C93 C94 1.438 . S
C93 C98 1.429 . S
C94 C77 1.394 1_556 S
C94 C93 1.438 . S
C94 C95 1.428 . S
C95 H87 0.949 1_556 S
C95 C94 1.428 . S
C95 C96 1.345 . S
C96 H88 0.950 . S
C96 C95 1.345 . S
C96 C97 1.424 . S
C97 H89 0.951 . S
C97 C96 1.424 . S
C97 C98 1.347 . S
C98 H90 0.951 . S
C98 C93 1.429 . S
C98 C97 1.347 . S
H99 C100 0.951 . S
C100 H99 0.951 . S
C100 C106 1.265 . S
H101 C106 0.950 . S
H102 C110 0.949 . S
H103 C111 0.950 . S
H104 C112 0.951 . S
H105 C113 0.951 . S
C106 C100 1.265 . S
C106 H101 0.950 . S
C106 C107 1.478 . S
C107 C106 1.478 . S
C107 C108 1.397 . S
C107 C124 1.394 . S
C108 C107 1.397 . S
C108 C109 1.438 . S
C108 C113 1.429 . S
C109 C108 1.438 . S
C109 C110 1.428 . S
C109 C122 1.394 . S
C110 H102 0.949 . S
C110 C109 1.428 . S
C110 C111 1.345 . S
C111 H103 0.950 . S
C111 C110 1.345 . S
C111 C112 1.424 . S
C112 H104 0.951 . S
C112 C111 1.424 . S
C112 C113 1.347 . S
C113 H105 0.951 . S
C113 C108 1.429 . S
C113 C112 1.347 . S
H114 C115 0.951 . S
C115 H114 0.951 . S
C115 C121 1.265 . S
H116 C121 0.950 . S
H117 C125 0.949 . S
H118 C126 0.950 . S
H119 C127 0.951 . S
H120 C128 0.951 . S
C121 C115 1.265 . S
C121 H116 0.950 . S
C121 C122 1.478 . S
C122 C109 1.394 . S
C122 C121 1.478 . S
C122 C123 1.397 . S
C123 C122 1.397 . S
C123 C124 1.438 . S
C123 C128 1.429 . S
C124 C107 1.394 . S
C124 C123 1.438 . S
C124 C125 1.428 . S
C125 H117 0.949 . S
C125 C124 1.428 . S
C125 C126 1.345 . S
C126 H118 0.950 . S
C126 C125 1.345 . S
C126 C127 1.424 . S
C127 H119 0.951 . S
C127 C126 1.424 . S
C127 C128 1.347 . S
C128 H120 0.951 . S
C128 C123 1.429 . S
C128 C127 1.347 . S
H129 C130 0.951 . S
C130 H129 0.951 . S
C130 C136 1.265 . S
H131 C136 0.950 . S
H132 C140 0.949 . S
H133 C141 0.950 . S
H134 C142 0.951 . S
H135 C143 0.951 . S
C136 C130 1.265 . S
C136 H131 0.950 . S
C136 C137 1.478 . S
C137 C136 1.478 . S
C137 C138 1.397 . S
C137 C154 1.394 . S
C138 C137 1.397 . S
C138 C139 1.438 . S
C138 C143 1.429 . S
C139 C138 1.438 . S
C139 C140 1.428 . S
C139 C152 1.394 . S
C140 H132 0.949 . S
C140 C139 1.428 . S
C140 C141 1.345 . S
C141 H133 0.950 . S
C141 C140 1.345 . S
C141 C142 1.424 . S
C142 H134 0.951 . S
C142 C141 1.424 . S
C142 C143 1.347 . S
C143 H135 0.951 . S
C143 C138 1.429 . S
C143 C142 1.347 . S
H144 C145 0.951 . S
C145 H144 0.951 . S
C145 C151 1.265 . S
H146 C151 0.950 . S
H147 C155 0.949 . S
H148 C156 0.950 . S
H149 C157 0.951 . S
H150 C158 0.951 . S
C151 C145 1.265 . S
C151 H146 0.950 . S
C151 C152 1.478 . S
C152 C139 1.394 . S
C152 C151 1.478 . S
C152 C153 1.397 . S
C153 C152 1.397 . S
C153 C154 1.438 . S
C153 C158 1.429 . S
C154 C137 1.394 . S
C154 C153 1.438 . S
C154 C155 1.428 . S
C155 H147 0.949 . S
C155 C154 1.428 . S
C155 C156 1.345 . S
C156 H148 0.950 . S
C156 C155 1.345 . S
C156 C157 1.424 . S
C157 H149 0.951 . S
C157 C156 1.424 . S
C157 C158 1.347 . S
C158 H150 0.951 . S
C158 C153 1.429 . S
C158 C157 1.347 . S
H159 C160 0.951 . S
C160 H159 0.951 . S
C160 C166 1.265 . S
H161 C166 0.950 . S
H162 C170 0.949 . S
H163 C171 0.950 . S
H164 C172 0.951 . S
H165 C173 0.951 . S
C166 C160 1.265 . S
C166 H161 0.950 . S
C166 C167 1.478 . S
C167 C166 1.478 . S
C167 C168 1.397 . S
C167 C184 1.394 . S
C168 C167 1.397 . S
C168 C169 1.438 1_556 S
C168 C173 1.429 . S
C169 C168 1.438 1_554 S
C169 C170 1.428 . S
C169 C182 1.394 . S
C170 H162 0.949 . S
C170 C169 1.428 . S
C170 C171 1.345 1_554 S
C171 H163 0.950 . S
C171 C170 1.345 1_556 S
C171 C172 1.424 . S
C172 H164 0.951 . S
C172 C171 1.424 . S
C172 C173 1.347 . S
C173 H165 0.951 . S
C173 C168 1.429 . S
C173 C172 1.347 . S
H174 C175 0.951 . S
C175 H174 0.951 . S
C175 C181 1.265 . S
H176 C181 0.950 . S
H177 C185 0.949 . S
H178 C186 0.950 . S
H179 C187 0.951 . S
H180 C188 0.951 . S
C181 C175 1.265 . S
C181 H176 0.950 . S
C181 C182 1.478 . S
C182 C169 1.394 . S
C182 C181 1.478 . S
C182 C183 1.397 . S
C183 C182 1.397 . S
C183 C184 1.438 1_554 S
C183 C188 1.429 . S
C184 C167 1.394 . S
C184 C183 1.438 1_556 S
C184 C185 1.428 . S
C185 H177 0.949 . S
C185 C184 1.428 . S
C185 C186 1.345 1_556 S
C186 H178 0.950 . S
C186 C185 1.345 1_554 S
C186 C187 1.424 . S
C187 H179 0.951 . S
C187 C186 1.424 . S
C187 C188 1.347 . S
C188 H180 0.951 . S
C188 C183 1.429 . S
C188 C187 1.347 . S
H189 C190 0.951 . S
C190 H189 0.951 . S
C190 C196 1.265 . S
H191 C196 0.950 . S
H192 C200 0.949 . S
H193 C201 0.950 . S
H194 C202 0.951 . S
H195 C203 0.951 . S
C196 C190 1.265 . S
C196 H191 0.950 . S
C196 C197 1.478 . S
C197 C196 1.478 . S
C197 C198 1.397 . S
C197 C214 1.394 . S
C198 C197 1.397 . S
C198 C199 1.438 . S
C198 C203 1.429 . S
C199 C198 1.438 . S
C199 C200 1.428 . S
C199 C212 1.394 . S
C200 H192 0.949 . S
C200 C199 1.428 . S
C200 C201 1.345 . S
C201 H193 0.950 . S
C201 C200 1.345 . S
C201 C202 1.424 . S
C202 H194 0.951 . S
C202 C201 1.424 . S
C202 C203 1.347 . S
C203 H195 0.951 . S
C203 C198 1.429 . S
C203 C202 1.347 . S
H204 C205 0.951 . S
C205 H204 0.951 . S
C205 C211 1.265 . S
H206 C211 0.950 . S
H207 C215 0.949 . S
H208 C216 0.950 . S
H209 C217 0.951 . S
H210 C218 0.951 . S
C211 C205 1.265 . S
C211 H206 0.950 . S
C211 C212 1.478 . S
C212 C199 1.394 . S
C212 C211 1.478 . S
C212 C213 1.397 . S
C213 C212 1.397 . S
C213 C214 1.438 . S
C213 C218 1.429 . S
C214 C197 1.394 . S
C214 C213 1.438 . S
C214 C215 1.428 . S
C215 H207 0.949 . S
C215 C214 1.428 . S
C215 C216 1.345 . S
C216 H208 0.950 . S
C216 C215 1.345 . S
C216 C217 1.424 . S
C217 H209 0.951 . S
C217 C216 1.424 . S
C217 C218 1.347 . S
C218 H210 0.951 . S
C218 C213 1.429 . S
C218 C217 1.347 . S
H219 C220 0.951 . S
C220 H219 0.951 . S
C220 C226 1.265 . S
H221 C226 0.950 . S
H222 C230 0.949 . S
H223 C231 0.950 . S
H224 C232 0.951 . S
H225 C233 0.951 . S
C226 C220 1.265 . S
C226 H221 0.950 . S
C226 C227 1.478 . S
C227 C226 1.478 . S
C227 C228 1.397 . S
C227 C244 1.394 . S
C228 C227 1.397 . S
C228 C229 1.438 . S
C228 C233 1.429 . S
C229 C228 1.438 . S
C229 C230 1.428 . S
C229 C242 1.394 . S
C230 H222 0.949 . S
C230 C229 1.428 . S
C230 C231 1.345 . S
C231 H223 0.950 . S
C231 C230 1.345 . S
C231 C232 1.424 . S
C232 H224 0.951 . S
C232 C231 1.424 . S
C232 C233 1.347 . S
C233 H225 0.951 . S
C233 C228 1.429 . S
C233 C232 1.347 . S
H234 C235 0.951 . S
C235 H234 0.951 . S
C235 C241 1.265 . S
H236 C241 0.950 . S
H237 C245 0.949 . S
H238 C246 0.950 . S
H239 C247 0.951 . S
H240 C248 0.951 . S
C241 C235 1.265 . S
C241 H236 0.950 . S
C241 C242 1.478 . S
C242 C229 1.394 . S
C242 C241 1.478 . S
C242 C243 1.397 . S
C243 C242 1.397 . S
C243 C244 1.438 . S
C243 C248 1.429 . S
C244 C227 1.394 . S
C244 C243 1.438 . S
C244 C245 1.428 . S
C245 H237 0.949 . S
C245 C244 1.428 . S
C245 C246 1.345 . S
C246 H238 0.950 . S
C246 C245 1.345 . S
C246 C247 1.424 . S
C247 H239 0.951 . S
C247 C246 1.424 . S
C247 C248 1.347 . S
C248 H240 0.951 . S
C248 C243 1.429 . S
C248 C247 1.347 . S
H249 C250 0.951 . S
C250 H249 0.951 . S
C250 C256 1.265 . S
H251 C256 0.950 1_655 S
H252 C260 0.949 . S
H253 C261 0.950 . S
H254 C262 0.951 . S
H255 C263 0.951 . S
C256 C250 1.265 . S
C256 H251 0.950 1_455 S
C256 C257 1.478 . S
C257 C256 1.478 . S
C257 C258 1.397 . S
C257 C274 1.394 1_455 S
C258 C257 1.397 . S
C258 C259 1.438 . S
C258 C263 1.429 . S
C259 C258 1.438 . S
C259 C260 1.428 . S
C259 C272 1.394 . S
C260 H252 0.949 . S
C260 C259 1.428 . S
C260 C261 1.345 . S
C261 H253 0.950 . S
C261 C260 1.345 . S
C261 C262 1.424 . S
C262 H254 0.951 . S
C262 C261 1.424 . S
C262 C263 1.347 . S
C263 H255 0.951 . S
C263 C258 1.429 . S
C263 C262 1.347 . S
H264 C265 0.951 1_655 S
C265 H264 0.951 1_455 S
C265 C271 1.265 . S
H266 C271 0.950 . S
H267 C275 0.949 . S
H268 C276 0.950 . S
H269 C277 0.951 . S
H270 C278 0.951 . S
C271 C265 1.265 . S
C271 H266 0.950 . S
C271 C272 1.478 . S
C272 C259 1.394 . S
C272 C271 1.478 . S
C272 C273 1.397 1_455 S
C273 C272 1.397 1_655 S
C273 C274 1.438 . S
C273 C278 1.429 . S
C274 C257 1.394 1_655 S
C274 C273 1.438 . S
C274 C275 1.428 . S
C275 H267 0.949 . S
C275 C274 1.428 . S
C275 C276 1.345 . S
C276 H268 0.950 . S
C276 C275 1.345 . S
C276 C277 1.424 . S
C277 H269 0.951 . S
C277 C276 1.424 . S
C277 C278 1.347 . S
C278 H270 0.951 . S
C278 C273 1.429 . S
C278 C277 1.347 . S
H279 C280 0.951 . S
C280 H279 0.951 . S
C280 C286 1.265 . S
H281 C286 0.950 . S
H282 C290 0.949 . S
H283 C291 0.950 . S
H284 C292 0.951 . S
H285 C293 0.951 . S
C286 C280 1.265 . S
C286 H281 0.950 . S
C286 C287 1.478 . S
C287 C286 1.478 . S
C287 C288 1.397 1_545 S
C287 C304 1.394 . S
C288 C287 1.397 1_565 S
C288 C289 1.438 1_554 S
C288 C293 1.429 . S
C289 C288 1.438 1_556 S
C289 C290 1.428 . S
C289 C302 1.394 1_565 S
C290 H282 0.949 . S
C290 C289 1.428 . S
C290 C291 1.345 . S
C291 H283 0.950 . S
C291 C290 1.345 . S
C291 C292 1.424 1_556 S
C292 H284 0.951 . S
C292 C291 1.424 1_554 S
C292 C293 1.347 . S
C293 H285 0.951 . S
C293 C288 1.429 . S
C293 C292 1.347 . S
H294 C295 0.951 . S
C295 H294 0.951 . S
C295 C301 1.265 . S
H296 C301 0.950 . S
H297 C305 0.949 . S
H298 C306 0.950 . S
H299 C307 0.951 . S
H300 C308 0.951 . S
C301 C295 1.265 . S
C301 H296 0.950 . S
C301 C302 1.478 . S
C302 C289 1.394 1_545 S
C302 C301 1.478 . S
C302 C303 1.397 . S
C303 C302 1.397 . S
C303 C304 1.438 1_556 S
C303 C308 1.429 . S
C304 C287 1.394 . S
C304 C303 1.438 1_554 S
C304 C305 1.428 . S
C305 H297 0.949 . S
C305 C304 1.428 . S
C305 C306 1.345 . S
C306 H298 0.950 . S
C306 C305 1.345 . S
C306 C307 1.424 1_554 S
C307 H299 0.951 . S
C307 C306 1.424 1_556 S
C307 C308 1.347 . S
C308 H300 0.951 . S
C308 C303 1.429 . S
C308 C307 1.347 . S
H309 C310 0.951 . S
C310 H309 0.951 . S
C310 C316 1.265 . S
H311 C316 0.950 . S
H312 C320 0.949 . S
H313 C321 0.950 . S
H314 C322 0.951 . S
H315 C323 0.951 . S
C316 C310 1.265 . S
C316 H311 0.950 . S
C316 C317 1.478 . S
C317 C316 1.478 . S
C317 C318 1.397 . S
C317 C334 1.394 . S
C318 C317 1.397 . S
C318 C319 1.438 . S
C318 C323 1.429 . S
C319 C318 1.438 . S
C319 C320 1.428 . S
C319 C332 1.394 . S
C320 H312 0.949 . S
C320 C319 1.428 . S
C320 C321 1.345 . S
C321 H313 0.950 . S
C321 C320 1.345 . S
C321 C322 1.424 . S
C322 H314 0.951 . S
C322 C321 1.424 . S
C322 C323 1.347 . S
C323 H315 0.951 . S
C323 C318 1.429 . S
C323 C322 1.347 . S
H324 C325 0.951 . S
C325 H324 0.951 . S
C325 C331 1.265 . S
H326 C331 0.950 . S
H327 C335 0.949 . S
H328 C336 0.950 . S
H329 C337 0.951 . S
H330 C338 0.951 . S
C331 C325 1.265 . S
C331 H326 0.950 . S
C331 C332 1.478 . S
C332 C319 1.394 . S
C332 C331 1.478 . S
C332 C333 1.397 . S
C333 C332 1.397 . S
C333 C334 1.438 . S
C333 C338 1.429 . S
C334 C317 1.394 . S
C334 C333 1.438 . S
C334 C335 1.428 . S
C335 H327 0.949 . S
C335 C334 1.428 . S
C335 C336 1.345 . S
C336 H328 0.950 . S
C336 C335 1.345 . S
C336 C337 1.424 . S
C337 H329 0.951 . S
C337 C336 1.424 . S
C337 C338 1.347 . S
C338 H330 0.951 . S
C338 C333 1.429 . S
C338 C337 1.347 . S
C70 C18 1.381 . S
C85 C65 1.369 . S
C100 C41 1.375 . S
C115 C20 1.375 . S
C130 C43 1.279 . S
C145 C64 1.330 . S
C160 C66 1.270 . S
C175 C21 1.307 . S
C190 C44 1.318 . S
C205 C19 1.344 . S
C220 C67 1.367 . S
C235 C42 1.309 . S
C250 C16 0.946 . S
C265 C17 0.951 . S
C280 C39 0.931 . S
C295 C40 0.926 . S
C310 C62 0.934 . S
C325 C63 0.935 . S
