# Generated by pormake.
# Topology tfs, (6)-cn, num edge types: 1
# Building blocks:
#     Node 0, Type 0, BuildingBlock: INOVEN_clean_sbu_0, # of connection points: 6
#     Node 1, Type 0, BuildingBlock: INOVEN_clean_sbu_0, # of connection points: 6
#     Node 2, Type 0, BuildingBlock: INOVEN_clean_sbu_0, # of connection points: 6
#     Node 3, Type 0, BuildingBlock: INOVEN_clean_sbu_0, # of connection points: 6
#     Node 4, Type 0, BuildingBlock: INOVEN_clean_sbu_0, # of connection points: 6
#     Node 5, Type 0, BuildingBlock: INOVEN_clean_sbu_0, # of connection points: 6
#     Edge 6, Type (0, 0), BuildingBlock: OJICUG_clean_linker_0, # of connection points: 2
#     Edge 7, Type (0, 0), BuildingBlock: OJICUG_clean_linker_0, # of connection points: 2
#     Edge 8, Type (0, 0), BuildingBlock: OJICUG_clean_linker_0, # of connection points: 2
#     Edge 9, Type (0, 0), BuildingBlock: OJICUG_clean_linker_0, # of connection points: 2
#     Edge 10, Type (0, 0), BuildingBlock: OJICUG_clean_linker_0, # of connection points: 2
#     Edge 11, Type (0, 0), BuildingBlock: OJICUG_clean_linker_0, # of connection points: 2
#     Edge 12, Type (0, 0), BuildingBlock: OJICUG_clean_linker_0, # of connection points: 2
#     Edge 13, Type (0, 0), BuildingBlock: OJICUG_clean_linker_0, # of connection points: 2
#     Edge 14, Type (0, 0), BuildingBlock: OJICUG_clean_linker_0, # of connection points: 2
#     Edge 15, Type (0, 0), BuildingBlock: OJICUG_clean_linker_0, # of connection points: 2
#     Edge 16, Type (0, 0), BuildingBlock: OJICUG_clean_linker_0, # of connection points: 2
#     Edge 17, Type (0, 0), BuildingBlock: OJICUG_clean_linker_0, # of connection points: 2
#     Edge 18, Type (0, 0), BuildingBlock: OJICUG_clean_linker_0, # of connection points: 2
#     Edge 19, Type (0, 0), BuildingBlock: OJICUG_clean_linker_0, # of connection points: 2
#     Edge 20, Type (0, 0), BuildingBlock: OJICUG_clean_linker_0, # of connection points: 2
#     Edge 21, Type (0, 0), BuildingBlock: OJICUG_clean_linker_0, # of connection points: 2
#     Edge 22, Type (0, 0), BuildingBlock: OJICUG_clean_linker_0, # of connection points: 2
#     Edge 23, Type (0, 0), BuildingBlock: OJICUG_clean_linker_0, # of connection points: 2
# Relax obj value: 0.484
# Max RMSD: 0.383
# Mean RMSD: 0.357
data_MOF--net-tfs--node1-INOVEN_clean_sbu_0--edge1-OJICUG_clean_linker_0
_symmetry_space_group_name_H-M    P1
_symmetry_Int_Tables_number       1
_symmetry_cell_setting            triclinic
loop_
_symmetry_equiv_pos_as_xyz
'x, y, z'
_cell_length_a     42.049039
_cell_length_b     41.372689
_cell_length_c     9.5614794
_cell_angle_alpha  92.674071
_cell_angle_beta   96.735568
_cell_angle_gamma 119.68339
loop_
_atom_site_label
_atom_site_type_symbol
_atom_site_fract_x
_atom_site_fract_y
_atom_site_fract_z
_atom_type_partial_charge
Gd0 Gd 0.20926 0.37508 0.12884 0.0
Gd1 Gd 0.17625 0.42693 0.04511 0.0
C2 C 0.12647 0.35152 0.16971 0.0
C3 C 0.23114 0.33237 0.23698 0.0
C4 C 0.24364 0.30798 0.29883 0.0
C5 C 0.25438 0.28796 0.21262 0.0
C6 C 0.24722 0.3065 0.44569 0.0
C7 C 0.27497 0.26755 0.42112 0.0
C8 C 0.26266 0.28624 0.50653 0.0
C9 C 0.27022 0.26807 0.27355 0.0
C10 C 0.18727 0.37059 0.84838 0.0
C11 C 0.26243 0.45488 0.03218 0.0
C12 C 0.1515 0.46707 0.92647 0.0
C13 C 0.15446 0.50421 0.94662 0.0
C14 C 0.14308 0.51549 0.06282 0.0
C15 C 0.16795 0.52843 0.84328 0.0
C16 C 0.15916 0.57498 0.97117 0.0
C17 C 0.17059 0.56343 0.85584 0.0
C18 C 0.14524 0.55045 0.07457 0.0
C19 C 0.20187 0.43514 0.32587 0.0
O20 O 0.15771 0.35366 0.22643 0.0
O21 O 0.12571 0.37222 0.06898 0.0
O22 O 0.19728 0.31923 0.17074 0.0
O23 O 0.25315 0.36867 0.24499 0.0
O24 O 0.21264 0.36361 0.90146 0.0
O25 O 0.17174 0.37534 0.94613 0.0
O26 O 0.23258 0.45587 0.9775 0.0
O27 O 0.26092 0.42907 0.11257 0.0
O28 O 0.13401 0.44259 0.0117 0.0
O29 O 0.18097 0.46678 0.89726 0.0
O30 O 0.17914 0.44577 0.27475 0.0
O31 O 0.21394 0.42691 0.22419 0.0
H32 H 0.25204 0.28907 0.0991 0.0
H33 H 0.23925 0.32203 0.51362 0.0
H34 H 0.26702 0.28699 0.62088 0.0
H35 H 0.28046 0.25464 0.20642 0.0
H36 H 0.1323 0.49733 0.14405 0.0
H37 H 0.17667 0.52031 0.75227 0.0
H38 H 0.18224 0.58159 0.77561 0.0
H39 H 0.13561 0.55796 0.16397 0.0
Gd40 Gd 0.78133 0.20883 0.88847 0.0
Gd41 Gd 0.86285 0.24145 0.83241 0.0
C42 C 0.83951 0.29947 0.94043 0.0
C43 C 0.72298 0.18719 0.0092 0.0
C44 C 0.69068 0.1922 0.013 0.0
C45 C 0.6699 0.1921 0.88708 0.0
C46 C 0.67913 0.1949 0.14315 0.0
C47 C 0.62645 0.19747 0.02067 0.0
C48 C 0.64719 0.1975 0.14708 0.0
C49 C 0.63807 0.19443 0.89085 0.0
C50 C 0.79221 0.22543 0.62094 0.0
C51 C 0.80295 0.15429 0.74547 0.0
C52 C 0.92626 0.26419 0.75068 0.0
C53 C 0.95056 0.26284 0.65429 0.0
C54 C 0.98803 0.27763 0.71002 0.0
C55 C 0.93892 0.2528 0.50713 0.0
C56 C 1.00309 0.27675 0.47201 0.0
C57 C 0.96502 0.25962 0.41661 0.0
C58 C 0.01402 0.28458 0.62027 0.0
C59 C 0.84986 0.22813 0.1015 0.0
O60 O 0.80836 0.27087 0.96813 0.0
O61 O 0.86303 0.29507 0.87304 0.0
O62 O 0.72352 0.1699 0.89202 0.0
O63 O 0.75562 0.21543 0.06449 0.0
O64 O 0.7607 0.19961 0.65047 0.0
O65 O 0.81383 0.24287 0.73414 0.0
O66 O 0.83059 0.18412 0.70507 0.0
O67 O 0.78572 0.15752 0.84767 0.0
O68 O 0.91388 0.2394 0.8404 0.0
O69 O 0.90333 0.27556 0.7048 0.0
O70 O 0.87957 0.25642 0.07132 0.0
O71 O 0.83004 0.20783 -0.01105 0.0
H72 H 0.67803 0.18992 0.78526 0.0
H73 H 0.69476 0.19489 0.24165 0.0
H74 H 0.63916 0.20028 0.24856 0.0
H75 H 0.62249 0.19396 0.79135 0.0
H76 H 0.99763 0.28595 0.82311 0.0
H77 H 0.91004 0.24123 0.46192 0.0
H78 H 0.95559 0.25266 0.30321 0.0
H79 H 0.04301 0.29827 0.66731 0.0
Gd80 Gd 0.55835 0.75337 0.08467 0.0
Gd81 Gd 0.60723 0.84059 0.11991 0.0
C82 C 0.52078 0.80253 0.00665 0.0
C83 C 0.51095 0.68259 0.05862 0.0
C84 C 0.47151 0.65358 0.04068 0.0
C85 C 0.45604 0.62718 0.91886 0.0
C86 C 0.45042 0.64902 0.14934 0.0
C87 C 0.40047 0.59009 0.02044 0.0
C88 C 0.41517 0.61747 0.13922 0.0
C89 C 0.42072 0.59576 0.90841 0.0
C90 C 0.60057 0.78512 0.88626 0.0
C91 C 0.6406 0.78721 0.24179 0.0
C92 C 0.65659 0.90985 0.11239 0.0
C93 C 0.68273 0.94227 0.21798 0.0
C94 C 0.6731 0.94747 0.34944 0.0
C95 C 0.71649 0.96971 0.18364 0.0
C96 C 0.72923 1.0091 0.40553 0.0
C97 C 0.73969 1.00254 0.27684 0.0
C98 C 0.69581 0.98058 0.44127 0.0
C99 C 0.57291 0.81227 0.34122 0.0
O100 O 0.51719 0.77266 0.06338 0.0
O101 O 0.55374 0.83027 -0.01062 0.0
O102 O 0.52255 0.70102 0.95038 0.0
O103 O 0.52684 0.70323 0.18195 0.0
O104 O 0.59478 0.75375 0.92962 0.0
O105 O 0.58235 0.79653 0.94479 0.0
O106 O 0.64815 0.82041 0.19995 0.0
O107 O 0.60644 0.75852 0.2242 0.0
O108 O 0.62143 0.8981 0.11241 0.0
O109 O 0.66347 0.88242 0.09568 0.0
O110 O 0.58212 0.84565 0.3096 0.0
O111 O 0.58513 0.79839 0.25975 0.0
H112 H 0.47196 0.62999 0.83423 0.0
H113 H 0.4616 0.66897 0.24433 0.0
H114 H 0.39978 0.61395 0.22608 0.0
H115 H 0.4101 0.57498 0.8161 0.0
H116 H 0.64727 0.92652 0.37906 0.0
H117 H 0.72458 0.96613 0.08314 0.0
H118 H 0.76556 0.02291 0.24613 0.0
H119 H 0.68608 0.98416 0.53735 0.0
Gd120 Gd 0.84601 0.59558 0.92923 0.0
Gd121 Gd 0.80931 0.64276 0.83166 0.0
C122 C 0.75729 0.56341 0.93164 0.0
C123 C 0.87003 0.55735 0.06715 0.0
C124 C 0.86602 0.51969 0.0486 0.0
C125 C 0.88078 0.50977 0.94111 0.0
C126 C 0.84795 0.49353 0.14146 0.0
C127 C 0.85915 0.44794 0.01884 0.0
C128 C 0.84425 0.45798 0.12606 0.0
C129 C 0.8777 0.47454 0.92727 0.0
C130 C 0.82294 0.58585 0.64609 0.0
C131 C 0.89399 0.66941 0.79812 0.0
C132 C 0.78886 0.68498 0.70916 0.0
C133 C 0.77682 0.70972 0.64616 0.0
C134 C 0.76713 0.73091 0.73172 0.0
C135 C 0.77295 0.7107 0.49894 0.0
C136 C 0.74659 0.75105 0.52204 0.0
C137 C 0.75805 0.73135 0.43737 0.0
C138 C 0.75175 0.75116 0.66991 0.0
C139 C 0.82891 0.64725 0.11474 0.0
O140 O 0.78763 0.56201 0.97495 0.0
O141 O 0.75753 0.59039 0.86134 0.0
O142 O 0.88846 0.58106 -0.01881 0.0
O143 O 0.84074 0.55876 0.09121 0.0
O144 O 0.84801 0.57878 0.70315 0.0
O145 O 0.80799 0.59193 0.74279 0.0
O146 O 0.8622 0.666 0.74078 0.0
O147 O 0.89573 0.65032 0.90315 0.0
O148 O 0.81691 0.69801 0.8131 0.0
O149 O 0.77105 0.64861 0.67344 0.0
O150 O 0.8017 0.65109 0.05667 0.0
O151 O 0.84686 0.64554 0.02059 0.0
H152 H 0.89506 0.52929 0.86795 0.0
H153 H 0.83648 0.5005 0.22581 0.0
H154 H 0.82916 0.43831 0.19731 0.0
H155 H 0.8904 0.46856 0.84535 0.0
H156 H 0.76966 0.73022 0.84548 0.0
H157 H 0.78033 0.69454 0.43124 0.0
H158 H 0.75338 0.73011 0.32286 0.0
H159 H 0.74195 0.76513 0.73662 0.0
Gd160 Gd 0.15885 0.78414 0.13123 0.0
Gd161 Gd 0.24035 0.81428 0.0772 0.0
C162 C 0.22178 0.87003 0.23364 0.0
C163 C 0.0949 0.76123 0.20755 0.0
C164 C 0.06955 0.76027 0.30307 0.0
C165 C 0.03209 0.74471 0.24529 0.0
C166 C 0.08039 0.76873 0.4508 0.0
C167 C 0.01561 0.74205 0.48216 0.0
C168 C 0.05361 0.75982 0.5397 0.0
C169 C 1.00538 0.73558 0.3335 0.0
C170 C 0.17253 0.79783 0.86332 0.0
C171 C 0.18055 0.72419 0.02575 0.0
C172 C 0.29843 0.83466 0.95643 0.0
C173 C 0.32887 0.82692 0.95053 0.0
C174 C 0.34486 0.81928 0.07207 0.0
C175 C 0.34348 0.82916 0.82415 0.0
C176 C 0.39047 0.81727 0.94252 0.0
C177 C 0.3742 0.8245 0.82018 0.0
C178 C 0.37539 0.81461 0.06815 0.0
C179 C 0.22854 0.79733 0.34297 0.0
O180 O 0.19185 0.8407 0.26493 0.0
O181 O 0.23916 0.86677 0.13188 0.0
O182 O 0.10906 0.78844 0.12824 0.0
O183 O 0.1166 0.74801 0.24803 0.0
O184 O 0.14216 0.77032 0.89255 0.0
O185 O 0.19286 0.81749 0.97633 0.0
O186 O 0.21265 0.75203 0.00161 0.0
O187 O 0.15704 0.72965 0.08897 0.0
O188 O 0.29874 0.85123 0.07706 0.0
O189 O 0.26515 0.80823 0.89754 0.0
O190 O 0.26073 0.822 0.31457 0.0
O191 O 0.20678 0.78082 0.22919 0.0
H192 H 0.02315 0.73754 0.13153 0.0
H193 H 0.10923 0.78076 0.49744 0.0
H194 H 0.06256 0.76589 0.65344 0.0
H195 H 0.97651 0.72149 0.28461 0.0
H196 H 0.33412 0.81748 0.17078 0.0
H197 H 0.3314 0.83496 0.72909 0.0
H198 H 0.38504 0.82626 0.72172 0.0
H199 H 0.3876 0.80943 0.16445 0.0
Gd200 Gd 0.40875 0.17882 0.8546 0.0
Gd201 Gd 0.46545 0.26519 0.82576 0.0
C202 C 0.37934 0.22875 0.69481 0.0
C203 C 0.36343 0.11119 0.90433 0.0
C204 C 0.33928 0.07636 0.80523 0.0
C205 C 0.34637 0.07422 0.66643 0.0
C206 C 0.30953 0.04496 0.84741 0.0
C207 C 0.29578 1.0095 0.61433 0.0
C208 C 0.28803 0.01172 0.75304 0.0
C209 C 0.32465 0.04166 0.57184 0.0
C210 C 0.43063 0.19172 0.60112 0.0
C211 C 0.4981 0.21628 0.96129 0.0
C212 C 0.51104 0.33039 0.75924 0.0
C213 C 0.54639 0.3651 0.81118 0.0
C214 C 0.5539 0.38637 0.94265 0.0
C215 C 0.57367 0.37683 0.72391 0.0
C216 C 0.61577 0.43054 0.89661 0.0
C217 C 0.60795 0.40902 0.76617 0.0
C218 C 0.58846 0.41922 -0.0153 0.0
C219 C 0.44273 0.2508 0.07673 0.0
O220 O 0.37031 0.20015 0.7709 0.0
O221 O 0.41401 0.25309 0.68464 0.0
O222 O 0.39914 0.12483 0.91038 0.0
O223 O 0.35448 0.13729 0.89974 0.0
O224 O 0.40009 0.16306 0.62023 0.0
O225 O 0.44957 0.20969 0.71867 0.0
O226 O 0.50398 0.24564 0.8962 0.0
O227 O 0.46424 0.18983 0.97877 0.0
O228 O 0.48154 0.32357 0.81476 0.0
O229 O 0.51391 0.30068 0.73377 0.0
O230 O 0.47402 0.27943 0.06109 0.0
O231 O 0.42379 0.23379 0.95881 0.0
H232 H 0.36934 0.09738 0.631 0.0
H233 H 0.30342 0.04586 0.95399 0.0
H234 H 0.26617 0.98752 0.79024 0.0
H235 H 0.33104 0.04167 0.46536 0.0
H236 H 0.5333 0.37767 0.01233 0.0
H237 H 0.56844 0.3609 0.62216 0.0
H238 H 0.62835 0.4174 0.69558 0.0
H239 H 0.59404 0.43543 0.08601 0.0
C240 C 0.3126 0.21172 0.61209 0.0
C241 C 0.35101 0.23644 0.62207 0.0
H242 H 0.25771 0.20214 0.53891 0.0
C243 C 0.36324 0.27044 0.5629 0.0
H244 H 0.30229 0.18535 0.65613 0.0
C245 C 0.33815 0.27967 0.49668 0.0
C246 C 0.30007 0.25534 0.48737 0.0
H247 H 0.39247 0.29057 0.56886 0.0
H248 H 0.34858 0.3063 0.45422 0.0
C249 C 0.28719 0.22122 0.54519 0.0
C250 C 0.09483 0.30791 0.34454 0.0
C251 C 0.09267 0.3276 0.23105 0.0
H252 H 0.068 0.27538 0.50591 0.0
C253 C 0.05894 0.32616 0.18557 0.0
H254 H 0.12019 0.30796 0.38189 0.0
C255 C 0.02886 0.30752 0.25821 0.0
C256 C 0.03195 0.29 0.37785 0.0
H257 H 0.05624 0.34072 0.09778 0.0
H258 H 1.00398 0.30874 0.22543 0.0
C259 C 0.06486 0.28928 0.41649 0.0
C260 C 0.7913 0.11425 0.52038 0.0
C261 C 0.78806 0.11711 0.66418 0.0
H262 H 0.77426 0.07892 0.3253 0.0
C263 C 0.76773 0.08423 0.72558 0.0
H264 H 0.80664 0.13915 0.46983 0.0
C265 C 0.75029 0.04916 0.64395 0.0
C266 C 0.75161 0.04613 0.49729 0.0
H267 H 0.76504 0.08562 0.8367 0.0
H268 H 0.73539 0.02456 0.69641 0.0
C269 C 0.77286 0.07936 0.43753 0.0
C270 C 0.68355 0.73565 0.42324 0.0
C271 C 0.7211 0.76272 0.45457 0.0
H272 H 0.62944 0.722 0.33333 0.0
C273 C 0.7331 0.79908 0.41761 0.0
H274 H 0.67378 0.70745 0.45045 0.0
C275 C 0.70733 0.80794 0.34862 0.0
C276 C 0.66948 0.7804 0.31613 0.0
H277 H 0.7622 0.82034 0.44105 0.0
H278 H 0.71695 0.83598 0.32037 0.0
C279 C 0.65817 0.74427 0.35545 0.0
C280 C 0.99013 0.71087 0.69601 0.0
C281 C 0.98637 0.72761 0.57483 0.0
H282 H 0.96411 0.6795 0.8624 0.0
C283 C 0.95307 0.72761 0.53623 0.0
H284 H 0.01518 0.70991 0.72822 0.0
C285 C 0.92377 0.70988 0.61218 0.0
C286 C 0.92696 0.69185 0.72989 0.0
H287 H 0.94927 0.74071 0.44528 0.0
H288 H 0.89819 0.70951 0.57564 0.0
C289 C 0.96075 0.69319 0.7727 0.0
C290 C 0.2197 0.91451 0.41738 0.0
C291 C 0.23928 0.9063 0.32571 0.0
H292 H 0.2217 0.95381 0.5781 0.0
C293 C 0.27715 0.93201 0.33041 0.0
H294 H 0.19053 0.89506 0.41706 0.0
C295 C 0.29514 0.96492 0.42461 0.0
C296 C 0.27574 0.97369 0.5156 0.0
H297 H 0.29339 0.92622 0.26419 0.0
H298 H 0.32465 0.98317 0.42769 0.0
C299 C 0.23768 0.948 0.51067 0.0
C300 C 0.16553 0.66618 0.87502 0.0
C301 C 0.17419 0.68607 0.00925 0.0
H302 H 0.15188 0.61463 0.75737 0.0
C303 C 0.17653 0.66928 0.13086 0.0
H304 H 0.16314 0.67871 0.78023 0.0
C305 C 0.17133 0.63319 0.11878 0.0
C306 C 0.16284 0.61283 -0.0156 0.0
H307 H 0.18323 0.68449 0.23548 0.0
H308 H 0.17492 0.62178 0.21502 0.0
C309 C 0.15938 0.62963 0.86263 0.0
C310 C 0.53373 0.18727 0.08383 0.0
C311 C 0.53116 0.21186 -0.00765 0.0
H312 H 0.56675 0.16375 0.16766 0.0
C313 C 0.56109 0.23275 0.9203 0.0
H314 H 0.51138 0.17104 0.14176 0.0
C315 C 0.59196 0.22862 0.9346 0.0
C316 C 0.59433 0.20334 0.02104 0.0
H317 H 0.56059 0.25192 0.84793 0.0
H318 H 0.61394 0.24505 0.87527 0.0
C319 C 0.56541 0.1833 0.09909 0.0
C320 C 0.33769 0.53928 0.89824 0.0
C321 C 0.36545 0.55448 0.01873 0.0
H322 H 0.28276 0.49534 0.808 0.0
C323 C 0.35994 0.53517 0.13865 0.0
H324 H 0.3414 0.55361 0.80428 0.0
C325 C 0.32705 0.50166 0.1395 0.0
C326 C 0.29877 0.48716 0.0214 0.0
H327 H 0.38112 0.54602 0.23215 0.0
H328 H 0.32318 0.48791 0.23489 0.0
C329 C 0.30433 0.50605 0.90024 0.0
C330 C 0.85257 0.38955 0.1177 0.0
C331 C 0.85489 0.40984 0.00083 0.0
H332 H 0.84511 0.33808 0.18962 0.0
C333 C 0.85258 0.3931 0.86542 0.0
H334 H 0.85515 0.40159 0.22421 0.0
C335 C 0.84846 0.35753 0.84768 0.0
C336 C 0.84526 0.33731 0.96367 0.0
H337 H 0.8532 0.40697 0.77179 0.0
H338 H 0.84672 0.34533 0.74221 0.0
C339 C 0.84717 0.35332 0.09875 0.0
C340 C 0.45459 0.83755 0.88794 0.0
C341 C 0.42278 0.8119 0.94151 0.0
H342 H 0.51112 0.85509 0.86698 0.0
C343 C 0.42272 0.78197 0.00435 0.0
H344 H 0.45525 0.86087 0.8386 0.0
C345 C 0.45417 0.77856 0.01977 0.0
C346 C 0.48683 0.80517 0.97373 0.0
H347 H 0.39844 0.76147 0.04457 0.0
H348 H 0.45303 0.75549 0.07255 0.0
C349 C 0.48655 0.83435 0.9048 0.0
C350 C 0.69038 0.53284 0.96548 0.0
C351 C 0.72168 0.53029 0.9457 0.0
H352 H 0.63174 0.50246 0.97129 0.0
C353 C 0.71857 0.49488 0.93016 0.0
H354 H 0.69232 0.55992 0.97983 0.0
C355 C 0.68436 0.46249 0.92417 0.0
C356 C 0.65256 0.46475 0.9356 0.0
H357 H 0.74222 0.49204 0.91434 0.0
H358 H 0.68241 0.43552 0.90371 0.0
C359 C 0.65598 0.50014 0.96213 0.0
C360 C 0.20939 0.37992 0.61685 0.0
C361 C 0.18783 0.38424 0.70939 0.0
H362 H 0.23214 0.39423 0.42578 0.0
C363 C 0.17094 0.40526 0.67475 0.0
H364 H 0.22222 0.36323 0.6402 0.0
C365 C 0.17754 0.42384 0.55405 0.0
C366 C 0.19957 0.41998 0.4625 0.0
H367 H 0.153 0.40757 0.7416 0.0
H368 H 0.16474 0.44058 0.53084 0.0
C369 C 0.2154 0.39786 0.49493 0.0
C370 C 0.83743 0.25876 0.45963 0.0
C371 C 0.80505 0.22677 0.48332 0.0
H372 H 0.87745 0.2841 0.32103 0.0
C373 C 0.78757 0.19517 0.38105 0.0
H374 H 0.85121 0.28359 0.53671 0.0
C375 C 0.8029 0.19524 0.25879 0.0
C376 C 0.83545 0.22718 0.23553 0.0
H377 H 0.76276 0.17005 0.39755 0.0
H378 H 0.78914 0.17038 0.18185 0.0
C379 C 0.85256 0.25897 0.33694 0.0
C380 C 0.61612 0.82917 0.71539 0.0
C381 C 0.60428 0.79226 0.74244 0.0
H382 H 0.61197 0.86458 0.56843 0.0
C383 C 0.58131 0.76223 0.63752 0.0
H384 H 0.63339 0.85251 0.79742 0.0
C385 C 0.56721 0.76886 0.51115 0.0
C386 C 0.57739 0.80561 0.48641 0.0
H387 H 0.57135 0.7335 0.65812 0.0
H388 H 0.54917 0.74541 0.43078 0.0
C389 C 0.60232 0.83585 0.5883 0.0
C390 C 0.79674 0.60854 0.45313 0.0
C391 C 0.82335 0.59935 0.50591 0.0
H392 H 0.77859 0.63237 0.29119 0.0
C393 C 0.85237 0.60639 0.42984 0.0
H394 H 0.77363 0.60241 0.50762 0.0
C395 C 0.85513 0.62318 0.30467 0.0
C396 C 0.82863 0.63271 0.25281 0.0
H397 H 0.87336 0.59959 0.4684 0.0
H398 H 0.87777 0.62844 0.24808 0.0
C399 C 0.7996 0.62552 0.32893 0.0
C400 C 0.23404 0.82878 0.58105 0.0
C401 C 0.21581 0.7969 0.47998 0.0
H402 H 0.23366 0.85448 0.7804 0.0
C403 C 0.18295 0.76564 0.50431 0.0
H404 H 0.25913 0.85343 0.56344 0.0
C405 C 0.16833 0.76626 0.62752 0.0
C406 C 0.18641 0.79818 0.72856 0.0
H407 H 0.16849 0.74073 0.42763 0.0
H408 H 0.14312 0.74162 0.64428 0.0
C409 C 0.21924 0.82953 0.70393 0.0
C410 C 0.45398 0.24487 0.46167 0.0
C411 C 0.43483 0.20629 0.46578 0.0
H412 H 0.47034 0.28959 0.3341 0.0
C413 C 0.41586 0.18188 0.3404 0.0
H414 H 0.46647 0.26381 0.55664 0.0
C415 C 0.41675 0.19642 0.212 0.0
C416 C 0.43689 0.23524 0.20923 0.0
H417 H 0.40038 0.15179 0.34186 0.0
H418 H 0.40281 0.17746 0.1155 0.0
C419 C 0.45514 0.25945 0.33449 0.0
loop_
_geom_bond_atom_site_label_1
_geom_bond_atom_site_label_2
_geom_bond_distance
_geom_bond_site_symmetry_2
_ccdc_geom_bond_type
Gd0 C3 2.818 . S
Gd0 O20 2.377 1_554 S
Gd0 O22 2.448 1_554 S
Gd0 O23 2.506 . S
Gd0 O24 2.435 1_554 S
Gd0 O25 2.717 1_554 S
Gd0 O27 2.395 1_554 S
Gd0 O31 2.327 . S
Gd1 C12 2.818 . S
Gd1 O21 2.395 1_556 S
Gd1 O25 2.327 . S
Gd1 O26 2.377 1_556 S
Gd1 O28 2.448 1_556 S
Gd1 O29 2.506 . S
Gd1 O30 2.435 1_556 S
Gd1 O31 2.717 1_556 S
C2 O20 1.240 1_554 S
C2 O21 1.240 . S
C3 Gd0 2.818 . S
C3 C4 1.510 . S
C3 O22 1.249 1_554 S
C3 O23 1.252 . S
C4 C3 1.510 . S
C4 C5 1.404 . S
C4 C6 1.352 . S
C5 C4 1.404 . S
C5 C9 1.389 . S
C5 H32 0.930 1_554 S
C6 C4 1.352 . S
C6 C8 1.374 . S
C6 H33 0.931 . S
C7 C8 1.359 . S
C7 C9 1.364 . S
C8 C6 1.374 . S
C8 C7 1.359 . S
C8 H34 0.931 . S
C9 C5 1.389 . S
C9 C7 1.364 . S
C9 H35 0.931 . S
C10 O24 1.256 . S
C10 O25 1.257 . S
C11 O26 1.240 1_556 S
C11 O27 1.240 . S
C12 Gd1 2.818 . S
C12 C13 1.510 . S
C12 O28 1.249 1_556 S
C12 O29 1.252 . S
C13 C12 1.510 . S
C13 C14 1.404 . S
C13 C15 1.352 . S
C14 C13 1.404 . S
C14 C18 1.389 . S
C14 H36 0.930 1_556 S
C15 C13 1.352 . S
C15 C17 1.374 . S
C15 H37 0.931 . S
C16 C17 1.359 . S
C16 C18 1.364 . S
C17 C15 1.374 . S
C17 C16 1.359 . S
C17 H38 0.931 . S
C18 C14 1.389 . S
C18 C16 1.364 . S
C18 H39 0.931 . S
C19 O30 1.256 . S
C19 O31 1.257 . S
O20 Gd0 2.377 1_556 S
O20 C2 1.240 1_556 S
O21 Gd1 2.395 1_554 S
O21 C2 1.240 . S
O22 Gd0 2.448 1_556 S
O22 C3 1.249 1_556 S
O23 Gd0 2.506 . S
O23 C3 1.252 . S
O24 Gd0 2.435 1_556 S
O24 C10 1.256 . S
O25 Gd0 2.717 1_556 S
O25 Gd1 2.327 . S
O25 C10 1.257 . S
O26 Gd1 2.377 1_554 S
O26 C11 1.240 1_554 S
O27 Gd0 2.395 1_556 S
O27 C11 1.240 . S
O28 Gd1 2.448 1_554 S
O28 C12 1.249 1_554 S
O29 Gd1 2.506 . S
O29 C12 1.252 . S
O30 Gd1 2.435 1_554 S
O30 C19 1.256 . S
O31 Gd0 2.327 . S
O31 Gd1 2.717 1_554 S
O31 C19 1.257 . S
H32 C5 0.930 1_556 S
H33 C6 0.931 . S
H34 C8 0.931 . S
H35 C9 0.931 . S
H36 C14 0.930 1_554 S
H37 C15 0.931 . S
H38 C17 0.931 . S
H39 C18 0.931 . S
Gd40 C43 2.818 1_556 S
Gd40 O60 2.377 . S
Gd40 O62 2.448 . S
Gd40 O63 2.506 1_556 S
Gd40 O64 2.435 . S
Gd40 O65 2.717 . S
Gd40 O67 2.395 . S
Gd40 O71 2.327 1_556 S
Gd41 C52 2.818 1_554 S
Gd41 O61 2.395 . S
Gd41 O65 2.327 1_554 S
Gd41 O66 2.377 . S
Gd41 O68 2.448 . S
Gd41 O69 2.506 1_554 S
Gd41 O70 2.435 . S
Gd41 O71 2.717 . S
C42 O60 1.240 1_554 S
C42 O61 1.240 . S
C43 Gd40 2.818 1_554 S
C43 C44 1.510 . S
C43 O62 1.249 1_554 S
C43 O63 1.252 . S
C44 C43 1.510 . S
C44 C45 1.404 1_554 S
C44 C46 1.352 . S
C45 C44 1.404 1_556 S
C45 C49 1.389 1_556 S
C45 H72 0.930 . S
C46 C44 1.352 . S
C46 C48 1.374 . S
C46 H73 0.931 . S
C47 C48 1.359 . S
C47 C49 1.364 . S
C48 C46 1.374 . S
C48 C47 1.359 . S
C48 H74 0.931 . S
C49 C45 1.389 1_554 S
C49 C47 1.364 . S
C49 H75 0.931 1_554 S
C50 O64 1.256 . S
C50 O65 1.257 . S
C51 O66 1.240 1_556 S
C51 O67 1.240 . S
C52 Gd41 2.818 1_556 S
C52 C53 1.510 . S
C52 O68 1.249 1_556 S
C52 O69 1.252 . S
C53 C52 1.510 . S
C53 C54 1.404 1_556 S
C53 C55 1.352 . S
C54 C53 1.404 1_554 S
C54 C58 1.389 1_654 S
C54 H76 0.930 . S
C55 C53 1.352 . S
C55 C57 1.374 . S
C55 H77 0.931 . S
C56 C57 1.359 1_455 S
C56 C58 1.364 . S
C57 C55 1.374 . S
C57 C56 1.359 1_655 S
C57 H78 0.931 . S
C58 C54 1.389 1_456 S
C58 C56 1.364 . S
C58 H79 0.931 1_556 S
C59 O70 1.256 . S
C59 O71 1.257 . S
O60 Gd40 2.377 . S
O60 C42 1.240 1_556 S
O61 Gd41 2.395 . S
O61 C42 1.240 . S
O62 Gd40 2.448 . S
O62 C43 1.249 1_556 S
O63 Gd40 2.506 1_554 S
O63 C43 1.252 . S
O64 Gd40 2.435 . S
O64 C50 1.256 . S
O65 Gd40 2.717 . S
O65 Gd41 2.327 1_556 S
O65 C50 1.257 . S
O66 Gd41 2.377 . S
O66 C51 1.240 1_554 S
O67 Gd40 2.395 . S
O67 C51 1.240 . S
O68 Gd41 2.448 . S
O68 C52 1.249 1_554 S
O69 Gd41 2.506 1_556 S
O69 C52 1.252 . S
O70 Gd41 2.435 . S
O70 C59 1.256 . S
O71 Gd40 2.327 1_554 S
O71 Gd41 2.717 . S
O71 C59 1.257 . S
H72 C45 0.930 . S
H73 C46 0.931 . S
H74 C48 0.931 . S
H75 C49 0.931 1_556 S
H76 C54 0.930 . S
H77 C55 0.931 . S
H78 C57 0.931 . S
H79 C58 0.931 1_554 S
Gd80 C83 2.818 . S
Gd80 O100 2.377 . S
Gd80 O102 2.448 . S
Gd80 O103 2.506 1_556 S
Gd80 O104 2.435 . S
Gd80 O105 2.717 . S
Gd80 O107 2.395 1_556 S
Gd80 O111 2.327 1_556 S
Gd81 C92 2.818 . S
Gd81 O101 2.395 1_554 S
Gd81 O105 2.327 1_554 S
Gd81 O106 2.377 . S
Gd81 O108 2.448 . S
Gd81 O109 2.506 1_554 S
Gd81 O110 2.435 . S
Gd81 O111 2.717 . S
C82 O100 1.240 . S
C82 O101 1.240 . S
C83 Gd80 2.818 . S
C83 C84 1.510 . S
C83 O102 1.249 . S
C83 O103 1.252 1_556 S
C84 C83 1.510 . S
C84 C85 1.404 . S
C84 C86 1.352 . S
C85 C84 1.404 . S
C85 C89 1.389 . S
C85 H112 0.930 . S
C86 C84 1.352 . S
C86 C88 1.374 . S
C86 H113 0.931 1_556 S
C87 C88 1.359 . S
C87 C89 1.364 . S
C88 C86 1.374 . S
C88 C87 1.359 . S
C88 H114 0.931 1_556 S
C89 C85 1.389 . S
C89 C87 1.364 . S
C89 H115 0.931 . S
C90 O104 1.256 . S
C90 O105 1.257 . S
C91 O106 1.240 . S
C91 O107 1.240 . S
C92 Gd81 2.818 . S
C92 C93 1.510 . S
C92 O108 1.249 . S
C92 O109 1.252 1_554 S
C93 C92 1.510 . S
C93 C94 1.404 . S
C93 C95 1.352 . S
C94 C93 1.404 . S
C94 C98 1.389 . S
C94 H116 0.930 . S
C95 C93 1.352 . S
C95 C97 1.374 . S
C95 H117 0.931 1_554 S
C96 C97 1.359 . S
C96 C98 1.364 . S
C97 C95 1.374 . S
C97 C96 1.359 . S
C97 H118 0.931 1_554 S
C98 C94 1.389 . S
C98 C96 1.364 . S
C98 H119 0.923 1_565 S
C99 O110 1.256 . S
C99 O111 1.257 . S
O100 Gd80 2.377 . S
O100 C82 1.240 . S
O101 Gd81 2.395 1_556 S
O101 C82 1.240 . S
O102 Gd80 2.448 . S
O102 C83 1.249 . S
O103 Gd80 2.506 1_554 S
O103 C83 1.252 1_554 S
O104 Gd80 2.435 . S
O104 C90 1.256 . S
O105 Gd80 2.717 . S
O105 Gd81 2.327 1_556 S
O105 C90 1.257 . S
O106 Gd81 2.377 . S
O106 C91 1.240 . S
O107 Gd80 2.395 1_554 S
O107 C91 1.240 . S
O108 Gd81 2.448 . S
O108 C92 1.249 . S
O109 Gd81 2.506 1_556 S
O109 C92 1.252 1_556 S
O110 Gd81 2.435 . S
O110 C99 1.256 . S
O111 Gd80 2.327 1_554 S
O111 Gd81 2.717 . S
O111 C99 1.257 . S
H112 C85 0.930 . S
H113 C86 0.931 1_554 S
H114 C88 0.931 1_554 S
H115 C89 0.931 . S
H116 C94 0.930 . S
H117 C95 0.931 1_556 S
H118 C97 0.931 1_556 S
H119 C98 0.923 1_545 S
Gd120 C123 2.818 . S
Gd120 O140 2.377 1_554 S
Gd120 O142 2.448 1_554 S
Gd120 O143 2.506 . S
Gd120 O144 2.435 1_554 S
Gd120 O145 2.717 1_554 S
Gd120 O147 2.395 1_554 S
Gd120 O151 2.327 . S
Gd121 C132 2.818 . S
Gd121 O141 2.395 1_556 S
Gd121 O145 2.327 . S
Gd121 O146 2.377 1_556 S
Gd121 O148 2.448 1_556 S
Gd121 O149 2.506 . S
Gd121 O150 2.435 1_556 S
Gd121 O151 2.717 1_556 S
C122 O140 1.240 1_554 S
C122 O141 1.240 . S
C123 Gd120 2.818 . S
C123 C124 1.510 . S
C123 O142 1.249 1_554 S
C123 O143 1.252 . S
C124 C123 1.510 . S
C124 C125 1.404 . S
C124 C126 1.352 . S
C125 C124 1.404 . S
C125 C129 1.389 . S
C125 H152 0.930 1_554 S
C126 C124 1.352 . S
C126 C128 1.374 . S
C126 H153 0.931 . S
C127 C128 1.359 . S
C127 C129 1.364 . S
C128 C126 1.374 . S
C128 C127 1.359 . S
C128 H154 0.931 . S
C129 C125 1.389 . S
C129 C127 1.364 . S
C129 H155 0.931 . S
C130 O144 1.256 . S
C130 O145 1.257 . S
C131 O146 1.240 1_556 S
C131 O147 1.240 . S
C132 Gd121 2.818 . S
C132 C133 1.510 . S
C132 O148 1.249 1_556 S
C132 O149 1.252 . S
C133 C132 1.510 . S
C133 C134 1.404 . S
C133 C135 1.352 . S
C134 C133 1.404 . S
C134 C138 1.389 . S
C134 H156 0.930 1_556 S
C135 C133 1.352 . S
C135 C137 1.374 . S
C135 H157 0.931 . S
C136 C137 1.359 . S
C136 C138 1.364 . S
C137 C135 1.374 . S
C137 C136 1.359 . S
C137 H158 0.931 . S
C138 C134 1.389 . S
C138 C136 1.364 . S
C138 H159 0.931 . S
C139 O150 1.256 . S
C139 O151 1.257 . S
O140 Gd120 2.377 1_556 S
O140 C122 1.240 1_556 S
O141 Gd121 2.395 1_554 S
O141 C122 1.240 . S
O142 Gd120 2.448 1_556 S
O142 C123 1.249 1_556 S
O143 Gd120 2.506 . S
O143 C123 1.252 . S
O144 Gd120 2.435 1_556 S
O144 C130 1.256 . S
O145 Gd120 2.717 1_556 S
O145 Gd121 2.327 . S
O145 C130 1.257 . S
O146 Gd121 2.377 1_554 S
O146 C131 1.240 1_554 S
O147 Gd120 2.395 1_556 S
O147 C131 1.240 . S
O148 Gd121 2.448 1_554 S
O148 C132 1.249 1_554 S
O149 Gd121 2.506 . S
O149 C132 1.252 . S
O150 Gd121 2.435 1_554 S
O150 C139 1.256 . S
O151 Gd120 2.327 . S
O151 Gd121 2.717 1_554 S
O151 C139 1.257 . S
H152 C125 0.930 1_556 S
H153 C126 0.931 . S
H154 C128 0.931 . S
H155 C129 0.931 . S
H156 C134 0.930 1_554 S
H157 C135 0.931 . S
H158 C137 0.931 . S
H159 C138 0.931 . S
Gd160 C163 2.818 1_556 S
Gd160 O180 2.377 . S
Gd160 O182 2.448 . S
Gd160 O183 2.506 1_556 S
Gd160 O184 2.435 . S
Gd160 O185 2.717 . S
Gd160 O187 2.395 . S
Gd160 O191 2.327 1_556 S
Gd161 C172 2.818 1_554 S
Gd161 O181 2.395 . S
Gd161 O185 2.327 1_554 S
Gd161 O186 2.377 . S
Gd161 O188 2.448 . S
Gd161 O189 2.506 1_554 S
Gd161 O190 2.435 . S
Gd161 O191 2.717 . S
C162 O180 1.240 1_554 S
C162 O181 1.240 . S
C163 Gd160 2.818 1_554 S
C163 C164 1.510 . S
C163 O182 1.249 1_554 S
C163 O183 1.252 . S
C164 C163 1.510 . S
C164 C165 1.404 1_554 S
C164 C166 1.352 . S
C165 C164 1.404 1_556 S
C165 C169 1.389 1_456 S
C165 H192 0.930 . S
C166 C164 1.352 . S
C166 C168 1.374 . S
C166 H193 0.931 . S
C167 C168 1.359 1_655 S
C167 C169 1.364 . S
C168 C166 1.374 . S
C168 C167 1.359 1_455 S
C168 H194 0.931 . S
C169 C165 1.389 1_654 S
C169 C167 1.364 . S
C169 H195 0.931 1_554 S
C170 O184 1.256 . S
C170 O185 1.257 . S
C171 O186 1.240 1_556 S
C171 O187 1.240 . S
C172 Gd161 2.818 1_556 S
C172 C173 1.510 . S
C172 O188 1.249 1_556 S
C172 O189 1.252 . S
C173 C172 1.510 . S
C173 C174 1.404 1_556 S
C173 C175 1.352 . S
C174 C173 1.404 1_554 S
C174 C178 1.389 1_554 S
C174 H196 0.930 . S
C175 C173 1.352 . S
C175 C177 1.374 . S
C175 H197 0.931 . S
C176 C177 1.359 . S
C176 C178 1.364 . S
C177 C175 1.374 . S
C177 C176 1.359 . S
C177 H198 0.931 . S
C178 C174 1.389 1_556 S
C178 C176 1.364 . S
C178 H199 0.931 1_556 S
C179 O190 1.256 . S
C179 O191 1.257 . S
O180 Gd160 2.377 . S
O180 C162 1.240 1_556 S
O181 Gd161 2.395 . S
O181 C162 1.240 . S
O182 Gd160 2.448 . S
O182 C163 1.249 1_556 S
O183 Gd160 2.506 1_554 S
O183 C163 1.252 . S
O184 Gd160 2.435 . S
O184 C170 1.256 . S
O185 Gd160 2.717 . S
O185 Gd161 2.327 1_556 S
O185 C170 1.257 . S
O186 Gd161 2.377 . S
O186 C171 1.240 1_554 S
O187 Gd160 2.395 . S
O187 C171 1.240 . S
O188 Gd161 2.448 . S
O188 C172 1.249 1_554 S
O189 Gd161 2.506 1_556 S
O189 C172 1.252 . S
O190 Gd161 2.435 . S
O190 C179 1.256 . S
O191 Gd160 2.327 1_554 S
O191 Gd161 2.717 . S
O191 C179 1.257 . S
H192 C165 0.930 . S
H193 C166 0.931 . S
H194 C168 0.931 . S
H195 C169 0.931 1_556 S
H196 C174 0.930 . S
H197 C175 0.931 . S
H198 C177 0.931 . S
H199 C178 0.931 1_554 S
Gd200 C203 2.818 . S
Gd200 O220 2.377 . S
Gd200 O222 2.448 . S
Gd200 O223 2.506 1_556 S
Gd200 O224 2.435 . S
Gd200 O225 2.717 . S
Gd200 O227 2.395 1_556 S
Gd200 O231 2.327 1_556 S
Gd201 C212 2.818 . S
Gd201 O221 2.395 1_554 S
Gd201 O225 2.327 1_554 S
Gd201 O226 2.377 . S
Gd201 O228 2.448 . S
Gd201 O229 2.506 1_554 S
Gd201 O230 2.435 . S
Gd201 O231 2.717 . S
C202 O220 1.240 . S
C202 O221 1.240 . S
C203 Gd200 2.818 . S
C203 C204 1.510 . S
C203 O222 1.249 . S
C203 O223 1.252 1_556 S
C204 C203 1.510 . S
C204 C205 1.404 . S
C204 C206 1.352 . S
C205 C204 1.404 . S
C205 C209 1.389 . S
C205 H232 0.930 . S
C206 C204 1.352 . S
C206 C208 1.374 . S
C206 H233 0.931 1_556 S
C207 C208 1.359 . S
C207 C209 1.364 . S
C208 C206 1.374 . S
C208 C207 1.359 . S
C208 H234 0.931 1_556 S
C209 C205 1.389 . S
C209 C207 1.364 . S
C209 H235 0.923 1_545 S
C210 O224 1.256 . S
C210 O225 1.257 . S
C211 O226 1.240 . S
C211 O227 1.240 . S
C212 Gd201 2.818 . S
C212 C213 1.510 . S
C212 O228 1.249 . S
C212 O229 1.252 1_554 S
C213 C212 1.510 . S
C213 C214 1.404 . S
C213 C215 1.352 . S
C214 C213 1.404 . S
C214 C218 1.389 . S
C214 H236 0.930 . S
C215 C213 1.352 . S
C215 C217 1.374 . S
C215 H237 0.931 1_554 S
C216 C217 1.359 . S
C216 C218 1.364 . S
C217 C215 1.374 . S
C217 C216 1.359 . S
C217 H238 0.931 1_554 S
C218 C214 1.389 . S
C218 C216 1.364 . S
C218 H239 0.931 . S
C219 O230 1.256 . S
C219 O231 1.257 . S
O220 Gd200 2.377 . S
O220 C202 1.240 . S
O221 Gd201 2.395 1_556 S
O221 C202 1.240 . S
O222 Gd200 2.448 . S
O222 C203 1.249 . S
O223 Gd200 2.506 1_554 S
O223 C203 1.252 1_554 S
O224 Gd200 2.435 . S
O224 C210 1.256 . S
O225 Gd200 2.717 . S
O225 Gd201 2.327 1_556 S
O225 C210 1.257 . S
O226 Gd201 2.377 . S
O226 C211 1.240 . S
O227 Gd200 2.395 1_554 S
O227 C211 1.240 . S
O228 Gd201 2.448 . S
O228 C212 1.249 . S
O229 Gd201 2.506 1_556 S
O229 C212 1.252 1_556 S
O230 Gd201 2.435 . S
O230 C219 1.256 . S
O231 Gd200 2.327 1_554 S
O231 Gd201 2.717 . S
O231 C219 1.257 . S
H232 C205 0.930 . S
H233 C206 0.931 1_554 S
H234 C208 0.931 1_554 S
H235 C209 0.923 1_565 S
H236 C214 0.930 . S
H237 C215 0.931 1_556 S
H238 C217 0.931 1_556 S
H239 C218 0.931 . S
C240 C241 1.387 . S
C240 H244 0.950 . S
C240 C249 1.390 . S
C241 C240 1.387 . S
C241 C243 1.387 . S
H242 C249 0.950 . S
C243 C241 1.387 . S
C243 C245 1.390 . S
C243 H247 0.950 . S
H244 C240 0.950 . S
C245 C243 1.390 . S
C245 C246 1.387 . S
C245 H248 0.950 . S
C246 C245 1.387 . S
C246 C249 1.387 . S
H247 C243 0.950 . S
H248 C245 0.950 . S
C249 C240 1.390 . S
C249 H242 0.950 . S
C249 C246 1.387 . S
C250 C251 1.387 . S
C250 H254 0.950 . S
C250 C259 1.390 . S
C251 C250 1.387 . S
C251 C253 1.387 . S
H252 C259 0.950 . S
C253 C251 1.387 . S
C253 C255 1.390 . S
C253 H257 0.950 . S
H254 C250 0.950 . S
C255 C253 1.390 . S
C255 C256 1.387 . S
C255 H258 0.950 . S
C256 C255 1.387 . S
C256 C259 1.387 . S
H257 C253 0.950 . S
H258 C255 0.950 . S
C259 C250 1.390 . S
C259 H252 0.950 . S
C259 C256 1.387 . S
C260 C261 1.387 . S
C260 H264 0.950 . S
C260 C269 1.390 . S
C261 C260 1.387 . S
C261 C263 1.387 . S
H262 C269 0.950 . S
C263 C261 1.387 . S
C263 C265 1.390 . S
C263 H267 0.950 . S
H264 C260 0.950 . S
C265 C263 1.390 . S
C265 C266 1.387 . S
C265 H268 0.950 . S
C266 C265 1.387 . S
C266 C269 1.387 . S
H267 C263 0.950 . S
H268 C265 0.950 . S
C269 C260 1.390 . S
C269 H262 0.950 . S
C269 C266 1.387 . S
C270 C271 1.387 . S
C270 H274 0.950 . S
C270 C279 1.390 . S
C271 C270 1.387 . S
C271 C273 1.387 . S
H272 C279 0.950 . S
C273 C271 1.387 . S
C273 C275 1.390 . S
C273 H277 0.950 . S
H274 C270 0.950 . S
C275 C273 1.390 . S
C275 C276 1.387 . S
C275 H278 0.950 . S
C276 C275 1.387 . S
C276 C279 1.387 . S
H277 C273 0.950 . S
H278 C275 0.950 . S
C279 C270 1.390 . S
C279 H272 0.950 . S
C279 C276 1.387 . S
C280 C281 1.387 . S
C280 H284 0.950 . S
C280 C289 1.390 . S
C281 C280 1.387 . S
C281 C283 1.387 . S
H282 C289 0.950 . S
C283 C281 1.387 . S
C283 C285 1.390 . S
C283 H287 0.950 . S
H284 C280 0.950 . S
C285 C283 1.390 . S
C285 C286 1.387 . S
C285 H288 0.950 . S
C286 C285 1.387 . S
C286 C289 1.387 . S
H287 C283 0.950 . S
H288 C285 0.950 . S
C289 C280 1.390 . S
C289 H282 0.950 . S
C289 C286 1.387 . S
C290 C291 1.387 . S
C290 H294 0.950 . S
C290 C299 1.390 . S
C291 C290 1.387 . S
C291 C293 1.387 . S
H292 C299 0.950 . S
C293 C291 1.387 . S
C293 C295 1.390 . S
C293 H297 0.950 . S
H294 C290 0.950 . S
C295 C293 1.390 . S
C295 C296 1.387 . S
C295 H298 0.950 . S
C296 C295 1.387 . S
C296 C299 1.387 . S
H297 C293 0.950 . S
H298 C295 0.950 . S
C299 C290 1.390 . S
C299 H292 0.950 . S
C299 C296 1.387 . S
C300 C301 1.387 . S
C300 H304 0.950 . S
C300 C309 1.390 . S
C301 C300 1.387 . S
C301 C303 1.387 . S
H302 C309 0.950 . S
C303 C301 1.387 . S
C303 C305 1.390 . S
C303 H307 0.950 1_556 S
H304 C300 0.950 . S
C305 C303 1.390 . S
C305 C306 1.387 . S
C305 H308 0.950 1_556 S
C306 C305 1.387 . S
C306 C309 1.387 . S
H307 C303 0.950 1_554 S
H308 C305 0.950 1_554 S
C309 C300 1.390 . S
C309 H302 0.950 . S
C309 C306 1.387 . S
C310 C311 1.387 . S
C310 H314 0.950 . S
C310 C319 1.390 . S
C311 C310 1.387 . S
C311 C313 1.387 1_554 S
H312 C319 0.950 . S
C313 C311 1.387 1_556 S
C313 C315 1.390 1_556 S
C313 H317 0.950 . S
H314 C310 0.950 . S
C315 C313 1.390 1_554 S
C315 C316 1.387 . S
C315 H318 0.950 1_554 S
C316 C315 1.387 . S
C316 C319 1.387 . S
H317 C313 0.950 . S
H318 C315 0.950 1_556 S
C319 C310 1.390 . S
C319 H312 0.950 . S
C319 C316 1.387 . S
C320 C321 1.387 . S
C320 H324 0.950 . S
C320 C329 1.390 . S
C321 C320 1.387 . S
C321 C323 1.385 1_556 S
H322 C329 0.950 . S
C323 C321 1.385 1_554 S
C323 C325 1.391 . S
C323 H327 0.952 . S
H324 C320 0.950 . S
C325 C323 1.391 . S
C325 C326 1.387 1_554 S
C325 H328 0.950 . S
C326 C325 1.387 1_556 S
C326 C329 1.387 . S
H327 C323 0.952 . S
H328 C325 0.950 . S
C329 C320 1.390 . S
C329 H322 0.950 . S
C329 C326 1.387 . S
C330 C331 1.387 . S
C330 H334 0.950 . S
C330 C339 1.390 . S
C331 C330 1.387 . S
C331 C333 1.387 . S
H332 C339 0.950 . S
C333 C331 1.387 . S
C333 C335 1.390 . S
C333 H337 0.950 1_554 S
H334 C330 0.950 . S
C335 C333 1.390 . S
C335 C336 1.387 . S
C335 H338 0.950 1_554 S
C336 C335 1.387 . S
C336 C339 1.387 . S
H337 C333 0.950 1_556 S
H338 C335 0.950 1_556 S
C339 C330 1.390 . S
C339 H332 0.950 . S
C339 C336 1.387 . S
C340 C341 1.387 . S
C340 H344 0.950 . S
C340 C349 1.390 . S
C341 C340 1.387 . S
C341 C343 1.387 . S
H342 C349 0.950 . S
C343 C341 1.387 . S
C343 C345 1.390 . S
C343 H347 0.950 . S
H344 C340 0.950 . S
C345 C343 1.390 . S
C345 C346 1.387 . S
C345 H348 0.950 1_556 S
C346 C345 1.387 . S
C346 C349 1.387 . S
H347 C343 0.950 . S
H348 C345 0.950 1_554 S
C349 C340 1.390 . S
C349 H342 0.950 . S
C349 C346 1.387 . S
C350 C351 1.387 . S
C350 H354 0.950 . S
C350 C359 1.390 . S
C351 C350 1.387 . S
C351 C353 1.387 1_554 S
H352 C359 0.950 . S
C353 C351 1.387 1_556 S
C353 C355 1.390 1_556 S
C353 H357 0.950 . S
H354 C350 0.950 . S
C355 C353 1.390 1_554 S
C355 C356 1.387 . S
C355 H358 0.950 1_554 S
C356 C355 1.387 . S
C356 C359 1.387 . S
H357 C353 0.950 . S
H358 C355 0.950 1_556 S
C359 C350 1.390 . S
C359 H352 0.950 . S
C359 C356 1.387 . S
C360 C361 1.387 . S
C360 H364 0.950 . S
C360 C369 1.390 . S
C361 C360 1.387 . S
C361 C363 1.387 . S
H362 C369 0.950 . S
C363 C361 1.387 . S
C363 C365 1.390 . S
C363 H367 0.950 . S
H364 C360 0.950 . S
C365 C363 1.390 . S
C365 C366 1.387 . S
C365 H368 0.950 . S
C366 C365 1.387 . S
C366 C369 1.387 . S
H367 C363 0.950 . S
H368 C365 0.950 . S
C369 C360 1.390 . S
C369 H362 0.950 . S
C369 C366 1.387 . S
C370 C371 1.387 . S
C370 H374 0.950 . S
C370 C379 1.390 . S
C371 C370 1.387 . S
C371 C373 1.387 . S
H372 C379 0.950 . S
C373 C371 1.387 . S
C373 C375 1.390 . S
C373 H377 0.950 . S
H374 C370 0.950 . S
C375 C373 1.390 . S
C375 C376 1.387 . S
C375 H378 0.950 . S
C376 C375 1.387 . S
C376 C379 1.387 . S
H377 C373 0.950 . S
H378 C375 0.950 . S
C379 C370 1.390 . S
C379 H372 0.950 . S
C379 C376 1.387 . S
C380 C381 1.387 . S
C380 H384 0.950 . S
C380 C389 1.390 . S
C381 C380 1.387 . S
C381 C383 1.387 . S
H382 C389 0.950 . S
C383 C381 1.387 . S
C383 C385 1.390 . S
C383 H387 0.950 . S
H384 C380 0.950 . S
C385 C383 1.390 . S
C385 C386 1.387 . S
C385 H388 0.950 . S
C386 C385 1.387 . S
C386 C389 1.387 . S
H387 C383 0.950 . S
H388 C385 0.950 . S
C389 C380 1.390 . S
C389 H382 0.950 . S
C389 C386 1.387 . S
C390 C391 1.387 . S
C390 H394 0.950 . S
C390 C399 1.390 . S
C391 C390 1.387 . S
C391 C393 1.387 . S
H392 C399 0.950 . S
C393 C391 1.387 . S
C393 C395 1.390 . S
C393 H397 0.950 . S
H394 C390 0.950 . S
C395 C393 1.390 . S
C395 C396 1.387 . S
C395 H398 0.950 . S
C396 C395 1.387 . S
C396 C399 1.387 . S
H397 C393 0.950 . S
H398 C395 0.950 . S
C399 C390 1.390 . S
C399 H392 0.950 . S
C399 C396 1.387 . S
C400 C401 1.387 . S
C400 H404 0.950 . S
C400 C409 1.390 . S
C401 C400 1.387 . S
C401 C403 1.387 . S
H402 C409 0.950 . S
C403 C401 1.387 . S
C403 C405 1.390 . S
C403 H407 0.950 . S
H404 C400 0.950 . S
C405 C403 1.390 . S
C405 C406 1.387 . S
C405 H408 0.950 . S
C406 C405 1.387 . S
C406 C409 1.387 . S
H407 C403 0.950 . S
H408 C405 0.950 . S
C409 C400 1.390 . S
C409 H402 0.950 . S
C409 C406 1.387 . S
C410 C411 1.387 . S
C410 H414 0.950 . S
C410 C419 1.390 . S
C411 C410 1.387 . S
C411 C413 1.387 . S
H412 C419 0.950 . S
C413 C411 1.387 . S
C413 C415 1.390 . S
C413 H417 0.950 . S
H414 C410 0.950 . S
C415 C413 1.390 . S
C415 C416 1.387 . S
C415 H418 0.950 . S
C416 C415 1.387 . S
C416 C419 1.387 . S
H417 C413 0.950 . S
H418 C415 0.950 . S
C419 C410 1.390 . S
C419 H412 0.950 . S
C419 C416 1.387 . S
C241 C202 3.224 . S
C246 C7 2.966 . S
C251 C2 3.495 . S
C256 C56 3.127 . S
C261 C51 3.324 . S
C266 C96 3.020 1_545 S
C271 C136 2.967 . S
C276 C91 3.223 . S
C281 C167 3.130 . S
C286 C131 3.493 . S
C291 C162 3.325 . S
C296 C207 3.020 1_565 S
C301 C171 2.157 . S
C306 C16 2.115 . S
C311 C211 2.017 . S
C316 C47 1.989 . S
C321 C87 1.995 . S
C326 C11 2.043 . S
C331 C127 2.115 . S
C336 C42 2.157 . S
C341 C176 1.991 . S
C346 C82 2.017 . S
C351 C122 2.043 . S
C356 C216 1.994 . S
C361 C10 0.889 . S
C366 C19 0.889 . S
C371 C50 0.847 . S
C376 C59 0.847 . S
C381 C90 0.823 . S
C386 C99 0.823 . S
C391 C130 0.894 . S
C396 C139 0.894 . S
C401 C179 0.847 . S
C406 C170 0.847 . S
C411 C210 0.825 . S
C416 C219 0.825 . S
