# Generated by pormake.
# Topology wmi, (6)-cn, num edge types: 1
# Building blocks:
#     Node 0, Type 0, BuildingBlock: KUMBUR_clean_sbu_1, # of connection points: 6
#     Node 1, Type 0, BuildingBlock: KUMBUR_clean_sbu_1, # of connection points: 6
#     Node 2, Type 0, BuildingBlock: KUMBUR_clean_sbu_1, # of connection points: 6
#     Node 3, Type 0, BuildingBlock: KUMBUR_clean_sbu_1, # of connection points: 6
#     Node 4, Type 0, BuildingBlock: KUMBUR_clean_sbu_1, # of connection points: 6
#     Node 5, Type 0, BuildingBlock: KUMBUR_clean_sbu_1, # of connection points: 6
#     Node 6, Type 0, BuildingBlock: KUMBUR_clean_sbu_1, # of connection points: 6
#     Node 7, Type 0, BuildingBlock: KUMBUR_clean_sbu_1, # of connection points: 6
#     Node 8, Type 0, BuildingBlock: KUMBUR_clean_sbu_1, # of connection points: 6
#     Node 9, Type 0, BuildingBlock: KUMBUR_clean_sbu_1, # of connection points: 6
#     Node 10, Type 0, BuildingBlock: KUMBUR_clean_sbu_1, # of connection points: 6
#     Node 11, Type 0, BuildingBlock: KUMBUR_clean_sbu_1, # of connection points: 6
#     Node 12, Type 0, BuildingBlock: KUMBUR_clean_sbu_1, # of connection points: 6
#     Node 13, Type 0, BuildingBlock: KUMBUR_clean_sbu_1, # of connection points: 6
#     Node 14, Type 0, BuildingBlock: KUMBUR_clean_sbu_1, # of connection points: 6
#     Node 15, Type 0, BuildingBlock: KUMBUR_clean_sbu_1, # of connection points: 6
#     Node 16, Type 0, BuildingBlock: KUMBUR_clean_sbu_1, # of connection points: 6
#     Node 17, Type 0, BuildingBlock: KUMBUR_clean_sbu_1, # of connection points: 6
#     Edge 18, Type (0, 0), BuildingBlock: CIFDUS_clean_linker_0, # of connection points: 2
#     Edge 19, Type (0, 0), BuildingBlock: CIFDUS_clean_linker_0, # of connection points: 2
#     Edge 20, Type (0, 0), BuildingBlock: CIFDUS_clean_linker_0, # of connection points: 2
#     Edge 21, Type (0, 0), BuildingBlock: CIFDUS_clean_linker_0, # of connection points: 2
#     Edge 22, Type (0, 0), BuildingBlock: CIFDUS_clean_linker_0, # of connection points: 2
#     Edge 23, Type (0, 0), BuildingBlock: CIFDUS_clean_linker_0, # of connection points: 2
#     Edge 24, Type (0, 0), BuildingBlock: CIFDUS_clean_linker_0, # of connection points: 2
#     Edge 25, Type (0, 0), BuildingBlock: CIFDUS_clean_linker_0, # of connection points: 2
#     Edge 26, Type (0, 0), BuildingBlock: CIFDUS_clean_linker_0, # of connection points: 2
#     Edge 27, Type (0, 0), BuildingBlock: CIFDUS_clean_linker_0, # of connection points: 2
#     Edge 28, Type (0, 0), BuildingBlock: CIFDUS_clean_linker_0, # of connection points: 2
#     Edge 29, Type (0, 0), BuildingBlock: CIFDUS_clean_linker_0, # of connection points: 2
#     Edge 30, Type (0, 0), BuildingBlock: CIFDUS_clean_linker_0, # of connection points: 2
#     Edge 31, Type (0, 0), BuildingBlock: CIFDUS_clean_linker_0, # of connection points: 2
#     Edge 32, Type (0, 0), BuildingBlock: CIFDUS_clean_linker_0, # of connection points: 2
#     Edge 33, Type (0, 0), BuildingBlock: CIFDUS_clean_linker_0, # of connection points: 2
#     Edge 34, Type (0, 0), BuildingBlock: CIFDUS_clean_linker_0, # of connection points: 2
#     Edge 35, Type (0, 0), BuildingBlock: CIFDUS_clean_linker_0, # of connection points: 2
#     Edge 36, Type (0, 0), BuildingBlock: CIFDUS_clean_linker_0, # of connection points: 2
#     Edge 37, Type (0, 0), BuildingBlock: CIFDUS_clean_linker_0, # of connection points: 2
#     Edge 38, Type (0, 0), BuildingBlock: CIFDUS_clean_linker_0, # of connection points: 2
#     Edge 39, Type (0, 0), BuildingBlock: CIFDUS_clean_linker_0, # of connection points: 2
#     Edge 40, Type (0, 0), BuildingBlock: CIFDUS_clean_linker_0, # of connection points: 2
#     Edge 41, Type (0, 0), BuildingBlock: CIFDUS_clean_linker_0, # of connection points: 2
#     Edge 42, Type (0, 0), BuildingBlock: CIFDUS_clean_linker_0, # of connection points: 2
#     Edge 43, Type (0, 0), BuildingBlock: CIFDUS_clean_linker_0, # of connection points: 2
#     Edge 44, Type (0, 0), BuildingBlock: CIFDUS_clean_linker_0, # of connection points: 2
#     Edge 45, Type (0, 0), BuildingBlock: CIFDUS_clean_linker_0, # of connection points: 2
#     Edge 46, Type (0, 0), BuildingBlock: CIFDUS_clean_linker_0, # of connection points: 2
#     Edge 47, Type (0, 0), BuildingBlock: CIFDUS_clean_linker_0, # of connection points: 2
#     Edge 48, Type (0, 0), BuildingBlock: CIFDUS_clean_linker_0, # of connection points: 2
#     Edge 49, Type (0, 0), BuildingBlock: CIFDUS_clean_linker_0, # of connection points: 2
#     Edge 50, Type (0, 0), BuildingBlock: CIFDUS_clean_linker_0, # of connection points: 2
#     Edge 51, Type (0, 0), BuildingBlock: CIFDUS_clean_linker_0, # of connection points: 2
#     Edge 52, Type (0, 0), BuildingBlock: CIFDUS_clean_linker_0, # of connection points: 2
#     Edge 53, Type (0, 0), BuildingBlock: CIFDUS_clean_linker_0, # of connection points: 2
#     Edge 54, Type (0, 0), BuildingBlock: CIFDUS_clean_linker_0, # of connection points: 2
#     Edge 55, Type (0, 0), BuildingBlock: CIFDUS_clean_linker_0, # of connection points: 2
#     Edge 56, Type (0, 0), BuildingBlock: CIFDUS_clean_linker_0, # of connection points: 2
#     Edge 57, Type (0, 0), BuildingBlock: CIFDUS_clean_linker_0, # of connection points: 2
#     Edge 58, Type (0, 0), BuildingBlock: CIFDUS_clean_linker_0, # of connection points: 2
#     Edge 59, Type (0, 0), BuildingBlock: CIFDUS_clean_linker_0, # of connection points: 2
#     Edge 60, Type (0, 0), BuildingBlock: CIFDUS_clean_linker_0, # of connection points: 2
#     Edge 61, Type (0, 0), BuildingBlock: CIFDUS_clean_linker_0, # of connection points: 2
#     Edge 62, Type (0, 0), BuildingBlock: CIFDUS_clean_linker_0, # of connection points: 2
#     Edge 63, Type (0, 0), BuildingBlock: CIFDUS_clean_linker_0, # of connection points: 2
#     Edge 64, Type (0, 0), BuildingBlock: CIFDUS_clean_linker_0, # of connection points: 2
#     Edge 65, Type (0, 0), BuildingBlock: CIFDUS_clean_linker_0, # of connection points: 2
#     Edge 66, Type (0, 0), BuildingBlock: CIFDUS_clean_linker_0, # of connection points: 2
#     Edge 67, Type (0, 0), BuildingBlock: CIFDUS_clean_linker_0, # of connection points: 2
#     Edge 68, Type (0, 0), BuildingBlock: CIFDUS_clean_linker_0, # of connection points: 2
#     Edge 69, Type (0, 0), BuildingBlock: CIFDUS_clean_linker_0, # of connection points: 2
#     Edge 70, Type (0, 0), BuildingBlock: CIFDUS_clean_linker_0, # of connection points: 2
#     Edge 71, Type (0, 0), BuildingBlock: CIFDUS_clean_linker_0, # of connection points: 2
# Relax obj value: 0.065
# Max RMSD: 0.183
# Mean RMSD: 0.183
data_MOF--net-wmi--node1-KUMBUR_clean_sbu_1--edge1-CIFDUS_clean_linker_0
_symmetry_space_group_name_H-M    P1
_symmetry_Int_Tables_number       1
_symmetry_cell_setting            triclinic
loop_
_symmetry_equiv_pos_as_xyz
'x, y, z'
_cell_length_a     35.448419
_cell_length_b     35.418485
_cell_length_c     70.994653
_cell_angle_alpha  89.996247
_cell_angle_beta   89.961487
_cell_angle_gamma 119.98839
loop_
_atom_site_label
_atom_site_type_symbol
_atom_site_fract_x
_atom_site_fract_y
_atom_site_fract_z
_atom_type_partial_charge
Tb0 Tb 0.41197 0.98983 0.07831 0.0
C1 C 0.56989 1.0103 0.12565 0.0
N2 N 0.54641 0.03064 0.12842 0.0
C3 C 0.54615 0.01924 0.16174 0.0
C4 C 0.58185 0.99294 0.14088 0.0
C5 C 0.53528 0.03618 0.1462 0.0
C6 C 0.56931 0.99729 0.15908 0.0
C7 C 0.6073 0.98712 0.10398 0.0
C8 C 0.58255 1.00755 0.10745 0.0
C9 C 0.61895 0.96939 0.11908 0.0
C10 C 0.60624 0.97227 0.13748 0.0
Tb11 Tb 0.53145 0.05752 0.10199 0.0
N12 N 0.56961 0.024 0.09312 0.0
C13 C 0.6192 0.98476 0.08542 0.0
C14 C 0.58282 0.02347 0.0751 0.0
C15 C 0.60715 1.00329 0.07094 0.0
H16 H 0.51888 0.0545 0.14856 0.0
H17 H 0.61695 1.0024 0.05659 0.0
H18 H 0.41255 0.95065 0.03608 0.0
H19 H 0.34511 0.08866 0.10456 0.0
H20 H 0.5754 0.03897 0.06384 0.0
H21 H 0.63798 0.96911 0.08214 0.0
H22 H 0.39137 0.05523 0.10629 0.0
H23 H 0.53705 0.02352 0.1758 0.0
H24 H 0.63773 0.95333 0.11667 0.0
H25 H 0.61562 0.95859 0.14899 0.0
H26 H 0.38023 0.94774 0.00491 0.0
H27 H 0.57787 0.98442 0.17116 0.0
H28 H 0.30733 0.08555 0.07485 0.0
N29 N 0.388 0.98859 0.04859 0.0
C30 C 0.36347 1.00797 0.04642 0.0
C31 C 0.37554 0.96502 0.01643 0.0
C32 C 0.34329 1.00591 0.02906 0.0
C33 C 0.39455 0.96748 0.03394 0.0
C34 C 0.34934 0.98378 0.01405 0.0
N35 N 0.37675 0.02937 0.07854 0.0
C36 C 0.37268 0.05089 0.09372 0.0
C37 C 0.33151 0.04843 0.06007 0.0
C38 C 0.35721 0.02847 0.06188 0.0
C39 C 0.32664 0.06966 0.07571 0.0
C40 C 0.34762 0.07121 0.09255 0.0
H41 H 0.33362 0.98063 1.0006 0.0
H42 H 0.30126 0.02386 0.01414 0.0
H43 H 0.29158 0.06167 0.04114 0.0
O44 O 0.37223 0.93754 0.0966 0.0
O45 O 0.44477 0.06232 0.07706 0.0
O46 O 0.49136 0.08785 0.10244 0.0
O47 O 0.35415 0.93679 0.06787 0.0
O48 O 0.42063 0.98462 0.10831 0.0
O49 O 0.47581 0.04755 0.12099 0.0
O50 O 0.58898 0.11016 0.09028 0.0
O51 O 0.49635 0.98502 0.10238 0.0
O52 O 0.45647 0.96447 0.07496 0.0
O53 O 0.57529 0.10879 0.11958 0.0
O54 O 0.52494 0.06562 0.07085 0.0
O55 O 0.46644 1.00028 0.06069 0.0
C56 C 0.47247 0.09457 0.08803 0.0
C57 C 0.34068 0.87006 0.08028 0.0
C58 C 0.29772 0.79046 0.08227 0.0
C59 C 0.33094 0.78792 0.07253 0.0
C60 C 0.37231 0.86612 0.06992 0.0
C61 C 0.36791 0.82549 0.06643 0.0
C62 C 0.30316 0.83191 0.08655 0.0
C63 C 0.4349 0.01419 0.12143 0.0
C64 C 0.34616 0.91394 0.0831 0.0
C65 C 0.31722 0.02526 0.02734 0.0
C66 C 0.31157 0.04667 0.04275 0.0
C67 C 0.47883 0.95795 0.08811 0.0
C68 C 0.6506 0.1429 0.11104 0.0
C69 C 0.73032 0.19439 0.10842 0.0
C70 C 0.73666 0.16912 0.12206 0.0
C71 C 0.65931 0.11918 0.12446 0.0
C72 C 0.6865 0.18083 0.10299 0.0
C73 C 0.70174 0.13195 0.12976 0.0
C74 C 0.50154 0.03798 0.05721 0.0
C75 C 0.6041 0.12897 0.10644 0.0
H76 H 0.32792 0.75659 0.06935 0.0
H77 H 0.39995 0.8944 0.06401 0.0
H78 H 0.39279 0.82307 0.05856 0.0
H79 H 0.27778 0.83437 0.09401 0.0
H80 H 0.76878 0.17856 0.12737 0.0
H81 H 0.63325 0.09122 0.13136 0.0
H82 H 0.68023 0.19955 0.09269 0.0
H83 H 0.70758 0.11337 0.1403 0.0
Tb84 Tb 0.0773 0.44584 0.08623 0.0
C85 C 0.06027 0.59631 0.11749 0.0
N86 N 0.04275 0.55462 0.12387 0.0
C87 C 0.06338 0.58075 0.15547 0.0
C88 C 0.08178 0.632 0.12988 0.0
C89 C 0.04258 0.5464 0.14265 0.0
C90 C 0.08341 0.62374 0.14905 0.0
C91 C 0.07717 0.64605 0.09119 0.0
C92 C 0.05771 0.60316 0.09834 0.0
C93 C 0.09898 0.68164 0.10347 0.0
C94 C 0.1011 0.67464 0.12276 0.0
Tb95 Tb 1.00668 0.50164 0.10192 0.0
N96 N 0.03656 0.56787 0.08675 0.0
C97 C 0.07412 0.65197 0.07191 0.0
C98 C 0.03111 0.57384 0.06812 0.0
C99 C 0.05061 0.61573 0.06038 0.0
H100 H 0.02565 0.51354 0.14794 0.0
H101 H 0.04668 0.62006 0.04556 0.0
H102 H 0.11395 0.4713 0.04268 0.0
H103 H 0.02066 0.29443 0.12407 0.0
H104 H 1.01052 0.54698 0.05912 0.0
H105 H 0.0889 0.68436 0.06586 0.0
H106 H 0.04888 0.37327 0.12084 0.0
H107 H 0.06353 0.57404 0.17034 0.0
H108 H 0.11426 0.71475 0.09819 0.0
H109 H 0.11797 0.70245 0.13205 0.0
H110 H 0.10925 0.43262 0.01322 0.0
H111 H 0.09955 0.65026 0.15902 0.0
H112 H 1.00187 0.24832 0.09555 0.0
N113 N 0.07215 0.41349 0.05793 0.0
C114 C 0.05149 0.36926 0.05809 0.0
C115 C 0.09166 0.41434 0.02556 0.0
C116 C 0.04821 0.34567 0.04161 0.0
C117 C 0.09375 0.43625 0.04219 0.0
C118 C 0.06789 0.36881 0.02515 0.0
N119 N 0.04655 0.37244 0.09106 0.0
C120 C 0.04189 0.35389 0.10842 0.0
C121 C 0.02184 0.30257 0.07635 0.0
C122 C 0.03864 0.34801 0.07526 0.0
C123 C 1.01457 0.28307 0.09413 0.0
C124 C 0.02539 0.309 0.11025 0.0
H125 H 0.06684 0.35165 0.0124 0.0
H126 H 0.02499 0.28135 0.02978 0.0
H127 H 1.00168 0.24352 0.06025 0.0
O128 O 0.13432 0.47408 0.10283 0.0
O129 O 1.00848 0.4023 0.09558 0.0
O130 O 0.96942 0.43716 0.08873 0.0
O131 O 0.12975 0.43678 0.07855 0.0
O132 O 0.08017 0.46764 0.11497 0.0
O133 O 1.01468 0.46032 0.12416 0.0
O134 O 0.96552 0.52811 0.09819 0.0
O135 O 0.07839 0.53481 0.10446 0.0
O136 O 0.09926 0.51304 0.07822 0.0
O137 O 0.95264 0.48211 0.12021 0.0
O138 O 0.99937 0.48085 0.0716 0.0
O139 O 0.06258 0.47922 0.06379 0.0
C140 C 0.97126 0.40145 0.09194 0.0
C141 C 0.19787 0.49819 0.08461 0.0
C142 C 0.27749 0.53504 0.08326 0.0
C143 C 0.2772 0.56616 0.07101 0.0
C144 C 0.19875 0.52873 0.07176 0.0
C145 C 0.23813 0.56287 0.06528 0.0
C146 C 0.23744 0.50138 0.09038 0.0
C147 C 0.04896 0.45505 0.12735 0.0
C148 C 0.15552 0.46269 0.09142 0.0
C149 C 0.02833 0.30004 0.04238 0.0
C150 C 1.01514 0.27851 0.05974 0.0
C151 C 0.10499 0.54376 0.09013 0.0
C152 C 0.89255 0.48998 0.10887 0.0
C153 C 0.83157 0.5037 0.10354 0.0
C154 C 0.8033 0.45852 0.10238 0.0
C155 C 0.86297 0.44506 0.10831 0.0
C156 C 0.87644 0.51936 0.10683 0.0
C157 C 0.81879 0.42958 0.10498 0.0
C158 C 0.02723 0.4805 0.05903 0.0
C159 C 0.93989 0.50684 0.11203 0.0
H160 H 0.30736 0.59307 0.06571 0.0
H161 H 0.169 0.526 0.0665 0.0
H162 H 0.23835 0.58659 0.0556 0.0
H163 H 0.23695 0.47722 0.0999 0.0
H164 H 0.76874 0.44548 0.10014 0.0
H165 H 0.87389 0.42193 0.1107 0.0
H166 H 0.89865 0.55416 0.10784 0.0
H167 H 0.79614 0.3949 0.10474 0.0
Tb168 Tb 0.62461 0.65568 0.08359 0.0
C169 C 0.47537 0.49237 0.12096 0.0
N170 N 0.51813 0.51343 0.12599 0.0
C171 C 0.49808 0.50959 0.15851 0.0
C172 C 0.4422 0.47934 0.13457 0.0
C173 C 0.52987 0.52176 0.1445 0.0
C174 C 0.45406 0.48843 0.15353 0.0
C175 C 0.42113 0.46112 0.09622 0.0
C176 C 0.46503 0.48351 0.102 0.0
C177 C 0.38792 0.44843 0.10971 0.0
C178 C 0.39842 0.45753 0.12883 0.0
Tb179 Tb 0.567 0.53118 0.10191 0.0
N180 N 0.49817 0.49678 0.08932 0.0
C181 C 0.41196 0.45199 0.07706 0.0
C182 C 0.48915 0.48541 0.0708 0.0
C183 C 0.4461 0.46376 0.06435 0.0
H184 H 0.56367 0.53706 0.1486 0.0
H185 H 0.43926 0.45552 0.04959 0.0
H186 H 0.61808 0.66093 0.03727 0.0
H187 H 0.76183 0.73735 0.13074 0.0
H188 H 0.5146 0.49172 0.06092 0.0
H189 H 0.37866 0.43505 0.07202 0.0
H190 H 0.68453 0.70207 0.12169 0.0
H191 H 0.50753 0.51625 0.17316 0.0
H192 H 0.354 0.43145 0.1055 0.0
H193 H 0.37244 0.44739 0.13907 0.0
H194 H 0.66826 0.68518 0.01041 0.0
H195 H 0.42954 0.47891 0.16444 0.0
H196 H 0.8178 0.75472 0.10614 0.0
N197 N 0.66796 0.67838 0.05763 0.0
C198 C 0.71146 0.6982 0.06094 0.0
C199 C 0.68101 0.68799 0.02446 0.0
C200 C 0.74158 0.71223 0.04601 0.0
C201 C 0.65241 0.67389 0.03972 0.0
C202 C 0.72577 0.7063 0.02758 0.0
N203 N 0.69544 0.6923 0.09337 0.0
C204 C 0.70803 0.70582 0.11137 0.0
C205 C 0.77063 0.72775 0.08354 0.0
C206 C 0.72576 0.70565 0.07943 0.0
C207 C 0.78362 0.73759 0.10236 0.0
C208 C 0.75214 0.72749 0.1163 0.0
H209 H 0.74807 0.71683 0.01579 0.0
H210 H 0.81005 0.74343 0.03868 0.0
H211 H 0.83552 0.75717 0.07158 0.0
O212 O 0.61264 0.70033 0.09852 0.0
O213 O 0.66235 0.62066 0.08211 0.0
O214 O 0.63733 0.56986 0.10611 0.0
O215 O 0.62976 0.71012 0.06933 0.0
O216 O 0.60316 0.63911 0.11281 0.0
O217 O 0.6105 0.58126 0.12279 0.0
O218 O 0.56886 0.47791 0.08935 0.0
O219 O 0.53231 0.56856 0.10395 0.0
O220 O 0.55505 0.61354 0.07822 0.0
O221 O 0.56401 0.48113 0.11917 0.0
O222 O 0.58692 0.54482 0.07141 0.0
O223 O 0.58325 0.60637 0.06322 0.0
C224 C 0.66659 0.59335 0.09341 0.0
C225 C 0.57704 0.72748 0.07926 0.0
C226 C 0.53828 0.76845 0.08083 0.0
C227 C 0.50398 0.73513 0.07045 0.0
C228 C 0.54304 0.69587 0.0682 0.0
C229 C 0.50645 0.69924 0.06418 0.0
C230 C 0.57454 0.76395 0.08565 0.0
C231 C 0.61452 0.62017 0.12567 0.0
C232 C 0.6152 0.72243 0.08343 0.0
C233 C 0.78636 0.73266 0.04999 0.0
C234 C 0.80087 0.74044 0.06872 0.0
C235 C 0.52462 0.58894 0.09036 0.0
C236 C 0.52848 0.41027 0.10541 0.0
C237 C 0.50309 0.33241 0.10017 0.0
C238 C 0.46072 0.32274 0.10497 0.0
C239 C 0.48605 0.39871 0.11089 0.0
C240 C 0.53715 0.3766 0.10032 0.0
C241 C 0.45242 0.3556 0.11038 0.0
C242 C 0.58413 0.57082 0.0586 0.0
C243 C 0.5632 0.45714 0.10515 0.0
H244 H 0.47536 0.73723 0.0669 0.0
H245 H 0.54499 0.66882 0.06232 0.0
H246 H 0.48026 0.67434 0.05585 0.0
H247 H 0.60115 0.7892 0.0937 0.0
H248 H 0.43409 0.28934 0.10523 0.0
H249 H 0.47876 0.42277 0.11591 0.0
H250 H 0.56996 0.38465 0.09655 0.0
H251 H 0.41985 0.34755 0.11455 0.0
Tb252 Tb 1.00402 0.41289 0.92126 0.0
C253 C 1.01493 0.57978 0.88683 0.0
N254 N 0.03329 0.55606 0.88093 0.0
C255 C 1.01232 0.55914 0.84909 0.0
C256 C 0.99416 0.59385 0.874 0.0
C257 C 0.0329 0.54619 0.8623 0.0
C258 C 0.99281 0.58301 0.85496 0.0
C259 C 0.99861 0.61468 0.91244 0.0
C260 C 1.01632 0.58918 0.90592 0.0
C261 C 0.97794 0.62884 0.8997 0.0
C262 C 0.97552 0.61826 0.88056 0.0
Tb263 Tb 0.06781 0.53926 0.90377 0.0
N264 N 0.0353 0.57366 0.91802 0.0
C265 C 1.00257 0.62559 0.93155 0.0
C266 C 0.04143 0.58652 0.93646 0.0
C267 C 0.02445 0.61181 0.94355 0.0
H268 H 0.04915 0.52918 0.85741 0.0
H269 H 0.02908 0.62142 0.95822 0.0
H270 H 1.01353 0.41684 0.96762 0.0
H271 H 0.02596 0.31201 0.87068 0.0
H272 H 0.061 0.57937 0.94572 0.0
H273 H 0.9896 0.6453 0.93709 0.0
H274 H 0.99546 0.35668 0.88283 0.0
H275 H 1.01194 0.55112 0.83435 0.0
H276 H 0.96385 0.64813 0.90451 0.0
H277 H 0.95946 0.62942 0.87091 0.0
H278 H 0.0521 0.39905 0.99128 0.0
H279 H 0.97713 0.59319 0.84466 0.0
H280 H 0.07421 0.29761 0.89086 0.0
N281 N 0.03501 0.39408 0.94469 0.0
C282 C 0.05492 0.37154 0.9393 0.0
C283 C 0.05422 0.39183 0.97672 0.0
C284 C 0.07692 0.35967 0.95239 0.0
C285 C 0.03281 0.40273 0.9632 0.0
C286 C 0.07726 0.37104 0.97129 0.0
N287 N 0.0303 0.3716 0.90853 0.0
C288 C 1.01864 0.35283 0.8912 0.0
C289 C 0.06972 0.33367 0.91455 0.0
C290 C 0.05219 0.3596 0.92058 0.0
C291 C 0.06175 0.31805 0.89604 0.0
C292 C 0.03492 0.32655 0.88451 0.0
H293 H 0.09411 0.36278 0.98177 0.0
H294 H 0.11426 0.32693 0.95609 0.0
H295 H 0.10736 0.30353 0.92296 0.0
O296 O 0.94532 0.36486 0.90887 0.0
O297 O 0.07724 0.44856 0.92175 0.0
O298 O 0.10214 0.50385 0.89948 0.0
O299 O 0.95804 0.36169 0.93817 0.0
O300 O 1.00004 0.4289 0.89196 0.0
O301 O 0.06274 0.4907 0.88207 0.0
O302 O 0.12238 0.5948 0.91567 0.0
O303 O 0.99658 0.50123 0.90075 0.0
O304 O 0.97414 0.45329 0.92557 0.0
O305 O 0.11009 0.59118 0.88608 0.0
O306 O 0.0739 0.52365 0.93401 0.0
O307 O 1.00892 0.46139 0.94146 0.0
C308 C 0.10885 0.47994 0.91161 0.0
C309 C 0.88526 0.3385 0.92962 0.0
C310 C 0.80537 0.29431 0.92805 0.0
C311 C 0.80291 0.32607 0.93912 0.0
C312 C 0.8814 0.36939 0.94057 0.0
C313 C 0.84054 0.36326 0.94517 0.0
C314 C 0.84715 0.30104 0.92329 0.0
C315 C 0.03052 0.44986 0.87933 0.0
C316 C 0.92901 0.34553 0.92486 0.0
C317 C 0.09688 0.33612 0.94626 0.0
C318 C 0.09306 0.32291 0.92738 0.0
C319 C 0.96641 0.47448 0.91244 0.0
C320 C 0.1817 0.64476 0.8959 0.0
C321 C 0.24766 0.71752 0.8976 0.0
C322 C 0.26933 0.70189 0.88624 0.0
C323 C 0.20449 0.63042 0.88458 0.0
C324 C 0.20356 0.6886 0.90246 0.0
C325 C 0.24796 0.65882 0.87982 0.0
C326 C 0.04441 0.49725 0.94649 0.0
C327 C 0.13447 0.61557 0.89973 0.0
H328 H 0.77183 0.32184 0.94358 0.0
H329 H 0.91 0.39817 0.94576 0.0
H330 H 0.83798 0.38722 0.9537 0.0
H331 H 0.85015 0.27744 0.91468 0.0
H332 H 0.30319 0.72308 0.88247 0.0
H333 H 0.18853 0.59732 0.87927 0.0
H334 H 0.18638 0.7001 0.91125 0.0
H335 H 0.26524 0.64738 0.87109 0.0
Tb336 Tb 0.65747 0.60718 0.91765 0.0
C337 C 0.48011 0.46783 0.88765 0.0
N338 N 0.50724 0.50925 0.88161 0.0
C339 C 0.50019 0.48367 0.84979 0.0
C340 C 0.46289 0.43245 0.87498 0.0
C341 C 0.51669 0.51771 0.86289 0.0
C342 C 0.47331 0.44084 0.85585 0.0
C343 C 0.44536 0.4181 0.91372 0.0
C344 C 0.47154 0.46087 0.90679 0.0
C345 C 0.42802 0.38272 0.90115 0.0
C346 C 0.4366 0.3899 0.88182 0.0
Tb347 Tb 0.53029 0.56238 0.9041 0.0
N348 N 0.48961 0.49586 0.91861 0.0
C349 C 0.43742 0.41211 0.93307 0.0
C350 C 0.47949 0.49016 0.93738 0.0
C351 C 0.45417 0.44834 0.94491 0.0
H352 H 0.53607 0.55067 0.85785 0.0
H353 H 0.44693 0.44415 0.95983 0.0
H354 H 0.66555 0.59811 0.96399 0.0
H355 H 0.76409 0.74086 0.87297 0.0
H356 H 0.48931 0.51746 0.94666 0.0
H357 H 0.4177 0.37978 0.93896 0.0
H358 H 0.71465 0.66314 0.88132 0.0
H359 H 0.50796 0.49055 0.83499 0.0
H360 H 0.40809 0.34966 0.90625 0.0
H361 H 0.42327 0.36227 0.87232 0.0
H362 H 0.69162 0.64686 0.99135 0.0
H363 H 0.46075 0.41454 0.84567 0.0
H364 H 0.78494 0.79797 0.89735 0.0
N365 N 0.68262 0.64917 0.94419 0.0
C366 C 0.70669 0.69286 0.9413 0.0
C367 C 0.69475 0.66044 0.97742 0.0
C368 C 0.72322 0.72235 0.95644 0.0
C369 C 0.6791 0.63265 0.96188 0.0
C370 C 0.71557 0.70557 0.97472 0.0
N371 N 0.7048 0.67731 0.90923 0.0
C372 C 0.7224 0.6883 0.89165 0.0
C373 C 0.74753 0.7519 0.91935 0.0
C374 C 0.71891 0.70749 0.92314 0.0
C375 C 0.7627 0.76417 0.90088 0.0
C376 C 0.75088 0.73203 0.88706 0.0
H377 H 0.72793 0.72734 0.98665 0.0
H378 H 0.76174 0.7905 0.96427 0.0
H379 H 0.78296 0.81646 0.93166 0.0
O380 O 0.69016 0.58319 0.90104 0.0
O381 O 0.6385 0.65564 0.90849 0.0
O382 O 0.56801 0.62461 0.91868 0.0
O383 O 0.71208 0.60631 0.92893 0.0
O384 O 0.63501 0.58982 0.8886 0.0
O385 O 0.57877 0.60315 0.88175 0.0
O386 O 0.46909 0.55254 0.91265 0.0
O387 O 0.56317 0.52491 0.8983 0.0
O388 O 0.60764 0.53957 0.92364 0.0
O389 O 0.49669 0.58408 0.88648 0.0
O390 O 0.5495 0.58095 0.93423 0.0
O391 O 0.60936 0.57222 0.94005 0.0
C392 C 0.60345 0.65838 0.9123 0.0
C393 C 0.71997 0.54757 0.91838 0.0
C394 C 0.76291 0.51106 0.9202 0.0
C395 C 0.72512 0.47221 0.9253 0.0
C396 C 0.68302 0.50857 0.92389 0.0
C397 C 0.68549 0.4711 0.92717 0.0
C398 C 0.7601 0.5488 0.91669 0.0
C399 C 0.61674 0.6058 0.87747 0.0
C400 C 0.71677 0.58681 0.91442 0.0
C401 C 0.74922 0.76723 0.9528 0.0
C402 C 0.76142 0.78202 0.93424 0.0
C403 C 0.58042 0.51191 0.91125 0.0
C404 C 0.41867 0.53865 0.88835 0.0
C405 C 0.33839 0.49964 0.89004 0.0
C406 C 0.337 0.47917 0.87289 0.0
C407 C 0.41569 0.51823 0.87103 0.0
C408 C 0.3796 0.5297 0.89772 0.0
C409 C 0.37525 0.48861 0.86346 0.0
C410 C 0.57579 0.57555 0.94593 0.0
C411 C 0.46204 0.56727 0.89715 0.0
H412 H 0.72643 0.44289 0.92831 0.0
H413 H 0.65224 0.50691 0.9258 0.0
H414 H 0.65663 0.44121 0.93136 0.0
H415 H 0.78891 0.5789 0.91259 0.0
H416 H 0.30607 0.45628 0.86655 0.0
H417 H 0.44459 0.52493 0.86329 0.0
H418 H 0.38127 0.54534 0.91106 0.0
H419 H 0.37353 0.47287 0.85016 0.0
Tb420 Tb 0.46172 0.07752 0.91785 0.0
C421 C 0.59609 0.03087 0.8812 0.0
N422 N 0.55455 0.02153 0.87757 0.0
C423 C 0.57215 0.03634 0.8447 0.0
C424 C 0.62749 0.04432 0.86671 0.0
C425 C 0.54203 0.02291 0.85947 0.0
C426 C 0.61509 0.04728 0.84833 0.0
C427 C 0.65034 0.03802 0.90399 0.0
C428 C 0.60738 0.02764 0.89963 0.0
C429 C 0.68156 0.05116 0.88958 0.0
C430 C 0.67017 0.0543 0.871 0.0
Tb431 Tb 0.50813 0.99514 0.90283 0.0
N432 N 0.5767 0.01607 0.91336 0.0
C433 C 0.66092 0.03589 0.92279 0.0
C434 C 0.58681 0.01338 0.93171 0.0
C435 C 0.62903 0.02359 0.93669 0.0
H436 H 0.50871 1.01232 0.85594 0.0
H437 H 0.63683 0.02146 0.95125 0.0
H438 H 0.4874 0.11184 0.96203 0.0
H439 H 0.30919 0.02402 0.88167 0.0
H440 H 0.56239 1.00214 0.94258 0.0
H441 H 0.6936 0.04382 0.92672 0.0
H442 H 0.38906 0.05881 0.88449 0.0
H443 H 0.562 0.03749 0.83044 0.0
H444 H 0.71472 0.05935 0.89268 0.0
H445 H 0.69467 0.06464 0.86004 0.0
H446 H 0.44945 0.10163 0.9923 0.0
H447 H 0.63823 0.05742 0.83682 0.0
H448 H 0.26331 0.99814 0.91033 0.0
N449 N 0.42966 0.07059 0.94666 0.0
C450 C 0.38551 0.04922 0.94689 0.0
C451 C 0.43106 0.08591 0.97971 0.0
C452 C 0.36223 0.04368 0.96374 0.0
C453 C 0.45253 0.09078 0.9626 0.0
C454 C 0.3857 0.06201 0.9803 0.0
N455 N 0.38814 0.04822 0.91391 0.0
C456 C 0.36927 0.04613 0.89685 0.0
C457 C 0.31827 0.01897 0.92915 0.0
C458 C 0.36389 0.03756 0.92987 0.0
C459 C 0.29829 1.01237 0.91151 0.0
C460 C 0.32405 0.02695 0.89531 0.0
H461 H 0.36918 0.06004 0.99337 0.0
H462 H 0.29801 0.01732 0.97614 0.0
H463 H 0.25939 0.99519 0.94578 0.0
O464 O 0.47001 0.12643 0.89849 0.0
O465 O 0.41321 1.00879 0.90982 0.0
O466 O 0.44949 0.97473 0.91969 0.0
O467 O 0.47521 0.1388 0.92798 0.0
O468 O 0.48732 0.07272 0.89061 0.0
O469 O 0.46497 1.00331 0.88212 0.0
O470 O 0.51453 0.94173 0.91174 0.0
O471 O 0.55469 0.06638 0.90156 0.0
O472 O 0.53061 0.09947 0.92312 0.0
O473 O 0.48264 0.93857 0.88581 0.0
O474 O 0.49592 0.99858 0.93347 0.0
O475 O 0.49718 0.06413 0.94005 0.0
C476 C 0.41379 0.97255 0.91353 0.0
C477 C 0.45532 0.18106 0.90963 0.0
C478 C 0.46168 0.25273 0.90682 0.0
C479 C 0.41635 0.23321 0.9087 0.0
C480 C 0.41007 0.16208 0.91162 0.0
C481 C 0.39072 0.1881 0.91105 0.0
C482 C 0.48107 0.22648 0.90721 0.0
C483 C 0.46574 0.04056 0.87892 0.0
C484 C 0.4768 0.15488 0.91147 0.0
C485 C 0.31651 0.02251 0.9633 0.0
C486 C 0.29453 1.00994 0.94601 0.0
C487 C 0.56084 0.09973 0.91216 0.0
C488 C 0.52413 0.90181 0.8874 0.0
C489 C 0.55448 0.8522 0.88772 0.0
C490 C 0.57512 0.87056 0.87045 0.0
C491 C 0.54521 0.91882 0.87016 0.0
C492 C 0.52887 0.86832 0.89616 0.0
C493 C 0.57063 0.90351 0.86187 0.0
C494 C 0.50046 0.02995 0.94522 0.0
C495 C 0.49819 0.91953 0.89647 0.0
H496 H 0.40086 0.25295 0.90843 0.0
H497 H 0.38983 0.12741 0.9139 0.0
H498 H 0.35579 0.1733 0.91263 0.0
H499 H 0.51615 0.24147 0.90592 0.0
H500 H 0.59405 0.85874 0.86319 0.0
H501 H 0.54197 0.9439 0.86296 0.0
H502 H 0.51293 0.85522 0.90953 0.0
H503 H 0.58662 0.91698 0.84855 0.0
Tb504 Tb 0.08733 0.32534 0.42197 0.0
C505 C 0.25592 0.35377 0.46165 0.0
N506 N 0.23164 0.37232 0.4663 0.0
C507 C 0.23676 0.35863 0.49902 0.0
C508 C 0.27113 0.33628 0.47558 0.0
C509 C 0.22224 0.3754 0.4847 0.0
C510 C 0.26123 0.3389 0.49445 0.0
C511 C 0.28865 0.33146 0.43733 0.0
C512 C 0.26431 0.35128 0.44277 0.0
C513 C 0.3039 0.31391 0.45113 0.0
C514 C 0.29523 0.31638 0.47021 0.0
Tb515 Tb 0.21018 0.39928 0.44197 0.0
N516 N 0.24823 0.36788 0.42978 0.0
C517 C 0.29715 0.33008 0.4182 0.0
C518 C 0.25975 0.36978 0.41127 0.0
C519 C 0.28321 0.34993 0.40516 0.0
H520 H 0.20412 0.39135 0.48844 0.0
H521 H 0.29133 0.35081 0.3904 0.0
H522 H 0.09136 0.32451 0.37556 0.0
H523 H 0.98569 0.35681 0.46858 0.0
H524 H 0.25273 0.38782 0.4011 0.0
H525 H 0.31547 0.31491 0.41342 0.0
H526 H 0.02983 0.3238 0.45911 0.0
H527 H 0.2292 0.36108 0.51359 0.0
H528 H 0.3224 0.29834 0.44719 0.0
H529 H 0.30708 0.3026 0.48069 0.0
H530 H 0.0698 0.35419 0.34913 0.0
H531 H 0.27232 0.32584 0.50557 0.0
H532 H 0.96888 0.39816 0.44522 0.0
N533 N 0.06638 0.34899 0.3964 0.0
C534 C 0.04232 0.36834 0.39997 0.0
C535 C 0.06257 0.3594 0.36335 0.0
C536 C 0.02895 0.38578 0.38538 0.0
C537 C 0.07543 0.34304 0.37837 0.0
C538 C 0.03997 0.3817 0.36691 0.0
N539 N 0.04411 0.35232 0.43198 0.0
C540 C 0.02586 0.34486 0.44944 0.0
C541 C 1.00424 0.38809 0.42274 0.0
C542 C 0.03075 0.37006 0.41841 0.0
C543 C 0.98959 0.38504 0.44128 0.0
C544 C 0.99941 0.36214 0.45456 0.0
H545 H 0.03018 0.39488 0.35543 0.0
H546 H 0.99411 0.41985 0.37861 0.0
H547 H 0.97204 0.42147 0.41139 0.0
O548 O 0.03674 0.26888 0.4347 0.0
O549 O 0.11851 0.3987 0.41907 0.0
O550 O 0.16476 0.42294 0.44415 0.0
O551 O 0.043 0.27325 0.40477 0.0
O552 O 0.09811 0.32305 0.45224 0.0
O553 O 0.15718 0.3886 0.46239 0.0
O554 O 0.26601 0.45403 0.43034 0.0
O555 O 0.17503 0.32903 0.44757 0.0
O556 O 0.13389 0.30087 0.42102 0.0
O557 O 0.25162 0.45161 0.4596 0.0
O558 O 0.19665 0.40223 0.41116 0.0
O559 O 0.14042 0.33333 0.40388 0.0
C560 C 0.14631 0.43094 0.43006 0.0
C561 C 1.01564 0.20327 0.41843 0.0
C562 C 0.96801 0.12399 0.41914 0.0
C563 C 1.00487 0.11905 0.41914 0.0
C564 C 0.05179 0.19714 0.41801 0.0
C565 C 0.04649 0.15544 0.41853 0.0
C566 C 0.97338 0.16629 0.41886 0.0
C567 C 0.11811 0.35333 0.46514 0.0
C568 C 0.02223 0.24804 0.41889 0.0
C569 C 1.00443 0.40591 0.38966 0.0
C570 C 0.99198 0.40696 0.40833 0.0
C571 C 0.15644 0.29784 0.4351 0.0
C572 C 0.32688 0.48797 0.45133 0.0
C573 C 0.4059 0.54015 0.44808 0.0
C574 C 0.41339 0.51712 0.46241 0.0
C575 C 0.33646 0.46619 0.46541 0.0
C576 C 0.36196 0.52527 0.44264 0.0
C577 C 0.37918 0.4805 0.47079 0.0
C578 C 0.17322 0.37112 0.3987 0.0
C579 C 0.28033 0.47271 0.44657 0.0
H580 H 1.00136 0.08684 0.41932 0.0
H581 H 0.08422 0.22448 0.41722 0.0
H582 H 0.07477 0.15133 0.41832 0.0
H583 H 0.94504 0.17035 0.41896 0.0
H584 H 0.44591 0.52788 0.46761 0.0
H585 H 0.31092 0.43852 0.47271 0.0
H586 H 0.35503 0.54244 0.4318 0.0
H587 H 0.38579 0.4635 0.48182 0.0
Tb588 Tb 0.74982 0.78823 0.41924 0.0
C589 C 0.71517 0.9289 0.44939 0.0
N590 N 0.69564 0.88682 0.45532 0.0
C591 C 0.70941 0.91058 0.48747 0.0
C592 C 0.73446 0.96369 0.46231 0.0
C593 C 0.69107 0.87715 0.47409 0.0
C594 C 0.73164 0.95404 0.48155 0.0
C595 C 0.73696 0.98006 0.42347 0.0
C596 C 0.71654 0.93682 0.43022 0.0
C597 C 0.75739 0.01492 0.43622 0.0
C598 C 0.75604 1.00676 0.4556 0.0
Tb599 Tb 0.66884 0.83476 0.43241 0.0
N600 N 0.69696 0.90216 0.41829 0.0
C601 C 0.73549 0.98696 0.40417 0.0
C602 C 0.69171 0.90906 0.39974 0.0
C603 C 0.71192 0.95131 0.39233 0.0
H604 H 0.67351 0.84371 0.47881 0.0
H605 H 0.70857 0.95635 0.37753 0.0
H606 H 0.77326 0.80796 0.3737 0.0
H607 H 0.71023 0.64301 0.4581 0.0
H608 H 0.671 0.88248 0.39057 0.0
H609 H 0.75088 0.01964 0.3984 0.0
H610 H 0.74098 0.72245 0.4533 0.0
H611 H 0.7064 0.90281 0.50234 0.0
H612 H 0.77369 0.04833 0.43126 0.0
H613 H 0.77152 0.03397 0.46528 0.0
H614 H 0.75477 0.76634 0.3443 0.0
H615 H 0.74605 0.97984 0.49195 0.0
H616 H 0.67871 0.59262 0.43099 0.0
N617 N 0.73485 0.75275 0.39095 0.0
C618 C 0.71427 0.70855 0.39187 0.0
C619 C 0.74163 0.74948 0.35747 0.0
C620 C 0.70408 0.68289 0.37547 0.0
C621 C 0.75113 0.77333 0.37417 0.0
C622 C 0.71697 0.70398 0.35806 0.0
N623 N 0.72265 0.71594 0.4246 0.0
C624 C 0.72551 0.70025 0.44175 0.0
C625 C 0.69186 0.64422 0.41111 0.0
C626 C 0.70855 0.68945 0.40935 0.0
C627 C 0.69121 0.6272 0.42901 0.0
C628 C 0.70889 0.65551 0.44435 0.0
H629 H 0.7106 0.68529 0.34522 0.0
H630 H 0.67573 0.61701 0.36462 0.0
H631 H 0.66469 0.58305 0.39594 0.0
O632 O 0.80439 0.80682 0.43663 0.0
O633 O 0.68146 0.74166 0.42737 0.0
O634 O 0.64509 0.77488 0.41616 0.0
O635 O 0.80373 0.78589 0.40829 0.0
O636 O 0.74352 0.79841 0.44892 0.0
O637 O 0.67674 0.79459 0.4552 0.0
O638 O 0.62096 0.85299 0.42736 0.0
O639 O 0.73683 0.86698 0.44205 0.0
O640 O 0.77192 0.85809 0.41709 0.0
O641 O 0.6089 0.80112 0.44701 0.0
O642 O 0.67502 0.82225 0.40184 0.0
O643 O 0.74447 0.83199 0.39902 0.0
C644 C 0.64468 0.74022 0.42279 0.0
C645 C 0.8698 0.84232 0.41974 0.0
C646 C 0.94876 0.87992 0.42165 0.0
C647 C 0.95071 0.91637 0.41277 0.0
C648 C 0.87243 0.87851 0.41037 0.0
C649 C 0.91267 0.91562 0.40722 0.0
C650 C 0.90805 0.84317 0.42547 0.0
C651 C 0.71003 0.78864 0.45993 0.0
C652 C 0.82731 0.80346 0.42316 0.0
C653 C 0.68438 0.63733 0.37708 0.0
C654 C 0.67823 0.618 0.3949 0.0
C655 C 0.77027 0.8824 0.43064 0.0
C656 C 0.54926 0.81676 0.44275 0.0
C657 C 0.49299 0.83802 0.44011 0.0
C658 C 0.46255 0.79739 0.44767 0.0
C659 C 0.51788 0.77678 0.45052 0.0
C660 C 0.5367 0.84779 0.43767 0.0
C661 C 0.47497 0.76723 0.45291 0.0
C662 C 0.71012 0.83139 0.39166 0.0
C663 C 0.59361 0.82368 0.43888 0.0
H664 H 0.98178 0.94521 0.40987 0.0
H665 H 0.84359 0.878 0.40521 0.0
H666 H 0.91442 0.94353 0.40014 0.0
H667 H 0.90621 0.81485 0.43225 0.0
H668 H 0.429 0.78918 0.44976 0.0
H669 H 0.52628 0.75229 0.45439 0.0
H670 H 0.56042 0.87888 0.43169 0.0
H671 H 0.45108 0.7361 0.45877 0.0
Tb672 Tb 0.28676 0.98815 0.41812 0.0
C673 C 0.14397 0.82253 0.45763 0.0
N674 N 0.18728 0.84486 0.46169 0.0
C675 C 0.17091 0.84099 0.49468 0.0
C676 C 0.11237 0.80923 0.47198 0.0
C677 C 0.20109 0.85347 0.47996 0.0
C678 C 0.12637 0.81897 0.49068 0.0
C679 C 0.08694 0.79042 0.43408 0.0
C680 C 0.13147 0.81319 0.43891 0.0
C681 C 0.05529 0.77729 0.44832 0.0
C682 C 0.06797 0.78665 0.46723 0.0
Tb683 Tb 0.23329 0.86266 0.43649 0.0
N684 N 0.16309 0.82764 0.42545 0.0
C685 C 0.07559 0.78181 0.41507 0.0
C686 C 0.15203 0.81719 0.40698 0.0
C687 C 0.10828 0.7949 0.40149 0.0
H688 H 0.2353 0.86921 0.48334 0.0
H689 H 0.0998 0.78733 0.38679 0.0
H690 H 0.30095 0.98261 0.37244 0.0
H691 H 0.3928 0.10306 0.47011 0.0
H692 H 0.17642 0.82485 0.39639 0.0
H693 H 0.04175 0.76457 0.41075 0.0
H694 H 0.32206 0.04843 0.45672 0.0
H695 H 0.18204 0.84806 0.50912 0.0
H696 H 0.02093 0.75996 0.44486 0.0
H697 H 0.04318 0.77629 0.47805 0.0
H698 H 0.36237 1.00944 0.35055 0.0
H699 H 0.10312 0.80928 0.50213 0.0
H700 H 0.4608 0.12532 0.4524 0.0
N701 N 0.34074 0.01308 0.39635 0.0
C702 C 0.38154 0.04017 0.40288 0.0
C703 C 0.36852 0.01801 0.36522 0.0
C704 C 0.41784 0.05694 0.39077 0.0
C705 C 0.33357 1.00246 0.37774 0.0
C706 C 0.41095 0.045 0.37174 0.0
N707 N 0.35008 0.03656 0.43256 0.0
C708 C 0.35166 0.05611 0.44931 0.0
C709 C 0.4275 0.08379 0.42856 0.0
C710 C 0.38637 0.05232 0.42165 0.0
C711 C 0.42994 0.10059 0.44664 0.0
C712 C 0.39164 0.0878 0.45677 0.0
H713 H 0.43794 0.05723 0.36192 0.0
H714 H 0.48783 0.099 0.3889 0.0
H715 H 0.49619 0.12329 0.42192 0.0
O716 O 0.25953 0.02504 0.42827 0.0
O717 O 0.32655 0.95564 0.41494 0.0
O718 O 0.30399 0.90322 0.43844 0.0
O719 O 0.28766 0.03692 0.40062 0.0
O720 O 0.27036 0.97183 0.44787 0.0
O721 O 0.27788 0.91341 0.45709 0.0
O722 O 0.22855 0.80613 0.4237 0.0
O723 O 0.19769 0.89891 0.43931 0.0
O724 O 0.21891 0.94182 0.41311 0.0
O725 O 0.23705 0.81545 0.45333 0.0
O726 O 0.25096 0.8755 0.40575 0.0
O727 O 0.24864 0.938 0.39732 0.0
C728 C 0.33182 0.92775 0.42545 0.0
C729 C 0.2853 0.09553 0.41604 0.0
C730 C 0.27089 0.15588 0.42001 0.0
C731 C 0.31497 0.18345 0.42446 0.0
C732 C 0.32937 0.12391 0.4201 0.0
C733 C 0.34402 0.16759 0.42436 0.0
C734 C 0.25616 0.11181 0.41577 0.0
C735 C 0.28382 0.95319 0.46002 0.0
C736 C 0.2685 0.04854 0.41309 0.0
C737 C 0.45942 0.08587 0.39795 0.0
C738 C 0.46421 0.09949 0.41679 0.0
C739 C 0.18973 0.91942 0.42588 0.0
C740 C 0.19335 0.74167 0.4428 0.0
C741 C 0.15801 0.66204 0.43699 0.0
C742 C 0.1244 0.65598 0.44931 0.0
C743 C 0.15973 0.73324 0.45556 0.0
C744 C 0.19282 0.70539 0.43371 0.0
C745 C 0.12546 0.69111 0.45855 0.0
C746 C 0.2482 0.90156 0.39295 0.0
C747 C 0.22881 0.78805 0.43961 0.0
H748 H 0.327 0.21744 0.4278 0.0
H749 H 0.35239 0.11235 0.4201 0.0
H750 H 0.37802 0.18922 0.42764 0.0
H751 H 0.22203 0.09011 0.4126 0.0
H752 H 0.09764 0.62354 0.45227 0.0
H753 H 0.16005 0.75913 0.46361 0.0
H754 H 0.21898 0.7108 0.42421 0.0
H755 H 0.09978 0.68558 0.46835 0.0
Tb756 Tb 0.65458 0.74827 0.25298 0.0
C757 C 0.68638 0.90794 0.21122 0.0
N758 N 0.70946 0.88684 0.20962 0.0
C759 C 0.70308 0.8873 0.17588 0.0
C760 C 0.66928 0.91798 0.19528 0.0
C761 C 0.72018 0.87898 0.19209 0.0
C762 C 0.6768 0.90613 0.1775 0.0
C763 C 0.66224 0.94744 0.23112 0.0
C764 C 0.68297 0.92266 0.22878 0.0
C765 C 0.64357 0.95601 0.21544 0.0
C766 C 0.64694 0.94116 0.19755 0.0
Tb767 Tb 0.73477 0.87369 0.23741 0.0
N768 N 0.70178 0.91395 0.24354 0.0
C769 C 0.66183 0.9636 0.24907 0.0
C770 C 0.704 0.93203 0.26082 0.0
C771 C 0.6833 0.95634 0.26393 0.0
H772 H 0.74259 0.86697 0.19034 0.0
H773 H 0.68411 0.96962 0.27774 0.0
H774 H 0.67582 0.75412 0.29811 0.0
H775 H 0.64001 0.62964 0.20123 0.0
H776 H 0.7209 0.92676 0.27228 0.0
H777 H 0.64599 0.98258 0.25149 0.0
H778 H 0.62732 0.68688 0.21431 0.0
H779 H 0.71088 0.87992 0.16212 0.0
H780 H 0.62709 0.97466 0.21694 0.0
H781 H 0.63323 0.94883 0.1855 0.0
H782 H 0.70977 0.72661 0.32 0.0
H783 H 0.66418 0.91316 0.1649 0.0
H784 H 0.68396 0.60516 0.21894 0.0
N785 N 0.68461 0.72323 0.27427 0.0
C786 C 0.69592 0.69416 0.26792 0.0
C787 C 0.70691 0.71764 0.30539 0.0
C788 C 0.71504 0.67689 0.27998 0.0
C789 C 0.68793 0.73363 0.29289 0.0
C790 C 0.72126 0.68969 0.29891 0.0
N791 N 0.66545 0.69633 0.23887 0.0
C792 C 0.64767 0.67746 0.22196 0.0
C793 C 0.69436 0.64784 0.2426 0.0
C794 C 0.68625 0.68043 0.24948 0.0
C795 C 0.67894 0.63066 0.22468 0.0
C796 C 0.65438 0.64464 0.21457 0.0
H797 H 0.73569 0.6771 0.30872 0.0
H798 H 0.74083 0.63295 0.28187 0.0
H799 H 0.7223 0.60711 0.24912 0.0
O800 O 0.59638 0.68868 0.24986 0.0
O801 O 0.72615 0.78049 0.25969 0.0
O802 O 0.75861 0.8279 0.2351 0.0
O803 O 0.60406 0.73203 0.27265 0.0
O804 O 0.65726 0.7644 0.2233 0.0
O805 O 0.72619 0.82165 0.21682 0.0
O806 O 0.78951 0.92231 0.25233 0.0
O807 O 0.66823 0.8505 0.2469 0.0
O808 O 0.62878 0.78168 0.2355 0.0
O809 O 0.78725 0.9234 0.2224 0.0
O810 O 0.73232 0.85865 0.26845 0.0
O811 O 0.66291 0.79892 0.27249 0.0
C812 C 0.76048 0.8044 0.24887 0.0
C813 C 0.5474 0.65777 0.27519 0.0
C814 C 0.4732 0.59668 0.27835 0.0
C815 C 0.48554 0.58467 0.29515 0.0
C816 C 0.5594 0.64541 0.29185 0.0
C817 C 0.52839 0.60891 0.3018 0.0
C818 C 0.50454 0.63346 0.26853 0.0
C819 C 0.69118 0.78402 0.21222 0.0
C820 C 0.57789 0.69571 0.2641 0.0
C821 C 0.72579 0.64644 0.27288 0.0
C822 C 0.71535 0.63183 0.25422 0.0
C823 C 0.63211 0.81925 0.2398 0.0
C824 C 0.8193 0.99174 0.23745 0.0
C825 C 0.86869 0.06863 0.24493 0.0
C826 C 0.83872 0.07911 0.23717 0.0
C827 C 0.79125 1.00391 0.22885 0.0
C828 C 0.85881 0.02467 0.24529 0.0
C829 C 0.80034 0.04692 0.22909 0.0
C830 C 0.69815 0.83263 0.27925 0.0
C831 C 0.80771 0.94515 0.23728 0.0
H832 H 0.4623 0.55624 0.30299 0.0
H833 H 0.59243 0.66384 0.29711 0.0
H834 H 0.53759 0.59926 0.31469 0.0
H835 H 0.49549 0.64368 0.25573 0.0
H836 H 0.84592 0.11266 0.23668 0.0
H837 H 0.76273 0.98043 0.22144 0.0
H838 H 0.88193 0.01641 0.2512 0.0
H839 H 0.77806 0.05548 0.22254 0.0
Tb840 Tb 0.31726 0.93899 0.25579 0.0
C841 C 0.14771 0.79758 0.21234 0.0
N842 N 0.16972 0.84161 0.21009 0.0
C843 C 0.16049 0.83266 0.17657 0.0
C844 C 0.13197 0.76927 0.19673 0.0
C845 C 0.17525 0.85943 0.19251 0.0
C846 C 0.13906 0.7874 0.17866 0.0
C847 C 0.11732 0.73546 0.23354 0.0
C848 C 0.1405 0.78081 0.23045 0.0
C849 C 0.10205 0.70707 0.21802 0.0
C850 C 0.10941 0.72394 0.19966 0.0
Tb851 Tb 0.192 0.88144 0.23731 0.0
N852 N 0.15737 0.80925 0.24507 0.0
C853 C 0.11034 0.72012 0.25212 0.0
C854 C 0.14882 0.79464 0.26324 0.0
C855 C 0.1258 0.74987 0.26703 0.0
H856 H 0.19027 0.89428 0.19068 0.0
H857 H 0.12001 0.73834 0.28144 0.0
H858 H 0.33096 0.91998 0.30014 0.0
H859 H 0.37995 0.08699 0.21481 0.0
H860 H 0.16034 0.81748 0.27479 0.0
H861 H 0.09279 0.68548 0.2551 0.0
H862 H 0.33876 1.00761 0.21989 0.0
H863 H 0.16527 0.84696 0.16268 0.0
H864 H 0.08443 0.67207 0.22007 0.0
H865 H 0.09723 0.70166 0.18783 0.0
H866 H 0.37163 0.96345 0.32773 0.0
H867 H 0.12752 0.76678 0.16629 0.0
H868 H 0.41824 0.1364 0.2415 0.0
N869 N 0.34858 0.97539 0.2828 0.0
C870 C 0.37193 0.01945 0.28126 0.0
C871 C 0.37148 0.97969 0.31484 0.0
C872 C 0.39548 0.04562 0.29669 0.0
C873 C 0.34816 0.95515 0.29923 0.0
C874 C 0.39517 0.02516 0.31358 0.0
N875 N 0.35219 1.01174 0.24918 0.0
C876 C 0.35514 0.02864 0.23159 0.0
C877 C 0.39823 0.08387 0.26165 0.0
C878 C 0.37381 0.03828 0.26391 0.0
C879 C 0.39994 0.1015 0.24381 0.0
C880 C 0.37844 0.07372 0.22871 0.0
H881 H 0.41379 0.04419 0.32559 0.0
H882 H 0.43762 0.11182 0.30634 0.0
H883 H 0.43959 0.14537 0.27571 0.0
O884 O 0.37328 0.9525 0.24008 0.0
O885 O 0.28458 0.97944 0.25619 0.0
O886 O 0.23212 0.95098 0.23271 0.0
O887 O 0.35714 0.91509 0.26554 0.0
O888 O 0.29308 0.9074 0.22884 0.0
O889 O 0.24362 0.9208 0.21547 0.0
O890 O 0.13894 0.87348 0.25348 0.0
O891 O 0.22325 0.84099 0.23887 0.0
O892 O 0.27532 0.87001 0.26245 0.0
O893 O 0.13972 0.88459 0.22385 0.0
O894 O 0.2059 0.90217 0.26782 0.0
O895 O 0.26999 0.90454 0.27765 0.0
C896 C 0.25613 0.98177 0.24476 0.0
C897 C 0.42951 0.94518 0.2553 0.0
C898 C 0.48938 0.92974 0.25406 0.0
C899 C 0.51265 0.96381 0.2669 0.0
C900 C 0.45331 0.97933 0.26795 0.0
C901 C 0.49486 0.98871 0.27362 0.0
C902 C 0.44795 0.92094 0.24813 0.0
C903 C 0.28213 0.92296 0.21469 0.0
C904 C 0.38349 0.92999 0.2513 0.0
C905 C 0.41948 0.09114 0.2946 0.0
C906 C 0.42066 0.11024 0.27715 0.0
C907 C 0.24765 0.83732 0.25191 0.0
C908 C 0.08941 0.89555 0.24307 0.0
C909 C 1.01608 0.8864 0.24774 0.0
C910 C 0.03593 0.92831 0.25572 0.0
C911 C 0.10791 0.93739 0.25089 0.0
C912 C 0.04332 0.87032 0.24124 0.0
C913 C 0.08131 0.95361 0.25708 0.0
C914 C 0.23178 0.90064 0.28109 0.0
C915 C 0.11696 0.87559 0.23928 0.0
H916 H 0.54463 0.97116 0.2717 0.0
H917 H 0.43941 0.9979 0.27378 0.0
H918 H 0.51302 0.01483 0.28354 0.0
H919 H 0.42925 0.89395 0.23861 0.0
H920 H 1.01625 0.94188 0.26062 0.0
H921 H 0.14289 0.95707 0.25263 0.0
H922 H 0.02865 0.83778 0.23537 0.0
H923 H 0.09596 0.9859 0.26318 0.0
Tb924 Tb 0.1186 0.39608 0.25934 0.0
C925 C 0.28096 0.39425 0.22336 0.0
N926 N 0.23839 0.37029 0.21834 0.0
C927 C 0.25865 0.37907 0.18568 0.0
C928 C 0.31417 0.41205 0.20964 0.0
C929 C 0.22693 0.36148 0.19981 0.0
C930 C 0.30246 0.40476 0.19061 0.0
C931 C 0.33518 0.42313 0.24816 0.0
C932 C 0.29126 0.40007 0.24237 0.0
C933 C 0.36839 0.44109 0.23456 0.0
C934 C 0.35791 0.43584 0.21535 0.0
Tb935 Tb 0.18983 0.34327 0.24267 0.0
N936 N 0.2582 0.38306 0.25517 0.0
C937 C 0.34438 0.42748 0.26745 0.0
C938 C 0.26722 0.38528 0.27397 0.0
C939 C 0.31025 0.40817 0.28039 0.0
H940 H 0.19355 0.33935 0.19595 0.0
H941 H 0.31707 0.41046 0.29533 0.0
H942 H 0.12856 0.42495 0.30412 0.0
H943 H 0.9779 0.2934 0.2158 0.0
H944 H 0.24176 0.36903 0.28416 0.0
H945 H 0.37767 0.4452 0.27248 0.0
H946 H 0.05578 0.33964 0.22227 0.0
H947 H 0.24935 0.37211 0.17103 0.0
H948 H 0.40229 0.4592 0.23875 0.0
H949 H 0.38389 0.44983 0.20502 0.0
H950 H 0.07974 0.41423 0.33048 0.0
H951 H 0.32701 0.41794 0.17964 0.0
H952 H 0.9243 0.2749 0.24146 0.0
N953 N 0.07748 0.38327 0.28559 0.0
C954 C 0.03387 0.35705 0.28314 0.0
C955 C 0.06629 0.39663 0.31753 0.0
C956 C 1.00469 0.34854 0.29814 0.0
C957 C 0.09411 0.40261 0.30255 0.0
C958 C 0.02141 0.3688 0.31546 0.0
N959 N 0.04741 0.35006 0.25103 0.0
C960 C 0.03314 0.33394 0.23336 0.0
C961 C 0.97322 0.31287 0.26235 0.0
C962 C 1.01831 0.34012 0.26534 0.0
C963 C 0.95866 0.29611 0.2443 0.0
C964 C 0.98878 0.30667 0.22976 0.0
H965 H 0.9997 0.36383 0.3271 0.0
H966 H 0.93688 0.31424 0.30665 0.0
H967 H 0.90938 0.28243 0.27539 0.0
O968 O 0.13437 0.45199 0.24303 0.0
O969 O 0.08716 0.32363 0.2589 0.0
O970 O 0.12173 0.30792 0.23531 0.0
O971 O 0.09983 0.44053 0.26899 0.0
O972 O 0.14091 0.40692 0.23032 0.0
O973 O 0.14974 0.35014 0.21952 0.0
O974 O 0.18695 0.2898 0.25742 0.0
O975 O 0.21969 0.41486 0.24245 0.0
O976 O 0.18742 0.42909 0.26726 0.0
O977 O 0.20504 0.30041 0.22837 0.0
O978 O 0.16666 0.33313 0.27294 0.0
O979 O 0.15868 0.392 0.28145 0.0
C980 C 0.08943 0.29591 0.24713 0.0
C981 C 0.15573 0.5118 0.2634 0.0
C982 C 0.19365 0.59139 0.26354 0.0
C983 C 0.22382 0.59143 0.27648 0.0
C984 C 0.18426 0.51314 0.27746 0.0
C985 C 0.21867 0.5526 0.28357 0.0
C986 C 0.16013 0.5511 0.25658 0.0
C987 C 0.13925 0.38122 0.21679 0.0
C988 C 0.12194 0.4691 0.25617 0.0
C989 C 0.95979 0.32129 0.29524 0.0
C990 C 0.94412 0.30331 0.27742 0.0
C991 C 0.22116 0.44025 0.25624 0.0
C992 C 0.17979 0.22881 0.23987 0.0
C993 C 0.18526 0.16218 0.24054 0.0
C994 C 0.14551 0.14033 0.23079 0.0
C995 C 0.1402 0.20597 0.23021 0.0
C996 C 0.20212 0.2066 0.24525 0.0
C997 C 0.12307 0.16197 0.22582 0.0
C998 C 0.16317 0.35841 0.28594 0.0
C999 C 0.19985 0.2764 0.24302 0.0
H1000 H 0.2512 0.62162 0.28145 0.0
H1001 H 0.17992 0.48368 0.28388 0.0
H1002 H 0.24117 0.55311 0.29402 0.0
H1003 H 0.13699 0.55015 0.24637 0.0
H1004 H 0.13173 0.10631 0.22702 0.0
H1005 H 0.12306 0.22248 0.22575 0.0
H1006 H 0.23307 0.22411 0.25251 0.0
H1007 H 0.09252 0.14467 0.21829 0.0
Tb1008 Tb 0.74527 0.65058 0.75357 0.0
C1009 C 0.92647 0.70059 0.78761 0.0
N1010 N 0.89661 0.71302 0.79143 0.0
C1011 C 0.90287 0.70292 0.82452 0.0
C1012 C 0.94478 0.68769 0.80214 0.0
C1013 C 0.88539 0.71522 0.80967 0.0
C1014 C 0.93255 0.68893 0.82075 0.0
C1015 C 0.96623 0.68398 0.76436 0.0
C1016 C 0.93718 0.69896 0.76893 0.0
C1017 C 0.98466 0.6713 0.77879 0.0
C1018 C 0.97416 0.67339 0.79763 0.0
Tb1019 Tb 0.87322 0.73556 0.76599 0.0
N1020 N 0.91838 0.71108 0.75527 0.0
C1021 C 0.97585 0.68208 0.74542 0.0
C1022 C 0.92958 0.71132 0.7368 0.0
C1023 C 0.9577 0.69612 0.73161 0.0
H1024 H 0.86436 0.728 0.81313 0.0
H1025 H 0.96592 0.69593 0.71693 0.0
H1026 H 0.73446 0.61582 0.70942 0.0
H1027 H 0.65006 0.70755 0.79078 0.0
H1028 H 0.91833 0.72435 0.7259 0.0
H1029 H 0.99778 0.67051 0.74133 0.0
H1030 H 0.69383 0.67131 0.78757 0.0
H1031 H 0.89383 0.70479 0.83891 0.0
H1032 H 1.00695 0.65964 0.77553 0.0
H1033 H 0.98844 0.66323 0.8086 0.0
H1034 H 0.70658 0.62662 0.67965 0.0
H1035 H 0.94593 0.67934 0.8323 0.0
H1036 H 0.63002 0.73402 0.76231 0.0
N1037 N 0.72034 0.65856 0.72501 0.0
C1038 C 0.69831 0.68076 0.72505 0.0
C1039 C 0.70546 0.64365 0.69207 0.0
C1040 C 0.68145 0.68783 0.70829 0.0
C1041 C 0.72192 0.63799 0.70901 0.0
C1042 C 0.68627 0.66981 0.69155 0.0
N1043 N 0.70193 0.68081 0.75805 0.0
C1044 C 0.68638 0.68392 0.77527 0.0
C1045 C 0.66258 0.71189 0.74318 0.0
C1046 C 0.68847 0.69207 0.74221 0.0
C1047 C 0.64994 0.71888 0.76094 0.0
C1048 C 0.66117 0.704 0.77704 0.0
H1049 H 0.67301 0.67375 0.67844 0.0
H1050 H 0.64521 0.71637 0.69625 0.0
H1051 H 0.62907 0.73791 0.72686 0.0
O1052 O 0.70871 0.6008 0.77312 0.0
O1053 O 0.76612 0.71978 0.76069 0.0
O1054 O 0.83392 0.75309 0.7484 0.0
O1055 O 0.69292 0.59109 0.74383 0.0
O1056 O 0.77382 0.65731 0.78128 0.0
O1057 O 0.82282 0.72841 0.78746 0.0
O1058 O 0.93434 0.7872 0.75735 0.0
O1059 O 0.84522 0.66556 0.77208 0.0
O1060 O 0.79257 0.62792 0.74946 0.0
O1061 O 0.90183 0.79493 0.78113 0.0
O1062 O 0.8562 0.7268 0.73513 0.0
O1063 O 0.79263 0.65923 0.7316 0.0
C1064 C 0.80111 0.75574 0.75511 0.0
C1065 C 0.63671 0.54662 0.76502 0.0
C1066 C 0.57231 0.47416 0.76584 0.0
C1067 C 0.54968 0.49135 0.77549 0.0
C1068 C 0.61365 0.5634 0.77457 0.0
C1069 C 0.5702 0.53583 0.77967 0.0
C1070 C 0.61572 0.50206 0.76046 0.0
C1071 C 0.78707 0.69131 0.79216 0.0
C1072 C 0.68315 0.5738 0.76043 0.0
C1073 C 0.65791 0.71007 0.70901 0.0
C1074 C 0.6486 0.72222 0.72644 0.0
C1075 C 0.82476 0.63249 0.76043 0.0
C1076 C 0.98007 0.83222 0.7817 0.0
C1077 C 0.05963 0.8825 0.78266 0.0
C1078 C 0.05996 0.8679 0.80107 0.0
C1079 C 0.98198 0.81923 0.80018 0.0
C1080 C 0.01917 0.86416 0.773 0.0
C1081 C 0.02157 0.83663 0.80967 0.0
C1082 C 0.8289 0.69225 0.72483 0.0
C1083 C 0.93783 0.81218 0.77136 0.0
H1084 H 0.51618 0.47029 0.77981 0.0
H1085 H 0.62922 0.59745 0.77831 0.0
H1086 H 0.55256 0.54886 0.78711 0.0
H1087 H 0.63357 0.48881 0.75329 0.0
H1088 H 0.08982 0.88157 0.80915 0.0
H1089 H 0.95285 0.79585 0.80743 0.0
H1090 H 1.01803 0.87445 0.75874 0.0
H1091 H 0.02245 0.82619 0.82392 0.0
Tb1092 Tb 0.40842 0.12379 0.75427 0.0
C1093 C 0.37628 0.26441 0.78546 0.0
N1094 N 0.35903 0.22296 0.79195 0.0
C1095 C 0.37673 0.24939 0.82366 0.0
C1096 C 0.39603 0.30029 0.79782 0.0
C1097 C 0.35759 0.21486 0.81082 0.0
C1098 C 0.39637 0.29232 0.81712 0.0
C1099 C 0.39321 0.31326 0.75893 0.0
C1100 C 0.37486 0.27063 0.76627 0.0
C1101 C 0.41387 0.34924 0.77111 0.0
C1102 C 0.4151 0.34277 0.79052 0.0
Tb1103 Tb 0.32787 0.16882 0.77009 0.0
N1104 N 0.35465 0.23492 0.7549 0.0
C1105 C 0.3895 0.31846 0.73964 0.0
C1106 C 0.34738 0.24013 0.7364 0.0
C1107 C 0.36576 0.28172 0.7284 0.0
H1108 H 0.34177 0.18179 0.81602 0.0
H1109 H 0.36071 0.28541 0.71364 0.0
H1110 H 0.41855 0.1331 0.70779 0.0
H1111 H 0.37707 0.98658 0.79784 0.0
H1112 H 0.32623 0.21274 0.7277 0.0
H1113 H 0.40334 0.35063 0.73343 0.0
H1114 H 0.40821 0.0648 0.79014 0.0
H1115 H 0.3762 0.24288 0.83858 0.0
H1116 H 0.42858 0.3822 0.76568 0.0
H1117 H 0.43092 0.3708 0.79976 0.0
H1118 H 0.38973 0.08507 0.68032 0.0
H1119 H 0.41133 0.319 0.82709 0.0
H1120 H 0.33808 0.93077 0.77324 0.0
N1121 N 0.38623 0.08205 0.72767 0.0
C1122 C 0.3659 0.03826 0.73038 0.0
C1123 C 0.38133 0.07122 0.6943 0.0
C1124 C 0.34974 1.00902 0.71515 0.0
C1125 C 0.39685 0.09873 0.70992 0.0
C1126 C 0.35633 0.0261 0.69695 0.0
N1127 N 0.38342 0.05281 0.76229 0.0
C1128 C 0.38943 0.04046 0.77972 0.0
C1129 C 0.34762 0.97822 0.75178 0.0
C1130 C 0.36512 0.02304 0.74831 0.0
C1131 C 0.3509 0.96492 0.76999 0.0
C1132 C 0.37269 0.99631 0.78393 0.0
H1133 H 0.3442 1.00445 0.68498 0.0
H1134 H 0.31672 0.94088 0.70701 0.0
H1135 H 0.31467 0.91384 0.7392 0.0
O1136 O 0.46791 0.14639 0.76864 0.0
O1137 O 0.34106 0.07716 0.76416 0.0
O1138 O 0.30171 0.1084 0.75418 0.0
O1139 O 0.46089 0.12429 0.74011 0.0
O1140 O 0.40581 0.1346 0.78442 0.0
O1141 O 0.33875 0.12909 0.79217 0.0
O1142 O 0.27943 0.18692 0.76637 0.0
O1143 O 0.39655 0.20065 0.77803 0.0
O1144 O 0.42868 0.19318 0.7517 0.0
O1145 O 0.27205 0.13956 0.78759 0.0
O1146 O 0.32747 0.15163 0.73965 0.0
O1147 O 0.39709 0.16395 0.73391 0.0
C1148 C 0.30339 0.07427 0.76001 0.0
C1149 C 0.51476 0.12094 0.75839 0.0
C1150 C 0.5877 0.13085 0.76142 0.0
C1151 C 0.56931 0.08711 0.76699 0.0
C1152 C 0.49693 0.07693 0.76328 0.0
C1153 C 0.52413 0.06025 0.76775 0.0
C1154 C 0.56024 0.14768 0.75717 0.0
C1155 C 0.37327 0.12452 0.7962 0.0
C1156 C 0.48699 0.13989 0.75439 0.0
C1157 C 0.32983 0.96394 0.71853 0.0
C1158 C 0.3288 0.94854 0.73685 0.0
C1159 C 0.42884 0.21656 0.76604 0.0
C1160 C 0.21373 0.15801 0.78617 0.0
C1161 C 0.15575 0.17713 0.78368 0.0
C1162 C 0.13918 0.15648 0.80104 0.0
C1163 C 0.1955 0.13707 0.80334 0.0
C1164 C 0.19321 0.17772 0.77616 0.0
C1165 C 0.15868 0.13641 0.81067 0.0
C1166 C 0.35981 0.15915 0.7279 0.0
C1167 C 0.25602 0.16216 0.78011 0.0
H1168 H 0.58992 0.07352 0.77035 0.0
H1169 H 0.4622 0.05538 0.76351 0.0
H1170 H 0.51014 0.02634 0.77169 0.0
H1171 H 0.57426 0.18159 0.75309 0.0
H1172 H 0.11045 0.15523 0.80704 0.0
H1173 H 0.21037 0.12199 0.81142 0.0
H1174 H 0.20661 0.19399 0.76287 0.0
H1175 H 0.14529 0.12044 0.824 0.0
Tb1176 Tb 0.93899 0.3148 0.75607 0.0
C1177 C 0.80571 0.13672 0.78958 0.0
N1178 N 0.8482 0.16321 0.79428 0.0
C1179 C 0.82933 0.15376 0.82706 0.0
C1180 C 0.773 0.11913 0.80351 0.0
C1181 C 0.8606 0.17078 0.81273 0.0
C1182 C 0.7853 0.12813 0.82244 0.0
C1183 C 0.75115 0.10256 0.76519 0.0
C1184 C 0.79508 0.12855 0.77065 0.0
C1185 C 0.71829 0.08561 0.77899 0.0
C1186 C 0.7292 0.09366 0.7981 0.0
Tb1187 Tb 0.89669 0.18771 0.76997 0.0
N1188 N 0.82782 0.14569 0.75767 0.0
C1189 C 0.74157 0.09378 0.74606 0.0
C1190 C 0.81864 0.13384 0.73915 0.0
C1191 C 0.77553 0.10887 0.73303 0.0
H1192 H 0.89458 0.18963 0.81649 0.0
H1193 H 0.76858 0.10049 0.71829 0.0
H1194 H 0.92607 0.31349 0.70935 0.0
H1195 H 0.08009 0.41704 0.79818 0.0
H1196 H 0.84409 0.14198 0.72899 0.0
H1197 H 0.70824 0.07413 0.74127 0.0
H1198 H 1.00138 0.37189 0.79141 0.0
H1199 H 0.83923 0.16027 0.84167 0.0
H1200 H 0.68437 0.06587 0.77502 0.0
H1201 H 0.70354 0.08017 0.80859 0.0
H1202 H 0.97255 0.33327 0.68126 0.0
H1203 H 0.76115 0.11522 0.83357 0.0
H1204 H 0.13368 0.434 0.77252 0.0
N1205 N 0.9785 0.33365 0.72869 0.0
C1206 C 0.0225 0.35728 0.73079 0.0
C1207 C 0.98711 0.33924 0.69511 0.0
C1208 C 0.05063 0.37067 0.71513 0.0
C1209 C 0.96062 0.32693 0.71113 0.0
C1210 C 0.03236 0.36041 0.69715 0.0
N1211 N 1.01071 0.35935 0.76317 0.0
C1212 C 0.02464 0.37726 0.78056 0.0
C1213 C 0.08434 0.3978 0.7515 0.0
C1214 C 0.03922 0.37112 0.74862 0.0
C1215 C 0.09924 0.41331 0.7697 0.0
C1216 C 0.06913 0.40367 0.78424 0.0
H1217 H 0.05314 0.37071 0.68487 0.0
H1218 H 0.11805 0.40579 0.706 0.0
H1219 H 0.14762 0.42929 0.73795 0.0
O1220 O 0.92469 0.35591 0.77236 0.0
O1221 O 0.98642 0.29347 0.76409 0.0
O1222 O 0.95373 0.22488 0.75218 0.0
O1223 O 0.93456 0.36541 0.7426 0.0
O1224 O 0.92247 0.29377 0.78514 0.0
O1225 O 0.93907 0.23941 0.79137 0.0
O1226 O 0.88082 0.12235 0.76444 0.0
O1227 O 0.8605 0.21993 0.77865 0.0
O1228 O 0.86861 0.26685 0.75459 0.0
O1229 O 0.92976 0.16156 0.78521 0.0
O1230 O 0.9066 0.20527 0.73928 0.0
O1231 O 0.89595 0.26479 0.73602 0.0
C1232 C 0.98867 0.25911 0.75849 0.0
C1233 C 0.94871 0.42702 0.76075 0.0
C1234 C 0.94479 0.49314 0.76609 0.0
C1235 C 0.99048 0.51734 0.76668 0.0
C1236 C 0.99431 0.45194 0.76092 0.0
C1237 C 1.01502 0.49685 0.76396 0.0
C1238 C 0.924 0.44785 0.76308 0.0
C1239 C 0.93966 0.27642 0.79605 0.0
C1240 C 0.92619 0.37946 0.75803 0.0
C1241 C 0.0959 0.39562 0.71788 0.0
C1242 C 0.11275 0.40911 0.73606 0.0
C1243 C 0.84451 0.23794 0.76748 0.0
C1244 C 0.91375 0.08559 0.78164 0.0
C1245 C 0.89377 1.00814 0.77855 0.0
C1246 C 0.92101 0.01366 0.79389 0.0
C1247 C 0.94116 0.08958 0.79671 0.0
C1248 C 0.8903 0.04449 0.77233 0.0
C1249 C 0.94466 0.054 0.80274 0.0
C1250 C 0.89617 0.23039 0.72911 0.0
C1251 C 0.90734 0.1234 0.77727 0.0
H1252 H 1.00717 0.55225 0.76899 0.0
H1253 H 1.01391 0.43687 0.75861 0.0
H1254 H 0.05023 0.51587 0.76418 0.0
H1255 H 0.88872 0.42884 0.76278 0.0
H1256 H 0.92458 0.98667 0.79885 0.0
H1257 H 0.95934 0.12016 0.80419 0.0
H1258 H 0.86901 0.04056 0.76064 0.0
H1259 H 0.9657 0.05765 0.81448 0.0
Tb1260 Tb 0.3338 0.07976 0.58685 0.0
C1261 C 0.35379 0.24779 0.55308 0.0
N1262 N 0.37254 0.22374 0.54811 0.0
C1263 C 0.35652 0.22794 0.51561 0.0
C1264 C 0.33378 0.26103 0.53948 0.0
C1265 C 0.37565 0.21518 0.52959 0.0
C1266 C 0.33512 0.25057 0.52058 0.0
C1267 C 0.33229 0.2808 0.57774 0.0
C1268 C 0.3533 0.25776 0.57204 0.0
C1269 C 0.31206 0.29373 0.56422 0.0
C1270 C 0.31292 0.284 0.54516 0.0
Tb1271 Tb 0.40464 0.20735 0.57213 0.0
N1272 N 0.37247 0.24396 0.58489 0.0
C1273 C 0.33189 0.28988 0.59687 0.0
C1274 C 0.374 0.25485 0.60347 0.0
C1275 C 0.35314 0.27719 0.60975 0.0
H1276 H 0.39347 0.19926 0.52538 0.0
H1277 H 0.35399 0.28513 0.62452 0.0
H1278 H 0.3088 0.06651 0.63228 0.0
H1279 H 0.39046 0.99239 0.54389 0.0
H1280 H 0.39209 0.24774 0.61361 0.0
H1281 H 0.31582 0.30723 0.60182 0.0
H1282 H 0.34886 0.02982 0.55073 0.0
H1283 H 0.35862 0.22063 0.50097 0.0
H1284 H 0.29558 0.31123 0.56837 0.0
H1285 H 0.29715 0.2942 0.53491 0.0
H1286 H 0.3309 0.04284 0.66046 0.0
H1287 H 0.32021 0.26025 0.50971 0.0
H1288 H 0.42855 0.97817 0.5698 0.0
N1289 N 0.35052 0.05668 0.61393 0.0
C1290 C 0.37612 0.03851 0.61198 0.0
C1291 C 0.34534 0.04281 0.64708 0.0
C1292 C 0.38986 0.02438 0.6277 0.0
C1293 C 0.33309 0.05676 0.63105 0.0
C1294 C 0.37513 0.02796 0.64552 0.0
N1295 N 0.36742 0.04096 0.57942 0.0
C1296 C 0.36692 0.0254 0.56178 0.0
C1297 C 0.40757 1.00753 0.5911 0.0
C1298 C 0.38454 0.02986 0.59403 0.0
C1299 C 0.41115 0.99543 0.57269 0.0
C1300 C 0.38978 1.00348 0.55802 0.0
H1301 H 0.38481 0.01713 0.6579 0.0
H1302 H 0.42693 0.9942 0.63695 0.0
H1303 H 0.44273 0.97967 0.60478 0.0
O1304 O 0.27982 0.04156 0.56934 0.0
O1305 O 0.4032 0.10702 0.57798 0.0
O1306 O 0.43609 0.178 0.58825 0.0
O1307 O 0.28017 0.02256 0.59775 0.0
O1308 O 0.33248 0.10267 0.55862 0.0
O1309 O 0.40014 0.15831 0.55065 0.0
O1310 O 0.44492 0.27494 0.57578 0.0
O1311 O 0.3335 0.17009 0.56822 0.0
O1312 O 0.31014 0.12451 0.5936 0.0
O1313 O 0.46315 0.24088 0.55633 0.0
O1314 O 0.40663 0.19358 0.60296 0.0
O1315 O 0.34419 0.12662 0.60961 0.0
C1316 C 0.43817 0.14318 0.5836 0.0
C1317 C 0.21272 1.00941 0.58551 0.0
C1318 C 0.1333 0.96609 0.58286 0.0
C1319 C 0.1303 1.00191 0.58943 0.0
C1320 C 0.2083 0.04367 0.59297 0.0
C1321 C 0.1676 0.04033 0.59455 0.0
C1322 C 0.17485 0.97012 0.58072 0.0
C1323 C 0.36514 0.11988 0.54684 0.0
C1324 C 0.25671 0.01506 0.58273 0.0
C1325 C 0.41549 1.00473 0.625 0.0
C1326 C 0.4244 0.99637 0.6067 0.0
C1327 C 0.30552 0.15061 0.58189 0.0
C1328 C 0.51991 0.3067 0.57041 0.0
C1329 C 0.5819 0.37984 0.57697 0.0
C1330 C 0.60361 0.36019 0.58545 0.0
C1331 C 0.5429 0.28832 0.57857 0.0
C1332 C 0.53981 0.3527 0.5694 0.0
C1333 C 0.58437 0.31484 0.58609 0.0
C1334 C 0.37784 0.16429 0.615 0.0
C1335 C 0.47435 0.27856 0.56398 0.0
H1336 H 0.09887 0.99955 0.5914 0.0
H1337 H 0.23614 0.07288 0.59788 0.0
H1338 H 0.1649 0.06733 0.60014 0.0
H1339 H 0.17761 0.94284 0.57551 0.0
H1340 H 0.63607 0.38 0.59115 0.0
H1341 H 0.52854 0.25344 0.57915 0.0
H1342 H 0.52239 0.36729 0.56299 0.0
H1343 H 0.60174 0.30017 0.59242 0.0
Tb1344 Tb 0.99008 0.27922 0.58675 0.0
C1345 C 0.81033 0.13139 0.55586 0.0
N1346 N 0.83626 0.1741 0.55114 0.0
C1347 C 0.82724 0.15479 0.51834 0.0
C1348 C 0.79333 0.09857 0.54194 0.0
C1349 C 0.84364 0.18619 0.5326 0.0
C1350 C 0.80233 0.11077 0.52302 0.0
C1351 C 0.77628 0.0763 0.58021 0.0
C1352 C 0.80165 0.12041 0.5748 0.0
C1353 C 0.75964 0.04358 0.56638 0.0
C1354 C 0.76803 0.05469 0.54731 0.0
Tb1355 Tb 0.85918 0.22194 0.57588 0.0
N1356 N 0.81898 0.15283 0.58791 0.0
C1357 C 0.76858 0.06629 0.59937 0.0
C1358 C 0.80982 0.14315 0.6066 0.0
C1359 C 0.78515 0.09988 0.61259 0.0
H1360 H 0.86084 0.21998 0.52847 0.0
H1361 H 0.77847 0.0925 0.62743 0.0
H1362 H 1.00398 0.27338 0.63312 0.0
H1363 H 0.07633 0.41972 0.5418 0.0
H1364 H 0.82022 0.1683 0.61708 0.0
H1365 H 0.74944 0.0328 0.60409 0.0
H1366 H 0.04056 0.34133 0.55002 0.0
H1367 H 0.83341 0.16464 0.50371 0.0
H1368 H 0.74025 1.00955 0.5703 0.0
H1369 H 0.75491 0.02906 0.53681 0.0
H1370 H 0.02092 0.32107 0.66041 0.0
H1371 H 0.78974 0.08654 0.51192 0.0
H1372 H 0.08689 0.47374 0.56644 0.0
N1373 N 1.00975 0.32121 0.61337 0.0
C1374 C 0.0265 0.36462 0.61043 0.0
C1375 C 0.02147 0.33384 0.64655 0.0
C1376 C 0.03849 0.39401 0.62561 0.0
C1377 C 1.01068 0.30631 0.63101 0.0
C1378 C 0.03412 0.37772 0.64392 0.0
N1379 N 0.02667 0.35079 0.57805 0.0
C1380 C 0.04338 0.36458 0.56046 0.0
C1381 C 0.0573 0.42516 0.58844 0.0
C1382 C 0.03612 0.38012 0.59216 0.0
C1383 C 0.07038 0.43936 0.56991 0.0
C1384 C 0.06437 0.40897 0.55595 0.0
H1385 H 0.04298 0.39926 0.65596 0.0
H1386 H 0.06576 0.46188 0.63347 0.0
H1387 H 0.08208 0.48917 0.60085 0.0
O1388 O 0.02939 0.26273 0.57014 0.0
O1389 O 0.96196 0.31951 0.57659 0.0
O1390 O 0.89679 0.28295 0.59126 0.0
O1391 O 0.05081 0.29172 0.59713 0.0
O1392 O 0.96014 0.24702 0.56051 0.0
O1393 O 0.90668 0.26189 0.55288 0.0
O1394 O 0.79494 0.20544 0.58368 0.0
O1395 O 0.89082 0.18205 0.57254 0.0
O1396 O 0.94852 0.20946 0.59366 0.0
O1397 O 0.82815 0.25113 0.56158 0.0
O1398 O 0.87728 0.23512 0.60655 0.0
O1399 O 0.94665 0.2428 0.61021 0.0
C1400 C 0.92653 0.31836 0.58302 0.0
C1401 C 0.06639 0.23694 0.5892 0.0
C1402 C 0.1112 0.20218 0.58967 0.0
C1403 C 0.08055 0.16998 0.6018 0.0
C1404 C 0.03777 0.20555 0.60205 0.0
C1405 C 0.04429 0.17185 0.60799 0.0
C1406 C 0.10336 0.23527 0.58298 0.0
C1407 C 0.94332 0.2621 0.54846 0.0
C1408 C 0.05802 0.27216 0.58337 0.0
C1409 C 0.05689 0.43884 0.62198 0.0
C1410 C 0.06631 0.4544 0.6034 0.0
C1411 C 0.91576 0.17653 0.5847 0.0
C1412 C 0.75045 0.20685 0.55877 0.0
C1413 C 0.67025 0.17181 0.5553 0.0
C1414 C 0.67566 0.16862 0.53581 0.0
C1415 C 0.7537 0.20266 0.53925 0.0
C1416 C 0.70831 0.19154 0.56679 0.0
C1417 C 0.71672 0.18364 0.52797 0.0
C1418 C 0.90843 0.23461 0.61697 0.0
C1419 C 0.79113 0.22844 0.57039 0.0
H1420 H 0.08497 0.14352 0.60677 0.0
H1421 H 1.01082 0.20771 0.60785 0.0
H1422 H 0.0216 0.14753 0.61771 0.0
H1423 H 0.12646 0.26025 0.57357 0.0
H1424 H 0.64798 0.1551 0.52637 0.0
H1425 H 0.78499 0.21477 0.53252 0.0
H1426 H 0.70524 0.19473 0.58181 0.0
H1427 H 0.71996 0.18097 0.51293 0.0
Tb1428 Tb 0.79236 0.73788 0.58754 0.0
C1429 C 0.92507 0.71447 0.54216 0.0
N1430 N 0.88084 0.69032 0.54141 0.0
C1431 C 0.88407 0.69538 0.50759 0.0
C1432 C 0.95037 0.73171 0.52572 0.0
C1433 C 0.86055 0.67809 0.52426 0.0
C1434 C 0.92909 0.7231 0.50835 0.0
C1435 C 0.99092 0.73888 0.56054 0.0
C1436 C 0.94521 0.71836 0.55928 0.0
C1437 C 1.01632 0.75838 0.54443 0.0
C1438 C 0.99607 0.75498 0.52705 0.0
Tb1439 Tb 0.84639 0.66665 0.57009 0.0
N1440 N 0.91966 0.69983 0.5746 0.0
C1441 C 1.00949 0.73784 0.5778 0.0
C1442 C 0.93727 0.69637 0.59118 0.0
C1443 C 0.98249 0.71581 0.5931 0.0
H1444 H 0.82625 0.65453 0.52319 0.0
H1445 H 0.99648 0.7139 0.60636 0.0
H1446 H 0.77783 0.71081 0.63229 0.0
H1447 H 0.67761 0.72975 0.53527 0.0
H1448 H 0.91633 0.67912 0.60295 0.0
H1449 H 0.0445 0.753 0.57933 0.0
H1450 H 0.74964 0.76057 0.55066 0.0
H1451 H 0.86755 0.68654 0.49413 0.0
H1452 H 0.05155 0.77497 0.54514 0.0
H1453 H 1.01602 0.76889 0.51461 0.0
H1454 H 0.71708 0.66471 0.65328 0.0
H1455 H 0.94731 0.73578 0.49539 0.0
H1456 H 0.61216 0.67215 0.55151 0.0
N1457 N 0.73764 0.69704 0.60817 0.0
C1458 C 0.69634 0.67846 0.60148 0.0
C1459 C 0.71058 0.66757 0.63873 0.0
C1460 C 0.66035 0.65165 0.61294 0.0
C1461 C 0.74516 0.69362 0.62675 0.0
C1462 C 0.66797 0.64583 0.63178 0.0
N1463 N 0.72658 0.71573 0.57326 0.0
C1464 C 0.72192 0.73302 0.55688 0.0
C1465 C 0.64848 0.67047 0.5757 0.0
C1466 C 0.6907 0.68745 0.58317 0.0
C1467 C 0.644 0.68434 0.55781 0.0
C1468 C 0.68087 0.71665 0.54856 0.0
H1469 H 0.64126 0.62569 0.64117 0.0
H1470 H 0.59001 0.61154 0.61382 0.0
H1471 H 0.57953 0.62818 0.58115 0.0
O1472 O 0.78241 0.79189 0.58508 0.0
O1473 O 0.76343 0.66639 0.59282 0.0
O1474 O 0.77678 0.63913 0.56622 0.0
O1475 O 0.81265 0.78358 0.60951 0.0
O1476 O 0.81019 0.74284 0.55784 0.0
O1477 O 0.8024 0.67605 0.54972 0.0
O1478 O 0.82958 0.60789 0.58464 0.0
O1479 O 0.88798 0.73301 0.58033 0.0
O1480 O 0.85382 0.77055 0.57127 0.0
O1481 O 0.86139 0.62143 0.55791 0.0
O1482 O 0.8384 0.6712 0.60152 0.0
O1483 O 0.83985 0.737 0.60644 0.0
C1484 C 0.75085 0.6352 0.58011 0.0
C1485 C 0.84244 0.85515 0.59778 0.0
C1486 C 0.87281 0.93331 0.59225 0.0
C1487 C 0.91494 0.93908 0.59364 0.0
C1488 C 0.88509 0.86215 0.59915 0.0
C1489 C 0.92094 0.90375 0.59703 0.0
C1490 C 0.8364 0.89099 0.5941 0.0
C1491 C 0.79935 0.71128 0.54561 0.0
C1492 C 0.8049 0.81045 0.60011 0.0
C1493 C 0.6182 0.6326 0.60532 0.0
C1494 C 0.61227 0.64197 0.58669 0.0
C1495 C 0.88956 0.76869 0.57427 0.0
C1496 C 0.82706 0.54763 0.56793 0.0
C1497 C 0.82998 0.47952 0.5688 0.0
C1498 C 0.79025 0.45878 0.559 0.0
C1499 C 0.78754 0.52593 0.55815 0.0
C1500 C 0.84843 0.52431 0.57319 0.0
C1501 C 0.76938 0.4818 0.55369 0.0
C1502 C 0.84351 0.70401 0.61261 0.0
C1503 C 0.84737 0.59484 0.5721 0.0
H1504 H 0.94338 0.97118 0.59213 0.0
H1505 H 0.89089 0.83542 0.60193 0.0
H1506 H 0.95356 0.90866 0.59812 0.0
H1507 H 0.80377 0.88616 0.5931 0.0
H1508 H 0.7751 0.42443 0.55559 0.0
H1509 H 0.77087 0.54318 0.5539 0.0
H1510 H 0.87889 0.54077 0.58088 0.0
H1511 H 0.73878 0.46523 0.54615 0.0
H1512 H 0.50785 0.91808 0.11306 0.0
H1513 H 0.47837 0.92231 0.05432 0.0
H1514 H 0.49738 0.86717 0.04698 0.0
H1515 H 0.51985 0.81581 0.05693 0.0
H1516 H 0.55118 0.81009 0.11509 0.0
H1517 H 0.53622 0.86913 0.12278 0.0
C1518 C 0.50602 0.90719 0.09865 0.0
C1519 C 0.49133 0.92434 0.08433 0.0
C1520 C 0.51788 0.87554 0.09434 0.0
C1521 C 0.48896 0.90956 0.06574 0.0
C1522 C 0.50016 0.87812 0.06143 0.0
C1523 C 0.52354 0.82756 0.07131 0.0
C1524 C 0.53587 0.80816 0.08547 0.0
C1525 C 0.51426 0.86065 0.0756 0.0
C1526 C 0.54159 0.82444 0.10394 0.0
C1527 C 0.53263 0.85787 0.10835 0.0
H1528 H 0.24819 0.72573 0.05824 0.0
H1529 H 0.25715 0.76235 0.11661 0.0
H1530 H 0.19769 0.68876 0.12446 0.0
H1531 H 0.14765 0.61197 0.1148 0.0
H1532 H 0.13882 0.57794 0.05598 0.0
H1533 H 0.19481 0.65202 0.04831 0.0
C1534 C 0.23681 0.71769 0.07267 0.0
C1535 C 0.25724 0.74913 0.08687 0.0
C1536 C 0.20331 0.6755 0.07702 0.0
C1537 C 0.24184 0.73863 0.10545 0.0
C1538 C 0.20821 0.69647 0.10994 0.0
C1539 C 0.15752 0.62106 0.10029 0.0
C1540 C 0.13889 0.58939 0.08598 0.0
C1541 C 0.18939 0.6643 0.09588 0.0
C1542 C 0.15272 0.60144 0.06729 0.0
C1543 C 0.18457 0.64395 0.06285 0.0
H1544 H 0.34265 0.55066 0.05913 0.0
H1545 H 0.30758 0.52597 0.11783 0.0
H1546 H 0.38104 0.53983 0.1254 0.0
H1547 H 0.4572 0.56459 0.11537 0.0
H1548 H 0.48993 0.58847 0.05636 0.0
H1549 H 0.416 0.571 0.04901 0.0
C1550 C 0.35105 0.54844 0.07362 0.0
C1551 C 0.31992 0.53812 0.08793 0.0
C1552 C 0.39327 0.5572 0.07786 0.0
C1553 C 0.33096 0.534 0.10654 0.0
C1554 C 0.37307 0.54233 0.11089 0.0
C1555 C 0.44795 0.56568 0.10092 0.0
C1556 C 0.47924 0.57821 0.08646 0.0
C1557 C 0.40482 0.5549 0.09669 0.0
C1558 C 0.46683 0.57963 0.0678 0.0
C1559 C 0.42438 0.56926 0.06354 0.0
H1560 H 0.94875 0.53099 0.93016 0.0
H1561 H 0.89085 0.41548 0.89593 0.0
H1562 H 0.8222 0.41674 0.89496 0.0
H1563 H 0.77989 0.45237 0.90322 0.0
H1564 H 0.84038 0.57143 0.93553 0.0
H1565 H 0.90807 0.56907 0.93692 0.0
C1566 C 0.92151 0.50703 0.92205 0.0
C1567 C 0.92483 0.47399 0.91269 0.0
C1568 C 0.88314 0.50917 0.92095 0.0
C1569 C 0.88876 0.44144 0.90305 0.0
C1570 C 0.84978 0.44234 0.90243 0.0
C1571 C 0.808 0.47786 0.9105 0.0
C1572 C 0.80515 0.51195 0.91933 0.0
C1573 C 0.84679 0.47634 0.91118 0.0
C1574 C 0.84192 0.54509 0.9285 0.0
C1575 C 0.88049 0.54356 0.92943 0.0
H1576 H 0.49683 0.3137 0.93432 0.0
H1577 H 0.48479 0.2981 0.87409 0.0
H1578 H 0.52327 0.3775 0.86998 0.0
H1579 H 0.55656 0.4512 0.88368 0.0
H1580 H 0.56755 0.46691 0.94397 0.0
H1581 H 0.534 0.38794 0.94799 0.0
C1582 C 0.50323 0.32794 0.92033 0.0
C1583 C 0.48834 0.30051 0.90449 0.0
C1584 C 0.52508 0.37354 0.91813 0.0
C1585 C 0.49633 0.31888 0.88641 0.0
C1586 C 0.51823 0.36415 0.88409 0.0
C1587 C 0.55179 0.43722 0.89767 0.0
C1588 C 0.56404 0.46466 0.91351 0.0
C1589 C 0.53218 0.39179 0.89985 0.0
C1590 C 0.55836 0.44638 0.93157 0.0
C1591 C 0.53898 0.40123 0.93387 0.0
H1592 H 0.64111 0.10684 0.91508 0.0
H1593 H 0.57777 0.18311 0.91095 0.0
H1594 H 0.64819 0.25017 0.91359 0.0
H1595 H 0.72708 0.2868 0.91836 0.0
H1596 H 0.79019 0.21018 0.9249 0.0
H1597 H 0.72101 0.14366 0.91893 0.0
C1598 C 0.64287 0.13798 0.91418 0.0
C1599 C 0.60429 0.13983 0.91245 0.0
C1600 C 0.68354 0.17642 0.91608 0.0
C1601 C 0.607 0.18077 0.91221 0.0
C1602 C 0.64727 0.21912 0.9137 0.0
C1603 C 0.72591 0.25564 0.91865 0.0
C1604 C 0.76418 0.25392 0.92236 0.0
C1605 C 0.68569 0.21731 0.91591 0.0
C1606 C 0.76171 0.21298 0.92199 0.0
C1607 C 0.72193 0.17472 0.91876 0.0
H1608 H 0.24263 0.18246 0.44989 0.0
H1609 H 0.23367 0.1709 0.3895 0.0
H1610 H 0.19361 0.21088 0.38862 0.0
H1611 H 0.16746 0.25542 0.40504 0.0
H1612 H 0.17436 0.26386 0.46566 0.0
H1613 H 0.20802 0.21833 0.46652 0.0
C1614 C 0.23111 0.18804 0.4366 0.0
C1615 C 0.24104 0.17395 0.41978 0.0
C1616 C 0.20785 0.21066 0.43626 0.0
C1617 C 0.22614 0.18135 0.40261 0.0
C1618 C 0.20343 0.20435 0.40212 0.0
C1619 C 0.17539 0.24639 0.41844 0.0
C1620 C 0.169 0.26358 0.43526 0.0
C1621 C 0.19489 0.22002 0.41884 0.0
C1622 C 0.17947 0.25154 0.4525 0.0
C1623 C 0.19877 0.22551 0.45301 0.0
H1624 H 0.92027 0.07427 0.44863 0.0
H1625 H 0.92114 0.08305 0.38814 0.0
H1626 H 0.85916 1.00858 0.38622 0.0
H1627 H 0.8092 0.93868 0.40169 0.0
H1628 H 0.80641 0.93032 0.46226 0.0
H1629 H 0.86446 1.00672 0.46433 0.0
C1630 C 0.90593 0.06015 0.43511 0.0
C1631 C 0.92467 0.08404 0.41855 0.0
C1632 C 0.87063 0.01713 0.43415 0.0
C1633 C 0.90661 0.06536 0.40105 0.0
C1634 C 0.87157 0.02267 0.39995 0.0
C1635 C 0.82146 0.95369 0.41532 0.0
C1636 C 0.80432 0.92887 0.43181 0.0
C1637 C 0.85416 0.99782 0.41638 0.0
C1638 C 0.81956 0.94881 0.4494 0.0
C1639 C 0.85262 0.99246 0.45057 0.0
H1640 H 0.12205 0.89099 0.45098 0.0
H1641 H 0.15678 0.92718 0.39273 0.0
H1642 H 0.0846 0.91528 0.38627 0.0
H1643 H 1.01292 0.89826 0.39715 0.0
H1644 H 0.97508 0.86017 0.45479 0.0
H1645 H 0.0465 0.86737 0.46137 0.0
C1646 C 0.11352 0.89568 0.43686 0.0
C1647 C 0.14489 0.91019 0.42243 0.0
C1648 C 0.0714 0.88826 0.43309 0.0
C1649 C 0.13354 0.91654 0.4042 0.0
C1650 C 0.09212 0.90952 0.40041 0.0
C1651 C 0.02039 0.89158 0.41116 0.0
C1652 C 0.98954 0.87974 0.42558 0.0
C1653 C 0.06112 0.89606 0.41478 0.0
C1654 C 0.99878 0.8698 0.44354 0.0
C1655 C 0.03957 0.87414 0.4473 0.0
H1656 H 0.51095 0.87979 0.27519 0.0
H1657 H 0.50921 0.91925 0.21798 0.0
H1658 H 0.54725 0.88107 0.20747 0.0
H1659 H 0.58959 0.84461 0.2155 0.0
H1660 H 0.58908 0.80407 0.27263 0.0
H1661 H 0.5429 0.83361 0.28227 0.0
C1662 C 0.51857 0.87957 0.2604 0.0
C1663 C 0.50804 0.90277 0.2474 0.0
C1664 C 0.54008 0.85733 0.25449 0.0
C1665 C 0.51731 0.90176 0.22823 0.0
C1666 C 0.53906 0.87997 0.22224 0.0
C1667 C 0.57794 0.84089 0.22988 0.0
C1668 C 0.59275 0.82232 0.24342 0.0
C1669 C 0.55169 0.85861 0.23533 0.0
C1670 C 0.57803 0.81819 0.26204 0.0
C1671 C 0.55195 0.83547 0.26757 0.0
H1672 H 0.21665 0.76645 0.22877 0.0
H1673 H 0.25991 0.80942 0.28563 0.0
H1674 H 0.24258 0.73615 0.29444 0.0
H1675 H 0.21592 0.66072 0.28619 0.0
H1676 H 0.17824 0.61707 0.22894 0.0
H1677 H 0.19017 0.68928 0.22032 0.0
C1678 C 0.22222 0.75963 0.24307 0.0
C1679 C 0.23943 0.79327 0.25656 0.0
C1680 C 0.21256 0.7173 0.24803 0.0
C1681 C 0.2469 0.78421 0.27498 0.0
C1682 C 0.23674 0.74225 0.28007 0.0
C1683 C 0.21103 0.66697 0.27169 0.0
C1684 C 0.19721 0.63367 0.25815 0.0
C1685 C 0.21979 0.70871 0.2667 0.0
C1686 C 0.189 0.64204 0.23968 0.0
C1687 C 0.19626 0.68346 0.2347 0.0
H1688 H 0.39719 0.5632 0.29805 0.0
H1689 H 0.44759 0.57323 0.2418 0.0
H1690 H 0.3736 0.53099 0.22952 0.0
H1691 H 0.29469 0.48589 0.23513 0.0
H1692 H 0.24502 0.47374 0.2916 0.0
H1693 H 0.31818 0.52215 0.30332 0.0
C1694 C 0.392 0.55591 0.28312 0.0
C1695 C 0.42797 0.57114 0.27093 0.0
C1696 C 0.34937 0.53117 0.27615 0.0
C1697 C 0.42055 0.56219 0.25153 0.0
C1698 C 0.37822 0.53795 0.24448 0.0
C1699 C 0.29989 0.4943 0.24996 0.0
C1700 C 0.26445 0.47554 0.2625 0.0
C1701 C 0.34238 0.52163 0.2567 0.0
C1702 C 0.27161 0.48734 0.28163 0.0
C1703 C 0.3136 0.51486 0.28839 0.0
H1704 H 0.86449 0.61097 0.78774 0.0
H1705 H 0.81629 0.57933 0.73087 0.0
H1706 H 0.84602 0.53036 0.72805 0.0
H1707 H 0.8908 0.50064 0.74104 0.0
H1708 H 0.94315 0.53689 0.7971 0.0
H1709 H 0.90687 0.57978 0.80103 0.0
C1710 C 0.86087 0.59371 0.77466 0.0
C1711 C 0.83911 0.59967 0.75939 0.0
C1712 C 0.87891 0.5664 0.77302 0.0
C1713 C 0.83317 0.57565 0.7428 0.0
C1714 C 0.85035 0.54775 0.74115 0.0
C1715 C 0.89378 0.51766 0.75414 0.0
C1716 C 0.91944 0.51568 0.76879 0.0
C1717 C 0.87399 0.54347 0.75605 0.0
C1718 C 0.92354 0.53809 0.78566 0.0
C1719 C 0.90295 0.56268 0.78787 0.0
H1720 H 0.54457 0.41045 0.79177 0.0
H1721 H 0.55325 0.43244 0.7319 0.0
H1722 H 0.51317 0.35341 0.72624 0.0
H1723 H 0.47033 0.27804 0.73875 0.0
H1724 H 0.46335 0.2576 0.79882 0.0
H1725 H 0.50909 0.33578 0.80404 0.0
C1726 C 0.53796 0.39776 0.77751 0.0
C1727 C 0.55115 0.42678 0.76227 0.0
C1728 C 0.51562 0.3526 0.77443 0.0
C1729 C 0.54303 0.41037 0.74381 0.0
C1730 C 0.52021 0.36531 0.7406 0.0
C1731 C 0.47993 0.29077 0.75291 0.0
C1732 C 0.46342 0.26235 0.7684 0.0
C1733 C 0.50572 0.33605 0.75583 0.0
C1734 C 0.47563 0.27905 0.78671 0.0
C1735 C 0.50159 0.32373 0.78971 0.0
H1736 H 0.64677 0.15128 0.78915 0.0
H1737 H 0.63521 0.17133 0.7301 0.0
H1738 H 0.71478 0.20974 0.72673 0.0
H1739 H 0.78736 0.23208 0.74033 0.0
H1740 H 0.79794 0.21487 0.79984 0.0
H1741 H 0.71925 0.18138 0.8034 0.0
C1742 C 0.66186 0.16457 0.77562 0.0
C1743 C 0.63555 0.15834 0.75986 0.0
C1744 C 0.70738 0.18693 0.77389 0.0
C1745 C 0.65512 0.1759 0.7424 0.0
C1746 C 0.70049 0.19767 0.74048 0.0
C1747 C 0.77241 0.22179 0.7541 0.0
C1748 C 0.79817 0.22497 0.76973 0.0
C1749 C 0.72696 0.2027 0.75607 0.0
C1750 C 0.77855 0.21179 0.78753 0.0
C1751 C 0.73359 0.19272 0.78959 0.0
H1752 H 0.16273 0.18951 0.61371 0.0
H1753 H 0.15028 0.21224 0.555 0.0
H1754 H 0.21084 0.19987 0.54726 0.0
H1755 H 0.26284 0.17573 0.55714 0.0
H1756 H 0.27325 0.15296 0.61612 0.0
H1757 H 0.21694 0.17069 0.62372 0.0
C1758 C 0.17321 0.19175 0.59919 0.0
C1759 C 0.15148 0.20093 0.58491 0.0
C1760 C 0.20712 0.1837 0.59487 0.0
C1761 C 0.16635 0.20505 0.56625 0.0
C1762 C 0.20067 0.19756 0.56182 0.0
C1763 C 0.253 0.17514 0.57165 0.0
C1764 C 0.27204 0.1628 0.58604 0.0
C1765 C 0.22059 0.18577 0.57598 0.0
C1766 C 0.2588 0.16185 0.60477 0.0
C1767 C 0.22677 0.17225 0.60915 0.0
H1768 H 0.90595 1.00399 0.61443 0.0
H1769 H 0.83107 0.95084 0.56381 0.0
H1770 H 0.83637 0.02148 0.55692 0.0
H1771 H 0.86934 0.10073 0.564 0.0
H1772 H 0.94234 0.15066 0.61542 0.0
H1773 H 0.93193 0.07961 0.62299 0.0
C1774 C 0.89025 1.00774 0.60202 0.0
C1775 C 0.86845 0.97255 0.58958 0.0
C1776 C 0.89396 0.04824 0.5981 0.0
C1777 C 0.84791 0.97755 0.57363 0.0
C1778 C 0.85132 0.01802 0.56962 0.0
C1779 C 0.88214 0.09587 0.57704 0.0
C1780 C 0.90687 0.13163 0.58908 0.0
C1781 C 0.87531 0.05402 0.58154 0.0
C1782 C 0.92379 0.12446 0.60573 0.0
C1783 C 0.91759 0.08349 0.61018 0.0
H1784 H 0.06171 0.95053 0.56253 0.0
H1785 H 0.11301 0.88775 0.5979 0.0
H1786 H 0.04156 0.82171 0.59876 0.0
H1787 H 0.96376 0.78466 0.59177 0.0
H1788 H 0.9122 0.84376 0.55449 0.0
H1789 H 0.98429 0.90955 0.55269 0.0
C1790 C 0.05729 0.92201 0.57012 0.0
C1791 C 0.09253 0.92391 0.58014 0.0
C1792 C 1.01607 0.88408 0.57051 0.0
C1793 C 0.08656 0.88686 0.58989 0.0
C1794 C 0.04562 0.84928 0.59055 0.0
C1795 C 0.96845 0.81116 0.58269 0.0
C1796 C 0.9328 0.80879 0.57294 0.0
C1797 C 1.01006 0.84789 0.5812 0.0
C1798 C 0.93913 0.84462 0.56207 0.0
C1799 C 0.98038 0.88209 0.56095 0.0
H1800 H 0.48876 0.97778 0.03084 0.0
H1801 H 0.5445 0.11635 0.03817 0.0
H1802 H 0.55342 0.12644 0.00383 0.0
H1803 H 0.53898 0.09464 0.97169 0.0
H1804 H 0.47565 0.95503 0.96508 0.0
H1805 H 0.47643 0.94649 0.99921 0.0
C1806 C 0.50297 1.01031 0.02499 0.0
C1807 C 0.51532 0.04624 0.03709 0.0
C1808 C 0.50628 0.01549 0.00533 0.0
C1809 C 0.53485 0.08819 0.02923 0.0
C1810 C 0.53951 0.09384 0.00958 0.0
C1811 C 0.52486 0.06229 0.97772 0.0
C1812 C 0.50616 0.02541 0.96576 0.0
C1813 C 0.52417 0.05755 0.99748 0.0
C1814 C 0.49002 0.98394 0.97383 0.0
C1815 C 0.49026 0.97904 0.99339 0.0
H1816 H 0.97992 0.47423 0.97245 0.0
H1817 H 0.11982 0.54031 0.96732 0.0
H1818 H 0.12643 0.54354 1.00179 0.0
H1819 H 0.09223 0.52214 0.03319 0.0
H1820 H 0.95233 0.45388 0.03837 0.0
H1821 H 0.94587 0.45738 0.00404 0.0
C1822 C 1.01198 0.48994 0.97885 0.0
C1823 C 0.04945 0.50678 0.96719 0.0
C1824 C 1.0154 0.49085 0.99868 0.0
C1825 C 0.09056 0.5273 0.97581 0.0
C1826 C 0.09426 0.52875 0.99556 0.0
C1827 C 0.06021 0.50789 0.02687 0.0
C1828 C 0.02268 0.48693 0.03845 0.0
C1829 C 0.05688 0.50968 0.00711 0.0
C1830 C 0.98167 0.47 0.02992 0.0
C1831 C 0.97804 0.47186 0.01025 0.0
H1832 H 0.59825 0.53344 0.97221 0.0
H1833 H 0.53349 0.60853 0.96649 0.0
H1834 H 0.52656 0.60939 1.00078 0.0
H1835 H 0.54412 0.5942 0.03227 0.0
H1836 H 0.61288 0.52319 0.03853 0.0
H1837 H 0.61292 0.51516 0.00412 0.0
C1838 C 0.58272 0.55015 0.97845 0.0
C1839 C 0.5672 0.57175 0.96669 0.0
C1840 C 0.57974 0.55133 0.99827 0.0
C1841 C 0.54594 0.59192 0.97508 0.0
C1842 C 0.54218 0.59258 0.99473 0.0
C1843 C 0.55897 0.57668 0.02619 0.0
C1844 C 0.57904 0.55979 0.03807 0.0
C1845 C 0.55976 0.57321 0.00645 0.0
C1846 C 0.59727 0.53653 0.02982 0.0
C1847 C 0.59754 0.53225 0.01012 0.0
H1848 H 0.16081 0.30959 0.37235 0.0
H1849 H 0.20603 0.44686 0.3784 0.0
H1850 H 0.20951 0.45492 0.34405 0.0
H1851 H 0.19369 0.42203 0.3126 0.0
H1852 H 0.14732 0.28471 0.30592 0.0
H1853 H 0.15049 0.27755 0.34028 0.0
C1854 C 0.17208 0.34145 0.36615 0.0
C1855 C 0.18287 0.37764 0.37804 0.0
C1856 C 0.17328 0.34564 0.34631 0.0
C1857 C 0.19772 0.41862 0.36971 0.0
C1858 C 0.1993 0.42309 0.35004 0.0
C1859 C 0.18444 0.39042 0.31853 0.0
C1860 C 0.16968 0.35376 0.30652 0.0
C1861 C 0.18617 0.38667 0.33823 0.0
C1862 C 0.1587 0.31342 0.31468 0.0
C1863 C 0.16036 0.30936 0.33436 0.0
H1864 H 0.64558 0.80968 0.3652 0.0
H1865 H 0.78481 0.88419 0.37232 0.0
H1866 H 0.79494 0.89478 0.33838 0.0
H1867 H 0.76438 0.87562 0.30585 0.0
H1868 H 0.62451 0.80588 0.29969 0.0
H1869 H 0.6151 0.80177 0.33337 0.0
C1870 C 0.67805 0.82899 0.35937 0.0
C1871 C 0.71425 0.84471 0.37137 0.0
C1872 C 0.68387 0.83572 0.33968 0.0
C1873 C 0.75613 0.87042 0.36344 0.0
C1874 C 0.76212 0.87662 0.34394 0.0
C1875 C 0.73194 0.86059 0.31186 0.0
C1876 C 0.69542 0.84055 0.29988 0.0
C1877 C 0.72626 0.8583 0.33175 0.0
C1878 C 0.6536 0.82127 0.30822 0.0
C1879 C 0.6479 0.81862 0.3277 0.0
H1880 H 0.25143 0.85718 0.30697 0.0
H1881 H 0.18741 0.93289 0.30136 0.0
H1882 H 0.18373 0.93637 0.33588 0.0
H1883 H 0.20631 0.92481 0.36729 0.0
H1884 H 0.27204 0.85054 0.37263 0.0
H1885 H 0.26749 0.8395 0.33839 0.0
C1886 C 0.23595 0.87387 0.31325 0.0
C1887 C 0.21991 0.89503 0.3015 0.0
C1888 C 0.23491 0.87645 0.33302 0.0
C1889 C 0.19967 0.9161 0.30996 0.0
C1890 C 0.19806 0.91845 0.32971 0.0
C1891 C 0.21928 0.90574 0.36104 0.0
C1892 C 0.24008 0.88893 0.37261 0.0
C1893 C 0.21676 0.89985 0.34134 0.0
C1894 C 0.256 0.86385 0.36418 0.0
C1895 C 0.25354 0.85774 0.34458 0.0
H1896 H 0.87552 0.75691 0.69843 0.0
H1897 H 0.80277 0.61731 0.7052 0.0
H1898 H 0.80384 0.60729 0.67139 0.0
H1899 H 0.81822 0.6381 0.63905 0.0
H1900 H 0.89422 0.77761 0.63238 0.0
H1901 H 0.89973 0.78729 0.66639 0.0
C1902 C 0.8607 0.72434 0.69256 0.0
C1903 C 0.83795 0.68808 0.7045 0.0
C1904 C 0.86176 0.71853 0.67281 0.0
C1905 C 0.81943 0.64609 0.69645 0.0
C1906 C 0.8201 0.64015 0.67699 0.0
C1907 C 0.83713 0.67046 0.64503 0.0
C1908 C 0.85539 0.70694 0.63301 0.0
C1909 C 0.8401 0.6761 0.66489 0.0
C1910 C 0.87938 0.74875 0.64119 0.0
C1911 C 0.88247 0.75449 0.66074 0.0
H1912 H 0.31213 0.1329 0.64104 0.0
H1913 H 0.45089 0.21787 0.63579 0.0
H1914 H 0.45682 0.22708 0.67012 0.0
H1915 H 0.42326 0.20645 0.70185 0.0
H1916 H 0.28502 0.11846 0.70692 0.0
H1917 H 0.27817 0.11513 0.67253 0.0
C1918 C 0.34381 0.15334 0.64735 0.0
C1919 C 0.3812 0.17403 0.63571 0.0
C1920 C 0.347 0.15785 0.66715 0.0
C1921 C 0.42161 0.20145 0.64426 0.0
C1922 C 0.425 0.20653 0.66395 0.0
C1923 C 0.39153 0.18679 0.69543 0.0
C1924 C 0.35471 0.16224 0.70707 0.0
C1925 C 0.38803 0.18426 0.67557 0.0
C1926 C 0.31385 0.13759 0.69844 0.0
C1927 C 0.31001 0.13544 0.67872 0.0
H1928 H 0.85534 0.24338 0.64349 0.0
H1929 H 0.9473 0.19829 0.63693 0.0
H1930 H 0.94758 0.1873 0.67042 0.0
H1931 H 0.92918 0.19874 0.70249 0.0
H1932 H 0.83743 0.2436 0.70993 0.0
H1933 H 0.82941 0.24583 0.67585 0.0
C1934 C 0.87471 0.23035 0.64936 0.0
C1935 C 0.90157 0.22221 0.63741 0.0
C1936 C 0.87528 0.22441 0.66912 0.0
C1937 C 0.9263 0.20514 0.64549 0.0
C1938 C 0.92678 0.19896 0.66486 0.0
C1939 C 0.90654 0.2078 0.69665 0.0
C1940 C 0.88443 0.22144 0.70878 0.0
C1941 C 0.90241 0.2096 0.67692 0.0
C1942 C 0.85529 0.23331 0.70091 0.0
C1943 C 0.85079 0.23484 0.68136 0.0
H1944 H 0.27604 0.95586 0.17922 0.0
H1945 H 0.35647 0.91878 0.21044 0.0
H1946 H 0.41541 0.95606 0.18838 0.0
H1947 H 0.44425 0.99585 0.15843 0.0
H1948 H 0.35 0.99508 0.12048 0.0
H1949 H 0.29816 0.97757 0.14565 0.0
C1950 C 0.30646 0.95611 0.18126 0.0
C1951 C 0.31305 0.9387 0.198 0.0
C1952 C 0.3389 0.97236 0.16683 0.0
C1953 C 0.35185 0.93666 0.19928 0.0
C1954 C 0.38561 0.95695 0.18617 0.0
C1955 C 0.41311 0.99368 0.15586 0.0
C1956 C 0.40434 1.00435 0.1379 0.0
C1957 C 0.37991 0.9755 0.16986 0.0
C1958 C 0.36123 0.99515 0.13452 0.0
C1959 C 0.3302 0.9826 0.14895 0.0
H1960 H 0.1088 0.42973 0.13431 0.0
H1961 H 1.01134 0.44769 0.16292 0.0
H1962 H 0.0327 0.42877 0.19287 0.0
H1963 H 0.08075 0.40917 0.21074 0.0
H1964 H 0.16524 0.37527 0.18043 0.0
H1965 H 0.14647 0.39776 0.15102 0.0
C1966 C 0.09108 0.42872 0.1469 0.0
C1967 C 0.05806 0.44038 0.14599 0.0
C1968 C 0.10115 0.41456 0.16373 0.0
C1969 C 0.0367 0.43918 0.16286 0.0
C1970 C 0.0489 0.42813 0.18003 0.0
C1971 C 0.09416 0.4051 0.19769 0.0
C1972 C 0.12418 0.38939 0.1981 0.0
C1973 C 0.08118 0.41582 0.18061 0.0
C1974 C 0.14176 0.38611 0.18087 0.0
C1975 C 0.13113 0.39938 0.16397 0.0
H1976 H 0.72161 0.73377 0.19627 0.0
H1977 H 0.64038 0.79008 0.1859 0.0
H1978 H 0.6068 0.74138 0.15916 0.0
H1979 H 0.59546 0.67873 0.14059 0.0
H1980 H 0.67399 0.61915 0.15055 0.0
H1981 H 0.71223 0.67157 0.17609 0.0
C1982 C 0.69776 0.73636 0.18765 0.0
C1983 C 0.68426 0.76634 0.1928 0.0
C1984 C 0.67662 0.70622 0.17281 0.0
C1985 C 0.65223 0.7683 0.18192 0.0
C1986 C 0.63228 0.7397 0.1669 0.0
C1987 C 0.62057 0.67668 0.14848 0.0
C1988 C 0.63137 0.6445 0.14375 0.0
C1989 C 0.64309 0.70757 0.16266 0.0
C1990 C 0.66421 0.64275 0.15413 0.0
C1991 C 0.68674 0.67342 0.16846 0.0
H1992 H 0.06521 0.40753 0.85898 0.0
H1993 H 0.96613 0.44411 0.85765 0.0
H1994 H 0.9266 0.38936 0.83355 0.0
H1995 H 0.91597 0.32688 0.81516 0.0
H1996 H 1.01333 0.28796 0.8152 0.0
H1997 H 0.05639 0.34586 0.83821 0.0
C1998 C 0.0358 0.40449 0.85287 0.0
C1999 C 0.01891 0.43041 0.86008 0.0
C2000 C 1.0117 0.37087 0.83955 0.0
C2001 C 0.98029 0.42534 0.85222 0.0
C2002 C 0.95708 0.39322 0.83874 0.0
C2003 C 0.94637 0.33044 0.82035 0.0
C2004 C 0.96107 0.30256 0.81342 0.0
C2005 C 0.97155 0.36476 0.83288 0.0
C2006 C 1.00065 0.30815 0.82041 0.0
C2007 C 0.02569 0.34195 0.83332 0.0
H2008 H 0.66662 0.68682 0.86068 0.0
H2009 H 0.61339 0.54905 0.8517 0.0
H2010 H 0.66391 0.56403 0.82572 0.0
H2011 H 0.72805 0.61491 0.80814 0.0
H2012 H 0.78258 0.75349 0.81498 0.0
H2013 H 0.72892 0.73971 0.84005 0.0
C2014 C 0.66513 0.6602 0.85255 0.0
C2015 C 0.63554 0.61663 0.85806 0.0
C2016 C 0.69606 0.66922 0.83792 0.0
C2017 C 0.63494 0.58266 0.84762 0.0
C2018 C 0.66457 0.59126 0.83299 0.0
C2019 C 0.72821 0.64249 0.81481 0.0
C2020 C 0.75949 0.68539 0.80931 0.0
C2021 C 0.69621 0.63425 0.82849 0.0
C2022 C 0.75936 0.72019 0.81881 0.0
C2023 C 0.72815 0.71219 0.83301 0.0
H2024 H 0.3438 0.04441 0.81319 0.0
H2025 H 0.42686 0.18244 0.82171 0.0
H2026 H 0.46476 0.16843 0.84708 0.0
H2027 H 0.4806 0.11783 0.86408 0.0
H2028 H 0.3976 0.97921 0.8571 0.0
H2029 H 0.3555 0.99243 0.83305 0.0
C2030 C 0.36912 0.07133 0.82111 0.0
C2031 C 0.38188 0.11461 0.81567 0.0
C2032 C 0.39231 0.06288 0.8353 0.0
C2033 C 0.41555 0.14898 0.82582 0.0
C2034 C 0.43796 0.14092 0.84007 0.0
C2035 C 0.45277 0.09025 0.85766 0.0
C2036 C 0.44215 0.04741 0.86278 0.0
C2037 C 0.42769 0.09814 0.84446 0.0
C2038 C 0.40689 1.01247 0.85353 0.0
C2039 C 0.3824 0.0201 0.83991 0.0
H2040 H 0.99951 0.24233 0.53177 0.0
H2041 H 0.9509 0.33181 0.52725 0.0
H2042 H 1.00738 0.37414 0.50355 0.0
H2043 H 0.07111 0.38511 0.48382 0.0
H2044 H 0.1153 0.29211 0.48828 0.0
H2045 H 0.0624 0.25382 0.51329 0.0
C2046 C 1.00081 0.2709 0.52552 0.0
C2047 C 0.97056 0.28359 0.53134 0.0
C2048 C 0.03391 0.29548 0.51236 0.0
C2049 C 0.97295 0.32064 0.52288 0.0
C2050 C 1.00588 0.3453 0.50955 0.0
C2051 C 0.06983 0.35714 0.49066 0.0
C2052 C 0.0976 0.34174 0.48422 0.0
C2053 C 0.03694 0.33331 0.5043 0.0
C2054 C 0.095 0.30509 0.49309 0.0
C2055 C 0.06404 0.2826 0.50713 0.0
H2056 H 0.68294 0.70878 0.47651 0.0
H2057 H 0.75915 0.84718 0.48607 0.0
H2058 H 0.79899 0.83524 0.51119 0.0
H2059 H 0.81673 0.78668 0.52864 0.0
H2060 H 0.73746 0.6475 0.52215 0.0
H2061 H 0.69672 0.65846 0.49665 0.0
C2062 C 0.70708 0.73613 0.48463 0.0
C2063 C 0.71731 0.77895 0.47957 0.0
C2064 C 0.73106 0.72896 0.49885 0.0
C2065 C 0.74952 0.81397 0.48997 0.0
C2066 C 0.77321 0.80718 0.50402 0.0
C2067 C 0.79071 0.75851 0.52159 0.0
C2068 C 0.78029 0.7162 0.52747 0.0
C2069 C 0.76528 0.76502 0.50812 0.0
C2070 C 0.74661 0.68038 0.51796 0.0
C2071 C 0.72267 0.68672 0.50362 0.0
H2072 H 0.36318 1.00238 0.47792 0.0
H2073 H 0.22525 0.95154 0.4845 0.0
H2074 H 0.23882 1.00089 0.51089 0.0
H2075 H 0.28917 0.06248 0.53024 0.0
H2076 H 0.42777 0.11658 0.5243 0.0
H2077 H 0.41493 0.06372 0.49902 0.0
C2078 C 0.33615 1.00126 0.48556 0.0
C2079 C 0.29303 0.97263 0.47933 0.0
C2080 C 0.34445 0.03173 0.5003 0.0
C2081 C 0.25852 0.97245 0.48913 0.0
C2082 C 0.26637 1.00135 0.50402 0.0
C2083 C 0.31686 0.06317 0.52338 0.0
C2084 C 0.35958 0.09413 0.52918 0.0
C2085 C 0.30912 0.03205 0.5093 0.0
C2086 C 0.39467 0.09405 0.51997 0.0
C2087 C 0.38719 0.06313 0.50574 0.0
H2088 H 0.4585 0.26444 0.0761 0.0
H2089 H 0.56293 0.31566 0.11661 0.0
H2090 H 0.56385 0.24691 0.11593 0.0
H2091 H 0.52984 0.16982 0.10619 0.0
H2092 H 0.42712 0.11981 0.0647 0.0
H2093 H 0.43025 0.19012 0.06361 0.0
C2094 C 0.48202 0.2608 0.08451 0.0
C2095 C 0.51054 0.29514 0.09645 0.0
C2096 C 0.48194 0.221 0.08421 0.0
C2097 C 0.54097 0.29002 0.10718 0.0
C2098 C 0.5411 0.25047 0.10695 0.0
C2099 C 0.50817 0.17422 0.09683 0.0
C2100 C 0.47712 0.13871 0.08603 0.0
C2101 C 0.51087 0.2153 0.09593 0.0
C2102 C 0.45038 0.14579 0.07361 0.0
C2103 C 0.45237 0.18625 0.07287 0.0
H2104 H 0.8133 0.20855 0.10262 0.0
H2105 H 0.73821 0.27343 0.09712 0.0
H2106 H 0.80495 0.34146 0.08929 0.0
H2107 H 0.88635 0.38494 0.08742 0.0
H2108 H 0.95918 0.31948 0.09695 0.0
H2109 H 0.89246 0.25046 0.10032 0.0
C2110 C 0.81107 0.23756 0.10015 0.0
C2111 C 0.77001 0.23526 0.10108 0.0
C2112 C 0.84986 0.2773 0.0968 0.0
C2113 C 0.76872 0.27342 0.09667 0.0
C2114 C 0.80722 0.31281 0.09248 0.0
C2115 C 0.88773 0.35579 0.09058 0.0
C2116 C 0.92888 0.35848 0.09255 0.0
C2117 C 0.84826 0.31557 0.09311 0.0
C2118 C 0.92908 0.31943 0.09572 0.0
C2119 C 0.89044 0.27952 0.09764 0.0
H2120 H 0.72691 0.60166 0.11942 0.0
H2121 H 0.68736 0.56439 0.06191 0.0
H2122 H 0.73774 0.53612 0.05923 0.0
H2123 H 0.78727 0.5147 0.0745 0.0
H2124 H 0.83068 0.55639 0.1313 0.0
H2125 H 0.78563 0.59096 0.13295 0.0
C2126 C 0.7302 0.58827 0.10619 0.0
C2127 C 0.70343 0.58504 0.09086 0.0
C2128 C 0.75989 0.5727 0.10468 0.0
C2129 C 0.70789 0.56761 0.0738 0.0
C2130 C 0.73649 0.55114 0.07234 0.0
C2131 C 0.78769 0.53235 0.08706 0.0
C2132 C 0.81235 0.53293 0.10278 0.0
C2133 C 0.76188 0.5525 0.08783 0.0
C2134 C 0.81239 0.55578 0.11897 0.0
C2135 C 0.78627 0.57521 0.11997 0.0
H2136 H 0.31061 0.55603 0.9006 0.0
H2137 H 0.27039 0.41947 0.89912 0.0
H2138 H 0.19624 0.40046 0.90807 0.0
H2139 H 0.14042 0.42251 0.9124 0.0
H2140 H 0.18078 0.55912 0.91264 0.0
H2141 H 0.25645 0.57817 0.9082 0.0
C2142 C 0.28588 0.52221 0.90272 0.0
C2143 C 0.29615 0.48928 0.89917 0.0
C2144 C 0.24283 0.51141 0.90739 0.0
C2145 C 0.26338 0.44549 0.90171 0.0
C2146 C 0.22085 0.43456 0.90676 0.0
C2147 C 0.16589 0.45633 0.91202 0.0
C2148 C 0.15473 0.48928 0.91276 0.0
C2149 C 0.20974 0.46716 0.90909 0.0
C2150 C 0.18835 0.53308 0.91191 0.0
C2151 C 0.23177 0.54406 0.90937 0.0
H2152 H 0.62585 0.84073 0.88743 0.0
H2153 H 0.49266 0.77954 0.90679 0.0
H2154 H 0.49696 0.7159 0.91702 0.0
H2155 H 0.53663 0.67506 0.91841 0.0
H2156 H 0.6681 0.73475 0.89708 0.0
H2157 H 0.66596 0.80082 0.88945 0.0
C2158 C 0.59751 0.81348 0.89378 0.0
C2159 C 0.55872 0.81527 0.89606 0.0
C2160 C 0.59979 0.77628 0.89918 0.0
C2161 C 0.52308 0.77975 0.90491 0.0
C2162 C 0.52538 0.74297 0.91062 0.0
C2163 C 0.56503 0.70258 0.9122 0.0
C2164 C 0.60272 0.69965 0.90848 0.0
C2165 C 0.56328 0.74049 0.90751 0.0
C2166 C 0.63889 0.73586 0.90035 0.0
C2167 C 0.63758 0.77376 0.89588 0.0
H2168 H 0.39406 0.89642 0.93092 0.0
H2169 H 0.34614 0.94882 0.88848 0.0
H2170 H 0.28775 0.87482 0.88067 0.0
H2171 H 0.25383 0.79375 0.88423 0.0
H2172 H 0.30194 0.74331 0.92742 0.0
H2173 H 0.35596 0.81748 0.93676 0.0
C2174 C 0.37057 0.89179 0.92008 0.0
C2175 C 0.3749 0.92837 0.9102 0.0
C2176 C 0.33686 0.84916 0.91582 0.0
C2177 C 0.34374 0.9215 0.89635 0.0
C2178 C 0.31036 0.87903 0.89183 0.0
C2179 C 0.27543 0.79917 0.896 0.0
C2180 C 0.27347 0.76287 0.90528 0.0
C2181 C 0.30696 0.84239 0.90125 0.0
C2182 C 0.30233 0.77051 0.92024 0.0
C2183 C 0.3335 0.81299 0.92548 0.0
H2184 H 0.21604 0.63284 0.44082 0.0
H2185 H 0.0922 0.5985 0.41608 0.0
H2186 H 0.07798 0.52445 0.40992 0.0
H2187 H 0.09711 0.46613 0.41507 0.0
H2188 H 0.22069 0.50209 0.44086 0.0
H2189 H 0.23838 0.57739 0.44283 0.0
C2190 C 0.18664 0.60963 0.4335 0.0
C2191 C 0.15552 0.62166 0.42879 0.0
C2192 C 0.17804 0.56646 0.43047 0.0
C2193 C 0.11701 0.59044 0.41973 0.0
C2194 C 0.10862 0.54779 0.41635 0.0
C2195 C 0.12815 0.49053 0.42079 0.0
C2196 C 0.15713 0.47762 0.428 0.0
C2197 C 0.13828 0.5348 0.42219 0.0
C2198 C 0.19726 0.51032 0.43538 0.0
C2199 C 0.20763 0.55384 0.43654 0.0
H2200 H 0.56048 0.72701 0.42229 0.0
H2201 H 0.63246 0.66005 0.43128 0.0
H2202 H 0.56549 0.59244 0.43703 0.0
H2203 H 0.48692 0.55213 0.44086 0.0
H2204 H 0.41322 0.61857 0.43644 0.0
H2205 H 0.47957 0.68558 0.42701 0.0
C2206 C 0.5615 0.69757 0.4254 0.0
C2207 C 0.60218 0.69896 0.42597 0.0
C2208 C 0.52219 0.65837 0.42949 0.0
C2209 C 0.60232 0.66034 0.43032 0.0
C2210 C 0.56371 0.62139 0.43373 0.0
C2211 C 0.48503 0.58123 0.43807 0.0
C2212 C 0.44465 0.5799 0.43975 0.0
C2213 C 0.52355 0.62006 0.43355 0.0
C2214 C 0.44339 0.61802 0.43525 0.0
C2215 C 0.4816 0.65666 0.43003 0.0
H2216 H 0.4374 0.83171 0.41228 0.0
H2217 H 0.51161 0.91258 0.45883 0.0
H2218 H 0.47146 0.95233 0.45707 0.0
H2219 H 0.40733 0.95626 0.44524 0.0
H2220 H 0.33464 0.87627 0.39821 0.0
H2221 H 0.382 0.8444 0.39698 0.0
C2222 C 0.44573 0.85903 0.42161 0.0
C2223 C 0.47766 0.86936 0.43561 0.0
C2224 C 0.42227 0.88155 0.42055 0.0
C2225 C 0.48767 0.9044 0.44779 0.0
C2226 C 0.46434 0.92681 0.4469 0.0
C2227 C 0.40302 0.93304 0.43431 0.0
C2228 C 0.36791 0.91904 0.42164 0.0
C2229 C 0.4305 0.9147 0.43375 0.0
C2230 C 0.36195 0.88818 0.40783 0.0
C2231 C 0.38878 0.86961 0.40727 0.0
H2232 H 0.81886 0.80765 0.22318 0.0
H2233 H 0.80136 0.81412 0.2829 0.0
H2234 H 0.87864 0.83788 0.28811 0.0
H2235 H 0.95328 0.86431 0.27512 0.0
H2236 H 0.96891 0.85312 0.21554 0.0
H2237 H 0.89062 0.82345 0.21084 0.0
C2238 C 0.83176 0.81337 0.2374 0.0
C2239 C 0.80424 0.80926 0.25264 0.0
C2240 C 0.87618 0.82665 0.24026 0.0
C2241 C 0.82152 0.81665 0.27095 0.0
C2242 C 0.86592 0.83066 0.27388 0.0
C2243 C 0.93937 0.85463 0.26115 0.0
C2244 C 0.96727 0.86128 0.24565 0.0
C2245 C 0.89389 0.8369 0.25859 0.0
C2246 C 0.94849 0.84827 0.2277 0.0
C2247 C 0.90364 0.83152 0.225 0.0
H2248 H 0.24819 0.03445 0.27149 0.0
H2249 H 0.26197 0.02175 0.21184 0.0
H2250 H 0.24515 0.07924 0.20534 0.0
H2251 H 0.21751 0.12676 0.21607 0.0
H2252 H 0.20345 0.14147 0.27538 0.0
H2253 H 0.22942 0.09035 0.28257 0.0
C2254 C 0.24873 0.04525 0.25715 0.0
C2255 C 0.25618 0.02358 0.24216 0.0
C2256 C 0.2382 0.07834 0.25341 0.0
C2257 C 0.25615 0.03763 0.22362 0.0
C2258 C 0.24632 0.07046 0.21986 0.0
C2259 C 0.22101 0.11944 0.23059 0.0
C2260 C 0.20849 0.13783 0.24516 0.0
C2261 C 0.23585 0.09001 0.23456 0.0
C2262 C 0.21314 0.12798 0.26391 0.0
C2263 C 0.22774 0.09849 0.268 0.0
H2264 H 0.94073 0.10758 0.22371 0.0
H2265 H 0.8899 0.11404 0.27789 0.0
H2266 H 0.95438 0.18568 0.28373 0.0
H2267 H 0.02294 0.24902 0.27215 0.0
H2268 H 0.06974 0.24286 0.21671 0.0
H2269 H 1.00953 0.16908 0.21263 0.0
C2270 C 0.94464 0.12416 0.23704 0.0
C2271 C 0.91152 0.10529 0.2506 0.0
C2272 C 0.98078 0.16586 0.23991 0.0
C2273 C 0.9158 0.12761 0.26752 0.0
C2274 C 0.95231 0.16877 0.27071 0.0
C2275 C 0.01994 0.23142 0.25922 0.0
C2276 C 0.05137 0.25136 0.24491 0.0
C2277 C 0.98459 0.18873 0.2568 0.0
C2278 C 0.04671 0.22817 0.22816 0.0
C2279 C 1.01211 0.18587 0.22574 0.0
H2280 H 0.85359 0.83367 0.73759 0.0
H2281 H 0.76365 0.77726 0.78388 0.0
H2282 H 0.78115 0.85011 0.79437 0.0
H2283 H 0.82738 0.93085 0.79201 0.0
H2284 H 0.91356 0.98688 0.74458 0.0
H2285 H 0.89176 0.91374 0.73274 0.0
C2286 C 0.8374 0.83729 0.74985 0.0
C2287 C 0.80772 0.79979 0.76007 0.0
C2288 C 0.84693 0.87947 0.75556 0.0
C2289 C 0.7867 0.80526 0.77577 0.0
C2290 C 0.79681 0.84709 0.78181 0.0
C2291 C 0.84032 0.92696 0.77877 0.0
C2292 C 0.87177 0.96447 0.76907 0.0
C2293 C 0.82748 0.88455 0.77202 0.0
C2294 C 0.88879 0.95878 0.75212 0.0
C2295 C 0.87667 0.91685 0.74547 0.0
H2296 H 0.22081 0.05608 0.75116 0.0
H2297 H 0.29096 0.99975 0.77746 0.0
H2298 H 0.22229 0.93412 0.785 0.0
H2299 H 0.1421 0.89421 0.78577 0.0
H2300 H 0.07177 0.95208 0.76098 0.0
H2301 H 0.14049 0.01489 0.75089 0.0
C2302 C 0.22123 0.02938 0.75844 0.0
C2303 C 0.26145 0.03309 0.76363 0.0
C2304 C 0.18135 0.99181 0.76302 0.0
C2305 C 0.26091 0.99791 0.77306 0.0
C2306 C 0.22146 0.96033 0.77749 0.0
C2307 C 0.14162 0.92052 0.77818 0.0
C2308 C 0.10135 0.91822 0.77435 0.0
C2309 C 0.18145 0.95714 0.77278 0.0
C2310 C 0.10185 0.95241 0.76404 0.0
C2311 C 0.14131 0.98868 0.75841 0.0
H2312 H 0.14566 0.24574 0.79427 0.0
H2313 H 0.1086 0.14754 0.75136 0.0
H2314 H 0.05446 0.16518 0.73922 0.0
H2315 H 1.01254 0.20352 0.74287 0.0
H2316 H 0.05271 0.30509 0.7845 0.0
H2317 H 0.11061 0.29149 0.79498 0.0
C2318 C 0.12655 0.22912 0.78192 0.0
C2319 C 0.13142 0.19553 0.77363 0.0
C2320 C 0.09545 0.23958 0.775 0.0
C2321 C 0.10603 0.17391 0.7578 0.0
C2322 C 0.0747 0.1837 0.751 0.0
C2323 C 0.03427 0.22304 0.7541 0.0
C2324 C 0.02752 0.25475 0.76313 0.0
C2325 C 0.06828 0.21565 0.7598 0.0
C2326 C 0.05661 0.28017 0.77743 0.0
C2327 C 0.08983 0.27237 0.78344 0.0
H2328 H 0.46668 0.09489 0.56387 0.0
H2329 H 0.50959 0.19997 0.60383 0.0
H2330 H 0.58494 0.21725 0.59981 0.0
H2331 H 0.64025 0.20752 0.58225 0.0
H2332 H 0.59604 0.09712 0.54501 0.0
H2333 H 0.52059 0.07675 0.55098 0.0
C2334 C 0.49232 0.12094 0.57201 0.0
C2335 C 0.48233 0.1471 0.58359 0.0
C2336 C 0.53594 0.13019 0.56999 0.0
C2337 C 0.51626 0.1802 0.59425 0.0
C2338 C 0.55958 0.1901 0.59203 0.0
C2339 C 0.61421 0.17844 0.57576 0.0
C2340 C 0.62452 0.15495 0.56265 0.0
C2341 C 0.57015 0.16617 0.57949 0.0
C2342 C 0.58968 0.11701 0.55463 0.0
C2343 C 0.5462 0.10508 0.55808 0.0
H2344 H 0.86514 0.33233 0.5996 0.0
H2345 H 0.96774 0.38695 0.55815 0.0
H2346 H 0.94993 0.44401 0.55104 0.0
H2347 H 0.90144 0.47609 0.55527 0.0
H2348 H 0.79935 0.42026 0.59686 0.0
H2349 H 0.8209 0.3668 0.60536 0.0
C2350 C 0.88382 0.3568 0.58905 0.0
C2351 C 0.91762 0.3549 0.57935 0.0
C2352 C 0.87345 0.38966 0.58508 0.0
C2353 C 0.94161 0.38737 0.56588 0.0
C2354 C 0.93132 0.42008 0.56176 0.0
C2355 C 0.88459 0.45274 0.56645 0.0
C2356 C 0.84894 0.45242 0.57555 0.0
C2357 C 0.89691 0.42136 0.57111 0.0
C2358 C 0.827 0.42144 0.58977 0.0
C2359 C 0.83917 0.39065 0.59455 0.0
H2360 H 0.62112 0.44093 0.60478 0.0
H2361 H 0.59525 0.42788 0.54512 0.0
H2362 H 0.64281 0.50656 0.54104 0.0
H2363 H 0.69749 0.5779 0.55397 0.0
H2364 H 0.72109 0.59233 0.61378 0.0
H2365 H 0.66844 0.51464 0.61836 0.0
C2366 C 0.62541 0.45549 0.59094 0.0
C2367 C 0.60487 0.42843 0.57523 0.0
C2368 C 0.65263 0.50098 0.58874 0.0
C2369 C 0.61044 0.44785 0.55742 0.0
C2370 C 0.63791 0.49284 0.55508 0.0
C2371 C 0.69051 0.56412 0.56805 0.0
C2372 C 0.71346 0.59071 0.5835 0.0
C2373 C 0.65998 0.51955 0.57055 0.0
C2374 C 0.70382 0.57262 0.60167 0.0
C2375 C 0.67392 0.5281 0.60426 0.0
loop_
_geom_bond_atom_site_label_1
_geom_bond_atom_site_label_2
_geom_bond_distance
_geom_bond_site_symmetry_2
_ccdc_geom_bond_type
Tb0 N29 2.617 . S
Tb0 N35 2.572 . S
Tb0 O44 2.465 . S
Tb0 O45 2.387 1_565 S
Tb0 O47 2.428 . S
Tb0 O48 2.308 . S
Tb0 O52 2.349 . S
Tb0 O55 2.393 . S
Tb0 C64 2.802 . S
C1 N2 1.364 1_565 S
C1 C4 1.428 . S
C1 C8 1.431 1_565 S
N2 C1 1.364 1_545 S
N2 C5 1.334 . S
N2 Tb11 2.617 . S
C3 C5 1.390 1_565 S
C3 C6 1.339 . S
C3 H23 0.930 . S
C4 C1 1.428 . S
C4 C6 1.416 . S
C4 C10 1.448 . S
C5 N2 1.334 . S
C5 C3 1.390 1_545 S
C5 H16 0.930 . S
C6 C3 1.339 . S
C6 C4 1.416 . S
C6 H27 0.930 . S
C7 C8 1.394 1_565 S
C7 C9 1.427 . S
C7 C13 1.416 . S
C8 C1 1.431 1_545 S
C8 C7 1.394 1_545 S
C8 N12 1.376 . S
C9 C7 1.427 . S
C9 C10 1.328 . S
C9 H24 0.929 . S
C10 C4 1.448 . S
C10 C9 1.328 . S
C10 H25 0.930 . S
Tb11 N2 2.617 . S
Tb11 N12 2.572 . S
Tb11 O46 2.349 . S
Tb11 O49 2.393 . S
Tb11 O50 2.465 . S
Tb11 O51 2.387 1_545 S
Tb11 O53 2.428 . S
Tb11 O54 2.308 . S
Tb11 C75 2.802 . S
N12 C8 1.376 . S
N12 Tb11 2.572 . S
N12 C14 1.340 . S
C13 C7 1.416 . S
C13 C15 1.332 1_565 S
C13 H21 0.931 . S
C14 N12 1.340 . S
C14 C15 1.407 . S
C14 H20 0.930 . S
C15 C13 1.332 1_545 S
C15 C14 1.407 . S
C15 H17 0.929 . S
H16 C5 0.930 . S
H17 C15 0.929 . S
H18 C33 0.930 . S
H19 C40 0.929 . S
H20 C14 0.930 . S
H21 C13 0.931 . S
H22 C36 0.930 . S
H23 C3 0.930 . S
H24 C9 0.929 . S
H25 C10 0.930 . S
H26 C31 0.930 . S
H27 C6 0.930 . S
H28 C39 0.931 . S
N29 Tb0 2.617 . S
N29 C30 1.379 1_565 S
N29 C33 1.334 . S
C30 N29 1.379 1_545 S
C30 C32 1.416 . S
C30 C38 1.424 . S
C31 H26 0.930 . S
C31 C33 1.390 1_545 S
C31 C34 1.339 . S
C32 C30 1.416 . S
C32 C34 1.416 . S
C32 C65 1.448 . S
C33 H18 0.930 . S
C33 N29 1.334 . S
C33 C31 1.390 1_565 S
C34 C31 1.339 . S
C34 C32 1.416 . S
C34 H41 0.930 . S
N35 Tb0 2.572 . S
N35 C36 1.340 . S
N35 C38 1.361 1_565 S
C36 H22 0.930 . S
C36 N35 1.340 . S
C36 C40 1.407 1_565 S
C37 C38 1.413 . S
C37 C39 1.416 . S
C37 C66 1.427 . S
C38 C30 1.424 . S
C38 N35 1.361 1_545 S
C38 C37 1.413 . S
C39 H28 0.931 . S
C39 C37 1.416 . S
C39 C40 1.332 . S
C40 H19 0.929 . S
C40 C36 1.407 1_545 S
C40 C39 1.332 . S
H41 C34 0.930 . S
H42 C65 0.930 . S
H43 C66 0.929 . S
O44 Tb0 2.465 . S
O44 C64 1.264 . S
O45 Tb0 2.387 1_545 S
O45 C56 1.264 . S
O46 Tb11 2.349 . S
O46 C56 1.243 . S
O47 Tb0 2.428 . S
O47 C64 1.256 . S
O48 Tb0 2.308 . S
O48 C63 1.266 . S
O49 Tb11 2.393 . S
O49 C63 1.248 1_545 S
O50 Tb11 2.465 . S
O50 C75 1.264 . S
O51 Tb11 2.387 1_565 S
O51 C67 1.264 . S
O52 Tb0 2.349 . S
O52 C67 1.243 . S
O53 Tb11 2.428 . S
O53 C75 1.256 . S
O54 Tb11 2.308 . S
O54 C74 1.266 . S
O55 Tb0 2.393 . S
O55 C74 1.248 1_565 S
C56 O45 1.264 . S
C56 O46 1.243 . S
C57 C60 1.399 . S
C57 C62 1.383 . S
C57 C64 1.496 . S
C58 C59 1.399 . S
C58 C62 1.389 . S
C59 C58 1.399 . S
C59 C61 1.380 . S
C59 H76 0.929 . S
C60 C57 1.399 . S
C60 C61 1.392 . S
C60 H77 0.929 . S
C61 C59 1.380 . S
C61 C60 1.392 . S
C61 H78 0.929 . S
C62 C57 1.383 . S
C62 C58 1.389 . S
C62 H79 0.931 . S
C63 O48 1.266 . S
C63 O49 1.248 1_565 S
C64 Tb0 2.802 . S
C64 O44 1.264 . S
C64 O47 1.256 . S
C64 C57 1.496 . S
C65 C32 1.448 . S
C65 H42 0.930 . S
C65 C66 1.328 . S
C66 C37 1.427 . S
C66 H43 0.929 . S
C66 C65 1.328 . S
C67 O51 1.264 . S
C67 O52 1.243 . S
C68 C71 1.399 . S
C68 C72 1.383 . S
C68 C75 1.496 . S
C69 C70 1.399 . S
C69 C72 1.389 . S
C70 C69 1.399 . S
C70 C73 1.380 . S
C70 H80 0.929 . S
C71 C68 1.399 . S
C71 C73 1.392 . S
C71 H81 0.929 . S
C72 C68 1.383 . S
C72 C69 1.389 . S
C72 H82 0.931 . S
C73 C70 1.380 . S
C73 C71 1.392 . S
C73 H83 0.929 . S
C74 O54 1.266 . S
C74 O55 1.248 1_545 S
C75 Tb11 2.802 . S
C75 O50 1.264 . S
C75 O53 1.256 . S
C75 C68 1.496 . S
H76 C59 0.929 . S
H77 C60 0.929 . S
H78 C61 0.929 . S
H79 C62 0.931 . S
H80 C70 0.929 . S
H81 C71 0.929 . S
H82 C72 0.931 . S
H83 C73 0.929 . S
Tb84 N113 2.617 . S
Tb84 N119 2.572 . S
Tb84 O128 2.465 . S
Tb84 O129 2.387 1_455 S
Tb84 O131 2.428 . S
Tb84 O132 2.308 . S
Tb84 O136 2.349 . S
Tb84 O139 2.393 . S
Tb84 C148 2.802 . S
C85 N86 1.379 . S
C85 C88 1.416 . S
C85 C92 1.424 . S
N86 C85 1.379 . S
N86 C89 1.334 . S
N86 Tb95 2.617 1_455 S
C87 C89 1.390 . S
C87 C90 1.339 . S
C87 H107 0.930 . S
C88 C85 1.416 . S
C88 C90 1.416 . S
C88 C94 1.448 . S
C89 N86 1.334 . S
C89 C87 1.390 . S
C89 H100 0.930 . S
C90 C87 1.339 . S
C90 C88 1.416 . S
C90 H111 0.930 . S
C91 C92 1.413 . S
C91 C93 1.427 . S
C91 C97 1.416 . S
C92 C85 1.424 . S
C92 C91 1.413 . S
C92 N96 1.361 . S
C93 C91 1.427 . S
C93 C94 1.328 . S
C93 H108 0.929 . S
C94 C88 1.448 . S
C94 C93 1.328 . S
C94 H109 0.930 . S
Tb95 N86 2.617 1_655 S
Tb95 N96 2.572 1_655 S
Tb95 O130 2.349 . S
Tb95 O133 2.393 1_655 S
Tb95 O134 2.465 . S
Tb95 O135 2.387 1_655 S
Tb95 O137 2.428 . S
Tb95 O138 2.308 1_655 S
Tb95 C159 2.802 . S
N96 C92 1.361 . S
N96 Tb95 2.572 1_455 S
N96 C98 1.340 . S
C97 C91 1.416 . S
C97 C99 1.332 . S
C97 H105 0.931 . S
C98 N96 1.340 . S
C98 C99 1.407 . S
C98 H104 0.930 . S
C99 C97 1.332 . S
C99 C98 1.407 . S
C99 H101 0.929 . S
H100 C89 0.930 . S
H101 C99 0.929 . S
H102 C117 0.930 . S
H103 C124 0.929 . S
H104 C98 0.930 . S
H105 C97 0.931 . S
H106 C120 0.930 . S
H107 C87 0.930 . S
H108 C93 0.929 . S
H109 C94 0.930 . S
H110 C115 0.930 . S
H111 C90 0.930 . S
H112 C123 0.934 1_655 S
N113 Tb84 2.617 . S
N113 C114 1.379 . S
N113 C117 1.334 . S
C114 N113 1.379 . S
C114 C116 1.416 . S
C114 C122 1.424 . S
C115 H110 0.930 . S
C115 C117 1.390 . S
C115 C118 1.339 . S
C116 C114 1.416 . S
C116 C118 1.416 . S
C116 C149 1.448 1_455 S
C117 H102 0.930 . S
C117 N113 1.334 . S
C117 C115 1.390 . S
C118 C115 1.339 . S
C118 C116 1.416 . S
C118 H125 0.930 1_455 S
N119 Tb84 2.572 . S
N119 C120 1.340 . S
N119 C122 1.361 . S
C120 H106 0.930 . S
C120 N119 1.340 . S
C120 C124 1.407 . S
C121 C122 1.413 . S
C121 C123 1.416 . S
C121 C150 1.427 1_455 S
C122 C114 1.424 . S
C122 N119 1.361 . S
C122 C121 1.413 . S
C123 H112 0.934 1_455 S
C123 C121 1.416 . S
C123 C124 1.332 . S
C124 H103 0.929 . S
C124 C120 1.407 . S
C124 C123 1.332 . S
H125 C118 0.930 1_655 S
H126 C149 0.930 . S
H127 C150 0.929 . S
O128 Tb84 2.465 . S
O128 C148 1.264 . S
O129 Tb84 2.387 1_655 S
O129 C140 1.264 . S
O130 Tb95 2.349 . S
O130 C140 1.243 . S
O131 Tb84 2.428 . S
O131 C148 1.256 . S
O132 Tb84 2.308 . S
O132 C147 1.266 . S
O133 Tb95 2.393 1_455 S
O133 C147 1.248 . S
O134 Tb95 2.465 . S
O134 C159 1.264 . S
O135 Tb95 2.387 1_455 S
O135 C151 1.264 . S
O136 Tb84 2.349 . S
O136 C151 1.243 . S
O137 Tb95 2.428 . S
O137 C159 1.256 . S
O138 Tb95 2.308 1_455 S
O138 C158 1.266 . S
O139 Tb84 2.393 . S
O139 C158 1.248 . S
C140 O129 1.264 . S
C140 O130 1.243 . S
C141 C144 1.399 . S
C141 C146 1.383 . S
C141 C148 1.496 . S
C142 C143 1.399 . S
C142 C146 1.389 . S
C143 C142 1.399 . S
C143 C145 1.380 . S
C143 H160 0.929 . S
C144 C141 1.399 . S
C144 C145 1.392 . S
C144 H161 0.929 . S
C145 C143 1.380 . S
C145 C144 1.392 . S
C145 H162 0.929 . S
C146 C141 1.383 . S
C146 C142 1.389 . S
C146 H163 0.931 . S
C147 O132 1.266 . S
C147 O133 1.248 . S
C148 Tb84 2.802 . S
C148 O128 1.264 . S
C148 O131 1.256 . S
C148 C141 1.496 . S
C149 C116 1.448 1_655 S
C149 H126 0.930 . S
C149 C150 1.328 . S
C150 C121 1.427 1_655 S
C150 H127 0.929 . S
C150 C149 1.328 . S
C151 O135 1.264 . S
C151 O136 1.243 . S
C152 C155 1.399 . S
C152 C156 1.383 . S
C152 C159 1.496 . S
C153 C154 1.399 . S
C153 C156 1.389 . S
C154 C153 1.399 . S
C154 C157 1.380 . S
C154 H164 0.929 . S
C155 C152 1.399 . S
C155 C157 1.392 . S
C155 H165 0.929 . S
C156 C152 1.383 . S
C156 C153 1.389 . S
C156 H166 0.931 . S
C157 C154 1.380 . S
C157 C155 1.392 . S
C157 H167 0.929 . S
C158 O138 1.266 . S
C158 O139 1.248 . S
C159 Tb95 2.802 . S
C159 O134 1.264 . S
C159 O137 1.256 . S
C159 C152 1.496 . S
H160 C143 0.929 . S
H161 C144 0.929 . S
H162 C145 0.929 . S
H163 C146 0.931 . S
H164 C154 0.929 . S
H165 C155 0.929 . S
H166 C156 0.931 . S
H167 C157 0.929 . S
Tb168 N197 2.617 . S
Tb168 N203 2.572 . S
Tb168 O212 2.465 . S
Tb168 O213 2.387 . S
Tb168 O215 2.428 . S
Tb168 O216 2.308 . S
Tb168 O220 2.349 . S
Tb168 O223 2.393 . S
Tb168 C232 2.802 . S
C169 N170 1.379 . S
C169 C172 1.416 . S
C169 C176 1.424 . S
N170 C169 1.379 . S
N170 C173 1.334 . S
N170 Tb179 2.617 . S
C171 C173 1.390 . S
C171 C174 1.339 . S
C171 H191 0.930 . S
C172 C169 1.416 . S
C172 C174 1.416 . S
C172 C178 1.448 . S
C173 N170 1.334 . S
C173 C171 1.390 . S
C173 H184 0.930 . S
C174 C171 1.339 . S
C174 C172 1.416 . S
C174 H195 0.930 . S
C175 C176 1.413 . S
C175 C177 1.427 . S
C175 C181 1.416 . S
C176 C169 1.424 . S
C176 C175 1.413 . S
C176 N180 1.361 . S
C177 C175 1.427 . S
C177 C178 1.328 . S
C177 H192 0.929 . S
C178 C172 1.448 . S
C178 C177 1.328 . S
C178 H193 0.930 . S
Tb179 N170 2.617 . S
Tb179 N180 2.572 . S
Tb179 O214 2.349 . S
Tb179 O217 2.393 . S
Tb179 O218 2.465 . S
Tb179 O219 2.387 . S
Tb179 O221 2.428 . S
Tb179 O222 2.308 . S
Tb179 C243 2.802 . S
N180 C176 1.361 . S
N180 Tb179 2.572 . S
N180 C182 1.340 . S
C181 C175 1.416 . S
C181 C183 1.332 . S
C181 H189 0.931 . S
C182 N180 1.340 . S
C182 C183 1.407 . S
C182 H188 0.930 . S
C183 C181 1.332 . S
C183 C182 1.407 . S
C183 H185 0.929 . S
H184 C173 0.930 . S
H185 C183 0.929 . S
H186 C201 0.930 . S
H187 C208 0.929 . S
H188 C182 0.930 . S
H189 C181 0.931 . S
H190 C204 0.930 . S
H191 C171 0.930 . S
H192 C177 0.929 . S
H193 C178 0.930 . S
H194 C199 0.930 . S
H195 C174 0.930 . S
H196 C207 0.931 . S
N197 Tb168 2.617 . S
N197 C198 1.379 . S
N197 C201 1.334 . S
C198 N197 1.379 . S
C198 C200 1.416 . S
C198 C206 1.424 . S
C199 H194 0.930 . S
C199 C201 1.390 . S
C199 C202 1.339 . S
C200 C198 1.416 . S
C200 C202 1.416 . S
C200 C233 1.448 . S
C201 H186 0.930 . S
C201 N197 1.334 . S
C201 C199 1.390 . S
C202 C199 1.339 . S
C202 C200 1.416 . S
C202 H209 0.930 . S
N203 Tb168 2.572 . S
N203 C204 1.340 . S
N203 C206 1.361 . S
C204 H190 0.930 . S
C204 N203 1.340 . S
C204 C208 1.407 . S
C205 C206 1.413 . S
C205 C207 1.416 . S
C205 C234 1.427 . S
C206 C198 1.424 . S
C206 N203 1.361 . S
C206 C205 1.413 . S
C207 H196 0.931 . S
C207 C205 1.416 . S
C207 C208 1.332 . S
C208 H187 0.929 . S
C208 C204 1.407 . S
C208 C207 1.332 . S
H209 C202 0.930 . S
H210 C233 0.930 . S
H211 C234 0.929 . S
O212 Tb168 2.465 . S
O212 C232 1.264 . S
O213 Tb168 2.387 . S
O213 C224 1.264 . S
O214 Tb179 2.349 . S
O214 C224 1.243 . S
O215 Tb168 2.428 . S
O215 C232 1.256 . S
O216 Tb168 2.308 . S
O216 C231 1.266 . S
O217 Tb179 2.393 . S
O217 C231 1.248 . S
O218 Tb179 2.465 . S
O218 C243 1.264 . S
O219 Tb179 2.387 . S
O219 C235 1.264 . S
O220 Tb168 2.349 . S
O220 C235 1.243 . S
O221 Tb179 2.428 . S
O221 C243 1.256 . S
O222 Tb179 2.308 . S
O222 C242 1.266 . S
O223 Tb168 2.393 . S
O223 C242 1.248 . S
C224 O213 1.264 . S
C224 O214 1.243 . S
C225 C228 1.399 . S
C225 C230 1.383 . S
C225 C232 1.496 . S
C226 C227 1.399 . S
C226 C230 1.389 . S
C227 C226 1.399 . S
C227 C229 1.380 . S
C227 H244 0.929 . S
C228 C225 1.399 . S
C228 C229 1.392 . S
C228 H245 0.929 . S
C229 C227 1.380 . S
C229 C228 1.392 . S
C229 H246 0.929 . S
C230 C225 1.383 . S
C230 C226 1.389 . S
C230 H247 0.931 . S
C231 O216 1.266 . S
C231 O217 1.248 . S
C232 Tb168 2.802 . S
C232 O212 1.264 . S
C232 O215 1.256 . S
C232 C225 1.496 . S
C233 C200 1.448 . S
C233 H210 0.930 . S
C233 C234 1.328 . S
C234 C205 1.427 . S
C234 H211 0.929 . S
C234 C233 1.328 . S
C235 O219 1.264 . S
C235 O220 1.243 . S
C236 C239 1.399 . S
C236 C240 1.383 . S
C236 C243 1.496 . S
C237 C238 1.399 . S
C237 C240 1.389 . S
C238 C237 1.399 . S
C238 C241 1.380 . S
C238 H248 0.929 . S
C239 C236 1.399 . S
C239 C241 1.392 . S
C239 H249 0.929 . S
C240 C236 1.383 . S
C240 C237 1.389 . S
C240 H250 0.931 . S
C241 C238 1.380 . S
C241 C239 1.392 . S
C241 H251 0.929 . S
C242 O222 1.266 . S
C242 O223 1.248 . S
C243 Tb179 2.802 . S
C243 O218 1.264 . S
C243 O221 1.256 . S
C243 C236 1.496 . S
H244 C227 0.929 . S
H245 C228 0.929 . S
H246 C229 0.929 . S
H247 C230 0.931 . S
H248 C238 0.929 . S
H249 C239 0.929 . S
H250 C240 0.931 . S
H251 C241 0.929 . S
Tb252 N281 2.617 . S
Tb252 N287 2.572 . S
Tb252 O296 2.465 . S
Tb252 O297 2.387 1_655 S
Tb252 O299 2.428 . S
Tb252 O300 2.308 . S
Tb252 O304 2.349 . S
Tb252 O307 2.393 . S
Tb252 C316 2.802 . S
C253 N254 1.364 1_655 S
C253 C256 1.428 . S
C253 C260 1.431 1_655 S
N254 C253 1.364 1_455 S
N254 C257 1.334 . S
N254 Tb263 2.617 . S
C255 C257 1.390 1_655 S
C255 C258 1.339 . S
C255 H275 0.930 . S
C256 C253 1.428 . S
C256 C258 1.416 . S
C256 C262 1.448 . S
C257 N254 1.334 . S
C257 C255 1.390 1_455 S
C257 H268 0.930 . S
C258 C255 1.339 . S
C258 C256 1.416 . S
C258 H279 0.930 . S
C259 C260 1.394 1_655 S
C259 C261 1.427 . S
C259 C265 1.416 . S
C260 C253 1.431 1_455 S
C260 C259 1.394 1_455 S
C260 N264 1.376 . S
C261 C259 1.427 . S
C261 C262 1.328 . S
C261 H276 0.929 . S
C262 C256 1.448 . S
C262 C261 1.328 . S
C262 H277 0.930 . S
Tb263 N254 2.617 . S
Tb263 N264 2.572 . S
Tb263 O298 2.349 . S
Tb263 O301 2.393 . S
Tb263 O302 2.465 . S
Tb263 O303 2.387 1_455 S
Tb263 O305 2.428 . S
Tb263 O306 2.308 . S
Tb263 C327 2.802 . S
N264 C260 1.376 . S
N264 Tb263 2.572 . S
N264 C266 1.340 . S
C265 C259 1.416 . S
C265 C267 1.332 1_655 S
C265 H273 0.931 . S
C266 N264 1.340 . S
C266 C267 1.407 . S
C266 H272 0.930 . S
C267 C265 1.332 1_455 S
C267 C266 1.407 . S
C267 H269 0.929 . S
H268 C257 0.930 . S
H269 C267 0.929 . S
H270 C285 0.930 . S
H271 C292 0.929 . S
H272 C266 0.930 . S
H273 C265 0.931 . S
H274 C288 0.930 . S
H275 C255 0.930 . S
H276 C261 0.929 . S
H277 C262 0.930 . S
H278 C283 0.930 . S
H279 C258 0.930 . S
H280 C291 0.931 . S
N281 Tb252 2.617 . S
N281 C282 1.379 1_655 S
N281 C285 1.334 . S
C282 N281 1.379 1_455 S
C282 C284 1.416 . S
C282 C290 1.424 . S
C283 H278 0.930 . S
C283 C285 1.390 1_455 S
C283 C286 1.339 . S
C284 C282 1.416 . S
C284 C286 1.416 . S
C284 C317 1.448 . S
C285 H270 0.930 . S
C285 N281 1.334 . S
C285 C283 1.390 1_655 S
C286 C283 1.339 . S
C286 C284 1.416 . S
C286 H293 0.930 . S
N287 Tb252 2.572 . S
N287 C288 1.340 . S
N287 C290 1.361 1_655 S
C288 H274 0.930 . S
C288 N287 1.340 . S
C288 C292 1.407 1_655 S
C289 C290 1.413 . S
C289 C291 1.416 . S
C289 C318 1.427 . S
C290 C282 1.424 . S
C290 N287 1.361 1_455 S
C290 C289 1.413 . S
C291 H280 0.931 . S
C291 C289 1.416 . S
C291 C292 1.332 . S
C292 H271 0.929 . S
C292 C288 1.407 1_455 S
C292 C291 1.332 . S
H293 C286 0.930 . S
H294 C317 0.930 . S
H295 C318 0.929 . S
O296 Tb252 2.465 . S
O296 C316 1.264 . S
O297 Tb252 2.387 1_455 S
O297 C308 1.264 . S
O298 Tb263 2.349 . S
O298 C308 1.243 . S
O299 Tb252 2.428 . S
O299 C316 1.256 . S
O300 Tb252 2.308 . S
O300 C315 1.266 . S
O301 Tb263 2.393 . S
O301 C315 1.248 1_455 S
O302 Tb263 2.465 . S
O302 C327 1.264 . S
O303 Tb263 2.387 1_655 S
O303 C319 1.264 . S
O304 Tb252 2.349 . S
O304 C319 1.243 . S
O305 Tb263 2.428 . S
O305 C327 1.256 . S
O306 Tb263 2.308 . S
O306 C326 1.266 . S
O307 Tb252 2.393 . S
O307 C326 1.248 1_655 S
C308 O297 1.264 . S
C308 O298 1.243 . S
C309 C312 1.399 . S
C309 C314 1.383 . S
C309 C316 1.496 . S
C310 C311 1.399 . S
C310 C314 1.389 . S
C311 C310 1.399 . S
C311 C313 1.380 . S
C311 H328 0.929 . S
C312 C309 1.399 . S
C312 C313 1.392 . S
C312 H329 0.929 . S
C313 C311 1.380 . S
C313 C312 1.392 . S
C313 H330 0.929 . S
C314 C309 1.383 . S
C314 C310 1.389 . S
C314 H331 0.931 . S
C315 O300 1.266 . S
C315 O301 1.248 1_655 S
C316 Tb252 2.802 . S
C316 O296 1.264 . S
C316 O299 1.256 . S
C316 C309 1.496 . S
C317 C284 1.448 . S
C317 H294 0.930 . S
C317 C318 1.328 . S
C318 C289 1.427 . S
C318 H295 0.929 . S
C318 C317 1.328 . S
C319 O303 1.264 . S
C319 O304 1.243 . S
C320 C323 1.399 . S
C320 C324 1.383 . S
C320 C327 1.496 . S
C321 C322 1.399 . S
C321 C324 1.389 . S
C322 C321 1.399 . S
C322 C325 1.380 . S
C322 H332 0.929 . S
C323 C320 1.399 . S
C323 C325 1.392 . S
C323 H333 0.929 . S
C324 C320 1.383 . S
C324 C321 1.389 . S
C324 H334 0.931 . S
C325 C322 1.380 . S
C325 C323 1.392 . S
C325 H335 0.929 . S
C326 O306 1.266 . S
C326 O307 1.248 1_455 S
C327 Tb263 2.802 . S
C327 O302 1.264 . S
C327 O305 1.256 . S
C327 C320 1.496 . S
H328 C311 0.929 . S
H329 C312 0.929 . S
H330 C313 0.929 . S
H331 C314 0.931 . S
H332 C322 0.929 . S
H333 C323 0.929 . S
H334 C324 0.931 . S
H335 C325 0.929 . S
Tb336 N365 2.617 . S
Tb336 N371 2.572 . S
Tb336 O380 2.465 . S
Tb336 O381 2.387 . S
Tb336 O383 2.428 . S
Tb336 O384 2.308 . S
Tb336 O388 2.349 . S
Tb336 O391 2.393 . S
Tb336 C400 2.802 . S
C337 N338 1.379 . S
C337 C340 1.416 . S
C337 C344 1.424 . S
N338 C337 1.379 . S
N338 C341 1.334 . S
N338 Tb347 2.617 . S
C339 C341 1.390 . S
C339 C342 1.339 . S
C339 H359 0.930 . S
C340 C337 1.416 . S
C340 C342 1.416 . S
C340 C346 1.448 . S
C341 N338 1.334 . S
C341 C339 1.390 . S
C341 H352 0.930 . S
C342 C339 1.339 . S
C342 C340 1.416 . S
C342 H363 0.930 . S
C343 C344 1.413 . S
C343 C345 1.427 . S
C343 C349 1.416 . S
C344 C337 1.424 . S
C344 C343 1.413 . S
C344 N348 1.361 . S
C345 C343 1.427 . S
C345 C346 1.328 . S
C345 H360 0.929 . S
C346 C340 1.448 . S
C346 C345 1.328 . S
C346 H361 0.930 . S
Tb347 N338 2.617 . S
Tb347 N348 2.572 . S
Tb347 O382 2.349 . S
Tb347 O385 2.393 . S
Tb347 O386 2.465 . S
Tb347 O387 2.387 . S
Tb347 O389 2.428 . S
Tb347 O390 2.308 . S
Tb347 C411 2.802 . S
N348 C344 1.361 . S
N348 Tb347 2.572 . S
N348 C350 1.340 . S
C349 C343 1.416 . S
C349 C351 1.332 . S
C349 H357 0.931 . S
C350 N348 1.340 . S
C350 C351 1.407 . S
C350 H356 0.930 . S
C351 C349 1.332 . S
C351 C350 1.407 . S
C351 H353 0.929 . S
H352 C341 0.930 . S
H353 C351 0.929 . S
H354 C369 0.930 . S
H355 C376 0.929 . S
H356 C350 0.930 . S
H357 C349 0.931 . S
H358 C372 0.930 . S
H359 C339 0.930 . S
H360 C345 0.929 . S
H361 C346 0.930 . S
H362 C367 0.930 . S
H363 C342 0.930 . S
H364 C375 0.931 . S
N365 Tb336 2.617 . S
N365 C366 1.379 . S
N365 C369 1.334 . S
C366 N365 1.379 . S
C366 C368 1.416 . S
C366 C374 1.424 . S
C367 H362 0.930 . S
C367 C369 1.390 . S
C367 C370 1.339 . S
C368 C366 1.416 . S
C368 C370 1.416 . S
C368 C401 1.448 . S
C369 H354 0.930 . S
C369 N365 1.334 . S
C369 C367 1.390 . S
C370 C367 1.339 . S
C370 C368 1.416 . S
C370 H377 0.930 . S
N371 Tb336 2.572 . S
N371 C372 1.340 . S
N371 C374 1.361 . S
C372 H358 0.930 . S
C372 N371 1.340 . S
C372 C376 1.407 . S
C373 C374 1.413 . S
C373 C375 1.416 . S
C373 C402 1.427 . S
C374 C366 1.424 . S
C374 N371 1.361 . S
C374 C373 1.413 . S
C375 H364 0.931 . S
C375 C373 1.416 . S
C375 C376 1.332 . S
C376 H355 0.929 . S
C376 C372 1.407 . S
C376 C375 1.332 . S
H377 C370 0.930 . S
H378 C401 0.930 . S
H379 C402 0.929 . S
O380 Tb336 2.465 . S
O380 C400 1.264 . S
O381 Tb336 2.387 . S
O381 C392 1.264 . S
O382 Tb347 2.349 . S
O382 C392 1.243 . S
O383 Tb336 2.428 . S
O383 C400 1.256 . S
O384 Tb336 2.308 . S
O384 C399 1.266 . S
O385 Tb347 2.393 . S
O385 C399 1.248 . S
O386 Tb347 2.465 . S
O386 C411 1.264 . S
O387 Tb347 2.387 . S
O387 C403 1.264 . S
O388 Tb336 2.349 . S
O388 C403 1.243 . S
O389 Tb347 2.428 . S
O389 C411 1.256 . S
O390 Tb347 2.308 . S
O390 C410 1.266 . S
O391 Tb336 2.393 . S
O391 C410 1.248 . S
C392 O381 1.264 . S
C392 O382 1.243 . S
C393 C396 1.399 . S
C393 C398 1.383 . S
C393 C400 1.496 . S
C394 C395 1.399 . S
C394 C398 1.389 . S
C395 C394 1.399 . S
C395 C397 1.380 . S
C395 H412 0.929 . S
C396 C393 1.399 . S
C396 C397 1.392 . S
C396 H413 0.929 . S
C397 C395 1.380 . S
C397 C396 1.392 . S
C397 H414 0.929 . S
C398 C393 1.383 . S
C398 C394 1.389 . S
C398 H415 0.931 . S
C399 O384 1.266 . S
C399 O385 1.248 . S
C400 Tb336 2.802 . S
C400 O380 1.264 . S
C400 O383 1.256 . S
C400 C393 1.496 . S
C401 C368 1.448 . S
C401 H378 0.930 . S
C401 C402 1.328 . S
C402 C373 1.427 . S
C402 H379 0.929 . S
C402 C401 1.328 . S
C403 O387 1.264 . S
C403 O388 1.243 . S
C404 C407 1.399 . S
C404 C408 1.383 . S
C404 C411 1.496 . S
C405 C406 1.399 . S
C405 C408 1.389 . S
C406 C405 1.399 . S
C406 C409 1.380 . S
C406 H416 0.929 . S
C407 C404 1.399 . S
C407 C409 1.392 . S
C407 H417 0.929 . S
C408 C404 1.383 . S
C408 C405 1.389 . S
C408 H418 0.931 . S
C409 C406 1.380 . S
C409 C407 1.392 . S
C409 H419 0.929 . S
C410 O390 1.266 . S
C410 O391 1.248 . S
C411 Tb347 2.802 . S
C411 O386 1.264 . S
C411 O389 1.256 . S
C411 C404 1.496 . S
H412 C395 0.929 . S
H413 C396 0.929 . S
H414 C397 0.929 . S
H415 C398 0.931 . S
H416 C406 0.929 . S
H417 C407 0.929 . S
H418 C408 0.931 . S
H419 C409 0.929 . S
Tb420 N449 2.617 . S
Tb420 N455 2.572 . S
Tb420 O464 2.465 . S
Tb420 O465 2.387 1_545 S
Tb420 O467 2.428 . S
Tb420 O468 2.308 . S
Tb420 O472 2.349 . S
Tb420 O475 2.393 . S
Tb420 C484 2.802 . S
C421 N422 1.379 . S
C421 C424 1.416 . S
C421 C428 1.424 . S
N422 C421 1.379 . S
N422 C425 1.334 . S
N422 Tb431 2.617 1_545 S
C423 C425 1.390 . S
C423 C426 1.339 . S
C423 H443 0.930 . S
C424 C421 1.416 . S
C424 C426 1.416 . S
C424 C430 1.448 . S
C425 N422 1.334 . S
C425 C423 1.390 . S
C425 H436 0.930 . S
C426 C423 1.339 . S
C426 C424 1.416 . S
C426 H447 0.930 . S
C427 C428 1.413 . S
C427 C429 1.427 . S
C427 C433 1.416 . S
C428 C421 1.424 . S
C428 C427 1.413 . S
C428 N432 1.361 . S
C429 C427 1.427 . S
C429 C430 1.328 . S
C429 H444 0.929 . S
C430 C424 1.448 . S
C430 C429 1.328 . S
C430 H445 0.930 . S
Tb431 N422 2.617 1_565 S
Tb431 N432 2.572 1_565 S
Tb431 O466 2.349 . S
Tb431 O469 2.393 1_565 S
Tb431 O470 2.465 . S
Tb431 O471 2.387 1_565 S
Tb431 O473 2.428 . S
Tb431 O474 2.308 1_565 S
Tb431 C495 2.802 . S
N432 C428 1.361 . S
N432 Tb431 2.572 1_545 S
N432 C434 1.340 . S
C433 C427 1.416 . S
C433 C435 1.332 . S
C433 H441 0.931 . S
C434 N432 1.340 . S
C434 C435 1.407 . S
C434 H440 0.930 . S
C435 C433 1.332 . S
C435 C434 1.407 . S
C435 H437 0.929 . S
H436 C425 0.930 . S
H437 C435 0.929 . S
H438 C453 0.930 . S
H439 C460 0.929 . S
H440 C434 0.930 . S
H441 C433 0.931 . S
H442 C456 0.930 . S
H443 C423 0.930 . S
H444 C429 0.929 . S
H445 C430 0.930 . S
H446 C451 0.930 . S
H447 C426 0.930 . S
H448 C459 0.934 1_565 S
N449 Tb420 2.617 . S
N449 C450 1.379 . S
N449 C453 1.334 . S
C450 N449 1.379 . S
C450 C452 1.416 . S
C450 C458 1.424 . S
C451 H446 0.930 . S
C451 C453 1.390 . S
C451 C454 1.339 . S
C452 C450 1.416 . S
C452 C454 1.416 . S
C452 C485 1.448 1_545 S
C453 H438 0.930 . S
C453 N449 1.334 . S
C453 C451 1.390 . S
C454 C451 1.339 . S
C454 C452 1.416 . S
C454 H461 0.930 1_545 S
N455 Tb420 2.572 . S
N455 C456 1.340 . S
N455 C458 1.361 . S
C456 H442 0.930 . S
C456 N455 1.340 . S
C456 C460 1.407 . S
C457 C458 1.413 . S
C457 C459 1.416 . S
C457 C486 1.427 1_545 S
C458 C450 1.424 . S
C458 N455 1.361 . S
C458 C457 1.413 . S
C459 H448 0.934 1_545 S
C459 C457 1.416 . S
C459 C460 1.332 . S
C460 H439 0.929 . S
C460 C456 1.407 . S
C460 C459 1.332 . S
H461 C454 0.930 1_565 S
H462 C485 0.930 . S
H463 C486 0.929 . S
O464 Tb420 2.465 . S
O464 C484 1.264 . S
O465 Tb420 2.387 1_565 S
O465 C476 1.264 . S
O466 Tb431 2.349 . S
O466 C476 1.243 . S
O467 Tb420 2.428 . S
O467 C484 1.256 . S
O468 Tb420 2.308 . S
O468 C483 1.266 . S
O469 Tb431 2.393 1_545 S
O469 C483 1.248 . S
O470 Tb431 2.465 . S
O470 C495 1.264 . S
O471 Tb431 2.387 1_545 S
O471 C487 1.264 . S
O472 Tb420 2.349 . S
O472 C487 1.243 . S
O473 Tb431 2.428 . S
O473 C495 1.256 . S
O474 Tb431 2.308 1_545 S
O474 C494 1.266 . S
O475 Tb420 2.393 . S
O475 C494 1.248 . S
C476 O465 1.264 . S
C476 O466 1.243 . S
C477 C480 1.399 . S
C477 C482 1.383 . S
C477 C484 1.496 . S
C478 C479 1.399 . S
C478 C482 1.389 . S
C479 C478 1.399 . S
C479 C481 1.380 . S
C479 H496 0.929 . S
C480 C477 1.399 . S
C480 C481 1.392 . S
C480 H497 0.929 . S
C481 C479 1.380 . S
C481 C480 1.392 . S
C481 H498 0.929 . S
C482 C477 1.383 . S
C482 C478 1.389 . S
C482 H499 0.931 . S
C483 O468 1.266 . S
C483 O469 1.248 . S
C484 Tb420 2.802 . S
C484 O464 1.264 . S
C484 O467 1.256 . S
C484 C477 1.496 . S
C485 C452 1.448 1_565 S
C485 H462 0.930 . S
C485 C486 1.328 . S
C486 C457 1.427 1_565 S
C486 H463 0.929 . S
C486 C485 1.328 . S
C487 O471 1.264 . S
C487 O472 1.243 . S
C488 C491 1.399 . S
C488 C492 1.383 . S
C488 C495 1.496 . S
C489 C490 1.399 . S
C489 C492 1.389 . S
C490 C489 1.399 . S
C490 C493 1.380 . S
C490 H500 0.929 . S
C491 C488 1.399 . S
C491 C493 1.392 . S
C491 H501 0.929 . S
C492 C488 1.383 . S
C492 C489 1.389 . S
C492 H502 0.931 . S
C493 C490 1.380 . S
C493 C491 1.392 . S
C493 H503 0.929 . S
C494 O474 1.266 . S
C494 O475 1.248 . S
C495 Tb431 2.802 . S
C495 O470 1.264 . S
C495 O473 1.256 . S
C495 C488 1.496 . S
H496 C479 0.929 . S
H497 C480 0.929 . S
H498 C481 0.929 . S
H499 C482 0.931 . S
H500 C490 0.929 . S
H501 C491 0.929 . S
H502 C492 0.931 . S
H503 C493 0.929 . S
Tb504 N533 2.617 . S
Tb504 N539 2.572 . S
Tb504 O548 2.465 . S
Tb504 O549 2.387 . S
Tb504 O551 2.428 . S
Tb504 O552 2.308 . S
Tb504 O556 2.349 . S
Tb504 O559 2.393 . S
Tb504 C568 2.802 . S
C505 N506 1.379 . S
C505 C508 1.416 . S
C505 C512 1.424 . S
N506 C505 1.379 . S
N506 C509 1.334 . S
N506 Tb515 2.617 . S
C507 C509 1.390 . S
C507 C510 1.339 . S
C507 H527 0.930 . S
C508 C505 1.416 . S
C508 C510 1.416 . S
C508 C514 1.448 . S
C509 N506 1.334 . S
C509 C507 1.390 . S
C509 H520 0.930 . S
C510 C507 1.339 . S
C510 C508 1.416 . S
C510 H531 0.930 . S
C511 C512 1.413 . S
C511 C513 1.427 . S
C511 C517 1.416 . S
C512 C505 1.424 . S
C512 C511 1.413 . S
C512 N516 1.361 . S
C513 C511 1.427 . S
C513 C514 1.328 . S
C513 H528 0.929 . S
C514 C508 1.448 . S
C514 C513 1.328 . S
C514 H529 0.930 . S
Tb515 N506 2.617 . S
Tb515 N516 2.572 . S
Tb515 O550 2.349 . S
Tb515 O553 2.393 . S
Tb515 O554 2.465 . S
Tb515 O555 2.387 . S
Tb515 O557 2.428 . S
Tb515 O558 2.308 . S
Tb515 C579 2.802 . S
N516 C512 1.361 . S
N516 Tb515 2.572 . S
N516 C518 1.340 . S
C517 C511 1.416 . S
C517 C519 1.332 . S
C517 H525 0.931 . S
C518 N516 1.340 . S
C518 C519 1.407 . S
C518 H524 0.930 . S
C519 C517 1.332 . S
C519 C518 1.407 . S
C519 H521 0.929 . S
H520 C509 0.930 . S
H521 C519 0.929 . S
H522 C537 0.930 . S
H523 C544 0.929 1_655 S
H524 C518 0.930 . S
H525 C517 0.931 . S
H526 C540 0.930 . S
H527 C507 0.930 . S
H528 C513 0.929 . S
H529 C514 0.930 . S
H530 C535 0.930 . S
H531 C510 0.930 . S
H532 C543 0.931 . S
N533 Tb504 2.617 . S
N533 C534 1.379 . S
N533 C537 1.334 . S
C534 N533 1.379 . S
C534 C536 1.416 . S
C534 C542 1.424 . S
C535 H530 0.930 . S
C535 C537 1.390 . S
C535 C538 1.339 . S
C536 C534 1.416 . S
C536 C538 1.416 . S
C536 C569 1.448 . S
C537 H522 0.930 . S
C537 N533 1.334 . S
C537 C535 1.390 . S
C538 C535 1.339 . S
C538 C536 1.416 . S
C538 H545 0.930 . S
N539 Tb504 2.572 . S
N539 C540 1.340 . S
N539 C542 1.361 . S
C540 H526 0.930 . S
C540 N539 1.340 . S
C540 C544 1.407 . S
C541 C542 1.413 . S
C541 C543 1.416 1_455 S
C541 C570 1.427 1_455 S
C542 C534 1.424 . S
C542 N539 1.361 . S
C542 C541 1.413 . S
C543 H532 0.931 . S
C543 C541 1.416 1_655 S
C543 C544 1.332 1_655 S
C544 H523 0.929 1_455 S
C544 C540 1.407 . S
C544 C543 1.332 1_455 S
H545 C538 0.930 . S
H546 C569 0.930 1_655 S
H547 C570 0.929 . S
O548 Tb504 2.465 . S
O548 C568 1.264 . S
O549 Tb504 2.387 . S
O549 C560 1.264 . S
O550 Tb515 2.349 . S
O550 C560 1.243 . S
O551 Tb504 2.428 . S
O551 C568 1.256 . S
O552 Tb504 2.308 . S
O552 C567 1.266 . S
O553 Tb515 2.393 . S
O553 C567 1.248 . S
O554 Tb515 2.465 . S
O554 C579 1.264 . S
O555 Tb515 2.387 . S
O555 C571 1.264 . S
O556 Tb504 2.349 . S
O556 C571 1.243 . S
O557 Tb515 2.428 . S
O557 C579 1.256 . S
O558 Tb515 2.308 . S
O558 C578 1.266 . S
O559 Tb504 2.393 . S
O559 C578 1.248 . S
C560 O549 1.264 . S
C560 O550 1.243 . S
C561 C564 1.399 . S
C561 C566 1.383 . S
C561 C568 1.496 1_655 S
C562 C563 1.399 . S
C562 C566 1.389 . S
C563 C562 1.399 . S
C563 C565 1.380 . S
C563 H580 0.929 . S
C564 C561 1.399 . S
C564 C565 1.392 . S
C564 H581 0.929 . S
C565 C563 1.380 . S
C565 C564 1.392 . S
C565 H582 0.929 . S
C566 C561 1.383 . S
C566 C562 1.389 . S
C566 H583 0.931 . S
C567 O552 1.266 . S
C567 O553 1.248 . S
C568 Tb504 2.802 . S
C568 O548 1.264 . S
C568 O551 1.256 . S
C568 C561 1.496 1_455 S
C569 C536 1.448 . S
C569 H546 0.930 1_455 S
C569 C570 1.328 1_455 S
C570 C541 1.427 1_655 S
C570 H547 0.929 . S
C570 C569 1.328 1_655 S
C571 O555 1.264 . S
C571 O556 1.243 . S
C572 C575 1.399 . S
C572 C576 1.383 . S
C572 C579 1.496 . S
C573 C574 1.399 . S
C573 C576 1.389 . S
C574 C573 1.399 . S
C574 C577 1.380 . S
C574 H584 0.929 . S
C575 C572 1.399 . S
C575 C577 1.392 . S
C575 H585 0.929 . S
C576 C572 1.383 . S
C576 C573 1.389 . S
C576 H586 0.931 . S
C577 C574 1.380 . S
C577 C575 1.392 . S
C577 H587 0.929 . S
C578 O558 1.266 . S
C578 O559 1.248 . S
C579 Tb515 2.802 . S
C579 O554 1.264 . S
C579 O557 1.256 . S
C579 C572 1.496 . S
H580 C563 0.929 . S
H581 C564 0.929 . S
H582 C565 0.929 . S
H583 C566 0.931 . S
H584 C574 0.929 . S
H585 C575 0.929 . S
H586 C576 0.931 . S
H587 C577 0.929 . S
Tb588 N617 2.617 . S
Tb588 N623 2.572 . S
Tb588 O632 2.465 . S
Tb588 O633 2.387 . S
Tb588 O635 2.428 . S
Tb588 O636 2.308 . S
Tb588 O640 2.349 . S
Tb588 O643 2.393 . S
Tb588 C652 2.802 . S
C589 N590 1.379 . S
C589 C592 1.416 . S
C589 C596 1.424 . S
N590 C589 1.379 . S
N590 C593 1.334 . S
N590 Tb599 2.617 . S
C591 C593 1.390 . S
C591 C594 1.339 . S
C591 H611 0.930 . S
C592 C589 1.416 . S
C592 C594 1.416 . S
C592 C598 1.448 1_565 S
C593 N590 1.334 . S
C593 C591 1.390 . S
C593 H604 0.930 . S
C594 C591 1.339 . S
C594 C592 1.416 . S
C594 H615 0.930 1_565 S
C595 C596 1.413 1_545 S
C595 C597 1.427 . S
C595 C601 1.416 . S
C596 C589 1.424 . S
C596 C595 1.413 1_565 S
C596 N600 1.361 . S
C597 C595 1.427 . S
C597 C598 1.328 . S
C597 H612 0.929 . S
C598 C592 1.448 1_545 S
C598 C597 1.328 . S
C598 H613 0.930 . S
Tb599 N590 2.617 . S
Tb599 N600 2.572 . S
Tb599 O634 2.349 . S
Tb599 O637 2.393 . S
Tb599 O638 2.465 . S
Tb599 O639 2.387 . S
Tb599 O641 2.428 . S
Tb599 O642 2.308 . S
Tb599 C663 2.802 . S
N600 C596 1.361 . S
N600 Tb599 2.572 . S
N600 C602 1.340 . S
C601 C595 1.416 . S
C601 C603 1.332 . S
C601 H609 0.931 . S
C602 N600 1.340 . S
C602 C603 1.407 1_565 S
C602 H608 0.930 . S
C603 C601 1.332 . S
C603 C602 1.407 1_545 S
C603 H605 0.929 . S
H604 C593 0.930 . S
H605 C603 0.929 . S
H606 C621 0.930 . S
H607 C628 0.929 . S
H608 C602 0.930 . S
H609 C601 0.931 . S
H610 C624 0.930 . S
H611 C591 0.930 . S
H612 C597 0.929 . S
H613 C598 0.930 . S
H614 C619 0.930 . S
H615 C594 0.930 1_545 S
H616 C627 0.931 . S
N617 Tb588 2.617 . S
N617 C618 1.379 . S
N617 C621 1.334 . S
C618 N617 1.379 . S
C618 C620 1.416 . S
C618 C626 1.424 . S
C619 H614 0.930 . S
C619 C621 1.390 . S
C619 C622 1.339 . S
C620 C618 1.416 . S
C620 C622 1.416 . S
C620 C653 1.448 . S
C621 H606 0.930 . S
C621 N617 1.334 . S
C621 C619 1.390 . S
C622 C619 1.339 . S
C622 C620 1.416 . S
C622 H629 0.930 . S
N623 Tb588 2.572 . S
N623 C624 1.340 . S
N623 C626 1.361 . S
C624 H610 0.930 . S
C624 N623 1.340 . S
C624 C628 1.407 . S
C625 C626 1.413 . S
C625 C627 1.416 . S
C625 C654 1.427 . S
C626 C618 1.424 . S
C626 N623 1.361 . S
C626 C625 1.413 . S
C627 H616 0.931 . S
C627 C625 1.416 . S
C627 C628 1.332 . S
C628 H607 0.929 . S
C628 C624 1.407 . S
C628 C627 1.332 . S
H629 C622 0.930 . S
H630 C653 0.930 . S
H631 C654 0.929 . S
O632 Tb588 2.465 . S
O632 C652 1.264 . S
O633 Tb588 2.387 . S
O633 C644 1.264 . S
O634 Tb599 2.349 . S
O634 C644 1.243 . S
O635 Tb588 2.428 . S
O635 C652 1.256 . S
O636 Tb588 2.308 . S
O636 C651 1.266 . S
O637 Tb599 2.393 . S
O637 C651 1.248 . S
O638 Tb599 2.465 . S
O638 C663 1.264 . S
O639 Tb599 2.387 . S
O639 C655 1.264 . S
O640 Tb588 2.349 . S
O640 C655 1.243 . S
O641 Tb599 2.428 . S
O641 C663 1.256 . S
O642 Tb599 2.308 . S
O642 C662 1.266 . S
O643 Tb588 2.393 . S
O643 C662 1.248 . S
C644 O633 1.264 . S
C644 O634 1.243 . S
C645 C648 1.399 . S
C645 C650 1.383 . S
C645 C652 1.496 . S
C646 C647 1.399 . S
C646 C650 1.389 . S
C647 C646 1.399 . S
C647 C649 1.380 . S
C647 H664 0.929 . S
C648 C645 1.399 . S
C648 C649 1.392 . S
C648 H665 0.929 . S
C649 C647 1.380 . S
C649 C648 1.392 . S
C649 H666 0.929 . S
C650 C645 1.383 . S
C650 C646 1.389 . S
C650 H667 0.931 . S
C651 O636 1.266 . S
C651 O637 1.248 . S
C652 Tb588 2.802 . S
C652 O632 1.264 . S
C652 O635 1.256 . S
C652 C645 1.496 . S
C653 C620 1.448 . S
C653 H630 0.930 . S
C653 C654 1.328 . S
C654 C625 1.427 . S
C654 H631 0.929 . S
C654 C653 1.328 . S
C655 O639 1.264 . S
C655 O640 1.243 . S
C656 C659 1.399 . S
C656 C660 1.383 . S
C656 C663 1.496 . S
C657 C658 1.399 . S
C657 C660 1.389 . S
C658 C657 1.399 . S
C658 C661 1.380 . S
C658 H668 0.929 . S
C659 C656 1.399 . S
C659 C661 1.392 . S
C659 H669 0.929 . S
C660 C656 1.383 . S
C660 C657 1.389 . S
C660 H670 0.931 . S
C661 C658 1.380 . S
C661 C659 1.392 . S
C661 H671 0.929 . S
C662 O642 1.266 . S
C662 O643 1.248 . S
C663 Tb599 2.802 . S
C663 O638 1.264 . S
C663 O641 1.256 . S
C663 C656 1.496 . S
H664 C647 0.929 . S
H665 C648 0.929 . S
H666 C649 0.929 . S
H667 C650 0.931 . S
H668 C658 0.929 . S
H669 C659 0.929 . S
H670 C660 0.931 . S
H671 C661 0.929 . S
Tb672 N701 2.617 . S
Tb672 N707 2.572 . S
Tb672 O716 2.465 . S
Tb672 O717 2.387 . S
Tb672 O719 2.428 . S
Tb672 O720 2.308 . S
Tb672 O724 2.349 . S
Tb672 O727 2.393 . S
Tb672 C736 2.779 1_565 S
C673 N674 1.379 . S
C673 C676 1.416 . S
C673 C680 1.424 . S
N674 C673 1.379 . S
N674 C677 1.334 . S
N674 Tb683 2.617 . S
C675 C677 1.390 . S
C675 C678 1.339 . S
C675 H695 0.930 . S
C676 C673 1.416 . S
C676 C678 1.416 . S
C676 C682 1.448 1_455 S
C677 N674 1.334 . S
C677 C675 1.390 . S
C677 H688 0.930 . S
C678 C675 1.339 . S
C678 C676 1.416 . S
C678 H699 0.930 . S
C679 C680 1.413 . S
C679 C681 1.427 1_455 S
C679 C685 1.416 1_455 S
C680 C673 1.424 . S
C680 C679 1.413 . S
C680 N684 1.361 . S
C681 C679 1.427 1_655 S
C681 C682 1.328 . S
C681 H696 0.929 . S
C682 C676 1.448 1_655 S
C682 C681 1.328 . S
C682 H697 0.930 . S
Tb683 N674 2.617 . S
Tb683 N684 2.572 . S
Tb683 O718 2.349 . S
Tb683 O721 2.393 . S
Tb683 O722 2.465 . S
Tb683 O723 2.387 . S
Tb683 O725 2.428 . S
Tb683 O726 2.308 . S
Tb683 C747 2.802 . S
N684 C680 1.361 . S
N684 Tb683 2.572 . S
N684 C686 1.340 . S
C685 C679 1.416 1_655 S
C685 C687 1.332 1_655 S
C685 H693 0.931 . S
C686 N684 1.340 . S
C686 C687 1.407 . S
C686 H692 0.930 . S
C687 C685 1.332 1_455 S
C687 C686 1.407 . S
C687 H689 0.929 . S
H688 C677 0.930 . S
H689 C687 0.929 . S
H690 C705 0.930 . S
H691 C712 0.929 . S
H692 C686 0.930 . S
H693 C685 0.931 . S
H694 C708 0.930 1_565 S
H695 C675 0.930 . S
H696 C681 0.929 . S
H697 C682 0.930 . S
H698 C703 0.930 . S
H699 C678 0.930 . S
H700 C711 0.931 . S
N701 Tb672 2.617 . S
N701 C702 1.379 . S
N701 C705 1.334 . S
C702 N701 1.379 . S
C702 C704 1.416 . S
C702 C710 1.424 1_565 S
C703 H698 0.930 . S
C703 C705 1.390 . S
C703 C706 1.339 . S
C704 C702 1.416 . S
C704 C706 1.416 . S
C704 C737 1.449 1_565 S
C705 H690 0.930 . S
C705 N701 1.334 . S
C705 C703 1.390 . S
C706 C703 1.339 . S
C706 C704 1.416 . S
C706 H713 0.930 . S
N707 Tb672 2.572 . S
N707 C708 1.340 1_565 S
N707 C710 1.361 1_565 S
C708 H694 0.930 1_545 S
C708 N707 1.340 1_545 S
C708 C712 1.407 . S
C709 C710 1.413 . S
C709 C711 1.416 . S
C709 C738 1.427 . S
C710 C702 1.424 1_545 S
C710 N707 1.361 1_545 S
C710 C709 1.413 . S
C711 H700 0.931 . S
C711 C709 1.416 . S
C711 C712 1.332 . S
C712 H691 0.929 . S
C712 C708 1.407 . S
C712 C711 1.332 . S
H713 C706 0.930 . S
H714 C737 0.930 . S
H715 C738 0.929 . S
O716 Tb672 2.465 . S
O716 C736 1.254 1_565 S
O717 Tb672 2.387 . S
O717 C728 1.264 . S
O718 Tb683 2.349 . S
O718 C728 1.243 . S
O719 Tb672 2.428 . S
O719 C736 1.243 1_565 S
O720 Tb672 2.308 . S
O720 C735 1.266 . S
O721 Tb683 2.393 . S
O721 C735 1.248 . S
O722 Tb683 2.465 . S
O722 C747 1.264 . S
O723 Tb683 2.387 . S
O723 C739 1.264 . S
O724 Tb672 2.349 . S
O724 C739 1.243 . S
O725 Tb683 2.428 . S
O725 C747 1.256 . S
O726 Tb683 2.308 . S
O726 C746 1.266 . S
O727 Tb672 2.393 . S
O727 C746 1.248 . S
C728 O717 1.264 . S
C728 O718 1.243 . S
C729 C732 1.399 . S
C729 C734 1.383 . S
C729 C736 1.519 . S
C730 C731 1.399 . S
C730 C734 1.389 . S
C731 C730 1.399 . S
C731 C733 1.380 . S
C731 H748 0.929 . S
C732 C729 1.399 . S
C732 C733 1.392 . S
C732 H749 0.929 . S
C733 C731 1.380 . S
C733 C732 1.392 . S
C733 H750 0.929 . S
C734 C729 1.383 . S
C734 C730 1.389 . S
C734 H751 0.931 . S
C735 O720 1.266 . S
C735 O721 1.248 . S
C736 Tb672 2.779 1_545 S
C736 O716 1.254 1_545 S
C736 O719 1.243 1_545 S
C736 C729 1.519 . S
C737 C704 1.449 1_545 S
C737 H714 0.930 . S
C737 C738 1.328 . S
C738 C709 1.427 . S
C738 H715 0.929 . S
C738 C737 1.328 . S
C739 O723 1.264 . S
C739 O724 1.243 . S
C740 C743 1.399 . S
C740 C744 1.383 . S
C740 C747 1.496 . S
C741 C742 1.399 . S
C741 C744 1.389 . S
C742 C741 1.399 . S
C742 C745 1.380 . S
C742 H752 0.929 . S
C743 C740 1.399 . S
C743 C745 1.392 . S
C743 H753 0.929 . S
C744 C740 1.383 . S
C744 C741 1.389 . S
C744 H754 0.931 . S
C745 C742 1.380 . S
C745 C743 1.392 . S
C745 H755 0.929 . S
C746 O726 1.266 . S
C746 O727 1.248 . S
C747 Tb683 2.802 . S
C747 O722 1.264 . S
C747 O725 1.256 . S
C747 C740 1.496 . S
H748 C731 0.929 . S
H749 C732 0.929 . S
H750 C733 0.929 . S
H751 C734 0.931 . S
H752 C742 0.929 . S
H753 C743 0.929 . S
H754 C744 0.931 . S
H755 C745 0.929 . S
Tb756 N785 2.617 . S
Tb756 N791 2.572 . S
Tb756 O800 2.465 . S
Tb756 O801 2.387 . S
Tb756 O803 2.428 . S
Tb756 O804 2.308 . S
Tb756 O808 2.349 . S
Tb756 O811 2.393 . S
Tb756 C820 2.802 . S
C757 N758 1.379 . S
C757 C760 1.416 . S
C757 C764 1.424 . S
N758 C757 1.379 . S
N758 C761 1.334 . S
N758 Tb767 2.617 . S
C759 C761 1.390 . S
C759 C762 1.339 . S
C759 H779 0.930 . S
C760 C757 1.416 . S
C760 C762 1.416 . S
C760 C766 1.448 . S
C761 N758 1.334 . S
C761 C759 1.390 . S
C761 H772 0.930 . S
C762 C759 1.339 . S
C762 C760 1.416 . S
C762 H783 0.930 . S
C763 C764 1.413 . S
C763 C765 1.427 1_565 S
C763 C769 1.416 1_565 S
C764 C757 1.424 . S
C764 C763 1.413 . S
C764 N768 1.361 . S
C765 C763 1.427 1_545 S
C765 C766 1.328 1_545 S
C765 H780 0.929 . S
C766 C760 1.448 . S
C766 C765 1.328 1_565 S
C766 H781 0.947 . S
Tb767 N758 2.617 . S
Tb767 N768 2.572 . S
Tb767 O802 2.349 . S
Tb767 O805 2.393 . S
Tb767 O806 2.465 . S
Tb767 O807 2.387 . S
Tb767 O809 2.428 . S
Tb767 O810 2.308 . S
Tb767 C831 2.802 . S
N768 C764 1.361 . S
N768 Tb767 2.572 . S
N768 C770 1.340 . S
C769 C763 1.416 1_545 S
C769 C771 1.332 1_545 S
C769 H777 0.931 . S
C770 N768 1.340 . S
C770 C771 1.407 . S
C770 H776 0.930 . S
C771 C769 1.332 1_565 S
C771 C770 1.407 . S
C771 H773 0.929 . S
H772 C761 0.930 . S
H773 C771 0.929 . S
H774 C789 0.930 . S
H775 C796 0.929 . S
H776 C770 0.930 . S
H777 C769 0.931 . S
H778 C792 0.930 . S
H779 C759 0.930 . S
H780 C765 0.929 . S
H781 C766 0.947 . S
H782 C787 0.930 . S
H783 C762 0.930 . S
H784 C795 0.931 . S
N785 Tb756 2.617 . S
N785 C786 1.379 . S
N785 C789 1.334 . S
C786 N785 1.379 . S
C786 C788 1.416 . S
C786 C794 1.424 . S
C787 H782 0.930 . S
C787 C789 1.390 . S
C787 C790 1.339 . S
C788 C786 1.416 . S
C788 C790 1.416 . S
C788 C821 1.448 . S
C789 H774 0.930 . S
C789 N785 1.334 . S
C789 C787 1.390 . S
C790 C787 1.339 . S
C790 C788 1.416 . S
C790 H797 0.930 . S
N791 Tb756 2.572 . S
N791 C792 1.340 . S
N791 C794 1.361 . S
C792 H778 0.930 . S
C792 N791 1.340 . S
C792 C796 1.407 . S
C793 C794 1.413 . S
C793 C795 1.416 . S
C793 C822 1.427 . S
C794 C786 1.424 . S
C794 N791 1.361 . S
C794 C793 1.413 . S
C795 H784 0.931 . S
C795 C793 1.416 . S
C795 C796 1.332 . S
C796 H775 0.929 . S
C796 C792 1.407 . S
C796 C795 1.332 . S
H797 C790 0.930 . S
H798 C821 0.930 . S
H799 C822 0.929 . S
O800 Tb756 2.465 . S
O800 C820 1.264 . S
O801 Tb756 2.387 . S
O801 C812 1.264 . S
O802 Tb767 2.349 . S
O802 C812 1.243 . S
O803 Tb756 2.428 . S
O803 C820 1.256 . S
O804 Tb756 2.308 . S
O804 C819 1.266 . S
O805 Tb767 2.393 . S
O805 C819 1.248 . S
O806 Tb767 2.465 . S
O806 C831 1.264 . S
O807 Tb767 2.387 . S
O807 C823 1.264 . S
O808 Tb756 2.349 . S
O808 C823 1.243 . S
O809 Tb767 2.428 . S
O809 C831 1.256 . S
O810 Tb767 2.308 . S
O810 C830 1.266 . S
O811 Tb756 2.393 . S
O811 C830 1.248 . S
C812 O801 1.264 . S
C812 O802 1.243 . S
C813 C816 1.399 . S
C813 C818 1.383 . S
C813 C820 1.496 . S
C814 C815 1.399 . S
C814 C818 1.389 . S
C815 C814 1.399 . S
C815 C817 1.380 . S
C815 H832 0.929 . S
C816 C813 1.399 . S
C816 C817 1.392 . S
C816 H833 0.929 . S
C817 C815 1.380 . S
C817 C816 1.392 . S
C817 H834 0.929 . S
C818 C813 1.383 . S
C818 C814 1.389 . S
C818 H835 0.931 . S
C819 O804 1.266 . S
C819 O805 1.248 . S
C820 Tb756 2.802 . S
C820 O800 1.264 . S
C820 O803 1.256 . S
C820 C813 1.496 . S
C821 C788 1.448 . S
C821 H798 0.930 . S
C821 C822 1.328 . S
C822 C793 1.427 . S
C822 H799 0.929 . S
C822 C821 1.328 . S
C823 O807 1.264 . S
C823 O808 1.243 . S
C824 C827 1.401 . S
C824 C828 1.387 . S
C824 C831 1.491 1_545 S
C825 C826 1.399 . S
C825 C828 1.389 . S
C826 C825 1.399 . S
C826 C829 1.380 . S
C826 H836 0.929 . S
C827 C824 1.401 . S
C827 C829 1.392 . S
C827 H837 0.929 1_545 S
C828 C824 1.387 . S
C828 C825 1.389 . S
C828 H838 0.931 . S
C829 C826 1.380 . S
C829 C827 1.392 . S
C829 H839 0.929 . S
C830 O810 1.266 . S
C830 O811 1.248 . S
C831 Tb767 2.802 . S
C831 O806 1.264 . S
C831 O809 1.256 . S
C831 C824 1.491 1_565 S
H832 C815 0.929 . S
H833 C816 0.929 . S
H834 C817 0.929 . S
H835 C818 0.931 . S
H836 C826 0.929 . S
H837 C827 0.929 1_565 S
H838 C828 0.931 . S
H839 C829 0.929 . S
Tb840 N869 2.617 . S
Tb840 N875 2.572 . S
Tb840 O884 2.465 . S
Tb840 O885 2.387 . S
Tb840 O887 2.428 . S
Tb840 O888 2.308 . S
Tb840 O892 2.349 . S
Tb840 O895 2.393 . S
Tb840 C904 2.802 . S
C841 N842 1.379 . S
C841 C844 1.416 . S
C841 C848 1.424 . S
N842 C841 1.379 . S
N842 C845 1.334 . S
N842 Tb851 2.617 . S
C843 C845 1.390 . S
C843 C846 1.339 . S
C843 H863 0.930 . S
C844 C841 1.416 . S
C844 C846 1.416 . S
C844 C850 1.448 . S
C845 N842 1.334 . S
C845 C843 1.390 . S
C845 H856 0.930 . S
C846 C843 1.339 . S
C846 C844 1.416 . S
C846 H867 0.930 . S
C847 C848 1.413 . S
C847 C849 1.427 . S
C847 C853 1.416 . S
C848 C841 1.424 . S
C848 C847 1.413 . S
C848 N852 1.361 . S
C849 C847 1.427 . S
C849 C850 1.328 . S
C849 H864 0.929 . S
C850 C844 1.448 . S
C850 C849 1.328 . S
C850 H865 0.930 . S
Tb851 N842 2.617 . S
Tb851 N852 2.572 . S
Tb851 O886 2.349 . S
Tb851 O889 2.393 . S
Tb851 O890 2.465 . S
Tb851 O891 2.387 . S
Tb851 O893 2.428 . S
Tb851 O894 2.308 . S
Tb851 C915 2.802 . S
N852 C848 1.361 . S
N852 Tb851 2.572 . S
N852 C854 1.340 . S
C853 C847 1.416 . S
C853 C855 1.332 . S
C853 H861 0.931 . S
C854 N852 1.340 . S
C854 C855 1.407 . S
C854 H860 0.930 . S
C855 C853 1.332 . S
C855 C854 1.407 . S
C855 H857 0.929 . S
H856 C845 0.930 . S
H857 C855 0.929 . S
H858 C873 0.930 . S
H859 C880 0.929 . S
H860 C854 0.930 . S
H861 C853 0.931 . S
H862 C876 0.930 . S
H863 C843 0.930 . S
H864 C849 0.929 . S
H865 C850 0.930 . S
H866 C871 0.930 . S
H867 C846 0.930 . S
H868 C879 0.931 . S
N869 Tb840 2.617 . S
N869 C870 1.379 . S
N869 C873 1.334 . S
C870 N869 1.379 . S
C870 C872 1.416 1_565 S
C870 C878 1.424 . S
C871 H866 0.930 . S
C871 C873 1.390 . S
C871 C874 1.339 . S
C872 C870 1.416 1_545 S
C872 C874 1.416 1_545 S
C872 C905 1.448 . S
C873 H858 0.930 . S
C873 N869 1.334 . S
C873 C871 1.390 . S
C874 C871 1.339 . S
C874 C872 1.416 1_565 S
C874 H881 0.930 1_565 S
N875 Tb840 2.572 . S
N875 C876 1.340 . S
N875 C878 1.361 . S
C876 H862 0.930 . S
C876 N875 1.340 . S
C876 C880 1.407 1_565 S
C877 C878 1.413 1_545 S
C877 C879 1.416 . S
C877 C906 1.427 . S
C878 C870 1.424 . S
C878 N875 1.361 . S
C878 C877 1.413 1_565 S
C879 H868 0.931 . S
C879 C877 1.416 . S
C879 C880 1.332 . S
C880 H859 0.929 . S
C880 C876 1.407 1_545 S
C880 C879 1.332 . S
H881 C874 0.930 1_545 S
H882 C905 0.930 . S
H883 C906 0.929 . S
O884 Tb840 2.465 . S
O884 C904 1.264 . S
O885 Tb840 2.387 . S
O885 C896 1.264 . S
O886 Tb851 2.349 . S
O886 C896 1.243 . S
O887 Tb840 2.428 . S
O887 C904 1.256 . S
O888 Tb840 2.308 . S
O888 C903 1.266 . S
O889 Tb851 2.393 . S
O889 C903 1.248 . S
O890 Tb851 2.465 . S
O890 C915 1.264 . S
O891 Tb851 2.387 . S
O891 C907 1.264 . S
O892 Tb840 2.349 . S
O892 C907 1.243 . S
O893 Tb851 2.428 . S
O893 C915 1.256 . S
O894 Tb851 2.308 . S
O894 C914 1.266 . S
O895 Tb840 2.393 . S
O895 C914 1.248 . S
C896 O885 1.264 . S
C896 O886 1.243 . S
C897 C900 1.399 . S
C897 C902 1.383 . S
C897 C904 1.496 . S
C898 C899 1.399 . S
C898 C902 1.389 . S
C899 C898 1.399 . S
C899 C901 1.380 . S
C899 H916 0.929 . S
C900 C897 1.399 . S
C900 C901 1.392 . S
C900 H917 0.929 . S
C901 C899 1.380 . S
C901 C900 1.392 . S
C901 H918 0.929 . S
C902 C897 1.383 . S
C902 C898 1.389 . S
C902 H919 0.931 . S
C903 O888 1.266 . S
C903 O889 1.248 . S
C904 Tb840 2.802 . S
C904 O884 1.264 . S
C904 O887 1.256 . S
C904 C897 1.496 . S
C905 C872 1.448 . S
C905 H882 0.930 . S
C905 C906 1.328 . S
C906 C877 1.427 . S
C906 H883 0.929 . S
C906 C905 1.328 . S
C907 O891 1.264 . S
C907 O892 1.243 . S
C908 C911 1.399 . S
C908 C912 1.383 . S
C908 C915 1.496 . S
C909 C910 1.399 . S
C909 C912 1.389 1_655 S
C910 C909 1.399 . S
C910 C913 1.380 . S
C910 H920 0.929 . S
C911 C908 1.399 . S
C911 C913 1.392 1_455 S
C911 H921 0.929 . S
C912 C908 1.383 . S
C912 C909 1.389 1_455 S
C912 H922 0.931 . S
C913 C910 1.380 . S
C913 C911 1.392 1_655 S
C913 H923 0.929 . S
C914 O894 1.266 . S
C914 O895 1.248 . S
C915 Tb851 2.802 . S
C915 O890 1.264 . S
C915 O893 1.256 . S
C915 C908 1.496 . S
H916 C899 0.929 . S
H917 C900 0.929 . S
H918 C901 0.929 . S
H919 C902 0.931 . S
H920 C910 0.929 . S
H921 C911 0.929 . S
H922 C912 0.931 . S
H923 C913 0.929 . S
Tb924 N953 2.617 . S
Tb924 N959 2.572 . S
Tb924 O968 2.465 . S
Tb924 O969 2.387 . S
Tb924 O971 2.428 . S
Tb924 O972 2.308 . S
Tb924 O976 2.349 . S
Tb924 O979 2.393 . S
Tb924 C988 2.802 . S
C925 N926 1.379 . S
C925 C928 1.416 . S
C925 C932 1.424 . S
N926 C925 1.379 . S
N926 C929 1.334 . S
N926 Tb935 2.617 . S
C927 C929 1.390 . S
C927 C930 1.339 . S
C927 H947 0.930 . S
C928 C925 1.416 . S
C928 C930 1.416 . S
C928 C934 1.448 . S
C929 N926 1.334 . S
C929 C927 1.390 . S
C929 H940 0.930 . S
C930 C927 1.339 . S
C930 C928 1.416 . S
C930 H951 0.930 . S
C931 C932 1.413 . S
C931 C933 1.427 . S
C931 C937 1.416 . S
C932 C925 1.424 . S
C932 C931 1.413 . S
C932 N936 1.361 . S
C933 C931 1.427 . S
C933 C934 1.328 . S
C933 H948 0.929 . S
C934 C928 1.448 . S
C934 C933 1.328 . S
C934 H949 0.930 . S
Tb935 N926 2.617 . S
Tb935 N936 2.572 . S
Tb935 O970 2.349 . S
Tb935 O973 2.393 . S
Tb935 O974 2.465 . S
Tb935 O975 2.387 . S
Tb935 O977 2.428 . S
Tb935 O978 2.308 . S
Tb935 C999 2.802 . S
N936 C932 1.361 . S
N936 Tb935 2.572 . S
N936 C938 1.340 . S
C937 C931 1.416 . S
C937 C939 1.332 . S
C937 H945 0.931 . S
C938 N936 1.340 . S
C938 C939 1.407 . S
C938 H944 0.930 . S
C939 C937 1.332 . S
C939 C938 1.407 . S
C939 H941 0.929 . S
H940 C929 0.930 . S
H941 C939 0.929 . S
H942 C957 0.930 . S
H943 C964 0.929 . S
H944 C938 0.930 . S
H945 C937 0.931 . S
H946 C960 0.930 . S
H947 C927 0.930 . S
H948 C933 0.929 . S
H949 C934 0.930 . S
H950 C955 0.930 . S
H951 C930 0.930 . S
H952 C963 0.931 . S
N953 Tb924 2.617 . S
N953 C954 1.379 . S
N953 C957 1.334 . S
C954 N953 1.379 . S
C954 C956 1.416 . S
C954 C962 1.424 . S
C955 H950 0.930 . S
C955 C957 1.390 . S
C955 C958 1.339 . S
C956 C954 1.416 . S
C956 C958 1.416 . S
C956 C989 1.448 1_455 S
C957 H942 0.930 . S
C957 N953 1.334 . S
C957 C955 1.390 . S
C958 C955 1.339 . S
C958 C956 1.416 . S
C958 H965 0.930 . S
N959 Tb924 2.572 . S
N959 C960 1.340 . S
N959 C962 1.361 . S
C960 H946 0.930 . S
C960 N959 1.340 . S
C960 C964 1.407 . S
C961 C962 1.413 1_655 S
C961 C963 1.416 . S
C961 C990 1.427 . S
C962 C954 1.424 . S
C962 N959 1.361 . S
C962 C961 1.413 1_455 S
C963 H952 0.931 . S
C963 C961 1.416 . S
C963 C964 1.332 1_655 S
C964 H943 0.929 . S
C964 C960 1.407 . S
C964 C963 1.332 1_455 S
H965 C958 0.930 . S
H966 C989 0.930 . S
H967 C990 0.929 . S
O968 Tb924 2.465 . S
O968 C988 1.264 . S
O969 Tb924 2.387 . S
O969 C980 1.264 . S
O970 Tb935 2.349 . S
O970 C980 1.243 . S
O971 Tb924 2.428 . S
O971 C988 1.256 . S
O972 Tb924 2.308 . S
O972 C987 1.266 . S
O973 Tb935 2.393 . S
O973 C987 1.248 . S
O974 Tb935 2.465 . S
O974 C999 1.264 . S
O975 Tb935 2.387 . S
O975 C991 1.264 . S
O976 Tb924 2.349 . S
O976 C991 1.243 . S
O977 Tb935 2.428 . S
O977 C999 1.256 . S
O978 Tb935 2.308 . S
O978 C998 1.266 . S
O979 Tb924 2.393 . S
O979 C998 1.248 . S
C980 O969 1.264 . S
C980 O970 1.243 . S
C981 C984 1.399 . S
C981 C986 1.383 . S
C981 C988 1.496 . S
C982 C983 1.399 . S
C982 C986 1.389 . S
C983 C982 1.399 . S
C983 C985 1.380 . S
C983 H1000 0.929 . S
C984 C981 1.399 . S
C984 C985 1.392 . S
C984 H1001 0.929 . S
C985 C983 1.380 . S
C985 C984 1.392 . S
C985 H1002 0.929 . S
C986 C981 1.383 . S
C986 C982 1.389 . S
C986 H1003 0.931 . S
C987 O972 1.266 . S
C987 O973 1.248 . S
C988 Tb924 2.802 . S
C988 O968 1.264 . S
C988 O971 1.256 . S
C988 C981 1.496 . S
C989 C956 1.448 1_655 S
C989 H966 0.930 . S
C989 C990 1.328 . S
C990 C961 1.427 . S
C990 H967 0.929 . S
C990 C989 1.328 . S
C991 O975 1.264 . S
C991 O976 1.243 . S
C992 C995 1.399 . S
C992 C996 1.383 . S
C992 C999 1.496 . S
C993 C994 1.399 . S
C993 C996 1.389 . S
C994 C993 1.399 . S
C994 C997 1.380 . S
C994 H1004 0.929 . S
C995 C992 1.399 . S
C995 C997 1.392 . S
C995 H1005 0.929 . S
C996 C992 1.383 . S
C996 C993 1.389 . S
C996 H1006 0.931 . S
C997 C994 1.380 . S
C997 C995 1.392 . S
C997 H1007 0.929 . S
C998 O978 1.266 . S
C998 O979 1.248 . S
C999 Tb935 2.802 . S
C999 O974 1.264 . S
C999 O977 1.256 . S
C999 C992 1.496 . S
H1000 C983 0.929 . S
H1001 C984 0.929 . S
H1002 C985 0.929 . S
H1003 C986 0.931 . S
H1004 C994 0.929 . S
H1005 C995 0.929 . S
H1006 C996 0.931 . S
H1007 C997 0.929 . S
Tb1008 N1037 2.617 . S
Tb1008 N1043 2.572 . S
Tb1008 O1052 2.465 . S
Tb1008 O1053 2.387 . S
Tb1008 O1055 2.428 . S
Tb1008 O1056 2.308 . S
Tb1008 O1060 2.349 . S
Tb1008 O1063 2.393 . S
Tb1008 C1072 2.802 . S
C1009 N1010 1.379 . S
C1009 C1012 1.416 . S
C1009 C1016 1.424 . S
N1010 C1009 1.379 . S
N1010 C1013 1.334 . S
N1010 Tb1019 2.617 . S
C1011 C1013 1.390 . S
C1011 C1014 1.339 . S
C1011 H1031 0.930 . S
C1012 C1009 1.416 . S
C1012 C1014 1.416 . S
C1012 C1018 1.448 . S
C1013 N1010 1.334 . S
C1013 C1011 1.390 . S
C1013 H1024 0.930 . S
C1014 C1011 1.339 . S
C1014 C1012 1.416 . S
C1014 H1035 0.930 . S
C1015 C1016 1.413 . S
C1015 C1017 1.427 1_655 S
C1015 C1021 1.416 1_655 S
C1016 C1009 1.424 . S
C1016 C1015 1.413 . S
C1016 N1020 1.361 . S
C1017 C1015 1.427 1_455 S
C1017 C1018 1.328 1_455 S
C1017 H1032 0.929 . S
C1018 C1012 1.448 . S
C1018 C1017 1.328 1_655 S
C1018 H1033 0.947 . S
Tb1019 N1010 2.617 . S
Tb1019 N1020 2.572 . S
Tb1019 O1054 2.349 . S
Tb1019 O1057 2.393 . S
Tb1019 O1058 2.465 . S
Tb1019 O1059 2.387 . S
Tb1019 O1061 2.428 . S
Tb1019 O1062 2.308 . S
Tb1019 C1083 2.802 . S
N1020 C1016 1.361 . S
N1020 Tb1019 2.572 . S
N1020 C1022 1.340 . S
C1021 C1015 1.416 1_455 S
C1021 C1023 1.332 1_455 S
C1021 H1029 0.931 . S
C1022 N1020 1.340 . S
C1022 C1023 1.407 . S
C1022 H1028 0.930 . S
C1023 C1021 1.332 1_655 S
C1023 C1022 1.407 . S
C1023 H1025 0.929 . S
H1024 C1013 0.930 . S
H1025 C1023 0.929 . S
H1026 C1041 0.930 . S
H1027 C1048 0.929 . S
H1028 C1022 0.930 . S
H1029 C1021 0.931 . S
H1030 C1044 0.930 . S
H1031 C1011 0.930 . S
H1032 C1017 0.929 . S
H1033 C1018 0.947 . S
H1034 C1039 0.930 . S
H1035 C1014 0.930 . S
H1036 C1047 0.931 . S
N1037 Tb1008 2.617 . S
N1037 C1038 1.379 . S
N1037 C1041 1.334 . S
C1038 N1037 1.379 . S
C1038 C1040 1.416 . S
C1038 C1046 1.424 . S
C1039 H1034 0.930 . S
C1039 C1041 1.390 . S
C1039 C1042 1.339 . S
C1040 C1038 1.416 . S
C1040 C1042 1.416 . S
C1040 C1073 1.448 . S
C1041 H1026 0.930 . S
C1041 N1037 1.334 . S
C1041 C1039 1.390 . S
C1042 C1039 1.339 . S
C1042 C1040 1.416 . S
C1042 H1049 0.930 . S
N1043 Tb1008 2.572 . S
N1043 C1044 1.340 . S
N1043 C1046 1.361 . S
C1044 H1030 0.930 . S
C1044 N1043 1.340 . S
C1044 C1048 1.407 . S
C1045 C1046 1.413 . S
C1045 C1047 1.416 . S
C1045 C1074 1.427 . S
C1046 C1038 1.424 . S
C1046 N1043 1.361 . S
C1046 C1045 1.413 . S
C1047 H1036 0.931 . S
C1047 C1045 1.416 . S
C1047 C1048 1.332 . S
C1048 H1027 0.929 . S
C1048 C1044 1.407 . S
C1048 C1047 1.332 . S
H1049 C1042 0.930 . S
H1050 C1073 0.930 . S
H1051 C1074 0.929 . S
O1052 Tb1008 2.465 . S
O1052 C1072 1.264 . S
O1053 Tb1008 2.387 . S
O1053 C1064 1.264 . S
O1054 Tb1019 2.349 . S
O1054 C1064 1.243 . S
O1055 Tb1008 2.428 . S
O1055 C1072 1.256 . S
O1056 Tb1008 2.308 . S
O1056 C1071 1.266 . S
O1057 Tb1019 2.393 . S
O1057 C1071 1.248 . S
O1058 Tb1019 2.465 . S
O1058 C1083 1.264 . S
O1059 Tb1019 2.387 . S
O1059 C1075 1.264 . S
O1060 Tb1008 2.349 . S
O1060 C1075 1.243 . S
O1061 Tb1019 2.428 . S
O1061 C1083 1.256 . S
O1062 Tb1019 2.308 . S
O1062 C1082 1.266 . S
O1063 Tb1008 2.393 . S
O1063 C1082 1.248 . S
C1064 O1053 1.264 . S
C1064 O1054 1.243 . S
C1065 C1068 1.399 . S
C1065 C1070 1.383 . S
C1065 C1072 1.496 . S
C1066 C1067 1.399 . S
C1066 C1070 1.389 . S
C1067 C1066 1.399 . S
C1067 C1069 1.380 . S
C1067 H1084 0.929 . S
C1068 C1065 1.399 . S
C1068 C1069 1.392 . S
C1068 H1085 0.929 . S
C1069 C1067 1.380 . S
C1069 C1068 1.392 . S
C1069 H1086 0.929 . S
C1070 C1065 1.383 . S
C1070 C1066 1.389 . S
C1070 H1087 0.931 . S
C1071 O1056 1.266 . S
C1071 O1057 1.248 . S
C1072 Tb1008 2.802 . S
C1072 O1052 1.264 . S
C1072 O1055 1.256 . S
C1072 C1065 1.496 . S
C1073 C1040 1.448 . S
C1073 H1050 0.930 . S
C1073 C1074 1.328 . S
C1074 C1045 1.427 . S
C1074 H1051 0.929 . S
C1074 C1073 1.328 . S
C1075 O1059 1.264 . S
C1075 O1060 1.243 . S
C1076 C1079 1.401 . S
C1076 C1080 1.387 . S
C1076 C1083 1.491 1_455 S
C1077 C1078 1.399 . S
C1077 C1080 1.389 . S
C1078 C1077 1.399 . S
C1078 C1081 1.380 . S
C1078 H1088 0.929 . S
C1079 C1076 1.401 . S
C1079 C1081 1.392 . S
C1079 H1089 0.929 1_455 S
C1080 C1076 1.387 . S
C1080 C1077 1.389 . S
C1080 H1090 0.931 . S
C1081 C1078 1.380 . S
C1081 C1079 1.392 . S
C1081 H1091 0.929 . S
C1082 O1062 1.266 . S
C1082 O1063 1.248 . S
C1083 Tb1019 2.802 . S
C1083 O1058 1.264 . S
C1083 O1061 1.256 . S
C1083 C1076 1.491 1_655 S
H1084 C1067 0.929 . S
H1085 C1068 0.929 . S
H1086 C1069 0.929 . S
H1087 C1070 0.931 . S
H1088 C1078 0.929 . S
H1089 C1079 0.929 1_655 S
H1090 C1080 0.931 . S
H1091 C1081 0.929 . S
Tb1092 N1121 2.617 . S
Tb1092 N1127 2.572 . S
Tb1092 O1136 2.465 . S
Tb1092 O1137 2.387 . S
Tb1092 O1139 2.428 . S
Tb1092 O1140 2.308 . S
Tb1092 O1144 2.349 . S
Tb1092 O1147 2.393 . S
Tb1092 C1156 2.802 . S
C1093 N1094 1.379 . S
C1093 C1096 1.416 . S
C1093 C1100 1.424 . S
N1094 C1093 1.379 . S
N1094 C1097 1.334 . S
N1094 Tb1103 2.617 . S
C1095 C1097 1.390 . S
C1095 C1098 1.339 . S
C1095 H1115 0.930 . S
C1096 C1093 1.416 . S
C1096 C1098 1.416 . S
C1096 C1102 1.448 . S
C1097 N1094 1.334 . S
C1097 C1095 1.390 . S
C1097 H1108 0.930 . S
C1098 C1095 1.339 . S
C1098 C1096 1.416 . S
C1098 H1119 0.930 . S
C1099 C1100 1.413 . S
C1099 C1101 1.427 . S
C1099 C1105 1.416 . S
C1100 C1093 1.424 . S
C1100 C1099 1.413 . S
C1100 N1104 1.361 . S
C1101 C1099 1.427 . S
C1101 C1102 1.328 . S
C1101 H1116 0.929 . S
C1102 C1096 1.448 . S
C1102 C1101 1.328 . S
C1102 H1117 0.930 . S
Tb1103 N1094 2.617 . S
Tb1103 N1104 2.572 . S
Tb1103 O1138 2.349 . S
Tb1103 O1141 2.393 . S
Tb1103 O1142 2.465 . S
Tb1103 O1143 2.387 . S
Tb1103 O1145 2.428 . S
Tb1103 O1146 2.308 . S
Tb1103 C1167 2.802 . S
N1104 C1100 1.361 . S
N1104 Tb1103 2.572 . S
N1104 C1106 1.340 . S
C1105 C1099 1.416 . S
C1105 C1107 1.332 . S
C1105 H1113 0.931 . S
C1106 N1104 1.340 . S
C1106 C1107 1.407 . S
C1106 H1112 0.930 . S
C1107 C1105 1.332 . S
C1107 C1106 1.407 . S
C1107 H1109 0.929 . S
H1108 C1097 0.930 . S
H1109 C1107 0.929 . S
H1110 C1125 0.930 . S
H1111 C1132 0.929 . S
H1112 C1106 0.930 . S
H1113 C1105 0.931 . S
H1114 C1128 0.930 . S
H1115 C1095 0.930 . S
H1116 C1101 0.929 . S
H1117 C1102 0.930 . S
H1118 C1123 0.930 . S
H1119 C1098 0.930 . S
H1120 C1131 0.931 . S
N1121 Tb1092 2.617 . S
N1121 C1122 1.379 . S
N1121 C1125 1.334 . S
C1122 N1121 1.379 . S
C1122 C1124 1.416 . S
C1122 C1130 1.424 . S
C1123 H1118 0.930 . S
C1123 C1125 1.390 . S
C1123 C1126 1.339 . S
C1124 C1122 1.416 . S
C1124 C1126 1.416 . S
C1124 C1157 1.448 1_545 S
C1125 H1110 0.930 . S
C1125 N1121 1.334 . S
C1125 C1123 1.390 . S
C1126 C1123 1.339 . S
C1126 C1124 1.416 . S
C1126 H1133 0.930 . S
N1127 Tb1092 2.572 . S
N1127 C1128 1.340 . S
N1127 C1130 1.361 . S
C1128 H1114 0.930 . S
C1128 N1127 1.340 . S
C1128 C1132 1.407 . S
C1129 C1130 1.413 1_565 S
C1129 C1131 1.416 . S
C1129 C1158 1.427 . S
C1130 C1122 1.424 . S
C1130 N1127 1.361 . S
C1130 C1129 1.413 1_545 S
C1131 H1120 0.931 . S
C1131 C1129 1.416 . S
C1131 C1132 1.332 1_565 S
C1132 H1111 0.929 . S
C1132 C1128 1.407 . S
C1132 C1131 1.332 1_545 S
H1133 C1126 0.930 . S
H1134 C1157 0.930 . S
H1135 C1158 0.929 . S
O1136 Tb1092 2.465 . S
O1136 C1156 1.264 . S
O1137 Tb1092 2.387 . S
O1137 C1148 1.264 . S
O1138 Tb1103 2.349 . S
O1138 C1148 1.243 . S
O1139 Tb1092 2.428 . S
O1139 C1156 1.256 . S
O1140 Tb1092 2.308 . S
O1140 C1155 1.266 . S
O1141 Tb1103 2.393 . S
O1141 C1155 1.248 . S
O1142 Tb1103 2.465 . S
O1142 C1167 1.264 . S
O1143 Tb1103 2.387 . S
O1143 C1159 1.264 . S
O1144 Tb1092 2.349 . S
O1144 C1159 1.243 . S
O1145 Tb1103 2.428 . S
O1145 C1167 1.256 . S
O1146 Tb1103 2.308 . S
O1146 C1166 1.266 . S
O1147 Tb1092 2.393 . S
O1147 C1166 1.248 . S
C1148 O1137 1.264 . S
C1148 O1138 1.243 . S
C1149 C1152 1.399 . S
C1149 C1154 1.383 . S
C1149 C1156 1.496 . S
C1150 C1151 1.399 . S
C1150 C1154 1.389 . S
C1151 C1150 1.399 . S
C1151 C1153 1.380 . S
C1151 H1168 0.929 . S
C1152 C1149 1.399 . S
C1152 C1153 1.392 . S
C1152 H1169 0.929 . S
C1153 C1151 1.380 . S
C1153 C1152 1.392 . S
C1153 H1170 0.929 . S
C1154 C1149 1.383 . S
C1154 C1150 1.389 . S
C1154 H1171 0.931 . S
C1155 O1140 1.266 . S
C1155 O1141 1.248 . S
C1156 Tb1092 2.802 . S
C1156 O1136 1.264 . S
C1156 O1139 1.256 . S
C1156 C1149 1.496 . S
C1157 C1124 1.448 1_565 S
C1157 H1134 0.930 . S
C1157 C1158 1.328 . S
C1158 C1129 1.427 . S
C1158 H1135 0.929 . S
C1158 C1157 1.328 . S
C1159 O1143 1.264 . S
C1159 O1144 1.243 . S
C1160 C1163 1.399 . S
C1160 C1164 1.383 . S
C1160 C1167 1.496 . S
C1161 C1162 1.399 . S
C1161 C1164 1.389 . S
C1162 C1161 1.399 . S
C1162 C1165 1.380 . S
C1162 H1172 0.929 . S
C1163 C1160 1.399 . S
C1163 C1165 1.392 . S
C1163 H1173 0.929 . S
C1164 C1160 1.383 . S
C1164 C1161 1.389 . S
C1164 H1174 0.931 . S
C1165 C1162 1.380 . S
C1165 C1163 1.392 . S
C1165 H1175 0.929 . S
C1166 O1146 1.266 . S
C1166 O1147 1.248 . S
C1167 Tb1103 2.802 . S
C1167 O1142 1.264 . S
C1167 O1145 1.256 . S
C1167 C1160 1.496 . S
H1168 C1151 0.929 . S
H1169 C1152 0.929 . S
H1170 C1153 0.929 . S
H1171 C1154 0.931 . S
H1172 C1162 0.929 . S
H1173 C1163 0.929 . S
H1174 C1164 0.931 . S
H1175 C1165 0.929 . S
Tb1176 N1205 2.617 . S
Tb1176 N1211 2.572 . S
Tb1176 O1220 2.465 . S
Tb1176 O1221 2.387 . S
Tb1176 O1223 2.428 . S
Tb1176 O1224 2.308 . S
Tb1176 O1228 2.349 . S
Tb1176 O1231 2.393 . S
Tb1176 C1240 2.802 . S
C1177 N1178 1.379 . S
C1177 C1180 1.416 . S
C1177 C1184 1.424 . S
N1178 C1177 1.379 . S
N1178 C1181 1.334 . S
N1178 Tb1187 2.617 . S
C1179 C1181 1.390 . S
C1179 C1182 1.339 . S
C1179 H1199 0.930 . S
C1180 C1177 1.416 . S
C1180 C1182 1.416 . S
C1180 C1186 1.448 . S
C1181 N1178 1.334 . S
C1181 C1179 1.390 . S
C1181 H1192 0.930 . S
C1182 C1179 1.339 . S
C1182 C1180 1.416 . S
C1182 H1203 0.930 . S
C1183 C1184 1.413 . S
C1183 C1185 1.427 . S
C1183 C1189 1.416 . S
C1184 C1177 1.424 . S
C1184 C1183 1.413 . S
C1184 N1188 1.361 . S
C1185 C1183 1.427 . S
C1185 C1186 1.328 . S
C1185 H1200 0.929 . S
C1186 C1180 1.448 . S
C1186 C1185 1.328 . S
C1186 H1201 0.930 . S
Tb1187 N1178 2.617 . S
Tb1187 N1188 2.572 . S
Tb1187 O1222 2.349 . S
Tb1187 O1225 2.393 . S
Tb1187 O1226 2.465 . S
Tb1187 O1227 2.387 . S
Tb1187 O1229 2.428 . S
Tb1187 O1230 2.308 . S
Tb1187 C1251 2.802 . S
N1188 C1184 1.361 . S
N1188 Tb1187 2.572 . S
N1188 C1190 1.340 . S
C1189 C1183 1.416 . S
C1189 C1191 1.332 . S
C1189 H1197 0.931 . S
C1190 N1188 1.340 . S
C1190 C1191 1.407 . S
C1190 H1196 0.930 . S
C1191 C1189 1.332 . S
C1191 C1190 1.407 . S
C1191 H1193 0.929 . S
H1192 C1181 0.930 . S
H1193 C1191 0.929 . S
H1194 C1209 0.930 . S
H1195 C1216 0.929 . S
H1196 C1190 0.930 . S
H1197 C1189 0.931 . S
H1198 C1212 0.930 . S
H1199 C1179 0.930 . S
H1200 C1185 0.929 . S
H1201 C1186 0.930 . S
H1202 C1207 0.930 . S
H1203 C1182 0.930 . S
H1204 C1215 0.931 . S
N1205 Tb1176 2.617 . S
N1205 C1206 1.379 . S
N1205 C1209 1.334 . S
C1206 N1205 1.379 . S
C1206 C1208 1.416 1_655 S
C1206 C1214 1.424 . S
C1207 H1202 0.930 . S
C1207 C1209 1.390 . S
C1207 C1210 1.339 . S
C1208 C1206 1.416 1_455 S
C1208 C1210 1.416 1_455 S
C1208 C1241 1.448 . S
C1209 H1194 0.930 . S
C1209 N1205 1.334 . S
C1209 C1207 1.390 . S
C1210 C1207 1.339 . S
C1210 C1208 1.416 1_655 S
C1210 H1217 0.930 1_655 S
N1211 Tb1176 2.572 . S
N1211 C1212 1.340 . S
N1211 C1214 1.361 . S
C1212 H1198 0.930 . S
C1212 N1211 1.340 . S
C1212 C1216 1.407 1_655 S
C1213 C1214 1.413 1_455 S
C1213 C1215 1.416 . S
C1213 C1242 1.427 . S
C1214 C1206 1.424 . S
C1214 N1211 1.361 . S
C1214 C1213 1.413 1_655 S
C1215 H1204 0.931 . S
C1215 C1213 1.416 . S
C1215 C1216 1.332 . S
C1216 H1195 0.929 . S
C1216 C1212 1.407 1_455 S
C1216 C1215 1.332 . S
H1217 C1210 0.930 1_455 S
H1218 C1241 0.930 . S
H1219 C1242 0.929 . S
O1220 Tb1176 2.465 . S
O1220 C1240 1.264 . S
O1221 Tb1176 2.387 . S
O1221 C1232 1.264 . S
O1222 Tb1187 2.349 . S
O1222 C1232 1.243 . S
O1223 Tb1176 2.428 . S
O1223 C1240 1.256 . S
O1224 Tb1176 2.308 . S
O1224 C1239 1.266 . S
O1225 Tb1187 2.393 . S
O1225 C1239 1.248 . S
O1226 Tb1187 2.465 . S
O1226 C1251 1.264 . S
O1227 Tb1187 2.387 . S
O1227 C1243 1.264 . S
O1228 Tb1176 2.349 . S
O1228 C1243 1.243 . S
O1229 Tb1187 2.428 . S
O1229 C1251 1.256 . S
O1230 Tb1187 2.308 . S
O1230 C1250 1.266 . S
O1231 Tb1176 2.393 . S
O1231 C1250 1.248 . S
C1232 O1221 1.264 . S
C1232 O1222 1.243 . S
C1233 C1236 1.399 . S
C1233 C1238 1.383 . S
C1233 C1240 1.496 . S
C1234 C1235 1.399 . S
C1234 C1238 1.389 . S
C1235 C1234 1.399 . S
C1235 C1237 1.380 . S
C1235 H1252 0.929 . S
C1236 C1233 1.399 . S
C1236 C1237 1.392 . S
C1236 H1253 0.929 . S
C1237 C1235 1.380 . S
C1237 C1236 1.392 . S
C1237 H1254 0.929 . S
C1238 C1233 1.383 . S
C1238 C1234 1.389 . S
C1238 H1255 0.931 . S
C1239 O1224 1.266 . S
C1239 O1225 1.248 . S
C1240 Tb1176 2.802 . S
C1240 O1220 1.264 . S
C1240 O1223 1.256 . S
C1240 C1233 1.496 . S
C1241 C1208 1.448 . S
C1241 H1218 0.930 . S
C1241 C1242 1.328 . S
C1242 C1213 1.427 . S
C1242 H1219 0.929 . S
C1242 C1241 1.328 . S
C1243 O1227 1.264 . S
C1243 O1228 1.243 . S
C1244 C1247 1.399 . S
C1244 C1248 1.383 . S
C1244 C1251 1.496 . S
C1245 C1246 1.399 . S
C1245 C1248 1.389 1_565 S
C1246 C1245 1.399 . S
C1246 C1249 1.380 . S
C1246 H1256 0.929 . S
C1247 C1244 1.399 . S
C1247 C1249 1.392 1_545 S
C1247 H1257 0.929 . S
C1248 C1244 1.383 . S
C1248 C1245 1.389 1_545 S
C1248 H1258 0.931 . S
C1249 C1246 1.380 . S
C1249 C1247 1.392 1_565 S
C1249 H1259 0.929 . S
C1250 O1230 1.266 . S
C1250 O1231 1.248 . S
C1251 Tb1187 2.802 . S
C1251 O1226 1.264 . S
C1251 O1229 1.256 . S
C1251 C1244 1.496 . S
H1252 C1235 0.929 . S
H1253 C1236 0.929 . S
H1254 C1237 0.929 . S
H1255 C1238 0.931 . S
H1256 C1246 0.929 . S
H1257 C1247 0.929 . S
H1258 C1248 0.931 . S
H1259 C1249 0.929 . S
Tb1260 N1289 2.617 . S
Tb1260 N1295 2.572 . S
Tb1260 O1304 2.465 . S
Tb1260 O1305 2.387 . S
Tb1260 O1307 2.428 . S
Tb1260 O1308 2.308 . S
Tb1260 O1312 2.349 . S
Tb1260 O1315 2.393 . S
Tb1260 C1324 2.802 . S
C1261 N1262 1.379 . S
C1261 C1264 1.416 . S
C1261 C1268 1.424 . S
N1262 C1261 1.379 . S
N1262 C1265 1.334 . S
N1262 Tb1271 2.617 . S
C1263 C1265 1.390 . S
C1263 C1266 1.339 . S
C1263 H1283 0.930 . S
C1264 C1261 1.416 . S
C1264 C1266 1.416 . S
C1264 C1270 1.448 . S
C1265 N1262 1.334 . S
C1265 C1263 1.390 . S
C1265 H1276 0.930 . S
C1266 C1263 1.339 . S
C1266 C1264 1.416 . S
C1266 H1287 0.930 . S
C1267 C1268 1.413 . S
C1267 C1269 1.427 . S
C1267 C1273 1.416 . S
C1268 C1261 1.424 . S
C1268 C1267 1.413 . S
C1268 N1272 1.361 . S
C1269 C1267 1.427 . S
C1269 C1270 1.328 . S
C1269 H1284 0.929 . S
C1270 C1264 1.448 . S
C1270 C1269 1.328 . S
C1270 H1285 0.930 . S
Tb1271 N1262 2.617 . S
Tb1271 N1272 2.572 . S
Tb1271 O1306 2.349 . S
Tb1271 O1309 2.393 . S
Tb1271 O1310 2.465 . S
Tb1271 O1311 2.387 . S
Tb1271 O1313 2.428 . S
Tb1271 O1314 2.308 . S
Tb1271 C1335 2.802 . S
N1272 C1268 1.361 . S
N1272 Tb1271 2.572 . S
N1272 C1274 1.340 . S
C1273 C1267 1.416 . S
C1273 C1275 1.332 . S
C1273 H1281 0.931 . S
C1274 N1272 1.340 . S
C1274 C1275 1.407 . S
C1274 H1280 0.930 . S
C1275 C1273 1.332 . S
C1275 C1274 1.407 . S
C1275 H1277 0.929 . S
H1276 C1265 0.930 . S
H1277 C1275 0.929 . S
H1278 C1293 0.930 . S
H1279 C1300 0.929 1_565 S
H1280 C1274 0.930 . S
H1281 C1273 0.931 . S
H1282 C1296 0.930 . S
H1283 C1263 0.930 . S
H1284 C1269 0.929 . S
H1285 C1270 0.930 . S
H1286 C1291 0.930 . S
H1287 C1266 0.930 . S
H1288 C1299 0.931 . S
N1289 Tb1260 2.617 . S
N1289 C1290 1.379 . S
N1289 C1293 1.334 . S
C1290 N1289 1.379 . S
C1290 C1292 1.416 . S
C1290 C1298 1.424 . S
C1291 H1286 0.930 . S
C1291 C1293 1.390 . S
C1291 C1294 1.339 . S
C1292 C1290 1.416 . S
C1292 C1294 1.416 . S
C1292 C1325 1.448 . S
C1293 H1278 0.930 . S
C1293 N1289 1.334 . S
C1293 C1291 1.390 . S
C1294 C1291 1.339 . S
C1294 C1292 1.416 . S
C1294 H1301 0.930 . S
N1295 Tb1260 2.572 . S
N1295 C1296 1.340 . S
N1295 C1298 1.361 . S
C1296 H1282 0.930 . S
C1296 N1295 1.340 . S
C1296 C1300 1.407 . S
C1297 C1298 1.413 . S
C1297 C1299 1.416 1_545 S
C1297 C1326 1.427 1_545 S
C1298 C1290 1.424 . S
C1298 N1295 1.361 . S
C1298 C1297 1.413 . S
C1299 H1288 0.931 . S
C1299 C1297 1.416 1_565 S
C1299 C1300 1.332 1_565 S
C1300 H1279 0.929 1_545 S
C1300 C1296 1.407 . S
C1300 C1299 1.332 1_545 S
H1301 C1294 0.930 . S
H1302 C1325 0.930 1_565 S
H1303 C1326 0.929 . S
O1304 Tb1260 2.465 . S
O1304 C1324 1.264 . S
O1305 Tb1260 2.387 . S
O1305 C1316 1.264 . S
O1306 Tb1271 2.349 . S
O1306 C1316 1.243 . S
O1307 Tb1260 2.428 . S
O1307 C1324 1.256 . S
O1308 Tb1260 2.308 . S
O1308 C1323 1.266 . S
O1309 Tb1271 2.393 . S
O1309 C1323 1.248 . S
O1310 Tb1271 2.465 . S
O1310 C1335 1.264 . S
O1311 Tb1271 2.387 . S
O1311 C1327 1.264 . S
O1312 Tb1260 2.349 . S
O1312 C1327 1.243 . S
O1313 Tb1271 2.428 . S
O1313 C1335 1.256 . S
O1314 Tb1271 2.308 . S
O1314 C1334 1.266 . S
O1315 Tb1260 2.393 . S
O1315 C1334 1.248 . S
C1316 O1305 1.264 . S
C1316 O1306 1.243 . S
C1317 C1320 1.399 . S
C1317 C1322 1.383 . S
C1317 C1324 1.496 1_565 S
C1318 C1319 1.399 . S
C1318 C1322 1.389 . S
C1319 C1318 1.399 . S
C1319 C1321 1.380 . S
C1319 H1336 0.929 . S
C1320 C1317 1.399 . S
C1320 C1321 1.392 . S
C1320 H1337 0.929 . S
C1321 C1319 1.380 . S
C1321 C1320 1.392 . S
C1321 H1338 0.929 . S
C1322 C1317 1.383 . S
C1322 C1318 1.389 . S
C1322 H1339 0.931 . S
C1323 O1308 1.266 . S
C1323 O1309 1.248 . S
C1324 Tb1260 2.802 . S
C1324 O1304 1.264 . S
C1324 O1307 1.256 . S
C1324 C1317 1.496 1_545 S
C1325 C1292 1.448 . S
C1325 H1302 0.930 1_545 S
C1325 C1326 1.328 1_545 S
C1326 C1297 1.427 1_565 S
C1326 H1303 0.929 . S
C1326 C1325 1.328 1_565 S
C1327 O1311 1.264 . S
C1327 O1312 1.243 . S
C1328 C1331 1.399 . S
C1328 C1332 1.383 . S
C1328 C1335 1.496 . S
C1329 C1330 1.399 . S
C1329 C1332 1.389 . S
C1330 C1329 1.399 . S
C1330 C1333 1.380 . S
C1330 H1340 0.929 . S
C1331 C1328 1.399 . S
C1331 C1333 1.392 . S
C1331 H1341 0.929 . S
C1332 C1328 1.383 . S
C1332 C1329 1.389 . S
C1332 H1342 0.931 . S
C1333 C1330 1.380 . S
C1333 C1331 1.392 . S
C1333 H1343 0.929 . S
C1334 O1314 1.266 . S
C1334 O1315 1.248 . S
C1335 Tb1271 2.802 . S
C1335 O1310 1.264 . S
C1335 O1313 1.256 . S
C1335 C1328 1.496 . S
H1336 C1319 0.929 . S
H1337 C1320 0.929 . S
H1338 C1321 0.929 . S
H1339 C1322 0.931 . S
H1340 C1330 0.929 . S
H1341 C1331 0.929 . S
H1342 C1332 0.931 . S
H1343 C1333 0.929 . S
Tb1344 N1373 2.617 . S
Tb1344 N1379 2.572 . S
Tb1344 O1388 2.465 . S
Tb1344 O1389 2.387 . S
Tb1344 O1391 2.428 . S
Tb1344 O1392 2.308 . S
Tb1344 O1396 2.349 . S
Tb1344 O1399 2.393 . S
Tb1344 C1408 2.779 1_655 S
C1345 N1346 1.379 . S
C1345 C1348 1.416 . S
C1345 C1352 1.424 . S
N1346 C1345 1.379 . S
N1346 C1349 1.334 . S
N1346 Tb1355 2.617 . S
C1347 C1349 1.390 . S
C1347 C1350 1.339 . S
C1347 H1367 0.930 . S
C1348 C1345 1.416 . S
C1348 C1350 1.416 . S
C1348 C1354 1.448 1_545 S
C1349 N1346 1.334 . S
C1349 C1347 1.390 . S
C1349 H1360 0.930 . S
C1350 C1347 1.339 . S
C1350 C1348 1.416 . S
C1350 H1371 0.930 . S
C1351 C1352 1.413 . S
C1351 C1353 1.427 1_545 S
C1351 C1357 1.416 1_545 S
C1352 C1345 1.424 . S
C1352 C1351 1.413 . S
C1352 N1356 1.361 . S
C1353 C1351 1.427 1_565 S
C1353 C1354 1.328 . S
C1353 H1368 0.929 . S
C1354 C1348 1.448 1_565 S
C1354 C1353 1.328 . S
C1354 H1369 0.930 . S
Tb1355 N1346 2.617 . S
Tb1355 N1356 2.572 . S
Tb1355 O1390 2.349 . S
Tb1355 O1393 2.393 . S
Tb1355 O1394 2.465 . S
Tb1355 O1395 2.387 . S
Tb1355 O1397 2.428 . S
Tb1355 O1398 2.308 . S
Tb1355 C1419 2.802 . S
N1356 C1352 1.361 . S
N1356 Tb1355 2.572 . S
N1356 C1358 1.340 . S
C1357 C1351 1.416 1_565 S
C1357 C1359 1.332 1_565 S
C1357 H1365 0.931 . S
C1358 N1356 1.340 . S
C1358 C1359 1.407 . S
C1358 H1364 0.930 . S
C1359 C1357 1.332 1_545 S
C1359 C1358 1.407 . S
C1359 H1361 0.929 . S
H1360 C1349 0.930 . S
H1361 C1359 0.929 . S
H1362 C1377 0.930 . S
H1363 C1384 0.929 . S
H1364 C1358 0.930 . S
H1365 C1357 0.931 . S
H1366 C1380 0.930 1_655 S
H1367 C1347 0.930 . S
H1368 C1353 0.929 . S
H1369 C1354 0.930 . S
H1370 C1375 0.930 . S
H1371 C1350 0.930 . S
H1372 C1383 0.931 . S
N1373 Tb1344 2.617 . S
N1373 C1374 1.379 . S
N1373 C1377 1.334 . S
C1374 N1373 1.379 . S
C1374 C1376 1.416 . S
C1374 C1382 1.424 1_655 S
C1375 H1370 0.930 . S
C1375 C1377 1.390 . S
C1375 C1378 1.339 . S
C1376 C1374 1.416 . S
C1376 C1378 1.416 . S
C1376 C1409 1.449 1_655 S
C1377 H1362 0.930 . S
C1377 N1373 1.334 . S
C1377 C1375 1.390 . S
C1378 C1375 1.339 . S
C1378 C1376 1.416 . S
C1378 H1385 0.930 . S
N1379 Tb1344 2.572 . S
N1379 C1380 1.340 1_655 S
N1379 C1382 1.361 1_655 S
C1380 H1366 0.930 1_455 S
C1380 N1379 1.340 1_455 S
C1380 C1384 1.407 . S
C1381 C1382 1.413 . S
C1381 C1383 1.416 . S
C1381 C1410 1.427 . S
C1382 C1374 1.424 1_455 S
C1382 N1379 1.361 1_455 S
C1382 C1381 1.413 . S
C1383 H1372 0.931 . S
C1383 C1381 1.416 . S
C1383 C1384 1.332 . S
C1384 H1363 0.929 . S
C1384 C1380 1.407 . S
C1384 C1383 1.332 . S
H1385 C1378 0.930 . S
H1386 C1409 0.930 . S
H1387 C1410 0.929 . S
O1388 Tb1344 2.465 . S
O1388 C1408 1.254 1_655 S
O1389 Tb1344 2.387 . S
O1389 C1400 1.264 . S
O1390 Tb1355 2.349 . S
O1390 C1400 1.243 . S
O1391 Tb1344 2.428 . S
O1391 C1408 1.243 1_655 S
O1392 Tb1344 2.308 . S
O1392 C1407 1.266 . S
O1393 Tb1355 2.393 . S
O1393 C1407 1.248 . S
O1394 Tb1355 2.465 . S
O1394 C1419 1.264 . S
O1395 Tb1355 2.387 . S
O1395 C1411 1.264 . S
O1396 Tb1344 2.349 . S
O1396 C1411 1.243 . S
O1397 Tb1355 2.428 . S
O1397 C1419 1.256 . S
O1398 Tb1355 2.308 . S
O1398 C1418 1.266 . S
O1399 Tb1344 2.393 . S
O1399 C1418 1.248 . S
C1400 O1389 1.264 . S
C1400 O1390 1.243 . S
C1401 C1404 1.399 . S
C1401 C1406 1.383 . S
C1401 C1408 1.519 . S
C1402 C1403 1.399 . S
C1402 C1406 1.389 . S
C1403 C1402 1.399 . S
C1403 C1405 1.380 . S
C1403 H1420 0.929 . S
C1404 C1401 1.399 . S
C1404 C1405 1.392 . S
C1404 H1421 0.929 . S
C1405 C1403 1.380 . S
C1405 C1404 1.392 . S
C1405 H1422 0.929 . S
C1406 C1401 1.383 . S
C1406 C1402 1.389 . S
C1406 H1423 0.931 . S
C1407 O1392 1.266 . S
C1407 O1393 1.248 . S
C1408 Tb1344 2.779 1_455 S
C1408 O1388 1.254 1_455 S
C1408 O1391 1.243 1_455 S
C1408 C1401 1.519 . S
C1409 C1376 1.449 1_455 S
C1409 H1386 0.930 . S
C1409 C1410 1.328 . S
C1410 C1381 1.427 . S
C1410 H1387 0.929 . S
C1410 C1409 1.328 . S
C1411 O1395 1.264 . S
C1411 O1396 1.243 . S
C1412 C1415 1.399 . S
C1412 C1416 1.383 . S
C1412 C1419 1.496 . S
C1413 C1414 1.399 . S
C1413 C1416 1.389 . S
C1414 C1413 1.399 . S
C1414 C1417 1.380 . S
C1414 H1424 0.929 . S
C1415 C1412 1.399 . S
C1415 C1417 1.392 . S
C1415 H1425 0.929 . S
C1416 C1412 1.383 . S
C1416 C1413 1.389 . S
C1416 H1426 0.931 . S
C1417 C1414 1.380 . S
C1417 C1415 1.392 . S
C1417 H1427 0.929 . S
C1418 O1398 1.266 . S
C1418 O1399 1.248 . S
C1419 Tb1355 2.802 . S
C1419 O1394 1.264 . S
C1419 O1397 1.256 . S
C1419 C1412 1.496 . S
H1420 C1403 0.929 . S
H1421 C1404 0.929 . S
H1422 C1405 0.929 . S
H1423 C1406 0.931 . S
H1424 C1414 0.929 . S
H1425 C1415 0.929 . S
H1426 C1416 0.931 . S
H1427 C1417 0.929 . S
Tb1428 N1457 2.617 . S
Tb1428 N1463 2.572 . S
Tb1428 O1472 2.465 . S
Tb1428 O1473 2.387 . S
Tb1428 O1475 2.428 . S
Tb1428 O1476 2.308 . S
Tb1428 O1480 2.349 . S
Tb1428 O1483 2.393 . S
Tb1428 C1492 2.802 . S
C1429 N1430 1.379 . S
C1429 C1432 1.416 . S
C1429 C1436 1.424 . S
N1430 C1429 1.379 . S
N1430 C1433 1.334 . S
N1430 Tb1439 2.617 . S
C1431 C1433 1.390 . S
C1431 C1434 1.339 . S
C1431 H1451 0.930 . S
C1432 C1429 1.416 . S
C1432 C1434 1.416 . S
C1432 C1438 1.448 1_655 S
C1433 N1430 1.334 . S
C1433 C1431 1.390 . S
C1433 H1444 0.930 . S
C1434 C1431 1.339 . S
C1434 C1432 1.416 . S
C1434 H1455 0.930 1_655 S
C1435 C1436 1.413 1_455 S
C1435 C1437 1.427 . S
C1435 C1441 1.416 . S
C1436 C1429 1.424 . S
C1436 C1435 1.413 1_655 S
C1436 N1440 1.361 . S
C1437 C1435 1.427 . S
C1437 C1438 1.328 . S
C1437 H1452 0.929 . S
C1438 C1432 1.448 1_455 S
C1438 C1437 1.328 . S
C1438 H1453 0.930 . S
Tb1439 N1430 2.617 . S
Tb1439 N1440 2.572 . S
Tb1439 O1474 2.349 . S
Tb1439 O1477 2.393 . S
Tb1439 O1478 2.465 . S
Tb1439 O1479 2.387 . S
Tb1439 O1481 2.428 . S
Tb1439 O1482 2.308 . S
Tb1439 C1503 2.802 . S
N1440 C1436 1.361 . S
N1440 Tb1439 2.572 . S
N1440 C1442 1.340 . S
C1441 C1435 1.416 . S
C1441 C1443 1.332 . S
C1441 H1449 0.931 . S
C1442 N1440 1.340 . S
C1442 C1443 1.407 1_655 S
C1442 H1448 0.930 . S
C1443 C1441 1.332 . S
C1443 C1442 1.407 1_455 S
C1443 H1445 0.929 . S
H1444 C1433 0.930 . S
H1445 C1443 0.929 . S
H1446 C1461 0.930 . S
H1447 C1468 0.929 . S
H1448 C1442 0.930 . S
H1449 C1441 0.931 . S
H1450 C1464 0.930 . S
H1451 C1431 0.930 . S
H1452 C1437 0.929 . S
H1453 C1438 0.930 . S
H1454 C1459 0.930 . S
H1455 C1434 0.930 1_455 S
H1456 C1467 0.931 . S
N1457 Tb1428 2.617 . S
N1457 C1458 1.379 . S
N1457 C1461 1.334 . S
C1458 N1457 1.379 . S
C1458 C1460 1.416 . S
C1458 C1466 1.424 . S
C1459 H1454 0.930 . S
C1459 C1461 1.390 . S
C1459 C1462 1.339 . S
C1460 C1458 1.416 . S
C1460 C1462 1.416 . S
C1460 C1493 1.448 . S
C1461 H1446 0.930 . S
C1461 N1457 1.334 . S
C1461 C1459 1.390 . S
C1462 C1459 1.339 . S
C1462 C1460 1.416 . S
C1462 H1469 0.930 . S
N1463 Tb1428 2.572 . S
N1463 C1464 1.340 . S
N1463 C1466 1.361 . S
C1464 H1450 0.930 . S
C1464 N1463 1.340 . S
C1464 C1468 1.407 . S
C1465 C1466 1.413 . S
C1465 C1467 1.416 . S
C1465 C1494 1.427 . S
C1466 C1458 1.424 . S
C1466 N1463 1.361 . S
C1466 C1465 1.413 . S
C1467 H1456 0.931 . S
C1467 C1465 1.416 . S
C1467 C1468 1.332 . S
C1468 H1447 0.929 . S
C1468 C1464 1.407 . S
C1468 C1467 1.332 . S
H1469 C1462 0.930 . S
H1470 C1493 0.930 . S
H1471 C1494 0.929 . S
O1472 Tb1428 2.465 . S
O1472 C1492 1.264 . S
O1473 Tb1428 2.387 . S
O1473 C1484 1.264 . S
O1474 Tb1439 2.349 . S
O1474 C1484 1.243 . S
O1475 Tb1428 2.428 . S
O1475 C1492 1.256 . S
O1476 Tb1428 2.308 . S
O1476 C1491 1.266 . S
O1477 Tb1439 2.393 . S
O1477 C1491 1.248 . S
O1478 Tb1439 2.465 . S
O1478 C1503 1.264 . S
O1479 Tb1439 2.387 . S
O1479 C1495 1.264 . S
O1480 Tb1428 2.349 . S
O1480 C1495 1.243 . S
O1481 Tb1439 2.428 . S
O1481 C1503 1.256 . S
O1482 Tb1439 2.308 . S
O1482 C1502 1.266 . S
O1483 Tb1428 2.393 . S
O1483 C1502 1.248 . S
C1484 O1473 1.264 . S
C1484 O1474 1.243 . S
C1485 C1488 1.399 . S
C1485 C1490 1.383 . S
C1485 C1492 1.496 . S
C1486 C1487 1.399 . S
C1486 C1490 1.389 . S
C1487 C1486 1.399 . S
C1487 C1489 1.380 . S
C1487 H1504 0.929 . S
C1488 C1485 1.399 . S
C1488 C1489 1.392 . S
C1488 H1505 0.929 . S
C1489 C1487 1.380 . S
C1489 C1488 1.392 . S
C1489 H1506 0.929 . S
C1490 C1485 1.383 . S
C1490 C1486 1.389 . S
C1490 H1507 0.931 . S
C1491 O1476 1.266 . S
C1491 O1477 1.248 . S
C1492 Tb1428 2.802 . S
C1492 O1472 1.264 . S
C1492 O1475 1.256 . S
C1492 C1485 1.496 . S
C1493 C1460 1.448 . S
C1493 H1470 0.930 . S
C1493 C1494 1.328 . S
C1494 C1465 1.427 . S
C1494 H1471 0.929 . S
C1494 C1493 1.328 . S
C1495 O1479 1.264 . S
C1495 O1480 1.243 . S
C1496 C1499 1.399 . S
C1496 C1500 1.383 . S
C1496 C1503 1.496 . S
C1497 C1498 1.399 . S
C1497 C1500 1.389 . S
C1498 C1497 1.399 . S
C1498 C1501 1.380 . S
C1498 H1508 0.929 . S
C1499 C1496 1.399 . S
C1499 C1501 1.392 . S
C1499 H1509 0.929 . S
C1500 C1496 1.383 . S
C1500 C1497 1.389 . S
C1500 H1510 0.931 . S
C1501 C1498 1.380 . S
C1501 C1499 1.392 . S
C1501 H1511 0.929 . S
C1502 O1482 1.266 . S
C1502 O1483 1.248 . S
C1503 Tb1439 2.802 . S
C1503 O1478 1.264 . S
C1503 O1481 1.256 . S
C1503 C1496 1.496 . S
H1504 C1487 0.929 . S
H1505 C1488 0.929 . S
H1506 C1489 0.929 . S
H1507 C1490 0.931 . S
H1508 C1498 0.929 . S
H1509 C1499 0.929 . S
H1510 C1500 0.931 . S
H1511 C1501 0.929 . S
H1512 C1518 0.930 . S
H1513 C1521 0.930 . S
H1514 C1522 0.930 . S
H1515 C1523 0.930 . S
H1516 C1526 0.930 . S
H1517 C1527 0.930 . S
C1518 H1512 0.930 . S
C1518 C1519 1.355 . S
C1518 C1520 1.415 . S
C1519 C1518 1.355 . S
C1519 C1521 1.419 . S
C1520 C1518 1.415 . S
C1520 C1525 1.425 . S
C1520 C1527 1.409 . S
C1521 H1513 0.930 . S
C1521 C1519 1.419 . S
C1521 C1522 1.362 . S
C1522 H1514 0.930 . S
C1522 C1521 1.362 . S
C1522 C1525 1.409 . S
C1523 H1515 0.930 . S
C1523 C1524 1.355 . S
C1523 C1525 1.415 . S
C1524 C1523 1.355 . S
C1524 C1526 1.419 . S
C1525 C1520 1.425 . S
C1525 C1522 1.409 . S
C1525 C1523 1.415 . S
C1526 H1516 0.930 . S
C1526 C1524 1.419 . S
C1526 C1527 1.362 . S
C1527 H1517 0.930 . S
C1527 C1520 1.409 . S
C1527 C1526 1.362 . S
H1528 C1534 0.930 . S
H1529 C1537 0.930 . S
H1530 C1538 0.930 . S
H1531 C1539 0.930 . S
H1532 C1542 0.930 . S
H1533 C1543 0.930 . S
C1534 H1528 0.930 . S
C1534 C1535 1.355 . S
C1534 C1536 1.415 . S
C1535 C1534 1.355 . S
C1535 C1537 1.419 . S
C1536 C1534 1.415 . S
C1536 C1541 1.425 . S
C1536 C1543 1.409 . S
C1537 H1529 0.930 . S
C1537 C1535 1.419 . S
C1537 C1538 1.362 . S
C1538 H1530 0.930 . S
C1538 C1537 1.362 . S
C1538 C1541 1.409 . S
C1539 H1531 0.930 . S
C1539 C1540 1.355 . S
C1539 C1541 1.415 . S
C1540 C1539 1.355 . S
C1540 C1542 1.419 . S
C1541 C1536 1.425 . S
C1541 C1538 1.409 . S
C1541 C1539 1.415 . S
C1542 H1532 0.930 . S
C1542 C1540 1.419 . S
C1542 C1543 1.362 . S
C1543 H1533 0.930 . S
C1543 C1536 1.409 . S
C1543 C1542 1.362 . S
H1544 C1550 0.930 . S
H1545 C1553 0.930 . S
H1546 C1554 0.930 . S
H1547 C1555 0.930 . S
H1548 C1558 0.930 . S
H1549 C1559 0.930 . S
C1550 H1544 0.930 . S
C1550 C1551 1.355 . S
C1550 C1552 1.415 . S
C1551 C1550 1.355 . S
C1551 C1553 1.419 . S
C1552 C1550 1.415 . S
C1552 C1557 1.425 . S
C1552 C1559 1.409 . S
C1553 H1545 0.930 . S
C1553 C1551 1.419 . S
C1553 C1554 1.362 . S
C1554 H1546 0.930 . S
C1554 C1553 1.362 . S
C1554 C1557 1.409 . S
C1555 H1547 0.930 . S
C1555 C1556 1.355 . S
C1555 C1557 1.415 . S
C1556 C1555 1.355 . S
C1556 C1558 1.419 . S
C1557 C1552 1.425 . S
C1557 C1554 1.409 . S
C1557 C1555 1.415 . S
C1558 H1548 0.930 . S
C1558 C1556 1.419 . S
C1558 C1559 1.362 . S
C1559 H1549 0.930 . S
C1559 C1552 1.409 . S
C1559 C1558 1.362 . S
H1560 C1566 0.930 . S
H1561 C1569 0.930 . S
H1562 C1570 0.930 . S
H1563 C1571 0.930 . S
H1564 C1574 0.930 . S
H1565 C1575 0.930 . S
C1566 H1560 0.930 . S
C1566 C1567 1.355 . S
C1566 C1568 1.415 . S
C1567 C1566 1.355 . S
C1567 C1569 1.419 . S
C1568 C1566 1.415 . S
C1568 C1573 1.425 . S
C1568 C1575 1.409 . S
C1569 H1561 0.930 . S
C1569 C1567 1.419 . S
C1569 C1570 1.362 . S
C1570 H1562 0.930 . S
C1570 C1569 1.362 . S
C1570 C1573 1.409 . S
C1571 H1563 0.930 . S
C1571 C1572 1.355 . S
C1571 C1573 1.415 . S
C1572 C1571 1.355 . S
C1572 C1574 1.419 . S
C1573 C1568 1.425 . S
C1573 C1570 1.409 . S
C1573 C1571 1.415 . S
C1574 H1564 0.930 . S
C1574 C1572 1.419 . S
C1574 C1575 1.362 . S
C1575 H1565 0.930 . S
C1575 C1568 1.409 . S
C1575 C1574 1.362 . S
H1576 C1582 0.930 . S
H1577 C1585 0.930 . S
H1578 C1586 0.930 . S
H1579 C1587 0.930 . S
H1580 C1590 0.930 . S
H1581 C1591 0.930 . S
C1582 H1576 0.930 . S
C1582 C1583 1.355 . S
C1582 C1584 1.415 . S
C1583 C1582 1.355 . S
C1583 C1585 1.419 . S
C1584 C1582 1.415 . S
C1584 C1589 1.425 . S
C1584 C1591 1.409 . S
C1585 H1577 0.930 . S
C1585 C1583 1.419 . S
C1585 C1586 1.362 . S
C1586 H1578 0.930 . S
C1586 C1585 1.362 . S
C1586 C1589 1.409 . S
C1587 H1579 0.930 . S
C1587 C1588 1.355 . S
C1587 C1589 1.415 . S
C1588 C1587 1.355 . S
C1588 C1590 1.419 . S
C1589 C1584 1.425 . S
C1589 C1586 1.409 . S
C1589 C1587 1.415 . S
C1590 H1580 0.930 . S
C1590 C1588 1.419 . S
C1590 C1591 1.362 . S
C1591 H1581 0.930 . S
C1591 C1584 1.409 . S
C1591 C1590 1.362 . S
H1592 C1598 0.930 . S
H1593 C1601 0.930 . S
H1594 C1602 0.930 . S
H1595 C1603 0.930 . S
H1596 C1606 0.930 . S
H1597 C1607 0.930 . S
C1598 H1592 0.930 . S
C1598 C1599 1.355 . S
C1598 C1600 1.415 . S
C1599 C1598 1.355 . S
C1599 C1601 1.419 . S
C1600 C1598 1.415 . S
C1600 C1605 1.425 . S
C1600 C1607 1.409 . S
C1601 H1593 0.930 . S
C1601 C1599 1.419 . S
C1601 C1602 1.362 . S
C1602 H1594 0.930 . S
C1602 C1601 1.362 . S
C1602 C1605 1.409 . S
C1603 H1595 0.930 . S
C1603 C1604 1.355 . S
C1603 C1605 1.415 . S
C1604 C1603 1.355 . S
C1604 C1606 1.419 . S
C1605 C1600 1.425 . S
C1605 C1602 1.409 . S
C1605 C1603 1.415 . S
C1606 H1596 0.930 . S
C1606 C1604 1.419 . S
C1606 C1607 1.362 . S
C1607 H1597 0.930 . S
C1607 C1600 1.409 . S
C1607 C1606 1.362 . S
H1608 C1614 0.930 . S
H1609 C1617 0.930 . S
H1610 C1618 0.930 . S
H1611 C1619 0.930 . S
H1612 C1622 0.930 . S
H1613 C1623 0.930 . S
C1614 H1608 0.930 . S
C1614 C1615 1.355 . S
C1614 C1616 1.415 . S
C1615 C1614 1.355 . S
C1615 C1617 1.419 . S
C1616 C1614 1.415 . S
C1616 C1621 1.425 . S
C1616 C1623 1.409 . S
C1617 H1609 0.930 . S
C1617 C1615 1.419 . S
C1617 C1618 1.362 . S
C1618 H1610 0.930 . S
C1618 C1617 1.362 . S
C1618 C1621 1.409 . S
C1619 H1611 0.930 . S
C1619 C1620 1.355 . S
C1619 C1621 1.415 . S
C1620 C1619 1.355 . S
C1620 C1622 1.419 . S
C1621 C1616 1.425 . S
C1621 C1618 1.409 . S
C1621 C1619 1.415 . S
C1622 H1612 0.930 . S
C1622 C1620 1.419 . S
C1622 C1623 1.362 . S
C1623 H1613 0.930 . S
C1623 C1616 1.409 . S
C1623 C1622 1.362 . S
H1624 C1630 0.930 . S
H1625 C1633 0.930 . S
H1626 C1634 0.930 . S
H1627 C1635 0.930 . S
H1628 C1638 0.930 . S
H1629 C1639 0.930 . S
C1630 H1624 0.930 . S
C1630 C1631 1.355 . S
C1630 C1632 1.415 . S
C1631 C1630 1.355 . S
C1631 C1633 1.419 . S
C1632 C1630 1.415 . S
C1632 C1637 1.425 . S
C1632 C1639 1.409 1_545 S
C1633 H1625 0.930 . S
C1633 C1631 1.419 . S
C1633 C1634 1.362 . S
C1634 H1626 0.930 . S
C1634 C1633 1.362 . S
C1634 C1637 1.409 . S
C1635 H1627 0.930 . S
C1635 C1636 1.355 . S
C1635 C1637 1.415 1_565 S
C1636 C1635 1.355 . S
C1636 C1638 1.419 . S
C1637 C1632 1.425 . S
C1637 C1634 1.409 . S
C1637 C1635 1.415 1_545 S
C1638 H1628 0.930 . S
C1638 C1636 1.419 . S
C1638 C1639 1.362 . S
C1639 H1629 0.930 . S
C1639 C1632 1.409 1_565 S
C1639 C1638 1.362 . S
H1640 C1646 0.930 . S
H1641 C1649 0.930 . S
H1642 C1650 0.930 1_655 S
H1643 C1651 0.930 . S
H1644 C1654 0.930 . S
H1645 C1655 0.930 . S
C1646 H1640 0.930 . S
C1646 C1647 1.355 . S
C1646 C1648 1.415 . S
C1647 C1646 1.355 . S
C1647 C1649 1.419 . S
C1648 C1646 1.415 . S
C1648 C1653 1.425 1_455 S
C1648 C1655 1.409 . S
C1649 H1641 0.930 . S
C1649 C1647 1.419 . S
C1649 C1650 1.362 . S
C1650 H1642 0.930 1_455 S
C1650 C1649 1.362 . S
C1650 C1653 1.409 1_455 S
C1651 H1643 0.930 . S
C1651 C1652 1.355 . S
C1651 C1653 1.415 . S
C1652 C1651 1.355 . S
C1652 C1654 1.419 . S
C1653 C1648 1.425 1_655 S
C1653 C1650 1.409 1_655 S
C1653 C1651 1.415 . S
C1654 H1644 0.930 . S
C1654 C1652 1.419 . S
C1654 C1655 1.362 1_655 S
C1655 H1645 0.930 . S
C1655 C1648 1.409 . S
C1655 C1654 1.362 1_455 S
H1656 C1662 0.930 . S
H1657 C1665 0.930 . S
H1658 C1666 0.930 . S
H1659 C1667 0.930 . S
H1660 C1670 0.930 . S
H1661 C1671 0.930 . S
C1662 H1656 0.930 . S
C1662 C1663 1.355 . S
C1662 C1664 1.415 . S
C1663 C1662 1.355 . S
C1663 C1665 1.419 . S
C1664 C1662 1.415 . S
C1664 C1669 1.425 . S
C1664 C1671 1.409 . S
C1665 H1657 0.930 . S
C1665 C1663 1.419 . S
C1665 C1666 1.362 . S
C1666 H1658 0.930 . S
C1666 C1665 1.362 . S
C1666 C1669 1.409 . S
C1667 H1659 0.930 . S
C1667 C1668 1.355 . S
C1667 C1669 1.415 . S
C1668 C1667 1.355 . S
C1668 C1670 1.419 . S
C1669 C1664 1.425 . S
C1669 C1666 1.409 . S
C1669 C1667 1.415 . S
C1670 H1660 0.930 . S
C1670 C1668 1.419 . S
C1670 C1671 1.362 . S
C1671 H1661 0.930 . S
C1671 C1664 1.409 . S
C1671 C1670 1.362 . S
H1672 C1678 0.930 . S
H1673 C1681 0.930 . S
H1674 C1682 0.930 . S
H1675 C1683 0.930 . S
H1676 C1686 0.930 . S
H1677 C1687 0.930 . S
C1678 H1672 0.930 . S
C1678 C1679 1.355 . S
C1678 C1680 1.415 . S
C1679 C1678 1.355 . S
C1679 C1681 1.419 . S
C1680 C1678 1.415 . S
C1680 C1685 1.425 . S
C1680 C1687 1.409 . S
C1681 H1673 0.930 . S
C1681 C1679 1.419 . S
C1681 C1682 1.362 . S
C1682 H1674 0.930 . S
C1682 C1681 1.362 . S
C1682 C1685 1.409 . S
C1683 H1675 0.930 . S
C1683 C1684 1.355 . S
C1683 C1685 1.415 . S
C1684 C1683 1.355 . S
C1684 C1686 1.419 . S
C1685 C1680 1.425 . S
C1685 C1682 1.409 . S
C1685 C1683 1.415 . S
C1686 H1676 0.930 . S
C1686 C1684 1.419 . S
C1686 C1687 1.362 . S
C1687 H1677 0.930 . S
C1687 C1680 1.409 . S
C1687 C1686 1.362 . S
H1688 C1694 0.930 . S
H1689 C1697 0.930 . S
H1690 C1698 0.930 . S
H1691 C1699 0.930 . S
H1692 C1702 0.930 . S
H1693 C1703 0.930 . S
C1694 H1688 0.930 . S
C1694 C1695 1.355 . S
C1694 C1696 1.415 . S
C1695 C1694 1.355 . S
C1695 C1697 1.419 . S
C1696 C1694 1.415 . S
C1696 C1701 1.425 . S
C1696 C1703 1.409 . S
C1697 H1689 0.930 . S
C1697 C1695 1.419 . S
C1697 C1698 1.362 . S
C1698 H1690 0.930 . S
C1698 C1697 1.362 . S
C1698 C1701 1.409 . S
C1699 H1691 0.930 . S
C1699 C1700 1.355 . S
C1699 C1701 1.415 . S
C1700 C1699 1.355 . S
C1700 C1702 1.419 . S
C1701 C1696 1.425 . S
C1701 C1698 1.409 . S
C1701 C1699 1.415 . S
C1702 H1692 0.930 . S
C1702 C1700 1.419 . S
C1702 C1703 1.362 . S
C1703 H1693 0.930 . S
C1703 C1696 1.409 . S
C1703 C1702 1.362 . S
H1704 C1710 0.930 . S
H1705 C1713 0.930 . S
H1706 C1714 0.930 . S
H1707 C1715 0.930 . S
H1708 C1718 0.930 . S
H1709 C1719 0.930 . S
C1710 H1704 0.930 . S
C1710 C1711 1.355 . S
C1710 C1712 1.415 . S
C1711 C1710 1.355 . S
C1711 C1713 1.419 . S
C1712 C1710 1.415 . S
C1712 C1717 1.425 . S
C1712 C1719 1.409 . S
C1713 H1705 0.930 . S
C1713 C1711 1.419 . S
C1713 C1714 1.362 . S
C1714 H1706 0.930 . S
C1714 C1713 1.362 . S
C1714 C1717 1.409 . S
C1715 H1707 0.930 . S
C1715 C1716 1.355 . S
C1715 C1717 1.415 . S
C1716 C1715 1.355 . S
C1716 C1718 1.419 . S
C1717 C1712 1.425 . S
C1717 C1714 1.409 . S
C1717 C1715 1.415 . S
C1718 H1708 0.930 . S
C1718 C1716 1.419 . S
C1718 C1719 1.362 . S
C1719 H1709 0.930 . S
C1719 C1712 1.409 . S
C1719 C1718 1.362 . S
H1720 C1726 0.930 . S
H1721 C1729 0.930 . S
H1722 C1730 0.930 . S
H1723 C1731 0.930 . S
H1724 C1734 0.930 . S
H1725 C1735 0.930 . S
C1726 H1720 0.930 . S
C1726 C1727 1.355 . S
C1726 C1728 1.415 . S
C1727 C1726 1.355 . S
C1727 C1729 1.419 . S
C1728 C1726 1.415 . S
C1728 C1733 1.425 . S
C1728 C1735 1.409 . S
C1729 H1721 0.930 . S
C1729 C1727 1.419 . S
C1729 C1730 1.362 . S
C1730 H1722 0.930 . S
C1730 C1729 1.362 . S
C1730 C1733 1.409 . S
C1731 H1723 0.930 . S
C1731 C1732 1.355 . S
C1731 C1733 1.415 . S
C1732 C1731 1.355 . S
C1732 C1734 1.419 . S
C1733 C1728 1.425 . S
C1733 C1730 1.409 . S
C1733 C1731 1.415 . S
C1734 H1724 0.930 . S
C1734 C1732 1.419 . S
C1734 C1735 1.362 . S
C1735 H1725 0.930 . S
C1735 C1728 1.409 . S
C1735 C1734 1.362 . S
H1736 C1742 0.930 . S
H1737 C1745 0.930 . S
H1738 C1746 0.930 . S
H1739 C1747 0.930 . S
H1740 C1750 0.930 . S
H1741 C1751 0.930 . S
C1742 H1736 0.930 . S
C1742 C1743 1.355 . S
C1742 C1744 1.415 . S
C1743 C1742 1.355 . S
C1743 C1745 1.419 . S
C1744 C1742 1.415 . S
C1744 C1749 1.425 . S
C1744 C1751 1.409 . S
C1745 H1737 0.930 . S
C1745 C1743 1.419 . S
C1745 C1746 1.362 . S
C1746 H1738 0.930 . S
C1746 C1745 1.362 . S
C1746 C1749 1.409 . S
C1747 H1739 0.930 . S
C1747 C1748 1.355 . S
C1747 C1749 1.415 . S
C1748 C1747 1.355 . S
C1748 C1750 1.419 . S
C1749 C1744 1.425 . S
C1749 C1746 1.409 . S
C1749 C1747 1.415 . S
C1750 H1740 0.930 . S
C1750 C1748 1.419 . S
C1750 C1751 1.362 . S
C1751 H1741 0.930 . S
C1751 C1744 1.409 . S
C1751 C1750 1.362 . S
H1752 C1758 0.930 . S
H1753 C1761 0.930 . S
H1754 C1762 0.930 . S
H1755 C1763 0.930 . S
H1756 C1766 0.930 . S
H1757 C1767 0.930 . S
C1758 H1752 0.930 . S
C1758 C1759 1.355 . S
C1758 C1760 1.415 . S
C1759 C1758 1.355 . S
C1759 C1761 1.419 . S
C1760 C1758 1.415 . S
C1760 C1765 1.425 . S
C1760 C1767 1.409 . S
C1761 H1753 0.930 . S
C1761 C1759 1.419 . S
C1761 C1762 1.362 . S
C1762 H1754 0.930 . S
C1762 C1761 1.362 . S
C1762 C1765 1.409 . S
C1763 H1755 0.930 . S
C1763 C1764 1.355 . S
C1763 C1765 1.415 . S
C1764 C1763 1.355 . S
C1764 C1766 1.419 . S
C1765 C1760 1.425 . S
C1765 C1762 1.409 . S
C1765 C1763 1.415 . S
C1766 H1756 0.930 . S
C1766 C1764 1.419 . S
C1766 C1767 1.362 . S
C1767 H1757 0.930 . S
C1767 C1760 1.409 . S
C1767 C1766 1.362 . S
H1768 C1774 0.930 . S
H1769 C1777 0.930 . S
H1770 C1778 0.930 . S
H1771 C1779 0.930 . S
H1772 C1782 0.930 . S
H1773 C1783 0.930 . S
C1774 H1768 0.930 . S
C1774 C1775 1.355 . S
C1774 C1776 1.425 . S
C1775 C1774 1.355 . S
C1775 C1777 1.419 . S
C1776 C1774 1.425 . S
C1776 C1781 1.422 1_565 S
C1776 C1783 1.402 1_565 S
C1777 H1769 0.930 . S
C1777 C1775 1.419 . S
C1777 C1778 1.362 1_565 S
C1778 H1770 0.930 . S
C1778 C1777 1.362 1_545 S
C1778 C1781 1.409 . S
C1779 H1771 0.930 . S
C1779 C1780 1.355 . S
C1779 C1781 1.415 . S
C1780 C1779 1.355 . S
C1780 C1782 1.419 . S
C1781 C1776 1.422 1_545 S
C1781 C1778 1.409 . S
C1781 C1779 1.415 . S
C1782 H1772 0.930 . S
C1782 C1780 1.419 . S
C1782 C1783 1.362 . S
C1783 H1773 0.930 . S
C1783 C1776 1.402 1_545 S
C1783 C1782 1.362 . S
H1784 C1790 0.930 . S
H1785 C1793 0.930 . S
H1786 C1794 0.930 . S
H1787 C1795 0.930 . S
H1788 C1798 0.930 . S
H1789 C1799 0.930 . S
C1790 H1784 0.930 . S
C1790 C1791 1.355 . S
C1790 C1792 1.415 . S
C1791 C1790 1.355 . S
C1791 C1793 1.419 . S
C1792 C1790 1.415 . S
C1792 C1797 1.425 . S
C1792 C1799 1.409 1_455 S
C1793 H1785 0.930 . S
C1793 C1791 1.419 . S
C1793 C1794 1.362 . S
C1794 H1786 0.930 . S
C1794 C1793 1.362 . S
C1794 C1797 1.409 . S
C1795 H1787 0.930 . S
C1795 C1796 1.355 . S
C1795 C1797 1.415 1_655 S
C1796 C1795 1.355 . S
C1796 C1798 1.419 . S
C1797 C1792 1.425 . S
C1797 C1794 1.409 . S
C1797 C1795 1.415 1_455 S
C1798 H1788 0.930 . S
C1798 C1796 1.419 . S
C1798 C1799 1.362 . S
C1799 H1789 0.930 . S
C1799 C1792 1.409 1_655 S
C1799 C1798 1.362 . S
H1800 C1806 0.930 . S
H1801 C1809 0.930 . S
H1802 C1810 0.930 . S
H1803 C1811 0.930 . S
H1804 C1814 0.930 . S
H1805 C1815 0.948 . S
C1806 H1800 0.930 . S
C1806 C1807 1.355 . S
C1806 C1808 1.415 . S
C1807 C1806 1.355 . S
C1807 C1809 1.419 . S
C1808 C1806 1.415 . S
C1808 C1813 1.425 1_554 S
C1808 C1815 1.393 1_544 S
C1809 H1801 0.930 . S
C1809 C1807 1.419 . S
C1809 C1810 1.362 . S
C1810 H1802 0.930 . S
C1810 C1809 1.362 . S
C1810 C1813 1.409 1_554 S
C1811 H1803 0.930 . S
C1811 C1812 1.355 . S
C1811 C1813 1.415 . S
C1812 C1811 1.355 . S
C1812 C1814 1.419 1_545 S
C1813 C1808 1.425 1_556 S
C1813 C1810 1.409 1_556 S
C1813 C1811 1.415 . S
C1814 H1804 0.930 . S
C1814 C1812 1.419 1_565 S
C1814 C1815 1.361 . S
C1815 H1805 0.948 . S
C1815 C1808 1.393 1_566 S
C1815 C1814 1.361 . S
H1816 C1822 0.930 1_655 S
H1817 C1825 0.930 . S
H1818 C1826 0.930 . S
H1819 C1827 0.930 . S
H1820 C1830 0.930 . S
H1821 C1831 0.930 . S
C1822 H1816 0.930 1_455 S
C1822 C1823 1.355 . S
C1822 C1824 1.415 . S
C1823 C1822 1.355 . S
C1823 C1825 1.419 . S
C1824 C1822 1.415 . S
C1824 C1829 1.425 1_556 S
C1824 C1831 1.409 1_456 S
C1825 H1817 0.930 . S
C1825 C1823 1.419 . S
C1825 C1826 1.362 . S
C1826 H1818 0.930 . S
C1826 C1825 1.362 . S
C1826 C1829 1.409 1_556 S
C1827 H1819 0.930 . S
C1827 C1828 1.355 . S
C1827 C1829 1.415 . S
C1828 C1827 1.355 . S
C1828 C1830 1.419 1_455 S
C1829 C1824 1.425 1_554 S
C1829 C1826 1.409 1_554 S
C1829 C1827 1.415 . S
C1830 H1820 0.930 . S
C1830 C1828 1.419 1_655 S
C1830 C1831 1.362 . S
C1831 H1821 0.930 . S
C1831 C1824 1.409 1_654 S
C1831 C1830 1.362 . S
H1832 C1838 0.930 . S
H1833 C1841 0.930 . S
H1834 C1842 0.930 . S
H1835 C1843 0.930 . S
H1836 C1846 0.930 . S
H1837 C1847 0.930 . S
C1838 H1832 0.930 . S
C1838 C1839 1.355 . S
C1838 C1840 1.415 . S
C1839 C1838 1.355 . S
C1839 C1841 1.419 . S
C1840 C1838 1.415 . S
C1840 C1845 1.425 1_556 S
C1840 C1847 1.409 1_556 S
C1841 H1833 0.930 . S
C1841 C1839 1.419 . S
C1841 C1842 1.362 . S
C1842 H1834 0.930 . S
C1842 C1841 1.362 . S
C1842 C1845 1.409 1_556 S
C1843 H1835 0.930 . S
C1843 C1844 1.355 . S
C1843 C1845 1.415 . S
C1844 C1843 1.355 . S
C1844 C1846 1.419 . S
C1845 C1840 1.425 1_554 S
C1845 C1842 1.409 1_554 S
C1845 C1843 1.415 . S
C1846 H1836 0.930 . S
C1846 C1844 1.419 . S
C1846 C1847 1.362 . S
C1847 H1837 0.930 . S
C1847 C1840 1.409 1_554 S
C1847 C1846 1.362 . S
H1848 C1854 0.930 . S
H1849 C1857 0.930 . S
H1850 C1858 0.930 . S
H1851 C1859 0.930 . S
H1852 C1862 0.930 . S
H1853 C1863 0.930 . S
C1854 H1848 0.930 . S
C1854 C1855 1.355 . S
C1854 C1856 1.415 . S
C1855 C1854 1.355 . S
C1855 C1857 1.419 . S
C1856 C1854 1.415 . S
C1856 C1861 1.425 . S
C1856 C1863 1.409 . S
C1857 H1849 0.930 . S
C1857 C1855 1.419 . S
C1857 C1858 1.362 . S
C1858 H1850 0.930 . S
C1858 C1857 1.362 . S
C1858 C1861 1.409 . S
C1859 H1851 0.930 . S
C1859 C1860 1.355 . S
C1859 C1861 1.415 . S
C1860 C1859 1.355 . S
C1860 C1862 1.419 . S
C1861 C1856 1.425 . S
C1861 C1858 1.409 . S
C1861 C1859 1.415 . S
C1862 H1852 0.930 . S
C1862 C1860 1.419 . S
C1862 C1863 1.362 . S
C1863 H1853 0.930 . S
C1863 C1856 1.409 . S
C1863 C1862 1.362 . S
H1864 C1870 0.930 . S
H1865 C1873 0.930 . S
H1866 C1874 0.930 . S
H1867 C1875 0.930 . S
H1868 C1878 0.930 . S
H1869 C1879 0.930 . S
C1870 H1864 0.930 . S
C1870 C1871 1.355 . S
C1870 C1872 1.415 . S
C1871 C1870 1.355 . S
C1871 C1873 1.419 . S
C1872 C1870 1.415 . S
C1872 C1877 1.425 . S
C1872 C1879 1.409 . S
C1873 H1865 0.930 . S
C1873 C1871 1.419 . S
C1873 C1874 1.362 . S
C1874 H1866 0.930 . S
C1874 C1873 1.362 . S
C1874 C1877 1.409 . S
C1875 H1867 0.930 . S
C1875 C1876 1.355 . S
C1875 C1877 1.415 . S
C1876 C1875 1.355 . S
C1876 C1878 1.419 . S
C1877 C1872 1.425 . S
C1877 C1874 1.409 . S
C1877 C1875 1.415 . S
C1878 H1868 0.930 . S
C1878 C1876 1.419 . S
C1878 C1879 1.362 . S
C1879 H1869 0.930 . S
C1879 C1872 1.409 . S
C1879 C1878 1.362 . S
H1880 C1886 0.930 . S
H1881 C1889 0.930 . S
H1882 C1890 0.930 . S
H1883 C1891 0.930 . S
H1884 C1894 0.930 . S
H1885 C1895 0.930 . S
C1886 H1880 0.930 . S
C1886 C1887 1.355 . S
C1886 C1888 1.415 . S
C1887 C1886 1.355 . S
C1887 C1889 1.419 . S
C1888 C1886 1.415 . S
C1888 C1893 1.425 . S
C1888 C1895 1.409 . S
C1889 H1881 0.930 . S
C1889 C1887 1.419 . S
C1889 C1890 1.362 . S
C1890 H1882 0.930 . S
C1890 C1889 1.362 . S
C1890 C1893 1.409 . S
C1891 H1883 0.930 . S
C1891 C1892 1.355 . S
C1891 C1893 1.415 . S
C1892 C1891 1.355 . S
C1892 C1894 1.419 . S
C1893 C1888 1.425 . S
C1893 C1890 1.409 . S
C1893 C1891 1.415 . S
C1894 H1884 0.930 . S
C1894 C1892 1.419 . S
C1894 C1895 1.362 . S
C1895 H1885 0.930 . S
C1895 C1888 1.409 . S
C1895 C1894 1.362 . S
H1896 C1902 0.930 . S
H1897 C1905 0.930 . S
H1898 C1906 0.930 . S
H1899 C1907 0.930 . S
H1900 C1910 0.930 . S
H1901 C1911 0.930 . S
C1902 H1896 0.930 . S
C1902 C1903 1.355 . S
C1902 C1904 1.415 . S
C1903 C1902 1.355 . S
C1903 C1905 1.419 . S
C1904 C1902 1.415 . S
C1904 C1909 1.425 . S
C1904 C1911 1.409 . S
C1905 H1897 0.930 . S
C1905 C1903 1.419 . S
C1905 C1906 1.362 . S
C1906 H1898 0.930 . S
C1906 C1905 1.362 . S
C1906 C1909 1.409 . S
C1907 H1899 0.930 . S
C1907 C1908 1.355 . S
C1907 C1909 1.415 . S
C1908 C1907 1.355 . S
C1908 C1910 1.419 . S
C1909 C1904 1.425 . S
C1909 C1906 1.409 . S
C1909 C1907 1.415 . S
C1910 H1900 0.930 . S
C1910 C1908 1.419 . S
C1910 C1911 1.362 . S
C1911 H1901 0.930 . S
C1911 C1904 1.409 . S
C1911 C1910 1.362 . S
H1912 C1918 0.930 . S
H1913 C1921 0.930 . S
H1914 C1922 0.930 . S
H1915 C1923 0.930 . S
H1916 C1926 0.930 . S
H1917 C1927 0.930 . S
C1918 H1912 0.930 . S
C1918 C1919 1.355 . S
C1918 C1920 1.415 . S
C1919 C1918 1.355 . S
C1919 C1921 1.419 . S
C1920 C1918 1.415 . S
C1920 C1925 1.425 . S
C1920 C1927 1.409 . S
C1921 H1913 0.930 . S
C1921 C1919 1.419 . S
C1921 C1922 1.362 . S
C1922 H1914 0.930 . S
C1922 C1921 1.362 . S
C1922 C1925 1.409 . S
C1923 H1915 0.930 . S
C1923 C1924 1.355 . S
C1923 C1925 1.415 . S
C1924 C1923 1.355 . S
C1924 C1926 1.419 . S
C1925 C1920 1.425 . S
C1925 C1922 1.409 . S
C1925 C1923 1.415 . S
C1926 H1916 0.930 . S
C1926 C1924 1.419 . S
C1926 C1927 1.362 . S
C1927 H1917 0.930 . S
C1927 C1920 1.409 . S
C1927 C1926 1.362 . S
H1928 C1934 0.930 . S
H1929 C1937 0.930 . S
H1930 C1938 0.930 . S
H1931 C1939 0.930 . S
H1932 C1942 0.930 . S
H1933 C1943 0.930 . S
C1934 H1928 0.930 . S
C1934 C1935 1.355 . S
C1934 C1936 1.415 . S
C1935 C1934 1.355 . S
C1935 C1937 1.419 . S
C1936 C1934 1.415 . S
C1936 C1941 1.425 . S
C1936 C1943 1.409 . S
C1937 H1929 0.930 . S
C1937 C1935 1.419 . S
C1937 C1938 1.362 . S
C1938 H1930 0.930 . S
C1938 C1937 1.362 . S
C1938 C1941 1.409 . S
C1939 H1931 0.930 . S
C1939 C1940 1.355 . S
C1939 C1941 1.415 . S
C1940 C1939 1.355 . S
C1940 C1942 1.419 . S
C1941 C1936 1.425 . S
C1941 C1938 1.409 . S
C1941 C1939 1.415 . S
C1942 H1932 0.930 . S
C1942 C1940 1.419 . S
C1942 C1943 1.362 . S
C1943 H1933 0.930 . S
C1943 C1936 1.409 . S
C1943 C1942 1.362 . S
H1944 C1950 0.930 . S
H1945 C1953 0.930 . S
H1946 C1954 0.930 . S
H1947 C1955 0.930 . S
H1948 C1958 0.930 . S
H1949 C1959 0.930 . S
C1950 H1944 0.930 . S
C1950 C1951 1.355 . S
C1950 C1952 1.415 . S
C1951 C1950 1.355 . S
C1951 C1953 1.419 . S
C1952 C1950 1.415 . S
C1952 C1957 1.425 . S
C1952 C1959 1.409 . S
C1953 H1945 0.930 . S
C1953 C1951 1.419 . S
C1953 C1954 1.362 . S
C1954 H1946 0.930 . S
C1954 C1953 1.362 . S
C1954 C1957 1.409 . S
C1955 H1947 0.930 . S
C1955 C1956 1.355 . S
C1955 C1957 1.415 . S
C1956 C1955 1.355 . S
C1956 C1958 1.419 . S
C1957 C1952 1.425 . S
C1957 C1954 1.409 . S
C1957 C1955 1.415 . S
C1958 H1948 0.930 . S
C1958 C1956 1.419 . S
C1958 C1959 1.362 . S
C1959 H1949 0.930 . S
C1959 C1952 1.409 . S
C1959 C1958 1.362 . S
H1960 C1966 0.930 . S
H1961 C1969 0.930 . S
H1962 C1970 0.930 . S
H1963 C1971 0.930 . S
H1964 C1974 0.930 . S
H1965 C1975 0.930 . S
C1966 H1960 0.930 . S
C1966 C1967 1.355 . S
C1966 C1968 1.415 . S
C1967 C1966 1.355 . S
C1967 C1969 1.419 . S
C1968 C1966 1.415 . S
C1968 C1973 1.425 . S
C1968 C1975 1.409 . S
C1969 H1961 0.930 . S
C1969 C1967 1.419 . S
C1969 C1970 1.362 . S
C1970 H1962 0.930 . S
C1970 C1969 1.362 . S
C1970 C1973 1.409 . S
C1971 H1963 0.930 . S
C1971 C1972 1.355 . S
C1971 C1973 1.415 . S
C1972 C1971 1.355 . S
C1972 C1974 1.419 . S
C1973 C1968 1.425 . S
C1973 C1970 1.409 . S
C1973 C1971 1.415 . S
C1974 H1964 0.930 . S
C1974 C1972 1.419 . S
C1974 C1975 1.362 . S
C1975 H1965 0.930 . S
C1975 C1968 1.409 . S
C1975 C1974 1.362 . S
H1976 C1982 0.930 . S
H1977 C1985 0.930 . S
H1978 C1986 0.930 . S
H1979 C1987 0.930 . S
H1980 C1990 0.930 . S
H1981 C1991 0.930 . S
C1982 H1976 0.930 . S
C1982 C1983 1.355 . S
C1982 C1984 1.415 . S
C1983 C1982 1.355 . S
C1983 C1985 1.419 . S
C1984 C1982 1.415 . S
C1984 C1989 1.425 . S
C1984 C1991 1.409 . S
C1985 H1977 0.930 . S
C1985 C1983 1.419 . S
C1985 C1986 1.362 . S
C1986 H1978 0.930 . S
C1986 C1985 1.362 . S
C1986 C1989 1.409 . S
C1987 H1979 0.930 . S
C1987 C1988 1.355 . S
C1987 C1989 1.415 . S
C1988 C1987 1.355 . S
C1988 C1990 1.419 . S
C1989 C1984 1.425 . S
C1989 C1986 1.409 . S
C1989 C1987 1.415 . S
C1990 H1980 0.930 . S
C1990 C1988 1.419 . S
C1990 C1991 1.362 . S
C1991 H1981 0.930 . S
C1991 C1984 1.409 . S
C1991 C1990 1.362 . S
H1992 C1998 0.930 1_455 S
H1993 C2001 0.930 . S
H1994 C2002 0.930 . S
H1995 C2003 0.930 . S
H1996 C2006 0.930 . S
H1997 C2007 0.930 . S
C1998 H1992 0.930 1_655 S
C1998 C1999 1.355 . S
C1998 C2000 1.415 . S
C1999 C1998 1.355 . S
C1999 C2001 1.419 . S
C2000 C1998 1.415 . S
C2000 C2005 1.425 . S
C2000 C2007 1.409 . S
C2001 H1993 0.930 . S
C2001 C1999 1.419 . S
C2001 C2002 1.362 . S
C2002 H1994 0.930 . S
C2002 C2001 1.362 . S
C2002 C2005 1.409 . S
C2003 H1995 0.930 . S
C2003 C2004 1.355 . S
C2003 C2005 1.415 . S
C2004 C2003 1.355 . S
C2004 C2006 1.419 . S
C2005 C2000 1.425 . S
C2005 C2002 1.409 . S
C2005 C2003 1.415 . S
C2006 H1996 0.930 . S
C2006 C2004 1.419 . S
C2006 C2007 1.362 . S
C2007 H1997 0.930 . S
C2007 C2000 1.409 . S
C2007 C2006 1.362 . S
H2008 C2014 0.930 . S
H2009 C2017 0.930 . S
H2010 C2018 0.930 . S
H2011 C2019 0.930 . S
H2012 C2022 0.930 . S
H2013 C2023 0.930 . S
C2014 H2008 0.930 . S
C2014 C2015 1.355 . S
C2014 C2016 1.415 . S
C2015 C2014 1.355 . S
C2015 C2017 1.419 . S
C2016 C2014 1.415 . S
C2016 C2021 1.425 . S
C2016 C2023 1.409 . S
C2017 H2009 0.930 . S
C2017 C2015 1.419 . S
C2017 C2018 1.362 . S
C2018 H2010 0.930 . S
C2018 C2017 1.362 . S
C2018 C2021 1.409 . S
C2019 H2011 0.930 . S
C2019 C2020 1.355 . S
C2019 C2021 1.415 . S
C2020 C2019 1.355 . S
C2020 C2022 1.419 . S
C2021 C2016 1.425 . S
C2021 C2018 1.409 . S
C2021 C2019 1.415 . S
C2022 H2012 0.930 . S
C2022 C2020 1.419 . S
C2022 C2023 1.362 . S
C2023 H2013 0.930 . S
C2023 C2016 1.409 . S
C2023 C2022 1.362 . S
H2024 C2030 0.930 . S
H2025 C2033 0.930 . S
H2026 C2034 0.930 . S
H2027 C2035 0.930 . S
H2028 C2038 0.930 . S
H2029 C2039 0.930 . S
C2030 H2024 0.930 . S
C2030 C2031 1.355 . S
C2030 C2032 1.415 . S
C2031 C2030 1.355 . S
C2031 C2033 1.419 . S
C2032 C2030 1.415 . S
C2032 C2037 1.425 . S
C2032 C2039 1.409 . S
C2033 H2025 0.930 . S
C2033 C2031 1.419 . S
C2033 C2034 1.362 . S
C2034 H2026 0.930 . S
C2034 C2033 1.362 . S
C2034 C2037 1.409 . S
C2035 H2027 0.930 . S
C2035 C2036 1.355 . S
C2035 C2037 1.415 . S
C2036 C2035 1.355 . S
C2036 C2038 1.419 . S
C2037 C2032 1.425 . S
C2037 C2034 1.409 . S
C2037 C2035 1.415 . S
C2038 H2028 0.930 . S
C2038 C2036 1.419 . S
C2038 C2039 1.362 . S
C2039 H2029 0.930 . S
C2039 C2032 1.409 . S
C2039 C2038 1.362 . S
H2040 C2046 0.930 . S
H2041 C2049 0.930 . S
H2042 C2050 0.930 . S
H2043 C2051 0.930 . S
H2044 C2054 0.930 . S
H2045 C2055 0.930 . S
C2046 H2040 0.930 . S
C2046 C2047 1.355 . S
C2046 C2048 1.415 1_655 S
C2047 C2046 1.355 . S
C2047 C2049 1.419 . S
C2048 C2046 1.415 1_455 S
C2048 C2053 1.425 . S
C2048 C2055 1.409 . S
C2049 H2041 0.930 . S
C2049 C2047 1.419 . S
C2049 C2050 1.362 . S
C2050 H2042 0.930 . S
C2050 C2049 1.362 . S
C2050 C2053 1.409 1_655 S
C2051 H2043 0.930 . S
C2051 C2052 1.355 . S
C2051 C2053 1.415 . S
C2052 C2051 1.355 . S
C2052 C2054 1.419 . S
C2053 C2048 1.425 . S
C2053 C2050 1.409 1_455 S
C2053 C2051 1.415 . S
C2054 H2044 0.930 . S
C2054 C2052 1.419 . S
C2054 C2055 1.362 . S
C2055 H2045 0.930 . S
C2055 C2048 1.409 . S
C2055 C2054 1.362 . S
H2056 C2062 0.930 . S
H2057 C2065 0.930 . S
H2058 C2066 0.930 . S
H2059 C2067 0.930 . S
H2060 C2070 0.930 . S
H2061 C2071 0.930 . S
C2062 H2056 0.930 . S
C2062 C2063 1.355 . S
C2062 C2064 1.415 . S
C2063 C2062 1.355 . S
C2063 C2065 1.419 . S
C2064 C2062 1.415 . S
C2064 C2069 1.425 . S
C2064 C2071 1.409 . S
C2065 H2057 0.930 . S
C2065 C2063 1.419 . S
C2065 C2066 1.362 . S
C2066 H2058 0.930 . S
C2066 C2065 1.362 . S
C2066 C2069 1.409 . S
C2067 H2059 0.930 . S
C2067 C2068 1.355 . S
C2067 C2069 1.415 . S
C2068 C2067 1.355 . S
C2068 C2070 1.419 . S
C2069 C2064 1.425 . S
C2069 C2066 1.409 . S
C2069 C2067 1.415 . S
C2070 H2060 0.930 . S
C2070 C2068 1.419 . S
C2070 C2071 1.362 . S
C2071 H2061 0.930 . S
C2071 C2064 1.409 . S
C2071 C2070 1.362 . S
H2072 C2078 0.930 . S
H2073 C2081 0.930 . S
H2074 C2082 0.932 1_545 S
H2075 C2083 0.930 . S
H2076 C2086 0.930 . S
H2077 C2087 0.930 . S
C2078 H2072 0.930 . S
C2078 C2079 1.355 . S
C2078 C2080 1.415 1_565 S
C2079 C2078 1.355 . S
C2079 C2081 1.419 . S
C2080 C2078 1.415 1_545 S
C2080 C2085 1.425 . S
C2080 C2087 1.409 . S
C2081 H2073 0.930 . S
C2081 C2079 1.419 . S
C2081 C2082 1.362 . S
C2082 H2074 0.932 1_565 S
C2082 C2081 1.362 . S
C2082 C2085 1.409 1_565 S
C2083 H2075 0.930 . S
C2083 C2084 1.355 . S
C2083 C2085 1.415 . S
C2084 C2083 1.355 . S
C2084 C2086 1.419 . S
C2085 C2080 1.425 . S
C2085 C2082 1.409 1_545 S
C2085 C2083 1.415 . S
C2086 H2076 0.930 . S
C2086 C2084 1.419 . S
C2086 C2087 1.362 . S
C2087 H2077 0.930 . S
C2087 C2080 1.409 . S
C2087 C2086 1.362 . S
H2088 C2094 0.930 . S
H2089 C2097 0.930 . S
H2090 C2098 0.930 . S
H2091 C2099 0.930 . S
H2092 C2102 0.930 . S
H2093 C2103 0.930 . S
C2094 H2088 0.930 . S
C2094 C2095 1.355 . S
C2094 C2096 1.415 . S
C2095 C2094 1.355 . S
C2095 C2097 1.419 . S
C2096 C2094 1.415 . S
C2096 C2101 1.425 . S
C2096 C2103 1.409 . S
C2097 H2089 0.930 . S
C2097 C2095 1.419 . S
C2097 C2098 1.362 . S
C2098 H2090 0.930 . S
C2098 C2097 1.362 . S
C2098 C2101 1.409 . S
C2099 H2091 0.930 . S
C2099 C2100 1.355 . S
C2099 C2101 1.415 . S
C2100 C2099 1.355 . S
C2100 C2102 1.419 . S
C2101 C2096 1.425 . S
C2101 C2098 1.409 . S
C2101 C2099 1.415 . S
C2102 H2092 0.930 . S
C2102 C2100 1.419 . S
C2102 C2103 1.362 . S
C2103 H2093 0.930 . S
C2103 C2096 1.409 . S
C2103 C2102 1.362 . S
H2104 C2110 0.930 . S
H2105 C2113 0.930 . S
H2106 C2114 0.930 . S
H2107 C2115 0.930 . S
H2108 C2118 0.930 . S
H2109 C2119 0.930 . S
C2110 H2104 0.930 . S
C2110 C2111 1.355 . S
C2110 C2112 1.415 . S
C2111 C2110 1.355 . S
C2111 C2113 1.419 . S
C2112 C2110 1.415 . S
C2112 C2117 1.425 . S
C2112 C2119 1.409 . S
C2113 H2105 0.930 . S
C2113 C2111 1.419 . S
C2113 C2114 1.362 . S
C2114 H2106 0.930 . S
C2114 C2113 1.362 . S
C2114 C2117 1.409 . S
C2115 H2107 0.930 . S
C2115 C2116 1.355 . S
C2115 C2117 1.415 . S
C2116 C2115 1.355 . S
C2116 C2118 1.419 . S
C2117 C2112 1.425 . S
C2117 C2114 1.409 . S
C2117 C2115 1.415 . S
C2118 H2108 0.930 . S
C2118 C2116 1.419 . S
C2118 C2119 1.362 . S
C2119 H2109 0.930 . S
C2119 C2112 1.409 . S
C2119 C2118 1.362 . S
H2120 C2126 0.930 . S
H2121 C2129 0.930 . S
H2122 C2130 0.930 . S
H2123 C2131 0.930 . S
H2124 C2134 0.930 . S
H2125 C2135 0.930 . S
C2126 H2120 0.930 . S
C2126 C2127 1.355 . S
C2126 C2128 1.415 . S
C2127 C2126 1.355 . S
C2127 C2129 1.419 . S
C2128 C2126 1.415 . S
C2128 C2133 1.425 . S
C2128 C2135 1.409 . S
C2129 H2121 0.930 . S
C2129 C2127 1.419 . S
C2129 C2130 1.362 . S
C2130 H2122 0.930 . S
C2130 C2129 1.362 . S
C2130 C2133 1.409 . S
C2131 H2123 0.930 . S
C2131 C2132 1.355 . S
C2131 C2133 1.415 . S
C2132 C2131 1.355 . S
C2132 C2134 1.419 . S
C2133 C2128 1.425 . S
C2133 C2130 1.409 . S
C2133 C2131 1.415 . S
C2134 H2124 0.930 . S
C2134 C2132 1.419 . S
C2134 C2135 1.362 . S
C2135 H2125 0.930 . S
C2135 C2128 1.409 . S
C2135 C2134 1.362 . S
H2136 C2142 0.930 . S
H2137 C2145 0.930 . S
H2138 C2146 0.930 . S
H2139 C2147 0.930 . S
H2140 C2150 0.930 . S
H2141 C2151 0.930 . S
C2142 H2136 0.930 . S
C2142 C2143 1.355 . S
C2142 C2144 1.415 . S
C2143 C2142 1.355 . S
C2143 C2145 1.419 . S
C2144 C2142 1.415 . S
C2144 C2149 1.425 . S
C2144 C2151 1.409 . S
C2145 H2137 0.930 . S
C2145 C2143 1.419 . S
C2145 C2146 1.362 . S
C2146 H2138 0.930 . S
C2146 C2145 1.362 . S
C2146 C2149 1.409 . S
C2147 H2139 0.930 . S
C2147 C2148 1.355 . S
C2147 C2149 1.415 . S
C2148 C2147 1.355 . S
C2148 C2150 1.419 . S
C2149 C2144 1.425 . S
C2149 C2146 1.409 . S
C2149 C2147 1.415 . S
C2150 H2140 0.930 . S
C2150 C2148 1.419 . S
C2150 C2151 1.362 . S
C2151 H2141 0.930 . S
C2151 C2144 1.409 . S
C2151 C2150 1.362 . S
H2152 C2158 0.930 . S
H2153 C2161 0.930 . S
H2154 C2162 0.930 . S
H2155 C2163 0.930 . S
H2156 C2166 0.930 . S
H2157 C2167 0.930 . S
C2158 H2152 0.930 . S
C2158 C2159 1.355 . S
C2158 C2160 1.415 . S
C2159 C2158 1.355 . S
C2159 C2161 1.419 . S
C2160 C2158 1.415 . S
C2160 C2165 1.425 . S
C2160 C2167 1.409 . S
C2161 H2153 0.930 . S
C2161 C2159 1.419 . S
C2161 C2162 1.362 . S
C2162 H2154 0.930 . S
C2162 C2161 1.362 . S
C2162 C2165 1.409 . S
C2163 H2155 0.930 . S
C2163 C2164 1.355 . S
C2163 C2165 1.415 . S
C2164 C2163 1.355 . S
C2164 C2166 1.419 . S
C2165 C2160 1.425 . S
C2165 C2162 1.409 . S
C2165 C2163 1.415 . S
C2166 H2156 0.930 . S
C2166 C2164 1.419 . S
C2166 C2167 1.362 . S
C2167 H2157 0.930 . S
C2167 C2160 1.409 . S
C2167 C2166 1.362 . S
H2168 C2174 0.930 . S
H2169 C2177 0.930 . S
H2170 C2178 0.930 . S
H2171 C2179 0.930 . S
H2172 C2182 0.930 . S
H2173 C2183 0.930 . S
C2174 H2168 0.930 . S
C2174 C2175 1.355 . S
C2174 C2176 1.415 . S
C2175 C2174 1.355 . S
C2175 C2177 1.419 . S
C2176 C2174 1.415 . S
C2176 C2181 1.425 . S
C2176 C2183 1.409 . S
C2177 H2169 0.930 . S
C2177 C2175 1.419 . S
C2177 C2178 1.362 . S
C2178 H2170 0.930 . S
C2178 C2177 1.362 . S
C2178 C2181 1.409 . S
C2179 H2171 0.930 . S
C2179 C2180 1.355 . S
C2179 C2181 1.415 . S
C2180 C2179 1.355 . S
C2180 C2182 1.419 . S
C2181 C2176 1.425 . S
C2181 C2178 1.409 . S
C2181 C2179 1.415 . S
C2182 H2172 0.930 . S
C2182 C2180 1.419 . S
C2182 C2183 1.362 . S
C2183 H2173 0.930 . S
C2183 C2176 1.409 . S
C2183 C2182 1.362 . S
H2184 C2190 0.930 . S
H2185 C2193 0.930 . S
H2186 C2194 0.930 . S
H2187 C2195 0.930 . S
H2188 C2198 0.930 . S
H2189 C2199 0.930 . S
C2190 H2184 0.930 . S
C2190 C2191 1.355 . S
C2190 C2192 1.415 . S
C2191 C2190 1.355 . S
C2191 C2193 1.419 . S
C2192 C2190 1.415 . S
C2192 C2197 1.425 . S
C2192 C2199 1.409 . S
C2193 H2185 0.930 . S
C2193 C2191 1.419 . S
C2193 C2194 1.362 . S
C2194 H2186 0.930 . S
C2194 C2193 1.362 . S
C2194 C2197 1.409 . S
C2195 H2187 0.930 . S
C2195 C2196 1.355 . S
C2195 C2197 1.415 . S
C2196 C2195 1.355 . S
C2196 C2198 1.419 . S
C2197 C2192 1.425 . S
C2197 C2194 1.409 . S
C2197 C2195 1.415 . S
C2198 H2188 0.930 . S
C2198 C2196 1.419 . S
C2198 C2199 1.362 . S
C2199 H2189 0.930 . S
C2199 C2192 1.409 . S
C2199 C2198 1.362 . S
H2200 C2206 0.930 . S
H2201 C2209 0.930 . S
H2202 C2210 0.930 . S
H2203 C2211 0.930 . S
H2204 C2214 0.930 . S
H2205 C2215 0.930 . S
C2206 H2200 0.930 . S
C2206 C2207 1.355 . S
C2206 C2208 1.415 . S
C2207 C2206 1.355 . S
C2207 C2209 1.419 . S
C2208 C2206 1.415 . S
C2208 C2213 1.425 . S
C2208 C2215 1.409 . S
C2209 H2201 0.930 . S
C2209 C2207 1.419 . S
C2209 C2210 1.362 . S
C2210 H2202 0.930 . S
C2210 C2209 1.362 . S
C2210 C2213 1.409 . S
C2211 H2203 0.930 . S
C2211 C2212 1.355 . S
C2211 C2213 1.415 . S
C2212 C2211 1.355 . S
C2212 C2214 1.419 . S
C2213 C2208 1.425 . S
C2213 C2210 1.409 . S
C2213 C2211 1.415 . S
C2214 H2204 0.930 . S
C2214 C2212 1.419 . S
C2214 C2215 1.362 . S
C2215 H2205 0.930 . S
C2215 C2208 1.409 . S
C2215 C2214 1.362 . S
H2216 C2222 0.930 . S
H2217 C2225 0.930 . S
H2218 C2226 0.930 . S
H2219 C2227 0.930 . S
H2220 C2230 0.930 . S
H2221 C2231 0.930 . S
C2222 H2216 0.930 . S
C2222 C2223 1.355 . S
C2222 C2224 1.415 . S
C2223 C2222 1.355 . S
C2223 C2225 1.419 . S
C2224 C2222 1.415 . S
C2224 C2229 1.425 . S
C2224 C2231 1.409 . S
C2225 H2217 0.930 . S
C2225 C2223 1.419 . S
C2225 C2226 1.362 . S
C2226 H2218 0.930 . S
C2226 C2225 1.362 . S
C2226 C2229 1.409 . S
C2227 H2219 0.930 . S
C2227 C2228 1.355 . S
C2227 C2229 1.415 . S
C2228 C2227 1.355 . S
C2228 C2230 1.419 . S
C2229 C2224 1.425 . S
C2229 C2226 1.409 . S
C2229 C2227 1.415 . S
C2230 H2220 0.930 . S
C2230 C2228 1.419 . S
C2230 C2231 1.362 . S
C2231 H2221 0.930 . S
C2231 C2224 1.409 . S
C2231 C2230 1.362 . S
H2232 C2238 0.930 . S
H2233 C2241 0.930 . S
H2234 C2242 0.930 . S
H2235 C2243 0.930 . S
H2236 C2246 0.930 . S
H2237 C2247 0.930 . S
C2238 H2232 0.930 . S
C2238 C2239 1.355 . S
C2238 C2240 1.415 . S
C2239 C2238 1.355 . S
C2239 C2241 1.419 . S
C2240 C2238 1.415 . S
C2240 C2245 1.425 . S
C2240 C2247 1.409 . S
C2241 H2233 0.930 . S
C2241 C2239 1.419 . S
C2241 C2242 1.362 . S
C2242 H2234 0.930 . S
C2242 C2241 1.362 . S
C2242 C2245 1.409 . S
C2243 H2235 0.930 . S
C2243 C2244 1.355 . S
C2243 C2245 1.415 . S
C2244 C2243 1.355 . S
C2244 C2246 1.419 . S
C2245 C2240 1.425 . S
C2245 C2242 1.409 . S
C2245 C2243 1.415 . S
C2246 H2236 0.930 . S
C2246 C2244 1.419 . S
C2246 C2247 1.362 . S
C2247 H2237 0.930 . S
C2247 C2240 1.409 . S
C2247 C2246 1.362 . S
H2248 C2254 0.935 . S
H2249 C2257 0.930 . S
H2250 C2258 0.930 . S
H2251 C2259 0.930 . S
H2252 C2262 0.930 . S
H2253 C2263 0.930 . S
C2254 H2248 0.935 . S
C2254 C2255 1.363 . S
C2254 C2256 1.402 1_565 S
C2255 C2254 1.363 . S
C2255 C2257 1.419 . S
C2256 C2254 1.402 1_545 S
C2256 C2261 1.425 . S
C2256 C2263 1.409 . S
C2257 H2249 0.930 . S
C2257 C2255 1.419 . S
C2257 C2258 1.362 1_565 S
C2258 H2250 0.930 . S
C2258 C2257 1.362 1_545 S
C2258 C2261 1.409 . S
C2259 H2251 0.930 . S
C2259 C2260 1.355 . S
C2259 C2261 1.415 . S
C2260 C2259 1.355 . S
C2260 C2262 1.419 . S
C2261 C2256 1.425 . S
C2261 C2258 1.409 . S
C2261 C2259 1.415 . S
C2262 H2252 0.930 . S
C2262 C2260 1.419 . S
C2262 C2263 1.362 . S
C2263 H2253 0.930 . S
C2263 C2256 1.409 . S
C2263 C2262 1.362 . S
H2264 C2270 0.930 . S
H2265 C2273 0.930 . S
H2266 C2274 0.930 . S
H2267 C2275 0.930 . S
H2268 C2278 0.930 . S
H2269 C2279 0.930 . S
C2270 H2264 0.930 . S
C2270 C2271 1.355 . S
C2270 C2272 1.415 . S
C2271 C2270 1.355 . S
C2271 C2273 1.419 . S
C2272 C2270 1.415 . S
C2272 C2277 1.425 . S
C2272 C2279 1.409 1_655 S
C2273 H2265 0.930 . S
C2273 C2271 1.419 . S
C2273 C2274 1.362 . S
C2274 H2266 0.930 . S
C2274 C2273 1.362 . S
C2274 C2277 1.409 . S
C2275 H2267 0.930 . S
C2275 C2276 1.355 . S
C2275 C2277 1.415 1_455 S
C2276 C2275 1.355 . S
C2276 C2278 1.419 . S
C2277 C2272 1.425 . S
C2277 C2274 1.409 . S
C2277 C2275 1.415 1_655 S
C2278 H2268 0.930 . S
C2278 C2276 1.419 . S
C2278 C2279 1.362 . S
C2279 H2269 0.930 . S
C2279 C2272 1.409 1_455 S
C2279 C2278 1.362 . S
H2280 C2286 0.930 . S
H2281 C2289 0.930 . S
H2282 C2290 0.930 . S
H2283 C2291 0.930 . S
H2284 C2294 0.930 . S
H2285 C2295 0.930 . S
C2286 H2280 0.930 . S
C2286 C2287 1.355 . S
C2286 C2288 1.415 . S
C2287 C2286 1.355 . S
C2287 C2289 1.419 . S
C2288 C2286 1.415 . S
C2288 C2293 1.425 . S
C2288 C2295 1.409 . S
C2289 H2281 0.930 . S
C2289 C2287 1.419 . S
C2289 C2290 1.362 . S
C2290 H2282 0.930 . S
C2290 C2289 1.362 . S
C2290 C2293 1.409 . S
C2291 H2283 0.930 . S
C2291 C2292 1.355 . S
C2291 C2293 1.415 . S
C2292 C2291 1.355 . S
C2292 C2294 1.419 . S
C2293 C2288 1.425 . S
C2293 C2290 1.409 . S
C2293 C2291 1.415 . S
C2294 H2284 0.930 . S
C2294 C2292 1.419 . S
C2294 C2295 1.362 . S
C2295 H2285 0.930 . S
C2295 C2288 1.409 . S
C2295 C2294 1.362 . S
H2296 C2302 0.930 . S
H2297 C2305 0.930 . S
H2298 C2306 0.930 . S
H2299 C2307 0.930 . S
H2300 C2310 0.930 . S
H2301 C2311 0.930 1_545 S
C2302 H2296 0.930 . S
C2302 C2303 1.355 . S
C2302 C2304 1.415 . S
C2303 C2302 1.355 . S
C2303 C2305 1.419 . S
C2304 C2302 1.415 . S
C2304 C2309 1.425 1_545 S
C2304 C2311 1.409 1_545 S
C2305 H2297 0.930 . S
C2305 C2303 1.419 . S
C2305 C2306 1.362 1_545 S
C2306 H2298 0.930 . S
C2306 C2305 1.362 1_565 S
C2306 C2309 1.409 . S
C2307 H2299 0.930 . S
C2307 C2308 1.355 . S
C2307 C2309 1.415 . S
C2308 C2307 1.355 . S
C2308 C2310 1.419 . S
C2309 C2304 1.425 1_565 S
C2309 C2306 1.409 . S
C2309 C2307 1.415 . S
C2310 H2300 0.930 . S
C2310 C2308 1.419 . S
C2310 C2311 1.362 . S
C2311 H2301 0.930 1_565 S
C2311 C2304 1.409 1_565 S
C2311 C2310 1.362 . S
H2312 C2318 0.930 . S
H2313 C2321 0.930 . S
H2314 C2322 0.930 . S
H2315 C2323 0.930 . S
H2316 C2326 0.930 . S
H2317 C2327 0.930 . S
C2318 H2312 0.930 . S
C2318 C2319 1.355 . S
C2318 C2320 1.415 . S
C2319 C2318 1.355 . S
C2319 C2321 1.419 . S
C2320 C2318 1.415 . S
C2320 C2325 1.425 . S
C2320 C2327 1.409 . S
C2321 H2313 0.930 . S
C2321 C2319 1.419 . S
C2321 C2322 1.362 . S
C2322 H2314 0.930 . S
C2322 C2321 1.362 . S
C2322 C2325 1.409 . S
C2323 H2315 0.930 . S
C2323 C2324 1.355 . S
C2323 C2325 1.415 1_655 S
C2324 C2323 1.355 . S
C2324 C2326 1.419 . S
C2325 C2320 1.425 . S
C2325 C2322 1.409 . S
C2325 C2323 1.415 1_455 S
C2326 H2316 0.930 . S
C2326 C2324 1.419 . S
C2326 C2327 1.362 1_655 S
C2327 H2317 0.930 . S
C2327 C2320 1.409 . S
C2327 C2326 1.362 1_455 S
H2328 C2334 0.930 . S
H2329 C2337 0.930 . S
H2330 C2338 0.930 . S
H2331 C2339 0.930 . S
H2332 C2342 0.930 . S
H2333 C2343 0.930 . S
C2334 H2328 0.930 . S
C2334 C2335 1.355 . S
C2334 C2336 1.415 . S
C2335 C2334 1.355 . S
C2335 C2337 1.419 . S
C2336 C2334 1.415 . S
C2336 C2341 1.425 . S
C2336 C2343 1.409 . S
C2337 H2329 0.930 . S
C2337 C2335 1.419 . S
C2337 C2338 1.362 . S
C2338 H2330 0.930 . S
C2338 C2337 1.362 . S
C2338 C2341 1.409 . S
C2339 H2331 0.930 . S
C2339 C2340 1.355 . S
C2339 C2341 1.415 . S
C2340 C2339 1.355 . S
C2340 C2342 1.419 . S
C2341 C2336 1.425 . S
C2341 C2338 1.409 . S
C2341 C2339 1.415 . S
C2342 H2332 0.930 . S
C2342 C2340 1.419 . S
C2342 C2343 1.362 . S
C2343 H2333 0.930 . S
C2343 C2336 1.409 . S
C2343 C2342 1.362 . S
H2344 C2350 0.930 . S
H2345 C2353 0.930 . S
H2346 C2354 0.930 . S
H2347 C2355 0.930 . S
H2348 C2358 0.930 . S
H2349 C2359 0.930 . S
C2350 H2344 0.930 . S
C2350 C2351 1.355 . S
C2350 C2352 1.415 . S
C2351 C2350 1.355 . S
C2351 C2353 1.419 . S
C2352 C2350 1.415 . S
C2352 C2357 1.425 . S
C2352 C2359 1.409 . S
C2353 H2345 0.930 . S
C2353 C2351 1.419 . S
C2353 C2354 1.362 . S
C2354 H2346 0.930 . S
C2354 C2353 1.362 . S
C2354 C2357 1.409 . S
C2355 H2347 0.930 . S
C2355 C2356 1.355 . S
C2355 C2357 1.415 . S
C2356 C2355 1.355 . S
C2356 C2358 1.419 . S
C2357 C2352 1.425 . S
C2357 C2354 1.409 . S
C2357 C2355 1.415 . S
C2358 H2348 0.930 . S
C2358 C2356 1.419 . S
C2358 C2359 1.362 . S
C2359 H2349 0.930 . S
C2359 C2352 1.409 . S
C2359 C2358 1.362 . S
H2360 C2366 0.930 . S
H2361 C2369 0.930 . S
H2362 C2370 0.930 . S
H2363 C2371 0.930 . S
H2364 C2374 0.930 . S
H2365 C2375 0.930 . S
C2366 H2360 0.930 . S
C2366 C2367 1.355 . S
C2366 C2368 1.415 . S
C2367 C2366 1.355 . S
C2367 C2369 1.419 . S
C2368 C2366 1.415 . S
C2368 C2373 1.425 . S
C2368 C2375 1.409 . S
C2369 H2361 0.930 . S
C2369 C2367 1.419 . S
C2369 C2370 1.362 . S
C2370 H2362 0.930 . S
C2370 C2369 1.362 . S
C2370 C2373 1.409 . S
C2371 H2363 0.930 . S
C2371 C2372 1.355 . S
C2371 C2373 1.415 . S
C2372 C2371 1.355 . S
C2372 C2374 1.419 . S
C2373 C2368 1.425 . S
C2373 C2370 1.409 . S
C2373 C2371 1.415 . S
C2374 H2364 0.930 . S
C2374 C2372 1.419 . S
C2374 C2375 1.362 . S
C2375 H2365 0.930 . S
C2375 C2368 1.409 . S
C2375 C2374 1.362 . S
C1519 C67 1.026 . S
C1524 C226 0.930 . S
C1535 C58 1.022 . S
C1540 C151 1.052 . S
C1551 C142 0.969 . S
C1556 C235 1.036 . S
C1567 C319 1.020 . S
C1572 C394 0.881 . S
C1583 C478 1.020 . S
C1588 C403 1.053 . S
C1599 C487 1.026 . S
C1604 C310 0.907 . S
C1615 C730 0.874 . S
C1620 C571 1.014 . S
C1631 C562 0.840 . S
C1636 C655 1.009 . S
C1647 C739 1.020 . S
C1652 C646 0.903 . S
C1663 C898 0.920 . S
C1668 C823 1.029 . S
C1679 C907 1.028 . S
C1684 C982 0.938 . S
C1695 C814 0.933 . S
C1700 C991 1.033 . S
C1711 C1075 1.053 . S
C1716 C1234 1.025 . S
C1727 C1066 0.846 . S
C1732 C1159 1.008 . S
C1743 C1150 0.850 . S
C1748 C1243 1.009 . S
C1759 C1402 1.024 . S
C1764 C1327 1.053 . S
C1775 C1486 1.020 . S
C1780 C1411 1.051 . S
C1791 C1318 0.916 . S
C1796 C1495 1.028 . S
C1807 C74 1.862 . S
C1812 C494 1.895 . S
C1823 C326 1.892 . S
C1828 C158 1.856 . S
C1839 C410 1.896 . S
C1844 C242 1.889 . S
C1855 C578 1.895 . S
C1860 C998 1.890 . S
C1871 C662 1.845 . S
C1876 C830 1.821 . S
C1887 C914 1.846 . S
C1892 C746 1.886 . S
C1903 C1082 1.829 . S
C1908 C1502 1.867 . S
C1919 C1334 1.861 . S
C1924 C1166 1.895 . S
C1935 C1418 1.821 . S
C1940 C1250 1.845 . S
C1951 C903 2.107 . S
C1956 C63 2.091 . S
C1967 C147 2.128 . S
C1972 C987 2.129 . S
C1983 C819 2.130 . S
C1988 C231 2.106 . S
C1999 C315 2.125 . S
C2004 C1239 2.098 . S
C2015 C399 2.133 . S
C2020 C1071 2.117 . S
C2031 C1155 2.122 . S
C2036 C483 2.096 . S
C2047 C1407 2.106 . S
C2052 C567 2.130 . S
C2063 C651 2.113 . S
C2068 C1491 2.092 . S
C2079 C735 2.131 . S
C2084 C1323 2.107 . S
C2095 C237 1.468 . S
C2100 C56 1.675 . S
C2111 C69 1.457 . S
C2116 C140 1.671 . S
C2127 C224 1.654 . S
C2132 C153 1.433 . S
C2143 C405 1.546 . S
C2148 C308 1.682 . S
C2159 C489 1.467 . S
C2164 C392 1.675 . S
C2175 C476 1.685 . S
C2180 C321 1.544 . S
C2191 C741 1.543 . S
C2196 C560 1.678 . S
C2207 C644 1.681 . S
C2212 C573 1.492 . S
C2223 C657 1.529 . S
C2228 C728 1.670 . S
C2239 C812 1.658 . S
C2244 C909 1.432 . S
C2255 C896 1.675 . S
C2260 C993 1.538 . S
C2271 C825 1.529 . S
C2276 C980 1.670 . S
C2287 C1064 1.687 . S
C2292 C1245 1.536 . S
C2303 C1148 1.683 . S
C2308 C1077 1.546 . S
C2319 C1161 1.542 . S
C2324 C1232 1.686 . S
C2335 C1316 1.658 . S
C2340 C1413 1.490 . S
C2351 C1400 1.687 . S
C2356 C1497 1.531 . S
C2367 C1329 1.503 . S
C2372 C1484 1.661 . S
