# Generated by pormake.
# Topology wiv, (6)-cn, num edge types: 1
# Building blocks:
#     Node 0, Type 0, BuildingBlock: BETFAJ_clean_sbu_0, # of connection points: 6
#     Node 1, Type 0, BuildingBlock: BETFAJ_clean_sbu_0, # of connection points: 6
#     Node 2, Type 0, BuildingBlock: BETFAJ_clean_sbu_0, # of connection points: 6
#     Node 3, Type 0, BuildingBlock: BETFAJ_clean_sbu_0, # of connection points: 6
#     Node 4, Type 0, BuildingBlock: BETFAJ_clean_sbu_0, # of connection points: 6
#     Node 5, Type 0, BuildingBlock: BETFAJ_clean_sbu_0, # of connection points: 6
#     Node 6, Type 0, BuildingBlock: BETFAJ_clean_sbu_0, # of connection points: 6
#     Node 7, Type 0, BuildingBlock: BETFAJ_clean_sbu_0, # of connection points: 6
#     Node 8, Type 0, BuildingBlock: BETFAJ_clean_sbu_0, # of connection points: 6
#     Node 9, Type 0, BuildingBlock: BETFAJ_clean_sbu_0, # of connection points: 6
#     Node 10, Type 0, BuildingBlock: BETFAJ_clean_sbu_0, # of connection points: 6
#     Node 11, Type 0, BuildingBlock: BETFAJ_clean_sbu_0, # of connection points: 6
#     Node 12, Type 0, BuildingBlock: BETFAJ_clean_sbu_0, # of connection points: 6
#     Node 13, Type 0, BuildingBlock: BETFAJ_clean_sbu_0, # of connection points: 6
#     Node 14, Type 0, BuildingBlock: BETFAJ_clean_sbu_0, # of connection points: 6
#     Node 15, Type 0, BuildingBlock: BETFAJ_clean_sbu_0, # of connection points: 6
#     Edge 16, Type (0, 0), BuildingBlock: MIFKUJ_clean_linker_0, # of connection points: 2
#     Edge 17, Type (0, 0), BuildingBlock: MIFKUJ_clean_linker_0, # of connection points: 2
#     Edge 18, Type (0, 0), BuildingBlock: MIFKUJ_clean_linker_0, # of connection points: 2
#     Edge 19, Type (0, 0), BuildingBlock: MIFKUJ_clean_linker_0, # of connection points: 2
#     Edge 20, Type (0, 0), BuildingBlock: MIFKUJ_clean_linker_0, # of connection points: 2
#     Edge 21, Type (0, 0), BuildingBlock: MIFKUJ_clean_linker_0, # of connection points: 2
#     Edge 22, Type (0, 0), BuildingBlock: MIFKUJ_clean_linker_0, # of connection points: 2
#     Edge 23, Type (0, 0), BuildingBlock: MIFKUJ_clean_linker_0, # of connection points: 2
#     Edge 24, Type (0, 0), BuildingBlock: MIFKUJ_clean_linker_0, # of connection points: 2
#     Edge 25, Type (0, 0), BuildingBlock: MIFKUJ_clean_linker_0, # of connection points: 2
#     Edge 26, Type (0, 0), BuildingBlock: MIFKUJ_clean_linker_0, # of connection points: 2
#     Edge 27, Type (0, 0), BuildingBlock: MIFKUJ_clean_linker_0, # of connection points: 2
#     Edge 28, Type (0, 0), BuildingBlock: MIFKUJ_clean_linker_0, # of connection points: 2
#     Edge 29, Type (0, 0), BuildingBlock: MIFKUJ_clean_linker_0, # of connection points: 2
#     Edge 30, Type (0, 0), BuildingBlock: MIFKUJ_clean_linker_0, # of connection points: 2
#     Edge 31, Type (0, 0), BuildingBlock: MIFKUJ_clean_linker_0, # of connection points: 2
#     Edge 32, Type (0, 0), BuildingBlock: MIFKUJ_clean_linker_0, # of connection points: 2
#     Edge 33, Type (0, 0), BuildingBlock: MIFKUJ_clean_linker_0, # of connection points: 2
#     Edge 34, Type (0, 0), BuildingBlock: MIFKUJ_clean_linker_0, # of connection points: 2
#     Edge 35, Type (0, 0), BuildingBlock: MIFKUJ_clean_linker_0, # of connection points: 2
#     Edge 36, Type (0, 0), BuildingBlock: MIFKUJ_clean_linker_0, # of connection points: 2
#     Edge 37, Type (0, 0), BuildingBlock: MIFKUJ_clean_linker_0, # of connection points: 2
#     Edge 38, Type (0, 0), BuildingBlock: MIFKUJ_clean_linker_0, # of connection points: 2
#     Edge 39, Type (0, 0), BuildingBlock: MIFKUJ_clean_linker_0, # of connection points: 2
#     Edge 40, Type (0, 0), BuildingBlock: MIFKUJ_clean_linker_0, # of connection points: 2
#     Edge 41, Type (0, 0), BuildingBlock: MIFKUJ_clean_linker_0, # of connection points: 2
#     Edge 42, Type (0, 0), BuildingBlock: MIFKUJ_clean_linker_0, # of connection points: 2
#     Edge 43, Type (0, 0), BuildingBlock: MIFKUJ_clean_linker_0, # of connection points: 2
#     Edge 44, Type (0, 0), BuildingBlock: MIFKUJ_clean_linker_0, # of connection points: 2
#     Edge 45, Type (0, 0), BuildingBlock: MIFKUJ_clean_linker_0, # of connection points: 2
#     Edge 46, Type (0, 0), BuildingBlock: MIFKUJ_clean_linker_0, # of connection points: 2
#     Edge 47, Type (0, 0), BuildingBlock: MIFKUJ_clean_linker_0, # of connection points: 2
#     Edge 48, Type (0, 0), BuildingBlock: MIFKUJ_clean_linker_0, # of connection points: 2
#     Edge 49, Type (0, 0), BuildingBlock: MIFKUJ_clean_linker_0, # of connection points: 2
#     Edge 50, Type (0, 0), BuildingBlock: MIFKUJ_clean_linker_0, # of connection points: 2
#     Edge 51, Type (0, 0), BuildingBlock: MIFKUJ_clean_linker_0, # of connection points: 2
#     Edge 52, Type (0, 0), BuildingBlock: MIFKUJ_clean_linker_0, # of connection points: 2
#     Edge 53, Type (0, 0), BuildingBlock: MIFKUJ_clean_linker_0, # of connection points: 2
#     Edge 54, Type (0, 0), BuildingBlock: MIFKUJ_clean_linker_0, # of connection points: 2
#     Edge 55, Type (0, 0), BuildingBlock: MIFKUJ_clean_linker_0, # of connection points: 2
#     Edge 56, Type (0, 0), BuildingBlock: MIFKUJ_clean_linker_0, # of connection points: 2
#     Edge 57, Type (0, 0), BuildingBlock: MIFKUJ_clean_linker_0, # of connection points: 2
#     Edge 58, Type (0, 0), BuildingBlock: MIFKUJ_clean_linker_0, # of connection points: 2
#     Edge 59, Type (0, 0), BuildingBlock: MIFKUJ_clean_linker_0, # of connection points: 2
#     Edge 60, Type (0, 0), BuildingBlock: MIFKUJ_clean_linker_0, # of connection points: 2
#     Edge 61, Type (0, 0), BuildingBlock: MIFKUJ_clean_linker_0, # of connection points: 2
#     Edge 62, Type (0, 0), BuildingBlock: MIFKUJ_clean_linker_0, # of connection points: 2
#     Edge 63, Type (0, 0), BuildingBlock: MIFKUJ_clean_linker_0, # of connection points: 2
# Relax obj value: 0.102
# Max RMSD: 0.163
# Mean RMSD: 0.163
data_MOF--net-wiv--node1-BETFAJ_clean_sbu_0--edge1-MIFKUJ_clean_linker_0
_symmetry_space_group_name_H-M    P1
_symmetry_Int_Tables_number       1
_symmetry_cell_setting            triclinic
loop_
_symmetry_equiv_pos_as_xyz
'x, y, z'
_cell_length_a     69.077163
_cell_length_b     69.137164
_cell_length_c     29.938822
_cell_angle_alpha  90.06664
_cell_angle_beta   89.958403
_cell_angle_gamma 90.010412
loop_
_atom_site_label
_atom_site_type_symbol
_atom_site_fract_x
_atom_site_fract_y
_atom_site_fract_z
_atom_type_partial_charge
Sm0 Sm 0.35039 0.10988 0.15697 0.0
Sm1 Sm 0.37481 0.11314 0.07617 0.0
C2 C 0.33569 0.09985 0.2358 0.0
C3 C 0.33921 0.10219 0.2842 0.0
C4 C 0.33494 0.08677 0.31289 0.0
C5 C 0.33788 0.08848 0.35895 0.0
C6 C 0.34513 0.10574 0.37752 0.0
C7 C 0.34966 0.12114 0.34848 0.0
C8 C 0.34676 0.11937 0.30225 0.0
C9 C 0.35339 0.14767 0.1282 0.0
C10 C 0.39827 0.11725 0.16763 0.0
C11 C 0.3896 0.12063 0.99601 0.0
C12 C 0.38367 0.12009 0.94843 0.0
C13 C 0.38792 0.13587 0.92073 0.0
C14 C 0.38339 0.13535 0.87515 0.0
C15 C 0.37459 0.11892 0.85602 0.0
C16 C 0.36995 0.10327 0.88417 0.0
C17 C 0.3744 0.10386 0.92985 0.0
C18 C 0.37279 0.07609 0.11124 0.0
C19 C 0.32769 0.10865 0.06256 0.0
O20 O 0.34816 0.0893 0.21382 0.0
O21 O 0.32999 0.11502 0.21332 0.0
O22 O 0.36727 0.13566 0.12901 0.0
O23 O 0.33759 0.13974 0.14282 0.0
O24 O 0.38181 0.1117 0.18662 0.0
O25 O 0.39911 0.12103 0.12454 0.0
O26 O 0.38164 0.13387 0.02126 0.0
O27 O 0.39161 0.10407 0.0165 0.0
O28 O 0.3586 0.08747 0.10643 0.0
O29 O 0.38848 0.08386 0.09562 0.0
O30 O 0.34403 0.11583 0.04712 0.0
O31 O 0.3267 0.10223 0.10418 0.0
H32 H 0.32928 0.07332 0.29961 0.0
H33 H 0.3346 0.07617 0.37995 0.0
H34 H 0.35513 0.1347 0.36149 0.0
H35 H 0.3503 0.13145 0.28071 0.0
H36 H 0.39495 0.1486 0.93429 0.0
H37 H 0.38683 0.14785 0.85491 0.0
H38 H 0.36335 0.0903 0.87077 0.0
H39 H 0.37084 0.09148 0.95043 0.0
Sm40 Sm 0.11274 0.62617 0.96042 0.0
Sm41 Sm 0.11152 0.6517 0.88028 0.0
C42 C 0.11948 0.61064 0.04018 0.0
C43 C 0.1175 0.61565 0.08814 0.0
C44 C 0.11169 0.60135 0.1185 0.0
C45 C 0.11012 0.60549 0.16417 0.0
C46 C 0.1144 0.62409 0.18069 0.0
C47 C 0.12008 0.63849 0.15006 0.0
C48 C 0.12157 0.63433 0.10427 0.0
C49 C 0.07671 0.628 0.92065 0.0
C50 C 0.10695 0.67339 0.97615 0.0
C51 C 0.10409 0.66722 0.80067 0.0
C52 C 0.10538 0.66268 0.75233 0.0
C53 C 0.08994 0.66774 0.72421 0.0
C54 C 0.09095 0.66426 0.67817 0.0
C55 C 0.10742 0.65559 0.65912 0.0
C56 C 0.12287 0.65044 0.68736 0.0
C57 C 0.12184 0.65387 0.73353 0.0
C58 C 0.14822 0.64853 0.91558 0.0
C59 C 0.11852 0.60397 0.86753 0.0
O60 O 0.13257 0.61998 0.01706 0.0
O61 O 0.10348 0.60783 0.01784 0.0
O62 O 0.08783 0.64235 0.92693 0.0
O63 O 0.08409 0.61239 0.93759 0.0
O64 O 0.11161 0.65641 0.99294 0.0
O65 O 0.10421 0.67557 0.93263 0.0
O66 O 0.09128 0.65766 0.82393 0.0
O67 O 0.12025 0.66993 0.82248 0.0
O68 O 0.13643 0.63458 0.91108 0.0
O69 O 0.14053 0.66458 0.90181 0.0
O70 O 0.11332 0.62064 0.84918 0.0
O71 O 0.12163 0.6026 0.91087 0.0
H72 H 0.10851 0.58684 0.10689 0.0
H73 H 0.10594 0.59398 0.1867 0.0
H74 H 0.12324 0.65302 0.16143 0.0
H75 H 0.12597 0.6457 0.08157 0.0
H76 H 0.07711 0.67456 0.73786 0.0
H77 H 0.07892 0.66863 0.65731 0.0
H78 H 0.1357 0.6436 0.67378 0.0
H79 H 0.13392 0.64971 0.75445 0.0
Sm80 Sm 0.65264 0.89132 0.14739 0.0
Sm81 Sm 0.6274 0.89015 0.06718 0.0
C82 C 0.66797 0.89859 0.22724 0.0
C83 C 0.66311 0.89642 0.27508 0.0
C84 C 0.64394 0.89776 0.29048 0.0
C85 C 0.63978 0.8961 0.33618 0.0
C86 C 0.65473 0.89307 0.36739 0.0
C87 C 0.67387 0.89154 0.35163 0.0
C88 C 0.67799 0.89321 0.30601 0.0
C89 C 0.64927 0.85453 0.11246 0.0
C90 C 0.60479 0.88438 0.15945 0.0
C91 C 0.61204 0.88302 0.98743 0.0
C92 C 0.61702 0.88433 0.93924 0.0
C93 C 0.61636 0.86758 0.91269 0.0
C94 C 0.6201 0.8685 0.86675 0.0
C95 C 0.62446 0.88625 0.84608 0.0
C96 C 0.62538 0.90299 0.87283 0.0
C97 C 0.62175 0.90205 0.91888 0.0
C98 C 0.62929 0.92608 0.10759 0.0
C99 C 0.67467 0.8963 0.05213 0.0
O100 O 0.65795 0.91121 0.20443 0.0
O101 O 0.67134 0.88275 0.20478 0.0
O102 O 0.63546 0.86648 0.1166 0.0
O103 O 0.66538 0.86212 0.12628 0.0
O104 O 0.6214 0.88971 0.17805 0.0
O105 O 0.60365 0.88117 0.11613 0.0
O106 O 0.62117 0.86995 1.01095 0.0
O107 O 0.60931 0.89915 1.00945 0.0
O108 O 0.64359 0.91499 0.10073 0.0
O109 O 0.61359 0.91874 0.09076 0.0
O110 O 0.65778 0.89142 0.03501 0.0
O111 O 0.67665 0.89902 0.0957 0.0
H112 H 0.63221 0.90028 0.26726 0.0
H113 H 0.62487 0.89721 0.34709 0.0
H114 H 0.68576 0.88945 0.3747 0.0
H115 H 0.69289 0.89218 0.29488 0.0
H116 H 0.61268 0.85376 0.92742 0.0
H117 H 0.61907 0.85535 0.84722 0.0
H118 H 0.62897 0.91685 0.85818 0.0
H119 H 0.6225 0.91523 0.93839 0.0
Sm120 Sm 0.8909 0.37974 0.9627 0.0
Sm121 Sm 0.89258 0.35467 0.88222 0.0
C122 C 0.88378 0.39554 0.04208 0.0
C123 C 0.88472 0.39061 0.09012 0.0
C124 C 0.87125 0.39884 0.11957 0.0
C125 C 0.87213 0.39499 0.16542 0.0
C126 C 0.8866 0.38283 0.18306 0.0
C127 C 0.8999 0.3743 0.15318 0.0
C128 C 0.89894 0.37811 0.10719 0.0
C129 C 0.92735 0.37709 0.9248 0.0
C130 C 0.89539 0.33239 0.97743 0.0
C131 C 0.90013 0.33914 0.80264 0.0
C132 C 0.89886 0.34383 0.75454 0.0
C133 C 0.91269 0.33615 0.72519 0.0
C134 C 0.91161 0.33982 0.6793 0.0
C135 C 0.89661 0.35125 0.66152 0.0
C136 C 0.88294 0.35926 0.69127 0.0
C137 C 0.88407 0.3556 0.73732 0.0
C138 C 0.8555 0.35886 0.91519 0.0
C139 C 0.88682 0.40258 0.87052 0.0
O140 O 0.87058 0.38672 0.01831 0.0
O141 O 0.9002 0.39746 0.0208 0.0
O142 O 0.91583 0.36306 0.93055 0.0
O143 O 0.9201 0.39291 0.94114 0.0
O144 O 0.88974 0.34918 0.9938 0.0
O145 O 0.89978 0.33072 0.93447 0.0
O146 O 0.91291 0.3487 0.82601 0.0
O147 O 0.88391 0.33648 0.82425 0.0
O148 O 0.86773 0.37241 0.91137 0.0
O149 O 0.86293 0.34255 0.90226 0.0
O150 O 0.89275 0.38609 0.8523 0.0
O151 O 0.88236 0.40341 0.9133 0.0
H152 H 0.86007 0.4084 0.1071 0.0
H153 H 0.86137 0.4015 0.18701 0.0
H154 H 0.91133 0.36499 0.16537 0.0
H155 H 0.90943 0.37147 0.08507 0.0
H156 H 0.92432 0.32717 0.73779 0.0
H157 H 0.92265 0.33374 0.65776 0.0
H158 H 0.87111 0.36803 0.67893 0.0
H159 H 0.87328 0.36181 0.75937 0.0
Sm160 Sm 0.35208 0.39277 0.12944 0.0
Sm161 Sm 0.37707 0.39049 0.20959 0.0
C162 C 0.33696 0.4009 0.04986 0.0
C163 C 0.34118 0.39817 1.00178 0.0
C164 C 0.36011 0.39932 0.98483 0.0
C165 C 0.36358 0.39748 0.93884 0.0
C166 C 0.34816 0.39456 0.90872 0.0
C167 C 0.32928 0.39295 0.92622 0.0
C168 C 0.32586 0.39478 0.97212 0.0
C169 C 0.3547 0.35547 0.16185 0.0
C170 C 0.39965 0.38471 0.11734 0.0
C171 C 0.39284 0.38339 0.28896 0.0
C172 C 0.38824 0.38505 0.33715 0.0
C173 C 0.36965 0.38105 0.35391 0.0
C174 C 0.3659 0.38218 0.39993 0.0
C175 C 0.38068 0.38727 0.43019 0.0
C176 C 0.39919 0.3915 0.41301 0.0
C177 C 0.4029 0.3904 0.36709 0.0
C178 C 0.37595 0.42675 0.17057 0.0
C179 C 0.32999 0.39699 0.2248 0.0
O180 O 0.34814 0.41274 0.07208 0.0
O181 O 0.3324 0.3855 0.07277 0.0
O182 O 0.36874 0.36723 0.15916 0.0
O183 O 0.33887 0.3635 0.14776 0.0
O184 O 0.38333 0.39095 0.09898 0.0
O185 O 0.40046 0.38079 0.16038 0.0
O186 O 0.38329 0.37047 0.26579 0.0
O187 O 0.39554 0.3995 0.26705 0.0
O188 O 0.36141 0.41596 0.17716 0.0
O189 O 0.3915 0.41886 0.18657 0.0
O190 O 0.34665 0.39117 0.24147 0.0
O191 O 0.32832 0.40077 0.18159 0.0
H192 H 0.37218 0.40203 1.00701 0.0
H193 H 0.37829 0.39906 0.92684 0.0
H194 H 0.31707 0.39025 0.90447 0.0
H195 H 0.31115 0.39371 0.98446 0.0
H196 H 0.35807 0.37685 0.33154 0.0
H197 H 0.35153 0.37866 0.41185 0.0
H198 H 0.41085 0.3958 0.43506 0.0
H199 H 0.41732 0.39362 0.35495 0.0
Sm200 Sm 0.38996 0.62718 0.82165 0.0
Sm201 Sm 0.39478 0.65173 0.90168 0.0
C202 C 0.38177 0.61178 0.74231 0.0
C203 C 0.38418 0.6159 0.6938 0.0
C204 C 0.36809 0.62137 0.66806 0.0
C205 C 0.36983 0.62425 0.62192 0.0
C206 C 0.38771 0.62162 0.60006 0.0
C207 C 0.40386 0.61632 0.62599 0.0
C208 C 0.40212 0.61346 0.6722 0.0
C209 C 0.42748 0.62858 0.85463 0.0
C210 C 0.39559 0.67432 0.80758 0.0
C211 C 0.40461 0.66549 0.98155 0.0
C212 C 0.40298 0.65967 0.02928 0.0
C213 C 0.41944 0.6532 0.05244 0.0
C214 C 0.41833 0.64824 0.09774 0.0
C215 C 0.40076 0.64984 0.12133 0.0
C216 C 0.38425 0.65619 0.09797 0.0
C217 C 0.38534 0.66104 0.05259 0.0
C218 C 0.35657 0.64904 0.87467 0.0
C219 C 0.38705 0.60443 0.91332 0.0
O220 O 0.36966 0.62263 0.76475 0.0
O221 O 0.39721 0.60742 0.76539 0.0
O222 O 0.41636 0.64295 0.84986 0.0
O223 O 0.41913 0.61298 0.84028 0.0
O224 O 0.3879 0.65813 0.79242 0.0
O225 O 0.40246 0.67521 0.84883 0.0
O226 O 0.4163 0.65537 0.9564 0.0
O227 O 0.38877 0.67046 0.96062 0.0
O228 O 0.36837 0.63503 0.87608 0.0
O229 O 0.36494 0.66493 0.88728 0.0
O230 O 0.39558 0.62007 0.92961 0.0
O231 O 0.38003 0.60443 0.87239 0.0
H232 H 0.35404 0.62327 0.68356 0.0
H233 H 0.35711 0.62866 0.60344 0.0
H234 H 0.41782 0.61391 0.61047 0.0
H235 H 0.41482 0.60908 0.69081 0.0
H236 H 0.43327 0.65205 0.03554 0.0
H237 H 0.4313 0.64312 0.11423 0.0
H238 H 0.37052 0.6579 0.115 0.0
H239 H 0.37237 0.6661 0.03599 0.0
Sm240 Sm 0.6535 0.60998 0.12319 0.0
Sm241 Sm 0.62871 0.61152 0.20375 0.0
C242 C 0.669 0.60206 0.04376 0.0
C243 C 0.66483 0.60337 0.99537 0.0
C244 C 0.67049 0.58816 0.96725 0.0
C245 C 0.66751 0.58925 0.92108 0.0
C246 C 0.65882 0.60566 0.90179 0.0
C247 C 0.65284 0.62079 0.93026 0.0
C248 C 0.65579 0.61965 0.97656 0.0
C249 C 0.64993 0.64707 0.15628 0.0
C250 C 0.60551 0.6163 0.11209 0.0
C251 C 0.61347 0.61916 0.28334 0.0
C252 C 0.61871 0.61784 0.33115 0.0
C253 C 0.61313 0.63274 0.36022 0.0
C254 C 0.6175 0.63176 0.40579 0.0
C255 C 0.62749 0.61577 0.42356 0.0
C256 C 0.63338 0.60097 0.39406 0.0
C257 C 0.62908 0.60202 0.34833 0.0
C258 C 0.63121 0.57512 0.16565 0.0
C259 C 0.67599 0.60622 0.21843 0.0
O260 O 0.65895 0.58957 0.06683 0.0
O261 O 0.67203 0.61817 0.06549 0.0
O262 O 0.6362 0.63497 0.1531 0.0
O263 O 0.66604 0.63946 0.14251 0.0
O264 O 0.62199 0.61066 0.09325 0.0
O265 O 0.60477 0.62016 0.15516 0.0
O266 O 0.62283 0.63199 0.25961 0.0
O267 O 0.61054 0.60296 0.26174 0.0
O268 O 0.64526 0.58661 0.17142 0.0
O269 O 0.61539 0.58235 0.18215 0.0
O270 O 0.65908 0.61082 0.23584 0.0
O271 O 0.67785 0.60329 0.17488 0.0
H272 H 0.67738 0.57541 0.98102 0.0
H273 H 0.67194 0.57714 0.90053 0.0
H274 H 0.64625 0.63372 0.91673 0.0
H275 H 0.65121 0.63158 0.99754 0.0
H276 H 0.60529 0.64517 0.34765 0.0
H277 H 0.61309 0.64365 0.42707 0.0
H278 H 0.64096 0.58836 0.4064 0.0
H279 H 0.63371 0.59039 0.32652 0.0
Sm280 Sm 0.61353 0.37571 0.81834 0.0
Sm281 Sm 0.60949 0.34937 0.90353 0.0
C282 C 0.62115 0.39085 0.73869 0.0
C283 C 0.62003 0.38563 0.69047 0.0
C284 C 0.63659 0.37914 0.6676 0.0
C285 C 0.63589 0.37507 0.62178 0.0
C286 C 0.61861 0.37743 0.59739 0.0
C287 C 0.60204 0.38393 0.6204 0.0
C288 C 0.60275 0.388 0.66624 0.0
C289 C 0.57782 0.37499 0.85967 0.0
C290 C 0.60672 0.328 0.80539 0.0
C291 C 0.59483 0.33635 0.97944 0.0
C292 C 0.59814 0.33976 0.02795 0.0
C293 C 0.58609 0.35261 0.0516 0.0
C294 C 0.58855 0.35554 0.09748 0.0
C295 C 0.60333 0.34595 0.12085 0.0
C296 C 0.61565 0.33339 0.09718 0.0
C297 C 0.613 0.3302 0.05131 0.0
C298 C 0.64854 0.35421 0.88656 0.0
C299 C 0.62058 0.39639 0.91279 0.0
O300 O 0.63417 0.382 0.76307 0.0
O301 O 0.60486 0.39361 0.7601 0.0
O302 O 0.58854 0.36049 0.85237 0.0
O303 O 0.58576 0.39068 0.84427 0.0
O304 O 0.60981 0.34522 0.78736 0.0
O305 O 0.60538 0.32551 0.84932 0.0
O306 O 0.58734 0.35076 0.95696 0.0
O307 O 0.60815 0.32695 0.95685 0.0
O308 O 0.63477 0.36132 0.86412 0.0
O309 O 0.64169 0.34355 0.91848 0.0
O310 O 0.61194 0.38104 0.93054 0.0
O311 O 0.62571 0.39683 0.87027 0.0
H312 H 0.6502 0.37733 0.68506 0.0
H313 H 0.64893 0.36993 0.60561 0.0
H314 H 0.58856 0.38631 0.60286 0.0
H315 H 0.58977 0.39325 0.68252 0.0
H316 H 0.57454 0.36026 0.03472 0.0
H317 H 0.57894 0.36545 0.11466 0.0
H318 H 0.62709 0.3257 0.11437 0.0
H319 H 0.62254 0.32019 0.03427 0.0
Sm320 Sm 0.85111 0.61105 0.65155 0.0
Sm321 Sm 0.87614 0.61529 0.57171 0.0
C322 C 0.83651 0.60116 0.73065 0.0
C323 C 0.84089 0.60313 0.7791 0.0
C324 C 0.84518 0.58658 0.8044 0.0
C325 C 0.84857 0.58793 0.85044 0.0
C326 C 0.84753 0.60588 0.87263 0.0
C327 C 0.84337 0.62248 0.84711 0.0
C328 C 0.8401 0.62113 0.80098 0.0
C329 C 0.85459 0.64915 0.62444 0.0
C330 C 0.89877 0.6183 0.66382 0.0
C331 C 0.89126 0.62345 0.49221 0.0
C332 C 0.886 0.62172 0.44413 0.0
C333 C 0.88066 0.63826 0.41977 0.0
C334 C 0.87641 0.637 0.37409 0.0
C335 C 0.87751 0.61918 0.35138 0.0
C336 C 0.88272 0.60261 0.3759 0.0
C337 C 0.88694 0.60386 0.42161 0.0
C338 C 0.87448 0.57811 0.60591 0.0
C339 C 0.82897 0.6098 0.55624 0.0
O340 O 0.84782 0.5899 0.70719 0.0
O341 O 0.83128 0.61664 0.70874 0.0
O342 O 0.86829 0.63702 0.62574 0.0
O343 O 0.83856 0.64123 0.63765 0.0
O344 O 0.88271 0.61067 0.68063 0.0
O345 O 0.89921 0.62455 0.62223 0.0
O346 O 0.8816 0.63601 0.51618 0.0
O347 O 0.89497 0.60753 0.51415 0.0
O348 O 0.86012 0.58922 0.60041 0.0
O349 O 0.89018 0.58626 0.59134 0.0
O350 O 0.84546 0.61689 0.54131 0.0
O351 O 0.8276 0.60373 0.59812 0.0
H352 H 0.84583 0.5725 0.78855 0.0
H353 H 0.85208 0.57485 0.86858 0.0
H354 H 0.84217 0.63653 0.8629 0.0
H355 H 0.83672 0.63419 0.78264 0.0
H356 H 0.87989 0.65225 0.436 0.0
H357 H 0.87221 0.65004 0.3566 0.0
H358 H 0.88401 0.58869 0.35956 0.0
H359 H 0.89115 0.59083 0.43911 0.0
Sm360 Sm 0.61418 0.1262 0.4575 0.0
Sm361 Sm 0.61049 0.15129 0.37755 0.0
C362 C 0.62108 0.11089 0.53749 0.0
C363 C 0.6189 0.11612 0.5854 0.0
C364 C 0.62544 0.13395 0.60233 0.0
C365 C 0.62366 0.13831 0.64795 0.0
C366 C 0.61534 0.12492 0.67779 0.0
C367 C 0.60862 0.10719 0.66054 0.0
C368 C 0.61039 0.10286 0.61496 0.0
C369 C 0.57726 0.12775 0.42165 0.0
C370 C 0.60885 0.17331 0.47269 0.0
C371 C 0.60144 0.16651 0.29852 0.0
C372 C 0.60364 0.16248 0.25022 0.0
C373 C 0.60595 0.14357 0.23383 0.0
C374 C 0.60729 0.14015 0.18768 0.0
C375 C 0.60637 0.15558 0.15698 0.0
C376 C 0.60442 0.17451 0.17383 0.0
C377 C 0.60307 0.17789 0.21986 0.0
C378 C 0.64821 0.14844 0.40753 0.0
C379 C 0.61851 0.10387 0.36516 0.0
O380 O 0.63411 0.1202 0.51415 0.0
O381 O 0.60518 0.10776 0.51501 0.0
O382 O 0.58826 0.14216 0.4276 0.0
O383 O 0.58541 0.11206 0.43605 0.0
O384 O 0.61604 0.1569 0.48765 0.0
O385 O 0.60261 0.17458 0.43094 0.0
O386 O 0.58991 0.15519 0.32117 0.0
O387 O 0.61711 0.171 0.32059 0.0
O388 O 0.63642 0.13446 0.40486 0.0
O389 O 0.64013 0.16436 0.39432 0.0
O390 O 0.61065 0.11976 0.34826 0.0
O391 O 0.6244 0.10344 0.40705 0.0
H392 H 0.63206 0.14447 0.5804 0.0
H393 H 0.62875 0.15221 0.65981 0.0
H394 H 0.60237 0.09641 0.68244 0.0
H395 H 0.60529 0.08899 0.60285 0.0
H396 H 0.60644 0.13142 0.25661 0.0
H397 H 0.60863 0.12538 0.17606 0.0
H398 H 0.60402 0.18679 0.15143 0.0
H399 H 0.60139 0.1926 0.23176 0.0
Sm400 Sm 0.15069 0.39319 0.64677 0.0
Sm401 Sm 0.12537 0.39107 0.56739 0.0
C402 C 0.16608 0.40057 0.72651 0.0
C403 C 0.16126 0.39895 0.7747 0.0
C404 C 0.14405 0.40662 0.79255 0.0
C405 C 0.14028 0.40554 0.83856 0.0
C406 C 0.15357 0.39665 0.86774 0.0
C407 C 0.17064 0.38876 0.84957 0.0
C408 C 0.17444 0.38995 0.80368 0.0
C409 C 0.14744 0.35598 0.6138 0.0
C410 C 0.10306 0.38618 0.65963 0.0
C411 C 0.10954 0.38482 0.48766 0.0
C412 C 0.11457 0.38675 0.43962 0.0
C413 C 0.13171 0.37888 0.42183 0.0
C414 C 0.13577 0.38036 0.37604 0.0
C415 C 0.12282 0.38978 0.34693 0.0
C416 C 0.1058 0.39782 0.36502 0.0
C417 C 0.10173 0.39629 0.41075 0.0
C418 C 0.12749 0.42735 0.60603 0.0
C419 C 0.17263 0.39641 0.55149 0.0
O420 O 0.15672 0.41342 0.70287 0.0
O421 O 0.169 0.38447 0.70469 0.0
O422 O 0.13353 0.36782 0.61775 0.0
O423 O 0.16354 0.36392 0.62647 0.0
O424 O 0.11927 0.39328 0.67688 0.0
O425 O 0.10235 0.38102 0.61726 0.0
O426 O 0.11849 0.37146 0.51068 0.0
O427 O 0.10711 0.40082 0.51026 0.0
O428 O 0.14177 0.41632 0.59882 0.0
O429 O 0.11159 0.41959 0.59153 0.0
O430 O 0.15588 0.39037 0.53558 0.0
O431 O 0.17438 0.40088 0.59435 0.0
H432 H 0.13353 0.41356 0.77106 0.0
H433 H 0.12689 0.41155 0.85125 0.0
H434 H 0.18131 0.38202 0.87098 0.0
H435 H 0.18784 0.38399 0.79084 0.0
H436 H 0.14194 0.37149 0.44322 0.0
H437 H 0.14912 0.37421 0.36346 0.0
H438 H 0.09537 0.40496 0.34366 0.0
H439 H 0.08839 0.40241 0.42353 0.0
Sm440 Sm 0.39114 0.87576 0.45842 0.0
Sm441 Sm 0.39333 0.85034 0.37883 0.0
C442 C 0.38588 0.89153 0.53866 0.0
C443 C 0.38767 0.88599 0.58639 0.0
C444 C 0.37965 0.86873 0.60307 0.0
C445 C 0.38124 0.86407 0.64854 0.0
C446 C 0.39086 0.87656 0.67839 0.0
C447 C 0.39904 0.8937 0.66138 0.0
C448 C 0.39744 0.89834 0.61599 0.0
C449 C 0.4273 0.87399 0.41874 0.0
C450 C 0.3956 0.82857 0.47409 0.0
C451 C 0.40112 0.8349 0.29927 0.0
C452 C 0.39942 0.83943 0.25093 0.0
C453 C 0.40732 0.85639 0.23243 0.0
C454 C 0.40627 0.85981 0.18629 0.0
C455 C 0.39719 0.84643 0.1576 0.0
C456 C 0.38906 0.82963 0.17639 0.0
C457 C 0.39022 0.82616 0.22242 0.0
C458 C 0.35617 0.85358 0.41203 0.0
C459 C 0.38549 0.8979 0.36627 0.0
O460 O 0.37196 0.88357 0.51538 0.0
O461 O 0.40196 0.89314 0.51602 0.0
O462 O 0.41648 0.85961 0.42649 0.0
O463 O 0.41931 0.88982 0.43289 0.0
O464 O 0.38906 0.84523 0.48933 0.0
O465 O 0.40115 0.82696 0.43187 0.0
O466 O 0.41371 0.84471 0.32277 0.0
O467 O 0.38509 0.83162 0.32112 0.0
O468 O 0.36801 0.86746 0.40804 0.0
O469 O 0.36396 0.83749 0.39872 0.0
O470 O 0.39265 0.88175 0.34874 0.0
O471 O 0.38064 0.89863 0.40886 0.0
H472 H 0.37206 0.8589 0.58106 0.0
H473 H 0.375 0.85063 0.66027 0.0
H474 H 0.40634 0.90378 0.68335 0.0
H475 H 0.40371 0.91174 0.60404 0.0
H476 H 0.41443 0.86697 0.2535 0.0
H477 H 0.41247 0.87301 0.17311 0.0
H478 H 0.38218 0.81889 0.15537 0.0
H479 H 0.38411 0.81294 0.23573 0.0
Sm480 Sm 0.85203 0.89687 0.62245 0.0
Sm481 Sm 0.87759 0.89115 0.70862 0.0
C482 C 0.83849 0.91271 0.54806 0.0
C483 C 0.84012 0.90926 0.49945 0.0
C484 C 0.83028 0.92133 0.46953 0.0
C485 C 0.83254 0.91897 0.42331 0.0
C486 C 0.84474 0.90447 0.40591 0.0
C487 C 0.85442 0.89222 0.4362 0.0
C488 C 0.85216 0.89462 0.48247 0.0
C489 C 0.85713 0.85749 0.63447 0.0
C490 C 0.89936 0.8863 0.61497 0.0
C491 C 0.89168 0.88291 0.78907 0.0
C492 C 0.8852 0.8837 0.83624 0.0
C493 C 0.89412 0.87181 0.86807 0.0
C494 C 0.88884 0.87291 0.91322 0.0
C495 C 0.87449 0.88599 0.92771 0.0
C496 C 0.86536 0.8977 0.89548 0.0
C497 C 0.87062 0.89654 0.85024 0.0
C498 C 0.87694 0.92779 0.67127 0.0
C499 C 0.82987 0.89658 0.7203 0.0
O500 O 0.85436 0.91843 0.56797 0.0
O501 O 0.82876 0.89993 0.57142 0.0
O502 O 0.86385 0.87071 0.65935 0.0
O503 O 0.84695 0.86512 0.60272 0.0
O504 O 0.88417 0.89537 0.59745 0.0
O505 O 0.89932 0.88015 0.65677 0.0
O506 O 0.88349 0.87 0.76326 0.0
O507 O 0.89428 0.8995 0.76898 0.0
O508 O 0.86252 0.91674 0.67637 0.0
O509 O 0.89241 0.91978 0.68762 0.0
O510 O 0.84684 0.89208 0.73771 0.0
O511 O 0.82791 0.90048 0.67698 0.0
H512 H 0.82096 0.93275 0.48193 0.0
H513 H 0.82462 0.92849 0.40118 0.0
H514 H 0.86411 0.88105 0.42419 0.0
H515 H 0.86003 0.88524 0.50504 0.0
H516 H 0.90542 0.86183 0.85808 0.0
H517 H 0.89637 0.86382 0.93697 0.0
H518 H 0.8541 0.90775 0.9052 0.0
H519 H 0.86342 0.9058 0.82627 0.0
Sm520 Sm 0.89166 0.12792 0.32031 0.0
Sm521 Sm 0.8928 0.15334 0.4001 0.0
C522 C 0.88559 0.11204 0.24061 0.0
C523 C 0.88728 0.11707 0.19262 0.0
C524 C 0.88063 0.13484 0.17575 0.0
C525 C 0.88177 0.13888 0.12989 0.0
C526 C 0.88963 0.12525 0.09984 0.0
C527 C 0.89663 0.10766 0.1172 0.0
C528 C 0.89541 0.10363 0.16294 0.0
C529 C 0.92751 0.12972 0.36097 0.0
C530 C 0.89707 0.17517 0.30456 0.0
C531 C 0.89963 0.16913 0.47974 0.0
C532 C 0.89798 0.16469 0.52807 0.0
C533 C 0.90493 0.14729 0.54629 0.0
C534 C 0.9039 0.14392 0.59246 0.0
C535 C 0.89585 0.15785 0.62149 0.0
C536 C 0.88861 0.17508 0.60283 0.0
C537 C 0.88971 0.17845 0.55679 0.0
C538 C 0.85604 0.14984 0.36498 0.0
C539 C 0.88599 0.10558 0.41276 0.0
O540 O 0.87208 0.12071 0.26384 0.0
O541 O 0.90173 0.10999 0.26286 0.0
O542 O 0.9166 0.1441 0.35378 0.0
O543 O 0.91995 0.114 0.34493 0.0
O544 O 0.89202 0.15824 0.28793 0.0
O545 O 0.90032 0.17719 0.34794 0.0
O546 O 0.91269 0.15979 0.45658 0.0
O547 O 0.88353 0.17164 0.4577 0.0
O548 O 0.86793 0.13603 0.36964 0.0
O549 O 0.8637 0.16601 0.37815 0.0
O550 O 0.89183 0.12211 0.43093 0.0
O551 O 0.88218 0.10453 0.36966 0.0
H552 H 0.87437 0.14555 0.19789 0.0
H553 H 0.87608 0.15251 0.11792 0.0
H554 H 0.90315 0.09696 0.09547 0.0
H555 H 0.90075 0.08988 0.17515 0.0
H556 H 0.91136 0.13636 0.52497 0.0
H557 H 0.9098 0.13056 0.60546 0.0
H558 H 0.88196 0.186 0.62379 0.0
H559 H 0.88418 0.19195 0.54358 0.0
Sm560 Sm 0.15335 0.11151 0.62898 0.0
Sm561 Sm 0.12828 0.11341 0.70884 0.0
C562 C 0.1688 0.10373 0.54949 0.0
C563 C 0.16471 0.10613 0.50118 0.0
C564 C 0.14715 0.1 0.48206 0.0
C565 C 0.14414 0.10146 0.43585 0.0
C566 C 0.15858 0.10912 0.40766 0.0
C567 C 0.17597 0.11559 0.4272 0.0
C568 C 0.17899 0.11405 0.47331 0.0
C569 C 0.14997 0.1487 0.66204 0.0
C570 C 0.10564 0.11915 0.61696 0.0
C571 C 0.11241 0.11882 0.78891 0.0
C572 C 0.11773 0.11762 0.83677 0.0
C573 C 0.13551 0.12462 0.8529 0.0
C574 C 0.13991 0.12365 0.89862 0.0
C575 C 0.1266 0.11567 0.9292 0.0
C576 C 0.10897 0.10839 0.91259 0.0
C577 C 0.1046 0.10939 0.86701 0.0
C578 C 0.12986 0.07728 0.66918 0.0
C579 C 0.17545 0.10913 0.72378 0.0
O580 O 0.15808 0.09152 0.57186 0.0
O581 O 0.17287 0.11931 0.57234 0.0
O582 O 0.13618 0.13673 0.65854 0.0
O583 O 0.16606 0.141 0.64845 0.0
O584 O 0.122 0.11289 0.59859 0.0
O585 O 0.10484 0.12315 0.66 0.0
O586 O 0.1201 0.13274 0.76523 0.0
O587 O 0.1114 0.1025 0.76705 0.0
O588 O 0.14435 0.0881 0.6763 0.0
O589 O 0.11417 0.08519 0.68438 0.0
O590 O 0.15888 0.11579 0.73925 0.0
O591 O 0.17684 0.10343 0.68165 0.0
H592 H 0.13583 0.09384 0.50266 0.0
H593 H 0.13065 0.09614 0.42216 0.0
H594 H 0.18729 0.12191 0.4069 0.0
H595 H 0.19263 0.11891 0.48721 0.0
H596 H 0.14593 0.13101 0.83028 0.0
H597 H 0.15356 0.12954 0.91008 0.0
H598 H 0.09851 0.1018 0.93482 0.0
H599 H 0.09085 0.10377 0.85535 0.0
Sm600 Sm 0.11373 0.87616 0.32156 0.0
Sm601 Sm 0.11139 0.851 0.40151 0.0
C602 C 0.12024 0.89214 0.24215 0.0
C603 C 0.1187 0.88741 0.19392 0.0
C604 C 0.12721 0.87071 0.17557 0.0
C605 C 0.126 0.86697 0.12958 0.0
C606 C 0.11629 0.87986 0.10084 0.0
C607 C 0.10759 0.89641 0.11956 0.0
C608 C 0.10882 0.90014 0.16545 0.0
C609 C 0.07723 0.87408 0.35936 0.0
C610 C 0.10906 0.8289 0.30618 0.0
C611 C 0.10331 0.83577 0.48096 0.0
C612 C 0.10512 0.84042 0.52919 0.0
C613 C 0.09712 0.85735 0.54769 0.0
C614 C 0.0983 0.8609 0.59376 0.0
C615 C 0.10753 0.84764 0.62244 0.0
C616 C 0.11579 0.83089 0.60354 0.0
C617 C 0.11453 0.82732 0.55759 0.0
C618 C 0.14862 0.85425 0.36904 0.0
C619 C 0.11851 0.89871 0.41406 0.0
O620 O 0.1336 0.88332 0.26547 0.0
O621 O 0.10403 0.8942 0.26413 0.0
O622 O 0.08841 0.85984 0.35304 0.0
O623 O 0.08492 0.88985 0.3441 0.0
O624 O 0.11517 0.84562 0.29036 0.0
O625 O 0.10399 0.82731 0.34873 0.0
O626 O 0.09089 0.84575 0.45744 0.0
O627 O 0.11927 0.83213 0.4591 0.0
O628 O 0.13675 0.86815 0.37263 0.0
O629 O 0.14076 0.83818 0.3822 0.0
O630 O 0.11227 0.88231 0.43205 0.0
O631 O 0.12287 0.89958 0.37122 0.0
H632 H 0.13497 0.86062 0.19663 0.0
H633 H 0.13305 0.85418 0.11644 0.0
H634 H 0.0997 0.9065 0.09878 0.0
H635 H 0.1021 0.91308 0.17873 0.0
H636 H 0.08975 0.86777 0.52671 0.0
H637 H 0.09159 0.87385 0.60698 0.0
H638 H 0.12333 0.8205 0.62423 0.0
H639 H 0.12084 0.81418 0.54422 0.0
H640 H 0.4039 0.90708 0.28766 0.0
H641 H 0.40066 0.93682 0.24345 0.0
H642 H 0.35778 0.95807 0.33583 0.0
H643 H 0.36129 0.92866 0.38079 0.0
H644 H 0.34853 0.96223 0.23866 0.0
H645 H 0.39853 0.97628 0.34746 0.0
H646 H 0.42923 0.96954 0.38644 0.0
H647 H 0.45994 0.97222 0.26186 0.0
H648 H 0.42935 0.97869 0.22203 0.0
H649 H 0.34334 0.0597 0.16079 0.0
H650 H 0.34452 0.0298 0.2044 0.0
H651 H 0.40186 0.01825 0.15336 0.0
H652 H 0.40134 0.04899 0.11355 0.0
H653 H 0.4033 0.00848 0.23138 0.0
H654 H 0.35556 0.99342 0.12029 0.0
H655 H 0.32563 0.99771 0.0765 0.0
H656 H 0.29172 0.99423 0.1965 0.0
H657 H 0.32147 0.99015 0.24107 0.0
C658 C 0.39371 0.91803 0.29847 0.0
C659 C 0.38291 0.91547 0.33792 0.0
C660 C 0.3919 0.93506 0.27318 0.0
C661 C 0.37898 0.94974 0.28628 0.0
C662 C 0.3678 0.94698 0.32496 0.0
C663 C 0.3699 0.93016 0.35075 0.0
C664 C 0.37755 0.96821 0.26048 0.0
C665 C 0.36041 0.97248 0.23732 0.0
C666 C 0.3932 0.98134 0.25771 0.0
C667 C 0.41163 0.97777 0.28172 0.0
C668 C 0.4118 0.97528 0.32833 0.0
C669 C 0.42919 0.97153 0.35059 0.0
C670 C 0.44652 0.97039 0.32663 0.0
C671 C 0.4465 0.97307 0.28037 0.0
C672 C 0.42915 0.9768 0.25794 0.0
C673 C 0.35624 0.05084 0.15922 0.0
C674 C 0.37234 0.05692 0.13414 0.0
C675 C 0.35683 0.03349 0.18372 0.0
C676 C 0.3732 0.02128 0.18212 0.0
C677 C 0.38905 0.02722 0.15588 0.0
C678 C 0.3887 0.04483 0.13268 0.0
C679 C 0.37423 0.00268 0.20842 0.0
C680 C 0.39133 0.99834 0.2321 0.0
C681 C 0.35865 0.98925 0.21074 0.0
C682 C 0.34075 0.99168 0.18404 0.0
C683 C 0.34172 0.99369 0.13736 0.0
C684 C 0.32479 0.99607 0.1124 0.0
C685 C 0.30679 0.9963 0.13372 0.0
C686 C 0.30568 0.99409 0.18004 0.0
C687 C 0.32257 0.99172 0.20516 0.0
H688 H 0.29371 0.99814 0.11433 0.0
H689 H 0.45996 0.96747 0.34391 0.0
H690 H 0.90902 0.59634 0.73636 0.0
H691 H 0.93883 0.5982 0.78031 0.0
H692 H 0.95827 0.64616 0.69985 0.0
H693 H 0.92901 0.64357 0.65424 0.0
H694 H 0.98755 0.62505 0.71434 0.0
H695 H 0.93858 0.65011 0.81404 0.0
H696 H 0.90753 0.64889 0.85478 0.0
H697 H 0.92602 0.59755 0.92307 0.0
H698 H 0.9571 0.59835 0.88242 0.0
H699 H 0.05993 0.65775 0.87275 0.0
H700 H 0.02959 0.65667 0.82971 0.0
H701 H 0.01934 0.59852 0.8756 0.0
H702 H 0.04999 0.59913 0.9165 0.0
H703 H 0.9857 0.62537 0.87997 0.0
H704 H 0.03434 0.60047 0.78138 0.0
H705 H 0.06512 0.60074 0.73977 0.0
H706 H 0.04687 0.65135 0.66833 0.0
H707 H 0.01619 0.65175 0.71058 0.0
C708 C 0.91961 0.60735 0.72818 0.0
C709 C 0.91654 0.61989 0.69191 0.0
C710 C 0.93667 0.60849 0.75358 0.0
C711 C 0.95083 0.62264 0.7444 0.0
C712 C 0.94772 0.63512 0.708 0.0
C713 C 0.93089 0.63368 0.68194 0.0
C714 C 0.96892 0.62433 0.77216 0.0
C715 C 0.98701 0.62547 0.75053 0.0
C716 C 0.96856 0.62441 0.81962 0.0
C717 C 0.95012 0.62423 0.84502 0.0
C718 C 0.936 0.63854 0.8377 0.0
C719 C 0.9184 0.63792 0.86075 0.0
C720 C 0.9148 0.62314 0.89143 0.0
C721 C 0.92883 0.60899 0.89929 0.0
C722 C 0.94646 0.60954 0.87633 0.0
C723 C 0.05129 0.6447 0.87336 0.0
C724 C 0.0576 0.62842 0.89749 0.0
C725 C 0.03389 0.64413 0.84895 0.0
C726 C 0.02218 0.62747 0.84926 0.0
C727 C 0.02808 0.61152 0.8748 0.0
C728 C 0.04567 0.6119 0.89814 0.0
C729 C 0.00407 0.62634 0.82198 0.0
C730 C 0.98609 0.6252 0.84374 0.0
C731 C 0.00451 0.62632 0.77471 0.0
C732 C 0.02308 0.62632 0.7497 0.0
C733 C 0.03701 0.61186 0.75736 0.0
C734 C 0.05443 0.61186 0.73359 0.0
C735 C 0.058 0.6261 0.70157 0.0
C736 C 0.04414 0.64039 0.69332 0.0
C737 C 0.02674 0.64053 0.71723 0.0
H738 H 0.07145 0.62598 0.68304 0.0
H739 H 0.90117 0.62265 0.90918 0.0
H740 H 0.66005 0.94327 0.15118 0.0
H741 H 0.6598 0.97358 0.19434 0.0
H742 H 0.59959 0.98179 0.1618 0.0
H743 H 0.59965 0.95147 0.11968 0.0
H744 H 0.62133 0.01537 0.15076 0.0
H745 H 0.61239 0.96558 0.26322 0.0
H746 H 0.62132 0.9366 0.30653 0.0
H747 H 0.67429 0.96392 0.34719 0.0
H748 H 0.66577 0.99299 0.30371 0.0
H749 H 0.59464 0.0911 0.29844 0.0
H750 H 0.59745 0.06139 0.25453 0.0
H751 H 0.65106 0.04788 0.32175 0.0
H752 H 0.64731 0.07678 0.36817 0.0
H753 H 0.63462 0.01684 0.31338 0.0
H754 H 0.64525 0.0664 0.20447 0.0
H755 H 0.63826 0.09587 0.16092 0.0
H756 H 0.58614 0.06997 0.11069 0.0
H757 H 0.59263 0.04048 0.15444 0.0
C758 C 0.64675 0.95151 0.15339 0.0
C759 C 0.62984 0.94485 0.13219 0.0
C760 C 0.64662 0.96885 0.17811 0.0
C761 C 0.62962 0.98 0.18167 0.0
C762 C 0.61288 0.97352 0.15967 0.0
C763 C 0.61294 0.95613 0.13557 0.0
C764 C 0.62909 0.9984 0.20815 0.0
C765 C 0.62411 0.0157 0.18641 0.0
C766 C 0.6333 0.99903 0.25441 0.0
C767 C 0.63853 0.98139 0.27982 0.0
C768 C 0.62604 0.96533 0.28099 0.0
C769 C 0.63101 0.9489 0.30567 0.0
C770 C 0.64839 0.94842 0.32952 0.0
C771 C 0.66085 0.96432 0.32866 0.0
C772 C 0.65595 0.98077 0.30404 0.0
C773 C 0.60705 0.08179 0.30368 0.0
C774 C 0.62078 0.08633 0.33671 0.0
C775 C 0.60878 0.06481 0.27818 0.0
C776 C 0.62476 0.05232 0.28358 0.0
C777 C 0.63855 0.05704 0.31652 0.0
C778 C 0.63646 0.07367 0.34305 0.0
C779 C 0.62684 0.03411 0.25614 0.0
C780 C 0.63205 0.01675 0.27765 0.0
C781 C 0.62328 0.03352 0.20938 0.0
C782 C 0.61936 0.05127 0.18303 0.0
C783 C 0.63223 0.06704 0.18436 0.0
C784 C 0.62837 0.08374 0.15961 0.0
C785 C 0.61176 0.08478 0.13309 0.0
C786 C 0.59899 0.06914 0.13126 0.0
C787 C 0.60276 0.05242 0.156 0.0
H788 H 0.60878 0.09769 0.11389 0.0
H789 H 0.65219 0.93578 0.34887 0.0
H790 H 0.95334 0.40626 0.91389 0.0
H791 H 0.98307 0.40636 0.86999 0.0
H792 H 0.97323 0.34682 0.83313 0.0
H793 H 0.94387 0.34638 0.87956 0.0
H794 H 0.00979 0.35103 0.84339 0.0
H795 H 0.96363 0.38637 0.76078 0.0
H796 H 0.93822 0.41067 0.74694 0.0
H797 H 0.97857 0.45631 0.77522 0.0
H798 H 0.00416 0.43227 0.79006 0.0
H799 H 0.07189 0.3623 0.64644 0.0
H800 H 0.04244 0.35959 0.69196 0.0
H801 H 0.06419 0.40333 0.78137 0.0
H802 H 0.09399 0.40572 0.73681 0.0
H803 H 0.02107 0.40588 0.73979 0.0
H804 H 0.06681 0.36628 0.82539 0.0
H805 H 0.09057 0.33977 0.83092 0.0
H806 H 0.04796 0.29937 0.78392 0.0
H807 H 0.02403 0.32573 0.77746 0.0
C808 C 0.95753 0.39311 0.89669 0.0
C809 C 0.94601 0.37639 0.89973 0.0
C810 C 0.97453 0.39323 0.87114 0.0
C811 C 0.9803 0.37678 0.84684 0.0
C812 C 0.96913 0.35981 0.85102 0.0
C813 C 0.95223 0.35959 0.87737 0.0
C814 C 0.99786 0.37751 0.8171 0.0
C815 C 0.01205 0.36296 0.82049 0.0
C816 C 1.00104 0.39292 0.78656 0.0
C817 C 0.98579 0.40749 0.77694 0.0
C818 C 0.96707 0.40159 0.76432 0.0
C819 C 0.95262 0.41531 0.75628 0.0
C820 C 0.95677 0.43502 0.76029 0.0
C821 C 0.97538 0.44103 0.77218 0.0
C822 C 0.98987 0.42736 0.78039 0.0
C823 C 0.07046 0.37131 0.67588 0.0
C824 C 0.08536 0.38422 0.68794 0.0
C825 C 0.0536 0.36973 0.70186 0.0
C826 C 0.05106 0.38129 0.74002 0.0
C827 C 0.06582 0.39429 0.75203 0.0
C828 C 0.08289 0.39557 0.72662 0.0
C829 C 0.03299 0.37978 0.76731 0.0
C830 C 0.01869 0.39407 0.76297 0.0
C831 C 0.02944 0.36386 0.79584 0.0
C832 C 0.04371 0.348 0.8005 0.0
C833 C 0.06256 0.35178 0.81586 0.0
C834 C 0.07605 0.33677 0.81924 0.0
C835 C 0.07079 0.31791 0.80765 0.0
C836 C 0.05202 0.31399 0.79282 0.0
C837 C 0.03848 0.32896 0.78934 0.0
H838 H 0.08126 0.30631 0.81026 0.0
H839 H 0.94556 0.44562 0.7541 0.0
H840 H 0.34563 0.44481 0.12733 0.0
H841 H 0.34664 0.47517 0.0846 0.0
H842 H 0.40709 0.48178 0.11693 0.0
H843 H 0.40624 0.45143 0.15877 0.0
H844 H 0.38697 0.51611 0.12721 0.0
H845 H 0.39424 0.46634 0.01465 0.0
H846 H 0.38529 0.43761 0.97031 0.0
H847 H 0.33198 0.46485 0.93203 0.0
H848 H 0.34051 0.49368 0.97648 0.0
H849 H 0.4126 0.59088 0.97563 0.0
H850 H 0.41036 0.56112 0.01943 0.0
H851 H 0.3547 0.54891 0.96026 0.0
H852 H 0.35774 0.57787 0.9138 0.0
H853 H 0.37152 0.51746 0.96557 0.0
H854 H 0.36353 0.56743 0.07669 0.0
H855 H 0.37285 0.59721 0.11691 0.0
H856 H 0.42613 0.57057 0.15753 0.0
H857 H 0.41716 0.54071 0.11755 0.0
C858 C 0.35913 0.45273 0.12526 0.0
C859 C 0.37587 0.4456 0.14632 0.0
C860 C 0.35971 0.47009 0.10076 0.0
C861 C 0.37699 0.48081 0.09721 0.0
C862 C 0.39357 0.47388 0.11909 0.0
C863 C 0.39306 0.45646 0.14301 0.0
C864 C 0.37797 0.49914 0.07057 0.0
C865 C 0.38368 0.51639 0.09179 0.0
C866 C 0.37334 0.49973 0.02452 0.0
C867 C 0.36792 0.48209 0.99927 0.0
C868 C 0.38049 0.46611 0.99725 0.0
C869 C 0.37552 0.44983 0.97197 0.0
C870 C 0.35806 0.44942 0.94841 0.0
C871 C 0.34548 0.46521 0.95031 0.0
C872 C 0.35038 0.48151 0.9755 0.0
C873 C 0.39986 0.58185 0.97213 0.0
C874 C 0.3853 0.58677 0.9414 0.0
C875 C 0.39848 0.56486 0.99759 0.0
C876 C 0.38208 0.55278 0.99449 0.0
C877 C 0.36752 0.55782 0.96371 0.0
C878 C 0.36921 0.57446 0.93716 0.0
C879 C 0.3803 0.53467 0.02214 0.0
C880 C 0.37454 0.51737 1.00111 0.0
C881 C 0.38463 0.53412 0.06852 0.0
C882 C 0.3897 0.55186 0.09395 0.0
C883 C 0.37722 0.56793 0.09426 0.0
C884 C 0.38244 0.58483 0.11705 0.0
C885 C 0.40005 0.58578 0.13988 0.0
C886 C 0.41243 0.5698 0.14015 0.0
C887 C 0.40728 0.55287 0.11749 0.0
H888 H 0.40412 0.59888 0.15734 0.0
H889 H 0.35428 0.43696 0.9284 0.0
H890 H 0.60043 0.61036 0.0215 0.0
H891 H 0.57047 0.61342 0.97813 0.0
H892 H 0.53964 0.63012 0.09734 0.0
H893 H 0.56932 0.62686 0.14081 0.0
H894 H 0.5182 0.60565 0.05198 0.0
H895 H 0.55284 0.66363 0.01627 0.0
H896 H 0.58094 0.68265 0.99073 0.0
H897 H 0.57837 0.65478 0.86261 0.0
H898 H 0.55037 0.63542 0.88759 0.0
H899 H 0.44786 0.65964 0.8885 0.0
H900 H 0.47795 0.65884 0.93247 0.0
H901 H 0.47935 0.59669 0.92104 0.0
H902 H 0.44942 0.59741 0.87761 0.0
H903 H 0.5147 0.64605 0.91538 0.0
H904 H 0.49678 0.57738 0.01862 0.0
H905 H 0.46806 0.56018 0.04732 0.0
H906 H 0.43566 0.61311 0.04671 0.0
H907 H 0.4643 0.63077 0.01893 0.0
C908 C 0.58729 0.61472 0.03852 0.0
C909 C 0.58744 0.6184 0.08481 0.0
C910 C 0.57012 0.61654 1.01358 0.0
C911 C 0.55265 0.62218 0.03419 0.0
C912 C 0.55279 0.62572 0.08042 0.0
C913 C 0.5699 0.62392 0.1053 0.0
C914 C 0.53422 0.62436 1.00792 0.0
C915 C 0.51751 0.61445 0.02207 0.0
C916 C 0.53298 0.63615 0.96927 0.0
C917 C 0.54962 0.64797 0.95392 0.0
C918 C 0.55833 0.66149 0.98273 0.0
C919 C 0.57423 0.67234 0.96834 0.0
C920 C 0.58146 0.6699 0.9251 0.0
C921 C 0.57276 0.65665 0.8961 0.0
C922 C 0.55686 0.64575 0.91033 0.0
C923 C 0.45465 0.64583 0.89526 0.0
C924 C 0.44618 0.6286 0.87958 0.0
C925 C 0.47188 0.64538 0.92032 0.0
C926 C 0.48093 0.62768 0.93063 0.0
C927 C 0.47262 0.61052 0.91422 0.0
C928 C 0.4555 0.61097 0.88912 0.0
C929 C 0.49886 0.62698 0.9589 0.0
C930 C 0.51544 0.63719 0.94521 0.0
C931 C 0.49988 0.61571 0.99842 0.0
C932 C 0.48267 0.60536 0.01624 0.0
C933 C 0.48358 0.58539 0.02488 0.0
C934 C 0.46731 0.57557 0.04099 0.0
C935 C 0.45006 0.58557 0.04874 0.0
C936 C 0.44905 0.60543 0.04063 0.0
C937 C 0.46529 0.61534 0.02467 0.0
H938 H 0.43748 0.57793 0.06108 0.0
H939 H 0.59379 0.6783 0.91404 0.0
H940 H 0.60265 0.54806 0.15872 0.0
H941 H 0.60336 0.51719 0.11852 0.0
H942 H 0.66231 0.5281 0.07867 0.0
H943 H 0.66194 0.55877 0.12048 0.0
H944 H 0.63513 0.51637 1.00659 0.0
H945 H 0.65697 0.49602 0.15199 0.0
H946 H 0.65511 0.49299 0.23393 0.0
H947 H 0.60065 0.46347 0.2223 0.0
H948 H 0.60205 0.46657 0.14028 0.0
H949 H 0.64804 0.42476 0.90281 0.0
H950 H 0.65227 0.45412 0.94745 0.0
H951 H 0.60349 0.4378 0.02934 0.0
H952 H 0.59999 0.40792 0.98633 0.0
H953 H 0.62753 0.45277 0.08101 0.0
H954 H 0.60271 0.47428 0.94048 0.0
H955 H 0.60138 0.47813 0.85866 0.0
H956 H 0.65673 0.50642 0.86019 0.0
H957 H 0.65851 0.5025 0.942 0.0
C958 C 0.61585 0.54385 0.14174 0.0
C959 C 0.63221 0.556 0.14261 0.0
C960 C 0.61622 0.52617 0.11873 0.0
C961 C 0.63287 0.52027 0.09544 0.0
C962 C 0.64927 0.53234 0.09626 0.0
C963 C 0.64903 0.54989 0.12012 0.0
C964 C 0.63287 0.50172 0.06964 0.0
C965 C 0.6338 0.50241 0.02283 0.0
C966 C 0.63042 0.48354 0.09066 0.0
C967 C 0.62952 0.48173 0.13999 0.0
C968 C 0.6445 0.48907 0.16692 0.0
C969 C 0.64354 0.4873 0.21338 0.0
C970 C 0.62773 0.47813 0.23332 0.0
C971 C 0.61285 0.47065 0.20682 0.0
C972 C 0.61374 0.47238 0.16034 0.0
C973 C 0.63826 0.42741 0.93045 0.0
C974 C 0.62361 0.414 0.94081 0.0
C975 C 0.64059 0.44435 0.95586 0.0
C976 C 0.62793 0.44867 0.99145 0.0
C977 C 0.6135 0.43503 1.00221 0.0
C978 C 0.61147 0.41789 0.97748 0.0
C979 C 0.62962 0.46727 0.01745 0.0
C980 C 0.62895 0.46664 0.06444 0.0
C981 C 0.63182 0.48559 0.99649 0.0
C982 C 0.63084 0.48789 0.9473 0.0
C983 C 0.61467 0.48118 0.92332 0.0
C984 C 0.61382 0.4834 0.87696 0.0
C985 C 0.62899 0.49246 0.85422 0.0
C986 C 0.64501 0.49937 0.87783 0.0
C987 C 0.64594 0.49716 0.9242 0.0
H988 H 0.6283 0.49417 0.81833 0.0
H989 H 0.62704 0.47672 0.26929 0.0
H990 H 0.43639 0.37591 0.14532 0.0
H991 H 0.4658 0.3731 0.10051 0.0
H992 H 0.43286 0.38445 0.98109 0.0
H993 H 0.4034 0.38772 0.02593 0.0
H994 H 0.47769 0.34986 0.03654 0.0
H995 H 0.46055 0.40796 0.90567 0.0
H996 H 0.44027 0.43719 0.89852 0.0
H997 H 0.44508 0.44749 0.03954 0.0
H998 H 0.46559 0.41848 0.04741 0.0
H999 H 0.55206 0.3451 0.86986 0.0
H1000 H 0.52132 0.34534 0.91076 0.0
H1001 H 0.53249 0.40403 0.95308 0.0
H1002 H 0.56238 0.40418 0.90935 0.0
H1003 H 0.49772 0.40302 0.93563 0.0
H1004 H 0.5365 0.35752 0.02433 0.0
H1005 H 0.55543 0.32768 0.03759 0.0
H1006 H 0.50847 0.29323 0.98831 0.0
H1007 H 0.48918 0.3227 0.97506 0.0
C1008 C 0.43532 0.37779 0.1095 0.0
C1009 C 0.41743 0.3822 0.08942 0.0
C1010 C 0.45222 0.37611 0.08381 0.0
C1011 C 0.45175 0.37878 0.03729 0.0
C1012 C 0.4338 0.38268 0.01695 0.0
C1013 C 0.41688 0.3845 0.0427 0.0
C1014 C 0.47012 0.37784 1.01055 0.0
C1015 C 0.48208 0.3615 1.01448 0.0
C1016 C 0.47602 0.39299 0.98177 0.0
C1017 C 0.46447 0.41097 0.97713 0.0
C1018 C 0.4574 0.41656 0.93507 0.0
C1019 C 0.44583 0.43305 0.93092 0.0
C1020 C 0.44133 0.44415 0.96857 0.0
C1021 C 0.44853 0.43885 1.01042 0.0
C1022 C 0.46013 0.42239 0.01474 0.0
C1023 C 0.5479 0.35802 0.88798 0.0
C1024 C 0.5596 0.37464 0.88625 0.0
C1025 C 0.53036 0.35812 0.91188 0.0
C1026 C 0.52445 0.3746 0.93616 0.0
C1027 C 0.53642 0.3911 0.93473 0.0
C1028 C 0.55361 0.39118 0.90977 0.0
C1029 C 0.50569 0.37507 0.96198 0.0
C1030 C 0.4935 0.39134 0.95772 0.0
C1031 C 0.4997 0.35991 0.99091 0.0
C1032 C 0.5115 0.34231 0.99829 0.0
C1033 C 0.53028 0.34358 0.01605 0.0
C1034 C 0.54105 0.32677 0.02362 0.0
C1035 C 0.53323 0.30866 1.01349 0.0
C1036 C 0.51454 0.30728 0.99602 0.0
C1037 C 0.50366 0.32401 0.98862 0.0
H1038 H 0.54162 0.29569 0.01936 0.0
H1039 H 0.43229 0.45685 0.96533 0.0
H1040 H 0.87423 0.43844 0.89684 0.0
H1041 H 0.8711 0.46776 0.85214 0.0
H1042 H 0.89246 0.43716 0.73664 0.0
H1043 H 0.89541 0.40756 0.78116 0.0
H1044 H 0.8961 0.48994 0.80919 0.0
H1045 H 0.87163 0.4554 0.64301 0.0
H1046 H 0.85435 0.42624 0.61701 0.0
H1047 H 0.82336 0.42346 0.74122 0.0
H1048 H 0.8403 0.4527 0.76775 0.0
H1049 H 0.90568 0.55692 0.63179 0.0
H1050 H 0.90637 0.52742 0.67659 0.0
H1051 H 0.84404 0.52785 0.68391 0.0
H1052 H 0.84328 0.55761 0.63879 0.0
H1053 H 0.85856 0.49088 0.66796 0.0
H1054 H 0.86959 0.54253 0.77117 0.0
H1055 H 0.88545 0.57193 0.80031 0.0
H1056 H 0.93959 0.54172 0.80825 0.0
H1057 H 0.9242 0.51224 0.77826 0.0
C1058 C 0.87825 0.43784 0.8619 0.0
C1059 C 0.88498 0.42047 0.84271 0.0
C1060 C 0.87651 0.45474 0.83633 0.0
C1061 C 0.88135 0.4548 0.79074 0.0
C1062 C 0.88831 0.43753 0.77152 0.0
C1063 C 0.89005 0.42057 0.79712 0.0
C1064 C 0.87902 0.47291 0.76359 0.0
C1065 C 0.88792 0.49008 0.77827 0.0
C1066 C 0.86803 0.47339 0.72359 0.0
C1067 C 0.85736 0.45614 0.70745 0.0
C1068 C 0.86105 0.44862 0.66465 0.0
C1069 C 0.85134 0.43206 0.64985 0.0
C1070 C 0.8378 0.42297 0.67749 0.0
C1071 C 0.83389 0.43047 0.7199 0.0
C1072 C 0.84355 0.44703 0.73485 0.0
C1073 C 0.89207 0.55072 0.64268 0.0
C1074 C 0.87441 0.55967 0.63168 0.0
C1075 C 0.89251 0.53385 0.66852 0.0
C1076 C 0.87528 0.52539 0.68409 0.0
C1077 C 0.85754 0.53405 0.67236 0.0
C1078 C 0.85711 0.55108 0.64665 0.0
C1079 C 0.87599 0.50775 0.71311 0.0
C1080 C 0.86677 0.4907 0.69883 0.0
C1081 C 0.88646 0.50746 0.75385 0.0
C1082 C 0.89575 0.52518 0.77211 0.0
C1083 C 0.88491 0.54218 0.77877 0.0
C1084 C 0.8938 0.55886 0.7955 0.0
C1085 C 0.91348 0.55868 0.80615 0.0
C1086 C 0.92433 0.54183 0.8 0.0
C1087 C 0.91553 0.52513 0.78314 0.0
H1088 H 0.92031 0.57158 0.81929 0.0
H1089 H 0.83034 0.41014 0.66601 0.0
H1090 H 0.55459 0.09687 0.40074 0.0
H1091 H 0.5243 0.09635 0.35882 0.0
H1092 H 0.52665 0.15844 0.34565 0.0
H1093 H 0.55734 0.15894 0.38714 0.0
H1094 H 0.48999 0.10931 0.37169 0.0
H1095 H 0.5052 0.17236 0.24837 0.0
H1096 H 0.53276 0.1873 0.20877 0.0
H1097 H 0.5648 0.13429 0.21924 0.0
H1098 H 0.53747 0.11905 0.25869 0.0
H1099 H 0.40137 0.12574 0.2571 0.0
H1100 H 0.431 0.1296 0.30112 0.0
H1101 H 0.46526 0.11617 0.18448 0.0
H1102 H 0.43576 0.11366 0.14 0.0
H1103 H 0.48363 0.14137 0.22441 0.0
H1104 H 0.45481 0.08262 0.27773 0.0
H1105 H 0.42872 0.06229 0.3088 0.0
H1106 H 0.42709 0.09764 0.42678 0.0
H1107 H 0.45306 0.11828 0.3962 0.0
C1108 C 0.54866 0.11045 0.38904 0.0
C1109 C 0.55843 0.12795 0.39731 0.0
C1110 C 0.53125 0.11014 0.36508 0.0
C1111 C 0.52306 0.12732 0.34857 0.0
C1112 C 0.53269 0.14491 0.35731 0.0
C1113 C 0.55021 0.14522 0.38127 0.0
C1114 C 0.50456 0.12662 0.32222 0.0
C1115 C 0.48862 0.11641 0.33956 0.0
C1116 C 0.50268 0.13543 0.2797 0.0
C1117 C 0.51936 0.14466 0.25694 0.0
C1118 C 0.51815 0.16393 0.24231 0.0
C1119 C 0.53374 0.17245 0.21991 0.0
C1120 C 0.55055 0.16178 0.21167 0.0
C1121 C 0.55185 0.14259 0.22592 0.0
C1122 C 0.53633 0.13402 0.2484 0.0
C1123 C 0.41525 0.12364 0.2409 0.0
C1124 C 0.41617 0.11933 0.19503 0.0
C1125 C 0.43226 0.12573 0.26621 0.0
C1126 C 0.45063 0.12282 0.2467 0.0
C1127 C 0.45145 0.11859 0.20073 0.0
C1128 C 0.4345 0.11705 0.17521 0.0
C1129 C 0.46897 0.12402 0.2738 0.0
C1130 C 0.48489 0.13438 0.25669 0.0
C1131 C 0.47111 0.11465 0.3157 0.0
C1132 C 0.45574 0.10209 0.33451 0.0
C1133 C 0.44883 0.08609 0.31022 0.0
C1134 C 0.43407 0.07451 0.32774 0.0
C1135 C 0.42622 0.0787 0.36968 0.0
C1136 C 0.43318 0.09443 0.39428 0.0
C1137 C 0.44793 0.10605 0.3769 0.0
H1138 H 0.41477 0.06975 0.38316 0.0
H1139 H 0.56251 0.16836 0.19397 0.0
H1140 H 0.11695 0.56604 0.89314 0.0
H1141 H 0.12003 0.53721 0.84661 0.0
H1142 H 0.12935 0.57315 0.73079 0.0
H1143 H 0.1251 0.60209 0.77704 0.0
H1144 H 0.1089 0.54599 0.70504 0.0
H1145 H 0.16712 0.54583 0.78935 0.0
H1146 H 0.18776 0.54702 0.85648 0.0
H1147 H 0.16134 0.49495 0.90539 0.0
H1148 H 0.14035 0.49359 0.83883 0.0
H1149 H 0.15943 0.44734 0.6362 0.0
H1150 H 0.16006 0.47827 0.67669 0.0
H1151 H 0.09767 0.48029 0.67301 0.0
H1152 H 0.09706 0.44984 0.63172 0.0
H1153 H 0.14827 0.48985 0.75341 0.0
H1154 H 0.08054 0.52579 0.67141 0.0
H1155 H 0.06448 0.52723 0.59793 0.0
H1156 H 0.11772 0.51151 0.53333 0.0
H1157 H 0.13417 0.51025 0.60632 0.0
C1158 C 0.11973 0.56782 0.85776 0.0
C1159 C 0.1209 0.58643 0.83895 0.0
C1160 C 0.12165 0.55124 0.83109 0.0
C1161 C 0.12542 0.55275 0.78499 0.0
C1162 C 0.12651 0.57139 0.76614 0.0
C1163 C 0.12413 0.588 0.79268 0.0
C1164 C 0.1277 0.53495 0.75641 0.0
C1165 C 0.11755 0.53378 0.71576 0.0
C1166 C 0.13941 0.519 0.76922 0.0
C1167 C 0.15205 0.51971 0.80926 0.0
C1168 C 0.16562 0.53471 0.81456 0.0
C1169 C 0.17739 0.5354 0.85249 0.0
C1170 C 0.17583 0.52109 0.88523 0.0
C1171 C 0.16252 0.50603 0.88003 0.0
C1172 C 0.1507 0.50529 0.84218 0.0
C1173 C 0.1459 0.45448 0.64375 0.0
C1174 C 0.12823 0.44619 0.63031 0.0
C1175 C 0.14622 0.47216 0.66709 0.0
C1176 C 0.12891 0.48196 0.67752 0.0
C1177 C 0.11127 0.47345 0.6646 0.0
C1178 C 0.11096 0.45591 0.64109 0.0
C1179 C 0.12911 0.50078 0.70271 0.0
C1180 C 0.13968 0.50212 0.74271 0.0
C1181 C 0.11838 0.51716 0.68848 0.0
C1182 C 0.10853 0.51771 0.64444 0.0
C1183 C 0.08883 0.52267 0.64153 0.0
C1184 C 0.07965 0.52345 0.59996 0.0
C1185 C 0.09004 0.51937 0.56101 0.0
C1186 C 0.10965 0.51456 0.56355 0.0
C1187 C 0.11891 0.51377 0.60502 0.0
H1188 H 0.08292 0.52003 0.52886 0.0
H1189 H 0.18495 0.52165 0.91457 0.0
H1190 H 0.60206 0.88203 0.25112 0.0
H1191 H 0.57283 0.87808 0.29651 0.0
H1192 H 0.53798 0.8781 0.177 0.0
H1193 H 0.56714 0.88138 0.13159 0.0
H1194 H 0.54313 0.89864 0.31235 0.0
H1195 H 0.49665 0.85297 0.18934 0.0
H1196 H 0.50133 0.82813 0.13109 0.0
H1197 H 0.55501 0.8111 0.19167 0.0
H1198 H 0.55052 0.83564 0.25061 0.0
H1199 H 0.4459 0.90444 0.38062 0.0
H1200 H 0.47596 0.90444 0.33789 0.0
H1201 H 0.48088 0.84272 0.35581 0.0
H1202 H 0.45007 0.8426 0.39702 0.0
H1203 H 0.49229 0.85038 0.27664 0.0
H1204 H 0.50896 0.87761 0.41786 0.0
H1205 H 0.5061 0.8997 0.48227 0.0
H1206 H 0.51553 0.94847 0.39628 0.0
H1207 H 0.51823 0.92668 0.33125 0.0
C1208 C 0.58819 0.88112 0.23447 0.0
C1209 C 0.58706 0.88194 0.18756 0.0
C1210 C 0.57141 0.87888 0.26054 0.0
C1211 C 0.55302 0.87747 0.24046 0.0
C1212 C 0.55189 0.8786 0.1936 0.0
C1213 C 0.56866 0.8806 0.16754 0.0
C1214 C 0.53504 0.87533 0.26839 0.0
C1215 C 0.53208 0.88804 0.30445 0.0
C1216 C 0.52061 0.86125 0.25917 0.0
C1217 C 0.52332 0.84629 0.22414 0.0
C1218 C 0.50941 0.84387 0.19033 0.0
C1219 C 0.51204 0.82985 0.15718 0.0
C1220 C 0.52849 0.81809 0.1576 0.0
C1221 C 0.54231 0.82027 0.19128 0.0
C1222 C 0.53974 0.83425 0.22455 0.0
C1223 C 0.45338 0.89084 0.37558 0.0
C1224 C 0.44569 0.87354 0.39274 0.0
C1225 C 0.47071 0.89087 0.35125 0.0
C1226 C 0.48118 0.87367 0.34433 0.0
C1227 C 0.47328 0.85626 0.36074 0.0
C1228 C 0.45569 0.85618 0.38451 0.0
C1229 C 0.50024 0.87396 0.31997 0.0
C1230 C 0.50339 0.86093 0.28458 0.0
C1231 C 0.51511 0.88737 0.3306 0.0
C1232 C 0.51366 0.90052 0.36966 0.0
C1233 C 0.51032 0.89305 0.41266 0.0
C1234 C 0.50874 0.90552 0.44928 0.0
C1235 C 0.5106 0.92548 0.44335 0.0
C1236 C 0.51409 0.93301 0.40081 0.0
C1237 C 0.51567 0.92061 0.36407 0.0
H1238 H 0.50936 0.93511 0.47174 0.0
H1239 H 0.5305 0.80726 0.13188 0.0
H1240 H 0.90809 0.95004 0.64931 0.0
H1241 H 0.90873 0.98037 0.60745 0.0
H1242 H 0.84666 0.97794 0.5929 0.0
H1243 H 0.84596 0.94766 0.63577 0.0
H1244 H 0.89992 0.98941 0.52539 0.0
H1245 H 0.82847 0.0241 0.5852 0.0
H1246 H 0.80707 0.02396 0.65125 0.0
H1247 H 0.85531 0.00941 0.73511 0.0
H1248 H 0.87702 0.00971 0.66968 0.0
H1249 H 0.8765 0.06887 0.38554 0.0
H1250 H 0.87421 0.0395 0.43044 0.0
H1251 H 0.88856 0.0721 0.54867 0.0
H1252 H 0.89081 0.10172 0.50385 0.0
H1253 H 0.85971 0.04621 0.56605 0.0
H1254 H 0.92241 0.04433 0.49763 0.0
H1255 H 0.94567 0.04546 0.43516 0.0
H1256 H 0.91852 0.9959 0.37548 0.0
H1257 H 0.8949 0.99465 0.43729 0.0
C1258 C 0.89454 0.956 0.63743 0.0
C1259 C 0.87697 0.9464 0.64603 0.0
C1260 C 0.89494 0.97335 0.61322 0.0
C1261 C 0.87776 0.98171 0.59703 0.0
C1262 C 0.86014 0.97208 0.60544 0.0
C1263 C 0.85974 0.95468 0.62983 0.0
C1264 C 0.87848 1.00034 0.5712 0.0
C1265 C 0.89104 1.00176 0.53432 0.0
C1266 C 0.86717 0.01673 0.58281 0.0
C1267 C 0.85431 0.01673 0.62247 0.0
C1268 C 0.83451 0.02094 0.61777 0.0
C1269 C 0.82233 0.02082 0.65509 0.0
C1270 C 0.82981 0.01661 0.69732 0.0
C1271 C 0.84952 0.01259 0.70236 0.0
C1272 C 0.86176 0.01271 0.66516 0.0
C1273 C 0.87911 0.06991 0.42112 0.0
C1274 C 0.88393 0.08779 0.44087 0.0
C1275 C 0.87785 0.053 0.44682 0.0
C1276 C 0.88139 0.05341 0.49305 0.0
C1277 C 0.88576 0.07131 0.51312 0.0
C1278 C 0.88711 0.08827 0.48735 0.0
C1279 C 0.88095 0.03512 0.52004 0.0
C1280 C 0.86847 0.03378 0.55705 0.0
C1281 C 0.89253 0.01887 0.50895 0.0
C1282 C 0.90677 0.01951 0.47187 0.0
C1283 C 0.92131 0.03376 0.47101 0.0
C1284 C 0.93457 0.03441 0.43575 0.0
C1285 C 0.93354 0.02079 0.40132 0.0
C1286 C 0.91928 0.00646 0.40214 0.0
C1287 C 0.90596 0.00576 0.4373 0.0
H1288 H 0.94383 0.02131 0.37405 0.0
H1289 H 0.82036 0.01651 0.72616 0.0
H1290 H 0.06946 0.13021 0.64463 0.0
H1291 H 0.04001 0.13335 0.60026 0.0
H1292 H 0.07156 0.11704 0.48181 0.0
H1293 H 0.10129 0.11395 0.52609 0.0
H1294 H 0.04642 0.14672 0.4643 0.0
H1295 H 0.04315 0.08447 0.53486 0.0
H1296 H 0.0439 0.06171 0.59818 0.0
H1297 H 0.99544 0.09076 0.65803 0.0
H1298 H 0.99458 0.11389 0.59535 0.0
H1299 H 0.95007 0.09898 0.38282 0.0
H1300 H 0.9804 0.09865 0.42453 0.0
H1301 H 0.97762 0.16067 0.43868 0.0
H1302 H 0.94713 0.16107 0.39621 0.0
H1303 H 0.98882 0.10813 0.50732 0.0
H1304 H 0.02482 0.17833 0.44465 0.0
H1305 H 0.02499 0.19925 0.37792 0.0
H1306 H 0.00924 0.1508 0.29577 0.0
H1307 H 0.00923 0.12955 0.36189 0.0
C1308 C 0.07025 0.12734 0.60911 0.0
C1309 C 0.08785 0.1217 0.58913 0.0
C1310 C 0.0533 0.12911 0.58373 0.0
C1311 C 0.0534 0.12524 0.53763 0.0
C1312 C 0.07103 0.12009 0.51729 0.0
C1313 C 0.08804 0.11825 0.54274 0.0
C1314 C 0.035 0.12605 0.51114 0.0
C1315 C 0.03382 0.13832 0.47382 0.0
C1316 C 0.0185 0.11497 0.52302 0.0
C1317 C 0.01892 0.10103 0.56063 0.0
C1318 C 0.03275 0.0861 0.56169 0.0
C1319 C 0.03318 0.07311 0.59744 0.0
C1320 C 0.01976 0.07482 0.63216 0.0
C1321 C 0.00584 0.08948 0.63115 0.0
C1322 C 0.00537 0.10252 0.5955 0.0
C1323 C 0.95592 0.1126 0.39458 0.0
C1324 C 0.94618 0.13007 0.38596 0.0
C1325 C 0.97329 0.11237 0.41869 0.0
C1326 C 0.98152 0.12962 0.43474 0.0
C1327 C 0.97178 0.14716 0.42628 0.0
C1328 C 0.9543 0.14738 0.40211 0.0
C1329 C 1.00011 0.12895 0.46062 0.0
C1330 C 1.00134 0.11667 0.49793 0.0
C1331 C 0.01669 0.13984 0.44835 0.0
C1332 C 0.0168 0.15242 0.4083 0.0
C1333 C 0.02144 0.17214 0.41232 0.0
C1334 C 0.02151 0.18405 0.37461 0.0
C1335 C 0.01706 0.17637 0.33266 0.0
C1336 C 0.0126 0.15675 0.32831 0.0
C1337 C 0.01254 0.14477 0.3659 0.0
H1338 H 0.0171 0.18562 0.30351 0.0
H1339 H 0.02011 0.06475 0.65981 0.0
H1340 H 0.11475 0.9025 0.5055 0.0
H1341 H 0.11763 0.93211 0.55041 0.0
H1342 H 0.12964 0.9649 0.43123 0.0
H1343 H 0.12694 0.93552 0.3863 0.0
H1344 H 0.14799 0.95884 0.56246 0.0
H1345 H 0.10573 0.00868 0.44144 0.0
H1346 H 0.07958 0.00623 0.38561 0.0
H1347 H 0.05718 0.95593 0.45198 0.0
H1348 H 0.08301 0.95829 0.50852 0.0
H1349 H 0.1607 0.05819 0.62988 0.0
H1350 H 0.15982 0.02764 0.58769 0.0
H1351 H 0.09843 0.02317 0.6122 0.0
H1352 H 0.0992 0.0537 0.65301 0.0
H1353 H 0.10455 0.01419 0.53005 0.0
H1354 H 0.13364 0.99506 0.66909 0.0
H1355 H 0.15778 0.99622 0.72969 0.0
H1356 H 0.20302 0.98307 0.63602 0.0
H1357 H 0.17916 0.98207 0.57475 0.0
C1358 C 0.1181 0.91598 0.48883 0.0
C1359 C 0.1206 0.91652 0.44212 0.0
C1360 C 0.11982 0.93292 0.51463 0.0
C1361 C 0.1238 0.95083 0.49431 0.0
C1362 C 0.12645 0.95134 0.44779 0.0
C1363 C 0.12492 0.93445 0.42209 0.0
C1364 C 0.12466 0.96911 0.52123 0.0
C1365 C 0.13852 0.97096 0.55531 0.0
C1366 C 0.11216 0.98491 0.51252 0.0
C1367 C 0.09644 0.98354 0.47892 0.0
C1368 C 0.09518 0.99715 0.44419 0.0
C1369 C 0.08042 0.99577 0.41242 0.0
C1370 C 0.06676 0.9809 0.41516 0.0
C1371 C 0.0678 0.96741 0.44979 0.0
C1372 C 0.08251 0.96875 0.48167 0.0
C1373 C 0.14706 0.05064 0.6263 0.0
C1374 C 0.13004 0.05841 0.64492 0.0
C1375 C 0.14655 0.03309 0.60231 0.0
C1376 C 0.12905 0.02284 0.59682 0.0
C1377 C 0.11212 0.03067 0.6156 0.0
C1378 C 0.11261 0.04816 0.63924 0.0
C1379 C 0.12807 0.00414 0.57119 0.0
C1380 C 0.11415 0.00217 0.53717 0.0
C1381 C 0.1403 0.98815 0.58052 0.0
C1382 C 0.15464 0.98868 0.6173 0.0
C1383 C 0.14875 0.99256 0.66138 0.0
C1384 C 0.16238 0.99316 0.69585 0.0
C1385 C 0.18193 0.98978 0.68669 0.0
C1386 C 0.18788 0.98572 0.64306 0.0
C1387 C 0.17431 0.98512 0.60846 0.0
H1388 H 0.19246 0.99025 0.71343 0.0
H1389 H 0.05536 0.97985 0.39051 0.0
H1390 H 0.05292 0.90421 0.37521 0.0
H1391 H 0.02297 0.90453 0.41833 0.0
H1392 H 0.0292 0.84349 0.44431 0.0
H1393 H 0.05909 0.84301 0.39956 0.0
H1394 H 0.99231 0.85111 0.42986 0.0
H1395 H 0.0399 0.87771 0.52512 0.0
H1396 H 0.06708 0.89872 0.5474 0.0
H1397 H 0.03165 0.949 0.52766 0.0
H1398 H 0.00428 0.9283 0.50467 0.0
H1399 H 0.92875 0.86012 0.62708 0.0
H1400 H 0.95862 0.85661 0.58333 0.0
H1401 H 0.94093 0.9036 0.49835 0.0
H1402 H 0.91074 0.90687 0.54106 0.0
H1403 H 0.98416 0.90124 0.54721 0.0
H1404 H 0.93729 0.87104 0.44436 0.0
H1405 H 0.91123 0.84762 0.42838 0.0
H1406 H 0.9476 0.80109 0.47279 0.0
H1407 H 0.9738 0.82431 0.48948 0.0
C1408 C 0.04791 0.8908 0.38987 0.0
C1409 C 0.05853 0.87361 0.3842 0.0
C1410 C 0.03078 0.89102 0.41488 0.0
C1411 C 0.02388 0.87413 0.4356 0.0
C1412 C 0.03419 0.85677 0.429 0.0
C1413 C 0.05133 0.85652 0.40354 0.0
C1414 C 0.00605 0.87485 0.46427 0.0
C1415 C 0.9907 0.86197 0.45577 0.0
C1416 C 0.00374 0.88888 0.49855 0.0
C1417 C 0.02006 0.90144 0.51286 0.0
C1418 C 0.03792 0.89325 0.52527 0.0
C1419 C 0.05336 0.9051 0.53805 0.0
C1420 C 0.05108 0.92517 0.53891 0.0
C1421 C 0.03336 0.93344 0.52701 0.0
C1422 C 0.01787 0.92165 0.51415 0.0
C1423 C 0.93114 0.86967 0.59896 0.0
C1424 C 0.91727 0.88377 0.58761 0.0
C1425 C 0.94825 0.86763 0.57399 0.0
C1426 C 0.95205 0.87986 0.53762 0.0
C1427 C 0.93831 0.894 0.52629 0.0
C1428 C 0.92101 0.89579 0.55064 0.0
C1429 C 0.97042 0.87795 0.51166 0.0
C1430 C 0.98588 0.89048 0.52112 0.0
C1431 C 0.97301 0.86334 0.47908 0.0
C1432 C 0.95738 0.8494 0.46863 0.0
C1433 C 0.93965 0.85583 0.45109 0.0
C1434 C 0.92488 0.8426 0.4418 0.0
C1435 C 0.92773 0.82289 0.44971 0.0
C1436 C 0.9454 0.81637 0.46675 0.0
C1437 C 0.96021 0.82955 0.47607 0.0
H1438 H 0.91628 0.81266 0.44253 0.0
H1439 H 0.06303 0.9343 0.54898 0.0
H1440 H 0.32756 0.17466 0.15685 0.0
H1441 H 0.33195 0.20956 0.16315 0.0
H1442 H 0.38919 0.20451 0.107 0.0
H1443 H 0.38509 0.16913 0.10168 0.0
H1444 H 0.36213 0.23029 0.21177 0.0
H1445 H 0.39188 0.24801 0.03889 0.0
H1446 H 0.39243 0.23453 0.9625 0.0
H1447 H 0.33736 0.20742 0.98521 0.0
H1448 H 0.33638 0.22097 0.06143 0.0
H1449 H 0.38597 0.33362 0.18905 0.0
H1450 H 0.38964 0.29818 0.1838 0.0
H1451 H 0.33266 0.29386 0.12617 0.0
H1452 H 0.32865 0.32881 0.1326 0.0
H1453 H 0.36427 0.27279 0.07843 0.0
H1454 H 0.33465 0.28229 0.22523 0.0
H1455 H 0.33389 0.29584 0.30146 0.0
H1456 H 0.38812 0.26835 0.33102 0.0
H1457 H 0.38933 0.25486 0.25467 0.0
C1458 C 0.34112 0.18089 0.14572 0.0
C1459 C 0.356 0.16905 0.12878 0.0
C1460 C 0.34363 0.20089 0.14963 0.0
C1461 C 0.36092 0.20969 0.13586 0.0
C1462 C 0.37574 0.19803 0.118 0.0
C1463 C 0.37336 0.17785 0.11483 0.0
C1464 C 0.36302 0.2311 0.13986 0.0
C1465 C 0.36285 0.23956 0.18259 0.0
C1466 C 0.36397 0.24327 0.10194 0.0
C1467 C 0.3642 0.23529 0.05601 0.0
C1468 C 0.37988 0.2392 0.0275 0.0
C1469 C 0.38026 0.23156 0.98425 0.0
C1470 C 0.36498 0.22006 0.96908 0.0
C1471 C 0.34923 0.21625 0.99707 0.0
C1472 C 0.34878 0.22389 0.04032 0.0
C1473 C 0.3742 0.32505 0.17563 0.0
C1474 C 0.35701 0.33406 0.16138 0.0
C1475 C 0.37634 0.30484 0.17246 0.0
C1476 C 0.36147 0.29338 0.15418 0.0
C1477 C 0.34437 0.30239 0.14002 0.0
C1478 C 0.34207 0.32241 0.14404 0.0
C1479 C 0.36329 0.27195 0.15032 0.0
C1480 C 0.36408 0.2635 0.10762 0.0
C1481 C 0.363 0.25978 0.18826 0.0
C1482 C 0.3622 0.26779 0.23413 0.0
C1483 C 0.3465 0.2793 0.24785 0.0
C1484 C 0.34597 0.28693 0.2911 0.0
C1485 C 0.36098 0.28301 0.32102 0.0
C1486 C 0.37653 0.2714 0.30778 0.0
C1487 C 0.37714 0.26376 0.26454 0.0
H1488 H 0.36055 0.28893 0.35449 0.0
H1489 H 0.36531 0.21413 0.93561 0.0
H1490 H 0.33491 0.61552 0.87573 0.0
H1491 H 0.2997 0.61261 0.88525 0.0
H1492 H 0.29461 0.6748 0.88574 0.0
H1493 H 0.32964 0.67773 0.87697 0.0
H1494 H 0.27423 0.66043 0.95209 0.0
H1495 H 0.28052 0.64584 0.79517 0.0
H1496 H 0.29286 0.62802 0.72967 0.0
H1497 H 0.26878 0.57527 0.78109 0.0
H1498 H 0.25653 0.59275 0.84724 0.0
H1499 H 0.17513 0.67716 0.91633 0.0
H1500 H 0.21021 0.67427 0.91182 0.0
H1501 H 0.20536 0.61209 0.91537 0.0
H1502 H 0.16986 0.61495 0.91876 0.0
H1503 H 0.2309 0.62286 0.85246 0.0
H1504 H 0.22228 0.63825 1.00674 0.0
H1505 H 0.209 0.65663 0.0704 0.0
H1506 H 0.23715 0.70812 0.02346 0.0
H1507 H 0.25041 0.69011 0.95917 0.0
C1508 C 0.32623 0.62855 0.87732 0.0
C1509 C 0.33511 0.64687 0.87562 0.0
C1510 C 0.30607 0.62689 0.88276 0.0
C1511 C 0.29433 0.64349 0.88621 0.0
C1512 C 0.30323 0.66174 0.88349 0.0
C1513 C 0.32331 0.6634 0.87822 0.0
C1514 C 0.27291 0.64211 0.89392 0.0
C1515 C 0.26478 0.65233 0.93 0.0
C1516 C 0.26047 0.63107 0.86615 0.0
C1517 C 0.26781 0.62056 0.82641 0.0
C1518 C 0.278 0.63041 0.7927 0.0
C1519 C 0.28495 0.62038 0.75542 0.0
C1520 C 0.28166 0.60052 0.75129 0.0
C1521 C 0.27136 0.59065 0.78438 0.0
C1522 C 0.2644 0.60061 0.82176 0.0
C1523 C 0.18148 0.66283 0.91664 0.0
C1524 C 0.16964 0.64629 0.91806 0.0
C1525 C 0.20163 0.66119 0.9142 0.0
C1526 C 0.21063 0.64296 0.91377 0.0
C1527 C 0.19885 0.62634 0.91575 0.0
C1528 C 0.17856 0.62798 0.91804 0.0
C1529 C 0.23223 0.64151 0.91003 0.0
C1530 C 0.24039 0.63077 0.87482 0.0
C1531 C 0.24474 0.65208 0.9386 0.0
C1532 C 0.23725 0.66284 0.97796 0.0
C1533 C 0.22559 0.65351 1.0099 0.0
C1534 C 0.21806 0.66386 0.0461 0.0
C1535 C 0.22219 0.68354 0.05091 0.0
C1536 C 0.23396 0.69288 0.01967 0.0
C1537 C 0.24152 0.68259 0.98339 0.0
H1538 H 0.21629 0.69155 0.07887 0.0
H1539 H 0.28705 0.59278 0.7224 0.0
H1540 H 0.67752 0.82723 0.11059 0.0
H1541 H 0.6741 0.79222 0.11575 0.0
H1542 H 0.61193 0.79807 0.11578 0.0
H1543 H 0.61534 0.83345 0.11139 0.0
H1544 H 0.62303 0.7727 0.17883 0.0
H1545 H 0.636 0.78016 0.02395 0.0
H1546 H 0.65297 0.79221 0.95708 0.0
H1547 H 0.70504 0.76356 0.99878 0.0
H1548 H 0.68847 0.75157 0.06629 0.0
H1549 H 0.61589 0.66803 0.156 0.0
H1550 H 0.61238 0.70322 0.14691 0.0
H1551 H 0.67451 0.70941 0.14755 0.0
H1552 H 0.67805 0.67451 0.15633 0.0
H1553 H 0.65902 0.72841 0.07828 0.0
H1554 H 0.64602 0.7234 0.2367 0.0
H1555 H 0.62855 0.71152 0.3031 0.0
H1556 H 0.57551 0.73536 0.25262 0.0
H1557 H 0.59263 0.74715 0.18559 0.0
C1558 C 0.66309 0.8211 0.11117 0.0
C1559 C 0.64671 0.83317 0.11042 0.0
C1560 C 0.66114 0.801 0.11402 0.0
C1561 C 0.64275 0.79233 0.11574 0.0
C1562 C 0.62629 0.80434 0.11443 0.0
C1563 C 0.62825 0.82456 0.11158 0.0
C1564 C 0.64099 0.77081 0.12014 0.0
C1565 C 0.63059 0.76301 0.1563 0.0
C1566 C 0.651 0.75803 0.09116 0.0
C1567 C 0.66101 0.76507 0.05038 0.0
C1568 C 0.6511 0.77653 0.01903 0.0
C1569 C 0.66065 0.78334 0.98098 0.0
C1570 C 0.68008 0.77869 0.97373 0.0
C1571 C 0.68999 0.76717 1.00446 0.0
C1572 C 0.68052 0.76033 0.0426 0.0
C1573 C 0.62877 0.67696 0.15491 0.0
C1574 C 0.64726 0.66844 0.15676 0.0
C1575 C 0.62675 0.69709 0.14966 0.0
C1576 C 0.64319 0.70907 0.14635 0.0
C1577 C 0.66159 0.70056 0.14963 0.0
C1578 C 0.6636 0.68055 0.15489 0.0
C1579 C 0.64154 0.73034 0.13769 0.0
C1580 C 0.65128 0.73809 0.10055 0.0
C1581 C 0.63083 0.743 0.16558 0.0
C1582 C 0.62055 0.73595 0.20589 0.0
C1583 C 0.63059 0.72596 0.23957 0.0
C1584 C 0.62076 0.71927 0.27736 0.0
C1585 C 0.60092 0.72263 0.28201 0.0
C1586 C 0.59087 0.73273 0.24893 0.0
C1587 C 0.60063 0.73943 0.21105 0.0
H1588 H 0.59333 0.71744 0.31129 0.0
H1589 H 0.68745 0.78399 0.94426 0.0
H1590 H 0.82789 0.33179 0.93059 0.0
H1591 H 0.79293 0.33481 0.92089 0.0
H1592 H 0.79971 0.3952 0.88835 0.0
H1593 H 0.83487 0.39233 0.89955 0.0
H1594 H 0.76692 0.3903 0.93454 0.0
H1595 H 0.79396 0.36121 0.8055 0.0
H1596 H 0.81407 0.33846 0.7622 0.0
H1597 H 0.78081 0.29071 0.81237 0.0
H1598 H 0.76068 0.31315 0.85656 0.0
H1599 H 0.66809 0.38517 0.849 0.0
H1600 H 0.70355 0.38993 0.84714 0.0
H1601 H 0.71157 0.33363 0.90615 0.0
H1602 H 0.67661 0.32906 0.90884 0.0
H1603 H 0.73722 0.34119 0.83481 0.0
H1604 H 0.71277 0.3722 0.97048 0.0
H1605 H 0.69223 0.39611 1.00922 0.0
H1606 H 0.72053 0.44221 0.93872 0.0
H1607 H 0.74104 0.41851 0.89904 0.0
C1608 C 0.82192 0.3458 0.92204 0.0
C1609 C 0.83417 0.36177 0.91552 0.0
C1610 C 0.80191 0.3475 0.91615 0.0
C1611 C 0.7936 0.36511 0.9026 0.0
C1612 C 0.8057 0.3814 0.89842 0.0
C1613 C 0.82581 0.37976 0.9049 0.0
C1614 C 0.7725 0.36603 0.89111 0.0
C1615 C 0.76052 0.37977 0.91209 0.0
C1616 C 0.76396 0.35246 0.86149 0.0
C1617 C 0.77588 0.33887 0.83458 0.0
C1618 C 0.791 0.34585 0.80751 0.0
C1619 C 0.8024 0.33301 0.78279 0.0
C1620 C 0.79874 0.31315 0.78459 0.0
C1621 C 0.78363 0.3061 0.81103 0.0
C1622 C 0.7722 0.31888 0.83588 0.0
C1623 C 0.6775 0.37374 0.86082 0.0
C1624 C 0.66961 0.35673 0.87901 0.0
C1625 C 0.69772 0.3765 0.86003 0.0
C1626 C 0.71026 0.36215 0.87673 0.0
C1627 C 0.70228 0.3449 0.89304 0.0
C1628 C 0.68225 0.34232 0.89459 0.0
C1629 C 0.73166 0.36496 0.87938 0.0
C1630 C 0.74372 0.35191 0.85665 0.0
C1631 C 0.74023 0.37936 0.90669 0.0
C1632 C 0.72828 0.39358 0.93144 0.0
C1633 C 0.71452 0.38743 0.96304 0.0
C1634 C 0.7029 0.40093 0.98518 0.0
C1635 C 0.70502 0.42066 0.97632 0.0
C1636 C 0.71887 0.42692 0.94548 0.0
C1637 C 0.7305 0.41346 0.92317 0.0
H1638 H 0.69598 0.4311 0.99342 0.0
H1639 H 0.80759 0.30323 0.76544 0.0
H1640 H 0.82687 0.67696 0.63244 0.0
H1641 H 0.83119 0.71195 0.63815 0.0
H1642 H 0.89294 0.70488 0.62436 0.0
H1643 H 0.88864 0.6697 0.61816 0.0
H1644 H 0.84933 0.73403 0.69801 0.0
H1645 H 0.91116 0.7459 0.57233 0.0
H1646 H 0.925 0.73071 0.50483 0.0
H1647 H 0.86952 0.70642 0.47253 0.0
H1648 H 0.85531 0.72169 0.53946 0.0
H1649 H 0.87458 0.83613 0.7022 0.0
H1650 H 0.87837 0.8006 0.70495 0.0
H1651 H 0.85073 0.79583 0.57628 0.0
H1652 H 0.84698 0.83071 0.57345 0.0
H1653 H 0.88141 0.77247 0.57943 0.0
H1654 H 0.82598 0.78735 0.67335 0.0
H1655 H 0.80969 0.80279 0.73749 0.0
H1656 H 0.84829 0.77383 0.82773 0.0
H1657 H 0.86496 0.7584 0.76401 0.0
C1658 C 0.84138 0.68283 0.63032 0.0
C1659 C 0.8574 0.67051 0.62471 0.0
C1660 C 0.84385 0.70288 0.63392 0.0
C1661 C 0.86238 0.7112 0.63177 0.0
C1662 C 0.87845 0.69892 0.6258 0.0
C1663 C 0.87598 0.67879 0.62217 0.0
C1664 C 0.86463 0.7327 0.63531 0.0
C1665 C 0.85652 0.74238 0.67223 0.0
C1666 C 0.87396 0.74378 0.60183 0.0
C1667 C 0.88226 0.73473 0.5612 0.0
C1668 C 0.90192 0.73735 0.55074 0.0
C1669 C 0.90982 0.72873 0.51259 0.0
C1670 C 0.89817 0.71754 0.48451 0.0
C1671 C 0.87855 0.71503 0.49441 0.0
C1672 C 0.87058 0.72364 0.53247 0.0
C1673 C 0.86942 0.82743 0.67457 0.0
C1674 C 0.86039 0.83626 0.63776 0.0
C1675 C 0.87155 0.80714 0.67613 0.0
C1676 C 0.8648 0.79543 0.64076 0.0
C1677 C 0.85617 0.80441 0.60386 0.0
C1678 C 0.85393 0.82445 0.60246 0.0
C1679 C 0.8659 0.7738 0.64183 0.0
C1680 C 0.87462 0.76408 0.60574 0.0
C1681 C 0.85689 0.76271 0.67572 0.0
C1682 C 0.84685 0.77192 0.71395 0.0
C1683 C 0.83108 0.7844 0.70686 0.0
C1684 C 0.82177 0.79313 0.74313 0.0
C1685 C 0.82799 0.78934 0.78665 0.0
C1686 C 0.84351 0.77678 0.794 0.0
C1687 C 0.85289 0.76804 0.75783 0.0
H1688 H 0.82076 0.79611 0.81469 0.0
H1689 H 0.90432 0.71086 0.45503 0.0
H1690 H 0.8349 0.116 0.36576 0.0
H1691 H 0.79964 0.1127 0.37406 0.0
H1692 H 0.79373 0.17478 0.37093 0.0
H1693 H 0.82874 0.17812 0.363 0.0
H1694 H 0.77426 0.15995 0.44016 0.0
H1695 H 0.7799 0.14569 0.28255 0.0
H1696 H 0.79211 0.12779 0.21704 0.0
H1697 H 0.76827 0.07508 0.26921 0.0
H1698 H 0.75614 0.09263 0.33537 0.0
H1699 H 0.67513 0.17709 0.40666 0.0
H1700 H 0.71022 0.17411 0.40122 0.0
H1701 H 0.70522 0.11194 0.40475 0.0
H1702 H 0.66978 0.11489 0.40949 0.0
H1703 H 0.73044 0.12284 0.34076 0.0
H1704 H 0.72261 0.13702 0.49511 0.0
H1705 H 0.71035 0.15442 0.56125 0.0
H1706 H 0.73856 0.20636 0.51723 0.0
H1707 H 0.75077 0.18935 0.45045 0.0
C1708 C 0.82602 0.12891 0.36612 0.0
C1709 C 0.83465 0.14733 0.36385 0.0
C1710 C 0.80585 0.12702 0.37091 0.0
C1711 C 0.79392 0.14351 0.37328 0.0
C1712 C 0.80254 0.16184 0.36955 0.0
C1713 C 0.8226 0.16372 0.36477 0.0
C1714 C 0.7726 0.14197 0.38153 0.0
C1715 C 0.76468 0.15198 0.41812 0.0
C1716 C 0.76008 0.13096 0.35394 0.0
C1717 C 0.76732 0.12043 0.31414 0.0
C1718 C 0.77741 0.13025 0.28024 0.0
C1719 C 0.78429 0.12017 0.24295 0.0
C1720 C 0.78103 0.1003 0.23903 0.0
C1721 C 0.77082 0.09047 0.27233 0.0
C1722 C 0.76393 0.10047 0.30971 0.0
C1723 C 0.68146 0.16276 0.40673 0.0
C1724 C 0.66963 0.14623 0.40866 0.0
C1725 C 0.7016 0.16106 0.40374 0.0
C1726 C 0.71052 0.1428 0.40299 0.0
C1727 C 0.69875 0.12621 0.40532 0.0
C1728 C 0.67849 0.1279 0.40835 0.0
C1729 C 0.73207 0.14128 0.39869 0.0
C1730 C 0.74004 0.13067 0.36303 0.0
C1731 C 0.74471 0.15164 0.42731 0.0
C1732 C 0.73749 0.16193 0.46758 0.0
C1733 C 0.72609 0.15219 0.49936 0.0
C1734 C 0.71916 0.16198 0.537 0.0
C1735 C 0.72364 0.18149 0.5434 0.0
C1736 C 0.7351 0.19125 0.51222 0.0
C1737 C 0.74204 0.18153 0.47449 0.0
H1738 H 0.71826 0.18905 0.57255 0.0
H1739 H 0.78636 0.09252 0.21014 0.0
H1740 H 0.11377 0.3345 0.61581 0.0
H1741 H 0.11089 0.29927 0.62567 0.0
H1742 H 0.17306 0.29405 0.62133 0.0
H1743 H 0.176 0.32898 0.61179 0.0
H1744 H 0.12284 0.26653 0.57828 0.0
H1745 H 0.18782 0.26293 0.70078 0.0
H1746 H 0.204 0.28385 0.75616 0.0
H1747 H 0.15119 0.3155 0.77584 0.0
H1748 H 0.13462 0.29459 0.72114 0.0
H1749 H 0.17809 0.17625 0.66332 0.0
H1750 H 0.17435 0.21126 0.65685 0.0
H1751 H 0.11225 0.20477 0.65719 0.0
H1752 H 0.11596 0.16951 0.66309 0.0
H1753 H 0.15835 0.23863 0.70704 0.0
H1754 H 0.0926 0.2406 0.58983 0.0
H1755 H 0.07619 0.21983 0.53444 0.0
H1756 H 0.13007 0.19164 0.50463 0.0
H1757 H 0.14682 0.2124 0.55938 0.0
C1758 C 0.12678 0.32577 0.6163 0.0
C1759 C 0.14513 0.33457 0.61342 0.0
C1760 C 0.12513 0.30564 0.62197 0.0
C1761 C 0.14177 0.29399 0.62511 0.0
C1762 C 0.16 0.3027 0.61989 0.0
C1763 C 0.16166 0.32272 0.61424 0.0
C1764 C 0.14041 0.2729 0.6358 0.0
C1765 C 0.13032 0.26047 0.60687 0.0
C1766 C 0.15028 0.26486 0.67289 0.0
C1767 C 0.16003 0.27728 0.70654 0.0
C1768 C 0.17963 0.27428 0.71711 0.0
C1769 C 0.18888 0.28615 0.74835 0.0
C1770 C 0.17864 0.30103 0.7694 0.0
C1771 C 0.15912 0.30401 0.7594 0.0
C1772 C 0.1498 0.29216 0.72825 0.0
C1773 C 0.16361 0.18226 0.66241 0.0
C1774 C 0.14733 0.17006 0.66347 0.0
C1775 C 0.16149 0.20233 0.65876 0.0
C1776 C 0.14303 0.21077 0.65584 0.0
C1777 C 0.12667 0.19866 0.6586 0.0
C1778 C 0.1288 0.1785 0.66233 0.0
C1779 C 0.14119 0.23214 0.64892 0.0
C1780 C 0.15068 0.24467 0.67868 0.0
C1781 C 0.13071 0.24022 0.6127 0.0
C1782 C 0.12089 0.2279 0.57909 0.0
C1783 C 0.10094 0.23001 0.57133 0.0
C1784 C 0.09159 0.21823 0.54007 0.0
C1785 C 0.10207 0.20437 0.51616 0.0
C1786 C 0.12195 0.20232 0.5233 0.0
C1787 C 0.13138 0.21408 0.55447 0.0
H1788 H 0.09479 0.19525 0.49204 0.0
H1789 H 0.18583 0.31022 0.79352 0.0
H1790 H 0.33509 0.88738 0.41344 0.0
H1791 H 0.2997 0.89078 0.40908 0.0
H1792 H 0.29382 0.82867 0.40831 0.0
H1793 H 0.3289 0.82524 0.41334 0.0
H1794 H 0.27449 0.87963 0.34546 0.0
H1795 H 0.25297 0.81453 0.45812 0.0
H1796 H 0.26482 0.79798 0.52573 0.0
H1797 H 0.29378 0.84989 0.56746 0.0
H1798 H 0.28188 0.86683 0.50048 0.0
H1799 H 0.17566 0.82576 0.36859 0.0
H1800 H 0.21065 0.82885 0.37704 0.0
H1801 H 0.20528 0.891 0.37803 0.0
H1802 H 0.17001 0.88795 0.36927 0.0
H1803 H 0.22995 0.84414 0.44628 0.0
H1804 H 0.24919 0.91016 0.33847 0.0
H1805 H 0.23744 0.92721 0.27136 0.0
H1806 H 0.21306 0.8743 0.22148 0.0
H1807 H 0.22488 0.8569 0.28795 0.0
C1808 C 0.32619 0.87448 0.41304 0.0
C1809 C 0.3348 0.85604 0.41391 0.0
C1810 C 0.30597 0.87643 0.41022 0.0
C1811 C 0.29398 0.85999 0.40868 0.0
C1812 C 0.30263 0.84161 0.41017 0.0
C1813 C 0.32275 0.83966 0.41295 0.0
C1814 C 0.27248 0.86179 0.40424 0.0
C1815 C 0.26474 0.87217 0.36804 0.0
C1816 C 0.25965 0.8519 0.43326 0.0
C1817 C 0.26665 0.8419 0.47403 0.0
C1818 C 0.26178 0.82244 0.48183 0.0
C1819 C 0.26853 0.81299 0.52003 0.0
C1820 C 0.28009 0.82286 0.5508 0.0
C1821 C 0.28488 0.84224 0.54352 0.0
C1822 C 0.27816 0.85177 0.50541 0.0
C1823 C 0.18191 0.84011 0.37004 0.0
C1824 C 0.17002 0.85661 0.36839 0.0
C1825 C 0.20195 0.84186 0.3751 0.0
C1826 C 0.21071 0.86014 0.37838 0.0
C1827 C 0.19895 0.87672 0.37528 0.0
C1828 C 0.17878 0.87497 0.37022 0.0
C1829 C 0.232 0.86153 0.38684 0.0
C1830 C 0.23969 0.85177 0.42396 0.0
C1831 C 0.24472 0.87208 0.35882 0.0
C1832 C 0.23771 0.88231 0.31846 0.0
C1833 C 0.24135 0.90217 0.31312 0.0
C1834 C 0.23469 0.91189 0.27519 0.0
C1835 C 0.22444 0.90186 0.24227 0.0
C1836 C 0.22091 0.88207 0.2471 0.0
C1837 C 0.22757 0.87228 0.28493 0.0
H1838 H 0.21928 0.90941 0.21295 0.0
H1839 H 0.28531 0.81551 0.58033 0.0
H1840 H 0.17973 0.12974 0.8006 0.0
H1841 H 0.20538 0.12829 0.85583 0.0
H1842 H 0.23516 0.08546 0.77656 0.0
H1843 H 0.20939 0.08732 0.71987 0.0
H1844 H 0.21655 0.10348 0.90967 0.0
H1845 H 0.28487 0.08577 0.80316 0.0
H1846 H 0.29849 0.09241 0.72848 0.0
H1847 H 0.26225 0.14257 0.71647 0.0
H1848 H 0.2487 0.13647 0.79133 0.0
H1849 H 0.2953 0.0846 0.06261 0.0
H1850 H 0.2697 0.08276 1.00555 0.0
H1851 H 0.29608 0.13035 0.93498 0.0
H1852 H 0.32179 0.13158 0.99018 0.0
H1853 H 0.28665 0.10741 0.87635 0.0
H1854 H 0.25152 0.13206 1.00207 0.0
H1855 H 0.23744 0.13329 0.07775 0.0
H1856 H 0.20644 0.08061 0.05225 0.0
H1857 H 0.22061 0.07884 0.97682 0.0
C1858 C 0.19172 0.11999 0.79455 0.0
C1859 C 0.1923 0.10858 0.75552 0.0
C1860 C 0.20648 0.11913 0.82655 0.0
C1861 C 0.22245 0.10674 0.8211 0.0
C1862 C 0.22325 0.09539 0.78181 0.0
C1863 C 0.20845 0.09642 0.74926 0.0
C1864 C 0.23777 0.10572 0.85717 0.0
C1865 C 0.23189 0.10426 0.90216 0.0
C1866 C 0.25791 0.10701 0.84824 0.0
C1867 C 0.26552 0.11044 0.80257 0.0
C1868 C 0.27977 0.09818 0.78452 0.0
C1869 C 0.28751 0.10188 0.74221 0.0
C1870 C 0.28116 0.11784 0.7177 0.0
C1871 C 0.26707 0.13015 0.73541 0.0
C1872 C 0.25933 0.12656 0.77775 0.0
C1873 C 0.29549 0.09475 0.03511 0.0
C1874 C 0.31072 0.10821 0.0312 0.0
C1875 C 0.28078 0.09375 1.00233 0.0
C1876 C 0.28066 0.10646 0.96533 0.0
C1877 C 0.29568 0.12014 0.96238 0.0
C1878 C 0.31044 0.12092 0.99443 0.0
C1879 C 0.26543 0.10554 0.929 0.0
C1880 C 0.27132 0.10647 0.8839 0.0
C1881 C 0.24525 0.10456 0.93793 0.0
C1882 C 0.23738 0.10516 0.98402 0.0
C1883 C 0.24193 0.12058 1.01285 0.0
C1884 C 0.23387 0.1214 0.05569 0.0
C1885 C 0.2211 0.10699 0.06991 0.0
C1886 C 0.21638 0.09171 0.04134 0.0
C1887 C 0.22445 0.09078 0.99856 0.0
H1888 H 0.2148 0.10769 0.10298 0.0
H1889 H 0.28723 0.12076 0.68511 0.0
H1890 H 0.11353 0.71255 0.96261 0.0
H1891 H 0.11343 0.73845 0.01933 0.0
H1892 H 0.09593 0.69733 0.11958 0.0
H1893 H 0.09641 0.67153 0.06374 0.0
H1894 H 0.07545 0.73248 0.1262 0.0
H1895 H 0.14067 0.70997 0.11837 0.0
H1896 H 0.17154 0.70143 0.08194 0.0
H1897 H 0.17846 0.76016 0.03822 0.0
H1898 H 0.14745 0.76899 0.07383 0.0
H1899 H 0.09571 0.79131 0.32015 0.0
H1900 H 0.0947 0.76452 0.2659 0.0
H1901 H 0.11953 0.80165 0.16549 0.0
H1902 H 0.12076 0.82808 0.21893 0.0
H1903 H 0.13633 0.7675 0.16039 0.0
H1904 H 0.07029 0.78965 0.16735 0.0
H1905 H 0.0394 0.79771 0.20429 0.0
H1906 H 0.03415 0.73918 0.25061 0.0
H1907 H 0.06517 0.73084 0.21441 0.0
C1908 C 0.10943 0.70909 0.9966 0.0
C1909 C 0.10498 0.6899 1.00841 0.0
C1910 C 0.10949 0.7239 0.02915 0.0
C1911 C 0.10474 0.71992 0.07407 0.0
C1912 C 0.09962 0.70089 0.0854 0.0
C1913 C 0.09995 0.6861 0.05325 0.0
C1914 C 0.10564 0.73532 0.10964 0.0
C1915 C 0.08882 0.74 0.13391 0.0
C1916 C 0.12299 0.74533 0.11988 0.0
C1917 C 0.14161 0.74009 0.09828 0.0
C1918 C 0.14867 0.72102 0.10058 0.0
C1919 C 0.16621 0.71614 0.08017 0.0
C1920 C 0.17692 0.73023 0.05765 0.0
C1921 C 0.17012 0.74925 0.05559 0.0
C1922 C 0.15256 0.7542 0.0759 0.0
C1923 C 0.10096 0.79376 0.28655 0.0
C1924 C 0.10826 0.81204 0.27429 0.0
C1925 C 0.10031 0.77841 0.25534 0.0
C1926 C 0.10691 0.78093 0.21104 0.0
C1927 C 0.11438 0.79911 0.19916 0.0
C1928 C 0.11498 0.81436 0.23006 0.0
C1929 C 0.10604 0.76494 0.17668 0.0
C1930 C 0.12292 0.76005 0.15268 0.0
C1931 C 0.08875 0.75471 0.16678 0.0
C1932 C 0.07013 0.75967 0.18857 0.0
C1933 C 0.06262 0.77854 0.18571 0.0
C1934 C 0.04508 0.78315 0.20645 0.0
C1935 C 0.03485 0.76897 0.22988 0.0
C1936 C 0.04211 0.75015 0.23251 0.0
C1937 C 0.05966 0.74546 0.21187 0.0
H1938 H 0.02126 0.77257 0.24591 0.0
H1939 H 0.19051 0.72642 0.04191 0.0
H1940 H 0.67289 0.9072 0.96491 0.0
H1941 H 0.69878 0.90893 0.90989 0.0
H1942 H 0.7401 0.89158 1.01009 0.0
H1943 H 0.71406 0.89087 0.06632 0.0
H1944 H 0.7575 0.91543 0.95882 0.0
H1945 H 0.71974 0.85966 0.92532 0.0
H1946 H 0.69009 0.84098 0.90968 0.0
H1947 H 0.68016 0.87475 0.7916 0.0
H1948 H 0.7095 0.89388 0.80703 0.0
H1949 H 0.82945 0.88482 0.80735 0.0
H1950 H 0.80341 0.886 0.86142 0.0
H1951 H 0.76554 0.9108 0.76256 0.0
H1952 H 0.79188 0.90934 0.70693 0.0
H1953 H 0.74661 0.88357 0.81236 0.0
H1954 H 0.78555 0.93985 0.85082 0.0
H1955 H 0.81645 0.95618 0.86811 0.0
H1956 H 0.82581 0.91732 0.97776 0.0
H1957 H 0.79511 0.90061 0.96058 0.0
C1958 C 0.6875 0.90386 0.97552 0.0
C1959 C 0.69127 0.89874 0.02022 0.0
C1960 C 0.70239 0.90468 0.94367 0.0
C1961 C 0.72155 0.89976 0.95486 0.0
C1962 C 0.72552 0.8953 0.99999 0.0
C1963 C 0.71059 0.89489 0.03231 0.0
C1964 C 0.73717 0.89908 0.91934 0.0
C1965 C 0.75506 0.90826 0.92708 0.0
C1966 C 0.73432 0.88994 0.8772 0.0
C1967 C 0.71673 0.87833 0.86758 0.0
C1968 C 0.71115 0.86319 0.8962 0.0
C1969 C 0.69438 0.85253 0.8874 0.0
C1970 C 0.68318 0.85673 0.84981 0.0
C1971 C 0.68876 0.87156 0.82085 0.0
C1972 C 0.70548 0.88231 0.82958 0.0
C1973 C 0.81567 0.89064 0.79659 0.0
C1974 C 0.81303 0.89717 0.7523 0.0
C1975 C 0.80068 0.89139 0.82806 0.0
C1976 C 0.78245 0.89893 0.8169 0.0
C1977 C 0.77948 0.90506 0.77244 0.0
C1978 C 0.79458 0.90424 0.74053 0.0
C1979 C 0.7667 0.90008 0.85179 0.0
C1980 C 0.74887 0.89089 0.844 0.0
C1981 C 0.76972 0.90887 0.89412 0.0
C1982 C 0.78801 0.91909 0.90469 0.0
C1983 C 0.79422 0.93481 0.87862 0.0
C1984 C 0.8117 0.94411 0.88834 0.0
C1985 C 0.82306 0.93783 0.92412 0.0
C1986 C 0.81697 0.92223 0.95021 0.0
C1987 C 0.79951 0.91289 0.9406 0.0
H1988 H 0.83661 0.94501 0.93154 0.0
H1989 H 0.67023 0.84842 0.84307 0.0
H1990 H 0.90459 0.29377 0.96057 0.0
H1991 H 0.90619 0.267 1.01459 0.0
H1992 H 0.89045 0.30617 0.12068 0.0
H1993 H 0.88914 0.33273 0.06769 0.0
H1994 H 0.91793 0.28375 0.14984 0.0
H1995 H 0.858 0.27225 0.0709 0.0
H1996 H 0.83768 0.26613 1.00466 0.0
H1997 H 0.87003 0.21455 0.97604 0.0
H1998 H 0.89072 0.2205 0.0418 0.0
H1999 H 0.89464 0.21469 0.32084 0.0
H2000 H 0.89503 0.24103 0.26582 0.0
H2001 H 0.90456 0.19951 0.16035 0.0
H2002 H 0.90321 0.17337 0.21459 0.0
H2003 H 0.88098 0.22296 0.1295 0.0
H2004 H 0.94095 0.23359 0.20654 0.0
H2005 H 0.96226 0.23931 0.2713 0.0
H2006 H 0.93157 0.29173 0.30152 0.0
H2007 H 0.90992 0.2862 0.23725 0.0
C2008 C 0.90148 0.29668 0.99539 0.0
C2009 C 0.89667 0.31556 1.0093 0.0
C2010 C 0.9023 0.28128 0.0264 0.0
C2011 C 0.89825 0.28432 0.07216 0.0
C2012 C 0.89367 0.30321 0.08592 0.0
C2013 C 0.89285 0.3185 0.05517 0.0
C2014 C 0.89877 0.26812 0.10608 0.0
C2015 C 0.90967 0.27053 0.14546 0.0
C2016 C 0.88847 0.25051 0.1005 0.0
C2017 C 0.87605 0.24695 0.06097 0.0
C2018 C 0.86088 0.25969 0.05027 0.0
C2019 C 0.84928 0.25624 1.01285 0.0
C2020 C 0.8526 0.24 0.98608 0.0
C2021 C 0.8675 0.22715 0.99675 0.0
C2022 C 0.87916 0.23055 0.0341 0.0
C2023 C 0.89699 0.21122 0.28598 0.0
C2024 C 0.89891 0.1918 0.27247 0.0
C2025 C 0.89731 0.22636 0.25428 0.0
C2026 C 0.90008 0.22257 0.20827 0.0
C2027 C 0.90228 0.20314 0.19517 0.0
C2028 C 0.9016 0.18807 0.22655 0.0
C2029 C 0.90019 0.23851 0.17347 0.0
C2030 C 0.88935 0.23609 0.13392 0.0
C2031 C 0.91073 0.25603 0.17867 0.0
C2032 C 0.92369 0.25937 0.21737 0.0
C2033 C 0.93866 0.24626 0.22719 0.0
C2034 C 0.95081 0.24949 0.26378 0.0
C2035 C 0.94823 0.26585 0.29058 0.0
C2036 C 0.93353 0.27905 0.28078 0.0
C2037 C 0.92132 0.27588 0.24426 0.0
H2038 H 0.95766 0.26832 0.31889 0.0
H2039 H 0.8436 0.23735 0.95713 0.0
H2040 H 0.29043 0.39678 0.2076 0.0
H2041 H 0.26387 0.39766 0.2623 0.0
H2042 H 0.30539 0.40331 0.36909 0.0
H2043 H 0.33168 0.4018 0.31512 0.0
H2044 H 0.28046 0.3795 0.3959 0.0
H2045 H 0.27414 0.44201 0.3276 0.0
H2046 H 0.27009 0.46517 0.26572 0.0
H2047 H 0.21579 0.43888 0.23123 0.0
H2048 H 0.21963 0.4154 0.29259 0.0
H2049 H 0.21164 0.40359 0.56848 0.0
H2050 H 0.23834 0.40508 0.51408 0.0
H2051 H 0.19808 0.39407 0.40709 0.0
H2052 H 0.17161 0.39283 0.46056 0.0
H2053 H 0.22239 0.42107 0.38123 0.0
H2054 H 0.22922 0.35859 0.45044 0.0
H2055 H 0.23354 0.33582 0.51299 0.0
H2056 H 0.2875 0.36298 0.54679 0.0
H2057 H 0.28335 0.3861 0.48481 0.0
C2058 C 0.29386 0.39839 0.2427 0.0
C2059 C 0.3133 0.39914 0.25667 0.0
C2060 C 0.27861 0.39896 0.27417 0.0
C2061 C 0.28237 0.40071 0.32043 0.0
C2062 C 0.30182 0.40181 0.33402 0.0
C2063 C 0.31697 0.40098 0.30283 0.0
C2064 C 0.26636 0.40092 0.35499 0.0
C2065 C 0.26794 0.38887 0.39279 0.0
C2066 C 0.24962 0.41274 0.35128 0.0
C2067 C 0.24728 0.42682 0.31439 0.0
C2068 C 0.2614 0.44108 0.30661 0.0
C2069 C 0.25913 0.45428 0.27167 0.0
C2070 C 0.24272 0.45346 0.24448 0.0
C2071 C 0.22851 0.43947 0.25226 0.0
C2072 C 0.23072 0.42623 0.28714 0.0
C2073 C 0.20847 0.40154 0.53337 0.0
C2074 C 0.18933 0.39797 0.51933 0.0
C2075 C 0.22381 0.4023 0.50215 0.0
C2076 C 0.22044 0.3995 0.45605 0.0
C2077 C 0.20128 0.39629 0.44215 0.0
C2078 C 0.18606 0.39548 0.47313 0.0
C2079 C 0.2366 0.39976 0.42204 0.0
C2080 C 0.235 0.41183 0.38434 0.0
C2081 C 0.25339 0.38806 0.42597 0.0
C2082 C 0.25585 0.37422 0.46332 0.0
C2083 C 0.24192 0.35981 0.47146 0.0
C2084 C 0.24435 0.34683 0.50677 0.0
C2085 C 0.26075 0.34799 0.53393 0.0
C2086 C 0.27478 0.36212 0.52578 0.0
C2087 C 0.27239 0.37517 0.49057 0.0
H2088 H 0.26262 0.33791 0.56123 0.0
H2089 H 0.24098 0.4637 0.21745 0.0
H2090 H 0.3685 0.68437 0.74598 0.0
H2091 H 0.36938 0.7104 0.69126 0.0
H2092 H 0.42518 0.72827 0.74111 0.0
H2093 H 0.42357 0.70284 0.79849 0.0
H2094 H 0.40778 0.75882 0.71885 0.0
H2095 H 0.41585 0.69888 0.63379 0.0
H2096 H 0.40623 0.66621 0.60853 0.0
H2097 H 0.35154 0.68844 0.5639 0.0
H2098 H 0.36091 0.72119 0.5883 0.0
H2099 H 0.41453 0.7931 0.46644 0.0
H2100 H 0.41635 0.76714 0.52268 0.0
H2101 H 0.37943 0.80018 0.61029 0.0
H2102 H 0.37788 0.82593 0.55535 0.0
H2103 H 0.39116 0.74366 0.56149 0.0
H2104 H 0.38886 0.79235 0.71825 0.0
H2105 H 0.39824 0.82544 0.74041 0.0
H2106 H 0.44283 0.82568 0.64044 0.0
H2107 H 0.43392 0.7925 0.61813 0.0
C2108 C 0.38093 0.69392 0.74558 0.0
C2109 C 0.39601 0.69138 0.77667 0.0
C2110 C 0.38157 0.70876 0.71361 0.0
C2111 C 0.39772 0.72112 0.71017 0.0
C2112 C 0.41258 0.71896 0.74222 0.0
C2113 C 0.41167 0.70439 0.77524 0.0
C2114 C 0.39895 0.73623 0.67358 0.0
C2115 C 0.40421 0.75536 0.6845 0.0
C2116 C 0.39447 0.73212 0.62812 0.0
C2117 C 0.38907 0.71245 0.61291 0.0
C2118 C 0.4018 0.69677 0.61849 0.0
C2119 C 0.39641 0.67827 0.60419 0.0
C2120 C 0.37834 0.67532 0.58432 0.0
C2121 C 0.36561 0.6908 0.57885 0.0
C2122 C 0.37097 0.70933 0.5927 0.0
C2123 C 0.40681 0.79481 0.49769 0.0
C2124 C 0.39628 0.81187 0.50626 0.0
C2125 C 0.40785 0.77993 0.52998 0.0
C2126 C 0.39841 0.78171 0.57165 0.0
C2127 C 0.38739 0.79847 0.57936 0.0
C2128 C 0.38646 0.81329 0.54749 0.0
C2129 C 0.39975 0.76616 0.60696 0.0
C2130 C 0.39494 0.74701 0.5958 0.0
C2131 C 0.4047 0.77026 0.6521 0.0
C2132 C 0.41063 0.78997 0.66634 0.0
C2133 C 0.40076 0.79941 0.70122 0.0
C2134 C 0.40596 0.8182 0.71374 0.0
C2135 C 0.42107 0.82767 0.69174 0.0
C2136 C 0.43109 0.81834 0.65735 0.0
C2137 C 0.42597 0.79954 0.64476 0.0
H2138 H 0.42507 0.84222 0.70138 0.0
H2139 H 0.37414 0.66108 0.57312 0.0
H2140 H 0.71421 0.61752 0.20774 0.0
H2141 H 0.73984 0.61764 0.26453 0.0
H2142 H 0.70111 0.58967 0.35746 0.0
H2143 H 0.67531 0.59094 0.30203 0.0
H2144 H 0.71815 0.61341 0.40253 0.0
H2145 H 0.74444 0.56782 0.29649 0.0
H2146 H 0.75608 0.55629 0.22322 0.0
H2147 H 0.79884 0.60135 0.22066 0.0
H2148 H 0.78729 0.61332 0.29365 0.0
H2149 H 0.79282 0.59208 0.56537 0.0
H2150 H 0.76683 0.58999 0.50927 0.0
H2151 H 0.80134 0.62359 0.41774 0.0
H2152 H 0.82717 0.6253 0.47248 0.0
H2153 H 0.78648 0.59592 0.37304 0.0
H2154 H 0.75986 0.64104 0.47997 0.0
H2155 H 0.74802 0.65217 0.55337 0.0
H2156 H 0.70561 0.60677 0.55459 0.0
H2157 H 0.71741 0.59515 0.48151 0.0
C2158 C 0.7113 0.61116 0.24011 0.0
C2159 C 0.69269 0.6041 0.25007 0.0
C2160 C 0.72606 0.61113 0.2728 0.0
C2161 C 0.72284 0.60336 0.31591 0.0
C2162 C 0.70429 0.59588 0.32509 0.0
C2163 C 0.68946 0.59646 0.29302 0.0
C2164 C 0.73824 0.60364 0.35214 0.0
C2165 C 0.733 0.6092 0.39592 0.0
C2166 C 0.75795 0.59872 0.34434 0.0
C2167 C 0.76485 0.59158 0.30034 0.0
C2168 C 0.75622 0.57535 0.28016 0.0
C2169 C 0.76282 0.56873 0.23869 0.0
C2170 C 0.77815 0.57812 0.21725 0.0
C2171 C 0.78694 0.59413 0.23727 0.0
C2172 C 0.78038 0.60083 0.27869 0.0
C2173 C 0.79481 0.5991 0.53338 0.0
C2174 C 0.81226 0.60885 0.52389 0.0
C2175 C 0.77986 0.59796 0.50117 0.0
C2176 C 0.78185 0.60674 0.45877 0.0
C2177 C 0.79923 0.61656 0.44969 0.0
C2178 C 0.8141 0.61758 0.48149 0.0
C2179 C 0.76631 0.60558 0.42318 0.0
C2180 C 0.77156 0.59993 0.37955 0.0
C2181 C 0.74659 0.61025 0.43121 0.0
C2182 C 0.73971 0.61706 0.47551 0.0
C2183 C 0.74816 0.63329 0.4961 0.0
C2184 C 0.74143 0.63971 0.53762 0.0
C2185 C 0.72613 0.63013 0.5587 0.0
C2186 C 0.7175 0.61413 0.53829 0.0
C2187 C 0.72422 0.60761 0.49684 0.0
H2188 H 0.7209 0.63517 0.59076 0.0
H2189 H 0.78324 0.57296 0.18519 0.0
H2190 H 0.62737 0.17662 0.55274 0.0
H2191 H 0.62549 0.20228 0.60795 0.0
H2192 H 0.58699 0.23428 0.52226 0.0
H2193 H 0.58895 0.2083 0.46589 0.0
H2194 H 0.61337 0.25811 0.56091 0.0
H2195 H 0.57078 0.20828 0.61679 0.0
H2196 H 0.56285 0.17486 0.63899 0.0
H2197 H 0.60724 0.1765 0.7392 0.0
H2198 H 0.61568 0.20982 0.71711 0.0
H2199 H 0.59024 0.32809 0.72277 0.0
H2200 H 0.58864 0.30203 0.66808 0.0
H2201 H 0.61829 0.26409 0.75966 0.0
H2202 H 0.6186 0.29002 0.81599 0.0
H2203 H 0.59539 0.24286 0.71743 0.0
H2204 H 0.64191 0.28789 0.65922 0.0
H2205 H 0.65498 0.31938 0.6346 0.0
H2206 H 0.60811 0.32537 0.54159 0.0
H2207 H 0.59485 0.29394 0.56546 0.0
C2208 C 0.61834 0.18898 0.54539 0.0
C2209 C 0.60807 0.19008 0.50474 0.0
C2210 C 0.61725 0.20376 0.57738 0.0
C2211 C 0.60569 0.22017 0.57027 0.0
C2212 C 0.59587 0.22172 0.52907 0.0
C2213 C 0.597 0.20683 0.49672 0.0
C2214 C 0.60419 0.23563 0.60575 0.0
C2215 C 0.60908 0.25478 0.59492 0.0
C2216 C 0.59939 0.23138 0.6509 0.0
C2217 C 0.59394 0.21153 0.66507 0.0
C2218 C 0.57891 0.20149 0.64343 0.0
C2219 C 0.57434 0.18255 0.65598 0.0
C2220 C 0.58457 0.17354 0.69039 0.0
C2221 C 0.59935 0.18348 0.71249 0.0
C2222 C 0.60402 0.20241 0.70001 0.0
C2223 C 0.59629 0.31414 0.73151 0.0
C2224 C 0.60463 0.31125 0.77387 0.0
C2225 C 0.59561 0.2992 0.69976 0.0
C2226 C 0.60398 0.281 0.70842 0.0
C2227 C 0.61181 0.27789 0.75141 0.0
C2228 C 0.612 0.29276 0.78382 0.0
C2229 C 0.6046 0.26546 0.67267 0.0
C2230 C 0.59957 0.24626 0.68342 0.0
C2231 C 0.60979 0.2695 0.62765 0.0
C2232 C 0.61741 0.28862 0.61408 0.0
C2233 C 0.63437 0.296 0.63364 0.0
C2234 C 0.64183 0.3138 0.61975 0.0
C2235 C 0.63244 0.32431 0.58635 0.0
C2236 C 0.61542 0.3172 0.56729 0.0
C2237 C 0.60798 0.29935 0.58078 0.0
H2238 H 0.63843 0.33788 0.57502 0.0
H2239 H 0.58102 0.15888 0.7 0.0
H2240 H 0.32171 0.09173 0.44422 0.0
H2241 H 0.32645 0.09385 0.52476 0.0
H2242 H 0.37877 0.12671 0.50412 0.0
H2243 H 0.37462 0.12384 0.42322 0.0
H2244 H 0.38435 0.1003 0.56683 0.0
H2245 H 0.33516 0.14869 0.54043 0.0
H2246 H 0.30397 0.16078 0.51161 0.0
H2247 H 0.27355 0.11866 0.59023 0.0
H2248 H 0.3046 0.10612 0.61891 0.0
H2249 H 0.39716 0.13304 0.78787 0.0
H2250 H 0.39136 0.13122 0.70775 0.0
H2251 H 0.33835 0.09988 0.73148 0.0
H2252 H 0.34352 0.10255 0.81208 0.0
H2253 H 0.33273 0.12487 0.66729 0.0
H2254 H 0.38113 0.07708 0.69591 0.0
H2255 H 0.41194 0.06419 0.72491 0.0
H2256 H 0.44362 0.10368 0.64181 0.0
H2257 H 0.41299 0.11698 0.61273 0.0
C2258 C 0.33435 0.09927 0.45666 0.0
C2259 C 0.34778 0.1076 0.42694 0.0
C2260 C 0.3369 0.10069 0.50291 0.0
C2261 C 0.35282 0.11071 0.52078 0.0
C2262 C 0.36631 0.11899 0.49127 0.0
C2263 C 0.36381 0.11749 0.44493 0.0
C2264 C 0.35558 0.1122 0.57013 0.0
C2265 C 0.37317 0.10597 0.5887 0.0
C2266 C 0.3408 0.11897 0.59905 0.0
C2267 C 0.32217 0.12646 0.58172 0.0
C2268 C 0.32181 0.14195 0.55136 0.0
C2269 C 0.30417 0.14888 0.53505 0.0
C2270 C 0.28679 0.14049 0.54905 0.0
C2271 C 0.28702 0.12515 0.5794 0.0
C2272 C 0.30463 0.11814 0.59572 0.0
C2273 C 0.3841 0.12599 0.77628 0.0
C2274 C 0.37085 0.11792 0.8068 0.0
C2275 C 0.38094 0.12472 0.73021 0.0
C2276 C 0.36461 0.11506 0.71326 0.0
C2277 C 0.35115 0.10728 0.74356 0.0
C2278 C 0.35423 0.10866 0.78975 0.0
C2279 C 0.36161 0.11318 0.66402 0.0
C2280 C 0.34396 0.11926 0.64547 0.0
C2281 C 0.3763 0.10615 0.63512 0.0
C2282 C 0.39476 0.09815 0.65246 0.0
C2283 C 0.39467 0.08311 0.68406 0.0
C2284 C 0.4121 0.07572 0.70048 0.0
C2285 C 0.42972 0.08315 0.6853 0.0
C2286 C 0.42995 0.09795 0.65358 0.0
C2287 C 0.41256 0.10541 0.63708 0.0
H2288 H 0.4432 0.0774 0.69805 0.0
H2289 H 0.27315 0.14588 0.53641 0.0
H2290 H 0.07961 0.63997 0.60471 0.0
H2291 H 0.08108 0.63482 0.52377 0.0
H2292 H 0.13879 0.65852 0.521 0.0
H2293 H 0.13748 0.66356 0.60214 0.0
H2294 H 0.11374 0.67348 0.45328 0.0
H2295 H 0.13451 0.6122 0.51194 0.0
H2296 H 0.13185 0.58314 0.55919 0.0
H2297 H 0.07878 0.56759 0.4938 0.0
H2298 H 0.08096 0.59675 0.44656 0.0
H2299 H 0.13953 0.64533 0.23224 0.0
H2300 H 0.13822 0.65107 0.31279 0.0
H2301 H 0.08537 0.61802 0.32097 0.0
H2302 H 0.0867 0.61211 0.24048 0.0
H2303 H 0.10802 0.60798 0.38673 0.0
H2304 H 0.08618 0.6685 0.32885 0.0
H2305 H 0.08721 0.69797 0.28255 0.0
H2306 H 0.14002 0.71542 0.34655 0.0
H2307 H 0.13945 0.68592 0.39285 0.0
C2308 C 0.09262 0.64409 0.58689 0.0
C2309 C 0.10846 0.65213 0.60994 0.0
C2310 C 0.09346 0.64107 0.54063 0.0
C2311 C 0.11007 0.64623 0.51626 0.0
C2312 C 0.12583 0.65443 0.53908 0.0
C2313 C 0.12512 0.65717 0.58548 0.0
C2314 C 0.11094 0.64306 0.467 0.0
C2315 C 0.11277 0.65914 0.43868 0.0
C2316 C 0.10909 0.62441 0.4479 0.0
C2317 C 0.1078 0.60679 0.47603 0.0
C2318 C 0.12218 0.60269 0.50789 0.0
C2319 C 0.12077 0.58617 0.53462 0.0
C2320 C 0.10512 0.57356 0.5296 0.0
C2321 C 0.09088 0.5774 0.4977 0.0
C2322 C 0.0922 0.59391 0.47091 0.0
C2323 C 0.12749 0.63947 0.25105 0.0
C2324 C 0.11322 0.62826 0.22968 0.0
C2325 C 0.12675 0.64276 0.29725 0.0
C2326 C 0.11158 0.63515 0.32322 0.0
C2327 C 0.09727 0.62402 0.30191 0.0
C2328 C 0.09807 0.62062 0.25578 0.0
C2329 C 0.11083 0.63843 0.37263 0.0
C2330 C 0.109 0.62235 0.40111 0.0
C2331 C 0.11245 0.65713 0.39185 0.0
C2332 C 0.11288 0.67488 0.36401 0.0
C2333 C 0.09811 0.67854 0.3328 0.0
C2334 C 0.09859 0.69527 0.3066 0.0
C2335 C 0.1137 0.70853 0.31152 0.0
C2336 C 0.12834 0.70512 0.34273 0.0
C2337 C 0.12793 0.6884 0.36899 0.0
H2338 H 0.11404 0.72148 0.29122 0.0
H2339 H 0.10406 0.56081 0.55038 0.0
H2340 H 0.63017 0.91581 0.41687 0.0
H2341 H 0.62428 0.91463 0.49753 0.0
H2342 H 0.66418 0.86696 0.50935 0.0
H2343 H 0.66986 0.86782 0.42867 0.0
H2344 H 0.63145 0.86101 0.5588 0.0
H2345 H 0.67786 0.91233 0.53796 0.0
H2346 H 0.6899 0.94275 0.50517 0.0
H2347 H 0.64107 0.97331 0.55913 0.0
H2348 H 0.62859 0.943 0.59172 0.0
H2349 H 0.64467 0.86102 0.79276 0.0
H2350 H 0.64956 0.8625 0.71212 0.0
H2351 H 0.61557 0.91479 0.7063 0.0
H2352 H 0.61129 0.91376 0.78736 0.0
H2353 H 0.64449 0.91866 0.6529 0.0
H2354 H 0.59773 0.86835 0.674 0.0
H2355 H 0.58449 0.8382 0.70566 0.0
H2356 H 0.63201 0.8061 0.65027 0.0
H2357 H 0.64567 0.83611 0.61876 0.0
C2358 C 0.63752 0.90493 0.43655 0.0
C2359 C 0.65054 0.89195 0.41625 0.0
C2360 C 0.63427 0.90438 0.48276 0.0
C2361 C 0.64395 0.89084 0.5097 0.0
C2362 C 0.65659 0.87758 0.48936 0.0
C2363 C 0.65993 0.87818 0.44324 0.0
C2364 C 0.64111 0.8906 0.55911 0.0
C2365 C 0.6345 0.87355 0.57946 0.0
C2366 C 0.64459 0.9071 0.58603 0.0
C2367 C 0.6522 0.92536 0.5669 0.0
C2368 C 0.66962 0.92551 0.54256 0.0
C2369 C 0.67653 0.94274 0.52405 0.0
C2370 C 0.66623 0.95994 0.52996 0.0
C2371 C 0.64902 0.95997 0.55453 0.0
C2372 C 0.64203 0.94277 0.57306 0.0
C2373 C 0.63825 0.87286 0.77438 0.0
C2374 C 0.62763 0.88729 0.79674 0.0
C2375 C 0.64096 0.87364 0.72807 0.0
C2376 C 0.63263 0.88856 0.70262 0.0
C2377 C 0.62218 0.90311 0.72493 0.0
C2378 C 0.61976 0.90252 0.77141 0.0
C2379 C 0.63483 0.88901 0.65289 0.0
C2380 C 0.64134 0.90611 0.63238 0.0
C2381 C 0.63106 0.8726 0.62574 0.0
C2382 C 0.62281 0.8545 0.64436 0.0
C2383 C 0.60542 0.85488 0.66881 0.0
C2384 C 0.59783 0.83781 0.6867 0.0
C2385 C 0.60743 0.82025 0.68007 0.0
C2386 C 0.62461 0.81971 0.65542 0.0
C2387 C 0.63227 0.83674 0.6375 0.0
H2388 H 0.60154 0.80706 0.69396 0.0
H2389 H 0.6716 0.97326 0.51558 0.0
H2390 H 0.87986 0.40865 0.25121 0.0
H2391 H 0.88129 0.403 0.33145 0.0
H2392 H 0.89863 0.34394 0.30788 0.0
H2393 H 0.89627 0.3492 0.22726 0.0
H2394 H 0.87285 0.34501 0.37266 0.0
H2395 H 0.93136 0.37973 0.34205 0.0
H2396 H 0.95128 0.40637 0.31227 0.0
H2397 H 0.92128 0.44683 0.39637 0.0
H2398 H 0.90099 0.42046 0.42625 0.0
H2399 H 0.90406 0.32545 0.59382 0.0
H2400 H 0.90258 0.33088 0.51344 0.0
H2401 H 0.88375 0.38954 0.53621 0.0
H2402 H 0.88598 0.38447 0.61695 0.0
H2403 H 0.91044 0.38853 0.47187 0.0
H2404 H 0.85195 0.35332 0.50247 0.0
H2405 H 0.83246 0.32637 0.53226 0.0
H2406 H 0.86306 0.2864 0.44807 0.0
H2407 H 0.88292 0.31309 0.41819 0.0
C2408 C 0.88376 0.39436 0.26289 0.0
C2409 C 0.88791 0.37939 0.23238 0.0
C2410 C 0.88483 0.39122 0.30901 0.0
C2411 C 0.89036 0.37312 0.32601 0.0
C2412 C 0.89442 0.35809 0.29574 0.0
C2413 C 0.89324 0.36118 0.24952 0.0
C2414 C 0.89165 0.36983 0.37528 0.0
C2415 C 0.88131 0.35437 0.39421 0.0
C2416 C 0.90231 0.38227 0.40384 0.0
C2417 C 0.91454 0.39814 0.38607 0.0
C2418 C 0.92892 0.39433 0.35396 0.0
C2419 C 0.94029 0.40938 0.3371 0.0
C2420 C 0.93751 0.42829 0.35234 0.0
C2421 C 0.92339 0.43218 0.38456 0.0
C2422 C 0.91197 0.41718 0.4015 0.0
C2423 C 0.89978 0.3396 0.5819 0.0
C2424 C 0.89519 0.35453 0.61219 0.0
C2425 C 0.89871 0.34261 0.53574 0.0
C2426 C 0.8928 0.36055 0.51851 0.0
C2427 C 0.88828 0.37553 0.54856 0.0
C2428 C 0.8894 0.37255 0.59483 0.0
C2429 C 0.89162 0.36374 0.46921 0.0
C2430 C 0.90198 0.37917 0.45029 0.0
C2431 C 0.88104 0.35123 0.44066 0.0
C2432 C 0.86904 0.33518 0.4584 0.0
C2433 C 0.85462 0.33877 0.49054 0.0
C2434 C 0.84349 0.32354 0.5074 0.0
C2435 C 0.84655 0.30468 0.49215 0.0
C2436 C 0.86072 0.30101 0.45989 0.0
C2437 C 0.8719 0.31619 0.44295 0.0
H2438 H 0.83792 0.29291 0.50525 0.0
H2439 H 0.94633 0.43992 0.33925 0.0
H2440 H 0.40456 0.37512 0.49783 0.0
H2441 H 0.39886 0.37654 0.57824 0.0
H2442 H 0.34263 0.40168 0.55521 0.0
H2443 H 0.34847 0.40085 0.4745 0.0
H2444 H 0.36144 0.42023 0.62218 0.0
H2445 H 0.34731 0.35412 0.58484 0.0
H2446 H 0.35393 0.32208 0.55195 0.0
H2447 H 0.40352 0.31561 0.63703 0.0
H2448 H 0.39734 0.34775 0.67003 0.0
H2449 H 0.32504 0.40867 0.84145 0.0
H2450 H 0.33025 0.40692 0.76111 0.0
H2451 H 0.38472 0.37794 0.78271 0.0
H2452 H 0.37907 0.37859 0.86332 0.0
H2453 H 0.36673 0.36138 0.71606 0.0
H2454 H 0.38131 0.42718 0.7535 0.0
H2455 H 0.3752 0.45929 0.78658 0.0
H2456 H 0.32573 0.46666 0.70154 0.0
H2457 H 0.33137 0.43446 0.66838 0.0
C2458 C 0.39103 0.38113 0.50974 0.0
C2459 C 0.37699 0.38789 0.47944 0.0
C2460 C 0.38771 0.38175 0.55586 0.0
C2461 C 0.37022 0.38903 0.57297 0.0
C2462 C 0.35622 0.39593 0.54291 0.0
C2463 C 0.35952 0.3953 0.49669 0.0
C2464 C 0.36664 0.38953 0.62217 0.0
C2465 C 0.36232 0.40731 0.64261 0.0
C2466 C 0.3683 0.3728 0.64918 0.0
C2467 C 0.37196 0.35341 0.62961 0.0
C2468 C 0.35971 0.34593 0.59631 0.0
C2469 C 0.36337 0.32774 0.57769 0.0
C2470 C 0.37917 0.31684 0.59231 0.0
C2471 C 0.39131 0.32408 0.6257 0.0
C2472 C 0.38772 0.34227 0.64441 0.0
C2473 C 0.33803 0.40165 0.82932 0.0
C2474 C 0.35159 0.39372 0.8593 0.0
C2475 C 0.34113 0.40091 0.78314 0.0
C2476 C 0.35805 0.39258 0.76555 0.0
C2477 C 0.37158 0.38454 0.79528 0.0
C2478 C 0.3684 0.3851 0.84154 0.0
C2479 C 0.36153 0.3921 0.71624 0.0
C2480 C 0.36584 0.37433 0.69572 0.0
C2481 C 0.35997 0.40887 0.6892 0.0
C2482 C 0.35667 0.42833 0.70874 0.0
C2483 C 0.36905 0.43559 0.74205 0.0
C2484 C 0.36568 0.45382 0.7608 0.0
C2485 C 0.35006 0.46498 0.74625 0.0
C2486 C 0.33781 0.45798 0.71281 0.0
C2487 C 0.3411 0.43975 0.694 0.0
H2488 H 0.34748 0.47909 0.76081 0.0
H2489 H 0.38198 0.30276 0.57785 0.0
H2490 H 0.42795 0.65779 0.18576 0.0
H2491 H 0.42599 0.65178 0.26595 0.0
H2492 H 0.36931 0.62674 0.24904 0.0
H2493 H 0.37129 0.63233 0.16846 0.0
H2494 H 0.37013 0.65259 0.31827 0.0
H2495 H 0.40775 0.59795 0.27095 0.0
H2496 H 0.43463 0.58128 0.23283 0.0
H2497 H 0.47573 0.6122 0.31329 0.0
H2498 H 0.44908 0.62915 0.35183 0.0
H2499 H 0.36122 0.61198 0.53516 0.0
H2500 H 0.36368 0.61674 0.45461 0.0
H2501 H 0.42052 0.64146 0.47112 0.0
H2502 H 0.41803 0.63718 0.55204 0.0
H2503 H 0.4197 0.6155 0.40206 0.0
H2504 H 0.38333 0.67154 0.4454 0.0
H2505 H 0.3572 0.68989 0.48216 0.0
H2506 H 0.31464 0.65723 0.40979 0.0
H2507 H 0.34058 0.63888 0.37195 0.0
C2508 C 0.41518 0.65069 0.19881 0.0
C2509 C 0.39979 0.64555 0.17031 0.0
C2510 C 0.41406 0.64733 0.24486 0.0
C2511 C 0.39755 0.6387 0.26367 0.0
C2512 C 0.38218 0.63348 0.23541 0.0
C2513 C 0.38331 0.63678 0.18928 0.0
C2514 C 0.39616 0.63561 0.31291 0.0
C2515 C 0.3808 0.6442 0.33643 0.0
C2516 C 0.41037 0.62516 0.337 0.0
C2517 C 0.42642 0.61495 0.31401 0.0
C2518 C 0.42252 0.6013 0.28031 0.0
C2519 C 0.43771 0.59179 0.25865 0.0
C2520 C 0.45687 0.59574 0.27045 0.0
C2521 C 0.46088 0.60917 0.30412 0.0
C2522 C 0.44573 0.61871 0.32597 0.0
C2523 C 0.37418 0.61866 0.52192 0.0
C2524 C 0.3894 0.62422 0.5505 0.0
C2525 C 0.37558 0.62132 0.47566 0.0
C2526 C 0.39223 0.6296 0.45666 0.0
C2527 C 0.40755 0.63498 0.4849 0.0
C2528 C 0.40612 0.63242 0.53126 0.0
C2529 C 0.39364 0.63245 0.40734 0.0
C2530 C 0.409 0.62383 0.38383 0.0
C2531 C 0.3795 0.64296 0.38322 0.0
C2532 C 0.36386 0.65372 0.40623 0.0
C2533 C 0.36839 0.66818 0.43758 0.0
C2534 C 0.35362 0.6786 0.45855 0.0
C2535 C 0.33426 0.6746 0.4487 0.0
C2536 C 0.32964 0.66027 0.41751 0.0
C2537 C 0.34437 0.64992 0.39611 0.0
H2538 H 0.32285 0.68267 0.46505 0.0
H2539 H 0.46861 0.58836 0.25361 0.0
H2540 H 0.68356 0.5933 0.83566 0.0
H2541 H 0.67891 0.59465 0.75492 0.0
H2542 H 0.62393 0.623 0.77423 0.0
H2543 H 0.62808 0.62095 0.85517 0.0
H2544 H 0.62065 0.59571 0.713 0.0
H2545 H 0.66593 0.64731 0.74002 0.0
H2546 H 0.69615 0.66222 0.76712 0.0
H2547 H 0.72937 0.62477 0.68201 0.0
H2548 H 0.69936 0.60942 0.65491 0.0
H2549 H 0.60397 0.6272 0.49268 0.0
H2550 H 0.61027 0.62552 0.57256 0.0
H2551 H 0.66556 0.59876 0.54666 0.0
H2552 H 0.65981 0.60137 0.46625 0.0
H2553 H 0.66943 0.6242 0.61075 0.0
H2554 H 0.62508 0.57242 0.58389 0.0
H2555 H 0.59527 0.557 0.55582 0.0
H2556 H 0.56092 0.59389 0.63981 0.0
H2557 H 0.59052 0.60972 0.66797 0.0
C2558 C 0.67038 0.59968 0.82287 0.0
C2559 C 0.65619 0.60698 0.85224 0.0
C2560 C 0.66785 0.60066 0.77651 0.0
C2561 C 0.65118 0.60916 0.75822 0.0
C2562 C 0.63697 0.61644 0.78739 0.0
C2563 C 0.63945 0.61541 0.83379 0.0
C2564 C 0.64827 0.61003 0.7088 0.0
C2565 C 0.63121 0.6022 0.69077 0.0
C2566 C 0.66232 0.61788 0.67937 0.0
C2567 C 0.68039 0.62704 0.69588 0.0
C2568 C 0.67968 0.64211 0.72743 0.0
C2569 C 0.69678 0.65067 0.74273 0.0
C2570 C 0.71467 0.64439 0.72644 0.0
C2571 C 0.7155 0.62958 0.69472 0.0
C2572 C 0.69846 0.62094 0.67938 0.0
C2573 C 0.6176 0.62117 0.50375 0.0
C2574 C 0.63136 0.61443 0.47266 0.0
C2575 C 0.62108 0.61996 0.54968 0.0
C2576 C 0.63824 0.61166 0.56595 0.0
C2577 C 0.65213 0.6051 0.5351 0.0
C2578 C 0.64873 0.60643 0.48902 0.0
C2579 C 0.64172 0.61007 0.61507 0.0
C2580 C 0.65888 0.6177 0.63302 0.0
C2581 C 0.62784 0.60192 0.64445 0.0
C2582 C 0.61001 0.59237 0.62774 0.0
C2583 C 0.61116 0.57734 0.59614 0.0
C2584 C 0.59431 0.56851 0.58026 0.0
C2585 C 0.57621 0.57449 0.59595 0.0
C2586 C 0.57494 0.58928 0.62766 0.0
C2587 C 0.59176 0.59817 0.64363 0.0
H2588 H 0.56318 0.56764 0.5836 0.0
H2589 H 0.72789 0.65106 0.73828 0.0
H2590 H 0.58868 0.36172 0.54854 0.0
H2591 H 0.58737 0.35562 0.46837 0.0
H2592 H 0.64576 0.37682 0.45425 0.0
H2593 H 0.6469 0.38379 0.53414 0.0
H2594 H 0.62505 0.39111 0.39049 0.0
H2595 H 0.63575 0.32637 0.44034 0.0
H2596 H 0.63143 0.29603 0.48252 0.0
H2597 H 0.57238 0.29252 0.43857 0.0
H2598 H 0.57648 0.32267 0.39541 0.0
H2599 H 0.63663 0.35338 0.16761 0.0
H2600 H 0.64009 0.3585 0.2484 0.0
H2601 H 0.57869 0.35003 0.26547 0.0
H2602 H 0.57513 0.34504 0.18483 0.0
H2603 H 0.60228 0.32888 0.32679 0.0
H2604 H 0.59539 0.39408 0.26949 0.0
H2605 H 0.60444 0.42135 0.22064 0.0
H2606 H 0.66145 0.42211 0.27764 0.0
H2607 H 0.65283 0.39467 0.32641 0.0
C2608 C 0.60121 0.36532 0.52846 0.0
C2609 C 0.6179 0.3733 0.54824 0.0
C2610 C 0.60054 0.36149 0.48252 0.0
C2611 C 0.61656 0.36548 0.45505 0.0
C2612 C 0.63322 0.3735 0.4746 0.0
C2613 C 0.6339 0.37734 0.52054 0.0
C2614 C 0.61558 0.36213 0.40577 0.0
C2615 C 0.62033 0.37739 0.37669 0.0
C2616 C 0.60927 0.34434 0.3873 0.0
C2617 C 0.60636 0.32686 0.41509 0.0
C2618 C 0.6218 0.3192 0.43998 0.0
C2619 C 0.61945 0.30195 0.46367 0.0
C2620 C 0.60164 0.29237 0.46328 0.0
C2621 C 0.58617 0.29997 0.4389 0.0
C2622 C 0.58852 0.31707 0.4146 0.0
C2623 C 0.6239 0.35255 0.18865 0.0
C2624 C 0.6056 0.34886 0.16986 0.0
C2625 C 0.62587 0.35558 0.23472 0.0
C2626 C 0.60963 0.35476 0.26293 0.0
C2627 C 0.59141 0.35078 0.24433 0.0
C2628 C 0.58938 0.34803 0.19825 0.0
C2629 C 0.61159 0.35786 0.31191 0.0
C2630 C 0.60699 0.34258 0.34081 0.0
C2631 C 0.61848 0.37547 0.33007 0.0
C2632 C 0.62353 0.39218 0.30126 0.0
C2633 C 0.6099 0.39997 0.27138 0.0
C2634 C 0.61494 0.41547 0.24375 0.0
C2635 C 0.63353 0.42339 0.2459 0.0
C2636 C 0.64707 0.41592 0.27593 0.0
C2637 C 0.64211 0.40041 0.30361 0.0
H2638 H 0.63746 0.4353 0.22431 0.0
H2639 H 0.59982 0.27907 0.48186 0.0
H2640 H 0.83597 0.58012 0.93748 0.0
H2641 H 0.84076 0.58228 0.01809 0.0
H2642 H 0.86966 0.6371 1.00151 0.0
H2643 H 0.86563 0.63469 0.92064 0.0
H2644 H 0.88876 0.61582 0.05938 0.0
H2645 H 0.82202 0.63282 0.03956 0.0
H2646 H 0.78823 0.62869 0.01483 0.0
H2647 H 0.783 0.5776 0.09532 0.0
H2648 H 0.81686 0.58123 0.12001 0.0
H2649 H 0.88773 0.64517 0.28606 0.0
H2650 H 0.88193 0.64299 0.20581 0.0
H2651 H 0.85353 0.58801 0.22422 0.0
H2652 H 0.85858 0.59047 0.3049 0.0
H2653 H 0.83407 0.60909 0.16572 0.0
H2654 H 0.90074 0.59152 0.18418 0.0
H2655 H 0.93439 0.59565 0.20996 0.0
H2656 H 0.93949 0.64772 0.13281 0.0
H2657 H 0.90578 0.64404 0.10701 0.0
C2658 C 0.84356 0.59256 0.95078 0.0
C2659 C 0.85041 0.60722 0.92216 0.0
C2660 C 0.84606 0.59389 0.99713 0.0
C2661 C 0.85533 0.61 0.01623 0.0
C2662 C 0.86237 0.62456 0.98779 0.0
C2663 C 0.85989 0.62323 0.94142 0.0
C2664 C 0.85799 0.61154 0.06568 0.0
C2665 C 0.87672 0.61462 0.08253 0.0
C2666 C 0.84242 0.60946 0.09626 0.0
C2667 C 0.82209 0.60716 0.08115 0.0
C2668 C 0.81374 0.62058 0.05162 0.0
C2669 C 0.79456 0.61836 0.03768 0.0
C2670 C 0.7835 0.60285 0.05336 0.0
C2671 C 0.7916 0.58957 0.08311 0.0
C2672 C 0.81079 0.59171 0.09708 0.0
C2673 C 0.88003 0.6327 0.27324 0.0
C2674 C 0.8737 0.61796 0.30223 0.0
C2675 C 0.87692 0.63136 0.22712 0.0
C2676 C 0.86758 0.61516 0.20863 0.0
C2677 C 0.86089 0.6006 0.2375 0.0
C2678 C 0.86395 0.60195 0.28369 0.0
C2679 C 0.8648 0.61342 0.15928 0.0
C2680 C 0.84608 0.61029 0.1425 0.0
C2681 C 0.88036 0.6154 0.12873 0.0
C2682 C 0.90067 0.6176 0.14401 0.0
C2683 C 0.90899 0.60392 0.17296 0.0
C2684 C 0.92809 0.60617 0.18754 0.0
C2685 C 0.93906 0.62196 0.17313 0.0
C2686 C 0.93097 0.63551 0.14399 0.0
C2687 C 0.91188 0.63334 0.12935 0.0
H2688 H 0.95383 0.62367 0.18445 0.0
H2689 H 0.76865 0.60117 0.04257 0.0
H2690 H 0.6424 0.14266 0.73125 0.0
H2691 H 0.64108 0.148 0.81197 0.0
H2692 H 0.58432 0.12213 0.8164 0.0
H2693 H 0.58552 0.11677 0.7357 0.0
H2694 H 0.61858 0.1681 0.86648 0.0
H2695 H 0.57871 0.09746 0.91419 0.0
H2696 H 0.57477 0.06416 0.88589 0.0
H2697 H 0.6298 0.06785 0.81962 0.0
H2698 H 0.63418 0.10105 0.84804 0.0
H2699 H 0.58542 0.17338 0.09083 0.0
H2700 H 0.5875 0.16838 1.01018 0.0
H2701 H 0.63106 0.12459 0.03012 0.0
H2702 H 0.62929 0.12973 0.11098 0.0
H2703 H 0.60546 0.11304 0.96827 0.0
H2704 H 0.64343 0.16974 0.99439 0.0
H2705 H 0.6503 0.20248 0.02303 0.0
H2706 H 0.60451 0.22566 0.94228 0.0
H2707 H 0.59717 0.19299 0.91364 0.0
C2708 C 0.62953 0.13828 0.74926 0.0
C2709 C 0.61414 0.12911 0.7268 0.0
C2710 C 0.62882 0.14131 0.79555 0.0
C2711 C 0.61273 0.13521 0.82064 0.0
C2712 C 0.59709 0.12659 0.79813 0.0
C2713 C 0.59782 0.1235 0.75187 0.0
C2714 C 0.61246 0.13761 0.87032 0.0
C2715 C 0.61565 0.15605 0.88866 0.0
C2716 C 0.60902 0.12187 0.89963 0.0
C2717 C 0.60666 0.10181 0.88288 0.0
C2718 C 0.59 0.09113 0.89373 0.0
C2719 C 0.58768 0.07228 0.87765 0.0
C2720 C 0.60199 0.06392 0.85085 0.0
C2721 C 0.61869 0.07436 0.84024 0.0
C2722 C 0.62109 0.09321 0.85629 0.0
C2723 C 0.59561 0.16281 0.07815 0.0
C2724 C 0.60729 0.15206 0.10764 0.0
C2725 C 0.59673 0.15992 0.03189 0.0
C2726 C 0.60961 0.14626 1.01379 0.0
C2727 C 0.62101 0.13522 0.04313 0.0
C2728 C 0.61993 0.13814 0.08946 0.0
C2729 C 0.61121 0.14359 0.96434 0.0
C2730 C 0.60829 0.1251 0.94607 0.0
C2731 C 0.61524 0.15922 0.93513 0.0
C2732 C 0.61963 0.17889 0.95221 0.0
C2733 C 0.63472 0.1818 0.98301 0.0
C2734 C 0.63872 0.20034 0.9992 0.0
C2735 C 0.62782 0.21613 0.98457 0.0
C2736 C 0.61292 0.21341 0.95363 0.0
C2737 C 0.60885 0.19488 0.93739 0.0
H2738 H 0.63094 0.23048 0.99713 0.0
H2739 H 0.60017 0.04933 0.8384 0.0
H2740 H 0.11704 0.42053 0.2904 0.0
H2741 H 0.12241 0.4219 0.20974 0.0
H2742 H 0.1429 0.36299 0.21124 0.0
H2743 H 0.13764 0.36155 0.29199 0.0
H2744 H 0.16524 0.38424 0.15851 0.0
H2745 H 0.0966 0.37521 0.17474 0.0
H2746 H 0.0639 0.38281 0.2028 0.0
H2747 H 0.0664 0.43854 0.13992 0.0
H2748 H 0.09924 0.43137 0.11199 0.0
H2749 H 0.15996 0.36637 0.92519 0.0
H2750 H 0.15495 0.36547 1.00601 0.0
H2751 H 0.13394 0.42419 1.00298 0.0
H2752 H 0.13879 0.42513 0.92202 0.0
H2753 H 0.11199 0.40334 0.05658 0.0
H2754 H 0.18046 0.41241 0.03989 0.0
H2755 H 0.21324 0.40501 1.01207 0.0
H2756 H 0.21119 0.34946 0.07591 0.0
H2757 H 0.17827 0.35643 0.10361 0.0
C2758 C 0.12259 0.40781 0.27358 0.0
C2759 C 0.12678 0.39089 0.29784 0.0
C2760 C 0.12566 0.40862 0.22734 0.0
C2761 C 0.13279 0.39245 0.20403 0.0
C2762 C 0.13738 0.37567 0.22829 0.0
C2763 C 0.13441 0.37489 0.27459 0.0
C2764 C 0.13537 0.39296 0.15443 0.0
C2765 C 0.1535 0.38817 0.13623 0.0
C2766 C 0.12025 0.39853 0.12513 0.0
C2767 C 0.10045 0.40282 0.14164 0.0
C2768 C 0.09023 0.38914 0.16716 0.0
C2769 C 0.07166 0.39336 0.18301 0.0
C2770 C 0.0631 0.41117 0.17325 0.0
C2771 C 0.07307 0.42477 0.14751 0.0
C2772 C 0.09165 0.42062 0.13163 0.0
C2773 C 0.15437 0.37915 0.94171 0.0
C2774 C 0.14989 0.39586 0.91697 0.0
C2775 C 0.15153 0.37862 0.98805 0.0
C2776 C 0.14435 0.39488 1.01098 0.0
C2777 C 0.13951 0.41145 0.98624 0.0
C2778 C 0.14225 0.41195 0.93984 0.0
C2779 C 0.14186 0.39458 0.06063 0.0
C2780 C 0.12374 0.39942 0.07884 0.0
C2781 C 0.157 0.38907 0.08994 0.0
C2782 C 0.17682 0.38487 0.07346 0.0
C2783 C 0.18694 0.39856 0.04772 0.0
C2784 C 0.20556 0.39445 0.03201 0.0
C2785 C 0.21427 0.37675 0.04212 0.0
C2786 C 0.20441 0.36315 0.06805 0.0
C2787 C 0.18578 0.36718 0.0838 0.0
H2788 H 0.22869 0.3736 0.02993 0.0
H2789 H 0.04872 0.41441 0.18555 0.0
H2790 H 0.36681 0.84003 0.10028 0.0
H2791 H 0.36596 0.84457 0.01933 0.0
H2792 H 0.42504 0.86471 0.02181 0.0
H2793 H 0.42592 0.86035 0.10288 0.0
H2794 H 0.40454 0.88671 0.96804 0.0
H2795 H 0.41226 0.81814 0.98579 0.0
H2796 H 0.40407 0.78566 1.01411 0.0
H2797 H 0.3486 0.7887 0.94986 0.0
H2798 H 0.35635 0.82132 0.92166 0.0
H2799 H 0.4218 0.88136 0.73492 0.0
H2800 H 0.42311 0.87558 0.81538 0.0
H2801 H 0.36387 0.85592 0.81328 0.0
H2802 H 0.36252 0.86152 0.73265 0.0
H2803 H 0.38456 0.83352 0.86672 0.0
H2804 H 0.3767 0.90216 0.84964 0.0
H2805 H 0.38485 0.93462 0.82122 0.0
H2806 H 0.44056 0.93143 0.8843 0.0
H2807 H 0.43284 0.89882 0.9126 0.0
C2808 C 0.37967 0.84532 0.0836 0.0
C2809 C 0.39646 0.84973 0.10824 0.0
C2810 C 0.37918 0.84789 0.03719 0.0
C2811 C 0.39554 0.8547 1.01406 0.0
C2812 C 0.41222 0.85943 0.03868 0.0
C2813 C 0.41268 0.85698 0.08516 0.0
C2814 C 0.39526 0.85702 0.96437 0.0
C2815 C 0.40043 0.87497 0.94593 0.0
C2816 C 0.38947 0.84189 0.93524 0.0
C2817 C 0.38482 0.82225 0.95198 0.0
C2818 C 0.39826 0.81194 0.97798 0.0
C2819 C 0.3937 0.7935 0.99396 0.0
C2820 C 0.37581 0.78515 0.98389 0.0
C2821 C 0.36245 0.7952 0.9577 0.0
C2822 C 0.36692 0.81366 0.94167 0.0
C2823 C 0.409 0.87589 0.75157 0.0
C2824 C 0.39199 0.87209 0.7272 0.0
C2825 C 0.40977 0.87257 0.79768 0.0
C2826 C 0.39347 0.86565 0.82082 0.0
C2827 C 0.37664 0.86132 0.79639 0.0
C2828 C 0.3759 0.8645 0.75017 0.0
C2829 C 0.39386 0.8632 0.87045 0.0
C2830 C 0.38869 0.84524 0.88887 0.0
C2831 C 0.39965 0.87831 0.89959 0.0
C2832 C 0.40426 0.89798 0.88288 0.0
C2833 C 0.39074 0.90833 0.8572 0.0
C2834 C 0.39527 0.92676 0.84114 0.0
C2835 C 0.41323 0.93506 0.85085 0.0
C2836 C 0.42667 0.92497 0.87675 0.0
C2837 C 0.42221 0.90652 0.89284 0.0
H2838 H 0.41671 0.94934 0.83839 0.0
H2839 H 0.37231 0.77087 0.99629 0.0
H2840 H 0.84757 0.87096 0.35649 0.0
H2841 H 0.85205 0.86766 0.27578 0.0
H2842 H 0.85264 0.92975 0.26232 0.0
H2843 H 0.84822 0.93316 0.34295 0.0
H2844 H 0.83067 0.91395 0.19868 0.0
H2845 H 0.89462 0.90222 0.25651 0.0
H2846 H 0.91877 0.88607 0.30427 0.0
H2847 H 0.90526 0.83145 0.24337 0.0
H2848 H 0.88082 0.84725 0.19567 0.0
H2849 H 0.86743 0.91897 0.9765 0.0
H2850 H 0.8612 0.92179 0.05659 0.0
H2851 H 0.86419 0.85974 0.06957 0.0
H2852 H 0.87052 0.85684 0.98947 0.0
H2853 H 0.88423 0.87531 0.13368 0.0
H2854 H 0.81828 0.88472 0.08462 0.0
H2855 H 0.79149 0.8989 0.04119 0.0
H2856 H 0.80793 0.95576 0.08484 0.0
H2857 H 0.83447 0.9418 0.12972 0.0
C2858 C 0.84884 0.88394 0.33648 0.0
C2859 C 0.84753 0.90234 0.3565 0.0
C2860 C 0.85139 0.88202 0.29019 0.0
C2861 C 0.85289 0.89846 0.26274 0.0
C2862 C 0.85148 0.91683 0.28259 0.0
C2863 C 0.84888 0.91875 0.32882 0.0
C2864 C 0.85573 0.89655 0.21337 0.0
C2865 C 0.84257 0.90572 0.18456 0.0
C2866 C 0.87089 0.88536 0.19457 0.0
C2867 C 0.88576 0.8759 0.22281 0.0
C2868 C 0.89671 0.88675 0.2535 0.0
C2869 C 0.91046 0.87766 0.28054 0.0
C2870 C 0.91351 0.85774 0.27695 0.0
C2871 C 0.90286 0.84688 0.24617 0.0
C2872 C 0.88908 0.8559 0.21909 0.0
C2873 C 0.86648 0.90588 0.99622 0.0
C2874 C 0.86953 0.88767 0.9763 0.0
C2875 C 0.86286 0.90751 0.04219 0.0
C2876 C 0.86202 0.89097 0.06948 0.0
C2877 C 0.86482 0.87276 0.04953 0.0
C2878 C 0.8685 0.87112 1.00361 0.0
C2879 C 0.85914 0.89268 0.11895 0.0
C2880 C 0.87234 0.88353 0.1478 0.0
C2881 C 0.84392 0.90372 0.13787 0.0
C2882 C 0.82843 0.91226 0.11005 0.0
C2883 C 0.81623 0.90025 0.08471 0.0
C2884 C 0.80104 0.90824 0.06006 0.0
C2885 C 0.79811 0.92824 0.05991 0.0
C2886 C 0.81024 0.94028 0.08489 0.0
C2887 C 0.82526 0.93233 0.11021 0.0
H2888 H 0.78641 0.93439 0.04053 0.0
H2889 H 0.92414 0.85073 0.29795 0.0
H2890 H 0.88356 0.09965 0.03098 0.0
H2891 H 0.88516 0.10571 0.95083 0.0
H2892 H 0.8981 0.16573 0.97604 0.0
H2893 H 0.89692 0.15974 0.05657 0.0
H2894 H 0.87132 0.16185 0.91021 0.0
H2895 H 0.93351 0.13513 0.94269 0.0
H2896 H 0.95662 0.11143 0.97328 0.0
H2897 H 0.93291 0.06728 0.88844 0.0
H2898 H 0.90946 0.09067 0.85777 0.0
H2899 H 0.90168 0.18439 0.68866 0.0
H2900 H 0.90029 0.17926 0.76926 0.0
H2901 H 0.8877 0.11888 0.74784 0.0
H2902 H 0.88874 0.12393 0.667 0.0
H2903 H 0.91472 0.12348 0.81213 0.0
H2904 H 0.85243 0.15054 0.77966 0.0
H2905 H 0.82937 0.17442 0.74963 0.0
H2906 H 0.8534 0.21823 0.83494 0.0
H2907 H 0.87683 0.19468 0.86499 0.0
C2908 C 0.88702 0.11411 0.01969 0.0
C2909 C 0.89029 0.12914 0.05062 0.0
C2910 C 0.88785 0.11757 0.97367 0.0
C2911 C 0.89199 0.13613 0.95721 0.0
C2912 C 0.8949 0.15127 0.98784 0.0
C2913 C 0.89414 0.14782 0.03398 0.0
C2914 C 0.89316 0.13967 0.90808 0.0
C2915 C 0.88102 0.15366 0.88886 0.0
C2916 C 0.90551 0.12872 0.87993 0.0
C2917 C 0.9196 0.11461 0.89826 0.0
C2918 C 0.93312 0.12033 0.93082 0.0
C2919 C 0.9463 0.10696 0.94813 0.0
C2920 C 0.9462 0.08785 0.9329 0.0
C2921 C 0.93295 0.08208 0.90025 0.0
C2922 C 0.91972 0.09539 0.88286 0.0
C2923 C 0.89835 0.17004 0.70092 0.0
C2924 C 0.8952 0.15461 0.67097 0.0
C2925 C 0.89762 0.16712 0.74718 0.0
C2926 C 0.89368 0.14872 0.76482 0.0
C2927 C 0.89078 0.13322 0.73514 0.0
C2928 C 0.89146 0.13613 0.68881 0.0
C2929 C 0.8928 0.1456 0.81416 0.0
C2930 C 0.90502 0.13169 0.83345 0.0
C2931 C 0.88055 0.15667 0.84236 0.0
C2932 C 0.86654 0.17089 0.82418 0.0
C2933 C 0.85293 0.16531 0.7917 0.0
C2934 C 0.83977 0.17878 0.77473 0.0
C2935 C 0.83997 0.19785 0.79025 0.0
C2936 C 0.8533 0.20347 0.82286 0.0
C2937 C 0.86652 0.19006 0.83988 0.0
H2938 H 0.82975 0.20825 0.77711 0.0
H2939 H 0.95642 0.07752 0.94633 0.0
H2940 H 0.16129 0.10824 0.97157 0.0
H2941 H 0.16774 0.1076 0.05198 0.0
H2942 H 0.10782 0.12097 0.07839 0.0
H2943 H 0.10145 0.12239 0.99839 0.0
H2944 H 0.12998 0.14169 0.13108 0.0
H2945 H 0.12696 0.07477 0.08905 0.0
H2946 H 0.13588 0.04526 0.04758 0.0
H2947 H 0.19394 0.04913 0.09792 0.0
H2948 H 0.1855 0.07895 0.13883 0.0
H2949 H 0.12521 0.1175 0.36113 0.0
H2950 H 0.12064 0.11857 0.28028 0.0
H2951 H 0.18092 0.10472 0.26064 0.0
H2952 H 0.1854 0.10268 0.34137 0.0
H2953 H 0.15979 0.0847 0.20424 0.0
H2954 H 0.16254 0.15166 0.24674 0.0
H2955 H 0.15316 0.18074 0.28935 0.0
H2956 H 0.09512 0.17625 0.23911 0.0
H2957 H 0.10409 0.14698 0.19664 0.0
C2958 C 0.14951 0.11122 0.99445 0.0
C2959 C 0.13079 0.11524 0.97825 0.0
C2960 C 0.15319 0.11065 0.04053 0.0
C2961 C 0.13822 0.11399 0.07149 0.0
C2962 C 0.11962 0.11826 0.05535 0.0
C2963 C 0.11595 0.11887 1.00943 0.0
C2964 C 0.14179 0.1132 0.12068 0.0
C2965 C 0.13631 0.12912 0.14706 0.0
C2966 C 0.15048 0.09702 0.14171 0.0
C2967 C 0.15565 0.07924 0.11658 0.0
C2968 C 0.1417 0.06947 0.09086 0.0
C2969 C 0.14666 0.05267 0.06749 0.0
C2970 C 0.16549 0.04536 0.06998 0.0
C2971 C 0.17937 0.05482 0.09594 0.0
C2972 C 0.17452 0.0717 0.11917 0.0
C2973 C 0.13749 0.11449 0.33971 0.0
C2974 C 0.15572 0.11009 0.35811 0.0
C2975 C 0.13489 0.11534 0.29333 0.0
C2976 C 0.1505 0.11204 0.2641 0.0
C2977 C 0.16865 0.10744 0.28233 0.0
C2978 C 0.17124 0.10648 0.32867 0.0
C2979 C 0.14789 0.11314 0.21461 0.0
C2980 C 0.15355 0.0973 0.18819 0.0
C2981 C 0.13935 0.12937 0.19352 0.0
C2982 C 0.13395 0.14703 0.21883 0.0
C2983 C 0.14775 0.15679 0.24502 0.0
C2984 C 0.14251 0.17332 0.26911 0.0
C2985 C 0.12355 0.18031 0.26702 0.0
C2986 C 0.1098 0.17081 0.24073 0.0
C2987 C 0.11496 0.15426 0.21662 0.0
H2988 H 0.11952 0.1931 0.2857 0.0
H2989 H 0.1693 0.03234 0.05192 0.0
H2990 H 0.10415 0.82091 0.68992 0.0
H2991 H 0.10598 0.82628 0.77032 0.0
H2992 H 0.11374 0.88741 0.74813 0.0
H2993 H 0.11281 0.88204 0.66738 0.0
H2994 H 0.13774 0.87543 0.81127 0.0
H2995 H 0.06975 0.8679 0.78342 0.0
H2996 H 0.04052 0.85168 0.75456 0.0
H2997 H 0.05206 0.80242 0.83758 0.0
H2998 H 0.08152 0.81825 0.86652 0.0
H2999 H 0.11917 0.90641 0.03295 0.0
H3000 H 0.11742 0.90074 0.95262 0.0
H3001 H 0.11053 0.83958 0.97588 0.0
H3002 H 0.11149 0.84523 0.05659 0.0
H3003 H 0.08616 0.85139 0.91236 0.0
H3004 H 0.15407 0.85899 0.94042 0.0
H3005 H 0.18327 0.87523 0.96937 0.0
H3006 H 0.17183 0.92441 0.88598 0.0
H3007 H 0.1424 0.90855 0.85695 0.0
C3008 C 0.10647 0.8355 0.70196 0.0
C3009 C 0.10834 0.85103 0.67182 0.0
C3010 C 0.10727 0.83858 0.74815 0.0
C3011 C 0.10972 0.85731 0.76557 0.0
C3012 C 0.11175 0.87283 0.73566 0.0
C3013 C 0.11103 0.86975 0.68938 0.0
C3014 C 0.11035 0.86064 0.81489 0.0
C3015 C 0.12631 0.87041 0.83325 0.0
C3016 C 0.09571 0.85369 0.84397 0.0
C3017 C 0.07794 0.84419 0.82682 0.0
C3018 C 0.06613 0.85356 0.79529 0.0
C3019 C 0.04951 0.84444 0.77896 0.0
C3020 C 0.04446 0.82601 0.79414 0.0
C3021 C 0.056 0.81669 0.82581 0.0
C3022 C 0.07265 0.82573 0.84222 0.0
C3023 C 0.11707 0.89175 0.02115 0.0
C3024 C 0.11547 0.87628 0.05154 0.0
C3025 C 0.1163 0.8885 0.97502 0.0
C3026 C 0.11411 0.86969 0.95795 0.0
C3027 C 0.11232 0.85422 0.98812 0.0
C3028 C 0.11305 0.85746 0.03434 0.0
C3029 C 0.11354 0.8662 0.9087 0.0
C3030 C 0.09759 0.85641 0.89036 0.0
C3031 C 0.12818 0.87313 0.87964 0.0
C3032 C 0.14594 0.88265 0.89682 0.0
C3033 C 0.15771 0.87332 0.92849 0.0
C3034 C 0.17431 0.88245 0.94488 0.0
C3035 C 0.17937 0.90086 0.92961 0.0
C3036 C 0.16787 0.91016 0.89782 0.0
C3037 C 0.15124 0.9011 0.88135 0.0
H3038 H 0.19223 0.90791 0.94234 0.0
H3039 H 0.03159 0.81898 0.78145 0.0
loop_
_geom_bond_atom_site_label_1
_geom_bond_atom_site_label_2
_geom_bond_distance
_geom_bond_site_symmetry_2
_ccdc_geom_bond_type
Sm0 C2 2.846 . S
Sm0 O20 2.543 . S
Sm0 O21 2.450 . S
Sm0 O22 2.681 . S
Sm0 O23 2.464 . S
Sm0 O24 2.396 . S
Sm0 O28 2.386 . S
Sm0 O31 2.408 . S
Sm1 C11 2.846 1_554 S
Sm1 O22 2.386 . S
Sm1 O25 2.408 . S
Sm1 O26 2.543 . S
Sm1 O27 2.450 . S
Sm1 O28 2.681 . S
Sm1 O29 2.464 . S
Sm1 O30 2.396 . S
C2 Sm0 2.846 . S
C2 C3 1.506 . S
C2 O20 1.261 . S
C2 O21 1.242 . S
C3 C2 1.506 . S
C3 C4 1.358 . S
C3 C8 1.382 . S
C4 C3 1.358 . S
C4 C5 1.385 . S
C4 H32 0.930 . S
C5 C4 1.385 . S
C5 C6 1.395 . S
C5 H33 0.929 . S
C6 C5 1.395 . S
C6 C7 1.335 . S
C7 C6 1.335 . S
C7 C8 1.398 . S
C7 H34 0.930 . S
C8 C3 1.382 . S
C8 C7 1.398 . S
C8 H35 0.929 . S
C9 O22 1.271 . S
C9 O23 1.251 . S
C10 O24 1.252 . S
C10 O25 1.272 . S
C11 Sm1 2.846 1_556 S
C11 C12 1.506 . S
C11 O26 1.261 1_556 S
C11 O27 1.242 1_556 S
C12 C11 1.506 . S
C12 C13 1.358 . S
C12 C17 1.382 . S
C13 C12 1.358 . S
C13 C14 1.385 . S
C13 H36 0.930 . S
C14 C13 1.385 . S
C14 C15 1.395 . S
C14 H37 0.929 . S
C15 C14 1.395 . S
C15 C16 1.335 . S
C16 C15 1.335 . S
C16 C17 1.398 . S
C16 H38 0.930 . S
C17 C12 1.382 . S
C17 C16 1.398 . S
C17 H39 0.929 . S
C18 O28 1.271 . S
C18 O29 1.251 . S
C19 O30 1.252 . S
C19 O31 1.272 . S
O20 Sm0 2.543 . S
O20 C2 1.261 . S
O21 Sm0 2.450 . S
O21 C2 1.242 . S
O22 Sm0 2.681 . S
O22 Sm1 2.386 . S
O22 C9 1.271 . S
O23 Sm0 2.464 . S
O23 C9 1.251 . S
O24 Sm0 2.396 . S
O24 C10 1.252 . S
O25 Sm1 2.408 . S
O25 C10 1.272 . S
O26 Sm1 2.543 . S
O26 C11 1.261 1_554 S
O27 Sm1 2.450 . S
O27 C11 1.242 1_554 S
O28 Sm0 2.386 . S
O28 Sm1 2.681 . S
O28 C18 1.271 . S
O29 Sm1 2.464 . S
O29 C18 1.251 . S
O30 Sm1 2.396 . S
O30 C19 1.252 . S
O31 Sm0 2.408 . S
O31 C19 1.272 . S
H32 C4 0.930 . S
H33 C5 0.929 . S
H34 C7 0.930 . S
H35 C8 0.929 . S
H36 C13 0.930 . S
H37 C14 0.929 . S
H38 C16 0.930 . S
H39 C17 0.929 . S
Sm40 C42 2.846 1_556 S
Sm40 O60 2.543 . S
Sm40 O61 2.450 . S
Sm40 O62 2.681 . S
Sm40 O63 2.464 . S
Sm40 O64 2.396 . S
Sm40 O68 2.386 . S
Sm40 O71 2.408 . S
Sm41 C51 2.846 . S
Sm41 O62 2.386 . S
Sm41 O65 2.408 . S
Sm41 O66 2.543 . S
Sm41 O67 2.450 . S
Sm41 O68 2.681 . S
Sm41 O69 2.464 . S
Sm41 O70 2.396 . S
C42 Sm40 2.846 1_554 S
C42 C43 1.506 . S
C42 O60 1.261 1_554 S
C42 O61 1.242 1_554 S
C43 C42 1.506 . S
C43 C44 1.358 . S
C43 C48 1.382 . S
C44 C43 1.358 . S
C44 C45 1.385 . S
C44 H72 0.930 . S
C45 C44 1.385 . S
C45 C46 1.395 . S
C45 H73 0.929 . S
C46 C45 1.395 . S
C46 C47 1.335 . S
C47 C46 1.335 . S
C47 C48 1.398 . S
C47 H74 0.930 . S
C48 C43 1.382 . S
C48 C47 1.398 . S
C48 H75 0.929 . S
C49 O62 1.271 . S
C49 O63 1.251 . S
C50 O64 1.252 . S
C50 O65 1.272 . S
C51 Sm41 2.846 . S
C51 C52 1.506 . S
C51 O66 1.261 . S
C51 O67 1.242 . S
C52 C51 1.506 . S
C52 C53 1.358 . S
C52 C57 1.382 . S
C53 C52 1.358 . S
C53 C54 1.385 . S
C53 H76 0.930 . S
C54 C53 1.385 . S
C54 C55 1.395 . S
C54 H77 0.929 . S
C55 C54 1.395 . S
C55 C56 1.335 . S
C56 C55 1.335 . S
C56 C57 1.398 . S
C56 H78 0.930 . S
C57 C52 1.382 . S
C57 C56 1.398 . S
C57 H79 0.929 . S
C58 O68 1.271 . S
C58 O69 1.251 . S
C59 O70 1.252 . S
C59 O71 1.272 . S
O60 Sm40 2.543 . S
O60 C42 1.261 1_556 S
O61 Sm40 2.450 . S
O61 C42 1.242 1_556 S
O62 Sm40 2.681 . S
O62 Sm41 2.386 . S
O62 C49 1.271 . S
O63 Sm40 2.464 . S
O63 C49 1.251 . S
O64 Sm40 2.396 . S
O64 C50 1.252 . S
O65 Sm41 2.408 . S
O65 C50 1.272 . S
O66 Sm41 2.543 . S
O66 C51 1.261 . S
O67 Sm41 2.450 . S
O67 C51 1.242 . S
O68 Sm40 2.386 . S
O68 Sm41 2.681 . S
O68 C58 1.271 . S
O69 Sm41 2.464 . S
O69 C58 1.251 . S
O70 Sm41 2.396 . S
O70 C59 1.252 . S
O71 Sm40 2.408 . S
O71 C59 1.272 . S
H72 C44 0.930 . S
H73 C45 0.929 . S
H74 C47 0.930 . S
H75 C48 0.929 . S
H76 C53 0.930 . S
H77 C54 0.929 . S
H78 C56 0.930 . S
H79 C57 0.929 . S
Sm80 C82 2.846 . S
Sm80 O100 2.543 . S
Sm80 O101 2.450 . S
Sm80 O102 2.681 . S
Sm80 O103 2.464 . S
Sm80 O104 2.396 . S
Sm80 O108 2.386 . S
Sm80 O111 2.408 . S
Sm81 C91 2.846 1_554 S
Sm81 O102 2.386 . S
Sm81 O105 2.408 . S
Sm81 O106 2.543 . S
Sm81 O107 2.450 . S
Sm81 O108 2.681 . S
Sm81 O109 2.464 . S
Sm81 O110 2.396 . S
C82 Sm80 2.846 . S
C82 C83 1.506 . S
C82 O100 1.261 . S
C82 O101 1.242 . S
C83 C82 1.506 . S
C83 C84 1.358 . S
C83 C88 1.382 . S
C84 C83 1.358 . S
C84 C85 1.385 . S
C84 H112 0.930 . S
C85 C84 1.385 . S
C85 C86 1.395 . S
C85 H113 0.929 . S
C86 C85 1.395 . S
C86 C87 1.335 . S
C87 C86 1.335 . S
C87 C88 1.398 . S
C87 H114 0.930 . S
C88 C83 1.382 . S
C88 C87 1.398 . S
C88 H115 0.929 . S
C89 O102 1.271 . S
C89 O103 1.251 . S
C90 O104 1.252 . S
C90 O105 1.272 . S
C91 Sm81 2.846 1_556 S
C91 C92 1.506 . S
C91 O106 1.261 1_556 S
C91 O107 1.242 1_556 S
C92 C91 1.506 . S
C92 C93 1.358 . S
C92 C97 1.382 . S
C93 C92 1.358 . S
C93 C94 1.385 . S
C93 H116 0.930 . S
C94 C93 1.385 . S
C94 C95 1.395 . S
C94 H117 0.929 . S
C95 C94 1.395 . S
C95 C96 1.335 . S
C96 C95 1.335 . S
C96 C97 1.398 . S
C96 H118 0.930 . S
C97 C92 1.382 . S
C97 C96 1.398 . S
C97 H119 0.929 . S
C98 O108 1.271 . S
C98 O109 1.251 . S
C99 O110 1.252 . S
C99 O111 1.272 . S
O100 Sm80 2.543 . S
O100 C82 1.261 . S
O101 Sm80 2.450 . S
O101 C82 1.242 . S
O102 Sm80 2.681 . S
O102 Sm81 2.386 . S
O102 C89 1.271 . S
O103 Sm80 2.464 . S
O103 C89 1.251 . S
O104 Sm80 2.396 . S
O104 C90 1.252 . S
O105 Sm81 2.408 . S
O105 C90 1.272 . S
O106 Sm81 2.543 . S
O106 C91 1.261 1_554 S
O107 Sm81 2.450 . S
O107 C91 1.242 1_554 S
O108 Sm80 2.386 . S
O108 Sm81 2.681 . S
O108 C98 1.271 . S
O109 Sm81 2.464 . S
O109 C98 1.251 . S
O110 Sm81 2.396 . S
O110 C99 1.252 . S
O111 Sm80 2.408 . S
O111 C99 1.272 . S
H112 C84 0.930 . S
H113 C85 0.929 . S
H114 C87 0.930 . S
H115 C88 0.929 . S
H116 C93 0.930 . S
H117 C94 0.929 . S
H118 C96 0.930 . S
H119 C97 0.929 . S
Sm120 C122 2.846 1_556 S
Sm120 O140 2.543 . S
Sm120 O141 2.450 . S
Sm120 O142 2.681 . S
Sm120 O143 2.464 . S
Sm120 O144 2.396 . S
Sm120 O148 2.386 . S
Sm120 O151 2.408 . S
Sm121 C131 2.846 . S
Sm121 O142 2.386 . S
Sm121 O145 2.408 . S
Sm121 O146 2.543 . S
Sm121 O147 2.450 . S
Sm121 O148 2.681 . S
Sm121 O149 2.464 . S
Sm121 O150 2.396 . S
C122 Sm120 2.846 1_554 S
C122 C123 1.506 . S
C122 O140 1.261 1_554 S
C122 O141 1.242 1_554 S
C123 C122 1.506 . S
C123 C124 1.358 . S
C123 C128 1.382 . S
C124 C123 1.358 . S
C124 C125 1.385 . S
C124 H152 0.930 . S
C125 C124 1.385 . S
C125 C126 1.395 . S
C125 H153 0.929 . S
C126 C125 1.395 . S
C126 C127 1.335 . S
C127 C126 1.335 . S
C127 C128 1.398 . S
C127 H154 0.930 . S
C128 C123 1.382 . S
C128 C127 1.398 . S
C128 H155 0.929 . S
C129 O142 1.271 . S
C129 O143 1.251 . S
C130 O144 1.252 . S
C130 O145 1.272 . S
C131 Sm121 2.846 . S
C131 C132 1.506 . S
C131 O146 1.261 . S
C131 O147 1.242 . S
C132 C131 1.506 . S
C132 C133 1.358 . S
C132 C137 1.382 . S
C133 C132 1.358 . S
C133 C134 1.385 . S
C133 H156 0.930 . S
C134 C133 1.385 . S
C134 C135 1.395 . S
C134 H157 0.929 . S
C135 C134 1.395 . S
C135 C136 1.335 . S
C136 C135 1.335 . S
C136 C137 1.398 . S
C136 H158 0.930 . S
C137 C132 1.382 . S
C137 C136 1.398 . S
C137 H159 0.929 . S
C138 O148 1.271 . S
C138 O149 1.251 . S
C139 O150 1.252 . S
C139 O151 1.272 . S
O140 Sm120 2.543 . S
O140 C122 1.261 1_556 S
O141 Sm120 2.450 . S
O141 C122 1.242 1_556 S
O142 Sm120 2.681 . S
O142 Sm121 2.386 . S
O142 C129 1.271 . S
O143 Sm120 2.464 . S
O143 C129 1.251 . S
O144 Sm120 2.396 . S
O144 C130 1.252 . S
O145 Sm121 2.408 . S
O145 C130 1.272 . S
O146 Sm121 2.543 . S
O146 C131 1.261 . S
O147 Sm121 2.450 . S
O147 C131 1.242 . S
O148 Sm120 2.386 . S
O148 Sm121 2.681 . S
O148 C138 1.271 . S
O149 Sm121 2.464 . S
O149 C138 1.251 . S
O150 Sm121 2.396 . S
O150 C139 1.252 . S
O151 Sm120 2.408 . S
O151 C139 1.272 . S
H152 C124 0.930 . S
H153 C125 0.929 . S
H154 C127 0.930 . S
H155 C128 0.929 . S
H156 C133 0.930 . S
H157 C134 0.929 . S
H158 C136 0.930 . S
H159 C137 0.929 . S
Sm160 C162 2.846 1_554 S
Sm160 O180 2.543 1_554 S
Sm160 O181 2.450 1_554 S
Sm160 O182 2.681 . S
Sm160 O183 2.464 . S
Sm160 O184 2.396 . S
Sm160 O188 2.386 . S
Sm160 O191 2.408 . S
Sm161 C171 2.846 . S
Sm161 O182 2.386 . S
Sm161 O185 2.408 . S
Sm161 O186 2.543 . S
Sm161 O187 2.450 . S
Sm161 O188 2.681 . S
Sm161 O189 2.464 . S
Sm161 O190 2.396 . S
C162 Sm160 2.846 1_556 S
C162 C163 1.506 . S
C162 O180 1.261 . S
C162 O181 1.242 . S
C163 C162 1.506 . S
C163 C164 1.358 . S
C163 C168 1.382 . S
C164 C163 1.358 . S
C164 C165 1.385 . S
C164 H192 0.930 . S
C165 C164 1.385 . S
C165 C166 1.395 . S
C165 H193 0.929 . S
C166 C165 1.395 . S
C166 C167 1.335 . S
C167 C166 1.335 . S
C167 C168 1.398 . S
C167 H194 0.930 . S
C168 C163 1.382 . S
C168 C167 1.398 . S
C168 H195 0.929 . S
C169 O182 1.271 . S
C169 O183 1.251 . S
C170 O184 1.252 . S
C170 O185 1.272 . S
C171 Sm161 2.846 . S
C171 C172 1.506 . S
C171 O186 1.261 . S
C171 O187 1.242 . S
C172 C171 1.506 . S
C172 C173 1.358 . S
C172 C177 1.382 . S
C173 C172 1.358 . S
C173 C174 1.385 . S
C173 H196 0.930 . S
C174 C173 1.385 . S
C174 C175 1.395 . S
C174 H197 0.929 . S
C175 C174 1.395 . S
C175 C176 1.335 . S
C176 C175 1.335 . S
C176 C177 1.398 . S
C176 H198 0.930 . S
C177 C172 1.382 . S
C177 C176 1.398 . S
C177 H199 0.929 . S
C178 O188 1.271 . S
C178 O189 1.251 . S
C179 O190 1.252 . S
C179 O191 1.272 . S
O180 Sm160 2.543 1_556 S
O180 C162 1.261 . S
O181 Sm160 2.450 1_556 S
O181 C162 1.242 . S
O182 Sm160 2.681 . S
O182 Sm161 2.386 . S
O182 C169 1.271 . S
O183 Sm160 2.464 . S
O183 C169 1.251 . S
O184 Sm160 2.396 . S
O184 C170 1.252 . S
O185 Sm161 2.408 . S
O185 C170 1.272 . S
O186 Sm161 2.543 . S
O186 C171 1.261 . S
O187 Sm161 2.450 . S
O187 C171 1.242 . S
O188 Sm160 2.386 . S
O188 Sm161 2.681 . S
O188 C178 1.271 . S
O189 Sm161 2.464 . S
O189 C178 1.251 . S
O190 Sm161 2.396 . S
O190 C179 1.252 . S
O191 Sm160 2.408 . S
O191 C179 1.272 . S
H192 C164 0.930 . S
H193 C165 0.929 . S
H194 C167 0.930 . S
H195 C168 0.929 . S
H196 C173 0.930 . S
H197 C174 0.929 . S
H198 C176 0.930 . S
H199 C177 0.929 . S
Sm200 C202 2.846 . S
Sm200 O220 2.543 . S
Sm200 O221 2.450 . S
Sm200 O222 2.681 . S
Sm200 O223 2.464 . S
Sm200 O224 2.396 . S
Sm200 O228 2.386 . S
Sm200 O231 2.408 . S
Sm201 C211 2.846 1_556 S
Sm201 O222 2.386 . S
Sm201 O225 2.408 . S
Sm201 O226 2.543 1_556 S
Sm201 O227 2.450 1_556 S
Sm201 O228 2.681 . S
Sm201 O229 2.464 . S
Sm201 O230 2.396 . S
C202 Sm200 2.846 . S
C202 C203 1.506 . S
C202 O220 1.261 . S
C202 O221 1.242 . S
C203 C202 1.506 . S
C203 C204 1.358 . S
C203 C208 1.382 . S
C204 C203 1.358 . S
C204 C205 1.385 . S
C204 H232 0.930 . S
C205 C204 1.385 . S
C205 C206 1.395 . S
C205 H233 0.929 . S
C206 C205 1.395 . S
C206 C207 1.335 . S
C207 C206 1.335 . S
C207 C208 1.398 . S
C207 H234 0.930 . S
C208 C203 1.382 . S
C208 C207 1.398 . S
C208 H235 0.929 . S
C209 O222 1.271 . S
C209 O223 1.251 . S
C210 O224 1.252 . S
C210 O225 1.272 . S
C211 Sm201 2.846 1_554 S
C211 C212 1.506 . S
C211 O226 1.261 . S
C211 O227 1.242 . S
C212 C211 1.506 . S
C212 C213 1.358 . S
C212 C217 1.382 . S
C213 C212 1.358 . S
C213 C214 1.385 . S
C213 H236 0.930 . S
C214 C213 1.385 . S
C214 C215 1.395 . S
C214 H237 0.929 . S
C215 C214 1.395 . S
C215 C216 1.335 . S
C216 C215 1.335 . S
C216 C217 1.398 . S
C216 H238 0.930 . S
C217 C212 1.382 . S
C217 C216 1.398 . S
C217 H239 0.929 . S
C218 O228 1.271 . S
C218 O229 1.251 . S
C219 O230 1.252 . S
C219 O231 1.272 . S
O220 Sm200 2.543 . S
O220 C202 1.261 . S
O221 Sm200 2.450 . S
O221 C202 1.242 . S
O222 Sm200 2.681 . S
O222 Sm201 2.386 . S
O222 C209 1.271 . S
O223 Sm200 2.464 . S
O223 C209 1.251 . S
O224 Sm200 2.396 . S
O224 C210 1.252 . S
O225 Sm201 2.408 . S
O225 C210 1.272 . S
O226 Sm201 2.543 1_554 S
O226 C211 1.261 . S
O227 Sm201 2.450 1_554 S
O227 C211 1.242 . S
O228 Sm200 2.386 . S
O228 Sm201 2.681 . S
O228 C218 1.271 . S
O229 Sm201 2.464 . S
O229 C218 1.251 . S
O230 Sm201 2.396 . S
O230 C219 1.252 . S
O231 Sm200 2.408 . S
O231 C219 1.272 . S
H232 C204 0.930 . S
H233 C205 0.929 . S
H234 C207 0.930 . S
H235 C208 0.929 . S
H236 C213 0.930 . S
H237 C214 0.929 . S
H238 C216 0.930 . S
H239 C217 0.929 . S
Sm240 C242 2.846 1_554 S
Sm240 O260 2.543 1_554 S
Sm240 O261 2.450 1_554 S
Sm240 O262 2.681 . S
Sm240 O263 2.464 . S
Sm240 O264 2.396 . S
Sm240 O268 2.386 . S
Sm240 O271 2.408 . S
Sm241 C251 2.846 . S
Sm241 O262 2.386 . S
Sm241 O265 2.408 . S
Sm241 O266 2.543 . S
Sm241 O267 2.450 . S
Sm241 O268 2.681 . S
Sm241 O269 2.464 . S
Sm241 O270 2.396 . S
C242 Sm240 2.846 1_556 S
C242 C243 1.506 . S
C242 O260 1.261 . S
C242 O261 1.242 . S
C243 C242 1.506 . S
C243 C244 1.358 . S
C243 C248 1.382 . S
C244 C243 1.358 . S
C244 C245 1.385 . S
C244 H272 0.930 . S
C245 C244 1.385 . S
C245 C246 1.395 . S
C245 H273 0.929 . S
C246 C245 1.395 . S
C246 C247 1.335 . S
C247 C246 1.335 . S
C247 C248 1.398 . S
C247 H274 0.930 . S
C248 C243 1.382 . S
C248 C247 1.398 . S
C248 H275 0.929 . S
C249 O262 1.271 . S
C249 O263 1.251 . S
C250 O264 1.252 . S
C250 O265 1.272 . S
C251 Sm241 2.846 . S
C251 C252 1.506 . S
C251 O266 1.261 . S
C251 O267 1.242 . S
C252 C251 1.506 . S
C252 C253 1.358 . S
C252 C257 1.382 . S
C253 C252 1.358 . S
C253 C254 1.385 . S
C253 H276 0.930 . S
C254 C253 1.385 . S
C254 C255 1.395 . S
C254 H277 0.929 . S
C255 C254 1.395 . S
C255 C256 1.335 . S
C256 C255 1.335 . S
C256 C257 1.398 . S
C256 H278 0.930 . S
C257 C252 1.382 . S
C257 C256 1.398 . S
C257 H279 0.929 . S
C258 O268 1.271 . S
C258 O269 1.251 . S
C259 O270 1.252 . S
C259 O271 1.272 . S
O260 Sm240 2.543 1_556 S
O260 C242 1.261 . S
O261 Sm240 2.450 1_556 S
O261 C242 1.242 . S
O262 Sm240 2.681 . S
O262 Sm241 2.386 . S
O262 C249 1.271 . S
O263 Sm240 2.464 . S
O263 C249 1.251 . S
O264 Sm240 2.396 . S
O264 C250 1.252 . S
O265 Sm241 2.408 . S
O265 C250 1.272 . S
O266 Sm241 2.543 . S
O266 C251 1.261 . S
O267 Sm241 2.450 . S
O267 C251 1.242 . S
O268 Sm240 2.386 . S
O268 Sm241 2.681 . S
O268 C258 1.271 . S
O269 Sm241 2.464 . S
O269 C258 1.251 . S
O270 Sm241 2.396 . S
O270 C259 1.252 . S
O271 Sm240 2.408 . S
O271 C259 1.272 . S
H272 C244 0.930 . S
H273 C245 0.929 . S
H274 C247 0.930 . S
H275 C248 0.929 . S
H276 C253 0.930 . S
H277 C254 0.929 . S
H278 C256 0.930 . S
H279 C257 0.929 . S
Sm280 C282 2.846 . S
Sm280 O300 2.543 . S
Sm280 O301 2.450 . S
Sm280 O302 2.681 . S
Sm280 O303 2.464 . S
Sm280 O304 2.396 . S
Sm280 O308 2.386 . S
Sm280 O311 2.408 . S
Sm281 C291 2.846 1_556 S
Sm281 O302 2.386 . S
Sm281 O305 2.408 . S
Sm281 O306 2.543 1_556 S
Sm281 O307 2.450 1_556 S
Sm281 O308 2.681 . S
Sm281 O309 2.464 . S
Sm281 O310 2.396 . S
C282 Sm280 2.846 . S
C282 C283 1.506 . S
C282 O300 1.261 . S
C282 O301 1.242 . S
C283 C282 1.506 . S
C283 C284 1.358 . S
C283 C288 1.382 . S
C284 C283 1.358 . S
C284 C285 1.385 . S
C284 H312 0.930 . S
C285 C284 1.385 . S
C285 C286 1.395 . S
C285 H313 0.929 . S
C286 C285 1.395 . S
C286 C287 1.335 . S
C287 C286 1.335 . S
C287 C288 1.398 . S
C287 H314 0.930 . S
C288 C283 1.382 . S
C288 C287 1.398 . S
C288 H315 0.929 . S
C289 O302 1.271 . S
C289 O303 1.251 . S
C290 O304 1.252 . S
C290 O305 1.272 . S
C291 Sm281 2.846 1_554 S
C291 C292 1.506 . S
C291 O306 1.261 . S
C291 O307 1.242 . S
C292 C291 1.506 . S
C292 C293 1.358 . S
C292 C297 1.382 . S
C293 C292 1.358 . S
C293 C294 1.385 . S
C293 H316 0.930 . S
C294 C293 1.385 . S
C294 C295 1.395 . S
C294 H317 0.929 . S
C295 C294 1.395 . S
C295 C296 1.335 . S
C296 C295 1.335 . S
C296 C297 1.398 . S
C296 H318 0.930 . S
C297 C292 1.382 . S
C297 C296 1.398 . S
C297 H319 0.929 . S
C298 O308 1.271 . S
C298 O309 1.251 . S
C299 O310 1.252 . S
C299 O311 1.272 . S
O300 Sm280 2.543 . S
O300 C282 1.261 . S
O301 Sm280 2.450 . S
O301 C282 1.242 . S
O302 Sm280 2.681 . S
O302 Sm281 2.386 . S
O302 C289 1.271 . S
O303 Sm280 2.464 . S
O303 C289 1.251 . S
O304 Sm280 2.396 . S
O304 C290 1.252 . S
O305 Sm281 2.408 . S
O305 C290 1.272 . S
O306 Sm281 2.543 1_554 S
O306 C291 1.261 . S
O307 Sm281 2.450 1_554 S
O307 C291 1.242 . S
O308 Sm280 2.386 . S
O308 Sm281 2.681 . S
O308 C298 1.271 . S
O309 Sm281 2.464 . S
O309 C298 1.251 . S
O310 Sm281 2.396 . S
O310 C299 1.252 . S
O311 Sm280 2.408 . S
O311 C299 1.272 . S
H312 C284 0.930 . S
H313 C285 0.929 . S
H314 C287 0.930 . S
H315 C288 0.929 . S
H316 C293 0.930 . S
H317 C294 0.929 . S
H318 C296 0.930 . S
H319 C297 0.929 . S
Sm320 C322 2.846 . S
Sm320 O340 2.543 . S
Sm320 O341 2.450 . S
Sm320 O342 2.681 . S
Sm320 O343 2.464 . S
Sm320 O344 2.396 . S
Sm320 O348 2.386 . S
Sm320 O351 2.408 . S
Sm321 C331 2.846 . S
Sm321 O342 2.386 . S
Sm321 O345 2.408 . S
Sm321 O346 2.543 . S
Sm321 O347 2.450 . S
Sm321 O348 2.681 . S
Sm321 O349 2.464 . S
Sm321 O350 2.396 . S
C322 Sm320 2.846 . S
C322 C323 1.506 . S
C322 O340 1.261 . S
C322 O341 1.242 . S
C323 C322 1.506 . S
C323 C324 1.358 . S
C323 C328 1.382 . S
C324 C323 1.358 . S
C324 C325 1.385 . S
C324 H352 0.930 . S
C325 C324 1.385 . S
C325 C326 1.395 . S
C325 H353 0.929 . S
C326 C325 1.395 . S
C326 C327 1.335 . S
C327 C326 1.335 . S
C327 C328 1.398 . S
C327 H354 0.930 . S
C328 C323 1.382 . S
C328 C327 1.398 . S
C328 H355 0.929 . S
C329 O342 1.271 . S
C329 O343 1.251 . S
C330 O344 1.252 . S
C330 O345 1.272 . S
C331 Sm321 2.846 . S
C331 C332 1.506 . S
C331 O346 1.261 . S
C331 O347 1.242 . S
C332 C331 1.506 . S
C332 C333 1.358 . S
C332 C337 1.382 . S
C333 C332 1.358 . S
C333 C334 1.385 . S
C333 H356 0.930 . S
C334 C333 1.385 . S
C334 C335 1.395 . S
C334 H357 0.929 . S
C335 C334 1.395 . S
C335 C336 1.335 . S
C336 C335 1.335 . S
C336 C337 1.398 . S
C336 H358 0.930 . S
C337 C332 1.382 . S
C337 C336 1.398 . S
C337 H359 0.929 . S
C338 O348 1.271 . S
C338 O349 1.251 . S
C339 O350 1.252 . S
C339 O351 1.272 . S
O340 Sm320 2.543 . S
O340 C322 1.261 . S
O341 Sm320 2.450 . S
O341 C322 1.242 . S
O342 Sm320 2.681 . S
O342 Sm321 2.386 . S
O342 C329 1.271 . S
O343 Sm320 2.464 . S
O343 C329 1.251 . S
O344 Sm320 2.396 . S
O344 C330 1.252 . S
O345 Sm321 2.408 . S
O345 C330 1.272 . S
O346 Sm321 2.543 . S
O346 C331 1.261 . S
O347 Sm321 2.450 . S
O347 C331 1.242 . S
O348 Sm320 2.386 . S
O348 Sm321 2.681 . S
O348 C338 1.271 . S
O349 Sm321 2.464 . S
O349 C338 1.251 . S
O350 Sm321 2.396 . S
O350 C339 1.252 . S
O351 Sm320 2.408 . S
O351 C339 1.272 . S
H352 C324 0.930 . S
H353 C325 0.929 . S
H354 C327 0.930 . S
H355 C328 0.929 . S
H356 C333 0.930 . S
H357 C334 0.929 . S
H358 C336 0.930 . S
H359 C337 0.929 . S
Sm360 C362 2.846 . S
Sm360 O380 2.543 . S
Sm360 O381 2.450 . S
Sm360 O382 2.681 . S
Sm360 O383 2.464 . S
Sm360 O384 2.396 . S
Sm360 O388 2.386 . S
Sm360 O391 2.408 . S
Sm361 C371 2.846 . S
Sm361 O382 2.386 . S
Sm361 O385 2.408 . S
Sm361 O386 2.543 . S
Sm361 O387 2.450 . S
Sm361 O388 2.681 . S
Sm361 O389 2.464 . S
Sm361 O390 2.396 . S
C362 Sm360 2.846 . S
C362 C363 1.506 . S
C362 O380 1.261 . S
C362 O381 1.242 . S
C363 C362 1.506 . S
C363 C364 1.358 . S
C363 C368 1.382 . S
C364 C363 1.358 . S
C364 C365 1.385 . S
C364 H392 0.930 . S
C365 C364 1.385 . S
C365 C366 1.395 . S
C365 H393 0.929 . S
C366 C365 1.395 . S
C366 C367 1.335 . S
C367 C366 1.335 . S
C367 C368 1.398 . S
C367 H394 0.930 . S
C368 C363 1.382 . S
C368 C367 1.398 . S
C368 H395 0.929 . S
C369 O382 1.271 . S
C369 O383 1.251 . S
C370 O384 1.252 . S
C370 O385 1.272 . S
C371 Sm361 2.846 . S
C371 C372 1.506 . S
C371 O386 1.261 . S
C371 O387 1.242 . S
C372 C371 1.506 . S
C372 C373 1.358 . S
C372 C377 1.382 . S
C373 C372 1.358 . S
C373 C374 1.385 . S
C373 H396 0.930 . S
C374 C373 1.385 . S
C374 C375 1.395 . S
C374 H397 0.929 . S
C375 C374 1.395 . S
C375 C376 1.335 . S
C376 C375 1.335 . S
C376 C377 1.398 . S
C376 H398 0.930 . S
C377 C372 1.382 . S
C377 C376 1.398 . S
C377 H399 0.929 . S
C378 O388 1.271 . S
C378 O389 1.251 . S
C379 O390 1.252 . S
C379 O391 1.272 . S
O380 Sm360 2.543 . S
O380 C362 1.261 . S
O381 Sm360 2.450 . S
O381 C362 1.242 . S
O382 Sm360 2.681 . S
O382 Sm361 2.386 . S
O382 C369 1.271 . S
O383 Sm360 2.464 . S
O383 C369 1.251 . S
O384 Sm360 2.396 . S
O384 C370 1.252 . S
O385 Sm361 2.408 . S
O385 C370 1.272 . S
O386 Sm361 2.543 . S
O386 C371 1.261 . S
O387 Sm361 2.450 . S
O387 C371 1.242 . S
O388 Sm360 2.386 . S
O388 Sm361 2.681 . S
O388 C378 1.271 . S
O389 Sm361 2.464 . S
O389 C378 1.251 . S
O390 Sm361 2.396 . S
O390 C379 1.252 . S
O391 Sm360 2.408 . S
O391 C379 1.272 . S
H392 C364 0.930 . S
H393 C365 0.929 . S
H394 C367 0.930 . S
H395 C368 0.929 . S
H396 C373 0.930 . S
H397 C374 0.929 . S
H398 C376 0.930 . S
H399 C377 0.929 . S
Sm400 C402 2.846 . S
Sm400 O420 2.543 . S
Sm400 O421 2.450 . S
Sm400 O422 2.681 . S
Sm400 O423 2.464 . S
Sm400 O424 2.396 . S
Sm400 O428 2.386 . S
Sm400 O431 2.408 . S
Sm401 C411 2.846 . S
Sm401 O422 2.386 . S
Sm401 O425 2.408 . S
Sm401 O426 2.543 . S
Sm401 O427 2.450 . S
Sm401 O428 2.681 . S
Sm401 O429 2.464 . S
Sm401 O430 2.396 . S
C402 Sm400 2.846 . S
C402 C403 1.506 . S
C402 O420 1.261 . S
C402 O421 1.242 . S
C403 C402 1.506 . S
C403 C404 1.358 . S
C403 C408 1.382 . S
C404 C403 1.358 . S
C404 C405 1.385 . S
C404 H432 0.930 . S
C405 C404 1.385 . S
C405 C406 1.395 . S
C405 H433 0.929 . S
C406 C405 1.395 . S
C406 C407 1.335 . S
C407 C406 1.335 . S
C407 C408 1.398 . S
C407 H434 0.930 . S
C408 C403 1.382 . S
C408 C407 1.398 . S
C408 H435 0.929 . S
C409 O422 1.271 . S
C409 O423 1.251 . S
C410 O424 1.252 . S
C410 O425 1.272 . S
C411 Sm401 2.846 . S
C411 C412 1.506 . S
C411 O426 1.261 . S
C411 O427 1.242 . S
C412 C411 1.506 . S
C412 C413 1.358 . S
C412 C417 1.382 . S
C413 C412 1.358 . S
C413 C414 1.385 . S
C413 H436 0.930 . S
C414 C413 1.385 . S
C414 C415 1.395 . S
C414 H437 0.929 . S
C415 C414 1.395 . S
C415 C416 1.335 . S
C416 C415 1.335 . S
C416 C417 1.398 . S
C416 H438 0.930 . S
C417 C412 1.382 . S
C417 C416 1.398 . S
C417 H439 0.929 . S
C418 O428 1.271 . S
C418 O429 1.251 . S
C419 O430 1.252 . S
C419 O431 1.272 . S
O420 Sm400 2.543 . S
O420 C402 1.261 . S
O421 Sm400 2.450 . S
O421 C402 1.242 . S
O422 Sm400 2.681 . S
O422 Sm401 2.386 . S
O422 C409 1.271 . S
O423 Sm400 2.464 . S
O423 C409 1.251 . S
O424 Sm400 2.396 . S
O424 C410 1.252 . S
O425 Sm401 2.408 . S
O425 C410 1.272 . S
O426 Sm401 2.543 . S
O426 C411 1.261 . S
O427 Sm401 2.450 . S
O427 C411 1.242 . S
O428 Sm400 2.386 . S
O428 Sm401 2.681 . S
O428 C418 1.271 . S
O429 Sm401 2.464 . S
O429 C418 1.251 . S
O430 Sm401 2.396 . S
O430 C419 1.252 . S
O431 Sm400 2.408 . S
O431 C419 1.272 . S
H432 C404 0.930 . S
H433 C405 0.929 . S
H434 C407 0.930 . S
H435 C408 0.929 . S
H436 C413 0.930 . S
H437 C414 0.929 . S
H438 C416 0.930 . S
H439 C417 0.929 . S
Sm440 C442 2.846 . S
Sm440 O460 2.543 . S
Sm440 O461 2.450 . S
Sm440 O462 2.681 . S
Sm440 O463 2.464 . S
Sm440 O464 2.396 . S
Sm440 O468 2.386 . S
Sm440 O471 2.408 . S
Sm441 C451 2.846 . S
Sm441 O462 2.386 . S
Sm441 O465 2.408 . S
Sm441 O466 2.543 . S
Sm441 O467 2.450 . S
Sm441 O468 2.681 . S
Sm441 O469 2.464 . S
Sm441 O470 2.396 . S
C442 Sm440 2.846 . S
C442 C443 1.506 . S
C442 O460 1.261 . S
C442 O461 1.242 . S
C443 C442 1.506 . S
C443 C444 1.358 . S
C443 C448 1.382 . S
C444 C443 1.358 . S
C444 C445 1.385 . S
C444 H472 0.930 . S
C445 C444 1.385 . S
C445 C446 1.395 . S
C445 H473 0.929 . S
C446 C445 1.395 . S
C446 C447 1.335 . S
C447 C446 1.335 . S
C447 C448 1.398 . S
C447 H474 0.930 . S
C448 C443 1.382 . S
C448 C447 1.398 . S
C448 H475 0.929 . S
C449 O462 1.271 . S
C449 O463 1.251 . S
C450 O464 1.252 . S
C450 O465 1.272 . S
C451 Sm441 2.846 . S
C451 C452 1.506 . S
C451 O466 1.261 . S
C451 O467 1.242 . S
C452 C451 1.506 . S
C452 C453 1.358 . S
C452 C457 1.382 . S
C453 C452 1.358 . S
C453 C454 1.385 . S
C453 H476 0.930 . S
C454 C453 1.385 . S
C454 C455 1.395 . S
C454 H477 0.929 . S
C455 C454 1.395 . S
C455 C456 1.335 . S
C456 C455 1.335 . S
C456 C457 1.398 . S
C456 H478 0.930 . S
C457 C452 1.382 . S
C457 C456 1.398 . S
C457 H479 0.929 . S
C458 O468 1.271 . S
C458 O469 1.251 . S
C459 O470 1.252 . S
C459 O471 1.272 . S
O460 Sm440 2.543 . S
O460 C442 1.261 . S
O461 Sm440 2.450 . S
O461 C442 1.242 . S
O462 Sm440 2.681 . S
O462 Sm441 2.386 . S
O462 C449 1.271 . S
O463 Sm440 2.464 . S
O463 C449 1.251 . S
O464 Sm440 2.396 . S
O464 C450 1.252 . S
O465 Sm441 2.408 . S
O465 C450 1.272 . S
O466 Sm441 2.543 . S
O466 C451 1.261 . S
O467 Sm441 2.450 . S
O467 C451 1.242 . S
O468 Sm440 2.386 . S
O468 Sm441 2.681 . S
O468 C458 1.271 . S
O469 Sm441 2.464 . S
O469 C458 1.251 . S
O470 Sm441 2.396 . S
O470 C459 1.252 . S
O471 Sm440 2.408 . S
O471 C459 1.272 . S
H472 C444 0.930 . S
H473 C445 0.929 . S
H474 C447 0.930 . S
H475 C448 0.929 . S
H476 C453 0.930 . S
H477 C454 0.929 . S
H478 C456 0.930 . S
H479 C457 0.929 . S
Sm480 C482 2.846 . S
Sm480 O500 2.543 . S
Sm480 O501 2.450 . S
Sm480 O502 2.681 . S
Sm480 O503 2.464 . S
Sm480 O504 2.396 . S
Sm480 O508 2.386 . S
Sm480 O511 2.408 . S
Sm481 C491 2.846 . S
Sm481 O502 2.386 . S
Sm481 O505 2.408 . S
Sm481 O506 2.543 . S
Sm481 O507 2.450 . S
Sm481 O508 2.681 . S
Sm481 O509 2.464 . S
Sm481 O510 2.396 . S
C482 Sm480 2.846 . S
C482 C483 1.506 . S
C482 O500 1.261 . S
C482 O501 1.242 . S
C483 C482 1.506 . S
C483 C484 1.358 . S
C483 C488 1.382 . S
C484 C483 1.358 . S
C484 C485 1.385 . S
C484 H512 0.930 . S
C485 C484 1.385 . S
C485 C486 1.395 . S
C485 H513 0.929 . S
C486 C485 1.395 . S
C486 C487 1.335 . S
C487 C486 1.335 . S
C487 C488 1.398 . S
C487 H514 0.930 . S
C488 C483 1.382 . S
C488 C487 1.398 . S
C488 H515 0.929 . S
C489 O502 1.271 . S
C489 O503 1.251 . S
C490 O504 1.252 . S
C490 O505 1.272 . S
C491 Sm481 2.846 . S
C491 C492 1.506 . S
C491 O506 1.261 . S
C491 O507 1.242 . S
C492 C491 1.506 . S
C492 C493 1.358 . S
C492 C497 1.382 . S
C493 C492 1.358 . S
C493 C494 1.385 . S
C493 H516 0.930 . S
C494 C493 1.385 . S
C494 C495 1.395 . S
C494 H517 0.929 . S
C495 C494 1.395 . S
C495 C496 1.335 . S
C496 C495 1.335 . S
C496 C497 1.398 . S
C496 H518 0.930 . S
C497 C492 1.382 . S
C497 C496 1.398 . S
C497 H519 0.929 . S
C498 O508 1.271 . S
C498 O509 1.251 . S
C499 O510 1.252 . S
C499 O511 1.272 . S
O500 Sm480 2.543 . S
O500 C482 1.261 . S
O501 Sm480 2.450 . S
O501 C482 1.242 . S
O502 Sm480 2.681 . S
O502 Sm481 2.386 . S
O502 C489 1.271 . S
O503 Sm480 2.464 . S
O503 C489 1.251 . S
O504 Sm480 2.396 . S
O504 C490 1.252 . S
O505 Sm481 2.408 . S
O505 C490 1.272 . S
O506 Sm481 2.543 . S
O506 C491 1.261 . S
O507 Sm481 2.450 . S
O507 C491 1.242 . S
O508 Sm480 2.386 . S
O508 Sm481 2.681 . S
O508 C498 1.271 . S
O509 Sm481 2.464 . S
O509 C498 1.251 . S
O510 Sm481 2.396 . S
O510 C499 1.252 . S
O511 Sm480 2.408 . S
O511 C499 1.272 . S
H512 C484 0.930 . S
H513 C485 0.929 . S
H514 C487 0.930 . S
H515 C488 0.929 . S
H516 C493 0.930 . S
H517 C494 0.929 . S
H518 C496 0.930 . S
H519 C497 0.929 . S
Sm520 C522 2.846 . S
Sm520 O540 2.543 . S
Sm520 O541 2.450 . S
Sm520 O542 2.681 . S
Sm520 O543 2.464 . S
Sm520 O544 2.396 . S
Sm520 O548 2.386 . S
Sm520 O551 2.408 . S
Sm521 C531 2.846 . S
Sm521 O542 2.386 . S
Sm521 O545 2.408 . S
Sm521 O546 2.543 . S
Sm521 O547 2.450 . S
Sm521 O548 2.681 . S
Sm521 O549 2.464 . S
Sm521 O550 2.396 . S
C522 Sm520 2.846 . S
C522 C523 1.506 . S
C522 O540 1.261 . S
C522 O541 1.242 . S
C523 C522 1.506 . S
C523 C524 1.358 . S
C523 C528 1.382 . S
C524 C523 1.358 . S
C524 C525 1.385 . S
C524 H552 0.930 . S
C525 C524 1.385 . S
C525 C526 1.395 . S
C525 H553 0.929 . S
C526 C525 1.395 . S
C526 C527 1.335 . S
C527 C526 1.335 . S
C527 C528 1.398 . S
C527 H554 0.930 . S
C528 C523 1.382 . S
C528 C527 1.398 . S
C528 H555 0.929 . S
C529 O542 1.271 . S
C529 O543 1.251 . S
C530 O544 1.252 . S
C530 O545 1.272 . S
C531 Sm521 2.846 . S
C531 C532 1.506 . S
C531 O546 1.261 . S
C531 O547 1.242 . S
C532 C531 1.506 . S
C532 C533 1.358 . S
C532 C537 1.382 . S
C533 C532 1.358 . S
C533 C534 1.385 . S
C533 H556 0.930 . S
C534 C533 1.385 . S
C534 C535 1.395 . S
C534 H557 0.929 . S
C535 C534 1.395 . S
C535 C536 1.335 . S
C536 C535 1.335 . S
C536 C537 1.398 . S
C536 H558 0.930 . S
C537 C532 1.382 . S
C537 C536 1.398 . S
C537 H559 0.929 . S
C538 O548 1.271 . S
C538 O549 1.251 . S
C539 O550 1.252 . S
C539 O551 1.272 . S
O540 Sm520 2.543 . S
O540 C522 1.261 . S
O541 Sm520 2.450 . S
O541 C522 1.242 . S
O542 Sm520 2.681 . S
O542 Sm521 2.386 . S
O542 C529 1.271 . S
O543 Sm520 2.464 . S
O543 C529 1.251 . S
O544 Sm520 2.396 . S
O544 C530 1.252 . S
O545 Sm521 2.408 . S
O545 C530 1.272 . S
O546 Sm521 2.543 . S
O546 C531 1.261 . S
O547 Sm521 2.450 . S
O547 C531 1.242 . S
O548 Sm520 2.386 . S
O548 Sm521 2.681 . S
O548 C538 1.271 . S
O549 Sm521 2.464 . S
O549 C538 1.251 . S
O550 Sm521 2.396 . S
O550 C539 1.252 . S
O551 Sm520 2.408 . S
O551 C539 1.272 . S
H552 C524 0.930 . S
H553 C525 0.929 . S
H554 C527 0.930 . S
H555 C528 0.929 . S
H556 C533 0.930 . S
H557 C534 0.929 . S
H558 C536 0.930 . S
H559 C537 0.929 . S
Sm560 C562 2.846 . S
Sm560 O580 2.543 . S
Sm560 O581 2.450 . S
Sm560 O582 2.681 . S
Sm560 O583 2.464 . S
Sm560 O584 2.396 . S
Sm560 O588 2.386 . S
Sm560 O591 2.408 . S
Sm561 C571 2.846 . S
Sm561 O582 2.386 . S
Sm561 O585 2.408 . S
Sm561 O586 2.543 . S
Sm561 O587 2.450 . S
Sm561 O588 2.681 . S
Sm561 O589 2.464 . S
Sm561 O590 2.396 . S
C562 Sm560 2.846 . S
C562 C563 1.506 . S
C562 O580 1.261 . S
C562 O581 1.242 . S
C563 C562 1.506 . S
C563 C564 1.358 . S
C563 C568 1.382 . S
C564 C563 1.358 . S
C564 C565 1.385 . S
C564 H592 0.930 . S
C565 C564 1.385 . S
C565 C566 1.395 . S
C565 H593 0.929 . S
C566 C565 1.395 . S
C566 C567 1.335 . S
C567 C566 1.335 . S
C567 C568 1.398 . S
C567 H594 0.930 . S
C568 C563 1.382 . S
C568 C567 1.398 . S
C568 H595 0.929 . S
C569 O582 1.271 . S
C569 O583 1.251 . S
C570 O584 1.252 . S
C570 O585 1.272 . S
C571 Sm561 2.846 . S
C571 C572 1.506 . S
C571 O586 1.261 . S
C571 O587 1.242 . S
C572 C571 1.506 . S
C572 C573 1.358 . S
C572 C577 1.382 . S
C573 C572 1.358 . S
C573 C574 1.385 . S
C573 H596 0.930 . S
C574 C573 1.385 . S
C574 C575 1.395 . S
C574 H597 0.929 . S
C575 C574 1.395 . S
C575 C576 1.335 . S
C576 C575 1.335 . S
C576 C577 1.398 . S
C576 H598 0.930 . S
C577 C572 1.382 . S
C577 C576 1.398 . S
C577 H599 0.929 . S
C578 O588 1.271 . S
C578 O589 1.251 . S
C579 O590 1.252 . S
C579 O591 1.272 . S
O580 Sm560 2.543 . S
O580 C562 1.261 . S
O581 Sm560 2.450 . S
O581 C562 1.242 . S
O582 Sm560 2.681 . S
O582 Sm561 2.386 . S
O582 C569 1.271 . S
O583 Sm560 2.464 . S
O583 C569 1.251 . S
O584 Sm560 2.396 . S
O584 C570 1.252 . S
O585 Sm561 2.408 . S
O585 C570 1.272 . S
O586 Sm561 2.543 . S
O586 C571 1.261 . S
O587 Sm561 2.450 . S
O587 C571 1.242 . S
O588 Sm560 2.386 . S
O588 Sm561 2.681 . S
O588 C578 1.271 . S
O589 Sm561 2.464 . S
O589 C578 1.251 . S
O590 Sm561 2.396 . S
O590 C579 1.252 . S
O591 Sm560 2.408 . S
O591 C579 1.272 . S
H592 C564 0.930 . S
H593 C565 0.929 . S
H594 C567 0.930 . S
H595 C568 0.929 . S
H596 C573 0.930 . S
H597 C574 0.929 . S
H598 C576 0.930 . S
H599 C577 0.929 . S
Sm600 C602 2.846 . S
Sm600 O620 2.543 . S
Sm600 O621 2.450 . S
Sm600 O622 2.681 . S
Sm600 O623 2.464 . S
Sm600 O624 2.396 . S
Sm600 O628 2.386 . S
Sm600 O631 2.408 . S
Sm601 C611 2.846 . S
Sm601 O622 2.386 . S
Sm601 O625 2.408 . S
Sm601 O626 2.543 . S
Sm601 O627 2.450 . S
Sm601 O628 2.681 . S
Sm601 O629 2.464 . S
Sm601 O630 2.396 . S
C602 Sm600 2.846 . S
C602 C603 1.506 . S
C602 O620 1.261 . S
C602 O621 1.242 . S
C603 C602 1.506 . S
C603 C604 1.358 . S
C603 C608 1.382 . S
C604 C603 1.358 . S
C604 C605 1.385 . S
C604 H632 0.930 . S
C605 C604 1.385 . S
C605 C606 1.395 . S
C605 H633 0.929 . S
C606 C605 1.395 . S
C606 C607 1.335 . S
C607 C606 1.335 . S
C607 C608 1.398 . S
C607 H634 0.930 . S
C608 C603 1.382 . S
C608 C607 1.398 . S
C608 H635 0.929 . S
C609 O622 1.271 . S
C609 O623 1.251 . S
C610 O624 1.252 . S
C610 O625 1.272 . S
C611 Sm601 2.846 . S
C611 C612 1.506 . S
C611 O626 1.261 . S
C611 O627 1.242 . S
C612 C611 1.506 . S
C612 C613 1.358 . S
C612 C617 1.382 . S
C613 C612 1.358 . S
C613 C614 1.385 . S
C613 H636 0.930 . S
C614 C613 1.385 . S
C614 C615 1.395 . S
C614 H637 0.929 . S
C615 C614 1.395 . S
C615 C616 1.335 . S
C616 C615 1.335 . S
C616 C617 1.398 . S
C616 H638 0.930 . S
C617 C612 1.382 . S
C617 C616 1.398 . S
C617 H639 0.929 . S
C618 O628 1.271 . S
C618 O629 1.251 . S
C619 O630 1.252 . S
C619 O631 1.272 . S
O620 Sm600 2.543 . S
O620 C602 1.261 . S
O621 Sm600 2.450 . S
O621 C602 1.242 . S
O622 Sm600 2.681 . S
O622 Sm601 2.386 . S
O622 C609 1.271 . S
O623 Sm600 2.464 . S
O623 C609 1.251 . S
O624 Sm600 2.396 . S
O624 C610 1.252 . S
O625 Sm601 2.408 . S
O625 C610 1.272 . S
O626 Sm601 2.543 . S
O626 C611 1.261 . S
O627 Sm601 2.450 . S
O627 C611 1.242 . S
O628 Sm600 2.386 . S
O628 Sm601 2.681 . S
O628 C618 1.271 . S
O629 Sm601 2.464 . S
O629 C618 1.251 . S
O630 Sm601 2.396 . S
O630 C619 1.252 . S
O631 Sm600 2.408 . S
O631 C619 1.272 . S
H632 C604 0.930 . S
H633 C605 0.929 . S
H634 C607 0.930 . S
H635 C608 0.929 . S
H636 C613 0.930 . S
H637 C614 0.929 . S
H638 C616 0.930 . S
H639 C617 0.929 . S
H640 C658 0.951 . S
H641 C660 0.951 . S
H642 C662 0.950 . S
H643 C663 0.950 . S
H644 C665 0.950 . S
H645 C668 0.950 . S
H646 C669 0.950 . S
H647 C671 0.950 . S
H648 C672 0.950 . S
H649 C673 0.951 . S
H650 C675 0.951 . S
H651 C677 0.950 . S
H652 C678 0.950 . S
H653 C680 0.976 . S
H654 C683 0.950 . S
H655 C684 0.950 . S
H656 C686 0.950 . S
H657 C687 0.950 . S
C658 H640 0.951 . S
C658 C659 1.366 . S
C658 C660 1.388 . S
C659 C658 1.366 . S
C659 C663 1.385 . S
C660 H641 0.951 . S
C660 C658 1.388 . S
C660 C661 1.366 . S
C661 C660 1.366 . S
C661 C662 1.414 . S
C661 C664 1.499 . S
C662 H642 0.950 . S
C662 C661 1.414 . S
C662 C663 1.374 . S
C663 H643 0.950 . S
C663 C659 1.385 . S
C663 C662 1.374 . S
C664 C661 1.499 . S
C664 C665 1.373 . S
C664 C666 1.389 . S
C665 H644 0.950 . S
C665 C664 1.373 . S
C665 C681 1.377 . S
C666 C664 1.389 . S
C666 C667 1.524 . S
C666 C680 1.377 . S
C667 C666 1.524 . S
C667 C668 1.397 . S
C667 C672 1.363 . S
C668 H645 0.950 . S
C668 C667 1.397 . S
C668 C669 1.334 . S
C669 H646 0.950 . S
C669 C668 1.334 . S
C669 C670 1.287 . S
C670 C669 1.287 . S
C670 C671 1.524 . S
C670 H689 0.913 . S
C671 H647 0.950 . S
C671 C670 1.524 . S
C671 C672 1.415 . S
C672 H648 0.950 . S
C672 C667 1.363 . S
C672 C671 1.415 . S
C673 H649 0.951 . S
C673 C674 1.366 . S
C673 C675 1.388 . S
C674 C673 1.366 . S
C674 C678 1.385 . S
C675 H650 0.951 . S
C675 C673 1.388 . S
C675 C676 1.366 . S
C676 C675 1.366 . S
C676 C677 1.414 . S
C676 C679 1.448 1_545 S
C677 H651 0.950 . S
C677 C676 1.414 . S
C677 C678 1.374 . S
C678 H652 0.950 . S
C678 C674 1.385 . S
C678 C677 1.374 . S
C679 C676 1.448 1_565 S
C679 C680 1.394 . S
C679 C681 1.421 . S
C680 H653 0.976 . S
C680 C666 1.377 . S
C680 C679 1.394 . S
C681 C665 1.377 . S
C681 C679 1.421 . S
C681 C682 1.524 . S
C682 C681 1.524 . S
C682 C683 1.397 . S
C682 C687 1.363 . S
C683 H654 0.950 . S
C683 C682 1.397 . S
C683 C684 1.334 1_565 S
C684 H655 0.950 . S
C684 C683 1.334 1_545 S
C684 C685 1.287 . S
C685 C684 1.287 . S
C685 C686 1.524 1_545 S
C685 H688 0.999 . S
C686 H656 0.950 . S
C686 C685 1.524 1_565 S
C686 C687 1.415 . S
C687 H657 0.950 . S
C687 C682 1.363 . S
C687 C686 1.415 . S
H688 C685 0.999 . S
H689 C670 0.913 . S
H690 C708 0.951 . S
H691 C710 0.951 . S
H692 C712 0.950 . S
H693 C713 0.950 . S
H694 C715 0.950 . S
H695 C718 0.950 . S
H696 C719 0.950 . S
H697 C721 0.950 . S
H698 C722 0.950 . S
H699 C723 0.951 . S
H700 C725 0.951 . S
H701 C727 0.950 . S
H702 C728 0.950 . S
H703 C730 0.950 . S
H704 C733 0.950 . S
H705 C734 0.950 . S
H706 C736 0.950 . S
H707 C737 0.950 . S
C708 H690 0.951 . S
C708 C709 1.366 . S
C708 C710 1.388 . S
C709 C708 1.366 . S
C709 C713 1.385 . S
C710 H691 0.951 . S
C710 C708 1.388 . S
C710 C711 1.366 . S
C711 C710 1.366 . S
C711 C712 1.414 . S
C711 C714 1.499 . S
C712 H692 0.950 . S
C712 C711 1.414 . S
C712 C713 1.374 . S
C713 H693 0.950 . S
C713 C709 1.385 . S
C713 C712 1.374 . S
C714 C711 1.499 . S
C714 C715 1.373 . S
C714 C716 1.389 . S
C715 H694 0.950 . S
C715 C714 1.373 . S
C715 C731 1.377 . S
C716 C714 1.389 . S
C716 C717 1.524 . S
C716 C730 1.377 . S
C717 C716 1.524 . S
C717 C718 1.397 . S
C717 C722 1.363 . S
C718 H695 0.950 . S
C718 C717 1.397 . S
C718 C719 1.334 . S
C719 H696 0.950 . S
C719 C718 1.334 . S
C719 C720 1.287 . S
C720 C719 1.287 . S
C720 C721 1.524 . S
C720 H739 0.913 . S
C721 H697 0.950 . S
C721 C720 1.524 . S
C721 C722 1.415 . S
C722 H698 0.950 . S
C722 C717 1.363 . S
C722 C721 1.415 . S
C723 H699 0.951 . S
C723 C724 1.366 . S
C723 C725 1.388 . S
C724 C723 1.366 . S
C724 C728 1.385 . S
C725 H700 0.951 . S
C725 C723 1.388 . S
C725 C726 1.366 . S
C726 C725 1.366 . S
C726 C727 1.414 . S
C726 C729 1.497 1_455 S
C727 H701 0.950 . S
C727 C726 1.414 . S
C727 C728 1.374 . S
C728 H702 0.950 . S
C728 C724 1.385 . S
C728 C727 1.374 . S
C729 C726 1.497 1_655 S
C729 C730 1.374 . S
C729 C731 1.390 . S
C730 H703 0.950 . S
C730 C716 1.377 . S
C730 C729 1.374 . S
C731 C715 1.377 . S
C731 C729 1.390 . S
C731 C732 1.524 1_655 S
C732 C731 1.524 1_455 S
C732 C733 1.397 . S
C732 C737 1.363 . S
C733 H704 0.950 . S
C733 C732 1.397 . S
C733 C734 1.334 . S
C734 H705 0.950 . S
C734 C733 1.334 . S
C734 C735 1.287 . S
C735 C734 1.287 . S
C735 C736 1.524 . S
C735 H738 0.999 . S
C736 H706 0.950 . S
C736 C735 1.524 . S
C736 C737 1.415 . S
C737 H707 0.950 . S
C737 C732 1.363 . S
C737 C736 1.415 . S
H738 C735 0.999 . S
H739 C720 0.913 . S
H740 C758 0.951 . S
H741 C760 0.951 . S
H742 C762 0.950 . S
H743 C763 0.950 . S
H744 C765 0.950 . S
H745 C768 0.950 . S
H746 C769 0.950 . S
H747 C771 0.950 . S
H748 C772 0.950 . S
H749 C773 0.951 . S
H750 C775 0.951 . S
H751 C777 0.950 . S
H752 C778 0.950 . S
H753 C780 0.950 . S
H754 C783 0.950 . S
H755 C784 0.950 . S
H756 C786 0.950 . S
H757 C787 0.950 . S
C758 H740 0.951 . S
C758 C759 1.366 . S
C758 C760 1.388 . S
C759 C758 1.366 . S
C759 C763 1.385 . S
C760 H741 0.951 . S
C760 C758 1.388 . S
C760 C761 1.366 . S
C761 C760 1.366 . S
C761 C762 1.414 . S
C761 C764 1.501 . S
C762 H742 0.950 . S
C762 C761 1.414 . S
C762 C763 1.374 . S
C763 H743 0.950 . S
C763 C759 1.385 . S
C763 C762 1.374 . S
C764 C761 1.501 . S
C764 C765 1.372 1_565 S
C764 C766 1.388 1_565 S
C765 H744 0.950 . S
C765 C764 1.372 1_545 S
C765 C781 1.377 . S
C766 C764 1.388 1_545 S
C766 C767 1.524 1_545 S
C766 C780 1.377 . S
C767 C766 1.524 1_565 S
C767 C768 1.397 . S
C767 C772 1.363 1_565 S
C768 H745 0.950 . S
C768 C767 1.397 . S
C768 C769 1.334 . S
C769 H746 0.950 . S
C769 C768 1.334 . S
C769 C770 1.287 . S
C770 C769 1.287 . S
C770 C771 1.524 . S
C770 H789 0.913 . S
C771 H747 0.950 . S
C771 C770 1.524 . S
C771 C772 1.415 1_565 S
C772 H748 0.950 . S
C772 C767 1.363 1_545 S
C772 C771 1.415 1_545 S
C773 H749 0.951 . S
C773 C774 1.366 . S
C773 C775 1.388 . S
C774 C773 1.366 . S
C774 C778 1.385 . S
C775 H750 0.951 . S
C775 C773 1.388 . S
C775 C776 1.366 . S
C776 C775 1.366 . S
C776 C777 1.414 . S
C776 C779 1.499 . S
C777 H751 0.950 . S
C777 C776 1.414 . S
C777 C778 1.374 . S
C778 H752 0.950 . S
C778 C774 1.385 . S
C778 C777 1.374 . S
C779 C776 1.499 . S
C779 C780 1.373 . S
C779 C781 1.389 . S
C780 H753 0.950 . S
C780 C766 1.377 . S
C780 C779 1.373 . S
C781 C765 1.377 . S
C781 C779 1.389 . S
C781 C782 1.524 . S
C782 C781 1.524 . S
C782 C783 1.397 . S
C782 C787 1.363 . S
C783 H754 0.950 . S
C783 C782 1.397 . S
C783 C784 1.334 . S
C784 H755 0.950 . S
C784 C783 1.334 . S
C784 C785 1.287 . S
C785 C784 1.287 . S
C785 C786 1.524 . S
C785 H788 0.999 . S
C786 H756 0.950 . S
C786 C785 1.524 . S
C786 C787 1.415 . S
C787 H757 0.950 . S
C787 C782 1.363 . S
C787 C786 1.415 . S
H788 C785 0.999 . S
H789 C770 0.913 . S
H790 C808 0.951 . S
H791 C810 0.951 . S
H792 C812 0.950 . S
H793 C813 0.950 . S
H794 C815 0.950 1_655 S
H795 C818 0.950 . S
H796 C819 0.950 . S
H797 C821 0.950 . S
H798 C822 0.950 . S
H799 C823 0.951 . S
H800 C825 0.951 . S
H801 C827 0.950 . S
H802 C828 0.950 . S
H803 C830 0.950 . S
H804 C833 0.950 . S
H805 C834 0.950 . S
H806 C836 0.950 . S
H807 C837 0.950 . S
C808 H790 0.951 . S
C808 C809 1.366 . S
C808 C810 1.388 . S
C809 C808 1.366 . S
C809 C813 1.385 . S
C810 H791 0.951 . S
C810 C808 1.388 . S
C810 C811 1.366 . S
C811 C810 1.366 . S
C811 C812 1.414 . S
C811 C814 1.498 1_655 S
C812 H792 0.950 . S
C812 C811 1.414 . S
C812 C813 1.374 . S
C813 H793 0.950 . S
C813 C809 1.385 . S
C813 C812 1.374 . S
C814 C811 1.498 1_455 S
C814 C815 1.373 . S
C814 C816 1.389 . S
C815 H794 0.950 1_455 S
C815 C814 1.373 . S
C815 C831 1.377 . S
C816 C814 1.389 . S
C816 C817 1.524 . S
C816 C830 1.377 . S
C817 C816 1.524 . S
C817 C818 1.397 1_455 S
C817 C822 1.363 . S
C818 H795 0.950 . S
C818 C817 1.397 1_655 S
C818 C819 1.334 . S
C819 H796 0.950 . S
C819 C818 1.334 . S
C819 C820 1.287 1_655 S
C820 C819 1.287 1_455 S
C820 C821 1.524 . S
C820 H839 0.913 1_455 S
C821 H797 0.950 . S
C821 C820 1.524 . S
C821 C822 1.415 . S
C822 H798 0.950 . S
C822 C817 1.363 . S
C822 C821 1.415 . S
C823 H799 0.951 . S
C823 C824 1.366 . S
C823 C825 1.388 . S
C824 C823 1.366 . S
C824 C828 1.385 . S
C825 H800 0.951 . S
C825 C823 1.388 . S
C825 C826 1.366 . S
C826 C825 1.366 . S
C826 C827 1.414 . S
C826 C829 1.499 . S
C827 H801 0.950 . S
C827 C826 1.414 . S
C827 C828 1.374 . S
C828 H802 0.950 . S
C828 C824 1.385 . S
C828 C827 1.374 . S
C829 C826 1.499 . S
C829 C830 1.373 . S
C829 C831 1.389 . S
C830 H803 0.950 . S
C830 C816 1.377 . S
C830 C829 1.373 . S
C831 C815 1.377 . S
C831 C829 1.389 . S
C831 C832 1.524 . S
C832 C831 1.524 . S
C832 C833 1.397 . S
C832 C837 1.363 . S
C833 H804 0.950 . S
C833 C832 1.397 . S
C833 C834 1.334 . S
C834 H805 0.950 . S
C834 C833 1.334 . S
C834 C835 1.287 . S
C835 C834 1.287 . S
C835 C836 1.524 . S
C835 H838 0.999 . S
C836 H806 0.950 . S
C836 C835 1.524 . S
C836 C837 1.415 . S
C837 H807 0.950 . S
C837 C832 1.363 . S
C837 C836 1.415 . S
H838 C835 0.999 . S
H839 C820 0.913 1_655 S
H840 C858 0.951 . S
H841 C860 0.951 . S
H842 C862 0.950 . S
H843 C863 0.950 . S
H844 C865 0.950 . S
H845 C868 0.950 . S
H846 C869 0.950 . S
H847 C871 0.950 . S
H848 C872 0.950 . S
H849 C873 0.951 . S
H850 C875 0.951 . S
H851 C877 0.950 . S
H852 C878 0.950 . S
H853 C880 0.950 . S
H854 C883 0.950 . S
H855 C884 0.950 . S
H856 C886 0.950 . S
H857 C887 0.950 . S
C858 H840 0.951 . S
C858 C859 1.366 . S
C858 C860 1.388 . S
C859 C858 1.366 . S
C859 C863 1.385 . S
C860 H841 0.951 . S
C860 C858 1.388 . S
C860 C861 1.366 . S
C861 C860 1.366 . S
C861 C862 1.414 . S
C861 C864 1.499 . S
C862 H842 0.950 . S
C862 C861 1.414 . S
C862 C863 1.374 . S
C863 H843 0.950 . S
C863 C859 1.385 . S
C863 C862 1.374 . S
C864 C861 1.499 . S
C864 C865 1.373 . S
C864 C866 1.389 . S
C865 H844 0.950 . S
C865 C864 1.373 . S
C865 C881 1.377 . S
C866 C864 1.389 . S
C866 C867 1.524 1_554 S
C866 C880 1.377 1_554 S
C867 C866 1.524 1_556 S
C867 C868 1.397 . S
C867 C872 1.363 . S
C868 H845 0.950 . S
C868 C867 1.397 . S
C868 C869 1.334 . S
C869 H846 0.950 . S
C869 C868 1.334 . S
C869 C870 1.287 . S
C870 C869 1.287 . S
C870 C871 1.524 . S
C870 H889 0.913 . S
C871 H847 0.950 . S
C871 C870 1.524 . S
C871 C872 1.415 . S
C872 H848 0.950 . S
C872 C867 1.363 . S
C872 C871 1.415 . S
C873 H849 0.951 . S
C873 C874 1.366 . S
C873 C875 1.388 . S
C874 C873 1.366 . S
C874 C878 1.385 . S
C875 H850 0.951 . S
C875 C873 1.388 . S
C875 C876 1.366 . S
C876 C875 1.366 . S
C876 C877 1.414 . S
C876 C879 1.499 1_556 S
C877 H851 0.950 . S
C877 C876 1.414 . S
C877 C878 1.374 . S
C878 H852 0.950 . S
C878 C874 1.385 . S
C878 C877 1.374 . S
C879 C876 1.499 1_554 S
C879 C880 1.373 1_554 S
C879 C881 1.389 . S
C880 H853 0.950 . S
C880 C866 1.377 1_556 S
C880 C879 1.373 1_556 S
C881 C865 1.377 . S
C881 C879 1.389 . S
C881 C882 1.524 . S
C882 C881 1.524 . S
C882 C883 1.397 . S
C882 C887 1.363 . S
C883 H854 0.950 . S
C883 C882 1.397 . S
C883 C884 1.334 . S
C884 H855 0.950 . S
C884 C883 1.334 . S
C884 C885 1.287 . S
C885 C884 1.287 . S
C885 C886 1.524 . S
C885 H888 0.999 . S
C886 H856 0.950 . S
C886 C885 1.524 . S
C886 C887 1.415 . S
C887 H857 0.950 . S
C887 C882 1.363 . S
C887 C886 1.415 . S
H888 C885 0.999 . S
H889 C870 0.913 . S
H890 C908 0.940 1_556 S
H891 C910 0.951 . S
H892 C912 0.950 . S
H893 C913 0.950 . S
H894 C915 0.950 . S
H895 C918 0.950 1_554 S
H896 C919 0.950 . S
H897 C921 0.950 . S
H898 C922 0.950 . S
H899 C923 0.951 . S
H900 C925 0.951 . S
H901 C927 0.950 . S
H902 C928 0.950 . S
H903 C930 0.950 . S
H904 C933 0.950 . S
H905 C934 0.950 . S
H906 C936 0.950 . S
H907 C937 0.950 . S
C908 H890 0.940 1_554 S
C908 C909 1.384 . S
C908 C910 1.381 1_554 S
C909 C908 1.384 . S
C909 C913 1.385 . S
C910 H891 0.951 . S
C910 C908 1.381 1_556 S
C910 C911 1.366 1_556 S
C911 C910 1.366 1_554 S
C911 C912 1.414 . S
C911 C914 1.499 1_554 S
C912 H892 0.950 . S
C912 C911 1.414 . S
C912 C913 1.374 . S
C913 H893 0.950 . S
C913 C909 1.385 . S
C913 C912 1.374 . S
C914 C911 1.499 1_556 S
C914 C915 1.373 1_556 S
C914 C916 1.389 . S
C915 H894 0.950 . S
C915 C914 1.373 1_554 S
C915 C931 1.377 1_554 S
C916 C914 1.389 . S
C916 C917 1.524 . S
C916 C930 1.377 . S
C917 C916 1.524 . S
C917 C918 1.397 . S
C917 C922 1.363 . S
C918 H895 0.950 1_556 S
C918 C917 1.397 . S
C918 C919 1.334 . S
C919 H896 0.950 . S
C919 C918 1.334 . S
C919 C920 1.287 . S
C920 C919 1.287 . S
C920 C921 1.524 . S
C920 H939 0.913 . S
C921 H897 0.950 . S
C921 C920 1.524 . S
C921 C922 1.415 . S
C922 H898 0.950 . S
C922 C917 1.363 . S
C922 C921 1.415 . S
C923 H899 0.951 . S
C923 C924 1.366 . S
C923 C925 1.388 . S
C924 C923 1.366 . S
C924 C928 1.385 . S
C925 H900 0.951 . S
C925 C923 1.388 . S
C925 C926 1.366 . S
C926 C925 1.366 . S
C926 C927 1.414 . S
C926 C929 1.499 . S
C927 H901 0.950 . S
C927 C926 1.414 . S
C927 C928 1.374 . S
C928 H902 0.950 . S
C928 C924 1.385 . S
C928 C927 1.374 . S
C929 C926 1.499 . S
C929 C930 1.373 . S
C929 C931 1.389 . S
C930 H903 0.950 . S
C930 C916 1.377 . S
C930 C929 1.373 . S
C931 C915 1.377 1_556 S
C931 C929 1.389 . S
C931 C932 1.525 . S
C932 C931 1.525 . S
C932 C933 1.398 . S
C932 C937 1.361 1_556 S
C933 H904 0.950 . S
C933 C932 1.398 . S
C933 C934 1.334 . S
C934 H905 0.950 . S
C934 C933 1.334 . S
C934 C935 1.287 1_556 S
C935 C934 1.287 1_554 S
C935 C936 1.524 . S
C935 H938 0.999 . S
C936 H906 0.950 . S
C936 C935 1.524 . S
C936 C937 1.415 . S
C937 H907 0.950 . S
C937 C932 1.361 1_554 S
C937 C936 1.415 . S
H938 C935 0.999 . S
H939 C920 0.913 . S
H940 C958 0.951 . S
H941 C960 0.951 . S
H942 C962 0.950 . S
H943 C963 0.950 . S
H944 C965 0.950 1_556 S
H945 C968 0.950 . S
H946 C969 0.950 . S
H947 C971 0.950 . S
H948 C972 0.950 . S
H949 C973 0.951 . S
H950 C975 0.951 . S
H951 C977 0.950 . S
H952 C978 0.950 . S
H953 C980 0.950 . S
H954 C983 0.950 . S
H955 C984 0.950 . S
H956 C986 0.950 . S
H957 C987 0.950 . S
C958 H940 0.951 . S
C958 C959 1.366 . S
C958 C960 1.388 . S
C959 C958 1.366 . S
C959 C963 1.385 . S
C960 H941 0.951 . S
C960 C958 1.388 . S
C960 C961 1.366 . S
C961 C960 1.366 . S
C961 C962 1.414 . S
C961 C964 1.499 . S
C962 H942 0.950 . S
C962 C961 1.414 . S
C962 C963 1.374 . S
C963 H943 0.950 . S
C963 C959 1.385 . S
C963 C962 1.374 . S
C964 C961 1.499 . S
C964 C965 1.373 . S
C964 C966 1.389 . S
C965 H944 0.950 1_554 S
C965 C964 1.373 . S
C965 C981 1.377 1_554 S
C966 C964 1.389 . S
C966 C967 1.524 . S
C966 C980 1.377 . S
C967 C966 1.524 . S
C967 C968 1.397 . S
C967 C972 1.363 . S
C968 H945 0.950 . S
C968 C967 1.397 . S
C968 C969 1.334 . S
C969 H946 0.950 . S
C969 C968 1.334 . S
C969 C970 1.287 . S
C970 C969 1.287 . S
C970 C971 1.524 . S
C970 H989 0.913 . S
C971 H947 0.950 . S
C971 C970 1.524 . S
C971 C972 1.415 . S
C972 H948 0.950 . S
C972 C967 1.363 . S
C972 C971 1.415 . S
C973 H949 0.951 . S
C973 C974 1.366 . S
C973 C975 1.388 . S
C974 C973 1.366 . S
C974 C978 1.385 . S
C975 H950 0.951 . S
C975 C973 1.388 . S
C975 C976 1.366 . S
C976 C975 1.366 . S
C976 C977 1.414 . S
C976 C979 1.499 1_556 S
C977 H951 0.950 . S
C977 C976 1.414 . S
C977 C978 1.374 . S
C978 H952 0.950 . S
C978 C974 1.385 . S
C978 C977 1.374 . S
C979 C976 1.499 1_554 S
C979 C980 1.373 . S
C979 C981 1.389 1_554 S
C980 H953 0.950 . S
C980 C966 1.377 . S
C980 C979 1.373 . S
C981 C965 1.377 1_556 S
C981 C979 1.389 1_556 S
C981 C982 1.524 . S
C982 C981 1.524 . S
C982 C983 1.397 . S
C982 C987 1.363 . S
C983 H954 0.950 . S
C983 C982 1.397 . S
C983 C984 1.334 . S
C984 H955 0.950 . S
C984 C983 1.334 . S
C984 C985 1.287 . S
C985 C984 1.287 . S
C985 C986 1.524 . S
C985 H988 0.999 . S
C986 H956 0.950 . S
C986 C985 1.524 . S
C986 C987 1.415 . S
C987 H957 0.950 . S
C987 C982 1.363 . S
C987 C986 1.415 . S
H988 C985 0.999 . S
H989 C970 0.913 . S
H990 C1008 0.951 . S
H991 C1010 0.951 . S
H992 C1012 0.950 . S
H993 C1013 0.935 1_556 S
H994 C1015 0.950 . S
H995 C1018 0.937 1_556 S
H996 C1019 0.950 . S
H997 C1021 0.950 . S
H998 C1022 0.950 . S
H999 C1023 0.951 . S
H1000 C1025 0.951 . S
H1001 C1027 0.950 . S
H1002 C1028 0.950 . S
H1003 C1030 0.950 . S
H1004 C1033 0.950 . S
H1005 C1034 0.950 . S
H1006 C1036 0.950 . S
H1007 C1037 0.950 . S
C1008 H990 0.951 . S
C1008 C1009 1.366 . S
C1008 C1010 1.388 . S
C1009 C1008 1.366 . S
C1009 C1013 1.410 . S
C1010 H991 0.951 . S
C1010 C1008 1.388 . S
C1010 C1011 1.366 . S
C1011 C1010 1.366 . S
C1011 C1012 1.414 1_554 S
C1011 C1014 1.499 1_554 S
C1012 H992 0.950 . S
C1012 C1011 1.414 1_556 S
C1012 C1013 1.364 1_556 S
C1013 H993 0.935 1_554 S
C1013 C1009 1.410 . S
C1013 C1012 1.364 1_554 S
C1014 C1011 1.499 1_556 S
C1014 C1015 1.373 . S
C1014 C1016 1.389 . S
C1015 H994 0.950 . S
C1015 C1014 1.373 . S
C1015 C1031 1.377 . S
C1016 C1014 1.389 . S
C1016 C1017 1.524 1_556 S
C1016 C1030 1.377 . S
C1017 C1016 1.524 1_554 S
C1017 C1018 1.403 . S
C1017 C1022 1.363 . S
C1018 H995 0.937 1_554 S
C1018 C1017 1.403 . S
C1018 C1019 1.340 . S
C1019 H996 0.950 . S
C1019 C1018 1.340 . S
C1019 C1020 1.287 . S
C1020 C1019 1.287 . S
C1020 C1021 1.524 . S
C1020 H1039 0.913 . S
C1021 H997 0.950 . S
C1021 C1020 1.524 . S
C1021 C1022 1.415 . S
C1022 H998 0.950 . S
C1022 C1017 1.363 . S
C1022 C1021 1.415 . S
C1023 H999 0.951 . S
C1023 C1024 1.366 . S
C1023 C1025 1.388 . S
C1024 C1023 1.366 . S
C1024 C1028 1.385 . S
C1025 H1000 0.951 . S
C1025 C1023 1.388 . S
C1025 C1026 1.366 . S
C1026 C1025 1.366 . S
C1026 C1027 1.414 . S
C1026 C1029 1.499 . S
C1027 H1001 0.950 . S
C1027 C1026 1.414 . S
C1027 C1028 1.374 . S
C1028 H1002 0.950 . S
C1028 C1024 1.385 . S
C1028 C1027 1.374 . S
C1029 C1026 1.499 . S
C1029 C1030 1.373 . S
C1029 C1031 1.389 . S
C1030 H1003 0.950 . S
C1030 C1016 1.377 . S
C1030 C1029 1.373 . S
C1031 C1015 1.377 . S
C1031 C1029 1.389 . S
C1031 C1032 1.524 . S
C1032 C1031 1.524 . S
C1032 C1033 1.397 . S
C1032 C1037 1.363 . S
C1033 H1004 0.950 . S
C1033 C1032 1.397 . S
C1033 C1034 1.334 . S
C1034 H1005 0.950 . S
C1034 C1033 1.334 . S
C1034 C1035 1.287 . S
C1035 C1034 1.287 . S
C1035 C1036 1.524 . S
C1035 H1038 0.999 . S
C1036 H1006 0.950 . S
C1036 C1035 1.524 . S
C1036 C1037 1.415 . S
C1037 H1007 0.950 . S
C1037 C1032 1.363 . S
C1037 C1036 1.415 . S
H1038 C1035 0.999 . S
H1039 C1020 0.913 . S
H1040 C1058 0.951 . S
H1041 C1060 0.951 . S
H1042 C1062 0.950 . S
H1043 C1063 0.950 . S
H1044 C1065 0.950 . S
H1045 C1068 0.950 . S
H1046 C1069 0.950 . S
H1047 C1071 0.950 . S
H1048 C1072 0.950 . S
H1049 C1073 0.951 . S
H1050 C1075 0.951 . S
H1051 C1077 0.950 . S
H1052 C1078 0.950 . S
H1053 C1080 0.950 . S
H1054 C1083 0.950 . S
H1055 C1084 0.950 . S
H1056 C1086 0.950 . S
H1057 C1087 0.950 . S
C1058 H1040 0.951 . S
C1058 C1059 1.366 . S
C1058 C1060 1.388 . S
C1059 C1058 1.366 . S
C1059 C1063 1.385 . S
C1060 H1041 0.951 . S
C1060 C1058 1.388 . S
C1060 C1061 1.366 . S
C1061 C1060 1.366 . S
C1061 C1062 1.414 . S
C1061 C1064 1.499 . S
C1062 H1042 0.950 . S
C1062 C1061 1.414 . S
C1062 C1063 1.374 . S
C1063 H1043 0.950 . S
C1063 C1059 1.385 . S
C1063 C1062 1.374 . S
C1064 C1061 1.499 . S
C1064 C1065 1.373 . S
C1064 C1066 1.389 . S
C1065 H1044 0.950 . S
C1065 C1064 1.373 . S
C1065 C1081 1.377 . S
C1066 C1064 1.389 . S
C1066 C1067 1.524 . S
C1066 C1080 1.377 . S
C1067 C1066 1.524 . S
C1067 C1068 1.397 . S
C1067 C1072 1.363 . S
C1068 H1045 0.950 . S
C1068 C1067 1.397 . S
C1068 C1069 1.334 . S
C1069 H1046 0.950 . S
C1069 C1068 1.334 . S
C1069 C1070 1.287 . S
C1070 C1069 1.287 . S
C1070 C1071 1.524 . S
C1070 H1089 0.913 . S
C1071 H1047 0.950 . S
C1071 C1070 1.524 . S
C1071 C1072 1.415 . S
C1072 H1048 0.950 . S
C1072 C1067 1.363 . S
C1072 C1071 1.415 . S
C1073 H1049 0.951 . S
C1073 C1074 1.366 . S
C1073 C1075 1.388 . S
C1074 C1073 1.366 . S
C1074 C1078 1.385 . S
C1075 H1050 0.951 . S
C1075 C1073 1.388 . S
C1075 C1076 1.366 . S
C1076 C1075 1.366 . S
C1076 C1077 1.414 . S
C1076 C1079 1.499 . S
C1077 H1051 0.950 . S
C1077 C1076 1.414 . S
C1077 C1078 1.374 . S
C1078 H1052 0.950 . S
C1078 C1074 1.385 . S
C1078 C1077 1.374 . S
C1079 C1076 1.499 . S
C1079 C1080 1.373 . S
C1079 C1081 1.389 . S
C1080 H1053 0.950 . S
C1080 C1066 1.377 . S
C1080 C1079 1.373 . S
C1081 C1065 1.377 . S
C1081 C1079 1.389 . S
C1081 C1082 1.524 . S
C1082 C1081 1.524 . S
C1082 C1083 1.397 . S
C1082 C1087 1.363 . S
C1083 H1054 0.950 . S
C1083 C1082 1.397 . S
C1083 C1084 1.334 . S
C1084 H1055 0.950 . S
C1084 C1083 1.334 . S
C1084 C1085 1.287 . S
C1085 C1084 1.287 . S
C1085 C1086 1.524 . S
C1085 H1088 0.999 . S
C1086 H1056 0.950 . S
C1086 C1085 1.524 . S
C1086 C1087 1.415 . S
C1087 H1057 0.950 . S
C1087 C1082 1.363 . S
C1087 C1086 1.415 . S
H1088 C1085 0.999 . S
H1089 C1070 0.913 . S
H1090 C1108 0.951 . S
H1091 C1110 0.951 . S
H1092 C1112 0.950 . S
H1093 C1113 0.950 . S
H1094 C1115 0.950 . S
H1095 C1118 0.950 . S
H1096 C1119 0.950 . S
H1097 C1121 0.950 . S
H1098 C1122 0.950 . S
H1099 C1123 0.951 . S
H1100 C1125 0.951 . S
H1101 C1127 0.950 . S
H1102 C1128 0.950 . S
H1103 C1130 0.950 . S
H1104 C1133 0.950 . S
H1105 C1134 0.950 . S
H1106 C1136 0.950 . S
H1107 C1137 0.950 . S
C1108 H1090 0.951 . S
C1108 C1109 1.366 . S
C1108 C1110 1.388 . S
C1109 C1108 1.366 . S
C1109 C1113 1.385 . S
C1110 H1091 0.951 . S
C1110 C1108 1.388 . S
C1110 C1111 1.366 . S
C1111 C1110 1.366 . S
C1111 C1112 1.414 . S
C1111 C1114 1.499 . S
C1112 H1092 0.950 . S
C1112 C1111 1.414 . S
C1112 C1113 1.374 . S
C1113 H1093 0.950 . S
C1113 C1109 1.385 . S
C1113 C1112 1.374 . S
C1114 C1111 1.499 . S
C1114 C1115 1.373 . S
C1114 C1116 1.389 . S
C1115 H1094 0.950 . S
C1115 C1114 1.373 . S
C1115 C1131 1.377 . S
C1116 C1114 1.389 . S
C1116 C1117 1.524 . S
C1116 C1130 1.377 . S
C1117 C1116 1.524 . S
C1117 C1118 1.397 . S
C1117 C1122 1.363 . S
C1118 H1095 0.950 . S
C1118 C1117 1.397 . S
C1118 C1119 1.334 . S
C1119 H1096 0.950 . S
C1119 C1118 1.334 . S
C1119 C1120 1.287 . S
C1120 C1119 1.287 . S
C1120 C1121 1.524 . S
C1120 H1139 0.913 . S
C1121 H1097 0.950 . S
C1121 C1120 1.524 . S
C1121 C1122 1.415 . S
C1122 H1098 0.950 . S
C1122 C1117 1.363 . S
C1122 C1121 1.415 . S
C1123 H1099 0.951 . S
C1123 C1124 1.366 . S
C1123 C1125 1.388 . S
C1124 C1123 1.366 . S
C1124 C1128 1.385 . S
C1125 H1100 0.951 . S
C1125 C1123 1.388 . S
C1125 C1126 1.366 . S
C1126 C1125 1.366 . S
C1126 C1127 1.414 . S
C1126 C1129 1.499 . S
C1127 H1101 0.950 . S
C1127 C1126 1.414 . S
C1127 C1128 1.374 . S
C1128 H1102 0.950 . S
C1128 C1124 1.385 . S
C1128 C1127 1.374 . S
C1129 C1126 1.499 . S
C1129 C1130 1.373 . S
C1129 C1131 1.389 . S
C1130 H1103 0.950 . S
C1130 C1116 1.377 . S
C1130 C1129 1.373 . S
C1131 C1115 1.377 . S
C1131 C1129 1.389 . S
C1131 C1132 1.524 . S
C1132 C1131 1.524 . S
C1132 C1133 1.397 . S
C1132 C1137 1.363 . S
C1133 H1104 0.950 . S
C1133 C1132 1.397 . S
C1133 C1134 1.334 . S
C1134 H1105 0.950 . S
C1134 C1133 1.334 . S
C1134 C1135 1.287 . S
C1135 C1134 1.287 . S
C1135 C1136 1.524 . S
C1135 H1138 0.999 . S
C1136 H1106 0.950 . S
C1136 C1135 1.524 . S
C1136 C1137 1.415 . S
C1137 H1107 0.950 . S
C1137 C1132 1.363 . S
C1137 C1136 1.415 . S
H1138 C1135 0.999 . S
H1139 C1120 0.913 . S
H1140 C1158 0.951 . S
H1141 C1160 0.951 . S
H1142 C1162 0.950 . S
H1143 C1163 0.950 . S
H1144 C1165 0.950 . S
H1145 C1168 0.950 . S
H1146 C1169 0.950 . S
H1147 C1171 0.950 . S
H1148 C1172 0.950 . S
H1149 C1173 0.951 . S
H1150 C1175 0.951 . S
H1151 C1177 0.950 . S
H1152 C1178 0.950 . S
H1153 C1180 0.950 . S
H1154 C1183 0.950 . S
H1155 C1184 0.950 . S
H1156 C1186 0.950 . S
H1157 C1187 0.950 . S
C1158 H1140 0.951 . S
C1158 C1159 1.366 . S
C1158 C1160 1.388 . S
C1159 C1158 1.366 . S
C1159 C1163 1.385 . S
C1160 H1141 0.951 . S
C1160 C1158 1.388 . S
C1160 C1161 1.366 . S
C1161 C1160 1.366 . S
C1161 C1162 1.414 . S
C1161 C1164 1.499 . S
C1162 H1142 0.950 . S
C1162 C1161 1.414 . S
C1162 C1163 1.374 . S
C1163 H1143 0.950 . S
C1163 C1159 1.385 . S
C1163 C1162 1.374 . S
C1164 C1161 1.499 . S
C1164 C1165 1.373 . S
C1164 C1166 1.389 . S
C1165 H1144 0.950 . S
C1165 C1164 1.373 . S
C1165 C1181 1.377 . S
C1166 C1164 1.389 . S
C1166 C1167 1.524 . S
C1166 C1180 1.377 . S
C1167 C1166 1.524 . S
C1167 C1168 1.397 . S
C1167 C1172 1.363 . S
C1168 H1145 0.950 . S
C1168 C1167 1.397 . S
C1168 C1169 1.334 . S
C1169 H1146 0.950 . S
C1169 C1168 1.334 . S
C1169 C1170 1.287 . S
C1170 C1169 1.287 . S
C1170 C1171 1.524 . S
C1170 H1189 0.913 . S
C1171 H1147 0.950 . S
C1171 C1170 1.524 . S
C1171 C1172 1.415 . S
C1172 H1148 0.950 . S
C1172 C1167 1.363 . S
C1172 C1171 1.415 . S
C1173 H1149 0.951 . S
C1173 C1174 1.366 . S
C1173 C1175 1.388 . S
C1174 C1173 1.366 . S
C1174 C1178 1.385 . S
C1175 H1150 0.951 . S
C1175 C1173 1.388 . S
C1175 C1176 1.366 . S
C1176 C1175 1.366 . S
C1176 C1177 1.414 . S
C1176 C1179 1.499 . S
C1177 H1151 0.950 . S
C1177 C1176 1.414 . S
C1177 C1178 1.374 . S
C1178 H1152 0.950 . S
C1178 C1174 1.385 . S
C1178 C1177 1.374 . S
C1179 C1176 1.499 . S
C1179 C1180 1.373 . S
C1179 C1181 1.389 . S
C1180 H1153 0.950 . S
C1180 C1166 1.377 . S
C1180 C1179 1.373 . S
C1181 C1165 1.377 . S
C1181 C1179 1.389 . S
C1181 C1182 1.524 . S
C1182 C1181 1.524 . S
C1182 C1183 1.397 . S
C1182 C1187 1.363 . S
C1183 H1154 0.950 . S
C1183 C1182 1.397 . S
C1183 C1184 1.334 . S
C1184 H1155 0.950 . S
C1184 C1183 1.334 . S
C1184 C1185 1.287 . S
C1185 C1184 1.287 . S
C1185 C1186 1.524 . S
C1185 H1188 0.999 . S
C1186 H1156 0.950 . S
C1186 C1185 1.524 . S
C1186 C1187 1.415 . S
C1187 H1157 0.950 . S
C1187 C1182 1.363 . S
C1187 C1186 1.415 . S
H1188 C1185 0.999 . S
H1189 C1170 0.913 . S
H1190 C1208 0.951 . S
H1191 C1210 0.951 . S
H1192 C1212 0.950 . S
H1193 C1213 0.950 . S
H1194 C1215 0.950 . S
H1195 C1218 0.950 . S
H1196 C1219 0.950 . S
H1197 C1221 0.950 . S
H1198 C1222 0.950 . S
H1199 C1223 0.951 . S
H1200 C1225 0.951 . S
H1201 C1227 0.950 . S
H1202 C1228 0.950 . S
H1203 C1230 0.950 . S
H1204 C1233 0.950 . S
H1205 C1234 0.950 . S
H1206 C1236 0.950 . S
H1207 C1237 0.950 . S
C1208 H1190 0.951 . S
C1208 C1209 1.366 . S
C1208 C1210 1.388 . S
C1209 C1208 1.366 . S
C1209 C1213 1.385 . S
C1210 H1191 0.951 . S
C1210 C1208 1.388 . S
C1210 C1211 1.366 . S
C1211 C1210 1.366 . S
C1211 C1212 1.414 . S
C1211 C1214 1.499 . S
C1212 H1192 0.950 . S
C1212 C1211 1.414 . S
C1212 C1213 1.374 . S
C1213 H1193 0.950 . S
C1213 C1209 1.385 . S
C1213 C1212 1.374 . S
C1214 C1211 1.499 . S
C1214 C1215 1.373 . S
C1214 C1216 1.389 . S
C1215 H1194 0.950 . S
C1215 C1214 1.373 . S
C1215 C1231 1.377 . S
C1216 C1214 1.389 . S
C1216 C1217 1.524 . S
C1216 C1230 1.377 . S
C1217 C1216 1.524 . S
C1217 C1218 1.397 . S
C1217 C1222 1.363 . S
C1218 H1195 0.950 . S
C1218 C1217 1.397 . S
C1218 C1219 1.334 . S
C1219 H1196 0.950 . S
C1219 C1218 1.334 . S
C1219 C1220 1.287 . S
C1220 C1219 1.287 . S
C1220 C1221 1.524 . S
C1220 H1239 0.913 . S
C1221 H1197 0.950 . S
C1221 C1220 1.524 . S
C1221 C1222 1.415 . S
C1222 H1198 0.950 . S
C1222 C1217 1.363 . S
C1222 C1221 1.415 . S
C1223 H1199 0.951 . S
C1223 C1224 1.366 . S
C1223 C1225 1.388 . S
C1224 C1223 1.366 . S
C1224 C1228 1.385 . S
C1225 H1200 0.951 . S
C1225 C1223 1.388 . S
C1225 C1226 1.366 . S
C1226 C1225 1.366 . S
C1226 C1227 1.414 . S
C1226 C1229 1.499 . S
C1227 H1201 0.950 . S
C1227 C1226 1.414 . S
C1227 C1228 1.374 . S
C1228 H1202 0.950 . S
C1228 C1224 1.385 . S
C1228 C1227 1.374 . S
C1229 C1226 1.499 . S
C1229 C1230 1.373 . S
C1229 C1231 1.389 . S
C1230 H1203 0.950 . S
C1230 C1216 1.377 . S
C1230 C1229 1.373 . S
C1231 C1215 1.377 . S
C1231 C1229 1.389 . S
C1231 C1232 1.524 . S
C1232 C1231 1.524 . S
C1232 C1233 1.397 . S
C1232 C1237 1.363 . S
C1233 H1204 0.950 . S
C1233 C1232 1.397 . S
C1233 C1234 1.334 . S
C1234 H1205 0.950 . S
C1234 C1233 1.334 . S
C1234 C1235 1.287 . S
C1235 C1234 1.287 . S
C1235 C1236 1.524 . S
C1235 H1238 0.999 . S
C1236 H1206 0.950 . S
C1236 C1235 1.524 . S
C1236 C1237 1.415 . S
C1237 H1207 0.950 . S
C1237 C1232 1.363 . S
C1237 C1236 1.415 . S
H1238 C1235 0.999 . S
H1239 C1220 0.913 . S
H1240 C1258 0.951 . S
H1241 C1260 0.951 . S
H1242 C1262 0.950 . S
H1243 C1263 0.950 . S
H1244 C1265 0.950 1_565 S
H1245 C1268 0.950 . S
H1246 C1269 0.934 1_565 S
H1247 C1271 0.950 . S
H1248 C1272 0.950 . S
H1249 C1273 0.951 . S
H1250 C1275 0.951 . S
H1251 C1277 0.950 . S
H1252 C1278 0.950 . S
H1253 C1280 0.950 . S
H1254 C1283 0.950 . S
H1255 C1284 0.950 . S
H1256 C1286 0.950 . S
H1257 C1287 0.950 . S
C1258 H1240 0.951 . S
C1258 C1259 1.366 . S
C1258 C1260 1.388 . S
C1259 C1258 1.366 . S
C1259 C1263 1.385 . S
C1260 H1241 0.951 . S
C1260 C1258 1.388 . S
C1260 C1261 1.366 . S
C1261 C1260 1.366 . S
C1261 C1262 1.414 . S
C1261 C1264 1.471 1_565 S
C1262 H1242 0.950 . S
C1262 C1261 1.414 . S
C1262 C1263 1.374 . S
C1263 H1243 0.950 . S
C1263 C1259 1.385 . S
C1263 C1262 1.374 . S
C1264 C1261 1.471 1_545 S
C1264 C1265 1.377 . S
C1264 C1266 1.415 . S
C1265 H1244 0.950 1_545 S
C1265 C1264 1.377 . S
C1265 C1281 1.377 . S
C1266 C1264 1.415 . S
C1266 C1267 1.524 . S
C1266 C1280 1.377 . S
C1267 C1266 1.524 . S
C1267 C1268 1.397 . S
C1267 C1272 1.363 . S
C1268 H1245 0.950 . S
C1268 C1267 1.397 . S
C1268 C1269 1.334 . S
C1269 H1246 0.934 1_545 S
C1269 C1268 1.334 . S
C1269 C1270 1.287 . S
C1270 C1269 1.287 . S
C1270 C1271 1.524 . S
C1270 H1289 0.913 . S
C1271 H1247 0.950 . S
C1271 C1270 1.524 . S
C1271 C1272 1.415 . S
C1272 H1248 0.950 . S
C1272 C1267 1.363 . S
C1272 C1271 1.415 . S
C1273 H1249 0.951 . S
C1273 C1274 1.366 . S
C1273 C1275 1.388 . S
C1274 C1273 1.366 . S
C1274 C1278 1.385 . S
C1275 H1250 0.951 . S
C1275 C1273 1.388 . S
C1275 C1276 1.366 . S
C1276 C1275 1.366 . S
C1276 C1277 1.414 . S
C1276 C1279 1.499 . S
C1277 H1251 0.950 . S
C1277 C1276 1.414 . S
C1277 C1278 1.374 . S
C1278 H1252 0.950 . S
C1278 C1274 1.385 . S
C1278 C1277 1.374 . S
C1279 C1276 1.499 . S
C1279 C1280 1.373 . S
C1279 C1281 1.389 . S
C1280 H1253 0.950 . S
C1280 C1266 1.377 . S
C1280 C1279 1.373 . S
C1281 C1265 1.377 . S
C1281 C1279 1.389 . S
C1281 C1282 1.524 . S
C1282 C1281 1.524 . S
C1282 C1283 1.397 . S
C1282 C1287 1.363 . S
C1283 H1254 0.950 . S
C1283 C1282 1.397 . S
C1283 C1284 1.334 . S
C1284 H1255 0.950 . S
C1284 C1283 1.334 . S
C1284 C1285 1.287 . S
C1285 C1284 1.287 . S
C1285 C1286 1.524 . S
C1285 H1288 0.999 . S
C1286 H1256 0.950 . S
C1286 C1285 1.524 . S
C1286 C1287 1.415 . S
C1287 H1257 0.950 . S
C1287 C1282 1.363 . S
C1287 C1286 1.415 . S
H1288 C1285 0.999 . S
H1289 C1270 0.913 . S
H1290 C1308 0.951 . S
H1291 C1310 0.951 . S
H1292 C1312 0.950 . S
H1293 C1313 0.950 . S
H1294 C1315 0.950 . S
H1295 C1318 0.950 . S
H1296 C1319 0.950 . S
H1297 C1321 0.950 . S
H1298 C1322 0.950 . S
H1299 C1323 0.951 . S
H1300 C1325 0.951 . S
H1301 C1327 0.950 . S
H1302 C1328 0.950 . S
H1303 C1330 0.950 1_655 S
H1304 C1333 0.950 1_655 S
H1305 C1334 0.992 . S
H1306 C1336 0.950 . S
H1307 C1337 0.950 . S
C1308 H1290 0.951 . S
C1308 C1309 1.366 . S
C1308 C1310 1.388 . S
C1309 C1308 1.366 . S
C1309 C1313 1.385 . S
C1310 H1291 0.951 . S
C1310 C1308 1.388 . S
C1310 C1311 1.366 . S
C1311 C1310 1.366 . S
C1311 C1312 1.414 . S
C1311 C1314 1.499 . S
C1312 H1292 0.950 . S
C1312 C1311 1.414 . S
C1312 C1313 1.374 . S
C1313 H1293 0.950 . S
C1313 C1309 1.385 . S
C1313 C1312 1.374 . S
C1314 C1311 1.499 . S
C1314 C1315 1.373 . S
C1314 C1316 1.389 . S
C1315 H1294 0.950 . S
C1315 C1314 1.373 . S
C1315 C1331 1.377 . S
C1316 C1314 1.389 . S
C1316 C1317 1.524 . S
C1316 C1330 1.377 . S
C1317 C1316 1.524 . S
C1317 C1318 1.397 . S
C1317 C1322 1.363 . S
C1318 H1295 0.950 . S
C1318 C1317 1.397 . S
C1318 C1319 1.334 . S
C1319 H1296 0.950 . S
C1319 C1318 1.334 . S
C1319 C1320 1.287 . S
C1320 C1319 1.287 . S
C1320 C1321 1.524 . S
C1320 H1339 0.913 . S
C1321 H1297 0.950 . S
C1321 C1320 1.524 . S
C1321 C1322 1.415 . S
C1322 H1298 0.950 . S
C1322 C1317 1.363 . S
C1322 C1321 1.415 . S
C1323 H1299 0.951 . S
C1323 C1324 1.366 . S
C1323 C1325 1.388 . S
C1324 C1323 1.366 . S
C1324 C1328 1.385 . S
C1325 H1300 0.951 . S
C1325 C1323 1.388 . S
C1325 C1326 1.366 . S
C1326 C1325 1.366 . S
C1326 C1327 1.414 . S
C1326 C1329 1.487 1_655 S
C1327 H1301 0.950 . S
C1327 C1326 1.414 . S
C1327 C1328 1.374 . S
C1328 H1302 0.950 . S
C1328 C1324 1.385 . S
C1328 C1327 1.374 . S
C1329 C1326 1.487 1_455 S
C1329 C1330 1.375 . S
C1329 C1331 1.399 . S
C1330 H1303 0.950 1_455 S
C1330 C1316 1.377 . S
C1330 C1329 1.375 . S
C1331 C1315 1.377 . S
C1331 C1329 1.399 . S
C1331 C1332 1.524 . S
C1332 C1331 1.524 . S
C1332 C1333 1.397 . S
C1332 C1337 1.363 . S
C1333 H1304 0.950 1_455 S
C1333 C1332 1.397 . S
C1333 C1334 1.329 1_455 S
C1334 H1305 0.992 . S
C1334 C1333 1.329 1_655 S
C1334 C1335 1.252 1_655 S
C1335 C1334 1.252 1_455 S
C1335 C1336 1.524 . S
C1335 H1338 0.999 . S
C1336 H1306 0.950 . S
C1336 C1335 1.524 . S
C1336 C1337 1.415 . S
C1337 H1307 0.950 . S
C1337 C1332 1.363 . S
C1337 C1336 1.415 . S
H1338 C1335 0.999 . S
H1339 C1320 0.913 . S
H1340 C1358 0.951 . S
H1341 C1360 0.951 . S
H1342 C1362 0.950 . S
H1343 C1363 0.950 . S
H1344 C1365 0.950 . S
H1345 C1368 0.950 . S
H1346 C1369 0.950 . S
H1347 C1371 0.950 . S
H1348 C1372 0.950 . S
H1349 C1373 0.951 . S
H1350 C1375 0.951 . S
H1351 C1377 0.950 . S
H1352 C1378 0.950 . S
H1353 C1380 0.950 1_545 S
H1354 C1383 0.950 . S
H1355 C1384 0.950 . S
H1356 C1386 0.950 . S
H1357 C1387 0.950 . S
C1358 H1340 0.951 . S
C1358 C1359 1.366 . S
C1358 C1360 1.388 . S
C1359 C1358 1.366 . S
C1359 C1363 1.385 . S
C1360 H1341 0.951 . S
C1360 C1358 1.388 . S
C1360 C1361 1.366 . S
C1361 C1360 1.366 . S
C1361 C1362 1.414 . S
C1361 C1364 1.499 . S
C1362 H1342 0.950 . S
C1362 C1361 1.414 . S
C1362 C1363 1.374 . S
C1363 H1343 0.950 . S
C1363 C1359 1.385 . S
C1363 C1362 1.374 . S
C1364 C1361 1.499 . S
C1364 C1365 1.373 . S
C1364 C1366 1.389 . S
C1365 H1344 0.950 . S
C1365 C1364 1.373 . S
C1365 C1381 1.377 . S
C1366 C1364 1.389 . S
C1366 C1367 1.524 . S
C1366 C1380 1.377 . S
C1367 C1366 1.524 . S
C1367 C1368 1.397 . S
C1367 C1372 1.363 . S
C1368 H1345 0.950 . S
C1368 C1367 1.397 . S
C1368 C1369 1.334 . S
C1369 H1346 0.950 . S
C1369 C1368 1.334 . S
C1369 C1370 1.287 . S
C1370 C1369 1.287 . S
C1370 C1371 1.524 . S
C1370 H1389 0.913 . S
C1371 H1347 0.950 . S
C1371 C1370 1.524 . S
C1371 C1372 1.415 . S
C1372 H1348 0.950 . S
C1372 C1367 1.363 . S
C1372 C1371 1.415 . S
C1373 H1349 0.951 . S
C1373 C1374 1.366 . S
C1373 C1375 1.388 . S
C1374 C1373 1.366 . S
C1374 C1378 1.385 . S
C1375 H1350 0.951 . S
C1375 C1373 1.388 . S
C1375 C1376 1.366 . S
C1376 C1375 1.366 . S
C1376 C1377 1.414 . S
C1376 C1379 1.461 1_545 S
C1377 H1351 0.950 . S
C1377 C1376 1.414 . S
C1377 C1378 1.374 . S
C1378 H1352 0.950 . S
C1378 C1374 1.385 . S
C1378 C1377 1.374 . S
C1379 C1376 1.461 1_565 S
C1379 C1380 1.378 . S
C1379 C1381 1.423 . S
C1380 H1353 0.950 1_565 S
C1380 C1366 1.377 . S
C1380 C1379 1.378 . S
C1381 C1365 1.377 . S
C1381 C1379 1.423 . S
C1381 C1382 1.524 . S
C1382 C1381 1.524 . S
C1382 C1383 1.397 . S
C1382 C1387 1.363 . S
C1383 H1354 0.950 . S
C1383 C1382 1.397 . S
C1383 C1384 1.334 . S
C1384 H1355 0.950 . S
C1384 C1383 1.334 . S
C1384 C1385 1.287 . S
C1385 C1384 1.287 . S
C1385 C1386 1.524 . S
C1385 H1388 0.999 . S
C1386 H1356 0.950 . S
C1386 C1385 1.524 . S
C1386 C1387 1.415 . S
C1387 H1357 0.950 . S
C1387 C1382 1.363 . S
C1387 C1386 1.415 . S
H1388 C1385 0.999 . S
H1389 C1370 0.913 . S
H1390 C1408 0.951 . S
H1391 C1410 0.951 . S
H1392 C1412 0.950 . S
H1393 C1413 0.950 . S
H1394 C1415 0.950 . S
H1395 C1418 0.950 . S
H1396 C1419 0.950 . S
H1397 C1421 0.944 1_655 S
H1398 C1422 0.950 . S
H1399 C1423 0.951 . S
H1400 C1425 0.951 . S
H1401 C1427 0.950 . S
H1402 C1428 0.950 . S
H1403 C1430 0.950 . S
H1404 C1433 0.950 . S
H1405 C1434 0.950 . S
H1406 C1436 0.950 . S
H1407 C1437 0.950 . S
C1408 H1390 0.951 . S
C1408 C1409 1.366 . S
C1408 C1410 1.388 . S
C1409 C1408 1.366 . S
C1409 C1413 1.385 . S
C1410 H1391 0.951 . S
C1410 C1408 1.388 . S
C1410 C1411 1.366 . S
C1411 C1410 1.366 . S
C1411 C1412 1.414 . S
C1411 C1414 1.501 . S
C1412 H1392 0.950 . S
C1412 C1411 1.414 . S
C1412 C1413 1.374 . S
C1413 H1393 0.950 . S
C1413 C1409 1.385 . S
C1413 C1412 1.374 . S
C1414 C1411 1.501 . S
C1414 C1415 1.372 1_455 S
C1414 C1416 1.388 1_455 S
C1415 H1394 0.950 . S
C1415 C1414 1.372 1_655 S
C1415 C1431 1.377 . S
C1416 C1414 1.388 1_655 S
C1416 C1417 1.524 1_655 S
C1416 C1430 1.377 . S
C1417 C1416 1.524 1_455 S
C1417 C1418 1.397 . S
C1417 C1422 1.363 1_455 S
C1418 H1395 0.950 . S
C1418 C1417 1.397 . S
C1418 C1419 1.334 . S
C1419 H1396 0.950 . S
C1419 C1418 1.334 . S
C1419 C1420 1.287 . S
C1420 C1419 1.287 . S
C1420 C1421 1.524 . S
C1420 H1439 0.913 . S
C1421 H1397 0.944 1_455 S
C1421 C1420 1.524 . S
C1421 C1422 1.415 1_455 S
C1422 H1398 0.950 . S
C1422 C1417 1.363 1_655 S
C1422 C1421 1.415 1_655 S
C1423 H1399 0.951 . S
C1423 C1424 1.366 . S
C1423 C1425 1.388 . S
C1424 C1423 1.366 . S
C1424 C1428 1.385 . S
C1425 H1400 0.951 . S
C1425 C1423 1.388 . S
C1425 C1426 1.366 . S
C1426 C1425 1.366 . S
C1426 C1427 1.414 . S
C1426 C1429 1.499 . S
C1427 H1401 0.950 . S
C1427 C1426 1.414 . S
C1427 C1428 1.374 . S
C1428 H1402 0.950 . S
C1428 C1424 1.385 . S
C1428 C1427 1.374 . S
C1429 C1426 1.499 . S
C1429 C1430 1.373 . S
C1429 C1431 1.389 . S
C1430 H1403 0.950 . S
C1430 C1416 1.377 . S
C1430 C1429 1.373 . S
C1431 C1415 1.377 . S
C1431 C1429 1.389 . S
C1431 C1432 1.524 . S
C1432 C1431 1.524 . S
C1432 C1433 1.397 . S
C1432 C1437 1.363 . S
C1433 H1404 0.950 . S
C1433 C1432 1.397 . S
C1433 C1434 1.334 . S
C1434 H1405 0.950 . S
C1434 C1433 1.334 . S
C1434 C1435 1.287 . S
C1435 C1434 1.287 . S
C1435 C1436 1.524 . S
C1435 H1438 0.999 . S
C1436 H1406 0.950 . S
C1436 C1435 1.524 . S
C1436 C1437 1.415 . S
C1437 H1407 0.950 . S
C1437 C1432 1.363 . S
C1437 C1436 1.415 . S
H1438 C1435 0.999 . S
H1439 C1420 0.913 . S
H1440 C1458 0.951 . S
H1441 C1460 0.951 . S
H1442 C1462 0.950 . S
H1443 C1463 0.950 . S
H1444 C1465 0.950 . S
H1445 C1468 0.950 . S
H1446 C1469 0.950 . S
H1447 C1471 0.950 . S
H1448 C1472 0.950 . S
H1449 C1473 0.951 . S
H1450 C1475 0.951 . S
H1451 C1477 0.950 . S
H1452 C1478 0.950 . S
H1453 C1480 0.950 . S
H1454 C1483 0.950 . S
H1455 C1484 0.950 . S
H1456 C1486 0.950 . S
H1457 C1487 0.950 . S
C1458 H1440 0.951 . S
C1458 C1459 1.366 . S
C1458 C1460 1.388 . S
C1459 C1458 1.366 . S
C1459 C1463 1.385 . S
C1460 H1441 0.951 . S
C1460 C1458 1.388 . S
C1460 C1461 1.366 . S
C1461 C1460 1.366 . S
C1461 C1462 1.414 . S
C1461 C1464 1.499 . S
C1462 H1442 0.950 . S
C1462 C1461 1.414 . S
C1462 C1463 1.374 . S
C1463 H1443 0.950 . S
C1463 C1459 1.385 . S
C1463 C1462 1.374 . S
C1464 C1461 1.499 . S
C1464 C1465 1.373 . S
C1464 C1466 1.389 . S
C1465 H1444 0.950 . S
C1465 C1464 1.373 . S
C1465 C1481 1.377 . S
C1466 C1464 1.389 . S
C1466 C1467 1.524 . S
C1466 C1480 1.377 . S
C1467 C1466 1.524 . S
C1467 C1468 1.397 . S
C1467 C1472 1.363 . S
C1468 H1445 0.950 . S
C1468 C1467 1.397 . S
C1468 C1469 1.334 . S
C1469 H1446 0.950 . S
C1469 C1468 1.334 . S
C1469 C1470 1.287 . S
C1470 C1469 1.287 . S
C1470 C1471 1.524 1_554 S
C1470 H1489 0.913 1_554 S
C1471 H1447 0.950 . S
C1471 C1470 1.524 1_556 S
C1471 C1472 1.415 1_556 S
C1472 H1448 0.950 . S
C1472 C1467 1.363 . S
C1472 C1471 1.415 1_554 S
C1473 H1449 0.951 . S
C1473 C1474 1.366 . S
C1473 C1475 1.388 . S
C1474 C1473 1.366 . S
C1474 C1478 1.385 . S
C1475 H1450 0.951 . S
C1475 C1473 1.388 . S
C1475 C1476 1.366 . S
C1476 C1475 1.366 . S
C1476 C1477 1.414 . S
C1476 C1479 1.499 . S
C1477 H1451 0.950 . S
C1477 C1476 1.414 . S
C1477 C1478 1.374 . S
C1478 H1452 0.950 . S
C1478 C1474 1.385 . S
C1478 C1477 1.374 . S
C1479 C1476 1.499 . S
C1479 C1480 1.373 . S
C1479 C1481 1.389 . S
C1480 H1453 0.950 . S
C1480 C1466 1.377 . S
C1480 C1479 1.373 . S
C1481 C1465 1.377 . S
C1481 C1479 1.389 . S
C1481 C1482 1.524 . S
C1482 C1481 1.524 . S
C1482 C1483 1.397 . S
C1482 C1487 1.363 . S
C1483 H1454 0.950 . S
C1483 C1482 1.397 . S
C1483 C1484 1.334 . S
C1484 H1455 0.950 . S
C1484 C1483 1.334 . S
C1484 C1485 1.287 . S
C1485 C1484 1.287 . S
C1485 C1486 1.524 . S
C1485 H1488 0.999 . S
C1486 H1456 0.950 . S
C1486 C1485 1.524 . S
C1486 C1487 1.415 . S
C1487 H1457 0.950 . S
C1487 C1482 1.363 . S
C1487 C1486 1.415 . S
H1488 C1485 0.999 . S
H1489 C1470 0.913 1_556 S
H1490 C1508 0.951 . S
H1491 C1510 0.951 . S
H1492 C1512 0.950 . S
H1493 C1513 0.950 . S
H1494 C1515 0.950 . S
H1495 C1518 0.950 . S
H1496 C1519 0.950 . S
H1497 C1521 0.950 . S
H1498 C1522 0.950 . S
H1499 C1523 0.951 . S
H1500 C1525 0.951 . S
H1501 C1527 0.950 . S
H1502 C1528 0.950 . S
H1503 C1530 0.950 . S
H1504 C1533 0.950 . S
H1505 C1534 0.950 . S
H1506 C1536 0.950 . S
H1507 C1537 0.950 . S
C1508 H1490 0.951 . S
C1508 C1509 1.366 . S
C1508 C1510 1.388 . S
C1509 C1508 1.366 . S
C1509 C1513 1.385 . S
C1510 H1491 0.951 . S
C1510 C1508 1.388 . S
C1510 C1511 1.366 . S
C1511 C1510 1.366 . S
C1511 C1512 1.414 . S
C1511 C1514 1.499 . S
C1512 H1492 0.950 . S
C1512 C1511 1.414 . S
C1512 C1513 1.374 . S
C1513 H1493 0.950 . S
C1513 C1509 1.385 . S
C1513 C1512 1.374 . S
C1514 C1511 1.499 . S
C1514 C1515 1.373 . S
C1514 C1516 1.389 . S
C1515 H1494 0.950 . S
C1515 C1514 1.373 . S
C1515 C1531 1.377 . S
C1516 C1514 1.389 . S
C1516 C1517 1.524 . S
C1516 C1530 1.377 . S
C1517 C1516 1.524 . S
C1517 C1518 1.397 . S
C1517 C1522 1.363 . S
C1518 H1495 0.950 . S
C1518 C1517 1.397 . S
C1518 C1519 1.334 . S
C1519 H1496 0.950 . S
C1519 C1518 1.334 . S
C1519 C1520 1.287 . S
C1520 C1519 1.287 . S
C1520 C1521 1.524 . S
C1520 H1539 0.913 . S
C1521 H1497 0.950 . S
C1521 C1520 1.524 . S
C1521 C1522 1.415 . S
C1522 H1498 0.950 . S
C1522 C1517 1.363 . S
C1522 C1521 1.415 . S
C1523 H1499 0.951 . S
C1523 C1524 1.366 . S
C1523 C1525 1.388 . S
C1524 C1523 1.366 . S
C1524 C1528 1.385 . S
C1525 H1500 0.951 . S
C1525 C1523 1.388 . S
C1525 C1526 1.366 . S
C1526 C1525 1.366 . S
C1526 C1527 1.414 . S
C1526 C1529 1.499 . S
C1527 H1501 0.950 . S
C1527 C1526 1.414 . S
C1527 C1528 1.374 . S
C1528 H1502 0.950 . S
C1528 C1524 1.385 . S
C1528 C1527 1.374 . S
C1529 C1526 1.499 . S
C1529 C1530 1.373 . S
C1529 C1531 1.389 . S
C1530 H1503 0.950 . S
C1530 C1516 1.377 . S
C1530 C1529 1.373 . S
C1531 C1515 1.377 . S
C1531 C1529 1.389 . S
C1531 C1532 1.524 . S
C1532 C1531 1.524 . S
C1532 C1533 1.397 . S
C1532 C1537 1.363 . S
C1533 H1504 0.950 . S
C1533 C1532 1.397 . S
C1533 C1534 1.334 . S
C1534 H1505 0.950 . S
C1534 C1533 1.334 . S
C1534 C1535 1.287 . S
C1535 C1534 1.287 . S
C1535 C1536 1.524 . S
C1535 H1538 0.999 . S
C1536 H1506 0.950 . S
C1536 C1535 1.524 . S
C1536 C1537 1.415 . S
C1537 H1507 0.950 . S
C1537 C1532 1.363 . S
C1537 C1536 1.415 . S
H1538 C1535 0.999 . S
H1539 C1520 0.913 . S
H1540 C1558 0.951 . S
H1541 C1560 0.951 . S
H1542 C1562 0.950 . S
H1543 C1563 0.950 . S
H1544 C1565 0.950 . S
H1545 C1568 0.950 . S
H1546 C1569 0.956 . S
H1547 C1571 0.950 . S
H1548 C1572 0.950 . S
H1549 C1573 0.951 . S
H1550 C1575 0.951 . S
H1551 C1577 0.950 . S
H1552 C1578 0.950 . S
H1553 C1580 0.950 . S
H1554 C1583 0.950 . S
H1555 C1584 0.950 . S
H1556 C1586 0.950 . S
H1557 C1587 0.950 . S
C1558 H1540 0.951 . S
C1558 C1559 1.366 . S
C1558 C1560 1.388 . S
C1559 C1558 1.366 . S
C1559 C1563 1.385 . S
C1560 H1541 0.951 . S
C1560 C1558 1.388 . S
C1560 C1561 1.366 . S
C1561 C1560 1.366 . S
C1561 C1562 1.414 . S
C1561 C1564 1.499 . S
C1562 H1542 0.950 . S
C1562 C1561 1.414 . S
C1562 C1563 1.374 . S
C1563 H1543 0.950 . S
C1563 C1559 1.385 . S
C1563 C1562 1.374 . S
C1564 C1561 1.499 . S
C1564 C1565 1.373 . S
C1564 C1566 1.389 . S
C1565 H1544 0.950 . S
C1565 C1564 1.373 . S
C1565 C1581 1.377 . S
C1566 C1564 1.389 . S
C1566 C1567 1.524 . S
C1566 C1580 1.377 . S
C1567 C1566 1.524 . S
C1567 C1568 1.397 . S
C1567 C1572 1.363 . S
C1568 H1545 0.950 . S
C1568 C1567 1.397 . S
C1568 C1569 1.328 1_554 S
C1569 H1546 0.956 . S
C1569 C1568 1.328 1_556 S
C1569 C1570 1.287 . S
C1570 C1569 1.287 . S
C1570 C1571 1.523 1_556 S
C1570 H1589 0.914 . S
C1571 H1547 0.950 . S
C1571 C1570 1.523 1_554 S
C1571 C1572 1.415 . S
C1572 H1548 0.950 . S
C1572 C1567 1.363 . S
C1572 C1571 1.415 . S
C1573 H1549 0.951 . S
C1573 C1574 1.366 . S
C1573 C1575 1.388 . S
C1574 C1573 1.366 . S
C1574 C1578 1.385 . S
C1575 H1550 0.951 . S
C1575 C1573 1.388 . S
C1575 C1576 1.366 . S
C1576 C1575 1.366 . S
C1576 C1577 1.414 . S
C1576 C1579 1.499 . S
C1577 H1551 0.950 . S
C1577 C1576 1.414 . S
C1577 C1578 1.374 . S
C1578 H1552 0.950 . S
C1578 C1574 1.385 . S
C1578 C1577 1.374 . S
C1579 C1576 1.499 . S
C1579 C1580 1.373 . S
C1579 C1581 1.389 . S
C1580 H1553 0.950 . S
C1580 C1566 1.377 . S
C1580 C1579 1.373 . S
C1581 C1565 1.377 . S
C1581 C1579 1.389 . S
C1581 C1582 1.524 . S
C1582 C1581 1.524 . S
C1582 C1583 1.397 . S
C1582 C1587 1.363 . S
C1583 H1554 0.950 . S
C1583 C1582 1.397 . S
C1583 C1584 1.334 . S
C1584 H1555 0.950 . S
C1584 C1583 1.334 . S
C1584 C1585 1.287 . S
C1585 C1584 1.287 . S
C1585 C1586 1.524 . S
C1585 H1588 0.999 . S
C1586 H1556 0.950 . S
C1586 C1585 1.524 . S
C1586 C1587 1.415 . S
C1587 H1557 0.950 . S
C1587 C1582 1.363 . S
C1587 C1586 1.415 . S
H1588 C1585 0.999 . S
H1589 C1570 0.914 . S
H1590 C1608 0.951 . S
H1591 C1610 0.951 . S
H1592 C1612 0.950 . S
H1593 C1613 0.950 . S
H1594 C1615 0.950 . S
H1595 C1618 0.950 . S
H1596 C1619 0.950 . S
H1597 C1621 0.950 . S
H1598 C1622 0.950 . S
H1599 C1623 0.951 . S
H1600 C1625 0.951 . S
H1601 C1627 0.950 . S
H1602 C1628 0.950 . S
H1603 C1630 0.950 . S
H1604 C1633 0.950 . S
H1605 C1634 0.950 . S
H1606 C1636 0.950 1_554 S
H1607 C1637 0.950 . S
C1608 H1590 0.951 . S
C1608 C1609 1.366 . S
C1608 C1610 1.388 . S
C1609 C1608 1.366 . S
C1609 C1613 1.385 . S
C1610 H1591 0.951 . S
C1610 C1608 1.388 . S
C1610 C1611 1.366 . S
C1611 C1610 1.366 . S
C1611 C1612 1.414 . S
C1611 C1614 1.499 . S
C1612 H1592 0.950 . S
C1612 C1611 1.414 . S
C1612 C1613 1.374 . S
C1613 H1593 0.950 . S
C1613 C1609 1.385 . S
C1613 C1612 1.374 . S
C1614 C1611 1.499 . S
C1614 C1615 1.373 . S
C1614 C1616 1.389 . S
C1615 H1594 0.950 . S
C1615 C1614 1.373 . S
C1615 C1631 1.377 . S
C1616 C1614 1.389 . S
C1616 C1617 1.524 . S
C1616 C1630 1.377 . S
C1617 C1616 1.524 . S
C1617 C1618 1.397 . S
C1617 C1622 1.363 . S
C1618 H1595 0.950 . S
C1618 C1617 1.397 . S
C1618 C1619 1.334 . S
C1619 H1596 0.950 . S
C1619 C1618 1.334 . S
C1619 C1620 1.287 . S
C1620 C1619 1.287 . S
C1620 C1621 1.524 . S
C1620 H1639 0.913 . S
C1621 H1597 0.950 . S
C1621 C1620 1.524 . S
C1621 C1622 1.415 . S
C1622 H1598 0.950 . S
C1622 C1617 1.363 . S
C1622 C1621 1.415 . S
C1623 H1599 0.951 . S
C1623 C1624 1.366 . S
C1623 C1625 1.388 . S
C1624 C1623 1.366 . S
C1624 C1628 1.385 . S
C1625 H1600 0.951 . S
C1625 C1623 1.388 . S
C1625 C1626 1.366 . S
C1626 C1625 1.366 . S
C1626 C1627 1.414 . S
C1626 C1629 1.499 . S
C1627 H1601 0.950 . S
C1627 C1626 1.414 . S
C1627 C1628 1.374 . S
C1628 H1602 0.950 . S
C1628 C1624 1.385 . S
C1628 C1627 1.374 . S
C1629 C1626 1.499 . S
C1629 C1630 1.373 . S
C1629 C1631 1.389 . S
C1630 H1603 0.950 . S
C1630 C1616 1.377 . S
C1630 C1629 1.373 . S
C1631 C1615 1.377 . S
C1631 C1629 1.389 . S
C1631 C1632 1.524 . S
C1632 C1631 1.524 . S
C1632 C1633 1.397 . S
C1632 C1637 1.363 . S
C1633 H1604 0.950 . S
C1633 C1632 1.397 . S
C1633 C1634 1.334 1_556 S
C1634 H1605 0.950 . S
C1634 C1633 1.334 1_554 S
C1634 C1635 1.287 . S
C1635 C1634 1.287 . S
C1635 C1636 1.524 1_554 S
C1635 H1638 0.999 . S
C1636 H1606 0.950 1_556 S
C1636 C1635 1.524 1_556 S
C1636 C1637 1.415 . S
C1637 H1607 0.950 . S
C1637 C1632 1.363 . S
C1637 C1636 1.415 . S
H1638 C1635 0.999 . S
H1639 C1620 0.913 . S
H1640 C1658 0.951 . S
H1641 C1660 0.951 . S
H1642 C1662 0.950 . S
H1643 C1663 0.950 . S
H1644 C1665 0.950 . S
H1645 C1668 0.950 . S
H1646 C1669 0.950 . S
H1647 C1671 0.950 . S
H1648 C1672 0.950 . S
H1649 C1673 0.951 . S
H1650 C1675 0.951 . S
H1651 C1677 0.950 . S
H1652 C1678 0.950 . S
H1653 C1680 0.950 . S
H1654 C1683 0.950 . S
H1655 C1684 0.950 . S
H1656 C1686 0.950 . S
H1657 C1687 0.950 . S
C1658 H1640 0.951 . S
C1658 C1659 1.366 . S
C1658 C1660 1.388 . S
C1659 C1658 1.366 . S
C1659 C1663 1.385 . S
C1660 H1641 0.951 . S
C1660 C1658 1.388 . S
C1660 C1661 1.366 . S
C1661 C1660 1.366 . S
C1661 C1662 1.414 . S
C1661 C1664 1.499 . S
C1662 H1642 0.950 . S
C1662 C1661 1.414 . S
C1662 C1663 1.374 . S
C1663 H1643 0.950 . S
C1663 C1659 1.385 . S
C1663 C1662 1.374 . S
C1664 C1661 1.499 . S
C1664 C1665 1.373 . S
C1664 C1666 1.389 . S
C1665 H1644 0.950 . S
C1665 C1664 1.373 . S
C1665 C1681 1.377 . S
C1666 C1664 1.389 . S
C1666 C1667 1.524 . S
C1666 C1680 1.377 . S
C1667 C1666 1.524 . S
C1667 C1668 1.397 . S
C1667 C1672 1.363 . S
C1668 H1645 0.950 . S
C1668 C1667 1.397 . S
C1668 C1669 1.334 . S
C1669 H1646 0.950 . S
C1669 C1668 1.334 . S
C1669 C1670 1.287 . S
C1670 C1669 1.287 . S
C1670 C1671 1.524 . S
C1670 H1689 0.913 . S
C1671 H1647 0.950 . S
C1671 C1670 1.524 . S
C1671 C1672 1.415 . S
C1672 H1648 0.950 . S
C1672 C1667 1.363 . S
C1672 C1671 1.415 . S
C1673 H1649 0.951 . S
C1673 C1674 1.366 . S
C1673 C1675 1.388 . S
C1674 C1673 1.366 . S
C1674 C1678 1.385 . S
C1675 H1650 0.951 . S
C1675 C1673 1.388 . S
C1675 C1676 1.366 . S
C1676 C1675 1.366 . S
C1676 C1677 1.414 . S
C1676 C1679 1.499 . S
C1677 H1651 0.950 . S
C1677 C1676 1.414 . S
C1677 C1678 1.374 . S
C1678 H1652 0.950 . S
C1678 C1674 1.385 . S
C1678 C1677 1.374 . S
C1679 C1676 1.499 . S
C1679 C1680 1.373 . S
C1679 C1681 1.389 . S
C1680 H1653 0.950 . S
C1680 C1666 1.377 . S
C1680 C1679 1.373 . S
C1681 C1665 1.377 . S
C1681 C1679 1.389 . S
C1681 C1682 1.524 . S
C1682 C1681 1.524 . S
C1682 C1683 1.397 . S
C1682 C1687 1.363 . S
C1683 H1654 0.950 . S
C1683 C1682 1.397 . S
C1683 C1684 1.334 . S
C1684 H1655 0.950 . S
C1684 C1683 1.334 . S
C1684 C1685 1.287 . S
C1685 C1684 1.287 . S
C1685 C1686 1.524 . S
C1685 H1688 0.999 . S
C1686 H1656 0.950 . S
C1686 C1685 1.524 . S
C1686 C1687 1.415 . S
C1687 H1657 0.950 . S
C1687 C1682 1.363 . S
C1687 C1686 1.415 . S
H1688 C1685 0.999 . S
H1689 C1670 0.913 . S
H1690 C1708 0.951 . S
H1691 C1710 0.951 . S
H1692 C1712 0.950 . S
H1693 C1713 0.950 . S
H1694 C1715 0.950 . S
H1695 C1718 0.950 . S
H1696 C1719 0.950 . S
H1697 C1721 0.950 . S
H1698 C1722 0.950 . S
H1699 C1723 0.951 . S
H1700 C1725 0.951 . S
H1701 C1727 0.950 . S
H1702 C1728 0.950 . S
H1703 C1730 0.950 . S
H1704 C1733 0.950 . S
H1705 C1734 0.950 . S
H1706 C1736 0.950 . S
H1707 C1737 0.950 . S
C1708 H1690 0.951 . S
C1708 C1709 1.366 . S
C1708 C1710 1.388 . S
C1709 C1708 1.366 . S
C1709 C1713 1.385 . S
C1710 H1691 0.951 . S
C1710 C1708 1.388 . S
C1710 C1711 1.366 . S
C1711 C1710 1.366 . S
C1711 C1712 1.414 . S
C1711 C1714 1.499 . S
C1712 H1692 0.950 . S
C1712 C1711 1.414 . S
C1712 C1713 1.374 . S
C1713 H1693 0.950 . S
C1713 C1709 1.385 . S
C1713 C1712 1.374 . S
C1714 C1711 1.499 . S
C1714 C1715 1.373 . S
C1714 C1716 1.389 . S
C1715 H1694 0.950 . S
C1715 C1714 1.373 . S
C1715 C1731 1.377 . S
C1716 C1714 1.389 . S
C1716 C1717 1.524 . S
C1716 C1730 1.377 . S
C1717 C1716 1.524 . S
C1717 C1718 1.397 . S
C1717 C1722 1.363 . S
C1718 H1695 0.950 . S
C1718 C1717 1.397 . S
C1718 C1719 1.334 . S
C1719 H1696 0.950 . S
C1719 C1718 1.334 . S
C1719 C1720 1.287 . S
C1720 C1719 1.287 . S
C1720 C1721 1.524 . S
C1720 H1739 0.913 . S
C1721 H1697 0.950 . S
C1721 C1720 1.524 . S
C1721 C1722 1.415 . S
C1722 H1698 0.950 . S
C1722 C1717 1.363 . S
C1722 C1721 1.415 . S
C1723 H1699 0.951 . S
C1723 C1724 1.366 . S
C1723 C1725 1.388 . S
C1724 C1723 1.366 . S
C1724 C1728 1.385 . S
C1725 H1700 0.951 . S
C1725 C1723 1.388 . S
C1725 C1726 1.366 . S
C1726 C1725 1.366 . S
C1726 C1727 1.414 . S
C1726 C1729 1.499 . S
C1727 H1701 0.950 . S
C1727 C1726 1.414 . S
C1727 C1728 1.374 . S
C1728 H1702 0.950 . S
C1728 C1724 1.385 . S
C1728 C1727 1.374 . S
C1729 C1726 1.499 . S
C1729 C1730 1.373 . S
C1729 C1731 1.389 . S
C1730 H1703 0.950 . S
C1730 C1716 1.377 . S
C1730 C1729 1.373 . S
C1731 C1715 1.377 . S
C1731 C1729 1.389 . S
C1731 C1732 1.524 . S
C1732 C1731 1.524 . S
C1732 C1733 1.397 . S
C1732 C1737 1.363 . S
C1733 H1704 0.950 . S
C1733 C1732 1.397 . S
C1733 C1734 1.334 . S
C1734 H1705 0.950 . S
C1734 C1733 1.334 . S
C1734 C1735 1.287 . S
C1735 C1734 1.287 . S
C1735 C1736 1.524 . S
C1735 H1738 0.999 . S
C1736 H1706 0.950 . S
C1736 C1735 1.524 . S
C1736 C1737 1.415 . S
C1737 H1707 0.950 . S
C1737 C1732 1.363 . S
C1737 C1736 1.415 . S
H1738 C1735 0.999 . S
H1739 C1720 0.913 . S
H1740 C1758 0.951 . S
H1741 C1760 0.951 . S
H1742 C1762 0.950 . S
H1743 C1763 0.950 . S
H1744 C1765 0.950 . S
H1745 C1768 0.950 . S
H1746 C1769 0.950 . S
H1747 C1771 0.950 . S
H1748 C1772 0.950 . S
H1749 C1773 0.951 . S
H1750 C1775 0.951 . S
H1751 C1777 0.950 . S
H1752 C1778 0.950 . S
H1753 C1780 0.950 . S
H1754 C1783 0.950 . S
H1755 C1784 0.950 . S
H1756 C1786 0.950 . S
H1757 C1787 0.950 . S
C1758 H1740 0.951 . S
C1758 C1759 1.366 . S
C1758 C1760 1.388 . S
C1759 C1758 1.366 . S
C1759 C1763 1.385 . S
C1760 H1741 0.951 . S
C1760 C1758 1.388 . S
C1760 C1761 1.366 . S
C1761 C1760 1.366 . S
C1761 C1762 1.414 . S
C1761 C1764 1.499 . S
C1762 H1742 0.950 . S
C1762 C1761 1.414 . S
C1762 C1763 1.374 . S
C1763 H1743 0.950 . S
C1763 C1759 1.385 . S
C1763 C1762 1.374 . S
C1764 C1761 1.499 . S
C1764 C1765 1.373 . S
C1764 C1766 1.389 . S
C1765 H1744 0.950 . S
C1765 C1764 1.373 . S
C1765 C1781 1.377 . S
C1766 C1764 1.389 . S
C1766 C1767 1.524 . S
C1766 C1780 1.377 . S
C1767 C1766 1.524 . S
C1767 C1768 1.397 . S
C1767 C1772 1.363 . S
C1768 H1745 0.950 . S
C1768 C1767 1.397 . S
C1768 C1769 1.334 . S
C1769 H1746 0.950 . S
C1769 C1768 1.334 . S
C1769 C1770 1.287 . S
C1770 C1769 1.287 . S
C1770 C1771 1.524 . S
C1770 H1789 0.913 . S
C1771 H1747 0.950 . S
C1771 C1770 1.524 . S
C1771 C1772 1.415 . S
C1772 H1748 0.950 . S
C1772 C1767 1.363 . S
C1772 C1771 1.415 . S
C1773 H1749 0.951 . S
C1773 C1774 1.366 . S
C1773 C1775 1.388 . S
C1774 C1773 1.366 . S
C1774 C1778 1.385 . S
C1775 H1750 0.951 . S
C1775 C1773 1.388 . S
C1775 C1776 1.366 . S
C1776 C1775 1.366 . S
C1776 C1777 1.414 . S
C1776 C1779 1.499 . S
C1777 H1751 0.950 . S
C1777 C1776 1.414 . S
C1777 C1778 1.374 . S
C1778 H1752 0.950 . S
C1778 C1774 1.385 . S
C1778 C1777 1.374 . S
C1779 C1776 1.499 . S
C1779 C1780 1.373 . S
C1779 C1781 1.389 . S
C1780 H1753 0.950 . S
C1780 C1766 1.377 . S
C1780 C1779 1.373 . S
C1781 C1765 1.377 . S
C1781 C1779 1.389 . S
C1781 C1782 1.524 . S
C1782 C1781 1.524 . S
C1782 C1783 1.397 . S
C1782 C1787 1.363 . S
C1783 H1754 0.950 . S
C1783 C1782 1.397 . S
C1783 C1784 1.334 . S
C1784 H1755 0.950 . S
C1784 C1783 1.334 . S
C1784 C1785 1.287 . S
C1785 C1784 1.287 . S
C1785 C1786 1.524 . S
C1785 H1788 0.999 . S
C1786 H1756 0.950 . S
C1786 C1785 1.524 . S
C1786 C1787 1.415 . S
C1787 H1757 0.950 . S
C1787 C1782 1.363 . S
C1787 C1786 1.415 . S
H1788 C1785 0.999 . S
H1789 C1770 0.913 . S
H1790 C1808 0.951 . S
H1791 C1810 0.951 . S
H1792 C1812 0.950 . S
H1793 C1813 0.950 . S
H1794 C1815 0.950 . S
H1795 C1818 0.950 . S
H1796 C1819 0.950 . S
H1797 C1821 0.950 . S
H1798 C1822 0.950 . S
H1799 C1823 0.951 . S
H1800 C1825 0.951 . S
H1801 C1827 0.950 . S
H1802 C1828 0.950 . S
H1803 C1830 0.950 . S
H1804 C1833 0.950 . S
H1805 C1834 0.950 . S
H1806 C1836 0.950 . S
H1807 C1837 0.950 . S
C1808 H1790 0.951 . S
C1808 C1809 1.366 . S
C1808 C1810 1.388 . S
C1809 C1808 1.366 . S
C1809 C1813 1.385 . S
C1810 H1791 0.951 . S
C1810 C1808 1.388 . S
C1810 C1811 1.366 . S
C1811 C1810 1.366 . S
C1811 C1812 1.414 . S
C1811 C1814 1.499 . S
C1812 H1792 0.950 . S
C1812 C1811 1.414 . S
C1812 C1813 1.374 . S
C1813 H1793 0.950 . S
C1813 C1809 1.385 . S
C1813 C1812 1.374 . S
C1814 C1811 1.499 . S
C1814 C1815 1.373 . S
C1814 C1816 1.389 . S
C1815 H1794 0.950 . S
C1815 C1814 1.373 . S
C1815 C1831 1.377 . S
C1816 C1814 1.389 . S
C1816 C1817 1.524 . S
C1816 C1830 1.377 . S
C1817 C1816 1.524 . S
C1817 C1818 1.397 . S
C1817 C1822 1.363 . S
C1818 H1795 0.950 . S
C1818 C1817 1.397 . S
C1818 C1819 1.334 . S
C1819 H1796 0.950 . S
C1819 C1818 1.334 . S
C1819 C1820 1.287 . S
C1820 C1819 1.287 . S
C1820 C1821 1.524 . S
C1820 H1839 0.913 . S
C1821 H1797 0.950 . S
C1821 C1820 1.524 . S
C1821 C1822 1.415 . S
C1822 H1798 0.950 . S
C1822 C1817 1.363 . S
C1822 C1821 1.415 . S
C1823 H1799 0.951 . S
C1823 C1824 1.366 . S
C1823 C1825 1.388 . S
C1824 C1823 1.366 . S
C1824 C1828 1.385 . S
C1825 H1800 0.951 . S
C1825 C1823 1.388 . S
C1825 C1826 1.366 . S
C1826 C1825 1.366 . S
C1826 C1827 1.414 . S
C1826 C1829 1.499 . S
C1827 H1801 0.950 . S
C1827 C1826 1.414 . S
C1827 C1828 1.374 . S
C1828 H1802 0.950 . S
C1828 C1824 1.385 . S
C1828 C1827 1.374 . S
C1829 C1826 1.499 . S
C1829 C1830 1.373 . S
C1829 C1831 1.389 . S
C1830 H1803 0.950 . S
C1830 C1816 1.377 . S
C1830 C1829 1.373 . S
C1831 C1815 1.377 . S
C1831 C1829 1.389 . S
C1831 C1832 1.524 . S
C1832 C1831 1.524 . S
C1832 C1833 1.397 . S
C1832 C1837 1.363 . S
C1833 H1804 0.950 . S
C1833 C1832 1.397 . S
C1833 C1834 1.334 . S
C1834 H1805 0.950 . S
C1834 C1833 1.334 . S
C1834 C1835 1.287 . S
C1835 C1834 1.287 . S
C1835 C1836 1.524 . S
C1835 H1838 0.999 . S
C1836 H1806 0.950 . S
C1836 C1835 1.524 . S
C1836 C1837 1.415 . S
C1837 H1807 0.950 . S
C1837 C1832 1.363 . S
C1837 C1836 1.415 . S
H1838 C1835 0.999 . S
H1839 C1820 0.913 . S
H1840 C1858 0.951 . S
H1841 C1860 0.951 . S
H1842 C1862 0.950 . S
H1843 C1863 0.950 . S
H1844 C1865 0.950 . S
H1845 C1868 0.950 . S
H1846 C1869 0.950 . S
H1847 C1871 0.950 . S
H1848 C1872 0.950 . S
H1849 C1873 0.951 1_554 S
H1850 C1875 0.951 . S
H1851 C1877 0.950 . S
H1852 C1878 0.950 . S
H1853 C1880 0.950 . S
H1854 C1883 0.950 . S
H1855 C1884 0.950 . S
H1856 C1886 0.950 . S
H1857 C1887 0.950 . S
C1858 H1840 0.951 . S
C1858 C1859 1.366 . S
C1858 C1860 1.388 . S
C1859 C1858 1.366 . S
C1859 C1863 1.385 . S
C1860 H1841 0.951 . S
C1860 C1858 1.388 . S
C1860 C1861 1.366 . S
C1861 C1860 1.366 . S
C1861 C1862 1.414 . S
C1861 C1864 1.499 . S
C1862 H1842 0.950 . S
C1862 C1861 1.414 . S
C1862 C1863 1.374 . S
C1863 H1843 0.950 . S
C1863 C1859 1.385 . S
C1863 C1862 1.374 . S
C1864 C1861 1.499 . S
C1864 C1865 1.373 . S
C1864 C1866 1.389 . S
C1865 H1844 0.950 . S
C1865 C1864 1.373 . S
C1865 C1881 1.377 . S
C1866 C1864 1.389 . S
C1866 C1867 1.524 . S
C1866 C1880 1.377 . S
C1867 C1866 1.524 . S
C1867 C1868 1.397 . S
C1867 C1872 1.363 . S
C1868 H1845 0.950 . S
C1868 C1867 1.397 . S
C1868 C1869 1.334 . S
C1869 H1846 0.950 . S
C1869 C1868 1.334 . S
C1869 C1870 1.287 . S
C1870 C1869 1.287 . S
C1870 C1871 1.524 . S
C1870 H1889 0.913 . S
C1871 H1847 0.950 . S
C1871 C1870 1.524 . S
C1871 C1872 1.415 . S
C1872 H1848 0.950 . S
C1872 C1867 1.363 . S
C1872 C1871 1.415 . S
C1873 H1849 0.951 1_556 S
C1873 C1874 1.366 1_556 S
C1873 C1875 1.388 . S
C1874 C1873 1.366 1_554 S
C1874 C1878 1.385 . S
C1875 H1850 0.951 . S
C1875 C1873 1.388 . S
C1875 C1876 1.366 . S
C1876 C1875 1.366 . S
C1876 C1877 1.414 . S
C1876 C1879 1.499 . S
C1877 H1851 0.950 . S
C1877 C1876 1.414 . S
C1877 C1878 1.374 1_556 S
C1878 H1852 0.950 . S
C1878 C1874 1.385 . S
C1878 C1877 1.374 1_554 S
C1879 C1876 1.499 . S
C1879 C1880 1.373 . S
C1879 C1881 1.389 . S
C1880 H1853 0.950 . S
C1880 C1866 1.377 . S
C1880 C1879 1.373 . S
C1881 C1865 1.377 . S
C1881 C1879 1.389 . S
C1881 C1882 1.524 . S
C1882 C1881 1.524 . S
C1882 C1883 1.397 . S
C1882 C1887 1.363 . S
C1883 H1854 0.950 . S
C1883 C1882 1.397 . S
C1883 C1884 1.334 1_556 S
C1884 H1855 0.950 . S
C1884 C1883 1.334 1_554 S
C1884 C1885 1.286 . S
C1885 C1884 1.286 . S
C1885 C1886 1.526 1_554 S
C1885 H1888 0.997 . S
C1886 H1856 0.950 . S
C1886 C1885 1.526 1_556 S
C1886 C1887 1.415 . S
C1887 H1857 0.950 . S
C1887 C1882 1.363 . S
C1887 C1886 1.415 . S
H1888 C1885 0.997 . S
H1889 C1870 0.913 . S
H1890 C1908 0.951 1_556 S
H1891 C1910 0.951 . S
H1892 C1912 0.950 . S
H1893 C1913 0.950 . S
H1894 C1915 0.950 . S
H1895 C1918 0.950 . S
H1896 C1919 0.950 . S
H1897 C1921 0.950 . S
H1898 C1922 0.950 . S
H1899 C1923 0.951 . S
H1900 C1925 0.951 . S
H1901 C1927 0.950 . S
H1902 C1928 0.950 . S
H1903 C1930 0.950 . S
H1904 C1933 0.950 . S
H1905 C1934 0.950 . S
H1906 C1936 0.950 . S
H1907 C1937 0.950 . S
C1908 H1890 0.951 1_554 S
C1908 C1909 1.366 1_554 S
C1908 C1910 1.388 . S
C1909 C1908 1.366 1_556 S
C1909 C1913 1.385 . S
C1910 H1891 0.951 . S
C1910 C1908 1.388 . S
C1910 C1911 1.366 . S
C1911 C1910 1.366 . S
C1911 C1912 1.414 . S
C1911 C1914 1.499 . S
C1912 H1892 0.950 . S
C1912 C1911 1.414 . S
C1912 C1913 1.374 1_554 S
C1913 H1893 0.950 . S
C1913 C1909 1.385 . S
C1913 C1912 1.374 1_556 S
C1914 C1911 1.499 . S
C1914 C1915 1.373 . S
C1914 C1916 1.389 . S
C1915 H1894 0.950 . S
C1915 C1914 1.373 . S
C1915 C1931 1.377 . S
C1916 C1914 1.389 . S
C1916 C1917 1.524 . S
C1916 C1930 1.377 . S
C1917 C1916 1.524 . S
C1917 C1918 1.397 . S
C1917 C1922 1.363 . S
C1918 H1895 0.950 . S
C1918 C1917 1.397 . S
C1918 C1919 1.334 . S
C1919 H1896 0.950 . S
C1919 C1918 1.334 . S
C1919 C1920 1.287 . S
C1920 C1919 1.287 . S
C1920 C1921 1.524 . S
C1920 H1939 0.913 . S
C1921 H1897 0.950 . S
C1921 C1920 1.524 . S
C1921 C1922 1.415 . S
C1922 H1898 0.950 . S
C1922 C1917 1.363 . S
C1922 C1921 1.415 . S
C1923 H1899 0.951 . S
C1923 C1924 1.366 . S
C1923 C1925 1.388 . S
C1924 C1923 1.366 . S
C1924 C1928 1.385 . S
C1925 H1900 0.951 . S
C1925 C1923 1.388 . S
C1925 C1926 1.366 . S
C1926 C1925 1.366 . S
C1926 C1927 1.414 . S
C1926 C1929 1.499 . S
C1927 H1901 0.950 . S
C1927 C1926 1.414 . S
C1927 C1928 1.374 . S
C1928 H1902 0.950 . S
C1928 C1924 1.385 . S
C1928 C1927 1.374 . S
C1929 C1926 1.499 . S
C1929 C1930 1.373 . S
C1929 C1931 1.389 . S
C1930 H1903 0.950 . S
C1930 C1916 1.377 . S
C1930 C1929 1.373 . S
C1931 C1915 1.377 . S
C1931 C1929 1.389 . S
C1931 C1932 1.524 . S
C1932 C1931 1.524 . S
C1932 C1933 1.397 . S
C1932 C1937 1.363 . S
C1933 H1904 0.950 . S
C1933 C1932 1.397 . S
C1933 C1934 1.334 . S
C1934 H1905 0.950 . S
C1934 C1933 1.334 . S
C1934 C1935 1.287 . S
C1935 C1934 1.287 . S
C1935 C1936 1.524 . S
C1935 H1938 0.999 . S
C1936 H1906 0.950 . S
C1936 C1935 1.524 . S
C1936 C1937 1.415 . S
C1937 H1907 0.950 . S
C1937 C1932 1.363 . S
C1937 C1936 1.415 . S
H1938 C1935 0.999 . S
H1939 C1920 0.913 . S
H1940 C1958 0.951 1_554 S
H1941 C1960 0.951 . S
H1942 C1962 0.950 . S
H1943 C1963 0.950 . S
H1944 C1965 0.950 . S
H1945 C1968 0.950 . S
H1946 C1969 0.950 . S
H1947 C1971 0.950 . S
H1948 C1972 0.950 . S
H1949 C1973 0.951 . S
H1950 C1975 0.951 . S
H1951 C1977 0.950 . S
H1952 C1978 0.950 . S
H1953 C1980 0.950 . S
H1954 C1983 0.950 . S
H1955 C1984 0.950 . S
H1956 C1986 0.950 . S
H1957 C1987 0.950 . S
C1958 H1940 0.951 1_556 S
C1958 C1959 1.366 1_556 S
C1958 C1960 1.388 . S
C1959 C1958 1.366 1_554 S
C1959 C1963 1.385 . S
C1960 H1941 0.951 . S
C1960 C1958 1.388 . S
C1960 C1961 1.366 . S
C1961 C1960 1.366 . S
C1961 C1962 1.414 . S
C1961 C1964 1.499 . S
C1962 H1942 0.950 . S
C1962 C1961 1.414 . S
C1962 C1963 1.374 1_556 S
C1963 H1943 0.950 . S
C1963 C1959 1.385 . S
C1963 C1962 1.374 1_554 S
C1964 C1961 1.499 . S
C1964 C1965 1.373 . S
C1964 C1966 1.389 . S
C1965 H1944 0.950 . S
C1965 C1964 1.373 . S
C1965 C1981 1.377 . S
C1966 C1964 1.389 . S
C1966 C1967 1.524 . S
C1966 C1980 1.377 . S
C1967 C1966 1.524 . S
C1967 C1968 1.397 . S
C1967 C1972 1.363 . S
C1968 H1945 0.950 . S
C1968 C1967 1.397 . S
C1968 C1969 1.334 1_556 S
C1969 H1946 0.950 . S
C1969 C1968 1.334 1_554 S
C1969 C1970 1.287 1_554 S
C1970 C1969 1.287 1_556 S
C1970 C1971 1.524 . S
C1970 H1989 0.913 1_556 S
C1971 H1947 0.950 . S
C1971 C1970 1.524 . S
C1971 C1972 1.415 . S
C1972 H1948 0.950 . S
C1972 C1967 1.363 . S
C1972 C1971 1.415 . S
C1973 H1949 0.951 . S
C1973 C1974 1.366 . S
C1973 C1975 1.388 . S
C1974 C1973 1.366 . S
C1974 C1978 1.385 . S
C1975 H1950 0.951 . S
C1975 C1973 1.388 . S
C1975 C1976 1.366 . S
C1976 C1975 1.366 . S
C1976 C1977 1.414 . S
C1976 C1979 1.499 . S
C1977 H1951 0.950 . S
C1977 C1976 1.414 . S
C1977 C1978 1.374 . S
C1978 H1952 0.950 . S
C1978 C1974 1.385 . S
C1978 C1977 1.374 . S
C1979 C1976 1.499 . S
C1979 C1980 1.373 . S
C1979 C1981 1.389 . S
C1980 H1953 0.950 . S
C1980 C1966 1.377 . S
C1980 C1979 1.373 . S
C1981 C1965 1.377 . S
C1981 C1979 1.389 . S
C1981 C1982 1.524 . S
C1982 C1981 1.524 . S
C1982 C1983 1.397 . S
C1982 C1987 1.363 . S
C1983 H1954 0.950 . S
C1983 C1982 1.397 . S
C1983 C1984 1.334 . S
C1984 H1955 0.950 . S
C1984 C1983 1.334 . S
C1984 C1985 1.287 . S
C1985 C1984 1.287 . S
C1985 C1986 1.524 . S
C1985 H1988 0.999 . S
C1986 H1956 0.950 . S
C1986 C1985 1.524 . S
C1986 C1987 1.415 . S
C1987 H1957 0.950 . S
C1987 C1982 1.363 . S
C1987 C1986 1.415 . S
H1988 C1985 0.999 . S
H1989 C1970 0.913 1_554 S
H1990 C2008 0.951 . S
H1991 C2010 0.951 . S
H1992 C2012 0.950 . S
H1993 C2013 0.950 . S
H1994 C2015 0.950 . S
H1995 C2018 0.950 . S
H1996 C2019 0.950 . S
H1997 C2021 0.950 . S
H1998 C2022 0.950 . S
H1999 C2023 0.951 . S
H2000 C2025 0.951 . S
H2001 C2027 0.950 . S
H2002 C2028 0.950 . S
H2003 C2030 0.950 . S
H2004 C2033 0.950 . S
H2005 C2034 0.950 . S
H2006 C2036 0.950 . S
H2007 C2037 0.950 . S
C2008 H1990 0.951 . S
C2008 C2009 1.366 . S
C2008 C2010 1.388 1_556 S
C2009 C2008 1.366 . S
C2009 C2013 1.385 1_556 S
C2010 H1991 0.951 . S
C2010 C2008 1.388 1_554 S
C2010 C2011 1.366 . S
C2011 C2010 1.366 . S
C2011 C2012 1.414 . S
C2011 C2014 1.499 . S
C2012 H1992 0.950 . S
C2012 C2011 1.414 . S
C2012 C2013 1.374 . S
C2013 H1993 0.950 . S
C2013 C2009 1.385 1_554 S
C2013 C2012 1.374 . S
C2014 C2011 1.499 . S
C2014 C2015 1.373 . S
C2014 C2016 1.389 . S
C2015 H1994 0.950 . S
C2015 C2014 1.373 . S
C2015 C2031 1.377 . S
C2016 C2014 1.389 . S
C2016 C2017 1.524 . S
C2016 C2030 1.377 . S
C2017 C2016 1.524 . S
C2017 C2018 1.397 . S
C2017 C2022 1.363 . S
C2018 H1995 0.950 . S
C2018 C2017 1.397 . S
C2018 C2019 1.334 . S
C2019 H1996 0.950 . S
C2019 C2018 1.334 . S
C2019 C2020 1.287 . S
C2020 C2019 1.287 . S
C2020 C2021 1.524 . S
C2020 H2039 0.913 . S
C2021 H1997 0.950 . S
C2021 C2020 1.524 . S
C2021 C2022 1.415 . S
C2022 H1998 0.950 . S
C2022 C2017 1.363 . S
C2022 C2021 1.415 . S
C2023 H1999 0.951 . S
C2023 C2024 1.366 . S
C2023 C2025 1.388 . S
C2024 C2023 1.366 . S
C2024 C2028 1.385 . S
C2025 H2000 0.951 . S
C2025 C2023 1.388 . S
C2025 C2026 1.366 . S
C2026 C2025 1.366 . S
C2026 C2027 1.414 . S
C2026 C2029 1.499 . S
C2027 H2001 0.950 . S
C2027 C2026 1.414 . S
C2027 C2028 1.374 . S
C2028 H2002 0.950 . S
C2028 C2024 1.385 . S
C2028 C2027 1.374 . S
C2029 C2026 1.499 . S
C2029 C2030 1.373 . S
C2029 C2031 1.389 . S
C2030 H2003 0.950 . S
C2030 C2016 1.377 . S
C2030 C2029 1.373 . S
C2031 C2015 1.377 . S
C2031 C2029 1.389 . S
C2031 C2032 1.524 . S
C2032 C2031 1.524 . S
C2032 C2033 1.397 . S
C2032 C2037 1.363 . S
C2033 H2004 0.950 . S
C2033 C2032 1.397 . S
C2033 C2034 1.334 . S
C2034 H2005 0.950 . S
C2034 C2033 1.334 . S
C2034 C2035 1.287 . S
C2035 C2034 1.287 . S
C2035 C2036 1.524 . S
C2035 H2038 0.999 . S
C2036 H2006 0.950 . S
C2036 C2035 1.524 . S
C2036 C2037 1.415 . S
C2037 H2007 0.950 . S
C2037 C2032 1.363 . S
C2037 C2036 1.415 . S
H2038 C2035 0.999 . S
H2039 C2020 0.913 . S
H2040 C2058 0.951 . S
H2041 C2060 0.951 . S
H2042 C2062 0.950 . S
H2043 C2063 0.950 . S
H2044 C2065 0.950 . S
H2045 C2068 0.950 . S
H2046 C2069 0.950 . S
H2047 C2071 0.950 . S
H2048 C2072 0.950 . S
H2049 C2073 0.951 . S
H2050 C2075 0.951 . S
H2051 C2077 0.950 . S
H2052 C2078 0.950 . S
H2053 C2080 0.950 . S
H2054 C2083 0.950 . S
H2055 C2084 0.950 . S
H2056 C2086 0.950 . S
H2057 C2087 0.950 . S
C2058 H2040 0.951 . S
C2058 C2059 1.366 . S
C2058 C2060 1.388 . S
C2059 C2058 1.366 . S
C2059 C2063 1.385 . S
C2060 H2041 0.951 . S
C2060 C2058 1.388 . S
C2060 C2061 1.366 . S
C2061 C2060 1.366 . S
C2061 C2062 1.414 . S
C2061 C2064 1.499 . S
C2062 H2042 0.950 . S
C2062 C2061 1.414 . S
C2062 C2063 1.374 . S
C2063 H2043 0.950 . S
C2063 C2059 1.385 . S
C2063 C2062 1.374 . S
C2064 C2061 1.499 . S
C2064 C2065 1.373 . S
C2064 C2066 1.389 . S
C2065 H2044 0.950 . S
C2065 C2064 1.373 . S
C2065 C2081 1.377 . S
C2066 C2064 1.389 . S
C2066 C2067 1.524 . S
C2066 C2080 1.377 . S
C2067 C2066 1.524 . S
C2067 C2068 1.397 . S
C2067 C2072 1.363 . S
C2068 H2045 0.950 . S
C2068 C2067 1.397 . S
C2068 C2069 1.334 . S
C2069 H2046 0.950 . S
C2069 C2068 1.334 . S
C2069 C2070 1.287 . S
C2070 C2069 1.287 . S
C2070 C2071 1.524 . S
C2070 H2089 0.913 . S
C2071 H2047 0.950 . S
C2071 C2070 1.524 . S
C2071 C2072 1.415 . S
C2072 H2048 0.950 . S
C2072 C2067 1.363 . S
C2072 C2071 1.415 . S
C2073 H2049 0.951 . S
C2073 C2074 1.366 . S
C2073 C2075 1.388 . S
C2074 C2073 1.366 . S
C2074 C2078 1.385 . S
C2075 H2050 0.951 . S
C2075 C2073 1.388 . S
C2075 C2076 1.366 . S
C2076 C2075 1.366 . S
C2076 C2077 1.414 . S
C2076 C2079 1.499 . S
C2077 H2051 0.950 . S
C2077 C2076 1.414 . S
C2077 C2078 1.374 . S
C2078 H2052 0.950 . S
C2078 C2074 1.385 . S
C2078 C2077 1.374 . S
C2079 C2076 1.499 . S
C2079 C2080 1.373 . S
C2079 C2081 1.389 . S
C2080 H2053 0.950 . S
C2080 C2066 1.377 . S
C2080 C2079 1.373 . S
C2081 C2065 1.377 . S
C2081 C2079 1.389 . S
C2081 C2082 1.524 . S
C2082 C2081 1.524 . S
C2082 C2083 1.397 . S
C2082 C2087 1.363 . S
C2083 H2054 0.950 . S
C2083 C2082 1.397 . S
C2083 C2084 1.334 . S
C2084 H2055 0.950 . S
C2084 C2083 1.334 . S
C2084 C2085 1.287 . S
C2085 C2084 1.287 . S
C2085 C2086 1.524 . S
C2085 H2088 0.999 . S
C2086 H2056 0.950 . S
C2086 C2085 1.524 . S
C2086 C2087 1.415 . S
C2087 H2057 0.950 . S
C2087 C2082 1.363 . S
C2087 C2086 1.415 . S
H2088 C2085 0.999 . S
H2089 C2070 0.913 . S
H2090 C2108 0.951 . S
H2091 C2110 0.951 . S
H2092 C2112 0.950 . S
H2093 C2113 0.950 . S
H2094 C2115 0.950 . S
H2095 C2118 0.950 . S
H2096 C2119 0.950 . S
H2097 C2121 0.950 . S
H2098 C2122 0.950 . S
H2099 C2123 0.951 . S
H2100 C2125 0.951 . S
H2101 C2127 0.950 . S
H2102 C2128 0.950 . S
H2103 C2130 0.950 . S
H2104 C2133 0.950 . S
H2105 C2134 0.950 . S
H2106 C2136 0.950 . S
H2107 C2137 0.950 . S
C2108 H2090 0.951 . S
C2108 C2109 1.366 . S
C2108 C2110 1.388 . S
C2109 C2108 1.366 . S
C2109 C2113 1.385 . S
C2110 H2091 0.951 . S
C2110 C2108 1.388 . S
C2110 C2111 1.366 . S
C2111 C2110 1.366 . S
C2111 C2112 1.414 . S
C2111 C2114 1.499 . S
C2112 H2092 0.950 . S
C2112 C2111 1.414 . S
C2112 C2113 1.374 . S
C2113 H2093 0.950 . S
C2113 C2109 1.385 . S
C2113 C2112 1.374 . S
C2114 C2111 1.499 . S
C2114 C2115 1.373 . S
C2114 C2116 1.389 . S
C2115 H2094 0.950 . S
C2115 C2114 1.373 . S
C2115 C2131 1.377 . S
C2116 C2114 1.389 . S
C2116 C2117 1.524 . S
C2116 C2130 1.377 . S
C2117 C2116 1.524 . S
C2117 C2118 1.397 . S
C2117 C2122 1.363 . S
C2118 H2095 0.950 . S
C2118 C2117 1.397 . S
C2118 C2119 1.334 . S
C2119 H2096 0.950 . S
C2119 C2118 1.334 . S
C2119 C2120 1.287 . S
C2120 C2119 1.287 . S
C2120 C2121 1.524 . S
C2120 H2139 0.913 . S
C2121 H2097 0.950 . S
C2121 C2120 1.524 . S
C2121 C2122 1.415 . S
C2122 H2098 0.950 . S
C2122 C2117 1.363 . S
C2122 C2121 1.415 . S
C2123 H2099 0.951 . S
C2123 C2124 1.366 . S
C2123 C2125 1.388 . S
C2124 C2123 1.366 . S
C2124 C2128 1.385 . S
C2125 H2100 0.951 . S
C2125 C2123 1.388 . S
C2125 C2126 1.366 . S
C2126 C2125 1.366 . S
C2126 C2127 1.414 . S
C2126 C2129 1.499 . S
C2127 H2101 0.950 . S
C2127 C2126 1.414 . S
C2127 C2128 1.374 . S
C2128 H2102 0.950 . S
C2128 C2124 1.385 . S
C2128 C2127 1.374 . S
C2129 C2126 1.499 . S
C2129 C2130 1.373 . S
C2129 C2131 1.389 . S
C2130 H2103 0.950 . S
C2130 C2116 1.377 . S
C2130 C2129 1.373 . S
C2131 C2115 1.377 . S
C2131 C2129 1.389 . S
C2131 C2132 1.524 . S
C2132 C2131 1.524 . S
C2132 C2133 1.397 . S
C2132 C2137 1.363 . S
C2133 H2104 0.950 . S
C2133 C2132 1.397 . S
C2133 C2134 1.334 . S
C2134 H2105 0.950 . S
C2134 C2133 1.334 . S
C2134 C2135 1.287 . S
C2135 C2134 1.287 . S
C2135 C2136 1.524 . S
C2135 H2138 0.999 . S
C2136 H2106 0.950 . S
C2136 C2135 1.524 . S
C2136 C2137 1.415 . S
C2137 H2107 0.950 . S
C2137 C2132 1.363 . S
C2137 C2136 1.415 . S
H2138 C2135 0.999 . S
H2139 C2120 0.913 . S
H2140 C2158 0.951 . S
H2141 C2160 0.951 . S
H2142 C2162 0.950 . S
H2143 C2163 0.950 . S
H2144 C2165 0.950 . S
H2145 C2168 0.950 . S
H2146 C2169 0.950 . S
H2147 C2171 0.950 . S
H2148 C2172 0.950 . S
H2149 C2173 0.951 . S
H2150 C2175 0.951 . S
H2151 C2177 0.950 . S
H2152 C2178 0.950 . S
H2153 C2180 0.950 . S
H2154 C2183 0.950 . S
H2155 C2184 0.950 . S
H2156 C2186 0.950 . S
H2157 C2187 0.950 . S
C2158 H2140 0.951 . S
C2158 C2159 1.366 . S
C2158 C2160 1.388 . S
C2159 C2158 1.366 . S
C2159 C2163 1.385 . S
C2160 H2141 0.951 . S
C2160 C2158 1.388 . S
C2160 C2161 1.366 . S
C2161 C2160 1.366 . S
C2161 C2162 1.414 . S
C2161 C2164 1.499 . S
C2162 H2142 0.950 . S
C2162 C2161 1.414 . S
C2162 C2163 1.374 . S
C2163 H2143 0.950 . S
C2163 C2159 1.385 . S
C2163 C2162 1.374 . S
C2164 C2161 1.499 . S
C2164 C2165 1.373 . S
C2164 C2166 1.389 . S
C2165 H2144 0.950 . S
C2165 C2164 1.373 . S
C2165 C2181 1.377 . S
C2166 C2164 1.389 . S
C2166 C2167 1.524 . S
C2166 C2180 1.377 . S
C2167 C2166 1.524 . S
C2167 C2168 1.397 . S
C2167 C2172 1.363 . S
C2168 H2145 0.950 . S
C2168 C2167 1.397 . S
C2168 C2169 1.334 . S
C2169 H2146 0.950 . S
C2169 C2168 1.334 . S
C2169 C2170 1.287 . S
C2170 C2169 1.287 . S
C2170 C2171 1.524 . S
C2170 H2189 0.913 . S
C2171 H2147 0.950 . S
C2171 C2170 1.524 . S
C2171 C2172 1.415 . S
C2172 H2148 0.950 . S
C2172 C2167 1.363 . S
C2172 C2171 1.415 . S
C2173 H2149 0.951 . S
C2173 C2174 1.366 . S
C2173 C2175 1.388 . S
C2174 C2173 1.366 . S
C2174 C2178 1.385 . S
C2175 H2150 0.951 . S
C2175 C2173 1.388 . S
C2175 C2176 1.366 . S
C2176 C2175 1.366 . S
C2176 C2177 1.414 . S
C2176 C2179 1.499 . S
C2177 H2151 0.950 . S
C2177 C2176 1.414 . S
C2177 C2178 1.374 . S
C2178 H2152 0.950 . S
C2178 C2174 1.385 . S
C2178 C2177 1.374 . S
C2179 C2176 1.499 . S
C2179 C2180 1.373 . S
C2179 C2181 1.389 . S
C2180 H2153 0.950 . S
C2180 C2166 1.377 . S
C2180 C2179 1.373 . S
C2181 C2165 1.377 . S
C2181 C2179 1.389 . S
C2181 C2182 1.524 . S
C2182 C2181 1.524 . S
C2182 C2183 1.397 . S
C2182 C2187 1.363 . S
C2183 H2154 0.950 . S
C2183 C2182 1.397 . S
C2183 C2184 1.334 . S
C2184 H2155 0.950 . S
C2184 C2183 1.334 . S
C2184 C2185 1.287 . S
C2185 C2184 1.287 . S
C2185 C2186 1.524 . S
C2185 H2188 0.999 . S
C2186 H2156 0.950 . S
C2186 C2185 1.524 . S
C2186 C2187 1.415 . S
C2187 H2157 0.950 . S
C2187 C2182 1.363 . S
C2187 C2186 1.415 . S
H2188 C2185 0.999 . S
H2189 C2170 0.913 . S
H2190 C2208 0.951 . S
H2191 C2210 0.951 . S
H2192 C2212 0.950 . S
H2193 C2213 0.950 . S
H2194 C2215 0.950 . S
H2195 C2218 0.950 . S
H2196 C2219 0.950 . S
H2197 C2221 0.950 . S
H2198 C2222 0.950 . S
H2199 C2223 0.951 . S
H2200 C2225 0.951 . S
H2201 C2227 0.950 . S
H2202 C2228 0.950 . S
H2203 C2230 0.950 . S
H2204 C2233 0.950 . S
H2205 C2234 0.950 . S
H2206 C2236 0.950 . S
H2207 C2237 0.950 . S
C2208 H2190 0.951 . S
C2208 C2209 1.366 . S
C2208 C2210 1.388 . S
C2209 C2208 1.366 . S
C2209 C2213 1.385 . S
C2210 H2191 0.951 . S
C2210 C2208 1.388 . S
C2210 C2211 1.366 . S
C2211 C2210 1.366 . S
C2211 C2212 1.414 . S
C2211 C2214 1.499 . S
C2212 H2192 0.950 . S
C2212 C2211 1.414 . S
C2212 C2213 1.374 . S
C2213 H2193 0.950 . S
C2213 C2209 1.385 . S
C2213 C2212 1.374 . S
C2214 C2211 1.499 . S
C2214 C2215 1.373 . S
C2214 C2216 1.389 . S
C2215 H2194 0.950 . S
C2215 C2214 1.373 . S
C2215 C2231 1.377 . S
C2216 C2214 1.389 . S
C2216 C2217 1.524 . S
C2216 C2230 1.377 . S
C2217 C2216 1.524 . S
C2217 C2218 1.397 . S
C2217 C2222 1.363 . S
C2218 H2195 0.950 . S
C2218 C2217 1.397 . S
C2218 C2219 1.334 . S
C2219 H2196 0.950 . S
C2219 C2218 1.334 . S
C2219 C2220 1.287 . S
C2220 C2219 1.287 . S
C2220 C2221 1.524 . S
C2220 H2239 0.913 . S
C2221 H2197 0.950 . S
C2221 C2220 1.524 . S
C2221 C2222 1.415 . S
C2222 H2198 0.950 . S
C2222 C2217 1.363 . S
C2222 C2221 1.415 . S
C2223 H2199 0.951 . S
C2223 C2224 1.366 . S
C2223 C2225 1.388 . S
C2224 C2223 1.366 . S
C2224 C2228 1.385 . S
C2225 H2200 0.951 . S
C2225 C2223 1.388 . S
C2225 C2226 1.366 . S
C2226 C2225 1.366 . S
C2226 C2227 1.414 . S
C2226 C2229 1.499 . S
C2227 H2201 0.950 . S
C2227 C2226 1.414 . S
C2227 C2228 1.374 . S
C2228 H2202 0.950 . S
C2228 C2224 1.385 . S
C2228 C2227 1.374 . S
C2229 C2226 1.499 . S
C2229 C2230 1.373 . S
C2229 C2231 1.389 . S
C2230 H2203 0.950 . S
C2230 C2216 1.377 . S
C2230 C2229 1.373 . S
C2231 C2215 1.377 . S
C2231 C2229 1.389 . S
C2231 C2232 1.524 . S
C2232 C2231 1.524 . S
C2232 C2233 1.397 . S
C2232 C2237 1.363 . S
C2233 H2204 0.950 . S
C2233 C2232 1.397 . S
C2233 C2234 1.334 . S
C2234 H2205 0.950 . S
C2234 C2233 1.334 . S
C2234 C2235 1.287 . S
C2235 C2234 1.287 . S
C2235 C2236 1.524 . S
C2235 H2238 0.999 . S
C2236 H2206 0.950 . S
C2236 C2235 1.524 . S
C2236 C2237 1.415 . S
C2237 H2207 0.950 . S
C2237 C2232 1.363 . S
C2237 C2236 1.415 . S
H2238 C2235 0.999 . S
H2239 C2220 0.913 . S
H2240 C2258 0.951 . S
H2241 C2260 0.951 . S
H2242 C2262 0.950 . S
H2243 C2263 0.950 . S
H2244 C2265 0.950 . S
H2245 C2268 0.950 . S
H2246 C2269 0.950 . S
H2247 C2271 0.950 . S
H2248 C2272 0.950 . S
H2249 C2273 0.951 . S
H2250 C2275 0.951 . S
H2251 C2277 0.950 . S
H2252 C2278 0.950 . S
H2253 C2280 0.950 . S
H2254 C2283 0.950 . S
H2255 C2284 0.950 . S
H2256 C2286 0.950 . S
H2257 C2287 0.950 . S
C2258 H2240 0.951 . S
C2258 C2259 1.366 . S
C2258 C2260 1.388 . S
C2259 C2258 1.366 . S
C2259 C2263 1.385 . S
C2260 H2241 0.951 . S
C2260 C2258 1.388 . S
C2260 C2261 1.366 . S
C2261 C2260 1.366 . S
C2261 C2262 1.414 . S
C2261 C2264 1.499 . S
C2262 H2242 0.950 . S
C2262 C2261 1.414 . S
C2262 C2263 1.374 . S
C2263 H2243 0.950 . S
C2263 C2259 1.385 . S
C2263 C2262 1.374 . S
C2264 C2261 1.499 . S
C2264 C2265 1.373 . S
C2264 C2266 1.389 . S
C2265 H2244 0.950 . S
C2265 C2264 1.373 . S
C2265 C2281 1.377 . S
C2266 C2264 1.389 . S
C2266 C2267 1.524 . S
C2266 C2280 1.377 . S
C2267 C2266 1.524 . S
C2267 C2268 1.397 . S
C2267 C2272 1.363 . S
C2268 H2245 0.950 . S
C2268 C2267 1.397 . S
C2268 C2269 1.334 . S
C2269 H2246 0.950 . S
C2269 C2268 1.334 . S
C2269 C2270 1.287 . S
C2270 C2269 1.287 . S
C2270 C2271 1.524 . S
C2270 H2289 0.913 . S
C2271 H2247 0.950 . S
C2271 C2270 1.524 . S
C2271 C2272 1.415 . S
C2272 H2248 0.950 . S
C2272 C2267 1.363 . S
C2272 C2271 1.415 . S
C2273 H2249 0.951 . S
C2273 C2274 1.366 . S
C2273 C2275 1.388 . S
C2274 C2273 1.366 . S
C2274 C2278 1.385 . S
C2275 H2250 0.951 . S
C2275 C2273 1.388 . S
C2275 C2276 1.366 . S
C2276 C2275 1.366 . S
C2276 C2277 1.414 . S
C2276 C2279 1.499 . S
C2277 H2251 0.950 . S
C2277 C2276 1.414 . S
C2277 C2278 1.374 . S
C2278 H2252 0.950 . S
C2278 C2274 1.385 . S
C2278 C2277 1.374 . S
C2279 C2276 1.499 . S
C2279 C2280 1.373 . S
C2279 C2281 1.389 . S
C2280 H2253 0.950 . S
C2280 C2266 1.377 . S
C2280 C2279 1.373 . S
C2281 C2265 1.377 . S
C2281 C2279 1.389 . S
C2281 C2282 1.524 . S
C2282 C2281 1.524 . S
C2282 C2283 1.397 . S
C2282 C2287 1.363 . S
C2283 H2254 0.950 . S
C2283 C2282 1.397 . S
C2283 C2284 1.334 . S
C2284 H2255 0.950 . S
C2284 C2283 1.334 . S
C2284 C2285 1.287 . S
C2285 C2284 1.287 . S
C2285 C2286 1.524 . S
C2285 H2288 0.999 . S
C2286 H2256 0.950 . S
C2286 C2285 1.524 . S
C2286 C2287 1.415 . S
C2287 H2257 0.950 . S
C2287 C2282 1.363 . S
C2287 C2286 1.415 . S
H2288 C2285 0.999 . S
H2289 C2270 0.913 . S
H2290 C2308 0.951 . S
H2291 C2310 0.951 . S
H2292 C2312 0.950 . S
H2293 C2313 0.950 . S
H2294 C2315 0.950 . S
H2295 C2318 0.950 . S
H2296 C2319 0.950 . S
H2297 C2321 0.950 . S
H2298 C2322 0.950 . S
H2299 C2323 0.951 . S
H2300 C2325 0.951 . S
H2301 C2327 0.950 . S
H2302 C2328 0.950 . S
H2303 C2330 0.950 . S
H2304 C2333 0.950 . S
H2305 C2334 0.950 . S
H2306 C2336 0.950 . S
H2307 C2337 0.950 . S
C2308 H2290 0.951 . S
C2308 C2309 1.366 . S
C2308 C2310 1.388 . S
C2309 C2308 1.366 . S
C2309 C2313 1.385 . S
C2310 H2291 0.951 . S
C2310 C2308 1.388 . S
C2310 C2311 1.366 . S
C2311 C2310 1.366 . S
C2311 C2312 1.414 . S
C2311 C2314 1.499 . S
C2312 H2292 0.950 . S
C2312 C2311 1.414 . S
C2312 C2313 1.374 . S
C2313 H2293 0.950 . S
C2313 C2309 1.385 . S
C2313 C2312 1.374 . S
C2314 C2311 1.499 . S
C2314 C2315 1.373 . S
C2314 C2316 1.389 . S
C2315 H2294 0.950 . S
C2315 C2314 1.373 . S
C2315 C2331 1.377 . S
C2316 C2314 1.389 . S
C2316 C2317 1.524 . S
C2316 C2330 1.377 . S
C2317 C2316 1.524 . S
C2317 C2318 1.397 . S
C2317 C2322 1.363 . S
C2318 H2295 0.950 . S
C2318 C2317 1.397 . S
C2318 C2319 1.334 . S
C2319 H2296 0.950 . S
C2319 C2318 1.334 . S
C2319 C2320 1.287 . S
C2320 C2319 1.287 . S
C2320 C2321 1.524 . S
C2320 H2339 0.913 . S
C2321 H2297 0.950 . S
C2321 C2320 1.524 . S
C2321 C2322 1.415 . S
C2322 H2298 0.950 . S
C2322 C2317 1.363 . S
C2322 C2321 1.415 . S
C2323 H2299 0.951 . S
C2323 C2324 1.366 . S
C2323 C2325 1.388 . S
C2324 C2323 1.366 . S
C2324 C2328 1.385 . S
C2325 H2300 0.951 . S
C2325 C2323 1.388 . S
C2325 C2326 1.366 . S
C2326 C2325 1.366 . S
C2326 C2327 1.414 . S
C2326 C2329 1.499 . S
C2327 H2301 0.950 . S
C2327 C2326 1.414 . S
C2327 C2328 1.374 . S
C2328 H2302 0.950 . S
C2328 C2324 1.385 . S
C2328 C2327 1.374 . S
C2329 C2326 1.499 . S
C2329 C2330 1.373 . S
C2329 C2331 1.389 . S
C2330 H2303 0.950 . S
C2330 C2316 1.377 . S
C2330 C2329 1.373 . S
C2331 C2315 1.377 . S
C2331 C2329 1.389 . S
C2331 C2332 1.524 . S
C2332 C2331 1.524 . S
C2332 C2333 1.397 . S
C2332 C2337 1.363 . S
C2333 H2304 0.950 . S
C2333 C2332 1.397 . S
C2333 C2334 1.334 . S
C2334 H2305 0.950 . S
C2334 C2333 1.334 . S
C2334 C2335 1.287 . S
C2335 C2334 1.287 . S
C2335 C2336 1.524 . S
C2335 H2338 0.999 . S
C2336 H2306 0.950 . S
C2336 C2335 1.524 . S
C2336 C2337 1.415 . S
C2337 H2307 0.950 . S
C2337 C2332 1.363 . S
C2337 C2336 1.415 . S
H2338 C2335 0.999 . S
H2339 C2320 0.913 . S
H2340 C2358 0.951 . S
H2341 C2360 0.951 . S
H2342 C2362 0.950 . S
H2343 C2363 0.950 . S
H2344 C2365 0.950 . S
H2345 C2368 0.950 . S
H2346 C2369 0.950 . S
H2347 C2371 0.950 . S
H2348 C2372 0.950 . S
H2349 C2373 0.951 . S
H2350 C2375 0.951 . S
H2351 C2377 0.950 . S
H2352 C2378 0.950 . S
H2353 C2380 0.950 . S
H2354 C2383 0.950 . S
H2355 C2384 0.950 . S
H2356 C2386 0.950 . S
H2357 C2387 0.950 . S
C2358 H2340 0.951 . S
C2358 C2359 1.366 . S
C2358 C2360 1.388 . S
C2359 C2358 1.366 . S
C2359 C2363 1.385 . S
C2360 H2341 0.951 . S
C2360 C2358 1.388 . S
C2360 C2361 1.366 . S
C2361 C2360 1.366 . S
C2361 C2362 1.414 . S
C2361 C2364 1.499 . S
C2362 H2342 0.950 . S
C2362 C2361 1.414 . S
C2362 C2363 1.374 . S
C2363 H2343 0.950 . S
C2363 C2359 1.385 . S
C2363 C2362 1.374 . S
C2364 C2361 1.499 . S
C2364 C2365 1.373 . S
C2364 C2366 1.389 . S
C2365 H2344 0.950 . S
C2365 C2364 1.373 . S
C2365 C2381 1.377 . S
C2366 C2364 1.389 . S
C2366 C2367 1.524 . S
C2366 C2380 1.377 . S
C2367 C2366 1.524 . S
C2367 C2368 1.397 . S
C2367 C2372 1.363 . S
C2368 H2345 0.950 . S
C2368 C2367 1.397 . S
C2368 C2369 1.334 . S
C2369 H2346 0.950 . S
C2369 C2368 1.334 . S
C2369 C2370 1.287 . S
C2370 C2369 1.287 . S
C2370 C2371 1.524 . S
C2370 H2389 0.913 . S
C2371 H2347 0.950 . S
C2371 C2370 1.524 . S
C2371 C2372 1.415 . S
C2372 H2348 0.950 . S
C2372 C2367 1.363 . S
C2372 C2371 1.415 . S
C2373 H2349 0.951 . S
C2373 C2374 1.366 . S
C2373 C2375 1.388 . S
C2374 C2373 1.366 . S
C2374 C2378 1.385 . S
C2375 H2350 0.951 . S
C2375 C2373 1.388 . S
C2375 C2376 1.366 . S
C2376 C2375 1.366 . S
C2376 C2377 1.414 . S
C2376 C2379 1.499 . S
C2377 H2351 0.950 . S
C2377 C2376 1.414 . S
C2377 C2378 1.374 . S
C2378 H2352 0.950 . S
C2378 C2374 1.385 . S
C2378 C2377 1.374 . S
C2379 C2376 1.499 . S
C2379 C2380 1.373 . S
C2379 C2381 1.389 . S
C2380 H2353 0.950 . S
C2380 C2366 1.377 . S
C2380 C2379 1.373 . S
C2381 C2365 1.377 . S
C2381 C2379 1.389 . S
C2381 C2382 1.524 . S
C2382 C2381 1.524 . S
C2382 C2383 1.397 . S
C2382 C2387 1.363 . S
C2383 H2354 0.950 . S
C2383 C2382 1.397 . S
C2383 C2384 1.334 . S
C2384 H2355 0.950 . S
C2384 C2383 1.334 . S
C2384 C2385 1.287 . S
C2385 C2384 1.287 . S
C2385 C2386 1.524 . S
C2385 H2388 0.999 . S
C2386 H2356 0.950 . S
C2386 C2385 1.524 . S
C2386 C2387 1.415 . S
C2387 H2357 0.950 . S
C2387 C2382 1.363 . S
C2387 C2386 1.415 . S
H2388 C2385 0.999 . S
H2389 C2370 0.913 . S
H2390 C2408 0.951 . S
H2391 C2410 0.951 . S
H2392 C2412 0.950 . S
H2393 C2413 0.950 . S
H2394 C2415 0.950 . S
H2395 C2418 0.950 . S
H2396 C2419 0.950 . S
H2397 C2421 0.950 . S
H2398 C2422 0.950 . S
H2399 C2423 0.951 . S
H2400 C2425 0.951 . S
H2401 C2427 0.950 . S
H2402 C2428 0.950 . S
H2403 C2430 0.950 . S
H2404 C2433 0.950 . S
H2405 C2434 0.950 . S
H2406 C2436 0.950 . S
H2407 C2437 0.950 . S
C2408 H2390 0.951 . S
C2408 C2409 1.366 . S
C2408 C2410 1.388 . S
C2409 C2408 1.366 . S
C2409 C2413 1.385 . S
C2410 H2391 0.951 . S
C2410 C2408 1.388 . S
C2410 C2411 1.366 . S
C2411 C2410 1.366 . S
C2411 C2412 1.414 . S
C2411 C2414 1.499 . S
C2412 H2392 0.950 . S
C2412 C2411 1.414 . S
C2412 C2413 1.374 . S
C2413 H2393 0.950 . S
C2413 C2409 1.385 . S
C2413 C2412 1.374 . S
C2414 C2411 1.499 . S
C2414 C2415 1.373 . S
C2414 C2416 1.389 . S
C2415 H2394 0.950 . S
C2415 C2414 1.373 . S
C2415 C2431 1.377 . S
C2416 C2414 1.389 . S
C2416 C2417 1.524 . S
C2416 C2430 1.377 . S
C2417 C2416 1.524 . S
C2417 C2418 1.397 . S
C2417 C2422 1.363 . S
C2418 H2395 0.950 . S
C2418 C2417 1.397 . S
C2418 C2419 1.334 . S
C2419 H2396 0.950 . S
C2419 C2418 1.334 . S
C2419 C2420 1.287 . S
C2420 C2419 1.287 . S
C2420 C2421 1.524 . S
C2420 H2439 0.913 . S
C2421 H2397 0.950 . S
C2421 C2420 1.524 . S
C2421 C2422 1.415 . S
C2422 H2398 0.950 . S
C2422 C2417 1.363 . S
C2422 C2421 1.415 . S
C2423 H2399 0.951 . S
C2423 C2424 1.366 . S
C2423 C2425 1.388 . S
C2424 C2423 1.366 . S
C2424 C2428 1.385 . S
C2425 H2400 0.951 . S
C2425 C2423 1.388 . S
C2425 C2426 1.366 . S
C2426 C2425 1.366 . S
C2426 C2427 1.414 . S
C2426 C2429 1.499 . S
C2427 H2401 0.950 . S
C2427 C2426 1.414 . S
C2427 C2428 1.374 . S
C2428 H2402 0.950 . S
C2428 C2424 1.385 . S
C2428 C2427 1.374 . S
C2429 C2426 1.499 . S
C2429 C2430 1.373 . S
C2429 C2431 1.389 . S
C2430 H2403 0.950 . S
C2430 C2416 1.377 . S
C2430 C2429 1.373 . S
C2431 C2415 1.377 . S
C2431 C2429 1.389 . S
C2431 C2432 1.524 . S
C2432 C2431 1.524 . S
C2432 C2433 1.397 . S
C2432 C2437 1.363 . S
C2433 H2404 0.950 . S
C2433 C2432 1.397 . S
C2433 C2434 1.334 . S
C2434 H2405 0.950 . S
C2434 C2433 1.334 . S
C2434 C2435 1.287 . S
C2435 C2434 1.287 . S
C2435 C2436 1.524 . S
C2435 H2438 0.999 . S
C2436 H2406 0.950 . S
C2436 C2435 1.524 . S
C2436 C2437 1.415 . S
C2437 H2407 0.950 . S
C2437 C2432 1.363 . S
C2437 C2436 1.415 . S
H2438 C2435 0.999 . S
H2439 C2420 0.913 . S
H2440 C2458 0.951 . S
H2441 C2460 0.951 . S
H2442 C2462 0.950 . S
H2443 C2463 0.950 . S
H2444 C2465 0.950 . S
H2445 C2468 0.950 . S
H2446 C2469 0.950 . S
H2447 C2471 0.950 . S
H2448 C2472 0.950 . S
H2449 C2473 0.951 . S
H2450 C2475 0.951 . S
H2451 C2477 0.950 . S
H2452 C2478 0.950 . S
H2453 C2480 0.950 . S
H2454 C2483 0.950 . S
H2455 C2484 0.950 . S
H2456 C2486 0.950 . S
H2457 C2487 0.950 . S
C2458 H2440 0.951 . S
C2458 C2459 1.366 . S
C2458 C2460 1.388 . S
C2459 C2458 1.366 . S
C2459 C2463 1.385 . S
C2460 H2441 0.951 . S
C2460 C2458 1.388 . S
C2460 C2461 1.366 . S
C2461 C2460 1.366 . S
C2461 C2462 1.414 . S
C2461 C2464 1.499 . S
C2462 H2442 0.950 . S
C2462 C2461 1.414 . S
C2462 C2463 1.374 . S
C2463 H2443 0.950 . S
C2463 C2459 1.385 . S
C2463 C2462 1.374 . S
C2464 C2461 1.499 . S
C2464 C2465 1.373 . S
C2464 C2466 1.389 . S
C2465 H2444 0.950 . S
C2465 C2464 1.373 . S
C2465 C2481 1.377 . S
C2466 C2464 1.389 . S
C2466 C2467 1.524 . S
C2466 C2480 1.377 . S
C2467 C2466 1.524 . S
C2467 C2468 1.397 . S
C2467 C2472 1.363 . S
C2468 H2445 0.950 . S
C2468 C2467 1.397 . S
C2468 C2469 1.334 . S
C2469 H2446 0.950 . S
C2469 C2468 1.334 . S
C2469 C2470 1.287 . S
C2470 C2469 1.287 . S
C2470 C2471 1.524 . S
C2470 H2489 0.913 . S
C2471 H2447 0.950 . S
C2471 C2470 1.524 . S
C2471 C2472 1.415 . S
C2472 H2448 0.950 . S
C2472 C2467 1.363 . S
C2472 C2471 1.415 . S
C2473 H2449 0.951 . S
C2473 C2474 1.366 . S
C2473 C2475 1.388 . S
C2474 C2473 1.366 . S
C2474 C2478 1.385 . S
C2475 H2450 0.951 . S
C2475 C2473 1.388 . S
C2475 C2476 1.366 . S
C2476 C2475 1.366 . S
C2476 C2477 1.414 . S
C2476 C2479 1.499 . S
C2477 H2451 0.950 . S
C2477 C2476 1.414 . S
C2477 C2478 1.374 . S
C2478 H2452 0.950 . S
C2478 C2474 1.385 . S
C2478 C2477 1.374 . S
C2479 C2476 1.499 . S
C2479 C2480 1.373 . S
C2479 C2481 1.389 . S
C2480 H2453 0.950 . S
C2480 C2466 1.377 . S
C2480 C2479 1.373 . S
C2481 C2465 1.377 . S
C2481 C2479 1.389 . S
C2481 C2482 1.524 . S
C2482 C2481 1.524 . S
C2482 C2483 1.397 . S
C2482 C2487 1.363 . S
C2483 H2454 0.950 . S
C2483 C2482 1.397 . S
C2483 C2484 1.334 . S
C2484 H2455 0.950 . S
C2484 C2483 1.334 . S
C2484 C2485 1.287 . S
C2485 C2484 1.287 . S
C2485 C2486 1.524 . S
C2485 H2488 0.999 . S
C2486 H2456 0.950 . S
C2486 C2485 1.524 . S
C2486 C2487 1.415 . S
C2487 H2457 0.950 . S
C2487 C2482 1.363 . S
C2487 C2486 1.415 . S
H2488 C2485 0.999 . S
H2489 C2470 0.913 . S
H2490 C2508 0.951 . S
H2491 C2510 0.951 . S
H2492 C2512 0.950 . S
H2493 C2513 0.950 . S
H2494 C2515 0.950 . S
H2495 C2518 0.950 . S
H2496 C2519 0.950 . S
H2497 C2521 0.950 . S
H2498 C2522 0.950 . S
H2499 C2523 0.951 . S
H2500 C2525 0.951 . S
H2501 C2527 0.950 . S
H2502 C2528 0.950 . S
H2503 C2530 0.950 . S
H2504 C2533 0.950 . S
H2505 C2534 0.950 . S
H2506 C2536 0.950 . S
H2507 C2537 0.950 . S
C2508 H2490 0.951 . S
C2508 C2509 1.366 . S
C2508 C2510 1.388 . S
C2509 C2508 1.366 . S
C2509 C2513 1.385 . S
C2510 H2491 0.951 . S
C2510 C2508 1.388 . S
C2510 C2511 1.366 . S
C2511 C2510 1.366 . S
C2511 C2512 1.414 . S
C2511 C2514 1.499 . S
C2512 H2492 0.950 . S
C2512 C2511 1.414 . S
C2512 C2513 1.374 . S
C2513 H2493 0.950 . S
C2513 C2509 1.385 . S
C2513 C2512 1.374 . S
C2514 C2511 1.499 . S
C2514 C2515 1.373 . S
C2514 C2516 1.389 . S
C2515 H2494 0.950 . S
C2515 C2514 1.373 . S
C2515 C2531 1.377 . S
C2516 C2514 1.389 . S
C2516 C2517 1.524 . S
C2516 C2530 1.377 . S
C2517 C2516 1.524 . S
C2517 C2518 1.397 . S
C2517 C2522 1.363 . S
C2518 H2495 0.950 . S
C2518 C2517 1.397 . S
C2518 C2519 1.334 . S
C2519 H2496 0.950 . S
C2519 C2518 1.334 . S
C2519 C2520 1.287 . S
C2520 C2519 1.287 . S
C2520 C2521 1.524 . S
C2520 H2539 0.913 . S
C2521 H2497 0.950 . S
C2521 C2520 1.524 . S
C2521 C2522 1.415 . S
C2522 H2498 0.950 . S
C2522 C2517 1.363 . S
C2522 C2521 1.415 . S
C2523 H2499 0.951 . S
C2523 C2524 1.366 . S
C2523 C2525 1.388 . S
C2524 C2523 1.366 . S
C2524 C2528 1.385 . S
C2525 H2500 0.951 . S
C2525 C2523 1.388 . S
C2525 C2526 1.366 . S
C2526 C2525 1.366 . S
C2526 C2527 1.414 . S
C2526 C2529 1.499 . S
C2527 H2501 0.950 . S
C2527 C2526 1.414 . S
C2527 C2528 1.374 . S
C2528 H2502 0.950 . S
C2528 C2524 1.385 . S
C2528 C2527 1.374 . S
C2529 C2526 1.499 . S
C2529 C2530 1.373 . S
C2529 C2531 1.389 . S
C2530 H2503 0.950 . S
C2530 C2516 1.377 . S
C2530 C2529 1.373 . S
C2531 C2515 1.377 . S
C2531 C2529 1.389 . S
C2531 C2532 1.524 . S
C2532 C2531 1.524 . S
C2532 C2533 1.397 . S
C2532 C2537 1.363 . S
C2533 H2504 0.950 . S
C2533 C2532 1.397 . S
C2533 C2534 1.334 . S
C2534 H2505 0.950 . S
C2534 C2533 1.334 . S
C2534 C2535 1.287 . S
C2535 C2534 1.287 . S
C2535 C2536 1.524 . S
C2535 H2538 0.999 . S
C2536 H2506 0.950 . S
C2536 C2535 1.524 . S
C2536 C2537 1.415 . S
C2537 H2507 0.950 . S
C2537 C2532 1.363 . S
C2537 C2536 1.415 . S
H2538 C2535 0.999 . S
H2539 C2520 0.913 . S
H2540 C2558 0.951 . S
H2541 C2560 0.951 . S
H2542 C2562 0.950 . S
H2543 C2563 0.950 . S
H2544 C2565 0.950 . S
H2545 C2568 0.950 . S
H2546 C2569 0.950 . S
H2547 C2571 0.950 . S
H2548 C2572 0.950 . S
H2549 C2573 0.951 . S
H2550 C2575 0.951 . S
H2551 C2577 0.950 . S
H2552 C2578 0.950 . S
H2553 C2580 0.950 . S
H2554 C2583 0.950 . S
H2555 C2584 0.950 . S
H2556 C2586 0.950 . S
H2557 C2587 0.950 . S
C2558 H2540 0.951 . S
C2558 C2559 1.366 . S
C2558 C2560 1.388 . S
C2559 C2558 1.366 . S
C2559 C2563 1.385 . S
C2560 H2541 0.951 . S
C2560 C2558 1.388 . S
C2560 C2561 1.366 . S
C2561 C2560 1.366 . S
C2561 C2562 1.414 . S
C2561 C2564 1.499 . S
C2562 H2542 0.950 . S
C2562 C2561 1.414 . S
C2562 C2563 1.374 . S
C2563 H2543 0.950 . S
C2563 C2559 1.385 . S
C2563 C2562 1.374 . S
C2564 C2561 1.499 . S
C2564 C2565 1.373 . S
C2564 C2566 1.389 . S
C2565 H2544 0.950 . S
C2565 C2564 1.373 . S
C2565 C2581 1.377 . S
C2566 C2564 1.389 . S
C2566 C2567 1.524 . S
C2566 C2580 1.377 . S
C2567 C2566 1.524 . S
C2567 C2568 1.397 . S
C2567 C2572 1.363 . S
C2568 H2545 0.950 . S
C2568 C2567 1.397 . S
C2568 C2569 1.334 . S
C2569 H2546 0.950 . S
C2569 C2568 1.334 . S
C2569 C2570 1.287 . S
C2570 C2569 1.287 . S
C2570 C2571 1.524 . S
C2570 H2589 0.913 . S
C2571 H2547 0.950 . S
C2571 C2570 1.524 . S
C2571 C2572 1.415 . S
C2572 H2548 0.950 . S
C2572 C2567 1.363 . S
C2572 C2571 1.415 . S
C2573 H2549 0.951 . S
C2573 C2574 1.366 . S
C2573 C2575 1.388 . S
C2574 C2573 1.366 . S
C2574 C2578 1.385 . S
C2575 H2550 0.951 . S
C2575 C2573 1.388 . S
C2575 C2576 1.366 . S
C2576 C2575 1.366 . S
C2576 C2577 1.414 . S
C2576 C2579 1.499 . S
C2577 H2551 0.950 . S
C2577 C2576 1.414 . S
C2577 C2578 1.374 . S
C2578 H2552 0.950 . S
C2578 C2574 1.385 . S
C2578 C2577 1.374 . S
C2579 C2576 1.499 . S
C2579 C2580 1.373 . S
C2579 C2581 1.389 . S
C2580 H2553 0.950 . S
C2580 C2566 1.377 . S
C2580 C2579 1.373 . S
C2581 C2565 1.377 . S
C2581 C2579 1.389 . S
C2581 C2582 1.524 . S
C2582 C2581 1.524 . S
C2582 C2583 1.397 . S
C2582 C2587 1.363 . S
C2583 H2554 0.950 . S
C2583 C2582 1.397 . S
C2583 C2584 1.334 . S
C2584 H2555 0.950 . S
C2584 C2583 1.334 . S
C2584 C2585 1.287 . S
C2585 C2584 1.287 . S
C2585 C2586 1.524 . S
C2585 H2588 0.999 . S
C2586 H2556 0.950 . S
C2586 C2585 1.524 . S
C2586 C2587 1.415 . S
C2587 H2557 0.950 . S
C2587 C2582 1.363 . S
C2587 C2586 1.415 . S
H2588 C2585 0.999 . S
H2589 C2570 0.913 . S
H2590 C2608 0.951 . S
H2591 C2610 0.951 . S
H2592 C2612 0.950 . S
H2593 C2613 0.950 . S
H2594 C2615 0.950 . S
H2595 C2618 0.950 . S
H2596 C2619 0.950 . S
H2597 C2621 0.950 . S
H2598 C2622 0.950 . S
H2599 C2623 0.951 . S
H2600 C2625 0.951 . S
H2601 C2627 0.950 . S
H2602 C2628 0.950 . S
H2603 C2630 0.950 . S
H2604 C2633 0.950 . S
H2605 C2634 0.950 . S
H2606 C2636 0.950 . S
H2607 C2637 0.950 . S
C2608 H2590 0.951 . S
C2608 C2609 1.366 . S
C2608 C2610 1.388 . S
C2609 C2608 1.366 . S
C2609 C2613 1.385 . S
C2610 H2591 0.951 . S
C2610 C2608 1.388 . S
C2610 C2611 1.366 . S
C2611 C2610 1.366 . S
C2611 C2612 1.414 . S
C2611 C2614 1.499 . S
C2612 H2592 0.950 . S
C2612 C2611 1.414 . S
C2612 C2613 1.374 . S
C2613 H2593 0.950 . S
C2613 C2609 1.385 . S
C2613 C2612 1.374 . S
C2614 C2611 1.499 . S
C2614 C2615 1.373 . S
C2614 C2616 1.389 . S
C2615 H2594 0.950 . S
C2615 C2614 1.373 . S
C2615 C2631 1.377 . S
C2616 C2614 1.389 . S
C2616 C2617 1.524 . S
C2616 C2630 1.377 . S
C2617 C2616 1.524 . S
C2617 C2618 1.397 . S
C2617 C2622 1.363 . S
C2618 H2595 0.950 . S
C2618 C2617 1.397 . S
C2618 C2619 1.334 . S
C2619 H2596 0.950 . S
C2619 C2618 1.334 . S
C2619 C2620 1.287 . S
C2620 C2619 1.287 . S
C2620 C2621 1.524 . S
C2620 H2639 0.913 . S
C2621 H2597 0.950 . S
C2621 C2620 1.524 . S
C2621 C2622 1.415 . S
C2622 H2598 0.950 . S
C2622 C2617 1.363 . S
C2622 C2621 1.415 . S
C2623 H2599 0.951 . S
C2623 C2624 1.366 . S
C2623 C2625 1.388 . S
C2624 C2623 1.366 . S
C2624 C2628 1.385 . S
C2625 H2600 0.951 . S
C2625 C2623 1.388 . S
C2625 C2626 1.366 . S
C2626 C2625 1.366 . S
C2626 C2627 1.414 . S
C2626 C2629 1.499 . S
C2627 H2601 0.950 . S
C2627 C2626 1.414 . S
C2627 C2628 1.374 . S
C2628 H2602 0.950 . S
C2628 C2624 1.385 . S
C2628 C2627 1.374 . S
C2629 C2626 1.499 . S
C2629 C2630 1.373 . S
C2629 C2631 1.389 . S
C2630 H2603 0.950 . S
C2630 C2616 1.377 . S
C2630 C2629 1.373 . S
C2631 C2615 1.377 . S
C2631 C2629 1.389 . S
C2631 C2632 1.524 . S
C2632 C2631 1.524 . S
C2632 C2633 1.397 . S
C2632 C2637 1.363 . S
C2633 H2604 0.950 . S
C2633 C2632 1.397 . S
C2633 C2634 1.334 . S
C2634 H2605 0.950 . S
C2634 C2633 1.334 . S
C2634 C2635 1.287 . S
C2635 C2634 1.287 . S
C2635 C2636 1.524 . S
C2635 H2638 0.999 . S
C2636 H2606 0.950 . S
C2636 C2635 1.524 . S
C2636 C2637 1.415 . S
C2637 H2607 0.950 . S
C2637 C2632 1.363 . S
C2637 C2636 1.415 . S
H2638 C2635 0.999 . S
H2639 C2620 0.913 . S
H2640 C2658 0.951 . S
H2641 C2660 0.951 . S
H2642 C2662 0.950 . S
H2643 C2663 0.950 . S
H2644 C2665 0.950 . S
H2645 C2668 0.950 . S
H2646 C2669 0.950 . S
H2647 C2671 0.950 . S
H2648 C2672 0.950 . S
H2649 C2673 0.951 . S
H2650 C2675 0.951 . S
H2651 C2677 0.950 . S
H2652 C2678 0.950 . S
H2653 C2680 0.950 . S
H2654 C2683 0.950 . S
H2655 C2684 0.950 . S
H2656 C2686 0.950 . S
H2657 C2687 0.950 . S
C2658 H2640 0.951 . S
C2658 C2659 1.366 . S
C2658 C2660 1.388 1_556 S
C2659 C2658 1.366 . S
C2659 C2663 1.385 . S
C2660 H2641 0.951 . S
C2660 C2658 1.388 1_554 S
C2660 C2661 1.366 . S
C2661 C2660 1.366 . S
C2661 C2662 1.414 . S
C2661 C2664 1.499 . S
C2662 H2642 0.950 . S
C2662 C2661 1.414 . S
C2662 C2663 1.374 1_554 S
C2663 H2643 0.950 . S
C2663 C2659 1.385 . S
C2663 C2662 1.374 1_556 S
C2664 C2661 1.499 . S
C2664 C2665 1.373 . S
C2664 C2666 1.389 . S
C2665 H2644 0.950 . S
C2665 C2664 1.373 . S
C2665 C2681 1.377 . S
C2666 C2664 1.389 . S
C2666 C2667 1.524 . S
C2666 C2680 1.377 . S
C2667 C2666 1.524 . S
C2667 C2668 1.397 . S
C2667 C2672 1.363 . S
C2668 H2645 0.950 . S
C2668 C2667 1.397 . S
C2668 C2669 1.334 . S
C2669 H2646 0.950 . S
C2669 C2668 1.334 . S
C2669 C2670 1.287 . S
C2670 C2669 1.287 . S
C2670 C2671 1.524 . S
C2670 H2689 0.913 . S
C2671 H2647 0.950 . S
C2671 C2670 1.524 . S
C2671 C2672 1.415 . S
C2672 H2648 0.950 . S
C2672 C2667 1.363 . S
C2672 C2671 1.415 . S
C2673 H2649 0.951 . S
C2673 C2674 1.366 . S
C2673 C2675 1.388 . S
C2674 C2673 1.366 . S
C2674 C2678 1.385 . S
C2675 H2650 0.951 . S
C2675 C2673 1.388 . S
C2675 C2676 1.366 . S
C2676 C2675 1.366 . S
C2676 C2677 1.414 . S
C2676 C2679 1.499 . S
C2677 H2651 0.950 . S
C2677 C2676 1.414 . S
C2677 C2678 1.374 . S
C2678 H2652 0.950 . S
C2678 C2674 1.385 . S
C2678 C2677 1.374 . S
C2679 C2676 1.499 . S
C2679 C2680 1.373 . S
C2679 C2681 1.389 . S
C2680 H2653 0.950 . S
C2680 C2666 1.377 . S
C2680 C2679 1.373 . S
C2681 C2665 1.377 . S
C2681 C2679 1.389 . S
C2681 C2682 1.524 . S
C2682 C2681 1.524 . S
C2682 C2683 1.397 . S
C2682 C2687 1.363 . S
C2683 H2654 0.950 . S
C2683 C2682 1.397 . S
C2683 C2684 1.334 . S
C2684 H2655 0.950 . S
C2684 C2683 1.334 . S
C2684 C2685 1.287 . S
C2685 C2684 1.287 . S
C2685 C2686 1.524 . S
C2685 H2688 0.999 . S
C2686 H2656 0.950 . S
C2686 C2685 1.524 . S
C2686 C2687 1.415 . S
C2687 H2657 0.950 . S
C2687 C2682 1.363 . S
C2687 C2686 1.415 . S
H2688 C2685 0.999 . S
H2689 C2670 0.913 . S
H2690 C2708 0.951 . S
H2691 C2710 0.951 . S
H2692 C2712 0.950 . S
H2693 C2713 0.950 . S
H2694 C2715 0.950 . S
H2695 C2718 0.950 . S
H2696 C2719 0.950 . S
H2697 C2721 0.950 . S
H2698 C2722 0.950 . S
H2699 C2723 0.951 . S
H2700 C2725 0.951 . S
H2701 C2727 0.950 . S
H2702 C2728 0.950 . S
H2703 C2730 0.950 . S
H2704 C2733 0.950 . S
H2705 C2734 0.950 . S
H2706 C2736 0.950 . S
H2707 C2737 0.950 . S
C2708 H2690 0.951 . S
C2708 C2709 1.366 . S
C2708 C2710 1.388 . S
C2709 C2708 1.366 . S
C2709 C2713 1.385 . S
C2710 H2691 0.951 . S
C2710 C2708 1.388 . S
C2710 C2711 1.366 . S
C2711 C2710 1.366 . S
C2711 C2712 1.414 . S
C2711 C2714 1.499 . S
C2712 H2692 0.950 . S
C2712 C2711 1.414 . S
C2712 C2713 1.374 . S
C2713 H2693 0.950 . S
C2713 C2709 1.385 . S
C2713 C2712 1.374 . S
C2714 C2711 1.499 . S
C2714 C2715 1.373 . S
C2714 C2716 1.389 . S
C2715 H2694 0.950 . S
C2715 C2714 1.373 . S
C2715 C2731 1.377 . S
C2716 C2714 1.389 . S
C2716 C2717 1.524 . S
C2716 C2730 1.377 . S
C2717 C2716 1.524 . S
C2717 C2718 1.397 . S
C2717 C2722 1.363 . S
C2718 H2695 0.950 . S
C2718 C2717 1.397 . S
C2718 C2719 1.334 . S
C2719 H2696 0.950 . S
C2719 C2718 1.334 . S
C2719 C2720 1.287 . S
C2720 C2719 1.287 . S
C2720 C2721 1.524 . S
C2720 H2739 0.913 . S
C2721 H2697 0.950 . S
C2721 C2720 1.524 . S
C2721 C2722 1.415 . S
C2722 H2698 0.950 . S
C2722 C2717 1.363 . S
C2722 C2721 1.415 . S
C2723 H2699 0.951 . S
C2723 C2724 1.366 . S
C2723 C2725 1.388 1_554 S
C2724 C2723 1.366 . S
C2724 C2728 1.385 . S
C2725 H2700 0.951 . S
C2725 C2723 1.388 1_556 S
C2725 C2726 1.366 . S
C2726 C2725 1.366 . S
C2726 C2727 1.414 . S
C2726 C2729 1.499 . S
C2727 H2701 0.950 . S
C2727 C2726 1.414 . S
C2727 C2728 1.374 1_556 S
C2728 H2702 0.950 . S
C2728 C2724 1.385 . S
C2728 C2727 1.374 1_554 S
C2729 C2726 1.499 . S
C2729 C2730 1.373 . S
C2729 C2731 1.389 . S
C2730 H2703 0.950 . S
C2730 C2716 1.377 . S
C2730 C2729 1.373 . S
C2731 C2715 1.377 . S
C2731 C2729 1.389 . S
C2731 C2732 1.524 . S
C2732 C2731 1.524 . S
C2732 C2733 1.397 . S
C2732 C2737 1.363 . S
C2733 H2704 0.950 . S
C2733 C2732 1.397 . S
C2733 C2734 1.334 . S
C2734 H2705 0.950 . S
C2734 C2733 1.334 . S
C2734 C2735 1.287 . S
C2735 C2734 1.287 . S
C2735 C2736 1.524 . S
C2735 H2738 0.999 . S
C2736 H2706 0.950 . S
C2736 C2735 1.524 . S
C2736 C2737 1.415 . S
C2737 H2707 0.950 . S
C2737 C2732 1.363 . S
C2737 C2736 1.415 . S
H2738 C2735 0.999 . S
H2739 C2720 0.913 . S
H2740 C2758 0.951 . S
H2741 C2760 0.951 . S
H2742 C2762 0.950 . S
H2743 C2763 0.950 . S
H2744 C2765 0.950 . S
H2745 C2768 0.950 . S
H2746 C2769 0.950 . S
H2747 C2771 0.950 . S
H2748 C2772 0.950 . S
H2749 C2773 0.951 . S
H2750 C2775 0.951 . S
H2751 C2777 0.950 . S
H2752 C2778 0.950 . S
H2753 C2780 0.950 . S
H2754 C2783 0.950 . S
H2755 C2784 0.950 . S
H2756 C2786 0.950 . S
H2757 C2787 0.950 . S
C2758 H2740 0.951 . S
C2758 C2759 1.366 . S
C2758 C2760 1.388 . S
C2759 C2758 1.366 . S
C2759 C2763 1.385 . S
C2760 H2741 0.951 . S
C2760 C2758 1.388 . S
C2760 C2761 1.366 . S
C2761 C2760 1.366 . S
C2761 C2762 1.414 . S
C2761 C2764 1.499 . S
C2762 H2742 0.950 . S
C2762 C2761 1.414 . S
C2762 C2763 1.374 . S
C2763 H2743 0.950 . S
C2763 C2759 1.385 . S
C2763 C2762 1.374 . S
C2764 C2761 1.499 . S
C2764 C2765 1.373 . S
C2764 C2766 1.389 . S
C2765 H2744 0.950 . S
C2765 C2764 1.373 . S
C2765 C2781 1.377 . S
C2766 C2764 1.389 . S
C2766 C2767 1.524 . S
C2766 C2780 1.377 . S
C2767 C2766 1.524 . S
C2767 C2768 1.397 . S
C2767 C2772 1.363 . S
C2768 H2745 0.950 . S
C2768 C2767 1.397 . S
C2768 C2769 1.334 . S
C2769 H2746 0.950 . S
C2769 C2768 1.334 . S
C2769 C2770 1.287 . S
C2770 C2769 1.287 . S
C2770 C2771 1.524 . S
C2770 H2789 0.913 . S
C2771 H2747 0.950 . S
C2771 C2770 1.524 . S
C2771 C2772 1.415 . S
C2772 H2748 0.950 . S
C2772 C2767 1.363 . S
C2772 C2771 1.415 . S
C2773 H2749 0.951 . S
C2773 C2774 1.366 . S
C2773 C2775 1.388 1_556 S
C2774 C2773 1.366 . S
C2774 C2778 1.385 . S
C2775 H2750 0.951 . S
C2775 C2773 1.388 1_554 S
C2775 C2776 1.366 . S
C2776 C2775 1.366 . S
C2776 C2777 1.414 . S
C2776 C2779 1.499 . S
C2777 H2751 0.950 . S
C2777 C2776 1.414 . S
C2777 C2778 1.374 1_554 S
C2778 H2752 0.950 . S
C2778 C2774 1.385 . S
C2778 C2777 1.374 1_556 S
C2779 C2776 1.499 . S
C2779 C2780 1.373 . S
C2779 C2781 1.389 . S
C2780 H2753 0.950 . S
C2780 C2766 1.377 . S
C2780 C2779 1.373 . S
C2781 C2765 1.377 . S
C2781 C2779 1.389 . S
C2781 C2782 1.524 . S
C2782 C2781 1.524 . S
C2782 C2783 1.397 . S
C2782 C2787 1.363 . S
C2783 H2754 0.950 . S
C2783 C2782 1.397 . S
C2783 C2784 1.334 . S
C2784 H2755 0.950 . S
C2784 C2783 1.334 . S
C2784 C2785 1.287 . S
C2785 C2784 1.287 . S
C2785 C2786 1.524 . S
C2785 H2788 0.999 . S
C2786 H2756 0.950 . S
C2786 C2785 1.524 . S
C2786 C2787 1.415 . S
C2787 H2757 0.950 . S
C2787 C2782 1.363 . S
C2787 C2786 1.415 . S
H2788 C2785 0.999 . S
H2789 C2770 0.913 . S
H2790 C2808 0.951 . S
H2791 C2810 0.951 . S
H2792 C2812 0.950 . S
H2793 C2813 0.950 . S
H2794 C2815 0.950 . S
H2795 C2818 0.950 . S
H2796 C2819 0.950 . S
H2797 C2821 0.950 . S
H2798 C2822 0.950 . S
H2799 C2823 0.951 . S
H2800 C2825 0.951 . S
H2801 C2827 0.950 . S
H2802 C2828 0.950 . S
H2803 C2830 0.950 . S
H2804 C2833 0.950 . S
H2805 C2834 0.950 . S
H2806 C2836 0.950 . S
H2807 C2837 0.950 . S
C2808 H2790 0.951 . S
C2808 C2809 1.366 . S
C2808 C2810 1.388 1_554 S
C2809 C2808 1.366 . S
C2809 C2813 1.385 . S
C2810 H2791 0.951 . S
C2810 C2808 1.388 1_556 S
C2810 C2811 1.366 . S
C2811 C2810 1.366 . S
C2811 C2812 1.414 . S
C2811 C2814 1.499 . S
C2812 H2792 0.950 . S
C2812 C2811 1.414 . S
C2812 C2813 1.374 1_556 S
C2813 H2793 0.950 . S
C2813 C2809 1.385 . S
C2813 C2812 1.374 1_554 S
C2814 C2811 1.499 . S
C2814 C2815 1.373 . S
C2814 C2816 1.389 . S
C2815 H2794 0.950 . S
C2815 C2814 1.373 . S
C2815 C2831 1.377 . S
C2816 C2814 1.389 . S
C2816 C2817 1.524 . S
C2816 C2830 1.377 . S
C2817 C2816 1.524 . S
C2817 C2818 1.397 . S
C2817 C2822 1.363 . S
C2818 H2795 0.950 . S
C2818 C2817 1.397 . S
C2818 C2819 1.334 . S
C2819 H2796 0.950 . S
C2819 C2818 1.334 . S
C2819 C2820 1.287 . S
C2820 C2819 1.287 . S
C2820 C2821 1.524 . S
C2820 H2839 0.913 . S
C2821 H2797 0.950 . S
C2821 C2820 1.524 . S
C2821 C2822 1.415 . S
C2822 H2798 0.950 . S
C2822 C2817 1.363 . S
C2822 C2821 1.415 . S
C2823 H2799 0.951 . S
C2823 C2824 1.366 . S
C2823 C2825 1.388 . S
C2824 C2823 1.366 . S
C2824 C2828 1.385 . S
C2825 H2800 0.951 . S
C2825 C2823 1.388 . S
C2825 C2826 1.366 . S
C2826 C2825 1.366 . S
C2826 C2827 1.414 . S
C2826 C2829 1.499 . S
C2827 H2801 0.950 . S
C2827 C2826 1.414 . S
C2827 C2828 1.374 . S
C2828 H2802 0.950 . S
C2828 C2824 1.385 . S
C2828 C2827 1.374 . S
C2829 C2826 1.499 . S
C2829 C2830 1.373 . S
C2829 C2831 1.389 . S
C2830 H2803 0.950 . S
C2830 C2816 1.377 . S
C2830 C2829 1.373 . S
C2831 C2815 1.377 . S
C2831 C2829 1.389 . S
C2831 C2832 1.524 . S
C2832 C2831 1.524 . S
C2832 C2833 1.397 . S
C2832 C2837 1.363 . S
C2833 H2804 0.950 . S
C2833 C2832 1.397 . S
C2833 C2834 1.334 . S
C2834 H2805 0.950 . S
C2834 C2833 1.334 . S
C2834 C2835 1.287 . S
C2835 C2834 1.287 . S
C2835 C2836 1.524 . S
C2835 H2838 0.999 . S
C2836 H2806 0.950 . S
C2836 C2835 1.524 . S
C2836 C2837 1.415 . S
C2837 H2807 0.950 . S
C2837 C2832 1.363 . S
C2837 C2836 1.415 . S
H2838 C2835 0.999 . S
H2839 C2820 0.913 . S
H2840 C2858 0.951 . S
H2841 C2860 0.951 . S
H2842 C2862 0.950 . S
H2843 C2863 0.950 . S
H2844 C2865 0.950 . S
H2845 C2868 0.950 . S
H2846 C2869 0.950 . S
H2847 C2871 0.950 . S
H2848 C2872 0.950 . S
H2849 C2873 0.951 . S
H2850 C2875 0.951 . S
H2851 C2877 0.950 . S
H2852 C2878 0.950 . S
H2853 C2880 0.950 . S
H2854 C2883 0.950 . S
H2855 C2884 0.950 . S
H2856 C2886 0.950 . S
H2857 C2887 0.950 . S
C2858 H2840 0.951 . S
C2858 C2859 1.366 . S
C2858 C2860 1.388 . S
C2859 C2858 1.366 . S
C2859 C2863 1.385 . S
C2860 H2841 0.951 . S
C2860 C2858 1.388 . S
C2860 C2861 1.366 . S
C2861 C2860 1.366 . S
C2861 C2862 1.414 . S
C2861 C2864 1.499 . S
C2862 H2842 0.950 . S
C2862 C2861 1.414 . S
C2862 C2863 1.374 . S
C2863 H2843 0.950 . S
C2863 C2859 1.385 . S
C2863 C2862 1.374 . S
C2864 C2861 1.499 . S
C2864 C2865 1.373 . S
C2864 C2866 1.389 . S
C2865 H2844 0.950 . S
C2865 C2864 1.373 . S
C2865 C2881 1.377 . S
C2866 C2864 1.389 . S
C2866 C2867 1.524 . S
C2866 C2880 1.377 . S
C2867 C2866 1.524 . S
C2867 C2868 1.397 . S
C2867 C2872 1.363 . S
C2868 H2845 0.950 . S
C2868 C2867 1.397 . S
C2868 C2869 1.334 . S
C2869 H2846 0.950 . S
C2869 C2868 1.334 . S
C2869 C2870 1.287 . S
C2870 C2869 1.287 . S
C2870 C2871 1.524 . S
C2870 H2889 0.913 . S
C2871 H2847 0.950 . S
C2871 C2870 1.524 . S
C2871 C2872 1.415 . S
C2872 H2848 0.950 . S
C2872 C2867 1.363 . S
C2872 C2871 1.415 . S
C2873 H2849 0.951 . S
C2873 C2874 1.366 . S
C2873 C2875 1.388 1_556 S
C2874 C2873 1.366 . S
C2874 C2878 1.385 . S
C2875 H2850 0.951 . S
C2875 C2873 1.388 1_554 S
C2875 C2876 1.366 . S
C2876 C2875 1.366 . S
C2876 C2877 1.414 . S
C2876 C2879 1.499 . S
C2877 H2851 0.950 . S
C2877 C2876 1.414 . S
C2877 C2878 1.374 1_554 S
C2878 H2852 0.950 . S
C2878 C2874 1.385 . S
C2878 C2877 1.374 1_556 S
C2879 C2876 1.499 . S
C2879 C2880 1.373 . S
C2879 C2881 1.389 . S
C2880 H2853 0.950 . S
C2880 C2866 1.377 . S
C2880 C2879 1.373 . S
C2881 C2865 1.377 . S
C2881 C2879 1.389 . S
C2881 C2882 1.524 . S
C2882 C2881 1.524 . S
C2882 C2883 1.397 . S
C2882 C2887 1.363 . S
C2883 H2854 0.950 . S
C2883 C2882 1.397 . S
C2883 C2884 1.334 . S
C2884 H2855 0.950 . S
C2884 C2883 1.334 . S
C2884 C2885 1.287 . S
C2885 C2884 1.287 . S
C2885 C2886 1.524 . S
C2885 H2888 0.999 . S
C2886 H2856 0.950 . S
C2886 C2885 1.524 . S
C2886 C2887 1.415 . S
C2887 H2857 0.950 . S
C2887 C2882 1.363 . S
C2887 C2886 1.415 . S
H2888 C2885 0.999 . S
H2889 C2870 0.913 . S
H2890 C2908 0.951 . S
H2891 C2910 0.951 . S
H2892 C2912 0.950 . S
H2893 C2913 0.950 . S
H2894 C2915 0.950 . S
H2895 C2918 0.950 . S
H2896 C2919 0.950 . S
H2897 C2921 0.950 . S
H2898 C2922 0.950 . S
H2899 C2923 0.951 . S
H2900 C2925 0.951 . S
H2901 C2927 0.950 . S
H2902 C2928 0.950 . S
H2903 C2930 0.950 . S
H2904 C2933 0.950 . S
H2905 C2934 0.950 . S
H2906 C2936 0.950 . S
H2907 C2937 0.950 . S
C2908 H2890 0.951 . S
C2908 C2909 1.366 . S
C2908 C2910 1.388 1_554 S
C2909 C2908 1.366 . S
C2909 C2913 1.385 . S
C2910 H2891 0.951 . S
C2910 C2908 1.388 1_556 S
C2910 C2911 1.366 . S
C2911 C2910 1.366 . S
C2911 C2912 1.414 . S
C2911 C2914 1.499 . S
C2912 H2892 0.950 . S
C2912 C2911 1.414 . S
C2912 C2913 1.374 1_556 S
C2913 H2893 0.950 . S
C2913 C2909 1.385 . S
C2913 C2912 1.374 1_554 S
C2914 C2911 1.499 . S
C2914 C2915 1.373 . S
C2914 C2916 1.389 . S
C2915 H2894 0.950 . S
C2915 C2914 1.373 . S
C2915 C2931 1.377 . S
C2916 C2914 1.389 . S
C2916 C2917 1.524 . S
C2916 C2930 1.377 . S
C2917 C2916 1.524 . S
C2917 C2918 1.397 . S
C2917 C2922 1.363 . S
C2918 H2895 0.950 . S
C2918 C2917 1.397 . S
C2918 C2919 1.334 . S
C2919 H2896 0.950 . S
C2919 C2918 1.334 . S
C2919 C2920 1.287 . S
C2920 C2919 1.287 . S
C2920 C2921 1.524 . S
C2920 H2939 0.913 . S
C2921 H2897 0.950 . S
C2921 C2920 1.524 . S
C2921 C2922 1.415 . S
C2922 H2898 0.950 . S
C2922 C2917 1.363 . S
C2922 C2921 1.415 . S
C2923 H2899 0.951 . S
C2923 C2924 1.366 . S
C2923 C2925 1.388 . S
C2924 C2923 1.366 . S
C2924 C2928 1.385 . S
C2925 H2900 0.951 . S
C2925 C2923 1.388 . S
C2925 C2926 1.366 . S
C2926 C2925 1.366 . S
C2926 C2927 1.414 . S
C2926 C2929 1.499 . S
C2927 H2901 0.950 . S
C2927 C2926 1.414 . S
C2927 C2928 1.374 . S
C2928 H2902 0.950 . S
C2928 C2924 1.385 . S
C2928 C2927 1.374 . S
C2929 C2926 1.499 . S
C2929 C2930 1.373 . S
C2929 C2931 1.389 . S
C2930 H2903 0.950 . S
C2930 C2916 1.377 . S
C2930 C2929 1.373 . S
C2931 C2915 1.377 . S
C2931 C2929 1.389 . S
C2931 C2932 1.524 . S
C2932 C2931 1.524 . S
C2932 C2933 1.397 . S
C2932 C2937 1.363 . S
C2933 H2904 0.950 . S
C2933 C2932 1.397 . S
C2933 C2934 1.334 . S
C2934 H2905 0.950 . S
C2934 C2933 1.334 . S
C2934 C2935 1.287 . S
C2935 C2934 1.287 . S
C2935 C2936 1.524 . S
C2935 H2938 0.999 . S
C2936 H2906 0.950 . S
C2936 C2935 1.524 . S
C2936 C2937 1.415 . S
C2937 H2907 0.950 . S
C2937 C2932 1.363 . S
C2937 C2936 1.415 . S
H2938 C2935 0.999 . S
H2939 C2920 0.913 . S
H2940 C2958 0.951 . S
H2941 C2960 0.951 . S
H2942 C2962 0.950 . S
H2943 C2963 0.950 . S
H2944 C2965 0.950 . S
H2945 C2968 0.950 . S
H2946 C2969 0.950 . S
H2947 C2971 0.950 . S
H2948 C2972 0.950 . S
H2949 C2973 0.951 . S
H2950 C2975 0.951 . S
H2951 C2977 0.950 . S
H2952 C2978 0.950 . S
H2953 C2980 0.950 . S
H2954 C2983 0.950 . S
H2955 C2984 0.950 . S
H2956 C2986 0.950 . S
H2957 C2987 0.950 . S
C2958 H2940 0.951 . S
C2958 C2959 1.366 . S
C2958 C2960 1.388 1_556 S
C2959 C2958 1.366 . S
C2959 C2963 1.385 . S
C2960 H2941 0.951 . S
C2960 C2958 1.388 1_554 S
C2960 C2961 1.366 . S
C2961 C2960 1.366 . S
C2961 C2962 1.414 . S
C2961 C2964 1.499 . S
C2962 H2942 0.950 . S
C2962 C2961 1.414 . S
C2962 C2963 1.374 1_554 S
C2963 H2943 0.950 . S
C2963 C2959 1.385 . S
C2963 C2962 1.374 1_556 S
C2964 C2961 1.499 . S
C2964 C2965 1.373 . S
C2964 C2966 1.389 . S
C2965 H2944 0.950 . S
C2965 C2964 1.373 . S
C2965 C2981 1.377 . S
C2966 C2964 1.389 . S
C2966 C2967 1.524 . S
C2966 C2980 1.377 . S
C2967 C2966 1.524 . S
C2967 C2968 1.397 . S
C2967 C2972 1.363 . S
C2968 H2945 0.950 . S
C2968 C2967 1.397 . S
C2968 C2969 1.334 . S
C2969 H2946 0.950 . S
C2969 C2968 1.334 . S
C2969 C2970 1.287 . S
C2970 C2969 1.287 . S
C2970 C2971 1.524 . S
C2970 H2989 0.913 . S
C2971 H2947 0.950 . S
C2971 C2970 1.524 . S
C2971 C2972 1.415 . S
C2972 H2948 0.950 . S
C2972 C2967 1.363 . S
C2972 C2971 1.415 . S
C2973 H2949 0.951 . S
C2973 C2974 1.366 . S
C2973 C2975 1.388 . S
C2974 C2973 1.366 . S
C2974 C2978 1.385 . S
C2975 H2950 0.951 . S
C2975 C2973 1.388 . S
C2975 C2976 1.366 . S
C2976 C2975 1.366 . S
C2976 C2977 1.414 . S
C2976 C2979 1.499 . S
C2977 H2951 0.950 . S
C2977 C2976 1.414 . S
C2977 C2978 1.374 . S
C2978 H2952 0.950 . S
C2978 C2974 1.385 . S
C2978 C2977 1.374 . S
C2979 C2976 1.499 . S
C2979 C2980 1.373 . S
C2979 C2981 1.389 . S
C2980 H2953 0.950 . S
C2980 C2966 1.377 . S
C2980 C2979 1.373 . S
C2981 C2965 1.377 . S
C2981 C2979 1.389 . S
C2981 C2982 1.524 . S
C2982 C2981 1.524 . S
C2982 C2983 1.397 . S
C2982 C2987 1.363 . S
C2983 H2954 0.950 . S
C2983 C2982 1.397 . S
C2983 C2984 1.334 . S
C2984 H2955 0.950 . S
C2984 C2983 1.334 . S
C2984 C2985 1.287 . S
C2985 C2984 1.287 . S
C2985 C2986 1.524 . S
C2985 H2988 0.999 . S
C2986 H2956 0.950 . S
C2986 C2985 1.524 . S
C2986 C2987 1.415 . S
C2987 H2957 0.950 . S
C2987 C2982 1.363 . S
C2987 C2986 1.415 . S
H2988 C2985 0.999 . S
H2989 C2970 0.913 . S
H2990 C3008 0.951 . S
H2991 C3010 0.951 . S
H2992 C3012 0.950 . S
H2993 C3013 0.950 . S
H2994 C3015 0.950 . S
H2995 C3018 0.950 . S
H2996 C3019 0.950 . S
H2997 C3021 0.950 . S
H2998 C3022 0.950 . S
H2999 C3023 0.951 . S
H3000 C3025 0.951 . S
H3001 C3027 0.950 . S
H3002 C3028 0.950 . S
H3003 C3030 0.950 . S
H3004 C3033 0.950 . S
H3005 C3034 0.950 . S
H3006 C3036 0.950 . S
H3007 C3037 0.950 . S
C3008 H2990 0.951 . S
C3008 C3009 1.366 . S
C3008 C3010 1.388 . S
C3009 C3008 1.366 . S
C3009 C3013 1.385 . S
C3010 H2991 0.951 . S
C3010 C3008 1.388 . S
C3010 C3011 1.366 . S
C3011 C3010 1.366 . S
C3011 C3012 1.414 . S
C3011 C3014 1.499 . S
C3012 H2992 0.950 . S
C3012 C3011 1.414 . S
C3012 C3013 1.374 . S
C3013 H2993 0.950 . S
C3013 C3009 1.385 . S
C3013 C3012 1.374 . S
C3014 C3011 1.499 . S
C3014 C3015 1.373 . S
C3014 C3016 1.389 . S
C3015 H2994 0.950 . S
C3015 C3014 1.373 . S
C3015 C3031 1.377 . S
C3016 C3014 1.389 . S
C3016 C3017 1.524 . S
C3016 C3030 1.377 . S
C3017 C3016 1.524 . S
C3017 C3018 1.397 . S
C3017 C3022 1.363 . S
C3018 H2995 0.950 . S
C3018 C3017 1.397 . S
C3018 C3019 1.334 . S
C3019 H2996 0.950 . S
C3019 C3018 1.334 . S
C3019 C3020 1.287 . S
C3020 C3019 1.287 . S
C3020 C3021 1.524 . S
C3020 H3039 0.913 . S
C3021 H2997 0.950 . S
C3021 C3020 1.524 . S
C3021 C3022 1.415 . S
C3022 H2998 0.950 . S
C3022 C3017 1.363 . S
C3022 C3021 1.415 . S
C3023 H2999 0.951 . S
C3023 C3024 1.366 . S
C3023 C3025 1.388 1_554 S
C3024 C3023 1.366 . S
C3024 C3028 1.385 . S
C3025 H3000 0.951 . S
C3025 C3023 1.388 1_556 S
C3025 C3026 1.366 . S
C3026 C3025 1.366 . S
C3026 C3027 1.414 . S
C3026 C3029 1.499 . S
C3027 H3001 0.950 . S
C3027 C3026 1.414 . S
C3027 C3028 1.374 1_556 S
C3028 H3002 0.950 . S
C3028 C3024 1.385 . S
C3028 C3027 1.374 1_554 S
C3029 C3026 1.499 . S
C3029 C3030 1.373 . S
C3029 C3031 1.389 . S
C3030 H3003 0.950 . S
C3030 C3016 1.377 . S
C3030 C3029 1.373 . S
C3031 C3015 1.377 . S
C3031 C3029 1.389 . S
C3031 C3032 1.524 . S
C3032 C3031 1.524 . S
C3032 C3033 1.397 . S
C3032 C3037 1.363 . S
C3033 H3004 0.950 . S
C3033 C3032 1.397 . S
C3033 C3034 1.334 . S
C3034 H3005 0.950 . S
C3034 C3033 1.334 . S
C3034 C3035 1.287 . S
C3035 C3034 1.287 . S
C3035 C3036 1.524 . S
C3035 H3038 0.999 . S
C3036 H3006 0.950 . S
C3036 C3035 1.524 . S
C3036 C3037 1.415 . S
C3037 H3007 0.950 . S
C3037 C3032 1.363 . S
C3037 C3036 1.415 . S
H3038 C3035 0.999 . S
H3039 C3020 0.913 . S
C659 C459 1.709 . S
C674 C18 1.715 . S
C709 C330 1.709 . S
C724 C49 1.715 . S
C759 C98 1.715 . S
C774 C379 1.708 . S
C809 C129 1.715 . S
C824 C410 1.709 . S
C859 C178 1.715 . S
C874 C219 1.708 . S
C909 C250 1.709 . S
C924 C209 1.715 . S
C959 C258 1.715 . S
C974 C299 1.709 . S
C1009 C170 1.709 . S
C1024 C289 1.715 . S
C1059 C139 1.709 . S
C1074 C338 1.715 . S
C1109 C369 1.715 . S
C1124 C10 1.708 . S
C1159 C59 1.709 . S
C1174 C418 1.715 . S
C1209 C90 1.709 . S
C1224 C449 1.715 . S
C1259 C498 1.715 . S
C1274 C539 1.709 . S
C1309 C570 1.709 . S
C1324 C529 1.715 . S
C1359 C619 1.709 . S
C1374 C578 1.715 . S
C1409 C609 1.715 . S
C1424 C490 1.709 . S
C1459 C9 1.136 . S
C1474 C169 1.136 . S
C1509 C218 1.136 . S
C1524 C58 1.137 . S
C1559 C89 1.136 . S
C1574 C249 1.135 . S
C1609 C138 1.137 . S
C1624 C298 1.137 . S
C1659 C329 1.136 . S
C1674 C489 1.136 . S
C1709 C538 1.136 . S
C1724 C378 1.136 . S
C1759 C409 1.137 . S
C1774 C569 1.137 . S
C1809 C458 1.136 . S
C1824 C618 1.136 . S
C1859 C579 2.240 . S
C1874 C19 2.240 . S
C1909 C50 2.240 . S
C1924 C610 2.240 . S
C1959 C99 2.240 . S
C1974 C499 2.240 . S
C2009 C130 2.240 . S
C2024 C530 2.240 . S
C2059 C179 2.240 . S
C2074 C419 2.240 . S
C2109 C210 2.240 . S
C2124 C450 2.240 . S
C2159 C259 2.240 . S
C2174 C339 2.240 . S
C2209 C370 2.241 . S
C2224 C290 2.240 . S
C2259 C6 1.100 . S
C2274 C15 1.100 . S
C2309 C55 1.099 . S
C2324 C46 1.099 . S
C2359 C86 1.100 . S
C2374 C95 1.100 . S
C2409 C126 1.100 . S
C2424 C135 1.100 . S
C2459 C175 1.100 . S
C2474 C166 1.100 . S
C2509 C215 1.100 . S
C2524 C206 1.100 . S
C2559 C246 1.100 . S
C2574 C255 1.100 . S
C2609 C286 1.100 . S
C2624 C295 1.100 . S
C2659 C326 1.100 . S
C2674 C335 1.100 . S
C2709 C366 1.100 . S
C2724 C375 1.100 . S
C2759 C415 1.100 . S
C2774 C406 1.100 . S
C2809 C455 1.100 . S
C2824 C446 1.100 . S
C2859 C486 1.099 . S
C2874 C495 1.099 . S
C2909 C526 1.100 . S
C2924 C535 1.100 . S
C2959 C575 1.099 . S
C2974 C566 1.099 . S
C3009 C615 1.100 . S
C3024 C606 1.100 . S
