# Generated by pormake.
# Topology unl, (4)-cn, num edge types: 1
# Building blocks:
#     Node 0, Type 0, BuildingBlock: ESEHIV_clean_sbu_0, # of connection points: 4
#     Node 1, Type 0, BuildingBlock: ESEHIV_clean_sbu_0, # of connection points: 4
#     Node 2, Type 0, BuildingBlock: ESEHIV_clean_sbu_0, # of connection points: 4
#     Node 3, Type 0, BuildingBlock: ESEHIV_clean_sbu_0, # of connection points: 4
#     Node 4, Type 0, BuildingBlock: ESEHIV_clean_sbu_0, # of connection points: 4
#     Node 5, Type 0, BuildingBlock: ESEHIV_clean_sbu_0, # of connection points: 4
#     Node 6, Type 0, BuildingBlock: ESEHIV_clean_sbu_0, # of connection points: 4
#     Node 7, Type 0, BuildingBlock: ESEHIV_clean_sbu_0, # of connection points: 4
#     Node 8, Type 0, BuildingBlock: ESEHIV_clean_sbu_0, # of connection points: 4
#     Node 9, Type 0, BuildingBlock: ESEHIV_clean_sbu_0, # of connection points: 4
#     Node 10, Type 0, BuildingBlock: ESEHIV_clean_sbu_0, # of connection points: 4
#     Node 11, Type 0, BuildingBlock: ESEHIV_clean_sbu_0, # of connection points: 4
#     Node 12, Type 0, BuildingBlock: ESEHIV_clean_sbu_0, # of connection points: 4
#     Node 13, Type 0, BuildingBlock: ESEHIV_clean_sbu_0, # of connection points: 4
#     Node 14, Type 0, BuildingBlock: ESEHIV_clean_sbu_0, # of connection points: 4
#     Node 15, Type 0, BuildingBlock: ESEHIV_clean_sbu_0, # of connection points: 4
#     Node 16, Type 0, BuildingBlock: ESEHIV_clean_sbu_0, # of connection points: 4
#     Node 17, Type 0, BuildingBlock: ESEHIV_clean_sbu_0, # of connection points: 4
#     Node 18, Type 0, BuildingBlock: ESEHIV_clean_sbu_0, # of connection points: 4
#     Node 19, Type 0, BuildingBlock: ESEHIV_clean_sbu_0, # of connection points: 4
#     Node 20, Type 0, BuildingBlock: ESEHIV_clean_sbu_0, # of connection points: 4
#     Node 21, Type 0, BuildingBlock: ESEHIV_clean_sbu_0, # of connection points: 4
#     Node 22, Type 0, BuildingBlock: ESEHIV_clean_sbu_0, # of connection points: 4
#     Node 23, Type 0, BuildingBlock: ESEHIV_clean_sbu_0, # of connection points: 4
#     Node 24, Type 0, BuildingBlock: ESEHIV_clean_sbu_0, # of connection points: 4
#     Node 25, Type 0, BuildingBlock: ESEHIV_clean_sbu_0, # of connection points: 4
#     Node 26, Type 0, BuildingBlock: ESEHIV_clean_sbu_0, # of connection points: 4
#     Node 27, Type 0, BuildingBlock: ESEHIV_clean_sbu_0, # of connection points: 4
#     Node 28, Type 0, BuildingBlock: ESEHIV_clean_sbu_0, # of connection points: 4
#     Node 29, Type 0, BuildingBlock: ESEHIV_clean_sbu_0, # of connection points: 4
#     Node 30, Type 0, BuildingBlock: ESEHIV_clean_sbu_0, # of connection points: 4
#     Node 31, Type 0, BuildingBlock: ESEHIV_clean_sbu_0, # of connection points: 4
#     Node 32, Type 0, BuildingBlock: ESEHIV_clean_sbu_0, # of connection points: 4
#     Node 33, Type 0, BuildingBlock: ESEHIV_clean_sbu_0, # of connection points: 4
#     Node 34, Type 0, BuildingBlock: ESEHIV_clean_sbu_0, # of connection points: 4
#     Node 35, Type 0, BuildingBlock: ESEHIV_clean_sbu_0, # of connection points: 4
#     Edge 36, Type (0, 0), BuildingBlock: EZIPEK_clean_linker_0, # of connection points: 2
#     Edge 37, Type (0, 0), BuildingBlock: EZIPEK_clean_linker_0, # of connection points: 2
#     Edge 38, Type (0, 0), BuildingBlock: EZIPEK_clean_linker_0, # of connection points: 2
#     Edge 39, Type (0, 0), BuildingBlock: EZIPEK_clean_linker_0, # of connection points: 2
#     Edge 40, Type (0, 0), BuildingBlock: EZIPEK_clean_linker_0, # of connection points: 2
#     Edge 41, Type (0, 0), BuildingBlock: EZIPEK_clean_linker_0, # of connection points: 2
#     Edge 42, Type (0, 0), BuildingBlock: EZIPEK_clean_linker_0, # of connection points: 2
#     Edge 43, Type (0, 0), BuildingBlock: EZIPEK_clean_linker_0, # of connection points: 2
#     Edge 44, Type (0, 0), BuildingBlock: EZIPEK_clean_linker_0, # of connection points: 2
#     Edge 45, Type (0, 0), BuildingBlock: EZIPEK_clean_linker_0, # of connection points: 2
#     Edge 46, Type (0, 0), BuildingBlock: EZIPEK_clean_linker_0, # of connection points: 2
#     Edge 47, Type (0, 0), BuildingBlock: EZIPEK_clean_linker_0, # of connection points: 2
#     Edge 48, Type (0, 0), BuildingBlock: EZIPEK_clean_linker_0, # of connection points: 2
#     Edge 49, Type (0, 0), BuildingBlock: EZIPEK_clean_linker_0, # of connection points: 2
#     Edge 50, Type (0, 0), BuildingBlock: EZIPEK_clean_linker_0, # of connection points: 2
#     Edge 51, Type (0, 0), BuildingBlock: EZIPEK_clean_linker_0, # of connection points: 2
#     Edge 52, Type (0, 0), BuildingBlock: EZIPEK_clean_linker_0, # of connection points: 2
#     Edge 53, Type (0, 0), BuildingBlock: EZIPEK_clean_linker_0, # of connection points: 2
#     Edge 54, Type (0, 0), BuildingBlock: EZIPEK_clean_linker_0, # of connection points: 2
#     Edge 55, Type (0, 0), BuildingBlock: EZIPEK_clean_linker_0, # of connection points: 2
#     Edge 56, Type (0, 0), BuildingBlock: EZIPEK_clean_linker_0, # of connection points: 2
#     Edge 57, Type (0, 0), BuildingBlock: EZIPEK_clean_linker_0, # of connection points: 2
#     Edge 58, Type (0, 0), BuildingBlock: EZIPEK_clean_linker_0, # of connection points: 2
#     Edge 59, Type (0, 0), BuildingBlock: EZIPEK_clean_linker_0, # of connection points: 2
#     Edge 60, Type (0, 0), BuildingBlock: EZIPEK_clean_linker_0, # of connection points: 2
#     Edge 61, Type (0, 0), BuildingBlock: EZIPEK_clean_linker_0, # of connection points: 2
#     Edge 62, Type (0, 0), BuildingBlock: EZIPEK_clean_linker_0, # of connection points: 2
#     Edge 63, Type (0, 0), BuildingBlock: EZIPEK_clean_linker_0, # of connection points: 2
#     Edge 64, Type (0, 0), BuildingBlock: EZIPEK_clean_linker_0, # of connection points: 2
#     Edge 65, Type (0, 0), BuildingBlock: EZIPEK_clean_linker_0, # of connection points: 2
#     Edge 66, Type (0, 0), BuildingBlock: EZIPEK_clean_linker_0, # of connection points: 2
#     Edge 67, Type (0, 0), BuildingBlock: EZIPEK_clean_linker_0, # of connection points: 2
#     Edge 68, Type (0, 0), BuildingBlock: EZIPEK_clean_linker_0, # of connection points: 2
#     Edge 69, Type (0, 0), BuildingBlock: EZIPEK_clean_linker_0, # of connection points: 2
#     Edge 70, Type (0, 0), BuildingBlock: EZIPEK_clean_linker_0, # of connection points: 2
#     Edge 71, Type (0, 0), BuildingBlock: EZIPEK_clean_linker_0, # of connection points: 2
#     Edge 72, Type (0, 0), BuildingBlock: EZIPEK_clean_linker_0, # of connection points: 2
#     Edge 73, Type (0, 0), BuildingBlock: EZIPEK_clean_linker_0, # of connection points: 2
#     Edge 74, Type (0, 0), BuildingBlock: EZIPEK_clean_linker_0, # of connection points: 2
#     Edge 75, Type (0, 0), BuildingBlock: EZIPEK_clean_linker_0, # of connection points: 2
#     Edge 76, Type (0, 0), BuildingBlock: EZIPEK_clean_linker_0, # of connection points: 2
#     Edge 77, Type (0, 0), BuildingBlock: EZIPEK_clean_linker_0, # of connection points: 2
#     Edge 78, Type (0, 0), BuildingBlock: EZIPEK_clean_linker_0, # of connection points: 2
#     Edge 79, Type (0, 0), BuildingBlock: EZIPEK_clean_linker_0, # of connection points: 2
#     Edge 80, Type (0, 0), BuildingBlock: EZIPEK_clean_linker_0, # of connection points: 2
#     Edge 81, Type (0, 0), BuildingBlock: EZIPEK_clean_linker_0, # of connection points: 2
#     Edge 82, Type (0, 0), BuildingBlock: EZIPEK_clean_linker_0, # of connection points: 2
#     Edge 83, Type (0, 0), BuildingBlock: EZIPEK_clean_linker_0, # of connection points: 2
#     Edge 84, Type (0, 0), BuildingBlock: EZIPEK_clean_linker_0, # of connection points: 2
#     Edge 85, Type (0, 0), BuildingBlock: EZIPEK_clean_linker_0, # of connection points: 2
#     Edge 86, Type (0, 0), BuildingBlock: EZIPEK_clean_linker_0, # of connection points: 2
#     Edge 87, Type (0, 0), BuildingBlock: EZIPEK_clean_linker_0, # of connection points: 2
#     Edge 88, Type (0, 0), BuildingBlock: EZIPEK_clean_linker_0, # of connection points: 2
#     Edge 89, Type (0, 0), BuildingBlock: EZIPEK_clean_linker_0, # of connection points: 2
#     Edge 90, Type (0, 0), BuildingBlock: EZIPEK_clean_linker_0, # of connection points: 2
#     Edge 91, Type (0, 0), BuildingBlock: EZIPEK_clean_linker_0, # of connection points: 2
#     Edge 92, Type (0, 0), BuildingBlock: EZIPEK_clean_linker_0, # of connection points: 2
#     Edge 93, Type (0, 0), BuildingBlock: EZIPEK_clean_linker_0, # of connection points: 2
#     Edge 94, Type (0, 0), BuildingBlock: EZIPEK_clean_linker_0, # of connection points: 2
#     Edge 95, Type (0, 0), BuildingBlock: EZIPEK_clean_linker_0, # of connection points: 2
#     Edge 96, Type (0, 0), BuildingBlock: EZIPEK_clean_linker_0, # of connection points: 2
#     Edge 97, Type (0, 0), BuildingBlock: EZIPEK_clean_linker_0, # of connection points: 2
#     Edge 98, Type (0, 0), BuildingBlock: EZIPEK_clean_linker_0, # of connection points: 2
#     Edge 99, Type (0, 0), BuildingBlock: EZIPEK_clean_linker_0, # of connection points: 2
#     Edge 100, Type (0, 0), BuildingBlock: EZIPEK_clean_linker_0, # of connection points: 2
#     Edge 101, Type (0, 0), BuildingBlock: EZIPEK_clean_linker_0, # of connection points: 2
#     Edge 102, Type (0, 0), BuildingBlock: EZIPEK_clean_linker_0, # of connection points: 2
#     Edge 103, Type (0, 0), BuildingBlock: EZIPEK_clean_linker_0, # of connection points: 2
#     Edge 104, Type (0, 0), BuildingBlock: EZIPEK_clean_linker_0, # of connection points: 2
#     Edge 105, Type (0, 0), BuildingBlock: EZIPEK_clean_linker_0, # of connection points: 2
#     Edge 106, Type (0, 0), BuildingBlock: EZIPEK_clean_linker_0, # of connection points: 2
#     Edge 107, Type (0, 0), BuildingBlock: EZIPEK_clean_linker_0, # of connection points: 2
# Relax obj value: 0.044
# Max RMSD: 0.203
# Mean RMSD: 0.186
data_MOF--net-unl--node1-ESEHIV_clean_sbu_0--edge1-EZIPEK_clean_linker_0
_symmetry_space_group_name_H-M    P1
_symmetry_Int_Tables_number       1
_symmetry_cell_setting            triclinic
loop_
_symmetry_equiv_pos_as_xyz
'x, y, z'
_cell_length_a     47.686053
_cell_length_b     51.257863
_cell_length_c     36.921569
_cell_angle_alpha  87.932025
_cell_angle_beta   89.906396
_cell_angle_gamma 117.79353
loop_
_atom_site_label
_atom_site_type_symbol
_atom_site_fract_x
_atom_site_fract_y
_atom_site_fract_z
_atom_type_partial_charge
Cu0 Cu 0.20665 0.13257 0.14994 0.0
N1 N 0.18136 0.12841 0.19092 0.0
N2 N 0.16317 0.13642 0.24301 0.0
C3 C 0.18767 0.14656 0.21882 0.0
C4 C 0.1407 0.1111 0.22998 0.0
C5 C 0.15196 0.10625 0.19783 0.0
O6 O 0.25125 0.15867 0.1615 0.0
C7 C 0.20096 0.15524 0.07783 0.0
O8 O 0.23046 0.1612 0.07109 0.0
H9 H 0.20969 0.16665 0.22145 0.0
H10 H 0.13959 0.08783 0.18058 0.0
N11 N 0.2027 0.09554 0.13977 0.0
N12 N 0.20205 0.05874 0.10872 0.0
C13 C 0.20162 0.08486 0.1067 0.0
C14 C 0.20358 0.07533 0.16344 0.0
C15 C 0.20327 0.05255 0.14429 0.0
C16 C 0.27369 0.15469 0.14843 0.0
O17 O 0.2674 0.13515 0.12362 0.0
H18 H 0.20165 0.09641 0.08161 0.0
H19 H 0.2053 0.07748 0.1925 0.0
O20 O 0.18863 0.14484 0.10912 0.0
H21 H 0.11791 0.0971 0.24297 0.0
H22 H 0.20451 0.0333 0.15541 0.0
Cu23 Cu 0.88631 0.06021 0.14184 0.0
N24 N 0.86076 0.02827 0.1133 0.0
N25 N 0.84649 0.99493 0.07033 0.0
C26 C 0.87017 0.01297 0.09163 0.0
C27 C 0.82129 0.99884 0.07894 0.0
C28 C 0.83016 0.01943 0.1053 0.0
O29 O 0.91959 0.08881 0.10933 0.0
C30 C 0.88124 0.02652 0.2056 0.0
O31 O 0.85263 1.01034 0.19344 0.0
H32 H 0.89411 0.01582 0.09042 0.0
H33 H 0.81565 0.02834 0.11654 0.0
N34 N 0.86273 0.0782 0.15888 0.0
N35 N 0.85048 0.11264 0.17761 0.0
C36 C 0.87188 0.10737 0.15963 0.0
C37 C 0.83477 0.06483 0.17721 0.0
C38 C 0.82712 0.08604 0.18874 0.0
C39 C 0.94921 0.09712 0.11033 0.0
O40 O 0.96066 0.08689 0.1363 0.0
H41 H 0.89423 0.1244 0.14849 0.0
H42 H 0.82129 0.04131 0.18278 0.0
O43 O 0.90135 0.04787 0.18547 0.0
H44 H 0.79844 0.98821 0.06621 0.0
H45 H 0.80652 0.08237 0.20485 0.0
Cu46 Cu 0.96161 0.80172 0.135 0.0
N47 N 0.9974 0.81316 0.10527 0.0
N48 N 0.03092 0.83344 0.05815 0.0
C49 C 1.00172 0.82578 0.07169 0.0
C50 C 0.04546 0.82511 0.08394 0.0
C51 C 0.02462 0.81247 0.11302 0.0
O52 O 0.93574 0.81623 0.1099 0.0
C53 C 0.99719 0.84191 0.18865 0.0
O54 O 1.01185 0.85982 0.16072 0.0
H55 H 0.98416 0.82996 0.05779 0.0
H56 H 0.02913 0.80387 0.13828 0.0
N57 N 0.93907 0.76066 0.13838 0.0
N58 N 0.90369 0.71497 0.15605 0.0
C59 C 0.9158 0.7439 0.16249 0.0
C60 C 0.94166 0.74165 0.11606 0.0
C61 C 0.91976 0.71331 0.12695 0.0
C62 C 0.90822 0.81194 0.11921 0.0
O63 O 0.89606 0.79957 0.15109 0.0
H64 H 0.90759 0.75268 0.18394 0.0
H65 H 0.95805 0.74802 0.09319 0.0
O66 O 0.97419 0.81653 0.1834 0.0
H67 H 0.06952 0.8283 0.08196 0.0
H68 H 0.91566 0.69311 0.11438 0.0
Cu69 Cu 0.15663 0.21917 0.43488 0.0
N70 N 0.1838 0.20883 0.46021 0.0
N71 N 0.20217 0.19009 0.50369 0.0
C72 C 0.17851 0.19598 0.49366 0.0
C73 C 0.22331 0.19984 0.47577 0.0
C74 C 0.21193 0.21158 0.44894 0.0
O75 O 0.11786 0.2027 0.46431 0.0
C76 C 0.14895 0.17842 0.38125 0.0
O77 O 0.14368 0.16037 0.40959 0.0
H78 H 0.15758 0.19064 0.51014 0.0
H79 H 0.22312 0.22113 0.42289 0.0
N80 N 0.17478 0.26028 0.43355 0.0
N81 N 0.18704 0.30698 0.41897 0.0
C82 C 0.16912 0.27846 0.41094 0.0
C83 C 0.19687 0.27798 0.45646 0.0
C84 C 0.20454 0.30687 0.44746 0.0
C85 C 0.0955 0.20957 0.46191 0.0
O86 O 0.095 0.22619 0.43425 0.0
H87 H 0.15237 0.27105 0.38913 0.0
H88 H 0.20669 0.27032 0.47824 0.0
O89 O 0.153 0.20447 0.38599 0.0
H90 H 0.24527 0.19845 0.47495 0.0
H91 H 0.22157 0.3263 0.46069 0.0
Cu92 Cu 0.83652 0.96627 0.42215 0.0
N93 N 0.84273 0.99753 0.45252 0.0
N94 N 0.85594 0.02468 0.5021 0.0
C95 C 0.84618 0.99754 0.48897 0.0
C96 C 0.85818 0.0423 0.47314 0.0
C97 C 0.85015 0.02566 0.4428 0.0
O98 O 0.84154 0.93743 0.45376 0.0
C99 C 0.86277 0.9982 0.3559 0.0
O100 O 0.84161 1.0072 0.3619 0.0
H101 H 0.8428 0.97835 0.50538 0.0
H102 H 0.85114 0.03423 0.41553 0.0
N103 N 0.79514 0.94621 0.40389 0.0
N104 N 0.74551 0.91035 0.39724 0.0
C105 C 0.7688 0.92496 0.42092 0.0
C106 C 0.78783 0.94441 0.36842 0.0
C107 C 0.75737 0.92263 0.36435 0.0
C108 C 0.86032 0.92635 0.45054 0.0
O109 O 0.87995 0.93409 0.42251 0.0
H110 H 0.76764 0.91868 0.44941 0.0
H111 H 0.80415 0.95598 0.34626 0.0
O112 O 0.86606 0.98107 0.37966 0.0
H113 H 0.86601 0.06579 0.47382 0.0
H114 H 0.74555 0.91491 0.33897 0.0
Cu115 Cu 0.08987 0.88427 0.42554 0.0
N116 N 0.06985 0.88824 0.3836 0.0
N117 N 0.04636 0.88105 0.32994 0.0
C118 C 0.05849 0.87003 0.35573 0.0
C119 C 0.05003 0.90692 0.34198 0.0
C120 C 0.06448 0.91128 0.37508 0.0
O121 O 0.10992 0.85918 0.41805 0.0
C122 C 0.05088 0.88825 0.47997 0.0
O123 O 0.06322 0.91563 0.46704 0.0
H124 H 0.05959 0.84948 0.354 0.0
H125 H 0.07105 0.93015 0.39166 0.0
N126 N 0.12293 0.92104 0.43615 0.0
N127 N 0.15903 0.95767 0.46735 0.0
C128 C 0.13296 0.93115 0.4693 0.0
C129 C 0.14342 0.94188 0.41252 0.0
C130 C 0.16586 0.96452 0.43175 0.0
C131 C 0.12886 0.86549 0.3909 0.0
O132 O 0.13099 0.88582 0.36679 0.0
H133 H 0.12174 0.91917 0.49437 0.0
H134 H 0.14233 0.94052 0.38336 0.0
O135 O 0.05913 0.87038 0.46599 0.0
H136 H 0.04314 0.92172 0.32753 0.0
H137 H 0.18562 0.98446 0.4206 0.0
Cu138 Cu 0.82285 0.87047 0.91362 0.0
N139 N 0.83488 0.84793 0.94482 0.0
N140 N 0.85167 0.83141 0.99248 0.0
C141 C 0.84003 0.84962 0.98082 0.0
C142 C 0.85353 0.81744 0.96311 0.0
C143 C 0.84321 0.8277 0.93377 0.0
O144 O 0.82677 0.90494 0.93907 0.0
C145 C 0.83882 0.87228 0.83787 0.0
O146 O 0.80872 0.86427 0.83258 0.0
H147 H 0.83668 0.86462 0.99794 0.0
H148 H 0.84271 0.82152 0.90599 0.0
N149 N 0.78004 0.84703 0.90264 0.0
N150 N 0.72931 0.8317 0.88863 0.0
C151 C 0.75738 0.85522 0.89556 0.0
C152 C 0.76567 0.8175 0.90006 0.0
C153 C 0.73442 0.808 0.89135 0.0
C154 C 0.85005 0.9202 0.9591 0.0
O155 O 0.87509 0.91585 0.95905 0.0
H156 H 0.76133 0.8778 0.89535 0.0
H157 H 0.7772 0.80382 0.9041 0.0
O158 O 0.84979 0.87854 0.8697 0.0
H159 H 0.86261 0.80163 0.96283 0.0
H160 H 0.71676 0.78547 0.88725 0.0
Cu161 Cu 0.1547 0.94751 0.90364 0.0
N162 N 0.18534 0.96885 0.93694 0.0
N163 N 0.20369 0.99455 0.98657 0.0
C164 C 0.1821 0.98686 0.96026 0.0
C165 C 0.22144 0.98107 0.97953 0.0
C166 C 0.20999 0.96512 0.94874 0.0
O167 O 0.11775 0.92339 0.934 0.0
C168 C 0.17569 0.9934 0.85314 0.0
O169 O 0.2025 0.99421 0.86321 0.0
H170 H 0.16281 0.99244 0.95955 0.0
H171 H 0.21768 0.95034 0.93724 0.0
N172 N 0.16613 0.92352 0.8768 0.0
N173 N 0.17593 0.88722 0.85993 0.0
C174 C 0.16946 0.89982 0.88805 0.0
C175 C 0.17058 0.92566 0.84051 0.0
C176 C 0.17672 0.90334 0.83005 0.0
C177 C 0.09571 0.89787 0.92755 0.0
O178 O 0.0936 0.88736 0.89517 0.0
H179 H 0.16673 0.8917 0.91599 0.0
H180 H 0.16898 0.94202 0.82265 0.0
O181 O 0.15014 0.97509 0.86954 0.0
H182 H 0.24011 0.98148 0.99652 0.0
H183 H 0.18108 0.89898 0.80269 0.0
Cu184 Cu 0.09152 0.18385 0.91253 0.0
N185 N 0.06239 0.18564 0.94504 0.0
N186 N 0.02808 0.17144 0.99185 0.0
C187 C 0.04853 0.16578 0.97274 0.0
C188 C 0.02868 0.19566 0.97555 0.0
C189 C 0.04996 0.20442 0.9465 0.0
O190 O 0.11213 0.16467 0.94113 0.0
C191 C 0.04182 0.14381 0.86539 0.0
O192 O 0.02707 0.1284 0.89494 0.0
H193 H 0.05296 0.14717 0.97845 0.0
H194 H 0.05545 0.22276 0.92748 0.0
N195 N 0.12445 0.22087 0.89749 0.0
N196 N 0.15634 0.26865 0.88469 0.0
C197 C 0.12808 0.24855 0.89921 0.0
C198 C 0.15125 0.2239 0.88145 0.0
C199 C 0.17096 0.25332 0.8735 0.0
C200 C 0.12899 0.18026 0.96681 0.0
O201 O 0.13149 0.20668 0.97038 0.0
H202 H 0.11062 0.25393 0.91064 0.0
H203 H 0.15605 0.20576 0.87592 0.0
O204 O 0.06945 0.16571 0.86783 0.0
H205 H 1.01433 0.20582 0.98362 0.0
H206 H 0.19414 0.26282 0.8604 0.0
Cu207 Cu 0.90799 0.83348 0.64642 0.0
N208 N 0.87762 0.83144 0.61317 0.0
N209 N 0.85867 0.84722 0.56677 0.0
C210 C 0.88239 0.85425 0.59034 0.0
C211 C 0.83763 0.81892 0.57551 0.0
C212 C 0.84952 0.80913 0.6042 0.0
O213 O 0.94807 0.85673 0.61916 0.0
C214 C 0.90268 0.84407 0.72235 0.0
O215 O 0.91293 0.82472 0.72939 0.0
H216 H 0.90345 0.87547 0.59026 0.0
H217 H 0.83885 0.78722 0.61694 0.0
N218 N 0.90564 0.79632 0.65816 0.0
N219 N 0.89288 0.75123 0.68179 0.0
C220 C 0.88345 0.77224 0.67673 0.0
C221 C 0.92958 0.78999 0.65161 0.0
C222 C 0.92174 0.7623 0.66584 0.0
C223 C 0.95028 0.84589 0.58922 0.0
O224 O 0.92676 0.82066 0.57998 0.0
H225 H 0.86149 0.7705 0.68738 0.0
H226 H 0.95197 0.80496 0.63867 0.0
O227 O 0.90109 0.85177 0.68946 0.0
H228 H 0.81578 0.8061 0.56153 0.0
H229 H 0.93672 0.75163 0.66617 0.0
Cu230 Cu 0.23893 0.09066 0.65441 0.0
N231 N 0.23903 0.0602 0.62862 0.0
N232 N 0.22572 0.02736 0.58558 0.0
C233 C 0.21592 0.04252 0.60682 0.0
C234 C 0.25598 0.0355 0.59463 0.0
C235 C 0.26412 0.05576 0.62134 0.0
O236 O 0.21762 0.10702 0.62431 0.0
C237 C 0.21209 0.0518 0.71575 0.0
O238 O 0.21776 0.03366 0.69656 0.0
H239 H 0.19326 0.04246 0.60453 0.0
H240 H 0.28731 0.06787 0.63288 0.0
N241 N 0.28052 0.12052 0.65628 0.0
N242 N 0.32558 0.15816 0.673 0.0
C243 C 0.29708 0.13628 0.6843 0.0
C244 C 0.29919 0.13295 0.62663 0.0
C245 C 0.32708 0.15621 0.63688 0.0
C246 C 0.21799 0.13131 0.63088 0.0
O247 O 0.22827 0.14336 0.66216 0.0
H248 H 0.28821 0.13247 0.712 0.0
H249 H 0.29248 0.12597 0.59929 0.0
O250 O 0.21898 0.07742 0.70247 0.0
H251 H 0.27146 0.02843 0.5815 0.0
H252 H 0.34675 0.17087 0.61929 0.0
Cu253 Cu 0.9484 0.13514 0.66533 0.0
N254 N 0.98507 0.16085 0.63895 0.0
N255 N 0.0207 0.18081 0.59352 0.0
C256 C 0.99055 0.16121 0.603 0.0
C257 C 0.0346 0.19338 0.62446 0.0
C258 C 1.01257 0.18101 0.65245 0.0
O259 O 0.92965 0.0994 0.63737 0.0
C260 C 0.97962 0.12117 0.72425 0.0
O261 O 0.98674 0.10701 0.69989 0.0
H262 H 0.97315 0.14686 0.58437 0.0
H263 H 1.01651 0.1858 0.68084 0.0
N264 N 0.92006 0.15114 0.66399 0.0
N265 N 0.88182 0.16334 0.67641 0.0
C266 C 0.89936 0.1507 0.68942 0.0
C267 C 0.91517 0.16432 0.63422 0.0
C268 C 0.89167 0.17187 0.64179 0.0
C269 C 0.90021 0.08108 0.63764 0.0
O270 O 0.88172 0.08169 0.66367 0.0
H271 H 0.89691 0.14109 0.71657 0.0
H272 H 0.92759 0.16777 0.60853 0.0
O273 O 0.96148 0.13236 0.71545 0.0
H274 H 0.0591 0.20994 0.62664 0.0
H275 H 0.88233 0.18266 0.62332 0.0
Cu276 Cu 0.86887 0.47593 0.48306 0.0
N277 N 0.8439 0.47257 0.52419 0.0
N278 N 0.82735 0.48019 0.5777 0.0
C279 C 0.85186 0.48937 0.5536 0.0
C280 C 0.80316 0.45693 0.56294 0.0
C281 C 0.81339 0.45235 0.52995 0.0
O282 O 0.91354 0.49677 0.49623 0.0
C283 C 0.86969 0.50447 0.41297 0.0
O284 O 0.89809 0.50716 0.407 0.0
H285 H 0.87508 0.50779 0.5574 0.0
H286 H 0.79957 0.43538 0.5114 0.0
N287 N 0.85997 0.43818 0.4691 0.0
N288 N 0.85468 0.40162 0.43416 0.0
C289 C 0.86294 0.43053 0.43535 0.0
C290 C 0.84946 0.41317 0.48994 0.0
C291 C 0.84607 0.39046 0.46834 0.0
C292 C 0.93544 0.49409 0.47955 0.0
O293 O 0.92914 0.48 0.44922 0.0
H294 H 0.87117 0.4458 0.41212 0.0
H295 H 0.84465 0.4116 0.51879 0.0
O296 O 0.85561 0.49381 0.44343 0.0
H297 H 0.77981 0.44418 0.57527 0.0
H298 H 0.83813 0.36764 0.47695 0.0
Cu299 Cu 0.55327 0.38925 0.47762 0.0
N300 N 0.52684 0.36137 0.44536 0.0
N301 N 0.51217 0.33234 0.39789 0.0
C302 C 0.53568 0.34749 0.42094 0.0
C303 C 0.48761 0.33675 0.40813 0.0
C304 C 0.49676 0.35474 0.43741 0.0
O305 O 0.59501 0.40588 0.4551 0.0
C306 C 0.55683 0.38532 0.55568 0.0
O307 O 0.57131 0.41429 0.55365 0.0
H308 H 0.55921 0.34933 0.41921 0.0
H309 H 0.48292 0.36335 0.45106 0.0
N310 N 0.54328 0.42045 0.4764 0.0
N311 N 0.52865 0.45445 0.48988 0.0
C312 C 0.52877 0.42911 0.50107 0.0
C313 C 0.5522 0.44086 0.44887 0.0
C314 C 0.54332 0.46194 0.45716 0.0
C315 C 0.6192 0.42866 0.46534 0.0
O316 O 0.62009 0.43731 0.49854 0.0
H317 H 0.51913 0.41759 0.52686 0.0
H318 H 0.56505 0.44073 0.42476 0.0
O319 O 0.54871 0.37105 0.52661 0.0
H320 H 0.46497 0.32804 0.39489 0.0
H321 H 0.54769 0.48149 0.44085 0.0
Cu322 Cu 0.61114 0.12599 0.45527 0.0
N323 N 0.6482 0.14084 0.426 0.0
N324 N 0.68429 0.16313 0.38131 0.0
C325 C 0.65415 0.15433 0.39264 0.0
C326 C 0.69777 0.15463 0.4081 0.0
C327 C 0.67545 0.14085 0.43555 0.0
O328 O 0.5808 0.13764 0.43419 0.0
C329 C 0.64414 0.16203 0.51469 0.0
O330 O 0.65791 0.18297 0.48935 0.0
H331 H 0.63712 0.15807 0.37704 0.0
H332 H 0.67892 0.13176 0.46103 0.0
N333 N 0.58993 0.08478 0.45371 0.0
N334 N 0.5587 0.03715 0.46908 0.0
C335 C 0.5773 0.0644 0.48129 0.0
C336 C 0.579 0.06984 0.42328 0.0
C337 C 0.55968 0.04053 0.43264 0.0
C338 C 0.58691 0.16208 0.4179 0.0
O339 O 0.61543 0.18457 0.41937 0.0
H340 H 0.58057 0.06955 0.50964 0.0
H341 H 0.58375 0.07983 0.39619 0.0
O342 O 0.62264 0.13675 0.50582 0.0
H343 H 0.7221 0.15847 0.40791 0.0
H344 H 0.5469 0.02305 0.41423 0.0
Cu345 Cu 0.81948 0.55445 0.77728 0.0
N346 N 0.84648 0.54446 0.80423 0.0
N347 N 0.86269 0.52311 0.84728 0.0
C348 C 0.8395 0.52956 0.83662 0.0
C349 C 0.88522 0.53453 0.82084 0.0
C350 C 0.87514 0.54773 0.79428 0.0
O351 O 0.77927 0.53574 0.80372 0.0
C352 C 0.81567 0.51717 0.72033 0.0
O353 O 0.81082 0.49793 0.7472 0.0
H354 H 0.81746 0.52272 0.85154 0.0
H355 H 0.88738 0.5582 0.76899 0.0
N356 N 0.83307 0.59502 0.77872 0.0
N357 N 0.84698 0.64212 0.76342 0.0
C358 C 0.84339 0.61604 0.75171 0.0
C359 C 0.83021 0.60835 0.80822 0.0
C360 C 0.83863 0.63733 0.79886 0.0
C361 C 0.75689 0.54232 0.79888 0.0
O362 O 0.75685 0.55738 0.76934 0.0
H363 H 0.84743 0.6122 0.724 0.0
H364 H 0.82152 0.59737 0.83448 0.0
O365 O 0.8186 0.5425 0.72729 0.0
H366 H 0.90704 0.53288 0.82052 0.0
H367 H 0.83847 0.65366 0.81655 0.0
Cu368 Cu 0.51268 0.30927 0.77232 0.0
N369 N 0.51685 0.34057 0.80022 0.0
N370 N 0.53085 0.37128 0.84598 0.0
C371 C 0.53819 0.35351 0.82628 0.0
C372 C 0.50407 0.3696 0.83173 0.0
C373 C 0.49552 0.35067 0.80349 0.0
O374 O 0.53096 0.28831 0.80036 0.0
C375 C 0.51875 0.3356 0.70251 0.0
O376 O 0.49508 0.33928 0.71502 0.0
H377 H 0.55779 0.34894 0.83185 0.0
H378 H 0.47435 0.34359 0.78763 0.0
N379 N 0.46957 0.28294 0.76987 0.0
N380 N 0.42337 0.24706 0.75246 0.0
C381 C 0.4538 0.26538 0.74273 0.0
C382 C 0.44837 0.27536 0.79747 0.0
C383 C 0.41975 0.25324 0.78675 0.0
C384 C 0.52479 0.26197 0.79402 0.0
O385 O 0.51064 0.25034 0.76385 0.0
H386 H 0.46458 0.26524 0.71698 0.0
H387 H 0.45367 0.28475 0.82391 0.0
O388 O 0.53067 0.32297 0.72313 0.0
H389 H 0.49127 0.38073 0.84168 0.0
H390 H 0.3981 0.24219 0.80293 0.0
Cu391 Cu 0.73716 0.20034 0.75448 0.0
N392 N 0.71348 0.2012 0.71384 0.0
N393 N 0.68946 0.19316 0.66011 0.0
C394 C 0.70737 0.18611 0.68297 0.0
C395 C 0.68404 0.21319 0.67723 0.0
C396 C 0.69872 0.21801 0.71023 0.0
O397 O 0.7627 0.18059 0.74369 0.0
C398 C 0.6982 0.19655 0.81428 0.0
O399 O 0.70573 0.22366 0.80317 0.0
H400 H 0.71597 0.17051 0.67723 0.0
H401 H 0.69879 0.23294 0.73022 0.0
N402 N 0.76522 0.23883 0.76734 0.0
N403 N 0.79686 0.27596 0.80139 0.0
C404 C 0.78071 0.24642 0.79884 0.0
C405 C 0.77219 0.26449 0.74924 0.0
C406 C 0.79173 0.2875 0.77029 0.0
C407 C 0.78745 0.19422 0.72349 0.0
O408 O 0.79448 0.22058 0.7097 0.0
H409 H 0.77942 0.23067 0.81993 0.0
H410 H 0.76311 0.26634 0.72299 0.0
O411 O 0.70848 0.18167 0.79656 0.0
H412 H 0.67045 0.22363 0.66648 0.0
H413 H 0.80088 0.31084 0.76374 0.0
Cu414 Cu 0.48864 0.21686 0.23157 0.0
N415 N 0.48475 0.18901 0.26818 0.0
N416 N 0.50013 0.17086 0.3156 0.0
C417 C 0.50937 0.18796 0.28488 0.0
C418 C 0.46847 0.16029 0.31828 0.0
C419 C 0.459 0.17151 0.28886 0.0
O420 O 0.49569 0.25222 0.25702 0.0
C421 C 0.52002 0.19839 0.18319 0.0
O422 O 0.49509 0.17316 0.19205 0.0
H423 H 0.53385 0.20105 0.27606 0.0
H424 H 0.43543 0.16885 0.28434 0.0
N425 N 0.45139 0.2047 0.20436 0.0
N426 N 0.40236 0.19295 0.18566 0.0
C427 C 0.42173 0.19915 0.21446 0.0
C428 C 0.45043 0.20215 0.16812 0.0
C429 C 0.42036 0.19483 0.15661 0.0
C430 C 0.51732 0.26364 0.28038 0.0
O431 O 0.53883 0.2546 0.28369 0.0
H432 H 0.41456 0.19993 0.24207 0.0
H433 H 0.47041 0.20586 0.15096 0.0
O434 O 0.52319 0.22165 0.19826 0.0
H435 H 0.45364 0.14674 0.34078 0.0
H436 H 0.41226 0.19133 0.12897 0.0
Cu437 Cu 0.82236 0.27855 0.23614 0.0
N438 N 0.84632 0.31135 0.26349 0.0
N439 N 0.85957 0.34362 0.30726 0.0
C440 C 0.83837 0.31684 0.29633 0.0
C441 C 0.88166 0.35555 0.28047 0.0
C442 C 0.87336 0.33556 0.25338 0.0
O443 O 0.78521 0.2529 0.26621 0.0
C444 C 0.80904 0.31478 0.18528 0.0
O445 O 0.80152 0.32492 0.21389 0.0
H446 H 0.81702 0.30195 0.31143 0.0
H447 H 0.88559 0.33882 0.2276 0.0
N448 N 0.84586 0.25862 0.22691 0.0
N449 N 0.85844 0.22334 0.21261 0.0
C450 C 0.83485 0.22956 0.2218 0.0
C451 C 0.87739 0.271 0.22067 0.0
C452 C 0.88523 0.24927 0.21186 0.0
C453 C 0.75967 0.23077 0.25731 0.0
O454 O 0.75468 0.22398 0.22313 0.0
H455 H 0.81008 0.21344 0.22381 0.0
H456 H 0.8935 0.29433 0.22161 0.0
O457 O 0.8152 0.29319 0.18926 0.0
H458 H 0.90177 0.37741 0.28019 0.0
H459 H 0.90862 0.25223 0.20488 0.0
Cu460 Cu 0.75263 0.53067 0.25806 0.0
N461 N 0.71815 0.51737 0.29018 0.0
N462 N 0.68654 0.49522 0.33827 0.0
C463 C 0.71509 0.50326 0.3226 0.0
C464 C 0.67113 0.50478 0.31513 0.0
C465 C 0.69074 0.51845 0.28537 0.0
O466 O 0.78282 0.51981 0.28174 0.0
C467 C 0.71321 0.48972 0.20546 0.0
O468 O 0.70056 0.47076 0.23305 0.0
H469 H 0.73312 0.49852 0.33424 0.0
H470 H 0.68534 0.52821 0.26169 0.0
N471 N 0.77057 0.57164 0.25146 0.0
N472 N 0.80265 0.61771 0.23153 0.0
C473 C 0.7955 0.58908 0.22966 0.0
C474 C 0.7617 0.58992 0.26748 0.0
C475 C 0.78156 0.61849 0.25519 0.0
C476 C 0.80307 0.53769 0.3033 0.0
O477 O 0.80646 0.56454 0.30493 0.0
H478 H 0.80831 0.58102 0.21304 0.0
H479 H 0.74231 0.58296 0.28693 0.0
O480 O 0.73709 0.51467 0.21049 0.0
H481 H 0.64739 0.50192 0.31947 0.0
H482 H 0.78081 0.63829 0.26308 0.0
Cu483 Cu 0.56818 0.15689 0.98797 0.0
N484 N 0.54237 0.16621 0.9581 0.0
N485 N 0.52877 0.18954 0.91486 0.0
C486 C 0.55006 0.18048 0.92529 0.0
C487 C 0.50679 0.18043 0.94189 0.0
C488 C 0.51525 0.16607 0.96852 0.0
O489 O 0.60803 0.17072 0.95994 0.0
C490 C 0.58333 0.17774 0.06223 0.0
O491 O 0.60549 0.16934 0.06304 0.0
H492 H 0.57176 0.18577 0.91042 0.0
H493 H 0.50349 0.15759 0.99458 0.0
N494 N 0.54898 0.11599 0.99778 0.0
N495 N 0.53966 0.07131 1.01919 0.0
C496 C 0.55951 0.10059 1.01915 0.0
C497 C 0.52161 0.0957 0.98411 0.0
C498 C 0.51582 0.06807 0.99725 0.0
C499 C 0.61216 0.1532 0.93937 0.0
O500 O 0.5924 0.12483 0.94202 0.0
H501 H 0.58139 0.11051 1.0339 0.0
H502 H 0.50705 0.10067 0.96555 0.0
O503 O 0.56836 0.17593 1.03314 0.0
H504 H 0.48665 0.18477 0.94276 0.0
H505 H 0.4959 0.0472 0.99095 0.0
Cu506 Cu 0.88873 0.40871 0.98937 0.0
N507 N 0.88314 0.37633 0.96284 0.0
N508 N 0.86509 0.34175 0.9216 0.0
C509 C 0.86558 0.36666 0.93299 0.0
C510 C 0.88284 0.33535 0.94506 0.0
C511 C 0.89394 0.35677 0.97059 0.0
O512 O 0.87242 0.43068 0.95998 0.0
C513 C 0.83993 0.3751 0.04269 0.0
O514 O 0.82028 0.36809 1.01555 0.0
H515 H 0.85293 0.3773 0.92024 0.0
H516 H 0.90846 0.3578 0.99352 0.0
N517 N 0.93199 0.4338 0.99542 0.0
N518 N 0.97692 0.47195 1.01225 0.0
C519 C 0.94498 0.45825 1.01502 0.0
C520 C 0.95663 0.43214 0.97981 0.0
C521 C 0.98446 0.45567 0.99025 0.0
C522 C 0.87085 0.45368 0.96895 0.0
O523 O 0.87618 0.46204 1.00255 0.0
H524 H 0.9314 0.466 1.03077 0.0
H525 H 0.95449 0.41519 0.96174 0.0
O526 O 0.86899 0.39366 1.03716 0.0
H527 H 0.88702 0.31637 0.94403 0.0
H528 H 1.00831 0.46064 0.98215 0.0
Cu529 Cu 0.61973 0.4893 1.01085 0.0
N530 N 0.65559 0.51071 0.98066 0.0
N531 N 0.68899 0.52599 0.93289 0.0
C532 C 0.65884 0.50896 0.94462 0.0
C533 C 0.70531 0.53941 0.96228 0.0
C534 C 0.68462 0.52995 0.99171 0.0
O535 O 0.59025 0.45382 0.98655 0.0
C536 C 0.65396 0.47303 0.06382 0.0
O537 O 0.66246 0.46229 1.0366 0.0
H538 H 0.63995 0.49491 0.9274 0.0
H539 H 0.69044 0.53617 1.01945 0.0
N540 N 0.5988 0.51205 1.01714 0.0
N541 N 0.56207 0.52578 1.03099 0.0
C542 C 0.5692 0.50318 1.03054 0.0
C543 C 0.61057 0.54111 1.00896 0.0
C544 C 0.58797 0.54965 1.01755 0.0
C545 C 0.59926 0.43936 0.96641 0.0
O546 O 0.62891 0.4445 0.96688 0.0
H547 H 0.55329 0.48076 1.03983 0.0
H548 H 0.63402 0.55512 0.99759 0.0
O549 O 0.63436 0.48318 0.05854 0.0
H550 H 0.73046 0.5545 0.96244 0.0
H551 H 0.5903 0.57166 1.01428 0.0
Cu552 Cu 0.54495 0.79407 0.82487 0.0
N553 N 0.5218 0.79255 0.86685 0.0
N554 N 0.50823 0.80183 0.9211 0.0
C555 C 0.53136 0.81032 0.89533 0.0
C556 C 0.48322 0.77809 0.90834 0.0
C557 C 0.4916 0.77251 0.87487 0.0
O558 O 0.5904 0.81582 0.83342 0.0
C559 C 0.50489 0.795 0.76944 0.0
O560 O 0.48669 0.76808 0.78244 0.0
H561 H 0.55481 0.8288 0.89739 0.0
H562 H 0.47679 0.75482 0.85768 0.0
N563 N 0.53644 0.756 0.81293 0.0
N564 N 0.53079 0.71862 0.77937 0.0
C565 C 0.54179 0.74804 0.78031 0.0
C566 C 0.52208 0.73079 0.83344 0.0
C567 C 0.51842 0.7076 0.81266 0.0
C568 C 0.60175 0.80565 0.85811 0.0
O569 O 0.58235 0.78249 0.8782 0.0
H570 H 0.55249 0.76334 0.75735 0.0
H571 H 0.51416 0.72928 0.86125 0.0
O572 O 0.53142 0.81084 0.78417 0.0
H573 H 0.46061 0.76563 0.92241 0.0
H574 H 0.50691 0.68441 0.82096 0.0
Cu575 Cu 0.21902 0.72479 0.82644 0.0
N576 N 0.18907 0.70173 0.79279 0.0
N577 N 0.16836 0.67434 0.74472 0.0
C578 C 0.19297 0.68525 0.7675 0.0
C579 C 0.14815 0.68407 0.75609 0.0
C580 C 0.16103 0.70104 0.78574 0.0
O581 O 0.25862 0.74968 0.79962 0.0
C582 C 0.19726 0.67808 0.87932 0.0
O583 O 0.17187 0.66728 0.85931 0.0
H584 H 0.21374 0.682 0.7652 0.0
H585 H 0.15107 0.71269 0.80058 0.0
N586 N 0.20679 0.74992 0.84937 0.0
N587 N 0.19524 0.78596 0.86243 0.0
C588 C 0.19899 0.7704 0.83578 0.0
C589 C 0.20807 0.75298 0.88553 0.0
C590 C 0.20087 0.77512 0.89367 0.0
C591 C 0.2566 0.76259 0.77023 0.0
O592 O 0.22857 0.75827 0.7595 0.0
H593 H 0.19733 0.77467 0.80716 0.0
H594 H 0.21495 0.74063 0.90466 0.0
O595 O 0.2222 0.70063 0.86718 0.0
H596 H 0.12587 0.67941 0.74359 0.0
H597 H 0.20086 0.7834 0.92023 0.0
Cu598 Cu 0.26446 0.47843 0.83249 0.0
N599 N 0.29202 0.47629 0.79764 0.0
N600 N 0.32467 0.48906 0.74922 0.0
C601 C 0.30137 0.49213 0.76592 0.0
C602 C 0.33044 0.4705 0.77097 0.0
C603 C 0.31026 0.46269 0.80093 0.0
O604 O 0.23757 0.49244 0.80762 0.0
C605 C 0.28019 0.50326 0.90289 0.0
O606 O 0.24945 0.49131 0.90881 0.0
H607 H 0.29242 0.50666 0.75559 0.0
H608 H 0.30993 0.44914 0.82423 0.0
N609 N 0.23527 0.44123 0.85182 0.0
N610 N 0.20722 0.39327 0.86702 0.0
C611 C 0.23479 0.41466 0.85245 0.0
C612 C 0.20711 0.43612 0.86626 0.0
C613 C 0.18981 0.40663 0.8757 0.0
C614 C 0.24629 0.51592 0.78802 0.0
O615 O 0.27543 0.53735 0.78984 0.0
H616 H 0.25359 0.41084 0.84161 0.0
H617 H 0.19937 0.45274 0.86883 0.0
O618 O 0.29074 0.50188 0.87169 0.0
H619 H 0.34863 0.46396 0.76612 0.0
H620 H 0.16601 0.39563 0.88727 0.0
Cu621 Cu 0.51253 0.88724 0.11541 0.0
N622 N 0.53342 0.8735 0.14781 0.0
N623 N 0.543 0.85269 0.19728 0.0
C624 C 0.52385 0.86256 0.18198 0.0
C625 C 0.56568 0.85786 0.17208 0.0
C626 C 0.55973 0.87074 0.14157 0.0
O627 O 0.47264 0.87878 0.13906 0.0
C628 C 0.50622 0.84451 0.06316 0.0
O629 O 0.50466 0.82746 0.09133 0.0
H630 H 0.50312 0.86153 0.19527 0.0
H631 H 0.57329 0.87722 0.11637 0.0
N632 N 0.53563 0.92824 0.10799 0.0
N633 N 0.54858 0.97441 0.08902 0.0
C634 C 0.52571 0.94605 0.09081 0.0
C635 C 0.56575 0.94603 0.11731 0.0
C636 C 0.57383 0.9746 0.10556 0.0
C637 C 0.44894 0.85329 0.14309 0.0
O638 O 0.44859 0.83094 0.12641 0.0
H639 H 0.50242 0.93836 0.0794 0.0
H640 H 0.58087 0.93866 0.13128 0.0
O641 O 0.50825 0.86982 0.06804 0.0
H642 H 0.58489 0.85237 0.17543 0.0
H643 H 0.59648 0.99395 0.10854 0.0
Cu644 Cu 0.15291 0.63762 0.10317 0.0
N645 N 0.1611 0.66942 0.13318 0.0
N646 N 0.18254 0.70319 0.17541 0.0
C647 C 0.18559 0.68288 0.15581 0.0
C648 C 0.15567 0.70318 0.16428 0.0
C649 C 0.1426 0.68246 0.13813 0.0
O650 O 0.16459 0.61061 0.12906 0.0
C651 C 0.17753 0.63766 1.03145 0.0
O652 O 0.17181 0.61047 1.03975 0.0
H653 H 0.20518 0.67792 0.1582 0.0
H654 H 0.12095 0.67719 0.12386 0.0
N655 N 0.10916 0.61479 0.09653 0.0
N656 N 0.06384 0.57758 0.07858 0.0
C657 C 0.09549 0.593 0.07295 0.0
C658 C 0.08521 0.61265 0.11798 0.0
C659 C 0.05719 0.5898 0.10682 0.0
C660 C 0.19185 0.61507 0.13915 0.0
O661 O 0.21717 0.63956 0.12914 0.0
H662 H 0.10857 0.58748 0.05337 0.0
H663 H 0.08806 0.62554 0.14151 0.0
O664 O 0.173 0.65276 0.05532 0.0
H665 H 0.14631 0.71722 0.17429 0.0
H666 H 0.034 0.58178 0.11952 0.0
Cu667 Cu 0.41497 0.55579 0.11256 0.0
N668 N 0.39199 0.5601 0.07347 0.0
N669 N 0.36162 0.55201 1.02468 0.0
C670 C 0.37825 0.54218 0.04576 0.0
C671 C 0.36508 0.57693 1.03955 0.0
C672 C 0.3838 0.58187 0.06949 0.0
O673 O 0.43852 0.53481 0.09914 0.0
C674 C 0.37352 0.55054 0.16993 0.0
O675 O 0.3819 0.57799 0.15948 0.0
H676 H 0.37973 0.52206 0.04159 0.0
H677 H 0.39051 0.59984 0.08763 0.0
N678 N 0.44551 0.59311 0.12592 0.0
N679 N 0.48051 0.62962 0.15837 0.0
C680 C 0.45694 0.60157 0.15924 0.0
C681 C 0.46251 0.6166 0.1034 0.0
C682 C 0.48417 0.63919 0.12337 0.0
C683 C 0.45668 0.54382 0.07107 0.0
O684 O 0.45646 0.56474 0.04968 0.0
H685 H 0.4485 0.58741 0.18352 0.0
H686 H 0.45961 0.61711 0.07438 0.0
O687 O 0.38522 0.53631 0.15338 0.0
H688 H 0.35441 0.59033 1.02965 0.0
H689 H 0.50131 0.66093 0.11312 0.0
Cu690 Cu 0.14185 0.55299 0.58563 0.0
N691 N 0.14971 0.52927 0.61952 0.0
N692 N 0.16952 0.51675 0.66794 0.0
C693 C 0.17287 0.53871 0.6442 0.0
C694 C 0.14352 0.49258 0.65772 0.0
C695 C 0.13134 0.50036 0.62786 0.0
O696 O 0.15804 0.59088 0.60929 0.0
C697 C 0.16004 0.53102 0.52554 0.0
O698 O 0.14272 0.50574 0.54316 0.0
H699 H 0.19131 0.56133 0.64534 0.0
H700 H 0.11009 0.48612 0.61376 0.0
N701 N 0.09771 0.53631 0.5799 0.0
N702 N 0.04932 0.52249 0.55811 0.0
C703 C 0.08084 0.53642 0.55054 0.0
C704 C 0.07599 0.52181 0.60651 0.0
C705 C 0.04619 0.5132 0.59314 0.0
C706 C 0.14003 0.60048 0.62251 0.0
O707 O 0.10982 0.58771 0.61479 0.0
H708 H 0.09129 0.54643 0.52436 0.0
H709 H 0.08152 0.51802 0.63396 0.0
O710 O 0.16329 0.55483 0.53915 0.0
H711 H 0.13403 0.47091 0.67108 0.0
H712 H 0.02387 0.50104 0.60787 0.0
Cu713 Cu 0.46098 0.58557 0.59461 0.0
N714 N 0.49503 0.61391 0.61918 0.0
N715 N 0.52051 0.64835 0.65916 0.0
C716 C 0.49256 0.62587 0.65009 0.0
C717 C 0.54149 0.65076 0.63307 0.0
C718 C 0.52564 0.62932 0.60835 0.0
O719 O 0.42487 0.57145 0.62778 0.0
C720 C 0.46457 0.63059 0.54533 0.0
O721 O 0.4707 0.64581 0.57474 0.0
H722 H 0.47042 0.61922 0.66473 0.0
H723 H 0.53535 0.62602 0.58346 0.0
N724 N 0.4674 0.55276 0.58805 0.0
N725 N 0.48115 0.51994 0.5673 0.0
C726 C 0.4837 0.54722 0.56217 0.0
C727 C 0.45452 0.5283 0.61004 0.0
C728 C 0.46285 0.50798 0.59724 0.0
C729 C 0.39669 0.55241 0.62106 0.0
O730 O 0.38867 0.54531 0.58742 0.0
H731 H 0.49681 0.56255 0.54001 0.0
H732 H 0.43988 0.5254 0.63378 0.0
O733 O 0.45687 0.60317 0.54819 0.0
H734 H 0.56609 0.66745 0.63141 0.0
H735 H 0.45609 0.48612 0.6089 0.0
Cu736 Cu 0.4232 0.85076 0.59687 0.0
N737 N 0.39544 0.85593 0.62818 0.0
N738 N 0.35914 0.84023 0.67331 0.0
C739 C 0.36873 0.83324 0.64235 0.0
C740 C 0.38016 0.86869 0.67825 0.0
C741 C 0.40243 0.87836 0.65031 0.0
O742 O 0.43904 0.82877 0.62829 0.0
C743 C 0.38233 0.83967 0.53787 0.0
O744 O 0.38173 0.86325 0.54977 0.0
H745 H 0.35835 0.8112 0.63218 0.0
H746 H 0.42389 0.89923 0.64832 0.0
N747 N 0.45875 0.88654 0.58153 0.0
N748 N 0.49193 0.92996 0.5541 0.0
C749 C 0.46127 0.90928 0.55947 0.0
C750 C 0.48889 0.89312 0.58936 0.0
C751 C 0.5092 0.91985 0.57304 0.0
C752 C 0.45379 0.84171 0.65659 0.0
O753 O 0.45886 0.86878 0.66159 0.0
H754 H 0.44135 0.91033 0.54684 0.0
H755 H 0.49594 0.87897 0.60483 0.0
O756 O 0.3991 0.82971 0.55451 0.0
H757 H 0.3804 0.88101 0.70156 0.0
H758 H 0.53485 0.93052 0.57363 0.0
Cu759 Cu 0.22245 0.49602 0.32411 0.0
N760 N 0.19868 0.50704 0.29285 0.0
N761 N 0.18719 0.53125 0.24897 0.0
C762 C 0.21041 0.5298 0.26823 0.0
C763 C 0.15979 0.50896 0.26203 0.0
C764 C 0.16697 0.49395 0.28912 0.0
O765 O 0.26429 0.51099 0.30004 0.0
C766 C 0.19651 0.5052 0.38798 0.0
O767 O 0.17014 0.48672 0.37282 0.0
H768 H 0.2354 0.54504 0.26455 0.0
H769 H 0.15021 0.47473 0.30483 0.0
N770 N 0.20307 0.45471 0.32871 0.0
N771 N 0.1908 0.4087 0.3473 0.0
C772 C 0.20804 0.43763 0.35385 0.0
C773 C 0.18204 0.4358 0.30577 0.0
C774 C 0.17445 0.40738 0.31718 0.0
C775 C 0.2666 0.49836 0.27178 0.0
O776 O 0.24182 0.47438 0.26178 0.0
H777 H 0.22436 0.44616 0.37592 0.0
H778 H 0.17352 0.44223 0.28171 0.0
O779 O 0.22297 0.5125 0.3717 0.0
H780 H 0.13641 0.50408 0.25271 0.0
H781 H 0.15872 0.38732 0.30407 0.0
Cu782 Cu 0.54732 0.74249 0.36033 0.0
N783 N 0.55831 0.72258 0.32668 0.0
N784 N 0.55016 0.69644 0.27722 0.0
C785 C 0.53669 0.70173 0.30622 0.0
C786 C 0.58157 0.71442 0.2796 0.0
C787 C 0.58656 0.73063 0.31026 0.0
O788 O 0.53408 0.76592 0.32883 0.0
C789 C 0.50665 0.71443 0.42327 0.0
O790 O 0.51544 0.7411 0.43453 0.0
H791 H 0.51135 0.69279 0.31045 0.0
H792 H 0.60874 0.74873 0.31817 0.0
N793 N 0.5827 0.76682 0.3875 0.0
N794 N 0.6284 0.8043 0.40396 0.0
C795 C 0.60805 0.7924 0.37665 0.0
C796 C 0.58766 0.76253 0.42268 0.0
C797 C 0.61573 0.78564 0.43291 0.0
C798 C 0.53766 0.79178 0.33334 0.0
O799 O 0.54534 0.8033 0.3653 0.0
H800 H 0.61154 0.80209 0.34943 0.0
H801 H 0.57198 0.74398 0.43998 0.0
O802 O 0.51473 0.71124 0.39151 0.0
H803 H 0.5992 0.71716 0.25925 0.0
H804 H 0.62617 0.78856 0.45943 0.0
Cu805 Cu 0.29821 0.81871 0.33458 0.0
N806 N 0.33231 0.84134 0.30283 0.0
N807 N 0.36823 0.85266 0.25825 0.0
C808 C 0.3424 0.83106 0.2753 0.0
C809 C 0.37518 0.87739 0.27596 0.0
C810 C 0.3531 0.87027 0.30374 0.0
O811 O 0.27208 0.78235 0.30904 0.0
C812 C 0.30587 0.7999 0.40885 0.0
O813 O 0.27641 0.77884 0.40849 0.0
H814 H 0.33162 0.80809 0.26852 0.0
H815 H 0.35268 0.88503 0.32368 0.0
N816 N 0.27378 0.83822 0.34206 0.0
N817 N 0.2339 0.84738 0.35723 0.0
C818 C 0.2451 0.82752 0.35888 0.0
C819 C 0.2805 0.86553 0.32934 0.0
C820 C 0.25603 0.87124 0.33876 0.0
C821 C 0.2588 0.78584 0.28045 0.0
O822 O 0.26205 0.81224 0.27202 0.0
H823 H 0.23248 0.80557 0.37138 0.0
H824 H 0.30126 0.88008 0.31332 0.0
O825 O 0.31802 0.81648 0.38056 0.0
H826 H 0.39513 0.89882 0.26965 0.0
H827 H 0.25421 0.8911 0.33191 0.0
C828 C 0.23037 0.05318 0.05581 0.0
C829 C 0.20308 0.0419 0.07881 0.0
C830 C 0.17852 0.99721 0.04392 0.0
C831 C 0.20419 1.01005 1.01853 0.0
N832 N 0.25263 0.05157 0.99729 0.0
N833 N 0.14943 1.00527 0.09246 0.0
C834 C 0.22969 0.03841 1.02371 0.0
C835 C 0.17666 0.01439 0.07229 0.0
N836 N 0.25724 0.07743 0.06546 0.0
N837 N 0.15653 0.9683 0.04143 0.0
H838 H 0.14737 0.01763 0.11315 0.0
H839 H 0.12822 0.98682 0.08676 0.0
H840 H 0.1579 0.95498 1.02153 0.0
H841 H 0.13877 0.95681 0.06092 0.0
H842 H 0.27887 0.08532 0.0516 0.0
H843 H 0.25857 0.08796 0.0895 0.0
H844 H 0.27019 0.07344 0.99769 0.0
H845 H 0.25253 0.04123 0.97344 0.0
C846 C 0.99541 0.14478 0.08691 0.0
C847 C 0.97019 0.1164 0.08009 0.0
C848 C 0.98139 0.1263 1.01465 0.0
C849 C 1.00794 0.15352 1.02165 0.0
N850 N 0.04348 0.18718 0.06384 0.0
N851 N 0.94348 0.07776 1.03807 0.0
C852 C 1.01587 0.16236 0.05768 0.0
C853 C 0.96428 0.10652 0.04407 0.0
N854 N 0.99908 0.15536 0.12097 0.0
N855 N 0.97219 0.11969 0.97971 0.0
H856 H 0.93115 0.06232 0.05893 0.0
H857 H 0.94091 0.06848 1.01288 0.0
H858 H 0.98439 0.13383 0.95767 0.0
H859 H 0.95109 0.1016 0.97283 0.0
H860 H 1.01492 0.17697 0.12691 0.0
H861 H 0.9845 0.14319 0.14294 0.0
H862 H 0.05258 0.19332 0.08955 0.0
H863 H 0.05855 0.20053 0.0428 0.0
C864 C 0.846 0.80182 0.04857 0.0
C865 C 0.86253 0.82866 1.02811 0.0
C866 C 0.90295 0.8472 0.07471 0.0
C867 C 0.88939 0.81861 0.09185 0.0
N868 N 0.8491 0.76744 0.09298 0.0
N869 N 0.90824 0.87626 1.01945 0.0
C870 C 0.86084 0.79562 0.07867 0.0
C871 C 0.89122 0.85141 0.04081 0.0
N872 N 0.81606 0.78228 1.03891 0.0
N873 N 0.92695 0.87033 0.09107 0.0
H874 H 0.9006 0.87979 0.99419 0.0
H875 H 0.93104 0.89223 1.02539 0.0
H876 H 0.93564 0.86792 0.11621 0.0
H877 H 0.93596 0.89218 0.08158 0.0
H878 H 0.80136 0.76344 0.05456 0.0
H879 H 0.80491 0.78651 1.01684 0.0
H880 H 0.83059 0.74931 0.08158 0.0
H881 H 0.85925 0.76159 0.11463 0.0
C882 C 0.04721 0.21524 0.54138 0.0
C883 C 0.03582 0.18678 0.55809 0.0
C884 C 0.05686 0.17168 0.50677 0.0
C885 C 0.07243 0.20138 0.49289 0.0
N886 N 0.08667 0.25272 0.50128 0.0
N887 N 0.03339 0.13881 0.55951 0.0
C888 C 0.0685 0.22355 0.51106 0.0
C889 C 0.04137 0.16511 0.54141 0.0
N890 N 0.03739 0.23426 0.55447 0.0
N891 N 0.05636 0.14967 0.48654 0.0
H892 H 0.02273 0.13358 0.58525 0.0
H893 H 0.03988 0.12333 0.55045 0.0
H894 H 0.06677 0.15361 0.46069 0.0
H895 H 0.04294 0.12734 0.49376 0.0
H896 H 0.04239 0.25437 0.54142 0.0
H897 H 0.02153 0.2285 0.57644 0.0
H898 H 0.08703 0.26977 0.51615 0.0
H899 H 0.1038 0.26022 0.48057 0.0
C900 C 0.85627 0.87721 0.47224 0.0
C901 C 0.86091 0.9059 0.47998 0.0
C902 C 0.85907 0.89355 0.54508 0.0
C903 C 0.85776 0.86617 0.53732 0.0
N904 N 0.86229 0.83477 0.49323 0.0
N905 N 0.87498 0.94373 0.52367 0.0
C906 C 0.85832 0.85872 0.50077 0.0
C907 C 0.86459 0.91475 0.51643 0.0
N908 N 0.84874 0.86712 0.43804 0.0
N909 N 0.85425 0.89899 0.57984 0.0
H910 H 0.8814 0.96022 0.50328 0.0
H911 H 0.88072 0.95184 0.54957 0.0
H912 H 0.84918 0.88347 0.60121 0.0
H913 H 0.85204 0.9175 0.58672 0.0
H914 H 0.84193 0.84533 0.43183 0.0
H915 H 0.84646 0.87971 0.41655 0.0
H916 H 0.86612 0.82999 0.46706 0.0
H917 H 0.86503 0.8214 0.51337 0.0
C918 C 0.18947 0.9638 0.52344 0.0
C919 C 0.17594 0.97521 0.49722 0.0
C920 C 0.19905 0.02237 0.52693 0.0
C921 C 0.20912 1.00978 0.5556 0.0
N922 N 0.20905 0.96692 0.58449 0.0
N923 N 0.1619 0.01302 0.47848 0.0
C924 C 0.20297 0.97998 0.55481 0.0
C925 C 0.17903 1.00388 0.50022 0.0
N926 N 0.19057 0.93814 0.51762 0.0
N927 N 0.20976 0.05217 0.52429 0.0
H928 H 0.14594 0.99948 0.45967 0.0
H929 H 0.16105 0.03275 0.48181 0.0
H930 H 0.22602 0.06661 0.54216 0.0
H931 H 0.2053 0.06276 0.50213 0.0
H932 H 0.20271 0.93013 0.53423 0.0
H933 H 0.18206 0.92646 0.49414 0.0
H934 H 0.2023 0.94444 0.58675 0.0
H935 H 0.21815 0.97806 0.60821 0.0
C936 C 0.82949 0.94547 0.04659 0.0
C937 C 0.84775 0.97647 0.04233 0.0
C938 C 0.8676 0.97089 0.98314 0.0
C939 C 0.84747 0.93992 0.98623 0.0
N940 N 0.80446 0.8984 1.01808 0.0
N941 N 0.87894 0.01923 1.00381 0.0
C942 C 0.82685 0.92741 1.01705 0.0
C943 C 0.86548 0.98937 1.00985 0.0
N944 N 0.8156 0.93327 0.07953 0.0
N945 N 0.88872 0.98268 0.95467 0.0
H946 H 0.87701 0.03313 1.02247 0.0
H947 H 0.88949 0.02991 0.9792 0.0
H948 H 0.88963 0.97015 0.93349 0.0
H949 H 0.90649 1.00452 0.95312 0.0
H950 H 0.80471 0.91068 0.08584 0.0
H951 H 0.81763 0.94602 0.10175 0.0
H952 H 0.78678 0.88896 1.03812 0.0
H953 H 0.80151 0.88425 0.99724 0.0
C954 C 0.04904 0.87751 1.01647 0.0
C955 C 0.04438 0.84844 1.02377 0.0
C956 C 0.07259 0.85093 0.9672 0.0
C957 C 0.07508 0.87923 0.95839 0.0
N958 N 0.05875 0.9161 0.97086 0.0
N959 N 0.04462 0.80485 1.00238 0.0
C960 C 0.06108 0.89146 0.98188 0.0
C961 C 0.05388 0.83431 0.99785 0.0
N962 N 0.04356 0.8924 0.0432 0.0
N963 N 0.08975 0.84066 0.94814 0.0
H964 H 0.03047 0.79211 1.02435 0.0
H965 H 0.04823 0.79264 0.98264 0.0
H966 H 0.10519 0.85252 0.92673 0.0
H967 H 0.09118 0.82159 0.95597 0.0
H968 H 0.04962 0.91472 0.0406 0.0
H969 H 0.03585 0.88323 0.06926 0.0
H970 H 0.04623 0.92443 0.98555 0.0
H971 H 0.06645 0.92637 0.94525 0.0
C972 C 0.16548 0.15843 0.98517 0.0
C973 C 0.14405 0.16921 0.99478 0.0
C974 C 0.1621 0.17328 0.05762 0.0
C975 C 0.18152 0.16006 0.04896 0.0
N976 N 0.19463 0.13281 1.00572 0.0
N977 N 0.11534 0.17806 0.04261 0.0
C978 C 0.18119 0.15051 1.01307 0.0
C979 C 0.14027 0.17379 1.03181 0.0
N980 N 0.17209 0.15694 0.94952 0.0
N981 N 0.1656 0.18696 0.08964 0.0
H982 H 0.09809 0.17736 1.0248 0.0
H983 H 0.10985 0.17882 0.06976 0.0
H984 H 0.18277 0.18907 0.1084 0.0
H985 H 0.15402 0.19927 0.09558 0.0
H986 H 0.1902 0.15243 0.94112 0.0
H987 H 0.16137 0.16264 0.92829 0.0
H988 H 0.19231 0.12296 0.98095 0.0
H989 H 0.20508 0.12531 1.02542 0.0
C990 C 0.97174 0.86778 0.52715 0.0
C991 C 0.97769 0.8612 0.56325 0.0
C992 C 0.03155 0.87135 0.54443 0.0
C993 C 0.02554 0.87809 0.50852 0.0
N994 N 0.99159 0.88577 0.46587 0.0
N995 N 1.01438 0.86077 0.60779 0.0
C996 C 0.99614 0.87732 0.50003 0.0
C997 C 1.00804 0.86437 0.57239 0.0
N998 N 0.94228 0.86419 0.51862 0.0
N999 N 0.0596 0.87116 0.55159 0.0
H1000 H 0.99766 0.85504 0.62875 0.0
H1001 H 0.03674 0.86544 0.61711 0.0
H1002 H 0.07773 0.87722 0.53221 0.0
H1003 H 0.06448 0.86344 0.57596 0.0
H1004 H 0.93458 0.86434 0.49231 0.0
H1005 H 0.92475 0.85998 0.53809 0.0
H1006 H 0.97272 0.8897 0.4589 0.0
H1007 H 1.0075 0.89019 0.44427 0.0
C1008 C 0.18223 0.14653 0.54625 0.0
C1009 C 0.20448 0.17619 0.53728 0.0
C1010 C 0.23582 0.17676 0.58978 0.0
C1011 C 0.21211 0.14789 0.6007 0.0
N1012 N 0.1595 0.10783 0.59331 0.0
N1013 N 0.24779 0.2218 0.55498 0.0
C1014 C 0.18423 0.13355 0.58015 0.0
C1015 C 0.22978 0.19203 0.56058 0.0
N1016 N 0.16023 0.13031 0.5216 0.0
N1017 N 0.26499 0.18884 0.60525 0.0
H1018 H 0.24341 0.23362 0.53412 0.0
H1019 H 0.26475 0.235 0.57315 0.0
H1020 H 0.27152 0.1778 0.62496 0.0
H1021 H 0.28393 0.20856 0.59561 0.0
H1022 H 0.14543 0.10769 0.52517 0.0
H1023 H 0.15885 0.13888 0.49601 0.0
H1024 H 0.13751 0.09784 0.58103 0.0
H1025 H 0.15994 0.09806 0.61846 0.0
C1026 C 0.89998 0.04628 0.59048 0.0
C1027 C 0.88628 0.06316 0.60505 0.0
C1028 C 0.84747 0.04714 0.55621 0.0
C1029 C 0.86417 0.03432 0.53876 0.0
N1030 N 0.90938 0.02531 0.53677 0.0
N1031 N 0.85086 0.08465 0.59622 0.0
C1032 C 0.89113 0.0346 0.55535 0.0
C1033 C 0.86079 0.06471 0.58669 0.0
N1034 N 0.92101 0.04095 0.61042 0.0
N1035 N 0.81876 0.04252 0.54339 0.0
H1036 H 0.86145 0.09985 0.61623 0.0
H1037 H 0.8345 0.0885 0.58137 0.0
H1038 H 0.80843 0.02945 0.52129 0.0
H1039 H 0.80396 0.049 0.55688 0.0
H1040 H 0.9295 0.02654 0.60266 0.0
H1041 H 0.9275 0.04863 0.63644 0.0
H1042 H 0.93115 0.02787 0.54585 0.0
H1043 H 0.90413 0.01741 0.51073 0.0
C1044 C 0.83634 0.36946 0.34182 0.0
C1045 C 0.85781 0.35764 0.33966 0.0
C1046 C 0.87839 0.37626 0.39928 0.0
C1047 C 0.8553 0.38613 0.40262 0.0
N1048 N 0.80931 0.3886 0.38013 0.0
N1049 N 0.89615 0.3458 0.3674 0.0
C1050 C 0.83341 0.38175 0.37466 0.0
C1051 C 0.87796 0.3599 0.36878 0.0
N1052 N 0.81957 0.36973 0.31198 0.0
N1053 N 0.90146 0.38367 0.42455 0.0
H1054 H 0.89626 0.33381 0.3452 0.0
H1055 H 0.90915 0.34406 0.38914 0.0
H1056 H 0.90261 0.39609 0.44679 0.0
H1057 H 0.92084 0.37964 0.42203 0.0
H1058 H 0.80583 0.38063 0.31043 0.0
H1059 H 0.8214 0.36091 0.2876 0.0
H1060 H 0.79077 0.38351 0.36228 0.0
H1061 H 0.80645 0.39725 0.40418 0.0
C1062 C 0.65437 0.43496 0.4118 0.0
C1063 C 0.64259 0.44801 0.43694 0.0
C1064 C 0.66831 0.4946 0.40077 0.0
C1065 C 0.67469 0.47993 0.37283 0.0
N1066 N 0.67122 0.43526 0.34972 0.0
N1067 N 0.6345 0.48991 0.4518 0.0
C1068 C 0.66739 0.44991 0.37791 0.0
C1069 C 0.64892 0.47793 0.43092 0.0
N1070 N 0.65324 0.40834 0.42047 0.0
N1071 N 0.68087 0.52461 0.39831 0.0
H1072 H 0.61885 0.47867 0.47324 0.0
H1073 H 0.63567 0.51038 0.44556 0.0
H1074 H 0.69535 0.53725 0.37648 0.0
H1075 H 0.67964 0.53698 0.41948 0.0
H1076 H 0.66387 0.39889 0.40457 0.0
H1077 H 0.64446 0.3972 0.44545 0.0
H1078 H 0.66312 0.41254 0.35057 0.0
H1079 H 0.6801 0.44546 0.32435 0.0
C1080 C 0.55301 0.1853 0.39657 0.0
C1081 C 0.56332 0.16362 0.39252 0.0
C1082 C 0.52865 0.14479 0.3401 0.0
C1083 C 0.5206 0.16791 0.34234 0.0
N1084 N 0.52687 0.21205 0.36966 0.0
N1085 N 0.56496 0.12578 0.3565 0.0
C1086 C 0.5333 0.18872 0.36978 0.0
C1087 C 0.55203 0.14399 0.36337 0.0
N1088 N 0.56108 0.20182 0.4267 0.0
N1089 N 0.51366 0.12348 0.31563 0.0
H1090 H 0.58264 0.12482 0.37207 0.0
H1091 H 0.56027 0.11342 0.33344 0.0
H1092 H 0.49724 0.1242 0.29752 0.0
H1093 H 0.5156 0.10409 0.31509 0.0
H1094 H 0.55189 0.21597 0.43313 0.0
H1095 H 0.57509 0.19962 0.44702 0.0
H1096 H 0.53797 0.22989 0.38629 0.0
H1097 H 0.51173 0.21445 0.35105 0.0
C1098 C 0.71246 0.55562 0.87659 0.0
C1099 C 0.70181 0.52866 0.89676 0.0
C1100 C 0.71906 0.50853 0.84722 0.0
C1101 C 0.73436 0.537 0.82969 0.0
N1102 N 0.74907 0.58915 0.83097 0.0
N1103 N 0.69757 0.48014 0.9036 0.0
C1104 C 0.73165 0.56095 0.84489 0.0
C1105 C 0.7055 0.50513 0.88255 0.0
N1106 N 0.70401 0.57611 0.88786 0.0
N1107 N 0.71714 0.48468 0.82981 0.0
H1108 H 0.68814 0.47726 0.92981 0.0
H1109 H 0.70277 0.4634 0.89632 0.0
H1110 H 0.72622 0.48639 0.80359 0.0
H1111 H 0.70386 0.463 0.83977 0.0
H1112 H 0.70825 0.59507 0.87246 0.0
H1113 H 0.68998 0.57261 0.91108 0.0
H1114 H 0.75078 0.60759 0.84379 0.0
H1115 H 0.76411 0.59474 0.8084 0.0
C1116 C 0.55563 0.25168 0.84321 0.0
C1117 C 0.5271 0.24275 0.82389 0.0
C1118 C 0.50301 0.19628 0.86014 0.0
C1119 C 0.52964 0.20687 0.88273 0.0
N1120 N 0.57897 0.24763 0.89999 0.0
N1121 N 0.47062 0.21024 0.82253 0.0
C1122 C 0.55551 0.23536 0.87536 0.0
C1123 C 0.49993 0.21593 0.83447 0.0
N1124 N 0.5829 0.27537 0.83068 0.0
N1125 N 0.48066 0.16734 0.86314 0.0
H1126 H 0.46669 0.22574 0.80745 0.0
H1127 H 0.44982 0.19198 0.8318 0.0
H1128 H 0.48286 0.15219 0.881 0.0
H1129 H 0.46201 0.15794 0.8452 0.0
H1130 H 0.60497 0.28111 0.84186 0.0
H1131 H 0.58392 0.28754 0.807 0.0
H1132 H 0.59678 0.26943 0.89757 0.0
H1133 H 0.5788 0.2371 0.92472 0.0
C1134 C 0.81465 0.30689 0.89462 0.0
C1135 C 0.84792 0.3247 0.89149 0.0
C1136 C 0.84763 0.3078 0.83012 0.0
C1137 C 0.81411 0.292 0.83211 0.0
N1138 N 0.76505 0.27922 0.8638 0.0
N1139 N 0.89604 0.34523 0.85567 0.0
C1140 C 0.7974 0.29219 0.8638 0.0
C1141 C 0.86444 0.32596 0.85903 0.0
N1142 N 0.79982 0.30353 0.92742 0.0
N1143 N 0.86326 0.30464 0.80094 0.0
H1144 H 0.90878 0.35869 0.87655 0.0
H1145 H 0.90908 0.34945 0.83158 0.0
H1146 H 0.85136 0.29127 0.77962 0.0
H1147 H 0.88779 0.31329 0.79911 0.0
H1148 H 0.7761 0.28864 0.9327 0.0
H1149 H 0.81202 0.3141 0.95034 0.0
H1150 H 0.75136 0.28082 0.88472 0.0
H1151 H 0.75192 0.26869 0.84139 0.0
C1152 C 0.49408 0.28446 0.36929 0.0
C1153 C 0.51315 0.31546 0.36785 0.0
C1154 C 0.53527 0.31284 0.30869 0.0
C1155 C 0.51445 0.28204 0.30899 0.0
N1156 N 0.47037 0.23913 0.33691 0.0
N1157 N 0.54789 0.36005 0.33418 0.0
C1158 C 0.49263 0.26806 0.33844 0.0
C1159 C 0.53272 0.32993 0.33697 0.0
N1160 N 0.47856 0.27058 0.40094 0.0
N1161 N 0.55768 0.32566 0.28162 0.0
H1162 H 0.54592 0.373 0.35417 0.0
H1163 H 0.56016 0.37215 0.31096 0.0
H1164 H 0.55924 0.31405 0.25973 0.0
H1165 H 0.57585 0.34728 0.28191 0.0
H1166 H 0.46698 0.24775 0.40528 0.0
H1167 H 0.47976 0.28201 0.42419 0.0
H1168 H 0.45172 0.22863 0.35565 0.0
H1169 H 0.46899 0.22608 0.31535 0.0
C1170 C 0.72518 0.22569 0.31155 0.0
C1171 C 0.73645 0.21214 0.28645 0.0
C1172 C 0.7072 0.16478 0.32074 0.0
C1173 C 0.69974 0.17927 0.34811 0.0
N1174 N 0.70407 0.22392 0.37202 0.0
N1175 N 0.74121 0.16916 0.26964 0.0
C1176 C 0.7092 0.20983 0.34405 0.0
C1177 C 0.72796 0.18165 0.29141 0.0
N1178 N 0.72907 0.25348 0.30382 0.0
N1179 N 0.69405 0.13471 0.32282 0.0
H1180 H 0.75685 0.18059 0.24819 0.0
H1181 H 0.73877 0.14806 0.2746 0.0
H1182 H 0.67889 0.12202 0.34416 0.0
H1183 H 0.69581 0.12232 0.30202 0.0
H1184 H 0.71885 0.26353 0.31931 0.0
H1185 H 0.73998 0.26544 0.27989 0.0
H1186 H 0.71343 0.24676 0.37254 0.0
H1187 H 0.69243 0.21286 0.39609 0.0
C1188 C 0.85107 0.50304 0.3482 0.0
C1189 C 0.85335 0.51317 0.38408 0.0
C1190 C 0.81759 0.53371 0.36786 0.0
C1191 C 0.81907 0.52749 0.33088 0.0
N1192 N 0.84182 0.51034 0.28494 0.0
N1193 N 0.84444 0.54442 0.42502 0.0
C1194 C 0.83707 0.51325 0.32074 0.0
C1195 C 0.83822 0.5303 0.39304 0.0
N1196 N 0.86075 0.48258 0.34052 0.0
N1197 N 0.7955 0.54164 0.37947 0.0
H1198 H 0.86065 0.54383 0.44353 0.0
H1199 H 0.83627 0.55943 0.43117 0.0
H1200 H 0.77861 0.54278 0.36252 0.0
H1201 H 0.79155 0.54363 0.40677 0.0
H1202 H 0.85648 0.47222 0.31589 0.0
H1203 H 0.87009 0.47365 0.35981 0.0
H1204 H 0.85755 0.50299 0.27596 0.0
H1205 H 0.83231 0.51778 0.26406 0.0
C1206 C 0.6678 0.17816 0.91249 0.0
C1207 C 0.63453 0.16484 0.90751 0.0
C1208 C 0.64315 0.17163 0.8412 0.0
C1209 C 0.67625 0.18338 0.84615 0.0
N1210 N 0.72045 0.19558 0.88546 0.0
N1211 N 0.58995 0.14691 0.86734 0.0
C1212 C 0.68868 0.18601 0.88156 0.0
C1213 C 0.62207 0.16095 0.87189 0.0
N1214 N 0.67937 0.18347 0.94679 0.0
N1215 N 0.63197 0.17164 0.80707 0.0
H1216 H 0.57352 0.14114 0.88865 0.0
H1217 H 0.57928 0.13971 0.84257 0.0
H1218 H 0.64643 0.17788 0.7838 0.0
H1219 H 0.60876 0.1671 0.80169 0.0
H1220 H 0.70326 0.19578 0.95255 0.0
H1221 H 0.66475 0.17696 0.96994 0.0
H1222 H 0.73106 0.19567 0.91008 0.0
H1223 H 0.73624 0.20166 0.86342 0.0
C1224 C 0.89006 0.50263 0.93423 0.0
C1225 C 0.86676 0.47262 0.94003 0.0
C1226 C 0.84117 0.47586 0.88354 0.0
C1227 C 0.86295 0.5063 0.8794 0.0
N1228 N 0.9035 0.55014 0.9046 0.0
N1229 N 0.81634 0.43261 0.92423 0.0
C1230 C 0.88593 0.52012 0.90604 0.0
C1231 C 0.84112 0.45982 0.91587 0.0
N1232 N 0.91719 0.51402 0.95388 0.0
N1233 N 0.8216 0.46194 0.85579 0.0
H1234 H 0.81518 0.42053 0.94806 0.0
H1235 H 0.79561 0.42334 0.90942 0.0
H1236 H 0.82168 0.47289 0.8314 0.0
H1237 H 0.80747 0.43916 0.85562 0.0
H1238 H 0.93633 0.53471 0.94799 0.0
H1239 H 0.92209 0.50189 0.97378 0.0
H1240 H 0.9185 0.56188 0.9252 0.0
H1241 H 0.90065 0.56344 0.88442 0.0
C1242 C 0.57161 0.43494 0.90722 0.0
C1243 C 0.57839 0.421 0.93752 0.0
C1244 C 0.55006 0.37325 0.90888 0.0
C1245 C 0.54724 0.38791 0.87685 0.0
N1246 N 0.56085 0.43327 0.84301 0.0
N1247 N 0.57645 0.37713 0.96611 0.0
C1248 C 0.55944 0.41892 0.8754 0.0
C1249 C 0.56841 0.3902 0.93796 0.0
N1250 N 0.57649 0.46335 0.90864 0.0
N1251 N 0.53397 0.34316 0.91214 0.0
H1252 H 0.58817 0.38846 0.98885 0.0
H1253 H 0.57307 0.35554 0.96597 0.0
H1254 H 0.51939 0.33027 0.8919 0.0
H1255 H 0.5326 0.33119 0.93606 0.0
H1256 H 0.5689 0.47335 0.88864 0.0
H1257 H 0.58518 0.47611 0.93121 0.0
H1258 H 0.57256 0.45617 0.83932 0.0
H1259 H 0.55328 0.42226 0.81892 0.0
C1260 C 0.51075 0.68634 0.68724 0.0
C1261 C 0.52548 0.66791 0.68826 0.0
C1262 C 0.54746 0.6864 0.74745 0.0
C1263 C 0.52957 0.702 0.74823 0.0
N1264 N 0.48994 0.71295 0.72183 0.0
N1265 N 0.55499 0.64754 0.72046 0.0
C1266 C 0.51013 0.70105 0.71881 0.0
C1267 C 0.54325 0.66727 0.71865 0.0
N1268 N 0.49804 0.69024 0.65569 0.0
N1269 N 0.569 0.69055 0.77383 0.0
H1270 H 0.55211 0.63326 0.69973 0.0
H1271 H 0.56546 0.64383 0.74345 0.0
H1272 H 0.57271 0.70475 0.79491 0.0
H1273 H 0.58493 0.68196 0.77316 0.0
H1274 H 0.4895 0.70551 0.65215 0.0
H1275 H 0.49902 0.68029 0.63191 0.0
H1276 H 0.47304 0.71057 0.7026 0.0
H1277 H 0.48803 0.72284 0.74522 0.0
C1278 C 0.31062 0.8285 0.70949 0.0
C1279 C 0.33406 0.82068 0.69837 0.0
C1280 C 0.30665 0.77397 0.73447 0.0
C1281 C 0.28509 0.78326 0.74823 0.0
N1282 N 0.27173 0.82281 0.75546 0.0
N1283 N 0.3582 0.78867 0.70697 0.0
C1284 C 0.28866 0.8116 0.73773 0.0
C1285 C 0.33321 0.79418 0.71279 0.0
N1286 N 0.30837 0.8513 0.69185 0.0
N1287 N 0.30105 0.74546 0.74042 0.0
H1288 H 0.37827 0.80291 0.69179 0.0
H1289 H 0.36033 0.77137 0.72013 0.0
H1290 H 0.28167 0.72976 0.75556 0.0
H1291 H 0.31404 0.73668 0.72757 0.0
H1292 H 0.28983 0.85624 0.69648 0.0
H1293 H 0.32306 0.86321 0.66984 0.0
H1294 H 0.27558 0.84444 0.75116 0.0
H1295 H 0.25634 0.8116 0.77727 0.0
C1296 C 0.19268 0.53522 0.72784 0.0
C1297 C 0.1899 0.51807 0.69745 0.0
C1298 C 0.2203 0.49686 0.72841 0.0
C1299 C 0.22592 0.51614 0.75753 0.0
N1300 N 0.22055 0.55632 0.78295 0.0
N1301 N 0.20758 0.48856 0.66501 0.0
C1302 C 0.21324 0.53633 0.75648 0.0
C1303 C 0.20566 0.50066 0.69669 0.0
N1304 N 0.17445 0.54921 0.73009 0.0
N1305 N 0.22814 0.4744 0.73101 0.0
H1306 H 0.1979 0.49179 0.64099 0.0
H1307 H 0.22165 0.47819 0.66158 0.0
H1308 H 0.23837 0.46997 0.75362 0.0
H1309 H 0.22144 0.45809 0.71203 0.0
H1310 H 0.17294 0.55977 0.75302 0.0
H1311 H 0.15865 0.54802 0.70999 0.0
H1312 H 0.21484 0.57362 0.78161 0.0
H1313 H 0.23408 0.5567 0.80529 0.0
C1314 C 0.40429 0.86216 0.16491 0.0
C1315 C 0.42411 0.84865 0.17059 0.0
C1316 C 0.40588 0.8368 0.23414 0.0
C1317 C 0.38577 0.84981 0.22824 0.0
N1318 N 0.36062 0.86948 0.1875 0.0
N1319 N 0.43889 0.81761 0.20826 0.0
C1320 C 0.38341 0.86086 0.19335 0.0
C1321 C 0.42318 0.83402 0.20441 0.0
N1322 N 0.40586 0.87661 0.13251 0.0
N1323 N 0.40968 0.82855 0.26864 0.0
H1324 H 0.45242 0.81551 0.18754 0.0
H1325 H 0.43649 0.80408 0.23101 0.0
H1326 H 0.39743 0.8305 0.29094 0.0
H1327 H 0.42668 0.82203 0.27568 0.0
H1328 H 0.39487 0.88981 0.12795 0.0
H1329 H 0.41941 0.8764 0.11041 0.0
H1330 H 0.35541 0.87527 0.16203 0.0
H1331 H 0.34508 0.86856 0.20803 0.0
C1332 C 0.18655 0.59781 0.20442 0.0
C1333 C 0.19373 0.59498 0.1678 0.0
C1334 C 0.19604 0.54939 0.18502 0.0
C1335 C 0.19064 0.55327 0.22166 0.0
N1336 N 0.18593 0.58288 0.2677 0.0
N1337 N 0.20976 0.57079 0.12367 0.0
C1338 C 0.18758 0.57812 0.23177 0.0
C1339 C 0.20001 0.57163 0.15824 0.0
N1340 N 0.17755 0.6186 0.21289 0.0
N1341 N 0.19606 0.52384 0.17586 0.0
H1342 H 0.21225 0.58647 0.10337 0.0
H1343 H 0.21757 0.55594 0.11574 0.0
H1344 H 0.19299 0.50727 0.19512 0.0
H1345 H 0.19686 0.51811 0.14927 0.0
H1346 H 0.16862 0.61963 0.23824 0.0
H1347 H 0.17673 0.63359 0.19378 0.0
H1348 H 0.1871 0.60221 0.27729 0.0
H1349 H 0.18587 0.56831 0.28822 0.0
C1350 C 0.53495 0.65391 0.23814 0.0
C1351 C 0.53366 0.68009 0.24635 0.0
C1352 C 0.49495 0.67118 0.19865 0.0
C1353 C 0.49812 0.6463 0.18851 0.0
N1354 N 0.52496 0.61666 0.1941 0.0
N1355 N 0.51795 0.71718 0.22979 0.0
C1356 C 0.5192 0.63835 0.20707 0.0
C1357 C 0.5152 0.68976 0.22524 0.0
N1358 N 0.55047 0.64354 0.26075 0.0
N1359 N 0.47177 0.67639 0.18369 0.0
H1360 H 0.53353 0.73174 0.24812 0.0
H1361 H 0.50727 0.7266 0.21301 0.0
H1362 H 0.45607 0.66266 0.1648 0.0
H1363 H 0.46621 0.69254 0.19246 0.0
H1364 H 0.54971 0.62304 0.25841 0.0
H1365 H 0.56218 0.65461 0.28364 0.0
H1366 H 0.54229 0.61163 0.20429 0.0
H1367 H 0.51417 0.60536 0.171 0.0
C1368 C 0.17031 0.65046 0.64955 0.0
C1369 C 0.15049 0.61957 0.65429 0.0
C1370 C 0.14419 0.62495 0.7193 0.0
C1371 C 0.16397 0.65572 0.71462 0.0
N1372 N 0.19915 0.6979 0.6776 0.0
N1373 N 0.12313 0.57645 0.69412 0.0
C1374 C 0.17819 0.66848 0.68037 0.0
C1375 C 0.13875 0.60654 0.68937 0.0
N1376 N 0.18051 0.66256 0.61542 0.0
N1377 N 0.13024 0.61357 0.75248 0.0
H1378 H 0.1193 0.56224 0.67301 0.0
H1379 H 0.11616 0.5653 0.71925 0.0
H1380 H 0.13524 0.62639 0.77523 0.0
H1381 H 0.11266 0.59194 0.75733 0.0
H1382 H 0.19249 0.68513 0.60922 0.0
H1383 H 0.17564 0.64981 0.59261 0.0
H1384 H 0.21274 0.70852 0.65447 0.0
H1385 H 0.20428 0.71159 0.69951 0.0
C1386 C 0.33973 0.48911 0.68509 0.0
C1387 C 0.34165 0.50477 0.71649 0.0
C1388 C 0.37292 0.55147 0.68214 0.0
C1389 C 0.37496 0.53572 0.6522 0.0
N1390 N 0.36517 0.4886 0.62878 0.0
N1391 N 0.36474 0.55061 0.74703 0.0
C1392 C 0.35947 0.50423 0.65441 0.0
C1393 C 0.35949 0.53594 0.71559 0.0
N1394 N 0.31856 0.45983 0.6844 0.0
N1395 N 0.38309 0.58117 0.67838 0.0
H1396 H 0.35622 0.53975 0.77218 0.0
H1397 H 0.38016 0.57307 0.74864 0.0
H1398 H 0.39191 0.5931 0.65387 0.0
H1399 H 0.3796 0.59328 0.69835 0.0
H1400 H 0.31372 0.44787 0.66094 0.0
H1401 H 0.30366 0.44829 0.70644 0.0
H1402 H 0.35691 0.46587 0.63141 0.0
H1403 H 0.3808 0.49831 0.60685 0.0
C1404 C 0.4968 0.80268 0.70324 0.0
C1405 C 0.49268 0.80733 0.74012 0.0
C1406 C 0.4583 0.82898 0.72195 0.0
C1407 C 0.46507 0.82726 0.68474 0.0
N1408 N 0.49517 0.81673 0.64017 0.0
N1409 N 0.47293 0.82814 0.78473 0.0
C1410 C 0.48531 0.81502 0.67535 0.0
C1411 C 0.47444 0.82146 0.74947 0.0
N1412 N 0.51147 0.78621 0.69484 0.0
N1413 N 0.43548 0.83676 0.73113 0.0
H1414 H 0.48375 0.82233 0.80581 0.0
H1415 H 0.4632 0.84153 0.79272 0.0
H1416 H 0.42283 0.84231 0.71212 0.0
H1417 H 0.42683 0.83502 0.7575 0.0
H1418 H 0.51179 0.77893 0.66894 0.0
H1419 H 0.52145 0.77803 0.71436 0.0
H1420 H 0.51271 0.81127 0.63234 0.0
H1421 H 0.4879 0.82596 0.61897 0.0
C1422 C 0.32522 0.51724 0.25798 0.0
C1423 C 0.29481 0.51257 0.24667 0.0
C1424 C 0.31556 0.52809 0.18421 0.0
C1425 C 0.34645 0.53529 0.19608 0.0
N1426 N 0.38191 0.54002 0.24466 0.0
N1427 N 0.26262 0.51916 0.20042 0.0
C1428 C 0.35165 0.53075 0.23312 0.0
C1429 C 0.29042 0.51947 0.21012 0.0
N1430 N 0.32861 0.50773 0.29195 0.0
N1431 N 0.31006 0.52887 0.14792 0.0
H1432 H 0.24378 0.51357 0.21858 0.0
H1433 H 0.25935 0.52725 0.17538 0.0
H1434 H 0.32788 0.53512 0.12807 0.0
H1435 H 0.28744 0.52069 0.13728 0.0
H1436 H 0.34929 0.50755 0.3006 0.0
H1437 H 0.30989 0.49791 0.31079 0.0
H1438 H 0.38778 0.54049 0.27185 0.0
H1439 H 0.40154 0.54906 0.22697 0.0
C1440 C 0.51171 0.79678 0.27599 0.0
C1441 C 0.5369 0.80969 0.30077 0.0
C1442 C 0.56231 0.85362 0.2595 0.0
C1443 C 0.53975 0.83878 0.23287 0.0
N1444 N 0.49562 0.79447 0.2134 0.0
N1445 N 0.58948 0.84905 0.31256 0.0
C1446 C 0.51501 0.80991 0.24054 0.0
C1447 C 0.56299 0.83794 0.29185 0.0
N1448 N 0.48432 0.77233 0.2866 0.0
N1449 N 0.58301 0.88288 0.25384 0.0
H1450 H 0.59206 0.83821 0.33566 0.0
H1451 H 0.61033 0.86788 0.30487 0.0
H1452 H 0.5829 0.89479 0.23036 0.0
H1453 H 0.59801 0.89583 0.27373 0.0
H1454 H 0.46413 0.76355 0.27084 0.0
H1455 H 0.48068 0.76272 0.31273 0.0
H1456 H 0.47919 0.7722 0.2163 0.0
H1457 H 0.49799 0.80327 0.18699 0.0
C1458 C 0.25083 0.76753 0.21705 0.0
C1459 C 0.2419 0.7618 0.25454 0.0
C1460 C 0.19722 0.71411 0.23948 0.0
C1461 C 0.20389 0.72187 0.2021 0.0
N1462 N 0.23505 0.7565 0.15462 0.0
N1463 N 0.20474 0.73051 0.30127 0.0
C1464 C 0.23032 0.74864 0.19073 0.0
C1465 C 0.21483 0.73507 0.26585 0.0
N1466 N 0.27935 0.7907 0.2066 0.0
N1467 N 0.174 0.68654 0.24957 0.0
H1468 H 0.21671 0.74531 0.32129 0.0
H1469 H 0.18329 0.71309 0.31046 0.0
H1470 H 0.16054 0.67119 0.23064 0.0
H1471 H 0.16979 0.6781 0.27623 0.0
H1472 H 0.28874 0.79419 0.18034 0.0
H1473 H 0.29512 0.80506 0.22482 0.0
H1474 H 0.25155 0.7773 0.14449 0.0
H1475 H 0.22078 0.74276 0.13476 0.0
C1476 C 0.13549 0.17028 0.31483 0.0
C1477 C 0.15391 0.16946 0.34469 0.0
C1478 C 0.17825 0.14649 0.30698 0.0
C1479 C 0.16137 0.14899 0.27677 0.0
N1480 N 0.12819 0.16752 0.24962 0.0
N1481 N 0.19811 0.16295 0.3666 0.0
C1482 C 0.14128 0.16224 0.28006 0.0
C1483 C 0.1768 0.15929 0.34003 0.0
N1484 N 0.11148 0.17732 0.32003 0.0
N1485 N 0.19473 0.13082 0.30443 0.0
H1486 H 0.19853 0.17289 0.39083 0.0
H1487 H 0.21735 0.15883 0.3632 0.0
H1488 H 0.19622 0.12121 0.28056 0.0
H1489 H 0.20462 0.12525 0.32661 0.0
H1490 H 0.09513 0.17534 0.30027 0.0
H1491 H 0.1062 0.18289 0.3451 0.0
H1492 H 0.11577 0.1797 0.24925 0.0
H1493 H 0.13215 0.16178 0.22398 0.0
C1494 C 0.89312 0.03624 0.30759 0.0
C1495 C 0.87925 1.00617 0.3196 0.0
C1496 C 0.88095 0.99273 0.25664 0.0
C1497 C 0.88759 0.02162 0.24427 0.0
N1498 N 0.8989 0.07123 0.25875 0.0
N1499 N 0.86029 0.95514 0.30526 0.0
C1500 C 0.8942 0.04374 0.2699 0.0
C1501 C 0.87398 0.98424 0.29417 0.0
N1502 N 0.90474 0.05759 0.33259 0.0
N1503 N 0.88122 0.97341 0.23228 0.0
H1504 H 0.85575 0.94793 0.33236 0.0
H1505 H 0.85196 0.93796 0.2874 0.0
H1506 H 0.88654 0.97929 0.2048 0.0
H1507 H 0.8794 0.95288 0.23975 0.0
H1508 H 0.91764 0.08003 0.32566 0.0
H1509 H 0.90426 0.05245 0.36029 0.0
H1510 H 0.89972 0.08686 0.27657 0.0
H1511 H 0.89971 0.07795 0.23166 0.0
C1512 C 0.04144 0.85808 0.23331 0.0
C1513 C 1.00929 0.85031 0.22587 0.0
C1514 C 1.00079 0.85792 0.28947 0.0
C1515 C 0.03361 0.86896 0.29549 0.0
N1516 N 0.08618 0.88362 0.27236 0.0
N1517 N 0.95908 0.84621 0.24577 0.0
C1518 C 0.05421 0.87005 0.26721 0.0
C1519 C 0.98902 0.85091 0.25375 0.0
N1520 N 0.05947 0.85294 0.20857 0.0
N1521 N 0.98089 0.85371 0.31823 0.0
H1522 H 0.94977 0.84152 0.21988 0.0
H1523 H 0.94437 0.84937 0.26401 0.0
H1524 H 0.98907 0.85864 0.34458 0.0
H1525 H 0.95628 0.84305 0.31661 0.0
H1526 H 0.08194 0.8553 0.21401 0.0
H1527 H 0.05086 0.84353 0.18381 0.0
H1528 H 0.10279 0.8881 0.25158 0.0
H1529 H 0.09624 0.89268 0.29685 0.0
C1530 C 0.89943 0.8817 0.76291 0.0
C1531 C 0.88699 0.85208 0.75202 0.0
C1532 C 0.84657 0.83598 0.8009 0.0
C1533 C 0.85692 0.8658 0.80958 0.0
N1534 N 0.89136 0.91752 0.79712 0.0
N1535 N 0.84467 0.80198 0.75609 0.0
C1536 C 0.88297 0.88884 0.79018 0.0
C1537 C 0.85951 0.82948 0.76987 0.0
N1538 N 0.92745 0.9028 0.74795 0.0
N1539 N 0.82494 0.81364 0.82304 0.0
H1540 H 0.85274 0.79642 0.73287 0.0
H1541 H 0.82261 0.78559 0.76542 0.0
H1542 H 0.81495 0.81732 0.84619 0.0
H1543 H 0.81922 0.79155 0.82052 0.0
H1544 H 0.93961 0.92412 0.75716 0.0
H1545 H 0.9398 0.89833 0.72782 0.0
H1546 H 0.90781 0.93548 0.78147 0.0
H1547 H 0.88026 0.92333 0.81736 0.0
C1548 C 0.21311 0.05536 0.78385 0.0
C1549 C 0.19694 0.04149 0.75225 0.0
C1550 C 0.15894 0.99871 0.78919 0.0
C1551 C 0.1764 0.01178 0.82061 0.0
N1552 N 0.21197 0.05614 0.84954 0.0
N1553 N 0.1489 1.00559 0.72599 0.0
C1554 C 0.20069 0.04146 0.81838 0.0
C1555 C 0.16791 0.015 0.75541 0.0
N1556 N 0.24141 0.08058 0.78094 0.0
N1557 N 0.13528 0.97022 0.79079 0.0
H1558 H 0.15482 0.01739 0.7011 0.0
H1559 H 0.12603 0.98799 0.72722 0.0
H1560 H 0.12644 0.95776 0.81482 0.0
H1561 H 0.12518 0.95833 0.76787 0.0
H1562 H 0.25608 0.08963 0.80284 0.0
H1563 H 0.25136 0.09152 0.75625 0.0
H1564 H 0.22782 0.07858 0.84991 0.0
H1565 H 0.20276 0.04637 0.87506 0.0
C1566 C 0.02841 0.13611 0.76293 0.0
C1567 C 0.99523 0.12654 0.76062 0.0
C1568 C 0.99343 0.13178 0.82655 0.0
C1569 C 0.02549 0.13713 0.82943 0.0
N1570 N 0.07084 0.13735 0.79991 0.0
N1571 N 0.94505 0.10922 0.79244 0.0
C1572 C 0.0422 0.13722 0.79747 0.0
C1573 C 0.9774 0.1226 0.79309 0.0
N1574 N 0.04733 0.14581 0.73243 0.0
N1575 N 0.97863 0.13706 0.85496 0.0
H1576 H 0.93231 0.10124 0.76891 0.0
H1577 H 0.93089 0.10323 0.81591 0.0
H1578 H 0.98987 0.14575 0.87906 0.0
H1579 H 0.9564 0.13617 0.85294 0.0
H1580 H 0.072 0.1556 0.73325 0.0
H1581 H 0.03892 0.14746 0.70687 0.0
H1582 H 0.08252 0.13463 0.77761 0.0
H1583 H 0.08117 0.13675 0.82459 0.0
C1584 C 0.84313 0.50002 0.67582 0.0
C1585 C 0.82042 0.51005 0.6826 0.0
C1586 C 0.80723 0.50564 0.61796 0.0
C1587 C 0.82669 0.49197 0.61253 0.0
N1588 N 0.85958 0.47205 0.63733 0.0
N1589 N 0.77781 0.51894 0.66069 0.0
C1590 C 0.84379 0.48816 0.64173 0.0
C1591 C 0.80178 0.51218 0.65373 0.0
N1592 N 0.86495 0.50288 0.70142 0.0
N1593 N 0.79446 0.51284 0.58862 0.0
H1594 H 0.77261 0.52329 0.68652 0.0
H1595 H 0.76134 0.51776 0.64149 0.0
H1596 H 0.79843 0.50854 0.56221 0.0
H1597 H 0.78254 0.52541 0.59007 0.0
H1598 H 0.88395 0.49865 0.69662 0.0
H1599 H 0.8661 0.51245 0.72619 0.0
H1600 H 0.86963 0.4657 0.65868 0.0
H1601 H 0.8602 0.46279 0.61285 0.0
C1602 C 0.50732 0.33558 0.63603 0.0
C1603 C 0.52991 0.34515 0.66406 0.0
C1604 C 0.5713 0.3757 0.61876 0.0
C1605 C 0.54779 0.36961 0.59211 0.0
N1606 N 0.4922 0.34723 0.57755 0.0
N1607 N 0.58316 0.37738 0.68275 0.0
C1608 C 0.51548 0.35027 0.60119 0.0
C1609 C 0.56196 0.36583 0.65558 0.0
N1610 N 0.47812 0.31193 0.64243 0.0
N1611 N 0.60266 0.39038 0.60873 0.0
H1612 H 0.57734 0.37109 0.71001 0.0
H1613 H 0.60579 0.395 0.6786 0.0
H1614 H 0.61033 0.39746 0.582 0.0
H1615 H 0.62087 0.39291 0.6261 0.0
H1616 H 0.46186 0.30206 0.62207 0.0
H1617 H 0.47146 0.30021 0.6673 0.0
H1618 H 0.46814 0.33608 0.5845 0.0
H1619 H 0.49673 0.35819 0.55221 0.0
C1620 C 0.68851 0.17968 0.5598 0.0
C1621 C 0.65548 0.16748 0.55294 0.0
C1622 C 0.64527 0.16633 0.61856 0.0
C1623 C 0.67829 0.18236 0.62445 0.0
N1624 N 0.73142 0.20821 0.59983 0.0
N1625 N 0.60253 0.1528 0.57595 0.0
C1626 C 0.69996 0.18997 0.59485 0.0
C1627 C 0.63379 0.16151 0.58243 0.0
N1628 N 0.70891 0.18043 0.53326 0.0
N1629 N 0.62492 0.15531 0.64774 0.0
H1630 H 0.59325 0.14983 0.55 0.0
H1631 H 0.58633 0.15112 0.59601 0.0
H1632 H 0.63285 0.1582 0.67434 0.0
H1633 H 0.60079 0.14103 0.6456 0.0
H1634 H 0.73266 0.1864 0.5378 0.0
H1635 H 0.70144 0.17206 0.50774 0.0
H1636 H 0.74795 0.21723 0.57853 0.0
H1637 H 0.74053 0.21646 0.62496 0.0
C1638 C 0.56914 0.2125 0.09514 0.0
C1639 C 0.57293 0.18656 0.09596 0.0
C1640 C 0.55276 0.17616 0.15894 0.0
C1641 C 0.54313 0.19848 0.15553 0.0
N1642 N 0.54029 0.23693 0.11826 0.0
N1643 N 0.56321 0.14087 0.12779 0.0
C1644 C 0.55121 0.21674 0.12326 0.0
C1645 C 0.56379 0.16779 0.12781 0.0
N1646 N 0.58311 0.23335 0.06773 0.0
N1647 N 0.55149 0.16298 0.19218 0.0
H1648 H 0.56935 0.13281 0.10527 0.0
H1649 H 0.55341 0.12515 0.14905 0.0
H1650 H 0.54436 0.1692 0.21568 0.0
H1651 H 0.56084 0.14844 0.19695 0.0
H1652 H 0.58379 0.25397 0.06743 0.0
H1653 H 0.5969 0.23123 0.04721 0.0
H1654 H 0.54207 0.24808 0.09351 0.0
H1655 H 0.52743 0.24114 0.1379 0.0
C1656 C 0.8379 0.37639 0.11087 0.0
C1657 C 0.82918 0.35974 0.07917 0.0
C1658 C 0.80136 0.31436 0.1176 0.0
C1659 C 0.81432 0.33059 0.14905 0.0
N1660 N 0.85115 0.37707 0.17405 0.0
N1661 N 0.80794 0.31166 0.05315 0.0
C1662 C 0.83414 0.36167 0.14536 0.0
C1663 C 0.81214 0.32836 0.08266 0.0
N1664 N 0.84916 0.40629 0.10825 0.0
N1665 N 0.77825 0.28568 0.12099 0.0
H1666 H 0.81699 0.32061 1.02737 0.0
H1667 H 0.7985 0.28876 0.05505 0.0
H1668 H 0.76917 0.27491 0.14606 0.0
H1669 H 0.7658 0.27372 0.09898 0.0
H1670 H 0.85301 0.4191 0.13081 0.0
H1671 H 0.85131 0.41778 0.08364 0.0
H1672 H 0.86836 0.39911 0.17157 0.0
H1673 H 0.85082 0.36727 0.19935 0.0
C1674 C 0.70258 0.48821 0.10273 0.0
C1675 C 0.669 0.47555 0.10003 0.0
C1676 C 0.66459 0.47406 0.16652 0.0
C1677 C 0.69772 0.48354 0.16926 0.0
N1678 N 0.74674 0.49301 0.13932 0.0
N1679 N 0.6178 0.44987 0.1302 0.0
C1680 C 0.71626 0.4886 0.13715 0.0
C1681 C 0.64993 0.46648 0.1322 0.0
N1682 N 0.72173 0.5015 0.07297 0.0
N1683 N 0.64724 0.47391 0.1961 0.0
H1684 H 0.60621 0.443 0.10574 0.0
H1685 H 0.60312 0.44024 0.15298 0.0
H1686 H 0.65701 0.48078 0.22138 0.0
H1687 H 0.62383 0.4701 0.19455 0.0
H1688 H 0.7463 0.51368 0.07441 0.0
H1689 H 0.71316 0.50322 0.04756 0.0
H1690 H 0.76027 0.49387 0.11666 0.0
H1691 H 0.75734 0.49262 0.16388 0.0
C1692 C 0.53096 0.826 1.01685 0.0
C1693 C 0.50781 0.83503 1.02575 0.0
C1694 C 0.48939 0.82721 0.963 0.0
C1695 C 0.50956 0.8146 0.95574 0.0
N1696 N 0.54599 0.7976 0.97737 0.0
N1697 N 0.4617 0.84008 1.00842 0.0
C1698 C 0.52948 0.81288 0.98309 0.0
C1699 C 0.48621 0.8347 0.99904 0.0
N1700 N 0.55518 0.83104 1.03994 0.0
N1701 N 0.47383 0.83263 0.93509 0.0
H1702 H 0.45797 0.84485 1.03466 0.0
H1703 H 0.44339 0.83715 0.99102 0.0
H1704 H 0.47627 0.82784 0.9084 0.0
H1705 H 0.46111 0.84438 0.93777 0.0
H1706 H 0.5744 0.82763 1.03321 0.0
H1707 H 0.55786 0.84154 0.06431 0.0
H1708 H 0.55833 0.79288 0.99764 0.0
H1709 H 0.545 0.78728 0.95324 0.0
C1710 C 0.21398 0.65873 0.93521 0.0
C1711 C 0.19385 0.669 0.91873 0.0
C1712 C 0.16207 0.65667 0.9752 0.0
C1713 C 0.1837 0.64883 0.99279 0.0
N1714 N 0.23301 0.64654 0.99111 0.0
N1715 N 0.15366 0.68473 0.92646 0.0
C1716 C 0.21047 0.651 0.9732 0.0
C1717 C 0.16935 0.67 0.93973 0.0
N1718 N 0.23564 0.6553 0.91436 0.0
N1719 N 0.13361 0.65 0.99151 0.0
H1720 H 0.15843 0.69549 0.901 0.0
H1721 H 0.13823 0.68898 0.94226 0.0
H1722 H 0.1266 0.63943 1.017 0.0
H1723 H 0.1155 0.65212 0.97813 0.0
H1724 H 0.24864 0.64493 0.92384 0.0
H1725 H 0.23885 0.66079 0.88664 0.0
H1726 H 0.25464 0.65071 0.97933 0.0
H1727 H 0.23125 0.64099 1.01879 0.0
C1728 C 0.3507 0.55419 0.95941 0.0
C1729 C 0.3427 0.53861 0.9935 0.0
C1730 C 0.29702 0.49798 0.96635 0.0
C1731 C 0.30237 0.51536 0.93364 0.0
N1732 N 0.33225 0.56212 0.90094 0.0
N1733 N 0.30505 0.49799 1.03113 0.0
C1734 C 0.3288 0.54403 0.93056 0.0
C1735 C 0.31501 0.51106 0.99744 0.0
N1736 N 0.37963 0.57841 0.95451 0.0
N1737 N 0.27577 0.4686 0.9674 0.0
H1738 H 0.31716 0.50734 0.05459 0.0
H1739 H 0.28324 0.4794 1.03611 0.0
H1740 H 0.26323 0.4577 0.94484 0.0
H1741 H 0.27321 0.45438 0.98951 0.0
H1742 H 0.38825 0.58921 0.92939 0.0
H1743 H 0.39629 0.58587 0.975 0.0
H1744 H 0.34922 0.58425 0.89897 0.0
H1745 H 0.31633 0.55588 0.8797 0.0
C1746 C 0.16656 0.5398 0.45728 0.0
C1747 C 0.17554 0.5309 0.49028 0.0
C1748 C 0.20355 0.50943 0.45581 0.0
C1749 C 0.19428 0.51805 0.4229 0.0
N1750 N 0.17439 0.54794 0.39194 0.0
N1751 N 0.20927 0.51439 0.52098 0.0
C1752 C 0.17822 0.53542 0.42361 0.0
C1753 C 0.19624 0.51801 0.48947 0.0
N1754 N 0.14533 0.55072 0.45788 0.0
N1755 N 0.21779 0.49167 0.45508 0.0
H1756 H 0.20473 0.52086 0.54587 0.0
H1757 H 0.2268 0.50771 0.52201 0.0
H1758 H 0.22411 0.4855 0.43103 0.0
H1759 H 0.2216 0.48158 0.47817 0.0
H1760 H 0.1348 0.55412 0.43475 0.0
H1761 H 0.13651 0.5546 0.48178 0.0
H1762 H 0.16565 0.56315 0.39075 0.0
H1763 H 0.18288 0.54527 0.36699 0.0
C1764 C 0.45419 0.66298 0.50015 0.0
C1765 C 0.47074 0.64675 0.50933 0.0
C1766 C 0.50864 0.67213 0.45883 0.0
C1767 C 0.49226 0.68863 0.44982 0.0
N1768 N 0.44564 0.69497 0.45623 0.0
N1769 N 0.50965 0.63127 0.49284 0.0
C1770 C 0.46383 0.68255 0.46883 0.0
C1771 C 0.49638 0.64961 0.48694 0.0
N1772 N 0.42952 0.65998 0.52184 0.0
N1773 N 0.53732 0.67938 0.44263 0.0
H1774 H 0.50355 0.61607 0.51463 0.0
H1775 H 0.5252 0.62949 0.47448 0.0
H1776 H 0.54737 0.69501 0.42142 0.0
H1777 H 0.55261 0.67142 0.45191 0.0
H1778 H 0.41899 0.67374 0.51968 0.0
H1779 H 0.42027 0.64423 0.5432 0.0
H1780 H 0.42317 0.68951 0.46656 0.0
H1781 H 0.45186 0.70897 0.43308 0.0
C1782 C 0.32936 0.81725 0.50798 0.0
C1783 C 0.36199 0.82463 0.50646 0.0
C1784 C 0.35557 0.80928 0.44318 0.0
C1785 C 0.32442 0.80648 0.44317 0.0
N1786 N 0.28399 0.81332 0.47474 0.0
N1787 N 0.40729 0.83075 0.47087 0.0
C1788 C 0.31179 0.81167 0.47545 0.0
C1789 C 0.37538 0.8212 0.47367 0.0
N1790 N 0.31492 0.81508 0.54076 0.0
N1791 N 0.36599 0.79989 0.4144 0.0
H1792 H 0.42258 0.83956 0.49236 0.0
H1793 H 0.41895 0.83206 0.44646 0.0
H1794 H 0.352 0.79055 0.39205 0.0
H1795 H 0.38718 0.79864 0.4143 0.0
H1796 H 0.29052 0.807 0.54398 0.0
H1797 H 0.32682 0.81827 0.56521 0.0
H1798 H 0.27558 0.82023 0.49653 0.0
H1799 H 0.27093 0.81088 0.45136 0.0
C1800 C 0.32861 0.19666 0.1574 0.0
C1801 C 0.30536 0.16714 0.1656 0.0
C1802 C 0.3458 0.15633 0.19349 0.0
C1803 C 0.36919 0.18554 0.18449 0.0
N1804 N 0.38279 0.23519 0.16517 0.0
N1805 N 0.28982 0.12136 0.19962 0.0
C1806 C 0.3604 0.20629 0.16891 0.0
C1807 C 0.31338 0.1478 0.1864 0.0
N1808 N 0.32057 0.21496 0.13723 0.0
N1809 N 0.35491 0.13631 0.20685 0.0
H1810 H 0.26588 0.11475 0.19525 0.0
H1811 H 0.29366 0.1073 0.21763 0.0
H1812 H 0.37842 0.14206 0.21271 0.0
H1813 H 0.33966 0.11378 0.21003 0.0
H1814 H 0.3369 0.23573 0.1269 0.0
H1815 H 0.29735 0.20871 0.12942 0.0
H1816 H 0.37794 0.25221 0.15662 0.0
H1817 H 0.40606 0.2424 0.17353 0.0
C1818 C 0.84267 0.18249 0.17062 0.0
C1819 C 0.8558 0.19508 0.20398 0.0
C1820 C 0.8678 0.15427 0.21837 0.0
C1821 C 0.85299 0.14085 0.18605 0.0
N1822 N 0.82316 0.13957 0.13332 0.0
N1823 N 0.87721 0.19192 0.26179 0.0
C1824 C 0.83946 0.15425 0.16271 0.0
C1825 C 0.86748 0.18068 0.22845 0.0
N1826 N 0.83448 0.19818 0.14602 0.0
N1827 N 0.88242 0.14174 0.23906 0.0
H1828 H 0.87674 0.21101 0.26985 0.0
H1829 H 0.88348 0.18136 0.28238 0.0
H1830 H 0.88217 0.12198 0.23264 0.0
H1831 H 0.89637 0.15164 0.26116 0.0
H1832 H 0.82747 0.19166 0.11977 0.0
H1833 H 0.83692 0.21902 0.15106 0.0
H1834 H 0.80984 0.14645 0.11705 0.0
H1835 H 0.82141 0.1193 0.12649 0.0
C1836 C 0.85901 0.65482 0.22692 0.0
C1837 C 0.82811 0.6425 0.21269 0.0
C1838 C 0.84686 0.67951 0.1624 0.0
C1839 C 0.87808 0.69074 0.17548 0.0
N1840 N 0.91522 0.68835 0.21746 0.0
N1841 N 0.79232 0.64041 0.16596 0.0
C1842 C 0.88452 0.67819 0.20711 0.0
C1843 C 0.82193 0.65419 0.18015 0.0
N1844 N 0.86353 0.64441 0.2598 0.0
N1845 N 0.84125 0.69359 0.13337 0.0
H1846 H 0.77371 0.62203 0.1788 0.0
H1847 H 0.78656 0.64594 0.14065 0.0
H1848 H 0.85933 0.71179 0.11962 0.0
H1849 H 0.81871 0.68848 0.12418 0.0
H1850 H 0.88479 0.65391 0.2736 0.0
H1851 H 0.84519 0.6271 0.27448 0.0
H1852 H 0.92225 0.67862 0.23832 0.0
H1853 H 0.93413 0.70577 0.20359 0.0
C1854 C 0.16826 0.36906 0.39488 0.0
C1855 C 0.19095 0.38396 0.36673 0.0
C1856 C 0.20992 0.34702 0.37192 0.0
C1857 C 0.18788 0.33263 0.40082 0.0
N1858 N 0.14818 0.33038 0.44262 0.0
N1859 N 0.2351 0.38967 0.32991 0.0
C1860 C 0.16759 0.34381 0.41311 0.0
C1861 C 0.21235 0.37363 0.35568 0.0
N1862 N 0.14702 0.37891 0.4034 0.0
N1863 N 0.22799 0.3347 0.35983 0.0
H1864 H 0.23686 0.40893 0.31733 0.0
H1865 H 0.25323 0.385 0.32221 0.0
H1866 H 0.22686 0.3155 0.37184 0.0
H1867 H 0.24289 0.34242 0.33703 0.0
H1868 H 0.12789 0.36785 0.42136 0.0
H1869 H 0.1478 0.39786 0.39102 0.0
H1870 H 0.13454 0.33853 0.45527 0.0
H1871 H 0.14688 0.31146 0.45572 0.0
C1872 C 0.68686 0.82962 0.40202 0.0
C1873 C 0.65799 0.83118 0.40292 0.0
C1874 C 0.68723 0.88521 0.40294 0.0
C1875 C 0.71611 0.88365 0.40329 0.0
N1876 N 0.74431 0.85514 0.40623 0.0
N1877 N 0.62968 0.85918 0.40867 0.0
C1878 C 0.71614 0.85598 0.40401 0.0
C1879 C 0.6579 0.85869 0.40457 0.0
N1880 N 0.68601 0.80289 0.39774 0.0
N1881 N 0.68816 0.91225 0.40019 0.0
H1882 H 0.60796 0.84 0.40969 0.0
H1883 H 0.62769 0.87817 0.41322 0.0
H1884 H 0.70938 0.9319 0.40068 0.0
H1885 H 0.66835 0.91536 0.39588 0.0
H1886 H 0.70599 0.80003 0.39376 0.0
H1887 H 0.66482 0.78342 0.39575 0.0
H1888 H 0.74622 0.83585 0.41028 0.0
H1889 H 0.76614 0.87414 0.40604 0.0
C1890 C 0.2025 0.85543 0.40427 0.0
C1891 C 0.20395 0.84426 0.37029 0.0
C1892 C 0.1507 0.83754 0.35672 0.0
C1893 C 0.15152 0.85324 0.38791 0.0
N1894 N 0.17852 0.87808 0.44141 0.0
N1895 N 0.18022 0.82409 0.31399 0.0
C1896 C 0.17717 0.86187 0.41223 0.0
C1897 C 0.17797 0.83465 0.34671 0.0
N1898 N 0.22587 0.86033 0.42851 0.0
N1899 N 0.12374 0.82542 0.33685 0.0
H1900 H 0.19956 0.82095 0.30676 0.0
H1901 H 0.16384 0.81967 0.29351 0.0
H1902 H 0.10344 0.82707 0.34395 0.0
H1903 H 0.12045 0.81175 0.31537 0.0
H1904 H 0.22517 0.866 0.45516 0.0
H1905 H 0.24482 0.85621 0.42264 0.0
H1906 H 0.19829 0.88806 0.45763 0.0
H1907 H 0.16048 0.88311 0.44843 0.0
C1908 C 0.67956 0.83195 0.90726 0.0
C1909 C 0.6996 0.8311 0.87953 0.0
C1910 C 0.65668 0.81724 0.83589 0.0
C1911 C 0.63653 0.8183 0.86364 0.0
N1912 N 0.63075 0.83317 0.92319 0.0
N1913 N 0.71037 0.82963 0.81647 0.0
C1914 C 0.64867 0.82778 0.89856 0.0
C1915 C 0.68909 0.82604 0.84344 0.0
N1916 N 0.6896 0.8353 0.9422 0.0
N1917 N 0.64445 0.80593 0.80321 0.0
H1918 H 0.73413 0.83586 0.82166 0.0
H1919 H 0.7053 0.82906 0.78901 0.0
H1920 H 0.62086 0.79893 0.79656 0.0
H1921 H 0.65706 0.80143 0.78352 0.0
H1922 H 0.67499 0.8328 0.96444 0.0
H1923 H 0.71223 0.83875 0.94915 0.0
H1924 H 0.63917 0.84258 0.94797 0.0
H1925 H 0.60826 0.83071 0.9174 0.0
C1926 C 0.2165 0.83979 0.8553 0.0
C1927 C 0.19006 0.81135 0.85896 0.0
C1928 C 0.15407 0.83312 0.86198 0.0
C1929 C 0.18066 0.86153 0.86082 0.0
N1930 N 0.23692 0.89276 0.85972 0.0
N1931 N 0.13431 0.78003 0.86871 0.0
C1932 C 0.21187 0.8651 0.85824 0.0
C1933 C 0.15894 0.80777 0.86305 0.0
N1934 N 0.2459 0.84232 0.84885 0.0
N1935 N 0.1243 0.83064 0.86097 0.0
H1936 H 0.13734 0.76116 0.86827 0.0
H1937 H 0.11132 0.77571 0.87558 0.0
H1938 H 0.12029 0.84898 0.86029 0.0
H1939 H 0.10375 0.81075 0.85855 0.0
H1940 H 0.26598 0.86223 0.8426 0.0
H1941 H 0.24988 0.82403 0.84753 0.0
H1942 H 0.26048 0.89707 0.86112 0.0
H1943 H 0.23393 0.91154 0.86198 0.0
C1944 C 0.19908 0.34944 0.90445 0.0
C1945 C 0.1966 0.36201 0.87059 0.0
C1946 C 0.16532 0.31267 0.84713 0.0
C1947 C 0.1687 0.30014 0.88059 0.0
N1948 N 0.19086 0.30535 0.93979 0.0
N1949 N 0.18003 0.35696 0.8088 0.0
C1950 C 0.18616 0.31823 0.90896 0.0
C1951 C 0.18053 0.34393 0.84157 0.0
N1952 N 0.21327 0.36757 0.93233 0.0
N1953 N 0.14692 0.29439 0.82116 0.0
H1954 H 0.19041 0.37981 0.80451 0.0
H1955 H 0.17094 0.34552 0.78537 0.0
H1956 H 0.13573 0.27146 0.82481 0.0
H1957 H 0.14122 0.30161 0.79695 0.0
H1958 H 0.2134 0.36012 0.95888 0.0
H1959 H 0.22395 0.39053 0.92906 0.0
H1960 H 0.20567 0.31703 0.96049 0.0
H1961 H 0.18097 0.28249 0.94385 0.0
C1962 C 0.89428 0.72268 0.73616 0.0
C1963 C 0.87856 0.72455 0.70445 0.0
C1964 C 0.83947 0.67245 0.71415 0.0
C1965 C 0.85773 0.66976 0.74297 0.0
N1966 N 0.90531 0.69113 0.77771 0.0
N1967 N 0.83818 0.70091 0.66065 0.0
C1968 C 0.88587 0.69464 0.75309 0.0
C1969 C 0.85153 0.69935 0.69279 0.0
N1970 N 0.91693 0.74795 0.75032 0.0
N1971 N 0.81018 0.64968 0.70809 0.0
H1972 H 0.84645 0.72041 0.64477 0.0
H1973 H 0.82048 0.68256 0.64866 0.0
H1974 H 0.8005 0.63007 0.72389 0.0
H1975 H 0.79444 0.65121 0.68967 0.0
H1976 H 0.92737 0.7484 0.7752 0.0
H1977 H 0.92287 0.76882 0.73882 0.0
H1978 H 0.92765 0.70793 0.78373 0.0
H1979 H 0.90045 0.67061 0.78945 0.0
C1980 C 0.37571 0.17595 0.7055 0.0
C1981 C 0.3496 0.18001 0.69438 0.0
C1982 C 0.3741 0.22961 0.71816 0.0
C1983 C 0.39935 0.22492 0.73122 0.0
N1984 N 0.42379 0.19352 0.74031 0.0
N1985 N 0.32162 0.20864 0.69225 0.0
C1986 C 0.40013 0.19806 0.72554 0.0
C1987 C 0.34811 0.2063 0.70143 0.0
N1988 N 0.37715 0.15103 0.69623 0.0
N1989 N 0.3758 0.25683 0.72076 0.0
H1990 H 0.30262 0.19201 0.67936 0.0
H1991 H 0.31746 0.22602 0.69936 0.0
H1992 H 0.39495 0.27433 0.73235 0.0
H1993 H 0.35967 0.26285 0.70916 0.0
H1994 H 0.39691 0.14773 0.69998 0.0
H1995 H 0.3588 0.13398 0.68301 0.0
H1996 H 0.42422 0.17339 0.74077 0.0
H1997 H 0.44254 0.20978 0.7538 0.0
C1998 C 0.82517 0.14864 0.68698 0.0
C1999 C 0.85736 0.16736 0.69461 0.0
C2000 C 0.84168 0.19836 0.72977 0.0
C2001 C 0.81011 0.18222 0.71761 0.0
N2002 N 0.77146 0.14233 0.6838 0.0
N2003 N 0.89712 0.21067 0.72155 0.0
C2004 C 0.80158 0.15708 0.69647 0.0
C2005 C 0.8658 0.1922 0.71599 0.0
N2006 N 0.81743 0.12279 0.67052 0.0
N2007 N 0.84839 0.21925 0.75499 0.0
H2008 H 0.91513 0.2063 0.71232 0.0
H2009 H 0.90537 0.23105 0.73326 0.0
H2010 H 0.83113 0.22391 0.76601 0.0
H2011 H 0.87022 0.23002 0.76744 0.0
H2012 H 0.79424 0.10664 0.66668 0.0
H2013 H 0.83451 0.11648 0.66334 0.0
H2014 H 0.76456 0.12593 0.66498 0.0
H2015 H 0.75355 0.14762 0.69062 0.0
C2016 C 1.01353 0.53873 0.52772 0.0
C2017 C 0.02346 0.51693 0.53415 0.0
C2018 C 0.97559 0.48017 0.50573 0.0
C2019 C 0.9663 0.50235 0.49736 0.0
N2020 N 0.97901 0.55376 0.49478 0.0
N2021 N 1.01794 0.46896 0.52349 0.0
C2022 C 0.98605 0.53199 0.50674 0.0
C2023 C 1.00573 0.48832 0.52109 0.0
N2024 N 0.02981 0.56551 0.54289 0.0
N2025 N 0.95483 0.45108 0.50132 0.0
H2026 H 0.03991 0.4745 0.53496 0.0
H2027 H 1.00785 0.44867 0.51129 0.0
H2028 H 0.93191 0.44381 0.49186 0.0
H2029 H 0.95909 0.4338 0.51039 0.0
H2030 H 0.02201 0.5814 0.54278 0.0
H2031 H 0.0503 0.57107 0.55771 0.0
H2032 H 0.99402 0.57614 0.49771 0.0
H2033 H 0.95923 0.54959 0.4792 0.0
C2034 C 0.52259 0.5049 0.55757 0.0
C2035 C 0.49473 0.50565 0.5458 0.0
C2036 C 0.48849 0.47133 0.49823 0.0
C2037 C 0.5169 0.47131 0.50928 0.0
N2038 N 0.56369 0.49082 0.54522 0.0
N2039 N 0.4527 0.49277 0.5034 0.0
C2040 C 0.53472 0.48886 0.53788 0.0
C2041 C 0.47821 0.48988 0.51546 0.0
N2042 N 0.53697 0.51918 0.58804 0.0
N2043 N 0.47093 0.45271 0.47209 0.0
H2044 H 0.44427 0.50555 0.51637 0.0
H2045 H 0.44101 0.48408 0.47956 0.0
H2046 H 0.47794 0.43874 0.45947 0.0
H2047 H 0.44862 0.44957 0.46447 0.0
H2048 H 0.55535 0.51707 0.60067 0.0
H2049 H 0.52936 0.53223 0.60181 0.0
H2050 H 0.5794 0.50523 0.56349 0.0
H2051 H 0.57306 0.47931 0.53106 0.0
C2052 C 0.54636 0.9855 0.48454 0.0
C2053 C 0.54068 1.00986 0.49003 0.0
C2054 C 0.50092 0.98075 0.53741 0.0
C2055 C 0.50513 0.95586 0.52995 0.0
N2056 N 0.52572 0.93246 0.49027 0.0
N2057 N 0.50744 0.02854 0.51564 0.0
C2058 C 0.52595 0.95764 0.50147 0.0
C2059 C 0.51643 1.00689 0.51476 0.0
N2060 N 0.57223 0.98936 0.46457 0.0
N2061 N 0.48324 0.97984 0.56698 0.0
H2062 H 0.51756 0.04739 0.4985 0.0
H2063 H 0.48797 0.02646 0.53073 0.0
H2064 H 0.47177 0.96108 0.58409 0.0
H2065 H 0.482 0.99829 0.57604 0.0
H2066 H 0.57925 0.97303 0.4624 0.0
H2067 H 0.58856 1.00985 0.45329 0.0
H2068 H 0.53841 0.93192 0.46756 0.0
H2069 H 0.51013 0.91165 0.50148 0.0
C2070 C 0.55579 0.03206 1.01795 0.0
C2071 C 0.54346 0.04786 1.03747 0.0
C2072 C 0.53647 0.01623 0.09184 0.0
C2073 C 0.54692 0.99929 0.07164 0.0
N2074 N 0.56435 0.9889 1.01552 0.0
N2075 N 0.52003 0.05465 0.09148 0.0
C2076 C 0.55606 1.00668 1.03464 0.0
C2077 C 0.53337 0.03992 0.07415 0.0
N2078 N 0.56779 0.04192 0.98367 0.0
N2079 N 0.52995 1.00966 0.12805 0.0
H2080 H 0.51806 0.07233 0.07911 0.0
H2081 H 0.50952 0.04865 0.1172 0.0
H2082 H 0.53136 0.99195 0.14118 0.0
H2083 H 0.52482 0.02243 0.14548 0.0
H2084 H 0.57965 0.03319 0.96862 0.0
H2085 H 0.56766 0.06038 0.97101 0.0
H2086 H 0.56853 0.99113 0.98764 0.0
H2087 H 0.56536 0.97062 1.02748 0.0
C2088 C 1.00714 0.5264 1.01135 0.0
C2089 C 0.9987 0.49868 1.02906 0.0
C2090 C 0.0351 0.52313 0.07818 0.0
C2091 C 0.04223 0.55092 0.0615 0.0
N2092 N 0.03402 0.57996 1.01445 0.0
N2093 N 1.00154 0.46991 0.08024 0.0
C2094 C 0.02796 0.5528 1.02859 0.0
C2095 C 1.01188 0.49686 0.06279 0.0
N2096 N 0.99559 0.52718 0.97772 0.0
N2097 N 0.05126 0.52207 0.10824 0.0
H2098 H 0.98496 0.4504 0.06906 0.0
H2099 H 1.00774 0.46689 0.10647 0.0
H2100 H 0.06817 0.54105 0.12009 0.0
H2101 H 0.04956 0.50267 0.12015 0.0
H2102 H 1.00256 0.54634 0.96159 0.0
H2103 H 0.97998 0.50809 0.96498 0.0
H2104 H 0.02253 0.58328 0.99221 0.0
H2105 H 0.04967 0.59947 1.0264 0.0
C2106 C 0.53249 0.53622 0.07823 0.0
C2107 C 0.53323 0.52537 0.04376 0.0
C2108 C 0.4799 0.51936 1.03198 0.0
C2109 C 0.48096 0.5339 0.06436 0.0
N2110 N 0.50937 0.55845 0.11731 0.0
N2111 N 0.50908 0.50772 0.98674 0.0
C2112 C 0.50735 0.54255 0.08758 0.0
C2113 C 0.50712 0.5169 1.02048 0.0
N2114 N 0.55603 0.54041 0.10194 0.0
N2115 N 0.45266 0.5076 1.01257 0.0
H2116 H 0.52854 0.50529 0.97805 0.0
H2117 H 0.49252 0.50419 0.96669 0.0
H2118 H 0.43237 0.50893 1.02056 0.0
H2119 H 0.44917 0.49447 0.99046 0.0
H2120 H 0.55565 0.54559 0.12888 0.0
H2121 H 0.5748 0.53622 0.09532 0.0
H2122 H 0.52958 0.56839 0.13286 0.0
H2123 H 0.49154 0.56351 0.12526 0.0
loop_
_geom_bond_atom_site_label_1
_geom_bond_atom_site_label_2
_geom_bond_distance
_geom_bond_site_symmetry_2
_ccdc_geom_bond_type
Cu0 N1 1.999 . S
Cu0 O6 1.974 . S
Cu0 N11 1.985 . S
Cu0 O20 1.959 . S
N1 Cu0 1.999 . S
N1 C3 1.263 . S
N1 C5 1.389 . S
N2 C3 1.358 . S
N2 C4 1.400 . S
C3 N1 1.263 . S
C3 N2 1.358 . S
C3 H9 0.930 . S
C4 N2 1.400 . S
C4 C5 1.351 . S
C4 H21 0.930 . S
C5 N1 1.389 . S
C5 C4 1.351 . S
C5 H10 0.930 . S
O6 Cu0 1.974 . S
O6 C16 1.282 . S
C7 O8 1.261 . S
C7 O20 1.251 . S
O8 C7 1.261 . S
H9 C3 0.930 . S
H10 C5 0.930 . S
N11 Cu0 1.985 . S
N11 C13 1.335 . S
N11 C14 1.390 . S
N12 C13 1.345 . S
N12 C15 1.336 . S
C13 N11 1.335 . S
C13 N12 1.345 . S
C13 H18 0.930 . S
C14 N11 1.390 . S
C14 C15 1.346 . S
C14 H19 0.930 . S
C15 N12 1.336 . S
C15 C14 1.346 . S
C15 H22 0.929 . S
C16 O6 1.282 . S
C16 O17 1.216 . S
O17 C16 1.216 . S
H18 C13 0.930 . S
H19 C14 0.930 . S
O20 Cu0 1.959 . S
O20 C7 1.251 . S
H21 C4 0.930 . S
H22 C15 0.929 . S
Cu23 N24 1.999 . S
Cu23 O29 1.974 . S
Cu23 N34 1.985 . S
Cu23 O43 1.959 . S
N24 Cu23 1.999 . S
N24 C26 1.263 . S
N24 C28 1.389 1_545 S
N25 C26 1.358 1_565 S
N25 C27 1.400 . S
C26 N24 1.263 . S
C26 N25 1.358 1_545 S
C26 H32 0.930 . S
C27 N25 1.400 . S
C27 C28 1.351 . S
C27 H44 0.930 . S
C28 N24 1.389 1_565 S
C28 C27 1.351 . S
C28 H33 0.930 . S
O29 Cu23 1.974 . S
O29 C39 1.282 . S
C30 O31 1.261 . S
C30 O43 1.251 . S
O31 C30 1.261 . S
H32 C26 0.930 . S
H33 C28 0.930 . S
N34 Cu23 1.985 . S
N34 C36 1.335 . S
N34 C37 1.390 . S
N35 C36 1.345 . S
N35 C38 1.336 . S
C36 N34 1.335 . S
C36 N35 1.345 . S
C36 H41 0.930 . S
C37 N34 1.390 . S
C37 C38 1.346 . S
C37 H42 0.930 . S
C38 N35 1.336 . S
C38 C37 1.346 . S
C38 H45 0.929 . S
C39 O29 1.282 . S
C39 O40 1.216 . S
O40 C39 1.216 . S
H41 C36 0.930 . S
H42 C37 0.930 . S
O43 Cu23 1.959 . S
O43 C30 1.251 . S
H44 C27 0.930 . S
H45 C38 0.929 . S
Cu46 N47 1.999 . S
Cu46 O52 1.974 . S
Cu46 N57 1.985 . S
Cu46 O66 1.959 . S
N47 Cu46 1.999 . S
N47 C49 1.263 . S
N47 C51 1.389 1_655 S
N48 C49 1.358 1_455 S
N48 C50 1.400 . S
C49 N47 1.263 . S
C49 N48 1.358 1_655 S
C49 H55 0.930 . S
C50 N48 1.400 . S
C50 C51 1.351 . S
C50 H67 0.930 . S
C51 N47 1.389 1_455 S
C51 C50 1.351 . S
C51 H56 0.930 . S
O52 Cu46 1.974 . S
O52 C62 1.282 . S
C53 O54 1.261 . S
C53 O66 1.251 . S
O54 C53 1.261 . S
H55 C49 0.930 . S
H56 C51 0.930 . S
N57 Cu46 1.985 . S
N57 C59 1.335 . S
N57 C60 1.390 . S
N58 C59 1.345 . S
N58 C61 1.336 . S
C59 N57 1.335 . S
C59 N58 1.345 . S
C59 H64 0.930 . S
C60 N57 1.390 . S
C60 C61 1.346 . S
C60 H65 0.930 . S
C61 N58 1.336 . S
C61 C60 1.346 . S
C61 H68 0.929 . S
C62 O52 1.282 . S
C62 O63 1.216 . S
O63 C62 1.216 . S
H64 C59 0.930 . S
H65 C60 0.930 . S
O66 Cu46 1.959 . S
O66 C53 1.251 . S
H67 C50 0.930 . S
H68 C61 0.929 . S
Cu69 N70 1.999 . S
Cu69 O75 1.974 . S
Cu69 N80 1.985 . S
Cu69 O89 1.959 . S
N70 Cu69 1.999 . S
N70 C72 1.263 . S
N70 C74 1.389 . S
N71 C72 1.358 . S
N71 C73 1.400 . S
C72 N70 1.263 . S
C72 N71 1.358 . S
C72 H78 0.930 . S
C73 N71 1.400 . S
C73 C74 1.351 . S
C73 H90 0.930 . S
C74 N70 1.389 . S
C74 C73 1.351 . S
C74 H79 0.930 . S
O75 Cu69 1.974 . S
O75 C85 1.282 . S
C76 O77 1.261 . S
C76 O89 1.251 . S
O77 C76 1.261 . S
H78 C72 0.930 . S
H79 C74 0.930 . S
N80 Cu69 1.985 . S
N80 C82 1.335 . S
N80 C83 1.390 . S
N81 C82 1.345 . S
N81 C84 1.336 . S
C82 N80 1.335 . S
C82 N81 1.345 . S
C82 H87 0.930 . S
C83 N80 1.390 . S
C83 C84 1.346 . S
C83 H88 0.930 . S
C84 N81 1.336 . S
C84 C83 1.346 . S
C84 H91 0.929 . S
C85 O75 1.282 . S
C85 O86 1.216 . S
O86 C85 1.216 . S
H87 C82 0.930 . S
H88 C83 0.930 . S
O89 Cu69 1.959 . S
O89 C76 1.251 . S
H90 C73 0.930 . S
H91 C84 0.929 . S
Cu92 N93 1.999 . S
Cu92 O98 1.974 . S
Cu92 N103 1.985 . S
Cu92 O112 1.959 . S
N93 Cu92 1.999 . S
N93 C95 1.263 . S
N93 C97 1.389 1_565 S
N94 C95 1.358 1_545 S
N94 C96 1.400 . S
C95 N93 1.263 . S
C95 N94 1.358 1_565 S
C95 H101 0.930 . S
C96 N94 1.400 . S
C96 C97 1.351 . S
C96 H113 0.930 . S
C97 N93 1.389 1_545 S
C97 C96 1.351 . S
C97 H102 0.930 . S
O98 Cu92 1.974 . S
O98 C108 1.282 . S
C99 O100 1.261 . S
C99 O112 1.251 . S
O100 C99 1.261 . S
H101 C95 0.930 . S
H102 C97 0.930 . S
N103 Cu92 1.985 . S
N103 C105 1.335 . S
N103 C106 1.390 . S
N104 C105 1.345 . S
N104 C107 1.336 . S
C105 N103 1.335 . S
C105 N104 1.345 . S
C105 H110 0.930 . S
C106 N103 1.390 . S
C106 C107 1.346 . S
C106 H111 0.930 . S
C107 N104 1.336 . S
C107 C106 1.346 . S
C107 H114 0.929 . S
C108 O98 1.282 . S
C108 O109 1.216 . S
O109 C108 1.216 . S
H110 C105 0.930 . S
H111 C106 0.930 . S
O112 Cu92 1.959 . S
O112 C99 1.251 . S
H113 C96 0.930 . S
H114 C107 0.929 . S
Cu115 N116 1.999 . S
Cu115 O121 1.974 . S
Cu115 N126 1.985 . S
Cu115 O135 1.959 . S
N116 Cu115 1.999 . S
N116 C118 1.263 . S
N116 C120 1.389 1_455 S
N117 C118 1.345 1_655 S
N117 C119 1.417 . S
C118 N116 1.263 . S
C118 N117 1.345 1_455 S
C118 H124 0.930 . S
C119 N117 1.417 . S
C119 C120 1.351 . S
C119 H136 0.930 . S
C120 N116 1.389 1_655 S
C120 C119 1.351 . S
C120 H125 0.930 . S
O121 Cu115 1.974 . S
O121 C131 1.282 . S
C122 O123 1.244 1_655 S
C122 O135 1.246 1_655 S
O123 C122 1.244 1_455 S
H124 C118 0.930 . S
H125 C120 0.930 . S
N126 Cu115 1.985 . S
N126 C128 1.335 . S
N126 C129 1.390 . S
N127 C128 1.345 . S
N127 C130 1.336 . S
C128 N126 1.335 . S
C128 N127 1.345 . S
C128 H133 0.930 . S
C129 N126 1.390 . S
C129 C130 1.346 . S
C129 H134 0.930 . S
C130 N127 1.336 . S
C130 C129 1.346 . S
C130 H137 0.929 . S
C131 O121 1.282 . S
C131 O132 1.216 . S
O132 C131 1.216 . S
H133 C128 0.930 . S
H134 C129 0.930 . S
O135 Cu115 1.959 . S
O135 C122 1.246 1_455 S
H136 C119 0.930 . S
H137 C130 0.929 . S
Cu138 N139 1.999 . S
Cu138 O144 1.974 . S
Cu138 N149 1.985 . S
Cu138 O158 1.959 . S
N139 Cu138 1.999 . S
N139 C141 1.263 . S
N139 C143 1.389 . S
N140 C141 1.358 . S
N140 C142 1.400 . S
C141 N139 1.263 . S
C141 N140 1.358 . S
C141 H147 0.930 . S
C142 N140 1.400 . S
C142 C143 1.351 . S
C142 H159 0.930 . S
C143 N139 1.389 . S
C143 C142 1.351 . S
C143 H148 0.930 . S
O144 Cu138 1.974 . S
O144 C154 1.282 . S
C145 O146 1.261 . S
C145 O158 1.251 . S
O146 C145 1.261 . S
H147 C141 0.930 . S
H148 C143 0.930 . S
N149 Cu138 1.985 . S
N149 C151 1.335 . S
N149 C152 1.390 . S
N150 C151 1.345 . S
N150 C153 1.336 . S
C151 N149 1.335 . S
C151 N150 1.345 . S
C151 H156 0.930 . S
C152 N149 1.390 . S
C152 C153 1.346 . S
C152 H157 0.930 . S
C153 N150 1.336 . S
C153 C152 1.346 . S
C153 H160 0.929 . S
C154 O144 1.282 . S
C154 O155 1.216 . S
O155 C154 1.216 . S
H156 C151 0.930 . S
H157 C152 0.930 . S
O158 Cu138 1.959 . S
O158 C145 1.251 . S
H159 C142 0.930 . S
H160 C153 0.929 . S
Cu161 N162 1.999 . S
Cu161 O167 1.974 . S
Cu161 N172 1.985 . S
Cu161 O181 1.959 . S
N162 Cu161 1.999 . S
N162 C164 1.263 . S
N162 C166 1.389 1_565 S
N163 C164 1.358 1_545 S
N163 C165 1.400 . S
C164 N162 1.263 . S
C164 N163 1.358 1_565 S
C164 H170 0.930 . S
C165 N163 1.400 . S
C165 C166 1.351 . S
C165 H182 0.930 . S
C166 N162 1.389 1_545 S
C166 C165 1.351 . S
C166 H171 0.930 . S
O167 Cu161 1.974 . S
O167 C177 1.282 . S
C168 O169 1.261 . S
C168 O181 1.251 . S
O169 C168 1.261 . S
H170 C164 0.930 . S
H171 C166 0.930 . S
N172 Cu161 1.985 . S
N172 C174 1.335 . S
N172 C175 1.390 . S
N173 C174 1.345 . S
N173 C176 1.336 . S
C174 N172 1.335 . S
C174 N173 1.345 . S
C174 H179 0.930 . S
C175 N172 1.390 . S
C175 C176 1.346 . S
C175 H180 0.930 . S
C176 N173 1.336 . S
C176 C175 1.346 . S
C176 H183 0.929 . S
C177 O167 1.282 . S
C177 O178 1.216 . S
O178 C177 1.216 . S
H179 C174 0.930 . S
H180 C175 0.930 . S
O181 Cu161 1.959 . S
O181 C168 1.251 . S
H182 C165 0.930 . S
H183 C176 0.929 . S
Cu184 N185 1.999 . S
Cu184 O190 1.974 . S
Cu184 N195 1.985 . S
Cu184 O204 1.959 . S
N185 Cu184 1.999 . S
N185 C187 1.263 . S
N185 C189 1.389 1_455 S
N186 C187 1.358 1_655 S
N186 C188 1.400 . S
C187 N185 1.263 . S
C187 N186 1.358 1_455 S
C187 H193 0.930 . S
C188 N186 1.400 . S
C188 C189 1.351 . S
C188 H205 0.930 . S
C189 N185 1.389 1_655 S
C189 C188 1.351 . S
C189 H194 0.930 . S
O190 Cu184 1.974 . S
O190 C200 1.282 . S
C191 O192 1.261 . S
C191 O204 1.251 . S
O192 C191 1.261 . S
H193 C187 0.930 . S
H194 C189 0.930 . S
N195 Cu184 1.985 . S
N195 C197 1.335 . S
N195 C198 1.390 . S
N196 C197 1.345 . S
N196 C199 1.336 . S
C197 N195 1.335 . S
C197 N196 1.345 . S
C197 H202 0.930 . S
C198 N195 1.390 . S
C198 C199 1.346 . S
C198 H203 0.930 . S
C199 N196 1.336 . S
C199 C198 1.346 . S
C199 H206 0.929 . S
C200 O190 1.282 . S
C200 O201 1.216 . S
O201 C200 1.216 . S
H202 C197 0.930 . S
H203 C198 0.930 . S
O204 Cu184 1.959 . S
O204 C191 1.251 . S
H205 C188 0.930 . S
H206 C199 0.929 . S
Cu207 N208 1.999 . S
Cu207 O213 1.974 . S
Cu207 N218 1.985 . S
Cu207 O227 1.959 . S
N208 Cu207 1.999 . S
N208 C210 1.263 . S
N208 C212 1.389 . S
N209 C210 1.358 . S
N209 C211 1.400 . S
C210 N208 1.263 . S
C210 N209 1.358 . S
C210 H216 0.930 . S
C211 N209 1.400 . S
C211 C212 1.351 . S
C211 H228 0.930 . S
C212 N208 1.389 . S
C212 C211 1.351 . S
C212 H217 0.930 . S
O213 Cu207 1.974 . S
O213 C223 1.282 . S
C214 O215 1.261 . S
C214 O227 1.251 . S
O215 C214 1.261 . S
H216 C210 0.930 . S
H217 C212 0.930 . S
N218 Cu207 1.985 . S
N218 C220 1.335 . S
N218 C221 1.390 . S
N219 C220 1.345 . S
N219 C222 1.336 . S
C220 N218 1.335 . S
C220 N219 1.345 . S
C220 H225 0.930 . S
C221 N218 1.390 . S
C221 C222 1.346 . S
C221 H226 0.930 . S
C222 N219 1.336 . S
C222 C221 1.346 . S
C222 H229 0.929 . S
C223 O213 1.282 . S
C223 O224 1.216 . S
O224 C223 1.216 . S
H225 C220 0.930 . S
H226 C221 0.930 . S
O227 Cu207 1.959 . S
O227 C214 1.251 . S
H228 C211 0.930 . S
H229 C222 0.929 . S
Cu230 N231 1.999 . S
Cu230 O236 1.974 . S
Cu230 N241 1.985 . S
Cu230 O250 1.959 . S
N231 Cu230 1.999 . S
N231 C233 1.263 . S
N231 C235 1.389 1_545 S
N232 C233 1.358 1_565 S
N232 C234 1.400 . S
C233 N231 1.263 . S
C233 N232 1.358 1_545 S
C233 H239 0.930 . S
C234 N232 1.400 . S
C234 C235 1.351 . S
C234 H251 0.930 . S
C235 N231 1.389 1_565 S
C235 C234 1.351 . S
C235 H240 0.930 . S
O236 Cu230 1.974 . S
O236 C246 1.282 . S
C237 O238 1.261 . S
C237 O250 1.251 . S
O238 C237 1.261 . S
H239 C233 0.930 . S
H240 C235 0.930 . S
N241 Cu230 1.985 . S
N241 C243 1.335 . S
N241 C244 1.390 . S
N242 C243 1.345 . S
N242 C245 1.336 . S
C243 N241 1.335 . S
C243 N242 1.345 . S
C243 H248 0.930 . S
C244 N241 1.390 . S
C244 C245 1.346 . S
C244 H249 0.930 . S
C245 N242 1.336 . S
C245 C244 1.346 . S
C245 H252 0.929 . S
C246 O236 1.282 . S
C246 O247 1.216 . S
O247 C246 1.216 . S
H248 C243 0.930 . S
H249 C244 0.930 . S
O250 Cu230 1.959 . S
O250 C237 1.251 . S
H251 C234 0.930 . S
H252 C245 0.929 . S
Cu253 N254 1.999 . S
Cu253 O259 1.974 . S
Cu253 N264 1.985 . S
Cu253 O273 1.959 . S
N254 Cu253 1.999 . S
N254 C256 1.263 . S
N254 C258 1.389 1_655 S
N255 C256 1.358 1_455 S
N255 C257 1.400 . S
C256 N254 1.263 . S
C256 N255 1.358 1_655 S
C256 H262 0.930 . S
C257 N255 1.400 . S
C257 C258 1.351 . S
C257 H274 0.930 . S
C258 N254 1.389 1_455 S
C258 C257 1.351 . S
C258 H263 0.930 . S
O259 Cu253 1.974 . S
O259 C269 1.282 . S
C260 O261 1.261 . S
C260 O273 1.251 . S
O261 C260 1.261 . S
H262 C256 0.930 . S
H263 C258 0.930 . S
N264 Cu253 1.985 . S
N264 C266 1.335 . S
N264 C267 1.390 . S
N265 C266 1.345 . S
N265 C268 1.336 . S
C266 N264 1.335 . S
C266 N265 1.345 . S
C266 H271 0.930 . S
C267 N264 1.390 . S
C267 C268 1.346 . S
C267 H272 0.930 . S
C268 N265 1.336 . S
C268 C267 1.346 . S
C268 H275 0.929 . S
C269 O259 1.282 . S
C269 O270 1.216 . S
O270 C269 1.216 . S
H271 C266 0.930 . S
H272 C267 0.930 . S
O273 Cu253 1.959 . S
O273 C260 1.251 . S
H274 C257 0.930 . S
H275 C268 0.929 . S
Cu276 N277 1.999 . S
Cu276 O282 1.974 . S
Cu276 N287 1.985 . S
Cu276 O296 1.959 . S
N277 Cu276 1.999 . S
N277 C279 1.263 . S
N277 C281 1.389 . S
N278 C279 1.358 . S
N278 C280 1.400 . S
C279 N277 1.263 . S
C279 N278 1.358 . S
C279 H285 0.930 . S
C280 N278 1.400 . S
C280 C281 1.351 . S
C280 H297 0.930 . S
C281 N277 1.389 . S
C281 C280 1.351 . S
C281 H286 0.930 . S
O282 Cu276 1.974 . S
O282 C292 1.282 . S
C283 O284 1.261 . S
C283 O296 1.251 . S
O284 C283 1.261 . S
H285 C279 0.930 . S
H286 C281 0.930 . S
N287 Cu276 1.985 . S
N287 C289 1.335 . S
N287 C290 1.390 . S
N288 C289 1.345 . S
N288 C291 1.336 . S
C289 N287 1.335 . S
C289 N288 1.345 . S
C289 H294 0.930 . S
C290 N287 1.390 . S
C290 C291 1.346 . S
C290 H295 0.930 . S
C291 N288 1.336 . S
C291 C290 1.346 . S
C291 H298 0.929 . S
C292 O282 1.282 . S
C292 O293 1.216 . S
O293 C292 1.216 . S
H294 C289 0.930 . S
H295 C290 0.930 . S
O296 Cu276 1.959 . S
O296 C283 1.251 . S
H297 C280 0.930 . S
H298 C291 0.929 . S
Cu299 N300 1.999 . S
Cu299 O305 1.974 . S
Cu299 N310 1.985 . S
Cu299 O319 1.959 . S
N300 Cu299 1.999 . S
N300 C302 1.263 . S
N300 C304 1.389 . S
N301 C302 1.358 . S
N301 C303 1.400 . S
C302 N300 1.263 . S
C302 N301 1.358 . S
C302 H308 0.930 . S
C303 N301 1.400 . S
C303 C304 1.351 . S
C303 H320 0.930 . S
C304 N300 1.389 . S
C304 C303 1.351 . S
C304 H309 0.930 . S
O305 Cu299 1.974 . S
O305 C315 1.282 . S
C306 O307 1.261 . S
C306 O319 1.251 . S
O307 C306 1.261 . S
H308 C302 0.930 . S
H309 C304 0.930 . S
N310 Cu299 1.985 . S
N310 C312 1.335 . S
N310 C313 1.390 . S
N311 C312 1.345 . S
N311 C314 1.336 . S
C312 N310 1.335 . S
C312 N311 1.345 . S
C312 H317 0.930 . S
C313 N310 1.390 . S
C313 C314 1.346 . S
C313 H318 0.930 . S
C314 N311 1.336 . S
C314 C313 1.346 . S
C314 H321 0.929 . S
C315 O305 1.282 . S
C315 O316 1.216 . S
O316 C315 1.216 . S
H317 C312 0.930 . S
H318 C313 0.930 . S
O319 Cu299 1.959 . S
O319 C306 1.251 . S
H320 C303 0.930 . S
H321 C314 0.929 . S
Cu322 N323 1.999 . S
Cu322 O328 1.974 . S
Cu322 N333 1.985 . S
Cu322 O342 1.959 . S
N323 Cu322 1.999 . S
N323 C325 1.263 . S
N323 C327 1.389 . S
N324 C325 1.358 . S
N324 C326 1.400 . S
C325 N323 1.263 . S
C325 N324 1.358 . S
C325 H331 0.930 . S
C326 N324 1.400 . S
C326 C327 1.351 . S
C326 H343 0.930 . S
C327 N323 1.389 . S
C327 C326 1.351 . S
C327 H332 0.930 . S
O328 Cu322 1.974 . S
O328 C338 1.282 . S
C329 O330 1.261 . S
C329 O342 1.251 . S
O330 C329 1.261 . S
H331 C325 0.930 . S
H332 C327 0.930 . S
N333 Cu322 1.985 . S
N333 C335 1.335 . S
N333 C336 1.390 . S
N334 C335 1.345 . S
N334 C337 1.336 . S
C335 N333 1.335 . S
C335 N334 1.345 . S
C335 H340 0.930 . S
C336 N333 1.390 . S
C336 C337 1.346 . S
C336 H341 0.930 . S
C337 N334 1.336 . S
C337 C336 1.346 . S
C337 H344 0.929 . S
C338 O328 1.282 . S
C338 O339 1.216 . S
O339 C338 1.216 . S
H340 C335 0.930 . S
H341 C336 0.930 . S
O342 Cu322 1.959 . S
O342 C329 1.251 . S
H343 C326 0.930 . S
H344 C337 0.929 . S
Cu345 N346 1.999 . S
Cu345 O351 1.974 . S
Cu345 N356 1.985 . S
Cu345 O365 1.959 . S
N346 Cu345 1.999 . S
N346 C348 1.263 . S
N346 C350 1.389 . S
N347 C348 1.358 . S
N347 C349 1.400 . S
C348 N346 1.263 . S
C348 N347 1.358 . S
C348 H354 0.930 . S
C349 N347 1.400 . S
C349 C350 1.351 . S
C349 H366 0.930 . S
C350 N346 1.389 . S
C350 C349 1.351 . S
C350 H355 0.930 . S
O351 Cu345 1.974 . S
O351 C361 1.282 . S
C352 O353 1.261 . S
C352 O365 1.251 . S
O353 C352 1.261 . S
H354 C348 0.930 . S
H355 C350 0.930 . S
N356 Cu345 1.985 . S
N356 C358 1.335 . S
N356 C359 1.390 . S
N357 C358 1.345 . S
N357 C360 1.336 . S
C358 N356 1.335 . S
C358 N357 1.345 . S
C358 H363 0.930 . S
C359 N356 1.390 . S
C359 C360 1.346 . S
C359 H364 0.930 . S
C360 N357 1.336 . S
C360 C359 1.346 . S
C360 H367 0.929 . S
C361 O351 1.282 . S
C361 O362 1.216 . S
O362 C361 1.216 . S
H363 C358 0.930 . S
H364 C359 0.930 . S
O365 Cu345 1.959 . S
O365 C352 1.251 . S
H366 C349 0.930 . S
H367 C360 0.929 . S
Cu368 N369 1.999 . S
Cu368 O374 1.974 . S
Cu368 N379 1.985 . S
Cu368 O388 1.959 . S
N369 Cu368 1.999 . S
N369 C371 1.263 . S
N369 C373 1.389 . S
N370 C371 1.358 . S
N370 C372 1.400 . S
C371 N369 1.263 . S
C371 N370 1.358 . S
C371 H377 0.930 . S
C372 N370 1.400 . S
C372 C373 1.351 . S
C372 H389 0.930 . S
C373 N369 1.389 . S
C373 C372 1.351 . S
C373 H378 0.930 . S
O374 Cu368 1.974 . S
O374 C384 1.282 . S
C375 O376 1.261 . S
C375 O388 1.251 . S
O376 C375 1.261 . S
H377 C371 0.930 . S
H378 C373 0.930 . S
N379 Cu368 1.985 . S
N379 C381 1.335 . S
N379 C382 1.390 . S
N380 C381 1.345 . S
N380 C383 1.336 . S
C381 N379 1.335 . S
C381 N380 1.345 . S
C381 H386 0.930 . S
C382 N379 1.390 . S
C382 C383 1.346 . S
C382 H387 0.930 . S
C383 N380 1.336 . S
C383 C382 1.346 . S
C383 H390 0.929 . S
C384 O374 1.282 . S
C384 O385 1.216 . S
O385 C384 1.216 . S
H386 C381 0.930 . S
H387 C382 0.930 . S
O388 Cu368 1.959 . S
O388 C375 1.251 . S
H389 C372 0.930 . S
H390 C383 0.929 . S
Cu391 N392 1.999 . S
Cu391 O397 1.974 . S
Cu391 N402 1.985 . S
Cu391 O411 1.959 . S
N392 Cu391 1.999 . S
N392 C394 1.263 . S
N392 C396 1.389 . S
N393 C394 1.358 . S
N393 C395 1.400 . S
C394 N392 1.263 . S
C394 N393 1.358 . S
C394 H400 0.930 . S
C395 N393 1.400 . S
C395 C396 1.351 . S
C395 H412 0.930 . S
C396 N392 1.389 . S
C396 C395 1.351 . S
C396 H401 0.930 . S
O397 Cu391 1.974 . S
O397 C407 1.282 . S
C398 O399 1.261 . S
C398 O411 1.251 . S
O399 C398 1.261 . S
H400 C394 0.930 . S
H401 C396 0.930 . S
N402 Cu391 1.985 . S
N402 C404 1.335 . S
N402 C405 1.390 . S
N403 C404 1.345 . S
N403 C406 1.336 . S
C404 N402 1.335 . S
C404 N403 1.345 . S
C404 H409 0.930 . S
C405 N402 1.390 . S
C405 C406 1.346 . S
C405 H410 0.930 . S
C406 N403 1.336 . S
C406 C405 1.346 . S
C406 H413 0.929 . S
C407 O397 1.282 . S
C407 O408 1.216 . S
O408 C407 1.216 . S
H409 C404 0.930 . S
H410 C405 0.930 . S
O411 Cu391 1.959 . S
O411 C398 1.251 . S
H412 C395 0.930 . S
H413 C406 0.929 . S
Cu414 N415 1.999 . S
Cu414 O420 1.974 . S
Cu414 N425 1.985 . S
Cu414 O434 1.959 . S
N415 Cu414 1.999 . S
N415 C417 1.263 . S
N415 C419 1.389 . S
N416 C417 1.358 . S
N416 C418 1.400 . S
C417 N415 1.263 . S
C417 N416 1.358 . S
C417 H423 0.930 . S
C418 N416 1.400 . S
C418 C419 1.351 . S
C418 H435 0.930 . S
C419 N415 1.389 . S
C419 C418 1.351 . S
C419 H424 0.930 . S
O420 Cu414 1.974 . S
O420 C430 1.282 . S
C421 O422 1.261 . S
C421 O434 1.251 . S
O422 C421 1.261 . S
H423 C417 0.930 . S
H424 C419 0.930 . S
N425 Cu414 1.985 . S
N425 C427 1.335 . S
N425 C428 1.390 . S
N426 C427 1.345 . S
N426 C429 1.336 . S
C427 N425 1.335 . S
C427 N426 1.345 . S
C427 H432 0.930 . S
C428 N425 1.390 . S
C428 C429 1.346 . S
C428 H433 0.930 . S
C429 N426 1.336 . S
C429 C428 1.346 . S
C429 H436 0.929 . S
C430 O420 1.282 . S
C430 O431 1.216 . S
O431 C430 1.216 . S
H432 C427 0.930 . S
H433 C428 0.930 . S
O434 Cu414 1.959 . S
O434 C421 1.251 . S
H435 C418 0.930 . S
H436 C429 0.929 . S
Cu437 N438 1.999 . S
Cu437 O443 1.974 . S
Cu437 N448 1.985 . S
Cu437 O457 1.959 . S
N438 Cu437 1.999 . S
N438 C440 1.263 . S
N438 C442 1.389 . S
N439 C440 1.358 . S
N439 C441 1.400 . S
C440 N438 1.263 . S
C440 N439 1.358 . S
C440 H446 0.930 . S
C441 N439 1.400 . S
C441 C442 1.351 . S
C441 H458 0.930 . S
C442 N438 1.389 . S
C442 C441 1.351 . S
C442 H447 0.930 . S
O443 Cu437 1.974 . S
O443 C453 1.282 . S
C444 O445 1.261 . S
C444 O457 1.251 . S
O445 C444 1.261 . S
H446 C440 0.930 . S
H447 C442 0.930 . S
N448 Cu437 1.985 . S
N448 C450 1.335 . S
N448 C451 1.390 . S
N449 C450 1.345 . S
N449 C452 1.336 . S
C450 N448 1.335 . S
C450 N449 1.345 . S
C450 H455 0.930 . S
C451 N448 1.390 . S
C451 C452 1.346 . S
C451 H456 0.930 . S
C452 N449 1.336 . S
C452 C451 1.346 . S
C452 H459 0.929 . S
C453 O443 1.282 . S
C453 O454 1.216 . S
O454 C453 1.216 . S
H455 C450 0.930 . S
H456 C451 0.930 . S
O457 Cu437 1.959 . S
O457 C444 1.251 . S
H458 C441 0.930 . S
H459 C452 0.929 . S
Cu460 N461 1.999 . S
Cu460 O466 1.974 . S
Cu460 N471 1.985 . S
Cu460 O480 1.959 . S
N461 Cu460 1.999 . S
N461 C463 1.263 . S
N461 C465 1.389 . S
N462 C463 1.358 . S
N462 C464 1.400 . S
C463 N461 1.263 . S
C463 N462 1.358 . S
C463 H469 0.930 . S
C464 N462 1.400 . S
C464 C465 1.351 . S
C464 H481 0.930 . S
C465 N461 1.389 . S
C465 C464 1.351 . S
C465 H470 0.930 . S
O466 Cu460 1.974 . S
O466 C476 1.282 . S
C467 O468 1.261 . S
C467 O480 1.251 . S
O468 C467 1.261 . S
H469 C463 0.930 . S
H470 C465 0.930 . S
N471 Cu460 1.985 . S
N471 C473 1.335 . S
N471 C474 1.390 . S
N472 C473 1.345 . S
N472 C475 1.336 . S
C473 N471 1.335 . S
C473 N472 1.345 . S
C473 H478 0.930 . S
C474 N471 1.390 . S
C474 C475 1.346 . S
C474 H479 0.930 . S
C475 N472 1.336 . S
C475 C474 1.346 . S
C475 H482 0.929 . S
C476 O466 1.282 . S
C476 O477 1.216 . S
O477 C476 1.216 . S
H478 C473 0.930 . S
H479 C474 0.930 . S
O480 Cu460 1.959 . S
O480 C467 1.251 . S
H481 C464 0.930 . S
H482 C475 0.929 . S
Cu483 N484 1.999 . S
Cu483 O489 1.974 . S
Cu483 N494 1.985 . S
Cu483 O503 1.959 . S
N484 Cu483 1.999 . S
N484 C486 1.263 . S
N484 C488 1.389 . S
N485 C486 1.358 . S
N485 C487 1.400 . S
C486 N484 1.263 . S
C486 N485 1.358 . S
C486 H492 0.930 . S
C487 N485 1.400 . S
C487 C488 1.351 . S
C487 H504 0.930 . S
C488 N484 1.389 . S
C488 C487 1.351 . S
C488 H493 0.930 . S
O489 Cu483 1.974 . S
O489 C499 1.282 . S
C490 O491 1.261 . S
C490 O503 1.251 . S
O491 C490 1.261 . S
H492 C486 0.930 . S
H493 C488 0.930 . S
N494 Cu483 1.985 . S
N494 C496 1.335 . S
N494 C497 1.390 . S
N495 C496 1.345 . S
N495 C498 1.336 . S
C496 N494 1.335 . S
C496 N495 1.345 . S
C496 H501 0.930 . S
C497 N494 1.390 . S
C497 C498 1.346 . S
C497 H502 0.930 . S
C498 N495 1.336 . S
C498 C497 1.346 . S
C498 H505 0.929 . S
C499 O489 1.282 . S
C499 O500 1.216 . S
O500 C499 1.216 . S
H501 C496 0.930 . S
H502 C497 0.930 . S
O503 Cu483 1.959 . S
O503 C490 1.251 . S
H504 C487 0.930 . S
H505 C498 0.929 . S
Cu506 N507 1.999 . S
Cu506 O512 1.974 . S
Cu506 N517 1.985 . S
Cu506 O526 1.959 . S
N507 Cu506 1.999 . S
N507 C509 1.263 . S
N507 C511 1.389 . S
N508 C509 1.358 . S
N508 C510 1.400 . S
C509 N507 1.263 . S
C509 N508 1.358 . S
C509 H515 0.930 . S
C510 N508 1.400 . S
C510 C511 1.351 . S
C510 H527 0.930 . S
C511 N507 1.389 . S
C511 C510 1.351 . S
C511 H516 0.930 . S
O512 Cu506 1.974 . S
O512 C522 1.282 . S
C513 O514 1.261 . S
C513 O526 1.251 1_554 S
O514 C513 1.261 . S
H515 C509 0.930 . S
H516 C511 0.930 . S
N517 Cu506 1.985 . S
N517 C519 1.335 . S
N517 C520 1.390 . S
N518 C519 1.345 . S
N518 C521 1.336 . S
C519 N517 1.335 . S
C519 N518 1.345 . S
C519 H524 0.930 . S
C520 N517 1.390 . S
C520 C521 1.346 . S
C520 H525 0.930 . S
C521 N518 1.336 . S
C521 C520 1.346 . S
C521 H528 0.929 . S
C522 O512 1.282 . S
C522 O523 1.216 . S
O523 C522 1.216 . S
H524 C519 0.930 . S
H525 C520 0.930 . S
O526 Cu506 1.959 . S
O526 C513 1.251 1_556 S
H527 C510 0.930 . S
H528 C521 0.929 . S
Cu529 N530 1.999 . S
Cu529 O535 1.974 . S
Cu529 N540 1.985 . S
Cu529 O549 1.959 . S
N530 Cu529 1.999 . S
N530 C532 1.263 . S
N530 C534 1.389 . S
N531 C532 1.358 . S
N531 C533 1.400 . S
C532 N530 1.263 . S
C532 N531 1.358 . S
C532 H538 0.930 . S
C533 N531 1.400 . S
C533 C534 1.351 . S
C533 H550 0.930 . S
C534 N530 1.389 . S
C534 C533 1.351 . S
C534 H539 0.930 . S
O535 Cu529 1.974 . S
O535 C545 1.282 . S
C536 O537 1.261 . S
C536 O549 1.251 1_554 S
O537 C536 1.261 . S
H538 C532 0.930 . S
H539 C534 0.930 . S
N540 Cu529 1.985 . S
N540 C542 1.335 . S
N540 C543 1.390 . S
N541 C542 1.345 1_554 S
N541 C544 1.336 1_554 S
C542 N540 1.335 . S
C542 N541 1.345 1_556 S
C542 H547 0.930 1_556 S
C543 N540 1.390 . S
C543 C544 1.346 . S
C543 H548 0.930 . S
C544 N541 1.336 1_556 S
C544 C543 1.346 . S
C544 H551 0.929 . S
C545 O535 1.282 . S
C545 O546 1.216 . S
O546 C545 1.216 . S
H547 C542 0.930 1_554 S
H548 C543 0.930 . S
O549 Cu529 1.959 . S
O549 C536 1.251 1_556 S
H550 C533 0.930 . S
H551 C544 0.929 . S
Cu552 N553 1.999 . S
Cu552 O558 1.974 . S
Cu552 N563 1.985 . S
Cu552 O572 1.959 . S
N553 Cu552 1.999 . S
N553 C555 1.263 . S
N553 C557 1.389 . S
N554 C555 1.358 . S
N554 C556 1.400 . S
C555 N553 1.263 . S
C555 N554 1.358 . S
C555 H561 0.930 . S
C556 N554 1.400 . S
C556 C557 1.351 . S
C556 H573 0.930 . S
C557 N553 1.389 . S
C557 C556 1.351 . S
C557 H562 0.930 . S
O558 Cu552 1.974 . S
O558 C568 1.282 . S
C559 O560 1.261 . S
C559 O572 1.251 . S
O560 C559 1.261 . S
H561 C555 0.930 . S
H562 C557 0.930 . S
N563 Cu552 1.985 . S
N563 C565 1.335 . S
N563 C566 1.390 . S
N564 C565 1.345 . S
N564 C567 1.336 . S
C565 N563 1.335 . S
C565 N564 1.345 . S
C565 H570 0.930 . S
C566 N563 1.390 . S
C566 C567 1.346 . S
C566 H571 0.930 . S
C567 N564 1.336 . S
C567 C566 1.346 . S
C567 H574 0.929 . S
C568 O558 1.282 . S
C568 O569 1.216 . S
O569 C568 1.216 . S
H570 C565 0.930 . S
H571 C566 0.930 . S
O572 Cu552 1.959 . S
O572 C559 1.251 . S
H573 C556 0.930 . S
H574 C567 0.929 . S
Cu575 N576 1.999 . S
Cu575 O581 1.974 . S
Cu575 N586 1.985 . S
Cu575 O595 1.959 . S
N576 Cu575 1.999 . S
N576 C578 1.263 . S
N576 C580 1.389 . S
N577 C578 1.358 . S
N577 C579 1.400 . S
C578 N576 1.263 . S
C578 N577 1.358 . S
C578 H584 0.930 . S
C579 N577 1.400 . S
C579 C580 1.351 . S
C579 H596 0.930 . S
C580 N576 1.389 . S
C580 C579 1.351 . S
C580 H585 0.930 . S
O581 Cu575 1.974 . S
O581 C591 1.282 . S
C582 O583 1.261 . S
C582 O595 1.251 . S
O583 C582 1.261 . S
H584 C578 0.930 . S
H585 C580 0.930 . S
N586 Cu575 1.985 . S
N586 C588 1.335 . S
N586 C589 1.390 . S
N587 C588 1.345 . S
N587 C590 1.336 . S
C588 N586 1.335 . S
C588 N587 1.345 . S
C588 H593 0.930 . S
C589 N586 1.390 . S
C589 C590 1.346 . S
C589 H594 0.930 . S
C590 N587 1.336 . S
C590 C589 1.346 . S
C590 H597 0.929 . S
C591 O581 1.282 . S
C591 O592 1.216 . S
O592 C591 1.216 . S
H593 C588 0.930 . S
H594 C589 0.930 . S
O595 Cu575 1.959 . S
O595 C582 1.251 . S
H596 C579 0.930 . S
H597 C590 0.929 . S
Cu598 N599 1.999 . S
Cu598 O604 1.974 . S
Cu598 N609 1.985 . S
Cu598 O618 1.959 . S
N599 Cu598 1.999 . S
N599 C601 1.263 . S
N599 C603 1.389 . S
N600 C601 1.358 . S
N600 C602 1.400 . S
C601 N599 1.263 . S
C601 N600 1.358 . S
C601 H607 0.930 . S
C602 N600 1.400 . S
C602 C603 1.351 . S
C602 H619 0.930 . S
C603 N599 1.389 . S
C603 C602 1.351 . S
C603 H608 0.930 . S
O604 Cu598 1.974 . S
O604 C614 1.282 . S
C605 O606 1.261 . S
C605 O618 1.251 . S
O606 C605 1.261 . S
H607 C601 0.930 . S
H608 C603 0.930 . S
N609 Cu598 1.985 . S
N609 C611 1.335 . S
N609 C612 1.390 . S
N610 C611 1.345 . S
N610 C613 1.336 . S
C611 N609 1.335 . S
C611 N610 1.345 . S
C611 H616 0.930 . S
C612 N609 1.390 . S
C612 C613 1.346 . S
C612 H617 0.930 . S
C613 N610 1.336 . S
C613 C612 1.346 . S
C613 H620 0.929 . S
C614 O604 1.282 . S
C614 O615 1.216 . S
O615 C614 1.216 . S
H616 C611 0.930 . S
H617 C612 0.930 . S
O618 Cu598 1.959 . S
O618 C605 1.251 . S
H619 C602 0.930 . S
H620 C613 0.929 . S
Cu621 N622 1.999 . S
Cu621 O627 1.974 . S
Cu621 N632 1.985 . S
Cu621 O641 1.959 . S
N622 Cu621 1.999 . S
N622 C624 1.263 . S
N622 C626 1.389 . S
N623 C624 1.358 . S
N623 C625 1.400 . S
C624 N622 1.263 . S
C624 N623 1.358 . S
C624 H630 0.930 . S
C625 N623 1.400 . S
C625 C626 1.351 . S
C625 H642 0.930 . S
C626 N622 1.389 . S
C626 C625 1.351 . S
C626 H631 0.930 . S
O627 Cu621 1.974 . S
O627 C637 1.282 . S
C628 O629 1.261 . S
C628 O641 1.251 . S
O629 C628 1.261 . S
H630 C624 0.930 . S
H631 C626 0.930 . S
N632 Cu621 1.985 . S
N632 C634 1.335 . S
N632 C635 1.390 . S
N633 C634 1.345 . S
N633 C636 1.336 . S
C634 N632 1.335 . S
C634 N633 1.345 . S
C634 H639 0.930 . S
C635 N632 1.390 . S
C635 C636 1.346 . S
C635 H640 0.930 . S
C636 N633 1.336 . S
C636 C635 1.346 . S
C636 H643 0.929 . S
C637 O627 1.282 . S
C637 O638 1.216 . S
O638 C637 1.216 . S
H639 C634 0.930 . S
H640 C635 0.930 . S
O641 Cu621 1.959 . S
O641 C628 1.251 . S
H642 C625 0.930 . S
H643 C636 0.929 . S
Cu644 N645 1.999 . S
Cu644 O650 1.974 . S
Cu644 N655 1.985 . S
Cu644 O664 1.959 . S
N645 Cu644 1.999 . S
N645 C647 1.263 . S
N645 C649 1.389 . S
N646 C647 1.358 . S
N646 C648 1.400 . S
C647 N645 1.263 . S
C647 N646 1.358 . S
C647 H653 0.930 . S
C648 N646 1.400 . S
C648 C649 1.351 . S
C648 H665 0.930 . S
C649 N645 1.389 . S
C649 C648 1.351 . S
C649 H654 0.930 . S
O650 Cu644 1.974 . S
O650 C660 1.282 . S
C651 O652 1.261 . S
C651 O664 1.251 . S
O652 C651 1.261 . S
H653 C647 0.930 . S
H654 C649 0.930 . S
N655 Cu644 1.985 . S
N655 C657 1.335 . S
N655 C658 1.390 . S
N656 C657 1.345 . S
N656 C659 1.336 . S
C657 N655 1.335 . S
C657 N656 1.345 . S
C657 H662 0.930 . S
C658 N655 1.390 . S
C658 C659 1.346 . S
C658 H663 0.930 . S
C659 N656 1.336 . S
C659 C658 1.346 . S
C659 H666 0.929 . S
C660 O650 1.282 . S
C660 O661 1.216 . S
O661 C660 1.216 . S
H662 C657 0.930 . S
H663 C658 0.930 . S
O664 Cu644 1.959 . S
O664 C651 1.251 . S
H665 C648 0.930 . S
H666 C659 0.929 . S
Cu667 N668 1.999 . S
Cu667 O673 1.974 . S
Cu667 N678 1.985 . S
Cu667 O687 1.959 . S
N668 Cu667 1.999 . S
N668 C670 1.263 . S
N668 C672 1.389 . S
N669 C670 1.358 1_556 S
N669 C671 1.400 . S
C670 N668 1.263 . S
C670 N669 1.358 1_554 S
C670 H676 0.930 . S
C671 N669 1.400 . S
C671 C672 1.351 1_556 S
C671 H688 0.930 . S
C672 N668 1.389 . S
C672 C671 1.351 1_554 S
C672 H677 0.930 . S
O673 Cu667 1.974 . S
O673 C683 1.282 . S
C674 O675 1.261 . S
C674 O687 1.251 . S
O675 C674 1.261 . S
H676 C670 0.930 . S
H677 C672 0.930 . S
N678 Cu667 1.985 . S
N678 C680 1.335 . S
N678 C681 1.390 . S
N679 C680 1.345 . S
N679 C682 1.336 . S
C680 N678 1.335 . S
C680 N679 1.345 . S
C680 H685 0.930 . S
C681 N678 1.390 . S
C681 C682 1.346 . S
C681 H686 0.930 . S
C682 N679 1.336 . S
C682 C681 1.346 . S
C682 H689 0.929 . S
C683 O673 1.282 . S
C683 O684 1.216 . S
O684 C683 1.216 . S
H685 C680 0.930 . S
H686 C681 0.930 . S
O687 Cu667 1.959 . S
O687 C674 1.251 . S
H688 C671 0.930 . S
H689 C682 0.929 . S
Cu690 N691 1.999 . S
Cu690 O696 1.974 . S
Cu690 N701 1.985 . S
Cu690 O710 1.959 . S
N691 Cu690 1.999 . S
N691 C693 1.263 . S
N691 C695 1.389 . S
N692 C693 1.358 . S
N692 C694 1.400 . S
C693 N691 1.263 . S
C693 N692 1.358 . S
C693 H699 0.930 . S
C694 N692 1.400 . S
C694 C695 1.351 . S
C694 H711 0.930 . S
C695 N691 1.389 . S
C695 C694 1.351 . S
C695 H700 0.930 . S
O696 Cu690 1.974 . S
O696 C706 1.282 . S
C697 O698 1.261 . S
C697 O710 1.251 . S
O698 C697 1.261 . S
H699 C693 0.930 . S
H700 C695 0.930 . S
N701 Cu690 1.985 . S
N701 C703 1.335 . S
N701 C704 1.390 . S
N702 C703 1.345 . S
N702 C705 1.336 . S
C703 N701 1.335 . S
C703 N702 1.345 . S
C703 H708 0.930 . S
C704 N701 1.390 . S
C704 C705 1.346 . S
C704 H709 0.930 . S
C705 N702 1.336 . S
C705 C704 1.346 . S
C705 H712 0.929 . S
C706 O696 1.282 . S
C706 O707 1.216 . S
O707 C706 1.216 . S
H708 C703 0.930 . S
H709 C704 0.930 . S
O710 Cu690 1.959 . S
O710 C697 1.251 . S
H711 C694 0.930 . S
H712 C705 0.929 . S
Cu713 N714 1.999 . S
Cu713 O719 1.974 . S
Cu713 N724 1.985 . S
Cu713 O733 1.959 . S
N714 Cu713 1.999 . S
N714 C716 1.263 . S
N714 C718 1.389 . S
N715 C716 1.358 . S
N715 C717 1.400 . S
C716 N714 1.263 . S
C716 N715 1.358 . S
C716 H722 0.930 . S
C717 N715 1.400 . S
C717 C718 1.351 . S
C717 H734 0.930 . S
C718 N714 1.389 . S
C718 C717 1.351 . S
C718 H723 0.930 . S
O719 Cu713 1.974 . S
O719 C729 1.282 . S
C720 O721 1.261 . S
C720 O733 1.251 . S
O721 C720 1.261 . S
H722 C716 0.930 . S
H723 C718 0.930 . S
N724 Cu713 1.985 . S
N724 C726 1.335 . S
N724 C727 1.390 . S
N725 C726 1.345 . S
N725 C728 1.336 . S
C726 N724 1.335 . S
C726 N725 1.345 . S
C726 H731 0.930 . S
C727 N724 1.390 . S
C727 C728 1.346 . S
C727 H732 0.930 . S
C728 N725 1.336 . S
C728 C727 1.346 . S
C728 H735 0.929 . S
C729 O719 1.282 . S
C729 O730 1.216 . S
O730 C729 1.216 . S
H731 C726 0.930 . S
H732 C727 0.930 . S
O733 Cu713 1.959 . S
O733 C720 1.251 . S
H734 C717 0.930 . S
H735 C728 0.929 . S
Cu736 N737 1.999 . S
Cu736 O742 1.974 . S
Cu736 N747 1.985 . S
Cu736 O756 1.959 . S
N737 Cu736 1.999 . S
N737 C739 1.263 . S
N737 C741 1.389 . S
N738 C739 1.358 . S
N738 C740 1.400 . S
C739 N737 1.263 . S
C739 N738 1.358 . S
C739 H745 0.930 . S
C740 N738 1.400 . S
C740 C741 1.351 . S
C740 H757 0.930 . S
C741 N737 1.389 . S
C741 C740 1.351 . S
C741 H746 0.930 . S
O742 Cu736 1.974 . S
O742 C752 1.282 . S
C743 O744 1.261 . S
C743 O756 1.251 . S
O744 C743 1.261 . S
H745 C739 0.930 . S
H746 C741 0.930 . S
N747 Cu736 1.985 . S
N747 C749 1.335 . S
N747 C750 1.390 . S
N748 C749 1.345 . S
N748 C751 1.336 . S
C749 N747 1.335 . S
C749 N748 1.345 . S
C749 H754 0.930 . S
C750 N747 1.390 . S
C750 C751 1.346 . S
C750 H755 0.930 . S
C751 N748 1.336 . S
C751 C750 1.346 . S
C751 H758 0.929 . S
C752 O742 1.282 . S
C752 O753 1.216 . S
O753 C752 1.216 . S
H754 C749 0.930 . S
H755 C750 0.930 . S
O756 Cu736 1.959 . S
O756 C743 1.251 . S
H757 C740 0.930 . S
H758 C751 0.929 . S
Cu759 N760 1.999 . S
Cu759 O765 1.974 . S
Cu759 N770 1.985 . S
Cu759 O779 1.959 . S
N760 Cu759 1.999 . S
N760 C762 1.263 . S
N760 C764 1.389 . S
N761 C762 1.358 . S
N761 C763 1.400 . S
C762 N760 1.263 . S
C762 N761 1.358 . S
C762 H768 0.930 . S
C763 N761 1.400 . S
C763 C764 1.351 . S
C763 H780 0.930 . S
C764 N760 1.389 . S
C764 C763 1.351 . S
C764 H769 0.930 . S
O765 Cu759 1.974 . S
O765 C775 1.282 . S
C766 O767 1.261 . S
C766 O779 1.251 . S
O767 C766 1.261 . S
H768 C762 0.930 . S
H769 C764 0.930 . S
N770 Cu759 1.985 . S
N770 C772 1.335 . S
N770 C773 1.390 . S
N771 C772 1.345 . S
N771 C774 1.336 . S
C772 N770 1.335 . S
C772 N771 1.345 . S
C772 H777 0.930 . S
C773 N770 1.390 . S
C773 C774 1.346 . S
C773 H778 0.930 . S
C774 N771 1.336 . S
C774 C773 1.346 . S
C774 H781 0.929 . S
C775 O765 1.282 . S
C775 O776 1.216 . S
O776 C775 1.216 . S
H777 C772 0.930 . S
H778 C773 0.930 . S
O779 Cu759 1.959 . S
O779 C766 1.251 . S
H780 C763 0.930 . S
H781 C774 0.929 . S
Cu782 N783 1.999 . S
Cu782 O788 1.974 . S
Cu782 N793 1.985 . S
Cu782 O802 1.959 . S
N783 Cu782 1.999 . S
N783 C785 1.263 . S
N783 C787 1.389 . S
N784 C785 1.358 . S
N784 C786 1.400 . S
C785 N783 1.263 . S
C785 N784 1.358 . S
C785 H791 0.930 . S
C786 N784 1.400 . S
C786 C787 1.351 . S
C786 H803 0.930 . S
C787 N783 1.389 . S
C787 C786 1.351 . S
C787 H792 0.930 . S
O788 Cu782 1.974 . S
O788 C798 1.282 . S
C789 O790 1.261 . S
C789 O802 1.251 . S
O790 C789 1.261 . S
H791 C785 0.930 . S
H792 C787 0.930 . S
N793 Cu782 1.985 . S
N793 C795 1.335 . S
N793 C796 1.390 . S
N794 C795 1.345 . S
N794 C797 1.336 . S
C795 N793 1.335 . S
C795 N794 1.345 . S
C795 H800 0.930 . S
C796 N793 1.390 . S
C796 C797 1.346 . S
C796 H801 0.930 . S
C797 N794 1.336 . S
C797 C796 1.346 . S
C797 H804 0.929 . S
C798 O788 1.282 . S
C798 O799 1.216 . S
O799 C798 1.216 . S
H800 C795 0.930 . S
H801 C796 0.930 . S
O802 Cu782 1.959 . S
O802 C789 1.251 . S
H803 C786 0.930 . S
H804 C797 0.929 . S
Cu805 N806 1.999 . S
Cu805 O811 1.974 . S
Cu805 N816 1.985 . S
Cu805 O825 1.959 . S
N806 Cu805 1.999 . S
N806 C808 1.263 . S
N806 C810 1.389 . S
N807 C808 1.358 . S
N807 C809 1.400 . S
C808 N806 1.263 . S
C808 N807 1.358 . S
C808 H814 0.930 . S
C809 N807 1.400 . S
C809 C810 1.351 . S
C809 H826 0.930 . S
C810 N806 1.389 . S
C810 C809 1.351 . S
C810 H815 0.930 . S
O811 Cu805 1.974 . S
O811 C821 1.282 . S
C812 O813 1.261 . S
C812 O825 1.251 . S
O813 C812 1.261 . S
H814 C808 0.930 . S
H815 C810 0.930 . S
N816 Cu805 1.985 . S
N816 C818 1.335 . S
N816 C819 1.390 . S
N817 C818 1.345 . S
N817 C820 1.336 . S
C818 N816 1.335 . S
C818 N817 1.345 . S
C818 H823 0.930 . S
C819 N816 1.390 . S
C819 C820 1.346 . S
C819 H824 0.930 . S
C820 N817 1.336 . S
C820 C819 1.346 . S
C820 H827 0.929 . S
C821 O811 1.282 . S
C821 O822 1.216 . S
O822 C821 1.216 . S
H823 C818 0.930 . S
H824 C819 0.930 . S
O825 Cu805 1.959 . S
O825 C812 1.251 . S
H826 C809 0.930 . S
H827 C820 0.929 . S
C828 C829 1.363 . S
C828 C834 1.379 . S
C828 N836 1.356 . S
C829 C828 1.363 . S
C829 C835 1.363 1_556 S
C830 C831 1.363 . S
C830 C835 1.379 1_556 S
C830 N837 1.356 . S
C831 C830 1.363 . S
C831 C834 1.363 . S
N832 C834 1.356 . S
N832 H844 0.984 . S
N832 H845 0.985 . S
N833 C835 1.356 . S
N833 H838 0.984 . S
N833 H839 0.985 . S
C834 C828 1.379 . S
C834 C831 1.363 . S
C834 N832 1.356 . S
C835 C829 1.363 1_554 S
C835 C830 1.379 1_554 S
C835 N833 1.356 . S
N836 C828 1.356 . S
N836 H842 0.984 . S
N836 H843 0.984 . S
N837 C830 1.356 . S
N837 H840 0.984 1_545 S
N837 H841 0.985 1_556 S
H838 N833 0.984 . S
H839 N833 0.985 . S
H840 N837 0.984 1_565 S
H841 N837 0.985 1_554 S
H842 N836 0.984 . S
H843 N836 0.984 . S
H844 N832 0.984 . S
H845 N832 0.985 . S
C846 C847 1.363 . S
C846 C852 1.378 . S
C846 N854 1.356 . S
C847 C846 1.363 . S
C847 C853 1.363 1_554 S
C848 C849 1.363 . S
C848 C853 1.379 . S
C848 N855 1.356 . S
C849 C848 1.363 . S
C849 C852 1.363 1_556 S
N850 C852 1.356 1_556 S
N850 H862 0.984 1_556 S
N850 H863 0.985 . S
N851 C853 1.356 1_554 S
N851 H856 0.984 . S
N851 H857 0.985 1_554 S
C852 C846 1.378 . S
C852 C849 1.363 1_554 S
C852 N850 1.356 1_554 S
C853 C847 1.363 1_556 S
C853 C848 1.379 . S
C853 N851 1.356 1_556 S
N854 C846 1.356 . S
N854 H860 0.984 . S
N854 H861 0.984 . S
N855 C848 1.356 . S
N855 H858 0.984 . S
N855 H859 0.985 . S
H856 N851 0.984 . S
H857 N851 0.985 1_556 S
H858 N855 0.984 . S
H859 N855 0.985 . S
H860 N854 0.984 . S
H861 N854 0.984 . S
H862 N850 0.984 1_554 S
H863 N850 0.985 . S
C864 C865 1.363 . S
C864 C870 1.401 . S
C864 N872 1.356 . S
C865 C864 1.363 . S
C865 C871 1.363 . S
C866 C867 1.363 . S
C866 C871 1.379 1_554 S
C866 N873 1.356 . S
C867 C866 1.363 . S
C867 C870 1.348 1_554 S
N868 C870 1.344 1_554 S
N868 H880 0.984 . S
N868 H881 0.985 . S
N869 C871 1.356 . S
N869 H874 0.984 . S
N869 H875 0.985 . S
C870 C864 1.401 . S
C870 C867 1.348 1_556 S
C870 N868 1.344 1_556 S
C871 C865 1.363 . S
C871 C866 1.379 1_556 S
C871 N869 1.356 . S
N872 C864 1.356 . S
N872 H878 0.984 . S
N872 H879 0.984 . S
N873 C866 1.356 . S
N873 H876 0.984 . S
N873 H877 0.985 . S
H874 N869 0.984 . S
H875 N869 0.985 . S
H876 N873 0.984 . S
H877 N873 0.985 . S
H878 N872 0.984 . S
H879 N872 0.984 . S
H880 N868 0.984 . S
H881 N868 0.985 . S
C882 C883 1.363 . S
C882 C888 1.379 . S
C882 N890 1.356 . S
C883 C882 1.363 . S
C883 C889 1.363 . S
C884 C885 1.363 . S
C884 C889 1.379 . S
C884 N891 1.356 . S
C885 C884 1.363 . S
C885 C888 1.363 . S
N886 C888 1.356 . S
N886 H898 0.984 . S
N886 H899 0.985 . S
N887 C889 1.356 . S
N887 H892 0.984 . S
N887 H893 0.985 . S
C888 C882 1.379 . S
C888 C885 1.363 . S
C888 N886 1.356 . S
C889 C883 1.363 . S
C889 C884 1.379 . S
C889 N887 1.356 . S
N890 C882 1.356 . S
N890 H896 0.984 . S
N890 H897 0.984 . S
N891 C884 1.356 . S
N891 H894 0.984 . S
N891 H895 0.985 . S
H892 N887 0.984 . S
H893 N887 0.985 . S
H894 N891 0.984 . S
H895 N891 0.985 . S
H896 N890 0.984 . S
H897 N890 0.984 . S
H898 N886 0.984 . S
H899 N886 0.985 . S
C900 C901 1.363 . S
C900 C906 1.379 . S
C900 N908 1.356 . S
C901 C900 1.363 . S
C901 C907 1.363 . S
C902 C903 1.363 . S
C902 C907 1.379 . S
C902 N909 1.356 . S
C903 C902 1.363 . S
C903 C906 1.363 . S
N904 C906 1.356 . S
N904 H916 0.984 . S
N904 H917 0.985 . S
N905 C907 1.356 . S
N905 H910 0.984 . S
N905 H911 0.985 . S
C906 C900 1.379 . S
C906 C903 1.363 . S
C906 N904 1.356 . S
C907 C901 1.363 . S
C907 C902 1.379 . S
C907 N905 1.356 . S
N908 C900 1.356 . S
N908 H914 0.984 . S
N908 H915 0.984 . S
N909 C902 1.356 . S
N909 H912 0.984 . S
N909 H913 0.985 . S
H910 N905 0.984 . S
H911 N905 0.985 . S
H912 N909 0.984 . S
H913 N909 0.985 . S
H914 N908 0.984 . S
H915 N908 0.984 . S
H916 N904 0.984 . S
H917 N904 0.985 . S
C918 C919 1.363 . S
C918 C924 1.379 . S
C918 N926 1.356 . S
C919 C918 1.363 . S
C919 C925 1.363 . S
C920 C921 1.363 . S
C920 C925 1.379 . S
C920 N927 1.356 . S
C921 C920 1.363 . S
C921 C924 1.363 . S
N922 C924 1.356 . S
N922 H934 0.984 . S
N922 H935 0.985 . S
N923 C925 1.356 . S
N923 H928 0.984 . S
N923 H929 0.985 . S
C924 C918 1.379 . S
C924 C921 1.363 . S
C924 N922 1.356 . S
C925 C919 1.363 . S
C925 C920 1.379 . S
C925 N923 1.356 . S
N926 C918 1.356 . S
N926 H932 0.984 . S
N926 H933 0.984 . S
N927 C920 1.356 . S
N927 H930 0.984 1_565 S
N927 H931 0.985 . S
H928 N923 0.984 . S
H929 N923 0.985 . S
H930 N927 0.984 1_545 S
H931 N927 0.985 . S
H932 N926 0.984 . S
H933 N926 0.984 . S
H934 N922 0.984 . S
H935 N922 0.985 . S
C936 C937 1.363 . S
C936 C942 1.379 1_554 S
C936 N944 1.356 . S
C937 C936 1.363 . S
C937 C943 1.363 1_554 S
C938 C939 1.363 . S
C938 C943 1.379 . S
C938 N945 1.356 . S
C939 C938 1.363 . S
C939 C942 1.363 . S
N940 C942 1.356 . S
N940 H952 0.984 1_556 S
N940 H953 0.985 . S
N941 C943 1.355 1_554 S
N941 H946 0.990 . S
N941 H947 0.981 1_554 S
C942 C936 1.379 1_556 S
C942 C939 1.363 . S
C942 N940 1.356 . S
C943 C937 1.363 1_556 S
C943 C938 1.379 . S
C943 N941 1.355 1_556 S
N944 C936 1.356 . S
N944 H950 0.984 . S
N944 H951 0.984 . S
N945 C938 1.356 . S
N945 H948 0.984 . S
N945 H949 0.985 . S
H946 N941 0.990 . S
H947 N941 0.981 1_556 S
H948 N945 0.984 . S
H949 N945 0.985 . S
H950 N944 0.984 . S
H951 N944 0.984 . S
H952 N940 0.984 1_554 S
H953 N940 0.985 . S
C954 C955 1.360 1_556 S
C954 C960 1.383 . S
C954 N962 1.353 1_556 S
C955 C954 1.360 1_554 S
C955 C961 1.363 . S
C956 C957 1.363 . S
C956 C961 1.379 1_556 S
C956 N963 1.356 . S
C957 C956 1.363 . S
C957 C960 1.363 . S
N958 C960 1.356 . S
N958 H970 0.984 . S
N958 H971 0.985 . S
N959 C961 1.356 . S
N959 H964 0.984 . S
N959 H965 0.985 . S
C960 C954 1.383 . S
C960 C957 1.363 . S
C960 N958 1.356 . S
C961 C955 1.363 . S
C961 C956 1.379 1_554 S
C961 N959 1.356 . S
N962 C954 1.353 1_554 S
N962 H968 0.984 . S
N962 H969 0.984 . S
N963 C956 1.356 . S
N963 H966 0.984 . S
N963 H967 0.985 . S
H964 N959 0.984 . S
H965 N959 0.985 . S
H966 N963 0.984 . S
H967 N963 0.985 . S
H968 N962 0.984 . S
H969 N962 0.984 . S
H970 N958 0.984 . S
H971 N958 0.985 . S
C972 C973 1.363 . S
C972 C978 1.379 1_556 S
C972 N980 1.356 . S
C973 C972 1.363 . S
C973 C979 1.363 . S
C974 C975 1.363 . S
C974 C979 1.379 1_554 S
C974 N981 1.356 . S
C975 C974 1.363 . S
C975 C978 1.363 . S
N976 C978 1.356 . S
N976 H988 0.984 . S
N976 H989 0.985 . S
N977 C979 1.356 . S
N977 H982 0.984 . S
N977 H983 0.985 . S
C978 C972 1.379 1_554 S
C978 C975 1.363 . S
C978 N976 1.356 . S
C979 C973 1.363 . S
C979 C974 1.379 1_556 S
C979 N977 1.356 . S
N980 C972 1.356 . S
N980 H986 0.984 . S
N980 H987 0.984 . S
N981 C974 1.356 . S
N981 H984 0.984 . S
N981 H985 0.985 . S
H982 N977 0.984 . S
H983 N977 0.985 . S
H984 N981 0.984 . S
H985 N981 0.985 . S
H986 N980 0.984 . S
H987 N980 0.984 . S
H988 N976 0.984 . S
H989 N976 0.985 . S
C990 C991 1.363 . S
C990 C996 1.379 . S
C990 N998 1.356 . S
C991 C990 1.363 . S
C991 C997 1.363 . S
C992 C993 1.363 . S
C992 C997 1.379 . S
C992 N999 1.356 . S
C993 C992 1.363 . S
C993 C996 1.363 . S
N994 C996 1.356 . S
N994 H1006 0.984 . S
N994 H1007 0.985 . S
N995 C997 1.356 . S
N995 H1000 0.984 . S
N995 H1001 0.985 . S
C996 C990 1.379 . S
C996 C993 1.363 . S
C996 N994 1.356 . S
C997 C991 1.363 . S
C997 C992 1.379 . S
C997 N995 1.356 . S
N998 C990 1.356 . S
N998 H1004 0.984 . S
N998 H1005 0.984 . S
N999 C992 1.356 . S
N999 H1002 0.984 . S
N999 H1003 0.985 . S
H1000 N995 0.984 . S
H1001 N995 0.985 . S
H1002 N999 0.984 . S
H1003 N999 0.985 . S
H1004 N998 0.984 . S
H1005 N998 0.984 . S
H1006 N994 0.984 . S
H1007 N994 0.985 . S
C1008 C1009 1.363 . S
C1008 C1014 1.379 . S
C1008 N1016 1.356 . S
C1009 C1008 1.363 . S
C1009 C1015 1.363 . S
C1010 C1011 1.363 . S
C1010 C1015 1.379 . S
C1010 N1017 1.356 . S
C1011 C1010 1.363 . S
C1011 C1014 1.363 . S
N1012 C1014 1.356 . S
N1012 H1024 0.984 . S
N1012 H1025 0.985 . S
N1013 C1015 1.356 . S
N1013 H1018 0.984 . S
N1013 H1019 0.985 . S
C1014 C1008 1.379 . S
C1014 C1011 1.363 . S
C1014 N1012 1.356 . S
C1015 C1009 1.363 . S
C1015 C1010 1.379 . S
C1015 N1013 1.356 . S
N1016 C1008 1.356 . S
N1016 H1022 0.984 . S
N1016 H1023 0.984 . S
N1017 C1010 1.356 . S
N1017 H1020 0.984 . S
N1017 H1021 0.985 . S
H1018 N1013 0.984 . S
H1019 N1013 0.985 . S
H1020 N1017 0.984 . S
H1021 N1017 0.985 . S
H1022 N1016 0.984 . S
H1023 N1016 0.984 . S
H1024 N1012 0.984 . S
H1025 N1012 0.985 . S
C1026 C1027 1.363 . S
C1026 C1032 1.379 . S
C1026 N1034 1.356 . S
C1027 C1026 1.363 . S
C1027 C1033 1.363 . S
C1028 C1029 1.363 . S
C1028 C1033 1.379 . S
C1028 N1035 1.356 . S
C1029 C1028 1.363 . S
C1029 C1032 1.363 . S
N1030 C1032 1.356 . S
N1030 H1042 0.984 . S
N1030 H1043 0.985 . S
N1031 C1033 1.356 . S
N1031 H1036 0.984 . S
N1031 H1037 0.985 . S
C1032 C1026 1.379 . S
C1032 C1029 1.363 . S
C1032 N1030 1.356 . S
C1033 C1027 1.363 . S
C1033 C1028 1.379 . S
C1033 N1031 1.356 . S
N1034 C1026 1.356 . S
N1034 H1040 0.984 . S
N1034 H1041 0.984 . S
N1035 C1028 1.356 . S
N1035 H1038 0.984 . S
N1035 H1039 0.985 . S
H1036 N1031 0.984 . S
H1037 N1031 0.985 . S
H1038 N1035 0.984 . S
H1039 N1035 0.985 . S
H1040 N1034 0.984 . S
H1041 N1034 0.984 . S
H1042 N1030 0.984 . S
H1043 N1030 0.985 . S
C1044 C1045 1.363 . S
C1044 C1050 1.379 . S
C1044 N1052 1.356 . S
C1045 C1044 1.363 . S
C1045 C1051 1.363 . S
C1046 C1047 1.363 . S
C1046 C1051 1.379 . S
C1046 N1053 1.356 . S
C1047 C1046 1.363 . S
C1047 C1050 1.363 . S
N1048 C1050 1.356 . S
N1048 H1060 0.984 . S
N1048 H1061 0.985 . S
N1049 C1051 1.356 . S
N1049 H1054 0.984 . S
N1049 H1055 0.985 . S
C1050 C1044 1.379 . S
C1050 C1047 1.363 . S
C1050 N1048 1.356 . S
C1051 C1045 1.363 . S
C1051 C1046 1.379 . S
C1051 N1049 1.356 . S
N1052 C1044 1.356 . S
N1052 H1058 0.984 . S
N1052 H1059 0.984 . S
N1053 C1046 1.356 . S
N1053 H1056 0.984 . S
N1053 H1057 0.985 . S
H1054 N1049 0.984 . S
H1055 N1049 0.985 . S
H1056 N1053 0.984 . S
H1057 N1053 0.985 . S
H1058 N1052 0.984 . S
H1059 N1052 0.984 . S
H1060 N1048 0.984 . S
H1061 N1048 0.985 . S
C1062 C1063 1.363 . S
C1062 C1068 1.379 . S
C1062 N1070 1.356 . S
C1063 C1062 1.363 . S
C1063 C1069 1.363 . S
C1064 C1065 1.363 . S
C1064 C1069 1.379 . S
C1064 N1071 1.356 . S
C1065 C1064 1.363 . S
C1065 C1068 1.363 . S
N1066 C1068 1.356 . S
N1066 H1078 0.984 . S
N1066 H1079 0.985 . S
N1067 C1069 1.356 . S
N1067 H1072 0.984 . S
N1067 H1073 0.985 . S
C1068 C1062 1.379 . S
C1068 C1065 1.363 . S
C1068 N1066 1.356 . S
C1069 C1063 1.363 . S
C1069 C1064 1.379 . S
C1069 N1067 1.356 . S
N1070 C1062 1.356 . S
N1070 H1076 0.984 . S
N1070 H1077 0.984 . S
N1071 C1064 1.356 . S
N1071 H1074 0.984 . S
N1071 H1075 0.985 . S
H1072 N1067 0.984 . S
H1073 N1067 0.985 . S
H1074 N1071 0.984 . S
H1075 N1071 0.985 . S
H1076 N1070 0.984 . S
H1077 N1070 0.984 . S
H1078 N1066 0.984 . S
H1079 N1066 0.985 . S
C1080 C1081 1.363 . S
C1080 C1086 1.379 . S
C1080 N1088 1.356 . S
C1081 C1080 1.363 . S
C1081 C1087 1.363 . S
C1082 C1083 1.363 . S
C1082 C1087 1.379 . S
C1082 N1089 1.356 . S
C1083 C1082 1.363 . S
C1083 C1086 1.363 . S
N1084 C1086 1.356 . S
N1084 H1096 0.984 . S
N1084 H1097 0.985 . S
N1085 C1087 1.356 . S
N1085 H1090 0.984 . S
N1085 H1091 0.985 . S
C1086 C1080 1.379 . S
C1086 C1083 1.363 . S
C1086 N1084 1.356 . S
C1087 C1081 1.363 . S
C1087 C1082 1.379 . S
C1087 N1085 1.356 . S
N1088 C1080 1.356 . S
N1088 H1094 0.984 . S
N1088 H1095 0.984 . S
N1089 C1082 1.356 . S
N1089 H1092 0.984 . S
N1089 H1093 0.985 . S
H1090 N1085 0.984 . S
H1091 N1085 0.985 . S
H1092 N1089 0.984 . S
H1093 N1089 0.985 . S
H1094 N1088 0.984 . S
H1095 N1088 0.984 . S
H1096 N1084 0.984 . S
H1097 N1084 0.985 . S
C1098 C1099 1.363 . S
C1098 C1104 1.379 . S
C1098 N1106 1.356 . S
C1099 C1098 1.363 . S
C1099 C1105 1.363 . S
C1100 C1101 1.363 . S
C1100 C1105 1.379 . S
C1100 N1107 1.356 . S
C1101 C1100 1.363 . S
C1101 C1104 1.363 . S
N1102 C1104 1.356 . S
N1102 H1114 0.984 . S
N1102 H1115 0.985 . S
N1103 C1105 1.356 . S
N1103 H1108 0.984 . S
N1103 H1109 0.985 . S
C1104 C1098 1.379 . S
C1104 C1101 1.363 . S
C1104 N1102 1.356 . S
C1105 C1099 1.363 . S
C1105 C1100 1.379 . S
C1105 N1103 1.356 . S
N1106 C1098 1.356 . S
N1106 H1112 0.984 . S
N1106 H1113 0.984 . S
N1107 C1100 1.356 . S
N1107 H1110 0.984 . S
N1107 H1111 0.985 . S
H1108 N1103 0.984 . S
H1109 N1103 0.985 . S
H1110 N1107 0.984 . S
H1111 N1107 0.985 . S
H1112 N1106 0.984 . S
H1113 N1106 0.984 . S
H1114 N1102 0.984 . S
H1115 N1102 0.985 . S
C1116 C1117 1.363 . S
C1116 C1122 1.379 . S
C1116 N1124 1.356 . S
C1117 C1116 1.363 . S
C1117 C1123 1.363 . S
C1118 C1119 1.363 . S
C1118 C1123 1.379 . S
C1118 N1125 1.356 . S
C1119 C1118 1.363 . S
C1119 C1122 1.363 . S
N1120 C1122 1.356 . S
N1120 H1132 0.984 . S
N1120 H1133 0.985 . S
N1121 C1123 1.356 . S
N1121 H1126 0.984 . S
N1121 H1127 0.985 . S
C1122 C1116 1.379 . S
C1122 C1119 1.363 . S
C1122 N1120 1.356 . S
C1123 C1117 1.363 . S
C1123 C1118 1.379 . S
C1123 N1121 1.356 . S
N1124 C1116 1.356 . S
N1124 H1130 0.984 . S
N1124 H1131 0.984 . S
N1125 C1118 1.356 . S
N1125 H1128 0.984 . S
N1125 H1129 0.985 . S
H1126 N1121 0.984 . S
H1127 N1121 0.985 . S
H1128 N1125 0.984 . S
H1129 N1125 0.985 . S
H1130 N1124 0.984 . S
H1131 N1124 0.984 . S
H1132 N1120 0.984 . S
H1133 N1120 0.985 . S
C1134 C1135 1.363 . S
C1134 C1140 1.379 . S
C1134 N1142 1.356 . S
C1135 C1134 1.363 . S
C1135 C1141 1.363 . S
C1136 C1137 1.363 . S
C1136 C1141 1.379 . S
C1136 N1143 1.356 . S
C1137 C1136 1.363 . S
C1137 C1140 1.363 . S
N1138 C1140 1.356 . S
N1138 H1150 0.984 . S
N1138 H1151 0.985 . S
N1139 C1141 1.356 . S
N1139 H1144 0.984 . S
N1139 H1145 0.985 . S
C1140 C1134 1.379 . S
C1140 C1137 1.363 . S
C1140 N1138 1.356 . S
C1141 C1135 1.363 . S
C1141 C1136 1.379 . S
C1141 N1139 1.356 . S
N1142 C1134 1.356 . S
N1142 H1148 0.984 . S
N1142 H1149 0.984 . S
N1143 C1136 1.356 . S
N1143 H1146 0.984 . S
N1143 H1147 0.985 . S
H1144 N1139 0.984 . S
H1145 N1139 0.985 . S
H1146 N1143 0.984 . S
H1147 N1143 0.985 . S
H1148 N1142 0.984 . S
H1149 N1142 0.984 . S
H1150 N1138 0.984 . S
H1151 N1138 0.985 . S
C1152 C1153 1.363 . S
C1152 C1158 1.379 . S
C1152 N1160 1.356 . S
C1153 C1152 1.363 . S
C1153 C1159 1.363 . S
C1154 C1155 1.363 . S
C1154 C1159 1.379 . S
C1154 N1161 1.356 . S
C1155 C1154 1.363 . S
C1155 C1158 1.363 . S
N1156 C1158 1.356 . S
N1156 H1168 0.984 . S
N1156 H1169 0.985 . S
N1157 C1159 1.356 . S
N1157 H1162 0.984 . S
N1157 H1163 0.985 . S
C1158 C1152 1.379 . S
C1158 C1155 1.363 . S
C1158 N1156 1.356 . S
C1159 C1153 1.363 . S
C1159 C1154 1.379 . S
C1159 N1157 1.356 . S
N1160 C1152 1.356 . S
N1160 H1166 0.984 . S
N1160 H1167 0.984 . S
N1161 C1154 1.356 . S
N1161 H1164 0.984 . S
N1161 H1165 0.985 . S
H1162 N1157 0.984 . S
H1163 N1157 0.985 . S
H1164 N1161 0.984 . S
H1165 N1161 0.985 . S
H1166 N1160 0.984 . S
H1167 N1160 0.984 . S
H1168 N1156 0.984 . S
H1169 N1156 0.985 . S
C1170 C1171 1.363 . S
C1170 C1176 1.379 . S
C1170 N1178 1.356 . S
C1171 C1170 1.363 . S
C1171 C1177 1.363 . S
C1172 C1173 1.363 . S
C1172 C1177 1.379 . S
C1172 N1179 1.356 . S
C1173 C1172 1.363 . S
C1173 C1176 1.363 . S
N1174 C1176 1.356 . S
N1174 H1186 0.984 . S
N1174 H1187 0.985 . S
N1175 C1177 1.356 . S
N1175 H1180 0.984 . S
N1175 H1181 0.985 . S
C1176 C1170 1.379 . S
C1176 C1173 1.363 . S
C1176 N1174 1.356 . S
C1177 C1171 1.363 . S
C1177 C1172 1.379 . S
C1177 N1175 1.356 . S
N1178 C1170 1.356 . S
N1178 H1184 0.984 . S
N1178 H1185 0.984 . S
N1179 C1172 1.356 . S
N1179 H1182 0.984 . S
N1179 H1183 0.985 . S
H1180 N1175 0.984 . S
H1181 N1175 0.985 . S
H1182 N1179 0.984 . S
H1183 N1179 0.985 . S
H1184 N1178 0.984 . S
H1185 N1178 0.984 . S
H1186 N1174 0.984 . S
H1187 N1174 0.985 . S
C1188 C1189 1.363 . S
C1188 C1194 1.379 . S
C1188 N1196 1.356 . S
C1189 C1188 1.363 . S
C1189 C1195 1.363 . S
C1190 C1191 1.363 . S
C1190 C1195 1.379 . S
C1190 N1197 1.356 . S
C1191 C1190 1.363 . S
C1191 C1194 1.363 . S
N1192 C1194 1.356 . S
N1192 H1204 0.984 . S
N1192 H1205 0.985 . S
N1193 C1195 1.356 . S
N1193 H1198 0.984 . S
N1193 H1199 0.985 . S
C1194 C1188 1.379 . S
C1194 C1191 1.363 . S
C1194 N1192 1.356 . S
C1195 C1189 1.363 . S
C1195 C1190 1.379 . S
C1195 N1193 1.356 . S
N1196 C1188 1.356 . S
N1196 H1202 0.984 . S
N1196 H1203 0.984 . S
N1197 C1190 1.356 . S
N1197 H1200 0.984 . S
N1197 H1201 0.985 . S
H1198 N1193 0.984 . S
H1199 N1193 0.985 . S
H1200 N1197 0.984 . S
H1201 N1197 0.985 . S
H1202 N1196 0.984 . S
H1203 N1196 0.984 . S
H1204 N1192 0.984 . S
H1205 N1192 0.985 . S
C1206 C1207 1.363 . S
C1206 C1212 1.379 . S
C1206 N1214 1.356 . S
C1207 C1206 1.363 . S
C1207 C1213 1.363 . S
C1208 C1209 1.363 . S
C1208 C1213 1.379 . S
C1208 N1215 1.356 . S
C1209 C1208 1.363 . S
C1209 C1212 1.363 . S
N1210 C1212 1.356 . S
N1210 H1222 0.984 . S
N1210 H1223 0.985 . S
N1211 C1213 1.356 . S
N1211 H1216 0.984 . S
N1211 H1217 0.985 . S
C1212 C1206 1.379 . S
C1212 C1209 1.363 . S
C1212 N1210 1.356 . S
C1213 C1207 1.363 . S
C1213 C1208 1.379 . S
C1213 N1211 1.356 . S
N1214 C1206 1.356 . S
N1214 H1220 0.984 . S
N1214 H1221 0.984 . S
N1215 C1208 1.356 . S
N1215 H1218 0.984 . S
N1215 H1219 0.985 . S
H1216 N1211 0.984 . S
H1217 N1211 0.985 . S
H1218 N1215 0.984 . S
H1219 N1215 0.985 . S
H1220 N1214 0.984 . S
H1221 N1214 0.984 . S
H1222 N1210 0.984 . S
H1223 N1210 0.985 . S
C1224 C1225 1.363 . S
C1224 C1230 1.379 . S
C1224 N1232 1.356 . S
C1225 C1224 1.363 . S
C1225 C1231 1.363 . S
C1226 C1227 1.363 . S
C1226 C1231 1.379 . S
C1226 N1233 1.356 . S
C1227 C1226 1.363 . S
C1227 C1230 1.363 . S
N1228 C1230 1.356 . S
N1228 H1240 0.984 . S
N1228 H1241 0.985 . S
N1229 C1231 1.356 . S
N1229 H1234 0.984 . S
N1229 H1235 0.985 . S
C1230 C1224 1.379 . S
C1230 C1227 1.363 . S
C1230 N1228 1.356 . S
C1231 C1225 1.363 . S
C1231 C1226 1.379 . S
C1231 N1229 1.356 . S
N1232 C1224 1.356 . S
N1232 H1238 0.984 . S
N1232 H1239 0.984 . S
N1233 C1226 1.356 . S
N1233 H1236 0.984 . S
N1233 H1237 0.985 . S
H1234 N1229 0.984 . S
H1235 N1229 0.985 . S
H1236 N1233 0.984 . S
H1237 N1233 0.985 . S
H1238 N1232 0.984 . S
H1239 N1232 0.984 . S
H1240 N1228 0.984 . S
H1241 N1228 0.985 . S
C1242 C1243 1.363 . S
C1242 C1248 1.379 . S
C1242 N1250 1.356 . S
C1243 C1242 1.363 . S
C1243 C1249 1.363 . S
C1244 C1245 1.363 . S
C1244 C1249 1.379 . S
C1244 N1251 1.356 . S
C1245 C1244 1.363 . S
C1245 C1248 1.363 . S
N1246 C1248 1.356 . S
N1246 H1258 0.984 . S
N1246 H1259 0.985 . S
N1247 C1249 1.356 . S
N1247 H1252 0.984 . S
N1247 H1253 0.985 . S
C1248 C1242 1.379 . S
C1248 C1245 1.363 . S
C1248 N1246 1.356 . S
C1249 C1243 1.363 . S
C1249 C1244 1.379 . S
C1249 N1247 1.356 . S
N1250 C1242 1.356 . S
N1250 H1256 0.984 . S
N1250 H1257 0.984 . S
N1251 C1244 1.356 . S
N1251 H1254 0.984 . S
N1251 H1255 0.985 . S
H1252 N1247 0.984 . S
H1253 N1247 0.985 . S
H1254 N1251 0.984 . S
H1255 N1251 0.985 . S
H1256 N1250 0.984 . S
H1257 N1250 0.984 . S
H1258 N1246 0.984 . S
H1259 N1246 0.985 . S
C1260 C1261 1.363 . S
C1260 C1266 1.379 . S
C1260 N1268 1.356 . S
C1261 C1260 1.363 . S
C1261 C1267 1.363 . S
C1262 C1263 1.363 . S
C1262 C1267 1.379 . S
C1262 N1269 1.356 . S
C1263 C1262 1.363 . S
C1263 C1266 1.363 . S
N1264 C1266 1.356 . S
N1264 H1276 0.984 . S
N1264 H1277 0.985 . S
N1265 C1267 1.356 . S
N1265 H1270 0.984 . S
N1265 H1271 0.985 . S
C1266 C1260 1.379 . S
C1266 C1263 1.363 . S
C1266 N1264 1.356 . S
C1267 C1261 1.363 . S
C1267 C1262 1.379 . S
C1267 N1265 1.356 . S
N1268 C1260 1.356 . S
N1268 H1274 0.984 . S
N1268 H1275 0.984 . S
N1269 C1262 1.356 . S
N1269 H1272 0.984 . S
N1269 H1273 0.985 . S
H1270 N1265 0.984 . S
H1271 N1265 0.985 . S
H1272 N1269 0.984 . S
H1273 N1269 0.985 . S
H1274 N1268 0.984 . S
H1275 N1268 0.984 . S
H1276 N1264 0.984 . S
H1277 N1264 0.985 . S
C1278 C1279 1.363 . S
C1278 C1284 1.379 . S
C1278 N1286 1.356 . S
C1279 C1278 1.363 . S
C1279 C1285 1.363 . S
C1280 C1281 1.363 . S
C1280 C1285 1.379 . S
C1280 N1287 1.356 . S
C1281 C1280 1.363 . S
C1281 C1284 1.363 . S
N1282 C1284 1.356 . S
N1282 H1294 0.984 . S
N1282 H1295 0.985 . S
N1283 C1285 1.356 . S
N1283 H1288 0.984 . S
N1283 H1289 0.985 . S
C1284 C1278 1.379 . S
C1284 C1281 1.363 . S
C1284 N1282 1.356 . S
C1285 C1279 1.363 . S
C1285 C1280 1.379 . S
C1285 N1283 1.356 . S
N1286 C1278 1.356 . S
N1286 H1292 0.984 . S
N1286 H1293 0.984 . S
N1287 C1280 1.356 . S
N1287 H1290 0.984 . S
N1287 H1291 0.985 . S
H1288 N1283 0.984 . S
H1289 N1283 0.985 . S
H1290 N1287 0.984 . S
H1291 N1287 0.985 . S
H1292 N1286 0.984 . S
H1293 N1286 0.984 . S
H1294 N1282 0.984 . S
H1295 N1282 0.985 . S
C1296 C1297 1.363 . S
C1296 C1302 1.379 . S
C1296 N1304 1.356 . S
C1297 C1296 1.363 . S
C1297 C1303 1.363 . S
C1298 C1299 1.363 . S
C1298 C1303 1.379 . S
C1298 N1305 1.356 . S
C1299 C1298 1.363 . S
C1299 C1302 1.363 . S
N1300 C1302 1.356 . S
N1300 H1312 0.984 . S
N1300 H1313 0.985 . S
N1301 C1303 1.356 . S
N1301 H1306 0.984 . S
N1301 H1307 0.985 . S
C1302 C1296 1.379 . S
C1302 C1299 1.363 . S
C1302 N1300 1.356 . S
C1303 C1297 1.363 . S
C1303 C1298 1.379 . S
C1303 N1301 1.356 . S
N1304 C1296 1.356 . S
N1304 H1310 0.984 . S
N1304 H1311 0.984 . S
N1305 C1298 1.356 . S
N1305 H1308 0.984 . S
N1305 H1309 0.985 . S
H1306 N1301 0.984 . S
H1307 N1301 0.985 . S
H1308 N1305 0.984 . S
H1309 N1305 0.985 . S
H1310 N1304 0.984 . S
H1311 N1304 0.984 . S
H1312 N1300 0.984 . S
H1313 N1300 0.985 . S
C1314 C1315 1.363 . S
C1314 C1320 1.379 . S
C1314 N1322 1.356 . S
C1315 C1314 1.363 . S
C1315 C1321 1.363 . S
C1316 C1317 1.363 . S
C1316 C1321 1.379 . S
C1316 N1323 1.356 . S
C1317 C1316 1.363 . S
C1317 C1320 1.363 . S
N1318 C1320 1.356 . S
N1318 H1330 0.984 . S
N1318 H1331 0.985 . S
N1319 C1321 1.356 . S
N1319 H1324 0.984 . S
N1319 H1325 0.985 . S
C1320 C1314 1.379 . S
C1320 C1317 1.363 . S
C1320 N1318 1.356 . S
C1321 C1315 1.363 . S
C1321 C1316 1.379 . S
C1321 N1319 1.356 . S
N1322 C1314 1.356 . S
N1322 H1328 0.984 . S
N1322 H1329 0.984 . S
N1323 C1316 1.356 . S
N1323 H1326 0.984 . S
N1323 H1327 0.985 . S
H1324 N1319 0.984 . S
H1325 N1319 0.985 . S
H1326 N1323 0.984 . S
H1327 N1323 0.985 . S
H1328 N1322 0.984 . S
H1329 N1322 0.984 . S
H1330 N1318 0.984 . S
H1331 N1318 0.985 . S
C1332 C1333 1.363 . S
C1332 C1338 1.379 . S
C1332 N1340 1.356 . S
C1333 C1332 1.363 . S
C1333 C1339 1.363 . S
C1334 C1335 1.363 . S
C1334 C1339 1.379 . S
C1334 N1341 1.356 . S
C1335 C1334 1.363 . S
C1335 C1338 1.363 . S
N1336 C1338 1.356 . S
N1336 H1348 0.984 . S
N1336 H1349 0.985 . S
N1337 C1339 1.356 . S
N1337 H1342 0.984 . S
N1337 H1343 0.985 . S
C1338 C1332 1.379 . S
C1338 C1335 1.363 . S
C1338 N1336 1.356 . S
C1339 C1333 1.363 . S
C1339 C1334 1.379 . S
C1339 N1337 1.356 . S
N1340 C1332 1.356 . S
N1340 H1346 0.984 . S
N1340 H1347 0.984 . S
N1341 C1334 1.356 . S
N1341 H1344 0.984 . S
N1341 H1345 0.985 . S
H1342 N1337 0.984 . S
H1343 N1337 0.985 . S
H1344 N1341 0.984 . S
H1345 N1341 0.985 . S
H1346 N1340 0.984 . S
H1347 N1340 0.984 . S
H1348 N1336 0.984 . S
H1349 N1336 0.985 . S
C1350 C1351 1.363 . S
C1350 C1356 1.379 . S
C1350 N1358 1.356 . S
C1351 C1350 1.363 . S
C1351 C1357 1.363 . S
C1352 C1353 1.363 . S
C1352 C1357 1.379 . S
C1352 N1359 1.356 . S
C1353 C1352 1.363 . S
C1353 C1356 1.363 . S
N1354 C1356 1.356 . S
N1354 H1366 0.984 . S
N1354 H1367 0.985 . S
N1355 C1357 1.356 . S
N1355 H1360 0.984 . S
N1355 H1361 0.985 . S
C1356 C1350 1.379 . S
C1356 C1353 1.363 . S
C1356 N1354 1.356 . S
C1357 C1351 1.363 . S
C1357 C1352 1.379 . S
C1357 N1355 1.356 . S
N1358 C1350 1.356 . S
N1358 H1364 0.984 . S
N1358 H1365 0.984 . S
N1359 C1352 1.356 . S
N1359 H1362 0.984 . S
N1359 H1363 0.985 . S
H1360 N1355 0.984 . S
H1361 N1355 0.985 . S
H1362 N1359 0.984 . S
H1363 N1359 0.985 . S
H1364 N1358 0.984 . S
H1365 N1358 0.984 . S
H1366 N1354 0.984 . S
H1367 N1354 0.985 . S
C1368 C1369 1.363 . S
C1368 C1374 1.379 . S
C1368 N1376 1.356 . S
C1369 C1368 1.363 . S
C1369 C1375 1.363 . S
C1370 C1371 1.363 . S
C1370 C1375 1.379 . S
C1370 N1377 1.356 . S
C1371 C1370 1.363 . S
C1371 C1374 1.363 . S
N1372 C1374 1.356 . S
N1372 H1384 0.984 . S
N1372 H1385 0.985 . S
N1373 C1375 1.356 . S
N1373 H1378 0.984 . S
N1373 H1379 0.985 . S
C1374 C1368 1.379 . S
C1374 C1371 1.363 . S
C1374 N1372 1.356 . S
C1375 C1369 1.363 . S
C1375 C1370 1.379 . S
C1375 N1373 1.356 . S
N1376 C1368 1.356 . S
N1376 H1382 0.984 . S
N1376 H1383 0.984 . S
N1377 C1370 1.356 . S
N1377 H1380 0.984 . S
N1377 H1381 0.985 . S
H1378 N1373 0.984 . S
H1379 N1373 0.985 . S
H1380 N1377 0.984 . S
H1381 N1377 0.985 . S
H1382 N1376 0.984 . S
H1383 N1376 0.984 . S
H1384 N1372 0.984 . S
H1385 N1372 0.985 . S
C1386 C1387 1.363 . S
C1386 C1392 1.379 . S
C1386 N1394 1.356 . S
C1387 C1386 1.363 . S
C1387 C1393 1.363 . S
C1388 C1389 1.363 . S
C1388 C1393 1.379 . S
C1388 N1395 1.356 . S
C1389 C1388 1.363 . S
C1389 C1392 1.363 . S
N1390 C1392 1.356 . S
N1390 H1402 0.984 . S
N1390 H1403 0.985 . S
N1391 C1393 1.356 . S
N1391 H1396 0.984 . S
N1391 H1397 0.985 . S
C1392 C1386 1.379 . S
C1392 C1389 1.363 . S
C1392 N1390 1.356 . S
C1393 C1387 1.363 . S
C1393 C1388 1.379 . S
C1393 N1391 1.356 . S
N1394 C1386 1.356 . S
N1394 H1400 0.984 . S
N1394 H1401 0.984 . S
N1395 C1388 1.356 . S
N1395 H1398 0.984 . S
N1395 H1399 0.985 . S
H1396 N1391 0.984 . S
H1397 N1391 0.985 . S
H1398 N1395 0.984 . S
H1399 N1395 0.985 . S
H1400 N1394 0.984 . S
H1401 N1394 0.984 . S
H1402 N1390 0.984 . S
H1403 N1390 0.985 . S
C1404 C1405 1.363 . S
C1404 C1410 1.379 . S
C1404 N1412 1.356 . S
C1405 C1404 1.363 . S
C1405 C1411 1.363 . S
C1406 C1407 1.363 . S
C1406 C1411 1.379 . S
C1406 N1413 1.356 . S
C1407 C1406 1.363 . S
C1407 C1410 1.363 . S
N1408 C1410 1.356 . S
N1408 H1420 0.984 . S
N1408 H1421 0.985 . S
N1409 C1411 1.356 . S
N1409 H1414 0.984 . S
N1409 H1415 0.985 . S
C1410 C1404 1.379 . S
C1410 C1407 1.363 . S
C1410 N1408 1.356 . S
C1411 C1405 1.363 . S
C1411 C1406 1.379 . S
C1411 N1409 1.356 . S
N1412 C1404 1.356 . S
N1412 H1418 0.984 . S
N1412 H1419 0.984 . S
N1413 C1406 1.356 . S
N1413 H1416 0.984 . S
N1413 H1417 0.985 . S
H1414 N1409 0.984 . S
H1415 N1409 0.985 . S
H1416 N1413 0.984 . S
H1417 N1413 0.985 . S
H1418 N1412 0.984 . S
H1419 N1412 0.984 . S
H1420 N1408 0.984 . S
H1421 N1408 0.985 . S
C1422 C1423 1.363 . S
C1422 C1428 1.379 . S
C1422 N1430 1.356 . S
C1423 C1422 1.363 . S
C1423 C1429 1.363 . S
C1424 C1425 1.363 . S
C1424 C1429 1.379 . S
C1424 N1431 1.356 . S
C1425 C1424 1.363 . S
C1425 C1428 1.363 . S
N1426 C1428 1.356 . S
N1426 H1438 0.984 . S
N1426 H1439 0.985 . S
N1427 C1429 1.356 . S
N1427 H1432 0.984 . S
N1427 H1433 0.985 . S
C1428 C1422 1.379 . S
C1428 C1425 1.363 . S
C1428 N1426 1.356 . S
C1429 C1423 1.363 . S
C1429 C1424 1.379 . S
C1429 N1427 1.356 . S
N1430 C1422 1.356 . S
N1430 H1436 0.984 . S
N1430 H1437 0.984 . S
N1431 C1424 1.356 . S
N1431 H1434 0.984 . S
N1431 H1435 0.985 . S
H1432 N1427 0.984 . S
H1433 N1427 0.985 . S
H1434 N1431 0.984 . S
H1435 N1431 0.985 . S
H1436 N1430 0.984 . S
H1437 N1430 0.984 . S
H1438 N1426 0.984 . S
H1439 N1426 0.985 . S
C1440 C1441 1.363 . S
C1440 C1446 1.379 . S
C1440 N1448 1.356 . S
C1441 C1440 1.363 . S
C1441 C1447 1.363 . S
C1442 C1443 1.363 . S
C1442 C1447 1.379 . S
C1442 N1449 1.356 . S
C1443 C1442 1.363 . S
C1443 C1446 1.363 . S
N1444 C1446 1.356 . S
N1444 H1456 0.984 . S
N1444 H1457 0.985 . S
N1445 C1447 1.356 . S
N1445 H1450 0.984 . S
N1445 H1451 0.985 . S
C1446 C1440 1.379 . S
C1446 C1443 1.363 . S
C1446 N1444 1.356 . S
C1447 C1441 1.363 . S
C1447 C1442 1.379 . S
C1447 N1445 1.356 . S
N1448 C1440 1.356 . S
N1448 H1454 0.984 . S
N1448 H1455 0.984 . S
N1449 C1442 1.356 . S
N1449 H1452 0.984 . S
N1449 H1453 0.985 . S
H1450 N1445 0.984 . S
H1451 N1445 0.985 . S
H1452 N1449 0.984 . S
H1453 N1449 0.985 . S
H1454 N1448 0.984 . S
H1455 N1448 0.984 . S
H1456 N1444 0.984 . S
H1457 N1444 0.985 . S
C1458 C1459 1.363 . S
C1458 C1464 1.379 . S
C1458 N1466 1.356 . S
C1459 C1458 1.363 . S
C1459 C1465 1.363 . S
C1460 C1461 1.363 . S
C1460 C1465 1.379 . S
C1460 N1467 1.356 . S
C1461 C1460 1.363 . S
C1461 C1464 1.363 . S
N1462 C1464 1.356 . S
N1462 H1474 0.984 . S
N1462 H1475 0.985 . S
N1463 C1465 1.356 . S
N1463 H1468 0.984 . S
N1463 H1469 0.985 . S
C1464 C1458 1.379 . S
C1464 C1461 1.363 . S
C1464 N1462 1.356 . S
C1465 C1459 1.363 . S
C1465 C1460 1.379 . S
C1465 N1463 1.356 . S
N1466 C1458 1.356 . S
N1466 H1472 0.984 . S
N1466 H1473 0.984 . S
N1467 C1460 1.356 . S
N1467 H1470 0.984 . S
N1467 H1471 0.985 . S
H1468 N1463 0.984 . S
H1469 N1463 0.985 . S
H1470 N1467 0.984 . S
H1471 N1467 0.985 . S
H1472 N1466 0.984 . S
H1473 N1466 0.984 . S
H1474 N1462 0.984 . S
H1475 N1462 0.985 . S
C1476 C1477 1.363 . S
C1476 C1482 1.379 . S
C1476 N1484 1.356 . S
C1477 C1476 1.363 . S
C1477 C1483 1.363 . S
C1478 C1479 1.363 . S
C1478 C1483 1.379 . S
C1478 N1485 1.356 . S
C1479 C1478 1.363 . S
C1479 C1482 1.363 . S
N1480 C1482 1.356 . S
N1480 H1492 0.984 . S
N1480 H1493 0.985 . S
N1481 C1483 1.356 . S
N1481 H1486 0.984 . S
N1481 H1487 0.985 . S
C1482 C1476 1.379 . S
C1482 C1479 1.363 . S
C1482 N1480 1.356 . S
C1483 C1477 1.363 . S
C1483 C1478 1.379 . S
C1483 N1481 1.356 . S
N1484 C1476 1.356 . S
N1484 H1490 0.984 . S
N1484 H1491 0.984 . S
N1485 C1478 1.356 . S
N1485 H1488 0.984 . S
N1485 H1489 0.985 . S
H1486 N1481 0.984 . S
H1487 N1481 0.985 . S
H1488 N1485 0.984 . S
H1489 N1485 0.985 . S
H1490 N1484 0.984 . S
H1491 N1484 0.984 . S
H1492 N1480 0.984 . S
H1493 N1480 0.985 . S
C1494 C1495 1.363 . S
C1494 C1500 1.379 . S
C1494 N1502 1.356 . S
C1495 C1494 1.363 . S
C1495 C1501 1.363 1_565 S
C1496 C1497 1.363 . S
C1496 C1501 1.379 . S
C1496 N1503 1.356 . S
C1497 C1496 1.363 . S
C1497 C1500 1.363 1_545 S
N1498 C1500 1.356 . S
N1498 H1510 0.984 . S
N1498 H1511 0.985 . S
N1499 C1501 1.356 . S
N1499 H1504 0.984 . S
N1499 H1505 0.985 . S
C1500 C1494 1.379 . S
C1500 C1497 1.363 1_565 S
C1500 N1498 1.356 . S
C1501 C1495 1.363 1_545 S
C1501 C1496 1.379 . S
C1501 N1499 1.356 . S
N1502 C1494 1.356 . S
N1502 H1508 0.984 . S
N1502 H1509 0.984 . S
N1503 C1496 1.356 . S
N1503 H1506 0.984 . S
N1503 H1507 0.985 . S
H1504 N1499 0.984 . S
H1505 N1499 0.985 . S
H1506 N1503 0.984 . S
H1507 N1503 0.985 . S
H1508 N1502 0.984 . S
H1509 N1502 0.984 . S
H1510 N1498 0.984 . S
H1511 N1498 0.985 . S
C1512 C1513 1.363 1_455 S
C1512 C1518 1.379 . S
C1512 N1520 1.356 . S
C1513 C1512 1.363 1_655 S
C1513 C1519 1.363 . S
C1514 C1515 1.363 . S
C1514 C1519 1.379 . S
C1514 N1521 1.356 . S
C1515 C1514 1.363 . S
C1515 C1518 1.363 1_655 S
N1516 C1518 1.356 . S
N1516 H1528 0.984 . S
N1516 H1529 0.985 . S
N1517 C1519 1.356 . S
N1517 H1522 0.984 . S
N1517 H1523 0.985 . S
C1518 C1512 1.379 . S
C1518 C1515 1.363 1_455 S
C1518 N1516 1.356 . S
C1519 C1513 1.363 . S
C1519 C1514 1.379 . S
C1519 N1517 1.356 . S
N1520 C1512 1.356 . S
N1520 H1526 0.984 . S
N1520 H1527 0.984 . S
N1521 C1514 1.356 . S
N1521 H1524 0.984 . S
N1521 H1525 0.985 . S
H1522 N1517 0.984 . S
H1523 N1517 0.985 . S
H1524 N1521 0.984 . S
H1525 N1521 0.985 . S
H1526 N1520 0.984 . S
H1527 N1520 0.984 . S
H1528 N1516 0.984 . S
H1529 N1516 0.985 . S
C1530 C1531 1.363 . S
C1530 C1536 1.379 . S
C1530 N1538 1.356 . S
C1531 C1530 1.363 . S
C1531 C1537 1.363 . S
C1532 C1533 1.363 . S
C1532 C1537 1.379 . S
C1532 N1539 1.356 . S
C1533 C1532 1.363 . S
C1533 C1536 1.363 . S
N1534 C1536 1.356 . S
N1534 H1546 0.984 . S
N1534 H1547 0.985 . S
N1535 C1537 1.356 . S
N1535 H1540 0.984 . S
N1535 H1541 0.985 . S
C1536 C1530 1.379 . S
C1536 C1533 1.363 . S
C1536 N1534 1.356 . S
C1537 C1531 1.363 . S
C1537 C1532 1.379 . S
C1537 N1535 1.356 . S
N1538 C1530 1.356 . S
N1538 H1544 0.984 . S
N1538 H1545 0.984 . S
N1539 C1532 1.356 . S
N1539 H1542 0.984 . S
N1539 H1543 0.985 . S
H1540 N1535 0.984 . S
H1541 N1535 0.985 . S
H1542 N1539 0.984 . S
H1543 N1539 0.985 . S
H1544 N1538 0.984 . S
H1545 N1538 0.984 . S
H1546 N1534 0.984 . S
H1547 N1534 0.985 . S
C1548 C1549 1.363 1_565 S
C1548 C1554 1.379 . S
C1548 N1556 1.356 . S
C1549 C1548 1.363 1_545 S
C1549 C1555 1.363 . S
C1550 C1551 1.363 1_545 S
C1550 C1555 1.379 . S
C1550 N1557 1.356 . S
C1551 C1550 1.363 1_565 S
C1551 C1554 1.363 . S
N1552 C1554 1.356 . S
N1552 H1564 0.984 . S
N1552 H1565 0.985 . S
N1553 C1555 1.356 . S
N1553 H1558 0.984 . S
N1553 H1559 0.985 . S
C1554 C1548 1.379 . S
C1554 C1551 1.363 . S
C1554 N1552 1.356 . S
C1555 C1549 1.363 . S
C1555 C1550 1.379 . S
C1555 N1553 1.356 . S
N1556 C1548 1.356 . S
N1556 H1562 0.984 . S
N1556 H1563 0.984 . S
N1557 C1550 1.356 . S
N1557 H1560 0.984 . S
N1557 H1561 0.985 . S
H1558 N1553 0.984 . S
H1559 N1553 0.985 . S
H1560 N1557 0.984 . S
H1561 N1557 0.985 . S
H1562 N1556 0.984 . S
H1563 N1556 0.984 . S
H1564 N1552 0.984 . S
H1565 N1552 0.985 . S
C1566 C1567 1.363 1_455 S
C1566 C1572 1.379 . S
C1566 N1574 1.356 . S
C1567 C1566 1.363 1_655 S
C1567 C1573 1.363 . S
C1568 C1569 1.363 1_655 S
C1568 C1573 1.379 . S
C1568 N1575 1.356 . S
C1569 C1568 1.363 1_455 S
C1569 C1572 1.363 . S
N1570 C1572 1.356 . S
N1570 H1582 0.984 . S
N1570 H1583 0.985 . S
N1571 C1573 1.356 . S
N1571 H1576 0.984 . S
N1571 H1577 0.985 . S
C1572 C1566 1.379 . S
C1572 C1569 1.363 . S
C1572 N1570 1.356 . S
C1573 C1567 1.363 . S
C1573 C1568 1.379 . S
C1573 N1571 1.356 . S
N1574 C1566 1.356 . S
N1574 H1580 0.984 . S
N1574 H1581 0.984 . S
N1575 C1568 1.356 . S
N1575 H1578 0.984 . S
N1575 H1579 0.985 . S
H1576 N1571 0.984 . S
H1577 N1571 0.985 . S
H1578 N1575 0.984 . S
H1579 N1575 0.985 . S
H1580 N1574 0.984 . S
H1581 N1574 0.984 . S
H1582 N1570 0.984 . S
H1583 N1570 0.985 . S
C1584 C1585 1.363 . S
C1584 C1590 1.379 . S
C1584 N1592 1.356 . S
C1585 C1584 1.363 . S
C1585 C1591 1.363 . S
C1586 C1587 1.363 . S
C1586 C1591 1.379 . S
C1586 N1593 1.356 . S
C1587 C1586 1.363 . S
C1587 C1590 1.363 . S
N1588 C1590 1.356 . S
N1588 H1600 0.984 . S
N1588 H1601 0.985 . S
N1589 C1591 1.356 . S
N1589 H1594 0.984 . S
N1589 H1595 0.985 . S
C1590 C1584 1.379 . S
C1590 C1587 1.363 . S
C1590 N1588 1.356 . S
C1591 C1585 1.363 . S
C1591 C1586 1.379 . S
C1591 N1589 1.356 . S
N1592 C1584 1.356 . S
N1592 H1598 0.984 . S
N1592 H1599 0.984 . S
N1593 C1586 1.356 . S
N1593 H1596 0.984 . S
N1593 H1597 0.985 . S
H1594 N1589 0.984 . S
H1595 N1589 0.985 . S
H1596 N1593 0.984 . S
H1597 N1593 0.985 . S
H1598 N1592 0.984 . S
H1599 N1592 0.984 . S
H1600 N1588 0.984 . S
H1601 N1588 0.985 . S
C1602 C1603 1.363 . S
C1602 C1608 1.379 . S
C1602 N1610 1.356 . S
C1603 C1602 1.363 . S
C1603 C1609 1.363 . S
C1604 C1605 1.363 . S
C1604 C1609 1.379 . S
C1604 N1611 1.356 . S
C1605 C1604 1.363 . S
C1605 C1608 1.363 . S
N1606 C1608 1.356 . S
N1606 H1618 0.984 . S
N1606 H1619 0.985 . S
N1607 C1609 1.356 . S
N1607 H1612 0.984 . S
N1607 H1613 0.985 . S
C1608 C1602 1.379 . S
C1608 C1605 1.363 . S
C1608 N1606 1.356 . S
C1609 C1603 1.363 . S
C1609 C1604 1.379 . S
C1609 N1607 1.356 . S
N1610 C1602 1.356 . S
N1610 H1616 0.984 . S
N1610 H1617 0.984 . S
N1611 C1604 1.356 . S
N1611 H1614 0.984 . S
N1611 H1615 0.985 . S
H1612 N1607 0.984 . S
H1613 N1607 0.985 . S
H1614 N1611 0.984 . S
H1615 N1611 0.985 . S
H1616 N1610 0.984 . S
H1617 N1610 0.984 . S
H1618 N1606 0.984 . S
H1619 N1606 0.985 . S
C1620 C1621 1.363 . S
C1620 C1626 1.379 . S
C1620 N1628 1.356 . S
C1621 C1620 1.363 . S
C1621 C1627 1.363 . S
C1622 C1623 1.363 . S
C1622 C1627 1.379 . S
C1622 N1629 1.356 . S
C1623 C1622 1.363 . S
C1623 C1626 1.363 . S
N1624 C1626 1.356 . S
N1624 H1636 0.984 . S
N1624 H1637 0.985 . S
N1625 C1627 1.356 . S
N1625 H1630 0.984 . S
N1625 H1631 0.985 . S
C1626 C1620 1.379 . S
C1626 C1623 1.363 . S
C1626 N1624 1.356 . S
C1627 C1621 1.363 . S
C1627 C1622 1.379 . S
C1627 N1625 1.356 . S
N1628 C1620 1.356 . S
N1628 H1634 0.984 . S
N1628 H1635 0.984 . S
N1629 C1622 1.356 . S
N1629 H1632 0.984 . S
N1629 H1633 0.985 . S
H1630 N1625 0.984 . S
H1631 N1625 0.985 . S
H1632 N1629 0.984 . S
H1633 N1629 0.985 . S
H1634 N1628 0.984 . S
H1635 N1628 0.984 . S
H1636 N1624 0.984 . S
H1637 N1624 0.985 . S
C1638 C1639 1.363 . S
C1638 C1644 1.379 . S
C1638 N1646 1.356 . S
C1639 C1638 1.363 . S
C1639 C1645 1.363 . S
C1640 C1641 1.363 . S
C1640 C1645 1.379 . S
C1640 N1647 1.356 . S
C1641 C1640 1.363 . S
C1641 C1644 1.363 . S
N1642 C1644 1.356 . S
N1642 H1654 0.984 . S
N1642 H1655 0.985 . S
N1643 C1645 1.356 . S
N1643 H1648 0.984 . S
N1643 H1649 0.985 . S
C1644 C1638 1.379 . S
C1644 C1641 1.363 . S
C1644 N1642 1.356 . S
C1645 C1639 1.363 . S
C1645 C1640 1.379 . S
C1645 N1643 1.356 . S
N1646 C1638 1.356 . S
N1646 H1652 0.984 . S
N1646 H1653 0.984 . S
N1647 C1640 1.356 . S
N1647 H1650 0.984 . S
N1647 H1651 0.985 . S
H1648 N1643 0.984 . S
H1649 N1643 0.985 . S
H1650 N1647 0.984 . S
H1651 N1647 0.985 . S
H1652 N1646 0.984 . S
H1653 N1646 0.984 . S
H1654 N1642 0.984 . S
H1655 N1642 0.985 . S
C1656 C1657 1.363 . S
C1656 C1662 1.379 . S
C1656 N1664 1.356 . S
C1657 C1656 1.363 . S
C1657 C1663 1.363 . S
C1658 C1659 1.363 . S
C1658 C1663 1.379 . S
C1658 N1665 1.356 . S
C1659 C1658 1.363 . S
C1659 C1662 1.363 . S
N1660 C1662 1.356 . S
N1660 H1672 0.984 . S
N1660 H1673 0.985 . S
N1661 C1663 1.356 . S
N1661 H1666 0.984 . S
N1661 H1667 0.985 . S
C1662 C1656 1.379 . S
C1662 C1659 1.363 . S
C1662 N1660 1.356 . S
C1663 C1657 1.363 . S
C1663 C1658 1.379 . S
C1663 N1661 1.356 . S
N1664 C1656 1.356 . S
N1664 H1670 0.984 . S
N1664 H1671 0.984 . S
N1665 C1658 1.356 . S
N1665 H1668 0.984 . S
N1665 H1669 0.985 . S
H1666 N1661 0.984 . S
H1667 N1661 0.985 . S
H1668 N1665 0.984 . S
H1669 N1665 0.985 . S
H1670 N1664 0.984 . S
H1671 N1664 0.984 . S
H1672 N1660 0.984 . S
H1673 N1660 0.985 . S
C1674 C1675 1.363 . S
C1674 C1680 1.379 . S
C1674 N1682 1.356 . S
C1675 C1674 1.363 . S
C1675 C1681 1.363 . S
C1676 C1677 1.363 . S
C1676 C1681 1.379 . S
C1676 N1683 1.356 . S
C1677 C1676 1.363 . S
C1677 C1680 1.363 . S
N1678 C1680 1.356 . S
N1678 H1690 0.984 . S
N1678 H1691 0.985 . S
N1679 C1681 1.356 . S
N1679 H1684 0.984 . S
N1679 H1685 0.985 . S
C1680 C1674 1.379 . S
C1680 C1677 1.363 . S
C1680 N1678 1.356 . S
C1681 C1675 1.363 . S
C1681 C1676 1.379 . S
C1681 N1679 1.356 . S
N1682 C1674 1.356 . S
N1682 H1688 0.984 . S
N1682 H1689 0.984 . S
N1683 C1676 1.356 . S
N1683 H1686 0.984 . S
N1683 H1687 0.985 . S
H1684 N1679 0.984 . S
H1685 N1679 0.985 . S
H1686 N1683 0.984 . S
H1687 N1683 0.985 . S
H1688 N1682 0.984 . S
H1689 N1682 0.984 . S
H1690 N1678 0.984 . S
H1691 N1678 0.985 . S
C1692 C1693 1.363 . S
C1692 C1698 1.379 . S
C1692 N1700 1.356 . S
C1693 C1692 1.363 . S
C1693 C1699 1.363 . S
C1694 C1695 1.363 . S
C1694 C1699 1.379 . S
C1694 N1701 1.356 . S
C1695 C1694 1.363 . S
C1695 C1698 1.363 . S
N1696 C1698 1.356 . S
N1696 H1708 0.984 . S
N1696 H1709 0.985 . S
N1697 C1699 1.356 . S
N1697 H1702 0.984 . S
N1697 H1703 0.985 . S
C1698 C1692 1.379 . S
C1698 C1695 1.363 . S
C1698 N1696 1.356 . S
C1699 C1693 1.363 . S
C1699 C1694 1.379 . S
C1699 N1697 1.356 . S
N1700 C1692 1.356 . S
N1700 H1706 0.984 . S
N1700 H1707 0.984 1_556 S
N1701 C1694 1.356 . S
N1701 H1704 0.984 . S
N1701 H1705 0.985 . S
H1702 N1697 0.984 . S
H1703 N1697 0.985 . S
H1704 N1701 0.984 . S
H1705 N1701 0.985 . S
H1706 N1700 0.984 . S
H1707 N1700 0.984 1_554 S
H1708 N1696 0.984 . S
H1709 N1696 0.985 . S
C1710 C1711 1.363 . S
C1710 C1716 1.379 . S
C1710 N1718 1.356 . S
C1711 C1710 1.363 . S
C1711 C1717 1.363 . S
C1712 C1713 1.363 . S
C1712 C1717 1.379 . S
C1712 N1719 1.356 . S
C1713 C1712 1.363 . S
C1713 C1716 1.363 . S
N1714 C1716 1.356 . S
N1714 H1726 0.984 . S
N1714 H1727 0.985 . S
N1715 C1717 1.356 . S
N1715 H1720 0.984 . S
N1715 H1721 0.985 . S
C1716 C1710 1.379 . S
C1716 C1713 1.363 . S
C1716 N1714 1.356 . S
C1717 C1711 1.363 . S
C1717 C1712 1.379 . S
C1717 N1715 1.356 . S
N1718 C1710 1.356 . S
N1718 H1724 0.984 . S
N1718 H1725 0.984 . S
N1719 C1712 1.356 . S
N1719 H1722 0.984 . S
N1719 H1723 0.985 . S
H1720 N1715 0.984 . S
H1721 N1715 0.985 . S
H1722 N1719 0.984 . S
H1723 N1719 0.985 . S
H1724 N1718 0.984 . S
H1725 N1718 0.984 . S
H1726 N1714 0.984 . S
H1727 N1714 0.985 . S
C1728 C1729 1.363 . S
C1728 C1734 1.379 . S
C1728 N1736 1.356 . S
C1729 C1728 1.363 . S
C1729 C1735 1.363 . S
C1730 C1731 1.363 . S
C1730 C1735 1.379 . S
C1730 N1737 1.356 . S
C1731 C1730 1.363 . S
C1731 C1734 1.363 . S
N1732 C1734 1.356 . S
N1732 H1744 0.984 . S
N1732 H1745 0.985 . S
N1733 C1735 1.356 . S
N1733 H1738 0.984 . S
N1733 H1739 0.985 . S
C1734 C1728 1.379 . S
C1734 C1731 1.363 . S
C1734 N1732 1.356 . S
C1735 C1729 1.363 . S
C1735 C1730 1.379 . S
C1735 N1733 1.356 . S
N1736 C1728 1.356 . S
N1736 H1742 0.984 . S
N1736 H1743 0.984 . S
N1737 C1730 1.356 . S
N1737 H1740 0.984 . S
N1737 H1741 0.985 . S
H1738 N1733 0.984 . S
H1739 N1733 0.985 . S
H1740 N1737 0.984 . S
H1741 N1737 0.985 . S
H1742 N1736 0.984 . S
H1743 N1736 0.984 . S
H1744 N1732 0.984 . S
H1745 N1732 0.985 . S
C1746 C1747 1.363 . S
C1746 C1752 1.379 . S
C1746 N1754 1.356 . S
C1747 C1746 1.363 . S
C1747 C1753 1.363 . S
C1748 C1749 1.363 . S
C1748 C1753 1.379 . S
C1748 N1755 1.356 . S
C1749 C1748 1.363 . S
C1749 C1752 1.363 . S
N1750 C1752 1.356 . S
N1750 H1762 0.984 . S
N1750 H1763 0.985 . S
N1751 C1753 1.356 . S
N1751 H1756 0.984 . S
N1751 H1757 0.985 . S
C1752 C1746 1.379 . S
C1752 C1749 1.363 . S
C1752 N1750 1.356 . S
C1753 C1747 1.363 . S
C1753 C1748 1.379 . S
C1753 N1751 1.356 . S
N1754 C1746 1.356 . S
N1754 H1760 0.984 . S
N1754 H1761 0.984 . S
N1755 C1748 1.356 . S
N1755 H1758 0.984 . S
N1755 H1759 0.985 . S
H1756 N1751 0.984 . S
H1757 N1751 0.985 . S
H1758 N1755 0.984 . S
H1759 N1755 0.985 . S
H1760 N1754 0.984 . S
H1761 N1754 0.984 . S
H1762 N1750 0.984 . S
H1763 N1750 0.985 . S
C1764 C1765 1.363 . S
C1764 C1770 1.379 . S
C1764 N1772 1.356 . S
C1765 C1764 1.363 . S
C1765 C1771 1.363 . S
C1766 C1767 1.363 . S
C1766 C1771 1.379 . S
C1766 N1773 1.356 . S
C1767 C1766 1.363 . S
C1767 C1770 1.363 . S
N1768 C1770 1.356 . S
N1768 H1780 0.984 . S
N1768 H1781 0.985 . S
N1769 C1771 1.356 . S
N1769 H1774 0.984 . S
N1769 H1775 0.985 . S
C1770 C1764 1.379 . S
C1770 C1767 1.363 . S
C1770 N1768 1.356 . S
C1771 C1765 1.363 . S
C1771 C1766 1.379 . S
C1771 N1769 1.356 . S
N1772 C1764 1.356 . S
N1772 H1778 0.984 . S
N1772 H1779 0.984 . S
N1773 C1766 1.356 . S
N1773 H1776 0.984 . S
N1773 H1777 0.985 . S
H1774 N1769 0.984 . S
H1775 N1769 0.985 . S
H1776 N1773 0.984 . S
H1777 N1773 0.985 . S
H1778 N1772 0.984 . S
H1779 N1772 0.984 . S
H1780 N1768 0.984 . S
H1781 N1768 0.985 . S
C1782 C1783 1.363 . S
C1782 C1788 1.379 . S
C1782 N1790 1.356 . S
C1783 C1782 1.363 . S
C1783 C1789 1.363 . S
C1784 C1785 1.363 . S
C1784 C1789 1.379 . S
C1784 N1791 1.356 . S
C1785 C1784 1.363 . S
C1785 C1788 1.363 . S
N1786 C1788 1.356 . S
N1786 H1798 0.984 . S
N1786 H1799 0.985 . S
N1787 C1789 1.356 . S
N1787 H1792 0.984 . S
N1787 H1793 0.985 . S
C1788 C1782 1.379 . S
C1788 C1785 1.363 . S
C1788 N1786 1.356 . S
C1789 C1783 1.363 . S
C1789 C1784 1.379 . S
C1789 N1787 1.356 . S
N1790 C1782 1.356 . S
N1790 H1796 0.984 . S
N1790 H1797 0.984 . S
N1791 C1784 1.356 . S
N1791 H1794 0.984 . S
N1791 H1795 0.985 . S
H1792 N1787 0.984 . S
H1793 N1787 0.985 . S
H1794 N1791 0.984 . S
H1795 N1791 0.985 . S
H1796 N1790 0.984 . S
H1797 N1790 0.984 . S
H1798 N1786 0.984 . S
H1799 N1786 0.985 . S
C1800 C1801 1.363 . S
C1800 C1806 1.379 . S
C1800 N1808 1.356 . S
C1801 C1800 1.363 . S
C1801 C1807 1.363 . S
C1802 C1803 1.363 . S
C1802 C1807 1.379 . S
C1802 N1809 1.356 . S
C1803 C1802 1.363 . S
C1803 C1806 1.363 . S
N1804 C1806 1.356 . S
N1804 H1816 0.984 . S
N1804 H1817 0.985 . S
N1805 C1807 1.356 . S
N1805 H1810 0.984 . S
N1805 H1811 0.985 . S
C1806 C1800 1.379 . S
C1806 C1803 1.363 . S
C1806 N1804 1.356 . S
C1807 C1801 1.363 . S
C1807 C1802 1.379 . S
C1807 N1805 1.356 . S
N1808 C1800 1.356 . S
N1808 H1814 0.984 . S
N1808 H1815 0.984 . S
N1809 C1802 1.356 . S
N1809 H1812 0.984 . S
N1809 H1813 0.985 . S
H1810 N1805 0.984 . S
H1811 N1805 0.985 . S
H1812 N1809 0.984 . S
H1813 N1809 0.985 . S
H1814 N1808 0.984 . S
H1815 N1808 0.984 . S
H1816 N1804 0.984 . S
H1817 N1804 0.985 . S
C1818 C1819 1.363 . S
C1818 C1824 1.379 . S
C1818 N1826 1.356 . S
C1819 C1818 1.363 . S
C1819 C1825 1.363 . S
C1820 C1821 1.363 . S
C1820 C1825 1.379 . S
C1820 N1827 1.356 . S
C1821 C1820 1.363 . S
C1821 C1824 1.363 . S
N1822 C1824 1.356 . S
N1822 H1834 0.984 . S
N1822 H1835 0.985 . S
N1823 C1825 1.356 . S
N1823 H1828 0.984 . S
N1823 H1829 0.985 . S
C1824 C1818 1.379 . S
C1824 C1821 1.363 . S
C1824 N1822 1.356 . S
C1825 C1819 1.363 . S
C1825 C1820 1.379 . S
C1825 N1823 1.356 . S
N1826 C1818 1.356 . S
N1826 H1832 0.984 . S
N1826 H1833 0.984 . S
N1827 C1820 1.356 . S
N1827 H1830 0.984 . S
N1827 H1831 0.985 . S
H1828 N1823 0.984 . S
H1829 N1823 0.985 . S
H1830 N1827 0.984 . S
H1831 N1827 0.985 . S
H1832 N1826 0.984 . S
H1833 N1826 0.984 . S
H1834 N1822 0.984 . S
H1835 N1822 0.985 . S
C1836 C1837 1.363 . S
C1836 C1842 1.379 . S
C1836 N1844 1.356 . S
C1837 C1836 1.363 . S
C1837 C1843 1.363 . S
C1838 C1839 1.363 . S
C1838 C1843 1.379 . S
C1838 N1845 1.356 . S
C1839 C1838 1.363 . S
C1839 C1842 1.363 . S
N1840 C1842 1.356 . S
N1840 H1852 0.984 . S
N1840 H1853 0.985 . S
N1841 C1843 1.356 . S
N1841 H1846 0.984 . S
N1841 H1847 0.985 . S
C1842 C1836 1.379 . S
C1842 C1839 1.363 . S
C1842 N1840 1.356 . S
C1843 C1837 1.363 . S
C1843 C1838 1.379 . S
C1843 N1841 1.356 . S
N1844 C1836 1.356 . S
N1844 H1850 0.984 . S
N1844 H1851 0.984 . S
N1845 C1838 1.356 . S
N1845 H1848 0.984 . S
N1845 H1849 0.985 . S
H1846 N1841 0.984 . S
H1847 N1841 0.985 . S
H1848 N1845 0.984 . S
H1849 N1845 0.985 . S
H1850 N1844 0.984 . S
H1851 N1844 0.984 . S
H1852 N1840 0.984 . S
H1853 N1840 0.985 . S
C1854 C1855 1.363 . S
C1854 C1860 1.379 . S
C1854 N1862 1.356 . S
C1855 C1854 1.363 . S
C1855 C1861 1.363 . S
C1856 C1857 1.363 . S
C1856 C1861 1.379 . S
C1856 N1863 1.356 . S
C1857 C1856 1.363 . S
C1857 C1860 1.363 . S
N1858 C1860 1.356 . S
N1858 H1870 0.984 . S
N1858 H1871 0.985 . S
N1859 C1861 1.356 . S
N1859 H1864 0.984 . S
N1859 H1865 0.985 . S
C1860 C1854 1.379 . S
C1860 C1857 1.363 . S
C1860 N1858 1.356 . S
C1861 C1855 1.363 . S
C1861 C1856 1.379 . S
C1861 N1859 1.356 . S
N1862 C1854 1.356 . S
N1862 H1868 0.984 . S
N1862 H1869 0.984 . S
N1863 C1856 1.356 . S
N1863 H1866 0.984 . S
N1863 H1867 0.985 . S
H1864 N1859 0.984 . S
H1865 N1859 0.985 . S
H1866 N1863 0.984 . S
H1867 N1863 0.985 . S
H1868 N1862 0.984 . S
H1869 N1862 0.984 . S
H1870 N1858 0.984 . S
H1871 N1858 0.985 . S
C1872 C1873 1.363 . S
C1872 C1878 1.379 . S
C1872 N1880 1.356 . S
C1873 C1872 1.363 . S
C1873 C1879 1.363 . S
C1874 C1875 1.363 . S
C1874 C1879 1.379 . S
C1874 N1881 1.356 . S
C1875 C1874 1.363 . S
C1875 C1878 1.363 . S
N1876 C1878 1.356 . S
N1876 H1888 0.984 . S
N1876 H1889 0.985 . S
N1877 C1879 1.356 . S
N1877 H1882 0.984 . S
N1877 H1883 0.985 . S
C1878 C1872 1.379 . S
C1878 C1875 1.363 . S
C1878 N1876 1.356 . S
C1879 C1873 1.363 . S
C1879 C1874 1.379 . S
C1879 N1877 1.356 . S
N1880 C1872 1.356 . S
N1880 H1886 0.984 . S
N1880 H1887 0.984 . S
N1881 C1874 1.356 . S
N1881 H1884 0.984 . S
N1881 H1885 0.985 . S
H1882 N1877 0.984 . S
H1883 N1877 0.985 . S
H1884 N1881 0.984 . S
H1885 N1881 0.985 . S
H1886 N1880 0.984 . S
H1887 N1880 0.984 . S
H1888 N1876 0.984 . S
H1889 N1876 0.985 . S
C1890 C1891 1.363 . S
C1890 C1896 1.379 . S
C1890 N1898 1.356 . S
C1891 C1890 1.363 . S
C1891 C1897 1.363 . S
C1892 C1893 1.363 . S
C1892 C1897 1.379 . S
C1892 N1899 1.356 . S
C1893 C1892 1.363 . S
C1893 C1896 1.363 . S
N1894 C1896 1.356 . S
N1894 H1906 0.984 . S
N1894 H1907 0.985 . S
N1895 C1897 1.356 . S
N1895 H1900 0.984 . S
N1895 H1901 0.985 . S
C1896 C1890 1.379 . S
C1896 C1893 1.363 . S
C1896 N1894 1.356 . S
C1897 C1891 1.363 . S
C1897 C1892 1.379 . S
C1897 N1895 1.356 . S
N1898 C1890 1.356 . S
N1898 H1904 0.984 . S
N1898 H1905 0.984 . S
N1899 C1892 1.356 . S
N1899 H1902 0.984 . S
N1899 H1903 0.985 . S
H1900 N1895 0.984 . S
H1901 N1895 0.985 . S
H1902 N1899 0.984 . S
H1903 N1899 0.985 . S
H1904 N1898 0.984 . S
H1905 N1898 0.984 . S
H1906 N1894 0.984 . S
H1907 N1894 0.985 . S
C1908 C1909 1.363 . S
C1908 C1914 1.379 . S
C1908 N1916 1.356 . S
C1909 C1908 1.363 . S
C1909 C1915 1.363 . S
C1910 C1911 1.363 . S
C1910 C1915 1.379 . S
C1910 N1917 1.356 . S
C1911 C1910 1.363 . S
C1911 C1914 1.363 . S
N1912 C1914 1.356 . S
N1912 H1924 0.984 . S
N1912 H1925 0.985 . S
N1913 C1915 1.356 . S
N1913 H1918 0.984 . S
N1913 H1919 0.985 . S
C1914 C1908 1.379 . S
C1914 C1911 1.363 . S
C1914 N1912 1.356 . S
C1915 C1909 1.363 . S
C1915 C1910 1.379 . S
C1915 N1913 1.356 . S
N1916 C1908 1.356 . S
N1916 H1922 0.984 . S
N1916 H1923 0.984 . S
N1917 C1910 1.356 . S
N1917 H1920 0.984 . S
N1917 H1921 0.985 . S
H1918 N1913 0.984 . S
H1919 N1913 0.985 . S
H1920 N1917 0.984 . S
H1921 N1917 0.985 . S
H1922 N1916 0.984 . S
H1923 N1916 0.984 . S
H1924 N1912 0.984 . S
H1925 N1912 0.985 . S
C1926 C1927 1.363 . S
C1926 C1932 1.379 . S
C1926 N1934 1.356 . S
C1927 C1926 1.363 . S
C1927 C1933 1.363 . S
C1928 C1929 1.363 . S
C1928 C1933 1.379 . S
C1928 N1935 1.356 . S
C1929 C1928 1.363 . S
C1929 C1932 1.363 . S
N1930 C1932 1.356 . S
N1930 H1942 0.984 . S
N1930 H1943 0.985 . S
N1931 C1933 1.356 . S
N1931 H1936 0.984 . S
N1931 H1937 0.985 . S
C1932 C1926 1.379 . S
C1932 C1929 1.363 . S
C1932 N1930 1.356 . S
C1933 C1927 1.363 . S
C1933 C1928 1.379 . S
C1933 N1931 1.356 . S
N1934 C1926 1.356 . S
N1934 H1940 0.984 . S
N1934 H1941 0.984 . S
N1935 C1928 1.356 . S
N1935 H1938 0.984 . S
N1935 H1939 0.985 . S
H1936 N1931 0.984 . S
H1937 N1931 0.985 . S
H1938 N1935 0.984 . S
H1939 N1935 0.985 . S
H1940 N1934 0.984 . S
H1941 N1934 0.984 . S
H1942 N1930 0.984 . S
H1943 N1930 0.985 . S
C1944 C1945 1.363 . S
C1944 C1950 1.379 . S
C1944 N1952 1.356 . S
C1945 C1944 1.363 . S
C1945 C1951 1.363 . S
C1946 C1947 1.363 . S
C1946 C1951 1.379 . S
C1946 N1953 1.356 . S
C1947 C1946 1.363 . S
C1947 C1950 1.363 . S
N1948 C1950 1.356 . S
N1948 H1960 0.984 . S
N1948 H1961 0.985 . S
N1949 C1951 1.356 . S
N1949 H1954 0.984 . S
N1949 H1955 0.985 . S
C1950 C1944 1.379 . S
C1950 C1947 1.363 . S
C1950 N1948 1.356 . S
C1951 C1945 1.363 . S
C1951 C1946 1.379 . S
C1951 N1949 1.356 . S
N1952 C1944 1.356 . S
N1952 H1958 0.984 . S
N1952 H1959 0.984 . S
N1953 C1946 1.356 . S
N1953 H1956 0.984 . S
N1953 H1957 0.985 . S
H1954 N1949 0.984 . S
H1955 N1949 0.985 . S
H1956 N1953 0.984 . S
H1957 N1953 0.985 . S
H1958 N1952 0.984 . S
H1959 N1952 0.984 . S
H1960 N1948 0.984 . S
H1961 N1948 0.985 . S
C1962 C1963 1.363 . S
C1962 C1968 1.379 . S
C1962 N1970 1.356 . S
C1963 C1962 1.363 . S
C1963 C1969 1.363 . S
C1964 C1965 1.363 . S
C1964 C1969 1.379 . S
C1964 N1971 1.356 . S
C1965 C1964 1.363 . S
C1965 C1968 1.363 . S
N1966 C1968 1.356 . S
N1966 H1978 0.984 . S
N1966 H1979 0.985 . S
N1967 C1969 1.356 . S
N1967 H1972 0.984 . S
N1967 H1973 0.985 . S
C1968 C1962 1.379 . S
C1968 C1965 1.363 . S
C1968 N1966 1.356 . S
C1969 C1963 1.363 . S
C1969 C1964 1.379 . S
C1969 N1967 1.356 . S
N1970 C1962 1.356 . S
N1970 H1976 0.984 . S
N1970 H1977 0.984 . S
N1971 C1964 1.356 . S
N1971 H1974 0.984 . S
N1971 H1975 0.985 . S
H1972 N1967 0.984 . S
H1973 N1967 0.985 . S
H1974 N1971 0.984 . S
H1975 N1971 0.985 . S
H1976 N1970 0.984 . S
H1977 N1970 0.984 . S
H1978 N1966 0.984 . S
H1979 N1966 0.985 . S
C1980 C1981 1.363 . S
C1980 C1986 1.379 . S
C1980 N1988 1.356 . S
C1981 C1980 1.363 . S
C1981 C1987 1.363 . S
C1982 C1983 1.363 . S
C1982 C1987 1.379 . S
C1982 N1989 1.356 . S
C1983 C1982 1.363 . S
C1983 C1986 1.363 . S
N1984 C1986 1.356 . S
N1984 H1996 0.984 . S
N1984 H1997 0.985 . S
N1985 C1987 1.356 . S
N1985 H1990 0.984 . S
N1985 H1991 0.985 . S
C1986 C1980 1.379 . S
C1986 C1983 1.363 . S
C1986 N1984 1.356 . S
C1987 C1981 1.363 . S
C1987 C1982 1.379 . S
C1987 N1985 1.356 . S
N1988 C1980 1.356 . S
N1988 H1994 0.984 . S
N1988 H1995 0.984 . S
N1989 C1982 1.356 . S
N1989 H1992 0.984 . S
N1989 H1993 0.985 . S
H1990 N1985 0.984 . S
H1991 N1985 0.985 . S
H1992 N1989 0.984 . S
H1993 N1989 0.985 . S
H1994 N1988 0.984 . S
H1995 N1988 0.984 . S
H1996 N1984 0.984 . S
H1997 N1984 0.985 . S
C1998 C1999 1.363 . S
C1998 C2004 1.379 . S
C1998 N2006 1.356 . S
C1999 C1998 1.363 . S
C1999 C2005 1.363 . S
C2000 C2001 1.363 . S
C2000 C2005 1.379 . S
C2000 N2007 1.356 . S
C2001 C2000 1.363 . S
C2001 C2004 1.363 . S
N2002 C2004 1.356 . S
N2002 H2014 0.984 . S
N2002 H2015 0.985 . S
N2003 C2005 1.356 . S
N2003 H2008 0.984 . S
N2003 H2009 0.985 . S
C2004 C1998 1.379 . S
C2004 C2001 1.363 . S
C2004 N2002 1.356 . S
C2005 C1999 1.363 . S
C2005 C2000 1.379 . S
C2005 N2003 1.356 . S
N2006 C1998 1.356 . S
N2006 H2012 0.984 . S
N2006 H2013 0.984 . S
N2007 C2000 1.356 . S
N2007 H2010 0.984 . S
N2007 H2011 0.985 . S
H2008 N2003 0.984 . S
H2009 N2003 0.985 . S
H2010 N2007 0.984 . S
H2011 N2007 0.985 . S
H2012 N2006 0.984 . S
H2013 N2006 0.984 . S
H2014 N2002 0.984 . S
H2015 N2002 0.985 . S
C2016 C2017 1.363 . S
C2016 C2022 1.379 1_455 S
C2016 N2024 1.356 . S
C2017 C2016 1.363 . S
C2017 C2023 1.363 1_455 S
C2018 C2019 1.363 . S
C2018 C2023 1.379 . S
C2018 N2025 1.356 . S
C2019 C2018 1.363 . S
C2019 C2022 1.363 . S
N2020 C2022 1.356 . S
N2020 H2032 0.984 . S
N2020 H2033 0.985 . S
N2021 C2023 1.356 1_455 S
N2021 H2026 0.984 . S
N2021 H2027 0.985 . S
C2022 C2016 1.379 1_655 S
C2022 C2019 1.363 . S
C2022 N2020 1.356 . S
C2023 C2017 1.363 1_655 S
C2023 C2018 1.379 . S
C2023 N2021 1.356 1_655 S
N2024 C2016 1.356 . S
N2024 H2030 0.984 . S
N2024 H2031 0.984 . S
N2025 C2018 1.356 . S
N2025 H2028 0.984 . S
N2025 H2029 0.985 . S
H2026 N2021 0.984 . S
H2027 N2021 0.985 . S
H2028 N2025 0.984 . S
H2029 N2025 0.985 . S
H2030 N2024 0.984 . S
H2031 N2024 0.984 . S
H2032 N2020 0.984 . S
H2033 N2020 0.985 . S
C2034 C2035 1.363 . S
C2034 C2040 1.379 . S
C2034 N2042 1.356 . S
C2035 C2034 1.363 . S
C2035 C2041 1.363 . S
C2036 C2037 1.363 . S
C2036 C2041 1.379 . S
C2036 N2043 1.356 . S
C2037 C2036 1.363 . S
C2037 C2040 1.363 . S
N2038 C2040 1.356 . S
N2038 H2050 0.984 . S
N2038 H2051 0.985 . S
N2039 C2041 1.356 . S
N2039 H2044 0.984 . S
N2039 H2045 0.985 . S
C2040 C2034 1.379 . S
C2040 C2037 1.363 . S
C2040 N2038 1.356 . S
C2041 C2035 1.363 . S
C2041 C2036 1.379 . S
C2041 N2039 1.356 . S
N2042 C2034 1.356 . S
N2042 H2048 0.984 . S
N2042 H2049 0.984 . S
N2043 C2036 1.356 . S
N2043 H2046 0.984 . S
N2043 H2047 0.985 . S
H2044 N2039 0.984 . S
H2045 N2039 0.985 . S
H2046 N2043 0.984 . S
H2047 N2043 0.985 . S
H2048 N2042 0.984 . S
H2049 N2042 0.984 . S
H2050 N2038 0.984 . S
H2051 N2038 0.985 . S
C2052 C2053 1.363 . S
C2052 C2058 1.379 1_545 S
C2052 N2060 1.356 . S
C2053 C2052 1.363 . S
C2053 C2059 1.363 . S
C2054 C2055 1.363 . S
C2054 C2059 1.379 1_565 S
C2054 N2061 1.356 . S
C2055 C2054 1.363 . S
C2055 C2058 1.363 . S
N2056 C2058 1.356 . S
N2056 H2068 0.984 . S
N2056 H2069 0.985 . S
N2057 C2059 1.356 . S
N2057 H2062 0.984 . S
N2057 H2063 0.985 . S
C2058 C2052 1.379 1_565 S
C2058 C2055 1.363 . S
C2058 N2056 1.356 . S
C2059 C2053 1.363 . S
C2059 C2054 1.379 1_545 S
C2059 N2057 1.356 . S
N2060 C2052 1.356 . S
N2060 H2066 0.984 . S
N2060 H2067 0.984 . S
N2061 C2054 1.356 . S
N2061 H2064 0.984 . S
N2061 H2065 0.985 . S
H2062 N2057 0.984 . S
H2063 N2057 0.985 . S
H2064 N2061 0.984 . S
H2065 N2061 0.985 . S
H2066 N2060 0.984 . S
H2067 N2060 0.984 . S
H2068 N2056 0.984 . S
H2069 N2056 0.985 . S
C2070 C2071 1.363 . S
C2070 C2076 1.379 1_545 S
C2070 N2078 1.356 . S
C2071 C2070 1.363 . S
C2071 C2077 1.363 1_554 S
C2072 C2073 1.363 1_556 S
C2072 C2077 1.379 1_565 S
C2072 N2079 1.356 . S
C2073 C2072 1.363 1_554 S
C2073 C2076 1.363 . S
N2074 C2076 1.356 . S
N2074 H2086 0.984 . S
N2074 H2087 0.985 . S
N2075 C2077 1.356 . S
N2075 H2080 0.984 . S
N2075 H2081 0.985 . S
C2076 C2070 1.379 1_565 S
C2076 C2073 1.363 . S
C2076 N2074 1.356 . S
C2077 C2071 1.363 1_556 S
C2077 C2072 1.379 1_545 S
C2077 N2075 1.356 . S
N2078 C2070 1.356 . S
N2078 H2084 0.984 . S
N2078 H2085 0.984 . S
N2079 C2072 1.356 . S
N2079 H2082 0.984 . S
N2079 H2083 0.985 . S
H2080 N2075 0.984 . S
H2081 N2075 0.985 . S
H2082 N2079 0.984 . S
H2083 N2079 0.985 . S
H2084 N2078 0.984 . S
H2085 N2078 0.984 . S
H2086 N2074 0.984 . S
H2087 N2074 0.985 . S
C2088 C2089 1.363 . S
C2088 C2094 1.379 1_655 S
C2088 N2096 1.356 . S
C2089 C2088 1.363 . S
C2089 C2095 1.338 1_654 S
C2090 C2091 1.363 1_556 S
C2090 C2095 1.399 . S
C2090 N2097 1.356 . S
C2091 C2090 1.363 1_554 S
C2091 C2094 1.363 . S
N2092 C2094 1.356 . S
N2092 H2104 0.984 . S
N2092 H2105 0.985 . S
N2093 C2095 1.354 1_655 S
N2093 H2098 0.984 . S
N2093 H2099 0.985 . S
C2094 C2088 1.379 1_455 S
C2094 C2091 1.363 . S
C2094 N2092 1.356 . S
C2095 C2089 1.338 1_456 S
C2095 C2090 1.399 . S
C2095 N2093 1.354 1_455 S
N2096 C2088 1.356 . S
N2096 H2102 0.984 . S
N2096 H2103 0.984 . S
N2097 C2090 1.356 . S
N2097 H2100 0.984 . S
N2097 H2101 0.985 . S
H2098 N2093 0.984 . S
H2099 N2093 0.985 . S
H2100 N2097 0.984 . S
H2101 N2097 0.985 . S
H2102 N2096 0.984 . S
H2103 N2096 0.984 . S
H2104 N2092 0.984 . S
H2105 N2092 0.985 . S
C2106 C2107 1.363 1_556 S
C2106 C2112 1.379 . S
C2106 N2114 1.356 . S
C2107 C2106 1.363 1_554 S
C2107 C2113 1.363 . S
C2108 C2109 1.363 . S
C2108 C2113 1.379 . S
C2108 N2115 1.356 . S
C2109 C2108 1.363 . S
C2109 C2112 1.363 1_554 S
N2110 C2112 1.356 . S
N2110 H2122 0.984 . S
N2110 H2123 0.985 . S
N2111 C2113 1.356 . S
N2111 H2116 0.984 . S
N2111 H2117 0.985 . S
C2112 C2106 1.379 . S
C2112 C2109 1.363 1_556 S
C2112 N2110 1.356 . S
C2113 C2107 1.363 . S
C2113 C2108 1.379 . S
C2113 N2111 1.356 . S
N2114 C2106 1.356 . S
N2114 H2120 0.984 . S
N2114 H2121 0.984 . S
N2115 C2108 1.356 . S
N2115 H2118 0.984 . S
N2115 H2119 0.985 . S
H2116 N2111 0.984 . S
H2117 N2111 0.985 . S
H2118 N2115 0.984 . S
H2119 N2115 0.985 . S
H2120 N2114 0.984 . S
H2121 N2114 0.984 . S
H2122 N2110 0.984 . S
H2123 N2110 0.985 . S
C829 N12 1.460 1_556 S
C831 N163 1.385 . S
C847 C39 1.474 . S
C849 N186 1.398 . S
C865 N140 1.396 . S
C867 C62 1.463 . S
C883 N255 1.396 . S
C885 C85 1.463 . S
C901 C108 1.474 . S
C903 N209 1.398 . S
C919 N127 1.460 . S
C921 N232 1.385 . S
C937 N25 1.663 . S
C939 C154 1.745 . S
C955 N48 1.520 . S
C957 C177 1.604 . S
C973 C200 1.678 . S
C975 C7 1.703 . S
C991 C223 1.678 . S
C993 C122 1.725 . S
C1009 N71 1.520 . S
C1011 C246 1.604 . S
C1027 C269 1.745 . S
C1029 N94 1.663 . S
C1045 N439 1.385 . S
C1047 N288 1.460 . S
C1063 C315 1.474 . S
C1065 N462 1.398 . S
C1081 C338 1.463 . S
C1083 N416 1.396 . S
C1099 N531 1.396 . S
C1101 C361 1.463 . S
C1117 C384 1.474 . S
C1119 N485 1.398 . S
C1135 N508 1.385 . S
C1137 N403 1.460 . S
C1153 N301 1.663 . S
C1155 C430 1.745 . S
C1171 C453 1.604 . S
C1173 N324 1.520 . S
C1189 C283 1.703 . S
C1191 C476 1.678 . S
C1207 C499 1.678 . S
C1209 C398 1.703 . S
C1225 C522 1.604 . S
C1227 N347 1.520 . S
C1243 C545 1.746 . S
C1245 N370 1.663 . S
C1261 N715 1.385 . S
C1263 N564 1.460 . S
C1279 N738 1.398 . S
C1281 C591 1.474 . S
C1297 N692 1.396 . S
C1299 C614 1.463 . S
C1315 C637 1.463 . S
C1317 N807 1.396 . S
C1333 C660 1.474 . S
C1335 N761 1.398 . S
C1351 N784 1.385 . S
C1353 N679 1.460 . S
C1369 C706 1.745 . S
C1371 N577 1.663 . S
C1387 N600 1.520 . S
C1389 C729 1.604 . S
C1405 C559 1.703 . S
C1407 C752 1.678 . S
C1423 C775 1.679 . S
C1425 C674 1.703 . S
C1441 C798 1.604 . S
C1443 N623 1.520 . S
C1459 C821 1.745 . S
C1461 N646 1.663 . S
C1477 C76 1.979 . S
C1479 N2 1.840 . S
C1495 C99 2.172 . S
C1497 C30 2.172 . S
C1513 C53 1.979 . S
C1515 N117 1.842 . S
C1531 C214 2.147 . S
C1533 C145 2.127 . S
C1549 C237 1.969 . S
C1551 C168 1.969 . S
C1567 C260 2.127 . S
C1569 C191 2.147 . S
C1585 C352 1.979 . S
C1587 N278 1.840 . S
C1603 C375 2.172 . S
C1605 C306 2.172 . S
C1621 C329 1.979 . S
C1623 N393 1.840 . S
C1639 C490 2.147 1_554 S
C1641 C421 2.127 . S
C1657 C513 1.969 . S
C1659 C444 1.969 . S
C1675 C536 2.127 . S
C1677 C467 2.147 . S
C1693 C628 1.979 1_556 S
C1695 N554 1.840 . S
C1711 C582 2.172 . S
C1713 C651 2.172 1_556 S
C1729 N669 1.840 . S
C1731 C605 1.979 . S
C1747 C697 2.127 . S
C1749 C766 2.147 . S
C1765 C720 1.969 . S
C1767 C789 1.969 . S
C1783 C743 2.147 . S
C1785 C812 2.127 . S
C1801 C16 1.730 . S
C1803 N426 1.719 . S
C1819 N449 1.616 . S
C1821 N35 1.613 . S
C1837 N472 1.764 . S
C1839 N58 1.775 . S
C1855 N771 1.764 . S
C1857 N81 1.775 . S
C1873 N794 1.616 . S
C1875 N104 1.613 . S
C1891 N817 1.719 . S
C1893 C131 1.729 . S
C1909 N150 1.719 . S
C1911 C568 1.730 . S
C1927 N587 1.613 . S
C1929 N173 1.616 . S
C1945 N610 1.775 . S
C1947 N196 1.764 . S
C1963 N219 1.764 . S
C1965 N357 1.775 . S
C1981 N242 1.616 . S
C1983 N380 1.613 . S
C1999 N265 1.719 . S
C2001 C407 1.730 . S
C2017 N702 1.719 . S
C2019 C292 1.730 . S
C2035 N725 1.616 . S
C2037 N311 1.613 . S
C2053 N334 1.775 . S
C2055 N748 1.764 . S
C2071 N495 1.764 1_554 S
C2073 N633 1.775 . S
C2089 N518 1.616 1_554 S
C2091 N656 1.613 . S
C2107 N541 1.719 . S
C2109 C683 1.729 . S
