# Generated by pormake.
# Topology wjw, (5)-cn, num edge types: 1
# Building blocks:
#     Node 0, Type 0, BuildingBlock: XOMCOT_clean_sbu_1, # of connection points: 5
#     Node 1, Type 0, BuildingBlock: XOMCOT_clean_sbu_1, # of connection points: 5
#     Node 2, Type 0, BuildingBlock: XOMCOT_clean_sbu_1, # of connection points: 5
#     Node 3, Type 0, BuildingBlock: XOMCOT_clean_sbu_1, # of connection points: 5
#     Node 4, Type 0, BuildingBlock: XOMCOT_clean_sbu_1, # of connection points: 5
#     Node 5, Type 0, BuildingBlock: XOMCOT_clean_sbu_1, # of connection points: 5
#     Node 6, Type 0, BuildingBlock: XOMCOT_clean_sbu_1, # of connection points: 5
#     Node 7, Type 0, BuildingBlock: XOMCOT_clean_sbu_1, # of connection points: 5
#     Node 8, Type 0, BuildingBlock: XOMCOT_clean_sbu_1, # of connection points: 5
#     Node 9, Type 0, BuildingBlock: XOMCOT_clean_sbu_1, # of connection points: 5
#     Node 10, Type 0, BuildingBlock: XOMCOT_clean_sbu_1, # of connection points: 5
#     Node 11, Type 0, BuildingBlock: XOMCOT_clean_sbu_1, # of connection points: 5
#     Edge 12, Type (0, 0), None
#     Edge 13, Type (0, 0), None
#     Edge 14, Type (0, 0), None
#     Edge 15, Type (0, 0), None
#     Edge 16, Type (0, 0), None
#     Edge 17, Type (0, 0), None
#     Edge 18, Type (0, 0), None
#     Edge 19, Type (0, 0), None
#     Edge 20, Type (0, 0), None
#     Edge 21, Type (0, 0), None
#     Edge 22, Type (0, 0), None
#     Edge 23, Type (0, 0), None
#     Edge 24, Type (0, 0), None
#     Edge 25, Type (0, 0), None
#     Edge 26, Type (0, 0), None
#     Edge 27, Type (0, 0), None
#     Edge 28, Type (0, 0), None
#     Edge 29, Type (0, 0), None
#     Edge 30, Type (0, 0), None
#     Edge 31, Type (0, 0), None
#     Edge 32, Type (0, 0), None
#     Edge 33, Type (0, 0), None
#     Edge 34, Type (0, 0), None
#     Edge 35, Type (0, 0), None
#     Edge 36, Type (0, 0), None
#     Edge 37, Type (0, 0), None
#     Edge 38, Type (0, 0), None
#     Edge 39, Type (0, 0), None
#     Edge 40, Type (0, 0), None
#     Edge 41, Type (0, 0), None
# Relax obj value: 0.192
# Max RMSD: 0.173
# Mean RMSD: 0.165
data_MOF--net-wjw--node1-XOMCOT_clean_sbu_1--edge1-none
_symmetry_space_group_name_H-M    P1
_symmetry_Int_Tables_number       1
_symmetry_cell_setting            triclinic
loop_
_symmetry_equiv_pos_as_xyz
'x, y, z'
_cell_length_a     21.406798
_cell_length_b     21.398973
_cell_length_c     15.892794
_cell_angle_alpha  90.002207
_cell_angle_beta   89.999308
_cell_angle_gamma 120.00516
loop_
_atom_site_label
_atom_site_type_symbol
_atom_site_fract_x
_atom_site_fract_y
_atom_site_fract_z
_atom_type_partial_charge
C0 C 0.21512 0.30301 0.23525 0.0
C1 C 0.23229 0.25147 0.26031 0.0
N2 N 0.20805 0.23072 0.33957 0.0
N3 N 0.18198 0.31623 0.29945 0.0
C4 C 0.17413 0.26739 0.35918 0.0
H5 H 0.23134 0.33323 0.17704 0.0
Co6 Co 0.1546 0.38837 0.31309 0.0
C7 C 0.20925 0.3849 0.49089 0.0
O8 O 0.26708 0.38424 0.46632 0.0
N9 N 0.119 0.45628 0.33424 0.0
C10 C 0.10371 0.54228 0.39659 0.0
C11 C 0.14599 0.51031 0.392 0.0
C12 C 0.05696 0.45442 0.30885 0.0
N13 N 0.04833 0.50792 0.34302 0.0
O14 O 0.05887 0.31447 0.30262 0.0
H15 H 0.19256 0.52427 0.43108 0.0
H16 H 1.01581 0.41144 0.27183 0.0
O17 O 0.16191 0.38239 0.43823 0.0
C18 C 0.05172 0.30794 0.22221 0.0
O19 O 0.10784 0.34683 0.17387 0.0
N20 N 0.25249 0.46485 0.30739 0.0
C21 C 0.38206 0.58352 0.34836 0.0
C22 C 0.3751 0.51518 0.34983 0.0
C23 C 0.31059 0.45667 0.3243 0.0
C24 C 0.2658 0.53152 0.28253 0.0
C25 C 0.32964 0.59259 0.30637 0.0
H26 H 0.30702 0.40494 0.32762 0.0
H27 H 0.22504 0.53844 0.25081 0.0
H28 H 0.14714 0.26078 0.41861 0.0
H29 H 0.26506 0.23521 0.22529 0.0
H30 H 0.11045 0.58424 0.43992 0.0
H31 H 0.41638 0.50562 0.37566 0.0
H32 H 0.33655 0.64565 0.29529 0.0
C33 C 0.9225 0.20937 0.56863 0.0
C34 C 0.9912 0.22651 0.59362 0.0
N35 N 0.98771 0.20214 0.67283 0.0
N36 N 0.87615 0.17612 0.6328 0.0
C37 C 0.91713 0.16818 0.69245 0.0
H38 H 0.9085 0.22568 0.51049 0.0
Co39 Co 0.77665 0.14871 0.6465 0.0
C40 C 0.83485 0.20325 0.82433 0.0
O41 O 0.89341 0.26105 0.79978 0.0
N42 N 0.67316 0.11308 0.6677 0.0
C43 C 0.57194 0.09775 0.73019 0.0
C44 C 0.64618 0.14002 0.72559 0.0
C45 C 0.61294 0.05107 0.64223 0.0
N46 N 0.55085 0.04242 0.67648 0.0
O47 O 0.75478 0.05295 0.63592 0.0
H48 H 0.67883 0.18654 0.76474 0.0
H49 H 0.61471 1.00996 0.60507 0.0
O50 O 0.78997 0.15595 0.77165 0.0
C51 C 0.75414 0.04583 0.5555 0.0
O52 O 0.77139 0.10199 0.5072 0.0
N53 N 0.79808 0.24662 0.64096 0.0
C54 C 0.80896 0.37616 0.68221 0.0
C55 C 0.87034 0.36922 0.68365 0.0
C56 C 0.86435 0.30474 0.65797 0.0
C57 C 0.74474 0.25994 0.61615 0.0
C58 C 0.7475 0.32375 0.64013 0.0
H59 H 0.9125 0.30119 0.6612 0.0
H60 H 0.69707 0.21919 0.58438 0.0
H61 H 0.89674 0.1411 0.75184 0.0
H62 H 0.04022 0.25934 0.55863 0.0
H63 H 0.53676 0.10444 0.77362 0.0
H64 H 0.92115 0.4105 0.70953 0.0
H65 H 0.70136 0.33066 0.62907 0.0
C66 C 0.72362 0.91669 0.90189 0.0
C67 C 0.77521 0.98538 0.92695 0.0
N68 N 0.79602 0.98182 1.00617 0.0
N69 N 0.71044 0.87028 0.96602 0.0
C70 C 0.75935 0.91121 1.02572 0.0
H71 H 0.69335 0.90274 0.84372 0.0
Co72 Co 0.63834 0.77076 0.97967 0.0
C73 C 0.64199 0.8289 0.15752 0.0
O74 O 0.64267 0.88743 0.133 0.0
N75 N 0.57048 0.66725 1.00083 0.0
C76 C 0.4846 0.56597 0.0633 0.0
C77 C 0.51654 0.64023 0.0587 0.0
C78 C 0.57229 0.60704 0.97538 0.0
N79 N 0.51887 0.54492 1.00963 0.0
O80 O 0.7122 0.7489 0.96908 0.0
H81 H 0.50265 0.67287 0.09784 0.0
H82 H 0.6152 0.60885 0.93826 0.0
O83 O 0.64443 0.78405 0.10482 0.0
C84 C 0.71874 0.74831 0.88867 0.0
O85 O 0.67987 0.76557 0.84034 0.0
N86 N 0.56188 0.7922 0.97413 0.0
C87 C 0.44328 0.8031 1.01535 0.0
C88 C 0.5116 0.8645 1.01678 0.0
C89 C 0.57007 0.85849 0.99112 0.0
C90 C 0.49522 0.73885 0.94931 0.0
C91 C 0.43419 0.74161 0.97328 0.0
H92 H 0.62178 0.90666 0.99438 0.0
H93 H 0.48828 0.69115 0.91755 0.0
H94 H 0.766 0.89076 0.08508 0.0
H95 H 0.79146 0.03445 0.892 0.0
H96 H 0.44273 0.53076 0.10672 0.0
H97 H 0.52117 0.91533 0.04266 0.0
H98 H 0.38115 0.69545 0.96222 0.0
C99 C 0.81762 0.71783 0.23527 0.0
C100 C 0.80045 0.76937 0.26032 0.0
N101 N 0.8247 0.79013 0.33958 0.0
N102 N 0.85078 0.70463 0.29946 0.0
C103 C 0.85863 0.75348 0.35919 0.0
H104 H 0.8014 0.68759 0.17707 0.0
Co105 Co 0.87821 0.63253 0.31309 0.0
C106 C 0.82356 0.636 0.4909 0.0
O107 O 0.76574 0.63667 0.46632 0.0
N108 N 0.91388 0.56467 0.33424 0.0
C109 C 0.92932 0.47876 0.3966 0.0
C110 C 0.88694 0.51061 0.39198 0.0
C111 C 0.97598 0.56664 0.30887 0.0
N112 N 0.98476 0.51328 0.34315 0.0
O113 O 0.97392 0.70646 0.30261 0.0
H114 H 0.84032 0.49656 0.43102 0.0
H115 H 0.01707 0.60963 0.2718 0.0
O116 O 0.8709 0.63851 0.43825 0.0
C117 C 0.98106 0.71297 0.2222 0.0
O118 O 0.92494 0.67406 0.17387 0.0
N119 N 0.78034 0.556 0.30743 0.0
C120 C 0.65078 0.43731 0.34841 0.0
C121 C 0.65772 0.50565 0.34988 0.0
C122 C 0.72222 0.56416 0.32434 0.0
C123 C 0.76705 0.48934 0.28258 0.0
C124 C 0.70322 0.42826 0.30642 0.0
H125 H 0.72577 0.61587 0.32764 0.0
H126 H 0.80782 0.48242 0.25086 0.0
H127 H 0.88564 0.76011 0.41861 0.0
H128 H 0.76767 0.78561 0.2253 0.0
H129 H 0.92262 0.43677 0.43988 0.0
H130 H 0.61644 0.51519 0.3757 0.0
H131 H 0.69633 0.3752 0.29534 0.0
C132 C 0.11025 0.81148 0.56866 0.0
C133 C 0.04156 0.79435 0.59365 0.0
N134 N 0.04505 0.81875 0.67284 0.0
N135 N 0.15661 0.84476 0.63282 0.0
C136 C 0.11563 0.85272 0.69246 0.0
H137 H 0.12425 0.79516 0.51052 0.0
Co138 Co 0.25613 0.87224 0.64651 0.0
C139 C 0.19795 0.81771 0.82434 0.0
O140 O 0.13938 0.75992 0.79979 0.0
N141 N 0.35964 0.90796 0.6677 0.0
C142 C 0.46094 0.92345 0.73019 0.0
C143 C 0.38671 0.88107 0.72556 0.0
C144 C 0.41979 0.97003 0.64226 0.0
N145 N 0.4819 0.97883 0.67661 0.0
O146 O 0.27792 0.96797 0.63591 0.0
H147 H 0.35411 0.83449 0.76466 0.0
H148 H 0.41794 0.01109 0.60507 0.0
O149 O 0.24282 0.86501 0.77166 0.0
C150 C 0.27853 0.97507 0.5555 0.0
O151 O 0.26129 0.9189 0.5072 0.0
N152 N 0.23478 0.77435 0.64099 0.0
C153 C 0.22394 0.64483 0.68223 0.0
C154 C 0.16256 0.65174 0.68369 0.0
C155 C 0.16852 0.71621 0.65802 0.0
C156 C 0.28813 0.76105 0.6162 0.0
C157 C 0.28541 0.69726 0.64017 0.0
H158 H 0.12035 0.71973 0.66124 0.0
H159 H 0.3358 0.80182 0.58444 0.0
H160 H 0.13603 0.87982 0.75184 0.0
H161 H 0.99254 0.76151 0.55865 0.0
H162 H 0.49618 0.91679 0.77355 0.0
H163 H 0.11175 0.61046 0.70956 0.0
H164 H 0.33155 0.69037 0.6291 0.0
C165 C 0.30917 0.10421 0.90191 0.0
C166 C 0.25757 0.03552 0.92697 0.0
N167 N 0.23674 0.0391 1.00616 0.0
N168 N 0.32234 0.15063 0.96603 0.0
C169 C 0.27341 0.1097 1.02571 0.0
H170 H 0.33945 0.11816 0.84374 0.0
Co171 Co 0.3944 0.25016 0.97968 0.0
C172 C 0.39077 0.19201 0.15752 0.0
O173 O 0.39008 0.13347 0.13297 0.0
N174 N 0.4622 0.35369 1.00084 0.0
C175 C 0.548 0.45506 0.06331 0.0
C176 C 0.51617 0.3808 0.05867 0.0
C177 C 0.46025 0.41383 0.97541 0.0
N178 N 0.51355 0.47598 1.00975 0.0
O179 O 0.32048 0.27194 0.9691 0.0
H180 H 0.53017 0.34822 0.09777 0.0
H181 H 0.41732 0.41195 0.93826 0.0
O182 O 0.38833 0.23687 0.10484 0.0
C183 C 0.31393 0.27251 0.88869 0.0
O184 O 0.35281 0.25526 0.84037 0.0
N185 N 0.4709 0.2288 0.97414 0.0
C186 C 0.58954 0.21795 1.01533 0.0
C187 C 0.52123 0.15654 1.01677 0.0
C188 C 0.46275 0.16251 0.99112 0.0
C189 C 0.53756 0.28218 0.94935 0.0
C190 C 0.5986 0.27944 0.97329 0.0
H191 H 0.41105 0.11433 0.99436 0.0
H192 H 0.54448 0.32987 0.91759 0.0
H193 H 0.26675 0.13016 0.08507 0.0
H194 H 0.24131 0.98646 0.89201 0.0
H195 H 0.5899 0.49034 0.10665 0.0
H196 H 0.51168 0.1057 0.04262 0.0
H197 H 0.65164 0.32561 0.96224 0.0
C198 C 0.72355 0.81142 0.50314 0.0
C199 C 0.77508 0.79424 0.47809 0.0
N200 N 0.79582 0.81856 0.39885 0.0
N201 N 0.71043 0.8447 0.439 0.0
C202 C 0.75932 0.85264 0.37931 0.0
H203 H 0.69329 0.79514 0.56131 0.0
Co204 Co 0.63836 0.87214 0.42532 0.0
C205 C 0.64203 0.81765 0.24746 0.0
O206 O 0.64281 0.75984 0.27197 0.0
N207 N 0.57051 0.90779 0.40414 0.0
C208 C 0.48465 0.92315 0.34165 0.0
C209 C 0.5166 0.88086 0.34625 0.0
C210 C 0.5723 0.9698 0.42962 0.0
N211 N 0.51887 0.97847 0.39536 0.0
O212 O 0.71224 0.96788 0.43594 0.0
H213 H 0.50273 0.83434 0.30709 0.0
H214 H 0.61519 0.01091 0.46677 0.0
O215 O 0.64445 0.86494 0.30016 0.0
C216 C 0.71872 0.97499 0.51636 0.0
O217 O 0.67984 0.91883 0.56467 0.0
N218 N 0.56187 0.77422 0.43083 0.0
C219 C 0.44324 0.6447 0.38954 0.0
C220 C 0.51155 0.65163 0.38807 0.0
C221 C 0.57003 0.7161 0.41377 0.0
C222 C 0.49522 0.7609 0.45564 0.0
C223 C 0.43418 0.69711 0.43164 0.0
H224 H 0.62173 0.71964 0.41053 0.0
H225 H 0.4883 0.80165 0.48743 0.0
H226 H 0.76605 0.8798 0.31996 0.0
H227 H 0.79134 0.76146 0.51308 0.0
H228 H 0.44278 0.91648 0.29822 0.0
H229 H 0.52109 0.61036 0.36217 0.0
H230 H 0.38114 0.6902 0.44272 0.0
C231 C 0.92256 0.71787 0.83649 0.0
C232 C 0.99128 0.76936 0.81141 0.0
N233 N 0.98775 0.78998 0.7321 0.0
N234 N 0.87618 0.70465 0.77231 0.0
C235 C 0.91717 0.75345 0.71253 0.0
H236 H 0.90855 0.6877 0.89474 0.0
Co237 Co 0.77667 0.63252 0.75867 0.0
C238 C 0.83477 0.63598 0.58085 0.0
O239 O 0.89328 0.63667 0.60542 0.0
N240 N 0.67316 0.56461 0.73754 0.0
C241 C 0.57188 0.4786 0.6752 0.0
C242 C 0.64612 0.51057 0.67978 0.0
C243 C 0.61296 0.56646 0.76293 0.0
N244 N 0.55084 0.51295 0.72877 0.0
O245 O 0.75483 0.70642 0.76915 0.0
H246 H 0.67873 0.49661 0.6407 0.0
H247 H 0.61478 0.60943 0.79995 0.0
O248 O 0.78995 0.63849 0.63351 0.0
C249 C 0.75418 0.71291 0.84956 0.0
O250 O 0.77143 0.67403 0.8979 0.0
N251 N 0.79807 0.55603 0.76436 0.0
C252 C 0.80897 0.43735 0.72338 0.0
C253 C 0.87035 0.50569 0.72189 0.0
C254 C 0.86435 0.5642 0.74742 0.0
C255 C 0.74474 0.48937 0.78925 0.0
C256 C 0.7475 0.4283 0.7654 0.0
H257 H 0.9125 0.61592 0.74411 0.0
H258 H 0.69706 0.48246 0.82098 0.0
H259 H 0.89677 0.7601 0.65313 0.0
H260 H 0.0403 0.78566 0.84644 0.0
H261 H 0.53666 0.43662 0.63187 0.0
H262 H 0.92117 0.51523 0.69605 0.0
H263 H 0.70136 0.37524 0.77649 0.0
C264 C 0.21537 0.91675 0.16989 0.0
C265 C 0.23254 0.98546 0.14477 0.0
N266 N 0.20827 0.98184 0.06551 0.0
N267 N 0.18214 0.8703 0.10577 0.0
C268 C 0.17421 0.91123 0.04602 0.0
H269 H 0.23162 0.9028 0.22811 0.0
Co270 Co 0.15473 0.77078 0.09213 0.0
C271 C 0.20926 0.8289 0.91428 0.0
O272 O 0.26712 0.88742 0.93883 0.0
N273 N 0.11908 0.66726 0.07098 0.0
C274 C 0.10368 0.56595 1.00854 0.0
C275 C 0.146 0.64021 1.01314 0.0
C276 C 0.05705 0.60706 0.09641 0.0
N277 N 0.04835 0.54492 0.06219 0.0
O278 O 0.05902 0.74895 0.10269 0.0
H279 H 0.19253 0.67284 0.97401 0.0
H280 H 1.01595 0.6089 0.1335 0.0
O281 O 0.16195 0.78406 0.96697 0.0
C282 C 0.05189 0.74838 0.18309 0.0
O283 O 0.10801 0.76565 0.23145 0.0
N284 N 0.25261 0.79219 0.09771 0.0
C285 C 0.38213 0.8031 0.05656 0.0
C286 C 0.3752 0.8645 0.05513 0.0
C287 C 0.31072 0.85849 0.08075 0.0
C288 C 0.26592 0.73884 0.12252 0.0
C289 C 0.32972 0.7416 0.09859 0.0
H290 H 0.30718 0.90666 0.07747 0.0
H291 H 0.22517 0.69114 0.15427 0.0
H292 H 0.14708 0.89076 0.98667 0.0
H293 H 0.26528 0.03453 0.17974 0.0
H294 H 0.11034 0.53072 0.96515 0.0
H295 H 0.41647 0.91534 1.02928 0.0
H296 H 0.33661 0.69544 0.10964 0.0
C297 C 0.30926 0.20952 0.50312 0.0
C298 C 0.25771 0.22668 0.47808 0.0
N299 N 0.23695 0.20233 0.39886 0.0
N300 N 0.32236 0.17621 0.43899 0.0
C301 C 0.27345 0.16824 0.37931 0.0
H302 H 0.33952 0.22581 0.56129 0.0
Co303 Co 0.39439 0.14872 0.42531 0.0
C304 C 0.39072 0.20323 0.24747 0.0
O305 O 0.38995 0.26103 0.27201 0.0
N306 N 0.46217 0.11298 0.40413 0.0
C307 C 0.54795 0.09745 0.34165 0.0
C308 C 0.51612 0.13985 0.34627 0.0
C309 C 0.46025 0.0509 0.42959 0.0
N310 N 0.51354 0.04208 0.39523 0.0
O311 O 0.32045 0.05299 0.43593 0.0
H312 H 0.5301 0.18642 0.30715 0.0
H313 H 0.41734 1.00986 0.46677 0.0
O314 O 0.3883 0.15593 0.30015 0.0
C315 C 0.31395 0.04591 0.51634 0.0
O316 O 0.35285 0.10206 0.56465 0.0
N317 N 0.47092 0.24661 0.43081 0.0
C318 C 0.58959 0.37611 0.38954 0.0
C319 C 0.52129 0.3692 0.38809 0.0
C320 C 0.4628 0.30475 0.41378 0.0
C321 C 0.53756 0.25989 0.4556 0.0
C322 C 0.59862 0.32368 0.43162 0.0
H323 H 0.41111 0.30124 0.41055 0.0
H324 H 0.54447 0.21913 0.48737 0.0
H325 H 0.26671 0.14106 0.31998 0.0
H326 H 0.24145 0.25946 0.51306 0.0
H327 H 0.58985 0.10409 0.29828 0.0
H328 H 0.51176 0.41049 0.3622 0.0
H329 H 0.65165 0.33056 0.44268 0.0
C330 C 0.1102 0.30308 0.83646 0.0
C331 C 0.04148 0.25159 0.81138 0.0
N332 N 0.04501 0.23094 0.73209 0.0
N333 N 0.15658 0.31627 0.77228 0.0
C334 C 0.11559 0.26745 0.71252 0.0
H335 H 0.12421 0.33327 0.8947 0.0
Co336 Co 0.25612 0.38835 0.75866 0.0
C337 C 0.19802 0.38489 0.58084 0.0
O338 O 0.13951 0.3842 0.60541 0.0
N339 N 0.35965 0.4562 0.73754 0.0
C340 C 0.461 0.54212 0.6752 0.0
C341 C 0.38677 0.51027 0.67981 0.0
C342 C 0.41977 0.45421 0.7629 0.0
N343 N 0.48191 0.50758 0.72864 0.0
O344 O 0.27787 0.3144 0.76916 0.0
H345 H 0.35421 0.52433 0.64077 0.0
H346 H 0.41788 0.41122 0.79996 0.0
O347 O 0.24285 0.38238 0.6335 0.0
C348 C 0.27849 0.3079 0.84957 0.0
O349 O 0.26125 0.3468 0.8979 0.0
N350 N 0.23479 0.4649 0.76432 0.0
C351 C 0.22394 0.58362 0.72335 0.0
C352 C 0.16255 0.51528 0.72184 0.0
C353 C 0.16852 0.45676 0.74737 0.0
C354 C 0.28814 0.53155 0.78919 0.0
C355 C 0.28541 0.59264 0.76535 0.0
H356 H 0.12035 0.40505 0.74406 0.0
H357 H 0.33582 0.53845 0.82091 0.0
H358 H 0.13599 0.26078 0.65313 0.0
H359 H 0.99246 0.23529 0.84641 0.0
H360 H 0.49628 0.58412 0.63194 0.0
H361 H 0.11173 0.50575 0.696 0.0
H362 H 0.33156 0.64569 0.77645 0.0
C363 C 0.81736 0.10419 0.16987 0.0
C364 C 0.80019 0.03548 0.14476 0.0
N365 N 0.82448 0.03909 0.0655 0.0
N366 N 0.85061 0.15063 0.10575 0.0
C367 C 0.85855 0.1097 0.04601 0.0
H368 H 0.80111 0.11815 0.22809 0.0
Co369 Co 0.87808 0.25017 0.09212 0.0
C370 C 0.82355 0.19205 0.91427 0.0
O371 O 0.7657 0.13353 0.93881 0.0
N372 N 0.91379 0.35371 0.07098 0.0
C373 C 0.92936 0.45508 1.00853 0.0
C374 C 0.88693 0.38083 1.01316 0.0
C375 C 0.97589 0.41384 0.0964 0.0
N376 N 0.98474 0.47599 0.06207 0.0
O377 O 0.97377 0.27195 0.1027 0.0
H378 H 0.84035 0.34826 0.97407 0.0
H379 H 0.01693 0.41194 0.13353 0.0
O380 O 0.87086 0.2369 0.96696 0.0
C381 C 0.98089 0.27253 0.18311 0.0
O382 O 0.92478 0.25528 0.23146 0.0
N383 N 0.78021 0.22882 0.09767 0.0
C384 C 0.65071 0.21795 0.05651 0.0
C385 C 0.65763 0.15654 0.05507 0.0
C386 C 0.72209 0.16253 0.0807 0.0
C387 C 0.76693 0.2822 0.12247 0.0
C388 C 0.70314 0.27945 0.09853 0.0
H389 H 0.72561 0.11434 0.07744 0.0
H390 H 0.80769 0.32989 0.15421 0.0
H391 H 0.88569 0.13016 0.98668 0.0
H392 H 0.76745 0.98641 0.17973 0.0
H393 H 0.92273 0.49037 0.96519 0.0
H394 H 0.61635 0.10571 1.02922 0.0
H395 H 0.69626 0.32562 0.10958 0.0
loop_
_geom_bond_atom_site_label_1
_geom_bond_atom_site_label_2
_geom_bond_distance
_geom_bond_site_symmetry_2
_ccdc_geom_bond_type
C0 C1 1.351 . S
C0 N3 1.368 . S
C0 H5 0.931 . S
C1 C0 1.351 . S
C1 N2 1.373 . S
C1 H29 0.930 . S
N2 C1 1.373 . S
N2 C4 1.340 . S
N3 C0 1.368 . S
N3 C4 1.321 . S
N3 Co6 2.135 . S
C4 N2 1.340 . S
C4 N3 1.321 . S
C4 H28 0.930 . S
H5 C0 0.931 . S
Co6 N3 2.135 . S
Co6 N9 2.121 . S
Co6 O14 2.055 . S
Co6 O17 2.039 . S
Co6 N20 2.140 . S
C7 O8 1.227 . S
C7 O17 1.265 . S
O8 C7 1.227 . S
N9 Co6 2.121 . S
N9 C11 1.375 . S
N9 C12 1.313 . S
C10 C11 1.338 . S
C10 N13 1.377 . S
C10 H30 0.930 . S
C11 N9 1.375 . S
C11 C10 1.338 . S
C11 H15 0.931 . S
C12 N9 1.313 . S
C12 N13 1.344 . S
C12 H16 0.930 1_455 S
N13 C10 1.377 . S
N13 C12 1.344 . S
O14 Co6 2.055 . S
O14 C18 1.253 . S
H15 C11 0.931 . S
H16 C12 0.930 1_655 S
O17 Co6 2.039 . S
O17 C7 1.265 . S
C18 O14 1.253 . S
C18 O19 1.227 . S
O19 C18 1.227 . S
N20 Co6 2.140 . S
N20 C23 1.346 . S
N20 C24 1.345 . S
C21 C22 1.387 . S
C21 C25 1.391 . S
C22 C21 1.387 . S
C22 C23 1.369 . S
C22 H31 0.929 . S
C23 N20 1.346 . S
C23 C22 1.369 . S
C23 H26 0.928 . S
C24 N20 1.345 . S
C24 C25 1.371 . S
C24 H27 0.931 . S
C25 C21 1.391 . S
C25 C24 1.371 . S
C25 H32 0.930 . S
H26 C23 0.928 . S
H27 C24 0.931 . S
H28 C4 0.930 . S
H29 C1 0.930 . S
H30 C10 0.930 . S
H31 C22 0.929 . S
H32 C25 0.930 . S
C33 C34 1.351 . S
C33 N36 1.368 . S
C33 H38 0.931 . S
C34 C33 1.351 . S
C34 N35 1.373 . S
C34 H62 0.930 . S
N35 C34 1.373 . S
N35 C37 1.340 . S
N36 C33 1.368 . S
N36 C37 1.321 . S
N36 Co39 2.135 . S
C37 N35 1.340 . S
C37 N36 1.321 . S
C37 H61 0.930 . S
H38 C33 0.931 . S
Co39 N36 2.135 . S
Co39 N42 2.121 . S
Co39 O47 2.055 . S
Co39 O50 2.039 . S
Co39 N53 2.140 . S
C40 O41 1.227 . S
C40 O50 1.265 . S
O41 C40 1.227 . S
N42 Co39 2.121 . S
N42 C44 1.375 . S
N42 C45 1.313 . S
C43 C44 1.338 . S
C43 N46 1.377 . S
C43 H63 0.930 . S
C44 N42 1.375 . S
C44 C43 1.338 . S
C44 H48 0.931 . S
C45 N42 1.313 . S
C45 N46 1.344 . S
C45 H49 0.930 1_545 S
N46 C43 1.377 . S
N46 C45 1.344 . S
O47 Co39 2.055 . S
O47 C51 1.253 . S
H48 C44 0.931 . S
H49 C45 0.930 1_565 S
O50 Co39 2.039 . S
O50 C40 1.265 . S
C51 O47 1.253 . S
C51 O52 1.227 . S
O52 C51 1.227 . S
N53 Co39 2.140 . S
N53 C56 1.346 . S
N53 C57 1.345 . S
C54 C55 1.387 . S
C54 C58 1.391 . S
C55 C54 1.387 . S
C55 C56 1.369 . S
C55 H64 0.929 . S
C56 N53 1.346 . S
C56 C55 1.369 . S
C56 H59 0.928 . S
C57 N53 1.345 . S
C57 C58 1.371 . S
C57 H60 0.931 . S
C58 C54 1.391 . S
C58 C57 1.371 . S
C58 H65 0.930 . S
H59 C56 0.928 . S
H60 C57 0.931 . S
H61 C37 0.930 . S
H62 C34 0.930 . S
H63 C43 0.930 . S
H64 C55 0.929 . S
H65 C58 0.930 . S
C66 C67 1.351 . S
C66 N69 1.368 . S
C66 H71 0.931 . S
C67 C66 1.351 . S
C67 N68 1.373 . S
C67 H95 0.930 . S
N68 C67 1.373 . S
N68 C70 1.340 1_556 S
N69 C66 1.368 . S
N69 C70 1.321 1_556 S
N69 Co72 2.135 1_556 S
C70 N68 1.340 1_554 S
C70 N69 1.321 1_554 S
C70 H94 0.930 . S
H71 C66 0.931 . S
Co72 N69 2.135 1_554 S
Co72 N75 2.121 . S
Co72 O80 2.055 1_554 S
Co72 O83 2.039 . S
Co72 N86 2.140 1_554 S
C73 O74 1.227 . S
C73 O83 1.265 . S
O74 C73 1.227 . S
N75 Co72 2.121 . S
N75 C77 1.375 . S
N75 C78 1.313 . S
C76 C77 1.338 . S
C76 N79 1.377 . S
C76 H96 0.930 . S
C77 N75 1.375 . S
C77 C76 1.338 . S
C77 H81 0.931 . S
C78 N75 1.313 . S
C78 N79 1.344 . S
C78 H82 0.930 1_554 S
N79 C76 1.377 . S
N79 C78 1.344 . S
O80 Co72 2.055 1_556 S
O80 C84 1.253 . S
H81 C77 0.931 . S
H82 C78 0.930 1_556 S
O83 Co72 2.039 . S
O83 C73 1.265 . S
C84 O80 1.253 . S
C84 O85 1.227 . S
O85 C84 1.227 . S
N86 Co72 2.140 1_556 S
N86 C89 1.346 1_556 S
N86 C90 1.345 . S
C87 C88 1.387 . S
C87 C91 1.391 . S
C88 C87 1.387 . S
C88 C89 1.369 1_556 S
C88 H97 0.929 1_556 S
C89 N86 1.346 1_554 S
C89 C88 1.369 1_554 S
C89 H92 0.928 . S
C90 N86 1.345 . S
C90 C91 1.371 . S
C90 H93 0.931 . S
C91 C87 1.391 . S
C91 C90 1.371 . S
C91 H98 0.930 . S
H92 C89 0.928 . S
H93 C90 0.931 . S
H94 C70 0.930 . S
H95 C67 0.930 . S
H96 C76 0.930 . S
H97 C88 0.929 1_554 S
H98 C91 0.930 . S
C99 C100 1.351 . S
C99 N102 1.368 . S
C99 H104 0.931 . S
C100 C99 1.351 . S
C100 N101 1.373 . S
C100 H128 0.930 . S
N101 C100 1.373 . S
N101 C103 1.340 . S
N102 C99 1.368 . S
N102 C103 1.321 . S
N102 Co105 2.135 . S
C103 N101 1.340 . S
C103 N102 1.321 . S
C103 H127 0.930 . S
H104 C99 0.931 . S
Co105 N102 2.135 . S
Co105 N108 2.121 . S
Co105 O113 2.055 . S
Co105 O116 2.039 . S
Co105 N119 2.140 . S
C106 O107 1.227 . S
C106 O116 1.265 . S
O107 C106 1.227 . S
N108 Co105 2.121 . S
N108 C110 1.375 . S
N108 C111 1.313 . S
C109 C110 1.338 . S
C109 N112 1.377 . S
C109 H129 0.930 . S
C110 N108 1.375 . S
C110 C109 1.338 . S
C110 H114 0.931 . S
C111 N108 1.313 . S
C111 N112 1.344 . S
C111 H115 0.930 1_655 S
N112 C109 1.377 . S
N112 C111 1.344 . S
O113 Co105 2.055 . S
O113 C117 1.253 . S
H114 C110 0.931 . S
H115 C111 0.930 1_455 S
O116 Co105 2.039 . S
O116 C106 1.265 . S
C117 O113 1.253 . S
C117 O118 1.227 . S
O118 C117 1.227 . S
N119 Co105 2.140 . S
N119 C122 1.346 . S
N119 C123 1.345 . S
C120 C121 1.387 . S
C120 C124 1.391 . S
C121 C120 1.387 . S
C121 C122 1.369 . S
C121 H130 0.929 . S
C122 N119 1.346 . S
C122 C121 1.369 . S
C122 H125 0.928 . S
C123 N119 1.345 . S
C123 C124 1.371 . S
C123 H126 0.931 . S
C124 C120 1.391 . S
C124 C123 1.371 . S
C124 H131 0.930 . S
H125 C122 0.928 . S
H126 C123 0.931 . S
H127 C103 0.930 . S
H128 C100 0.930 . S
H129 C109 0.930 . S
H130 C121 0.929 . S
H131 C124 0.930 . S
C132 C133 1.351 . S
C132 N135 1.368 . S
C132 H137 0.931 . S
C133 C132 1.351 . S
C133 N134 1.373 . S
C133 H161 0.930 . S
N134 C133 1.373 . S
N134 C136 1.340 . S
N135 C132 1.368 . S
N135 C136 1.321 . S
N135 Co138 2.135 . S
C136 N134 1.340 . S
C136 N135 1.321 . S
C136 H160 0.930 . S
H137 C132 0.931 . S
Co138 N135 2.135 . S
Co138 N141 2.121 . S
Co138 O146 2.055 . S
Co138 O149 2.039 . S
Co138 N152 2.140 . S
C139 O140 1.227 . S
C139 O149 1.265 . S
O140 C139 1.227 . S
N141 Co138 2.121 . S
N141 C143 1.375 . S
N141 C144 1.313 . S
C142 C143 1.338 . S
C142 N145 1.377 . S
C142 H162 0.930 . S
C143 N141 1.375 . S
C143 C142 1.338 . S
C143 H147 0.931 . S
C144 N141 1.313 . S
C144 N145 1.344 . S
C144 H148 0.930 1_565 S
N145 C142 1.377 . S
N145 C144 1.344 . S
O146 Co138 2.055 . S
O146 C150 1.253 . S
H147 C143 0.931 . S
H148 C144 0.930 1_545 S
O149 Co138 2.039 . S
O149 C139 1.265 . S
C150 O146 1.253 . S
C150 O151 1.227 . S
O151 C150 1.227 . S
N152 Co138 2.140 . S
N152 C155 1.346 . S
N152 C156 1.345 . S
C153 C154 1.387 . S
C153 C157 1.391 . S
C154 C153 1.387 . S
C154 C155 1.369 . S
C154 H163 0.929 . S
C155 N152 1.346 . S
C155 C154 1.369 . S
C155 H158 0.928 . S
C156 N152 1.345 . S
C156 C157 1.371 . S
C156 H159 0.931 . S
C157 C153 1.391 . S
C157 C156 1.371 . S
C157 H164 0.930 . S
H158 C155 0.928 . S
H159 C156 0.931 . S
H160 C136 0.930 . S
H161 C133 0.930 . S
H162 C142 0.930 . S
H163 C154 0.929 . S
H164 C157 0.930 . S
C165 C166 1.351 . S
C165 N168 1.368 . S
C165 H170 0.931 . S
C166 C165 1.351 . S
C166 N167 1.373 . S
C166 H194 0.930 . S
N167 C166 1.373 . S
N167 C169 1.340 1_556 S
N168 C165 1.368 . S
N168 C169 1.321 1_556 S
N168 Co171 2.135 1_556 S
C169 N167 1.340 1_554 S
C169 N168 1.321 1_554 S
C169 H193 0.930 . S
H170 C165 0.931 . S
Co171 N168 2.135 1_554 S
Co171 N174 2.121 . S
Co171 O179 2.055 1_554 S
Co171 O182 2.039 . S
Co171 N185 2.140 1_554 S
C172 O173 1.227 . S
C172 O182 1.265 . S
O173 C172 1.227 . S
N174 Co171 2.121 . S
N174 C176 1.375 . S
N174 C177 1.313 . S
C175 C176 1.338 . S
C175 N178 1.377 . S
C175 H195 0.930 . S
C176 N174 1.375 . S
C176 C175 1.338 . S
C176 H180 0.931 . S
C177 N174 1.313 . S
C177 N178 1.344 . S
C177 H181 0.930 1_554 S
N178 C175 1.377 . S
N178 C177 1.344 . S
O179 Co171 2.055 1_556 S
O179 C183 1.253 . S
H180 C176 0.931 . S
H181 C177 0.930 1_556 S
O182 Co171 2.039 . S
O182 C172 1.265 . S
C183 O179 1.253 . S
C183 O184 1.227 . S
O184 C183 1.227 . S
N185 Co171 2.140 1_556 S
N185 C188 1.346 1_556 S
N185 C189 1.345 . S
C186 C187 1.387 . S
C186 C190 1.391 . S
C187 C186 1.387 . S
C187 C188 1.369 1_556 S
C187 H196 0.929 1_556 S
C188 N185 1.346 1_554 S
C188 C187 1.369 1_554 S
C188 H191 0.928 . S
C189 N185 1.345 . S
C189 C190 1.371 . S
C189 H192 0.931 . S
C190 C186 1.391 . S
C190 C189 1.371 . S
C190 H197 0.930 . S
H191 C188 0.928 . S
H192 C189 0.931 . S
H193 C169 0.930 . S
H194 C166 0.930 . S
H195 C175 0.930 . S
H196 C187 0.929 1_554 S
H197 C190 0.930 . S
C198 C199 1.351 . S
C198 N201 1.368 . S
C198 H203 0.931 . S
C199 C198 1.351 . S
C199 N200 1.373 . S
C199 H227 0.930 . S
N200 C199 1.373 . S
N200 C202 1.340 . S
N201 C198 1.368 . S
N201 C202 1.321 . S
N201 Co204 2.135 . S
C202 N200 1.340 . S
C202 N201 1.321 . S
C202 H226 0.930 . S
H203 C198 0.931 . S
Co204 N201 2.135 . S
Co204 N207 2.121 . S
Co204 O212 2.055 . S
Co204 O215 2.039 . S
Co204 N218 2.140 . S
C205 O206 1.227 . S
C205 O215 1.265 . S
O206 C205 1.227 . S
N207 Co204 2.121 . S
N207 C209 1.375 . S
N207 C210 1.313 . S
C208 C209 1.338 . S
C208 N211 1.377 . S
C208 H228 0.930 . S
C209 N207 1.375 . S
C209 C208 1.338 . S
C209 H213 0.931 . S
C210 N207 1.313 . S
C210 N211 1.344 . S
C210 H214 0.930 1_565 S
N211 C208 1.377 . S
N211 C210 1.344 . S
O212 Co204 2.055 . S
O212 C216 1.253 . S
H213 C209 0.931 . S
H214 C210 0.930 1_545 S
O215 Co204 2.039 . S
O215 C205 1.265 . S
C216 O212 1.253 . S
C216 O217 1.227 . S
O217 C216 1.227 . S
N218 Co204 2.140 . S
N218 C221 1.346 . S
N218 C222 1.345 . S
C219 C220 1.387 . S
C219 C223 1.391 . S
C220 C219 1.387 . S
C220 C221 1.369 . S
C220 H229 0.929 . S
C221 N218 1.346 . S
C221 C220 1.369 . S
C221 H224 0.928 . S
C222 N218 1.345 . S
C222 C223 1.371 . S
C222 H225 0.931 . S
C223 C219 1.391 . S
C223 C222 1.371 . S
C223 H230 0.930 . S
H224 C221 0.928 . S
H225 C222 0.931 . S
H226 C202 0.930 . S
H227 C199 0.930 . S
H228 C208 0.930 . S
H229 C220 0.929 . S
H230 C223 0.930 . S
C231 C232 1.351 . S
C231 N234 1.368 . S
C231 H236 0.931 . S
C232 C231 1.351 . S
C232 N233 1.373 . S
C232 H260 0.930 . S
N233 C232 1.373 . S
N233 C235 1.340 . S
N234 C231 1.368 . S
N234 C235 1.321 . S
N234 Co237 2.135 . S
C235 N233 1.340 . S
C235 N234 1.321 . S
C235 H259 0.930 . S
H236 C231 0.931 . S
Co237 N234 2.135 . S
Co237 N240 2.121 . S
Co237 O245 2.055 . S
Co237 O248 2.039 . S
Co237 N251 2.140 . S
C238 O239 1.227 . S
C238 O248 1.265 . S
O239 C238 1.227 . S
N240 Co237 2.121 . S
N240 C242 1.375 . S
N240 C243 1.313 . S
C241 C242 1.338 . S
C241 N244 1.377 . S
C241 H261 0.930 . S
C242 N240 1.375 . S
C242 C241 1.338 . S
C242 H246 0.931 . S
C243 N240 1.313 . S
C243 N244 1.344 . S
C243 H247 0.930 . S
N244 C241 1.377 . S
N244 C243 1.344 . S
O245 Co237 2.055 . S
O245 C249 1.253 . S
H246 C242 0.931 . S
H247 C243 0.930 . S
O248 Co237 2.039 . S
O248 C238 1.265 . S
C249 O245 1.253 . S
C249 O250 1.227 . S
O250 C249 1.227 . S
N251 Co237 2.140 . S
N251 C254 1.346 . S
N251 C255 1.345 . S
C252 C253 1.387 . S
C252 C256 1.391 . S
C253 C252 1.387 . S
C253 C254 1.369 . S
C253 H262 0.929 . S
C254 N251 1.346 . S
C254 C253 1.369 . S
C254 H257 0.928 . S
C255 N251 1.345 . S
C255 C256 1.371 . S
C255 H258 0.931 . S
C256 C252 1.391 . S
C256 C255 1.371 . S
C256 H263 0.930 . S
H257 C254 0.928 . S
H258 C255 0.931 . S
H259 C235 0.930 . S
H260 C232 0.930 . S
H261 C241 0.930 . S
H262 C253 0.929 . S
H263 C256 0.930 . S
C264 C265 1.351 . S
C264 N267 1.368 . S
C264 H269 0.931 . S
C265 C264 1.351 . S
C265 N266 1.373 . S
C265 H293 0.930 . S
N266 C265 1.373 . S
N266 C268 1.340 1_554 S
N267 C264 1.368 . S
N267 C268 1.321 1_554 S
N267 Co270 2.135 1_554 S
C268 N266 1.340 1_556 S
C268 N267 1.321 1_556 S
C268 H292 0.930 . S
H269 C264 0.931 . S
Co270 N267 2.135 1_556 S
Co270 N273 2.121 . S
Co270 O278 2.055 1_556 S
Co270 O281 2.039 . S
Co270 N284 2.140 1_556 S
C271 O272 1.227 . S
C271 O281 1.265 . S
O272 C271 1.227 . S
N273 Co270 2.121 . S
N273 C275 1.375 . S
N273 C276 1.313 . S
C274 C275 1.338 . S
C274 N277 1.377 . S
C274 H294 0.930 . S
C275 N273 1.375 . S
C275 C274 1.338 . S
C275 H279 0.931 . S
C276 N273 1.313 . S
C276 N277 1.344 . S
C276 H280 0.930 1_456 S
N277 C274 1.377 . S
N277 C276 1.344 . S
O278 Co270 2.055 1_554 S
O278 C282 1.253 . S
H279 C275 0.931 . S
H280 C276 0.930 1_654 S
O281 Co270 2.039 . S
O281 C271 1.265 . S
C282 O278 1.253 . S
C282 O283 1.227 . S
O283 C282 1.227 . S
N284 Co270 2.140 1_554 S
N284 C287 1.346 1_554 S
N284 C288 1.345 . S
C285 C286 1.387 . S
C285 C289 1.391 . S
C286 C285 1.387 . S
C286 C287 1.369 1_554 S
C286 H295 0.929 1_554 S
C287 N284 1.346 1_556 S
C287 C286 1.369 1_556 S
C287 H290 0.928 . S
C288 N284 1.345 . S
C288 C289 1.371 . S
C288 H291 0.931 . S
C289 C285 1.391 . S
C289 C288 1.371 . S
C289 H296 0.930 . S
H290 C287 0.928 . S
H291 C288 0.931 . S
H292 C268 0.930 . S
H293 C265 0.930 . S
H294 C274 0.930 . S
H295 C286 0.929 1_556 S
H296 C289 0.930 . S
C297 C298 1.351 . S
C297 N300 1.368 . S
C297 H302 0.931 . S
C298 C297 1.351 . S
C298 N299 1.373 . S
C298 H326 0.930 . S
N299 C298 1.373 . S
N299 C301 1.340 . S
N300 C297 1.368 . S
N300 C301 1.321 . S
N300 Co303 2.135 . S
C301 N299 1.340 . S
C301 N300 1.321 . S
C301 H325 0.930 . S
H302 C297 0.931 . S
Co303 N300 2.135 . S
Co303 N306 2.121 . S
Co303 O311 2.055 . S
Co303 O314 2.039 . S
Co303 N317 2.140 . S
C304 O305 1.227 . S
C304 O314 1.265 . S
O305 C304 1.227 . S
N306 Co303 2.121 . S
N306 C308 1.375 . S
N306 C309 1.313 . S
C307 C308 1.338 . S
C307 N310 1.377 . S
C307 H327 0.930 . S
C308 N306 1.375 . S
C308 C307 1.338 . S
C308 H312 0.931 . S
C309 N306 1.313 . S
C309 N310 1.344 . S
C309 H313 0.930 1_545 S
N310 C307 1.377 . S
N310 C309 1.344 . S
O311 Co303 2.055 . S
O311 C315 1.253 . S
H312 C308 0.931 . S
H313 C309 0.930 1_565 S
O314 Co303 2.039 . S
O314 C304 1.265 . S
C315 O311 1.253 . S
C315 O316 1.227 . S
O316 C315 1.227 . S
N317 Co303 2.140 . S
N317 C320 1.346 . S
N317 C321 1.345 . S
C318 C319 1.387 . S
C318 C322 1.391 . S
C319 C318 1.387 . S
C319 C320 1.369 . S
C319 H328 0.929 . S
C320 N317 1.346 . S
C320 C319 1.369 . S
C320 H323 0.928 . S
C321 N317 1.345 . S
C321 C322 1.371 . S
C321 H324 0.931 . S
C322 C318 1.391 . S
C322 C321 1.371 . S
C322 H329 0.930 . S
H323 C320 0.928 . S
H324 C321 0.931 . S
H325 C301 0.930 . S
H326 C298 0.930 . S
H327 C307 0.930 . S
H328 C319 0.929 . S
H329 C322 0.930 . S
C330 C331 1.351 . S
C330 N333 1.368 . S
C330 H335 0.931 . S
C331 C330 1.351 . S
C331 N332 1.373 . S
C331 H359 0.930 . S
N332 C331 1.373 . S
N332 C334 1.340 . S
N333 C330 1.368 . S
N333 C334 1.321 . S
N333 Co336 2.135 . S
C334 N332 1.340 . S
C334 N333 1.321 . S
C334 H358 0.930 . S
H335 C330 0.931 . S
Co336 N333 2.135 . S
Co336 N339 2.121 . S
Co336 O344 2.055 . S
Co336 O347 2.039 . S
Co336 N350 2.140 . S
C337 O338 1.227 . S
C337 O347 1.265 . S
O338 C337 1.227 . S
N339 Co336 2.121 . S
N339 C341 1.375 . S
N339 C342 1.313 . S
C340 C341 1.338 . S
C340 N343 1.377 . S
C340 H360 0.930 . S
C341 N339 1.375 . S
C341 C340 1.338 . S
C341 H345 0.931 . S
C342 N339 1.313 . S
C342 N343 1.344 . S
C342 H346 0.930 . S
N343 C340 1.377 . S
N343 C342 1.344 . S
O344 Co336 2.055 . S
O344 C348 1.253 . S
H345 C341 0.931 . S
H346 C342 0.930 . S
O347 Co336 2.039 . S
O347 C337 1.265 . S
C348 O344 1.253 . S
C348 O349 1.227 . S
O349 C348 1.227 . S
N350 Co336 2.140 . S
N350 C353 1.346 . S
N350 C354 1.345 . S
C351 C352 1.387 . S
C351 C355 1.391 . S
C352 C351 1.387 . S
C352 C353 1.369 . S
C352 H361 0.929 . S
C353 N350 1.346 . S
C353 C352 1.369 . S
C353 H356 0.928 . S
C354 N350 1.345 . S
C354 C355 1.371 . S
C354 H357 0.931 . S
C355 C351 1.391 . S
C355 C354 1.371 . S
C355 H362 0.930 . S
H356 C353 0.928 . S
H357 C354 0.931 . S
H358 C334 0.930 . S
H359 C331 0.930 . S
H360 C340 0.930 . S
H361 C352 0.929 . S
H362 C355 0.930 . S
C363 C364 1.351 . S
C363 N366 1.368 . S
C363 H368 0.931 . S
C364 C363 1.351 . S
C364 N365 1.373 . S
C364 H392 0.930 . S
N365 C364 1.373 . S
N365 C367 1.340 1_554 S
N366 C363 1.368 . S
N366 C367 1.321 1_554 S
N366 Co369 2.135 1_554 S
C367 N365 1.340 1_556 S
C367 N366 1.321 1_556 S
C367 H391 0.930 . S
H368 C363 0.931 . S
Co369 N366 2.135 1_556 S
Co369 N372 2.121 . S
Co369 O377 2.055 1_556 S
Co369 O380 2.039 . S
Co369 N383 2.140 1_556 S
C370 O371 1.227 . S
C370 O380 1.265 . S
O371 C370 1.227 . S
N372 Co369 2.121 . S
N372 C374 1.375 . S
N372 C375 1.313 . S
C373 C374 1.338 . S
C373 N376 1.377 . S
C373 H393 0.930 . S
C374 N372 1.375 . S
C374 C373 1.338 . S
C374 H378 0.931 . S
C375 N372 1.313 . S
C375 N376 1.344 . S
C375 H379 0.930 1_656 S
N376 C373 1.377 . S
N376 C375 1.344 . S
O377 Co369 2.055 1_554 S
O377 C381 1.253 . S
H378 C374 0.931 . S
H379 C375 0.930 1_454 S
O380 Co369 2.039 . S
O380 C370 1.265 . S
C381 O377 1.253 . S
C381 O382 1.227 . S
O382 C381 1.227 . S
N383 Co369 2.140 1_554 S
N383 C386 1.346 1_554 S
N383 C387 1.345 . S
C384 C385 1.387 . S
C384 C388 1.391 . S
C385 C384 1.387 . S
C385 C386 1.369 1_554 S
C385 H394 0.929 1_554 S
C386 N383 1.346 1_556 S
C386 C385 1.369 1_556 S
C386 H389 0.928 . S
C387 N383 1.345 . S
C387 C388 1.371 . S
C387 H390 0.931 . S
C388 C384 1.391 . S
C388 C387 1.371 . S
C388 H395 0.930 . S
H389 C386 0.928 . S
H390 C387 0.931 . S
H391 C367 0.930 . S
H392 C364 0.930 . S
H393 C373 0.930 . S
H394 C385 0.929 1_556 S
H395 C388 0.930 . S
C381 C18 2.144 1_655 S
C216 C51 2.316 1_565 S
C84 C249 2.144 . S
C282 C117 2.144 1_455 S
C315 C150 2.316 1_545 S
C348 C183 2.144 . S
C7 C337 1.385 . S
C40 C370 1.372 . S
C205 C73 1.372 . S
C238 C106 1.385 . S
C271 C139 1.372 . S
C172 C304 1.372 . S
N112 N13 1.281 1_655 S
N46 N145 1.277 1_545 S
N178 N79 1.261 . S
N211 N310 1.277 1_565 S
N244 N343 1.281 . S
N376 N277 1.261 1_655 S
N2 N299 1.177 . S
N35 N332 1.177 1_655 S
N365 N68 1.441 1_544 S
N101 N200 1.177 . S
N134 N233 1.177 1_455 S
N167 N266 1.441 1_546 S
C219 C21 2.311 . S
C252 C54 2.311 . S
C87 C285 2.496 1_556 S
C318 C120 2.311 . S
C153 C351 2.311 . S
C186 C384 2.496 1_556 S
