# Generated by pormake.
# Topology uon, (4)-cn, num edge types: 1
# Building blocks:
#     Node 0, Type 0, BuildingBlock: KOZSID_clean_sbu_0, # of connection points: 4
#     Node 1, Type 0, BuildingBlock: KOZSID_clean_sbu_0, # of connection points: 4
#     Node 2, Type 0, BuildingBlock: KOZSID_clean_sbu_0, # of connection points: 4
#     Node 3, Type 0, BuildingBlock: KOZSID_clean_sbu_0, # of connection points: 4
#     Node 4, Type 0, BuildingBlock: KOZSID_clean_sbu_0, # of connection points: 4
#     Node 5, Type 0, BuildingBlock: KOZSID_clean_sbu_0, # of connection points: 4
#     Edge 6, Type (0, 0), BuildingBlock: XUDNAN_clean_linker_2, # of connection points: 2
#     Edge 7, Type (0, 0), BuildingBlock: XUDNAN_clean_linker_2, # of connection points: 2
#     Edge 8, Type (0, 0), BuildingBlock: XUDNAN_clean_linker_2, # of connection points: 2
#     Edge 9, Type (0, 0), BuildingBlock: XUDNAN_clean_linker_2, # of connection points: 2
#     Edge 10, Type (0, 0), BuildingBlock: XUDNAN_clean_linker_2, # of connection points: 2
#     Edge 11, Type (0, 0), BuildingBlock: XUDNAN_clean_linker_2, # of connection points: 2
#     Edge 12, Type (0, 0), BuildingBlock: XUDNAN_clean_linker_2, # of connection points: 2
#     Edge 13, Type (0, 0), BuildingBlock: XUDNAN_clean_linker_2, # of connection points: 2
#     Edge 14, Type (0, 0), BuildingBlock: XUDNAN_clean_linker_2, # of connection points: 2
#     Edge 15, Type (0, 0), BuildingBlock: XUDNAN_clean_linker_2, # of connection points: 2
#     Edge 16, Type (0, 0), BuildingBlock: XUDNAN_clean_linker_2, # of connection points: 2
#     Edge 17, Type (0, 0), BuildingBlock: XUDNAN_clean_linker_2, # of connection points: 2
# Relax obj value: 0.068
# Max RMSD: 0.128
# Mean RMSD: 0.128
data_MOF--net-uon--node1-KOZSID_clean_sbu_0--edge1-XUDNAN_clean_linker_2
_symmetry_space_group_name_H-M    P1
_symmetry_Int_Tables_number       1
_symmetry_cell_setting            triclinic
loop_
_symmetry_equiv_pos_as_xyz
'x, y, z'
_cell_length_a     38.04976
_cell_length_b     38.040545
_cell_length_c     33.454783
_cell_angle_alpha  90.093646
_cell_angle_beta   89.87665
_cell_angle_gamma 119.91047
loop_
_atom_site_label
_atom_site_type_symbol
_atom_site_fract_x
_atom_site_fract_y
_atom_site_fract_z
_atom_type_partial_charge
C0 C 0.15241 0.37509 0.03373 0.0
C1 C 0.1135 0.36484 0.02173 0.0
C2 C 0.11685 0.38011 0.98397 0.0
C3 C 0.15746 0.39937 0.97511 0.0
N4 N 0.17984 0.39699 1.00493 0.0
Co5 Co 0.23997 0.42448 1.00665 0.0
N6 N 0.2457 0.46307 0.96373 0.0
C7 C 0.21601 0.45897 0.93899 0.0
C8 C 0.22823 0.49094 0.91317 0.0
C9 C 0.26831 0.51644 0.92166 0.0
C10 C 0.27858 0.4982 0.95193 0.0
N11 N 0.30004 0.4514 0.00849 0.0
C12 C 0.32872 0.48664 0.99173 0.0
C13 C 0.36723 0.49221 0.99821 0.0
C14 C 0.36232 0.45917 0.01931 0.0
C15 C 0.32125 0.43519 0.0245 0.0
N16 N 0.23371 0.3859 0.04952 0.0
C17 C 0.26173 0.3763 0.06089 0.0
C18 C 0.24866 0.34907 0.092 0.0
C19 C 0.21008 0.34126 0.10063 0.0
C20 C 0.20186 0.36437 0.07433 0.0
N21 N 0.24 0.38675 0.96608 0.0
C22 C 0.25071 0.33369 0.91488 0.0
C23 C 0.22122 0.31872 0.94537 0.0
C24 C 0.21613 0.34566 0.97032 0.0
C25 C 0.27287 0.37582 0.90945 0.0
C26 C 0.26721 0.40156 0.93516 0.0
N27 N 0.24097 0.46224 0.04736 0.0
C28 C 0.26569 0.49569 0.11073 0.0
C29 C 0.24393 0.51633 0.10672 0.0
C30 C 0.21999 0.50856 0.07231 0.0
C31 C 0.21884 0.4814 0.04313 0.0
C32 C 0.26411 0.46932 0.08082 0.0
H33 H 0.20024 0.47607 0.01705 0.0
H34 H 0.2817 0.45453 0.08492 0.0
H35 H 0.1939 0.33325 0.994 0.0
H36 H 0.28611 0.43365 0.9306 0.0
C37 C 0.17601 0.42802 0.94477 0.0
C38 C 0.16295 0.36368 0.0721 0.0
C39 C 0.32043 0.51267 0.96539 0.0
C40 C 0.30183 0.39958 0.04745 0.0
H41 H 0.08558 0.34933 0.03848 0.0
H42 H 0.0929 0.38 0.96649 0.0
H43 H 0.20992 0.49578 0.89156 0.0
H44 H 0.28778 0.54487 0.9067 0.0
H45 H 0.39586 0.51688 0.98772 0.0
H46 H 0.38592 0.4535 0.0298 0.0
H47 H 0.26581 0.33784 0.10791 0.0
H48 H 0.19033 0.32112 0.12367 0.0
H49 H 0.20309 0.28648 0.95098 0.0
H50 H 0.29501 0.38918 0.88567 0.0
H51 H 0.28387 0.49959 0.13699 0.0
H52 H 0.20282 0.52385 0.06746 0.0
C53 C 0.79113 0.14766 0.36761 0.0
C54 C 0.77205 0.10731 0.35587 0.0
C55 C 0.76292 0.10656 0.31613 0.0
C56 C 0.77666 0.14628 0.30591 0.0
N57 N 0.79413 0.17194 0.33669 0.0
Co58 Co 0.81587 0.23145 0.33611 0.0
N59 N 0.78451 0.22788 0.28732 0.0
C60 C 0.76594 0.1955 0.26285 0.0
C61 C 0.74538 0.20108 0.23218 0.0
C62 C 0.75216 0.23969 0.23705 0.0
C63 C 0.77708 0.25584 0.27028 0.0
N64 N 0.83832 0.29118 0.3355 0.0
C65 C 0.82836 0.31446 0.31269 0.0
C66 C 0.85428 0.35539 0.32031 0.0
C67 C 0.88172 0.35775 0.34817 0.0
C68 C 0.87123 0.31834 0.35608 0.0
N69 N 0.84636 0.23421 0.38515 0.0
C70 C 0.87867 0.26733 0.40008 0.0
C71 C 0.89151 0.25978 0.43581 0.0
C72 C 0.86542 0.21943 0.44376 0.0
C73 C 0.83811 0.20475 0.41238 0.0
N74 N 0.8619 0.23887 0.30268 0.0
C75 C 0.93314 0.25836 0.26013 0.0
C76 C 0.92149 0.23248 0.29331 0.0
C77 C 0.88536 0.22249 0.31373 0.0
C78 C 0.90772 0.27289 0.24775 0.0
C79 C 0.87263 0.26314 0.26951 0.0
N80 N 0.77054 0.22461 0.36984 0.0
C81 C 0.74703 0.24117 0.43019 0.0
C82 C 0.70696 0.21064 0.42265 0.0
C83 C 0.69958 0.18818 0.3871 0.0
C84 C 0.73165 0.19531 0.36149 0.0
C85 C 0.77802 0.24795 0.40333 0.0
H86 H 0.72498 0.17664 0.33522 0.0
H87 H 0.80833 0.2715 0.41038 0.0
H88 H 0.87709 0.20255 0.33923 0.0
H89 H 0.85508 0.27657 0.26003 0.0
C90 C 0.76478 0.15906 0.27201 0.0
C91 C 0.80583 0.16246 0.40806 0.0
C92 C 0.7988 0.29949 0.27972 0.0
C93 C 0.8895 0.30564 0.38469 0.0
H94 H 0.76443 0.081 0.37405 0.0
H95 H 0.7456 0.07992 0.29777 0.0
H96 H 0.72735 0.17957 0.2092 0.0
H97 H 0.74158 0.25494 0.21727 0.0
H98 H 0.85432 0.38097 0.30618 0.0
H99 H 0.90641 0.385 0.36104 0.0
H100 H 0.91536 0.28147 0.45502 0.0
H101 H 0.86604 0.20279 0.4697 0.0
H102 H 0.94045 0.22059 0.30372 0.0
H103 H 0.91586 0.2932 0.22241 0.0
H104 H 0.75497 0.2592 0.45719 0.0
H105 H 0.66926 0.16501 0.37888 0.0
C106 C 0.64288 0.79302 0.70122 0.0
C107 C 0.66043 0.77127 0.68639 0.0
C108 C 0.64612 0.76003 0.64818 0.0
C109 C 0.62082 0.77556 0.64191 0.0
N110 N 0.61858 0.79606 0.67363 0.0
Co111 Co 0.58443 0.82175 0.67847 0.0
N112 N 0.5487 0.78869 0.6337 0.0
C113 C 0.55753 0.76747 0.60715 0.0
C114 C 0.52856 0.74891 0.57826 0.0
C115 C 0.50002 0.75972 0.58642 0.0
C116 C 0.51315 0.78451 0.62011 0.0
N117 N 0.55064 0.84801 0.68344 0.0
C118 C 0.51467 0.8385 0.66622 0.0
C119 C 0.50205 0.86542 0.67829 0.0
C120 C 0.53195 0.89369 0.70227 0.0
C121 C 0.56092 0.88234 0.70401 0.0
N122 N 0.62024 0.85419 0.7232 0.0
C123 C 0.62398 0.88866 0.73824 0.0
C124 C 0.64998 0.90303 0.7703 0.0
C125 C 0.66318 0.87569 0.77577 0.0
C126 C 0.64442 0.84616 0.74663 0.0
N127 N 0.61975 0.86448 0.64033 0.0
C128 C 0.66756 0.93473 0.59504 0.0
C129 C 0.68559 0.9205 0.62225 0.0
C130 C 0.66108 0.88523 0.64467 0.0
C131 C 0.62576 0.91165 0.58905 0.0
C132 C 0.60265 0.87665 0.6115 0.0
N133 N 0.5494 0.77998 0.71714 0.0
C134 C 0.51725 0.76409 0.78182 0.0
C135 C 0.5071 0.72342 0.77811 0.0
C136 C 0.51712 0.71129 0.74216 0.0
C137 C 0.53817 0.74002 0.71202 0.0
C138 C 0.53831 0.79163 0.75137 0.0
H139 H 0.54631 0.73013 0.68509 0.0
H140 H 0.54654 0.82273 0.75621 0.0
H141 H 0.67535 0.87577 0.66672 0.0
H142 H 0.57059 0.86071 0.60657 0.0
C143 C 0.59206 0.76371 0.61152 0.0
C144 C 0.65056 0.81133 0.74105 0.0
C145 C 0.49518 0.80912 0.6334 0.0
C146 C 0.59601 0.90074 0.72763 0.0
H147 H 0.68079 0.76374 0.7018 0.0
H148 H 0.65146 0.74061 0.62842 0.0
H149 H 0.52838 0.73008 0.55388 0.0
H150 H 0.47365 0.75167 0.56821 0.0
H151 H 0.47489 0.86566 0.66917 0.0
H152 H 0.53241 0.91937 0.71678 0.0
H153 H 0.65656 0.92878 0.78908 0.0
H154 H 0.68361 0.87695 0.7989 0.0
H155 H 0.71795 0.93751 0.6276 0.0
H156 H 0.61073 0.92136 0.56797 0.0
H157 H 0.50926 0.77491 0.80836 0.0
H158 H 0.50987 0.68018 0.73775 0.0
C159 C 0.86148 0.64649 0.03129 0.0
C160 C 0.90125 0.66316 0.01819 0.0
C161 C 0.89963 0.64837 0.98062 0.0
C162 C 0.85916 0.62354 0.97295 0.0
N163 N 0.83476 0.6224 1.00296 0.0
Co164 Co 0.77411 0.5877 1.00578 0.0
N165 N 0.77233 0.55797 0.95549 0.0
C166 C 0.80449 0.56426 0.9329 0.0
C167 C 0.79456 0.53783 0.90153 0.0
C168 C 0.75358 0.51313 0.90413 0.0
C169 C 0.74062 0.52629 0.93681 0.0
N170 N 0.7135 0.55369 0.00836 0.0
C171 C 0.68699 0.52413 0.98346 0.0
C172 C 0.6471 0.51059 0.99481 0.0
C173 C 0.64848 0.53158 0.02843 0.0
C174 C 0.6889 0.55707 0.0355 0.0
N175 N 0.77629 0.6165 0.05675 0.0
C176 C 0.74451 0.61172 0.07897 0.0
C177 C 0.75561 0.63268 0.11441 0.0
C178 C 0.79694 0.65098 0.11541 0.0
C179 C 0.80859 0.64006 0.08041 0.0
N180 N 0.76809 0.62883 0.97346 0.0
C181 C 0.75402 0.68117 0.92408 0.0
C182 C 0.73403 0.66737 0.9606 0.0
C183 C 0.74189 0.64203 0.98482 0.0
C184 C 0.78199 0.66924 0.91318 0.0
C185 C 0.7883 0.64319 0.9379 0.0
N186 N 0.77978 0.54681 0.03777 0.0
C187 C 0.75872 0.49922 0.0929 0.0
C188 C 0.79012 0.49097 0.08523 0.0
C189 C 0.81622 0.51155 0.05325 0.0
C190 C 0.81021 0.5385 0.02985 0.0
C191 C 0.75433 0.52718 0.06924 0.0
H192 H 0.83082 0.55262 1.00562 0.0
H193 H 0.73016 0.53255 0.07695 0.0
H194 H 0.72611 0.63347 0.01245 0.0
H195 H 0.80936 0.63479 0.92714 0.0
C196 C 0.84371 0.59529 0.94185 0.0
C197 C 0.85042 0.6507 0.0721 0.0
C198 C 0.69799 0.50775 0.94894 0.0
C199 C 0.70474 0.58387 0.06781 0.0
H200 H 0.9287 0.68229 0.0347 0.0
H201 H 0.92503 0.65278 0.96235 0.0
H202 H 0.81475 0.53649 0.87953 0.0
H203 H 0.73554 0.48817 0.88417 0.0
H204 H 0.61971 0.48789 0.98031 0.0
H205 H 0.62303 0.52861 0.04566 0.0
H206 H 0.73591 0.63288 0.13769 0.0
H207 H 0.8163 0.66906 0.13971 0.0
H208 H 0.71268 0.67648 0.97075 0.0
H209 H 0.79833 0.67918 0.88514 0.0
H210 H 0.73713 0.48391 0.11674 0.0
H211 H 0.84167 0.50737 0.04621 0.0
C212 C 0.22152 0.8593 0.36219 0.0
C213 C 0.24085 0.89868 0.34759 0.0
C214 C 0.24959 0.89638 0.30813 0.0
C215 C 0.23545 0.85594 0.30091 0.0
N216 N 0.21826 0.83281 0.33335 0.0
Co217 Co 0.19663 0.77356 0.33742 0.0
N218 N 0.22851 0.77367 0.29043 0.0
C219 C 0.24476 0.803 0.26246 0.0
C220 C 0.26365 0.79427 0.23227 0.0
C221 C 0.2585 0.75691 0.24154 0.0
C222 C 0.23672 0.74486 0.27713 0.0
N223 N 0.17464 0.7142 0.34174 0.0
C224 C 0.18719 0.69019 0.3241 0.0
C225 C 0.16208 0.6499 0.3347 0.0
C226 C 0.13238 0.64874 0.35898 0.0
C227 C 0.141 0.68826 0.36211 0.0
N228 N 0.165 0.77416 0.38414 0.0
C229 C 0.13201 0.74214 0.39969 0.0
C230 C 0.11828 0.75216 0.43354 0.0
C231 C 0.1445 0.79292 0.43949 0.0
C232 C 0.17281 0.8054 0.40892 0.0
N233 N 0.15127 0.76319 0.30178 0.0
C234 C 0.08047 0.73934 0.25707 0.0
C235 C 0.0938 0.77106 0.28488 0.0
C236 C 0.12931 0.78248 0.30707 0.0
C237 C 0.10429 0.72138 0.25071 0.0
C238 C 0.13955 0.73393 0.2729 0.0
N239 N 0.24128 0.7831 0.37323 0.0
C240 C 0.2636 0.77005 0.43603 0.0
C241 C 0.30395 0.79933 0.42773 0.0
C242 C 0.31208 0.81969 0.39083 0.0
C243 C 0.28042 0.81137 0.36425 0.0
C244 C 0.23305 0.76213 0.40838 0.0
H245 H 0.28752 0.82809 0.33658 0.0
H246 H 0.20249 0.73948 0.41597 0.0
H247 H 0.13826 0.80591 0.32944 0.0
H248 H 0.15643 0.71863 0.26753 0.0
C249 C 0.24604 0.84014 0.26818 0.0
C250 C 0.20589 0.8472 0.40303 0.0
C251 C 0.22016 0.7041 0.29446 0.0
C252 C 0.12154 0.70274 0.38756 0.0
H253 H 0.24865 0.92631 0.36358 0.0
H254 H 0.26669 0.92152 0.28799 0.0
H255 H 0.27978 0.81303 0.20686 0.0
H256 H 0.26865 0.74003 0.2235 0.0
H257 H 0.1645 0.62395 0.32532 0.0
H258 H 0.10794 0.62232 0.37329 0.0
H259 H 0.09381 0.73185 0.45304 0.0
H260 H 0.14337 0.81125 0.46368 0.0
H261 H 0.07607 0.78564 0.29065 0.0
H262 H 0.09512 0.69693 0.22931 0.0
H263 H 0.25517 0.7538 0.46411 0.0
H264 H 0.34268 0.84194 0.38226 0.0
C265 C 0.36548 0.2212 0.69443 0.0
C266 C 0.34786 0.2429 0.67981 0.0
C267 C 0.36195 0.25403 0.64152 0.0
C268 C 0.38717 0.23844 0.63494 0.0
N269 N 0.38964 0.21804 0.66656 0.0
Co270 Co 0.42344 0.19185 0.67044 0.0
N271 N 0.45857 0.22434 0.62502 0.0
C272 C 0.44957 0.24555 0.59877 0.0
C273 C 0.47807 0.26365 0.56931 0.0
C274 C 0.50651 0.25256 0.57681 0.0
C275 C 0.4938 0.22813 0.61072 0.0
N276 N 0.4568 0.16506 0.67438 0.0
C277 C 0.49251 0.17427 0.65663 0.0
C278 C 0.5051 0.1473 0.66846 0.0
C279 C 0.47541 0.11927 0.69281 0.0
C280 C 0.44661 0.13084 0.69503 0.0
N281 N 0.38827 0.16005 0.71596 0.0
C282 C 0.38477 0.12572 0.73108 0.0
C283 C 0.35945 0.11176 0.7637 0.0
C284 C 0.34633 0.13911 0.76947 0.0
C285 C 0.36432 0.16823 0.73983 0.0
N286 N 0.38715 0.14891 0.63288 0.0
C287 C 0.33838 0.07846 0.58811 0.0
C288 C 0.32098 0.09264 0.61625 0.0
C289 C 0.34594 0.12809 0.63829 0.0
C290 C 0.38 0.10155 0.5811 0.0
C291 C 0.40361 0.1366 0.60336 0.0
N292 N 0.45965 0.23383 0.7084 0.0
C293 C 0.49593 0.25024 0.77077 0.0
C294 C 0.50667 0.29112 0.76734 0.0
C295 C 0.49446 0.30294 0.73262 0.0
C296 C 0.47119 0.27388 0.70343 0.0
C297 C 0.47228 0.22234 0.74157 0.0
H298 H 0.46185 0.28366 0.6773 0.0
H299 H 0.46368 0.19116 0.74644 0.0
H300 H 0.33215 0.13761 0.66091 0.0
H301 H 0.43559 0.15241 0.59775 0.0
C302 C 0.41539 0.24977 0.60398 0.0
C303 C 0.35753 0.20271 0.73421 0.0
C304 C 0.51187 0.20357 0.62373 0.0
C305 C 0.41215 0.11313 0.7196 0.0
H306 H 0.32744 0.25033 0.69537 0.0
H307 H 0.35637 0.27325 0.6218 0.0
H308 H 0.47803 0.28238 0.54501 0.0
H309 H 0.53253 0.26023 0.5581 0.0
H310 H 0.53216 0.14693 0.65907 0.0
H311 H 0.47507 0.09374 0.70742 0.0
H312 H 0.35323 0.08621 0.78258 0.0
H313 H 0.32641 0.13804 0.79314 0.0
H314 H 0.28878 0.0755 0.6225 0.0
H315 H 0.39455 0.09168 0.5595 0.0
H316 H 0.5055 0.23942 0.7961 0.0
H317 H 0.50188 0.3341 0.72838 0.0
H318 H 0.32416 0.34802 0.88354 0.0
H319 H 0.19647 0.25656 0.88768 0.0
H320 H 0.21046 0.21179 0.84521 0.0
H321 H 0.33902 0.333 0.78035 0.0
H322 H 0.3897 0.34184 0.7878 0.0
H323 H 0.3699 0.36569 0.82022 0.0
H324 H 0.38526 0.33436 0.88179 0.0
H325 H 0.40489 0.31022 0.84948 0.0
H326 H 0.36462 0.28023 0.88418 0.0
H327 H 0.23827 0.17749 0.79989 0.0
H328 H 0.2774 0.15771 0.75487 0.0
H329 H 0.38616 0.27214 0.77859 0.0
C330 C 0.29889 0.31875 0.87537 0.0
C331 C 0.25904 0.3061 0.8893 0.0
C332 C 0.22733 0.26703 0.87818 0.0
C333 C 0.23496 0.24137 0.85378 0.0
C334 C 0.27449 0.25501 0.84049 0.0
C335 C 0.3059 0.29289 0.85084 0.0
C336 C 0.34547 0.30089 0.83172 0.0
C337 C 0.36198 0.33752 0.80334 0.0
C338 C 0.37691 0.30676 0.86371 0.0
C339 C 0.33143 0.26169 0.80879 0.0
C340 C 0.29041 0.23547 0.81442 0.0
C341 C 0.27045 0.19767 0.79563 0.0
C342 C 0.29288 0.18655 0.77033 0.0
C343 C 0.33485 0.21302 0.7641 0.0
C344 C 0.35424 0.25107 0.78354 0.0
H345 H 0.94871 0.24044 0.18478 0.0
H346 H 0.00712 0.31161 0.29036 0.0
H347 H 0.07323 0.34429 0.25498 0.0
H348 H 0.03412 0.22472 0.15532 0.0
H349 H 0.02573 0.22755 0.1027 0.0
H350 H 0.98373 0.20853 0.13716 0.0
H351 H 0.96614 0.26215 0.11155 0.0
H352 H 0.00835 0.28164 0.07739 0.0
H353 H 1.00431 0.3151 0.11294 0.0
H354 H 0.13145 0.37455 0.20523 0.0
H355 H 0.17819 0.3954 0.14718 0.0
H356 H 0.08414 0.29879 0.07662 0.0
C357 C 0.97567 0.26229 0.20057 0.0
C358 C 0.9731 0.27339 0.24036 0.0
C359 C 0.00873 0.30243 0.26006 0.0
C360 C 0.0463 0.32123 0.24012 0.0
C361 C 0.04785 0.3101 0.20066 0.0
C362 C 0.01361 0.28068 0.18135 0.0
C363 C 0.02352 0.27444 0.13885 0.0
C364 C 0.01636 0.23124 0.13319 0.0
C365 C 0.99912 0.2839 0.1084 0.0
C366 C 0.06835 0.30569 0.1369 0.0
C367 C 0.08176 0.32618 0.17275 0.0
C368 C 0.12135 0.35828 0.17722 0.0
C369 C 0.1477 0.36993 0.14415 0.0
C370 C 0.13456 0.34946 0.1071 0.0
C371 C 0.0947 0.31606 0.10404 0.0
H372 H 0.81105 0.0952 0.42996 0.0
H373 H 0.75946 0.16945 0.4656 0.0
H374 H 0.72318 0.12207 0.52125 0.0
H375 H 0.72259 1.00089 0.44623 0.0
H376 H 0.74845 0.9753 0.4645 0.0
H377 H 0.77379 0.01724 0.43043 0.0
H378 H 0.83264 0.05412 0.48088 0.0
H379 H 0.80748 0.01224 0.51516 0.0
H380 H 0.82174 0.06288 0.5312 0.0
H381 H 0.68754 0.06356 0.56848 0.0
H382 H 0.6556 0.99852 0.60512 0.0
H383 H 0.72974 0.96103 0.5396 0.0
C384 C 0.7924 0.10155 0.44984 0.0
C385 C 0.78774 0.13578 0.44358 0.0
C386 C 0.76341 0.14344 0.47015 0.0
C387 C 0.74271 0.11667 0.50172 0.0
C388 C 0.74695 0.08251 0.5065 0.0
C389 C 0.77137 0.07496 0.48145 0.0
C390 C 0.76877 0.03481 0.49172 0.0
C391 C 0.75242 0.00532 0.45611 0.0
C392 C 0.81012 0.04142 0.50557 0.0
C393 C 0.7385 0.02056 0.52599 0.0
C394 C 0.72654 0.04875 0.53409 0.0
C395 C 0.69712 0.04159 0.56278 0.0
C396 C 0.67913 0.00458 0.58342 0.0
C397 C 0.69059 0.97509 0.57552 0.0
C398 C 0.72108 0.98344 0.54677 0.0
H399 H 0.68027 0.67115 0.90021 0.0
H400 H 0.8099 0.75146 0.88769 0.0
H401 H 0.79736 0.79555 0.84269 0.0
H402 H 0.65608 0.67748 0.79814 0.0
H403 H 0.60885 0.6757 0.80933 0.0
H404 H 0.62793 0.65183 0.84244 0.0
H405 H 0.62455 0.6941 0.90159 0.0
H406 H 0.60556 0.71816 0.86853 0.0
H407 H 0.65047 0.74862 0.8978 0.0
H408 H 0.77084 0.83047 0.79806 0.0
H409 H 0.7321 0.85119 0.75386 0.0
H410 H 0.61982 0.74736 0.79315 0.0
C411 C 0.70596 0.69831 0.88836 0.0
C412 C 0.74612 0.70803 0.89767 0.0
C413 C 0.77894 0.74337 0.88089 0.0
C414 C 0.7721 0.7687 0.85547 0.0
C415 C 0.7322 0.75819 0.84675 0.0
C416 C 0.69965 0.72368 0.86244 0.0
C417 C 0.65982 0.71817 0.84656 0.0
C418 C 0.63683 0.67844 0.8227 0.0
C419 C 0.63356 0.71987 0.88066 0.0
C420 C 0.67507 0.7549 0.81946 0.0
C421 C 0.71693 0.77782 0.82033 0.0
C422 C 0.73808 0.81288 0.79734 0.0
C423 C 0.71594 0.82454 0.77251 0.0
C424 C 0.67318 0.80118 0.77076 0.0
C425 C 0.65252 0.766 0.79457 0.0
H426 H 0.92034 0.72208 0.09118 0.0
H427 H 0.84507 0.59718 0.12849 0.0
H428 H 0.89345 0.60795 0.18294 0.0
H429 H 0.01514 0.72668 0.10706 0.0
H430 H 0.04103 0.7783 0.12483 0.0
H431 H 0.99911 0.76163 0.09075 0.0
H432 H 0.96271 0.78487 0.14079 0.0
H433 H 1.0045 0.80152 0.17511 0.0
H434 H 0.95375 0.76576 0.19126 0.0
H435 H 0.95192 0.63067 0.23 0.0
H436 H 0.01663 0.66385 0.26718 0.0
H437 H 0.0549 0.77478 0.20062 0.0
C438 C 0.91409 0.6972 0.11109 0.0
C439 C 0.87914 0.65872 0.10577 0.0
C440 C 0.87169 0.62682 0.13229 0.0
C441 C 0.89898 0.6327 0.16321 0.0
C442 C 0.93353 0.67079 0.16737 0.0
C443 C 0.94118 0.70258 0.14214 0.0
C444 C 0.98148 0.73995 0.15221 0.0
C445 C 0.01093 0.75236 0.1166 0.0
C446 C 0.97522 0.7751 0.16564 0.0
C447 C 0.99552 0.72408 0.18672 0.0
C448 C 0.96723 0.68411 0.19497 0.0
C449 C 0.97403 0.66207 0.22413 0.0
C450 C 0.01081 0.68113 0.2451 0.0
C451 C 0.04037 0.72191 0.2371 0.0
C452 C 0.0324 0.74382 0.20784 0.0
H453 H 0.28248 0.05429 0.52667 0.0
H454 H 0.34415 0.0122 0.6052 0.0
H455 H 0.31312 0.94665 0.56927 0.0
H456 H 0.18819 0.9549 0.51388 0.0
H457 H 0.18323 0.96395 0.46187 0.0
H458 H 0.20695 0.00596 0.49622 0.0
H459 H 0.27081 0.03951 0.45112 0.0
H460 H 0.24745 0.99749 0.41685 0.0
H461 H 0.29609 0.01158 0.43841 0.0
H462 H 0.27988 0.88778 0.52178 0.0
H463 H 0.24636 0.83964 0.46597 0.0
H464 H 0.20495 0.91844 0.41805 0.0
C465 C 0.28847 0.03076 0.53679 0.0
C466 C 0.31512 0.03787 0.56911 0.0
C467 C 0.32335 0.00698 0.58086 0.0
C468 C 0.30592 0.96972 0.56059 0.0
C469 C 0.2803 0.96373 0.52842 0.0
C470 C 0.27137 0.99326 0.51663 0.0
C471 C 0.24475 0.97978 0.47956 0.0
C472 C 0.20332 0.97592 0.48843 0.0
C473 C 0.26606 0.00883 0.44441 0.0
C474 C 0.24074 0.93851 0.47206 0.0
C475 C 0.26133 0.92978 0.50076 0.0
C476 C 0.26338 0.89417 0.49936 0.0
C477 C 0.24426 0.86699 0.46763 0.0
C478 C 0.22359 0.87559 0.43756 0.0
C479 C 0.22117 0.91146 0.44031 0.0
H480 H 0.17056 0.64186 0.24408 0.0
H481 H 0.29075 0.70238 0.29598 0.0
H482 H 0.3095 0.66011 0.25457 0.0
H483 H 0.16041 0.54022 0.23652 0.0
H484 H 0.13364 0.5291 0.18966 0.0
H485 H 0.12919 0.56225 0.22531 0.0
H486 H 0.15254 0.61803 0.1711 0.0
H487 H 0.15763 0.58532 0.13544 0.0
H488 H 0.2002 0.63482 0.14585 0.0
H489 H 0.31661 0.61525 0.20392 0.0
H490 H 0.31099 0.56794 0.15089 0.0
H491 H 0.18471 0.53352 0.13322 0.0
C492 C 0.20041 0.64528 0.24742 0.0
C493 C 0.22908 0.67465 0.27378 0.0
C494 C 0.2683 0.67945 0.27649 0.0
C495 C 0.27918 0.65574 0.25296 0.0
C496 C 0.25042 0.62734 0.22688 0.0
C497 C 0.21168 0.62167 0.22426 0.0
C498 C 0.18697 0.58986 0.19298 0.0
C499 C 0.15039 0.55318 0.21227 0.0
C500 C 0.17356 0.60812 0.15936 0.0
C501 C 0.218 0.5789 0.17804 0.0
C502 C 0.25438 0.60096 0.198 0.0
C503 C 0.28805 0.59728 0.18861 0.0
C504 C 0.28439 0.56998 0.15846 0.0
C505 C 0.24718 0.54614 0.13798 0.0
C506 C 0.21366 0.55111 0.14799 0.0
H507 H 0.58936 0.25781 0.5969 0.0
H508 H 0.49152 0.13389 0.58298 0.0
H509 H 0.53167 0.12156 0.53267 0.0
H510 H 0.61215 0.27326 0.49187 0.0
H511 H 0.66602 0.30532 0.49872 0.0
H512 H 0.63138 0.30347 0.53654 0.0
H513 H 0.66818 0.28391 0.58952 0.0
H514 H 0.70294 0.28566 0.55185 0.0
H515 H 0.67412 0.24033 0.5811 0.0
H516 H 0.58258 0.1223 0.48442 0.0
H517 H 0.63805 0.13713 0.43762 0.0
H518 H 0.69959 0.26333 0.47567 0.0
C519 C 0.57672 0.22802 0.58349 0.0
C520 C 0.53768 0.19653 0.59451 0.0
C521 C 0.52172 0.15816 0.5757 0.0
C522 C 0.54423 0.15092 0.54695 0.0
C523 C 0.58244 0.1826 0.53653 0.0
C524 C 0.59841 0.22056 0.55379 0.0
C525 C 0.63896 0.25003 0.53498 0.0
C526 C 0.637 0.28509 0.5143 0.0
C527 C 0.67307 0.26591 0.56623 0.0
C528 C 0.64333 0.22261 0.50471 0.0
C529 C 0.61059 0.18376 0.50652 0.0
C530 C 0.60812 0.1528 0.4823 0.0
C531 C 0.6398 0.16176 0.45533 0.0
C532 C 0.67347 0.20167 0.45193 0.0
C533 C 0.67488 0.23237 0.47729 0.0
H534 H 0.44599 0.64285 0.77541 0.0
H535 H 0.52236 0.73881 0.85815 0.0
H536 H 0.48501 0.69464 0.91486 0.0
H537 H 0.35453 0.60569 0.82863 0.0
H538 H 0.33638 0.55287 0.81833 0.0
H539 H 0.37042 0.59104 0.78383 0.0
H540 H 0.42037 0.56361 0.78929 0.0
H541 H 0.38628 0.5251 0.82358 0.0
H542 H 0.43817 0.55895 0.83781 0.0
H543 H 0.4353 0.64234 0.96278 0.0
H544 H 0.37943 0.58359 0.99798 0.0
H545 H 0.33898 0.51962 0.88527 0.0
C546 C 0.4554 0.65434 0.80543 0.0
C547 C 0.48682 0.69471 0.81207 0.0
C548 C 0.4978 0.70846 0.85203 0.0
C549 C 0.47695 0.68346 0.88458 0.0
C550 C 0.44546 0.64434 0.87697 0.0
C551 C 0.43509 0.62956 0.83843 0.0
C552 C 0.39948 0.58653 0.83861 0.0
C553 C 0.36306 0.58391 0.81601 0.0
C554 C 0.41183 0.55679 0.8213 0.0
C555 C 0.39098 0.57988 0.88311 0.0
C556 C 0.41779 0.61362 0.90475 0.0
C557 C 0.41444 0.61554 0.94618 0.0
C558 C 0.38269 0.58219 0.96594 0.0
C559 C 0.35486 0.54743 0.9443 0.0
C560 C 0.35971 0.54605 0.90247 0.0
H561 H 0.77187 0.47064 0.1657 0.0
H562 H 0.81922 0.44123 0.06018 0.0
H563 H 0.83004 0.39327 0.09972 0.0
H564 H 0.8363 0.46138 0.23879 0.0
H565 H 0.79685 0.43718 0.27578 0.0
H566 H 0.79488 0.47164 0.24015 0.0
H567 H 0.72335 0.41594 0.2178 0.0
H568 H 0.72499 0.38141 0.25353 0.0
H569 H 0.71578 0.36744 0.2015 0.0
H570 H 0.83691 0.34908 0.15 0.0
H571 H 0.83285 0.30594 0.20677 0.0
H572 H 0.77526 0.35778 0.27898 0.0
C573 C 0.78423 0.45401 0.15063 0.0
C574 C 0.79538 0.4608 0.1096 0.0
C575 C 0.81164 0.43811 0.09165 0.0
C576 C 0.81764 0.41034 0.11384 0.0
C577 C 0.80669 0.40479 0.15402 0.0
C578 C 0.7898 0.42548 0.17223 0.0
C579 C 0.77891 0.41212 0.21549 0.0
C580 C 0.80319 0.44771 0.24425 0.0
C581 C 0.73303 0.39309 0.22248 0.0
C582 C 0.79218 0.38059 0.21856 0.0
C583 C 0.80865 0.37741 0.18279 0.0
C584 C 0.82375 0.35102 0.17804 0.0
C585 C 0.82133 0.32666 0.21044 0.0
C586 C 0.80326 0.32818 0.24699 0.0
C587 C 0.78894 0.35589 0.25125 0.0
H588 H 0.30981 0.748 0.48306 0.0
H589 H 0.37313 0.87288 0.44136 0.0
H590 H 0.42752 0.88876 0.48988 0.0
H591 H 0.33317 0.77329 0.58817 0.0
H592 H 0.33843 0.72963 0.59841 0.0
H593 H 0.30474 0.72744 0.55948 0.0
H594 H 0.3422 0.70638 0.50844 0.0
H595 H 0.37599 0.70851 0.5472 0.0
H596 H 0.39627 0.73787 0.50223 0.0
H597 H 0.47697 0.8905 0.54061 0.0
H598 H 0.51611 0.8787 0.59229 0.0
H599 H 0.41757 0.75526 0.60707 0.0
C600 C 0.3347 0.7789 0.48428 0.0
C601 C 0.33693 0.80898 0.45763 0.0
C602 C 0.37079 0.8488 0.46034 0.0
C603 C 0.4018 0.85833 0.48823 0.0
C604 C 0.39847 0.82799 0.51387 0.0
C605 C 0.3656 0.78918 0.51247 0.0
C606 C 0.36919 0.76232 0.54386 0.0
C607 C 0.3343 0.74729 0.57428 0.0
C608 C 0.37102 0.72667 0.52425 0.0
C609 C 0.40942 0.79203 0.56288 0.0
C610 C 0.42591 0.82965 0.54484 0.0
C611 C 0.46401 0.86139 0.55542 0.0
C612 C 0.48595 0.85446 0.58495 0.0
C613 C 0.46957 0.8163 0.60423 0.0
C614 C 0.43053 0.78488 0.59327 0.0
H615 H 0.56556 0.37303 0.76258 0.0
H616 H 0.49947 0.27574 0.84793 0.0
H617 H 0.54118 0.32013 0.90236 0.0
H618 H 0.66258 0.41556 0.80745 0.0
H619 H 0.67651 0.4677 0.79899 0.0
H620 H 0.64136 0.42869 0.76581 0.0
H621 H 0.5882 0.45097 0.77903 0.0
H622 H 0.62338 0.49036 0.81192 0.0
H623 H 0.57359 0.45376 0.82972 0.0
H624 H 0.59362 0.37247 0.94711 0.0
H625 H 0.64822 0.43309 0.98067 0.0
H626 H 0.67568 0.49978 0.86925 0.0
C627 C 0.55937 0.36117 0.79274 0.0
C628 C 0.52969 0.32021 0.80043 0.0
C629 C 0.52285 0.3063 0.84063 0.0
C630 C 0.54621 0.33145 0.87202 0.0
C631 C 0.5759 0.37103 0.86324 0.0
C632 C 0.58205 0.38622 0.82479 0.0
C633 C 0.61564 0.43035 0.824 0.0
C634 C 0.65112 0.43588 0.79748 0.0
C635 C 0.59921 0.45799 0.81036 0.0
C636 C 0.62771 0.43716 0.86783 0.0
C637 C 0.6046 0.40232 0.88979 0.0
C638 C 0.61145 0.40018 0.9304 0.0
C639 C 0.64248 0.43467 0.94921 0.0
C640 C 0.66589 0.47111 0.92768 0.0
C641 C 0.65818 0.47231 0.88644 0.0
loop_
_geom_bond_atom_site_label_1
_geom_bond_atom_site_label_2
_geom_bond_distance
_geom_bond_site_symmetry_2
_ccdc_geom_bond_type
C0 C1 1.443 . S
C0 N4 1.376 . S
C0 C38 1.389 . S
C1 C0 1.443 . S
C1 C2 1.340 1_554 S
C1 H41 0.951 . S
C2 C1 1.340 1_556 S
C2 C3 1.439 . S
C2 H42 0.950 . S
C3 C2 1.439 . S
C3 N4 1.374 1_556 S
C3 C37 1.395 . S
N4 C0 1.376 . S
N4 C3 1.374 1_554 S
N4 Co5 2.008 . S
Co5 N4 2.008 . S
Co5 N6 1.995 1_554 S
Co5 N11 2.008 . S
Co5 N16 1.995 . S
Co5 N21 2.282 1_554 S
Co5 N27 2.282 . S
N6 Co5 1.995 1_556 S
N6 C7 1.376 . S
N6 C10 1.383 . S
C7 N6 1.376 . S
C7 C8 1.446 . S
C7 C37 1.391 . S
C8 C7 1.446 . S
C8 C9 1.339 . S
C8 H43 0.949 . S
C9 C8 1.339 . S
C9 C10 1.439 . S
C9 H44 0.950 . S
C10 N6 1.383 . S
C10 C9 1.439 . S
C10 C39 1.392 . S
N11 Co5 2.008 . S
N11 C12 1.376 1_554 S
N11 C15 1.374 . S
C12 N11 1.376 1_556 S
C12 C13 1.443 . S
C12 C39 1.389 . S
C13 C12 1.443 . S
C13 C14 1.340 1_556 S
C13 H45 0.951 . S
C14 C13 1.340 1_554 S
C14 C15 1.439 . S
C14 H46 0.950 . S
C15 N11 1.374 . S
C15 C14 1.439 . S
C15 C40 1.395 . S
N16 Co5 1.995 . S
N16 C17 1.376 . S
N16 C20 1.383 . S
C17 N16 1.376 . S
C17 C18 1.446 . S
C17 C40 1.391 . S
C18 C17 1.446 . S
C18 C19 1.339 . S
C18 H47 0.949 . S
C19 C18 1.339 . S
C19 C20 1.439 . S
C19 H48 0.950 . S
C20 N16 1.383 . S
C20 C19 1.439 . S
C20 C38 1.392 . S
N21 Co5 2.282 1_556 S
N21 C24 1.332 . S
N21 C26 1.332 . S
C22 C23 1.386 . S
C22 C25 1.388 . S
C23 C22 1.386 . S
C23 C24 1.382 . S
C23 H49 0.950 . S
C24 N21 1.332 . S
C24 C23 1.382 . S
C24 H35 0.952 1_556 S
C25 C22 1.388 . S
C25 C26 1.382 . S
C25 H50 0.950 . S
C26 N21 1.332 . S
C26 C25 1.382 . S
C26 H36 0.948 . S
N27 Co5 2.282 . S
N27 C31 1.332 . S
N27 C32 1.332 . S
C28 C29 1.388 . S
C28 C32 1.382 . S
C28 H51 0.950 . S
C29 C28 1.388 . S
C29 C30 1.386 . S
C30 C29 1.386 . S
C30 C31 1.382 . S
C30 H52 0.950 . S
C31 N27 1.332 . S
C31 C30 1.382 . S
C31 H33 0.952 . S
C32 N27 1.332 . S
C32 C28 1.382 . S
C32 H34 0.948 . S
H33 C31 0.952 . S
H34 C32 0.948 . S
H35 C24 0.952 1_554 S
H36 C26 0.948 . S
C37 C3 1.395 . S
C37 C7 1.391 . S
C38 C0 1.389 . S
C38 C20 1.392 . S
C39 C10 1.392 . S
C39 C12 1.389 . S
C40 C15 1.395 . S
C40 C17 1.391 . S
H41 C1 0.951 . S
H42 C2 0.950 . S
H43 C8 0.949 . S
H44 C9 0.950 . S
H45 C13 0.951 . S
H46 C14 0.950 . S
H47 C18 0.949 . S
H48 C19 0.950 . S
H49 C23 0.950 . S
H50 C25 0.950 . S
H51 C28 0.950 . S
H52 C30 0.950 . S
C53 C54 1.443 . S
C53 N57 1.376 . S
C53 C91 1.389 . S
C54 C53 1.443 . S
C54 C55 1.340 . S
C54 H94 0.951 . S
C55 C54 1.340 . S
C55 C56 1.439 . S
C55 H95 0.950 . S
C56 C55 1.439 . S
C56 N57 1.374 . S
C56 C90 1.395 . S
N57 C53 1.376 . S
N57 C56 1.374 . S
N57 Co58 2.008 . S
Co58 N57 2.008 . S
Co58 N59 1.995 . S
Co58 N64 2.008 . S
Co58 N69 1.995 . S
Co58 N74 2.282 . S
Co58 N80 2.282 . S
N59 Co58 1.995 . S
N59 C60 1.376 . S
N59 C63 1.383 . S
C60 N59 1.376 . S
C60 C61 1.446 . S
C60 C90 1.391 . S
C61 C60 1.446 . S
C61 C62 1.339 . S
C61 H96 0.949 . S
C62 C61 1.339 . S
C62 C63 1.439 . S
C62 H97 0.950 . S
C63 N59 1.383 . S
C63 C62 1.439 . S
C63 C92 1.392 . S
N64 Co58 2.008 . S
N64 C65 1.376 . S
N64 C68 1.374 . S
C65 N64 1.376 . S
C65 C66 1.443 . S
C65 C92 1.389 . S
C66 C65 1.443 . S
C66 C67 1.340 . S
C66 H98 0.951 . S
C67 C66 1.340 . S
C67 C68 1.439 . S
C67 H99 0.950 . S
C68 N64 1.374 . S
C68 C67 1.439 . S
C68 C93 1.395 . S
N69 Co58 1.995 . S
N69 C70 1.376 . S
N69 C73 1.383 . S
C70 N69 1.376 . S
C70 C71 1.446 . S
C70 C93 1.391 . S
C71 C70 1.446 . S
C71 C72 1.339 . S
C71 H100 0.949 . S
C72 C71 1.339 . S
C72 C73 1.439 . S
C72 H101 0.950 . S
C73 N69 1.383 . S
C73 C72 1.439 . S
C73 C91 1.392 . S
N74 Co58 2.282 . S
N74 C77 1.332 . S
N74 C79 1.332 . S
C75 C76 1.386 . S
C75 C78 1.388 . S
C76 C75 1.386 . S
C76 C77 1.382 . S
C76 H102 0.950 . S
C77 N74 1.332 . S
C77 C76 1.382 . S
C77 H88 0.952 . S
C78 C75 1.388 . S
C78 C79 1.382 . S
C78 H103 0.950 . S
C79 N74 1.332 . S
C79 C78 1.382 . S
C79 H89 0.948 . S
N80 Co58 2.282 . S
N80 C84 1.332 . S
N80 C85 1.332 . S
C81 C82 1.388 . S
C81 C85 1.382 . S
C81 H104 0.950 . S
C82 C81 1.388 . S
C82 C83 1.386 . S
C83 C82 1.386 . S
C83 C84 1.382 . S
C83 H105 0.950 . S
C84 N80 1.332 . S
C84 C83 1.382 . S
C84 H86 0.952 . S
C85 N80 1.332 . S
C85 C81 1.382 . S
C85 H87 0.948 . S
H86 C84 0.952 . S
H87 C85 0.948 . S
H88 C77 0.952 . S
H89 C79 0.948 . S
C90 C56 1.395 . S
C90 C60 1.391 . S
C91 C53 1.389 . S
C91 C73 1.392 . S
C92 C63 1.392 . S
C92 C65 1.389 . S
C93 C68 1.395 . S
C93 C70 1.391 . S
H94 C54 0.951 . S
H95 C55 0.950 . S
H96 C61 0.949 . S
H97 C62 0.950 . S
H98 C66 0.951 . S
H99 C67 0.950 . S
H100 C71 0.949 . S
H101 C72 0.950 . S
H102 C76 0.950 . S
H103 C78 0.950 . S
H104 C81 0.950 . S
H105 C83 0.950 . S
C106 C107 1.443 . S
C106 N110 1.376 . S
C106 C144 1.389 . S
C107 C106 1.443 . S
C107 C108 1.340 . S
C107 H147 0.951 . S
C108 C107 1.340 . S
C108 C109 1.439 . S
C108 H148 0.950 . S
C109 C108 1.439 . S
C109 N110 1.374 . S
C109 C143 1.395 . S
N110 C106 1.376 . S
N110 C109 1.374 . S
N110 Co111 2.008 . S
Co111 N110 2.008 . S
Co111 N112 1.995 . S
Co111 N117 2.008 . S
Co111 N122 1.995 . S
Co111 N127 2.282 . S
Co111 N133 2.282 . S
N112 Co111 1.995 . S
N112 C113 1.376 . S
N112 C116 1.383 . S
C113 N112 1.376 . S
C113 C114 1.446 . S
C113 C143 1.391 . S
C114 C113 1.446 . S
C114 C115 1.339 . S
C114 H149 0.949 . S
C115 C114 1.339 . S
C115 C116 1.439 . S
C115 H150 0.950 . S
C116 N112 1.383 . S
C116 C115 1.439 . S
C116 C145 1.392 . S
N117 Co111 2.008 . S
N117 C118 1.376 . S
N117 C121 1.374 . S
C118 N117 1.376 . S
C118 C119 1.443 . S
C118 C145 1.389 . S
C119 C118 1.443 . S
C119 C120 1.340 . S
C119 H151 0.951 . S
C120 C119 1.340 . S
C120 C121 1.439 . S
C120 H152 0.950 . S
C121 N117 1.374 . S
C121 C120 1.439 . S
C121 C146 1.395 . S
N122 Co111 1.995 . S
N122 C123 1.376 . S
N122 C126 1.383 . S
C123 N122 1.376 . S
C123 C124 1.446 . S
C123 C146 1.391 . S
C124 C123 1.446 . S
C124 C125 1.339 . S
C124 H153 0.949 . S
C125 C124 1.339 . S
C125 C126 1.439 . S
C125 H154 0.950 . S
C126 N122 1.383 . S
C126 C125 1.439 . S
C126 C144 1.392 . S
N127 Co111 2.282 . S
N127 C130 1.332 . S
N127 C132 1.332 . S
C128 C129 1.386 . S
C128 C131 1.388 . S
C129 C128 1.386 . S
C129 C130 1.382 . S
C129 H155 0.950 . S
C130 N127 1.332 . S
C130 C129 1.382 . S
C130 H141 0.952 . S
C131 C128 1.388 . S
C131 C132 1.382 . S
C131 H156 0.950 . S
C132 N127 1.332 . S
C132 C131 1.382 . S
C132 H142 0.948 . S
N133 Co111 2.282 . S
N133 C137 1.332 . S
N133 C138 1.332 . S
C134 C135 1.388 . S
C134 C138 1.382 . S
C134 H157 0.950 . S
C135 C134 1.388 . S
C135 C136 1.386 . S
C136 C135 1.386 . S
C136 C137 1.382 . S
C136 H158 0.950 . S
C137 N133 1.332 . S
C137 C136 1.382 . S
C137 H139 0.952 . S
C138 N133 1.332 . S
C138 C134 1.382 . S
C138 H140 0.948 . S
H139 C137 0.952 . S
H140 C138 0.948 . S
H141 C130 0.952 . S
H142 C132 0.948 . S
C143 C109 1.395 . S
C143 C113 1.391 . S
C144 C106 1.389 . S
C144 C126 1.392 . S
C145 C116 1.392 . S
C145 C118 1.389 . S
C146 C121 1.395 . S
C146 C123 1.391 . S
H147 C107 0.951 . S
H148 C108 0.950 . S
H149 C114 0.949 . S
H150 C115 0.950 . S
H151 C119 0.951 . S
H152 C120 0.950 . S
H153 C124 0.949 . S
H154 C125 0.950 . S
H155 C129 0.950 . S
H156 C131 0.950 . S
H157 C134 0.950 . S
H158 C136 0.950 . S
C159 C160 1.443 . S
C159 N163 1.376 . S
C159 C197 1.389 . S
C160 C159 1.443 . S
C160 C161 1.340 1_554 S
C160 H200 0.951 . S
C161 C160 1.340 1_556 S
C161 C162 1.439 . S
C161 H201 0.950 . S
C162 C161 1.439 . S
C162 N163 1.374 1_556 S
C162 C196 1.395 . S
N163 C159 1.376 . S
N163 C162 1.374 1_554 S
N163 Co164 2.008 . S
Co164 N163 2.008 . S
Co164 N165 1.995 1_554 S
Co164 N170 2.008 . S
Co164 N175 1.995 . S
Co164 N180 2.282 1_554 S
Co164 N186 2.282 . S
N165 Co164 1.995 1_556 S
N165 C166 1.376 . S
N165 C169 1.383 . S
C166 N165 1.376 . S
C166 C167 1.446 . S
C166 C196 1.391 . S
C167 C166 1.446 . S
C167 C168 1.339 . S
C167 H202 0.949 . S
C168 C167 1.339 . S
C168 C169 1.439 . S
C168 H203 0.950 . S
C169 N165 1.383 . S
C169 C168 1.439 . S
C169 C198 1.392 . S
N170 Co164 2.008 . S
N170 C171 1.376 1_554 S
N170 C174 1.374 . S
C171 N170 1.376 1_556 S
C171 C172 1.443 . S
C171 C198 1.389 . S
C172 C171 1.443 . S
C172 C173 1.340 1_556 S
C172 H204 0.951 . S
C173 C172 1.340 1_554 S
C173 C174 1.439 . S
C173 H205 0.950 . S
C174 N170 1.374 . S
C174 C173 1.439 . S
C174 C199 1.395 . S
N175 Co164 1.995 . S
N175 C176 1.376 . S
N175 C179 1.383 . S
C176 N175 1.376 . S
C176 C177 1.446 . S
C176 C199 1.391 . S
C177 C176 1.446 . S
C177 C178 1.339 . S
C177 H206 0.949 . S
C178 C177 1.339 . S
C178 C179 1.439 . S
C178 H207 0.950 . S
C179 N175 1.383 . S
C179 C178 1.439 . S
C179 C197 1.392 . S
N180 Co164 2.282 1_556 S
N180 C183 1.332 . S
N180 C185 1.332 . S
C181 C182 1.386 . S
C181 C184 1.388 . S
C182 C181 1.386 . S
C182 C183 1.382 . S
C182 H208 0.950 . S
C183 N180 1.332 . S
C183 C182 1.382 . S
C183 H194 0.952 1_556 S
C184 C181 1.388 . S
C184 C185 1.382 . S
C184 H209 0.950 . S
C185 N180 1.332 . S
C185 C184 1.382 . S
C185 H195 0.948 . S
N186 Co164 2.282 . S
N186 C190 1.332 . S
N186 C191 1.332 . S
C187 C188 1.388 . S
C187 C191 1.382 . S
C187 H210 0.950 . S
C188 C187 1.388 . S
C188 C189 1.386 . S
C189 C188 1.386 . S
C189 C190 1.382 . S
C189 H211 0.950 . S
C190 N186 1.332 . S
C190 C189 1.382 . S
C190 H192 0.952 . S
C191 N186 1.332 . S
C191 C187 1.382 . S
C191 H193 0.948 . S
H192 C190 0.952 . S
H193 C191 0.948 . S
H194 C183 0.952 1_554 S
H195 C185 0.948 . S
C196 C162 1.395 . S
C196 C166 1.391 . S
C197 C159 1.389 . S
C197 C179 1.392 . S
C198 C169 1.392 . S
C198 C171 1.389 . S
C199 C174 1.395 . S
C199 C176 1.391 . S
H200 C160 0.951 . S
H201 C161 0.950 . S
H202 C167 0.949 . S
H203 C168 0.950 . S
H204 C172 0.951 . S
H205 C173 0.950 . S
H206 C177 0.949 . S
H207 C178 0.950 . S
H208 C182 0.950 . S
H209 C184 0.950 . S
H210 C187 0.950 . S
H211 C189 0.950 . S
C212 C213 1.443 . S
C212 N216 1.376 . S
C212 C250 1.389 . S
C213 C212 1.443 . S
C213 C214 1.340 . S
C213 H253 0.951 . S
C214 C213 1.340 . S
C214 C215 1.439 . S
C214 H254 0.950 . S
C215 C214 1.439 . S
C215 N216 1.374 . S
C215 C249 1.395 . S
N216 C212 1.376 . S
N216 C215 1.374 . S
N216 Co217 2.008 . S
Co217 N216 2.008 . S
Co217 N218 1.995 . S
Co217 N223 2.008 . S
Co217 N228 1.995 . S
Co217 N233 2.282 . S
Co217 N239 2.282 . S
N218 Co217 1.995 . S
N218 C219 1.376 . S
N218 C222 1.383 . S
C219 N218 1.376 . S
C219 C220 1.446 . S
C219 C249 1.391 . S
C220 C219 1.446 . S
C220 C221 1.339 . S
C220 H255 0.949 . S
C221 C220 1.339 . S
C221 C222 1.439 . S
C221 H256 0.950 . S
C222 N218 1.383 . S
C222 C221 1.439 . S
C222 C251 1.392 . S
N223 Co217 2.008 . S
N223 C224 1.376 . S
N223 C227 1.374 . S
C224 N223 1.376 . S
C224 C225 1.443 . S
C224 C251 1.389 . S
C225 C224 1.443 . S
C225 C226 1.340 . S
C225 H257 0.951 . S
C226 C225 1.340 . S
C226 C227 1.439 . S
C226 H258 0.950 . S
C227 N223 1.374 . S
C227 C226 1.439 . S
C227 C252 1.395 . S
N228 Co217 1.995 . S
N228 C229 1.376 . S
N228 C232 1.383 . S
C229 N228 1.376 . S
C229 C230 1.446 . S
C229 C252 1.391 . S
C230 C229 1.446 . S
C230 C231 1.339 . S
C230 H259 0.949 . S
C231 C230 1.339 . S
C231 C232 1.439 . S
C231 H260 0.950 . S
C232 N228 1.383 . S
C232 C231 1.439 . S
C232 C250 1.392 . S
N233 Co217 2.282 . S
N233 C236 1.332 . S
N233 C238 1.332 . S
C234 C235 1.386 . S
C234 C237 1.388 . S
C235 C234 1.386 . S
C235 C236 1.382 . S
C235 H261 0.950 . S
C236 N233 1.332 . S
C236 C235 1.382 . S
C236 H247 0.952 . S
C237 C234 1.388 . S
C237 C238 1.382 . S
C237 H262 0.950 . S
C238 N233 1.332 . S
C238 C237 1.382 . S
C238 H248 0.948 . S
N239 Co217 2.282 . S
N239 C243 1.332 . S
N239 C244 1.332 . S
C240 C241 1.388 . S
C240 C244 1.382 . S
C240 H263 0.950 . S
C241 C240 1.388 . S
C241 C242 1.386 . S
C242 C241 1.386 . S
C242 C243 1.382 . S
C242 H264 0.950 . S
C243 N239 1.332 . S
C243 C242 1.382 . S
C243 H245 0.952 . S
C244 N239 1.332 . S
C244 C240 1.382 . S
C244 H246 0.948 . S
H245 C243 0.952 . S
H246 C244 0.948 . S
H247 C236 0.952 . S
H248 C238 0.948 . S
C249 C215 1.395 . S
C249 C219 1.391 . S
C250 C212 1.389 . S
C250 C232 1.392 . S
C251 C222 1.392 . S
C251 C224 1.389 . S
C252 C227 1.395 . S
C252 C229 1.391 . S
H253 C213 0.951 . S
H254 C214 0.950 . S
H255 C220 0.949 . S
H256 C221 0.950 . S
H257 C225 0.951 . S
H258 C226 0.950 . S
H259 C230 0.949 . S
H260 C231 0.950 . S
H261 C235 0.950 . S
H262 C237 0.950 . S
H263 C240 0.950 . S
H264 C242 0.950 . S
C265 C266 1.443 . S
C265 N269 1.376 . S
C265 C303 1.389 . S
C266 C265 1.443 . S
C266 C267 1.340 . S
C266 H306 0.951 . S
C267 C266 1.340 . S
C267 C268 1.439 . S
C267 H307 0.950 . S
C268 C267 1.439 . S
C268 N269 1.374 . S
C268 C302 1.395 . S
N269 C265 1.376 . S
N269 C268 1.374 . S
N269 Co270 2.008 . S
Co270 N269 2.008 . S
Co270 N271 1.995 . S
Co270 N276 2.008 . S
Co270 N281 1.995 . S
Co270 N286 2.282 . S
Co270 N292 2.282 . S
N271 Co270 1.995 . S
N271 C272 1.376 . S
N271 C275 1.383 . S
C272 N271 1.376 . S
C272 C273 1.446 . S
C272 C302 1.391 . S
C273 C272 1.446 . S
C273 C274 1.339 . S
C273 H308 0.949 . S
C274 C273 1.339 . S
C274 C275 1.439 . S
C274 H309 0.950 . S
C275 N271 1.383 . S
C275 C274 1.439 . S
C275 C304 1.392 . S
N276 Co270 2.008 . S
N276 C277 1.376 . S
N276 C280 1.374 . S
C277 N276 1.376 . S
C277 C278 1.443 . S
C277 C304 1.389 . S
C278 C277 1.443 . S
C278 C279 1.340 . S
C278 H310 0.951 . S
C279 C278 1.340 . S
C279 C280 1.439 . S
C279 H311 0.950 . S
C280 N276 1.374 . S
C280 C279 1.439 . S
C280 C305 1.395 . S
N281 Co270 1.995 . S
N281 C282 1.376 . S
N281 C285 1.383 . S
C282 N281 1.376 . S
C282 C283 1.446 . S
C282 C305 1.391 . S
C283 C282 1.446 . S
C283 C284 1.339 . S
C283 H312 0.949 . S
C284 C283 1.339 . S
C284 C285 1.439 . S
C284 H313 0.950 . S
C285 N281 1.383 . S
C285 C284 1.439 . S
C285 C303 1.392 . S
N286 Co270 2.282 . S
N286 C289 1.332 . S
N286 C291 1.332 . S
C287 C288 1.386 . S
C287 C290 1.388 . S
C288 C287 1.386 . S
C288 C289 1.382 . S
C288 H314 0.950 . S
C289 N286 1.332 . S
C289 C288 1.382 . S
C289 H300 0.952 . S
C290 C287 1.388 . S
C290 C291 1.382 . S
C290 H315 0.950 . S
C291 N286 1.332 . S
C291 C290 1.382 . S
C291 H301 0.948 . S
N292 Co270 2.282 . S
N292 C296 1.332 . S
N292 C297 1.332 . S
C293 C294 1.388 . S
C293 C297 1.382 . S
C293 H316 0.950 . S
C294 C293 1.388 . S
C294 C295 1.386 . S
C295 C294 1.386 . S
C295 C296 1.382 . S
C295 H317 0.950 . S
C296 N292 1.332 . S
C296 C295 1.382 . S
C296 H298 0.952 . S
C297 N292 1.332 . S
C297 C293 1.382 . S
C297 H299 0.948 . S
H298 C296 0.952 . S
H299 C297 0.948 . S
H300 C289 0.952 . S
H301 C291 0.948 . S
C302 C268 1.395 . S
C302 C272 1.391 . S
C303 C265 1.389 . S
C303 C285 1.392 . S
C304 C275 1.392 . S
C304 C277 1.389 . S
C305 C280 1.395 . S
C305 C282 1.391 . S
H306 C266 0.951 . S
H307 C267 0.950 . S
H308 C273 0.949 . S
H309 C274 0.950 . S
H310 C278 0.951 . S
H311 C279 0.950 . S
H312 C283 0.949 . S
H313 C284 0.950 . S
H314 C288 0.950 . S
H315 C290 0.950 . S
H316 C293 0.950 . S
H317 C295 0.950 . S
H318 C330 0.930 . S
H319 C332 0.930 . S
H320 C333 0.930 . S
H321 C337 0.959 . S
H322 C337 0.959 . S
H323 C337 0.961 . S
H324 C338 0.960 . S
H325 C338 0.961 . S
H326 C338 0.959 . S
H327 C341 0.929 . S
H328 C342 0.931 . S
H329 C344 0.930 . S
C330 H318 0.930 . S
C330 C331 1.399 . S
C330 C335 1.399 . S
C331 C330 1.399 . S
C331 C332 1.376 . S
C332 H319 0.930 . S
C332 C331 1.376 . S
C332 C333 1.388 . S
C333 H320 0.930 . S
C333 C332 1.388 . S
C333 C334 1.390 . S
C334 C333 1.390 . S
C334 C335 1.394 . S
C334 C340 1.465 . S
C335 C330 1.399 . S
C335 C334 1.394 . S
C335 C336 1.516 . S
C336 C335 1.516 . S
C336 C337 1.502 . S
C336 C338 1.561 . S
C336 C339 1.526 . S
C337 H321 0.959 . S
C337 H322 0.959 . S
C337 H323 0.961 . S
C337 C336 1.502 . S
C338 H324 0.960 . S
C338 H325 0.961 . S
C338 H326 0.959 . S
C338 C336 1.561 . S
C339 C336 1.526 . S
C339 C340 1.396 . S
C339 C344 1.390 . S
C340 C334 1.465 . S
C340 C339 1.396 . S
C340 C341 1.399 . S
C341 H327 0.929 . S
C341 C340 1.399 . S
C341 C342 1.385 . S
C342 H328 0.931 . S
C342 C341 1.385 . S
C342 C343 1.389 . S
C343 C342 1.389 . S
C343 C344 1.387 . S
C344 H329 0.930 . S
C344 C339 1.390 . S
C344 C343 1.387 . S
H345 C357 0.930 . S
H346 C359 0.930 . S
H347 C360 0.930 1_455 S
H348 C364 0.959 . S
H349 C364 0.959 . S
H350 C364 0.961 1_655 S
H351 C365 0.960 . S
H352 C365 0.961 . S
H353 C365 0.959 . S
H354 C368 0.929 . S
H355 C369 0.931 . S
H356 C371 0.930 . S
C357 H345 0.930 . S
C357 C358 1.399 . S
C357 C362 1.399 . S
C358 C357 1.399 . S
C358 C359 1.376 . S
C359 H346 0.930 . S
C359 C358 1.376 . S
C359 C360 1.388 . S
C360 H347 0.930 1_655 S
C360 C359 1.388 . S
C360 C361 1.390 1_655 S
C361 C360 1.390 1_455 S
C361 C362 1.394 1_455 S
C361 C367 1.465 . S
C362 C357 1.399 . S
C362 C361 1.394 1_655 S
C362 C363 1.516 1_655 S
C363 C362 1.516 1_455 S
C363 C364 1.502 . S
C363 C365 1.561 1_455 S
C363 C366 1.526 . S
C364 H348 0.959 . S
C364 H349 0.959 . S
C364 H350 0.961 1_455 S
C364 C363 1.502 . S
C365 H351 0.960 . S
C365 H352 0.961 . S
C365 H353 0.959 . S
C365 C363 1.561 1_655 S
C366 C363 1.526 . S
C366 C367 1.396 . S
C366 C371 1.390 . S
C367 C361 1.465 . S
C367 C366 1.396 . S
C367 C368 1.399 . S
C368 H354 0.929 . S
C368 C367 1.399 . S
C368 C369 1.385 . S
C369 H355 0.931 . S
C369 C368 1.385 . S
C369 C370 1.389 . S
C370 C369 1.389 . S
C370 C371 1.387 . S
C371 H356 0.930 . S
C371 C366 1.390 . S
C371 C370 1.387 . S
H372 C384 0.930 . S
H373 C386 0.930 . S
H374 C387 0.930 . S
H375 C391 0.959 . S
H376 C391 0.959 . S
H377 C391 0.961 . S
H378 C392 0.960 . S
H379 C392 0.961 . S
H380 C392 0.959 . S
H381 C395 0.929 . S
H382 C396 0.931 . S
H383 C398 0.930 . S
C384 H372 0.930 . S
C384 C385 1.399 . S
C384 C389 1.399 . S
C385 C384 1.399 . S
C385 C386 1.376 . S
C386 H373 0.930 . S
C386 C385 1.376 . S
C386 C387 1.388 . S
C387 H374 0.930 . S
C387 C386 1.388 . S
C387 C388 1.390 . S
C388 C387 1.390 . S
C388 C389 1.394 . S
C388 C394 1.465 1_545 S
C389 C384 1.399 . S
C389 C388 1.394 . S
C389 C390 1.516 . S
C390 C389 1.516 . S
C390 C391 1.502 . S
C390 C392 1.561 . S
C390 C393 1.526 . S
C391 H375 0.959 . S
C391 H376 0.959 . S
C391 H377 0.961 . S
C391 C390 1.502 . S
C392 H378 0.960 . S
C392 H379 0.961 . S
C392 H380 0.959 . S
C392 C390 1.561 . S
C393 C390 1.526 . S
C393 C394 1.396 1_545 S
C393 C398 1.390 1_545 S
C394 C388 1.465 1_565 S
C394 C393 1.396 1_565 S
C394 C395 1.399 . S
C395 H381 0.929 . S
C395 C394 1.399 . S
C395 C396 1.385 . S
C396 H382 0.931 . S
C396 C395 1.385 . S
C396 C397 1.389 . S
C397 C396 1.389 . S
C397 C398 1.387 . S
C398 H383 0.930 . S
C398 C393 1.390 1_565 S
C398 C397 1.387 . S
H399 C411 0.930 . S
H400 C413 0.930 . S
H401 C414 0.930 . S
H402 C418 0.959 . S
H403 C418 0.959 . S
H404 C418 0.961 . S
H405 C419 0.960 . S
H406 C419 0.961 . S
H407 C419 0.959 . S
H408 C422 0.929 . S
H409 C423 0.931 . S
H410 C425 0.930 . S
C411 H399 0.930 . S
C411 C412 1.399 . S
C411 C416 1.399 . S
C412 C411 1.399 . S
C412 C413 1.376 . S
C413 H400 0.930 . S
C413 C412 1.376 . S
C413 C414 1.388 . S
C414 H401 0.930 . S
C414 C413 1.388 . S
C414 C415 1.390 . S
C415 C414 1.390 . S
C415 C416 1.394 . S
C415 C421 1.465 . S
C416 C411 1.399 . S
C416 C415 1.394 . S
C416 C417 1.516 . S
C417 C416 1.516 . S
C417 C418 1.502 . S
C417 C419 1.561 . S
C417 C420 1.526 . S
C418 H402 0.959 . S
C418 H403 0.959 . S
C418 H404 0.961 . S
C418 C417 1.502 . S
C419 H405 0.960 . S
C419 H406 0.961 . S
C419 H407 0.959 . S
C419 C417 1.561 . S
C420 C417 1.526 . S
C420 C421 1.396 . S
C420 C425 1.390 . S
C421 C415 1.465 . S
C421 C420 1.396 . S
C421 C422 1.399 . S
C422 H408 0.929 . S
C422 C421 1.399 . S
C422 C423 1.385 . S
C423 H409 0.931 . S
C423 C422 1.385 . S
C423 C424 1.389 . S
C424 C423 1.389 . S
C424 C425 1.387 . S
C425 H410 0.930 . S
C425 C420 1.390 . S
C425 C424 1.387 . S
H426 C438 0.930 . S
H427 C440 0.930 . S
H428 C441 0.930 . S
H429 C445 0.939 1_455 S
H430 C445 0.959 . S
H431 C445 0.961 . S
H432 C446 0.960 . S
H433 C446 0.961 . S
H434 C446 0.959 . S
H435 C449 0.929 . S
H436 C450 0.931 . S
H437 C452 0.930 . S
C438 H426 0.930 . S
C438 C439 1.399 . S
C438 C443 1.399 . S
C439 C438 1.399 . S
C439 C440 1.376 . S
C440 H427 0.930 . S
C440 C439 1.376 . S
C440 C441 1.388 . S
C441 H428 0.930 . S
C441 C440 1.388 . S
C441 C442 1.390 . S
C442 C441 1.390 . S
C442 C443 1.394 . S
C442 C448 1.451 1_655 S
C443 C438 1.399 . S
C443 C442 1.394 . S
C443 C444 1.516 . S
C444 C443 1.516 . S
C444 C445 1.502 . S
C444 C446 1.561 . S
C444 C447 1.526 1_655 S
C445 H429 0.939 1_655 S
C445 H430 0.959 . S
C445 H431 0.961 . S
C445 C444 1.502 . S
C446 H432 0.960 . S
C446 H433 0.961 . S
C446 H434 0.959 . S
C446 C444 1.561 . S
C447 C444 1.526 1_455 S
C447 C448 1.387 . S
C447 C452 1.390 . S
C448 C442 1.451 1_455 S
C448 C447 1.387 . S
C448 C449 1.419 . S
C449 H435 0.929 . S
C449 C448 1.419 . S
C449 C450 1.385 . S
C450 H436 0.931 . S
C450 C449 1.385 . S
C450 C451 1.389 . S
C451 C450 1.389 . S
C451 C452 1.387 . S
C452 H437 0.930 . S
C452 C447 1.390 . S
C452 C451 1.387 . S
H453 C465 0.930 . S
H454 C467 0.930 . S
H455 C468 0.930 . S
H456 C472 0.959 . S
H457 C472 0.959 . S
H458 C472 0.961 . S
H459 C473 0.960 . S
H460 C473 0.961 . S
H461 C473 0.959 . S
H462 C476 0.929 . S
H463 C477 0.931 . S
H464 C479 0.930 . S
C465 H453 0.930 . S
C465 C466 1.399 . S
C465 C470 1.399 . S
C466 C465 1.399 . S
C466 C467 1.376 . S
C467 H454 0.930 . S
C467 C466 1.376 . S
C467 C468 1.388 1_545 S
C468 H455 0.930 . S
C468 C467 1.388 1_565 S
C468 C469 1.390 . S
C469 C468 1.390 . S
C469 C470 1.394 1_565 S
C469 C475 1.465 . S
C470 C465 1.399 . S
C470 C469 1.394 1_545 S
C470 C471 1.516 . S
C471 C470 1.516 . S
C471 C472 1.502 . S
C471 C473 1.561 . S
C471 C474 1.526 1_545 S
C472 H456 0.959 . S
C472 H457 0.959 . S
C472 H458 0.961 . S
C472 C471 1.502 . S
C473 H459 0.960 . S
C473 H460 0.961 . S
C473 H461 0.959 . S
C473 C471 1.561 . S
C474 C471 1.526 1_565 S
C474 C475 1.396 . S
C474 C479 1.390 . S
C475 C469 1.465 . S
C475 C474 1.396 . S
C475 C476 1.399 . S
C476 H462 0.929 . S
C476 C475 1.399 . S
C476 C477 1.385 . S
C477 H463 0.931 . S
C477 C476 1.385 . S
C477 C478 1.389 . S
C478 C477 1.389 . S
C478 C479 1.387 . S
C479 H464 0.930 . S
C479 C474 1.390 . S
C479 C478 1.387 . S
H480 C492 0.930 . S
H481 C494 0.930 . S
H482 C495 0.930 . S
H483 C499 0.959 . S
H484 C499 0.959 . S
H485 C499 0.961 . S
H486 C500 0.960 . S
H487 C500 0.961 . S
H488 C500 0.959 . S
H489 C503 0.929 . S
H490 C504 0.931 . S
H491 C506 0.930 . S
C492 H480 0.930 . S
C492 C493 1.399 . S
C492 C497 1.399 . S
C493 C492 1.399 . S
C493 C494 1.376 . S
C494 H481 0.930 . S
C494 C493 1.376 . S
C494 C495 1.388 . S
C495 H482 0.930 . S
C495 C494 1.388 . S
C495 C496 1.390 . S
C496 C495 1.390 . S
C496 C497 1.394 . S
C496 C502 1.465 . S
C497 C492 1.399 . S
C497 C496 1.394 . S
C497 C498 1.516 . S
C498 C497 1.516 . S
C498 C499 1.502 . S
C498 C500 1.561 . S
C498 C501 1.526 . S
C499 H483 0.959 . S
C499 H484 0.959 . S
C499 H485 0.961 . S
C499 C498 1.502 . S
C500 H486 0.960 . S
C500 H487 0.961 . S
C500 H488 0.959 . S
C500 C498 1.561 . S
C501 C498 1.526 . S
C501 C502 1.396 . S
C501 C506 1.390 . S
C502 C496 1.465 . S
C502 C501 1.396 . S
C502 C503 1.399 . S
C503 H489 0.929 . S
C503 C502 1.399 . S
C503 C504 1.385 . S
C504 H490 0.931 . S
C504 C503 1.385 . S
C504 C505 1.389 . S
C505 C504 1.389 . S
C505 C506 1.387 . S
C506 H491 0.930 . S
C506 C501 1.390 . S
C506 C505 1.387 . S
H507 C519 0.930 . S
H508 C521 0.930 . S
H509 C522 0.930 . S
H510 C526 0.959 . S
H511 C526 0.959 . S
H512 C526 0.961 . S
H513 C527 0.960 . S
H514 C527 0.961 . S
H515 C527 0.959 . S
H516 C530 0.929 . S
H517 C531 0.931 . S
H518 C533 0.930 . S
C519 H507 0.930 . S
C519 C520 1.399 . S
C519 C524 1.399 . S
C520 C519 1.399 . S
C520 C521 1.376 . S
C521 H508 0.930 . S
C521 C520 1.376 . S
C521 C522 1.388 . S
C522 H509 0.930 . S
C522 C521 1.388 . S
C522 C523 1.390 . S
C523 C522 1.390 . S
C523 C524 1.394 . S
C523 C529 1.465 . S
C524 C519 1.399 . S
C524 C523 1.394 . S
C524 C525 1.516 . S
C525 C524 1.516 . S
C525 C526 1.502 . S
C525 C527 1.561 . S
C525 C528 1.526 . S
C526 H510 0.959 . S
C526 H511 0.959 . S
C526 H512 0.961 . S
C526 C525 1.502 . S
C527 H513 0.960 . S
C527 H514 0.961 . S
C527 H515 0.959 . S
C527 C525 1.561 . S
C528 C525 1.526 . S
C528 C529 1.396 . S
C528 C533 1.390 . S
C529 C523 1.465 . S
C529 C528 1.396 . S
C529 C530 1.399 . S
C530 H516 0.929 . S
C530 C529 1.399 . S
C530 C531 1.385 . S
C531 H517 0.931 . S
C531 C530 1.385 . S
C531 C532 1.389 . S
C532 C531 1.389 . S
C532 C533 1.387 . S
C533 H518 0.930 . S
C533 C528 1.390 . S
C533 C532 1.387 . S
H534 C546 0.930 . S
H535 C548 0.930 . S
H536 C549 0.930 . S
H537 C553 0.959 . S
H538 C553 0.959 . S
H539 C553 0.961 . S
H540 C554 0.960 . S
H541 C554 0.961 . S
H542 C554 0.959 . S
H543 C557 0.929 . S
H544 C558 0.931 . S
H545 C560 0.930 . S
C546 H534 0.930 . S
C546 C547 1.399 . S
C546 C551 1.399 . S
C547 C546 1.399 . S
C547 C548 1.376 . S
C548 H535 0.930 . S
C548 C547 1.376 . S
C548 C549 1.388 . S
C549 H536 0.930 . S
C549 C548 1.388 . S
C549 C550 1.390 . S
C550 C549 1.390 . S
C550 C551 1.394 . S
C550 C556 1.465 . S
C551 C546 1.399 . S
C551 C550 1.394 . S
C551 C552 1.516 . S
C552 C551 1.516 . S
C552 C553 1.502 . S
C552 C554 1.561 . S
C552 C555 1.526 . S
C553 H537 0.959 . S
C553 H538 0.959 . S
C553 H539 0.961 . S
C553 C552 1.502 . S
C554 H540 0.960 . S
C554 H541 0.961 . S
C554 H542 0.959 . S
C554 C552 1.561 . S
C555 C552 1.526 . S
C555 C556 1.396 . S
C555 C560 1.390 . S
C556 C550 1.465 . S
C556 C555 1.396 . S
C556 C557 1.399 . S
C557 H543 0.929 . S
C557 C556 1.399 . S
C557 C558 1.385 . S
C558 H544 0.931 . S
C558 C557 1.385 . S
C558 C559 1.389 . S
C559 C558 1.389 . S
C559 C560 1.387 . S
C560 H545 0.930 . S
C560 C555 1.390 . S
C560 C559 1.387 . S
H561 C573 0.930 . S
H562 C575 0.930 . S
H563 C576 0.930 . S
H564 C580 0.959 . S
H565 C580 0.959 . S
H566 C580 0.961 . S
H567 C581 0.960 . S
H568 C581 0.961 . S
H569 C581 0.959 . S
H570 C584 0.929 . S
H571 C585 0.931 . S
H572 C587 0.930 . S
C573 H561 0.930 . S
C573 C574 1.399 . S
C573 C578 1.399 . S
C574 C573 1.399 . S
C574 C575 1.376 . S
C575 H562 0.930 . S
C575 C574 1.376 . S
C575 C576 1.388 . S
C576 H563 0.930 . S
C576 C575 1.388 . S
C576 C577 1.390 . S
C577 C576 1.390 . S
C577 C578 1.394 . S
C577 C583 1.465 . S
C578 C573 1.399 . S
C578 C577 1.394 . S
C578 C579 1.516 . S
C579 C578 1.516 . S
C579 C580 1.502 . S
C579 C581 1.561 . S
C579 C582 1.526 . S
C580 H564 0.959 . S
C580 H565 0.959 . S
C580 H566 0.961 . S
C580 C579 1.502 . S
C581 H567 0.960 . S
C581 H568 0.961 . S
C581 H569 0.959 . S
C581 C579 1.561 . S
C582 C579 1.526 . S
C582 C583 1.396 . S
C582 C587 1.390 . S
C583 C577 1.465 . S
C583 C582 1.396 . S
C583 C584 1.399 . S
C584 H570 0.929 . S
C584 C583 1.399 . S
C584 C585 1.385 . S
C585 H571 0.931 . S
C585 C584 1.385 . S
C585 C586 1.389 . S
C586 C585 1.389 . S
C586 C587 1.387 . S
C587 H572 0.930 . S
C587 C582 1.390 . S
C587 C586 1.387 . S
H588 C600 0.930 . S
H589 C602 0.930 . S
H590 C603 0.930 . S
H591 C607 0.959 . S
H592 C607 0.959 . S
H593 C607 0.961 . S
H594 C608 0.960 . S
H595 C608 0.961 . S
H596 C608 0.959 . S
H597 C611 0.929 . S
H598 C612 0.931 . S
H599 C614 0.930 . S
C600 H588 0.930 . S
C600 C601 1.399 . S
C600 C605 1.399 . S
C601 C600 1.399 . S
C601 C602 1.376 . S
C602 H589 0.930 . S
C602 C601 1.376 . S
C602 C603 1.388 . S
C603 H590 0.930 . S
C603 C602 1.388 . S
C603 C604 1.390 . S
C604 C603 1.390 . S
C604 C605 1.394 . S
C604 C610 1.465 . S
C605 C600 1.399 . S
C605 C604 1.394 . S
C605 C606 1.516 . S
C606 C605 1.516 . S
C606 C607 1.502 . S
C606 C608 1.561 . S
C606 C609 1.526 . S
C607 H591 0.959 . S
C607 H592 0.959 . S
C607 H593 0.961 . S
C607 C606 1.502 . S
C608 H594 0.960 . S
C608 H595 0.961 . S
C608 H596 0.959 . S
C608 C606 1.561 . S
C609 C606 1.526 . S
C609 C610 1.396 . S
C609 C614 1.390 . S
C610 C604 1.465 . S
C610 C609 1.396 . S
C610 C611 1.399 . S
C611 H597 0.929 . S
C611 C610 1.399 . S
C611 C612 1.385 . S
C612 H598 0.931 . S
C612 C611 1.385 . S
C612 C613 1.389 . S
C613 C612 1.389 . S
C613 C614 1.387 . S
C614 H599 0.930 . S
C614 C609 1.390 . S
C614 C613 1.387 . S
H615 C627 0.930 . S
H616 C629 0.930 . S
H617 C630 0.930 . S
H618 C634 0.959 . S
H619 C634 0.959 . S
H620 C634 0.961 . S
H621 C635 0.960 . S
H622 C635 0.961 . S
H623 C635 0.959 . S
H624 C638 0.929 . S
H625 C639 0.931 . S
H626 C641 0.930 . S
C627 H615 0.930 . S
C627 C628 1.399 . S
C627 C632 1.399 . S
C628 C627 1.399 . S
C628 C629 1.376 . S
C629 H616 0.930 . S
C629 C628 1.376 . S
C629 C630 1.388 . S
C630 H617 0.930 . S
C630 C629 1.388 . S
C630 C631 1.390 . S
C631 C630 1.390 . S
C631 C632 1.394 . S
C631 C637 1.465 . S
C632 C627 1.399 . S
C632 C631 1.394 . S
C632 C633 1.516 . S
C633 C632 1.516 . S
C633 C634 1.502 . S
C633 C635 1.561 . S
C633 C636 1.526 . S
C634 H618 0.959 . S
C634 H619 0.959 . S
C634 H620 0.961 . S
C634 C633 1.502 . S
C635 H621 0.960 . S
C635 H622 0.961 . S
C635 H623 0.959 . S
C635 C633 1.561 . S
C636 C633 1.526 . S
C636 C637 1.396 . S
C636 C641 1.390 . S
C637 C631 1.465 . S
C637 C636 1.396 . S
C637 C638 1.399 . S
C638 H624 0.929 . S
C638 C637 1.399 . S
C638 C639 1.385 . S
C639 H625 0.931 . S
C639 C638 1.385 . S
C639 C640 1.389 . S
C640 C639 1.389 . S
C640 C641 1.387 . S
C641 H626 0.930 . S
C641 C636 1.390 . S
C641 C640 1.387 . S
C331 C22 1.446 . S
C343 C303 1.461 . S
C358 C75 1.423 . S
C370 C38 1.440 . S
C385 C91 1.437 . S
C397 C128 1.432 . S
C412 C181 1.449 . S
C424 C144 1.444 . S
C439 C197 1.438 . S
C451 C234 1.424 . S
C466 C287 1.431 . S
C478 C250 1.452 . S
C493 C251 1.490 . S
C505 C29 1.482 . S
C520 C304 1.503 . S
C532 C82 1.510 . S
C547 C135 1.505 . S
C559 C39 1.497 . S
C574 C188 1.489 . S
C586 C92 1.506 . S
C601 C241 1.512 . S
C613 C145 1.508 . S
C628 C294 1.508 . S
C640 C198 1.500 . S
