# Generated by pormake.
# Topology wiu, (6)-cn, num edge types: 1
# Building blocks:
#     Node 0, Type 0, BuildingBlock: BETDAH_clean_sbu_0, # of connection points: 6
#     Node 1, Type 0, BuildingBlock: BETDAH_clean_sbu_0, # of connection points: 6
#     Node 2, Type 0, BuildingBlock: BETDAH_clean_sbu_0, # of connection points: 6
#     Node 3, Type 0, BuildingBlock: BETDAH_clean_sbu_0, # of connection points: 6
#     Node 4, Type 0, BuildingBlock: BETDAH_clean_sbu_0, # of connection points: 6
#     Node 5, Type 0, BuildingBlock: BETDAH_clean_sbu_0, # of connection points: 6
#     Node 6, Type 0, BuildingBlock: BETDAH_clean_sbu_0, # of connection points: 6
#     Node 7, Type 0, BuildingBlock: BETDAH_clean_sbu_0, # of connection points: 6
#     Node 8, Type 0, BuildingBlock: BETDAH_clean_sbu_0, # of connection points: 6
#     Node 9, Type 0, BuildingBlock: BETDAH_clean_sbu_0, # of connection points: 6
#     Node 10, Type 0, BuildingBlock: BETDAH_clean_sbu_0, # of connection points: 6
#     Node 11, Type 0, BuildingBlock: BETDAH_clean_sbu_0, # of connection points: 6
#     Node 12, Type 0, BuildingBlock: BETDAH_clean_sbu_0, # of connection points: 6
#     Node 13, Type 0, BuildingBlock: BETDAH_clean_sbu_0, # of connection points: 6
#     Node 14, Type 0, BuildingBlock: BETDAH_clean_sbu_0, # of connection points: 6
#     Node 15, Type 0, BuildingBlock: BETDAH_clean_sbu_0, # of connection points: 6
#     Edge 16, Type (0, 0), BuildingBlock: XUDNAN_clean_linker_2, # of connection points: 2
#     Edge 17, Type (0, 0), BuildingBlock: XUDNAN_clean_linker_2, # of connection points: 2
#     Edge 18, Type (0, 0), BuildingBlock: XUDNAN_clean_linker_2, # of connection points: 2
#     Edge 19, Type (0, 0), BuildingBlock: XUDNAN_clean_linker_2, # of connection points: 2
#     Edge 20, Type (0, 0), BuildingBlock: XUDNAN_clean_linker_2, # of connection points: 2
#     Edge 21, Type (0, 0), BuildingBlock: XUDNAN_clean_linker_2, # of connection points: 2
#     Edge 22, Type (0, 0), BuildingBlock: XUDNAN_clean_linker_2, # of connection points: 2
#     Edge 23, Type (0, 0), BuildingBlock: XUDNAN_clean_linker_2, # of connection points: 2
#     Edge 24, Type (0, 0), BuildingBlock: XUDNAN_clean_linker_2, # of connection points: 2
#     Edge 25, Type (0, 0), BuildingBlock: XUDNAN_clean_linker_2, # of connection points: 2
#     Edge 26, Type (0, 0), BuildingBlock: XUDNAN_clean_linker_2, # of connection points: 2
#     Edge 27, Type (0, 0), BuildingBlock: XUDNAN_clean_linker_2, # of connection points: 2
#     Edge 28, Type (0, 0), BuildingBlock: XUDNAN_clean_linker_2, # of connection points: 2
#     Edge 29, Type (0, 0), BuildingBlock: XUDNAN_clean_linker_2, # of connection points: 2
#     Edge 30, Type (0, 0), BuildingBlock: XUDNAN_clean_linker_2, # of connection points: 2
#     Edge 31, Type (0, 0), BuildingBlock: XUDNAN_clean_linker_2, # of connection points: 2
#     Edge 32, Type (0, 0), BuildingBlock: XUDNAN_clean_linker_2, # of connection points: 2
#     Edge 33, Type (0, 0), BuildingBlock: XUDNAN_clean_linker_2, # of connection points: 2
#     Edge 34, Type (0, 0), BuildingBlock: XUDNAN_clean_linker_2, # of connection points: 2
#     Edge 35, Type (0, 0), BuildingBlock: XUDNAN_clean_linker_2, # of connection points: 2
#     Edge 36, Type (0, 0), BuildingBlock: XUDNAN_clean_linker_2, # of connection points: 2
#     Edge 37, Type (0, 0), BuildingBlock: XUDNAN_clean_linker_2, # of connection points: 2
#     Edge 38, Type (0, 0), BuildingBlock: XUDNAN_clean_linker_2, # of connection points: 2
#     Edge 39, Type (0, 0), BuildingBlock: XUDNAN_clean_linker_2, # of connection points: 2
#     Edge 40, Type (0, 0), BuildingBlock: XUDNAN_clean_linker_2, # of connection points: 2
#     Edge 41, Type (0, 0), BuildingBlock: XUDNAN_clean_linker_2, # of connection points: 2
#     Edge 42, Type (0, 0), BuildingBlock: XUDNAN_clean_linker_2, # of connection points: 2
#     Edge 43, Type (0, 0), BuildingBlock: XUDNAN_clean_linker_2, # of connection points: 2
#     Edge 44, Type (0, 0), BuildingBlock: XUDNAN_clean_linker_2, # of connection points: 2
#     Edge 45, Type (0, 0), BuildingBlock: XUDNAN_clean_linker_2, # of connection points: 2
#     Edge 46, Type (0, 0), BuildingBlock: XUDNAN_clean_linker_2, # of connection points: 2
#     Edge 47, Type (0, 0), BuildingBlock: XUDNAN_clean_linker_2, # of connection points: 2
#     Edge 48, Type (0, 0), BuildingBlock: XUDNAN_clean_linker_2, # of connection points: 2
#     Edge 49, Type (0, 0), BuildingBlock: XUDNAN_clean_linker_2, # of connection points: 2
#     Edge 50, Type (0, 0), BuildingBlock: XUDNAN_clean_linker_2, # of connection points: 2
#     Edge 51, Type (0, 0), BuildingBlock: XUDNAN_clean_linker_2, # of connection points: 2
#     Edge 52, Type (0, 0), BuildingBlock: XUDNAN_clean_linker_2, # of connection points: 2
#     Edge 53, Type (0, 0), BuildingBlock: XUDNAN_clean_linker_2, # of connection points: 2
#     Edge 54, Type (0, 0), BuildingBlock: XUDNAN_clean_linker_2, # of connection points: 2
#     Edge 55, Type (0, 0), BuildingBlock: XUDNAN_clean_linker_2, # of connection points: 2
#     Edge 56, Type (0, 0), BuildingBlock: XUDNAN_clean_linker_2, # of connection points: 2
#     Edge 57, Type (0, 0), BuildingBlock: XUDNAN_clean_linker_2, # of connection points: 2
#     Edge 58, Type (0, 0), BuildingBlock: XUDNAN_clean_linker_2, # of connection points: 2
#     Edge 59, Type (0, 0), BuildingBlock: XUDNAN_clean_linker_2, # of connection points: 2
#     Edge 60, Type (0, 0), BuildingBlock: XUDNAN_clean_linker_2, # of connection points: 2
#     Edge 61, Type (0, 0), BuildingBlock: XUDNAN_clean_linker_2, # of connection points: 2
#     Edge 62, Type (0, 0), BuildingBlock: XUDNAN_clean_linker_2, # of connection points: 2
#     Edge 63, Type (0, 0), BuildingBlock: XUDNAN_clean_linker_2, # of connection points: 2
# Relax obj value: 0.558
# Max RMSD: 0.324
# Mean RMSD: 0.324
data_MOF--net-wiu--node1-BETDAH_clean_sbu_0--edge1-XUDNAN_clean_linker_2
_symmetry_space_group_name_H-M    P1
_symmetry_Int_Tables_number       1
_symmetry_cell_setting            triclinic
loop_
_symmetry_equiv_pos_as_xyz
'x, y, z'
_cell_length_a     37.409196
_cell_length_b     37.448391
_cell_length_c     55.22681
_cell_angle_alpha  90.011941
_cell_angle_beta   89.995692
_cell_angle_gamma 89.951939
loop_
_atom_site_label
_atom_site_type_symbol
_atom_site_fract_x
_atom_site_fract_y
_atom_site_fract_z
_atom_type_partial_charge
Ho0 Ho 0.3499 0.17232 0.29062 0.0
Ho1 Ho 0.39203 0.11569 0.27202 0.0
C2 C 0.38201 0.11248 0.32896 0.0
C3 C 0.31153 0.22157 0.31112 0.0
C4 C 0.30552 0.26007 0.30619 0.0
C5 C 0.27153 0.2719 0.29891 0.0
C6 C 0.26582 0.30764 0.29254 0.0
C7 C 0.29399 0.3325 0.29339 0.0
C8 C 0.3278 0.32079 0.3013 0.0
C9 C 0.33349 0.28504 0.30762 0.0
C10 C 0.41678 0.19579 0.27516 0.0
C11 C 0.33271 0.15144 0.2342 0.0
C12 C 0.44295 0.08385 0.24906 0.0
C13 C 0.4819 0.08108 0.25118 0.0
C14 C 0.50213 0.10784 0.26259 0.0
C15 C 0.53945 0.10777 0.26063 0.0
C16 C 0.55688 0.08097 0.24725 0.0
C17 C 0.53638 0.05277 0.23758 0.0
C18 C 0.49927 0.0529 0.23954 0.0
C19 C 0.32698 0.09182 0.28581 0.0
O20 O 0.35512 0.13465 0.32384 0.0
O21 O 0.40558 0.10553 0.31169 0.0
O22 O 0.29916 0.19956 0.29487 0.0
O23 O 0.34308 0.21197 0.3189 0.0
O24 O 0.38614 0.20975 0.26981 0.0
O25 O 0.40975 0.16802 0.28762 0.0
O26 O 0.36071 0.12961 0.23665 0.0
O27 O 0.3223 0.17017 0.25344 0.0
O28 O 0.43071 0.1154 0.24317 0.0
O29 O 0.42407 0.0683 0.26591 0.0
O30 O 0.35531 0.07182 0.2854 0.0
O31 O 0.33379 0.12103 0.27573 0.0
H32 H 0.24945 0.25328 0.29767 0.0
H33 H 0.23952 0.31554 0.28633 0.0
H34 H 0.34996 0.33927 0.30263 0.0
H35 H 0.35993 0.27698 0.31338 0.0
H36 H 0.48901 0.12966 0.27194 0.0
H37 H 0.55451 0.12955 0.26847 0.0
H38 H 0.5486 0.03198 0.22674 0.0
H39 H 0.48403 0.03203 0.2307 0.0
Ho40 Ho 0.633 0.59766 0.53814 0.0
Ho41 Ho 0.6885 0.64171 0.5218 0.0
C42 C 0.6875 0.63428 0.57815 0.0
C43 C 0.58434 0.55696 0.55733 0.0
C44 C 0.54597 0.55046 0.55205 0.0
C45 C 0.52148 0.5788 0.55016 0.0
C46 C 0.48582 0.57242 0.54383 0.0
C47 C 0.47369 0.53753 0.53905 0.0
C48 C 0.49813 0.5091 0.54138 0.0
C49 C 0.53383 0.51553 0.54782 0.0
C50 C 0.60754 0.66451 0.5236 0.0
C51 C 0.65339 0.5859 0.48166 0.0
C52 C 0.72649 0.68454 0.49618 0.0
C53 C 0.74357 0.67682 0.47254 0.0
C54 C 0.72354 0.67865 0.45104 0.0
C55 C 0.73782 0.6663 0.42926 0.0
C56 C 0.77254 0.65194 0.42836 0.0
C57 C 0.79301 0.65106 0.44968 0.0
C58 C 0.7787 0.66341 0.47153 0.0
C59 C 0.71362 0.57681 0.53521 0.0
O60 O 0.66856 0.6051 0.5727 0.0
O61 O 0.6926 0.65825 0.56095 0.0
O62 O 0.60685 0.54607 0.54091 0.0
O63 O 0.59308 0.58823 0.56592 0.0
O64 O 0.59472 0.63367 0.51763 0.0
O65 O 0.63511 0.65794 0.53636 0.0
O66 O 0.67242 0.61528 0.48562 0.0
O67 O 0.63614 0.5716 0.50029 0.0
O68 O 0.73936 0.66704 0.51469 0.0
O69 O 0.6915 0.68555 0.49636 0.0
O70 O 0.73059 0.6064 0.53884 0.0
O71 O 0.68534 0.58296 0.52364 0.0
H72 H 0.52988 0.60602 0.55331 0.0
H73 H 0.46775 0.59496 0.5427 0.0
H74 H 0.48998 0.48193 0.53761 0.0
H75 H 0.55216 0.49319 0.54906 0.0
H76 H 0.69646 0.6889 0.45107 0.0
H77 H 0.7217 0.6684 0.41303 0.0
H78 H 0.81993 0.64041 0.44954 0.0
H79 H 0.79486 0.66158 0.48776 0.0
Ho80 Ho 0.20237 0.87593 0.79105 0.0
Ho81 Ho 0.16006 0.931 0.77002 0.0
C82 C 0.16874 0.93817 0.82715 0.0
C83 C 0.2417 0.82842 0.81252 0.0
C84 C 0.24798 0.78997 0.80771 0.0
C85 C 0.28307 0.77715 0.80521 0.0
C86 C 0.2895 0.74163 0.79847 0.0
C87 C 0.26091 0.71803 0.79412 0.0
C88 C 0.22577 0.73077 0.79732 0.0
C89 C 0.21937 0.76631 0.80389 0.0
C90 C 0.13557 0.85148 0.77719 0.0
C91 C 0.22007 0.89314 0.73384 0.0
C92 C 0.10785 0.95839 0.7459 0.0
C93 C 0.06859 0.95713 0.74792 0.0
C94 C 0.0505 0.92441 0.7503 0.0
C95 C 1.01331 0.923 0.74849 0.0
C96 C 0.9936 0.95425 0.74405 0.0
C97 C 1.01156 0.98729 0.74377 0.0
C98 C 0.04877 0.98867 0.74564 0.0
C99 C 0.22453 0.95699 0.783 0.0
O100 O 0.19547 0.91508 0.82354 0.0
O101 O 0.14655 0.94477 0.80901 0.0
O102 O 0.25384 0.85028 0.79611 0.0
O103 O 0.20995 0.83769 0.8201 0.0
O104 O 0.16555 0.83571 0.77258 0.0
O105 O 0.14289 0.88058 0.78794 0.0
O106 O 0.19294 0.91616 0.73556 0.0
O107 O 0.22895 0.87442 0.75346 0.0
O108 O 0.12352 0.92836 0.74003 0.0
O109 O 0.125 0.97596 0.76272 0.0
O110 O 0.19542 0.97591 0.78261 0.0
O111 O 0.21835 0.92653 0.77424 0.0
H112 H 0.30558 0.79492 0.80787 0.0
H113 H 0.31688 0.73305 0.79592 0.0
H114 H 0.20305 0.71334 0.7946 0.0
H115 H 0.19197 0.77535 0.80555 0.0
H116 H 0.06517 0.89967 0.75213 0.0
H117 H 1.00022 0.89721 0.74881 0.0
H118 H 0.99727 1.01183 0.73999 0.0
H119 H 0.06218 1.01418 0.74391 0.0
Ho120 Ho 0.92149 0.4462 1.03846 0.0
Ho121 Ho 0.86266 0.41021 1.0201 0.0
C122 C 0.86148 0.41319 1.07706 0.0
C123 C 0.97177 0.48241 1.05947 0.0
C124 C 1.00901 0.49101 1.05268 0.0
C125 C 0.03279 0.46425 1.04498 0.0
C126 C 0.06726 0.47306 1.0373 0.0
C127 C 0.07867 0.50886 1.03683 0.0
C128 C 0.05491 0.53555 1.04485 0.0
C129 C 1.02049 0.52667 1.05274 0.0
C130 C 0.94181 0.37906 1.02235 0.0
C131 C 0.90343 0.46586 0.98242 0.0
C132 C 0.82501 0.37209 0.99111 0.0
C133 C 0.8092 0.38301 0.96781 0.0
C134 C 0.81515 0.36217 0.94715 0.0
C135 C 0.80356 0.37403 0.92451 0.0
C136 C 0.78562 0.40689 0.92214 0.0
C137 C 0.77934 0.42766 0.94283 0.0
C138 C 0.79137 0.41601 0.96546 0.0
C139 C 0.84334 0.47562 1.03578 0.0
O140 O 0.88735 0.43706 1.07316 0.0
O141 O 0.84958 0.39413 1.0586 0.0
O142 O 0.94702 0.49697 1.04611 0.0
O143 O 0.96471 0.44911 1.06446 0.0
O144 O 0.95676 0.40913 1.0169 0.0
O145 O 0.91401 0.38692 1.03475 0.0
O146 O 0.87641 0.44344 0.98587 0.0
O147 O 0.92602 0.47115 1.00061 0.0
O148 O 0.81168 0.38712 1.01047 0.0
O149 O 0.85997 0.37082 0.99144 0.0
O150 O 0.82344 0.44747 1.03784 0.0
O151 O 0.87147 0.46799 1.02435 0.0
H152 H 0.02471 0.4365 1.0446 0.0
H153 H 0.08496 0.4517 1.0317 0.0
H154 H 0.06254 0.56342 1.04448 0.0
H155 H 1.00254 0.54777 1.05845 0.0
H156 H 0.82924 0.33695 0.94848 0.0
H157 H 0.80816 0.35722 0.90884 0.0
H158 H 0.76552 0.45301 0.94142 0.0
H159 H 0.78714 0.43308 0.98103 0.0
Ho160 Ho 0.65881 0.93876 1.01937 0.0
Ho161 Ho 0.69982 0.88032 1.00475 0.0
C162 C 0.71496 0.90541 1.06023 0.0
C163 C 0.61624 0.97743 1.04472 0.0
C164 C 0.62475 0.99812 1.06669 0.0
C165 C 0.60623 0.99107 1.0882 0.0
C166 C 0.61718 1.00675 1.10988 0.0
C167 C 0.64672 0.02996 1.1104 0.0
C168 C 0.66466 0.03789 1.0888 0.0
C169 C 0.654 1.02183 1.06714 0.0
C170 C 0.72488 0.96041 1.00573 0.0
C171 C 0.66744 0.93648 0.96316 0.0
C172 C 0.73927 0.83014 0.98627 0.0
C173 C 0.74681 0.79268 0.99299 0.0
C174 C 0.78224 0.78041 0.99353 0.0
C175 C 0.79004 0.74552 1.00097 0.0
C176 C 0.76248 0.72207 1.00794 0.0
C177 C 0.72694 0.7344 1.00703 0.0
C178 C 0.71922 0.76934 0.99981 0.0
C179 C 0.63222 0.85832 1.01939 0.0
O180 O 0.68978 0.92922 1.05493 0.0
O181 O 0.72435 0.8822 1.04316 0.0
O182 O 0.63078 0.98862 1.0246 0.0
O183 O 0.61817 0.94271 1.04718 0.0
O184 O 0.69606 0.97897 1.00235 0.0
O185 O 0.71736 0.93264 1.01745 0.0
O186 O 0.69293 0.91288 0.96892 0.0
O187 O 0.64517 0.94727 0.98015 0.0
O188 O 0.75141 0.85432 1.0011 0.0
O189 O 0.70699 0.83747 0.97884 0.0
O190 O 0.66251 0.84504 1.02624 0.0
O191 O 0.63989 0.88515 1.00608 0.0
H192 H 0.58388 0.97269 1.08834 0.0
H193 H 0.60247 1.00077 1.12629 0.0
H194 H 0.68739 0.0558 1.0888 0.0
H195 H 0.66926 0.02735 1.05089 0.0
H196 H 0.80398 0.79803 0.98853 0.0
H197 H 0.81775 0.73724 1.00175 0.0
H198 H 0.70492 0.71704 1.01183 0.0
H199 H 0.69165 0.7781 0.99976 0.0
Ho200 Ho 0.36209 0.40576 0.76896 0.0
Ho201 Ho 0.42075 0.44668 0.75589 0.0
C202 C 0.39597 0.45959 0.81136 0.0
C203 C 0.32227 0.36288 0.79314 0.0
C204 C 0.30103 0.37119 0.81497 0.0
C205 C 0.30961 0.3547 0.83699 0.0
C206 C 0.29348 0.36601 0.85845 0.0
C207 C 0.26824 0.39387 0.85828 0.0
C208 C 0.25874 0.40965 0.83619 0.0
C209 C 0.2752 0.39863 0.81473 0.0
C210 C 0.3406 0.47278 0.75741 0.0
C211 C 0.36463 0.41804 0.71327 0.0
C212 C 0.47163 0.48564 0.73796 0.0
C213 C 0.50954 0.4917 0.74426 0.0
C214 C 0.53278 0.46313 0.74921 0.0
C215 C 0.56824 0.46954 0.75598 0.0
C216 C 0.58116 0.50468 0.75824 0.0
C217 C 0.55771 0.5332 0.75328 0.0
C218 C 0.52236 0.52674 0.74628 0.0
C219 C 0.44193 0.37805 0.76898 0.0
O220 O 0.37224 0.4346 0.80542 0.0
O221 O 0.41919 0.46978 0.79457 0.0
O222 O 0.31184 0.378 0.77302 0.0
O223 O 0.35699 0.36422 0.79602 0.0
O224 O 0.32216 0.44427 0.75289 0.0
O225 O 0.3684 0.4644 0.7689 0.0
O226 O 0.38665 0.44401 0.72059 0.0
O227 O 0.35553 0.39336 0.72914 0.0
O228 O 0.44835 0.49745 0.75357 0.0
O229 O 0.46307 0.4542 0.7296 0.0
O230 O 0.4554 0.40776 0.77667 0.0
O231 O 0.41554 0.38679 0.75558 0.0
H232 H 0.32955 0.33372 0.83769 0.0
H233 H 0.30068 0.35285 0.87523 0.0
H234 H 0.23923 0.43103 0.83561 0.0
H235 H 0.26828 0.41229 0.79809 0.0
H236 H 0.52358 0.43581 0.74801 0.0
H237 H 0.58554 0.44687 0.75929 0.0
H238 H 0.56639 0.56062 0.75523 0.0
H239 H 0.50483 0.5492 0.74278 0.0
Ho240 Ho 0.89471 0.11072 0.51814 0.0
Ho241 Ho 0.85383 0.16973 0.50556 0.0
C242 C 0.84129 0.14419 0.56089 0.0
C243 C 0.937 0.07047 0.54245 0.0
C244 C 0.92832 0.05176 0.56533 0.0
C245 C 0.92848 0.07043 0.58742 0.0
C246 C 0.91507 0.05465 0.60839 0.0
C247 C 0.90125 1.01975 0.60789 0.0
C248 C 0.9018 1.00073 0.58595 0.0
C249 C 0.91525 1.01654 0.56491 0.0
C250 C 0.82773 0.08992 0.50611 0.0
C251 C 0.88269 0.11406 0.46251 0.0
C252 C 0.81539 0.2215 0.48821 0.0
C253 C 0.80978 0.25921 0.49511 0.0
C254 C 0.83817 0.28067 0.50321 0.0
C255 C 0.83206 0.31603 0.51035 0.0
C256 C 0.79735 0.33061 0.5098 0.0
C257 C 0.769 0.30882 0.50182 0.0
C258 C 0.7752 0.27359 0.4945 0.0
C259 C 0.92249 0.19024 0.51892 0.0
O260 O 0.86674 0.12103 0.55482 0.0
O261 O 0.8305 0.16727 0.54419 0.0
O262 O 0.91985 0.05926 0.5233 0.0
O263 O 0.93841 0.1054 0.54354 0.0
O264 O 0.85624 0.07159 0.5013 0.0
O265 O 0.83598 0.11728 0.5181 0.0
O266 O 0.85674 0.13618 0.46992 0.0
O267 O 0.90731 0.10464 0.47837 0.0
O268 O 0.80323 0.19787 0.50342 0.0
O269 O 0.84686 0.21289 0.47986 0.0
O270 O 0.89282 0.20348 0.52691 0.0
O271 O 0.9137 0.16428 0.5052 0.0
H272 H 0.93833 0.09757 0.58848 0.0
H273 H 0.91615 0.06967 0.62513 0.0
H274 H 0.8916 0.97371 0.58502 0.0
H275 H 0.91458 1.00147 0.54817 0.0
H276 H 0.86509 0.27012 0.50411 0.0
H277 H 0.85463 0.33201 0.51608 0.0
H278 H 0.74181 0.31875 0.50157 0.0
H279 H 0.75285 0.2574 0.4886 0.0
Ho280 Ho 0.18977 0.64271 0.27016 0.0
Ho281 Ho 0.13316 0.60038 0.25387 0.0
C282 C 0.15587 0.5855 0.30995 0.0
C283 C 0.2273 0.68538 0.29605 0.0
C284 C 0.24757 0.67637 0.3181 0.0
C285 C 0.24053 0.69481 0.33964 0.0
C286 C 0.25535 0.68309 0.36143 0.0
C287 C 0.27766 0.65284 0.36202 0.0
C288 C 0.28564 0.63499 0.3404 0.0
C289 C 0.27043 0.64642 0.31863 0.0
C290 C 0.214 0.57726 0.25696 0.0
C291 C 0.18929 0.63534 0.21387 0.0
C292 C 0.08348 0.56092 0.23475 0.0
C293 C 0.04549 0.55393 0.24088 0.0
C294 C 0.0333 0.51862 0.243 0.0
C295 C 0.99797 0.51145 0.24996 0.0
C296 C 0.9739 0.53948 0.25488 0.0
C297 C 0.98615 0.57486 0.25236 0.0
C298 C 1.0215 0.58198 0.24559 0.0
C299 C 0.10925 0.66748 0.26883 0.0
O300 O 0.17821 0.61232 0.30564 0.0
O301 O 0.13481 0.57475 0.29199 0.0
O302 O 0.2391 0.67146 0.27586 0.0
O303 O 0.19252 0.68305 0.29818 0.0
O304 O 0.23175 0.60661 0.25388 0.0
O305 O 0.1853 0.58407 0.26787 0.0
O306 O 0.16891 0.60705 0.21918 0.0
O307 O 0.19537 0.65892 0.23113 0.0
O308 O 0.10698 0.54895 0.25016 0.0
O309 O 0.09159 0.59281 0.22697 0.0
O310 O 0.09609 0.63687 0.27495 0.0
O311 O 0.13656 0.66042 0.25589 0.0
H312 H 0.22271 0.71764 0.33972 0.0
H313 H 0.24935 0.6977 0.37787 0.0
H314 H 0.30284 0.61171 0.34045 0.0
H315 H 0.27584 0.63117 0.30236 0.0
H316 H 0.05131 0.4965 0.23963 0.0
H317 H 0.98983 0.48387 0.25199 0.0
H318 H 0.96839 0.59722 0.25555 0.0
H319 H 0.03005 0.60949 0.24425 0.0
Ho320 Ho 0.85203 0.66819 0.78948 0.0
Ho321 Ho 0.89085 0.61227 0.76973 0.0
C322 C 0.88859 0.60951 0.82661 0.0
C323 C 0.81576 0.71839 0.81075 0.0
C324 C 0.80746 0.75524 0.80301 0.0
C325 C 0.79321 0.78004 0.81942 0.0
C326 C 0.78596 0.81517 0.81203 0.0
C327 C 0.79295 0.82618 0.78809 0.0
C328 C 0.80707 0.80101 0.77172 0.0
C329 C 0.81426 0.766 0.7791 0.0
C330 C 0.9178 0.69197 0.77252 0.0
C331 C 0.83198 0.6512 0.73339 0.0
C332 C 0.93029 0.57651 0.74043 0.0
C333 C 0.91953 0.55996 0.71733 0.0
C334 C 0.93983 0.56618 0.69646 0.0
C335 C 0.92788 0.55394 0.67399 0.0
C336 C 0.89549 0.53509 0.67202 0.0
C337 C 0.87529 0.52853 0.69293 0.0
C338 C 0.88701 0.5412 0.71538 0.0
C339 C 0.82679 0.58863 0.78545 0.0
O340 O 0.86087 0.63136 0.82309 0.0
O341 O 0.91003 0.60297 0.80808 0.0
O342 O 0.80121 0.69309 0.79788 0.0
O343 O 0.84931 0.71181 0.81534 0.0
O344 O 0.88675 0.7049 0.7672 0.0
O345 O 0.91182 0.66388 0.78494 0.0
O346 O 0.85723 0.6265 0.73574 0.0
O347 O 0.82468 0.67164 0.75239 0.0
O348 O 0.91656 0.56258 0.76004 0.0
O349 O 0.92958 0.61145 0.7406 0.0
O350 O 0.85613 0.57038 0.78704 0.0
O351 O 0.83264 0.61764 0.77461 0.0
H352 H 0.7879 0.77231 0.83797 0.0
H353 H 0.77549 0.83386 0.82521 0.0
H354 H 0.81228 0.80825 0.75306 0.0
H355 H 0.82515 0.74728 0.7661 0.0
H356 H 0.96464 0.581 0.69749 0.0
H357 H 0.94425 0.55881 0.65815 0.0
H358 H 0.85028 0.51406 0.69183 0.0
H359 H 0.87033 0.53676 0.73113 0.0
Ho360 Ho 0.13128 0.09844 1.03735 0.0
Ho361 Ho 0.18852 0.14323 1.0225 0.0
C362 C 0.18809 0.12977 1.07888 0.0
C363 C 0.08247 0.05682 1.05522 0.0
C364 C 0.04428 0.05083 1.04953 0.0
C365 C 0.03149 1.01589 1.04662 0.0
C366 C 0.99594 1.00971 1.03986 0.0
C367 C 0.9723 0.03843 1.03593 0.0
C368 C 0.98514 0.07344 1.03926 0.0
C369 C 1.02073 0.07958 1.04584 0.0
C370 C 0.10774 0.16634 1.02532 0.0
C371 C 0.15503 0.08772 0.98098 0.0
C372 C 0.22046 0.19591 1.00153 0.0
C373 C 0.22205 0.23486 1.00396 0.0
C374 C 0.19326 0.25435 1.01359 0.0
C375 C 0.19181 0.29147 1.01075 0.0
C376 C 0.21911 0.30948 0.99817 0.0
C377 C 0.2494 0.2899 0.99066 0.0
C378 C 0.25077 0.25298 0.99353 0.0
C379 C 0.21298 0.07775 1.0343 0.0
O380 O 0.16503 0.10397 1.07274 0.0
O381 O 0.19755 0.15347 1.06236 0.0
O382 O 0.10513 0.04677 1.03864 0.0
O383 O 0.09103 0.08764 1.0646 0.0
O384 O 0.09338 0.13679 1.01811 0.0
O385 O 0.1353 0.1582 1.03764 0.0
O386 O 0.17656 0.11517 0.98594 0.0
O387 O 0.13466 0.07495 0.9987 0.0
O388 O 0.18967 0.18311 0.99453 0.0
O389 O 0.23535 0.17694 1.01861 0.0
O390 O 0.23149 0.10675 1.03689 0.0
O391 O 0.18429 0.08468 1.02335 0.0
H392 H 0.04923 0.9933 1.04918 0.0
H393 H 0.98729 0.98242 1.03715 0.0
H394 H 0.96769 0.09624 1.03682 0.0
H395 H 0.02985 0.10688 1.0478 0.0
H396 H 0.17092 0.24067 1.0219 0.0
H397 H 0.16831 0.30569 1.01696 0.0
H398 H 0.27077 0.3024 0.98053 0.0
H399 H 0.27318 0.23832 0.98603 0.0
Ho400 Ho 0.702 0.37714 0.29051 0.0
Ho401 Ho 0.66182 0.43355 0.26985 0.0
C402 C 0.6688 0.43903 0.327 0.0
C403 C 0.73985 0.32798 0.3117 0.0
C404 C 0.74759 0.2907 0.3047 0.0
C405 C 0.7643 0.26721 0.32093 0.0
C406 C 0.77096 0.23164 0.31425 0.0
C407 C 0.76084 0.21893 0.29124 0.0
C408 C 0.74445 0.24284 0.27499 0.0
C409 C 0.73789 0.27827 0.28165 0.0
C410 C 0.63455 0.35507 0.27627 0.0
C411 C 0.71977 0.39353 0.23342 0.0
C412 C 0.61188 0.46483 0.24558 0.0
C413 C 0.57286 0.46727 0.24754 0.0
C414 C 0.55315 0.44061 0.25943 0.0
C415 C 0.51596 0.4393 0.25702 0.0
C416 C 0.49805 0.46477 0.24276 0.0
C417 C 0.51784 0.49322 0.23277 0.0
C418 C 0.55492 0.49436 0.23511 0.0
C419 C 0.72696 0.45737 0.28343 0.0
O420 O 0.69504 0.41534 0.32354 0.0
O421 O 0.64727 0.44642 0.30868 0.0
O422 O 0.75334 0.35242 0.29762 0.0
O423 O 0.70669 0.3349 0.31727 0.0
O424 O 0.66416 0.33902 0.27098 0.0
O425 O 0.64266 0.38359 0.28747 0.0
O426 O 0.69335 0.41726 0.23524 0.0
O427 O 0.72845 0.37469 0.25299 0.0
O428 O 0.62424 0.43305 0.24038 0.0
O429 O 0.63052 0.48104 0.26228 0.0
O430 O 0.69823 0.47679 0.28357 0.0
O431 O 0.72018 0.4274 0.27407 0.0
H432 H 0.77195 0.27629 0.33882 0.0
H433 H 0.78335 0.21393 0.32729 0.0
H434 H 0.73684 0.23425 0.25699 0.0
H435 H 0.72517 0.29601 0.26877 0.0
H436 H 0.56671 0.41964 0.26931 0.0
H437 H 0.50151 0.41718 0.26501 0.0
H438 H 0.50518 0.513 0.22132 0.0
H439 H 0.56976 0.51515 0.22589 0.0
Ho440 Ho 0.4218 0.94762 0.53722 0.0
Ho441 Ho 0.36349 0.90389 0.52273 0.0
C442 C 0.36517 0.91621 0.57899 0.0
C443 C 0.47089 0.98905 0.55506 0.0
C444 C 0.50891 0.99571 0.54922 0.0
C445 C 0.5322 0.96752 0.54343 0.0
C446 C 0.56769 0.97441 0.53692 0.0
C447 C 0.5807 1.00967 0.5358 0.0
C448 C 0.55734 0.0378 0.54185 0.0
C449 C 0.52186 0.03086 0.54851 0.0
C450 C 0.44405 0.87935 0.52522 0.0
C451 C 0.3967 0.95907 0.48102 0.0
C452 C 0.33046 0.8519 0.50178 0.0
C453 C 0.32719 0.8131 0.50462 0.0
C454 C 0.3547 0.79273 0.51507 0.0
C455 C 0.35439 0.75545 0.51309 0.0
C456 C 0.32658 0.73815 0.50057 0.0
C457 C 0.29763 0.75884 0.49206 0.0
C458 C 0.29801 0.7959 0.49408 0.0
C459 C 0.34053 0.97005 0.53469 0.0
O460 O 0.38832 0.94198 0.57288 0.0
O461 O 0.35528 0.89286 0.56242 0.0
O462 O 0.44781 0.99938 0.53884 0.0
O463 O 0.4629 0.9578 0.56399 0.0
O464 O 0.45905 0.90861 0.51803 0.0
O465 O 0.41666 0.88802 0.53755 0.0
O466 O 0.37412 0.93273 0.48645 0.0
O467 O 0.41888 0.97042 0.49823 0.0
O468 O 0.36199 0.86336 0.49516 0.0
O469 O 0.31565 0.87183 0.51839 0.0
O470 O 0.32162 0.94132 0.53764 0.0
O471 O 0.36887 0.96237 0.52361 0.0
H472 H 0.52294 0.94012 0.54371 0.0
H473 H 0.58494 0.95198 0.5328 0.0
H474 H 0.56615 0.0653 0.54089 0.0
H475 H 0.50433 0.05304 0.55275 0.0
H476 H 0.37737 0.80572 0.52347 0.0
H477 H 0.37692 0.74042 0.52003 0.0
H478 H 0.27598 0.7469 0.48189 0.0
H479 H 0.27656 0.81125 0.48595 0.0
Ho480 Ho 0.15995 0.43569 0.51804 0.0
Ho481 Ho 0.20403 0.37756 0.50431 0.0
C482 C 0.21496 0.40269 0.56019 0.0
C483 C 0.10757 0.46859 0.53876 0.0
C484 C 0.06885 0.47327 0.53584 0.0
C485 C 0.04731 0.4466 0.52551 0.0
C486 C 1.00999 0.4491 0.52689 0.0
C487 C 0.99378 0.47828 0.53868 0.0
C488 C 1.01579 0.50604 0.54737 0.0
C489 C 0.05287 0.50352 0.54592 0.0
C490 C 0.22634 0.45926 0.50707 0.0
C491 C 0.17475 0.43441 0.46226 0.0
C492 C 0.24523 0.32831 0.48646 0.0
C493 C 0.25109 0.29006 0.49192 0.0
C494 C 0.22227 0.26677 0.49595 0.0
C495 C 0.22837 0.23109 0.50225 0.0
C496 C 0.26344 0.21788 0.50495 0.0
C497 C 0.29221 0.24127 0.50065 0.0
C498 C 0.28607 0.27691 0.49417 0.0
C499 C 0.13559 0.35536 0.51579 0.0
O500 O 0.18961 0.42627 0.55437 0.0
O501 O 0.22568 0.37971 0.54335 0.0
O502 O 0.11828 0.43657 0.54489 0.0
O503 O 0.12813 0.48363 0.52259 0.0
O504 O 0.19739 0.47774 0.50355 0.0
O505 O 0.21869 0.43062 0.51788 0.0
O506 O 0.20115 0.41273 0.46949 0.0
O507 O 0.14941 0.44257 0.47796 0.0
O508 O 0.2554 0.35068 0.50317 0.0
O509 O 0.21443 0.33716 0.4771 0.0
O510 O 0.16477 0.34068 0.52343 0.0
O511 O 0.14438 0.38246 0.50324 0.0
H512 H 0.05931 0.42309 0.51747 0.0
H513 H 0.99394 0.4274 0.51985 0.0
H514 H 1.00471 0.52861 0.55706 0.0
H515 H 0.06911 0.52431 0.55399 0.0
H516 H 0.19496 0.27617 0.49447 0.0
H517 H 0.20551 0.21385 0.50499 0.0
H518 H 0.31955 0.23233 0.50287 0.0
H519 H 0.30872 0.29444 0.49132 0.0
Ho520 Ho 0.86501 0.90645 0.26845 0.0
Ho521 Ho 0.92277 0.95041 0.25485 0.0
C522 C 0.89774 0.96171 0.31062 0.0
C523 C 0.83368 0.85284 0.28855 0.0
C524 C 0.83343 0.81389 0.28513 0.0
C525 C 0.86531 0.79483 0.28119 0.0
C526 C 0.86569 0.7576 0.28292 0.0
C527 C 0.83418 0.73896 0.28856 0.0
C528 C 0.80175 0.75797 0.28994 0.0
C529 C 0.80144 0.79516 0.28834 0.0
C530 C 0.84053 0.97253 0.25786 0.0
C531 C 0.86603 0.92169 0.21267 0.0
C532 C 0.97227 0.99133 0.23711 0.0
C533 C 1.00898 0.99936 0.24502 0.0
C534 C 1.02026 0.99016 0.26844 0.0
C535 C 0.05475 0.99869 0.27626 0.0
C536 C 0.07873 1.01645 0.26077 0.0
C537 C 0.06755 0.02491 0.23711 0.0
C538 C 0.03291 1.01649 0.22934 0.0
C539 C 0.94502 0.88196 0.26623 0.0
O540 O 0.87387 0.93666 0.30471 0.0
O541 O 0.92114 0.9719 0.29392 0.0
O542 O 0.8637 0.86652 0.2964 0.0
O543 O 0.81857 0.8721 0.27167 0.0
O544 O 0.82229 0.94343 0.25449 0.0
O545 O 0.86953 0.96516 0.26842 0.0
O546 O 0.88801 0.94775 0.21991 0.0
O547 O 0.85766 0.89645 0.22834 0.0
O548 O 0.94694 1.00263 0.25142 0.0
O549 O 0.96659 0.95876 0.22973 0.0
O550 O 0.95929 0.91104 0.27438 0.0
O551 O 0.91809 0.89089 0.25352 0.0
H552 H 0.8903 0.80876 0.27838 0.0
H553 H 0.89102 0.74366 0.28175 0.0
H554 H 0.77706 0.74451 0.29459 0.0
H555 H 0.77657 0.80938 0.29124 0.0
H556 H 1.00225 0.97665 0.28077 0.0
H557 H 0.06266 0.99135 0.29446 0.0
H558 H 0.08526 0.03885 0.22482 0.0
H559 H 0.02468 0.02371 0.21118 0.0
Ho560 Ho 0.38906 0.61219 1.01942 0.0
Ho561 Ho 0.35247 0.67235 1.00288 0.0
C562 C 0.33493 0.65267 1.05881 0.0
C563 C 0.42855 0.56888 1.04397 0.0
C564 C 0.41867 0.5462 1.06454 0.0
C565 C 0.38314 0.54586 1.07286 0.0
C566 C 0.37376 0.5259 1.09321 0.0
C567 C 0.39953 0.50503 1.10492 0.0
C568 C 0.4347 0.50408 1.09596 0.0
C569 C 0.44428 0.52477 1.07593 0.0
C570 C 0.32241 0.59403 1.00524 0.0
C571 C 0.38113 0.61296 0.96289 0.0
C572 C 0.31677 0.72391 0.98291 0.0
C573 C 0.31038 0.76163 0.9895 0.0
C574 C 0.33835 0.78382 0.99737 0.0
C575 C 0.33136 0.81884 1.00485 0.0
C576 C 0.29621 0.83236 1.00487 0.0
C577 C 0.26835 0.81002 0.99686 0.0
C578 C 0.2754 0.7751 0.98921 0.0
C579 C 0.4206 0.69087 1.0175 0.0
O580 O 0.35857 0.62668 1.05496 0.0
O581 O 0.328 0.67501 1.04078 0.0
O582 O 0.41325 0.56022 1.02361 0.0
O583 O 0.42772 0.60332 1.04801 0.0
O584 O 0.35022 0.57397 1.00234 0.0
O585 O 0.33095 0.6218 1.01672 0.0
O586 O 0.35584 0.63663 0.96862 0.0
O587 O 0.40404 0.60358 0.97995 0.0
O588 O 0.30243 0.70038 0.99731 0.0
O589 O 0.34919 0.7151 0.97652 0.0
O590 O 0.39144 0.70692 1.02376 0.0
O591 O 0.41188 0.66348 1.00505 0.0
H592 H 0.36272 0.56131 1.06381 0.0
H593 H 0.3466 0.52712 1.1 0.0
H594 H 0.45504 0.48845 1.10507 0.0
H595 H 0.47169 0.52448 1.06959 0.0
H596 H 0.3656 0.77405 0.99798 0.0
H597 H 0.35359 0.83534 1.01053 0.0
H598 H 0.24089 0.81918 0.99698 0.0
H599 H 0.25338 0.75835 0.98345 0.0
Ho600 Ho 0.6851 0.13742 0.76964 0.0
Ho601 Ho 0.62866 0.09595 0.75131 0.0
C602 C 0.64708 0.07979 0.80781 0.0
C603 C 0.71661 0.18832 0.79282 0.0
C604 C 0.72181 0.22698 0.79018 0.0
C605 C 0.69608 0.24874 0.77893 0.0
C606 C 0.69918 0.28599 0.77992 0.0
C607 C 0.72809 0.30191 0.79212 0.0
C608 C 0.75487 0.27967 0.80193 0.0
C609 C 0.75171 0.24264 0.80093 0.0
C610 C 0.70984 0.07208 0.75734 0.0
C611 C 0.68933 0.12602 0.71302 0.0
C612 C 0.57993 0.05732 0.73061 0.0
C613 C 0.54161 0.05129 0.73579 0.0
C614 C 0.5184 0.0799 0.74074 0.0
C615 C 0.48291 0.07352 0.74745 0.0
C616 C 0.46988 0.03839 0.74966 0.0
C617 C 0.49313 1.00985 0.74434 0.0
C618 C 0.52855 1.01627 0.73743 0.0
C619 C 0.60582 0.16354 0.76447 0.0
O620 O 0.67078 0.10614 0.80505 0.0
O621 O 0.62718 0.07076 0.7889 0.0
O622 O 0.68392 0.17788 0.79734 0.0
O623 O 0.73306 0.16786 0.77724 0.0
O624 O 0.72853 0.10118 0.75581 0.0
O625 O 0.67999 0.07881 0.76699 0.0
O626 O 0.66666 0.09974 0.71839 0.0
O627 O 0.6964 0.15004 0.72995 0.0
O628 O 0.60205 0.04499 0.7468 0.0
O629 O 0.58915 0.08899 0.72297 0.0
O630 O 0.59053 0.13396 0.77062 0.0
O631 O 0.634 0.15548 0.75277 0.0
H632 H 0.67287 0.237 0.77034 0.0
H633 H 0.6782 0.30227 0.77211 0.0
H634 H 0.77714 0.29068 0.81198 0.0
H635 H 0.7718 0.22624 0.80969 0.0
H636 H 0.52775 0.10724 0.73978 0.0
H637 H 0.46573 0.09622 0.75098 0.0
H638 H 0.48432 0.98245 0.74616 0.0
H639 H 0.54605 0.99378 0.73393 0.0
H640 H 0.48658 0.19623 0.25475 0.0
H641 H 0.4184 0.25331 0.30497 0.0
H642 H 0.46491 0.29947 0.30999 0.0
H643 H 0.57157 0.21548 0.28589 0.0
H644 H 0.59698 0.22152 0.25845 0.0
H645 H 0.55877 0.19232 0.25862 0.0
H646 H 0.53071 0.22712 0.22331 0.0
H647 H 0.56874 0.25662 0.22273 0.0
H648 H 0.52433 0.27469 0.22598 0.0
H649 H 0.51837 0.34199 0.30848 0.0
H650 H 0.57539 0.37428 0.30291 0.0
H651 H 0.61212 0.29079 0.25452 0.0
C652 C 0.48173 0.21809 0.26715 0.0
C653 C 0.44838 0.22058 0.27972 0.0
C654 C 0.44335 0.25033 0.29527 0.0
C655 C 0.46979 0.27692 0.29818 0.0
C656 C 0.50195 0.27406 0.28544 0.0
C657 C 0.50828 0.24521 0.27036 0.0
C658 C 0.54535 0.24912 0.25871 0.0
C659 C 0.56963 0.21774 0.26586 0.0
C660 C 0.54208 0.25206 0.23103 0.0
C661 C 0.55881 0.28432 0.26968 0.0
C662 C 0.53304 0.29836 0.28487 0.0
C663 C 0.53869 0.33096 0.29671 0.0
C664 C 0.57134 0.34939 0.29331 0.0
C665 C 0.5988 0.33562 0.27822 0.0
C666 C 0.59201 0.30241 0.26622 0.0
H667 H 0.60474 0.73366 0.50267 0.0
H668 H 0.55076 0.66548 0.55431 0.0
H669 H 0.50368 0.71114 0.5596 0.0
H670 H 0.58446 0.81869 0.534 0.0
H671 H 0.57788 0.8435 0.50639 0.0
H672 H 0.60782 0.80577 0.50681 0.0
H673 H 0.57261 0.77709 0.47156 0.0
H674 H 0.54243 0.81462 0.47115 0.0
H675 H 0.52517 0.77 0.47467 0.0
H676 H 0.46005 0.76414 0.55841 0.0
H677 H 0.42672 0.82063 0.55287 0.0
H678 H 0.50804 0.85738 0.50284 0.0
C679 C 0.5833 0.7286 0.51537 0.0
C680 C 0.58188 0.69544 0.52818 0.0
C681 C 0.55277 0.69018 0.54426 0.0
C682 C 0.52572 0.71618 0.54738 0.0
C683 C 0.52753 0.74816 0.53437 0.0
C684 C 0.55581 0.75471 0.51884 0.0
C685 C 0.55104 0.79157 0.50711 0.0
C686 C 0.58216 0.81635 0.51399 0.0
C687 C 0.54762 0.7881 0.47948 0.0
C688 C 0.51583 0.80456 0.51838 0.0
C689 C 0.50267 0.77888 0.53397 0.0
C690 C 0.47038 0.78435 0.54628 0.0
C691 C 0.45135 0.81669 0.54291 0.0
C692 C 0.46416 0.84397 0.52734 0.0
C693 C 0.49709 0.83738 0.51489 0.0
H694 H 0.11721 0.78239 0.7612 0.0
H695 H 0.07206 0.87566 0.79628 0.0
H696 H 1.01383 0.84479 0.79937 0.0
H697 H 0.03739 0.75788 0.72668 0.0
H698 H 0.04355 0.71045 0.7304 0.0
H699 H 0.08171 0.7398 0.73054 0.0
H700 H 0.1006 0.71498 0.77227 0.0
H701 H 0.06242 0.68565 0.77231 0.0
H702 H 0.06932 0.71621 0.79709 0.0
H703 H 0.9594 0.80377 0.79863 0.0
H704 H 0.91357 0.75707 0.7939 0.0
H705 H 0.99177 0.68755 0.76013 0.0
C706 C 0.09504 0.79642 0.76947 0.0
C707 C 0.09971 0.83208 0.77831 0.0
C708 C 0.06968 0.84881 0.78917 0.0
C709 C 0.03629 0.83128 0.79106 0.0
C710 C 0.03265 0.79638 0.78227 0.0
C711 C 0.06123 0.77903 0.77166 0.0
C712 C 0.04983 0.74134 0.76379 0.0
C713 C 0.05333 0.73712 0.73621 0.0
C714 C 0.07186 0.71285 0.77716 0.0
C715 C 1.01046 0.74015 0.77163 0.0
C716 C 1.00131 0.7724 0.78221 0.0
C717 C 0.96655 0.77847 0.79047 0.0
C718 C 0.9405 0.7515 0.78772 0.0
C719 C 0.94853 0.71799 0.77692 0.0
C720 C 0.98446 0.71236 0.76889 0.0
H721 H 0.04457 0.18785 1.00176 0.0
H722 H 0.12259 0.2245 1.05416 0.0
H723 H 0.08763 0.27993 1.06001 0.0
H724 H 0.02778 0.27589 0.97472 0.0
H725 H 0.98076 0.26803 0.97 0.0
H726 H 1.01166 0.23107 0.96998 0.0
H727 H 0.97464 0.20025 1.00349 0.0
H728 H 0.94379 0.23726 1.00376 0.0
H729 H 0.96573 0.22376 1.03134 0.0
H730 H 0.0427 0.33171 1.0613 0.0
H731 H 0.9956 0.37709 1.05527 0.0
H732 H 0.94611 0.31029 1.00073 0.0
C733 C 0.05443 0.20761 1.0144 0.0
C734 C 0.08684 0.20125 1.02751 0.0
C735 C 0.09831 0.22822 1.04379 0.0
C736 C 0.07835 0.25996 1.04732 0.0
C737 C 0.04655 0.26519 1.03439 0.0
C738 C 0.03483 0.23992 1.01799 0.0
C739 C 1.0001 0.25279 1.00597 0.0
C740 C 1.00539 0.2572 0.97853 0.0
C741 C 0.96924 0.22697 1.01147 0.0
C742 C 0.99395 0.28907 1.01823 0.0
C743 C 1.02108 0.29539 1.03472 0.0
C744 C 1.02151 0.32682 1.04839 0.0
C745 C 0.99434 0.35257 1.04491 0.0
C746 C 0.96644 0.34761 1.0278 0.0
C747 C 0.9664 0.31499 1.01433 0.0
H748 H 0.56248 0.85459 1.03957 0.0
H749 H 0.63281 0.8016 0.98867 0.0
H750 H 0.58833 0.75345 0.98339 0.0
H751 H 0.52771 0.7752 1.06789 0.0
H752 H 0.48252 0.79131 1.07092 0.0
H753 H 0.51921 0.82245 1.07043 0.0
H754 H 0.49011 0.85599 1.03458 0.0
H755 H 0.45316 0.82512 1.03512 0.0
H756 H 0.47821 0.83166 1.00759 0.0
H757 H 0.53643 0.70811 0.98498 0.0
H758 H 0.48071 0.67339 0.99076 0.0
H759 H 0.44116 0.75532 1.03933 0.0
C760 C 0.56821 0.83322 1.02696 0.0
C761 C 0.60159 0.83247 1.01434 0.0
C762 C 0.60779 0.80329 0.99846 0.0
C763 C 0.58252 0.77556 0.99539 0.0
C764 C 0.5503 0.77673 1.00822 0.0
C765 C 0.54279 0.80511 1.02348 0.0
C766 C 0.50588 0.79965 1.03502 0.0
C767 C 0.50903 0.797 1.06271 0.0
C768 C 0.48032 0.82991 1.02764 0.0
C769 C 0.49402 0.76389 1.02406 0.0
C770 C 0.52023 0.75104 1.00874 0.0
C771 C 0.51576 0.71824 0.99686 0.0
C772 C 0.48386 0.69843 1.00034 0.0
C773 C 0.45598 0.71108 1.01552 0.0
C774 C 0.46164 0.74446 1.02758 0.0
H775 H 0.54146 0.18454 0.78667 0.0
H776 H 0.62368 0.22355 0.73814 0.0
H777 H 0.59005 0.28002 0.73315 0.0
H778 H 0.46546 0.22386 0.75589 0.0
H779 H 0.44176 0.23564 0.78317 0.0
H780 H 0.47206 0.19818 0.78313 0.0
H781 H 0.50703 0.22589 0.81884 0.0
H782 H 0.47669 0.26329 0.81911 0.0
H783 H 0.52409 0.27073 0.81619 0.0
H784 H 0.54576 0.33273 0.73219 0.0
H785 H 0.49847 0.37807 0.73805 0.0
H786 H 0.44461 0.30806 0.78863 0.0
C787 C 0.55254 0.20503 0.77506 0.0
C788 C 0.58573 0.19901 0.76279 0.0
C789 C 0.59877 0.22696 0.74786 0.0
C790 C 0.57958 0.25931 0.74482 0.0
C791 C 0.54698 0.26418 0.75691 0.0
C792 C 0.53373 0.23791 0.772 0.0
C793 C 0.49836 0.25043 0.78332 0.0
C794 C 0.46758 0.22554 0.77594 0.0
C795 C 0.50175 0.25271 0.81101 0.0
C796 C 0.49359 0.28766 0.77216 0.0
C797 C 0.52196 0.29481 0.75683 0.0
C798 C 0.52365 0.3272 0.74426 0.0
C799 C 0.49643 0.35298 0.74766 0.0
C800 C 0.46729 0.34711 0.76364 0.0
C801 C 0.466 0.31357 0.77598 0.0
H802 H 0.11411 0.2919 0.53866 0.0
H803 H 0.07663 0.37183 0.4879 0.0
H804 H 1.02055 0.3377 0.48241 0.0
H805 H 0.07685 0.21465 0.50831 0.0
H806 H 0.06416 0.19183 0.53573 0.0
H807 H 0.10135 0.2224 0.53592 0.0
H808 H 0.0718 0.25834 0.57052 0.0
H809 H 0.03465 0.22773 0.57056 0.0
H810 H 0.02689 0.27491 0.56675 0.0
H811 H 0.968 0.29322 0.4814 0.0
H812 H 0.92276 0.24588 0.48727 0.0
H813 H 0.99156 0.19426 0.53974 0.0
C814 C 0.09404 0.30238 0.52646 0.0
C815 C 0.10034 0.33506 0.51372 0.0
C816 C 0.07296 0.34731 0.49799 0.0
C817 C 0.04085 0.32785 0.49467 0.0
C818 C 0.03571 0.29574 0.50724 0.0
C819 C 0.06145 0.28325 0.52306 0.0
C820 C 0.04882 0.24824 0.53469 0.0
C821 C 0.07432 0.21746 0.52828 0.0
C822 C 0.04534 0.25256 0.56227 0.0
C823 C 1.01211 0.24279 0.5229 0.0
C824 C 1.00528 0.27052 0.50699 0.0
C825 C 0.97331 0.27156 0.49386 0.0
C826 C 0.94763 0.24429 0.49725 0.0
C827 C 0.95327 0.21573 0.51371 0.0
C828 C 0.98632 0.21516 0.52668 0.0
H829 H 0.10531 0.73624 0.29032 0.0
H830 H 0.05364 0.66881 0.23713 0.0
H831 H 1.00662 0.71445 0.2314 0.0
H832 H 0.02448 0.7718 0.31718 0.0
H833 H 0.04147 0.81639 0.32142 0.0
H834 H 0.07176 0.77894 0.32123 0.0
H835 H 0.10831 0.80839 0.28691 0.0
H836 H 0.07826 0.84603 0.28713 0.0
H837 H 0.08603 0.82178 0.25943 0.0
H838 H 0.96264 0.76732 0.23238 0.0
H839 H 0.92882 0.82356 0.23791 0.0
H840 H 1.00827 0.85972 0.28948 0.0
C841 C 0.08442 0.73135 0.27718 0.0
C842 C 0.08369 0.69845 0.26403 0.0
C843 C 0.05522 0.69338 0.24739 0.0
C844 C 0.02817 0.71934 0.24404 0.0
C845 C 0.02932 0.7511 0.25737 0.0
C846 C 0.05696 0.75744 0.27346 0.0
C847 C 0.0516 0.79407 0.28543 0.0
C848 C 0.04706 0.79005 0.31295 0.0
C849 C 0.08292 0.81905 0.27936 0.0
C850 C 1.01682 0.8072 0.27363 0.0
C851 C 1.00435 0.78177 0.2576 0.0
C852 C 0.97248 0.78737 0.24481 0.0
C853 C 0.95321 0.8196 0.24813 0.0
C854 C 0.96537 0.84667 0.26412 0.0
C855 C 0.99784 0.83992 0.27708 0.0
H856 H 0.60811 0.02975 0.24267 0.0
H857 H 0.58856 0.14219 0.23107 0.0
H858 H 0.63481 0.14346 0.19988 0.0
H859 H 0.70889 0.02832 0.21262 0.0
H860 H 0.69715 0.98517 0.20077 0.0
H861 H 0.68255 0.99805 0.23068 0.0
H862 H 0.61765 0.98264 0.21691 0.0
H863 H 0.6326 0.97243 0.18707 0.0
H864 H 0.59872 1.00614 0.19138 0.0
H865 H 0.65744 0.12878 0.16021 0.0
H866 H 0.65643 0.10082 1.11983 0.0
H867 H 0.65922 0.99628 0.1529 0.0
C868 C 0.61538 0.05494 0.23445 0.0
C869 C 0.59432 0.08551 0.23882 0.0
C870 C 0.6043 0.11831 0.22811 0.0
C871 C 0.63069 0.11921 0.21015 0.0
C872 C 0.64693 0.0872 0.20323 0.0
C873 C 0.64061 0.05563 0.21572 0.0
C874 C 0.65301 0.02354 0.20116 0.0
C875 C 0.68744 1.00785 0.21198 0.0
C876 C 0.62371 0.99461 0.19898 0.0
C877 C 0.6608 0.04134 0.17716 0.0
C878 C 0.65968 0.07821 0.17914 0.0
C879 C 0.6598 0.10008 0.15862 0.0
C880 C 0.65906 0.08402 1.1357 0.0
C881 C 0.65756 0.0465 1.13354 0.0
C882 C 0.66056 0.02507 0.15438 0.0
H883 H 0.83905 0.66654 0.41134 0.0
H884 H 0.74012 0.6142 0.39187 0.0
H885 H 0.75958 0.61162 0.34937 0.0
H886 H 0.84136 0.72416 0.37141 0.0
H887 H 0.88824 0.72472 0.36371 0.0
H888 H 0.87462 0.70835 0.39254 0.0
H889 H 0.90685 0.64843 0.38405 0.0
H890 H 0.92056 0.6649 0.35479 0.0
H891 H 0.89642 0.62341 0.35708 0.0
H892 H 0.77718 0.63481 0.31012 0.0
H893 H 0.7899 0.68166 0.28009 0.0
H894 H 0.88006 0.71674 0.32283 0.0
C895 C 0.82254 0.65264 0.39831 0.0
C896 C 0.78803 0.64095 0.40477 0.0
C897 C 0.76653 0.62378 0.38721 0.0
C898 C 0.77764 0.62176 0.36304 0.0
C899 C 0.81066 0.63641 0.35674 0.0
C900 C 0.83336 0.65065 0.37408 0.0
C901 C 0.86355 0.67136 0.36242 0.0
C902 C 0.86702 0.70936 0.37312 0.0
C903 C 0.89894 0.65078 0.36472 0.0
C904 C 0.8509 0.67168 0.33636 0.0
C905 C 0.82159 0.64955 0.33314 0.0
C906 C 0.80082 0.65117 0.31213 0.0
C907 C 0.80816 0.67793 0.2951 0.0
C908 C 0.83595 0.70272 0.29926 0.0
C909 C 0.85927 0.69748 0.319 0.0
H910 H 0.97147 0.90936 0.7092 0.0
H911 H 0.93523 0.99654 0.75423 0.0
H912 H 0.88646 1.00863 0.72548 0.0
H913 H 0.97588 0.94932 0.66195 0.0
H914 H 0.96017 0.9171 0.64011 0.0
H915 H 0.97751 0.90205 0.66833 0.0
H916 H 0.91883 0.86832 0.67744 0.0
H917 H 0.90118 0.88288 0.64868 0.0
H918 H 0.87665 0.89152 0.67615 0.0
H919 H 0.86088 0.02695 0.68711 0.0
H920 H 0.86203 0.04876 0.6451 0.0
H921 H 0.91688 0.95247 0.62275 0.0
C922 C 0.95166 0.92929 0.71379 0.0
C923 C 0.95706 0.95207 0.73378 0.0
C924 C 0.93147 0.97876 0.73897 0.0
C925 C 0.90355 0.98565 0.72271 0.0
C926 C 0.90158 0.96559 0.70141 0.0
C927 C 0.9245 0.93709 0.69722 0.0
C928 C 0.92366 0.92572 0.67087 0.0
C929 C 0.96151 0.92355 0.65971 0.0
C930 C 0.90388 0.89 0.66813 0.0
C931 C 0.90182 0.9559 0.66025 0.0
C932 C 0.88721 0.97716 0.67827 0.0
C933 C 0.87128 1.00994 0.67291 0.0
C934 C 0.87243 1.02237 0.649 0.0
C935 C 0.89004 1.00239 0.63081 0.0
C936 C 0.9027 0.96786 0.63626 0.0
H937 H 0.82203 0.41025 0.87985 0.0
H938 H 0.71717 0.42532 0.91092 0.0
H939 H 0.6904 0.42315 0.87028 0.0
H940 H 0.79531 0.45173 0.81391 0.0
H941 H 0.82465 0.41923 0.80035 0.0
H942 H 0.83671 0.44022 0.82862 0.0
H943 H 0.84453 0.3778 0.84798 0.0
H944 H 0.83233 0.357 0.82019 0.0
H945 H 0.80765 0.34673 0.84739 0.0
H946 H 0.67393 0.39396 0.83311 0.0
H947 H 0.67062 0.34223 0.80623 0.0
H948 H 0.78482 0.3476 0.79453 0.0
C949 C 0.79368 0.41504 0.87768 0.0
C950 C 0.77155 0.41766 0.89822 0.0
C951 C 0.73456 0.4236 0.89527 0.0
C952 C 0.71918 0.42256 0.87215 0.0
C953 C 0.74127 0.41628 0.85218 0.0
C954 C 0.77811 0.41392 0.85463 0.0
C955 C 0.79518 0.39936 0.83179 0.0
C956 C 0.81406 0.42943 0.81784 0.0
C957 C 0.82134 0.36837 0.8372 0.0
C958 C 0.7621 0.38709 0.81831 0.0
C959 C 0.73123 0.39938 0.82949 0.0
C960 C 0.69776 0.38525 0.82369 0.0
C961 C 0.69607 0.35566 0.80822 0.0
C962 C 0.72772 0.34046 0.79871 0.0
C963 C 0.76039 0.35868 0.80187 0.0
H964 H 0.30093 0.40978 0.90073 0.0
H965 H 0.19688 0.40092 0.86728 0.0
H966 H 0.16844 0.40267 0.90744 0.0
H967 H 0.29324 0.35114 0.93971 0.0
H968 H 0.31527 0.3712 0.96539 0.0
H969 H 0.32565 0.38631 0.93562 0.0
H970 H 0.30909 0.45086 0.94791 0.0
H971 H 0.29813 0.43578 0.97805 0.0
H972 H 0.2657 0.46023 0.96054 0.0
H973 H 0.15426 0.38122 0.94741 0.0
H974 H 0.15694 0.33723 0.97994 0.0
H975 H 0.26839 0.36257 0.99191 0.0
C976 C 0.27206 0.40998 0.90205 0.0
C977 C 0.25102 0.40501 0.88117 0.0
C978 C 0.2134 0.40507 0.88314 0.0
C979 C 0.19705 0.40626 0.90595 0.0
C980 C 0.21866 0.40809 0.92655 0.0
C981 C 0.25552 0.411 0.92477 0.0
C982 C 0.2733 0.40469 0.94904 0.0
C983 C 0.30354 0.37663 0.9473 0.0
C984 C 0.28738 0.43999 0.95951 0.0
C985 C 0.24157 0.39141 0.96354 0.0
C986 C 0.20992 0.39585 0.95079 0.0
C987 C 0.17853 0.37871 0.95793 0.0
C988 C 0.18026 0.35364 0.97669 0.0
C989 C 0.21327 0.34587 0.98807 0.0
C990 C 0.24302 0.36785 0.98319 0.0
H991 H 0.2746 0.68765 0.49504 0.0
H992 H 0.3877 0.70555 0.48438 0.0
H993 H 0.38878 0.65989 0.45291 0.0
H994 H 0.27105 0.58862 0.46388 0.0
H995 H 0.22879 0.60179 0.45117 0.0
H996 H 0.24069 0.61562 0.48142 0.0
H997 H 0.22816 0.68112 0.46822 0.0
H998 H 0.21832 0.66714 0.43811 0.0
H999 H 0.25302 0.69971 0.44319 0.0
H1000 H 0.37474 0.63817 0.41299 0.0
H1001 H 0.34798 0.64091 0.37228 0.0
H1002 H 0.24234 0.64046 0.40396 0.0
C1003 C 0.29985 0.68036 0.48685 0.0
C1004 C 0.33067 0.70084 0.49165 0.0
C1005 C 0.36353 0.69042 0.48111 0.0
C1006 C 0.36435 0.66433 0.46297 0.0
C1007 C 0.33217 0.64895 0.45556 0.0
C1008 C 0.30042 0.65573 0.46776 0.0
C1009 C 0.26838 0.64471 0.45264 0.0
C1010 C 0.25123 0.61067 0.4629 0.0
C1011 C 0.24045 0.675 0.45039 0.0
C1012 C 0.28667 0.63692 0.42879 0.0
C1013 C 0.32353 0.63697 0.43124 0.0
C1014 C 0.346 0.63668 0.41101 0.0
C1015 C 0.33063 0.63842 0.3879 0.0
C1016 C 0.2932 0.64107 0.38527 0.0
C1017 C 0.27106 0.63823 0.4058 0.0
H1018 H 0.94687 0.53404 0.54195 0.0
H1019 H 0.95527 0.42023 0.55402 0.0
H1020 H 0.90549 0.42297 0.58252 0.0
H1021 H 0.95251 0.55655 0.59421 0.0
H1022 H 0.9213 0.59315 0.59663 0.0
H1023 H 0.93907 0.58152 0.56776 0.0
H1024 H 0.87527 0.57333 0.55075 0.0
H1025 H 0.85693 0.58526 0.57989 0.0
H1026 H 0.84432 0.54385 0.5657 0.0
H1027 H 0.87869 0.43921 0.62063 0.0
H1028 H 0.87829 0.46622 0.66126 0.0
H1029 H 0.89033 0.57096 0.62953 0.0
C1030 C 0.93684 0.50955 0.5498 0.0
C1031 C 0.95555 0.47723 0.54624 0.0
C1032 C 0.94154 0.44546 0.55631 0.0
C1033 C 0.91304 0.44682 0.57273 0.0
C1034 C 0.89885 0.48009 0.57894 0.0
C1035 C 0.90958 0.51103 0.56716 0.0
C1036 C 0.89833 0.54399 0.58125 0.0
C1037 C 0.92969 0.57022 0.58522 0.0
C1038 C 0.86684 0.5627 0.56865 0.0
C1039 C 0.88614 0.52678 0.60462 0.0
C1040 C 0.88386 0.49001 0.60228 0.0
C1041 C 0.87912 0.46798 0.62245 0.0
C1042 C 0.87907 0.48349 0.64554 0.0
C1043 C 0.8845 0.52057 0.64827 0.0
C1044 C 0.88593 0.54254 0.6276 0.0
H1045 H 0.44439 0.51321 0.23588 0.0
H1046 H 0.47043 0.40137 0.22739 0.0
H1047 H 0.42465 0.39565 0.19614 0.0
H1048 H 0.34254 0.50492 0.20801 0.0
H1049 H 0.34999 0.54842 0.19517 0.0
H1050 H 0.3671 0.53808 0.2249 0.0
H1051 H 0.42974 0.55823 0.20916 0.0
H1052 H 0.41243 0.56577 0.17952 0.0
H1053 H 0.44923 0.53521 0.18363 0.0
H1054 H 0.40285 0.40727 0.15601 0.0
H1055 H 0.39987 0.43385 1.1152 0.0
H1056 H 0.38481 0.53832 1.14671 0.0
C1057 C 0.43866 0.48715 0.22837 0.0
C1058 C 0.4613 0.45803 0.23368 0.0
C1059 C 0.4534 0.42414 0.22375 0.0
C1060 C 0.42729 0.42066 0.20579 0.0
C1061 C 0.40895 0.45114 0.19823 0.0
C1062 C 0.41308 0.48366 0.20997 0.0
C1063 C 0.39716 0.51386 0.19513 0.0
C1064 C 0.36213 0.52711 0.20651 0.0
C1065 C 0.42377 0.54499 0.19163 0.0
C1066 C 0.38963 0.49434 0.17169 0.0
C1067 C 0.39476 0.45786 0.17421 0.0
C1068 C 0.39693 0.4354 0.15404 0.0
C1069 C 0.39545 0.45063 1.1309 0.0
C1070 C 0.3914 0.48785 1.12819 0.0
C1071 C 0.38659 0.5096 0.14869 0.0
H1072 H 0.23528 0.37564 0.30139 0.0
H1073 H 0.33982 0.37481 0.26719 0.0
H1074 H 0.3306 0.43697 0.25378 0.0
H1075 H 0.19078 0.42627 0.255 0.0
H1076 H 0.16306 0.45076 0.27592 0.0
H1077 H 0.17818 0.40648 0.28351 0.0
H1078 H 0.20628 0.43049 0.32331 0.0
H1079 H 0.1906 0.47458 0.31582 0.0
H1080 H 0.23737 0.46719 0.32191 0.0
H1081 H 0.31036 0.49978 0.24476 0.0
H1082 H 0.27977 0.55801 0.23944 0.0
H1083 H 0.18767 0.51678 0.27814 0.0
C1084 C 0.25618 0.38838 0.29095 0.0
C1085 C 0.2884 0.37022 0.2855 0.0
C1086 C 0.31518 0.38823 0.27202 0.0
C1087 C 0.3101 0.42351 0.26416 0.0
C1088 C 0.27804 0.44053 0.26983 0.0
C1089 C 0.25151 0.42357 0.2829 0.0
C1090 C 0.21942 0.44777 0.28644 0.0
C1091 C 0.18588 0.43186 0.2745 0.0
C1092 C 0.21307 0.45546 0.31348 0.0
C1093 C 0.23199 0.48088 0.27319 0.0
C1094 C 0.26594 0.47627 0.26387 0.0
C1095 C 0.28356 0.5036 0.25157 0.0
C1096 C 0.26603 0.53652 0.2487 0.0
C1097 C 0.23129 0.54179 0.25818 0.0
C1098 C 0.21406 0.51343 0.27041 0.0
H1099 H 0.42883 0.48147 0.55116 0.0
H1100 H 0.43306 0.5788 0.50848 0.0
H1101 H 0.37087 0.56899 0.4954 0.0
H1102 H 0.37674 0.43052 0.50807 0.0
H1103 H 0.35131 0.40753 0.53099 0.0
H1104 H 0.39613 0.42231 0.53744 0.0
H1105 H 0.37306 0.45798 0.57466 0.0
H1106 H 0.32851 0.44248 0.56831 0.0
H1107 H 0.33723 0.48969 0.57068 0.0
H1108 H 0.30787 0.54917 0.48731 0.0
H1109 H 0.24829 0.52046 0.48466 0.0
H1110 H 0.2857 0.43479 0.53111 0.0
C1111 C 0.41686 0.5006 0.5389 0.0
C1112 C 0.43603 0.53111 0.53104 0.0
C1113 C 0.41894 0.5556 0.5152 0.0
C1114 C 0.38363 0.55012 0.50748 0.0
C1115 C 0.36559 0.51989 0.51561 0.0
C1116 C 0.38159 0.49548 0.53093 0.0
C1117 C 0.3562 0.46514 0.53694 0.0
C1118 C 0.37099 0.42925 0.52781 0.0
C1119 C 0.34829 0.46378 0.56427 0.0
C1120 C 0.32344 0.47641 0.52267 0.0
C1121 C 0.32941 0.5081 0.51053 0.0
C1122 C 0.30283 0.52428 0.49662 0.0
C1123 C 0.26916 0.50781 0.49522 0.0
C1124 C 0.26245 0.47538 0.50755 0.0
C1125 C 0.29013 0.45941 0.52127 0.0
H1126 H 0.31521 0.67157 0.80734 0.0
H1127 H 0.22203 0.67996 0.76073 0.0
H1128 H 0.23257 0.61871 0.74613 0.0
H1129 H 0.36963 0.62249 0.76468 0.0
H1130 H 0.39054 0.59522 0.78755 0.0
H1131 H 0.37532 0.63954 0.79497 0.0
H1132 H 0.3364 0.61394 0.82984 0.0
H1133 H 0.35232 0.56987 0.82255 0.0
H1134 H 0.30497 0.57874 0.82335 0.0
H1135 H 0.25265 0.55598 0.73678 0.0
H1136 H 0.28152 0.49664 0.73331 0.0
H1137 H 0.36313 0.53004 0.78429 0.0
C1138 C 0.29711 0.66071 0.79394 0.0
C1139 C 0.26754 0.68077 0.78541 0.0
C1140 C 0.24442 0.66511 0.76802 0.0
C1141 C 0.25034 0.63035 0.75942 0.0
C1142 C 0.27965 0.61142 0.76821 0.0
C1143 C 0.30273 0.62604 0.78504 0.0
C1144 C 0.33246 0.60006 0.79136 0.0
C1145 C 0.36915 0.61524 0.7842 0.0
C1146 C 0.33143 0.59007 0.81837 0.0
C1147 C 0.32235 0.56856 0.77551 0.0
C1148 C 0.29175 0.57562 0.76235 0.0
C1149 C 0.27673 0.55022 0.74691 0.0
C1150 C 0.29327 0.51664 0.74504 0.0
C1151 C 0.32458 0.50887 0.75839 0.0
C1152 C 0.33941 0.53535 0.77364 0.0
H1153 H 0.12482 0.56068 1.05379 0.0
H1154 H 0.11465 0.47854 0.99865 0.0
H1155 H 0.17498 0.49295 0.98371 0.0
H1156 H 0.17207 0.62465 1.01584 0.0
H1157 H 0.20016 0.64015 1.04019 0.0
H1158 H 0.15596 0.62356 1.0466 0.0
H1159 H 0.18272 0.57776 1.07677 0.0
H1160 H 0.22691 0.59429 1.07038 0.0
H1161 H 0.21712 0.54751 1.06661 0.0
H1162 H 0.23724 0.51457 0.97571 0.0
H1163 H 0.29741 0.54218 0.97529 0.0
H1164 H 0.26558 0.6128 1.03372 0.0
C1165 C 0.135 0.54601 1.03836 0.0
C1166 C 0.11488 0.51827 1.02753 0.0
C1167 C 0.12965 0.49942 1.0076 0.0
C1168 C 0.16382 0.50763 0.99881 0.0
C1169 C 0.18285 0.53503 1.00993 0.0
C1170 C 0.16897 0.55406 1.02921 0.0
C1171 C 0.19522 0.58198 1.03808 0.0
C1172 C 0.17993 0.61982 1.03498 0.0
C1173 C 0.20612 0.57493 1.06452 0.0
C1174 C 0.22611 0.5754 1.02093 0.0
C1175 C 0.21846 0.54816 1.00486 0.0
C1176 C 0.24352 0.53606 0.98807 0.0
C1177 C 0.2775 0.55188 0.98794 0.0
C1178 C 0.28581 0.57974 1.00427 0.0
C1179 C 0.25963 0.59195 1.02073 0.0
H1180 H 0.86379 0.53362 1.00917 0.0
H1181 H 0.7889 0.49924 1.06438 0.0
H1182 H 0.7614 0.55948 1.06444 0.0
H1183 H 0.87526 0.62526 1.02959 0.0
H1184 H 0.87653 0.643 0.99926 0.0
H1185 H 0.89191 0.5982 1.00504 0.0
H1186 H 0.84783 0.57392 0.97292 0.0
H1187 H 0.83219 0.61856 0.96702 0.0
H1188 H 0.8009 0.58419 0.97548 0.0
H1189 H 0.74164 0.62304 1.05785 0.0
H1190 H 0.7293 0.6845 1.04431 0.0
H1191 H 0.81451 0.67581 0.99116 0.0
C1192 C 0.84199 0.53899 1.02156 0.0
C1193 C 0.82861 0.51207 1.03701 0.0
C1194 C 0.79955 0.51971 1.05255 0.0
C1195 C 0.78385 0.55378 1.0527 0.0
C1196 C 0.79733 0.57965 1.03699 0.0
C1197 C 0.82563 0.5726 1.02163 0.0
C1198 C 0.83366 0.60431 1.00549 0.0
C1199 C 0.87159 0.61853 1.01014 0.0
C1200 C 0.8283 0.59466 0.97864 0.0
C1201 C 0.80549 0.63041 1.01421 0.0
C1202 C 0.78501 0.61574 1.0325 0.0
C1203 C 0.75738 0.63473 1.04345 0.0
C1204 C 0.75038 0.66959 1.03546 0.0
C1205 C 0.77068 0.68514 1.01648 0.0
C1206 C 0.79868 0.66507 1.00585 0.0
H1207 H 0.62641 0.5578 0.74241 0.0
H1208 H 0.62135 0.46743 0.79161 0.0
H1209 H 0.68355 0.479 0.8042 0.0
H1210 H 0.71778 0.54693 0.72425 0.0
H1211 H 0.72671 0.59419 0.72342 0.0
H1212 H 0.6822 0.57797 0.71774 0.0
H1213 H 0.6578 0.61851 0.75207 0.0
H1214 H 0.70231 0.63472 0.75783 0.0
H1215 H 0.67665 0.61508 0.78203 0.0
H1216 H 0.74712 0.50027 0.81104 0.0
H1217 H 0.80631 0.53019 0.81172 0.0
H1218 H 0.76745 0.60866 0.76028 0.0
C1219 C 0.6381 0.5406 0.75603 0.0
C1220 C 0.61877 0.5116 0.76592 0.0
C1221 C 0.63562 0.48945 0.7834 0.0
C1222 C 0.67092 0.49597 0.79083 0.0
C1223 C 0.68901 0.52491 0.78078 0.0
C1224 C 0.67312 0.54691 0.76381 0.0
C1225 C 0.69816 0.57645 0.75594 0.0
C1226 C 0.70671 0.5737 0.72873 0.0
C1227 C 0.68281 0.61337 0.76236 0.0
C1228 C 0.73057 0.56773 0.7712 0.0
C1229 C 0.72497 0.53774 0.78529 0.0
C1230 C 0.75174 0.52389 0.80019 0.0
C1231 C 0.78516 0.54101 0.8005 0.0
C1232 C 0.79119 0.57184 0.78627 0.0
C1233 C 0.76339 0.58544 0.77165 0.0
H1234 H 0.75007 0.37873 0.48999 0.0
H1235 H 0.82932 0.36814 0.54701 0.0
H1236 H 0.81748 0.43032 0.55968 0.0
H1237 H 0.76943 0.47033 0.47571 0.0
H1238 H 0.72352 0.48201 0.46998 0.0
H1239 H 0.73884 0.43695 0.46467 0.0
H1240 H 0.68976 0.41226 0.49306 0.0
H1241 H 0.67373 0.45689 0.49849 0.0
H1242 H 0.68646 0.42893 0.52361 0.0
H1243 H 0.79643 0.49473 0.56594 0.0
H1244 H 0.76719 0.55436 0.56547 0.0
H1245 H 0.69936 0.51983 0.50629 0.0
C1246 C 0.76471 0.38917 0.50535 0.0
C1247 C 0.79061 0.36826 0.51748 0.0
C1248 C 0.80968 0.3836 0.53714 0.0
C1249 C 0.80296 0.41888 0.54461 0.0
C1250 C 0.77695 0.43849 0.53234 0.0
C1251 C 0.75814 0.42408 0.51315 0.0
C1252 C 0.73158 0.45054 0.50292 0.0
C1253 C 0.74142 0.46053 0.47676 0.0
C1254 C 0.69311 0.43629 0.50464 0.0
C1255 C 0.73747 0.48173 0.5198 0.0
C1256 C 0.76423 0.47469 0.53639 0.0
C1257 C 0.77532 0.5004 0.5531 0.0
C1258 C 0.75862 0.5341 0.55273 0.0
C1259 C 0.73082 0.54138 0.53606 0.0
C1260 C 0.72013 0.51476 0.51952 0.0
H1261 H 0.78643 0.43546 0.25845 0.0
H1262 H 0.74861 0.51593 0.30876 0.0
H1263 H 0.80812 0.54491 0.30789 0.0
H1264 H 0.87709 0.4281 0.28011 0.0
H1265 H 0.89617 0.42411 0.25025 0.0
H1266 H 0.8513 0.40875 0.25584 0.0
H1267 H 0.82721 0.4497 0.22155 0.0
H1268 H 0.87224 0.46419 0.2156 0.0
H1269 H 0.83782 0.49657 0.22198 0.0
H1270 H 0.87176 0.56525 0.30111 0.0
H1271 H 0.93377 0.5767 0.28824 0.0
H1272 H 0.9288 0.48506 0.24009 0.0
C1273 C 0.79086 0.45887 0.26954 0.0
C1274 C 0.76313 0.47329 0.28393 0.0
C1275 C 0.76964 0.50442 0.29776 0.0
C1276 C 0.80332 0.52101 0.29737 0.0
C1277 C 0.83004 0.50636 0.28278 0.0
C1278 C 0.82409 0.47614 0.26897 0.0
C1279 C 0.85662 0.46693 0.25381 0.0
C1280 C 0.87115 0.42977 0.26041 0.0
C1281 C 0.84796 0.4695 0.22663 0.0
C1282 C 0.88208 0.49629 0.26155 0.0
C1283 C 0.86622 0.51874 0.27827 0.0
C1284 C 0.88436 0.54792 0.28794 0.0
C1285 C 0.91959 0.55438 0.28032 0.0
C1286 C 0.93644 0.53198 0.26297 0.0
C1287 C 0.91714 0.50251 0.25358 0.0
H1288 H 0.73603 0.86979 0.80015 0.0
H1289 H 0.83423 0.86797 0.75825 0.0
H1290 H 0.82262 0.92966 0.74466 0.0
H1291 H 0.68311 0.92154 0.75866 0.0
H1292 H 0.66087 0.94657 0.78214 0.0
H1293 H 0.67658 0.90197 0.78815 0.0
H1294 H 0.71258 0.92577 0.82461 0.0
H1295 H 0.6983 0.9708 0.81848 0.0
H1296 H 0.74522 0.96055 0.82006 0.0
H1297 H 0.80102 0.99253 0.73639 0.0
H1298 H 0.77094 0.05143 0.73429 0.0
H1299 H 0.68674 1.01207 0.78116 0.0
C1300 C 0.75522 0.88236 0.78821 0.0
C1301 C 0.78597 0.86373 0.78018 0.0
C1302 C 0.81017 0.88129 0.76437 0.0
C1303 C 0.80391 0.91646 0.75663 0.0
C1304 C 0.77327 0.93391 0.7648 0.0
C1305 C 0.74934 0.91746 0.78026 0.0
C1306 C 0.71884 0.94239 0.78677 0.0
C1307 C 0.68272 0.9272 0.77842 0.0
C1308 C 0.71874 0.95032 0.8141 0.0
C1309 C 0.72907 0.97523 0.77229 0.0
C1310 C 0.76071 0.96991 0.75988 0.0
C1311 C 0.77612 0.99689 0.74593 0.0
C1312 C 0.75889 0.03022 0.74483 0.0
C1313 C 0.72647 0.03619 0.75741 0.0
C1314 C 0.71127 1.00815 0.7711 0.0
H1315 H 0.78382 0.93726 1.03048 0.0
H1316 H 0.7472 1.01965 0.98115 0.0
H1317 H 0.80695 0.0481 0.98286 0.0
H1318 H 0.83467 0.99428 1.06826 0.0
H1319 H 0.87023 0.96273 1.07361 0.0
H1320 H 0.82577 0.94699 1.06729 0.0
H1321 H 0.84869 0.90945 1.03139 0.0
H1322 H 0.89362 0.9241 1.03764 0.0
H1323 H 0.87473 0.93049 1.00792 0.0
H1324 H 0.87055 0.0677 0.99044 0.0
H1325 H 0.93269 0.07781 1.00356 0.0
H1326 H 0.92654 0.98417 1.04979 0.0
C1327 C 0.7885 0.96105 1.0198 0.0
C1328 C 0.76103 0.97623 1.00553 0.0
C1329 C 0.76799 1.00764 0.99212 0.0
C1330 C 0.80179 0.02392 0.99299 0.0
C1331 C 0.82819 1.00853 1.0075 0.0
C1332 C 0.82189 0.97783 1.02069 0.0
C1333 C 0.85433 0.96737 1.03554 0.0
C1334 C 0.84573 0.96791 1.06279 0.0
C1335 C 0.86869 0.93068 1.02764 0.0
C1336 C 0.87993 0.99705 1.02868 0.0
C1337 C 0.8644 1.02037 1.01239 0.0
C1338 C 0.8829 0.04971 1.0033 0.0
C1339 C 0.91818 0.05539 1.01104 0.0
C1340 C 0.9347 0.032 1.02789 0.0
C1341 C 0.91505 1.00243 1.03673 0.0
H1342 H 0.86689 0.03309 0.27951 0.0
H1343 H 0.77554 0.99234 0.23976 0.0
H1344 H 0.74529 0.05078 0.2444 0.0
H1345 H 0.81683 0.08418 0.32241 0.0
H1346 H 0.84814 0.12069 0.32368 0.0
H1347 H 0.86361 0.07634 0.31664 0.0
H1348 H 0.8918 0.09893 0.27677 0.0
H1349 H 0.87705 0.14358 0.28371 0.0
H1350 H 0.86463 0.12314 0.25538 0.0
H1351 H 0.7247 0.11304 0.25334 0.0
H1352 H 0.71503 0.17531 0.26627 0.0
H1353 H 0.81967 0.17606 0.3003 0.0
C1354 C 0.84069 0.0366 0.27151 0.0
C1355 C 0.82358 1.00823 0.25915 0.0
C1356 C 0.78915 1.01373 0.24921 0.0
C1357 C 0.77177 0.04677 0.25173 0.0
C1358 C 0.78917 0.07405 0.2642 0.0
C1359 C 0.82287 0.06938 0.27392 0.0
C1360 C 0.83531 0.10288 0.2869 0.0
C1361 C 0.84131 0.09558 0.31401 0.0
C1362 C 0.8692 0.11803 0.27497 0.0
C1363 C 0.80336 0.12718 0.28284 0.0
C1364 C 0.77708 0.10996 0.2697 0.0
C1365 C 0.74516 0.12685 0.26356 0.0
C1366 C 0.74001 0.16236 0.27087 0.0
C1367 C 0.76663 0.18084 0.28419 0.0
C1368 C 0.79864 0.16271 0.29034 0.0
H1369 H 0.7704 0.10958 0.53399 0.0
H1370 H 0.80364 0.0347 0.47844 0.0
H1371 H 0.74375 1.00658 0.47954 0.0
H1372 H 0.71997 0.04687 0.56871 0.0
H1373 H 0.68561 0.07831 0.57707 0.0
H1374 H 0.73028 0.09376 0.57099 0.0
H1375 H 0.70597 0.13742 0.53864 0.0
H1376 H 0.66112 0.12233 0.54463 0.0
H1377 H 0.67872 0.12058 0.51426 0.0
H1378 H 0.68049 0.98662 0.48688 0.0
H1379 H 0.61873 0.97516 0.50024 0.0
H1380 H 0.62759 0.06115 0.55272 0.0
C1381 C 0.76491 0.08752 0.52187 0.0
C1382 C 0.79147 0.07436 0.50598 0.0
C1383 C 0.78355 0.04512 0.49068 0.0
C1384 C 0.74966 0.02905 0.49119 0.0
C1385 C 0.72414 0.04239 0.50726 0.0
C1386 C 0.73139 0.07088 0.52238 0.0
C1387 C 0.6997 0.07925 0.53856 0.0
C1388 C 0.70948 0.07423 0.56542 0.0
C1389 C 0.68554 0.11714 0.53372 0.0
C1390 C 0.67338 0.05109 0.53009 0.0
C1391 C 0.68801 0.03022 0.51197 0.0
C1392 C 0.66883 1.00264 0.50116 0.0
C1393 C 0.63378 0.99617 0.50904 0.0
C1394 C 0.61812 1.01699 0.52772 0.0
C1395 C 0.63844 0.04487 0.53828 0.0
H1396 H 0.31692 0.17158 0.4902 0.0
H1397 H 0.22482 0.1787 0.5379 0.0
H1398 H 0.23482 0.11656 0.55085 0.0
H1399 H 0.30484 0.08043 0.47195 0.0
H1400 H 0.3519 0.07004 0.47204 0.0
H1401 H 0.33723 0.11498 0.46607 0.0
H1402 H 0.3769 0.13816 0.50117 0.0
H1403 H 0.39163 0.09323 0.5072 0.0
H1404 H 0.37169 0.11943 0.53103 0.0
H1405 H 0.25395 0.05301 0.55818 0.0
H1406 H 0.28197 0.99303 0.55975 0.0
H1407 H 0.3634 0.02846 0.50924 0.0
C1408 C 0.29899 0.16028 0.50353 0.0
C1409 C 0.26984 0.18022 0.51283 0.0
C1410 C 0.24687 0.16397 0.53005 0.0
C1411 C 0.25249 0.12869 0.53771 0.0
C1412 C 0.28137 0.10989 0.52816 0.0
C1413 C 0.30434 0.12512 0.51151 0.0
C1414 C 0.33355 0.09911 0.50421 0.0
C1415 C 0.33175 0.09064 0.47696 0.0
C1416 C 0.37063 0.11334 0.51134 0.0
C1417 C 0.32329 0.06693 0.51933 0.0
C1418 C 0.29302 0.07363 0.53293 0.0
C1419 C 0.27782 0.04752 0.54773 0.0
C1420 C 0.29386 1.01362 0.5485 0.0
C1421 C 0.32488 1.00628 0.53476 0.0
C1422 C 0.33992 0.03344 0.52017 0.0
H1423 H 0.14336 1.01173 0.23689 0.0
H1424 H 0.09539 0.04611 0.30458 0.0
H1425 H 0.15455 0.06551 0.31927 0.0
H1426 H 0.2271 0.9792 0.26259 0.0
H1427 H 0.25371 0.99499 0.23757 0.0
H1428 H 0.20784 0.9822 0.23273 0.0
H1429 H 0.19476 0.0443 0.21423 0.0
H1430 H 0.24037 0.05776 0.21922 0.0
H1431 H 0.20423 0.08383 0.23169 0.0
H1432 H 0.21777 0.08536 0.32549 0.0
H1433 H 0.28157 0.10259 0.32314 0.0
H1434 H 0.28943 0.05372 0.25227 0.0
C1435 C 0.14533 0.02326 0.25482 0.0
C1436 C 0.11471 0.02722 0.26964 0.0
C1437 C 0.1185 0.04229 0.29304 0.0
C1438 C 0.15198 0.05353 0.30152 0.0
C1439 C 0.18155 0.04931 0.28647 0.0
C1440 C 0.17865 0.03438 0.26367 0.0
C1441 C 0.21456 0.03375 0.25091 0.0
C1442 C 0.2265 0.99524 0.24565 0.0
C1443 C 0.21342 0.05624 0.22762 0.0
C1444 C 0.238 0.051 0.27001 0.0
C1445 C 0.21837 0.0598 0.29037 0.0
C1446 C 0.23359 0.07793 0.30987 0.0
C1447 C 0.26978 0.08743 0.30847 0.0
C1448 C 0.29035 0.07824 0.28796 0.0
C1449 C 0.27434 0.05983 0.26849 0.0
H1450 H 0.19644 1.02114 1.00536 0.0
H1451 H 0.2665 0.05396 1.06378 0.0
H1452 H 0.29487 0.994 1.06356 0.0
H1453 H 0.18348 0.92943 1.0223 0.0
H1454 H 0.1856 0.91354 0.99151 0.0
H1455 H 0.16994 0.9581 0.99773 0.0
H1456 H 0.21816 0.98346 0.96861 0.0
H1457 H 0.23432 0.93887 0.96265 0.0
H1458 H 0.26449 0.97263 0.97361 0.0
H1459 H 0.31528 0.93002 1.05656 0.0
H1460 H 0.32785 0.86866 1.0426 0.0
H1461 H 0.24704 0.88018 0.98667 0.0
C1462 C 0.21742 1.01554 1.01834 0.0
C1463 C 0.2291 0.04184 1.03483 0.0
C1464 C 0.25719 0.03393 1.05111 0.0
C1465 C 0.27335 1.00002 1.05111 0.0
C1466 C 0.26138 0.97467 1.03445 0.0
C1467 C 0.23428 0.98221 1.01823 0.0
C1468 C 0.22792 0.95136 1.0011 0.0
C1469 C 0.18945 0.93727 1.0033 0.0
C1470 C 0.23672 0.96223 0.97493 0.0
C1471 C 0.25486 0.9247 1.01064 0.0
C1472 C 0.27401 0.93863 1.02983 0.0
C1473 C 0.30056 0.91895 1.04146 0.0
C1474 C 0.3077 0.88416 1.03325 0.0
C1475 C 0.28855 0.86939 1.01345 0.0
C1476 C 0.26185 0.89024 1.00207 0.0
H1477 H 0.42326 0.98568 0.73459 0.0
H1478 H 0.43184 0.07535 0.78416 0.0
H1479 H 0.37026 0.06433 0.79814 0.0
H1480 H 0.33194 0.99949 0.71883 0.0
H1481 H 0.32007 0.95301 0.71775 0.0
H1482 H 0.36514 0.96655 0.71094 0.0
H1483 H 0.39086 0.9253 0.74396 0.0
H1484 H 0.34637 0.90977 0.75054 0.0
H1485 H 0.37371 0.92797 0.77442 0.0
H1486 H 0.30674 0.04447 0.80602 0.0
H1487 H 0.2473 1.01553 0.80815 0.0
H1488 H 0.28213 0.93633 0.75597 0.0
C1489 C 0.41245 1.00282 0.74857 0.0
C1490 C 0.43258 0.03157 0.75811 0.0
C1491 C 0.41691 0.05361 0.77614 0.0
C1492 C 0.38197 0.04739 0.78438 0.0
C1493 C 0.36299 1.01885 0.77459 0.0
C1494 C 0.37773 0.99681 0.75717 0.0
C1495 C 0.35163 0.96798 0.74957 0.0
C1496 C 0.34164 0.972 0.72268 0.0
C1497 C 0.36654 0.93054 0.75496 0.0
C1498 C 0.32021 0.97683 0.7658 0.0
C1499 C 0.32704 1.0066 0.77983 0.0
C1500 C 0.30126 1.02089 0.79533 0.0
C1501 C 0.26761 1.00431 0.79645 0.0
C1502 C 0.26037 0.97346 0.78253 0.0
C1503 C 0.28715 0.9595 0.76717 0.0
H1504 H 0.34485 0.15328 0.18279 0.0
H1505 H 0.26086 0.14127 0.23623 0.0
H1506 H 0.21658 0.13363 0.20349 0.0
H1507 H 0.28934 0.20546 1.14041 0.0
H1508 H 0.30884 0.18639 1.1135 0.0
H1509 H 0.3348 0.18947 1.14092 0.0
H1510 H 0.34697 0.1216 1.13919 0.0
H1511 H 0.32094 0.11831 1.11181 0.0
H1512 H 0.30985 0.09101 1.1376 0.0
H1513 H 0.18057 0.12205 0.16435 0.0
H1514 H 0.1554 0.118 1.12292 0.0
H1515 H 0.25916 0.14449 1.09313 0.0
C1516 C 0.31717 0.1489 0.18764 0.0
C1517 C 0.30688 0.1478 0.21266 0.0
C1518 C 0.26998 0.14246 0.21763 0.0
C1519 C 0.24441 0.13774 0.19898 0.0
C1520 C 0.25523 0.13881 0.17475 0.0
C1521 C 0.29067 0.14505 0.16895 0.0
C1522 C 0.29439 0.14719 1.14123 0.0
C1523 C 0.30764 0.18433 1.13356 0.0
C1524 C 0.31955 0.11778 1.13191 0.0
C1525 C 0.25584 0.14079 1.13247 0.0
C1526 C 0.23386 0.13531 0.15222 0.0
C1527 C 0.19763 0.12694 0.14888 0.0
C1528 C 0.18341 0.12456 1.12509 0.0
C1529 C 0.20465 0.13139 1.10431 0.0
C1530 C 0.24164 0.13967 1.10838 0.0
H1531 H 0.65245 0.42709 0.37721 0.0
H1532 H 0.68338 0.5098 0.32653 0.0
H1533 H 0.68234 0.55423 0.35947 0.0
H1534 H 0.5907 0.48455 0.41214 0.0
H1535 H 0.60135 0.46482 0.44102 0.0
H1536 H 0.60519 0.43869 0.41372 0.0
H1537 H 0.6706 0.42444 0.42421 0.0
H1538 H 0.66757 0.45092 0.45136 0.0
H1539 H 0.70168 0.46042 0.42912 0.0
H1540 H 0.67816 0.59108 0.39803 0.0
H1541 H 0.67133 0.6172 0.43867 0.0
H1542 H 0.64032 0.51361 0.46683 0.0
C1543 C 0.65926 0.4545 0.37309 0.0
C1544 C 0.6686 0.46442 0.3488 0.0
C1545 C 0.67653 0.50096 0.3446 0.0
C1546 C 0.67589 0.52666 0.36337 0.0
C1547 C 0.66652 0.51628 0.38685 0.0
C1548 C 0.65802 0.48111 0.39185 0.0
C1549 C 0.64803 0.47781 0.41882 0.0
C1550 C 0.60899 0.46574 0.42158 0.0
C1551 C 0.67349 0.45185 0.43167 0.0
C1552 C 0.65289 0.5163 0.42821 0.0
C1553 C 0.6635 0.53787 0.40923 0.0
C1554 C 0.66993 0.57425 0.41294 0.0
C1555 C 0.66584 0.58902 0.43635 0.0
C1556 C 0.65492 0.56815 0.45653 0.0
C1557 C 0.6482 0.53093 0.45208 0.0
H1558 H 0.20974 0.91569 0.68466 0.0
H1559 H 0.29012 0.87181 0.73282 0.0
H1560 H 0.33475 0.8753 0.70016 0.0
H1561 H 0.24155 0.86626 0.63082 0.0
H1562 H 0.23185 0.90194 0.60991 0.0
H1563 H 0.20595 0.89732 0.63726 0.0
H1564 H 0.22138 0.96231 0.64896 0.0
H1565 H 0.24758 0.96701 0.62175 0.0
H1566 H 0.26757 0.97572 0.65085 0.0
H1567 H 0.37345 0.88712 0.66213 0.0
H1568 H 0.39915 0.89747 0.62131 0.0
H1569 H 0.29443 0.92761 0.59488 0.0
C1570 C 0.23666 0.90661 0.68835 0.0
C1571 C 0.24574 0.89345 0.71198 0.0
C1572 C 0.28163 0.88179 0.71534 0.0
C1573 C 0.30758 0.88385 0.69671 0.0
C1574 C 0.29797 0.89713 0.67395 0.0
C1575 C 0.2631 0.90759 0.66948 0.0
C1576 C 0.2597 0.91899 0.64281 0.0
C1577 C 0.23318 0.89468 0.62941 0.0
C1578 C 0.24837 0.95835 0.64099 0.0
C1579 C 0.29794 0.9137 0.63316 0.0
C1580 C 0.31971 0.90167 0.65166 0.0
C1581 C 0.35634 0.89615 0.64757 0.0
C1582 C 0.37093 0.90232 0.62419 0.0
C1583 C 0.34929 0.91341 0.60449 0.0
C1584 C 0.31205 0.91911 0.60933 0.0
H1585 H 0.84119 0.57347 0.85884 0.0
H1586 H 0.95279 0.60098 0.84935 0.0
H1587 H 0.96773 0.56873 0.88705 0.0
H1588 H 0.83893 0.57798 0.925 0.0
H1589 H 0.8109 0.53933 0.92923 0.0
H1590 H 0.80736 0.56542 0.9019 0.0
H1591 H 0.81927 0.50967 0.87578 0.0
H1592 H 0.82214 0.48302 0.90288 0.0
H1593 H 0.85848 0.48294 0.88146 0.0
H1594 H 0.97125 0.53409 0.92705 0.0
H1595 H 0.96371 0.49724 0.96376 0.0
H1596 H 0.85084 0.48591 0.94766 0.0
C1597 C 0.8687 0.57317 0.86489 0.0
C1598 C 0.89572 0.59092 0.85091 0.0
C1599 C 0.93142 0.5884 0.85946 0.0
C1600 C 0.94022 0.56992 0.88103 0.0
C1601 C 0.91331 0.55274 0.89424 0.0
C1602 C 0.87822 0.55374 0.88637 0.0
C1603 C 0.85491 0.53137 0.90364 0.0
C1604 C 0.82631 0.55492 0.91566 0.0
C1605 C 0.83768 0.4999 0.89012 0.0
C1606 C 0.88222 0.51798 0.92243 0.0
C1607 C 0.91569 0.53107 0.91666 0.0
C1608 C 0.94513 0.52356 0.93148 0.0
C1609 C 0.94056 0.50239 0.95251 0.0
C1610 C 0.90687 0.48777 0.959 0.0
C1611 C 0.87725 0.49588 0.94338 0.0
H1612 H 0.83032 0.86811 0.18524 0.0
H1613 H 0.8557 0.98107 0.18435 0.0
H1614 H 0.8205 0.98816 1.14686 0.0
H1615 H 0.83622 0.85626 1.11878 0.0
H1616 H 0.80008 0.82452 1.11733 0.0
H1617 H 0.82687 0.82787 1.14437 0.0
H1618 H 0.76981 0.83877 0.16969 0.0
H1619 H 0.74288 0.83565 1.1427 0.0
H1620 H 0.74017 0.87482 0.16158 0.0
H1621 H 0.77827 0.98452 1.11048 0.0
H1622 H 0.73951 0.96944 1.07589 0.0
H1623 H 0.74432 0.85752 1.09573 0.0
C1624 C 0.82877 0.89433 0.17707 0.0
C1625 C 0.84641 0.92409 0.18828 0.0
C1626 C 0.84319 0.95769 0.17654 0.0
C1627 C 0.82286 0.96205 0.1551 0.0
C1628 C 0.8058 0.9325 1.14472 0.0
C1629 C 0.80906 0.89906 0.15504 0.0
C1630 C 0.78871 0.87165 1.13949 0.0
C1631 C 0.81451 0.84339 1.12939 0.0
C1632 C 0.75861 0.85418 0.15425 0.0
C1633 C 0.7733 0.89487 1.11901 0.0
C1634 C 0.78317 0.93003 1.12278 0.0
C1635 C 0.7709 0.95696 1.10735 0.0
C1636 C 0.74854 0.94805 1.08761 0.0
C1637 C 0.73849 0.91223 1.0825 0.0
C1638 C 0.7515 0.88518 1.09863 0.0
H1639 H 0.43536 0.5792 0.9344 0.0
H1640 H 0.32093 0.59742 0.93702 0.0
H1641 H 0.3133 0.56034 0.90048 0.0
H1642 H 0.44132 0.58384 0.86748 0.0
H1643 H 0.47538 0.54994 0.86514 0.0
H1644 H 0.47241 0.57712 0.89202 0.0
H1645 H 0.46764 0.52017 0.91823 0.0
H1646 H 0.47037 0.49285 0.89141 0.0
H1647 H 0.43308 0.48801 0.91181 0.0
H1648 H 0.31678 0.51716 0.86478 0.0
H1649 H 0.33157 0.47901 0.82986 0.0
H1650 H 0.44453 0.49209 0.84511 0.0
C1651 C 0.4087 0.57561 0.9272 0.0
C1652 C 0.37869 0.59186 0.9391 0.0
C1653 C 0.3445 0.58606 0.9286 0.0
C1654 C 0.33982 0.56463 0.90773 0.0
C1655 C 0.36961 0.54908 0.89659 0.0
C1656 C 0.40357 0.55487 0.90562 0.0
C1657 C 0.43102 0.53602 0.8892 0.0
C1658 C 0.45656 0.56336 0.87779 0.0
C1659 C 0.45177 0.50758 0.90352 0.0
C1660 C 0.40723 0.51856 0.86978 0.0
C1661 C 0.37181 0.52605 0.87485 0.0
C1662 C 0.3445 0.51162 0.86061 0.0
C1663 C 0.35328 0.48959 0.84068 0.0
C1664 C 0.38927 0.48205 0.83417 0.0
C1665 C 0.41669 0.49719 0.84914 0.0
H1666 H 0.7191 0.18126 0.68333 0.0
H1667 H 0.71077 0.06608 0.68909 0.0
H1668 H 0.74852 0.05939 0.6528 0.0
H1669 H 0.71403 0.18285 0.61647 0.0
H1670 H 0.74502 0.21933 0.61303 0.0
H1671 H 0.71831 0.2158 0.6401 0.0
H1672 H 0.77567 0.21724 0.66614 0.0
H1673 H 0.80253 0.22059 0.63913 0.0
H1674 H 0.81061 0.1851 0.66049 0.0
H1675 H 0.79093 0.0642 0.61691 0.0
H1676 H 0.82741 0.07976 0.5814 0.0
H1677 H 0.80513 0.19208 0.59349 0.0
C1678 C 0.72511 0.15462 0.67692 0.0
C1679 C 0.71141 0.1241 0.68962 0.0
C1680 C 0.72019 0.08996 0.68008 0.0
C1681 C 0.74201 0.08585 0.65934 0.0
C1682 C 0.75495 0.1161 0.64736 0.0
C1683 C 0.74631 0.14994 0.65547 0.0
C1684 C 0.76274 0.17779 0.6382 0.0
C1685 C 0.73326 0.20029 0.62624 0.0
C1686 C 0.78947 0.2016 0.65181 0.0
C1687 C 0.78203 0.15436 0.61935 0.0
C1688 C 0.77756 0.11884 0.62546 0.0
C1689 C 0.79407 0.09196 0.61191 0.0
C1690 C 0.81513 0.10121 0.59162 0.0
C1691 C 0.81962 0.13722 0.58403 0.0
C1692 C 0.80239 0.16421 0.59833 0.0
H1693 H 0.12061 0.46966 0.43499 0.0
H1694 H 0.23394 0.4453 0.43374 0.0
H1695 H 0.24042 0.48052 0.39621 0.0
H1696 H 0.10831 0.46371 0.36858 0.0
H1697 H 0.07617 0.49955 0.36726 0.0
H1698 H 0.08 0.47281 0.39428 0.0
H1699 H 0.09055 0.52989 0.41957 0.0
H1700 H 0.08694 0.55677 0.39261 0.0
H1701 H 0.12628 0.55979 0.41133 0.0
H1702 H 0.23603 0.52263 0.35974 0.0
H1703 H 0.22023 0.56128 0.32523 0.0
H1704 H 0.10846 0.55562 0.34559 0.0
C1705 C 0.14679 0.47143 0.42673 0.0
C1706 C 0.17683 0.45405 0.43786 0.0
C1707 C 0.21035 0.45759 0.426 0.0
C1708 C 0.21436 0.47793 0.40453 0.0
C1709 C 0.18453 0.49471 0.39424 0.0
C1710 C 0.15117 0.49118 0.40469 0.0
C1711 C 0.12341 0.51129 0.38924 0.0
C1712 C 0.09529 0.48529 0.37925 0.0
C1713 C 0.10574 0.54121 0.40408 0.0
C1714 C 0.14633 0.52688 0.36866 0.0
C1715 C 0.18165 0.5173 0.3723 0.0
C1716 C 0.20835 0.52977 0.35673 0.0
C1717 C 0.19903 0.55204 0.33703 0.0
C1718 C 0.16304 0.56182 0.3321 0.0
C1719 C 0.13624 0.54862 0.34834 0.0
H1720 H 0.72914 0.58805 0.60812 0.0
H1721 H 0.68756 0.69593 0.60423 0.0
H1722 H 0.71856 0.71084 0.64238 0.0
H1723 H 0.72651 0.579 0.67466 0.0
H1724 H 0.76836 0.55535 0.67705 0.0
H1725 H 0.74169 0.55139 0.64998 0.0
H1726 H 0.79501 0.57189 0.62394 0.0
H1727 H 0.82205 0.57578 0.65083 0.0
H1728 H 0.81697 0.61349 0.63086 0.0
H1729 H 0.75406 0.71494 0.68183 0.0
H1730 H 0.79301 0.70872 0.71765 0.0
H1731 H 0.81733 0.59978 0.69666 0.0
C1732 C 0.72599 0.61461 0.61556 0.0
C1733 C 0.70471 0.64059 0.60299 0.0
C1734 C 0.70284 0.67529 0.61328 0.0
C1735 C 0.7206 0.68409 0.6351 0.0
C1736 C 0.74138 0.65829 0.64687 0.0
C1737 C 0.74449 0.62423 0.63739 0.0
C1738 C 0.77009 0.60226 0.65341 0.0
C1739 C 0.7505 0.57008 0.66443 0.0
C1740 C 0.80297 0.59014 0.63887 0.0
C1741 C 0.78073 0.6292 0.6732 0.0
C1742 C 0.76339 0.66123 0.66908 0.0
C1743 C 0.76786 0.68997 0.685 0.0
C1744 C 0.79028 0.68617 0.70551 0.0
C1745 C 0.80912 0.65402 0.71036 0.0
C1746 C 0.80407 0.62509 0.69363 0.0
H1747 H 0.14648 0.92885 0.87657 0.0
H1748 H 0.18972 1.00735 0.82704 0.0
H1749 H 0.19064 0.05204 0.85984 0.0
H1750 H 0.08815 0.99293 0.9092 0.0
H1751 H 0.09439 0.97231 0.93839 0.0
H1752 H 0.09756 0.94581 0.91121 0.0
H1753 H 0.15968 0.92474 0.92438 0.0
H1754 H 0.15849 0.95214 0.95119 0.0
H1755 H 0.19448 0.95695 0.92962 0.0
H1756 H 0.18807 0.08933 0.89847 0.0
H1757 H 0.18058 0.1164 0.93881 0.0
H1758 H 0.13587 1.01709 0.96553 0.0
C1759 C 0.15635 0.95539 0.87267 0.0
C1760 C 0.16888 0.96393 0.84879 0.0
C1761 C 0.18071 0.99945 0.84485 0.0
C1762 C 0.18113 0.02531 0.86354 0.0
C1763 C 0.16888 1.01622 0.88667 0.0
C1764 C 0.15626 0.98221 0.89133 0.0
C1765 C 0.14384 0.98022 0.91791 0.0
C1766 C 0.10359 0.97234 0.91925 0.0
C1767 C 0.16539 0.95182 0.93163 0.0
C1768 C 0.15199 1.01806 0.92749 0.0
C1769 C 0.16642 0.03821 0.90894 0.0
C1770 C 0.17659 0.07367 0.91298 0.0
C1771 C 0.17216 0.089 0.93623 0.0
C1772 C 0.15723 0.06966 0.95592 0.0
C1773 C 0.14689 0.03333 0.95114 0.0
H1774 H 0.78984 0.42 1.09273 0.0
H1775 H 0.89616 0.39648 1.11936 0.0
H1776 H 0.87144 0.38723 0.16053 0.0
H1777 H 0.76268 0.47071 1.14682 0.0
H1778 H 0.71687 0.45589 1.14596 0.0
H1779 H 0.74236 0.45889 1.11833 0.0
H1780 H 0.72854 0.39267 1.10915 0.0
H1781 H 0.70318 0.38943 1.13681 0.0
H1782 H 0.73964 0.35903 1.13125 0.0
H1783 H 0.83414 0.37691 0.19921 0.0
H1784 H 0.79044 0.37474 0.23251 0.0
H1785 H 0.70748 0.41176 0.18371 0.0
C1786 C 0.80791 0.41271 1.10722 0.0
C1787 C 0.84532 0.40844 1.10233 0.0
C1788 C 0.86769 0.39972 1.12221 0.0
C1789 C 0.85371 0.3943 1.14581 0.0
C1790 C 0.81696 0.39849 0.14998 0.0
C1791 C 0.7944 0.40827 1.13131 0.0
C1792 C 0.75624 0.41316 1.14121 0.0
C1793 C 0.7438 0.45197 1.13788 0.0
C1794 C 0.73036 0.38702 1.12886 0.0
C1795 C 0.76067 0.40409 0.1682 0.0
C1796 C 0.79595 0.39513 0.17265 0.0
C1797 C 0.80662 0.38423 0.19577 0.0
C1798 C 0.78122 0.3829 0.21476 0.0
C1799 C 0.7449 0.39302 0.21135 0.0
C1800 C 0.73478 0.4039 0.1874 0.0
H1801 H 0.43754 1.01537 0.45854 0.0
H1802 H 0.34343 0.94949 0.44775 0.0
H1803 H 0.33019 0.98166 0.41013 0.0
H1804 H 0.3996 0.09787 0.43377 0.0
H1805 H 0.43982 0.11194 0.41855 0.0
H1806 H 0.44264 0.08444 0.44528 0.0
H1807 H 0.47987 0.03786 0.4217 0.0
H1808 H 0.47733 0.06527 0.39492 0.0
H1809 H 0.46247 1.01951 0.39391 0.0
H1810 H 0.32434 1.02255 0.37368 0.0
H1811 H 0.3299 0.06481 0.33967 0.0
H1812 H 0.42961 0.10391 0.36942 0.0
C1813 C 0.41428 1.00747 0.4482 0.0
C1814 C 0.39172 0.97909 0.45681 0.0
C1815 C 0.36158 0.97045 0.44221 0.0
C1816 C 0.35359 0.9889 0.42055 0.0
C1817 C 0.37596 1.01643 0.41272 0.0
C1818 C 0.40604 0.02552 0.42587 0.0
C1819 C 0.42582 0.05588 0.41259 0.0
C1820 C 0.42705 0.08953 0.4285 0.0
C1821 C 0.46363 0.04392 0.40535 0.0
C1822 C 0.40233 0.06211 0.39001 0.0
C1823 C 0.37337 0.03924 0.39089 0.0
C1824 C 0.3471 0.04033 0.37287 0.0
C1825 C 0.35037 0.06481 0.35349 0.0
C1826 C 0.37996 0.08827 0.35136 0.0
C1827 C 0.40653 0.08654 0.37012 0.0
H1828 H 0.32751 0.36494 0.68623 0.0
H1829 H 0.35659 0.47697 0.6842 0.0
H1830 H 0.32199 0.48431 0.6465 0.0
H1831 H 0.3335 0.35149 0.61981 0.0
H1832 H 0.29641 0.32085 0.6186 0.0
H1833 H 0.3232 0.32394 0.64565 0.0
H1834 H 0.2664 0.33708 0.67074 0.0
H1835 H 0.23948 0.33425 0.64374 0.0
H1836 H 0.23791 0.37387 0.66226 0.0
H1837 H 0.28004 0.48117 0.6099 0.0
H1838 H 0.24105 0.46646 0.5753 0.0
H1839 H 0.24188 0.35506 0.59657 0.0
C1840 C 0.32691 0.39099 0.67777 0.0
C1841 C 0.3454 0.42042 0.68873 0.0
C1842 C 0.3434 0.45382 0.6766 0.0
C1843 C 0.32342 0.45834 0.65502 0.0
C1844 C 0.30546 0.42913 0.6449 0.0
C1845 C 0.30754 0.39585 0.65561 0.0
C1846 C 0.28641 0.36876 0.64029 0.0
C1847 C 0.31137 0.33951 0.63051 0.0
C1848 C 0.25573 0.35252 0.65515 0.0
C1849 C 0.27181 0.39201 0.61955 0.0
C1850 C 0.28285 0.42691 0.62294 0.0
C1851 C 0.27165 0.45383 0.60712 0.0
C1852 C 0.24911 0.44517 0.5874 0.0
C1853 C 0.23783 0.4096 0.58275 0.0
C1854 C 0.24984 0.38256 0.59923 0.0
H1855 H 0.93556 0.07606 0.43584 0.0
H1856 H 0.82378 0.10656 0.43319 0.0
H1857 H 0.81634 0.07145 0.39569 0.0
H1858 H 0.94969 0.08058 0.3694 0.0
H1859 H 0.97993 0.0431 0.36868 0.0
H1860 H 0.9769 0.07048 0.39546 0.0
H1861 H 0.96284 1.01446 0.42103 0.0
H1862 H 0.96559 0.98695 0.39431 0.0
H1863 H 0.92575 0.98633 0.41266 0.0
H1864 H 0.81935 0.02869 0.3594 0.0
H1865 H 0.83397 0.98881 0.32524 0.0
H1866 H 0.94528 0.98868 0.34703 0.0
C1867 C 0.90955 0.07571 0.42727 0.0
C1868 C 0.88022 0.09475 0.438 0.0
C1869 C 0.84687 0.09298 0.42575 0.0
C1870 C 0.84229 0.07271 0.4043 0.0
C1871 C 0.8714 0.05418 0.39443 0.0
C1872 C 0.90465 0.05603 0.40525 0.0
C1873 C 0.93165 0.03422 0.39025 0.0
C1874 C 0.96131 0.05855 0.38036 0.0
C1875 C 0.9474 1.00368 0.40547 0.0
C1876 C 0.90839 1.01952 0.36956 0.0
C1877 C 0.87356 0.03109 0.37268 0.0
C1878 C 0.84665 1.01989 0.35683 0.0
C1879 C 0.85526 0.99683 0.33738 0.0
C1880 C 0.89077 0.98499 0.333 0.0
C1881 C 0.91781 0.99701 0.34949 0.0
H1882 H 0.22936 0.58822 0.1832 0.0
H1883 H 0.19174 0.69743 0.18854 0.0
H1884 H 0.22389 0.71247 0.15091 0.0
H1885 H 0.31851 0.61105 0.16107 0.0
H1886 H 0.32229 0.57376 1.14057 0.0
H1887 H 0.29479 0.57017 0.16726 0.0
H1888 H 0.24138 0.55244 1.14068 0.0
H1889 H 0.26788 0.55681 1.11356 0.0
H1890 H 0.22685 0.5817 1.11676 0.0
H1891 H 0.26045 0.71696 1.11224 0.0
H1892 H 0.29925 0.71091 1.07643 0.0
H1893 H 0.31849 0.59988 1.09468 0.0
C1894 C 0.22728 0.61512 0.17617 0.0
C1895 C 0.20677 0.64145 0.18904 0.0
C1896 C 0.20636 0.67651 0.17927 0.0
C1897 C 0.22483 0.68541 0.15775 0.0
C1898 C 0.24486 0.6593 1.14572 0.0
C1899 C 0.24649 0.6248 0.15458 0.0
C1900 C 0.27139 0.60248 1.13821 0.0
C1901 C 0.30366 0.58854 0.15264 0.0
C1902 C 0.25066 0.5715 1.12661 0.0
C1903 C 0.28327 0.62976 1.11891 0.0
C1904 C 0.26726 0.66228 1.1237 0.0
C1905 C 0.27316 0.69158 1.10851 0.0
C1906 C 0.29554 0.68786 1.088 0.0
C1907 C 0.31288 0.65516 1.08229 0.0
C1908 C 0.30647 0.62562 1.09835 0.0
H1909 H 0.67917 1.00698 0.94736 0.0
H1910 H 0.64853 0.9025 0.92097 0.0
H1911 H 0.63905 0.92801 0.88003 0.0
H1912 H 0.61895 0.06019 0.91081 0.0
H1913 H 0.65053 0.09535 0.90462 0.0
H1914 H 0.65439 0.06947 0.93202 0.0
H1915 H 0.7194 0.05287 0.92092 0.0
H1916 H 0.71583 0.07891 0.89357 0.0
H1917 H 0.72863 0.03256 0.89198 0.0
H1918 H 0.62839 0.96613 0.84205 0.0
H1919 H 0.62594 1.01012 0.80912 0.0
H1920 H 0.6696 0.09088 0.85707 0.0
C1921 C 0.67063 0.98942 0.9329 0.0
C1922 C 0.66447 0.95233 0.93775 0.0
C1923 C 0.65356 0.93064 0.91806 0.0
C1924 C 0.64793 0.94511 0.89463 0.0
C1925 C 0.65392 0.98159 0.89051 0.0
C1926 C 0.66581 1.00339 0.90901 0.0
C1927 C 0.67174 0.04143 0.89924 0.0
C1928 C 0.64746 0.0682 0.91247 0.0
C1929 C 0.71125 0.05208 0.90157 0.0
C1930 C 0.66086 0.03783 0.8725 0.0
C1931 C 0.65011 1.00306 0.86814 0.0
C1932 C 0.63716 0.99322 0.84538 0.0
C1933 C 0.63569 1.01883 0.82661 0.0
C1934 C 0.64755 0.05464 0.82985 0.0
C1935 C 0.66044 0.06399 0.85348 0.0
loop_
_geom_bond_atom_site_label_1
_geom_bond_atom_site_label_2
_geom_bond_distance
_geom_bond_site_symmetry_2
_ccdc_geom_bond_type
Ho0 C3 2.811 . S
Ho0 O20 2.322 . S
Ho0 O22 2.378 . S
Ho0 O23 2.524 . S
Ho0 O24 2.381 . S
Ho0 O25 2.669 . S
Ho0 O27 2.346 . S
Ho0 O31 2.305 . S
Ho1 C12 2.811 . S
Ho1 O21 2.346 . S
Ho1 O25 2.305 . S
Ho1 O26 2.322 . S
Ho1 O28 2.378 . S
Ho1 O29 2.524 . S
Ho1 O30 2.381 . S
Ho1 O31 2.669 . S
C2 O20 1.259 . S
C2 O21 1.268 . S
C3 Ho0 2.811 . S
C3 C4 1.488 . S
C3 O22 1.215 . S
C3 O23 1.289 . S
C4 C3 1.488 . S
C4 C5 1.348 . S
C4 C9 1.413 . S
C5 C4 1.348 . S
C5 C6 1.442 . S
C5 H32 0.930 . S
C6 C5 1.442 . S
C6 C7 1.381 . S
C6 H33 0.931 . S
C7 C6 1.381 . S
C7 C8 1.321 . S
C8 C7 1.321 . S
C8 C9 1.403 . S
C8 H34 0.934 . S
C9 C4 1.413 . S
C9 C8 1.403 . S
C9 H35 0.930 . S
C10 O24 1.275 . S
C10 O25 1.256 . S
C11 O26 1.259 . S
C11 O27 1.268 . S
C12 Ho1 2.811 . S
C12 C13 1.488 . S
C12 O28 1.215 . S
C12 O29 1.289 . S
C13 C12 1.488 . S
C13 C14 1.348 . S
C13 C18 1.413 . S
C14 C13 1.348 . S
C14 C15 1.442 . S
C14 H36 0.930 . S
C15 C14 1.442 . S
C15 C16 1.381 1_545 S
C15 H37 0.931 . S
C16 C15 1.381 1_565 S
C16 C17 1.321 . S
C17 C16 1.321 . S
C17 C18 1.403 1_565 S
C17 H38 0.934 . S
C18 C13 1.413 . S
C18 C17 1.403 1_545 S
C18 H39 0.930 1_545 S
C19 O30 1.275 . S
C19 O31 1.256 . S
O20 Ho0 2.322 . S
O20 C2 1.259 . S
O21 Ho1 2.346 . S
O21 C2 1.268 . S
O22 Ho0 2.378 . S
O22 C3 1.215 . S
O23 Ho0 2.524 . S
O23 C3 1.289 . S
O24 Ho0 2.381 . S
O24 C10 1.275 . S
O25 Ho0 2.669 . S
O25 Ho1 2.305 . S
O25 C10 1.256 . S
O26 Ho1 2.322 . S
O26 C11 1.259 . S
O27 Ho0 2.346 . S
O27 C11 1.268 . S
O28 Ho1 2.378 . S
O28 C12 1.215 . S
O29 Ho1 2.524 . S
O29 C12 1.289 . S
O30 Ho1 2.381 . S
O30 C19 1.275 . S
O31 Ho0 2.305 . S
O31 Ho1 2.669 . S
O31 C19 1.256 . S
H32 C5 0.930 . S
H33 C6 0.931 . S
H34 C8 0.934 . S
H35 C9 0.930 . S
H36 C14 0.930 . S
H37 C15 0.931 . S
H38 C17 0.934 . S
H39 C18 0.930 1_565 S
Ho40 C43 2.811 . S
Ho40 O60 2.322 . S
Ho40 O62 2.378 . S
Ho40 O63 2.524 . S
Ho40 O64 2.381 . S
Ho40 O65 2.669 . S
Ho40 O67 2.346 . S
Ho40 O71 2.305 . S
Ho41 C52 2.811 . S
Ho41 O61 2.346 . S
Ho41 O65 2.305 . S
Ho41 O66 2.322 . S
Ho41 O68 2.378 . S
Ho41 O69 2.524 . S
Ho41 O70 2.381 . S
Ho41 O71 2.669 . S
C42 O60 1.259 . S
C42 O61 1.268 . S
C43 Ho40 2.811 . S
C43 C44 1.488 . S
C43 O62 1.215 . S
C43 O63 1.289 . S
C44 C43 1.488 . S
C44 C45 1.348 . S
C44 C49 1.413 . S
C45 C44 1.348 . S
C45 C46 1.442 . S
C45 H72 0.930 . S
C46 C45 1.442 . S
C46 C47 1.381 . S
C46 H73 0.931 . S
C47 C46 1.381 . S
C47 C48 1.321 . S
C48 C47 1.321 . S
C48 C49 1.403 . S
C48 H74 0.934 . S
C49 C44 1.413 . S
C49 C48 1.403 . S
C49 H75 0.930 . S
C50 O64 1.275 . S
C50 O65 1.256 . S
C51 O66 1.259 . S
C51 O67 1.268 . S
C52 Ho41 2.811 . S
C52 C53 1.488 . S
C52 O68 1.215 . S
C52 O69 1.289 . S
C53 C52 1.488 . S
C53 C54 1.348 . S
C53 C58 1.413 . S
C54 C53 1.348 . S
C54 C55 1.442 . S
C54 H76 0.930 . S
C55 C54 1.442 . S
C55 C56 1.381 . S
C55 H77 0.931 . S
C56 C55 1.381 . S
C56 C57 1.321 . S
C57 C56 1.321 . S
C57 C58 1.403 . S
C57 H78 0.934 . S
C58 C53 1.413 . S
C58 C57 1.403 . S
C58 H79 0.930 . S
C59 O70 1.275 . S
C59 O71 1.256 . S
O60 Ho40 2.322 . S
O60 C42 1.259 . S
O61 Ho41 2.346 . S
O61 C42 1.268 . S
O62 Ho40 2.378 . S
O62 C43 1.215 . S
O63 Ho40 2.524 . S
O63 C43 1.289 . S
O64 Ho40 2.381 . S
O64 C50 1.275 . S
O65 Ho40 2.669 . S
O65 Ho41 2.305 . S
O65 C50 1.256 . S
O66 Ho41 2.322 . S
O66 C51 1.259 . S
O67 Ho40 2.346 . S
O67 C51 1.268 . S
O68 Ho41 2.378 . S
O68 C52 1.215 . S
O69 Ho41 2.524 . S
O69 C52 1.289 . S
O70 Ho41 2.381 . S
O70 C59 1.275 . S
O71 Ho40 2.305 . S
O71 Ho41 2.669 . S
O71 C59 1.256 . S
H72 C45 0.930 . S
H73 C46 0.931 . S
H74 C48 0.934 . S
H75 C49 0.930 . S
H76 C54 0.930 . S
H77 C55 0.931 . S
H78 C57 0.934 . S
H79 C58 0.930 . S
Ho80 C83 2.811 . S
Ho80 O100 2.322 . S
Ho80 O102 2.378 . S
Ho80 O103 2.524 . S
Ho80 O104 2.381 . S
Ho80 O105 2.669 . S
Ho80 O107 2.346 . S
Ho80 O111 2.305 . S
Ho81 C92 2.811 . S
Ho81 O101 2.346 . S
Ho81 O105 2.305 . S
Ho81 O106 2.322 . S
Ho81 O108 2.378 . S
Ho81 O109 2.524 . S
Ho81 O110 2.381 . S
Ho81 O111 2.669 . S
C82 O100 1.259 . S
C82 O101 1.268 . S
C83 Ho80 2.811 . S
C83 C84 1.488 . S
C83 O102 1.215 . S
C83 O103 1.289 . S
C84 C83 1.488 . S
C84 C85 1.348 . S
C84 C89 1.413 . S
C85 C84 1.348 . S
C85 C86 1.442 . S
C85 H112 0.930 . S
C86 C85 1.442 . S
C86 C87 1.381 . S
C86 H113 0.931 . S
C87 C86 1.381 . S
C87 C88 1.321 . S
C88 C87 1.321 . S
C88 C89 1.403 . S
C88 H114 0.934 . S
C89 C84 1.413 . S
C89 C88 1.403 . S
C89 H115 0.930 . S
C90 O104 1.275 . S
C90 O105 1.256 . S
C91 O106 1.259 . S
C91 O107 1.268 . S
C92 Ho81 2.811 . S
C92 C93 1.488 . S
C92 O108 1.215 . S
C92 O109 1.289 . S
C93 C92 1.488 . S
C93 C94 1.348 . S
C93 C98 1.413 . S
C94 C93 1.348 . S
C94 C95 1.442 . S
C94 H116 0.930 . S
C95 C94 1.442 . S
C95 C96 1.381 1_565 S
C95 H117 0.931 . S
C96 C95 1.381 1_545 S
C96 C97 1.321 . S
C97 C96 1.321 . S
C97 C98 1.403 1_545 S
C97 H118 0.934 . S
C98 C93 1.413 . S
C98 C97 1.403 1_565 S
C98 H119 0.930 1_565 S
C99 O110 1.275 . S
C99 O111 1.256 . S
O100 Ho80 2.322 . S
O100 C82 1.259 . S
O101 Ho81 2.346 . S
O101 C82 1.268 . S
O102 Ho80 2.378 . S
O102 C83 1.215 . S
O103 Ho80 2.524 . S
O103 C83 1.289 . S
O104 Ho80 2.381 . S
O104 C90 1.275 . S
O105 Ho80 2.669 . S
O105 Ho81 2.305 . S
O105 C90 1.256 . S
O106 Ho81 2.322 . S
O106 C91 1.259 . S
O107 Ho80 2.346 . S
O107 C91 1.268 . S
O108 Ho81 2.378 . S
O108 C92 1.215 . S
O109 Ho81 2.524 . S
O109 C92 1.289 . S
O110 Ho81 2.381 . S
O110 C99 1.275 . S
O111 Ho80 2.305 . S
O111 Ho81 2.669 . S
O111 C99 1.256 . S
H112 C85 0.930 . S
H113 C86 0.931 . S
H114 C88 0.934 . S
H115 C89 0.930 . S
H116 C94 0.930 . S
H117 C95 0.931 . S
H118 C97 0.934 . S
H119 C98 0.930 1_545 S
Ho120 C123 2.811 . S
Ho120 O140 2.322 . S
Ho120 O142 2.378 . S
Ho120 O143 2.524 . S
Ho120 O144 2.381 . S
Ho120 O145 2.669 . S
Ho120 O147 2.346 . S
Ho120 O151 2.305 . S
Ho121 C132 2.811 . S
Ho121 O141 2.346 . S
Ho121 O145 2.305 . S
Ho121 O146 2.322 . S
Ho121 O148 2.378 . S
Ho121 O149 2.524 . S
Ho121 O150 2.381 . S
Ho121 O151 2.669 . S
C122 O140 1.259 . S
C122 O141 1.268 . S
C123 Ho120 2.811 . S
C123 C124 1.473 1_655 S
C123 O142 1.215 . S
C123 O143 1.289 . S
C124 C123 1.473 1_455 S
C124 C125 1.338 1_455 S
C124 C129 1.439 . S
C125 C124 1.338 1_655 S
C125 C126 1.442 1_655 S
C125 H152 0.930 . S
C126 C125 1.442 1_455 S
C126 C127 1.381 . S
C126 H153 0.943 . S
C127 C126 1.381 . S
C127 C128 1.321 . S
C128 C127 1.321 . S
C128 C129 1.403 . S
C128 H154 0.934 . S
C129 C124 1.439 . S
C129 C128 1.403 . S
C129 H155 0.930 . S
C130 O144 1.275 . S
C130 O145 1.256 . S
C131 O146 1.259 . S
C131 O147 1.268 . S
C132 Ho121 2.811 . S
C132 C133 1.488 . S
C132 O148 1.215 . S
C132 O149 1.289 . S
C133 C132 1.488 . S
C133 C134 1.348 . S
C133 C138 1.413 . S
C134 C133 1.348 . S
C134 C135 1.442 . S
C134 H156 0.930 . S
C135 C134 1.442 . S
C135 C136 1.381 . S
C135 H157 0.931 . S
C136 C135 1.381 . S
C136 C137 1.321 . S
C137 C136 1.321 . S
C137 C138 1.403 . S
C137 H158 0.934 . S
C138 C133 1.413 . S
C138 C137 1.403 . S
C138 H159 0.930 . S
C139 O150 1.275 . S
C139 O151 1.256 . S
O140 Ho120 2.322 . S
O140 C122 1.259 . S
O141 Ho121 2.346 . S
O141 C122 1.268 . S
O142 Ho120 2.378 . S
O142 C123 1.215 . S
O143 Ho120 2.524 . S
O143 C123 1.289 . S
O144 Ho120 2.381 . S
O144 C130 1.275 . S
O145 Ho120 2.669 . S
O145 Ho121 2.305 . S
O145 C130 1.256 . S
O146 Ho121 2.322 . S
O146 C131 1.259 . S
O147 Ho120 2.346 . S
O147 C131 1.268 . S
O148 Ho121 2.378 . S
O148 C132 1.215 . S
O149 Ho121 2.524 . S
O149 C132 1.289 . S
O150 Ho121 2.381 . S
O150 C139 1.275 . S
O151 Ho120 2.305 . S
O151 Ho121 2.669 . S
O151 C139 1.256 . S
H152 C125 0.930 . S
H153 C126 0.943 . S
H154 C128 0.934 . S
H155 C129 0.930 . S
H156 C134 0.930 . S
H157 C135 0.931 . S
H158 C137 0.934 . S
H159 C138 0.930 . S
Ho160 C163 2.811 . S
Ho160 O180 2.322 . S
Ho160 O182 2.378 . S
Ho160 O183 2.524 . S
Ho160 O184 2.381 . S
Ho160 O185 2.669 . S
Ho160 O187 2.346 . S
Ho160 O191 2.305 . S
Ho161 C172 2.811 . S
Ho161 O181 2.346 . S
Ho161 O185 2.305 . S
Ho161 O186 2.322 . S
Ho161 O188 2.378 . S
Ho161 O189 2.524 . S
Ho161 O190 2.381 . S
Ho161 O191 2.669 . S
C162 O180 1.259 . S
C162 O181 1.268 . S
C163 Ho160 2.811 . S
C163 C164 1.488 . S
C163 O182 1.215 . S
C163 O183 1.289 . S
C164 C163 1.488 . S
C164 C165 1.348 . S
C164 C169 1.413 . S
C165 C164 1.348 . S
C165 C166 1.442 . S
C165 H192 0.930 . S
C166 C165 1.442 . S
C166 C167 1.381 1_565 S
C166 H193 0.931 . S
C167 C166 1.381 1_545 S
C167 C168 1.321 . S
C168 C167 1.321 . S
C168 C169 1.403 1_545 S
C168 H194 0.934 . S
C169 C164 1.413 . S
C169 C168 1.403 1_565 S
C169 H195 0.930 1_565 S
C170 O184 1.275 . S
C170 O185 1.256 . S
C171 O186 1.259 . S
C171 O187 1.268 . S
C172 Ho161 2.811 . S
C172 C173 1.488 . S
C172 O188 1.215 . S
C172 O189 1.289 . S
C173 C172 1.488 . S
C173 C174 1.348 . S
C173 C178 1.413 . S
C174 C173 1.348 . S
C174 C175 1.442 . S
C174 H196 0.930 . S
C175 C174 1.442 . S
C175 C176 1.381 . S
C175 H197 0.931 . S
C176 C175 1.381 . S
C176 C177 1.321 . S
C177 C176 1.321 . S
C177 C178 1.403 . S
C177 H198 0.934 . S
C178 C173 1.413 . S
C178 C177 1.403 . S
C178 H199 0.930 . S
C179 O190 1.275 . S
C179 O191 1.256 . S
O180 Ho160 2.322 . S
O180 C162 1.259 . S
O181 Ho161 2.346 . S
O181 C162 1.268 . S
O182 Ho160 2.378 . S
O182 C163 1.215 . S
O183 Ho160 2.524 . S
O183 C163 1.289 . S
O184 Ho160 2.381 . S
O184 C170 1.275 . S
O185 Ho160 2.669 . S
O185 Ho161 2.305 . S
O185 C170 1.256 . S
O186 Ho161 2.322 . S
O186 C171 1.259 . S
O187 Ho160 2.346 . S
O187 C171 1.268 . S
O188 Ho161 2.378 . S
O188 C172 1.215 . S
O189 Ho161 2.524 . S
O189 C172 1.289 . S
O190 Ho161 2.381 . S
O190 C179 1.275 . S
O191 Ho160 2.305 . S
O191 Ho161 2.669 . S
O191 C179 1.256 . S
H192 C165 0.930 . S
H193 C166 0.931 . S
H194 C168 0.934 . S
H195 C169 0.930 1_545 S
H196 C174 0.930 . S
H197 C175 0.931 . S
H198 C177 0.934 . S
H199 C178 0.930 . S
Ho200 C203 2.811 . S
Ho200 O220 2.322 . S
Ho200 O222 2.378 . S
Ho200 O223 2.524 . S
Ho200 O224 2.381 . S
Ho200 O225 2.669 . S
Ho200 O227 2.346 . S
Ho200 O231 2.305 . S
Ho201 C212 2.811 . S
Ho201 O221 2.346 . S
Ho201 O225 2.305 . S
Ho201 O226 2.322 . S
Ho201 O228 2.378 . S
Ho201 O229 2.524 . S
Ho201 O230 2.381 . S
Ho201 O231 2.669 . S
C202 O220 1.259 . S
C202 O221 1.268 . S
C203 Ho200 2.811 . S
C203 C204 1.488 . S
C203 O222 1.215 . S
C203 O223 1.289 . S
C204 C203 1.488 . S
C204 C205 1.348 . S
C204 C209 1.413 . S
C205 C204 1.348 . S
C205 C206 1.442 . S
C205 H232 0.930 . S
C206 C205 1.442 . S
C206 C207 1.381 . S
C206 H233 0.931 . S
C207 C206 1.381 . S
C207 C208 1.321 . S
C208 C207 1.321 . S
C208 C209 1.403 . S
C208 H234 0.934 . S
C209 C204 1.413 . S
C209 C208 1.403 . S
C209 H235 0.930 . S
C210 O224 1.275 . S
C210 O225 1.256 . S
C211 O226 1.259 . S
C211 O227 1.268 . S
C212 Ho201 2.811 . S
C212 C213 1.488 . S
C212 O228 1.215 . S
C212 O229 1.289 . S
C213 C212 1.488 . S
C213 C214 1.348 . S
C213 C218 1.413 . S
C214 C213 1.348 . S
C214 C215 1.442 . S
C214 H236 0.930 . S
C215 C214 1.442 . S
C215 C216 1.381 . S
C215 H237 0.931 . S
C216 C215 1.381 . S
C216 C217 1.321 . S
C217 C216 1.321 . S
C217 C218 1.403 . S
C217 H238 0.934 . S
C218 C213 1.413 . S
C218 C217 1.403 . S
C218 H239 0.930 . S
C219 O230 1.275 . S
C219 O231 1.256 . S
O220 Ho200 2.322 . S
O220 C202 1.259 . S
O221 Ho201 2.346 . S
O221 C202 1.268 . S
O222 Ho200 2.378 . S
O222 C203 1.215 . S
O223 Ho200 2.524 . S
O223 C203 1.289 . S
O224 Ho200 2.381 . S
O224 C210 1.275 . S
O225 Ho200 2.669 . S
O225 Ho201 2.305 . S
O225 C210 1.256 . S
O226 Ho201 2.322 . S
O226 C211 1.259 . S
O227 Ho200 2.346 . S
O227 C211 1.268 . S
O228 Ho201 2.378 . S
O228 C212 1.215 . S
O229 Ho201 2.524 . S
O229 C212 1.289 . S
O230 Ho201 2.381 . S
O230 C219 1.275 . S
O231 Ho200 2.305 . S
O231 Ho201 2.669 . S
O231 C219 1.256 . S
H232 C205 0.930 . S
H233 C206 0.931 . S
H234 C208 0.934 . S
H235 C209 0.930 . S
H236 C214 0.930 . S
H237 C215 0.931 . S
H238 C217 0.934 . S
H239 C218 0.930 . S
Ho240 C243 2.811 . S
Ho240 O260 2.322 . S
Ho240 O262 2.378 . S
Ho240 O263 2.524 . S
Ho240 O264 2.381 . S
Ho240 O265 2.669 . S
Ho240 O267 2.346 . S
Ho240 O271 2.305 . S
Ho241 C252 2.811 . S
Ho241 O261 2.346 . S
Ho241 O265 2.305 . S
Ho241 O266 2.322 . S
Ho241 O268 2.378 . S
Ho241 O269 2.524 . S
Ho241 O270 2.381 . S
Ho241 O271 2.669 . S
C242 O260 1.259 . S
C242 O261 1.268 . S
C243 Ho240 2.811 . S
C243 C244 1.488 . S
C243 O262 1.215 . S
C243 O263 1.289 . S
C244 C243 1.488 . S
C244 C245 1.348 . S
C244 C249 1.413 . S
C245 C244 1.348 . S
C245 C246 1.442 . S
C245 H272 0.930 . S
C246 C245 1.442 . S
C246 C247 1.381 1_545 S
C246 H273 0.931 . S
C247 C246 1.381 1_565 S
C247 C248 1.321 . S
C248 C247 1.321 . S
C248 C249 1.403 1_565 S
C248 H274 0.934 . S
C249 C244 1.413 . S
C249 C248 1.403 1_545 S
C249 H275 0.930 1_545 S
C250 O264 1.275 . S
C250 O265 1.256 . S
C251 O266 1.259 . S
C251 O267 1.268 . S
C252 Ho241 2.811 . S
C252 C253 1.488 . S
C252 O268 1.215 . S
C252 O269 1.289 . S
C253 C252 1.488 . S
C253 C254 1.348 . S
C253 C258 1.413 . S
C254 C253 1.348 . S
C254 C255 1.442 . S
C254 H276 0.930 . S
C255 C254 1.442 . S
C255 C256 1.381 . S
C255 H277 0.931 . S
C256 C255 1.381 . S
C256 C257 1.321 . S
C257 C256 1.321 . S
C257 C258 1.403 . S
C257 H278 0.934 . S
C258 C253 1.413 . S
C258 C257 1.403 . S
C258 H279 0.930 . S
C259 O270 1.275 . S
C259 O271 1.256 . S
O260 Ho240 2.322 . S
O260 C242 1.259 . S
O261 Ho241 2.346 . S
O261 C242 1.268 . S
O262 Ho240 2.378 . S
O262 C243 1.215 . S
O263 Ho240 2.524 . S
O263 C243 1.289 . S
O264 Ho240 2.381 . S
O264 C250 1.275 . S
O265 Ho240 2.669 . S
O265 Ho241 2.305 . S
O265 C250 1.256 . S
O266 Ho241 2.322 . S
O266 C251 1.259 . S
O267 Ho240 2.346 . S
O267 C251 1.268 . S
O268 Ho241 2.378 . S
O268 C252 1.215 . S
O269 Ho241 2.524 . S
O269 C252 1.289 . S
O270 Ho241 2.381 . S
O270 C259 1.275 . S
O271 Ho240 2.305 . S
O271 Ho241 2.669 . S
O271 C259 1.256 . S
H272 C245 0.930 . S
H273 C246 0.931 . S
H274 C248 0.934 . S
H275 C249 0.930 1_565 S
H276 C254 0.930 . S
H277 C255 0.931 . S
H278 C257 0.934 . S
H279 C258 0.930 . S
Ho280 C283 2.811 . S
Ho280 O300 2.322 . S
Ho280 O302 2.378 . S
Ho280 O303 2.524 . S
Ho280 O304 2.381 . S
Ho280 O305 2.669 . S
Ho280 O307 2.346 . S
Ho280 O311 2.305 . S
Ho281 C292 2.811 . S
Ho281 O301 2.346 . S
Ho281 O305 2.305 . S
Ho281 O306 2.322 . S
Ho281 O308 2.378 . S
Ho281 O309 2.524 . S
Ho281 O310 2.381 . S
Ho281 O311 2.669 . S
C282 O300 1.259 . S
C282 O301 1.268 . S
C283 Ho280 2.811 . S
C283 C284 1.488 . S
C283 O302 1.215 . S
C283 O303 1.289 . S
C284 C283 1.488 . S
C284 C285 1.348 . S
C284 C289 1.413 . S
C285 C284 1.348 . S
C285 C286 1.442 . S
C285 H312 0.930 . S
C286 C285 1.442 . S
C286 C287 1.381 . S
C286 H313 0.931 . S
C287 C286 1.381 . S
C287 C288 1.321 . S
C288 C287 1.321 . S
C288 C289 1.403 . S
C288 H314 0.934 . S
C289 C284 1.413 . S
C289 C288 1.403 . S
C289 H315 0.930 . S
C290 O304 1.275 . S
C290 O305 1.256 . S
C291 O306 1.259 . S
C291 O307 1.268 . S
C292 Ho281 2.811 . S
C292 C293 1.473 1_455 S
C292 O308 1.215 . S
C292 O309 1.289 . S
C293 C292 1.473 1_655 S
C293 C294 1.338 1_655 S
C293 C298 1.439 . S
C294 C293 1.338 1_455 S
C294 C295 1.442 1_455 S
C294 H316 0.930 . S
C295 C294 1.442 1_655 S
C295 C296 1.381 . S
C295 H317 0.943 . S
C296 C295 1.381 . S
C296 C297 1.321 . S
C297 C296 1.321 . S
C297 C298 1.403 . S
C297 H318 0.934 . S
C298 C293 1.439 . S
C298 C297 1.403 . S
C298 H319 0.930 . S
C299 O310 1.275 . S
C299 O311 1.256 . S
O300 Ho280 2.322 . S
O300 C282 1.259 . S
O301 Ho281 2.346 . S
O301 C282 1.268 . S
O302 Ho280 2.378 . S
O302 C283 1.215 . S
O303 Ho280 2.524 . S
O303 C283 1.289 . S
O304 Ho280 2.381 . S
O304 C290 1.275 . S
O305 Ho280 2.669 . S
O305 Ho281 2.305 . S
O305 C290 1.256 . S
O306 Ho281 2.322 . S
O306 C291 1.259 . S
O307 Ho280 2.346 . S
O307 C291 1.268 . S
O308 Ho281 2.378 . S
O308 C292 1.215 . S
O309 Ho281 2.524 . S
O309 C292 1.289 . S
O310 Ho281 2.381 . S
O310 C299 1.275 . S
O311 Ho280 2.305 . S
O311 Ho281 2.669 . S
O311 C299 1.256 . S
H312 C285 0.930 . S
H313 C286 0.931 . S
H314 C288 0.934 . S
H315 C289 0.930 . S
H316 C294 0.930 . S
H317 C295 0.943 . S
H318 C297 0.934 . S
H319 C298 0.930 . S
Ho320 C323 2.811 . S
Ho320 O340 2.322 . S
Ho320 O342 2.378 . S
Ho320 O343 2.524 . S
Ho320 O344 2.381 . S
Ho320 O345 2.669 . S
Ho320 O347 2.346 . S
Ho320 O351 2.305 . S
Ho321 C332 2.811 . S
Ho321 O341 2.346 . S
Ho321 O345 2.305 . S
Ho321 O346 2.322 . S
Ho321 O348 2.378 . S
Ho321 O349 2.524 . S
Ho321 O350 2.381 . S
Ho321 O351 2.669 . S
C322 O340 1.259 . S
C322 O341 1.268 . S
C323 Ho320 2.811 . S
C323 C324 1.488 . S
C323 O342 1.215 . S
C323 O343 1.289 . S
C324 C323 1.488 . S
C324 C325 1.348 . S
C324 C329 1.413 . S
C325 C324 1.348 . S
C325 C326 1.442 . S
C325 H352 0.930 . S
C326 C325 1.442 . S
C326 C327 1.381 . S
C326 H353 0.931 . S
C327 C326 1.381 . S
C327 C328 1.321 . S
C328 C327 1.321 . S
C328 C329 1.403 . S
C328 H354 0.934 . S
C329 C324 1.413 . S
C329 C328 1.403 . S
C329 H355 0.930 . S
C330 O344 1.275 . S
C330 O345 1.256 . S
C331 O346 1.259 . S
C331 O347 1.268 . S
C332 Ho321 2.811 . S
C332 C333 1.488 . S
C332 O348 1.215 . S
C332 O349 1.289 . S
C333 C332 1.488 . S
C333 C334 1.348 . S
C333 C338 1.413 . S
C334 C333 1.348 . S
C334 C335 1.442 . S
C334 H356 0.930 . S
C335 C334 1.442 . S
C335 C336 1.381 . S
C335 H357 0.931 . S
C336 C335 1.381 . S
C336 C337 1.321 . S
C337 C336 1.321 . S
C337 C338 1.403 . S
C337 H358 0.934 . S
C338 C333 1.413 . S
C338 C337 1.403 . S
C338 H359 0.930 . S
C339 O350 1.275 . S
C339 O351 1.256 . S
O340 Ho320 2.322 . S
O340 C322 1.259 . S
O341 Ho321 2.346 . S
O341 C322 1.268 . S
O342 Ho320 2.378 . S
O342 C323 1.215 . S
O343 Ho320 2.524 . S
O343 C323 1.289 . S
O344 Ho320 2.381 . S
O344 C330 1.275 . S
O345 Ho320 2.669 . S
O345 Ho321 2.305 . S
O345 C330 1.256 . S
O346 Ho321 2.322 . S
O346 C331 1.259 . S
O347 Ho320 2.346 . S
O347 C331 1.268 . S
O348 Ho321 2.378 . S
O348 C332 1.215 . S
O349 Ho321 2.524 . S
O349 C332 1.289 . S
O350 Ho321 2.381 . S
O350 C339 1.275 . S
O351 Ho320 2.305 . S
O351 Ho321 2.669 . S
O351 C339 1.256 . S
H352 C325 0.930 . S
H353 C326 0.931 . S
H354 C328 0.934 . S
H355 C329 0.930 . S
H356 C334 0.930 . S
H357 C335 0.931 . S
H358 C337 0.934 . S
H359 C338 0.930 . S
Ho360 C363 2.811 . S
Ho360 O380 2.322 . S
Ho360 O382 2.378 . S
Ho360 O383 2.524 1_545 S
Ho360 O384 2.381 . S
Ho360 O385 2.669 . S
Ho360 O387 2.346 . S
Ho360 O391 2.305 . S
Ho361 C372 2.811 . S
Ho361 O381 2.346 . S
Ho361 O385 2.305 . S
Ho361 O386 2.322 . S
Ho361 O388 2.378 . S
Ho361 O389 2.524 . S
Ho361 O390 2.381 . S
Ho361 O391 2.669 . S
C362 O380 1.259 . S
C362 O381 1.268 . S
C363 Ho360 2.811 . S
C363 C364 1.473 1_445 S
C363 O382 1.215 . S
C363 O383 1.289 1_545 S
C364 C363 1.473 1_665 S
C364 C365 1.338 1_655 S
C364 C369 1.439 1_565 S
C365 C364 1.338 1_455 S
C365 C366 1.442 1_455 S
C365 H392 0.930 . S
C366 C365 1.442 1_655 S
C366 C367 1.381 . S
C366 H393 0.943 . S
C367 C366 1.381 . S
C367 C368 1.321 . S
C368 C367 1.321 . S
C368 C369 1.403 1_565 S
C368 H394 0.934 . S
C369 C364 1.439 1_545 S
C369 C368 1.403 1_545 S
C369 H395 0.930 . S
C370 O384 1.275 . S
C370 O385 1.256 . S
C371 O386 1.259 . S
C371 O387 1.268 . S
C372 Ho361 2.811 . S
C372 C373 1.488 . S
C372 O388 1.215 . S
C372 O389 1.289 . S
C373 C372 1.488 . S
C373 C374 1.348 . S
C373 C378 1.413 . S
C374 C373 1.348 . S
C374 C375 1.442 . S
C374 H396 0.930 . S
C375 C374 1.442 . S
C375 C376 1.381 . S
C375 H397 0.931 . S
C376 C375 1.381 . S
C376 C377 1.321 . S
C377 C376 1.321 . S
C377 C378 1.403 . S
C377 H398 0.934 . S
C378 C373 1.413 . S
C378 C377 1.403 . S
C378 H399 0.930 . S
C379 O390 1.275 . S
C379 O391 1.256 . S
O380 Ho360 2.322 . S
O380 C362 1.259 . S
O381 Ho361 2.346 . S
O381 C362 1.268 . S
O382 Ho360 2.378 . S
O382 C363 1.215 . S
O383 Ho360 2.524 1_565 S
O383 C363 1.289 1_565 S
O384 Ho360 2.381 . S
O384 C370 1.275 . S
O385 Ho360 2.669 . S
O385 Ho361 2.305 . S
O385 C370 1.256 . S
O386 Ho361 2.322 . S
O386 C371 1.259 . S
O387 Ho360 2.346 . S
O387 C371 1.268 . S
O388 Ho361 2.378 . S
O388 C372 1.215 . S
O389 Ho361 2.524 . S
O389 C372 1.289 . S
O390 Ho361 2.381 . S
O390 C379 1.275 . S
O391 Ho360 2.305 . S
O391 Ho361 2.669 . S
O391 C379 1.256 . S
H392 C365 0.930 . S
H393 C366 0.943 . S
H394 C368 0.934 . S
H395 C369 0.930 . S
H396 C374 0.930 . S
H397 C375 0.931 . S
H398 C377 0.934 . S
H399 C378 0.930 . S
Ho400 C403 2.811 . S
Ho400 O420 2.322 . S
Ho400 O422 2.378 . S
Ho400 O423 2.524 . S
Ho400 O424 2.381 . S
Ho400 O425 2.669 . S
Ho400 O427 2.346 . S
Ho400 O431 2.305 . S
Ho401 C412 2.811 . S
Ho401 O421 2.346 . S
Ho401 O425 2.305 . S
Ho401 O426 2.322 . S
Ho401 O428 2.378 . S
Ho401 O429 2.524 . S
Ho401 O430 2.381 . S
Ho401 O431 2.669 . S
C402 O420 1.259 . S
C402 O421 1.268 . S
C403 Ho400 2.811 . S
C403 C404 1.488 . S
C403 O422 1.215 . S
C403 O423 1.289 . S
C404 C403 1.488 . S
C404 C405 1.348 . S
C404 C409 1.413 . S
C405 C404 1.348 . S
C405 C406 1.442 . S
C405 H432 0.930 . S
C406 C405 1.442 . S
C406 C407 1.381 . S
C406 H433 0.931 . S
C407 C406 1.381 . S
C407 C408 1.321 . S
C408 C407 1.321 . S
C408 C409 1.403 . S
C408 H434 0.934 . S
C409 C404 1.413 . S
C409 C408 1.403 . S
C409 H435 0.930 . S
C410 O424 1.275 . S
C410 O425 1.256 . S
C411 O426 1.259 . S
C411 O427 1.268 . S
C412 Ho401 2.811 . S
C412 C413 1.488 . S
C412 O428 1.215 . S
C412 O429 1.289 . S
C413 C412 1.488 . S
C413 C414 1.348 . S
C413 C418 1.413 . S
C414 C413 1.348 . S
C414 C415 1.442 . S
C414 H436 0.930 . S
C415 C414 1.442 . S
C415 C416 1.381 . S
C415 H437 0.931 . S
C416 C415 1.381 . S
C416 C417 1.321 . S
C417 C416 1.321 . S
C417 C418 1.403 . S
C417 H438 0.934 . S
C418 C413 1.413 . S
C418 C417 1.403 . S
C418 H439 0.930 . S
C419 O430 1.275 . S
C419 O431 1.256 . S
O420 Ho400 2.322 . S
O420 C402 1.259 . S
O421 Ho401 2.346 . S
O421 C402 1.268 . S
O422 Ho400 2.378 . S
O422 C403 1.215 . S
O423 Ho400 2.524 . S
O423 C403 1.289 . S
O424 Ho400 2.381 . S
O424 C410 1.275 . S
O425 Ho400 2.669 . S
O425 Ho401 2.305 . S
O425 C410 1.256 . S
O426 Ho401 2.322 . S
O426 C411 1.259 . S
O427 Ho400 2.346 . S
O427 C411 1.268 . S
O428 Ho401 2.378 . S
O428 C412 1.215 . S
O429 Ho401 2.524 . S
O429 C412 1.289 . S
O430 Ho401 2.381 . S
O430 C419 1.275 . S
O431 Ho400 2.305 . S
O431 Ho401 2.669 . S
O431 C419 1.256 . S
H432 C405 0.930 . S
H433 C406 0.931 . S
H434 C408 0.934 . S
H435 C409 0.930 . S
H436 C414 0.930 . S
H437 C415 0.931 . S
H438 C417 0.934 . S
H439 C418 0.930 . S
Ho440 C443 2.811 . S
Ho440 O460 2.322 . S
Ho440 O462 2.378 . S
Ho440 O463 2.524 1_565 S
Ho440 O464 2.381 . S
Ho440 O465 2.669 . S
Ho440 O467 2.346 . S
Ho440 O471 2.305 . S
Ho441 C452 2.811 . S
Ho441 O461 2.346 . S
Ho441 O465 2.305 . S
Ho441 O466 2.322 . S
Ho441 O468 2.378 . S
Ho441 O469 2.524 . S
Ho441 O470 2.381 . S
Ho441 O471 2.669 . S
C442 O460 1.259 . S
C442 O461 1.268 . S
C443 Ho440 2.811 . S
C443 C444 1.488 1_565 S
C443 O462 1.215 . S
C443 O463 1.289 1_565 S
C444 C443 1.488 1_545 S
C444 C445 1.348 . S
C444 C449 1.413 1_545 S
C445 C444 1.348 . S
C445 C446 1.442 . S
C445 H472 0.930 . S
C446 C445 1.442 . S
C446 C447 1.381 . S
C446 H473 0.931 . S
C447 C446 1.381 . S
C447 C448 1.321 . S
C448 C447 1.321 . S
C448 C449 1.403 1_545 S
C448 H474 0.934 . S
C449 C444 1.413 1_565 S
C449 C448 1.403 1_565 S
C449 H475 0.930 . S
C450 O464 1.275 . S
C450 O465 1.256 . S
C451 O466 1.259 . S
C451 O467 1.268 . S
C452 Ho441 2.811 . S
C452 C453 1.488 . S
C452 O468 1.215 . S
C452 O469 1.289 . S
C453 C452 1.488 . S
C453 C454 1.348 . S
C453 C458 1.413 . S
C454 C453 1.348 . S
C454 C455 1.442 . S
C454 H476 0.930 . S
C455 C454 1.442 . S
C455 C456 1.381 . S
C455 H477 0.931 . S
C456 C455 1.381 . S
C456 C457 1.321 . S
C457 C456 1.321 . S
C457 C458 1.403 . S
C457 H478 0.934 . S
C458 C453 1.413 . S
C458 C457 1.403 . S
C458 H479 0.930 . S
C459 O470 1.275 . S
C459 O471 1.256 . S
O460 Ho440 2.322 . S
O460 C442 1.259 . S
O461 Ho441 2.346 . S
O461 C442 1.268 . S
O462 Ho440 2.378 . S
O462 C443 1.215 . S
O463 Ho440 2.524 1_545 S
O463 C443 1.289 1_545 S
O464 Ho440 2.381 . S
O464 C450 1.275 . S
O465 Ho440 2.669 . S
O465 Ho441 2.305 . S
O465 C450 1.256 . S
O466 Ho441 2.322 . S
O466 C451 1.259 . S
O467 Ho440 2.346 . S
O467 C451 1.268 . S
O468 Ho441 2.378 . S
O468 C452 1.215 . S
O469 Ho441 2.524 . S
O469 C452 1.289 . S
O470 Ho441 2.381 . S
O470 C459 1.275 . S
O471 Ho440 2.305 . S
O471 Ho441 2.669 . S
O471 C459 1.256 . S
H472 C445 0.930 . S
H473 C446 0.931 . S
H474 C448 0.934 . S
H475 C449 0.930 . S
H476 C454 0.930 . S
H477 C455 0.931 . S
H478 C457 0.934 . S
H479 C458 0.930 . S
Ho480 C483 2.811 . S
Ho480 O500 2.322 . S
Ho480 O502 2.378 . S
Ho480 O503 2.524 . S
Ho480 O504 2.381 . S
Ho480 O505 2.669 . S
Ho480 O507 2.346 . S
Ho480 O511 2.305 . S
Ho481 C492 2.811 . S
Ho481 O501 2.346 . S
Ho481 O505 2.305 . S
Ho481 O506 2.322 . S
Ho481 O508 2.378 . S
Ho481 O509 2.524 . S
Ho481 O510 2.381 . S
Ho481 O511 2.669 . S
C482 O500 1.259 . S
C482 O501 1.268 . S
C483 Ho480 2.811 . S
C483 C484 1.488 . S
C483 O502 1.215 . S
C483 O503 1.289 . S
C484 C483 1.488 . S
C484 C485 1.348 . S
C484 C489 1.413 . S
C485 C484 1.348 . S
C485 C486 1.442 . S
C485 H512 0.930 . S
C486 C485 1.442 . S
C486 C487 1.381 . S
C486 H513 0.931 . S
C487 C486 1.381 . S
C487 C488 1.321 . S
C488 C487 1.321 . S
C488 C489 1.403 . S
C488 H514 0.934 . S
C489 C484 1.413 . S
C489 C488 1.403 . S
C489 H515 0.930 . S
C490 O504 1.275 . S
C490 O505 1.256 . S
C491 O506 1.259 . S
C491 O507 1.268 . S
C492 Ho481 2.811 . S
C492 C493 1.488 . S
C492 O508 1.215 . S
C492 O509 1.289 . S
C493 C492 1.488 . S
C493 C494 1.348 . S
C493 C498 1.413 . S
C494 C493 1.348 . S
C494 C495 1.442 . S
C494 H516 0.930 . S
C495 C494 1.442 . S
C495 C496 1.381 . S
C495 H517 0.931 . S
C496 C495 1.381 . S
C496 C497 1.321 . S
C497 C496 1.321 . S
C497 C498 1.403 . S
C497 H518 0.934 . S
C498 C493 1.413 . S
C498 C497 1.403 . S
C498 H519 0.930 . S
C499 O510 1.275 . S
C499 O511 1.256 . S
O500 Ho480 2.322 . S
O500 C482 1.259 . S
O501 Ho481 2.346 . S
O501 C482 1.268 . S
O502 Ho480 2.378 . S
O502 C483 1.215 . S
O503 Ho480 2.524 . S
O503 C483 1.289 . S
O504 Ho480 2.381 . S
O504 C490 1.275 . S
O505 Ho480 2.669 . S
O505 Ho481 2.305 . S
O505 C490 1.256 . S
O506 Ho481 2.322 . S
O506 C491 1.259 . S
O507 Ho480 2.346 . S
O507 C491 1.268 . S
O508 Ho481 2.378 . S
O508 C492 1.215 . S
O509 Ho481 2.524 . S
O509 C492 1.289 . S
O510 Ho481 2.381 . S
O510 C499 1.275 . S
O511 Ho480 2.305 . S
O511 Ho481 2.669 . S
O511 C499 1.256 . S
H512 C485 0.930 . S
H513 C486 0.931 . S
H514 C488 0.934 . S
H515 C489 0.930 . S
H516 C494 0.930 . S
H517 C495 0.931 . S
H518 C497 0.934 . S
H519 C498 0.930 . S
Ho520 C523 2.811 . S
Ho520 O540 2.322 . S
Ho520 O542 2.378 . S
Ho520 O543 2.524 . S
Ho520 O544 2.381 . S
Ho520 O545 2.669 . S
Ho520 O547 2.346 . S
Ho520 O551 2.305 . S
Ho521 C532 2.811 . S
Ho521 O541 2.346 . S
Ho521 O545 2.305 . S
Ho521 O546 2.322 . S
Ho521 O548 2.378 . S
Ho521 O549 2.524 1_565 S
Ho521 O550 2.381 . S
Ho521 O551 2.669 . S
C522 O540 1.259 . S
C522 O541 1.268 . S
C523 Ho520 2.811 . S
C523 C524 1.488 . S
C523 O542 1.215 . S
C523 O543 1.289 . S
C524 C523 1.488 . S
C524 C525 1.348 . S
C524 C529 1.413 . S
C525 C524 1.348 . S
C525 C526 1.442 . S
C525 H552 0.930 . S
C526 C525 1.442 . S
C526 C527 1.381 . S
C526 H553 0.931 . S
C527 C526 1.381 . S
C527 C528 1.321 . S
C528 C527 1.321 . S
C528 C529 1.403 . S
C528 H554 0.934 . S
C529 C524 1.413 . S
C529 C528 1.403 . S
C529 H555 0.930 . S
C530 O544 1.275 . S
C530 O545 1.256 . S
C531 O546 1.259 . S
C531 O547 1.268 . S
C532 Ho521 2.811 . S
C532 C533 1.473 1_665 S
C532 O548 1.215 . S
C532 O549 1.289 1_565 S
C533 C532 1.473 1_445 S
C533 C534 1.338 1_455 S
C533 C538 1.439 1_545 S
C534 C533 1.338 1_655 S
C534 C535 1.442 1_655 S
C534 H556 0.930 . S
C535 C534 1.442 1_455 S
C535 C536 1.381 . S
C535 H557 0.943 . S
C536 C535 1.381 . S
C536 C537 1.321 . S
C537 C536 1.321 . S
C537 C538 1.403 1_545 S
C537 H558 0.934 . S
C538 C533 1.439 1_565 S
C538 C537 1.403 1_565 S
C538 H559 0.930 . S
C539 O550 1.275 . S
C539 O551 1.256 . S
O540 Ho520 2.322 . S
O540 C522 1.259 . S
O541 Ho521 2.346 . S
O541 C522 1.268 . S
O542 Ho520 2.378 . S
O542 C523 1.215 . S
O543 Ho520 2.524 . S
O543 C523 1.289 . S
O544 Ho520 2.381 . S
O544 C530 1.275 . S
O545 Ho520 2.669 . S
O545 Ho521 2.305 . S
O545 C530 1.256 . S
O546 Ho521 2.322 . S
O546 C531 1.259 . S
O547 Ho520 2.346 . S
O547 C531 1.268 . S
O548 Ho521 2.378 . S
O548 C532 1.215 . S
O549 Ho521 2.524 1_545 S
O549 C532 1.289 1_545 S
O550 Ho521 2.381 . S
O550 C539 1.275 . S
O551 Ho520 2.305 . S
O551 Ho521 2.669 . S
O551 C539 1.256 . S
H552 C525 0.930 . S
H553 C526 0.931 . S
H554 C528 0.934 . S
H555 C529 0.930 . S
H556 C534 0.930 . S
H557 C535 0.943 . S
H558 C537 0.934 . S
H559 C538 0.930 . S
Ho560 C563 2.811 . S
Ho560 O580 2.322 . S
Ho560 O582 2.378 . S
Ho560 O583 2.524 . S
Ho560 O584 2.381 . S
Ho560 O585 2.669 . S
Ho560 O587 2.346 . S
Ho560 O591 2.305 . S
Ho561 C572 2.811 . S
Ho561 O581 2.346 . S
Ho561 O585 2.305 . S
Ho561 O586 2.322 . S
Ho561 O588 2.378 . S
Ho561 O589 2.524 . S
Ho561 O590 2.381 . S
Ho561 O591 2.669 . S
C562 O580 1.259 . S
C562 O581 1.268 . S
C563 Ho560 2.811 . S
C563 C564 1.488 . S
C563 O582 1.215 . S
C563 O583 1.289 . S
C564 C563 1.488 . S
C564 C565 1.348 . S
C564 C569 1.413 . S
C565 C564 1.348 . S
C565 C566 1.442 . S
C565 H592 0.930 . S
C566 C565 1.442 . S
C566 C567 1.381 . S
C566 H593 0.931 . S
C567 C566 1.381 . S
C567 C568 1.321 . S
C568 C567 1.321 . S
C568 C569 1.403 . S
C568 H594 0.934 . S
C569 C564 1.413 . S
C569 C568 1.403 . S
C569 H595 0.930 . S
C570 O584 1.275 . S
C570 O585 1.256 . S
C571 O586 1.259 . S
C571 O587 1.268 . S
C572 Ho561 2.811 . S
C572 C573 1.488 . S
C572 O588 1.215 . S
C572 O589 1.289 . S
C573 C572 1.488 . S
C573 C574 1.348 . S
C573 C578 1.413 . S
C574 C573 1.348 . S
C574 C575 1.442 . S
C574 H596 0.930 . S
C575 C574 1.442 . S
C575 C576 1.381 . S
C575 H597 0.931 . S
C576 C575 1.381 . S
C576 C577 1.321 . S
C577 C576 1.321 . S
C577 C578 1.403 . S
C577 H598 0.934 . S
C578 C573 1.413 . S
C578 C577 1.403 . S
C578 H599 0.930 . S
C579 O590 1.275 . S
C579 O591 1.256 . S
O580 Ho560 2.322 . S
O580 C562 1.259 . S
O581 Ho561 2.346 . S
O581 C562 1.268 . S
O582 Ho560 2.378 . S
O582 C563 1.215 . S
O583 Ho560 2.524 . S
O583 C563 1.289 . S
O584 Ho560 2.381 . S
O584 C570 1.275 . S
O585 Ho560 2.669 . S
O585 Ho561 2.305 . S
O585 C570 1.256 . S
O586 Ho561 2.322 . S
O586 C571 1.259 . S
O587 Ho560 2.346 . S
O587 C571 1.268 . S
O588 Ho561 2.378 . S
O588 C572 1.215 . S
O589 Ho561 2.524 . S
O589 C572 1.289 . S
O590 Ho561 2.381 . S
O590 C579 1.275 . S
O591 Ho560 2.305 . S
O591 Ho561 2.669 . S
O591 C579 1.256 . S
H592 C565 0.930 . S
H593 C566 0.931 . S
H594 C568 0.934 . S
H595 C569 0.930 . S
H596 C574 0.930 . S
H597 C575 0.931 . S
H598 C577 0.934 . S
H599 C578 0.930 . S
Ho600 C603 2.811 . S
Ho600 O620 2.322 . S
Ho600 O622 2.378 . S
Ho600 O623 2.524 . S
Ho600 O624 2.381 . S
Ho600 O625 2.669 . S
Ho600 O627 2.346 . S
Ho600 O631 2.305 . S
Ho601 C612 2.811 . S
Ho601 O621 2.346 . S
Ho601 O625 2.305 . S
Ho601 O626 2.322 . S
Ho601 O628 2.378 . S
Ho601 O629 2.524 1_545 S
Ho601 O630 2.381 . S
Ho601 O631 2.669 . S
C602 O620 1.259 . S
C602 O621 1.268 . S
C603 Ho600 2.811 . S
C603 C604 1.488 . S
C603 O622 1.215 . S
C603 O623 1.289 . S
C604 C603 1.488 . S
C604 C605 1.348 . S
C604 C609 1.413 . S
C605 C604 1.348 . S
C605 C606 1.442 . S
C605 H632 0.930 . S
C606 C605 1.442 . S
C606 C607 1.381 . S
C606 H633 0.931 . S
C607 C606 1.381 . S
C607 C608 1.321 . S
C608 C607 1.321 . S
C608 C609 1.403 . S
C608 H634 0.934 . S
C609 C604 1.413 . S
C609 C608 1.403 . S
C609 H635 0.930 . S
C610 O624 1.275 . S
C610 O625 1.256 . S
C611 O626 1.259 . S
C611 O627 1.268 . S
C612 Ho601 2.811 . S
C612 C613 1.488 1_545 S
C612 O628 1.215 . S
C612 O629 1.289 1_545 S
C613 C612 1.488 1_565 S
C613 C614 1.348 . S
C613 C618 1.413 1_565 S
C614 C613 1.348 . S
C614 C615 1.442 . S
C614 H636 0.930 . S
C615 C614 1.442 . S
C615 C616 1.381 . S
C615 H637 0.931 . S
C616 C615 1.381 . S
C616 C617 1.321 . S
C617 C616 1.321 . S
C617 C618 1.403 1_565 S
C617 H638 0.934 . S
C618 C613 1.413 1_545 S
C618 C617 1.403 1_545 S
C618 H639 0.930 . S
C619 O630 1.275 . S
C619 O631 1.256 . S
O620 Ho600 2.322 . S
O620 C602 1.259 . S
O621 Ho601 2.346 . S
O621 C602 1.268 . S
O622 Ho600 2.378 . S
O622 C603 1.215 . S
O623 Ho600 2.524 . S
O623 C603 1.289 . S
O624 Ho600 2.381 . S
O624 C610 1.275 . S
O625 Ho600 2.669 . S
O625 Ho601 2.305 . S
O625 C610 1.256 . S
O626 Ho601 2.322 . S
O626 C611 1.259 . S
O627 Ho600 2.346 . S
O627 C611 1.268 . S
O628 Ho601 2.378 . S
O628 C612 1.215 . S
O629 Ho601 2.524 1_565 S
O629 C612 1.289 1_565 S
O630 Ho601 2.381 . S
O630 C619 1.275 . S
O631 Ho600 2.305 . S
O631 Ho601 2.669 . S
O631 C619 1.256 . S
H632 C605 0.930 . S
H633 C606 0.931 . S
H634 C608 0.934 . S
H635 C609 0.930 . S
H636 C614 0.930 . S
H637 C615 0.931 . S
H638 C617 0.934 . S
H639 C618 0.930 . S
H640 C652 0.930 . S
H641 C654 0.930 . S
H642 C655 0.930 . S
H643 C659 0.959 . S
H644 C659 0.959 . S
H645 C659 0.961 . S
H646 C660 0.960 . S
H647 C660 0.961 . S
H648 C660 0.959 . S
H649 C663 0.929 . S
H650 C664 0.931 . S
H651 C666 0.930 . S
C652 H640 0.930 . S
C652 C653 1.399 . S
C652 C657 1.399 . S
C653 C652 1.399 . S
C653 C654 1.376 . S
C654 H641 0.930 . S
C654 C653 1.376 . S
C654 C655 1.388 . S
C655 H642 0.930 . S
C655 C654 1.388 . S
C655 C656 1.390 . S
C656 C655 1.390 . S
C656 C657 1.394 . S
C656 C662 1.465 . S
C657 C652 1.399 . S
C657 C656 1.394 . S
C657 C658 1.516 . S
C658 C657 1.516 . S
C658 C659 1.502 . S
C658 C660 1.561 . S
C658 C661 1.526 . S
C659 H643 0.959 . S
C659 H644 0.959 . S
C659 H645 0.961 . S
C659 C658 1.502 . S
C660 H646 0.960 . S
C660 H647 0.961 . S
C660 H648 0.959 . S
C660 C658 1.561 . S
C661 C658 1.526 . S
C661 C662 1.396 . S
C661 C666 1.390 . S
C662 C656 1.465 . S
C662 C661 1.396 . S
C662 C663 1.399 . S
C663 H649 0.929 . S
C663 C662 1.399 . S
C663 C664 1.385 . S
C664 H650 0.931 . S
C664 C663 1.385 . S
C664 C665 1.389 . S
C665 C664 1.389 . S
C665 C666 1.387 . S
C666 H651 0.930 . S
C666 C661 1.390 . S
C666 C665 1.387 . S
H667 C679 0.930 . S
H668 C681 0.930 . S
H669 C682 0.930 . S
H670 C686 0.959 . S
H671 C686 0.959 . S
H672 C686 0.961 . S
H673 C687 0.960 . S
H674 C687 0.961 . S
H675 C687 0.959 . S
H676 C690 0.929 . S
H677 C691 0.931 . S
H678 C693 0.930 . S
C679 H667 0.930 . S
C679 C680 1.399 . S
C679 C684 1.399 . S
C680 C679 1.399 . S
C680 C681 1.376 . S
C681 H668 0.930 . S
C681 C680 1.376 . S
C681 C682 1.388 . S
C682 H669 0.930 . S
C682 C681 1.388 . S
C682 C683 1.390 . S
C683 C682 1.390 . S
C683 C684 1.394 . S
C683 C689 1.465 . S
C684 C679 1.399 . S
C684 C683 1.394 . S
C684 C685 1.516 . S
C685 C684 1.516 . S
C685 C686 1.502 . S
C685 C687 1.561 . S
C685 C688 1.526 . S
C686 H670 0.959 . S
C686 H671 0.959 . S
C686 H672 0.961 . S
C686 C685 1.502 . S
C687 H673 0.960 . S
C687 H674 0.961 . S
C687 H675 0.959 . S
C687 C685 1.561 . S
C688 C685 1.526 . S
C688 C689 1.396 . S
C688 C693 1.390 . S
C689 C683 1.465 . S
C689 C688 1.396 . S
C689 C690 1.399 . S
C690 H676 0.929 . S
C690 C689 1.399 . S
C690 C691 1.385 . S
C691 H677 0.931 . S
C691 C690 1.385 . S
C691 C692 1.389 . S
C692 C691 1.389 . S
C692 C693 1.387 . S
C693 H678 0.930 . S
C693 C688 1.390 . S
C693 C692 1.387 . S
H694 C706 0.930 . S
H695 C708 0.930 . S
H696 C709 0.930 . S
H697 C713 0.959 . S
H698 C713 0.959 . S
H699 C713 0.961 . S
H700 C714 0.960 1_455 S
H701 C714 0.961 . S
H702 C714 0.959 . S
H703 C717 0.929 . S
H704 C718 0.931 . S
H705 C720 0.930 . S
C706 H694 0.930 . S
C706 C707 1.399 . S
C706 C711 1.399 . S
C707 C706 1.399 . S
C707 C708 1.376 . S
C708 H695 0.930 . S
C708 C707 1.376 . S
C708 C709 1.388 . S
C709 H696 0.930 . S
C709 C708 1.388 . S
C709 C710 1.390 . S
C710 C709 1.390 . S
C710 C711 1.394 . S
C710 C716 1.465 1_455 S
C711 C706 1.399 . S
C711 C710 1.394 . S
C711 C712 1.516 . S
C712 C711 1.516 . S
C712 C713 1.502 . S
C712 C714 1.561 1_455 S
C712 C715 1.526 1_455 S
C713 H697 0.959 . S
C713 H698 0.959 . S
C713 H699 0.961 . S
C713 C712 1.502 . S
C714 H700 0.960 1_655 S
C714 H701 0.961 . S
C714 H702 0.959 . S
C714 C712 1.561 1_655 S
C715 C712 1.526 1_655 S
C715 C716 1.396 . S
C715 C720 1.390 . S
C716 C710 1.465 1_655 S
C716 C715 1.396 . S
C716 C717 1.399 . S
C717 H703 0.929 . S
C717 C716 1.399 . S
C717 C718 1.385 . S
C718 H704 0.931 . S
C718 C717 1.385 . S
C718 C719 1.389 . S
C719 C718 1.389 . S
C719 C720 1.387 . S
C720 H705 0.930 . S
C720 C715 1.390 . S
C720 C719 1.387 . S
H721 C733 0.930 . S
H722 C735 0.930 . S
H723 C736 0.930 . S
H724 C740 0.975 . S
H725 C740 0.948 1_655 S
H726 C740 0.965 . S
H727 C741 0.960 . S
H728 C741 0.961 . S
H729 C741 0.959 . S
H730 C744 0.932 . S
H731 C745 0.931 . S
H732 C747 0.930 . S
C733 H721 0.930 . S
C733 C734 1.399 . S
C733 C738 1.399 . S
C734 C733 1.399 . S
C734 C735 1.376 . S
C735 H722 0.930 . S
C735 C734 1.376 . S
C735 C736 1.388 . S
C736 H723 0.930 . S
C736 C735 1.388 . S
C736 C737 1.390 . S
C737 C736 1.390 . S
C737 C738 1.394 . S
C737 C743 1.465 1_455 S
C738 C733 1.399 . S
C738 C737 1.394 . S
C738 C739 1.516 1_455 S
C739 C738 1.516 1_655 S
C739 C740 1.494 1_655 S
C739 C741 1.561 . S
C739 C742 1.526 . S
C740 H724 0.975 . S
C740 H725 0.948 1_455 S
C740 H726 0.965 . S
C740 C739 1.494 1_455 S
C741 H727 0.960 . S
C741 H728 0.961 . S
C741 H729 0.959 . S
C741 C739 1.561 . S
C742 C739 1.526 . S
C742 C743 1.396 . S
C742 C747 1.390 . S
C743 C737 1.465 1_655 S
C743 C742 1.396 . S
C743 C744 1.399 . S
C744 H730 0.932 . S
C744 C743 1.399 . S
C744 C745 1.385 . S
C745 H731 0.931 . S
C745 C744 1.385 . S
C745 C746 1.389 . S
C746 C745 1.389 . S
C746 C747 1.387 . S
C747 H732 0.930 . S
C747 C742 1.390 . S
C747 C746 1.387 . S
H748 C760 0.930 . S
H749 C762 0.930 . S
H750 C763 0.930 . S
H751 C767 0.959 . S
H752 C767 0.959 . S
H753 C767 0.961 . S
H754 C768 0.960 . S
H755 C768 0.961 . S
H756 C768 0.959 . S
H757 C771 0.929 . S
H758 C772 0.931 . S
H759 C774 0.930 . S
C760 H748 0.930 . S
C760 C761 1.399 . S
C760 C765 1.399 . S
C761 C760 1.399 . S
C761 C762 1.376 . S
C762 H749 0.930 . S
C762 C761 1.376 . S
C762 C763 1.388 . S
C763 H750 0.930 . S
C763 C762 1.388 . S
C763 C764 1.390 . S
C764 C763 1.390 . S
C764 C765 1.394 . S
C764 C770 1.465 . S
C765 C760 1.399 . S
C765 C764 1.394 . S
C765 C766 1.516 . S
C766 C765 1.516 . S
C766 C767 1.502 . S
C766 C768 1.561 . S
C766 C769 1.526 . S
C767 H751 0.959 . S
C767 H752 0.959 . S
C767 H753 0.961 . S
C767 C766 1.502 . S
C768 H754 0.960 . S
C768 H755 0.961 . S
C768 H756 0.959 . S
C768 C766 1.561 . S
C769 C766 1.526 . S
C769 C770 1.396 . S
C769 C774 1.390 . S
C770 C764 1.465 . S
C770 C769 1.396 . S
C770 C771 1.399 . S
C771 H757 0.929 . S
C771 C770 1.399 . S
C771 C772 1.385 . S
C772 H758 0.931 . S
C772 C771 1.385 . S
C772 C773 1.389 . S
C773 C772 1.389 . S
C773 C774 1.387 . S
C774 H759 0.930 . S
C774 C769 1.390 . S
C774 C773 1.387 . S
H775 C787 0.930 . S
H776 C789 0.930 . S
H777 C790 0.930 . S
H778 C794 0.959 . S
H779 C794 0.959 . S
H780 C794 0.961 . S
H781 C795 0.960 . S
H782 C795 0.961 . S
H783 C795 0.959 . S
H784 C798 0.929 . S
H785 C799 0.931 . S
H786 C801 0.930 . S
C787 H775 0.930 . S
C787 C788 1.399 . S
C787 C792 1.399 . S
C788 C787 1.399 . S
C788 C789 1.376 . S
C789 H776 0.930 . S
C789 C788 1.376 . S
C789 C790 1.388 . S
C790 H777 0.930 . S
C790 C789 1.388 . S
C790 C791 1.390 . S
C791 C790 1.390 . S
C791 C792 1.394 . S
C791 C797 1.465 . S
C792 C787 1.399 . S
C792 C791 1.394 . S
C792 C793 1.516 . S
C793 C792 1.516 . S
C793 C794 1.502 . S
C793 C795 1.561 . S
C793 C796 1.526 . S
C794 H778 0.959 . S
C794 H779 0.959 . S
C794 H780 0.961 . S
C794 C793 1.502 . S
C795 H781 0.960 . S
C795 H782 0.961 . S
C795 H783 0.959 . S
C795 C793 1.561 . S
C796 C793 1.526 . S
C796 C797 1.396 . S
C796 C801 1.390 . S
C797 C791 1.465 . S
C797 C796 1.396 . S
C797 C798 1.399 . S
C798 H784 0.929 . S
C798 C797 1.399 . S
C798 C799 1.385 . S
C799 H785 0.931 . S
C799 C798 1.385 . S
C799 C800 1.389 . S
C800 C799 1.389 . S
C800 C801 1.387 . S
C801 H786 0.930 . S
C801 C796 1.390 . S
C801 C800 1.387 . S
H802 C814 0.930 . S
H803 C816 0.930 . S
H804 C817 0.930 . S
H805 C821 0.959 . S
H806 C821 0.936 1_655 S
H807 C821 0.961 . S
H808 C822 0.960 1_455 S
H809 C822 0.961 . S
H810 C822 0.959 . S
H811 C825 0.929 . S
H812 C826 0.931 . S
H813 C828 0.930 . S
C814 H802 0.930 . S
C814 C815 1.399 . S
C814 C819 1.399 . S
C815 C814 1.399 . S
C815 C816 1.376 . S
C816 H803 0.930 . S
C816 C815 1.376 . S
C816 C817 1.388 . S
C817 H804 0.930 . S
C817 C816 1.388 . S
C817 C818 1.390 . S
C818 C817 1.390 . S
C818 C819 1.394 . S
C818 C824 1.465 1_455 S
C819 C814 1.399 . S
C819 C818 1.394 . S
C819 C820 1.516 . S
C820 C819 1.516 . S
C820 C821 1.502 . S
C820 C822 1.561 1_455 S
C820 C823 1.526 1_455 S
C821 H805 0.959 . S
C821 H806 0.936 1_455 S
C821 H807 0.961 . S
C821 C820 1.502 . S
C822 H808 0.960 1_655 S
C822 H809 0.961 . S
C822 H810 0.959 . S
C822 C820 1.561 1_655 S
C823 C820 1.526 1_655 S
C823 C824 1.396 . S
C823 C828 1.390 . S
C824 C818 1.465 1_655 S
C824 C823 1.396 . S
C824 C825 1.399 . S
C825 H811 0.929 . S
C825 C824 1.399 . S
C825 C826 1.385 . S
C826 H812 0.931 . S
C826 C825 1.385 . S
C826 C827 1.389 . S
C827 C826 1.389 . S
C827 C828 1.387 . S
C828 H813 0.930 . S
C828 C823 1.390 . S
C828 C827 1.387 . S
H829 C841 0.930 . S
H830 C843 0.930 . S
H831 C844 0.930 . S
H832 C848 0.959 . S
H833 C848 0.959 . S
H834 C848 0.961 . S
H835 C849 0.960 1_455 S
H836 C849 0.961 . S
H837 C849 0.959 . S
H838 C852 0.929 . S
H839 C853 0.931 . S
H840 C855 0.930 . S
C841 H829 0.930 . S
C841 C842 1.399 . S
C841 C846 1.399 . S
C842 C841 1.399 . S
C842 C843 1.376 . S
C843 H830 0.930 . S
C843 C842 1.376 . S
C843 C844 1.388 1_455 S
C844 H831 0.930 . S
C844 C843 1.388 1_655 S
C844 C845 1.390 . S
C845 C844 1.390 . S
C845 C846 1.394 1_655 S
C845 C851 1.465 . S
C846 C841 1.399 . S
C846 C845 1.394 1_455 S
C846 C847 1.516 . S
C847 C846 1.516 . S
C847 C848 1.502 . S
C847 C849 1.561 1_455 S
C847 C850 1.526 1_455 S
C848 H832 0.959 . S
C848 H833 0.959 . S
C848 H834 0.961 . S
C848 C847 1.502 . S
C849 H835 0.960 1_655 S
C849 H836 0.961 . S
C849 H837 0.959 . S
C849 C847 1.561 1_655 S
C850 C847 1.526 1_655 S
C850 C851 1.396 . S
C850 C855 1.390 . S
C851 C845 1.465 . S
C851 C850 1.396 . S
C851 C852 1.399 . S
C852 H838 0.929 . S
C852 C851 1.399 . S
C852 C853 1.385 . S
C853 H839 0.931 . S
C853 C852 1.385 . S
C853 C854 1.389 . S
C854 C853 1.389 . S
C854 C855 1.387 . S
C855 H840 0.930 . S
C855 C850 1.390 . S
C855 C854 1.387 . S
H856 C868 0.930 . S
H857 C870 0.930 . S
H858 C871 0.930 . S
H859 C875 0.959 . S
H860 C875 0.959 . S
H861 C875 0.961 . S
H862 C876 0.959 1_545 S
H863 C876 0.956 1_545 S
H864 C876 0.971 . S
H865 C879 0.929 . S
H866 C880 0.931 . S
H867 C882 0.930 . S
C868 H856 0.930 . S
C868 C869 1.399 1_545 S
C868 C873 1.399 . S
C869 C868 1.399 1_565 S
C869 C870 1.376 1_554 S
C870 H857 0.930 . S
C870 C869 1.376 1_556 S
C870 C871 1.388 . S
C871 H858 0.930 . S
C871 C870 1.388 . S
C871 C872 1.390 . S
C872 C871 1.390 . S
C872 C873 1.394 1_566 S
C872 C878 1.465 . S
C873 C868 1.399 . S
C873 C872 1.394 1_544 S
C873 C874 1.516 . S
C874 C873 1.516 . S
C874 C875 1.502 . S
C874 C876 1.555 1_545 S
C874 C877 1.526 . S
C875 H859 0.959 . S
C875 H860 0.959 . S
C875 H861 0.961 . S
C875 C874 1.502 . S
C876 H862 0.959 1_565 S
C876 H863 0.956 1_565 S
C876 H864 0.971 . S
C876 C874 1.555 1_565 S
C877 C874 1.526 . S
C877 C878 1.396 1_544 S
C877 C882 1.390 . S
C878 C872 1.465 . S
C878 C877 1.396 1_566 S
C878 C879 1.399 . S
C879 H865 0.929 . S
C879 C878 1.399 . S
C879 C880 1.385 . S
C880 H866 0.931 . S
C880 C879 1.385 . S
C880 C881 1.389 1_565 S
C881 C880 1.389 1_545 S
C881 C882 1.387 1_556 S
C882 H867 0.930 . S
C882 C877 1.390 . S
C882 C881 1.387 1_554 S
H883 C895 0.930 . S
H884 C897 0.930 . S
H885 C898 0.930 . S
H886 C902 0.959 . S
H887 C902 0.959 . S
H888 C902 0.961 . S
H889 C903 0.960 . S
H890 C903 0.961 . S
H891 C903 0.959 . S
H892 C906 0.929 . S
H893 C907 0.931 . S
H894 C909 0.930 . S
C895 H883 0.930 . S
C895 C896 1.399 . S
C895 C900 1.399 . S
C896 C895 1.399 . S
C896 C897 1.376 . S
C897 H884 0.930 . S
C897 C896 1.376 . S
C897 C898 1.388 . S
C898 H885 0.930 . S
C898 C897 1.388 . S
C898 C899 1.390 . S
C899 C898 1.390 . S
C899 C900 1.394 . S
C899 C905 1.465 . S
C900 C895 1.399 . S
C900 C899 1.394 . S
C900 C901 1.516 . S
C901 C900 1.516 . S
C901 C902 1.502 . S
C901 C903 1.561 . S
C901 C904 1.526 . S
C902 H886 0.959 . S
C902 H887 0.959 . S
C902 H888 0.961 . S
C902 C901 1.502 . S
C903 H889 0.960 . S
C903 H890 0.961 . S
C903 H891 0.959 . S
C903 C901 1.561 . S
C904 C901 1.526 . S
C904 C905 1.396 . S
C904 C909 1.390 . S
C905 C899 1.465 . S
C905 C904 1.396 . S
C905 C906 1.399 . S
C906 H892 0.929 . S
C906 C905 1.399 . S
C906 C907 1.385 . S
C907 H893 0.931 . S
C907 C906 1.385 . S
C907 C908 1.389 . S
C908 C907 1.389 . S
C908 C909 1.387 . S
C909 H894 0.930 . S
C909 C904 1.390 . S
C909 C908 1.387 . S
H910 C922 0.930 . S
H911 C924 0.930 . S
H912 C925 0.930 . S
H913 C929 0.959 . S
H914 C929 0.970 . S
H915 C929 0.961 . S
H916 C930 0.960 . S
H917 C930 0.961 1_655 S
H918 C930 0.959 1_655 S
H919 C933 0.929 . S
H920 C934 0.931 . S
H921 C936 0.930 . S
C922 H910 0.930 . S
C922 C923 1.399 1_565 S
C922 C927 1.399 . S
C923 C922 1.399 1_545 S
C923 C924 1.376 . S
C924 H911 0.930 . S
C924 C923 1.376 . S
C924 C925 1.388 . S
C925 H912 0.930 . S
C925 C924 1.388 . S
C925 C926 1.390 . S
C926 C925 1.390 . S
C926 C927 1.394 1_545 S
C926 C932 1.465 1_455 S
C927 C922 1.399 . S
C927 C926 1.394 1_565 S
C927 C928 1.516 . S
C928 C927 1.516 . S
C928 C929 1.502 . S
C928 C930 1.561 . S
C928 C931 1.526 1_455 S
C929 H913 0.959 . S
C929 H914 0.970 . S
C929 H915 0.961 . S
C929 C928 1.502 . S
C930 H916 0.960 . S
C930 H917 0.961 1_455 S
C930 H918 0.959 1_455 S
C930 C928 1.561 . S
C931 C928 1.526 1_655 S
C931 C932 1.396 1_565 S
C931 C936 1.390 . S
C932 C926 1.465 1_655 S
C932 C931 1.396 1_545 S
C932 C933 1.399 . S
C933 H919 0.929 . S
C933 C932 1.399 . S
C933 C934 1.385 . S
C934 H920 0.931 . S
C934 C933 1.385 . S
C934 C935 1.389 1_545 S
C935 C934 1.389 1_565 S
C935 C936 1.387 . S
C936 H921 0.930 . S
C936 C931 1.390 . S
C936 C935 1.387 . S
H937 C949 0.930 . S
H938 C951 0.930 . S
H939 C952 0.930 . S
H940 C956 0.959 . S
H941 C956 0.959 . S
H942 C956 0.961 . S
H943 C957 0.960 . S
H944 C957 0.961 . S
H945 C957 0.959 . S
H946 C960 0.929 . S
H947 C961 0.931 . S
H948 C963 0.930 . S
C949 H937 0.930 . S
C949 C950 1.399 . S
C949 C954 1.399 . S
C950 C949 1.399 . S
C950 C951 1.376 . S
C951 H938 0.930 . S
C951 C950 1.376 . S
C951 C952 1.388 . S
C952 H939 0.930 . S
C952 C951 1.388 . S
C952 C953 1.390 . S
C953 C952 1.390 . S
C953 C954 1.394 . S
C953 C959 1.465 . S
C954 C949 1.399 . S
C954 C953 1.394 . S
C954 C955 1.516 . S
C955 C954 1.516 . S
C955 C956 1.502 . S
C955 C957 1.561 . S
C955 C958 1.526 . S
C956 H940 0.959 . S
C956 H941 0.959 . S
C956 H942 0.961 . S
C956 C955 1.502 . S
C957 H943 0.960 . S
C957 H944 0.961 . S
C957 H945 0.959 . S
C957 C955 1.561 . S
C958 C955 1.526 . S
C958 C959 1.396 . S
C958 C963 1.390 . S
C959 C953 1.465 . S
C959 C958 1.396 . S
C959 C960 1.399 . S
C960 H946 0.929 . S
C960 C959 1.399 . S
C960 C961 1.385 . S
C961 H947 0.931 . S
C961 C960 1.385 . S
C961 C962 1.389 . S
C962 C961 1.389 . S
C962 C963 1.387 . S
C963 H948 0.930 . S
C963 C958 1.390 . S
C963 C962 1.387 . S
H964 C976 0.930 . S
H965 C978 0.930 . S
H966 C979 0.930 . S
H967 C983 0.959 . S
H968 C983 0.959 . S
H969 C983 0.961 . S
H970 C984 0.960 . S
H971 C984 0.961 . S
H972 C984 0.959 . S
H973 C987 0.929 . S
H974 C988 0.931 . S
H975 C990 0.930 . S
C976 H964 0.930 . S
C976 C977 1.399 . S
C976 C981 1.399 . S
C977 C976 1.399 . S
C977 C978 1.376 . S
C978 H965 0.930 . S
C978 C977 1.376 . S
C978 C979 1.388 . S
C979 H966 0.930 . S
C979 C978 1.388 . S
C979 C980 1.390 . S
C980 C979 1.390 . S
C980 C981 1.394 . S
C980 C986 1.465 . S
C981 C976 1.399 . S
C981 C980 1.394 . S
C981 C982 1.516 . S
C982 C981 1.516 . S
C982 C983 1.502 . S
C982 C984 1.561 . S
C982 C985 1.526 . S
C983 H967 0.959 . S
C983 H968 0.959 . S
C983 H969 0.961 . S
C983 C982 1.502 . S
C984 H970 0.960 . S
C984 H971 0.961 . S
C984 H972 0.959 . S
C984 C982 1.561 . S
C985 C982 1.526 . S
C985 C986 1.396 . S
C985 C990 1.390 . S
C986 C980 1.465 . S
C986 C985 1.396 . S
C986 C987 1.399 . S
C987 H973 0.929 . S
C987 C986 1.399 . S
C987 C988 1.385 . S
C988 H974 0.931 . S
C988 C987 1.385 . S
C988 C989 1.389 . S
C989 C988 1.389 . S
C989 C990 1.387 . S
C990 H975 0.930 . S
C990 C985 1.390 . S
C990 C989 1.387 . S
H991 C1003 0.930 . S
H992 C1005 0.930 . S
H993 C1006 0.930 . S
H994 C1010 0.959 . S
H995 C1010 0.959 . S
H996 C1010 0.961 . S
H997 C1011 0.960 . S
H998 C1011 0.961 . S
H999 C1011 0.959 . S
H1000 C1014 0.929 . S
H1001 C1015 0.931 . S
H1002 C1017 0.930 . S
C1003 H991 0.930 . S
C1003 C1004 1.399 . S
C1003 C1008 1.399 . S
C1004 C1003 1.399 . S
C1004 C1005 1.376 . S
C1005 H992 0.930 . S
C1005 C1004 1.376 . S
C1005 C1006 1.388 . S
C1006 H993 0.930 . S
C1006 C1005 1.388 . S
C1006 C1007 1.390 . S
C1007 C1006 1.390 . S
C1007 C1008 1.394 . S
C1007 C1013 1.465 . S
C1008 C1003 1.399 . S
C1008 C1007 1.394 . S
C1008 C1009 1.516 . S
C1009 C1008 1.516 . S
C1009 C1010 1.502 . S
C1009 C1011 1.561 . S
C1009 C1012 1.526 . S
C1010 H994 0.959 . S
C1010 H995 0.959 . S
C1010 H996 0.961 . S
C1010 C1009 1.502 . S
C1011 H997 0.960 . S
C1011 H998 0.961 . S
C1011 H999 0.959 . S
C1011 C1009 1.561 . S
C1012 C1009 1.526 . S
C1012 C1013 1.396 . S
C1012 C1017 1.390 . S
C1013 C1007 1.465 . S
C1013 C1012 1.396 . S
C1013 C1014 1.399 . S
C1014 H1000 0.929 . S
C1014 C1013 1.399 . S
C1014 C1015 1.385 . S
C1015 H1001 0.931 . S
C1015 C1014 1.385 . S
C1015 C1016 1.389 . S
C1016 C1015 1.389 . S
C1016 C1017 1.387 . S
C1017 H1002 0.930 . S
C1017 C1012 1.390 . S
C1017 C1016 1.387 . S
H1018 C1030 0.930 . S
H1019 C1032 0.930 . S
H1020 C1033 0.930 . S
H1021 C1037 0.959 . S
H1022 C1037 0.959 . S
H1023 C1037 0.961 1_455 S
H1024 C1038 0.960 . S
H1025 C1038 0.961 1_655 S
H1026 C1038 0.959 . S
H1027 C1041 0.929 . S
H1028 C1042 0.931 . S
H1029 C1044 0.930 . S
C1030 H1018 0.930 . S
C1030 C1031 1.399 . S
C1030 C1035 1.399 . S
C1031 C1030 1.399 . S
C1031 C1032 1.376 . S
C1032 H1019 0.930 . S
C1032 C1031 1.376 . S
C1032 C1033 1.388 . S
C1033 H1020 0.930 . S
C1033 C1032 1.388 . S
C1033 C1034 1.390 . S
C1034 C1033 1.390 . S
C1034 C1035 1.394 . S
C1034 C1040 1.465 1_455 S
C1035 C1030 1.399 . S
C1035 C1034 1.394 . S
C1035 C1036 1.532 . S
C1036 C1035 1.532 . S
C1036 C1037 1.498 1_455 S
C1036 C1038 1.566 . S
C1036 C1039 1.510 1_455 S
C1037 H1021 0.959 . S
C1037 H1022 0.959 . S
C1037 H1023 0.961 1_655 S
C1037 C1036 1.498 1_655 S
C1038 H1024 0.960 . S
C1038 H1025 0.961 1_455 S
C1038 H1026 0.959 . S
C1038 C1036 1.566 . S
C1039 C1036 1.510 1_655 S
C1039 C1040 1.396 . S
C1039 C1044 1.390 . S
C1040 C1034 1.465 1_655 S
C1040 C1039 1.396 . S
C1040 C1041 1.399 . S
C1041 H1027 0.929 . S
C1041 C1040 1.399 . S
C1041 C1042 1.385 . S
C1042 H1028 0.931 . S
C1042 C1041 1.385 . S
C1042 C1043 1.389 . S
C1043 C1042 1.389 . S
C1043 C1044 1.387 . S
C1044 H1029 0.930 . S
C1044 C1039 1.390 . S
C1044 C1043 1.387 . S
H1045 C1057 0.930 . S
H1046 C1059 0.930 . S
H1047 C1060 0.936 . S
H1048 C1064 0.959 . S
H1049 C1064 0.959 . S
H1050 C1064 0.961 . S
H1051 C1065 0.960 . S
H1052 C1065 0.961 . S
H1053 C1065 0.959 . S
H1054 C1068 0.929 . S
H1055 C1069 0.931 . S
H1056 C1071 0.930 . S
C1057 H1045 0.930 . S
C1057 C1058 1.399 . S
C1057 C1062 1.399 . S
C1058 C1057 1.399 . S
C1058 C1059 1.376 . S
C1059 H1046 0.930 . S
C1059 C1058 1.376 . S
C1059 C1060 1.381 1_554 S
C1060 H1047 0.936 . S
C1060 C1059 1.381 1_556 S
C1060 C1061 1.391 . S
C1061 C1060 1.391 . S
C1061 C1062 1.394 1_556 S
C1061 C1067 1.465 . S
C1062 C1057 1.399 . S
C1062 C1061 1.394 1_554 S
C1062 C1063 1.519 . S
C1063 C1062 1.519 . S
C1063 C1064 1.519 . S
C1063 C1065 1.544 1_554 S
C1063 C1066 1.522 1_554 S
C1064 H1048 0.959 . S
C1064 H1049 0.959 . S
C1064 H1050 0.961 . S
C1064 C1063 1.519 . S
C1065 H1051 0.960 . S
C1065 H1052 0.961 . S
C1065 H1053 0.959 . S
C1065 C1063 1.544 1_556 S
C1066 C1063 1.522 1_556 S
C1066 C1067 1.396 . S
C1066 C1071 1.390 . S
C1067 C1061 1.465 . S
C1067 C1066 1.396 . S
C1067 C1068 1.399 . S
C1068 H1054 0.929 . S
C1068 C1067 1.399 . S
C1068 C1069 1.385 . S
C1069 H1055 0.931 . S
C1069 C1068 1.385 . S
C1069 C1070 1.389 . S
C1070 C1069 1.389 . S
C1070 C1071 1.387 . S
C1071 H1056 0.930 . S
C1071 C1066 1.390 . S
C1071 C1070 1.387 . S
H1072 C1084 0.930 . S
H1073 C1086 0.930 . S
H1074 C1087 0.930 . S
H1075 C1091 0.959 . S
H1076 C1091 0.959 . S
H1077 C1091 0.961 . S
H1078 C1092 0.960 . S
H1079 C1092 0.961 . S
H1080 C1092 0.959 . S
H1081 C1095 0.929 . S
H1082 C1096 0.931 . S
H1083 C1098 0.930 . S
C1084 H1072 0.930 . S
C1084 C1085 1.399 . S
C1084 C1089 1.399 . S
C1085 C1084 1.399 . S
C1085 C1086 1.376 . S
C1086 H1073 0.930 . S
C1086 C1085 1.376 . S
C1086 C1087 1.388 . S
C1087 H1074 0.930 . S
C1087 C1086 1.388 . S
C1087 C1088 1.390 . S
C1088 C1087 1.390 . S
C1088 C1089 1.394 . S
C1088 C1094 1.465 . S
C1089 C1084 1.399 . S
C1089 C1088 1.394 . S
C1089 C1090 1.516 . S
C1090 C1089 1.516 . S
C1090 C1091 1.502 . S
C1090 C1092 1.561 . S
C1090 C1093 1.526 . S
C1091 H1075 0.959 . S
C1091 H1076 0.959 . S
C1091 H1077 0.961 . S
C1091 C1090 1.502 . S
C1092 H1078 0.960 . S
C1092 H1079 0.961 . S
C1092 H1080 0.959 . S
C1092 C1090 1.561 . S
C1093 C1090 1.526 . S
C1093 C1094 1.396 . S
C1093 C1098 1.390 . S
C1094 C1088 1.465 . S
C1094 C1093 1.396 . S
C1094 C1095 1.399 . S
C1095 H1081 0.929 . S
C1095 C1094 1.399 . S
C1095 C1096 1.385 . S
C1096 H1082 0.931 . S
C1096 C1095 1.385 . S
C1096 C1097 1.389 . S
C1097 C1096 1.389 . S
C1097 C1098 1.387 . S
C1098 H1083 0.930 . S
C1098 C1093 1.390 . S
C1098 C1097 1.387 . S
H1099 C1111 0.930 . S
H1100 C1113 0.930 . S
H1101 C1114 0.930 . S
H1102 C1118 0.959 . S
H1103 C1118 0.959 . S
H1104 C1118 0.961 . S
H1105 C1119 0.960 . S
H1106 C1119 0.961 . S
H1107 C1119 0.959 . S
H1108 C1122 0.929 . S
H1109 C1123 0.931 . S
H1110 C1125 0.930 . S
C1111 H1099 0.930 . S
C1111 C1112 1.399 . S
C1111 C1116 1.399 . S
C1112 C1111 1.399 . S
C1112 C1113 1.376 . S
C1113 H1100 0.930 . S
C1113 C1112 1.376 . S
C1113 C1114 1.388 . S
C1114 H1101 0.930 . S
C1114 C1113 1.388 . S
C1114 C1115 1.390 . S
C1115 C1114 1.390 . S
C1115 C1116 1.394 . S
C1115 C1121 1.465 . S
C1116 C1111 1.399 . S
C1116 C1115 1.394 . S
C1116 C1117 1.516 . S
C1117 C1116 1.516 . S
C1117 C1118 1.502 . S
C1117 C1119 1.561 . S
C1117 C1120 1.526 . S
C1118 H1102 0.959 . S
C1118 H1103 0.959 . S
C1118 H1104 0.961 . S
C1118 C1117 1.502 . S
C1119 H1105 0.960 . S
C1119 H1106 0.961 . S
C1119 H1107 0.959 . S
C1119 C1117 1.561 . S
C1120 C1117 1.526 . S
C1120 C1121 1.396 . S
C1120 C1125 1.390 . S
C1121 C1115 1.465 . S
C1121 C1120 1.396 . S
C1121 C1122 1.399 . S
C1122 H1108 0.929 . S
C1122 C1121 1.399 . S
C1122 C1123 1.385 . S
C1123 H1109 0.931 . S
C1123 C1122 1.385 . S
C1123 C1124 1.389 . S
C1124 C1123 1.389 . S
C1124 C1125 1.387 . S
C1125 H1110 0.930 . S
C1125 C1120 1.390 . S
C1125 C1124 1.387 . S
H1126 C1138 0.930 . S
H1127 C1140 0.930 . S
H1128 C1141 0.930 . S
H1129 C1145 0.959 . S
H1130 C1145 0.959 . S
H1131 C1145 0.961 . S
H1132 C1146 0.960 . S
H1133 C1146 0.961 . S
H1134 C1146 0.959 . S
H1135 C1149 0.929 . S
H1136 C1150 0.931 . S
H1137 C1152 0.930 . S
C1138 H1126 0.930 . S
C1138 C1139 1.399 . S
C1138 C1143 1.399 . S
C1139 C1138 1.399 . S
C1139 C1140 1.376 . S
C1140 H1127 0.930 . S
C1140 C1139 1.376 . S
C1140 C1141 1.388 . S
C1141 H1128 0.930 . S
C1141 C1140 1.388 . S
C1141 C1142 1.390 . S
C1142 C1141 1.390 . S
C1142 C1143 1.394 . S
C1142 C1148 1.465 . S
C1143 C1138 1.399 . S
C1143 C1142 1.394 . S
C1143 C1144 1.516 . S
C1144 C1143 1.516 . S
C1144 C1145 1.502 . S
C1144 C1146 1.561 . S
C1144 C1147 1.526 . S
C1145 H1129 0.959 . S
C1145 H1130 0.959 . S
C1145 H1131 0.961 . S
C1145 C1144 1.502 . S
C1146 H1132 0.960 . S
C1146 H1133 0.961 . S
C1146 H1134 0.959 . S
C1146 C1144 1.561 . S
C1147 C1144 1.526 . S
C1147 C1148 1.396 . S
C1147 C1152 1.390 . S
C1148 C1142 1.465 . S
C1148 C1147 1.396 . S
C1148 C1149 1.399 . S
C1149 H1135 0.929 . S
C1149 C1148 1.399 . S
C1149 C1150 1.385 . S
C1150 H1136 0.931 . S
C1150 C1149 1.385 . S
C1150 C1151 1.389 . S
C1151 C1150 1.389 . S
C1151 C1152 1.387 . S
C1152 H1137 0.930 . S
C1152 C1147 1.390 . S
C1152 C1151 1.387 . S
H1153 C1165 0.930 . S
H1154 C1167 0.930 . S
H1155 C1168 0.930 . S
H1156 C1172 0.959 . S
H1157 C1172 0.959 . S
H1158 C1172 0.961 . S
H1159 C1173 0.960 . S
H1160 C1173 0.961 . S
H1161 C1173 0.959 . S
H1162 C1176 0.929 . S
H1163 C1177 0.931 . S
H1164 C1179 0.930 . S
C1165 H1153 0.930 . S
C1165 C1166 1.399 . S
C1165 C1170 1.399 . S
C1166 C1165 1.399 . S
C1166 C1167 1.376 . S
C1167 H1154 0.930 . S
C1167 C1166 1.376 . S
C1167 C1168 1.388 . S
C1168 H1155 0.930 . S
C1168 C1167 1.388 . S
C1168 C1169 1.390 . S
C1169 C1168 1.390 . S
C1169 C1170 1.394 . S
C1169 C1175 1.465 . S
C1170 C1165 1.399 . S
C1170 C1169 1.394 . S
C1170 C1171 1.516 . S
C1171 C1170 1.516 . S
C1171 C1172 1.502 . S
C1171 C1173 1.561 . S
C1171 C1174 1.526 . S
C1172 H1156 0.959 . S
C1172 H1157 0.959 . S
C1172 H1158 0.961 . S
C1172 C1171 1.502 . S
C1173 H1159 0.960 . S
C1173 H1160 0.961 . S
C1173 H1161 0.959 . S
C1173 C1171 1.561 . S
C1174 C1171 1.526 . S
C1174 C1175 1.396 . S
C1174 C1179 1.390 . S
C1175 C1169 1.465 . S
C1175 C1174 1.396 . S
C1175 C1176 1.399 . S
C1176 H1162 0.929 . S
C1176 C1175 1.399 . S
C1176 C1177 1.385 . S
C1177 H1163 0.931 . S
C1177 C1176 1.385 . S
C1177 C1178 1.389 . S
C1178 C1177 1.389 . S
C1178 C1179 1.387 . S
C1179 H1164 0.930 . S
C1179 C1174 1.390 . S
C1179 C1178 1.387 . S
H1180 C1192 0.930 . S
H1181 C1194 0.930 . S
H1182 C1195 0.930 . S
H1183 C1199 0.959 . S
H1184 C1199 0.959 . S
H1185 C1199 0.961 . S
H1186 C1200 0.960 . S
H1187 C1200 0.961 . S
H1188 C1200 0.959 . S
H1189 C1203 0.929 . S
H1190 C1204 0.931 . S
H1191 C1206 0.930 . S
C1192 H1180 0.930 . S
C1192 C1193 1.399 . S
C1192 C1197 1.399 . S
C1193 C1192 1.399 . S
C1193 C1194 1.376 . S
C1194 H1181 0.930 . S
C1194 C1193 1.376 . S
C1194 C1195 1.388 . S
C1195 H1182 0.930 . S
C1195 C1194 1.388 . S
C1195 C1196 1.390 . S
C1196 C1195 1.390 . S
C1196 C1197 1.394 . S
C1196 C1202 1.465 . S
C1197 C1192 1.399 . S
C1197 C1196 1.394 . S
C1197 C1198 1.516 . S
C1198 C1197 1.516 . S
C1198 C1199 1.502 . S
C1198 C1200 1.561 . S
C1198 C1201 1.526 . S
C1199 H1183 0.959 . S
C1199 H1184 0.959 . S
C1199 H1185 0.961 . S
C1199 C1198 1.502 . S
C1200 H1186 0.960 . S
C1200 H1187 0.961 . S
C1200 H1188 0.959 . S
C1200 C1198 1.561 . S
C1201 C1198 1.526 . S
C1201 C1202 1.396 . S
C1201 C1206 1.390 . S
C1202 C1196 1.465 . S
C1202 C1201 1.396 . S
C1202 C1203 1.399 . S
C1203 H1189 0.929 . S
C1203 C1202 1.399 . S
C1203 C1204 1.385 . S
C1204 H1190 0.931 . S
C1204 C1203 1.385 . S
C1204 C1205 1.389 . S
C1205 C1204 1.389 . S
C1205 C1206 1.387 . S
C1206 H1191 0.930 . S
C1206 C1201 1.390 . S
C1206 C1205 1.387 . S
H1207 C1219 0.930 . S
H1208 C1221 0.930 . S
H1209 C1222 0.930 . S
H1210 C1226 0.959 . S
H1211 C1226 0.959 . S
H1212 C1226 0.961 . S
H1213 C1227 0.960 . S
H1214 C1227 0.961 . S
H1215 C1227 0.959 . S
H1216 C1230 0.929 . S
H1217 C1231 0.931 . S
H1218 C1233 0.930 . S
C1219 H1207 0.930 . S
C1219 C1220 1.399 . S
C1219 C1224 1.399 . S
C1220 C1219 1.399 . S
C1220 C1221 1.376 . S
C1221 H1208 0.930 . S
C1221 C1220 1.376 . S
C1221 C1222 1.388 . S
C1222 H1209 0.930 . S
C1222 C1221 1.388 . S
C1222 C1223 1.390 . S
C1223 C1222 1.390 . S
C1223 C1224 1.394 . S
C1223 C1229 1.465 . S
C1224 C1219 1.399 . S
C1224 C1223 1.394 . S
C1224 C1225 1.516 . S
C1225 C1224 1.516 . S
C1225 C1226 1.502 . S
C1225 C1227 1.561 . S
C1225 C1228 1.526 . S
C1226 H1210 0.959 . S
C1226 H1211 0.959 . S
C1226 H1212 0.961 . S
C1226 C1225 1.502 . S
C1227 H1213 0.960 . S
C1227 H1214 0.961 . S
C1227 H1215 0.959 . S
C1227 C1225 1.561 . S
C1228 C1225 1.526 . S
C1228 C1229 1.396 . S
C1228 C1233 1.390 . S
C1229 C1223 1.465 . S
C1229 C1228 1.396 . S
C1229 C1230 1.399 . S
C1230 H1216 0.929 . S
C1230 C1229 1.399 . S
C1230 C1231 1.385 . S
C1231 H1217 0.931 . S
C1231 C1230 1.385 . S
C1231 C1232 1.389 . S
C1232 C1231 1.389 . S
C1232 C1233 1.387 . S
C1233 H1218 0.930 . S
C1233 C1228 1.390 . S
C1233 C1232 1.387 . S
H1234 C1246 0.930 . S
H1235 C1248 0.930 . S
H1236 C1249 0.930 . S
H1237 C1253 0.959 . S
H1238 C1253 0.959 . S
H1239 C1253 0.961 . S
H1240 C1254 0.960 . S
H1241 C1254 0.961 . S
H1242 C1254 0.959 . S
H1243 C1257 0.929 . S
H1244 C1258 0.931 . S
H1245 C1260 0.930 . S
C1246 H1234 0.930 . S
C1246 C1247 1.399 . S
C1246 C1251 1.399 . S
C1247 C1246 1.399 . S
C1247 C1248 1.376 . S
C1248 H1235 0.930 . S
C1248 C1247 1.376 . S
C1248 C1249 1.388 . S
C1249 H1236 0.930 . S
C1249 C1248 1.388 . S
C1249 C1250 1.390 . S
C1250 C1249 1.390 . S
C1250 C1251 1.394 . S
C1250 C1256 1.465 . S
C1251 C1246 1.399 . S
C1251 C1250 1.394 . S
C1251 C1252 1.516 . S
C1252 C1251 1.516 . S
C1252 C1253 1.502 . S
C1252 C1254 1.561 . S
C1252 C1255 1.526 . S
C1253 H1237 0.959 . S
C1253 H1238 0.959 . S
C1253 H1239 0.961 . S
C1253 C1252 1.502 . S
C1254 H1240 0.960 . S
C1254 H1241 0.961 . S
C1254 H1242 0.959 . S
C1254 C1252 1.561 . S
C1255 C1252 1.526 . S
C1255 C1256 1.396 . S
C1255 C1260 1.390 . S
C1256 C1250 1.465 . S
C1256 C1255 1.396 . S
C1256 C1257 1.399 . S
C1257 H1243 0.929 . S
C1257 C1256 1.399 . S
C1257 C1258 1.385 . S
C1258 H1244 0.931 . S
C1258 C1257 1.385 . S
C1258 C1259 1.389 . S
C1259 C1258 1.389 . S
C1259 C1260 1.387 . S
C1260 H1245 0.930 . S
C1260 C1255 1.390 . S
C1260 C1259 1.387 . S
H1261 C1273 0.930 . S
H1262 C1275 0.930 . S
H1263 C1276 0.930 . S
H1264 C1280 0.959 . S
H1265 C1280 0.959 . S
H1266 C1280 0.961 . S
H1267 C1281 0.960 . S
H1268 C1281 0.961 . S
H1269 C1281 0.959 . S
H1270 C1284 0.929 . S
H1271 C1285 0.931 . S
H1272 C1287 0.930 . S
C1273 H1261 0.930 . S
C1273 C1274 1.399 . S
C1273 C1278 1.399 . S
C1274 C1273 1.399 . S
C1274 C1275 1.376 . S
C1275 H1262 0.930 . S
C1275 C1274 1.376 . S
C1275 C1276 1.388 . S
C1276 H1263 0.930 . S
C1276 C1275 1.388 . S
C1276 C1277 1.390 . S
C1277 C1276 1.390 . S
C1277 C1278 1.394 . S
C1277 C1283 1.465 . S
C1278 C1273 1.399 . S
C1278 C1277 1.394 . S
C1278 C1279 1.516 . S
C1279 C1278 1.516 . S
C1279 C1280 1.502 . S
C1279 C1281 1.561 . S
C1279 C1282 1.526 . S
C1280 H1264 0.959 . S
C1280 H1265 0.959 . S
C1280 H1266 0.961 . S
C1280 C1279 1.502 . S
C1281 H1267 0.960 . S
C1281 H1268 0.961 . S
C1281 H1269 0.959 . S
C1281 C1279 1.561 . S
C1282 C1279 1.526 . S
C1282 C1283 1.396 . S
C1282 C1287 1.390 . S
C1283 C1277 1.465 . S
C1283 C1282 1.396 . S
C1283 C1284 1.399 . S
C1284 H1270 0.929 . S
C1284 C1283 1.399 . S
C1284 C1285 1.385 . S
C1285 H1271 0.931 . S
C1285 C1284 1.385 . S
C1285 C1286 1.389 . S
C1286 C1285 1.389 . S
C1286 C1287 1.387 . S
C1287 H1272 0.930 . S
C1287 C1282 1.390 . S
C1287 C1286 1.387 . S
H1288 C1300 0.930 . S
H1289 C1302 0.930 . S
H1290 C1303 0.930 . S
H1291 C1307 0.959 . S
H1292 C1307 0.959 . S
H1293 C1307 0.961 . S
H1294 C1308 0.960 . S
H1295 C1308 0.961 . S
H1296 C1308 0.959 . S
H1297 C1311 0.929 . S
H1298 C1312 0.931 . S
H1299 C1314 0.930 . S
C1300 H1288 0.930 . S
C1300 C1301 1.399 . S
C1300 C1305 1.399 . S
C1301 C1300 1.399 . S
C1301 C1302 1.376 . S
C1302 H1289 0.930 . S
C1302 C1301 1.376 . S
C1302 C1303 1.388 . S
C1303 H1290 0.930 . S
C1303 C1302 1.388 . S
C1303 C1304 1.390 . S
C1304 C1303 1.390 . S
C1304 C1305 1.394 . S
C1304 C1310 1.465 . S
C1305 C1300 1.399 . S
C1305 C1304 1.394 . S
C1305 C1306 1.516 . S
C1306 C1305 1.516 . S
C1306 C1307 1.502 . S
C1306 C1308 1.561 . S
C1306 C1309 1.526 . S
C1307 H1291 0.959 . S
C1307 H1292 0.959 . S
C1307 H1293 0.961 . S
C1307 C1306 1.502 . S
C1308 H1294 0.960 . S
C1308 H1295 0.961 . S
C1308 H1296 0.959 . S
C1308 C1306 1.561 . S
C1309 C1306 1.526 . S
C1309 C1310 1.396 . S
C1309 C1314 1.390 . S
C1310 C1304 1.465 . S
C1310 C1309 1.396 . S
C1310 C1311 1.399 . S
C1311 H1297 0.929 . S
C1311 C1310 1.399 . S
C1311 C1312 1.385 . S
C1312 H1298 0.931 . S
C1312 C1311 1.385 . S
C1312 C1313 1.389 . S
C1313 C1312 1.389 . S
C1313 C1314 1.387 . S
C1314 H1299 0.930 . S
C1314 C1309 1.390 . S
C1314 C1313 1.387 . S
H1315 C1327 0.930 . S
H1316 C1329 0.930 . S
H1317 C1330 0.930 . S
H1318 C1334 0.959 . S
H1319 C1334 0.959 . S
H1320 C1334 0.961 . S
H1321 C1335 0.960 . S
H1322 C1335 0.961 . S
H1323 C1335 0.959 . S
H1324 C1338 0.929 . S
H1325 C1339 0.931 . S
H1326 C1341 0.930 . S
C1327 H1315 0.930 . S
C1327 C1328 1.399 . S
C1327 C1332 1.399 . S
C1328 C1327 1.399 . S
C1328 C1329 1.376 . S
C1329 H1316 0.930 . S
C1329 C1328 1.376 . S
C1329 C1330 1.388 . S
C1330 H1317 0.930 . S
C1330 C1329 1.388 . S
C1330 C1331 1.390 . S
C1331 C1330 1.390 . S
C1331 C1332 1.394 . S
C1331 C1337 1.465 . S
C1332 C1327 1.399 . S
C1332 C1331 1.394 . S
C1332 C1333 1.516 . S
C1333 C1332 1.516 . S
C1333 C1334 1.502 . S
C1333 C1335 1.561 . S
C1333 C1336 1.526 . S
C1334 H1318 0.959 . S
C1334 H1319 0.959 . S
C1334 H1320 0.961 . S
C1334 C1333 1.502 . S
C1335 H1321 0.960 . S
C1335 H1322 0.961 . S
C1335 H1323 0.959 . S
C1335 C1333 1.561 . S
C1336 C1333 1.526 . S
C1336 C1337 1.396 . S
C1336 C1341 1.390 . S
C1337 C1331 1.465 . S
C1337 C1336 1.396 . S
C1337 C1338 1.399 . S
C1338 H1324 0.929 . S
C1338 C1337 1.399 . S
C1338 C1339 1.385 . S
C1339 H1325 0.931 . S
C1339 C1338 1.385 . S
C1339 C1340 1.389 . S
C1340 C1339 1.389 . S
C1340 C1341 1.387 . S
C1341 H1326 0.930 . S
C1341 C1336 1.390 . S
C1341 C1340 1.387 . S
H1342 C1354 0.930 . S
H1343 C1356 0.930 1_565 S
H1344 C1357 0.930 . S
H1345 C1361 0.959 . S
H1346 C1361 0.959 . S
H1347 C1361 0.961 . S
H1348 C1362 0.960 . S
H1349 C1362 0.961 . S
H1350 C1362 0.959 . S
H1351 C1365 0.929 . S
H1352 C1366 0.931 . S
H1353 C1368 0.930 . S
C1354 H1342 0.930 . S
C1354 C1355 1.399 . S
C1354 C1359 1.399 . S
C1355 C1354 1.399 . S
C1355 C1356 1.376 . S
C1356 H1343 0.930 1_545 S
C1356 C1355 1.376 . S
C1356 C1357 1.388 . S
C1357 H1344 0.930 . S
C1357 C1356 1.388 . S
C1357 C1358 1.390 . S
C1358 C1357 1.390 . S
C1358 C1359 1.394 . S
C1358 C1364 1.465 . S
C1359 C1354 1.399 . S
C1359 C1358 1.394 . S
C1359 C1360 1.516 . S
C1360 C1359 1.516 . S
C1360 C1361 1.502 . S
C1360 C1362 1.561 . S
C1360 C1363 1.526 . S
C1361 H1345 0.959 . S
C1361 H1346 0.959 . S
C1361 H1347 0.961 . S
C1361 C1360 1.502 . S
C1362 H1348 0.960 . S
C1362 H1349 0.961 . S
C1362 H1350 0.959 . S
C1362 C1360 1.561 . S
C1363 C1360 1.526 . S
C1363 C1364 1.396 . S
C1363 C1368 1.390 . S
C1364 C1358 1.465 . S
C1364 C1363 1.396 . S
C1364 C1365 1.399 . S
C1365 H1351 0.929 . S
C1365 C1364 1.399 . S
C1365 C1366 1.385 . S
C1366 H1352 0.931 . S
C1366 C1365 1.385 . S
C1366 C1367 1.389 . S
C1367 C1366 1.389 . S
C1367 C1368 1.387 . S
C1368 H1353 0.930 . S
C1368 C1363 1.390 . S
C1368 C1367 1.387 . S
H1369 C1381 0.930 . S
H1370 C1383 0.930 . S
H1371 C1384 0.930 . S
H1372 C1388 0.959 . S
H1373 C1388 0.959 . S
H1374 C1388 0.961 . S
H1375 C1389 0.960 . S
H1376 C1389 0.961 . S
H1377 C1389 0.959 . S
H1378 C1392 0.929 . S
H1379 C1393 0.931 . S
H1380 C1395 0.930 . S
C1381 H1369 0.930 . S
C1381 C1382 1.399 . S
C1381 C1386 1.399 . S
C1382 C1381 1.399 . S
C1382 C1383 1.376 . S
C1383 H1370 0.930 . S
C1383 C1382 1.376 . S
C1383 C1384 1.388 . S
C1384 H1371 0.930 . S
C1384 C1383 1.388 . S
C1384 C1385 1.390 . S
C1385 C1384 1.390 . S
C1385 C1386 1.394 . S
C1385 C1391 1.465 . S
C1386 C1381 1.399 . S
C1386 C1385 1.394 . S
C1386 C1387 1.516 . S
C1387 C1386 1.516 . S
C1387 C1388 1.502 . S
C1387 C1389 1.561 . S
C1387 C1390 1.526 . S
C1388 H1372 0.959 . S
C1388 H1373 0.959 . S
C1388 H1374 0.961 . S
C1388 C1387 1.502 . S
C1389 H1375 0.960 . S
C1389 H1376 0.961 . S
C1389 H1377 0.959 . S
C1389 C1387 1.561 . S
C1390 C1387 1.526 . S
C1390 C1391 1.396 . S
C1390 C1395 1.390 . S
C1391 C1385 1.465 . S
C1391 C1390 1.396 . S
C1391 C1392 1.399 . S
C1392 H1378 0.929 . S
C1392 C1391 1.399 . S
C1392 C1393 1.385 . S
C1393 H1379 0.931 . S
C1393 C1392 1.385 . S
C1393 C1394 1.389 . S
C1394 C1393 1.389 . S
C1394 C1395 1.387 . S
C1395 H1380 0.930 . S
C1395 C1390 1.390 . S
C1395 C1394 1.387 . S
H1396 C1408 0.930 . S
H1397 C1410 0.930 . S
H1398 C1411 0.930 . S
H1399 C1415 0.959 . S
H1400 C1415 0.959 . S
H1401 C1415 0.961 . S
H1402 C1416 0.960 . S
H1403 C1416 0.961 . S
H1404 C1416 0.959 . S
H1405 C1419 0.929 . S
H1406 C1420 0.931 . S
H1407 C1422 0.930 . S
C1408 H1396 0.930 . S
C1408 C1409 1.399 . S
C1408 C1413 1.399 . S
C1409 C1408 1.399 . S
C1409 C1410 1.376 . S
C1410 H1397 0.930 . S
C1410 C1409 1.376 . S
C1410 C1411 1.388 . S
C1411 H1398 0.930 . S
C1411 C1410 1.388 . S
C1411 C1412 1.390 . S
C1412 C1411 1.390 . S
C1412 C1413 1.394 . S
C1412 C1418 1.465 . S
C1413 C1408 1.399 . S
C1413 C1412 1.394 . S
C1413 C1414 1.516 . S
C1414 C1413 1.516 . S
C1414 C1415 1.502 . S
C1414 C1416 1.561 . S
C1414 C1417 1.526 . S
C1415 H1399 0.959 . S
C1415 H1400 0.959 . S
C1415 H1401 0.961 . S
C1415 C1414 1.502 . S
C1416 H1402 0.960 . S
C1416 H1403 0.961 . S
C1416 H1404 0.959 . S
C1416 C1414 1.561 . S
C1417 C1414 1.526 . S
C1417 C1418 1.396 . S
C1417 C1422 1.390 . S
C1418 C1412 1.465 . S
C1418 C1417 1.396 . S
C1418 C1419 1.399 . S
C1419 H1405 0.929 . S
C1419 C1418 1.399 . S
C1419 C1420 1.385 . S
C1420 H1406 0.931 . S
C1420 C1419 1.385 . S
C1420 C1421 1.389 . S
C1421 C1420 1.389 . S
C1421 C1422 1.387 . S
C1422 H1407 0.930 . S
C1422 C1417 1.390 . S
C1422 C1421 1.387 . S
H1423 C1435 0.930 . S
H1424 C1437 0.930 . S
H1425 C1438 0.930 . S
H1426 C1442 0.959 . S
H1427 C1442 0.959 . S
H1428 C1442 0.961 . S
H1429 C1443 0.960 . S
H1430 C1443 0.961 . S
H1431 C1443 0.959 . S
H1432 C1446 0.929 . S
H1433 C1447 0.931 . S
H1434 C1449 0.930 . S
C1435 H1423 0.930 . S
C1435 C1436 1.399 . S
C1435 C1440 1.399 . S
C1436 C1435 1.399 . S
C1436 C1437 1.376 . S
C1437 H1424 0.930 . S
C1437 C1436 1.376 . S
C1437 C1438 1.388 . S
C1438 H1425 0.930 . S
C1438 C1437 1.388 . S
C1438 C1439 1.390 . S
C1439 C1438 1.390 . S
C1439 C1440 1.394 . S
C1439 C1445 1.465 . S
C1440 C1435 1.399 . S
C1440 C1439 1.394 . S
C1440 C1441 1.516 . S
C1441 C1440 1.516 . S
C1441 C1442 1.502 . S
C1441 C1443 1.561 . S
C1441 C1444 1.526 . S
C1442 H1426 0.959 . S
C1442 H1427 0.959 . S
C1442 H1428 0.961 . S
C1442 C1441 1.502 . S
C1443 H1429 0.960 . S
C1443 H1430 0.961 . S
C1443 H1431 0.959 . S
C1443 C1441 1.561 . S
C1444 C1441 1.526 . S
C1444 C1445 1.396 . S
C1444 C1449 1.390 . S
C1445 C1439 1.465 . S
C1445 C1444 1.396 . S
C1445 C1446 1.399 . S
C1446 H1432 0.929 . S
C1446 C1445 1.399 . S
C1446 C1447 1.385 . S
C1447 H1433 0.931 . S
C1447 C1446 1.385 . S
C1447 C1448 1.389 . S
C1448 C1447 1.389 . S
C1448 C1449 1.387 . S
C1449 H1434 0.930 . S
C1449 C1444 1.390 . S
C1449 C1448 1.387 . S
H1450 C1462 0.930 . S
H1451 C1464 0.930 . S
H1452 C1465 0.930 . S
H1453 C1469 0.959 . S
H1454 C1469 0.959 . S
H1455 C1469 0.961 . S
H1456 C1470 0.960 . S
H1457 C1470 0.961 . S
H1458 C1470 0.959 . S
H1459 C1473 0.929 . S
H1460 C1474 0.931 . S
H1461 C1476 0.930 . S
C1462 H1450 0.930 . S
C1462 C1463 1.399 . S
C1462 C1467 1.399 . S
C1463 C1462 1.399 . S
C1463 C1464 1.376 . S
C1464 H1451 0.930 . S
C1464 C1463 1.376 . S
C1464 C1465 1.388 . S
C1465 H1452 0.930 . S
C1465 C1464 1.388 . S
C1465 C1466 1.390 . S
C1466 C1465 1.390 . S
C1466 C1467 1.394 . S
C1466 C1472 1.465 . S
C1467 C1462 1.399 . S
C1467 C1466 1.394 . S
C1467 C1468 1.516 . S
C1468 C1467 1.516 . S
C1468 C1469 1.502 . S
C1468 C1470 1.561 . S
C1468 C1471 1.526 . S
C1469 H1453 0.959 . S
C1469 H1454 0.959 . S
C1469 H1455 0.961 . S
C1469 C1468 1.502 . S
C1470 H1456 0.960 . S
C1470 H1457 0.961 . S
C1470 H1458 0.959 . S
C1470 C1468 1.561 . S
C1471 C1468 1.526 . S
C1471 C1472 1.396 . S
C1471 C1476 1.390 . S
C1472 C1466 1.465 . S
C1472 C1471 1.396 . S
C1472 C1473 1.399 . S
C1473 H1459 0.929 . S
C1473 C1472 1.399 . S
C1473 C1474 1.385 . S
C1474 H1460 0.931 . S
C1474 C1473 1.385 . S
C1474 C1475 1.389 . S
C1475 C1474 1.389 . S
C1475 C1476 1.387 . S
C1476 H1461 0.930 . S
C1476 C1471 1.390 . S
C1476 C1475 1.387 . S
H1477 C1489 0.930 . S
H1478 C1491 0.930 . S
H1479 C1492 0.930 . S
H1480 C1496 0.959 . S
H1481 C1496 0.959 . S
H1482 C1496 0.961 . S
H1483 C1497 0.960 . S
H1484 C1497 0.961 . S
H1485 C1497 0.959 . S
H1486 C1500 0.929 . S
H1487 C1501 0.931 . S
H1488 C1503 0.930 . S
C1489 H1477 0.930 . S
C1489 C1490 1.399 . S
C1489 C1494 1.399 . S
C1490 C1489 1.399 . S
C1490 C1491 1.376 . S
C1491 H1478 0.930 . S
C1491 C1490 1.376 . S
C1491 C1492 1.388 . S
C1492 H1479 0.930 . S
C1492 C1491 1.388 . S
C1492 C1493 1.390 . S
C1493 C1492 1.390 . S
C1493 C1494 1.394 . S
C1493 C1499 1.465 . S
C1494 C1489 1.399 . S
C1494 C1493 1.394 . S
C1494 C1495 1.516 . S
C1495 C1494 1.516 . S
C1495 C1496 1.502 . S
C1495 C1497 1.561 . S
C1495 C1498 1.526 . S
C1496 H1480 0.959 . S
C1496 H1481 0.959 . S
C1496 H1482 0.961 . S
C1496 C1495 1.502 . S
C1497 H1483 0.960 . S
C1497 H1484 0.961 . S
C1497 H1485 0.959 . S
C1497 C1495 1.561 . S
C1498 C1495 1.526 . S
C1498 C1499 1.396 . S
C1498 C1503 1.390 . S
C1499 C1493 1.465 . S
C1499 C1498 1.396 . S
C1499 C1500 1.399 . S
C1500 H1486 0.929 . S
C1500 C1499 1.399 . S
C1500 C1501 1.385 . S
C1501 H1487 0.931 . S
C1501 C1500 1.385 . S
C1501 C1502 1.389 . S
C1502 C1501 1.389 . S
C1502 C1503 1.387 . S
C1503 H1488 0.930 . S
C1503 C1498 1.390 . S
C1503 C1502 1.387 . S
H1504 C1516 0.930 . S
H1505 C1518 0.930 . S
H1506 C1519 0.930 . S
H1507 C1523 0.959 . S
H1508 C1523 0.959 . S
H1509 C1523 0.961 . S
H1510 C1524 0.960 . S
H1511 C1524 0.961 . S
H1512 C1524 0.959 . S
H1513 C1527 0.929 . S
H1514 C1528 0.931 . S
H1515 C1530 0.930 . S
C1516 H1504 0.930 . S
C1516 C1517 1.399 1_556 S
C1516 C1521 1.399 . S
C1517 C1516 1.399 1_554 S
C1517 C1518 1.376 . S
C1518 H1505 0.930 . S
C1518 C1517 1.376 . S
C1518 C1519 1.388 1_554 S
C1519 H1506 0.930 . S
C1519 C1518 1.388 1_556 S
C1519 C1520 1.390 . S
C1520 C1519 1.390 . S
C1520 C1521 1.394 . S
C1520 C1526 1.465 . S
C1521 C1516 1.399 . S
C1521 C1520 1.394 . S
C1521 C1522 1.516 . S
C1522 C1521 1.516 . S
C1522 C1523 1.502 . S
C1522 C1524 1.561 . S
C1522 C1525 1.526 . S
C1523 H1507 0.959 . S
C1523 H1508 0.959 . S
C1523 H1509 0.961 . S
C1523 C1522 1.502 . S
C1524 H1510 0.960 . S
C1524 H1511 0.961 . S
C1524 H1512 0.959 . S
C1524 C1522 1.561 . S
C1525 C1522 1.526 . S
C1525 C1526 1.396 . S
C1525 C1530 1.390 . S
C1526 C1520 1.465 . S
C1526 C1525 1.396 . S
C1526 C1527 1.399 . S
C1527 H1513 0.929 . S
C1527 C1526 1.399 . S
C1527 C1528 1.385 . S
C1528 H1514 0.931 . S
C1528 C1527 1.385 . S
C1528 C1529 1.389 . S
C1529 C1528 1.389 . S
C1529 C1530 1.387 . S
C1530 H1515 0.930 . S
C1530 C1525 1.390 . S
C1530 C1529 1.387 . S
H1531 C1543 0.930 . S
H1532 C1545 0.930 . S
H1533 C1546 0.930 . S
H1534 C1550 0.959 . S
H1535 C1550 0.959 . S
H1536 C1550 0.961 . S
H1537 C1551 0.960 . S
H1538 C1551 0.961 . S
H1539 C1551 0.959 . S
H1540 C1554 0.929 . S
H1541 C1555 0.931 . S
H1542 C1557 0.930 . S
C1543 H1531 0.930 . S
C1543 C1544 1.399 . S
C1543 C1548 1.399 . S
C1544 C1543 1.399 . S
C1544 C1545 1.376 . S
C1545 H1532 0.930 . S
C1545 C1544 1.376 . S
C1545 C1546 1.388 . S
C1546 H1533 0.930 . S
C1546 C1545 1.388 . S
C1546 C1547 1.390 . S
C1547 C1546 1.390 . S
C1547 C1548 1.394 . S
C1547 C1553 1.465 . S
C1548 C1543 1.399 . S
C1548 C1547 1.394 . S
C1548 C1549 1.516 . S
C1549 C1548 1.516 . S
C1549 C1550 1.502 . S
C1549 C1551 1.561 . S
C1549 C1552 1.526 . S
C1550 H1534 0.959 . S
C1550 H1535 0.959 . S
C1550 H1536 0.961 . S
C1550 C1549 1.502 . S
C1551 H1537 0.960 . S
C1551 H1538 0.961 . S
C1551 H1539 0.959 . S
C1551 C1549 1.561 . S
C1552 C1549 1.526 . S
C1552 C1553 1.396 . S
C1552 C1557 1.390 . S
C1553 C1547 1.465 . S
C1553 C1552 1.396 . S
C1553 C1554 1.399 . S
C1554 H1540 0.929 . S
C1554 C1553 1.399 . S
C1554 C1555 1.385 . S
C1555 H1541 0.931 . S
C1555 C1554 1.385 . S
C1555 C1556 1.389 . S
C1556 C1555 1.389 . S
C1556 C1557 1.387 . S
C1557 H1542 0.930 . S
C1557 C1552 1.390 . S
C1557 C1556 1.387 . S
H1558 C1570 0.930 . S
H1559 C1572 0.930 . S
H1560 C1573 0.930 . S
H1561 C1577 0.959 . S
H1562 C1577 0.959 . S
H1563 C1577 0.961 . S
H1564 C1578 0.960 . S
H1565 C1578 0.961 . S
H1566 C1578 0.959 . S
H1567 C1581 0.929 . S
H1568 C1582 0.931 . S
H1569 C1584 0.930 . S
C1570 H1558 0.930 . S
C1570 C1571 1.399 . S
C1570 C1575 1.399 . S
C1571 C1570 1.399 . S
C1571 C1572 1.376 . S
C1572 H1559 0.930 . S
C1572 C1571 1.376 . S
C1572 C1573 1.388 . S
C1573 H1560 0.930 . S
C1573 C1572 1.388 . S
C1573 C1574 1.390 . S
C1574 C1573 1.390 . S
C1574 C1575 1.394 . S
C1574 C1580 1.465 . S
C1575 C1570 1.399 . S
C1575 C1574 1.394 . S
C1575 C1576 1.516 . S
C1576 C1575 1.516 . S
C1576 C1577 1.502 . S
C1576 C1578 1.561 . S
C1576 C1579 1.526 . S
C1577 H1561 0.959 . S
C1577 H1562 0.959 . S
C1577 H1563 0.961 . S
C1577 C1576 1.502 . S
C1578 H1564 0.960 . S
C1578 H1565 0.961 . S
C1578 H1566 0.959 . S
C1578 C1576 1.561 . S
C1579 C1576 1.526 . S
C1579 C1580 1.396 . S
C1579 C1584 1.390 . S
C1580 C1574 1.465 . S
C1580 C1579 1.396 . S
C1580 C1581 1.399 . S
C1581 H1567 0.929 . S
C1581 C1580 1.399 . S
C1581 C1582 1.385 . S
C1582 H1568 0.931 . S
C1582 C1581 1.385 . S
C1582 C1583 1.389 . S
C1583 C1582 1.389 . S
C1583 C1584 1.387 . S
C1584 H1569 0.930 . S
C1584 C1579 1.390 . S
C1584 C1583 1.387 . S
H1585 C1597 0.930 . S
H1586 C1599 0.930 . S
H1587 C1600 0.930 . S
H1588 C1604 0.959 . S
H1589 C1604 0.959 . S
H1590 C1604 0.961 . S
H1591 C1605 0.960 . S
H1592 C1605 0.961 . S
H1593 C1605 0.959 . S
H1594 C1608 0.929 . S
H1595 C1609 0.931 . S
H1596 C1611 0.930 . S
C1597 H1585 0.930 . S
C1597 C1598 1.399 . S
C1597 C1602 1.399 . S
C1598 C1597 1.399 . S
C1598 C1599 1.376 . S
C1599 H1586 0.930 . S
C1599 C1598 1.376 . S
C1599 C1600 1.388 . S
C1600 H1587 0.930 . S
C1600 C1599 1.388 . S
C1600 C1601 1.390 . S
C1601 C1600 1.390 . S
C1601 C1602 1.394 . S
C1601 C1607 1.465 . S
C1602 C1597 1.399 . S
C1602 C1601 1.394 . S
C1602 C1603 1.516 . S
C1603 C1602 1.516 . S
C1603 C1604 1.502 . S
C1603 C1605 1.561 . S
C1603 C1606 1.526 . S
C1604 H1588 0.959 . S
C1604 H1589 0.959 . S
C1604 H1590 0.961 . S
C1604 C1603 1.502 . S
C1605 H1591 0.960 . S
C1605 H1592 0.961 . S
C1605 H1593 0.959 . S
C1605 C1603 1.561 . S
C1606 C1603 1.526 . S
C1606 C1607 1.396 . S
C1606 C1611 1.390 . S
C1607 C1601 1.465 . S
C1607 C1606 1.396 . S
C1607 C1608 1.399 . S
C1608 H1594 0.929 . S
C1608 C1607 1.399 . S
C1608 C1609 1.385 . S
C1609 H1595 0.931 . S
C1609 C1608 1.385 . S
C1609 C1610 1.389 . S
C1610 C1609 1.389 . S
C1610 C1611 1.387 . S
C1611 H1596 0.930 . S
C1611 C1606 1.390 . S
C1611 C1610 1.387 . S
H1612 C1624 0.930 . S
H1613 C1626 0.930 . S
H1614 C1627 0.930 . S
H1615 C1631 0.959 . S
H1616 C1631 0.959 . S
H1617 C1631 0.961 . S
H1618 C1632 0.960 . S
H1619 C1632 0.961 . S
H1620 C1632 0.959 . S
H1621 C1635 0.929 . S
H1622 C1636 0.917 1_556 S
H1623 C1638 0.928 1_556 S
C1624 H1612 0.930 . S
C1624 C1625 1.399 . S
C1624 C1629 1.399 . S
C1625 C1624 1.399 . S
C1625 C1626 1.376 . S
C1626 H1613 0.930 . S
C1626 C1625 1.376 . S
C1626 C1627 1.388 . S
C1627 H1614 0.930 . S
C1627 C1626 1.388 . S
C1627 C1628 1.390 . S
C1628 C1627 1.390 . S
C1628 C1629 1.394 . S
C1628 C1634 1.465 . S
C1629 C1624 1.399 . S
C1629 C1628 1.394 . S
C1629 C1630 1.516 . S
C1630 C1629 1.516 . S
C1630 C1631 1.502 . S
C1630 C1632 1.561 . S
C1630 C1633 1.526 . S
C1631 H1615 0.959 . S
C1631 H1616 0.959 . S
C1631 H1617 0.961 . S
C1631 C1630 1.502 . S
C1632 H1618 0.960 . S
C1632 H1619 0.961 . S
C1632 H1620 0.959 . S
C1632 C1630 1.561 . S
C1633 C1630 1.526 . S
C1633 C1634 1.396 . S
C1633 C1638 1.390 . S
C1634 C1628 1.465 . S
C1634 C1633 1.396 . S
C1634 C1635 1.399 . S
C1635 H1621 0.929 . S
C1635 C1634 1.399 . S
C1635 C1636 1.407 . S
C1636 H1622 0.917 1_554 S
C1636 C1635 1.407 . S
C1636 C1637 1.381 1_554 S
C1637 C1636 1.381 1_556 S
C1637 C1638 1.387 1_556 S
C1638 H1623 0.928 1_554 S
C1638 C1633 1.390 . S
C1638 C1637 1.387 1_554 S
H1639 C1651 0.930 . S
H1640 C1653 0.930 . S
H1641 C1654 0.930 . S
H1642 C1658 0.959 . S
H1643 C1658 0.959 . S
H1644 C1658 0.961 . S
H1645 C1659 0.960 . S
H1646 C1659 0.961 . S
H1647 C1659 0.959 . S
H1648 C1662 0.929 . S
H1649 C1663 0.931 . S
H1650 C1665 0.930 . S
C1651 H1639 0.930 . S
C1651 C1652 1.399 . S
C1651 C1656 1.399 . S
C1652 C1651 1.399 . S
C1652 C1653 1.376 . S
C1653 H1640 0.930 . S
C1653 C1652 1.376 . S
C1653 C1654 1.388 . S
C1654 H1641 0.930 . S
C1654 C1653 1.388 . S
C1654 C1655 1.390 . S
C1655 C1654 1.390 . S
C1655 C1656 1.394 . S
C1655 C1661 1.465 . S
C1656 C1651 1.399 . S
C1656 C1655 1.394 . S
C1656 C1657 1.516 . S
C1657 C1656 1.516 . S
C1657 C1658 1.502 . S
C1657 C1659 1.561 . S
C1657 C1660 1.526 . S
C1658 H1642 0.959 . S
C1658 H1643 0.959 . S
C1658 H1644 0.961 . S
C1658 C1657 1.502 . S
C1659 H1645 0.960 . S
C1659 H1646 0.961 . S
C1659 H1647 0.959 . S
C1659 C1657 1.561 . S
C1660 C1657 1.526 . S
C1660 C1661 1.396 . S
C1660 C1665 1.390 . S
C1661 C1655 1.465 . S
C1661 C1660 1.396 . S
C1661 C1662 1.399 . S
C1662 H1648 0.929 . S
C1662 C1661 1.399 . S
C1662 C1663 1.385 . S
C1663 H1649 0.931 . S
C1663 C1662 1.385 . S
C1663 C1664 1.389 . S
C1664 C1663 1.389 . S
C1664 C1665 1.387 . S
C1665 H1650 0.930 . S
C1665 C1660 1.390 . S
C1665 C1664 1.387 . S
H1666 C1678 0.930 . S
H1667 C1680 0.930 . S
H1668 C1681 0.930 . S
H1669 C1685 0.959 . S
H1670 C1685 0.959 . S
H1671 C1685 0.961 . S
H1672 C1686 0.960 . S
H1673 C1686 0.961 . S
H1674 C1686 0.959 . S
H1675 C1689 0.929 . S
H1676 C1690 0.931 . S
H1677 C1692 0.930 . S
C1678 H1666 0.930 . S
C1678 C1679 1.399 . S
C1678 C1683 1.399 . S
C1679 C1678 1.399 . S
C1679 C1680 1.376 . S
C1680 H1667 0.930 . S
C1680 C1679 1.376 . S
C1680 C1681 1.388 . S
C1681 H1668 0.930 . S
C1681 C1680 1.388 . S
C1681 C1682 1.390 . S
C1682 C1681 1.390 . S
C1682 C1683 1.394 . S
C1682 C1688 1.465 . S
C1683 C1678 1.399 . S
C1683 C1682 1.394 . S
C1683 C1684 1.516 . S
C1684 C1683 1.516 . S
C1684 C1685 1.502 . S
C1684 C1686 1.561 . S
C1684 C1687 1.526 . S
C1685 H1669 0.959 . S
C1685 H1670 0.959 . S
C1685 H1671 0.961 . S
C1685 C1684 1.502 . S
C1686 H1672 0.960 . S
C1686 H1673 0.961 . S
C1686 H1674 0.959 . S
C1686 C1684 1.561 . S
C1687 C1684 1.526 . S
C1687 C1688 1.396 . S
C1687 C1692 1.390 . S
C1688 C1682 1.465 . S
C1688 C1687 1.396 . S
C1688 C1689 1.399 . S
C1689 H1675 0.929 . S
C1689 C1688 1.399 . S
C1689 C1690 1.385 . S
C1690 H1676 0.931 . S
C1690 C1689 1.385 . S
C1690 C1691 1.389 . S
C1691 C1690 1.389 . S
C1691 C1692 1.387 . S
C1692 H1677 0.930 . S
C1692 C1687 1.390 . S
C1692 C1691 1.387 . S
H1693 C1705 0.930 . S
H1694 C1707 0.930 . S
H1695 C1708 0.930 . S
H1696 C1712 0.959 . S
H1697 C1712 0.959 . S
H1698 C1712 0.961 . S
H1699 C1713 0.960 . S
H1700 C1713 0.961 . S
H1701 C1713 0.959 . S
H1702 C1716 0.929 . S
H1703 C1717 0.931 . S
H1704 C1719 0.930 . S
C1705 H1693 0.930 . S
C1705 C1706 1.399 . S
C1705 C1710 1.399 . S
C1706 C1705 1.399 . S
C1706 C1707 1.376 . S
C1707 H1694 0.930 . S
C1707 C1706 1.376 . S
C1707 C1708 1.388 . S
C1708 H1695 0.930 . S
C1708 C1707 1.388 . S
C1708 C1709 1.390 . S
C1709 C1708 1.390 . S
C1709 C1710 1.394 . S
C1709 C1715 1.465 . S
C1710 C1705 1.399 . S
C1710 C1709 1.394 . S
C1710 C1711 1.516 . S
C1711 C1710 1.516 . S
C1711 C1712 1.502 . S
C1711 C1713 1.561 . S
C1711 C1714 1.526 . S
C1712 H1696 0.959 . S
C1712 H1697 0.959 . S
C1712 H1698 0.961 . S
C1712 C1711 1.502 . S
C1713 H1699 0.960 . S
C1713 H1700 0.961 . S
C1713 H1701 0.959 . S
C1713 C1711 1.561 . S
C1714 C1711 1.526 . S
C1714 C1715 1.396 . S
C1714 C1719 1.390 . S
C1715 C1709 1.465 . S
C1715 C1714 1.396 . S
C1715 C1716 1.399 . S
C1716 H1702 0.929 . S
C1716 C1715 1.399 . S
C1716 C1717 1.385 . S
C1717 H1703 0.931 . S
C1717 C1716 1.385 . S
C1717 C1718 1.389 . S
C1718 C1717 1.389 . S
C1718 C1719 1.387 . S
C1719 H1704 0.930 . S
C1719 C1714 1.390 . S
C1719 C1718 1.387 . S
H1720 C1732 0.930 . S
H1721 C1734 0.930 . S
H1722 C1735 0.930 . S
H1723 C1739 0.959 . S
H1724 C1739 0.959 . S
H1725 C1739 0.961 . S
H1726 C1740 0.960 . S
H1727 C1740 0.961 . S
H1728 C1740 0.959 . S
H1729 C1743 0.929 . S
H1730 C1744 0.931 . S
H1731 C1746 0.930 . S
C1732 H1720 0.930 . S
C1732 C1733 1.399 . S
C1732 C1737 1.399 . S
C1733 C1732 1.399 . S
C1733 C1734 1.376 . S
C1734 H1721 0.930 . S
C1734 C1733 1.376 . S
C1734 C1735 1.388 . S
C1735 H1722 0.930 . S
C1735 C1734 1.388 . S
C1735 C1736 1.390 . S
C1736 C1735 1.390 . S
C1736 C1737 1.394 . S
C1736 C1742 1.465 . S
C1737 C1732 1.399 . S
C1737 C1736 1.394 . S
C1737 C1738 1.516 . S
C1738 C1737 1.516 . S
C1738 C1739 1.502 . S
C1738 C1740 1.561 . S
C1738 C1741 1.526 . S
C1739 H1723 0.959 . S
C1739 H1724 0.959 . S
C1739 H1725 0.961 . S
C1739 C1738 1.502 . S
C1740 H1726 0.960 . S
C1740 H1727 0.961 . S
C1740 H1728 0.959 . S
C1740 C1738 1.561 . S
C1741 C1738 1.526 . S
C1741 C1742 1.396 . S
C1741 C1746 1.390 . S
C1742 C1736 1.465 . S
C1742 C1741 1.396 . S
C1742 C1743 1.399 . S
C1743 H1729 0.929 . S
C1743 C1742 1.399 . S
C1743 C1744 1.385 . S
C1744 H1730 0.931 . S
C1744 C1743 1.385 . S
C1744 C1745 1.389 . S
C1745 C1744 1.389 . S
C1745 C1746 1.387 . S
C1746 H1731 0.930 . S
C1746 C1741 1.390 . S
C1746 C1745 1.387 . S
H1747 C1759 0.930 . S
H1748 C1761 0.930 . S
H1749 C1762 0.930 . S
H1750 C1766 0.959 . S
H1751 C1766 0.959 . S
H1752 C1766 0.961 . S
H1753 C1767 0.960 . S
H1754 C1767 0.961 . S
H1755 C1767 0.959 . S
H1756 C1770 0.929 . S
H1757 C1771 0.931 . S
H1758 C1773 0.930 . S
C1759 H1747 0.930 . S
C1759 C1760 1.399 . S
C1759 C1764 1.399 . S
C1760 C1759 1.399 . S
C1760 C1761 1.376 . S
C1761 H1748 0.930 . S
C1761 C1760 1.376 . S
C1761 C1762 1.388 . S
C1762 H1749 0.930 . S
C1762 C1761 1.388 . S
C1762 C1763 1.390 . S
C1763 C1762 1.390 . S
C1763 C1764 1.394 . S
C1763 C1769 1.465 . S
C1764 C1759 1.399 . S
C1764 C1763 1.394 . S
C1764 C1765 1.516 . S
C1765 C1764 1.516 . S
C1765 C1766 1.502 . S
C1765 C1767 1.561 . S
C1765 C1768 1.526 . S
C1766 H1750 0.959 . S
C1766 H1751 0.959 . S
C1766 H1752 0.961 . S
C1766 C1765 1.502 . S
C1767 H1753 0.960 . S
C1767 H1754 0.961 . S
C1767 H1755 0.959 . S
C1767 C1765 1.561 . S
C1768 C1765 1.526 . S
C1768 C1769 1.396 . S
C1768 C1773 1.390 . S
C1769 C1763 1.465 . S
C1769 C1768 1.396 . S
C1769 C1770 1.399 1_565 S
C1770 H1756 0.929 . S
C1770 C1769 1.399 1_545 S
C1770 C1771 1.385 . S
C1771 H1757 0.931 . S
C1771 C1770 1.385 . S
C1771 C1772 1.389 . S
C1772 C1771 1.389 . S
C1772 C1773 1.387 1_545 S
C1773 H1758 0.930 . S
C1773 C1768 1.390 . S
C1773 C1772 1.387 1_565 S
H1774 C1786 0.930 . S
H1775 C1788 0.930 . S
H1776 C1789 0.930 . S
H1777 C1793 0.959 . S
H1778 C1793 0.959 . S
H1779 C1793 0.961 . S
H1780 C1794 0.960 . S
H1781 C1794 0.961 . S
H1782 C1794 0.959 . S
H1783 C1797 0.938 . S
H1784 C1798 0.931 . S
H1785 C1800 0.930 . S
C1786 H1774 0.930 . S
C1786 C1787 1.399 . S
C1786 C1791 1.399 . S
C1787 C1786 1.399 . S
C1787 C1788 1.376 . S
C1788 H1775 0.930 . S
C1788 C1787 1.376 . S
C1788 C1789 1.388 . S
C1789 H1776 0.930 . S
C1789 C1788 1.388 . S
C1789 C1790 1.390 . S
C1790 C1789 1.390 . S
C1790 C1791 1.394 . S
C1790 C1796 1.465 . S
C1791 C1786 1.399 . S
C1791 C1790 1.394 . S
C1791 C1792 1.516 . S
C1792 C1791 1.516 . S
C1792 C1793 1.502 . S
C1792 C1794 1.561 . S
C1792 C1795 1.526 . S
C1793 H1777 0.959 . S
C1793 H1778 0.959 . S
C1793 H1779 0.961 . S
C1793 C1792 1.502 . S
C1794 H1780 0.960 . S
C1794 H1781 0.961 . S
C1794 H1782 0.959 . S
C1794 C1792 1.561 . S
C1795 C1792 1.526 . S
C1795 C1796 1.396 . S
C1795 C1800 1.390 . S
C1796 C1790 1.465 . S
C1796 C1795 1.396 . S
C1796 C1797 1.374 1_556 S
C1797 H1783 0.938 . S
C1797 C1796 1.374 1_554 S
C1797 C1798 1.402 . S
C1798 H1784 0.931 . S
C1798 C1797 1.402 . S
C1798 C1799 1.389 . S
C1799 C1798 1.389 . S
C1799 C1800 1.387 1_554 S
C1800 H1785 0.930 . S
C1800 C1795 1.390 . S
C1800 C1799 1.387 1_556 S
H1801 C1813 0.930 . S
H1802 C1815 0.930 . S
H1803 C1816 0.930 . S
H1804 C1820 0.959 . S
H1805 C1820 0.959 . S
H1806 C1820 0.961 . S
H1807 C1821 0.960 . S
H1808 C1821 0.961 . S
H1809 C1821 0.959 . S
H1810 C1824 0.929 . S
H1811 C1825 0.931 . S
H1812 C1827 0.930 . S
C1813 H1801 0.930 . S
C1813 C1814 1.399 1_545 S
C1813 C1818 1.399 . S
C1814 C1813 1.399 1_565 S
C1814 C1815 1.376 . S
C1815 H1802 0.930 . S
C1815 C1814 1.376 . S
C1815 C1816 1.388 . S
C1816 H1803 0.930 . S
C1816 C1815 1.388 . S
C1816 C1817 1.390 1_565 S
C1817 C1816 1.390 1_545 S
C1817 C1818 1.394 . S
C1817 C1823 1.465 . S
C1818 C1813 1.399 . S
C1818 C1817 1.394 . S
C1818 C1819 1.516 . S
C1819 C1818 1.516 . S
C1819 C1820 1.502 . S
C1819 C1821 1.561 . S
C1819 C1822 1.526 . S
C1820 H1804 0.959 . S
C1820 H1805 0.959 . S
C1820 H1806 0.961 . S
C1820 C1819 1.502 . S
C1821 H1807 0.960 . S
C1821 H1808 0.961 . S
C1821 H1809 0.959 . S
C1821 C1819 1.561 . S
C1822 C1819 1.526 . S
C1822 C1823 1.396 . S
C1822 C1827 1.390 . S
C1823 C1817 1.465 . S
C1823 C1822 1.396 . S
C1823 C1824 1.399 . S
C1824 H1810 0.929 . S
C1824 C1823 1.399 . S
C1824 C1825 1.385 . S
C1825 H1811 0.931 . S
C1825 C1824 1.385 . S
C1825 C1826 1.389 . S
C1826 C1825 1.389 . S
C1826 C1827 1.387 . S
C1827 H1812 0.930 . S
C1827 C1822 1.390 . S
C1827 C1826 1.387 . S
H1828 C1840 0.930 . S
H1829 C1842 0.930 . S
H1830 C1843 0.930 . S
H1831 C1847 0.959 . S
H1832 C1847 0.959 . S
H1833 C1847 0.961 . S
H1834 C1848 0.960 . S
H1835 C1848 0.961 . S
H1836 C1848 0.959 . S
H1837 C1851 0.929 . S
H1838 C1852 0.931 . S
H1839 C1854 0.930 . S
C1840 H1828 0.930 . S
C1840 C1841 1.399 . S
C1840 C1845 1.399 . S
C1841 C1840 1.399 . S
C1841 C1842 1.376 . S
C1842 H1829 0.930 . S
C1842 C1841 1.376 . S
C1842 C1843 1.388 . S
C1843 H1830 0.930 . S
C1843 C1842 1.388 . S
C1843 C1844 1.390 . S
C1844 C1843 1.390 . S
C1844 C1845 1.394 . S
C1844 C1850 1.465 . S
C1845 C1840 1.399 . S
C1845 C1844 1.394 . S
C1845 C1846 1.516 . S
C1846 C1845 1.516 . S
C1846 C1847 1.502 . S
C1846 C1848 1.561 . S
C1846 C1849 1.526 . S
C1847 H1831 0.959 . S
C1847 H1832 0.959 . S
C1847 H1833 0.961 . S
C1847 C1846 1.502 . S
C1848 H1834 0.960 . S
C1848 H1835 0.961 . S
C1848 H1836 0.959 . S
C1848 C1846 1.561 . S
C1849 C1846 1.526 . S
C1849 C1850 1.396 . S
C1849 C1854 1.390 . S
C1850 C1844 1.465 . S
C1850 C1849 1.396 . S
C1850 C1851 1.399 . S
C1851 H1837 0.929 . S
C1851 C1850 1.399 . S
C1851 C1852 1.385 . S
C1852 H1838 0.931 . S
C1852 C1851 1.385 . S
C1852 C1853 1.389 . S
C1853 C1852 1.389 . S
C1853 C1854 1.387 . S
C1854 H1839 0.930 . S
C1854 C1849 1.390 . S
C1854 C1853 1.387 . S
H1855 C1867 0.930 . S
H1856 C1869 0.930 . S
H1857 C1870 0.930 . S
H1858 C1874 0.959 . S
H1859 C1874 0.959 . S
H1860 C1874 0.961 . S
H1861 C1875 0.960 . S
H1862 C1875 0.961 . S
H1863 C1875 0.959 . S
H1864 C1878 0.929 . S
H1865 C1879 0.931 . S
H1866 C1881 0.930 . S
C1867 H1855 0.930 . S
C1867 C1868 1.399 . S
C1867 C1872 1.399 . S
C1868 C1867 1.399 . S
C1868 C1869 1.376 . S
C1869 H1856 0.930 . S
C1869 C1868 1.376 . S
C1869 C1870 1.388 . S
C1870 H1857 0.930 . S
C1870 C1869 1.388 . S
C1870 C1871 1.390 . S
C1871 C1870 1.390 . S
C1871 C1872 1.394 . S
C1871 C1877 1.465 . S
C1872 C1867 1.399 . S
C1872 C1871 1.394 . S
C1872 C1873 1.516 . S
C1873 C1872 1.516 . S
C1873 C1874 1.502 . S
C1873 C1875 1.561 . S
C1873 C1876 1.526 . S
C1874 H1858 0.959 . S
C1874 H1859 0.959 . S
C1874 H1860 0.961 . S
C1874 C1873 1.502 . S
C1875 H1861 0.960 . S
C1875 H1862 0.961 . S
C1875 H1863 0.959 . S
C1875 C1873 1.561 . S
C1876 C1873 1.526 . S
C1876 C1877 1.396 . S
C1876 C1881 1.390 . S
C1877 C1871 1.465 . S
C1877 C1876 1.396 . S
C1877 C1878 1.399 1_545 S
C1878 H1864 0.929 . S
C1878 C1877 1.399 1_565 S
C1878 C1879 1.385 . S
C1879 H1865 0.931 . S
C1879 C1878 1.385 . S
C1879 C1880 1.389 . S
C1880 C1879 1.389 . S
C1880 C1881 1.387 1_565 S
C1881 H1866 0.930 . S
C1881 C1876 1.390 . S
C1881 C1880 1.387 1_545 S
H1882 C1894 0.930 . S
H1883 C1896 0.930 . S
H1884 C1897 0.930 . S
H1885 C1901 0.959 . S
H1886 C1901 0.959 . S
H1887 C1901 0.961 . S
H1888 C1902 0.960 . S
H1889 C1902 0.961 . S
H1890 C1902 0.959 . S
H1891 C1905 0.929 . S
H1892 C1906 0.931 . S
H1893 C1908 0.930 . S
C1894 H1882 0.930 . S
C1894 C1895 1.399 . S
C1894 C1899 1.399 . S
C1895 C1894 1.399 . S
C1895 C1896 1.376 . S
C1896 H1883 0.930 . S
C1896 C1895 1.376 . S
C1896 C1897 1.388 . S
C1897 H1884 0.930 . S
C1897 C1896 1.388 . S
C1897 C1898 1.390 . S
C1898 C1897 1.390 . S
C1898 C1899 1.394 . S
C1898 C1904 1.465 . S
C1899 C1894 1.399 . S
C1899 C1898 1.394 . S
C1899 C1900 1.516 . S
C1900 C1899 1.516 . S
C1900 C1901 1.502 . S
C1900 C1902 1.561 . S
C1900 C1903 1.526 . S
C1901 H1885 0.959 . S
C1901 H1886 0.959 . S
C1901 H1887 0.961 . S
C1901 C1900 1.502 . S
C1902 H1888 0.960 . S
C1902 H1889 0.961 . S
C1902 H1890 0.959 . S
C1902 C1900 1.561 . S
C1903 C1900 1.526 . S
C1903 C1904 1.396 . S
C1903 C1908 1.390 . S
C1904 C1898 1.465 . S
C1904 C1903 1.396 . S
C1904 C1905 1.399 . S
C1905 H1891 0.929 . S
C1905 C1904 1.399 . S
C1905 C1906 1.385 1_554 S
C1906 H1892 0.931 . S
C1906 C1905 1.385 1_556 S
C1906 C1907 1.389 . S
C1907 C1906 1.389 . S
C1907 C1908 1.387 1_556 S
C1908 H1893 0.930 . S
C1908 C1903 1.390 . S
C1908 C1907 1.387 1_554 S
H1909 C1921 0.930 . S
H1910 C1923 0.930 . S
H1911 C1924 0.930 . S
H1912 C1928 0.959 . S
H1913 C1928 0.959 1_545 S
H1914 C1928 0.961 . S
H1915 C1929 0.960 . S
H1916 C1929 0.961 . S
H1917 C1929 0.959 . S
H1918 C1932 0.929 . S
H1919 C1933 0.931 . S
H1920 C1935 0.930 . S
C1921 H1909 0.930 . S
C1921 C1922 1.399 . S
C1921 C1926 1.399 . S
C1922 C1921 1.399 . S
C1922 C1923 1.376 . S
C1923 H1910 0.930 . S
C1923 C1922 1.376 . S
C1923 C1924 1.388 . S
C1924 H1911 0.930 . S
C1924 C1923 1.388 . S
C1924 C1925 1.390 . S
C1925 C1924 1.390 . S
C1925 C1926 1.394 . S
C1925 C1931 1.465 . S
C1926 C1921 1.399 . S
C1926 C1925 1.394 . S
C1926 C1927 1.516 . S
C1927 C1926 1.516 . S
C1927 C1928 1.502 . S
C1927 C1929 1.561 1_565 S
C1927 C1930 1.526 . S
C1928 H1912 0.959 . S
C1928 H1913 0.959 1_565 S
C1928 H1914 0.961 . S
C1928 C1927 1.502 . S
C1929 H1915 0.960 . S
C1929 H1916 0.961 . S
C1929 H1917 0.959 . S
C1929 C1927 1.561 1_545 S
C1930 C1927 1.526 . S
C1930 C1931 1.396 . S
C1930 C1935 1.390 1_565 S
C1931 C1925 1.465 . S
C1931 C1930 1.396 . S
C1931 C1932 1.399 . S
C1932 H1918 0.929 . S
C1932 C1931 1.399 . S
C1932 C1933 1.385 . S
C1933 H1919 0.931 . S
C1933 C1932 1.385 . S
C1933 C1934 1.389 . S
C1934 C1933 1.389 . S
C1934 C1935 1.387 1_565 S
C1935 H1920 0.930 . S
C1935 C1930 1.390 1_545 S
C1935 C1934 1.387 1_545 S
C653 C10 2.642 . S
C665 C410 2.665 . S
C680 C50 2.632 . S
C692 C450 2.652 . S
C707 C90 2.665 . S
C719 C330 2.646 . S
C734 C370 2.639 . S
C746 C130 2.638 . S
C761 C179 2.647 . S
C773 C579 2.660 . S
C788 C619 2.652 . S
C800 C219 2.636 . S
C815 C499 2.651 . S
C827 C259 2.637 . S
C842 C299 2.641 . S
C854 C539 2.663 . S
C869 C16 1.065 . S
C881 C167 0.866 . S
C896 C56 1.065 . S
C908 C527 0.877 . S
C923 C96 0.971 . S
C935 C247 0.937 . S
C950 C136 0.873 . S
C962 C607 1.064 . S
C977 C207 0.935 . S
C989 C376 1.028 . S
C1004 C456 1.062 . S
C1016 C287 0.886 . S
C1031 C487 1.061 . S
C1043 C336 0.865 . S
C1058 C416 0.941 . S
C1070 C567 1.024 . S
C1085 C7 0.999 . S
C1097 C290 1.219 . S
C1112 C47 1.164 . S
C1124 C490 1.152 . S
C1139 C87 0.999 . S
C1151 C210 1.218 . S
C1166 C127 1.165 . S
C1178 C570 1.150 . S
C1193 C139 1.195 . S
C1205 C176 1.002 . S
C1220 C216 1.155 . S
C1232 C339 1.148 . S
C1247 C256 1.139 . S
C1259 C59 1.144 . S
C1274 C419 1.189 . S
C1286 C296 1.005 . S
C1301 C327 1.166 . S
C1313 C610 1.147 1_565 S
C1328 C170 1.226 . S
C1340 C367 1.009 . S
C1355 C530 1.163 1_545 S
C1367 C407 1.092 . S
C1382 C250 1.143 . S
C1394 C447 1.163 . S
C1409 C496 1.134 . S
C1421 C459 1.143 1_545 S
C1436 C536 1.160 . S
C1448 C19 1.152 . S
C1463 C379 1.172 1_565 S
C1475 C576 1.163 . S
C1490 C616 1.160 . S
C1502 C99 1.152 . S
C1517 C11 4.043 . S
C1529 C362 4.096 . S
C1544 C402 4.084 . S
C1556 C51 4.058 . S
C1571 C91 4.038 . S
C1583 C442 4.085 . S
C1598 C322 4.069 . S
C1610 C131 4.056 . S
C1625 C531 4.076 . S
C1637 C162 4.055 . S
C1652 C571 4.065 . S
C1664 C202 4.068 . S
C1679 C611 4.081 . S
C1691 C242 4.050 . S
C1706 C491 4.066 . S
C1718 C282 4.068 . S
C1733 C42 4.065 . S
C1745 C331 4.066 . S
C1760 C82 4.080 . S
C1772 C371 4.062 . S
C1787 C122 4.095 . S
C1799 C411 4.032 . S
C1814 C451 4.067 . S
C1826 C2 4.066 . S
C1841 C211 4.069 . S
C1853 C482 4.063 . S
C1868 C251 4.065 . S
C1880 C522 4.068 . S
C1895 C291 4.086 . S
C1907 C562 4.047 . S
C1922 C171 4.097 . S
C1934 C602 4.033 1_565 S
