# Generated by pormake.
# Topology unh, (4)-cn, num edge types: 1
# Building blocks:
#     Node 0, Type 0, BuildingBlock: GALJAG_clean_sbu_0, # of connection points: 4
#     Node 1, Type 0, BuildingBlock: GALJAG_clean_sbu_0, # of connection points: 4
#     Node 2, Type 0, BuildingBlock: GALJAG_clean_sbu_0, # of connection points: 4
#     Node 3, Type 0, BuildingBlock: GALJAG_clean_sbu_0, # of connection points: 4
#     Node 4, Type 0, BuildingBlock: GALJAG_clean_sbu_0, # of connection points: 4
#     Node 5, Type 0, BuildingBlock: GALJAG_clean_sbu_0, # of connection points: 4
#     Edge 6, Type (0, 0), BuildingBlock: XIVTED_clean_linker_0, # of connection points: 2
#     Edge 7, Type (0, 0), BuildingBlock: XIVTED_clean_linker_0, # of connection points: 2
#     Edge 8, Type (0, 0), BuildingBlock: XIVTED_clean_linker_0, # of connection points: 2
#     Edge 9, Type (0, 0), BuildingBlock: XIVTED_clean_linker_0, # of connection points: 2
#     Edge 10, Type (0, 0), BuildingBlock: XIVTED_clean_linker_0, # of connection points: 2
#     Edge 11, Type (0, 0), BuildingBlock: XIVTED_clean_linker_0, # of connection points: 2
#     Edge 12, Type (0, 0), BuildingBlock: XIVTED_clean_linker_0, # of connection points: 2
#     Edge 13, Type (0, 0), BuildingBlock: XIVTED_clean_linker_0, # of connection points: 2
#     Edge 14, Type (0, 0), BuildingBlock: XIVTED_clean_linker_0, # of connection points: 2
#     Edge 15, Type (0, 0), BuildingBlock: XIVTED_clean_linker_0, # of connection points: 2
#     Edge 16, Type (0, 0), BuildingBlock: XIVTED_clean_linker_0, # of connection points: 2
#     Edge 17, Type (0, 0), BuildingBlock: XIVTED_clean_linker_0, # of connection points: 2
# Relax obj value: 0.030
# Max RMSD: 0.132
# Mean RMSD: 0.132
data_MOF--net-unh--node1-GALJAG_clean_sbu_0--edge1-XIVTED_clean_linker_0
_symmetry_space_group_name_H-M    P1
_symmetry_Int_Tables_number       1
_symmetry_cell_setting            triclinic
loop_
_symmetry_equiv_pos_as_xyz
'x, y, z'
_cell_length_a     45.296792
_cell_length_b     45.26634
_cell_length_c     20.397943
_cell_angle_alpha  90.010137
_cell_angle_beta   89.956587
_cell_angle_gamma 120.0664
loop_
_atom_site_label
_atom_site_type_symbol
_atom_site_fract_x
_atom_site_fract_y
_atom_site_fract_z
_atom_type_partial_charge
In0 In 0.13554 0.57385 0.09271 0.0
O1 O 0.11974 0.5327 0.01293 0.0
O2 O 0.09442 0.56159 0.01783 0.0
C3 C 0.175 0.56036 0.17146 0.0
C4 C 0.0844 0.55963 0.17668 0.0
C5 C 0.18189 0.63326 0.03663 0.0
O6 O 0.16032 0.54241 0.12153 0.0
O7 O 0.16905 0.58437 0.18206 0.0
O8 O 0.15517 0.62981 0.06334 0.0
O9 O 0.18458 0.6069 0.03723 0.0
C10 C 0.09653 0.53767 0.99084 0.0
O11 O 0.10724 0.59011 0.16475 0.0
O12 O 0.08835 0.53708 0.14837 0.0
In13 In 0.57354 0.13573 0.23122 0.0
O14 O 0.59538 0.10979 0.16675 0.0
O15 O 0.56203 0.12426 0.12287 0.0
C16 C 0.62797 0.1702 0.31071 0.0
C17 C 0.52793 0.07907 0.29663 0.0
C18 C 0.55769 0.18363 0.19643 0.0
O19 O 0.63105 0.16546 0.25066 0.0
O20 O 0.59757 0.15682 0.33064 0.0
O21 O 0.53537 0.15237 0.20028 0.0
O22 O 0.5876 0.1905 0.21023 0.0
C23 C 0.57943 0.10977 0.11604 0.0
O24 O 0.5275 0.10669 0.30031 0.0
O25 O 0.55122 0.08039 0.26096 0.0
In26 In 0.43796 0.57362 0.4099 0.0
O27 O 0.48327 0.59421 0.33902 0.0
O28 O 0.43516 0.55421 0.30638 0.0
C29 C 0.45716 0.62708 0.49137 0.0
C30 C 0.45 0.52928 0.4767 0.0
C31 C 0.37697 0.56488 0.37376 0.0
O32 O 0.46897 0.63057 0.43395 0.0
O33 O 0.43683 0.59662 0.50811 0.0
O34 O 0.38055 0.53996 0.39065 0.0
O35 O 0.40395 0.59358 0.37468 0.0
C36 C 0.46632 0.57365 0.29371 0.0
O37 O 0.4205 0.52568 0.47362 0.0
O38 O 0.47283 0.55514 0.44734 0.0
In39 In 0.86276 0.42584 0.59731 0.0
O40 O 0.91792 0.44027 0.61816 0.0
O41 O 0.88038 0.40817 0.68673 0.0
C42 C 0.81527 0.3634 0.553 0.0
C43 C 0.89562 0.46753 0.49576 0.0
C44 C 0.83047 0.45104 0.67003 0.0
O45 O 0.84675 0.37348 0.55112 0.0
O46 O 0.80801 0.38451 0.57734 0.0
O47 O 0.8346 0.45588 0.60895 0.0
O48 O 0.84361 0.43468 0.69415 0.0
C49 C 0.91157 0.42442 0.67168 0.0
O50 O 0.87398 0.43627 0.48873 0.0
O51 O 0.89959 0.47824 0.5541 0.0
In52 In 0.42796 0.86624 0.73298 0.0
O53 O 0.4063 0.89171 0.66684 0.0
O54 O 0.44186 0.87935 0.62578 0.0
C55 C 0.37417 0.83154 0.81397 0.0
C56 C 0.47341 0.9229 0.79834 0.0
C57 C 0.44183 0.81707 0.69783 0.0
O58 O 0.37063 0.838 0.7552 0.0
O59 O 0.4047 0.84353 0.83203 0.0
O60 O 0.46516 0.84764 0.70651 0.0
O61 O 0.41193 0.8116 0.70639 0.0
C62 C 0.42372 0.89294 0.6175 0.0
O63 O 0.47472 0.89569 0.79996 0.0
O64 O 0.44923 0.92112 0.76496 0.0
In65 In 0.56598 0.42946 0.90507 0.0
O66 O 0.51886 0.40768 0.83866 0.0
O67 O 0.56695 0.44261 0.79733 0.0
C68 C 0.5472 0.37472 0.98308 0.0
C69 C 0.55296 0.47301 0.97277 0.0
C70 C 0.63011 0.44608 0.87206 0.0
O71 O 0.53882 0.37184 0.92333 0.0
O72 O 0.56413 0.40507 0.00347 0.0
O73 O 0.621 0.46825 0.87572 0.0
O74 O 0.60704 0.41598 0.88489 0.0
C75 C 0.53519 0.4247 0.78907 0.0
O76 O 0.58215 0.47585 0.9727 0.0
O77 O 0.53091 0.4484 0.93962 0.0
H78 H 0.10454 0.50664 0.88143 0.0
H79 H 0.90529 0.40912 0.80195 0.0
H80 H 0.02946 0.51624 -0.00494 0.0
H81 H 0.97984 0.45256 0.64673 0.0
H82 H 0.95171 0.43008 0.88192 0.0
H83 H 0.05932 0.47023 0.80252 0.0
C84 C 0.07855 0.50079 0.88992 0.0
C85 C 0.07057 0.51471 0.94385 0.0
C86 C 0.95781 0.43432 0.83018 0.0
C87 C 0.01928 0.47263 0.8565 0.0
C88 C 0.93141 0.42224 0.78455 0.0
C89 C 0.93881 0.42964 0.71783 0.0
C90 C 0.99174 0.45349 0.80879 0.0
C91 C 0.97313 0.44675 0.69794 0.0
C92 C 0.05294 0.48013 0.84525 0.0
C93 C 0.03664 0.5064 0.95332 0.0
N94 N 0.99847 0.45849 0.74341 0.0
N95 N 0.01221 0.48579 0.91022 0.0
H96 H 0.48061 0.98586 0.78512 0.0
H97 H 0.5981 0.06115 0.10159 0.0
H98 H 0.52052 0.93134 0.89228 0.0
H99 H 0.55185 0.11079 -0.00185 0.0
H100 H 0.57984 0.01868 0.01365 0.0
H101 H 0.51577 0.03639 0.851 0.0
C102 C 0.49699 0.98461 0.82237 0.0
C103 C 0.49727 0.95424 0.83405 0.0
C104 C 0.57426 0.03924 0.00965 0.0
C105 C 0.53753 0.01205 0.91018 0.0
C106 C 0.58487 0.06361 0.05958 0.0
C107 C 0.57602 0.0892 0.05746 0.0
C108 C 0.55474 0.04061 0.95748 0.0
C109 C 0.55883 0.09121 0.00207 0.0
C110 C 0.51715 0.01353 0.85992 0.0
C111 C 0.51935 0.95421 0.8822 0.0
N112 N 0.54838 0.06698 0.95472 0.0
N113 N 0.53831 0.98259 0.91923 0.0
H114 H 0.43452 0.54044 0.18177 0.0
H115 H 0.59249 0.523 0.06179 0.0
H116 H 0.53379 0.59497 0.27219 0.0
H117 H 0.49361 0.4741 0.96902 0.0
H118 H 0.5745 0.5557 0.13057 0.0
H119 H 0.4587 0.52282 0.09371 0.0
C120 C 0.46159 0.54917 0.18241 0.0
C121 C 0.48214 0.56885 0.23456 0.0
C122 C 0.55693 0.5381 0.09459 0.0
C123 C 0.50996 0.54814 0.1347 0.0
C124 C 0.56717 0.51944 0.05545 0.0
C125 C 0.54432 0.49549 0.01041 0.0
C126 C 0.52363 0.53264 0.08845 0.0
C127 C 0.5119 0.49196 0.00378 0.0
C128 C 0.47541 0.53903 0.13221 0.0
C129 C 0.51708 0.57967 0.23285 0.0
N130 N 0.50245 0.51008 0.04273 0.0
N131 N 0.52983 0.56867 0.18425 0.0
H132 H 0.95191 0.5317 0.50187 0.0
H133 H 0.02418 0.50047 0.173 0.0
H134 H 0.89206 0.44942 0.36752 0.0
H135 H 0.0757 0.59758 0.27245 0.0
H136 H 0.97467 0.48312 0.24281 0.0
H137 H 0.99603 0.55893 0.41734 0.0
C138 C 0.94769 0.51978 0.45412 0.0
C139 C 0.91855 0.488 0.44192 0.0
C140 C 0.99661 0.50836 0.24929 0.0
C141 C 0.96896 0.51863 0.34581 0.0
C142 C 0.02502 0.51818 0.20971 0.0
C143 C 0.05418 0.55032 0.21766 0.0
C144 C 0.99745 0.53055 0.29826 0.0
C145 C 0.05369 0.57247 0.2652 0.0
C146 C 0.97292 0.53528 0.40602 0.0
C147 C 0.91433 0.47369 0.3793 0.0
N148 N 0.02587 0.56197 0.30457 0.0
N149 N 0.9395 0.48884 0.33399 0.0
H150 H 0.52013 0.01588 0.28253 0.0
H151 H 0.40393 0.94063 0.60158 0.0
H152 H 0.48206 0.07109 0.39312 0.0
H153 H 0.45309 0.89302 0.50103 0.0
H154 H 0.42189 0.98294 0.5133 0.0
H155 H 0.48577 0.96564 0.34977 0.0
C156 C 0.5043 0.01734 0.32078 0.0
C157 C 0.50433 0.04784 0.33302 0.0
C158 C 0.42821 0.96287 0.51005 0.0
C159 C 0.46498 0.99034 0.41065 0.0
C160 C 0.41777 0.93858 0.56015 0.0
C161 C 0.42745 0.91359 0.55888 0.0
C162 C 0.44832 0.96195 0.45848 0.0
C163 C 0.44544 0.91212 0.50425 0.0
C164 C 0.48462 0.98859 0.35914 0.0
C165 C 0.48297 0.04812 0.38255 0.0
N166 N 0.45561 0.9362 0.45663 0.0
N167 N 0.46443 0.01988 0.42023 0.0
H168 H 0.56462 0.45296 0.67204 0.0
H169 H 0.40933 0.4778 0.56243 0.0
H170 H 0.46805 0.40634 0.7735 0.0
H171 H 0.50898 0.52755 0.47246 0.0
H172 H 0.4262 0.44324 0.62833 0.0
H173 H 0.54013 0.47103 0.58535 0.0
C174 C 0.53802 0.44595 0.67537 0.0
C175 C 0.51845 0.42855 0.73034 0.0
C176 C 0.44419 0.46147 0.59359 0.0
C177 C 0.49039 0.44987 0.63208 0.0
C178 C 0.43458 0.48117 0.55609 0.0
C179 C 0.45799 0.50589 0.51277 0.0
C180 C 0.47735 0.46655 0.58731 0.0
C181 C 0.4903 0.50913 0.50602 0.0
C182 C 0.52405 0.45641 0.62601 0.0
C183 C 0.48405 0.4199 0.732 0.0
N184 N 0.49907 0.48991 0.5432 0.0
N185 N 0.47123 0.4312 0.68411 0.0
H186 H 0.19201 0.51018 0.16166 0.0
H187 H 0.35978 0.61425 0.37233 0.0
H188 H 0.21496 0.601 0.27048 0.0
H189 H 0.31978 0.50765 0.32847 0.0
H190 H 0.30709 0.60983 0.33191 0.0
H191 H 0.23842 0.50803 0.21956 0.0
C192 C 0.20652 0.52939 0.19825 0.0
C193 C 0.19986 0.55598 0.21093 0.0
C194 C 0.30962 0.58727 0.33159 0.0
C195 C 0.25298 0.55391 0.2764 0.0
C196 C 0.33976 0.58983 0.35439 0.0
C197 C 0.34412 0.5613 0.35336 0.0
C198 C 0.28382 0.55611 0.30632 0.0
C199 C 0.31731 0.53022 0.33004 0.0
C200 C 0.23292 0.52812 0.23127 0.0
C201 C 0.21934 0.58017 0.25888 0.0
N202 N 0.28836 0.52852 0.30654 0.0
N203 N 0.24526 0.57879 0.28923 0.0
H204 H 0.69618 0.2019 0.28081 0.0
H205 H 0.74732 0.33032 0.57898 0.0
H206 H 0.62632 0.19051 0.43577 0.0
H207 H 0.82299 0.32197 0.46476 0.0
H208 H 0.70276 0.27874 0.52654 0.0
H209 H 0.74339 0.24518 0.34659 0.0
C210 C 0.69085 0.20817 0.329 0.0
C211 C 0.65727 0.19283 0.35268 0.0
C212 C 0.72911 0.2879 0.51336 0.0
C213 C 0.71092 0.24247 0.42756 0.0
C214 C 0.75454 0.31741 0.54316 0.0
C215 C 0.78882 0.33045 0.52588 0.0
C216 C 0.7379 0.27161 0.46491 0.0
C217 C 0.79681 0.31266 0.47941 0.0
C218 C 0.71778 0.23283 0.36649 0.0
C219 C 0.65178 0.20183 0.41544 0.0
N220 N 0.77145 0.28434 0.44976 0.0
N221 N 0.67825 0.22635 0.45031 0.0
H222 H 0.39993 0.74878 0.71242 0.0
H223 H 0.49988 0.69538 0.4681 0.0
H224 H 0.4986 0.82313 0.63674 0.0
H225 H 0.42592 0.62525 0.60667 0.0
H226 H 0.50079 0.74296 0.52753 0.0
H227 H 0.40893 0.70318 0.67183 0.0
C228 C 0.42361 0.75546 0.68751 0.0
C229 C 0.4485 0.78969 0.67752 0.0
C230 C 0.48483 0.71718 0.54546 0.0
C231 C 0.45884 0.73767 0.63025 0.0
C232 C 0.48429 0.69005 0.51162 0.0
C233 C 0.46255 0.65632 0.53218 0.0
C234 C 0.46304 0.71037 0.59939 0.0
C235 C 0.44291 0.65083 0.58888 0.0
C236 C 0.42882 0.72944 0.66465 0.0
C237 C 0.47881 0.79698 0.64535 0.0
N238 N 0.44322 0.67752 0.61988 0.0
N239 N 0.48296 0.77113 0.62191 0.0
H240 H 0.67623 0.49942 0.79635 0.0
H241 H 0.81024 0.43356 0.79669 0.0
H242 H 0.66178 0.41029 0.90084 0.0
H243 H 0.79917 0.48679 0.63148 0.0
H244 H 0.76574 0.43867 0.85435 0.0
H245 H 0.73077 0.50773 0.75371 0.0
C246 C 0.68483 0.48198 0.81108 0.0
C247 C 0.6645 0.45397 0.85161 0.0
C248 C 0.7734 0.44963 0.80583 0.0
C249 C 0.72653 0.46355 0.80417 0.0
C250 C 0.79889 0.44688 0.77297 0.0
C251 C 0.80806 0.45937 0.70884 0.0
C252 C 0.75717 0.46526 0.77465 0.0
C253 C 0.79258 0.47652 0.68066 0.0
C254 C 0.71575 0.48665 0.78662 0.0
C255 C 0.6766 0.43201 0.86917 0.0
N256 N 0.76761 0.47874 0.71359 0.0
N257 N 0.70683 0.43726 0.84534 0.0
H258 H 0.37674 0.80327 0.92994 0.0
H259 H 0.17632 0.68622 0.9839 0.0
H260 H 0.30566 0.80578 0.79241 0.0
H261 H 0.24906 0.65398 0.02765 0.0
H262 H 0.22281 0.73904 0.93496 0.0
H263 H 0.32889 0.75792 0.99029 0.0
C264 C 0.35103 0.7947 0.91305 0.0
C265 C 0.34514 0.80803 0.85569 0.0
C266 C 0.2284 0.72036 0.95571 0.0
C267 C 0.29039 0.75628 0.92473 0.0
C268 C 0.20206 0.69042 0.98364 0.0
C269 C 0.20898 0.66575 0.00924 0.0
C270 C 0.26178 0.72581 0.95544 0.0
C271 C 0.24264 0.67224 0.0078 0.0
C272 C 0.3238 0.76872 0.94734 0.0
C273 C 0.31125 0.79595 0.83616 0.0
N274 N 0.26781 0.70171 0.9817 0.0
N275 N 0.28502 0.77055 0.87053 0.0
H276 H 0.57231 0.37626 0.10516 0.0
H277 H 0.50317 0.17559 0.12404 0.0
H278 H 0.50972 0.30649 0.95345 0.0
H279 H 0.5954 0.25196 0.21791 0.0
H280 H 0.49484 0.22128 0.07885 0.0
H281 H 0.56975 0.3284 0.16545 0.0
C282 C 0.55758 0.35079 0.08499 0.0
C283 C 0.54151 0.34536 0.02385 0.0
C284 C 0.51667 0.22788 0.10992 0.0
C285 C 0.53853 0.29055 0.09262 0.0
C286 C 0.52135 0.20192 0.13586 0.0
C287 C 0.55015 0.21015 0.17425 0.0
C288 C 0.54063 0.26212 0.12364 0.0
C289 C 0.57302 0.24459 0.18801 0.0
C290 C 0.55627 0.32353 0.11931 0.0
C291 C 0.5227 0.31179 0.00019 0.0
N292 N 0.56779 0.26931 0.1627 0.0
N293 N 0.52188 0.2856 0.03447 0.0
loop_
_geom_bond_atom_site_label_1
_geom_bond_atom_site_label_2
_geom_bond_distance
_geom_bond_site_symmetry_2
_ccdc_geom_bond_type
In0 O1 2.294 . S
In0 O2 2.326 . S
In0 O6 2.266 . S
In0 O7 2.326 . S
In0 O8 2.266 . S
In0 O9 2.326 . S
In0 O11 2.294 . S
In0 O12 2.326 . S
O1 In0 2.294 . S
O1 C10 1.240 1_554 S
O2 In0 2.326 . S
O2 C10 1.252 1_554 S
C3 O6 1.252 . S
C3 O7 1.260 . S
C4 O11 1.240 . S
C4 O12 1.252 . S
C5 O8 1.252 . S
C5 O9 1.260 . S
O6 In0 2.266 . S
O6 C3 1.252 . S
O7 In0 2.326 . S
O7 C3 1.260 . S
O8 In0 2.266 . S
O8 C5 1.252 . S
O9 In0 2.326 . S
O9 C5 1.260 . S
C10 O1 1.240 1_556 S
C10 O2 1.252 1_556 S
O11 In0 2.294 . S
O11 C4 1.240 . S
O12 In0 2.326 . S
O12 C4 1.252 . S
In13 O14 2.294 . S
In13 O15 2.326 . S
In13 O19 2.266 . S
In13 O20 2.326 . S
In13 O21 2.266 . S
In13 O22 2.326 . S
In13 O24 2.294 . S
In13 O25 2.326 . S
O14 In13 2.294 . S
O14 C23 1.240 . S
O15 In13 2.326 . S
O15 C23 1.252 . S
C16 O19 1.252 . S
C16 O20 1.260 . S
C17 O24 1.240 . S
C17 O25 1.252 . S
C18 O21 1.252 . S
C18 O22 1.260 . S
O19 In13 2.266 . S
O19 C16 1.252 . S
O20 In13 2.326 . S
O20 C16 1.260 . S
O21 In13 2.266 . S
O21 C18 1.252 . S
O22 In13 2.326 . S
O22 C18 1.260 . S
C23 O14 1.240 . S
C23 O15 1.252 . S
O24 In13 2.294 . S
O24 C17 1.240 . S
O25 In13 2.326 . S
O25 C17 1.252 . S
In26 O27 2.294 . S
In26 O28 2.326 . S
In26 O32 2.266 . S
In26 O33 2.326 . S
In26 O34 2.266 . S
In26 O35 2.326 . S
In26 O37 2.294 . S
In26 O38 2.326 . S
O27 In26 2.294 . S
O27 C36 1.240 . S
O28 In26 2.326 . S
O28 C36 1.252 . S
C29 O32 1.252 . S
C29 O33 1.260 . S
C30 O37 1.240 . S
C30 O38 1.252 . S
C31 O34 1.252 . S
C31 O35 1.260 . S
O32 In26 2.266 . S
O32 C29 1.252 . S
O33 In26 2.326 . S
O33 C29 1.260 . S
O34 In26 2.266 . S
O34 C31 1.252 . S
O35 In26 2.326 . S
O35 C31 1.260 . S
C36 O27 1.240 . S
C36 O28 1.252 . S
O37 In26 2.294 . S
O37 C30 1.240 . S
O38 In26 2.326 . S
O38 C30 1.252 . S
In39 O40 2.294 . S
In39 O41 2.326 . S
In39 O45 2.266 . S
In39 O46 2.326 . S
In39 O47 2.266 . S
In39 O48 2.326 . S
In39 O50 2.294 . S
In39 O51 2.326 . S
O40 In39 2.294 . S
O40 C49 1.240 . S
O41 In39 2.326 . S
O41 C49 1.252 . S
C42 O45 1.252 . S
C42 O46 1.260 . S
C43 O50 1.240 . S
C43 O51 1.252 . S
C44 O47 1.252 . S
C44 O48 1.260 . S
O45 In39 2.266 . S
O45 C42 1.252 . S
O46 In39 2.326 . S
O46 C42 1.260 . S
O47 In39 2.266 . S
O47 C44 1.252 . S
O48 In39 2.326 . S
O48 C44 1.260 . S
C49 O40 1.240 . S
C49 O41 1.252 . S
O50 In39 2.294 . S
O50 C43 1.240 . S
O51 In39 2.326 . S
O51 C43 1.252 . S
In52 O53 2.294 . S
In52 O54 2.326 . S
In52 O58 2.266 . S
In52 O59 2.326 . S
In52 O60 2.266 . S
In52 O61 2.326 . S
In52 O63 2.294 . S
In52 O64 2.326 . S
O53 In52 2.294 . S
O53 C62 1.240 . S
O54 In52 2.326 . S
O54 C62 1.252 . S
C55 O58 1.252 . S
C55 O59 1.260 . S
C56 O63 1.240 . S
C56 O64 1.252 . S
C57 O60 1.252 . S
C57 O61 1.260 . S
O58 In52 2.266 . S
O58 C55 1.252 . S
O59 In52 2.326 . S
O59 C55 1.260 . S
O60 In52 2.266 . S
O60 C57 1.252 . S
O61 In52 2.326 . S
O61 C57 1.260 . S
C62 O53 1.240 . S
C62 O54 1.252 . S
O63 In52 2.294 . S
O63 C56 1.240 . S
O64 In52 2.326 . S
O64 C56 1.252 . S
In65 O66 2.294 . S
In65 O67 2.326 . S
In65 O71 2.266 . S
In65 O72 2.326 . S
In65 O73 2.266 . S
In65 O74 2.326 . S
In65 O76 2.294 . S
In65 O77 2.326 . S
O66 In65 2.294 . S
O66 C75 1.240 . S
O67 In65 2.326 . S
O67 C75 1.252 . S
C68 O71 1.252 . S
C68 O72 1.260 . S
C69 O76 1.240 1_554 S
C69 O77 1.252 1_554 S
C70 O73 1.252 . S
C70 O74 1.260 . S
O71 In65 2.266 . S
O71 C68 1.252 . S
O72 In65 2.326 . S
O72 C68 1.260 . S
O73 In65 2.266 . S
O73 C70 1.252 . S
O74 In65 2.326 . S
O74 C70 1.260 . S
C75 O66 1.240 . S
C75 O67 1.252 . S
O76 In65 2.294 . S
O76 C69 1.240 1_556 S
O77 In65 2.326 . S
O77 C69 1.252 1_556 S
H78 C84 0.930 . S
H79 C88 0.930 . S
H80 C93 0.929 1_554 S
H81 C91 0.929 . S
H82 C86 0.929 . S
H83 C92 0.929 . S
C84 H78 0.930 . S
C84 C85 1.367 . S
C84 C92 1.378 . S
C85 C84 1.367 . S
C85 C93 1.433 . S
C86 H82 0.929 . S
C86 C88 1.378 . S
C86 C90 1.350 . S
C87 C90 1.463 1_455 S
C87 C92 1.350 . S
C87 N95 1.427 . S
C88 H79 0.930 . S
C88 C86 1.378 . S
C88 C89 1.367 . S
C89 C88 1.367 . S
C89 C91 1.433 . S
C90 C86 1.350 . S
C90 C87 1.463 1_655 S
C90 N94 1.427 . S
C91 H81 0.929 . S
C91 C89 1.433 . S
C91 N94 1.384 . S
C92 H83 0.929 . S
C92 C84 1.378 . S
C92 C87 1.350 . S
C93 H80 0.929 1_556 S
C93 C85 1.433 . S
C93 N95 1.384 . S
N94 C90 1.427 . S
N94 C91 1.384 . S
N95 C87 1.427 . S
N95 C93 1.384 . S
H96 C102 0.930 . S
H97 C106 0.930 . S
H98 C111 0.929 . S
H99 C109 0.929 . S
H100 C104 0.929 1_565 S
H101 C110 0.929 1_545 S
C102 H96 0.930 . S
C102 C103 1.367 . S
C102 C110 1.378 . S
C103 C102 1.367 . S
C103 C111 1.433 . S
C104 H100 0.929 1_545 S
C104 C106 1.378 . S
C104 C108 1.350 . S
C105 C108 1.463 1_566 S
C105 C110 1.350 . S
C105 N113 1.427 . S
C106 H97 0.930 . S
C106 C104 1.378 . S
C106 C107 1.367 . S
C107 C106 1.367 . S
C107 C109 1.433 . S
C108 C104 1.350 . S
C108 C105 1.463 1_544 S
C108 N112 1.427 . S
C109 H99 0.929 . S
C109 C107 1.433 . S
C109 N112 1.384 . S
C110 H101 0.929 1_565 S
C110 C102 1.378 . S
C110 C105 1.350 . S
C111 H98 0.929 . S
C111 C103 1.433 . S
C111 N113 1.384 . S
N112 C108 1.427 . S
N112 C109 1.384 . S
N113 C105 1.427 . S
N113 C111 1.384 . S
H114 C120 0.930 . S
H115 C124 0.930 . S
H116 C129 0.929 . S
H117 C127 0.929 . S
H118 C122 0.929 . S
H119 C128 0.929 . S
C120 H114 0.930 . S
C120 C121 1.367 . S
C120 C128 1.378 . S
C121 C120 1.367 . S
C121 C129 1.433 . S
C122 H118 0.929 . S
C122 C124 1.378 . S
C122 C126 1.350 . S
C123 C126 1.463 . S
C123 C128 1.350 . S
C123 N131 1.427 . S
C124 H115 0.930 . S
C124 C122 1.378 . S
C124 C125 1.367 . S
C125 C124 1.367 . S
C125 C127 1.433 . S
C126 C122 1.350 . S
C126 C123 1.463 . S
C126 N130 1.427 . S
C127 H117 0.929 . S
C127 C125 1.433 . S
C127 N130 1.384 . S
C128 H119 0.929 . S
C128 C120 1.378 . S
C128 C123 1.350 . S
C129 H116 0.929 . S
C129 C121 1.433 . S
C129 N131 1.384 . S
N130 C126 1.427 . S
N130 C127 1.384 . S
N131 C123 1.427 . S
N131 C129 1.384 . S
H132 C138 0.930 . S
H133 C142 0.930 . S
H134 C147 0.929 . S
H135 C145 0.929 . S
H136 C140 0.929 1_655 S
H137 C146 0.929 1_455 S
C138 H132 0.930 . S
C138 C139 1.367 . S
C138 C146 1.378 . S
C139 C138 1.367 . S
C139 C147 1.433 . S
C140 H136 0.929 1_455 S
C140 C142 1.378 . S
C140 C144 1.350 . S
C141 C144 1.463 1_655 S
C141 C146 1.350 . S
C141 N149 1.427 . S
C142 H133 0.930 . S
C142 C140 1.378 . S
C142 C143 1.367 . S
C143 C142 1.367 . S
C143 C145 1.433 . S
C144 C140 1.350 . S
C144 C141 1.463 1_455 S
C144 N148 1.427 . S
C145 H135 0.929 . S
C145 C143 1.433 . S
C145 N148 1.384 . S
C146 H137 0.929 1_655 S
C146 C138 1.378 . S
C146 C141 1.350 . S
C147 H134 0.929 . S
C147 C139 1.433 . S
C147 N149 1.384 . S
N148 C144 1.427 . S
N148 C145 1.384 . S
N149 C141 1.427 . S
N149 C147 1.384 . S
H150 C156 0.930 . S
H151 C160 0.930 . S
H152 C165 0.929 . S
H153 C163 0.929 . S
H154 C158 0.929 1_545 S
H155 C164 0.929 1_565 S
C156 H150 0.930 . S
C156 C157 1.367 . S
C156 C164 1.378 . S
C157 C156 1.367 . S
C157 C165 1.433 . S
C158 H154 0.929 1_565 S
C158 C160 1.378 . S
C158 C162 1.350 . S
C159 C162 1.463 1_545 S
C159 C164 1.350 . S
C159 N167 1.427 . S
C160 H151 0.930 . S
C160 C158 1.378 . S
C160 C161 1.367 . S
C161 C160 1.367 . S
C161 C163 1.433 . S
C162 C158 1.350 . S
C162 C159 1.463 1_565 S
C162 N166 1.427 . S
C163 H153 0.929 . S
C163 C161 1.433 . S
C163 N166 1.384 . S
C164 H155 0.929 1_545 S
C164 C156 1.378 . S
C164 C159 1.350 . S
C165 H152 0.929 . S
C165 C157 1.433 . S
C165 N167 1.384 . S
N166 C162 1.427 . S
N166 C163 1.384 . S
N167 C159 1.427 . S
N167 C165 1.384 . S
H168 C174 0.930 . S
H169 C178 0.930 . S
H170 C183 0.929 . S
H171 C181 0.929 . S
H172 C176 0.929 . S
H173 C182 0.929 . S
C174 H168 0.930 . S
C174 C175 1.367 . S
C174 C182 1.378 . S
C175 C174 1.367 . S
C175 C183 1.433 . S
C176 H172 0.929 . S
C176 C178 1.378 . S
C176 C180 1.350 . S
C177 C180 1.463 . S
C177 C182 1.350 . S
C177 N185 1.427 . S
C178 H169 0.930 . S
C178 C176 1.378 . S
C178 C179 1.367 . S
C179 C178 1.367 . S
C179 C181 1.433 . S
C180 C176 1.350 . S
C180 C177 1.463 . S
C180 N184 1.427 . S
C181 H171 0.929 . S
C181 C179 1.433 . S
C181 N184 1.384 . S
C182 H173 0.929 . S
C182 C174 1.378 . S
C182 C177 1.350 . S
C183 H170 0.929 . S
C183 C175 1.433 . S
C183 N185 1.384 . S
N184 C180 1.427 . S
N184 C181 1.384 . S
N185 C177 1.427 . S
N185 C183 1.384 . S
H186 C192 0.930 . S
H187 C196 0.930 . S
H188 C201 0.929 . S
H189 C199 0.929 . S
H190 C194 0.929 . S
H191 C200 0.929 . S
C192 H186 0.930 . S
C192 C193 1.367 . S
C192 C200 1.378 . S
C193 C192 1.367 . S
C193 C201 1.433 . S
C194 H190 0.929 . S
C194 C196 1.378 . S
C194 C198 1.350 . S
C195 C198 1.463 . S
C195 C200 1.350 . S
C195 N203 1.427 . S
C196 H187 0.930 . S
C196 C194 1.378 . S
C196 C197 1.367 . S
C197 C196 1.367 . S
C197 C199 1.433 . S
C198 C194 1.350 . S
C198 C195 1.463 . S
C198 N202 1.427 . S
C199 H189 0.929 . S
C199 C197 1.433 . S
C199 N202 1.384 . S
C200 H191 0.929 . S
C200 C192 1.378 . S
C200 C195 1.350 . S
C201 H188 0.929 . S
C201 C193 1.433 . S
C201 N203 1.384 . S
N202 C198 1.427 . S
N202 C199 1.384 . S
N203 C195 1.427 . S
N203 C201 1.384 . S
H204 C210 0.930 . S
H205 C214 0.930 . S
H206 C219 0.929 . S
H207 C217 0.929 . S
H208 C212 0.929 . S
H209 C218 0.929 . S
C210 H204 0.930 . S
C210 C211 1.367 . S
C210 C218 1.378 . S
C211 C210 1.367 . S
C211 C219 1.433 . S
C212 H208 0.929 . S
C212 C214 1.378 . S
C212 C216 1.350 . S
C213 C216 1.463 . S
C213 C218 1.350 . S
C213 N221 1.427 . S
C214 H205 0.930 . S
C214 C212 1.378 . S
C214 C215 1.367 . S
C215 C214 1.367 . S
C215 C217 1.433 . S
C216 C212 1.350 . S
C216 C213 1.463 . S
C216 N220 1.427 . S
C217 H207 0.929 . S
C217 C215 1.433 . S
C217 N220 1.384 . S
C218 H209 0.929 . S
C218 C210 1.378 . S
C218 C213 1.350 . S
C219 H206 0.929 . S
C219 C211 1.433 . S
C219 N221 1.384 . S
N220 C216 1.427 . S
N220 C217 1.384 . S
N221 C213 1.427 . S
N221 C219 1.384 . S
H222 C228 0.930 . S
H223 C232 0.930 . S
H224 C237 0.929 . S
H225 C235 0.929 . S
H226 C230 0.929 . S
H227 C236 0.929 . S
C228 H222 0.930 . S
C228 C229 1.367 . S
C228 C236 1.378 . S
C229 C228 1.367 . S
C229 C237 1.433 . S
C230 H226 0.929 . S
C230 C232 1.378 . S
C230 C234 1.350 . S
C231 C234 1.463 . S
C231 C236 1.350 . S
C231 N239 1.427 . S
C232 H223 0.930 . S
C232 C230 1.378 . S
C232 C233 1.367 . S
C233 C232 1.367 . S
C233 C235 1.433 . S
C234 C230 1.350 . S
C234 C231 1.463 . S
C234 N238 1.427 . S
C235 H225 0.929 . S
C235 C233 1.433 . S
C235 N238 1.384 . S
C236 H227 0.929 . S
C236 C228 1.378 . S
C236 C231 1.350 . S
C237 H224 0.929 . S
C237 C229 1.433 . S
C237 N239 1.384 . S
N238 C234 1.427 . S
N238 C235 1.384 . S
N239 C231 1.427 . S
N239 C237 1.384 . S
H240 C246 0.930 . S
H241 C250 0.930 . S
H242 C255 0.929 . S
H243 C253 0.929 . S
H244 C248 0.929 . S
H245 C254 0.929 . S
C246 H240 0.930 . S
C246 C247 1.367 . S
C246 C254 1.378 . S
C247 C246 1.367 . S
C247 C255 1.433 . S
C248 H244 0.929 . S
C248 C250 1.378 . S
C248 C252 1.350 . S
C249 C252 1.463 . S
C249 C254 1.350 . S
C249 N257 1.427 . S
C250 H241 0.930 . S
C250 C248 1.378 . S
C250 C251 1.367 . S
C251 C250 1.367 . S
C251 C253 1.433 . S
C252 C248 1.350 . S
C252 C249 1.463 . S
C252 N256 1.427 . S
C253 H243 0.929 . S
C253 C251 1.433 . S
C253 N256 1.384 . S
C254 H245 0.929 . S
C254 C246 1.378 . S
C254 C249 1.350 . S
C255 H242 0.929 . S
C255 C247 1.433 . S
C255 N257 1.384 . S
N256 C252 1.427 . S
N256 C253 1.384 . S
N257 C249 1.427 . S
N257 C255 1.384 . S
H258 C264 0.930 . S
H259 C268 0.930 . S
H260 C273 0.929 . S
H261 C271 0.929 . S
H262 C266 0.929 . S
H263 C272 0.929 . S
C264 H258 0.930 . S
C264 C265 1.367 . S
C264 C272 1.378 . S
C265 C264 1.367 . S
C265 C273 1.433 . S
C266 H262 0.929 . S
C266 C268 1.378 1_556 S
C266 C270 1.350 . S
C267 C270 1.463 . S
C267 C272 1.350 . S
C267 N275 1.427 . S
C268 H259 0.930 . S
C268 C266 1.378 1_554 S
C268 C269 1.367 . S
C269 C268 1.367 . S
C269 C271 1.433 1_554 S
C270 C266 1.350 . S
C270 C267 1.463 . S
C270 N274 1.427 . S
C271 H261 0.929 . S
C271 C269 1.433 1_556 S
C271 N274 1.384 . S
C272 H263 0.929 . S
C272 C264 1.378 . S
C272 C267 1.350 . S
C273 H260 0.929 . S
C273 C265 1.433 . S
C273 N275 1.384 . S
N274 C270 1.427 . S
N274 C271 1.384 . S
N275 C267 1.427 . S
N275 C273 1.384 . S
H276 C282 0.930 . S
H277 C286 0.930 . S
H278 C291 0.929 . S
H279 C289 0.929 . S
H280 C284 0.929 . S
H281 C290 0.929 . S
C282 H276 0.930 . S
C282 C283 1.354 1_554 S
C282 C290 1.378 . S
C283 C282 1.354 1_556 S
C283 C291 1.438 . S
C284 H280 0.929 . S
C284 C286 1.378 . S
C284 C288 1.350 . S
C285 C288 1.463 . S
C285 C290 1.350 . S
C285 N293 1.427 . S
C286 H277 0.930 . S
C286 C284 1.378 . S
C286 C287 1.367 . S
C287 C286 1.367 . S
C287 C289 1.433 . S
C288 C284 1.350 . S
C288 C285 1.463 . S
C288 N292 1.427 . S
C289 H279 0.929 . S
C289 C287 1.433 . S
C289 N292 1.384 . S
C290 H281 0.929 . S
C290 C282 1.378 . S
C290 C285 1.350 . S
C291 H278 0.929 . S
C291 C283 1.438 . S
C291 N293 1.384 1_556 S
N292 C288 1.427 . S
N292 C289 1.384 . S
N293 C285 1.427 . S
N293 C291 1.384 1_554 S
C85 C10 1.349 . S
C89 C49 1.349 . S
C103 C56 1.345 . S
C107 C23 1.347 . S
C121 C36 1.346 . S
C125 C69 1.350 . S
C139 C43 1.346 . S
C143 C4 1.346 . S
C157 C17 1.345 . S
C161 C62 1.348 . S
C175 C75 1.346 . S
C179 C30 1.350 . S
C193 C3 1.343 . S
C197 C31 1.338 . S
C211 C16 1.343 . S
C215 C42 1.337 . S
C229 C57 1.338 . S
C233 C29 1.343 . S
C247 C70 1.341 . S
C251 C44 1.337 . S
C265 C55 1.339 . S
C269 C5 1.343 . S
C283 C68 1.344 . S
C287 C18 1.341 . S
