# Generated by pormake.
# Topology som, (6)-cn, num edge types: 1
# Building blocks:
#     Node 0, Type 0, BuildingBlock: UKALOJ_clean_sbu_0, # of connection points: 6
#     Node 1, Type 0, BuildingBlock: UKALOJ_clean_sbu_0, # of connection points: 6
#     Node 2, Type 0, BuildingBlock: UKALOJ_clean_sbu_0, # of connection points: 6
#     Node 3, Type 0, BuildingBlock: UKALOJ_clean_sbu_0, # of connection points: 6
#     Node 4, Type 0, BuildingBlock: UKALOJ_clean_sbu_0, # of connection points: 6
#     Node 5, Type 0, BuildingBlock: UKALOJ_clean_sbu_0, # of connection points: 6
#     Node 6, Type 0, BuildingBlock: UKALOJ_clean_sbu_0, # of connection points: 6
#     Node 7, Type 0, BuildingBlock: UKALOJ_clean_sbu_0, # of connection points: 6
#     Node 8, Type 0, BuildingBlock: UKALOJ_clean_sbu_0, # of connection points: 6
#     Node 9, Type 0, BuildingBlock: UKALOJ_clean_sbu_0, # of connection points: 6
#     Node 10, Type 0, BuildingBlock: UKALOJ_clean_sbu_0, # of connection points: 6
#     Node 11, Type 0, BuildingBlock: UKALOJ_clean_sbu_0, # of connection points: 6
#     Node 12, Type 0, BuildingBlock: UKALOJ_clean_sbu_0, # of connection points: 6
#     Node 13, Type 0, BuildingBlock: UKALOJ_clean_sbu_0, # of connection points: 6
#     Node 14, Type 0, BuildingBlock: UKALOJ_clean_sbu_0, # of connection points: 6
#     Node 15, Type 0, BuildingBlock: UKALOJ_clean_sbu_0, # of connection points: 6
#     Node 16, Type 0, BuildingBlock: UKALOJ_clean_sbu_0, # of connection points: 6
#     Node 17, Type 0, BuildingBlock: UKALOJ_clean_sbu_0, # of connection points: 6
#     Node 18, Type 0, BuildingBlock: UKALOJ_clean_sbu_0, # of connection points: 6
#     Node 19, Type 0, BuildingBlock: UKALOJ_clean_sbu_0, # of connection points: 6
#     Node 20, Type 0, BuildingBlock: UKALOJ_clean_sbu_0, # of connection points: 6
#     Node 21, Type 0, BuildingBlock: UKALOJ_clean_sbu_0, # of connection points: 6
#     Node 22, Type 0, BuildingBlock: UKALOJ_clean_sbu_0, # of connection points: 6
#     Node 23, Type 0, BuildingBlock: UKALOJ_clean_sbu_0, # of connection points: 6
#     Node 24, Type 0, BuildingBlock: UKALOJ_clean_sbu_0, # of connection points: 6
#     Node 25, Type 0, BuildingBlock: UKALOJ_clean_sbu_0, # of connection points: 6
#     Node 26, Type 0, BuildingBlock: UKALOJ_clean_sbu_0, # of connection points: 6
#     Node 27, Type 0, BuildingBlock: UKALOJ_clean_sbu_0, # of connection points: 6
#     Node 28, Type 0, BuildingBlock: UKALOJ_clean_sbu_0, # of connection points: 6
#     Node 29, Type 0, BuildingBlock: UKALOJ_clean_sbu_0, # of connection points: 6
#     Node 30, Type 0, BuildingBlock: UKALOJ_clean_sbu_0, # of connection points: 6
#     Node 31, Type 0, BuildingBlock: UKALOJ_clean_sbu_0, # of connection points: 6
#     Edge 32, Type (0, 0), BuildingBlock: XIVTED_clean_linker_0, # of connection points: 2
#     Edge 33, Type (0, 0), BuildingBlock: XIVTED_clean_linker_0, # of connection points: 2
#     Edge 34, Type (0, 0), BuildingBlock: XIVTED_clean_linker_0, # of connection points: 2
#     Edge 35, Type (0, 0), BuildingBlock: XIVTED_clean_linker_0, # of connection points: 2
#     Edge 36, Type (0, 0), BuildingBlock: XIVTED_clean_linker_0, # of connection points: 2
#     Edge 37, Type (0, 0), BuildingBlock: XIVTED_clean_linker_0, # of connection points: 2
#     Edge 38, Type (0, 0), BuildingBlock: XIVTED_clean_linker_0, # of connection points: 2
#     Edge 39, Type (0, 0), BuildingBlock: XIVTED_clean_linker_0, # of connection points: 2
#     Edge 40, Type (0, 0), BuildingBlock: XIVTED_clean_linker_0, # of connection points: 2
#     Edge 41, Type (0, 0), BuildingBlock: XIVTED_clean_linker_0, # of connection points: 2
#     Edge 42, Type (0, 0), BuildingBlock: XIVTED_clean_linker_0, # of connection points: 2
#     Edge 43, Type (0, 0), BuildingBlock: XIVTED_clean_linker_0, # of connection points: 2
#     Edge 44, Type (0, 0), BuildingBlock: XIVTED_clean_linker_0, # of connection points: 2
#     Edge 45, Type (0, 0), BuildingBlock: XIVTED_clean_linker_0, # of connection points: 2
#     Edge 46, Type (0, 0), BuildingBlock: XIVTED_clean_linker_0, # of connection points: 2
#     Edge 47, Type (0, 0), BuildingBlock: XIVTED_clean_linker_0, # of connection points: 2
#     Edge 48, Type (0, 0), BuildingBlock: XIVTED_clean_linker_0, # of connection points: 2
#     Edge 49, Type (0, 0), BuildingBlock: XIVTED_clean_linker_0, # of connection points: 2
#     Edge 50, Type (0, 0), BuildingBlock: XIVTED_clean_linker_0, # of connection points: 2
#     Edge 51, Type (0, 0), BuildingBlock: XIVTED_clean_linker_0, # of connection points: 2
#     Edge 52, Type (0, 0), BuildingBlock: XIVTED_clean_linker_0, # of connection points: 2
#     Edge 53, Type (0, 0), BuildingBlock: XIVTED_clean_linker_0, # of connection points: 2
#     Edge 54, Type (0, 0), BuildingBlock: XIVTED_clean_linker_0, # of connection points: 2
#     Edge 55, Type (0, 0), BuildingBlock: XIVTED_clean_linker_0, # of connection points: 2
#     Edge 56, Type (0, 0), BuildingBlock: XIVTED_clean_linker_0, # of connection points: 2
#     Edge 57, Type (0, 0), BuildingBlock: XIVTED_clean_linker_0, # of connection points: 2
#     Edge 58, Type (0, 0), BuildingBlock: XIVTED_clean_linker_0, # of connection points: 2
#     Edge 59, Type (0, 0), BuildingBlock: XIVTED_clean_linker_0, # of connection points: 2
#     Edge 60, Type (0, 0), BuildingBlock: XIVTED_clean_linker_0, # of connection points: 2
#     Edge 61, Type (0, 0), BuildingBlock: XIVTED_clean_linker_0, # of connection points: 2
#     Edge 62, Type (0, 0), BuildingBlock: XIVTED_clean_linker_0, # of connection points: 2
#     Edge 63, Type (0, 0), BuildingBlock: XIVTED_clean_linker_0, # of connection points: 2
#     Edge 64, Type (0, 0), BuildingBlock: XIVTED_clean_linker_0, # of connection points: 2
#     Edge 65, Type (0, 0), BuildingBlock: XIVTED_clean_linker_0, # of connection points: 2
#     Edge 66, Type (0, 0), BuildingBlock: XIVTED_clean_linker_0, # of connection points: 2
#     Edge 67, Type (0, 0), BuildingBlock: XIVTED_clean_linker_0, # of connection points: 2
#     Edge 68, Type (0, 0), BuildingBlock: XIVTED_clean_linker_0, # of connection points: 2
#     Edge 69, Type (0, 0), BuildingBlock: XIVTED_clean_linker_0, # of connection points: 2
#     Edge 70, Type (0, 0), BuildingBlock: XIVTED_clean_linker_0, # of connection points: 2
#     Edge 71, Type (0, 0), BuildingBlock: XIVTED_clean_linker_0, # of connection points: 2
#     Edge 72, Type (0, 0), BuildingBlock: XIVTED_clean_linker_0, # of connection points: 2
#     Edge 73, Type (0, 0), BuildingBlock: XIVTED_clean_linker_0, # of connection points: 2
#     Edge 74, Type (0, 0), BuildingBlock: XIVTED_clean_linker_0, # of connection points: 2
#     Edge 75, Type (0, 0), BuildingBlock: XIVTED_clean_linker_0, # of connection points: 2
#     Edge 76, Type (0, 0), BuildingBlock: XIVTED_clean_linker_0, # of connection points: 2
#     Edge 77, Type (0, 0), BuildingBlock: XIVTED_clean_linker_0, # of connection points: 2
#     Edge 78, Type (0, 0), BuildingBlock: XIVTED_clean_linker_0, # of connection points: 2
#     Edge 79, Type (0, 0), BuildingBlock: XIVTED_clean_linker_0, # of connection points: 2
#     Edge 80, Type (0, 0), BuildingBlock: XIVTED_clean_linker_0, # of connection points: 2
#     Edge 81, Type (0, 0), BuildingBlock: XIVTED_clean_linker_0, # of connection points: 2
#     Edge 82, Type (0, 0), BuildingBlock: XIVTED_clean_linker_0, # of connection points: 2
#     Edge 83, Type (0, 0), BuildingBlock: XIVTED_clean_linker_0, # of connection points: 2
#     Edge 84, Type (0, 0), BuildingBlock: XIVTED_clean_linker_0, # of connection points: 2
#     Edge 85, Type (0, 0), BuildingBlock: XIVTED_clean_linker_0, # of connection points: 2
#     Edge 86, Type (0, 0), BuildingBlock: XIVTED_clean_linker_0, # of connection points: 2
#     Edge 87, Type (0, 0), BuildingBlock: XIVTED_clean_linker_0, # of connection points: 2
#     Edge 88, Type (0, 0), BuildingBlock: XIVTED_clean_linker_0, # of connection points: 2
#     Edge 89, Type (0, 0), BuildingBlock: XIVTED_clean_linker_0, # of connection points: 2
#     Edge 90, Type (0, 0), BuildingBlock: XIVTED_clean_linker_0, # of connection points: 2
#     Edge 91, Type (0, 0), BuildingBlock: XIVTED_clean_linker_0, # of connection points: 2
#     Edge 92, Type (0, 0), BuildingBlock: XIVTED_clean_linker_0, # of connection points: 2
#     Edge 93, Type (0, 0), BuildingBlock: XIVTED_clean_linker_0, # of connection points: 2
#     Edge 94, Type (0, 0), BuildingBlock: XIVTED_clean_linker_0, # of connection points: 2
#     Edge 95, Type (0, 0), BuildingBlock: XIVTED_clean_linker_0, # of connection points: 2
#     Edge 96, Type (0, 0), BuildingBlock: XIVTED_clean_linker_0, # of connection points: 2
#     Edge 97, Type (0, 0), BuildingBlock: XIVTED_clean_linker_0, # of connection points: 2
#     Edge 98, Type (0, 0), BuildingBlock: XIVTED_clean_linker_0, # of connection points: 2
#     Edge 99, Type (0, 0), BuildingBlock: XIVTED_clean_linker_0, # of connection points: 2
#     Edge 100, Type (0, 0), BuildingBlock: XIVTED_clean_linker_0, # of connection points: 2
#     Edge 101, Type (0, 0), BuildingBlock: XIVTED_clean_linker_0, # of connection points: 2
#     Edge 102, Type (0, 0), BuildingBlock: XIVTED_clean_linker_0, # of connection points: 2
#     Edge 103, Type (0, 0), BuildingBlock: XIVTED_clean_linker_0, # of connection points: 2
#     Edge 104, Type (0, 0), BuildingBlock: XIVTED_clean_linker_0, # of connection points: 2
#     Edge 105, Type (0, 0), BuildingBlock: XIVTED_clean_linker_0, # of connection points: 2
#     Edge 106, Type (0, 0), BuildingBlock: XIVTED_clean_linker_0, # of connection points: 2
#     Edge 107, Type (0, 0), BuildingBlock: XIVTED_clean_linker_0, # of connection points: 2
#     Edge 108, Type (0, 0), BuildingBlock: XIVTED_clean_linker_0, # of connection points: 2
#     Edge 109, Type (0, 0), BuildingBlock: XIVTED_clean_linker_0, # of connection points: 2
#     Edge 110, Type (0, 0), BuildingBlock: XIVTED_clean_linker_0, # of connection points: 2
#     Edge 111, Type (0, 0), BuildingBlock: XIVTED_clean_linker_0, # of connection points: 2
#     Edge 112, Type (0, 0), BuildingBlock: XIVTED_clean_linker_0, # of connection points: 2
#     Edge 113, Type (0, 0), BuildingBlock: XIVTED_clean_linker_0, # of connection points: 2
#     Edge 114, Type (0, 0), BuildingBlock: XIVTED_clean_linker_0, # of connection points: 2
#     Edge 115, Type (0, 0), BuildingBlock: XIVTED_clean_linker_0, # of connection points: 2
#     Edge 116, Type (0, 0), BuildingBlock: XIVTED_clean_linker_0, # of connection points: 2
#     Edge 117, Type (0, 0), BuildingBlock: XIVTED_clean_linker_0, # of connection points: 2
#     Edge 118, Type (0, 0), BuildingBlock: XIVTED_clean_linker_0, # of connection points: 2
#     Edge 119, Type (0, 0), BuildingBlock: XIVTED_clean_linker_0, # of connection points: 2
#     Edge 120, Type (0, 0), BuildingBlock: XIVTED_clean_linker_0, # of connection points: 2
#     Edge 121, Type (0, 0), BuildingBlock: XIVTED_clean_linker_0, # of connection points: 2
#     Edge 122, Type (0, 0), BuildingBlock: XIVTED_clean_linker_0, # of connection points: 2
#     Edge 123, Type (0, 0), BuildingBlock: XIVTED_clean_linker_0, # of connection points: 2
#     Edge 124, Type (0, 0), BuildingBlock: XIVTED_clean_linker_0, # of connection points: 2
#     Edge 125, Type (0, 0), BuildingBlock: XIVTED_clean_linker_0, # of connection points: 2
#     Edge 126, Type (0, 0), BuildingBlock: XIVTED_clean_linker_0, # of connection points: 2
#     Edge 127, Type (0, 0), BuildingBlock: XIVTED_clean_linker_0, # of connection points: 2
# Relax obj value: 0.032
# Max RMSD: 0.073
# Mean RMSD: 0.071
data_MOF--net-som--node1-UKALOJ_clean_sbu_0--edge1-XIVTED_clean_linker_0
_symmetry_space_group_name_H-M    P1
_symmetry_Int_Tables_number       1
_symmetry_cell_setting            triclinic
loop_
_symmetry_equiv_pos_as_xyz
'x, y, z'
_cell_length_a     15.395674
_cell_length_b     59.144511
_cell_length_c     162.89728
_cell_angle_alpha  89.988664
_cell_angle_beta   89.946964
_cell_angle_gamma 90.005905
loop_
_atom_site_label
_atom_site_type_symbol
_atom_site_fract_x
_atom_site_fract_y
_atom_site_fract_z
_atom_type_partial_charge
Zn0 Zn 0.02278 0.48911 0.0686 0.0
O1 O 0.88761 0.4938 0.06828 0.0
C2 C -0.0046 0.44226 0.07296 0.0
Zn3 Zn 0.02142 0.48619 0.08229 0.0
C4 C 0.84569 0.49321 0.07501 0.0
O5 O 0.88632 0.49065 0.08173 0.0
C6 C 0.19854 0.48205 0.07588 0.0
O7 O 0.03817 0.5212 0.08426 0.0
O8 O 0.04026 0.52374 0.07083 0.0
N9 N 0.01172 0.47995 0.09466 0.0
C10 C 0.05206 0.48864 0.10131 0.0
C11 C 0.9616 0.464 0.1056 0.0
N12 N 0.95573 0.46465 0.09736 0.0
N13 N 0.02165 0.47885 0.10825 0.0
C14 C -0.00218 0.48791 0.04939 0.0
C15 C 0.08631 0.51391 0.04587 0.0
N16 N 0.03486 0.49588 0.05631 0.0
N17 N 0.08984 0.51197 0.05408 0.0
N18 N 0.02925 0.49898 0.04273 0.0
H19 H 0.89239 0.46981 0.05513 0.0
H20 H 0.88211 0.47338 0.04413 0.0
H21 H 0.95869 0.45342 0.0483 0.0
C22 C 0.92822 0.47022 0.04924 0.0
C23 C 0.11343 0.50831 0.10096 0.0
H24 H 0.07509 0.52401 0.10011 0.0
H25 H 0.15158 0.51026 0.10667 0.0
H26 H 0.15802 0.50661 0.09566 0.0
O27 O 0.15666 0.48169 0.0826 0.0
O28 O 0.15783 0.48444 0.06916 0.0
C29 C 0.04491 0.53316 0.07782 0.0
O30 O 0.00386 0.45436 0.06656 0.0
O31 O 0.00292 0.45133 0.08001 0.0
Zn32 Zn 0.18024 0.74654 0.08242 0.0
O33 O 0.16387 0.71135 0.08379 0.0
C34 C 0.00309 0.75108 0.07648 0.0
Zn35 Zn 0.17885 0.74443 0.06874 0.0
C36 C 0.15734 0.69972 0.07727 0.0
O37 O 0.16178 0.7095 0.07034 0.0
C38 C 0.20628 0.7911 0.0738 0.0
O39 O 0.31413 0.73985 0.06795 0.0
O40 O 0.31512 0.74201 0.08141 0.0
N41 N 0.1621 0.73994 0.05638 0.0
C42 C 0.20797 0.74541 0.0496 0.0
C43 C 0.09217 0.72895 0.04563 0.0
N44 N 0.09041 0.7297 0.05387 0.0
N45 N 0.16531 0.73864 0.04276 0.0
C46 C 0.1477 0.74451 0.10144 0.0
C47 C 0.26008 0.76168 0.10585 0.0
N48 N 0.19493 0.75074 0.09483 0.0
N49 N 0.26456 0.76141 0.0976 0.0
N50 N 0.18728 0.75125 0.10845 0.0
H51 H 0.06254 0.72101 0.09525 0.0
H52 H 0.06046 0.71935 0.10633 0.0
H53 H 0.00924 0.74261 0.10108 0.0
C54 C 0.06562 0.73094 0.101 0.0
C55 C 0.29169 0.75831 0.04972 0.0
H56 H 0.29687 0.76874 0.05534 0.0
H57 H 0.34658 0.74616 0.04969 0.0
H58 H 0.29718 0.76932 0.04423 0.0
O59 O 0.19714 0.77938 0.06732 0.0
O60 O 0.19897 0.78165 0.08078 0.0
C61 C 0.35593 0.73994 0.07467 0.0
O62 O 0.04487 0.75108 0.0832 0.0
O63 O 0.04399 0.74905 0.06976 0.0
Zn64 Zn 0.04098 0.74644 0.20746 0.0
O65 O 0.9056 0.74174 0.20791 0.0
C66 C 0.01368 0.7932 0.20266 0.0
Zn67 Zn 0.04156 0.74894 0.19378 0.0
C68 C 0.86486 0.742 0.20112 0.0
O69 O 0.90665 0.74431 0.19444 0.0
C70 C 0.21775 0.75344 0.20009 0.0
O71 O 0.05883 0.71384 0.19221 0.0
O72 O 0.05884 0.71161 0.20566 0.0
N73 N 0.03081 0.75414 0.18137 0.0
C74 C 0.07052 0.74499 0.17477 0.0
C75 C 0.97925 0.76922 0.17035 0.0
N76 N 0.97429 0.76917 0.1786 0.0
N77 N 0.03919 0.75424 0.16777 0.0
C78 C 0.0085 0.74669 0.22657 0.0
C79 C 0.12298 0.72972 0.2306 0.0
N80 N 0.05492 0.74128 0.21982 0.0
N81 N 0.12574 0.7307 0.22236 0.0
N82 N 0.05003 0.73958 0.23343 0.0
H83 H 0.86995 0.74785 0.2265 0.0
H84 H 0.92047 0.77098 0.23187 0.0
H85 H 0.92045 0.77015 0.22076 0.0
C86 C 0.92536 0.75984 0.22641 0.0
C87 C 0.13214 0.7254 0.17524 0.0
H88 H 0.09408 0.70977 0.17633 0.0
H89 H 0.16942 0.72296 0.16951 0.0
H90 H 0.17749 0.72759 0.18046 0.0
O91 O 0.17695 0.75357 0.19332 0.0
O92 O 0.17593 0.75122 0.20676 0.0
C93 C 0.06452 0.70203 0.1987 0.0
O94 O 0.02199 0.78129 0.2091 0.0
O95 O 0.02218 0.78395 0.19565 0.0
Zn96 Zn 0.18981 0.48814 0.19314 0.0
O97 O 0.17463 0.52326 0.19131 0.0
C98 C 0.01378 0.48416 0.19959 0.0
Zn99 Zn 0.19074 0.49082 0.20683 0.0
C100 C 0.16928 0.53512 0.19778 0.0
O101 O 0.17427 0.52556 0.20474 0.0
C102 C 0.21541 0.44394 0.20226 0.0
O103 O 0.32592 0.49527 0.20719 0.0
O104 O 0.32498 0.49236 0.19374 0.0
N105 N 0.17853 0.4972 0.21914 0.0
C106 C 0.21511 0.48901 0.22606 0.0
C107 C 0.12702 0.51504 0.22962 0.0
N108 N 0.12379 0.51331 0.2214 0.0
N109 N 0.18365 0.49997 0.23273 0.0
C110 C 0.15263 0.48852 0.17415 0.0
C111 C 0.26271 0.4704 0.16972 0.0
N112 N 0.20073 0.48258 0.18074 0.0
N113 N 0.26886 0.47129 0.17795 0.0
N114 N 0.19024 0.48101 0.16714 0.0
H115 H 0.06966 0.51264 0.18031 0.0
H116 H 0.06715 0.51398 0.16923 0.0
H117 H 0.0144 0.49116 0.1746 0.0
C118 C 0.07168 0.50254 0.17461 0.0
C119 C 0.28428 0.47121 0.22618 0.0
H120 H 0.33039 0.47421 0.23129 0.0
H121 H 0.2534 0.45444 0.22708 0.0
H122 H 0.32016 0.47085 0.22028 0.0
O123 O 0.20871 0.45597 0.2087 0.0
O124 O 0.20711 0.45314 0.19524 0.0
C125 C 0.36672 0.49476 0.2004 0.0
O126 O 0.05444 0.48393 0.1928 0.0
O127 O 0.05567 0.48635 0.20626 0.0
Zn128 Zn 0.93825 0.49503 0.94304 0.0
O129 O 0.92167 0.46005 0.94111 0.0
C130 C 0.76214 0.49922 0.94954 0.0
Zn131 Zn 0.939 0.49204 0.95671 0.0
C132 C 0.91563 0.44807 0.94755 0.0
O133 O 0.92115 0.45743 0.95453 0.0
C134 C 0.96582 0.53889 0.95227 0.0
O135 O 0.07418 0.48729 0.95702 0.0
O136 O 0.07336 0.4905 0.94358 0.0
N137 N 0.92709 0.48542 0.96901 0.0
C138 C 0.96426 0.49343 0.97593 0.0
C139 C 0.87561 0.4675 0.97948 0.0
N140 N 0.87201 0.46938 0.97126 0.0
N141 N 0.93282 0.48241 0.98259 0.0
C142 C 0.90045 0.49508 0.92407 0.0
C143 C 0.01038 0.51329 0.91964 0.0
N144 N 0.94887 0.50087 0.93066 0.0
N145 N 0.01691 0.51221 0.92787 0.0
N146 N 0.93776 0.50274 0.91707 0.0
H147 H 0.81731 0.47094 0.93023 0.0
H148 H 0.81481 0.46965 0.91914 0.0
H149 H 0.7622 0.49246 0.92453 0.0
C150 C 0.81944 0.48108 0.92453 0.0
C151 C 0.03395 0.51109 0.97605 0.0
H152 H 0.0802 0.50792 0.98115 0.0
H153 H 0.00359 0.5279 0.977 0.0
H154 H 0.06959 0.51148 0.97015 0.0
O155 O 0.95825 0.52675 0.95867 0.0
O156 O 0.95705 0.52989 0.94523 0.0
C157 C 0.11505 0.4879 0.95024 0.0
O158 O 0.80287 0.49956 0.94275 0.0
O159 O 0.80398 0.4968 0.95619 0.0
Zn160 Zn 0.76601 0.23813 0.95726 0.0
O161 O 0.63086 0.24266 0.95761 0.0
C162 C 0.74151 0.1913 0.95262 0.0
Zn163 Zn 0.76718 0.23551 0.94358 0.0
C164 C 0.59016 0.24212 0.95083 0.0
O165 O 0.63201 0.23967 0.94417 0.0
C166 C 0.94312 0.2315 0.95004 0.0
O167 O 0.78224 0.27054 0.94179 0.0
O168 O 0.78297 0.2729 0.95522 0.0
N169 N 0.75675 0.23009 0.9312 0.0
C170 C 0.80506 0.23625 0.92465 0.0
C171 C 0.6958 0.21798 0.92012 0.0
N172 N 0.68912 0.21871 0.92835 0.0
N173 N 0.76811 0.2288 0.91761 0.0
C174 C 0.74119 0.23606 0.97646 0.0
C175 C 0.82938 0.262 0.98009 0.0
N176 N 0.77793 0.24436 0.96957 0.0
N177 N 0.83272 0.26041 0.97186 0.0
N178 N 0.77262 0.24689 0.98316 0.0
H179 H 0.63603 0.21807 0.97065 0.0
H180 H 0.62584 0.22117 0.98168 0.0
H181 H 0.70273 0.20148 0.97738 0.0
C182 C 0.67193 0.21828 0.97654 0.0
C183 C 0.8856 0.25043 0.92517 0.0
H184 H 0.88731 0.26037 0.93091 0.0
H185 H 0.88997 0.26206 0.91984 0.0
H186 H 0.94323 0.23918 0.92512 0.0
O187 O 0.90259 0.23135 0.94325 0.0
O188 O 0.90107 0.2336 0.9567 0.0
C189 C 0.78801 0.28241 0.94825 0.0
O190 O 0.74771 0.20325 0.95907 0.0
O191 O 0.75014 0.20057 0.94561 0.0
Zn192 Zn 0.92867 0.23903 0.81883 0.0
O193 O 0.06401 0.24372 0.81814 0.0
C194 C 0.95613 0.19242 0.82398 0.0
Zn195 Zn 0.92816 0.23702 0.83251 0.0
C196 C 0.10481 0.24371 0.82493 0.0
O197 O 0.06304 0.24166 0.83162 0.0
C198 C 0.75193 0.23225 0.82641 0.0
O199 O 0.91131 0.27219 0.83385 0.0
O200 O 0.91094 0.274 0.82039 0.0
N201 N 0.94186 0.2328 0.84493 0.0
C202 C 0.89356 0.23875 0.8515 0.0
C203 C 0.00564 0.22161 0.85599 0.0
N204 N 0.01133 0.22215 0.84775 0.0
N205 N 0.93222 0.23183 0.85853 0.0
C206 C 0.9573 0.2375 0.79967 0.0
C207 C 0.84204 0.25427 0.79573 0.0
N208 N 0.91254 0.24342 0.80647 0.0
N209 N 0.84125 0.25388 0.80398 0.0
N210 N 0.91418 0.24415 0.79284 0.0
H211 H 0.09582 0.23626 0.79944 0.0
H212 H 0.04379 0.21277 0.79442 0.0
H213 H 0.04664 0.21446 0.80552 0.0
C214 C 0.04036 0.22432 0.79978 0.0
C215 C 0.81134 0.25224 0.85099 0.0
H216 H 0.80935 0.26246 0.84531 0.0
H217 H 0.80485 0.26357 0.85639 0.0
H218 H 0.75517 0.2405 0.85089 0.0
O219 O 0.79268 0.23237 0.83319 0.0
O220 O 0.79384 0.23425 0.81974 0.0
C221 C 0.90554 0.2838 0.82731 0.0
O222 O 0.94766 0.20407 0.81748 0.0
O223 O 0.94754 0.20192 0.83094 0.0
Zn224 Zn 0.78454 0.49578 0.81816 0.0
O225 O 0.64926 0.4913 0.81734 0.0
C226 C 0.75767 0.54245 0.82328 0.0
Zn227 Zn 0.7828 0.49776 0.83185 0.0
C228 C 0.6073 0.49138 0.82407 0.0
O229 O 0.64795 0.49338 0.83081 0.0
C230 C 0.96012 0.50224 0.82593 0.0
O231 O 0.79849 0.4625 0.83316 0.0
O232 O 0.80112 0.46081 0.81971 0.0
N233 N 0.76793 0.50188 0.84428 0.0
C234 C 0.81552 0.49571 0.85087 0.0
C235 C 0.70366 0.51303 0.85533 0.0
N236 N 0.69859 0.51263 0.84709 0.0
N237 N 0.77657 0.5026 0.8579 0.0
C238 C 0.75722 0.49705 0.79899 0.0
C239 C 0.87327 0.48052 0.7951 0.0
N240 N 0.80204 0.49141 0.8058 0.0
N241 N 0.87386 0.48111 0.80335 0.0
N242 N 0.80075 0.49036 0.79218 0.0
H243 H 0.61864 0.49793 0.79889 0.0
H244 H 0.66928 0.52119 0.79359 0.0
H245 H 0.66774 0.5203 0.80471 0.0
C246 C 0.67369 0.51003 0.79905 0.0
C247 C 0.89733 0.48204 0.85037 0.0
H248 H 0.89954 0.47195 0.84466 0.0
H249 H 0.9029 0.47058 0.85574 0.0
H250 H 0.95391 0.49365 0.85035 0.0
O251 O 0.91822 0.50216 0.83265 0.0
O252 O 0.91933 0.50032 0.8192 0.0
C253 C 0.80506 0.45094 0.82662 0.0
O254 O 0.76667 0.53077 0.81679 0.0
O255 O 0.76471 0.53292 0.83025 0.0
Zn256 Zn 0.03528 0.98779 0.56871 0.0
O257 O 0.89991 -0.00752 0.5682 0.0
C258 C 0.00759 0.94109 0.57328 0.0
Zn259 Zn 0.03564 0.98527 0.58238 0.0
C260 C 0.85906 -0.0076 0.57499 0.0
O261 O 0.90078 0.99023 0.58167 0.0
C262 C 0.2119 0.98053 0.57609 0.0
O263 O 0.05407 0.02026 0.58423 0.0
O264 O 0.05289 0.02254 0.57077 0.0
N265 N 0.02254 0.97938 0.59472 0.0
C266 C 0.06326 0.98672 0.60156 0.0
C267 C 0.96941 0.96228 0.60529 0.0
N268 N 0.96402 0.96432 0.59709 0.0
N269 N 0.03094 0.9762 0.60828 0.0
C270 C 0.00454 0.98813 0.54957 0.0
C271 C 0.11869 0.00553 0.54568 0.0
N272 N 0.05002 -0.00648 0.55638 0.0
N273 N 0.12062 0.00438 0.55392 0.0
N274 N 0.04648 -0.00448 0.54277 0.0
H275 H 0.86604 0.98658 0.54944 0.0
H276 H 0.91851 0.96356 0.54417 0.0
H277 H 0.91629 0.96447 0.55528 0.0
C278 C 0.92192 0.97475 0.54963 0.0
C279 C 0.13691 0.00327 0.60159 0.0
H280 H 0.11182 0.02013 0.60341 0.0
H281 H 0.1869 -0.00191 0.60612 0.0
H282 H 0.16673 0.00483 0.59544 0.0
O283 O 0.17094 0.98023 0.58286 0.0
O284 O 0.17024 0.983 0.56943 0.0
C285 C 0.0592 0.03209 0.57773 0.0
O286 O 0.0166 0.953 0.56685 0.0
O287 O 0.01535 0.95034 0.58028 0.0
Zn288 Zn 0.18522 0.24327 0.56892 0.0
O289 O 0.32055 0.23867 0.56828 0.0
C290 C 0.21289 0.29015 0.57338 0.0
Zn291 Zn 0.18666 0.24613 0.58258 0.0
C292 C 0.36233 0.23898 0.57501 0.0
O293 O 0.32151 0.24131 0.58174 0.0
C294 C 0.00949 0.25054 0.57648 0.0
O295 O 0.16898 0.21114 0.58448 0.0
O296 O 0.16823 0.2085 0.57104 0.0
N297 N 0.20043 0.252 0.5949 0.0
C298 C 0.16082 0.24416 0.60173 0.0
C299 C 0.25311 0.26892 0.60551 0.0
N300 N 0.25796 0.26727 0.59729 0.0
N301 N 0.19295 0.25454 0.60848 0.0
C302 C 0.21493 0.24272 0.54979 0.0
C303 C 0.1005 0.22536 0.54597 0.0
N304 N 0.16956 0.23744 0.55662 0.0
N305 N 0.09877 0.22661 0.55421 0.0
N306 N 0.17277 0.23528 0.54301 0.0
H307 H 0.35345 0.24421 0.54964 0.0
H308 H 0.30119 0.26711 0.54429 0.0
H309 H 0.30326 0.26651 0.5554 0.0
C310 C 0.29764 0.25607 0.54978 0.0
C311 C 0.08833 0.22726 0.60173 0.0
H312 H 0.1151 0.21034 0.60324 0.0
H313 H 0.03922 0.23169 0.60645 0.0
H314 H 0.05682 0.22621 0.59564 0.0
O315 O 0.05138 0.25105 0.58319 0.0
O316 O 0.05027 0.24793 0.56977 0.0
C317 C 0.16304 0.19913 0.57804 0.0
O318 O 0.20328 0.27809 0.56699 0.0
O319 O 0.20618 0.28105 0.58042 0.0
Zn320 Zn 0.03346 0.24522 0.69351 0.0
O321 O 0.05238 0.21022 0.6917 0.0
C322 C 0.20964 0.25022 0.69975 0.0
Zn323 Zn 0.03292 0.24286 0.70718 0.0
C324 C 0.05764 0.19846 0.69822 0.0
O325 O 0.05112 0.20808 0.70517 0.0
C326 C 0.00432 0.28947 0.70254 0.0
O327 O 0.89756 0.23802 0.70773 0.0
O328 O 0.89861 0.24013 0.69426 0.0
N329 N 0.04831 0.23724 0.71949 0.0
C330 C 0.00362 0.2427 0.72634 0.0
C331 C 0.11826 0.22536 0.73012 0.0
N332 N 0.11919 0.22641 0.72188 0.0
N333 N 0.0464 0.23541 0.7331 0.0
C334 C 0.06129 0.24365 0.67434 0.0
C335 C 0.96682 0.26788 0.67059 0.0
N336 N 0.02017 0.25095 0.68117 0.0
N337 N 0.96125 0.26587 0.6788 0.0
N338 N 0.02885 0.25407 0.66762 0.0
H339 H 0.16476 0.22565 0.6805 0.0
H340 H 0.11105 0.21038 0.67245 0.0
H341 H 0.18568 0.23262 0.66984 0.0
C342 C 0.13544 0.22726 0.67433 0.0
C343 C 0.92094 0.25605 0.72637 0.0
H344 H 0.86516 0.24421 0.72669 0.0
H345 H 0.91837 0.26739 0.73179 0.0
H346 H 0.91432 0.26615 0.72068 0.0
O347 O 0.01352 0.27765 0.70899 0.0
O348 O 0.01256 0.28015 0.69555 0.0
C349 C 0.85679 0.238 0.70095 0.0
O350 O 0.16878 0.2504 0.69298 0.0
O351 O 0.16785 0.2478 0.70641 0.0
Zn352 Zn 0.18459 0.98448 0.69344 0.0
O353 O 0.16714 0.01943 0.69156 0.0
C354 C 0.00841 0.97991 0.69969 0.0
Zn355 Zn 0.18516 0.98718 0.70712 0.0
C356 C 0.16169 0.0314 0.69801 0.0
O357 O 0.16747 0.022 0.70501 0.0
C358 C 0.21196 0.94034 0.70258 0.0
O359 O 0.32042 -0.00808 0.70767 0.0
O360 O 0.31953 0.98925 0.69421 0.0
N361 N 0.1693 -0.00695 0.71944 0.0
C362 C 0.21375 0.98784 0.72633 0.0
C363 C 0.09872 0.00519 0.73 0.0
N364 N 0.09817 0.00388 0.72177 0.0
N365 N 0.17056 -0.00469 0.73305 0.0
C366 C 0.1583 0.98643 0.67428 0.0
C367 C 0.25045 0.96163 0.67049 0.0
N368 N 0.1979 0.97861 0.68111 0.0
N369 N 0.25535 0.96331 0.67871 0.0
N370 N 0.19033 0.97601 0.66752 0.0
H371 H 0.05444 0.00441 0.68038 0.0
H372 H 0.11282 0.02026 0.67278 0.0
H373 H 0.03681 -0.00106 0.66957 0.0
C374 C 0.08594 0.00336 0.67429 0.0
C375 C 0.29656 0.97456 0.72643 0.0
H376 H 0.35221 0.98646 0.72665 0.0
H377 H 0.29932 0.9635 0.73192 0.0
H378 H 0.30312 0.96418 0.72081 0.0
O379 O 0.20409 0.95232 0.70901 0.0
O380 O 0.20375 0.94956 0.69557 0.0
C381 C 0.36126 -0.00839 0.70088 0.0
O382 O 0.04927 0.97964 0.69291 0.0
O383 O 0.05019 0.98233 0.70634 0.0
Zn384 Zn 0.93094 -0.00302 0.44324 0.0
O385 O 0.91212 0.96203 0.44151 0.0
C386 C 0.7548 0.00204 0.44954 0.0
Zn387 Zn 0.93154 -0.00525 0.45692 0.0
C388 C 0.90645 0.9503 0.44803 0.0
O389 O 0.91286 0.95993 0.45498 0.0
C390 C 0.96001 0.0413 0.45213 0.0
O391 O 0.06679 0.98984 0.45742 0.0
O392 O 0.06589 -0.00804 0.44395 0.0
N393 N 0.91685 0.98939 0.46927 0.0
C394 C 0.96254 -0.00516 0.47605 0.0
C395 C 0.84796 0.97774 0.48 0.0
N396 N 0.84598 0.97872 0.47176 0.0
N397 N 0.92047 0.98768 0.48288 0.0
C398 C 0.90228 -0.00494 0.42411 0.0
C399 C -0.00351 0.01924 0.42024 0.0
N400 N 0.94376 0.0025 0.43089 0.0
N401 N 0.00251 0.01739 0.42844 0.0
N402 N 0.93433 0.00536 0.41734 0.0
H403 H 0.79912 0.97716 0.43037 0.0
H404 H 0.85252 0.96174 0.42235 0.0
H405 H 0.7777 0.9839 0.41971 0.0
C406 C 0.82817 0.97865 0.42419 0.0
C407 C 0.04553 0.00807 0.47595 0.0
H408 H 0.10108 -0.00386 0.47616 0.0
H409 H 0.04933 0.01937 0.48138 0.0
H410 H 0.05133 0.01821 0.47027 0.0
O411 O 0.95143 0.0296 0.45862 0.0
O412 O 0.95141 0.03186 0.44518 0.0
C413 C 0.10763 0.98983 0.45063 0.0
O414 O 0.79569 0.00209 0.44276 0.0
O415 O 0.79655 -0.00025 0.4562 0.0
Zn416 Zn 0.76335 0.73709 0.44357 0.0
O417 O 0.78174 0.77189 0.44136 0.0
C418 C 0.93929 0.73278 0.45021 0.0
Zn419 Zn 0.76229 0.74025 0.45724 0.0
C420 C 0.78695 0.78404 0.44777 0.0
O421 O 0.78033 0.77484 0.45479 0.0
C422 C 0.73499 0.69337 0.45306 0.0
O423 O 0.62708 0.74496 0.45741 0.0
O424 O 0.62827 0.74191 0.44397 0.0
N425 N 0.77275 0.74744 0.46951 0.0
C426 C 0.7368 0.73907 0.47643 0.0
C427 C 0.82265 0.7656 0.47998 0.0
N428 N 0.826 0.76389 0.47175 0.0
N429 N 0.76738 0.75018 0.4831 0.0
C430 C 0.7956 0.73777 0.42449 0.0
C431 C 0.70575 0.71247 0.42066 0.0
N432 N 0.75404 0.73027 0.43127 0.0
N433 N 0.69807 0.71465 0.42884 0.0
N434 N 0.76623 0.72684 0.41774 0.0
H435 H 0.84017 0.77168 0.42296 0.0
H436 H 0.91761 0.75048 0.41994 0.0
H437 H 0.89763 0.75614 0.4307 0.0
C438 C 0.86736 0.75488 0.42456 0.0
C439 C 0.66886 0.72094 0.47655 0.0
H440 H 0.63152 0.72086 0.47074 0.0
H441 H 0.62376 0.72337 0.4818 0.0
H442 H 0.70104 0.70426 0.47722 0.0
O443 O 0.74295 0.70553 0.45944 0.0
O444 O 0.74337 0.70237 0.44601 0.0
C445 C 0.58641 0.74447 0.45063 0.0
O446 O 0.89858 0.73218 0.44343 0.0
O447 O 0.89742 0.73551 0.45686 0.0
Zn448 Zn 0.92963 0.73656 0.31916 0.0
O449 O 0.06495 0.74133 0.31854 0.0
C450 C 0.95866 0.68986 0.32368 0.0
Zn451 Zn 0.93105 0.73394 0.33283 0.0
C452 C 0.10673 0.74122 0.32527 0.0
O453 O 0.0659 0.739 0.33201 0.0
C454 C 0.75391 0.72916 0.32672 0.0
O455 O 0.91224 0.76892 0.33469 0.0
O456 O 0.91193 0.77126 0.32124 0.0
N457 N 0.94474 0.72813 0.34517 0.0
C458 C 0.90408 0.73562 0.352 0.0
C459 C -0.00214 0.71124 0.35577 0.0
N460 N 0.00322 0.71311 0.34756 0.0
N461 N 0.93641 0.72523 0.35874 0.0
C462 C 0.95991 0.73726 0.30003 0.0
C463 C 0.84495 0.75434 0.29619 0.0
N464 N 0.91402 0.74232 0.30685 0.0
N465 N 0.84288 0.75297 0.30443 0.0
N466 N 0.91777 0.74468 0.29325 0.0
H467 H 0.09848 0.73615 0.3 0.0
H468 H 0.04772 0.7133 0.2945 0.0
H469 H 0.04853 0.71353 0.30561 0.0
C470 C 0.04314 0.72414 0.30004 0.0
C471 C 0.83043 0.75217 0.352 0.0
H472 H 0.80028 0.75354 0.34586 0.0
H473 H 0.85561 0.76909 0.35373 0.0
H474 H 0.78061 0.74715 0.35658 0.0
O475 O 0.79581 0.72877 0.33343 0.0
O476 O 0.79468 0.73172 0.32001 0.0
C477 C 0.9062 0.78077 0.32821 0.0
O478 O 0.94849 0.7018 0.31728 0.0
O479 O 0.95168 0.69904 0.33071 0.0
Zn480 Zn 0.76673 0.99095 0.31894 0.0
O481 O 0.63162 0.98627 0.31857 0.0
C482 C 0.73993 0.03785 0.32309 0.0
Zn483 Zn 0.76558 -0.00592 0.33259 0.0
C484 C 0.58975 0.98688 0.32529 0.0
O485 O 0.63046 0.98948 0.332 0.0
C486 C 0.94262 -0.00174 0.32621 0.0
O487 O 0.78267 0.95928 0.33485 0.0
O488 O 0.78407 0.95634 0.32142 0.0
N489 N 0.75412 0.00091 0.34486 0.0
C490 C 0.79442 -0.00666 0.35169 0.0
C491 C 0.70427 0.01871 0.35541 0.0
N492 N 0.69795 0.01657 0.34722 0.0
N493 N 0.76403 0.00426 0.3584 0.0
C494 C 0.74393 -0.00812 0.29973 0.0
C495 C 0.83069 0.96539 0.29632 0.0
N496 N 0.77932 0.9837 0.3067 0.0
N497 N 0.83317 0.96728 0.30454 0.0
N498 N 0.77542 0.98066 0.29312 0.0
H499 H 0.63097 0.00725 0.29426 0.0
H500 H 0.70764 0.02661 0.29878 0.0
H501 H 0.63799 0.01017 0.3053 0.0
C502 C 0.67569 0.00991 0.2995 0.0
C503 C 0.86599 0.97617 0.35171 0.0
H504 H 0.83836 0.9594 0.35328 0.0
H505 H 0.91561 0.98055 0.35638 0.0
H506 H 0.89717 0.97486 0.34561 0.0
O507 O 0.90078 -0.0012 0.33294 0.0
O508 O 0.90185 -0.00437 0.31951 0.0
C509 C 0.78908 0.94713 0.32845 0.0
O510 O 0.74798 0.02571 0.3167 0.0
O511 O 0.7472 0.02879 0.33013 0.0
Zn512 Zn 0.51766 0.48637 0.58238 0.0
O513 O 0.53545 0.52117 0.58459 0.0
C514 C 0.69465 0.4819 0.57599 0.0
Zn515 Zn 0.51874 0.48927 0.56873 0.0
C516 C 0.54207 0.53318 0.57816 0.0
O517 O 0.53677 0.52385 0.57116 0.0
C518 C 0.49099 0.44251 0.57295 0.0
O519 O 0.38368 0.49412 0.56836 0.0
O520 O 0.38252 0.49111 0.5818 0.0
N521 N 0.53147 0.49648 0.5565 0.0
C522 C 0.49521 0.4886 0.54952 0.0
C523 C 0.58336 0.51481 0.54615 0.0
N524 N 0.58622 0.51271 0.55436 0.0
N525 N 0.52696 0.49985 0.54293 0.0
C526 C 0.54718 0.48717 0.60145 0.0
C527 C 0.45659 0.46196 0.60523 0.0
N528 N 0.50631 0.47965 0.59465 0.0
N529 N 0.44985 0.46409 0.59704 0.0
N530 N 0.5169 0.47631 0.60818 0.0
H531 H 0.64986 0.50556 0.5953 0.0
H532 H 0.59217 0.52102 0.60305 0.0
H533 H 0.66914 0.4997 0.60605 0.0
C534 C 0.6192 0.50422 0.60143 0.0
C535 C 0.42599 0.47081 0.54928 0.0
H536 H 0.38909 0.47041 0.55511 0.0
H537 H 0.38072 0.47387 0.5441 0.0
H538 H 0.45695 0.45404 0.54841 0.0
O539 O 0.4992 0.45453 0.56652 0.0
O540 O 0.4986 0.45167 0.57997 0.0
C541 C 0.3418 0.49364 0.57508 0.0
O542 O 0.65281 0.4815 0.58271 0.0
O543 O 0.65386 0.48443 0.56928 0.0
Zn544 Zn 0.69566 0.74268 0.56933 0.0
O545 O 0.83074 0.73788 0.56899 0.0
C546 C 0.72355 0.7895 0.57359 0.0
Zn547 Zn 0.69649 0.7457 0.583 0.0
C548 C 0.87247 0.73838 0.57572 0.0
O549 O 0.83163 0.74093 0.58244 0.0
C550 C 0.51962 0.75009 0.57658 0.0
O551 O 0.67846 0.71088 0.58516 0.0
O552 O 0.67763 0.70807 0.57173 0.0
N553 N 0.70713 0.75226 0.59531 0.0
C554 C 0.66608 0.74457 0.60208 0.0
C555 C 0.75616 0.76976 0.60595 0.0
N556 N 0.76326 0.76782 0.59775 0.0
N557 N 0.69593 0.7553 0.60885 0.0
C558 C 0.71921 0.74407 0.55012 0.0
C559 C 0.63243 0.7177 0.54661 0.0
N560 N 0.68365 0.73569 0.55706 0.0
N561 N 0.6298 0.71935 0.55484 0.0
N562 N 0.68781 0.73305 0.54346 0.0
H563 H 0.82522 0.76212 0.55575 0.0
H564 H 0.83231 0.75958 0.5447 0.0
H565 H 0.75571 0.77881 0.54931 0.0
C566 C 0.78756 0.76208 0.54996 0.0
C567 C 0.59427 0.72746 0.602 0.0
H568 H 0.62153 0.71061 0.60352 0.0
H569 H 0.54431 0.73175 0.60666 0.0
H570 H 0.56355 0.72634 0.59588 0.0
O571 O 0.56133 0.75059 0.58331 0.0
O572 O 0.56052 0.74747 0.56988 0.0
C573 C 0.67206 0.69881 0.57875 0.0
O574 O 0.71512 0.77742 0.56719 0.0
O575 O 0.71588 0.78042 0.58063 0.0
Zn576 Zn 0.51888 0.74416 0.6935 0.0
O577 O 0.53757 0.70928 0.69132 0.0
C578 C 0.69587 0.74874 0.69991 0.0
Zn579 Zn 0.51995 0.74126 0.70716 0.0
C580 C 0.54377 0.69731 0.69776 0.0
O581 O 0.53799 0.7067 0.70475 0.0
C582 C 0.4911 0.78801 0.70295 0.0
O583 O 0.38479 0.73643 0.7075 0.0
O584 O 0.38383 0.73922 0.69405 0.0
N585 N 0.53195 0.73416 0.71941 0.0
C586 C 0.49579 0.74233 0.72635 0.0
C587 C 0.58297 0.71602 0.72983 0.0
N588 N 0.58606 0.71786 0.72161 0.0
N589 N 0.52704 0.73122 0.73299 0.0
C590 C 0.5499 0.74375 0.6744 0.0
C591 C 0.4582 0.7687 0.67066 0.0
N592 N 0.50798 0.7509 0.68121 0.0
N593 N 0.45082 0.76629 0.67884 0.0
N594 N 0.51967 0.7547 0.66769 0.0
H595 H 0.65207 0.72528 0.68057 0.0
H596 H 0.59716 0.71021 0.67255 0.0
H597 H 0.67354 0.73203 0.66991 0.0
C598 C 0.62284 0.72698 0.6744 0.0
C599 C 0.42708 0.76025 0.72652 0.0
H600 H 0.38994 0.76045 0.7207 0.0
H601 H 0.38191 0.75752 0.73174 0.0
H602 H 0.45854 0.777 0.72727 0.0
O603 O 0.50045 0.77596 0.70935 0.0
O604 O 0.49856 0.77891 0.69591 0.0
C605 C 0.34301 0.73678 0.70077 0.0
O606 O 0.65407 0.74923 0.6932 0.0
O607 O 0.65505 0.74608 0.70662 0.0
Zn608 Zn 0.68191 0.48661 0.70654 0.0
O609 O 0.81709 0.4915 0.70721 0.0
C610 C 0.71053 0.43982 0.70203 0.0
Zn611 Zn 0.68337 0.48389 0.69289 0.0
C612 C 0.859 0.49119 0.70048 0.0
O613 O 0.81828 0.48879 0.69376 0.0
C614 C 0.50621 0.47916 0.69896 0.0
O615 O 0.66538 0.5188 0.69096 0.0
O616 O 0.66381 0.52139 0.70441 0.0
N617 N 0.69773 0.47799 0.68059 0.0
C618 C 0.6573 0.48545 0.67376 0.0
C619 C 0.75091 0.46096 0.67002 0.0
N620 N 0.75612 0.4629 0.67823 0.0
N621 N 0.68968 0.47498 0.66703 0.0
C622 C 0.70989 0.48741 0.72571 0.0
C623 C 0.59424 0.50448 0.72939 0.0
N624 N 0.66513 0.49245 0.71883 0.0
N625 N 0.59358 0.5031 0.72116 0.0
N626 N 0.66656 0.49482 0.73243 0.0
H627 H 0.84844 0.48638 0.72596 0.0
H628 H 0.79674 0.46343 0.73135 0.0
H629 H 0.79978 0.4638 0.72023 0.0
C630 C 0.79321 0.47434 0.72581 0.0
C631 C 0.5838 0.50205 0.67373 0.0
H632 H 0.60914 0.51892 0.67195 0.0
H633 H 0.53391 0.49698 0.66917 0.0
H634 H 0.55365 0.50357 0.67987 0.0
O635 O 0.54815 0.47885 0.69224 0.0
O636 O 0.54697 0.48164 0.70566 0.0
C637 C 0.65874 0.53078 0.69741 0.0
O638 O 0.70137 0.45176 0.70845 0.0
O639 O 0.70298 0.44904 0.69502 0.0
Zn640 Zn 0.43656 0.49611 0.44327 0.0
O641 O 0.42021 0.46107 0.44133 0.0
C642 C 0.26048 0.50019 0.44987 0.0
Zn643 Zn 0.43738 0.49331 0.45694 0.0
C644 C 0.41458 0.44915 0.44779 0.0
O645 O 0.42001 0.45864 0.45476 0.0
C646 C 0.46315 0.54017 0.45252 0.0
O647 O 0.57257 0.48871 0.45712 0.0
O648 O 0.5717 0.49178 0.44367 0.0
N649 N 0.42664 0.48656 0.46922 0.0
C650 C 0.46412 0.49455 0.47612 0.0
C651 C 0.37631 0.46845 0.47969 0.0
N652 N 0.37208 0.4704 0.47148 0.0
N653 N 0.4334 0.48343 0.48278 0.0
C654 C 0.40442 0.49336 0.4243 0.0
C655 C 0.49461 0.51794 0.41991 0.0
N656 N 0.44486 0.50225 0.4309 0.0
N657 N 0.50064 0.51752 0.42815 0.0
N658 N 0.43465 0.50298 0.41732 0.0
H659 H 0.38176 0.45793 0.42531 0.0
H660 H 0.30287 0.47209 0.41913 0.0
H661 H 0.30054 0.47509 0.43017 0.0
C662 C 0.34317 0.47368 0.42471 0.0
C663 C 0.5334 0.51233 0.47622 0.0
H664 H 0.56886 0.51276 0.4703 0.0
H665 H 0.57987 0.50924 0.4813 0.0
H666 H 0.50268 0.52909 0.47717 0.0
O667 O 0.45616 0.52808 0.45894 0.0
O668 O 0.45468 0.53104 0.44549 0.0
C669 C 0.6134 0.48927 0.45034 0.0
O670 O 0.30126 0.50047 0.44309 0.0
O671 O 0.30228 0.49791 0.45653 0.0
Zn672 Zn 0.28626 0.23762 0.45716 0.0
O673 O 0.15101 0.24221 0.45794 0.0
C674 C 0.25863 0.19094 0.45208 0.0
Zn675 Zn 0.28492 0.23548 0.44348 0.0
C676 C 0.1092 0.2421 0.45122 0.0
O677 O 0.15002 0.24002 0.44448 0.0
C678 C 0.46205 0.23094 0.44942 0.0
O679 O 0.30131 0.27066 0.4421 0.0
O680 O 0.30341 0.27258 0.45556 0.0
N681 N 0.2703 0.23126 0.43107 0.0
C682 C 0.31782 0.23736 0.42446 0.0
C683 C 0.20526 0.22027 0.42005 0.0
N684 N 0.20056 0.22064 0.4283 0.0
N685 N 0.27833 0.23058 0.41746 0.0
C686 C 0.25732 0.23632 0.47629 0.0
C687 C 0.3726 0.25298 0.48029 0.0
N688 N 0.30282 0.24205 0.46952 0.0
N689 N 0.37417 0.25243 0.47204 0.0
N690 N 0.2999 0.24304 0.48314 0.0
H691 H 0.11873 0.23525 0.47632 0.0
H692 H 0.16946 0.21193 0.48157 0.0
H693 H 0.16855 0.21308 0.47047 0.0
C694 C 0.17402 0.22323 0.47615 0.0
C695 C 0.40007 0.25086 0.42491 0.0
H696 H 0.40297 0.2609 0.43063 0.0
H697 H 0.40566 0.26233 0.41954 0.0
H698 H 0.45627 0.23912 0.42487 0.0
O699 O 0.42029 0.23093 0.4427 0.0
O700 O 0.42112 0.23298 0.45615 0.0
C701 C 0.30782 0.28232 0.44862 0.0
O702 O 0.26783 0.20265 0.45855 0.0
O703 O 0.26613 0.2004 0.4451 0.0
Zn704 Zn 0.44164 0.23799 0.31894 0.0
O705 O 0.57683 0.24265 0.3186 0.0
C706 C 0.46866 0.19102 0.32312 0.0
Zn707 Zn 0.44278 0.23474 0.3326 0.0
C708 C 0.61862 0.24191 0.32533 0.0
O709 O 0.57786 0.23919 0.33204 0.0
C710 C 0.26573 0.23079 0.32622 0.0
O711 O 0.42617 0.26969 0.33471 0.0
O712 O 0.42435 0.27255 0.3213 0.0
N713 N 0.45244 0.2282 0.34493 0.0
C714 C 0.41249 0.23691 0.3516 0.0
C715 C 0.50248 0.21209 0.35583 0.0
N716 N 0.50811 0.21278 0.34758 0.0
N717 N 0.44287 0.22702 0.35851 0.0
C718 C 0.46588 0.23734 0.29973 0.0
C719 C 0.37762 0.26353 0.29637 0.0
N720 N 0.42933 0.24514 0.30671 0.0
N721 N 0.3745 0.26136 0.30458 0.0
N722 N 0.43428 0.24864 0.29314 0.0
H723 H 0.58086 0.22278 0.29433 0.0
H724 H 0.50431 0.20283 0.29852 0.0
H725 H 0.57151 0.21903 0.30533 0.0
C726 C 0.53516 0.21958 0.29947 0.0
C727 C 0.35168 0.2567 0.3513 0.0
H728 H 0.3906 0.27238 0.35065 0.0
H729 H 0.31232 0.25836 0.35695 0.0
H730 H 0.30812 0.2554 0.34591 0.0
O731 O 0.3075 0.23025 0.33293 0.0
O732 O 0.30658 0.23334 0.3195 0.0
C733 C 0.41959 0.28181 0.32831 0.0
O734 O 0.46035 0.20329 0.31676 0.0
O735 O 0.46115 0.19993 0.3302 0.0
Zn736 Zn 0.27274 0.49199 0.31876 0.0
O737 O 0.13763 0.48721 0.31858 0.0
C738 C 0.24615 0.53874 0.32324 0.0
Zn739 Zn 0.27379 0.49468 0.33244 0.0
C740 C 0.09684 0.48771 0.32537 0.0
O741 O 0.13858 0.49021 0.33203 0.0
C742 C 0.44973 0.49901 0.32584 0.0
O743 O 0.2908 0.45972 0.33439 0.0
O744 O 0.29088 0.45732 0.32095 0.0
N745 N 0.26524 0.50084 0.3448 0.0
C746 C 0.30593 0.49214 0.35143 0.0
C747 C 0.21496 0.51658 0.35577 0.0
N748 N 0.20897 0.51602 0.34753 0.0
N749 N 0.27538 0.50179 0.35839 0.0
C750 C 0.24624 0.49337 0.29956 0.0
C751 C 0.33406 0.4673 0.29597 0.0
N752 N 0.28354 0.4853 0.30646 0.0
N753 N 0.33808 0.46916 0.30418 0.0
N754 N 0.27709 0.48232 0.29288 0.0
H755 H 0.14114 0.51141 0.30537 0.0
H756 H 0.13076 0.50816 0.29436 0.0
H757 H 0.20768 0.52792 0.29859 0.0
C758 C 0.17693 0.51113 0.29947 0.0
C759 C 0.36778 0.47258 0.35105 0.0
H760 H 0.32971 0.45676 0.35041 0.0
H761 H 0.40765 0.47105 0.35667 0.0
H762 H 0.41079 0.4741 0.34562 0.0
O763 O 0.40901 0.49918 0.33262 0.0
O764 O 0.40788 0.49677 0.31917 0.0
C765 C 0.29664 0.44783 0.32792 0.0
O766 O 0.25308 0.52677 0.31679 0.0
O767 O 0.25519 0.52952 0.33024 0.0
Zn768 Zn 0.52102 0.98901 0.06912 0.0
O769 O 0.38596 -0.00618 0.06879 0.0
C770 C 0.49352 0.94226 0.07365 0.0
Zn771 Zn 0.51987 0.98637 0.08279 0.0
C772 C 0.34404 -0.0067 0.07551 0.0
O773 O 0.3847 0.9908 0.08224 0.0
C774 C 0.6969 0.98201 0.07639 0.0
O775 O 0.53663 0.02134 0.08469 0.0
O776 O 0.53914 0.02371 0.07126 0.0
N777 N 0.51037 0.98032 0.09514 0.0
C778 C 0.55188 0.98884 0.10174 0.0
C779 C 0.46139 0.9643 0.1061 0.0
N780 N 0.45429 0.96509 0.09787 0.0
N781 N 0.52227 0.97899 0.10869 0.0
C782 C 0.49647 0.98716 0.04993 0.0
C783 C 0.58475 0.01309 0.0463 0.0
N784 N 0.5331 -0.00454 0.05682 0.0
N785 N 0.58791 0.01152 0.05453 0.0
N786 N 0.52807 -0.00203 0.04323 0.0
H787 H 0.38153 0.9722 0.04468 0.0
H788 H 0.45784 0.95258 0.0491 0.0
H789 H 0.39053 0.96937 0.05572 0.0
C790 C 0.42708 0.96941 0.04986 0.0
C791 C 0.61371 0.00842 0.10135 0.0
H792 H 0.5759 0.0241 0.10028 0.0
H793 H 0.6506 0.01074 0.10711 0.0
H794 H 0.65943 0.00633 0.09615 0.0
O795 O 0.65508 0.98187 0.08311 0.0
O796 O 0.65611 0.98421 0.06966 0.0
C797 C 0.54373 0.03321 0.07823 0.0
O798 O 0.50138 0.95418 0.0672 0.0
O799 O 0.50162 0.95153 0.08065 0.0
Zn800 Zn 0.69154 0.24288 0.06929 0.0
O801 O 0.82663 0.23812 0.06896 0.0
C802 C 0.71903 0.28973 0.07339 0.0
Zn803 Zn 0.69235 0.24605 0.08295 0.0
C804 C 0.86835 0.23869 0.07568 0.0
O805 O 0.8275 0.2413 0.0824 0.0
C806 C 0.51549 0.25032 0.07652 0.0
O807 O 0.67446 0.21126 0.08523 0.0
O808 O 0.67386 0.20836 0.0718 0.0
N809 N 0.70314 0.25301 0.09522 0.0
C810 C 0.6617 0.24575 0.10204 0.0
C811 C 0.75234 0.271 0.10575 0.0
N812 N 0.75962 0.26859 0.09757 0.0
N813 N 0.69161 0.25681 0.10874 0.0
C814 C 0.71551 0.24355 0.05009 0.0
C815 C 0.62822 0.21719 0.04669 0.0
N816 N 0.67946 0.23552 0.05706 0.0
N817 N 0.62529 0.21918 0.0549 0.0
N818 N 0.68412 0.23232 0.04348 0.0
H819 H 0.82145 0.26176 0.05568 0.0
H820 H 0.82939 0.25863 0.04465 0.0
H821 H 0.75284 0.2782 0.04907 0.0
C822 C 0.78427 0.26147 0.04986 0.0
C823 C 0.58951 0.22875 0.10206 0.0
H824 H 0.61615 0.21202 0.10383 0.0
H825 H 0.53905 0.23354 0.10661 0.0
H826 H 0.55967 0.22711 0.09592 0.0
O827 O 0.5572 0.25092 0.08324 0.0
O828 O 0.55638 0.24762 0.06982 0.0
C829 C 0.66831 0.19914 0.07882 0.0
O830 O 0.71067 0.27755 0.06701 0.0
O831 O 0.71155 0.28073 0.08045 0.0
Zn832 Zn 0.5154 0.2469 0.19343 0.0
O833 O 0.53427 0.21205 0.19127 0.0
C834 C 0.69236 0.25159 0.19982 0.0
Zn835 Zn 0.51642 0.24416 0.20709 0.0
C836 C 0.54051 0.20017 0.19774 0.0
O837 O 0.53454 0.20964 0.20471 0.0
C838 C 0.48757 0.29081 0.20284 0.0
O839 O 0.38128 0.23928 0.20745 0.0
O840 O 0.38034 0.24192 0.19399 0.0
N841 N 0.52893 0.237 0.21932 0.0
C842 C 0.49234 0.24478 0.2263 0.0
C843 C 0.58086 0.21863 0.22965 0.0
N844 N 0.58392 0.22082 0.22145 0.0
N845 N 0.52408 0.23349 0.23288 0.0
C846 C 0.54577 0.24586 0.17434 0.0
C847 C 0.45495 0.27089 0.17049 0.0
N848 N 0.50449 0.25345 0.18112 0.0
N849 N 0.4479 0.2689 0.17868 0.0
N850 N 0.51562 0.25656 0.16758 0.0
H851 H 0.64863 0.22775 0.18055 0.0
H852 H 0.59133 0.21202 0.17286 0.0
H853 H 0.66803 0.23334 0.16978 0.0
C854 C 0.61806 0.2289 0.17442 0.0
C855 C 0.42286 0.26249 0.22657 0.0
H856 H 0.38634 0.26297 0.22072 0.0
H857 H 0.37734 0.25928 0.23172 0.0
H858 H 0.45355 0.27927 0.22749 0.0
O859 O 0.49683 0.27883 0.20926 0.0
O860 O 0.49502 0.28164 0.19581 0.0
C861 C 0.33951 0.23954 0.20072 0.0
O862 O 0.65057 0.252 0.1931 0.0
O863 O 0.65152 0.24901 0.20653 0.0
Zn864 Zn 0.69659 0.99077 0.20707 0.0
O865 O 0.83166 -0.00446 0.20735 0.0
C866 C 0.72282 0.94382 0.20258 0.0
Zn867 Zn 0.69556 0.98768 0.19341 0.0
C868 C 0.8725 -0.00522 0.20057 0.0
O869 O 0.83078 -0.00793 0.19392 0.0
C870 C 0.51957 0.9836 0.19995 0.0
O871 O 0.67956 0.02261 0.19146 0.0
O872 O 0.6785 0.0255 0.20488 0.0
N873 N 0.70554 0.9819 0.18106 0.0
C874 C 0.65607 0.98758 0.17454 0.0
C875 C 0.76591 0.96959 0.16998 0.0
N876 N 0.77356 0.9707 0.17819 0.0
N877 N 0.6926 0.97998 0.1675 0.0
C878 C 0.72157 0.98902 0.22626 0.0
C879 C 0.6342 0.01518 0.22986 0.0
N880 N 0.68507 -0.00267 0.21936 0.0
N881 N 0.63081 0.01352 0.22164 0.0
N882 N 0.69047 -3e-05 0.23295 0.0
H883 H 0.82691 0.97098 0.22049 0.0
H884 H 0.83601 0.97385 0.23153 0.0
H885 H 0.75907 0.95437 0.22713 0.0
C886 C 0.79038 0.97113 0.22635 0.0
C887 C 0.5748 0.00147 0.17507 0.0
H888 H 0.5735 0.01179 0.18073 0.0
H889 H 0.56886 0.01272 0.16965 0.0
H890 H 0.51786 0.98999 0.17522 0.0
O891 O 0.56019 0.98327 0.19316 0.0
O892 O 0.56152 0.98598 0.2066 0.0
C893 C 0.67327 0.03473 0.19786 0.0
O894 O 0.71616 0.95593 0.209 0.0
O895 O 0.7136 0.95287 0.19556 0.0
Zn896 Zn 0.44673 -0.00606 0.94343 0.0
O897 O 0.43124 0.95893 0.9415 0.0
C898 C 0.2706 -0.0022 0.94989 0.0
Zn899 Zn 0.44747 0.99089 0.9571 0.0
C900 C 0.42562 0.94687 0.94792 0.0
O901 O 0.43073 0.9562 0.95492 0.0
C902 C 0.4726 0.03786 0.95266 0.0
O903 O 0.58269 0.9864 0.95744 0.0
O904 O 0.58183 0.98964 0.944 0.0
N905 N 0.4354 0.98434 0.96939 0.0
C906 C 0.47152 -0.00729 0.97629 0.0
C907 C 0.38407 0.96656 0.97989 0.0
N908 N 0.3811 0.96814 0.97166 0.0
N909 N 0.4401 0.98181 0.98298 0.0
C910 C 0.40962 -0.00604 0.92447 0.0
C911 C 0.51934 0.01234 0.92008 0.0
N912 N 0.45767 -0.0002 0.93107 0.0
N913 N 0.52558 0.01124 0.92831 0.0
N914 N 0.44705 0.00169 0.91748 0.0
H915 H 0.32684 0.96966 0.93058 0.0
H916 H 0.32466 0.96844 0.9195 0.0
H917 H 0.27141 -0.00886 0.92489 0.0
C918 C 0.32889 0.97984 0.92489 0.0
C919 C 0.54025 0.01063 0.97638 0.0
H920 H 0.58584 0.00792 0.98156 0.0
H921 H 0.50887 0.02738 0.97715 0.0
H922 H 0.57686 0.0108 0.97053 0.0
O923 O 0.46552 0.02569 0.95905 0.0
O924 O 0.46438 0.02883 0.94561 0.0
C925 C 0.62354 0.98707 0.95066 0.0
O926 O 0.31133 -0.00177 0.94311 0.0
O927 O 0.31244 -0.0046 0.95655 0.0
Zn928 Zn 0.28314 0.73401 0.94332 0.0
O929 O 0.30128 0.76899 0.94165 0.0
C930 C 0.46018 0.72905 0.94939 0.0
Zn931 Zn 0.28437 0.73612 0.957 0.0
C932 C 0.30781 0.78063 0.94817 0.0
O933 O 0.30246 0.77092 0.95511 0.0
C934 C 0.25595 0.68959 0.9522 0.0
O935 O 0.14914 0.74095 0.95767 0.0
O936 O 0.14821 0.73888 0.9442 0.0
N937 N 0.30034 0.74135 0.96933 0.0
C938 C 0.25431 0.73621 0.97613 0.0
C939 C 0.36987 0.75292 0.98002 0.0
N940 N 0.37186 0.75177 0.97179 0.0
N941 N 0.29674 0.74334 0.98294 0.0
C942 C 0.30936 0.73672 0.92419 0.0
C943 C 0.21595 0.71241 0.92027 0.0
N944 N 0.26917 0.72877 0.93097 0.0
N945 N 0.21093 0.71379 0.9285 0.0
N946 N 0.27692 0.72669 0.91739 0.0
H947 H 0.35693 0.77039 0.92275 0.0
H948 H 0.43218 0.74879 0.91963 0.0
H949 H 0.41335 0.75435 0.93041 0.0
C950 C 0.38265 0.75339 0.92429 0.0
C951 C 0.17065 0.72327 0.97607 0.0
H952 H 0.1652 0.71273 0.97048 0.0
H953 H 0.11571 0.73541 0.97611 0.0
H954 H 0.16548 0.71238 0.9816 0.0
O955 O 0.26508 0.70125 0.95868 0.0
O956 O 0.26342 0.69909 0.94523 0.0
C957 C 0.10737 0.74096 0.95094 0.0
O958 O 0.41836 0.72902 0.94267 0.0
O959 O 0.41933 0.73123 0.95611 0.0
Zn960 Zn 0.44665 0.7409 0.81897 0.0
O961 O 0.58174 0.74578 0.81858 0.0
C962 C 0.47494 0.69425 0.82334 0.0
Zn963 Zn 0.44755 0.73827 0.83264 0.0
C964 C 0.6235 0.74549 0.82531 0.0
O965 O 0.58265 0.74311 0.83203 0.0
C966 C 0.27064 0.73358 0.82628 0.0
O967 O 0.42925 0.77313 0.83473 0.0
O968 O 0.42839 0.77552 0.82128 0.0
N969 N 0.45909 0.73177 0.84493 0.0
C970 C 0.41748 0.73894 0.85175 0.0
C971 C 0.50982 0.71412 0.85547 0.0
N972 N 0.51666 0.71647 0.84729 0.0
N973 N 0.44832 0.72808 0.85845 0.0
C974 C 0.47046 0.7395 0.79978 0.0
C975 C 0.38275 0.76565 0.79626 0.0
N976 N 0.43423 0.74772 0.80671 0.0
N977 N 0.37976 0.76392 0.80448 0.0
N978 N 0.43895 0.7505 0.79313 0.0
H979 H 0.58466 0.72441 0.79441 0.0
H980 H 0.50828 0.70487 0.79888 0.0
H981 H 0.57651 0.72153 0.80545 0.0
C982 C 0.53947 0.72166 0.79963 0.0
C983 C 0.34433 0.75564 0.85178 0.0
H984 H 0.31516 0.75742 0.84561 0.0
H985 H 0.36973 0.7724 0.85367 0.0
H986 H 0.29366 0.75046 0.85625 0.0
O987 O 0.31238 0.7333 0.833 0.0
O988 O 0.31153 0.73603 0.81956 0.0
C989 C 0.42276 0.785 0.82826 0.0
O990 O 0.46637 0.70615 0.8169 0.0
O991 O 0.46717 0.70351 0.83034 0.0
Zn992 Zn 0.28037 -0.00206 0.83264 0.0
O993 O 0.29638 0.96279 0.83393 0.0
C994 C 0.45756 0.00267 0.82674 0.0
Zn995 Zn 0.28186 -0.00393 0.81894 0.0
C996 C 0.30363 0.95123 0.8274 0.0
O997 O 0.29966 0.96105 0.82048 0.0
C998 C 0.25412 0.04265 0.82417 0.0
O999 O 0.14673 -0.00867 0.8181 0.0
O1000 O 0.14545 -0.0065 0.83157 0.0
N1001 N 0.29986 -0.00818 0.80657 0.0
C1002 C 0.25541 -0.00259 0.79972 0.0
C1003 C 0.37205 0.98106 0.7959 0.0
N1004 N 0.37205 0.98163 0.80415 0.0
N1005 N 0.29956 0.9908 0.79293 0.0
C1006 C 0.31265 -0.00433 0.85164 0.0
C1007 C 0.20041 0.01281 0.85612 0.0
N1008 N 0.2652 0.00192 0.84506 0.0
N1009 N 0.19563 0.01257 0.84787 0.0
N1010 N 0.27336 0.00239 0.85868 0.0
H1011 H 0.39732 0.9721 0.84541 0.0
H1012 H 0.40012 0.97051 0.85648 0.0
H1013 H 0.45109 -0.00626 0.85118 0.0
C1014 C 0.39466 0.98208 0.85115 0.0
C1015 C 0.17159 0.01026 0.79974 0.0
H1016 H 0.11683 -0.00192 0.79953 0.0
H1017 H 0.16741 0.02149 0.7943 0.0
H1018 H 0.16495 0.02044 0.80541 0.0
O1019 O 0.26261 0.03111 0.81764 0.0
O1020 O 0.26215 0.03301 0.83111 0.0
C1021 C 0.10478 -0.00858 0.82483 0.0
O1022 O 0.41574 0.00241 0.83347 0.0
O1023 O 0.41668 0.00088 0.82002 0.0
H1024 H 0.94945 0.41832 0.05913 0.0
H1025 H 0.73423 0.32012 0.08583 0.0
H1026 H 0.96891 0.41267 0.08551 0.0
H1027 H 0.77382 0.31306 0.0597 0.0
H1028 H 0.80512 0.35676 0.08535 0.0
H1029 H 0.87674 0.38139 0.05878 0.0
C1030 C 0.93973 0.4092 0.06482 0.0
C1031 C 0.96494 0.41865 0.07237 0.0
C1032 C 0.79814 0.34727 0.0797 0.0
C1033 C 0.88043 0.37686 0.07201 0.0
C1034 C 0.75694 0.32639 0.07995 0.0
C1035 C 0.74862 0.31341 0.0728 0.0
C1036 C 0.83131 0.35538 0.07223 0.0
C1037 C 0.77896 0.32253 0.06536 0.0
C1038 C 0.89778 0.38822 0.06462 0.0
C1039 C 0.95032 0.40614 0.07955 0.0
N1040 N 0.81958 0.34297 0.06527 0.0
N1041 N 0.90842 0.38603 0.0792 0.0
H1042 H 0.47873 0.91227 0.08624 0.0
H1043 H 0.24671 0.81569 0.06 0.0
H1044 H 0.43572 0.91876 0.06015 0.0
H1045 H 0.242 0.81969 0.08647 0.0
H1046 H 0.32239 0.85213 0.05957 0.0
H1047 H 0.40503 0.87595 0.08602 0.0
C1048 C 0.45475 0.90592 0.08043 0.0
C1049 C 0.46292 0.91866 0.07321 0.0
C1050 C 0.30398 0.84507 0.06546 0.0
C1051 C 0.37697 0.87711 0.07294 0.0
C1052 C 0.26028 0.82438 0.06571 0.0
C1053 C 0.2382 0.81459 0.07329 0.0
C1054 C 0.32624 0.85587 0.07284 0.0
C1055 C 0.25785 0.82653 0.08049 0.0
C1056 C 0.41195 0.88523 0.08032 0.0
C1057 C 0.43083 0.90948 0.06586 0.0
N1058 N 0.30134 0.84642 0.08008 0.0
N1059 N 0.38863 0.88927 0.06592 0.0
H1060 H 0.73751 0.91354 0.19008 0.0
H1061 H 0.97001 0.8174 0.21646 0.0
H1062 H 0.78105 0.92063 0.21615 0.0
H1063 H 0.97985 0.82204 0.19001 0.0
H1064 H 0.89315 0.85369 0.21686 0.0
H1065 H 0.81194 0.87733 0.1904 0.0
C1066 C 0.76174 0.90734 0.19591 0.0
C1067 C 0.75358 0.92023 0.20309 0.0
C1068 C 0.91297 0.84679 0.21099 0.0
C1069 C 0.84033 0.87881 0.20346 0.0
C1070 C 0.95734 0.82619 0.21076 0.0
C1071 C 0.98118 0.81663 0.20319 0.0
C1072 C 0.89178 0.8577 0.2036 0.0
C1073 C 0.96262 0.82869 0.19599 0.0
C1074 C 0.80496 0.88672 0.19606 0.0
C1075 C 0.78598 0.91124 0.21046 0.0
N1076 N 0.9184 0.84847 0.19638 0.0
N1077 N 0.82857 0.89109 0.21045 0.0
H1078 H 0.2335 0.41398 0.18969 0.0
H1079 H 0.4403 0.31489 0.21661 0.0
H1080 H 0.26561 0.41999 0.21594 0.0
H1081 H 0.46174 0.32021 0.19023 0.0
H1082 H 0.36825 0.35192 0.21686 0.0
H1083 H 0.30272 0.3771 0.19017 0.0
C1084 C 0.25417 0.40743 0.19558 0.0
C1085 C 0.24422 0.42018 0.20278 0.0
C1086 C 0.38951 0.34498 0.21104 0.0
C1087 C 0.32499 0.37795 0.20335 0.0
C1088 C 0.43111 0.32396 0.21089 0.0
C1089 C 0.45681 0.3144 0.20338 0.0
C1090 C 0.37307 0.3563 0.20362 0.0
C1091 C 0.44279 0.32682 0.19617 0.0
C1092 C 0.29441 0.38641 0.19584 0.0
C1093 C 0.27208 0.41072 0.21024 0.0
N1094 N 0.40133 0.347 0.19647 0.0
N1095 N 0.31177 0.39017 0.21033 0.0
H1096 H 0.01436 0.56243 0.96609 0.0
H1097 H 0.23324 0.66035 0.93948 0.0
H1098 H -0.0073 0.56855 0.93974 0.0
H1099 H 0.20382 0.66556 0.96578 0.0
H1100 H 0.15826 0.62421 0.93981 0.0
H1101 H 0.09035 0.59885 0.96643 0.0
C1102 C 0.02424 0.57157 0.9604 0.0
C1103 C -0.00249 0.56237 0.95286 0.0
C1104 C 0.16844 0.63318 0.94553 0.0
C1105 C 0.08581 0.6036 0.95322 0.0
C1106 C 0.212 0.65375 0.94535 0.0
C1107 C 0.2244 0.66607 0.95261 0.0
C1108 C 0.13701 0.62475 0.95301 0.0
C1109 C 0.19562 0.6566 0.96004 0.0
C1110 C 0.06812 0.59225 0.9606 0.0
C1111 C 0.01242 0.5749 0.94569 0.0
N1112 N 0.15269 0.6365 0.96005 0.0
N1113 N 0.05621 0.59474 0.94604 0.0
H1114 H 0.72607 0.16146 0.93999 0.0
H1115 H 0.51691 0.06191 0.96649 0.0
H1116 H 0.68926 0.16719 0.9662 0.0
H1117 H 0.49871 0.06749 0.9401 0.0
H1118 H 0.58783 0.09903 0.96688 0.0
H1119 H 0.65704 0.12455 0.94032 0.0
C1120 C 0.70439 0.15484 0.94584 0.0
C1121 C 0.71294 0.16752 0.95307 0.0
C1122 C 0.5675 0.09214 0.96103 0.0
C1123 C 0.63243 0.12526 0.95347 0.0
C1124 C 0.52657 0.07105 0.9608 0.0
C1125 C 0.50218 0.06153 0.95325 0.0
C1126 C 0.58464 0.10358 0.95365 0.0
C1127 C 0.51665 0.07408 0.94607 0.0
C1128 C 0.66426 0.1338 0.94602 0.0
C1129 C 0.68388 0.15798 0.96048 0.0
N1130 N 0.55754 0.09433 0.94645 0.0
N1131 N 0.64434 0.1374 0.96049 0.0
H1132 H 0.0013 0.168 0.81029 0.0
H1133 H 0.22996 0.07164 0.83698 0.0
H1134 H -0.01001 0.16393 0.83674 0.0
H1135 H 0.20171 0.06682 0.81066 0.0
H1136 H 0.15323 0.10757 0.83671 0.0
H1137 H 0.07955 0.13196 0.81004 0.0
C1138 C 0.01393 0.15937 0.81603 0.0
C1139 C -0.01074 0.16903 0.82355 0.0
C1140 C 0.16413 0.09874 0.83098 0.0
C1141 C 0.08027 0.12818 0.82331 0.0
C1142 C 0.20869 0.07829 0.83112 0.0
C1143 C 0.22192 0.06613 0.82383 0.0
C1144 C 0.13249 0.10719 0.82351 0.0
C1145 C 0.19294 0.07564 0.81642 0.0
C1146 C 0.05916 0.1389 0.81588 0.0
C1147 C 0.00784 0.15717 0.8308 0.0
N1148 N 0.14901 0.09559 0.81645 0.0
N1149 N 0.05281 0.13749 0.83049 0.0
H1150 H 0.49044 0.66429 0.83593 0.0
H1151 H 0.71776 0.56723 0.80952 0.0
H1152 H 0.53181 0.67068 0.8098 0.0
H1153 H 0.72309 0.57103 0.83599 0.0
H1154 H 0.64359 0.60388 0.80915 0.0
H1155 H 0.56316 0.62785 0.83565 0.0
C1156 C 0.5139 0.6579 0.8301 0.0
C1157 C 0.50548 0.67063 0.82288 0.0
C1158 C 0.66181 0.59673 0.81502 0.0
C1159 C 0.5903 0.62893 0.82255 0.0
C1160 C 0.70464 0.57591 0.81524 0.0
C1161 C 0.72646 0.56601 0.8228 0.0
C1162 C 0.64017 0.60755 0.82241 0.0
C1163 C 0.7074 0.57795 0.83002 0.0
C1164 C 0.55613 0.63714 0.82996 0.0
C1165 C 0.5369 0.6614 0.81551 0.0
N1166 N 0.66477 0.59797 0.82964 0.0
N1167 N 0.57853 0.64111 0.81554 0.0
H1168 H 0.96314 0.91692 0.55948 0.0
H1169 H 0.73898 0.81978 0.58607 0.0
H1170 H 0.97631 0.91204 0.58591 0.0
H1171 H 0.77981 0.81281 0.55996 0.0
H1172 H 0.81157 0.85621 0.58567 0.0
H1173 H 0.88824 0.88031 0.55913 0.0
C1174 C 0.95158 0.90802 0.56519 0.0
C1175 C 0.97578 0.9176 0.57274 0.0
C1176 C 0.80445 0.8468 0.58001 0.0
C1177 C 0.8887 0.87617 0.57238 0.0
C1178 C 0.76229 0.82604 0.58022 0.0
C1179 C 0.75383 0.81313 0.57304 0.0
C1180 C 0.83849 0.85485 0.57257 0.0
C1181 C 0.785 0.82221 0.56563 0.0
C1182 C 0.90836 0.88723 0.56498 0.0
C1183 C 0.95869 0.90539 0.57994 0.0
N1184 N 0.82658 0.84252 0.56559 0.0
N1185 N 0.91561 0.88544 0.57958 0.0
H1186 H 0.25455 0.31415 0.55944 0.0
H1187 H 0.4793 0.41224 0.58546 0.0
H1188 H 0.2451 0.31953 0.58588 0.0
H1189 H 0.43275 0.41902 0.55943 0.0
H1190 H 0.40821 0.37561 0.58522 0.0
H1191 H 0.32786 0.35097 0.55888 0.0
C1192 C 0.2666 0.3232 0.56511 0.0
C1193 C 0.24391 0.3137 0.57272 0.0
C1194 C 0.41373 0.38502 0.57954 0.0
C1195 C 0.32916 0.35538 0.57212 0.0
C1196 C 0.45501 0.4059 0.57966 0.0
C1197 C 0.46144 0.41881 0.57246 0.0
C1198 C 0.3785 0.37684 0.57218 0.0
C1199 C 0.42914 0.40961 0.56512 0.0
C1200 C 0.3089 0.3441 0.56478 0.0
C1201 C 0.26157 0.3261 0.57987 0.0
N1202 N 0.38843 0.38917 0.56517 0.0
N1203 N 0.30373 0.34616 0.57939 0.0
H1204 H 0.95724 0.31357 0.71629 0.0
H1205 H 0.73102 0.40993 0.68947 0.0
H1206 H 0.97295 0.31836 0.68987 0.0
H1207 H 0.76517 0.41644 0.71568 0.0
H1208 H 0.80625 0.37384 0.6899 0.0
H1209 H 0.87999 0.34983 0.71655 0.0
C1210 C 0.94578 0.32239 0.71056 0.0
C1211 C 0.97137 0.31287 0.70304 0.0
C1212 C 0.79705 0.38308 0.69558 0.0
C1213 C 0.88157 0.35392 0.7033 0.0
C1214 C 0.75335 0.40363 0.69535 0.0
C1215 C 0.7422 0.41631 0.70255 0.0
C1216 C 0.82994 0.37502 0.70306 0.0
C1217 C 0.77236 0.4072 0.70999 0.0
C1218 C 0.90117 0.34298 0.71072 0.0
C1219 C 0.9543 0.32497 0.69581 0.0
N1220 N 0.81545 0.38711 0.71005 0.0
N1221 N 0.90988 0.34473 0.69612 0.0
H1222 H 0.4436 0.8119 0.71676 0.0
H1223 H 0.23146 0.91051 0.68999 0.0
H1224 H 0.46449 0.81754 0.69039 0.0
H1225 H 0.26407 0.91652 0.71623 0.0
H1226 H 0.30291 0.87392 0.69043 0.0
H1227 H 0.37028 0.84875 0.71707 0.0
C1228 C 0.43405 0.82101 0.71106 0.0
C1229 C 0.45991 0.81157 0.70353 0.0
C1230 C 0.29423 0.88316 0.69611 0.0
C1231 C 0.37471 0.85329 0.70384 0.0
C1232 C 0.2527 0.90402 0.69587 0.0
C1233 C 0.24217 0.91669 0.70308 0.0
C1234 C 0.32553 0.87478 0.7036 0.0
C1235 C 0.27087 0.90731 0.71053 0.0
C1236 C 0.39173 0.84193 0.71124 0.0
C1237 C 0.44543 0.82405 0.69633 0.0
N1238 N 0.3118 0.88691 0.7106 0.0
N1239 N 0.40323 0.84412 0.69667 0.0
H1240 H 0.98114 0.07069 0.43942 0.0
H1241 H 0.21507 0.16661 0.46584 0.0
H1242 H 0.01628 0.06497 0.46564 0.0
H1243 H 0.224 0.1623 0.43938 0.0
H1244 H 0.13694 0.13053 0.4662 0.0
H1245 H 0.05828 0.10654 0.43965 0.0
C1246 C 0.00406 0.07712 0.44525 0.0
C1247 C -0.00738 0.06474 0.45252 0.0
C1248 C 0.15683 0.13743 0.46034 0.0
C1249 C 0.08254 0.10571 0.4528 0.0
C1250 C 0.20197 0.15792 0.46012 0.0
C1251 C 0.22586 0.16753 0.45257 0.0
C1252 C 0.13501 0.12666 0.45294 0.0
C1253 C 0.20672 0.15559 0.44535 0.0
C1254 C 0.04886 0.09753 0.44537 0.0
C1255 C 0.02362 0.07398 0.4599 0.0
N1256 N 0.16181 0.13591 0.44572 0.0
N1257 N 0.06776 0.09391 0.45984 0.0
H1258 H 0.68673 0.66947 0.46684 0.0
H1259 H 0.48156 0.57016 0.43996 0.0
H1260 H 0.71109 0.66368 0.44051 0.0
H1261 H 0.51381 0.56403 0.46621 0.0
H1262 H 0.55101 0.60701 0.44046 0.0
H1263 H 0.61513 0.63237 0.46712 0.0
C1264 C 0.67827 0.66029 0.46115 0.0
C1265 C 0.70461 0.66974 0.45363 0.0
C1266 C 0.5427 0.59768 0.44613 0.0
C1267 C 0.6214 0.62776 0.45391 0.0
C1268 C 0.50233 0.57668 0.44586 0.0
C1269 C 0.49232 0.5639 0.45305 0.0
C1270 C 0.57334 0.60611 0.45364 0.0
C1271 C 0.52031 0.57332 0.46051 0.0
C1272 C 0.63695 0.63922 0.46131 0.0
C1273 C 0.69159 0.65716 0.44644 0.0
N1274 N 0.5601 0.59387 0.46062 0.0
N1275 N 0.65033 0.63695 0.44675 0.0
H1276 H 0.23244 0.56879 0.33582 0.0
H1277 H 0.00105 0.66586 0.30978 0.0
H1278 H 0.1876 0.56224 0.30976 0.0
H1279 H -0.00664 0.66079 0.33623 0.0
H1280 H 0.07698 0.62943 0.30925 0.0
H1281 H 0.15908 0.60514 0.33562 0.0
C1282 C 0.20813 0.57513 0.33002 0.0
C1283 C 0.21566 0.56236 0.3228 0.0
C1284 C 0.05785 0.63627 0.31515 0.0
C1285 C 0.1301 0.60396 0.32256 0.0
C1286 C 0.01402 0.65695 0.31546 0.0
C1287 C -0.00897 0.66643 0.32307 0.0
C1288 C 0.07933 0.62519 0.3225 0.0
C1289 C 0.00996 0.65422 0.33023 0.0
C1290 C 0.16552 0.59584 0.32993 0.0
C1291 C 0.18317 0.57154 0.31546 0.0
N1292 N 0.05359 0.63436 0.32976 0.0
N1293 N 0.14117 0.59178 0.31554 0.0
H1294 H 0.72729 0.06823 0.33555 0.0
H1295 H 0.51354 0.16727 0.3092 0.0
H1296 H 0.68462 0.06139 0.30946 0.0
H1297 H 0.49525 0.16117 0.33558 0.0
H1298 H 0.58512 0.13019 0.30872 0.0
H1299 H 0.65794 0.10507 0.33517 0.0
C1300 C 0.7042 0.07459 0.32971 0.0
C1301 C 0.7112 0.06161 0.32253 0.0
C1302 C 0.56458 0.13696 0.31459 0.0
C1303 C 0.63027 0.10382 0.32209 0.0
C1304 C 0.5233 0.15802 0.31487 0.0
C1305 C 0.49871 0.16739 0.32245 0.0
C1306 C 0.58192 0.12543 0.32194 0.0
C1307 C 0.51335 0.15472 0.32959 0.0
C1308 C 0.6639 0.09559 0.32951 0.0
C1309 C 0.68048 0.07085 0.31514 0.0
N1310 N 0.55461 0.13453 0.32916 0.0
N1311 N 0.64073 0.09141 0.31511 0.0
H1312 H 0.91277 0.4849 0.121 0.0
H1313 H 0.29603 0.48815 0.15424 0.0
H1314 H 0.18358 0.47876 0.11479 0.0
H1315 H 0.02698 0.4784 0.16064 0.0
H1316 H 0.2552 0.48972 0.13974 0.0
H1317 H 0.95223 0.48746 0.13557 0.0
C1318 C 0.98065 0.48447 0.12273 0.0
C1319 C 0.04524 0.48231 0.1167 0.0
C1320 C 0.2049 0.48748 0.14432 0.0
C1321 C 0.09102 0.48489 0.13331 0.0
C1322 C 0.22818 0.4866 0.15259 0.0
C1323 C 0.1647 0.48359 0.15868 0.0
C1324 C 0.11731 0.48522 0.14208 0.0
C1325 C 0.07773 0.48152 0.1562 0.0
C1326 C 0.00315 0.48586 0.13102 0.0
C1327 C 0.13219 0.48135 0.11923 0.0
N1328 N 0.0566 0.48236 0.1481 0.0
N1329 N 0.15258 0.48269 0.12734 0.0
H1330 H 0.02492 0.75449 0.11511 0.0
H1331 H 0.20061 0.75385 0.16112 0.0
H1332 H 0.2938 0.74326 0.12123 0.0
H1333 H 0.92926 0.7477 0.15516 0.0
H1334 H 0.23652 0.75022 0.14652 0.0
H1335 H -0.01218 0.75223 0.12968 0.0
C1336 C 0.07585 0.75095 0.11949 0.0
C1337 C 0.16238 0.74851 0.11693 0.0
C1338 C 0.16914 0.74928 0.14841 0.0
C1339 C 0.12097 0.74686 0.13367 0.0
C1340 C 0.14886 0.75106 0.15674 0.0
C1341 C 0.06212 0.75029 0.15933 0.0
C1342 C 0.10196 0.74725 0.14261 0.0
C1343 C -0.00301 0.74802 0.15338 0.0
C1344 C 0.05481 0.74993 0.12783 0.0
C1345 C 0.22626 0.74511 0.12295 0.0
N1346 N 0.01813 0.74664 0.14529 0.0
N1347 N 0.20441 0.74447 0.13103 0.0
H1348 H 0.93992 0.50572 0.86432 0.0
H1349 H 0.77393 0.50504 0.91068 0.0
H1350 H 0.6715 0.49547 0.87089 0.0
H1351 H 0.04305 0.49651 0.90405 0.0
H1352 H 0.73448 0.50269 0.89617 0.0
H1353 H 0.97925 0.50349 0.87882 0.0
C1354 C 0.8895 0.5024 0.86878 0.0
C1355 C 0.8025 0.50013 0.86636 0.0
C1356 C 0.80209 0.50104 0.8979 0.0
C1357 C 0.84656 0.4986 0.88304 0.0
C1358 C 0.82453 0.5021 0.90621 0.0
C1359 C 0.91178 0.50036 0.90861 0.0
C1360 C 0.86751 0.49864 0.89194 0.0
C1361 C 0.97499 0.49778 0.90246 0.0
C1362 C 0.91184 0.50142 0.87708 0.0
C1363 C 0.73939 0.49712 0.87249 0.0
N1364 N 0.95172 0.49707 0.89442 0.0
N1365 N 0.76254 0.4965 0.88054 0.0
H1366 H 0.76852 0.22815 0.86486 0.0
H1367 H 0.93209 0.227 0.91123 0.0
H1368 H 0.03606 0.23896 0.87158 0.0
H1369 H 0.66303 0.23551 0.90462 0.0
H1370 H 0.97202 0.23019 0.89676 0.0
H1371 H 0.72818 0.22973 0.87935 0.0
C1372 C 0.81849 0.23146 0.86935 0.0
C1373 C 0.90556 0.23405 0.86698 0.0
C1374 C 0.90431 0.23166 0.89848 0.0
C1375 C 0.86042 0.23484 0.88364 0.0
C1376 C 0.8816 0.23011 0.90677 0.0
C1377 C 0.79424 0.23161 0.90917 0.0
C1378 C 0.83906 0.23429 0.89253 0.0
C1379 C 0.73117 0.23442 0.90303 0.0
C1380 C 0.79559 0.23207 0.87765 0.0
C1381 C 0.96814 0.23705 0.87315 0.0
N1382 N 0.75471 0.23561 0.895 0.0
N1383 N 0.94448 0.23729 0.88119 0.0
H1384 H 0.05384 0.9405 0.61817 0.0
H1385 H 0.15627 0.01377 0.65842 0.0
H1386 H 0.06726 0.01323 0.61769 0.0
H1387 H 0.16808 0.94107 0.65724 0.0
H1388 H 0.11814 0.0147 0.64376 0.0
H1389 H 0.09145 0.94098 0.6327 0.0
C1390 C 0.06543 0.95659 0.62115 0.0
C1391 C 0.0587 0.9768 0.61672 0.0
C1392 C 0.12868 -0.00144 0.64673 0.0
C1393 C 0.101 0.97765 0.63342 0.0
C1394 C 0.1494 -0.00197 0.65511 0.0
C1395 C 0.16385 0.97727 0.65906 0.0
C1396 C 0.12249 0.97819 0.64232 0.0
C1397 C 0.15714 0.9574 0.65442 0.0
C1398 C 0.08694 0.9569 0.62944 0.0
C1399 C 0.07391 -0.00275 0.62085 0.0
N1400 N 0.13677 0.95834 0.64633 0.0
N1401 N 0.09413 -0.00283 0.629 0.0
H1402 H 0.15878 0.21676 0.61756 0.0
H1403 H 0.05183 0.28984 0.65775 0.0
H1404 H 0.17036 0.28946 0.61877 0.0
H1405 H 0.06648 0.21713 0.65822 0.0
H1406 H 0.09092 0.28945 0.64325 0.0
H1407 H 0.11951 0.21578 0.6322 0.0
C1408 C 0.15166 0.23249 0.62088 0.0
C1409 C 0.1663 0.25326 0.61694 0.0
C1410 C 0.08635 0.27352 0.6465 0.0
C1411 C 0.12362 0.2523 0.63365 0.0
C1412 C 0.06398 0.27378 0.65478 0.0
C1413 C 0.05718 0.25354 0.6592 0.0
C1414 C 0.10121 0.2528 0.64253 0.0
C1415 C 0.07315 0.23312 0.65507 0.0
C1416 C 0.13027 0.23193 0.62924 0.0
C1417 C 0.15927 0.27313 0.62158 0.0
N1418 N 0.09421 0.23325 0.64693 0.0
N1419 N 0.13823 0.27216 0.62966 0.0
H1420 H 0.91129 0.0409 0.40737 0.0
H1421 H 0.79694 0.96674 0.36764 0.0
H1422 H 0.89568 0.96821 0.4081 0.0
H1423 H 0.78994 0.03951 0.36847 0.0
H1424 H 0.83807 0.96619 0.38222 0.0
H1425 H 0.87078 0.04016 0.39291 0.0
C1426 C 0.89865 0.02477 0.40446 0.0
C1427 C 0.90553 0.00464 0.40894 0.0
C1428 C 0.82793 0.98226 0.37919 0.0
C1429 C 0.85982 0.00351 0.39233 0.0
C1430 C 0.80547 0.98257 0.37086 0.0
C1431 C 0.7916 0.00324 0.36683 0.0
C1432 C 0.83636 0.00277 0.38349 0.0
C1433 C 0.80041 0.02326 0.37135 0.0
C1434 C 0.87546 0.02431 0.39621 0.0
C1435 C 0.88892 0.98414 0.4049 0.0
N1436 N 0.82243 0.02253 0.37941 0.0
N1437 N 0.867 0.98407 0.39679 0.0
H1438 H 0.91465 0.68981 0.3688 0.0
H1439 H 0.80081 0.7643 0.4085 0.0
H1440 H 0.89881 0.76249 0.36799 0.0
H1441 H 0.79322 0.69152 0.40773 0.0
H1442 H 0.84274 0.76475 0.39393 0.0
H1443 H 0.87524 0.6907 0.38329 0.0
C1444 C 0.90222 0.70597 0.3717 0.0
C1445 C 0.90861 0.72605 0.36718 0.0
C1446 C 0.83235 0.74869 0.39697 0.0
C1447 C 0.86412 0.72735 0.38383 0.0
C1448 C 0.80943 0.74844 0.4053 0.0
C1449 C 0.79502 0.72781 0.40934 0.0
C1450 C 0.84074 0.72816 0.39269 0.0
C1451 C 0.80406 0.70776 0.40484 0.0
C1452 C 0.87966 0.70651 0.37997 0.0
C1453 C 0.89234 0.7466 0.37121 0.0
N1454 N 0.82649 0.70843 0.39678 0.0
N1455 N 0.87097 0.74674 0.37934 0.0
H1456 H 0.55113 0.51377 0.61739 0.0
H1457 H 0.66678 0.43945 0.65706 0.0
H1458 H 0.54325 0.44099 0.6182 0.0
H1459 H 0.65281 0.51216 0.65775 0.0
H1460 H 0.62618 0.44022 0.6426 0.0
H1461 H 0.59379 0.51424 0.63193 0.0
C1462 C 0.55979 0.49791 0.6206 0.0
C1463 C 0.54521 0.47727 0.61658 0.0
C1464 C 0.63128 0.45606 0.64589 0.0
C1465 C 0.59174 0.47765 0.63319 0.0
C1466 C 0.65455 0.45559 0.65414 0.0
C1467 C 0.66174 0.47572 0.65861 0.0
C1468 C 0.61586 0.47688 0.64201 0.0
C1469 C 0.64569 0.49624 0.65456 0.0
C1470 C 0.58314 0.49818 0.62891 0.0
C1471 C 0.55424 0.45723 0.62108 0.0
N1472 N 0.6236 0.49632 0.64646 0.0
N1473 N 0.57711 0.45791 0.62912 0.0
H1474 H 0.66131 0.71755 0.61792 0.0
H1475 H 0.54557 0.79058 0.65793 0.0
H1476 H 0.66999 0.79029 0.61905 0.0
H1477 H 0.55687 0.71782 0.65825 0.0
H1478 H 0.58762 0.79029 0.64349 0.0
H1479 H 0.61854 0.71661 0.63247 0.0
C1480 C 0.6528 0.7333 0.6212 0.0
C1481 C 0.66759 0.75407 0.61727 0.0
C1482 C 0.58164 0.77433 0.6467 0.0
C1483 C 0.62099 0.75315 0.63389 0.0
C1484 C 0.55757 0.77453 0.65494 0.0
C1485 C 0.54909 0.75424 0.6593 0.0
C1486 C 0.59655 0.75363 0.64271 0.0
C1487 C 0.56491 0.73385 0.65515 0.0
C1488 C 0.6294 0.73277 0.62951 0.0
C1489 C 0.65881 0.77396 0.62186 0.0
N1490 N 0.58773 0.73404 0.64706 0.0
N1491 N 0.63589 0.77302 0.6299 0.0
H1492 H 0.1659 0.49471 0.37099 0.0
H1493 H 0.5445 0.49577 0.40475 0.0
H1494 H 0.43677 0.50237 0.36503 0.0
H1495 H 0.27337 0.50311 0.41065 0.0
H1496 H 0.50662 0.49275 0.39016 0.0
H1497 H 0.20397 0.49232 0.38559 0.0
C1498 C 0.23355 0.49549 0.37278 0.0
C1499 C 0.29854 0.49811 0.36683 0.0
C1500 C 0.45522 0.4947 0.39465 0.0
C1501 C 0.34277 0.49576 0.38346 0.0
C1502 C 0.47685 0.49635 0.40295 0.0
C1503 C 0.41172 0.49906 0.40889 0.0
C1504 C 0.36771 0.49598 0.39227 0.0
C1505 C 0.32509 0.50016 0.40628 0.0
C1506 C 0.25528 0.4942 0.38109 0.0
C1507 C 0.38517 0.49948 0.36942 0.0
N1508 N 0.30554 0.49862 0.39816 0.0
N1509 N 0.40482 0.49829 0.37755 0.0
H1510 H 0.17251 0.23878 0.40466 0.0
H1511 H 0.55288 0.23327 0.37113 0.0
H1512 H 0.44076 0.22688 0.41084 0.0
H1513 H 0.28152 0.22714 0.36519 0.0
H1514 H 0.51454 0.23634 0.38573 0.0
H1515 H 0.21254 0.24008 0.39012 0.0
C1516 C 0.24005 0.23673 0.40295 0.0
C1517 C 0.30358 0.23317 0.40899 0.0
C1518 C 0.46327 0.23462 0.38122 0.0
C1519 C 0.34997 0.23447 0.39237 0.0
C1520 C 0.48514 0.23294 0.37292 0.0
C1521 C 0.42004 0.23064 0.36697 0.0
C1522 C 0.37556 0.23384 0.38358 0.0
C1523 C 0.33327 0.22983 0.36957 0.0
C1524 C 0.26284 0.23744 0.39467 0.0
C1525 C 0.3901 0.23044 0.40645 0.0
N1526 N 0.31349 0.23148 0.37768 0.0
N1527 N 0.41076 0.23114 0.39833 0.0
H1528 H 0.52809 0.97654 0.16141 0.0
H1529 H 0.68597 0.97845 0.11476 0.0
H1530 H 0.79482 0.98715 0.15434 0.0
H1531 H 0.41724 0.98441 0.12176 0.0
H1532 H 0.7276 0.98096 0.12924 0.0
H1533 H 0.48556 0.97875 0.14698 0.0
C1534 C 0.57743 0.97989 0.15685 0.0
C1535 C 0.66491 0.98225 0.1591 0.0
C1536 C 0.65955 0.98207 0.12762 0.0
C1537 C 0.61727 0.98387 0.14252 0.0
C1538 C 0.63602 0.9809 0.11936 0.0
C1539 C 0.54836 0.98201 0.11709 0.0
C1540 C 0.59472 0.98382 0.13367 0.0
C1541 C 0.48559 0.98387 0.12329 0.0
C1542 C 0.55328 0.98089 0.14859 0.0
C1543 C 0.72665 0.98539 0.15285 0.0
N1544 N 0.5099 0.98469 0.13131 0.0
N1545 N 0.70175 0.98606 0.14486 0.0
H1546 H 0.66476 0.29256 0.11853 0.0
H1547 H 0.55152 0.21896 0.15848 0.0
H1548 H 0.65626 0.21977 0.11816 0.0
H1549 H 0.54067 0.29168 0.15742 0.0
H1550 H 0.59452 0.21823 0.14394 0.0
H1551 H 0.62299 0.29207 0.13298 0.0
C1552 C 0.65344 0.27646 0.12152 0.0
C1553 C 0.66257 0.25622 0.11713 0.0
C1554 C 0.58314 0.23434 0.14691 0.0
C1555 C 0.61543 0.25538 0.13373 0.0
C1556 C 0.5596 0.23475 0.15522 0.0
C1557 C 0.54412 0.25545 0.15917 0.0
C1558 C 0.59099 0.25478 0.14256 0.0
C1559 C 0.55238 0.2754 0.15459 0.0
C1560 C 0.62953 0.27614 0.12976 0.0
C1561 C 0.64767 0.23576 0.12128 0.0
N1562 N 0.57544 0.27458 0.14656 0.0
N1563 N 0.62495 0.23584 0.12936 0.0
H1564 H 0.16784 -0.00547 0.87157 0.0
H1565 H 0.55293 -0.00463 0.90452 0.0
H1566 H 0.43626 0.00558 0.86518 0.0
H1567 H 0.2835 0.00389 0.91103 0.0
H1568 H 0.51155 -0.00624 0.89003 0.0
H1569 H 0.2091 -0.00739 0.88607 0.0
C1570 C 0.23563 -0.00373 0.87322 0.0
C1571 C 0.2989 -0.0003 0.86713 0.0
C1572 C 0.46137 -0.00425 0.89464 0.0
C1573 C 0.34664 -0.00236 0.8837 0.0
C1574 C 0.48492 -0.00336 0.9029 0.0
C1575 C 0.42146 -0.00073 0.90902 0.0
C1576 C 0.37352 -0.00245 0.89245 0.0
C1577 C 0.33429 0.00101 0.90658 0.0
C1578 C 0.25909 -0.00479 0.88148 0.0
C1579 C 0.38573 0.00206 0.8696 0.0
N1580 N 0.31289 0.0001 0.89848 0.0
N1581 N 0.40704 0.00096 0.8777 0.0
H1582 H 0.42186 0.69212 0.86814 0.0
H1583 H 0.31377 0.76457 0.90846 0.0
H1584 H 0.41208 0.76489 0.86795 0.0
H1585 H 0.29861 0.69195 0.90701 0.0
H1586 H 0.35491 0.76575 0.89387 0.0
H1587 H 0.38073 0.69226 0.8826 0.0
C1588 C 0.41036 0.70814 0.87117 0.0
C1589 C 0.41909 0.72848 0.86684 0.0
C1590 C 0.34294 0.74957 0.89677 0.0
C1591 C 0.37275 0.72893 0.88345 0.0
C1592 C 0.32048 0.74889 0.9051 0.0
C1593 C 0.30433 0.72808 0.90895 0.0
C1594 C 0.34912 0.72929 0.8923 0.0
C1595 C 0.31086 0.7083 0.90426 0.0
C1596 C 0.38683 0.70826 0.87942 0.0
C1597 C 0.40392 0.74884 0.87103 0.0
N1598 N 0.33296 0.70939 0.89621 0.0
N1599 N 0.38168 0.74857 0.87913 0.0
H1600 H 0.14518 0.67076 0.06438 0.0
H1601 H 0.06288 0.5601 0.09153 0.0
H1602 H 0.13624 0.67266 0.09088 0.0
H1603 H 0.06175 0.56222 0.06502 0.0
H1604 H 0.09166 0.60094 0.09173 0.0
H1605 H 0.11771 0.63045 0.06479 0.0
C1606 C 0.13758 0.66267 0.07031 0.0
C1607 C 0.14295 0.67511 0.07761 0.0
C1608 C 0.08493 0.59238 0.08589 0.0
C1609 C 0.11104 0.6287 0.07813 0.0
C1610 C 0.06847 0.56912 0.08577 0.0
C1611 C 0.05996 0.55774 0.07825 0.0
C1612 C 0.09296 0.60416 0.07843 0.0
C1613 C 0.06782 0.57022 0.07097 0.0
C1614 C 0.12174 0.63958 0.07054 0.0
C1615 C 0.13263 0.66366 0.0851 0.0
N1616 N 0.08393 0.59269 0.07125 0.0
N1617 N 0.117 0.64102 0.08518 0.0
H1618 H 0.08297 0.6731 0.21153 0.0
H1619 H 0.14757 0.56213 0.18415 0.0
H1620 H 0.07946 0.67488 0.18503 0.0
H1621 H 0.15979 0.56424 0.21063 0.0
H1622 H 0.1217 0.60312 0.18404 0.0
H1623 H 0.10926 0.63276 0.21104 0.0
C1624 C 0.08763 0.66499 0.20559 0.0
C1625 C 0.07906 0.67742 0.1983 0.0
C1626 C 0.13026 0.59452 0.18986 0.0
C1627 C 0.10954 0.63094 0.19769 0.0
C1628 C 0.1451 0.57119 0.18992 0.0
C1629 C 0.15581 0.55977 0.19741 0.0
C1630 C 0.1261 0.60634 0.19733 0.0
C1631 C 0.15183 0.57228 0.20471 0.0
C1632 C 0.10281 0.64188 0.20531 0.0
C1633 C 0.08579 0.66593 0.19079 0.0
N1634 N 0.13723 0.59482 0.20448 0.0
N1635 N 0.10069 0.64325 0.19066 0.0
H1636 H 0.79842 0.31168 0.96104 0.0
H1637 H 0.8906 0.42157 0.93383 0.0
H1638 H 0.81308 0.30901 0.93457 0.0
H1639 H 0.90298 0.41878 0.96031 0.0
H1640 H 0.85759 0.38092 0.93363 0.0
H1641 H 0.82981 0.35175 0.96055 0.0
C1642 C 0.80803 0.31956 0.9551 0.0
C1643 C 0.80331 0.30696 0.94783 0.0
C1644 C 0.86785 0.38929 0.93946 0.0
C1645 C 0.83993 0.3531 0.94723 0.0
C1646 C 0.88679 0.41242 0.93958 0.0
C1647 C 0.89943 0.42356 0.94709 0.0
C1648 C 0.86135 0.37743 0.94691 0.0
C1649 C 0.89359 0.41096 0.95436 0.0
C1650 C 0.82623 0.3425 0.95483 0.0
C1651 C 0.81617 0.31815 0.94032 0.0
N1652 N 0.87482 0.38865 0.95408 0.0
N1653 N 0.83412 0.34067 0.9402 0.0
H1654 H 0.81904 0.42213 0.81368 0.0
H1655 H 0.88712 0.31099 0.8409 0.0
H1656 H 0.82184 0.42359 0.84019 0.0
H1657 H 0.89149 0.3127 0.8144 0.0
H1658 H 0.86173 0.35194 0.84101 0.0
H1659 H 0.84344 0.38164 0.81406 0.0
C1660 C 0.82468 0.41392 0.8196 0.0
C1661 C 0.81838 0.42627 0.82692 0.0
C1662 C 0.86838 0.34329 0.83519 0.0
C1663 C 0.84664 0.37969 0.8274 0.0
C1664 C 0.88293 0.31996 0.83512 0.0
C1665 C 0.8915 0.30843 0.82763 0.0
C1666 C 0.86233 0.35503 0.82771 0.0
C1667 C 0.88534 0.32085 0.82032 0.0
C1668 C 0.83873 0.39073 0.81982 0.0
C1669 C 0.82622 0.41467 0.83441 0.0
N1670 N 0.87111 0.34342 0.82055 0.0
N1671 N 0.84003 0.39195 0.83446 0.0
H1672 H 0.07178 0.06104 0.56486 0.0
H1673 H 0.14433 0.17243 0.59181 0.0
H1674 H 0.07944 0.05927 0.59136 0.0
H1675 H 0.14937 0.16973 0.56531 0.0
H1676 H 0.11851 0.13142 0.5921 0.0
H1677 H 0.09726 0.10138 0.56523 0.0
C1678 C 0.07874 0.06915 0.57078 0.0
C1679 C 0.07346 0.05673 0.57809 0.0
C1680 C 0.12546 0.1399 0.58625 0.0
C1681 C 0.10305 0.10327 0.57857 0.0
C1682 C 0.14022 0.16324 0.58607 0.0
C1683 C 0.14901 0.1745 0.57853 0.0
C1684 C 0.11938 0.12791 0.57882 0.0
C1685 C 0.143 0.16183 0.57128 0.0
C1686 C 0.09345 0.09228 0.57099 0.0
C1687 C 0.08302 0.06825 0.58558 0.0
N1688 N 0.12852 0.13929 0.57162 0.0
N1689 N 0.09744 0.09097 0.58563 0.0
H1690 H 0.07135 0.16968 0.71114 0.0
H1691 H 0.1425 0.05807 0.68425 0.0
H1692 H 0.07738 0.17113 0.68462 0.0
H1693 H 0.1484 0.06084 0.71075 0.0
H1694 H 0.11681 0.09906 0.68395 0.0
H1695 H 0.09697 0.12932 0.7108 0.0
C1696 C 0.07799 0.16149 0.70522 0.0
C1697 C 0.07218 0.17383 0.69789 0.0
C1698 C 0.12391 0.09061 0.68981 0.0
C1699 C 0.1019 0.12728 0.69746 0.0
C1700 C 0.13859 0.06727 0.68999 0.0
C1701 C 0.14761 0.05603 0.69754 0.0
C1702 C 0.11813 0.10263 0.69723 0.0
C1703 C 0.14186 0.06874 0.70478 0.0
C1704 C 0.09277 0.13836 0.70503 0.0
C1705 C 0.08137 0.16222 0.69042 0.0
N1706 N 0.12745 0.09128 0.70444 0.0
N1707 N 0.09583 0.13951 0.69039 0.0
H1708 H 0.81109 0.81041 0.43398 0.0
H1709 H 0.89294 0.9214 0.46092 0.0
H1710 H 0.7991 0.81358 0.46046 0.0
H1711 H 0.88385 0.92325 0.43442 0.0
H1712 H 0.8636 0.88121 0.46054 0.0
H1713 H 0.84127 0.85122 0.43368 0.0
C1714 C 0.81449 0.81967 0.43971 0.0
C1715 C 0.80261 0.80859 0.44725 0.0
C1716 C 0.86793 0.8903 0.45478 0.0
C1717 C 0.83734 0.85493 0.44695 0.0
C1718 C 0.8849 0.91333 0.455 0.0
C1719 C 0.89078 0.92573 0.44768 0.0
C1720 C 0.85665 0.87941 0.44721 0.0
C1721 C 0.87983 0.91428 0.4402 0.0
C1722 C 0.83177 0.84289 0.43953 0.0
C1723 C 0.80786 0.82134 0.45449 0.0
N1724 N 0.86317 0.89168 0.44015 0.0
N1725 N 0.82494 0.84374 0.45415 0.0
H1726 H 0.89427 0.80979 0.31536 0.0
H1727 H 0.81107 0.92075 0.34227 0.0
H1728 H 0.88308 0.80775 0.34186 0.0
H1729 H 0.80235 0.91756 0.31579 0.0
H1730 H 0.84072 0.87991 0.34261 0.0
H1731 H 0.8655 0.84996 0.31576 0.0
C1732 C 0.88587 0.81781 0.32129 0.0
C1733 C 0.89097 0.80535 0.32859 0.0
C1734 C 0.83205 0.88824 0.33675 0.0
C1735 C 0.85746 0.8517 0.32909 0.0
C1736 C 0.81506 0.91149 0.33655 0.0
C1737 C 0.80428 0.92257 0.32899 0.0
C1738 C 0.8384 0.8762 0.32933 0.0
C1739 C 0.81027 0.90981 0.32176 0.0
C1740 C 0.86922 0.84084 0.32151 0.0
C1741 C 0.87964 0.81676 0.33608 0.0
N1742 N 0.82701 0.88739 0.32213 0.0
N1743 N 0.86326 0.83939 0.33614 0.0
H1744 H 0.55377 0.56251 0.56541 0.0
H1745 H 0.64648 0.67247 0.59252 0.0
H1746 H 0.56778 0.5597 0.59188 0.0
H1747 H 0.65954 0.66934 0.56605 0.0
H1748 H 0.61331 0.6318 0.59279 0.0
H1749 H 0.5859 0.60249 0.5659 0.0
C1750 C 0.56345 0.57033 0.57136 0.0
C1751 C 0.55826 0.55771 0.57862 0.0
C1752 C 0.62377 0.64011 0.58695 0.0
C1753 C 0.59576 0.60382 0.57923 0.0
C1754 C 0.64278 0.66325 0.58679 0.0
C1755 C 0.65564 0.6743 0.57926 0.0
C1756 C 0.61743 0.62816 0.57952 0.0
C1757 C 0.64996 0.66161 0.57201 0.0
C1758 C 0.58207 0.59324 0.57163 0.0
C1759 C 0.57123 0.56885 0.58613 0.0
N1760 N 0.63113 0.6393 0.57234 0.0
N1761 N 0.58959 0.59138 0.58625 0.0
H1762 H 0.6381 0.55734 0.68363 0.0
H1763 H 0.55701 0.66828 0.71059 0.0
H1764 H 0.64446 0.56021 0.71012 0.0
H1765 H 0.56606 0.67031 0.68409 0.0
H1766 H 0.58548 0.62812 0.71019 0.0
H1767 H 0.60944 0.59821 0.68332 0.0
C1768 C 0.63374 0.56654 0.68936 0.0
C1769 C 0.64362 0.55536 0.69691 0.0
C1770 C 0.58133 0.63722 0.70443 0.0
C1771 C 0.6107 0.6018 0.6966 0.0
C1772 C 0.56486 0.66026 0.70466 0.0
C1773 C 0.55915 0.67272 0.69735 0.0
C1774 C 0.59229 0.62634 0.69685 0.0
C1775 C 0.56991 0.6613 0.68986 0.0
C1776 C 0.61734 0.58981 0.68918 0.0
C1777 C 0.63723 0.56805 0.70415 0.0
N1778 N 0.58608 0.63866 0.68979 0.0
N1779 N 0.62111 0.59051 0.7038 0.0
H1780 H 0.39605 0.42203 0.43413 0.0
H1781 H 0.32124 0.31137 0.46148 0.0
H1782 H 0.39984 0.42019 0.46064 0.0
H1783 H 0.32679 0.30934 0.43497 0.0
H1784 H 0.34735 0.35174 0.461 0.0
H1785 H 0.36893 0.38111 0.43402 0.0
C1786 C 0.39137 0.41306 0.43991 0.0
C1787 C 0.40018 0.42454 0.4474 0.0
C1788 C 0.34288 0.34256 0.45527 0.0
C1789 C 0.36911 0.37802 0.44731 0.0
C1790 C 0.32783 0.31943 0.45554 0.0
C1791 C 0.32185 0.30695 0.44825 0.0
C1792 C 0.35215 0.35343 0.44766 0.0
C1793 C 0.33091 0.31837 0.44074 0.0
C1794 C 0.37587 0.38975 0.43984 0.0
C1795 C 0.39351 0.41211 0.45471 0.0
N1796 N 0.34572 0.34105 0.44063 0.0
N1797 N 0.37833 0.38959 0.45447 0.0
H1798 H 0.39808 0.30834 0.3421 0.0
H1799 H 0.30955 0.4188 0.31509 0.0
H1800 H 0.40507 0.31121 0.31561 0.0
H1801 H 0.31986 0.42092 0.34158 0.0
H1802 H 0.34009 0.37871 0.31551 0.0
H1803 H 0.3668 0.34908 0.34239 0.0
C1804 C 0.39336 0.31751 0.33637 0.0
C1805 C 0.40403 0.30636 0.32882 0.0
C1806 C 0.33577 0.38784 0.32125 0.0
C1807 C 0.36811 0.35262 0.32911 0.0
C1808 C 0.31809 0.41081 0.32102 0.0
C1809 C 0.3123 0.42327 0.32832 0.0
C1810 C 0.34788 0.37705 0.32884 0.0
C1811 C 0.32386 0.41192 0.33581 0.0
C1812 C 0.37545 0.3407 0.33654 0.0
C1813 C 0.39722 0.31901 0.32157 0.0
N1814 N 0.34129 0.38935 0.33589 0.0
N1815 N 0.37959 0.34139 0.32191 0.0
H1816 H 0.5614 0.06217 0.06542 0.0
H1817 H 0.64135 0.17281 0.09258 0.0
H1818 H 0.5628 0.06017 0.09193 0.0
H1819 H 0.65873 0.1696 0.06613 0.0
H1820 H 0.60976 0.13205 0.09282 0.0
H1821 H 0.59239 0.10223 0.06589 0.0
C1822 C 0.56807 0.07018 0.07137 0.0
C1823 C 0.55966 0.05776 0.07865 0.0
C1824 C 0.62078 0.14036 0.08699 0.0
C1825 C 0.59576 0.10395 0.07925 0.0
C1826 C 0.63891 0.16355 0.08684 0.0
C1827 C 0.65254 0.17461 0.07932 0.0
C1828 C 0.61621 0.12836 0.07956 0.0
C1829 C 0.64849 0.16187 0.07208 0.0
C1830 C 0.58602 0.09314 0.07163 0.0
C1831 C 0.56891 0.06914 0.08617 0.0
N1832 N 0.63057 0.13951 0.07238 0.0
N1833 N 0.58662 0.09169 0.08628 0.0
H1834 H 0.55108 0.17124 0.21061 0.0
H1835 H 0.64873 0.06069 0.184 0.0
H1836 H 0.56842 0.17328 0.18414 0.0
H1837 H 0.65984 0.06451 0.21047 0.0
H1838 H 0.61509 0.10128 0.18357 0.0
H1839 H 0.58429 0.13132 0.21031 0.0
C1840 C 0.56171 0.16326 0.2047 0.0
C1841 C 0.55716 0.17566 0.19738 0.0
C1842 C 0.62525 0.09316 0.18945 0.0
C1843 C 0.59589 0.12961 0.197 0.0
C1844 C 0.64454 0.07006 0.1897 0.0
C1845 C 0.65695 0.05922 0.19729 0.0
C1846 C 0.61814 0.1053 0.19683 0.0
C1847 C 0.65062 0.07209 0.20448 0.0
C1848 C 0.58096 0.14038 0.20454 0.0
C1849 C 0.57133 0.16431 0.18993 0.0
N1850 N 0.63149 0.09438 0.20406 0.0
N1851 N 0.59027 0.14182 0.18992 0.0
H1852 H 0.32256 0.80937 0.96108 0.0
H1853 H 0.40236 0.92047 0.93416 0.0
H1854 H 0.32912 0.80779 0.93457 0.0
H1855 H 0.41473 0.91733 0.96063 0.0
H1856 H 0.37289 0.87965 0.93387 0.0
H1857 H 0.3521 0.84955 0.96073 0.0
C1858 C 0.33008 0.8175 0.95516 0.0
C1859 C 0.32343 0.80519 0.94784 0.0
C1860 C 0.38234 0.88798 0.93972 0.0
C1861 C 0.35777 0.85147 0.94739 0.0
C1862 C 0.39925 0.91121 0.93989 0.0
C1863 C 0.41093 0.9223 0.94743 0.0
C1864 C 0.37698 0.87595 0.94714 0.0
C1865 C 0.40605 0.90956 0.95467 0.0
C1866 C 0.34717 0.84052 0.95497 0.0
C1867 C 0.33373 0.8167 0.94036 0.0
N1868 N 0.38933 0.88713 0.95433 0.0
N1869 N 0.35052 0.83929 0.94032 0.0
H1870 H 0.39935 0.81188 0.84191 0.0
H1871 H 0.3188 0.92223 0.81453 0.0
H1872 H 0.40902 0.81399 0.81541 0.0
H1873 H 0.3232 0.92427 0.84104 0.0
H1874 H 0.34779 0.88197 0.81501 0.0
H1875 H 0.36873 0.85266 0.84201 0.0
C1876 C 0.39535 0.8209 0.83613 0.0
C1877 C 0.40676 0.80954 0.82864 0.0
C1878 C 0.34243 0.89113 0.82075 0.0
C1879 C 0.37153 0.85585 0.82872 0.0
C1880 C 0.3257 0.91419 0.82047 0.0
C1881 C 0.31865 0.92664 0.82776 0.0
C1882 C 0.35232 0.88032 0.82836 0.0
C1883 C 0.32812 0.91526 0.83527 0.0
C1884 C 0.37778 0.84411 0.83619 0.0
C1885 C 0.40068 0.82199 0.82134 0.0
N1886 N 0.34464 0.89267 0.83539 0.0
N1887 N 0.38341 0.8444 0.82157 0.0
H1888 H 0.73655 0.49425 0.06176 0.0
H1889 H 0.30776 0.48091 0.08912 0.0
H1890 H 0.73729 0.492 0.08827 0.0
H1891 H 0.30692 0.48312 0.06262 0.0
H1892 H 0.46575 0.48436 0.08893 0.0
H1893 H 0.57858 0.49067 0.06195 0.0
C1894 C 0.70343 0.49323 0.06762 0.0
C1895 C 0.75008 0.4934 0.07501 0.0
C1896 C 0.43099 0.48399 0.08316 0.0
C1897 C 0.56974 0.48901 0.07527 0.0
C1898 C 0.34085 0.4819 0.08326 0.0
C1899 C 0.29417 0.48177 0.07588 0.0
C1900 C 0.47457 0.486 0.07561 0.0
C1901 C 0.34033 0.48318 0.06846 0.0
C1902 C 0.61332 0.49105 0.06772 0.0
C1903 C 0.70391 0.49192 0.08242 0.0
N1904 N 0.42801 0.48533 0.06852 0.0
N1905 N 0.61626 0.4897 0.08236 0.0
H1906 H 0.46705 0.74081 0.06152 0.0
H1907 H 0.89183 0.75041 0.08963 0.0
H1908 H 0.46251 0.73915 0.08803 0.0
H1909 H 0.89662 0.75181 0.06312 0.0
H1910 H 0.73378 0.74691 0.08918 0.0
H1911 H 0.62511 0.74437 0.06196 0.0
C1912 C 0.49933 0.74096 0.06742 0.0
C1913 C 0.45159 0.73972 0.07474 0.0
C1914 C 0.76946 0.74808 0.08346 0.0
C1915 C 0.63193 0.74408 0.07531 0.0
C1916 C 0.85962 0.75021 0.08372 0.0
C1917 C 0.90743 0.75135 0.07641 0.0
C1918 C 0.72705 0.74708 0.07583 0.0
C1919 C 0.86236 0.75093 0.06892 0.0
C1920 C 0.58947 0.74313 0.06768 0.0
C1921 C 0.49671 0.74011 0.08223 0.0
N1922 N 0.77472 0.74874 0.06883 0.0
N1923 N 0.58433 0.74234 0.08231 0.0
H1924 H 0.75997 0.74091 0.18764 0.0
H1925 H 0.32265 0.75462 0.21357 0.0
H1926 H 0.75211 0.74309 0.21414 0.0
H1927 H 0.33046 0.7523 0.18707 0.0
H1928 H 0.48017 0.75099 0.21388 0.0
H1929 H 0.60248 0.74458 0.18733 0.0
C1930 C 0.72503 0.74197 0.19341 0.0
C1931 C 0.76924 0.74174 0.20094 0.0
C1932 C 0.44755 0.75138 0.208 0.0
C1933 C 0.58893 0.74619 0.20061 0.0
C1934 C 0.35759 0.75355 0.20781 0.0
C1935 C 0.31337 0.75372 0.20028 0.0
C1936 C 0.4937 0.74931 0.20061 0.0
C1937 C 0.36197 0.75228 0.19301 0.0
C1938 C 0.63508 0.74416 0.19322 0.0
C1939 C 0.72062 0.74316 0.2082 0.0
N1940 N 0.44965 0.75003 0.19336 0.0
N1941 N 0.63296 0.74543 0.20785 0.0
H1942 H 0.90852 0.48391 0.21308 0.0
H1943 H 0.47208 0.4949 0.18693 0.0
H1944 H 0.90154 0.48423 0.18657 0.0
H1945 H 0.47874 0.49449 0.21345 0.0
H1946 H 0.62965 0.49144 0.18669 0.0
H1947 H 0.75086 0.4872 0.21333 0.0
C1948 C 0.87376 0.48449 0.2073 0.0
C1949 C 0.91822 0.48385 0.19978 0.0
C1950 C 0.59675 0.49219 0.19257 0.0
C1951 C 0.73783 0.48786 0.20004 0.0
C1952 C 0.50677 0.49427 0.19271 0.0
C1953 C 0.46226 0.49495 0.20023 0.0
C1954 C 0.64258 0.49075 0.19999 0.0
C1955 C 0.51051 0.49406 0.20752 0.0
C1956 C 0.78374 0.48646 0.20746 0.0
C1957 C 0.86987 0.48466 0.1925 0.0
N1958 N 0.59822 0.49191 0.20721 0.0
N1959 N 0.78215 0.48672 0.19281 0.0
H1960 H 0.65663 0.49916 0.96301 0.0
H1961 H 0.22067 0.48804 0.93678 0.0
H1962 H 0.65 0.49942 0.9365 0.0
H1963 H 0.22694 0.48795 0.9633 0.0
H1964 H 0.3782 0.49173 0.93657 0.0
H1965 H 0.499 0.49564 0.96323 0.0
C1966 C 0.62196 0.49867 0.95723 0.0
C1967 C 0.66653 0.49952 0.94972 0.0
C1968 C 0.34523 0.49081 0.94244 0.0
C1969 C 0.48615 0.49525 0.94994 0.0
C1970 C 0.25527 0.48859 0.94257 0.0
C1971 C 0.21064 0.48771 0.95008 0.0
C1972 C 0.39093 0.49219 0.94987 0.0
C1973 C 0.2588 0.48852 0.95737 0.0
C1974 C 0.53195 0.49657 0.95737 0.0
C1975 C 0.61825 0.49883 0.94243 0.0
N1976 N 0.34647 0.49081 0.95708 0.0
N1977 N 0.53056 0.49662 0.94272 0.0
H1978 H 0.48503 0.24231 0.93737 0.0
H1979 H 0.04815 0.23124 0.96352 0.0
H1980 H 0.47794 0.24186 0.96388 0.0
H1981 H 0.05559 0.23164 0.93701 0.0
H1982 H 0.2058 0.23458 0.96377 0.0
H1983 H 0.32745 0.23888 0.93713 0.0
C1984 C 0.45024 0.24168 0.94315 0.0
C1985 C 0.49463 0.24234 0.95066 0.0
C1986 C 0.17302 0.23385 0.9579 0.0
C1987 C 0.31431 0.23817 0.95042 0.0
C1988 C 0.083 0.23184 0.95774 0.0
C1989 C 0.03868 0.23122 0.95022 0.0
C1990 C 0.21905 0.23528 0.95048 0.0
C1991 C 0.08716 0.23206 0.94294 0.0
C1992 C 0.36026 0.23962 0.943 0.0
C1993 C 0.44626 0.24145 0.95795 0.0
N1994 N 0.17487 0.23415 0.94325 0.0
N1995 N 0.35856 0.23931 0.95765 0.0
H1996 H 0.64786 0.23009 0.8129 0.0
H1997 H 0.20907 0.2459 0.83842 0.0
H1998 H 0.63827 0.23418 0.83936 0.0
H1999 H 0.21822 0.24149 0.81197 0.0
H2000 H 0.36644 0.24216 0.83885 0.0
H2001 H 0.4904 0.23369 0.81245 0.0
C2002 C 0.61255 0.23155 0.81863 0.0
C2003 C 0.6563 0.2319 0.82619 0.0
C2004 C 0.33418 0.24211 0.83295 0.0
C2005 C 0.47596 0.23628 0.8257 0.0
C2006 C 0.24428 0.24434 0.83269 0.0
C2007 C 0.20044 0.24397 0.82514 0.0
C2008 C 0.38072 0.23943 0.82561 0.0
C2009 C 0.24943 0.24192 0.81792 0.0
C2010 C 0.52261 0.23371 0.81836 0.0
C2011 C 0.60718 0.23381 0.8334 0.0
N2012 N 0.33708 0.23962 0.81834 0.0
N2013 N 0.51952 0.23604 0.83298 0.0
H2014 H 0.07123 0.50145 0.83907 0.0
H2015 H 0.49642 0.49247 0.81091 0.0
H2016 H 0.06671 0.50315 0.81256 0.0
H2017 H 0.50054 0.49036 0.83742 0.0
H2018 H 0.33832 0.49596 0.81137 0.0
H2019 H 0.22931 0.49804 0.8386 0.0
C2020 C 0.10351 0.50132 0.83316 0.0
C2021 C 0.05577 0.50252 0.82585 0.0
C2022 C 0.37388 0.49464 0.81708 0.0
C2023 C 0.23617 0.49837 0.82526 0.0
C2024 C 0.46404 0.49251 0.81682 0.0
C2025 C 0.51166 0.49116 0.82413 0.0
C2026 C 0.3313 0.49543 0.82472 0.0
C2027 C 0.46643 0.49141 0.83162 0.0
C2028 C 0.19367 0.49925 0.83289 0.0
C2029 C 0.10091 0.50221 0.81836 0.0
N2030 N 0.37881 0.4936 0.83172 0.0
N2031 N 0.18856 0.50008 0.81825 0.0
H2032 H 0.31697 0.9793 0.56261 0.0
H2033 H 0.75394 -0.00636 0.58848 0.0
H2034 H 0.32455 0.98162 0.5891 0.0
H2035 H 0.74642 -0.00896 0.56198 0.0
H2036 H 0.59649 0.98979 0.58881 0.0
H2037 H 0.47446 0.98302 0.56228 0.0
C2038 C 0.35185 0.98039 0.56837 0.0
C2039 C 0.30755 0.9802 0.5759 0.0
C2040 C 0.62916 0.99016 0.58292 0.0
C2041 C 0.48789 0.98472 0.57555 0.0
C2042 C 0.71909 -0.00754 0.58272 0.0
C2043 C 0.7634 -0.00738 0.57518 0.0
C2044 C 0.58311 0.98795 0.57554 0.0
C2045 C 0.71487 -0.00896 0.56793 0.0
C2046 C 0.44181 0.98261 0.56817 0.0
C2047 C 0.35611 0.98165 0.58316 0.0
N2048 N 0.62722 0.98867 0.56829 0.0
N2049 N 0.44379 0.98397 0.5828 0.0
H2050 H 0.47295 0.23902 0.56183 0.0
H2051 H 0.89887 0.25074 0.58967 0.0
H2052 H 0.46944 0.23912 0.58834 0.0
H2053 H 0.90241 0.25039 0.56315 0.0
H2054 H 0.7408 0.24716 0.58932 0.0
H2055 H 0.63094 0.24273 0.56218 0.0
C2056 C 0.50545 0.23958 0.56772 0.0
C2057 C 0.458 0.23879 0.57506 0.0
C2058 C 0.77621 0.24797 0.58358 0.0
C2059 C 0.63833 0.24333 0.57552 0.0
C2060 C 0.86636 0.25016 0.58378 0.0
C2061 C 0.91382 0.25083 0.57643 0.0
C2062 C 0.73345 0.24643 0.57598 0.0
C2063 C 0.86842 0.24989 0.56897 0.0
C2064 C 0.59556 0.24184 0.56792 0.0
C2065 C 0.50341 0.2397 0.58253 0.0
N2066 N 0.78078 0.24765 0.56894 0.0
N2067 N 0.59103 0.24201 0.58256 0.0
H2068 H 0.75198 0.23638 0.68747 0.0
H2069 H 0.31436 0.2518 0.71323 0.0
H2070 H 0.74378 0.23976 0.71394 0.0
H2071 H 0.32272 0.24876 0.68675 0.0
H2072 H 0.47181 0.24798 0.71359 0.0
H2073 H 0.59459 0.24034 0.68711 0.0
C2074 C 0.71699 0.23774 0.69322 0.0
C2075 C 0.76111 0.23777 0.70075 0.0
C2076 C 0.43934 0.24826 0.7077 0.0
C2077 C 0.58084 0.24258 0.70037 0.0
C2078 C 0.34941 0.25054 0.70748 0.0
C2079 C 0.30532 0.25056 0.69994 0.0
C2080 C 0.48564 0.2459 0.70033 0.0
C2081 C 0.3541 0.24888 0.6927 0.0
C2082 C 0.62708 0.24012 0.693 0.0
C2083 C 0.71238 0.2396 0.708 0.0
N2084 N 0.44175 0.2465 0.69307 0.0
N2085 N 0.62476 0.24204 0.70762 0.0
H2086 H 0.90362 0.97872 0.71319 0.0
H2087 H 0.46614 -0.00725 0.68739 0.0
H2088 H 0.89552 0.981 0.6867 0.0
H2089 H 0.47409 0.99038 0.71388 0.0
H2090 H 0.62357 0.98898 0.68704 0.0
H2091 H 0.74612 0.98239 0.71355 0.0
C2092 C 0.86862 0.97979 0.70744 0.0
C2093 C 0.91277 0.9796 0.6999 0.0
C2094 C 0.59101 0.98938 0.69293 0.0
C2095 C 0.73243 0.98407 0.70028 0.0
C2096 C 0.50108 -0.00836 0.69314 0.0
C2097 C 0.4569 -0.00816 0.70068 0.0
C2098 C 0.6372 0.98725 0.70031 0.0
C2099 C 0.50556 0.99034 0.70793 0.0
C2100 C 0.77867 0.98199 0.70766 0.0
C2101 C 0.86407 0.98104 0.69265 0.0
N2102 N 0.59321 0.98801 0.70756 0.0
N2103 N 0.7764 0.98332 0.69302 0.0
H2104 H 0.64963 0.00346 0.46302 0.0
H2105 H 0.21286 0.98847 0.43715 0.0
H2106 H 0.64218 0.00072 0.43653 0.0
H2107 H 0.22022 -0.00865 0.46364 0.0
H2108 H 0.37029 -0.00758 0.43682 0.0
H2109 H 0.49214 -0.00036 0.46335 0.0
C2110 C 0.61478 0.00227 0.45726 0.0
C2111 C 0.65913 0.00236 0.44973 0.0
C2112 C 0.33759 -0.00791 0.44271 0.0
C2113 C 0.47879 -0.00228 0.45008 0.0
C2114 C 0.24767 0.98972 0.44291 0.0
C2115 C 0.20331 0.98961 0.45044 0.0
C2116 C 0.38359 -0.00559 0.45009 0.0
C2117 C 0.2518 -0.0087 0.4577 0.0
C2118 C 0.52483 -2e-05 0.45746 0.0
C2119 C 0.61059 0.00076 0.44247 0.0
N2120 N 0.33943 -0.00626 0.45734 0.0
N2121 N 0.52294 -0.00161 0.44283 0.0
H2122 H 0.48051 0.74394 0.43719 0.0
H2123 H 0.04518 0.73325 0.46364 0.0
H2124 H 0.47468 0.74477 0.46371 0.0
H2125 H 0.05106 0.73225 0.43713 0.0
H2126 H 0.20281 0.73689 0.46378 0.0
H2127 H 0.32293 0.74016 0.43706 0.0
C2128 C 0.44601 0.74354 0.44299 0.0
C2129 C 0.49078 0.74465 0.45048 0.0
C2130 C 0.16971 0.73577 0.45794 0.0
C2131 C 0.31049 0.74006 0.45036 0.0
C2132 C 0.0797 0.73359 0.45785 0.0
C2133 C 0.03492 0.73249 0.45036 0.0
C2134 C 0.21528 0.73692 0.45048 0.0
C2135 C 0.08299 0.73302 0.44304 0.0
C2136 C 0.35603 0.74127 0.4429 0.0
C2137 C 0.44275 0.74402 0.4578 0.0
N2138 N 0.17067 0.7353 0.44329 0.0
N2139 N 0.3551 0.74166 0.45755 0.0
H2140 H 0.21732 0.74101 0.31208 0.0
H2141 H 0.64334 0.72917 0.33991 0.0
H2142 H 0.214 0.74126 0.3386 0.0
H2143 H 0.64667 0.72918 0.31339 0.0
H2144 H 0.48533 0.73293 0.33956 0.0
H2145 H 0.37525 0.73717 0.31243 0.0
C2146 C 0.24984 0.74051 0.31797 0.0
C2147 C 0.20244 0.74142 0.32532 0.0
C2148 C 0.52067 0.732 0.33382 0.0
C2149 C 0.38276 0.73673 0.32577 0.0
C2150 C 0.61079 0.72971 0.33402 0.0
C2151 C 0.6582 0.7289 0.32667 0.0
C2152 C 0.47786 0.73351 0.32622 0.0
C2153 C 0.61273 0.72979 0.31921 0.0
C2154 C 0.33994 0.73817 0.31817 0.0
C2155 C 0.24792 0.74058 0.33278 0.0
N2156 N 0.52512 0.73214 0.31918 0.0
N2157 N 0.33552 0.73819 0.33281 0.0
H2158 H 0.05203 -0.00036 0.33944 0.0
H2159 H 0.48043 0.98577 0.31205 0.0
H2160 H 0.05083 -0.00301 0.31294 0.0
H2161 H 0.48149 0.98825 0.33856 0.0
H2162 H 0.32249 0.98944 0.31225 0.0
H2163 H 0.21003 -0.00384 0.33924 0.0
C2164 C 0.08505 -0.00144 0.33358 0.0
C2165 C 0.03825 -0.00144 0.3262 0.0
C2166 C 0.3573 0.98908 0.31802 0.0
C2167 C 0.21865 -0.00571 0.32592 0.0
C2168 C 0.44739 0.98685 0.31791 0.0
C2169 C 0.49412 0.98672 0.3253 0.0
C2170 C 0.31381 -0.00878 0.32557 0.0
C2171 C 0.44805 0.9883 0.33271 0.0
C2172 C 0.17518 -0.00356 0.33346 0.0
C2173 C 0.08432 -0.00298 0.31878 0.0
N2174 N 0.36042 0.99057 0.33266 0.0
N2175 N 0.17199 -0.00514 0.31883 0.0
H2176 H 0.23251 0.49462 0.56184 0.0
H2177 H 0.80404 0.48072 0.58923 0.0
H2178 H 0.23344 0.49243 0.58835 0.0
H2179 H 0.80297 0.48303 0.56272 0.0
H2180 H 0.962 0.48434 0.58902 0.0
H2181 H 0.0746 0.49085 0.56204 0.0
C2182 C 0.19945 0.49358 0.5677 0.0
C2183 C 0.24615 0.49382 0.57509 0.0
C2184 C 0.92719 0.48395 0.58325 0.0
C2185 C 0.06584 0.48921 0.57536 0.0
C2186 C 0.83707 0.48175 0.58336 0.0
C2187 C 0.79031 0.48162 0.57598 0.0
C2188 C 0.9707 0.48605 0.5757 0.0
C2189 C 0.83642 0.4831 0.56856 0.0
C2190 C 0.10936 0.4913 0.56781 0.0
C2191 C 0.20003 0.49231 0.5825 0.0
N2192 N 0.92408 0.48535 0.56862 0.0
N2193 N 0.1124 0.48998 0.58244 0.0
H2194 H 0.41004 0.75143 0.58982 0.0
H2195 H -0.01805 0.73729 0.56247 0.0
H2196 H 0.4115 0.74879 0.56332 0.0
H2197 H 0.98065 0.73971 0.58898 0.0
H2198 H 0.13986 0.74104 0.56266 0.0
H2199 H 0.25209 0.74782 0.58963 0.0
C2200 C 0.37709 0.75033 0.58396 0.0
C2201 C 0.42396 0.75037 0.57657 0.0
C2202 C 0.10502 0.74065 0.56843 0.0
C2203 C 0.24358 0.74595 0.57631 0.0
C2204 C 0.01493 0.73837 0.56833 0.0
C2205 C 0.96812 0.73821 0.57572 0.0
C2206 C 0.14844 0.7428 0.57597 0.0
C2207 C 0.01415 0.73978 0.58313 0.0
C2208 C 0.28697 0.74813 0.58385 0.0
C2209 C 0.37796 0.7488 0.56916 0.0
N2210 N 0.10177 0.7421 0.58307 0.0
N2211 N 0.2903 0.74656 0.56922 0.0
H2212 H 0.80543 0.74998 0.68667 0.0
H2213 H 0.23355 0.73591 0.71402 0.0
H2214 H 0.80407 0.74757 0.71318 0.0
H2215 H 0.23476 0.73793 0.68751 0.0
H2216 H 0.07568 0.73976 0.71384 0.0
H2217 H 0.96338 0.7463 0.68686 0.0
C2218 C 0.8384 0.74892 0.69253 0.0
C2219 C 0.79155 0.74904 0.69992 0.0
C2220 C 0.11049 0.73925 0.70806 0.0
C2221 C 0.97192 0.74454 0.70018 0.0
C2222 C 0.20056 0.73692 0.70816 0.0
C2223 C 0.24734 0.73661 0.70077 0.0
C2224 C 0.06705 0.74133 0.70052 0.0
C2225 C 0.20129 0.7381 0.69336 0.0
C2226 C 0.92851 0.74669 0.69264 0.0
C2227 C 0.83758 0.74752 0.70733 0.0
N2228 N 0.11368 0.74048 0.69342 0.0
N2229 N 0.92523 0.74524 0.70727 0.0
H2230 H 0.96948 0.49101 0.71367 0.0
H2231 H 0.39568 0.47919 0.68578 0.0
H2232 H 0.96635 0.49117 0.68715 0.0
H2233 H 0.39892 0.47913 0.7123 0.0
H2234 H 0.23766 0.48293 0.68615 0.0
H2235 H 0.12745 0.48717 0.7133 0.0
C2236 C 0.00206 0.49048 0.70777 0.0
C2237 C 0.95471 0.49138 0.70043 0.0
C2238 C 0.27298 0.48199 0.69189 0.0
C2239 C 0.13503 0.48668 0.69996 0.0
C2240 C 0.36311 0.47971 0.69168 0.0
C2241 C 0.4105 0.47889 0.69902 0.0
C2242 C 0.23014 0.48347 0.69949 0.0
C2243 C 0.365 0.47975 0.70648 0.0
C2244 C 0.09217 0.48815 0.70756 0.0
C2245 C 0.00024 0.4905 0.69297 0.0
N2246 N 0.27738 0.48209 0.70653 0.0
N2247 N 0.08783 0.48812 0.69293 0.0
H2248 H 0.71943 0.48957 0.4369 0.0
H2249 H 0.15444 0.50013 0.46331 0.0
H2250 H 0.72482 0.48909 0.46342 0.0
H2251 H 0.14903 0.50033 0.43679 0.0
H2252 H -0.00326 0.49671 0.46347 0.0
H2253 H 0.87706 0.49311 0.43675 0.0
C2254 C 0.75385 0.49001 0.4427 0.0
C2255 C 0.70896 0.48907 0.45019 0.0
C2256 C 0.02998 0.49759 0.45761 0.0
C2257 C 0.88929 0.49336 0.45005 0.0
C2258 C 0.12001 0.49965 0.45751 0.0
C2259 C 0.16491 0.50047 0.45002 0.0
C2260 C -0.01547 0.49631 0.45017 0.0
C2261 C 0.11699 0.49977 0.44271 0.0
C2262 C 0.84385 0.49213 0.4426 0.0
C2263 C 0.75687 0.48973 0.4575 0.0
N2264 N 0.02927 0.49763 0.44297 0.0
N2265 N 0.84456 0.49193 0.45725 0.0
H2266 H -0.00185 0.24126 0.46438 0.0
H2267 H 0.57331 0.2315 0.43628 0.0
H2268 H 0.00258 0.24284 0.43786 0.0
H2269 H 0.56852 0.23029 0.46279 0.0
H2270 H 0.73136 0.235 0.43673 0.0
H2271 H 0.84009 0.23767 0.46394 0.0
C2272 C 0.96584 0.24109 0.45847 0.0
C2273 C 0.01355 0.24231 0.45115 0.0
C2274 C 0.69568 0.23387 0.44244 0.0
C2275 C 0.83321 0.23793 0.45059 0.0
C2276 C 0.60552 0.23175 0.44219 0.0
C2277 C 0.55771 0.23066 0.4495 0.0
C2278 C 0.73809 0.23492 0.45007 0.0
C2279 C 0.60278 0.23113 0.45699 0.0
C2280 C 0.8757 0.2389 0.45822 0.0
C2281 C 0.9684 0.2419 0.44367 0.0
N2282 N 0.69042 0.23331 0.45708 0.0
N2283 N 0.88079 0.23966 0.44358 0.0
H2284 H 0.15619 0.22948 0.33945 0.0
H2285 H 0.72812 0.24321 0.31209 0.0
H2286 H 0.1577 0.2321 0.31295 0.0
H2287 H 0.72665 0.2405 0.33859 0.0
H2288 H 0.8861 0.23968 0.31228 0.0
H2289 H -0.0018 0.23295 0.33926 0.0
C2290 C 0.12325 0.23056 0.33359 0.0
C2291 C 0.17011 0.23054 0.32621 0.0
C2292 C 0.85119 0.23995 0.31805 0.0
C2293 C -0.01027 0.23479 0.32594 0.0
C2294 C 0.76107 0.2421 0.31795 0.0
C2295 C 0.71423 0.24212 0.32533 0.0
C2296 C 0.89457 0.23779 0.32559 0.0
C2297 C 0.76019 0.24053 0.33275 0.0
C2298 C 0.03312 0.23267 0.33348 0.0
C2299 C 0.12415 0.23207 0.31879 0.0
N2300 N 0.84785 0.23835 0.33268 0.0
N2301 N 0.03647 0.23422 0.31885 0.0
H2302 H -0.00924 0.48799 0.3388 0.0
H2303 H 0.55582 0.499 0.3124 0.0
H2304 H -0.01462 0.48761 0.31229 0.0
H2305 H 0.56124 0.49909 0.33891 0.0
H2306 H 0.7135 0.49548 0.31224 0.0
H2307 H 0.83316 0.49165 0.33895 0.0
C2308 C 0.95635 0.48848 0.33301 0.0
C2309 C 0.00125 0.48752 0.32551 0.0
C2310 C 0.68027 0.49637 0.31809 0.0
C2311 C 0.82094 0.49197 0.32565 0.0
C2312 C 0.59024 0.49848 0.31819 0.0
C2313 C 0.54534 0.49929 0.32568 0.0
C2314 C 0.72571 0.49501 0.32554 0.0
C2315 C 0.59327 0.49854 0.33299 0.0
C2316 C 0.86637 0.49067 0.3331 0.0
C2317 C 0.95334 0.48824 0.3182 0.0
N2318 N 0.68097 0.49634 0.33274 0.0
N2319 N 0.86567 0.49052 0.31846 0.0
H2320 H 0.80611 0.98104 0.08963 0.0
H2321 H 0.23493 -0.0058 0.06226 0.0
H2322 H 0.80531 0.98291 0.06312 0.0
H2323 H 0.23559 -0.0078 0.08877 0.0
H2324 H 0.07698 0.99057 0.06245 0.0
H2325 H 0.96408 0.98452 0.08943 0.0
C2326 C 0.8392 0.98196 0.08377 0.0
C2327 C 0.79253 0.98173 0.07638 0.0
C2328 C 0.1117 -0.00898 0.06822 0.0
C2329 C 0.97293 0.986 0.07611 0.0
C2330 C 0.20181 -0.00677 0.06812 0.0
C2331 C 0.24843 -0.00652 0.07551 0.0
C2332 C 0.06809 0.98904 0.07577 0.0
C2333 C 0.20223 -0.00795 0.08292 0.0
C2334 C 0.92933 0.98407 0.08366 0.0
C2335 C 0.83871 0.98305 0.06896 0.0
N2336 N 0.11459 0.98981 0.08286 0.0
N2337 N 0.92639 0.98522 0.06902 0.0
H2338 H 0.97783 0.23738 0.06244 0.0
H2339 H 0.40593 0.25183 0.08976 0.0
H2340 H 0.97651 0.24019 0.08894 0.0
H2341 H 0.40737 0.24882 0.06326 0.0
H2342 H 0.24798 0.24823 0.08958 0.0
H2343 H 0.13575 0.24109 0.06262 0.0
C2344 C 0.01081 0.23854 0.0683 0.0
C2345 C 0.964 0.2385 0.07569 0.0
C2346 C 0.28286 0.24846 0.0838 0.0
C2347 C 0.14432 0.24304 0.07593 0.0
C2348 C 0.37298 0.25065 0.0839 0.0
C2349 C 0.41984 0.25059 0.07651 0.0
C2350 C 0.23946 0.24617 0.07626 0.0
C2351 C 0.37384 0.24891 0.0691 0.0
C2352 C 0.1009 0.24079 0.0684 0.0
C2353 C 0.01001 0.24016 0.0831 0.0
N2354 N 0.28618 0.24668 0.06917 0.0
N2355 N 0.09765 0.24245 0.08303 0.0
H2356 H 0.80197 0.25257 0.18658 0.0
H2357 H 0.22999 0.2388 0.21397 0.0
H2358 H 0.80053 0.25057 0.21309 0.0
H2359 H 0.23129 0.24048 0.18746 0.0
H2360 H 0.0721 0.24263 0.21377 0.0
H2361 H 0.9599 0.24883 0.18678 0.0
C2362 C 0.83492 0.25159 0.19244 0.0
C2363 C 0.78805 0.25185 0.19983 0.0
C2364 C 0.10694 0.24205 0.208 0.0
C2365 C 0.9684 0.24726 0.2001 0.0
C2366 C 0.19701 0.23973 0.20811 0.0
C2367 C 0.24383 0.23934 0.20072 0.0
C2368 C 0.06352 0.24403 0.20045 0.0
C2369 C 0.1978 0.24072 0.1933 0.0
C2370 C 0.92502 0.24932 0.19255 0.0
C2371 C 0.83406 0.25041 0.20724 0.0
N2372 N 0.11019 0.2431 0.19336 0.0
N2373 N 0.92169 0.24809 0.20719 0.0
H2374 H 0.41406 0.98407 0.21342 0.0
H2375 H 0.97821 -0.00577 0.18712 0.0
H2376 H 0.40743 0.98293 0.18691 0.0
H2377 H -0.01574 -0.0049 0.21364 0.0
H2378 H 0.13575 0.99056 0.18694 0.0
H2379 H 0.25638 0.98752 0.21363 0.0
C2380 C 0.37938 0.98435 0.20764 0.0
C2381 C 0.42397 0.98328 0.20013 0.0
C2382 C 0.10272 -0.00835 0.1928 0.0
C2383 C 0.24358 0.98748 0.20033 0.0
C2384 C 0.01276 -0.00615 0.19291 0.0
C2385 C 0.96808 -0.00505 0.20041 0.0
C2386 C 0.14836 0.9905 0.20024 0.0
C2387 C 0.01616 -0.00564 0.20772 0.0
C2388 C 0.28935 0.98642 0.20777 0.0
C2389 C 0.3757 0.98372 0.19284 0.0
N2390 N 0.10384 -0.00792 0.20744 0.0
N2391 N 0.28801 0.98589 0.19312 0.0
H2392 H 0.72894 0.9872 0.93719 0.0
H2393 H 0.1653 -0.00222 0.96337 0.0
H2394 H 0.73553 0.98709 0.96371 0.0
H2395 H 0.15839 -0.00198 0.93686 0.0
H2396 H 0.00764 -0.00555 0.96361 0.0
H2397 H 0.8865 0.99072 0.93697 0.0
C2398 C 0.76361 0.98773 0.94298 0.0
C2399 C 0.71908 0.98688 0.95049 0.0
C2400 C 0.04053 -0.00468 0.95774 0.0
C2401 C 0.89939 -0.00885 0.95026 0.0
C2402 C 0.13055 -0.00268 0.95759 0.0
C2403 C 0.17504 -0.00188 0.95008 0.0
C2404 C -0.00536 -0.00594 0.95032 0.0
C2405 C 0.12669 -0.00254 0.94279 0.0
C2406 C 0.85358 0.98983 0.94283 0.0
C2407 C 0.76732 0.98764 0.95778 0.0
N2408 N 0.03897 -0.00463 0.9431 0.0
N2409 N 0.85502 0.98983 0.95748 0.0
H2410 H -0.00333 0.74034 0.96412 0.0
H2411 H 0.57085 0.72962 0.9362 0.0
H2412 H 0.00023 0.74145 0.93761 0.0
H2413 H 0.56731 0.7285 0.96272 0.0
H2414 H 0.72886 0.73335 0.93658 0.0
H2415 H 0.83871 0.73655 0.96374 0.0
C2416 C 0.96419 0.74003 0.95823 0.0
C2417 C 0.01166 0.74117 0.95089 0.0
C2418 C 0.69347 0.73218 0.94231 0.0
C2419 C 0.83133 0.73654 0.9504 0.0
C2420 C 0.60335 0.72991 0.9421 0.0
C2421 C 0.55588 0.72878 0.94944 0.0
C2422 C 0.73623 0.73335 0.94992 0.0
C2423 C 0.6013 0.72936 0.9569 0.0
C2424 C 0.87408 0.73772 0.95801 0.0
C2425 C 0.96625 0.74058 0.94342 0.0
N2426 N 0.68891 0.73169 0.95695 0.0
N2427 N 0.87865 0.73822 0.94337 0.0
H2428 H 0.16093 0.73271 0.83951 0.0
H2429 H 0.73312 0.74609 0.81207 0.0
H2430 H 0.1626 0.7344 0.813 0.0
H2431 H 0.73159 0.74461 0.83858 0.0
H2432 H 0.89101 0.74226 0.81228 0.0
H2433 H 0.00298 0.73636 0.83929 0.0
C2434 C 0.12803 0.73361 0.83364 0.0
C2435 C 0.17497 0.73329 0.82626 0.0
C2436 C 0.85612 0.74288 0.81805 0.0
C2437 C -0.00541 0.73778 0.82597 0.0
C2438 C 0.76604 0.74521 0.81793 0.0
C2439 C 0.71917 0.74565 0.82532 0.0
C2440 C 0.89946 0.74097 0.8256 0.0
C2441 C 0.76513 0.74432 0.83274 0.0
C2442 C 0.03791 0.73583 0.83352 0.0
C2443 C 0.12902 0.73461 0.81884 0.0
N2444 N 0.85274 0.74195 0.83269 0.0
N2445 N 0.04137 0.73689 0.81888 0.0
H2446 H 0.5688 0.00165 0.83987 0.0
H2447 H -0.0062 -0.00736 0.81168 0.0
H2448 H 0.56412 0.00377 0.81337 0.0
H2449 H -0.00197 0.99032 0.83818 0.0
H2450 H 0.83572 -0.00375 0.81215 0.0
H2451 H 0.72684 -0.00188 0.83939 0.0
C2452 C 0.60103 0.0016 0.83396 0.0
C2453 C 0.55325 0.00295 0.82666 0.0
C2454 C 0.8713 -0.00515 0.81786 0.0
C2455 C 0.73363 -0.00135 0.82604 0.0
C2456 C 0.96145 -0.00735 0.81759 0.0
C2457 C 0.0091 -0.00879 0.8249 0.0
C2458 C 0.82875 -0.00438 0.82549 0.0
C2459 C 0.9639 -0.00857 0.83239 0.0
C2460 C 0.69118 -0.00054 0.83368 0.0
C2461 C 0.59835 0.00273 0.81916 0.0
N2462 N 0.87629 -0.00631 0.83249 0.0
N2463 N 0.68599 0.00051 0.81905 0.0
H2464 H 0.01239 0.53263 0.03174 0.0
H2465 H 0.94977 0.44879 0.99359 0.0
H2466 H 0.0067 0.46008 0.03404 0.0
H2467 H 0.95578 0.52133 0.99128 0.0
H2468 H 0.97104 0.45254 1.0084 0.0
H2469 H -0.00871 0.5289 0.01692 0.0
C2470 C 0.00568 0.51591 0.02911 0.0
C2471 C 0.00954 0.49666 0.03414 0.0
C2472 C 0.96852 0.46766 1.00466 0.0
C2473 C -0.01338 0.49217 0.01716 0.0
C2474 C 0.95659 0.46551 0.99621 0.0
C2475 C 0.95274 0.48475 0.99119 0.0
C2476 C 0.97585 0.48927 1.00816 0.0
C2477 C 0.96104 0.50605 0.99488 0.0
C2478 C -0.00616 0.51377 0.02066 0.0
C2479 C 0.00139 0.47537 0.03043 0.0
N2480 N 0.97207 0.50774 1.00315 0.0
N2481 N -0.00955 0.47369 0.02217 0.0
H2482 H 0.13866 0.74996 0.99005 0.0
H2483 H 0.32343 0.73212 0.03564 0.0
H2484 H 0.40569 0.73388 0.99537 0.0
H2485 H 0.0566 0.74848 0.03034 0.0
H2486 H 0.35565 0.73319 0.02093 0.0
H2487 H 0.10654 0.74908 1.00477 0.0
C2488 C 0.19005 0.74577 0.99431 0.0
C2489 C 0.27453 0.74149 0.99149 0.0
C2490 C 0.29015 0.73675 0.02298 0.0
C2491 C 0.23925 0.74119 1.00836 0.0
C2492 C 0.27212 0.73643 0.03139 0.0
C2493 C 0.18766 0.74072 0.03421 0.0
C2494 C 0.22304 0.74121 0.01735 0.0
C2495 C 0.12268 0.74523 0.0284 0.0
C2496 C 0.17207 0.74555 1.00272 0.0
C2497 C 0.3396 0.73711 0.99731 0.0
N2498 N 0.14166 0.74538 0.02025 0.0
N2499 N 0.32066 0.73705 1.00546 0.0
H2500 H 0.07606 0.75097 0.28613 0.0
H2501 H 0.89121 0.73374 0.24051 0.0
H2502 H 0.80832 0.73574 0.28079 0.0
H2503 H 0.15883 0.74903 0.24588 0.0
H2504 H 0.85859 0.73502 0.25522 0.0
H2505 H 0.1082 0.75004 0.27141 0.0
C2506 C 0.02448 0.74696 0.28187 0.0
C2507 C 0.93982 0.74291 0.28468 0.0
C2508 C 0.92436 0.73829 0.25318 0.0
C2509 C 0.97518 0.74257 0.26782 0.0
C2510 C 0.94265 0.73786 0.24477 0.0
C2511 C 0.02746 0.74177 0.24197 0.0
C2512 C -0.00844 0.74251 0.25883 0.0
C2513 C 0.0925 0.74606 0.2478 0.0
C2514 C 0.04249 0.74672 0.27346 0.0
C2515 C 0.87456 0.73878 0.27886 0.0
N2516 N 0.07327 0.74633 0.25594 0.0
N2517 N 0.89354 0.73868 0.27071 0.0
H2518 H 0.2008 0.53339 0.2438 0.0
H2519 H 0.25942 0.44886 0.28183 0.0
H2520 H 0.2052 0.46088 0.24136 0.0
H2521 H 0.25521 0.52138 0.28426 0.0
H2522 H 0.23889 0.45285 0.26701 0.0
H2523 H 0.22099 0.52937 0.25862 0.0
C2524 C 0.20704 0.51661 0.2464 0.0
C2525 C 0.20305 0.49746 0.24133 0.0
C2526 C 0.24162 0.46792 0.27078 0.0
C2527 C 0.22492 0.49264 0.25831 0.0
C2528 C 0.25312 0.46563 0.27923 0.0
C2529 C 0.25729 0.4848 0.28429 0.0
C2530 C 0.23507 0.48959 0.26732 0.0
C2531 C 0.24968 0.50616 0.28062 0.0
C2532 C 0.21835 0.51431 0.25485 0.0
C2533 C 0.2106 0.47609 0.24499 0.0
N2534 N 0.23909 0.50798 0.27236 0.0
N2535 N 0.22103 0.47425 0.25326 0.0
H2536 H 0.75067 0.20762 0.99166 0.0
H2537 H 0.70317 0.2715 0.03489 0.0
H2538 H 0.75584 0.28008 0.99433 0.0
H2539 H 0.70014 0.199 0.03233 0.0
H2540 H 0.72347 0.27503 0.02004 0.0
H2541 H 0.72912 0.20399 1.0065 0.0
C2542 C 0.74531 0.22276 0.99535 0.0
C2543 C 0.75318 0.2442 0.99175 0.0
C2544 C 0.71913 0.25832 0.02273 0.0
C2545 C 0.73157 0.24024 1.00876 0.0
C2546 C 0.70875 0.25633 0.03122 0.0
C2547 C 0.70207 0.23491 0.03486 0.0
C2548 C 0.72211 0.23876 0.01783 0.0
C2549 C 0.70573 0.21581 0.02975 0.0
C2550 C 0.73419 0.2207 1.00384 0.0
C2551 C 0.74949 0.26326 0.99687 0.0
N2552 N 0.71559 0.21816 0.02151 0.0
N2553 N 0.73893 0.26085 1.0051 0.0
H2554 H 0.80227 0.23363 0.78077 0.0
H2555 H 0.15899 0.24514 0.7452 0.0
H2556 H 0.07103 0.2495 0.78534 0.0
H2557 H 0.88966 0.22999 0.74062 0.0
H2558 H 0.12841 0.24662 0.75993 0.0
H2559 H 0.83314 0.23184 0.76606 0.0
C2560 C 0.86806 0.2365 0.77866 0.0
C2561 C 0.93453 0.24129 0.78428 0.0
C2562 C 0.07573 0.24315 0.75571 0.0
C2563 C 0.97038 0.23959 0.76744 0.0
C2564 C 0.09316 0.24235 0.74732 0.0
C2565 C 0.02643 0.23788 0.74169 0.0
C2566 C -0.00912 0.23923 0.75853 0.0
C2567 C 0.9424 0.23417 0.74472 0.0
C2568 C 0.88565 0.23552 0.77027 0.0
C2569 C 0.01851 0.24507 0.78124 0.0
N2570 N 0.92702 0.2349 0.75295 0.0
N2571 N 0.03403 0.24418 0.77302 0.0
H2572 H 0.91171 0.50061 0.77998 0.0
H2573 H 0.55478 0.48546 0.74466 0.0
H2574 H 0.64394 0.48408 0.78479 0.0
H2575 H 0.82315 0.50129 0.73984 0.0
H2576 H 0.58576 0.48509 0.75939 0.0
H2577 H 0.88033 0.50138 0.76526 0.0
C2578 C 0.84601 0.49739 0.77792 0.0
C2579 C 0.77997 0.4927 0.78361 0.0
C2580 C 0.63815 0.48847 0.75512 0.0
C2581 C 0.74356 0.49322 0.76678 0.0
C2582 C 0.6205 0.48863 0.74673 0.0
C2583 C 0.68685 0.49297 0.74103 0.0
C2584 C 0.72283 0.4929 0.75787 0.0
C2585 C 0.77074 0.49719 0.744 0.0
C2586 C 0.82813 0.49778 0.76953 0.0
C2587 C 0.6961 0.48844 0.78064 0.0
N2588 N 0.78633 0.49708 0.75222 0.0
N2589 N 0.68031 0.48876 0.77242 0.0
H2590 H 0.88841 0.00083 0.53552 0.0
H2591 H 0.07856 0.98229 0.49013 0.0
H2592 H 0.15742 0.98638 0.53044 0.0
H2593 H 0.80984 -0.00288 0.49521 0.0
H2594 H 0.10947 0.98414 0.50485 0.0
H2595 H 0.85761 -0.00093 0.52079 0.0
C2596 C 0.94057 -0.00318 0.53132 0.0
C2597 C 0.02521 -0.00675 0.5342 0.0
C2598 C 0.04382 0.98718 0.50275 0.0
C2599 C -0.00864 -0.00805 0.51732 0.0
C2600 C 0.0265 0.98641 0.49433 0.0
C2601 C 0.9419 0.99005 0.49144 0.0
C2602 C 0.97587 -0.00856 0.50832 0.0
C2603 C 0.87604 -0.00564 0.4972 0.0
C2604 C 0.92332 -0.0039 0.52289 0.0
C2605 C 0.09119 0.98908 0.52844 0.0
N2606 N 0.89435 -0.00504 0.50535 0.0
N2607 N 0.07293 0.98851 0.52029 0.0
H2608 H 0.14191 0.24873 0.49039 0.0
H2609 H 0.33066 0.22959 0.53576 0.0
H2610 H 0.40986 0.23303 0.49544 0.0
H2611 H 0.06206 0.24445 0.53069 0.0
H2612 H 0.36167 0.23121 0.52103 0.0
H2613 H 0.1106 0.24679 0.50511 0.0
C2614 C 0.19369 0.24439 0.49458 0.0
C2615 C 0.27819 0.24054 0.49169 0.0
C2616 C 0.29601 0.23429 0.52313 0.0
C2617 C 0.2438 0.23905 0.50856 0.0
C2618 C 0.27864 0.23365 0.53155 0.0
C2619 C 0.19407 0.23739 0.53444 0.0
C2620 C 0.22814 0.23855 0.51756 0.0
C2621 C 0.12823 0.24162 0.52869 0.0
C2622 C 0.17615 0.24357 0.503 0.0
C2623 C 0.34374 0.23596 0.49744 0.0
N2624 N 0.14661 0.24212 0.52053 0.0
N2625 N 0.32523 0.23532 0.50559 0.0
H2626 H 0.41164 0.00095 0.78081 0.0
H2627 H 0.05763 0.98612 0.7452 0.0
H2628 H 0.1433 0.98458 0.78541 0.0
H2629 H 0.32701 0.00119 0.74057 0.0
H2630 H 0.08738 0.9857 0.75995 0.0
H2631 H 0.3817 0.0016 0.76606 0.0
C2632 C 0.34611 -0.00225 0.77869 0.0
C2633 C 0.27951 -0.00686 0.78434 0.0
C2634 C 0.14027 0.98891 0.75572 0.0
C2635 C 0.24475 -0.00649 0.76747 0.0
C2636 C 0.12332 0.98911 0.74731 0.0
C2637 C 0.19027 -0.00672 0.74166 0.0
C2638 C 0.22486 -0.00686 0.75854 0.0
C2639 C 0.2741 -0.00276 0.74469 0.0
C2640 C 0.32907 -0.00194 0.77029 0.0
C2641 C 0.19591 0.98889 0.7813 0.0
N2642 N 0.28899 -0.00288 0.75293 0.0
N2643 N 0.18093 0.98914 0.77306 0.0
H2644 H 0.75045 0.71058 0.49148 0.0
H2645 H 0.70505 0.77265 0.53508 0.0
H2646 H 0.74997 0.78297 0.49444 0.0
H2647 H 0.70416 0.70026 0.53211 0.0
H2648 H 0.72361 0.77686 0.52023 0.0
H2649 H 0.7316 0.70636 0.50633 0.0
C2650 C 0.74436 0.72557 0.49523 0.0
C2651 C 0.74972 0.74716 0.49171 0.0
C2652 C 0.72013 0.76003 0.52283 0.0
C2653 C 0.73133 0.74254 0.50874 0.0
C2654 C 0.71074 0.75765 0.53132 0.0
C2655 C 0.7051 0.73606 0.53484 0.0
C2656 C 0.72321 0.74068 0.51781 0.0
C2657 C 0.70894 0.71719 0.52963 0.0
C2658 C 0.73481 0.72319 0.50373 0.0
C2659 C 0.74541 0.76604 0.49692 0.0
N2660 N 0.71782 0.71992 0.52139 0.0
N2661 N 0.73642 0.76331 0.50516 0.0
H2662 H 0.70893 0.03308 0.24412 0.0
H2663 H 0.75809 0.94748 0.28195 0.0
H2664 H 0.70965 0.96062 0.24144 0.0
H2665 H 0.75872 0.01996 0.28455 0.0
H2666 H 0.74036 0.95186 0.26711 0.0
H2667 H 0.72802 0.02863 0.25894 0.0
C2668 C 0.71416 0.01622 0.24667 0.0
C2669 C 0.70942 -0.0028 0.24154 0.0
C2670 C 0.74358 0.96683 0.27092 0.0
C2671 C 0.72997 -0.00811 0.25851 0.0
C2672 C 0.75348 0.96432 0.27938 0.0
C2673 C 0.75799 0.98337 0.2845 0.0
C2674 C 0.73899 0.98859 0.26751 0.0
C2675 C 0.75271 0.00483 0.28087 0.0
C2676 C 0.72485 0.01368 0.25512 0.0
C2677 C 0.71564 0.97572 0.24514 0.0
N2678 N 0.74357 0.00687 0.2726 0.0
N2679 N 0.72543 0.97364 0.2534 0.0
H2680 H 0.51009 0.53356 0.53197 0.0
H2681 H 0.45237 0.44979 0.49373 0.0
H2682 H 0.507 0.46098 0.53418 0.0
H2683 H 0.45514 0.52235 0.49147 0.0
H2684 H 0.47361 0.45351 0.50854 0.0
H2685 H 0.49033 0.52988 0.51712 0.0
C2686 C 0.50425 0.51684 0.52931 0.0
C2687 C 0.50834 0.49756 0.53431 0.0
C2688 C 0.47042 0.46865 0.50482 0.0
C2689 C 0.487 0.49313 0.51733 0.0
C2690 C 0.45851 0.46651 0.49637 0.0
C2691 C 0.45368 0.48577 0.49136 0.0
C2692 C 0.47671 0.49026 0.50832 0.0
C2693 C 0.46113 0.50707 0.49507 0.0
C2694 C 0.49318 0.51474 0.52085 0.0
C2695 C 0.50141 0.47628 0.53059 0.0
N2696 N 0.47211 0.50875 0.50333 0.0
N2697 N 0.49117 0.47463 0.52231 0.0
H2698 H 0.45671 0.78364 0.78195 0.0
H2699 H 0.50911 0.69805 0.74416 0.0
H2700 H 0.45791 0.71118 0.78462 0.0
H2701 H 0.50882 0.77052 0.74152 0.0
H2702 H 0.48995 0.70245 0.75898 0.0
H2703 H 0.47609 0.77923 0.76713 0.0
C2704 C 0.46207 0.76679 0.7794 0.0
C2705 C 0.4575 0.74777 0.78452 0.0
C2706 C 0.49326 0.71741 0.75517 0.0
C2707 C 0.47841 0.74249 0.76756 0.0
C2708 C 0.504 0.71489 0.74671 0.0
C2709 C 0.50871 0.73393 0.7416 0.0
C2710 C 0.48805 0.73919 0.75856 0.0
C2711 C 0.50271 0.7554 0.7452 0.0
C2712 C 0.47293 0.76426 0.77095 0.0
C2713 C 0.46385 0.72629 0.78093 0.0
N2714 N 0.4928 0.75745 0.75347 0.0
N2715 N 0.47386 0.72423 0.77266 0.0
H2716 H 0.45141 0.28254 0.28227 0.0
H2717 H 0.50726 0.19958 0.24376 0.0
H2718 H 0.45494 0.20992 0.28431 0.0
H2719 H 0.50321 0.27219 0.24172 0.0
H2720 H 0.48776 0.20297 0.25862 0.0
H2721 H 0.47095 0.27914 0.26741 0.0
C2722 C 0.45733 0.26587 0.27957 0.0
C2723 C 0.4533 0.2465 0.28453 0.0
C2724 C 0.49031 0.21818 0.25493 0.0
C2725 C 0.4744 0.2424 0.26753 0.0
C2726 C 0.50123 0.21624 0.24646 0.0
C2727 C 0.5051 0.23561 0.2415 0.0
C2728 C 0.48406 0.23971 0.2585 0.0
C2729 C 0.49787 0.25683 0.24528 0.0
C2730 C 0.46827 0.26393 0.2711 0.0
C2731 C 0.46041 0.22529 0.28075 0.0
N2732 N 0.48783 0.25831 0.25356 0.0
N2733 N 0.47048 0.2238 0.27247 0.0
H2734 H 0.50696 0.95854 0.03484 0.0
H2735 H 0.45998 0.02127 0.99139 0.0
H2736 H 0.51206 0.03094 0.03195 0.0
H2737 H 0.45653 0.94886 0.99426 0.0
H2738 H 0.48064 0.02526 1.00621 0.0
H2739 H 0.48601 0.95457 0.02001 0.0
C2740 C 0.5017 0.9736 0.0311 0.0
C2741 C 0.50928 -0.00488 0.03464 0.0
C2742 C 0.47614 0.00847 1.0036 0.0
C2743 C 0.48842 0.99077 0.01764 0.0
C2744 C 0.46554 0.00622 0.99511 0.0
C2745 C 0.45855 0.98469 0.99158 0.0
C2746 C 0.47904 0.98905 1.00858 0.0
C2747 C 0.46229 0.96574 0.99676 0.0
C2748 C 0.49093 0.97135 0.02262 0.0
C2749 C 0.50586 0.01406 0.02946 0.0
N2750 N 0.47234 0.96835 1.00498 0.0
N2751 N 0.49562 0.01147 0.02123 0.0
loop_
_geom_bond_atom_site_label_1
_geom_bond_atom_site_label_2
_geom_bond_distance
_geom_bond_site_symmetry_2
_ccdc_geom_bond_type
Zn0 O1 2.055 1_455 S
Zn0 O8 2.046 . S
Zn0 N16 2.036 . S
Zn0 O28 2.053 . S
Zn0 O30 2.066 1_455 S
O1 Zn0 2.055 1_655 S
O1 C4 1.259 . S
C2 O30 1.256 . S
C2 O31 1.244 . S
Zn3 O5 2.046 1_455 S
Zn3 O7 2.055 . S
Zn3 N9 2.036 . S
Zn3 O27 2.066 . S
Zn3 O31 2.053 1_455 S
C4 O1 1.259 . S
C4 O5 1.254 . S
O5 Zn3 2.046 1_655 S
O5 C4 1.254 . S
C6 O27 1.256 . S
C6 O28 1.244 . S
O7 Zn3 2.055 . S
O7 C29 1.259 . S
O8 Zn0 2.046 . S
O8 C29 1.254 . S
N9 Zn3 2.036 . S
N9 C10 1.298 . S
N9 N12 1.398 1_455 S
C10 N9 1.298 . S
C10 N13 1.367 . S
C10 C23 1.481 . S
C11 N12 1.299 1_455 S
C11 N13 1.379 . S
N12 N9 1.398 1_655 S
N12 C11 1.299 1_655 S
N13 C10 1.367 . S
N13 C11 1.379 . S
C14 N16 1.298 1_655 S
C14 N18 1.367 1_655 S
C14 C22 1.481 . S
C15 N17 1.299 . S
C15 N18 1.379 . S
N16 Zn0 2.036 . S
N16 C14 1.298 1_455 S
N16 N17 1.398 . S
N17 C15 1.299 . S
N17 N16 1.398 . S
N18 C14 1.367 1_455 S
N18 C15 1.379 . S
H19 C22 0.980 . S
H20 C22 0.981 . S
H21 C22 0.981 . S
C22 C14 1.481 . S
C22 H19 0.980 . S
C22 H20 0.981 . S
C22 H21 0.981 . S
C23 C10 1.481 . S
C23 H24 0.980 . S
C23 H25 0.981 . S
C23 H26 0.981 . S
H24 C23 0.980 . S
H25 C23 0.981 . S
H26 C23 0.981 . S
O27 Zn3 2.066 . S
O27 C6 1.256 . S
O28 Zn0 2.053 . S
O28 C6 1.244 . S
C29 O7 1.259 . S
C29 O8 1.254 . S
O30 Zn0 2.066 1_655 S
O30 C2 1.256 . S
O31 C2 1.244 . S
O31 Zn3 2.053 1_655 S
Zn32 O33 2.055 . S
Zn32 O40 2.046 . S
Zn32 N48 2.036 . S
Zn32 O60 2.053 . S
Zn32 O62 2.066 . S
O33 Zn32 2.055 . S
O33 C36 1.259 . S
C34 O62 1.256 . S
C34 O63 1.244 . S
Zn35 O37 2.046 . S
Zn35 O39 2.055 . S
Zn35 N41 2.036 . S
Zn35 O59 2.066 . S
Zn35 O63 2.053 . S
C36 O33 1.259 . S
C36 O37 1.254 . S
O37 Zn35 2.046 . S
O37 C36 1.254 . S
C38 O59 1.256 . S
C38 O60 1.244 . S
O39 Zn35 2.055 . S
O39 C61 1.259 . S
O40 Zn32 2.046 . S
O40 C61 1.254 . S
N41 Zn35 2.036 . S
N41 C42 1.298 . S
N41 N44 1.398 . S
C42 N41 1.298 . S
C42 N45 1.367 . S
C42 C55 1.481 . S
C43 N44 1.299 . S
C43 N45 1.379 . S
N44 N41 1.398 . S
N44 C43 1.299 . S
N45 C42 1.367 . S
N45 C43 1.379 . S
C46 N48 1.298 . S
C46 N50 1.367 . S
C46 C54 1.481 . S
C47 N49 1.299 . S
C47 N50 1.379 . S
N48 Zn32 2.036 . S
N48 C46 1.298 . S
N48 N49 1.398 . S
N49 C47 1.299 . S
N49 N48 1.398 . S
N50 C46 1.367 . S
N50 C47 1.379 . S
H51 C54 0.980 . S
H52 C54 0.981 . S
H53 C54 0.981 . S
C54 C46 1.481 . S
C54 H51 0.980 . S
C54 H52 0.981 . S
C54 H53 0.981 . S
C55 C42 1.481 . S
C55 H56 0.980 . S
C55 H57 0.981 . S
C55 H58 0.981 . S
H56 C55 0.980 . S
H57 C55 0.981 . S
H58 C55 0.981 . S
O59 Zn35 2.066 . S
O59 C38 1.256 . S
O60 Zn32 2.053 . S
O60 C38 1.244 . S
C61 O39 1.259 . S
C61 O40 1.254 . S
O62 Zn32 2.066 . S
O62 C34 1.256 . S
O63 C34 1.244 . S
O63 Zn35 2.053 . S
Zn64 O65 2.055 1_455 S
Zn64 O72 2.046 . S
Zn64 N80 2.036 . S
Zn64 O92 2.053 . S
Zn64 O94 2.066 1_455 S
O65 Zn64 2.055 1_655 S
O65 C68 1.259 . S
C66 O94 1.256 . S
C66 O95 1.244 . S
Zn67 O69 2.046 1_455 S
Zn67 O71 2.055 . S
Zn67 N73 2.036 . S
Zn67 O91 2.066 . S
Zn67 O95 2.053 1_455 S
C68 O65 1.259 . S
C68 O69 1.254 . S
O69 Zn67 2.046 1_655 S
O69 C68 1.254 . S
C70 O91 1.256 . S
C70 O92 1.244 . S
O71 Zn67 2.055 . S
O71 C93 1.259 . S
O72 Zn64 2.046 . S
O72 C93 1.254 . S
N73 Zn67 2.036 . S
N73 C74 1.298 . S
N73 N76 1.398 1_455 S
C74 N73 1.298 . S
C74 N77 1.367 . S
C74 C87 1.481 . S
C75 N76 1.299 1_455 S
C75 N77 1.379 . S
N76 N73 1.398 1_655 S
N76 C75 1.299 1_655 S
N77 C74 1.367 . S
N77 C75 1.379 . S
C78 N80 1.298 1_655 S
C78 N82 1.367 1_655 S
C78 C86 1.481 . S
C79 N81 1.299 . S
C79 N82 1.379 . S
N80 Zn64 2.036 . S
N80 C78 1.298 1_455 S
N80 N81 1.398 . S
N81 C79 1.299 . S
N81 N80 1.398 . S
N82 C78 1.367 1_455 S
N82 C79 1.379 . S
H83 C86 0.980 . S
H84 C86 0.981 . S
H85 C86 0.981 . S
C86 C78 1.481 . S
C86 H83 0.980 . S
C86 H84 0.981 . S
C86 H85 0.981 . S
C87 C74 1.481 . S
C87 H88 0.980 . S
C87 H89 0.981 . S
C87 H90 0.981 . S
H88 C87 0.980 . S
H89 C87 0.981 . S
H90 C87 0.981 . S
O91 Zn67 2.066 . S
O91 C70 1.256 . S
O92 Zn64 2.053 . S
O92 C70 1.244 . S
C93 O71 1.259 . S
C93 O72 1.254 . S
O94 Zn64 2.066 1_655 S
O94 C66 1.256 . S
O95 C66 1.244 . S
O95 Zn67 2.053 1_655 S
Zn96 O97 2.055 . S
Zn96 O104 2.046 . S
Zn96 N112 2.036 . S
Zn96 O124 2.053 . S
Zn96 O126 2.066 . S
O97 Zn96 2.055 . S
O97 C100 1.259 . S
C98 O126 1.256 . S
C98 O127 1.244 . S
Zn99 O101 2.046 . S
Zn99 O103 2.055 . S
Zn99 N105 2.036 . S
Zn99 O123 2.066 . S
Zn99 O127 2.053 . S
C100 O97 1.259 . S
C100 O101 1.254 . S
O101 Zn99 2.046 . S
O101 C100 1.254 . S
C102 O123 1.256 . S
C102 O124 1.244 . S
O103 Zn99 2.055 . S
O103 C125 1.259 . S
O104 Zn96 2.046 . S
O104 C125 1.254 . S
N105 Zn99 2.036 . S
N105 C106 1.298 . S
N105 N108 1.398 . S
C106 N105 1.298 . S
C106 N109 1.367 . S
C106 C119 1.481 . S
C107 N108 1.299 . S
C107 N109 1.379 . S
N108 N105 1.398 . S
N108 C107 1.299 . S
N109 C106 1.367 . S
N109 C107 1.379 . S
C110 N112 1.298 . S
C110 N114 1.367 . S
C110 C118 1.481 . S
C111 N113 1.299 . S
C111 N114 1.379 . S
N112 Zn96 2.036 . S
N112 C110 1.298 . S
N112 N113 1.398 . S
N113 C111 1.299 . S
N113 N112 1.398 . S
N114 C110 1.367 . S
N114 C111 1.379 . S
H115 C118 0.980 . S
H116 C118 0.981 . S
H117 C118 0.981 . S
C118 C110 1.481 . S
C118 H115 0.980 . S
C118 H116 0.981 . S
C118 H117 0.981 . S
C119 C106 1.481 . S
C119 H120 0.980 . S
C119 H121 0.981 . S
C119 H122 0.981 . S
H120 C119 0.980 . S
H121 C119 0.981 . S
H122 C119 0.981 . S
O123 Zn99 2.066 . S
O123 C102 1.256 . S
O124 Zn96 2.053 . S
O124 C102 1.244 . S
C125 O103 1.259 . S
C125 O104 1.254 . S
O126 Zn96 2.066 . S
O126 C98 1.256 . S
O127 C98 1.244 . S
O127 Zn99 2.053 . S
Zn128 O129 2.055 . S
Zn128 O136 2.046 1_655 S
Zn128 N144 2.036 . S
Zn128 O156 2.053 1_655 S
Zn128 O158 2.066 . S
O129 Zn128 2.055 . S
O129 C132 1.259 . S
C130 O158 1.256 . S
C130 O159 1.244 . S
Zn131 O133 2.046 . S
Zn131 O135 2.055 1_655 S
Zn131 N137 2.036 . S
Zn131 O155 2.066 1_655 S
Zn131 O159 2.053 . S
C132 O129 1.259 . S
C132 O133 1.254 . S
O133 Zn131 2.046 . S
O133 C132 1.254 . S
C134 O155 1.256 . S
C134 O156 1.244 . S
O135 Zn131 2.055 1_455 S
O135 C157 1.259 . S
O136 Zn128 2.046 1_455 S
O136 C157 1.254 . S
N137 Zn131 2.036 . S
N137 C138 1.298 1_655 S
N137 N140 1.398 . S
C138 N137 1.298 1_455 S
C138 N141 1.367 1_455 S
C138 C151 1.481 . S
C139 N140 1.299 . S
C139 N141 1.379 . S
N140 N137 1.398 . S
N140 C139 1.299 . S
N141 C138 1.367 1_655 S
N141 C139 1.379 . S
C142 N144 1.298 . S
C142 N146 1.367 . S
C142 C150 1.481 . S
C143 N145 1.299 1_655 S
C143 N146 1.379 . S
N144 Zn128 2.036 . S
N144 C142 1.298 . S
N144 N145 1.398 1_655 S
N145 C143 1.299 1_455 S
N145 N144 1.398 1_455 S
N146 C142 1.367 . S
N146 C143 1.379 . S
H147 C150 0.980 . S
H148 C150 0.981 . S
H149 C150 0.981 . S
C150 C142 1.481 . S
C150 H147 0.980 . S
C150 H148 0.981 . S
C150 H149 0.981 . S
C151 C138 1.481 . S
C151 H152 0.980 . S
C151 H153 0.981 . S
C151 H154 0.981 . S
H152 C151 0.980 . S
H153 C151 0.981 . S
H154 C151 0.981 . S
O155 Zn131 2.066 1_455 S
O155 C134 1.256 . S
O156 Zn128 2.053 1_455 S
O156 C134 1.244 . S
C157 O135 1.259 . S
C157 O136 1.254 . S
O158 Zn128 2.066 . S
O158 C130 1.256 . S
O159 C130 1.244 . S
O159 Zn131 2.053 . S
Zn160 O161 2.055 . S
Zn160 O168 2.046 . S
Zn160 N176 2.036 . S
Zn160 O188 2.053 . S
Zn160 O190 2.066 . S
O161 Zn160 2.055 . S
O161 C164 1.259 . S
C162 O190 1.256 . S
C162 O191 1.244 . S
Zn163 O165 2.046 . S
Zn163 O167 2.055 . S
Zn163 N169 2.036 . S
Zn163 O187 2.066 . S
Zn163 O191 2.053 . S
C164 O161 1.259 . S
C164 O165 1.254 . S
O165 Zn163 2.046 . S
O165 C164 1.254 . S
C166 O187 1.256 . S
C166 O188 1.244 . S
O167 Zn163 2.055 . S
O167 C189 1.259 . S
O168 Zn160 2.046 . S
O168 C189 1.254 . S
N169 Zn163 2.036 . S
N169 C170 1.298 . S
N169 N172 1.398 . S
C170 N169 1.298 . S
C170 N173 1.367 . S
C170 C183 1.481 . S
C171 N172 1.299 . S
C171 N173 1.379 . S
N172 N169 1.398 . S
N172 C171 1.299 . S
N173 C170 1.367 . S
N173 C171 1.379 . S
C174 N176 1.298 . S
C174 N178 1.367 . S
C174 C182 1.481 . S
C175 N177 1.299 . S
C175 N178 1.379 . S
N176 Zn160 2.036 . S
N176 C174 1.298 . S
N176 N177 1.398 . S
N177 C175 1.299 . S
N177 N176 1.398 . S
N178 C174 1.367 . S
N178 C175 1.379 . S
H179 C182 0.980 . S
H180 C182 0.981 . S
H181 C182 0.981 . S
C182 C174 1.481 . S
C182 H179 0.980 . S
C182 H180 0.981 . S
C182 H181 0.981 . S
C183 C170 1.481 . S
C183 H184 0.980 . S
C183 H185 0.981 . S
C183 H186 0.981 . S
H184 C183 0.980 . S
H185 C183 0.981 . S
H186 C183 0.981 . S
O187 Zn163 2.066 . S
O187 C166 1.256 . S
O188 Zn160 2.053 . S
O188 C166 1.244 . S
C189 O167 1.259 . S
C189 O168 1.254 . S
O190 Zn160 2.066 . S
O190 C162 1.256 . S
O191 C162 1.244 . S
O191 Zn163 2.053 . S
Zn192 O193 2.055 1_655 S
Zn192 O200 2.046 . S
Zn192 N208 2.036 . S
Zn192 O220 2.053 . S
Zn192 O222 2.066 1_655 S
O193 Zn192 2.055 1_455 S
O193 C196 1.259 . S
C194 O222 1.256 . S
C194 O223 1.244 . S
Zn195 O197 2.046 1_655 S
Zn195 O199 2.055 . S
Zn195 N201 2.036 . S
Zn195 O219 2.066 . S
Zn195 O223 2.053 1_655 S
C196 O193 1.259 . S
C196 O197 1.254 . S
O197 Zn195 2.046 1_455 S
O197 C196 1.254 . S
C198 O219 1.256 . S
C198 O220 1.244 . S
O199 Zn195 2.055 . S
O199 C221 1.259 . S
O200 Zn192 2.046 . S
O200 C221 1.254 . S
N201 Zn195 2.036 . S
N201 C202 1.298 . S
N201 N204 1.398 1_655 S
C202 N201 1.298 . S
C202 N205 1.367 . S
C202 C215 1.481 . S
C203 N204 1.299 1_655 S
C203 N205 1.379 . S
N204 N201 1.398 1_455 S
N204 C203 1.299 1_455 S
N205 C202 1.367 . S
N205 C203 1.379 . S
C206 N208 1.298 1_455 S
C206 N210 1.367 1_455 S
C206 C214 1.481 . S
C207 N209 1.299 . S
C207 N210 1.379 . S
N208 Zn192 2.036 . S
N208 C206 1.298 1_655 S
N208 N209 1.398 . S
N209 C207 1.299 . S
N209 N208 1.398 . S
N210 C206 1.367 1_655 S
N210 C207 1.379 . S
H211 C214 0.980 . S
H212 C214 0.981 . S
H213 C214 0.981 . S
C214 C206 1.481 . S
C214 H211 0.980 . S
C214 H212 0.981 . S
C214 H213 0.981 . S
C215 C202 1.481 . S
C215 H216 0.980 . S
C215 H217 0.981 . S
C215 H218 0.981 . S
H216 C215 0.980 . S
H217 C215 0.981 . S
H218 C215 0.981 . S
O219 Zn195 2.066 . S
O219 C198 1.256 . S
O220 Zn192 2.053 . S
O220 C198 1.244 . S
C221 O199 1.259 . S
C221 O200 1.254 . S
O222 Zn192 2.066 1_455 S
O222 C194 1.256 . S
O223 C194 1.244 . S
O223 Zn195 2.053 1_455 S
Zn224 O225 2.055 . S
Zn224 O232 2.046 . S
Zn224 N240 2.036 . S
Zn224 O252 2.053 . S
Zn224 O254 2.066 . S
O225 Zn224 2.055 . S
O225 C228 1.259 . S
C226 O254 1.256 . S
C226 O255 1.244 . S
Zn227 O229 2.046 . S
Zn227 O231 2.055 . S
Zn227 N233 2.036 . S
Zn227 O251 2.066 . S
Zn227 O255 2.053 . S
C228 O225 1.259 . S
C228 O229 1.254 . S
O229 Zn227 2.046 . S
O229 C228 1.254 . S
C230 O251 1.256 . S
C230 O252 1.244 . S
O231 Zn227 2.055 . S
O231 C253 1.259 . S
O232 Zn224 2.046 . S
O232 C253 1.254 . S
N233 Zn227 2.036 . S
N233 C234 1.298 . S
N233 N236 1.398 . S
C234 N233 1.298 . S
C234 N237 1.367 . S
C234 C247 1.481 . S
C235 N236 1.299 . S
C235 N237 1.379 . S
N236 N233 1.398 . S
N236 C235 1.299 . S
N237 C234 1.367 . S
N237 C235 1.379 . S
C238 N240 1.298 . S
C238 N242 1.367 . S
C238 C246 1.481 . S
C239 N241 1.299 . S
C239 N242 1.379 . S
N240 Zn224 2.036 . S
N240 C238 1.298 . S
N240 N241 1.398 . S
N241 C239 1.299 . S
N241 N240 1.398 . S
N242 C238 1.367 . S
N242 C239 1.379 . S
H243 C246 0.980 . S
H244 C246 0.981 . S
H245 C246 0.981 . S
C246 C238 1.481 . S
C246 H243 0.980 . S
C246 H244 0.981 . S
C246 H245 0.981 . S
C247 C234 1.481 . S
C247 H248 0.980 . S
C247 H249 0.981 . S
C247 H250 0.981 . S
H248 C247 0.980 . S
H249 C247 0.981 . S
H250 C247 0.981 . S
O251 Zn227 2.066 . S
O251 C230 1.256 . S
O252 Zn224 2.053 . S
O252 C230 1.244 . S
C253 O231 1.259 . S
C253 O232 1.254 . S
O254 Zn224 2.066 . S
O254 C226 1.256 . S
O255 C226 1.244 . S
O255 Zn227 2.053 . S
Zn256 O257 2.055 1_455 S
Zn256 O264 2.046 . S
Zn256 N272 2.036 . S
Zn256 O284 2.058 . S
Zn256 O286 2.066 1_445 S
O257 Zn256 2.055 1_655 S
O257 C260 1.259 . S
C258 O286 1.256 . S
C258 O287 1.244 . S
Zn259 O261 2.046 1_455 S
Zn259 O263 2.055 . S
Zn259 N265 2.036 1_545 S
Zn259 O283 2.066 1_545 S
Zn259 O287 2.053 1_445 S
C260 O257 1.259 . S
C260 O261 1.254 . S
O261 Zn259 2.046 1_655 S
O261 C260 1.254 . S
C262 O283 1.259 . S
C262 O284 1.241 1_565 S
O263 Zn259 2.055 . S
O263 C285 1.259 . S
O264 Zn256 2.046 . S
O264 C285 1.254 . S
N265 Zn259 2.036 1_565 S
N265 C266 1.298 1_565 S
N265 N268 1.398 1_455 S
C266 N265 1.298 1_545 S
C266 N269 1.367 1_545 S
C266 C279 1.481 . S
C267 N268 1.299 1_455 S
C267 N269 1.379 . S
N268 N265 1.398 1_655 S
N268 C267 1.299 1_655 S
N269 C266 1.367 1_565 S
N269 C267 1.379 . S
C270 N272 1.298 1_665 S
C270 N274 1.367 1_655 S
C270 C278 1.481 . S
C271 N273 1.299 . S
C271 N274 1.379 1_545 S
N272 Zn256 2.036 . S
N272 C270 1.298 1_445 S
N272 N273 1.398 . S
N273 C271 1.299 . S
N273 N272 1.398 . S
N274 C270 1.367 1_455 S
N274 C271 1.379 1_565 S
H275 C278 0.980 . S
H276 C278 0.981 . S
H277 C278 0.981 . S
C278 C270 1.481 . S
C278 H275 0.980 . S
C278 H276 0.981 . S
C278 H277 0.981 . S
C279 C266 1.481 . S
C279 H280 0.980 . S
C279 H281 0.981 . S
C279 H282 0.981 . S
H280 C279 0.980 . S
H281 C279 0.981 . S
H282 C279 0.981 . S
O283 Zn259 2.066 1_565 S
O283 C262 1.259 . S
O284 Zn256 2.058 . S
O284 C262 1.241 1_545 S
C285 O263 1.259 . S
C285 O264 1.254 . S
O286 Zn256 2.066 1_665 S
O286 C258 1.256 . S
O287 C258 1.244 . S
O287 Zn259 2.053 1_665 S
Zn288 O289 2.055 . S
Zn288 O296 2.046 . S
Zn288 N304 2.036 . S
Zn288 O316 2.053 . S
Zn288 O318 2.066 . S
O289 Zn288 2.055 . S
O289 C292 1.259 . S
C290 O318 1.256 . S
C290 O319 1.244 . S
Zn291 O293 2.046 . S
Zn291 O295 2.055 . S
Zn291 N297 2.036 . S
Zn291 O315 2.066 . S
Zn291 O319 2.053 . S
C292 O289 1.259 . S
C292 O293 1.254 . S
O293 Zn291 2.046 . S
O293 C292 1.254 . S
C294 O315 1.256 . S
C294 O316 1.244 . S
O295 Zn291 2.055 . S
O295 C317 1.259 . S
O296 Zn288 2.046 . S
O296 C317 1.254 . S
N297 Zn291 2.036 . S
N297 C298 1.298 . S
N297 N300 1.398 . S
C298 N297 1.298 . S
C298 N301 1.367 . S
C298 C311 1.481 . S
C299 N300 1.299 . S
C299 N301 1.379 . S
N300 N297 1.398 . S
N300 C299 1.299 . S
N301 C298 1.367 . S
N301 C299 1.379 . S
C302 N304 1.298 . S
C302 N306 1.367 . S
C302 C310 1.481 . S
C303 N305 1.299 . S
C303 N306 1.379 . S
N304 Zn288 2.036 . S
N304 C302 1.298 . S
N304 N305 1.398 . S
N305 C303 1.299 . S
N305 N304 1.398 . S
N306 C302 1.367 . S
N306 C303 1.379 . S
H307 C310 0.980 . S
H308 C310 0.981 . S
H309 C310 0.981 . S
C310 C302 1.481 . S
C310 H307 0.980 . S
C310 H308 0.981 . S
C310 H309 0.981 . S
C311 C298 1.481 . S
C311 H312 0.980 . S
C311 H313 0.981 . S
C311 H314 0.981 . S
H312 C311 0.980 . S
H313 C311 0.981 . S
H314 C311 0.981 . S
O315 Zn291 2.066 . S
O315 C294 1.256 . S
O316 Zn288 2.053 . S
O316 C294 1.244 . S
C317 O295 1.259 . S
C317 O296 1.254 . S
O318 Zn288 2.066 . S
O318 C290 1.256 . S
O319 C290 1.244 . S
O319 Zn291 2.053 . S
Zn320 O321 2.055 . S
Zn320 O328 2.046 1_455 S
Zn320 N336 2.036 . S
Zn320 O348 2.053 1_455 S
Zn320 O350 2.066 . S
O321 Zn320 2.055 . S
O321 C324 1.259 . S
C322 O350 1.256 . S
C322 O351 1.244 . S
Zn323 O325 2.046 . S
Zn323 O327 2.055 1_455 S
Zn323 N329 2.036 . S
Zn323 O347 2.066 1_455 S
Zn323 O351 2.053 . S
C324 O321 1.259 . S
C324 O325 1.254 . S
O325 Zn323 2.046 . S
O325 C324 1.254 . S
C326 O347 1.256 . S
C326 O348 1.244 . S
O327 Zn323 2.055 1_655 S
O327 C349 1.259 . S
O328 Zn320 2.046 1_655 S
O328 C349 1.254 . S
N329 Zn323 2.036 . S
N329 C330 1.298 1_455 S
N329 N332 1.398 . S
C330 N329 1.298 1_655 S
C330 N333 1.367 1_655 S
C330 C343 1.481 . S
C331 N332 1.299 . S
C331 N333 1.379 . S
N332 N329 1.398 . S
N332 C331 1.299 . S
N333 C330 1.367 1_455 S
N333 C331 1.379 . S
C334 N336 1.298 . S
C334 N338 1.367 . S
C334 C342 1.481 . S
C335 N337 1.299 1_455 S
C335 N338 1.379 . S
N336 Zn320 2.036 . S
N336 C334 1.298 . S
N336 N337 1.398 1_455 S
N337 C335 1.299 1_655 S
N337 N336 1.398 1_655 S
N338 C334 1.367 . S
N338 C335 1.379 . S
H339 C342 0.980 . S
H340 C342 0.981 . S
H341 C342 0.981 . S
C342 C334 1.481 . S
C342 H339 0.980 . S
C342 H340 0.981 . S
C342 H341 0.981 . S
C343 C330 1.481 . S
C343 H344 0.980 . S
C343 H345 0.981 . S
C343 H346 0.981 . S
H344 C343 0.980 . S
H345 C343 0.981 . S
H346 C343 0.981 . S
O347 Zn323 2.066 1_655 S
O347 C326 1.256 . S
O348 Zn320 2.053 1_655 S
O348 C326 1.244 . S
C349 O327 1.259 . S
C349 O328 1.254 . S
O350 Zn320 2.066 . S
O350 C322 1.256 . S
O351 C322 1.244 . S
O351 Zn323 2.053 . S
Zn352 O353 2.055 . S
Zn352 O360 2.046 . S
Zn352 N368 2.036 1_545 S
Zn352 O380 2.053 1_545 S
Zn352 O382 2.066 1_545 S
O353 Zn352 2.055 . S
O353 C356 1.259 . S
C354 O382 1.259 . S
C354 O383 1.241 1_565 S
Zn355 O357 2.046 . S
Zn355 O359 2.055 . S
Zn355 N361 2.036 . S
Zn355 O379 2.066 1_545 S
Zn355 O383 2.058 . S
C356 O353 1.259 . S
C356 O357 1.254 . S
O357 Zn355 2.046 . S
O357 C356 1.254 . S
C358 O379 1.256 . S
C358 O380 1.244 . S
O359 Zn355 2.055 . S
O359 C381 1.259 . S
O360 Zn352 2.046 . S
O360 C381 1.254 . S
N361 Zn355 2.036 . S
N361 C362 1.298 1_545 S
N361 N364 1.398 . S
C362 N361 1.298 1_565 S
C362 N365 1.367 . S
C362 C375 1.481 . S
C363 N364 1.299 . S
C363 N365 1.379 1_545 S
N364 N361 1.398 . S
N364 C363 1.299 . S
N365 C362 1.367 . S
N365 C363 1.379 1_565 S
C366 N368 1.298 1_545 S
C366 N370 1.367 1_545 S
C366 C374 1.481 . S
C367 N369 1.299 . S
C367 N370 1.379 . S
N368 Zn352 2.036 1_565 S
N368 C366 1.298 1_565 S
N368 N369 1.398 . S
N369 C367 1.299 . S
N369 N368 1.398 . S
N370 C366 1.367 1_565 S
N370 C367 1.379 . S
H371 C374 0.980 . S
H372 C374 0.981 . S
H373 C374 0.981 . S
C374 C366 1.481 . S
C374 H371 0.980 . S
C374 H372 0.981 . S
C374 H373 0.981 . S
C375 C362 1.481 . S
C375 H376 0.980 . S
C375 H377 0.981 . S
C375 H378 0.981 . S
H376 C375 0.980 . S
H377 C375 0.981 . S
H378 C375 0.981 . S
O379 Zn355 2.066 1_565 S
O379 C358 1.256 . S
O380 Zn352 2.053 1_565 S
O380 C358 1.244 . S
C381 O359 1.259 . S
C381 O360 1.254 . S
O382 Zn352 2.066 1_565 S
O382 C354 1.259 . S
O383 C354 1.241 1_545 S
O383 Zn355 2.058 . S
Zn384 O385 2.055 . S
Zn384 O392 2.046 1_655 S
Zn384 N400 2.036 1_565 S
Zn384 O412 2.053 1_665 S
Zn384 O414 2.066 1_565 S
O385 Zn384 2.055 . S
O385 C388 1.259 . S
C386 O414 1.259 . S
C386 O415 1.241 1_545 S
Zn387 O389 2.046 . S
Zn387 O391 2.055 1_655 S
Zn387 N393 2.036 . S
Zn387 O411 2.066 1_665 S
Zn387 O415 2.058 . S
C388 O385 1.259 . S
C388 O389 1.254 . S
O389 Zn387 2.046 . S
O389 C388 1.254 . S
C390 O411 1.256 . S
C390 O412 1.244 . S
O391 Zn387 2.055 1_455 S
O391 C413 1.259 . S
O392 Zn384 2.046 1_455 S
O392 C413 1.254 . S
N393 Zn387 2.036 . S
N393 C394 1.298 1_665 S
N393 N396 1.398 . S
C394 N393 1.298 1_445 S
C394 N397 1.367 1_455 S
C394 C407 1.481 . S
C395 N396 1.299 . S
C395 N397 1.379 1_565 S
N396 N393 1.398 . S
N396 C395 1.299 . S
N397 C394 1.367 1_655 S
N397 C395 1.379 1_545 S
C398 N400 1.298 1_565 S
C398 N402 1.367 1_565 S
C398 C406 1.481 . S
C399 N401 1.299 1_655 S
C399 N402 1.379 . S
N400 Zn384 2.036 1_545 S
N400 C398 1.298 1_545 S
N400 N401 1.398 1_655 S
N401 C399 1.299 1_455 S
N401 N400 1.398 1_455 S
N402 C398 1.367 1_545 S
N402 C399 1.379 . S
H403 C406 0.980 . S
H404 C406 0.981 . S
H405 C406 0.981 . S
C406 C398 1.481 . S
C406 H403 0.980 . S
C406 H404 0.981 . S
C406 H405 0.981 . S
C407 C394 1.481 . S
C407 H408 0.980 . S
C407 H409 0.981 . S
C407 H410 0.981 . S
H408 C407 0.980 . S
H409 C407 0.981 . S
H410 C407 0.981 . S
O411 Zn387 2.066 1_445 S
O411 C390 1.256 . S
O412 Zn384 2.053 1_445 S
O412 C390 1.244 . S
C413 O391 1.259 . S
C413 O392 1.254 . S
O414 Zn384 2.066 1_545 S
O414 C386 1.259 . S
O415 C386 1.241 1_565 S
O415 Zn387 2.058 . S
Zn416 O417 2.055 . S
Zn416 O424 2.046 . S
Zn416 N432 2.036 . S
Zn416 O444 2.053 . S
Zn416 O446 2.066 . S
O417 Zn416 2.055 . S
O417 C420 1.259 . S
C418 O446 1.256 . S
C418 O447 1.244 . S
Zn419 O421 2.046 . S
Zn419 O423 2.055 . S
Zn419 N425 2.036 . S
Zn419 O443 2.066 . S
Zn419 O447 2.053 . S
C420 O417 1.259 . S
C420 O421 1.254 . S
O421 Zn419 2.046 . S
O421 C420 1.254 . S
C422 O443 1.256 . S
C422 O444 1.244 . S
O423 Zn419 2.055 . S
O423 C445 1.259 . S
O424 Zn416 2.046 . S
O424 C445 1.254 . S
N425 Zn419 2.036 . S
N425 C426 1.298 . S
N425 N428 1.398 . S
C426 N425 1.298 . S
C426 N429 1.367 . S
C426 C439 1.481 . S
C427 N428 1.299 . S
C427 N429 1.379 . S
N428 N425 1.398 . S
N428 C427 1.299 . S
N429 C426 1.367 . S
N429 C427 1.379 . S
C430 N432 1.298 . S
C430 N434 1.367 . S
C430 C438 1.481 . S
C431 N433 1.299 . S
C431 N434 1.379 . S
N432 Zn416 2.036 . S
N432 C430 1.298 . S
N432 N433 1.398 . S
N433 C431 1.299 . S
N433 N432 1.398 . S
N434 C430 1.367 . S
N434 C431 1.379 . S
H435 C438 0.980 . S
H436 C438 0.981 . S
H437 C438 0.981 . S
C438 C430 1.481 . S
C438 H435 0.980 . S
C438 H436 0.981 . S
C438 H437 0.981 . S
C439 C426 1.481 . S
C439 H440 0.980 . S
C439 H441 0.981 . S
C439 H442 0.981 . S
H440 C439 0.980 . S
H441 C439 0.981 . S
H442 C439 0.981 . S
O443 Zn419 2.066 . S
O443 C422 1.256 . S
O444 Zn416 2.053 . S
O444 C422 1.244 . S
C445 O423 1.259 . S
C445 O424 1.254 . S
O446 Zn416 2.066 . S
O446 C418 1.256 . S
O447 C418 1.244 . S
O447 Zn419 2.053 . S
Zn448 O449 2.055 1_655 S
Zn448 O456 2.046 . S
Zn448 N464 2.036 . S
Zn448 O476 2.053 . S
Zn448 O478 2.066 1_655 S
O449 Zn448 2.055 1_455 S
O449 C452 1.259 . S
C450 O478 1.256 . S
C450 O479 1.244 . S
Zn451 O453 2.046 1_655 S
Zn451 O455 2.055 . S
Zn451 N457 2.036 . S
Zn451 O475 2.066 . S
Zn451 O479 2.053 1_655 S
C452 O449 1.259 . S
C452 O453 1.254 . S
O453 Zn451 2.046 1_455 S
O453 C452 1.254 . S
C454 O475 1.256 . S
C454 O476 1.244 . S
O455 Zn451 2.055 . S
O455 C477 1.259 . S
O456 Zn448 2.046 . S
O456 C477 1.254 . S
N457 Zn451 2.036 . S
N457 C458 1.298 . S
N457 N460 1.398 1_655 S
C458 N457 1.298 . S
C458 N461 1.367 . S
C458 C471 1.481 . S
C459 N460 1.299 1_655 S
C459 N461 1.379 . S
N460 N457 1.398 1_455 S
N460 C459 1.299 1_455 S
N461 C458 1.367 . S
N461 C459 1.379 . S
C462 N464 1.298 1_455 S
C462 N466 1.367 1_455 S
C462 C470 1.481 . S
C463 N465 1.299 . S
C463 N466 1.379 . S
N464 Zn448 2.036 . S
N464 C462 1.298 1_655 S
N464 N465 1.398 . S
N465 C463 1.299 . S
N465 N464 1.398 . S
N466 C462 1.367 1_655 S
N466 C463 1.379 . S
H467 C470 0.980 . S
H468 C470 0.981 . S
H469 C470 0.981 . S
C470 C462 1.481 . S
C470 H467 0.980 . S
C470 H468 0.981 . S
C470 H469 0.981 . S
C471 C458 1.481 . S
C471 H472 0.980 . S
C471 H473 0.981 . S
C471 H474 0.981 . S
H472 C471 0.980 . S
H473 C471 0.981 . S
H474 C471 0.981 . S
O475 Zn451 2.066 . S
O475 C454 1.256 . S
O476 Zn448 2.053 . S
O476 C454 1.244 . S
C477 O455 1.259 . S
C477 O456 1.254 . S
O478 Zn448 2.066 1_455 S
O478 C450 1.256 . S
O479 C450 1.244 . S
O479 Zn451 2.053 1_455 S
Zn480 O481 2.055 . S
Zn480 O488 2.046 . S
Zn480 N496 2.036 . S
Zn480 O508 2.058 . S
Zn480 O510 2.066 1_565 S
O481 Zn480 2.055 . S
O481 C484 1.259 . S
C482 O510 1.256 . S
C482 O511 1.244 . S
Zn483 O485 2.046 . S
Zn483 O487 2.055 . S
Zn483 N489 2.036 1_565 S
Zn483 O507 2.066 1_565 S
Zn483 O511 2.053 1_565 S
C484 O481 1.259 . S
C484 O485 1.254 . S
O485 Zn483 2.046 . S
O485 C484 1.254 . S
C486 O507 1.259 . S
C486 O508 1.241 1_545 S
O487 Zn483 2.055 . S
O487 C509 1.259 . S
O488 Zn480 2.046 . S
O488 C509 1.254 . S
N489 Zn483 2.036 1_545 S
N489 C490 1.298 1_545 S
N489 N492 1.398 . S
C490 N489 1.298 1_565 S
C490 N493 1.367 1_565 S
C490 C503 1.481 . S
C491 N492 1.299 . S
C491 N493 1.379 . S
N492 N489 1.398 . S
N492 C491 1.299 . S
N493 C490 1.367 1_545 S
N493 C491 1.379 . S
C494 N496 1.298 1_545 S
C494 N498 1.367 . S
C494 C502 1.481 . S
C495 N497 1.299 . S
C495 N498 1.379 1_565 S
N496 Zn480 2.036 . S
N496 C494 1.298 1_565 S
N496 N497 1.398 . S
N497 C495 1.299 . S
N497 N496 1.398 . S
N498 C494 1.367 . S
N498 C495 1.379 1_545 S
H499 C502 0.980 . S
H500 C502 0.981 . S
H501 C502 0.981 . S
C502 C494 1.481 . S
C502 H499 0.980 . S
C502 H500 0.981 . S
C502 H501 0.981 . S
C503 C490 1.481 . S
C503 H504 0.980 . S
C503 H505 0.981 . S
C503 H506 0.981 . S
H504 C503 0.980 . S
H505 C503 0.981 . S
H506 C503 0.981 . S
O507 Zn483 2.066 1_545 S
O507 C486 1.259 . S
O508 Zn480 2.058 . S
O508 C486 1.241 1_565 S
C509 O487 1.259 . S
C509 O488 1.254 . S
O510 Zn480 2.066 1_545 S
O510 C482 1.256 . S
O511 C482 1.244 . S
O511 Zn483 2.053 1_545 S
Zn512 O513 2.055 . S
Zn512 O520 2.046 . S
Zn512 N528 2.036 . S
Zn512 O540 2.053 . S
Zn512 O542 2.066 . S
O513 Zn512 2.055 . S
O513 C516 1.259 . S
C514 O542 1.256 . S
C514 O543 1.244 . S
Zn515 O517 2.046 . S
Zn515 O519 2.055 . S
Zn515 N521 2.036 . S
Zn515 O539 2.066 . S
Zn515 O543 2.053 . S
C516 O513 1.259 . S
C516 O517 1.254 . S
O517 Zn515 2.046 . S
O517 C516 1.254 . S
C518 O539 1.256 . S
C518 O540 1.244 . S
O519 Zn515 2.055 . S
O519 C541 1.259 . S
O520 Zn512 2.046 . S
O520 C541 1.254 . S
N521 Zn515 2.036 . S
N521 C522 1.298 . S
N521 N524 1.398 . S
C522 N521 1.298 . S
C522 N525 1.367 . S
C522 C535 1.481 . S
C523 N524 1.299 . S
C523 N525 1.379 . S
N524 N521 1.398 . S
N524 C523 1.299 . S
N525 C522 1.367 . S
N525 C523 1.379 . S
C526 N528 1.298 . S
C526 N530 1.367 . S
C526 C534 1.481 . S
C527 N529 1.299 . S
C527 N530 1.379 . S
N528 Zn512 2.036 . S
N528 C526 1.298 . S
N528 N529 1.398 . S
N529 C527 1.299 . S
N529 N528 1.398 . S
N530 C526 1.367 . S
N530 C527 1.379 . S
H531 C534 0.980 . S
H532 C534 0.981 . S
H533 C534 0.981 . S
C534 C526 1.481 . S
C534 H531 0.980 . S
C534 H532 0.981 . S
C534 H533 0.981 . S
C535 C522 1.481 . S
C535 H536 0.980 . S
C535 H537 0.981 . S
C535 H538 0.981 . S
H536 C535 0.980 . S
H537 C535 0.981 . S
H538 C535 0.981 . S
O539 Zn515 2.066 . S
O539 C518 1.256 . S
O540 Zn512 2.053 . S
O540 C518 1.244 . S
C541 O519 1.259 . S
C541 O520 1.254 . S
O542 Zn512 2.066 . S
O542 C514 1.256 . S
O543 C514 1.244 . S
O543 Zn515 2.053 . S
Zn544 O545 2.055 . S
Zn544 O552 2.046 . S
Zn544 N560 2.036 . S
Zn544 O572 2.053 . S
Zn544 O574 2.066 . S
O545 Zn544 2.055 . S
O545 C548 1.259 . S
C546 O574 1.256 . S
C546 O575 1.244 . S
Zn547 O549 2.046 . S
Zn547 O551 2.055 . S
Zn547 N553 2.036 . S
Zn547 O571 2.066 . S
Zn547 O575 2.053 . S
C548 O545 1.259 . S
C548 O549 1.254 . S
O549 Zn547 2.046 . S
O549 C548 1.254 . S
C550 O571 1.256 . S
C550 O572 1.244 . S
O551 Zn547 2.055 . S
O551 C573 1.259 . S
O552 Zn544 2.046 . S
O552 C573 1.254 . S
N553 Zn547 2.036 . S
N553 C554 1.298 . S
N553 N556 1.398 . S
C554 N553 1.298 . S
C554 N557 1.367 . S
C554 C567 1.481 . S
C555 N556 1.299 . S
C555 N557 1.379 . S
N556 N553 1.398 . S
N556 C555 1.299 . S
N557 C554 1.367 . S
N557 C555 1.379 . S
C558 N560 1.298 . S
C558 N562 1.367 . S
C558 C566 1.481 . S
C559 N561 1.299 . S
C559 N562 1.379 . S
N560 Zn544 2.036 . S
N560 C558 1.298 . S
N560 N561 1.398 . S
N561 C559 1.299 . S
N561 N560 1.398 . S
N562 C558 1.367 . S
N562 C559 1.379 . S
H563 C566 0.980 . S
H564 C566 0.981 . S
H565 C566 0.981 . S
C566 C558 1.481 . S
C566 H563 0.980 . S
C566 H564 0.981 . S
C566 H565 0.981 . S
C567 C554 1.481 . S
C567 H568 0.980 . S
C567 H569 0.981 . S
C567 H570 0.981 . S
H568 C567 0.980 . S
H569 C567 0.981 . S
H570 C567 0.981 . S
O571 Zn547 2.066 . S
O571 C550 1.256 . S
O572 Zn544 2.053 . S
O572 C550 1.244 . S
C573 O551 1.259 . S
C573 O552 1.254 . S
O574 Zn544 2.066 . S
O574 C546 1.256 . S
O575 C546 1.244 . S
O575 Zn547 2.053 . S
Zn576 O577 2.055 . S
Zn576 O584 2.046 . S
Zn576 N592 2.036 . S
Zn576 O604 2.053 . S
Zn576 O606 2.066 . S
O577 Zn576 2.055 . S
O577 C580 1.259 . S
C578 O606 1.256 . S
C578 O607 1.244 . S
Zn579 O581 2.046 . S
Zn579 O583 2.055 . S
Zn579 N585 2.036 . S
Zn579 O603 2.066 . S
Zn579 O607 2.053 . S
C580 O577 1.259 . S
C580 O581 1.254 . S
O581 Zn579 2.046 . S
O581 C580 1.254 . S
C582 O603 1.256 . S
C582 O604 1.244 . S
O583 Zn579 2.055 . S
O583 C605 1.259 . S
O584 Zn576 2.046 . S
O584 C605 1.254 . S
N585 Zn579 2.036 . S
N585 C586 1.298 . S
N585 N588 1.398 . S
C586 N585 1.298 . S
C586 N589 1.367 . S
C586 C599 1.481 . S
C587 N588 1.299 . S
C587 N589 1.379 . S
N588 N585 1.398 . S
N588 C587 1.299 . S
N589 C586 1.367 . S
N589 C587 1.379 . S
C590 N592 1.298 . S
C590 N594 1.367 . S
C590 C598 1.481 . S
C591 N593 1.299 . S
C591 N594 1.379 . S
N592 Zn576 2.036 . S
N592 C590 1.298 . S
N592 N593 1.398 . S
N593 C591 1.299 . S
N593 N592 1.398 . S
N594 C590 1.367 . S
N594 C591 1.379 . S
H595 C598 0.980 . S
H596 C598 0.981 . S
H597 C598 0.981 . S
C598 C590 1.481 . S
C598 H595 0.980 . S
C598 H596 0.981 . S
C598 H597 0.981 . S
C599 C586 1.481 . S
C599 H600 0.980 . S
C599 H601 0.981 . S
C599 H602 0.981 . S
H600 C599 0.980 . S
H601 C599 0.981 . S
H602 C599 0.981 . S
O603 Zn579 2.066 . S
O603 C582 1.256 . S
O604 Zn576 2.053 . S
O604 C582 1.244 . S
C605 O583 1.259 . S
C605 O584 1.254 . S
O606 Zn576 2.066 . S
O606 C578 1.256 . S
O607 C578 1.244 . S
O607 Zn579 2.053 . S
Zn608 O609 2.055 . S
Zn608 O616 2.046 . S
Zn608 N624 2.036 . S
Zn608 O636 2.053 . S
Zn608 O638 2.066 . S
O609 Zn608 2.055 . S
O609 C612 1.259 . S
C610 O638 1.256 . S
C610 O639 1.244 . S
Zn611 O613 2.046 . S
Zn611 O615 2.055 . S
Zn611 N617 2.036 . S
Zn611 O635 2.066 . S
Zn611 O639 2.053 . S
C612 O609 1.259 . S
C612 O613 1.254 . S
O613 Zn611 2.046 . S
O613 C612 1.254 . S
C614 O635 1.256 . S
C614 O636 1.244 . S
O615 Zn611 2.055 . S
O615 C637 1.259 . S
O616 Zn608 2.046 . S
O616 C637 1.254 . S
N617 Zn611 2.036 . S
N617 C618 1.298 . S
N617 N620 1.398 . S
C618 N617 1.298 . S
C618 N621 1.367 . S
C618 C631 1.481 . S
C619 N620 1.299 . S
C619 N621 1.379 . S
N620 N617 1.398 . S
N620 C619 1.299 . S
N621 C618 1.367 . S
N621 C619 1.379 . S
C622 N624 1.298 . S
C622 N626 1.367 . S
C622 C630 1.481 . S
C623 N625 1.299 . S
C623 N626 1.379 . S
N624 Zn608 2.036 . S
N624 C622 1.298 . S
N624 N625 1.398 . S
N625 C623 1.299 . S
N625 N624 1.398 . S
N626 C622 1.367 . S
N626 C623 1.379 . S
H627 C630 0.980 . S
H628 C630 0.981 . S
H629 C630 0.981 . S
C630 C622 1.481 . S
C630 H627 0.980 . S
C630 H628 0.981 . S
C630 H629 0.981 . S
C631 C618 1.481 . S
C631 H632 0.980 . S
C631 H633 0.981 . S
C631 H634 0.981 . S
H632 C631 0.980 . S
H633 C631 0.981 . S
H634 C631 0.981 . S
O635 Zn611 2.066 . S
O635 C614 1.256 . S
O636 Zn608 2.053 . S
O636 C614 1.244 . S
C637 O615 1.259 . S
C637 O616 1.254 . S
O638 Zn608 2.066 . S
O638 C610 1.256 . S
O639 C610 1.244 . S
O639 Zn611 2.053 . S
Zn640 O641 2.055 . S
Zn640 O648 2.046 . S
Zn640 N656 2.036 . S
Zn640 O668 2.053 . S
Zn640 O670 2.066 . S
O641 Zn640 2.055 . S
O641 C644 1.259 . S
C642 O670 1.256 . S
C642 O671 1.244 . S
Zn643 O645 2.046 . S
Zn643 O647 2.055 . S
Zn643 N649 2.036 . S
Zn643 O667 2.066 . S
Zn643 O671 2.053 . S
C644 O641 1.259 . S
C644 O645 1.254 . S
O645 Zn643 2.046 . S
O645 C644 1.254 . S
C646 O667 1.256 . S
C646 O668 1.244 . S
O647 Zn643 2.055 . S
O647 C669 1.259 . S
O648 Zn640 2.046 . S
O648 C669 1.254 . S
N649 Zn643 2.036 . S
N649 C650 1.298 . S
N649 N652 1.398 . S
C650 N649 1.298 . S
C650 N653 1.367 . S
C650 C663 1.481 . S
C651 N652 1.299 . S
C651 N653 1.379 . S
N652 N649 1.398 . S
N652 C651 1.299 . S
N653 C650 1.367 . S
N653 C651 1.379 . S
C654 N656 1.298 . S
C654 N658 1.367 . S
C654 C662 1.481 . S
C655 N657 1.299 . S
C655 N658 1.379 . S
N656 Zn640 2.036 . S
N656 C654 1.298 . S
N656 N657 1.398 . S
N657 C655 1.299 . S
N657 N656 1.398 . S
N658 C654 1.367 . S
N658 C655 1.379 . S
H659 C662 0.980 . S
H660 C662 0.981 . S
H661 C662 0.981 . S
C662 C654 1.481 . S
C662 H659 0.980 . S
C662 H660 0.981 . S
C662 H661 0.981 . S
C663 C650 1.481 . S
C663 H664 0.980 . S
C663 H665 0.981 . S
C663 H666 0.981 . S
H664 C663 0.980 . S
H665 C663 0.981 . S
H666 C663 0.981 . S
O667 Zn643 2.066 . S
O667 C646 1.256 . S
O668 Zn640 2.053 . S
O668 C646 1.244 . S
C669 O647 1.259 . S
C669 O648 1.254 . S
O670 Zn640 2.066 . S
O670 C642 1.256 . S
O671 C642 1.244 . S
O671 Zn643 2.053 . S
Zn672 O673 2.055 . S
Zn672 O680 2.046 . S
Zn672 N688 2.036 . S
Zn672 O700 2.053 . S
Zn672 O702 2.066 . S
O673 Zn672 2.055 . S
O673 C676 1.259 . S
C674 O702 1.256 . S
C674 O703 1.244 . S
Zn675 O677 2.046 . S
Zn675 O679 2.055 . S
Zn675 N681 2.036 . S
Zn675 O699 2.066 . S
Zn675 O703 2.053 . S
C676 O673 1.259 . S
C676 O677 1.254 . S
O677 Zn675 2.046 . S
O677 C676 1.254 . S
C678 O699 1.256 . S
C678 O700 1.244 . S
O679 Zn675 2.055 . S
O679 C701 1.259 . S
O680 Zn672 2.046 . S
O680 C701 1.254 . S
N681 Zn675 2.036 . S
N681 C682 1.298 . S
N681 N684 1.398 . S
C682 N681 1.298 . S
C682 N685 1.367 . S
C682 C695 1.481 . S
C683 N684 1.299 . S
C683 N685 1.379 . S
N684 N681 1.398 . S
N684 C683 1.299 . S
N685 C682 1.367 . S
N685 C683 1.379 . S
C686 N688 1.298 . S
C686 N690 1.367 . S
C686 C694 1.481 . S
C687 N689 1.299 . S
C687 N690 1.379 . S
N688 Zn672 2.036 . S
N688 C686 1.298 . S
N688 N689 1.398 . S
N689 C687 1.299 . S
N689 N688 1.398 . S
N690 C686 1.367 . S
N690 C687 1.379 . S
H691 C694 0.980 . S
H692 C694 0.981 . S
H693 C694 0.981 . S
C694 C686 1.481 . S
C694 H691 0.980 . S
C694 H692 0.981 . S
C694 H693 0.981 . S
C695 C682 1.481 . S
C695 H696 0.980 . S
C695 H697 0.981 . S
C695 H698 0.981 . S
H696 C695 0.980 . S
H697 C695 0.981 . S
H698 C695 0.981 . S
O699 Zn675 2.066 . S
O699 C678 1.256 . S
O700 Zn672 2.053 . S
O700 C678 1.244 . S
C701 O679 1.259 . S
C701 O680 1.254 . S
O702 Zn672 2.066 . S
O702 C674 1.256 . S
O703 C674 1.244 . S
O703 Zn675 2.053 . S
Zn704 O705 2.055 . S
Zn704 O712 2.046 . S
Zn704 N720 2.036 . S
Zn704 O732 2.053 . S
Zn704 O734 2.066 . S
O705 Zn704 2.055 . S
O705 C708 1.259 . S
C706 O734 1.256 . S
C706 O735 1.244 . S
Zn707 O709 2.046 . S
Zn707 O711 2.055 . S
Zn707 N713 2.036 . S
Zn707 O731 2.066 . S
Zn707 O735 2.053 . S
C708 O705 1.259 . S
C708 O709 1.254 . S
O709 Zn707 2.046 . S
O709 C708 1.254 . S
C710 O731 1.256 . S
C710 O732 1.244 . S
O711 Zn707 2.055 . S
O711 C733 1.259 . S
O712 Zn704 2.046 . S
O712 C733 1.254 . S
N713 Zn707 2.036 . S
N713 C714 1.298 . S
N713 N716 1.398 . S
C714 N713 1.298 . S
C714 N717 1.367 . S
C714 C727 1.481 . S
C715 N716 1.299 . S
C715 N717 1.379 . S
N716 N713 1.398 . S
N716 C715 1.299 . S
N717 C714 1.367 . S
N717 C715 1.379 . S
C718 N720 1.298 . S
C718 N722 1.367 . S
C718 C726 1.481 . S
C719 N721 1.299 . S
C719 N722 1.379 . S
N720 Zn704 2.036 . S
N720 C718 1.298 . S
N720 N721 1.398 . S
N721 C719 1.299 . S
N721 N720 1.398 . S
N722 C718 1.367 . S
N722 C719 1.379 . S
H723 C726 0.980 . S
H724 C726 0.981 . S
H725 C726 0.981 . S
C726 C718 1.481 . S
C726 H723 0.980 . S
C726 H724 0.981 . S
C726 H725 0.981 . S
C727 C714 1.481 . S
C727 H728 0.980 . S
C727 H729 0.981 . S
C727 H730 0.981 . S
H728 C727 0.980 . S
H729 C727 0.981 . S
H730 C727 0.981 . S
O731 Zn707 2.066 . S
O731 C710 1.256 . S
O732 Zn704 2.053 . S
O732 C710 1.244 . S
C733 O711 1.259 . S
C733 O712 1.254 . S
O734 Zn704 2.066 . S
O734 C706 1.256 . S
O735 C706 1.244 . S
O735 Zn707 2.053 . S
Zn736 O737 2.055 . S
Zn736 O744 2.046 . S
Zn736 N752 2.036 . S
Zn736 O764 2.053 . S
Zn736 O766 2.066 . S
O737 Zn736 2.055 . S
O737 C740 1.259 . S
C738 O766 1.256 . S
C738 O767 1.244 . S
Zn739 O741 2.046 . S
Zn739 O743 2.055 . S
Zn739 N745 2.036 . S
Zn739 O763 2.066 . S
Zn739 O767 2.053 . S
C740 O737 1.259 . S
C740 O741 1.254 . S
O741 Zn739 2.046 . S
O741 C740 1.254 . S
C742 O763 1.256 . S
C742 O764 1.244 . S
O743 Zn739 2.055 . S
O743 C765 1.259 . S
O744 Zn736 2.046 . S
O744 C765 1.254 . S
N745 Zn739 2.036 . S
N745 C746 1.298 . S
N745 N748 1.398 . S
C746 N745 1.298 . S
C746 N749 1.367 . S
C746 C759 1.481 . S
C747 N748 1.299 . S
C747 N749 1.379 . S
N748 N745 1.398 . S
N748 C747 1.299 . S
N749 C746 1.367 . S
N749 C747 1.379 . S
C750 N752 1.298 . S
C750 N754 1.367 . S
C750 C758 1.481 . S
C751 N753 1.299 . S
C751 N754 1.379 . S
N752 Zn736 2.036 . S
N752 C750 1.298 . S
N752 N753 1.398 . S
N753 C751 1.299 . S
N753 N752 1.398 . S
N754 C750 1.367 . S
N754 C751 1.379 . S
H755 C758 0.980 . S
H756 C758 0.981 . S
H757 C758 0.981 . S
C758 C750 1.481 . S
C758 H755 0.980 . S
C758 H756 0.981 . S
C758 H757 0.981 . S
C759 C746 1.481 . S
C759 H760 0.980 . S
C759 H761 0.981 . S
C759 H762 0.981 . S
H760 C759 0.980 . S
H761 C759 0.981 . S
H762 C759 0.981 . S
O763 Zn739 2.066 . S
O763 C742 1.256 . S
O764 Zn736 2.053 . S
O764 C742 1.244 . S
C765 O743 1.259 . S
C765 O744 1.254 . S
O766 Zn736 2.066 . S
O766 C738 1.256 . S
O767 C738 1.244 . S
O767 Zn739 2.053 . S
Zn768 O769 2.055 . S
Zn768 O776 2.046 . S
Zn768 N784 2.036 . S
Zn768 O796 2.058 . S
Zn768 O798 2.066 1_545 S
O769 Zn768 2.055 . S
O769 C772 1.259 . S
C770 O798 1.256 . S
C770 O799 1.244 . S
Zn771 O773 2.046 . S
Zn771 O775 2.055 . S
Zn771 N777 2.036 1_545 S
Zn771 O795 2.066 1_545 S
Zn771 O799 2.053 1_545 S
C772 O769 1.259 . S
C772 O773 1.254 . S
O773 Zn771 2.046 . S
O773 C772 1.254 . S
C774 O795 1.259 . S
C774 O796 1.241 1_565 S
O775 Zn771 2.055 . S
O775 C797 1.259 . S
O776 Zn768 2.046 . S
O776 C797 1.254 . S
N777 Zn771 2.036 1_565 S
N777 C778 1.298 1_565 S
N777 N780 1.398 . S
C778 N777 1.298 1_545 S
C778 N781 1.367 1_545 S
C778 C791 1.481 . S
C779 N780 1.299 . S
C779 N781 1.379 . S
N780 N777 1.398 . S
N780 C779 1.299 . S
N781 C778 1.367 1_565 S
N781 C779 1.379 . S
C782 N784 1.298 1_565 S
C782 N786 1.367 . S
C782 C790 1.481 . S
C783 N785 1.299 . S
C783 N786 1.379 1_545 S
N784 Zn768 2.036 . S
N784 C782 1.298 1_545 S
N784 N785 1.398 . S
N785 C783 1.299 . S
N785 N784 1.398 . S
N786 C782 1.367 . S
N786 C783 1.379 1_565 S
H787 C790 0.980 . S
H788 C790 0.981 . S
H789 C790 0.981 . S
C790 C782 1.481 . S
C790 H787 0.980 . S
C790 H788 0.981 . S
C790 H789 0.981 . S
C791 C778 1.481 . S
C791 H792 0.980 . S
C791 H793 0.981 . S
C791 H794 0.981 . S
H792 C791 0.980 . S
H793 C791 0.981 . S
H794 C791 0.981 . S
O795 Zn771 2.066 1_565 S
O795 C774 1.259 . S
O796 Zn768 2.058 . S
O796 C774 1.241 1_545 S
C797 O775 1.259 . S
C797 O776 1.254 . S
O798 Zn768 2.066 1_565 S
O798 C770 1.256 . S
O799 C770 1.244 . S
O799 Zn771 2.053 1_565 S
Zn800 O801 2.055 . S
Zn800 O808 2.046 . S
Zn800 N816 2.036 . S
Zn800 O828 2.053 . S
Zn800 O830 2.066 . S
O801 Zn800 2.055 . S
O801 C804 1.259 . S
C802 O830 1.256 . S
C802 O831 1.244 . S
Zn803 O805 2.046 . S
Zn803 O807 2.055 . S
Zn803 N809 2.036 . S
Zn803 O827 2.066 . S
Zn803 O831 2.053 . S
C804 O801 1.259 . S
C804 O805 1.254 . S
O805 Zn803 2.046 . S
O805 C804 1.254 . S
C806 O827 1.256 . S
C806 O828 1.244 . S
O807 Zn803 2.055 . S
O807 C829 1.259 . S
O808 Zn800 2.046 . S
O808 C829 1.254 . S
N809 Zn803 2.036 . S
N809 C810 1.298 . S
N809 N812 1.398 . S
C810 N809 1.298 . S
C810 N813 1.367 . S
C810 C823 1.481 . S
C811 N812 1.299 . S
C811 N813 1.379 . S
N812 N809 1.398 . S
N812 C811 1.299 . S
N813 C810 1.367 . S
N813 C811 1.379 . S
C814 N816 1.298 . S
C814 N818 1.367 . S
C814 C822 1.481 . S
C815 N817 1.299 . S
C815 N818 1.379 . S
N816 Zn800 2.036 . S
N816 C814 1.298 . S
N816 N817 1.398 . S
N817 C815 1.299 . S
N817 N816 1.398 . S
N818 C814 1.367 . S
N818 C815 1.379 . S
H819 C822 0.980 . S
H820 C822 0.981 . S
H821 C822 0.981 . S
C822 C814 1.481 . S
C822 H819 0.980 . S
C822 H820 0.981 . S
C822 H821 0.981 . S
C823 C810 1.481 . S
C823 H824 0.980 . S
C823 H825 0.981 . S
C823 H826 0.981 . S
H824 C823 0.980 . S
H825 C823 0.981 . S
H826 C823 0.981 . S
O827 Zn803 2.066 . S
O827 C806 1.256 . S
O828 Zn800 2.053 . S
O828 C806 1.244 . S
C829 O807 1.259 . S
C829 O808 1.254 . S
O830 Zn800 2.066 . S
O830 C802 1.256 . S
O831 C802 1.244 . S
O831 Zn803 2.053 . S
Zn832 O833 2.055 . S
Zn832 O840 2.046 . S
Zn832 N848 2.036 . S
Zn832 O860 2.053 . S
Zn832 O862 2.066 . S
O833 Zn832 2.055 . S
O833 C836 1.259 . S
C834 O862 1.256 . S
C834 O863 1.244 . S
Zn835 O837 2.046 . S
Zn835 O839 2.055 . S
Zn835 N841 2.036 . S
Zn835 O859 2.066 . S
Zn835 O863 2.053 . S
C836 O833 1.259 . S
C836 O837 1.254 . S
O837 Zn835 2.046 . S
O837 C836 1.254 . S
C838 O859 1.256 . S
C838 O860 1.244 . S
O839 Zn835 2.055 . S
O839 C861 1.259 . S
O840 Zn832 2.046 . S
O840 C861 1.254 . S
N841 Zn835 2.036 . S
N841 C842 1.298 . S
N841 N844 1.398 . S
C842 N841 1.298 . S
C842 N845 1.367 . S
C842 C855 1.481 . S
C843 N844 1.299 . S
C843 N845 1.379 . S
N844 N841 1.398 . S
N844 C843 1.299 . S
N845 C842 1.367 . S
N845 C843 1.379 . S
C846 N848 1.298 . S
C846 N850 1.367 . S
C846 C854 1.481 . S
C847 N849 1.299 . S
C847 N850 1.379 . S
N848 Zn832 2.036 . S
N848 C846 1.298 . S
N848 N849 1.398 . S
N849 C847 1.299 . S
N849 N848 1.398 . S
N850 C846 1.367 . S
N850 C847 1.379 . S
H851 C854 0.980 . S
H852 C854 0.981 . S
H853 C854 0.981 . S
C854 C846 1.481 . S
C854 H851 0.980 . S
C854 H852 0.981 . S
C854 H853 0.981 . S
C855 C842 1.481 . S
C855 H856 0.980 . S
C855 H857 0.981 . S
C855 H858 0.981 . S
H856 C855 0.980 . S
H857 C855 0.981 . S
H858 C855 0.981 . S
O859 Zn835 2.066 . S
O859 C838 1.256 . S
O860 Zn832 2.053 . S
O860 C838 1.244 . S
C861 O839 1.259 . S
C861 O840 1.254 . S
O862 Zn832 2.066 . S
O862 C834 1.256 . S
O863 C834 1.244 . S
O863 Zn835 2.053 . S
Zn864 O865 2.055 . S
Zn864 O872 2.046 . S
Zn864 N880 2.036 . S
Zn864 O892 2.058 . S
Zn864 O894 2.066 1_545 S
O865 Zn864 2.055 . S
O865 C868 1.259 . S
C866 O894 1.256 . S
C866 O895 1.244 . S
Zn867 O869 2.046 . S
Zn867 O871 2.055 . S
Zn867 N873 2.036 1_545 S
Zn867 O891 2.066 1_545 S
Zn867 O895 2.053 1_545 S
C868 O865 1.259 . S
C868 O869 1.254 . S
O869 Zn867 2.046 . S
O869 C868 1.254 . S
C870 O891 1.259 . S
C870 O892 1.241 1_565 S
O871 Zn867 2.055 . S
O871 C893 1.259 . S
O872 Zn864 2.046 . S
O872 C893 1.254 . S
N873 Zn867 2.036 1_565 S
N873 C874 1.298 1_565 S
N873 N876 1.398 . S
C874 N873 1.298 1_545 S
C874 N877 1.367 1_545 S
C874 C887 1.481 . S
C875 N876 1.299 . S
C875 N877 1.379 . S
N876 N873 1.398 . S
N876 C875 1.299 . S
N877 C874 1.367 1_565 S
N877 C875 1.379 . S
C878 N880 1.298 1_565 S
C878 N882 1.367 . S
C878 C886 1.481 . S
C879 N881 1.299 . S
C879 N882 1.379 1_545 S
N880 Zn864 2.036 . S
N880 C878 1.298 1_545 S
N880 N881 1.398 . S
N881 C879 1.299 . S
N881 N880 1.398 . S
N882 C878 1.367 . S
N882 C879 1.379 1_565 S
H883 C886 0.980 . S
H884 C886 0.981 . S
H885 C886 0.981 . S
C886 C878 1.481 . S
C886 H883 0.980 . S
C886 H884 0.981 . S
C886 H885 0.981 . S
C887 C874 1.481 . S
C887 H888 0.980 . S
C887 H889 0.981 . S
C887 H890 0.981 . S
H888 C887 0.980 . S
H889 C887 0.981 . S
H890 C887 0.981 . S
O891 Zn867 2.066 1_565 S
O891 C870 1.259 . S
O892 Zn864 2.058 . S
O892 C870 1.241 1_545 S
C893 O871 1.259 . S
C893 O872 1.254 . S
O894 Zn864 2.066 1_565 S
O894 C866 1.256 . S
O895 C866 1.244 . S
O895 Zn867 2.053 1_565 S
Zn896 O897 2.055 . S
Zn896 O904 2.046 . S
Zn896 N912 2.036 1_565 S
Zn896 O924 2.053 1_565 S
Zn896 O926 2.066 1_565 S
O897 Zn896 2.055 . S
O897 C900 1.259 . S
C898 O926 1.259 . S
C898 O927 1.241 1_545 S
Zn899 O901 2.046 . S
Zn899 O903 2.055 . S
Zn899 N905 2.036 . S
Zn899 O923 2.066 1_565 S
Zn899 O927 2.058 . S
C900 O897 1.259 . S
C900 O901 1.254 . S
O901 Zn899 2.046 . S
O901 C900 1.254 . S
C902 O923 1.256 . S
C902 O924 1.244 . S
O903 Zn899 2.055 . S
O903 C925 1.259 . S
O904 Zn896 2.046 . S
O904 C925 1.254 . S
N905 Zn899 2.036 . S
N905 C906 1.298 1_565 S
N905 N908 1.398 . S
C906 N905 1.298 1_545 S
C906 N909 1.367 . S
C906 C919 1.481 . S
C907 N908 1.299 . S
C907 N909 1.379 1_565 S
N908 N905 1.398 . S
N908 C907 1.299 . S
N909 C906 1.367 . S
N909 C907 1.379 1_545 S
C910 N912 1.298 1_565 S
C910 N914 1.367 1_565 S
C910 C918 1.481 . S
C911 N913 1.299 . S
C911 N914 1.379 . S
N912 Zn896 2.036 1_545 S
N912 C910 1.298 1_545 S
N912 N913 1.398 . S
N913 C911 1.299 . S
N913 N912 1.398 . S
N914 C910 1.367 1_545 S
N914 C911 1.379 . S
H915 C918 0.980 . S
H916 C918 0.981 . S
H917 C918 0.981 . S
C918 C910 1.481 . S
C918 H915 0.980 . S
C918 H916 0.981 . S
C918 H917 0.981 . S
C919 C906 1.481 . S
C919 H920 0.980 . S
C919 H921 0.981 . S
C919 H922 0.981 . S
H920 C919 0.980 . S
H921 C919 0.981 . S
H922 C919 0.981 . S
O923 Zn899 2.066 1_545 S
O923 C902 1.256 . S
O924 Zn896 2.053 1_545 S
O924 C902 1.244 . S
C925 O903 1.259 . S
C925 O904 1.254 . S
O926 Zn896 2.066 1_545 S
O926 C898 1.259 . S
O927 C898 1.241 1_565 S
O927 Zn899 2.058 . S
Zn928 O929 2.055 . S
Zn928 O936 2.046 . S
Zn928 N944 2.036 . S
Zn928 O956 2.053 . S
Zn928 O958 2.066 . S
O929 Zn928 2.055 . S
O929 C932 1.259 . S
C930 O958 1.256 . S
C930 O959 1.244 . S
Zn931 O933 2.046 . S
Zn931 O935 2.055 . S
Zn931 N937 2.036 . S
Zn931 O955 2.066 . S
Zn931 O959 2.053 . S
C932 O929 1.259 . S
C932 O933 1.254 . S
O933 Zn931 2.046 . S
O933 C932 1.254 . S
C934 O955 1.256 . S
C934 O956 1.244 . S
O935 Zn931 2.055 . S
O935 C957 1.259 . S
O936 Zn928 2.046 . S
O936 C957 1.254 . S
N937 Zn931 2.036 . S
N937 C938 1.298 . S
N937 N940 1.398 . S
C938 N937 1.298 . S
C938 N941 1.367 . S
C938 C951 1.481 . S
C939 N940 1.299 . S
C939 N941 1.379 . S
N940 N937 1.398 . S
N940 C939 1.299 . S
N941 C938 1.367 . S
N941 C939 1.379 . S
C942 N944 1.298 . S
C942 N946 1.367 . S
C942 C950 1.481 . S
C943 N945 1.299 . S
C943 N946 1.379 . S
N944 Zn928 2.036 . S
N944 C942 1.298 . S
N944 N945 1.398 . S
N945 C943 1.299 . S
N945 N944 1.398 . S
N946 C942 1.367 . S
N946 C943 1.379 . S
H947 C950 0.980 . S
H948 C950 0.981 . S
H949 C950 0.981 . S
C950 C942 1.481 . S
C950 H947 0.980 . S
C950 H948 0.981 . S
C950 H949 0.981 . S
C951 C938 1.481 . S
C951 H952 0.980 . S
C951 H953 0.981 . S
C951 H954 0.981 . S
H952 C951 0.980 . S
H953 C951 0.981 . S
H954 C951 0.981 . S
O955 Zn931 2.066 . S
O955 C934 1.256 . S
O956 Zn928 2.053 . S
O956 C934 1.244 . S
C957 O935 1.259 . S
C957 O936 1.254 . S
O958 Zn928 2.066 . S
O958 C930 1.256 . S
O959 C930 1.244 . S
O959 Zn931 2.053 . S
Zn960 O961 2.055 . S
Zn960 O968 2.046 . S
Zn960 N976 2.036 . S
Zn960 O988 2.053 . S
Zn960 O990 2.066 . S
O961 Zn960 2.055 . S
O961 C964 1.259 . S
C962 O990 1.256 . S
C962 O991 1.244 . S
Zn963 O965 2.046 . S
Zn963 O967 2.055 . S
Zn963 N969 2.036 . S
Zn963 O987 2.066 . S
Zn963 O991 2.053 . S
C964 O961 1.259 . S
C964 O965 1.254 . S
O965 Zn963 2.046 . S
O965 C964 1.254 . S
C966 O987 1.256 . S
C966 O988 1.244 . S
O967 Zn963 2.055 . S
O967 C989 1.259 . S
O968 Zn960 2.046 . S
O968 C989 1.254 . S
N969 Zn963 2.036 . S
N969 C970 1.298 . S
N969 N972 1.398 . S
C970 N969 1.298 . S
C970 N973 1.367 . S
C970 C983 1.481 . S
C971 N972 1.299 . S
C971 N973 1.379 . S
N972 N969 1.398 . S
N972 C971 1.299 . S
N973 C970 1.367 . S
N973 C971 1.379 . S
C974 N976 1.298 . S
C974 N978 1.367 . S
C974 C982 1.481 . S
C975 N977 1.299 . S
C975 N978 1.379 . S
N976 Zn960 2.036 . S
N976 C974 1.298 . S
N976 N977 1.398 . S
N977 C975 1.299 . S
N977 N976 1.398 . S
N978 C974 1.367 . S
N978 C975 1.379 . S
H979 C982 0.980 . S
H980 C982 0.981 . S
H981 C982 0.981 . S
C982 C974 1.481 . S
C982 H979 0.980 . S
C982 H980 0.981 . S
C982 H981 0.981 . S
C983 C970 1.481 . S
C983 H984 0.980 . S
C983 H985 0.981 . S
C983 H986 0.981 . S
H984 C983 0.980 . S
H985 C983 0.981 . S
H986 C983 0.981 . S
O987 Zn963 2.066 . S
O987 C966 1.256 . S
O988 Zn960 2.053 . S
O988 C966 1.244 . S
C989 O967 1.259 . S
C989 O968 1.254 . S
O990 Zn960 2.066 . S
O990 C962 1.256 . S
O991 C962 1.244 . S
O991 Zn963 2.053 . S
Zn992 O993 2.055 . S
Zn992 O1000 2.046 . S
Zn992 N1008 2.036 1_565 S
Zn992 O1020 2.053 1_565 S
Zn992 O1022 2.066 1_565 S
O993 Zn992 2.055 . S
O993 C996 1.259 . S
C994 O1022 1.259 . S
C994 O1023 1.241 1_545 S
Zn995 O997 2.046 . S
Zn995 O999 2.055 . S
Zn995 N1001 2.036 . S
Zn995 O1019 2.066 1_565 S
Zn995 O1023 2.058 . S
C996 O993 1.259 . S
C996 O997 1.254 . S
O997 Zn995 2.046 . S
O997 C996 1.254 . S
C998 O1019 1.256 . S
C998 O1020 1.244 . S
O999 Zn995 2.055 . S
O999 C1021 1.259 . S
O1000 Zn992 2.046 . S
O1000 C1021 1.254 . S
N1001 Zn995 2.036 . S
N1001 C1002 1.298 1_565 S
N1001 N1004 1.398 . S
C1002 N1001 1.298 1_545 S
C1002 N1005 1.367 . S
C1002 C1015 1.481 . S
C1003 N1004 1.299 . S
C1003 N1005 1.379 1_565 S
N1004 N1001 1.398 . S
N1004 C1003 1.299 . S
N1005 C1002 1.367 . S
N1005 C1003 1.379 1_545 S
C1006 N1008 1.298 1_565 S
C1006 N1010 1.367 1_565 S
C1006 C1014 1.481 . S
C1007 N1009 1.299 . S
C1007 N1010 1.379 . S
N1008 Zn992 2.036 1_545 S
N1008 C1006 1.298 1_545 S
N1008 N1009 1.398 . S
N1009 C1007 1.299 . S
N1009 N1008 1.398 . S
N1010 C1006 1.367 1_545 S
N1010 C1007 1.379 . S
H1011 C1014 0.980 . S
H1012 C1014 0.981 . S
H1013 C1014 0.981 . S
C1014 C1006 1.481 . S
C1014 H1011 0.980 . S
C1014 H1012 0.981 . S
C1014 H1013 0.981 . S
C1015 C1002 1.481 . S
C1015 H1016 0.980 . S
C1015 H1017 0.981 . S
C1015 H1018 0.981 . S
H1016 C1015 0.980 . S
H1017 C1015 0.981 . S
H1018 C1015 0.981 . S
O1019 Zn995 2.066 1_545 S
O1019 C998 1.256 . S
O1020 Zn992 2.053 1_545 S
O1020 C998 1.244 . S
C1021 O999 1.259 . S
C1021 O1000 1.254 . S
O1022 Zn992 2.066 1_545 S
O1022 C994 1.259 . S
O1023 C994 1.241 1_565 S
O1023 Zn995 2.058 . S
H1024 C1030 0.930 . S
H1025 C1034 0.930 . S
H1026 C1039 0.929 . S
H1027 C1037 0.929 . S
H1028 C1032 0.929 . S
H1029 C1038 0.929 1_455 S
C1030 H1024 0.930 . S
C1030 C1031 1.367 1_455 S
C1030 C1038 1.378 1_455 S
C1031 C1030 1.367 1_655 S
C1031 C1039 1.433 . S
C1032 H1028 0.929 . S
C1032 C1034 1.378 . S
C1032 C1036 1.350 . S
C1033 C1036 1.463 . S
C1033 C1038 1.350 . S
C1033 N1041 1.427 . S
C1034 H1025 0.930 . S
C1034 C1032 1.378 . S
C1034 C1035 1.367 . S
C1035 C1034 1.367 . S
C1035 C1037 1.433 . S
C1036 C1032 1.350 . S
C1036 C1033 1.463 . S
C1036 N1040 1.427 . S
C1037 H1027 0.929 . S
C1037 C1035 1.433 . S
C1037 N1040 1.384 . S
C1038 H1029 0.929 1_655 S
C1038 C1030 1.378 1_655 S
C1038 C1033 1.350 . S
C1039 H1026 0.929 . S
C1039 C1031 1.433 . S
C1039 N1041 1.384 . S
N1040 C1036 1.427 . S
N1040 C1037 1.384 . S
N1041 C1033 1.427 . S
N1041 C1039 1.384 . S
H1042 C1048 0.930 . S
H1043 C1052 0.930 . S
H1044 C1057 0.929 . S
H1045 C1055 0.929 . S
H1046 C1050 0.929 . S
H1047 C1056 0.929 . S
C1048 H1042 0.930 . S
C1048 C1049 1.367 . S
C1048 C1056 1.378 . S
C1049 C1048 1.367 . S
C1049 C1057 1.433 . S
C1050 H1046 0.929 . S
C1050 C1052 1.378 . S
C1050 C1054 1.350 . S
C1051 C1054 1.463 . S
C1051 C1056 1.350 . S
C1051 N1059 1.427 . S
C1052 H1043 0.930 . S
C1052 C1050 1.378 . S
C1052 C1053 1.367 . S
C1053 C1052 1.367 . S
C1053 C1055 1.433 . S
C1054 C1050 1.350 . S
C1054 C1051 1.463 . S
C1054 N1058 1.427 . S
C1055 H1045 0.929 . S
C1055 C1053 1.433 . S
C1055 N1058 1.384 . S
C1056 H1047 0.929 . S
C1056 C1048 1.378 . S
C1056 C1051 1.350 . S
C1057 H1044 0.929 . S
C1057 C1049 1.433 . S
C1057 N1059 1.384 . S
N1058 C1054 1.427 . S
N1058 C1055 1.384 . S
N1059 C1051 1.427 . S
N1059 C1057 1.384 . S
H1060 C1066 0.930 . S
H1061 C1070 0.930 1_455 S
H1062 C1075 0.929 . S
H1063 C1073 0.929 . S
H1064 C1068 0.929 . S
H1065 C1074 0.929 . S
C1066 H1060 0.930 . S
C1066 C1067 1.367 . S
C1066 C1074 1.378 . S
C1067 C1066 1.367 . S
C1067 C1075 1.433 . S
C1068 H1064 0.929 . S
C1068 C1070 1.378 . S
C1068 C1072 1.350 . S
C1069 C1072 1.463 . S
C1069 C1074 1.350 . S
C1069 N1077 1.427 . S
C1070 H1061 0.930 1_655 S
C1070 C1068 1.378 . S
C1070 C1071 1.367 . S
C1071 C1070 1.367 . S
C1071 C1073 1.433 . S
C1072 C1068 1.350 . S
C1072 C1069 1.463 . S
C1072 N1076 1.427 . S
C1073 H1063 0.929 . S
C1073 C1071 1.433 . S
C1073 N1076 1.384 . S
C1074 H1065 0.929 . S
C1074 C1066 1.378 . S
C1074 C1069 1.350 . S
C1075 H1062 0.929 . S
C1075 C1067 1.433 . S
C1075 N1077 1.384 . S
N1076 C1072 1.427 . S
N1076 C1073 1.384 . S
N1077 C1069 1.427 . S
N1077 C1075 1.384 . S
H1078 C1084 0.930 . S
H1079 C1088 0.930 . S
H1080 C1093 0.929 . S
H1081 C1091 0.929 . S
H1082 C1086 0.929 . S
H1083 C1092 0.929 . S
C1084 H1078 0.930 . S
C1084 C1085 1.367 . S
C1084 C1092 1.378 . S
C1085 C1084 1.367 . S
C1085 C1093 1.433 . S
C1086 H1082 0.929 . S
C1086 C1088 1.378 . S
C1086 C1090 1.350 . S
C1087 C1090 1.463 . S
C1087 C1092 1.350 . S
C1087 N1095 1.427 . S
C1088 H1079 0.930 . S
C1088 C1086 1.378 . S
C1088 C1089 1.367 . S
C1089 C1088 1.367 . S
C1089 C1091 1.433 . S
C1090 C1086 1.350 . S
C1090 C1087 1.463 . S
C1090 N1094 1.427 . S
C1091 H1081 0.929 . S
C1091 C1089 1.433 . S
C1091 N1094 1.384 . S
C1092 H1083 0.929 . S
C1092 C1084 1.378 . S
C1092 C1087 1.350 . S
C1093 H1080 0.929 . S
C1093 C1085 1.433 . S
C1093 N1095 1.384 . S
N1094 C1090 1.427 . S
N1094 C1091 1.384 . S
N1095 C1087 1.427 . S
N1095 C1093 1.384 . S
H1096 C1102 0.930 . S
H1097 C1106 0.930 . S
H1098 C1111 0.929 . S
H1099 C1109 0.929 . S
H1100 C1104 0.929 . S
H1101 C1110 0.929 . S
C1102 H1096 0.930 . S
C1102 C1103 1.367 . S
C1102 C1110 1.378 . S
C1103 C1102 1.367 . S
C1103 C1111 1.433 . S
C1104 H1100 0.929 . S
C1104 C1106 1.378 . S
C1104 C1108 1.350 . S
C1105 C1108 1.463 . S
C1105 C1110 1.350 . S
C1105 N1113 1.427 . S
C1106 H1097 0.930 . S
C1106 C1104 1.378 . S
C1106 C1107 1.367 . S
C1107 C1106 1.367 . S
C1107 C1109 1.433 . S
C1108 C1104 1.350 . S
C1108 C1105 1.463 . S
C1108 N1112 1.427 . S
C1109 H1099 0.929 . S
C1109 C1107 1.433 . S
C1109 N1112 1.384 . S
C1110 H1101 0.929 . S
C1110 C1102 1.378 . S
C1110 C1105 1.350 . S
C1111 H1098 0.929 . S
C1111 C1103 1.433 . S
C1111 N1113 1.384 . S
N1112 C1108 1.427 . S
N1112 C1109 1.384 . S
N1113 C1105 1.427 . S
N1113 C1111 1.384 . S
H1114 C1120 0.930 . S
H1115 C1124 0.930 . S
H1116 C1129 0.929 . S
H1117 C1127 0.929 . S
H1118 C1122 0.929 . S
H1119 C1128 0.929 . S
C1120 H1114 0.930 . S
C1120 C1121 1.367 . S
C1120 C1128 1.378 . S
C1121 C1120 1.367 . S
C1121 C1129 1.433 . S
C1122 H1118 0.929 . S
C1122 C1124 1.378 . S
C1122 C1126 1.350 . S
C1123 C1126 1.463 . S
C1123 C1128 1.350 . S
C1123 N1131 1.427 . S
C1124 H1115 0.930 . S
C1124 C1122 1.378 . S
C1124 C1125 1.367 . S
C1125 C1124 1.367 . S
C1125 C1127 1.433 . S
C1126 C1122 1.350 . S
C1126 C1123 1.463 . S
C1126 N1130 1.427 . S
C1127 H1117 0.929 . S
C1127 C1125 1.433 . S
C1127 N1130 1.384 . S
C1128 H1119 0.929 . S
C1128 C1120 1.378 . S
C1128 C1123 1.350 . S
C1129 H1116 0.929 . S
C1129 C1121 1.433 . S
C1129 N1131 1.384 . S
N1130 C1126 1.427 . S
N1130 C1127 1.384 . S
N1131 C1123 1.427 . S
N1131 C1129 1.384 . S
H1132 C1138 0.930 . S
H1133 C1142 0.930 . S
H1134 C1147 0.929 . S
H1135 C1145 0.929 . S
H1136 C1140 0.929 . S
H1137 C1146 0.929 . S
C1138 H1132 0.930 . S
C1138 C1139 1.367 . S
C1138 C1146 1.378 . S
C1139 C1138 1.367 . S
C1139 C1147 1.433 . S
C1140 H1136 0.929 . S
C1140 C1142 1.378 . S
C1140 C1144 1.350 . S
C1141 C1144 1.463 . S
C1141 C1146 1.350 . S
C1141 N1149 1.427 . S
C1142 H1133 0.930 . S
C1142 C1140 1.378 . S
C1142 C1143 1.367 . S
C1143 C1142 1.367 . S
C1143 C1145 1.433 . S
C1144 C1140 1.350 . S
C1144 C1141 1.463 . S
C1144 N1148 1.427 . S
C1145 H1135 0.929 . S
C1145 C1143 1.433 . S
C1145 N1148 1.384 . S
C1146 H1137 0.929 . S
C1146 C1138 1.378 . S
C1146 C1141 1.350 . S
C1147 H1134 0.929 . S
C1147 C1139 1.433 . S
C1147 N1149 1.384 . S
N1148 C1144 1.427 . S
N1148 C1145 1.384 . S
N1149 C1141 1.427 . S
N1149 C1147 1.384 . S
H1150 C1156 0.930 . S
H1151 C1160 0.930 . S
H1152 C1165 0.929 . S
H1153 C1163 0.929 . S
H1154 C1158 0.929 . S
H1155 C1164 0.929 . S
C1156 H1150 0.930 . S
C1156 C1157 1.367 . S
C1156 C1164 1.378 . S
C1157 C1156 1.367 . S
C1157 C1165 1.433 . S
C1158 H1154 0.929 . S
C1158 C1160 1.378 . S
C1158 C1162 1.350 . S
C1159 C1162 1.463 . S
C1159 C1164 1.350 . S
C1159 N1167 1.427 . S
C1160 H1151 0.930 . S
C1160 C1158 1.378 . S
C1160 C1161 1.367 . S
C1161 C1160 1.367 . S
C1161 C1163 1.433 . S
C1162 C1158 1.350 . S
C1162 C1159 1.463 . S
C1162 N1166 1.427 . S
C1163 H1153 0.929 . S
C1163 C1161 1.433 . S
C1163 N1166 1.384 . S
C1164 H1155 0.929 . S
C1164 C1156 1.378 . S
C1164 C1159 1.350 . S
C1165 H1152 0.929 . S
C1165 C1157 1.433 . S
C1165 N1167 1.384 . S
N1166 C1162 1.427 . S
N1166 C1163 1.384 . S
N1167 C1159 1.427 . S
N1167 C1165 1.384 . S
H1168 C1174 0.930 1_455 S
H1169 C1178 0.930 . S
H1170 C1183 0.929 . S
H1171 C1181 0.929 . S
H1172 C1176 0.929 . S
H1173 C1182 0.929 . S
C1174 H1168 0.930 1_655 S
C1174 C1175 1.367 . S
C1174 C1182 1.378 . S
C1175 C1174 1.367 . S
C1175 C1183 1.433 . S
C1176 H1172 0.929 . S
C1176 C1178 1.378 . S
C1176 C1180 1.350 . S
C1177 C1180 1.463 . S
C1177 C1182 1.350 . S
C1177 N1185 1.427 . S
C1178 H1169 0.930 . S
C1178 C1176 1.378 . S
C1178 C1179 1.367 . S
C1179 C1178 1.367 . S
C1179 C1181 1.433 . S
C1180 C1176 1.350 . S
C1180 C1177 1.463 . S
C1180 N1184 1.427 . S
C1181 H1171 0.929 . S
C1181 C1179 1.433 . S
C1181 N1184 1.384 . S
C1182 H1173 0.929 . S
C1182 C1174 1.378 . S
C1182 C1177 1.350 . S
C1183 H1170 0.929 . S
C1183 C1175 1.433 . S
C1183 N1185 1.384 . S
N1184 C1180 1.427 . S
N1184 C1181 1.384 . S
N1185 C1177 1.427 . S
N1185 C1183 1.384 . S
H1186 C1192 0.930 . S
H1187 C1196 0.930 . S
H1188 C1201 0.929 . S
H1189 C1199 0.929 . S
H1190 C1194 0.929 . S
H1191 C1200 0.929 . S
C1192 H1186 0.930 . S
C1192 C1193 1.367 . S
C1192 C1200 1.378 . S
C1193 C1192 1.367 . S
C1193 C1201 1.433 . S
C1194 H1190 0.929 . S
C1194 C1196 1.378 . S
C1194 C1198 1.350 . S
C1195 C1198 1.463 . S
C1195 C1200 1.350 . S
C1195 N1203 1.427 . S
C1196 H1187 0.930 . S
C1196 C1194 1.378 . S
C1196 C1197 1.367 . S
C1197 C1196 1.367 . S
C1197 C1199 1.433 . S
C1198 C1194 1.350 . S
C1198 C1195 1.463 . S
C1198 N1202 1.427 . S
C1199 H1189 0.929 . S
C1199 C1197 1.433 . S
C1199 N1202 1.384 . S
C1200 H1191 0.929 . S
C1200 C1192 1.378 . S
C1200 C1195 1.350 . S
C1201 H1188 0.929 . S
C1201 C1193 1.433 . S
C1201 N1203 1.384 . S
N1202 C1198 1.427 . S
N1202 C1199 1.384 . S
N1203 C1195 1.427 . S
N1203 C1201 1.384 . S
H1204 C1210 0.930 . S
H1205 C1214 0.930 . S
H1206 C1219 0.929 . S
H1207 C1217 0.929 . S
H1208 C1212 0.929 . S
H1209 C1218 0.929 . S
C1210 H1204 0.930 . S
C1210 C1211 1.367 . S
C1210 C1218 1.378 . S
C1211 C1210 1.367 . S
C1211 C1219 1.433 . S
C1212 H1208 0.929 . S
C1212 C1214 1.378 . S
C1212 C1216 1.350 . S
C1213 C1216 1.463 . S
C1213 C1218 1.350 . S
C1213 N1221 1.427 . S
C1214 H1205 0.930 . S
C1214 C1212 1.378 . S
C1214 C1215 1.367 . S
C1215 C1214 1.367 . S
C1215 C1217 1.433 . S
C1216 C1212 1.350 . S
C1216 C1213 1.463 . S
C1216 N1220 1.427 . S
C1217 H1207 0.929 . S
C1217 C1215 1.433 . S
C1217 N1220 1.384 . S
C1218 H1209 0.929 . S
C1218 C1210 1.378 . S
C1218 C1213 1.350 . S
C1219 H1206 0.929 . S
C1219 C1211 1.433 . S
C1219 N1221 1.384 . S
N1220 C1216 1.427 . S
N1220 C1217 1.384 . S
N1221 C1213 1.427 . S
N1221 C1219 1.384 . S
H1222 C1228 0.930 . S
H1223 C1232 0.930 . S
H1224 C1237 0.929 . S
H1225 C1235 0.929 . S
H1226 C1230 0.929 . S
H1227 C1236 0.929 . S
C1228 H1222 0.930 . S
C1228 C1229 1.367 . S
C1228 C1236 1.378 . S
C1229 C1228 1.367 . S
C1229 C1237 1.433 . S
C1230 H1226 0.929 . S
C1230 C1232 1.378 . S
C1230 C1234 1.350 . S
C1231 C1234 1.463 . S
C1231 C1236 1.350 . S
C1231 N1239 1.427 . S
C1232 H1223 0.930 . S
C1232 C1230 1.378 . S
C1232 C1233 1.367 . S
C1233 C1232 1.367 . S
C1233 C1235 1.433 . S
C1234 C1230 1.350 . S
C1234 C1231 1.463 . S
C1234 N1238 1.427 . S
C1235 H1225 0.929 . S
C1235 C1233 1.433 . S
C1235 N1238 1.384 . S
C1236 H1227 0.929 . S
C1236 C1228 1.378 . S
C1236 C1231 1.350 . S
C1237 H1224 0.929 . S
C1237 C1229 1.433 . S
C1237 N1239 1.384 . S
N1238 C1234 1.427 . S
N1238 C1235 1.384 . S
N1239 C1231 1.427 . S
N1239 C1237 1.384 . S
H1240 C1246 0.930 . S
H1241 C1250 0.930 . S
H1242 C1255 0.929 . S
H1243 C1253 0.929 . S
H1244 C1248 0.929 . S
H1245 C1254 0.929 . S
C1246 H1240 0.930 . S
C1246 C1247 1.367 . S
C1246 C1254 1.378 . S
C1247 C1246 1.367 . S
C1247 C1255 1.433 . S
C1248 H1244 0.929 . S
C1248 C1250 1.378 . S
C1248 C1252 1.350 . S
C1249 C1252 1.463 . S
C1249 C1254 1.350 . S
C1249 N1257 1.427 . S
C1250 H1241 0.930 . S
C1250 C1248 1.378 . S
C1250 C1251 1.367 . S
C1251 C1250 1.367 . S
C1251 C1253 1.433 . S
C1252 C1248 1.350 . S
C1252 C1249 1.463 . S
C1252 N1256 1.427 . S
C1253 H1243 0.929 . S
C1253 C1251 1.433 . S
C1253 N1256 1.384 . S
C1254 H1245 0.929 . S
C1254 C1246 1.378 . S
C1254 C1249 1.350 . S
C1255 H1242 0.929 . S
C1255 C1247 1.433 . S
C1255 N1257 1.384 . S
N1256 C1252 1.427 . S
N1256 C1253 1.384 . S
N1257 C1249 1.427 . S
N1257 C1255 1.384 . S
H1258 C1264 0.930 . S
H1259 C1268 0.930 . S
H1260 C1273 0.929 . S
H1261 C1271 0.929 . S
H1262 C1266 0.929 . S
H1263 C1272 0.929 . S
C1264 H1258 0.930 . S
C1264 C1265 1.367 . S
C1264 C1272 1.378 . S
C1265 C1264 1.367 . S
C1265 C1273 1.433 . S
C1266 H1262 0.929 . S
C1266 C1268 1.378 . S
C1266 C1270 1.350 . S
C1267 C1270 1.463 . S
C1267 C1272 1.350 . S
C1267 N1275 1.427 . S
C1268 H1259 0.930 . S
C1268 C1266 1.378 . S
C1268 C1269 1.367 . S
C1269 C1268 1.367 . S
C1269 C1271 1.433 . S
C1270 C1266 1.350 . S
C1270 C1267 1.463 . S
C1270 N1274 1.427 . S
C1271 H1261 0.929 . S
C1271 C1269 1.433 . S
C1271 N1274 1.384 . S
C1272 H1263 0.929 . S
C1272 C1264 1.378 . S
C1272 C1267 1.350 . S
C1273 H1260 0.929 . S
C1273 C1265 1.433 . S
C1273 N1275 1.384 . S
N1274 C1270 1.427 . S
N1274 C1271 1.384 . S
N1275 C1267 1.427 . S
N1275 C1273 1.384 . S
H1276 C1282 0.930 . S
H1277 C1286 0.930 . S
H1278 C1291 0.929 . S
H1279 C1289 0.929 . S
H1280 C1284 0.929 . S
H1281 C1290 0.929 . S
C1282 H1276 0.930 . S
C1282 C1283 1.367 . S
C1282 C1290 1.378 . S
C1283 C1282 1.367 . S
C1283 C1291 1.433 . S
C1284 H1280 0.929 . S
C1284 C1286 1.378 . S
C1284 C1288 1.350 . S
C1285 C1288 1.463 . S
C1285 C1290 1.350 . S
C1285 N1293 1.427 . S
C1286 H1277 0.930 . S
C1286 C1284 1.378 . S
C1286 C1287 1.367 . S
C1287 C1286 1.367 . S
C1287 C1289 1.433 1_455 S
C1288 C1284 1.350 . S
C1288 C1285 1.463 . S
C1288 N1292 1.427 . S
C1289 H1279 0.929 . S
C1289 C1287 1.433 1_655 S
C1289 N1292 1.384 1_655 S
C1290 H1281 0.929 . S
C1290 C1282 1.378 . S
C1290 C1285 1.350 . S
C1291 H1278 0.929 . S
C1291 C1283 1.433 . S
C1291 N1293 1.384 . S
N1292 C1288 1.427 . S
N1292 C1289 1.384 1_455 S
N1293 C1285 1.427 . S
N1293 C1291 1.384 . S
H1294 C1300 0.930 . S
H1295 C1304 0.930 . S
H1296 C1309 0.929 . S
H1297 C1307 0.929 . S
H1298 C1302 0.929 . S
H1299 C1308 0.929 . S
C1300 H1294 0.930 . S
C1300 C1301 1.367 . S
C1300 C1308 1.378 . S
C1301 C1300 1.367 . S
C1301 C1309 1.433 . S
C1302 H1298 0.929 . S
C1302 C1304 1.378 . S
C1302 C1306 1.350 . S
C1303 C1306 1.463 . S
C1303 C1308 1.350 . S
C1303 N1311 1.427 . S
C1304 H1295 0.930 . S
C1304 C1302 1.378 . S
C1304 C1305 1.367 . S
C1305 C1304 1.367 . S
C1305 C1307 1.433 . S
C1306 C1302 1.350 . S
C1306 C1303 1.463 . S
C1306 N1310 1.427 . S
C1307 H1297 0.929 . S
C1307 C1305 1.433 . S
C1307 N1310 1.384 . S
C1308 H1299 0.929 . S
C1308 C1300 1.378 . S
C1308 C1303 1.350 . S
C1309 H1296 0.929 . S
C1309 C1301 1.433 . S
C1309 N1311 1.384 . S
N1310 C1306 1.427 . S
N1310 C1307 1.384 . S
N1311 C1303 1.427 . S
N1311 C1309 1.384 . S
H1312 C1318 0.930 1_655 S
H1313 C1322 0.930 . S
H1314 C1327 0.929 . S
H1315 C1325 0.929 . S
H1316 C1320 0.929 . S
H1317 C1326 0.929 . S
C1318 H1312 0.930 1_455 S
C1318 C1319 1.367 . S
C1318 C1326 1.378 . S
C1319 C1318 1.367 . S
C1319 C1327 1.433 . S
C1320 H1316 0.929 . S
C1320 C1322 1.378 . S
C1320 C1324 1.350 . S
C1321 C1324 1.463 . S
C1321 C1326 1.350 . S
C1321 N1329 1.427 . S
C1322 H1313 0.930 . S
C1322 C1320 1.378 . S
C1322 C1323 1.367 . S
C1323 C1322 1.367 . S
C1323 C1325 1.433 . S
C1324 C1320 1.350 . S
C1324 C1321 1.463 . S
C1324 N1328 1.427 . S
C1325 H1315 0.929 . S
C1325 C1323 1.433 . S
C1325 N1328 1.384 . S
C1326 H1317 0.929 . S
C1326 C1318 1.378 . S
C1326 C1321 1.350 . S
C1327 H1314 0.929 . S
C1327 C1319 1.433 . S
C1327 N1329 1.384 . S
N1328 C1324 1.427 . S
N1328 C1325 1.384 . S
N1329 C1321 1.427 . S
N1329 C1327 1.384 . S
H1330 C1336 0.930 . S
H1331 C1340 0.930 . S
H1332 C1345 0.929 . S
H1333 C1343 0.929 . S
H1334 C1338 0.929 . S
H1335 C1344 0.929 . S
C1336 H1330 0.930 . S
C1336 C1337 1.367 . S
C1336 C1344 1.378 . S
C1337 C1336 1.367 . S
C1337 C1345 1.433 . S
C1338 H1334 0.929 . S
C1338 C1340 1.378 . S
C1338 C1342 1.350 . S
C1339 C1342 1.463 . S
C1339 C1344 1.350 . S
C1339 N1347 1.427 . S
C1340 H1331 0.930 . S
C1340 C1338 1.378 . S
C1340 C1341 1.367 . S
C1341 C1340 1.367 . S
C1341 C1343 1.433 . S
C1342 C1338 1.350 . S
C1342 C1339 1.463 . S
C1342 N1346 1.427 . S
C1343 H1333 0.929 . S
C1343 C1341 1.433 . S
C1343 N1346 1.384 . S
C1344 H1335 0.929 . S
C1344 C1336 1.378 . S
C1344 C1339 1.350 . S
C1345 H1332 0.929 . S
C1345 C1337 1.433 . S
C1345 N1347 1.384 . S
N1346 C1342 1.427 . S
N1346 C1343 1.384 . S
N1347 C1339 1.427 . S
N1347 C1345 1.384 . S
H1348 C1354 0.930 . S
H1349 C1358 0.930 . S
H1350 C1363 0.929 . S
H1351 C1361 0.929 1_455 S
H1352 C1356 0.929 . S
H1353 C1362 0.929 . S
C1354 H1348 0.930 . S
C1354 C1355 1.367 . S
C1354 C1362 1.378 . S
C1355 C1354 1.367 . S
C1355 C1363 1.433 . S
C1356 H1352 0.929 . S
C1356 C1358 1.378 . S
C1356 C1360 1.350 . S
C1357 C1360 1.463 . S
C1357 C1362 1.350 . S
C1357 N1365 1.427 . S
C1358 H1349 0.930 . S
C1358 C1356 1.378 . S
C1358 C1359 1.367 . S
C1359 C1358 1.367 . S
C1359 C1361 1.433 . S
C1360 C1356 1.350 . S
C1360 C1357 1.463 . S
C1360 N1364 1.427 . S
C1361 H1351 0.929 1_655 S
C1361 C1359 1.433 . S
C1361 N1364 1.384 . S
C1362 H1353 0.929 . S
C1362 C1354 1.378 . S
C1362 C1357 1.350 . S
C1363 H1350 0.929 . S
C1363 C1355 1.433 . S
C1363 N1365 1.384 . S
N1364 C1360 1.427 . S
N1364 C1361 1.384 . S
N1365 C1357 1.427 . S
N1365 C1363 1.384 . S
H1366 C1372 0.930 . S
H1367 C1376 0.930 . S
H1368 C1381 0.929 1_455 S
H1369 C1379 0.929 . S
H1370 C1374 0.929 . S
H1371 C1380 0.929 . S
C1372 H1366 0.930 . S
C1372 C1373 1.367 . S
C1372 C1380 1.378 . S
C1373 C1372 1.367 . S
C1373 C1381 1.433 . S
C1374 H1370 0.929 . S
C1374 C1376 1.378 . S
C1374 C1378 1.350 . S
C1375 C1378 1.463 . S
C1375 C1380 1.350 . S
C1375 N1383 1.427 . S
C1376 H1367 0.930 . S
C1376 C1374 1.378 . S
C1376 C1377 1.367 . S
C1377 C1376 1.367 . S
C1377 C1379 1.433 . S
C1378 C1374 1.350 . S
C1378 C1375 1.463 . S
C1378 N1382 1.427 . S
C1379 H1369 0.929 . S
C1379 C1377 1.433 . S
C1379 N1382 1.384 . S
C1380 H1371 0.929 . S
C1380 C1372 1.378 . S
C1380 C1375 1.350 . S
C1381 H1368 0.929 1_655 S
C1381 C1373 1.433 . S
C1381 N1383 1.384 . S
N1382 C1378 1.427 . S
N1382 C1379 1.384 . S
N1383 C1375 1.427 . S
N1383 C1381 1.384 . S
H1384 C1390 0.930 . S
H1385 C1394 0.930 . S
H1386 C1399 0.929 . S
H1387 C1397 0.929 . S
H1388 C1392 0.929 . S
H1389 C1398 0.929 . S
C1390 H1384 0.930 . S
C1390 C1391 1.390 . S
C1390 C1398 1.378 . S
C1391 C1390 1.390 . S
C1391 C1399 1.410 1_565 S
C1392 H1388 0.929 . S
C1392 C1394 1.378 . S
C1392 C1396 1.368 . S
C1393 C1396 1.461 1_565 S
C1393 C1398 1.382 . S
C1393 N1401 1.395 1_565 S
C1394 H1385 0.930 . S
C1394 C1392 1.378 . S
C1394 C1395 1.376 . S
C1395 C1394 1.376 . S
C1395 C1397 1.424 1_545 S
C1396 C1392 1.368 . S
C1396 C1393 1.461 1_545 S
C1396 N1400 1.409 1_545 S
C1397 H1387 0.929 . S
C1397 C1395 1.424 1_565 S
C1397 N1400 1.384 . S
C1398 H1389 0.929 . S
C1398 C1390 1.378 . S
C1398 C1393 1.382 . S
C1399 H1386 0.929 . S
C1399 C1391 1.410 1_545 S
C1399 N1401 1.384 . S
N1400 C1396 1.409 1_565 S
N1400 C1397 1.384 . S
N1401 C1393 1.395 1_545 S
N1401 C1399 1.384 . S
H1402 C1408 0.930 . S
H1403 C1412 0.930 . S
H1404 C1417 0.929 . S
H1405 C1415 0.929 . S
H1406 C1410 0.929 . S
H1407 C1416 0.929 . S
C1408 H1402 0.930 . S
C1408 C1409 1.367 . S
C1408 C1416 1.378 . S
C1409 C1408 1.367 . S
C1409 C1417 1.433 . S
C1410 H1406 0.929 . S
C1410 C1412 1.378 . S
C1410 C1414 1.350 . S
C1411 C1414 1.463 . S
C1411 C1416 1.350 . S
C1411 N1419 1.427 . S
C1412 H1403 0.930 . S
C1412 C1410 1.378 . S
C1412 C1413 1.367 . S
C1413 C1412 1.367 . S
C1413 C1415 1.433 . S
C1414 C1410 1.350 . S
C1414 C1411 1.463 . S
C1414 N1418 1.427 . S
C1415 H1405 0.929 . S
C1415 C1413 1.433 . S
C1415 N1418 1.384 . S
C1416 H1407 0.929 . S
C1416 C1408 1.378 . S
C1416 C1411 1.350 . S
C1417 H1404 0.929 . S
C1417 C1409 1.433 . S
C1417 N1419 1.384 . S
N1418 C1414 1.427 . S
N1418 C1415 1.384 . S
N1419 C1411 1.427 . S
N1419 C1417 1.384 . S
H1420 C1426 0.930 . S
H1421 C1430 0.930 . S
H1422 C1435 0.929 . S
H1423 C1433 0.929 . S
H1424 C1428 0.929 . S
H1425 C1434 0.929 . S
C1426 H1420 0.930 . S
C1426 C1427 1.386 . S
C1426 C1434 1.378 . S
C1427 C1426 1.386 . S
C1427 C1435 1.414 1_545 S
C1428 H1424 0.929 . S
C1428 C1430 1.378 . S
C1428 C1432 1.364 . S
C1429 C1432 1.461 1_545 S
C1429 C1434 1.377 . S
C1429 N1437 1.401 1_545 S
C1430 H1421 0.930 . S
C1430 C1428 1.378 . S
C1430 C1431 1.373 . S
C1431 C1430 1.373 . S
C1431 C1433 1.427 1_565 S
C1432 C1428 1.364 . S
C1432 C1429 1.461 1_565 S
C1432 N1436 1.413 1_565 S
C1433 H1423 0.929 . S
C1433 C1431 1.427 1_545 S
C1433 N1436 1.384 . S
C1434 H1425 0.929 . S
C1434 C1426 1.378 . S
C1434 C1429 1.377 . S
C1435 H1422 0.929 . S
C1435 C1427 1.414 1_565 S
C1435 N1437 1.384 . S
N1436 C1432 1.413 1_545 S
N1436 C1433 1.384 . S
N1437 C1429 1.401 1_565 S
N1437 C1435 1.384 . S
H1438 C1444 0.930 . S
H1439 C1448 0.930 . S
H1440 C1453 0.929 . S
H1441 C1451 0.929 . S
H1442 C1446 0.929 . S
H1443 C1452 0.929 . S
C1444 H1438 0.930 . S
C1444 C1445 1.367 . S
C1444 C1452 1.378 . S
C1445 C1444 1.367 . S
C1445 C1453 1.433 . S
C1446 H1442 0.929 . S
C1446 C1448 1.378 . S
C1446 C1450 1.350 . S
C1447 C1450 1.463 . S
C1447 C1452 1.350 . S
C1447 N1455 1.427 . S
C1448 H1439 0.930 . S
C1448 C1446 1.378 . S
C1448 C1449 1.367 . S
C1449 C1448 1.367 . S
C1449 C1451 1.433 . S
C1450 C1446 1.350 . S
C1450 C1447 1.463 . S
C1450 N1454 1.427 . S
C1451 H1441 0.929 . S
C1451 C1449 1.433 . S
C1451 N1454 1.384 . S
C1452 H1443 0.929 . S
C1452 C1444 1.378 . S
C1452 C1447 1.350 . S
C1453 H1440 0.929 . S
C1453 C1445 1.433 . S
C1453 N1455 1.384 . S
N1454 C1450 1.427 . S
N1454 C1451 1.384 . S
N1455 C1447 1.427 . S
N1455 C1453 1.384 . S
H1456 C1462 0.930 . S
H1457 C1466 0.930 . S
H1458 C1471 0.929 . S
H1459 C1469 0.929 . S
H1460 C1464 0.929 . S
H1461 C1470 0.929 . S
C1462 H1456 0.930 . S
C1462 C1463 1.367 . S
C1462 C1470 1.378 . S
C1463 C1462 1.367 . S
C1463 C1471 1.433 . S
C1464 H1460 0.929 . S
C1464 C1466 1.378 . S
C1464 C1468 1.350 . S
C1465 C1468 1.463 . S
C1465 C1470 1.350 . S
C1465 N1473 1.427 . S
C1466 H1457 0.930 . S
C1466 C1464 1.378 . S
C1466 C1467 1.367 . S
C1467 C1466 1.367 . S
C1467 C1469 1.433 . S
C1468 C1464 1.350 . S
C1468 C1465 1.463 . S
C1468 N1472 1.427 . S
C1469 H1459 0.929 . S
C1469 C1467 1.433 . S
C1469 N1472 1.384 . S
C1470 H1461 0.929 . S
C1470 C1462 1.378 . S
C1470 C1465 1.350 . S
C1471 H1458 0.929 . S
C1471 C1463 1.433 . S
C1471 N1473 1.384 . S
N1472 C1468 1.427 . S
N1472 C1469 1.384 . S
N1473 C1465 1.427 . S
N1473 C1471 1.384 . S
H1474 C1480 0.930 . S
H1475 C1484 0.930 . S
H1476 C1489 0.929 . S
H1477 C1487 0.929 . S
H1478 C1482 0.929 . S
H1479 C1488 0.929 . S
C1480 H1474 0.930 . S
C1480 C1481 1.367 . S
C1480 C1488 1.378 . S
C1481 C1480 1.367 . S
C1481 C1489 1.433 . S
C1482 H1478 0.929 . S
C1482 C1484 1.378 . S
C1482 C1486 1.350 . S
C1483 C1486 1.463 . S
C1483 C1488 1.350 . S
C1483 N1491 1.427 . S
C1484 H1475 0.930 . S
C1484 C1482 1.378 . S
C1484 C1485 1.367 . S
C1485 C1484 1.367 . S
C1485 C1487 1.433 . S
C1486 C1482 1.350 . S
C1486 C1483 1.463 . S
C1486 N1490 1.427 . S
C1487 H1477 0.929 . S
C1487 C1485 1.433 . S
C1487 N1490 1.384 . S
C1488 H1479 0.929 . S
C1488 C1480 1.378 . S
C1488 C1483 1.350 . S
C1489 H1476 0.929 . S
C1489 C1481 1.433 . S
C1489 N1491 1.384 . S
N1490 C1486 1.427 . S
N1490 C1487 1.384 . S
N1491 C1483 1.427 . S
N1491 C1489 1.384 . S
H1492 C1498 0.930 . S
H1493 C1502 0.930 . S
H1494 C1507 0.929 . S
H1495 C1505 0.929 . S
H1496 C1500 0.929 . S
H1497 C1506 0.929 . S
C1498 H1492 0.930 . S
C1498 C1499 1.367 . S
C1498 C1506 1.378 . S
C1499 C1498 1.367 . S
C1499 C1507 1.433 . S
C1500 H1496 0.929 . S
C1500 C1502 1.378 . S
C1500 C1504 1.350 . S
C1501 C1504 1.463 . S
C1501 C1506 1.350 . S
C1501 N1509 1.427 . S
C1502 H1493 0.930 . S
C1502 C1500 1.378 . S
C1502 C1503 1.367 . S
C1503 C1502 1.367 . S
C1503 C1505 1.433 . S
C1504 C1500 1.350 . S
C1504 C1501 1.463 . S
C1504 N1508 1.427 . S
C1505 H1495 0.929 . S
C1505 C1503 1.433 . S
C1505 N1508 1.384 . S
C1506 H1497 0.929 . S
C1506 C1498 1.378 . S
C1506 C1501 1.350 . S
C1507 H1494 0.929 . S
C1507 C1499 1.433 . S
C1507 N1509 1.384 . S
N1508 C1504 1.427 . S
N1508 C1505 1.384 . S
N1509 C1501 1.427 . S
N1509 C1507 1.384 . S
H1510 C1516 0.930 . S
H1511 C1520 0.930 . S
H1512 C1525 0.929 . S
H1513 C1523 0.929 . S
H1514 C1518 0.929 . S
H1515 C1524 0.929 . S
C1516 H1510 0.930 . S
C1516 C1517 1.367 . S
C1516 C1524 1.378 . S
C1517 C1516 1.367 . S
C1517 C1525 1.433 . S
C1518 H1514 0.929 . S
C1518 C1520 1.378 . S
C1518 C1522 1.350 . S
C1519 C1522 1.463 . S
C1519 C1524 1.350 . S
C1519 N1527 1.427 . S
C1520 H1511 0.930 . S
C1520 C1518 1.378 . S
C1520 C1521 1.367 . S
C1521 C1520 1.367 . S
C1521 C1523 1.433 . S
C1522 C1518 1.350 . S
C1522 C1519 1.463 . S
C1522 N1526 1.427 . S
C1523 H1513 0.929 . S
C1523 C1521 1.433 . S
C1523 N1526 1.384 . S
C1524 H1515 0.929 . S
C1524 C1516 1.378 . S
C1524 C1519 1.350 . S
C1525 H1512 0.929 . S
C1525 C1517 1.433 . S
C1525 N1527 1.384 . S
N1526 C1522 1.427 . S
N1526 C1523 1.384 . S
N1527 C1519 1.427 . S
N1527 C1525 1.384 . S
H1528 C1534 0.930 . S
H1529 C1538 0.930 . S
H1530 C1543 0.929 . S
H1531 C1541 0.929 . S
H1532 C1536 0.929 . S
H1533 C1542 0.929 . S
C1534 H1528 0.930 . S
C1534 C1535 1.382 . S
C1534 C1542 1.378 . S
C1535 C1534 1.382 . S
C1535 C1543 1.418 1_565 S
C1536 H1532 0.929 . S
C1536 C1538 1.378 . S
C1536 C1540 1.361 . S
C1537 C1540 1.461 1_565 S
C1537 C1542 1.372 . S
C1537 N1545 1.405 1_565 S
C1538 H1529 0.930 . S
C1538 C1536 1.378 . S
C1538 C1539 1.371 . S
C1539 C1538 1.371 . S
C1539 C1541 1.429 1_545 S
C1540 C1536 1.361 . S
C1540 C1537 1.461 1_545 S
C1540 N1544 1.417 1_545 S
C1541 H1531 0.929 . S
C1541 C1539 1.429 1_565 S
C1541 N1544 1.384 . S
C1542 H1533 0.929 . S
C1542 C1534 1.378 . S
C1542 C1537 1.372 . S
C1543 H1530 0.929 . S
C1543 C1535 1.418 1_545 S
C1543 N1545 1.384 . S
N1544 C1540 1.417 1_565 S
N1544 C1541 1.384 . S
N1545 C1537 1.405 1_545 S
N1545 C1543 1.384 . S
H1546 C1552 0.930 . S
H1547 C1556 0.930 . S
H1548 C1561 0.929 . S
H1549 C1559 0.929 . S
H1550 C1554 0.929 . S
H1551 C1560 0.929 . S
C1552 H1546 0.930 . S
C1552 C1553 1.367 . S
C1552 C1560 1.378 . S
C1553 C1552 1.367 . S
C1553 C1561 1.433 . S
C1554 H1550 0.929 . S
C1554 C1556 1.378 . S
C1554 C1558 1.350 . S
C1555 C1558 1.463 . S
C1555 C1560 1.350 . S
C1555 N1563 1.427 . S
C1556 H1547 0.930 . S
C1556 C1554 1.378 . S
C1556 C1557 1.367 . S
C1557 C1556 1.367 . S
C1557 C1559 1.433 . S
C1558 C1554 1.350 . S
C1558 C1555 1.463 . S
C1558 N1562 1.427 . S
C1559 H1549 0.929 . S
C1559 C1557 1.433 . S
C1559 N1562 1.384 . S
C1560 H1551 0.929 . S
C1560 C1552 1.378 . S
C1560 C1555 1.350 . S
C1561 H1548 0.929 . S
C1561 C1553 1.433 . S
C1561 N1563 1.384 . S
N1562 C1558 1.427 . S
N1562 C1559 1.384 . S
N1563 C1555 1.427 . S
N1563 C1561 1.384 . S
H1564 C1570 0.930 . S
H1565 C1574 0.930 . S
H1566 C1579 0.929 . S
H1567 C1577 0.929 . S
H1568 C1572 0.929 . S
H1569 C1578 0.929 . S
C1570 H1564 0.930 . S
C1570 C1571 1.380 . S
C1570 C1578 1.378 . S
C1571 C1570 1.380 . S
C1571 C1579 1.420 1_545 S
C1572 H1568 0.929 . S
C1572 C1574 1.378 . S
C1572 C1576 1.358 . S
C1573 C1576 1.461 1_545 S
C1573 C1578 1.368 . S
C1573 N1581 1.409 1_545 S
C1574 H1565 0.930 . S
C1574 C1572 1.378 . S
C1574 C1575 1.369 . S
C1575 C1574 1.369 . S
C1575 C1577 1.431 1_565 S
C1576 C1572 1.358 . S
C1576 C1573 1.461 1_565 S
C1576 N1580 1.419 1_565 S
C1577 H1567 0.929 . S
C1577 C1575 1.431 1_545 S
C1577 N1580 1.384 . S
C1578 H1569 0.929 . S
C1578 C1570 1.378 . S
C1578 C1573 1.368 . S
C1579 H1566 0.929 . S
C1579 C1571 1.420 1_565 S
C1579 N1581 1.384 . S
N1580 C1576 1.419 1_545 S
N1580 C1577 1.384 . S
N1581 C1573 1.409 1_565 S
N1581 C1579 1.384 . S
H1582 C1588 0.930 . S
H1583 C1592 0.930 . S
H1584 C1597 0.929 . S
H1585 C1595 0.929 . S
H1586 C1590 0.929 . S
H1587 C1596 0.929 . S
C1588 H1582 0.930 . S
C1588 C1589 1.367 . S
C1588 C1596 1.378 . S
C1589 C1588 1.367 . S
C1589 C1597 1.433 . S
C1590 H1586 0.929 . S
C1590 C1592 1.378 . S
C1590 C1594 1.350 . S
C1591 C1594 1.463 . S
C1591 C1596 1.350 . S
C1591 N1599 1.427 . S
C1592 H1583 0.930 . S
C1592 C1590 1.378 . S
C1592 C1593 1.367 . S
C1593 C1592 1.367 . S
C1593 C1595 1.433 . S
C1594 C1590 1.350 . S
C1594 C1591 1.463 . S
C1594 N1598 1.427 . S
C1595 H1585 0.929 . S
C1595 C1593 1.433 . S
C1595 N1598 1.384 . S
C1596 H1587 0.929 . S
C1596 C1588 1.378 . S
C1596 C1591 1.350 . S
C1597 H1584 0.929 . S
C1597 C1589 1.433 . S
C1597 N1599 1.384 . S
N1598 C1594 1.427 . S
N1598 C1595 1.384 . S
N1599 C1591 1.427 . S
N1599 C1597 1.384 . S
H1600 C1606 0.930 . S
H1601 C1610 0.930 . S
H1602 C1615 0.929 . S
H1603 C1613 0.929 1_655 S
H1604 C1608 0.929 . S
H1605 C1614 0.929 . S
C1606 H1600 0.930 . S
C1606 C1607 1.367 . S
C1606 C1614 1.378 . S
C1607 C1606 1.367 . S
C1607 C1615 1.433 . S
C1608 H1604 0.929 . S
C1608 C1610 1.378 . S
C1608 C1612 1.350 . S
C1609 C1612 1.463 . S
C1609 C1614 1.350 . S
C1609 N1617 1.427 . S
C1610 H1601 0.930 . S
C1610 C1608 1.378 . S
C1610 C1611 1.367 . S
C1611 C1610 1.367 . S
C1611 C1613 1.433 . S
C1612 C1608 1.350 . S
C1612 C1609 1.463 . S
C1612 N1616 1.427 . S
C1613 H1603 0.929 1_455 S
C1613 C1611 1.433 . S
C1613 N1616 1.384 . S
C1614 H1605 0.929 . S
C1614 C1606 1.378 . S
C1614 C1609 1.350 . S
C1615 H1602 0.929 . S
C1615 C1607 1.433 . S
C1615 N1617 1.384 . S
N1616 C1612 1.427 . S
N1616 C1613 1.384 . S
N1617 C1609 1.427 . S
N1617 C1615 1.384 . S
H1618 C1624 0.930 1_655 S
H1619 C1628 0.930 . S
H1620 C1633 0.929 . S
H1621 C1631 0.929 . S
H1622 C1626 0.929 . S
H1623 C1632 0.929 . S
C1624 H1618 0.930 1_455 S
C1624 C1625 1.367 . S
C1624 C1632 1.378 . S
C1625 C1624 1.367 . S
C1625 C1633 1.433 . S
C1626 H1622 0.929 . S
C1626 C1628 1.378 . S
C1626 C1630 1.350 . S
C1627 C1630 1.463 . S
C1627 C1632 1.350 . S
C1627 N1635 1.427 . S
C1628 H1619 0.930 . S
C1628 C1626 1.378 . S
C1628 C1629 1.367 . S
C1629 C1628 1.367 . S
C1629 C1631 1.433 . S
C1630 C1626 1.350 . S
C1630 C1627 1.463 . S
C1630 N1634 1.427 . S
C1631 H1621 0.929 . S
C1631 C1629 1.433 . S
C1631 N1634 1.384 . S
C1632 H1623 0.929 . S
C1632 C1624 1.378 . S
C1632 C1627 1.350 . S
C1633 H1620 0.929 . S
C1633 C1625 1.433 . S
C1633 N1635 1.384 . S
N1634 C1630 1.427 . S
N1634 C1631 1.384 . S
N1635 C1627 1.427 . S
N1635 C1633 1.384 . S
H1636 C1642 0.930 . S
H1637 C1646 0.930 . S
H1638 C1651 0.929 . S
H1639 C1649 0.929 . S
H1640 C1644 0.929 . S
H1641 C1650 0.929 . S
C1642 H1636 0.930 . S
C1642 C1643 1.367 . S
C1642 C1650 1.378 . S
C1643 C1642 1.367 . S
C1643 C1651 1.433 . S
C1644 H1640 0.929 . S
C1644 C1646 1.378 . S
C1644 C1648 1.350 . S
C1645 C1648 1.463 . S
C1645 C1650 1.350 . S
C1645 N1653 1.427 . S
C1646 H1637 0.930 . S
C1646 C1644 1.378 . S
C1646 C1647 1.367 . S
C1647 C1646 1.367 . S
C1647 C1649 1.433 . S
C1648 C1644 1.350 . S
C1648 C1645 1.463 . S
C1648 N1652 1.427 . S
C1649 H1639 0.929 . S
C1649 C1647 1.433 . S
C1649 N1652 1.384 . S
C1650 H1641 0.929 . S
C1650 C1642 1.378 . S
C1650 C1645 1.350 . S
C1651 H1638 0.929 . S
C1651 C1643 1.433 . S
C1651 N1653 1.384 . S
N1652 C1648 1.427 . S
N1652 C1649 1.384 . S
N1653 C1645 1.427 . S
N1653 C1651 1.384 . S
H1654 C1660 0.930 . S
H1655 C1664 0.930 . S
H1656 C1669 0.929 . S
H1657 C1667 0.929 . S
H1658 C1662 0.929 . S
H1659 C1668 0.929 . S
C1660 H1654 0.930 . S
C1660 C1661 1.367 . S
C1660 C1668 1.378 . S
C1661 C1660 1.367 . S
C1661 C1669 1.433 . S
C1662 H1658 0.929 . S
C1662 C1664 1.378 . S
C1662 C1666 1.350 . S
C1663 C1666 1.463 . S
C1663 C1668 1.350 . S
C1663 N1671 1.427 . S
C1664 H1655 0.930 . S
C1664 C1662 1.378 . S
C1664 C1665 1.367 . S
C1665 C1664 1.367 . S
C1665 C1667 1.433 . S
C1666 C1662 1.350 . S
C1666 C1663 1.463 . S
C1666 N1670 1.427 . S
C1667 H1657 0.929 . S
C1667 C1665 1.433 . S
C1667 N1670 1.384 . S
C1668 H1659 0.929 . S
C1668 C1660 1.378 . S
C1668 C1663 1.350 . S
C1669 H1656 0.929 . S
C1669 C1661 1.433 . S
C1669 N1671 1.384 . S
N1670 C1666 1.427 . S
N1670 C1667 1.384 . S
N1671 C1663 1.427 . S
N1671 C1669 1.384 . S
H1672 C1678 0.930 . S
H1673 C1682 0.930 . S
H1674 C1687 0.929 . S
H1675 C1685 0.929 . S
H1676 C1680 0.929 . S
H1677 C1686 0.929 . S
C1678 H1672 0.930 . S
C1678 C1679 1.367 . S
C1678 C1686 1.378 . S
C1679 C1678 1.367 . S
C1679 C1687 1.433 . S
C1680 H1676 0.929 . S
C1680 C1682 1.378 . S
C1680 C1684 1.350 . S
C1681 C1684 1.463 . S
C1681 C1686 1.350 . S
C1681 N1689 1.427 . S
C1682 H1673 0.930 . S
C1682 C1680 1.378 . S
C1682 C1683 1.367 . S
C1683 C1682 1.367 . S
C1683 C1685 1.433 . S
C1684 C1680 1.350 . S
C1684 C1681 1.463 . S
C1684 N1688 1.427 . S
C1685 H1675 0.929 . S
C1685 C1683 1.433 . S
C1685 N1688 1.384 . S
C1686 H1677 0.929 . S
C1686 C1678 1.378 . S
C1686 C1681 1.350 . S
C1687 H1674 0.929 . S
C1687 C1679 1.433 . S
C1687 N1689 1.384 . S
N1688 C1684 1.427 . S
N1688 C1685 1.384 . S
N1689 C1681 1.427 . S
N1689 C1687 1.384 . S
H1690 C1696 0.930 1_655 S
H1691 C1700 0.930 . S
H1692 C1705 0.929 . S
H1693 C1703 0.929 . S
H1694 C1698 0.929 . S
H1695 C1704 0.931 . S
C1696 H1690 0.930 1_455 S
C1696 C1697 1.367 . S
C1696 C1704 1.378 . S
C1697 C1696 1.367 . S
C1697 C1705 1.433 . S
C1698 H1694 0.929 . S
C1698 C1700 1.378 . S
C1698 C1702 1.350 . S
C1699 C1702 1.463 . S
C1699 C1704 1.350 . S
C1699 N1707 1.427 . S
C1700 H1691 0.930 . S
C1700 C1698 1.378 . S
C1700 C1701 1.367 . S
C1701 C1700 1.367 . S
C1701 C1703 1.433 . S
C1702 C1698 1.350 . S
C1702 C1699 1.463 . S
C1702 N1706 1.427 . S
C1703 H1693 0.929 . S
C1703 C1701 1.433 . S
C1703 N1706 1.384 . S
C1704 H1695 0.931 . S
C1704 C1696 1.378 . S
C1704 C1699 1.350 . S
C1705 H1692 0.929 . S
C1705 C1697 1.433 . S
C1705 N1707 1.384 . S
N1706 C1702 1.427 . S
N1706 C1703 1.384 . S
N1707 C1699 1.427 . S
N1707 C1705 1.384 . S
H1708 C1714 0.930 . S
H1709 C1718 0.930 1_455 S
H1710 C1723 0.929 . S
H1711 C1721 0.929 . S
H1712 C1716 0.929 . S
H1713 C1722 0.929 . S
C1714 H1708 0.930 . S
C1714 C1715 1.367 . S
C1714 C1722 1.378 . S
C1715 C1714 1.367 . S
C1715 C1723 1.433 . S
C1716 H1712 0.929 . S
C1716 C1718 1.378 . S
C1716 C1720 1.350 . S
C1717 C1720 1.463 . S
C1717 C1722 1.350 . S
C1717 N1725 1.427 . S
C1718 H1709 0.930 1_655 S
C1718 C1716 1.378 . S
C1718 C1719 1.367 . S
C1719 C1718 1.367 . S
C1719 C1721 1.433 . S
C1720 C1716 1.350 . S
C1720 C1717 1.463 . S
C1720 N1724 1.427 . S
C1721 H1711 0.929 . S
C1721 C1719 1.433 . S
C1721 N1724 1.384 . S
C1722 H1713 0.929 . S
C1722 C1714 1.378 . S
C1722 C1717 1.350 . S
C1723 H1710 0.929 . S
C1723 C1715 1.433 . S
C1723 N1725 1.384 . S
N1724 C1720 1.427 . S
N1724 C1721 1.384 . S
N1725 C1717 1.427 . S
N1725 C1723 1.384 . S
H1726 C1732 0.930 . S
H1727 C1736 0.930 . S
H1728 C1741 0.929 1_455 S
H1729 C1739 0.929 . S
H1730 C1734 0.929 . S
H1731 C1740 0.929 . S
C1732 H1726 0.930 . S
C1732 C1733 1.367 . S
C1732 C1740 1.378 . S
C1733 C1732 1.367 . S
C1733 C1741 1.433 . S
C1734 H1730 0.929 . S
C1734 C1736 1.378 . S
C1734 C1738 1.350 . S
C1735 C1738 1.463 . S
C1735 C1740 1.350 . S
C1735 N1743 1.427 . S
C1736 H1727 0.930 . S
C1736 C1734 1.378 . S
C1736 C1737 1.367 . S
C1737 C1736 1.367 . S
C1737 C1739 1.433 . S
C1738 C1734 1.350 . S
C1738 C1735 1.463 . S
C1738 N1742 1.427 . S
C1739 H1729 0.929 . S
C1739 C1737 1.433 . S
C1739 N1742 1.384 . S
C1740 H1731 0.929 . S
C1740 C1732 1.378 . S
C1740 C1735 1.350 . S
C1741 H1728 0.929 1_655 S
C1741 C1733 1.433 . S
C1741 N1743 1.384 . S
N1742 C1738 1.427 . S
N1742 C1739 1.384 . S
N1743 C1735 1.427 . S
N1743 C1741 1.384 . S
H1744 C1750 0.930 . S
H1745 C1754 0.930 . S
H1746 C1759 0.929 . S
H1747 C1757 0.929 . S
H1748 C1752 0.929 . S
H1749 C1758 0.929 . S
C1750 H1744 0.930 . S
C1750 C1751 1.367 . S
C1750 C1758 1.378 . S
C1751 C1750 1.367 . S
C1751 C1759 1.433 . S
C1752 H1748 0.929 . S
C1752 C1754 1.378 . S
C1752 C1756 1.350 . S
C1753 C1756 1.463 . S
C1753 C1758 1.350 . S
C1753 N1761 1.427 . S
C1754 H1745 0.930 . S
C1754 C1752 1.378 . S
C1754 C1755 1.367 . S
C1755 C1754 1.367 . S
C1755 C1757 1.433 . S
C1756 C1752 1.350 . S
C1756 C1753 1.463 . S
C1756 N1760 1.427 . S
C1757 H1747 0.929 . S
C1757 C1755 1.433 . S
C1757 N1760 1.384 . S
C1758 H1749 0.929 . S
C1758 C1750 1.378 . S
C1758 C1753 1.350 . S
C1759 H1746 0.929 . S
C1759 C1751 1.433 . S
C1759 N1761 1.384 . S
N1760 C1756 1.427 . S
N1760 C1757 1.384 . S
N1761 C1753 1.427 . S
N1761 C1759 1.384 . S
H1762 C1768 0.930 . S
H1763 C1772 0.930 . S
H1764 C1777 0.929 . S
H1765 C1775 0.929 . S
H1766 C1770 0.929 . S
H1767 C1776 0.929 . S
C1768 H1762 0.930 . S
C1768 C1769 1.367 . S
C1768 C1776 1.378 . S
C1769 C1768 1.367 . S
C1769 C1777 1.433 . S
C1770 H1766 0.929 . S
C1770 C1772 1.378 . S
C1770 C1774 1.350 . S
C1771 C1774 1.463 . S
C1771 C1776 1.350 . S
C1771 N1779 1.427 . S
C1772 H1763 0.930 . S
C1772 C1770 1.378 . S
C1772 C1773 1.367 . S
C1773 C1772 1.367 . S
C1773 C1775 1.433 . S
C1774 C1770 1.350 . S
C1774 C1771 1.463 . S
C1774 N1778 1.427 . S
C1775 H1765 0.929 . S
C1775 C1773 1.433 . S
C1775 N1778 1.384 . S
C1776 H1767 0.929 . S
C1776 C1768 1.378 . S
C1776 C1771 1.350 . S
C1777 H1764 0.929 . S
C1777 C1769 1.433 . S
C1777 N1779 1.384 . S
N1778 C1774 1.427 . S
N1778 C1775 1.384 . S
N1779 C1771 1.427 . S
N1779 C1777 1.384 . S
H1780 C1786 0.930 . S
H1781 C1790 0.930 . S
H1782 C1795 0.929 . S
H1783 C1793 0.929 . S
H1784 C1788 0.929 . S
H1785 C1794 0.929 . S
C1786 H1780 0.930 . S
C1786 C1787 1.367 . S
C1786 C1794 1.378 . S
C1787 C1786 1.367 . S
C1787 C1795 1.433 . S
C1788 H1784 0.929 . S
C1788 C1790 1.378 . S
C1788 C1792 1.350 . S
C1789 C1792 1.463 . S
C1789 C1794 1.350 . S
C1789 N1797 1.427 . S
C1790 H1781 0.930 . S
C1790 C1788 1.378 . S
C1790 C1791 1.367 . S
C1791 C1790 1.367 . S
C1791 C1793 1.433 . S
C1792 C1788 1.350 . S
C1792 C1789 1.463 . S
C1792 N1796 1.427 . S
C1793 H1783 0.929 . S
C1793 C1791 1.433 . S
C1793 N1796 1.384 . S
C1794 H1785 0.929 . S
C1794 C1786 1.378 . S
C1794 C1789 1.350 . S
C1795 H1782 0.929 . S
C1795 C1787 1.433 . S
C1795 N1797 1.384 . S
N1796 C1792 1.427 . S
N1796 C1793 1.384 . S
N1797 C1789 1.427 . S
N1797 C1795 1.384 . S
H1798 C1804 0.930 . S
H1799 C1808 0.930 . S
H1800 C1813 0.929 . S
H1801 C1811 0.929 . S
H1802 C1806 0.929 . S
H1803 C1812 0.929 . S
C1804 H1798 0.930 . S
C1804 C1805 1.367 . S
C1804 C1812 1.378 . S
C1805 C1804 1.367 . S
C1805 C1813 1.433 . S
C1806 H1802 0.929 . S
C1806 C1808 1.378 . S
C1806 C1810 1.350 . S
C1807 C1810 1.463 . S
C1807 C1812 1.350 . S
C1807 N1815 1.427 . S
C1808 H1799 0.930 . S
C1808 C1806 1.378 . S
C1808 C1809 1.367 . S
C1809 C1808 1.367 . S
C1809 C1811 1.433 . S
C1810 C1806 1.350 . S
C1810 C1807 1.463 . S
C1810 N1814 1.427 . S
C1811 H1801 0.929 . S
C1811 C1809 1.433 . S
C1811 N1814 1.384 . S
C1812 H1803 0.929 . S
C1812 C1804 1.378 . S
C1812 C1807 1.350 . S
C1813 H1800 0.929 . S
C1813 C1805 1.433 . S
C1813 N1815 1.384 . S
N1814 C1810 1.427 . S
N1814 C1811 1.384 . S
N1815 C1807 1.427 . S
N1815 C1813 1.384 . S
H1816 C1822 0.930 . S
H1817 C1826 0.930 . S
H1818 C1831 0.929 . S
H1819 C1829 0.929 . S
H1820 C1824 0.929 . S
H1821 C1830 0.929 . S
C1822 H1816 0.930 . S
C1822 C1823 1.367 . S
C1822 C1830 1.378 . S
C1823 C1822 1.367 . S
C1823 C1831 1.433 . S
C1824 H1820 0.929 . S
C1824 C1826 1.378 . S
C1824 C1828 1.350 . S
C1825 C1828 1.463 . S
C1825 C1830 1.350 . S
C1825 N1833 1.427 . S
C1826 H1817 0.930 . S
C1826 C1824 1.378 . S
C1826 C1827 1.367 . S
C1827 C1826 1.367 . S
C1827 C1829 1.433 . S
C1828 C1824 1.350 . S
C1828 C1825 1.463 . S
C1828 N1832 1.427 . S
C1829 H1819 0.929 . S
C1829 C1827 1.433 . S
C1829 N1832 1.384 . S
C1830 H1821 0.929 . S
C1830 C1822 1.378 . S
C1830 C1825 1.350 . S
C1831 H1818 0.929 . S
C1831 C1823 1.433 . S
C1831 N1833 1.384 . S
N1832 C1828 1.427 . S
N1832 C1829 1.384 . S
N1833 C1825 1.427 . S
N1833 C1831 1.384 . S
H1834 C1840 0.930 . S
H1835 C1844 0.930 . S
H1836 C1849 0.929 . S
H1837 C1847 0.929 . S
H1838 C1842 0.929 . S
H1839 C1848 0.929 . S
C1840 H1834 0.930 . S
C1840 C1841 1.367 . S
C1840 C1848 1.378 . S
C1841 C1840 1.367 . S
C1841 C1849 1.433 . S
C1842 H1838 0.929 . S
C1842 C1844 1.378 . S
C1842 C1846 1.350 . S
C1843 C1846 1.463 . S
C1843 C1848 1.350 . S
C1843 N1851 1.427 . S
C1844 H1835 0.930 . S
C1844 C1842 1.378 . S
C1844 C1845 1.367 . S
C1845 C1844 1.367 . S
C1845 C1847 1.433 . S
C1846 C1842 1.350 . S
C1846 C1843 1.463 . S
C1846 N1850 1.427 . S
C1847 H1837 0.929 . S
C1847 C1845 1.433 . S
C1847 N1850 1.384 . S
C1848 H1839 0.929 . S
C1848 C1840 1.378 . S
C1848 C1843 1.350 . S
C1849 H1836 0.929 . S
C1849 C1841 1.433 . S
C1849 N1851 1.384 . S
N1850 C1846 1.427 . S
N1850 C1847 1.384 . S
N1851 C1843 1.427 . S
N1851 C1849 1.384 . S
H1852 C1858 0.930 . S
H1853 C1862 0.930 . S
H1854 C1867 0.929 . S
H1855 C1865 0.929 . S
H1856 C1860 0.929 . S
H1857 C1866 0.929 . S
C1858 H1852 0.930 . S
C1858 C1859 1.367 . S
C1858 C1866 1.378 . S
C1859 C1858 1.367 . S
C1859 C1867 1.433 . S
C1860 H1856 0.929 . S
C1860 C1862 1.378 . S
C1860 C1864 1.350 . S
C1861 C1864 1.463 . S
C1861 C1866 1.350 . S
C1861 N1869 1.427 . S
C1862 H1853 0.930 . S
C1862 C1860 1.378 . S
C1862 C1863 1.367 . S
C1863 C1862 1.367 . S
C1863 C1865 1.433 . S
C1864 C1860 1.350 . S
C1864 C1861 1.463 . S
C1864 N1868 1.427 . S
C1865 H1855 0.929 . S
C1865 C1863 1.433 . S
C1865 N1868 1.384 . S
C1866 H1857 0.929 . S
C1866 C1858 1.378 . S
C1866 C1861 1.350 . S
C1867 H1854 0.929 . S
C1867 C1859 1.433 . S
C1867 N1869 1.384 . S
N1868 C1864 1.427 . S
N1868 C1865 1.384 . S
N1869 C1861 1.427 . S
N1869 C1867 1.384 . S
H1870 C1876 0.930 . S
H1871 C1880 0.930 . S
H1872 C1885 0.929 . S
H1873 C1883 0.929 . S
H1874 C1878 0.929 . S
H1875 C1884 0.929 . S
C1876 H1870 0.930 . S
C1876 C1877 1.367 . S
C1876 C1884 1.378 . S
C1877 C1876 1.367 . S
C1877 C1885 1.433 . S
C1878 H1874 0.929 . S
C1878 C1880 1.378 . S
C1878 C1882 1.350 . S
C1879 C1882 1.463 . S
C1879 C1884 1.350 . S
C1879 N1887 1.427 . S
C1880 H1871 0.930 . S
C1880 C1878 1.378 . S
C1880 C1881 1.367 . S
C1881 C1880 1.367 . S
C1881 C1883 1.433 . S
C1882 C1878 1.350 . S
C1882 C1879 1.463 . S
C1882 N1886 1.427 . S
C1883 H1873 0.929 . S
C1883 C1881 1.433 . S
C1883 N1886 1.384 . S
C1884 H1875 0.929 . S
C1884 C1876 1.378 . S
C1884 C1879 1.350 . S
C1885 H1872 0.929 . S
C1885 C1877 1.433 . S
C1885 N1887 1.384 . S
N1886 C1882 1.427 . S
N1886 C1883 1.384 . S
N1887 C1879 1.427 . S
N1887 C1885 1.384 . S
H1888 C1894 0.930 . S
H1889 C1898 0.930 . S
H1890 C1903 0.929 . S
H1891 C1901 0.929 . S
H1892 C1896 0.929 . S
H1893 C1902 0.929 . S
C1894 H1888 0.930 . S
C1894 C1895 1.367 . S
C1894 C1902 1.378 . S
C1895 C1894 1.367 . S
C1895 C1903 1.433 . S
C1896 H1892 0.929 . S
C1896 C1898 1.378 . S
C1896 C1900 1.350 . S
C1897 C1900 1.463 . S
C1897 C1902 1.350 . S
C1897 N1905 1.427 . S
C1898 H1889 0.930 . S
C1898 C1896 1.378 . S
C1898 C1899 1.367 . S
C1899 C1898 1.367 . S
C1899 C1901 1.433 . S
C1900 C1896 1.350 . S
C1900 C1897 1.463 . S
C1900 N1904 1.427 . S
C1901 H1891 0.929 . S
C1901 C1899 1.433 . S
C1901 N1904 1.384 . S
C1902 H1893 0.929 . S
C1902 C1894 1.378 . S
C1902 C1897 1.350 . S
C1903 H1890 0.929 . S
C1903 C1895 1.433 . S
C1903 N1905 1.384 . S
N1904 C1900 1.427 . S
N1904 C1901 1.384 . S
N1905 C1897 1.427 . S
N1905 C1903 1.384 . S
H1906 C1912 0.930 . S
H1907 C1916 0.930 . S
H1908 C1921 0.929 . S
H1909 C1919 0.929 . S
H1910 C1914 0.929 . S
H1911 C1920 0.929 . S
C1912 H1906 0.930 . S
C1912 C1913 1.367 . S
C1912 C1920 1.378 . S
C1913 C1912 1.367 . S
C1913 C1921 1.433 . S
C1914 H1910 0.929 . S
C1914 C1916 1.378 . S
C1914 C1918 1.350 . S
C1915 C1918 1.463 . S
C1915 C1920 1.350 . S
C1915 N1923 1.427 . S
C1916 H1907 0.930 . S
C1916 C1914 1.378 . S
C1916 C1917 1.367 . S
C1917 C1916 1.367 . S
C1917 C1919 1.433 . S
C1918 C1914 1.350 . S
C1918 C1915 1.463 . S
C1918 N1922 1.427 . S
C1919 H1909 0.929 . S
C1919 C1917 1.433 . S
C1919 N1922 1.384 . S
C1920 H1911 0.929 . S
C1920 C1912 1.378 . S
C1920 C1915 1.350 . S
C1921 H1908 0.929 . S
C1921 C1913 1.433 . S
C1921 N1923 1.384 . S
N1922 C1918 1.427 . S
N1922 C1919 1.384 . S
N1923 C1915 1.427 . S
N1923 C1921 1.384 . S
H1924 C1930 0.930 . S
H1925 C1934 0.930 . S
H1926 C1939 0.929 . S
H1927 C1937 0.929 . S
H1928 C1932 0.929 . S
H1929 C1938 0.929 . S
C1930 H1924 0.930 . S
C1930 C1931 1.367 . S
C1930 C1938 1.378 . S
C1931 C1930 1.367 . S
C1931 C1939 1.433 . S
C1932 H1928 0.929 . S
C1932 C1934 1.378 . S
C1932 C1936 1.350 . S
C1933 C1936 1.463 . S
C1933 C1938 1.350 . S
C1933 N1941 1.427 . S
C1934 H1925 0.930 . S
C1934 C1932 1.378 . S
C1934 C1935 1.367 . S
C1935 C1934 1.367 . S
C1935 C1937 1.433 . S
C1936 C1932 1.350 . S
C1936 C1933 1.463 . S
C1936 N1940 1.427 . S
C1937 H1927 0.929 . S
C1937 C1935 1.433 . S
C1937 N1940 1.384 . S
C1938 H1929 0.929 . S
C1938 C1930 1.378 . S
C1938 C1933 1.350 . S
C1939 H1926 0.929 . S
C1939 C1931 1.433 . S
C1939 N1941 1.384 . S
N1940 C1936 1.427 . S
N1940 C1937 1.384 . S
N1941 C1933 1.427 . S
N1941 C1939 1.384 . S
H1942 C1948 0.930 . S
H1943 C1952 0.930 . S
H1944 C1957 0.929 . S
H1945 C1955 0.929 . S
H1946 C1950 0.929 . S
H1947 C1956 0.929 . S
C1948 H1942 0.930 . S
C1948 C1949 1.367 . S
C1948 C1956 1.378 . S
C1949 C1948 1.367 . S
C1949 C1957 1.433 . S
C1950 H1946 0.929 . S
C1950 C1952 1.378 . S
C1950 C1954 1.350 . S
C1951 C1954 1.463 . S
C1951 C1956 1.350 . S
C1951 N1959 1.427 . S
C1952 H1943 0.930 . S
C1952 C1950 1.378 . S
C1952 C1953 1.367 . S
C1953 C1952 1.367 . S
C1953 C1955 1.433 . S
C1954 C1950 1.350 . S
C1954 C1951 1.463 . S
C1954 N1958 1.427 . S
C1955 H1945 0.929 . S
C1955 C1953 1.433 . S
C1955 N1958 1.384 . S
C1956 H1947 0.929 . S
C1956 C1948 1.378 . S
C1956 C1951 1.350 . S
C1957 H1944 0.929 . S
C1957 C1949 1.433 . S
C1957 N1959 1.384 . S
N1958 C1954 1.427 . S
N1958 C1955 1.384 . S
N1959 C1951 1.427 . S
N1959 C1957 1.384 . S
H1960 C1966 0.930 . S
H1961 C1970 0.930 . S
H1962 C1975 0.929 . S
H1963 C1973 0.929 . S
H1964 C1968 0.929 . S
H1965 C1974 0.929 . S
C1966 H1960 0.930 . S
C1966 C1967 1.367 . S
C1966 C1974 1.378 . S
C1967 C1966 1.367 . S
C1967 C1975 1.433 . S
C1968 H1964 0.929 . S
C1968 C1970 1.378 . S
C1968 C1972 1.350 . S
C1969 C1972 1.463 . S
C1969 C1974 1.350 . S
C1969 N1977 1.427 . S
C1970 H1961 0.930 . S
C1970 C1968 1.378 . S
C1970 C1971 1.367 . S
C1971 C1970 1.367 . S
C1971 C1973 1.433 . S
C1972 C1968 1.350 . S
C1972 C1969 1.463 . S
C1972 N1976 1.427 . S
C1973 H1963 0.929 . S
C1973 C1971 1.433 . S
C1973 N1976 1.384 . S
C1974 H1965 0.929 . S
C1974 C1966 1.378 . S
C1974 C1969 1.350 . S
C1975 H1962 0.929 . S
C1975 C1967 1.433 . S
C1975 N1977 1.384 . S
N1976 C1972 1.427 . S
N1976 C1973 1.384 . S
N1977 C1969 1.427 . S
N1977 C1975 1.384 . S
H1978 C1984 0.930 . S
H1979 C1988 0.930 . S
H1980 C1993 0.929 . S
H1981 C1991 0.929 . S
H1982 C1986 0.929 . S
H1983 C1992 0.929 . S
C1984 H1978 0.930 . S
C1984 C1985 1.367 . S
C1984 C1992 1.378 . S
C1985 C1984 1.367 . S
C1985 C1993 1.433 . S
C1986 H1982 0.929 . S
C1986 C1988 1.378 . S
C1986 C1990 1.350 . S
C1987 C1990 1.463 . S
C1987 C1992 1.350 . S
C1987 N1995 1.427 . S
C1988 H1979 0.930 . S
C1988 C1986 1.378 . S
C1988 C1989 1.367 . S
C1989 C1988 1.367 . S
C1989 C1991 1.433 . S
C1990 C1986 1.350 . S
C1990 C1987 1.463 . S
C1990 N1994 1.427 . S
C1991 H1981 0.929 . S
C1991 C1989 1.433 . S
C1991 N1994 1.384 . S
C1992 H1983 0.929 . S
C1992 C1984 1.378 . S
C1992 C1987 1.350 . S
C1993 H1980 0.929 . S
C1993 C1985 1.433 . S
C1993 N1995 1.384 . S
N1994 C1990 1.427 . S
N1994 C1991 1.384 . S
N1995 C1987 1.427 . S
N1995 C1993 1.384 . S
H1996 C2002 0.930 . S
H1997 C2006 0.930 . S
H1998 C2011 0.929 . S
H1999 C2009 0.929 . S
H2000 C2004 0.929 . S
H2001 C2010 0.929 . S
C2002 H1996 0.930 . S
C2002 C2003 1.367 . S
C2002 C2010 1.378 . S
C2003 C2002 1.367 . S
C2003 C2011 1.433 . S
C2004 H2000 0.929 . S
C2004 C2006 1.378 . S
C2004 C2008 1.350 . S
C2005 C2008 1.463 . S
C2005 C2010 1.350 . S
C2005 N2013 1.427 . S
C2006 H1997 0.930 . S
C2006 C2004 1.378 . S
C2006 C2007 1.367 . S
C2007 C2006 1.367 . S
C2007 C2009 1.433 . S
C2008 C2004 1.350 . S
C2008 C2005 1.463 . S
C2008 N2012 1.427 . S
C2009 H1999 0.929 . S
C2009 C2007 1.433 . S
C2009 N2012 1.384 . S
C2010 H2001 0.929 . S
C2010 C2002 1.378 . S
C2010 C2005 1.350 . S
C2011 H1998 0.929 . S
C2011 C2003 1.433 . S
C2011 N2013 1.384 . S
N2012 C2008 1.427 . S
N2012 C2009 1.384 . S
N2013 C2005 1.427 . S
N2013 C2011 1.384 . S
H2014 C2020 0.930 . S
H2015 C2024 0.930 . S
H2016 C2029 0.929 . S
H2017 C2027 0.929 . S
H2018 C2022 0.929 . S
H2019 C2028 0.929 . S
C2020 H2014 0.930 . S
C2020 C2021 1.367 . S
C2020 C2028 1.378 . S
C2021 C2020 1.367 . S
C2021 C2029 1.433 . S
C2022 H2018 0.929 . S
C2022 C2024 1.378 . S
C2022 C2026 1.350 . S
C2023 C2026 1.463 . S
C2023 C2028 1.350 . S
C2023 N2031 1.427 . S
C2024 H2015 0.930 . S
C2024 C2022 1.378 . S
C2024 C2025 1.367 . S
C2025 C2024 1.367 . S
C2025 C2027 1.433 . S
C2026 C2022 1.350 . S
C2026 C2023 1.463 . S
C2026 N2030 1.427 . S
C2027 H2017 0.929 . S
C2027 C2025 1.433 . S
C2027 N2030 1.384 . S
C2028 H2019 0.929 . S
C2028 C2020 1.378 . S
C2028 C2023 1.350 . S
C2029 H2016 0.929 . S
C2029 C2021 1.433 . S
C2029 N2031 1.384 . S
N2030 C2026 1.427 . S
N2030 C2027 1.384 . S
N2031 C2023 1.427 . S
N2031 C2029 1.384 . S
H2032 C2038 0.930 . S
H2033 C2042 0.930 . S
H2034 C2047 0.929 . S
H2035 C2045 0.929 . S
H2036 C2040 0.929 . S
H2037 C2046 0.929 . S
C2038 H2032 0.930 . S
C2038 C2039 1.393 . S
C2038 C2046 1.378 . S
C2039 C2038 1.393 . S
C2039 C2047 1.405 1_565 S
C2040 H2036 0.929 . S
C2040 C2042 1.378 . S
C2040 C2044 1.350 . S
C2041 C2044 1.467 . S
C2041 C2046 1.313 1_545 S
C2041 N2049 1.464 . S
C2042 H2033 0.930 . S
C2042 C2040 1.378 . S
C2042 C2043 1.367 . S
C2043 C2042 1.367 . S
C2043 C2045 1.433 1_545 S
C2044 C2040 1.350 . S
C2044 C2041 1.467 . S
C2044 N2048 1.427 1_545 S
C2045 H2035 0.929 . S
C2045 C2043 1.433 1_565 S
C2045 N2048 1.384 . S
C2046 H2037 0.929 . S
C2046 C2038 1.378 . S
C2046 C2041 1.313 1_565 S
C2047 H2034 0.929 . S
C2047 C2039 1.405 1_545 S
C2047 N2049 1.384 . S
N2048 C2044 1.427 1_565 S
N2048 C2045 1.384 . S
N2049 C2041 1.464 . S
N2049 C2047 1.384 . S
H2050 C2056 0.930 . S
H2051 C2060 0.930 . S
H2052 C2065 0.929 . S
H2053 C2063 0.929 . S
H2054 C2058 0.929 . S
H2055 C2064 0.929 . S
C2056 H2050 0.930 . S
C2056 C2057 1.367 . S
C2056 C2064 1.378 . S
C2057 C2056 1.367 . S
C2057 C2065 1.433 . S
C2058 H2054 0.929 . S
C2058 C2060 1.378 . S
C2058 C2062 1.350 . S
C2059 C2062 1.463 . S
C2059 C2064 1.350 . S
C2059 N2067 1.427 . S
C2060 H2051 0.930 . S
C2060 C2058 1.378 . S
C2060 C2061 1.367 . S
C2061 C2060 1.367 . S
C2061 C2063 1.433 . S
C2062 C2058 1.350 . S
C2062 C2059 1.463 . S
C2062 N2066 1.427 . S
C2063 H2053 0.929 . S
C2063 C2061 1.433 . S
C2063 N2066 1.384 . S
C2064 H2055 0.929 . S
C2064 C2056 1.378 . S
C2064 C2059 1.350 . S
C2065 H2052 0.929 . S
C2065 C2057 1.433 . S
C2065 N2067 1.384 . S
N2066 C2062 1.427 . S
N2066 C2063 1.384 . S
N2067 C2059 1.427 . S
N2067 C2065 1.384 . S
H2068 C2074 0.930 . S
H2069 C2078 0.930 . S
H2070 C2083 0.929 . S
H2071 C2081 0.929 . S
H2072 C2076 0.929 . S
H2073 C2082 0.929 . S
C2074 H2068 0.930 . S
C2074 C2075 1.367 . S
C2074 C2082 1.378 . S
C2075 C2074 1.367 . S
C2075 C2083 1.433 . S
C2076 H2072 0.929 . S
C2076 C2078 1.378 . S
C2076 C2080 1.350 . S
C2077 C2080 1.463 . S
C2077 C2082 1.350 . S
C2077 N2085 1.427 . S
C2078 H2069 0.930 . S
C2078 C2076 1.378 . S
C2078 C2079 1.367 . S
C2079 C2078 1.367 . S
C2079 C2081 1.433 . S
C2080 C2076 1.350 . S
C2080 C2077 1.463 . S
C2080 N2084 1.427 . S
C2081 H2071 0.929 . S
C2081 C2079 1.433 . S
C2081 N2084 1.384 . S
C2082 H2073 0.929 . S
C2082 C2074 1.378 . S
C2082 C2077 1.350 . S
C2083 H2070 0.929 . S
C2083 C2075 1.433 . S
C2083 N2085 1.384 . S
N2084 C2080 1.427 . S
N2084 C2081 1.384 . S
N2085 C2077 1.427 . S
N2085 C2083 1.384 . S
H2086 C2092 0.930 . S
H2087 C2096 0.930 . S
H2088 C2101 0.929 . S
H2089 C2099 0.929 . S
H2090 C2094 0.929 . S
H2091 C2100 0.929 . S
C2092 H2086 0.930 . S
C2092 C2093 1.395 . S
C2092 C2100 1.378 . S
C2093 C2092 1.395 . S
C2093 C2101 1.404 1_565 S
C2094 H2090 0.929 . S
C2094 C2096 1.378 . S
C2094 C2098 1.350 . S
C2095 C2098 1.467 . S
C2095 C2100 1.313 1_545 S
C2095 N2103 1.464 . S
C2096 H2087 0.930 . S
C2096 C2094 1.378 . S
C2096 C2097 1.367 . S
C2097 C2096 1.367 . S
C2097 C2099 1.433 1_545 S
C2098 C2094 1.350 . S
C2098 C2095 1.467 . S
C2098 N2102 1.427 1_545 S
C2099 H2089 0.929 . S
C2099 C2097 1.433 1_565 S
C2099 N2102 1.384 . S
C2100 H2091 0.929 . S
C2100 C2092 1.378 . S
C2100 C2095 1.313 1_565 S
C2101 H2088 0.929 . S
C2101 C2093 1.404 1_545 S
C2101 N2103 1.384 . S
N2102 C2098 1.427 1_565 S
N2102 C2099 1.384 . S
N2103 C2095 1.464 . S
N2103 C2101 1.384 . S
H2104 C2110 0.930 . S
H2105 C2114 0.930 . S
H2106 C2119 0.929 . S
H2107 C2117 0.929 . S
H2108 C2112 0.929 . S
H2109 C2118 0.929 . S
C2110 H2104 0.930 . S
C2110 C2111 1.393 . S
C2110 C2118 1.378 . S
C2111 C2110 1.393 . S
C2111 C2119 1.405 1_545 S
C2112 H2108 0.929 . S
C2112 C2114 1.378 . S
C2112 C2116 1.350 . S
C2113 C2116 1.467 . S
C2113 C2118 1.313 1_565 S
C2113 N2121 1.464 . S
C2114 H2105 0.930 . S
C2114 C2112 1.378 . S
C2114 C2115 1.367 . S
C2115 C2114 1.367 . S
C2115 C2117 1.433 1_565 S
C2116 C2112 1.350 . S
C2116 C2113 1.467 . S
C2116 N2120 1.427 1_565 S
C2117 H2107 0.929 . S
C2117 C2115 1.433 1_545 S
C2117 N2120 1.384 . S
C2118 H2109 0.929 . S
C2118 C2110 1.378 . S
C2118 C2113 1.313 1_545 S
C2119 H2106 0.929 . S
C2119 C2111 1.405 1_565 S
C2119 N2121 1.384 . S
N2120 C2116 1.427 1_545 S
N2120 C2117 1.384 . S
N2121 C2113 1.464 . S
N2121 C2119 1.384 . S
H2122 C2128 0.930 . S
H2123 C2132 0.930 . S
H2124 C2137 0.929 . S
H2125 C2135 0.929 . S
H2126 C2130 0.929 . S
H2127 C2136 0.929 . S
C2128 H2122 0.930 . S
C2128 C2129 1.367 . S
C2128 C2136 1.378 . S
C2129 C2128 1.367 . S
C2129 C2137 1.433 . S
C2130 H2126 0.929 . S
C2130 C2132 1.378 . S
C2130 C2134 1.350 . S
C2131 C2134 1.463 . S
C2131 C2136 1.350 . S
C2131 N2139 1.427 . S
C2132 H2123 0.930 . S
C2132 C2130 1.378 . S
C2132 C2133 1.367 . S
C2133 C2132 1.367 . S
C2133 C2135 1.433 . S
C2134 C2130 1.350 . S
C2134 C2131 1.463 . S
C2134 N2138 1.427 . S
C2135 H2125 0.929 . S
C2135 C2133 1.433 . S
C2135 N2138 1.384 . S
C2136 H2127 0.929 . S
C2136 C2128 1.378 . S
C2136 C2131 1.350 . S
C2137 H2124 0.929 . S
C2137 C2129 1.433 . S
C2137 N2139 1.384 . S
N2138 C2134 1.427 . S
N2138 C2135 1.384 . S
N2139 C2131 1.427 . S
N2139 C2137 1.384 . S
H2140 C2146 0.930 . S
H2141 C2150 0.930 . S
H2142 C2155 0.929 . S
H2143 C2153 0.929 . S
H2144 C2148 0.929 . S
H2145 C2154 0.929 . S
C2146 H2140 0.930 . S
C2146 C2147 1.367 . S
C2146 C2154 1.378 . S
C2147 C2146 1.367 . S
C2147 C2155 1.433 . S
C2148 H2144 0.929 . S
C2148 C2150 1.378 . S
C2148 C2152 1.350 . S
C2149 C2152 1.463 . S
C2149 C2154 1.350 . S
C2149 N2157 1.427 . S
C2150 H2141 0.930 . S
C2150 C2148 1.378 . S
C2150 C2151 1.367 . S
C2151 C2150 1.367 . S
C2151 C2153 1.433 . S
C2152 C2148 1.350 . S
C2152 C2149 1.463 . S
C2152 N2156 1.427 . S
C2153 H2143 0.929 . S
C2153 C2151 1.433 . S
C2153 N2156 1.384 . S
C2154 H2145 0.929 . S
C2154 C2146 1.378 . S
C2154 C2149 1.350 . S
C2155 H2142 0.929 . S
C2155 C2147 1.433 . S
C2155 N2157 1.384 . S
N2156 C2152 1.427 . S
N2156 C2153 1.384 . S
N2157 C2149 1.427 . S
N2157 C2155 1.384 . S
H2158 C2164 0.930 . S
H2159 C2168 0.930 . S
H2160 C2173 0.929 . S
H2161 C2171 0.929 . S
H2162 C2166 0.929 . S
H2163 C2172 0.929 . S
C2164 H2158 0.930 . S
C2164 C2165 1.371 . S
C2164 C2172 1.378 . S
C2165 C2164 1.371 . S
C2165 C2173 1.429 1_565 S
C2166 H2162 0.929 . S
C2166 C2168 1.378 . S
C2166 C2170 1.350 1_545 S
C2167 C2170 1.463 . S
C2167 C2172 1.350 . S
C2167 N2175 1.427 1_565 S
C2168 H2159 0.930 . S
C2168 C2166 1.378 . S
C2168 C2169 1.367 1_545 S
C2169 C2168 1.367 1_565 S
C2169 C2171 1.433 . S
C2170 C2166 1.350 1_565 S
C2170 C2167 1.463 . S
C2170 N2174 1.427 . S
C2171 H2161 0.929 . S
C2171 C2169 1.433 . S
C2171 N2174 1.384 . S
C2172 H2163 0.929 . S
C2172 C2164 1.378 . S
C2172 C2167 1.350 . S
C2173 H2160 0.929 . S
C2173 C2165 1.429 1_545 S
C2173 N2175 1.384 . S
N2174 C2170 1.427 . S
N2174 C2171 1.384 . S
N2175 C2167 1.427 1_545 S
N2175 C2173 1.384 . S
H2176 C2182 0.930 . S
H2177 C2186 0.930 . S
H2178 C2191 0.929 . S
H2179 C2189 0.929 . S
H2180 C2184 0.929 . S
H2181 C2190 0.929 . S
C2182 H2176 0.930 . S
C2182 C2183 1.367 . S
C2182 C2190 1.378 . S
C2183 C2182 1.367 . S
C2183 C2191 1.433 . S
C2184 H2180 0.929 . S
C2184 C2186 1.378 . S
C2184 C2188 1.350 . S
C2185 C2188 1.463 1_455 S
C2185 C2190 1.350 . S
C2185 N2193 1.427 . S
C2186 H2177 0.930 . S
C2186 C2184 1.378 . S
C2186 C2187 1.367 . S
C2187 C2186 1.367 . S
C2187 C2189 1.433 . S
C2188 C2184 1.350 . S
C2188 C2185 1.463 1_655 S
C2188 N2192 1.427 . S
C2189 H2179 0.929 . S
C2189 C2187 1.433 . S
C2189 N2192 1.384 . S
C2190 H2181 0.929 . S
C2190 C2182 1.378 . S
C2190 C2185 1.350 . S
C2191 H2178 0.929 . S
C2191 C2183 1.433 . S
C2191 N2193 1.384 . S
N2192 C2188 1.427 . S
N2192 C2189 1.384 . S
N2193 C2185 1.427 . S
N2193 C2191 1.384 . S
H2194 C2200 0.930 . S
H2195 C2204 0.930 . S
H2196 C2209 0.929 . S
H2197 C2207 0.929 . S
H2198 C2202 0.929 . S
H2199 C2208 0.929 . S
C2200 H2194 0.930 . S
C2200 C2201 1.367 . S
C2200 C2208 1.378 . S
C2201 C2200 1.367 . S
C2201 C2209 1.433 . S
C2202 H2198 0.929 . S
C2202 C2204 1.378 . S
C2202 C2206 1.350 . S
C2203 C2206 1.463 . S
C2203 C2208 1.350 . S
C2203 N2211 1.427 . S
C2204 H2195 0.930 . S
C2204 C2202 1.378 . S
C2204 C2205 1.367 . S
C2205 C2204 1.367 . S
C2205 C2207 1.433 . S
C2206 C2202 1.350 . S
C2206 C2203 1.463 . S
C2206 N2210 1.427 . S
C2207 H2197 0.929 . S
C2207 C2205 1.433 . S
C2207 N2210 1.384 . S
C2208 H2199 0.929 . S
C2208 C2200 1.378 . S
C2208 C2203 1.350 . S
C2209 H2196 0.929 . S
C2209 C2201 1.433 . S
C2209 N2211 1.384 . S
N2210 C2206 1.427 . S
N2210 C2207 1.384 . S
N2211 C2203 1.427 . S
N2211 C2209 1.384 . S
H2212 C2218 0.930 . S
H2213 C2222 0.930 . S
H2214 C2227 0.929 . S
H2215 C2225 0.929 . S
H2216 C2220 0.929 . S
H2217 C2226 0.929 . S
C2218 H2212 0.930 . S
C2218 C2219 1.367 . S
C2218 C2226 1.378 . S
C2219 C2218 1.367 . S
C2219 C2227 1.433 . S
C2220 H2216 0.929 . S
C2220 C2222 1.378 . S
C2220 C2224 1.350 . S
C2221 C2224 1.463 1_655 S
C2221 C2226 1.350 . S
C2221 N2229 1.427 . S
C2222 H2213 0.930 . S
C2222 C2220 1.378 . S
C2222 C2223 1.367 . S
C2223 C2222 1.367 . S
C2223 C2225 1.433 . S
C2224 C2220 1.350 . S
C2224 C2221 1.463 1_455 S
C2224 N2228 1.427 . S
C2225 H2215 0.929 . S
C2225 C2223 1.433 . S
C2225 N2228 1.384 . S
C2226 H2217 0.929 . S
C2226 C2218 1.378 . S
C2226 C2221 1.350 . S
C2227 H2214 0.929 . S
C2227 C2219 1.433 . S
C2227 N2229 1.384 . S
N2228 C2224 1.427 . S
N2228 C2225 1.384 . S
N2229 C2221 1.427 . S
N2229 C2227 1.384 . S
H2230 C2236 0.930 . S
H2231 C2240 0.930 . S
H2232 C2245 0.929 . S
H2233 C2243 0.929 . S
H2234 C2238 0.929 . S
H2235 C2244 0.929 . S
C2236 H2230 0.930 . S
C2236 C2237 1.367 . S
C2236 C2244 1.378 . S
C2237 C2236 1.367 . S
C2237 C2245 1.433 . S
C2238 H2234 0.929 . S
C2238 C2240 1.378 . S
C2238 C2242 1.350 . S
C2239 C2242 1.463 . S
C2239 C2244 1.350 . S
C2239 N2247 1.427 . S
C2240 H2231 0.930 . S
C2240 C2238 1.378 . S
C2240 C2241 1.367 . S
C2241 C2240 1.367 . S
C2241 C2243 1.433 . S
C2242 C2238 1.350 . S
C2242 C2239 1.463 . S
C2242 N2246 1.427 . S
C2243 H2233 0.929 . S
C2243 C2241 1.433 . S
C2243 N2246 1.384 . S
C2244 H2235 0.929 . S
C2244 C2236 1.378 . S
C2244 C2239 1.350 . S
C2245 H2232 0.929 . S
C2245 C2237 1.433 . S
C2245 N2247 1.384 . S
N2246 C2242 1.427 . S
N2246 C2243 1.384 . S
N2247 C2239 1.427 . S
N2247 C2245 1.384 . S
H2248 C2254 0.930 . S
H2249 C2258 0.930 . S
H2250 C2263 0.929 . S
H2251 C2261 0.929 . S
H2252 C2256 0.929 . S
H2253 C2262 0.929 . S
C2254 H2248 0.930 . S
C2254 C2255 1.367 . S
C2254 C2262 1.378 . S
C2255 C2254 1.367 . S
C2255 C2263 1.433 . S
C2256 H2252 0.929 . S
C2256 C2258 1.378 . S
C2256 C2260 1.350 . S
C2257 C2260 1.463 1_655 S
C2257 C2262 1.350 . S
C2257 N2265 1.427 . S
C2258 H2249 0.930 . S
C2258 C2256 1.378 . S
C2258 C2259 1.367 . S
C2259 C2258 1.367 . S
C2259 C2261 1.433 . S
C2260 C2256 1.350 . S
C2260 C2257 1.463 1_455 S
C2260 N2264 1.427 . S
C2261 H2251 0.929 . S
C2261 C2259 1.433 . S
C2261 N2264 1.384 . S
C2262 H2253 0.929 . S
C2262 C2254 1.378 . S
C2262 C2257 1.350 . S
C2263 H2250 0.929 . S
C2263 C2255 1.433 . S
C2263 N2265 1.384 . S
N2264 C2260 1.427 . S
N2264 C2261 1.384 . S
N2265 C2257 1.427 . S
N2265 C2263 1.384 . S
H2266 C2272 0.930 . S
H2267 C2276 0.930 . S
H2268 C2281 0.929 . S
H2269 C2279 0.929 . S
H2270 C2274 0.929 . S
H2271 C2280 0.929 . S
C2272 H2266 0.930 . S
C2272 C2273 1.367 . S
C2272 C2280 1.378 . S
C2273 C2272 1.367 . S
C2273 C2281 1.433 . S
C2274 H2270 0.929 . S
C2274 C2276 1.378 . S
C2274 C2278 1.350 . S
C2275 C2278 1.463 . S
C2275 C2280 1.350 . S
C2275 N2283 1.427 . S
C2276 H2267 0.930 . S
C2276 C2274 1.378 . S
C2276 C2277 1.367 . S
C2277 C2276 1.367 . S
C2277 C2279 1.433 . S
C2278 C2274 1.350 . S
C2278 C2275 1.463 . S
C2278 N2282 1.427 . S
C2279 H2269 0.929 . S
C2279 C2277 1.433 . S
C2279 N2282 1.384 . S
C2280 H2271 0.929 . S
C2280 C2272 1.378 . S
C2280 C2275 1.350 . S
C2281 H2268 0.929 . S
C2281 C2273 1.433 . S
C2281 N2283 1.384 . S
N2282 C2278 1.427 . S
N2282 C2279 1.384 . S
N2283 C2275 1.427 . S
N2283 C2281 1.384 . S
H2284 C2290 0.930 . S
H2285 C2294 0.930 . S
H2286 C2299 0.929 . S
H2287 C2297 0.929 . S
H2288 C2292 0.929 . S
H2289 C2298 0.929 . S
C2290 H2284 0.930 . S
C2290 C2291 1.367 . S
C2290 C2298 1.378 . S
C2291 C2290 1.367 . S
C2291 C2299 1.433 . S
C2292 H2288 0.929 . S
C2292 C2294 1.378 . S
C2292 C2296 1.350 . S
C2293 C2296 1.463 1_455 S
C2293 C2298 1.350 . S
C2293 N2301 1.427 . S
C2294 H2285 0.930 . S
C2294 C2292 1.378 . S
C2294 C2295 1.367 . S
C2295 C2294 1.367 . S
C2295 C2297 1.433 . S
C2296 C2292 1.350 . S
C2296 C2293 1.463 1_655 S
C2296 N2300 1.427 . S
C2297 H2287 0.929 . S
C2297 C2295 1.433 . S
C2297 N2300 1.384 . S
C2298 H2289 0.929 . S
C2298 C2290 1.378 . S
C2298 C2293 1.350 . S
C2299 H2286 0.929 . S
C2299 C2291 1.433 . S
C2299 N2301 1.384 . S
N2300 C2296 1.427 . S
N2300 C2297 1.384 . S
N2301 C2293 1.427 . S
N2301 C2299 1.384 . S
H2302 C2308 0.930 . S
H2303 C2312 0.930 . S
H2304 C2317 0.929 . S
H2305 C2315 0.929 . S
H2306 C2310 0.929 . S
H2307 C2316 0.929 . S
C2308 H2302 0.930 . S
C2308 C2309 1.367 . S
C2308 C2316 1.378 . S
C2309 C2308 1.367 . S
C2309 C2317 1.433 . S
C2310 H2306 0.929 . S
C2310 C2312 1.378 . S
C2310 C2314 1.350 . S
C2311 C2314 1.463 . S
C2311 C2316 1.350 . S
C2311 N2319 1.427 . S
C2312 H2303 0.930 . S
C2312 C2310 1.378 . S
C2312 C2313 1.367 . S
C2313 C2312 1.367 . S
C2313 C2315 1.433 . S
C2314 C2310 1.350 . S
C2314 C2311 1.463 . S
C2314 N2318 1.427 . S
C2315 H2305 0.929 . S
C2315 C2313 1.433 . S
C2315 N2318 1.384 . S
C2316 H2307 0.929 . S
C2316 C2308 1.378 . S
C2316 C2311 1.350 . S
C2317 H2304 0.929 . S
C2317 C2309 1.433 . S
C2317 N2319 1.384 . S
N2318 C2314 1.427 . S
N2318 C2315 1.384 . S
N2319 C2311 1.427 . S
N2319 C2317 1.384 . S
H2320 C2326 0.930 . S
H2321 C2330 0.930 . S
H2322 C2335 0.929 . S
H2323 C2333 0.929 . S
H2324 C2328 0.929 . S
H2325 C2334 0.929 . S
C2326 H2320 0.930 . S
C2326 C2327 1.373 . S
C2326 C2334 1.378 . S
C2327 C2326 1.373 . S
C2327 C2335 1.427 1_545 S
C2328 H2324 0.929 . S
C2328 C2330 1.378 . S
C2328 C2332 1.350 1_565 S
C2329 C2332 1.463 1_655 S
C2329 C2334 1.350 . S
C2329 N2337 1.427 1_545 S
C2330 H2321 0.930 . S
C2330 C2328 1.378 . S
C2330 C2331 1.367 1_565 S
C2331 C2330 1.367 1_545 S
C2331 C2333 1.433 . S
C2332 C2328 1.350 1_545 S
C2332 C2329 1.463 1_455 S
C2332 N2336 1.427 . S
C2333 H2323 0.929 . S
C2333 C2331 1.433 . S
C2333 N2336 1.384 . S
C2334 H2325 0.929 . S
C2334 C2326 1.378 . S
C2334 C2329 1.350 . S
C2335 H2322 0.929 . S
C2335 C2327 1.427 1_565 S
C2335 N2337 1.384 . S
N2336 C2332 1.427 . S
N2336 C2333 1.384 . S
N2337 C2329 1.427 1_565 S
N2337 C2335 1.384 . S
H2338 C2344 0.930 . S
H2339 C2348 0.930 . S
H2340 C2353 0.929 . S
H2341 C2351 0.929 . S
H2342 C2346 0.929 . S
H2343 C2352 0.929 . S
C2344 H2338 0.930 . S
C2344 C2345 1.367 . S
C2344 C2352 1.378 . S
C2345 C2344 1.367 . S
C2345 C2353 1.433 . S
C2346 H2342 0.929 . S
C2346 C2348 1.378 . S
C2346 C2350 1.350 . S
C2347 C2350 1.463 . S
C2347 C2352 1.350 . S
C2347 N2355 1.427 . S
C2348 H2339 0.930 . S
C2348 C2346 1.378 . S
C2348 C2349 1.367 . S
C2349 C2348 1.367 . S
C2349 C2351 1.433 . S
C2350 C2346 1.350 . S
C2350 C2347 1.463 . S
C2350 N2354 1.427 . S
C2351 H2341 0.929 . S
C2351 C2349 1.433 . S
C2351 N2354 1.384 . S
C2352 H2343 0.929 . S
C2352 C2344 1.378 . S
C2352 C2347 1.350 . S
C2353 H2340 0.929 . S
C2353 C2345 1.433 . S
C2353 N2355 1.384 . S
N2354 C2350 1.427 . S
N2354 C2351 1.384 . S
N2355 C2347 1.427 . S
N2355 C2353 1.384 . S
H2356 C2362 0.930 . S
H2357 C2366 0.930 . S
H2358 C2371 0.929 . S
H2359 C2369 0.929 . S
H2360 C2364 0.929 . S
H2361 C2370 0.929 . S
C2362 H2356 0.930 . S
C2362 C2363 1.367 . S
C2362 C2370 1.378 . S
C2363 C2362 1.367 . S
C2363 C2371 1.433 . S
C2364 H2360 0.929 . S
C2364 C2366 1.378 . S
C2364 C2368 1.350 . S
C2365 C2368 1.463 1_655 S
C2365 C2370 1.350 . S
C2365 N2373 1.427 . S
C2366 H2357 0.930 . S
C2366 C2364 1.378 . S
C2366 C2367 1.367 . S
C2367 C2366 1.367 . S
C2367 C2369 1.433 . S
C2368 C2364 1.350 . S
C2368 C2365 1.463 1_455 S
C2368 N2372 1.427 . S
C2369 H2359 0.929 . S
C2369 C2367 1.433 . S
C2369 N2372 1.384 . S
C2370 H2361 0.929 . S
C2370 C2362 1.378 . S
C2370 C2365 1.350 . S
C2371 H2358 0.929 . S
C2371 C2363 1.433 . S
C2371 N2373 1.384 . S
N2372 C2368 1.427 . S
N2372 C2369 1.384 . S
N2373 C2365 1.427 . S
N2373 C2371 1.384 . S
H2374 C2380 0.930 . S
H2375 C2384 0.930 . S
H2376 C2389 0.929 . S
H2377 C2387 0.929 . S
H2378 C2382 0.929 . S
H2379 C2388 0.929 . S
C2380 H2374 0.930 . S
C2380 C2381 1.396 . S
C2380 C2388 1.378 . S
C2381 C2380 1.396 . S
C2381 C2389 1.402 1_565 S
C2382 H2378 0.929 . S
C2382 C2384 1.378 . S
C2382 C2386 1.350 . S
C2383 C2386 1.467 . S
C2383 C2388 1.313 1_545 S
C2383 N2391 1.464 . S
C2384 H2375 0.930 . S
C2384 C2382 1.378 . S
C2384 C2385 1.367 . S
C2385 C2384 1.367 . S
C2385 C2387 1.433 1_545 S
C2386 C2382 1.350 . S
C2386 C2383 1.467 . S
C2386 N2390 1.427 1_545 S
C2387 H2377 0.929 . S
C2387 C2385 1.433 1_565 S
C2387 N2390 1.384 . S
C2388 H2379 0.929 . S
C2388 C2380 1.378 . S
C2388 C2383 1.313 1_565 S
C2389 H2376 0.929 . S
C2389 C2381 1.402 1_545 S
C2389 N2391 1.384 . S
N2390 C2386 1.427 1_565 S
N2390 C2387 1.384 . S
N2391 C2383 1.464 . S
N2391 C2389 1.384 . S
H2392 C2398 0.930 . S
H2393 C2402 0.930 . S
H2394 C2407 0.929 . S
H2395 C2405 0.929 . S
H2396 C2400 0.929 . S
H2397 C2406 0.929 . S
C2398 H2392 0.930 . S
C2398 C2399 1.367 . S
C2398 C2406 1.378 . S
C2399 C2398 1.367 . S
C2399 C2407 1.433 1_565 S
C2400 H2396 0.929 . S
C2400 C2402 1.378 . S
C2400 C2404 1.350 1_545 S
C2401 C2404 1.463 1_655 S
C2401 C2406 1.350 . S
C2401 N2409 1.427 1_565 S
C2402 H2393 0.930 . S
C2402 C2400 1.378 . S
C2402 C2403 1.373 . S
C2403 C2402 1.373 . S
C2403 C2405 1.427 1_545 S
C2404 C2400 1.350 1_565 S
C2404 C2401 1.463 1_455 S
C2404 N2408 1.427 . S
C2405 H2395 0.929 . S
C2405 C2403 1.427 1_565 S
C2405 N2408 1.384 . S
C2406 H2397 0.929 . S
C2406 C2398 1.378 . S
C2406 C2401 1.350 . S
C2407 H2394 0.929 . S
C2407 C2399 1.433 1_545 S
C2407 N2409 1.384 . S
N2408 C2404 1.427 . S
N2408 C2405 1.384 . S
N2409 C2401 1.427 1_545 S
N2409 C2407 1.384 . S
H2410 C2416 0.930 . S
H2411 C2420 0.930 . S
H2412 C2425 0.929 . S
H2413 C2423 0.929 . S
H2414 C2418 0.929 . S
H2415 C2424 0.929 . S
C2416 H2410 0.930 . S
C2416 C2417 1.367 . S
C2416 C2424 1.378 . S
C2417 C2416 1.367 . S
C2417 C2425 1.433 . S
C2418 H2414 0.929 . S
C2418 C2420 1.378 . S
C2418 C2422 1.350 . S
C2419 C2422 1.463 . S
C2419 C2424 1.350 . S
C2419 N2427 1.427 . S
C2420 H2411 0.930 . S
C2420 C2418 1.378 . S
C2420 C2421 1.367 . S
C2421 C2420 1.367 . S
C2421 C2423 1.433 . S
C2422 C2418 1.350 . S
C2422 C2419 1.463 . S
C2422 N2426 1.427 . S
C2423 H2413 0.929 . S
C2423 C2421 1.433 . S
C2423 N2426 1.384 . S
C2424 H2415 0.929 . S
C2424 C2416 1.378 . S
C2424 C2419 1.350 . S
C2425 H2412 0.929 . S
C2425 C2417 1.433 . S
C2425 N2427 1.384 . S
N2426 C2422 1.427 . S
N2426 C2423 1.384 . S
N2427 C2419 1.427 . S
N2427 C2425 1.384 . S
H2428 C2434 0.930 . S
H2429 C2438 0.930 . S
H2430 C2443 0.929 . S
H2431 C2441 0.929 . S
H2432 C2436 0.929 . S
H2433 C2442 0.929 . S
C2434 H2428 0.930 . S
C2434 C2435 1.367 . S
C2434 C2442 1.378 . S
C2435 C2434 1.367 . S
C2435 C2443 1.433 . S
C2436 H2432 0.929 . S
C2436 C2438 1.378 . S
C2436 C2440 1.350 . S
C2437 C2440 1.463 1_455 S
C2437 C2442 1.350 . S
C2437 N2445 1.427 . S
C2438 H2429 0.930 . S
C2438 C2436 1.378 . S
C2438 C2439 1.367 . S
C2439 C2438 1.367 . S
C2439 C2441 1.433 . S
C2440 C2436 1.350 . S
C2440 C2437 1.463 1_655 S
C2440 N2444 1.427 . S
C2441 H2431 0.929 . S
C2441 C2439 1.433 . S
C2441 N2444 1.384 . S
C2442 H2433 0.929 . S
C2442 C2434 1.378 . S
C2442 C2437 1.350 . S
C2443 H2430 0.929 . S
C2443 C2435 1.433 . S
C2443 N2445 1.384 . S
N2444 C2440 1.427 . S
N2444 C2441 1.384 . S
N2445 C2437 1.427 . S
N2445 C2443 1.384 . S
H2446 C2452 0.930 . S
H2447 C2456 0.930 . S
H2448 C2461 0.929 . S
H2449 C2459 0.929 . S
H2450 C2454 0.929 . S
H2451 C2460 0.929 . S
C2452 H2446 0.930 . S
C2452 C2453 1.365 . S
C2452 C2460 1.378 . S
C2453 C2452 1.365 . S
C2453 C2461 1.435 1_565 S
C2454 H2450 0.929 . S
C2454 C2456 1.378 . S
C2454 C2458 1.350 1_545 S
C2455 C2458 1.463 . S
C2455 C2460 1.350 . S
C2455 N2463 1.427 1_565 S
C2456 H2447 0.930 . S
C2456 C2454 1.378 . S
C2456 C2457 1.367 1_545 S
C2457 C2456 1.367 1_565 S
C2457 C2459 1.433 . S
C2458 C2454 1.350 1_565 S
C2458 C2455 1.463 . S
C2458 N2462 1.427 . S
C2459 H2449 0.929 . S
C2459 C2457 1.433 . S
C2459 N2462 1.384 . S
C2460 H2451 0.929 . S
C2460 C2452 1.378 . S
C2460 C2455 1.350 . S
C2461 H2448 0.929 . S
C2461 C2453 1.435 1_545 S
C2461 N2463 1.384 . S
N2462 C2458 1.427 . S
N2462 C2459 1.384 . S
N2463 C2455 1.427 1_545 S
N2463 C2461 1.384 . S
H2464 C2470 0.930 . S
H2465 C2474 0.930 . S
H2466 C2479 0.929 . S
H2467 C2477 0.929 . S
H2468 C2472 0.929 . S
H2469 C2478 0.929 . S
C2470 H2464 0.930 . S
C2470 C2471 1.367 1_455 S
C2470 C2478 1.378 . S
C2471 C2470 1.367 1_655 S
C2471 C2479 1.433 . S
C2472 H2468 0.929 . S
C2472 C2474 1.378 . S
C2472 C2476 1.350 1_655 S
C2473 C2476 1.463 1_654 S
C2473 C2478 1.350 1_655 S
C2473 N2481 1.427 . S
C2474 H2465 0.930 . S
C2474 C2472 1.378 . S
C2474 C2475 1.367 1_655 S
C2475 C2474 1.367 1_455 S
C2475 C2477 1.433 . S
C2476 C2472 1.350 1_455 S
C2476 C2473 1.463 1_456 S
C2476 N2480 1.427 . S
C2477 H2467 0.929 . S
C2477 C2475 1.433 . S
C2477 N2480 1.384 . S
C2478 H2469 0.929 . S
C2478 C2470 1.378 . S
C2478 C2473 1.350 1_455 S
C2479 H2466 0.929 . S
C2479 C2471 1.433 . S
C2479 N2481 1.384 . S
N2480 C2476 1.427 . S
N2480 C2477 1.384 . S
N2481 C2473 1.427 . S
N2481 C2479 1.384 . S
H2482 C2488 0.930 . S
H2483 C2492 0.930 . S
H2484 C2497 0.929 . S
H2485 C2495 0.929 . S
H2486 C2490 0.929 . S
H2487 C2496 0.929 . S
C2488 H2482 0.930 . S
C2488 C2489 1.367 . S
C2488 C2496 1.378 . S
C2489 C2488 1.367 . S
C2489 C2497 1.433 . S
C2490 H2486 0.929 . S
C2490 C2492 1.378 . S
C2490 C2494 1.350 . S
C2491 C2494 1.463 1_556 S
C2491 C2496 1.350 . S
C2491 N2499 1.427 . S
C2492 H2483 0.930 . S
C2492 C2490 1.378 . S
C2492 C2493 1.367 . S
C2493 C2492 1.367 . S
C2493 C2495 1.433 . S
C2494 C2490 1.350 . S
C2494 C2491 1.463 1_554 S
C2494 N2498 1.427 . S
C2495 H2485 0.929 . S
C2495 C2493 1.433 . S
C2495 N2498 1.384 . S
C2496 H2487 0.929 . S
C2496 C2488 1.378 . S
C2496 C2491 1.350 . S
C2497 H2484 0.929 . S
C2497 C2489 1.433 . S
C2497 N2499 1.384 . S
N2498 C2494 1.427 . S
N2498 C2495 1.384 . S
N2499 C2491 1.427 . S
N2499 C2497 1.384 . S
H2500 C2506 0.930 . S
H2501 C2510 0.930 . S
H2502 C2515 0.929 . S
H2503 C2513 0.929 . S
H2504 C2508 0.929 . S
H2505 C2514 0.929 . S
C2506 H2500 0.930 . S
C2506 C2507 1.367 . S
C2506 C2514 1.378 . S
C2507 C2506 1.367 . S
C2507 C2515 1.433 1_455 S
C2508 H2504 0.929 . S
C2508 C2510 1.378 . S
C2508 C2512 1.350 . S
C2509 C2512 1.463 1_455 S
C2509 C2514 1.350 . S
C2509 N2517 1.427 1_455 S
C2510 H2501 0.930 . S
C2510 C2508 1.378 . S
C2510 C2511 1.367 . S
C2511 C2510 1.367 . S
C2511 C2513 1.433 1_655 S
C2512 C2508 1.350 . S
C2512 C2509 1.463 1_655 S
C2512 N2516 1.427 1_655 S
C2513 H2503 0.929 . S
C2513 C2511 1.433 1_455 S
C2513 N2516 1.384 . S
C2514 H2505 0.929 . S
C2514 C2506 1.378 . S
C2514 C2509 1.350 . S
C2515 H2502 0.929 . S
C2515 C2507 1.433 1_655 S
C2515 N2517 1.384 . S
N2516 C2512 1.427 1_455 S
N2516 C2513 1.384 . S
N2517 C2509 1.427 1_655 S
N2517 C2515 1.384 . S
H2518 C2524 0.930 . S
H2519 C2528 0.930 . S
H2520 C2533 0.929 . S
H2521 C2531 0.929 . S
H2522 C2526 0.929 . S
H2523 C2532 0.929 . S
C2524 H2518 0.930 . S
C2524 C2525 1.367 . S
C2524 C2532 1.378 . S
C2525 C2524 1.367 . S
C2525 C2533 1.433 . S
C2526 H2522 0.929 . S
C2526 C2528 1.378 . S
C2526 C2530 1.350 . S
C2527 C2530 1.463 . S
C2527 C2532 1.350 . S
C2527 N2535 1.427 . S
C2528 H2519 0.930 . S
C2528 C2526 1.378 . S
C2528 C2529 1.367 . S
C2529 C2528 1.367 . S
C2529 C2531 1.433 . S
C2530 C2526 1.350 . S
C2530 C2527 1.463 . S
C2530 N2534 1.427 . S
C2531 H2521 0.929 . S
C2531 C2529 1.433 . S
C2531 N2534 1.384 . S
C2532 H2523 0.929 . S
C2532 C2524 1.378 . S
C2532 C2527 1.350 . S
C2533 H2520 0.929 . S
C2533 C2525 1.433 . S
C2533 N2535 1.384 . S
N2534 C2530 1.427 . S
N2534 C2531 1.384 . S
N2535 C2527 1.427 . S
N2535 C2533 1.384 . S
H2536 C2542 0.930 . S
H2537 C2546 0.930 . S
H2538 C2551 0.929 . S
H2539 C2549 0.929 . S
H2540 C2544 0.929 . S
H2541 C2550 0.929 . S
C2542 H2536 0.930 . S
C2542 C2543 1.367 . S
C2542 C2550 1.378 . S
C2543 C2542 1.367 . S
C2543 C2551 1.433 . S
C2544 H2540 0.929 . S
C2544 C2546 1.378 . S
C2544 C2548 1.350 . S
C2545 C2548 1.463 1_556 S
C2545 C2550 1.350 . S
C2545 N2553 1.427 . S
C2546 H2537 0.930 . S
C2546 C2544 1.378 . S
C2546 C2547 1.367 . S
C2547 C2546 1.367 . S
C2547 C2549 1.433 . S
C2548 C2544 1.350 . S
C2548 C2545 1.463 1_554 S
C2548 N2552 1.427 . S
C2549 H2539 0.929 . S
C2549 C2547 1.433 . S
C2549 N2552 1.384 . S
C2550 H2541 0.929 . S
C2550 C2542 1.378 . S
C2550 C2545 1.350 . S
C2551 H2538 0.929 . S
C2551 C2543 1.433 . S
C2551 N2553 1.384 . S
N2552 C2548 1.427 . S
N2552 C2549 1.384 . S
N2553 C2545 1.427 . S
N2553 C2551 1.384 . S
H2554 C2560 0.930 . S
H2555 C2564 0.930 . S
H2556 C2569 0.929 . S
H2557 C2567 0.929 . S
H2558 C2562 0.929 . S
H2559 C2568 0.929 . S
C2560 H2554 0.930 . S
C2560 C2561 1.367 1_655 S
C2560 C2568 1.378 . S
C2561 C2560 1.367 1_455 S
C2561 C2569 1.433 . S
C2562 H2558 0.929 . S
C2562 C2564 1.378 . S
C2562 C2566 1.348 1_455 S
C2563 C2566 1.462 . S
C2563 C2568 1.350 . S
C2563 N2571 1.427 1_655 S
C2564 H2555 0.930 . S
C2564 C2562 1.378 . S
C2564 C2565 1.367 1_455 S
C2565 C2564 1.367 1_655 S
C2565 C2567 1.433 . S
C2566 C2562 1.348 1_655 S
C2566 C2563 1.462 . S
C2566 N2570 1.429 . S
C2567 H2557 0.929 . S
C2567 C2565 1.433 . S
C2567 N2570 1.384 . S
C2568 H2559 0.929 . S
C2568 C2560 1.378 . S
C2568 C2563 1.350 . S
C2569 H2556 0.929 . S
C2569 C2561 1.433 . S
C2569 N2571 1.384 . S
N2570 C2566 1.429 . S
N2570 C2567 1.384 . S
N2571 C2563 1.427 1_455 S
N2571 C2569 1.384 . S
H2572 C2578 0.930 . S
H2573 C2582 0.930 . S
H2574 C2587 0.929 . S
H2575 C2585 0.929 . S
H2576 C2580 0.929 . S
H2577 C2586 0.929 . S
C2578 H2572 0.930 . S
C2578 C2579 1.367 . S
C2578 C2586 1.378 . S
C2579 C2578 1.367 . S
C2579 C2587 1.433 . S
C2580 H2576 0.929 . S
C2580 C2582 1.378 . S
C2580 C2584 1.350 . S
C2581 C2584 1.463 . S
C2581 C2586 1.350 . S
C2581 N2589 1.427 . S
C2582 H2573 0.930 . S
C2582 C2580 1.378 . S
C2582 C2583 1.367 . S
C2583 C2582 1.367 . S
C2583 C2585 1.433 . S
C2584 C2580 1.350 . S
C2584 C2581 1.463 . S
C2584 N2588 1.427 . S
C2585 H2575 0.929 . S
C2585 C2583 1.433 . S
C2585 N2588 1.384 . S
C2586 H2577 0.929 . S
C2586 C2578 1.378 . S
C2586 C2581 1.350 . S
C2587 H2574 0.929 . S
C2587 C2579 1.433 . S
C2587 N2589 1.384 . S
N2588 C2584 1.427 . S
N2588 C2585 1.384 . S
N2589 C2581 1.427 . S
N2589 C2587 1.384 . S
H2590 C2596 0.930 . S
H2591 C2600 0.930 . S
H2592 C2605 0.929 . S
H2593 C2603 0.929 . S
H2594 C2598 0.929 . S
H2595 C2604 0.929 . S
C2596 H2590 0.930 . S
C2596 C2597 1.367 1_545 S
C2596 C2604 1.378 . S
C2597 C2596 1.367 1_565 S
C2597 C2605 1.433 1_655 S
C2598 H2594 0.929 . S
C2598 C2600 1.378 . S
C2598 C2602 1.350 1_565 S
C2599 C2602 1.463 1_665 S
C2599 C2604 1.350 1_565 S
C2599 N2607 1.427 1_655 S
C2600 H2591 0.930 . S
C2600 C2598 1.378 . S
C2600 C2601 1.367 1_565 S
C2601 C2600 1.367 1_545 S
C2601 C2603 1.433 1_455 S
C2602 C2598 1.350 1_545 S
C2602 C2599 1.463 1_445 S
C2602 N2606 1.427 1_455 S
C2603 H2593 0.929 . S
C2603 C2601 1.433 1_655 S
C2603 N2606 1.384 . S
C2604 H2595 0.929 . S
C2604 C2596 1.378 . S
C2604 C2599 1.350 1_545 S
C2605 H2592 0.929 . S
C2605 C2597 1.433 1_455 S
C2605 N2607 1.384 . S
N2606 C2602 1.427 1_655 S
N2606 C2603 1.384 . S
N2607 C2599 1.427 1_455 S
N2607 C2605 1.384 . S
H2608 C2614 0.930 . S
H2609 C2618 0.930 . S
H2610 C2623 0.929 . S
H2611 C2621 0.929 . S
H2612 C2616 0.929 . S
H2613 C2622 0.929 . S
C2614 H2608 0.930 . S
C2614 C2615 1.367 . S
C2614 C2622 1.378 . S
C2615 C2614 1.367 . S
C2615 C2623 1.433 . S
C2616 H2612 0.929 . S
C2616 C2618 1.378 . S
C2616 C2620 1.350 . S
C2617 C2620 1.463 . S
C2617 C2622 1.350 . S
C2617 N2625 1.427 . S
C2618 H2609 0.930 . S
C2618 C2616 1.378 . S
C2618 C2619 1.367 . S
C2619 C2618 1.367 . S
C2619 C2621 1.433 . S
C2620 C2616 1.350 . S
C2620 C2617 1.463 . S
C2620 N2624 1.427 . S
C2621 H2611 0.929 . S
C2621 C2619 1.433 . S
C2621 N2624 1.384 . S
C2622 H2613 0.929 . S
C2622 C2614 1.378 . S
C2622 C2617 1.350 . S
C2623 H2610 0.929 . S
C2623 C2615 1.433 . S
C2623 N2625 1.384 . S
N2624 C2620 1.427 . S
N2624 C2621 1.384 . S
N2625 C2617 1.427 . S
N2625 C2623 1.384 . S
H2626 C2632 0.930 . S
H2627 C2636 0.930 . S
H2628 C2641 0.929 . S
H2629 C2639 0.929 . S
H2630 C2634 0.929 . S
H2631 C2640 0.929 . S
C2632 H2626 0.930 . S
C2632 C2633 1.367 . S
C2632 C2640 1.378 . S
C2633 C2632 1.367 . S
C2633 C2641 1.433 1_545 S
C2634 H2630 0.929 . S
C2634 C2636 1.378 . S
C2634 C2638 1.350 . S
C2635 C2638 1.463 1_545 S
C2635 C2640 1.350 . S
C2635 N2643 1.427 1_545 S
C2636 H2627 0.930 . S
C2636 C2634 1.378 . S
C2636 C2637 1.367 . S
C2637 C2636 1.367 . S
C2637 C2639 1.433 1_565 S
C2638 C2634 1.350 . S
C2638 C2635 1.463 1_565 S
C2638 N2642 1.427 1_565 S
C2639 H2629 0.929 . S
C2639 C2637 1.433 1_545 S
C2639 N2642 1.384 . S
C2640 H2631 0.929 . S
C2640 C2632 1.378 . S
C2640 C2635 1.350 . S
C2641 H2628 0.929 . S
C2641 C2633 1.433 1_565 S
C2641 N2643 1.384 . S
N2642 C2638 1.427 1_545 S
N2642 C2639 1.384 . S
N2643 C2635 1.427 1_565 S
N2643 C2641 1.384 . S
H2644 C2650 0.930 . S
H2645 C2654 0.930 . S
H2646 C2659 0.929 . S
H2647 C2657 0.929 . S
H2648 C2652 0.929 . S
H2649 C2658 0.929 . S
C2650 H2644 0.930 . S
C2650 C2651 1.367 . S
C2650 C2658 1.378 . S
C2651 C2650 1.367 . S
C2651 C2659 1.433 . S
C2652 H2648 0.929 . S
C2652 C2654 1.378 . S
C2652 C2656 1.350 . S
C2653 C2656 1.463 . S
C2653 C2658 1.350 . S
C2653 N2661 1.427 . S
C2654 H2645 0.930 . S
C2654 C2652 1.378 . S
C2654 C2655 1.367 . S
C2655 C2654 1.367 . S
C2655 C2657 1.433 . S
C2656 C2652 1.350 . S
C2656 C2653 1.463 . S
C2656 N2660 1.427 . S
C2657 H2647 0.929 . S
C2657 C2655 1.433 . S
C2657 N2660 1.384 . S
C2658 H2649 0.929 . S
C2658 C2650 1.378 . S
C2658 C2653 1.350 . S
C2659 H2646 0.929 . S
C2659 C2651 1.433 . S
C2659 N2661 1.384 . S
N2660 C2656 1.427 . S
N2660 C2657 1.384 . S
N2661 C2653 1.427 . S
N2661 C2659 1.384 . S
H2662 C2668 0.930 . S
H2663 C2672 0.930 . S
H2664 C2677 0.929 . S
H2665 C2675 0.929 . S
H2666 C2670 0.929 . S
H2667 C2676 0.929 . S
C2668 H2662 0.930 . S
C2668 C2669 1.367 1_545 S
C2668 C2676 1.378 . S
C2669 C2668 1.367 1_565 S
C2669 C2677 1.433 . S
C2670 H2666 0.929 . S
C2670 C2672 1.378 . S
C2670 C2674 1.350 1_565 S
C2671 C2674 1.463 1_565 S
C2671 C2676 1.350 1_565 S
C2671 N2679 1.427 . S
C2672 H2663 0.930 . S
C2672 C2670 1.378 . S
C2672 C2673 1.367 1_565 S
C2673 C2672 1.367 1_545 S
C2673 C2675 1.433 . S
C2674 C2670 1.350 1_545 S
C2674 C2671 1.463 1_545 S
C2674 N2678 1.427 . S
C2675 H2665 0.929 . S
C2675 C2673 1.433 . S
C2675 N2678 1.384 . S
C2676 H2667 0.929 . S
C2676 C2668 1.378 . S
C2676 C2671 1.350 1_545 S
C2677 H2664 0.929 . S
C2677 C2669 1.433 . S
C2677 N2679 1.384 . S
N2678 C2674 1.427 . S
N2678 C2675 1.384 . S
N2679 C2671 1.427 . S
N2679 C2677 1.384 . S
H2680 C2686 0.930 . S
H2681 C2690 0.930 . S
H2682 C2695 0.929 . S
H2683 C2693 0.929 . S
H2684 C2688 0.929 . S
H2685 C2694 0.929 . S
C2686 H2680 0.930 . S
C2686 C2687 1.367 . S
C2686 C2694 1.378 . S
C2687 C2686 1.367 . S
C2687 C2695 1.433 . S
C2688 H2684 0.929 . S
C2688 C2690 1.378 . S
C2688 C2692 1.350 . S
C2689 C2692 1.463 . S
C2689 C2694 1.350 . S
C2689 N2697 1.427 . S
C2690 H2681 0.930 . S
C2690 C2688 1.378 . S
C2690 C2691 1.367 . S
C2691 C2690 1.367 . S
C2691 C2693 1.433 . S
C2692 C2688 1.350 . S
C2692 C2689 1.463 . S
C2692 N2696 1.427 . S
C2693 H2683 0.929 . S
C2693 C2691 1.433 . S
C2693 N2696 1.384 . S
C2694 H2685 0.929 . S
C2694 C2686 1.378 . S
C2694 C2689 1.350 . S
C2695 H2682 0.929 . S
C2695 C2687 1.433 . S
C2695 N2697 1.384 . S
N2696 C2692 1.427 . S
N2696 C2693 1.384 . S
N2697 C2689 1.427 . S
N2697 C2695 1.384 . S
H2698 C2704 0.930 . S
H2699 C2708 0.930 . S
H2700 C2713 0.929 . S
H2701 C2711 0.929 . S
H2702 C2706 0.929 . S
H2703 C2712 0.929 . S
C2704 H2698 0.930 . S
C2704 C2705 1.367 . S
C2704 C2712 1.378 . S
C2705 C2704 1.367 . S
C2705 C2713 1.433 . S
C2706 H2702 0.929 . S
C2706 C2708 1.378 . S
C2706 C2710 1.350 . S
C2707 C2710 1.463 . S
C2707 C2712 1.350 . S
C2707 N2715 1.427 . S
C2708 H2699 0.930 . S
C2708 C2706 1.378 . S
C2708 C2709 1.367 . S
C2709 C2708 1.367 . S
C2709 C2711 1.433 . S
C2710 C2706 1.350 . S
C2710 C2707 1.463 . S
C2710 N2714 1.427 . S
C2711 H2701 0.929 . S
C2711 C2709 1.433 . S
C2711 N2714 1.384 . S
C2712 H2703 0.929 . S
C2712 C2704 1.378 . S
C2712 C2707 1.350 . S
C2713 H2700 0.929 . S
C2713 C2705 1.433 . S
C2713 N2715 1.384 . S
N2714 C2710 1.427 . S
N2714 C2711 1.384 . S
N2715 C2707 1.427 . S
N2715 C2713 1.384 . S
H2716 C2722 0.930 . S
H2717 C2726 0.930 . S
H2718 C2731 0.929 . S
H2719 C2729 0.929 . S
H2720 C2724 0.929 . S
H2721 C2730 0.929 . S
C2722 H2716 0.930 . S
C2722 C2723 1.367 . S
C2722 C2730 1.378 . S
C2723 C2722 1.367 . S
C2723 C2731 1.433 . S
C2724 H2720 0.929 . S
C2724 C2726 1.378 . S
C2724 C2728 1.350 . S
C2725 C2728 1.463 . S
C2725 C2730 1.350 . S
C2725 N2733 1.427 . S
C2726 H2717 0.930 . S
C2726 C2724 1.378 . S
C2726 C2727 1.367 . S
C2727 C2726 1.367 . S
C2727 C2729 1.433 . S
C2728 C2724 1.350 . S
C2728 C2725 1.463 . S
C2728 N2732 1.427 . S
C2729 H2719 0.929 . S
C2729 C2727 1.433 . S
C2729 N2732 1.384 . S
C2730 H2721 0.929 . S
C2730 C2722 1.378 . S
C2730 C2725 1.350 . S
C2731 H2718 0.929 . S
C2731 C2723 1.433 . S
C2731 N2733 1.384 . S
N2732 C2728 1.427 . S
N2732 C2729 1.384 . S
N2733 C2725 1.427 . S
N2733 C2731 1.384 . S
H2734 C2740 0.930 . S
H2735 C2744 0.930 . S
H2736 C2749 0.929 . S
H2737 C2747 0.929 . S
H2738 C2742 0.929 . S
H2739 C2748 0.929 . S
C2740 H2734 0.930 . S
C2740 C2741 1.367 . S
C2740 C2748 1.378 . S
C2741 C2740 1.367 . S
C2741 C2749 1.433 1_565 S
C2742 H2738 0.929 . S
C2742 C2744 1.378 . S
C2742 C2746 1.350 . S
C2743 C2746 1.463 1_564 S
C2743 C2748 1.350 . S
C2743 N2751 1.427 1_565 S
C2744 H2735 0.930 . S
C2744 C2742 1.378 . S
C2744 C2745 1.367 . S
C2745 C2744 1.367 . S
C2745 C2747 1.433 1_545 S
C2746 C2742 1.350 . S
C2746 C2743 1.463 1_546 S
C2746 N2750 1.427 1_545 S
C2747 H2737 0.929 . S
C2747 C2745 1.433 1_565 S
C2747 N2750 1.384 . S
C2748 H2739 0.929 . S
C2748 C2740 1.378 . S
C2748 C2743 1.350 . S
C2749 H2736 0.929 . S
C2749 C2741 1.433 1_545 S
C2749 N2751 1.384 . S
N2750 C2746 1.427 1_565 S
N2750 C2747 1.384 . S
N2751 C2743 1.427 1_545 S
N2751 C2749 1.384 . S
C1031 C2 1.902 . S
C1035 C802 1.902 . S
C1049 C770 1.864 . S
C1053 C38 1.859 . S
C1067 C866 1.865 . S
C1071 C66 1.860 . S
C1085 C102 1.901 . S
C1089 C838 1.901 . S
C1103 C134 1.901 . S
C1107 C934 1.901 . S
C1121 C162 1.865 . S
C1125 C902 1.860 . S
C1139 C194 1.865 . S
C1143 C998 1.859 . S
C1157 C962 1.901 . S
C1161 C226 1.902 . S
C1175 C258 1.866 . S
C1179 C546 1.860 . S
C1193 C290 1.902 . S
C1197 C518 1.902 . S
C1211 C326 1.902 . S
C1215 C610 1.901 . S
C1229 C582 1.866 . S
C1233 C358 1.860 . S
C1247 C390 1.865 . S
C1251 C674 1.860 . S
C1265 C422 1.901 . S
C1269 C646 1.901 . S
C1283 C738 1.901 . S
C1287 C450 1.901 . S
C1301 C482 1.865 . S
C1305 C706 1.860 . S
C1319 N13 1.454 . S
C1323 N114 1.449 . S
C1337 N50 1.460 . S
C1341 N77 1.465 . S
C1355 N237 1.462 . S
C1359 N146 1.459 . S
C1373 N205 1.465 . S
C1377 N173 1.463 . S
C1391 N269 1.457 . S
C1395 N370 1.458 1_545 S
C1409 N301 1.452 . S
C1413 N338 1.446 . S
C1427 N402 1.451 . S
C1431 N493 1.453 1_565 S
C1445 N461 1.445 . S
C1449 N434 1.451 . S
C1463 N530 1.461 . S
C1467 N621 1.454 . S
C1481 N557 1.459 . S
C1485 N594 1.453 . S
C1499 N749 1.451 . S
C1503 N658 1.450 . S
C1517 N685 1.454 . S
C1521 N717 1.453 . S
C1535 N877 1.458 . S
C1539 N781 1.459 1_545 S
C1553 N813 1.451 . S
C1557 N850 1.457 . S
C1571 N1010 1.450 . S
C1575 N914 1.451 1_565 S
C1589 N973 1.446 . S
C1593 N946 1.453 . S
C1607 C36 1.115 . S
C1611 C29 1.116 . S
C1625 C93 1.111 . S
C1629 C100 1.112 . S
C1643 C189 1.113 . S
C1647 C132 1.114 . S
C1661 C253 1.113 . S
C1665 C221 1.114 . S
C1679 C285 1.152 . S
C1683 C317 1.159 . S
C1697 C324 1.150 . S
C1701 C356 1.156 . S
C1715 C420 1.151 . S
C1719 C388 1.156 . S
C1733 C477 1.154 . S
C1737 C509 1.160 . S
C1751 C516 1.111 . S
C1755 C573 1.111 . S
C1769 C637 1.115 . S
C1773 C580 1.114 . S
C1787 C644 1.112 . S
C1791 C701 1.111 . S
C1805 C733 1.115 . S
C1809 C765 1.114 . S
C1823 C797 1.150 . S
C1827 C829 1.157 . S
C1841 C836 1.150 . S
C1845 C893 1.156 . S
C1859 C932 1.152 . S
C1863 C900 1.159 . S
C1877 C989 1.155 . S
C1881 C996 1.160 . S
C1895 C4 1.429 . S
C1899 C6 1.429 . S
C1913 C61 1.430 . S
C1917 C34 1.429 1_655 S
C1931 C68 1.429 . S
C1935 C70 1.429 . S
C1949 C98 1.430 1_655 S
C1953 C125 1.427 . S
C1967 C130 1.430 . S
C1971 C157 1.428 . S
C1985 C164 1.429 . S
C1989 C166 1.429 1_455 S
C2003 C198 1.430 . S
C2007 C196 1.428 . S
C2021 C230 1.429 1_455 S
C2025 C228 1.429 . S
C2039 C262 1.430 . S
C2043 C260 1.428 . S
C2057 C292 1.428 . S
C2061 C294 1.429 1_655 S
C2075 C349 1.428 . S
C2079 C322 1.429 . S
C2093 C354 1.430 1_655 S
C2097 C381 1.428 . S
C2111 C386 1.430 . S
C2115 C413 1.428 . S
C2129 C445 1.428 . S
C2133 C418 1.429 1_455 S
C2147 C452 1.429 . S
C2151 C454 1.429 . S
C2165 C486 1.428 1_465 S
C2169 C484 1.430 . S
C2183 C541 1.427 . S
C2187 C514 1.430 . S
C2201 C550 1.429 . S
C2205 C548 1.430 1_455 S
C2219 C578 1.429 . S
C2223 C605 1.429 . S
C2237 C612 1.429 1_455 S
C2241 C614 1.429 . S
C2255 C669 1.428 . S
C2259 C642 1.429 . S
C2273 C676 1.429 1_655 S
C2277 C678 1.429 . S
C2291 C710 1.429 . S
C2295 C708 1.430 . S
C2309 C740 1.428 1_655 S
C2313 C742 1.429 . S
C2327 C774 1.428 1_545 S
C2331 C772 1.430 . S
C2345 C804 1.428 1_455 S
C2349 C806 1.429 . S
C2363 C834 1.429 . S
C2367 C861 1.429 . S
C2381 C870 1.430 . S
C2385 C868 1.428 1_455 S
C2399 C925 1.428 . S
C2403 C898 1.429 . S
C2417 C957 1.428 1_655 S
C2421 C930 1.429 . S
C2435 C966 1.429 . S
C2439 C964 1.429 . S
C2453 C994 1.428 1_565 S
C2457 C1021 1.429 1_655 S
C2471 N18 1.478 1_655 S
C2475 N141 1.478 1_455 S
C2489 N941 1.487 . S
C2493 N45 1.487 . S
C2507 N466 1.479 1_455 S
C2511 N82 1.479 1_655 S
C2525 N109 1.478 . S
C2529 N754 1.478 . S
C2543 N178 1.486 . S
C2547 N818 1.486 . S
C2561 N210 1.484 1_455 S
C2565 N333 1.484 1_655 S
C2579 N242 1.489 . S
C2583 N626 1.489 . S
C2597 N274 1.493 1_655 S
C2601 N397 1.492 1_455 S
C2615 N690 1.477 . S
C2619 N306 1.477 . S
C2633 N1005 1.492 . S
C2637 N365 1.490 . S
C2651 N429 1.486 . S
C2655 N562 1.486 . S
C2669 N882 1.482 . S
C2673 N498 1.480 . S
C2687 N525 1.478 . S
C2691 N653 1.478 . S
C2705 N978 1.472 . S
C2709 N589 1.472 . S
C2723 N722 1.475 . S
C2727 N845 1.475 . S
C2741 N786 1.498 . S
C2745 N909 1.497 . S
