# Generated by pormake.
# Topology qtz-x, (6)-cn, num edge types: 1
# Building blocks:
#     Node 0, Type 0, BuildingBlock: NUHQIS_clean_sbu_0, # of connection points: 6
#     Node 1, Type 0, BuildingBlock: NUHQIS_clean_sbu_0, # of connection points: 6
#     Node 2, Type 0, BuildingBlock: NUHQIS_clean_sbu_0, # of connection points: 6
#     Edge 3, Type (0, 0), BuildingBlock: UVAHIK_clean_linker_0, # of connection points: 2
#     Edge 4, Type (0, 0), BuildingBlock: UVAHIK_clean_linker_0, # of connection points: 2
#     Edge 5, Type (0, 0), BuildingBlock: UVAHIK_clean_linker_0, # of connection points: 2
#     Edge 6, Type (0, 0), BuildingBlock: UVAHIK_clean_linker_0, # of connection points: 2
#     Edge 7, Type (0, 0), BuildingBlock: UVAHIK_clean_linker_0, # of connection points: 2
#     Edge 8, Type (0, 0), BuildingBlock: UVAHIK_clean_linker_0, # of connection points: 2
#     Edge 9, Type (0, 0), BuildingBlock: UVAHIK_clean_linker_0, # of connection points: 2
#     Edge 10, Type (0, 0), BuildingBlock: UVAHIK_clean_linker_0, # of connection points: 2
#     Edge 11, Type (0, 0), BuildingBlock: UVAHIK_clean_linker_0, # of connection points: 2
# Relax obj value: 0.186
# Max RMSD: 0.239
# Mean RMSD: 0.226
data_MOF--net-qtz-x--node1-NUHQIS_clean_sbu_0--edge1-UVAHIK_clean_linker_0
_symmetry_space_group_name_H-M    P1
_symmetry_Int_Tables_number       1
_symmetry_cell_setting            triclinic
loop_
_symmetry_equiv_pos_as_xyz
'x, y, z'
_cell_length_a     19.697417
_cell_length_b     65.191306
_cell_length_c     0.71642881
_cell_angle_alpha  109.53537
_cell_angle_beta   120.77626
_cell_angle_gamma 19.80713
loop_
_atom_site_label
_atom_site_type_symbol
_atom_site_fract_x
_atom_site_fract_y
_atom_site_fract_z
_atom_type_partial_charge
Tb0 Tb 0.20987 0.20474 22.08431 0.0
Eu1 Eu -0.9895 0.30239 20.54667 0.0
C2 C -1.28132 0.35533 21.33445 0.0
C3 C -0.17733 0.30697 16.38741 0.0
C4 C 0.59862 0.06589 26.13011 0.0
C5 C 0.82804 -0.01634 29.10631 0.0
C6 C 0.63638 0.03603 26.65559 0.0
C7 C 0.75727 0.04201 28.06831 0.0
C8 C 0.9475 -0.00991 30.51436 0.0
C9 C 0.98332 -0.03914 31.07107 0.0
C10 C 0.38401 0.12507 23.61853 0.0
O11 O 0.5251 0.13669 22.92894 0.0
O12 O -0.71492 0.21487 19.75766 0.0
O13 O -0.68167 0.23083 24.73683 0.0
O14 O -0.67583 0.19789 25.57084 0.0
C15 C -0.50196 0.15013 21.3402 0.0
O16 O -0.91113 0.31176 20.38677 0.0
O17 O -1.29358 0.40519 18.82422 0.0
O18 O -1.18717 0.3494 21.93681 0.0
O19 O -0.18289 0.31249 20.72029 0.0
O20 O 0.01906 0.24559 18.04168 0.0
O21 O -1.24369 0.34303 17.03781 0.0
C22 C -0.61398 0.20223 26.31789 0.0
O23 O 0.19509 0.1858 23.47948 0.0
O24 O 0.44261 0.11598 22.48213 0.0
C25 C -1.2515 0.41191 16.73093 0.0
C26 C -1.4454 0.47306 12.30294 0.0
C27 C -1.37008 0.46989 14.50747 0.0
C28 C -1.27414 0.4396 16.70164 0.0
C29 C -1.32536 0.41464 14.54397 0.0
C30 C -1.4222 0.44514 12.34578 0.0
C31 C -1.1502 0.3801 19.04418 0.0
H32 H 0.8494 -0.03737 29.47804 0.0
H33 H 0.51439 0.05421 25.18438 0.0
H34 H 0.7311 0.06443 27.6977 0.0
H35 H 1.06595 -0.02696 31.97393 0.0
H36 H -1.38822 0.49162 14.5284 0.0
H37 H -1.21808 0.43793 18.37459 0.0
H38 H -1.30764 0.39306 14.53983 0.0
H39 H -1.47542 0.44594 10.6913 0.0
Tb40 Tb 3.02761 -0.5662 62.53518 0.0
Eu41 Eu 0.497 0.07308 61.2231 0.0
C42 C 3.3552 -0.63198 61.91467 0.0
C43 C 2.82884 -0.53168 56.96258 0.0
C44 C 2.74208 -0.46606 65.73007 0.0
C45 C 2.6771 -0.42676 68.7649 0.0
C46 C 2.6674 -0.42681 66.69095 0.0
C47 C 2.82039 -0.50389 66.82004 0.0
C48 C 2.82842 -0.50348 68.88267 0.0
C49 C 2.76125 -0.46592 69.90356 0.0
C50 C 2.76554 -0.47366 63.79361 0.0
O51 O 2.9125 -0.56961 61.37396 0.0
O52 O 0.39056 0.08101 62.46305 0.0
O53 O 0.7521 0.02066 65.45469 0.0
O54 O 3.33485 -0.65739 65.88681 0.0
C55 C 3.06459 -0.62636 61.92609 0.0
O56 O 0.59339 0.0155 59.80652 0.0
O57 O 0.80078 -0.01087 60.8877 0.0
O58 O 3.35609 -0.65101 60.49061 0.0
O59 O 3.29086 -0.61367 63.33083 0.0
O60 O 2.84235 -0.51828 58.67551 0.0
O61 O 2.99271 -0.59067 57.59758 0.0
C62 C 3.57647 -0.72275 66.85412 0.0
O63 O 2.9887 -0.52683 64.67251 0.0
O64 O 2.67901 -0.46866 61.94343 0.0
C65 C 0.68946 -0.00937 57.22768 0.0
C66 C 0.51864 0.01796 52.23535 0.0
C67 C 0.72805 -0.04615 54.16664 0.0
C68 C 0.81202 -0.05954 56.64287 0.0
C69 C 0.48684 0.05349 55.32792 0.0
C70 C 0.40238 0.06701 52.85622 0.0
C71 C 0.75 -0.01821 59.72009 0.0
H72 H 2.62239 -0.39693 69.50216 0.0
H73 H 2.60901 -0.39792 65.88509 0.0
H74 H 2.88301 -0.53551 66.12732 0.0
H75 H 2.897 -0.53481 69.74125 0.0
H76 H 0.81989 -0.08467 53.74612 0.0
H77 H 0.96644 -0.10791 58.08053 0.0
H78 H 0.38831 0.09316 55.7413 0.0
H79 H 0.2428 0.11648 51.42153 0.0
Tb80 Tb 2.49775 -0.41428 98.53251 0.0
Eu81 Eu 2.91811 -0.49961 99.11714 0.0
C82 C 2.47832 -0.3596 99.26569 0.0
C83 C 2.38571 -0.37981 93.66368 0.0
C84 C 2.28036 -0.38539 100.5224 0.0
C85 C 2.15819 -0.36453 102.56568 0.0
C86 C 2.09105 -0.34007 100.56659 0.0
C87 C 2.5371 -0.45564 102.47207 0.0
C88 C 2.60423 -0.48006 104.464 0.0
C89 C 2.41599 -0.4346 104.55598 0.0
C90 C 2.21464 -0.35885 98.58038 0.0
O91 O 2.8186 -0.5199 99.40731 0.0
O92 O 2.92862 -0.53791 97.46867 0.0
O93 O 3.12557 -0.56036 102.87802 0.0
O94 O 2.77522 -0.47194 102.54241 0.0
C95 C 2.92696 -0.55211 98.33756 0.0
O96 O 3.28959 -0.59482 100.09441 0.0
O97 O 3.01231 -0.49648 98.77577 0.0
O98 O 2.72441 -0.42406 100.47941 0.0
O99 O 2.34519 -0.34276 97.83375 0.0
O100 O 2.34321 -0.37956 94.62983 0.0
O101 O 2.57177 -0.41435 95.05639 0.0
C102 C 3.0219 -0.53408 103.8859 0.0
O103 O 2.2413 -0.34478 99.27712 0.0
O104 O 2.31269 -0.39431 97.43227 0.0
C105 C 3.25169 -0.56953 97.30463 0.0
C106 C 3.22195 -0.56492 93.103 0.0
C107 C 3.24994 -0.59105 93.80506 0.0
C108 C 3.26289 -0.59289 95.87228 0.0
C109 C 3.23599 -0.54658 96.68383 0.0
C110 C 3.22069 -0.54412 94.59974 0.0
C111 C 3.2253 -0.56092 99.23843 0.0
H112 H 4.9061 -1.09415 102.59377 0.0
H113 H 4.78935 -1.0516 99.09011 0.0
H114 H 2.68627 -0.49134 102.47965 0.0
H115 H 2.80411 -0.53451 105.94427 0.0
H116 H 3.25662 -0.60879 92.72535 0.0
H117 H 3.2733 -0.61047 96.29452 0.0
H118 H 2.21914 -0.52773 97.7493 0.0
H119 H 2.1911 -0.52304 94.1011 0.0
C120 C -1.66062 0.47274 20.9806 0.0
C121 C -1.50021 0.41252 21.28679 0.0
C122 C 1.03052 -0.23929 20.95684 0.0
C123 C 1.63437 -0.17052 20.3482 0.0
H124 H 0.43898 -0.06611 23.17153 0.0
C125 C 0.91946 0.02505 22.39488 0.0
C126 C -0.28311 0.09173 21.35223 0.0
C127 C 1.12474 -0.02993 22.37174 0.0
C128 C 0.48966 -0.09473 22.36909 0.0
H129 H -0.42245 0.36127 21.82253 0.0
H130 H -0.77545 0.4542 21.89486 0.0
H131 H 0.80066 -0.16198 23.21883 0.0
H132 H -0.41888 0.15303 19.49093 0.0
H133 H -0.05603 0.05624 19.51721 0.0
H134 H 1.32649 -0.10408 19.58863 0.0
C135 C -0.74779 0.46094 21.5927 0.0
C136 C 0.69581 -0.14941 22.37723 0.0
C137 C -0.54426 0.40738 21.56706 0.0
C138 C -0.27007 0.10225 20.30401 0.0
C139 C -0.06246 0.04694 20.32618 0.0
C140 C 1.43088 -0.11659 20.38445 0.0
C141 C 0.9827 -0.24469 21.29197 0.0
C142 C 0.76687 -0.18766 21.3429 0.0
C143 C 0.13332 -0.0195 21.35187 0.0
C144 C 0.35282 -0.07788 21.37417 0.0
H145 H -1.62892 0.47855 20.72727 0.0
H146 H 0.90762 -0.19296 20.65343 0.0
H147 H 1.67999 -0.19783 19.4983 0.0
H148 H 0.91373 0.01553 23.20415 0.0
H149 H 1.27434 -0.08087 23.18333 0.0
C150 C 0.26448 0.07856 62.93406 0.0
C151 C 2.98504 -0.62475 61.95688 0.0
C152 C 0.19114 0.07936 62.93232 0.0
C153 C 2.58757 -0.57694 62.38134 0.0
H154 H -0.02475 0.05889 60.96395 0.0
C155 C 3.45521 -0.63879 60.12643 0.0
C156 C 3.42596 -0.63058 61.91339 0.0
C157 C 3.51776 -0.6363 60.09558 0.0
C158 C -0.1084 0.09614 61.33756 0.0
H159 H 2.59279 -0.5118 60.22993 0.0
H160 H 2.46303 -0.51026 60.17559 0.0
H161 H 0.08809 0.06189 60.90515 0.0
H162 H 3.44131 -0.61379 65.08355 0.0
H163 H 2.5511 -0.61121 65.07215 0.0
H164 H 2.38491 -0.54124 62.7371 0.0
C165 C 2.65958 -0.56028 60.9813 0.0
C166 C -0.04075 0.09719 61.33974 0.0
C167 C 2.73364 -0.56113 61.00017 0.0
C168 C 3.46145 -0.62004 63.67551 0.0
C169 C 2.52031 -0.61806 63.65647 0.0
C170 C 2.51861 -0.5777 62.36443 0.0
C171 C 2.83596 -0.62313 61.93482 0.0
C172 C 2.7581 -0.62273 61.87696 0.0
C173 C 2.54898 -0.62607 61.86443 0.0
C174 C 2.61919 -0.62443 61.85197 0.0
H175 H 0.46046 0.0285 63.71255 0.0
H176 H 0.33357 0.02981 63.73337 0.0
H177 H 2.50991 -0.54114 62.82528 0.0
H178 H 0.52986 0.11969 58.72724 0.0
H179 H 0.63687 0.12459 58.66222 0.0
C180 C 1.45064 -0.31346 100.09123 0.0
C181 C 2.34739 -0.30461 99.43529 0.0
C182 C 4.21672 -1.02569 100.11723 0.0
C183 C 3.7388 -0.87323 100.79346 0.0
H184 H 3.58554 -0.80031 96.36729 0.0
C185 C 3.02014 -0.61485 98.60893 0.0
C186 C 3.0724 -0.61035 98.36257 0.0
C187 C 3.16736 -0.67217 98.77501 0.0
C188 C 3.63026 -0.82073 97.64716 0.0
H189 H 4.91971 -1.00034 98.38776 0.0
H190 H 3.68721 -0.90655 98.48978 0.0
H191 H 3.84909 -0.90188 96.78178 0.0
H192 H 3.31863 -0.66178 98.10434 0.0
H193 H 3.58198 -0.76317 98.48927 0.0
H194 H 3.52658 -0.79368 101.71943 0.0
C195 C 3.87231 -0.95486 98.95553 0.0
C196 C 3.78015 -0.87863 97.8736 0.0
C197 C 5.00664 -1.00816 98.88268 0.0
C198 C 3.27276 -0.66369 98.26589 0.0
C199 C 3.423 -0.72165 98.47841 0.0
C200 C 3.59264 -0.81609 100.60396 0.0
C201 C 3.97783 -0.96298 99.53761 0.0
C202 C 3.83293 -0.90469 99.42697 0.0
C203 C 3.37262 -0.72668 98.74526 0.0
C204 C 3.53421 -0.78868 99.00527 0.0
H205 H 1.6338 -0.3612 100.51988 0.0
H206 H 4.30097 -1.03278 100.57807 0.0
H207 H 3.77955 -0.89312 102.01575 0.0
H208 H 2.86518 -0.57402 98.66986 0.0
H209 H 3.11955 -0.67356 98.91961 0.0
C210 C 2.69791 -0.50392 109.21111 0.0
C211 C 2.49028 -0.45995 106.76774 0.0
C212 C 2.77068 -0.52848 111.30054 0.0
C213 C 2.72712 -0.5609 113.19781 0.0
H214 H -1.79975 0.62286 4.93878 0.0
C215 C -1.75749 0.54914 7.60862 0.0
C216 C -1.54652 0.50505 9.97431 0.0
C217 C -1.85333 0.57959 5.42393 0.0
C218 C 2.88136 -0.5687 117.60697 0.0
H219 H 2.19603 -0.40726 104.6084 0.0
H220 H 2.32139 -0.44953 108.27146 0.0
H221 H 2.78563 -0.52107 115.54665 0.0
H222 H -1.26731 0.45712 11.88983 0.0
H223 H -1.43325 0.50984 8.08585 0.0
H224 H 2.8251 -0.60914 115.26958 0.0
C225 C 2.4292 -0.46547 108.5618 0.0
C226 C 2.7944 -0.5404 115.46417 0.0
C227 C 2.35585 -0.4407 106.46626 0.0
C228 C -1.43275 0.49179 10.10272 0.0
C229 C -1.52814 0.52209 7.92074 0.0
C230 C 2.81448 -0.58932 115.34514 0.0
C231 C 2.63757 -0.50966 111.00355 0.0
C232 C 2.71847 -0.53675 113.24091 0.0
C233 C -1.74014 0.56657 5.55493 0.0
C234 C 2.89486 -0.59414 117.58291 0.0
H235 H 2.80352 -0.51899 109.51491 0.0
H236 H 2.93376 -0.56305 113.15085 0.0
H237 H 2.6728 -0.55959 111.52446 0.0
H238 H -1.85142 0.5611 7.4491 0.0
H239 H -2.01877 0.61427 3.6367 0.0
C240 C 2.62632 -0.49605 52.38876 0.0
C241 C 2.63443 -0.48109 54.26503 0.0
C242 C 2.45013 -0.4496 49.85741 0.0
C243 C 2.05247 -0.30762 45.84537 0.0
H244 H 1.67922 -0.26177 40.57361 0.0
C245 C 1.20467 -0.082 35.70104 0.0
C246 C 1.17655 -0.09151 33.70708 0.0
C247 C 1.38564 -0.13087 38.18291 0.0
C248 C 1.78428 -0.27471 42.01831 0.0
H249 H 2.46055 -0.40489 54.93608 0.0
H250 H 2.1532 -0.32397 50.5326 0.0
H251 H 1.98878 -0.34458 44.94795 0.0
H252 H 1.31785 -0.16017 32.76323 0.0
H253 H 1.63616 -0.24605 37.1062 0.0
H254 H 1.85002 -0.23826 42.93107 0.0
C255 C 2.28506 -0.37201 51.02041 0.0
C256 C 1.96145 -0.32211 44.5262 0.0
C257 C 2.46043 -0.41826 53.54626 0.0
C258 C 1.33315 -0.15099 34.25509 0.0
C259 C 1.51527 -0.20014 36.74413 0.0
C260 C 1.8764 -0.26052 43.34221 0.0
C261 C 2.27884 -0.3873 49.14731 0.0
C262 C 2.0959 -0.33861 46.47077 0.0
C263 C 1.5442 -0.19076 38.74075 0.0
C264 C 1.73821 -0.24292 41.39666 0.0
H265 H 2.75836 -0.54413 52.87431 0.0
H266 H 2.45182 -0.46322 48.46303 0.0
H267 H 2.15647 -0.32025 47.29286 0.0
H268 H 1.08378 -0.03608 35.34049 0.0
H269 H 1.39862 -0.12111 39.66339 0.0
C270 C 2.2968 -0.3537 89.77532 0.0
C271 C 2.21819 -0.33965 90.89029 0.0
C272 C 2.13858 -0.31534 87.16826 0.0
C273 C 1.46825 -0.14527 81.61553 0.0
H274 H 1.72523 -0.23675 77.81524 0.0
C275 C 3.68515 -0.75382 70.82114 0.0
C276 C 0.86847 -0.00537 69.56879 0.0
C277 C 0.95911 -0.03093 73.3969 0.0
C278 C 1.6508 -0.21017 78.84807 0.0
H279 H 1.91146 -0.27433 90.12766 0.0
H280 H 1.63324 -0.20652 85.57225 0.0
H281 H 2.01075 -0.30731 82.3538 0.0
H282 H 1.19369 -0.08297 70.04196 0.0
H283 H 1.49301 -0.15781 74.57744 0.0
H284 H 4.0084 -0.81431 78.15624 0.0
C285 C 1.81809 -0.24747 86.72499 0.0
C286 C 1.81447 -0.25073 81.44921 0.0
C287 C 1.97792 -0.28653 89.33176 0.0
C288 C 1.12613 -0.06808 70.95235 0.0
C289 C 1.29771 -0.11108 73.55189 0.0
C290 C 1.30569 -0.10473 79.0274 0.0
C291 C 1.89655 -0.26138 85.61598 0.0
C292 C 1.72428 -0.21869 82.85642 0.0
C293 C 1.21568 -0.09267 74.8149 0.0
C294 C 1.39355 -0.13652 77.59673 0.0
H295 H 2.48131 -0.39453 90.91629 0.0
H296 H 2.2036 -0.32696 86.37168 0.0
H297 H 4.29156 -0.8851 82.65639 0.0
H298 H 3.48868 -0.70639 69.80846 0.0
H299 H 3.78644 -0.78186 74.27224 0.0
C300 C 3.07455 -0.54242 107.81543 0.0
C301 C 3.18534 -0.57449 106.63024 0.0
C302 C 3.22694 -0.57954 110.40862 0.0
C303 C 3.85485 -0.75413 115.93777 0.0
H304 H -1.02633 0.52793 5.26028 0.0
C305 C -0.21996 0.29564 12.54442 0.0
C306 C -0.33329 0.33677 13.67792 0.0
C307 C -0.36746 0.3274 9.91316 0.0
C308 C -0.98571 0.50268 4.27386 0.0
H309 H 3.54384 -0.67169 107.23642 0.0
H310 H 3.81025 -0.73681 111.78032 0.0
H311 H 3.45157 -0.60518 115.06367 0.0
H312 H -0.68932 0.44187 12.99485 0.0
H313 H -0.94859 0.49668 8.43871 0.0
H314 H -0.58553 0.35424 5.14448 0.0
C315 C 3.60503 -0.68271 110.6887 0.0
C316 C 3.60308 -0.65606 116.01032 0.0
C317 C 3.45242 -0.64524 108.09299 0.0
C318 C -0.59745 0.40917 12.15827 0.0
C319 C -0.74525 0.44059 9.54412 0.0
C320 C -0.73564 0.40486 4.21051 0.0
C321 C 3.49348 -0.64986 111.87317 0.0
C322 C 3.65313 -0.6874 114.64331 0.0
C323 C -0.63147 0.40069 8.37692 0.0
C324 C -0.78637 0.43641 5.58612 0.0
H325 H 2.86965 -0.4882 106.74841 0.0
H326 H 3.1362 -0.55319 111.274 0.0
H327 H 3.89646 -0.77926 114.92048 0.0
H328 H -0.01575 0.2397 13.6841 0.0
H329 H -0.27224 0.29486 9.09228 0.0
C330 C -0.41171 0.1829 29.91736 0.0
C331 C -0.47428 0.1771 29.02671 0.0
C332 C -0.29131 0.16233 32.45261 0.0
C333 C -0.20708 0.13767 37.97609 0.0
H334 H 0.33862 0.03616 41.72038 0.0
C335 C 0.14686 0.10259 47.6724 0.0
C336 C 0.41182 0.03548 49.56455 0.0
C337 C 0.04488 0.11863 45.17497 0.0
C338 C 0.18731 0.06418 40.70227 0.0
H339 H -0.45188 0.14307 30.13315 0.0
H340 H -0.24224 0.1073 34.54043 0.0
H341 H 0.1562 0.06408 37.36232 0.0
H342 H 0.77707 -0.06692 50.30201 0.0
H343 H 0.5985 -0.03894 45.93056 0.0
H344 H -0.17556 0.1375 41.30972 0.0
C345 C -0.28932 0.1286 33.27113 0.0
C346 C 0.0814 0.08071 38.20165 0.0
C347 C -0.4086 0.14886 30.74287 0.0
C348 C 0.5723 -0.01492 48.89139 0.0
C349 C 0.46998 0.00129 46.38572 0.0
C350 C -0.10252 0.12158 40.46598 0.0
C351 C -0.23172 0.13579 34.15038 0.0
C352 C -0.11678 0.11755 36.81247 0.0
C353 C 0.20514 0.06806 44.50409 0.0
C354 C 0.09566 0.08472 41.85812 0.0
H355 H -0.45905 0.20431 28.65174 0.0
H356 H -0.25103 0.16899 33.06895 0.0
H357 H -0.36134 0.16676 36.94969 0.0
H358 H 0.01782 0.14241 48.12874 0.0
H359 H -0.16003 0.17079 43.76579 0.0
C360 C 3.02497 -0.53194 88.57286 0.0
C361 C 3.1793 -0.55562 90.7406 0.0
C362 C 2.9775 -0.52102 86.32572 0.0
C363 C 3.21727 -0.56544 83.74691 0.0
H364 H 2.54615 -0.40753 77.4419 0.0
C365 C 2.91313 -0.48356 74.21753 0.0
C366 C 2.79244 -0.47078 72.23012 0.0
C367 C 2.95506 -0.49186 76.46583 0.0
C368 C 2.73481 -0.45207 79.18797 0.0
H369 H 2.40077 -0.58687 92.24017 0.0
H370 H 2.31119 -0.56563 88.29364 0.0
H371 H 2.63134 -0.42618 81.4034 0.0
H372 H 2.61622 -0.45518 71.01386 0.0
H373 H 2.68856 -0.46938 74.9472 0.0
H374 H 3.31888 -0.59063 81.51764 0.0
C375 C 3.23599 -0.55668 88.34566 0.0
C376 C 2.78419 -0.46297 81.45854 0.0
C377 C 3.28502 -0.5681 90.60252 0.0
C378 C 2.71076 -0.46532 72.52028 0.0
C379 C 2.7505 -0.47294 74.76115 0.0
C380 C 3.16708 -0.55416 81.47567 0.0
C381 C 3.08096 -0.53281 86.17719 0.0
C382 C 3.02666 -0.52012 83.76627 0.0
C383 C 2.87513 -0.48692 76.76378 0.0
C384 C 2.92589 -0.49765 79.17383 0.0
H385 H 2.93668 -0.52061 88.59426 0.0
H386 H 2.86033 -0.50361 84.70601 0.0
H387 H 3.40712 -0.61056 85.48333 0.0
H388 H 2.98052 -0.48877 74.05597 0.0
H389 H 3.04981 -0.50206 77.97198 0.0
loop_
_geom_bond_atom_site_label_1
_geom_bond_atom_site_label_2
_geom_bond_distance
_geom_bond_site_symmetry_2
_ccdc_geom_bond_type
Tb0 C10 2.825 . S
Tb0 O11 2.347 . S
Tb0 O14 2.366 1_655 S
Tb0 O19 2.418 . S
Tb0 O20 2.384 . S
Tb0 O23 2.479 . S
Tb0 O24 2.471 . S
Eu1 O12 2.418 . S
Eu1 O13 2.384 . S
Eu1 O16 2.479 . S
Eu1 O17 2.471 . S
Eu1 O18 2.347 . S
Eu1 O21 2.366 1_455 S
Eu1 C31 2.825 . S
C2 O18 1.259 1_655 S
C2 O19 1.265 . S
C3 O20 1.255 . S
C3 O21 1.265 . S
C4 C6 1.380 . S
C4 C7 1.374 . S
C4 C10 1.507 . S
C5 C6 1.384 . S
C5 C9 1.387 . S
C5 H32 0.930 . S
C6 C4 1.380 . S
C6 C5 1.384 . S
C6 H33 0.931 . S
C7 C4 1.374 . S
C7 C8 1.390 . S
C7 H34 0.930 . S
C8 C7 1.390 . S
C8 C9 1.391 . S
C8 H35 0.930 . S
C9 C5 1.387 . S
C9 C8 1.391 . S
C10 Tb0 2.825 . S
C10 C4 1.507 . S
C10 O23 1.238 . S
C10 O24 1.247 . S
O11 Tb0 2.347 . S
O11 C15 1.259 1_655 S
O12 Eu1 2.418 . S
O12 C15 1.265 . S
O13 Eu1 2.384 . S
O13 C22 1.255 . S
O14 Tb0 2.366 1_455 S
O14 C22 1.265 . S
C15 O11 1.259 1_455 S
C15 O12 1.265 . S
O16 Eu1 2.479 . S
O16 C31 1.238 . S
O17 Eu1 2.471 . S
O17 C31 1.247 . S
O18 Eu1 2.347 . S
O18 C2 1.259 1_455 S
O19 Tb0 2.418 . S
O19 C2 1.265 . S
O20 Tb0 2.384 . S
O20 C3 1.255 . S
O21 Eu1 2.366 1_655 S
O21 C3 1.265 . S
C22 O13 1.255 . S
C22 O14 1.265 . S
O23 Tb0 2.479 . S
O23 C10 1.238 . S
O24 Tb0 2.471 . S
O24 C10 1.247 . S
C25 C28 1.380 . S
C25 C29 1.374 . S
C25 C31 1.507 . S
C26 C27 1.387 . S
C26 C30 1.391 . S
C27 C26 1.387 . S
C27 C28 1.384 . S
C27 H36 0.930 . S
C28 C25 1.380 . S
C28 C27 1.384 . S
C28 H37 0.931 . S
C29 C25 1.374 . S
C29 C30 1.390 . S
C29 H38 0.930 . S
C30 C26 1.391 . S
C30 C29 1.390 . S
C30 H39 0.930 . S
C31 Eu1 2.825 . S
C31 O16 1.238 . S
C31 O17 1.247 . S
C31 C25 1.507 . S
H32 C5 0.930 . S
H33 C6 0.931 . S
H34 C7 0.930 . S
H35 C8 0.930 . S
H36 C27 0.930 . S
H37 C28 0.931 . S
H38 C29 0.930 . S
H39 C30 0.930 . S
Tb40 C50 2.825 . S
Tb40 O51 2.347 . S
Tb40 O54 2.366 . S
Tb40 O59 2.418 . S
Tb40 O60 2.384 . S
Tb40 O63 2.479 . S
Tb40 O64 2.471 . S
Eu41 O52 2.418 . S
Eu41 O53 2.384 . S
Eu41 O56 2.479 . S
Eu41 O57 2.471 . S
Eu41 O58 2.347 . S
Eu41 O61 2.366 1_565 S
Eu41 C71 2.825 . S
C42 O58 1.259 1_545 S
C42 O59 1.265 . S
C43 O60 1.255 . S
C43 O61 1.265 . S
C44 C46 1.380 . S
C44 C47 1.374 . S
C44 C50 1.507 . S
C45 C46 1.384 . S
C45 C49 1.387 . S
C45 H72 0.930 . S
C46 C44 1.380 . S
C46 C45 1.384 . S
C46 H73 0.931 . S
C47 C44 1.374 . S
C47 C48 1.390 . S
C47 H74 0.930 . S
C48 C47 1.390 . S
C48 C49 1.391 . S
C48 H75 0.930 . S
C49 C45 1.387 . S
C49 C48 1.391 . S
C50 Tb40 2.825 . S
C50 C44 1.507 . S
C50 O63 1.238 . S
C50 O64 1.247 . S
O51 Tb40 2.347 . S
O51 C55 1.259 1_545 S
O52 Eu41 2.418 . S
O52 C55 1.265 . S
O53 Eu41 2.384 . S
O53 C62 1.255 . S
O54 Tb40 2.366 . S
O54 C62 1.265 1_545 S
C55 O51 1.259 1_565 S
C55 O52 1.265 . S
O56 Eu41 2.479 . S
O56 C71 1.238 . S
O57 Eu41 2.471 . S
O57 C71 1.247 . S
O58 Eu41 2.347 . S
O58 C42 1.259 1_565 S
O59 Tb40 2.418 . S
O59 C42 1.265 . S
O60 Tb40 2.384 . S
O60 C43 1.255 . S
O61 Eu41 2.366 1_545 S
O61 C43 1.265 . S
C62 O53 1.255 . S
C62 O54 1.265 1_565 S
O63 Tb40 2.479 . S
O63 C50 1.238 . S
O64 Tb40 2.471 . S
O64 C50 1.247 . S
C65 C68 1.380 . S
C65 C69 1.374 . S
C65 C71 1.507 . S
C66 C67 1.387 . S
C66 C70 1.391 . S
C67 C66 1.387 . S
C67 C68 1.384 . S
C67 H76 0.930 . S
C68 C65 1.380 . S
C68 C67 1.384 . S
C68 H77 0.931 . S
C69 C65 1.374 . S
C69 C70 1.390 . S
C69 H78 0.930 . S
C70 C66 1.391 . S
C70 C69 1.390 . S
C70 H79 0.930 . S
C71 Eu41 2.825 . S
C71 O56 1.238 . S
C71 O57 1.247 . S
C71 C65 1.507 . S
H72 C45 0.930 . S
H73 C46 0.931 . S
H74 C47 0.930 . S
H75 C48 0.930 . S
H76 C67 0.930 . S
H77 C68 0.931 . S
H78 C69 0.930 . S
H79 C70 0.930 . S
Tb80 C90 2.825 . S
Tb80 O91 2.347 . S
Tb80 O94 2.366 . S
Tb80 O99 2.418 1_565 S
Tb80 O100 2.384 . S
Tb80 O103 2.479 . S
Tb80 O104 2.471 . S
Eu81 O92 2.418 . S
Eu81 O93 2.384 . S
Eu81 O96 2.479 . S
Eu81 O97 2.471 . S
Eu81 O98 2.347 . S
Eu81 O101 2.366 . S
Eu81 C111 2.825 . S
C82 O98 1.259 . S
C82 O99 1.265 1_565 S
C83 O100 1.255 . S
C83 O101 1.265 . S
C84 C86 1.380 1_565 S
C84 C87 1.374 . S
C84 C90 1.507 . S
C85 C86 1.384 . S
C85 C89 1.387 1_545 S
C85 H112 0.930 . S
C86 C84 1.380 1_545 S
C86 C85 1.384 . S
C86 H113 0.931 . S
C87 C84 1.374 . S
C87 C88 1.390 . S
C87 H114 0.930 . S
C88 C87 1.390 . S
C88 C89 1.391 . S
C88 H115 0.930 . S
C89 C85 1.387 1_565 S
C89 C88 1.391 . S
C90 Tb80 2.825 . S
C90 C84 1.507 . S
C90 O103 1.238 . S
C90 O104 1.247 . S
O91 Tb80 2.347 . S
O91 C95 1.259 . S
O92 Eu81 2.418 . S
O92 C95 1.265 . S
O93 Eu81 2.384 . S
O93 C102 1.255 . S
O94 Tb80 2.366 . S
O94 C102 1.265 . S
C95 O91 1.259 . S
C95 O92 1.265 . S
O96 Eu81 2.479 . S
O96 C111 1.238 . S
O97 Eu81 2.471 . S
O97 C111 1.247 . S
O98 Eu81 2.347 . S
O98 C82 1.259 . S
O99 Tb80 2.418 1_545 S
O99 C82 1.265 1_545 S
O100 Tb80 2.384 . S
O100 C83 1.255 . S
O101 Eu81 2.366 . S
O101 C83 1.265 . S
C102 O93 1.255 . S
C102 O94 1.265 . S
O103 Tb80 2.479 . S
O103 C90 1.238 . S
O104 Tb80 2.471 . S
O104 C90 1.247 . S
C105 C108 1.380 . S
C105 C109 1.374 . S
C105 C111 1.507 . S
C106 C107 1.387 . S
C106 C110 1.391 . S
C107 C106 1.387 . S
C107 C108 1.384 . S
C107 H116 0.930 . S
C108 C105 1.380 . S
C108 C107 1.384 . S
C108 H117 0.931 . S
C109 C105 1.374 . S
C109 C110 1.390 . S
C109 H118 0.930 . S
C110 C106 1.391 . S
C110 C109 1.390 . S
C110 H119 0.930 1_655 S
C111 Eu81 2.825 . S
C111 O96 1.238 . S
C111 O97 1.247 . S
C111 C105 1.507 . S
H112 C85 0.930 . S
H113 C86 0.931 . S
H114 C87 0.930 . S
H115 C88 0.930 . S
H116 C107 0.930 . S
H117 C108 0.931 . S
H118 C109 0.930 . S
H119 C110 0.930 1_455 S
C120 C121 1.349 . S
C120 C122 1.327 . S
C120 H145 0.950 . S
C121 C120 1.349 . S
C121 C137 1.349 1_455 S
C122 C120 1.327 . S
C122 C141 1.429 . S
C122 H146 0.950 1_565 S
C123 C140 1.574 . S
C123 C142 1.368 1_655 S
C123 H147 0.957 . S
H124 C128 0.949 . S
C125 C126 1.349 . S
C125 C127 1.327 . S
C125 H148 0.950 . S
C126 C125 1.349 . S
C126 C138 1.349 1_655 S
C127 C125 1.327 . S
C127 C143 1.429 . S
C127 H149 0.950 . S
C128 H124 0.949 . S
C128 C136 1.574 . S
C128 C144 1.368 1_455 S
H129 C137 0.950 . S
H130 C135 0.950 . S
H131 C136 0.949 . S
H132 C138 0.950 . S
H133 C139 0.950 . S
H134 C140 0.949 . S
C135 H130 0.950 . S
C135 C137 1.327 . S
C135 C141 1.429 1_655 S
C136 C128 1.574 . S
C136 H131 0.949 . S
C136 C142 1.368 . S
C137 C121 1.349 1_655 S
C137 H129 0.950 . S
C137 C135 1.327 . S
C138 C126 1.349 1_455 S
C138 H132 0.950 . S
C138 C139 1.327 . S
C139 H133 0.950 . S
C139 C138 1.327 . S
C139 C143 1.429 1_455 S
C140 C123 1.574 . S
C140 H134 0.949 . S
C140 C144 1.368 . S
C141 C122 1.429 . S
C141 C135 1.429 1_455 S
C141 C142 1.523 1_565 S
C142 C123 1.368 1_455 S
C142 C136 1.368 . S
C142 C141 1.523 1_545 S
C143 C127 1.429 . S
C143 C139 1.429 1_655 S
C143 C144 1.523 . S
C144 C128 1.368 1_655 S
C144 C140 1.368 . S
C144 C143 1.523 . S
H145 C120 0.950 . S
H146 C122 0.950 1_545 S
H147 C123 0.957 . S
H148 C125 0.950 . S
H149 C127 0.950 . S
C150 C151 1.349 1_565 S
C150 C152 1.327 . S
C150 H175 0.950 . S
C151 C150 1.349 1_545 S
C151 C167 1.349 . S
C152 C150 1.327 . S
C152 C171 1.429 1_565 S
C152 H176 0.950 . S
C153 C170 1.574 . S
C153 C172 1.368 . S
C153 H177 0.949 . S
H154 C158 0.949 . S
C155 C156 1.349 1_545 S
C155 C157 1.327 1_655 S
C155 H178 0.950 . S
C156 C155 1.349 1_565 S
C156 C168 1.349 . S
C157 C155 1.327 1_455 S
C157 C173 1.429 . S
C157 H179 0.950 . S
C158 H154 0.949 . S
C158 C166 1.574 . S
C158 C174 1.368 1_565 S
H159 C167 0.950 . S
H160 C165 0.950 . S
H161 C166 0.949 . S
H162 C168 0.950 . S
H163 C169 0.950 . S
H164 C170 0.949 . S
C165 H160 0.950 . S
C165 C167 1.327 . S
C165 C171 1.429 . S
C166 C158 1.574 . S
C166 H161 0.949 . S
C166 C172 1.368 1_565 S
C167 C151 1.349 . S
C167 H159 0.950 . S
C167 C165 1.327 . S
C168 C156 1.349 . S
C168 H162 0.950 . S
C168 C169 1.327 . S
C169 H163 0.950 . S
C169 C168 1.327 . S
C169 C173 1.429 1_665 S
C170 C153 1.574 . S
C170 H164 0.949 . S
C170 C174 1.368 . S
C171 C152 1.429 1_545 S
C171 C165 1.429 . S
C171 C172 1.523 . S
C172 C153 1.368 . S
C172 C166 1.368 1_545 S
C172 C171 1.523 . S
C173 C157 1.429 . S
C173 C169 1.429 1_445 S
C173 C174 1.523 . S
C174 C158 1.368 1_545 S
C174 C170 1.368 . S
C174 C173 1.523 . S
H175 C150 0.950 . S
H176 C152 0.950 . S
H177 C153 0.949 . S
H178 C155 0.950 . S
H179 C157 0.950 . S
C180 C181 1.352 . S
C180 C182 1.327 . S
C180 H205 0.950 . S
C181 C180 1.352 . S
C181 C197 1.349 . S
C182 C180 1.327 . S
C182 C201 1.429 . S
C182 H206 0.950 . S
C183 C200 1.574 . S
C183 C202 1.368 . S
C183 H207 0.949 . S
H184 C188 0.949 . S
C185 C186 1.349 . S
C185 C187 1.327 . S
C185 H208 0.950 . S
C186 C185 1.349 . S
C186 C198 1.349 . S
C187 C185 1.327 . S
C187 C203 1.429 . S
C187 H209 0.950 . S
C188 H184 0.949 . S
C188 C196 1.574 . S
C188 C204 1.368 . S
H189 C197 0.950 1_655 S
H190 C195 0.950 . S
H191 C196 0.949 . S
H192 C198 0.950 . S
H193 C199 0.950 . S
H194 C200 0.949 . S
C195 H190 0.950 . S
C195 C197 1.327 . S
C195 C201 1.429 . S
C196 C188 1.574 . S
C196 H191 0.949 . S
C196 C202 1.368 . S
C197 C181 1.349 . S
C197 H189 0.950 1_455 S
C197 C195 1.327 . S
C198 C186 1.349 . S
C198 H192 0.950 . S
C198 C199 1.327 . S
C199 H193 0.950 . S
C199 C198 1.327 . S
C199 C203 1.429 . S
C200 C183 1.574 . S
C200 H194 0.949 . S
C200 C204 1.368 . S
C201 C182 1.429 . S
C201 C195 1.429 . S
C201 C202 1.523 . S
C202 C183 1.368 . S
C202 C196 1.368 . S
C202 C201 1.523 . S
C203 C187 1.429 . S
C203 C199 1.429 . S
C203 C204 1.523 . S
C204 C188 1.368 . S
C204 C200 1.368 . S
C204 C203 1.523 . S
H205 C180 0.950 . S
H206 C182 0.950 . S
H207 C183 0.949 . S
H208 C185 0.950 . S
H209 C187 0.950 . S
C210 C211 1.349 . S
C210 C212 1.327 . S
C210 H235 0.950 . S
C211 C210 1.349 . S
C211 C227 1.349 . S
C212 C210 1.327 . S
C212 C231 1.429 . S
C212 H236 0.950 . S
C213 C230 1.574 . S
C213 C232 1.368 . S
C213 H237 0.949 1_565 S
H214 C218 0.949 . S
C215 C216 1.349 . S
C215 C217 1.327 . S
C215 H238 0.950 . S
C216 C215 1.349 . S
C216 C228 1.349 . S
C217 C215 1.327 . S
C217 C233 1.429 . S
C217 H239 0.950 1_565 S
C218 H214 0.949 . S
C218 C226 1.574 1_554 S
C218 C234 1.368 1_554 S
H219 C227 0.950 1_545 S
H220 C225 0.950 1_545 S
H221 C226 0.949 . S
H222 C228 0.950 . S
H223 C229 0.950 . S
H224 C230 0.949 1_545 S
C225 H220 0.950 1_565 S
C225 C227 1.327 . S
C225 C231 1.429 . S
C226 C218 1.574 1_556 S
C226 H221 0.949 . S
C226 C232 1.368 . S
C227 C211 1.349 . S
C227 H219 0.950 1_565 S
C227 C225 1.327 . S
C228 C216 1.349 . S
C228 H222 0.950 . S
C228 C229 1.327 . S
C229 H223 0.950 . S
C229 C228 1.327 . S
C229 C233 1.429 . S
C230 C213 1.574 . S
C230 H224 0.949 1_565 S
C230 C234 1.368 . S
C231 C212 1.429 . S
C231 C225 1.429 . S
C231 C232 1.523 . S
C232 C213 1.368 . S
C232 C226 1.368 . S
C232 C231 1.523 . S
C233 C217 1.429 . S
C233 C229 1.429 . S
C233 C234 1.523 1_554 S
C234 C218 1.368 1_556 S
C234 C230 1.368 . S
C234 C233 1.523 1_556 S
H235 C210 0.950 . S
H236 C212 0.950 . S
H237 C213 0.949 1_545 S
H238 C215 0.950 . S
H239 C217 0.950 1_545 S
C240 C241 1.349 . S
C240 C242 1.327 . S
C240 H265 0.950 . S
C241 C240 1.349 . S
C241 C257 1.349 . S
C242 C240 1.327 . S
C242 C261 1.429 . S
C242 H266 0.950 . S
C243 C260 1.574 . S
C243 C262 1.368 . S
C243 H267 0.949 . S
H244 C248 0.949 . S
C245 C246 1.349 . S
C245 C247 1.327 . S
C245 H268 0.950 . S
C246 C245 1.349 . S
C246 C258 1.349 . S
C247 C245 1.327 . S
C247 C263 1.429 . S
C247 H269 0.950 . S
C248 H244 0.949 . S
C248 C256 1.574 . S
C248 C264 1.368 . S
H249 C257 0.950 . S
H250 C255 0.950 . S
H251 C256 0.949 . S
H252 C258 0.950 . S
H253 C259 0.950 . S
H254 C260 0.949 . S
C255 H250 0.950 . S
C255 C257 1.327 . S
C255 C261 1.429 . S
C256 C248 1.574 . S
C256 H251 0.949 . S
C256 C262 1.368 . S
C257 C241 1.349 . S
C257 H249 0.950 . S
C257 C255 1.327 . S
C258 C246 1.349 . S
C258 H252 0.950 . S
C258 C259 1.327 . S
C259 H253 0.950 . S
C259 C258 1.327 . S
C259 C263 1.429 . S
C260 C243 1.574 . S
C260 H254 0.949 . S
C260 C264 1.368 . S
C261 C242 1.429 . S
C261 C255 1.429 . S
C261 C262 1.523 . S
C262 C243 1.368 . S
C262 C256 1.368 . S
C262 C261 1.523 . S
C263 C247 1.429 . S
C263 C259 1.429 . S
C263 C264 1.523 . S
C264 C248 1.368 . S
C264 C260 1.368 . S
C264 C263 1.523 . S
H265 C240 0.950 . S
H266 C242 0.950 . S
H267 C243 0.949 . S
H268 C245 0.950 . S
H269 C247 0.950 . S
C270 C271 1.349 . S
C270 C272 1.327 . S
C270 H295 0.950 . S
C271 C270 1.349 . S
C271 C287 1.349 . S
C272 C270 1.327 . S
C272 C291 1.429 . S
C272 H296 0.950 . S
C273 C290 1.574 . S
C273 C292 1.368 . S
C273 H297 0.949 . S
H274 C278 0.949 . S
C275 C276 1.349 . S
C275 C277 1.327 . S
C275 H298 0.950 . S
C276 C275 1.349 . S
C276 C288 1.349 . S
C277 C275 1.327 . S
C277 C293 1.429 . S
C277 H299 0.950 . S
C278 H274 0.949 . S
C278 C286 1.574 . S
C278 C294 1.368 . S
H279 C287 0.950 . S
H280 C285 0.950 . S
H281 C286 0.949 . S
H282 C288 0.950 . S
H283 C289 0.950 . S
H284 C290 0.949 . S
C285 H280 0.950 . S
C285 C287 1.327 . S
C285 C291 1.429 . S
C286 C278 1.574 . S
C286 H281 0.949 . S
C286 C292 1.368 . S
C287 C271 1.349 . S
C287 H279 0.950 . S
C287 C285 1.327 . S
C288 C276 1.349 . S
C288 H282 0.950 . S
C288 C289 1.327 . S
C289 H283 0.950 . S
C289 C288 1.327 . S
C289 C293 1.429 . S
C290 C273 1.574 . S
C290 H284 0.949 . S
C290 C294 1.368 . S
C291 C272 1.429 . S
C291 C285 1.429 . S
C291 C292 1.523 . S
C292 C273 1.368 . S
C292 C286 1.368 . S
C292 C291 1.523 . S
C293 C277 1.429 . S
C293 C289 1.429 . S
C293 C294 1.523 . S
C294 C278 1.368 . S
C294 C290 1.368 . S
C294 C293 1.523 . S
H295 C270 0.950 . S
H296 C272 0.950 . S
H297 C273 0.949 . S
H298 C275 0.950 . S
H299 C277 0.950 . S
C300 C301 1.349 . S
C300 C302 1.327 . S
C300 H325 0.950 . S
C301 C300 1.349 . S
C301 C317 1.349 . S
C302 C300 1.327 . S
C302 C321 1.429 . S
C302 H326 0.950 . S
C303 C320 1.574 1_556 S
C303 C322 1.368 . S
C303 H327 0.949 . S
H304 C308 0.949 . S
C305 C306 1.349 . S
C305 C307 1.327 . S
C305 H328 0.950 . S
C306 C305 1.349 . S
C306 C318 1.349 . S
C307 C305 1.327 . S
C307 C323 1.429 . S
C307 H329 0.950 . S
C308 H304 0.949 . S
C308 C316 1.574 1_554 S
C308 C324 1.368 . S
H309 C317 0.950 . S
H310 C315 0.950 . S
H311 C316 0.949 . S
H312 C318 0.950 . S
H313 C319 0.950 . S
H314 C320 0.949 . S
C315 H310 0.950 . S
C315 C317 1.327 . S
C315 C321 1.429 . S
C316 C308 1.574 1_556 S
C316 H311 0.949 . S
C316 C322 1.368 . S
C317 C301 1.349 . S
C317 H309 0.950 . S
C317 C315 1.327 . S
C318 C306 1.349 . S
C318 H312 0.950 . S
C318 C319 1.327 . S
C319 H313 0.950 . S
C319 C318 1.327 . S
C319 C323 1.429 . S
C320 C303 1.574 1_554 S
C320 H314 0.949 . S
C320 C324 1.368 . S
C321 C302 1.429 . S
C321 C315 1.429 . S
C321 C322 1.523 . S
C322 C303 1.368 . S
C322 C316 1.368 . S
C322 C321 1.523 . S
C323 C307 1.429 . S
C323 C319 1.429 . S
C323 C324 1.523 . S
C324 C308 1.368 . S
C324 C320 1.368 . S
C324 C323 1.523 . S
H325 C300 0.950 . S
H326 C302 0.950 . S
H327 C303 0.949 . S
H328 C305 0.950 . S
H329 C307 0.950 . S
C330 C331 1.349 . S
C330 C332 1.327 . S
C330 H355 0.950 . S
C331 C330 1.349 . S
C331 C347 1.349 . S
C332 C330 1.327 . S
C332 C351 1.429 . S
C332 H356 0.950 . S
C333 C350 1.574 . S
C333 C352 1.368 . S
C333 H357 0.949 . S
H334 C338 0.949 . S
C335 C336 1.349 . S
C335 C337 1.327 . S
C335 H358 0.950 . S
C336 C335 1.349 . S
C336 C348 1.349 . S
C337 C335 1.327 . S
C337 C353 1.429 . S
C337 H359 0.950 . S
C338 H334 0.949 . S
C338 C346 1.574 . S
C338 C354 1.368 . S
H339 C347 0.950 . S
H340 C345 0.950 . S
H341 C346 0.949 . S
H342 C348 0.950 . S
H343 C349 0.950 . S
H344 C350 0.949 . S
C345 H340 0.950 . S
C345 C347 1.327 . S
C345 C351 1.429 . S
C346 C338 1.574 . S
C346 H341 0.949 . S
C346 C352 1.368 . S
C347 C331 1.349 . S
C347 H339 0.950 . S
C347 C345 1.327 . S
C348 C336 1.349 . S
C348 H342 0.950 . S
C348 C349 1.327 . S
C349 H343 0.950 . S
C349 C348 1.327 . S
C349 C353 1.429 . S
C350 C333 1.574 . S
C350 H344 0.949 . S
C350 C354 1.368 . S
C351 C332 1.429 . S
C351 C345 1.429 . S
C351 C352 1.523 . S
C352 C333 1.368 . S
C352 C346 1.368 . S
C352 C351 1.523 . S
C353 C337 1.429 . S
C353 C349 1.429 . S
C353 C354 1.523 . S
C354 C338 1.368 . S
C354 C350 1.368 . S
C354 C353 1.523 . S
H355 C330 0.950 . S
H356 C332 0.950 . S
H357 C333 0.949 . S
H358 C335 0.950 . S
H359 C337 0.950 . S
C360 C361 1.349 . S
C360 C362 1.327 . S
C360 H385 0.950 . S
C361 C360 1.349 . S
C361 C377 1.349 1_655 S
C362 C360 1.327 . S
C362 C381 1.429 . S
C362 H386 0.950 . S
C363 C380 1.574 . S
C363 C382 1.368 . S
C363 H387 0.949 1_655 S
H364 C368 0.949 . S
C365 C366 1.349 . S
C365 C367 1.327 . S
C365 H388 0.950 . S
C366 C365 1.349 . S
C366 C378 1.349 . S
C367 C365 1.327 . S
C367 C383 1.429 . S
C367 H389 0.950 . S
C368 H364 0.949 . S
C368 C376 1.574 . S
C368 C384 1.368 . S
H369 C377 0.950 . S
H370 C375 0.950 . S
H371 C376 0.949 . S
H372 C378 0.950 . S
H373 C379 0.950 . S
H374 C380 0.949 . S
C375 H370 0.950 . S
C375 C377 1.327 . S
C375 C381 1.429 1_455 S
C376 C368 1.574 . S
C376 H371 0.949 . S
C376 C382 1.368 . S
C377 C361 1.349 1_455 S
C377 H369 0.950 . S
C377 C375 1.327 . S
C378 C366 1.349 . S
C378 H372 0.950 . S
C378 C379 1.327 . S
C379 H373 0.950 . S
C379 C378 1.327 . S
C379 C383 1.429 . S
C380 C363 1.574 . S
C380 H374 0.949 . S
C380 C384 1.368 . S
C381 C362 1.429 . S
C381 C375 1.429 1_655 S
C381 C382 1.523 . S
C382 C363 1.368 . S
C382 C376 1.368 . S
C382 C381 1.523 . S
C383 C367 1.429 . S
C383 C379 1.429 . S
C383 C384 1.523 . S
C384 C368 1.368 . S
C384 C380 1.368 . S
C384 C383 1.523 . S
H385 C360 0.950 . S
H386 C362 0.950 . S
H387 C363 0.949 1_455 S
H388 C365 0.950 . S
H389 C367 0.950 . S
C121 C2 1.346 1_455 S
C126 C15 1.346 1_655 S
C151 C55 1.416 1_545 S
C156 C42 1.416 1_565 S
C181 C82 1.198 1_445 S
C186 C95 1.203 . S
C211 C89 0.905 . S
C216 C26 0.892 . S
C241 C43 1.729 . S
C246 C9 1.714 . S
C271 C83 2.245 . S
C276 C62 2.232 . S
C301 C102 2.191 . S
C306 C3 2.162 . S
C331 C22 1.614 . S
C336 C66 1.548 . S
C361 C106 0.926 . S
C366 C49 0.944 . S
