# Generated by pormake.
# Topology wjd, (6)-cn, num edge types: 1
# Building blocks:
#     Node 0, Type 0, BuildingBlock: MAKGUD_clean_sbu_1, # of connection points: 6
#     Node 1, Type 0, BuildingBlock: MAKGUD_clean_sbu_1, # of connection points: 6
#     Node 2, Type 0, BuildingBlock: MAKGUD_clean_sbu_1, # of connection points: 6
#     Node 3, Type 0, BuildingBlock: MAKGUD_clean_sbu_1, # of connection points: 6
#     Node 4, Type 0, BuildingBlock: MAKGUD_clean_sbu_1, # of connection points: 6
#     Node 5, Type 0, BuildingBlock: MAKGUD_clean_sbu_1, # of connection points: 6
#     Node 6, Type 0, BuildingBlock: MAKGUD_clean_sbu_1, # of connection points: 6
#     Node 7, Type 0, BuildingBlock: MAKGUD_clean_sbu_1, # of connection points: 6
#     Node 8, Type 0, BuildingBlock: MAKGUD_clean_sbu_1, # of connection points: 6
#     Node 9, Type 0, BuildingBlock: MAKGUD_clean_sbu_1, # of connection points: 6
#     Node 10, Type 0, BuildingBlock: MAKGUD_clean_sbu_1, # of connection points: 6
#     Node 11, Type 0, BuildingBlock: MAKGUD_clean_sbu_1, # of connection points: 6
#     Edge 12, Type (0, 0), BuildingBlock: CIFDUS_clean_linker_0, # of connection points: 2
#     Edge 13, Type (0, 0), BuildingBlock: CIFDUS_clean_linker_0, # of connection points: 2
#     Edge 14, Type (0, 0), BuildingBlock: CIFDUS_clean_linker_0, # of connection points: 2
#     Edge 15, Type (0, 0), BuildingBlock: CIFDUS_clean_linker_0, # of connection points: 2
#     Edge 16, Type (0, 0), BuildingBlock: CIFDUS_clean_linker_0, # of connection points: 2
#     Edge 17, Type (0, 0), BuildingBlock: CIFDUS_clean_linker_0, # of connection points: 2
#     Edge 18, Type (0, 0), BuildingBlock: CIFDUS_clean_linker_0, # of connection points: 2
#     Edge 19, Type (0, 0), BuildingBlock: CIFDUS_clean_linker_0, # of connection points: 2
#     Edge 20, Type (0, 0), BuildingBlock: CIFDUS_clean_linker_0, # of connection points: 2
#     Edge 21, Type (0, 0), BuildingBlock: CIFDUS_clean_linker_0, # of connection points: 2
#     Edge 22, Type (0, 0), BuildingBlock: CIFDUS_clean_linker_0, # of connection points: 2
#     Edge 23, Type (0, 0), BuildingBlock: CIFDUS_clean_linker_0, # of connection points: 2
#     Edge 24, Type (0, 0), BuildingBlock: CIFDUS_clean_linker_0, # of connection points: 2
#     Edge 25, Type (0, 0), BuildingBlock: CIFDUS_clean_linker_0, # of connection points: 2
#     Edge 26, Type (0, 0), BuildingBlock: CIFDUS_clean_linker_0, # of connection points: 2
#     Edge 27, Type (0, 0), BuildingBlock: CIFDUS_clean_linker_0, # of connection points: 2
#     Edge 28, Type (0, 0), BuildingBlock: CIFDUS_clean_linker_0, # of connection points: 2
#     Edge 29, Type (0, 0), BuildingBlock: CIFDUS_clean_linker_0, # of connection points: 2
#     Edge 30, Type (0, 0), BuildingBlock: CIFDUS_clean_linker_0, # of connection points: 2
#     Edge 31, Type (0, 0), BuildingBlock: CIFDUS_clean_linker_0, # of connection points: 2
#     Edge 32, Type (0, 0), BuildingBlock: CIFDUS_clean_linker_0, # of connection points: 2
#     Edge 33, Type (0, 0), BuildingBlock: CIFDUS_clean_linker_0, # of connection points: 2
#     Edge 34, Type (0, 0), BuildingBlock: CIFDUS_clean_linker_0, # of connection points: 2
#     Edge 35, Type (0, 0), BuildingBlock: CIFDUS_clean_linker_0, # of connection points: 2
#     Edge 36, Type (0, 0), BuildingBlock: CIFDUS_clean_linker_0, # of connection points: 2
#     Edge 37, Type (0, 0), BuildingBlock: CIFDUS_clean_linker_0, # of connection points: 2
#     Edge 38, Type (0, 0), BuildingBlock: CIFDUS_clean_linker_0, # of connection points: 2
#     Edge 39, Type (0, 0), BuildingBlock: CIFDUS_clean_linker_0, # of connection points: 2
#     Edge 40, Type (0, 0), BuildingBlock: CIFDUS_clean_linker_0, # of connection points: 2
#     Edge 41, Type (0, 0), BuildingBlock: CIFDUS_clean_linker_0, # of connection points: 2
#     Edge 42, Type (0, 0), BuildingBlock: CIFDUS_clean_linker_0, # of connection points: 2
#     Edge 43, Type (0, 0), BuildingBlock: CIFDUS_clean_linker_0, # of connection points: 2
#     Edge 44, Type (0, 0), BuildingBlock: CIFDUS_clean_linker_0, # of connection points: 2
#     Edge 45, Type (0, 0), BuildingBlock: CIFDUS_clean_linker_0, # of connection points: 2
#     Edge 46, Type (0, 0), BuildingBlock: CIFDUS_clean_linker_0, # of connection points: 2
#     Edge 47, Type (0, 0), BuildingBlock: CIFDUS_clean_linker_0, # of connection points: 2
# Relax obj value: 0.154
# Max RMSD: 0.287
# Mean RMSD: 0.287
data_MOF--net-wjd--node1-MAKGUD_clean_sbu_1--edge1-CIFDUS_clean_linker_0
_symmetry_space_group_name_H-M    P1
_symmetry_Int_Tables_number       1
_symmetry_cell_setting            triclinic
loop_
_symmetry_equiv_pos_as_xyz
'x, y, z'
_cell_length_a     34.129947
_cell_length_b     34.175489
_cell_length_c     44.129817
_cell_angle_alpha  89.680107
_cell_angle_beta   90.161498
_cell_angle_gamma 120.25698
loop_
_atom_site_label
_atom_site_type_symbol
_atom_site_fract_x
_atom_site_fract_y
_atom_site_fract_z
_atom_type_partial_charge
O0 O 0.5082 0.19576 0.09263 0.0
Tb1 Tb 0.44425 0.17788 0.11541 0.0
C2 C 0.36954 0.15341 0.17158 0.0
O3 O 0.3491 0.14603 0.07854 0.0
Tb4 Tb 0.29624 0.12461 0.11239 0.0
C5 C 0.22474 0.0396 0.10724 0.0
O6 O 0.40257 0.12575 0.08219 0.0
O7 O 0.26352 0.16576 0.11576 0.0
C8 C 0.2404 0.16952 0.09293 0.0
O9 O 0.24271 0.15386 0.06628 0.0
O10 O 0.40981 0.16348 0.15999 0.0
O11 O 0.33092 0.14148 0.15666 0.0
O12 O 0.46784 0.25055 0.11052 0.0
C13 C 0.36424 0.11915 0.07046 0.0
C14 C 0.52534 0.18174 0.11339 0.0
O15 O 0.23687 0.07233 0.08774 0.0
O16 O 0.25432 0.05425 0.12924 0.0
C17 C 0.49552 0.27803 0.13169 0.0
O18 O 0.5014 0.25955 0.15619 0.0
O19 O 0.49627 0.16476 0.13569 0.0
O20 O 0.72236 0.55439 0.42805 0.0
Tb21 Tb 0.77026 0.60947 0.3987 0.0
C22 C 0.81383 0.6781 0.3455 0.0
O23 O 0.83324 0.72191 0.43751 0.0
Tb24 Tb 0.86399 0.75453 0.39418 0.0
C25 C 0.84916 0.82277 0.3788 0.0
O26 O 0.76264 0.65656 0.42913 0.0
O27 O 0.93692 0.78981 0.40286 0.0
C28 C 0.95374 0.8168 0.42641 0.0
O29 O 0.92544 0.81844 0.4458 0.0
O30 O 0.77747 0.64002 0.35386 0.0
O31 O 0.84817 0.69714 0.36455 0.0
O32 O 0.81946 0.58567 0.40177 0.0
C33 C 0.78949 0.69539 0.44335 0.0
C34 C 0.69269 0.53042 0.4075 0.0
O35 O 0.83856 0.80103 0.40452 0.0
O36 O 0.86543 0.8039 0.36114 0.0
C37 C 0.82261 0.56297 0.37854 0.0
O38 O 0.80267 0.56303 0.35305 0.0
O39 O 0.70628 0.55152 0.38156 0.0
O40 O 0.87316 0.3386 0.09939 0.0
Tb41 Tb 0.87833 0.27955 0.11375 0.0
C42 C 0.9148 0.22817 0.16547 0.0
O43 O 0.91307 0.22257 0.0836 0.0
Tb44 Tb 0.94051 0.18535 0.10521 0.0
C45 C 1.02643 0.20626 0.09463 0.0
O46 O 0.92709 0.29291 0.07738 0.0
O47 O 0.89886 0.11138 0.10308 0.0
C48 C 0.89765 0.08999 0.07798 0.0
O49 O 0.91756 0.11421 0.05366 0.0
O50 O 0.89748 0.25267 0.15382 0.0
O51 O 0.9305 0.20472 0.15069 0.0
O52 O 0.80456 0.23464 0.10871 0.0
C53 C 0.93743 0.26205 0.0705 0.0
C54 C 0.88338 0.35945 0.12522 0.0
O55 O 0.99615 0.19905 0.07395 0.0
O56 O 1.00865 0.20354 0.12119 0.0
C57 C 0.77901 0.22549 0.1332 0.0
O58 O 0.7995 0.23804 0.15958 0.0
O59 O 0.89165 0.33558 0.14458 0.0
O60 O 0.4886 0.16331 0.4225 0.0
Tb61 Tb 0.43617 0.17103 0.39926 0.0
C62 C 0.35261 0.13285 0.35262 0.0
O63 O 0.33927 0.13529 0.42346 0.0
Tb64 Tb 0.27373 0.10105 0.40063 0.0
C65 C 0.21044 1.01345 0.40688 0.0
O66 O 0.40312 0.14412 0.44333 0.0
O67 O 0.2379 0.13901 0.39702 0.0
C68 C 0.21321 0.14056 0.41945 0.0
O69 O 0.21355 0.12238 0.44569 0.0
O70 O 0.37446 0.12322 0.37366 0.0
O71 O 0.30903 0.1195 0.3569 0.0
O72 O 0.46231 0.24383 0.39396 0.0
C73 C 0.35873 0.12534 0.44564 0.0
C74 C 0.50934 0.16091 0.39855 0.0
O75 O 0.22265 0.04433 0.42759 0.0
O76 O 0.23553 0.03162 0.38287 0.0
C77 C 0.49141 0.27155 0.41427 0.0
O78 O 0.49823 0.25378 0.43878 0.0
O79 O 0.48771 0.16261 0.37454 0.0
O80 O 0.7143 0.55516 0.10469 0.0
Tb81 Tb 0.779 0.6122 0.1208 0.0
C82 C 0.82818 0.70087 0.16355 0.0
O83 O 0.83637 0.71019 0.0901 0.0
Tb84 Tb 0.87081 0.77633 0.11249 0.0
C85 C 0.84333 0.837 0.1072 0.0
O86 O 0.77434 0.64362 0.07852 0.0
O87 O 0.94557 0.81554 0.10959 0.0
C88 C 0.96561 0.84022 0.08522 0.0
O89 O 0.93999 0.83666 0.06192 0.0
O90 O 0.797 0.67743 0.14277 0.0
O91 O 0.85834 0.74404 0.15757 0.0
O92 O 0.82783 0.58874 0.11614 0.0
C93 C 0.79839 0.68802 0.07426 0.0
C94 C 0.69787 0.53743 0.13112 0.0
O95 O 0.84504 0.8177 0.13233 0.0
O96 O 0.85478 0.82007 0.08485 0.0
C97 C 0.82969 0.56173 0.13696 0.0
O98 O 0.80813 0.55619 0.16266 0.0
O99 O 0.72666 0.56301 0.15191 0.0
O100 O 0.8459 0.32114 0.4263 0.0
Tb101 Tb 0.86243 0.27291 0.40563 0.0
C102 C 0.90196 0.2309 0.34803 0.0
O103 O 0.90067 0.21476 0.42385 0.0
Tb104 Tb 0.9245 0.17488 0.40145 0.0
C105 C 1.00701 0.18859 0.41456 0.0
O106 O 0.90402 0.27527 0.44409 0.0
O107 O 0.88208 0.10032 0.39964 0.0
C108 C 0.89348 0.07755 0.38081 0.0
O109 O 0.92615 0.10083 0.36123 0.0
O110 O 0.88525 0.25279 0.36398 0.0
O111 O 0.91633 0.20313 0.35837 0.0
O112 O 0.78936 0.2244 0.40418 0.0
C113 C 0.91927 0.24709 0.44415 0.0
C114 C 0.86305 0.3526 0.40565 0.0
O115 O 0.97441 0.17789 0.43404 0.0
O116 O 0.99372 0.19379 0.38783 0.0
C117 C 0.76762 0.22312 0.37905 0.0
O118 O 0.79195 0.24618 0.3555 0.0
O119 O 0.88085 0.33947 0.38467 0.0
O120 O 0.1861 0.48937 0.59845 0.0
Tb121 Tb 0.17605 0.42456 0.61562 0.0
C122 C 0.15098 0.34791 0.67092 0.0
O123 O 0.14208 0.3339 0.57524 0.0
Tb124 Tb 0.12105 0.28173 0.60945 0.0
C125 C 0.03644 0.21083 0.60224 0.0
O126 O 0.11991 0.38449 0.5844 0.0
O127 O 0.1652 0.25282 0.61275 0.0
C128 C 0.17234 0.23385 0.5891 0.0
O129 O 0.15677 0.2372 0.56253 0.0
O130 O 0.16744 0.38944 0.65931 0.0
O131 O 0.13364 0.30908 0.65566 0.0
O132 O 0.24884 0.45302 0.60622 0.0
C133 C 0.11505 0.34956 0.56902 0.0
C134 C 0.17339 0.50114 0.62276 0.0
O135 O 0.07151 0.21996 0.58572 0.0
O136 O 0.04877 0.24258 0.62247 0.0
C137 C 0.27829 0.47766 0.62761 0.0
O138 O 0.26238 0.4778 0.65466 0.0
O139 O 0.1617 0.46944 0.64313 0.0
O140 O 0.35623 0.85885 0.90761 0.0
Tb141 Tb 0.30119 0.86901 0.89052 0.0
C142 C 0.26596 0.9062 0.83818 0.0
O143 O 0.24235 0.92108 0.92674 0.0
Tb144 Tb 0.22302 0.94144 0.8848 0.0
C145 C 0.23241 0.02426 0.88165 0.0
O146 O 0.31146 0.92312 0.92261 0.0
O147 O 0.15034 0.89537 0.87684 0.0
C148 C 0.12124 0.88831 0.89886 0.0
O149 O 0.13741 0.90366 0.92601 0.0
O150 O 0.27351 0.87352 0.8466 0.0
O151 O 0.27493 0.93907 0.85732 0.0
O152 O 0.25559 0.79682 0.90059 0.0
C153 C 0.28505 0.93713 0.93496 0.0
C154 C 0.38151 0.87253 0.8835 0.0
O155 O 0.22953 1.00246 0.90668 0.0
O156 O 0.23146 0.99985 0.85884 0.0
C157 C 0.24328 0.76752 0.87809 0.0
O158 O 0.25365 0.78338 0.85029 0.0
O159 O 0.36183 0.88506 0.86347 0.0
O160 O 0.54778 0.71119 0.60197 0.0
Tb161 Tb 0.61394 0.76532 0.61878 0.0
C162 C 0.69717 0.8206 0.67179 0.0
O163 O 0.7078 0.82764 0.58665 0.0
Tb164 Tb 0.77023 0.86294 0.61216 0.0
C165 C 0.83629 0.84203 0.6069 0.0
O166 O 0.65201 0.75563 0.58245 0.0
O167 O 0.80599 0.93682 0.60544 0.0
C168 C 0.83419 0.9544 0.5823 0.0
O169 O 0.83496 0.92644 0.56233 0.0
O170 O 0.65547 0.7924 0.6608 0.0
O171 O 0.73621 0.84497 0.65661 0.0
O172 O 0.58665 0.81123 0.61336 0.0
C173 C 0.69269 0.78768 0.57434 0.0
C174 C 0.53632 0.68466 0.62547 0.0
O175 O 0.8084 0.83894 0.58564 0.0
O176 O 0.82521 0.85459 0.63168 0.0
C177 C 0.55878 0.81065 0.63449 0.0
O178 O 0.55348 0.78697 0.65927 0.0
O179 O 0.56911 0.70341 0.64527 0.0
O180 O 0.22413 0.50703 0.93204 0.0
Tb181 Tb 0.20141 0.4395 0.91372 0.0
C182 C 0.16727 0.36277 0.8537 0.0
O183 O 0.15741 0.34519 0.93 0.0
Tb184 Tb 0.13583 0.28278 0.907 0.0
C185 C 0.05135 0.21229 0.91192 0.0
O186 O 0.15673 0.40195 0.9517 0.0
O187 O 0.17972 0.25327 0.90974 0.0
C188 C 0.1786 0.22665 0.88779 0.0
O189 O 0.15562 0.22354 0.86309 0.0
O190 O 0.18294 0.40107 0.87001 0.0
O191 O 0.1513 0.32025 0.86385 0.0
O192 O 0.27405 0.46217 0.91609 0.0
C193 C 0.1395 0.35825 0.95095 0.0
C194 C 0.20453 0.51993 0.91239 0.0
O195 O 0.08017 0.23028 0.9342 0.0
O196 O 0.06958 0.23559 0.88725 0.0
C197 C 0.30066 0.48887 0.89419 0.0
O198 O 0.28136 0.49486 0.87019 0.0
O199 O 0.18249 0.48706 0.89314 0.0
O200 O 0.34422 0.86925 0.6023 0.0
Tb201 Tb 0.27756 0.85911 0.6142 0.0
C202 C 0.24216 0.91073 0.65726 0.0
O203 O 0.22641 0.90924 0.58297 0.0
Tb204 Tb 0.197 0.94274 0.60886 0.0
C205 C 0.21487 0.02556 0.59241 0.0
O206 O 0.29135 0.90703 0.57692 0.0
O207 O 0.12384 0.90406 0.61857 0.0
C208 C 0.09318 0.89494 0.59721 0.0
O209 O 0.10673 0.90458 0.56892 0.0
O210 O 0.2324 0.87858 0.63705 0.0
O211 O 0.22721 0.93923 0.65199 0.0
O212 O 0.23687 0.78724 0.60309 0.0
C213 C 0.2678 0.92747 0.57149 0.0
C214 C 0.35828 0.86897 0.62967 0.0
O215 O 0.19518 0.9895 0.57563 0.0
O216 O 0.226 1.01523 0.61826 0.0
C217 C 0.22679 0.75715 0.62495 0.0
O218 O 0.23709 0.77169 0.65294 0.0
O219 O 0.32725 0.86522 0.6489 0.0
O220 O 0.58008 0.70338 0.91609 0.0
Tb221 Tb 0.63569 0.76839 0.89892 0.0
C222 C 0.71995 0.81695 0.85252 0.0
O223 O 0.73408 0.82402 0.92195 0.0
Tb224 Tb 0.80079 0.85994 0.90036 0.0
C225 C 0.86498 0.83633 0.90057 0.0
O226 O 0.66949 0.76932 0.94184 0.0
O227 O 0.8351 0.93297 0.90909 0.0
C228 C 0.86508 0.95103 0.93116 0.0
O229 O 0.87136 0.92403 0.94925 0.0
O230 O 0.69769 0.78447 0.8729 0.0
O231 O 0.76392 0.84642 0.85696 0.0
O232 O 0.61018 0.81586 0.90192 0.0
C233 C 0.71412 0.79461 0.94418 0.0
C234 C 0.56135 0.68674 0.89 0.0
O235 O 0.83782 0.83085 0.923 0.0
O236 O 0.85403 0.85276 0.87744 0.0
C237 C 0.58432 0.81775 0.88022 0.0
O238 O 0.58113 0.79726 0.85446 0.0
O239 O 0.58575 0.71553 0.86882 0.0
H240 H 0.08756 0.21032 0.13651 0.0
H241 H 0.06326 0.2045 0.04026 0.0
H242 H 0.12919 0.19589 0.03104 0.0
H243 H 0.19001 0.18364 0.05053 0.0
H244 H 0.21438 0.18924 0.14684 0.0
H245 H 0.15278 0.20469 0.15573 0.0
C246 C 0.09714 0.20789 0.11349 0.0
C247 C 0.07026 0.20782 0.08911 0.0
C248 C 0.13504 0.20254 0.10836 0.0
C249 C 0.08319 0.20457 0.05944 0.0
C250 C 0.12087 0.19947 0.05416 0.0
C251 C 0.1823 0.18878 0.07348 0.0
C252 C 0.20691 0.18493 0.09798 0.0
C253 C 0.14648 0.19741 0.07847 0.0
C254 C 0.19627 0.19195 0.1275 0.0
C255 C 0.1608 0.20063 0.13263 0.0
H256 H 0.15104 0.97838 0.45358 0.0
H257 H 0.17326 0.94952 0.36232 0.0
H258 H 0.09676 0.883 0.36121 0.0
H259 H 1.02067 0.83784 0.38436 0.0
H260 H 0.99852 0.86935 0.47505 0.0
H261 H 0.07758 0.92957 0.47822 0.0
C262 C 0.13944 0.95705 0.43363 0.0
C263 C 0.16775 0.96898 0.40802 0.0
C264 C 0.09506 0.91951 0.43293 0.0
C265 C 0.15217 0.94105 0.38235 0.0
C266 C 0.10829 0.90315 0.38165 0.0
C267 C 1.03331 0.8574 0.40498 0.0
C268 C 1.00336 0.84916 0.42932 0.0
C269 C 0.07895 0.89274 0.40652 0.0
C270 C 1.02049 0.87503 0.45585 0.0
C271 C 0.06582 0.90961 0.4577 0.0
H272 H 0.86491 0.02988 0.12572 0.0
H273 H 0.89084 0.03755 0.02955 0.0
H274 H 0.87132 0.95843 0.02943 0.0
H275 H 0.85427 0.88898 0.05735 0.0
H276 H 0.82984 0.88131 0.15357 0.0
H277 H 0.84064 0.95772 0.15283 0.0
C278 C 0.86567 1.01411 0.10465 0.0
C279 C 0.8798 0.0401 0.07776 0.0
C280 C 0.85484 0.96837 0.10473 0.0
C281 C 0.88045 1.01877 0.05068 0.0
C282 C 0.86934 0.97338 0.05055 0.0
C283 C 0.85043 0.90371 0.07804 0.0
C284 C 0.84142 0.87947 0.1055 0.0
C285 C 0.85755 0.94812 0.07754 0.0
C286 C 0.83671 0.89915 0.13212 0.0
C287 C 0.84318 0.94303 0.13174 0.0
H288 H 0.16018 0.15117 0.46113 0.0
H289 H 0.19395 0.1685 0.36597 0.0
H290 H 0.13579 0.18871 0.35638 0.0
H291 H 0.07087 0.19547 0.37432 0.0
H292 H 0.03694 0.17751 0.46936 0.0
H293 H 0.09968 0.16413 0.47968 0.0
C294 C 0.1552 0.15981 0.43831 0.0
C295 C 0.18136 0.15787 0.41428 0.0
C296 C 0.12139 0.17118 0.43289 0.0
C297 C 0.17442 0.16952 0.38493 0.0
C298 C 0.14098 0.181 0.37939 0.0
C299 C 0.0777 0.18934 0.39735 0.0
C300 C 0.04907 0.18723 0.42101 0.0
C301 C 0.11364 0.1811 0.40308 0.0
C302 C 0.05831 0.17915 0.45072 0.0
C303 C 0.09414 0.17133 0.45663 0.0
H304 H 0.16393 1.00543 0.06098 0.0
H305 H 0.1843 0.9772 0.15308 0.0
H306 H 0.10692 0.9118 0.1545 0.0
H307 H 1.03094 0.86517 0.13034 0.0
H308 H 1.01292 0.89439 0.03769 0.0
H309 H 0.09113 0.95597 0.03581 0.0
C310 C 0.15167 0.98463 0.08126 0.0
C311 C 0.18003 0.99641 0.10691 0.0
C312 C 0.10704 0.94711 0.08192 0.0
C313 C 0.16342 0.96893 0.13296 0.0
C314 C 0.11896 0.93158 0.13382 0.0
C315 C 0.04424 0.88468 0.10965 0.0
C316 C 1.01534 0.87489 0.08429 0.0
C317 C 0.09003 0.92067 0.10858 0.0
C318 C 0.03371 0.90084 0.05771 0.0
C319 C 0.07872 0.93635 0.05654 0.0
H320 H 0.82604 0.8721 0.41664 0.0
H321 H 0.88144 0.87547 0.3283 0.0
H322 H 0.8973 0.95292 0.32053 0.0
H323 H 0.90067 1.02184 0.33996 0.0
H324 H 0.84504 1.01983 0.42793 0.0
H325 H 0.82369 0.94014 0.43449 0.0
C326 C 0.84089 0.88954 0.39549 0.0
C327 C 0.8525 0.86765 0.37306 0.0
C328 C 0.85019 0.93465 0.39115 0.0
C329 C 0.87197 0.8911 0.34591 0.0
C330 C 0.88126 0.93564 0.34149 0.0
C331 C 0.88339 1.00396 0.36049 0.0
C332 C 0.87474 0.02732 0.38347 0.0
C333 C 0.87131 0.95808 0.36412 0.0
C334 C 0.85207 1.00306 0.40977 0.0
C335 C 0.84006 0.95738 0.4136 0.0
H336 H 0.2325 0.09466 0.63096 0.0
H337 H 0.19568 0.05091 0.53858 0.0
H338 H 0.18452 0.1149 0.52837 0.0
H339 H 0.17714 0.1783 0.5471 0.0
H340 H 0.20892 0.21955 0.64043 0.0
H341 H 0.23022 0.16192 0.64882 0.0
C342 C 0.2229 0.09971 0.60846 0.0
C343 C 0.21518 0.0682 0.58548 0.0
C344 C 0.215 0.13587 0.60304 0.0
C345 C 0.20224 0.07487 0.55655 0.0
C346 C 0.1955 0.11131 0.55076 0.0
C347 C 0.18936 0.17523 0.56919 0.0
C348 C 0.1911 0.20316 0.59314 0.0
C349 C 0.20059 0.14131 0.57405 0.0
C350 C 0.207 0.19846 0.6216 0.0
C351 C 0.21912 0.16539 0.62645 0.0
H352 H 0.05195 0.85539 0.93975 0.0
H353 H 0.07966 0.88275 0.84432 0.0
H354 H 1.00168 0.86582 0.83581 0.0
H355 H 0.92738 0.85023 0.85642 0.0
H356 H 0.90009 0.82143 0.95179 0.0
H357 H 0.97559 0.83158 0.95928 0.0
C358 C 0.04081 0.85701 0.91698 0.0
C359 C 0.07199 0.87068 0.89275 0.0
C360 C 0.99583 0.84724 0.91226 0.0
C361 C 0.0566 0.87223 0.8634 0.0
C362 C 1.01196 0.86281 0.85855 0.0
C363 C 0.9377 0.84536 0.87872 0.0
C364 C 0.90799 0.83522 0.90353 0.0
C365 C 0.98152 0.85128 0.88292 0.0
C366 C 0.92203 0.8291 0.93228 0.0
C367 C 0.96541 0.83514 0.93662 0.0
H368 H 0.85481 0.02316 0.62352 0.0
H369 H 0.89302 0.99713 0.53599 0.0
H370 H 0.9566 0.07422 0.53364 0.0
H371 H 1.0056 0.14768 0.55777 0.0
H372 H 0.96837 0.17608 0.6446 0.0
H373 H 0.90057 0.10031 0.64571 0.0
C374 C 0.87664 0.03455 0.60376 0.0
C375 C 0.86899 1.00375 0.58013 0.0
C376 C 0.9138 0.07958 0.60245 0.0
C377 C 0.89789 1.01952 0.5547 0.0
C378 C 0.93455 0.06383 0.55328 0.0
C379 C 0.98234 0.1375 0.57678 0.0
C380 C 0.99225 0.16746 0.60115 0.0
C381 C 0.94346 0.09389 0.57725 0.0
C382 C 0.96158 0.15376 0.62551 0.0
C383 C 0.92285 0.11027 0.62622 0.0
H384 H 0.19708 0.18236 0.84427 0.0
H385 H 0.2001 0.19972 0.94109 0.0
H386 H 0.21944 0.14022 0.94814 0.0
H387 H 0.22969 0.0786 0.92664 0.0
H388 H 0.22795 0.06379 0.82953 0.0
H389 H 0.21422 0.12667 0.82285 0.0
C390 C 0.2025 0.17357 0.86694 0.0
C391 C 0.19684 0.19543 0.8921 0.0
C392 C 0.2136 0.13933 0.8708 0.0
C393 C 0.20437 0.18369 0.92127 0.0
C394 C 0.21517 0.14938 0.92533 0.0
C395 C 0.2269 0.08961 0.90405 0.0
C396 C 0.22958 0.06619 0.87862 0.0
C397 C 0.21903 0.12627 0.90027 0.0
C398 C 0.22596 0.08099 0.84951 0.0
C399 C 0.21797 0.11698 0.84563 0.0
H400 H 1.02054 0.86349 0.55879 0.0
H401 H 0.05661 0.89171 0.65316 0.0
H402 H 0.97959 0.87475 0.66502 0.0
H403 H 0.90316 0.8575 0.64794 0.0
H404 H 0.86742 0.82841 0.55362 0.0
H405 H 0.94255 0.83965 0.54255 0.0
C406 C 1.01152 0.86548 0.58204 0.0
C407 C 0.04476 0.87923 0.60499 0.0
C408 C 0.96699 0.85563 0.58873 0.0
C409 C 1.03201 0.88124 0.63498 0.0
C410 C 0.98787 0.87169 0.64179 0.0
C411 C 0.91158 0.85287 0.62507 0.0
C412 C 0.87956 0.84221 0.60164 0.0
C413 C 0.95522 0.85961 0.61878 0.0
C414 C 0.89122 0.83651 0.57211 0.0
C415 C 0.93436 0.84316 0.56572 0.0
H416 H 1.01846 0.15225 0.95898 0.0
H417 H 0.98946 0.17128 0.86671 0.0
H418 H 0.926 0.09324 0.86532 0.0
H419 H 0.88341 1.01705 0.88867 0.0
H420 H 0.91539 0.99756 0.98015 0.0
H421 H 0.97219 0.07781 0.98361 0.0
C422 C 0.99774 0.13953 0.93876 0.0
C423 C 1.0088 0.16756 0.91295 0.0
C424 C 0.96189 0.09416 0.93788 0.0
C425 C 0.98172 0.15046 0.88688 0.0
C426 C 0.9455 0.1057 0.88603 0.0
C427 C 0.90229 0.03051 0.90952 0.0
C428 C 0.89516 1.00104 0.93404 0.0
C429 C 0.93593 0.07681 0.91113 0.0
C430 C 0.92026 1.01921 0.96082 0.0
C431 C 0.95291 0.06522 0.96282 0.0
H432 H 0.31814 0.16053 0.30792 0.0
H433 H 0.42431 0.13 0.32509 0.0
H434 H 0.44143 0.13652 0.27059 0.0
H435 H 0.42089 0.14408 0.21712 0.0
H436 H 0.31119 0.17066 0.20225 0.0
H437 H 0.30071 0.17191 0.25646 0.0
C438 C 0.34541 0.15567 0.29993 0.0
C439 C 0.36961 0.14444 0.32076 0.0
C440 C 0.354 0.15804 0.26865 0.0
C441 C 0.40515 0.13885 0.30975 0.0
C442 C 0.41465 0.14216 0.27847 0.0
C443 C 0.39496 0.15049 0.22577 0.0
C444 C 0.36646 0.15656 0.20525 0.0
C445 C 0.38848 0.15063 0.25753 0.0
C446 C 0.33314 0.16495 0.21713 0.0
C447 C 0.32718 0.16594 0.2483 0.0
H448 H 0.7602 0.62953 0.2973 0.0
H449 H 0.88747 0.7495 0.31871 0.0
H450 H 0.90453 0.76458 0.26479 0.0
H451 H 0.88338 0.74457 0.21151 0.0
H452 H 0.755 0.62674 0.18968 0.0
H453 H 0.73914 0.60927 0.24358 0.0
C454 C 0.79162 0.65912 0.29025 0.0
C455 C 0.82244 0.68836 0.31235 0.0
C456 C 0.80147 0.66757 0.259 0.0
C457 C 0.86301 0.72638 0.30247 0.0
C458 C 0.87293 0.73497 0.27153 0.0
C459 C 0.85205 0.71472 0.21841 0.0
C460 C 0.82074 0.68658 0.19617 0.0
C461 C 0.8425 0.70578 0.24959 0.0
C462 C 0.7803 0.64835 0.20593 0.0
C463 C 0.77091 0.63874 0.23691 0.0
H464 H 0.88684 0.2679 0.20817 0.0
H465 H 0.94726 0.1835 0.19995 0.0
H466 H 0.94941 0.17805 0.25467 0.0
H467 H 0.93334 0.19553 0.30511 0.0
H468 H 0.87304 0.27979 0.31419 0.0
H469 H 0.8721 0.28682 0.25923 0.0
C470 C 0.90061 0.24836 0.21822 0.0
C471 C 0.91669 0.22612 0.19939 0.0
C472 C 0.90187 0.24517 0.25012 0.0
C473 C 0.93441 0.20107 0.21335 0.0
C474 C 0.93574 0.19784 0.24487 0.0
C475 C 0.92004 0.21562 0.29528 0.0
C476 C 0.90318 0.2369 0.31427 0.0
C477 C 0.91941 0.21954 0.2635 0.0
C478 C 0.88629 0.26282 0.30056 0.0
C479 C 0.88564 0.26688 0.26894 0.0
H480 H 0.18137 0.41574 0.71383 0.0
H481 H 0.12207 0.27079 0.70508 0.0
H482 H 0.12214 0.26307 0.7598 0.0
H483 H 0.13833 0.29643 0.81038 0.0
H484 H 0.19753 0.44116 0.82001 0.0
H485 H 0.198 0.44943 0.76503 0.0
C486 C 0.16846 0.38238 0.72377 0.0
C487 C 0.15172 0.34399 0.70481 0.0
C488 C 0.16847 0.3779 0.75566 0.0
C489 C 0.13521 0.30119 0.71861 0.0
C490 C 0.13519 0.29659 0.75012 0.0
C491 C 0.15145 0.32996 0.80068 0.0
C492 C 0.16784 0.36804 0.81984 0.0
C493 C 0.15165 0.33463 0.7689 0.0
C494 C 0.18458 0.41101 0.80625 0.0
C495 C 0.1849 0.41586 0.77463 0.0
H496 H 0.26267 0.85302 0.79056 0.0
H497 H 0.26154 0.9759 0.81087 0.0
H498 H 0.25894 0.9901 0.75697 0.0
H499 H 0.25544 0.96737 0.70413 0.0
H500 H 0.25351 0.84341 0.68303 0.0
H501 H 0.26058 0.83086 0.73695 0.0
C502 C 0.26171 0.88287 0.78326 0.0
C503 C 0.26197 0.91317 0.80509 0.0
C504 C 0.26052 0.89111 0.75195 0.0
C505 C 0.26095 0.95172 0.79491 0.0
C506 C 0.25978 0.96007 0.76395 0.0
C507 C 0.25709 0.93777 0.71115 0.0
C508 C 0.25423 0.90647 0.68922 0.0
C509 C 0.25952 0.93003 0.74228 0.0
C510 C 0.25632 0.8684 0.69911 0.0
C511 C 0.25978 0.86095 0.73008 0.0
H512 H 0.64577 0.76144 0.71796 0.0
H513 H 0.7589 0.89601 0.70164 0.0
H514 H 0.77204 0.90799 0.75573 0.0
H515 H 0.75581 0.87936 0.80753 0.0
H516 H 0.64629 0.74388 0.82545 0.0
H517 H 0.62672 0.73381 0.77146 0.0
C518 C 0.67298 0.7935 0.72628 0.0
C519 C 0.70164 0.82747 0.7054 0.0
C520 C 0.68102 0.80021 0.7579 0.0
C521 C 0.73672 0.86882 0.71684 0.0
C522 C 0.74424 0.8759 0.74793 0.0
C523 C 0.72725 0.8477 0.7998 0.0
C524 C 0.70258 0.8125 0.8208 0.0
C525 C 0.71725 0.84164 0.76863 0.0
C526 C 0.66558 0.77188 0.8101 0.0
C527 C 0.65471 0.76591 0.77904 0.0
H528 H 0.25165 0.98703 0.96219 0.0
H529 H 0.36022 0.95718 0.96853 0.0
H530 H 0.39232 1.00844 0.01126 0.0
H531 H 0.39148 0.06341 0.04625 0.0
H532 H 0.28689 0.09846 0.03824 0.0
H533 H 0.25155 0.0437 0.99717 0.0
C534 C 0.28231 0.99169 0.97287 0.0
C535 C 0.30335 0.96804 0.96176 0.0
C536 C 0.30144 1.02226 0.99736 0.0
C537 C 0.34315 0.9748 0.97618 0.0
C538 C 0.36166 1.00422 1.00079 0.0
C539 C 0.3608 0.05904 0.0357 0.0
C540 C 0.34163 0.0848 0.04588 0.0
C541 C 0.34136 0.02838 0.01146 0.0
C542 C 0.30207 0.07868 0.03147 0.0
C543 C 0.28196 0.04749 0.00774 0.0
H544 H 0.81112 0.77896 0.46585 0.0
H545 H 0.7226 0.63573 0.48112 0.0
H546 H 0.68721 0.65162 0.52359 0.0
H547 H 0.67922 0.7058 0.55571 0.0
H548 H 0.76179 0.84887 0.53774 0.0
H549 H 0.8016 0.83363 0.4975 0.0
C550 C 0.78432 0.75124 0.47862 0.0
C551 C 0.76977 0.70611 0.47017 0.0
C552 C 0.76297 0.76065 0.50271 0.0
C553 C 0.73451 0.67074 0.48686 0.0
C554 C 0.71419 0.6798 0.51127 0.0
C555 C 0.70616 0.73375 0.54317 0.0
C556 C 0.7184 0.77862 0.55057 0.0
C557 C 0.7278 0.72457 0.51928 0.0
C558 C 0.75259 0.81414 0.53333 0.0
C559 C 0.77517 0.80537 0.5101 0.0
H560 H 0.13261 0.36085 0.01174 0.0
H561 H 0.05517 0.29297 0.9324 0.0
H562 H 0.98639 0.25154 0.96335 0.0
H563 H 0.94667 0.24103 0.01252 0.0
H564 H 1.02356 0.31537 0.09059 0.0
H565 H 0.09392 0.34762 0.06109 0.0
C566 C 0.10082 0.33612 1.00141 0.0
C567 C 0.09937 0.32829 0.96999 0.0
C568 C 0.06114 0.31402 0.01927 0.0
C569 C 0.05765 0.29758 0.95672 0.0
C570 C 1.01816 0.27457 0.9744 0.0
C571 C 0.97904 0.26352 0.02314 0.0
C572 C 0.98011 0.2754 0.05381 0.0
C573 C 1.01927 0.28315 1.00564 0.0
C574 C 1.02203 0.30544 0.06715 0.0
C575 C 0.0622 0.32403 0.05022 0.0
H576 H 0.39366 0.08831 0.48378 0.0
H577 H 0.27111 0.09067 0.46653 0.0
H578 H 0.22911 0.02581 0.50127 0.0
H579 H 0.22863 0.96642 0.53578 0.0
H580 H 0.35746 0.98129 0.56167 0.0
H581 H 0.39601 0.04187 0.52499 0.0
C582 C 0.35775 0.07499 0.48763 0.0
C583 C 0.33421 0.09117 0.47015 0.0
C584 C 0.33538 0.0413 0.50991 0.0
C585 C 0.28846 0.07505 0.477 0.0
C586 C 0.26504 0.0392 0.49778 0.0
C587 C 0.26525 0.98449 0.53463 0.0
C588 C 0.28978 0.96932 0.55216 0.0
C589 C 0.28811 1.02149 0.51419 0.0
C590 C 0.33728 0.99172 0.54867 0.0
C591 C 0.35962 0.02662 0.5276 0.0
H592 H 0.84022 0.76842 0.03988 0.0
H593 H 0.70988 0.65255 0.06218 0.0
H594 H 0.67358 0.67455 0.02413 0.0
H595 H 0.67803 0.72312 0.98252 0.0
H596 H 0.8022 0.84755 0.96534 0.0
H597 H 0.84164 0.82657 1.00334 0.0
C598 C 0.80372 0.74908 0.03726 0.0
C599 C 0.77813 0.70877 0.05425 0.0
C600 C 0.78202 0.76288 0.0156 0.0
C601 C 0.73089 0.68343 0.04951 0.0
C602 C 0.70979 0.69595 0.02763 0.0
C603 C 0.71378 0.74594 0.98696 0.0
C604 C 0.73811 0.78542 0.96929 0.0
C605 C 0.73502 0.73499 0.01015 0.0
C606 C 0.78376 0.81522 0.97672 0.0
C607 C 0.80595 0.80357 0.99898 0.0
H608 H 0.10886 0.32172 0.51035 0.0
H609 H 1.02789 0.31868 0.58602 0.0
H610 H 0.95935 0.28118 0.5548 0.0
H611 H 0.92314 0.25521 0.50486 0.0
H612 H 1.00486 0.26807 0.42737 0.0
H613 H 0.07197 0.29484 0.45996 0.0
C614 C 0.07604 0.31214 0.52002 0.0
C615 C 0.07338 0.32273 0.55053 0.0
C616 C 0.03684 0.29214 0.50146 0.0
C617 C 1.0308 0.31093 0.56265 0.0
C618 C 0.99161 0.28952 0.54477 0.0
C619 C 0.95549 0.2628 0.49529 0.0
C620 C 0.95849 0.25691 0.46398 0.0
C621 C 0.99428 0.28075 0.514 0.0
C622 C 1.00107 0.26933 0.45163 0.0
C623 C 0.03962 0.28555 0.47025 0.0
H624 H 0.72774 0.22952 0.08609 0.0
H625 H 0.71742 0.18247 0.17816 0.0
H626 H 0.63808 0.16273 0.18015 0.0
H627 H 0.5721 0.16342 0.15704 0.0
H628 H 0.58327 0.2129 0.06559 0.0
H629 H 0.66064 0.22679 0.06214 0.0
C630 C 0.70789 0.21412 0.10636 0.0
C631 C 0.72886 0.20742 0.13188 0.0
C632 C 0.66208 0.20368 0.10766 0.0
C633 C 0.70246 0.18808 0.15812 0.0
C634 C 0.65692 0.17688 0.15936 0.0
C635 C 0.59135 0.17686 0.13629 0.0
C636 C 0.57164 0.18714 0.11165 0.0
C637 C 0.63646 0.18531 0.1345 0.0
C638 C 0.59738 0.20472 0.08498 0.0
C639 C 0.64182 0.21272 0.08295 0.0
H640 H 0.62896 0.47083 0.36681 0.0
H641 H 0.66683 0.48673 0.46125 0.0
H642 H 0.6062 0.40983 0.4719 0.0
H643 H 0.54553 0.3364 0.45438 0.0
H644 H 0.50587 0.31813 0.36034 0.0
H645 H 0.56319 0.39728 0.34972 0.0
C646 C 0.62354 0.45752 0.38973 0.0
C647 C 0.65271 0.48461 0.41317 0.0
C648 C 0.58821 0.41267 0.39583 0.0
C649 C 0.64515 0.46678 0.44275 0.0
C650 C 0.6104 0.42265 0.4489 0.0
C651 C 0.54896 0.34973 0.43156 0.0
C652 C 0.5214 0.32105 0.4082 0.0
C653 C 0.58218 0.39506 0.42561 0.0
C654 C 0.52639 0.33929 0.37884 0.0
C655 C 0.55945 0.38459 0.37271 0.0
H656 H 0.87776 0.41811 0.08548 0.0
H657 H 0.88143 0.39249 0.1809 0.0
H658 H 0.86831 0.45475 0.19305 0.0
H659 H 0.85037 0.51307 0.17657 0.0
H660 H 0.84919 0.5407 0.08118 0.0
H661 H 0.86742 0.48187 0.06908 0.0
C662 C 0.87618 0.42652 0.10893 0.0
C663 C 0.88026 0.40039 0.13227 0.0
C664 C 0.86902 0.46281 0.11577 0.0
C665 C 0.87841 0.41195 0.16252 0.0
C666 C 0.87077 0.44753 0.16948 0.0
C667 C 0.85473 0.50672 0.15312 0.0
C668 C 0.84811 0.53133 0.12984 0.0
C669 C 0.86527 0.47274 0.1463 0.0
C670 C 0.85421 0.52261 0.09962 0.0
C671 C 0.86434 0.48865 0.09265 0.0
H672 H 0.56454 0.16934 0.35084 0.0
H673 H 0.55589 0.15981 0.44828 0.0
H674 H 0.63343 0.1739 0.45117 0.0
H675 H 0.70656 0.19562 0.42628 0.0
H676 H 0.71524 0.20622 0.32879 0.0
H677 H 0.63558 0.18471 0.32574 0.0
C678 C 0.57941 0.16965 0.37265 0.0
C679 C 0.55434 0.16365 0.39928 0.0
C680 C 0.62449 0.1783 0.37421 0.0
C681 C 0.57432 0.16436 0.42738 0.0
C682 C 0.61884 0.17256 0.42909 0.0
C683 C 0.69082 0.19239 0.40436 0.0
C684 C 0.71727 0.20285 0.37785 0.0
C685 C 0.64469 0.18052 0.4027 0.0
C686 C 0.69606 0.19869 0.34965 0.0
C687 C 0.65033 0.18645 0.34783 0.0
H688 H 0.54593 0.34182 0.17386 0.0
H689 H 0.51438 0.32706 0.07844 0.0
H690 H 0.5724 0.40662 0.06996 0.0
H691 H 0.63664 0.47919 0.08924 0.0
H692 H 0.66707 0.49267 0.18482 0.0
H693 H 0.60519 0.41523 0.19357 0.0
C694 C 0.55122 0.35602 0.15119 0.0
C695 C 0.52564 0.32805 0.1268 0.0
C696 C 0.58493 0.40175 0.14647 0.0
C697 C 0.53316 0.34751 0.09769 0.0
C698 C 0.56667 0.39307 0.09281 0.0
C699 C 0.62933 0.46534 0.11203 0.0
C700 C 0.65677 0.49192 0.13636 0.0
C701 C 0.59344 0.42035 0.11693 0.0
C702 C 0.6467 0.47326 0.1657 0.0
C703 C 0.61129 0.42879 0.17071 0.0
H704 H 0.82172 0.5124 0.4278 0.0
H705 H 0.86345 0.54103 0.3344 0.0
H706 H 0.88248 0.481 0.33455 0.0
H707 H 0.88168 0.41552 0.35997 0.0
H708 H 0.83586 0.38437 0.45252 0.0
H709 H 0.82431 0.44927 0.45392 0.0
C710 C 0.83603 0.50624 0.40773 0.0
C711 C 0.84155 0.53184 0.38122 0.0
C712 C 0.84563 0.47033 0.40765 0.0
C713 C 0.85907 0.52229 0.35521 0.0
C714 C 0.86976 0.48763 0.35521 0.0
C715 C 0.86966 0.42326 0.38053 0.0
C716 C 0.85969 0.39476 0.4061 0.0
C717 C 0.86228 0.46063 0.38107 0.0
C718 C 0.84378 0.40539 0.43244 0.0
C719 C 0.83713 0.44269 0.43329 0.0
H720 H 0.19463 0.68703 0.66508 0.0
H721 H 0.2241 0.7184 0.5701 0.0
H722 H 0.20818 0.6412 0.56078 0.0
H723 H 0.19141 0.56634 0.58038 0.0
H724 H 0.16138 0.53527 0.67528 0.0
H725 H 0.17196 0.61067 0.68386 0.0
C726 C 0.1971 0.67691 0.64224 0.0
C727 C 0.21088 0.70873 0.61836 0.0
C728 C 0.18816 0.63253 0.63709 0.0
C729 C 0.21352 0.69474 0.58891 0.0
C730 C 0.20467 0.65061 0.58359 0.0
C731 C 0.1868 0.57599 0.60288 0.0
C732 C 0.17593 0.54536 0.62723 0.0
C733 C 0.19285 0.61948 0.60762 0.0
C734 C 0.1698 0.55821 0.6562 0.0
C735 C 0.17594 0.60138 0.66111 0.0
H736 H 0.43408 0.86127 0.92575 0.0
H737 H 0.42164 0.87541 0.82963 0.0
H738 H 0.48476 0.86238 0.82014 0.0
H739 H 0.54053 0.84211 0.83887 0.0
H740 H 0.55576 0.83151 0.9351 0.0
H741 H 0.49539 0.84862 0.9448 0.0
C742 C 0.44552 0.86195 0.90276 0.0
C743 C 0.42284 0.869 0.8784 0.0
C744 C 0.48249 0.85504 0.89747 0.0
C745 C 0.43838 0.87009 0.84878 0.0
C746 C 0.47447 0.8625 0.84333 0.0
C747 C 0.53112 0.84416 0.86201 0.0
C748 C 0.55277 0.83528 0.8862 0.0
C749 C 0.49639 0.85428 0.86745 0.0
C750 C 0.54008 0.83838 0.91601 0.0
C751 C 0.50522 0.84787 0.92158 0.0
H752 H 0.47115 0.6356 0.58285 0.0
H753 H 0.49997 0.63885 0.67828 0.0
H754 H 0.42415 0.57371 0.68698 0.0
H755 H 0.34792 0.51847 0.6681 0.0
H756 H 0.31914 0.51272 0.57251 0.0
H757 H 0.39648 0.5753 0.56321 0.0
C758 C 0.46095 0.62177 0.60551 0.0
C759 C 0.49135 0.64246 0.62994 0.0
C760 C 0.41716 0.58367 0.61031 0.0
C761 C 0.47751 0.62379 0.65908 0.0
C762 C 0.434 0.5865 0.66407 0.0
C763 C 0.35865 0.53042 0.64512 0.0
C764 C 0.32732 0.51069 0.62105 0.0
C765 C 0.4033 0.5665 0.63995 0.0
C766 C 0.34227 0.52678 0.59147 0.0
C767 C 0.38654 0.56293 0.58618 0.0
H768 H 0.25566 0.72491 0.92701 0.0
H769 H 0.19071 0.69894 0.83964 0.0
H770 H 0.17028 0.6195 0.84296 0.0
H771 H 0.1762 0.55815 0.86881 0.0
H772 H 0.24444 0.5853 0.95505 0.0
H773 H 0.25802 0.66259 0.95407 0.0
C774 C 0.23616 0.70163 0.90904 0.0
C775 C 0.22458 0.71802 0.88318 0.0
C776 C 0.2256 0.65596 0.91067 0.0
C777 C 0.20004 0.68737 0.85984 0.0
C778 C 0.18849 0.64184 0.86164 0.0
C779 C 0.19362 0.58088 0.88749 0.0
C780 C 0.20936 0.56582 0.91191 0.0
C781 C 0.20197 0.62587 0.88662 0.0
C782 C 0.23205 0.5959 0.93589 0.0
C783 C 0.23986 0.64025 0.93538 0.0
H784 H 0.42307 0.87558 0.59038 0.0
H785 H 0.38418 0.85123 0.68451 0.0
H786 H 0.44468 0.83414 0.69457 0.0
H787 H 0.5049 0.82051 0.6759 0.0
H788 H 0.54393 0.84469 0.58173 0.0
H789 H 0.48762 0.86781 0.57252 0.0
C790 C 0.42822 0.86716 0.61322 0.0
C791 C 0.39887 0.86466 0.63669 0.0
C792 C 0.46304 0.85704 0.61878 0.0
C793 C 0.40617 0.85361 0.66607 0.0
C794 C 0.44071 0.8436 0.67178 0.0
C795 C 0.50156 0.83131 0.65337 0.0
C796 C 0.52879 0.83052 0.62949 0.0
C797 C 0.46881 0.84436 0.64821 0.0
C798 C 0.52379 0.84493 0.60057 0.0
C799 C 0.49132 0.85799 0.59527 0.0
H800 H 0.50428 0.6262 0.93277 0.0
H801 H 0.51491 0.65611 0.83707 0.0
H802 H 0.43661 0.59539 0.82966 0.0
H803 H 0.36324 0.53769 0.85072 0.0
H804 H 0.35146 0.50673 0.94628 0.0
H805 H 0.43183 0.56318 0.95328 0.0
C806 C 0.48962 0.61897 0.91024 0.0
C807 C 0.51558 0.64594 0.8855 0.0
C808 C 0.44416 0.58381 0.90612 0.0
C809 C 0.49593 0.63604 0.85649 0.0
C810 C 0.45098 0.60132 0.85225 0.0
C811 C 0.37828 0.54278 0.87307 0.0
C812 C 0.35095 0.51792 0.89797 0.0
C813 C 0.42449 0.57556 0.87694 0.0
C814 C 0.37143 0.52505 0.92667 0.0
C815 C 0.41745 0.55764 0.93071 0.0
loop_
_geom_bond_atom_site_label_1
_geom_bond_atom_site_label_2
_geom_bond_distance
_geom_bond_site_symmetry_2
_ccdc_geom_bond_type
O0 Tb1 2.506 . S
O0 C14 1.265 . S
Tb1 O0 2.506 . S
Tb1 O6 2.312 . S
Tb1 O10 2.271 . S
Tb1 O12 2.338 . S
Tb1 O19 2.441 . S
C2 O10 1.252 . S
C2 O11 1.253 . S
O3 Tb4 2.271 . S
O3 C13 1.252 . S
Tb4 O3 2.271 . S
Tb4 O7 2.338 . S
Tb4 O11 2.312 . S
Tb4 O15 2.441 . S
Tb4 O16 2.506 . S
C5 O15 1.244 . S
C5 O16 1.265 . S
O6 Tb1 2.312 . S
O6 C13 1.253 . S
O7 Tb4 2.338 . S
O7 C8 1.258 . S
C8 O7 1.258 . S
C8 O9 1.251 . S
O9 C8 1.251 . S
O10 Tb1 2.271 . S
O10 C2 1.252 . S
O11 C2 1.253 . S
O11 Tb4 2.312 . S
O12 Tb1 2.338 . S
O12 C17 1.258 . S
C13 O3 1.252 . S
C13 O6 1.253 . S
C14 O0 1.265 . S
C14 O19 1.244 . S
O15 Tb4 2.441 . S
O15 C5 1.244 . S
O16 Tb4 2.506 . S
O16 C5 1.265 . S
C17 O12 1.258 . S
C17 O18 1.251 . S
O18 C17 1.251 . S
O19 Tb1 2.441 . S
O19 C14 1.244 . S
O20 Tb21 2.506 . S
O20 C34 1.265 . S
Tb21 O20 2.506 . S
Tb21 O26 2.312 . S
Tb21 O30 2.271 . S
Tb21 O32 2.338 . S
Tb21 O39 2.441 . S
C22 O30 1.252 . S
C22 O31 1.253 . S
O23 Tb24 2.271 . S
O23 C33 1.252 . S
Tb24 O23 2.271 . S
Tb24 O27 2.338 . S
Tb24 O31 2.312 . S
Tb24 O35 2.441 . S
Tb24 O36 2.506 . S
C25 O35 1.244 . S
C25 O36 1.265 . S
O26 Tb21 2.312 . S
O26 C33 1.253 . S
O27 Tb24 2.338 . S
O27 C28 1.258 . S
C28 O27 1.258 . S
C28 O29 1.251 . S
O29 C28 1.251 . S
O30 Tb21 2.271 . S
O30 C22 1.252 . S
O31 C22 1.253 . S
O31 Tb24 2.312 . S
O32 Tb21 2.338 . S
O32 C37 1.258 . S
C33 O23 1.252 . S
C33 O26 1.253 . S
C34 O20 1.265 . S
C34 O39 1.244 . S
O35 Tb24 2.441 . S
O35 C25 1.244 . S
O36 Tb24 2.506 . S
O36 C25 1.265 . S
C37 O32 1.258 . S
C37 O38 1.251 . S
O38 C37 1.251 . S
O39 Tb21 2.441 . S
O39 C34 1.244 . S
O40 Tb41 2.506 . S
O40 C54 1.265 . S
Tb41 O40 2.506 . S
Tb41 O46 2.312 . S
Tb41 O50 2.271 . S
Tb41 O52 2.338 . S
Tb41 O59 2.441 . S
C42 O50 1.252 . S
C42 O51 1.253 . S
O43 Tb44 2.271 . S
O43 C53 1.252 . S
Tb44 O43 2.271 . S
Tb44 O47 2.338 . S
Tb44 O51 2.312 . S
Tb44 O55 2.441 . S
Tb44 O56 2.506 . S
C45 O55 1.244 . S
C45 O56 1.265 . S
O46 Tb41 2.312 . S
O46 C53 1.253 . S
O47 Tb44 2.338 . S
O47 C48 1.258 . S
C48 O47 1.258 . S
C48 O49 1.251 . S
O49 C48 1.251 . S
O50 Tb41 2.271 . S
O50 C42 1.252 . S
O51 C42 1.253 . S
O51 Tb44 2.312 . S
O52 Tb41 2.338 . S
O52 C57 1.258 . S
C53 O43 1.252 . S
C53 O46 1.253 . S
C54 O40 1.265 . S
C54 O59 1.244 . S
O55 Tb44 2.441 . S
O55 C45 1.244 . S
O56 Tb44 2.506 . S
O56 C45 1.265 . S
C57 O52 1.258 . S
C57 O58 1.251 . S
O58 C57 1.251 . S
O59 Tb41 2.441 . S
O59 C54 1.244 . S
O60 Tb61 2.506 . S
O60 C74 1.265 . S
Tb61 O60 2.506 . S
Tb61 O66 2.312 . S
Tb61 O70 2.271 . S
Tb61 O72 2.338 . S
Tb61 O79 2.441 . S
C62 O70 1.252 . S
C62 O71 1.253 . S
O63 Tb64 2.271 . S
O63 C73 1.252 . S
Tb64 O63 2.271 . S
Tb64 O67 2.338 . S
Tb64 O71 2.312 . S
Tb64 O75 2.441 . S
Tb64 O76 2.506 . S
C65 O75 1.244 . S
C65 O76 1.265 . S
O66 Tb61 2.312 . S
O66 C73 1.253 . S
O67 Tb64 2.338 . S
O67 C68 1.258 . S
C68 O67 1.258 . S
C68 O69 1.251 . S
O69 C68 1.251 . S
O70 Tb61 2.271 . S
O70 C62 1.252 . S
O71 C62 1.253 . S
O71 Tb64 2.312 . S
O72 Tb61 2.338 . S
O72 C77 1.258 . S
C73 O63 1.252 . S
C73 O66 1.253 . S
C74 O60 1.265 . S
C74 O79 1.244 . S
O75 Tb64 2.441 . S
O75 C65 1.244 . S
O76 Tb64 2.506 . S
O76 C65 1.265 . S
C77 O72 1.258 . S
C77 O78 1.251 . S
O78 C77 1.251 . S
O79 Tb61 2.441 . S
O79 C74 1.244 . S
O80 Tb81 2.506 . S
O80 C94 1.265 . S
Tb81 O80 2.506 . S
Tb81 O86 2.312 . S
Tb81 O90 2.271 . S
Tb81 O92 2.338 . S
Tb81 O99 2.441 . S
C82 O90 1.252 . S
C82 O91 1.253 . S
O83 Tb84 2.271 . S
O83 C93 1.252 . S
Tb84 O83 2.271 . S
Tb84 O87 2.338 . S
Tb84 O91 2.312 . S
Tb84 O95 2.441 . S
Tb84 O96 2.506 . S
C85 O95 1.244 . S
C85 O96 1.265 . S
O86 Tb81 2.312 . S
O86 C93 1.253 . S
O87 Tb84 2.338 . S
O87 C88 1.258 . S
C88 O87 1.258 . S
C88 O89 1.251 . S
O89 C88 1.251 . S
O90 Tb81 2.271 . S
O90 C82 1.252 . S
O91 C82 1.253 . S
O91 Tb84 2.312 . S
O92 Tb81 2.338 . S
O92 C97 1.258 . S
C93 O83 1.252 . S
C93 O86 1.253 . S
C94 O80 1.265 . S
C94 O99 1.244 . S
O95 Tb84 2.441 . S
O95 C85 1.244 . S
O96 Tb84 2.506 . S
O96 C85 1.265 . S
C97 O92 1.258 . S
C97 O98 1.251 . S
O98 C97 1.251 . S
O99 Tb81 2.441 . S
O99 C94 1.244 . S
O100 Tb101 2.506 . S
O100 C114 1.265 . S
Tb101 O100 2.506 . S
Tb101 O106 2.312 . S
Tb101 O110 2.271 . S
Tb101 O112 2.338 . S
Tb101 O119 2.441 . S
C102 O110 1.252 . S
C102 O111 1.253 . S
O103 Tb104 2.271 . S
O103 C113 1.252 . S
Tb104 O103 2.271 . S
Tb104 O107 2.338 . S
Tb104 O111 2.312 . S
Tb104 O115 2.441 . S
Tb104 O116 2.506 . S
C105 O115 1.244 . S
C105 O116 1.265 . S
O106 Tb101 2.312 . S
O106 C113 1.253 . S
O107 Tb104 2.338 . S
O107 C108 1.258 . S
C108 O107 1.258 . S
C108 O109 1.251 . S
O109 C108 1.251 . S
O110 Tb101 2.271 . S
O110 C102 1.252 . S
O111 C102 1.253 . S
O111 Tb104 2.312 . S
O112 Tb101 2.338 . S
O112 C117 1.258 . S
C113 O103 1.252 . S
C113 O106 1.253 . S
C114 O100 1.265 . S
C114 O119 1.244 . S
O115 Tb104 2.441 . S
O115 C105 1.244 . S
O116 Tb104 2.506 . S
O116 C105 1.265 . S
C117 O112 1.258 . S
C117 O118 1.251 . S
O118 C117 1.251 . S
O119 Tb101 2.441 . S
O119 C114 1.244 . S
O120 Tb121 2.506 . S
O120 C134 1.265 . S
Tb121 O120 2.506 . S
Tb121 O126 2.312 . S
Tb121 O130 2.271 . S
Tb121 O132 2.338 . S
Tb121 O139 2.441 . S
C122 O130 1.252 . S
C122 O131 1.253 . S
O123 Tb124 2.271 . S
O123 C133 1.252 . S
Tb124 O123 2.271 . S
Tb124 O127 2.338 . S
Tb124 O131 2.312 . S
Tb124 O135 2.441 . S
Tb124 O136 2.506 . S
C125 O135 1.244 . S
C125 O136 1.265 . S
O126 Tb121 2.312 . S
O126 C133 1.253 . S
O127 Tb124 2.338 . S
O127 C128 1.258 . S
C128 O127 1.258 . S
C128 O129 1.251 . S
O129 C128 1.251 . S
O130 Tb121 2.271 . S
O130 C122 1.252 . S
O131 C122 1.253 . S
O131 Tb124 2.312 . S
O132 Tb121 2.338 . S
O132 C137 1.258 . S
C133 O123 1.252 . S
C133 O126 1.253 . S
C134 O120 1.265 . S
C134 O139 1.244 . S
O135 Tb124 2.441 . S
O135 C125 1.244 . S
O136 Tb124 2.506 . S
O136 C125 1.265 . S
C137 O132 1.258 . S
C137 O138 1.251 . S
O138 C137 1.251 . S
O139 Tb121 2.441 . S
O139 C134 1.244 . S
O140 Tb141 2.506 . S
O140 C154 1.265 . S
Tb141 O140 2.506 . S
Tb141 O146 2.312 . S
Tb141 O150 2.271 . S
Tb141 O152 2.338 . S
Tb141 O159 2.441 . S
C142 O150 1.252 . S
C142 O151 1.253 . S
O143 Tb144 2.271 . S
O143 C153 1.252 . S
Tb144 O143 2.271 . S
Tb144 O147 2.338 . S
Tb144 O151 2.312 . S
Tb144 O155 2.441 . S
Tb144 O156 2.506 . S
C145 O155 1.244 . S
C145 O156 1.265 . S
O146 Tb141 2.312 . S
O146 C153 1.253 . S
O147 Tb144 2.338 . S
O147 C148 1.258 . S
C148 O147 1.258 . S
C148 O149 1.251 . S
O149 C148 1.251 . S
O150 Tb141 2.271 . S
O150 C142 1.252 . S
O151 C142 1.253 . S
O151 Tb144 2.312 . S
O152 Tb141 2.338 . S
O152 C157 1.258 . S
C153 O143 1.252 . S
C153 O146 1.253 . S
C154 O140 1.265 . S
C154 O159 1.244 . S
O155 Tb144 2.441 . S
O155 C145 1.244 . S
O156 Tb144 2.506 . S
O156 C145 1.265 . S
C157 O152 1.258 . S
C157 O158 1.251 . S
O158 C157 1.251 . S
O159 Tb141 2.441 . S
O159 C154 1.244 . S
O160 Tb161 2.506 . S
O160 C174 1.265 . S
Tb161 O160 2.506 . S
Tb161 O166 2.312 . S
Tb161 O170 2.271 . S
Tb161 O172 2.338 . S
Tb161 O179 2.441 . S
C162 O170 1.252 . S
C162 O171 1.253 . S
O163 Tb164 2.271 . S
O163 C173 1.252 . S
Tb164 O163 2.271 . S
Tb164 O167 2.338 . S
Tb164 O171 2.312 . S
Tb164 O175 2.441 . S
Tb164 O176 2.506 . S
C165 O175 1.244 . S
C165 O176 1.265 . S
O166 Tb161 2.312 . S
O166 C173 1.253 . S
O167 Tb164 2.338 . S
O167 C168 1.258 . S
C168 O167 1.258 . S
C168 O169 1.251 . S
O169 C168 1.251 . S
O170 Tb161 2.271 . S
O170 C162 1.252 . S
O171 C162 1.253 . S
O171 Tb164 2.312 . S
O172 Tb161 2.338 . S
O172 C177 1.258 . S
C173 O163 1.252 . S
C173 O166 1.253 . S
C174 O160 1.265 . S
C174 O179 1.244 . S
O175 Tb164 2.441 . S
O175 C165 1.244 . S
O176 Tb164 2.506 . S
O176 C165 1.265 . S
C177 O172 1.258 . S
C177 O178 1.251 . S
O178 C177 1.251 . S
O179 Tb161 2.441 . S
O179 C174 1.244 . S
O180 Tb181 2.506 . S
O180 C194 1.265 . S
Tb181 O180 2.506 . S
Tb181 O186 2.312 . S
Tb181 O190 2.271 . S
Tb181 O192 2.338 . S
Tb181 O199 2.441 . S
C182 O190 1.252 . S
C182 O191 1.253 . S
O183 Tb184 2.271 . S
O183 C193 1.252 . S
Tb184 O183 2.271 . S
Tb184 O187 2.338 . S
Tb184 O191 2.312 . S
Tb184 O195 2.441 . S
Tb184 O196 2.506 . S
C185 O195 1.244 . S
C185 O196 1.265 . S
O186 Tb181 2.312 . S
O186 C193 1.253 . S
O187 Tb184 2.338 . S
O187 C188 1.258 . S
C188 O187 1.258 . S
C188 O189 1.251 . S
O189 C188 1.251 . S
O190 Tb181 2.271 . S
O190 C182 1.252 . S
O191 C182 1.253 . S
O191 Tb184 2.312 . S
O192 Tb181 2.338 . S
O192 C197 1.258 . S
C193 O183 1.252 . S
C193 O186 1.253 . S
C194 O180 1.265 . S
C194 O199 1.244 . S
O195 Tb184 2.441 . S
O195 C185 1.244 . S
O196 Tb184 2.506 . S
O196 C185 1.265 . S
C197 O192 1.258 . S
C197 O198 1.251 . S
O198 C197 1.251 . S
O199 Tb181 2.441 . S
O199 C194 1.244 . S
O200 Tb201 2.506 . S
O200 C214 1.265 . S
Tb201 O200 2.506 . S
Tb201 O206 2.312 . S
Tb201 O210 2.271 . S
Tb201 O212 2.338 . S
Tb201 O219 2.441 . S
C202 O210 1.252 . S
C202 O211 1.253 . S
O203 Tb204 2.271 . S
O203 C213 1.252 . S
Tb204 O203 2.271 . S
Tb204 O207 2.338 . S
Tb204 O211 2.312 . S
Tb204 O215 2.441 . S
Tb204 O216 2.506 . S
C205 O215 1.244 . S
C205 O216 1.265 . S
O206 Tb201 2.312 . S
O206 C213 1.253 . S
O207 Tb204 2.338 . S
O207 C208 1.258 . S
C208 O207 1.258 . S
C208 O209 1.251 . S
O209 C208 1.251 . S
O210 Tb201 2.271 . S
O210 C202 1.252 . S
O211 C202 1.253 . S
O211 Tb204 2.312 . S
O212 Tb201 2.338 . S
O212 C217 1.258 . S
C213 O203 1.252 . S
C213 O206 1.253 . S
C214 O200 1.265 . S
C214 O219 1.244 . S
O215 Tb204 2.441 . S
O215 C205 1.244 . S
O216 Tb204 2.506 . S
O216 C205 1.265 . S
C217 O212 1.258 . S
C217 O218 1.251 . S
O218 C217 1.251 . S
O219 Tb201 2.441 . S
O219 C214 1.244 . S
O220 Tb221 2.506 . S
O220 C234 1.265 . S
Tb221 O220 2.506 . S
Tb221 O226 2.312 . S
Tb221 O230 2.271 . S
Tb221 O232 2.338 . S
Tb221 O239 2.441 . S
C222 O230 1.252 . S
C222 O231 1.253 . S
O223 Tb224 2.271 . S
O223 C233 1.252 . S
Tb224 O223 2.271 . S
Tb224 O227 2.338 . S
Tb224 O231 2.312 . S
Tb224 O235 2.441 . S
Tb224 O236 2.506 . S
C225 O235 1.244 . S
C225 O236 1.265 . S
O226 Tb221 2.312 . S
O226 C233 1.253 . S
O227 Tb224 2.338 . S
O227 C228 1.258 . S
C228 O227 1.258 . S
C228 O229 1.251 . S
O229 C228 1.251 . S
O230 Tb221 2.271 . S
O230 C222 1.252 . S
O231 C222 1.253 . S
O231 Tb224 2.312 . S
O232 Tb221 2.338 . S
O232 C237 1.258 . S
C233 O223 1.252 . S
C233 O226 1.253 . S
C234 O220 1.265 . S
C234 O239 1.244 . S
O235 Tb224 2.441 . S
O235 C225 1.244 . S
O236 Tb224 2.506 . S
O236 C225 1.265 . S
C237 O232 1.258 . S
C237 O238 1.251 . S
O238 C237 1.251 . S
O239 Tb221 2.441 . S
O239 C234 1.244 . S
H240 C246 0.930 . S
H241 C249 0.930 1_655 S
H242 C250 0.930 . S
H243 C251 0.930 . S
H244 C254 0.930 . S
H245 C255 0.930 . S
C246 H240 0.930 . S
C246 C247 1.355 . S
C246 C248 1.415 . S
C247 C246 1.355 . S
C247 C249 1.419 . S
C248 C246 1.415 . S
C248 C253 1.425 . S
C248 C255 1.409 . S
C249 H241 0.930 1_455 S
C249 C247 1.419 . S
C249 C250 1.362 . S
C250 H242 0.930 . S
C250 C249 1.362 . S
C250 C253 1.409 . S
C251 H243 0.930 . S
C251 C252 1.355 . S
C251 C253 1.415 . S
C252 C251 1.355 . S
C252 C254 1.419 . S
C253 C248 1.425 . S
C253 C250 1.409 . S
C253 C251 1.415 . S
C254 H244 0.930 . S
C254 C252 1.419 . S
C254 C255 1.362 . S
C255 H245 0.930 . S
C255 C248 1.409 . S
C255 C254 1.362 . S
H256 C262 0.930 . S
H257 C265 0.930 . S
H258 C266 0.930 . S
H259 C267 0.930 . S
H260 C270 0.930 . S
H261 C271 0.930 . S
C262 H256 0.930 . S
C262 C263 1.355 . S
C262 C264 1.415 . S
C263 C262 1.355 . S
C263 C265 1.419 . S
C264 C262 1.415 . S
C264 C269 1.425 . S
C264 C271 1.409 . S
C265 H257 0.930 . S
C265 C263 1.419 . S
C265 C266 1.362 . S
C266 H258 0.930 . S
C266 C265 1.362 . S
C266 C269 1.409 . S
C267 H259 0.930 . S
C267 C268 1.355 . S
C267 C269 1.415 1_655 S
C268 C267 1.355 . S
C268 C270 1.419 . S
C269 C264 1.425 . S
C269 C266 1.409 . S
C269 C267 1.415 1_455 S
C270 H260 0.930 . S
C270 C268 1.419 . S
C270 C271 1.362 1_655 S
C271 H261 0.930 . S
C271 C264 1.409 . S
C271 C270 1.362 1_455 S
H272 C278 0.924 . S
H273 C281 0.930 . S
H274 C282 0.930 . S
H275 C283 0.930 . S
H276 C286 0.930 . S
H277 C287 0.930 . S
C278 H272 0.924 . S
C278 C279 1.360 . S
C278 C280 1.404 1_545 S
C279 C278 1.360 . S
C279 C281 1.419 . S
C280 C278 1.404 1_565 S
C280 C285 1.425 . S
C280 C287 1.409 . S
C281 H273 0.930 . S
C281 C279 1.419 . S
C281 C282 1.362 . S
C282 H274 0.930 . S
C282 C281 1.362 . S
C282 C285 1.409 1_545 S
C283 H275 0.930 . S
C283 C284 1.355 . S
C283 C285 1.415 . S
C284 C283 1.355 . S
C284 C286 1.419 . S
C285 C280 1.425 . S
C285 C282 1.409 1_565 S
C285 C283 1.415 . S
C286 H276 0.930 . S
C286 C284 1.419 . S
C286 C287 1.362 . S
C287 H277 0.930 . S
C287 C280 1.409 . S
C287 C286 1.362 . S
H288 C294 0.930 . S
H289 C297 0.930 . S
H290 C298 0.930 . S
H291 C299 0.930 . S
H292 C302 0.955 . S
H293 C303 0.930 . S
C294 H288 0.930 . S
C294 C295 1.355 . S
C294 C296 1.415 . S
C295 C294 1.355 . S
C295 C297 1.419 . S
C296 C294 1.415 . S
C296 C301 1.425 . S
C296 C303 1.409 . S
C297 H289 0.930 . S
C297 C295 1.419 . S
C297 C298 1.362 . S
C298 H290 0.930 . S
C298 C297 1.362 . S
C298 C301 1.409 . S
C299 H291 0.930 . S
C299 C300 1.355 . S
C299 C301 1.415 . S
C300 C299 1.355 . S
C300 C302 1.419 . S
C301 C296 1.425 . S
C301 C298 1.409 . S
C301 C299 1.415 . S
C302 H292 0.955 . S
C302 C300 1.419 . S
C302 C303 1.362 . S
C303 H293 0.930 . S
C303 C296 1.409 . S
C303 C302 1.362 . S
H304 C310 0.930 . S
H305 C313 0.930 1_545 S
H306 C314 0.930 . S
H307 C315 0.930 . S
H308 C318 0.934 1_655 S
H309 C319 0.930 . S
C310 H304 0.930 . S
C310 C311 1.355 . S
C310 C312 1.415 . S
C311 C310 1.355 . S
C311 C313 1.419 . S
C312 C310 1.415 . S
C312 C317 1.425 . S
C312 C319 1.409 . S
C313 H305 0.930 1_565 S
C313 C311 1.419 . S
C313 C314 1.362 . S
C314 H306 0.930 . S
C314 C313 1.362 . S
C314 C317 1.409 . S
C315 H307 0.930 . S
C315 C316 1.355 . S
C315 C317 1.415 1_655 S
C316 C315 1.355 . S
C316 C318 1.419 1_655 S
C317 C312 1.425 . S
C317 C314 1.409 . S
C317 C315 1.415 1_455 S
C318 H308 0.934 1_455 S
C318 C316 1.419 1_455 S
C318 C319 1.362 . S
C319 H309 0.930 . S
C319 C312 1.409 . S
C319 C318 1.362 . S
H320 C326 0.930 . S
H321 C329 0.930 . S
H322 C330 0.930 . S
H323 C331 0.930 . S
H324 C334 0.930 . S
H325 C335 0.930 . S
C326 H320 0.930 . S
C326 C327 1.355 . S
C326 C328 1.415 . S
C327 C326 1.355 . S
C327 C329 1.419 . S
C328 C326 1.415 . S
C328 C333 1.425 . S
C328 C335 1.409 . S
C329 H321 0.930 . S
C329 C327 1.419 . S
C329 C330 1.362 . S
C330 H322 0.930 . S
C330 C329 1.362 . S
C330 C333 1.409 . S
C331 H323 0.930 . S
C331 C332 1.355 . S
C331 C333 1.415 1_545 S
C332 C331 1.355 . S
C332 C334 1.419 . S
C333 C328 1.425 . S
C333 C330 1.409 . S
C333 C331 1.415 1_565 S
C334 H324 0.930 . S
C334 C332 1.419 . S
C334 C335 1.362 1_545 S
C335 H325 0.930 . S
C335 C328 1.409 . S
C335 C334 1.362 1_565 S
H336 C342 0.930 . S
H337 C345 0.930 . S
H338 C346 0.930 . S
H339 C347 0.930 . S
H340 C350 0.930 . S
H341 C351 0.930 . S
C342 H336 0.930 . S
C342 C343 1.355 . S
C342 C344 1.415 . S
C343 C342 1.355 . S
C343 C345 1.419 . S
C344 C342 1.415 . S
C344 C349 1.425 . S
C344 C351 1.409 . S
C345 H337 0.930 . S
C345 C343 1.419 . S
C345 C346 1.362 . S
C346 H338 0.930 . S
C346 C345 1.362 . S
C346 C349 1.409 . S
C347 H339 0.930 . S
C347 C348 1.355 . S
C347 C349 1.415 . S
C348 C347 1.355 . S
C348 C350 1.419 . S
C349 C344 1.425 . S
C349 C346 1.409 . S
C349 C347 1.415 . S
C350 H340 0.930 . S
C350 C348 1.419 . S
C350 C351 1.362 . S
C351 H341 0.930 . S
C351 C344 1.409 . S
C351 C350 1.362 . S
H352 C358 0.930 . S
H353 C361 0.930 . S
H354 C362 0.930 . S
H355 C363 0.930 . S
H356 C366 0.930 . S
H357 C367 0.930 . S
C358 H352 0.930 . S
C358 C359 1.355 . S
C358 C360 1.415 1_455 S
C359 C358 1.355 . S
C359 C361 1.419 . S
C360 C358 1.415 1_655 S
C360 C365 1.425 . S
C360 C367 1.409 . S
C361 H353 0.930 . S
C361 C359 1.419 . S
C361 C362 1.362 1_455 S
C362 H354 0.930 . S
C362 C361 1.362 1_655 S
C362 C365 1.409 . S
C363 H355 0.930 . S
C363 C364 1.355 . S
C363 C365 1.415 . S
C364 C363 1.355 . S
C364 C366 1.419 . S
C365 C360 1.425 . S
C365 C362 1.409 . S
C365 C363 1.415 . S
C366 H356 0.930 . S
C366 C364 1.419 . S
C366 C367 1.362 . S
C367 H357 0.930 . S
C367 C360 1.409 . S
C367 C366 1.362 . S
H368 C374 0.930 . S
H369 C377 0.930 . S
H370 C378 0.930 . S
H371 C379 0.930 . S
H372 C382 0.930 . S
H373 C383 0.930 . S
C374 H368 0.930 . S
C374 C375 1.355 . S
C374 C376 1.415 1_565 S
C375 C374 1.355 . S
C375 C377 1.419 . S
C376 C374 1.415 1_545 S
C376 C381 1.425 . S
C376 C383 1.409 . S
C377 H369 0.930 . S
C377 C375 1.419 . S
C377 C378 1.362 1_565 S
C378 H370 0.930 . S
C378 C377 1.362 1_545 S
C378 C381 1.409 . S
C379 H371 0.930 . S
C379 C380 1.355 . S
C379 C381 1.415 . S
C380 C379 1.355 . S
C380 C382 1.419 . S
C381 C376 1.425 . S
C381 C378 1.409 . S
C381 C379 1.415 . S
C382 H372 0.930 . S
C382 C380 1.419 . S
C382 C383 1.362 . S
C383 H373 0.930 . S
C383 C376 1.409 . S
C383 C382 1.362 . S
H384 C390 0.930 . S
H385 C393 0.930 . S
H386 C394 0.930 . S
H387 C395 0.930 . S
H388 C398 0.930 1_565 S
H389 C399 0.930 . S
C390 H384 0.930 . S
C390 C391 1.355 . S
C390 C392 1.415 . S
C391 C390 1.355 . S
C391 C393 1.419 . S
C392 C390 1.415 . S
C392 C397 1.425 . S
C392 C399 1.409 . S
C393 H385 0.930 . S
C393 C391 1.419 . S
C393 C394 1.362 . S
C394 H386 0.930 . S
C394 C393 1.362 . S
C394 C397 1.409 . S
C395 H387 0.930 . S
C395 C396 1.355 . S
C395 C397 1.415 . S
C396 C395 1.355 . S
C396 C398 1.419 . S
C397 C392 1.425 . S
C397 C394 1.409 . S
C397 C395 1.415 . S
C398 H388 0.930 1_545 S
C398 C396 1.419 . S
C398 C399 1.362 . S
C399 H389 0.930 . S
C399 C392 1.409 . S
C399 C398 1.362 . S
H400 C406 0.918 . S
H401 C409 0.930 . S
H402 C410 0.935 . S
H403 C411 0.930 . S
H404 C414 0.930 . S
H405 C415 0.930 . S
C406 H400 0.918 . S
C406 C407 1.344 1_655 S
C406 C408 1.437 . S
C407 C406 1.344 1_455 S
C407 C409 1.419 . S
C408 C406 1.437 . S
C408 C413 1.425 . S
C408 C415 1.409 . S
C409 H401 0.930 . S
C409 C407 1.419 . S
C409 C410 1.361 . S
C410 H402 0.935 . S
C410 C409 1.361 . S
C410 C413 1.409 1_455 S
C411 H403 0.930 . S
C411 C412 1.355 . S
C411 C413 1.415 . S
C412 C411 1.355 . S
C412 C414 1.419 . S
C413 C408 1.425 . S
C413 C410 1.409 1_655 S
C413 C411 1.415 . S
C414 H404 0.930 . S
C414 C412 1.419 . S
C414 C415 1.362 . S
C415 H405 0.930 . S
C415 C408 1.409 . S
C415 C414 1.362 . S
H416 C422 0.930 . S
H417 C425 0.945 . S
H418 C426 0.930 . S
H419 C427 0.930 . S
H420 C430 0.929 . S
H421 C431 0.930 . S
C422 H416 0.930 . S
C422 C423 1.355 . S
C422 C424 1.415 . S
C423 C422 1.355 . S
C423 C425 1.419 . S
C424 C422 1.415 . S
C424 C429 1.425 . S
C424 C431 1.409 . S
C425 H417 0.945 . S
C425 C423 1.419 . S
C425 C426 1.362 . S
C426 H418 0.930 . S
C426 C425 1.362 . S
C426 C429 1.409 . S
C427 H419 0.930 . S
C427 C428 1.355 . S
C427 C429 1.415 1_565 S
C428 C427 1.355 . S
C428 C430 1.419 1_565 S
C429 C424 1.425 . S
C429 C426 1.409 . S
C429 C427 1.415 1_545 S
C430 H420 0.929 . S
C430 C428 1.419 1_545 S
C430 C431 1.362 . S
C431 H421 0.930 . S
C431 C424 1.409 . S
C431 C430 1.362 . S
H432 C438 0.930 . S
H433 C441 0.930 . S
H434 C442 0.930 . S
H435 C443 0.930 . S
H436 C446 0.930 . S
H437 C447 0.930 . S
C438 H432 0.930 . S
C438 C439 1.355 . S
C438 C440 1.415 . S
C439 C438 1.355 . S
C439 C441 1.419 . S
C440 C438 1.415 . S
C440 C445 1.425 . S
C440 C447 1.409 . S
C441 H433 0.930 . S
C441 C439 1.419 . S
C441 C442 1.362 . S
C442 H434 0.930 . S
C442 C441 1.362 . S
C442 C445 1.409 . S
C443 H435 0.930 . S
C443 C444 1.355 . S
C443 C445 1.415 . S
C444 C443 1.355 . S
C444 C446 1.419 . S
C445 C440 1.425 . S
C445 C442 1.409 . S
C445 C443 1.415 . S
C446 H436 0.930 . S
C446 C444 1.419 . S
C446 C447 1.362 . S
C447 H437 0.930 . S
C447 C440 1.409 . S
C447 C446 1.362 . S
H448 C454 0.930 . S
H449 C457 0.930 . S
H450 C458 0.930 . S
H451 C459 0.930 . S
H452 C462 0.930 . S
H453 C463 0.930 . S
C454 H448 0.930 . S
C454 C455 1.355 . S
C454 C456 1.415 . S
C455 C454 1.355 . S
C455 C457 1.419 . S
C456 C454 1.415 . S
C456 C461 1.425 . S
C456 C463 1.409 . S
C457 H449 0.930 . S
C457 C455 1.419 . S
C457 C458 1.362 . S
C458 H450 0.930 . S
C458 C457 1.362 . S
C458 C461 1.409 . S
C459 H451 0.930 . S
C459 C460 1.355 . S
C459 C461 1.415 . S
C460 C459 1.355 . S
C460 C462 1.419 . S
C461 C456 1.425 . S
C461 C458 1.409 . S
C461 C459 1.415 . S
C462 H452 0.930 . S
C462 C460 1.419 . S
C462 C463 1.362 . S
C463 H453 0.930 . S
C463 C456 1.409 . S
C463 C462 1.362 . S
H464 C470 0.930 . S
H465 C473 0.930 . S
H466 C474 0.930 . S
H467 C475 0.930 . S
H468 C478 0.930 . S
H469 C479 0.930 . S
C470 H464 0.930 . S
C470 C471 1.355 . S
C470 C472 1.415 . S
C471 C470 1.355 . S
C471 C473 1.419 . S
C472 C470 1.415 . S
C472 C477 1.425 . S
C472 C479 1.409 . S
C473 H465 0.930 . S
C473 C471 1.419 . S
C473 C474 1.362 . S
C474 H466 0.930 . S
C474 C473 1.362 . S
C474 C477 1.409 . S
C475 H467 0.930 . S
C475 C476 1.355 . S
C475 C477 1.415 . S
C476 C475 1.355 . S
C476 C478 1.419 . S
C477 C472 1.425 . S
C477 C474 1.409 . S
C477 C475 1.415 . S
C478 H468 0.930 . S
C478 C476 1.419 . S
C478 C479 1.362 . S
C479 H469 0.930 . S
C479 C472 1.409 . S
C479 C478 1.362 . S
H480 C486 0.930 . S
H481 C489 0.930 . S
H482 C490 0.930 . S
H483 C491 0.930 . S
H484 C494 0.930 . S
H485 C495 0.930 . S
C486 H480 0.930 . S
C486 C487 1.355 . S
C486 C488 1.415 . S
C487 C486 1.355 . S
C487 C489 1.419 . S
C488 C486 1.415 . S
C488 C493 1.425 . S
C488 C495 1.409 . S
C489 H481 0.930 . S
C489 C487 1.419 . S
C489 C490 1.362 . S
C490 H482 0.930 . S
C490 C489 1.362 . S
C490 C493 1.409 . S
C491 H483 0.930 . S
C491 C492 1.355 . S
C491 C493 1.415 . S
C492 C491 1.355 . S
C492 C494 1.419 . S
C493 C488 1.425 . S
C493 C490 1.409 . S
C493 C491 1.415 . S
C494 H484 0.930 . S
C494 C492 1.419 . S
C494 C495 1.362 . S
C495 H485 0.930 . S
C495 C488 1.409 . S
C495 C494 1.362 . S
H496 C502 0.930 . S
H497 C505 0.930 . S
H498 C506 0.930 . S
H499 C507 0.930 . S
H500 C510 0.930 . S
H501 C511 0.930 . S
C502 H496 0.930 . S
C502 C503 1.355 . S
C502 C504 1.415 . S
C503 C502 1.355 . S
C503 C505 1.419 . S
C504 C502 1.415 . S
C504 C509 1.425 . S
C504 C511 1.409 . S
C505 H497 0.930 . S
C505 C503 1.419 . S
C505 C506 1.362 . S
C506 H498 0.930 . S
C506 C505 1.362 . S
C506 C509 1.409 . S
C507 H499 0.930 . S
C507 C508 1.355 . S
C507 C509 1.415 . S
C508 C507 1.355 . S
C508 C510 1.419 . S
C509 C504 1.425 . S
C509 C506 1.409 . S
C509 C507 1.415 . S
C510 H500 0.930 . S
C510 C508 1.419 . S
C510 C511 1.362 . S
C511 H501 0.930 . S
C511 C504 1.409 . S
C511 C510 1.362 . S
H512 C518 0.930 . S
H513 C521 0.930 . S
H514 C522 0.930 . S
H515 C523 0.930 . S
H516 C526 0.930 . S
H517 C527 0.930 . S
C518 H512 0.930 . S
C518 C519 1.355 . S
C518 C520 1.415 . S
C519 C518 1.355 . S
C519 C521 1.419 . S
C520 C518 1.415 . S
C520 C525 1.425 . S
C520 C527 1.409 . S
C521 H513 0.930 . S
C521 C519 1.419 . S
C521 C522 1.362 . S
C522 H514 0.930 . S
C522 C521 1.362 . S
C522 C525 1.409 . S
C523 H515 0.930 . S
C523 C524 1.355 . S
C523 C525 1.415 . S
C524 C523 1.355 . S
C524 C526 1.419 . S
C525 C520 1.425 . S
C525 C522 1.409 . S
C525 C523 1.415 . S
C526 H516 0.930 . S
C526 C524 1.419 . S
C526 C527 1.362 . S
C527 H517 0.930 . S
C527 C520 1.409 . S
C527 C526 1.362 . S
H528 C534 0.930 . S
H529 C537 0.930 . S
H530 C538 0.930 . S
H531 C539 0.930 . S
H532 C542 0.930 . S
H533 C543 0.930 . S
C534 H528 0.930 . S
C534 C535 1.355 . S
C534 C536 1.419 . S
C535 C534 1.355 . S
C535 C537 1.419 . S
C536 C534 1.419 . S
C536 C541 1.431 1_566 S
C536 C543 1.402 1_565 S
C537 H529 0.930 . S
C537 C535 1.419 . S
C537 C538 1.362 1_556 S
C538 H530 0.930 . S
C538 C537 1.362 1_554 S
C538 C541 1.402 1_565 S
C539 H531 0.930 . S
C539 C540 1.355 . S
C539 C541 1.419 . S
C540 C539 1.355 . S
C540 C542 1.419 . S
C541 C536 1.431 1_544 S
C541 C538 1.402 1_545 S
C541 C539 1.419 . S
C542 H532 0.930 . S
C542 C540 1.419 . S
C542 C543 1.362 1_554 S
C543 H533 0.930 . S
C543 C536 1.402 1_545 S
C543 C542 1.362 1_556 S
H544 C550 0.930 . S
H545 C553 0.930 . S
H546 C554 0.930 . S
H547 C555 0.930 . S
H548 C558 0.930 . S
H549 C559 0.930 . S
C550 H544 0.930 . S
C550 C551 1.355 . S
C550 C552 1.415 . S
C551 C550 1.355 . S
C551 C553 1.419 . S
C552 C550 1.415 . S
C552 C557 1.425 . S
C552 C559 1.409 . S
C553 H545 0.930 . S
C553 C551 1.419 . S
C553 C554 1.362 . S
C554 H546 0.930 . S
C554 C553 1.362 . S
C554 C557 1.409 . S
C555 H547 0.930 . S
C555 C556 1.355 . S
C555 C557 1.415 . S
C556 C555 1.355 . S
C556 C558 1.419 . S
C557 C552 1.425 . S
C557 C554 1.409 . S
C557 C555 1.415 . S
C558 H548 0.930 . S
C558 C556 1.419 . S
C558 C559 1.362 . S
C559 H549 0.930 . S
C559 C552 1.409 . S
C559 C558 1.362 . S
H560 C566 0.930 1_554 S
H561 C569 0.930 . S
H562 C570 0.930 . S
H563 C571 0.930 1_556 S
H564 C574 0.930 . S
H565 C575 0.930 . S
C566 H560 0.930 1_556 S
C566 C567 1.355 . S
C566 C568 1.415 1_556 S
C567 C566 1.355 . S
C567 C569 1.419 . S
C568 C566 1.415 1_554 S
C568 C573 1.425 1_454 S
C568 C575 1.409 . S
C569 H561 0.930 . S
C569 C567 1.419 . S
C569 C570 1.362 1_455 S
C570 H562 0.930 . S
C570 C569 1.362 1_655 S
C570 C573 1.409 . S
C571 H563 0.930 1_554 S
C571 C572 1.355 . S
C571 C573 1.415 1_554 S
C572 C571 1.355 . S
C572 C574 1.419 . S
C573 C568 1.425 1_656 S
C573 C570 1.409 . S
C573 C571 1.415 1_556 S
C574 H564 0.930 . S
C574 C572 1.419 . S
C574 C575 1.362 1_655 S
C575 H565 0.930 . S
C575 C568 1.409 . S
C575 C574 1.362 1_455 S
H576 C582 0.930 . S
H577 C585 0.930 . S
H578 C586 0.930 . S
H579 C587 0.930 . S
H580 C590 0.930 . S
H581 C591 0.930 . S
C582 H576 0.930 . S
C582 C583 1.355 . S
C582 C584 1.415 . S
C583 C582 1.355 . S
C583 C585 1.419 . S
C584 C582 1.415 . S
C584 C589 1.425 1_545 S
C584 C591 1.409 1_545 S
C585 H577 0.930 . S
C585 C583 1.419 . S
C585 C586 1.362 . S
C586 H578 0.930 . S
C586 C585 1.362 . S
C586 C589 1.409 1_545 S
C587 H579 0.930 . S
C587 C588 1.355 . S
C587 C589 1.415 . S
C588 C587 1.355 . S
C588 C590 1.419 . S
C589 C584 1.425 1_565 S
C589 C586 1.409 1_565 S
C589 C587 1.415 . S
C590 H580 0.930 . S
C590 C588 1.419 . S
C590 C591 1.362 . S
C591 H581 0.930 . S
C591 C584 1.409 1_565 S
C591 C590 1.362 . S
H592 C598 0.930 . S
H593 C601 0.930 . S
H594 C602 0.931 1_556 S
H595 C603 0.930 . S
H596 C606 0.930 . S
H597 C607 0.931 1_554 S
C598 H592 0.930 . S
C598 C599 1.355 . S
C598 C600 1.415 . S
C599 C598 1.355 . S
C599 C601 1.419 . S
C600 C598 1.415 . S
C600 C605 1.425 1_554 S
C600 C607 1.409 1_554 S
C601 H593 0.930 . S
C601 C599 1.419 . S
C601 C602 1.362 . S
C602 H594 0.931 1_554 S
C602 C601 1.362 . S
C602 C605 1.409 1_554 S
C603 H595 0.930 . S
C603 C604 1.355 . S
C603 C605 1.415 . S
C604 C603 1.355 . S
C604 C606 1.419 . S
C605 C600 1.425 1_556 S
C605 C602 1.409 1_556 S
C605 C603 1.415 . S
C606 H596 0.930 . S
C606 C604 1.419 . S
C606 C607 1.362 . S
C607 H597 0.931 1_556 S
C607 C600 1.409 1_556 S
C607 C606 1.362 . S
H608 C614 0.930 . S
H609 C617 0.930 . S
H610 C618 0.930 . S
H611 C619 0.930 . S
H612 C622 0.930 . S
H613 C623 0.930 . S
C614 H608 0.930 . S
C614 C615 1.355 . S
C614 C616 1.415 . S
C615 C614 1.355 . S
C615 C617 1.419 . S
C616 C614 1.415 . S
C616 C621 1.425 1_455 S
C616 C623 1.409 . S
C617 H609 0.930 . S
C617 C615 1.419 . S
C617 C618 1.362 1_455 S
C618 H610 0.930 . S
C618 C617 1.362 1_655 S
C618 C621 1.409 . S
C619 H611 0.930 . S
C619 C620 1.355 . S
C619 C621 1.415 . S
C620 C619 1.355 . S
C620 C622 1.419 . S
C621 C616 1.425 1_655 S
C621 C618 1.409 . S
C621 C619 1.415 . S
C622 H612 0.930 . S
C622 C620 1.419 . S
C622 C623 1.362 1_655 S
C623 H613 0.930 . S
C623 C616 1.409 . S
C623 C622 1.362 1_455 S
H624 C630 0.930 . S
H625 C633 0.930 . S
H626 C634 0.930 . S
H627 C635 0.930 . S
H628 C638 0.930 . S
H629 C639 0.930 . S
C630 H624 0.930 . S
C630 C631 1.355 . S
C630 C632 1.415 . S
C631 C630 1.355 . S
C631 C633 1.419 . S
C632 C630 1.415 . S
C632 C637 1.425 . S
C632 C639 1.409 . S
C633 H625 0.930 . S
C633 C631 1.419 . S
C633 C634 1.362 . S
C634 H626 0.930 . S
C634 C633 1.362 . S
C634 C637 1.409 . S
C635 H627 0.930 . S
C635 C636 1.355 . S
C635 C637 1.415 . S
C636 C635 1.355 . S
C636 C638 1.419 . S
C637 C632 1.425 . S
C637 C634 1.409 . S
C637 C635 1.415 . S
C638 H628 0.930 . S
C638 C636 1.419 . S
C638 C639 1.362 . S
C639 H629 0.930 . S
C639 C632 1.409 . S
C639 C638 1.362 . S
H640 C646 0.930 . S
H641 C649 0.930 . S
H642 C650 0.930 . S
H643 C651 0.930 . S
H644 C654 0.930 . S
H645 C655 0.930 . S
C646 H640 0.930 . S
C646 C647 1.355 . S
C646 C648 1.415 . S
C647 C646 1.355 . S
C647 C649 1.419 . S
C648 C646 1.415 . S
C648 C653 1.425 . S
C648 C655 1.409 . S
C649 H641 0.930 . S
C649 C647 1.419 . S
C649 C650 1.362 . S
C650 H642 0.930 . S
C650 C649 1.362 . S
C650 C653 1.409 . S
C651 H643 0.930 . S
C651 C652 1.355 . S
C651 C653 1.415 . S
C652 C651 1.355 . S
C652 C654 1.419 . S
C653 C648 1.425 . S
C653 C650 1.409 . S
C653 C651 1.415 . S
C654 H644 0.930 . S
C654 C652 1.419 . S
C654 C655 1.362 . S
C655 H645 0.930 . S
C655 C648 1.409 . S
C655 C654 1.362 . S
H656 C662 0.930 . S
H657 C665 0.930 . S
H658 C666 0.930 . S
H659 C667 0.930 . S
H660 C670 0.930 . S
H661 C671 0.930 . S
C662 H656 0.930 . S
C662 C663 1.355 . S
C662 C664 1.415 . S
C663 C662 1.355 . S
C663 C665 1.419 . S
C664 C662 1.415 . S
C664 C669 1.425 . S
C664 C671 1.409 . S
C665 H657 0.930 . S
C665 C663 1.419 . S
C665 C666 1.362 . S
C666 H658 0.930 . S
C666 C665 1.362 . S
C666 C669 1.409 . S
C667 H659 0.930 . S
C667 C668 1.355 . S
C667 C669 1.415 . S
C668 C667 1.355 . S
C668 C670 1.419 . S
C669 C664 1.425 . S
C669 C666 1.409 . S
C669 C667 1.415 . S
C670 H660 0.930 . S
C670 C668 1.419 . S
C670 C671 1.362 . S
C671 H661 0.930 . S
C671 C664 1.409 . S
C671 C670 1.362 . S
H672 C678 0.930 . S
H673 C681 0.930 . S
H674 C682 0.930 . S
H675 C683 0.930 . S
H676 C686 0.930 . S
H677 C687 0.930 . S
C678 H672 0.930 . S
C678 C679 1.355 . S
C678 C680 1.415 . S
C679 C678 1.355 . S
C679 C681 1.419 . S
C680 C678 1.415 . S
C680 C685 1.425 . S
C680 C687 1.409 . S
C681 H673 0.930 . S
C681 C679 1.419 . S
C681 C682 1.362 . S
C682 H674 0.930 . S
C682 C681 1.362 . S
C682 C685 1.409 . S
C683 H675 0.930 . S
C683 C684 1.355 . S
C683 C685 1.415 . S
C684 C683 1.355 . S
C684 C686 1.419 . S
C685 C680 1.425 . S
C685 C682 1.409 . S
C685 C683 1.415 . S
C686 H676 0.930 . S
C686 C684 1.419 . S
C686 C687 1.362 . S
C687 H677 0.930 . S
C687 C680 1.409 . S
C687 C686 1.362 . S
H688 C694 0.930 . S
H689 C697 0.930 . S
H690 C698 0.930 . S
H691 C699 0.930 . S
H692 C702 0.930 . S
H693 C703 0.930 . S
C694 H688 0.930 . S
C694 C695 1.355 . S
C694 C696 1.415 . S
C695 C694 1.355 . S
C695 C697 1.419 . S
C696 C694 1.415 . S
C696 C701 1.425 . S
C696 C703 1.409 . S
C697 H689 0.930 . S
C697 C695 1.419 . S
C697 C698 1.362 . S
C698 H690 0.930 . S
C698 C697 1.362 . S
C698 C701 1.409 . S
C699 H691 0.930 . S
C699 C700 1.355 . S
C699 C701 1.415 . S
C700 C699 1.355 . S
C700 C702 1.419 . S
C701 C696 1.425 . S
C701 C698 1.409 . S
C701 C699 1.415 . S
C702 H692 0.930 . S
C702 C700 1.419 . S
C702 C703 1.362 . S
C703 H693 0.930 . S
C703 C696 1.409 . S
C703 C702 1.362 . S
H704 C710 0.930 . S
H705 C713 0.930 . S
H706 C714 0.930 . S
H707 C715 0.930 . S
H708 C718 0.930 . S
H709 C719 0.930 . S
C710 H704 0.930 . S
C710 C711 1.355 . S
C710 C712 1.415 . S
C711 C710 1.355 . S
C711 C713 1.419 . S
C712 C710 1.415 . S
C712 C717 1.425 . S
C712 C719 1.409 . S
C713 H705 0.930 . S
C713 C711 1.419 . S
C713 C714 1.362 . S
C714 H706 0.930 . S
C714 C713 1.362 . S
C714 C717 1.409 . S
C715 H707 0.930 . S
C715 C716 1.355 . S
C715 C717 1.415 . S
C716 C715 1.355 . S
C716 C718 1.419 . S
C717 C712 1.425 . S
C717 C714 1.409 . S
C717 C715 1.415 . S
C718 H708 0.930 . S
C718 C716 1.419 . S
C718 C719 1.362 . S
C719 H709 0.930 . S
C719 C712 1.409 . S
C719 C718 1.362 . S
H720 C726 0.930 . S
H721 C729 0.930 . S
H722 C730 0.930 . S
H723 C731 0.930 . S
H724 C734 0.930 . S
H725 C735 0.930 . S
C726 H720 0.930 . S
C726 C727 1.355 . S
C726 C728 1.415 . S
C727 C726 1.355 . S
C727 C729 1.419 . S
C728 C726 1.415 . S
C728 C733 1.425 . S
C728 C735 1.409 . S
C729 H721 0.930 . S
C729 C727 1.419 . S
C729 C730 1.362 . S
C730 H722 0.930 . S
C730 C729 1.362 . S
C730 C733 1.409 . S
C731 H723 0.930 . S
C731 C732 1.355 . S
C731 C733 1.415 . S
C732 C731 1.355 . S
C732 C734 1.419 . S
C733 C728 1.425 . S
C733 C730 1.409 . S
C733 C731 1.415 . S
C734 H724 0.930 . S
C734 C732 1.419 . S
C734 C735 1.362 . S
C735 H725 0.930 . S
C735 C728 1.409 . S
C735 C734 1.362 . S
H736 C742 0.930 . S
H737 C745 0.930 . S
H738 C746 0.930 . S
H739 C747 0.930 . S
H740 C750 0.930 . S
H741 C751 0.930 . S
C742 H736 0.930 . S
C742 C743 1.355 . S
C742 C744 1.415 . S
C743 C742 1.355 . S
C743 C745 1.419 . S
C744 C742 1.415 . S
C744 C749 1.425 . S
C744 C751 1.409 . S
C745 H737 0.930 . S
C745 C743 1.419 . S
C745 C746 1.362 . S
C746 H738 0.930 . S
C746 C745 1.362 . S
C746 C749 1.409 . S
C747 H739 0.930 . S
C747 C748 1.355 . S
C747 C749 1.415 . S
C748 C747 1.355 . S
C748 C750 1.419 . S
C749 C744 1.425 . S
C749 C746 1.409 . S
C749 C747 1.415 . S
C750 H740 0.930 . S
C750 C748 1.419 . S
C750 C751 1.362 . S
C751 H741 0.930 . S
C751 C744 1.409 . S
C751 C750 1.362 . S
H752 C758 0.930 . S
H753 C761 0.930 . S
H754 C762 0.930 . S
H755 C763 0.930 . S
H756 C766 0.930 . S
H757 C767 0.930 . S
C758 H752 0.930 . S
C758 C759 1.355 . S
C758 C760 1.415 . S
C759 C758 1.355 . S
C759 C761 1.419 . S
C760 C758 1.415 . S
C760 C765 1.425 . S
C760 C767 1.409 . S
C761 H753 0.930 . S
C761 C759 1.419 . S
C761 C762 1.362 . S
C762 H754 0.930 . S
C762 C761 1.362 . S
C762 C765 1.409 . S
C763 H755 0.930 . S
C763 C764 1.355 . S
C763 C765 1.415 . S
C764 C763 1.355 . S
C764 C766 1.419 . S
C765 C760 1.425 . S
C765 C762 1.409 . S
C765 C763 1.415 . S
C766 H756 0.930 . S
C766 C764 1.419 . S
C766 C767 1.362 . S
C767 H757 0.930 . S
C767 C760 1.409 . S
C767 C766 1.362 . S
H768 C774 0.930 . S
H769 C777 0.930 . S
H770 C778 0.930 . S
H771 C779 0.930 . S
H772 C782 0.930 . S
H773 C783 0.930 . S
C774 H768 0.930 . S
C774 C775 1.355 . S
C774 C776 1.415 . S
C775 C774 1.355 . S
C775 C777 1.419 . S
C776 C774 1.415 . S
C776 C781 1.425 . S
C776 C783 1.409 . S
C777 H769 0.930 . S
C777 C775 1.419 . S
C777 C778 1.362 . S
C778 H770 0.930 . S
C778 C777 1.362 . S
C778 C781 1.409 . S
C779 H771 0.930 . S
C779 C780 1.355 . S
C779 C781 1.415 . S
C780 C779 1.355 . S
C780 C782 1.419 . S
C781 C776 1.425 . S
C781 C778 1.409 . S
C781 C779 1.415 . S
C782 H772 0.930 . S
C782 C780 1.419 . S
C782 C783 1.362 . S
C783 H773 0.930 . S
C783 C776 1.409 . S
C783 C782 1.362 . S
H784 C790 0.930 . S
H785 C793 0.930 . S
H786 C794 0.930 . S
H787 C795 0.930 . S
H788 C798 0.930 . S
H789 C799 0.930 . S
C790 H784 0.930 . S
C790 C791 1.355 . S
C790 C792 1.415 . S
C791 C790 1.355 . S
C791 C793 1.419 . S
C792 C790 1.415 . S
C792 C797 1.425 . S
C792 C799 1.409 . S
C793 H785 0.930 . S
C793 C791 1.419 . S
C793 C794 1.362 . S
C794 H786 0.930 . S
C794 C793 1.362 . S
C794 C797 1.409 . S
C795 H787 0.930 . S
C795 C796 1.355 . S
C795 C797 1.415 . S
C796 C795 1.355 . S
C796 C798 1.419 . S
C797 C792 1.425 . S
C797 C794 1.409 . S
C797 C795 1.415 . S
C798 H788 0.930 . S
C798 C796 1.419 . S
C798 C799 1.362 . S
C799 H789 0.930 . S
C799 C792 1.409 . S
C799 C798 1.362 . S
H800 C806 0.930 . S
H801 C809 0.930 . S
H802 C810 0.930 . S
H803 C811 0.930 . S
H804 C814 0.930 . S
H805 C815 0.930 . S
C806 H800 0.930 . S
C806 C807 1.355 . S
C806 C808 1.415 . S
C807 C806 1.355 . S
C807 C809 1.419 . S
C808 C806 1.415 . S
C808 C813 1.425 . S
C808 C815 1.409 . S
C809 H801 0.930 . S
C809 C807 1.419 . S
C809 C810 1.362 . S
C810 H802 0.930 . S
C810 C809 1.362 . S
C810 C813 1.409 . S
C811 H803 0.930 . S
C811 C812 1.355 . S
C811 C813 1.415 . S
C812 C811 1.355 . S
C812 C814 1.419 . S
C813 C808 1.425 . S
C813 C810 1.409 . S
C813 C811 1.415 . S
C814 H804 0.930 . S
C814 C812 1.419 . S
C814 C815 1.362 . S
C815 H805 0.930 . S
C815 C808 1.409 . S
C815 C814 1.362 . S
C247 C45 2.067 1_455 S
C252 C8 1.693 . S
C263 C65 2.074 1_565 S
C268 C28 1.779 . S
C279 C48 1.765 . S
C284 C85 2.070 . S
C295 C68 1.696 . S
C300 C105 2.067 1_455 S
C311 C5 2.082 1_565 S
C316 C88 1.705 . S
C327 C25 2.083 . S
C332 C108 1.706 . S
C343 C205 2.066 1_545 S
C348 C128 1.722 . S
C359 C148 1.678 . S
C364 C225 2.071 . S
C375 C168 1.774 . S
C380 C125 2.085 1_655 S
C391 C188 1.744 . S
C396 C145 2.086 1_545 S
C407 C208 1.786 . S
C412 C165 2.077 . S
C423 C185 2.084 1_655 S
C428 C228 1.714 . S
C439 C62 1.830 . S
C444 C2 1.822 . S
C455 C22 1.851 . S
C460 C82 1.800 . S
C471 C42 1.798 . S
C476 C102 1.853 . S
C487 C122 1.814 . S
C492 C182 1.837 . S
C503 C142 1.804 . S
C508 C202 1.848 . S
C519 C162 1.820 . S
C524 C222 1.832 . S
C535 C153 1.884 . S
C540 C13 1.921 . S
C551 C33 1.885 . S
C556 C173 1.922 . S
C567 C193 1.893 . S
C572 C53 1.866 . S
C583 C73 1.906 . S
C588 C213 1.871 . S
C599 C93 1.880 . S
C604 C233 1.917 . S
C615 C133 1.865 . S
C620 C113 1.890 . S
C631 C57 1.753 . S
C636 C14 1.841 . S
C647 C34 1.867 . S
C652 C77 1.741 . S
C663 C54 1.877 . S
C668 C97 1.695 . S
C679 C74 1.842 . S
C684 C117 1.775 . S
C695 C17 1.696 . S
C700 C94 1.864 . S
C711 C37 1.775 . S
C716 C114 1.842 . S
C727 C217 1.770 . S
C732 C134 1.840 . S
C743 C154 1.853 . S
C748 C237 1.716 . S
C759 C174 1.869 . S
C764 C137 1.738 . S
C775 C157 1.762 . S
C780 C194 1.857 . S
C791 C214 1.869 . S
C796 C177 1.691 . S
C807 C234 1.877 . S
C812 C197 1.705 . S
