# Generated by pormake.
# Topology fno, (5)-cn, num edge types: 1
# Building blocks:
#     Node 0, Type 0, BuildingBlock: BEQFEK_clean_sbu_0, # of connection points: 5
#     Node 1, Type 0, BuildingBlock: BEQFEK_clean_sbu_0, # of connection points: 5
#     Node 2, Type 0, BuildingBlock: BEQFEK_clean_sbu_0, # of connection points: 5
#     Node 3, Type 0, BuildingBlock: BEQFEK_clean_sbu_0, # of connection points: 5
#     Node 4, Type 0, BuildingBlock: BEQFEK_clean_sbu_0, # of connection points: 5
#     Node 5, Type 0, BuildingBlock: BEQFEK_clean_sbu_0, # of connection points: 5
#     Node 6, Type 0, BuildingBlock: BEQFEK_clean_sbu_0, # of connection points: 5
#     Node 7, Type 0, BuildingBlock: BEQFEK_clean_sbu_0, # of connection points: 5
#     Node 8, Type 0, BuildingBlock: BEQFEK_clean_sbu_0, # of connection points: 5
#     Node 9, Type 0, BuildingBlock: BEQFEK_clean_sbu_0, # of connection points: 5
#     Node 10, Type 0, BuildingBlock: BEQFEK_clean_sbu_0, # of connection points: 5
#     Node 11, Type 0, BuildingBlock: BEQFEK_clean_sbu_0, # of connection points: 5
#     Node 12, Type 0, BuildingBlock: BEQFEK_clean_sbu_0, # of connection points: 5
#     Node 13, Type 0, BuildingBlock: BEQFEK_clean_sbu_0, # of connection points: 5
#     Node 14, Type 0, BuildingBlock: BEQFEK_clean_sbu_0, # of connection points: 5
#     Node 15, Type 0, BuildingBlock: BEQFEK_clean_sbu_0, # of connection points: 5
#     Node 16, Type 0, BuildingBlock: BEQFEK_clean_sbu_0, # of connection points: 5
#     Node 17, Type 0, BuildingBlock: BEQFEK_clean_sbu_0, # of connection points: 5
#     Node 18, Type 0, BuildingBlock: BEQFEK_clean_sbu_0, # of connection points: 5
#     Node 19, Type 0, BuildingBlock: BEQFEK_clean_sbu_0, # of connection points: 5
#     Node 20, Type 0, BuildingBlock: BEQFEK_clean_sbu_0, # of connection points: 5
#     Node 21, Type 0, BuildingBlock: BEQFEK_clean_sbu_0, # of connection points: 5
#     Node 22, Type 0, BuildingBlock: BEQFEK_clean_sbu_0, # of connection points: 5
#     Node 23, Type 0, BuildingBlock: BEQFEK_clean_sbu_0, # of connection points: 5
#     Node 24, Type 0, BuildingBlock: BEQFEK_clean_sbu_0, # of connection points: 5
#     Node 25, Type 0, BuildingBlock: BEQFEK_clean_sbu_0, # of connection points: 5
#     Node 26, Type 0, BuildingBlock: BEQFEK_clean_sbu_0, # of connection points: 5
#     Node 27, Type 0, BuildingBlock: BEQFEK_clean_sbu_0, # of connection points: 5
#     Node 28, Type 0, BuildingBlock: BEQFEK_clean_sbu_0, # of connection points: 5
#     Node 29, Type 0, BuildingBlock: BEQFEK_clean_sbu_0, # of connection points: 5
#     Node 30, Type 0, BuildingBlock: BEQFEK_clean_sbu_0, # of connection points: 5
#     Node 31, Type 0, BuildingBlock: BEQFEK_clean_sbu_0, # of connection points: 5
#     Node 32, Type 0, BuildingBlock: BEQFEK_clean_sbu_0, # of connection points: 5
#     Node 33, Type 0, BuildingBlock: BEQFEK_clean_sbu_0, # of connection points: 5
#     Node 34, Type 0, BuildingBlock: BEQFEK_clean_sbu_0, # of connection points: 5
#     Node 35, Type 0, BuildingBlock: BEQFEK_clean_sbu_0, # of connection points: 5
#     Node 36, Type 0, BuildingBlock: BEQFEK_clean_sbu_0, # of connection points: 5
#     Node 37, Type 0, BuildingBlock: BEQFEK_clean_sbu_0, # of connection points: 5
#     Node 38, Type 0, BuildingBlock: BEQFEK_clean_sbu_0, # of connection points: 5
#     Node 39, Type 0, BuildingBlock: BEQFEK_clean_sbu_0, # of connection points: 5
#     Node 40, Type 0, BuildingBlock: BEQFEK_clean_sbu_0, # of connection points: 5
#     Node 41, Type 0, BuildingBlock: BEQFEK_clean_sbu_0, # of connection points: 5
#     Node 42, Type 0, BuildingBlock: BEQFEK_clean_sbu_0, # of connection points: 5
#     Node 43, Type 0, BuildingBlock: BEQFEK_clean_sbu_0, # of connection points: 5
#     Node 44, Type 0, BuildingBlock: BEQFEK_clean_sbu_0, # of connection points: 5
#     Node 45, Type 0, BuildingBlock: BEQFEK_clean_sbu_0, # of connection points: 5
#     Node 46, Type 0, BuildingBlock: BEQFEK_clean_sbu_0, # of connection points: 5
#     Node 47, Type 0, BuildingBlock: BEQFEK_clean_sbu_0, # of connection points: 5
#     Edge 48, Type (0, 0), BuildingBlock: CIFDUS_clean_linker_0, # of connection points: 2
#     Edge 49, Type (0, 0), BuildingBlock: CIFDUS_clean_linker_0, # of connection points: 2
#     Edge 50, Type (0, 0), BuildingBlock: CIFDUS_clean_linker_0, # of connection points: 2
#     Edge 51, Type (0, 0), BuildingBlock: CIFDUS_clean_linker_0, # of connection points: 2
#     Edge 52, Type (0, 0), BuildingBlock: CIFDUS_clean_linker_0, # of connection points: 2
#     Edge 53, Type (0, 0), BuildingBlock: CIFDUS_clean_linker_0, # of connection points: 2
#     Edge 54, Type (0, 0), BuildingBlock: CIFDUS_clean_linker_0, # of connection points: 2
#     Edge 55, Type (0, 0), BuildingBlock: CIFDUS_clean_linker_0, # of connection points: 2
#     Edge 56, Type (0, 0), BuildingBlock: CIFDUS_clean_linker_0, # of connection points: 2
#     Edge 57, Type (0, 0), BuildingBlock: CIFDUS_clean_linker_0, # of connection points: 2
#     Edge 58, Type (0, 0), BuildingBlock: CIFDUS_clean_linker_0, # of connection points: 2
#     Edge 59, Type (0, 0), BuildingBlock: CIFDUS_clean_linker_0, # of connection points: 2
#     Edge 60, Type (0, 0), BuildingBlock: CIFDUS_clean_linker_0, # of connection points: 2
#     Edge 61, Type (0, 0), BuildingBlock: CIFDUS_clean_linker_0, # of connection points: 2
#     Edge 62, Type (0, 0), BuildingBlock: CIFDUS_clean_linker_0, # of connection points: 2
#     Edge 63, Type (0, 0), BuildingBlock: CIFDUS_clean_linker_0, # of connection points: 2
#     Edge 64, Type (0, 0), BuildingBlock: CIFDUS_clean_linker_0, # of connection points: 2
#     Edge 65, Type (0, 0), BuildingBlock: CIFDUS_clean_linker_0, # of connection points: 2
#     Edge 66, Type (0, 0), BuildingBlock: CIFDUS_clean_linker_0, # of connection points: 2
#     Edge 67, Type (0, 0), BuildingBlock: CIFDUS_clean_linker_0, # of connection points: 2
#     Edge 68, Type (0, 0), BuildingBlock: CIFDUS_clean_linker_0, # of connection points: 2
#     Edge 69, Type (0, 0), BuildingBlock: CIFDUS_clean_linker_0, # of connection points: 2
#     Edge 70, Type (0, 0), BuildingBlock: CIFDUS_clean_linker_0, # of connection points: 2
#     Edge 71, Type (0, 0), BuildingBlock: CIFDUS_clean_linker_0, # of connection points: 2
#     Edge 72, Type (0, 0), BuildingBlock: CIFDUS_clean_linker_0, # of connection points: 2
#     Edge 73, Type (0, 0), BuildingBlock: CIFDUS_clean_linker_0, # of connection points: 2
#     Edge 74, Type (0, 0), BuildingBlock: CIFDUS_clean_linker_0, # of connection points: 2
#     Edge 75, Type (0, 0), BuildingBlock: CIFDUS_clean_linker_0, # of connection points: 2
#     Edge 76, Type (0, 0), BuildingBlock: CIFDUS_clean_linker_0, # of connection points: 2
#     Edge 77, Type (0, 0), BuildingBlock: CIFDUS_clean_linker_0, # of connection points: 2
#     Edge 78, Type (0, 0), BuildingBlock: CIFDUS_clean_linker_0, # of connection points: 2
#     Edge 79, Type (0, 0), BuildingBlock: CIFDUS_clean_linker_0, # of connection points: 2
#     Edge 80, Type (0, 0), BuildingBlock: CIFDUS_clean_linker_0, # of connection points: 2
#     Edge 81, Type (0, 0), BuildingBlock: CIFDUS_clean_linker_0, # of connection points: 2
#     Edge 82, Type (0, 0), BuildingBlock: CIFDUS_clean_linker_0, # of connection points: 2
#     Edge 83, Type (0, 0), BuildingBlock: CIFDUS_clean_linker_0, # of connection points: 2
#     Edge 84, Type (0, 0), BuildingBlock: CIFDUS_clean_linker_0, # of connection points: 2
#     Edge 85, Type (0, 0), BuildingBlock: CIFDUS_clean_linker_0, # of connection points: 2
#     Edge 86, Type (0, 0), BuildingBlock: CIFDUS_clean_linker_0, # of connection points: 2
#     Edge 87, Type (0, 0), BuildingBlock: CIFDUS_clean_linker_0, # of connection points: 2
#     Edge 88, Type (0, 0), BuildingBlock: CIFDUS_clean_linker_0, # of connection points: 2
#     Edge 89, Type (0, 0), BuildingBlock: CIFDUS_clean_linker_0, # of connection points: 2
#     Edge 90, Type (0, 0), BuildingBlock: CIFDUS_clean_linker_0, # of connection points: 2
#     Edge 91, Type (0, 0), BuildingBlock: CIFDUS_clean_linker_0, # of connection points: 2
#     Edge 92, Type (0, 0), BuildingBlock: CIFDUS_clean_linker_0, # of connection points: 2
#     Edge 93, Type (0, 0), BuildingBlock: CIFDUS_clean_linker_0, # of connection points: 2
#     Edge 94, Type (0, 0), BuildingBlock: CIFDUS_clean_linker_0, # of connection points: 2
#     Edge 95, Type (0, 0), BuildingBlock: CIFDUS_clean_linker_0, # of connection points: 2
#     Edge 96, Type (0, 0), BuildingBlock: CIFDUS_clean_linker_0, # of connection points: 2
#     Edge 97, Type (0, 0), BuildingBlock: CIFDUS_clean_linker_0, # of connection points: 2
#     Edge 98, Type (0, 0), BuildingBlock: CIFDUS_clean_linker_0, # of connection points: 2
#     Edge 99, Type (0, 0), BuildingBlock: CIFDUS_clean_linker_0, # of connection points: 2
#     Edge 100, Type (0, 0), BuildingBlock: CIFDUS_clean_linker_0, # of connection points: 2
#     Edge 101, Type (0, 0), BuildingBlock: CIFDUS_clean_linker_0, # of connection points: 2
#     Edge 102, Type (0, 0), BuildingBlock: CIFDUS_clean_linker_0, # of connection points: 2
#     Edge 103, Type (0, 0), BuildingBlock: CIFDUS_clean_linker_0, # of connection points: 2
#     Edge 104, Type (0, 0), BuildingBlock: CIFDUS_clean_linker_0, # of connection points: 2
#     Edge 105, Type (0, 0), BuildingBlock: CIFDUS_clean_linker_0, # of connection points: 2
#     Edge 106, Type (0, 0), BuildingBlock: CIFDUS_clean_linker_0, # of connection points: 2
#     Edge 107, Type (0, 0), BuildingBlock: CIFDUS_clean_linker_0, # of connection points: 2
#     Edge 108, Type (0, 0), BuildingBlock: CIFDUS_clean_linker_0, # of connection points: 2
#     Edge 109, Type (0, 0), BuildingBlock: CIFDUS_clean_linker_0, # of connection points: 2
#     Edge 110, Type (0, 0), BuildingBlock: CIFDUS_clean_linker_0, # of connection points: 2
#     Edge 111, Type (0, 0), BuildingBlock: CIFDUS_clean_linker_0, # of connection points: 2
#     Edge 112, Type (0, 0), BuildingBlock: CIFDUS_clean_linker_0, # of connection points: 2
#     Edge 113, Type (0, 0), BuildingBlock: CIFDUS_clean_linker_0, # of connection points: 2
#     Edge 114, Type (0, 0), BuildingBlock: CIFDUS_clean_linker_0, # of connection points: 2
#     Edge 115, Type (0, 0), BuildingBlock: CIFDUS_clean_linker_0, # of connection points: 2
#     Edge 116, Type (0, 0), BuildingBlock: CIFDUS_clean_linker_0, # of connection points: 2
#     Edge 117, Type (0, 0), BuildingBlock: CIFDUS_clean_linker_0, # of connection points: 2
#     Edge 118, Type (0, 0), BuildingBlock: CIFDUS_clean_linker_0, # of connection points: 2
#     Edge 119, Type (0, 0), BuildingBlock: CIFDUS_clean_linker_0, # of connection points: 2
#     Edge 120, Type (0, 0), BuildingBlock: CIFDUS_clean_linker_0, # of connection points: 2
#     Edge 121, Type (0, 0), BuildingBlock: CIFDUS_clean_linker_0, # of connection points: 2
#     Edge 122, Type (0, 0), BuildingBlock: CIFDUS_clean_linker_0, # of connection points: 2
#     Edge 123, Type (0, 0), BuildingBlock: CIFDUS_clean_linker_0, # of connection points: 2
#     Edge 124, Type (0, 0), BuildingBlock: CIFDUS_clean_linker_0, # of connection points: 2
#     Edge 125, Type (0, 0), BuildingBlock: CIFDUS_clean_linker_0, # of connection points: 2
#     Edge 126, Type (0, 0), BuildingBlock: CIFDUS_clean_linker_0, # of connection points: 2
#     Edge 127, Type (0, 0), BuildingBlock: CIFDUS_clean_linker_0, # of connection points: 2
#     Edge 128, Type (0, 0), BuildingBlock: CIFDUS_clean_linker_0, # of connection points: 2
#     Edge 129, Type (0, 0), BuildingBlock: CIFDUS_clean_linker_0, # of connection points: 2
#     Edge 130, Type (0, 0), BuildingBlock: CIFDUS_clean_linker_0, # of connection points: 2
#     Edge 131, Type (0, 0), BuildingBlock: CIFDUS_clean_linker_0, # of connection points: 2
#     Edge 132, Type (0, 0), BuildingBlock: CIFDUS_clean_linker_0, # of connection points: 2
#     Edge 133, Type (0, 0), BuildingBlock: CIFDUS_clean_linker_0, # of connection points: 2
#     Edge 134, Type (0, 0), BuildingBlock: CIFDUS_clean_linker_0, # of connection points: 2
#     Edge 135, Type (0, 0), BuildingBlock: CIFDUS_clean_linker_0, # of connection points: 2
#     Edge 136, Type (0, 0), BuildingBlock: CIFDUS_clean_linker_0, # of connection points: 2
#     Edge 137, Type (0, 0), BuildingBlock: CIFDUS_clean_linker_0, # of connection points: 2
#     Edge 138, Type (0, 0), BuildingBlock: CIFDUS_clean_linker_0, # of connection points: 2
#     Edge 139, Type (0, 0), BuildingBlock: CIFDUS_clean_linker_0, # of connection points: 2
#     Edge 140, Type (0, 0), BuildingBlock: CIFDUS_clean_linker_0, # of connection points: 2
#     Edge 141, Type (0, 0), BuildingBlock: CIFDUS_clean_linker_0, # of connection points: 2
#     Edge 142, Type (0, 0), BuildingBlock: CIFDUS_clean_linker_0, # of connection points: 2
#     Edge 143, Type (0, 0), BuildingBlock: CIFDUS_clean_linker_0, # of connection points: 2
#     Edge 144, Type (0, 0), BuildingBlock: CIFDUS_clean_linker_0, # of connection points: 2
#     Edge 145, Type (0, 0), BuildingBlock: CIFDUS_clean_linker_0, # of connection points: 2
#     Edge 146, Type (0, 0), BuildingBlock: CIFDUS_clean_linker_0, # of connection points: 2
#     Edge 147, Type (0, 0), BuildingBlock: CIFDUS_clean_linker_0, # of connection points: 2
#     Edge 148, Type (0, 0), BuildingBlock: CIFDUS_clean_linker_0, # of connection points: 2
#     Edge 149, Type (0, 0), BuildingBlock: CIFDUS_clean_linker_0, # of connection points: 2
#     Edge 150, Type (0, 0), BuildingBlock: CIFDUS_clean_linker_0, # of connection points: 2
#     Edge 151, Type (0, 0), BuildingBlock: CIFDUS_clean_linker_0, # of connection points: 2
#     Edge 152, Type (0, 0), BuildingBlock: CIFDUS_clean_linker_0, # of connection points: 2
#     Edge 153, Type (0, 0), BuildingBlock: CIFDUS_clean_linker_0, # of connection points: 2
#     Edge 154, Type (0, 0), BuildingBlock: CIFDUS_clean_linker_0, # of connection points: 2
#     Edge 155, Type (0, 0), BuildingBlock: CIFDUS_clean_linker_0, # of connection points: 2
#     Edge 156, Type (0, 0), BuildingBlock: CIFDUS_clean_linker_0, # of connection points: 2
#     Edge 157, Type (0, 0), BuildingBlock: CIFDUS_clean_linker_0, # of connection points: 2
#     Edge 158, Type (0, 0), BuildingBlock: CIFDUS_clean_linker_0, # of connection points: 2
#     Edge 159, Type (0, 0), BuildingBlock: CIFDUS_clean_linker_0, # of connection points: 2
#     Edge 160, Type (0, 0), BuildingBlock: CIFDUS_clean_linker_0, # of connection points: 2
#     Edge 161, Type (0, 0), BuildingBlock: CIFDUS_clean_linker_0, # of connection points: 2
#     Edge 162, Type (0, 0), BuildingBlock: CIFDUS_clean_linker_0, # of connection points: 2
#     Edge 163, Type (0, 0), BuildingBlock: CIFDUS_clean_linker_0, # of connection points: 2
#     Edge 164, Type (0, 0), BuildingBlock: CIFDUS_clean_linker_0, # of connection points: 2
#     Edge 165, Type (0, 0), BuildingBlock: CIFDUS_clean_linker_0, # of connection points: 2
#     Edge 166, Type (0, 0), BuildingBlock: CIFDUS_clean_linker_0, # of connection points: 2
#     Edge 167, Type (0, 0), BuildingBlock: CIFDUS_clean_linker_0, # of connection points: 2
# Relax obj value: 0.220
# Max RMSD: 0.143
# Mean RMSD: 0.129
data_MOF--net-fno--node1-BEQFEK_clean_sbu_0--edge1-CIFDUS_clean_linker_0
_symmetry_space_group_name_H-M    P1
_symmetry_Int_Tables_number       1
_symmetry_cell_setting            triclinic
loop_
_symmetry_equiv_pos_as_xyz
'x, y, z'
_cell_length_a     54.010823
_cell_length_b     54.275368
_cell_length_c     53.419529
_cell_angle_alpha  90.158434
_cell_angle_beta   90.213664
_cell_angle_gamma 90.3725
loop_
_atom_site_label
_atom_site_type_symbol
_atom_site_fract_x
_atom_site_fract_y
_atom_site_fract_z
_atom_type_partial_charge
Co0 Co 0.0961 0.34752 0.08253 0.0
Co1 Co 0.08638 0.35938 0.13897 0.0
C2 C 0.13768 0.35311 0.11709 0.0
O3 O 0.13037 0.34571 0.09568 0.0
O4 O 0.12236 0.35942 0.13386 0.0
C5 C 0.11176 0.35869 0.03614 0.0
O6 O 0.12497 0.37279 0.05121 0.0
C7 C 0.09741 0.35305 0.19171 0.0
C8 C 0.07204 0.37963 0.20942 0.0
C9 C 0.09173 0.36412 0.21432 0.0
N10 N 0.08189 0.36174 0.17416 0.0
N11 N 0.06648 0.3773 0.18493 0.0
C12 C 0.11932 0.33723 0.18605 0.0
H13 H 0.136 0.34911 0.18418 0.0
H14 H 0.11632 0.3269 0.16834 0.0
H15 H 0.12282 0.32396 0.20135 0.0
C16 C 0.06226 0.30555 0.09452 0.0
N17 N 0.0747 0.32627 0.10066 0.0
N18 N 0.07143 0.33093 0.12463 0.0
C19 C 0.05724 0.3131 0.13466 0.0
C20 C 0.05075 0.29643 0.1159 0.0
C21 C 0.06094 0.29527 0.06853 0.0
H22 H 0.07677 0.28266 0.06562 0.0
H23 H 0.04345 0.28482 0.06553 0.0
H24 H 0.06229 0.31033 0.05462 0.0
O25 O 0.08539 0.38194 0.08546 0.0
O26 O 0.07384 0.39004 0.12419 0.0
H27 H 0.03933 0.32627 0.1677 0.0
H28 H 0.04372 0.29316 0.16722 0.0
C29 C 0.05196 0.31119 0.16211 0.0
H30 H 0.06943 0.31346 0.17278 0.0
H31 H 0.05326 0.38755 0.17525 0.0
O32 O 0.0971 0.34287 0.04574 0.0
C33 C 0.07672 0.3967 0.10161 0.0
Co34 Co 0.89659 0.85136 0.35029 0.0
Co35 Co 0.89223 0.84644 0.40811 0.0
C36 C 0.89819 0.89603 0.38232 0.0
O37 O 0.90108 0.88664 0.3606 0.0
O38 O 0.89494 0.88235 0.40137 0.0
C39 C 0.88151 0.86219 0.3028 0.0
O40 O 0.86899 0.87768 0.31675 0.0
C41 C 0.9062 0.85658 0.45973 0.0
C42 C 0.87779 0.83521 0.4801 0.0
C43 C 0.89655 0.85245 0.48329 0.0
N44 N 0.89349 0.84263 0.44326 0.0
N45 N 0.87693 0.82945 0.45561 0.0
C46 C 0.92483 0.87578 0.45261 0.0
H47 H 0.93098 0.8731 0.433 0.0
H48 H 0.9411 0.8749 0.46531 0.0
H49 H 0.91651 0.89429 0.45473 0.0
C50 C 0.93704 0.8139 0.35948 0.0
N51 N 0.91879 0.82911 0.36716 0.0
N52 N 0.91687 0.82746 0.39165 0.0
C53 C 0.93377 0.81136 0.40031 0.0
C54 C 0.94729 0.80212 0.38027 0.0
C55 C 0.94493 0.81128 0.33282 0.0
H56 H 0.94308 0.82915 0.32298 0.0
H57 H 0.96431 0.80471 0.33159 0.0
H58 H 0.93263 0.79767 0.32336 0.0
O59 O 0.86124 0.84423 0.35744 0.0
O60 O 0.85824 0.83707 0.39802 0.0
H61 H 0.91744 0.80009 0.43492 0.0
H62 H 0.94795 0.78777 0.42971 0.0
C63 C 0.93606 0.80417 0.42725 0.0
H64 H 0.94404 0.81985 0.43802 0.0
H65 H 0.86388 0.81786 0.44711 0.0
O66 O 0.89757 0.84855 0.31328 0.0
C67 C 0.84831 0.83896 0.37652 0.0
Co68 Co 0.40139 0.64654 0.65708 0.0
Co69 Co 0.39683 0.65437 0.59907 0.0
C70 C 0.40506 0.60456 0.62142 0.0
O71 O 0.40677 0.61268 0.64376 0.0
O72 O 0.40141 0.61889 0.60301 0.0
C73 C 0.38937 0.63082 0.70399 0.0
O74 O 0.37577 0.61647 0.68954 0.0
C75 C 0.39915 0.64773 0.54463 0.0
C76 C 0.39187 0.6854 0.53098 0.0
C77 C 0.39603 0.66148 0.52314 0.0
N78 N 0.39684 0.66278 0.56448 0.0
N79 N 0.39243 0.68527 0.55619 0.0
C80 C 0.40467 0.6208 0.54619 0.0
H81 H 0.42014 0.61778 0.55952 0.0
H82 H 0.40981 0.61309 0.52769 0.0
H83 H 0.38806 0.61095 0.55318 0.0
C84 C 0.44085 0.68435 0.65066 0.0
N85 N 0.42249 0.6699 0.64166 0.0
N86 N 0.42141 0.67218 0.61717 0.0
C87 C 0.43972 0.68736 0.60966 0.0
C88 C 0.45244 0.69594 0.63063 0.0
C89 C 0.44656 0.6873 0.67793 0.0
H90 H 0.42921 0.68658 0.68895 0.0
H91 H 0.45852 0.67189 0.68407 0.0
H92 H 0.45625 0.70501 0.68174 0.0
O93 O 0.36633 0.65417 0.65151 0.0
O94 O 0.36282 0.66049 0.61076 0.0
H95 H 0.43576 0.70646 0.57493 0.0
H96 H 0.46672 0.69591 0.58111 0.0
C97 C 0.44679 0.69116 0.58284 0.0
H98 H 0.44305 0.67421 0.57183 0.0
H99 H 0.38941 0.70047 0.56778 0.0
O100 O 0.40443 0.64583 0.69383 0.0
C101 C 0.35323 0.65889 0.63238 0.0
Co102 Co 0.60233 0.14753 0.91689 0.0
Co103 Co 0.59844 0.14521 0.85831 0.0
C104 C 0.64679 0.15582 0.88536 0.0
O105 O 0.63677 0.15617 0.90692 0.0
O106 O 0.63396 0.1522 0.86561 0.0
C107 C 0.61542 0.13431 0.96494 0.0
O108 O 0.63223 0.12281 0.95165 0.0
C109 C 0.6105 0.14562 0.80457 0.0
C110 C 0.57399 0.13852 0.78721 0.0
C111 C 0.59891 0.14123 0.78176 0.0
N112 N 0.59319 0.1458 0.82267 0.0
N113 N 0.57138 0.14168 0.81208 0.0
C114 C 0.63773 0.1452 0.80966 0.0
H115 H 0.64341 0.16261 0.81904 0.0
H116 H 0.64879 0.14274 0.79242 0.0
H117 H 0.64169 0.12966 0.82244 0.0
C118 C 0.56216 0.18434 0.9101 0.0
N119 N 0.57813 0.16765 0.90081 0.0
N120 N 0.57678 0.16766 0.87618 0.0
C121 C 0.56023 0.18502 0.8691 0.0
C122 C 0.55018 0.1962 0.89037 0.0
C123 C 0.55818 0.18831 0.93753 0.0
H124 H 0.55849 0.17038 0.94741 0.0
H125 H 0.57347 0.19991 0.94511 0.0
H126 H 0.54024 0.19745 0.94121 0.0
O127 O 0.59822 0.11226 0.90919 0.0
O128 O 0.59432 0.10982 0.86806 0.0
H129 H 0.54076 0.18122 0.83445 0.0
H130 H 0.55046 0.21225 0.84146 0.0
C131 C 0.55594 0.19261 0.84254 0.0
H132 H 0.57292 0.18982 0.83133 0.0
H133 H 0.55489 0.13962 0.822 0.0
O134 O 0.60017 0.14834 0.95379 0.0
C135 C 0.59581 0.09949 0.88939 0.0
Co136 Co 0.099 0.64535 0.40809 0.0
Co137 Co 0.09585 0.64066 0.34955 0.0
C138 C 0.14394 0.65116 0.37637 0.0
O139 O 0.13358 0.65314 0.39764 0.0
O140 O 0.13139 0.64627 0.35678 0.0
C141 C 0.11593 0.65335 0.45839 0.0
O142 O 0.13552 0.66216 0.44691 0.0
C143 C 0.10727 0.64923 0.2967 0.0
C144 C 0.08042 0.62419 0.27821 0.0
C145 C 0.10068 0.63926 0.2737 0.0
N146 N 0.09172 0.64024 0.3141 0.0
N147 N 0.07542 0.62567 0.30283 0.0
C148 C 0.12986 0.66428 0.30262 0.0
H149 H 0.1263 0.67641 0.31894 0.0
H150 H 0.13558 0.67563 0.2864 0.0
H151 H 0.14531 0.65173 0.30734 0.0
C152 C 0.05832 0.68234 0.39765 0.0
N153 N 0.07523 0.66547 0.39041 0.0
N154 N 0.07478 0.66385 0.3658 0.0
C155 C 0.05787 0.67967 0.35665 0.0
C156 C 0.04655 0.69195 0.37647 0.0
C157 C 0.053 0.68847 0.42439 0.0
H158 H 0.05603 0.67211 0.43637 0.0
H159 H 0.06588 0.70328 0.43066 0.0
H160 H 0.03371 0.69504 0.42662 0.0
O161 O 0.095 0.60937 0.40122 0.0
O162 O 0.08896 0.6066 0.36027 0.0
H163 H 0.04307 0.66809 0.32135 0.0
H164 H 0.04365 0.70119 0.32567 0.0
C165 C 0.05376 0.68383 0.32926 0.0
H166 H 0.07185 0.68473 0.31955 0.0
H167 H 0.06188 0.6155 0.3122 0.0
O168 O 0.09697 0.64734 0.44546 0.0
C169 C 0.09098 0.59654 0.38162 0.0
Co170 Co 0.60936 0.84624 0.58753 0.0
Co171 Co 0.59932 0.85383 0.6448 0.0
C172 C 0.65028 0.84384 0.62332 0.0
O173 O 0.64327 0.84014 0.60081 0.0
O174 O 0.63486 0.84919 0.64034 0.0
C175 C 0.62365 0.85827 0.54001 0.0
O176 O 0.63888 0.87144 0.55395 0.0
C177 C 0.60759 0.84427 0.69765 0.0
C178 C 0.58419 0.87287 0.71486 0.0
C179 C 0.60246 0.85585 0.72016 0.0
N180 N 0.59333 0.85436 0.67978 0.0
N181 N 0.57891 0.87097 0.69031 0.0
C182 C 0.62827 0.82679 0.69247 0.0
H183 H 0.64604 0.83714 0.69203 0.0
H184 H 0.62529 0.81731 0.67427 0.0
H185 H 0.62962 0.81278 0.70744 0.0
C186 C 0.56935 0.80895 0.59476 0.0
N187 N 0.58496 0.82645 0.60344 0.0
N188 N 0.58097 0.82965 0.62752 0.0
C189 C 0.5629 0.81427 0.63502 0.0
C190 C 0.55493 0.8006 0.61452 0.0
C191 C 0.56846 0.80046 0.56812 0.0
H192 H 0.58754 0.79891 0.56069 0.0
H193 H 0.55872 0.78247 0.56631 0.0
H194 H 0.55855 0.81439 0.55675 0.0
O195 O 0.60297 0.88164 0.59279 0.0
O196 O 0.59271 0.88705 0.63249 0.0
H197 H 0.54832 0.83311 0.66689 0.0
H198 H 0.53553 0.80259 0.66227 0.0
C199 C 0.55258 0.814 0.66098 0.0
H200 H 0.56676 0.80671 0.67404 0.0
H201 H 0.56697 0.88246 0.68038 0.0
O202 O 0.60891 0.84327 0.55068 0.0
C203 C 0.59656 0.89558 0.61073 0.0
Co204 Co 0.39266 0.34942 0.91062 0.0
Co205 Co 0.39948 0.35419 0.85333 0.0
C206 C 0.34878 0.34882 0.8762 0.0
O207 O 0.3576 0.34697 0.89829 0.0
O208 O 0.363 0.35075 0.85736 0.0
C209 C 0.37898 0.36313 0.95736 0.0
O210 O 0.36419 0.37595 0.94287 0.0
C211 C 0.3926 0.34174 0.8011 0.0
C212 C 0.41559 0.37018 0.78273 0.0
C213 C 0.39823 0.35182 0.77809 0.0
N214 N 0.4058 0.3538 0.81864 0.0
N215 N 0.42001 0.37034 0.80752 0.0
C216 C 0.37237 0.32367 0.80671 0.0
H217 H 0.37472 0.31594 0.82577 0.0
H218 H 0.37236 0.30848 0.79279 0.0
H219 H 0.35426 0.33312 0.8054 0.0
C220 C 0.42996 0.30864 0.90281 0.0
N221 N 0.41526 0.32709 0.89465 0.0
N222 N 0.41801 0.32935 0.87031 0.0
C223 C 0.43438 0.31242 0.86221 0.0
C224 C 0.44262 0.29855 0.8825 0.0
C225 C 0.43122 0.30038 0.92946 0.0
H226 H 0.41282 0.30227 0.93841 0.0
H227 H 0.43753 0.28101 0.93077 0.0
H228 H 0.44454 0.31235 0.93976 0.0
O229 O 0.40174 0.38436 0.90543 0.0
O230 O 0.40705 0.3883 0.8647 0.0
H231 H 0.44747 0.32888 0.82835 0.0
H232 H 0.45907 0.29825 0.83372 0.0
C233 C 0.4427 0.31034 0.8356 0.0
H234 H 0.42729 0.30282 0.82404 0.0
H235 H 0.43127 0.38299 0.81702 0.0
O236 O 0.39315 0.34728 0.94738 0.0
C237 C 0.40612 0.39773 0.88649 0.0
Co238 Co 0.90093 0.14003 0.16283 0.0
Co239 Co 0.89208 0.15265 0.10601 0.0
C240 C 0.90055 0.10084 0.12403 0.0
O241 O 0.90484 0.10777 0.14641 0.0
O242 O 0.8952 0.11626 0.10697 0.0
C243 C 0.89243 0.11713 0.20748 0.0
O244 O 0.88219 0.10204 0.19118 0.0
C245 C 0.89683 0.14986 0.05149 0.0
C246 C 0.88116 0.18538 0.03936 0.0
C247 C 0.89085 0.16349 0.03058 0.0
N248 N 0.89089 0.16295 0.07195 0.0
N249 N 0.88156 0.18422 0.06456 0.0
C250 C 0.90778 0.12467 0.05184 0.0
H251 H 0.92099 0.12298 0.06768 0.0
H252 H 0.91746 0.1206 0.03402 0.0
H253 H 0.8926 0.11104 0.05422 0.0
C254 C 0.93973 0.17847 0.15693 0.0
N255 N 0.92143 0.16399 0.14791 0.0
N256 N 0.91833 0.16853 0.12388 0.0
C257 C 0.93497 0.18567 0.11676 0.0
C258 C 0.94897 0.19256 0.13744 0.0
C259 C 0.94775 0.17898 0.18374 0.0
H260 H 0.93338 0.18837 0.195 0.0
H261 H 0.94941 0.15986 0.19082 0.0
H262 H 0.96566 0.1889 0.18607 0.0
O263 O 0.86625 0.14882 0.15935 0.0
O264 O 0.8592 0.1603 0.12032 0.0
H265 H 0.91966 0.20783 0.08772 0.0
H266 H 0.95292 0.20827 0.08857 0.0
C267 C 0.9363 0.19645 0.09103 0.0
H268 H 0.93658 0.18143 0.07692 0.0
H269 H 0.87492 0.19771 0.07673 0.0
O270 O 0.90419 0.136 0.19962 0.0
C271 C 0.85166 0.1565 0.1425 0.0
Co272 Co 0.09606 0.09754 0.34664 0.0
Co273 Co 0.15434 0.09507 0.34709 0.0
C274 C 0.12771 0.14146 0.33387 0.0
O275 O 0.10671 0.13079 0.33553 0.0
O276 O 0.14773 0.12971 0.33758 0.0
C277 C 0.05129 0.1153 0.35983 0.0
O278 O 0.0673 0.13202 0.36752 0.0
C279 C 0.20794 0.10404 0.34203 0.0
C280 C 0.22314 0.06831 0.3542 0.0
C281 C 0.22984 0.09176 0.34666 0.0
N282 N 0.18899 0.08851 0.34651 0.0
N283 N 0.19824 0.06723 0.35393 0.0
C284 C 0.2051 0.13027 0.33412 0.0
H285 H 0.19131 0.13142 0.31875 0.0
H286 H 0.22293 0.13826 0.3277 0.0
H287 H 0.19826 0.14114 0.35026 0.0
C288 C 0.10254 0.0539 0.31334 0.0
N289 N 0.11151 0.07252 0.32754 0.0
N290 N 0.13592 0.0721 0.32706 0.0
C291 C 0.14315 0.05343 0.31214 0.0
C292 C 0.12236 0.04111 0.3033 0.0
C293 C 0.07559 0.04816 0.31031 0.0
H294 H 0.06647 0.04851 0.32889 0.0
H295 H 0.06692 0.06266 0.29866 0.0
H296 H 0.07259 0.02994 0.30127 0.0
O297 O 0.10498 0.09511 0.38208 0.0
O298 O 0.14578 0.09266 0.38279 0.0
H299 H 0.17751 0.03536 0.31903 0.0
H300 H 0.17022 0.03902 0.28649 0.0
C301 C 0.16938 0.04811 0.30511 0.0
H302 H 0.18043 0.06536 0.30457 0.0
H303 H 0.18751 0.05221 0.35961 0.0
O304 O 0.05921 0.09667 0.34775 0.0
C305 C 0.12519 0.09362 0.39412 0.0
Co306 Co 0.14189 0.91757 0.60395 0.0
Co307 Co 0.14272 0.85965 0.60341 0.0
C308 C 0.15183 0.88522 0.64995 0.0
O309 O 0.1465 0.90538 0.63907 0.0
O310 O 0.15473 0.86545 0.63754 0.0
C311 C 0.14953 0.96605 0.62407 0.0
O312 O 0.1579 0.95355 0.6433 0.0
C313 C 0.13931 0.80692 0.61468 0.0
C314 C 0.12608 0.79165 0.57864 0.0
C315 C 0.13086 0.78542 0.60331 0.0
N316 N 0.13984 0.82494 0.59739 0.0
N317 N 0.13193 0.81562 0.57589 0.0
C318 C 0.14243 0.81143 0.64219 0.0
H319 H 0.16182 0.81722 0.64603 0.0
H320 H 0.13797 0.79493 0.65352 0.0
H321 H 0.13002 0.82657 0.64807 0.0
C322 C 0.17901 0.90951 0.56287 0.0
N323 N 0.163 0.90115 0.58029 0.0
N324 N 0.16303 0.87686 0.57989 0.0
C325 C 0.17927 0.86903 0.56249 0.0
C326 C 0.18997 0.88947 0.5509 0.0
C327 C 0.18421 0.93623 0.5584 0.0
H328 H 0.18409 0.94643 0.57642 0.0
H329 H 0.20233 0.93896 0.54903 0.0
H330 H 0.16937 0.94387 0.54634 0.0
O331 O 0.10665 0.91094 0.59724 0.0
O332 O 0.10797 0.87083 0.60404 0.0
H333 H 0.20079 0.83913 0.54638 0.0
H334 H 0.18264 0.83118 0.57349 0.0
C335 C 0.18315 0.84242 0.5562 0.0
H336 H 0.16802 0.83617 0.54359 0.0
H337 H 0.1288 0.82601 0.55981 0.0
O338 O 0.14393 0.9545 0.60402 0.0
C339 C 0.09572 0.89053 0.60113 0.0
Co340 Co 0.41649 0.89049 0.83807 0.0
Co341 Co 0.36072 0.90195 0.84511 0.0
C342 C 0.37969 0.85061 0.83366 0.0
O343 O 0.40186 0.85767 0.82976 0.0
O344 O 0.36306 0.86597 0.83971 0.0
C345 C 0.46299 0.86862 0.84117 0.0
O346 O 0.44908 0.84882 0.84338 0.0
C347 C 0.30884 0.89715 0.83235 0.0
C348 C 0.29145 0.92008 0.86151 0.0
C349 C 0.28627 0.90329 0.84261 0.0
N350 N 0.32663 0.90959 0.84474 0.0
N351 N 0.3161 0.92376 0.86174 0.0
C352 C 0.31368 0.87705 0.81384 0.0
H353 H 0.33169 0.8802 0.80441 0.0
H354 H 0.29864 0.87609 0.79966 0.0
H355 H 0.31423 0.85913 0.82378 0.0
C356 C 0.41162 0.93132 0.80052 0.0
N357 N 0.40254 0.91632 0.81847 0.0
N358 N 0.37882 0.92078 0.82133 0.0
C359 C 0.372 0.93866 0.80531 0.0
C360 C 0.39253 0.94602 0.79149 0.0
C361 C 0.43773 0.93054 0.79136 0.0
H362 H 0.44424 0.9112 0.79079 0.0
H363 H 0.43941 0.93897 0.77253 0.0
H364 H 0.44974 0.94089 0.80467 0.0
O365 O 0.41115 0.89505 0.87462 0.0
O366 O 0.37237 0.9068 0.87977 0.0
H367 H 0.33948 0.95293 0.82274 0.0
H368 H 0.34559 0.96568 0.79216 0.0
C369 C 0.34631 0.94871 0.80366 0.0
H370 H 0.33387 0.93453 0.79534 0.0
H371 H 0.32587 0.93442 0.87478 0.0
O372 O 0.45289 0.88911 0.83608 0.0
C373 C 0.39344 0.90139 0.88882 0.0
Co374 Co 0.36293 0.16879 0.09532 0.0
Co375 Co 0.35447 0.11094 0.09709 0.0
C376 C 0.40428 0.13372 0.0865 0.0
O377 O 0.39592 0.15559 0.08663 0.0
O378 O 0.39019 0.11516 0.09002 0.0
C379 C 0.3845 0.21498 0.10348 0.0
O380 O 0.40324 0.20051 0.1086 0.0
C381 C 0.36175 0.05727 0.09897 0.0
C382 C 0.32383 0.04371 0.10611 0.0
C383 C 0.34822 0.03616 0.10449 0.0
N384 N 0.34603 0.07638 0.0971 0.0
N385 N 0.32337 0.06804 0.10125 0.0
C386 C 0.38927 0.06019 0.10032 0.0
H387 H 0.39614 0.06813 0.08253 0.0
H388 H 0.39881 0.04255 0.10393 0.0
H389 H 0.39383 0.07317 0.11575 0.0
C390 C 0.32247 0.16482 0.05793 0.0
N391 N 0.33781 0.1546 0.07483 0.0
N392 N 0.3346 0.13047 0.07477 0.0
C393 C 0.31732 0.12466 0.05735 0.0
C394 C 0.30889 0.14622 0.04625 0.0
C395 C 0.3208 0.19196 0.05345 0.0
H396 H 0.3219 0.20199 0.07154 0.0
H397 H 0.33672 0.1979 0.04182 0.0
H398 H 0.30331 0.19681 0.04374 0.0
O399 O 0.35767 0.16136 0.13069 0.0
O400 O 0.35085 0.12117 0.1324 0.0
H401 H 0.29497 0.09231 0.0611 0.0
H402 H 0.30502 0.09824 0.02966 0.0
C403 C 0.31073 0.09891 0.04963 0.0
H404 H 0.32671 0.08651 0.05249 0.0
H405 H 0.30779 0.07923 0.10253 0.0
O406 O 0.36441 0.2055 0.09526 0.0
C407 C 0.35339 0.14195 0.14316 0.0
Co408 Co 0.15531 0.88122 0.15722 0.0
Co409 Co 0.09694 0.87746 0.15655 0.0
C410 C 0.12626 0.88812 0.11011 0.0
O411 O 0.14677 0.88833 0.122 0.0
O412 O 0.10575 0.88433 0.12127 0.0
C413 C 0.20694 0.89853 0.15277 0.0
O414 O 0.19852 0.91875 0.14243 0.0
C415 C 0.04368 0.87753 0.14366 0.0
C416 C 0.02763 0.864 0.17909 0.0
C417 C 0.02166 0.86995 0.15464 0.0
N418 N 0.06182 0.87619 0.16096 0.0
N419 N 0.052 0.86826 0.18211 0.0
C420 C 0.04828 0.88185 0.11645 0.0
H421 H 0.0591 0.89913 0.11411 0.0
H422 H 0.03088 0.88294 0.10548 0.0
H423 H 0.05943 0.86639 0.10906 0.0
C424 C 0.14358 0.92037 0.19489 0.0
N425 N 0.13689 0.9018 0.17939 0.0
N426 N 0.11251 0.90064 0.17831 0.0
C427 C 0.10298 0.91871 0.19258 0.0
C428 C 0.1223 0.9318 0.2036 0.0
C429 C 0.16977 0.92849 0.19917 0.0
H430 H 0.17592 0.93965 0.18295 0.0
H431 H 0.17159 0.93992 0.21632 0.0
H432 H 0.18195 0.91218 0.20063 0.0
O433 O 0.14811 0.84602 0.1618 0.0
O434 O 0.10727 0.84348 0.1633 0.0
H435 H 0.07209 0.9414 0.20445 0.0
H436 H 0.06686 0.92319 0.17647 0.0
C437 C 0.07584 0.92354 0.19517 0.0
H438 H 0.06743 0.90882 0.20674 0.0
H439 H 0.06224 0.86437 0.19822 0.0
O440 O 0.19192 0.88241 0.16096 0.0
C441 C 0.12839 0.83339 0.16386 0.0
Co442 Co 0.34218 0.84264 0.39423 0.0
Co443 Co 0.34567 0.90022 0.39631 0.0
C444 C 0.39023 0.86841 0.405 0.0
O445 O 0.37758 0.84862 0.40273 0.0
O446 O 0.37997 0.88943 0.40356 0.0
C447 C 0.35075 0.79678 0.37622 0.0
O448 O 0.36728 0.8107 0.36496 0.0
C449 C 0.36085 0.95114 0.40793 0.0
C450 C 0.32721 0.97192 0.39807 0.0
C451 C 0.35124 0.97461 0.40674 0.0
N452 N 0.34334 0.93507 0.40031 0.0
N453 N 0.32326 0.94764 0.3944 0.0
C454 C 0.38627 0.94419 0.41631 0.0
H455 H 0.39723 0.93906 0.3996 0.0
H456 H 0.38522 0.92818 0.4291 0.0
H457 H 0.39574 0.95966 0.42613 0.0
C458 C 0.30392 0.85163 0.4334 0.0
N459 N 0.32047 0.85953 0.41629 0.0
N460 N 0.32202 0.88373 0.41733 0.0
C461 C 0.30665 0.89194 0.43541 0.0
C462 C 0.29446 0.87193 0.44608 0.0
C463 C 0.29769 0.82509 0.43767 0.0
H464 H 0.29615 0.81534 0.41945 0.0
H465 H 0.31289 0.81646 0.4485 0.0
H466 H 0.28011 0.82302 0.44816 0.0
O467 O 0.33828 0.85307 0.35918 0.0
O468 O 0.34141 0.89368 0.35977 0.0
H469 H 0.29359 0.9288 0.43169 0.0
H470 H 0.2981 0.9193 0.46361 0.0
C471 C 0.30568 0.91807 0.44438 0.0
H472 H 0.32449 0.92634 0.44432 0.0
H473 H 0.30695 0.93966 0.38755 0.0
O474 O 0.33668 0.8066 0.39246 0.0
C475 C 0.33937 0.87349 0.34773 0.0
Co476 Co 0.42217 0.11384 0.64591 0.0
Co477 Co 0.36452 0.10554 0.6477 0.0
C478 C 0.38865 0.15539 0.65551 0.0
O479 O 0.41055 0.1469 0.65633 0.0
O480 O 0.37008 0.14132 0.65189 0.0
C481 C 0.46803 0.13513 0.6346 0.0
O482 O 0.45311 0.15365 0.63025 0.0
C483 C 0.31287 0.11433 0.66165 0.0
C484 C 0.29371 0.085 0.64025 0.0
C485 C 0.28966 0.1059 0.65452 0.0
N486 N 0.32997 0.09917 0.65191 0.0
N487 N 0.31833 0.08135 0.63962 0.0
C488 C 0.31869 0.13814 0.67461 0.0
H489 H 0.33584 0.1363 0.68593 0.0
H490 H 0.30318 0.14382 0.68686 0.0
H491 H 0.32161 0.1527 0.66036 0.0
C492 C 0.42004 0.07236 0.68316 0.0
N493 N 0.4093 0.0886 0.66746 0.0
N494 N 0.38507 0.08601 0.66888 0.0
C495 C 0.37964 0.06835 0.68573 0.0
C496 C 0.40161 0.05883 0.69534 0.0
C497 C 0.44745 0.06942 0.68572 0.0
H498 H 0.45662 0.07326 0.6676 0.0
H499 H 0.45452 0.0829 0.69972 0.0
H500 H 0.4522 0.05056 0.69201 0.0
O501 O 0.41086 0.10982 0.61085 0.0
O502 O 0.3712 0.09921 0.61206 0.0
H503 H 0.34511 0.04998 0.67917 0.0
H504 H 0.35345 0.05252 0.71192 0.0
C505 C 0.35378 0.06205 0.69359 0.0
H506 H 0.34266 0.07909 0.69503 0.0
H507 H 0.32726 0.06774 0.62926 0.0
O508 O 0.45907 0.11503 0.64306 0.0
C509 C 0.39081 0.1038 0.5998 0.0
Co510 Co 0.14856 0.16675 0.8957 0.0
Co511 Co 0.15346 0.10943 0.89241 0.0
C512 C 0.1043 0.13419 0.90041 0.0
O513 O 0.11377 0.15575 0.90172 0.0
O514 O 0.11768 0.11518 0.89733 0.0
C515 C 0.13727 0.21335 0.88113 0.0
O516 O 0.12175 0.19973 0.86798 0.0
C517 C 0.14452 0.05618 0.89207 0.0
C518 C 0.18087 0.04269 0.87917 0.0
C519 C 0.15688 0.03521 0.88428 0.0
N520 N 0.16059 0.07519 0.89165 0.0
N521 N 0.18232 0.06694 0.88417 0.0
C522 C 0.11719 0.05913 0.89532 0.0
H523 H 0.10984 0.06988 0.87936 0.0
H524 H 0.11352 0.06955 0.9128 0.0
H525 H 0.10722 0.04125 0.89591 0.0
C526 C 0.18651 0.15959 0.93556 0.0
N527 N 0.17149 0.15093 0.91729 0.0
N528 N 0.17315 0.12677 0.91636 0.0
C529 C 0.18896 0.11922 0.93434 0.0
C530 C 0.19809 0.13978 0.94704 0.0
C531 C 0.18849 0.18621 0.94265 0.0
H532 H 0.16967 0.19411 0.94433 0.0
H533 H 0.19871 0.1888 0.96053 0.0
H534 H 0.19823 0.19632 0.92754 0.0
O535 O 0.15492 0.16012 0.85996 0.0
O536 O 0.15938 0.11978 0.85781 0.0
H537 H 0.20817 0.08661 0.92388 0.0
H538 H 0.20503 0.09016 0.95702 0.0
C539 C 0.1955 0.09283 0.93886 0.0
H540 H 0.17854 0.08121 0.93819 0.0
H541 H 0.19766 0.0782 0.88071 0.0
O542 O 0.15091 0.20294 0.89737 0.0
C543 C 0.15829 0.14066 0.84727 0.0
Co544 Co 0.84863 0.3476 0.89633 0.0
Co545 Co 0.84358 0.40506 0.89305 0.0
C546 C 0.89272 0.3808 0.90239 0.0
O547 O 0.88324 0.35927 0.90314 0.0
O548 O 0.87931 0.39966 0.89901 0.0
C549 C 0.8665 0.303 0.88289 0.0
O550 O 0.88209 0.31904 0.87332 0.0
C551 C 0.85341 0.45779 0.89759 0.0
C552 C 0.82117 0.47303 0.87746 0.0
C553 C 0.8438 0.47939 0.88796 0.0
N554 N 0.83724 0.43944 0.8928 0.0
N555 N 0.81777 0.44876 0.88126 0.0
C556 C 0.87914 0.45376 0.90718 0.0
H557 H 0.87869 0.44031 0.92277 0.0
H558 H 0.88801 0.47098 0.91389 0.0
H559 H 0.89062 0.4462 0.89182 0.0
C560 C 0.80718 0.35569 0.93403 0.0
N561 N 0.82445 0.36356 0.91749 0.0
N562 N 0.82321 0.38777 0.91607 0.0
C563 C 0.80553 0.39599 0.93165 0.0
C564 C 0.79447 0.37603 0.94342 0.0
C565 C 0.80227 0.3292 0.9399 0.0
H566 H 0.80698 0.31743 0.92361 0.0
H567 H 0.81412 0.32372 0.95593 0.0
H568 H 0.78261 0.32631 0.9452 0.0
O569 O 0.843 0.35469 0.86052 0.0
O570 O 0.83715 0.39489 0.85825 0.0
H571 H 0.78853 0.42951 0.92001 0.0
H572 H 0.78953 0.4255 0.95351 0.0
C573 C 0.79987 0.42265 0.93584 0.0
H574 H 0.81732 0.43349 0.93672 0.0
H575 H 0.80305 0.43823 0.87426 0.0
O576 O 0.8487 0.31083 0.89631 0.0
C577 C 0.83877 0.37394 0.84781 0.0
Co578 Co 0.91042 0.60636 0.14254 0.0
Co579 Co 0.85207 0.60226 0.14101 0.0
C580 C 0.87955 0.64979 0.15294 0.0
O581 O 0.901 0.64011 0.15315 0.0
O582 O 0.86019 0.63699 0.1485 0.0
C583 C 0.95809 0.61835 0.12714 0.0
O584 O 0.9448 0.63512 0.11567 0.0
C585 C 0.80009 0.61279 0.15371 0.0
C586 C 0.78051 0.58691 0.12839 0.0
C587 C 0.77678 0.60629 0.14481 0.0
N588 N 0.81689 0.59801 0.14283 0.0
N589 N 0.80497 0.5823 0.12809 0.0
C590 C 0.80656 0.63459 0.16966 0.0
H591 H 0.82358 0.63083 0.18068 0.0
H592 H 0.79118 0.63925 0.18248 0.0
H593 H 0.81008 0.65069 0.15741 0.0
C594 C 0.90319 0.56385 0.17741 0.0
N595 N 0.89437 0.58156 0.16218 0.0
N596 N 0.87 0.58016 0.16174 0.0
C597 C 0.86257 0.56164 0.17674 0.0
C598 C 0.88333 0.55053 0.18717 0.0
C599 C 0.93018 0.55917 0.1814 0.0
H600 H 0.94 0.56001 0.16322 0.0
H601 H 0.93799 0.57385 0.19365 0.0
H602 H 0.93341 0.54095 0.19016 0.0
O603 O 0.90097 0.60414 0.10685 0.0
O604 O 0.86043 0.5978 0.10548 0.0
H605 H 0.82792 0.54638 0.16485 0.0
H606 H 0.83386 0.54317 0.19804 0.0
C607 C 0.83597 0.55549 0.18165 0.0
H608 H 0.82551 0.57267 0.1851 0.0
H609 H 0.81368 0.56943 0.11663 0.0
O610 O 0.94721 0.60344 0.14192 0.0
C611 C 0.88109 0.60067 0.09452 0.0
Co612 Co 0.63575 0.66397 0.40329 0.0
Co613 Co 0.64845 0.60847 0.3971 0.0
C614 C 0.59649 0.62708 0.40755 0.0
O615 O 0.60323 0.64918 0.41191 0.0
O616 O 0.61216 0.61075 0.40149 0.0
C617 C 0.61426 0.70808 0.39257 0.0
O618 O 0.59706 0.69238 0.38532 0.0
C619 C 0.64328 0.55586 0.40623 0.0
C620 C 0.67151 0.54081 0.38069 0.0
C621 C 0.65194 0.53415 0.39596 0.0
N622 N 0.65697 0.57459 0.39725 0.0
N623 N 0.67421 0.56542 0.38247 0.0
C624 C 0.6202 0.55911 0.42125 0.0
H625 H 0.62184 0.57577 0.43324 0.0
H626 H 0.61656 0.54279 0.43315 0.0
H627 H 0.60425 0.56136 0.40832 0.0
C628 C 0.67769 0.66132 0.43979 0.0
N629 N 0.66207 0.6511 0.42292 0.0
N630 N 0.66689 0.62745 0.42089 0.0
C631 C 0.68553 0.62176 0.43667 0.0
C632 C 0.69318 0.64308 0.44918 0.0
C633 C 0.67836 0.68826 0.44582 0.0
H634 H 0.67464 0.69915 0.42871 0.0
H635 H 0.66365 0.69238 0.45963 0.0
H636 H 0.69656 0.69388 0.45376 0.0
O637 O 0.64052 0.65784 0.36726 0.0
O638 O 0.65388 0.61975 0.36251 0.0
H639 H 0.7065 0.59075 0.42451 0.0
H640 H 0.70549 0.59443 0.45818 0.0
C641 C 0.69469 0.59608 0.44057 0.0
H642 H 0.67877 0.5831 0.44128 0.0
H643 H 0.68657 0.57613 0.3721 0.0
O644 O 0.63334 0.70009 0.40389 0.0
C645 C 0.6478 0.64041 0.35329 0.0
Co646 Co 0.91878 0.39799 0.34533 0.0
Co647 Co 0.86112 0.40137 0.34571 0.0
C648 C 0.88667 0.35286 0.33996 0.0
O649 O 0.90774 0.36346 0.34036 0.0
O650 O 0.8668 0.36531 0.34124 0.0
C651 C 0.96745 0.38019 0.33822 0.0
O652 O 0.95603 0.3618 0.32697 0.0
C653 C 0.8077 0.39228 0.34232 0.0
C654 C 0.79329 0.42735 0.35729 0.0
C655 C 0.78623 0.40383 0.35004 0.0
N656 N 0.82664 0.40829 0.34494 0.0
N657 N 0.81781 0.42934 0.3535 0.0
C658 C 0.81097 0.36539 0.33723 0.0
H659 H 0.82392 0.36283 0.32138 0.0
H660 H 0.79326 0.35594 0.33284 0.0
H661 H 0.819 0.35673 0.35415 0.0
C662 C 0.91288 0.43618 0.30607 0.0
N663 N 0.90352 0.42006 0.32273 0.0
N664 N 0.87919 0.42124 0.32233 0.0
C665 C 0.87228 0.43805 0.3051 0.0
C666 C 0.89343 0.44825 0.2943 0.0
C667 C 0.93998 0.43965 0.30149 0.0
H668 H 0.94904 0.42141 0.30016 0.0
H669 H 0.94345 0.4502 0.28408 0.0
H670 H 0.94833 0.44965 0.31761 0.0
O671 O 0.91146 0.40567 0.38047 0.0
O672 O 0.87067 0.40812 0.38089 0.0
H673 H 0.8438 0.45594 0.28295 0.0
H674 H 0.8339 0.4289 0.29999 0.0
C675 C 0.846 0.44548 0.30057 0.0
H676 H 0.83989 0.45742 0.3162 0.0
H677 H 0.82882 0.44442 0.35861 0.0
O678 O 0.95516 0.39903 0.34463 0.0
C679 C 0.89136 0.40854 0.39231 0.0
Co680 Co 0.59398 0.59883 0.85175 0.0
Co681 Co 0.65178 0.59669 0.855 0.0
C682 C 0.62493 0.64401 0.84488 0.0
O683 O 0.60372 0.63362 0.84543 0.0
O684 O 0.64472 0.63168 0.84744 0.0
C685 C 0.54678 0.61041 0.86518 0.0
O686 O 0.5602 0.62645 0.87786 0.0
C687 C 0.70387 0.60747 0.84489 0.0
C688 C 0.72211 0.58343 0.87261 0.0
C689 C 0.72654 0.60228 0.85579 0.0
N690 N 0.68672 0.59252 0.85505 0.0
N691 N 0.69784 0.57783 0.8712 0.0
C692 C 0.69799 0.62873 0.8282 0.0
H693 H 0.69433 0.64519 0.83995 0.0
H694 H 0.6813 0.62453 0.81675 0.0
H695 H 0.71374 0.63309 0.8157 0.0
C696 C 0.60261 0.55785 0.81564 0.0
N697 N 0.61082 0.57563 0.83131 0.0
N698 N 0.63512 0.57453 0.83281 0.0
C699 C 0.64316 0.55602 0.8181 0.0
C700 C 0.6228 0.54472 0.80669 0.0
C701 C 0.57586 0.55366 0.80949 0.0
H702 H 0.5663 0.5716 0.8077 0.0
H703 H 0.57363 0.543 0.79186 0.0
H704 H 0.56705 0.54332 0.82501 0.0
O705 O 0.60089 0.59335 0.88733 0.0
O706 O 0.64167 0.59215 0.89032 0.0
H707 H 0.67672 0.54505 0.83605 0.0
H708 H 0.67203 0.53115 0.80569 0.0
C709 C 0.66966 0.54823 0.81682 0.0
H710 H 0.68086 0.56332 0.8085 0.0
H711 H 0.68857 0.56524 0.88261 0.0
O712 O 0.55759 0.5959 0.85006 0.0
C713 C 0.62042 0.59181 0.90048 0.0
Co714 Co 0.90345 0.65907 0.90705 0.0
Co715 Co 0.90469 0.65016 0.84937 0.0
C716 C 0.85768 0.66251 0.87692 0.0
O717 O 0.8685 0.6661 0.89784 0.0
O718 O 0.86987 0.65647 0.85758 0.0
C719 C 0.89142 0.6482 0.95429 0.0
O720 O 0.87474 0.63699 0.94029 0.0
C721 C 0.89262 0.66046 0.79766 0.0
C722 C 0.91113 0.62962 0.77835 0.0
C723 C 0.89475 0.64883 0.77475 0.0
N724 N 0.90685 0.64845 0.8142 0.0
N725 N 0.91831 0.63039 0.80246 0.0
C726 C 0.87492 0.68045 0.80448 0.0
H727 H 0.87947 0.6882 0.82319 0.0
H728 H 0.87562 0.69543 0.79043 0.0
H729 H 0.8558 0.67287 0.80454 0.0
C730 C 0.94406 0.69439 0.89332 0.0
N731 N 0.92647 0.67752 0.88766 0.0
N732 N 0.92664 0.67358 0.86334 0.0
C733 C 0.94421 0.68769 0.85272 0.0
C734 C 0.95594 0.7013 0.87133 0.0
C735 C 0.94989 0.70286 0.91936 0.0
H736 H 0.9488 0.68707 0.93245 0.0
H737 H 0.93587 0.71657 0.92519 0.0
H738 H 0.96855 0.71148 0.92048 0.0
O739 O 0.90769 0.6233 0.90205 0.0
O740 O 0.91117 0.61686 0.86139 0.0
H741 H 0.95517 0.67046 0.8185 0.0
H742 H 0.96262 0.70302 0.82009 0.0
C743 C 0.94877 0.68873 0.82511 0.0
H744 H 0.93118 0.69292 0.81531 0.0
H745 H 0.92963 0.61752 0.81129 0.0
O746 O 0.90715 0.66228 0.94373 0.0
C747 C 0.91037 0.60877 0.88363 0.0
Co748 Co 0.10899 0.14999 0.6597 0.0
Co749 Co 0.11073 0.15484 0.60153 0.0
C750 C 0.10411 0.10583 0.62507 0.0
O751 O 0.10494 0.11552 0.6468 0.0
O752 O 0.10491 0.11908 0.60552 0.0
C753 C 0.10648 0.1294 0.70842 0.0
O754 O 0.10233 0.10898 0.69583 0.0
C755 C 0.09898 0.14882 0.54877 0.0
C756 C 0.12555 0.17468 0.53145 0.0
C757 C 0.10841 0.15633 0.52603 0.0
N758 N 0.11012 0.16202 0.56691 0.0
N759 N 0.12554 0.17789 0.55643 0.0
C760 C 0.08237 0.12716 0.55341 0.0
H761 H 0.09375 0.11024 0.55418 0.0
H762 H 0.0725 0.12942 0.57144 0.0
H763 H 0.06867 0.12494 0.53805 0.0
C764 C 0.07096 0.18997 0.65278 0.0
N765 N 0.08721 0.17316 0.64408 0.0
N766 N 0.08787 0.17459 0.61951 0.0
C767 C 0.07194 0.19201 0.61176 0.0
C768 C 0.06076 0.20265 0.63255 0.0
C769 C 0.06656 0.19477 0.67997 0.0
H770 H 0.08404 0.19251 0.69067 0.0
H771 H 0.05296 0.18108 0.68705 0.0
H772 H 0.05917 0.21355 0.68309 0.0
O773 O 0.14406 0.15787 0.65345 0.0
O774 O 0.14553 0.16033 0.61217 0.0
H775 H 0.08312 0.20766 0.57688 0.0
H776 H 0.0501 0.20896 0.58238 0.0
C777 C 0.06697 0.19767 0.5848 0.0
H778 H 0.06448 0.18024 0.57421 0.0
H779 H 0.13734 0.18965 0.56642 0.0
O780 O 0.10725 0.14979 0.69677 0.0
C781 C 0.15633 0.16051 0.63338 0.0
Co782 Co 0.60198 0.35565 0.33664 0.0
Co783 Co 0.61022 0.35358 0.39478 0.0
C784 C 0.59909 0.40085 0.36913 0.0
O785 O 0.59722 0.39041 0.3478 0.0
O786 O 0.60339 0.38844 0.38879 0.0
C787 C 0.61032 0.36991 0.28877 0.0
O788 O 0.62383 0.38517 0.30231 0.0
C789 C 0.60415 0.36205 0.44857 0.0
C790 C 0.63296 0.33756 0.46395 0.0
C791 C 0.61616 0.35559 0.47051 0.0
N792 N 0.61363 0.34858 0.42979 0.0
N793 N 0.6305 0.33366 0.43919 0.0
C794 C 0.58628 0.38269 0.44496 0.0
H795 H 0.59664 0.4004 0.44487 0.0
H796 H 0.57611 0.38048 0.42701 0.0
H797 H 0.5728 0.38338 0.46051 0.0
C798 C 0.5662 0.31518 0.34938 0.0
N799 N 0.58287 0.33278 0.35561 0.0
N800 N 0.5861 0.33259 0.38006 0.0
C801 C 0.57132 0.31531 0.39021 0.0
C802 C 0.55835 0.30343 0.37113 0.0
C803 C 0.55927 0.30881 0.32299 0.0
H804 H 0.57524 0.31199 0.3104 0.0
H805 H 0.54393 0.32092 0.31689 0.0
H806 H 0.55306 0.28933 0.32143 0.0
O807 O 0.63755 0.34892 0.34004 0.0
O808 O 0.64347 0.34809 0.38102 0.0
H809 H 0.58572 0.30164 0.42477 0.0
H810 H 0.55229 0.30013 0.42244 0.0
C811 C 0.56897 0.3112 0.41781 0.0
H812 H 0.5677 0.3292 0.42754 0.0
H813 H 0.64134 0.32182 0.42846 0.0
O814 O 0.59658 0.35432 0.29996 0.0
C815 C 0.65183 0.34709 0.35885 0.0
Co816 Co 0.39484 0.86069 0.1608 0.0
Co817 Co 0.3883 0.8503 0.10291 0.0
C818 C 0.40015 0.9011 0.12413 0.0
O819 O 0.40244 0.89365 0.1466 0.0
O820 O 0.3949 0.88625 0.10639 0.0
C821 C 0.3912 0.88279 0.20849 0.0
O822 O 0.38959 0.90249 0.1944 0.0
C823 C 0.39478 0.85701 0.04858 0.0
C824 C 0.37146 0.82674 0.03374 0.0
C825 C 0.38468 0.8475 0.02661 0.0
N826 N 0.38766 0.84259 0.0678 0.0
N827 N 0.37413 0.82427 0.05866 0.0
C828 C 0.40754 0.88136 0.0518 0.0
H829 H 0.42148 0.88019 0.06706 0.0
H830 H 0.41679 0.88742 0.0344 0.0
H831 H 0.39359 0.8954 0.05691 0.0
C832 C 0.43244 0.82003 0.15441 0.0
N833 N 0.41443 0.83498 0.14564 0.0
N834 N 0.41174 0.83104 0.12141 0.0
C835 C 0.42794 0.81364 0.11408 0.0
C836 C 0.44174 0.80593 0.1347 0.0
C837 C 0.44162 0.8204 0.18084 0.0
H838 H 0.43955 0.83909 0.189 0.0
H839 H 0.46127 0.81462 0.18187 0.0
H840 H 0.43033 0.80735 0.19204 0.0
O841 O 0.35902 0.85676 0.15442 0.0
O842 O 0.35372 0.84545 0.11487 0.0
H843 H 0.41129 0.79816 0.08126 0.0
H844 H 0.44289 0.78884 0.08605 0.0
C845 C 0.42981 0.80441 0.08773 0.0
H846 H 0.43585 0.81972 0.0754 0.0
H847 H 0.36528 0.81105 0.06966 0.0
O848 O 0.39586 0.86209 0.19826 0.0
C849 C 0.34497 0.85066 0.1363 0.0
Co850 Co 0.9018 0.35423 0.66025 0.0
Co851 Co 0.90243 0.34884 0.60201 0.0
C852 C 0.90661 0.39843 0.62836 0.0
O853 O 0.90755 0.38888 0.65012 0.0
O854 O 0.90485 0.38495 0.60886 0.0
C855 C 0.88373 0.36527 0.70677 0.0
O856 O 0.87109 0.38012 0.69221 0.0
C857 C 0.917 0.35895 0.55028 0.0
C858 C 0.89284 0.33271 0.52988 0.0
C859 C 0.90881 0.35246 0.52656 0.0
N860 N 0.90611 0.34388 0.56694 0.0
N861 N 0.89217 0.32784 0.55455 0.0
C862 C 0.93204 0.38118 0.55715 0.0
H863 H 0.94018 0.37907 0.57612 0.0
H864 H 0.94704 0.38414 0.54332 0.0
H865 H 0.91998 0.39763 0.55684 0.0
C866 C 0.94087 0.31602 0.656 0.0
N867 N 0.92465 0.33189 0.64579 0.0
N868 N 0.9252 0.32968 0.62126 0.0
C869 C 0.94191 0.31232 0.61508 0.0
C870 C 0.95244 0.30296 0.63693 0.0
C871 C 0.94517 0.31361 0.68356 0.0
H872 H 0.94527 0.33211 0.69244 0.0
H873 H 0.96293 0.30422 0.68761 0.0
H874 H 0.92975 0.30278 0.69183 0.0
O875 O 0.86748 0.3468 0.6502 0.0
O876 O 0.86747 0.34015 0.60935 0.0
H877 H 0.95881 0.28771 0.58806 0.0
H878 H 0.954 0.31909 0.57769 0.0
C879 C 0.94615 0.30369 0.58882 0.0
H880 H 0.92816 0.29843 0.5802 0.0
H881 H 0.88074 0.31479 0.56307 0.0
O882 O 0.90055 0.35203 0.69711 0.0
C883 C 0.85601 0.34173 0.63004 0.0
Co884 Co 0.40389 0.15319 0.40872 0.0
Co885 Co 0.41439 0.13858 0.35333 0.0
C886 C 0.36272 0.1484 0.37458 0.0
O887 O 0.3698 0.1571 0.3956 0.0
O888 O 0.37824 0.14057 0.35861 0.0
C889 C 0.39038 0.14497 0.45688 0.0
O890 O 0.37468 0.13141 0.4439 0.0
C891 C 0.40417 0.14124 0.29991 0.0
C892 C 0.43336 0.11732 0.28439 0.0
C893 C 0.41218 0.13016 0.27799 0.0
N894 N 0.4198 0.13498 0.31842 0.0
N895 N 0.43745 0.12105 0.30897 0.0
C896 C 0.38021 0.15431 0.30427 0.0
H897 H 0.38239 0.16779 0.31978 0.0
H898 H 0.37361 0.16409 0.28743 0.0
H899 H 0.36585 0.14058 0.30948 0.0
C900 C 0.44026 0.19266 0.39595 0.0
N901 N 0.42703 0.17227 0.39031 0.0
N902 N 0.43093 0.16637 0.36675 0.0
C903 C 0.4465 0.18294 0.35654 0.0
C904 C 0.45295 0.20013 0.37469 0.0
C905 C 0.43989 0.20514 0.42093 0.0
H906 H 0.42064 0.20568 0.42809 0.0
H907 H 0.44763 0.22411 0.41987 0.0
H908 H 0.45109 0.19425 0.43433 0.0
O909 O 0.41051 0.11749 0.40651 0.0
O910 O 0.42469 0.10768 0.3691 0.0
H911 H 0.46325 0.16368 0.32611 0.0
H912 H 0.46922 0.19651 0.32608 0.0
C913 C 0.45518 0.18203 0.32999 0.0
H914 H 0.43908 0.18443 0.31728 0.0
H915 H 0.45143 0.11291 0.31958 0.0
O916 O 0.40508 0.15923 0.44516 0.0
C917 C 0.41885 0.10163 0.39125 0.0
Co918 Co 0.59454 0.64566 0.16479 0.0
Co919 Co 0.59288 0.65176 0.10691 0.0
C920 C 0.58753 0.602 0.13176 0.0
O921 O 0.58665 0.61138 0.15362 0.0
O922 O 0.59003 0.61555 0.11254 0.0
C923 C 0.61052 0.62804 0.20968 0.0
O924 O 0.61937 0.61212 0.1935 0.0
C925 C 0.58116 0.64181 0.05442 0.0
C926 C 0.60115 0.6723 0.03593 0.0
C927 C 0.58858 0.65045 0.03129 0.0
N928 N 0.58916 0.65774 0.07204 0.0
N929 N 0.60053 0.67626 0.0608 0.0
C930 C 0.56988 0.61716 0.05983 0.0
H931 H 0.55791 0.61833 0.07662 0.0
H932 H 0.55879 0.6104 0.04367 0.0
H933 H 0.58486 0.60373 0.06348 0.0
C934 C 0.55539 0.68495 0.16163 0.0
N935 N 0.57184 0.66931 0.15127 0.0
N936 N 0.57059 0.67122 0.12675 0.0
C937 C 0.55308 0.6879 0.12072 0.0
C938 C 0.54277 0.69744 0.14264 0.0
C939 C 0.55252 0.68839 0.18926 0.0
H940 H 0.57055 0.68576 0.19883 0.0
H941 H 0.53933 0.67435 0.19644 0.0
H942 H 0.54531 0.707 0.19369 0.0
O943 O 0.62929 0.65194 0.15473 0.0
O944 O 0.62809 0.65932 0.11412 0.0
H945 H 0.559 0.70614 0.08588 0.0
H946 H 0.52671 0.70172 0.09361 0.0
C947 C 0.54536 0.69332 0.09438 0.0
H948 H 0.54513 0.67608 0.0832 0.0
H949 H 0.60958 0.69058 0.07025 0.0
O950 O 0.59687 0.64543 0.20177 0.0
C951 C 0.64027 0.65699 0.13438 0.0
Co952 Co 0.10707 0.85759 0.83609 0.0
Co953 Co 0.11193 0.84977 0.89416 0.0
C954 C 0.10432 0.8996 0.87253 0.0
O955 O 0.10385 0.89119 0.85026 0.0
O956 O 0.10683 0.88548 0.89129 0.0
C957 C 0.0983 0.87931 0.78826 0.0
O958 O 0.08987 0.89775 0.80165 0.0
C959 C 0.10175 0.85378 0.94758 0.0
C960 C 0.12866 0.82739 0.96317 0.0
C961 C 0.11172 0.84527 0.96979 0.0
N962 N 0.11247 0.8416 0.92861 0.0
N963 N 0.12816 0.82549 0.93806 0.0
C964 C 0.08501 0.87538 0.94423 0.0
H965 H 0.09627 0.89253 0.94493 0.0
H966 H 0.07532 0.87423 0.92591 0.0
H967 H 0.07115 0.87625 0.95944 0.0
C968 C 0.06598 0.82128 0.84369 0.0
N969 N 0.08525 0.83497 0.85199 0.0
N970 N 0.0874 0.83206 0.87638 0.0
C971 C 0.06955 0.81666 0.88439 0.0
C972 C 0.05537 0.80939 0.86403 0.0
C973 C 0.05739 0.82067 0.81706 0.0
H974 H 0.05394 0.83976 0.8106 0.0
H975 H 0.04031 0.80938 0.81481 0.0
H976 H 0.0723 0.81298 0.80519 0.0
O977 O 0.14195 0.84878 0.84098 0.0
O978 O 0.14555 0.84328 0.88182 0.0
H979 H 0.05154 0.79484 0.91313 0.0
H980 H 0.06131 0.82545 0.92245 0.0
C981 C 0.06622 0.80907 0.91109 0.0
H982 H 0.0839 0.80167 0.91843 0.0
H983 H 0.13963 0.81429 0.9273 0.0
O984 O 0.10385 0.85925 0.79911 0.0
C985 C 0.15508 0.84413 0.86013 0.0
Co986 Co 0.91455 0.8943 0.6635 0.0
Co987 Co 0.85671 0.89574 0.66242 0.0
C988 C 0.8841 0.84778 0.66411 0.0
O989 O 0.90497 0.85869 0.66626 0.0
O990 O 0.8641 0.85993 0.66265 0.0
C991 C 0.96462 0.87828 0.66771 0.0
O992 O 0.95438 0.85797 0.67622 0.0
C993 C 0.80394 0.88333 0.66583 0.0
C994 C 0.78672 0.9198 0.66062 0.0
C995 C 0.78143 0.89505 0.66376 0.0
N996 N 0.82196 0.90043 0.66417 0.0
N997 N 0.81153 0.92217 0.66092 0.0
C998 C 0.80821 0.8563 0.66879 0.0
H999 H 0.81605 0.84886 0.65118 0.0
H1000 H 0.82176 0.85317 0.6841 0.0
H1001 H 0.79076 0.84629 0.67308 0.0
C1002 C 0.90643 0.93199 0.70388 0.0
N1003 N 0.89823 0.91505 0.68716 0.0
N1004 N 0.87387 0.91436 0.68771 0.0
C1005 C 0.86588 0.93022 0.70541 0.0
C1006 C 0.88615 0.94237 0.71598 0.0
C1007 C 0.93304 0.93937 0.70664 0.0
H1008 H 0.94268 0.93761 0.68844 0.0
H1009 H 0.94211 0.92686 0.72023 0.0
H1010 H 0.93486 0.95859 0.71356 0.0
O1011 O 0.90631 0.90357 0.62895 0.0
O1012 O 0.86555 0.90682 0.62854 0.0
H1013 H 0.83041 0.94714 0.70175 0.0
H1014 H 0.83821 0.93836 0.73316 0.0
C1015 C 0.83942 0.93275 0.71321 0.0
H1016 H 0.82938 0.91505 0.71059 0.0
H1017 H 0.82139 0.93853 0.65814 0.0
O1018 O 0.95115 0.89701 0.66388 0.0
C1019 C 0.88624 0.90788 0.61736 0.0
Co1020 Co 0.85945 0.08661 0.39503 0.0
Co1021 Co 0.86764 0.14428 0.39984 0.0
C1022 C 0.85457 0.12032 0.3509 0.0
O1023 O 0.8527 0.09887 0.3604 0.0
O1024 O 0.85961 0.13902 0.36439 0.0
C1025 C 0.86695 0.03999 0.37606 0.0
O1026 O 0.87673 0.05464 0.3592 0.0
C1027 C 0.85888 0.19721 0.39226 0.0
C1028 C 0.89045 0.21333 0.4131 0.0
C1029 C 0.87133 0.21919 0.39688 0.0
N1030 N 0.87031 0.17912 0.40496 0.0
N1031 N 0.88884 0.18902 0.4178 0.0
C1032 C 0.83846 0.19306 0.37372 0.0
H1033 H 0.8305 0.17428 0.37562 0.0
H1034 H 0.82361 0.20677 0.3766 0.0
H1035 H 0.84577 0.19568 0.35452 0.0
C1036 C 0.82327 0.09818 0.43699 0.0
N1037 N 0.84064 0.10456 0.41993 0.0
N1038 N 0.84444 0.12856 0.42149 0.0
C1039 C 0.82979 0.13808 0.43939 0.0
C1040 C 0.81585 0.11922 0.45003 0.0
C1041 C 0.81433 0.07239 0.44106 0.0
H1042 H 0.82907 0.05907 0.43624 0.0
H1043 H 0.79818 0.06883 0.42864 0.0
H1044 H 0.80841 0.06973 0.46075 0.0
O1045 O 0.89558 0.09112 0.39949 0.0
O1046 O 0.90153 0.13129 0.40363 0.0
H1047 H 0.84621 0.17154 0.45286 0.0
H1048 H 0.81316 0.16938 0.45829 0.0
C1049 C 0.82826 0.16507 0.44501 0.0
H1050 H 0.82486 0.17524 0.42738 0.0
H1051 H 0.90143 0.17892 0.42841 0.0
O1052 O 0.85608 0.04961 0.39486 0.0
C1053 C 0.91001 0.10954 0.40205 0.0
Co1054 Co 0.58692 0.10246 0.1526 0.0
Co1055 Co 0.64452 0.10277 0.15768 0.0
C1056 C 0.61467 0.14923 0.16229 0.0
O1057 O 0.59427 0.13745 0.16054 0.0
O1058 O 0.6353 0.138 0.16172 0.0
C1059 C 0.54227 0.11344 0.13235 0.0
O1060 O 0.55757 0.12899 0.12152 0.0
C1061 C 0.6961 0.11591 0.16915 0.0
C1062 C 0.71487 0.08024 0.16384 0.0
C1063 C 0.71897 0.10477 0.16965 0.0
N1064 N 0.67896 0.09871 0.16353 0.0
N1065 N 0.69033 0.07744 0.16029 0.0
C1066 C 0.69081 0.14262 0.17307 0.0
H1067 H 0.67528 0.14467 0.18641 0.0
H1068 H 0.70725 0.15267 0.18047 0.0
H1069 H 0.68533 0.15078 0.15488 0.0
C1070 C 0.59192 0.06357 0.19181 0.0
N1071 N 0.60144 0.08048 0.176 0.0
N1072 N 0.62564 0.0814 0.17888 0.0
C1073 C 0.63219 0.06552 0.19712 0.0
C1074 C 0.61116 0.05336 0.20565 0.0
C1075 C 0.56504 0.05695 0.193 0.0
H1076 H 0.55685 0.05715 0.17393 0.0
H1077 H 0.55531 0.07092 0.20446 0.0
H1078 H 0.56222 0.03853 0.20153 0.0
O1079 O 0.5992 0.09726 0.11843 0.0
O1080 O 0.63997 0.09548 0.12153 0.0
H1081 H 0.66838 0.04981 0.1972 0.0
H1082 H 0.65695 0.05734 0.22777 0.0
C1083 C 0.65769 0.06355 0.20801 0.0
H1084 H 0.66732 0.08162 0.20731 0.0
H1085 H 0.68138 0.06112 0.15498 0.0
O1086 O 0.5507 0.09899 0.14902 0.0
C1087 C 0.62032 0.09514 0.10838 0.0
Co1088 Co 0.6448 0.9118 0.89806 0.0
Co1089 Co 0.6441 0.85339 0.89955 0.0
C1090 C 0.65815 0.87968 0.85332 0.0
O1091 O 0.65472 0.90044 0.86398 0.0
O1092 O 0.65615 0.85957 0.8654 0.0
C1093 C 0.63539 0.95813 0.87923 0.0
O1094 O 0.6283 0.94339 0.86099 0.0
C1095 C 0.63985 0.80036 0.88907 0.0
C1096 C 0.63181 0.78514 0.92645 0.0
C1097 C 0.63369 0.77873 0.90142 0.0
N1098 N 0.64197 0.81863 0.90606 0.0
N1099 N 0.63709 0.80936 0.92838 0.0
C1100 C 0.63968 0.8045 0.86141 0.0
H1101 H 0.62883 0.82124 0.85709 0.0
H1102 H 0.659 0.80744 0.85505 0.0
H1103 H 0.63148 0.7887 0.85104 0.0
C1104 C 0.67956 0.90383 0.941 0.0
N1105 N 0.66359 0.89541 0.92343 0.0
N1106 N 0.66381 0.87111 0.9235 0.0
C1107 C 0.68043 0.86339 0.94064 0.0
C1108 C 0.69076 0.88379 0.9526 0.0
C1109 C 0.68413 0.93057 0.94615 0.0
H1110 H 0.66683 0.94113 0.94333 0.0
H1111 H 0.69816 0.93762 0.93279 0.0
H1112 H 0.69109 0.93345 0.96552 0.0
O1113 O 0.60938 0.90435 0.90057 0.0
O1114 O 0.60914 0.86367 0.89898 0.0
H1115 H 0.67822 0.828 0.95796 0.0
H1116 H 0.70884 0.83662 0.94822 0.0
C1117 C 0.68894 0.83729 0.94301 0.0
H1118 H 0.68616 0.82722 0.92514 0.0
H1119 H 0.63593 0.81983 0.94473 0.0
O1120 O 0.64531 0.94877 0.8987 0.0
C1121 C 0.59771 0.88404 0.89933 0.0
Co1122 Co 0.83687 0.1125 0.85107 0.0
Co1123 Co 0.89415 0.12049 0.84303 0.0
C1124 C 0.87082 0.11061 0.89375 0.0
O1125 O 0.84909 0.10626 0.88546 0.0
O1126 O 0.88852 0.11632 0.87919 0.0
C1127 C 0.78965 0.1243 0.866 0.0
O1128 O 0.80369 0.1375 0.88114 0.0
C1129 C 0.94739 0.11487 0.85351 0.0
C1130 C 0.96435 0.12935 0.81895 0.0
C1131 C 0.96989 0.11996 0.84233 0.0
N1132 N 0.92917 0.12094 0.83745 0.0
N1133 N 0.93949 0.12974 0.81688 0.0
C1134 C 0.94337 0.10435 0.87903 0.0
H1135 H 0.92874 0.08993 0.8782 0.0
H1136 H 0.96067 0.09634 0.88669 0.0
H1137 H 0.93711 0.11921 0.89179 0.0
C1138 C 0.84589 0.07276 0.81327 0.0
N1139 N 0.85353 0.0921 0.82729 0.0
N1140 N 0.87751 0.09532 0.82409 0.0
C1141 C 0.88586 0.07807 0.80798 0.0
C1142 C 0.86612 0.06308 0.80055 0.0
C1143 C 0.81995 0.06295 0.81329 0.0
H1144 H 0.81166 0.0652 0.83212 0.0
H1145 H 0.81939 0.04323 0.80774 0.0
H1146 H 0.80871 0.07366 0.79977 0.0
O1147 O 0.84257 0.14815 0.84549 0.0
O1148 O 0.88202 0.15406 0.83619 0.0
H1149 H 0.91504 0.06149 0.78573 0.0
H1150 H 0.92457 0.07433 0.81562 0.0
C1151 C 0.91211 0.07669 0.79925 0.0
H1152 H 0.9171 0.09424 0.78995 0.0
H1153 H 0.92954 0.13642 0.80159 0.0
O1154 O 0.80006 0.10969 0.8506 0.0
C1155 C 0.86043 0.16247 0.84003 0.0
Co1156 Co 0.65556 0.15978 0.59878 0.0
Co1157 Co 0.65651 0.10231 0.60274 0.0
C1158 C 0.60934 0.12774 0.59309 0.0
O1159 O 0.62022 0.14861 0.59459 0.0
O1160 O 0.62156 0.10783 0.5941 0.0
C1161 C 0.63745 0.20839 0.59083 0.0
O1162 O 0.61798 0.19666 0.5819 0.0
C1163 C 0.64646 0.04937 0.60132 0.0
C1164 C 0.67941 0.03482 0.62083 0.0
C1165 C 0.65659 0.02806 0.61105 0.0
N1166 N 0.6626 0.06794 0.60517 0.0
N1167 N 0.6824 0.05907 0.61652 0.0
C1168 C 0.62039 0.05295 0.59254 0.0
H1169 H 0.61007 0.063 0.60725 0.0
H1170 H 0.62041 0.06418 0.57523 0.0
H1171 H 0.6106 0.03534 0.58885 0.0
C1172 C 0.69419 0.14878 0.55943 0.0
N1173 N 0.67815 0.14208 0.57762 0.0
N1174 N 0.67813 0.11789 0.57944 0.0
C1175 C 0.6937 0.10845 0.56227 0.0
C1176 C 0.7046 0.12764 0.54902 0.0
C1177 C 0.69842 0.17483 0.55144 0.0
H1178 H 0.68035 0.18422 0.54925 0.0
H1179 H 0.70894 0.17577 0.53366 0.0
H1180 H 0.70893 0.18469 0.56633 0.0
O1181 O 0.66263 0.15502 0.63474 0.0
O1182 O 0.65964 0.1145 0.63756 0.0
H1183 H 0.70785 0.0742 0.57534 0.0
H1184 H 0.7093 0.07752 0.54193 0.0
C1185 C 0.69798 0.08144 0.55872 0.0
H1186 H 0.67993 0.07167 0.55716 0.0
H1187 H 0.69729 0.06986 0.62271 0.0
O1188 O 0.65695 0.19628 0.59579 0.0
C1189 C 0.66181 0.13555 0.64784 0.0
Co1190 Co 0.66 0.89204 0.3502 0.0
Co1191 Co 0.60171 0.88929 0.34988 0.0
C1192 C 0.63179 0.89812 0.39702 0.0
O1193 O 0.65239 0.89956 0.38559 0.0
O1194 O 0.61156 0.89429 0.3853 0.0
C1195 C 0.70696 0.87691 0.36075 0.0
O1196 O 0.6931 0.86511 0.37701 0.0
C1197 C 0.54988 0.89738 0.3645 0.0
C1198 C 0.53041 0.87496 0.33587 0.0
C1199 C 0.52676 0.88812 0.35776 0.0
N1200 N 0.56644 0.88984 0.34738 0.0
N1201 N 0.55458 0.87673 0.33017 0.0
C1202 C 0.55684 0.90976 0.3886 0.0
H1203 H 0.56344 0.89563 0.40199 0.0
H1204 H 0.57211 0.92314 0.38536 0.0
H1205 H 0.5409 0.91934 0.39713 0.0
C1206 C 0.64961 0.93032 0.31154 0.0
N1207 N 0.64219 0.91307 0.32802 0.0
N1208 N 0.61782 0.91182 0.32781 0.0
C1209 C 0.60898 0.92803 0.31096 0.0
C1210 C 0.62883 0.94046 0.30004 0.0
C1211 C 0.67611 0.93759 0.30781 0.0
H1212 H 0.68654 0.93569 0.32562 0.0
H1213 H 0.67767 0.95683 0.30098 0.0
H1214 H 0.68451 0.92508 0.29379 0.0
O1215 O 0.65121 0.85693 0.3455 0.0
O1216 O 0.61042 0.85505 0.34275 0.0
H1217 H 0.57445 0.91159 0.30042 0.0
H1218 H 0.57897 0.94192 0.28783 0.0
C1219 C 0.5821 0.93016 0.30444 0.0
H1220 H 0.57197 0.93778 0.32073 0.0
H1221 H 0.56326 0.8677 0.31537 0.0
O1222 O 0.69663 0.89219 0.34601 0.0
C1223 C 0.63133 0.84452 0.34307 0.0
Co1224 Co 0.83977 0.83801 0.11386 0.0
Co1225 Co 0.83614 0.89545 0.11556 0.0
C1226 C 0.88405 0.86955 0.10462 0.0
O1227 O 0.8739 0.84834 0.10545 0.0
O1228 O 0.87149 0.88907 0.10778 0.0
C1229 C 0.85455 0.79168 0.12656 0.0
O1230 O 0.87042 0.80589 0.13859 0.0
C1231 C 0.84608 0.94811 0.10984 0.0
C1232 C 0.81495 0.96367 0.1313 0.0
C1233 C 0.83703 0.96985 0.11977 0.0
N1234 N 0.8301 0.92987 0.11541 0.0
N1235 N 0.8113 0.9394 0.1278 0.0
C1236 C 0.87139 0.94391 0.09944 0.0
H1237 H 0.88349 0.93665 0.11451 0.0
H1238 H 0.87035 0.93013 0.08409 0.0
H1239 H 0.87986 0.96109 0.09222 0.0
C1240 C 0.79946 0.84527 0.07573 0.0
N1241 N 0.8158 0.85378 0.09291 0.0
N1242 N 0.81446 0.87797 0.09373 0.0
C1243 C 0.79722 0.88565 0.07726 0.0
C1244 C 0.7871 0.8652 0.06512 0.0
C1245 C 0.7967 0.81867 0.06883 0.0
H1246 H 0.7846 0.80947 0.08277 0.0
H1247 H 0.81502 0.80956 0.06934 0.0
H1248 H 0.78832 0.81645 0.04995 0.0
O1249 O 0.83595 0.84573 0.14991 0.0
O1250 O 0.8316 0.8862 0.15086 0.0
H1251 H 0.78286 0.91888 0.09265 0.0
H1252 H 0.77485 0.91454 0.06042 0.0
C1253 C 0.78975 0.91203 0.07444 0.0
H1254 H 0.80615 0.92328 0.0692 0.0
H1255 H 0.79701 0.92899 0.13568 0.0
O1256 O 0.83834 0.80165 0.11259 0.0
C1257 C 0.83309 0.86566 0.16203 0.0
Co1258 Co 0.14686 0.65248 0.09225 0.0
Co1259 Co 0.14642 0.59539 0.09073 0.0
C1260 C 0.09979 0.62647 0.08559 0.0
O1261 O 0.11154 0.64679 0.08403 0.0
O1262 O 0.1112 0.60623 0.08853 0.0
C1263 C 0.1385 0.69706 0.1125 0.0
O1264 O 0.12187 0.68261 0.12289 0.0
C1265 C 0.1297 0.5473 0.07278 0.0
C1266 C 0.15771 0.52263 0.08914 0.0
C1267 C 0.13603 0.52287 0.07529 0.0
N1268 N 0.14708 0.56109 0.08429 0.0
N1269 N 0.1639 0.54623 0.09387 0.0
C1270 C 0.10647 0.55713 0.06137 0.0
H1271 H 0.1105 0.57457 0.05135 0.0
H1272 H 0.09809 0.54353 0.04822 0.0
H1273 H 0.09295 0.56098 0.07645 0.0
C1274 C 0.18578 0.64544 0.05345 0.0
N1275 N 0.16843 0.63687 0.06933 0.0
N1276 N 0.16839 0.61265 0.06875 0.0
C1277 C 0.18594 0.60498 0.05261 0.0
C1278 C 0.19762 0.62553 0.04225 0.0
C1279 C 0.19076 0.67224 0.04923 0.0
H1280 H 0.20337 0.67919 0.06415 0.0
H1281 H 0.17323 0.68273 0.05036 0.0
H1282 H 0.19954 0.67537 0.03075 0.0
O1283 O 0.15161 0.64039 0.12686 0.0
O1284 O 0.15539 0.59991 0.12625 0.0
H1285 H 0.19824 0.571 0.06804 0.0
H1286 H 0.20904 0.57612 0.03682 0.0
C1287 C 0.19309 0.57854 0.04952 0.0
H1288 H 0.17699 0.56785 0.0423 0.0
H1289 H 0.17894 0.55215 0.10471 0.0
O1290 O 0.15256 0.68816 0.09575 0.0
C1291 C 0.15481 0.62014 0.13825 0.0
Co1292 Co 0.16246 0.39939 0.85015 0.0
Co1293 Co 0.10352 0.39699 0.84562 0.0
C1294 C 0.12993 0.40217 0.89511 0.0
O1295 O 0.15122 0.40413 0.88518 0.0
O1296 O 0.11048 0.39938 0.88189 0.0
C1297 C 0.21185 0.40445 0.87021 0.0
O1298 O 0.19971 0.41397 0.88913 0.0
C1299 C 0.05003 0.39723 0.85748 0.0
C1300 C 0.03375 0.38782 0.82068 0.0
C1301 C 0.02783 0.39122 0.84566 0.0
N1302 N 0.06821 0.39739 0.84022 0.0
N1303 N 0.05821 0.39205 0.81823 0.0
C1304 C 0.0546 0.39873 0.88508 0.0
H1305 H 0.06588 0.41537 0.88941 0.0
H1306 H 0.03721 0.39929 0.89596 0.0
H1307 H 0.06517 0.38227 0.89095 0.0
C1308 C 0.15415 0.43984 0.81242 0.0
N1309 N 0.14585 0.42182 0.82772 0.0
N1310 N 0.12142 0.42127 0.8267 0.0
C1311 C 0.11353 0.43912 0.8111 0.0
C1312 C 0.13393 0.45142 0.80118 0.0
C1313 C 0.18098 0.44542 0.80834 0.0
H1314 H 0.19209 0.42845 0.81051 0.0
H1315 H 0.1873 0.45896 0.82264 0.0
H1316 H 0.18404 0.45339 0.78948 0.0
O1317 O 0.15399 0.3647 0.84269 0.0
O1318 O 0.11342 0.36342 0.83631 0.0
H1319 H 0.07888 0.43393 0.79237 0.0
H1320 H 0.08486 0.46526 0.80196 0.0
C1321 C 0.08688 0.44566 0.80742 0.0
H1322 H 0.07639 0.44242 0.8249 0.0
H1323 H 0.06834 0.38969 0.80182 0.0
O1324 O 0.20001 0.39947 0.8501 0.0
C1325 C 0.13426 0.35278 0.83754 0.0
Co1326 Co 0.35066 0.33908 0.59878 0.0
Co1327 Co 0.35062 0.39688 0.60006 0.0
C1328 C 0.39777 0.36894 0.59528 0.0
O1329 O 0.38612 0.34846 0.59469 0.0
O1330 O 0.38624 0.38927 0.59685 0.0
C1331 C 0.36319 0.29373 0.61465 0.0
O1332 O 0.3773 0.309 0.62754 0.0
C1333 C 0.36185 0.44958 0.594 0.0
C1334 C 0.32597 0.46628 0.6039 0.0
C1335 C 0.34999 0.47184 0.597 0.0
N1336 N 0.34554 0.43144 0.59881 0.0
N1337 N 0.32416 0.44156 0.60485 0.0
C1338 C 0.38829 0.44571 0.58696 0.0
H1339 H 0.38965 0.43037 0.57328 0.0
H1340 H 0.39655 0.46264 0.57879 0.0
H1341 H 0.39889 0.44074 0.604 0.0
C1342 C 0.31225 0.34824 0.55939 0.0
N1343 N 0.3297 0.35583 0.57589 0.0
N1344 N 0.33064 0.3801 0.57589 0.0
C1345 C 0.3143 0.38863 0.55895 0.0
C1346 C 0.30179 0.36887 0.54827 0.0
C1347 C 0.30471 0.32192 0.55579 0.0
H1348 H 0.3043 0.31239 0.57414 0.0
H1349 H 0.31869 0.31262 0.54396 0.0
H1350 H 0.28632 0.32038 0.54654 0.0
O1351 O 0.34203 0.34718 0.63342 0.0
O1352 O 0.3417 0.38786 0.63453 0.0
H1353 H 0.29771 0.42368 0.56554 0.0
H1354 H 0.30346 0.41714 0.53313 0.0
C1355 C 0.31101 0.41521 0.55238 0.0
H1356 H 0.32896 0.42515 0.55356 0.0
H1357 H 0.30844 0.43156 0.61005 0.0
O1358 O 0.34869 0.30255 0.59811 0.0
C1359 C 0.33958 0.3672 0.64543 0.0
Co1360 Co 0.08614 0.60777 0.64826 0.0
Co1361 Co 0.14394 0.60424 0.64448 0.0
C1362 C 0.12069 0.65113 0.6586 0.0
O1363 O 0.09928 0.64151 0.65589 0.0
O1364 O 0.14009 0.6382 0.65666 0.0
C1365 C 0.0409 0.62843 0.64074 0.0
O1366 O 0.0565 0.64454 0.63134 0.0
C1367 C 0.19738 0.61332 0.64303 0.0
C1368 C 0.21094 0.57904 0.62555 0.0
C1369 C 0.21839 0.60222 0.63353 0.0
N1370 N 0.17837 0.59727 0.64107 0.0
N1371 N 0.18665 0.57679 0.63068 0.0
C1372 C 0.19435 0.63998 0.64962 0.0
H1373 H 0.18086 0.6484 0.63654 0.0
H1374 H 0.18701 0.64149 0.66892 0.0
H1375 H 0.21186 0.6506 0.64831 0.0
C1376 C 0.09471 0.56593 0.68431 0.0
N1377 N 0.10263 0.58288 0.66764 0.0
N1378 N 0.12693 0.58153 0.66593 0.0
C1379 C 0.13521 0.56395 0.68168 0.0
C1380 C 0.11507 0.55331 0.69391 0.0
C1381 C 0.06818 0.56257 0.69154 0.0
H1382 H 0.05852 0.58054 0.69114 0.0
H1383 H 0.0666 0.55427 0.71044 0.0
H1384 H 0.05902 0.55015 0.67777 0.0
O1385 O 0.0907 0.60308 0.61193 0.0
O1386 O 0.1315 0.60455 0.60944 0.0
H1387 H 0.16728 0.54662 0.66684 0.0
H1388 H 0.16547 0.54478 0.70017 0.0
C1389 C 0.16187 0.55684 0.68392 0.0
H1390 H 0.17361 0.57364 0.68536 0.0
H1391 H 0.17539 0.56188 0.62558 0.0
O1392 O 0.04938 0.60913 0.65119 0.0
C1393 C 0.11033 0.60393 0.59898 0.0
Co1394 Co 0.40406 0.40051 0.14352 0.0
Co1395 Co 0.34618 0.40229 0.14496 0.0
C1396 C 0.37332 0.3545 0.14879 0.0
O1397 O 0.39434 0.36534 0.14817 0.0
O1398 O 0.35322 0.36668 0.14847 0.0
C1399 C 0.45081 0.39053 0.12647 0.0
O1400 O 0.43708 0.37534 0.11308 0.0
C1401 C 0.29303 0.39254 0.15071 0.0
C1402 C 0.27752 0.42981 0.14576 0.0
C1403 C 0.27106 0.40542 0.14958 0.0
N1404 N 0.31179 0.40861 0.14781 0.0
N1405 N 0.30239 0.43084 0.14475 0.0
C1406 C 0.2962 0.36546 0.15445 0.0
H1407 H 0.30999 0.3623 0.16952 0.0
H1408 H 0.27851 0.3563 0.15956 0.0
H1409 H 0.30335 0.35717 0.13691 0.0
C1410 C 0.39793 0.43799 0.18409 0.0
N1411 N 0.38881 0.42201 0.16694 0.0
N1412 N 0.3645 0.42171 0.16837 0.0
C1413 C 0.35742 0.43681 0.18707 0.0
C1414 C 0.37828 0.44803 0.1974 0.0
C1415 C 0.42484 0.44415 0.1868 0.0
H1416 H 0.43376 0.44447 0.16813 0.0
H1417 H 0.43392 0.42968 0.19816 0.0
H1418 H 0.42761 0.46226 0.19611 0.0
O1419 O 0.39467 0.40789 0.10895 0.0
O1420 O 0.35381 0.41011 0.10967 0.0
H1421 H 0.32162 0.4534 0.18644 0.0
H1422 H 0.33141 0.4434 0.2169 0.0
C1423 C 0.33148 0.43866 0.19667 0.0
H1424 H 0.32148 0.42096 0.19396 0.0
H1425 H 0.31297 0.44664 0.14139 0.0
O1426 O 0.44051 0.40347 0.14331 0.0
C1427 C 0.37412 0.41064 0.09778 0.0
Co1428 Co 0.63922 0.41427 0.09682 0.0
Co1429 Co 0.63592 0.35617 0.09662 0.0
C1430 C 0.64212 0.38598 0.14408 0.0
O1431 O 0.64487 0.40642 0.13272 0.0
O1432 O 0.63832 0.366 0.13214 0.0
C1433 C 0.6244 0.46122 0.10853 0.0
O1434 O 0.61197 0.44694 0.1239 0.0
C1435 C 0.64511 0.30515 0.11243 0.0
C1436 C 0.62258 0.28461 0.08467 0.0
C1437 C 0.63618 0.28183 0.10649 0.0
N1438 N 0.63694 0.32103 0.09499 0.0
N1439 N 0.62386 0.30853 0.07823 0.0
C1440 C 0.65813 0.3128 0.13599 0.0
H1441 H 0.64413 0.31775 0.15026 0.0
H1442 H 0.67003 0.32915 0.13242 0.0
H1443 H 0.66954 0.29763 0.14357 0.0
C1444 C 0.68045 0.40252 0.0603 0.0
N1445 N 0.66174 0.39606 0.07578 0.0
N1446 N 0.66044 0.37179 0.07659 0.0
C1447 C 0.67819 0.36216 0.06195 0.0
C1448 C 0.69157 0.38123 0.05107 0.0
C1449 C 0.68807 0.42855 0.05523 0.0
H1450 H 0.68444 0.44026 0.07186 0.0
H1451 H 0.70795 0.42963 0.05011 0.0
H1452 H 0.67693 0.43566 0.03936 0.0
O1453 O 0.60401 0.40541 0.09026 0.0
O1454 O 0.60237 0.36485 0.08588 0.0
H1455 H 0.6639 0.32688 0.05122 0.0
H1456 H 0.6962 0.33112 0.044 0.0
C1457 C 0.68157 0.33509 0.05792 0.0
H1458 H 0.68635 0.32627 0.076 0.0
H1459 H 0.61451 0.31658 0.06325 0.0
O1460 O 0.63975 0.4512 0.09354 0.0
C1461 C 0.59185 0.38569 0.08603 0.0
Co1462 Co 0.8557 0.66246 0.59798 0.0
Co1463 Co 0.84869 0.60433 0.59855 0.0
C1464 C 0.89909 0.62836 0.59903 0.0
O1465 O 0.8905 0.65016 0.59757 0.0
O1466 O 0.88481 0.60963 0.5991 0.0
C1467 C 0.86948 0.70877 0.61544 0.0
O1468 O 0.88273 0.69389 0.62939 0.0
C1469 C 0.8576 0.55176 0.58783 0.0
C1470 C 0.82967 0.53462 0.61241 0.0
C1471 C 0.85003 0.52936 0.59773 0.0
N1472 N 0.84259 0.56953 0.59657 0.0
N1473 N 0.82554 0.55898 0.61072 0.0
C1474 C 0.88061 0.55641 0.5731 0.0
H1475 H 0.88096 0.57549 0.56571 0.0
H1476 H 0.88162 0.54318 0.55728 0.0
H1477 H 0.89698 0.55325 0.58522 0.0
C1478 C 0.82114 0.65634 0.55432 0.0
N1479 N 0.83536 0.64716 0.57285 0.0
N1480 N 0.83293 0.62296 0.57302 0.0
C1481 C 0.81741 0.61601 0.5545 0.0
C1482 C 0.80933 0.6369 0.54199 0.0
C1483 C 0.81875 0.68321 0.54883 0.0
H1484 H 0.83704 0.69244 0.5509 0.0
H1485 H 0.81133 0.68627 0.52969 0.0
H1486 H 0.80596 0.69156 0.56263 0.0
O1487 O 0.8432 0.65455 0.63133 0.0
O1488 O 0.83722 0.61421 0.63207 0.0
H1489 H 0.79497 0.58842 0.53529 0.0
H1490 H 0.82543 0.57858 0.5453 0.0
C1491 C 0.80916 0.58994 0.55028 0.0
H1492 H 0.80137 0.58249 0.56792 0.0
H1493 H 0.81229 0.56868 0.62086 0.0
O1494 O 0.856 0.69944 0.59812 0.0
C1495 C 0.83689 0.6351 0.64287 0.0
Co1496 Co 0.6658 0.387 0.65572 0.0
Co1497 Co 0.60764 0.38608 0.65564 0.0
C1498 C 0.63593 0.39874 0.60969 0.0
O1499 O 0.65662 0.39625 0.62094 0.0
O1500 O 0.61549 0.39621 0.62123 0.0
C1501 C 0.71313 0.37445 0.64292 0.0
O1502 O 0.6997 0.363 0.62588 0.0
C1503 C 0.55491 0.39608 0.6458 0.0
C1504 C 0.53725 0.36964 0.67165 0.0
C1505 C 0.53225 0.38591 0.65241 0.0
N1506 N 0.57257 0.38603 0.66032 0.0
N1507 N 0.56178 0.37066 0.67609 0.0
C1508 C 0.56004 0.41244 0.62393 0.0
H1509 H 0.56219 0.40086 0.60696 0.0
H1510 H 0.57729 0.4232 0.62712 0.0
H1511 H 0.54449 0.42525 0.62059 0.0
C1512 C 0.65712 0.42381 0.69592 0.0
N1513 N 0.64895 0.40659 0.67962 0.0
N1514 N 0.62458 0.40645 0.67949 0.0
C1515 C 0.61645 0.42389 0.69548 0.0
C1516 C 0.63683 0.43558 0.70652 0.0
C1517 C 0.68395 0.42916 0.70065 0.0
H1518 H 0.69447 0.41168 0.70113 0.0
H1519 H 0.69132 0.4405 0.68508 0.0
H1520 H 0.68672 0.43919 0.71858 0.0
O1521 O 0.65808 0.35175 0.65888 0.0
O1522 O 0.6172 0.35074 0.65644 0.0
H1523 H 0.57958 0.41651 0.70777 0.0
H1524 H 0.58757 0.44894 0.70743 0.0
C1525 C 0.58983 0.43111 0.69756 0.0
H1526 H 0.5816 0.43256 0.67857 0.0
H1527 H 0.57137 0.35965 0.68879 0.0
O1528 O 0.7023 0.38822 0.65875 0.0
C1529 C 0.63791 0.33974 0.65742 0.0
Co1530 Co 0.3592 0.58616 0.89276 0.0
Co1531 Co 0.35813 0.64439 0.89535 0.0
C1532 C 0.35217 0.6156 0.84707 0.0
O1533 O 0.35105 0.59473 0.85777 0.0
O1534 O 0.3553 0.63541 0.85951 0.0
C1535 C 0.37524 0.54095 0.8771 0.0
O1536 O 0.38432 0.55635 0.86052 0.0
C1537 C 0.35119 0.69644 0.8807 0.0
C1538 C 0.35451 0.71562 0.91706 0.0
C1539 C 0.35134 0.71959 0.89168 0.0
N1540 N 0.35408 0.67942 0.89879 0.0
N1541 N 0.3562 0.6911 0.92046 0.0
C1542 C 0.34826 0.69064 0.85346 0.0
H1543 H 0.36598 0.68334 0.84623 0.0
H1544 H 0.33375 0.67629 0.85093 0.0
H1545 H 0.34305 0.70718 0.84253 0.0
C1546 C 0.31864 0.59225 0.93019 0.0
N1547 N 0.33644 0.60148 0.91517 0.0
N1548 N 0.33528 0.62576 0.91548 0.0
C1549 C 0.31641 0.63261 0.93042 0.0
C1550 C 0.30538 0.61168 0.94051 0.0
C1551 C 0.31442 0.56531 0.93431 0.0
H1552 H 0.33234 0.55544 0.93411 0.0
H1553 H 0.30278 0.5579 0.91883 0.0
H1554 H 0.30484 0.56194 0.95233 0.0
O1555 O 0.39353 0.59746 0.89827 0.0
O1556 O 0.39297 0.63783 0.90435 0.0
H1557 H 0.31769 0.66807 0.94785 0.0
H1558 H 0.28725 0.65876 0.93771 0.0
C1559 C 0.3072 0.65847 0.9328 0.0
H1560 H 0.30981 0.6685 0.91496 0.0
H1561 H 0.3594 0.68237 0.93753 0.0
O1562 O 0.3617 0.54942 0.8946 0.0
C1563 C 0.4047 0.61766 0.90278 0.0
Co1564 Co 0.14687 0.40859 0.3969 0.0
Co1565 Co 0.14484 0.35055 0.39282 0.0
C1566 C 0.1521 0.38202 0.34775 0.0
O1567 O 0.15162 0.40197 0.36043 0.0
O1568 O 0.15071 0.36109 0.35834 0.0
C1569 C 0.13175 0.45586 0.38937 0.0
O1570 O 0.11877 0.44266 0.3733 0.0
C1571 C 0.15523 0.29921 0.37849 0.0
C1572 C 0.12843 0.27954 0.40251 0.0
C1573 C 0.14507 0.27619 0.3832 0.0
N1574 N 0.14481 0.31552 0.3942 0.0
N1575 N 0.12916 0.30353 0.4088 0.0
C1576 C 0.17207 0.30607 0.35746 0.0
H1577 H 0.18142 0.32393 0.36141 0.0
H1578 H 0.18615 0.29158 0.35448 0.0
H1579 H 0.16103 0.30768 0.34 0.0
C1580 C 0.18742 0.3955 0.43306 0.0
N1581 N 0.16891 0.38951 0.41709 0.0
N1582 N 0.16759 0.36532 0.41528 0.0
C1583 C 0.18507 0.35519 0.42991 0.0
C1584 C 0.19836 0.37392 0.4416 0.0
C1585 C 0.1952 0.42138 0.43891 0.0
H1586 H 0.19259 0.43323 0.42223 0.0
H1587 H 0.21481 0.42219 0.44515 0.0
H1588 H 0.18335 0.42861 0.45414 0.0
O1589 O 0.11185 0.40026 0.40333 0.0
O1590 O 0.11049 0.35974 0.39922 0.0
H1591 H 0.20159 0.32357 0.44823 0.0
H1592 H 0.19513 0.32003 0.41511 0.0
C1593 C 0.18839 0.32799 0.43297 0.0
H1594 H 0.17029 0.3193 0.43731 0.0
H1595 H 0.11791 0.31199 0.42209 0.0
O1596 O 0.14796 0.44498 0.4027 0.0
C1597 C 0.0997 0.38019 0.40243 0.0
Co1598 Co 0.33515 0.60988 0.34458 0.0
Co1599 Co 0.39263 0.61488 0.3367 0.0
C1600 C 0.3679 0.6084 0.3876 0.0
O1601 O 0.34615 0.60403 0.3794 0.0
O1602 O 0.3857 0.61309 0.37282 0.0
C1603 C 0.28766 0.62323 0.35804 0.0
O1604 O 0.30135 0.63656 0.37337 0.0
C1605 C 0.44434 0.6045 0.34969 0.0
C1606 C 0.46457 0.61917 0.31709 0.0
C1607 C 0.46783 0.60843 0.34031 0.0
N1608 N 0.42773 0.6125 0.33278 0.0
N1609 N 0.43999 0.62127 0.31332 0.0
C1610 C 0.43793 0.59355 0.37451 0.0
H1611 H 0.42142 0.5814 0.37259 0.0
H1612 H 0.45364 0.58282 0.38219 0.0
H1613 H 0.43355 0.60859 0.38785 0.0
C1614 C 0.34238 0.56975 0.30693 0.0
N1615 N 0.35101 0.58811 0.32166 0.0
N1616 N 0.3751 0.59018 0.31851 0.0
C1617 C 0.38256 0.57329 0.30166 0.0
C1618 C 0.36208 0.55966 0.29374 0.0
C1619 C 0.31583 0.56178 0.30604 0.0
H1620 H 0.30756 0.56314 0.32497 0.0
H1621 H 0.31395 0.54262 0.29893 0.0
H1622 H 0.30549 0.57429 0.29343 0.0
O1623 O 0.34319 0.64497 0.33786 0.0
O1624 O 0.38262 0.64825 0.32689 0.0
H1625 H 0.41389 0.58994 0.28422 0.0
H1626 H 0.41046 0.5578 0.27699 0.0
C1627 C 0.40848 0.57179 0.29197 0.0
H1628 H 0.42126 0.56748 0.30763 0.0
H1629 H 0.43161 0.62938 0.29778 0.0
O1630 O 0.29835 0.60838 0.34313 0.0
C1631 C 0.36161 0.65793 0.33088 0.0
H1632 H 0.14251 0.38977 0.01152 0.0
H1633 H 0.08171 0.33894 -0.00031 0.0
H1634 H 0.08083 0.34963 0.95523 0.0
H1635 H 0.09771 0.37297 0.91985 0.0
H1636 H 0.15952 0.42247 0.93135 0.0
H1637 H 0.15945 0.41294 0.97615 0.0
C1638 C 0.12909 0.38092 0.99924 0.0
C1639 C 0.1122 0.36354 0.00892 0.0
C1640 C 0.1287 0.38716 0.97379 0.0
C1641 C 0.095 0.35226 0.9927 0.0
C1642 C 0.09439 0.35848 0.96733 0.0
C1643 C 0.11078 0.38213 0.93225 0.0
C1644 C 0.12825 0.39883 0.92245 0.0
C1645 C 0.11108 0.37598 0.95773 0.0
C1646 C 0.14572 0.4098 0.93857 0.0
C1647 C 0.14576 0.40424 0.9641 0.0
H1648 H 0.84884 0.88931 0.27614 0.0
H1649 H 0.89872 0.82782 0.26953 0.0
H1650 H 0.88575 0.82171 0.22601 0.0
H1651 H 0.86123 0.83473 0.18954 0.0
H1652 H 0.81325 0.89769 0.1957 0.0
H1653 H 0.82404 0.90196 0.24003 0.0
C1654 C 0.85695 0.87457 0.26521 0.0
C1655 C 0.87483 0.85911 0.27607 0.0
C1656 C 0.84946 0.87123 0.24026 0.0
C1657 C 0.88508 0.8401 0.26159 0.0
C1658 C 0.87755 0.83651 0.23676 0.0
C1659 C 0.85272 0.84905 0.20074 0.0
C1660 C 0.83621 0.86569 0.18949 0.0
C1661 C 0.85977 0.85198 0.22591 0.0
C1662 C 0.82582 0.88454 0.20404 0.0
C1663 C 0.83214 0.8871 0.22929 0.0
H1664 H 0.36648 0.62554 0.50438 0.0
H1665 H 0.42305 0.67811 0.48414 0.0
H1666 H 0.42105 0.66407 0.44056 0.0
H1667 H 0.40183 0.63855 0.40831 0.0
H1668 H 0.34236 0.58857 0.42718 0.0
H1669 H 0.34701 0.59962 0.47154 0.0
C1670 C 0.37849 0.63365 0.49036 0.0
C1671 C 0.39509 0.65257 0.49719 0.0
C1672 C 0.37672 0.62593 0.46534 0.0
C1673 C 0.41023 0.66347 0.47906 0.0
C1674 C 0.40911 0.65542 0.45428 0.0
C1675 C 0.39017 0.62968 0.42215 0.0
C1676 C 0.37199 0.61251 0.41459 0.0
C1677 C 0.39229 0.63683 0.44722 0.0
C1678 C 0.35658 0.60171 0.43264 0.0
C1679 C 0.35918 0.6081 0.45792 0.0
H1680 H 0.63598 0.10401 0.67683 0.0
H1681 H 0.67581 0.17313 0.67938 0.0
H1682 H 0.66067 0.18056 0.72192 0.0
H1683 H 0.63295 0.169 0.75686 0.0
H1684 H 0.59064 0.10153 0.75211 0.0
H1685 H 0.60951 0.09203 0.71171 0.0
C1686 C 0.6419 0.12042 0.68689 0.0
C1687 C 0.65726 0.13786 0.67506 0.0
C1688 C 0.63217 0.12511 0.71073 0.0
C1689 C 0.6642 0.15932 0.68818 0.0
C1690 C 0.65536 0.16367 0.71239 0.0
C1691 C 0.62813 0.15213 0.747 0.0
C1692 C 0.61059 0.13588 0.75739 0.0
C1693 C 0.63881 0.14699 0.72359 0.0
C1694 C 0.60405 0.11431 0.74436 0.0
C1695 C 0.61493 0.10882 0.72137 0.0
H1696 H 0.08211 0.62821 0.48683 0.0
H1697 H 0.15419 0.66305 0.4903 0.0
H1698 H 0.15961 0.64879 0.53311 0.0
H1699 H 0.14414 0.62664 0.56964 0.0
H1700 H 0.07145 0.59328 0.56757 0.0
H1701 H 0.06627 0.60631 0.52401 0.0
C1702 C 0.09891 0.63287 0.49702 0.0
C1703 C 0.11769 0.64673 0.48527 0.0
C1704 C 0.10201 0.62452 0.52177 0.0
C1705 C 0.13937 0.65248 0.49879 0.0
C1706 C 0.14259 0.64421 0.52329 0.0
C1707 C 0.12731 0.62182 0.55956 0.0
C1708 C 0.10835 0.60869 0.57175 0.0
C1709 C 0.12414 0.63007 0.53488 0.0
C1710 C 0.08643 0.60315 0.55854 0.0
C1711 C 0.08339 0.61076 0.5337 0.0
H1712 H 0.6547 0.83897 0.82362 0.0
H1713 H 0.65979 0.91829 0.82035 0.0
H1714 H 0.64463 0.91743 0.7773 0.0
H1715 H 0.6233 0.89479 0.7435 0.0
H1716 H 0.61465 0.81596 0.74855 0.0
H1717 H 0.63733 0.81595 0.7883 0.0
C1718 C 0.65294 0.85606 0.81345 0.0
C1719 C 0.65769 0.87868 0.82558 0.0
C1720 C 0.64292 0.85554 0.78922 0.0
C1721 C 0.65596 0.9006 0.81169 0.0
C1722 C 0.64699 0.90016 0.78713 0.0
C1723 C 0.62658 0.87762 0.75329 0.0
C1724 C 0.61737 0.8554 0.74329 0.0
C1725 C 0.6392 0.87786 0.77626 0.0
C1726 C 0.62188 0.83321 0.75582 0.0
C1727 C 0.63474 0.83324 0.77856 0.0
H1728 H 0.34907 0.39311 0.98419 0.0
H1729 H 0.41487 0.34868 0.9902 0.0
H1730 H 0.4208 0.36249 0.03335 0.0
H1731 H 0.40675 0.38606 0.06944 0.0
H1732 H 0.33927 0.42797 0.06496 0.0
H1733 H 0.33491 0.41683 0.02064 0.0
C1734 C 0.36467 0.38638 0.99496 0.0
C1735 C 0.38147 0.36982 0.98404 0.0
C1736 C 0.36789 0.39428 0.01978 0.0
C1737 C 0.40156 0.36124 0.99824 0.0
C1738 C 0.40508 0.36929 0.02283 0.0
C1739 C 0.39137 0.39326 0.05866 0.0
C1740 C 0.37354 0.40815 0.07031 0.0
C1741 C 0.38838 0.3858 0.03374 0.0
C1742 C 0.35336 0.41673 0.05626 0.0
C1743 C 0.35076 0.41017 0.03105 0.0
H1744 H 0.8809 0.15249 0.24121 0.0
H1745 H 0.8894 0.07403 0.23265 0.0
H1746 H 0.87556 0.0676 0.27573 0.0
H1747 H 0.86201 0.08445 0.31605 0.0
H1748 H 0.85215 0.16293 0.32406 0.0
H1749 H 0.86469 0.16911 0.28075 0.0
C1750 C 0.88006 0.13406 0.24898 0.0
C1751 C 0.88669 0.1138 0.23415 0.0
C1752 C 0.87128 0.13046 0.27343 0.0
C1753 C 0.88475 0.08991 0.244 0.0
C1754 C 0.87664 0.08621 0.2685 0.0
C1755 C 0.86206 0.10286 0.30819 0.0
C1756 C 0.85624 0.1232 0.3234 0.0
C1757 C 0.86977 0.10635 0.28337 0.0
C1758 C 0.85658 0.14693 0.31285 0.0
C1759 C 0.86399 0.15053 0.28812 0.0
H1760 H 0.94544 0.14502 0.39765 0.0
H1761 H 0.93505 0.06607 0.39651 0.0
H1762 H 0.97756 0.06074 0.38217 0.0
H1763 H 0.01727 0.0787 0.36787 0.0
H1764 H 0.02708 0.15764 0.36946 0.0
H1765 H 0.98511 0.16272 0.38516 0.0
C1766 C 0.95252 0.12659 0.3947 0.0
C1767 C 0.93696 0.10602 0.39818 0.0
C1768 C 0.97679 0.12365 0.38594 0.0
C1769 C 0.94657 0.08229 0.39409 0.0
C1770 C 0.97085 0.0792 0.38564 0.0
C1771 C 0.01005 0.09698 0.37142 0.0
C1772 C 0.02512 0.11777 0.36724 0.0
C1773 C 0.98597 0.09978 0.38098 0.0
C1774 C 0.01577 0.14135 0.3724 0.0
C1775 C 0.99182 0.14428 0.38151 0.0
H1776 H 0.15838 0.75808 0.63564 0.0
H1777 H 0.08813 0.75983 0.59711 0.0
H1778 H 0.07683 0.71995 0.615 0.0
H1779 H 0.08841 0.68323 0.6383 0.0
H1780 H 0.15983 0.67961 0.67445 0.0
H1781 H 0.16882 0.722 0.6617 0.0
C1782 C 0.14045 0.74984 0.63157 0.0
C1783 C 0.12403 0.76182 0.61522 0.0
C1784 C 0.13423 0.72673 0.64167 0.0
C1785 C 0.10108 0.75083 0.60958 0.0
C1786 C 0.09456 0.72813 0.61991 0.0
C1787 C 0.10566 0.6919 0.64406 0.0
C1788 C 0.12342 0.67824 0.65731 0.0
C1789 C 0.11115 0.71575 0.63563 0.0
C1790 C 0.14584 0.68972 0.66425 0.0
C1791 C 0.15108 0.71388 0.65676 0.0
H1792 H 0.48982 0.90604 0.8614 0.0
H1793 H 0.49353 0.82904 0.84153 0.0
H1794 H 0.53483 0.82642 0.86019 0.0
H1795 H 0.56977 0.84605 0.88172 0.0
H1796 H 0.56605 0.92307 0.90187 0.0
H1797 H 0.52439 0.92541 0.88417 0.0
C1798 C 0.49983 0.88878 0.86085 0.0
C1799 C 0.48887 0.86784 0.84982 0.0
C1800 C 0.52324 0.88727 0.87215 0.0
C1801 C 0.50176 0.84545 0.84974 0.0
C1802 C 0.52524 0.8439 0.86055 0.0
C1803 C 0.55972 0.86327 0.88269 0.0
C1804 C 0.57103 0.88434 0.89317 0.0
C1805 C 0.53607 0.86465 0.87195 0.0
C1806 C 0.55776 0.90654 0.894 0.0
C1807 C 0.53404 0.90796 0.88367 0.0
H1808 H 0.41079 0.32382 0.13562 0.0
H1809 H 0.33271 0.32425 0.15261 0.0
H1810 H 0.32891 0.2816 0.1386 0.0
H1811 H 0.34741 0.24455 0.11974 0.0
H1812 H 0.42567 0.24384 0.10408 0.0
H1813 H 0.42964 0.28632 0.11892 0.0
C1814 C 0.393 0.31451 0.13672 0.0
C1815 C 0.37204 0.3274 0.14507 0.0
C1816 C 0.39086 0.29003 0.12832 0.0
C1817 C 0.34915 0.31493 0.14617 0.0
C1818 C 0.34691 0.29052 0.138 0.0
C1819 C 0.36525 0.25385 0.11932 0.0
C1820 C 0.38615 0.24128 0.11047 0.0
C1821 C 0.36753 0.27806 0.12854 0.0
C1822 C 0.40928 0.25326 0.11061 0.0
C1823 C 0.41159 0.27748 0.11923 0.0
H1824 H 0.99423 0.90085 0.12579 0.0
H1825 H 0.99495 0.82783 0.1573 0.0
H1826 H 0.95352 0.81976 0.14058 0.0
H1827 H 0.91582 0.83482 0.12082 0.0
H1828 H 0.91351 0.90879 0.09161 0.0
H1829 H 0.95708 0.91491 0.10283 0.0
C1830 C 0.98543 0.88304 0.12848 0.0
C1831 C 0.99753 0.86489 0.14259 0.0
C1832 C 0.96139 0.87871 0.11919 0.0
C1833 C 0.98585 0.84206 0.14653 0.0
C1834 C 0.96224 0.83742 0.13692 0.0
C1835 C 0.92498 0.85208 0.11627 0.0
C1836 C 0.91138 0.87138 0.10552 0.0
C1837 C 0.94965 0.85577 0.12367 0.0
C1838 C 0.92351 0.89371 0.10006 0.0
C1839 C 0.94839 0.89726 0.10659 0.0
H1840 H 0.37875 0.77178 0.34289 0.0
H1841 H 0.31656 0.7631 0.39276 0.0
H1842 H 0.31249 0.71987 0.38026 0.0
H1843 H 0.32814 0.68422 0.35719 0.0
H1844 H 0.39184 0.6924 0.30925 0.0
H1845 H 0.39336 0.73653 0.31854 0.0
C1846 C 0.36424 0.76049 0.35103 0.0
C1847 C 0.34809 0.77061 0.3689 0.0
C1848 C 0.36214 0.73569 0.34391 0.0
C1849 C 0.32936 0.75572 0.37914 0.0
C1850 C 0.32696 0.73104 0.37192 0.0
C1851 C 0.34206 0.69572 0.34831 0.0
C1852 C 0.35982 0.68505 0.33244 0.0
C1853 C 0.34339 0.72081 0.3545 0.0
C1854 C 0.37793 0.70017 0.32145 0.0
C1855 C 0.37891 0.72535 0.32691 0.0
H1856 H 0.57773 0.16418 0.60692 0.0
H1857 H 0.57928 0.08773 0.5846 0.0
H1858 H 0.53609 0.08278 0.59685 0.0
H1859 H 0.49833 0.09961 0.61617 0.0
H1860 H 0.49633 0.17647 0.63658 0.0
H1861 H 0.53924 0.18173 0.62313 0.0
C1862 C 0.56853 0.14655 0.60423 0.0
C1863 C 0.58196 0.12628 0.59514 0.0
C1864 C 0.54368 0.14376 0.6115 0.0
C1865 C 0.5696 0.10357 0.59189 0.0
C1866 C 0.54487 0.10068 0.59899 0.0
C1867 C 0.50743 0.11742 0.61786 0.0
C1868 C 0.4944 0.13752 0.62775 0.0
C1869 C 0.53191 0.12048 0.60941 0.0
C1870 C 0.50611 0.16067 0.62923 0.0
C1871 C 0.53059 0.16373 0.62143 0.0
H1872 H 0.11052 0.2401 0.84804 0.0
H1873 H 0.17196 0.24547 0.89979 0.0
H1874 H 0.17856 0.28843 0.88788 0.0
H1875 H 0.16567 0.3248 0.86434 0.0
H1876 H 0.10257 0.32029 0.81473 0.0
H1877 H 0.09826 0.27626 0.82369 0.0
C1878 C 0.12535 0.25065 0.85676 0.0
C1879 C 0.14062 0.23965 0.87491 0.0
C1880 C 0.12897 0.27532 0.84991 0.0
C1881 C 0.1598 0.25357 0.88595 0.0
C1882 C 0.16369 0.27807 0.87902 0.0
C1883 C 0.15135 0.31406 0.85499 0.0
C1884 C 0.13461 0.32566 0.83867 0.0
C1885 C 0.14832 0.28914 0.86112 0.0
C1886 C 0.11578 0.31166 0.82719 0.0
C1887 C 0.11319 0.28659 0.83249 0.0
H1888 H 0.37601 0.93401 0.15248 0.0
H1889 H 0.41716 0.92718 0.08391 0.0
H1890 H 0.40544 0.96913 0.072 0.0
H1891 H 0.38054 0.00654 0.07973 0.0
H1892 H 0.33686 0.01145 0.14689 0.0
H1893 H 0.35216 0.97138 0.16064 0.0
C1894 C 0.38299 0.94199 0.13527 0.0
C1895 C 0.39773 0.92773 0.11924 0.0
C1896 C 0.37523 0.96559 0.12809 0.0
C1897 C 0.40596 0.93794 0.0966 0.0
C1898 C 0.39911 0.96183 0.08973 0.0
C1899 C 0.37462 0.99884 0.09746 0.0
C1900 C 0.35774 0.01188 0.11238 0.0
C1901 C 0.38325 0.97561 0.10506 0.0
C1902 C 0.34979 0.00164 0.1351 0.0
C1903 C 0.35864 0.97884 0.14302 0.0
H1904 H 0.89646 0.57504 0.84897 0.0
H1905 H 0.91261 0.58346 0.92778 0.0
H1906 H 0.89355 0.5434 0.93616 0.0
H1907 H 0.8677 0.50856 0.92167 0.0
H1908 H 0.85016 0.50145 0.84319 0.0
H1909 H 0.87355 0.53905 0.83417 0.0
C1910 C 0.89647 0.56786 0.86791 0.0
C1911 C 0.90587 0.58226 0.88773 0.0
C1912 C 0.88447 0.54547 0.87274 0.0
C1913 C 0.90552 0.57271 0.91217 0.0
C1914 C 0.89434 0.54996 0.91703 0.0
C1915 C 0.86939 0.51513 0.90259 0.0
C1916 C 0.85745 0.50238 0.88308 0.0
C1917 C 0.88297 0.53664 0.89757 0.0
C1918 C 0.85912 0.51121 0.85848 0.0
C1919 C 0.87267 0.53251 0.8533 0.0
H1920 H 0.74934 0.62737 0.10865 0.0
H1921 H 0.75156 0.6144 0.18812 0.0
H1922 H 0.7103 0.63253 0.19258 0.0
H1923 H 0.67212 0.64793 0.17304 0.0
H1924 H 0.67015 0.66074 0.09327 0.0
H1925 H 0.71304 0.6475 0.08987 0.0
C1926 C 0.74082 0.62882 0.12695 0.0
C1927 C 0.75322 0.61952 0.14803 0.0
C1928 C 0.71723 0.63929 0.1293 0.0
C1929 C 0.74228 0.62159 0.1717 0.0
C1930 C 0.71871 0.63186 0.17421 0.0
C1931 C 0.68119 0.64838 0.15497 0.0
C1932 C 0.66769 0.65504 0.13339 0.0
C1933 C 0.70579 0.64027 0.15304 0.0
C1934 C 0.67993 0.65561 0.11019 0.0
C1935 C 0.70445 0.64783 0.10817 0.0
H1936 H 0.60623 0.42871 0.41086 0.0
H1937 H 0.59867 0.43405 0.33054 0.0
H1938 H 0.61357 0.47658 0.3321 0.0
H1939 H 0.63348 0.51041 0.35571 0.0
H1940 H 0.64203 0.50455 0.43569 0.0
H1941 H 0.62226 0.46377 0.43486 0.0
C1942 C 0.60732 0.43926 0.39371 0.0
C1943 C 0.60163 0.42801 0.37059 0.0
C1944 C 0.61661 0.4634 0.39465 0.0
C1945 C 0.60299 0.44215 0.34861 0.0
C1946 C 0.61176 0.46641 0.34944 0.0
C1947 C 0.63088 0.50014 0.37291 0.0
C1948 C 0.63929 0.5101 0.3957 0.0
C1949 C 0.6195 0.47686 0.37223 0.0
C1950 C 0.63563 0.49704 0.41798 0.0
C1951 C 0.62435 0.47382 0.41749 0.0
H1952 H 0.32341 0.89123 0.15425 0.0
H1953 H 0.30677 0.81946 0.12365 0.0
H1954 H 0.2622 0.82752 0.1277 0.0
H1955 H 0.22816 0.85564 0.13912 0.0
H1956 H 0.24526 0.92923 0.16463 0.0
H1957 H 0.28964 0.91997 0.16346 0.0
C1958 C 0.30995 0.87728 0.14871 0.0
C1959 C 0.31815 0.8546 0.13912 0.0
C1960 C 0.28459 0.8825 0.15011 0.0
C1961 C 0.30074 0.83691 0.13129 0.0
C1962 C 0.27535 0.84157 0.13359 0.0
C1963 C 0.24168 0.86954 0.14456 0.0
C1964 C 0.23363 0.89298 0.15227 0.0
C1965 C 0.26708 0.86435 0.14288 0.0
C1966 C 0.25116 0.91108 0.15874 0.0
C1967 C 0.27645 0.90576 0.15808 0.0
H1968 H 0.12358 0.9958 0.59209 0.0
H1969 H 0.1607 0.99559 0.66383 0.0
H1970 H 0.14755 0.03775 0.67151 0.0
H1971 H 0.12622 0.07498 0.65782 0.0
H1972 H 0.09033 0.07638 0.5856 0.0
H1973 H 0.10182 0.03338 0.57841 0.0
C1974 C 0.12897 0.00504 0.6093 0.0
C1975 C 0.14324 0.99247 0.62729 0.0
C1976 C 0.12122 0.02941 0.61373 0.0
C1977 C 0.14984 0.00474 0.64959 0.0
C1978 C 0.1422 0.02886 0.6541 0.0
C1979 C 0.12044 0.06575 0.64071 0.0
C1980 C 0.10721 0.07883 0.62237 0.0
C1981 C 0.1278 0.04133 0.63638 0.0
C1982 C 0.10041 0.06671 0.60006 0.0
C1983 C 0.10713 0.04216 0.59588 0.0
H1984 H 0.68569 0.36361 0.39224 0.0
H1985 H 0.67791 0.33805 0.316 0.0
H1986 H 0.7198 0.35263 0.30666 0.0
H1987 H 0.75657 0.37707 0.31899 0.0
H1988 H 0.76271 0.40466 0.39452 0.0
H1989 H 0.7231 0.38547 0.40519 0.0
C1990 C 0.69335 0.3606 0.37374 0.0
C1991 C 0.67872 0.34977 0.35484 0.0
C1992 C 0.71686 0.37005 0.36822 0.0
C1993 C 0.68885 0.34631 0.33089 0.0
C1994 C 0.71268 0.35487 0.32547 0.0
C1995 C 0.7493 0.37851 0.33783 0.0
C1996 C 0.76237 0.39208 0.35601 0.0
C1997 C 0.72649 0.36752 0.34376 0.0
C1998 C 0.75273 0.39437 0.38024 0.0
C1999 C 0.73025 0.38327 0.38638 0.0
H2000 H 0.82912 0.65306 0.83603 0.0
H2001 H 0.82492 0.66445 0.91596 0.0
H2002 H 0.78275 0.64803 0.91599 0.0
H2003 H 0.74952 0.62505 0.89425 0.0
H2004 H 0.75442 0.61246 0.81476 0.0
H2005 H 0.7941 0.63459 0.81358 0.0
C2006 C 0.81884 0.65255 0.85341 0.0
C2007 C 0.83039 0.65966 0.87602 0.0
C2008 C 0.79494 0.64234 0.85342 0.0
C2009 C 0.8166 0.65903 0.89829 0.0
C2010 C 0.79255 0.64938 0.89837 0.0
C2011 C 0.75928 0.62739 0.87669 0.0
C2012 C 0.74939 0.61712 0.85463 0.0
C2013 C 0.782 0.64003 0.87624 0.0
C2014 C 0.76181 0.62037 0.83189 0.0
C2015 C 0.78444 0.63295 0.83126 0.0
H2016 H 0.91485 0.62647 0.06779 0.0
H2017 H 0.84723 0.5842 0.0602 0.0
H2018 H 0.84454 0.59556 0.01602 0.0
H2019 H 0.86026 0.61895 0.98043 0.0
H2020 H 0.92696 0.66265 0.9882 0.0
H2021 H 0.93091 0.64958 0.03185 0.0
C2022 C 0.89976 0.61936 0.05636 0.0
C2023 C 0.88135 0.60432 0.06717 0.0
C2024 C 0.89791 0.62662 0.03127 0.0
C2025 C 0.86167 0.59567 0.05225 0.0
C2026 C 0.86005 0.6023 0.02708 0.0
C2027 C 0.87567 0.62572 0.99163 0.0
C2028 C 0.89326 0.64185 0.9811 0.0
C2029 C 0.87782 0.6181 0.01655 0.0
C2030 C 0.91308 0.65038 0.99591 0.0
C2031 C 0.91542 0.64278 0.0208 0.0
H2032 H 0.14253 0.10369 0.81724 0.0
H2033 H 0.16407 0.18041 0.81632 0.0
H2034 H 0.14922 0.18394 0.77313 0.0
H2035 H 0.12778 0.16575 0.73668 0.0
H2036 H 0.1046 0.08947 0.73902 0.0
H2037 H 0.12191 0.08548 0.78098 0.0
C2038 C 0.14456 0.12107 0.80744 0.0
C2039 C 0.15464 0.1417 0.81989 0.0
C2040 C 0.13504 0.12322 0.78314 0.0
C2041 C 0.1566 0.16419 0.80704 0.0
C2042 C 0.14785 0.16629 0.78247 0.0
C2043 C 0.12631 0.14831 0.74646 0.0
C2044 C 0.11476 0.12798 0.73477 0.0
C2045 C 0.13649 0.14606 0.77057 0.0
C2046 C 0.11327 0.10545 0.74761 0.0
C2047 C 0.12333 0.10309 0.77154 0.0
H2048 H 0.59588 0.39375 0.57921 0.0
H2049 H 0.67528 0.40343 0.57778 0.0
H2050 H 0.67571 0.39261 0.53341 0.0
H2051 H 0.65423 0.37479 0.49681 0.0
H2052 H 0.57531 0.3629 0.49925 0.0
H2053 H 0.57392 0.38019 0.54157 0.0
C2054 C 0.61323 0.39415 0.56914 0.0
C2055 C 0.63554 0.39909 0.58197 0.0
C2056 C 0.61345 0.38705 0.54391 0.0
C2057 C 0.65783 0.39954 0.56846 0.0
C2058 C 0.65813 0.39314 0.54312 0.0
C2059 C 0.63674 0.37627 0.50661 0.0
C2060 C 0.61488 0.36776 0.4951 0.0
C2061 C 0.63619 0.38587 0.53099 0.0
C2062 C 0.59226 0.36977 0.5077 0.0
C2063 C 0.59151 0.37949 0.5319 0.0
H2064 H 0.36862 0.84757 0.23667 0.0
H2065 H 0.39562 0.92248 0.23925 0.0
H2066 H 0.37958 0.92725 0.2817 0.0
H2067 H 0.35858 0.90989 0.31841 0.0
H2068 H 0.33089 0.83513 0.31557 0.0
H2069 H 0.34582 0.83084 0.27276 0.0
C2070 C 0.37126 0.86481 0.24669 0.0
C2071 C 0.38366 0.88451 0.23503 0.0
C2072 C 0.36139 0.86765 0.27086 0.0
C2073 C 0.38637 0.90696 0.24796 0.0
C2074 C 0.37705 0.90976 0.27215 0.0
C2075 C 0.3553 0.89284 0.30827 0.0
C2076 C 0.34354 0.87291 0.32028 0.0
C2077 C 0.36442 0.89027 0.28377 0.0
C2078 C 0.33979 0.85084 0.30683 0.0
C2079 C 0.34854 0.84825 0.28239 0.0
H2080 H 0.9313 0.40093 0.42258 0.0
H2081 H 0.85199 0.41072 0.4243 0.0
H2082 H 0.85089 0.39568 0.46723 0.0
H2083 H 0.87151 0.37408 0.50182 0.0
H2084 H 0.95044 0.36349 0.50011 0.0
H2085 H 0.95269 0.38439 0.45947 0.0
C2086 C 0.91382 0.40038 0.4325 0.0
C2087 C 0.89169 0.40655 0.41999 0.0
C2088 C 0.9132 0.39104 0.45697 0.0
C2089 C 0.86929 0.40591 0.43332 0.0
C2090 C 0.86859 0.39708 0.45783 0.0
C2091 C 0.8892 0.37663 0.49257 0.0
C2092 C 0.91076 0.3671 0.50351 0.0
C2093 C 0.89026 0.3886 0.46938 0.0
C2094 C 0.93366 0.37069 0.4918 0.0
C2095 C 0.9349 0.38258 0.46864 0.0
H2096 H 0.39272 0.16716 0.25016 0.0
H2097 H 0.40298 0.08848 0.25152 0.0
H2098 H 0.38184 0.08454 0.21114 0.0
H2099 H 0.36316 0.10388 0.17437 0.0
H2100 H 0.35293 0.18271 0.17316 0.0
H2101 H 0.36985 0.18599 0.21544 0.0
C2102 C 0.38954 0.14909 0.24203 0.0
C2103 C 0.39891 0.1281 0.25393 0.0
C2104 C 0.37712 0.14696 0.21904 0.0
C2105 C 0.39588 0.1049 0.24259 0.0
C2106 C 0.38366 0.10262 0.21964 0.0
C2107 C 0.36395 0.1217 0.1836 0.0
C2108 C 0.35696 0.14303 0.17056 0.0
C2109 C 0.37444 0.12357 0.20758 0.0
C2110 C 0.35829 0.166 0.18276 0.0
C2111 C 0.36819 0.16794 0.20684 0.0
H2112 H 0.57822 0.59705 0.92748 0.0
H2113 H 0.65789 0.59569 0.935 0.0
H2114 H 0.65471 0.61289 0.9771 0.0
H2115 H 0.62968 0.63327 0.00944 0.0
H2116 H 0.55033 0.63543 0.00166 0.0
H2117 H 0.55296 0.61324 0.96166 0.0
C2118 C 0.59491 0.59998 0.93848 0.0
C2119 C 0.6183 0.59542 0.92787 0.0
C2120 C 0.59301 0.61059 0.96233 0.0
C2121 C 0.63966 0.59914 0.94257 0.0
C2122 C 0.63788 0.60922 0.96658 0.0
C2123 C 0.61303 0.62873 0.99892 0.0
C2124 C 0.58989 0.63617 0.00796 0.0
C2125 C 0.61475 0.61592 0.97619 0.0
C2126 C 0.5683 0.62996 0.9947 0.0
C2127 C 0.56983 0.61726 0.97198 0.0
H2128 H 0.12505 0.91542 0.67961 0.0
H2129 H 0.16959 0.84971 0.68141 0.0
H2130 H 0.15612 0.84153 0.72426 0.0
H2131 H 0.12977 0.85178 0.76019 0.0
H2132 H 0.08454 0.91703 0.75777 0.0
H2133 H 0.09983 0.92634 0.71587 0.0
C2134 C 0.13232 0.89962 0.68955 0.0
C2135 C 0.14844 0.88327 0.67735 0.0
C2136 C 0.12384 0.89458 0.71381 0.0
C2137 C 0.15727 0.86264 0.69041 0.0
C2138 C 0.14938 0.85783 0.71481 0.0
C2139 C 0.12306 0.86791 0.75041 0.0
C2140 C 0.10582 0.88354 0.76201 0.0
C2141 C 0.1322 0.87335 0.72646 0.0
C2142 C 0.09766 0.90459 0.74921 0.0
C2143 C 0.10652 0.91003 0.72532 0.0
H2144 H 0.0715 0.85571 0.62771 0.0
H2145 H 0.06095 0.92605 0.5918 0.0
H2146 H 0.01961 0.92895 0.61018 0.0
H2147 H 0.98731 0.91222 0.63789 0.0
H2148 H 0.99906 0.84251 0.67475 0.0
H2149 H 0.0395 0.83902 0.65497 0.0
C2150 C 0.06003 0.8715 0.62345 0.0
C2151 C 0.06924 0.89054 0.60817 0.0
C2152 C 0.03677 0.87345 0.63476 0.0
C2153 C 0.05423 0.91105 0.60331 0.0
C2154 C 0.0307 0.91282 0.61401 0.0
C2155 C 0.99882 0.89638 0.64181 0.0
C2156 C 0.99019 0.8777 0.65791 0.0
C2157 C 0.02199 0.89434 0.63015 0.0
C2158 C 0.00526 0.8572 0.66255 0.0
C2159 C 0.02832 0.85509 0.65111 0.0
H2160 H 0.84729 0.32435 0.35416 0.0
H2161 H 0.92437 0.32015 0.33362 0.0
H2162 H 0.92591 0.27776 0.34839 0.0
H2163 H 0.90677 0.24359 0.3716 0.0
H2164 H 0.83005 0.24777 0.39285 0.0
H2165 H 0.82688 0.28848 0.37335 0.0
C2166 C 0.86426 0.31405 0.35231 0.0
C2167 C 0.88574 0.32567 0.34302 0.0
C2168 C 0.86519 0.28977 0.36139 0.0
C2169 C 0.90758 0.31185 0.34086 0.0
C2170 C 0.90855 0.2876 0.34946 0.0
C2171 C 0.88933 0.25341 0.37175 0.0
C2172 C 0.86868 0.24288 0.38364 0.0
C2173 C 0.88772 0.27672 0.36057 0.0
C2174 C 0.8461 0.2555 0.38357 0.0
C2175 C 0.84434 0.27878 0.37253 0.0
H2176 H 0.51928 0.14398 0.09977 0.0
H2177 H 0.50655 0.08052 0.14673 0.0
H2178 H 0.46319 0.07928 0.13349 0.0
H2179 H 0.42865 0.09796 0.11111 0.0
H2180 H 0.44048 0.16296 0.0664 0.0
H2181 H 0.48485 0.1616 0.07587 0.0
C2182 C 0.50707 0.12979 0.10707 0.0
C2183 C 0.51608 0.11246 0.12437 0.0
C2184 C 0.48217 0.12936 0.0996 0.0
C2185 C 0.50002 0.0942 0.13357 0.0
C2186 C 0.47528 0.09341 0.12593 0.0
C2187 C 0.44097 0.11139 0.10279 0.0
C2188 C 0.43134 0.13032 0.08777 0.0
C2189 C 0.46613 0.11106 0.10918 0.0
C2190 C 0.44752 0.14809 0.07782 0.0
C2191 C 0.47281 0.14742 0.08341 0.0
H2192 H 0.65862 0.75311 0.86571 0.0
H2193 H 0.59426 0.74991 0.91311 0.0
H2194 H 0.58359 0.70923 0.89638 0.0
H2195 H 0.59429 0.67339 0.8708 0.0
H2196 H 0.66053 0.67476 0.82607 0.0
H2197 H 0.66838 0.71761 0.8385 0.0
C2198 C 0.64208 0.7436 0.87204 0.0
C2199 C 0.62713 0.75448 0.89047 0.0
C2200 C 0.63632 0.72 0.86264 0.0
C2201 C 0.60606 0.74182 0.89898 0.0
C2202 C 0.59989 0.71864 0.88933 0.0
C2203 C 0.61004 0.68331 0.86318 0.0
C2204 C 0.62668 0.67107 0.84733 0.0
C2205 C 0.61505 0.70743 0.8714 0.0
C2206 C 0.64741 0.6839 0.83818 0.0
C2207 C 0.65198 0.7083 0.84545 0.0
H2208 H 0.98946 0.14513 0.88159 0.0
H2209 H 0.00596 0.08956 0.82651 0.0
H2210 H 0.04843 0.08671 0.84241 0.0
H2211 H 0.08141 0.10244 0.86939 0.0
H2212 H 0.06697 0.16142 0.92141 0.0
H2213 H 0.02298 0.16057 0.90954 0.0
C2214 C 0.0024 0.13226 0.87338 0.0
C2215 C 0.99484 0.11743 0.8531 0.0
C2216 C 0.027 0.13141 0.88207 0.0
C2217 C 0.01159 0.10105 0.84217 0.0
C2218 C 0.03577 0.09944 0.85126 0.0
C2219 C 0.06854 0.11463 0.8787 0.0
C2220 C 0.07729 0.13161 0.89665 0.0
C2221 C 0.04375 0.11479 0.87092 0.0
C2222 C 0.06056 0.14799 0.90777 0.0
C2223 C 0.0355 0.14758 0.90088 0.0
H2224 H 0.66793 0.23319 0.62308 0.0
H2225 H 0.60004 0.24044 0.58089 0.0
H2226 H 0.59262 0.28044 0.60036 0.0
H2227 H 0.60564 0.31362 0.62881 0.0
H2228 H 0.67416 0.30717 0.66997 0.0
H2229 H 0.6807 0.26621 0.65203 0.0
C2230 C 0.65165 0.24363 0.6179 0.0
C2231 C 0.63468 0.23388 0.60037 0.0
C2232 C 0.64731 0.2665 0.62943 0.0
C2233 C 0.61351 0.24755 0.59419 0.0
C2234 C 0.60913 0.27036 0.60546 0.0
C2235 C 0.6217 0.303 0.63435 0.0
C2236 C 0.63922 0.31327 0.65098 0.0
C2237 C 0.62581 0.27992 0.62323 0.0
C2238 C 0.66026 0.29954 0.65744 0.0
C2239 C 0.66414 0.27625 0.64697 0.0
H2240 H 0.49887 0.8488 0.37039 0.0
H2241 H 0.50239 0.92792 0.37656 0.0
H2242 H 0.46166 0.92827 0.39656 0.0
H2243 H 0.42345 0.9064 0.40762 0.0
H2244 H 0.41897 0.82741 0.39902 0.0
H2245 H 0.46205 0.82653 0.38558 0.0
C2246 C 0.49077 0.86606 0.37643 0.0
C2247 C 0.50351 0.8883 0.37217 0.0
C2248 C 0.46727 0.86609 0.38754 0.0
C2249 C 0.49303 0.91057 0.38006 0.0
C2250 C 0.46971 0.91076 0.39133 0.0
C2251 C 0.4319 0.88895 0.40317 0.0
C2252 C 0.41767 0.86713 0.4038 0.0
C2253 C 0.45642 0.88867 0.39457 0.0
C2254 C 0.4293 0.84458 0.39854 0.0
C2255 C 0.45392 0.84406 0.3906 0.0
H2256 H 0.88979 0.76541 0.15081 0.0
H2257 H 0.82038 0.75749 0.1111 0.0
H2258 H 0.82099 0.71306 0.11823 0.0
H2259 H 0.84192 0.67658 0.13415 0.0
H2260 H 0.91247 0.68384 0.17178 0.0
H2261 H 0.91053 0.7287 0.16738 0.0
C2262 C 0.87476 0.75398 0.14374 0.0
C2263 C 0.85509 0.76474 0.13038 0.0
C2264 C 0.87535 0.72845 0.1477 0.0
C2265 C 0.8358 0.74966 0.1213 0.0
C2266 C 0.83609 0.72429 0.12546 0.0
C2267 C 0.85668 0.68795 0.14187 0.0
C2268 C 0.87721 0.6769 0.15354 0.0
C2269 C 0.85582 0.71351 0.13853 0.0
C2270 C 0.89642 0.69192 0.16287 0.0
C2271 C 0.89537 0.71752 0.16022 0.0
H2272 H 0.60491 0.06682 0.85158 0.0
H2273 H 0.59572 0.07129 0.93171 0.0
H2274 H 0.60863 0.02854 0.93597 0.0
H2275 H 0.62407 0.98999 0.91712 0.0
H2276 H 0.63222 0.98539 0.83699 0.0
H2277 H 0.61868 0.028 0.83266 0.0
C2278 C 0.60527 0.05835 0.86994 0.0
C2279 C 0.59926 0.07238 0.89124 0.0
C2280 C 0.6131 0.03377 0.87236 0.0
C2281 C 0.60015 0.06102 0.91491 0.0
C2282 C 0.60774 0.03656 0.91743 0.0
C2283 C 0.62316 0.99847 0.89878 0.0
C2284 C 0.62946 0.98467 0.87745 0.0
C2285 C 0.6147 0.02287 0.89634 0.0
C2286 C 0.62764 0.99569 0.85373 0.0
C2287 C 0.61976 0.02003 0.85121 0.0
H2288 H 0.09295 0.41798 0.05894 0.0
H2289 H 0.05977 0.43503 0.13033 0.0
H2290 H 0.07176 0.47824 0.12554 0.0
H2291 H 0.09946 0.50854 0.10562 0.0
H2292 H 0.13739 0.48946 0.03759 0.0
H2293 H 0.11593 0.44951 0.03642 0.0
C2294 C 0.08771 0.4312 0.07321 0.0
C2295 C 0.07604 0.42317 0.09529 0.0
C2296 C 0.09609 0.45553 0.07112 0.0
C2297 C 0.06907 0.44067 0.11333 0.0
C2298 C 0.07613 0.46533 0.11071 0.0
C2299 C 0.1024 0.49576 0.09027 0.0
C2300 C 0.11982 0.50148 0.07175 0.0
C2301 C 0.0909 0.47257 0.09043 0.0
C2302 C 0.12395 0.4851 0.05196 0.0
C2303 C 0.11176 0.46237 0.05137 0.0
H2304 H 0.31826 0.37301 0.90781 0.0
H2305 H 0.3197 0.33748 0.8356 0.0
H2306 H 0.27771 0.35202 0.82678 0.0
H2307 H 0.24096 0.37632 0.83912 0.0
H2308 H 0.24121 0.41346 0.91073 0.0
H2309 H 0.28208 0.3972 0.91996 0.0
C2310 C 0.30919 0.36797 0.89036 0.0
C2311 C 0.32199 0.35383 0.87255 0.0
C2312 C 0.28543 0.37718 0.88505 0.0
C2313 C 0.31018 0.34813 0.84972 0.0
C2314 C 0.28623 0.35662 0.8446 0.0
C2315 C 0.25004 0.38103 0.85664 0.0
C2316 C 0.23787 0.39622 0.87413 0.0
C2317 C 0.27379 0.37153 0.86196 0.0
C2318 C 0.24999 0.40192 0.89682 0.0
C2319 C 0.2734 0.3925 0.90223 0.0
H2320 H 0.37654 0.58342 0.58631 0.0
H2321 H 0.42513 0.56622 0.64797 0.0
H2322 H 0.41415 0.52241 0.64391 0.0
H2323 H 0.38755 0.48989 0.62514 0.0
H2324 H 0.33578 0.50895 0.56687 0.0
H2325 H 0.35133 0.55142 0.56698 0.0
C2326 C 0.38533 0.57004 0.5984 0.0
C2327 C 0.40194 0.5779 0.61713 0.0
C2328 C 0.37807 0.54536 0.59668 0.0
C2329 C 0.41245 0.56048 0.63329 0.0
C2330 C 0.40608 0.53553 0.63103 0.0
C2331 C 0.38005 0.50338 0.61228 0.0
C2332 C 0.36079 0.49662 0.59586 0.0
C2333 C 0.38845 0.52788 0.61317 0.0
C2334 C 0.35068 0.51403 0.57955 0.0
C2335 C 0.35955 0.53818 0.57964 0.0
H2336 H 0.76288 0.15221 0.89828 0.0
H2337 H 0.75531 0.10505 0.83342 0.0
H2338 H 0.71073 0.11262 0.83256 0.0
H2339 H 0.67399 0.13149 0.85098 0.0
H2340 H 0.68096 0.17714 0.91681 0.0
H2341 H 0.72595 0.17147 0.91645 0.0
C2342 C 0.75152 0.14354 0.88394 0.0
C2343 C 0.76247 0.12801 0.86595 0.0
C2344 C 0.72589 0.14789 0.88363 0.0
C2345 C 0.74739 0.11695 0.84755 0.0
C2346 C 0.72191 0.12137 0.84699 0.0
C2347 C 0.68534 0.14075 0.86486 0.0
C2348 C 0.67415 0.15517 0.88358 0.0
C2349 C 0.711 0.13678 0.86493 0.0
C2350 C 0.68915 0.1662 0.90205 0.0
C2351 C 0.71483 0.16284 0.90191 0.0
H2352 H 0.89279 0.93066 0.34563 0.0
H2353 H 0.89484 0.92231 0.42593 0.0
H2354 H 0.88371 0.96543 0.4313 0.0
H2355 H 0.87252 0.00579 0.41323 0.0
H2356 H 0.87138 0.01411 0.33299 0.0
H2357 H 0.88246 0.9709 0.32765 0.0
C2358 C 0.89118 0.93832 0.36432 0.0
C2359 C 0.89486 0.92311 0.3853 0.0
C2360 C 0.88439 0.96317 0.36734 0.0
C2361 C 0.89234 0.93347 0.40937 0.0
C2362 C 0.88574 0.95817 0.41251 0.0
C2363 C 0.87436 0.998 0.39461 0.0
C2364 C 0.87086 0.01308 0.37355 0.0
C2365 C 0.8814 0.97316 0.39164 0.0
C2366 C 0.87384 0.00286 0.34952 0.0
C2367 C 0.88032 0.97817 0.34643 0.0
H2368 H 0.32147 0.64234 0.59701 0.0
H2369 H 0.32486 0.66777 0.67355 0.0
H2370 H 0.28259 0.65296 0.68051 0.0
H2371 H 0.24667 0.62855 0.66613 0.0
H2372 H 0.24449 0.60113 0.59034 0.0
H2373 H 0.28473 0.62026 0.58194 0.0
C2374 C 0.31269 0.64534 0.61499 0.0
C2375 C 0.32616 0.65628 0.63469 0.0
C2376 C 0.28894 0.63572 0.61918 0.0
C2377 C 0.31475 0.65954 0.65806 0.0
C2378 C 0.29072 0.65083 0.66212 0.0
C2379 C 0.25491 0.62715 0.64769 0.0
C2380 C 0.2427 0.61373 0.62878 0.0
C2381 C 0.27799 0.63817 0.64306 0.0
C2382 C 0.2537 0.61137 0.60516 0.0
C2383 C 0.27656 0.62245 0.60031 0.0
H2384 H 0.25318 0.37007 0.11872 0.0
H2385 H 0.23251 0.41958 0.17818 0.0
H2386 H 0.18944 0.40552 0.17499 0.0
H2387 H 0.15768 0.38149 0.15344 0.0
H2388 H 0.17729 0.33445 0.09138 0.0
H2389 H 0.22107 0.34496 0.09759 0.0
C2390 C 0.23922 0.37738 0.13121 0.0
C2391 C 0.24575 0.3955 0.14889 0.0
C2392 C 0.21449 0.36976 0.1287 0.0
C2393 C 0.22767 0.40548 0.16458 0.0
C2394 C 0.20316 0.39747 0.16274 0.0
C2395 C 0.17151 0.3732 0.14146 0.0
C2396 C 0.16428 0.35716 0.12201 0.0
C2397 C 0.19635 0.37992 0.14461 0.0
C2398 C 0.18243 0.34687 0.10647 0.0
C2399 C 0.20741 0.3529 0.10998 0.0
H2400 H 0.59942 0.87268 0.4255 0.0
H2401 H 0.66532 0.91787 0.43005 0.0
H2402 H 0.66859 0.90935 0.47494 0.0
H2403 H 0.65371 0.88758 0.51224 0.0
H2404 H 0.58912 0.84051 0.5069 0.0
H2405 H 0.58458 0.85098 0.46269 0.0
C2406 C 0.61422 0.8811 0.4364 0.0
C2407 C 0.63192 0.89619 0.42458 0.0
C2408 C 0.61648 0.87538 0.46188 0.0
C2409 C 0.65136 0.90639 0.43881 0.0
C2410 C 0.65332 0.90138 0.4644 0.0
C2411 C 0.63867 0.87954 0.50141 0.0
C2412 C 0.62181 0.86323 0.51286 0.0
C2413 C 0.63621 0.88557 0.47601 0.0
C2414 C 0.60245 0.85297 0.49853 0.0
C2415 C 0.59974 0.85908 0.47329 0.0
H2416 H 0.34919 0.32755 0.67459 0.0
H2417 H 0.33369 0.40548 0.67824 0.0
H2418 H 0.34913 0.40692 0.7212 0.0
H2419 H 0.37321 0.38754 0.75478 0.0
H2420 H 0.39068 0.31032 0.75032 0.0
H2421 H 0.36853 0.30707 0.71027 0.0
C2422 C 0.34851 0.34475 0.68495 0.0
C2423 C 0.34077 0.3665 0.67303 0.0
C2424 C 0.35843 0.34567 0.70918 0.0
C2425 C 0.33982 0.38853 0.68688 0.0
C2426 C 0.34889 0.38943 0.71135 0.0
C2427 C 0.37197 0.37001 0.74501 0.0
C2428 C 0.38372 0.34925 0.75498 0.0
C2429 C 0.35937 0.3684 0.72214 0.0
C2430 C 0.38176 0.32648 0.74271 0.0
C2431 C 0.36912 0.32466 0.71992 0.0
H2432 H 0.86704 0.1242 0.0108 0.0
H2433 H 0.9154 0.18482 0.99219 0.0
H2434 H 0.91585 0.17151 0.9483 0.0
H2435 H 0.90067 0.14415 0.91528 0.0
H2436 H 0.84838 0.0863 0.93258 0.0
H2437 H 0.85146 0.09668 0.97726 0.0
C2438 C 0.87779 0.13428 0.99705 0.0
C2439 C 0.89135 0.15527 0.00441 0.0
C2440 C 0.87728 0.12694 0.97186 0.0
C2441 C 0.9049 0.16861 0.98668 0.0
C2442 C 0.90519 0.16096 0.96173 0.0
C2443 C 0.89032 0.13346 0.92888 0.0
C2444 C 0.87462 0.11422 0.92082 0.0
C2445 C 0.89128 0.14031 0.95412 0.0
C2446 C 0.86075 0.10102 0.93849 0.0
C2447 C 0.86242 0.10704 0.96393 0.0
H2448 H 0.14912 0.65961 0.16909 0.0
H2449 H 0.15377 0.58017 0.16951 0.0
H2450 H 0.13866 0.57939 0.2125 0.0
H2451 H 0.11902 0.60088 0.24785 0.0
H2452 H 0.11306 0.67999 0.24678 0.0
H2453 H 0.13358 0.68132 0.20597 0.0
C2454 C 0.14736 0.6421 0.1787 0.0
C2455 C 0.15227 0.61994 0.16588 0.0
C2456 C 0.13794 0.64173 0.20312 0.0
C2457 C 0.15005 0.59751 0.17881 0.0
C2458 C 0.14116 0.59702 0.20334 0.0
C2459 C 0.12246 0.61838 0.23869 0.0
C2460 C 0.1146 0.64032 0.25007 0.0
C2461 C 0.13415 0.61893 0.21528 0.0
C2462 C 0.1192 0.66294 0.23832 0.0
C2463 C 0.13085 0.66367 0.21502 0.0
H2464 H 0.64745 0.10915 0.99461 0.0
H2465 H 0.57721 0.14672 0.99568 0.0
H2466 H 0.57159 0.13544 0.03949 0.0
H2467 H 0.58685 0.11582 0.07748 0.0
H2468 H 0.65827 0.08061 0.07779 0.0
H2469 H 0.66297 0.08961 0.03311 0.0
C2470 C 0.63093 0.11492 0.00444 0.0
C2471 C 0.61278 0.1288 0.99189 0.0
C2472 C 0.62789 0.10852 0.0297 0.0
C2473 C 0.59153 0.13619 0.00492 0.0
C2474 C 0.58823 0.12961 0.02993 0.0
C2475 C 0.60329 0.10969 0.06773 0.0
C2476 C 0.62207 0.09726 0.08086 0.0
C2477 C 0.60626 0.11578 0.04246 0.0
C2478 C 0.64348 0.09 0.06803 0.0
C2479 C 0.64623 0.0953 0.04256 0.0
H2480 H 0.11048 0.40271 0.24029 0.0
H2481 H 0.10444 0.32348 0.24094 0.0
H2482 H 0.12743 0.32198 0.28039 0.0
H2483 H 0.14542 0.34329 0.31627 0.0
H2484 H 0.149 0.42281 0.31757 0.0
H2485 H 0.13155 0.4241 0.27532 0.0
C2486 C 0.11436 0.38516 0.24911 0.0
C2487 C 0.10605 0.36321 0.23779 0.0
C2488 C 0.12728 0.38451 0.27194 0.0
C2489 C 0.11114 0.34054 0.24915 0.0
C2490 C 0.12416 0.3397 0.27172 0.0
C2491 C 0.14294 0.36095 0.30721 0.0
C2492 C 0.14829 0.38292 0.32028 0.0
C2493 C 0.13196 0.36159 0.28345 0.0
C2494 C 0.14501 0.40559 0.30803 0.0
C2495 C 0.13476 0.40635 0.28397 0.0
H2496 H 0.92527 0.8986 0.58681 0.0
H2497 H 0.84735 0.91616 0.58562 0.0
H2498 H 0.84447 0.90242 0.54222 0.0
H2499 H 0.8623 0.87866 0.5076 0.0
H2500 H 0.93955 0.85948 0.50923 0.0
H2501 H 0.94453 0.88049 0.54967 0.0
C2502 C 0.90778 0.90012 0.57689 0.0
C2503 C 0.88641 0.90784 0.58968 0.0
C2504 C 0.90603 0.89128 0.55226 0.0
C2505 C 0.86402 0.90996 0.57637 0.0
C2506 C 0.86228 0.90188 0.55161 0.0
C2507 C 0.88025 0.8794 0.51677 0.0
C2508 C 0.90048 0.86737 0.50593 0.0
C2509 C 0.88284 0.89132 0.53991 0.0
C2510 C 0.92379 0.86865 0.51747 0.0
C2511 C 0.92658 0.8806 0.54053 0.0
H2512 H 0.36053 0.59948 0.73073 0.0
H2513 H 0.4083 0.6632 0.73845 0.0
H2514 H 0.39905 0.66523 0.78312 0.0
H2515 H 0.37811 0.64851 0.81992 0.0
H2516 H 0.33196 0.58369 0.81287 0.0
H2517 H 0.33962 0.58266 0.76771 0.0
C2518 C 0.36898 0.61379 0.74217 0.0
C2519 C 0.3851 0.63116 0.73128 0.0
C2520 C 0.36365 0.61481 0.76782 0.0
C2521 C 0.39594 0.64953 0.74639 0.0
C2522 C 0.39055 0.6508 0.7719 0.0
C2523 C 0.36926 0.63449 0.80842 0.0
C2524 C 0.35411 0.61647 0.81957 0.0
C2525 C 0.37439 0.63358 0.78276 0.0
C2526 C 0.34348 0.59789 0.8046 0.0
C2527 C 0.34797 0.59723 0.77886 0.0
H2528 H 0.51861 0.64076 0.89352 0.0
H2529 H 0.51499 0.57444 0.84876 0.0
H2530 H 0.47119 0.56958 0.85894 0.0
H2531 H 0.43388 0.58476 0.87936 0.0
H2532 H 0.43658 0.65241 0.92199 0.0
H2533 H 0.48113 0.65587 0.91426 0.0
C2534 C 0.50825 0.62524 0.88595 0.0
C2535 C 0.52003 0.60803 0.87032 0.0
C2536 C 0.48306 0.62266 0.89174 0.0
C2537 C 0.50633 0.58805 0.86067 0.0
C2538 C 0.48133 0.58518 0.8666 0.0
C2539 C 0.44426 0.60005 0.88738 0.0
C2540 C 0.432 0.6182 0.90146 0.0
C2541 C 0.46953 0.60239 0.88207 0.0
C2542 C 0.44564 0.63815 0.91124 0.0
C2543 C 0.47105 0.6402 0.90668 0.0
H2544 H 0.59674 0.25612 0.12288 0.0
H2545 H 0.67649 0.25721 0.12409 0.0
H2546 H 0.67681 0.21749 0.14587 0.0
H2547 H 0.65432 0.18067 0.15998 0.0
H2548 H 0.57441 0.17923 0.15742 0.0
H2549 H 0.5742 0.22126 0.14157 0.0
C2550 C 0.61415 0.24772 0.12822 0.0
C2551 C 0.63657 0.25936 0.12193 0.0
C2552 C 0.61413 0.22493 0.14054 0.0
C2553 C 0.65904 0.24857 0.129 0.0
C2554 C 0.6592 0.22587 0.14132 0.0
C2555 C 0.63683 0.18962 0.15644 0.0
C2556 C 0.61447 0.17646 0.15946 0.0
C2557 C 0.63684 0.2136 0.14662 0.0
C2558 C 0.59197 0.1887 0.15511 0.0
C2559 C 0.5918 0.21272 0.14581 0.0
H2560 H 0.9927 0.41052 0.37003 0.0
H2561 H 0.99847 0.34169 0.3297 0.0
H2562 H 0.03832 0.33384 0.34964 0.0
H2563 H 0.07191 0.34705 0.37714 0.0
H2564 H 0.06774 0.41693 0.41563 0.0
H2565 H 0.02618 0.42336 0.39852 0.0
C2566 C 0.00274 0.39388 0.36543 0.0
C2567 C 0.99269 0.3768 0.34824 0.0
C2568 C 0.02557 0.38939 0.37708 0.0
C2569 C 0.00586 0.35524 0.3427 0.0
C2570 C 0.02854 0.35062 0.35426 0.0
C2571 C 0.0617 0.36342 0.38237 0.0
C2572 C 0.0728 0.38141 0.39783 0.0
C2573 C 0.03851 0.36754 0.37148 0.0
C2574 C 0.05948 0.40272 0.40396 0.0
C2575 C 0.03589 0.40653 0.39392 0.0
H2576 H 0.85128 0.82231 0.63525 0.0
H2577 H 0.91631 0.81297 0.68128 0.0
H2578 H 0.91747 0.76919 0.67013 0.0
H2579 H 0.90063 0.73391 0.64652 0.0
H2580 H 0.83703 0.74374 0.59851 0.0
H2581 H 0.83486 0.78711 0.611 0.0
C2582 C 0.86545 0.8106 0.6432 0.0
C2583 C 0.88345 0.82081 0.65946 0.0
C2584 C 0.86647 0.78565 0.63603 0.0
C2585 C 0.90213 0.80553 0.66896 0.0
C2586 C 0.90285 0.78053 0.66248 0.0
C2587 C 0.88629 0.74552 0.6387 0.0
C2588 C 0.86899 0.73551 0.62157 0.0
C2589 C 0.88527 0.77046 0.64585 0.0
C2590 C 0.85066 0.75093 0.61159 0.0
C2591 C 0.84933 0.77572 0.61885 0.0
H2592 H 0.50619 0.34841 0.63211 0.0
H2593 H 0.50529 0.42711 0.64271 0.0
H2594 H 0.46466 0.42928 0.62224 0.0
H2595 H 0.42813 0.4082 0.60492 0.0
H2596 H 0.42868 0.32917 0.59535 0.0
H2597 H 0.47103 0.32778 0.6112 0.0
C2598 C 0.49709 0.36602 0.62974 0.0
C2599 C 0.50852 0.38758 0.63882 0.0
C2600 C 0.47381 0.36705 0.61805 0.0
C2601 C 0.49683 0.41034 0.63558 0.0
C2602 C 0.47362 0.41155 0.62399 0.0
C2603 C 0.4376 0.39071 0.60579 0.0
C2604 C 0.425 0.36882 0.59917 0.0
C2605 C 0.46176 0.38995 0.61553 0.0
C2606 C 0.43778 0.34633 0.60039 0.0
C2607 C 0.46197 0.34547 0.60965 0.0
H2608 H 0.82976 0.26903 0.87515 0.0
H2609 H 0.90902 0.27896 0.87338 0.0
H2610 H 0.91407 0.23721 0.85724 0.0
H2611 H 0.89619 0.19772 0.84429 0.0
H2612 H 0.81687 0.1874 0.84546 0.0
H2613 H 0.81162 0.22961 0.86037 0.0
C2614 C 0.8481 0.26186 0.87153 0.0
C2615 C 0.86901 0.27686 0.87578 0.0
C2616 C 0.85086 0.23797 0.8616 0.0
C2617 C 0.89266 0.26763 0.87044 0.0
C2618 C 0.89557 0.24384 0.86105 0.0
C2619 C 0.8777 0.2048 0.84729 0.0
C2620 C 0.85699 0.18933 0.84368 0.0
C2621 C 0.87481 0.22888 0.85643 0.0
C2622 C 0.83319 0.19888 0.84796 0.0
C2623 C 0.83015 0.22297 0.85675 0.0
H2624 H 0.07083 0.59306 0.10954 0.0
H2625 H 0.06761 0.66134 0.06849 0.0
H2626 H 0.02339 0.66461 0.0776 0.0
H2627 H 0.98623 0.64912 0.09885 0.0
H2628 H 0.98995 0.58199 0.14182 0.0
H2629 H 0.03354 0.5774 0.13058 0.0
C2630 C 0.06037 0.60844 0.10219 0.0
C2631 C 0.07247 0.62682 0.08811 0.0
C2632 C 0.03517 0.61063 0.10823 0.0
C2633 C 0.05873 0.64689 0.07922 0.0
C2634 C 0.03348 0.64884 0.08456 0.0
C2635 C 0.99654 0.63347 0.1058 0.0
C2636 C 0.9848 0.61596 0.12125 0.0
C2637 C 0.02162 0.63102 0.09938 0.0
C2638 C 0.99852 0.59583 0.13006 0.0
C2639 C 0.02343 0.59313 0.12353 0.0
H2640 H 0.65308 0.73737 0.38035 0.0
H2641 H 0.57329 0.73511 0.3829 0.0
H2642 H 0.57141 0.77621 0.3644 0.0
H2643 H 0.59246 0.81316 0.34912 0.0
H2644 H 0.67237 0.81538 0.34615 0.0
H2645 H 0.67413 0.77344 0.36231 0.0
C2646 C 0.63532 0.74605 0.37711 0.0
C2647 C 0.61336 0.73357 0.38341 0.0
C2648 C 0.63438 0.76936 0.3659 0.0
C2649 C 0.59043 0.7446 0.37847 0.0
C2650 C 0.58934 0.76797 0.36774 0.0
C2651 C 0.61028 0.80436 0.35149 0.0
C2652 C 0.63224 0.81753 0.34659 0.0
C2653 C 0.61121 0.78051 0.36142 0.0
C2654 C 0.65515 0.80572 0.34979 0.0
C2655 C 0.6562 0.78182 0.3593 0.0
H2656 H 0.89861 0.4249 0.58565 0.0
H2657 H 0.90445 0.43268 0.66596 0.0
H2658 H 0.88841 0.47444 0.66322 0.0
H2659 H 0.86841 0.50704 0.63862 0.0
H2660 H 0.8629 0.49986 0.55848 0.0
H2661 H 0.88314 0.45952 0.56049 0.0
C2662 C 0.89697 0.43587 0.60253 0.0
C2663 C 0.90257 0.42541 0.62601 0.0
C2664 C 0.88736 0.45985 0.60088 0.0
C2665 C 0.90025 0.44008 0.64763 0.0
C2666 C 0.89088 0.46396 0.64612 0.0
C2667 C 0.87186 0.49665 0.62161 0.0
C2668 C 0.86401 0.50609 0.59846 0.0
C2669 C 0.88362 0.4737 0.62296 0.0
C2670 C 0.86881 0.49281 0.57648 0.0
C2671 C 0.88032 0.46979 0.57766 0.0
H2672 H 0.3939 0.98922 0.38506 0.0
H2673 H 0.33733 0.01246 0.43649 0.0
H2674 H 0.35719 0.053 0.44034 0.0
H2675 H 0.38738 0.08278 0.42525 0.0
H2676 H 0.44078 0.06152 0.36941 0.0
H2677 H 0.42609 0.01879 0.37178 0.0
C2678 C 0.3863 0.00309 0.39746 0.0
C2679 C 0.36438 0.99809 0.41064 0.0
C2680 C 0.39732 0.02652 0.39882 0.0
C2681 C 0.35422 0.01614 0.42623 0.0
C2682 C 0.36558 0.03919 0.42845 0.0
C2683 C 0.39634 0.06873 0.41406 0.0
C2684 C 0.41515 0.0753 0.39714 0.0
C2685 C 0.38676 0.04474 0.41434 0.0
C2686 C 0.42629 0.05688 0.38259 0.0
C2687 C 0.41773 0.03254 0.38377 0.0
H2688 H 0.26545 0.12655 0.61598 0.0
H2689 H 0.26193 0.11575 0.69571 0.0
H2690 H 0.22125 0.13567 0.6969 0.0
H2691 H 0.18522 0.15209 0.67441 0.0
H2692 H 0.18894 0.16257 0.59435 0.0
H2693 H 0.23141 0.14764 0.59425 0.0
C2694 C 0.25576 0.12879 0.63359 0.0
C2695 C 0.26621 0.1195 0.65569 0.0
C2696 C 0.2326 0.14034 0.63406 0.0
C2697 C 0.25393 0.12269 0.67851 0.0
C2698 C 0.23078 0.13408 0.67915 0.0
C2699 C 0.19546 0.1517 0.65699 0.0
C2700 C 0.18367 0.15812 0.63436 0.0
C2701 C 0.21971 0.14249 0.65694 0.0
C2702 C 0.1974 0.1576 0.61203 0.0
C2703 C 0.22165 0.14884 0.6119 0.0
H2704 H 0.12377 0.93269 0.84054 0.0
H2705 H 0.09159 0.92608 0.91401 0.0
H2706 H 0.10415 0.9684 0.9239 0.0
H2707 H 0.12817 0.00562 0.91307 0.0
H2708 H 0.16218 0.01096 0.84041 0.0
H2709 H 0.14546 0.97053 0.82886 0.0
C2710 C 0.11894 0.94072 0.85848 0.0
C2711 C 0.10681 0.92635 0.87655 0.0
C2712 C 0.12707 0.9646 0.86434 0.0
C2713 C 0.10102 0.93683 0.89987 0.0
C2714 C 0.10832 0.96093 0.90557 0.0
C2715 C 0.13151 0.99801 0.8946 0.0
C2716 C 0.14615 0.01112 0.87751 0.0
C2717 C 0.12201 0.97471 0.88821 0.0
C2718 C 0.15098 1.00101 0.85384 0.0
C2719 C 0.14132 0.97802 0.8472 0.0
H2720 H 0.82679 0.36154 0.6657 0.0
H2721 H 0.82379 0.32428 0.59423 0.0
H2722 H 0.77901 0.33088 0.59222 0.0
H2723 H 0.74136 0.34927 0.60971 0.0
H2724 H 0.74524 0.38865 0.68 0.0
H2725 H 0.78934 0.37945 0.68332 0.0
C2726 C 0.81635 0.35446 0.64984 0.0
C2727 C 0.82862 0.34225 0.6302 0.0
C2728 C 0.7909 0.35911 0.64839 0.0
C2729 C 0.81478 0.3336 0.60963 0.0
C2730 C 0.78923 0.33752 0.60841 0.0
C2731 C 0.75183 0.35586 0.62577 0.0
C2732 C 0.74002 0.36971 0.64455 0.0
C2733 C 0.7772 0.35065 0.62747 0.0
C2734 C 0.75389 0.37811 0.66521 0.0
C2735 C 0.77907 0.37274 0.66718 0.0
H2736 H 0.61118 0.57647 0.0951 0.0
H2737 H 0.5694 0.5666 0.16307 0.0
H2738 H 0.57694 0.52225 0.16146 0.0
H2739 H 0.59683 0.4867 0.14193 0.0
H2740 H 0.64061 0.4964 0.07522 0.0
H2741 H 0.63106 0.54051 0.07529 0.0
C2742 C 0.60334 0.56456 0.10931 0.0
C2743 C 0.58945 0.57484 0.12905 0.0
C2744 C 0.60845 0.53913 0.1087 0.0
C2745 C 0.57997 0.55918 0.14763 0.0
C2746 C 0.58439 0.53383 0.14677 0.0
C2747 C 0.60432 0.49839 0.12733 0.0
C2748 C 0.61948 0.48817 0.10858 0.0
C2749 C 0.5989 0.52368 0.12762 0.0
C2750 C 0.62902 0.50374 0.08993 0.0
C2751 C 0.62346 0.52895 0.08992 0.0
H2752 H 0.26477 0.87535 0.87768 0.0
H2753 H 0.25657 0.89986 0.80152 0.0
H2754 H 0.21628 0.87883 0.79851 0.0
H2755 H 0.18171 0.85811 0.81947 0.0
H2756 H 0.18967 0.83477 0.89633 0.0
H2757 H 0.2323 0.84983 0.89686 0.0
C2758 C 0.25412 0.87588 0.86043 0.0
C2759 C 0.26305 0.88937 0.83999 0.0
C2760 C 0.2312 0.86379 0.85893 0.0
C2761 C 0.24967 0.88969 0.81749 0.0
C2762 C 0.22677 0.87767 0.8158 0.0
C2763 C 0.19293 0.85568 0.83615 0.0
C2764 C 0.18232 0.84577 0.858 0.0
C2765 C 0.2171 0.86521 0.83664 0.0
C2766 C 0.19726 0.84258 0.87935 0.0
C2767 C 0.22157 0.85141 0.87976 0.0
H2768 H 0.34342 0.11498 0.34265 0.0
H2769 H 0.32249 0.17071 0.39618 0.0
H2770 H 0.27877 0.15938 0.39048 0.0
H2771 H 0.24698 0.13143 0.37237 0.0
H2772 H 0.26922 0.07359 0.32196 0.0
H2773 H 0.3122 0.08801 0.32422 0.0
C2774 C 0.32932 0.12503 0.35276 0.0
C2775 C 0.33615 0.14384 0.36965 0.0
C2776 C 0.30454 0.11787 0.35004 0.0
C2777 C 0.31765 0.15623 0.38302 0.0
C2778 C 0.29271 0.14971 0.3798 0.0
C2779 C 0.26128 0.12233 0.36162 0.0
C2780 C 0.25518 0.10174 0.34676 0.0
C2781 C 0.286 0.13027 0.36367 0.0
C2782 C 0.2737 0.08957 0.33336 0.0
C2783 C 0.29817 0.09779 0.33468 0.0
H2784 H 0.41975 0.13233 0.5704 0.0
H2785 H 0.35739 0.08224 0.5679 0.0
H2786 H 0.35147 0.09114 0.5234 0.0
H2787 H 0.36317 0.11415 0.48582 0.0
H2788 H 0.42452 0.16553 0.48882 0.0
H2789 H 0.43137 0.15544 0.53285 0.0
C2790 C 0.40512 0.12301 0.56003 0.0
C2791 C 0.3892 0.1064 0.57234 0.0
C2792 C 0.40135 0.12882 0.53475 0.0
C2793 C 0.36999 0.09493 0.55878 0.0
C2794 C 0.36651 0.10015 0.53341 0.0
C2795 C 0.37798 0.12328 0.4961 0.0
C2796 C 0.39328 0.14063 0.48404 0.0
C2797 C 0.38186 0.11732 0.52133 0.0
C2798 C 0.41238 0.15222 0.49768 0.0
C2799 C 0.41641 0.14633 0.5228 0.0
H2800 H 0.64952 0.60421 0.31805 0.0
H2801 H 0.63798 0.6824 0.32708 0.0
H2802 H 0.62463 0.68542 0.28355 0.0
H2803 H 0.61375 0.6654 0.24355 0.0
H2804 H 0.62578 0.58738 0.23457 0.0
H2805 H 0.64099 0.58472 0.27754 0.0
C2806 C 0.64456 0.62201 0.3104 0.0
C2807 C 0.6447 0.643 0.32589 0.0
C2808 C 0.63643 0.62357 0.28549 0.0
C2809 C 0.63805 0.6659 0.31562 0.0
C2810 C 0.6302 0.66764 0.29076 0.0
C2811 C 0.61954 0.64782 0.25111 0.0
C2812 C 0.61836 0.62658 0.23609 0.0
C2813 C 0.62874 0.6465 0.2757 0.0
C2814 C 0.62638 0.60398 0.24588 0.0
C2815 C 0.63519 0.60245 0.2704 0.0
H2816 H 0.08725 0.88198 0.07823 0.0
H2817 H 0.16656 0.89252 0.07952 0.0
H2818 H 0.16867 0.8814 0.03535 0.0
H2819 H 0.14869 0.86367 0.99798 0.0
H2820 H 0.06979 0.85151 0.99716 0.0
H2821 H 0.06675 0.86803 0.03978 0.0
C2822 C 0.10496 0.88225 0.06885 0.0
C2823 C 0.12674 0.88758 0.08241 0.0
C2824 C 0.10614 0.87509 0.04367 0.0
C2825 C 0.14949 0.88825 0.06968 0.0
C2826 C 0.15077 0.88169 0.04444 0.0
C2827 C 0.13086 0.86481 0.00718 0.0
C2828 C 0.10949 0.8564 0.99476 0.0
C2829 C 0.12935 0.87417 0.03158 0.0
C2830 C 0.0864 0.85811 0.00649 0.0
C2831 C 0.0847 0.86747 0.03079 0.0
H2832 H 0.85059 0.39265 0.73256 0.0
H2833 H 0.90138 0.33205 0.74075 0.0
H2834 H 0.88927 0.32744 0.78452 0.0
H2835 H 0.86583 0.34189 0.82083 0.0
H2836 H 0.81725 0.40427 0.81345 0.0
H2837 H 0.82646 0.40653 0.76867 0.0
C2838 C 0.85902 0.37841 0.74389 0.0
C2839 C 0.87698 0.36281 0.73344 0.0
C2840 C 0.85214 0.376 0.76905 0.0
C2841 C 0.88767 0.34444 0.74839 0.0
C2842 C 0.88066 0.3417 0.77337 0.0
C2843 C 0.85683 0.35564 0.80931 0.0
C2844 C 0.84069 0.37275 0.82031 0.0
C2845 C 0.86303 0.35747 0.78392 0.0
C2846 C 0.8296 0.39082 0.8053 0.0
C2847 C 0.83501 0.39222 0.77979 0.0
H2848 H 0.35666 0.89328 0.92221 0.0
H2849 H 0.43616 0.89887 0.9164 0.0
H2850 H 0.4406 0.88357 0.95921 0.0
H2851 H 0.4219 0.86466 0.99678 0.0
H2852 H 0.34254 0.85722 0.00121 0.0
H2853 H 0.33803 0.87664 0.96026 0.0
C2854 C 0.37496 0.89176 0.93048 0.0
C2855 C 0.39604 0.89736 0.91613 0.0
C2856 C 0.3774 0.88205 0.95469 0.0
C2857 C 0.41961 0.89481 0.92707 0.0
C2858 C 0.42217 0.88586 0.95148 0.0
C2859 C 0.40365 0.86774 0.98891 0.0
C2860 C 0.38257 0.85976 0.00201 0.0
C2861 C 0.40122 0.87878 0.96522 0.0
C2862 C 0.35903 0.86317 0.99138 0.0
C2863 C 0.35643 0.87439 0.96805 0.0
H2864 H 0.86675 0.61422 0.7523 0.0
H2865 H 0.88796 0.69076 0.74784 0.0
H2866 H 0.86516 0.69484 0.7084 0.0
H2867 H 0.84541 0.67488 0.67255 0.0
H2868 H 0.82729 0.59728 0.6754 0.0
H2869 H 0.84152 0.59563 0.71875 0.0
C2870 C 0.86605 0.63182 0.74274 0.0
C2871 C 0.87905 0.65213 0.75258 0.0
C2872 C 0.85332 0.63384 0.72 0.0
C2873 C 0.8779 0.67498 0.74051 0.0
C2874 C 0.86496 0.67726 0.71799 0.0
C2875 C 0.84388 0.65771 0.68281 0.0
C2876 C 0.83601 0.63605 0.67049 0.0
C2877 C 0.85335 0.65658 0.70718 0.0
C2878 C 0.83366 0.61414 0.68429 0.0
C2879 C 0.84208 0.61311 0.70899 0.0
H2880 H 0.0857 0.10617 0.42257 0.0
H2881 H 0.16435 0.09249 0.42672 0.0
H2882 H 0.1657 0.11019 0.46875 0.0
H2883 H 0.14545 0.13377 0.50214 0.0
H2884 H 0.0673 0.14849 0.49753 0.0
H2885 H 0.06481 0.12637 0.45748 0.0
C2886 C 0.10308 0.10654 0.43281 0.0
C2887 C 0.12497 0.0983 0.42136 0.0
C2888 C 0.10388 0.11744 0.45658 0.0
C2889 C 0.14726 0.09884 0.43502 0.0
C2890 C 0.1481 0.10916 0.45896 0.0
C2891 C 0.12793 0.13206 0.49226 0.0
C2892 C 0.10663 0.14285 0.50228 0.0
C2893 C 0.12672 0.11932 0.46948 0.0
C2894 C 0.08387 0.1403 0.48986 0.0
C2895 C 0.08248 0.12766 0.4671 0.0
H2896 H 0.61859 0.35195 0.17245 0.0
H2897 H 0.66006 0.42006 0.17748 0.0
H2898 H 0.6534 0.42116 0.22276 0.0
H2899 H 0.63519 0.40317 0.26055 0.0
H2900 H 0.59237 0.33589 0.25524 0.0
H2901 H 0.59994 0.33424 0.21015 0.0
C2902 C 0.6265 0.36687 0.18347 0.0
C2903 C 0.64009 0.38575 0.17167 0.0
C2904 C 0.62205 0.3677 0.20931 0.0
C2905 C 0.64969 0.40524 0.18616 0.0
C2906 C 0.64579 0.40592 0.212 0.0
C2907 C 0.62743 0.38816 0.24955 0.0
C2908 C 0.61324 0.36966 0.26125 0.0
C2909 C 0.63183 0.38735 0.22371 0.0
C2910 C 0.60325 0.35041 0.24668 0.0
C2911 C 0.60769 0.3494 0.22094 0.0
H2912 H 0.56346 0.41768 0.11162 0.0
H2913 H 0.55941 0.35404 0.06319 0.0
H2914 H 0.5149 0.35042 0.071 0.0
H2915 H 0.47808 0.36344 0.09412 0.0
H2916 H 0.48293 0.4253 0.14496 0.0
H2917 H 0.52642 0.43131 0.13395 0.0
C2918 C 0.55272 0.40339 0.10228 0.0
C2919 C 0.56458 0.38631 0.08661 0.0
C2920 C 0.52747 0.40077 0.10777 0.0
C2921 C 0.55058 0.3675 0.07515 0.0
C2922 C 0.52522 0.36532 0.07979 0.0
C2923 C 0.48863 0.37827 0.1028 0.0
C2924 C 0.47732 0.39381 0.12045 0.0
C2925 C 0.51363 0.38148 0.09655 0.0
C2926 C 0.49125 0.41293 0.13148 0.0
C2927 C 0.51607 0.41648 0.12509 0.0
H2928 H 0.38142 0.73652 0.85483 0.0
H2929 H 0.32039 0.75719 0.90199 0.0
H2930 H 0.32127 0.79891 0.88469 0.0
H2931 H 0.34184 0.8302 0.85942 0.0
H2932 H 0.40598 0.8112 0.81564 0.0
H2933 H 0.40111 0.76793 0.82778 0.0
C2934 C 0.36807 0.75011 0.8609 0.0
C2935 C 0.35068 0.74391 0.87942 0.0
C2936 C 0.36928 0.77427 0.85147 0.0
C2937 C 0.33383 0.76168 0.88768 0.0
C2938 C 0.33435 0.78546 0.87779 0.0
C2939 C 0.35447 0.81656 0.85202 0.0
C2940 C 0.37422 0.82396 0.83654 0.0
C2941 C 0.35231 0.79208 0.86007 0.0
C2942 C 0.39059 0.80601 0.8275 0.0
C2943 C 0.38791 0.7813 0.83459 0.0
H2944 H 0.93387 0.66307 0.61116 0.0
H2945 H 0.92417 0.58483 0.59983 0.0
H2946 H 0.9664 0.57759 0.61393 0.0
H2947 H 0.0063 0.59341 0.6299 0.0
H2948 H 0.01644 0.67168 0.63978 0.0
H2949 H 0.97379 0.67891 0.62644 0.0
C2950 C 0.94107 0.64446 0.61144 0.0
C2951 C 0.92578 0.62456 0.60431 0.0
C2952 C 0.96537 0.64036 0.61985 0.0
C2953 C 0.93545 0.60055 0.60508 0.0
C2954 C 0.95961 0.59633 0.61334 0.0
C2955 C 0.99896 0.61196 0.62954 0.0
C2956 C 0.01426 0.63195 0.63611 0.0
C2957 C 0.97466 0.61606 0.62104 0.0
C2958 C 0.00483 0.656 0.63498 0.0
C2959 C 0.98054 0.66016 0.62718 0.0
H2960 H 0.10833 0.25146 0.36012 0.0
H2961 H 0.18694 0.25 0.37383 0.0
H2962 H 0.18936 0.20896 0.35466 0.0
H2963 H 0.16793 0.17164 0.33981 0.0
H2964 H 0.08886 0.17293 0.32757 0.0
H2965 H 0.08792 0.21625 0.33949 0.0
C2966 C 0.12602 0.24224 0.35848 0.0
C2967 C 0.14741 0.25342 0.36841 0.0
C2968 C 0.12716 0.21871 0.3477 0.0
C2969 C 0.17031 0.24164 0.36612 0.0
C2970 C 0.17164 0.21819 0.35529 0.0
C2971 C 0.15058 0.18148 0.33912 0.0
C2972 C 0.12844 0.16878 0.33335 0.0
C2973 C 0.15003 0.20624 0.34676 0.0
C2974 C 0.10618 0.18207 0.33223 0.0
C2975 C 0.10556 0.20684 0.33926 0.0
H2976 H 0.57737 0.59346 0.37569 0.0
H2977 H 0.55623 0.64979 0.42844 0.0
H2978 H 0.51317 0.64657 0.41403 0.0
H2979 H 0.48282 0.63139 0.3827 0.0
H2980 H 0.50601 0.57951 0.32645 0.0
H2981 H 0.54712 0.57726 0.34584 0.0
C2982 C 0.56325 0.6046 0.38455 0.0
C2983 C 0.56993 0.62172 0.40326 0.0
C2984 C 0.53901 0.6037 0.37515 0.0
C2985 C 0.5515 0.63638 0.41412 0.0
C2986 C 0.52695 0.63467 0.40574 0.0
C2987 C 0.49686 0.61934 0.37505 0.0
C2988 C 0.49164 0.60549 0.35337 0.0
C2989 C 0.52069 0.61899 0.38569 0.0
C2990 C 0.50984 0.59024 0.34317 0.0
C2991 C 0.53324 0.58898 0.35425 0.0
H2992 H 0.16313 0.80755 0.1393 0.0
H2993 H 0.09572 0.79917 0.18161 0.0
H2994 H 0.09369 0.7555 0.17017 0.0
H2995 H 0.10903 0.72106 0.14515 0.0
H2996 H 0.17468 0.73035 0.10017 0.0
H2997 H 0.1793 0.77264 0.11543 0.0
C2998 C 0.14833 0.79602 0.14653 0.0
C2999 C 0.1297 0.80642 0.16145 0.0
C3000 C 0.14668 0.77135 0.13892 0.0
C3001 C 0.11033 0.79145 0.17023 0.0
C3002 C 0.10907 0.7666 0.16352 0.0
C3003 C 0.12441 0.73229 0.1387 0.0
C3004 C 0.14139 0.72266 0.1214 0.0
C3005 C 0.12676 0.75658 0.14731 0.0
C3006 C 0.16123 0.73743 0.11329 0.0
C3007 C 0.16395 0.76154 0.12211 0.0
H3008 H 1.0003 0.41847 0.87816 0.0
H3009 H 0.00142 0.34927 0.83844 0.0
H3010 H 0.9611 0.33816 0.85589 0.0
H3011 H 0.92426 0.34942 0.87981 0.0
H3012 H 0.92164 0.41966 0.91752 0.0
H3013 H 0.96403 0.42878 0.90425 0.0
C3014 C 0.99183 0.40081 0.87372 0.0
C3015 C 0.00382 0.38461 0.85722 0.0
C3016 C 0.96846 0.39469 0.88361 0.0
C3017 C 0.99246 0.36204 0.85107 0.0
C3018 C 0.96949 0.35563 0.86113 0.0
C3019 C 0.93321 0.36642 0.88575 0.0
C3020 C 0.91985 0.38379 0.89975 0.0
C3021 C 0.95717 0.37193 0.87717 0.0
C3022 C 0.93153 0.40599 0.90676 0.0
C3023 C 0.95572 0.41128 0.89903 0.0
H3024 H 0.35198 0.17915 0.63114 0.0
H3025 H 0.41825 0.19185 0.67482 0.0
H3026 H 0.41565 0.23606 0.66635 0.0
H3027 H 0.39606 0.27042 0.64449 0.0
H3028 H 0.33136 0.25741 0.59849 0.0
H3029 H 0.33202 0.2137 0.60969 0.0
C3030 C 0.36558 0.19164 0.63926 0.0
C3031 C 0.38515 0.1823 0.65386 0.0
C3032 C 0.36451 0.21681 0.63348 0.0
C3033 C 0.40294 0.19864 0.66371 0.0
C3034 C 0.40154 0.22386 0.65872 0.0
C3035 C 0.38204 0.25807 0.6369 0.0
C3036 C 0.36372 0.26714 0.62059 0.0
C3037 C 0.38269 0.23303 0.64324 0.0
C3038 C 0.34577 0.25085 0.61091 0.0
C3039 C 0.34607 0.22591 0.61743 0.0
H3040 H 0.09929 0.4827 0.36222 0.0
H3041 H 0.15138 0.48879 0.42344 0.0
H3042 H 0.14113 0.53247 0.42829 0.0
H3043 H 0.1186 0.5693 0.4138 0.0
H3044 H 0.06831 0.56302 0.35112 0.0
H3045 H 0.07625 0.51881 0.34854 0.0
C3046 C 0.10845 0.4935 0.37669 0.0
C3047 C 0.1262 0.48246 0.39237 0.0
C3048 C 0.10256 0.51851 0.37926 0.0
C3049 C 0.13778 0.49683 0.411 0.0
C3050 C 0.13184 0.52178 0.41385 0.0
C3051 C 0.10898 0.55813 0.39993 0.0
C3052 C 0.09267 0.56937 0.38282 0.0
C3053 C 0.11433 0.53285 0.39799 0.0
C3054 C 0.0808 0.55478 0.36458 0.0
C3055 C 0.08546 0.52954 0.363 0.0
H3056 H 0.60906 0.92845 0.64651 0.0
H3057 H 0.5933 0.92208 0.56749 0.0
H3058 H 0.60997 0.96352 0.56065 0.0
H3059 H 0.63358 0.99931 0.57651 0.0
H3060 H 0.6516 0.00412 0.65504 0.0
H3061 H 0.63018 0.96503 0.66268 0.0
C3062 C 0.60856 0.9364 0.6279 0.0
C3063 C 0.59988 0.92232 0.60754 0.0
C3064 C 0.61931 0.95958 0.62395 0.0
C3065 C 0.59979 0.93268 0.58346 0.0
C3066 C 0.60958 0.95622 0.57951 0.0
C3067 C 0.63245 0.99186 0.5953 0.0
C3068 C 0.64391 0.00441 0.61524 0.0
C3069 C 0.62018 0.96943 0.59948 0.0
C3070 C 0.64295 0.99454 0.63945 0.0
C3071 C 0.63055 0.97238 0.64383 0.0
H3072 H 0.82128 0.86269 0.3413 0.0
H3073 H 0.81411 0.81848 0.40796 0.0
H3074 H 0.76949 0.82594 0.40837 0.0
H3075 H 0.73327 0.84724 0.39153 0.0
H3076 H 0.74074 0.89347 0.32631 0.0
H3077 H 0.78473 0.88321 0.32379 0.0
C3078 C 0.8099 0.85425 0.35564 0.0
C3079 C 0.82099 0.83985 0.37448 0.0
C3080 C 0.78446 0.85939 0.35629 0.0
C3081 C 0.80602 0.82949 0.39319 0.0
C3082 C 0.78055 0.8339 0.39352 0.0
C3083 C 0.74446 0.85509 0.3767 0.0
C3084 C 0.73372 0.87122 0.35919 0.0
C3085 C 0.7697 0.84925 0.37549 0.0
C3086 C 0.74855 0.88116 0.34013 0.0
C3087 C 0.77368 0.8752 0.33862 0.0
H3088 H 0.85891 0.99965 0.08547 0.0
H3089 H 0.84622 0.99094 0.16459 0.0
H3090 H 0.86905 0.02902 0.17323 0.0
H3091 H 0.88962 0.06594 0.15813 0.0
H3092 H 0.90062 0.07645 0.07895 0.0
H3093 H 0.88247 0.03589 0.07046 0.0
C3094 C 0.86151 0.00603 0.10457 0.0
C3095 C 0.85102 0.99272 0.1244 0.0
C3096 C 0.87452 0.02801 0.10936 0.0
C3097 C 0.85402 0.00116 0.14907 0.0
C3098 C 0.8672 0.02276 0.15402 0.0
C3099 C 0.88858 0.05924 0.13903 0.0
C3100 C 0.89608 0.0744 0.11915 0.0
C3101 C 0.87722 0.03647 0.13429 0.0
C3102 C 0.8946 0.0653 0.09454 0.0
C3103 C 0.8841 0.04217 0.08968 0.0
H3104 H 0.25989 0.64974 0.39058 0.0
H3105 H 0.25428 0.60453 0.32415 0.0
H3106 H 0.20956 0.61117 0.32282 0.0
H3107 H 0.17202 0.62874 0.34119 0.0
H3108 H 0.17729 0.67208 0.40888 0.0
H3109 H 0.22234 0.66753 0.40883 0.0
C3110 C 0.24892 0.64133 0.37578 0.0
C3111 C 0.26045 0.62661 0.35751 0.0
C3112 C 0.22321 0.64505 0.37526 0.0
C3113 C 0.24589 0.61582 0.33852 0.0
C3114 C 0.22033 0.61969 0.33769 0.0
C3115 C 0.18304 0.63757 0.35572 0.0
C3116 C 0.17132 0.65096 0.3749 0.0
C3117 C 0.2088 0.63422 0.35599 0.0
C3118 C 0.18586 0.66179 0.39386 0.0
C3119 C 0.21159 0.65909 0.39389 0.0
H3120 H 0.37988 0.50744 0.91495 0.0
H3121 H 0.38605 0.51562 0.83493 0.0
H3122 H 0.39878 0.47277 0.8309 0.0
H3123 H 0.40672 0.43254 0.84977 0.0
H3124 H 0.40154 0.42418 0.92995 0.0
H3125 H 0.39063 0.46751 0.93425 0.0
C3126 C 0.38385 0.49973 0.89667 0.0
C3127 C 0.38171 0.51457 0.87525 0.0
C3128 C 0.39175 0.47511 0.8945 0.0
C3129 C 0.38743 0.50452 0.8517 0.0
C3130 C 0.39481 0.48004 0.84937 0.0
C3131 C 0.40368 0.44024 0.86826 0.0
C3132 C 0.40489 0.42495 0.88945 0.0
C3133 C 0.397 0.46513 0.87062 0.0
C3134 C 0.4008 0.43541 0.91324 0.0
C3135 C 0.39431 0.4602 0.91574 0.0
H3136 H 0.73695 0.13971 0.13894 0.0
H3137 H 0.75511 0.0958 0.20344 0.0
H3138 H 0.79733 0.11255 0.20352 0.0
H3139 H 0.82971 0.13537 0.18231 0.0
H3140 H 0.81343 0.17504 0.11426 0.0
H3141 H 0.76942 0.16496 0.11889 0.0
C3142 C 0.75014 0.13427 0.15323 0.0
C3143 C 0.74327 0.11677 0.17125 0.0
C3144 C 0.77452 0.14321 0.15247 0.0
C3145 C 0.76029 0.10931 0.18948 0.0
C3146 C 0.7843 0.11888 0.1895 0.0
C3147 C 0.81655 0.14233 0.16869 0.0
C3148 C 0.82487 0.15578 0.14782 0.0
C3149 C 0.79174 0.13528 0.17067 0.0
C3150 C 0.8075 0.16456 0.13042 0.0
C3151 C 0.7824 0.15865 0.13297 0.0
H3152 H 0.66961 0.86581 0.66417 0.0
H3153 H 0.69063 0.82868 0.59596 0.0
H3154 H 0.73417 0.83919 0.60415 0.0
H3155 H 0.76542 0.86267 0.62874 0.0
H3156 H 0.74256 0.90318 0.69409 0.0
H3157 H 0.70025 0.88746 0.6891 0.0
C3158 C 0.68366 0.85946 0.65127 0.0
C3159 C 0.67687 0.84636 0.6295 0.0
C3160 C 0.70823 0.86645 0.65553 0.0
C3161 C 0.69539 0.83875 0.61285 0.0
C3162 C 0.72023 0.84486 0.61748 0.0
C3163 C 0.75113 0.86765 0.64201 0.0
C3164 C 0.75678 0.88381 0.66184 0.0
C3165 C 0.72674 0.85926 0.63843 0.0
C3166 C 0.73835 0.89068 0.67878 0.0
C3167 C 0.71429 0.88172 0.67591 0.0
H3168 H 0.99372 0.19449 0.11543 0.0
H3169 H 0.94369 0.23607 0.16147 0.0
H3170 H 0.97075 0.27238 0.15844 0.0
H3171 H 0.00715 0.29275 0.14032 0.0
H3172 H 0.05887 0.2505 0.09672 0.0
H3173 H 0.03225 0.21404 0.10033 0.0
C3174 C 0.98909 0.21146 0.12507 0.0
C3175 C 0.96698 0.2129 0.13864 0.0
C3176 C 0.00469 0.23211 0.12318 0.0
C3177 C 0.96083 0.23476 0.15108 0.0
C3178 C 0.97614 0.25547 0.14917 0.0
C3179 C 0.01281 0.27543 0.13202 0.0
C3180 C 0.03487 0.27427 0.11826 0.0
C3181 C 0.9979 0.25444 0.13494 0.0
C3182 C 0.04174 0.25191 0.10707 0.0
C3183 C 0.02667 0.23103 0.10934 0.0
H3184 H 0.04223 0.73645 0.40065 0.0
H3185 H 0.00411 0.68823 0.34893 0.0
H3186 H 0.97091 0.71827 0.34431 0.0
H3187 H 0.95219 0.75842 0.35521 0.0
H3188 H 0.98936 0.80593 0.4082 0.0
H3189 H 0.02313 0.77626 0.41217 0.0
C3190 C 0.02654 0.73245 0.38856 0.0
C3191 C 0.02585 0.71014 0.37497 0.0
C3192 C 0.00727 0.74982 0.38615 0.0
C3193 C 0.00539 0.70538 0.35928 0.0
C3194 C 0.9863 0.72255 0.35668 0.0
C3195 C 0.96781 0.7623 0.36745 0.0
C3196 C 0.96829 0.78437 0.38136 0.0
C3197 C 0.98704 0.74491 0.36993 0.0
C3198 C 0.98852 0.78904 0.39736 0.0
C3199 C 0.00783 0.77206 0.39965 0.0
H3200 H 0.55051 0.75914 0.64192 0.0
H3201 H 0.51365 0.80236 0.58565 0.0
H3202 H 0.47811 0.77408 0.58636 0.0
H3203 H 0.45725 0.73787 0.60396 0.0
H3204 H 0.49523 0.69276 0.65799 0.0
H3205 H 0.53041 0.7214 0.65792 0.0
C3206 C 0.53467 0.76217 0.62979 0.0
C3207 C 0.53444 0.78263 0.61379 0.0
C3208 C 0.51449 0.7458 0.63023 0.0
C3209 C 0.51409 0.78654 0.59797 0.0
C3210 C 0.4938 0.77052 0.5985 0.0
C3211 C 0.47336 0.73415 0.61548 0.0
C3212 C 0.47364 0.71334 0.63104 0.0
C3213 C 0.49376 0.75019 0.61467 0.0
C3214 C 0.49441 0.70894 0.64622 0.0
C3215 C 0.51461 0.72516 0.64598 0.0
H3216 H 0.48487 0.29167 0.91019 0.0
H3217 H 0.43943 0.25744 0.85336 0.0
H3218 H 0.46833 0.22299 0.85055 0.0
H3219 H 0.50689 0.20244 0.8641 0.0
H3220 H 0.55326 0.23753 0.9197 0.0
H3221 H 0.52382 0.27135 0.92332 0.0
C3222 C 0.48126 0.27656 0.89735 0.0
C3223 C 0.46 0.27717 0.88198 0.0
C3224 C 0.49822 0.25685 0.89561 0.0
C3225 C 0.4557 0.25752 0.86528 0.0
C3226 C 0.47224 0.23778 0.86367 0.0
C3227 C 0.51064 0.21757 0.87687 0.0
C3228 C 0.53223 0.21717 0.8918 0.0
C3229 C 0.49368 0.23726 0.87863 0.0
C3230 C 0.53661 0.23697 0.90835 0.0
C3231 C 0.51981 0.25647 0.91033 0.0
H3232 H 0.13851 0.93826 0.2511 0.0
H3233 H 0.10176 0.97543 0.19047 0.0
H3234 H 0.09672 0.01225 0.21657 0.0
H3235 H 0.10344 0.03409 0.25673 0.0
H3236 H 0.14198 0.99744 0.31655 0.0
H3237 H 0.14559 0.96015 0.29096 0.0
C3238 C 0.12958 0.95454 0.24366 0.0
C3239 C 0.12043 0.95429 0.21908 0.0
C3240 C 0.12692 0.9756 0.25872 0.0
C3241 C 0.10877 0.97531 0.2095 0.0
C3242 C 0.10588 0.9963 0.22439 0.0
C3243 C 0.11231 0.01777 0.26412 0.0
C3244 C 0.12223 0.0182 0.28841 0.0
C3245 C 0.11483 0.99664 0.24907 0.0
C3246 C 0.13411 0.99726 0.29786 0.0
C3247 C 0.13627 0.97605 0.28323 0.0
H3248 H 0.25217 0.89841 0.45078 0.0
H3249 H 0.29835 0.84669 0.48991 0.0
H3250 H 0.27096 0.84855 0.52632 0.0
H3251 H 0.23412 0.86542 0.54728 0.0
H3252 H 0.18618 0.91475 0.50707 0.0
H3253 H 0.2144 0.91417 0.47128 0.0
C3254 C 0.25612 0.88753 0.4673 0.0
C3255 C 0.27715 0.87234 0.46767 0.0
C3256 C 0.24014 0.88855 0.48807 0.0
C3257 C 0.28212 0.85828 0.48911 0.0
C3258 C 0.26655 0.85947 0.50997 0.0
C3259 C 0.22959 0.87564 0.53048 0.0
C3260 C 0.20783 0.88977 0.52968 0.0
C3261 C 0.24549 0.87453 0.50966 0.0
C3262 C 0.20281 0.90375 0.50818 0.0
C3263 C 0.21885 0.90327 0.48764 0.0
H3264 H 0.37723 0.01484 0.69747 0.0
H3265 H 0.43242 0.05834 0.73619 0.0
H3266 H 0.43594 0.02655 0.76841 0.0
H3267 H 0.42161 0.98706 0.7869 0.0
H3268 H 0.36449 0.94518 0.74932 0.0
H3269 H 0.36311 0.97563 0.71565 0.0
C3270 C 0.38992 0.01744 0.71306 0.0
C3271 C 0.40449 0.039 0.71442 0.0
C3272 C 0.39136 0.99935 0.73185 0.0
C3273 C 0.42118 0.04182 0.7345 0.0
C3274 C 0.42307 0.02371 0.75305 0.0
C3275 C 0.40906 0.9846 0.77119 0.0
C3276 C 0.39312 0.96399 0.77055 0.0
C3277 C 0.40807 0.00248 0.75208 0.0
C3278 C 0.3768 0.961 0.75023 0.0
C3279 C 0.37603 0.97839 0.73099 0.0
H3280 H 0.24258 0.16311 0.94994 0.0
H3281 H 0.19229 0.11758 0.99212 0.0
H3282 H 0.22207 0.11566 0.02671 0.0
H3283 H 0.26296 0.12603 0.04448 0.0
H3284 H 0.31341 0.1716 0.00249 0.0
H3285 H 0.2831 0.17471 0.96843 0.0
C3286 C 0.23818 0.15297 0.96683 0.0
C3287 C 0.21553 0.14023 0.96848 0.0
C3288 C 0.25543 0.15196 0.98661 0.0
C3289 C 0.20984 0.12719 0.99039 0.0
C3290 C 0.22682 0.12613 0.01015 0.0
C3291 C 0.26727 0.13658 0.02782 0.0
C3292 C 0.29031 0.14857 0.02592 0.0
C3293 C 0.24979 0.1382 0.00835 0.0
C3294 C 0.29566 0.16241 0.00442 0.0
C3295 C 0.27839 0.1641 0.98492 0.0
H3296 H 0.6964 0.39862 0.00362 0.0
H3297 H 0.73498 0.35796 0.06061 0.0
H3298 H 0.76981 0.35132 0.03214 0.0
H3299 H 0.78952 0.3573 0.99069 0.0
H3300 H 0.75042 0.39756 0.93369 0.0
H3301 H 0.71562 0.40384 0.96208 0.0
C3302 C 0.71256 0.3885 0.00978 0.0
C3303 C 0.71323 0.37887 0.03415 0.0
C3304 C 0.73234 0.38443 0.99313 0.0
C3305 C 0.73412 0.36555 0.04189 0.0
C3306 C 0.75398 0.36167 0.02559 0.0
C3307 C 0.77321 0.36713 0.98448 0.0
C3308 C 0.77253 0.37699 0.96017 0.0
C3309 C 0.75328 0.37091 0.00108 0.0
C3310 C 0.75139 0.3899 0.95238 0.0
C3311 C 0.73152 0.39358 0.96863 0.0
H3312 H 0.90746 0.54623 0.23176 0.0
H3313 H 0.8605 0.50628 0.18021 0.0
H3314 H 0.85983 0.47083 0.20843 0.0
H3315 H 0.87218 0.45134 0.24819 0.0
H3316 H 0.91856 0.49144 0.30012 0.0
H3317 H 0.92042 0.52641 0.27127 0.0
C3318 C 0.89728 0.52965 0.22669 0.0
C3319 C 0.88395 0.52885 0.20404 0.0
C3320 C 0.89695 0.50937 0.24307 0.0
C3321 C 0.87068 0.50737 0.1977 0.0
C3322 C 0.87036 0.48709 0.21378 0.0
C3323 C 0.88252 0.46784 0.25319 0.0
C3324 C 0.89501 0.46898 0.27629 0.0
C3325 C 0.88327 0.48794 0.23661 0.0
C3326 C 0.90882 0.49019 0.28239 0.0
C3327 C 0.9098 0.5102 0.26595 0.0
H3328 H 0.7399 0.62478 0.44738 0.0
H3329 H 0.69102 0.66723 0.49398 0.0
H3330 H 0.72334 0.67088 0.52602 0.0
H3331 H 0.76501 0.66015 0.54177 0.0
H3332 H 0.81278 0.61548 0.49625 0.0
H3333 H 0.78149 0.61428 0.46292 0.0
C3334 C 0.73631 0.63469 0.46463 0.0
C3335 C 0.71309 0.64568 0.46833 0.0
C3336 C 0.75481 0.63623 0.48318 0.0
C3337 C 0.70882 0.65882 0.49058 0.0
C3338 C 0.72725 0.66079 0.50897 0.0
C3339 C 0.76856 0.65043 0.52439 0.0
C3340 C 0.79107 0.63796 0.5213 0.0
C3341 C 0.75026 0.6494 0.50558 0.0
C3342 C 0.79551 0.62517 0.49892 0.0
C3343 C 0.77763 0.62445 0.47993 0.0
H3344 H 0.64908 0.53711 0.76412 0.0
H3345 H 0.59569 0.5027 0.81272 0.0
H3346 H 0.5952 0.46585 0.78616 0.0
H3347 H 0.61049 0.4431 0.74922 0.0
H3348 H 0.66331 0.47798 0.70027 0.0
H3349 H 0.66394 0.51462 0.72697 0.0
C3350 C 0.63746 0.52145 0.76889 0.0
C3351 C 0.62248 0.52255 0.79032 0.0
C3352 C 0.63733 0.50033 0.75355 0.0
C3353 C 0.60725 0.50231 0.7962 0.0
C3354 C 0.60705 0.48121 0.78108 0.0
C3355 C 0.62203 0.4588 0.74441 0.0
C3356 C 0.63699 0.45776 0.72294 0.0
C3357 C 0.62204 0.47998 0.75971 0.0
C3358 C 0.65196 0.47816 0.71694 0.0
C3359 C 0.6522 0.49919 0.73211 0.0
H3360 H 0.95823 0.74892 0.88625 0.0
H3361 H 0.99997 0.69232 0.84907 0.0
H3362 H 0.03386 0.72149 0.84147 0.0
H3363 H 0.05191 0.76308 0.84615 0.0
H3364 H 0.01091 0.81928 0.88465 0.0
H3365 H 0.97622 0.79058 0.89078 0.0
C3366 C 0.97486 0.74306 0.87665 0.0
C3367 C 0.97676 0.7187 0.86815 0.0
C3368 C 0.99418 0.75994 0.87235 0.0
C3369 C 0.99821 0.71114 0.85561 0.0
C3370 C 0.01751 0.72777 0.85123 0.0
C3371 C 0.03515 0.76899 0.85548 0.0
C3372 C 0.03355 0.79311 0.86468 0.0
C3373 C 0.01567 0.75223 0.85945 0.0
C3374 C 0.01215 0.80074 0.87721 0.0
C3375 C 0.99249 0.78433 0.88086 0.0
H3376 H 0.99777 0.2992 0.61539 0.0
H3377 H 0.94753 0.26108 0.66451 0.0
H3378 H 0.97685 0.22702 0.66856 0.0
H3379 H 0.01651 0.20736 0.65689 0.0
H3380 H 0.06694 0.24623 0.60845 0.0
H3381 H 0.03802 0.28051 0.60528 0.0
C3382 C 0.99329 0.28338 0.62691 0.0
C3383 C 0.97051 0.28254 0.63951 0.0
C3384 C 0.01031 0.26394 0.62922 0.0
C3385 C 0.96501 0.26212 0.65467 0.0
C3386 C 0.98175 0.24264 0.65695 0.0
C3387 C 0.02122 0.22348 0.64589 0.0
C3388 C 0.0437 0.22411 0.63267 0.0
C3389 C 0.00444 0.24326 0.64421 0.0
C3390 C 0.04956 0.24511 0.61846 0.0
C3391 C 0.03305 0.26476 0.61668 0.0
H3392 H 0.49738 0.20713 0.39663 0.0
H3393 H 0.44548 0.24042 0.34581 0.0
H3394 H 0.47359 0.27563 0.33992 0.0
H3395 H 0.51306 0.29689 0.34956 0.0
H3396 H 0.56606 0.26185 0.39813 0.0
H3397 H 0.53753 0.2274 0.40469 0.0
C3398 C 0.49231 0.22223 0.3844 0.0
C3399 C 0.46953 0.22155 0.37181 0.0
C3400 C 0.50877 0.24199 0.38071 0.0
C3401 C 0.46302 0.24085 0.35572 0.0
C3402 C 0.47907 0.26086 0.35233 0.0
C3403 C 0.5184 0.28157 0.36134 0.0
C3404 C 0.54143 0.28201 0.37362 0.0
C3405 C 0.50204 0.2616 0.36468 0.0
C3406 C 0.54817 0.26211 0.38891 0.0
C3407 C 0.53193 0.24238 0.39259 0.0
H3408 H 0.53759 0.74101 0.11747 0.0
H3409 H 0.50227 0.69594 0.17339 0.0
H3410 H 0.46886 0.72594 0.17719 0.0
H3411 H 0.44854 0.76462 0.16337 0.0
H3412 H 0.48314 0.80847 0.10607 0.0
H3413 H 0.51754 0.77945 0.10382 0.0
C3414 C 0.52249 0.73765 0.13036 0.0
C3415 C 0.52256 0.71614 0.14512 0.0
C3416 C 0.50303 0.75484 0.13212 0.0
C3417 C 0.50298 0.71241 0.16202 0.0
C3418 C 0.48372 0.72953 0.16408 0.0
C3419 C 0.46373 0.76784 0.15055 0.0
C3420 C 0.46318 0.78862 0.13477 0.0
C3421 C 0.48342 0.75079 0.14913 0.0
C3422 C 0.48298 0.79252 0.11821 0.0
C3423 C 0.50269 0.77592 0.11694 0.0
H3424 H 0.89615 0.02284 0.80203 0.0
H3425 H 0.83674 0.05547 0.7598 0.0
H3426 H 0.83773 0.02118 0.72994 0.0
H3427 H 0.85626 0.98252 0.7152 0.0
H3428 H 0.9152 0.94923 0.7576 0.0
H3429 H 0.91426 0.98349 0.78757 0.0
C3430 C 0.88355 0.02245 0.78618 0.0
C3431 C 0.86651 0.04175 0.78298 0.0
C3432 C 0.88434 0.00269 0.76902 0.0
C3433 C 0.84996 0.04082 0.76267 0.0
C3434 C 0.85061 0.02127 0.74555 0.0
C3435 C 0.86867 0.98257 0.73119 0.0
C3436 C 0.88572 0.96325 0.73421 0.0
C3437 C 0.86778 0.00216 0.74847 0.0
C3438 C 0.90207 0.96396 0.75471 0.0
C3439 C 0.90142 0.98348 0.77193 0.0
H3440 H 0.76754 0.10368 0.45194 0.0
H3441 H 0.82421 0.14022 0.49548 0.0
H3442 H 0.79475 0.14734 0.52937 0.0
H3443 H 0.75252 0.14337 0.54682 0.0
H3444 H 0.69594 0.1063 0.50373 0.0
H3445 H 0.72531 0.0994 0.46958 0.0
C3446 C 0.77342 0.11297 0.46897 0.0
C3447 C 0.79801 0.1215 0.47116 0.0
C3448 C 0.75624 0.11715 0.48841 0.0
C3449 C 0.80534 0.13365 0.49328 0.0
C3450 C 0.78848 0.13777 0.51266 0.0
C3451 C 0.74667 0.134 0.52982 0.0
C3452 C 0.72213 0.12543 0.52769 0.0
C3453 C 0.76381 0.12978 0.5104 0.0
C3454 C 0.71475 0.1131 0.50571 0.0
C3455 C 0.73158 0.10906 0.48624 0.0
H3456 H 0.63904 0.01221 0.20749 0.0
H3457 H 0.58125 0.05046 0.24674 0.0
H3458 H 0.58164 0.019 0.27962 0.0
H3459 H 0.59962 0.98125 0.29787 0.0
H3460 H 0.65649 0.94252 0.2576 0.0
H3461 H 0.65587 0.97386 0.22485 0.0
C3462 C 0.62655 0.01362 0.22328 0.0
C3463 C 0.61018 0.0336 0.22479 0.0
C3464 C 0.62698 0.99554 0.24205 0.0
C3465 C 0.59386 0.03511 0.24512 0.0
C3466 C 0.59422 0.01723 0.26397 0.0
C3467 C 0.61164 0.97956 0.28176 0.0
C3468 C 0.62811 0.9596 0.28018 0.0
C3469 C 0.61082 0.99743 0.26272 0.0
C3470 C 0.64389 0.95786 0.25942 0.0
C3471 C 0.64341 0.97568 0.24059 0.0
H3472 H 0.69314 0.85585 0.99457 0.0
H3473 H 0.73342 0.91115 0.95336 0.0
H3474 H 0.76711 0.9097 0.98407 0.0
H3475 H 0.78543 0.89217 0.02237 0.0
H3476 H 0.74489 0.83743 0.06404 0.0
H3477 H 0.71142 0.83839 0.03297 0.0
C3478 C 0.70935 0.86752 0.99232 0.0
C3479 C 0.71073 0.8837 0.97182 0.0
C3480 C 0.72872 0.8664 0.00994 0.0
C3481 C 0.73171 0.89887 0.96921 0.0
C3482 C 0.75108 0.89787 0.98663 0.0
C3483 C 0.76915 0.88061 0.0247 0.0
C3484 C 0.76748 0.86491 0.04555 0.0
C3485 C 0.7498 0.88168 0.00705 0.0
C3486 C 0.7466 0.84959 0.04808 0.0
C3487 C 0.72741 0.85028 0.03043 0.0
H3488 H 0.29856 0.63745 0.98344 0.0
H3489 H 0.2632 0.58406 0.93511 0.0
H3490 H 0.22646 0.58403 0.96189 0.0
H3491 H 0.20402 0.59997 0.99873 0.0
H3492 H 0.24022 0.65218 0.04783 0.0
H3493 H 0.27659 0.65258 0.02073 0.0
C3494 C 0.28277 0.62583 0.97881 0.0
C3495 C 0.28357 0.61073 0.95739 0.0
C3496 C 0.26173 0.62598 0.99427 0.0
C3497 C 0.26312 0.5956 0.95167 0.0
C3498 C 0.24205 0.59574 0.96688 0.0
C3499 C 0.21999 0.61125 0.00357 0.0
C3500 C 0.21941 0.62602 0.02527 0.0
C3501 C 0.24111 0.61092 0.98819 0.0
C3502 C 0.24005 0.64088 0.03109 0.0
C3503 C 0.26095 0.64096 0.01571 0.0
H3504 H 0.14182 0.54966 0.73729 0.0
H3505 H 0.08839 0.51063 0.6918 0.0
H3506 H 0.08961 0.47566 0.72066 0.0
H3507 H 0.10678 0.45566 0.75831 0.0
H3508 H 0.16042 0.49454 0.80373 0.0
H3509 H 0.15902 0.5296 0.77502 0.0
C3510 C 0.13066 0.53337 0.73359 0.0
C3511 C 0.11525 0.53261 0.71224 0.0
C3512 C 0.13177 0.51317 0.75011 0.0
C3513 C 0.10037 0.51168 0.70808 0.0
C3514 C 0.10119 0.49162 0.72451 0.0
C3515 C 0.11806 0.47187 0.76199 0.0
C3516 C 0.13373 0.47242 0.78316 0.0
C3517 C 0.11693 0.49208 0.74551 0.0
C3518 C 0.14847 0.49345 0.78743 0.0
C3519 C 0.14751 0.5136 0.77112 0.0
H3520 H 0.29557 0.34835 0.50219 0.0
H3521 H 0.25945 0.39348 0.55735 0.0
H3522 H 0.22445 0.39983 0.52898 0.0
H3523 H 0.20431 0.393 0.48811 0.0
H3524 H 0.24047 0.34835 0.43259 0.0
H3525 H 0.27526 0.3414 0.46119 0.0
C3526 C 0.27985 0.3593 0.50797 0.0
C3527 C 0.27992 0.37043 0.53169 0.0
C3528 C 0.25995 0.36314 0.4914 0.0
C3529 C 0.25969 0.38483 0.53905 0.0
C3530 C 0.23975 0.38851 0.52285 0.0
C3531 C 0.21995 0.38194 0.48231 0.0
C3532 C 0.21994 0.37114 0.45844 0.0
C3533 C 0.23977 0.37796 0.49888 0.0
C3534 C 0.24012 0.35668 0.45104 0.0
C3535 C 0.25996 0.35269 0.46736 0.0
H3536 H 0.39058 0.51866 0.2912 0.0
H3537 H 0.33195 0.55691 0.25296 0.0
H3538 H 0.33195 0.52581 0.21969 0.0
H3539 H 0.34956 0.48853 0.20085 0.0
H3540 H 0.40808 0.44994 0.23892 0.0
H3541 H 0.4079 0.48083 0.27249 0.0
C3542 C 0.37788 0.52014 0.2755 0.0
C3543 C 0.36134 0.54003 0.2744 0.0
C3544 C 0.37825 0.50237 0.25631 0.0
C3545 C 0.34471 0.54165 0.25424 0.0
C3546 C 0.34484 0.52399 0.23516 0.0
C3547 C 0.36212 0.48678 0.21662 0.0
C3548 C 0.37881 0.46702 0.21745 0.0
C3549 C 0.36164 0.50438 0.23592 0.0
C3550 C 0.39528 0.46518 0.23774 0.0
C3551 C 0.39503 0.48271 0.257 0.0
loop_
_geom_bond_atom_site_label_1
_geom_bond_atom_site_label_2
_geom_bond_distance
_geom_bond_site_symmetry_2
_ccdc_geom_bond_type
Co0 O3 1.970 . S
Co0 N17 1.989 . S
Co0 O25 1.967 . S
Co0 O32 1.920 . S
Co1 O4 1.966 . S
Co1 N10 2.022 . S
Co1 N18 1.993 . S
Co1 O26 1.941 . S
C2 O3 1.258 . S
C2 O4 1.263 . S
O3 Co0 1.970 . S
O3 C2 1.258 . S
O4 Co1 1.966 . S
O4 C2 1.263 . S
C5 O6 1.235 . S
C5 O32 1.289 . S
O6 C5 1.235 . S
C7 C9 1.400 . S
C7 N10 1.351 . S
C7 C12 1.501 . S
C8 C9 1.387 . S
C8 N11 1.341 . S
C9 C7 1.400 . S
C9 C8 1.387 . S
N10 Co1 2.022 . S
N10 C7 1.351 . S
N10 N11 1.365 . S
N11 C8 1.341 . S
N11 N10 1.365 . S
N11 H31 0.862 . S
C12 C7 1.501 . S
C12 H13 0.961 . S
C12 H14 0.961 . S
C12 H15 0.960 . S
H13 C12 0.961 . S
H14 C12 0.961 . S
H15 C12 0.960 . S
C16 N17 1.342 . S
C16 C20 1.401 . S
C16 C21 1.499 . S
N17 Co0 1.989 . S
N17 C16 1.342 . S
N17 N18 1.388 . S
N18 Co1 1.993 . S
N18 N17 1.388 . S
N18 C19 1.346 . S
C19 N18 1.346 . S
C19 C20 1.396 . S
C19 C29 1.510 . S
C20 C16 1.401 . S
C20 C19 1.396 . S
C21 C16 1.499 . S
C21 H22 0.959 . S
C21 H23 0.960 . S
C21 H24 0.961 . S
H22 C21 0.959 . S
H23 C21 0.960 . S
H24 C21 0.961 . S
O25 Co0 1.967 . S
O25 C33 1.258 . S
O26 Co1 1.941 . S
O26 C33 1.266 . S
H27 C29 0.959 . S
H28 C29 0.961 . S
C29 C19 1.510 . S
C29 H27 0.959 . S
C29 H28 0.961 . S
C29 H30 0.960 . S
H30 C29 0.960 . S
H31 N11 0.862 . S
O32 Co0 1.920 . S
O32 C5 1.289 . S
C33 O25 1.258 . S
C33 O26 1.266 . S
Co34 O37 1.970 . S
Co34 N51 1.989 . S
Co34 O59 1.967 . S
Co34 O66 1.920 . S
Co35 O38 1.966 . S
Co35 N44 2.022 . S
Co35 N52 1.993 . S
Co35 O60 1.941 . S
C36 O37 1.258 . S
C36 O38 1.263 . S
O37 Co34 1.970 . S
O37 C36 1.258 . S
O38 Co35 1.966 . S
O38 C36 1.263 . S
C39 O40 1.235 . S
C39 O66 1.289 . S
O40 C39 1.235 . S
C41 C43 1.400 . S
C41 N44 1.351 . S
C41 C46 1.501 . S
C42 C43 1.387 . S
C42 N45 1.341 . S
C43 C41 1.400 . S
C43 C42 1.387 . S
N44 Co35 2.022 . S
N44 C41 1.351 . S
N44 N45 1.365 . S
N45 C42 1.341 . S
N45 N44 1.365 . S
N45 H65 0.862 . S
C46 C41 1.501 . S
C46 H47 0.961 . S
C46 H48 0.961 . S
C46 H49 0.960 . S
H47 C46 0.961 . S
H48 C46 0.961 . S
H49 C46 0.960 . S
C50 N51 1.342 . S
C50 C54 1.401 . S
C50 C55 1.499 . S
N51 Co34 1.989 . S
N51 C50 1.342 . S
N51 N52 1.388 . S
N52 Co35 1.993 . S
N52 N51 1.388 . S
N52 C53 1.346 . S
C53 N52 1.346 . S
C53 C54 1.396 . S
C53 C63 1.510 . S
C54 C50 1.401 . S
C54 C53 1.396 . S
C55 C50 1.499 . S
C55 H56 0.959 . S
C55 H57 0.960 . S
C55 H58 0.961 . S
H56 C55 0.959 . S
H57 C55 0.960 . S
H58 C55 0.961 . S
O59 Co34 1.967 . S
O59 C67 1.258 . S
O60 Co35 1.941 . S
O60 C67 1.266 . S
H61 C63 0.959 . S
H62 C63 0.961 . S
C63 C53 1.510 . S
C63 H61 0.959 . S
C63 H62 0.961 . S
C63 H64 0.960 . S
H64 C63 0.960 . S
H65 N45 0.862 . S
O66 Co34 1.920 . S
O66 C39 1.289 . S
C67 O59 1.258 . S
C67 O60 1.266 . S
Co68 O71 1.970 . S
Co68 N85 1.989 . S
Co68 O93 1.967 . S
Co68 O100 1.920 . S
Co69 O72 1.966 . S
Co69 N78 2.022 . S
Co69 N86 1.993 . S
Co69 O94 1.941 . S
C70 O71 1.258 . S
C70 O72 1.263 . S
O71 Co68 1.970 . S
O71 C70 1.258 . S
O72 Co69 1.966 . S
O72 C70 1.263 . S
C73 O74 1.235 . S
C73 O100 1.289 . S
O74 C73 1.235 . S
C75 C77 1.400 . S
C75 N78 1.351 . S
C75 C80 1.501 . S
C76 C77 1.387 . S
C76 N79 1.341 . S
C77 C75 1.400 . S
C77 C76 1.387 . S
N78 Co69 2.022 . S
N78 C75 1.351 . S
N78 N79 1.365 . S
N79 C76 1.341 . S
N79 N78 1.365 . S
N79 H99 0.862 . S
C80 C75 1.501 . S
C80 H81 0.961 . S
C80 H82 0.961 . S
C80 H83 0.960 . S
H81 C80 0.961 . S
H82 C80 0.961 . S
H83 C80 0.960 . S
C84 N85 1.342 . S
C84 C88 1.401 . S
C84 C89 1.499 . S
N85 Co68 1.989 . S
N85 C84 1.342 . S
N85 N86 1.388 . S
N86 Co69 1.993 . S
N86 N85 1.388 . S
N86 C87 1.346 . S
C87 N86 1.346 . S
C87 C88 1.396 . S
C87 C97 1.510 . S
C88 C84 1.401 . S
C88 C87 1.396 . S
C89 C84 1.499 . S
C89 H90 0.959 . S
C89 H91 0.960 . S
C89 H92 0.961 . S
H90 C89 0.959 . S
H91 C89 0.960 . S
H92 C89 0.961 . S
O93 Co68 1.967 . S
O93 C101 1.258 . S
O94 Co69 1.941 . S
O94 C101 1.266 . S
H95 C97 0.959 . S
H96 C97 0.961 . S
C97 C87 1.510 . S
C97 H95 0.959 . S
C97 H96 0.961 . S
C97 H98 0.960 . S
H98 C97 0.960 . S
H99 N79 0.862 . S
O100 Co68 1.920 . S
O100 C73 1.289 . S
C101 O93 1.258 . S
C101 O94 1.266 . S
Co102 O105 1.970 . S
Co102 N119 1.989 . S
Co102 O127 1.967 . S
Co102 O134 1.920 . S
Co103 O106 1.966 . S
Co103 N112 2.022 . S
Co103 N120 1.993 . S
Co103 O128 1.941 . S
C104 O105 1.258 . S
C104 O106 1.263 . S
O105 Co102 1.970 . S
O105 C104 1.258 . S
O106 Co103 1.966 . S
O106 C104 1.263 . S
C107 O108 1.235 . S
C107 O134 1.289 . S
O108 C107 1.235 . S
C109 C111 1.400 . S
C109 N112 1.351 . S
C109 C114 1.501 . S
C110 C111 1.387 . S
C110 N113 1.341 . S
C111 C109 1.400 . S
C111 C110 1.387 . S
N112 Co103 2.022 . S
N112 C109 1.351 . S
N112 N113 1.365 . S
N113 C110 1.341 . S
N113 N112 1.365 . S
N113 H133 0.862 . S
C114 C109 1.501 . S
C114 H115 0.961 . S
C114 H116 0.961 . S
C114 H117 0.960 . S
H115 C114 0.961 . S
H116 C114 0.961 . S
H117 C114 0.960 . S
C118 N119 1.342 . S
C118 C122 1.401 . S
C118 C123 1.499 . S
N119 Co102 1.989 . S
N119 C118 1.342 . S
N119 N120 1.388 . S
N120 Co103 1.993 . S
N120 N119 1.388 . S
N120 C121 1.346 . S
C121 N120 1.346 . S
C121 C122 1.396 . S
C121 C131 1.510 . S
C122 C118 1.401 . S
C122 C121 1.396 . S
C123 C118 1.499 . S
C123 H124 0.959 . S
C123 H125 0.960 . S
C123 H126 0.961 . S
H124 C123 0.959 . S
H125 C123 0.960 . S
H126 C123 0.961 . S
O127 Co102 1.967 . S
O127 C135 1.258 . S
O128 Co103 1.941 . S
O128 C135 1.266 . S
H129 C131 0.959 . S
H130 C131 0.961 . S
C131 C121 1.510 . S
C131 H129 0.959 . S
C131 H130 0.961 . S
C131 H132 0.960 . S
H132 C131 0.960 . S
H133 N113 0.862 . S
O134 Co102 1.920 . S
O134 C107 1.289 . S
C135 O127 1.258 . S
C135 O128 1.266 . S
Co136 O139 1.970 . S
Co136 N153 1.989 . S
Co136 O161 1.967 . S
Co136 O168 1.920 . S
Co137 O140 1.966 . S
Co137 N146 2.022 . S
Co137 N154 1.993 . S
Co137 O162 1.941 . S
C138 O139 1.258 . S
C138 O140 1.263 . S
O139 Co136 1.970 . S
O139 C138 1.258 . S
O140 Co137 1.966 . S
O140 C138 1.263 . S
C141 O142 1.235 . S
C141 O168 1.289 . S
O142 C141 1.235 . S
C143 C145 1.400 . S
C143 N146 1.351 . S
C143 C148 1.501 . S
C144 C145 1.387 . S
C144 N147 1.341 . S
C145 C143 1.400 . S
C145 C144 1.387 . S
N146 Co137 2.022 . S
N146 C143 1.351 . S
N146 N147 1.365 . S
N147 C144 1.341 . S
N147 N146 1.365 . S
N147 H167 0.862 . S
C148 C143 1.501 . S
C148 H149 0.961 . S
C148 H150 0.961 . S
C148 H151 0.960 . S
H149 C148 0.961 . S
H150 C148 0.961 . S
H151 C148 0.960 . S
C152 N153 1.342 . S
C152 C156 1.401 . S
C152 C157 1.499 . S
N153 Co136 1.989 . S
N153 C152 1.342 . S
N153 N154 1.388 . S
N154 Co137 1.993 . S
N154 N153 1.388 . S
N154 C155 1.346 . S
C155 N154 1.346 . S
C155 C156 1.396 . S
C155 C165 1.510 . S
C156 C152 1.401 . S
C156 C155 1.396 . S
C157 C152 1.499 . S
C157 H158 0.959 . S
C157 H159 0.960 . S
C157 H160 0.961 . S
H158 C157 0.959 . S
H159 C157 0.960 . S
H160 C157 0.961 . S
O161 Co136 1.967 . S
O161 C169 1.258 . S
O162 Co137 1.941 . S
O162 C169 1.266 . S
H163 C165 0.959 . S
H164 C165 0.961 . S
C165 C155 1.510 . S
C165 H163 0.959 . S
C165 H164 0.961 . S
C165 H166 0.960 . S
H166 C165 0.960 . S
H167 N147 0.862 . S
O168 Co136 1.920 . S
O168 C141 1.289 . S
C169 O161 1.258 . S
C169 O162 1.266 . S
Co170 O173 1.970 . S
Co170 N187 1.989 . S
Co170 O195 1.967 . S
Co170 O202 1.920 . S
Co171 O174 1.966 . S
Co171 N180 2.022 . S
Co171 N188 1.993 . S
Co171 O196 1.941 . S
C172 O173 1.258 . S
C172 O174 1.263 . S
O173 Co170 1.970 . S
O173 C172 1.258 . S
O174 Co171 1.966 . S
O174 C172 1.263 . S
C175 O176 1.235 . S
C175 O202 1.289 . S
O176 C175 1.235 . S
C177 C179 1.400 . S
C177 N180 1.351 . S
C177 C182 1.501 . S
C178 C179 1.387 . S
C178 N181 1.341 . S
C179 C177 1.400 . S
C179 C178 1.387 . S
N180 Co171 2.022 . S
N180 C177 1.351 . S
N180 N181 1.365 . S
N181 C178 1.341 . S
N181 N180 1.365 . S
N181 H201 0.862 . S
C182 C177 1.501 . S
C182 H183 0.961 . S
C182 H184 0.961 . S
C182 H185 0.960 . S
H183 C182 0.961 . S
H184 C182 0.961 . S
H185 C182 0.960 . S
C186 N187 1.342 . S
C186 C190 1.401 . S
C186 C191 1.499 . S
N187 Co170 1.989 . S
N187 C186 1.342 . S
N187 N188 1.388 . S
N188 Co171 1.993 . S
N188 N187 1.388 . S
N188 C189 1.346 . S
C189 N188 1.346 . S
C189 C190 1.396 . S
C189 C199 1.510 . S
C190 C186 1.401 . S
C190 C189 1.396 . S
C191 C186 1.499 . S
C191 H192 0.959 . S
C191 H193 0.960 . S
C191 H194 0.961 . S
H192 C191 0.959 . S
H193 C191 0.960 . S
H194 C191 0.961 . S
O195 Co170 1.967 . S
O195 C203 1.258 . S
O196 Co171 1.941 . S
O196 C203 1.266 . S
H197 C199 0.959 . S
H198 C199 0.961 . S
C199 C189 1.510 . S
C199 H197 0.959 . S
C199 H198 0.961 . S
C199 H200 0.960 . S
H200 C199 0.960 . S
H201 N181 0.862 . S
O202 Co170 1.920 . S
O202 C175 1.289 . S
C203 O195 1.258 . S
C203 O196 1.266 . S
Co204 O207 1.970 . S
Co204 N221 1.989 . S
Co204 O229 1.967 . S
Co204 O236 1.920 . S
Co205 O208 1.966 . S
Co205 N214 2.022 . S
Co205 N222 1.993 . S
Co205 O230 1.941 . S
C206 O207 1.258 . S
C206 O208 1.263 . S
O207 Co204 1.970 . S
O207 C206 1.258 . S
O208 Co205 1.966 . S
O208 C206 1.263 . S
C209 O210 1.235 . S
C209 O236 1.289 . S
O210 C209 1.235 . S
C211 C213 1.400 . S
C211 N214 1.351 . S
C211 C216 1.501 . S
C212 C213 1.387 . S
C212 N215 1.341 . S
C213 C211 1.400 . S
C213 C212 1.387 . S
N214 Co205 2.022 . S
N214 C211 1.351 . S
N214 N215 1.365 . S
N215 C212 1.341 . S
N215 N214 1.365 . S
N215 H235 0.862 . S
C216 C211 1.501 . S
C216 H217 0.961 . S
C216 H218 0.961 . S
C216 H219 0.960 . S
H217 C216 0.961 . S
H218 C216 0.961 . S
H219 C216 0.960 . S
C220 N221 1.342 . S
C220 C224 1.401 . S
C220 C225 1.499 . S
N221 Co204 1.989 . S
N221 C220 1.342 . S
N221 N222 1.388 . S
N222 Co205 1.993 . S
N222 N221 1.388 . S
N222 C223 1.346 . S
C223 N222 1.346 . S
C223 C224 1.396 . S
C223 C233 1.510 . S
C224 C220 1.401 . S
C224 C223 1.396 . S
C225 C220 1.499 . S
C225 H226 0.959 . S
C225 H227 0.960 . S
C225 H228 0.961 . S
H226 C225 0.959 . S
H227 C225 0.960 . S
H228 C225 0.961 . S
O229 Co204 1.967 . S
O229 C237 1.258 . S
O230 Co205 1.941 . S
O230 C237 1.266 . S
H231 C233 0.959 . S
H232 C233 0.961 . S
C233 C223 1.510 . S
C233 H231 0.959 . S
C233 H232 0.961 . S
C233 H234 0.960 . S
H234 C233 0.960 . S
H235 N215 0.862 . S
O236 Co204 1.920 . S
O236 C209 1.289 . S
C237 O229 1.258 . S
C237 O230 1.266 . S
Co238 O241 1.970 . S
Co238 N255 1.989 . S
Co238 O263 1.967 . S
Co238 O270 1.920 . S
Co239 O242 1.966 . S
Co239 N248 2.022 . S
Co239 N256 1.993 . S
Co239 O264 1.941 . S
C240 O241 1.258 . S
C240 O242 1.263 . S
O241 Co238 1.970 . S
O241 C240 1.258 . S
O242 Co239 1.966 . S
O242 C240 1.263 . S
C243 O244 1.235 . S
C243 O270 1.289 . S
O244 C243 1.235 . S
C245 C247 1.400 . S
C245 N248 1.351 . S
C245 C250 1.501 . S
C246 C247 1.387 . S
C246 N249 1.341 . S
C247 C245 1.400 . S
C247 C246 1.387 . S
N248 Co239 2.022 . S
N248 C245 1.351 . S
N248 N249 1.365 . S
N249 C246 1.341 . S
N249 N248 1.365 . S
N249 H269 0.862 . S
C250 C245 1.501 . S
C250 H251 0.961 . S
C250 H252 0.961 . S
C250 H253 0.960 . S
H251 C250 0.961 . S
H252 C250 0.961 . S
H253 C250 0.960 . S
C254 N255 1.342 . S
C254 C258 1.401 . S
C254 C259 1.499 . S
N255 Co238 1.989 . S
N255 C254 1.342 . S
N255 N256 1.388 . S
N256 Co239 1.993 . S
N256 N255 1.388 . S
N256 C257 1.346 . S
C257 N256 1.346 . S
C257 C258 1.396 . S
C257 C267 1.510 . S
C258 C254 1.401 . S
C258 C257 1.396 . S
C259 C254 1.499 . S
C259 H260 0.959 . S
C259 H261 0.960 . S
C259 H262 0.961 . S
H260 C259 0.959 . S
H261 C259 0.960 . S
H262 C259 0.961 . S
O263 Co238 1.967 . S
O263 C271 1.258 . S
O264 Co239 1.941 . S
O264 C271 1.266 . S
H265 C267 0.959 . S
H266 C267 0.961 . S
C267 C257 1.510 . S
C267 H265 0.959 . S
C267 H266 0.961 . S
C267 H268 0.960 . S
H268 C267 0.960 . S
H269 N249 0.862 . S
O270 Co238 1.920 . S
O270 C243 1.289 . S
C271 O263 1.258 . S
C271 O264 1.266 . S
Co272 O275 1.970 . S
Co272 N289 1.989 . S
Co272 O297 1.967 . S
Co272 O304 1.920 . S
Co273 O276 1.966 . S
Co273 N282 2.022 . S
Co273 N290 1.993 . S
Co273 O298 1.941 . S
C274 O275 1.258 . S
C274 O276 1.263 . S
O275 Co272 1.970 . S
O275 C274 1.258 . S
O276 Co273 1.966 . S
O276 C274 1.263 . S
C277 O278 1.235 . S
C277 O304 1.289 . S
O278 C277 1.235 . S
C279 C281 1.400 . S
C279 N282 1.351 . S
C279 C284 1.501 . S
C280 C281 1.387 . S
C280 N283 1.341 . S
C281 C279 1.400 . S
C281 C280 1.387 . S
N282 Co273 2.022 . S
N282 C279 1.351 . S
N282 N283 1.365 . S
N283 C280 1.341 . S
N283 N282 1.365 . S
N283 H303 0.862 . S
C284 C279 1.501 . S
C284 H285 0.961 . S
C284 H286 0.961 . S
C284 H287 0.960 . S
H285 C284 0.961 . S
H286 C284 0.961 . S
H287 C284 0.960 . S
C288 N289 1.342 . S
C288 C292 1.401 . S
C288 C293 1.499 . S
N289 Co272 1.989 . S
N289 C288 1.342 . S
N289 N290 1.388 . S
N290 Co273 1.993 . S
N290 N289 1.388 . S
N290 C291 1.346 . S
C291 N290 1.346 . S
C291 C292 1.396 . S
C291 C301 1.510 . S
C292 C288 1.401 . S
C292 C291 1.396 . S
C293 C288 1.499 . S
C293 H294 0.959 . S
C293 H295 0.960 . S
C293 H296 0.961 . S
H294 C293 0.959 . S
H295 C293 0.960 . S
H296 C293 0.961 . S
O297 Co272 1.967 . S
O297 C305 1.258 . S
O298 Co273 1.941 . S
O298 C305 1.266 . S
H299 C301 0.959 . S
H300 C301 0.961 . S
C301 C291 1.510 . S
C301 H299 0.959 . S
C301 H300 0.961 . S
C301 H302 0.960 . S
H302 C301 0.960 . S
H303 N283 0.862 . S
O304 Co272 1.920 . S
O304 C277 1.289 . S
C305 O297 1.258 . S
C305 O298 1.266 . S
Co306 O309 1.970 . S
Co306 N323 1.989 . S
Co306 O331 1.967 . S
Co306 O338 1.920 . S
Co307 O310 1.966 . S
Co307 N316 2.022 . S
Co307 N324 1.993 . S
Co307 O332 1.941 . S
C308 O309 1.258 . S
C308 O310 1.263 . S
O309 Co306 1.970 . S
O309 C308 1.258 . S
O310 Co307 1.966 . S
O310 C308 1.263 . S
C311 O312 1.235 . S
C311 O338 1.289 . S
O312 C311 1.235 . S
C313 C315 1.400 . S
C313 N316 1.351 . S
C313 C318 1.501 . S
C314 C315 1.387 . S
C314 N317 1.341 . S
C315 C313 1.400 . S
C315 C314 1.387 . S
N316 Co307 2.022 . S
N316 C313 1.351 . S
N316 N317 1.365 . S
N317 C314 1.341 . S
N317 N316 1.365 . S
N317 H337 0.862 . S
C318 C313 1.501 . S
C318 H319 0.961 . S
C318 H320 0.961 . S
C318 H321 0.960 . S
H319 C318 0.961 . S
H320 C318 0.961 . S
H321 C318 0.960 . S
C322 N323 1.342 . S
C322 C326 1.401 . S
C322 C327 1.499 . S
N323 Co306 1.989 . S
N323 C322 1.342 . S
N323 N324 1.388 . S
N324 Co307 1.993 . S
N324 N323 1.388 . S
N324 C325 1.346 . S
C325 N324 1.346 . S
C325 C326 1.396 . S
C325 C335 1.510 . S
C326 C322 1.401 . S
C326 C325 1.396 . S
C327 C322 1.499 . S
C327 H328 0.959 . S
C327 H329 0.960 . S
C327 H330 0.961 . S
H328 C327 0.959 . S
H329 C327 0.960 . S
H330 C327 0.961 . S
O331 Co306 1.967 . S
O331 C339 1.258 . S
O332 Co307 1.941 . S
O332 C339 1.266 . S
H333 C335 0.959 . S
H334 C335 0.961 . S
C335 C325 1.510 . S
C335 H333 0.959 . S
C335 H334 0.961 . S
C335 H336 0.960 . S
H336 C335 0.960 . S
H337 N317 0.862 . S
O338 Co306 1.920 . S
O338 C311 1.289 . S
C339 O331 1.258 . S
C339 O332 1.266 . S
Co340 O343 1.970 . S
Co340 N357 1.989 . S
Co340 O365 1.967 . S
Co340 O372 1.920 . S
Co341 O344 1.966 . S
Co341 N350 2.022 . S
Co341 N358 1.993 . S
Co341 O366 1.941 . S
C342 O343 1.258 . S
C342 O344 1.263 . S
O343 Co340 1.970 . S
O343 C342 1.258 . S
O344 Co341 1.966 . S
O344 C342 1.263 . S
C345 O346 1.235 . S
C345 O372 1.289 . S
O346 C345 1.235 . S
C347 C349 1.400 . S
C347 N350 1.351 . S
C347 C352 1.501 . S
C348 C349 1.387 . S
C348 N351 1.341 . S
C349 C347 1.400 . S
C349 C348 1.387 . S
N350 Co341 2.022 . S
N350 C347 1.351 . S
N350 N351 1.365 . S
N351 C348 1.341 . S
N351 N350 1.365 . S
N351 H371 0.862 . S
C352 C347 1.501 . S
C352 H353 0.961 . S
C352 H354 0.961 . S
C352 H355 0.960 . S
H353 C352 0.961 . S
H354 C352 0.961 . S
H355 C352 0.960 . S
C356 N357 1.342 . S
C356 C360 1.401 . S
C356 C361 1.499 . S
N357 Co340 1.989 . S
N357 C356 1.342 . S
N357 N358 1.388 . S
N358 Co341 1.993 . S
N358 N357 1.388 . S
N358 C359 1.346 . S
C359 N358 1.346 . S
C359 C360 1.396 . S
C359 C369 1.510 . S
C360 C356 1.401 . S
C360 C359 1.396 . S
C361 C356 1.499 . S
C361 H362 0.959 . S
C361 H363 0.960 . S
C361 H364 0.961 . S
H362 C361 0.959 . S
H363 C361 0.960 . S
H364 C361 0.961 . S
O365 Co340 1.967 . S
O365 C373 1.258 . S
O366 Co341 1.941 . S
O366 C373 1.266 . S
H367 C369 0.959 . S
H368 C369 0.961 . S
C369 C359 1.510 . S
C369 H367 0.959 . S
C369 H368 0.961 . S
C369 H370 0.960 . S
H370 C369 0.960 . S
H371 N351 0.862 . S
O372 Co340 1.920 . S
O372 C345 1.289 . S
C373 O365 1.258 . S
C373 O366 1.266 . S
Co374 O377 1.970 . S
Co374 N391 1.989 . S
Co374 O399 1.967 . S
Co374 O406 1.920 . S
Co375 O378 1.966 . S
Co375 N384 2.022 . S
Co375 N392 1.993 . S
Co375 O400 1.941 . S
C376 O377 1.258 . S
C376 O378 1.263 . S
O377 Co374 1.970 . S
O377 C376 1.258 . S
O378 Co375 1.966 . S
O378 C376 1.263 . S
C379 O380 1.235 . S
C379 O406 1.289 . S
O380 C379 1.235 . S
C381 C383 1.400 . S
C381 N384 1.351 . S
C381 C386 1.501 . S
C382 C383 1.387 . S
C382 N385 1.341 . S
C383 C381 1.400 . S
C383 C382 1.387 . S
N384 Co375 2.022 . S
N384 C381 1.351 . S
N384 N385 1.365 . S
N385 C382 1.341 . S
N385 N384 1.365 . S
N385 H405 0.862 . S
C386 C381 1.501 . S
C386 H387 0.961 . S
C386 H388 0.961 . S
C386 H389 0.960 . S
H387 C386 0.961 . S
H388 C386 0.961 . S
H389 C386 0.960 . S
C390 N391 1.342 . S
C390 C394 1.401 . S
C390 C395 1.499 . S
N391 Co374 1.989 . S
N391 C390 1.342 . S
N391 N392 1.388 . S
N392 Co375 1.993 . S
N392 N391 1.388 . S
N392 C393 1.346 . S
C393 N392 1.346 . S
C393 C394 1.396 . S
C393 C403 1.510 . S
C394 C390 1.401 . S
C394 C393 1.396 . S
C395 C390 1.499 . S
C395 H396 0.959 . S
C395 H397 0.960 . S
C395 H398 0.961 . S
H396 C395 0.959 . S
H397 C395 0.960 . S
H398 C395 0.961 . S
O399 Co374 1.967 . S
O399 C407 1.258 . S
O400 Co375 1.941 . S
O400 C407 1.266 . S
H401 C403 0.959 . S
H402 C403 0.961 . S
C403 C393 1.510 . S
C403 H401 0.959 . S
C403 H402 0.961 . S
C403 H404 0.960 . S
H404 C403 0.960 . S
H405 N385 0.862 . S
O406 Co374 1.920 . S
O406 C379 1.289 . S
C407 O399 1.258 . S
C407 O400 1.266 . S
Co408 O411 1.970 . S
Co408 N425 1.989 . S
Co408 O433 1.967 . S
Co408 O440 1.920 . S
Co409 O412 1.966 . S
Co409 N418 2.022 . S
Co409 N426 1.993 . S
Co409 O434 1.941 . S
C410 O411 1.258 . S
C410 O412 1.263 . S
O411 Co408 1.970 . S
O411 C410 1.258 . S
O412 Co409 1.966 . S
O412 C410 1.263 . S
C413 O414 1.235 . S
C413 O440 1.289 . S
O414 C413 1.235 . S
C415 C417 1.400 . S
C415 N418 1.351 . S
C415 C420 1.501 . S
C416 C417 1.387 . S
C416 N419 1.341 . S
C417 C415 1.400 . S
C417 C416 1.387 . S
N418 Co409 2.022 . S
N418 C415 1.351 . S
N418 N419 1.365 . S
N419 C416 1.341 . S
N419 N418 1.365 . S
N419 H439 0.862 . S
C420 C415 1.501 . S
C420 H421 0.961 . S
C420 H422 0.961 . S
C420 H423 0.960 . S
H421 C420 0.961 . S
H422 C420 0.961 . S
H423 C420 0.960 . S
C424 N425 1.342 . S
C424 C428 1.401 . S
C424 C429 1.499 . S
N425 Co408 1.989 . S
N425 C424 1.342 . S
N425 N426 1.388 . S
N426 Co409 1.993 . S
N426 N425 1.388 . S
N426 C427 1.346 . S
C427 N426 1.346 . S
C427 C428 1.396 . S
C427 C437 1.510 . S
C428 C424 1.401 . S
C428 C427 1.396 . S
C429 C424 1.499 . S
C429 H430 0.959 . S
C429 H431 0.960 . S
C429 H432 0.961 . S
H430 C429 0.959 . S
H431 C429 0.960 . S
H432 C429 0.961 . S
O433 Co408 1.967 . S
O433 C441 1.258 . S
O434 Co409 1.941 . S
O434 C441 1.266 . S
H435 C437 0.959 . S
H436 C437 0.961 . S
C437 C427 1.510 . S
C437 H435 0.959 . S
C437 H436 0.961 . S
C437 H438 0.960 . S
H438 C437 0.960 . S
H439 N419 0.862 . S
O440 Co408 1.920 . S
O440 C413 1.289 . S
C441 O433 1.258 . S
C441 O434 1.266 . S
Co442 O445 1.970 . S
Co442 N459 1.989 . S
Co442 O467 1.967 . S
Co442 O474 1.920 . S
Co443 O446 1.966 . S
Co443 N452 2.022 . S
Co443 N460 1.993 . S
Co443 O468 1.941 . S
C444 O445 1.258 . S
C444 O446 1.263 . S
O445 Co442 1.970 . S
O445 C444 1.258 . S
O446 Co443 1.966 . S
O446 C444 1.263 . S
C447 O448 1.235 . S
C447 O474 1.289 . S
O448 C447 1.235 . S
C449 C451 1.400 . S
C449 N452 1.351 . S
C449 C454 1.501 . S
C450 C451 1.387 . S
C450 N453 1.341 . S
C451 C449 1.400 . S
C451 C450 1.387 . S
N452 Co443 2.022 . S
N452 C449 1.351 . S
N452 N453 1.365 . S
N453 C450 1.341 . S
N453 N452 1.365 . S
N453 H473 0.862 . S
C454 C449 1.501 . S
C454 H455 0.961 . S
C454 H456 0.961 . S
C454 H457 0.960 . S
H455 C454 0.961 . S
H456 C454 0.961 . S
H457 C454 0.960 . S
C458 N459 1.342 . S
C458 C462 1.401 . S
C458 C463 1.499 . S
N459 Co442 1.989 . S
N459 C458 1.342 . S
N459 N460 1.388 . S
N460 Co443 1.993 . S
N460 N459 1.388 . S
N460 C461 1.346 . S
C461 N460 1.346 . S
C461 C462 1.396 . S
C461 C471 1.510 . S
C462 C458 1.401 . S
C462 C461 1.396 . S
C463 C458 1.499 . S
C463 H464 0.959 . S
C463 H465 0.960 . S
C463 H466 0.961 . S
H464 C463 0.959 . S
H465 C463 0.960 . S
H466 C463 0.961 . S
O467 Co442 1.967 . S
O467 C475 1.258 . S
O468 Co443 1.941 . S
O468 C475 1.266 . S
H469 C471 0.959 . S
H470 C471 0.961 . S
C471 C461 1.510 . S
C471 H469 0.959 . S
C471 H470 0.961 . S
C471 H472 0.960 . S
H472 C471 0.960 . S
H473 N453 0.862 . S
O474 Co442 1.920 . S
O474 C447 1.289 . S
C475 O467 1.258 . S
C475 O468 1.266 . S
Co476 O479 1.970 . S
Co476 N493 1.989 . S
Co476 O501 1.967 . S
Co476 O508 1.920 . S
Co477 O480 1.966 . S
Co477 N486 2.022 . S
Co477 N494 1.993 . S
Co477 O502 1.941 . S
C478 O479 1.258 . S
C478 O480 1.263 . S
O479 Co476 1.970 . S
O479 C478 1.258 . S
O480 Co477 1.966 . S
O480 C478 1.263 . S
C481 O482 1.235 . S
C481 O508 1.289 . S
O482 C481 1.235 . S
C483 C485 1.400 . S
C483 N486 1.351 . S
C483 C488 1.501 . S
C484 C485 1.387 . S
C484 N487 1.341 . S
C485 C483 1.400 . S
C485 C484 1.387 . S
N486 Co477 2.022 . S
N486 C483 1.351 . S
N486 N487 1.365 . S
N487 C484 1.341 . S
N487 N486 1.365 . S
N487 H507 0.862 . S
C488 C483 1.501 . S
C488 H489 0.961 . S
C488 H490 0.961 . S
C488 H491 0.960 . S
H489 C488 0.961 . S
H490 C488 0.961 . S
H491 C488 0.960 . S
C492 N493 1.342 . S
C492 C496 1.401 . S
C492 C497 1.499 . S
N493 Co476 1.989 . S
N493 C492 1.342 . S
N493 N494 1.388 . S
N494 Co477 1.993 . S
N494 N493 1.388 . S
N494 C495 1.346 . S
C495 N494 1.346 . S
C495 C496 1.396 . S
C495 C505 1.510 . S
C496 C492 1.401 . S
C496 C495 1.396 . S
C497 C492 1.499 . S
C497 H498 0.959 . S
C497 H499 0.960 . S
C497 H500 0.961 . S
H498 C497 0.959 . S
H499 C497 0.960 . S
H500 C497 0.961 . S
O501 Co476 1.967 . S
O501 C509 1.258 . S
O502 Co477 1.941 . S
O502 C509 1.266 . S
H503 C505 0.959 . S
H504 C505 0.961 . S
C505 C495 1.510 . S
C505 H503 0.959 . S
C505 H504 0.961 . S
C505 H506 0.960 . S
H506 C505 0.960 . S
H507 N487 0.862 . S
O508 Co476 1.920 . S
O508 C481 1.289 . S
C509 O501 1.258 . S
C509 O502 1.266 . S
Co510 O513 1.970 . S
Co510 N527 1.989 . S
Co510 O535 1.967 . S
Co510 O542 1.920 . S
Co511 O514 1.966 . S
Co511 N520 2.022 . S
Co511 N528 1.993 . S
Co511 O536 1.941 . S
C512 O513 1.258 . S
C512 O514 1.263 . S
O513 Co510 1.970 . S
O513 C512 1.258 . S
O514 Co511 1.966 . S
O514 C512 1.263 . S
C515 O516 1.235 . S
C515 O542 1.289 . S
O516 C515 1.235 . S
C517 C519 1.400 . S
C517 N520 1.351 . S
C517 C522 1.501 . S
C518 C519 1.387 . S
C518 N521 1.341 . S
C519 C517 1.400 . S
C519 C518 1.387 . S
N520 Co511 2.022 . S
N520 C517 1.351 . S
N520 N521 1.365 . S
N521 C518 1.341 . S
N521 N520 1.365 . S
N521 H541 0.862 . S
C522 C517 1.501 . S
C522 H523 0.961 . S
C522 H524 0.961 . S
C522 H525 0.960 . S
H523 C522 0.961 . S
H524 C522 0.961 . S
H525 C522 0.960 . S
C526 N527 1.342 . S
C526 C530 1.401 . S
C526 C531 1.499 . S
N527 Co510 1.989 . S
N527 C526 1.342 . S
N527 N528 1.388 . S
N528 Co511 1.993 . S
N528 N527 1.388 . S
N528 C529 1.346 . S
C529 N528 1.346 . S
C529 C530 1.396 . S
C529 C539 1.510 . S
C530 C526 1.401 . S
C530 C529 1.396 . S
C531 C526 1.499 . S
C531 H532 0.959 . S
C531 H533 0.960 . S
C531 H534 0.961 . S
H532 C531 0.959 . S
H533 C531 0.960 . S
H534 C531 0.961 . S
O535 Co510 1.967 . S
O535 C543 1.258 . S
O536 Co511 1.941 . S
O536 C543 1.266 . S
H537 C539 0.959 . S
H538 C539 0.961 . S
C539 C529 1.510 . S
C539 H537 0.959 . S
C539 H538 0.961 . S
C539 H540 0.960 . S
H540 C539 0.960 . S
H541 N521 0.862 . S
O542 Co510 1.920 . S
O542 C515 1.289 . S
C543 O535 1.258 . S
C543 O536 1.266 . S
Co544 O547 1.970 . S
Co544 N561 1.989 . S
Co544 O569 1.967 . S
Co544 O576 1.920 . S
Co545 O548 1.966 . S
Co545 N554 2.022 . S
Co545 N562 1.993 . S
Co545 O570 1.941 . S
C546 O547 1.258 . S
C546 O548 1.263 . S
O547 Co544 1.970 . S
O547 C546 1.258 . S
O548 Co545 1.966 . S
O548 C546 1.263 . S
C549 O550 1.235 . S
C549 O576 1.289 . S
O550 C549 1.235 . S
C551 C553 1.400 . S
C551 N554 1.351 . S
C551 C556 1.501 . S
C552 C553 1.387 . S
C552 N555 1.341 . S
C553 C551 1.400 . S
C553 C552 1.387 . S
N554 Co545 2.022 . S
N554 C551 1.351 . S
N554 N555 1.365 . S
N555 C552 1.341 . S
N555 N554 1.365 . S
N555 H575 0.862 . S
C556 C551 1.501 . S
C556 H557 0.961 . S
C556 H558 0.961 . S
C556 H559 0.960 . S
H557 C556 0.961 . S
H558 C556 0.961 . S
H559 C556 0.960 . S
C560 N561 1.342 . S
C560 C564 1.401 . S
C560 C565 1.499 . S
N561 Co544 1.989 . S
N561 C560 1.342 . S
N561 N562 1.388 . S
N562 Co545 1.993 . S
N562 N561 1.388 . S
N562 C563 1.346 . S
C563 N562 1.346 . S
C563 C564 1.396 . S
C563 C573 1.510 . S
C564 C560 1.401 . S
C564 C563 1.396 . S
C565 C560 1.499 . S
C565 H566 0.959 . S
C565 H567 0.960 . S
C565 H568 0.961 . S
H566 C565 0.959 . S
H567 C565 0.960 . S
H568 C565 0.961 . S
O569 Co544 1.967 . S
O569 C577 1.258 . S
O570 Co545 1.941 . S
O570 C577 1.266 . S
H571 C573 0.959 . S
H572 C573 0.961 . S
C573 C563 1.510 . S
C573 H571 0.959 . S
C573 H572 0.961 . S
C573 H574 0.960 . S
H574 C573 0.960 . S
H575 N555 0.862 . S
O576 Co544 1.920 . S
O576 C549 1.289 . S
C577 O569 1.258 . S
C577 O570 1.266 . S
Co578 O581 1.970 . S
Co578 N595 1.989 . S
Co578 O603 1.967 . S
Co578 O610 1.920 . S
Co579 O582 1.966 . S
Co579 N588 2.022 . S
Co579 N596 1.993 . S
Co579 O604 1.941 . S
C580 O581 1.258 . S
C580 O582 1.263 . S
O581 Co578 1.970 . S
O581 C580 1.258 . S
O582 Co579 1.966 . S
O582 C580 1.263 . S
C583 O584 1.235 . S
C583 O610 1.289 . S
O584 C583 1.235 . S
C585 C587 1.400 . S
C585 N588 1.351 . S
C585 C590 1.501 . S
C586 C587 1.387 . S
C586 N589 1.341 . S
C587 C585 1.400 . S
C587 C586 1.387 . S
N588 Co579 2.022 . S
N588 C585 1.351 . S
N588 N589 1.365 . S
N589 C586 1.341 . S
N589 N588 1.365 . S
N589 H609 0.862 . S
C590 C585 1.501 . S
C590 H591 0.961 . S
C590 H592 0.961 . S
C590 H593 0.960 . S
H591 C590 0.961 . S
H592 C590 0.961 . S
H593 C590 0.960 . S
C594 N595 1.342 . S
C594 C598 1.401 . S
C594 C599 1.499 . S
N595 Co578 1.989 . S
N595 C594 1.342 . S
N595 N596 1.388 . S
N596 Co579 1.993 . S
N596 N595 1.388 . S
N596 C597 1.346 . S
C597 N596 1.346 . S
C597 C598 1.396 . S
C597 C607 1.510 . S
C598 C594 1.401 . S
C598 C597 1.396 . S
C599 C594 1.499 . S
C599 H600 0.959 . S
C599 H601 0.960 . S
C599 H602 0.961 . S
H600 C599 0.959 . S
H601 C599 0.960 . S
H602 C599 0.961 . S
O603 Co578 1.967 . S
O603 C611 1.258 . S
O604 Co579 1.941 . S
O604 C611 1.266 . S
H605 C607 0.959 . S
H606 C607 0.961 . S
C607 C597 1.510 . S
C607 H605 0.959 . S
C607 H606 0.961 . S
C607 H608 0.960 . S
H608 C607 0.960 . S
H609 N589 0.862 . S
O610 Co578 1.920 . S
O610 C583 1.289 . S
C611 O603 1.258 . S
C611 O604 1.266 . S
Co612 O615 1.970 . S
Co612 N629 1.989 . S
Co612 O637 1.967 . S
Co612 O644 1.920 . S
Co613 O616 1.966 . S
Co613 N622 2.022 . S
Co613 N630 1.993 . S
Co613 O638 1.941 . S
C614 O615 1.258 . S
C614 O616 1.263 . S
O615 Co612 1.970 . S
O615 C614 1.258 . S
O616 Co613 1.966 . S
O616 C614 1.263 . S
C617 O618 1.235 . S
C617 O644 1.289 . S
O618 C617 1.235 . S
C619 C621 1.400 . S
C619 N622 1.351 . S
C619 C624 1.501 . S
C620 C621 1.387 . S
C620 N623 1.341 . S
C621 C619 1.400 . S
C621 C620 1.387 . S
N622 Co613 2.022 . S
N622 C619 1.351 . S
N622 N623 1.365 . S
N623 C620 1.341 . S
N623 N622 1.365 . S
N623 H643 0.862 . S
C624 C619 1.501 . S
C624 H625 0.961 . S
C624 H626 0.961 . S
C624 H627 0.960 . S
H625 C624 0.961 . S
H626 C624 0.961 . S
H627 C624 0.960 . S
C628 N629 1.342 . S
C628 C632 1.401 . S
C628 C633 1.499 . S
N629 Co612 1.989 . S
N629 C628 1.342 . S
N629 N630 1.388 . S
N630 Co613 1.993 . S
N630 N629 1.388 . S
N630 C631 1.346 . S
C631 N630 1.346 . S
C631 C632 1.396 . S
C631 C641 1.510 . S
C632 C628 1.401 . S
C632 C631 1.396 . S
C633 C628 1.499 . S
C633 H634 0.959 . S
C633 H635 0.960 . S
C633 H636 0.961 . S
H634 C633 0.959 . S
H635 C633 0.960 . S
H636 C633 0.961 . S
O637 Co612 1.967 . S
O637 C645 1.258 . S
O638 Co613 1.941 . S
O638 C645 1.266 . S
H639 C641 0.959 . S
H640 C641 0.961 . S
C641 C631 1.510 . S
C641 H639 0.959 . S
C641 H640 0.961 . S
C641 H642 0.960 . S
H642 C641 0.960 . S
H643 N623 0.862 . S
O644 Co612 1.920 . S
O644 C617 1.289 . S
C645 O637 1.258 . S
C645 O638 1.266 . S
Co646 O649 1.970 . S
Co646 N663 1.989 . S
Co646 O671 1.967 . S
Co646 O678 1.920 . S
Co647 O650 1.966 . S
Co647 N656 2.022 . S
Co647 N664 1.993 . S
Co647 O672 1.941 . S
C648 O649 1.258 . S
C648 O650 1.263 . S
O649 Co646 1.970 . S
O649 C648 1.258 . S
O650 Co647 1.966 . S
O650 C648 1.263 . S
C651 O652 1.235 . S
C651 O678 1.289 . S
O652 C651 1.235 . S
C653 C655 1.400 . S
C653 N656 1.351 . S
C653 C658 1.501 . S
C654 C655 1.387 . S
C654 N657 1.341 . S
C655 C653 1.400 . S
C655 C654 1.387 . S
N656 Co647 2.022 . S
N656 C653 1.351 . S
N656 N657 1.365 . S
N657 C654 1.341 . S
N657 N656 1.365 . S
N657 H677 0.862 . S
C658 C653 1.501 . S
C658 H659 0.961 . S
C658 H660 0.961 . S
C658 H661 0.960 . S
H659 C658 0.961 . S
H660 C658 0.961 . S
H661 C658 0.960 . S
C662 N663 1.342 . S
C662 C666 1.401 . S
C662 C667 1.499 . S
N663 Co646 1.989 . S
N663 C662 1.342 . S
N663 N664 1.388 . S
N664 Co647 1.993 . S
N664 N663 1.388 . S
N664 C665 1.346 . S
C665 N664 1.346 . S
C665 C666 1.396 . S
C665 C675 1.510 . S
C666 C662 1.401 . S
C666 C665 1.396 . S
C667 C662 1.499 . S
C667 H668 0.959 . S
C667 H669 0.960 . S
C667 H670 0.961 . S
H668 C667 0.959 . S
H669 C667 0.960 . S
H670 C667 0.961 . S
O671 Co646 1.967 . S
O671 C679 1.258 . S
O672 Co647 1.941 . S
O672 C679 1.266 . S
H673 C675 0.959 . S
H674 C675 0.961 . S
C675 C665 1.510 . S
C675 H673 0.959 . S
C675 H674 0.961 . S
C675 H676 0.960 . S
H676 C675 0.960 . S
H677 N657 0.862 . S
O678 Co646 1.920 . S
O678 C651 1.289 . S
C679 O671 1.258 . S
C679 O672 1.266 . S
Co680 O683 1.970 . S
Co680 N697 1.989 . S
Co680 O705 1.967 . S
Co680 O712 1.920 . S
Co681 O684 1.966 . S
Co681 N690 2.022 . S
Co681 N698 1.993 . S
Co681 O706 1.941 . S
C682 O683 1.258 . S
C682 O684 1.263 . S
O683 Co680 1.970 . S
O683 C682 1.258 . S
O684 Co681 1.966 . S
O684 C682 1.263 . S
C685 O686 1.235 . S
C685 O712 1.289 . S
O686 C685 1.235 . S
C687 C689 1.400 . S
C687 N690 1.351 . S
C687 C692 1.501 . S
C688 C689 1.387 . S
C688 N691 1.341 . S
C689 C687 1.400 . S
C689 C688 1.387 . S
N690 Co681 2.022 . S
N690 C687 1.351 . S
N690 N691 1.365 . S
N691 C688 1.341 . S
N691 N690 1.365 . S
N691 H711 0.862 . S
C692 C687 1.501 . S
C692 H693 0.961 . S
C692 H694 0.961 . S
C692 H695 0.960 . S
H693 C692 0.961 . S
H694 C692 0.961 . S
H695 C692 0.960 . S
C696 N697 1.342 . S
C696 C700 1.401 . S
C696 C701 1.499 . S
N697 Co680 1.989 . S
N697 C696 1.342 . S
N697 N698 1.388 . S
N698 Co681 1.993 . S
N698 N697 1.388 . S
N698 C699 1.346 . S
C699 N698 1.346 . S
C699 C700 1.396 . S
C699 C709 1.510 . S
C700 C696 1.401 . S
C700 C699 1.396 . S
C701 C696 1.499 . S
C701 H702 0.959 . S
C701 H703 0.960 . S
C701 H704 0.961 . S
H702 C701 0.959 . S
H703 C701 0.960 . S
H704 C701 0.961 . S
O705 Co680 1.967 . S
O705 C713 1.258 . S
O706 Co681 1.941 . S
O706 C713 1.266 . S
H707 C709 0.959 . S
H708 C709 0.961 . S
C709 C699 1.510 . S
C709 H707 0.959 . S
C709 H708 0.961 . S
C709 H710 0.960 . S
H710 C709 0.960 . S
H711 N691 0.862 . S
O712 Co680 1.920 . S
O712 C685 1.289 . S
C713 O705 1.258 . S
C713 O706 1.266 . S
Co714 O717 1.970 . S
Co714 N731 1.989 . S
Co714 O739 1.967 . S
Co714 O746 1.920 . S
Co715 O718 1.966 . S
Co715 N724 2.022 . S
Co715 N732 1.993 . S
Co715 O740 1.941 . S
C716 O717 1.258 . S
C716 O718 1.263 . S
O717 Co714 1.970 . S
O717 C716 1.258 . S
O718 Co715 1.966 . S
O718 C716 1.263 . S
C719 O720 1.235 . S
C719 O746 1.289 . S
O720 C719 1.235 . S
C721 C723 1.400 . S
C721 N724 1.351 . S
C721 C726 1.501 . S
C722 C723 1.387 . S
C722 N725 1.341 . S
C723 C721 1.400 . S
C723 C722 1.387 . S
N724 Co715 2.022 . S
N724 C721 1.351 . S
N724 N725 1.365 . S
N725 C722 1.341 . S
N725 N724 1.365 . S
N725 H745 0.862 . S
C726 C721 1.501 . S
C726 H727 0.961 . S
C726 H728 0.961 . S
C726 H729 0.960 . S
H727 C726 0.961 . S
H728 C726 0.961 . S
H729 C726 0.960 . S
C730 N731 1.342 . S
C730 C734 1.401 . S
C730 C735 1.499 . S
N731 Co714 1.989 . S
N731 C730 1.342 . S
N731 N732 1.388 . S
N732 Co715 1.993 . S
N732 N731 1.388 . S
N732 C733 1.346 . S
C733 N732 1.346 . S
C733 C734 1.396 . S
C733 C743 1.510 . S
C734 C730 1.401 . S
C734 C733 1.396 . S
C735 C730 1.499 . S
C735 H736 0.959 . S
C735 H737 0.960 . S
C735 H738 0.961 . S
H736 C735 0.959 . S
H737 C735 0.960 . S
H738 C735 0.961 . S
O739 Co714 1.967 . S
O739 C747 1.258 . S
O740 Co715 1.941 . S
O740 C747 1.266 . S
H741 C743 0.959 . S
H742 C743 0.961 . S
C743 C733 1.510 . S
C743 H741 0.959 . S
C743 H742 0.961 . S
C743 H744 0.960 . S
H744 C743 0.960 . S
H745 N725 0.862 . S
O746 Co714 1.920 . S
O746 C719 1.289 . S
C747 O739 1.258 . S
C747 O740 1.266 . S
Co748 O751 1.970 . S
Co748 N765 1.989 . S
Co748 O773 1.967 . S
Co748 O780 1.920 . S
Co749 O752 1.966 . S
Co749 N758 2.022 . S
Co749 N766 1.993 . S
Co749 O774 1.941 . S
C750 O751 1.258 . S
C750 O752 1.263 . S
O751 Co748 1.970 . S
O751 C750 1.258 . S
O752 Co749 1.966 . S
O752 C750 1.263 . S
C753 O754 1.235 . S
C753 O780 1.289 . S
O754 C753 1.235 . S
C755 C757 1.400 . S
C755 N758 1.351 . S
C755 C760 1.501 . S
C756 C757 1.387 . S
C756 N759 1.341 . S
C757 C755 1.400 . S
C757 C756 1.387 . S
N758 Co749 2.022 . S
N758 C755 1.351 . S
N758 N759 1.365 . S
N759 C756 1.341 . S
N759 N758 1.365 . S
N759 H779 0.862 . S
C760 C755 1.501 . S
C760 H761 0.961 . S
C760 H762 0.961 . S
C760 H763 0.960 . S
H761 C760 0.961 . S
H762 C760 0.961 . S
H763 C760 0.960 . S
C764 N765 1.342 . S
C764 C768 1.401 . S
C764 C769 1.499 . S
N765 Co748 1.989 . S
N765 C764 1.342 . S
N765 N766 1.388 . S
N766 Co749 1.993 . S
N766 N765 1.388 . S
N766 C767 1.346 . S
C767 N766 1.346 . S
C767 C768 1.396 . S
C767 C777 1.510 . S
C768 C764 1.401 . S
C768 C767 1.396 . S
C769 C764 1.499 . S
C769 H770 0.959 . S
C769 H771 0.960 . S
C769 H772 0.961 . S
H770 C769 0.959 . S
H771 C769 0.960 . S
H772 C769 0.961 . S
O773 Co748 1.967 . S
O773 C781 1.258 . S
O774 Co749 1.941 . S
O774 C781 1.266 . S
H775 C777 0.959 . S
H776 C777 0.961 . S
C777 C767 1.510 . S
C777 H775 0.959 . S
C777 H776 0.961 . S
C777 H778 0.960 . S
H778 C777 0.960 . S
H779 N759 0.862 . S
O780 Co748 1.920 . S
O780 C753 1.289 . S
C781 O773 1.258 . S
C781 O774 1.266 . S
Co782 O785 1.970 . S
Co782 N799 1.989 . S
Co782 O807 1.967 . S
Co782 O814 1.920 . S
Co783 O786 1.966 . S
Co783 N792 2.022 . S
Co783 N800 1.993 . S
Co783 O808 1.941 . S
C784 O785 1.258 . S
C784 O786 1.263 . S
O785 Co782 1.970 . S
O785 C784 1.258 . S
O786 Co783 1.966 . S
O786 C784 1.263 . S
C787 O788 1.235 . S
C787 O814 1.289 . S
O788 C787 1.235 . S
C789 C791 1.400 . S
C789 N792 1.351 . S
C789 C794 1.501 . S
C790 C791 1.387 . S
C790 N793 1.341 . S
C791 C789 1.400 . S
C791 C790 1.387 . S
N792 Co783 2.022 . S
N792 C789 1.351 . S
N792 N793 1.365 . S
N793 C790 1.341 . S
N793 N792 1.365 . S
N793 H813 0.862 . S
C794 C789 1.501 . S
C794 H795 0.961 . S
C794 H796 0.961 . S
C794 H797 0.960 . S
H795 C794 0.961 . S
H796 C794 0.961 . S
H797 C794 0.960 . S
C798 N799 1.342 . S
C798 C802 1.401 . S
C798 C803 1.499 . S
N799 Co782 1.989 . S
N799 C798 1.342 . S
N799 N800 1.388 . S
N800 Co783 1.993 . S
N800 N799 1.388 . S
N800 C801 1.346 . S
C801 N800 1.346 . S
C801 C802 1.396 . S
C801 C811 1.510 . S
C802 C798 1.401 . S
C802 C801 1.396 . S
C803 C798 1.499 . S
C803 H804 0.959 . S
C803 H805 0.960 . S
C803 H806 0.961 . S
H804 C803 0.959 . S
H805 C803 0.960 . S
H806 C803 0.961 . S
O807 Co782 1.967 . S
O807 C815 1.258 . S
O808 Co783 1.941 . S
O808 C815 1.266 . S
H809 C811 0.959 . S
H810 C811 0.961 . S
C811 C801 1.510 . S
C811 H809 0.959 . S
C811 H810 0.961 . S
C811 H812 0.960 . S
H812 C811 0.960 . S
H813 N793 0.862 . S
O814 Co782 1.920 . S
O814 C787 1.289 . S
C815 O807 1.258 . S
C815 O808 1.266 . S
Co816 O819 1.970 . S
Co816 N833 1.989 . S
Co816 O841 1.967 . S
Co816 O848 1.920 . S
Co817 O820 1.966 . S
Co817 N826 2.022 . S
Co817 N834 1.993 . S
Co817 O842 1.941 . S
C818 O819 1.258 . S
C818 O820 1.263 . S
O819 Co816 1.970 . S
O819 C818 1.258 . S
O820 Co817 1.966 . S
O820 C818 1.263 . S
C821 O822 1.235 . S
C821 O848 1.289 . S
O822 C821 1.235 . S
C823 C825 1.400 . S
C823 N826 1.351 . S
C823 C828 1.501 . S
C824 C825 1.387 . S
C824 N827 1.341 . S
C825 C823 1.400 . S
C825 C824 1.387 . S
N826 Co817 2.022 . S
N826 C823 1.351 . S
N826 N827 1.365 . S
N827 C824 1.341 . S
N827 N826 1.365 . S
N827 H847 0.862 . S
C828 C823 1.501 . S
C828 H829 0.961 . S
C828 H830 0.961 . S
C828 H831 0.960 . S
H829 C828 0.961 . S
H830 C828 0.961 . S
H831 C828 0.960 . S
C832 N833 1.342 . S
C832 C836 1.401 . S
C832 C837 1.499 . S
N833 Co816 1.989 . S
N833 C832 1.342 . S
N833 N834 1.388 . S
N834 Co817 1.993 . S
N834 N833 1.388 . S
N834 C835 1.346 . S
C835 N834 1.346 . S
C835 C836 1.396 . S
C835 C845 1.510 . S
C836 C832 1.401 . S
C836 C835 1.396 . S
C837 C832 1.499 . S
C837 H838 0.959 . S
C837 H839 0.960 . S
C837 H840 0.961 . S
H838 C837 0.959 . S
H839 C837 0.960 . S
H840 C837 0.961 . S
O841 Co816 1.967 . S
O841 C849 1.258 . S
O842 Co817 1.941 . S
O842 C849 1.266 . S
H843 C845 0.959 . S
H844 C845 0.961 . S
C845 C835 1.510 . S
C845 H843 0.959 . S
C845 H844 0.961 . S
C845 H846 0.960 . S
H846 C845 0.960 . S
H847 N827 0.862 . S
O848 Co816 1.920 . S
O848 C821 1.289 . S
C849 O841 1.258 . S
C849 O842 1.266 . S
Co850 O853 1.970 . S
Co850 N867 1.989 . S
Co850 O875 1.967 . S
Co850 O882 1.920 . S
Co851 O854 1.966 . S
Co851 N860 2.022 . S
Co851 N868 1.993 . S
Co851 O876 1.941 . S
C852 O853 1.258 . S
C852 O854 1.263 . S
O853 Co850 1.970 . S
O853 C852 1.258 . S
O854 Co851 1.966 . S
O854 C852 1.263 . S
C855 O856 1.235 . S
C855 O882 1.289 . S
O856 C855 1.235 . S
C857 C859 1.400 . S
C857 N860 1.351 . S
C857 C862 1.501 . S
C858 C859 1.387 . S
C858 N861 1.341 . S
C859 C857 1.400 . S
C859 C858 1.387 . S
N860 Co851 2.022 . S
N860 C857 1.351 . S
N860 N861 1.365 . S
N861 C858 1.341 . S
N861 N860 1.365 . S
N861 H881 0.862 . S
C862 C857 1.501 . S
C862 H863 0.961 . S
C862 H864 0.961 . S
C862 H865 0.960 . S
H863 C862 0.961 . S
H864 C862 0.961 . S
H865 C862 0.960 . S
C866 N867 1.342 . S
C866 C870 1.401 . S
C866 C871 1.499 . S
N867 Co850 1.989 . S
N867 C866 1.342 . S
N867 N868 1.388 . S
N868 Co851 1.993 . S
N868 N867 1.388 . S
N868 C869 1.346 . S
C869 N868 1.346 . S
C869 C870 1.396 . S
C869 C879 1.510 . S
C870 C866 1.401 . S
C870 C869 1.396 . S
C871 C866 1.499 . S
C871 H872 0.959 . S
C871 H873 0.960 . S
C871 H874 0.961 . S
H872 C871 0.959 . S
H873 C871 0.960 . S
H874 C871 0.961 . S
O875 Co850 1.967 . S
O875 C883 1.258 . S
O876 Co851 1.941 . S
O876 C883 1.266 . S
H877 C879 0.959 . S
H878 C879 0.961 . S
C879 C869 1.510 . S
C879 H877 0.959 . S
C879 H878 0.961 . S
C879 H880 0.960 . S
H880 C879 0.960 . S
H881 N861 0.862 . S
O882 Co850 1.920 . S
O882 C855 1.289 . S
C883 O875 1.258 . S
C883 O876 1.266 . S
Co884 O887 1.970 . S
Co884 N901 1.989 . S
Co884 O909 1.967 . S
Co884 O916 1.920 . S
Co885 O888 1.966 . S
Co885 N894 2.022 . S
Co885 N902 1.993 . S
Co885 O910 1.941 . S
C886 O887 1.258 . S
C886 O888 1.263 . S
O887 Co884 1.970 . S
O887 C886 1.258 . S
O888 Co885 1.966 . S
O888 C886 1.263 . S
C889 O890 1.235 . S
C889 O916 1.289 . S
O890 C889 1.235 . S
C891 C893 1.400 . S
C891 N894 1.351 . S
C891 C896 1.501 . S
C892 C893 1.387 . S
C892 N895 1.341 . S
C893 C891 1.400 . S
C893 C892 1.387 . S
N894 Co885 2.022 . S
N894 C891 1.351 . S
N894 N895 1.365 . S
N895 C892 1.341 . S
N895 N894 1.365 . S
N895 H915 0.862 . S
C896 C891 1.501 . S
C896 H897 0.961 . S
C896 H898 0.961 . S
C896 H899 0.960 . S
H897 C896 0.961 . S
H898 C896 0.961 . S
H899 C896 0.960 . S
C900 N901 1.342 . S
C900 C904 1.401 . S
C900 C905 1.499 . S
N901 Co884 1.989 . S
N901 C900 1.342 . S
N901 N902 1.388 . S
N902 Co885 1.993 . S
N902 N901 1.388 . S
N902 C903 1.346 . S
C903 N902 1.346 . S
C903 C904 1.396 . S
C903 C913 1.510 . S
C904 C900 1.401 . S
C904 C903 1.396 . S
C905 C900 1.499 . S
C905 H906 0.959 . S
C905 H907 0.960 . S
C905 H908 0.961 . S
H906 C905 0.959 . S
H907 C905 0.960 . S
H908 C905 0.961 . S
O909 Co884 1.967 . S
O909 C917 1.258 . S
O910 Co885 1.941 . S
O910 C917 1.266 . S
H911 C913 0.959 . S
H912 C913 0.961 . S
C913 C903 1.510 . S
C913 H911 0.959 . S
C913 H912 0.961 . S
C913 H914 0.960 . S
H914 C913 0.960 . S
H915 N895 0.862 . S
O916 Co884 1.920 . S
O916 C889 1.289 . S
C917 O909 1.258 . S
C917 O910 1.266 . S
Co918 O921 1.970 . S
Co918 N935 1.989 . S
Co918 O943 1.967 . S
Co918 O950 1.920 . S
Co919 O922 1.966 . S
Co919 N928 2.022 . S
Co919 N936 1.993 . S
Co919 O944 1.941 . S
C920 O921 1.258 . S
C920 O922 1.263 . S
O921 Co918 1.970 . S
O921 C920 1.258 . S
O922 Co919 1.966 . S
O922 C920 1.263 . S
C923 O924 1.235 . S
C923 O950 1.289 . S
O924 C923 1.235 . S
C925 C927 1.400 . S
C925 N928 1.351 . S
C925 C930 1.501 . S
C926 C927 1.387 . S
C926 N929 1.341 . S
C927 C925 1.400 . S
C927 C926 1.387 . S
N928 Co919 2.022 . S
N928 C925 1.351 . S
N928 N929 1.365 . S
N929 C926 1.341 . S
N929 N928 1.365 . S
N929 H949 0.862 . S
C930 C925 1.501 . S
C930 H931 0.961 . S
C930 H932 0.961 . S
C930 H933 0.960 . S
H931 C930 0.961 . S
H932 C930 0.961 . S
H933 C930 0.960 . S
C934 N935 1.342 . S
C934 C938 1.401 . S
C934 C939 1.499 . S
N935 Co918 1.989 . S
N935 C934 1.342 . S
N935 N936 1.388 . S
N936 Co919 1.993 . S
N936 N935 1.388 . S
N936 C937 1.346 . S
C937 N936 1.346 . S
C937 C938 1.396 . S
C937 C947 1.510 . S
C938 C934 1.401 . S
C938 C937 1.396 . S
C939 C934 1.499 . S
C939 H940 0.959 . S
C939 H941 0.960 . S
C939 H942 0.961 . S
H940 C939 0.959 . S
H941 C939 0.960 . S
H942 C939 0.961 . S
O943 Co918 1.967 . S
O943 C951 1.258 . S
O944 Co919 1.941 . S
O944 C951 1.266 . S
H945 C947 0.959 . S
H946 C947 0.961 . S
C947 C937 1.510 . S
C947 H945 0.959 . S
C947 H946 0.961 . S
C947 H948 0.960 . S
H948 C947 0.960 . S
H949 N929 0.862 . S
O950 Co918 1.920 . S
O950 C923 1.289 . S
C951 O943 1.258 . S
C951 O944 1.266 . S
Co952 O955 1.970 . S
Co952 N969 1.989 . S
Co952 O977 1.967 . S
Co952 O984 1.920 . S
Co953 O956 1.966 . S
Co953 N962 2.022 . S
Co953 N970 1.993 . S
Co953 O978 1.941 . S
C954 O955 1.258 . S
C954 O956 1.263 . S
O955 Co952 1.970 . S
O955 C954 1.258 . S
O956 Co953 1.966 . S
O956 C954 1.263 . S
C957 O958 1.235 . S
C957 O984 1.289 . S
O958 C957 1.235 . S
C959 C961 1.400 . S
C959 N962 1.351 . S
C959 C964 1.501 . S
C960 C961 1.387 . S
C960 N963 1.341 . S
C961 C959 1.400 . S
C961 C960 1.387 . S
N962 Co953 2.022 . S
N962 C959 1.351 . S
N962 N963 1.365 . S
N963 C960 1.341 . S
N963 N962 1.365 . S
N963 H983 0.862 . S
C964 C959 1.501 . S
C964 H965 0.961 . S
C964 H966 0.961 . S
C964 H967 0.960 . S
H965 C964 0.961 . S
H966 C964 0.961 . S
H967 C964 0.960 . S
C968 N969 1.342 . S
C968 C972 1.401 . S
C968 C973 1.499 . S
N969 Co952 1.989 . S
N969 C968 1.342 . S
N969 N970 1.388 . S
N970 Co953 1.993 . S
N970 N969 1.388 . S
N970 C971 1.346 . S
C971 N970 1.346 . S
C971 C972 1.396 . S
C971 C981 1.510 . S
C972 C968 1.401 . S
C972 C971 1.396 . S
C973 C968 1.499 . S
C973 H974 0.959 . S
C973 H975 0.960 . S
C973 H976 0.961 . S
H974 C973 0.959 . S
H975 C973 0.960 . S
H976 C973 0.961 . S
O977 Co952 1.967 . S
O977 C985 1.258 . S
O978 Co953 1.941 . S
O978 C985 1.266 . S
H979 C981 0.959 . S
H980 C981 0.961 . S
C981 C971 1.510 . S
C981 H979 0.959 . S
C981 H980 0.961 . S
C981 H982 0.960 . S
H982 C981 0.960 . S
H983 N963 0.862 . S
O984 Co952 1.920 . S
O984 C957 1.289 . S
C985 O977 1.258 . S
C985 O978 1.266 . S
Co986 O989 1.970 . S
Co986 N1003 1.989 . S
Co986 O1011 1.967 . S
Co986 O1018 1.920 . S
Co987 O990 1.966 . S
Co987 N996 2.022 . S
Co987 N1004 1.993 . S
Co987 O1012 1.941 . S
C988 O989 1.258 . S
C988 O990 1.263 . S
O989 Co986 1.970 . S
O989 C988 1.258 . S
O990 Co987 1.966 . S
O990 C988 1.263 . S
C991 O992 1.235 . S
C991 O1018 1.289 . S
O992 C991 1.235 . S
C993 C995 1.400 . S
C993 N996 1.351 . S
C993 C998 1.501 . S
C994 C995 1.387 . S
C994 N997 1.341 . S
C995 C993 1.400 . S
C995 C994 1.387 . S
N996 Co987 2.022 . S
N996 C993 1.351 . S
N996 N997 1.365 . S
N997 C994 1.341 . S
N997 N996 1.365 . S
N997 H1017 0.862 . S
C998 C993 1.501 . S
C998 H999 0.961 . S
C998 H1000 0.961 . S
C998 H1001 0.960 . S
H999 C998 0.961 . S
H1000 C998 0.961 . S
H1001 C998 0.960 . S
C1002 N1003 1.342 . S
C1002 C1006 1.401 . S
C1002 C1007 1.499 . S
N1003 Co986 1.989 . S
N1003 C1002 1.342 . S
N1003 N1004 1.388 . S
N1004 Co987 1.993 . S
N1004 N1003 1.388 . S
N1004 C1005 1.346 . S
C1005 N1004 1.346 . S
C1005 C1006 1.396 . S
C1005 C1015 1.510 . S
C1006 C1002 1.401 . S
C1006 C1005 1.396 . S
C1007 C1002 1.499 . S
C1007 H1008 0.959 . S
C1007 H1009 0.960 . S
C1007 H1010 0.961 . S
H1008 C1007 0.959 . S
H1009 C1007 0.960 . S
H1010 C1007 0.961 . S
O1011 Co986 1.967 . S
O1011 C1019 1.258 . S
O1012 Co987 1.941 . S
O1012 C1019 1.266 . S
H1013 C1015 0.959 . S
H1014 C1015 0.961 . S
C1015 C1005 1.510 . S
C1015 H1013 0.959 . S
C1015 H1014 0.961 . S
C1015 H1016 0.960 . S
H1016 C1015 0.960 . S
H1017 N997 0.862 . S
O1018 Co986 1.920 . S
O1018 C991 1.289 . S
C1019 O1011 1.258 . S
C1019 O1012 1.266 . S
Co1020 O1023 1.970 . S
Co1020 N1037 1.989 . S
Co1020 O1045 1.967 . S
Co1020 O1052 1.920 . S
Co1021 O1024 1.966 . S
Co1021 N1030 2.022 . S
Co1021 N1038 1.993 . S
Co1021 O1046 1.941 . S
C1022 O1023 1.258 . S
C1022 O1024 1.263 . S
O1023 Co1020 1.970 . S
O1023 C1022 1.258 . S
O1024 Co1021 1.966 . S
O1024 C1022 1.263 . S
C1025 O1026 1.235 . S
C1025 O1052 1.289 . S
O1026 C1025 1.235 . S
C1027 C1029 1.400 . S
C1027 N1030 1.351 . S
C1027 C1032 1.501 . S
C1028 C1029 1.387 . S
C1028 N1031 1.341 . S
C1029 C1027 1.400 . S
C1029 C1028 1.387 . S
N1030 Co1021 2.022 . S
N1030 C1027 1.351 . S
N1030 N1031 1.365 . S
N1031 C1028 1.341 . S
N1031 N1030 1.365 . S
N1031 H1051 0.862 . S
C1032 C1027 1.501 . S
C1032 H1033 0.961 . S
C1032 H1034 0.961 . S
C1032 H1035 0.960 . S
H1033 C1032 0.961 . S
H1034 C1032 0.961 . S
H1035 C1032 0.960 . S
C1036 N1037 1.342 . S
C1036 C1040 1.401 . S
C1036 C1041 1.499 . S
N1037 Co1020 1.989 . S
N1037 C1036 1.342 . S
N1037 N1038 1.388 . S
N1038 Co1021 1.993 . S
N1038 N1037 1.388 . S
N1038 C1039 1.346 . S
C1039 N1038 1.346 . S
C1039 C1040 1.396 . S
C1039 C1049 1.510 . S
C1040 C1036 1.401 . S
C1040 C1039 1.396 . S
C1041 C1036 1.499 . S
C1041 H1042 0.959 . S
C1041 H1043 0.960 . S
C1041 H1044 0.961 . S
H1042 C1041 0.959 . S
H1043 C1041 0.960 . S
H1044 C1041 0.961 . S
O1045 Co1020 1.967 . S
O1045 C1053 1.258 . S
O1046 Co1021 1.941 . S
O1046 C1053 1.266 . S
H1047 C1049 0.959 . S
H1048 C1049 0.961 . S
C1049 C1039 1.510 . S
C1049 H1047 0.959 . S
C1049 H1048 0.961 . S
C1049 H1050 0.960 . S
H1050 C1049 0.960 . S
H1051 N1031 0.862 . S
O1052 Co1020 1.920 . S
O1052 C1025 1.289 . S
C1053 O1045 1.258 . S
C1053 O1046 1.266 . S
Co1054 O1057 1.970 . S
Co1054 N1071 1.989 . S
Co1054 O1079 1.967 . S
Co1054 O1086 1.920 . S
Co1055 O1058 1.966 . S
Co1055 N1064 2.022 . S
Co1055 N1072 1.993 . S
Co1055 O1080 1.941 . S
C1056 O1057 1.258 . S
C1056 O1058 1.263 . S
O1057 Co1054 1.970 . S
O1057 C1056 1.258 . S
O1058 Co1055 1.966 . S
O1058 C1056 1.263 . S
C1059 O1060 1.235 . S
C1059 O1086 1.289 . S
O1060 C1059 1.235 . S
C1061 C1063 1.400 . S
C1061 N1064 1.351 . S
C1061 C1066 1.501 . S
C1062 C1063 1.387 . S
C1062 N1065 1.341 . S
C1063 C1061 1.400 . S
C1063 C1062 1.387 . S
N1064 Co1055 2.022 . S
N1064 C1061 1.351 . S
N1064 N1065 1.365 . S
N1065 C1062 1.341 . S
N1065 N1064 1.365 . S
N1065 H1085 0.862 . S
C1066 C1061 1.501 . S
C1066 H1067 0.961 . S
C1066 H1068 0.961 . S
C1066 H1069 0.960 . S
H1067 C1066 0.961 . S
H1068 C1066 0.961 . S
H1069 C1066 0.960 . S
C1070 N1071 1.342 . S
C1070 C1074 1.401 . S
C1070 C1075 1.499 . S
N1071 Co1054 1.989 . S
N1071 C1070 1.342 . S
N1071 N1072 1.388 . S
N1072 Co1055 1.993 . S
N1072 N1071 1.388 . S
N1072 C1073 1.346 . S
C1073 N1072 1.346 . S
C1073 C1074 1.396 . S
C1073 C1083 1.510 . S
C1074 C1070 1.401 . S
C1074 C1073 1.396 . S
C1075 C1070 1.499 . S
C1075 H1076 0.959 . S
C1075 H1077 0.960 . S
C1075 H1078 0.961 . S
H1076 C1075 0.959 . S
H1077 C1075 0.960 . S
H1078 C1075 0.961 . S
O1079 Co1054 1.967 . S
O1079 C1087 1.258 . S
O1080 Co1055 1.941 . S
O1080 C1087 1.266 . S
H1081 C1083 0.959 . S
H1082 C1083 0.961 . S
C1083 C1073 1.510 . S
C1083 H1081 0.959 . S
C1083 H1082 0.961 . S
C1083 H1084 0.960 . S
H1084 C1083 0.960 . S
H1085 N1065 0.862 . S
O1086 Co1054 1.920 . S
O1086 C1059 1.289 . S
C1087 O1079 1.258 . S
C1087 O1080 1.266 . S
Co1088 O1091 1.970 . S
Co1088 N1105 1.989 . S
Co1088 O1113 1.967 . S
Co1088 O1120 1.920 . S
Co1089 O1092 1.966 . S
Co1089 N1098 2.022 . S
Co1089 N1106 1.993 . S
Co1089 O1114 1.941 . S
C1090 O1091 1.258 . S
C1090 O1092 1.263 . S
O1091 Co1088 1.970 . S
O1091 C1090 1.258 . S
O1092 Co1089 1.966 . S
O1092 C1090 1.263 . S
C1093 O1094 1.235 . S
C1093 O1120 1.289 . S
O1094 C1093 1.235 . S
C1095 C1097 1.400 . S
C1095 N1098 1.351 . S
C1095 C1100 1.501 . S
C1096 C1097 1.387 . S
C1096 N1099 1.341 . S
C1097 C1095 1.400 . S
C1097 C1096 1.387 . S
N1098 Co1089 2.022 . S
N1098 C1095 1.351 . S
N1098 N1099 1.365 . S
N1099 C1096 1.341 . S
N1099 N1098 1.365 . S
N1099 H1119 0.862 . S
C1100 C1095 1.501 . S
C1100 H1101 0.961 . S
C1100 H1102 0.961 . S
C1100 H1103 0.960 . S
H1101 C1100 0.961 . S
H1102 C1100 0.961 . S
H1103 C1100 0.960 . S
C1104 N1105 1.342 . S
C1104 C1108 1.401 . S
C1104 C1109 1.499 . S
N1105 Co1088 1.989 . S
N1105 C1104 1.342 . S
N1105 N1106 1.388 . S
N1106 Co1089 1.993 . S
N1106 N1105 1.388 . S
N1106 C1107 1.346 . S
C1107 N1106 1.346 . S
C1107 C1108 1.396 . S
C1107 C1117 1.510 . S
C1108 C1104 1.401 . S
C1108 C1107 1.396 . S
C1109 C1104 1.499 . S
C1109 H1110 0.959 . S
C1109 H1111 0.960 . S
C1109 H1112 0.961 . S
H1110 C1109 0.959 . S
H1111 C1109 0.960 . S
H1112 C1109 0.961 . S
O1113 Co1088 1.967 . S
O1113 C1121 1.258 . S
O1114 Co1089 1.941 . S
O1114 C1121 1.266 . S
H1115 C1117 0.959 . S
H1116 C1117 0.961 . S
C1117 C1107 1.510 . S
C1117 H1115 0.959 . S
C1117 H1116 0.961 . S
C1117 H1118 0.960 . S
H1118 C1117 0.960 . S
H1119 N1099 0.862 . S
O1120 Co1088 1.920 . S
O1120 C1093 1.289 . S
C1121 O1113 1.258 . S
C1121 O1114 1.266 . S
Co1122 O1125 1.970 . S
Co1122 N1139 1.989 . S
Co1122 O1147 1.967 . S
Co1122 O1154 1.920 . S
Co1123 O1126 1.966 . S
Co1123 N1132 2.022 . S
Co1123 N1140 1.993 . S
Co1123 O1148 1.941 . S
C1124 O1125 1.258 . S
C1124 O1126 1.263 . S
O1125 Co1122 1.970 . S
O1125 C1124 1.258 . S
O1126 Co1123 1.966 . S
O1126 C1124 1.263 . S
C1127 O1128 1.235 . S
C1127 O1154 1.289 . S
O1128 C1127 1.235 . S
C1129 C1131 1.400 . S
C1129 N1132 1.351 . S
C1129 C1134 1.501 . S
C1130 C1131 1.387 . S
C1130 N1133 1.341 . S
C1131 C1129 1.400 . S
C1131 C1130 1.387 . S
N1132 Co1123 2.022 . S
N1132 C1129 1.351 . S
N1132 N1133 1.365 . S
N1133 C1130 1.341 . S
N1133 N1132 1.365 . S
N1133 H1153 0.862 . S
C1134 C1129 1.501 . S
C1134 H1135 0.961 . S
C1134 H1136 0.961 . S
C1134 H1137 0.960 . S
H1135 C1134 0.961 . S
H1136 C1134 0.961 . S
H1137 C1134 0.960 . S
C1138 N1139 1.342 . S
C1138 C1142 1.401 . S
C1138 C1143 1.499 . S
N1139 Co1122 1.989 . S
N1139 C1138 1.342 . S
N1139 N1140 1.388 . S
N1140 Co1123 1.993 . S
N1140 N1139 1.388 . S
N1140 C1141 1.346 . S
C1141 N1140 1.346 . S
C1141 C1142 1.396 . S
C1141 C1151 1.510 . S
C1142 C1138 1.401 . S
C1142 C1141 1.396 . S
C1143 C1138 1.499 . S
C1143 H1144 0.959 . S
C1143 H1145 0.960 . S
C1143 H1146 0.961 . S
H1144 C1143 0.959 . S
H1145 C1143 0.960 . S
H1146 C1143 0.961 . S
O1147 Co1122 1.967 . S
O1147 C1155 1.258 . S
O1148 Co1123 1.941 . S
O1148 C1155 1.266 . S
H1149 C1151 0.959 . S
H1150 C1151 0.961 . S
C1151 C1141 1.510 . S
C1151 H1149 0.959 . S
C1151 H1150 0.961 . S
C1151 H1152 0.960 . S
H1152 C1151 0.960 . S
H1153 N1133 0.862 . S
O1154 Co1122 1.920 . S
O1154 C1127 1.289 . S
C1155 O1147 1.258 . S
C1155 O1148 1.266 . S
Co1156 O1159 1.970 . S
Co1156 N1173 1.989 . S
Co1156 O1181 1.967 . S
Co1156 O1188 1.920 . S
Co1157 O1160 1.966 . S
Co1157 N1166 2.022 . S
Co1157 N1174 1.993 . S
Co1157 O1182 1.941 . S
C1158 O1159 1.258 . S
C1158 O1160 1.263 . S
O1159 Co1156 1.970 . S
O1159 C1158 1.258 . S
O1160 Co1157 1.966 . S
O1160 C1158 1.263 . S
C1161 O1162 1.235 . S
C1161 O1188 1.289 . S
O1162 C1161 1.235 . S
C1163 C1165 1.400 . S
C1163 N1166 1.351 . S
C1163 C1168 1.501 . S
C1164 C1165 1.387 . S
C1164 N1167 1.341 . S
C1165 C1163 1.400 . S
C1165 C1164 1.387 . S
N1166 Co1157 2.022 . S
N1166 C1163 1.351 . S
N1166 N1167 1.365 . S
N1167 C1164 1.341 . S
N1167 N1166 1.365 . S
N1167 H1187 0.862 . S
C1168 C1163 1.501 . S
C1168 H1169 0.961 . S
C1168 H1170 0.961 . S
C1168 H1171 0.960 . S
H1169 C1168 0.961 . S
H1170 C1168 0.961 . S
H1171 C1168 0.960 . S
C1172 N1173 1.342 . S
C1172 C1176 1.401 . S
C1172 C1177 1.499 . S
N1173 Co1156 1.989 . S
N1173 C1172 1.342 . S
N1173 N1174 1.388 . S
N1174 Co1157 1.993 . S
N1174 N1173 1.388 . S
N1174 C1175 1.346 . S
C1175 N1174 1.346 . S
C1175 C1176 1.396 . S
C1175 C1185 1.510 . S
C1176 C1172 1.401 . S
C1176 C1175 1.396 . S
C1177 C1172 1.499 . S
C1177 H1178 0.959 . S
C1177 H1179 0.960 . S
C1177 H1180 0.961 . S
H1178 C1177 0.959 . S
H1179 C1177 0.960 . S
H1180 C1177 0.961 . S
O1181 Co1156 1.967 . S
O1181 C1189 1.258 . S
O1182 Co1157 1.941 . S
O1182 C1189 1.266 . S
H1183 C1185 0.959 . S
H1184 C1185 0.961 . S
C1185 C1175 1.510 . S
C1185 H1183 0.959 . S
C1185 H1184 0.961 . S
C1185 H1186 0.960 . S
H1186 C1185 0.960 . S
H1187 N1167 0.862 . S
O1188 Co1156 1.920 . S
O1188 C1161 1.289 . S
C1189 O1181 1.258 . S
C1189 O1182 1.266 . S
Co1190 O1193 1.970 . S
Co1190 N1207 1.989 . S
Co1190 O1215 1.967 . S
Co1190 O1222 1.920 . S
Co1191 O1194 1.966 . S
Co1191 N1200 2.022 . S
Co1191 N1208 1.993 . S
Co1191 O1216 1.941 . S
C1192 O1193 1.258 . S
C1192 O1194 1.263 . S
O1193 Co1190 1.970 . S
O1193 C1192 1.258 . S
O1194 Co1191 1.966 . S
O1194 C1192 1.263 . S
C1195 O1196 1.235 . S
C1195 O1222 1.289 . S
O1196 C1195 1.235 . S
C1197 C1199 1.400 . S
C1197 N1200 1.351 . S
C1197 C1202 1.501 . S
C1198 C1199 1.387 . S
C1198 N1201 1.341 . S
C1199 C1197 1.400 . S
C1199 C1198 1.387 . S
N1200 Co1191 2.022 . S
N1200 C1197 1.351 . S
N1200 N1201 1.365 . S
N1201 C1198 1.341 . S
N1201 N1200 1.365 . S
N1201 H1221 0.862 . S
C1202 C1197 1.501 . S
C1202 H1203 0.961 . S
C1202 H1204 0.961 . S
C1202 H1205 0.960 . S
H1203 C1202 0.961 . S
H1204 C1202 0.961 . S
H1205 C1202 0.960 . S
C1206 N1207 1.342 . S
C1206 C1210 1.401 . S
C1206 C1211 1.499 . S
N1207 Co1190 1.989 . S
N1207 C1206 1.342 . S
N1207 N1208 1.388 . S
N1208 Co1191 1.993 . S
N1208 N1207 1.388 . S
N1208 C1209 1.346 . S
C1209 N1208 1.346 . S
C1209 C1210 1.396 . S
C1209 C1219 1.510 . S
C1210 C1206 1.401 . S
C1210 C1209 1.396 . S
C1211 C1206 1.499 . S
C1211 H1212 0.959 . S
C1211 H1213 0.960 . S
C1211 H1214 0.961 . S
H1212 C1211 0.959 . S
H1213 C1211 0.960 . S
H1214 C1211 0.961 . S
O1215 Co1190 1.967 . S
O1215 C1223 1.258 . S
O1216 Co1191 1.941 . S
O1216 C1223 1.266 . S
H1217 C1219 0.959 . S
H1218 C1219 0.961 . S
C1219 C1209 1.510 . S
C1219 H1217 0.959 . S
C1219 H1218 0.961 . S
C1219 H1220 0.960 . S
H1220 C1219 0.960 . S
H1221 N1201 0.862 . S
O1222 Co1190 1.920 . S
O1222 C1195 1.289 . S
C1223 O1215 1.258 . S
C1223 O1216 1.266 . S
Co1224 O1227 1.970 . S
Co1224 N1241 1.989 . S
Co1224 O1249 1.967 . S
Co1224 O1256 1.920 . S
Co1225 O1228 1.966 . S
Co1225 N1234 2.022 . S
Co1225 N1242 1.993 . S
Co1225 O1250 1.941 . S
C1226 O1227 1.258 . S
C1226 O1228 1.263 . S
O1227 Co1224 1.970 . S
O1227 C1226 1.258 . S
O1228 Co1225 1.966 . S
O1228 C1226 1.263 . S
C1229 O1230 1.235 . S
C1229 O1256 1.289 . S
O1230 C1229 1.235 . S
C1231 C1233 1.400 . S
C1231 N1234 1.351 . S
C1231 C1236 1.501 . S
C1232 C1233 1.387 . S
C1232 N1235 1.341 . S
C1233 C1231 1.400 . S
C1233 C1232 1.387 . S
N1234 Co1225 2.022 . S
N1234 C1231 1.351 . S
N1234 N1235 1.365 . S
N1235 C1232 1.341 . S
N1235 N1234 1.365 . S
N1235 H1255 0.862 . S
C1236 C1231 1.501 . S
C1236 H1237 0.961 . S
C1236 H1238 0.961 . S
C1236 H1239 0.960 . S
H1237 C1236 0.961 . S
H1238 C1236 0.961 . S
H1239 C1236 0.960 . S
C1240 N1241 1.342 . S
C1240 C1244 1.401 . S
C1240 C1245 1.499 . S
N1241 Co1224 1.989 . S
N1241 C1240 1.342 . S
N1241 N1242 1.388 . S
N1242 Co1225 1.993 . S
N1242 N1241 1.388 . S
N1242 C1243 1.346 . S
C1243 N1242 1.346 . S
C1243 C1244 1.396 . S
C1243 C1253 1.510 . S
C1244 C1240 1.401 . S
C1244 C1243 1.396 . S
C1245 C1240 1.499 . S
C1245 H1246 0.959 . S
C1245 H1247 0.960 . S
C1245 H1248 0.961 . S
H1246 C1245 0.959 . S
H1247 C1245 0.960 . S
H1248 C1245 0.961 . S
O1249 Co1224 1.967 . S
O1249 C1257 1.258 . S
O1250 Co1225 1.941 . S
O1250 C1257 1.266 . S
H1251 C1253 0.959 . S
H1252 C1253 0.961 . S
C1253 C1243 1.510 . S
C1253 H1251 0.959 . S
C1253 H1252 0.961 . S
C1253 H1254 0.960 . S
H1254 C1253 0.960 . S
H1255 N1235 0.862 . S
O1256 Co1224 1.920 . S
O1256 C1229 1.289 . S
C1257 O1249 1.258 . S
C1257 O1250 1.266 . S
Co1258 O1261 1.970 . S
Co1258 N1275 1.989 . S
Co1258 O1283 1.967 . S
Co1258 O1290 1.920 . S
Co1259 O1262 1.966 . S
Co1259 N1268 2.022 . S
Co1259 N1276 1.993 . S
Co1259 O1284 1.941 . S
C1260 O1261 1.258 . S
C1260 O1262 1.263 . S
O1261 Co1258 1.970 . S
O1261 C1260 1.258 . S
O1262 Co1259 1.966 . S
O1262 C1260 1.263 . S
C1263 O1264 1.235 . S
C1263 O1290 1.289 . S
O1264 C1263 1.235 . S
C1265 C1267 1.400 . S
C1265 N1268 1.351 . S
C1265 C1270 1.501 . S
C1266 C1267 1.387 . S
C1266 N1269 1.341 . S
C1267 C1265 1.400 . S
C1267 C1266 1.387 . S
N1268 Co1259 2.022 . S
N1268 C1265 1.351 . S
N1268 N1269 1.365 . S
N1269 C1266 1.341 . S
N1269 N1268 1.365 . S
N1269 H1289 0.862 . S
C1270 C1265 1.501 . S
C1270 H1271 0.961 . S
C1270 H1272 0.961 . S
C1270 H1273 0.960 . S
H1271 C1270 0.961 . S
H1272 C1270 0.961 . S
H1273 C1270 0.960 . S
C1274 N1275 1.342 . S
C1274 C1278 1.401 . S
C1274 C1279 1.499 . S
N1275 Co1258 1.989 . S
N1275 C1274 1.342 . S
N1275 N1276 1.388 . S
N1276 Co1259 1.993 . S
N1276 N1275 1.388 . S
N1276 C1277 1.346 . S
C1277 N1276 1.346 . S
C1277 C1278 1.396 . S
C1277 C1287 1.510 . S
C1278 C1274 1.401 . S
C1278 C1277 1.396 . S
C1279 C1274 1.499 . S
C1279 H1280 0.959 . S
C1279 H1281 0.960 . S
C1279 H1282 0.961 . S
H1280 C1279 0.959 . S
H1281 C1279 0.960 . S
H1282 C1279 0.961 . S
O1283 Co1258 1.967 . S
O1283 C1291 1.258 . S
O1284 Co1259 1.941 . S
O1284 C1291 1.266 . S
H1285 C1287 0.959 . S
H1286 C1287 0.961 . S
C1287 C1277 1.510 . S
C1287 H1285 0.959 . S
C1287 H1286 0.961 . S
C1287 H1288 0.960 . S
H1288 C1287 0.960 . S
H1289 N1269 0.862 . S
O1290 Co1258 1.920 . S
O1290 C1263 1.289 . S
C1291 O1283 1.258 . S
C1291 O1284 1.266 . S
Co1292 O1295 1.970 . S
Co1292 N1309 1.989 . S
Co1292 O1317 1.967 . S
Co1292 O1324 1.920 . S
Co1293 O1296 1.966 . S
Co1293 N1302 2.022 . S
Co1293 N1310 1.993 . S
Co1293 O1318 1.941 . S
C1294 O1295 1.258 . S
C1294 O1296 1.263 . S
O1295 Co1292 1.970 . S
O1295 C1294 1.258 . S
O1296 Co1293 1.966 . S
O1296 C1294 1.263 . S
C1297 O1298 1.235 . S
C1297 O1324 1.289 . S
O1298 C1297 1.235 . S
C1299 C1301 1.400 . S
C1299 N1302 1.351 . S
C1299 C1304 1.501 . S
C1300 C1301 1.387 . S
C1300 N1303 1.341 . S
C1301 C1299 1.400 . S
C1301 C1300 1.387 . S
N1302 Co1293 2.022 . S
N1302 C1299 1.351 . S
N1302 N1303 1.365 . S
N1303 C1300 1.341 . S
N1303 N1302 1.365 . S
N1303 H1323 0.862 . S
C1304 C1299 1.501 . S
C1304 H1305 0.961 . S
C1304 H1306 0.961 . S
C1304 H1307 0.960 . S
H1305 C1304 0.961 . S
H1306 C1304 0.961 . S
H1307 C1304 0.960 . S
C1308 N1309 1.342 . S
C1308 C1312 1.401 . S
C1308 C1313 1.499 . S
N1309 Co1292 1.989 . S
N1309 C1308 1.342 . S
N1309 N1310 1.388 . S
N1310 Co1293 1.993 . S
N1310 N1309 1.388 . S
N1310 C1311 1.346 . S
C1311 N1310 1.346 . S
C1311 C1312 1.396 . S
C1311 C1321 1.510 . S
C1312 C1308 1.401 . S
C1312 C1311 1.396 . S
C1313 C1308 1.499 . S
C1313 H1314 0.959 . S
C1313 H1315 0.960 . S
C1313 H1316 0.961 . S
H1314 C1313 0.959 . S
H1315 C1313 0.960 . S
H1316 C1313 0.961 . S
O1317 Co1292 1.967 . S
O1317 C1325 1.258 . S
O1318 Co1293 1.941 . S
O1318 C1325 1.266 . S
H1319 C1321 0.959 . S
H1320 C1321 0.961 . S
C1321 C1311 1.510 . S
C1321 H1319 0.959 . S
C1321 H1320 0.961 . S
C1321 H1322 0.960 . S
H1322 C1321 0.960 . S
H1323 N1303 0.862 . S
O1324 Co1292 1.920 . S
O1324 C1297 1.289 . S
C1325 O1317 1.258 . S
C1325 O1318 1.266 . S
Co1326 O1329 1.970 . S
Co1326 N1343 1.989 . S
Co1326 O1351 1.967 . S
Co1326 O1358 1.920 . S
Co1327 O1330 1.966 . S
Co1327 N1336 2.022 . S
Co1327 N1344 1.993 . S
Co1327 O1352 1.941 . S
C1328 O1329 1.258 . S
C1328 O1330 1.263 . S
O1329 Co1326 1.970 . S
O1329 C1328 1.258 . S
O1330 Co1327 1.966 . S
O1330 C1328 1.263 . S
C1331 O1332 1.235 . S
C1331 O1358 1.289 . S
O1332 C1331 1.235 . S
C1333 C1335 1.400 . S
C1333 N1336 1.351 . S
C1333 C1338 1.501 . S
C1334 C1335 1.387 . S
C1334 N1337 1.341 . S
C1335 C1333 1.400 . S
C1335 C1334 1.387 . S
N1336 Co1327 2.022 . S
N1336 C1333 1.351 . S
N1336 N1337 1.365 . S
N1337 C1334 1.341 . S
N1337 N1336 1.365 . S
N1337 H1357 0.862 . S
C1338 C1333 1.501 . S
C1338 H1339 0.961 . S
C1338 H1340 0.961 . S
C1338 H1341 0.960 . S
H1339 C1338 0.961 . S
H1340 C1338 0.961 . S
H1341 C1338 0.960 . S
C1342 N1343 1.342 . S
C1342 C1346 1.401 . S
C1342 C1347 1.499 . S
N1343 Co1326 1.989 . S
N1343 C1342 1.342 . S
N1343 N1344 1.388 . S
N1344 Co1327 1.993 . S
N1344 N1343 1.388 . S
N1344 C1345 1.346 . S
C1345 N1344 1.346 . S
C1345 C1346 1.396 . S
C1345 C1355 1.510 . S
C1346 C1342 1.401 . S
C1346 C1345 1.396 . S
C1347 C1342 1.499 . S
C1347 H1348 0.959 . S
C1347 H1349 0.960 . S
C1347 H1350 0.961 . S
H1348 C1347 0.959 . S
H1349 C1347 0.960 . S
H1350 C1347 0.961 . S
O1351 Co1326 1.967 . S
O1351 C1359 1.258 . S
O1352 Co1327 1.941 . S
O1352 C1359 1.266 . S
H1353 C1355 0.959 . S
H1354 C1355 0.961 . S
C1355 C1345 1.510 . S
C1355 H1353 0.959 . S
C1355 H1354 0.961 . S
C1355 H1356 0.960 . S
H1356 C1355 0.960 . S
H1357 N1337 0.862 . S
O1358 Co1326 1.920 . S
O1358 C1331 1.289 . S
C1359 O1351 1.258 . S
C1359 O1352 1.266 . S
Co1360 O1363 1.970 . S
Co1360 N1377 1.989 . S
Co1360 O1385 1.967 . S
Co1360 O1392 1.920 . S
Co1361 O1364 1.966 . S
Co1361 N1370 2.022 . S
Co1361 N1378 1.993 . S
Co1361 O1386 1.941 . S
C1362 O1363 1.258 . S
C1362 O1364 1.263 . S
O1363 Co1360 1.970 . S
O1363 C1362 1.258 . S
O1364 Co1361 1.966 . S
O1364 C1362 1.263 . S
C1365 O1366 1.235 . S
C1365 O1392 1.289 . S
O1366 C1365 1.235 . S
C1367 C1369 1.400 . S
C1367 N1370 1.351 . S
C1367 C1372 1.501 . S
C1368 C1369 1.387 . S
C1368 N1371 1.341 . S
C1369 C1367 1.400 . S
C1369 C1368 1.387 . S
N1370 Co1361 2.022 . S
N1370 C1367 1.351 . S
N1370 N1371 1.365 . S
N1371 C1368 1.341 . S
N1371 N1370 1.365 . S
N1371 H1391 0.862 . S
C1372 C1367 1.501 . S
C1372 H1373 0.961 . S
C1372 H1374 0.961 . S
C1372 H1375 0.960 . S
H1373 C1372 0.961 . S
H1374 C1372 0.961 . S
H1375 C1372 0.960 . S
C1376 N1377 1.342 . S
C1376 C1380 1.401 . S
C1376 C1381 1.499 . S
N1377 Co1360 1.989 . S
N1377 C1376 1.342 . S
N1377 N1378 1.388 . S
N1378 Co1361 1.993 . S
N1378 N1377 1.388 . S
N1378 C1379 1.346 . S
C1379 N1378 1.346 . S
C1379 C1380 1.396 . S
C1379 C1389 1.510 . S
C1380 C1376 1.401 . S
C1380 C1379 1.396 . S
C1381 C1376 1.499 . S
C1381 H1382 0.959 . S
C1381 H1383 0.960 . S
C1381 H1384 0.961 . S
H1382 C1381 0.959 . S
H1383 C1381 0.960 . S
H1384 C1381 0.961 . S
O1385 Co1360 1.967 . S
O1385 C1393 1.258 . S
O1386 Co1361 1.941 . S
O1386 C1393 1.266 . S
H1387 C1389 0.959 . S
H1388 C1389 0.961 . S
C1389 C1379 1.510 . S
C1389 H1387 0.959 . S
C1389 H1388 0.961 . S
C1389 H1390 0.960 . S
H1390 C1389 0.960 . S
H1391 N1371 0.862 . S
O1392 Co1360 1.920 . S
O1392 C1365 1.289 . S
C1393 O1385 1.258 . S
C1393 O1386 1.266 . S
Co1394 O1397 1.970 . S
Co1394 N1411 1.989 . S
Co1394 O1419 1.967 . S
Co1394 O1426 1.920 . S
Co1395 O1398 1.966 . S
Co1395 N1404 2.022 . S
Co1395 N1412 1.993 . S
Co1395 O1420 1.941 . S
C1396 O1397 1.258 . S
C1396 O1398 1.263 . S
O1397 Co1394 1.970 . S
O1397 C1396 1.258 . S
O1398 Co1395 1.966 . S
O1398 C1396 1.263 . S
C1399 O1400 1.235 . S
C1399 O1426 1.289 . S
O1400 C1399 1.235 . S
C1401 C1403 1.400 . S
C1401 N1404 1.351 . S
C1401 C1406 1.501 . S
C1402 C1403 1.387 . S
C1402 N1405 1.341 . S
C1403 C1401 1.400 . S
C1403 C1402 1.387 . S
N1404 Co1395 2.022 . S
N1404 C1401 1.351 . S
N1404 N1405 1.365 . S
N1405 C1402 1.341 . S
N1405 N1404 1.365 . S
N1405 H1425 0.862 . S
C1406 C1401 1.501 . S
C1406 H1407 0.961 . S
C1406 H1408 0.961 . S
C1406 H1409 0.960 . S
H1407 C1406 0.961 . S
H1408 C1406 0.961 . S
H1409 C1406 0.960 . S
C1410 N1411 1.342 . S
C1410 C1414 1.401 . S
C1410 C1415 1.499 . S
N1411 Co1394 1.989 . S
N1411 C1410 1.342 . S
N1411 N1412 1.388 . S
N1412 Co1395 1.993 . S
N1412 N1411 1.388 . S
N1412 C1413 1.346 . S
C1413 N1412 1.346 . S
C1413 C1414 1.396 . S
C1413 C1423 1.510 . S
C1414 C1410 1.401 . S
C1414 C1413 1.396 . S
C1415 C1410 1.499 . S
C1415 H1416 0.959 . S
C1415 H1417 0.960 . S
C1415 H1418 0.961 . S
H1416 C1415 0.959 . S
H1417 C1415 0.960 . S
H1418 C1415 0.961 . S
O1419 Co1394 1.967 . S
O1419 C1427 1.258 . S
O1420 Co1395 1.941 . S
O1420 C1427 1.266 . S
H1421 C1423 0.959 . S
H1422 C1423 0.961 . S
C1423 C1413 1.510 . S
C1423 H1421 0.959 . S
C1423 H1422 0.961 . S
C1423 H1424 0.960 . S
H1424 C1423 0.960 . S
H1425 N1405 0.862 . S
O1426 Co1394 1.920 . S
O1426 C1399 1.289 . S
C1427 O1419 1.258 . S
C1427 O1420 1.266 . S
Co1428 O1431 1.970 . S
Co1428 N1445 1.989 . S
Co1428 O1453 1.967 . S
Co1428 O1460 1.920 . S
Co1429 O1432 1.966 . S
Co1429 N1438 2.022 . S
Co1429 N1446 1.993 . S
Co1429 O1454 1.941 . S
C1430 O1431 1.258 . S
C1430 O1432 1.263 . S
O1431 Co1428 1.970 . S
O1431 C1430 1.258 . S
O1432 Co1429 1.966 . S
O1432 C1430 1.263 . S
C1433 O1434 1.235 . S
C1433 O1460 1.289 . S
O1434 C1433 1.235 . S
C1435 C1437 1.400 . S
C1435 N1438 1.351 . S
C1435 C1440 1.501 . S
C1436 C1437 1.387 . S
C1436 N1439 1.341 . S
C1437 C1435 1.400 . S
C1437 C1436 1.387 . S
N1438 Co1429 2.022 . S
N1438 C1435 1.351 . S
N1438 N1439 1.365 . S
N1439 C1436 1.341 . S
N1439 N1438 1.365 . S
N1439 H1459 0.862 . S
C1440 C1435 1.501 . S
C1440 H1441 0.961 . S
C1440 H1442 0.961 . S
C1440 H1443 0.960 . S
H1441 C1440 0.961 . S
H1442 C1440 0.961 . S
H1443 C1440 0.960 . S
C1444 N1445 1.342 . S
C1444 C1448 1.401 . S
C1444 C1449 1.499 . S
N1445 Co1428 1.989 . S
N1445 C1444 1.342 . S
N1445 N1446 1.388 . S
N1446 Co1429 1.993 . S
N1446 N1445 1.388 . S
N1446 C1447 1.346 . S
C1447 N1446 1.346 . S
C1447 C1448 1.396 . S
C1447 C1457 1.510 . S
C1448 C1444 1.401 . S
C1448 C1447 1.396 . S
C1449 C1444 1.499 . S
C1449 H1450 0.959 . S
C1449 H1451 0.960 . S
C1449 H1452 0.961 . S
H1450 C1449 0.959 . S
H1451 C1449 0.960 . S
H1452 C1449 0.961 . S
O1453 Co1428 1.967 . S
O1453 C1461 1.258 . S
O1454 Co1429 1.941 . S
O1454 C1461 1.266 . S
H1455 C1457 0.959 . S
H1456 C1457 0.961 . S
C1457 C1447 1.510 . S
C1457 H1455 0.959 . S
C1457 H1456 0.961 . S
C1457 H1458 0.960 . S
H1458 C1457 0.960 . S
H1459 N1439 0.862 . S
O1460 Co1428 1.920 . S
O1460 C1433 1.289 . S
C1461 O1453 1.258 . S
C1461 O1454 1.266 . S
Co1462 O1465 1.970 . S
Co1462 N1479 1.989 . S
Co1462 O1487 1.967 . S
Co1462 O1494 1.920 . S
Co1463 O1466 1.966 . S
Co1463 N1472 2.022 . S
Co1463 N1480 1.993 . S
Co1463 O1488 1.941 . S
C1464 O1465 1.258 . S
C1464 O1466 1.263 . S
O1465 Co1462 1.970 . S
O1465 C1464 1.258 . S
O1466 Co1463 1.966 . S
O1466 C1464 1.263 . S
C1467 O1468 1.235 . S
C1467 O1494 1.289 . S
O1468 C1467 1.235 . S
C1469 C1471 1.400 . S
C1469 N1472 1.351 . S
C1469 C1474 1.501 . S
C1470 C1471 1.387 . S
C1470 N1473 1.341 . S
C1471 C1469 1.400 . S
C1471 C1470 1.387 . S
N1472 Co1463 2.022 . S
N1472 C1469 1.351 . S
N1472 N1473 1.365 . S
N1473 C1470 1.341 . S
N1473 N1472 1.365 . S
N1473 H1493 0.862 . S
C1474 C1469 1.501 . S
C1474 H1475 0.961 . S
C1474 H1476 0.961 . S
C1474 H1477 0.960 . S
H1475 C1474 0.961 . S
H1476 C1474 0.961 . S
H1477 C1474 0.960 . S
C1478 N1479 1.342 . S
C1478 C1482 1.401 . S
C1478 C1483 1.499 . S
N1479 Co1462 1.989 . S
N1479 C1478 1.342 . S
N1479 N1480 1.388 . S
N1480 Co1463 1.993 . S
N1480 N1479 1.388 . S
N1480 C1481 1.346 . S
C1481 N1480 1.346 . S
C1481 C1482 1.396 . S
C1481 C1491 1.510 . S
C1482 C1478 1.401 . S
C1482 C1481 1.396 . S
C1483 C1478 1.499 . S
C1483 H1484 0.959 . S
C1483 H1485 0.960 . S
C1483 H1486 0.961 . S
H1484 C1483 0.959 . S
H1485 C1483 0.960 . S
H1486 C1483 0.961 . S
O1487 Co1462 1.967 . S
O1487 C1495 1.258 . S
O1488 Co1463 1.941 . S
O1488 C1495 1.266 . S
H1489 C1491 0.959 . S
H1490 C1491 0.961 . S
C1491 C1481 1.510 . S
C1491 H1489 0.959 . S
C1491 H1490 0.961 . S
C1491 H1492 0.960 . S
H1492 C1491 0.960 . S
H1493 N1473 0.862 . S
O1494 Co1462 1.920 . S
O1494 C1467 1.289 . S
C1495 O1487 1.258 . S
C1495 O1488 1.266 . S
Co1496 O1499 1.970 . S
Co1496 N1513 1.989 . S
Co1496 O1521 1.967 . S
Co1496 O1528 1.920 . S
Co1497 O1500 1.966 . S
Co1497 N1506 2.022 . S
Co1497 N1514 1.993 . S
Co1497 O1522 1.941 . S
C1498 O1499 1.258 . S
C1498 O1500 1.263 . S
O1499 Co1496 1.970 . S
O1499 C1498 1.258 . S
O1500 Co1497 1.966 . S
O1500 C1498 1.263 . S
C1501 O1502 1.235 . S
C1501 O1528 1.289 . S
O1502 C1501 1.235 . S
C1503 C1505 1.400 . S
C1503 N1506 1.351 . S
C1503 C1508 1.501 . S
C1504 C1505 1.387 . S
C1504 N1507 1.341 . S
C1505 C1503 1.400 . S
C1505 C1504 1.387 . S
N1506 Co1497 2.022 . S
N1506 C1503 1.351 . S
N1506 N1507 1.365 . S
N1507 C1504 1.341 . S
N1507 N1506 1.365 . S
N1507 H1527 0.862 . S
C1508 C1503 1.501 . S
C1508 H1509 0.961 . S
C1508 H1510 0.961 . S
C1508 H1511 0.960 . S
H1509 C1508 0.961 . S
H1510 C1508 0.961 . S
H1511 C1508 0.960 . S
C1512 N1513 1.342 . S
C1512 C1516 1.401 . S
C1512 C1517 1.499 . S
N1513 Co1496 1.989 . S
N1513 C1512 1.342 . S
N1513 N1514 1.388 . S
N1514 Co1497 1.993 . S
N1514 N1513 1.388 . S
N1514 C1515 1.346 . S
C1515 N1514 1.346 . S
C1515 C1516 1.396 . S
C1515 C1525 1.510 . S
C1516 C1512 1.401 . S
C1516 C1515 1.396 . S
C1517 C1512 1.499 . S
C1517 H1518 0.959 . S
C1517 H1519 0.960 . S
C1517 H1520 0.961 . S
H1518 C1517 0.959 . S
H1519 C1517 0.960 . S
H1520 C1517 0.961 . S
O1521 Co1496 1.967 . S
O1521 C1529 1.258 . S
O1522 Co1497 1.941 . S
O1522 C1529 1.266 . S
H1523 C1525 0.959 . S
H1524 C1525 0.961 . S
C1525 C1515 1.510 . S
C1525 H1523 0.959 . S
C1525 H1524 0.961 . S
C1525 H1526 0.960 . S
H1526 C1525 0.960 . S
H1527 N1507 0.862 . S
O1528 Co1496 1.920 . S
O1528 C1501 1.289 . S
C1529 O1521 1.258 . S
C1529 O1522 1.266 . S
Co1530 O1533 1.970 . S
Co1530 N1547 1.989 . S
Co1530 O1555 1.967 . S
Co1530 O1562 1.920 . S
Co1531 O1534 1.966 . S
Co1531 N1540 2.022 . S
Co1531 N1548 1.993 . S
Co1531 O1556 1.941 . S
C1532 O1533 1.258 . S
C1532 O1534 1.263 . S
O1533 Co1530 1.970 . S
O1533 C1532 1.258 . S
O1534 Co1531 1.966 . S
O1534 C1532 1.263 . S
C1535 O1536 1.235 . S
C1535 O1562 1.289 . S
O1536 C1535 1.235 . S
C1537 C1539 1.400 . S
C1537 N1540 1.351 . S
C1537 C1542 1.501 . S
C1538 C1539 1.387 . S
C1538 N1541 1.341 . S
C1539 C1537 1.400 . S
C1539 C1538 1.387 . S
N1540 Co1531 2.022 . S
N1540 C1537 1.351 . S
N1540 N1541 1.365 . S
N1541 C1538 1.341 . S
N1541 N1540 1.365 . S
N1541 H1561 0.862 . S
C1542 C1537 1.501 . S
C1542 H1543 0.961 . S
C1542 H1544 0.961 . S
C1542 H1545 0.960 . S
H1543 C1542 0.961 . S
H1544 C1542 0.961 . S
H1545 C1542 0.960 . S
C1546 N1547 1.342 . S
C1546 C1550 1.401 . S
C1546 C1551 1.499 . S
N1547 Co1530 1.989 . S
N1547 C1546 1.342 . S
N1547 N1548 1.388 . S
N1548 Co1531 1.993 . S
N1548 N1547 1.388 . S
N1548 C1549 1.346 . S
C1549 N1548 1.346 . S
C1549 C1550 1.396 . S
C1549 C1559 1.510 . S
C1550 C1546 1.401 . S
C1550 C1549 1.396 . S
C1551 C1546 1.499 . S
C1551 H1552 0.959 . S
C1551 H1553 0.960 . S
C1551 H1554 0.961 . S
H1552 C1551 0.959 . S
H1553 C1551 0.960 . S
H1554 C1551 0.961 . S
O1555 Co1530 1.967 . S
O1555 C1563 1.258 . S
O1556 Co1531 1.941 . S
O1556 C1563 1.266 . S
H1557 C1559 0.959 . S
H1558 C1559 0.961 . S
C1559 C1549 1.510 . S
C1559 H1557 0.959 . S
C1559 H1558 0.961 . S
C1559 H1560 0.960 . S
H1560 C1559 0.960 . S
H1561 N1541 0.862 . S
O1562 Co1530 1.920 . S
O1562 C1535 1.289 . S
C1563 O1555 1.258 . S
C1563 O1556 1.266 . S
Co1564 O1567 1.970 . S
Co1564 N1581 1.989 . S
Co1564 O1589 1.967 . S
Co1564 O1596 1.920 . S
Co1565 O1568 1.966 . S
Co1565 N1574 2.022 . S
Co1565 N1582 1.993 . S
Co1565 O1590 1.941 . S
C1566 O1567 1.258 . S
C1566 O1568 1.263 . S
O1567 Co1564 1.970 . S
O1567 C1566 1.258 . S
O1568 Co1565 1.966 . S
O1568 C1566 1.263 . S
C1569 O1570 1.235 . S
C1569 O1596 1.289 . S
O1570 C1569 1.235 . S
C1571 C1573 1.400 . S
C1571 N1574 1.351 . S
C1571 C1576 1.501 . S
C1572 C1573 1.387 . S
C1572 N1575 1.341 . S
C1573 C1571 1.400 . S
C1573 C1572 1.387 . S
N1574 Co1565 2.022 . S
N1574 C1571 1.351 . S
N1574 N1575 1.365 . S
N1575 C1572 1.341 . S
N1575 N1574 1.365 . S
N1575 H1595 0.862 . S
C1576 C1571 1.501 . S
C1576 H1577 0.961 . S
C1576 H1578 0.961 . S
C1576 H1579 0.960 . S
H1577 C1576 0.961 . S
H1578 C1576 0.961 . S
H1579 C1576 0.960 . S
C1580 N1581 1.342 . S
C1580 C1584 1.401 . S
C1580 C1585 1.499 . S
N1581 Co1564 1.989 . S
N1581 C1580 1.342 . S
N1581 N1582 1.388 . S
N1582 Co1565 1.993 . S
N1582 N1581 1.388 . S
N1582 C1583 1.346 . S
C1583 N1582 1.346 . S
C1583 C1584 1.396 . S
C1583 C1593 1.510 . S
C1584 C1580 1.401 . S
C1584 C1583 1.396 . S
C1585 C1580 1.499 . S
C1585 H1586 0.959 . S
C1585 H1587 0.960 . S
C1585 H1588 0.961 . S
H1586 C1585 0.959 . S
H1587 C1585 0.960 . S
H1588 C1585 0.961 . S
O1589 Co1564 1.967 . S
O1589 C1597 1.258 . S
O1590 Co1565 1.941 . S
O1590 C1597 1.266 . S
H1591 C1593 0.959 . S
H1592 C1593 0.961 . S
C1593 C1583 1.510 . S
C1593 H1591 0.959 . S
C1593 H1592 0.961 . S
C1593 H1594 0.960 . S
H1594 C1593 0.960 . S
H1595 N1575 0.862 . S
O1596 Co1564 1.920 . S
O1596 C1569 1.289 . S
C1597 O1589 1.258 . S
C1597 O1590 1.266 . S
Co1598 O1601 1.970 . S
Co1598 N1615 1.989 . S
Co1598 O1623 1.967 . S
Co1598 O1630 1.920 . S
Co1599 O1602 1.966 . S
Co1599 N1608 2.022 . S
Co1599 N1616 1.993 . S
Co1599 O1624 1.941 . S
C1600 O1601 1.258 . S
C1600 O1602 1.263 . S
O1601 Co1598 1.970 . S
O1601 C1600 1.258 . S
O1602 Co1599 1.966 . S
O1602 C1600 1.263 . S
C1603 O1604 1.235 . S
C1603 O1630 1.289 . S
O1604 C1603 1.235 . S
C1605 C1607 1.400 . S
C1605 N1608 1.351 . S
C1605 C1610 1.501 . S
C1606 C1607 1.387 . S
C1606 N1609 1.341 . S
C1607 C1605 1.400 . S
C1607 C1606 1.387 . S
N1608 Co1599 2.022 . S
N1608 C1605 1.351 . S
N1608 N1609 1.365 . S
N1609 C1606 1.341 . S
N1609 N1608 1.365 . S
N1609 H1629 0.862 . S
C1610 C1605 1.501 . S
C1610 H1611 0.961 . S
C1610 H1612 0.961 . S
C1610 H1613 0.960 . S
H1611 C1610 0.961 . S
H1612 C1610 0.961 . S
H1613 C1610 0.960 . S
C1614 N1615 1.342 . S
C1614 C1618 1.401 . S
C1614 C1619 1.499 . S
N1615 Co1598 1.989 . S
N1615 C1614 1.342 . S
N1615 N1616 1.388 . S
N1616 Co1599 1.993 . S
N1616 N1615 1.388 . S
N1616 C1617 1.346 . S
C1617 N1616 1.346 . S
C1617 C1618 1.396 . S
C1617 C1627 1.510 . S
C1618 C1614 1.401 . S
C1618 C1617 1.396 . S
C1619 C1614 1.499 . S
C1619 H1620 0.959 . S
C1619 H1621 0.960 . S
C1619 H1622 0.961 . S
H1620 C1619 0.959 . S
H1621 C1619 0.960 . S
H1622 C1619 0.961 . S
O1623 Co1598 1.967 . S
O1623 C1631 1.258 . S
O1624 Co1599 1.941 . S
O1624 C1631 1.266 . S
H1625 C1627 0.959 . S
H1626 C1627 0.961 . S
C1627 C1617 1.510 . S
C1627 H1625 0.959 . S
C1627 H1626 0.961 . S
C1627 H1628 0.960 . S
H1628 C1627 0.960 . S
H1629 N1609 0.862 . S
O1630 Co1598 1.920 . S
O1630 C1603 1.289 . S
C1631 O1623 1.258 . S
C1631 O1624 1.266 . S
H1632 C1638 0.930 . S
H1633 C1641 0.930 . S
H1634 C1642 0.930 . S
H1635 C1643 0.930 . S
H1636 C1646 0.930 . S
H1637 C1647 0.930 . S
C1638 H1632 0.930 . S
C1638 C1639 1.355 . S
C1638 C1640 1.415 1_554 S
C1639 C1638 1.355 . S
C1639 C1641 1.419 . S
C1640 C1638 1.415 1_556 S
C1640 C1645 1.425 . S
C1640 C1647 1.409 . S
C1641 H1633 0.930 . S
C1641 C1639 1.419 . S
C1641 C1642 1.362 1_554 S
C1642 H1634 0.930 . S
C1642 C1641 1.362 1_556 S
C1642 C1645 1.409 . S
C1643 H1635 0.930 . S
C1643 C1644 1.355 . S
C1643 C1645 1.415 . S
C1644 C1643 1.355 . S
C1644 C1646 1.419 . S
C1645 C1640 1.425 . S
C1645 C1642 1.409 . S
C1645 C1643 1.415 . S
C1646 H1636 0.930 . S
C1646 C1644 1.419 . S
C1646 C1647 1.362 . S
C1647 H1637 0.930 . S
C1647 C1640 1.409 . S
C1647 C1646 1.362 . S
H1648 C1654 0.930 . S
H1649 C1657 0.930 . S
H1650 C1658 0.930 . S
H1651 C1659 0.930 . S
H1652 C1662 0.930 . S
H1653 C1663 0.930 . S
C1654 H1648 0.930 . S
C1654 C1655 1.355 . S
C1654 C1656 1.415 . S
C1655 C1654 1.355 . S
C1655 C1657 1.419 . S
C1656 C1654 1.415 . S
C1656 C1661 1.425 . S
C1656 C1663 1.409 . S
C1657 H1649 0.930 . S
C1657 C1655 1.419 . S
C1657 C1658 1.362 . S
C1658 H1650 0.930 . S
C1658 C1657 1.362 . S
C1658 C1661 1.409 . S
C1659 H1651 0.930 . S
C1659 C1660 1.355 . S
C1659 C1661 1.415 . S
C1660 C1659 1.355 . S
C1660 C1662 1.419 . S
C1661 C1656 1.425 . S
C1661 C1658 1.409 . S
C1661 C1659 1.415 . S
C1662 H1652 0.930 . S
C1662 C1660 1.419 . S
C1662 C1663 1.362 . S
C1663 H1653 0.930 . S
C1663 C1656 1.409 . S
C1663 C1662 1.362 . S
H1664 C1670 0.930 . S
H1665 C1673 0.930 . S
H1666 C1674 0.930 . S
H1667 C1675 0.930 . S
H1668 C1678 0.930 . S
H1669 C1679 0.930 . S
C1670 H1664 0.930 . S
C1670 C1671 1.355 . S
C1670 C1672 1.415 . S
C1671 C1670 1.355 . S
C1671 C1673 1.419 . S
C1672 C1670 1.415 . S
C1672 C1677 1.425 . S
C1672 C1679 1.409 . S
C1673 H1665 0.930 . S
C1673 C1671 1.419 . S
C1673 C1674 1.362 . S
C1674 H1666 0.930 . S
C1674 C1673 1.362 . S
C1674 C1677 1.409 . S
C1675 H1667 0.930 . S
C1675 C1676 1.355 . S
C1675 C1677 1.415 . S
C1676 C1675 1.355 . S
C1676 C1678 1.419 . S
C1677 C1672 1.425 . S
C1677 C1674 1.409 . S
C1677 C1675 1.415 . S
C1678 H1668 0.930 . S
C1678 C1676 1.419 . S
C1678 C1679 1.362 . S
C1679 H1669 0.930 . S
C1679 C1672 1.409 . S
C1679 C1678 1.362 . S
H1680 C1686 0.930 . S
H1681 C1689 0.930 . S
H1682 C1690 0.930 . S
H1683 C1691 0.930 . S
H1684 C1694 0.930 . S
H1685 C1695 0.930 . S
C1686 H1680 0.930 . S
C1686 C1687 1.355 . S
C1686 C1688 1.415 . S
C1687 C1686 1.355 . S
C1687 C1689 1.419 . S
C1688 C1686 1.415 . S
C1688 C1693 1.425 . S
C1688 C1695 1.409 . S
C1689 H1681 0.930 . S
C1689 C1687 1.419 . S
C1689 C1690 1.362 . S
C1690 H1682 0.930 . S
C1690 C1689 1.362 . S
C1690 C1693 1.409 . S
C1691 H1683 0.930 . S
C1691 C1692 1.355 . S
C1691 C1693 1.415 . S
C1692 C1691 1.355 . S
C1692 C1694 1.419 . S
C1693 C1688 1.425 . S
C1693 C1690 1.409 . S
C1693 C1691 1.415 . S
C1694 H1684 0.930 . S
C1694 C1692 1.419 . S
C1694 C1695 1.362 . S
C1695 H1685 0.930 . S
C1695 C1688 1.409 . S
C1695 C1694 1.362 . S
H1696 C1702 0.930 . S
H1697 C1705 0.930 . S
H1698 C1706 0.930 . S
H1699 C1707 0.930 . S
H1700 C1710 0.930 . S
H1701 C1711 0.930 . S
C1702 H1696 0.930 . S
C1702 C1703 1.355 . S
C1702 C1704 1.415 . S
C1703 C1702 1.355 . S
C1703 C1705 1.419 . S
C1704 C1702 1.415 . S
C1704 C1709 1.425 . S
C1704 C1711 1.409 . S
C1705 H1697 0.930 . S
C1705 C1703 1.419 . S
C1705 C1706 1.362 . S
C1706 H1698 0.930 . S
C1706 C1705 1.362 . S
C1706 C1709 1.409 . S
C1707 H1699 0.930 . S
C1707 C1708 1.355 . S
C1707 C1709 1.415 . S
C1708 C1707 1.355 . S
C1708 C1710 1.419 . S
C1709 C1704 1.425 . S
C1709 C1706 1.409 . S
C1709 C1707 1.415 . S
C1710 H1700 0.930 . S
C1710 C1708 1.419 . S
C1710 C1711 1.362 . S
C1711 H1701 0.930 . S
C1711 C1704 1.409 . S
C1711 C1710 1.362 . S
H1712 C1718 0.930 . S
H1713 C1721 0.930 . S
H1714 C1722 0.930 . S
H1715 C1723 0.930 . S
H1716 C1726 0.930 . S
H1717 C1727 0.930 . S
C1718 H1712 0.930 . S
C1718 C1719 1.355 . S
C1718 C1720 1.415 . S
C1719 C1718 1.355 . S
C1719 C1721 1.419 . S
C1720 C1718 1.415 . S
C1720 C1725 1.425 . S
C1720 C1727 1.409 . S
C1721 H1713 0.930 . S
C1721 C1719 1.419 . S
C1721 C1722 1.362 . S
C1722 H1714 0.930 . S
C1722 C1721 1.362 . S
C1722 C1725 1.409 . S
C1723 H1715 0.930 . S
C1723 C1724 1.355 . S
C1723 C1725 1.415 . S
C1724 C1723 1.355 . S
C1724 C1726 1.419 . S
C1725 C1720 1.425 . S
C1725 C1722 1.409 . S
C1725 C1723 1.415 . S
C1726 H1716 0.930 . S
C1726 C1724 1.419 . S
C1726 C1727 1.362 . S
C1727 H1717 0.930 . S
C1727 C1720 1.409 . S
C1727 C1726 1.362 . S
H1728 C1734 0.927 1_554 S
H1729 C1737 0.930 . S
H1730 C1738 0.930 . S
H1731 C1739 0.930 . S
H1732 C1742 0.930 . S
H1733 C1743 0.930 . S
C1734 H1728 0.927 1_556 S
C1734 C1735 1.355 . S
C1734 C1736 1.415 1_556 S
C1735 C1734 1.355 . S
C1735 C1737 1.419 . S
C1736 C1734 1.415 1_554 S
C1736 C1741 1.425 . S
C1736 C1743 1.409 . S
C1737 H1729 0.930 . S
C1737 C1735 1.419 . S
C1737 C1738 1.362 . S
C1738 H1730 0.930 . S
C1738 C1737 1.362 . S
C1738 C1741 1.409 1_556 S
C1739 H1731 0.930 . S
C1739 C1740 1.355 . S
C1739 C1741 1.415 . S
C1740 C1739 1.355 . S
C1740 C1742 1.419 . S
C1741 C1736 1.425 . S
C1741 C1738 1.409 1_554 S
C1741 C1739 1.415 . S
C1742 H1732 0.930 . S
C1742 C1740 1.419 . S
C1742 C1743 1.362 . S
C1743 H1733 0.930 . S
C1743 C1736 1.409 . S
C1743 C1742 1.362 . S
H1744 C1750 0.930 . S
H1745 C1753 0.930 . S
H1746 C1754 0.930 . S
H1747 C1755 0.930 . S
H1748 C1758 0.930 . S
H1749 C1759 0.930 . S
C1750 H1744 0.930 . S
C1750 C1751 1.355 . S
C1750 C1752 1.415 . S
C1751 C1750 1.355 . S
C1751 C1753 1.419 . S
C1752 C1750 1.415 . S
C1752 C1757 1.425 . S
C1752 C1759 1.409 . S
C1753 H1745 0.930 . S
C1753 C1751 1.419 . S
C1753 C1754 1.362 . S
C1754 H1746 0.930 . S
C1754 C1753 1.362 . S
C1754 C1757 1.409 . S
C1755 H1747 0.930 . S
C1755 C1756 1.355 . S
C1755 C1757 1.415 . S
C1756 C1755 1.355 . S
C1756 C1758 1.419 . S
C1757 C1752 1.425 . S
C1757 C1754 1.409 . S
C1757 C1755 1.415 . S
C1758 H1748 0.930 . S
C1758 C1756 1.419 . S
C1758 C1759 1.362 . S
C1759 H1749 0.930 . S
C1759 C1752 1.409 . S
C1759 C1758 1.362 . S
H1760 C1766 0.930 . S
H1761 C1769 0.930 . S
H1762 C1770 0.930 . S
H1763 C1771 0.930 . S
H1764 C1774 0.930 . S
H1765 C1775 0.927 1_455 S
C1766 H1760 0.930 . S
C1766 C1767 1.355 . S
C1766 C1768 1.415 . S
C1767 C1766 1.355 . S
C1767 C1769 1.419 . S
C1768 C1766 1.415 . S
C1768 C1773 1.425 . S
C1768 C1775 1.451 . S
C1769 H1761 0.930 . S
C1769 C1767 1.419 . S
C1769 C1770 1.362 . S
C1770 H1762 0.930 . S
C1770 C1769 1.362 . S
C1770 C1773 1.409 . S
C1771 H1763 0.930 . S
C1771 C1772 1.355 1_655 S
C1771 C1773 1.415 . S
C1772 C1771 1.355 1_455 S
C1772 C1774 1.419 . S
C1773 C1768 1.425 . S
C1773 C1770 1.409 . S
C1773 C1771 1.415 . S
C1774 H1764 0.930 . S
C1774 C1772 1.419 . S
C1774 C1775 1.324 1_455 S
C1775 H1765 0.927 1_655 S
C1775 C1768 1.451 . S
C1775 C1774 1.324 1_655 S
H1776 C1782 0.930 . S
H1777 C1785 0.930 . S
H1778 C1786 0.930 . S
H1779 C1787 0.930 . S
H1780 C1790 0.930 . S
H1781 C1791 0.930 . S
C1782 H1776 0.930 . S
C1782 C1783 1.355 . S
C1782 C1784 1.415 . S
C1783 C1782 1.355 . S
C1783 C1785 1.419 . S
C1784 C1782 1.415 . S
C1784 C1789 1.425 . S
C1784 C1791 1.409 . S
C1785 H1777 0.930 . S
C1785 C1783 1.419 . S
C1785 C1786 1.362 . S
C1786 H1778 0.930 . S
C1786 C1785 1.362 . S
C1786 C1789 1.409 . S
C1787 H1779 0.930 . S
C1787 C1788 1.355 . S
C1787 C1789 1.415 . S
C1788 C1787 1.355 . S
C1788 C1790 1.419 . S
C1789 C1784 1.425 . S
C1789 C1786 1.409 . S
C1789 C1787 1.415 . S
C1790 H1780 0.930 . S
C1790 C1788 1.419 . S
C1790 C1791 1.362 . S
C1791 H1781 0.930 . S
C1791 C1784 1.409 . S
C1791 C1790 1.362 . S
H1792 C1798 0.930 . S
H1793 C1801 0.930 . S
H1794 C1802 0.930 . S
H1795 C1803 0.930 . S
H1796 C1806 0.930 . S
H1797 C1807 0.930 . S
C1798 H1792 0.930 . S
C1798 C1799 1.355 . S
C1798 C1800 1.415 . S
C1799 C1798 1.355 . S
C1799 C1801 1.419 . S
C1800 C1798 1.415 . S
C1800 C1805 1.425 . S
C1800 C1807 1.409 . S
C1801 H1793 0.930 . S
C1801 C1799 1.419 . S
C1801 C1802 1.362 . S
C1802 H1794 0.930 . S
C1802 C1801 1.362 . S
C1802 C1805 1.409 . S
C1803 H1795 0.930 . S
C1803 C1804 1.355 . S
C1803 C1805 1.415 . S
C1804 C1803 1.355 . S
C1804 C1806 1.419 . S
C1805 C1800 1.425 . S
C1805 C1802 1.409 . S
C1805 C1803 1.415 . S
C1806 H1796 0.930 . S
C1806 C1804 1.419 . S
C1806 C1807 1.362 . S
C1807 H1797 0.930 . S
C1807 C1800 1.409 . S
C1807 C1806 1.362 . S
H1808 C1814 0.930 . S
H1809 C1817 0.930 . S
H1810 C1818 0.930 . S
H1811 C1819 0.930 . S
H1812 C1822 0.930 . S
H1813 C1823 0.930 . S
C1814 H1808 0.930 . S
C1814 C1815 1.355 . S
C1814 C1816 1.415 . S
C1815 C1814 1.355 . S
C1815 C1817 1.419 . S
C1816 C1814 1.415 . S
C1816 C1821 1.425 . S
C1816 C1823 1.409 . S
C1817 H1809 0.930 . S
C1817 C1815 1.419 . S
C1817 C1818 1.362 . S
C1818 H1810 0.930 . S
C1818 C1817 1.362 . S
C1818 C1821 1.409 . S
C1819 H1811 0.930 . S
C1819 C1820 1.355 . S
C1819 C1821 1.415 . S
C1820 C1819 1.355 . S
C1820 C1822 1.419 . S
C1821 C1816 1.425 . S
C1821 C1818 1.409 . S
C1821 C1819 1.415 . S
C1822 H1812 0.930 . S
C1822 C1820 1.419 . S
C1822 C1823 1.362 . S
C1823 H1813 0.930 . S
C1823 C1816 1.409 . S
C1823 C1822 1.362 . S
H1824 C1830 0.930 . S
H1825 C1833 0.930 . S
H1826 C1834 0.930 . S
H1827 C1835 0.930 . S
H1828 C1838 0.930 . S
H1829 C1839 0.930 . S
C1830 H1824 0.930 . S
C1830 C1831 1.355 1_655 S
C1830 C1832 1.415 . S
C1831 C1830 1.355 1_455 S
C1831 C1833 1.419 . S
C1832 C1830 1.415 . S
C1832 C1837 1.425 . S
C1832 C1839 1.409 . S
C1833 H1825 0.930 . S
C1833 C1831 1.419 . S
C1833 C1834 1.362 1_455 S
C1834 H1826 0.930 . S
C1834 C1833 1.362 1_655 S
C1834 C1837 1.409 . S
C1835 H1827 0.930 . S
C1835 C1836 1.355 . S
C1835 C1837 1.415 . S
C1836 C1835 1.355 . S
C1836 C1838 1.419 . S
C1837 C1832 1.425 . S
C1837 C1834 1.409 . S
C1837 C1835 1.415 . S
C1838 H1828 0.930 . S
C1838 C1836 1.419 . S
C1838 C1839 1.362 . S
C1839 H1829 0.930 . S
C1839 C1832 1.409 . S
C1839 C1838 1.362 . S
H1840 C1846 0.930 . S
H1841 C1849 0.930 . S
H1842 C1850 0.930 . S
H1843 C1851 0.930 . S
H1844 C1854 0.930 . S
H1845 C1855 0.930 . S
C1846 H1840 0.930 . S
C1846 C1847 1.355 . S
C1846 C1848 1.415 . S
C1847 C1846 1.355 . S
C1847 C1849 1.419 . S
C1848 C1846 1.415 . S
C1848 C1853 1.425 . S
C1848 C1855 1.409 . S
C1849 H1841 0.930 . S
C1849 C1847 1.419 . S
C1849 C1850 1.362 . S
C1850 H1842 0.930 . S
C1850 C1849 1.362 . S
C1850 C1853 1.409 . S
C1851 H1843 0.930 . S
C1851 C1852 1.355 . S
C1851 C1853 1.415 . S
C1852 C1851 1.355 . S
C1852 C1854 1.419 . S
C1853 C1848 1.425 . S
C1853 C1850 1.409 . S
C1853 C1851 1.415 . S
C1854 H1844 0.930 . S
C1854 C1852 1.419 . S
C1854 C1855 1.362 . S
C1855 H1845 0.930 . S
C1855 C1848 1.409 . S
C1855 C1854 1.362 . S
H1856 C1862 0.930 . S
H1857 C1865 0.930 . S
H1858 C1866 0.930 . S
H1859 C1867 0.930 . S
H1860 C1870 0.930 . S
H1861 C1871 0.930 . S
C1862 H1856 0.930 . S
C1862 C1863 1.355 . S
C1862 C1864 1.415 . S
C1863 C1862 1.355 . S
C1863 C1865 1.419 . S
C1864 C1862 1.415 . S
C1864 C1869 1.425 . S
C1864 C1871 1.409 . S
C1865 H1857 0.930 . S
C1865 C1863 1.419 . S
C1865 C1866 1.362 . S
C1866 H1858 0.930 . S
C1866 C1865 1.362 . S
C1866 C1869 1.409 . S
C1867 H1859 0.930 . S
C1867 C1868 1.355 . S
C1867 C1869 1.415 . S
C1868 C1867 1.355 . S
C1868 C1870 1.419 . S
C1869 C1864 1.425 . S
C1869 C1866 1.409 . S
C1869 C1867 1.415 . S
C1870 H1860 0.930 . S
C1870 C1868 1.419 . S
C1870 C1871 1.362 . S
C1871 H1861 0.930 . S
C1871 C1864 1.409 . S
C1871 C1870 1.362 . S
H1872 C1878 0.930 . S
H1873 C1881 0.930 . S
H1874 C1882 0.930 . S
H1875 C1883 0.930 . S
H1876 C1886 0.930 . S
H1877 C1887 0.930 . S
C1878 H1872 0.930 . S
C1878 C1879 1.355 . S
C1878 C1880 1.415 . S
C1879 C1878 1.355 . S
C1879 C1881 1.419 . S
C1880 C1878 1.415 . S
C1880 C1885 1.425 . S
C1880 C1887 1.409 . S
C1881 H1873 0.930 . S
C1881 C1879 1.419 . S
C1881 C1882 1.362 . S
C1882 H1874 0.930 . S
C1882 C1881 1.362 . S
C1882 C1885 1.409 . S
C1883 H1875 0.930 . S
C1883 C1884 1.355 . S
C1883 C1885 1.415 . S
C1884 C1883 1.355 . S
C1884 C1886 1.419 . S
C1885 C1880 1.425 . S
C1885 C1882 1.409 . S
C1885 C1883 1.415 . S
C1886 H1876 0.930 . S
C1886 C1884 1.419 . S
C1886 C1887 1.362 . S
C1887 H1877 0.930 . S
C1887 C1880 1.409 . S
C1887 C1886 1.362 . S
H1888 C1894 0.930 . S
H1889 C1897 0.930 . S
H1890 C1898 0.930 . S
H1891 C1899 0.930 1_545 S
H1892 C1902 0.930 . S
H1893 C1903 0.930 . S
C1894 H1888 0.930 . S
C1894 C1895 1.355 . S
C1894 C1896 1.415 . S
C1895 C1894 1.355 . S
C1895 C1897 1.419 . S
C1896 C1894 1.415 . S
C1896 C1901 1.425 . S
C1896 C1903 1.409 . S
C1897 H1889 0.930 . S
C1897 C1895 1.419 . S
C1897 C1898 1.362 . S
C1898 H1890 0.930 . S
C1898 C1897 1.362 . S
C1898 C1901 1.409 . S
C1899 H1891 0.930 1_565 S
C1899 C1900 1.355 1_565 S
C1899 C1901 1.415 . S
C1900 C1899 1.355 1_545 S
C1900 C1902 1.419 . S
C1901 C1896 1.425 . S
C1901 C1898 1.409 . S
C1901 C1899 1.415 . S
C1902 H1892 0.930 . S
C1902 C1900 1.419 . S
C1902 C1903 1.362 1_545 S
C1903 H1893 0.930 . S
C1903 C1896 1.409 . S
C1903 C1902 1.362 1_565 S
H1904 C1910 0.930 . S
H1905 C1913 0.930 . S
H1906 C1914 0.930 . S
H1907 C1915 0.930 . S
H1908 C1918 0.930 . S
H1909 C1919 0.930 . S
C1910 H1904 0.930 . S
C1910 C1911 1.355 . S
C1910 C1912 1.415 . S
C1911 C1910 1.355 . S
C1911 C1913 1.419 . S
C1912 C1910 1.415 . S
C1912 C1917 1.425 . S
C1912 C1919 1.409 . S
C1913 H1905 0.930 . S
C1913 C1911 1.419 . S
C1913 C1914 1.362 . S
C1914 H1906 0.930 . S
C1914 C1913 1.362 . S
C1914 C1917 1.409 . S
C1915 H1907 0.930 . S
C1915 C1916 1.355 . S
C1915 C1917 1.415 . S
C1916 C1915 1.355 . S
C1916 C1918 1.419 . S
C1917 C1912 1.425 . S
C1917 C1914 1.409 . S
C1917 C1915 1.415 . S
C1918 H1908 0.930 . S
C1918 C1916 1.419 . S
C1918 C1919 1.362 . S
C1919 H1909 0.930 . S
C1919 C1912 1.409 . S
C1919 C1918 1.362 . S
H1920 C1926 0.930 . S
H1921 C1929 0.930 . S
H1922 C1930 0.930 . S
H1923 C1931 0.930 . S
H1924 C1934 0.930 . S
H1925 C1935 0.930 . S
C1926 H1920 0.930 . S
C1926 C1927 1.355 . S
C1926 C1928 1.415 . S
C1927 C1926 1.355 . S
C1927 C1929 1.419 . S
C1928 C1926 1.415 . S
C1928 C1933 1.425 . S
C1928 C1935 1.409 . S
C1929 H1921 0.930 . S
C1929 C1927 1.419 . S
C1929 C1930 1.362 . S
C1930 H1922 0.930 . S
C1930 C1929 1.362 . S
C1930 C1933 1.409 . S
C1931 H1923 0.930 . S
C1931 C1932 1.355 . S
C1931 C1933 1.415 . S
C1932 C1931 1.355 . S
C1932 C1934 1.419 . S
C1933 C1928 1.425 . S
C1933 C1930 1.409 . S
C1933 C1931 1.415 . S
C1934 H1924 0.930 . S
C1934 C1932 1.419 . S
C1934 C1935 1.362 . S
C1935 H1925 0.930 . S
C1935 C1928 1.409 . S
C1935 C1934 1.362 . S
H1936 C1942 0.930 . S
H1937 C1945 0.930 . S
H1938 C1946 0.930 . S
H1939 C1947 0.930 . S
H1940 C1950 0.930 . S
H1941 C1951 0.930 . S
C1942 H1936 0.930 . S
C1942 C1943 1.355 . S
C1942 C1944 1.415 . S
C1943 C1942 1.355 . S
C1943 C1945 1.419 . S
C1944 C1942 1.415 . S
C1944 C1949 1.425 . S
C1944 C1951 1.409 . S
C1945 H1937 0.930 . S
C1945 C1943 1.419 . S
C1945 C1946 1.362 . S
C1946 H1938 0.930 . S
C1946 C1945 1.362 . S
C1946 C1949 1.409 . S
C1947 H1939 0.930 . S
C1947 C1948 1.355 . S
C1947 C1949 1.415 . S
C1948 C1947 1.355 . S
C1948 C1950 1.419 . S
C1949 C1944 1.425 . S
C1949 C1946 1.409 . S
C1949 C1947 1.415 . S
C1950 H1940 0.930 . S
C1950 C1948 1.419 . S
C1950 C1951 1.362 . S
C1951 H1941 0.930 . S
C1951 C1944 1.409 . S
C1951 C1950 1.362 . S
H1952 C1958 0.930 . S
H1953 C1961 0.930 . S
H1954 C1962 0.930 . S
H1955 C1963 0.930 . S
H1956 C1966 0.930 . S
H1957 C1967 0.930 . S
C1958 H1952 0.930 . S
C1958 C1959 1.355 . S
C1958 C1960 1.415 . S
C1959 C1958 1.355 . S
C1959 C1961 1.419 . S
C1960 C1958 1.415 . S
C1960 C1965 1.425 . S
C1960 C1967 1.409 . S
C1961 H1953 0.930 . S
C1961 C1959 1.419 . S
C1961 C1962 1.362 . S
C1962 H1954 0.930 . S
C1962 C1961 1.362 . S
C1962 C1965 1.409 . S
C1963 H1955 0.930 . S
C1963 C1964 1.355 . S
C1963 C1965 1.415 . S
C1964 C1963 1.355 . S
C1964 C1966 1.419 . S
C1965 C1960 1.425 . S
C1965 C1962 1.409 . S
C1965 C1963 1.415 . S
C1966 H1956 0.930 . S
C1966 C1964 1.419 . S
C1966 C1967 1.362 . S
C1967 H1957 0.930 . S
C1967 C1960 1.409 . S
C1967 C1966 1.362 . S
H1968 C1974 0.930 . S
H1969 C1977 0.930 . S
H1970 C1978 0.930 . S
H1971 C1979 0.930 . S
H1972 C1982 0.930 . S
H1973 C1983 0.930 . S
C1974 H1968 0.930 . S
C1974 C1975 1.355 . S
C1974 C1976 1.415 1_565 S
C1975 C1974 1.355 . S
C1975 C1977 1.419 . S
C1976 C1974 1.415 1_545 S
C1976 C1981 1.425 . S
C1976 C1983 1.409 . S
C1977 H1969 0.930 . S
C1977 C1975 1.419 . S
C1977 C1978 1.362 1_565 S
C1978 H1970 0.930 . S
C1978 C1977 1.362 1_545 S
C1978 C1981 1.409 . S
C1979 H1971 0.930 . S
C1979 C1980 1.355 . S
C1979 C1981 1.415 . S
C1980 C1979 1.355 . S
C1980 C1982 1.419 . S
C1981 C1976 1.425 . S
C1981 C1978 1.409 . S
C1981 C1979 1.415 . S
C1982 H1972 0.930 . S
C1982 C1980 1.419 . S
C1982 C1983 1.362 . S
C1983 H1973 0.930 . S
C1983 C1976 1.409 . S
C1983 C1982 1.362 . S
H1984 C1990 0.930 . S
H1985 C1993 0.930 . S
H1986 C1994 0.930 . S
H1987 C1995 0.930 . S
H1988 C1998 0.930 . S
H1989 C1999 0.930 . S
C1990 H1984 0.930 . S
C1990 C1991 1.355 . S
C1990 C1992 1.415 . S
C1991 C1990 1.355 . S
C1991 C1993 1.419 . S
C1992 C1990 1.415 . S
C1992 C1997 1.425 . S
C1992 C1999 1.409 . S
C1993 H1985 0.930 . S
C1993 C1991 1.419 . S
C1993 C1994 1.362 . S
C1994 H1986 0.930 . S
C1994 C1993 1.362 . S
C1994 C1997 1.409 . S
C1995 H1987 0.930 . S
C1995 C1996 1.355 . S
C1995 C1997 1.415 . S
C1996 C1995 1.355 . S
C1996 C1998 1.419 . S
C1997 C1992 1.425 . S
C1997 C1994 1.409 . S
C1997 C1995 1.415 . S
C1998 H1988 0.930 . S
C1998 C1996 1.419 . S
C1998 C1999 1.362 . S
C1999 H1989 0.930 . S
C1999 C1992 1.409 . S
C1999 C1998 1.362 . S
H2000 C2006 0.930 . S
H2001 C2009 0.930 . S
H2002 C2010 0.930 . S
H2003 C2011 0.930 . S
H2004 C2014 0.930 . S
H2005 C2015 0.930 . S
C2006 H2000 0.930 . S
C2006 C2007 1.355 . S
C2006 C2008 1.415 . S
C2007 C2006 1.355 . S
C2007 C2009 1.419 . S
C2008 C2006 1.415 . S
C2008 C2013 1.425 . S
C2008 C2015 1.409 . S
C2009 H2001 0.930 . S
C2009 C2007 1.419 . S
C2009 C2010 1.362 . S
C2010 H2002 0.930 . S
C2010 C2009 1.362 . S
C2010 C2013 1.409 . S
C2011 H2003 0.930 . S
C2011 C2012 1.355 . S
C2011 C2013 1.415 . S
C2012 C2011 1.355 . S
C2012 C2014 1.419 . S
C2013 C2008 1.425 . S
C2013 C2010 1.409 . S
C2013 C2011 1.415 . S
C2014 H2004 0.930 . S
C2014 C2012 1.419 . S
C2014 C2015 1.362 . S
C2015 H2005 0.930 . S
C2015 C2008 1.409 . S
C2015 C2014 1.362 . S
H2016 C2022 0.930 . S
H2017 C2025 0.930 . S
H2018 C2026 0.930 . S
H2019 C2027 0.930 . S
H2020 C2030 0.930 . S
H2021 C2031 0.930 . S
C2022 H2016 0.930 . S
C2022 C2023 1.355 . S
C2022 C2024 1.415 . S
C2023 C2022 1.355 . S
C2023 C2025 1.419 . S
C2024 C2022 1.415 . S
C2024 C2029 1.425 . S
C2024 C2031 1.409 . S
C2025 H2017 0.930 . S
C2025 C2023 1.419 . S
C2025 C2026 1.362 . S
C2026 H2018 0.930 . S
C2026 C2025 1.362 . S
C2026 C2029 1.409 . S
C2027 H2019 0.930 . S
C2027 C2028 1.355 . S
C2027 C2029 1.415 1_556 S
C2028 C2027 1.355 . S
C2028 C2030 1.419 . S
C2029 C2024 1.425 . S
C2029 C2026 1.409 . S
C2029 C2027 1.415 1_554 S
C2030 H2020 0.930 . S
C2030 C2028 1.419 . S
C2030 C2031 1.362 1_556 S
C2031 H2021 0.930 . S
C2031 C2024 1.409 . S
C2031 C2030 1.362 1_554 S
H2032 C2038 0.930 . S
H2033 C2041 0.930 . S
H2034 C2042 0.930 . S
H2035 C2043 0.930 . S
H2036 C2046 0.930 . S
H2037 C2047 0.930 . S
C2038 H2032 0.930 . S
C2038 C2039 1.355 . S
C2038 C2040 1.415 . S
C2039 C2038 1.355 . S
C2039 C2041 1.419 . S
C2040 C2038 1.415 . S
C2040 C2045 1.425 . S
C2040 C2047 1.409 . S
C2041 H2033 0.930 . S
C2041 C2039 1.419 . S
C2041 C2042 1.362 . S
C2042 H2034 0.930 . S
C2042 C2041 1.362 . S
C2042 C2045 1.409 . S
C2043 H2035 0.930 . S
C2043 C2044 1.355 . S
C2043 C2045 1.415 . S
C2044 C2043 1.355 . S
C2044 C2046 1.419 . S
C2045 C2040 1.425 . S
C2045 C2042 1.409 . S
C2045 C2043 1.415 . S
C2046 H2036 0.930 . S
C2046 C2044 1.419 . S
C2046 C2047 1.362 . S
C2047 H2037 0.930 . S
C2047 C2040 1.409 . S
C2047 C2046 1.362 . S
H2048 C2054 0.930 . S
H2049 C2057 0.930 . S
H2050 C2058 0.930 . S
H2051 C2059 0.930 . S
H2052 C2062 0.930 . S
H2053 C2063 0.930 . S
C2054 H2048 0.930 . S
C2054 C2055 1.355 . S
C2054 C2056 1.415 . S
C2055 C2054 1.355 . S
C2055 C2057 1.419 . S
C2056 C2054 1.415 . S
C2056 C2061 1.425 . S
C2056 C2063 1.409 . S
C2057 H2049 0.930 . S
C2057 C2055 1.419 . S
C2057 C2058 1.362 . S
C2058 H2050 0.930 . S
C2058 C2057 1.362 . S
C2058 C2061 1.409 . S
C2059 H2051 0.930 . S
C2059 C2060 1.355 . S
C2059 C2061 1.415 . S
C2060 C2059 1.355 . S
C2060 C2062 1.419 . S
C2061 C2056 1.425 . S
C2061 C2058 1.409 . S
C2061 C2059 1.415 . S
C2062 H2052 0.930 . S
C2062 C2060 1.419 . S
C2062 C2063 1.362 . S
C2063 H2053 0.930 . S
C2063 C2056 1.409 . S
C2063 C2062 1.362 . S
H2064 C2070 0.930 . S
H2065 C2073 0.930 . S
H2066 C2074 0.930 . S
H2067 C2075 0.930 . S
H2068 C2078 0.930 . S
H2069 C2079 0.930 . S
C2070 H2064 0.930 . S
C2070 C2071 1.355 . S
C2070 C2072 1.415 . S
C2071 C2070 1.355 . S
C2071 C2073 1.419 . S
C2072 C2070 1.415 . S
C2072 C2077 1.425 . S
C2072 C2079 1.409 . S
C2073 H2065 0.930 . S
C2073 C2071 1.419 . S
C2073 C2074 1.362 . S
C2074 H2066 0.930 . S
C2074 C2073 1.362 . S
C2074 C2077 1.409 . S
C2075 H2067 0.930 . S
C2075 C2076 1.355 . S
C2075 C2077 1.415 . S
C2076 C2075 1.355 . S
C2076 C2078 1.419 . S
C2077 C2072 1.425 . S
C2077 C2074 1.409 . S
C2077 C2075 1.415 . S
C2078 H2068 0.930 . S
C2078 C2076 1.419 . S
C2078 C2079 1.362 . S
C2079 H2069 0.930 . S
C2079 C2072 1.409 . S
C2079 C2078 1.362 . S
H2080 C2086 0.930 . S
H2081 C2089 0.930 . S
H2082 C2090 0.930 . S
H2083 C2091 0.930 . S
H2084 C2094 0.930 . S
H2085 C2095 0.930 . S
C2086 H2080 0.930 . S
C2086 C2087 1.355 . S
C2086 C2088 1.415 . S
C2087 C2086 1.355 . S
C2087 C2089 1.419 . S
C2088 C2086 1.415 . S
C2088 C2093 1.425 . S
C2088 C2095 1.409 . S
C2089 H2081 0.930 . S
C2089 C2087 1.419 . S
C2089 C2090 1.362 . S
C2090 H2082 0.930 . S
C2090 C2089 1.362 . S
C2090 C2093 1.409 . S
C2091 H2083 0.930 . S
C2091 C2092 1.355 . S
C2091 C2093 1.415 . S
C2092 C2091 1.355 . S
C2092 C2094 1.419 . S
C2093 C2088 1.425 . S
C2093 C2090 1.409 . S
C2093 C2091 1.415 . S
C2094 H2084 0.930 . S
C2094 C2092 1.419 . S
C2094 C2095 1.362 . S
C2095 H2085 0.930 . S
C2095 C2088 1.409 . S
C2095 C2094 1.362 . S
H2096 C2102 0.930 . S
H2097 C2105 0.930 . S
H2098 C2106 0.930 . S
H2099 C2107 0.930 . S
H2100 C2110 0.930 . S
H2101 C2111 0.930 . S
C2102 H2096 0.930 . S
C2102 C2103 1.355 . S
C2102 C2104 1.415 . S
C2103 C2102 1.355 . S
C2103 C2105 1.419 . S
C2104 C2102 1.415 . S
C2104 C2109 1.425 . S
C2104 C2111 1.409 . S
C2105 H2097 0.930 . S
C2105 C2103 1.419 . S
C2105 C2106 1.362 . S
C2106 H2098 0.930 . S
C2106 C2105 1.362 . S
C2106 C2109 1.409 . S
C2107 H2099 0.930 . S
C2107 C2108 1.355 . S
C2107 C2109 1.415 . S
C2108 C2107 1.355 . S
C2108 C2110 1.419 . S
C2109 C2104 1.425 . S
C2109 C2106 1.409 . S
C2109 C2107 1.415 . S
C2110 H2100 0.930 . S
C2110 C2108 1.419 . S
C2110 C2111 1.362 . S
C2111 H2101 0.930 . S
C2111 C2104 1.409 . S
C2111 C2110 1.362 . S
H2112 C2118 0.930 . S
H2113 C2121 0.930 . S
H2114 C2122 0.930 . S
H2115 C2123 0.930 . S
H2116 C2126 0.930 . S
H2117 C2127 0.930 . S
C2118 H2112 0.930 . S
C2118 C2119 1.355 . S
C2118 C2120 1.415 . S
C2119 C2118 1.355 . S
C2119 C2121 1.419 . S
C2120 C2118 1.415 . S
C2120 C2125 1.425 . S
C2120 C2127 1.409 1_556 S
C2121 H2113 0.930 . S
C2121 C2119 1.419 . S
C2121 C2122 1.362 . S
C2122 H2114 0.930 . S
C2122 C2121 1.362 . S
C2122 C2125 1.409 . S
C2123 H2115 0.930 . S
C2123 C2124 1.355 1_556 S
C2123 C2125 1.415 . S
C2124 C2123 1.355 1_554 S
C2124 C2126 1.419 . S
C2125 C2120 1.425 . S
C2125 C2122 1.409 . S
C2125 C2123 1.415 . S
C2126 H2116 0.930 . S
C2126 C2124 1.419 . S
C2126 C2127 1.362 . S
C2127 H2117 0.930 . S
C2127 C2120 1.409 1_554 S
C2127 C2126 1.362 . S
H2128 C2134 0.930 . S
H2129 C2137 0.930 . S
H2130 C2138 0.930 . S
H2131 C2139 0.930 . S
H2132 C2142 0.930 . S
H2133 C2143 0.930 . S
C2134 H2128 0.930 . S
C2134 C2135 1.355 . S
C2134 C2136 1.415 . S
C2135 C2134 1.355 . S
C2135 C2137 1.419 . S
C2136 C2134 1.415 . S
C2136 C2141 1.425 . S
C2136 C2143 1.409 . S
C2137 H2129 0.930 . S
C2137 C2135 1.419 . S
C2137 C2138 1.362 . S
C2138 H2130 0.930 . S
C2138 C2137 1.362 . S
C2138 C2141 1.409 . S
C2139 H2131 0.930 . S
C2139 C2140 1.355 . S
C2139 C2141 1.415 . S
C2140 C2139 1.355 . S
C2140 C2142 1.419 . S
C2141 C2136 1.425 . S
C2141 C2138 1.409 . S
C2141 C2139 1.415 . S
C2142 H2132 0.930 . S
C2142 C2140 1.419 . S
C2142 C2143 1.362 . S
C2143 H2133 0.930 . S
C2143 C2136 1.409 . S
C2143 C2142 1.362 . S
H2144 C2150 0.930 . S
H2145 C2153 0.930 . S
H2146 C2154 0.930 . S
H2147 C2155 0.930 . S
H2148 C2158 0.930 . S
H2149 C2159 0.930 . S
C2150 H2144 0.930 . S
C2150 C2151 1.355 . S
C2150 C2152 1.415 . S
C2151 C2150 1.355 . S
C2151 C2153 1.419 . S
C2152 C2150 1.415 . S
C2152 C2157 1.425 . S
C2152 C2159 1.409 . S
C2153 H2145 0.930 . S
C2153 C2151 1.419 . S
C2153 C2154 1.362 . S
C2154 H2146 0.930 . S
C2154 C2153 1.362 . S
C2154 C2157 1.409 . S
C2155 H2147 0.930 . S
C2155 C2156 1.355 1_455 S
C2155 C2157 1.415 . S
C2156 C2155 1.355 1_655 S
C2156 C2158 1.419 . S
C2157 C2152 1.425 . S
C2157 C2154 1.409 . S
C2157 C2155 1.415 . S
C2158 H2148 0.930 . S
C2158 C2156 1.419 . S
C2158 C2159 1.362 1_655 S
C2159 H2149 0.930 . S
C2159 C2152 1.409 . S
C2159 C2158 1.362 1_455 S
H2160 C2166 0.930 . S
H2161 C2169 0.930 . S
H2162 C2170 0.930 . S
H2163 C2171 0.930 . S
H2164 C2174 0.930 . S
H2165 C2175 0.930 . S
C2166 H2160 0.930 . S
C2166 C2167 1.355 . S
C2166 C2168 1.415 . S
C2167 C2166 1.355 . S
C2167 C2169 1.419 . S
C2168 C2166 1.415 . S
C2168 C2173 1.425 . S
C2168 C2175 1.409 . S
C2169 H2161 0.930 . S
C2169 C2167 1.419 . S
C2169 C2170 1.362 . S
C2170 H2162 0.930 . S
C2170 C2169 1.362 . S
C2170 C2173 1.409 . S
C2171 H2163 0.930 . S
C2171 C2172 1.355 . S
C2171 C2173 1.415 . S
C2172 C2171 1.355 . S
C2172 C2174 1.419 . S
C2173 C2168 1.425 . S
C2173 C2170 1.409 . S
C2173 C2171 1.415 . S
C2174 H2164 0.930 . S
C2174 C2172 1.419 . S
C2174 C2175 1.362 . S
C2175 H2165 0.930 . S
C2175 C2168 1.409 . S
C2175 C2174 1.362 . S
H2176 C2182 0.930 . S
H2177 C2185 0.930 . S
H2178 C2186 0.930 . S
H2179 C2187 0.930 . S
H2180 C2190 0.930 . S
H2181 C2191 0.930 . S
C2182 H2176 0.930 . S
C2182 C2183 1.355 . S
C2182 C2184 1.415 . S
C2183 C2182 1.355 . S
C2183 C2185 1.419 . S
C2184 C2182 1.415 . S
C2184 C2189 1.425 . S
C2184 C2191 1.409 . S
C2185 H2177 0.930 . S
C2185 C2183 1.419 . S
C2185 C2186 1.362 . S
C2186 H2178 0.930 . S
C2186 C2185 1.362 . S
C2186 C2189 1.409 . S
C2187 H2179 0.930 . S
C2187 C2188 1.355 . S
C2187 C2189 1.415 . S
C2188 C2187 1.355 . S
C2188 C2190 1.419 . S
C2189 C2184 1.425 . S
C2189 C2186 1.409 . S
C2189 C2187 1.415 . S
C2190 H2180 0.930 . S
C2190 C2188 1.419 . S
C2190 C2191 1.362 . S
C2191 H2181 0.930 . S
C2191 C2184 1.409 . S
C2191 C2190 1.362 . S
H2192 C2198 0.930 . S
H2193 C2201 0.930 . S
H2194 C2202 0.930 . S
H2195 C2203 0.930 . S
H2196 C2206 0.930 . S
H2197 C2207 0.930 . S
C2198 H2192 0.930 . S
C2198 C2199 1.355 . S
C2198 C2200 1.415 . S
C2199 C2198 1.355 . S
C2199 C2201 1.419 . S
C2200 C2198 1.415 . S
C2200 C2205 1.425 . S
C2200 C2207 1.409 . S
C2201 H2193 0.930 . S
C2201 C2199 1.419 . S
C2201 C2202 1.362 . S
C2202 H2194 0.930 . S
C2202 C2201 1.362 . S
C2202 C2205 1.409 . S
C2203 H2195 0.930 . S
C2203 C2204 1.355 . S
C2203 C2205 1.415 . S
C2204 C2203 1.355 . S
C2204 C2206 1.419 . S
C2205 C2200 1.425 . S
C2205 C2202 1.409 . S
C2205 C2203 1.415 . S
C2206 H2196 0.930 . S
C2206 C2204 1.419 . S
C2206 C2207 1.362 . S
C2207 H2197 0.930 . S
C2207 C2200 1.409 . S
C2207 C2206 1.362 . S
H2208 C2214 0.930 1_655 S
H2209 C2217 0.930 . S
H2210 C2218 0.930 . S
H2211 C2219 0.930 . S
H2212 C2222 0.930 . S
H2213 C2223 0.930 . S
C2214 H2208 0.930 1_455 S
C2214 C2215 1.365 . S
C2214 C2216 1.415 . S
C2215 C2214 1.365 . S
C2215 C2217 1.440 . S
C2216 C2214 1.415 . S
C2216 C2221 1.425 . S
C2216 C2223 1.409 . S
C2217 H2209 0.930 . S
C2217 C2215 1.440 . S
C2217 C2218 1.362 . S
C2218 H2210 0.930 . S
C2218 C2217 1.362 . S
C2218 C2221 1.409 . S
C2219 H2211 0.930 . S
C2219 C2220 1.355 . S
C2219 C2221 1.415 . S
C2220 C2219 1.355 . S
C2220 C2222 1.419 . S
C2221 C2216 1.425 . S
C2221 C2218 1.409 . S
C2221 C2219 1.415 . S
C2222 H2212 0.930 . S
C2222 C2220 1.419 . S
C2222 C2223 1.362 . S
C2223 H2213 0.930 . S
C2223 C2216 1.409 . S
C2223 C2222 1.362 . S
H2224 C2230 0.930 . S
H2225 C2233 0.930 . S
H2226 C2234 0.930 . S
H2227 C2235 0.930 . S
H2228 C2238 0.930 . S
H2229 C2239 0.930 . S
C2230 H2224 0.930 . S
C2230 C2231 1.355 . S
C2230 C2232 1.415 . S
C2231 C2230 1.355 . S
C2231 C2233 1.419 . S
C2232 C2230 1.415 . S
C2232 C2237 1.425 . S
C2232 C2239 1.409 . S
C2233 H2225 0.930 . S
C2233 C2231 1.419 . S
C2233 C2234 1.362 . S
C2234 H2226 0.930 . S
C2234 C2233 1.362 . S
C2234 C2237 1.409 . S
C2235 H2227 0.930 . S
C2235 C2236 1.355 . S
C2235 C2237 1.415 . S
C2236 C2235 1.355 . S
C2236 C2238 1.419 . S
C2237 C2232 1.425 . S
C2237 C2234 1.409 . S
C2237 C2235 1.415 . S
C2238 H2228 0.930 . S
C2238 C2236 1.419 . S
C2238 C2239 1.362 . S
C2239 H2229 0.930 . S
C2239 C2232 1.409 . S
C2239 C2238 1.362 . S
H2240 C2246 0.930 . S
H2241 C2249 0.930 . S
H2242 C2250 0.930 . S
H2243 C2251 0.930 . S
H2244 C2254 0.930 . S
H2245 C2255 0.930 . S
C2246 H2240 0.930 . S
C2246 C2247 1.355 . S
C2246 C2248 1.415 . S
C2247 C2246 1.355 . S
C2247 C2249 1.419 . S
C2248 C2246 1.415 . S
C2248 C2253 1.425 . S
C2248 C2255 1.409 . S
C2249 H2241 0.930 . S
C2249 C2247 1.419 . S
C2249 C2250 1.362 . S
C2250 H2242 0.930 . S
C2250 C2249 1.362 . S
C2250 C2253 1.409 . S
C2251 H2243 0.930 . S
C2251 C2252 1.355 . S
C2251 C2253 1.415 . S
C2252 C2251 1.355 . S
C2252 C2254 1.419 . S
C2253 C2248 1.425 . S
C2253 C2250 1.409 . S
C2253 C2251 1.415 . S
C2254 H2244 0.930 . S
C2254 C2252 1.419 . S
C2254 C2255 1.362 . S
C2255 H2245 0.930 . S
C2255 C2248 1.409 . S
C2255 C2254 1.362 . S
H2256 C2262 0.930 . S
H2257 C2265 0.930 . S
H2258 C2266 0.930 . S
H2259 C2267 0.930 . S
H2260 C2270 0.930 . S
H2261 C2271 0.930 . S
C2262 H2256 0.930 . S
C2262 C2263 1.355 . S
C2262 C2264 1.415 . S
C2263 C2262 1.355 . S
C2263 C2265 1.419 . S
C2264 C2262 1.415 . S
C2264 C2269 1.425 . S
C2264 C2271 1.409 . S
C2265 H2257 0.930 . S
C2265 C2263 1.419 . S
C2265 C2266 1.362 . S
C2266 H2258 0.930 . S
C2266 C2265 1.362 . S
C2266 C2269 1.409 . S
C2267 H2259 0.930 . S
C2267 C2268 1.355 . S
C2267 C2269 1.415 . S
C2268 C2267 1.355 . S
C2268 C2270 1.419 . S
C2269 C2264 1.425 . S
C2269 C2266 1.409 . S
C2269 C2267 1.415 . S
C2270 H2260 0.930 . S
C2270 C2268 1.419 . S
C2270 C2271 1.362 . S
C2271 H2261 0.930 . S
C2271 C2264 1.409 . S
C2271 C2270 1.362 . S
H2272 C2278 0.930 . S
H2273 C2281 0.930 . S
H2274 C2282 0.930 . S
H2275 C2283 0.930 . S
H2276 C2286 0.930 . S
H2277 C2287 0.930 . S
C2278 H2272 0.930 . S
C2278 C2279 1.355 . S
C2278 C2280 1.415 . S
C2279 C2278 1.355 . S
C2279 C2281 1.419 . S
C2280 C2278 1.415 . S
C2280 C2285 1.425 . S
C2280 C2287 1.409 . S
C2281 H2273 0.930 . S
C2281 C2279 1.419 . S
C2281 C2282 1.362 . S
C2282 H2274 0.930 . S
C2282 C2281 1.362 . S
C2282 C2285 1.409 . S
C2283 H2275 0.930 . S
C2283 C2284 1.355 . S
C2283 C2285 1.415 1_565 S
C2284 C2283 1.355 . S
C2284 C2286 1.419 . S
C2285 C2280 1.425 . S
C2285 C2282 1.409 . S
C2285 C2283 1.415 1_545 S
C2286 H2276 0.930 . S
C2286 C2284 1.419 . S
C2286 C2287 1.362 1_565 S
C2287 H2277 0.930 . S
C2287 C2280 1.409 . S
C2287 C2286 1.362 1_545 S
H2288 C2294 0.930 . S
H2289 C2297 0.930 . S
H2290 C2298 0.930 . S
H2291 C2299 0.930 . S
H2292 C2302 0.930 . S
H2293 C2303 0.930 . S
C2294 H2288 0.930 . S
C2294 C2295 1.355 . S
C2294 C2296 1.415 . S
C2295 C2294 1.355 . S
C2295 C2297 1.419 . S
C2296 C2294 1.415 . S
C2296 C2301 1.425 . S
C2296 C2303 1.409 . S
C2297 H2289 0.930 . S
C2297 C2295 1.419 . S
C2297 C2298 1.362 . S
C2298 H2290 0.930 . S
C2298 C2297 1.362 . S
C2298 C2301 1.409 . S
C2299 H2291 0.930 . S
C2299 C2300 1.355 . S
C2299 C2301 1.415 . S
C2300 C2299 1.355 . S
C2300 C2302 1.419 . S
C2301 C2296 1.425 . S
C2301 C2298 1.409 . S
C2301 C2299 1.415 . S
C2302 H2292 0.930 . S
C2302 C2300 1.419 . S
C2302 C2303 1.362 . S
C2303 H2293 0.930 . S
C2303 C2296 1.409 . S
C2303 C2302 1.362 . S
H2304 C2310 0.930 . S
H2305 C2313 0.930 . S
H2306 C2314 0.930 . S
H2307 C2315 0.930 . S
H2308 C2318 0.930 . S
H2309 C2319 0.930 . S
C2310 H2304 0.930 . S
C2310 C2311 1.355 . S
C2310 C2312 1.415 . S
C2311 C2310 1.355 . S
C2311 C2313 1.419 . S
C2312 C2310 1.415 . S
C2312 C2317 1.425 . S
C2312 C2319 1.409 . S
C2313 H2305 0.930 . S
C2313 C2311 1.419 . S
C2313 C2314 1.362 . S
C2314 H2306 0.930 . S
C2314 C2313 1.362 . S
C2314 C2317 1.409 . S
C2315 H2307 0.930 . S
C2315 C2316 1.355 . S
C2315 C2317 1.415 . S
C2316 C2315 1.355 . S
C2316 C2318 1.419 . S
C2317 C2312 1.425 . S
C2317 C2314 1.409 . S
C2317 C2315 1.415 . S
C2318 H2308 0.930 . S
C2318 C2316 1.419 . S
C2318 C2319 1.362 . S
C2319 H2309 0.930 . S
C2319 C2312 1.409 . S
C2319 C2318 1.362 . S
H2320 C2326 0.930 . S
H2321 C2329 0.930 . S
H2322 C2330 0.930 . S
H2323 C2331 0.930 . S
H2324 C2334 0.930 . S
H2325 C2335 0.930 . S
C2326 H2320 0.930 . S
C2326 C2327 1.355 . S
C2326 C2328 1.415 . S
C2327 C2326 1.355 . S
C2327 C2329 1.419 . S
C2328 C2326 1.415 . S
C2328 C2333 1.425 . S
C2328 C2335 1.409 . S
C2329 H2321 0.930 . S
C2329 C2327 1.419 . S
C2329 C2330 1.362 . S
C2330 H2322 0.930 . S
C2330 C2329 1.362 . S
C2330 C2333 1.409 . S
C2331 H2323 0.930 . S
C2331 C2332 1.355 . S
C2331 C2333 1.415 . S
C2332 C2331 1.355 . S
C2332 C2334 1.419 . S
C2333 C2328 1.425 . S
C2333 C2330 1.409 . S
C2333 C2331 1.415 . S
C2334 H2324 0.930 . S
C2334 C2332 1.419 . S
C2334 C2335 1.362 . S
C2335 H2325 0.930 . S
C2335 C2328 1.409 . S
C2335 C2334 1.362 . S
H2336 C2342 0.930 . S
H2337 C2345 0.930 . S
H2338 C2346 0.930 . S
H2339 C2347 0.930 . S
H2340 C2350 0.930 . S
H2341 C2351 0.930 . S
C2342 H2336 0.930 . S
C2342 C2343 1.355 . S
C2342 C2344 1.415 . S
C2343 C2342 1.355 . S
C2343 C2345 1.419 . S
C2344 C2342 1.415 . S
C2344 C2349 1.425 . S
C2344 C2351 1.409 . S
C2345 H2337 0.930 . S
C2345 C2343 1.419 . S
C2345 C2346 1.362 . S
C2346 H2338 0.930 . S
C2346 C2345 1.362 . S
C2346 C2349 1.409 . S
C2347 H2339 0.930 . S
C2347 C2348 1.355 . S
C2347 C2349 1.415 . S
C2348 C2347 1.355 . S
C2348 C2350 1.419 . S
C2349 C2344 1.425 . S
C2349 C2346 1.409 . S
C2349 C2347 1.415 . S
C2350 H2340 0.930 . S
C2350 C2348 1.419 . S
C2350 C2351 1.362 . S
C2351 H2341 0.930 . S
C2351 C2344 1.409 . S
C2351 C2350 1.362 . S
H2352 C2358 0.930 . S
H2353 C2361 0.930 . S
H2354 C2362 0.930 . S
H2355 C2363 0.931 . S
H2356 C2366 0.930 . S
H2357 C2367 0.930 . S
C2358 H2352 0.930 . S
C2358 C2359 1.355 . S
C2358 C2360 1.415 . S
C2359 C2358 1.355 . S
C2359 C2361 1.419 . S
C2360 C2358 1.415 . S
C2360 C2365 1.425 . S
C2360 C2367 1.409 . S
C2361 H2353 0.930 . S
C2361 C2359 1.419 . S
C2361 C2362 1.362 . S
C2362 H2354 0.930 . S
C2362 C2361 1.362 . S
C2362 C2365 1.409 . S
C2363 H2355 0.931 . S
C2363 C2364 1.355 1_565 S
C2363 C2365 1.415 . S
C2364 C2363 1.355 1_545 S
C2364 C2366 1.419 . S
C2365 C2360 1.425 . S
C2365 C2362 1.409 . S
C2365 C2363 1.415 . S
C2366 H2356 0.930 . S
C2366 C2364 1.419 . S
C2366 C2367 1.362 1_545 S
C2367 H2357 0.930 . S
C2367 C2360 1.409 . S
C2367 C2366 1.362 1_565 S
H2368 C2374 0.930 . S
H2369 C2377 0.930 . S
H2370 C2378 0.930 . S
H2371 C2379 0.930 . S
H2372 C2382 0.930 . S
H2373 C2383 0.930 . S
C2374 H2368 0.930 . S
C2374 C2375 1.355 . S
C2374 C2376 1.415 . S
C2375 C2374 1.355 . S
C2375 C2377 1.419 . S
C2376 C2374 1.415 . S
C2376 C2381 1.425 . S
C2376 C2383 1.409 . S
C2377 H2369 0.930 . S
C2377 C2375 1.419 . S
C2377 C2378 1.362 . S
C2378 H2370 0.930 . S
C2378 C2377 1.362 . S
C2378 C2381 1.409 . S
C2379 H2371 0.930 . S
C2379 C2380 1.355 . S
C2379 C2381 1.415 . S
C2380 C2379 1.355 . S
C2380 C2382 1.419 . S
C2381 C2376 1.425 . S
C2381 C2378 1.409 . S
C2381 C2379 1.415 . S
C2382 H2372 0.930 . S
C2382 C2380 1.419 . S
C2382 C2383 1.362 . S
C2383 H2373 0.930 . S
C2383 C2376 1.409 . S
C2383 C2382 1.362 . S
H2384 C2390 0.930 . S
H2385 C2393 0.930 . S
H2386 C2394 0.930 . S
H2387 C2395 0.930 . S
H2388 C2398 0.930 . S
H2389 C2399 0.930 . S
C2390 H2384 0.930 . S
C2390 C2391 1.355 . S
C2390 C2392 1.415 . S
C2391 C2390 1.355 . S
C2391 C2393 1.419 . S
C2392 C2390 1.415 . S
C2392 C2397 1.425 . S
C2392 C2399 1.409 . S
C2393 H2385 0.930 . S
C2393 C2391 1.419 . S
C2393 C2394 1.362 . S
C2394 H2386 0.930 . S
C2394 C2393 1.362 . S
C2394 C2397 1.409 . S
C2395 H2387 0.930 . S
C2395 C2396 1.355 . S
C2395 C2397 1.415 . S
C2396 C2395 1.355 . S
C2396 C2398 1.419 . S
C2397 C2392 1.425 . S
C2397 C2394 1.409 . S
C2397 C2395 1.415 . S
C2398 H2388 0.930 . S
C2398 C2396 1.419 . S
C2398 C2399 1.362 . S
C2399 H2389 0.930 . S
C2399 C2392 1.409 . S
C2399 C2398 1.362 . S
H2400 C2406 0.930 . S
H2401 C2409 0.930 . S
H2402 C2410 0.930 . S
H2403 C2411 0.930 . S
H2404 C2414 0.930 . S
H2405 C2415 0.930 . S
C2406 H2400 0.930 . S
C2406 C2407 1.355 . S
C2406 C2408 1.415 . S
C2407 C2406 1.355 . S
C2407 C2409 1.419 . S
C2408 C2406 1.415 . S
C2408 C2413 1.425 . S
C2408 C2415 1.409 . S
C2409 H2401 0.930 . S
C2409 C2407 1.419 . S
C2409 C2410 1.362 . S
C2410 H2402 0.930 . S
C2410 C2409 1.362 . S
C2410 C2413 1.409 . S
C2411 H2403 0.930 . S
C2411 C2412 1.355 . S
C2411 C2413 1.415 . S
C2412 C2411 1.355 . S
C2412 C2414 1.419 . S
C2413 C2408 1.425 . S
C2413 C2410 1.409 . S
C2413 C2411 1.415 . S
C2414 H2404 0.930 . S
C2414 C2412 1.419 . S
C2414 C2415 1.362 . S
C2415 H2405 0.930 . S
C2415 C2408 1.409 . S
C2415 C2414 1.362 . S
H2416 C2422 0.930 . S
H2417 C2425 0.930 . S
H2418 C2426 0.930 . S
H2419 C2427 0.930 . S
H2420 C2430 0.930 . S
H2421 C2431 0.930 . S
C2422 H2416 0.930 . S
C2422 C2423 1.355 . S
C2422 C2424 1.415 . S
C2423 C2422 1.355 . S
C2423 C2425 1.419 . S
C2424 C2422 1.415 . S
C2424 C2429 1.425 . S
C2424 C2431 1.409 . S
C2425 H2417 0.930 . S
C2425 C2423 1.419 . S
C2425 C2426 1.362 . S
C2426 H2418 0.930 . S
C2426 C2425 1.362 . S
C2426 C2429 1.409 . S
C2427 H2419 0.930 . S
C2427 C2428 1.355 . S
C2427 C2429 1.415 . S
C2428 C2427 1.355 . S
C2428 C2430 1.419 . S
C2429 C2424 1.425 . S
C2429 C2426 1.409 . S
C2429 C2427 1.415 . S
C2430 H2420 0.930 . S
C2430 C2428 1.419 . S
C2430 C2431 1.362 . S
C2431 H2421 0.930 . S
C2431 C2424 1.409 . S
C2431 C2430 1.362 . S
H2432 C2438 0.930 . S
H2433 C2441 0.930 1_554 S
H2434 C2442 0.930 . S
H2435 C2443 0.930 . S
H2436 C2446 0.930 . S
H2437 C2447 0.930 . S
C2438 H2432 0.930 . S
C2438 C2439 1.355 1_556 S
C2438 C2440 1.415 . S
C2439 C2438 1.355 1_554 S
C2439 C2441 1.419 1_554 S
C2440 C2438 1.415 . S
C2440 C2445 1.425 . S
C2440 C2447 1.409 . S
C2441 H2433 0.930 1_556 S
C2441 C2439 1.419 1_556 S
C2441 C2442 1.362 . S
C2442 H2434 0.930 . S
C2442 C2441 1.362 . S
C2442 C2445 1.409 . S
C2443 H2435 0.930 . S
C2443 C2444 1.355 . S
C2443 C2445 1.415 . S
C2444 C2443 1.355 . S
C2444 C2446 1.419 . S
C2445 C2440 1.425 . S
C2445 C2442 1.409 . S
C2445 C2443 1.415 . S
C2446 H2436 0.930 . S
C2446 C2444 1.419 . S
C2446 C2447 1.362 . S
C2447 H2437 0.930 . S
C2447 C2440 1.409 . S
C2447 C2446 1.362 . S
H2448 C2454 0.930 . S
H2449 C2457 0.930 . S
H2450 C2458 0.930 . S
H2451 C2459 0.930 . S
H2452 C2462 0.930 . S
H2453 C2463 0.930 . S
C2454 H2448 0.930 . S
C2454 C2455 1.355 . S
C2454 C2456 1.415 . S
C2455 C2454 1.355 . S
C2455 C2457 1.419 . S
C2456 C2454 1.415 . S
C2456 C2461 1.425 . S
C2456 C2463 1.409 . S
C2457 H2449 0.930 . S
C2457 C2455 1.419 . S
C2457 C2458 1.362 . S
C2458 H2450 0.930 . S
C2458 C2457 1.362 . S
C2458 C2461 1.409 . S
C2459 H2451 0.930 . S
C2459 C2460 1.355 . S
C2459 C2461 1.415 . S
C2460 C2459 1.355 . S
C2460 C2462 1.419 . S
C2461 C2456 1.425 . S
C2461 C2458 1.409 . S
C2461 C2459 1.415 . S
C2462 H2452 0.930 . S
C2462 C2460 1.419 . S
C2462 C2463 1.362 . S
C2463 H2453 0.930 . S
C2463 C2456 1.409 . S
C2463 C2462 1.362 . S
H2464 C2470 0.930 . S
H2465 C2473 0.930 . S
H2466 C2474 0.930 . S
H2467 C2475 0.930 . S
H2468 C2478 0.930 . S
H2469 C2479 0.930 . S
C2470 H2464 0.930 . S
C2470 C2471 1.355 . S
C2470 C2472 1.415 1_556 S
C2471 C2470 1.355 . S
C2471 C2473 1.419 . S
C2472 C2470 1.415 1_554 S
C2472 C2477 1.425 . S
C2472 C2479 1.409 . S
C2473 H2465 0.930 . S
C2473 C2471 1.419 . S
C2473 C2474 1.362 1_556 S
C2474 H2466 0.930 . S
C2474 C2473 1.362 1_554 S
C2474 C2477 1.409 . S
C2475 H2467 0.930 . S
C2475 C2476 1.355 . S
C2475 C2477 1.415 . S
C2476 C2475 1.355 . S
C2476 C2478 1.419 . S
C2477 C2472 1.425 . S
C2477 C2474 1.409 . S
C2477 C2475 1.415 . S
C2478 H2468 0.930 . S
C2478 C2476 1.419 . S
C2478 C2479 1.362 . S
C2479 H2469 0.930 . S
C2479 C2472 1.409 . S
C2479 C2478 1.362 . S
H2480 C2486 0.930 . S
H2481 C2489 0.930 . S
H2482 C2490 0.930 . S
H2483 C2491 0.930 . S
H2484 C2494 0.930 . S
H2485 C2495 0.930 . S
C2486 H2480 0.930 . S
C2486 C2487 1.355 . S
C2486 C2488 1.415 . S
C2487 C2486 1.355 . S
C2487 C2489 1.419 . S
C2488 C2486 1.415 . S
C2488 C2493 1.425 . S
C2488 C2495 1.409 . S
C2489 H2481 0.930 . S
C2489 C2487 1.419 . S
C2489 C2490 1.362 . S
C2490 H2482 0.930 . S
C2490 C2489 1.362 . S
C2490 C2493 1.409 . S
C2491 H2483 0.930 . S
C2491 C2492 1.355 . S
C2491 C2493 1.415 . S
C2492 C2491 1.355 . S
C2492 C2494 1.419 . S
C2493 C2488 1.425 . S
C2493 C2490 1.409 . S
C2493 C2491 1.415 . S
C2494 H2484 0.930 . S
C2494 C2492 1.419 . S
C2494 C2495 1.362 . S
C2495 H2485 0.930 . S
C2495 C2488 1.409 . S
C2495 C2494 1.362 . S
H2496 C2502 0.930 . S
H2497 C2505 0.930 . S
H2498 C2506 0.930 . S
H2499 C2507 0.930 . S
H2500 C2510 0.930 . S
H2501 C2511 0.930 . S
C2502 H2496 0.930 . S
C2502 C2503 1.355 . S
C2502 C2504 1.415 . S
C2503 C2502 1.355 . S
C2503 C2505 1.419 . S
C2504 C2502 1.415 . S
C2504 C2509 1.425 . S
C2504 C2511 1.409 . S
C2505 H2497 0.930 . S
C2505 C2503 1.419 . S
C2505 C2506 1.362 . S
C2506 H2498 0.930 . S
C2506 C2505 1.362 . S
C2506 C2509 1.409 . S
C2507 H2499 0.930 . S
C2507 C2508 1.355 . S
C2507 C2509 1.415 . S
C2508 C2507 1.355 . S
C2508 C2510 1.419 . S
C2509 C2504 1.425 . S
C2509 C2506 1.409 . S
C2509 C2507 1.415 . S
C2510 H2500 0.930 . S
C2510 C2508 1.419 . S
C2510 C2511 1.362 . S
C2511 H2501 0.930 . S
C2511 C2504 1.409 . S
C2511 C2510 1.362 . S
H2512 C2518 0.930 . S
H2513 C2521 0.930 . S
H2514 C2522 0.930 . S
H2515 C2523 0.930 . S
H2516 C2526 0.930 . S
H2517 C2527 0.930 . S
C2518 H2512 0.930 . S
C2518 C2519 1.355 . S
C2518 C2520 1.415 . S
C2519 C2518 1.355 . S
C2519 C2521 1.419 . S
C2520 C2518 1.415 . S
C2520 C2525 1.425 . S
C2520 C2527 1.409 . S
C2521 H2513 0.930 . S
C2521 C2519 1.419 . S
C2521 C2522 1.362 . S
C2522 H2514 0.930 . S
C2522 C2521 1.362 . S
C2522 C2525 1.409 . S
C2523 H2515 0.930 . S
C2523 C2524 1.355 . S
C2523 C2525 1.415 . S
C2524 C2523 1.355 . S
C2524 C2526 1.419 . S
C2525 C2520 1.425 . S
C2525 C2522 1.409 . S
C2525 C2523 1.415 . S
C2526 H2516 0.930 . S
C2526 C2524 1.419 . S
C2526 C2527 1.362 . S
C2527 H2517 0.930 . S
C2527 C2520 1.409 . S
C2527 C2526 1.362 . S
H2528 C2534 0.930 . S
H2529 C2537 0.930 . S
H2530 C2538 0.930 . S
H2531 C2539 0.930 . S
H2532 C2542 0.930 . S
H2533 C2543 0.930 . S
C2534 H2528 0.930 . S
C2534 C2535 1.355 . S
C2534 C2536 1.415 . S
C2535 C2534 1.355 . S
C2535 C2537 1.419 . S
C2536 C2534 1.415 . S
C2536 C2541 1.425 . S
C2536 C2543 1.409 . S
C2537 H2529 0.930 . S
C2537 C2535 1.419 . S
C2537 C2538 1.362 . S
C2538 H2530 0.930 . S
C2538 C2537 1.362 . S
C2538 C2541 1.409 . S
C2539 H2531 0.930 . S
C2539 C2540 1.355 . S
C2539 C2541 1.415 . S
C2540 C2539 1.355 . S
C2540 C2542 1.419 . S
C2541 C2536 1.425 . S
C2541 C2538 1.409 . S
C2541 C2539 1.415 . S
C2542 H2532 0.930 . S
C2542 C2540 1.419 . S
C2542 C2543 1.362 . S
C2543 H2533 0.930 . S
C2543 C2536 1.409 . S
C2543 C2542 1.362 . S
H2544 C2550 0.930 . S
H2545 C2553 0.930 . S
H2546 C2554 0.930 . S
H2547 C2555 0.930 . S
H2548 C2558 0.930 . S
H2549 C2559 0.930 . S
C2550 H2544 0.930 . S
C2550 C2551 1.355 . S
C2550 C2552 1.415 . S
C2551 C2550 1.355 . S
C2551 C2553 1.419 . S
C2552 C2550 1.415 . S
C2552 C2557 1.425 . S
C2552 C2559 1.409 . S
C2553 H2545 0.930 . S
C2553 C2551 1.419 . S
C2553 C2554 1.362 . S
C2554 H2546 0.930 . S
C2554 C2553 1.362 . S
C2554 C2557 1.409 . S
C2555 H2547 0.930 . S
C2555 C2556 1.355 . S
C2555 C2557 1.415 . S
C2556 C2555 1.355 . S
C2556 C2558 1.419 . S
C2557 C2552 1.425 . S
C2557 C2554 1.409 . S
C2557 C2555 1.415 . S
C2558 H2548 0.930 . S
C2558 C2556 1.419 . S
C2558 C2559 1.362 . S
C2559 H2549 0.930 . S
C2559 C2552 1.409 . S
C2559 C2558 1.362 . S
H2560 C2566 0.930 . S
H2561 C2569 0.930 . S
H2562 C2570 0.930 . S
H2563 C2571 0.930 . S
H2564 C2574 0.930 . S
H2565 C2575 0.930 1_655 S
C2566 H2560 0.930 . S
C2566 C2567 1.355 . S
C2566 C2568 1.415 1_655 S
C2567 C2566 1.355 . S
C2567 C2569 1.419 . S
C2568 C2566 1.415 1_455 S
C2568 C2573 1.425 . S
C2568 C2575 1.409 . S
C2569 H2561 0.930 . S
C2569 C2567 1.419 . S
C2569 C2570 1.362 1_655 S
C2570 H2562 0.930 . S
C2570 C2569 1.362 1_455 S
C2570 C2573 1.409 . S
C2571 H2563 0.930 . S
C2571 C2572 1.355 . S
C2571 C2573 1.415 . S
C2572 C2571 1.355 . S
C2572 C2574 1.419 . S
C2573 C2568 1.425 . S
C2573 C2570 1.409 . S
C2573 C2571 1.415 . S
C2574 H2564 0.930 . S
C2574 C2572 1.419 . S
C2574 C2575 1.362 . S
C2575 H2565 0.930 1_455 S
C2575 C2568 1.409 . S
C2575 C2574 1.362 . S
H2576 C2582 0.930 . S
H2577 C2585 0.930 . S
H2578 C2586 0.930 . S
H2579 C2587 0.930 . S
H2580 C2590 0.930 . S
H2581 C2591 0.930 . S
C2582 H2576 0.930 . S
C2582 C2583 1.355 . S
C2582 C2584 1.415 . S
C2583 C2582 1.355 . S
C2583 C2585 1.419 . S
C2584 C2582 1.415 . S
C2584 C2589 1.425 . S
C2584 C2591 1.409 . S
C2585 H2577 0.930 . S
C2585 C2583 1.419 . S
C2585 C2586 1.362 . S
C2586 H2578 0.930 . S
C2586 C2585 1.362 . S
C2586 C2589 1.409 . S
C2587 H2579 0.930 . S
C2587 C2588 1.355 . S
C2587 C2589 1.415 . S
C2588 C2587 1.355 . S
C2588 C2590 1.419 . S
C2589 C2584 1.425 . S
C2589 C2586 1.409 . S
C2589 C2587 1.415 . S
C2590 H2580 0.930 . S
C2590 C2588 1.419 . S
C2590 C2591 1.362 . S
C2591 H2581 0.930 . S
C2591 C2584 1.409 . S
C2591 C2590 1.362 . S
H2592 C2598 0.930 . S
H2593 C2601 0.930 . S
H2594 C2602 0.930 . S
H2595 C2603 0.930 . S
H2596 C2606 0.930 . S
H2597 C2607 0.930 . S
C2598 H2592 0.930 . S
C2598 C2599 1.355 . S
C2598 C2600 1.415 . S
C2599 C2598 1.355 . S
C2599 C2601 1.419 . S
C2600 C2598 1.415 . S
C2600 C2605 1.425 . S
C2600 C2607 1.409 . S
C2601 H2593 0.930 . S
C2601 C2599 1.419 . S
C2601 C2602 1.362 . S
C2602 H2594 0.930 . S
C2602 C2601 1.362 . S
C2602 C2605 1.409 . S
C2603 H2595 0.930 . S
C2603 C2604 1.355 . S
C2603 C2605 1.415 . S
C2604 C2603 1.355 . S
C2604 C2606 1.419 . S
C2605 C2600 1.425 . S
C2605 C2602 1.409 . S
C2605 C2603 1.415 . S
C2606 H2596 0.930 . S
C2606 C2604 1.419 . S
C2606 C2607 1.362 . S
C2607 H2597 0.930 . S
C2607 C2600 1.409 . S
C2607 C2606 1.362 . S
H2608 C2614 0.930 . S
H2609 C2617 0.930 . S
H2610 C2618 0.930 . S
H2611 C2619 0.930 . S
H2612 C2622 0.930 . S
H2613 C2623 0.930 . S
C2614 H2608 0.930 . S
C2614 C2615 1.355 . S
C2614 C2616 1.415 . S
C2615 C2614 1.355 . S
C2615 C2617 1.419 . S
C2616 C2614 1.415 . S
C2616 C2621 1.425 . S
C2616 C2623 1.409 . S
C2617 H2609 0.930 . S
C2617 C2615 1.419 . S
C2617 C2618 1.362 . S
C2618 H2610 0.930 . S
C2618 C2617 1.362 . S
C2618 C2621 1.409 . S
C2619 H2611 0.930 . S
C2619 C2620 1.355 . S
C2619 C2621 1.415 . S
C2620 C2619 1.355 . S
C2620 C2622 1.419 . S
C2621 C2616 1.425 . S
C2621 C2618 1.409 . S
C2621 C2619 1.415 . S
C2622 H2612 0.930 . S
C2622 C2620 1.419 . S
C2622 C2623 1.362 . S
C2623 H2613 0.930 . S
C2623 C2616 1.409 . S
C2623 C2622 1.362 . S
H2624 C2630 0.930 . S
H2625 C2633 0.930 . S
H2626 C2634 0.930 . S
H2627 C2635 0.930 . S
H2628 C2638 0.930 . S
H2629 C2639 0.930 . S
C2630 H2624 0.930 . S
C2630 C2631 1.355 . S
C2630 C2632 1.415 . S
C2631 C2630 1.355 . S
C2631 C2633 1.419 . S
C2632 C2630 1.415 . S
C2632 C2637 1.425 . S
C2632 C2639 1.409 1_455 S
C2633 H2625 0.930 . S
C2633 C2631 1.419 . S
C2633 C2634 1.362 . S
C2634 H2626 0.930 . S
C2634 C2633 1.362 . S
C2634 C2637 1.409 . S
C2635 H2627 0.930 . S
C2635 C2636 1.355 . S
C2635 C2637 1.415 1_655 S
C2636 C2635 1.355 . S
C2636 C2638 1.419 . S
C2637 C2632 1.425 . S
C2637 C2634 1.409 . S
C2637 C2635 1.415 1_455 S
C2638 H2628 0.930 . S
C2638 C2636 1.419 . S
C2638 C2639 1.362 . S
C2639 H2629 0.930 . S
C2639 C2632 1.409 1_655 S
C2639 C2638 1.362 . S
H2640 C2646 0.930 . S
H2641 C2649 0.930 . S
H2642 C2650 0.930 . S
H2643 C2651 0.930 . S
H2644 C2654 0.930 . S
H2645 C2655 0.930 . S
C2646 H2640 0.930 . S
C2646 C2647 1.355 . S
C2646 C2648 1.415 . S
C2647 C2646 1.355 . S
C2647 C2649 1.419 . S
C2648 C2646 1.415 . S
C2648 C2653 1.425 . S
C2648 C2655 1.409 . S
C2649 H2641 0.930 . S
C2649 C2647 1.419 . S
C2649 C2650 1.362 . S
C2650 H2642 0.930 . S
C2650 C2649 1.362 . S
C2650 C2653 1.409 . S
C2651 H2643 0.930 . S
C2651 C2652 1.355 . S
C2651 C2653 1.415 . S
C2652 C2651 1.355 . S
C2652 C2654 1.419 . S
C2653 C2648 1.425 . S
C2653 C2650 1.409 . S
C2653 C2651 1.415 . S
C2654 H2644 0.930 . S
C2654 C2652 1.419 . S
C2654 C2655 1.362 . S
C2655 H2645 0.930 . S
C2655 C2648 1.409 . S
C2655 C2654 1.362 . S
H2656 C2662 0.930 . S
H2657 C2665 0.930 . S
H2658 C2666 0.930 . S
H2659 C2667 0.930 . S
H2660 C2670 0.930 . S
H2661 C2671 0.930 . S
C2662 H2656 0.930 . S
C2662 C2663 1.355 . S
C2662 C2664 1.415 . S
C2663 C2662 1.355 . S
C2663 C2665 1.419 . S
C2664 C2662 1.415 . S
C2664 C2669 1.425 . S
C2664 C2671 1.409 . S
C2665 H2657 0.930 . S
C2665 C2663 1.419 . S
C2665 C2666 1.362 . S
C2666 H2658 0.930 . S
C2666 C2665 1.362 . S
C2666 C2669 1.409 . S
C2667 H2659 0.930 . S
C2667 C2668 1.355 . S
C2667 C2669 1.415 . S
C2668 C2667 1.355 . S
C2668 C2670 1.419 . S
C2669 C2664 1.425 . S
C2669 C2666 1.409 . S
C2669 C2667 1.415 . S
C2670 H2660 0.930 . S
C2670 C2668 1.419 . S
C2670 C2671 1.362 . S
C2671 H2661 0.930 . S
C2671 C2664 1.409 . S
C2671 C2670 1.362 . S
H2672 C2678 0.930 1_565 S
H2673 C2681 0.930 . S
H2674 C2682 0.930 . S
H2675 C2683 0.930 . S
H2676 C2686 0.930 . S
H2677 C2687 0.930 . S
C2678 H2672 0.930 1_545 S
C2678 C2679 1.355 1_545 S
C2678 C2680 1.415 . S
C2679 C2678 1.355 1_565 S
C2679 C2681 1.419 1_565 S
C2680 C2678 1.415 . S
C2680 C2685 1.425 . S
C2680 C2687 1.409 . S
C2681 H2673 0.930 . S
C2681 C2679 1.419 1_545 S
C2681 C2682 1.362 . S
C2682 H2674 0.930 . S
C2682 C2681 1.362 . S
C2682 C2685 1.409 . S
C2683 H2675 0.930 . S
C2683 C2684 1.355 . S
C2683 C2685 1.415 . S
C2684 C2683 1.355 . S
C2684 C2686 1.419 . S
C2685 C2680 1.425 . S
C2685 C2682 1.409 . S
C2685 C2683 1.415 . S
C2686 H2676 0.930 . S
C2686 C2684 1.419 . S
C2686 C2687 1.362 . S
C2687 H2677 0.930 . S
C2687 C2680 1.409 . S
C2687 C2686 1.362 . S
H2688 C2694 0.930 . S
H2689 C2697 0.930 . S
H2690 C2698 0.930 . S
H2691 C2699 0.930 . S
H2692 C2702 0.930 . S
H2693 C2703 0.930 . S
C2694 H2688 0.930 . S
C2694 C2695 1.355 . S
C2694 C2696 1.415 . S
C2695 C2694 1.355 . S
C2695 C2697 1.419 . S
C2696 C2694 1.415 . S
C2696 C2701 1.425 . S
C2696 C2703 1.409 . S
C2697 H2689 0.930 . S
C2697 C2695 1.419 . S
C2697 C2698 1.362 . S
C2698 H2690 0.930 . S
C2698 C2697 1.362 . S
C2698 C2701 1.409 . S
C2699 H2691 0.930 . S
C2699 C2700 1.355 . S
C2699 C2701 1.415 . S
C2700 C2699 1.355 . S
C2700 C2702 1.419 . S
C2701 C2696 1.425 . S
C2701 C2698 1.409 . S
C2701 C2699 1.415 . S
C2702 H2692 0.930 . S
C2702 C2700 1.419 . S
C2702 C2703 1.362 . S
C2703 H2693 0.930 . S
C2703 C2696 1.409 . S
C2703 C2702 1.362 . S
H2704 C2710 0.930 . S
H2705 C2713 0.930 . S
H2706 C2714 0.930 . S
H2707 C2715 0.930 1_545 S
H2708 C2718 0.931 1_545 S
H2709 C2719 0.930 . S
C2710 H2704 0.930 . S
C2710 C2711 1.355 . S
C2710 C2712 1.415 . S
C2711 C2710 1.355 . S
C2711 C2713 1.419 . S
C2712 C2710 1.415 . S
C2712 C2717 1.425 . S
C2712 C2719 1.409 . S
C2713 H2705 0.930 . S
C2713 C2711 1.419 . S
C2713 C2714 1.362 . S
C2714 H2706 0.930 . S
C2714 C2713 1.362 . S
C2714 C2717 1.409 . S
C2715 H2707 0.930 1_565 S
C2715 C2716 1.355 1_565 S
C2715 C2717 1.415 . S
C2716 C2715 1.355 1_545 S
C2716 C2718 1.420 1_545 S
C2717 C2712 1.425 . S
C2717 C2714 1.409 . S
C2717 C2715 1.415 . S
C2718 H2708 0.931 1_565 S
C2718 C2716 1.420 1_565 S
C2718 C2719 1.361 . S
C2719 H2709 0.930 . S
C2719 C2712 1.409 . S
C2719 C2718 1.361 . S
H2720 C2726 0.930 . S
H2721 C2729 0.930 . S
H2722 C2730 0.930 . S
H2723 C2731 0.930 . S
H2724 C2734 0.930 . S
H2725 C2735 0.930 . S
C2726 H2720 0.930 . S
C2726 C2727 1.355 . S
C2726 C2728 1.415 . S
C2727 C2726 1.355 . S
C2727 C2729 1.419 . S
C2728 C2726 1.415 . S
C2728 C2733 1.425 . S
C2728 C2735 1.409 . S
C2729 H2721 0.930 . S
C2729 C2727 1.419 . S
C2729 C2730 1.362 . S
C2730 H2722 0.930 . S
C2730 C2729 1.362 . S
C2730 C2733 1.409 . S
C2731 H2723 0.930 . S
C2731 C2732 1.355 . S
C2731 C2733 1.415 . S
C2732 C2731 1.355 . S
C2732 C2734 1.419 . S
C2733 C2728 1.425 . S
C2733 C2730 1.409 . S
C2733 C2731 1.415 . S
C2734 H2724 0.930 . S
C2734 C2732 1.419 . S
C2734 C2735 1.362 . S
C2735 H2725 0.930 . S
C2735 C2728 1.409 . S
C2735 C2734 1.362 . S
H2736 C2742 0.930 . S
H2737 C2745 0.930 . S
H2738 C2746 0.930 . S
H2739 C2747 0.930 . S
H2740 C2750 0.930 . S
H2741 C2751 0.930 . S
C2742 H2736 0.930 . S
C2742 C2743 1.355 . S
C2742 C2744 1.415 . S
C2743 C2742 1.355 . S
C2743 C2745 1.419 . S
C2744 C2742 1.415 . S
C2744 C2749 1.425 . S
C2744 C2751 1.409 . S
C2745 H2737 0.930 . S
C2745 C2743 1.419 . S
C2745 C2746 1.362 . S
C2746 H2738 0.930 . S
C2746 C2745 1.362 . S
C2746 C2749 1.409 . S
C2747 H2739 0.930 . S
C2747 C2748 1.355 . S
C2747 C2749 1.415 . S
C2748 C2747 1.355 . S
C2748 C2750 1.419 . S
C2749 C2744 1.425 . S
C2749 C2746 1.409 . S
C2749 C2747 1.415 . S
C2750 H2740 0.930 . S
C2750 C2748 1.419 . S
C2750 C2751 1.362 . S
C2751 H2741 0.930 . S
C2751 C2744 1.409 . S
C2751 C2750 1.362 . S
H2752 C2758 0.930 . S
H2753 C2761 0.930 . S
H2754 C2762 0.930 . S
H2755 C2763 0.930 . S
H2756 C2766 0.930 . S
H2757 C2767 0.930 . S
C2758 H2752 0.930 . S
C2758 C2759 1.355 . S
C2758 C2760 1.415 . S
C2759 C2758 1.355 . S
C2759 C2761 1.419 . S
C2760 C2758 1.415 . S
C2760 C2765 1.425 . S
C2760 C2767 1.409 . S
C2761 H2753 0.930 . S
C2761 C2759 1.419 . S
C2761 C2762 1.362 . S
C2762 H2754 0.930 . S
C2762 C2761 1.362 . S
C2762 C2765 1.409 . S
C2763 H2755 0.930 . S
C2763 C2764 1.355 . S
C2763 C2765 1.415 . S
C2764 C2763 1.355 . S
C2764 C2766 1.419 . S
C2765 C2760 1.425 . S
C2765 C2762 1.409 . S
C2765 C2763 1.415 . S
C2766 H2756 0.930 . S
C2766 C2764 1.419 . S
C2766 C2767 1.362 . S
C2767 H2757 0.930 . S
C2767 C2760 1.409 . S
C2767 C2766 1.362 . S
H2768 C2774 0.930 . S
H2769 C2777 0.930 . S
H2770 C2778 0.930 . S
H2771 C2779 0.930 . S
H2772 C2782 0.930 . S
H2773 C2783 0.930 . S
C2774 H2768 0.930 . S
C2774 C2775 1.355 . S
C2774 C2776 1.415 . S
C2775 C2774 1.355 . S
C2775 C2777 1.419 . S
C2776 C2774 1.415 . S
C2776 C2781 1.425 . S
C2776 C2783 1.409 . S
C2777 H2769 0.930 . S
C2777 C2775 1.419 . S
C2777 C2778 1.362 . S
C2778 H2770 0.930 . S
C2778 C2777 1.362 . S
C2778 C2781 1.409 . S
C2779 H2771 0.930 . S
C2779 C2780 1.355 . S
C2779 C2781 1.415 . S
C2780 C2779 1.355 . S
C2780 C2782 1.419 . S
C2781 C2776 1.425 . S
C2781 C2778 1.409 . S
C2781 C2779 1.415 . S
C2782 H2772 0.930 . S
C2782 C2780 1.419 . S
C2782 C2783 1.362 . S
C2783 H2773 0.930 . S
C2783 C2776 1.409 . S
C2783 C2782 1.362 . S
H2784 C2790 0.930 . S
H2785 C2793 0.930 . S
H2786 C2794 0.930 . S
H2787 C2795 0.930 . S
H2788 C2798 0.930 . S
H2789 C2799 0.930 . S
C2790 H2784 0.930 . S
C2790 C2791 1.355 . S
C2790 C2792 1.415 . S
C2791 C2790 1.355 . S
C2791 C2793 1.419 . S
C2792 C2790 1.415 . S
C2792 C2797 1.425 . S
C2792 C2799 1.409 . S
C2793 H2785 0.930 . S
C2793 C2791 1.419 . S
C2793 C2794 1.362 . S
C2794 H2786 0.930 . S
C2794 C2793 1.362 . S
C2794 C2797 1.409 . S
C2795 H2787 0.930 . S
C2795 C2796 1.355 . S
C2795 C2797 1.415 . S
C2796 C2795 1.355 . S
C2796 C2798 1.419 . S
C2797 C2792 1.425 . S
C2797 C2794 1.409 . S
C2797 C2795 1.415 . S
C2798 H2788 0.930 . S
C2798 C2796 1.419 . S
C2798 C2799 1.362 . S
C2799 H2789 0.930 . S
C2799 C2792 1.409 . S
C2799 C2798 1.362 . S
H2800 C2806 0.930 . S
H2801 C2809 0.930 . S
H2802 C2810 0.930 . S
H2803 C2811 0.930 . S
H2804 C2814 0.930 . S
H2805 C2815 0.930 . S
C2806 H2800 0.930 . S
C2806 C2807 1.355 . S
C2806 C2808 1.415 . S
C2807 C2806 1.355 . S
C2807 C2809 1.419 . S
C2808 C2806 1.415 . S
C2808 C2813 1.425 . S
C2808 C2815 1.409 . S
C2809 H2801 0.930 . S
C2809 C2807 1.419 . S
C2809 C2810 1.362 . S
C2810 H2802 0.930 . S
C2810 C2809 1.362 . S
C2810 C2813 1.409 . S
C2811 H2803 0.930 . S
C2811 C2812 1.355 . S
C2811 C2813 1.415 . S
C2812 C2811 1.355 . S
C2812 C2814 1.419 . S
C2813 C2808 1.425 . S
C2813 C2810 1.409 . S
C2813 C2811 1.415 . S
C2814 H2804 0.930 . S
C2814 C2812 1.419 . S
C2814 C2815 1.362 . S
C2815 H2805 0.930 . S
C2815 C2808 1.409 . S
C2815 C2814 1.362 . S
H2816 C2822 0.930 . S
H2817 C2825 0.930 . S
H2818 C2826 0.930 . S
H2819 C2827 0.930 1_556 S
H2820 C2830 0.930 . S
H2821 C2831 0.930 . S
C2822 H2816 0.930 . S
C2822 C2823 1.355 . S
C2822 C2824 1.415 . S
C2823 C2822 1.355 . S
C2823 C2825 1.419 . S
C2824 C2822 1.415 . S
C2824 C2829 1.425 . S
C2824 C2831 1.409 . S
C2825 H2817 0.930 . S
C2825 C2823 1.419 . S
C2825 C2826 1.362 . S
C2826 H2818 0.930 . S
C2826 C2825 1.362 . S
C2826 C2829 1.409 . S
C2827 H2819 0.930 1_554 S
C2827 C2828 1.355 1_554 S
C2827 C2829 1.415 . S
C2828 C2827 1.355 1_556 S
C2828 C2830 1.419 1_556 S
C2829 C2824 1.425 . S
C2829 C2826 1.409 . S
C2829 C2827 1.415 . S
C2830 H2820 0.930 . S
C2830 C2828 1.419 1_554 S
C2830 C2831 1.362 . S
C2831 H2821 0.930 . S
C2831 C2824 1.409 . S
C2831 C2830 1.362 . S
H2832 C2838 0.930 . S
H2833 C2841 0.930 . S
H2834 C2842 0.930 . S
H2835 C2843 0.930 . S
H2836 C2846 0.930 . S
H2837 C2847 0.930 . S
C2838 H2832 0.930 . S
C2838 C2839 1.355 . S
C2838 C2840 1.415 . S
C2839 C2838 1.355 . S
C2839 C2841 1.419 . S
C2840 C2838 1.415 . S
C2840 C2845 1.425 . S
C2840 C2847 1.409 . S
C2841 H2833 0.930 . S
C2841 C2839 1.419 . S
C2841 C2842 1.362 . S
C2842 H2834 0.930 . S
C2842 C2841 1.362 . S
C2842 C2845 1.409 . S
C2843 H2835 0.930 . S
C2843 C2844 1.355 . S
C2843 C2845 1.415 . S
C2844 C2843 1.355 . S
C2844 C2846 1.419 . S
C2845 C2840 1.425 . S
C2845 C2842 1.409 . S
C2845 C2843 1.415 . S
C2846 H2836 0.930 . S
C2846 C2844 1.419 . S
C2846 C2847 1.362 . S
C2847 H2837 0.930 . S
C2847 C2840 1.409 . S
C2847 C2846 1.362 . S
H2848 C2854 0.930 . S
H2849 C2857 0.930 . S
H2850 C2858 0.930 . S
H2851 C2859 0.930 . S
H2852 C2862 0.930 . S
H2853 C2863 0.930 . S
C2854 H2848 0.930 . S
C2854 C2855 1.355 . S
C2854 C2856 1.415 . S
C2855 C2854 1.355 . S
C2855 C2857 1.419 . S
C2856 C2854 1.415 . S
C2856 C2861 1.425 . S
C2856 C2863 1.409 . S
C2857 H2849 0.930 . S
C2857 C2855 1.419 . S
C2857 C2858 1.362 . S
C2858 H2850 0.930 . S
C2858 C2857 1.362 . S
C2858 C2861 1.409 . S
C2859 H2851 0.930 . S
C2859 C2860 1.355 1_556 S
C2859 C2861 1.415 . S
C2860 C2859 1.355 1_554 S
C2860 C2862 1.419 . S
C2861 C2856 1.425 . S
C2861 C2858 1.409 . S
C2861 C2859 1.415 . S
C2862 H2852 0.930 . S
C2862 C2860 1.419 . S
C2862 C2863 1.362 1_554 S
C2863 H2853 0.930 . S
C2863 C2856 1.409 . S
C2863 C2862 1.362 1_556 S
H2864 C2870 0.930 . S
H2865 C2873 0.930 . S
H2866 C2874 0.930 . S
H2867 C2875 0.930 . S
H2868 C2878 0.930 . S
H2869 C2879 0.930 . S
C2870 H2864 0.930 . S
C2870 C2871 1.355 . S
C2870 C2872 1.415 . S
C2871 C2870 1.355 . S
C2871 C2873 1.419 . S
C2872 C2870 1.415 . S
C2872 C2877 1.425 . S
C2872 C2879 1.409 . S
C2873 H2865 0.930 . S
C2873 C2871 1.419 . S
C2873 C2874 1.362 . S
C2874 H2866 0.930 . S
C2874 C2873 1.362 . S
C2874 C2877 1.409 . S
C2875 H2867 0.930 . S
C2875 C2876 1.355 . S
C2875 C2877 1.415 . S
C2876 C2875 1.355 . S
C2876 C2878 1.419 . S
C2877 C2872 1.425 . S
C2877 C2874 1.409 . S
C2877 C2875 1.415 . S
C2878 H2868 0.930 . S
C2878 C2876 1.419 . S
C2878 C2879 1.362 . S
C2879 H2869 0.930 . S
C2879 C2872 1.409 . S
C2879 C2878 1.362 . S
H2880 C2886 0.930 . S
H2881 C2889 0.930 . S
H2882 C2890 0.930 . S
H2883 C2891 0.930 . S
H2884 C2894 0.930 . S
H2885 C2895 0.930 . S
C2886 H2880 0.930 . S
C2886 C2887 1.355 . S
C2886 C2888 1.415 . S
C2887 C2886 1.355 . S
C2887 C2889 1.419 . S
C2888 C2886 1.415 . S
C2888 C2893 1.425 . S
C2888 C2895 1.409 . S
C2889 H2881 0.930 . S
C2889 C2887 1.419 . S
C2889 C2890 1.362 . S
C2890 H2882 0.930 . S
C2890 C2889 1.362 . S
C2890 C2893 1.409 . S
C2891 H2883 0.930 . S
C2891 C2892 1.355 . S
C2891 C2893 1.415 . S
C2892 C2891 1.355 . S
C2892 C2894 1.419 . S
C2893 C2888 1.425 . S
C2893 C2890 1.409 . S
C2893 C2891 1.415 . S
C2894 H2884 0.930 . S
C2894 C2892 1.419 . S
C2894 C2895 1.362 . S
C2895 H2885 0.930 . S
C2895 C2888 1.409 . S
C2895 C2894 1.362 . S
H2896 C2902 0.930 . S
H2897 C2905 0.930 . S
H2898 C2906 0.930 . S
H2899 C2907 0.930 . S
H2900 C2910 0.930 . S
H2901 C2911 0.930 . S
C2902 H2896 0.930 . S
C2902 C2903 1.355 . S
C2902 C2904 1.415 . S
C2903 C2902 1.355 . S
C2903 C2905 1.419 . S
C2904 C2902 1.415 . S
C2904 C2909 1.425 . S
C2904 C2911 1.409 . S
C2905 H2897 0.930 . S
C2905 C2903 1.419 . S
C2905 C2906 1.362 . S
C2906 H2898 0.930 . S
C2906 C2905 1.362 . S
C2906 C2909 1.409 . S
C2907 H2899 0.930 . S
C2907 C2908 1.355 . S
C2907 C2909 1.415 . S
C2908 C2907 1.355 . S
C2908 C2910 1.419 . S
C2909 C2904 1.425 . S
C2909 C2906 1.409 . S
C2909 C2907 1.415 . S
C2910 H2900 0.930 . S
C2910 C2908 1.419 . S
C2910 C2911 1.362 . S
C2911 H2901 0.930 . S
C2911 C2904 1.409 . S
C2911 C2910 1.362 . S
H2912 C2918 0.930 . S
H2913 C2921 0.930 . S
H2914 C2922 0.930 . S
H2915 C2923 0.930 . S
H2916 C2926 0.930 . S
H2917 C2927 0.930 . S
C2918 H2912 0.930 . S
C2918 C2919 1.355 . S
C2918 C2920 1.415 . S
C2919 C2918 1.355 . S
C2919 C2921 1.419 . S
C2920 C2918 1.415 . S
C2920 C2925 1.425 . S
C2920 C2927 1.409 . S
C2921 H2913 0.930 . S
C2921 C2919 1.419 . S
C2921 C2922 1.362 . S
C2922 H2914 0.930 . S
C2922 C2921 1.362 . S
C2922 C2925 1.409 . S
C2923 H2915 0.930 . S
C2923 C2924 1.355 . S
C2923 C2925 1.415 . S
C2924 C2923 1.355 . S
C2924 C2926 1.419 . S
C2925 C2920 1.425 . S
C2925 C2922 1.409 . S
C2925 C2923 1.415 . S
C2926 H2916 0.930 . S
C2926 C2924 1.419 . S
C2926 C2927 1.362 . S
C2927 H2917 0.930 . S
C2927 C2920 1.409 . S
C2927 C2926 1.362 . S
H2928 C2934 0.930 . S
H2929 C2937 0.930 . S
H2930 C2938 0.930 . S
H2931 C2939 0.930 . S
H2932 C2942 0.930 . S
H2933 C2943 0.930 . S
C2934 H2928 0.930 . S
C2934 C2935 1.355 . S
C2934 C2936 1.415 . S
C2935 C2934 1.355 . S
C2935 C2937 1.419 . S
C2936 C2934 1.415 . S
C2936 C2941 1.425 . S
C2936 C2943 1.409 . S
C2937 H2929 0.930 . S
C2937 C2935 1.419 . S
C2937 C2938 1.362 . S
C2938 H2930 0.930 . S
C2938 C2937 1.362 . S
C2938 C2941 1.409 . S
C2939 H2931 0.930 . S
C2939 C2940 1.355 . S
C2939 C2941 1.415 . S
C2940 C2939 1.355 . S
C2940 C2942 1.419 . S
C2941 C2936 1.425 . S
C2941 C2938 1.409 . S
C2941 C2939 1.415 . S
C2942 H2932 0.930 . S
C2942 C2940 1.419 . S
C2942 C2943 1.362 . S
C2943 H2933 0.930 . S
C2943 C2936 1.409 . S
C2943 C2942 1.362 . S
H2944 C2950 0.930 . S
H2945 C2953 0.930 . S
H2946 C2954 0.930 . S
H2947 C2955 0.930 . S
H2948 C2958 0.930 . S
H2949 C2959 0.930 . S
C2950 H2944 0.930 . S
C2950 C2951 1.355 . S
C2950 C2952 1.415 . S
C2951 C2950 1.355 . S
C2951 C2953 1.419 . S
C2952 C2950 1.415 . S
C2952 C2957 1.425 . S
C2952 C2959 1.409 1_655 S
C2953 H2945 0.930 . S
C2953 C2951 1.419 . S
C2953 C2954 1.362 . S
C2954 H2946 0.930 . S
C2954 C2953 1.362 . S
C2954 C2957 1.409 . S
C2955 H2947 0.930 . S
C2955 C2956 1.355 . S
C2955 C2957 1.415 1_455 S
C2956 C2955 1.355 . S
C2956 C2958 1.419 . S
C2957 C2952 1.425 . S
C2957 C2954 1.409 . S
C2957 C2955 1.415 1_655 S
C2958 H2948 0.930 . S
C2958 C2956 1.419 . S
C2958 C2959 1.362 . S
C2959 H2949 0.930 . S
C2959 C2952 1.409 1_455 S
C2959 C2958 1.362 . S
H2960 C2966 0.930 . S
H2961 C2969 0.930 . S
H2962 C2970 0.930 . S
H2963 C2971 0.930 . S
H2964 C2974 0.930 . S
H2965 C2975 0.930 . S
C2966 H2960 0.930 . S
C2966 C2967 1.355 . S
C2966 C2968 1.415 . S
C2967 C2966 1.355 . S
C2967 C2969 1.419 . S
C2968 C2966 1.415 . S
C2968 C2973 1.425 . S
C2968 C2975 1.409 . S
C2969 H2961 0.930 . S
C2969 C2967 1.419 . S
C2969 C2970 1.362 . S
C2970 H2962 0.930 . S
C2970 C2969 1.362 . S
C2970 C2973 1.409 . S
C2971 H2963 0.930 . S
C2971 C2972 1.355 . S
C2971 C2973 1.415 . S
C2972 C2971 1.355 . S
C2972 C2974 1.419 . S
C2973 C2968 1.425 . S
C2973 C2970 1.409 . S
C2973 C2971 1.415 . S
C2974 H2964 0.930 . S
C2974 C2972 1.419 . S
C2974 C2975 1.362 . S
C2975 H2965 0.930 . S
C2975 C2968 1.409 . S
C2975 C2974 1.362 . S
H2976 C2982 0.930 . S
H2977 C2985 0.930 . S
H2978 C2986 0.930 . S
H2979 C2987 0.930 . S
H2980 C2990 0.930 . S
H2981 C2991 0.930 . S
C2982 H2976 0.930 . S
C2982 C2983 1.355 . S
C2982 C2984 1.415 . S
C2983 C2982 1.355 . S
C2983 C2985 1.419 . S
C2984 C2982 1.415 . S
C2984 C2989 1.425 . S
C2984 C2991 1.409 . S
C2985 H2977 0.930 . S
C2985 C2983 1.419 . S
C2985 C2986 1.362 . S
C2986 H2978 0.930 . S
C2986 C2985 1.362 . S
C2986 C2989 1.409 . S
C2987 H2979 0.930 . S
C2987 C2988 1.355 . S
C2987 C2989 1.415 . S
C2988 C2987 1.355 . S
C2988 C2990 1.419 . S
C2989 C2984 1.425 . S
C2989 C2986 1.409 . S
C2989 C2987 1.415 . S
C2990 H2980 0.930 . S
C2990 C2988 1.419 . S
C2990 C2991 1.362 . S
C2991 H2981 0.930 . S
C2991 C2984 1.409 . S
C2991 C2990 1.362 . S
H2992 C2998 0.930 . S
H2993 C3001 0.930 . S
H2994 C3002 0.930 . S
H2995 C3003 0.930 . S
H2996 C3006 0.930 . S
H2997 C3007 0.930 . S
C2998 H2992 0.930 . S
C2998 C2999 1.355 . S
C2998 C3000 1.415 . S
C2999 C2998 1.355 . S
C2999 C3001 1.419 . S
C3000 C2998 1.415 . S
C3000 C3005 1.425 . S
C3000 C3007 1.409 . S
C3001 H2993 0.930 . S
C3001 C2999 1.419 . S
C3001 C3002 1.362 . S
C3002 H2994 0.930 . S
C3002 C3001 1.362 . S
C3002 C3005 1.409 . S
C3003 H2995 0.930 . S
C3003 C3004 1.355 . S
C3003 C3005 1.415 . S
C3004 C3003 1.355 . S
C3004 C3006 1.419 . S
C3005 C3000 1.425 . S
C3005 C3002 1.409 . S
C3005 C3003 1.415 . S
C3006 H2996 0.930 . S
C3006 C3004 1.419 . S
C3006 C3007 1.362 . S
C3007 H2997 0.930 . S
C3007 C3000 1.409 . S
C3007 C3006 1.362 . S
H3008 C3014 0.930 . S
H3009 C3017 0.930 . S
H3010 C3018 0.930 . S
H3011 C3019 0.930 . S
H3012 C3022 0.930 . S
H3013 C3023 0.930 . S
C3014 H3008 0.930 . S
C3014 C3015 1.355 1_655 S
C3014 C3016 1.415 . S
C3015 C3014 1.355 1_455 S
C3015 C3017 1.419 . S
C3016 C3014 1.415 . S
C3016 C3021 1.425 . S
C3016 C3023 1.409 . S
C3017 H3009 0.930 . S
C3017 C3015 1.419 . S
C3017 C3018 1.362 1_455 S
C3018 H3010 0.930 . S
C3018 C3017 1.362 1_655 S
C3018 C3021 1.409 . S
C3019 H3011 0.930 . S
C3019 C3020 1.355 . S
C3019 C3021 1.415 . S
C3020 C3019 1.355 . S
C3020 C3022 1.419 . S
C3021 C3016 1.425 . S
C3021 C3018 1.409 . S
C3021 C3019 1.415 . S
C3022 H3012 0.930 . S
C3022 C3020 1.419 . S
C3022 C3023 1.362 . S
C3023 H3013 0.930 . S
C3023 C3016 1.409 . S
C3023 C3022 1.362 . S
H3024 C3030 0.930 . S
H3025 C3033 0.930 . S
H3026 C3034 0.930 . S
H3027 C3035 0.930 . S
H3028 C3038 0.930 . S
H3029 C3039 0.930 . S
C3030 H3024 0.930 . S
C3030 C3031 1.355 . S
C3030 C3032 1.415 . S
C3031 C3030 1.355 . S
C3031 C3033 1.419 . S
C3032 C3030 1.415 . S
C3032 C3037 1.425 . S
C3032 C3039 1.409 . S
C3033 H3025 0.930 . S
C3033 C3031 1.419 . S
C3033 C3034 1.362 . S
C3034 H3026 0.930 . S
C3034 C3033 1.362 . S
C3034 C3037 1.409 . S
C3035 H3027 0.930 . S
C3035 C3036 1.355 . S
C3035 C3037 1.415 . S
C3036 C3035 1.355 . S
C3036 C3038 1.419 . S
C3037 C3032 1.425 . S
C3037 C3034 1.409 . S
C3037 C3035 1.415 . S
C3038 H3028 0.930 . S
C3038 C3036 1.419 . S
C3038 C3039 1.362 . S
C3039 H3029 0.930 . S
C3039 C3032 1.409 . S
C3039 C3038 1.362 . S
H3040 C3046 0.930 . S
H3041 C3049 0.930 . S
H3042 C3050 0.930 . S
H3043 C3051 0.930 . S
H3044 C3054 0.930 . S
H3045 C3055 0.930 . S
C3046 H3040 0.930 . S
C3046 C3047 1.355 . S
C3046 C3048 1.415 . S
C3047 C3046 1.355 . S
C3047 C3049 1.419 . S
C3048 C3046 1.415 . S
C3048 C3053 1.425 . S
C3048 C3055 1.409 . S
C3049 H3041 0.930 . S
C3049 C3047 1.419 . S
C3049 C3050 1.362 . S
C3050 H3042 0.930 . S
C3050 C3049 1.362 . S
C3050 C3053 1.409 . S
C3051 H3043 0.930 . S
C3051 C3052 1.355 . S
C3051 C3053 1.415 . S
C3052 C3051 1.355 . S
C3052 C3054 1.419 . S
C3053 C3048 1.425 . S
C3053 C3050 1.409 . S
C3053 C3051 1.415 . S
C3054 H3044 0.930 . S
C3054 C3052 1.419 . S
C3054 C3055 1.362 . S
C3055 H3045 0.930 . S
C3055 C3048 1.409 . S
C3055 C3054 1.362 . S
H3056 C3062 0.930 . S
H3057 C3065 0.930 . S
H3058 C3066 0.930 . S
H3059 C3067 0.930 . S
H3060 C3070 0.930 . S
H3061 C3071 0.930 . S
C3062 H3056 0.930 . S
C3062 C3063 1.355 . S
C3062 C3064 1.415 . S
C3063 C3062 1.355 . S
C3063 C3065 1.419 . S
C3064 C3062 1.415 . S
C3064 C3069 1.425 . S
C3064 C3071 1.409 . S
C3065 H3057 0.930 . S
C3065 C3063 1.419 . S
C3065 C3066 1.362 . S
C3066 H3058 0.930 . S
C3066 C3065 1.362 . S
C3066 C3069 1.409 . S
C3067 H3059 0.930 . S
C3067 C3068 1.355 1_565 S
C3067 C3069 1.415 . S
C3068 C3067 1.355 1_545 S
C3068 C3070 1.419 . S
C3069 C3064 1.425 . S
C3069 C3066 1.409 . S
C3069 C3067 1.415 . S
C3070 H3060 0.930 . S
C3070 C3068 1.419 . S
C3070 C3071 1.362 1_545 S
C3071 H3061 0.930 . S
C3071 C3064 1.409 . S
C3071 C3070 1.362 1_565 S
H3072 C3078 0.930 . S
H3073 C3081 0.930 . S
H3074 C3082 0.930 . S
H3075 C3083 0.930 . S
H3076 C3086 0.930 . S
H3077 C3087 0.930 . S
C3078 H3072 0.930 . S
C3078 C3079 1.355 . S
C3078 C3080 1.415 . S
C3079 C3078 1.355 . S
C3079 C3081 1.419 . S
C3080 C3078 1.415 . S
C3080 C3085 1.425 . S
C3080 C3087 1.409 . S
C3081 H3073 0.930 . S
C3081 C3079 1.419 . S
C3081 C3082 1.362 . S
C3082 H3074 0.930 . S
C3082 C3081 1.362 . S
C3082 C3085 1.409 . S
C3083 H3075 0.930 . S
C3083 C3084 1.355 . S
C3083 C3085 1.415 . S
C3084 C3083 1.355 . S
C3084 C3086 1.419 . S
C3085 C3080 1.425 . S
C3085 C3082 1.409 . S
C3085 C3083 1.415 . S
C3086 H3076 0.930 . S
C3086 C3084 1.419 . S
C3086 C3087 1.362 . S
C3087 H3077 0.930 . S
C3087 C3080 1.409 . S
C3087 C3086 1.362 . S
H3088 C3094 0.930 . S
H3089 C3097 0.930 . S
H3090 C3098 0.930 . S
H3091 C3099 0.930 . S
H3092 C3102 0.930 . S
H3093 C3103 0.930 . S
C3094 H3088 0.930 . S
C3094 C3095 1.355 1_545 S
C3094 C3096 1.415 . S
C3095 C3094 1.355 1_565 S
C3095 C3097 1.419 . S
C3096 C3094 1.415 . S
C3096 C3101 1.425 . S
C3096 C3103 1.409 . S
C3097 H3089 0.930 . S
C3097 C3095 1.419 . S
C3097 C3098 1.362 1_565 S
C3098 H3090 0.930 . S
C3098 C3097 1.362 1_545 S
C3098 C3101 1.409 . S
C3099 H3091 0.930 . S
C3099 C3100 1.355 . S
C3099 C3101 1.415 . S
C3100 C3099 1.355 . S
C3100 C3102 1.419 . S
C3101 C3096 1.425 . S
C3101 C3098 1.409 . S
C3101 C3099 1.415 . S
C3102 H3092 0.930 . S
C3102 C3100 1.419 . S
C3102 C3103 1.362 . S
C3103 H3093 0.930 . S
C3103 C3096 1.409 . S
C3103 C3102 1.362 . S
H3104 C3110 0.930 . S
H3105 C3113 0.930 . S
H3106 C3114 0.930 . S
H3107 C3115 0.930 . S
H3108 C3118 0.930 . S
H3109 C3119 0.930 . S
C3110 H3104 0.930 . S
C3110 C3111 1.355 . S
C3110 C3112 1.415 . S
C3111 C3110 1.355 . S
C3111 C3113 1.419 . S
C3112 C3110 1.415 . S
C3112 C3117 1.425 . S
C3112 C3119 1.409 . S
C3113 H3105 0.930 . S
C3113 C3111 1.419 . S
C3113 C3114 1.362 . S
C3114 H3106 0.930 . S
C3114 C3113 1.362 . S
C3114 C3117 1.409 . S
C3115 H3107 0.930 . S
C3115 C3116 1.355 . S
C3115 C3117 1.415 . S
C3116 C3115 1.355 . S
C3116 C3118 1.419 . S
C3117 C3112 1.425 . S
C3117 C3114 1.409 . S
C3117 C3115 1.415 . S
C3118 H3108 0.930 . S
C3118 C3116 1.419 . S
C3118 C3119 1.362 . S
C3119 H3109 0.930 . S
C3119 C3112 1.409 . S
C3119 C3118 1.362 . S
H3120 C3126 0.930 . S
H3121 C3129 0.930 . S
H3122 C3130 0.930 . S
H3123 C3131 0.930 . S
H3124 C3134 0.930 . S
H3125 C3135 0.930 . S
C3126 H3120 0.930 . S
C3126 C3127 1.355 . S
C3126 C3128 1.415 . S
C3127 C3126 1.355 . S
C3127 C3129 1.419 . S
C3128 C3126 1.415 . S
C3128 C3133 1.425 . S
C3128 C3135 1.409 . S
C3129 H3121 0.930 . S
C3129 C3127 1.419 . S
C3129 C3130 1.362 . S
C3130 H3122 0.930 . S
C3130 C3129 1.362 . S
C3130 C3133 1.409 . S
C3131 H3123 0.930 . S
C3131 C3132 1.355 . S
C3131 C3133 1.415 . S
C3132 C3131 1.355 . S
C3132 C3134 1.419 . S
C3133 C3128 1.425 . S
C3133 C3130 1.409 . S
C3133 C3131 1.415 . S
C3134 H3124 0.930 . S
C3134 C3132 1.419 . S
C3134 C3135 1.362 . S
C3135 H3125 0.930 . S
C3135 C3128 1.409 . S
C3135 C3134 1.362 . S
H3136 C3142 0.930 . S
H3137 C3145 0.930 . S
H3138 C3146 0.930 . S
H3139 C3147 0.930 . S
H3140 C3150 0.930 . S
H3141 C3151 0.930 . S
C3142 H3136 0.930 . S
C3142 C3143 1.355 . S
C3142 C3144 1.415 . S
C3143 C3142 1.355 . S
C3143 C3145 1.419 . S
C3144 C3142 1.415 . S
C3144 C3149 1.425 . S
C3144 C3151 1.409 . S
C3145 H3137 0.930 . S
C3145 C3143 1.419 . S
C3145 C3146 1.362 . S
C3146 H3138 0.930 . S
C3146 C3145 1.362 . S
C3146 C3149 1.409 . S
C3147 H3139 0.930 . S
C3147 C3148 1.355 . S
C3147 C3149 1.415 . S
C3148 C3147 1.355 . S
C3148 C3150 1.419 . S
C3149 C3144 1.425 . S
C3149 C3146 1.409 . S
C3149 C3147 1.415 . S
C3150 H3140 0.930 . S
C3150 C3148 1.419 . S
C3150 C3151 1.362 . S
C3151 H3141 0.930 . S
C3151 C3144 1.409 . S
C3151 C3150 1.362 . S
H3152 C3158 0.930 . S
H3153 C3161 0.930 . S
H3154 C3162 0.930 . S
H3155 C3163 0.930 . S
H3156 C3166 0.930 . S
H3157 C3167 0.930 . S
C3158 H3152 0.930 . S
C3158 C3159 1.355 . S
C3158 C3160 1.415 . S
C3159 C3158 1.355 . S
C3159 C3161 1.419 . S
C3160 C3158 1.415 . S
C3160 C3165 1.425 . S
C3160 C3167 1.409 . S
C3161 H3153 0.930 . S
C3161 C3159 1.419 . S
C3161 C3162 1.362 . S
C3162 H3154 0.930 . S
C3162 C3161 1.362 . S
C3162 C3165 1.409 . S
C3163 H3155 0.930 . S
C3163 C3164 1.355 . S
C3163 C3165 1.415 . S
C3164 C3163 1.355 . S
C3164 C3166 1.419 . S
C3165 C3160 1.425 . S
C3165 C3162 1.409 . S
C3165 C3163 1.415 . S
C3166 H3156 0.930 . S
C3166 C3164 1.419 . S
C3166 C3167 1.362 . S
C3167 H3157 0.930 . S
C3167 C3160 1.409 . S
C3167 C3166 1.362 . S
H3168 C3174 0.930 . S
H3169 C3177 0.930 . S
H3170 C3178 0.930 . S
H3171 C3179 0.930 1_655 S
H3172 C3182 0.930 . S
H3173 C3183 0.930 . S
C3174 H3168 0.930 . S
C3174 C3175 1.355 . S
C3174 C3176 1.404 1_655 S
C3175 C3174 1.355 . S
C3175 C3177 1.419 . S
C3176 C3174 1.404 1_455 S
C3176 C3181 1.417 1_455 S
C3176 C3183 1.428 . S
C3177 H3169 0.930 . S
C3177 C3175 1.419 . S
C3177 C3178 1.362 . S
C3178 H3170 0.930 . S
C3178 C3177 1.362 . S
C3178 C3181 1.409 . S
C3179 H3171 0.930 1_455 S
C3179 C3180 1.355 . S
C3179 C3181 1.415 1_455 S
C3180 C3179 1.355 . S
C3180 C3182 1.419 . S
C3181 C3176 1.417 1_655 S
C3181 C3178 1.409 . S
C3181 C3179 1.415 1_655 S
C3182 H3172 0.930 . S
C3182 C3180 1.419 . S
C3182 C3183 1.362 . S
C3183 H3173 0.930 . S
C3183 C3176 1.428 . S
C3183 C3182 1.362 . S
H3184 C3190 0.930 . S
H3185 C3193 0.930 . S
H3186 C3194 0.930 . S
H3187 C3195 0.930 . S
H3188 C3198 0.930 . S
H3189 C3199 0.930 . S
C3190 H3184 0.930 . S
C3190 C3191 1.355 . S
C3190 C3192 1.415 . S
C3191 C3190 1.355 . S
C3191 C3193 1.419 . S
C3192 C3190 1.415 . S
C3192 C3197 1.425 1_455 S
C3192 C3199 1.409 . S
C3193 H3185 0.930 . S
C3193 C3191 1.419 . S
C3193 C3194 1.362 1_455 S
C3194 H3186 0.930 . S
C3194 C3193 1.362 1_655 S
C3194 C3197 1.409 . S
C3195 H3187 0.930 . S
C3195 C3196 1.355 . S
C3195 C3197 1.415 . S
C3196 C3195 1.355 . S
C3196 C3198 1.419 . S
C3197 C3192 1.425 1_655 S
C3197 C3194 1.409 . S
C3197 C3195 1.415 . S
C3198 H3188 0.930 . S
C3198 C3196 1.419 . S
C3198 C3199 1.362 1_655 S
C3199 H3189 0.930 . S
C3199 C3192 1.409 . S
C3199 C3198 1.362 1_455 S
H3200 C3206 0.930 . S
H3201 C3209 0.930 . S
H3202 C3210 0.930 . S
H3203 C3211 0.930 . S
H3204 C3214 0.930 . S
H3205 C3215 0.930 . S
C3206 H3200 0.930 . S
C3206 C3207 1.355 . S
C3206 C3208 1.415 . S
C3207 C3206 1.355 . S
C3207 C3209 1.419 . S
C3208 C3206 1.415 . S
C3208 C3213 1.425 . S
C3208 C3215 1.409 . S
C3209 H3201 0.930 . S
C3209 C3207 1.419 . S
C3209 C3210 1.362 . S
C3210 H3202 0.930 . S
C3210 C3209 1.362 . S
C3210 C3213 1.409 . S
C3211 H3203 0.930 . S
C3211 C3212 1.355 . S
C3211 C3213 1.415 . S
C3212 C3211 1.355 . S
C3212 C3214 1.419 . S
C3213 C3208 1.425 . S
C3213 C3210 1.409 . S
C3213 C3211 1.415 . S
C3214 H3204 0.930 . S
C3214 C3212 1.419 . S
C3214 C3215 1.362 . S
C3215 H3205 0.930 . S
C3215 C3208 1.409 . S
C3215 C3214 1.362 . S
H3216 C3222 0.930 . S
H3217 C3225 0.930 . S
H3218 C3226 0.930 . S
H3219 C3227 0.930 . S
H3220 C3230 0.930 . S
H3221 C3231 0.930 . S
C3222 H3216 0.930 . S
C3222 C3223 1.355 . S
C3222 C3224 1.415 . S
C3223 C3222 1.355 . S
C3223 C3225 1.419 . S
C3224 C3222 1.415 . S
C3224 C3229 1.425 . S
C3224 C3231 1.409 . S
C3225 H3217 0.930 . S
C3225 C3223 1.419 . S
C3225 C3226 1.362 . S
C3226 H3218 0.930 . S
C3226 C3225 1.362 . S
C3226 C3229 1.409 . S
C3227 H3219 0.930 . S
C3227 C3228 1.355 . S
C3227 C3229 1.415 . S
C3228 C3227 1.355 . S
C3228 C3230 1.419 . S
C3229 C3224 1.425 . S
C3229 C3226 1.409 . S
C3229 C3227 1.415 . S
C3230 H3220 0.930 . S
C3230 C3228 1.419 . S
C3230 C3231 1.362 . S
C3231 H3221 0.930 . S
C3231 C3224 1.409 . S
C3231 C3230 1.362 . S
H3232 C3238 0.930 . S
H3233 C3241 0.930 . S
H3234 C3242 0.930 . S
H3235 C3243 0.930 . S
H3236 C3246 0.919 1_545 S
H3237 C3247 0.930 . S
C3238 H3232 0.930 . S
C3238 C3239 1.355 . S
C3238 C3240 1.415 . S
C3239 C3238 1.355 . S
C3239 C3241 1.419 . S
C3240 C3238 1.415 . S
C3240 C3245 1.425 . S
C3240 C3247 1.409 . S
C3241 H3233 0.930 . S
C3241 C3239 1.419 . S
C3241 C3242 1.362 . S
C3242 H3234 0.930 . S
C3242 C3241 1.362 . S
C3242 C3245 1.409 . S
C3243 H3235 0.930 . S
C3243 C3244 1.355 . S
C3243 C3245 1.415 1_545 S
C3244 C3243 1.355 . S
C3244 C3246 1.401 1_545 S
C3245 C3240 1.425 . S
C3245 C3242 1.409 . S
C3245 C3243 1.415 1_565 S
C3246 H3236 0.919 1_565 S
C3246 C3244 1.401 1_565 S
C3246 C3247 1.392 . S
C3247 H3237 0.930 . S
C3247 C3240 1.409 . S
C3247 C3246 1.392 . S
H3248 C3254 0.930 . S
H3249 C3257 0.930 . S
H3250 C3258 0.930 . S
H3251 C3259 0.930 . S
H3252 C3262 0.930 . S
H3253 C3263 0.930 . S
C3254 H3248 0.930 . S
C3254 C3255 1.355 . S
C3254 C3256 1.415 . S
C3255 C3254 1.355 . S
C3255 C3257 1.419 . S
C3256 C3254 1.415 . S
C3256 C3261 1.425 . S
C3256 C3263 1.409 . S
C3257 H3249 0.930 . S
C3257 C3255 1.419 . S
C3257 C3258 1.362 . S
C3258 H3250 0.930 . S
C3258 C3257 1.362 . S
C3258 C3261 1.409 . S
C3259 H3251 0.930 . S
C3259 C3260 1.355 . S
C3259 C3261 1.415 . S
C3260 C3259 1.355 . S
C3260 C3262 1.419 . S
C3261 C3256 1.425 . S
C3261 C3258 1.409 . S
C3261 C3259 1.415 . S
C3262 H3252 0.930 . S
C3262 C3260 1.419 . S
C3262 C3263 1.362 . S
C3263 H3253 0.930 . S
C3263 C3256 1.409 . S
C3263 C3262 1.362 . S
H3264 C3270 0.930 . S
H3265 C3273 0.930 . S
H3266 C3274 0.930 . S
H3267 C3275 0.930 . S
H3268 C3278 0.930 . S
H3269 C3279 0.930 . S
C3270 H3264 0.930 . S
C3270 C3271 1.355 . S
C3270 C3272 1.427 . S
C3271 C3270 1.355 . S
C3271 C3273 1.419 . S
C3272 C3270 1.427 . S
C3272 C3277 1.430 . S
C3272 C3279 1.392 1_545 S
C3273 H3265 0.930 . S
C3273 C3271 1.419 . S
C3273 C3274 1.362 . S
C3274 H3266 0.930 . S
C3274 C3273 1.362 . S
C3274 C3277 1.409 . S
C3275 H3267 0.930 . S
C3275 C3276 1.355 . S
C3275 C3277 1.415 1_565 S
C3276 C3275 1.355 . S
C3276 C3278 1.419 . S
C3277 C3272 1.430 . S
C3277 C3274 1.409 . S
C3277 C3275 1.415 1_545 S
C3278 H3268 0.930 . S
C3278 C3276 1.419 . S
C3278 C3279 1.362 . S
C3279 H3269 0.930 . S
C3279 C3272 1.392 1_565 S
C3279 C3278 1.362 . S
H3280 C3286 0.930 . S
H3281 C3289 0.930 . S
H3282 C3290 0.930 1_554 S
H3283 C3291 0.930 . S
H3284 C3294 0.930 . S
H3285 C3295 0.930 . S
C3286 H3280 0.930 . S
C3286 C3287 1.355 . S
C3286 C3288 1.415 . S
C3287 C3286 1.355 . S
C3287 C3289 1.419 . S
C3288 C3286 1.415 . S
C3288 C3293 1.410 1_556 S
C3288 C3295 1.409 . S
C3289 H3281 0.930 . S
C3289 C3287 1.419 . S
C3289 C3290 1.362 . S
C3290 H3282 0.930 1_556 S
C3290 C3289 1.362 . S
C3290 C3293 1.408 1_556 S
C3291 H3283 0.930 . S
C3291 C3292 1.355 . S
C3291 C3293 1.431 . S
C3292 C3291 1.355 . S
C3292 C3294 1.419 . S
C3293 C3288 1.410 1_554 S
C3293 C3290 1.408 1_554 S
C3293 C3291 1.431 . S
C3294 H3284 0.930 . S
C3294 C3292 1.419 . S
C3294 C3295 1.362 1_554 S
C3295 H3285 0.930 . S
C3295 C3288 1.409 . S
C3295 C3294 1.362 1_556 S
H3296 C3302 0.930 1_556 S
H3297 C3305 0.930 . S
H3298 C3306 0.930 . S
H3299 C3307 0.930 . S
H3300 C3310 0.930 . S
H3301 C3311 0.930 . S
C3302 H3296 0.930 1_554 S
C3302 C3303 1.355 . S
C3302 C3304 1.415 1_554 S
C3303 C3302 1.355 . S
C3303 C3305 1.419 . S
C3304 C3302 1.415 1_556 S
C3304 C3309 1.425 . S
C3304 C3311 1.409 . S
C3305 H3297 0.930 . S
C3305 C3303 1.419 . S
C3305 C3306 1.362 . S
C3306 H3298 0.930 . S
C3306 C3305 1.362 . S
C3306 C3309 1.409 1_554 S
C3307 H3299 0.930 . S
C3307 C3308 1.355 . S
C3307 C3309 1.415 . S
C3308 C3307 1.355 . S
C3308 C3310 1.419 . S
C3309 C3304 1.425 . S
C3309 C3306 1.409 1_556 S
C3309 C3307 1.415 . S
C3310 H3300 0.930 . S
C3310 C3308 1.419 . S
C3310 C3311 1.362 . S
C3311 H3301 0.930 . S
C3311 C3304 1.409 . S
C3311 C3310 1.362 . S
H3312 C3318 0.930 . S
H3313 C3321 0.930 . S
H3314 C3322 0.930 . S
H3315 C3323 0.930 . S
H3316 C3326 0.930 . S
H3317 C3327 0.930 . S
C3318 H3312 0.930 . S
C3318 C3319 1.355 . S
C3318 C3320 1.415 . S
C3319 C3318 1.355 . S
C3319 C3321 1.419 . S
C3320 C3318 1.415 . S
C3320 C3325 1.425 . S
C3320 C3327 1.409 . S
C3321 H3313 0.930 . S
C3321 C3319 1.419 . S
C3321 C3322 1.362 . S
C3322 H3314 0.930 . S
C3322 C3321 1.362 . S
C3322 C3325 1.409 . S
C3323 H3315 0.930 . S
C3323 C3324 1.355 . S
C3323 C3325 1.415 . S
C3324 C3323 1.355 . S
C3324 C3326 1.419 . S
C3325 C3320 1.425 . S
C3325 C3322 1.409 . S
C3325 C3323 1.415 . S
C3326 H3316 0.930 . S
C3326 C3324 1.419 . S
C3326 C3327 1.362 . S
C3327 H3317 0.930 . S
C3327 C3320 1.409 . S
C3327 C3326 1.362 . S
H3328 C3334 0.930 . S
H3329 C3337 0.930 . S
H3330 C3338 0.930 . S
H3331 C3339 0.930 . S
H3332 C3342 0.930 . S
H3333 C3343 0.930 . S
C3334 H3328 0.930 . S
C3334 C3335 1.355 . S
C3334 C3336 1.415 . S
C3335 C3334 1.355 . S
C3335 C3337 1.419 . S
C3336 C3334 1.415 . S
C3336 C3341 1.425 . S
C3336 C3343 1.409 . S
C3337 H3329 0.930 . S
C3337 C3335 1.419 . S
C3337 C3338 1.362 . S
C3338 H3330 0.930 . S
C3338 C3337 1.362 . S
C3338 C3341 1.409 . S
C3339 H3331 0.930 . S
C3339 C3340 1.355 . S
C3339 C3341 1.415 . S
C3340 C3339 1.355 . S
C3340 C3342 1.419 . S
C3341 C3336 1.425 . S
C3341 C3338 1.409 . S
C3341 C3339 1.415 . S
C3342 H3332 0.930 . S
C3342 C3340 1.419 . S
C3342 C3343 1.362 . S
C3343 H3333 0.930 . S
C3343 C3336 1.409 . S
C3343 C3342 1.362 . S
H3344 C3350 0.930 . S
H3345 C3353 0.930 . S
H3346 C3354 0.930 . S
H3347 C3355 0.930 . S
H3348 C3358 0.930 . S
H3349 C3359 0.930 . S
C3350 H3344 0.930 . S
C3350 C3351 1.355 . S
C3350 C3352 1.415 . S
C3351 C3350 1.355 . S
C3351 C3353 1.419 . S
C3352 C3350 1.415 . S
C3352 C3357 1.425 . S
C3352 C3359 1.409 . S
C3353 H3345 0.930 . S
C3353 C3351 1.419 . S
C3353 C3354 1.362 . S
C3354 H3346 0.930 . S
C3354 C3353 1.362 . S
C3354 C3357 1.409 . S
C3355 H3347 0.930 . S
C3355 C3356 1.355 . S
C3355 C3357 1.415 . S
C3356 C3355 1.355 . S
C3356 C3358 1.419 . S
C3357 C3352 1.425 . S
C3357 C3354 1.409 . S
C3357 C3355 1.415 . S
C3358 H3348 0.930 . S
C3358 C3356 1.419 . S
C3358 C3359 1.362 . S
C3359 H3349 0.930 . S
C3359 C3352 1.409 . S
C3359 C3358 1.362 . S
H3360 C3366 0.930 . S
H3361 C3369 0.930 . S
H3362 C3370 0.930 . S
H3363 C3371 0.930 . S
H3364 C3374 0.930 . S
H3365 C3375 0.930 . S
C3366 H3360 0.930 . S
C3366 C3367 1.355 . S
C3366 C3368 1.391 1_655 S
C3367 C3366 1.355 . S
C3367 C3369 1.419 . S
C3368 C3366 1.391 1_455 S
C3368 C3373 1.439 . S
C3368 C3375 1.420 . S
C3369 H3361 0.930 . S
C3369 C3367 1.419 . S
C3369 C3370 1.362 1_655 S
C3370 H3362 0.930 . S
C3370 C3369 1.362 1_455 S
C3370 C3373 1.409 . S
C3371 H3363 0.930 . S
C3371 C3372 1.355 . S
C3371 C3373 1.415 . S
C3372 C3371 1.355 . S
C3372 C3374 1.419 . S
C3373 C3368 1.439 . S
C3373 C3370 1.409 . S
C3373 C3371 1.415 . S
C3374 H3364 0.930 . S
C3374 C3372 1.419 . S
C3374 C3375 1.362 . S
C3375 H3365 0.930 . S
C3375 C3368 1.420 . S
C3375 C3374 1.362 . S
H3376 C3382 0.930 . S
H3377 C3385 0.930 . S
H3378 C3386 0.930 . S
H3379 C3387 0.930 . S
H3380 C3390 0.930 . S
H3381 C3391 0.930 . S
C3382 H3376 0.930 . S
C3382 C3383 1.355 . S
C3382 C3384 1.415 . S
C3383 C3382 1.355 . S
C3383 C3385 1.419 . S
C3384 C3382 1.415 . S
C3384 C3389 1.425 . S
C3384 C3391 1.409 1_655 S
C3385 H3377 0.930 . S
C3385 C3383 1.419 . S
C3385 C3386 1.362 . S
C3386 H3378 0.930 . S
C3386 C3385 1.362 . S
C3386 C3389 1.409 . S
C3387 H3379 0.930 . S
C3387 C3388 1.355 . S
C3387 C3389 1.415 1_455 S
C3388 C3387 1.355 . S
C3388 C3390 1.419 . S
C3389 C3384 1.425 . S
C3389 C3386 1.409 . S
C3389 C3387 1.415 1_655 S
C3390 H3380 0.930 . S
C3390 C3388 1.419 . S
C3390 C3391 1.362 . S
C3391 H3381 0.930 . S
C3391 C3384 1.409 1_455 S
C3391 C3390 1.362 . S
H3392 C3398 0.930 . S
H3393 C3401 0.930 . S
H3394 C3402 0.930 . S
H3395 C3403 0.930 . S
H3396 C3406 0.930 . S
H3397 C3407 0.930 . S
C3398 H3392 0.930 . S
C3398 C3399 1.355 . S
C3398 C3400 1.415 . S
C3399 C3398 1.355 . S
C3399 C3401 1.419 . S
C3400 C3398 1.415 . S
C3400 C3405 1.425 . S
C3400 C3407 1.409 . S
C3401 H3393 0.930 . S
C3401 C3399 1.419 . S
C3401 C3402 1.362 . S
C3402 H3394 0.930 . S
C3402 C3401 1.362 . S
C3402 C3405 1.409 . S
C3403 H3395 0.930 . S
C3403 C3404 1.355 . S
C3403 C3405 1.415 . S
C3404 C3403 1.355 . S
C3404 C3406 1.419 . S
C3405 C3400 1.425 . S
C3405 C3402 1.409 . S
C3405 C3403 1.415 . S
C3406 H3396 0.930 . S
C3406 C3404 1.419 . S
C3406 C3407 1.362 . S
C3407 H3397 0.930 . S
C3407 C3400 1.409 . S
C3407 C3406 1.362 . S
H3408 C3414 0.930 . S
H3409 C3417 0.930 . S
H3410 C3418 0.930 . S
H3411 C3419 0.930 . S
H3412 C3422 0.930 . S
H3413 C3423 0.930 . S
C3414 H3408 0.930 . S
C3414 C3415 1.355 . S
C3414 C3416 1.415 . S
C3415 C3414 1.355 . S
C3415 C3417 1.419 . S
C3416 C3414 1.415 . S
C3416 C3421 1.425 . S
C3416 C3423 1.409 . S
C3417 H3409 0.930 . S
C3417 C3415 1.419 . S
C3417 C3418 1.362 . S
C3418 H3410 0.930 . S
C3418 C3417 1.362 . S
C3418 C3421 1.409 . S
C3419 H3411 0.930 . S
C3419 C3420 1.355 . S
C3419 C3421 1.415 . S
C3420 C3419 1.355 . S
C3420 C3422 1.419 . S
C3421 C3416 1.425 . S
C3421 C3418 1.409 . S
C3421 C3419 1.415 . S
C3422 H3412 0.930 . S
C3422 C3420 1.419 . S
C3422 C3423 1.362 . S
C3423 H3413 0.930 . S
C3423 C3416 1.409 . S
C3423 C3422 1.362 . S
H3424 C3430 0.930 . S
H3425 C3433 0.930 . S
H3426 C3434 0.930 . S
H3427 C3435 0.930 . S
H3428 C3438 0.930 . S
H3429 C3439 0.930 . S
C3430 H3424 0.930 . S
C3430 C3431 1.355 . S
C3430 C3432 1.415 . S
C3431 C3430 1.355 . S
C3431 C3433 1.419 . S
C3432 C3430 1.415 . S
C3432 C3437 1.425 . S
C3432 C3439 1.409 . S
C3433 H3425 0.930 . S
C3433 C3431 1.419 . S
C3433 C3434 1.362 . S
C3434 H3426 0.930 . S
C3434 C3433 1.362 . S
C3434 C3437 1.409 . S
C3435 H3427 0.930 . S
C3435 C3436 1.355 . S
C3435 C3437 1.415 1_565 S
C3436 C3435 1.355 . S
C3436 C3438 1.419 . S
C3437 C3432 1.425 . S
C3437 C3434 1.409 . S
C3437 C3435 1.415 1_545 S
C3438 H3428 0.930 . S
C3438 C3436 1.419 . S
C3438 C3439 1.362 1_565 S
C3439 H3429 0.930 . S
C3439 C3432 1.409 . S
C3439 C3438 1.362 1_545 S
H3440 C3446 0.930 . S
H3441 C3449 0.930 . S
H3442 C3450 0.930 . S
H3443 C3451 0.930 . S
H3444 C3454 0.930 . S
H3445 C3455 0.930 . S
C3446 H3440 0.930 . S
C3446 C3447 1.355 . S
C3446 C3448 1.415 . S
C3447 C3446 1.355 . S
C3447 C3449 1.419 . S
C3448 C3446 1.415 . S
C3448 C3453 1.425 . S
C3448 C3455 1.409 . S
C3449 H3441 0.930 . S
C3449 C3447 1.419 . S
C3449 C3450 1.362 . S
C3450 H3442 0.930 . S
C3450 C3449 1.362 . S
C3450 C3453 1.409 . S
C3451 H3443 0.930 . S
C3451 C3452 1.355 . S
C3451 C3453 1.415 . S
C3452 C3451 1.355 . S
C3452 C3454 1.419 . S
C3453 C3448 1.425 . S
C3453 C3450 1.409 . S
C3453 C3451 1.415 . S
C3454 H3444 0.930 . S
C3454 C3452 1.419 . S
C3454 C3455 1.362 . S
C3455 H3445 0.930 . S
C3455 C3448 1.409 . S
C3455 C3454 1.362 . S
H3456 C3462 0.930 1_565 S
H3457 C3465 0.930 . S
H3458 C3466 0.930 . S
H3459 C3467 0.930 . S
H3460 C3470 0.930 . S
H3461 C3471 0.930 . S
C3462 H3456 0.930 1_545 S
C3462 C3463 1.355 . S
C3462 C3464 1.415 1_545 S
C3463 C3462 1.355 . S
C3463 C3465 1.419 . S
C3464 C3462 1.415 1_565 S
C3464 C3469 1.425 . S
C3464 C3471 1.409 . S
C3465 H3457 0.930 . S
C3465 C3463 1.419 . S
C3465 C3466 1.362 . S
C3466 H3458 0.930 . S
C3466 C3465 1.362 . S
C3466 C3469 1.409 1_545 S
C3467 H3459 0.930 . S
C3467 C3468 1.355 . S
C3467 C3469 1.415 . S
C3468 C3467 1.355 . S
C3468 C3470 1.419 . S
C3469 C3464 1.425 . S
C3469 C3466 1.409 1_565 S
C3469 C3467 1.415 . S
C3470 H3460 0.930 . S
C3470 C3468 1.419 . S
C3470 C3471 1.362 . S
C3471 H3461 0.930 . S
C3471 C3464 1.409 . S
C3471 C3470 1.362 . S
H3472 C3478 0.930 . S
H3473 C3481 0.930 . S
H3474 C3482 0.930 . S
H3475 C3483 0.930 . S
H3476 C3486 0.930 . S
H3477 C3487 0.930 . S
C3478 H3472 0.930 . S
C3478 C3479 1.355 1_554 S
C3478 C3480 1.415 . S
C3479 C3478 1.355 1_556 S
C3479 C3481 1.419 . S
C3480 C3478 1.415 . S
C3480 C3485 1.425 . S
C3480 C3487 1.409 . S
C3481 H3473 0.930 . S
C3481 C3479 1.419 . S
C3481 C3482 1.362 . S
C3482 H3474 0.930 . S
C3482 C3481 1.362 . S
C3482 C3485 1.409 1_556 S
C3483 H3475 0.930 . S
C3483 C3484 1.355 . S
C3483 C3485 1.415 . S
C3484 C3483 1.355 . S
C3484 C3486 1.419 . S
C3485 C3480 1.425 . S
C3485 C3482 1.409 1_554 S
C3485 C3483 1.415 . S
C3486 H3476 0.930 . S
C3486 C3484 1.419 . S
C3486 C3487 1.362 . S
C3487 H3477 0.930 . S
C3487 C3480 1.409 . S
C3487 C3486 1.362 . S
H3488 C3494 0.930 . S
H3489 C3497 0.930 . S
H3490 C3498 0.930 . S
H3491 C3499 0.930 . S
H3492 C3502 0.930 . S
H3493 C3503 0.930 . S
C3494 H3488 0.930 . S
C3494 C3495 1.355 1_554 S
C3494 C3496 1.415 . S
C3495 C3494 1.355 1_556 S
C3495 C3497 1.419 . S
C3496 C3494 1.415 . S
C3496 C3501 1.430 . S
C3496 C3503 1.409 . S
C3497 H3489 0.930 . S
C3497 C3495 1.419 . S
C3497 C3498 1.362 . S
C3498 H3490 0.930 . S
C3498 C3497 1.362 . S
C3498 C3501 1.401 1_556 S
C3499 H3491 0.930 . S
C3499 C3500 1.355 . S
C3499 C3501 1.419 . S
C3500 C3499 1.355 . S
C3500 C3502 1.419 . S
C3501 C3496 1.430 . S
C3501 C3498 1.401 1_554 S
C3501 C3499 1.419 . S
C3502 H3492 0.930 . S
C3502 C3500 1.419 . S
C3502 C3503 1.362 . S
C3503 H3493 0.930 . S
C3503 C3496 1.409 . S
C3503 C3502 1.362 . S
H3504 C3510 0.930 . S
H3505 C3513 0.930 . S
H3506 C3514 0.930 . S
H3507 C3515 0.930 . S
H3508 C3518 0.930 . S
H3509 C3519 0.930 . S
C3510 H3504 0.930 . S
C3510 C3511 1.355 . S
C3510 C3512 1.415 . S
C3511 C3510 1.355 . S
C3511 C3513 1.419 . S
C3512 C3510 1.415 . S
C3512 C3517 1.425 . S
C3512 C3519 1.409 . S
C3513 H3505 0.930 . S
C3513 C3511 1.419 . S
C3513 C3514 1.362 . S
C3514 H3506 0.930 . S
C3514 C3513 1.362 . S
C3514 C3517 1.409 . S
C3515 H3507 0.930 . S
C3515 C3516 1.355 . S
C3515 C3517 1.415 . S
C3516 C3515 1.355 . S
C3516 C3518 1.419 . S
C3517 C3512 1.425 . S
C3517 C3514 1.409 . S
C3517 C3515 1.415 . S
C3518 H3508 0.930 . S
C3518 C3516 1.419 . S
C3518 C3519 1.362 . S
C3519 H3509 0.930 . S
C3519 C3512 1.409 . S
C3519 C3518 1.362 . S
H3520 C3526 0.930 . S
H3521 C3529 0.930 . S
H3522 C3530 0.930 . S
H3523 C3531 0.930 . S
H3524 C3534 0.930 . S
H3525 C3535 0.930 . S
C3526 H3520 0.930 . S
C3526 C3527 1.355 . S
C3526 C3528 1.415 . S
C3527 C3526 1.355 . S
C3527 C3529 1.419 . S
C3528 C3526 1.415 . S
C3528 C3533 1.425 . S
C3528 C3535 1.409 . S
C3529 H3521 0.930 . S
C3529 C3527 1.419 . S
C3529 C3530 1.362 . S
C3530 H3522 0.930 . S
C3530 C3529 1.362 . S
C3530 C3533 1.409 . S
C3531 H3523 0.930 . S
C3531 C3532 1.355 . S
C3531 C3533 1.415 . S
C3532 C3531 1.355 . S
C3532 C3534 1.419 . S
C3533 C3528 1.425 . S
C3533 C3530 1.409 . S
C3533 C3531 1.415 . S
C3534 H3524 0.930 . S
C3534 C3532 1.419 . S
C3534 C3535 1.362 . S
C3535 H3525 0.930 . S
C3535 C3528 1.409 . S
C3535 C3534 1.362 . S
H3536 C3542 0.930 . S
H3537 C3545 0.930 . S
H3538 C3546 0.930 . S
H3539 C3547 0.930 . S
H3540 C3550 0.930 . S
H3541 C3551 0.930 . S
C3542 H3536 0.930 . S
C3542 C3543 1.355 . S
C3542 C3544 1.415 . S
C3543 C3542 1.355 . S
C3543 C3545 1.419 . S
C3544 C3542 1.415 . S
C3544 C3549 1.425 . S
C3544 C3551 1.409 . S
C3545 H3537 0.930 . S
C3545 C3543 1.419 . S
C3545 C3546 1.362 . S
C3546 H3538 0.930 . S
C3546 C3545 1.362 . S
C3546 C3549 1.409 . S
C3547 H3539 0.930 . S
C3547 C3548 1.355 . S
C3547 C3549 1.415 . S
C3548 C3547 1.355 . S
C3548 C3550 1.419 . S
C3549 C3544 1.425 . S
C3549 C3546 1.409 . S
C3549 C3547 1.415 . S
C3550 H3540 0.930 . S
C3550 C3548 1.419 . S
C3550 C3551 1.362 . S
C3551 H3541 0.930 . S
C3551 C3544 1.409 . S
C3551 C3550 1.362 . S
C1639 C5 1.303 . S
C1644 C1294 1.285 . S
C1655 C39 1.135 . S
C1660 C1257 1.079 . S
C1671 C77 1.065 . S
C1676 C1600 1.128 . S
C1687 C1189 0.834 . S
C1692 C111 0.863 . S
C1703 C141 1.287 . S
C1708 C1393 1.273 . S
C1719 C1090 1.181 . S
C1724 C179 1.142 . S
C1735 C209 1.062 . S
C1740 C1427 0.982 . S
C1751 C243 1.253 . S
C1756 C1022 1.259 . S
C1767 C1053 1.064 . S
C1772 C277 1.114 . S
C1783 C315 0.845 . S
C1788 C1362 0.946 . S
C1799 C345 1.281 . S
C1804 C1121 1.236 . S
C1815 C1396 1.386 . S
C1820 C379 1.392 . S
C1831 C417 0.938 . S
C1836 C1226 1.000 . S
C1847 C447 1.357 . S
C1852 C1631 1.288 . S
C1863 C1158 1.453 . S
C1868 C481 1.459 . S
C1879 C515 1.247 . S
C1884 C1325 1.183 . S
C1895 C818 1.231 . S
C1900 C383 1.155 . S
C1911 C747 0.844 . S
C1916 C553 0.817 . S
C1927 C587 1.014 . S
C1932 C951 0.994 . S
C1943 C784 1.083 . S
C1948 C621 1.056 . S
C1959 C849 1.351 . S
C1964 C413 1.342 . S
C1975 C311 1.260 . S
C1980 C750 1.265 . S
C1991 C815 0.947 . S
C1996 C655 0.940 . S
C2007 C716 1.123 . S
C2012 C689 1.124 . S
C2023 C611 1.344 . S
C2028 C719 1.391 . S
C2039 C543 1.151 . S
C2044 C753 1.187 . S
C2055 C1498 1.149 . S
C2060 C791 1.078 . S
C2071 C821 1.283 . S
C2076 C475 1.262 . S
C2087 C679 0.981 . S
C2092 C859 1.001 . S
C2103 C893 0.967 . S
C2108 C407 0.957 . S
C2119 C713 0.825 . S
C2124 C927 0.822 . S
C2135 C308 1.338 . S
C2140 C957 1.332 . S
C2151 C339 1.029 . S
C2156 C991 1.035 . S
C2167 C648 1.020 . S
C2172 C1029 1.030 . S
C2183 C1059 1.416 . S
C2188 C376 1.398 . S
C2199 C1097 1.100 . S
C2204 C682 1.238 . S
C2215 C1131 0.882 1_455 S
C2220 C512 0.987 . S
C2231 C1161 1.132 . S
C2236 C1529 1.059 . S
C2247 C1199 1.106 . S
C2252 C444 1.102 . S
C2263 C1229 1.212 . S
C2268 C580 1.202 . S
C2279 C135 1.372 . S
C2284 C1093 1.375 . S
C2295 C33 1.043 . S
C2300 C1267 1.034 . S
C2311 C206 1.239 . S
C2316 C1297 1.239 . S
C2327 C70 1.162 . S
C2332 C1335 1.057 . S
C2343 C1127 1.413 . S
C2348 C104 1.419 . S
C2359 C36 1.363 . S
C2364 C1025 1.360 . S
C2375 C101 0.855 . S
C2380 C1369 0.727 . S
C2391 C1403 1.096 . S
C2396 C2 1.107 . S
C2407 C1192 1.470 . S
C2412 C175 1.477 . S
C2423 C1359 0.930 . S
C2428 C213 0.817 . S
C2439 C247 0.957 . S
C2444 C1124 1.074 . S
C2455 C1291 0.905 . S
C2460 C145 0.897 . S
C2471 C107 1.283 . S
C2476 C1087 1.239 . S
C2487 C9 1.108 . S
C2492 C1566 1.134 . S
C2503 C1019 0.689 . S
C2508 C43 0.780 . S
C2519 C73 1.416 . S
C2524 C1532 1.407 . S
C2535 C685 1.043 . S
C2540 C1563 0.986 . S
C2551 C1437 0.945 . S
C2556 C1056 0.926 . S
C2567 C651 1.338 . S
C2572 C1597 1.302 . S
C2583 C988 1.394 . S
C2588 C1467 1.418 . S
C2599 C1505 1.076 . S
C2604 C1328 1.067 . S
C2615 C549 1.347 . S
C2620 C1155 1.327 . S
C2631 C1260 1.413 . S
C2636 C583 1.448 . S
C2647 C617 1.199 . S
C2652 C1223 1.192 . S
C2663 C852 1.241 . S
C2668 C1471 1.068 . S
C2679 C451 0.948 . S
C2684 C917 0.883 . S
C2695 C485 0.971 . S
C2700 C781 0.977 . S
C2711 C954 1.119 . S
C2716 C519 0.965 . S
C2727 C883 1.295 . S
C2732 C1501 1.333 . S
C2743 C920 1.255 . S
C2748 C1433 1.259 . S
C2759 C349 1.015 . S
C2764 C985 1.031 . S
C2775 C886 1.200 . S
C2780 C281 1.095 . S
C2791 C509 1.315 . S
C2796 C889 1.369 . S
C2807 C645 1.173 . S
C2812 C923 1.200 . S
C2823 C410 1.149 . S
C2828 C961 1.122 . S
C2839 C855 1.279 . S
C2844 C577 1.211 . S
C2855 C373 0.901 . S
C2860 C825 0.809 . S
C2871 C723 0.885 . S
C2876 C1495 1.016 . S
C2887 C305 0.918 . S
C2892 C757 0.951 . S
C2903 C1430 1.304 . S
C2908 C787 1.323 . S
C2919 C1461 1.067 . S
C2924 C1399 1.105 . S
C2935 C1539 1.086 . S
C2940 C342 1.074 . S
C2951 C1464 1.351 . S
C2956 C1365 1.359 . S
C2967 C1573 1.159 . S
C2972 C274 1.198 . S
C2983 C614 1.047 . S
C2988 C1607 0.995 . S
C2999 C441 1.067 . S
C3004 C1263 1.150 . S
C3015 C1301 0.960 . S
C3020 C546 1.030 . S
C3031 C478 1.127 . S
C3036 C1331 1.160 . S
C3047 C1569 1.342 . S
C3052 C169 1.320 . S
C3063 C203 1.059 . S
C3068 C1165 0.907 . S
C3079 C67 1.082 . S
C3084 C1195 1.144 . S
C3095 C1233 0.920 . S
C3100 C240 0.981 . S
C3111 C1603 1.482 . S
C3116 C138 1.486 . S
C3127 C1535 1.277 . S
C3132 C237 1.238 . S
C3143 C1063 0.772 . S
C3148 C271 0.880 . S
C3159 C172 1.241 . S
C3164 C995 1.185 . S
C3175 C258 2.052 . S
C3180 C20 2.027 . S
C3191 C156 2.545 . S
C3196 C54 2.533 . S
C3207 C190 2.125 . S
C3212 C88 2.119 . S
C3223 C224 2.531 . S
C3228 C122 2.531 . S
C3239 C428 2.216 . S
C3244 C292 2.235 . S
C3255 C462 2.424 . S
C3260 C326 2.447 . S
C3271 C496 2.325 . S
C3276 C360 2.328 . S
C3287 C530 2.257 . S
C3292 C394 2.266 . S
C3303 C1448 2.427 . S
C3308 C564 2.430 . S
C3319 C598 2.334 . S
C3324 C666 2.334 . S
C3335 C632 2.314 . S
C3340 C1482 2.328 . S
C3351 C700 2.290 . S
C3356 C1516 2.271 . S
C3367 C734 2.082 . S
C3372 C972 2.079 . S
C3383 C870 2.404 . S
C3388 C768 2.414 . S
C3399 C904 2.075 . S
C3404 C802 2.089 . S
C3415 C938 2.417 . S
C3420 C836 2.409 . S
C3431 C1142 2.310 . S
C3436 C1006 2.316 . S
C3447 C1040 2.412 . S
C3452 C1176 2.411 . S
C3463 C1074 2.442 . S
C3468 C1210 2.434 . S
C3479 C1108 2.286 . S
C3484 C1244 2.324 . S
C3495 C1550 2.434 . S
C3500 C1278 2.467 . S
C3511 C1380 2.412 . S
C3516 C1312 2.388 . S
C3527 C1346 2.272 . S
C3532 C1584 2.239 . S
C3543 C1618 2.377 . S
C3548 C1414 2.362 . S
