# Generated by pormake.
# Topology wjc, (7)-cn, num edge types: 1
# Building blocks:
#     Node 0, Type 0, BuildingBlock: NUHQUE_clean_sbu_2, # of connection points: 7
#     Node 1, Type 0, BuildingBlock: NUHQUE_clean_sbu_2, # of connection points: 7
#     Node 2, Type 0, BuildingBlock: NUHQUE_clean_sbu_2, # of connection points: 7
#     Node 3, Type 0, BuildingBlock: NUHQUE_clean_sbu_2, # of connection points: 7
#     Node 4, Type 0, BuildingBlock: NUHQUE_clean_sbu_2, # of connection points: 7
#     Node 5, Type 0, BuildingBlock: NUHQUE_clean_sbu_2, # of connection points: 7
#     Node 6, Type 0, BuildingBlock: NUHQUE_clean_sbu_2, # of connection points: 7
#     Node 7, Type 0, BuildingBlock: NUHQUE_clean_sbu_2, # of connection points: 7
#     Node 8, Type 0, BuildingBlock: NUHQUE_clean_sbu_2, # of connection points: 7
#     Node 9, Type 0, BuildingBlock: NUHQUE_clean_sbu_2, # of connection points: 7
#     Node 10, Type 0, BuildingBlock: NUHQUE_clean_sbu_2, # of connection points: 7
#     Node 11, Type 0, BuildingBlock: NUHQUE_clean_sbu_2, # of connection points: 7
#     Node 12, Type 0, BuildingBlock: NUHQUE_clean_sbu_2, # of connection points: 7
#     Node 13, Type 0, BuildingBlock: NUHQUE_clean_sbu_2, # of connection points: 7
#     Node 14, Type 0, BuildingBlock: NUHQUE_clean_sbu_2, # of connection points: 7
#     Node 15, Type 0, BuildingBlock: NUHQUE_clean_sbu_2, # of connection points: 7
#     Node 16, Type 0, BuildingBlock: NUHQUE_clean_sbu_2, # of connection points: 7
#     Node 17, Type 0, BuildingBlock: NUHQUE_clean_sbu_2, # of connection points: 7
#     Node 18, Type 0, BuildingBlock: NUHQUE_clean_sbu_2, # of connection points: 7
#     Node 19, Type 0, BuildingBlock: NUHQUE_clean_sbu_2, # of connection points: 7
#     Node 20, Type 0, BuildingBlock: NUHQUE_clean_sbu_2, # of connection points: 7
#     Node 21, Type 0, BuildingBlock: NUHQUE_clean_sbu_2, # of connection points: 7
#     Node 22, Type 0, BuildingBlock: NUHQUE_clean_sbu_2, # of connection points: 7
#     Node 23, Type 0, BuildingBlock: NUHQUE_clean_sbu_2, # of connection points: 7
#     Edge 24, Type (0, 0), BuildingBlock: AJUNOK_clean_linker_0, # of connection points: 2
#     Edge 25, Type (0, 0), BuildingBlock: AJUNOK_clean_linker_0, # of connection points: 2
#     Edge 26, Type (0, 0), BuildingBlock: AJUNOK_clean_linker_0, # of connection points: 2
#     Edge 27, Type (0, 0), BuildingBlock: AJUNOK_clean_linker_0, # of connection points: 2
#     Edge 28, Type (0, 0), BuildingBlock: AJUNOK_clean_linker_0, # of connection points: 2
#     Edge 29, Type (0, 0), BuildingBlock: AJUNOK_clean_linker_0, # of connection points: 2
#     Edge 30, Type (0, 0), BuildingBlock: AJUNOK_clean_linker_0, # of connection points: 2
#     Edge 31, Type (0, 0), BuildingBlock: AJUNOK_clean_linker_0, # of connection points: 2
#     Edge 32, Type (0, 0), BuildingBlock: AJUNOK_clean_linker_0, # of connection points: 2
#     Edge 33, Type (0, 0), BuildingBlock: AJUNOK_clean_linker_0, # of connection points: 2
#     Edge 34, Type (0, 0), BuildingBlock: AJUNOK_clean_linker_0, # of connection points: 2
#     Edge 35, Type (0, 0), BuildingBlock: AJUNOK_clean_linker_0, # of connection points: 2
#     Edge 36, Type (0, 0), BuildingBlock: AJUNOK_clean_linker_0, # of connection points: 2
#     Edge 37, Type (0, 0), BuildingBlock: AJUNOK_clean_linker_0, # of connection points: 2
#     Edge 38, Type (0, 0), BuildingBlock: AJUNOK_clean_linker_0, # of connection points: 2
#     Edge 39, Type (0, 0), BuildingBlock: AJUNOK_clean_linker_0, # of connection points: 2
#     Edge 40, Type (0, 0), BuildingBlock: AJUNOK_clean_linker_0, # of connection points: 2
#     Edge 41, Type (0, 0), BuildingBlock: AJUNOK_clean_linker_0, # of connection points: 2
#     Edge 42, Type (0, 0), BuildingBlock: AJUNOK_clean_linker_0, # of connection points: 2
#     Edge 43, Type (0, 0), BuildingBlock: AJUNOK_clean_linker_0, # of connection points: 2
#     Edge 44, Type (0, 0), BuildingBlock: AJUNOK_clean_linker_0, # of connection points: 2
#     Edge 45, Type (0, 0), BuildingBlock: AJUNOK_clean_linker_0, # of connection points: 2
#     Edge 46, Type (0, 0), BuildingBlock: AJUNOK_clean_linker_0, # of connection points: 2
#     Edge 47, Type (0, 0), BuildingBlock: AJUNOK_clean_linker_0, # of connection points: 2
#     Edge 48, Type (0, 0), BuildingBlock: AJUNOK_clean_linker_0, # of connection points: 2
#     Edge 49, Type (0, 0), BuildingBlock: AJUNOK_clean_linker_0, # of connection points: 2
#     Edge 50, Type (0, 0), BuildingBlock: AJUNOK_clean_linker_0, # of connection points: 2
#     Edge 51, Type (0, 0), BuildingBlock: AJUNOK_clean_linker_0, # of connection points: 2
#     Edge 52, Type (0, 0), BuildingBlock: AJUNOK_clean_linker_0, # of connection points: 2
#     Edge 53, Type (0, 0), BuildingBlock: AJUNOK_clean_linker_0, # of connection points: 2
#     Edge 54, Type (0, 0), BuildingBlock: AJUNOK_clean_linker_0, # of connection points: 2
#     Edge 55, Type (0, 0), BuildingBlock: AJUNOK_clean_linker_0, # of connection points: 2
#     Edge 56, Type (0, 0), BuildingBlock: AJUNOK_clean_linker_0, # of connection points: 2
#     Edge 57, Type (0, 0), BuildingBlock: AJUNOK_clean_linker_0, # of connection points: 2
#     Edge 58, Type (0, 0), BuildingBlock: AJUNOK_clean_linker_0, # of connection points: 2
#     Edge 59, Type (0, 0), BuildingBlock: AJUNOK_clean_linker_0, # of connection points: 2
#     Edge 60, Type (0, 0), BuildingBlock: AJUNOK_clean_linker_0, # of connection points: 2
#     Edge 61, Type (0, 0), BuildingBlock: AJUNOK_clean_linker_0, # of connection points: 2
#     Edge 62, Type (0, 0), BuildingBlock: AJUNOK_clean_linker_0, # of connection points: 2
#     Edge 63, Type (0, 0), BuildingBlock: AJUNOK_clean_linker_0, # of connection points: 2
#     Edge 64, Type (0, 0), BuildingBlock: AJUNOK_clean_linker_0, # of connection points: 2
#     Edge 65, Type (0, 0), BuildingBlock: AJUNOK_clean_linker_0, # of connection points: 2
#     Edge 66, Type (0, 0), BuildingBlock: AJUNOK_clean_linker_0, # of connection points: 2
#     Edge 67, Type (0, 0), BuildingBlock: AJUNOK_clean_linker_0, # of connection points: 2
#     Edge 68, Type (0, 0), BuildingBlock: AJUNOK_clean_linker_0, # of connection points: 2
#     Edge 69, Type (0, 0), BuildingBlock: AJUNOK_clean_linker_0, # of connection points: 2
#     Edge 70, Type (0, 0), BuildingBlock: AJUNOK_clean_linker_0, # of connection points: 2
#     Edge 71, Type (0, 0), BuildingBlock: AJUNOK_clean_linker_0, # of connection points: 2
#     Edge 72, Type (0, 0), BuildingBlock: AJUNOK_clean_linker_0, # of connection points: 2
#     Edge 73, Type (0, 0), BuildingBlock: AJUNOK_clean_linker_0, # of connection points: 2
#     Edge 74, Type (0, 0), BuildingBlock: AJUNOK_clean_linker_0, # of connection points: 2
#     Edge 75, Type (0, 0), BuildingBlock: AJUNOK_clean_linker_0, # of connection points: 2
#     Edge 76, Type (0, 0), BuildingBlock: AJUNOK_clean_linker_0, # of connection points: 2
#     Edge 77, Type (0, 0), BuildingBlock: AJUNOK_clean_linker_0, # of connection points: 2
#     Edge 78, Type (0, 0), BuildingBlock: AJUNOK_clean_linker_0, # of connection points: 2
#     Edge 79, Type (0, 0), BuildingBlock: AJUNOK_clean_linker_0, # of connection points: 2
#     Edge 80, Type (0, 0), BuildingBlock: AJUNOK_clean_linker_0, # of connection points: 2
#     Edge 81, Type (0, 0), BuildingBlock: AJUNOK_clean_linker_0, # of connection points: 2
#     Edge 82, Type (0, 0), BuildingBlock: AJUNOK_clean_linker_0, # of connection points: 2
#     Edge 83, Type (0, 0), BuildingBlock: AJUNOK_clean_linker_0, # of connection points: 2
#     Edge 84, Type (0, 0), BuildingBlock: AJUNOK_clean_linker_0, # of connection points: 2
#     Edge 85, Type (0, 0), BuildingBlock: AJUNOK_clean_linker_0, # of connection points: 2
#     Edge 86, Type (0, 0), BuildingBlock: AJUNOK_clean_linker_0, # of connection points: 2
#     Edge 87, Type (0, 0), BuildingBlock: AJUNOK_clean_linker_0, # of connection points: 2
#     Edge 88, Type (0, 0), BuildingBlock: AJUNOK_clean_linker_0, # of connection points: 2
#     Edge 89, Type (0, 0), BuildingBlock: AJUNOK_clean_linker_0, # of connection points: 2
#     Edge 90, Type (0, 0), BuildingBlock: AJUNOK_clean_linker_0, # of connection points: 2
#     Edge 91, Type (0, 0), BuildingBlock: AJUNOK_clean_linker_0, # of connection points: 2
#     Edge 92, Type (0, 0), BuildingBlock: AJUNOK_clean_linker_0, # of connection points: 2
#     Edge 93, Type (0, 0), BuildingBlock: AJUNOK_clean_linker_0, # of connection points: 2
#     Edge 94, Type (0, 0), BuildingBlock: AJUNOK_clean_linker_0, # of connection points: 2
#     Edge 95, Type (0, 0), BuildingBlock: AJUNOK_clean_linker_0, # of connection points: 2
#     Edge 96, Type (0, 0), BuildingBlock: AJUNOK_clean_linker_0, # of connection points: 2
#     Edge 97, Type (0, 0), BuildingBlock: AJUNOK_clean_linker_0, # of connection points: 2
#     Edge 98, Type (0, 0), BuildingBlock: AJUNOK_clean_linker_0, # of connection points: 2
#     Edge 99, Type (0, 0), BuildingBlock: AJUNOK_clean_linker_0, # of connection points: 2
#     Edge 100, Type (0, 0), BuildingBlock: AJUNOK_clean_linker_0, # of connection points: 2
#     Edge 101, Type (0, 0), BuildingBlock: AJUNOK_clean_linker_0, # of connection points: 2
#     Edge 102, Type (0, 0), BuildingBlock: AJUNOK_clean_linker_0, # of connection points: 2
#     Edge 103, Type (0, 0), BuildingBlock: AJUNOK_clean_linker_0, # of connection points: 2
#     Edge 104, Type (0, 0), BuildingBlock: AJUNOK_clean_linker_0, # of connection points: 2
#     Edge 105, Type (0, 0), BuildingBlock: AJUNOK_clean_linker_0, # of connection points: 2
#     Edge 106, Type (0, 0), BuildingBlock: AJUNOK_clean_linker_0, # of connection points: 2
#     Edge 107, Type (0, 0), BuildingBlock: AJUNOK_clean_linker_0, # of connection points: 2
# Relax obj value: 0.266
# Max RMSD: 0.227
# Mean RMSD: 0.227
data_MOF--net-wjc--node1-NUHQUE_clean_sbu_2--edge1-AJUNOK_clean_linker_0
_symmetry_space_group_name_H-M    P1
_symmetry_Int_Tables_number       1
_symmetry_cell_setting            triclinic
loop_
_symmetry_equiv_pos_as_xyz
'x, y, z'
_cell_length_a     40.659516
_cell_length_b     40.632198
_cell_length_c     40.842349
_cell_angle_alpha  90.085767
_cell_angle_beta   89.961077
_cell_angle_gamma 119.90326
loop_
_atom_site_label
_atom_site_type_symbol
_atom_site_fract_x
_atom_site_fract_y
_atom_site_fract_z
_atom_type_partial_charge
O0 O 0.48061 0.25606 0.09614 0.0
Tb1 Tb 0.42363 0.21062 0.10652 0.0
Eu2 Eu 0.39409 0.11101 0.10991 0.0
C3 C 0.50274 0.27715 0.12004 0.0
O4 O 0.49216 0.26632 0.15037 0.0
C5 C 0.40404 0.16384 0.17054 0.0
O6 O 0.36386 0.04809 0.11914 0.0
C7 C 0.46475 0.13207 0.09796 0.0
C8 C 0.32915 0.02572 0.10844 0.0
O9 O 0.31053 0.04085 0.09481 0.0
C10 C 0.38375 0.15299 0.05011 0.0
C11 C 0.49499 0.12513 0.11033 0.0
C12 C 0.53093 0.15641 0.11729 0.0
C13 C 0.56064 0.1508 0.12772 0.0
C14 C 0.55433 0.11379 0.13105 0.0
C15 C 0.51933 0.08227 0.12298 0.0
C16 C 0.48933 0.08801 0.11329 0.0
O17 O 0.43146 0.19108 0.15357 0.0
O18 O 0.38257 0.1296 0.15845 0.0
O19 O 0.41955 0.26194 0.10965 0.0
O20 O 0.36872 0.20876 0.11136 0.0
C21 C 0.38293 0.24554 0.11208 0.0
O22 O 0.36494 0.12348 0.06921 0.0
O23 O 0.41566 0.1825 0.05976 0.0
O24 O 0.45449 0.15149 0.11688 0.0
O25 O 0.43607 0.10387 0.08279 0.0
H26 H 0.53593 0.18504 0.11413 0.0
H27 H 0.57743 0.10955 0.13891 0.0
H28 H 0.4621 0.06369 0.10712 0.0
O29 O 0.24193 0.49421 0.12171 0.0
Tb30 Tb 0.22537 0.43482 0.12624 0.0
Eu31 Eu 0.2834 0.3953 0.1332 0.0
C32 C 0.24191 0.5137 0.14741 0.0
O33 O 0.23907 0.49906 0.17663 0.0
C34 C 0.23423 0.39906 0.18801 0.0
O35 O 0.31478 0.3627 0.12885 0.0
C36 C 0.33349 0.46667 0.14151 0.0
C37 C 0.29752 0.32545 0.12668 0.0
O38 O 0.26027 0.30597 0.12752 0.0
C39 C 0.24927 0.40276 0.06502 0.0
C40 C 0.37152 0.49539 0.12985 0.0
C41 C 0.38049 0.53354 0.12753 0.0
C42 C 0.41706 0.56169 0.11818 0.0
C43 C 0.44477 0.55168 0.11172 0.0
C44 C 0.43649 0.51399 0.11432 0.0
C45 C 0.3996 0.48567 0.12287 0.0
O46 O 0.24638 0.4324 0.17454 0.0
O47 O 0.2383 0.37325 0.17217 0.0
O48 O 0.17172 0.4346 0.12859 0.0
O49 O 0.17023 0.3818 0.12546 0.0
C50 C 0.14956 0.39809 0.12733 0.0
O51 O 0.25842 0.38131 0.08253 0.0
O52 O 0.24548 0.43049 0.07786 0.0
O53 O 0.3316 0.43921 0.1598 0.0
O54 O 0.3054 0.45498 0.12057 0.0
H55 H 0.35924 0.54136 0.13328 0.0
H56 H 0.47334 0.5736 0.10539 0.0
H57 H 0.39323 0.4565 0.12525 0.0
O58 O 0.73398 0.21827 0.15184 0.0
Tb59 Tb 0.7813 0.20997 0.14015 0.0
Eu60 Eu 0.90112 0.30799 0.13362 0.0
C61 C 0.72095 0.23286 0.13021 0.0
O62 O 0.74035 0.24725 0.10317 0.0
C63 C 0.85314 0.25479 0.18415 0.0
O64 O 0.96497 0.33848 0.12937 0.0
C65 C 0.87465 0.35454 0.12979 0.0
C66 C 0.98392 0.32013 0.13183 0.0
O67 O 0.96492 0.28319 0.13622 0.0
C68 C 0.8389 0.25093 0.08217 0.0
C69 C 0.88763 0.39524 0.13327 0.0
C70 C 0.86084 0.40748 0.13551 0.0
C71 C 0.87288 0.44621 0.13963 0.0
C72 C 0.91184 0.47252 0.14075 0.0
C73 C 0.93876 0.46073 0.13806 0.0
C74 C 0.92653 0.42193 0.13464 0.0
O75 O 0.83507 0.25341 0.15744 0.0
O76 O 0.8891 0.28004 0.18338 0.0
O77 O 0.77588 0.16181 0.16859 0.0
O78 O 0.75847 0.15368 0.11867 0.0
C79 C 0.76081 0.13693 0.14502 0.0
O80 O 0.86658 0.2551 0.10194 0.0
O81 O 0.80285 0.23219 0.0916 0.0
O82 O 0.87428 0.33691 0.15678 0.0
O83 O 0.88753 0.34444 0.10439 0.0
H84 H 0.83079 0.38697 0.13412 0.0
H85 H 0.92131 0.50255 0.14307 0.0
H86 H 0.94717 0.41256 0.1324 0.0
O87 O 0.51676 0.74151 0.14282 0.0
Tb88 Tb 0.57498 0.7882 0.14289 0.0
Eu89 Eu 0.61826 0.88746 0.15074 0.0
C90 C 0.5012 0.72385 0.11524 0.0
O91 O 0.51906 0.739 0.08771 0.0
C92 C 0.60929 0.83226 0.20563 0.0
O93 O 0.65836 0.94977 0.14214 0.0
C94 C 0.54982 0.87605 0.15812 0.0
C95 C 0.67845 0.9733 0.16571 0.0
O96 O 0.67587 0.95997 0.19547 0.0
C97 C 0.6052 0.84404 0.08309 0.0
C98 C 0.52214 0.88533 0.14335 0.0
C99 C 0.48641 0.85546 0.13365 0.0
C100 C 0.45879 0.86316 0.12126 0.0
C101 C 0.4667 0.90078 0.11899 0.0
C102 C 0.50171 0.9309 0.12912 0.0
C103 C 0.52965 0.92314 0.14096 0.0
O104 O 0.57652 0.8116 0.19101 0.0
O105 O 0.63617 0.86249 0.19114 0.0
O106 O 0.63033 0.79037 0.14186 0.0
O107 O 0.57966 0.73712 0.14114 0.0
C108 C 0.61638 0.75365 0.14091 0.0
O109 O 0.62991 0.87289 0.1007 0.0
O110 O 0.57587 0.81433 0.09625 0.0
O111 O 0.57969 0.90356 0.17283 0.0
O112 O 0.55739 0.85274 0.14175 0.0
H113 H 0.47988 0.82624 0.13613 0.0
H114 H 0.44501 0.90659 0.10995 0.0
H115 H 0.55663 0.9464 0.14917 0.0
O116 O 0.80309 0.56038 0.1414 0.0
Tb117 Tb 0.81838 0.61668 0.12362 0.0
Eu118 Eu 0.71691 0.60388 0.12949 0.0
C119 C 0.80098 0.5348 0.12036 0.0
O120 O 0.80078 0.5416 0.08897 0.0
C121 C 0.78416 0.63407 0.18205 0.0
O122 O 0.68604 0.63725 0.12908 0.0
C123 C 0.66627 0.53223 0.12553 0.0
C124 C 0.70272 0.67385 0.1355 0.0
O125 O 0.73936 0.6925 0.14141 0.0
C126 C 0.76527 0.61163 0.06474 0.0
C127 C 0.62916 0.50451 0.11164 0.0
C128 C 0.62039 0.4666 0.1087 0.0
C129 C 0.58306 0.43794 0.10237 0.0
C130 C 0.55451 0.44743 0.09865 0.0
C131 C 0.56264 0.4852 0.10126 0.0
C132 C 0.60039 0.5138 0.10728 0.0
O133 O 0.80606 0.65048 0.15686 0.0
O134 O 0.74774 0.61199 0.17722 0.0
O135 O 0.87365 0.62544 0.13846 0.0
O136 O 0.87102 0.65744 0.09861 0.0
C137 C 0.8936 0.65114 0.11688 0.0
O138 O 0.74985 0.62795 0.08209 0.0
O139 O 0.7869 0.59945 0.07784 0.0
O140 O 0.66575 0.55554 0.14746 0.0
O141 O 0.69614 0.54808 0.10631 0.0
H142 H 0.64215 0.45911 0.11317 0.0
H143 H 0.52533 0.42479 0.09624 0.0
H144 H 0.60702 0.54298 0.11035 0.0
O145 O 0.27959 0.77686 0.12117 0.0
Tb146 Tb 0.23204 0.78665 0.1171 0.0
Eu147 Eu 0.13908 0.73708 0.13291 0.0
C148 C 0.30025 0.77985 0.0954 0.0
O149 O 0.28819 0.78312 0.06639 0.0
C150 C 0.19753 0.78894 0.18208 0.0
O151 O 0.07551 0.712 0.13266 0.0
C152 C 0.15542 0.68502 0.14945 0.0
C153 C 0.05875 0.72543 0.11371 0.0
O154 O 0.07971 0.75489 0.09506 0.0
C155 C 0.17241 0.75029 0.06066 0.0
C156 C 0.1451 0.64532 0.14316 0.0
C157 C 0.17387 0.63573 0.14182 0.0
C158 C 0.16453 0.59777 0.13772 0.0
C159 C 0.12636 0.56939 0.13547 0.0
C160 C 0.0974 0.57842 0.13769 0.0
C161 C 0.10691 0.61656 0.14083 0.0
O162 O 0.21519 0.77327 0.16774 0.0
O163 O 0.16739 0.7861 0.16775 0.0
O164 O 0.28004 0.84319 0.10889 0.0
O165 O 0.22523 0.83693 0.11379 0.0
C166 C 0.26119 0.86121 0.10967 0.0
O167 O 0.14624 0.751 0.0791 0.0
O168 O 0.20418 0.75465 0.07316 0.0
O169 O 0.13027 0.69073 0.16476 0.0
O170 O 0.17327 0.7097 0.12609 0.0
H171 H 0.20336 0.65764 0.1443 0.0
H172 H 0.11915 0.53998 0.13272 0.0
H173 H 0.08454 0.62364 0.14261 0.0
O174 O 0.75435 0.51469 0.37075 0.0
Tb175 Tb 0.79947 0.57361 0.36963 0.0
Eu176 Eu 0.89585 0.61513 0.35859 0.0
C177 C 0.73458 0.49774 0.34435 0.0
O178 O 0.74642 0.51478 0.31597 0.0
C179 C 0.8408 0.61419 0.30697 0.0
O180 O 0.95979 0.6494 0.36301 0.0
C181 C 0.87594 0.54547 0.34298 0.0
C182 C 0.97829 0.68652 0.36707 0.0
O183 O 0.959 0.70453 0.3682 0.0
C184 C 0.85684 0.59731 0.42901 0.0
C185 C 0.8834 0.51433 0.35067 0.0
C186 C 0.85275 0.47696 0.35258 0.0
C187 C 0.85934 0.44666 0.35804 0.0
C188 C 0.89659 0.45366 0.36103 0.0
C189 C 0.92744 0.49053 0.35819 0.0
C190 C 0.9207 0.52096 0.35366 0.0
O191 O 0.82002 0.5802 0.31963 0.0
O192 O 0.87198 0.63893 0.32201 0.0
O193 O 0.80075 0.62789 0.37738 0.0
O194 O 0.74789 0.57711 0.3723 0.0
C195 C 0.764 0.61351 0.37668 0.0
O196 O 0.88526 0.62314 0.41157 0.0
O197 O 0.82554 0.57054 0.41527 0.0
O198 O 0.90305 0.57538 0.32812 0.0
O199 O 0.85804 0.55406 0.36512 0.0
H200 H 0.82395 0.47139 0.34936 0.0
H201 H 0.90159 0.42996 0.36395 0.0
H202 H 0.94451 0.54962 0.35184 0.0
O203 O 0.22637 0.74291 0.38176 0.0
Tb204 Tb 0.21864 0.7922 0.38182 0.0
Eu205 Eu 0.27743 0.89057 0.37095 0.0
C206 C 0.2209 0.72349 0.3545 0.0
O207 O 0.21507 0.73707 0.32733 0.0
C208 C 0.23256 0.8343 0.31742 0.0
O209 O 0.29964 0.95388 0.37257 0.0
C210 C 0.33228 0.87627 0.36034 0.0
C211 C 0.32834 0.97608 0.39164 0.0
O212 O 0.34354 0.96063 0.41 0.0
C213 C 0.24962 0.85047 0.44089 0.0
C214 C 0.3714 0.88542 0.36831 0.0
C215 C 0.38023 0.85601 0.36779 0.0
C216 C 0.41804 0.86447 0.37042 0.0
C217 C 0.44688 0.9022 0.37392 0.0
C218 C 0.43882 0.93191 0.37511 0.0
C219 C 0.40076 0.92329 0.37256 0.0
O220 O 0.24308 0.81358 0.33407 0.0
O221 O 0.23354 0.86374 0.33148 0.0
O222 O 0.16829 0.79912 0.37823 0.0
O223 O 0.16101 0.74408 0.38419 0.0
C224 C 0.14334 0.76305 0.38066 0.0
O225 O 0.255 0.87937 0.42251 0.0
O226 O 0.24442 0.81819 0.42847 0.0
O227 O 0.32818 0.90203 0.34436 0.0
O228 O 0.30526 0.85739 0.38181 0.0
H229 H 0.35798 0.82685 0.36412 0.0
H230 H 0.47609 0.90842 0.37508 0.0
H231 H 0.39403 0.94592 0.37324 0.0
O232 O 0.5027 0.22623 0.36739 0.0
Tb233 Tb 0.44487 0.21502 0.37033 0.0
Eu234 Eu 0.4084 0.27317 0.3492 0.0
C235 C 0.52265 0.23166 0.3942 0.0
O236 O 0.50867 0.23502 0.42219 0.0
C237 C 0.40989 0.21314 0.3031 0.0
O238 O 0.36745 0.29496 0.34293 0.0
C239 C 0.47708 0.32654 0.33528 0.0
C240 C 0.33618 0.28154 0.36037 0.0
O241 O 0.32892 0.25536 0.3825 0.0
C242 C 0.4244 0.25992 0.42193 0.0
C243 C 0.5067 0.36462 0.3465 0.0
C244 C 0.54481 0.37328 0.34748 0.0
C245 C 0.57367 0.41 0.35588 0.0
C246 C 0.56435 0.43807 0.36313 0.0
C247 C 0.52676 0.43027 0.36171 0.0
C248 C 0.4979 0.39333 0.35364 0.0
O249 O 0.44175 0.22156 0.31795 0.0
O250 O 0.38654 0.22322 0.31557 0.0
O251 O 0.43879 0.16193 0.38883 0.0
O252 O 0.38937 0.16264 0.37333 0.0
C253 C 0.40235 0.14131 0.38477 0.0
O254 O 0.399 0.26125 0.40302 0.0
O255 O 0.45057 0.25314 0.4102 0.0
O256 O 0.44645 0.32403 0.32208 0.0
O257 O 0.46988 0.2974 0.35393 0.0
H258 H 0.5521 0.3518 0.34105 0.0
H259 H 0.58691 0.46685 0.36796 0.0
H260 H 0.46879 0.38728 0.35222 0.0
O261 O 0.27155 0.46327 0.34534 0.0
Tb262 Tb 0.22406 0.40727 0.35491 0.0
Eu263 Eu 0.10931 0.39234 0.36096 0.0
C264 C 0.286 0.48878 0.36877 0.0
O265 O 0.26792 0.48175 0.39681 0.0
C266 C 0.15382 0.38435 0.30881 0.0
O267 O 0.0454 0.3629 0.36291 0.0
C268 C 0.13816 0.4651 0.37001 0.0
C269 C 0.02415 0.32567 0.36304 0.0
O270 O 0.04073 0.305 0.36189 0.0
C271 C 0.16744 0.39051 0.41431 0.0
C272 C 0.12811 0.49501 0.36584 0.0
C273 C 0.1571 0.53328 0.36439 0.0
C274 C 0.14788 0.56205 0.3607 0.0
C275 C 0.10985 0.55253 0.35841 0.0
C276 C 0.08072 0.51462 0.35958 0.0
C277 C 0.08991 0.4858 0.36353 0.0
O278 O 0.16983 0.39408 0.33739 0.0
O279 O 0.11927 0.37833 0.30925 0.0
O280 O 0.24134 0.37088 0.37954 0.0
O281 O 0.23716 0.3689 0.32744 0.0
C282 C 0.24606 0.35579 0.35309 0.0
O283 O 0.13765 0.36912 0.39537 0.0
O284 O 0.20265 0.40987 0.40294 0.0
O285 O 0.14325 0.45049 0.34313 0.0
O286 O 0.11945 0.43954 0.39262 0.0
H287 H 0.18659 0.54062 0.36616 0.0
H288 H 0.10291 0.57498 0.35604 0.0
H289 H 0.06749 0.45636 0.36454 0.0
O290 O 0.77218 0.26438 0.37242 0.0
Tb291 Tb 0.78312 0.21759 0.36726 0.0
Eu292 Eu 0.73411 0.12188 0.35748 0.0
C293 C 0.77501 0.28564 0.34718 0.0
O294 O 0.7773 0.2739 0.31773 0.0
C295 C 0.77684 0.17873 0.30291 0.0
O296 O 0.7153 0.0594 0.35414 0.0
C297 C 0.6756 0.13082 0.34867 0.0
C298 C 0.72295 0.0414 0.37696 0.0
O299 O 0.74421 0.0606 0.40193 0.0
C300 C 0.75613 0.16138 0.42736 0.0
C301 C 0.63958 0.12421 0.36349 0.0
C302 C 0.63559 0.15579 0.37139 0.0
C303 C 0.60088 0.15061 0.38287 0.0
C304 C 0.5698 0.11393 0.38587 0.0
C305 C 0.57284 0.0823 0.37721 0.0
C306 C 0.60796 0.08734 0.3666 0.0
O307 O 0.7628 0.19733 0.31819 0.0
O308 O 0.77742 0.15046 0.31774 0.0
O309 O 0.83538 0.21393 0.36909 0.0
O310 O 0.83925 0.26789 0.36705 0.0
C311 C 0.8587 0.25052 0.36813 0.0
O312 O 0.75412 0.13323 0.40979 0.0
O313 O 0.75723 0.19129 0.41372 0.0
O314 O 0.67743 0.10134 0.33785 0.0
O315 O 0.7072 0.15659 0.36238 0.0
H316 H 0.65911 0.18435 0.36782 0.0
H317 H 0.54256 0.11006 0.39364 0.0
H318 H 0.61004 0.06274 0.35948 0.0
O319 O 0.52968 0.79706 0.35643 0.0
Tb320 Tb 0.58467 0.8039 0.36897 0.0
Eu321 Eu 0.61257 0.71162 0.3773 0.0
C322 C 0.50387 0.78888 0.37924 0.0
O323 O 0.51022 0.78027 0.40866 0.0
C324 C 0.61583 0.7621 0.32569 0.0
O325 O 0.64603 0.68113 0.37951 0.0
C326 C 0.54089 0.66237 0.38353 0.0
C327 C 0.68329 0.69865 0.38061 0.0
O328 O 0.7025 0.73595 0.38089 0.0
C329 C 0.60403 0.76738 0.42893 0.0
C330 C 0.51327 0.62212 0.37788 0.0
C331 C 0.47491 0.61154 0.3746 0.0
C332 C 0.44768 0.57364 0.36864 0.0
C333 C 0.45886 0.54626 0.36623 0.0
C334 C 0.49696 0.55614 0.36984 0.0
C335 C 0.52436 0.5944 0.37557 0.0
O336 O 0.59925 0.76324 0.35252 0.0
O337 O 0.62757 0.73765 0.32676 0.0
O338 O 0.62789 0.85575 0.34485 0.0
O339 O 0.61831 0.85627 0.39615 0.0
C340 C 0.63796 0.87665 0.37132 0.0
O341 O 0.62876 0.76239 0.41135 0.0
O342 O 0.5806 0.77783 0.4162 0.0
O343 O 0.55522 0.68345 0.35735 0.0
O344 O 0.56583 0.67029 0.407 0.0
H345 H 0.46626 0.63277 0.37652 0.0
H346 H 0.43747 0.51676 0.36242 0.0
H347 H 0.55403 0.6026 0.37792 0.0
O348 O 0.51775 0.73815 0.88773 0.0
Tb349 Tb 0.57518 0.78492 0.88191 0.0
Eu350 Eu 0.60844 0.88821 0.87735 0.0
C351 C 0.4967 0.72048 0.86214 0.0
O352 O 0.50835 0.73567 0.83306 0.0
C353 C 0.60746 0.83532 0.8231 0.0
O354 O 0.63761 0.95219 0.87944 0.0
C355 C 0.53522 0.85899 0.87223 0.0
C356 C 0.67431 0.97277 0.88501 0.0
O357 O 0.69388 0.95537 0.88936 0.0
C358 C 0.60572 0.84158 0.94137 0.0
C359 C 0.50521 0.86912 0.87397 0.0
C360 C 0.46719 0.83986 0.87499 0.0
C361 C 0.43794 0.84854 0.87416 0.0
C362 C 0.44664 0.88643 0.87269 0.0
C363 C 0.4844 0.91609 0.87263 0.0
C364 C 0.51379 0.90724 0.87294 0.0
O365 O 0.57501 0.8131 0.83745 0.0
O366 O 0.63114 0.86793 0.8367 0.0
O367 O 0.58145 0.73545 0.87284 0.0
O368 O 0.63079 0.78778 0.88366 0.0
C369 C 0.61793 0.75201 0.87677 0.0
O370 O 0.62752 0.87136 0.9231 0.0
O371 O 0.57759 0.80999 0.92925 0.0
O372 O 0.5587 0.87301 0.84743 0.0
O373 O 0.55211 0.85936 0.89969 0.0
H374 H 0.46037 0.81044 0.8758 0.0
H375 H 0.4237 0.89272 0.87132 0.0
H376 H 0.54316 0.92981 0.8723 0.0
O377 O 0.77357 0.51323 0.8569 0.0
Tb378 Tb 0.78407 0.57085 0.86215 0.0
Eu379 Eu 0.72389 0.60789 0.85288 0.0
C380 C 0.77581 0.49468 0.88236 0.0
O381 O 0.77893 0.50942 0.91161 0.0
C382 C 0.77327 0.60308 0.79818 0.0
O383 O 0.69268 0.64089 0.85633 0.0
C384 C 0.67232 0.5374 0.84239 0.0
C385 C 0.70814 0.67645 0.86606 0.0
O386 O 0.74438 0.69508 0.87358 0.0
C387 C 0.75218 0.59583 0.92248 0.0
C388 C 0.63355 0.50817 0.85222 0.0
C389 C 0.62509 0.4702 0.85481 0.0
C390 C 0.5878 0.44113 0.86103 0.0
C391 C 0.55895 0.45023 0.86445 0.0
C392 C 0.56668 0.48774 0.86171 0.0
C393 C 0.60419 0.51687 0.85607 0.0
O394 O 0.76357 0.57089 0.813 0.0
O395 O 0.76885 0.62909 0.81344 0.0
O396 O 0.83667 0.62639 0.85882 0.0
O397 O 0.84006 0.57717 0.86943 0.0
C398 C 0.85982 0.61353 0.86465 0.0
O399 O 0.74651 0.61963 0.90469 0.0
O400 O 0.75727 0.56919 0.90894 0.0
O401 O 0.67549 0.56607 0.82513 0.0
O402 O 0.69975 0.54735 0.86379 0.0
H403 H 0.64733 0.46318 0.85133 0.0
H404 H 0.52993 0.42773 0.86832 0.0
H405 H 0.61016 0.54587 0.85339 0.0
O406 O 0.25639 0.76303 0.8542 0.0
Tb407 Tb 0.20931 0.77395 0.85501 0.0
Eu408 Eu 0.11009 0.71447 0.85297 0.0
C409 C 0.27688 0.76973 0.88091 0.0
O410 O 0.265 0.7779 0.90798 0.0
C411 C 0.15946 0.76363 0.79695 0.0
O412 O 0.04657 0.68445 0.8612 0.0
C413 C 0.12886 0.66336 0.83917 0.0
C414 C 0.02548 0.69976 0.85421 0.0
O415 O 0.04195 0.73455 0.84268 0.0
C416 C 0.15794 0.74281 0.91899 0.0
C417 C 0.12024 0.62502 0.84959 0.0
C418 C 0.15024 0.61789 0.85567 0.0
C419 C 0.14251 0.58128 0.86433 0.0
C420 C 0.10488 0.55169 0.86616 0.0
C421 C 0.07485 0.55819 0.85967 0.0
C422 C 0.0825 0.59501 0.85202 0.0
O423 O 0.18105 0.75096 0.80871 0.0
O424 O 0.131 0.76015 0.81465 0.0
O425 O 0.20781 0.82722 0.8607 0.0
O426 O 0.25979 0.82953 0.84945 0.0
C427 C 0.24392 0.84984 0.85507 0.0
O428 O 0.12686 0.73757 0.90421 0.0
O429 O 0.18846 0.7486 0.90287 0.0
O430 O 0.10188 0.6661 0.82394 0.0
O431 O 0.148 0.69129 0.85974 0.0
H432 H 0.17942 0.64063 0.85355 0.0
H433 H 0.09894 0.52325 0.87224 0.0
H434 H 0.05909 0.59989 0.84705 0.0
O435 O 0.48306 0.26118 0.87351 0.0
Tb436 Tb 0.42829 0.21329 0.86048 0.0
Eu437 Eu 0.39072 0.10065 0.84898 0.0
C438 C 0.50967 0.27883 0.85138 0.0
O439 O 0.50536 0.26306 0.82246 0.0
C440 C 0.39734 0.16191 0.8022 0.0
O441 O 0.36021 0.03644 0.84887 0.0
C442 C 0.46406 0.12897 0.84952 0.0
C443 C 0.32331 0.01591 0.85359 0.0
O444 O 0.30381 0.03339 0.85798 0.0
C445 C 0.38697 0.14875 0.91109 0.0
C446 C 0.49371 0.11855 0.85327 0.0
C447 C 0.53194 0.14732 0.85183 0.0
C448 C 0.56081 0.13824 0.85472 0.0
C449 C 0.55148 0.1004 0.85896 0.0
C450 C 0.51351 0.07124 0.86008 0.0
C451 C 0.48452 0.0805 0.85729 0.0
O452 O 0.42767 0.17863 0.82055 0.0
O453 O 0.37358 0.12594 0.80788 0.0
O454 O 0.37568 0.21305 0.87363 0.0
O455 O 0.41288 0.25293 0.8389 0.0
C456 C 0.38142 0.24145 0.85497 0.0
O457 O 0.36836 0.11779 0.89293 0.0
O458 O 0.42006 0.17752 0.9024 0.0
O459 O 0.44334 0.11693 0.82287 0.0
O460 O 0.44431 0.12671 0.8757 0.0
H461 H 0.53922 0.17664 0.84833 0.0
H462 H 0.57407 0.09368 0.8613 0.0
H463 H 0.45501 0.05827 0.8576 0.0
O464 O 0.22492 0.48312 0.8595 0.0
Tb465 Tb 0.21435 0.42555 0.86543 0.0
Eu466 Eu 0.28135 0.39182 0.8541 0.0
C467 C 0.22399 0.5025 0.88494 0.0
O468 O 0.22289 0.48891 0.91435 0.0
C469 C 0.22344 0.38964 0.8026 0.0
O470 O 0.3121 0.35823 0.85358 0.0
C471 C 0.33157 0.4627 0.84342 0.0
C472 C 0.29694 0.32286 0.8637 0.0
O473 O 0.26278 0.30622 0.87657 0.0
C474 C 0.24887 0.40094 0.92298 0.0
C475 C 0.37029 0.49208 0.85328 0.0
C476 C 0.37838 0.52984 0.85652 0.0
C477 C 0.41535 0.55874 0.86366 0.0
C478 C 0.44443 0.55004 0.86697 0.0
C479 C 0.43718 0.51263 0.86403 0.0
C480 C 0.39976 0.48356 0.85728 0.0
O481 O 0.23131 0.4221 0.81594 0.0
O482 O 0.23505 0.36797 0.81617 0.0
O483 O 0.16152 0.37009 0.86606 0.0
O484 O 0.15909 0.42021 0.87488 0.0
C485 C 0.13893 0.3836 0.87207 0.0
O486 O 0.2583 0.37938 0.90572 0.0
O487 O 0.24541 0.42862 0.90971 0.0
O488 O 0.32861 0.43437 0.82574 0.0
O489 O 0.30441 0.45216 0.86518 0.0
H490 H 0.35614 0.53683 0.85301 0.0
H491 H 0.47326 0.57307 0.87047 0.0
H492 H 0.39372 0.45453 0.85462 0.0
O493 O 0.74181 0.22557 0.87634 0.0
Tb494 Tb 0.78837 0.21413 0.88107 0.0
Eu495 Eu 0.88785 0.27818 0.87095 0.0
C496 C 0.72271 0.21782 0.8487 0.0
O497 O 0.7365 0.20981 0.82275 0.0
C498 C 0.83487 0.21801 0.82149 0.0
O499 O 0.9519 0.31202 0.8745 0.0
C500 C 0.86288 0.32387 0.85511 0.0
C501 C 0.97295 0.2959 0.87153 0.0
O502 O 0.95605 0.259 0.86696 0.0
C503 C 0.84582 0.25265 0.94029 0.0
C504 C 0.87271 0.36369 0.86026 0.0
C505 C 0.84363 0.37271 0.86296 0.0
C506 C 0.85267 0.41073 0.86547 0.0
C507 C 0.89068 0.43965 0.86501 0.0
C508 C 0.92011 0.43121 0.86286 0.0
C509 C 0.91087 0.39296 0.86102 0.0
O510 O 0.81219 0.22973 0.8325 0.0
O511 O 0.86748 0.2292 0.83601 0.0
O512 O 0.73703 0.15898 0.88498 0.0
O513 O 0.79009 0.16105 0.88679 0.0
C514 C 0.75334 0.13863 0.88726 0.0
O515 O 0.87571 0.25801 0.92331 0.0
O516 O 0.81337 0.24472 0.92637 0.0
O517 O 0.88632 0.31833 0.8369 0.0
O518 O 0.85029 0.30125 0.88052 0.0
H519 H 0.81416 0.35036 0.86264 0.0
H520 H 0.89724 0.46899 0.86611 0.0
H521 H 0.93326 0.38588 0.86003 0.0
O522 O 0.2661 0.49133 0.60601 0.0
Tb523 Tb 0.2197 0.43344 0.61055 0.0
Eu524 Eu 0.12049 0.40076 0.62253 0.0
C525 C 0.2837 0.51196 0.63184 0.0
O526 O 0.26955 0.49901 0.661 0.0
C527 C 0.1759 0.39708 0.6727 0.0
O528 O 0.05675 0.37264 0.62489 0.0
C529 C 0.15213 0.47406 0.63035 0.0
C530 C 0.03602 0.33559 0.62141 0.0
O531 O 0.05337 0.31591 0.61728 0.0
C532 C 0.16008 0.4026 0.55475 0.0
C533 C 0.14171 0.50383 0.63252 0.0
C534 C 0.17043 0.5421 0.63472 0.0
C535 C 0.16087 0.57067 0.63826 0.0
C536 C 0.12263 0.56088 0.63877 0.0
C537 C 0.09379 0.52297 0.63608 0.0
C538 C 0.1034 0.49433 0.63324 0.0
O539 O 0.19918 0.43026 0.65983 0.0
O540 O 0.1426 0.37524 0.65923 0.0
O541 O 0.26851 0.42495 0.60913 0.0
O542 O 0.21344 0.37668 0.60576 0.0
C543 C 0.24965 0.38821 0.6065 0.0
O544 O 0.13081 0.38146 0.57364 0.0
O545 O 0.19057 0.43265 0.56596 0.0
O546 O 0.14065 0.44979 0.65465 0.0
O547 O 0.14811 0.45783 0.60171 0.0
H548 H 0.20003 0.54959 0.63407 0.0
H549 H 0.11525 0.58304 0.64096 0.0
H550 H 0.08123 0.46487 0.63118 0.0
O551 O 0.78232 0.26452 0.63875 0.0
Tb552 Tb 0.79519 0.21966 0.62982 0.0
Eu553 Eu 0.72934 0.12281 0.63926 0.0
C554 C 0.78335 0.28639 0.61468 0.0
O555 O 0.78355 0.27537 0.58446 0.0
C556 C 0.78991 0.17251 0.69001 0.0
O557 O 0.69435 0.05881 0.63611 0.0
C558 C 0.68685 0.15222 0.65368 0.0
C559 C 0.71156 0.0386 0.63569 0.0
O560 O 0.74879 0.05661 0.63699 0.0
C561 C 0.75936 0.16328 0.57013 0.0
C562 C 0.64742 0.14371 0.64886 0.0
C563 C 0.63856 0.1731 0.65 0.0
C564 C 0.60067 0.16455 0.64712 0.0
C565 C 0.57184 0.12674 0.64361 0.0
C566 C 0.58018 0.09722 0.64277 0.0
C567 C 0.61819 0.10598 0.6447 0.0
O568 O 0.78152 0.19778 0.67923 0.0
O569 O 0.77755 0.14033 0.6744 0.0
O570 O 0.84966 0.27125 0.62318 0.0
O571 O 0.84867 0.21866 0.62607 0.0
C572 C 0.87048 0.25533 0.62305 0.0
O573 O 0.75195 0.13323 0.58771 0.0
O574 O 0.76621 0.19553 0.58374 0.0
O575 O 0.69144 0.12901 0.67301 0.0
O576 O 0.70844 0.16172 0.6276 0.0
H577 H 0.66087 0.20227 0.65347 0.0
H578 H 0.54254 0.12027 0.64255 0.0
H579 H 0.62503 0.0834 0.64355 0.0
O580 O 0.51869 0.78756 0.62661 0.0
Tb581 Tb 0.57613 0.79759 0.62981 0.0
Eu582 Eu 0.61053 0.73489 0.63921 0.0
C583 C 0.50084 0.78908 0.65289 0.0
O584 O 0.51579 0.79051 0.68172 0.0
C585 C 0.60948 0.7872 0.69205 0.0
O586 O 0.64707 0.70785 0.63922 0.0
C587 C 0.54007 0.68342 0.64926 0.0
C588 C 0.67983 0.72372 0.6239 0.0
O589 O 0.69104 0.75551 0.60778 0.0
C590 C 0.60243 0.76639 0.57018 0.0
C591 C 0.51081 0.64549 0.63762 0.0
C592 C 0.47296 0.63733 0.63514 0.0
C593 C 0.44428 0.60078 0.62641 0.0
C594 C 0.45331 0.57224 0.62076 0.0
C595 C 0.49071 0.57957 0.6232 0.0
C596 C 0.51956 0.61653 0.63141 0.0
O597 O 0.57663 0.77682 0.6784 0.0
O598 O 0.63399 0.78066 0.67707 0.0
O599 O 0.58433 0.85495 0.62989 0.0
O600 O 0.63288 0.84841 0.62852 0.0
C601 C 0.62115 0.87301 0.62925 0.0
O602 O 0.62317 0.75641 0.58765 0.0
O603 O 0.57595 0.77218 0.58293 0.0
O604 O 0.56875 0.6852 0.66556 0.0
O605 O 0.55007 0.71226 0.62937 0.0
H606 H 0.46573 0.65909 0.6406 0.0
H607 H 0.4305 0.54355 0.61613 0.0
H608 H 0.54857 0.62248 0.63369 0.0
O609 O 0.73215 0.53162 0.62774 0.0
Tb610 Tb 0.78097 0.58786 0.62297 0.0
Eu611 Eu 0.9005 0.61433 0.62531 0.0
C612 C 0.71733 0.50987 0.60189 0.0
O613 O 0.73474 0.52121 0.5736 0.0
C614 C 0.8472 0.61225 0.67479 0.0
O615 O 0.96324 0.65455 0.62933 0.0
C616 C 0.88331 0.54447 0.61466 0.0
C617 C 0.98384 0.67073 0.60316 0.0
O618 O 0.96725 0.66284 0.57436 0.0
C619 C 0.84257 0.60517 0.56898 0.0
C620 C 0.89277 0.51477 0.62213 0.0
C621 C 0.86323 0.47688 0.62285 0.0
C622 C 0.87105 0.44757 0.62877 0.0
C623 C 0.90862 0.45614 0.63339 0.0
C624 C 0.93855 0.4938 0.63268 0.0
C625 C 0.93038 0.52321 0.62718 0.0
O626 O 0.83253 0.59917 0.64603 0.0
O627 O 0.8832 0.62305 0.67601 0.0
O628 O 0.76976 0.62909 0.59917 0.0
O629 O 0.76506 0.62348 0.65118 0.0
C630 C 0.76169 0.64115 0.62587 0.0
O631 O 0.86794 0.63044 0.58936 0.0
O632 O 0.80595 0.58674 0.57624 0.0
O633 O 0.86823 0.5544 0.63836 0.0
O634 O 0.90713 0.57308 0.59632 0.0
H635 H 0.83421 0.47017 0.61856 0.0
H636 H 0.91457 0.43308 0.63615 0.0
H637 H 0.95321 0.55246 0.62643 0.0
O638 O 0.2305 0.75098 0.65103 0.0
Tb639 Tb 0.2195 0.79555 0.63541 0.0
Eu640 Eu 0.2965 0.91491 0.64896 0.0
C641 C 0.2379 0.73207 0.62889 0.0
O642 O 0.24498 0.74521 0.59879 0.0
C643 C 0.23415 0.85934 0.68637 0.0
O644 O 0.32581 0.97758 0.63782 0.0
C645 C 0.34617 0.89423 0.66203 0.0
C646 C 0.30741 0.99658 0.6373 0.0
O647 O 0.27068 0.97829 0.64274 0.0
C648 C 0.25942 0.85963 0.58315 0.0
C649 C 0.38407 0.90103 0.65298 0.0
C650 C 0.39002 0.86986 0.65098 0.0
C651 C 0.42626 0.87551 0.64429 0.0
C652 C 0.45663 0.91241 0.63993 0.0
C653 C 0.45134 0.94378 0.64282 0.0
C654 C 0.4148 0.93801 0.6486 0.0
O655 O 0.24452 0.84819 0.66045 0.0
O656 O 0.25361 0.8959 0.69002 0.0
O657 O 0.17264 0.77174 0.60044 0.0
O658 O 0.16173 0.77839 0.65042 0.0
C659 C 0.14646 0.76646 0.62167 0.0
O660 O 0.26693 0.89107 0.59959 0.0
O661 O 0.25843 0.8295 0.59668 0.0
O662 O 0.34426 0.92144 0.67775 0.0
O663 O 0.31917 0.87694 0.64031 0.0
H664 H 0.36668 0.84134 0.65519 0.0
H665 H 0.48488 0.91682 0.63559 0.0
H666 H 0.41068 0.96229 0.65106 0.0
O667 O 0.49916 0.24511 0.62703 0.0
Tb668 Tb 0.44184 0.23637 0.62556 0.0
Eu669 Eu 0.39721 0.2896 0.63027 0.0
C670 C 0.51277 0.23862 0.65394 0.0
O671 O 0.4934 0.23234 0.68124 0.0
C672 C 0.40253 0.24295 0.6856 0.0
O673 O 0.36091 0.31661 0.62347 0.0
C674 C 0.46483 0.34461 0.64422 0.0
C675 C 0.32469 0.29812 0.61579 0.0
O676 O 0.30741 0.26114 0.61176 0.0
C677 C 0.42016 0.26731 0.5631 0.0
C678 C 0.49311 0.38272 0.63241 0.0
C679 C 0.53001 0.39003 0.62549 0.0
C680 C 0.55802 0.4263 0.61572 0.0
C681 C 0.54954 0.45561 0.61349 0.0
C682 C 0.51321 0.44905 0.62078 0.0
C683 C 0.48472 0.41242 0.62979 0.0
O684 O 0.43664 0.25717 0.67303 0.0
O685 O 0.37583 0.24418 0.66865 0.0
O686 O 0.43293 0.17889 0.6257 0.0
O687 O 0.38484 0.186 0.62191 0.0
C688 C 0.39623 0.16117 0.62349 0.0
O689 O 0.39251 0.2689 0.57849 0.0
O690 O 0.44654 0.26365 0.57868 0.0
O691 O 0.43384 0.34082 0.65778 0.0
O692 O 0.45869 0.31574 0.62564 0.0
H693 H 0.5371 0.36772 0.62813 0.0
H694 H 0.57168 0.484 0.60691 0.0
H695 H 0.45662 0.40751 0.63566 0.0
C696 C 0.2727 0.95993 0.10687 0.0
C697 C 0.31227 0.98386 0.10949 0.0
C698 C 0.25624 0.92022 0.10691 0.0
C699 C 0.27882 0.90305 0.109 0.0
H700 H 0.25423 0.97193 0.10498 0.0
H701 H 0.22567 0.90289 0.10515 0.0
S702 S 0.38388 0.95277 0.11536 0.0
N703 N 0.37359 0.98722 0.11387 0.0
N704 N 0.34279 0.91291 0.11343 0.0
C705 C 0.3184 0.9266 0.11136 0.0
C706 C 0.3351 0.96692 0.11177 0.0
C707 C 0.30144 0.26562 0.12248 0.0
C708 C 0.31992 0.30565 0.12306 0.0
C709 C 0.32188 0.24628 0.11893 0.0
C710 C 0.36158 0.26618 0.11575 0.0
H711 H 0.27088 0.24895 0.12482 0.0
H712 H 0.30643 0.21553 0.11867 0.0
S713 S 0.42393 0.37106 0.1156 0.0
N714 N 0.38068 0.3644 0.12004 0.0
N715 N 0.41877 0.32818 0.11342 0.0
C716 C 0.38047 0.30615 0.11631 0.0
C717 C 0.35975 0.32584 0.11994 0.0
C718 C 0.04593 0.32037 0.13135 0.0
C719 C 0.0262 0.34073 0.13022 0.0
C720 C 0.08577 0.33899 0.1302 0.0
C721 C 0.10751 0.37873 0.12805 0.0
H722 H 0.03054 0.2897 0.13317 0.0
H723 H 0.09961 0.32211 0.13123 0.0
S724 S 0.07028 0.4456 0.124 0.0
N725 N 0.032 0.40325 0.12653 0.0
N726 N 0.10654 0.43801 0.12452 0.0
C727 C 0.08829 0.39951 0.12683 0.0
C728 C 0.04777 0.3806 0.12787 0.0
C729 C 0.74211 0.0796 0.17984 0.0
C730 C 0.74329 0.09525 0.14889 0.0
C731 C 0.72189 0.04015 0.18488 0.0
C732 C 0.70201 0.01478 0.15914 0.0
H733 H 0.75605 0.09797 0.2006 0.0
H734 H 0.72122 0.02961 0.20935 0.0
S735 S 0.69824 0.04153 0.07277 0.0
N736 N 0.72442 0.08239 0.09173 0.0
N737 N 0.68654 0.00852 0.10101 0.0
C738 C 0.70408 0.03015 0.12777 0.0
C739 C 0.72468 0.07028 0.1227 0.0
C740 C 0.69858 0.73362 0.13963 0.0
C741 C 0.68021 0.69373 0.13663 0.0
C742 C 0.67792 0.75295 0.14095 0.0
C743 C 0.63808 0.73314 0.13947 0.0
H744 H 0.72924 0.75019 0.14089 0.0
H745 H 0.69329 0.78359 0.14324 0.0
S746 S 0.57591 0.62859 0.13219 0.0
N747 N 0.61938 0.63521 0.13259 0.0
N748 N 0.58089 0.67134 0.13515 0.0
C749 C 0.61931 0.6933 0.13663 0.0
C750 C 0.64025 0.67365 0.13516 0.0
C751 C 0.99512 0.67783 0.13588 0.0
C752 C 0.01663 0.70718 0.11353 0.0
C753 C 0.95545 0.65995 0.13653 0.0
C754 C 0.9355 0.67049 0.11479 0.0
H755 H 0.00895 0.66857 0.15324 0.0
H756 H 0.94031 0.63768 0.15436 0.0
S757 S 0.97779 0.74508 0.05103 0.0
N758 N 0.01459 0.74566 0.06871 0.0
N759 N 0.93993 0.7118 0.07004 0.0
C760 C 0.9564 0.69955 0.09216 0.0
C761 C 0.99695 0.71795 0.09151 0.0
C762 C 0.07931 0.70523 0.37692 0.0
C763 C 0.10145 0.74509 0.37785 0.0
C764 C 0.03977 0.68681 0.37338 0.0
C765 C 0.02044 0.70738 0.3708 0.0
H766 H 0.09264 0.68792 0.37867 0.0
H767 H 0.02429 0.65606 0.37272 0.0
S768 S 0.06537 0.8126 0.37226 0.0
N769 N 0.10131 0.80473 0.37607 0.0
N770 N 0.02691 0.77032 0.36969 0.0
C771 C 0.04228 0.7474 0.37194 0.0
C772 C 0.08274 0.76618 0.37538 0.0
C773 C 0.39865 0.08121 0.40374 0.0
C774 C 0.38092 0.09939 0.38863 0.0
C775 C 0.38103 0.0415 0.40519 0.0
C776 C 0.34501 0.01813 0.39124 0.0
H777 H 0.42679 0.09781 0.41414 0.0
H778 H 0.39632 0.02911 0.41668 0.0
S779 S 0.28583 0.0517 0.34975 0.0
N780 N 0.32476 0.09111 0.36033 0.0
N781 N 0.29163 0.01643 0.3627 0.0
C782 C 0.32658 0.03597 0.37657 0.0
C783 C 0.34449 0.07657 0.37539 0.0
C784 C 0.267 0.3153 0.3817 0.0
C785 C 0.26509 0.33286 0.35269 0.0
C786 C 0.289 0.29759 0.38356 0.0
C787 C 0.31064 0.29755 0.35669 0.0
H788 H 0.25202 0.31596 0.40342 0.0
H789 H 0.29015 0.28511 0.40665 0.0
S790 S 0.31368 0.33775 0.27445 0.0
N791 N 0.28498 0.3473 0.29589 0.0
N792 N 0.32714 0.31485 0.29958 0.0
C793 C 0.30815 0.3141 0.32722 0.0
C794 C 0.28511 0.33148 0.32515 0.0
C795 C 0.95944 0.2672 0.36447 0.0
C796 C 0.98197 0.30715 0.36452 0.0
C797 C 0.91962 0.24899 0.36585 0.0
C798 C 0.90074 0.26999 0.36732 0.0
H799 H 0.97259 0.24969 0.3633 0.0
H800 H 0.90355 0.21824 0.36558 0.0
S801 S 0.94599 0.37518 0.36811 0.0
N802 N 0.98187 0.36705 0.36621 0.0
N803 N 0.90743 0.33292 0.36876 0.0
C804 C 0.92279 0.3099 0.3674 0.0
C805 C 0.96326 0.32845 0.36602 0.0
C806 C 0.67166 0.94024 0.34413 0.0
C807 C 0.66366 0.91824 0.37266 0.0
C808 C 0.69166 0.98009 0.34564 0.0
C809 C 0.70499 0.99939 0.37566 0.0
H810 H 0.6611 0.92663 0.32062 0.0
H811 H 0.69616 0.99589 0.32314 0.0
S812 S 0.69355 0.95452 0.45718 0.0
N813 N 0.67198 0.91844 0.4316 0.0
N814 N 0.71014 0.99311 0.43442 0.0
C815 C 0.69856 0.97758 0.40418 0.0
C816 C 0.67772 0.93707 0.40268 0.0
C817 C 0.7433 0.69499 0.38191 0.0
C818 C 0.70333 0.67635 0.38067 0.0
C819 C 0.76284 0.67457 0.38107 0.0
C820 C 0.74317 0.63474 0.37893 0.0
H821 H 0.75977 0.72567 0.38329 0.0
H822 H 0.79356 0.69014 0.38176 0.0
S823 S 0.63854 0.57191 0.37563 0.0
N824 N 0.64486 0.61525 0.37773 0.0
N825 N 0.6815 0.57723 0.37612 0.0
C826 C 0.70326 0.61567 0.37806 0.0
C827 C 0.68337 0.63636 0.37894 0.0
C828 C 0.75248 0.07654 0.89099 0.0
C829 C 0.73271 0.09649 0.88754 0.0
C830 C 0.73334 0.03664 0.89036 0.0
C831 C 0.69366 0.01506 0.88604 0.0
H832 H 0.783 0.09184 0.89411 0.0
H833 H 0.74995 0.02268 0.89308 0.0
S834 S 0.62873 0.05398 0.87552 0.0
N835 N 0.6712 0.0918 0.87953 0.0
N836 N 0.63536 0.01717 0.8782 0.0
C837 C 0.67358 0.03482 0.88257 0.0
C838 C 0.69305 0.07539 0.88336 0.0
C839 C 0.68023 0.7528 0.87751 0.0
C840 C 0.64054 0.73249 0.874 0.0
C841 C 0.70183 0.73453 0.87494 0.0
C842 C 0.68462 0.69521 0.8687 0.0
H843 H 0.69477 0.78306 0.88223 0.0
H844 H 0.73232 0.75149 0.87776 0.0
S845 S 0.58112 0.62889 0.85847 0.0
N846 N 0.58471 0.67072 0.86453 0.0
N847 N 0.62494 0.63652 0.85977 0.0
C848 C 0.64481 0.67458 0.86531 0.0
C849 C 0.6229 0.69317 0.86795 0.0
C850 C 0.96111 0.69475 0.85233 0.0
C851 C 0.98334 0.67758 0.85835 0.0
C852 C 0.92128 0.67419 0.85499 0.0
C853 C 0.90202 0.63559 0.86372 0.0
H854 H 0.97449 0.72432 0.84522 0.0
H855 H 0.90548 0.68854 0.84972 0.0
S856 S 0.94642 0.57699 0.88256 0.0
N857 N 0.98253 0.61934 0.87393 0.0
N858 N 0.90817 0.58102 0.87886 0.0
C859 C 0.92381 0.61814 0.8702 0.0
C860 C 0.96429 0.63901 0.86755 0.0
C861 C 0.26382 0.95195 0.85636 0.0
C862 C 0.30375 0.97354 0.85404 0.0
C863 C 0.24459 0.91202 0.85683 0.0
C864 C 0.26448 0.89203 0.85497 0.0
H865 H 0.24712 0.96595 0.85771 0.0
H866 H 0.21391 0.89672 0.85846 0.0
S867 S 0.36918 0.93454 0.84966 0.0
N868 N 0.36244 0.97136 0.8506 0.0
N869 N 0.32643 0.89672 0.85138 0.0
C870 C 0.30437 0.91314 0.85282 0.0
C871 C 0.32395 0.95374 0.85239 0.0
C872 C 0.30694 0.2682 0.87814 0.0
C873 C 0.31815 0.30183 0.86027 0.0
C874 C 0.32699 0.24834 0.8758 0.0
C875 C 0.35882 0.26107 0.85523 0.0
H876 H 0.28284 0.25742 0.89455 0.0
H877 H 0.31778 0.22312 0.89058 0.0
S878 S 0.39872 0.34616 0.8017 0.0
N879 N 0.3626 0.34604 0.82029 0.0
N880 N 0.39978 0.30861 0.81569 0.0
C881 C 0.36981 0.29408 0.83664 0.0
C882 C 0.34965 0.31449 0.83923 0.0
C883 C 0.03727 0.30098 0.87013 0.0
C884 C 0.01527 0.31894 0.87263 0.0
C885 C 0.07717 0.32192 0.87033 0.0
C886 C 0.09676 0.36169 0.87317 0.0
H887 H 0.02363 0.27041 0.86777 0.0
H888 H 0.09274 0.30682 0.86805 0.0
S889 S 0.0531 0.4229 0.88025 0.0
N890 N 0.01664 0.37932 0.87793 0.0
N891 N 0.09124 0.4184 0.87851 0.0
C892 C 0.07525 0.38008 0.87592 0.0
C893 C 0.03466 0.35881 0.8756 0.0
C894 C 0.93264 0.25656 0.62082 0.0
C895 C 0.91252 0.27633 0.62197 0.0
C896 C 0.97247 0.27599 0.6206 0.0
C897 C 0.99381 0.316 0.62175 0.0
H898 H 0.91753 0.22581 0.62014 0.0
H899 H 0.98658 0.25937 0.61969 0.0
S900 S 0.95439 0.3811 0.62518 0.0
N901 N 0.91673 0.33818 0.62428 0.0
N902 N 0.99137 0.37464 0.6241 0.0
C903 C 0.97391 0.33611 0.62295 0.0
C904 C 0.93335 0.3163 0.62298 0.0
C905 C 0.62793 0.93764 0.62994 0.0
C906 C 0.64517 0.91499 0.63039 0.0
C907 C 0.64955 0.97741 0.6316 0.0
C908 C 0.6894 0.99628 0.63384 0.0
H909 H 0.59735 0.92457 0.62834 0.0
H910 H 0.63477 0.9934 0.63118 0.0
S911 S 0.7483 0.94972 0.63651 0.0
N912 N 0.70433 0.91412 0.63359 0.0
N913 N 0.74516 0.9887 0.63674 0.0
C914 C 0.707 0.97382 0.63438 0.0
C915 C 0.68487 0.93327 0.63265 0.0
C916 C 0.70082 0.68276 0.6518 0.0
C917 C 0.70355 0.7056 0.62491 0.0
C918 C 0.72146 0.66359 0.65274 0.0
C919 C 0.74486 0.66594 0.62648 0.0
H920 H 0.68236 0.67939 0.6722 0.0
H921 H 0.71784 0.64562 0.67358 0.0
S922 S 0.76296 0.72297 0.55092 0.0
N923 N 0.73284 0.73076 0.57203 0.0
N924 N 0.77082 0.69385 0.57342 0.0
C925 C 0.74856 0.68934 0.5998 0.0
C926 C 0.72811 0.70943 0.59911 0.0
C927 C 0.04089 0.7102 0.6378 0.0
C928 C 0.02526 0.69716 0.6065 0.0
C929 C 0.08001 0.73379 0.6422 0.0
C930 C 0.10515 0.74506 0.61554 0.0
H931 H 0.02286 0.70185 0.65926 0.0
H932 H 0.09066 0.74242 0.66688 0.0
S933 S 0.07901 0.72049 0.52831 0.0
N934 N 0.03818 0.69873 0.54809 0.0
N935 N 0.11181 0.7428 0.55657 0.0
C936 C 0.09002 0.73311 0.584 0.0
C937 C 0.05006 0.70925 0.57943 0.0
C938 C 0.36834 0.05742 0.6289 0.0
C939 C 0.32858 0.03846 0.63213 0.0
C940 C 0.38959 0.09693 0.62551 0.0
C941 C 0.37211 0.11931 0.62501 0.0
H942 H 0.38346 0.04176 0.62945 0.0
H943 H 0.42016 0.11006 0.62363 0.0
S944 S 0.26889 0.08413 0.63131 0.0
N945 N 0.27244 0.04544 0.63375 0.0
N946 N 0.31268 0.1198 0.62712 0.0
C947 C 0.3324 0.10092 0.6275 0.0
C948 C 0.31059 0.06051 0.63114 0.0
C949 C 0.3068 0.38126 0.61155 0.0
C950 C 0.26736 0.36401 0.60716 0.0
C951 C 0.32478 0.35964 0.61399 0.0
C952 C 0.30416 0.31971 0.61207 0.0
H953 H 0.32406 0.41185 0.61355 0.0
H954 H 0.35523 0.3746 0.6176 0.0
S955 S 0.20004 0.26069 0.5997 0.0
N956 N 0.20806 0.30474 0.60032 0.0
N957 N 0.24181 0.26381 0.60475 0.0
C958 C 0.26463 0.30203 0.60715 0.0
C959 C 0.24626 0.32423 0.60475 0.0
C960 C 0.36189 0.11523 -0.00163 0.0
C961 C 0.37475 0.14987 0.015 0.0
C962 C 0.36265 0.11414 0.96404 0.0
C963 C 0.37627 0.14768 0.94564 0.0
H964 H 0.35405 0.08941 0.01187 0.0
H965 H 0.35538 0.08754 0.9521 0.0
S966 S 0.40464 0.24368 0.97761 0.0
N967 N 0.39516 0.217 0.01059 0.0
N968 N 0.39664 0.21501 0.94621 0.0
C969 C 0.38535 0.1816 0.96198 0.0
C970 C 0.38458 0.18269 0.99671 0.0
C971 C 0.26746 0.38552 0.01146 0.0
C972 C 0.24599 0.39817 0.02899 0.0
C973 C 0.26743 0.3851 0.977 0.0
C974 C 0.24592 0.39731 0.95907 0.0
H975 H 0.2855 0.37728 0.02436 0.0
H976 H 0.28542 0.37654 0.9644 0.0
S977 S 0.17992 0.42672 0.99346 0.0
N978 N 0.19926 0.41879 0.02581 0.0
N979 N 0.19906 0.41782 0.96146 0.0
C980 C 0.22267 0.40782 0.97641 0.0
C981 C 0.22275 0.40831 0.01126 0.0
C982 C 0.81773 0.25901 0.0274 0.0
C983 C 0.84549 0.25711 0.04647 0.0
C984 C 0.81901 0.25881 0.99328 0.0
C985 C 0.84819 0.25676 0.9765 0.0
H986 H 0.79399 0.25957 0.03892 0.0
H987 H 0.79625 0.25943 0.98005 0.0
S988 S 0.93034 0.25552 0.01495 0.0
N989 N 0.90496 0.25633 0.0462 0.0
N990 N 0.90749 0.256 0.98169 0.0
C991 C 0.87751 0.25712 0.99519 0.0
C992 C 0.87617 0.25735 0.03024 0.0
C993 C 0.59263 0.81013 0.99564 0.0
C994 C 0.61007 0.84397 0.97738 0.0
C995 C 0.59206 0.81071 0.02974 0.0
C996 C 0.60905 0.84511 0.04713 0.0
H997 H 0.5786 0.78275 0.98353 0.0
H998 H 0.57783 0.78381 0.04255 0.0
S999 S 0.66016 0.94184 0.01127 0.0
N1000 N 0.64615 0.91307 0.97931 0.0
N1001 N 0.64525 0.91408 0.04381 0.0
C1002 C 0.62796 0.87928 0.0294 0.0
C1003 C 0.62845 0.87872 0.99442 0.0
C1004 C 0.75747 0.63409 0.00923 0.0
C1005 C 0.75843 0.60621 0.02892 0.0
C1006 C 0.75459 0.63027 0.97487 0.0
C1007 C 0.75221 0.59824 0.95901 0.0
H1008 H 0.76029 0.65961 0.02031 0.0
H1009 H 0.75519 0.65304 0.96065 0.0
S1010 S 0.74766 0.51456 0.00046 0.0
N1011 N 0.75289 0.54391 0.03054 0.0
N1012 N 0.74695 0.53629 0.96661 0.0
C1013 C 0.75114 0.56931 0.97883 0.0
C1014 C 0.75438 0.5734 0.01358 0.0
C1015 C 0.14026 0.75257 0.00895 0.0
C1016 C 0.16645 0.74486 0.02482 0.0
C1017 C 0.1366 0.75065 0.9747 0.0
C1018 C 0.15898 0.74093 0.95516 0.0
H1019 H 0.12329 0.76133 0.02296 0.0
H1020 H 0.11706 0.75808 0.96344 0.0
S1021 S 0.22754 0.71246 0.98498 0.0
N1022 N 0.21224 0.7233 0.01845 0.0
N1023 N 0.2051 0.7193 0.95446 0.0
C1024 C 0.18378 0.73119 0.97088 0.0
C1025 C 0.18758 0.73327 0.00559 0.0
C1026 C 0.87744 0.63467 0.51659 0.0
C1027 C 0.85271 0.60221 0.53475 0.0
C1028 C 0.88052 0.63267 0.48236 0.0
C1029 C 0.85898 0.59817 0.46536 0.0
H1030 H 0.89263 0.66209 0.52853 0.0
H1031 H 0.89818 0.65866 0.46901 0.0
S1032 S 0.79625 0.50395 0.503 0.0
N1033 N 0.81079 0.53392 0.53409 0.0
N1034 N 0.81662 0.52996 0.47023 0.0
C1035 C 0.8367 0.5651 0.48381 0.0
C1036 C 0.83357 0.56719 0.5184 0.0
C1037 C 0.23899 0.82376 0.53062 0.0
C1038 C 0.25541 0.85893 0.54699 0.0
C1039 C 0.23676 0.82153 0.4965 0.0
C1040 C 0.25079 0.85434 0.47707 0.0
H1041 H 0.2279 0.79747 0.54421 0.0
H1042 H 0.22405 0.79364 0.48533 0.0
S1043 S 0.29571 0.95361 0.50764 0.0
N1044 N 0.28527 0.92753 0.54111 0.0
N1045 N 0.28102 0.92333 0.47676 0.0
C1046 C 0.26647 0.88978 0.49302 0.0
C1047 C 0.26876 0.89207 0.52799 0.0
C1048 C 0.38937 0.25842 0.50821 0.0
C1049 C 0.42235 0.27002 0.52701 0.0
C1050 C 0.39044 0.25685 0.47392 0.0
C1051 C 0.42452 0.26683 0.45742 0.0
H1052 H 0.36228 0.24901 0.52006 0.0
H1053 H 0.36414 0.24618 0.46041 0.0
S1054 S 0.51987 0.30569 0.49503 0.0
N1055 N 0.49084 0.29633 0.52632 0.0
N1056 N 0.49279 0.2934 0.46211 0.0
C1057 C 0.45806 0.28082 0.47584 0.0
C1058 C 0.45699 0.2824 0.5106 0.0
C1059 C 0.12797 0.38569 0.49981 0.0
C1060 C 0.15934 0.39373 0.5197 0.0
C1061 C 0.12995 0.38291 0.46556 0.0
C1062 C 0.16327 0.3879 0.45042 0.0
H1063 H 0.10256 0.38343 0.51057 0.0
H1064 H 0.10596 0.37857 0.45082 0.0
S1065 S 0.25033 0.40219 0.49294 0.0
N1066 N 0.22254 0.40183 0.52256 0.0
N1067 N 0.22625 0.39587 0.45876 0.0
C1068 C 0.19369 0.39319 0.47055 0.0
C1069 C 0.19172 0.3963 0.50508 0.0
C1070 C 0.76775 0.19364 0.48143 0.0
C1071 C 0.75662 0.16001 0.46367 0.0
C1072 C 0.76861 0.19413 0.51559 0.0
C1073 C 0.7583 0.161 0.53378 0.0
H1074 H 0.7762 0.22017 0.46891 0.0
H1075 H 0.77758 0.22102 0.52771 0.0
S1076 S 0.72638 0.06505 0.49922 0.0
N1077 N 0.73468 0.09238 0.46684 0.0
N1078 N 0.73631 0.09322 0.53132 0.0
C1079 C 0.74714 0.127 0.51643 0.0
C1080 C 0.74632 0.12653 0.48137 0.0
C1081 C 0.61536 0.74461 0.48234 0.0
C1082 C 0.60796 0.77 0.46484 0.0
C1083 C 0.61492 0.74427 0.51673 0.0
C1084 C 0.60698 0.76926 0.5344 0.0
H1085 H 0.62002 0.72399 0.46942 0.0
H1086 H 0.61932 0.72341 0.52947 0.0
S1087 S 0.59295 0.84583 0.50012 0.0
N1088 N 0.59766 0.82408 0.46783 0.0
N1089 N 0.59655 0.82313 0.53215 0.0
C1090 C 0.60189 0.79622 0.51716 0.0
C1091 C 0.60246 0.79668 0.48241 0.0
C1092 C 0.40621 0.15379 0.23044 0.0
C1093 C 0.39961 0.17235 0.20451 0.0
C1094 C 0.40864 0.16668 0.26271 0.0
C1095 C 0.40349 0.19771 0.2698 0.0
H1096 H 0.41143 0.13056 0.22558 0.0
H1097 H 0.41523 0.15278 0.28216 0.0
S1098 S 0.38387 0.25449 0.21029 0.0
N1099 N 0.3872 0.22247 0.1878 0.0
N1100 N 0.39025 0.24574 0.24855 0.0
C1101 C 0.3952 0.21531 0.24417 0.0
C1102 C 0.39368 0.20284 0.21141 0.0
C1103 C 0.23263 0.4148 0.24648 0.0
C1104 C 0.21438 0.39102 0.21965 0.0
C1105 C 0.21297 0.41129 0.27564 0.0
C1106 C 0.17416 0.38454 0.27872 0.0
H1107 H 0.26212 0.43682 0.24467 0.0
H1108 H 0.22789 0.43085 0.29537 0.0
S1109 S 0.1132 0.31634 0.21495 0.0
N1110 N 0.15552 0.33983 0.19768 0.0
N1111 N 0.11811 0.334 0.25227 0.0
C1112 C 0.15558 0.36052 0.25203 0.0
C1113 C 0.17586 0.36351 0.22254 0.0
C1114 C 0.7962 0.22315 0.21937 0.0
C1115 C 0.83364 0.23176 0.21311 0.0
C1116 C 0.77746 0.20439 0.24799 0.0
C1117 C 0.7953 0.19305 0.27112 0.0
H1118 H 0.78172 0.23229 0.20262 0.0
H1119 H 0.74908 0.1995 0.25242 0.0
S1120 S 0.89319 0.20898 0.26657 0.0
N1121 N 0.88809 0.22779 0.23243 0.0
N1122 N 0.85237 0.19165 0.28625 0.0
C1123 C 0.83241 0.20061 0.26494 0.0
C1124 C 0.85181 0.22038 0.23596 0.0
C1125 C 0.58723 0.80976 0.26182 0.0
C1126 C 0.61523 0.82003 0.23772 0.0
C1127 C 0.58883 0.7925 0.29085 0.0
C1128 C 0.61803 0.78423 0.29647 0.0
H1129 H 0.56337 0.81419 0.25781 0.0
H1130 H 0.56596 0.78391 0.3083 0.0
S1131 S 0.69807 0.80538 0.24064 0.0
N1132 N 0.67331 0.82146 0.22117 0.0
N1133 N 0.67585 0.78794 0.27571 0.0
C1134 C 0.64656 0.79485 0.27273 0.0
C1135 C 0.64534 0.81318 0.24335 0.0
C1136 C 0.77552 0.61131 0.23986 0.0
C1137 C 0.80034 0.63323 0.21456 0.0
C1138 C 0.78917 0.60623 0.26972 0.0
C1139 C 0.82827 0.6232 0.27592 0.0
H1140 H 0.74506 0.59703 0.23644 0.0
H1141 H 0.76878 0.5885 0.28809 0.0
S1142 S 0.90566 0.68478 0.2189 0.0
N1143 N 0.86638 0.67326 0.19836 0.0
N1144 N 0.89191 0.66391 0.25496 0.0
C1145 C 0.85362 0.64639 0.25154 0.0
C1146 C 0.83969 0.65133 0.22076 0.0
C1147 C 0.18599 0.81481 0.23408 0.0
C1148 C 0.20882 0.80464 0.21555 0.0
C1149 C 0.19486 0.82654 0.26684 0.0
C1150 C 0.22659 0.82808 0.28199 0.0
H1151 H 0.16051 0.81263 0.2236 0.0
H1152 H 0.17589 0.83271 0.28079 0.0
S1153 S 0.29837 0.80973 0.24331 0.0
N1154 N 0.26703 0.80118 0.21415 0.0
N1155 N 0.28282 0.82226 0.27565 0.0
C1156 C 0.2506 0.81989 0.26339 0.0
C1157 C 0.24196 0.80844 0.23014 0.0
C1158 C 0.59556 0.7734 0.75055 0.0
C1159 C 0.61555 0.79984 0.72597 0.0
C1160 C 0.5952 0.78539 0.78249 0.0
C1161 C 0.61438 0.82423 0.79067 0.0
H1162 H 0.57895 0.74341 0.74478 0.0
H1163 H 0.57861 0.76407 0.80064 0.0
S1164 S 0.67226 0.90428 0.73454 0.0
N1165 N 0.65638 0.86596 0.71137 0.0
N1166 N 0.65553 0.88895 0.77171 0.0
C1167 C 0.63606 0.85086 0.76647 0.0
C1168 C 0.63653 0.83849 0.73388 0.0
C1169 C 0.82365 0.64055 0.75662 0.0
C1170 C 0.78853 0.60864 0.76448 0.0
C1171 C 0.84205 0.6423 0.72688 0.0
C1172 C 0.82538 0.61273 0.7037 0.0
H1173 H 0.83802 0.66319 0.77434 0.0
H1174 H 0.86992 0.66648 0.72237 0.0
S1175 S 0.73299 0.52394 0.71223 0.0
N1176 N 0.73737 0.54747 0.74645 0.0
N1177 N 0.77135 0.55121 0.69047 0.0
C1178 C 0.7895 0.5816 0.71074 0.0
C1179 C 0.77124 0.57945 0.74117 0.0
C1180 C 0.20486 0.79703 0.71444 0.0
C1181 C 0.20837 0.8331 0.71156 0.0
C1182 C 0.18669 0.77371 0.74129 0.0
C1183 C 0.17111 0.78547 0.76626 0.0
H1184 H 0.2183 0.7876 0.69688 0.0
H1185 H 0.18629 0.74691 0.74321 0.0
S1186 S 0.17132 0.8767 0.77001 0.0
N1187 N 0.19362 0.87905 0.73548 0.0
N1188 N 0.15899 0.83483 0.78612 0.0
C1189 C 0.17271 0.82066 0.76309 0.0
C1190 C 0.19165 0.84468 0.73576 0.0
C1191 C 0.42136 0.22123 0.77008 0.0
C1192 C 0.39312 0.18306 0.77459 0.0
C1193 C 0.42251 0.24115 0.74199 0.0
C1194 C 0.39515 0.22394 0.71742 0.0
H1195 H 0.44401 0.23559 0.78765 0.0
H1196 H 0.44597 0.26982 0.73887 0.0
S1197 S 0.31338 0.1259 0.71782 0.0
N1198 N 0.33553 0.12954 0.7527 0.0
N1199 N 0.33763 0.16759 0.69963 0.0
C1200 C 0.3653 0.18669 0.72219 0.0
C1201 C 0.36429 0.16606 0.75087 0.0
C1202 C 0.17185 0.37339 0.76249 0.0
C1203 C 0.2095 0.38269 0.76883 0.0
C1204 C 0.16001 0.37516 0.73059 0.0
C1205 C 0.18592 0.38748 0.70447 0.0
H1206 H 0.15197 0.36645 0.78253 0.0
H1207 H 0.13126 0.36943 0.72676 0.0
S1208 S 0.28691 0.41256 0.70825 0.0
N1209 N 0.27177 0.40199 0.74642 0.0
N1210 N 0.25001 0.40657 0.6866 0.0
C1211 C 0.22315 0.39519 0.71038 0.0
C1212 C 0.23488 0.39253 0.74263 0.0
C1213 C 0.85243 0.21716 0.76326 0.0
C1214 C 0.82674 0.19988 0.78915 0.0
C1215 C 0.84103 0.20606 0.73078 0.0
C1216 C 0.80411 0.17675 0.72356 0.0
H1217 H 0.88034 0.24126 0.76789 0.0
H1218 H 0.86047 0.22182 0.71114 0.0
S1219 S 0.72776 0.12035 0.78301 0.0
N1220 N 0.76388 0.15062 0.80576 0.0
N1221 N 0.74292 0.12904 0.74473 0.0
C1222 C 0.77918 0.15752 0.74937 0.0
C1223 C 0.79045 0.16929 0.78227 0.0
C1224 C 0.48429 0.01392 0.1403 0.0
C1225 C 0.51507 0.0437 0.12383 0.0
C1226 C 0.4807 0.9778 0.14245 0.0
C1227 C 0.50774 0.97009 0.12824 0.0
H1228 H 0.4631 0.0187 0.15198 0.0
H1229 H 0.45654 0.95568 0.15542 0.0
S1230 S 0.5924 0.03753 0.08075 0.0
N1231 N 0.57228 0.06251 0.09175 0.0
N1232 N 0.56558 0.99474 0.09628 0.0
C1233 C 0.53856 0.9995 0.11163 0.0
C1234 C 0.54216 0.03622 0.10925 0.0
C1235 C 0.5304 0.51751 0.12732 0.0
C1236 C 0.53087 0.49359 0.10255 0.0
C1237 C 0.49955 0.5235 0.13104 0.0
C1238 C 0.4677 0.50548 0.11044 0.0
H1239 H 0.55366 0.53109 0.14454 0.0
H1240 H 0.50042 0.54215 0.15044 0.0
S1241 S 0.45523 0.44211 0.04061 0.0
N1242 N 0.49721 0.45345 0.05585 0.0
N1243 N 0.43869 0.46396 0.06379 0.0
C1244 C 0.46764 0.48173 0.0855 0.0
C1245 C 0.49935 0.476 0.08131 0.0
C1246 C 0.99299 0.52063 0.11621 0.0
C1247 C 0.97961 0.48955 0.13774 0.0
C1248 C 0.03114 0.54926 0.11631 0.0
C1249 C 0.05723 0.54777 0.1379 0.0
H1250 H 0.97378 0.52278 0.09913 0.0
H1251 H 0.04035 0.57261 0.09924 0.0
S1252 S 0.03594 0.47382 0.20066 0.0
N1253 N 0.99498 0.45971 0.18205 0.0
N1254 N 0.06679 0.51369 0.18242 0.0
C1255 C 0.04418 0.51696 0.1597 0.0
C1256 C 1.00534 0.48777 0.15954 0.0
C1257 C 0.01496 0.48528 0.38244 0.0
C1258 C 0.04086 0.506 0.35746 0.0
C1259 C 0.97835 0.48058 0.38265 0.0
C1260 C 0.9665 0.49649 0.35792 0.0
H1261 H 0.0234 0.47357 0.4024 0.0
H1262 H 0.95936 0.46486 0.40255 0.0
S1263 S 0.02218 0.54911 0.28497 0.0
N1264 N 0.05123 0.53978 0.30602 0.0
N1265 N 0.98243 0.53082 0.30633 0.0
C1266 C 0.99175 0.51614 0.33225 0.0
C1267 C 0.0289 0.52087 0.33202 0.0
C1268 C 0.53491 0.01585 0.39802 0.0
C1269 C 0.53821 0.04449 0.3769 0.0
C1270 C 0.50183 0.98018 0.39841 0.0
C1271 C 0.4711 0.97162 0.37726 0.0
H1272 H 0.55794 0.02115 0.41447 0.0
H1273 H 0.50053 0.9589 0.41514 0.0
S1274 S 0.46656 0.03752 0.31697 0.0
N1275 N 0.50836 0.06274 0.33473 0.0
N1276 N 0.44675 0.99526 0.33439 0.0
C1277 C 0.4741 1.0004 0.35625 0.0
C1278 C 0.50757 0.03688 0.35625 0.0
C1279 C 0.49843 0.46824 0.34041 0.0
C1280 C 0.51871 0.46198 0.36512 0.0
C1281 C 0.4927 0.49947 0.34167 0.0
C1282 C 0.50697 0.52567 0.36773 0.0
H1283 H 0.48745 0.44921 0.3196 0.0
H1284 H 0.47684 0.50311 0.32208 0.0
S1285 S 0.56039 0.52106 0.43943 0.0
N1286 N 0.55227 0.48395 0.41691 0.0
N1287 N 0.54124 0.54262 0.41934 0.0
C1288 C 0.52729 0.51978 0.39263 0.0
C1289 C 0.53315 0.48792 0.39135 0.0
C1290 C 0.52421 0.01783 0.84383 0.0
C1291 C 0.50497 0.03134 0.86353 0.0
C1292 C 0.51812 0.9809 0.84744 0.0
C1293 C 0.49251 0.956 0.87086 0.0
H1294 H 0.54398 0.0359 0.82524 0.0
H1295 H 0.533 0.97153 0.83128 0.0
S1296 S 0.4371 0.97836 0.93017 0.0
N1297 N 0.46063 0.01749 0.90831 0.0
N1298 N 0.44923 0.94811 0.91528 0.0
C1299 C 0.47349 0.96932 0.89107 0.0
C1300 C 0.47963 0.00691 0.88731 0.0
C1301 C 0.4727 0.48175 0.8414 0.0
C1302 C 0.46955 0.50506 0.86527 0.0
C1303 C 0.50445 0.4768 0.84024 0.0
C1304 C 0.53454 0.49527 0.86265 0.0
H1305 H 0.45088 0.46786 0.82296 0.0
H1306 H 0.50566 0.45858 0.82145 0.0
S1307 S 0.53925 0.55676 0.93156 0.0
N1308 N 0.49846 0.54465 0.91342 0.0
N1309 N 0.55861 0.53618 0.91027 0.0
C1310 C 0.53175 0.51826 0.88683 0.0
C1311 C 0.49915 0.5229 0.88841 0.0
C1312 C 0.00889 0.52529 0.88201 0.0
C1313 C 0.03558 0.52588 0.8599 0.0
C1314 C 0.97194 0.49418 0.88329 0.0
C1315 C 0.96018 0.46278 0.86213 0.0
H1316 H 0.01681 0.54879 0.89874 0.0
H1317 H 0.95245 0.4947 0.9011 0.0
S1318 S 0.01934 0.45228 0.79822 0.0
N1319 N 0.04806 0.49339 0.81588 0.0
N1320 N 0.97823 0.43547 0.81727 0.0
C1321 C 0.98672 0.46342 0.83961 0.0
C1322 C 0.02447 0.49487 0.83868 0.0
C1323 C 1.00541 0.5261 0.6122 0.0
C1324 C 0.97833 0.50175 0.63506 0.0
C1325 C 0.0425 0.5323 0.61249 0.0
C1326 C 0.05383 0.51414 0.63545 0.0
H1327 H 0.99774 0.53997 0.59352 0.0
H1328 H 0.06248 0.55128 0.59444 0.0
S1329 S 0.99482 0.44966 0.70184 0.0
N1330 N 0.96614 0.46093 0.68246 0.0
N1331 N 0.03582 0.47205 0.68235 0.0
C1332 C 0.02727 0.48991 0.65854 0.0
C1333 C 0.98955 0.48388 0.65853 0.0
C1334 C 0.51817 0.04654 0.61989 0.0
C1335 C 0.54865 0.0573 0.64179 0.0
C1336 C 0.48663 0.00977 0.62032 0.0
C1337 C 0.48469 0.98247 0.64245 0.0
H1338 H 0.51861 0.06678 0.6024 0.0
H1339 H 0.46372 1.00259 0.60315 0.0
S1340 S 0.55565 0.99661 0.70606 0.0
N1341 N 0.57388 0.03794 0.68718 0.0
N1342 N 0.51498 0.9687 0.68749 0.0
C1343 C 0.51489 0.99274 0.66442 0.0
C1344 C 0.54682 0.03017 0.66416 0.0
C1345 C 0.52453 0.5103 0.6446 0.0
C1346 C 0.50652 0.48159 0.62095 0.0
C1347 C 0.52032 0.54251 0.6445 0.0
C1348 C 0.49832 0.5474 0.62047 0.0
H1349 H 0.54173 0.5076 0.66349 0.0
H1350 H 0.5336 0.56322 0.66391 0.0
S1351 S 0.44869 0.4818 0.55115 0.0
N1352 N 0.4678 0.4607 0.57195 0.0
N1353 N 0.46068 0.52176 0.57086 0.0
C1354 C 0.48118 0.51927 0.59602 0.0
C1355 C 0.48508 0.48623 0.59649 0.0
C1356 C 0.65975 0.2045 0.16074 0.0
C1357 C 0.68069 0.22325 0.13257 0.0
C1358 C 0.62005 0.18441 0.16031 0.0
C1359 C 0.59989 0.18261 0.1318 0.0
H1360 H 0.67396 0.20261 0.18249 0.0
H1361 H 0.6051 0.16752 0.18149 0.0
S1362 S 0.64072 0.23374 0.05408 0.0
N1363 N 0.67795 0.24436 0.07732 0.0
N1364 N 0.60321 0.2061 0.0766 0.0
C1365 C 0.62019 0.20503 0.10491 0.0
C1366 C 0.66071 0.22556 0.10528 0.0
C1367 C 0.44214 0.62208 0.0872 0.0
C1368 C 0.42832 0.60232 0.11676 0.0
C1369 C 0.46267 0.66181 0.08656 0.0
C1370 C 0.47083 0.68329 0.11561 0.0
H1371 H 0.4391 0.60663 0.0647 0.0
H1372 H 0.47453 0.67551 0.06337 0.0
S1373 S 0.43584 0.64458 0.19872 0.0
N1374 N 0.42003 0.60663 0.17512 0.0
N1375 N 0.4589 0.68149 0.17424 0.0
C1376 C 0.45422 0.66378 0.14495 0.0
C1377 C 0.43295 0.62321 0.14546 0.0
C1378 C 0.80553 0.47706 0.10755 0.0
C1379 C 0.80977 0.5049 0.1305 0.0
C1380 C 0.82314 0.45524 0.11218 0.0
C1381 C 0.84576 0.4606 0.13985 0.0
H1382 H 0.79065 0.47387 0.08473 0.0
H1383 H 0.82155 0.43631 0.09275 0.0
S1384 S 0.86024 0.52433 0.21011 0.0
N1385 N 0.83381 0.53238 0.18428 0.0
N1386 N 0.86708 0.49151 0.19268 0.0
C1387 C 0.8472 0.48555 0.16444 0.0
C1388 C 0.82906 0.50759 0.15989 0.0
C1389 C 0.36692 0.81075 0.0749 0.0
C1390 C 0.34071 0.79115 0.10011 0.0
C1391 C 0.40594 0.83143 0.08126 0.0
C1392 C 0.42016 0.8326 0.11283 0.0
H1393 H 0.35723 0.81281 0.05069 0.0
H1394 H 0.42491 0.84874 0.0619 0.0
S1395 S 0.36452 0.78058 0.1858 0.0
N1396 N 0.33244 0.76986 0.1568 0.0
N1397 N 0.40596 0.80875 0.16848 0.0
C1398 C 0.39482 0.81003 0.13737 0.0
C1399 C 0.355 0.78922 0.13105 0.0
C1400 C 0.55055 0.37279 0.07863 0.0
C1401 C 0.57183 0.39731 0.10421 0.0
C1402 C 0.53118 0.33336 0.08291 0.0
C1403 C 0.53182 0.3171 0.11319 0.0
H1404 H 0.54698 0.38427 0.05583 0.0
H1405 H 0.51327 0.31585 0.06311 0.0
S1406 S 0.58811 0.3692 0.18624 0.0
N1407 N 0.59616 0.40279 0.15945 0.0
N1408 N 0.55967 0.3286 0.16769 0.0
C1409 C 0.55575 0.34129 0.13798 0.0
C1410 C 0.57575 0.38147 0.13346 0.0
C1411 C 0.19666 0.56658 0.11074 0.0
C1412 C 0.19369 0.58622 0.13785 0.0
C1413 C 0.21601 0.54625 0.11308 0.0
C1414 C 0.23234 0.54416 0.14288 0.0
H1415 H 0.18182 0.56493 0.08823 0.0
H1416 H 0.21533 0.52959 0.09209 0.0
S1417 S 0.23725 0.5957 0.21942 0.0
N1418 N 0.21247 0.60649 0.19398 0.0
N1419 N 0.24862 0.56786 0.19868 0.0
C1420 C 0.23239 0.5665 0.16927 0.0
C1421 C 0.21304 0.58761 0.1667 0.0
C1422 C 0.8125 0.38925 0.32767 0.0
C1423 C 0.82829 0.40686 0.35771 0.0
C1424 C 0.79198 0.34955 0.32501 0.0
C1425 C 0.7866 0.32621 0.35233 0.0
H1426 H 0.81862 0.40616 0.30565 0.0
H1427 H 0.7826 0.33718 0.30093 0.0
S1428 S 0.81724 0.35961 0.43759 0.0
N1429 N 0.83361 0.39893 0.41587 0.0
N1430 N 0.79441 0.32436 0.41142 0.0
C1431 C 0.79911 0.34384 0.38316 0.0
C1432 C 0.82028 0.38421 0.38568 0.0
C1433 C 0.47353 0.81752 0.34511 0.0
C1434 C 0.47338 0.79844 0.37395 0.0
C1435 C 0.45205 0.83572 0.34274 0.0
C1436 C 0.4292 0.83502 0.36885 0.0
H1437 H 0.4925 0.82098 0.32512 0.0
H1438 H 0.45553 0.85286 0.32131 0.0
S1439 S 0.41299 0.78331 0.44705 0.0
N1440 N 0.44387 0.77542 0.42729 0.0
N1441 N 0.40368 0.80992 0.42251 0.0
C1442 C 0.42569 0.81295 0.39635 0.0
C1443 C 0.4477 0.79451 0.39896 0.0
C1444 C 0.67699 0.45948 0.37875 0.0
C1445 C 0.69483 0.46625 0.34793 0.0
C1446 C 0.63744 0.43784 0.38167 0.0
C1447 C 0.61436 0.42154 0.35403 0.0
H1448 H 0.69324 0.47343 0.40051 0.0
H1449 H 0.62464 0.43607 0.40536 0.0
S1450 S 0.64702 0.42469 0.26883 0.0
N1451 N 0.68645 0.45035 0.28989 0.0
N1452 N 0.61205 0.40945 0.29565 0.0
C1453 C 0.63189 0.42475 0.32368 0.0
C1454 C 0.67219 0.44715 0.32057 0.0
C1455 C 0.18752 0.62469 0.38757 0.0
C1456 C 0.17695 0.60261 0.35893 0.0
C1457 C 0.20505 0.66443 0.38599 0.0
C1458 C 0.21207 0.68331 0.35566 0.0
H1459 H 0.17965 0.61101 0.4113 0.0
H1460 H 0.21047 0.68007 0.40872 0.0
S1461 S 0.19397 0.63786 0.27363 0.0
N1462 N 0.17794 0.60207 0.29964 0.0
N1463 N 0.21119 0.67665 0.2963 0.0
C1464 C 0.20447 0.66148 0.32687 0.0
C1465 C 0.1867 0.62111 0.3286 0.0
C1466 C 0.58813 0.19957 0.36032 0.0
C1467 C 0.59428 0.18273 0.38783 0.0
C1468 C 0.56817 0.21928 0.36313 0.0
C1469 C 0.55376 0.22268 0.39355 0.0
H1470 H 0.59552 0.19437 0.33611 0.0
H1471 H 0.56133 0.22914 0.34091 0.0
S1472 S 0.56991 0.19013 0.47379 0.0
N1473 N 0.59 0.17536 0.4468 0.0
N1474 N 0.55314 0.21312 0.45255 0.0
C1475 C 0.56398 0.20991 0.42177 0.0
C1476 C 0.58399 0.18956 0.41876 0.0
C1477 C 0.38677 0.54122 0.3382 0.0
C1478 C 0.40697 0.5613 0.3661 0.0
C1479 C 0.34713 0.52075 0.33818 0.0
C1480 C 0.32628 0.5191 0.36631 0.0
H1481 H 0.40181 0.53945 0.31695 0.0
H1482 H 0.33299 0.50393 0.31671 0.0
S1483 S 0.36635 0.5723 0.44375 0.0
N1484 N 0.40382 0.58264 0.42093 0.0
N1485 N 0.32905 0.54405 0.4212 0.0
C1486 C 0.34622 0.54215 0.39328 0.0
C1487 C 0.3867 0.56323 0.39312 0.0
C1488 C 0.37568 0.81049 0.84656 0.0
C1489 C 0.39771 0.81875 0.87507 0.0
C1490 C 0.33596 0.79081 0.84822 0.0
C1491 C 0.3171 0.7795 0.87856 0.0
H1492 H 0.38927 0.82155 0.82315 0.0
H1493 H 0.32021 0.78735 0.82587 0.0
S1494 S 0.36254 0.79015 0.9597 0.0
N1495 N 0.39842 0.81083 0.93382 0.0
N1496 N 0.32371 0.77391 0.93726 0.0
C1497 C 0.33899 0.78487 0.90689 0.0
C1498 C 0.37939 0.80462 0.90507 0.0
C1499 C 0.55565 0.37753 0.8877 0.0
C1500 C 0.57715 0.40052 0.86144 0.0
C1501 C 0.53666 0.33787 0.88533 0.0
C1502 C 0.53804 0.31964 0.8564 0.0
H1503 H 0.55162 0.39033 0.90951 0.0
H1504 H 0.51872 0.32159 0.90558 0.0
S1505 S 0.59548 0.36743 0.78255 0.0
N1506 N 0.60258 0.40261 0.80722 0.0
N1507 N 0.56707 0.32799 0.80258 0.0
C1508 C 0.56235 0.3424 0.83111 0.0
C1509 C 0.58184 0.38289 0.83366 0.0
C1510 C 0.17707 0.56097 0.90182 0.0
C1511 C 0.17287 0.57214 0.87032 0.0
C1512 C 0.19709 0.5416 0.90681 0.0
C1513 C 0.21292 0.53197 0.88032 0.0
H1514 H 0.16261 0.565 0.92241 0.0
H1515 H 0.1975 0.53158 0.93129 0.0
S1516 S 0.21407 0.55992 0.79358 0.0
N1517 N 0.18949 0.57635 0.81288 0.0
N1518 N 0.22706 0.53969 0.82191 0.0
C1519 C 0.2116 0.54596 0.84906 0.0
C1520 C 0.19148 0.56603 0.84412 0.0
C1521 C 0.6629 0.19921 0.87969 0.0
C1522 C 0.682 0.2069 0.84941 0.0
C1523 C 0.62317 0.17945 0.88124 0.0
C1524 C 0.60123 0.16745 0.8526 0.0
H1525 H 0.67853 0.20586 0.9025 0.0
H1526 H 0.60953 0.17147 0.90498 0.0
S1527 S 0.63665 0.18526 0.76729 0.0
N1528 N 0.67544 0.20463 0.79001 0.0
N1529 N 0.60072 0.16769 0.79326 0.0
C1530 C 0.61968 0.17767 0.82223 0.0
C1531 C 0.66013 0.19749 0.82055 0.0
C1532 C 0.42883 0.61908 0.83671 0.0
C1533 C 0.42549 0.59898 0.86558 0.0
C1534 C 0.44914 0.65892 0.83638 0.0
C1535 C 0.46684 0.67989 0.86494 0.0
H1536 H 0.41831 0.60398 0.81377 0.0
H1537 H 0.4532 0.67317 0.81309 0.0
S1538 S 0.46002 0.63959 0.94797 0.0
N1539 N 0.43686 0.60216 0.92402 0.0
N1540 N 0.47438 0.67693 0.92393 0.0
C1541 C 0.46022 0.65983 0.89461 0.0
C1542 C 0.4398 0.61934 0.89478 0.0
C1543 C 0.79701 0.45927 0.84596 0.0
C1544 C 0.78563 0.46438 0.87729 0.0
C1545 C 0.81585 0.43859 0.84173 0.0
C1546 C 0.82325 0.42167 0.8685 0.0
H1547 H 0.79404 0.47369 0.82486 0.0
H1548 H 0.82696 0.43799 0.81775 0.0
S1549 S 0.79397 0.42083 0.95444 0.0
N1550 N 0.77898 0.44642 0.93483 0.0
N1551 N 0.81434 0.40744 0.92651 0.0
C1552 C 0.80905 0.42347 0.89931 0.0
C1553 C 0.79012 0.44478 0.90378 0.0
C1554 C 0.2101 0.62992 0.6115 0.0
C1555 C 0.18992 0.61133 0.63985 0.0
C1556 C 0.22883 0.66965 0.60923 0.0
C1557 C 0.22784 0.69208 0.63522 0.0
H1558 H 0.20886 0.61359 0.59007 0.0
H1559 H 0.24176 0.68256 0.58605 0.0
S1560 S 0.18484 0.65648 0.71708 0.0
N1561 N 0.17441 0.61779 0.69596 0.0
N1562 N 0.20993 0.69244 0.69216 0.0
C1563 C 0.21105 0.67374 0.66493 0.0
C1564 C 0.19187 0.63333 0.66708 0.0
C1565 C 0.55535 0.21851 0.68084 0.0
C1566 C 0.54393 0.2294 0.65216 0.0
C1567 C 0.57751 0.20089 0.67931 0.0
C1568 C 0.58937 0.19388 0.64911 0.0
H1569 H 0.54504 0.22124 0.70458 0.0
H1570 H 0.58301 0.19016 0.70169 0.0
S1571 S 0.57233 0.22147 0.56727 0.0
N1572 N 0.55045 0.23577 0.5928 0.0
N1573 N 0.59166 0.20224 0.59029 0.0
C1574 C 0.58102 0.20737 0.62055 0.0
C1575 C 0.55852 0.22539 0.62199 0.0
C1576 C 0.38437 0.58387 0.65573 0.0
C1577 C 0.40381 0.58988 0.62597 0.0
C1578 C 0.34471 0.56132 0.65706 0.0
C1579 C 0.32329 0.54394 0.62865 0.0
H1580 H 0.40008 0.59384 0.67845 0.0
H1581 H 0.33121 0.5552 0.68087 0.0
S1582 S 0.36118 0.55753 0.54387 0.0
N1583 N 0.39908 0.58154 0.56708 0.0
N1584 N 0.32458 0.53976 0.56911 0.0
C1585 C 0.34235 0.55333 0.59828 0.0
C1586 C 0.38267 0.57609 0.59708 0.0
C1587 C 0.8006 0.35133 0.59513 0.0
C1588 C 0.79663 0.32705 0.62132 0.0
C1589 C 0.82228 0.3909 0.59847 0.0
C1590 C 0.8408 0.4074 0.62803 0.0
H1591 H 0.78895 0.33974 0.57126 0.0
H1592 H 0.82682 0.40853 0.57716 0.0
S1593 S 0.83463 0.35753 0.70552 0.0
N1594 N 0.80901 0.32323 0.67928 0.0
N1595 N 0.85032 0.39752 0.68494 0.0
C1596 C 0.8345 0.38386 0.65512 0.0
C1597 C 0.81211 0.34366 0.65195 0.0
C1598 C 0.46811 0.81525 0.61914 0.0
C1599 C 0.47192 0.80091 0.64945 0.0
C1600 C 0.45001 0.83678 0.61698 0.0
C1601 C 0.43433 0.84394 0.64483 0.0
H1602 H 0.4819 0.81265 0.59738 0.0
H1603 H 0.45053 0.85008 0.59386 0.0
S1604 S 0.42998 0.80691 0.72845 0.0
N1605 N 0.45349 0.79087 0.70692 0.0
N1606 N 0.41912 0.8312 0.70253 0.0
C1607 C 0.43428 0.82651 0.67445 0.0
C1608 C 0.45311 0.80491 0.67682 0.0
C1609 C 0.62126 0.44408 0.63792 0.0
C1610 C 0.59751 0.43572 0.61061 0.0
C1611 C 0.66072 0.4652 0.63445 0.0
C1612 C 0.67754 0.4786 0.60358 0.0
H1613 H 0.60925 0.43711 0.66232 0.0
H1614 H 0.67796 0.47338 0.65639 0.0
S1615 S 0.62683 0.45773 0.52397 0.0
N1616 N 0.5928 0.43754 0.55158 0.0
N1617 N 0.6671 0.47675 0.54464 0.0
C1618 C 0.65395 0.46669 0.57572 0.0
C1619 C 0.61378 0.44545 0.57938 0.0
loop_
_geom_bond_atom_site_label_1
_geom_bond_atom_site_label_2
_geom_bond_distance
_geom_bond_site_symmetry_2
_ccdc_geom_bond_type
O0 Tb1 2.292 . S
O0 C3 1.255 . S
Tb1 O0 2.292 . S
Tb1 O17 2.326 . S
Tb1 O19 2.500 . S
Tb1 O20 2.473 . S
Tb1 O23 2.324 . S
Eu2 O6 2.292 . S
Eu2 C7 2.852 . S
Eu2 O18 2.324 . S
Eu2 O22 2.326 . S
Eu2 O24 2.500 . S
Eu2 O25 2.473 . S
C3 O0 1.255 . S
C3 O4 1.247 . S
O4 C3 1.247 . S
C5 O17 1.242 . S
C5 O18 1.258 . S
O6 Eu2 2.292 . S
O6 C8 1.255 . S
C7 Eu2 2.852 . S
C7 C11 1.503 . S
C7 O24 1.273 . S
C7 O25 1.257 . S
C8 O6 1.255 . S
C8 O9 1.247 . S
O9 C8 1.247 . S
C10 O22 1.242 . S
C10 O23 1.258 . S
C11 C7 1.503 . S
C11 C12 1.379 . S
C11 C16 1.392 . S
C12 C11 1.379 . S
C12 C13 1.404 . S
C12 H26 0.929 . S
C13 C12 1.404 . S
C13 C14 1.389 . S
C14 C13 1.389 . S
C14 C15 1.399 . S
C14 H27 0.931 . S
C15 C14 1.399 . S
C15 C16 1.390 . S
C16 C11 1.392 . S
C16 C15 1.390 . S
C16 H28 0.929 . S
O17 Tb1 2.326 . S
O17 C5 1.242 . S
O18 Eu2 2.324 . S
O18 C5 1.258 . S
O19 Tb1 2.500 . S
O19 C21 1.273 . S
O20 Tb1 2.473 . S
O20 C21 1.257 . S
C21 O19 1.273 . S
C21 O20 1.257 . S
O22 Eu2 2.326 . S
O22 C10 1.242 . S
O23 Tb1 2.324 . S
O23 C10 1.258 . S
O24 Eu2 2.500 . S
O24 C7 1.273 . S
O25 Eu2 2.473 . S
O25 C7 1.257 . S
H26 C12 0.929 . S
H27 C14 0.931 . S
H28 C16 0.929 . S
O29 Tb30 2.292 . S
O29 C32 1.255 . S
Tb30 O29 2.292 . S
Tb30 O46 2.326 . S
Tb30 O48 2.500 . S
Tb30 O49 2.473 . S
Tb30 O52 2.324 . S
Eu31 O35 2.292 . S
Eu31 C36 2.852 . S
Eu31 O47 2.324 . S
Eu31 O51 2.326 . S
Eu31 O53 2.500 . S
Eu31 O54 2.473 . S
C32 O29 1.255 . S
C32 O33 1.247 . S
O33 C32 1.247 . S
C34 O46 1.242 . S
C34 O47 1.258 . S
O35 Eu31 2.292 . S
O35 C37 1.255 . S
C36 Eu31 2.852 . S
C36 C40 1.503 . S
C36 O53 1.273 . S
C36 O54 1.257 . S
C37 O35 1.255 . S
C37 O38 1.247 . S
O38 C37 1.247 . S
C39 O51 1.242 . S
C39 O52 1.258 . S
C40 C36 1.503 . S
C40 C41 1.379 . S
C40 C45 1.392 . S
C41 C40 1.379 . S
C41 C42 1.404 . S
C41 H55 0.929 . S
C42 C41 1.404 . S
C42 C43 1.389 . S
C43 C42 1.389 . S
C43 C44 1.399 . S
C43 H56 0.931 . S
C44 C43 1.399 . S
C44 C45 1.390 . S
C45 C40 1.392 . S
C45 C44 1.390 . S
C45 H57 0.929 . S
O46 Tb30 2.326 . S
O46 C34 1.242 . S
O47 Eu31 2.324 . S
O47 C34 1.258 . S
O48 Tb30 2.500 . S
O48 C50 1.273 . S
O49 Tb30 2.473 . S
O49 C50 1.257 . S
C50 O48 1.273 . S
C50 O49 1.257 . S
O51 Eu31 2.326 . S
O51 C39 1.242 . S
O52 Tb30 2.324 . S
O52 C39 1.258 . S
O53 Eu31 2.500 . S
O53 C36 1.273 . S
O54 Eu31 2.473 . S
O54 C36 1.257 . S
H55 C41 0.929 . S
H56 C43 0.931 . S
H57 C45 0.929 . S
O58 Tb59 2.292 . S
O58 C61 1.255 . S
Tb59 O58 2.292 . S
Tb59 O75 2.326 . S
Tb59 O77 2.500 . S
Tb59 O78 2.473 . S
Tb59 O81 2.324 . S
Eu60 O64 2.292 . S
Eu60 C65 2.852 . S
Eu60 O76 2.324 . S
Eu60 O80 2.326 . S
Eu60 O82 2.500 . S
Eu60 O83 2.473 . S
C61 O58 1.255 . S
C61 O62 1.247 . S
O62 C61 1.247 . S
C63 O75 1.242 . S
C63 O76 1.258 . S
O64 Eu60 2.292 . S
O64 C66 1.255 . S
C65 Eu60 2.852 . S
C65 C69 1.503 . S
C65 O82 1.273 . S
C65 O83 1.257 . S
C66 O64 1.255 . S
C66 O67 1.247 . S
O67 C66 1.247 . S
C68 O80 1.242 . S
C68 O81 1.258 . S
C69 C65 1.503 . S
C69 C70 1.379 . S
C69 C74 1.392 . S
C70 C69 1.379 . S
C70 C71 1.404 . S
C70 H84 0.929 . S
C71 C70 1.404 . S
C71 C72 1.389 . S
C72 C71 1.389 . S
C72 C73 1.399 . S
C72 H85 0.931 . S
C73 C72 1.399 . S
C73 C74 1.390 . S
C74 C69 1.392 . S
C74 C73 1.390 . S
C74 H86 0.929 . S
O75 Tb59 2.326 . S
O75 C63 1.242 . S
O76 Eu60 2.324 . S
O76 C63 1.258 . S
O77 Tb59 2.500 . S
O77 C79 1.273 . S
O78 Tb59 2.473 . S
O78 C79 1.257 . S
C79 O77 1.273 . S
C79 O78 1.257 . S
O80 Eu60 2.326 . S
O80 C68 1.242 . S
O81 Tb59 2.324 . S
O81 C68 1.258 . S
O82 Eu60 2.500 . S
O82 C65 1.273 . S
O83 Eu60 2.473 . S
O83 C65 1.257 . S
H84 C70 0.929 . S
H85 C72 0.931 . S
H86 C74 0.929 . S
O87 Tb88 2.292 . S
O87 C90 1.255 . S
Tb88 O87 2.292 . S
Tb88 O104 2.326 . S
Tb88 O106 2.500 . S
Tb88 O107 2.473 . S
Tb88 O110 2.324 . S
Eu89 O93 2.292 . S
Eu89 C94 2.852 . S
Eu89 O105 2.324 . S
Eu89 O109 2.326 . S
Eu89 O111 2.500 . S
Eu89 O112 2.473 . S
C90 O87 1.255 . S
C90 O91 1.247 . S
O91 C90 1.247 . S
C92 O104 1.242 . S
C92 O105 1.258 . S
O93 Eu89 2.292 . S
O93 C95 1.255 . S
C94 Eu89 2.852 . S
C94 C98 1.503 . S
C94 O111 1.273 . S
C94 O112 1.257 . S
C95 O93 1.255 . S
C95 O96 1.247 . S
O96 C95 1.247 . S
C97 O109 1.242 . S
C97 O110 1.258 . S
C98 C94 1.503 . S
C98 C99 1.379 . S
C98 C103 1.392 . S
C99 C98 1.379 . S
C99 C100 1.404 . S
C99 H113 0.929 . S
C100 C99 1.404 . S
C100 C101 1.389 . S
C101 C100 1.389 . S
C101 C102 1.399 . S
C101 H114 0.931 . S
C102 C101 1.399 . S
C102 C103 1.390 . S
C103 C98 1.392 . S
C103 C102 1.390 . S
C103 H115 0.929 . S
O104 Tb88 2.326 . S
O104 C92 1.242 . S
O105 Eu89 2.324 . S
O105 C92 1.258 . S
O106 Tb88 2.500 . S
O106 C108 1.273 . S
O107 Tb88 2.473 . S
O107 C108 1.257 . S
C108 O106 1.273 . S
C108 O107 1.257 . S
O109 Eu89 2.326 . S
O109 C97 1.242 . S
O110 Tb88 2.324 . S
O110 C97 1.258 . S
O111 Eu89 2.500 . S
O111 C94 1.273 . S
O112 Eu89 2.473 . S
O112 C94 1.257 . S
H113 C99 0.929 . S
H114 C101 0.931 . S
H115 C103 0.929 . S
O116 Tb117 2.292 . S
O116 C119 1.255 . S
Tb117 O116 2.292 . S
Tb117 O133 2.326 . S
Tb117 O135 2.500 . S
Tb117 O136 2.473 . S
Tb117 O139 2.324 . S
Eu118 O122 2.292 . S
Eu118 C123 2.852 . S
Eu118 O134 2.324 . S
Eu118 O138 2.326 . S
Eu118 O140 2.500 . S
Eu118 O141 2.473 . S
C119 O116 1.255 . S
C119 O120 1.247 . S
O120 C119 1.247 . S
C121 O133 1.242 . S
C121 O134 1.258 . S
O122 Eu118 2.292 . S
O122 C124 1.255 . S
C123 Eu118 2.852 . S
C123 C127 1.503 . S
C123 O140 1.273 . S
C123 O141 1.257 . S
C124 O122 1.255 . S
C124 O125 1.247 . S
O125 C124 1.247 . S
C126 O138 1.242 . S
C126 O139 1.258 . S
C127 C123 1.503 . S
C127 C128 1.379 . S
C127 C132 1.392 . S
C128 C127 1.379 . S
C128 C129 1.404 . S
C128 H142 0.929 . S
C129 C128 1.404 . S
C129 C130 1.389 . S
C130 C129 1.389 . S
C130 C131 1.399 . S
C130 H143 0.931 . S
C131 C130 1.399 . S
C131 C132 1.390 . S
C132 C127 1.392 . S
C132 C131 1.390 . S
C132 H144 0.929 . S
O133 Tb117 2.326 . S
O133 C121 1.242 . S
O134 Eu118 2.324 . S
O134 C121 1.258 . S
O135 Tb117 2.500 . S
O135 C137 1.273 . S
O136 Tb117 2.473 . S
O136 C137 1.257 . S
C137 O135 1.273 . S
C137 O136 1.257 . S
O138 Eu118 2.326 . S
O138 C126 1.242 . S
O139 Tb117 2.324 . S
O139 C126 1.258 . S
O140 Eu118 2.500 . S
O140 C123 1.273 . S
O141 Eu118 2.473 . S
O141 C123 1.257 . S
H142 C128 0.929 . S
H143 C130 0.931 . S
H144 C132 0.929 . S
O145 Tb146 2.292 . S
O145 C148 1.255 . S
Tb146 O145 2.292 . S
Tb146 O162 2.326 . S
Tb146 O164 2.500 . S
Tb146 O165 2.473 . S
Tb146 O168 2.324 . S
Eu147 O151 2.292 . S
Eu147 C152 2.852 . S
Eu147 O163 2.324 . S
Eu147 O167 2.326 . S
Eu147 O169 2.500 . S
Eu147 O170 2.473 . S
C148 O145 1.255 . S
C148 O149 1.247 . S
O149 C148 1.247 . S
C150 O162 1.242 . S
C150 O163 1.258 . S
O151 Eu147 2.292 . S
O151 C153 1.255 . S
C152 Eu147 2.852 . S
C152 C156 1.503 . S
C152 O169 1.273 . S
C152 O170 1.257 . S
C153 O151 1.255 . S
C153 O154 1.247 . S
O154 C153 1.247 . S
C155 O167 1.242 . S
C155 O168 1.258 . S
C156 C152 1.503 . S
C156 C157 1.379 . S
C156 C161 1.392 . S
C157 C156 1.379 . S
C157 C158 1.404 . S
C157 H171 0.929 . S
C158 C157 1.404 . S
C158 C159 1.389 . S
C159 C158 1.389 . S
C159 C160 1.399 . S
C159 H172 0.931 . S
C160 C159 1.399 . S
C160 C161 1.390 . S
C161 C156 1.392 . S
C161 C160 1.390 . S
C161 H173 0.929 . S
O162 Tb146 2.326 . S
O162 C150 1.242 . S
O163 Eu147 2.324 . S
O163 C150 1.258 . S
O164 Tb146 2.500 . S
O164 C166 1.273 . S
O165 Tb146 2.473 . S
O165 C166 1.257 . S
C166 O164 1.273 . S
C166 O165 1.257 . S
O167 Eu147 2.326 . S
O167 C155 1.242 . S
O168 Tb146 2.324 . S
O168 C155 1.258 . S
O169 Eu147 2.500 . S
O169 C152 1.273 . S
O170 Eu147 2.473 . S
O170 C152 1.257 . S
H171 C157 0.929 . S
H172 C159 0.931 . S
H173 C161 0.929 . S
O174 Tb175 2.292 . S
O174 C177 1.255 . S
Tb175 O174 2.292 . S
Tb175 O191 2.326 . S
Tb175 O193 2.500 . S
Tb175 O194 2.473 . S
Tb175 O197 2.324 . S
Eu176 O180 2.292 . S
Eu176 C181 2.852 . S
Eu176 O192 2.324 . S
Eu176 O196 2.326 . S
Eu176 O198 2.500 . S
Eu176 O199 2.473 . S
C177 O174 1.255 . S
C177 O178 1.247 . S
O178 C177 1.247 . S
C179 O191 1.242 . S
C179 O192 1.258 . S
O180 Eu176 2.292 . S
O180 C182 1.255 . S
C181 Eu176 2.852 . S
C181 C185 1.503 . S
C181 O198 1.273 . S
C181 O199 1.257 . S
C182 O180 1.255 . S
C182 O183 1.247 . S
O183 C182 1.247 . S
C184 O196 1.242 . S
C184 O197 1.258 . S
C185 C181 1.503 . S
C185 C186 1.379 . S
C185 C190 1.392 . S
C186 C185 1.379 . S
C186 C187 1.404 . S
C186 H200 0.929 . S
C187 C186 1.404 . S
C187 C188 1.389 . S
C188 C187 1.389 . S
C188 C189 1.399 . S
C188 H201 0.931 . S
C189 C188 1.399 . S
C189 C190 1.390 . S
C190 C185 1.392 . S
C190 C189 1.390 . S
C190 H202 0.929 . S
O191 Tb175 2.326 . S
O191 C179 1.242 . S
O192 Eu176 2.324 . S
O192 C179 1.258 . S
O193 Tb175 2.500 . S
O193 C195 1.273 . S
O194 Tb175 2.473 . S
O194 C195 1.257 . S
C195 O193 1.273 . S
C195 O194 1.257 . S
O196 Eu176 2.326 . S
O196 C184 1.242 . S
O197 Tb175 2.324 . S
O197 C184 1.258 . S
O198 Eu176 2.500 . S
O198 C181 1.273 . S
O199 Eu176 2.473 . S
O199 C181 1.257 . S
H200 C186 0.929 . S
H201 C188 0.931 . S
H202 C190 0.929 . S
O203 Tb204 2.292 . S
O203 C206 1.255 . S
Tb204 O203 2.292 . S
Tb204 O220 2.326 . S
Tb204 O222 2.500 . S
Tb204 O223 2.473 . S
Tb204 O226 2.324 . S
Eu205 O209 2.292 . S
Eu205 C210 2.852 . S
Eu205 O221 2.324 . S
Eu205 O225 2.326 . S
Eu205 O227 2.500 . S
Eu205 O228 2.473 . S
C206 O203 1.255 . S
C206 O207 1.247 . S
O207 C206 1.247 . S
C208 O220 1.242 . S
C208 O221 1.258 . S
O209 Eu205 2.292 . S
O209 C211 1.255 . S
C210 Eu205 2.852 . S
C210 C214 1.503 . S
C210 O227 1.273 . S
C210 O228 1.257 . S
C211 O209 1.255 . S
C211 O212 1.247 . S
O212 C211 1.247 . S
C213 O225 1.242 . S
C213 O226 1.258 . S
C214 C210 1.503 . S
C214 C215 1.379 . S
C214 C219 1.392 . S
C215 C214 1.379 . S
C215 C216 1.404 . S
C215 H229 0.929 . S
C216 C215 1.404 . S
C216 C217 1.389 . S
C217 C216 1.389 . S
C217 C218 1.399 . S
C217 H230 0.931 . S
C218 C217 1.399 . S
C218 C219 1.390 . S
C219 C214 1.392 . S
C219 C218 1.390 . S
C219 H231 0.929 . S
O220 Tb204 2.326 . S
O220 C208 1.242 . S
O221 Eu205 2.324 . S
O221 C208 1.258 . S
O222 Tb204 2.500 . S
O222 C224 1.273 . S
O223 Tb204 2.473 . S
O223 C224 1.257 . S
C224 O222 1.273 . S
C224 O223 1.257 . S
O225 Eu205 2.326 . S
O225 C213 1.242 . S
O226 Tb204 2.324 . S
O226 C213 1.258 . S
O227 Eu205 2.500 . S
O227 C210 1.273 . S
O228 Eu205 2.473 . S
O228 C210 1.257 . S
H229 C215 0.929 . S
H230 C217 0.931 . S
H231 C219 0.929 . S
O232 Tb233 2.292 . S
O232 C235 1.255 . S
Tb233 O232 2.292 . S
Tb233 O249 2.326 . S
Tb233 O251 2.500 . S
Tb233 O252 2.473 . S
Tb233 O255 2.324 . S
Eu234 O238 2.292 . S
Eu234 C239 2.852 . S
Eu234 O250 2.324 . S
Eu234 O254 2.326 . S
Eu234 O256 2.500 . S
Eu234 O257 2.473 . S
C235 O232 1.255 . S
C235 O236 1.247 . S
O236 C235 1.247 . S
C237 O249 1.242 . S
C237 O250 1.258 . S
O238 Eu234 2.292 . S
O238 C240 1.255 . S
C239 Eu234 2.852 . S
C239 C243 1.503 . S
C239 O256 1.273 . S
C239 O257 1.257 . S
C240 O238 1.255 . S
C240 O241 1.247 . S
O241 C240 1.247 . S
C242 O254 1.242 . S
C242 O255 1.258 . S
C243 C239 1.503 . S
C243 C244 1.379 . S
C243 C248 1.392 . S
C244 C243 1.379 . S
C244 C245 1.404 . S
C244 H258 0.929 . S
C245 C244 1.404 . S
C245 C246 1.389 . S
C246 C245 1.389 . S
C246 C247 1.399 . S
C246 H259 0.931 . S
C247 C246 1.399 . S
C247 C248 1.390 . S
C248 C243 1.392 . S
C248 C247 1.390 . S
C248 H260 0.929 . S
O249 Tb233 2.326 . S
O249 C237 1.242 . S
O250 Eu234 2.324 . S
O250 C237 1.258 . S
O251 Tb233 2.500 . S
O251 C253 1.273 . S
O252 Tb233 2.473 . S
O252 C253 1.257 . S
C253 O251 1.273 . S
C253 O252 1.257 . S
O254 Eu234 2.326 . S
O254 C242 1.242 . S
O255 Tb233 2.324 . S
O255 C242 1.258 . S
O256 Eu234 2.500 . S
O256 C239 1.273 . S
O257 Eu234 2.473 . S
O257 C239 1.257 . S
H258 C244 0.929 . S
H259 C246 0.931 . S
H260 C248 0.929 . S
O261 Tb262 2.292 . S
O261 C264 1.255 . S
Tb262 O261 2.292 . S
Tb262 O278 2.326 . S
Tb262 O280 2.500 . S
Tb262 O281 2.473 . S
Tb262 O284 2.324 . S
Eu263 O267 2.292 . S
Eu263 C268 2.852 . S
Eu263 O279 2.324 . S
Eu263 O283 2.326 . S
Eu263 O285 2.500 . S
Eu263 O286 2.473 . S
C264 O261 1.255 . S
C264 O265 1.247 . S
O265 C264 1.247 . S
C266 O278 1.242 . S
C266 O279 1.258 . S
O267 Eu263 2.292 . S
O267 C269 1.255 . S
C268 Eu263 2.852 . S
C268 C272 1.503 . S
C268 O285 1.273 . S
C268 O286 1.257 . S
C269 O267 1.255 . S
C269 O270 1.247 . S
O270 C269 1.247 . S
C271 O283 1.242 . S
C271 O284 1.258 . S
C272 C268 1.503 . S
C272 C273 1.379 . S
C272 C277 1.392 . S
C273 C272 1.379 . S
C273 C274 1.404 . S
C273 H287 0.929 . S
C274 C273 1.404 . S
C274 C275 1.389 . S
C275 C274 1.389 . S
C275 C276 1.399 . S
C275 H288 0.931 . S
C276 C275 1.399 . S
C276 C277 1.390 . S
C277 C272 1.392 . S
C277 C276 1.390 . S
C277 H289 0.929 . S
O278 Tb262 2.326 . S
O278 C266 1.242 . S
O279 Eu263 2.324 . S
O279 C266 1.258 . S
O280 Tb262 2.500 . S
O280 C282 1.273 . S
O281 Tb262 2.473 . S
O281 C282 1.257 . S
C282 O280 1.273 . S
C282 O281 1.257 . S
O283 Eu263 2.326 . S
O283 C271 1.242 . S
O284 Tb262 2.324 . S
O284 C271 1.258 . S
O285 Eu263 2.500 . S
O285 C268 1.273 . S
O286 Eu263 2.473 . S
O286 C268 1.257 . S
H287 C273 0.929 . S
H288 C275 0.931 . S
H289 C277 0.929 . S
O290 Tb291 2.292 . S
O290 C293 1.255 . S
Tb291 O290 2.292 . S
Tb291 O307 2.326 . S
Tb291 O309 2.500 . S
Tb291 O310 2.473 . S
Tb291 O313 2.324 . S
Eu292 O296 2.292 . S
Eu292 C297 2.852 . S
Eu292 O308 2.324 . S
Eu292 O312 2.326 . S
Eu292 O314 2.500 . S
Eu292 O315 2.473 . S
C293 O290 1.255 . S
C293 O294 1.247 . S
O294 C293 1.247 . S
C295 O307 1.242 . S
C295 O308 1.258 . S
O296 Eu292 2.292 . S
O296 C298 1.255 . S
C297 Eu292 2.852 . S
C297 C301 1.503 . S
C297 O314 1.273 . S
C297 O315 1.257 . S
C298 O296 1.255 . S
C298 O299 1.247 . S
O299 C298 1.247 . S
C300 O312 1.242 . S
C300 O313 1.258 . S
C301 C297 1.503 . S
C301 C302 1.379 . S
C301 C306 1.392 . S
C302 C301 1.379 . S
C302 C303 1.404 . S
C302 H316 0.929 . S
C303 C302 1.404 . S
C303 C304 1.389 . S
C304 C303 1.389 . S
C304 C305 1.399 . S
C304 H317 0.931 . S
C305 C304 1.399 . S
C305 C306 1.390 . S
C306 C301 1.392 . S
C306 C305 1.390 . S
C306 H318 0.929 . S
O307 Tb291 2.326 . S
O307 C295 1.242 . S
O308 Eu292 2.324 . S
O308 C295 1.258 . S
O309 Tb291 2.500 . S
O309 C311 1.273 . S
O310 Tb291 2.473 . S
O310 C311 1.257 . S
C311 O309 1.273 . S
C311 O310 1.257 . S
O312 Eu292 2.326 . S
O312 C300 1.242 . S
O313 Tb291 2.324 . S
O313 C300 1.258 . S
O314 Eu292 2.500 . S
O314 C297 1.273 . S
O315 Eu292 2.473 . S
O315 C297 1.257 . S
H316 C302 0.929 . S
H317 C304 0.931 . S
H318 C306 0.929 . S
O319 Tb320 2.292 . S
O319 C322 1.255 . S
Tb320 O319 2.292 . S
Tb320 O336 2.326 . S
Tb320 O338 2.500 . S
Tb320 O339 2.473 . S
Tb320 O342 2.324 . S
Eu321 O325 2.292 . S
Eu321 C326 2.852 . S
Eu321 O337 2.324 . S
Eu321 O341 2.326 . S
Eu321 O343 2.500 . S
Eu321 O344 2.473 . S
C322 O319 1.255 . S
C322 O323 1.247 . S
O323 C322 1.247 . S
C324 O336 1.242 . S
C324 O337 1.258 . S
O325 Eu321 2.292 . S
O325 C327 1.255 . S
C326 Eu321 2.852 . S
C326 C330 1.503 . S
C326 O343 1.273 . S
C326 O344 1.257 . S
C327 O325 1.255 . S
C327 O328 1.247 . S
O328 C327 1.247 . S
C329 O341 1.242 . S
C329 O342 1.258 . S
C330 C326 1.503 . S
C330 C331 1.379 . S
C330 C335 1.392 . S
C331 C330 1.379 . S
C331 C332 1.404 . S
C331 H345 0.929 . S
C332 C331 1.404 . S
C332 C333 1.389 . S
C333 C332 1.389 . S
C333 C334 1.399 . S
C333 H346 0.931 . S
C334 C333 1.399 . S
C334 C335 1.390 . S
C335 C330 1.392 . S
C335 C334 1.390 . S
C335 H347 0.929 . S
O336 Tb320 2.326 . S
O336 C324 1.242 . S
O337 Eu321 2.324 . S
O337 C324 1.258 . S
O338 Tb320 2.500 . S
O338 C340 1.273 . S
O339 Tb320 2.473 . S
O339 C340 1.257 . S
C340 O338 1.273 . S
C340 O339 1.257 . S
O341 Eu321 2.326 . S
O341 C329 1.242 . S
O342 Tb320 2.324 . S
O342 C329 1.258 . S
O343 Eu321 2.500 . S
O343 C326 1.273 . S
O344 Eu321 2.473 . S
O344 C326 1.257 . S
H345 C331 0.929 . S
H346 C333 0.931 . S
H347 C335 0.929 . S
O348 Tb349 2.292 . S
O348 C351 1.255 . S
Tb349 O348 2.292 . S
Tb349 O365 2.326 . S
Tb349 O367 2.500 . S
Tb349 O368 2.473 . S
Tb349 O371 2.324 . S
Eu350 O354 2.292 . S
Eu350 C355 2.852 . S
Eu350 O366 2.324 . S
Eu350 O370 2.326 . S
Eu350 O372 2.500 . S
Eu350 O373 2.473 . S
C351 O348 1.255 . S
C351 O352 1.247 . S
O352 C351 1.247 . S
C353 O365 1.242 . S
C353 O366 1.258 . S
O354 Eu350 2.292 . S
O354 C356 1.255 . S
C355 Eu350 2.852 . S
C355 C359 1.503 . S
C355 O372 1.273 . S
C355 O373 1.257 . S
C356 O354 1.255 . S
C356 O357 1.247 . S
O357 C356 1.247 . S
C358 O370 1.242 . S
C358 O371 1.258 . S
C359 C355 1.503 . S
C359 C360 1.379 . S
C359 C364 1.392 . S
C360 C359 1.379 . S
C360 C361 1.404 . S
C360 H374 0.929 . S
C361 C360 1.404 . S
C361 C362 1.389 . S
C362 C361 1.389 . S
C362 C363 1.399 . S
C362 H375 0.931 . S
C363 C362 1.399 . S
C363 C364 1.390 . S
C364 C359 1.392 . S
C364 C363 1.390 . S
C364 H376 0.929 . S
O365 Tb349 2.326 . S
O365 C353 1.242 . S
O366 Eu350 2.324 . S
O366 C353 1.258 . S
O367 Tb349 2.500 . S
O367 C369 1.273 . S
O368 Tb349 2.473 . S
O368 C369 1.257 . S
C369 O367 1.273 . S
C369 O368 1.257 . S
O370 Eu350 2.326 . S
O370 C358 1.242 . S
O371 Tb349 2.324 . S
O371 C358 1.258 . S
O372 Eu350 2.500 . S
O372 C355 1.273 . S
O373 Eu350 2.473 . S
O373 C355 1.257 . S
H374 C360 0.929 . S
H375 C362 0.931 . S
H376 C364 0.929 . S
O377 Tb378 2.292 . S
O377 C380 1.255 . S
Tb378 O377 2.292 . S
Tb378 O394 2.326 . S
Tb378 O396 2.500 . S
Tb378 O397 2.473 . S
Tb378 O400 2.324 . S
Eu379 O383 2.292 . S
Eu379 C384 2.852 . S
Eu379 O395 2.324 . S
Eu379 O399 2.326 . S
Eu379 O401 2.500 . S
Eu379 O402 2.473 . S
C380 O377 1.255 . S
C380 O381 1.247 . S
O381 C380 1.247 . S
C382 O394 1.242 . S
C382 O395 1.258 . S
O383 Eu379 2.292 . S
O383 C385 1.255 . S
C384 Eu379 2.852 . S
C384 C388 1.503 . S
C384 O401 1.273 . S
C384 O402 1.257 . S
C385 O383 1.255 . S
C385 O386 1.247 . S
O386 C385 1.247 . S
C387 O399 1.242 . S
C387 O400 1.258 . S
C388 C384 1.503 . S
C388 C389 1.379 . S
C388 C393 1.392 . S
C389 C388 1.379 . S
C389 C390 1.404 . S
C389 H403 0.929 . S
C390 C389 1.404 . S
C390 C391 1.389 . S
C391 C390 1.389 . S
C391 C392 1.399 . S
C391 H404 0.931 . S
C392 C391 1.399 . S
C392 C393 1.390 . S
C393 C388 1.392 . S
C393 C392 1.390 . S
C393 H405 0.929 . S
O394 Tb378 2.326 . S
O394 C382 1.242 . S
O395 Eu379 2.324 . S
O395 C382 1.258 . S
O396 Tb378 2.500 . S
O396 C398 1.273 . S
O397 Tb378 2.473 . S
O397 C398 1.257 . S
C398 O396 1.273 . S
C398 O397 1.257 . S
O399 Eu379 2.326 . S
O399 C387 1.242 . S
O400 Tb378 2.324 . S
O400 C387 1.258 . S
O401 Eu379 2.500 . S
O401 C384 1.273 . S
O402 Eu379 2.473 . S
O402 C384 1.257 . S
H403 C389 0.929 . S
H404 C391 0.931 . S
H405 C393 0.929 . S
O406 Tb407 2.292 . S
O406 C409 1.255 . S
Tb407 O406 2.292 . S
Tb407 O423 2.326 . S
Tb407 O425 2.500 . S
Tb407 O426 2.473 . S
Tb407 O429 2.324 . S
Eu408 O412 2.292 . S
Eu408 C413 2.852 . S
Eu408 O424 2.324 . S
Eu408 O428 2.326 . S
Eu408 O430 2.500 . S
Eu408 O431 2.473 . S
C409 O406 1.255 . S
C409 O410 1.247 . S
O410 C409 1.247 . S
C411 O423 1.242 . S
C411 O424 1.258 . S
O412 Eu408 2.292 . S
O412 C414 1.255 . S
C413 Eu408 2.852 . S
C413 C417 1.503 . S
C413 O430 1.273 . S
C413 O431 1.257 . S
C414 O412 1.255 . S
C414 O415 1.247 . S
O415 C414 1.247 . S
C416 O428 1.242 . S
C416 O429 1.258 . S
C417 C413 1.503 . S
C417 C418 1.379 . S
C417 C422 1.392 . S
C418 C417 1.379 . S
C418 C419 1.404 . S
C418 H432 0.929 . S
C419 C418 1.404 . S
C419 C420 1.389 . S
C420 C419 1.389 . S
C420 C421 1.399 . S
C420 H433 0.931 . S
C421 C420 1.399 . S
C421 C422 1.390 . S
C422 C417 1.392 . S
C422 C421 1.390 . S
C422 H434 0.929 . S
O423 Tb407 2.326 . S
O423 C411 1.242 . S
O424 Eu408 2.324 . S
O424 C411 1.258 . S
O425 Tb407 2.500 . S
O425 C427 1.273 . S
O426 Tb407 2.473 . S
O426 C427 1.257 . S
C427 O425 1.273 . S
C427 O426 1.257 . S
O428 Eu408 2.326 . S
O428 C416 1.242 . S
O429 Tb407 2.324 . S
O429 C416 1.258 . S
O430 Eu408 2.500 . S
O430 C413 1.273 . S
O431 Eu408 2.473 . S
O431 C413 1.257 . S
H432 C418 0.929 . S
H433 C420 0.931 . S
H434 C422 0.929 . S
O435 Tb436 2.292 . S
O435 C438 1.255 . S
Tb436 O435 2.292 . S
Tb436 O452 2.326 . S
Tb436 O454 2.500 . S
Tb436 O455 2.473 . S
Tb436 O458 2.324 . S
Eu437 O441 2.292 . S
Eu437 C442 2.852 . S
Eu437 O453 2.324 . S
Eu437 O457 2.326 . S
Eu437 O459 2.500 . S
Eu437 O460 2.473 . S
C438 O435 1.255 . S
C438 O439 1.247 . S
O439 C438 1.247 . S
C440 O452 1.242 . S
C440 O453 1.258 . S
O441 Eu437 2.292 . S
O441 C443 1.255 . S
C442 Eu437 2.852 . S
C442 C446 1.503 . S
C442 O459 1.273 . S
C442 O460 1.257 . S
C443 O441 1.255 . S
C443 O444 1.247 . S
O444 C443 1.247 . S
C445 O457 1.242 . S
C445 O458 1.258 . S
C446 C442 1.503 . S
C446 C447 1.379 . S
C446 C451 1.392 . S
C447 C446 1.379 . S
C447 C448 1.404 . S
C447 H461 0.929 . S
C448 C447 1.404 . S
C448 C449 1.389 . S
C449 C448 1.389 . S
C449 C450 1.399 . S
C449 H462 0.931 . S
C450 C449 1.399 . S
C450 C451 1.390 . S
C451 C446 1.392 . S
C451 C450 1.390 . S
C451 H463 0.929 . S
O452 Tb436 2.326 . S
O452 C440 1.242 . S
O453 Eu437 2.324 . S
O453 C440 1.258 . S
O454 Tb436 2.500 . S
O454 C456 1.273 . S
O455 Tb436 2.473 . S
O455 C456 1.257 . S
C456 O454 1.273 . S
C456 O455 1.257 . S
O457 Eu437 2.326 . S
O457 C445 1.242 . S
O458 Tb436 2.324 . S
O458 C445 1.258 . S
O459 Eu437 2.500 . S
O459 C442 1.273 . S
O460 Eu437 2.473 . S
O460 C442 1.257 . S
H461 C447 0.929 . S
H462 C449 0.931 . S
H463 C451 0.929 . S
O464 Tb465 2.292 . S
O464 C467 1.255 . S
Tb465 O464 2.292 . S
Tb465 O481 2.326 . S
Tb465 O483 2.500 . S
Tb465 O484 2.473 . S
Tb465 O487 2.324 . S
Eu466 O470 2.292 . S
Eu466 C471 2.852 . S
Eu466 O482 2.324 . S
Eu466 O486 2.326 . S
Eu466 O488 2.500 . S
Eu466 O489 2.473 . S
C467 O464 1.255 . S
C467 O468 1.247 . S
O468 C467 1.247 . S
C469 O481 1.242 . S
C469 O482 1.258 . S
O470 Eu466 2.292 . S
O470 C472 1.255 . S
C471 Eu466 2.852 . S
C471 C475 1.503 . S
C471 O488 1.273 . S
C471 O489 1.257 . S
C472 O470 1.255 . S
C472 O473 1.247 . S
O473 C472 1.247 . S
C474 O486 1.242 . S
C474 O487 1.258 . S
C475 C471 1.503 . S
C475 C476 1.379 . S
C475 C480 1.392 . S
C476 C475 1.379 . S
C476 C477 1.404 . S
C476 H490 0.929 . S
C477 C476 1.404 . S
C477 C478 1.389 . S
C478 C477 1.389 . S
C478 C479 1.399 . S
C478 H491 0.931 . S
C479 C478 1.399 . S
C479 C480 1.390 . S
C480 C475 1.392 . S
C480 C479 1.390 . S
C480 H492 0.929 . S
O481 Tb465 2.326 . S
O481 C469 1.242 . S
O482 Eu466 2.324 . S
O482 C469 1.258 . S
O483 Tb465 2.500 . S
O483 C485 1.273 . S
O484 Tb465 2.473 . S
O484 C485 1.257 . S
C485 O483 1.273 . S
C485 O484 1.257 . S
O486 Eu466 2.326 . S
O486 C474 1.242 . S
O487 Tb465 2.324 . S
O487 C474 1.258 . S
O488 Eu466 2.500 . S
O488 C471 1.273 . S
O489 Eu466 2.473 . S
O489 C471 1.257 . S
H490 C476 0.929 . S
H491 C478 0.931 . S
H492 C480 0.929 . S
O493 Tb494 2.292 . S
O493 C496 1.255 . S
Tb494 O493 2.292 . S
Tb494 O510 2.326 . S
Tb494 O512 2.500 . S
Tb494 O513 2.473 . S
Tb494 O516 2.324 . S
Eu495 O499 2.292 . S
Eu495 C500 2.852 . S
Eu495 O511 2.324 . S
Eu495 O515 2.326 . S
Eu495 O517 2.500 . S
Eu495 O518 2.473 . S
C496 O493 1.255 . S
C496 O497 1.247 . S
O497 C496 1.247 . S
C498 O510 1.242 . S
C498 O511 1.258 . S
O499 Eu495 2.292 . S
O499 C501 1.255 . S
C500 Eu495 2.852 . S
C500 C504 1.503 . S
C500 O517 1.273 . S
C500 O518 1.257 . S
C501 O499 1.255 . S
C501 O502 1.247 . S
O502 C501 1.247 . S
C503 O515 1.242 . S
C503 O516 1.258 . S
C504 C500 1.503 . S
C504 C505 1.379 . S
C504 C509 1.392 . S
C505 C504 1.379 . S
C505 C506 1.404 . S
C505 H519 0.929 . S
C506 C505 1.404 . S
C506 C507 1.389 . S
C507 C506 1.389 . S
C507 C508 1.399 . S
C507 H520 0.931 . S
C508 C507 1.399 . S
C508 C509 1.390 . S
C509 C504 1.392 . S
C509 C508 1.390 . S
C509 H521 0.929 . S
O510 Tb494 2.326 . S
O510 C498 1.242 . S
O511 Eu495 2.324 . S
O511 C498 1.258 . S
O512 Tb494 2.500 . S
O512 C514 1.273 . S
O513 Tb494 2.473 . S
O513 C514 1.257 . S
C514 O512 1.273 . S
C514 O513 1.257 . S
O515 Eu495 2.326 . S
O515 C503 1.242 . S
O516 Tb494 2.324 . S
O516 C503 1.258 . S
O517 Eu495 2.500 . S
O517 C500 1.273 . S
O518 Eu495 2.473 . S
O518 C500 1.257 . S
H519 C505 0.929 . S
H520 C507 0.931 . S
H521 C509 0.929 . S
O522 Tb523 2.292 . S
O522 C525 1.255 . S
Tb523 O522 2.292 . S
Tb523 O539 2.326 . S
Tb523 O541 2.500 . S
Tb523 O542 2.473 . S
Tb523 O545 2.324 . S
Eu524 O528 2.292 . S
Eu524 C529 2.852 . S
Eu524 O540 2.324 . S
Eu524 O544 2.326 . S
Eu524 O546 2.500 . S
Eu524 O547 2.473 . S
C525 O522 1.255 . S
C525 O526 1.247 . S
O526 C525 1.247 . S
C527 O539 1.242 . S
C527 O540 1.258 . S
O528 Eu524 2.292 . S
O528 C530 1.255 . S
C529 Eu524 2.852 . S
C529 C533 1.503 . S
C529 O546 1.273 . S
C529 O547 1.257 . S
C530 O528 1.255 . S
C530 O531 1.247 . S
O531 C530 1.247 . S
C532 O544 1.242 . S
C532 O545 1.258 . S
C533 C529 1.503 . S
C533 C534 1.379 . S
C533 C538 1.392 . S
C534 C533 1.379 . S
C534 C535 1.404 . S
C534 H548 0.929 . S
C535 C534 1.404 . S
C535 C536 1.389 . S
C536 C535 1.389 . S
C536 C537 1.399 . S
C536 H549 0.931 . S
C537 C536 1.399 . S
C537 C538 1.390 . S
C538 C533 1.392 . S
C538 C537 1.390 . S
C538 H550 0.929 . S
O539 Tb523 2.326 . S
O539 C527 1.242 . S
O540 Eu524 2.324 . S
O540 C527 1.258 . S
O541 Tb523 2.500 . S
O541 C543 1.273 . S
O542 Tb523 2.473 . S
O542 C543 1.257 . S
C543 O541 1.273 . S
C543 O542 1.257 . S
O544 Eu524 2.326 . S
O544 C532 1.242 . S
O545 Tb523 2.324 . S
O545 C532 1.258 . S
O546 Eu524 2.500 . S
O546 C529 1.273 . S
O547 Eu524 2.473 . S
O547 C529 1.257 . S
H548 C534 0.929 . S
H549 C536 0.931 . S
H550 C538 0.929 . S
O551 Tb552 2.292 . S
O551 C554 1.255 . S
Tb552 O551 2.292 . S
Tb552 O568 2.326 . S
Tb552 O570 2.500 . S
Tb552 O571 2.473 . S
Tb552 O574 2.324 . S
Eu553 O557 2.292 . S
Eu553 C558 2.852 . S
Eu553 O569 2.324 . S
Eu553 O573 2.326 . S
Eu553 O575 2.500 . S
Eu553 O576 2.473 . S
C554 O551 1.255 . S
C554 O555 1.247 . S
O555 C554 1.247 . S
C556 O568 1.242 . S
C556 O569 1.258 . S
O557 Eu553 2.292 . S
O557 C559 1.255 . S
C558 Eu553 2.852 . S
C558 C562 1.503 . S
C558 O575 1.273 . S
C558 O576 1.257 . S
C559 O557 1.255 . S
C559 O560 1.247 . S
O560 C559 1.247 . S
C561 O573 1.242 . S
C561 O574 1.258 . S
C562 C558 1.503 . S
C562 C563 1.379 . S
C562 C567 1.392 . S
C563 C562 1.379 . S
C563 C564 1.404 . S
C563 H577 0.929 . S
C564 C563 1.404 . S
C564 C565 1.389 . S
C565 C564 1.389 . S
C565 C566 1.399 . S
C565 H578 0.931 . S
C566 C565 1.399 . S
C566 C567 1.390 . S
C567 C562 1.392 . S
C567 C566 1.390 . S
C567 H579 0.929 . S
O568 Tb552 2.326 . S
O568 C556 1.242 . S
O569 Eu553 2.324 . S
O569 C556 1.258 . S
O570 Tb552 2.500 . S
O570 C572 1.273 . S
O571 Tb552 2.473 . S
O571 C572 1.257 . S
C572 O570 1.273 . S
C572 O571 1.257 . S
O573 Eu553 2.326 . S
O573 C561 1.242 . S
O574 Tb552 2.324 . S
O574 C561 1.258 . S
O575 Eu553 2.500 . S
O575 C558 1.273 . S
O576 Eu553 2.473 . S
O576 C558 1.257 . S
H577 C563 0.929 . S
H578 C565 0.931 . S
H579 C567 0.929 . S
O580 Tb581 2.292 . S
O580 C583 1.255 . S
Tb581 O580 2.292 . S
Tb581 O597 2.326 . S
Tb581 O599 2.500 . S
Tb581 O600 2.473 . S
Tb581 O603 2.324 . S
Eu582 O586 2.292 . S
Eu582 C587 2.852 . S
Eu582 O598 2.324 . S
Eu582 O602 2.326 . S
Eu582 O604 2.500 . S
Eu582 O605 2.473 . S
C583 O580 1.255 . S
C583 O584 1.247 . S
O584 C583 1.247 . S
C585 O597 1.242 . S
C585 O598 1.258 . S
O586 Eu582 2.292 . S
O586 C588 1.255 . S
C587 Eu582 2.852 . S
C587 C591 1.503 . S
C587 O604 1.273 . S
C587 O605 1.257 . S
C588 O586 1.255 . S
C588 O589 1.247 . S
O589 C588 1.247 . S
C590 O602 1.242 . S
C590 O603 1.258 . S
C591 C587 1.503 . S
C591 C592 1.379 . S
C591 C596 1.392 . S
C592 C591 1.379 . S
C592 C593 1.404 . S
C592 H606 0.929 . S
C593 C592 1.404 . S
C593 C594 1.389 . S
C594 C593 1.389 . S
C594 C595 1.399 . S
C594 H607 0.931 . S
C595 C594 1.399 . S
C595 C596 1.390 . S
C596 C591 1.392 . S
C596 C595 1.390 . S
C596 H608 0.929 . S
O597 Tb581 2.326 . S
O597 C585 1.242 . S
O598 Eu582 2.324 . S
O598 C585 1.258 . S
O599 Tb581 2.500 . S
O599 C601 1.273 . S
O600 Tb581 2.473 . S
O600 C601 1.257 . S
C601 O599 1.273 . S
C601 O600 1.257 . S
O602 Eu582 2.326 . S
O602 C590 1.242 . S
O603 Tb581 2.324 . S
O603 C590 1.258 . S
O604 Eu582 2.500 . S
O604 C587 1.273 . S
O605 Eu582 2.473 . S
O605 C587 1.257 . S
H606 C592 0.929 . S
H607 C594 0.931 . S
H608 C596 0.929 . S
O609 Tb610 2.292 . S
O609 C612 1.255 . S
Tb610 O609 2.292 . S
Tb610 O626 2.326 . S
Tb610 O628 2.500 . S
Tb610 O629 2.473 . S
Tb610 O632 2.324 . S
Eu611 O615 2.292 . S
Eu611 C616 2.852 . S
Eu611 O627 2.324 . S
Eu611 O631 2.326 . S
Eu611 O633 2.500 . S
Eu611 O634 2.473 . S
C612 O609 1.255 . S
C612 O613 1.247 . S
O613 C612 1.247 . S
C614 O626 1.242 . S
C614 O627 1.258 . S
O615 Eu611 2.292 . S
O615 C617 1.255 . S
C616 Eu611 2.852 . S
C616 C620 1.503 . S
C616 O633 1.273 . S
C616 O634 1.257 . S
C617 O615 1.255 . S
C617 O618 1.247 . S
O618 C617 1.247 . S
C619 O631 1.242 . S
C619 O632 1.258 . S
C620 C616 1.503 . S
C620 C621 1.379 . S
C620 C625 1.392 . S
C621 C620 1.379 . S
C621 C622 1.404 . S
C621 H635 0.929 . S
C622 C621 1.404 . S
C622 C623 1.389 . S
C623 C622 1.389 . S
C623 C624 1.399 . S
C623 H636 0.931 . S
C624 C623 1.399 . S
C624 C625 1.390 . S
C625 C620 1.392 . S
C625 C624 1.390 . S
C625 H637 0.929 . S
O626 Tb610 2.326 . S
O626 C614 1.242 . S
O627 Eu611 2.324 . S
O627 C614 1.258 . S
O628 Tb610 2.500 . S
O628 C630 1.273 . S
O629 Tb610 2.473 . S
O629 C630 1.257 . S
C630 O628 1.273 . S
C630 O629 1.257 . S
O631 Eu611 2.326 . S
O631 C619 1.242 . S
O632 Tb610 2.324 . S
O632 C619 1.258 . S
O633 Eu611 2.500 . S
O633 C616 1.273 . S
O634 Eu611 2.473 . S
O634 C616 1.257 . S
H635 C621 0.929 . S
H636 C623 0.931 . S
H637 C625 0.929 . S
O638 Tb639 2.292 . S
O638 C641 1.255 . S
Tb639 O638 2.292 . S
Tb639 O655 2.326 . S
Tb639 O657 2.500 . S
Tb639 O658 2.473 . S
Tb639 O661 2.324 . S
Eu640 O644 2.292 . S
Eu640 C645 2.852 . S
Eu640 O656 2.324 . S
Eu640 O660 2.326 . S
Eu640 O662 2.500 . S
Eu640 O663 2.473 . S
C641 O638 1.255 . S
C641 O642 1.247 . S
O642 C641 1.247 . S
C643 O655 1.242 . S
C643 O656 1.258 . S
O644 Eu640 2.292 . S
O644 C646 1.255 . S
C645 Eu640 2.852 . S
C645 C649 1.503 . S
C645 O662 1.273 . S
C645 O663 1.257 . S
C646 O644 1.255 . S
C646 O647 1.247 . S
O647 C646 1.247 . S
C648 O660 1.242 . S
C648 O661 1.258 . S
C649 C645 1.503 . S
C649 C650 1.379 . S
C649 C654 1.392 . S
C650 C649 1.379 . S
C650 C651 1.404 . S
C650 H664 0.929 . S
C651 C650 1.404 . S
C651 C652 1.389 . S
C652 C651 1.389 . S
C652 C653 1.399 . S
C652 H665 0.931 . S
C653 C652 1.399 . S
C653 C654 1.390 . S
C654 C649 1.392 . S
C654 C653 1.390 . S
C654 H666 0.929 . S
O655 Tb639 2.326 . S
O655 C643 1.242 . S
O656 Eu640 2.324 . S
O656 C643 1.258 . S
O657 Tb639 2.500 . S
O657 C659 1.273 . S
O658 Tb639 2.473 . S
O658 C659 1.257 . S
C659 O657 1.273 . S
C659 O658 1.257 . S
O660 Eu640 2.326 . S
O660 C648 1.242 . S
O661 Tb639 2.324 . S
O661 C648 1.258 . S
O662 Eu640 2.500 . S
O662 C645 1.273 . S
O663 Eu640 2.473 . S
O663 C645 1.257 . S
H664 C650 0.929 . S
H665 C652 0.931 . S
H666 C654 0.929 . S
O667 Tb668 2.292 . S
O667 C670 1.255 . S
Tb668 O667 2.292 . S
Tb668 O684 2.326 . S
Tb668 O686 2.500 . S
Tb668 O687 2.473 . S
Tb668 O690 2.324 . S
Eu669 O673 2.292 . S
Eu669 C674 2.852 . S
Eu669 O685 2.324 . S
Eu669 O689 2.326 . S
Eu669 O691 2.500 . S
Eu669 O692 2.473 . S
C670 O667 1.255 . S
C670 O671 1.247 . S
O671 C670 1.247 . S
C672 O684 1.242 . S
C672 O685 1.258 . S
O673 Eu669 2.292 . S
O673 C675 1.255 . S
C674 Eu669 2.852 . S
C674 C678 1.503 . S
C674 O691 1.273 . S
C674 O692 1.257 . S
C675 O673 1.255 . S
C675 O676 1.247 . S
O676 C675 1.247 . S
C677 O689 1.242 . S
C677 O690 1.258 . S
C678 C674 1.503 . S
C678 C679 1.379 . S
C678 C683 1.392 . S
C679 C678 1.379 . S
C679 C680 1.404 . S
C679 H693 0.929 . S
C680 C679 1.404 . S
C680 C681 1.389 . S
C681 C680 1.389 . S
C681 C682 1.399 . S
C681 H694 0.931 . S
C682 C681 1.399 . S
C682 C683 1.390 . S
C683 C678 1.392 . S
C683 C682 1.390 . S
C683 H695 0.929 . S
O684 Tb668 2.326 . S
O684 C672 1.242 . S
O685 Eu669 2.324 . S
O685 C672 1.258 . S
O686 Tb668 2.500 . S
O686 C688 1.273 . S
O687 Tb668 2.473 . S
O687 C688 1.257 . S
C688 O686 1.273 . S
C688 O687 1.257 . S
O689 Eu669 2.326 . S
O689 C677 1.242 . S
O690 Tb668 2.324 . S
O690 C677 1.258 . S
O691 Eu669 2.500 . S
O691 C674 1.273 . S
O692 Eu669 2.473 . S
O692 C674 1.257 . S
H693 C679 0.929 . S
H694 C681 0.931 . S
H695 C683 0.929 . S
C696 C697 1.369 . S
C696 C698 1.419 . S
C696 H700 0.930 . S
C697 C696 1.369 . S
C697 C706 1.429 . S
C698 C696 1.419 . S
C698 C699 1.363 . S
C698 H701 0.929 . S
C699 C698 1.363 . S
C699 C705 1.428 . S
H700 C696 0.930 . S
H701 C698 0.929 . S
S702 N703 1.613 . S
S702 N704 1.610 . S
N703 S702 1.613 . S
N703 C706 1.350 . S
N704 S702 1.610 . S
N704 C705 1.351 . S
C705 C699 1.428 . S
C705 N704 1.351 . S
C705 C706 1.434 . S
C706 C697 1.429 . S
C706 N703 1.350 . S
C706 C705 1.434 . S
C707 C708 1.369 . S
C707 C709 1.419 . S
C707 H711 0.930 . S
C708 C707 1.369 . S
C708 C717 1.429 . S
C709 C707 1.419 . S
C709 C710 1.363 . S
C709 H712 0.929 . S
C710 C709 1.363 . S
C710 C716 1.428 . S
H711 C707 0.930 . S
H712 C709 0.929 . S
S713 N714 1.613 . S
S713 N715 1.610 . S
N714 S713 1.613 . S
N714 C717 1.350 . S
N715 S713 1.610 . S
N715 C716 1.351 . S
C716 C710 1.428 . S
C716 N715 1.351 . S
C716 C717 1.434 . S
C717 C708 1.429 . S
C717 N714 1.350 . S
C717 C716 1.434 . S
C718 C719 1.369 . S
C718 C720 1.419 . S
C718 H722 0.930 . S
C719 C718 1.369 . S
C719 C728 1.429 . S
C720 C718 1.419 . S
C720 C721 1.363 . S
C720 H723 0.929 . S
C721 C720 1.363 . S
C721 C727 1.428 . S
H722 C718 0.930 . S
H723 C720 0.929 . S
S724 N725 1.613 . S
S724 N726 1.610 . S
N725 S724 1.613 . S
N725 C728 1.350 . S
N726 S724 1.610 . S
N726 C727 1.351 . S
C727 C721 1.428 . S
C727 N726 1.351 . S
C727 C728 1.434 . S
C728 C719 1.429 . S
C728 N725 1.350 . S
C728 C727 1.434 . S
C729 C730 1.369 . S
C729 C731 1.419 . S
C729 H733 0.930 . S
C730 C729 1.369 . S
C730 C739 1.429 . S
C731 C729 1.419 . S
C731 C732 1.363 . S
C731 H734 0.929 . S
C732 C731 1.363 . S
C732 C738 1.428 . S
H733 C729 0.930 . S
H734 C731 0.929 . S
S735 N736 1.613 . S
S735 N737 1.610 . S
N736 S735 1.613 . S
N736 C739 1.350 . S
N737 S735 1.610 . S
N737 C738 1.351 . S
C738 C732 1.428 . S
C738 N737 1.351 . S
C738 C739 1.434 . S
C739 C730 1.429 . S
C739 N736 1.350 . S
C739 C738 1.434 . S
C740 C741 1.369 . S
C740 C742 1.419 . S
C740 H744 0.930 . S
C741 C740 1.369 . S
C741 C750 1.429 . S
C742 C740 1.419 . S
C742 C743 1.363 . S
C742 H745 0.929 . S
C743 C742 1.363 . S
C743 C749 1.428 . S
H744 C740 0.930 . S
H745 C742 0.929 . S
S746 N747 1.613 . S
S746 N748 1.610 . S
N747 S746 1.613 . S
N747 C750 1.350 . S
N748 S746 1.610 . S
N748 C749 1.351 . S
C749 C743 1.428 . S
C749 N748 1.351 . S
C749 C750 1.434 . S
C750 C741 1.429 . S
C750 N747 1.350 . S
C750 C749 1.434 . S
C751 C752 1.369 . S
C751 C753 1.419 . S
C751 H755 0.930 . S
C752 C751 1.369 . S
C752 C761 1.429 . S
C753 C751 1.419 . S
C753 C754 1.363 . S
C753 H756 0.929 . S
C754 C753 1.363 . S
C754 C760 1.428 . S
H755 C751 0.930 . S
H756 C753 0.929 . S
S757 N758 1.613 . S
S757 N759 1.610 . S
N758 S757 1.613 . S
N758 C761 1.350 . S
N759 S757 1.610 . S
N759 C760 1.351 . S
C760 C754 1.428 . S
C760 N759 1.351 . S
C760 C761 1.434 . S
C761 C752 1.429 . S
C761 N758 1.350 . S
C761 C760 1.434 . S
C762 C763 1.369 . S
C762 C764 1.419 . S
C762 H766 0.930 . S
C763 C762 1.369 . S
C763 C772 1.429 . S
C764 C762 1.419 . S
C764 C765 1.363 . S
C764 H767 0.929 . S
C765 C764 1.363 . S
C765 C771 1.428 . S
H766 C762 0.930 . S
H767 C764 0.929 . S
S768 N769 1.613 . S
S768 N770 1.610 . S
N769 S768 1.613 . S
N769 C772 1.350 . S
N770 S768 1.610 . S
N770 C771 1.351 . S
C771 C765 1.428 . S
C771 N770 1.351 . S
C771 C772 1.434 . S
C772 C763 1.429 . S
C772 N769 1.350 . S
C772 C771 1.434 . S
C773 C774 1.369 . S
C773 C775 1.419 . S
C773 H777 0.930 . S
C774 C773 1.369 . S
C774 C783 1.429 . S
C775 C773 1.419 . S
C775 C776 1.363 . S
C775 H778 0.929 . S
C776 C775 1.363 . S
C776 C782 1.428 . S
H777 C773 0.930 . S
H778 C775 0.929 . S
S779 N780 1.613 . S
S779 N781 1.610 . S
N780 S779 1.613 . S
N780 C783 1.350 . S
N781 S779 1.610 . S
N781 C782 1.351 . S
C782 C776 1.428 . S
C782 N781 1.351 . S
C782 C783 1.434 . S
C783 C774 1.429 . S
C783 N780 1.350 . S
C783 C782 1.434 . S
C784 C785 1.369 . S
C784 C786 1.419 . S
C784 H788 0.930 . S
C785 C784 1.369 . S
C785 C794 1.429 . S
C786 C784 1.419 . S
C786 C787 1.363 . S
C786 H789 0.929 . S
C787 C786 1.363 . S
C787 C793 1.428 . S
H788 C784 0.930 . S
H789 C786 0.929 . S
S790 N791 1.613 . S
S790 N792 1.610 . S
N791 S790 1.613 . S
N791 C794 1.350 . S
N792 S790 1.610 . S
N792 C793 1.351 . S
C793 C787 1.428 . S
C793 N792 1.351 . S
C793 C794 1.434 . S
C794 C785 1.429 . S
C794 N791 1.350 . S
C794 C793 1.434 . S
C795 C796 1.369 . S
C795 C797 1.419 . S
C795 H799 0.930 . S
C796 C795 1.369 . S
C796 C805 1.429 . S
C797 C795 1.419 . S
C797 C798 1.363 . S
C797 H800 0.929 . S
C798 C797 1.363 . S
C798 C804 1.428 . S
H799 C795 0.930 . S
H800 C797 0.929 . S
S801 N802 1.613 . S
S801 N803 1.610 . S
N802 S801 1.613 . S
N802 C805 1.350 . S
N803 S801 1.610 . S
N803 C804 1.351 . S
C804 C798 1.428 . S
C804 N803 1.351 . S
C804 C805 1.434 . S
C805 C796 1.429 . S
C805 N802 1.350 . S
C805 C804 1.434 . S
C806 C807 1.369 . S
C806 C808 1.419 . S
C806 H810 0.930 . S
C807 C806 1.369 . S
C807 C816 1.429 . S
C808 C806 1.419 . S
C808 C809 1.363 . S
C808 H811 0.929 . S
C809 C808 1.363 . S
C809 C815 1.428 . S
H810 C806 0.930 . S
H811 C808 0.929 . S
S812 N813 1.613 . S
S812 N814 1.610 . S
N813 S812 1.613 . S
N813 C816 1.350 . S
N814 S812 1.610 . S
N814 C815 1.351 . S
C815 C809 1.428 . S
C815 N814 1.351 . S
C815 C816 1.434 . S
C816 C807 1.429 . S
C816 N813 1.350 . S
C816 C815 1.434 . S
C817 C818 1.369 . S
C817 C819 1.419 . S
C817 H821 0.930 . S
C818 C817 1.369 . S
C818 C827 1.429 . S
C819 C817 1.419 . S
C819 C820 1.363 . S
C819 H822 0.929 . S
C820 C819 1.363 . S
C820 C826 1.428 . S
H821 C817 0.930 . S
H822 C819 0.929 . S
S823 N824 1.613 . S
S823 N825 1.610 . S
N824 S823 1.613 . S
N824 C827 1.350 . S
N825 S823 1.610 . S
N825 C826 1.351 . S
C826 C820 1.428 . S
C826 N825 1.351 . S
C826 C827 1.434 . S
C827 C818 1.429 . S
C827 N824 1.350 . S
C827 C826 1.434 . S
C828 C829 1.369 . S
C828 C830 1.419 . S
C828 H832 0.930 . S
C829 C828 1.369 . S
C829 C838 1.429 . S
C830 C828 1.419 . S
C830 C831 1.363 . S
C830 H833 0.929 . S
C831 C830 1.363 . S
C831 C837 1.428 . S
H832 C828 0.930 . S
H833 C830 0.929 . S
S834 N835 1.613 . S
S834 N836 1.610 . S
N835 S834 1.613 . S
N835 C838 1.350 . S
N836 S834 1.610 . S
N836 C837 1.351 . S
C837 C831 1.428 . S
C837 N836 1.351 . S
C837 C838 1.434 . S
C838 C829 1.429 . S
C838 N835 1.350 . S
C838 C837 1.434 . S
C839 C840 1.369 . S
C839 C841 1.419 . S
C839 H843 0.930 . S
C840 C839 1.369 . S
C840 C849 1.429 . S
C841 C839 1.419 . S
C841 C842 1.363 . S
C841 H844 0.929 . S
C842 C841 1.363 . S
C842 C848 1.428 . S
H843 C839 0.930 . S
H844 C841 0.929 . S
S845 N846 1.613 . S
S845 N847 1.610 . S
N846 S845 1.613 . S
N846 C849 1.350 . S
N847 S845 1.610 . S
N847 C848 1.351 . S
C848 C842 1.428 . S
C848 N847 1.351 . S
C848 C849 1.434 . S
C849 C840 1.429 . S
C849 N846 1.350 . S
C849 C848 1.434 . S
C850 C851 1.369 . S
C850 C852 1.419 . S
C850 H854 0.930 . S
C851 C850 1.369 . S
C851 C860 1.429 . S
C852 C850 1.419 . S
C852 C853 1.363 . S
C852 H855 0.929 . S
C853 C852 1.363 . S
C853 C859 1.428 . S
H854 C850 0.930 . S
H855 C852 0.929 . S
S856 N857 1.613 . S
S856 N858 1.610 . S
N857 S856 1.613 . S
N857 C860 1.350 . S
N858 S856 1.610 . S
N858 C859 1.351 . S
C859 C853 1.428 . S
C859 N858 1.351 . S
C859 C860 1.434 . S
C860 C851 1.429 . S
C860 N857 1.350 . S
C860 C859 1.434 . S
C861 C862 1.369 . S
C861 C863 1.419 . S
C861 H865 0.930 . S
C862 C861 1.369 . S
C862 C871 1.429 . S
C863 C861 1.419 . S
C863 C864 1.363 . S
C863 H866 0.929 . S
C864 C863 1.363 . S
C864 C870 1.428 . S
H865 C861 0.930 . S
H866 C863 0.929 . S
S867 N868 1.613 . S
S867 N869 1.610 . S
N868 S867 1.613 . S
N868 C871 1.350 . S
N869 S867 1.610 . S
N869 C870 1.351 . S
C870 C864 1.428 . S
C870 N869 1.351 . S
C870 C871 1.434 . S
C871 C862 1.429 . S
C871 N868 1.350 . S
C871 C870 1.434 . S
C872 C873 1.369 . S
C872 C874 1.419 . S
C872 H876 0.930 . S
C873 C872 1.369 . S
C873 C882 1.429 . S
C874 C872 1.419 . S
C874 C875 1.363 . S
C874 H877 0.929 . S
C875 C874 1.363 . S
C875 C881 1.428 . S
H876 C872 0.930 . S
H877 C874 0.929 . S
S878 N879 1.613 . S
S878 N880 1.610 . S
N879 S878 1.613 . S
N879 C882 1.350 . S
N880 S878 1.610 . S
N880 C881 1.351 . S
C881 C875 1.428 . S
C881 N880 1.351 . S
C881 C882 1.434 . S
C882 C873 1.429 . S
C882 N879 1.350 . S
C882 C881 1.434 . S
C883 C884 1.369 . S
C883 C885 1.419 . S
C883 H887 0.930 . S
C884 C883 1.369 . S
C884 C893 1.429 . S
C885 C883 1.419 . S
C885 C886 1.363 . S
C885 H888 0.929 . S
C886 C885 1.363 . S
C886 C892 1.428 . S
H887 C883 0.930 . S
H888 C885 0.929 . S
S889 N890 1.613 . S
S889 N891 1.610 . S
N890 S889 1.613 . S
N890 C893 1.350 . S
N891 S889 1.610 . S
N891 C892 1.351 . S
C892 C886 1.428 . S
C892 N891 1.351 . S
C892 C893 1.434 . S
C893 C884 1.429 . S
C893 N890 1.350 . S
C893 C892 1.434 . S
C894 C895 1.369 . S
C894 C896 1.419 . S
C894 H898 0.930 . S
C895 C894 1.369 . S
C895 C904 1.429 . S
C896 C894 1.419 . S
C896 C897 1.363 . S
C896 H899 0.929 . S
C897 C896 1.363 . S
C897 C903 1.428 . S
H898 C894 0.930 . S
H899 C896 0.929 . S
S900 N901 1.613 . S
S900 N902 1.610 . S
N901 S900 1.613 . S
N901 C904 1.350 . S
N902 S900 1.610 . S
N902 C903 1.351 . S
C903 C897 1.428 . S
C903 N902 1.351 . S
C903 C904 1.434 . S
C904 C895 1.429 . S
C904 N901 1.350 . S
C904 C903 1.434 . S
C905 C906 1.369 . S
C905 C907 1.419 . S
C905 H909 0.930 . S
C906 C905 1.369 . S
C906 C915 1.429 . S
C907 C905 1.419 . S
C907 C908 1.363 . S
C907 H910 0.929 . S
C908 C907 1.363 . S
C908 C914 1.428 . S
H909 C905 0.930 . S
H910 C907 0.929 . S
S911 N912 1.613 . S
S911 N913 1.610 . S
N912 S911 1.613 . S
N912 C915 1.350 . S
N913 S911 1.610 . S
N913 C914 1.351 . S
C914 C908 1.428 . S
C914 N913 1.351 . S
C914 C915 1.434 . S
C915 C906 1.429 . S
C915 N912 1.350 . S
C915 C914 1.434 . S
C916 C917 1.369 . S
C916 C918 1.419 . S
C916 H920 0.930 . S
C917 C916 1.369 . S
C917 C926 1.429 . S
C918 C916 1.419 . S
C918 C919 1.363 . S
C918 H921 0.929 . S
C919 C918 1.363 . S
C919 C925 1.428 . S
H920 C916 0.930 . S
H921 C918 0.929 . S
S922 N923 1.613 . S
S922 N924 1.610 . S
N923 S922 1.613 . S
N923 C926 1.350 . S
N924 S922 1.610 . S
N924 C925 1.351 . S
C925 C919 1.428 . S
C925 N924 1.351 . S
C925 C926 1.434 . S
C926 C917 1.429 . S
C926 N923 1.350 . S
C926 C925 1.434 . S
C927 C928 1.369 . S
C927 C929 1.419 . S
C927 H931 0.930 . S
C928 C927 1.369 . S
C928 C937 1.429 . S
C929 C927 1.419 . S
C929 C930 1.363 . S
C929 H932 0.929 . S
C930 C929 1.363 . S
C930 C936 1.428 . S
H931 C927 0.930 . S
H932 C929 0.929 . S
S933 N934 1.613 . S
S933 N935 1.610 . S
N934 S933 1.613 . S
N934 C937 1.350 . S
N935 S933 1.610 . S
N935 C936 1.351 . S
C936 C930 1.428 . S
C936 N935 1.351 . S
C936 C937 1.434 . S
C937 C928 1.429 . S
C937 N934 1.350 . S
C937 C936 1.434 . S
C938 C939 1.369 . S
C938 C940 1.419 . S
C938 H942 0.930 . S
C939 C938 1.369 . S
C939 C948 1.429 . S
C940 C938 1.419 . S
C940 C941 1.363 . S
C940 H943 0.929 . S
C941 C940 1.363 . S
C941 C947 1.428 . S
H942 C938 0.930 . S
H943 C940 0.929 . S
S944 N945 1.613 . S
S944 N946 1.610 . S
N945 S944 1.613 . S
N945 C948 1.350 . S
N946 S944 1.610 . S
N946 C947 1.351 . S
C947 C941 1.428 . S
C947 N946 1.351 . S
C947 C948 1.434 . S
C948 C939 1.429 . S
C948 N945 1.350 . S
C948 C947 1.434 . S
C949 C950 1.369 . S
C949 C951 1.419 . S
C949 H953 0.930 . S
C950 C949 1.369 . S
C950 C959 1.429 . S
C951 C949 1.419 . S
C951 C952 1.363 . S
C951 H954 0.929 . S
C952 C951 1.363 . S
C952 C958 1.428 . S
H953 C949 0.930 . S
H954 C951 0.929 . S
S955 N956 1.613 . S
S955 N957 1.610 . S
N956 S955 1.613 . S
N956 C959 1.350 . S
N957 S955 1.610 . S
N957 C958 1.351 . S
C958 C952 1.428 . S
C958 N957 1.351 . S
C958 C959 1.434 . S
C959 C950 1.429 . S
C959 N956 1.350 . S
C959 C958 1.434 . S
C960 C961 1.369 . S
C960 C962 1.419 1_554 S
C960 H964 0.930 . S
C961 C960 1.369 . S
C961 C970 1.429 . S
C962 C960 1.419 1_556 S
C962 C963 1.363 . S
C962 H965 0.929 . S
C963 C962 1.363 . S
C963 C969 1.428 . S
H964 C960 0.930 . S
H965 C962 0.929 . S
S966 N967 1.616 1_556 S
S966 N968 1.608 . S
N967 S966 1.616 1_554 S
N967 C970 1.350 . S
N968 S966 1.608 . S
N968 C969 1.351 . S
C969 C963 1.428 . S
C969 N968 1.351 . S
C969 C970 1.434 1_556 S
C970 C961 1.429 . S
C970 N967 1.350 . S
C970 C969 1.434 1_554 S
C971 C972 1.369 . S
C971 C973 1.419 1_554 S
C971 H975 0.930 . S
C972 C971 1.369 . S
C972 C981 1.429 . S
C973 C971 1.419 1_556 S
C973 C974 1.363 . S
C973 H976 0.929 . S
C974 C973 1.363 . S
C974 C980 1.428 . S
H975 C971 0.930 . S
H976 C973 0.929 . S
S977 N978 1.616 1_556 S
S977 N979 1.608 . S
N978 S977 1.616 1_554 S
N978 C981 1.350 . S
N979 S977 1.608 . S
N979 C980 1.351 . S
C980 C974 1.428 . S
C980 N979 1.351 . S
C980 C981 1.434 1_556 S
C981 C972 1.429 . S
C981 N978 1.350 . S
C981 C980 1.434 1_554 S
C982 C983 1.369 . S
C982 C984 1.419 1_554 S
C982 H986 0.930 . S
C983 C982 1.369 . S
C983 C992 1.429 . S
C984 C982 1.419 1_556 S
C984 C985 1.363 . S
C984 H987 0.929 . S
C985 C984 1.363 . S
C985 C991 1.428 . S
H986 C982 0.930 . S
H987 C984 0.929 . S
S988 N989 1.616 1_556 S
S988 N990 1.608 . S
N989 S988 1.616 1_554 S
N989 C992 1.350 . S
N990 S988 1.608 . S
N990 C991 1.351 . S
C991 C985 1.428 . S
C991 N990 1.351 . S
C991 C992 1.434 1_556 S
C992 C983 1.429 . S
C992 N989 1.350 . S
C992 C991 1.434 1_554 S
C993 C994 1.369 . S
C993 C995 1.419 1_556 S
C993 H997 0.930 . S
C994 C993 1.369 . S
C994 C1003 1.429 . S
C995 C993 1.419 1_554 S
C995 C996 1.363 . S
C995 H998 0.929 . S
C996 C995 1.363 . S
C996 C1002 1.428 . S
H997 C993 0.930 . S
H998 C995 0.929 . S
S999 N1000 1.616 1_554 S
S999 N1001 1.608 . S
N1000 S999 1.616 1_556 S
N1000 C1003 1.350 . S
N1001 S999 1.608 . S
N1001 C1002 1.351 . S
C1002 C996 1.428 . S
C1002 N1001 1.351 . S
C1002 C1003 1.434 1_554 S
C1003 C994 1.429 . S
C1003 N1000 1.350 . S
C1003 C1002 1.434 1_556 S
C1004 C1005 1.369 . S
C1004 C1006 1.419 1_554 S
C1004 H1008 0.930 . S
C1005 C1004 1.369 . S
C1005 C1014 1.429 . S
C1006 C1004 1.419 1_556 S
C1006 C1007 1.363 . S
C1006 H1009 0.929 . S
C1007 C1006 1.363 . S
C1007 C1013 1.428 . S
H1008 C1004 0.930 . S
H1009 C1006 0.929 . S
S1010 N1011 1.616 1_556 S
S1010 N1012 1.608 . S
N1011 S1010 1.616 1_554 S
N1011 C1014 1.350 . S
N1012 S1010 1.608 . S
N1012 C1013 1.351 . S
C1013 C1007 1.428 . S
C1013 N1012 1.351 . S
C1013 C1014 1.434 1_556 S
C1014 C1005 1.429 . S
C1014 N1011 1.350 . S
C1014 C1013 1.434 1_554 S
C1015 C1016 1.369 . S
C1015 C1017 1.419 1_554 S
C1015 H1019 0.930 . S
C1016 C1015 1.369 . S
C1016 C1025 1.429 . S
C1017 C1015 1.419 1_556 S
C1017 C1018 1.363 . S
C1017 H1020 0.929 . S
C1018 C1017 1.363 . S
C1018 C1024 1.428 . S
H1019 C1015 0.930 . S
H1020 C1017 0.929 . S
S1021 N1022 1.616 1_556 S
S1021 N1023 1.608 . S
N1022 S1021 1.616 1_554 S
N1022 C1025 1.350 . S
N1023 S1021 1.608 . S
N1023 C1024 1.351 . S
C1024 C1018 1.428 . S
C1024 N1023 1.351 . S
C1024 C1025 1.434 1_556 S
C1025 C1016 1.429 . S
C1025 N1022 1.350 . S
C1025 C1024 1.434 1_554 S
C1026 C1027 1.369 . S
C1026 C1028 1.419 . S
C1026 H1030 0.930 . S
C1027 C1026 1.369 . S
C1027 C1036 1.429 . S
C1028 C1026 1.419 . S
C1028 C1029 1.363 . S
C1028 H1031 0.929 . S
C1029 C1028 1.363 . S
C1029 C1035 1.428 . S
H1030 C1026 0.930 . S
H1031 C1028 0.929 . S
S1032 N1033 1.613 . S
S1032 N1034 1.610 . S
N1033 S1032 1.613 . S
N1033 C1036 1.350 . S
N1034 S1032 1.610 . S
N1034 C1035 1.351 . S
C1035 C1029 1.428 . S
C1035 N1034 1.351 . S
C1035 C1036 1.434 . S
C1036 C1027 1.429 . S
C1036 N1033 1.350 . S
C1036 C1035 1.434 . S
C1037 C1038 1.369 . S
C1037 C1039 1.419 . S
C1037 H1041 0.930 . S
C1038 C1037 1.369 . S
C1038 C1047 1.429 . S
C1039 C1037 1.419 . S
C1039 C1040 1.363 . S
C1039 H1042 0.929 . S
C1040 C1039 1.363 . S
C1040 C1046 1.428 . S
H1041 C1037 0.930 . S
H1042 C1039 0.929 . S
S1043 N1044 1.613 . S
S1043 N1045 1.610 . S
N1044 S1043 1.613 . S
N1044 C1047 1.350 . S
N1045 S1043 1.610 . S
N1045 C1046 1.351 . S
C1046 C1040 1.428 . S
C1046 N1045 1.351 . S
C1046 C1047 1.434 . S
C1047 C1038 1.429 . S
C1047 N1044 1.350 . S
C1047 C1046 1.434 . S
C1048 C1049 1.369 . S
C1048 C1050 1.419 . S
C1048 H1052 0.930 . S
C1049 C1048 1.369 . S
C1049 C1058 1.429 . S
C1050 C1048 1.419 . S
C1050 C1051 1.363 . S
C1050 H1053 0.929 . S
C1051 C1050 1.363 . S
C1051 C1057 1.428 . S
H1052 C1048 0.930 . S
H1053 C1050 0.929 . S
S1054 N1055 1.613 . S
S1054 N1056 1.610 . S
N1055 S1054 1.613 . S
N1055 C1058 1.350 . S
N1056 S1054 1.610 . S
N1056 C1057 1.351 . S
C1057 C1051 1.428 . S
C1057 N1056 1.351 . S
C1057 C1058 1.434 . S
C1058 C1049 1.429 . S
C1058 N1055 1.350 . S
C1058 C1057 1.434 . S
C1059 C1060 1.369 . S
C1059 C1061 1.419 . S
C1059 H1063 0.930 . S
C1060 C1059 1.369 . S
C1060 C1069 1.429 . S
C1061 C1059 1.419 . S
C1061 C1062 1.363 . S
C1061 H1064 0.929 . S
C1062 C1061 1.363 . S
C1062 C1068 1.428 . S
H1063 C1059 0.930 . S
H1064 C1061 0.929 . S
S1065 N1066 1.613 . S
S1065 N1067 1.610 . S
N1066 S1065 1.613 . S
N1066 C1069 1.350 . S
N1067 S1065 1.610 . S
N1067 C1068 1.351 . S
C1068 C1062 1.428 . S
C1068 N1067 1.351 . S
C1068 C1069 1.434 . S
C1069 C1060 1.429 . S
C1069 N1066 1.350 . S
C1069 C1068 1.434 . S
C1070 C1071 1.369 . S
C1070 C1072 1.419 . S
C1070 H1074 0.930 . S
C1071 C1070 1.369 . S
C1071 C1080 1.429 . S
C1072 C1070 1.419 . S
C1072 C1073 1.363 . S
C1072 H1075 0.929 . S
C1073 C1072 1.363 . S
C1073 C1079 1.428 . S
H1074 C1070 0.930 . S
H1075 C1072 0.929 . S
S1076 N1077 1.613 . S
S1076 N1078 1.610 . S
N1077 S1076 1.613 . S
N1077 C1080 1.350 . S
N1078 S1076 1.610 . S
N1078 C1079 1.351 . S
C1079 C1073 1.428 . S
C1079 N1078 1.351 . S
C1079 C1080 1.434 . S
C1080 C1071 1.429 . S
C1080 N1077 1.350 . S
C1080 C1079 1.434 . S
C1081 C1082 1.369 . S
C1081 C1083 1.419 . S
C1081 H1085 0.930 . S
C1082 C1081 1.369 . S
C1082 C1091 1.429 . S
C1083 C1081 1.419 . S
C1083 C1084 1.363 . S
C1083 H1086 0.929 . S
C1084 C1083 1.363 . S
C1084 C1090 1.428 . S
H1085 C1081 0.930 . S
H1086 C1083 0.929 . S
S1087 N1088 1.613 . S
S1087 N1089 1.610 . S
N1088 S1087 1.613 . S
N1088 C1091 1.350 . S
N1089 S1087 1.610 . S
N1089 C1090 1.351 . S
C1090 C1084 1.428 . S
C1090 N1089 1.351 . S
C1090 C1091 1.434 . S
C1091 C1082 1.429 . S
C1091 N1088 1.350 . S
C1091 C1090 1.434 . S
C1092 C1093 1.369 . S
C1092 C1094 1.419 . S
C1092 H1096 0.930 . S
C1093 C1092 1.369 . S
C1093 C1102 1.429 . S
C1094 C1092 1.419 . S
C1094 C1095 1.363 . S
C1094 H1097 0.929 . S
C1095 C1094 1.363 . S
C1095 C1101 1.428 . S
H1096 C1092 0.930 . S
H1097 C1094 0.929 . S
S1098 N1099 1.613 . S
S1098 N1100 1.610 . S
N1099 S1098 1.613 . S
N1099 C1102 1.350 . S
N1100 S1098 1.610 . S
N1100 C1101 1.351 . S
C1101 C1095 1.428 . S
C1101 N1100 1.351 . S
C1101 C1102 1.434 . S
C1102 C1093 1.429 . S
C1102 N1099 1.350 . S
C1102 C1101 1.434 . S
C1103 C1104 1.369 . S
C1103 C1105 1.419 . S
C1103 H1107 0.930 . S
C1104 C1103 1.369 . S
C1104 C1113 1.429 . S
C1105 C1103 1.419 . S
C1105 C1106 1.363 . S
C1105 H1108 0.929 . S
C1106 C1105 1.363 . S
C1106 C1112 1.428 . S
H1107 C1103 0.930 . S
H1108 C1105 0.929 . S
S1109 N1110 1.613 . S
S1109 N1111 1.610 . S
N1110 S1109 1.613 . S
N1110 C1113 1.350 . S
N1111 S1109 1.610 . S
N1111 C1112 1.351 . S
C1112 C1106 1.428 . S
C1112 N1111 1.351 . S
C1112 C1113 1.434 . S
C1113 C1104 1.429 . S
C1113 N1110 1.350 . S
C1113 C1112 1.434 . S
C1114 C1115 1.369 . S
C1114 C1116 1.419 . S
C1114 H1118 0.930 . S
C1115 C1114 1.369 . S
C1115 C1124 1.429 . S
C1116 C1114 1.419 . S
C1116 C1117 1.363 . S
C1116 H1119 0.929 . S
C1117 C1116 1.363 . S
C1117 C1123 1.428 . S
H1118 C1114 0.930 . S
H1119 C1116 0.929 . S
S1120 N1121 1.613 . S
S1120 N1122 1.610 . S
N1121 S1120 1.613 . S
N1121 C1124 1.350 . S
N1122 S1120 1.610 . S
N1122 C1123 1.351 . S
C1123 C1117 1.428 . S
C1123 N1122 1.351 . S
C1123 C1124 1.434 . S
C1124 C1115 1.429 . S
C1124 N1121 1.350 . S
C1124 C1123 1.434 . S
C1125 C1126 1.369 . S
C1125 C1127 1.419 . S
C1125 H1129 0.930 . S
C1126 C1125 1.369 . S
C1126 C1135 1.429 . S
C1127 C1125 1.419 . S
C1127 C1128 1.363 . S
C1127 H1130 0.929 . S
C1128 C1127 1.363 . S
C1128 C1134 1.428 . S
H1129 C1125 0.930 . S
H1130 C1127 0.929 . S
S1131 N1132 1.613 . S
S1131 N1133 1.610 . S
N1132 S1131 1.613 . S
N1132 C1135 1.350 . S
N1133 S1131 1.610 . S
N1133 C1134 1.351 . S
C1134 C1128 1.428 . S
C1134 N1133 1.351 . S
C1134 C1135 1.434 . S
C1135 C1126 1.429 . S
C1135 N1132 1.350 . S
C1135 C1134 1.434 . S
C1136 C1137 1.369 . S
C1136 C1138 1.419 . S
C1136 H1140 0.930 . S
C1137 C1136 1.369 . S
C1137 C1146 1.429 . S
C1138 C1136 1.419 . S
C1138 C1139 1.363 . S
C1138 H1141 0.929 . S
C1139 C1138 1.363 . S
C1139 C1145 1.428 . S
H1140 C1136 0.930 . S
H1141 C1138 0.929 . S
S1142 N1143 1.613 . S
S1142 N1144 1.610 . S
N1143 S1142 1.613 . S
N1143 C1146 1.350 . S
N1144 S1142 1.610 . S
N1144 C1145 1.351 . S
C1145 C1139 1.428 . S
C1145 N1144 1.351 . S
C1145 C1146 1.434 . S
C1146 C1137 1.429 . S
C1146 N1143 1.350 . S
C1146 C1145 1.434 . S
C1147 C1148 1.369 . S
C1147 C1149 1.419 . S
C1147 H1151 0.930 . S
C1148 C1147 1.369 . S
C1148 C1157 1.429 . S
C1149 C1147 1.419 . S
C1149 C1150 1.363 . S
C1149 H1152 0.929 . S
C1150 C1149 1.363 . S
C1150 C1156 1.428 . S
H1151 C1147 0.930 . S
H1152 C1149 0.929 . S
S1153 N1154 1.613 . S
S1153 N1155 1.610 . S
N1154 S1153 1.613 . S
N1154 C1157 1.350 . S
N1155 S1153 1.610 . S
N1155 C1156 1.351 . S
C1156 C1150 1.428 . S
C1156 N1155 1.351 . S
C1156 C1157 1.434 . S
C1157 C1148 1.429 . S
C1157 N1154 1.350 . S
C1157 C1156 1.434 . S
C1158 C1159 1.369 . S
C1158 C1160 1.419 . S
C1158 H1162 0.930 . S
C1159 C1158 1.369 . S
C1159 C1168 1.429 . S
C1160 C1158 1.419 . S
C1160 C1161 1.363 . S
C1160 H1163 0.929 . S
C1161 C1160 1.363 . S
C1161 C1167 1.428 . S
H1162 C1158 0.930 . S
H1163 C1160 0.929 . S
S1164 N1165 1.613 . S
S1164 N1166 1.610 . S
N1165 S1164 1.613 . S
N1165 C1168 1.350 . S
N1166 S1164 1.610 . S
N1166 C1167 1.351 . S
C1167 C1161 1.428 . S
C1167 N1166 1.351 . S
C1167 C1168 1.434 . S
C1168 C1159 1.429 . S
C1168 N1165 1.350 . S
C1168 C1167 1.434 . S
C1169 C1170 1.369 . S
C1169 C1171 1.419 . S
C1169 H1173 0.930 . S
C1170 C1169 1.369 . S
C1170 C1179 1.429 . S
C1171 C1169 1.419 . S
C1171 C1172 1.363 . S
C1171 H1174 0.929 . S
C1172 C1171 1.363 . S
C1172 C1178 1.428 . S
H1173 C1169 0.930 . S
H1174 C1171 0.929 . S
S1175 N1176 1.613 . S
S1175 N1177 1.610 . S
N1176 S1175 1.613 . S
N1176 C1179 1.350 . S
N1177 S1175 1.610 . S
N1177 C1178 1.351 . S
C1178 C1172 1.428 . S
C1178 N1177 1.351 . S
C1178 C1179 1.434 . S
C1179 C1170 1.429 . S
C1179 N1176 1.350 . S
C1179 C1178 1.434 . S
C1180 C1181 1.369 . S
C1180 C1182 1.419 . S
C1180 H1184 0.930 . S
C1181 C1180 1.369 . S
C1181 C1190 1.429 . S
C1182 C1180 1.419 . S
C1182 C1183 1.363 . S
C1182 H1185 0.929 . S
C1183 C1182 1.363 . S
C1183 C1189 1.428 . S
H1184 C1180 0.930 . S
H1185 C1182 0.929 . S
S1186 N1187 1.613 . S
S1186 N1188 1.610 . S
N1187 S1186 1.613 . S
N1187 C1190 1.350 . S
N1188 S1186 1.610 . S
N1188 C1189 1.351 . S
C1189 C1183 1.428 . S
C1189 N1188 1.351 . S
C1189 C1190 1.434 . S
C1190 C1181 1.429 . S
C1190 N1187 1.350 . S
C1190 C1189 1.434 . S
C1191 C1192 1.369 . S
C1191 C1193 1.419 . S
C1191 H1195 0.930 . S
C1192 C1191 1.369 . S
C1192 C1201 1.429 . S
C1193 C1191 1.419 . S
C1193 C1194 1.363 . S
C1193 H1196 0.929 . S
C1194 C1193 1.363 . S
C1194 C1200 1.428 . S
H1195 C1191 0.930 . S
H1196 C1193 0.929 . S
S1197 N1198 1.613 . S
S1197 N1199 1.610 . S
N1198 S1197 1.613 . S
N1198 C1201 1.350 . S
N1199 S1197 1.610 . S
N1199 C1200 1.351 . S
C1200 C1194 1.428 . S
C1200 N1199 1.351 . S
C1200 C1201 1.434 . S
C1201 C1192 1.429 . S
C1201 N1198 1.350 . S
C1201 C1200 1.434 . S
C1202 C1203 1.369 . S
C1202 C1204 1.419 . S
C1202 H1206 0.930 . S
C1203 C1202 1.369 . S
C1203 C1212 1.429 . S
C1204 C1202 1.419 . S
C1204 C1205 1.363 . S
C1204 H1207 0.929 . S
C1205 C1204 1.363 . S
C1205 C1211 1.428 . S
H1206 C1202 0.930 . S
H1207 C1204 0.929 . S
S1208 N1209 1.613 . S
S1208 N1210 1.610 . S
N1209 S1208 1.613 . S
N1209 C1212 1.350 . S
N1210 S1208 1.610 . S
N1210 C1211 1.351 . S
C1211 C1205 1.428 . S
C1211 N1210 1.351 . S
C1211 C1212 1.434 . S
C1212 C1203 1.429 . S
C1212 N1209 1.350 . S
C1212 C1211 1.434 . S
C1213 C1214 1.369 . S
C1213 C1215 1.419 . S
C1213 H1217 0.930 . S
C1214 C1213 1.369 . S
C1214 C1223 1.429 . S
C1215 C1213 1.419 . S
C1215 C1216 1.363 . S
C1215 H1218 0.929 . S
C1216 C1215 1.363 . S
C1216 C1222 1.428 . S
H1217 C1213 0.930 . S
H1218 C1215 0.929 . S
S1219 N1220 1.613 . S
S1219 N1221 1.610 . S
N1220 S1219 1.613 . S
N1220 C1223 1.350 . S
N1221 S1219 1.610 . S
N1221 C1222 1.351 . S
C1222 C1216 1.428 . S
C1222 N1221 1.351 . S
C1222 C1223 1.434 . S
C1223 C1214 1.429 . S
C1223 N1220 1.350 . S
C1223 C1222 1.434 . S
C1224 C1225 1.369 1_565 S
C1224 C1226 1.419 . S
C1224 H1228 0.930 . S
C1225 C1224 1.369 1_545 S
C1225 C1234 1.429 . S
C1226 C1224 1.419 . S
C1226 C1227 1.363 . S
C1226 H1229 0.929 . S
C1227 C1226 1.363 . S
C1227 C1233 1.428 1_565 S
H1228 C1224 0.930 . S
H1229 C1226 0.929 . S
S1230 N1231 1.613 . S
S1230 N1232 1.610 . S
N1231 S1230 1.613 . S
N1231 C1234 1.350 . S
N1232 S1230 1.610 . S
N1232 C1233 1.351 . S
C1233 C1227 1.428 1_545 S
C1233 N1232 1.351 . S
C1233 C1234 1.434 . S
C1234 C1225 1.429 . S
C1234 N1231 1.350 . S
C1234 C1233 1.434 . S
C1235 C1236 1.369 . S
C1235 C1237 1.419 . S
C1235 H1239 0.930 . S
C1236 C1235 1.369 . S
C1236 C1245 1.429 . S
C1237 C1235 1.419 . S
C1237 C1238 1.363 . S
C1237 H1240 0.929 . S
C1238 C1237 1.363 . S
C1238 C1244 1.428 . S
H1239 C1235 0.930 . S
H1240 C1237 0.929 . S
S1241 N1242 1.613 . S
S1241 N1243 1.610 . S
N1242 S1241 1.613 . S
N1242 C1245 1.350 . S
N1243 S1241 1.610 . S
N1243 C1244 1.351 . S
C1244 C1238 1.428 . S
C1244 N1243 1.351 . S
C1244 C1245 1.434 . S
C1245 C1236 1.429 . S
C1245 N1242 1.350 . S
C1245 C1244 1.434 . S
C1246 C1247 1.369 . S
C1246 C1248 1.416 1_655 S
C1246 H1250 0.930 . S
C1247 C1246 1.369 . S
C1247 C1256 1.414 1_655 S
C1248 C1246 1.416 1_455 S
C1248 C1249 1.370 . S
C1248 H1251 0.925 1_455 S
C1249 C1248 1.370 . S
C1249 C1255 1.428 . S
H1250 C1246 0.930 . S
H1251 C1248 0.925 1_655 S
S1252 N1253 1.613 . S
S1252 N1254 1.610 . S
N1253 S1252 1.613 . S
N1253 C1256 1.359 . S
N1254 S1252 1.610 . S
N1254 C1255 1.351 . S
C1255 C1249 1.428 . S
C1255 N1254 1.351 . S
C1255 C1256 1.441 . S
C1256 C1247 1.414 1_455 S
C1256 N1253 1.359 . S
C1256 C1255 1.441 . S
C1257 C1258 1.369 . S
C1257 C1259 1.419 1_455 S
C1257 H1261 0.930 . S
C1258 C1257 1.369 . S
C1258 C1267 1.429 . S
C1259 C1257 1.419 1_655 S
C1259 C1260 1.363 . S
C1259 H1262 0.929 . S
C1260 C1259 1.363 . S
C1260 C1266 1.428 . S
H1261 C1257 0.930 . S
H1262 C1259 0.929 . S
S1263 N1264 1.613 . S
S1263 N1265 1.610 1_455 S
N1264 S1263 1.613 . S
N1264 C1267 1.350 . S
N1265 S1263 1.610 1_655 S
N1265 C1266 1.351 . S
C1266 C1260 1.428 . S
C1266 N1265 1.351 . S
C1266 C1267 1.434 1_655 S
C1267 C1258 1.429 . S
C1267 N1264 1.350 . S
C1267 C1266 1.434 1_455 S
C1268 C1269 1.369 1_565 S
C1268 C1270 1.419 . S
C1268 H1272 0.930 . S
C1269 C1268 1.369 1_545 S
C1269 C1278 1.429 . S
C1270 C1268 1.419 . S
C1270 C1271 1.363 . S
C1270 H1273 0.929 . S
C1271 C1270 1.363 . S
C1271 C1277 1.428 1_565 S
H1272 C1268 0.930 . S
H1273 C1270 0.929 . S
S1274 N1275 1.613 . S
S1274 N1276 1.610 . S
N1275 S1274 1.613 . S
N1275 C1278 1.350 . S
N1276 S1274 1.610 . S
N1276 C1277 1.351 . S
C1277 C1271 1.428 1_545 S
C1277 N1276 1.351 . S
C1277 C1278 1.434 . S
C1278 C1269 1.429 . S
C1278 N1275 1.350 . S
C1278 C1277 1.434 . S
C1279 C1280 1.369 . S
C1279 C1281 1.419 . S
C1279 H1283 0.930 . S
C1280 C1279 1.369 . S
C1280 C1289 1.429 . S
C1281 C1279 1.419 . S
C1281 C1282 1.363 . S
C1281 H1284 0.929 . S
C1282 C1281 1.363 . S
C1282 C1288 1.428 . S
H1283 C1279 0.930 . S
H1284 C1281 0.929 . S
S1285 N1286 1.613 . S
S1285 N1287 1.610 . S
N1286 S1285 1.613 . S
N1286 C1289 1.350 . S
N1287 S1285 1.610 . S
N1287 C1288 1.351 . S
C1288 C1282 1.428 . S
C1288 N1287 1.351 . S
C1288 C1289 1.434 . S
C1289 C1280 1.429 . S
C1289 N1286 1.350 . S
C1289 C1288 1.434 . S
C1290 C1291 1.369 . S
C1290 C1292 1.419 1_545 S
C1290 H1294 0.930 . S
C1291 C1290 1.369 . S
C1291 C1300 1.429 . S
C1292 C1290 1.419 1_565 S
C1292 C1293 1.363 . S
C1292 H1295 0.929 . S
C1293 C1292 1.363 . S
C1293 C1299 1.428 . S
H1294 C1290 0.930 . S
H1295 C1292 0.929 . S
S1296 N1297 1.613 . S
S1296 N1298 1.610 1_545 S
N1297 S1296 1.613 . S
N1297 C1300 1.350 . S
N1298 S1296 1.610 1_565 S
N1298 C1299 1.351 . S
C1299 C1293 1.428 . S
C1299 N1298 1.351 . S
C1299 C1300 1.434 1_565 S
C1300 C1291 1.429 . S
C1300 N1297 1.350 . S
C1300 C1299 1.434 1_545 S
C1301 C1302 1.369 . S
C1301 C1303 1.419 . S
C1301 H1305 0.930 . S
C1302 C1301 1.369 . S
C1302 C1311 1.429 . S
C1303 C1301 1.419 . S
C1303 C1304 1.363 . S
C1303 H1306 0.929 . S
C1304 C1303 1.363 . S
C1304 C1310 1.428 . S
H1305 C1301 0.930 . S
H1306 C1303 0.929 . S
S1307 N1308 1.613 . S
S1307 N1309 1.610 . S
N1308 S1307 1.613 . S
N1308 C1311 1.350 . S
N1309 S1307 1.610 . S
N1309 C1310 1.351 . S
C1310 C1304 1.428 . S
C1310 N1309 1.351 . S
C1310 C1311 1.434 . S
C1311 C1302 1.429 . S
C1311 N1308 1.350 . S
C1311 C1310 1.434 . S
C1312 C1313 1.369 . S
C1312 C1314 1.419 1_455 S
C1312 H1316 0.930 . S
C1313 C1312 1.369 . S
C1313 C1322 1.429 . S
C1314 C1312 1.419 1_655 S
C1314 C1315 1.363 . S
C1314 H1317 0.929 . S
C1315 C1314 1.363 . S
C1315 C1321 1.428 . S
H1316 C1312 0.930 . S
H1317 C1314 0.929 . S
S1318 N1319 1.613 1_655 S
S1318 N1320 1.610 . S
N1319 S1318 1.613 1_455 S
N1319 C1322 1.350 . S
N1320 S1318 1.610 . S
N1320 C1321 1.351 . S
C1321 C1315 1.428 . S
C1321 N1320 1.351 . S
C1321 C1322 1.434 1_655 S
C1322 C1313 1.429 . S
C1322 N1319 1.350 . S
C1322 C1321 1.434 1_455 S
C1323 C1324 1.375 . S
C1323 C1325 1.409 1_655 S
C1323 H1327 0.945 1_655 S
C1324 C1323 1.375 . S
C1324 C1333 1.429 . S
C1325 C1323 1.409 1_455 S
C1325 C1326 1.363 . S
C1325 H1328 0.929 . S
C1326 C1325 1.363 . S
C1326 C1332 1.417 1_455 S
H1327 C1323 0.945 1_455 S
H1328 C1325 0.929 . S
S1329 N1330 1.613 . S
S1329 N1331 1.610 . S
N1330 S1329 1.613 . S
N1330 C1333 1.350 . S
N1331 S1329 1.610 . S
N1331 C1332 1.346 . S
C1332 C1326 1.417 1_655 S
C1332 N1331 1.346 . S
C1332 C1333 1.453 . S
C1333 C1324 1.429 . S
C1333 N1330 1.350 . S
C1333 C1332 1.453 . S
C1334 C1335 1.369 . S
C1334 C1336 1.419 1_545 S
C1334 H1338 0.930 . S
C1335 C1334 1.369 . S
C1335 C1344 1.429 . S
C1336 C1334 1.419 1_565 S
C1336 C1337 1.363 . S
C1336 H1339 0.929 . S
C1337 C1336 1.363 . S
C1337 C1343 1.428 . S
H1338 C1334 0.930 . S
H1339 C1336 0.929 . S
S1340 N1341 1.613 1_565 S
S1340 N1342 1.610 . S
N1341 S1340 1.613 1_545 S
N1341 C1344 1.350 . S
N1342 S1340 1.610 . S
N1342 C1343 1.351 . S
C1343 C1337 1.428 . S
C1343 N1342 1.351 . S
C1343 C1344 1.434 1_565 S
C1344 C1335 1.429 . S
C1344 N1341 1.350 . S
C1344 C1343 1.434 1_545 S
C1345 C1346 1.369 . S
C1345 C1347 1.419 . S
C1345 H1349 0.930 . S
C1346 C1345 1.369 . S
C1346 C1355 1.429 . S
C1347 C1345 1.419 . S
C1347 C1348 1.363 . S
C1347 H1350 0.929 . S
C1348 C1347 1.363 . S
C1348 C1354 1.428 . S
H1349 C1345 0.930 . S
H1350 C1347 0.929 . S
S1351 N1352 1.613 . S
S1351 N1353 1.610 . S
N1352 S1351 1.613 . S
N1352 C1355 1.350 . S
N1353 S1351 1.610 . S
N1353 C1354 1.351 . S
C1354 C1348 1.428 . S
C1354 N1353 1.351 . S
C1354 C1355 1.434 . S
C1355 C1346 1.429 . S
C1355 N1352 1.350 . S
C1355 C1354 1.434 . S
C1356 C1357 1.369 . S
C1356 C1358 1.419 . S
C1356 H1360 0.930 . S
C1357 C1356 1.369 . S
C1357 C1366 1.429 . S
C1358 C1356 1.419 . S
C1358 C1359 1.363 . S
C1358 H1361 0.929 . S
C1359 C1358 1.363 . S
C1359 C1365 1.428 . S
H1360 C1356 0.930 . S
H1361 C1358 0.929 . S
S1362 N1363 1.613 . S
S1362 N1364 1.610 . S
N1363 S1362 1.613 . S
N1363 C1366 1.350 . S
N1364 S1362 1.610 . S
N1364 C1365 1.351 . S
C1365 C1359 1.428 . S
C1365 N1364 1.351 . S
C1365 C1366 1.434 . S
C1366 C1357 1.429 . S
C1366 N1363 1.350 . S
C1366 C1365 1.434 . S
C1367 C1368 1.369 . S
C1367 C1369 1.419 . S
C1367 H1371 0.930 . S
C1368 C1367 1.369 . S
C1368 C1377 1.429 . S
C1369 C1367 1.419 . S
C1369 C1370 1.363 . S
C1369 H1372 0.929 . S
C1370 C1369 1.363 . S
C1370 C1376 1.428 . S
H1371 C1367 0.930 . S
H1372 C1369 0.929 . S
S1373 N1374 1.613 . S
S1373 N1375 1.610 . S
N1374 S1373 1.613 . S
N1374 C1377 1.350 . S
N1375 S1373 1.610 . S
N1375 C1376 1.351 . S
C1376 C1370 1.428 . S
C1376 N1375 1.351 . S
C1376 C1377 1.434 . S
C1377 C1368 1.429 . S
C1377 N1374 1.350 . S
C1377 C1376 1.434 . S
C1378 C1379 1.369 . S
C1378 C1380 1.419 . S
C1378 H1382 0.930 . S
C1379 C1378 1.369 . S
C1379 C1388 1.429 . S
C1380 C1378 1.419 . S
C1380 C1381 1.363 . S
C1380 H1383 0.929 . S
C1381 C1380 1.363 . S
C1381 C1387 1.428 . S
H1382 C1378 0.930 . S
H1383 C1380 0.929 . S
S1384 N1385 1.613 . S
S1384 N1386 1.610 . S
N1385 S1384 1.613 . S
N1385 C1388 1.350 . S
N1386 S1384 1.610 . S
N1386 C1387 1.351 . S
C1387 C1381 1.428 . S
C1387 N1386 1.351 . S
C1387 C1388 1.434 . S
C1388 C1379 1.429 . S
C1388 N1385 1.350 . S
C1388 C1387 1.434 . S
C1389 C1390 1.369 . S
C1389 C1391 1.419 . S
C1389 H1393 0.930 . S
C1390 C1389 1.369 . S
C1390 C1399 1.429 . S
C1391 C1389 1.419 . S
C1391 C1392 1.363 . S
C1391 H1394 0.929 . S
C1392 C1391 1.363 . S
C1392 C1398 1.428 . S
H1393 C1389 0.930 . S
H1394 C1391 0.929 . S
S1395 N1396 1.613 . S
S1395 N1397 1.610 . S
N1396 S1395 1.613 . S
N1396 C1399 1.350 . S
N1397 S1395 1.610 . S
N1397 C1398 1.351 . S
C1398 C1392 1.428 . S
C1398 N1397 1.351 . S
C1398 C1399 1.434 . S
C1399 C1390 1.429 . S
C1399 N1396 1.350 . S
C1399 C1398 1.434 . S
C1400 C1401 1.369 . S
C1400 C1402 1.419 . S
C1400 H1404 0.930 . S
C1401 C1400 1.369 . S
C1401 C1410 1.429 . S
C1402 C1400 1.419 . S
C1402 C1403 1.363 . S
C1402 H1405 0.929 . S
C1403 C1402 1.363 . S
C1403 C1409 1.428 . S
H1404 C1400 0.930 . S
H1405 C1402 0.929 . S
S1406 N1407 1.613 . S
S1406 N1408 1.610 . S
N1407 S1406 1.613 . S
N1407 C1410 1.350 . S
N1408 S1406 1.610 . S
N1408 C1409 1.351 . S
C1409 C1403 1.428 . S
C1409 N1408 1.351 . S
C1409 C1410 1.434 . S
C1410 C1401 1.429 . S
C1410 N1407 1.350 . S
C1410 C1409 1.434 . S
C1411 C1412 1.369 . S
C1411 C1413 1.419 . S
C1411 H1415 0.930 . S
C1412 C1411 1.369 . S
C1412 C1421 1.429 . S
C1413 C1411 1.419 . S
C1413 C1414 1.363 . S
C1413 H1416 0.929 . S
C1414 C1413 1.363 . S
C1414 C1420 1.428 . S
H1415 C1411 0.930 . S
H1416 C1413 0.929 . S
S1417 N1418 1.613 . S
S1417 N1419 1.610 . S
N1418 S1417 1.613 . S
N1418 C1421 1.350 . S
N1419 S1417 1.610 . S
N1419 C1420 1.351 . S
C1420 C1414 1.428 . S
C1420 N1419 1.351 . S
C1420 C1421 1.434 . S
C1421 C1412 1.429 . S
C1421 N1418 1.350 . S
C1421 C1420 1.434 . S
C1422 C1423 1.369 . S
C1422 C1424 1.419 . S
C1422 H1426 0.930 . S
C1423 C1422 1.369 . S
C1423 C1432 1.429 . S
C1424 C1422 1.419 . S
C1424 C1425 1.363 . S
C1424 H1427 0.929 . S
C1425 C1424 1.363 . S
C1425 C1431 1.428 . S
H1426 C1422 0.930 . S
H1427 C1424 0.929 . S
S1428 N1429 1.613 . S
S1428 N1430 1.610 . S
N1429 S1428 1.613 . S
N1429 C1432 1.350 . S
N1430 S1428 1.610 . S
N1430 C1431 1.351 . S
C1431 C1425 1.428 . S
C1431 N1430 1.351 . S
C1431 C1432 1.434 . S
C1432 C1423 1.429 . S
C1432 N1429 1.350 . S
C1432 C1431 1.434 . S
C1433 C1434 1.369 . S
C1433 C1435 1.419 . S
C1433 H1437 0.930 . S
C1434 C1433 1.369 . S
C1434 C1443 1.429 . S
C1435 C1433 1.419 . S
C1435 C1436 1.363 . S
C1435 H1438 0.929 . S
C1436 C1435 1.363 . S
C1436 C1442 1.428 . S
H1437 C1433 0.930 . S
H1438 C1435 0.929 . S
S1439 N1440 1.613 . S
S1439 N1441 1.610 . S
N1440 S1439 1.613 . S
N1440 C1443 1.350 . S
N1441 S1439 1.610 . S
N1441 C1442 1.351 . S
C1442 C1436 1.428 . S
C1442 N1441 1.351 . S
C1442 C1443 1.434 . S
C1443 C1434 1.429 . S
C1443 N1440 1.350 . S
C1443 C1442 1.434 . S
C1444 C1445 1.369 . S
C1444 C1446 1.419 . S
C1444 H1448 0.930 . S
C1445 C1444 1.369 . S
C1445 C1454 1.429 . S
C1446 C1444 1.419 . S
C1446 C1447 1.363 . S
C1446 H1449 0.929 . S
C1447 C1446 1.363 . S
C1447 C1453 1.428 . S
H1448 C1444 0.930 . S
H1449 C1446 0.929 . S
S1450 N1451 1.613 . S
S1450 N1452 1.610 . S
N1451 S1450 1.613 . S
N1451 C1454 1.350 . S
N1452 S1450 1.610 . S
N1452 C1453 1.351 . S
C1453 C1447 1.428 . S
C1453 N1452 1.351 . S
C1453 C1454 1.434 . S
C1454 C1445 1.429 . S
C1454 N1451 1.350 . S
C1454 C1453 1.434 . S
C1455 C1456 1.369 . S
C1455 C1457 1.419 . S
C1455 H1459 0.930 . S
C1456 C1455 1.369 . S
C1456 C1465 1.429 . S
C1457 C1455 1.419 . S
C1457 C1458 1.363 . S
C1457 H1460 0.929 . S
C1458 C1457 1.363 . S
C1458 C1464 1.428 . S
H1459 C1455 0.930 . S
H1460 C1457 0.929 . S
S1461 N1462 1.613 . S
S1461 N1463 1.610 . S
N1462 S1461 1.613 . S
N1462 C1465 1.350 . S
N1463 S1461 1.610 . S
N1463 C1464 1.351 . S
C1464 C1458 1.428 . S
C1464 N1463 1.351 . S
C1464 C1465 1.434 . S
C1465 C1456 1.429 . S
C1465 N1462 1.350 . S
C1465 C1464 1.434 . S
C1466 C1467 1.369 . S
C1466 C1468 1.419 . S
C1466 H1470 0.930 . S
C1467 C1466 1.369 . S
C1467 C1476 1.429 . S
C1468 C1466 1.419 . S
C1468 C1469 1.363 . S
C1468 H1471 0.929 . S
C1469 C1468 1.363 . S
C1469 C1475 1.428 . S
H1470 C1466 0.930 . S
H1471 C1468 0.929 . S
S1472 N1473 1.613 . S
S1472 N1474 1.610 . S
N1473 S1472 1.613 . S
N1473 C1476 1.350 . S
N1474 S1472 1.610 . S
N1474 C1475 1.351 . S
C1475 C1469 1.428 . S
C1475 N1474 1.351 . S
C1475 C1476 1.434 . S
C1476 C1467 1.429 . S
C1476 N1473 1.350 . S
C1476 C1475 1.434 . S
C1477 C1478 1.369 . S
C1477 C1479 1.419 . S
C1477 H1481 0.930 . S
C1478 C1477 1.369 . S
C1478 C1487 1.429 . S
C1479 C1477 1.419 . S
C1479 C1480 1.363 . S
C1479 H1482 0.929 . S
C1480 C1479 1.363 . S
C1480 C1486 1.428 . S
H1481 C1477 0.930 . S
H1482 C1479 0.929 . S
S1483 N1484 1.613 . S
S1483 N1485 1.610 . S
N1484 S1483 1.613 . S
N1484 C1487 1.350 . S
N1485 S1483 1.610 . S
N1485 C1486 1.351 . S
C1486 C1480 1.428 . S
C1486 N1485 1.351 . S
C1486 C1487 1.434 . S
C1487 C1478 1.429 . S
C1487 N1484 1.350 . S
C1487 C1486 1.434 . S
C1488 C1489 1.369 . S
C1488 C1490 1.419 . S
C1488 H1492 0.930 . S
C1489 C1488 1.369 . S
C1489 C1498 1.429 . S
C1490 C1488 1.419 . S
C1490 C1491 1.363 . S
C1490 H1493 0.929 . S
C1491 C1490 1.363 . S
C1491 C1497 1.428 . S
H1492 C1488 0.930 . S
H1493 C1490 0.929 . S
S1494 N1495 1.613 . S
S1494 N1496 1.610 . S
N1495 S1494 1.613 . S
N1495 C1498 1.350 . S
N1496 S1494 1.610 . S
N1496 C1497 1.351 . S
C1497 C1491 1.428 . S
C1497 N1496 1.351 . S
C1497 C1498 1.434 . S
C1498 C1489 1.429 . S
C1498 N1495 1.350 . S
C1498 C1497 1.434 . S
C1499 C1500 1.369 . S
C1499 C1501 1.419 . S
C1499 H1503 0.930 . S
C1500 C1499 1.369 . S
C1500 C1509 1.429 . S
C1501 C1499 1.419 . S
C1501 C1502 1.363 . S
C1501 H1504 0.929 . S
C1502 C1501 1.363 . S
C1502 C1508 1.428 . S
H1503 C1499 0.930 . S
H1504 C1501 0.929 . S
S1505 N1506 1.613 . S
S1505 N1507 1.610 . S
N1506 S1505 1.613 . S
N1506 C1509 1.350 . S
N1507 S1505 1.610 . S
N1507 C1508 1.351 . S
C1508 C1502 1.428 . S
C1508 N1507 1.351 . S
C1508 C1509 1.434 . S
C1509 C1500 1.429 . S
C1509 N1506 1.350 . S
C1509 C1508 1.434 . S
C1510 C1511 1.369 . S
C1510 C1512 1.419 . S
C1510 H1514 0.930 . S
C1511 C1510 1.369 . S
C1511 C1520 1.429 . S
C1512 C1510 1.419 . S
C1512 C1513 1.363 . S
C1512 H1515 0.929 . S
C1513 C1512 1.363 . S
C1513 C1519 1.428 . S
H1514 C1510 0.930 . S
H1515 C1512 0.929 . S
S1516 N1517 1.613 . S
S1516 N1518 1.610 . S
N1517 S1516 1.613 . S
N1517 C1520 1.350 . S
N1518 S1516 1.610 . S
N1518 C1519 1.351 . S
C1519 C1513 1.428 . S
C1519 N1518 1.351 . S
C1519 C1520 1.434 . S
C1520 C1511 1.429 . S
C1520 N1517 1.350 . S
C1520 C1519 1.434 . S
C1521 C1522 1.369 . S
C1521 C1523 1.419 . S
C1521 H1525 0.930 . S
C1522 C1521 1.369 . S
C1522 C1531 1.429 . S
C1523 C1521 1.419 . S
C1523 C1524 1.363 . S
C1523 H1526 0.929 . S
C1524 C1523 1.363 . S
C1524 C1530 1.428 . S
H1525 C1521 0.930 . S
H1526 C1523 0.929 . S
S1527 N1528 1.613 . S
S1527 N1529 1.610 . S
N1528 S1527 1.613 . S
N1528 C1531 1.350 . S
N1529 S1527 1.610 . S
N1529 C1530 1.351 . S
C1530 C1524 1.428 . S
C1530 N1529 1.351 . S
C1530 C1531 1.434 . S
C1531 C1522 1.429 . S
C1531 N1528 1.350 . S
C1531 C1530 1.434 . S
C1532 C1533 1.369 . S
C1532 C1534 1.419 . S
C1532 H1536 0.930 . S
C1533 C1532 1.369 . S
C1533 C1542 1.429 . S
C1534 C1532 1.419 . S
C1534 C1535 1.363 . S
C1534 H1537 0.929 . S
C1535 C1534 1.363 . S
C1535 C1541 1.428 . S
H1536 C1532 0.930 . S
H1537 C1534 0.929 . S
S1538 N1539 1.613 . S
S1538 N1540 1.610 . S
N1539 S1538 1.613 . S
N1539 C1542 1.350 . S
N1540 S1538 1.610 . S
N1540 C1541 1.351 . S
C1541 C1535 1.428 . S
C1541 N1540 1.351 . S
C1541 C1542 1.434 . S
C1542 C1533 1.429 . S
C1542 N1539 1.350 . S
C1542 C1541 1.434 . S
C1543 C1544 1.369 . S
C1543 C1545 1.419 . S
C1543 H1547 0.930 . S
C1544 C1543 1.369 . S
C1544 C1553 1.429 . S
C1545 C1543 1.419 . S
C1545 C1546 1.363 . S
C1545 H1548 0.929 . S
C1546 C1545 1.363 . S
C1546 C1552 1.428 . S
H1547 C1543 0.930 . S
H1548 C1545 0.929 . S
S1549 N1550 1.613 . S
S1549 N1551 1.610 . S
N1550 S1549 1.613 . S
N1550 C1553 1.350 . S
N1551 S1549 1.610 . S
N1551 C1552 1.351 . S
C1552 C1546 1.428 . S
C1552 N1551 1.351 . S
C1552 C1553 1.434 . S
C1553 C1544 1.429 . S
C1553 N1550 1.350 . S
C1553 C1552 1.434 . S
C1554 C1555 1.369 . S
C1554 C1556 1.419 . S
C1554 H1558 0.930 . S
C1555 C1554 1.369 . S
C1555 C1564 1.429 . S
C1556 C1554 1.419 . S
C1556 C1557 1.363 . S
C1556 H1559 0.929 . S
C1557 C1556 1.363 . S
C1557 C1563 1.428 . S
H1558 C1554 0.930 . S
H1559 C1556 0.929 . S
S1560 N1561 1.613 . S
S1560 N1562 1.610 . S
N1561 S1560 1.613 . S
N1561 C1564 1.350 . S
N1562 S1560 1.610 . S
N1562 C1563 1.351 . S
C1563 C1557 1.428 . S
C1563 N1562 1.351 . S
C1563 C1564 1.434 . S
C1564 C1555 1.429 . S
C1564 N1561 1.350 . S
C1564 C1563 1.434 . S
C1565 C1566 1.369 . S
C1565 C1567 1.419 . S
C1565 H1569 0.930 . S
C1566 C1565 1.369 . S
C1566 C1575 1.429 . S
C1567 C1565 1.419 . S
C1567 C1568 1.363 . S
C1567 H1570 0.929 . S
C1568 C1567 1.363 . S
C1568 C1574 1.428 . S
H1569 C1565 0.930 . S
H1570 C1567 0.929 . S
S1571 N1572 1.613 . S
S1571 N1573 1.610 . S
N1572 S1571 1.613 . S
N1572 C1575 1.350 . S
N1573 S1571 1.610 . S
N1573 C1574 1.351 . S
C1574 C1568 1.428 . S
C1574 N1573 1.351 . S
C1574 C1575 1.434 . S
C1575 C1566 1.429 . S
C1575 N1572 1.350 . S
C1575 C1574 1.434 . S
C1576 C1577 1.369 . S
C1576 C1578 1.419 . S
C1576 H1580 0.930 . S
C1577 C1576 1.369 . S
C1577 C1586 1.429 . S
C1578 C1576 1.419 . S
C1578 C1579 1.363 . S
C1578 H1581 0.929 . S
C1579 C1578 1.363 . S
C1579 C1585 1.428 . S
H1580 C1576 0.930 . S
H1581 C1578 0.929 . S
S1582 N1583 1.613 . S
S1582 N1584 1.610 . S
N1583 S1582 1.613 . S
N1583 C1586 1.350 . S
N1584 S1582 1.610 . S
N1584 C1585 1.351 . S
C1585 C1579 1.428 . S
C1585 N1584 1.351 . S
C1585 C1586 1.434 . S
C1586 C1577 1.429 . S
C1586 N1583 1.350 . S
C1586 C1585 1.434 . S
C1587 C1588 1.369 . S
C1587 C1589 1.419 . S
C1587 H1591 0.930 . S
C1588 C1587 1.369 . S
C1588 C1597 1.429 . S
C1589 C1587 1.419 . S
C1589 C1590 1.363 . S
C1589 H1592 0.929 . S
C1590 C1589 1.363 . S
C1590 C1596 1.428 . S
H1591 C1587 0.930 . S
H1592 C1589 0.929 . S
S1593 N1594 1.613 . S
S1593 N1595 1.610 . S
N1594 S1593 1.613 . S
N1594 C1597 1.350 . S
N1595 S1593 1.610 . S
N1595 C1596 1.351 . S
C1596 C1590 1.428 . S
C1596 N1595 1.351 . S
C1596 C1597 1.434 . S
C1597 C1588 1.429 . S
C1597 N1594 1.350 . S
C1597 C1596 1.434 . S
C1598 C1599 1.369 . S
C1598 C1600 1.419 . S
C1598 H1602 0.930 . S
C1599 C1598 1.369 . S
C1599 C1608 1.429 . S
C1600 C1598 1.419 . S
C1600 C1601 1.363 . S
C1600 H1603 0.929 . S
C1601 C1600 1.363 . S
C1601 C1607 1.428 . S
H1602 C1598 0.930 . S
H1603 C1600 0.929 . S
S1604 N1605 1.613 . S
S1604 N1606 1.610 . S
N1605 S1604 1.613 . S
N1605 C1608 1.350 . S
N1606 S1604 1.610 . S
N1606 C1607 1.351 . S
C1607 C1601 1.428 . S
C1607 N1606 1.351 . S
C1607 C1608 1.434 . S
C1608 C1599 1.429 . S
C1608 N1605 1.350 . S
C1608 C1607 1.434 . S
C1609 C1610 1.369 . S
C1609 C1611 1.419 . S
C1609 H1613 0.930 . S
C1610 C1609 1.369 . S
C1610 C1619 1.429 . S
C1611 C1609 1.419 . S
C1611 C1612 1.363 . S
C1611 H1614 0.929 . S
C1612 C1611 1.363 . S
C1612 C1618 1.428 . S
H1613 C1609 0.930 . S
H1614 C1611 0.929 . S
S1615 N1616 1.613 . S
S1615 N1617 1.610 . S
N1616 S1615 1.613 . S
N1616 C1619 1.350 . S
N1617 S1615 1.610 . S
N1617 C1618 1.351 . S
C1618 C1612 1.428 . S
C1618 N1617 1.351 . S
C1618 C1619 1.434 . S
C1619 C1610 1.429 . S
C1619 N1616 1.350 . S
C1619 C1618 1.434 . S
C697 C8 1.299 1_565 S
C699 C166 1.248 . S
C708 C37 1.299 . S
C710 C21 1.249 . S
C719 C66 1.301 1_455 S
C721 C50 1.247 . S
C730 C79 1.240 . S
C732 C95 1.305 1_545 S
C741 C124 1.302 . S
C743 C108 1.245 . S
C752 C153 1.299 1_655 S
C754 C137 1.253 . S
C763 C224 1.247 . S
C765 C182 1.305 1_455 S
C774 C253 1.251 . S
C776 C211 1.299 1_545 S
C785 C282 1.251 . S
C787 C240 1.300 . S
C796 C269 1.307 1_655 S
C798 C311 1.242 . S
C807 C340 1.243 . S
C809 C298 1.306 1_565 S
C818 C327 1.307 . S
C820 C195 1.242 . S
C829 C514 1.240 . S
C831 C356 1.304 1_545 S
C840 C369 1.241 . S
C842 C385 1.303 . S
C851 C414 1.305 1_655 S
C853 C398 1.242 . S
C862 C443 1.299 1_565 S
C864 C427 1.249 . S
C873 C472 1.299 . S
C875 C456 1.249 . S
C884 C501 1.303 1_455 S
C886 C485 1.243 . S
C895 C572 1.241 . S
C897 C530 1.303 1_655 S
C906 C601 1.253 . S
C908 C559 1.302 1_565 S
C917 C588 1.307 . S
C919 C630 1.245 . S
C928 C617 1.307 1_455 S
C930 C659 1.242 . S
C939 C646 1.306 1_545 S
C941 C688 1.247 . S
C950 C543 1.245 . S
C952 C675 1.306 . S
C961 C10 1.502 . S
C963 C445 1.503 . S
C972 C39 1.502 . S
C974 C474 1.503 . S
C983 C68 1.506 . S
C985 C503 1.506 . S
C994 C358 1.512 . S
C996 C97 1.511 . S
C1005 C126 1.506 . S
C1007 C387 1.507 . S
C1016 C155 1.502 . S
C1018 C416 1.503 . S
C1027 C619 1.504 . S
C1029 C184 1.504 . S
C1038 C648 1.503 . S
C1040 C213 1.504 . S
C1049 C677 1.505 . S
C1051 C242 1.505 . S
C1060 C532 1.502 . S
C1062 C271 1.503 . S
C1071 C300 1.512 . S
C1073 C561 1.510 . S
C1082 C329 1.502 . S
C1084 C590 1.503 . S
C1093 C5 1.554 . S
C1095 C237 1.547 . S
C1104 C34 1.553 . S
C1106 C266 1.546 . S
C1115 C63 1.550 . S
C1117 C295 1.547 . S
C1126 C92 1.551 . S
C1128 C324 1.547 . S
C1137 C121 1.550 . S
C1139 C179 1.547 . S
C1148 C150 1.550 . S
C1150 C208 1.552 . S
C1159 C585 1.550 . S
C1161 C353 1.546 . S
C1170 C382 1.549 . S
C1172 C614 1.553 . S
C1181 C643 1.545 . S
C1183 C411 1.552 . S
C1192 C440 1.549 . S
C1194 C672 1.547 . S
C1203 C469 1.546 . S
C1205 C527 1.553 . S
C1214 C498 1.554 . S
C1216 C556 1.547 . S
C1225 C15 1.224 . S
C1227 C102 1.226 . S
C1236 C131 1.226 . S
C1238 C44 1.226 . S
C1247 C73 1.220 . S
C1249 C160 1.219 . S
C1258 C276 1.218 . S
C1260 C189 1.220 . S
C1269 C305 1.221 . S
C1271 C218 1.224 . S
C1280 C247 1.228 . S
C1282 C334 1.226 . S
C1291 C450 1.226 . S
C1293 C363 1.226 . S
C1302 C479 1.226 . S
C1304 C392 1.226 . S
C1313 C421 1.220 . S
C1315 C508 1.219 . S
C1324 C624 1.218 . S
C1326 C537 1.221 . S
C1335 C566 1.220 . S
C1337 C653 1.219 . S
C1346 C682 1.227 . S
C1348 C595 1.226 . S
C1357 C61 2.141 . S
C1359 C13 2.081 . S
C1368 C42 2.074 . S
C1370 C90 2.145 . S
C1379 C119 2.144 . S
C1381 C71 2.074 . S
C1390 C148 2.143 . S
C1392 C100 2.074 . S
C1401 C129 2.073 . S
C1403 C3 2.144 . S
C1412 C158 2.075 . S
C1414 C32 2.146 . S
C1423 C187 2.080 . S
C1425 C293 2.140 . S
C1434 C322 2.141 . S
C1436 C216 2.081 . S
C1445 C177 2.146 . S
C1447 C245 2.077 . S
C1456 C274 2.073 . S
C1458 C206 2.145 . S
C1467 C303 2.082 . S
C1469 C235 2.141 . S
C1478 C332 2.082 . S
C1480 C264 2.141 . S
C1489 C361 2.079 . S
C1491 C409 2.144 . S
C1500 C390 2.075 . S
C1502 C438 2.145 . S
C1511 C419 2.073 . S
C1513 C467 2.144 . S
C1522 C496 2.146 . S
C1524 C448 2.076 . S
C1533 C477 2.077 . S
C1535 C351 2.141 . S
C1544 C380 2.141 . S
C1546 C506 2.081 . S
C1555 C535 2.073 . S
C1557 C641 2.144 . S
C1566 C670 2.140 . S
C1568 C564 2.080 . S
C1577 C593 2.081 . S
C1579 C525 2.142 . S
C1588 C554 2.145 . S
C1590 C622 2.074 . S
C1599 C583 2.146 . S
C1601 C651 2.075 . S
C1610 C680 2.081 . S
C1612 C612 2.142 . S
