# Generated by pormake.
# Topology unr, (4)-cn, num edge types: 1
# Building blocks:
#     Node 0, Type 0, BuildingBlock: ICAMEG_clean_sbu_1, # of connection points: 4
#     Node 1, Type 0, BuildingBlock: ICAMEG_clean_sbu_1, # of connection points: 4
#     Node 2, Type 0, BuildingBlock: ICAMEG_clean_sbu_1, # of connection points: 4
#     Node 3, Type 0, BuildingBlock: ICAMEG_clean_sbu_1, # of connection points: 4
#     Node 4, Type 0, BuildingBlock: ICAMEG_clean_sbu_1, # of connection points: 4
#     Node 5, Type 0, BuildingBlock: ICAMEG_clean_sbu_1, # of connection points: 4
#     Node 6, Type 0, BuildingBlock: ICAMEG_clean_sbu_1, # of connection points: 4
#     Node 7, Type 0, BuildingBlock: ICAMEG_clean_sbu_1, # of connection points: 4
#     Node 8, Type 0, BuildingBlock: ICAMEG_clean_sbu_1, # of connection points: 4
#     Node 9, Type 0, BuildingBlock: ICAMEG_clean_sbu_1, # of connection points: 4
#     Node 10, Type 0, BuildingBlock: ICAMEG_clean_sbu_1, # of connection points: 4
#     Node 11, Type 0, BuildingBlock: ICAMEG_clean_sbu_1, # of connection points: 4
#     Node 12, Type 0, BuildingBlock: ICAMEG_clean_sbu_1, # of connection points: 4
#     Node 13, Type 0, BuildingBlock: ICAMEG_clean_sbu_1, # of connection points: 4
#     Node 14, Type 0, BuildingBlock: ICAMEG_clean_sbu_1, # of connection points: 4
#     Node 15, Type 0, BuildingBlock: ICAMEG_clean_sbu_1, # of connection points: 4
#     Node 16, Type 0, BuildingBlock: ICAMEG_clean_sbu_1, # of connection points: 4
#     Node 17, Type 0, BuildingBlock: ICAMEG_clean_sbu_1, # of connection points: 4
#     Node 18, Type 0, BuildingBlock: ICAMEG_clean_sbu_1, # of connection points: 4
#     Node 19, Type 0, BuildingBlock: ICAMEG_clean_sbu_1, # of connection points: 4
#     Node 20, Type 0, BuildingBlock: ICAMEG_clean_sbu_1, # of connection points: 4
#     Node 21, Type 0, BuildingBlock: ICAMEG_clean_sbu_1, # of connection points: 4
#     Node 22, Type 0, BuildingBlock: ICAMEG_clean_sbu_1, # of connection points: 4
#     Node 23, Type 0, BuildingBlock: ICAMEG_clean_sbu_1, # of connection points: 4
#     Node 24, Type 0, BuildingBlock: ICAMEG_clean_sbu_1, # of connection points: 4
#     Node 25, Type 0, BuildingBlock: ICAMEG_clean_sbu_1, # of connection points: 4
#     Node 26, Type 0, BuildingBlock: ICAMEG_clean_sbu_1, # of connection points: 4
#     Node 27, Type 0, BuildingBlock: ICAMEG_clean_sbu_1, # of connection points: 4
#     Node 28, Type 0, BuildingBlock: ICAMEG_clean_sbu_1, # of connection points: 4
#     Node 29, Type 0, BuildingBlock: ICAMEG_clean_sbu_1, # of connection points: 4
#     Node 30, Type 0, BuildingBlock: ICAMEG_clean_sbu_1, # of connection points: 4
#     Node 31, Type 0, BuildingBlock: ICAMEG_clean_sbu_1, # of connection points: 4
#     Node 32, Type 0, BuildingBlock: ICAMEG_clean_sbu_1, # of connection points: 4
#     Node 33, Type 0, BuildingBlock: ICAMEG_clean_sbu_1, # of connection points: 4
#     Node 34, Type 0, BuildingBlock: ICAMEG_clean_sbu_1, # of connection points: 4
#     Node 35, Type 0, BuildingBlock: ICAMEG_clean_sbu_1, # of connection points: 4
#     Edge 36, Type (0, 0), BuildingBlock: AJUNOK_clean_linker_0, # of connection points: 2
#     Edge 37, Type (0, 0), BuildingBlock: AJUNOK_clean_linker_0, # of connection points: 2
#     Edge 38, Type (0, 0), BuildingBlock: AJUNOK_clean_linker_0, # of connection points: 2
#     Edge 39, Type (0, 0), BuildingBlock: AJUNOK_clean_linker_0, # of connection points: 2
#     Edge 40, Type (0, 0), BuildingBlock: AJUNOK_clean_linker_0, # of connection points: 2
#     Edge 41, Type (0, 0), BuildingBlock: AJUNOK_clean_linker_0, # of connection points: 2
#     Edge 42, Type (0, 0), BuildingBlock: AJUNOK_clean_linker_0, # of connection points: 2
#     Edge 43, Type (0, 0), BuildingBlock: AJUNOK_clean_linker_0, # of connection points: 2
#     Edge 44, Type (0, 0), BuildingBlock: AJUNOK_clean_linker_0, # of connection points: 2
#     Edge 45, Type (0, 0), BuildingBlock: AJUNOK_clean_linker_0, # of connection points: 2
#     Edge 46, Type (0, 0), BuildingBlock: AJUNOK_clean_linker_0, # of connection points: 2
#     Edge 47, Type (0, 0), BuildingBlock: AJUNOK_clean_linker_0, # of connection points: 2
#     Edge 48, Type (0, 0), BuildingBlock: AJUNOK_clean_linker_0, # of connection points: 2
#     Edge 49, Type (0, 0), BuildingBlock: AJUNOK_clean_linker_0, # of connection points: 2
#     Edge 50, Type (0, 0), BuildingBlock: AJUNOK_clean_linker_0, # of connection points: 2
#     Edge 51, Type (0, 0), BuildingBlock: AJUNOK_clean_linker_0, # of connection points: 2
#     Edge 52, Type (0, 0), BuildingBlock: AJUNOK_clean_linker_0, # of connection points: 2
#     Edge 53, Type (0, 0), BuildingBlock: AJUNOK_clean_linker_0, # of connection points: 2
#     Edge 54, Type (0, 0), BuildingBlock: AJUNOK_clean_linker_0, # of connection points: 2
#     Edge 55, Type (0, 0), BuildingBlock: AJUNOK_clean_linker_0, # of connection points: 2
#     Edge 56, Type (0, 0), BuildingBlock: AJUNOK_clean_linker_0, # of connection points: 2
#     Edge 57, Type (0, 0), BuildingBlock: AJUNOK_clean_linker_0, # of connection points: 2
#     Edge 58, Type (0, 0), BuildingBlock: AJUNOK_clean_linker_0, # of connection points: 2
#     Edge 59, Type (0, 0), BuildingBlock: AJUNOK_clean_linker_0, # of connection points: 2
#     Edge 60, Type (0, 0), BuildingBlock: AJUNOK_clean_linker_0, # of connection points: 2
#     Edge 61, Type (0, 0), BuildingBlock: AJUNOK_clean_linker_0, # of connection points: 2
#     Edge 62, Type (0, 0), BuildingBlock: AJUNOK_clean_linker_0, # of connection points: 2
#     Edge 63, Type (0, 0), BuildingBlock: AJUNOK_clean_linker_0, # of connection points: 2
#     Edge 64, Type (0, 0), BuildingBlock: AJUNOK_clean_linker_0, # of connection points: 2
#     Edge 65, Type (0, 0), BuildingBlock: AJUNOK_clean_linker_0, # of connection points: 2
#     Edge 66, Type (0, 0), BuildingBlock: AJUNOK_clean_linker_0, # of connection points: 2
#     Edge 67, Type (0, 0), BuildingBlock: AJUNOK_clean_linker_0, # of connection points: 2
#     Edge 68, Type (0, 0), BuildingBlock: AJUNOK_clean_linker_0, # of connection points: 2
#     Edge 69, Type (0, 0), BuildingBlock: AJUNOK_clean_linker_0, # of connection points: 2
#     Edge 70, Type (0, 0), BuildingBlock: AJUNOK_clean_linker_0, # of connection points: 2
#     Edge 71, Type (0, 0), BuildingBlock: AJUNOK_clean_linker_0, # of connection points: 2
#     Edge 72, Type (0, 0), BuildingBlock: AJUNOK_clean_linker_0, # of connection points: 2
#     Edge 73, Type (0, 0), BuildingBlock: AJUNOK_clean_linker_0, # of connection points: 2
#     Edge 74, Type (0, 0), BuildingBlock: AJUNOK_clean_linker_0, # of connection points: 2
#     Edge 75, Type (0, 0), BuildingBlock: AJUNOK_clean_linker_0, # of connection points: 2
#     Edge 76, Type (0, 0), BuildingBlock: AJUNOK_clean_linker_0, # of connection points: 2
#     Edge 77, Type (0, 0), BuildingBlock: AJUNOK_clean_linker_0, # of connection points: 2
#     Edge 78, Type (0, 0), BuildingBlock: AJUNOK_clean_linker_0, # of connection points: 2
#     Edge 79, Type (0, 0), BuildingBlock: AJUNOK_clean_linker_0, # of connection points: 2
#     Edge 80, Type (0, 0), BuildingBlock: AJUNOK_clean_linker_0, # of connection points: 2
#     Edge 81, Type (0, 0), BuildingBlock: AJUNOK_clean_linker_0, # of connection points: 2
#     Edge 82, Type (0, 0), BuildingBlock: AJUNOK_clean_linker_0, # of connection points: 2
#     Edge 83, Type (0, 0), BuildingBlock: AJUNOK_clean_linker_0, # of connection points: 2
#     Edge 84, Type (0, 0), BuildingBlock: AJUNOK_clean_linker_0, # of connection points: 2
#     Edge 85, Type (0, 0), BuildingBlock: AJUNOK_clean_linker_0, # of connection points: 2
#     Edge 86, Type (0, 0), BuildingBlock: AJUNOK_clean_linker_0, # of connection points: 2
#     Edge 87, Type (0, 0), BuildingBlock: AJUNOK_clean_linker_0, # of connection points: 2
#     Edge 88, Type (0, 0), BuildingBlock: AJUNOK_clean_linker_0, # of connection points: 2
#     Edge 89, Type (0, 0), BuildingBlock: AJUNOK_clean_linker_0, # of connection points: 2
#     Edge 90, Type (0, 0), BuildingBlock: AJUNOK_clean_linker_0, # of connection points: 2
#     Edge 91, Type (0, 0), BuildingBlock: AJUNOK_clean_linker_0, # of connection points: 2
#     Edge 92, Type (0, 0), BuildingBlock: AJUNOK_clean_linker_0, # of connection points: 2
#     Edge 93, Type (0, 0), BuildingBlock: AJUNOK_clean_linker_0, # of connection points: 2
#     Edge 94, Type (0, 0), BuildingBlock: AJUNOK_clean_linker_0, # of connection points: 2
#     Edge 95, Type (0, 0), BuildingBlock: AJUNOK_clean_linker_0, # of connection points: 2
#     Edge 96, Type (0, 0), BuildingBlock: AJUNOK_clean_linker_0, # of connection points: 2
#     Edge 97, Type (0, 0), BuildingBlock: AJUNOK_clean_linker_0, # of connection points: 2
#     Edge 98, Type (0, 0), BuildingBlock: AJUNOK_clean_linker_0, # of connection points: 2
#     Edge 99, Type (0, 0), BuildingBlock: AJUNOK_clean_linker_0, # of connection points: 2
#     Edge 100, Type (0, 0), BuildingBlock: AJUNOK_clean_linker_0, # of connection points: 2
#     Edge 101, Type (0, 0), BuildingBlock: AJUNOK_clean_linker_0, # of connection points: 2
#     Edge 102, Type (0, 0), BuildingBlock: AJUNOK_clean_linker_0, # of connection points: 2
#     Edge 103, Type (0, 0), BuildingBlock: AJUNOK_clean_linker_0, # of connection points: 2
#     Edge 104, Type (0, 0), BuildingBlock: AJUNOK_clean_linker_0, # of connection points: 2
#     Edge 105, Type (0, 0), BuildingBlock: AJUNOK_clean_linker_0, # of connection points: 2
#     Edge 106, Type (0, 0), BuildingBlock: AJUNOK_clean_linker_0, # of connection points: 2
#     Edge 107, Type (0, 0), BuildingBlock: AJUNOK_clean_linker_0, # of connection points: 2
# Relax obj value: 0.322
# Max RMSD: 0.109
# Mean RMSD: 0.109
data_MOF--net-unr--node1-ICAMEG_clean_sbu_1--edge1-AJUNOK_clean_linker_0
_symmetry_space_group_name_H-M    P1
_symmetry_Int_Tables_number       1
_symmetry_cell_setting            triclinic
loop_
_symmetry_equiv_pos_as_xyz
'x, y, z'
_cell_length_a     39.032874
_cell_length_b     39.047941
_cell_length_c     89.805151
_cell_angle_alpha  89.975368
_cell_angle_beta   89.983735
_cell_angle_gamma 119.97445
loop_
_atom_site_label
_atom_site_type_symbol
_atom_site_fract_x
_atom_site_fract_y
_atom_site_fract_z
_atom_type_partial_charge
Co0 Co 0.1769 0.14278 0.167 0.0
Co1 Co 0.14237 0.12134 0.20263 0.0
O2 O 0.18621 0.14753 0.18874 0.0
C3 C 0.24624 0.13321 0.17123 0.0
O4 O 0.224 0.10396 0.18024 0.0
C5 C 0.20293 0.19427 0.21896 0.0
O6 O 0.23064 0.20087 0.20925 0.0
O7 O 0.11635 0.14685 0.19227 0.0
O8 O 0.12113 0.13294 0.16877 0.0
H9 H 0.99673 0.04494 0.2116 0.0
H10 H 0.2475 0.21338 0.17917 0.0
O11 O 0.23171 0.15182 0.16457 0.0
H12 H 0.17458 0.26527 0.15112 0.0
H13 H 0.2206 0.17939 0.11378 0.0
H14 H 0.11156 0.08986 0.14682 0.0
H15 H 0.1497 0.19354 0.15233 0.0
H16 H 0.2283 0.18555 0.14107 0.0
O17 O 0.16705 0.16776 0.21667 0.0
H18 H 0.05734 0.06773 0.19727 0.0
H19 H 0.1265 0.12366 0.23572 0.0
H20 H 0.10232 0.08259 0.11962 0.0
H21 H 0.27356 0.28535 0.1782 0.0
H22 H 0.15719 0.12768 0.10287 0.0
H23 H 0.23699 0.31172 0.1641 0.0
O24 O 0.15504 0.08477 0.16858 0.0
H25 H 0.25813 0.10723 0.22019 0.0
H26 H 0.11342 0.04677 0.2206 0.0
H27 H 0.14407 0.01564 0.23463 0.0
H28 H 0.21711 0.04567 0.23456 0.0
H29 H 0.22659 0.13815 0.20662 0.0
H30 H 0.06565 0.10362 0.25013 0.0
H31 H 0.00024 0.06328 0.23816 0.0
O32 O 0.11811 0.07302 0.18935 0.0
C33 C 0.10295 0.13965 0.17912 0.0
C34 C 0.025 0.06171 0.21705 0.0
C35 C 0.06384 0.09481 0.23863 0.0
N36 N 0.09597 0.0969 0.21554 0.0
C37 C 0.05979 0.07453 0.20899 0.0
C38 C 0.09823 0.10651 0.2303 0.0
C39 C 0.02706 0.07219 0.23193 0.0
C40 C 0.23146 0.22463 0.173 0.0
N41 N 0.19712 0.19929 0.16583 0.0
C42 C 0.24635 0.26541 0.17249 0.0
C43 C 0.2258 0.28019 0.16459 0.0
C44 C 0.19077 0.25414 0.15731 0.0
C45 C 0.17676 0.21355 0.15807 0.0
C46 C 0.19646 0.15958 0.12095 0.0
C47 C 0.13542 0.10949 0.13962 0.0
C48 C 0.20068 0.16286 0.13641 0.0
N49 N 0.17025 0.13807 0.14554 0.0
C50 C 0.13009 0.10529 0.12421 0.0
C51 C 0.16088 0.13057 0.11483 0.0
C52 C 0.12939 0.06133 0.17795 0.0
C53 C 0.22631 0.09426 0.22057 0.0
C54 C 0.14518 0.06139 0.22085 0.0
C55 C 0.16243 0.04298 0.22869 0.0
C56 C 0.20333 0.05971 0.2286 0.0
N57 N 0.16785 0.09619 0.21336 0.0
C58 C 0.20802 0.112 0.21295 0.0
Co59 Co 0.872 0.01436 0.20148 0.0
Co60 Co 0.85336 0.03271 0.16614 0.0
O61 O 0.846 0.03307 0.18788 0.0
C62 C 0.79957 0.00038 0.21834 0.0
O63 O 0.79429 0.02429 0.20964 0.0
C64 C 0.85848 0.10993 0.17118 0.0
O65 O 0.88853 0.11908 0.18006 0.0
O66 O 0.91083 0.07028 0.16878 0.0
O67 O 0.92148 0.04179 0.18885 0.0
H68 H 0.91855 0.02582 0.11871 0.0
H69 H 0.85549 0.0824 0.2054 0.0
O70 O 0.82395 0.98897 0.2148 0.0
H71 H 0.97162 0.11703 0.23667 0.0
H72 H 0.8877 0.95029 0.24809 0.0
H73 H 0.92995 0.98802 0.19618 0.0
H74 H 0.94336 0.05763 0.22142 0.0
H75 H 0.8654 0.98972 0.23411 0.0
O76 O 0.84163 0.07678 0.16453 0.0
H77 H 0.90821 0.02279 0.14583 0.0
H78 H 0.81278 0.04445 0.14017 0.0
H79 H 0.95686 0.95403 0.21044 0.0
H80 H 0.88376 0.14254 0.2202 0.0
H81 H 0.93529 0.93364 0.23658 0.0
H82 H 0.94197 0.16035 0.23628 0.0
O83 O 0.84959 0.96455 0.18986 0.0
H84 H 0.70854 0.97885 0.17581 0.0
H85 H 0.80693 0.957 0.14953 0.0
H86 H 0.73598 0.9082 0.14695 0.0
H87 H 0.68622 0.91905 0.16011 0.0
H88 H 0.7798 0.02672 0.17818 0.0
H89 H 0.82203 0.0478 0.11297 0.0
H90 H 0.87527 0.03846 0.10205 0.0
O91 O 0.8659 0.98896 0.16705 0.0
C92 C 0.93377 0.06664 0.17802 0.0
C93 C 0.89541 0.03022 0.12333 0.0
C94 C 0.8413 0.04259 0.12011 0.0
N95 N 0.86052 0.03431 0.14467 0.0
C96 C 0.88956 0.02873 0.13871 0.0
C97 C 0.83638 0.04096 0.13555 0.0
C98 C 0.87112 0.03729 0.11399 0.0
C99 C 0.87988 0.08839 0.21254 0.0
N100 N 0.89495 0.0634 0.21328 0.0
C101 C 0.89627 0.12332 0.22083 0.0
C102 C 0.92897 0.13337 0.22981 0.0
C103 C 0.94543 0.109 0.23009 0.0
C104 C 0.92842 0.07448 0.22157 0.0
C105 C 0.89784 0.95949 0.23681 0.0
C106 C 0.9215 0.98134 0.2077 0.0
C107 C 0.88473 0.9813 0.22866 0.0
N108 N 0.89621 0.99162 0.21415 0.0
C109 C 0.93656 0.96131 0.21573 0.0
C110 C 0.92441 0.94998 0.23034 0.0
C111 C 0.85914 0.9623 0.17656 0.0
C112 C 0.72993 0.97382 0.17 0.0
C113 C 0.78547 0.96184 0.15535 0.0
C114 C 0.74533 0.93415 0.15381 0.0
C115 C 0.71743 0.94026 0.1612 0.0
N116 N 0.79748 0.99475 0.16396 0.0
C117 C 0.77032 0.00086 0.17128 0.0
Co118 Co 0.97727 0.85501 0.20045 0.0
Co119 Co 0.96555 0.81866 0.16555 0.0
O120 O 0.96038 0.8102 0.18716 0.0
C121 C 0.02276 0.83562 0.22269 0.0
O122 O 0.05561 0.86766 0.21884 0.0
C123 C 0.88677 0.74997 0.17004 0.0
O124 O 0.88084 0.7722 0.17944 0.0
O125 O 0.9295 0.84067 0.16678 0.0
O126 O 0.95979 0.88241 0.1858 0.0
H127 H 0.97798 0.89208 0.11805 0.0
H128 H 0.91641 0.77314 0.20883 0.0
O129 O 0.99104 0.82578 0.21553 0.0
H130 H 0.85952 0.85658 0.22258 0.0
H131 H 0.01827 0.92949 0.24937 0.0
H132 H 0.01666 0.94076 0.19496 0.0
H133 H 0.92492 0.88555 0.21059 0.0
H134 H 0.98099 0.86936 0.23387 0.0
O135 O 0.91945 0.76422 0.16306 0.0
H136 H 0.97451 0.88257 0.14527 0.0
H137 H 0.95996 0.76809 0.13976 0.0
H138 H 0.05076 0.00038 0.20998 0.0
H139 H 0.8501 0.74236 0.22024 0.0
H140 H 0.0518 0.99537 0.2375 0.0
H141 H 0.82143 0.78426 0.22739 0.0
O142 O 0.03038 0.87884 0.19118 0.0
H143 H 0.00973 0.72134 0.17815 0.0
H144 H 0.04361 0.84427 0.15113 0.0
H145 H 0.08973 0.81838 0.15051 0.0
H146 H 0.07281 0.7564 0.16404 0.0
H147 H 0.96462 0.74846 0.17858 0.0
H148 H 0.96278 0.77608 0.11245 0.0
H149 H 0.97214 0.83856 0.10143 0.0
O150 O 0.01224 0.87402 0.1675 0.0
C151 C 0.93483 0.86932 0.17511 0.0
C152 C 0.97427 0.86486 0.12271 0.0
C153 C 0.96568 0.79974 0.11957 0.0
N154 N 0.96817 0.82531 0.1441 0.0
C155 C 0.97257 0.85944 0.13812 0.0
C156 C 0.96416 0.79541 0.13504 0.0
C157 C 0.97092 0.8348 0.1134 0.0
C158 C 0.90407 0.79155 0.21184 0.0
N159 N 0.925 0.83137 0.20938 0.0
C160 C 0.86651 0.77394 0.21831 0.0
C161 C 0.85044 0.79746 0.22233 0.0
C162 C 0.87182 0.83802 0.21967 0.0
C163 C 0.90902 0.85441 0.21298 0.0
C164 C 0.01677 0.93184 0.23746 0.0
C165 C 0.01608 0.93767 0.20689 0.0
C166 C 0.99643 0.89801 0.22859 0.0
N167 N 0.99727 0.90115 0.21342 0.0
C168 C 0.03567 0.97193 0.2154 0.0
C169 C 0.0362 0.96898 0.2308 0.0
C170 C 0.03727 0.8919 0.17789 0.0
C171 C 0.01738 0.74831 0.17217 0.0
C172 C 0.03613 0.81737 0.15711 0.0
C173 C 0.06231 0.80281 0.15668 0.0
C174 C 0.05279 0.76802 0.16427 0.0
N175 N 0.00135 0.79775 0.16482 0.0
C176 C 0.99191 0.76375 0.17235 0.0
Co177 Co 0.12691 0.13937 0.29861 0.0
Co178 Co 0.14662 0.1783 0.33336 0.0
O179 O 0.15303 0.18542 0.31157 0.0
C180 C 0.20055 0.19788 0.28193 0.0
O181 O 0.20824 0.22643 0.29139 0.0
C182 C 0.14311 0.25075 0.32749 0.0
O183 O 0.11486 0.23037 0.31784 0.0
O184 O 0.08953 0.15904 0.33073 0.0
O185 O 0.07866 0.11623 0.31201 0.0
H186 H 0.07751 0.10884 0.38057 0.0
H187 H 0.14516 0.22249 0.2911 0.0
O188 O 0.17327 0.16246 0.28452 0.0
H189 H 0.01789 0.13427 0.26688 0.0
H190 H 0.10612 0.05829 0.25207 0.0
H191 H 0.07395 0.05434 0.30522 0.0
H192 H 0.05 0.10706 0.28249 0.0
H193 H 0.1283 0.12024 0.26596 0.0
O194 O 0.15832 0.23397 0.3349 0.0
H195 H 0.0878 0.11625 0.35342 0.0
H196 H 0.1895 0.22933 0.35936 0.0
H197 H 0.04947 0.99244 0.29148 0.0
H198 H 0.11352 0.251 0.27599 0.0
H199 H 0.06534 0.99395 0.26463 0.0
H200 H 0.04964 0.20692 0.26346 0.0
O201 O 0.15275 0.11548 0.31011 0.0
H202 H 0.29123 0.26917 0.32336 0.0
H203 H 0.1935 0.14929 0.34997 0.0
H204 H 0.26452 0.1715 0.35236 0.0
H205 H 0.31395 0.23192 0.33903 0.0
H206 H 0.21991 0.24573 0.32119 0.0
H207 H 0.18013 0.22334 0.38659 0.0
H208 H 0.1239 0.16266 0.39737 0.0
O209 O 0.13439 0.12182 0.33271 0.0
C210 C 0.06652 0.13059 0.32223 0.0
C211 C 0.10222 0.13537 0.37602 0.0
C212 C 0.15977 0.19965 0.37939 0.0
N213 N 0.13943 0.17302 0.3548 0.0
C214 C 0.10826 0.13968 0.36064 0.0
C215 C 0.16488 0.20292 0.36396 0.0
C216 C 0.12822 0.16559 0.38543 0.0
C217 C 0.118 0.20271 0.28554 0.0
N218 N 0.10121 0.16265 0.28698 0.0
C219 C 0.09985 0.21923 0.27707 0.0
C220 C 0.06398 0.19454 0.27008 0.0
C221 C 0.04625 0.15383 0.27196 0.0
C222 C 0.06501 0.13847 0.28069 0.0
C223 C 0.0984 0.05741 0.26367 0.0
C224 C 0.08052 0.05577 0.29351 0.0
C225 C 0.11132 0.09242 0.27171 0.0
N226 N 0.10269 0.09138 0.28653 0.0
C227 C 0.06658 0.02031 0.28576 0.0
C228 C 0.07565 0.0212 0.27075 0.0
C229 C 0.14292 0.10293 0.3233 0.0
C230 C 0.26999 0.24281 0.32923 0.0
C231 C 0.2148 0.17546 0.34405 0.0
C232 C 0.25499 0.18797 0.34549 0.0
C233 C 0.28271 0.22188 0.33801 0.0
N234 N 0.20256 0.19619 0.33543 0.0
C235 C 0.22956 0.22941 0.32805 0.0
Co236 Co 0.85807 0.98023 0.29943 0.0
Co237 Co 0.82202 0.96933 0.33473 0.0
O238 O 0.81362 0.96423 0.31293 0.0
C239 C 0.79986 0.99381 0.28179 0.0
O240 O 0.77121 0.97373 0.29131 0.0
C241 C 0.75103 0.89129 0.33078 0.0
O242 O 0.77246 0.88248 0.32203 0.0
O243 O 0.8425 0.93185 0.3339 0.0
O244 O 0.8808 0.95607 0.31341 0.0
H245 H 0.89492 0.98597 0.38283 0.0
H246 H 0.77314 0.91453 0.29504 0.0
O247 O 0.83529 0.00231 0.28461 0.0
H248 H 0.85459 0.86834 0.26998 0.0
H249 H 0.93765 0.03069 0.25187 0.0
H250 H 0.94244 0.01077 0.30569 0.0
H251 H 0.88583 0.93136 0.28333 0.0
H252 H 0.87581 0.99514 0.26627 0.0
O253 O 0.76661 0.92489 0.3371 0.0
H254 H 0.887 0.98327 0.35558 0.0
H255 H 0.77019 0.96301 0.36018 0.0
H256 H 0.00373 0.04256 0.2915 0.0
H257 H 0.74089 0.85106 0.2822 0.0
H258 H 0.00214 0.05288 0.26434 0.0
H259 H 0.78142 0.82745 0.26927 0.0
O260 O 0.88486 0.03227 0.30943 0.0
H261 H 0.72865 0.0184 0.32193 0.0
H262 H 0.85082 0.04836 0.34869 0.0
H263 H 0.82764 0.09666 0.3491 0.0
H264 H 0.76607 0.08175 0.33568 0.0
H265 H 0.75306 0.97108 0.32173 0.0
H266 H 0.77661 0.96535 0.38751 0.0
H267 H 0.83938 0.97693 0.39903 0.0
O268 O 0.87826 0.01363 0.33301 0.0
C269 C 0.86884 0.9337 0.32495 0.0
C270 C 0.86734 0.9807 0.37796 0.0
C271 C 0.80095 0.96909 0.38058 0.0
N272 N 0.828 0.9723 0.35625 0.0
C273 C 0.86267 0.97898 0.36251 0.0
C274 C 0.79739 0.96753 0.36509 0.0
C275 C 0.83618 0.97564 0.38704 0.0
C276 C 0.79153 0.90572 0.28925 0.0
N277 N 0.83185 0.92897 0.28919 0.0
C278 C 0.77282 0.86905 0.28209 0.0
C279 C 0.79552 0.85576 0.27488 0.0
C280 C 0.83652 0.87877 0.27522 0.0
C281 C 0.85415 0.91507 0.28262 0.0
C282 C 0.93865 0.02524 0.26361 0.0
C283 C 0.94071 0.01372 0.29383 0.0
C284 C 0.90372 0.00565 0.27192 0.0
N285 N 0.90502 0.00021 0.28691 0.0
C286 C 0.97593 0.0323 0.28582 0.0
C287 C 0.97489 0.0381 0.2706 0.0
C288 C 0.89748 0.03801 0.32269 0.0
C289 C 0.7555 0.02523 0.32783 0.0
C290 C 0.82413 0.04176 0.34275 0.0
C291 C 0.81108 0.06917 0.34306 0.0
C292 C 0.77652 0.06077 0.33554 0.0
N293 N 0.80329 0.00692 0.33519 0.0
C294 C 0.76944 0.99852 0.32777 0.0
Co295 Co 0.03368 0.85498 0.33819 0.0
Co296 Co 0.0162 0.87037 0.30234 0.0
O297 O 0.03556 0.84662 0.31662 0.0
C298 C 0.11353 0.86584 0.33432 0.0
O299 O 0.12192 0.89716 0.32632 0.0
C300 C 0.01131 0.80312 0.28511 0.0
O301 O 0.03738 0.80074 0.29358 0.0
O302 O 0.966 0.84647 0.31364 0.0
O303 O 0.98785 0.86499 0.3366 0.0
H304 H 0.95117 0.95027 0.29125 0.0
H305 H 0.03148 0.78234 0.32713 0.0
O306 O 0.0796 0.84593 0.34036 0.0
H307 H 0.911 0.7357 0.35754 0.0
H308 H 0.04482 0.82604 0.39204 0.0
H309 H 0.02906 0.91477 0.3572 0.0
H310 H 0.95779 0.80706 0.35454 0.0
H311 H 0.04281 0.81506 0.36492 0.0
O312 O 0.9936 0.82116 0.28973 0.0
H313 H 0.98807 0.92786 0.30615 0.0
H314 H 0.9888 0.85792 0.26994 0.0
H315 H 0.03044 0.92663 0.38421 0.0
H316 H 0.98567 0.71071 0.32992 0.0
H317 H 0.03833 0.88201 0.40185 0.0
H318 H 0.92491 0.68698 0.34522 0.0
O319 O 0.06911 0.91229 0.33512 0.0
H320 H 0.15157 0.89264 0.28752 0.0
H321 H 0.05481 0.93601 0.27917 0.0
H322 H 0.11456 0.96434 0.26425 0.0
H323 H 0.16398 0.94302 0.26823 0.0
H324 H 0.09059 0.86318 0.30178 0.0
H325 H 0.94627 0.87525 0.2556 0.0
H326 H 0.92958 0.92412 0.26565 0.0
O327 O 0.04102 0.92065 0.31446 0.0
C328 C 0.96195 0.85706 0.32655 0.0
C329 C 0.95926 0.93 0.28646 0.0
C330 C 0.95642 0.88772 0.26655 0.0
N331 N 0.99173 0.89178 0.28906 0.0
C332 C 0.98104 0.91752 0.29483 0.0
C333 C 0.98 0.87733 0.27494 0.0
C334 C 0.94684 0.91498 0.27222 0.0
C335 C 0.00522 0.77223 0.33387 0.0
N336 N 0.99745 0.79882 0.34075 0.0
C337 C 0.97934 0.73165 0.33538 0.0
C338 C 0.94523 0.71835 0.34395 0.0
C339 C 0.9374 0.74567 0.35086 0.0
C340 C 0.96394 0.78603 0.3491 0.0
C341 C 0.04104 0.84549 0.38447 0.0
C342 C 0.03187 0.8949 0.3648 0.0
C343 C 0.03983 0.8394 0.36911 0.0
N344 N 0.03472 0.86364 0.3595 0.0
C345 C 0.03292 0.90191 0.38009 0.0
C346 C 0.03742 0.87691 0.38997 0.0
C347 C 0.06494 0.934 0.32552 0.0
C348 C 0.12978 0.90146 0.28538 0.0
C349 C 0.07421 0.92425 0.28071 0.0
C350 C 0.10895 0.94144 0.27229 0.0
C351 C 0.13676 0.92969 0.27458 0.0
N352 N 0.06607 0.8947 0.2908 0.0
C353 C 0.09443 0.88449 0.29344 0.0
Co354 Co 0.85764 0.8779 0.80038 0.0
Co355 Co 0.8186 0.85653 0.83526 0.0
O356 O 0.81201 0.85075 0.81347 0.0
C357 C 0.80135 0.80155 0.78449 0.0
O358 O 0.77322 0.79213 0.79433 0.0
C359 C 0.74906 0.86366 0.8286 0.0
O360 O 0.77169 0.89128 0.81909 0.0
O361 O 0.83945 0.9141 0.83316 0.0
O362 O 0.88087 0.92568 0.8139 0.0
H363 H 0.88801 0.92115 0.88301 0.0
H364 H 0.77407 0.85458 0.79185 0.0
O365 O 0.83535 0.83221 0.78606 0.0
H366 H 0.8573 0.98799 0.7712 0.0
H367 H 0.93708 0.91212 0.75256 0.0
H368 H 0.94226 0.92669 0.80706 0.0
H369 H 0.8867 0.95656 0.78611 0.0
H370 H 0.87521 0.88348 0.76728 0.0
O371 O 0.76345 0.84686 0.83652 0.0
H372 H 0.88127 0.91262 0.85577 0.0
H373 H 0.76555 0.81416 0.86084 0.0
H374 H 0.00376 0.95553 0.7929 0.0
H375 H 0.74315 0.88522 0.77744 0.0
H376 H 0.00192 0.94956 0.76548 0.0
H377 H 0.7848 0.95229 0.76676 0.0
O378 O 0.88286 0.85266 0.81147 0.0
H379 H 0.7242 0.71293 0.8248 0.0
H380 H 0.84563 0.80741 0.85138 0.0
H381 H 0.82161 0.73596 0.85335 0.0
H382 H 0.76044 0.68816 0.84001 0.0
H383 H 0.74942 0.78464 0.82305 0.0
H384 H 0.7709 0.8218 0.88815 0.0
H385 H 0.83256 0.8755 0.8994 0.0
O386 O 0.87462 0.86707 0.83461 0.0
C387 C 0.86754 0.93739 0.8246 0.0
C388 C 0.86106 0.89752 0.87824 0.0
C389 C 0.79532 0.8418 0.88113 0.0
N390 N 0.82327 0.86262 0.85672 0.0
C391 C 0.85713 0.89246 0.86282 0.0
C392 C 0.79245 0.83764 0.86566 0.0
C393 C 0.82992 0.87193 0.88743 0.0
C394 C 0.79273 0.88334 0.78712 0.0
N395 N 0.83274 0.90265 0.78924 0.0
C396 C 0.77488 0.90081 0.77904 0.0
C397 C 0.79821 0.93845 0.77309 0.0
C398 C 0.83883 0.95843 0.77554 0.0
C399 C 0.85548 0.94023 0.78388 0.0
C400 C 0.93821 0.91565 0.76453 0.0
C401 C 0.94066 0.92344 0.79513 0.0
C402 C 0.90336 0.89936 0.77293 0.0
N403 N 0.90494 0.9036 0.78808 0.0
C404 C 0.97586 0.94003 0.78712 0.0
C405 C 0.97463 0.93637 0.77172 0.0
C406 C 0.89404 0.85991 0.82492 0.0
C407 C 0.75091 0.73346 0.83065 0.0
C408 C 0.81915 0.78683 0.84545 0.0
C409 C 0.80561 0.74639 0.84666 0.0
C410 C 0.77126 0.71958 0.83918 0.0
N411 N 0.79904 0.80021 0.83704 0.0
C412 C 0.76532 0.77411 0.82971 0.0
Co413 Co 0.12564 0.98264 0.80443 0.0
Co414 Co 0.1411 0.96314 0.83979 0.0
O415 O 0.1496 0.96226 0.81818 0.0
C416 C 0.19564 0.99048 0.78774 0.0
O417 O 0.20083 0.9677 0.7971 0.0
C418 C 0.13522 0.88567 0.83486 0.0
O419 O 0.10522 0.87687 0.82599 0.0
O420 O 0.0841 0.9263 0.83654 0.0
O421 O 0.0758 0.95771 0.81694 0.0
H422 H 0.06887 0.96502 0.88588 0.0
H423 H 0.13703 0.91142 0.80088 0.0
O424 O 0.17399 0.00524 0.79127 0.0
H425 H 0.02444 0.88371 0.76858 0.0
H426 H 0.11356 0.04823 0.75757 0.0
H427 H 0.07039 0.01271 0.80948 0.0
H428 H 0.05475 0.94287 0.78392 0.0
H429 H 0.13486 0.00866 0.77196 0.0
O430 O 0.15196 0.91853 0.84173 0.0
H431 H 0.08156 0.96815 0.85889 0.0
H432 H 0.1807 0.95323 0.86647 0.0
H433 H 0.04493 0.04739 0.79491 0.0
H434 H 0.10571 0.85073 0.78636 0.0
H435 H 0.06586 0.0653 0.76853 0.0
H436 H 0.04963 0.83664 0.76962 0.0
O437 O 0.15052 0.03235 0.81601 0.0
H438 H 0.28623 0.01523 0.83162 0.0
H439 H 0.18722 0.03851 0.85665 0.0
H440 H 0.25819 0.08654 0.85987 0.0
H441 H 0.30825 0.07495 0.84734 0.0
H442 H 0.21496 0.96817 0.8286 0.0
H443 H 0.16891 0.94961 0.89355 0.0
H444 H 0.11273 0.95569 0.90343 0.0
O445 O 0.12959 0.00793 0.8385 0.0
C446 C 0.06232 0.93184 0.8274 0.0
C447 C 0.09353 0.96248 0.88172 0.0
C448 C 0.14964 0.95378 0.88602 0.0
N449 N 0.13205 0.96124 0.8611 0.0
C450 C 0.10093 0.96434 0.86644 0.0
C451 C 0.15612 0.95576 0.87067 0.0
C452 C 0.11813 0.9572 0.89156 0.0
C453 C 0.1132 0.90667 0.79365 0.0
N454 N 0.10043 0.9335 0.79266 0.0
C455 C 0.09518 0.87157 0.78545 0.0
C456 C 0.06369 0.8636 0.7761 0.0
C457 C 0.04973 0.89007 0.77545 0.0
C458 C 0.06789 0.9244 0.78407 0.0
C459 C 0.10323 0.0395 0.76885 0.0
C460 C 0.0791 0.01891 0.79798 0.0
C461 C 0.11589 0.01772 0.77725 0.0
N462 N 0.10378 0.00756 0.79169 0.0
C463 C 0.06473 0.03922 0.78974 0.0
C464 C 0.07671 0.04942 0.77504 0.0
C465 C 0.13908 0.03518 0.82891 0.0
C466 C 0.2647 0.02058 0.83716 0.0
C467 C 0.20882 0.03338 0.8511 0.0
C468 C 0.24897 0.06062 0.853 0.0
C469 C 0.27704 0.05409 0.84597 0.0
N470 N 0.19697 0.00049 0.84249 0.0
C471 C 0.22431 0.99399 0.83551 0.0
Co472 Co 0.02022 0.14312 0.80162 0.0
Co473 Co 0.03366 0.18038 0.83667 0.0
O474 O 0.03783 0.18822 0.81489 0.0
C475 C 0.00969 0.20288 0.78363 0.0
O476 O 0.03013 0.23141 0.79312 0.0
C477 C 0.11251 0.2491 0.83218 0.0
O478 O 0.11939 0.2263 0.82344 0.0
O479 O 0.06983 0.15861 0.83551 0.0
O480 O 0.04218 0.11851 0.81576 0.0
H481 H 0.02121 0.10829 0.88457 0.0
H482 H 0.08794 0.22688 0.79659 0.0
O483 O -9e-05 0.16716 0.78659 0.0
H484 H 0.13047 0.14039 0.77327 0.0
H485 H 0.97039 0.06397 0.75394 0.0
H486 H 0.98529 0.05839 0.80807 0.0
H487 H 0.06734 0.11213 0.78659 0.0
H488 H 0.0071 0.12569 0.7684 0.0
O489 O 0.07931 0.2352 0.83875 0.0
H490 H 0.02322 0.11631 0.8573 0.0
H491 H 0.04128 0.23237 0.86221 0.0
H492 H 0.95136 0.99735 0.79403 0.0
H493 H 0.15178 0.25637 0.78396 0.0
H494 H 0.94349 -0.00085 0.76668 0.0
H495 H 0.17347 0.21327 0.77185 0.0
O496 O 0.96821 0.11836 0.81177 0.0
H497 H 0.9873 0.27602 0.82411 0.0
H498 H 0.95579 0.15402 0.85133 0.0
H499 H 0.9088 0.17885 0.85201 0.0
H500 H 0.9245 0.24033 0.83835 0.0
H501 H 0.03331 0.24999 0.82365 0.0
H502 H 0.03975 0.22571 0.88955 0.0
H503 H 0.02948 0.16324 0.9009 0.0
O504 O 0.98803 0.12471 0.83524 0.0
C505 C 0.0656 0.13072 0.82695 0.0
C506 C 0.02551 0.13558 0.87976 0.0
C507 C 0.03597 0.2015 0.88255 0.0
N508 N 0.03184 0.17457 0.85816 0.0
C509 C 0.02653 0.14024 0.86432 0.0
C510 C 0.03685 0.20511 0.86707 0.0
C511 C 0.0302 0.16644 0.88892 0.0
C512 C 0.09598 0.20745 0.79116 0.0
N513 N 0.07162 0.16732 0.79148 0.0
C514 C 0.13284 0.22456 0.78412 0.0
C515 C 0.14506 0.20042 0.77737 0.0
C516 C 0.12088 0.1596 0.77811 0.0
C517 C 0.08459 0.14362 0.78548 0.0
C518 C 0.97451 0.0628 0.76578 0.0
C519 C 0.98311 0.06025 0.79618 0.0
C520 C 0.99482 0.09762 0.77409 0.0
N521 N -0.00124 0.09603 0.78918 0.0
C522 C 0.96348 0.02514 0.78821 0.0
C523 C 0.9591 0.02637 0.77291 0.0
C524 C 0.96271 0.106 0.8251 0.0
C525 C 0.98015 0.24923 0.83012 0.0
C526 C 0.96274 0.18069 0.8453 0.0
C527 C 0.93607 0.19466 0.84576 0.0
C528 C 0.9449 0.22917 0.8381 0.0
N529 N 0.99728 0.20058 0.83747 0.0
C530 C 0.00612 0.23439 0.82992 0.0
Co531 Co 0.87449 0.85354 0.70576 0.0
Co532 Co 0.85699 0.82169 0.66976 0.0
O533 O 0.85119 0.81027 0.69147 0.0
C534 C 0.8113 0.78785 0.72259 0.0
O535 O 0.8223 0.76495 0.71593 0.0
C536 C 0.85159 0.74311 0.67441 0.0
O537 O 0.86408 0.75339 0.68807 0.0
O538 O 0.9147 0.84292 0.67203 0.0
O539 O 0.92387 0.88005 0.69262 0.0
H540 H 0.92191 0.9034 0.62412 0.0
H541 H 0.91859 0.81059 0.69827 0.0
O542 O 0.826 0.82379 0.71844 0.0
H543 H 0.92098 0.81867 0.7529 0.0
H544 H 0.86692 0.93589 0.74804 0.0
H545 H 0.94649 0.93609 0.70571 0.0
H546 H 0.88672 0.84519 0.73831 0.0
H547 H 0.84588 0.87569 0.73411 0.0
O548 O 0.84762 0.76682 0.66579 0.0
H549 H 0.9121 0.88999 0.65104 0.0
H550 H 0.81562 0.77512 0.64263 0.0
H551 H 0.96851 0.99563 0.71999 0.0
H552 H 0.95167 0.78198 0.71247 0.0
H553 H 0.92869 0.99701 0.74112 0.0
H554 H 0.95366 0.78629 0.74007 0.0
O555 O 0.84772 0.87784 0.69523 0.0
H556 H 0.71347 0.72579 0.67983 0.0
H557 H 0.80764 0.85049 0.65495 0.0
H558 H 0.73609 0.8262 0.65313 0.0
H559 H 0.68844 0.76331 0.66557 0.0
H560 H 0.78527 0.75136 0.68148 0.0
H561 H 0.82446 0.78705 0.61559 0.0
H562 H 0.87789 0.85165 0.60615 0.0
O563 O 0.86716 0.87732 0.67233 0.0
C564 C 0.9371 0.86977 0.6813 0.0
C565 C 0.89861 0.87506 0.62807 0.0
C566 C 0.84396 0.80977 0.62329 0.0
N567 N 0.86363 0.83166 0.64845 0.0
C568 C 0.89299 0.86727 0.64332 0.0
C569 C 0.83925 0.80308 0.63863 0.0
C570 C 0.87391 0.84603 0.618 0.0
C571 C 0.91827 0.81203 0.71017 0.0
N572 N 0.90054 0.83013 0.71719 0.0
C573 C 0.93754 0.79598 0.71822 0.0
C574 C 0.93876 0.7985 0.73368 0.0
C575 C 0.92059 0.81677 0.74087 0.0
C576 C 0.90148 0.8323 0.73243 0.0
C577 C 0.88498 0.93562 0.73894 0.0
C578 C 0.9295 0.93404 0.71539 0.0
C579 C 0.87334 0.90099 0.73084 0.0
N580 N 0.89575 0.8998 0.71922 0.0
C581 C 0.9421 0.96901 0.72333 0.0
C582 C 0.91964 0.96981 0.73514 0.0
C583 C 0.85808 0.89374 0.68257 0.0
C584 C 0.73393 0.75314 0.6743 0.0
C585 C 0.78711 0.82315 0.66043 0.0
C586 C 0.74662 0.80951 0.65934 0.0
C587 C 0.71991 0.77423 0.66632 0.0
N588 N 0.80062 0.80212 0.66818 0.0
C589 C 0.77463 0.76769 0.67515 0.0
Co590 Co 0.14701 0.01886 0.70351 0.0
Co591 Co 0.18057 0.02831 0.66823 0.0
O592 O 0.19069 0.03488 0.68973 0.0
C593 C 0.16956 0.97454 0.72527 0.0
O594 O 0.13838 0.94084 0.72155 0.0
C595 C 0.2493 0.10718 0.67196 0.0
O596 O 0.22823 0.11279 0.68203 0.0
O597 O 0.15855 0.0643 0.66944 0.0
O598 O 0.11859 0.03542 0.68906 0.0
H599 H 0.10313 0.01154 0.62144 0.0
H600 H 0.22877 0.07774 0.71287 0.0
O601 O 0.17757 0.00593 0.71821 0.0
H602 H 0.14825 0.14025 0.72297 0.0
H603 H 0.07836 0.97166 0.75292 0.0
H604 H 0.06051 0.98242 0.69936 0.0
H605 H 0.11804 0.07344 0.71215 0.0
H606 H 0.1358 0.01538 0.73711 0.0
O607 O 0.23458 0.07448 0.66499 0.0
H608 H 0.11475 0.01715 0.64855 0.0
H609 H 0.22934 0.03256 0.64201 0.0
H610 H 0.00316 0.94271 0.71501 0.0
H611 H 0.26044 0.14475 0.72369 0.0
H612 H 0.01147 0.9355 0.74178 0.0
H613 H 0.22009 0.17645 0.72881 0.0
O614 O 0.1219 0.96512 0.69468 0.0
H615 H 0.27905 0.98534 0.6804 0.0
H616 H 0.15403 0.94928 0.65456 0.0
H617 H 0.1799 0.90314 0.65416 0.0
H618 H 0.24291 0.92114 0.66711 0.0
H619 H 0.25193 0.03046 0.68063 0.0
H620 H 0.21921 0.02757 0.6148 0.0
H621 H 0.1556 0.01669 0.60436 0.0
O622 O 0.12535 0.98177 0.67088 0.0
C623 C 0.13063 0.05949 0.6781 0.0
C624 C 0.13086 0.01597 0.62585 0.0
C625 C 0.19601 0.025 0.62213 0.0
N626 N 0.17226 0.02419 0.64687 0.0
C627 C 0.1375 0.01893 0.6412 0.0
C628 C 0.20157 0.02778 0.63754 0.0
C629 C 0.16032 0.01891 0.61628 0.0
C630 C 0.21098 0.09124 0.71516 0.0
N631 N 0.17145 0.07151 0.71203 0.0
C632 C 0.22909 0.12922 0.72125 0.0
C633 C 0.20645 0.14701 0.72411 0.0
C634 C 0.16616 0.12674 0.72085 0.0
C635 C 0.14913 0.08884 0.71476 0.0
C636 C 0.0744 0.97536 0.74126 0.0
C637 C 0.06501 0.98163 0.71116 0.0
C638 C 0.10685 -0.0008 0.73216 0.0
N639 N 0.1022 -2e-05 0.71711 0.0
C640 C 0.03197 0.95887 0.72 0.0
C641 C 0.03679 0.95491 0.73506 0.0
C642 C 0.10776 0.95762 0.68155 0.0
C643 C 0.25163 0.97722 0.67468 0.0
C644 C 0.1814 0.95726 0.66027 0.0
C645 C 0.19595 0.93105 0.65997 0.0
C646 C 0.23131 0.94118 0.66723 0.0
N647 N 0.2016 0.99263 0.66754 0.0
C648 C 0.2362 0.00269 0.67473 0.0
Co649 Co 0.98818 0.12673 0.70426 0.0
Co650 Co 0.96808 0.14302 0.66882 0.0
O651 O 0.96963 0.15242 0.69045 0.0
C652 C 0.00482 0.20115 0.72016 0.0
O653 O 0.9814 0.20671 0.71128 0.0
C654 C 0.89255 0.1412 0.67445 0.0
O655 O 0.88291 0.11155 0.68362 0.0
O656 O 0.92952 0.08608 0.67232 0.0
O657 O 0.95901 0.07637 0.69229 0.0
H658 H 0.96842 0.07236 0.62195 0.0
H659 H 0.92199 0.14594 0.70825 0.0
O660 O 0.01539 0.17594 0.71693 0.0
H661 H 0.88615 0.03182 0.74085 0.0
H662 H 0.05368 0.11369 0.75089 0.0
H663 H 0.01232 0.06668 0.69966 0.0
H664 H 0.94469 0.05741 0.72512 0.0
H665 H 0.01394 0.13526 0.73673 0.0
O666 O 0.92509 0.1563 0.6674 0.0
H667 H 0.97383 0.08496 0.64893 0.0
H668 H 0.95602 0.18258 0.64258 0.0
H669 H 0.04833 0.04178 0.71396 0.0
H670 H 0.86267 0.12022 0.72348 0.0
H671 H 0.07036 0.06574 0.73971 0.0
H672 H 0.84432 0.06309 0.74023 0.0
O673 O 0.03701 0.14674 0.69211 0.0
H674 H 0.02635 0.28918 0.67653 0.0
H675 H 0.0427 0.18612 0.65128 0.0
H676 H 0.09263 0.25631 0.64754 0.0
H677 H 0.08454 0.30841 0.66018 0.0
H678 H 0.97731 0.21865 0.68004 0.0
H679 H 0.95022 0.17106 0.61551 0.0
H680 H 0.95645 0.11558 0.605 0.0
O681 O 0.01075 0.12896 0.6696 0.0
C682 C 0.93331 0.06357 0.68174 0.0
C683 C 0.96544 0.09651 0.62639 0.0
C684 C 0.95517 0.15183 0.62278 0.0
N685 N 0.96452 0.13398 0.64744 0.0
C686 C 0.96835 0.10369 0.6417 0.0
C687 C 0.95819 0.15805 0.63816 0.0
C688 C 0.95873 0.12076 0.61689 0.0
C689 C 0.91573 0.12194 0.71565 0.0
N690 N 0.93996 0.10599 0.71649 0.0
C691 C 0.88128 0.10702 0.7242 0.0
C692 C 0.87093 0.07494 0.73355 0.0
C693 C 0.89449 0.05757 0.73396 0.0
C694 C 0.92854 0.07309 0.72517 0.0
C695 C 0.04408 0.10282 0.73971 0.0
C696 C 0.02023 0.0765 0.71098 0.0
C697 C 0.02195 0.11539 0.73148 0.0
N698 N 0.01075 0.1027 0.71714 0.0
C699 C 0.04132 0.06258 0.71902 0.0
C700 C 0.05353 0.076 0.73345 0.0
C701 C 0.03766 0.13535 0.67895 0.0
C702 C 0.03018 0.26676 0.67095 0.0
C703 C 0.03908 0.20861 0.65688 0.0
C704 C 0.06739 0.24831 0.65469 0.0
C705 C 0.06283 0.27752 0.66178 0.0
N706 N 0.00704 0.1983 0.66583 0.0
C707 C 0.00247 0.22677 0.67287 0.0
Co708 Co 0.84463 0.47026 0.49156 0.0
Co709 Co 0.81002 0.45395 0.52719 0.0
O710 O 0.85384 0.47904 0.51325 0.0
C711 C 0.91565 0.46354 0.4965 0.0
O712 O 0.89429 0.43423 0.50563 0.0
C713 C 0.86787 0.52491 0.54484 0.0
O714 O 0.89858 0.52989 0.53716 0.0
O715 O 0.78235 0.476 0.5156 0.0
O716 O 0.78831 0.45836 0.49276 0.0
H717 H 0.66485 0.37439 0.53624 0.0
H718 H 0.91333 0.54394 0.50288 0.0
O719 O 0.90011 0.48098 0.4897 0.0
H720 H 0.83797 0.58754 0.47186 0.0
H721 H 0.88827 0.49964 0.43805 0.0
H722 H 0.77966 0.41347 0.47186 0.0
H723 H 0.81522 0.51656 0.4749 0.0
H724 H 0.89527 0.51028 0.46518 0.0
O725 O 0.83281 0.50275 0.53998 0.0
H726 H 0.72554 0.39698 0.52224 0.0
H727 H 0.79345 0.46063 0.5599 0.0
H728 H 0.77109 0.40172 0.44483 0.0
H729 H 0.93732 0.61521 0.50004 0.0
H730 H 0.82576 0.44502 0.42768 0.0
H731 H 0.89952 0.63742 0.48444 0.0
O732 O 0.82427 0.41277 0.49456 0.0
H733 H 0.92758 0.44349 0.54553 0.0
H734 H 0.78322 0.38423 0.548 0.0
H735 H 0.81544 0.35741 0.56347 0.0
H736 H 0.88833 0.38703 0.56251 0.0
H737 H 0.89461 0.46991 0.53033 0.0
H738 H 0.73228 0.44256 0.57369 0.0
H739 H 0.66726 0.39719 0.56231 0.0
O740 O 0.7873 0.40385 0.5151 0.0
C741 C 0.7692 0.46557 0.50252 0.0
C742 C 0.69275 0.39334 0.5416 0.0
C743 C 0.73081 0.43146 0.56257 0.0
N744 N 0.7636 0.43043 0.54007 0.0
C745 C 0.72769 0.40609 0.53368 0.0
C746 C 0.7654 0.44235 0.55452 0.0
C747 C 0.69427 0.40627 0.55613 0.0
C748 C 0.89683 0.55337 0.49601 0.0
N749 N 0.86304 0.52614 0.489 0.0
C750 C 0.91051 0.59377 0.49447 0.0
C751 C 0.88927 0.6062 0.48573 0.0
C752 C 0.85472 0.57823 0.47867 0.0
C753 C 0.84193 0.53809 0.48046 0.0
C754 C 0.86431 0.48041 0.44539 0.0
C755 C 0.80357 0.43219 0.46452 0.0
C756 C 0.86822 0.48612 0.46079 0.0
N757 N 0.83809 0.46205 0.47016 0.0
C758 C 0.79856 0.42552 0.44919 0.0
C759 C 0.82922 0.44981 0.43959 0.0
C760 C 0.79865 0.39065 0.50422 0.0
C761 C 0.89591 0.43114 0.54646 0.0
C762 C 0.815 0.39917 0.54787 0.0
C763 C 0.8331 0.38296 0.55653 0.0
C764 C 0.87391 0.3994 0.55593 0.0
N765 N 0.83679 0.43176 0.53909 0.0
C766 C 0.87678 0.44659 0.53798 0.0
Co767 Co 0.54605 0.35534 0.53214 0.0
Co768 Co 0.51888 0.36431 0.49724 0.0
O769 O 0.51717 0.37141 0.5189 0.0
C770 C 0.47428 0.34275 0.55016 0.0
O771 O 0.4611 0.35684 0.53978 0.0
C772 C 0.52805 0.44319 0.50079 0.0
O773 O 0.55656 0.45051 0.51024 0.0
O774 O 0.57695 0.40069 0.49765 0.0
O775 O 0.59016 0.37296 0.51712 0.0
H776 H 0.57516 0.34585 0.44954 0.0
H777 H 0.52619 0.4181 0.54043 0.0
O778 O 0.50432 0.33874 0.54798 0.0
H779 H 0.66737 0.47421 0.55223 0.0
H780 H 0.57578 0.31399 0.58097 0.0
H781 H 0.59285 0.31563 0.52678 0.0
H782 H 0.62918 0.40788 0.54119 0.0
H783 H 0.55675 0.35287 0.56523 0.0
O784 O 0.50988 0.40985 0.49427 0.0
H785 H 0.57109 0.35146 0.47674 0.0
H786 H 0.47177 0.36728 0.47167 0.0
H787 H 0.61638 0.28013 0.54241 0.0
H788 H 0.56287 0.48438 0.55143 0.0
H789 H 0.60825 0.27918 0.56985 0.0
H790 H 0.63407 0.51298 0.55752 0.0
O791 O 0.51675 0.30189 0.52336 0.0
H792 H 0.37804 0.32114 0.51063 0.0
H793 H 0.46587 0.28437 0.48432 0.0
H794 H 0.39398 0.23787 0.48465 0.0
H795 H 0.34952 0.2562 0.49785 0.0
H796 H 0.45013 0.36662 0.51012 0.0
H797 H 0.47494 0.36229 0.44439 0.0
H798 H 0.52684 0.35131 0.43315 0.0
O799 O 0.52846 0.31834 0.49952 0.0
C800 C 0.60101 0.3963 0.50593 0.0
C801 C 0.55235 0.35053 0.4543 0.0
C802 C 0.49614 0.35981 0.45141 0.0
N803 N 0.5211 0.35946 0.4758 0.0
C804 C 0.54985 0.35363 0.46971 0.0
C805 C 0.49456 0.36275 0.46686 0.0
C806 C 0.52525 0.35363 0.44511 0.0
C807 C 0.55674 0.42964 0.54332 0.0
N808 N 0.57495 0.40805 0.54078 0.0
C809 C 0.57758 0.46755 0.54943 0.0
C810 C 0.61754 0.48363 0.5528 0.0
C811 C 0.6362 0.46189 0.54987 0.0
C812 C 0.61437 0.42414 0.54373 0.0
C813 C 0.58138 0.31569 0.5692 0.0
C814 C 0.59006 0.31643 0.5387 0.0
C815 C 0.56973 0.33698 0.5601 0.0
N816 N 0.57301 0.3362 0.54497 0.0
C817 C 0.60346 0.2961 0.54753 0.0
C818 C 0.5988 0.29552 0.56289 0.0
C819 C 0.5222 0.29421 0.51013 0.0
C820 C 0.3971 0.31282 0.50484 0.0
C821 C 0.44676 0.29246 0.49018 0.0
C822 C 0.40605 0.26606 0.49028 0.0
C823 C 0.38112 0.27637 0.49768 0.0
N824 N 0.4622 0.32816 0.49723 0.0
C825 C 0.43794 0.33847 0.5045 0.0
Co826 Co 0.64718 0.18585 0.53305 0.0
Co827 Co 0.62635 0.14993 0.4977 0.0
O828 O 0.62513 0.14124 0.5194 0.0
C829 C 0.65119 0.1218 0.54983 0.0
O830 O 0.62556 0.09456 0.54087 0.0
C831 C 0.54681 0.08125 0.50262 0.0
O832 O 0.53888 0.10416 0.51085 0.0
O833 O 0.59164 0.17274 0.50069 0.0
O834 O 0.62268 0.21141 0.52056 0.0
H835 H 0.63162 0.22378 0.45109 0.0
H836 H 0.57192 0.10577 0.53561 0.0
O837 O 0.66824 0.1583 0.54613 0.0
H838 H 0.55427 0.19057 0.57151 0.0
H839 H 0.72452 0.26622 0.57806 0.0
H840 H 0.67411 0.27154 0.52847 0.0
H841 H 0.61248 0.21836 0.5557 0.0
H842 H 0.6846 0.20534 0.56415 0.0
O843 O 0.58005 0.09537 0.49606 0.0
H844 H 0.63382 0.2147 0.47817 0.0
H845 H 0.6139 0.09854 0.47137 0.0
H846 H 0.7117 0.33209 0.54261 0.0
H847 H 0.51269 0.0778 0.5509 0.0
H848 H 0.73736 0.33032 0.56767 0.0
H849 H 0.50358 0.1197 0.56941 0.0
O850 O 0.69655 0.2089 0.52129 0.0
H851 H 0.67258 0.05254 0.50688 0.0
H852 H 0.70096 0.17505 0.48073 0.0
H853 H 0.74658 0.149 0.47787 0.0
H854 H 0.73244 0.08725 0.49097 0.0
H855 H 0.62788 0.07977 0.50951 0.0
H856 H 0.6111 0.10618 0.4442 0.0
H857 H 0.62022 0.16926 0.43389 0.0
O858 O 0.67295 0.20514 0.49864 0.0
C859 C 0.59717 0.19977 0.50996 0.0
C860 C 0.62779 0.19622 0.45544 0.0
C861 C 0.61626 0.13022 0.45157 0.0
N862 N 0.62464 0.15639 0.47634 0.0
C863 C 0.62915 0.19096 0.47076 0.0
C864 C 0.61784 0.12605 0.46697 0.0
C865 C 0.62137 0.16561 0.4458 0.0
C866 C 0.56944 0.12487 0.54357 0.0
N867 N 0.59851 0.16358 0.54518 0.0
C868 C 0.53512 0.10853 0.55224 0.0
C869 C 0.53 0.13198 0.56261 0.0
C870 C 0.55858 0.17164 0.56387 0.0
C871 C 0.59228 0.18712 0.55488 0.0
C872 C 0.71257 0.26729 0.5673 0.0
C873 C 0.68301 0.2692 0.5396 0.0
C874 C 0.68984 0.23259 0.55917 0.0
N875 N 0.67447 0.23343 0.54553 0.0
C876 C 0.70519 0.30428 0.54751 0.0
C877 C 0.71985 0.30327 0.56148 0.0
C878 C 0.7003 0.22247 0.50822 0.0
C879 C 0.67902 0.07943 0.50109 0.0
C880 C 0.69469 0.14825 0.48652 0.0
C881 C 0.72058 0.13359 0.48483 0.0
C882 C 0.71262 0.09894 0.49217 0.0
N883 N 0.6617 0.12886 0.49524 0.0
C884 C 0.65378 0.09495 0.50252 0.0
Co885 Co 0.77881 0.46872 0.62933 0.0
Co886 Co 0.81746 0.51334 0.662 0.0
O887 O 0.81173 0.51708 0.64042 0.0
C888 C 0.84894 0.50838 0.60805 0.0
O889 O 0.87401 0.50784 0.61766 0.0
C890 C 0.8069 0.58232 0.65828 0.0
O891 O 0.77622 0.56008 0.64987 0.0
O892 O 0.75944 0.49177 0.66411 0.0
O893 O 0.74247 0.44469 0.64687 0.0
H894 H 0.77621 0.45019 0.71249 0.0
H895 H 0.79354 0.5466 0.61875 0.0
O896 O 0.81256 0.49341 0.61133 0.0
H897 H 0.64863 0.46202 0.61933 0.0
H898 H 0.73368 0.38311 0.58336 0.0
H899 H 0.73327 0.38387 0.63806 0.0
H900 H 0.69145 0.43455 0.62602 0.0
H901 H 0.75848 0.4461 0.59702 0.0
O902 O 0.82679 0.56807 0.6641 0.0
H903 H 0.77133 0.454 0.68522 0.0
H904 H 0.87258 0.56882 0.6849 0.0
H905 H 0.70678 0.32138 0.6249 0.0
H906 H 0.75183 0.57449 0.61113 0.0
H907 H 0.70779 0.32037 0.59724 0.0
H908 H 0.67871 0.53197 0.61143 0.0
O909 O 0.8133 0.44852 0.63651 0.0
H910 H 0.95172 0.60642 0.6409 0.0
H911 H 0.87542 0.49077 0.67339 0.0
H912 H 0.94672 0.51616 0.66965 0.0
H913 H 0.98538 0.57446 0.65333 0.0
H914 H 0.88029 0.57991 0.64487 0.0
H915 H 0.87833 0.56655 0.71219 0.0
H916 H 0.83007 0.50679 0.72616 0.0
O917 O 0.80844 0.45771 0.66063 0.0
C918 C 0.7337 0.46065 0.65748 0.0
C919 C 0.79764 0.47626 0.70652 0.0
C920 C 0.85492 0.54158 0.70635 0.0
N921 N 0.82222 0.51112 0.68344 0.0
C922 C 0.79517 0.47845 0.69106 0.0
C923 C 0.85153 0.54268 0.6909 0.0
C924 C 0.82782 0.50805 0.71418 0.0
C925 C 0.76179 0.52763 0.6185 0.0
N926 N 0.74504 0.48883 0.62255 0.0
C927 C 0.73832 0.54367 0.61428 0.0
C928 C 0.69733 0.51982 0.61444 0.0
C929 C 0.68043 0.48037 0.61871 0.0
C930 C 0.70485 0.46511 0.62259 0.0
C931 C 0.73304 0.38337 0.59537 0.0
C932 C 0.73255 0.38439 0.62608 0.0
C933 C 0.74717 0.41891 0.6032 0.0
N934 N 0.7481 0.41932 0.61842 0.0
C935 C 0.71768 0.34844 0.61863 0.0
C936 C 0.71856 0.34801 0.60316 0.0
C937 C 0.81237 0.43816 0.65001 0.0
C938 C 0.93522 0.58108 0.64807 0.0
C939 C 0.89202 0.51609 0.66624 0.0
C940 C 0.9324 0.53038 0.66419 0.0
C941 C 0.95408 0.5631 0.65504 0.0
N942 N 0.87378 0.53401 0.65942 0.0
C943 C 0.8948 0.56601 0.65039 0.0
Co944 Co 0.52705 0.31958 0.62957 0.0
Co945 Co 0.48988 0.29561 0.66499 0.0
O946 O 0.48286 0.30023 0.64351 0.0
C947 C 0.46755 0.33019 0.61329 0.0
O948 O 0.44051 0.29911 0.62047 0.0
C949 C 0.40832 0.22982 0.65672 0.0
O950 O 0.41644 0.23713 0.64254 0.0
O951 O 0.50977 0.25863 0.66053 0.0
O952 O 0.54999 0.29078 0.64108 0.0
H953 H 0.56211 0.28908 0.71033 0.0
H954 H 0.47413 0.23231 0.63455 0.0
O955 O 0.50356 0.34657 0.61761 0.0
H956 H 0.48357 0.24971 0.58012 0.0
H957 H 0.62902 0.42386 0.59603 0.0
H958 H 0.5785 0.29066 0.61699 0.0
H959 H 0.51859 0.30696 0.59668 0.0
H960 H 0.57275 0.39583 0.61348 0.0
O961 O 0.4339 0.25009 0.66664 0.0
H962 H 0.5536 0.29735 0.68363 0.0
H963 H 0.44027 0.28301 0.69197 0.0
H964 H 0.63795 0.31959 0.60083 0.0
H965 H 0.43751 0.17439 0.61841 0.0
H966 H 0.66315 0.3865 0.59022 0.0
H967 H 0.4423 0.1827 0.59093 0.0
O968 O 0.55674 0.36757 0.64211 0.0
H969 H 0.40028 0.35289 0.65894 0.0
H970 H 0.51899 0.36719 0.6841 0.0
H971 H 0.49732 0.41551 0.68911 0.0
H972 H 0.4374 0.40839 0.67656 0.0
H973 H 0.42325 0.30561 0.6541 0.0
H974 H 0.44716 0.27418 0.71876 0.0
H975 H 0.50855 0.27729 0.72812 0.0
O976 O 0.54593 0.33981 0.66453 0.0
C977 C 0.53783 0.26486 0.65156 0.0
C978 C 0.53512 0.28743 0.70639 0.0
C979 C 0.47061 0.27901 0.71112 0.0
N980 N 0.49618 0.28994 0.68617 0.0
C981 C 0.53011 0.29197 0.69126 0.0
C982 C 0.46669 0.28368 0.69591 0.0
C983 C 0.50507 0.28083 0.71636 0.0
C984 C 0.47613 0.23649 0.62268 0.0
N985 N 0.49877 0.27328 0.61672 0.0
C986 C 0.45538 0.20341 0.61355 0.0
C987 C 0.45814 0.20806 0.59814 0.0
C988 C 0.48134 0.24558 0.59208 0.0
C989 C 0.50138 0.27795 0.60157 0.0
C990 C 0.61883 0.39502 0.60092 0.0
C991 C 0.59064 0.32042 0.61292 0.0
C992 C 0.58648 0.37861 0.61059 0.0
N993 N 0.57241 0.34147 0.61629 0.0
C994 C 0.62412 0.33662 0.60379 0.0
C995 C 0.63809 0.37409 0.5977 0.0
C996 C 0.5667 0.36783 0.65558 0.0
C997 C 0.42627 0.35614 0.66456 0.0
C998 C 0.49291 0.36387 0.67857 0.0
C999 C 0.48076 0.39133 0.68147 0.0
C1000 C 0.44715 0.38732 0.67443 0.0
N1001 N 0.47201 0.33307 0.66901 0.0
C1002 C 0.4393 0.32925 0.66193 0.0
Co1003 Co 0.70474 0.19098 0.66836 0.0
Co1004 Co 0.69338 0.20188 0.63137 0.0
O1005 O 0.7094 0.17952 0.64735 0.0
C1006 C 0.78329 0.19972 0.66537 0.0
O1007 O 0.78908 0.22516 0.65476 0.0
C1008 C 0.64253 0.12955 0.61302 0.0
O1009 O 0.61092 0.13099 0.61702 0.0
O1010 O 0.64093 0.18039 0.64118 0.0
O1011 O 0.65868 0.19943 0.66453 0.0
H1012 H 0.61348 0.26108 0.61575 0.0
H1013 H 0.70522 0.11763 0.66013 0.0
O1014 O 0.75086 0.18354 0.67257 0.0
H1015 H 0.58082 0.07323 0.68776 0.0
H1016 H 0.71294 0.17219 0.72343 0.0
H1017 H 0.68925 0.24788 0.68491 0.0
H1018 H 0.62702 0.14428 0.68367 0.0
H1019 H 0.71504 0.15796 0.6968 0.0
O1020 O 0.67516 0.15159 0.61966 0.0
H1021 H 0.65716 0.2516 0.63227 0.0
H1022 H 0.68747 0.19843 0.59743 0.0
H1023 H 0.68667 0.26302 0.71138 0.0
H1024 H 0.66002 0.04631 0.66407 0.0
H1025 H 0.69858 0.22501 0.73087 0.0
H1026 H 0.59729 0.0237 0.67797 0.0
O1027 O 0.74052 0.24832 0.66454 0.0
H1028 H 0.81634 0.19935 0.61651 0.0
H1029 H 0.74517 0.27363 0.61291 0.0
H1030 H 0.80948 0.2993 0.60046 0.0
H1031 H 0.84588 0.26238 0.60234 0.0
H1032 H 0.75117 0.17385 0.62833 0.0
H1033 H 0.6386 0.20224 0.58105 0.0
H1034 H 0.60299 0.23595 0.58983 0.0
O1035 O 0.71617 0.25388 0.64243 0.0
C1036 C 0.63453 0.19095 0.65376 0.0
C1037 C 0.62983 0.24787 0.61145 0.0
C1038 C 0.64445 0.21518 0.59198 0.0
N1039 N 0.67377 0.22289 0.61605 0.0
C1040 C 0.65498 0.24241 0.62082 0.0
C1041 C 0.67105 0.21194 0.60148 0.0
C1042 C 0.6239 0.2335 0.59699 0.0
C1043 C 0.67808 0.10804 0.66626 0.0
N1044 N 0.66888 0.13509 0.67174 0.0
C1045 C 0.65256 0.06761 0.66843 0.0
C1046 C 0.61735 0.05494 0.67621 0.0
C1047 C 0.60808 0.08271 0.68171 0.0
C1048 C 0.63432 0.1229 0.67933 0.0
C1049 C 0.70775 0.189 0.71504 0.0
C1050 C 0.69443 0.23122 0.6933 0.0
C1051 C 0.70905 0.18119 0.69994 0.0
N1052 N 0.70238 0.20218 0.68928 0.0
C1053 C 0.69294 0.23992 0.70828 0.0
C1054 C 0.69966 0.21861 0.71921 0.0
C1055 C 0.73857 0.26894 0.65386 0.0
C1056 C 0.8009 0.21584 0.61568 0.0
C1057 C 0.76038 0.25696 0.61368 0.0
C1058 C 0.797 0.27183 0.60663 0.0
C1059 C 0.81741 0.25115 0.60771 0.0
N1060 N 0.74438 0.2224 0.62156 0.0
C1061 C 0.76404 0.20171 0.62246 0.0
Co1062 Co 0.52286 0.20584 0.1322 0.0
Co1063 Co 0.4857 0.18244 0.16726 0.0
O1064 O 0.47779 0.17824 0.14548 0.0
C1065 C 0.4644 0.13295 0.11509 0.0
O1066 O 0.43612 0.12415 0.12481 0.0
C1067 C 0.4136 0.18762 0.16271 0.0
O1068 O 0.43408 0.21673 0.15338 0.0
O1069 O 0.50561 0.24028 0.16574 0.0
O1070 O 0.54617 0.25284 0.14606 0.0
H1071 H 0.55516 0.24483 0.21526 0.0
H1072 H 0.43873 0.18642 0.12595 0.0
O1073 O 0.49966 0.16076 0.11753 0.0
H1074 H 0.52344 0.3172 0.10353 0.0
H1075 H 0.60204 0.23405 0.08466 0.0
H1076 H 0.60765 0.25867 0.1385 0.0
H1077 H 0.55271 0.28397 0.11726 0.0
H1078 H 0.54047 0.20824 0.09917 0.0
O1079 O 0.4301 0.17101 0.16942 0.0
H1080 H 0.54739 0.23812 0.18799 0.0
H1081 H 0.43499 0.13557 0.19281 0.0
H1082 H 0.66892 0.28656 0.12427 0.0
H1083 H 0.40817 0.21884 0.11259 0.0
H1084 H 0.66684 0.27476 0.0971 0.0
H1085 H 0.45043 0.2846 0.10101 0.0
O1086 O 0.54836 0.17987 0.14267 0.0
H1087 H 0.39345 0.03926 0.15538 0.0
H1088 H 0.51507 0.13338 0.18195 0.0
H1089 H 0.49258 0.06211 0.18289 0.0
H1090 H 0.43128 0.01449 0.16958 0.0
H1091 H 0.41718 0.11079 0.15463 0.0
H1092 H 0.44094 0.14103 0.22014 0.0
H1093 H 0.5015 0.19591 0.23156 0.0
O1094 O 0.5423 0.1945 0.16593 0.0
C1095 C 0.53297 0.26412 0.15694 0.0
C1096 C 0.52863 0.22074 0.21044 0.0
C1097 C 0.46455 0.16254 0.21317 0.0
N1098 N 0.49104 0.18657 0.18879 0.0
C1099 C 0.52422 0.21688 0.195 0.0
C1100 C 0.46127 0.15967 0.19768 0.0
C1101 C 0.49853 0.19331 0.21957 0.0
C1102 C 0.45776 0.21435 0.12072 0.0
N1103 N 0.49799 0.23169 0.12166 0.0
C1104 C 0.44006 0.23296 0.11328 0.0
C1105 C 0.46374 0.26989 0.10683 0.0
C1106 C 0.50463 0.28809 0.1082 0.0
C1107 C 0.52118 0.26871 0.11584 0.0
C1108 C 0.60329 0.24019 0.09642 0.0
C1109 C 0.60582 0.25372 0.12665 0.0
C1110 C 0.5685 0.22524 0.10478 0.0
N1111 N 0.57003 0.23189 0.11978 0.0
C1112 C 0.64098 0.26958 0.11862 0.0
C1113 C 0.63969 0.26278 0.1034 0.0
C1114 C 0.56135 0.18797 0.15589 0.0
C1115 C 0.4202 0.05971 0.16123 0.0
C1116 C 0.48854 0.11288 0.17602 0.0
C1117 C 0.47586 0.07254 0.17665 0.0
C1118 C 0.44145 0.04583 0.16919 0.0
N1119 N 0.46748 0.12625 0.16821 0.0
C1120 C 0.43376 0.10025 0.16085 0.0
Co1121 Co 0.79203 0.31655 0.13266 0.0
Co1122 Co 0.81199 0.30077 0.16816 0.0
O1123 O 0.81809 0.29838 0.1464 0.0
C1124 C 0.86557 0.33074 0.11629 0.0
O1125 O 0.87225 0.30915 0.12573 0.0
C1126 C 0.80369 0.22269 0.16314 0.0
O1127 O 0.77482 0.21604 0.15399 0.0
O1128 O 0.75422 0.26425 0.16611 0.0
O1129 O 0.74307 0.29091 0.14563 0.0
H1130 H 0.75009 0.31223 0.2157 0.0
H1131 H 0.81037 0.25024 0.12796 0.0
O1132 O 0.83919 0.34013 0.11891 0.0
H1133 H 0.68793 0.21029 0.09994 0.0
H1134 H 0.77245 0.37462 0.08519 0.0
H1135 H 0.73771 0.3469 0.13817 0.0
H1136 H 0.7179 0.27098 0.11462 0.0
H1137 H 0.79515 0.33609 0.09968 0.0
O1138 O 0.8218 0.25541 0.17008 0.0
H1139 H 0.75888 0.31309 0.18852 0.0
H1140 H 0.85288 0.28916 0.19402 0.0
H1141 H 0.71169 0.38151 0.12377 0.0
H1142 H 0.78073 0.18891 0.11374 0.0
H1143 H 0.72875 0.39588 0.09698 0.0
H1144 H 0.71924 0.16844 0.09933 0.0
O1145 O 0.816 0.36723 0.14363 0.0
H1146 H 0.95563 0.34974 0.15773 0.0
H1147 H 0.86095 0.37753 0.18379 0.0
H1148 H 0.93243 0.42505 0.18568 0.0
H1149 H 0.98032 0.41123 0.17261 0.0
H1150 H 0.88389 0.30314 0.15609 0.0
H1151 H 0.84516 0.28799 0.22129 0.0
H1152 H 0.79347 0.2996 0.23232 0.0
O1153 O 0.80103 0.34584 0.16685 0.0
C1154 C 0.73108 0.2672 0.1568 0.0
C1155 C 0.77267 0.30704 0.21104 0.0
C1156 C 0.82599 0.2934 0.21418 0.0
N1157 N 0.80608 0.30087 0.18964 0.0
C1158 C 0.77771 0.30742 0.19564 0.0
C1159 C 0.83011 0.29394 0.19871 0.0
C1160 C 0.79701 0.29995 0.22036 0.0
C1161 C 0.78441 0.24285 0.12155 0.0
N1162 N 0.76803 0.26673 0.12144 0.0
C1163 C 0.76732 0.20738 0.11358 0.0
C1164 C 0.73279 0.19583 0.10555 0.0
C1165 C 0.71534 0.21936 0.10584 0.0
C1166 C 0.73311 0.25443 0.11403 0.0
C1167 C 0.76389 0.36755 0.09672 0.0
C1168 C 0.74447 0.35146 0.12645 0.0
C1169 C 0.77717 0.34626 0.1051 0.0
N1170 N 0.76762 0.33866 0.11987 0.0
C1171 C 0.72979 0.37164 0.11832 0.0
C1172 C 0.73958 0.37977 0.10335 0.0
C1173 C 0.80749 0.37144 0.15686 0.0
C1174 C 0.93506 0.35608 0.16349 0.0
C1175 C 0.88159 0.3714 0.17802 0.0
C1176 C 0.92204 0.39837 0.17916 0.0
C1177 C 0.94889 0.39059 0.17183 0.0
N1178 N 0.86828 0.33759 0.16984 0.0
C1179 C 0.89441 0.32978 0.16261 0.0
Co1180 Co 0.6818 0.47297 0.13196 0.0
Co1181 Co 0.6963 0.5106 0.16694 0.0
O1182 O 0.6985 0.51801 0.14519 0.0
C1183 C 0.66796 0.53086 0.11432 0.0
O1184 O 0.68792 0.55943 0.12385 0.0
C1185 C 0.77296 0.58293 0.16219 0.0
O1186 O 0.7822 0.56201 0.15335 0.0
O1187 O 0.73509 0.49208 0.16507 0.0
O1188 O 0.70674 0.45056 0.14572 0.0
H1189 H 0.69701 0.44371 0.21471 0.0
H1190 H 0.74773 0.55769 0.12718 0.0
O1191 O 0.65886 0.49533 0.1173 0.0
H1192 H 0.79116 0.47535 0.10105 0.0
H1193 H 0.62831 0.39243 0.08483 0.0
H1194 H 0.65142 0.38879 0.13846 0.0
H1195 H 0.72934 0.44466 0.11512 0.0
H1196 H 0.66533 0.45453 0.09891 0.0
O1197 O 0.73966 0.56665 0.16877 0.0
H1198 H 0.6966 0.45112 0.18747 0.0
H1199 H 0.69899 0.56028 0.19262 0.0
H1200 H 0.61782 0.32738 0.12463 0.0
H1201 H 0.81056 0.58941 0.11385 0.0
H1202 H 0.60588 0.32813 0.09752 0.0
H1203 H 0.83267 0.54846 0.10031 0.0
O1204 O 0.63059 0.44628 0.14273 0.0
H1205 H 0.64119 0.59965 0.1555 0.0
H1206 H 0.61851 0.47985 0.18232 0.0
H1207 H 0.56842 0.50064 0.18367 0.0
H1208 H 0.57968 0.56103 0.17024 0.0
H1209 H 0.69033 0.5776 0.15433 0.0
H1210 H 0.70004 0.55448 0.21993 0.0
H1211 H 0.69873 0.49568 0.23116 0.0
O1212 O 0.65272 0.45367 0.16588 0.0
C1213 C 0.7315 0.46443 0.1565 0.0
C1214 C 0.69719 0.46928 0.20997 0.0
C1215 C 0.69896 0.53147 0.21289 0.0
N1216 N 0.69662 0.50548 0.18844 0.0
C1217 C 0.69663 0.47344 0.19454 0.0
C1218 C 0.69834 0.53458 0.19741 0.0
C1219 C 0.69824 0.49848 0.21919 0.0
C1220 C 0.75609 0.5391 0.12128 0.0
N1221 N 0.73245 0.49883 0.12124 0.0
C1222 C 0.79232 0.55752 0.11378 0.0
C1223 C 0.80474 0.53459 0.1062 0.0
C1224 C 0.78139 0.49364 0.10655 0.0
C1225 C 0.74572 0.4763 0.11439 0.0
C1226 C 0.63435 0.39165 0.09653 0.0
C1227 C 0.64768 0.39026 0.12663 0.0
C1228 C 0.65479 0.42675 0.10466 0.0
N1229 N 0.66102 0.42575 0.11962 0.0
C1230 C 0.62817 0.35492 0.1188 0.0
C1231 C 0.62144 0.35556 0.10364 0.0
C1232 C 0.62689 0.43379 0.15602 0.0
C1233 C 0.63597 0.57332 0.16141 0.0
C1234 C 0.62351 0.50601 0.17635 0.0
C1235 C 0.5951 0.51772 0.17721 0.0
C1236 C 0.60145 0.55162 0.16968 0.0
N1237 N 0.65736 0.52754 0.16827 0.0
C1238 C 0.66372 0.56073 0.16082 0.0
Co1239 Co 0.53723 0.18769 0.03588 0.0
Co1240 Co 0.52042 0.15499 1.00003 0.0
O1241 O 0.51223 0.1446 0.02164 0.0
C1242 C 0.46459 0.12686 0.05191 0.0
O1243 O 0.46092 0.09868 0.043 0.0
C1244 C 0.52669 0.0835 0.00428 0.0
O1245 O 0.55694 0.10457 0.01305 0.0
O1246 O 0.57758 0.17495 0.00289 0.0
O1247 O 0.58758 0.21167 0.02359 0.0
H1248 H 0.59155 0.23086 0.95408 0.0
H1249 H 0.52303 0.10364 0.03804 0.0
O1250 O 0.48847 0.16307 0.04882 0.0
H1251 H 0.63212 0.18137 0.07273 0.0
H1252 H 0.54587 0.26332 0.08274 0.0
H1253 H 0.5945 0.2726 0.03155 0.0
H1254 H 0.60591 0.21399 0.05719 0.0
H1255 H 0.5282 0.20284 0.06859 0.0
O1256 O 0.50957 0.09964 0.99766 0.0
H1257 H 0.57984 0.21988 0.98108 0.0
H1258 H 0.47988 0.10674 0.9732 0.0
H1259 H 0.61549 0.33271 0.04589 0.0
H1260 H 0.55003 0.07048 0.05283 0.0
H1261 H 0.59062 0.32885 0.07155 0.0
H1262 H 0.60444 0.10888 0.0707 0.0
O1263 O 0.51425 0.21505 0.02477 0.0
H1264 H 0.3755 0.06167 0.00851 0.0
H1265 H 0.47382 0.18495 0.98387 0.0
H1266 H 0.40277 0.16217 0.98104 0.0
H1267 H 0.35306 0.10003 0.99336 0.0
H1268 H 0.44684 0.08571 0.01115 0.0
H1269 H 0.4907 0.11626 0.94609 0.0
H1270 H 0.54675 0.1788 0.93637 0.0
O1271 O 0.53174 0.21113 0.00171 0.0
C1272 C 0.60015 0.20036 0.01246 0.0
C1273 C 0.56692 0.20354 0.95817 0.0
C1274 C 0.51035 0.13922 0.95369 0.0
N1275 N 0.52891 0.16294 0.97871 0.0
C1276 C 0.56007 0.19722 0.97345 0.0
C1277 C 0.5044 0.13396 0.96905 0.0
C1278 C 0.5418 0.17431 0.94824 0.0
C1279 C 0.54607 0.1212 0.04581 0.0
N1280 N 0.56004 0.16091 0.04739 0.0
C1281 C 0.56164 0.10193 0.05415 0.0
C1282 C 0.59217 0.12344 0.06415 0.0
C1283 C 0.6075 0.164 0.06535 0.0
C1284 C 0.59165 0.18234 0.05663 0.0
C1285 C 0.55743 0.26532 0.07163 0.0
C1286 C 0.58506 0.26981 0.04299 0.0
C1287 C 0.54705 0.2311 0.0634 0.0
N1288 N 0.5602 0.23356 0.04908 0.0
C1289 C 0.5968 0.3044 0.05103 0.0
C1290 C 0.58259 0.30213 0.06539 0.0
C1291 C 0.52352 0.22893 0.01172 0.0
C1292 C 0.39687 0.08876 0.00306 0.0
C1293 C 0.45238 0.158 0.98934 0.0
C1294 C 0.41218 0.14519 0.98766 0.0
C1295 C 0.3843 0.11031 0.99457 0.0
N1296 N 0.46447 0.1366 0.99763 0.0
C1297 C 0.43731 0.10248 0.0045 0.0
Co1298 Co 0.80646 0.34545 0.03547 0.0
Co1299 Co 0.84427 0.35968 0.00064 0.0
O1300 O 0.85216 0.36391 0.0224 0.0
C1301 C 0.86675 0.33454 0.05313 0.0
O1302 O 0.89481 0.35362 0.04329 0.0
C1303 C 0.91401 0.43796 0.0052 0.0
O1304 O 0.89209 0.44452 0.01455 0.0
O1305 O 0.82326 0.39644 0.00205 0.0
O1306 O 0.78125 0.36598 0.02104 0.0
H1307 H 0.77172 0.34822 0.95299 0.0
H1308 H 0.88899 0.4117 0.04265 0.0
O1309 O 0.83127 0.32641 0.05066 0.0
H1310 H 0.79919 0.4569 0.06059 0.0
H1311 H 0.72808 0.29199 0.08296 0.0
H1312 H 0.72076 0.31072 0.02917 0.0
H1313 H 0.77298 0.39277 0.04806 0.0
H1314 H 0.78909 0.33152 0.06851 0.0
O1315 O 0.89931 0.40507 0.99838 0.0
H1316 H 0.78025 0.35017 0.98023 0.0
H1317 H 0.89565 0.36667 0.97491 0.0
H1318 H 0.65977 0.27396 0.04344 0.0
H1319 H 0.91657 0.476 0.05496 0.0
H1320 H 0.66297 0.26403 0.07054 0.0
H1321 H 0.87164 0.4991 0.06423 0.0
O1322 O 0.78335 0.29364 0.02541 0.0
H1323 H 0.93942 0.31242 0.01278 0.0
H1324 H 0.81719 0.28176 0.98591 0.0
H1325 H 0.84163 0.23448 0.98506 0.0
H1326 H 0.90322 0.24974 0.99854 0.0
H1327 H 0.91379 0.35874 0.0134 0.0
H1328 H 0.88851 0.3652 0.94759 0.0
H1329 H 0.82611 0.35574 0.93646 0.0
O1330 O 0.78824 0.31399 0.00214 0.0
C1331 C 0.79488 0.39143 0.01051 0.0
C1332 C 0.79897 0.35216 0.9577 0.0
C1333 C 0.86454 0.36174 0.95467 0.0
N1334 N 0.83818 0.35797 0.97916 0.0
C1335 C 0.80391 0.35314 0.97313 0.0
C1336 C 0.86843 0.36258 0.97015 0.0
C1337 C 0.82952 0.35643 0.94844 0.0
C1338 C 0.86889 0.42044 0.04699 0.0
N1339 N 0.82893 0.39667 0.04544 0.0
C1340 C 0.88486 0.45746 0.0538 0.0
C1341 C 0.85969 0.47049 0.05894 0.0
C1342 C 0.81908 0.44679 0.05695 0.0
C1343 C 0.80428 0.41009 0.05 0.0
C1344 C 0.72645 0.29691 0.0712 0.0
C1345 C 0.72297 0.30776 0.041 0.0
C1346 C 0.76095 0.31879 0.06286 0.0
N1347 N 0.75902 0.32335 0.04784 0.0
C1348 C 0.68799 0.28657 0.04905 0.0
C1349 C 0.68982 0.28095 0.06423 0.0
C1350 C 0.76995 0.28827 0.01225 0.0
C1351 C 0.91256 0.30544 0.00685 0.0
C1352 C 0.84389 0.28851 0.99187 0.0
C1353 C 0.85765 0.26168 0.99131 0.0
C1354 C 0.89222 0.27027 0.99887 0.0
N1355 N 0.86405 0.32297 0.99971 0.0
C1356 C 0.89793 0.33158 0.00715 0.0
Co1357 Co 0.65041 0.45776 0.03401 0.0
Co1358 Co 0.63505 0.47858 0.99856 0.0
O1359 O 0.634 0.48545 0.02032 0.0
C1360 C 0.66717 0.5312 0.05076 0.0
O1361 O 0.64608 0.53922 0.04154 0.0
C1362 C 0.5592 0.4757 0.00374 0.0
O1363 O 0.55003 0.44576 0.01269 0.0
O1364 O 0.59594 0.42135 0.00083 0.0
O1365 O 0.62199 0.40892 0.02121 0.0
H1366 H 0.63971 0.41312 0.95089 0.0
H1367 H 0.58596 0.47925 0.03812 0.0
O1368 O 0.67672 0.50523 0.04752 0.0
H1369 H 0.54348 0.35983 0.06839 0.0
H1370 H 0.70887 0.43613 0.081 0.0
H1371 H 0.6737 0.39751 0.02869 0.0
H1372 H 0.60333 0.38597 0.05337 0.0
H1373 H 0.67281 0.46189 0.06677 0.0
O1374 O 0.59207 0.49194 0.99686 0.0
H1375 H 0.64206 0.42243 0.97806 0.0
H1376 H 0.62679 0.52187 0.97276 0.0
H1377 H 0.70472 0.36759 0.04308 0.0
H1378 H 0.52541 0.45321 0.05266 0.0
H1379 H 0.72328 0.38693 0.06945 0.0
H1380 H 0.50371 0.39337 0.06824 0.0
O1381 O 0.70054 0.47874 0.02271 0.0
H1382 H 0.69232 0.62367 0.00859 0.0
H1383 H 0.71197 0.52361 0.98256 0.0
H1384 H 0.76248 0.59412 0.98031 0.0
H1385 H 0.75274 0.64472 0.99335 0.0
H1386 H 0.64273 0.55283 0.01062 0.0
H1387 H 0.6241 0.51374 0.9455 0.0
H1388 H 0.63061 0.45903 0.93438 0.0
O1389 O 0.67763 0.46408 0.99965 0.0
C1390 C 0.59794 0.39764 0.01015 0.0
C1391 C 0.63668 0.437 0.95559 0.0
C1392 C 0.62787 0.49341 0.95258 0.0
N1393 N 0.63404 0.47226 0.97706 0.0
C1394 C 0.6379 0.44231 0.971 0.0
C1395 C 0.62918 0.49773 0.96804 0.0
C1396 C 0.63158 0.46275 0.94634 0.0
C1397 C 0.57815 0.45397 0.04502 0.0
N1398 N 0.60105 0.43651 0.04555 0.0
C1399 C 0.54305 0.43891 0.05316 0.0
C1400 C 0.53081 0.40531 0.06186 0.0
C1401 C 0.5532 0.38665 0.062 0.0
C1402 C 0.58792 0.40234 0.0536 0.0
C1403 C 0.70022 0.42679 0.06962 0.0
C1404 C 0.67999 0.40535 0.04026 0.0
C1405 C 0.68037 0.44189 0.06134 0.0
N1406 N 0.67077 0.43142 0.04673 0.0
C1407 C 0.69822 0.38849 0.04837 0.0
C1408 C 0.70854 0.3994 0.06314 0.0
C1409 C 0.70304 0.46893 0.0095 0.0
C1410 C 0.69688 0.60191 0.00284 0.0
C1411 C 0.70763 0.54543 0.98834 0.0
C1412 C 0.73628 0.58532 0.98699 0.0
C1413 C 0.73079 0.6137 0.9943 0.0
N1414 N 0.6744 0.53413 0.99669 0.0
C1415 C 0.66887 0.56176 0.00393 0.0
Co1416 Co 0.51078 0.81698 0.83114 0.0
Co1417 Co 0.47597 0.79255 0.86621 0.0
O1418 O 0.52036 0.82105 0.85271 0.0
C1419 C 0.5815 0.80976 0.83501 0.0
O1420 O 0.56079 0.78166 0.84468 0.0
C1421 C 0.49515 0.85722 0.88847 0.0
O1422 O 0.46308 0.85798 0.88459 0.0
O1423 O 0.45125 0.82126 0.85717 0.0
O1424 O 0.45501 0.807 0.83353 0.0
H1425 H 0.3307 0.71812 0.87644 0.0
H1426 H 0.58064 0.88762 0.84357 0.0
O1427 O 0.56563 0.82684 0.82818 0.0
H1428 H 0.50675 0.93908 0.8159 0.0
H1429 H 0.54951 0.85556 0.77763 0.0
H1430 H 0.44639 0.76028 0.81148 0.0
H1431 H 0.48247 0.86744 0.81687 0.0
H1432 H 0.55891 0.86219 0.80486 0.0
O1433 O 0.50517 0.83551 0.88128 0.0
H1434 H 0.38991 0.74386 0.86113 0.0
H1435 H 0.46257 0.78231 0.8997 0.0
H1436 H 0.43542 0.75278 0.78435 0.0
H1437 H 0.60619 0.95953 0.84277 0.0
H1438 H 0.48725 0.80067 0.76722 0.0
H1439 H 0.56912 0.98568 0.82887 0.0
O1440 O 0.49038 0.75919 0.8326 0.0
H1441 H 0.59004 0.77935 0.8852 0.0
H1442 H 0.44674 0.70934 0.87554 0.0
H1443 H 0.47703 0.67279 0.88637 0.0
H1444 H 0.54935 0.70791 0.89129 0.0
H1445 H 0.55813 0.81469 0.87456 0.0
H1446 H 0.40291 0.76046 0.91538 0.0
H1447 H 0.33662 0.72635 0.90389 0.0
O1448 O 0.44865 0.74795 0.85157 0.0
C1449 C 0.43743 0.81434 0.84399 0.0
C1450 C 0.35939 0.73229 0.88171 0.0
C1451 C 0.40019 0.75557 0.90352 0.0
N1452 N 0.43022 0.76573 0.87937 0.0
C1453 C 0.39344 0.74702 0.87303 0.0
C1454 C 0.43378 0.7687 0.89452 0.0
C1455 C 0.36281 0.73693 0.89706 0.0
C1456 C 0.56447 0.8988 0.83743 0.0
N1457 N 0.53025 0.87339 0.8302 0.0
C1458 C 0.57902 0.93954 0.83705 0.0
C1459 C 0.55819 0.95418 0.82926 0.0
C1460 C 0.52318 0.92806 0.82199 0.0
C1461 C 0.50953 0.88751 0.82261 0.0
C1462 C 0.5266 0.83463 0.78498 0.0
C1463 C 0.46883 0.7815 0.80411 0.0
C1464 C 0.53179 0.83822 0.8004 0.0
N1465 N 0.50288 0.81208 0.80975 0.0
C1466 C 0.46256 0.77698 0.78875 0.0
C1467 C 0.49168 0.80383 0.77914 0.0
C1468 C 0.46213 0.7359 0.8411 0.0
C1469 C 0.55846 0.76378 0.88324 0.0
C1470 C 0.47795 0.72488 0.87788 0.0
C1471 C 0.49507 0.70401 0.88392 0.0
C1472 C 0.53563 0.7237 0.88664 0.0
N1473 N 0.50038 0.76429 0.87479 0.0
C1474 C 0.54021 0.78367 0.87725 0.0
Co1475 Co 0.20872 0.68561 0.87002 0.0
Co1476 Co 0.18604 0.69794 0.83448 0.0
O1477 O 0.18194 0.7028 0.85625 0.0
C1478 C 0.13701 0.6743 0.88695 0.0
O1479 O 0.13116 0.69671 0.87763 0.0
C1480 C 0.1959 0.77684 0.83882 0.0
O1481 O 0.22639 0.7843 0.84718 0.0
O1482 O 0.24399 0.73411 0.83574 0.0
O1483 O 0.25671 0.70985 0.85653 0.0
H1484 H 0.24475 0.68275 0.78681 0.0
H1485 H 0.19349 0.75435 0.87326 0.0
O1486 O 0.16251 0.66378 0.88419 0.0
H1487 H 0.31414 0.79263 0.90225 0.0
H1488 H 0.22663 0.62494 0.91704 0.0
H1489 H 0.26373 0.65588 0.8644 0.0
H1490 H 0.28263 0.73058 0.88854 0.0
H1491 H 0.20599 0.66576 0.90301 0.0
O1492 O 0.17673 0.74361 0.83226 0.0
H1493 H 0.2384 0.68515 0.81404 0.0
H1494 H 0.14266 0.7065 0.80877 0.0
H1495 H 0.28737 0.6185 0.87843 0.0
H1496 H 0.22508 0.81725 0.88644 0.0
H1497 H 0.26863 0.60204 0.90488 0.0
H1498 H 0.28566 0.83695 0.90133 0.0
O1499 O 0.18308 0.63403 0.85975 0.0
H1500 H 0.04371 0.65174 0.84648 0.0
H1501 H 0.13496 0.61997 0.81994 0.0
H1502 H 0.06319 0.57305 0.81903 0.0
H1503 H 0.01702 0.58888 0.83234 0.0
H1504 H 0.1157 0.6977 0.84716 0.0
H1505 H 0.14798 0.70455 0.78145 0.0
H1506 H 0.19924 0.69247 0.77029 0.0
O1507 O 0.19611 0.65213 0.83616 0.0
C1508 C 0.26785 0.73245 0.84503 0.0
C1509 C 0.22224 0.68798 0.79152 0.0
C1510 C 0.16796 0.70024 0.78852 0.0
N1511 N 0.19016 0.69577 0.813 0.0
C1512 C 0.21852 0.68934 0.80695 0.0
C1513 C 0.16516 0.70141 0.804 0.0
C1514 C 0.19672 0.69345 0.78227 0.0
C1515 C 0.21918 0.76148 0.87982 0.0
N1516 N 0.2341 0.73639 0.88068 0.0
C1517 C 0.23736 0.79784 0.8872 0.0
C1518 C 0.27134 0.80892 0.89553 0.0
C1519 C 0.28718 0.78401 0.8961 0.0
C1520 C 0.26845 0.74811 0.88844 0.0
C1521 C 0.23576 0.63278 0.9056 0.0
C1522 C 0.25679 0.65103 0.8761 0.0
C1523 C 0.22367 0.65544 0.89746 0.0
N1524 N 0.23366 0.66381 0.88276 0.0
C1525 C 0.2701 0.62924 0.88399 0.0
C1526 C 0.25928 0.61983 0.8988 0.0
C1527 C 0.18988 0.62756 0.84658 0.0
C1528 C 0.06352 0.64452 0.84062 0.0
C1529 C 0.11508 0.62697 0.82582 0.0
C1530 C 0.07446 0.60034 0.82524 0.0
C1531 C 0.04857 0.60925 0.8327 0.0
N1532 N 0.1295 0.66156 0.83359 0.0
C1533 C 0.10432 0.67046 0.84096 0.0
Co1534 Co 0.32021 0.52711 0.86828 0.0
Co1535 Co 0.30109 0.48909 0.83305 0.0
O1536 O 0.30232 0.48241 0.85478 0.0
C1537 C 0.33873 0.47095 0.8846 0.0
O1538 O 0.3161 0.44153 0.87576 0.0
C1539 C 0.22547 0.41658 0.83918 0.0
O1540 O 0.21691 0.43762 0.84824 0.0
O1541 O 0.26253 0.50775 0.83592 0.0
O1542 O 0.29053 0.54722 0.85594 0.0
H1543 H 0.302 0.55729 0.78531 0.0
H1544 H 0.25586 0.44137 0.87319 0.0
O1545 O 0.34789 0.50634 0.88133 0.0
H1546 H 0.21651 0.52016 0.90388 0.0
H1547 H 0.38249 0.60739 0.91488 0.0
H1548 H 0.34423 0.61072 0.86296 0.0
H1549 H 0.27497 0.55287 0.88808 0.0
H1550 H 0.34453 0.5455 0.90085 0.0
O1551 O 0.25783 0.43292 0.83198 0.0
H1552 H 0.30697 0.55164 0.81243 0.0
H1553 H 0.28943 0.43597 0.80741 0.0
H1554 H 0.37778 0.6719 0.87711 0.0
H1555 H 0.19674 0.40781 0.88856 0.0
H1556 H 0.39818 0.67126 0.90327 0.0
H1557 H 0.17661 0.4469 0.90434 0.0
O1558 O 0.36922 0.55602 0.85623 0.0
H1559 H 0.35858 0.40107 0.84234 0.0
H1560 H 0.37621 0.51955 0.81591 0.0
H1561 H 0.42614 0.49893 0.81296 0.0
H1562 H 0.41741 0.43921 0.8262 0.0
H1563 H 0.30956 0.42291 0.84505 0.0
H1564 H 0.28413 0.44016 0.78021 0.0
H1565 H 0.29044 0.50119 0.76897 0.0
O1566 O 0.34385 0.54585 0.83349 0.0
C1567 C 0.26544 0.53395 0.84519 0.0
C1568 C 0.29902 0.53045 0.79007 0.0
C1569 C 0.28894 0.46473 0.78721 0.0
N1570 N 0.29789 0.49336 0.81158 0.0
C1571 C 0.30169 0.52708 0.80545 0.0
C1572 C 0.29173 0.46244 0.80265 0.0
C1573 C 0.29254 0.49899 0.78091 0.0
C1574 C 0.24884 0.45924 0.88021 0.0
N1575 N 0.27196 0.49957 0.88046 0.0
C1576 C 0.21451 0.43973 0.88882 0.0
C1577 C 0.20314 0.46163 0.89762 0.0
C1578 C 0.2256 0.50265 0.89743 0.0
C1579 C 0.25956 0.52111 0.8886 0.0
C1580 C 0.37335 0.60811 0.90357 0.0
C1581 C 0.35138 0.60932 0.87444 0.0
C1582 C 0.35232 0.57312 0.89542 0.0
N1583 N 0.34191 0.57401 0.88091 0.0
C1584 C 0.37097 0.6445 0.88242 0.0
C1585 C 0.38231 0.64397 0.89706 0.0
C1586 C 0.3703 0.56711 0.84288 0.0
C1587 C 0.36269 0.42711 0.8365 0.0
C1588 C 0.37232 0.49365 0.82177 0.0
C1589 C 0.40063 0.48206 0.82002 0.0
C1590 C 0.39571 0.44854 0.82745 0.0
N1591 N 0.33995 0.4724 0.83062 0.0
C1592 C 0.335 0.43959 0.83797 0.0
Co1593 Co 0.45932 0.8115 0.9689 0.0
Co1594 Co 0.47847 0.84626 0.00441 0.0
O1595 O 0.48358 0.85531 0.98274 0.0
C1596 C 0.5252 0.87453 0.95104 0.0
O1597 O 0.5285 0.90279 0.95984 0.0
C1598 C 0.46596 0.91413 1.00042 0.0
O1599 O 0.43426 0.89059 0.99271 0.0
O1600 O 0.42029 0.82267 0.00248 0.0
O1601 O 0.41084 0.78535 0.98197 0.0
H1602 H 0.41702 0.77344 0.05202 0.0
H1603 H 0.46622 0.89289 0.96728 0.0
O1604 O 0.50656 0.83851 0.9553 0.0
H1605 H 0.35401 0.80811 0.9349 0.0
H1606 H 0.44957 0.73634 0.9217 0.0
H1607 H 0.40509 0.72557 0.97357 0.0
H1608 H 0.38777 0.78014 0.94871 0.0
H1609 H 0.46734 0.79627 0.9361 0.0
O1610 O 0.48637 0.90069 0.00644 0.0
H1611 H 0.4247 0.782 0.02479 0.0
H1612 H 0.52079 0.89843 0.03017 0.0
H1613 H 0.38223 0.66595 0.95877 0.0
H1614 H 0.43257 0.92149 0.95382 0.0
H1615 H 0.40418 0.67066 0.93247 0.0
H1616 H 0.37619 0.87947 0.93723 0.0
O1617 O 0.48616 0.78726 0.97963 0.0
H1618 H 0.62065 0.94466 0.9932 0.0
H1619 H 0.53022 0.82123 0.01966 0.0
H1620 H 0.60223 0.84766 0.02115 0.0
H1621 H 0.64798 0.90988 0.00789 0.0
H1622 H 0.54845 0.91705 0.99192 0.0
H1623 H 0.51425 0.8916 0.05749 0.0
H1624 H 0.46217 0.82866 0.0686 0.0
O1625 O 0.46977 0.79087 0.0029 0.0
C1626 C 0.398 0.79598 0.99318 0.0
C1627 C 0.43998 0.80096 0.04734 0.0
C1628 C 0.4945 0.86727 0.0504 0.0
N1629 N 0.47337 0.84025 0.02589 0.0
C1630 C 0.44445 0.8058 0.03192 0.0
C1631 C 0.49803 0.87096 0.03492 0.0
C1632 C 0.46528 0.83195 0.05662 0.0
C1633 C 0.44284 0.87392 0.95987 0.0
N1634 N 0.43202 0.83495 0.95804 0.0
C1635 C 0.42329 0.89054 0.95236 0.0
C1636 C 0.39163 0.867 0.9431 0.0
C1637 C 0.37936 0.82707 0.94173 0.0
C1638 C 0.3995 0.81146 0.94947 0.0
C1639 C 0.43879 0.73401 0.93296 0.0
C1640 C 0.41369 0.72873 0.96203 0.0
C1641 C 0.44947 0.76798 0.94137 0.0
N1642 N 0.43741 0.7652 0.95587 0.0
C1643 C 0.40093 0.69437 0.95369 0.0
C1644 C 0.41357 0.69706 0.93905 0.0
C1645 C 0.4772 0.77297 0.99266 0.0
C1646 C 0.60103 0.91758 0.99905 0.0
C1647 C 0.54994 0.84824 0.01381 0.0
C1648 C 0.59069 0.8631 0.01472 0.0
C1649 C 0.61634 0.89803 0.00729 0.0
N1650 N 0.53517 0.8677 0.00577 0.0
C1651 C 0.56012 0.90185 0.9984 0.0
Co1652 Co 0.19139 0.64911 0.96605 0.0
Co1653 Co 0.15282 0.62892 0.00091 0.0
O1654 O 0.14562 0.62916 0.97918 0.0
C1655 C 0.13308 0.66552 0.94992 0.0
O1656 O 0.10463 0.64429 0.95935 0.0
C1657 C 0.08011 0.55289 0.99514 0.0
O1658 O 0.10021 0.54513 0.98531 0.0
O1659 O 0.17201 0.59104 0.99791 0.0
O1660 O 0.21434 0.62314 0.97906 0.0
H1661 H 0.22034 0.6237 0.04783 0.0
H1662 H 0.10769 0.58486 0.95882 0.0
O1663 O 0.16848 0.67331 0.95231 0.0
H1664 H 0.19428 0.54574 0.93326 0.0
H1665 H 0.27218 0.70994 0.9194 0.0
H1666 H 0.27622 0.67991 0.97234 0.0
H1667 H 0.22251 0.60447 0.94915 0.0
H1668 H 0.21019 0.67097 0.93341 0.0
O1669 O 0.09702 0.585 0.00246 0.0
H1670 H 0.21293 0.6275 0.02073 0.0
H1671 H 0.10272 0.62229 0.02708 0.0
H1672 H 0.33786 0.7157 0.95842 0.0
H1673 H 0.07822 0.52539 0.94339 0.0
H1674 H 0.33648 0.73096 0.93165 0.0
H1675 H 0.12145 0.5055 0.93021 0.0
O1676 O 0.21625 0.69851 0.97779 0.0
H1677 H 0.06219 0.68341 0.99173 0.0
H1678 H 0.18247 0.70453 0.01774 0.0
H1679 H 0.16067 0.75358 0.02047 0.0
H1680 H 0.10005 0.74311 0.00744 0.0
H1681 H 0.08523 0.63529 0.98921 0.0
H1682 H 0.10854 0.61787 0.05426 0.0
H1683 H 0.16784 0.61886 0.06482 0.0
O1684 O 0.20949 0.67312 1.00031 0.0
C1685 C 0.20037 0.59666 0.98929 0.0
C1686 C 0.1945 0.62356 0.04338 0.0
C1687 C 0.13174 0.62024 0.04699 0.0
N1688 N 0.15793 0.62606 0.02232 0.0
C1689 C 0.19029 0.62596 0.02804 0.0
C1690 C 0.1286 0.62274 0.03158 0.0
C1691 C 0.16501 0.62078 0.0529 0.0
C1692 C 0.12714 0.57749 0.95299 0.0
N1693 N 0.16731 0.6005 0.95421 0.0
C1694 C 0.11005 0.54318 0.94433 0.0
C1695 C 0.13427 0.53197 0.93697 0.0
C1696 C 0.17508 0.55459 0.93863 0.0
C1697 C 0.19102 0.58841 0.94753 0.0
C1698 C 0.27304 0.70253 0.93094 0.0
C1699 C 0.2747 0.68527 0.96065 0.0
C1700 C 0.23802 0.68096 0.93905 0.0
N1701 N 0.2391 0.67274 0.95381 0.0
C1702 C 0.31008 0.70596 0.9528 0.0
C1703 C 0.30921 0.71462 0.93784 0.0
C1704 C 0.22878 0.7007 0.99097 0.0
C1705 C 0.08864 0.6883 0.99746 0.0
C1706 C 0.15622 0.6999 0.01194 0.0
C1707 C 0.14394 0.72771 0.01358 0.0
C1708 C 0.10991 0.7218 0.00627 0.0
N1709 N 0.13514 0.66707 0.0033 0.0
C1710 C 0.10181 0.66113 0.99609 0.0
Co1711 Co 0.36813 0.52137 0.00125 0.0
Co1712 Co 0.35553 0.54498 0.96591 0.0
O1713 O 0.37302 0.51795 0.97946 0.0
C1714 C 0.44772 0.53248 0.99717 0.0
O1715 O 0.45523 0.56303 0.98883 0.0
C1716 C 0.34585 0.47516 0.94807 0.0
O1717 O 0.3681 0.46876 0.95728 0.0
O1718 O 0.30362 0.51846 0.97608 0.0
O1719 O 0.32225 0.53105 0.99965 0.0
H1720 H 0.2867 0.62208 0.95814 0.0
H1721 H 0.36884 0.45198 0.98816 0.0
O1722 O 0.41412 0.51265 0.00342 0.0
H1723 H 0.24382 0.39726 0.01626 0.0
H1724 H 0.37615 0.48257 0.05404 0.0
H1725 H 0.35219 0.57106 0.02209 0.0
H1726 H 0.29016 0.46916 0.01566 0.0
H1727 H 0.37817 0.47824 0.0267 0.0
O1728 O 0.33452 0.4998 0.95126 0.0
H1729 H 0.32225 0.59639 0.97215 0.0
H1730 H 0.3392 0.54618 0.93275 0.0
H1731 H 0.34981 0.57643 0.04935 0.0
H1732 H 0.32347 0.37987 0.98853 0.0
H1733 H 0.36184 0.53192 0.06555 0.0
H1734 H 0.26042 0.35207 0.00265 0.0
O1735 O 0.40376 0.57953 1.00026 0.0
H1736 H 0.48849 0.56382 0.94976 0.0
H1737 H 0.40102 0.62044 0.9486 0.0
H1738 H 0.4639 0.65389 0.93526 0.0
H1739 H 0.50853 0.62575 0.93572 0.0
H1740 H 0.42493 0.53057 0.96248 0.0
H1741 H 0.30033 0.56899 0.91854 0.0
H1742 H 0.2753 0.6088 0.93109 0.0
O1743 O 0.37863 0.5922 0.97971 0.0
C1744 C 0.29757 0.52507 0.98934 0.0
C1745 C 0.29826 0.60576 0.9524 0.0
C1746 C 0.30617 0.57602 0.93022 0.0
N1747 N 0.33369 0.57018 0.95338 0.0
C1748 C 0.31895 0.59126 0.96031 0.0
C1749 C 0.32769 0.56268 0.93843 0.0
C1750 C 0.2918 0.59807 0.93726 0.0
C1751 C 0.34153 0.4401 0.99437 0.0
N1752 N 0.33221 0.46474 0.00191 0.0
C1753 C 0.31593 0.39925 0.99452 0.0
C1754 C 0.28054 0.38367 0.00244 0.0
C1755 C 0.2712 0.40901 0.01007 0.0
C1756 C 0.29752 0.44971 0.00966 0.0
C1757 C 0.37096 0.5022 0.04711 0.0
C1758 C 0.35759 0.55174 0.02903 0.0
C1759 C 0.37222 0.50001 0.03161 0.0
N1760 N 0.36558 0.52462 0.02277 0.0
C1761 C 0.35614 0.55484 0.04448 0.0
C1762 C 0.3629 0.52987 0.05356 0.0
C1763 C 0.40115 0.60336 0.99121 0.0
C1764 C 0.46888 0.57589 0.94913 0.0
C1765 C 0.41875 0.60653 0.94836 0.0
C1766 C 0.45507 0.62628 0.94097 0.0
C1767 C 0.48017 0.61065 0.9413 0.0
N1768 N 0.40676 0.57139 0.95554 0.0
C1769 C 0.4321 0.55673 0.95623 0.0
Co1770 Co 0.19409 0.53675 0.46418 0.0
Co1771 Co 0.15547 0.51765 0.49931 0.0
O1772 O 0.14931 0.50948 0.47755 0.0
C1773 C 0.13958 0.46068 0.44831 0.0
O1774 O 0.11035 0.45174 0.4576 0.0
C1775 C 0.08427 0.52088 0.49188 0.0
O1776 O 0.10692 0.54928 0.48263 0.0
O1777 O 0.17381 0.57452 0.49646 0.0
O1778 O 0.21317 0.58663 0.47637 0.0
H1779 H 0.22025 0.588 0.54695 0.0
H1780 H 0.10802 0.51126 0.45789 0.0
O1781 O 0.17456 0.48838 0.45127 0.0
H1782 H 0.18554 0.63078 0.4277 0.0
H1783 H 0.27637 0.55801 0.41789 0.0
H1784 H 0.27695 0.59725 0.46996 0.0
H1785 H 0.21879 0.60806 0.44474 0.0
H1786 H 0.21397 0.53132 0.4318 0.0
O1787 O 0.09912 0.50483 0.49997 0.0
H1788 H 0.21537 0.57735 0.51981 0.0
H1789 H 0.10239 0.47503 0.5248 0.0
H1790 H 0.3383 0.62798 0.45589 0.0
H1791 H 0.07374 0.53406 0.44148 0.0
H1792 H 0.33908 0.60849 0.42964 0.0
H1793 H 0.1123 0.59384 0.4259 0.0
O1794 O 0.22312 0.51734 0.47637 0.0
H1795 H 0.06818 0.37201 0.4902 0.0
H1796 H 0.18619 0.47351 0.5166 0.0
H1797 H 0.16615 0.40315 0.5196 0.0
H1798 H 0.10669 0.35184 0.50636 0.0
H1799 H 0.08943 0.44271 0.48745 0.0
H1800 H 0.10581 0.48464 0.55202 0.0
H1801 H 0.16516 0.54137 0.56327 0.0
O1802 O 0.21276 0.53209 0.49917 0.0
C1803 C 0.19988 0.59799 0.48725 0.0
C1804 C 0.19432 0.56304 0.5422 0.0
C1805 C 0.13008 0.50507 0.54504 0.0
N1806 N 0.15894 0.52536 0.52073 0.0
C1807 C 0.19149 0.55681 0.52683 0.0
C1808 C 0.1283 0.49981 0.52961 0.0
C1809 C 0.16338 0.53691 0.55134 0.0
C1810 C 0.12563 0.53669 0.45107 0.0
N1811 N 0.16607 0.55614 0.45166 0.0
C1812 C 0.10574 0.54984 0.44184 0.0
C1813 C 0.12733 0.58341 0.43314 0.0
C1814 C 0.16836 0.60399 0.4341 0.0
C1815 C 0.18718 0.59035 0.44365 0.0
C1816 C 0.27644 0.56749 0.42921 0.0
C1817 C 0.27605 0.58939 0.4584 0.0
C1818 C 0.24118 0.55188 0.43729 0.0
N1819 N 0.24128 0.56277 0.45179 0.0
C1820 C 0.31137 0.60672 0.45048 0.0
C1821 C 0.31163 0.59564 0.43579 0.0
C1822 C 0.23425 0.52729 0.48969 0.0
C1823 C 0.09412 0.39408 0.49603 0.0
C1824 C 0.16042 0.45137 0.51073 0.0
C1825 C 0.14915 0.41157 0.51251 0.0
C1826 C 0.11576 0.38279 0.50509 0.0
N1827 N 0.13899 0.46219 0.50185 0.0
C1828 C 0.10627 0.43416 0.49453 0.0
Co1829 Co 0.46136 0.65151 0.46461 0.0
Co1830 Co 0.48454 0.63608 0.49936 0.0
O1831 O 0.48908 0.63356 0.47758 0.0
C1832 C 0.53382 0.66526 0.44705 0.0
O1833 O 0.54362 0.64673 0.45684 0.0
C1834 C 0.47707 0.55895 0.4935 0.0
O1835 O 0.44864 0.55321 0.48427 0.0
O1836 O 0.42685 0.59895 0.49773 0.0
O1837 O 0.41505 0.62933 0.47881 0.0
H1838 H 0.42087 0.64163 0.54726 0.0
H1839 H 0.48081 0.58776 0.45662 0.0
O1840 O 0.5058 0.67238 0.44961 0.0
H1841 H 0.34507 0.53902 0.43887 0.0
H1842 H 0.43491 0.70426 0.4173 0.0
H1843 H 0.4087 0.684 0.47104 0.0
H1844 H 0.38095 0.60242 0.45206 0.0
H1845 H 0.45828 0.66618 0.43162 0.0
O1846 O 0.49462 0.59083 0.50099 0.0
H1847 H 0.42807 0.64151 0.51999 0.0
H1848 H 0.52927 0.62873 0.52487 0.0
H1849 H 0.38184 0.71832 0.45685 0.0
H1850 H 0.44637 0.52443 0.44351 0.0
H1851 H 0.39468 0.72889 0.42973 0.0
H1852 H 0.37793 0.49952 0.43437 0.0
O1853 O 0.48841 0.70292 0.47508 0.0
H1854 H 0.62763 0.68551 0.48763 0.0
H1855 H 0.53424 0.71318 0.51475 0.0
H1856 H 0.60575 0.76099 0.51602 0.0
H1857 H 0.653 0.74723 0.50242 0.0
H1858 H 0.55586 0.63864 0.4866 0.0
H1859 H 0.52298 0.62825 0.55222 0.0
H1860 H 0.46862 0.635 0.56359 0.0
O1861 O 0.47369 0.68164 0.49834 0.0
C1862 C 0.40339 0.60396 0.48936 0.0
C1863 C 0.44488 0.63898 0.54245 0.0
C1864 C 0.50215 0.63143 0.54523 0.0
N1865 N 0.47956 0.63607 0.52085 0.0
C1866 C 0.44922 0.63914 0.52701 0.0
C1867 C 0.50557 0.63174 0.52974 0.0
C1868 C 0.47163 0.6352 0.5516 0.0
C1869 C 0.45185 0.57835 0.45228 0.0
N1870 N 0.43423 0.60071 0.45427 0.0
C1871 C 0.43206 0.54183 0.44504 0.0
C1872 C 0.39363 0.52778 0.43998 0.0
C1873 C 0.37525 0.54997 0.44245 0.0
C1874 C 0.39596 0.58624 0.44978 0.0
C1875 C 0.42815 0.69883 0.42902 0.0
C1876 C 0.41378 0.68714 0.4592 0.0
C1877 C 0.44194 0.67787 0.4373 0.0
N1878 N 0.43533 0.67285 0.45231 0.0
C1879 C 0.39857 0.70706 0.45118 0.0
C1880 C 0.40592 0.71303 0.436 0.0
C1881 C 0.48048 0.70761 0.48838 0.0
C1882 C 0.60735 0.69183 0.49361 0.0
C1883 C 0.55459 0.7071 0.50872 0.0
C1884 C 0.59506 0.73422 0.50952 0.0
C1885 C 0.62155 0.72647 0.5019 0.0
N1886 N 0.54089 0.67316 0.50059 0.0
C1887 C 0.56668 0.66538 0.49308 0.0
Co1888 Co 0.35065 0.80782 0.46502 0.0
Co1889 Co 0.36187 0.84007 0.50083 0.0
O1890 O 0.36732 0.85101 0.47915 0.0
C1891 C 0.34022 0.86869 0.44812 0.0
O1892 O 0.36261 0.8967 0.45751 0.0
C1893 C 0.43974 0.91183 0.49769 0.0
O1894 O 0.44968 0.89125 0.48896 0.0
O1895 O 0.39963 0.82017 0.49911 0.0
O1896 O 0.37477 0.78346 0.47831 0.0
H1897 H 0.34693 0.76205 0.54738 0.0
H1898 H 0.41982 0.89188 0.46281 0.0
O1899 O 0.32893 0.83257 0.45096 0.0
H1900 H 0.45808 0.81219 0.43212 0.0
H1901 H 0.2919 0.73167 0.41741 0.0
H1902 H 0.3195 0.72279 0.47022 0.0
H1903 H 0.39595 0.78052 0.44584 0.0
H1904 H 0.33275 0.79234 0.43184 0.0
O1905 O 0.40589 0.89535 0.50384 0.0
H1906 H 0.34968 0.77329 0.5203 0.0
H1907 H 0.36724 0.88842 0.52733 0.0
H1908 H 0.28141 0.66239 0.45588 0.0
H1909 H 0.48274 0.92431 0.44964 0.0
H1910 H 0.26692 0.66616 0.42928 0.0
H1911 H 0.50244 0.88481 0.43388 0.0
O1912 O 0.29887 0.78133 0.47514 0.0
H1913 H 0.3116 0.93351 0.49008 0.0
H1914 H 0.28306 0.80978 0.51529 0.0
H1915 H 0.23445 0.8325 0.51664 0.0
H1916 H 0.24865 0.89485 0.50401 0.0
H1917 H 0.35924 0.90958 0.48893 0.0
H1918 H 0.36486 0.8786 0.55451 0.0
H1919 H 0.35456 0.81498 0.56471 0.0
O1920 O 0.3175 0.78399 0.49849 0.0
C1921 C 0.39794 0.79495 0.48965 0.0
C1922 C 0.35151 0.78994 0.54308 0.0
C1923 C 0.36162 0.85535 0.54708 0.0
N1924 N 0.35896 0.83157 0.52221 0.0
C1925 C 0.35316 0.79648 0.52774 0.0
C1926 C 0.36316 0.86083 0.53168 0.0
C1927 C 0.35581 0.81964 0.5528 0.0
C1928 C 0.42693 0.87391 0.45589 0.0
N1929 N 0.40173 0.83404 0.45452 0.0
C1930 C 0.46329 0.89274 0.44849 0.0
C1931 C 0.47437 0.87061 0.43968 0.0
C1932 C 0.44944 0.82997 0.43864 0.0
C1933 C 0.41349 0.81215 0.4463 0.0
C1934 C 0.2989 0.72975 0.4289 0.0
C1935 C 0.31513 0.72539 0.45851 0.0
C1936 C 0.32163 0.76404 0.43725 0.0
N1937 N 0.3291 0.76166 0.45199 0.0
C1938 C 0.29305 0.69069 0.45043 0.0
C1939 C 0.28474 0.69291 0.43555 0.0
C1940 C 0.29269 0.76675 0.48809 0.0
C1941 C 0.30509 0.90633 0.49565 0.0
C1942 C 0.28937 0.83685 0.5097 0.0
C1943 C 0.26178 0.84961 0.51054 0.0
C1944 C 0.26977 0.88461 0.50346 0.0
N1945 N 0.32401 0.85839 0.50207 0.0
C1946 C 0.33199 0.89266 0.49505 0.0
Co1947 Co 0.21054 0.52185 0.36746 0.0
Co1948 Co 0.18709 0.48679 0.33203 0.0
O1949 O 0.18359 0.47768 0.35376 0.0
C1950 C 0.14015 0.46088 0.38494 0.0
O1951 O 0.13233 0.43318 0.37509 0.0
C1952 C 0.1978 0.41804 0.33565 0.0
O1953 O 0.22785 0.44057 0.34428 0.0
O1954 O 0.24526 0.50904 0.33307 0.0
O1955 O 0.25755 0.54683 0.35357 0.0
H1956 H 0.24357 0.56182 0.28434 0.0
H1957 H 0.19534 0.43807 0.37105 0.0
O1958 O 0.16577 0.49687 0.38227 0.0
H1959 H 0.32103 0.52228 0.39692 0.0
H1960 H 0.23428 0.59936 0.41525 0.0
H1961 H 0.26129 0.6069 0.36155 0.0
H1962 H 0.28683 0.55178 0.38412 0.0
H1963 H 0.21239 0.53826 0.40075 0.0
O1964 O 0.17823 0.43215 0.32945 0.0
H1965 H 0.23791 0.55278 0.31156 0.0
H1966 H 0.14358 0.43506 0.30631 0.0
H1967 H 0.2858 0.6676 0.37581 0.0
H1968 H 0.22926 0.40758 0.38324 0.0
H1969 H 0.27273 0.66459 0.40293 0.0
H1970 H 0.29242 0.44945 0.39657 0.0
O1971 O 0.18345 0.54703 0.35759 0.0
H1972 H 0.04536 0.3897 0.34442 0.0
H1973 H 0.1351 0.51341 0.31799 0.0
H1974 H 0.06321 0.48812 0.31746 0.0
H1975 H 0.0178 0.42578 0.33072 0.0
H1976 H 0.11746 0.41617 0.34473 0.0
H1977 H 0.14818 0.44267 0.27901 0.0
H1978 H 0.19842 0.50645 0.26784 0.0
O1979 O 0.19683 0.54228 0.33399 0.0
C1980 C 0.26892 0.53542 0.34216 0.0
C1981 C 0.22155 0.53387 0.28906 0.0
C1982 C 0.16805 0.467 0.28607 0.0
N1983 N 0.19058 0.49349 0.31055 0.0
C1984 C 0.21827 0.52862 0.30448 0.0
C1985 C 0.16568 0.46284 0.30155 0.0
C1986 C 0.19623 0.5028 0.27981 0.0
C1987 C 0.22227 0.45702 0.3769 0.0
N1988 N 0.23737 0.49707 0.37748 0.0
C1989 C 0.24166 0.43931 0.38375 0.0
C1990 C 0.2771 0.46277 0.3912 0.0
C1991 C 0.29303 0.50355 0.39145 0.0
C1992 C 0.27298 0.52018 0.38435 0.0
C1993 C 0.24117 0.60098 0.40353 0.0
C1994 C 0.25616 0.60461 0.37339 0.0
C1995 C 0.22838 0.56646 0.39517 0.0
N1996 N 0.23564 0.56852 0.38019 0.0
C1997 C 0.27006 0.63949 0.38145 0.0
C1998 C 0.26248 0.63766 0.39662 0.0
C1999 C 0.19042 0.56041 0.34441 0.0
C2000 C 0.06484 0.41687 0.33859 0.0
C2001 C 0.11555 0.48636 0.32384 0.0
C2002 C 0.07486 0.47213 0.32347 0.0
C2003 C 0.04939 0.43714 0.33091 0.0
N2004 N 0.13045 0.46626 0.33138 0.0
C2005 C 0.10568 0.43197 0.33871 0.0
Co2006 Co 0.47622 0.6817 0.36685 0.0
Co2007 Co 0.51428 0.69931 0.33187 0.0
O2008 O 0.5215 0.70064 0.35361 0.0
C2009 C 0.53569 0.66837 0.3838 0.0
O2010 O 0.56393 0.68881 0.37418 0.0
C2011 C 0.58365 0.77689 0.33767 0.0
O2012 O 0.56088 0.78277 0.3468 0.0
O2013 O 0.4932 0.73587 0.33406 0.0
O2014 O 0.45217 0.70558 0.35339 0.0
H2015 H 0.44611 0.69842 0.28425 0.0
H2016 H 0.55998 0.74761 0.3731 0.0
O2017 O 0.50004 0.65944 0.38116 0.0
H2018 H 0.47339 0.78889 0.39725 0.0
H2019 H 0.39723 0.62461 0.41407 0.0
H2020 H 0.39125 0.6497 0.36076 0.0
H2021 H 0.44509 0.72748 0.38288 0.0
H2022 H 0.45868 0.66321 0.39978 0.0
O2023 O 0.56951 0.74471 0.33038 0.0
H2024 H 0.45329 0.697 0.31147 0.0
H2025 H 0.56598 0.70702 0.30617 0.0
H2026 H 0.3303 0.61545 0.37498 0.0
H2027 H 0.58949 0.80968 0.38693 0.0
H2028 H 0.33246 0.60244 0.40195 0.0
H2029 H 0.54629 0.83076 0.39941 0.0
O2030 O 0.45132 0.63115 0.35575 0.0
H2031 H 0.60835 0.64973 0.34254 0.0
H2032 H 0.48694 0.62294 0.31593 0.0
H2033 H 0.51077 0.5753 0.31408 0.0
H2034 H 0.57196 0.58862 0.32742 0.0
H2035 H 0.58331 0.69642 0.34415 0.0
H2036 H 0.56036 0.70909 0.27887 0.0
H2037 H 0.49994 0.70446 0.26773 0.0
O2038 O 0.45803 0.65387 0.3327 0.0
C2039 C 0.46494 0.73052 0.34265 0.0
C2040 C 0.4724 0.70002 0.28895 0.0
C2041 C 0.53653 0.70606 0.28593 0.0
N2042 N 0.50939 0.70061 0.3104 0.0
C2043 C 0.47645 0.69887 0.30436 0.0
C2044 C 0.53951 0.7048 0.3014 0.0
C2045 C 0.50264 0.70349 0.27969 0.0
C2046 C 0.54053 0.75543 0.37865 0.0
N2047 N 0.50035 0.73167 0.3779 0.0
C2048 C 0.55765 0.79124 0.3864 0.0
C2049 C 0.53345 0.80311 0.39336 0.0
C2050 C 0.4926 0.77957 0.39221 0.0
C2051 C 0.47662 0.74426 0.38419 0.0
C2052 C 0.39593 0.63112 0.40246 0.0
C2053 C 0.39322 0.64561 0.37253 0.0
C2054 C 0.43067 0.65237 0.39418 0.0
N2055 N 0.42904 0.65905 0.37931 0.0
C2056 C 0.35817 0.62564 0.38057 0.0
C2057 C 0.35953 0.61832 0.39564 0.0
C2058 C 0.43863 0.62755 0.34251 0.0
C2059 C 0.58168 0.64361 0.33666 0.0
C2060 C 0.51345 0.62882 0.32184 0.0
C2061 C 0.52688 0.60181 0.32071 0.0
C2062 C 0.56123 0.60931 0.32819 0.0
N2063 N 0.53373 0.66244 0.33014 0.0
C2064 C 0.56739 0.66997 0.33752 0.0
Co2065 Co 0.31757 0.79062 0.36846 0.0
Co2066 Co 0.29864 0.80928 0.33343 0.0
O2067 O 0.29884 0.81708 0.35517 0.0
C2068 C 0.33505 0.86524 0.38484 0.0
O2069 O 0.31419 0.87329 0.37551 0.0
C2070 C 0.22338 0.80671 0.33962 0.0
O2071 O 0.21559 0.77821 0.34914 0.0
O2072 O 0.26028 0.75241 0.3363 0.0
O2073 O 0.29034 0.74143 0.35567 0.0
H2074 H 0.29745 0.7385 0.28649 0.0
H2075 H 0.25409 0.81179 0.37506 0.0
O2076 O 0.34301 0.83792 0.38206 0.0
H2077 H 0.21352 0.68803 0.40227 0.0
H2078 H 0.37688 0.76912 0.4151 0.0
H2079 H 0.34624 0.73518 0.36222 0.0
H2080 H 0.27179 0.71609 0.38613 0.0
H2081 H 0.33935 0.79364 0.4011 0.0
O2082 O 0.25508 0.82172 0.33201 0.0
H2083 H 0.30139 0.7498 0.31359 0.0
H2084 H 0.28962 0.85121 0.30731 0.0
H2085 H 0.37978 0.70723 0.37615 0.0
H2086 H 0.19494 0.78401 0.39064 0.0
H2087 H 0.39582 0.72397 0.40282 0.0
H2088 H 0.17438 0.72197 0.40471 0.0
O2089 O 0.3671 0.81379 0.35679 0.0
H2090 H 0.35474 0.95462 0.34248 0.0
H2091 H 0.37416 0.85436 0.3165 0.0
H2092 H 0.42374 0.92497 0.3136 0.0
H2093 H 0.41412 0.97567 0.32662 0.0
H2094 H 0.30609 0.88368 0.34516 0.0
H2095 H 0.28523 0.84087 0.28014 0.0
H2096 H 0.28931 0.78425 0.26955 0.0
O2097 O 0.34229 0.796 0.33413 0.0
C2098 C 0.26466 0.72937 0.34517 0.0
C2099 C 0.29574 0.76334 0.29096 0.0
C2100 C 0.28884 0.82076 0.2874 0.0
N2101 N 0.296 0.80127 0.31204 0.0
C2102 C 0.29805 0.76994 0.30631 0.0
C2103 C 0.29124 0.82641 0.3028 0.0
C2104 C 0.29114 0.789 0.28146 0.0
C2105 C 0.2465 0.78545 0.38126 0.0
N2106 N 0.26893 0.76758 0.38037 0.0
C2107 C 0.21232 0.76945 0.39001 0.0
C2108 C 0.20071 0.73462 0.39785 0.0
C2109 C 0.22272 0.71568 0.39653 0.0
C2110 C 0.25634 0.73224 0.38749 0.0
C2111 C 0.36927 0.76076 0.40359 0.0
C2112 C 0.35159 0.74191 0.37391 0.0
C2113 C 0.34853 0.77511 0.39549 0.0
N2114 N 0.34004 0.76574 0.38076 0.0
C2115 C 0.37115 0.72612 0.38177 0.0
C2116 C 0.38013 0.73567 0.39671 0.0
C2117 C 0.36949 0.80385 0.34358 0.0
C2118 C 0.35926 0.93282 0.33675 0.0
C2119 C 0.36989 0.87622 0.32228 0.0
C2120 C 0.398 0.91617 0.32055 0.0
C2121 C 0.39258 0.9446 0.32785 0.0
N2122 N 0.33724 0.86491 0.33099 0.0
C2123 C 0.33178 0.8926 0.33821 0.0
C2124 C 0.04004 0.13251 0.18923 0.0
C2125 C 0.06133 0.13039 0.17691 0.0
C2126 C -0.00127 0.11333 0.18914 0.0
C2127 C 0.97699 0.0925 0.17658 0.0
H2128 H 0.05506 0.14652 0.1995 0.0
H2129 H 0.98366 0.11364 0.1992 0.0
S2130 S 0.01818 0.08615 0.14019 0.0
N2131 N 0.05736 0.11137 0.15087 0.0
N2132 N 0.97961 0.07636 0.15068 0.0
C2133 C 0.99776 0.09405 0.16361 0.0
C2134 C 0.04001 0.11296 0.16375 0.0
C2135 C 0.91144 0.94979 0.16689 0.0
C2136 C 0.87376 0.93482 0.17339 0.0
C2137 C 0.93044 0.92742 0.16669 0.0
C2138 C 0.91174 0.88893 0.17248 0.0
H2139 H 0.92763 0.98007 0.16295 0.0
H2140 H 0.96054 0.94086 0.16258 0.0
S2141 S 0.81152 0.83445 0.18901 0.0
N2142 N 0.8176 0.8784 0.18488 0.0
N2143 N 0.85247 0.83537 0.18363 0.0
C2144 C 0.87308 0.87259 0.17801 0.0
C2145 C 0.85424 0.89581 0.17868 0.0
C2146 C 0.11469 0.99609 0.18797 0.0
C2147 C 0.11242 0.01826 0.17611 0.0
C2148 C 0.09389 0.95471 0.18769 0.0
C2149 C 0.06898 0.9338 0.17565 0.0
H2150 H 0.13165 0.01079 0.19779 0.0
H2151 H 0.09495 0.93919 0.19752 0.0
S2152 S 0.05967 0.97863 0.14045 0.0
N2153 N 0.08897 0.01679 0.15099 0.0
N2154 N 0.04918 0.939 0.15039 0.0
C2155 C 0.0699 0.9558 0.16303 0.0
C2156 C 0.0916 0.99808 0.1633 0.0
C2157 C 0.10033 0.03947 0.33679 0.0
C2158 C 0.13035 0.06095 0.32623 0.0
C2159 C 0.08025 0.99802 0.33704 0.0
C2160 C 0.0898 0.97695 0.32683 0.0
H2161 H 0.0903 0.0545 0.34422 0.0
H2162 H 0.05583 0.98241 0.34472 0.0
S2163 S 0.16966 0.01852 0.29866 0.0
N2164 N 0.17149 0.05758 0.30655 0.0
N2165 N 0.13356 0.97972 0.30714 0.0
C2166 C 0.12145 0.99781 0.31703 0.0
C2167 C 0.14196 0.03987 0.31675 0.0
C2168 C 0.96261 0.05787 0.33449 0.0
C2169 C 0.93965 0.06742 0.32508 0.0
C2170 C 0.00406 0.07972 0.33406 0.0
C2171 C 0.02372 0.11218 0.32446 0.0
H2172 H 0.94865 0.03163 0.34139 0.0
H2173 H 0.02077 0.07004 0.34074 0.0
S2174 S 0.97782 0.1526 0.29915 0.0
N2175 N 0.93998 0.11362 0.30685 0.0
N2176 N 0.01793 0.15538 0.3065 0.0
C2177 C 0.00136 0.12373 0.31581 0.0
C2178 C 0.95925 0.10122 0.31604 0.0
C2179 C 0.88267 0.88153 0.3163 0.0
C2180 C 0.8862 0.90819 0.32748 0.0
C2181 C 0.90442 0.86192 0.31688 0.0
C2182 C 0.93127 0.8688 0.32855 0.0
H2183 H 0.86397 0.8768 0.30675 0.0
H2184 H 0.902 0.84325 0.30755 0.0
S2185 S 0.94655 0.93166 0.36175 0.0
N2186 N 0.91458 0.93703 0.35141 0.0
N2187 N 0.95579 0.90049 0.35261 0.0
C2188 C 0.93237 0.89287 0.34047 0.0
C2189 C 0.90988 0.91264 0.33987 0.0
C2190 C 0.95766 0.90108 0.83842 0.0
C2191 C 0.93538 0.87059 0.82816 0.0
C2192 C -0.00093 0.91965 0.83873 0.0
C2193 C 0.01929 0.90789 0.82895 0.0
H2194 H 0.9434 0.91279 0.84546 0.0
H2195 H 0.0154 0.94468 0.84606 0.0
S2196 S 0.97505 0.8261 0.80166 0.0
N2197 N 0.93681 0.82692 0.80915 0.0
N2198 N 0.0146 0.86162 0.80999 0.0
C2199 C 0.99748 0.8757 0.81949 0.0
C2200 C 0.95545 0.85695 0.81908 0.0
C2201 C 0.07312 0.07712 0.83871 0.0
C2202 C 0.08882 0.11128 0.82987 0.0
C2203 C 0.09179 0.05437 0.83946 0.0
C2204 C 0.12629 0.06472 0.83114 0.0
H2205 H 0.04532 0.06693 0.84449 0.0
H2206 H 0.07745 0.02701 0.84573 0.0
S2207 S 0.1808 0.15409 0.80756 0.0
N2208 N 0.14232 0.1566 0.81382 0.0
N2209 N 0.17697 0.11343 0.81482 0.0
C2210 C 0.14326 0.10013 0.82292 0.0
C2211 C 0.12453 0.12346 0.82235 0.0
C2212 C 0.91968 -0.0008 0.83636 0.0
C2213 C 0.88638 0.98013 0.82712 0.0
C2214 C 0.94223 0.0406 0.83679 0.0
C2215 C 0.93264 0.06411 0.82771 0.0
H2216 H 0.92946 0.98203 0.84269 0.0
H2217 H 0.96907 0.05406 0.84337 0.0
S2218 S 0.84518 0.02772 0.80305 0.0
N2219 N 0.84213 0.98717 0.81008 0.0
N2220 N 0.88537 0.06502 0.81034 0.0
C2221 C 0.89797 0.04516 0.81912 0.0
C2222 C 0.87467 0.0031 0.81893 0.0
C2223 C 0.89139 0.99879 0.69394 0.0
C2224 C 0.90725 0.02024 0.68075 0.0
C2225 C 0.87199 0.95755 0.69409 0.0
C2226 C 0.86898 0.93592 0.68113 0.0
H2227 H 0.89496 0.01401 0.70437 0.0
H2228 H 0.8615 0.94284 0.70471 0.0
S2229 S 0.89928 0.97784 0.64313 0.0
N2230 N 0.91309 0.01677 0.65394 0.0
N2231 N 0.87835 0.93901 0.65426 0.0
C2232 C 0.88185 0.95685 0.6676 0.0
C2233 C 0.90065 -0.00093 0.66741 0.0
C2234 C 0.04346 0.90583 0.6924 0.0
C2235 C 0.06522 0.9268 0.67977 0.0
C2236 C 0.00216 0.88759 0.69271 0.0
C2237 C 0.98054 0.88689 0.68009 0.0
H2238 H 0.05842 0.90651 0.70265 0.0
H2239 H 0.98732 0.8751 0.70312 0.0
S2240 S 0.02226 0.92727 0.64288 0.0
N2241 N 0.06134 0.93954 0.65344 0.0
N2242 N 0.98348 0.90247 0.65381 0.0
C2243 C 0.00145 0.90309 0.66681 0.0
C2244 C 0.0438 0.92329 0.66665 0.0
C2245 C 0.10337 0.13903 0.68027 0.0
C2246 C 0.06349 0.1187 0.67588 0.0
C2247 C 0.12629 0.12053 0.67977 0.0
C2248 C 0.10959 0.08097 0.67521 0.0
H2249 H 0.11645 0.16885 0.6846 0.0
H2250 H 0.15646 0.13641 0.68382 0.0
S2251 S 0.00642 0.01422 0.6633 0.0
N2252 N 0.00849 0.05671 0.66684 0.0
N2253 N 0.05137 0.02188 0.66647 0.0
C2254 C 0.07016 0.06057 0.67057 0.0
C2255 C 0.04712 0.07953 0.67072 0.0
C2256 C 0.66822 0.45529 0.50726 0.0
C2257 C 0.64313 0.41674 0.50205 0.0
C2258 C 0.70949 0.47238 0.50641 0.0
C2259 C 0.7268 0.45165 0.50009 0.0
H2260 H 0.65591 0.47139 0.51279 0.0
H2261 H 0.72797 0.50122 0.51134 0.0
S2262 S 0.67317 0.34933 0.48519 0.0
N2263 N 0.63793 0.35818 0.49062 0.0
N2264 N 0.71522 0.39035 0.48858 0.0
C2265 C 0.70171 0.41364 0.49428 0.0
C2266 C 0.65987 0.39608 0.49544 0.0
C2267 C 0.55915 0.26658 0.49657 0.0
C2268 C 0.53291 0.26298 0.50808 0.0
C2269 C 0.57894 0.24484 0.49687 0.0
C2270 C 0.57274 0.21856 0.50858 0.0
H2271 H 0.56653 0.28817 0.4878 0.0
H2272 H 0.60058 0.25008 0.48831 0.0
S2273 S 0.50086 0.19169 0.53944 0.0
N2274 N 0.49742 0.22635 0.53017 0.0
N2275 N 0.53424 0.18529 0.53051 0.0
C2276 C 0.54404 0.21196 0.51932 0.0
C2277 C 0.52399 0.23404 0.51907 0.0
C2278 C 0.75706 0.28586 0.51732 0.0
C2279 C 0.73285 0.2635 0.50537 0.0
C2280 C 0.78017 0.32697 0.51642 0.0
C2281 C 0.78112 0.34736 0.50342 0.0
H2282 H 0.75611 0.27203 0.52789 0.0
H2283 H 0.79623 0.34304 0.52621 0.0
S2284 S 0.73163 0.30231 0.46771 0.0
N2285 N 0.7169 0.26447 0.4792 0.0
N2286 N 0.76168 0.34192 0.47748 0.0
C2287 C 0.76105 0.32525 0.49081 0.0
C2288 C 0.73667 0.28322 0.49178 0.0
C2289 C 0.80384 0.37417 0.64073 0.0
C2290 C 0.80337 0.39688 0.6528 0.0
C2291 C 0.78408 0.33293 0.64148 0.0
C2292 C 0.76381 0.31253 0.65437 0.0
H2293 H 0.81704 0.38805 0.6302 0.0
H2294 H 0.78391 0.31704 0.63169 0.0
S2295 S 0.76187 0.358 0.69033 0.0
N2296 N 0.78671 0.39588 0.67902 0.0
N2297 N 0.75035 0.31819 0.68036 0.0
C2298 C 0.76704 0.33481 0.66709 0.0
C2299 C 0.78678 0.37704 0.66633 0.0
C2300 C 0.63112 0.37786 0.66422 0.0
C2301 C 0.60825 0.39461 0.65962 0.0
C2302 C 0.67233 0.40071 0.66502 0.0
C2303 C 0.69187 0.44127 0.66173 0.0
H2304 H 0.61739 0.34627 0.66604 0.0
H2305 H 0.6892 0.38608 0.66725 0.0
S2306 S 0.64494 0.5003 0.65154 0.0
N2307 N 0.60753 0.45459 0.65314 0.0
N2308 N 0.68526 0.49821 0.65545 0.0
C2309 C 0.66913 0.45908 0.65851 0.0
C2310 C 0.62715 0.43552 0.65719 0.0
C2311 C 0.6061 0.22925 0.66588 0.0
C2312 C 0.60343 0.20245 0.65478 0.0
C2313 C 0.58357 0.24816 0.6651 0.0
C2314 C 0.55749 0.24105 0.65322 0.0
H2315 H 0.62737 0.23755 0.67482 0.0
H2316 H 0.58821 0.26995 0.67347 0.0
S2317 S 0.53475 0.16947 0.6225 0.0
N2318 N 0.56845 0.16623 0.63254 0.0
N2319 N 0.52744 0.20287 0.63089 0.0
C2320 C 0.55272 0.21274 0.64256 0.0
C2321 C 0.57514 0.19298 0.64344 0.0
C2322 C 0.66654 0.21627 0.14656 0.0
C2323 C 0.68802 0.24107 0.15843 0.0
C2324 C 0.62517 0.19555 0.1466 0.0
C2325 C 0.60357 0.19966 0.15837 0.0
H2326 H 0.68181 0.21379 0.13694 0.0
H2327 H 0.61019 0.17847 0.13679 0.0
S2328 S 0.64655 0.25552 0.19339 0.0
N2329 N 0.68529 0.26421 0.1832 0.0
N2330 N 0.60742 0.22579 0.18334 0.0
C2331 C 0.6249 0.22148 0.17096 0.0
C2332 C 0.66719 0.24225 0.17095 0.0
C2333 C 0.76207 0.3912 0.16872 0.0
C2334 C 0.79494 0.40102 0.15948 0.0
C2335 C 0.74283 0.41343 0.16842 0.0
C2336 C 0.75628 0.44652 0.1591 0.0
H2337 H 0.7492 0.36448 0.17537 0.0
H2338 H 0.71612 0.40347 0.17491 0.0
S2339 S 0.84388 0.48792 0.1344 0.0
N2340 N 0.84205 0.44832 0.14181 0.0
N2341 N 0.80632 0.49053 0.14162 0.0
C2342 C 0.79059 0.45834 0.15066 0.0
C2343 C 0.80991 0.43553 0.1508 0.0
C2344 C 0.54302 0.32947 0.14909 0.0
C2345 C 0.55123 0.30708 0.15921 0.0
C2346 C 0.56565 0.3709 0.14892 0.0
C2347 C 0.59738 0.39149 0.15889 0.0
H2348 H 0.52005 0.31478 0.14082 0.0
H2349 H 0.55954 0.38675 0.14039 0.0
S2350 S 0.62932 0.34582 0.18807 0.0
N2351 N 0.59206 0.30801 0.17967 0.0
N2352 N 0.63385 0.38562 0.17981 0.0
C2353 C 0.60414 0.36922 0.16967 0.0
C2354 C 0.58136 0.32704 0.16967 0.0
C2355 C 0.55021 0.33327 0.02129 0.0
C2356 C 0.57098 0.35466 0.00865 0.0
C2357 C 0.53099 0.29204 0.02156 0.0
C2358 C 0.53303 0.27049 0.00935 0.0
H2359 H 0.55011 0.34858 0.0313 0.0
H2360 H 0.51705 0.27734 0.03189 0.0
S2361 S 0.57559 0.31239 0.97228 0.0
N2362 N 0.58577 0.35131 0.98262 0.0
N2363 N 0.55115 0.27356 0.98322 0.0
C2364 C 0.55008 0.29135 0.99606 0.0
C2365 C 0.56885 0.33356 0.99571 0.0
C2366 C 0.70543 0.26475 0.99901 0.0
C2367 C 0.72749 0.25855 0.01006 0.0
C2368 C 0.6639 0.24461 0.99944 0.0
C2369 C 0.64316 0.2174 0.01082 0.0
H2370 H 0.72022 0.28721 0.99056 0.0
H2371 H 0.64809 0.25186 0.99127 0.0
S2372 S 0.686 0.18416 0.0404 0.0
N2373 N 0.72474 0.21857 0.03132 0.0
N2374 N 0.64684 0.18068 0.03192 0.0
C2375 C 0.66449 0.20825 0.02106 0.0
C2376 C 0.70663 0.22864 0.02066 0.0
C2377 C 0.79017 0.45222 0.01319 0.0
C2378 C 0.77462 0.41375 0.00755 0.0
C2379 C 0.76773 0.47127 0.01297 0.0
C2380 C 0.72947 0.45265 0.00683 0.0
H2381 H 0.8189 0.46674 0.01854 0.0
H2382 H 0.77971 0.50005 0.01816 0.0
S2383 S 0.67566 0.35129 0.99103 0.0
N2384 N 0.71911 0.35743 0.99595 0.0
N2385 N 0.67717 0.39325 0.9951 0.0
C2386 C 0.7144 0.41464 0.00066 0.0
C2387 C 0.73691 0.3951 0.00118 0.0
C2388 C 0.3328 0.78372 0.85493 0.0
C2389 C 0.31073 0.7593 0.84306 0.0
C2390 C 0.37413 0.80567 0.85437 0.0
C2391 C 0.39511 0.80298 0.84208 0.0
H2392 H 0.31811 0.78496 0.86494 0.0
H2393 H 0.38967 0.82222 0.8642 0.0
S2394 S 0.35017 0.75025 0.80668 0.0
N2395 N 0.31202 0.73926 0.81761 0.0
N2396 N 0.38983 0.77975 0.81653 0.0
C2397 C 0.37303 0.78205 0.82946 0.0
C2398 C 0.33078 0.76014 0.82999 0.0
C2399 C 0.19899 0.57325 0.8569 0.0
C2400 C 0.19928 0.59529 0.84441 0.0
C2401 C 0.21887 0.55182 0.85672 0.0
C2402 C 0.23839 0.55002 0.8439 0.0
H2403 H 0.18605 0.57496 0.86735 0.0
H2404 H 0.22017 0.53775 0.8669 0.0
S2405 S 0.23792 0.59211 0.80695 0.0
N2406 N 0.21427 0.60729 0.81796 0.0
N2407 N 0.24987 0.56504 0.81751 0.0
C2408 C 0.23434 0.5672 0.83076 0.0
C2409 C 0.21502 0.59016 0.83102 0.0
C2410 C 0.43594 0.62941 0.84391 0.0
C2411 C 0.39606 0.60943 0.83949 0.0
C2412 C 0.45861 0.67083 0.84315 0.0
C2413 C 0.44166 0.69329 0.83833 0.0
H2414 H 0.44917 0.61304 0.84848 0.0
H2415 H 0.48874 0.68547 0.84726 0.0
S2416 S 0.33836 0.65566 0.82633 0.0
N2417 N 0.34081 0.61559 0.83016 0.0
N2418 N 0.38316 0.69326 0.82937 0.0
C2419 C 0.40224 0.67378 0.83366 0.0
C2420 C 0.37948 0.63179 0.83405 0.0
C2421 C 0.45208 0.66939 0.98209 0.0
C2422 C 0.42633 0.64632 0.99351 0.0
C2423 C 0.47193 0.71071 0.9827 0.0
C2424 C 0.46604 0.73071 0.99462 0.0
H2425 H 0.45598 0.6554 0.97236 0.0
H2426 H 0.48983 0.72693 0.9732 0.0
S2427 S 0.40653 0.68319 0.02858 0.0
N2428 N 0.39996 0.64584 0.01799 0.0
N2429 N 0.43682 0.72357 0.01922 0.0
C2430 C 0.4431 0.70777 0.00677 0.0
C2431 C 0.42317 0.66553 0.00616 0.0
C2432 C 0.2918 0.76102 0.98354 0.0
C2433 C 0.2707 0.73078 0.99405 0.0
C2434 C 0.33314 0.78342 0.98386 0.0
C2435 C 0.35489 0.77697 0.99482 0.0
H2436 H 0.27652 0.76584 0.97443 0.0
H2437 H 0.34829 0.80491 0.97512 0.0
S2438 S 0.31465 0.70493 0.0258 0.0
N2439 N 0.27528 0.69846 0.01658 0.0
N2440 N 0.35296 0.74061 0.01696 0.0
C2441 C 0.33444 0.74903 0.00597 0.0
C2442 C 0.29228 0.72606 0.00568 0.0
C2443 C 0.25149 0.58573 0.00133 0.0
C2444 C 0.21955 0.5729 0.99146 0.0
C2445 C 0.27456 0.56739 0.00161 0.0
C2446 C 0.26684 0.53616 0.99179 0.0
H2447 H 0.25996 0.61136 0.00831 0.0
H2448 H 0.30036 0.57982 0.00875 0.0
S2449 S 0.18371 0.48947 0.96495 0.0
N2450 N 0.17886 0.52514 0.97274 0.0
N2451 N 0.2228 0.49127 0.97285 0.0
C2452 C 0.23352 0.52181 0.98247 0.0
C2453 C 0.2098 0.54015 0.98237 0.0
C2454 C 0.29638 0.52445 0.48652 0.0
C2455 C 0.27665 0.54276 0.4929 0.0
C2456 C 0.33786 0.54339 0.48636 0.0
C2457 C 0.36079 0.58146 0.49234 0.0
H2458 H 0.27967 0.49612 0.48101 0.0
H2459 H 0.35207 0.52919 0.48077 0.0
S2460 S 0.32421 0.6427 0.50992 0.0
N2461 N 0.28376 0.60116 0.50546 0.0
N2462 N 0.36155 0.63692 0.50469 0.0
C2463 C 0.34169 0.59968 0.49905 0.0
C2464 C 0.29958 0.58019 0.4995 0.0
C2465 C 0.47122 0.76285 0.47911 0.0
C2466 C 0.46855 0.73797 0.49098 0.0
C2467 C 0.44943 0.78241 0.47915 0.0
C2468 C 0.42511 0.77908 0.49121 0.0
H2469 H 0.48778 0.76487 0.46915 0.0
H2470 H 0.45072 0.79933 0.46943 0.0
S2471 S 0.41631 0.72726 0.52679 0.0
N2472 N 0.44545 0.71767 0.51641 0.0
N2473 N 0.40531 0.75548 0.51649 0.0
C2474 C 0.42593 0.75856 0.50391 0.0
C2475 C 0.44767 0.73794 0.50382 0.0
C2476 C 0.26374 0.70196 0.50157 0.0
C2477 C 0.2613 0.72483 0.4899 0.0
C2478 C 0.2414 0.66052 0.50125 0.0
C2479 C 0.2164 0.64075 0.4892 0.0
H2480 H 0.28489 0.71585 0.5105 0.0
H2481 H 0.24551 0.64395 0.51003 0.0
S2482 S 0.19208 0.68638 0.45785 0.0
N2483 N 0.22603 0.72423 0.46742 0.0
N2484 N 0.18494 0.64644 0.46684 0.0
C2485 C 0.21071 0.66306 0.47831 0.0
C2486 C 0.23287 0.70513 0.47869 0.0
C2487 C 0.25093 0.66719 0.33245 0.0
C2488 C 0.24012 0.6865 0.34302 0.0
C2489 C 0.23188 0.62577 0.33199 0.0
C2490 C 0.20181 0.60242 0.34227 0.0
H2491 H 0.27563 0.68414 0.32503 0.0
H2492 H 0.24291 0.61223 0.32428 0.0
S2493 S 0.15975 0.63956 0.37085 0.0
N2494 N 0.19505 0.6799 0.36283 0.0
N2495 N 0.15967 0.60207 0.36231 0.0
C2496 C 0.18918 0.62166 0.35225 0.0
C2497 C 0.20837 0.66374 0.35258 0.0
C2498 C 0.33409 0.54667 0.35074 0.0
C2499 C 0.31189 0.55317 0.33999 0.0
C2500 C 0.37549 0.56823 0.3506 0.0
C2501 C 0.39636 0.59758 0.33977 0.0
H2502 H 0.31931 0.52572 0.35965 0.0
H2503 H 0.39112 0.56356 0.35963 0.0
S2504 S 0.35118 0.62199 0.30801 0.0
N2505 N 0.31309 0.58775 0.31743 0.0
N2506 N 0.3909 0.62836 0.31695 0.0
C2507 C 0.37425 0.60192 0.32823 0.0
C2508 C 0.33197 0.57982 0.32842 0.0
C2509 C 0.38819 0.75759 0.33178 0.0
C2510 C 0.39895 0.7914 0.34057 0.0
C2511 C 0.41102 0.73896 0.33181 0.0
C2512 C 0.44565 0.75409 0.34035 0.0
H2513 H 0.36048 0.74367 0.32574 0.0
H2514 H 0.40051 0.71156 0.32572 0.0
S2515 S 0.48939 0.84415 0.3637 0.0
N2516 N 0.4484 0.84084 0.35703 0.0
N2517 N 0.49168 0.80626 0.35667 0.0
C2518 C 0.45819 0.78918 0.34832 0.0
C2519 C 0.43478 0.80783 0.3485 0.0
C2520 C 0.22562 0.18376 0.25867 0.0
C2521 C 0.21357 0.20733 0.26631 0.0
C2522 C 0.22645 0.18335 0.24307 0.0
C2523 C 0.21394 0.20541 0.23461 0.0
H2524 H 0.23198 0.16364 0.26477 0.0
H2525 H 0.2338 0.16313 0.23765 0.0
S2526 S 0.18253 0.274 0.24919 0.0
N2527 N 0.19264 0.25628 0.26423 0.0
N2528 N 0.19159 0.25318 0.23486 0.0
C2529 C 0.20396 0.2307 0.24205 0.0
C2530 C 0.20452 0.23229 0.25795 0.0
C2531 C 0.80986 0.03367 0.2428 0.0
C2532 C 0.79012 0.99879 0.23431 0.0
C2533 C 0.81069 0.03231 0.25841 0.0
C2534 C 0.79039 0.99619 0.26605 0.0
H2535 H 0.82726 0.06193 0.23734 0.0
H2536 H 0.82887 0.05944 0.26449 0.0
S2537 S 0.73124 0.89699 0.24897 0.0
N2538 N 0.74863 0.92749 0.23462 0.0
N2539 N 0.74742 0.92505 0.26399 0.0
C2540 C 0.768 0.96146 0.2577 0.0
C2541 C 0.76856 0.96272 0.2418 0.0
C2542 C 0.05067 0.82027 0.26165 0.0
C2543 C 0.01367 0.79995 0.2688 0.0
C2544 C 0.05355 0.8293 0.24639 0.0
C2545 C 0.01949 0.81746 0.23766 0.0
H2546 H 0.07765 0.83212 0.26808 0.0
H2547 H 0.08267 0.84767 0.24164 0.0
S2548 S 0.91555 0.75627 0.25083 0.0
N2549 N 0.94259 0.76386 0.2659 0.0
N2550 N 0.94737 0.77833 0.23715 0.0
C2551 C 0.98233 0.7931 0.24448 0.0
C2552 C 0.97957 0.78495 0.26006 0.0
C2553 C 0.8139 0.7634 0.74785 0.0
C2554 C 0.79659 0.77859 0.73804 0.0
C2555 C 0.8122 0.76738 0.76331 0.0
C2556 C 0.79148 0.7848 0.76941 0.0
H2557 H 0.83246 0.75227 0.7436 0.0
H2558 H 0.82953 0.75943 0.77044 0.0
S2559 S 0.73504 0.82237 0.74861 0.0
N2560 N 0.75461 0.80767 0.73554 0.0
N2561 N 0.7488 0.81227 0.76464 0.0
C2562 C 0.77019 0.79572 0.75979 0.0
C2563 C 0.77328 0.79321 0.74406 0.0
C2564 C 0.21115 0.02122 0.76263 0.0
C2565 C 0.20244 0.98848 0.77162 0.0
C2566 C 0.20459 0.01705 0.74725 0.0
C2567 C 0.18749 0.97961 0.74032 0.0
H2568 H 0.22028 0.04972 0.76767 0.0
H2569 H 0.20958 0.04297 0.74108 0.0
S2570 S 0.16854 0.88641 0.75838 0.0
N2571 N 0.184 0.91902 0.77207 0.0
N2572 N 0.16909 0.91069 0.74324 0.0
C2573 C 0.1827 0.94748 0.74893 0.0
C2574 C 0.19082 0.95205 0.76457 0.0
C2575 C 0.97137 0.19378 0.74444 0.0
C2576 C 0.00654 0.21148 0.73604 0.0
C2577 C 0.97226 0.1934 0.76007 0.0
C2578 C 0.0083 0.21236 0.7678 0.0
H2579 H 0.94305 0.17753 0.73894 0.0
H2580 H 0.94473 0.17658 0.76611 0.0
S2581 S 0.10835 0.2669 0.75096 0.0
N2582 N 0.0781 0.25006 0.73654 0.0
N2583 N 0.07983 0.25252 0.7659 0.0
C2584 C 0.04347 0.23307 0.75952 0.0
C2585 C 0.04261 0.23186 0.74362 0.0
C2586 C 0.89644 0.52463 0.56977 0.0
C2587 C 0.8717 0.53326 0.56102 0.0
C2588 C 0.89117 0.51956 0.5853 0.0
C2589 C 0.86089 0.52277 0.59252 0.0
H2590 H 0.91769 0.51842 0.56449 0.0
H2591 H 0.9089 0.51017 0.59147 0.0
S2592 S 0.79314 0.55194 0.57481 0.0
N2593 N 0.8198 0.55012 0.56089 0.0
N2594 N 0.8098 0.54079 0.58986 0.0
C2595 C 0.8386 0.53505 0.58398 0.0
C2596 C 0.8441 0.54034 0.56829 0.0
C2597 C 0.48826 0.37501 0.57482 0.0
C2598 C 0.46319 0.34258 0.56583 0.0
C2599 C 0.48689 0.37202 0.59039 0.0
C2600 C 0.46023 0.33648 0.59755 0.0
H2601 H 0.51114 0.40201 0.5698 0.0
H2602 H 0.50873 0.39686 0.59681 0.0
S2603 S 0.38573 0.24408 0.57879 0.0
N2604 N 0.40933 0.27494 0.56498 0.0
N2605 N 0.40549 0.26912 0.59425 0.0
C2606 C 0.43267 0.30483 0.58862 0.0
C2607 C 0.4346 0.30786 0.57274 0.0
C2608 C 0.61229 0.09598 0.57324 0.0
C2609 C 0.64906 0.1129 0.56592 0.0
C2610 C 0.60994 0.09773 0.58881 0.0
C2611 C 0.64429 0.11545 0.59767 0.0
H2612 H 0.58524 0.0842 0.56687 0.0
H2613 H 0.58118 0.08768 0.59378 0.0
S2614 S 0.74712 0.15456 0.5838 0.0
N2615 N 0.7199 0.14234 0.56856 0.0
N2616 N 0.71581 0.1424 0.59784 0.0
C2617 C 0.68085 0.1273 0.59048 0.0
C2618 C 0.68321 0.12712 0.5746 0.0
C2619 C 0.47495 0.10341 0.07622 0.0
C2620 C 0.45438 0.11771 0.06776 0.0
C2621 C 0.47562 0.10539 0.09182 0.0
C2622 C 0.45437 0.12014 0.09947 0.0
H2623 H 0.49327 0.09366 0.07075 0.0
H2624 H 0.4946 0.0974 0.09789 0.0
S2625 S 0.39234 0.15702 0.08246 0.0
N2626 N 0.41072 0.14509 0.0681 0.0
N2627 N 0.40924 0.14585 0.09747 0.0
C2628 C 0.43092 0.13126 0.09116 0.0
C2629 C 0.43162 0.13081 0.07526 0.0
C2630 C 0.85709 0.29707 0.07665 0.0
C2631 C 0.87709 0.33292 0.06881 0.0
C2632 C 0.85753 0.2964 0.09227 0.0
C2633 C 0.87656 0.33168 0.10055 0.0
H2634 H 0.83915 0.26965 0.0707 0.0
H2635 H 0.84012 0.26835 0.09787 0.0
S2636 S 0.93504 0.43293 0.08534 0.0
N2637 N 0.91954 0.4042 0.07048 0.0
N2638 N 0.91753 0.40302 0.09986 0.0
C2639 C 0.89816 0.36746 0.09287 0.0
C2640 C 0.89914 0.36804 0.07697 0.0
C2641 C 0.70389 0.55109 0.09029 0.0
C2642 C 0.66921 0.5407 0.0984 0.0
C2643 C 0.70398 0.5512 0.07469 0.0
C2644 C 0.66966 0.54212 0.06664 0.0
H2645 H 0.73054 0.55663 0.09597 0.0
H2646 H 0.73048 0.55631 0.0689 0.0
S2647 S 0.57224 0.51706 0.08272 0.0
N2648 N 0.60036 0.52329 0.09738 0.0
N2649 N 0.60087 0.52588 0.06799 0.0
C2650 C 0.6356 0.53483 0.07465 0.0
C2651 C 0.63524 0.53342 0.09057 0.0
C2652 C 0.50817 0.89761 0.92781 0.0
C2653 C 0.52888 0.88112 0.9348 0.0
C2654 C 0.49989 0.89251 0.91248 0.0
C2655 C 0.51277 0.87148 0.90355 0.0
H2656 H 0.49541 0.91164 0.9344 0.0
H2657 H 0.48122 0.90303 0.90783 0.0
S2658 S 0.57507 0.82964 0.91636 0.0
N2659 N 0.56617 0.84744 0.93161 0.0
N2660 N 0.5532 0.83988 0.90275 0.0
C2661 C 0.5374 0.85887 0.91026 0.0
C2662 C 0.54475 0.86312 0.92591 0.0
C2663 C 0.10589 0.63341 0.92564 0.0
C2664 C 0.12314 0.66806 0.93431 0.0
C2665 C 0.10743 0.63528 0.91004 0.0
C2666 C 0.12475 0.67181 0.90262 0.0
H2667 H 0.09413 0.6048 0.93092 0.0
H2668 H 0.09712 0.60818 0.90377 0.0
S2669 S 0.16975 0.77074 0.92029 0.0
N2670 N 0.15592 0.73959 0.93445 0.0
N2671 N 0.15596 0.74318 0.90511 0.0
C2672 C 0.13876 0.70643 0.91118 0.0
C2673 C 0.13869 0.70456 0.92706 0.0
C2674 C 0.30637 0.44493 0.90905 0.0
C2675 C 0.34125 0.46281 0.90047 0.0
C2676 C 0.3078 0.4465 0.92467 0.0
C2677 C 0.34414 0.4644 0.93222 0.0
H2678 H 0.27781 0.43226 0.90368 0.0
H2679 H 0.28043 0.43532 0.93085 0.0
S2680 S 0.44369 0.51179 0.91487 0.0
N2681 N 0.41288 0.49734 0.9006 0.0
N2682 N 0.41571 0.49738 0.92995 0.0
C2683 C 0.3791 0.47949 0.92376 0.0
C2684 C 0.37763 0.47943 0.90787 0.0
C2685 C 0.15912 0.44329 0.42443 0.0
C2686 C 0.13129 0.44849 0.43253 0.0
C2687 C 0.15919 0.44362 0.40884 0.0
C2688 C 0.13198 0.44996 0.40078 0.0
H2689 H 0.18259 0.44152 0.43018 0.0
H2690 H 0.18253 0.4417 0.40314 0.0
S2691 S 0.051 0.46183 0.41656 0.0
N2692 N 0.07332 0.45643 0.43126 0.0
N2693 N 0.07495 0.45893 0.40187 0.0
C2694 C 0.10258 0.45287 0.40865 0.0
C2695 C 0.10178 0.45151 0.42457 0.0
C2696 C 0.55999 0.70346 0.40782 0.0
C2697 C 0.54596 0.66832 0.39959 0.0
C2698 C 0.55917 0.70294 0.42344 0.0
C2699 C 0.54588 0.66749 0.43134 0.0
H2700 H 0.56882 0.73113 0.40221 0.0
H2701 H 0.56687 0.73004 0.42935 0.0
S2702 S 0.5107 0.56826 0.41494 0.0
N2703 N 0.52067 0.59767 0.40038 0.0
N2704 N 0.52212 0.59697 0.42976 0.0
C2705 C 0.53519 0.63274 0.42322 0.0
C2706 C 0.53445 0.63306 0.40731 0.0
C2707 C 0.37494 0.88854 0.42389 0.0
C2708 C 0.3408 0.87871 0.43228 0.0
C2709 C 0.37391 0.88762 0.40829 0.0
C2710 C 0.339 0.87801 0.40053 0.0
H2711 H 0.40184 0.894 0.4294 0.0
H2712 H 0.39991 0.89209 0.40228 0.0
S2713 S 0.24269 0.85382 0.41741 0.0
N2714 N 0.27186 0.86112 0.43183 0.0
N2715 N 0.27032 0.86177 0.40244 0.0
C2716 C 0.30554 0.87133 0.40881 0.0
C2717 C 0.3063 0.87097 0.42472 0.0
C2718 C 0.31147 0.17597 0.15887 0.0
C2719 C 0.2886 0.14591 0.16918 0.0
C2720 C 0.35179 0.1893 0.15689 0.0
C2721 C 0.37094 0.17316 0.16516 0.0
H2722 H 0.29823 0.18947 0.15223 0.0
H2723 H 0.36795 0.2124 0.14878 0.0
S2724 S 0.32451 0.09395 0.19376 0.0
N2725 N 0.28821 0.10054 0.18787 0.0
N2726 N 0.36379 0.12539 0.18415 0.0
C2727 C 0.3484 0.14301 0.17552 0.0
C2728 C 0.30732 0.12945 0.17753 0.0
C2729 C 0.86269 0.17498 0.17602 0.0
C2730 C 0.8436 0.13787 0.16899 0.0
C2731 C 0.84938 0.20199 0.17413 0.0
C2732 C 0.81641 0.19303 0.16511 0.0
H2733 H 0.88825 0.18344 0.18304 0.0
H2734 H 0.86533 0.23024 0.17975 0.0
S2735 S 0.75521 0.09942 0.14446 0.0
N2736 N 0.7893 0.09321 0.15284 0.0
N2737 N 0.7646 0.14409 0.14921 0.0
C2738 C 0.79684 0.15593 0.15807 0.0
C2739 C 0.81033 0.12834 0.16003 0.0
C2740 C 0.86426 0.68414 0.15833 0.0
C2741 C 0.85661 0.70783 0.16804 0.0
C2742 C 0.83705 0.64391 0.15652 0.0
C2743 C 0.80102 0.62564 0.16434 0.0
H2744 H 0.89166 0.69661 0.15209 0.0
H2745 H 0.84449 0.62706 0.14892 0.0
S2746 S 0.76627 0.67462 0.19102 0.0
N2747 N 0.81006 0.71014 0.18549 0.0
N2748 N 0.75884 0.63458 0.18208 0.0
C2749 C 0.79276 0.64904 0.17401 0.0
C2750 C 0.82055 0.69008 0.17586 0.0
C2751 C 0.15287 0.35209 0.32425 0.0
C2752 C 0.18528 0.37579 0.33354 0.0
C2753 C 0.13955 0.3118 0.32233 0.0
C2754 C 0.15801 0.29351 0.32964 0.0
H2755 H 0.13739 0.36462 0.31843 0.0
H2756 H 0.11441 0.2949 0.3151 0.0
S2757 S 0.24478 0.34257 0.35498 0.0
N2758 N 0.23593 0.37807 0.35 0.0
N2759 N 0.21113 0.30253 0.34635 0.0
C2760 C 0.19075 0.31695 0.33888 0.0
C2761 C 0.20431 0.35801 0.34083 0.0
C2762 C 0.65046 0.7991 0.32681 0.0
C2763 C 0.62605 0.80682 0.33611 0.0
C2764 C 0.69077 0.82646 0.32524 0.0
C2765 C 0.70838 0.86273 0.33289 0.0
H2766 H 0.63846 0.7716 0.32068 0.0
H2767 H 0.70814 0.81904 0.31791 0.0
S2768 S 0.65745 0.89752 0.35861 0.0
N2769 N 0.62245 0.85351 0.35309 0.0
N2770 N 0.69808 0.90501 0.3501 0.0
C2771 C 0.6843 0.87092 0.34222 0.0
C2772 C 0.64321 0.84297 0.34384 0.0
C2773 C 0.13401 0.81954 0.34486 0.0
C2774 C 0.14256 0.85214 0.33571 0.0
C2775 C 0.16026 0.80507 0.34604 0.0
C2776 C 0.19607 0.82251 0.33807 0.0
H2777 H 0.10672 0.80486 0.35118 0.0
H2778 H 0.15225 0.77992 0.35324 0.0
S2779 S 0.23277 0.90897 0.31262 0.0
N2780 N 0.18967 0.9017 0.31858 0.0
N2781 N 0.23897 0.87464 0.32079 0.0
C2782 C 0.20513 0.85532 0.32892 0.0
C2783 C 0.17842 0.8701 0.32774 0.0
C2784 C 0.68343 0.82279 0.84082 0.0
C2785 C 0.7065 0.85069 0.82987 0.0
C2786 C 0.64302 0.80942 0.84224 0.0
C2787 C 0.62397 0.82338 0.83279 0.0
H2788 H 0.69662 0.81116 0.84844 0.0
H2789 H 0.62676 0.78824 0.85096 0.0
S2790 S 0.67064 0.89559 0.8019 0.0
N2791 N 0.70709 0.89117 0.80914 0.0
N2792 N 0.63111 0.86606 0.8118 0.0
C2793 C 0.64657 0.85104 0.82168 0.0
C2794 C 0.68782 0.86469 0.82023 0.0
C2795 C 0.14895 0.79714 0.82882 0.0
C2796 C 0.18184 0.80566 0.8378 0.0
C2797 C 0.13397 0.82301 0.82804 0.0
C2798 C 0.15119 0.85845 0.83622 0.0
H2799 H 0.13441 0.77015 0.82235 0.0
H2800 H 0.10868 0.81507 0.82092 0.0
S2801 S 0.23812 0.89482 0.86139 0.0
N2802 N 0.23137 0.85229 0.85501 0.0
N2803 N 0.20328 0.90087 0.85357 0.0
C2804 C 0.18423 0.86745 0.84522 0.0
C2805 C 0.19953 0.8411 0.84599 0.0
C2806 C 0.16076 0.35604 0.84455 0.0
C2807 C 0.19767 0.37371 0.83736 0.0
C2808 C 0.13367 0.31572 0.84291 0.0
C2809 C 0.1424 0.29137 0.83401 0.0
H2810 H 0.15245 0.37345 0.85147 0.0
H2811 H 0.10553 0.3037 0.84861 0.0
S2812 S 0.2356 0.32275 0.81312 0.0
N2813 N 0.24203 0.3634 0.82126 0.0
N2814 N 0.19102 0.28773 0.81811 0.0
C2815 C 0.17939 0.3085 0.82686 0.0
C2816 C 0.20704 0.34961 0.82855 0.0
C2817 C 0.84606 0.64394 0.67292 0.0
C2818 C 0.81823 0.62372 0.6616 0.0
C2819 C 0.85689 0.68265 0.67677 0.0
C2820 C 0.84069 0.70298 0.66938 0.0
H2821 H 0.85932 0.62965 0.67908 0.0
H2822 H 0.87816 0.6967 0.68566 0.0
S2823 S 0.76722 0.66391 0.6387 0.0
N2824 N 0.77512 0.62721 0.64281 0.0
N2825 N 0.79561 0.70031 0.6501 0.0
C2826 C 0.8133 0.68351 0.65786 0.0
C2827 C 0.802 0.64378 0.65398 0.0
C2828 C 0.34668 0.16636 0.65165 0.0
C2829 C 0.36832 0.19876 0.66113 0.0
C2830 C 0.30836 0.13672 0.65533 0.0
C2831 C 0.29002 0.1387 0.66854 0.0
H2832 H 0.35952 0.1637 0.64132 0.0
H2833 H 0.29288 0.11233 0.64765 0.0
S2834 S 0.33391 0.21803 0.69703 0.0
N2835 N 0.36856 0.23148 0.68419 0.0
N2836 N 0.2965 0.17581 0.69116 0.0
C2837 C 0.31132 0.17104 0.67812 0.0
C2838 C 0.35051 0.20104 0.67442 0.0
C2839 C 0.80295 0.15452 0.67753 0.0
C2840 C 0.8126 0.18692 0.66809 0.0
C2841 C 0.82904 0.14013 0.67959 0.0
C2842 C 0.86587 0.15758 0.67232 0.0
H2843 H 0.77469 0.13959 0.68321 0.0
H2844 H 0.82 0.11486 0.68684 0.0
S2845 S 0.90637 0.24479 0.64708 0.0
N2846 N 0.86226 0.23707 0.65185 0.0
N2847 N 0.91142 0.21038 0.65579 0.0
C2848 C 0.8763 0.19065 0.66311 0.0
C2849 C 0.84965 0.20521 0.66098 0.0
C2850 C 0.018 0.47856 0.5035 0.0
C2851 C 0.04138 0.50667 0.49267 0.0
C2852 C 0.97734 0.46445 0.50453 0.0
C2853 C 0.95841 0.47788 0.49476 0.0
H2854 H 0.03116 0.46741 0.51136 0.0
H2855 H 0.96079 0.44319 0.51318 0.0
S2856 S 0.00591 0.55013 0.46394 0.0
N2857 N 0.04235 0.54659 0.47166 0.0
N2858 N 0.96603 0.52013 0.47358 0.0
C2859 C 0.98135 0.50568 0.48375 0.0
C2860 C 0.02278 0.52005 0.48271 0.0
C2861 C 0.52958 0.50585 0.50775 0.0
C2862 C 0.51538 0.47271 0.49836 0.0
C2863 C 0.51697 0.53348 0.50609 0.0
C2864 C 0.48963 0.52908 0.49498 0.0
H2865 H 0.55028 0.51037 0.5166 0.0
H2866 H 0.52864 0.55835 0.51368 0.0
S2867 S 0.44488 0.44847 0.46697 0.0
N2868 N 0.47343 0.43778 0.47717 0.0
N2869 N 0.44972 0.48961 0.47408 0.0
C2870 C 0.47553 0.49633 0.48538 0.0
C2871 C 0.4884 0.46819 0.48706 0.0
C2872 C 0.52687 0.01487 0.49198 0.0
C2873 C 0.51845 0.03834 0.50152 0.0
C2874 C 0.50152 0.97403 0.49098 0.0
C2875 C 0.46665 0.9549 0.49947 0.0
H2876 H 0.55335 0.02805 0.48518 0.0
H2877 H 0.50931 0.95748 0.48337 0.0
S2878 S 0.4312 0.00267 0.52641 0.0
N2879 N 0.47291 0.03933 0.5198 0.0
N2880 N 0.42514 0.96257 0.51791 0.0
C2881 C 0.45784 0.97796 0.50911 0.0
C2882 C 0.48373 0.01965 0.51013 0.0
C2883 C 0.52812 0.02218 0.01097 0.0
C2884 C 0.51073 0.04037 0.00286 0.0
C2885 C 0.51309 0.98137 0.01023 0.0
C2886 C 0.47996 0.95697 0.00137 0.0
H2887 H 0.55353 0.0395 0.01803 0.0
H2888 H 0.52774 0.96895 0.01667 0.0
S2889 S 0.42343 0.98984 0.97788 0.0
N2890 N 0.45842 0.03074 0.98562 0.0
N2891 N 0.43019 0.95403 0.98426 0.0
C2892 C 0.46215 0.97469 0.99321 0.0
C2893 C 0.47753 0.01635 0.99394 0.0
C2894 C 0.97919 0.46027 0.99279 0.0
C2895 C 0.95603 0.46813 0.00274 0.0
C2896 C 0.01913 0.48785 0.99036 0.0
C2897 C 0.03763 0.52443 0.99779 0.0
H2898 H 0.96649 0.43248 0.98683 0.0
H2899 H 0.0356 0.48024 0.98264 0.0
S2900 S 0.98997 0.55994 0.0248 0.0
N2901 N 0.9545 0.51546 0.01996 0.0
N2902 N 0.02935 0.56736 0.01536 0.0
C2903 C 0.01473 0.53285 0.00769 0.0
C2904 C 0.97403 0.50471 0.01017 0.0
C2905 C 0.46889 0.48721 0.00813 0.0
C2906 C 0.4773 0.51956 0.99885 0.0
C2907 C 0.49554 0.47336 0.00963 0.0
C2908 C 0.53171 0.49121 0.0019 0.0
H2909 H 0.44137 0.47219 0.01428 0.0
H2910 H 0.48754 0.44834 0.01691 0.0
S2911 S 0.5683 0.57732 0.97628 0.0
N2912 N 0.52466 0.56938 0.98187 0.0
N2913 N 0.57485 0.54351 0.98473 0.0
C2914 C 0.54071 0.52384 0.99265 0.0
C2915 C 0.51351 0.53796 0.99112 0.0
loop_
_geom_bond_atom_site_label_1
_geom_bond_atom_site_label_2
_geom_bond_distance
_geom_bond_site_symmetry_2
_ccdc_geom_bond_type
Co0 O2 2.143 . S
Co0 O8 2.074 . S
Co0 O11 2.093 . S
Co0 O24 2.097 . S
Co0 N41 2.151 . S
Co0 N49 2.214 . S
Co1 O2 2.160 . S
Co1 O7 2.058 . S
Co1 O17 2.057 . S
Co1 O32 2.037 . S
Co1 N36 2.145 . S
Co1 N57 2.257 . S
O2 Co0 2.143 . S
O2 Co1 2.160 . S
C3 O4 1.278 . S
C3 O11 1.224 . S
O4 C3 1.278 . S
C5 O6 1.245 . S
C5 O17 1.232 . S
O6 C5 1.245 . S
O7 Co1 2.058 . S
O7 C33 1.269 . S
O8 Co0 2.074 . S
O8 C33 1.257 . S
H9 C34 0.930 . S
H10 C40 0.930 . S
O11 Co0 2.093 . S
O11 C3 1.224 . S
H12 C44 0.929 . S
H13 C46 0.930 . S
H14 C47 0.930 . S
H15 C45 0.929 . S
H16 C48 0.928 . S
O17 Co1 2.057 . S
O17 C5 1.232 . S
H18 C37 0.929 . S
H19 C38 0.929 . S
H20 C50 0.931 . S
H21 C42 0.929 . S
H22 C51 0.930 . S
H23 C43 0.931 . S
O24 Co0 2.097 . S
O24 C52 1.214 . S
H25 C53 0.929 . S
H26 C54 0.929 . S
H27 C55 0.930 . S
H28 C56 0.929 . S
H29 C58 0.930 . S
H30 C35 0.930 . S
H31 C39 0.930 . S
O32 Co1 2.037 . S
O32 C52 1.234 . S
C33 O7 1.269 . S
C33 O8 1.257 . S
C34 H9 0.930 . S
C34 C37 1.388 . S
C34 C39 1.418 . S
C35 H30 0.930 . S
C35 C38 1.404 . S
C35 C39 1.353 . S
N36 Co1 2.145 . S
N36 C37 1.397 . S
N36 C38 1.334 . S
C37 H18 0.929 . S
C37 C34 1.388 . S
C37 N36 1.397 . S
C38 H19 0.929 . S
C38 C35 1.404 . S
C38 N36 1.334 . S
C39 H31 0.930 . S
C39 C34 1.418 . S
C39 C35 1.353 . S
C40 H10 0.930 . S
C40 N41 1.330 . S
C40 C42 1.446 . S
N41 Co0 2.151 . S
N41 C40 1.330 . S
N41 C45 1.418 . S
C42 H21 0.929 . S
C42 C40 1.446 . S
C42 C43 1.332 . S
C43 H23 0.931 . S
C43 C42 1.332 . S
C43 C44 1.267 . S
C44 H12 0.929 . S
C44 C43 1.267 . S
C44 C45 1.251 . S
C45 H15 0.929 . S
C45 N41 1.418 . S
C45 C44 1.251 . S
C46 H13 0.930 . S
C46 C48 1.406 . S
C46 C51 1.261 . S
C47 H14 0.930 . S
C47 N49 1.325 . S
C47 C50 1.357 . S
C48 H16 0.928 . S
C48 C46 1.406 . S
C48 N49 1.261 . S
N49 Co0 2.214 . S
N49 C47 1.325 . S
N49 C48 1.261 . S
C50 H20 0.931 . S
C50 C47 1.357 . S
C50 C51 1.312 . S
C51 H22 0.930 . S
C51 C46 1.261 . S
C51 C50 1.312 . S
C52 O24 1.214 . S
C52 O32 1.234 . S
C53 H25 0.929 . S
C53 C56 1.391 . S
C53 C58 1.391 . S
C54 H26 0.929 . S
C54 C55 1.390 . S
C54 N57 1.391 . S
C55 H27 0.930 . S
C55 C54 1.390 . S
C55 C56 1.392 . S
C56 H28 0.929 . S
C56 C53 1.391 . S
C56 C55 1.392 . S
N57 Co1 2.257 . S
N57 C54 1.391 . S
N57 C58 1.388 . S
C58 H29 0.930 . S
C58 C53 1.391 . S
C58 N57 1.388 . S
Co59 O61 2.143 . S
Co59 O67 2.074 . S
Co59 O70 2.093 1_545 S
Co59 O83 2.097 1_545 S
Co59 N100 2.151 . S
Co59 N108 2.214 1_545 S
Co60 O61 2.160 . S
Co60 O66 2.058 . S
Co60 O76 2.057 . S
Co60 O91 2.037 1_545 S
Co60 N95 2.145 . S
Co60 N116 2.257 1_545 S
O61 Co59 2.143 . S
O61 Co60 2.160 . S
C62 O63 1.278 . S
C62 O70 1.224 . S
O63 C62 1.278 . S
C64 O65 1.245 . S
C64 O76 1.232 . S
O65 C64 1.245 . S
O66 Co60 2.058 . S
O66 C92 1.269 . S
O67 Co59 2.074 . S
O67 C92 1.257 . S
H68 C93 0.930 . S
H69 C99 0.930 . S
O70 Co59 2.093 1_565 S
O70 C62 1.224 . S
H71 C103 0.929 . S
H72 C105 0.930 . S
H73 C106 0.930 . S
H74 C104 0.929 . S
H75 C107 0.928 . S
O76 Co60 2.057 . S
O76 C64 1.232 . S
H77 C96 0.929 . S
H78 C97 0.929 . S
H79 C109 0.931 . S
H80 C101 0.929 . S
H81 C110 0.930 . S
H82 C102 0.931 . S
O83 Co59 2.097 1_565 S
O83 C111 1.214 . S
H84 C112 0.929 . S
H85 C113 0.929 . S
H86 C114 0.930 . S
H87 C115 0.929 . S
H88 C117 0.930 1_545 S
H89 C94 0.930 . S
H90 C98 0.930 . S
O91 Co60 2.037 1_565 S
O91 C111 1.234 . S
C92 O66 1.269 . S
C92 O67 1.257 . S
C93 H68 0.930 . S
C93 C96 1.388 . S
C93 C98 1.418 . S
C94 H89 0.930 . S
C94 C97 1.404 . S
C94 C98 1.353 1_545 S
N95 Co60 2.145 . S
N95 C96 1.397 1_545 S
N95 C97 1.334 . S
C96 H77 0.929 . S
C96 C93 1.388 . S
C96 N95 1.397 1_565 S
C97 H78 0.929 . S
C97 C94 1.404 . S
C97 N95 1.334 . S
C98 H90 0.930 . S
C98 C93 1.418 . S
C98 C94 1.353 1_565 S
C99 H69 0.930 . S
C99 N100 1.330 . S
C99 C101 1.446 . S
N100 Co59 2.151 . S
N100 C99 1.330 . S
N100 C104 1.418 . S
C101 H80 0.929 . S
C101 C99 1.446 . S
C101 C102 1.332 . S
C102 H82 0.931 . S
C102 C101 1.332 . S
C102 C103 1.267 . S
C103 H71 0.929 . S
C103 C102 1.267 . S
C103 C104 1.251 . S
C104 H74 0.929 . S
C104 N100 1.418 . S
C104 C103 1.251 . S
C105 H72 0.930 . S
C105 C107 1.406 1_565 S
C105 C110 1.261 . S
C106 H73 0.930 . S
C106 N108 1.325 . S
C106 C109 1.357 . S
C107 H75 0.928 . S
C107 C105 1.406 1_545 S
C107 N108 1.261 1_545 S
N108 Co59 2.214 1_565 S
N108 C106 1.325 . S
N108 C107 1.261 1_565 S
C109 H79 0.931 . S
C109 C106 1.357 . S
C109 C110 1.312 . S
C110 H81 0.930 . S
C110 C105 1.261 . S
C110 C109 1.312 . S
C111 O83 1.214 . S
C111 O91 1.234 . S
C112 H84 0.929 . S
C112 C115 1.391 . S
C112 C117 1.391 . S
C113 H85 0.929 . S
C113 C114 1.390 . S
C113 N116 1.391 . S
C114 H86 0.930 . S
C114 C113 1.390 . S
C114 C115 1.392 . S
C115 H87 0.929 . S
C115 C112 1.391 . S
C115 C114 1.392 . S
N116 Co60 2.257 1_565 S
N116 C113 1.391 . S
N116 C117 1.388 . S
C117 H88 0.930 1_565 S
C117 C112 1.391 . S
C117 N116 1.388 . S
Co118 O120 2.143 . S
Co118 O126 2.074 . S
Co118 O129 2.093 1_655 S
Co118 O142 2.097 1_655 S
Co118 N159 2.151 . S
Co118 N167 2.214 1_655 S
Co119 O120 2.160 . S
Co119 O125 2.058 . S
Co119 O135 2.057 . S
Co119 O150 2.037 1_655 S
Co119 N154 2.145 . S
Co119 N175 2.257 1_655 S
O120 Co118 2.143 . S
O120 Co119 2.160 . S
C121 O122 1.278 . S
C121 O129 1.224 . S
O122 C121 1.278 . S
C123 O124 1.245 . S
C123 O135 1.232 . S
O124 C123 1.245 . S
O125 Co119 2.058 . S
O125 C151 1.269 . S
O126 Co118 2.074 . S
O126 C151 1.257 . S
H127 C152 0.930 . S
H128 C158 0.930 . S
O129 Co118 2.093 1_455 S
O129 C121 1.224 . S
H130 C162 0.929 . S
H131 C164 0.930 . S
H132 C165 0.930 . S
H133 C163 0.929 . S
H134 C166 0.927 . S
O135 Co119 2.057 . S
O135 C123 1.232 . S
H136 C155 0.929 . S
H137 C156 0.929 . S
H138 C168 0.931 1_545 S
H139 C160 0.929 . S
H140 C169 0.930 1_545 S
H141 C161 0.931 . S
O142 Co118 2.097 1_455 S
O142 C170 1.214 . S
H143 C171 0.929 . S
H144 C172 0.929 . S
H145 C173 0.930 . S
H146 C174 0.929 . S
H147 C176 0.930 1_655 S
H148 C153 0.930 . S
H149 C157 0.930 . S
O150 Co119 2.037 1_455 S
O150 C170 1.234 . S
C151 O125 1.269 . S
C151 O126 1.257 . S
C152 H127 0.930 . S
C152 C155 1.388 . S
C152 C157 1.418 . S
C153 H148 0.930 . S
C153 C156 1.404 . S
C153 C157 1.353 1_655 S
N154 Co119 2.145 . S
N154 C155 1.397 1_655 S
N154 C156 1.334 . S
C155 H136 0.929 . S
C155 C152 1.388 . S
C155 N154 1.397 1_455 S
C156 H137 0.929 . S
C156 C153 1.404 . S
C156 N154 1.334 . S
C157 H149 0.930 . S
C157 C152 1.418 . S
C157 C153 1.353 1_455 S
C158 H128 0.930 . S
C158 N159 1.330 . S
C158 C160 1.446 . S
N159 Co118 2.151 . S
N159 C158 1.330 . S
N159 C163 1.418 . S
C160 H139 0.929 . S
C160 C158 1.446 . S
C160 C161 1.332 . S
C161 H141 0.931 . S
C161 C160 1.332 . S
C161 C162 1.267 . S
C162 H130 0.929 . S
C162 C161 1.267 . S
C162 C163 1.251 . S
C163 H133 0.929 . S
C163 N159 1.418 . S
C163 C162 1.251 . S
C164 H131 0.930 . S
C164 C166 1.414 1_455 S
C164 C169 1.261 . S
C165 H132 0.930 . S
C165 N167 1.325 . S
C165 C168 1.357 . S
C166 H134 0.927 . S
C166 C164 1.414 1_655 S
C166 N167 1.255 1_655 S
N167 Co118 2.214 1_455 S
N167 C165 1.325 . S
N167 C166 1.255 1_455 S
C168 H138 0.931 1_565 S
C168 C165 1.357 . S
C168 C169 1.312 . S
C169 H140 0.930 1_565 S
C169 C164 1.261 . S
C169 C168 1.312 . S
C170 O142 1.214 . S
C170 O150 1.234 . S
C171 H143 0.929 . S
C171 C174 1.391 . S
C171 C176 1.391 . S
C172 H144 0.929 . S
C172 C173 1.390 . S
C172 N175 1.391 . S
C173 H145 0.930 . S
C173 C172 1.390 . S
C173 C174 1.392 . S
C174 H146 0.929 . S
C174 C171 1.391 . S
C174 C173 1.392 . S
N175 Co119 2.257 1_455 S
N175 C172 1.391 . S
N175 C176 1.388 . S
C176 H147 0.930 1_455 S
C176 C171 1.391 . S
C176 N175 1.388 . S
Co177 O179 2.143 . S
Co177 O185 2.074 . S
Co177 O188 2.093 . S
Co177 O201 2.097 . S
Co177 N218 2.151 . S
Co177 N226 2.214 . S
Co178 O179 2.160 . S
Co178 O184 2.058 . S
Co178 O194 2.057 . S
Co178 O209 2.037 . S
Co178 N213 2.145 . S
Co178 N234 2.257 . S
O179 Co177 2.143 . S
O179 Co178 2.160 . S
C180 O181 1.278 . S
C180 O188 1.224 . S
O181 C180 1.278 . S
C182 O183 1.245 . S
C182 O194 1.232 . S
O183 C182 1.245 . S
O184 Co178 2.058 . S
O184 C210 1.269 . S
O185 Co177 2.074 . S
O185 C210 1.257 . S
H186 C211 0.930 . S
H187 C217 0.930 . S
O188 Co177 2.093 . S
O188 C180 1.224 . S
H189 C221 0.929 . S
H190 C223 0.930 . S
H191 C224 0.930 . S
H192 C222 0.929 . S
H193 C225 0.928 . S
O194 Co178 2.057 . S
O194 C182 1.232 . S
H195 C214 0.929 . S
H196 C215 0.929 . S
H197 C227 0.931 1_565 S
H198 C219 0.929 . S
H199 C228 0.930 1_565 S
H200 C220 0.931 . S
O201 Co177 2.097 . S
O201 C229 1.214 . S
H202 C230 0.929 . S
H203 C231 0.929 . S
H204 C232 0.930 . S
H205 C233 0.929 . S
H206 C235 0.930 . S
H207 C212 0.930 . S
H208 C216 0.930 . S
O209 Co178 2.037 . S
O209 C229 1.234 . S
C210 O184 1.269 . S
C210 O185 1.257 . S
C211 H186 0.930 . S
C211 C214 1.388 . S
C211 C216 1.418 . S
C212 H207 0.930 . S
C212 C215 1.404 . S
C212 C216 1.353 . S
N213 Co178 2.145 . S
N213 C214 1.397 . S
N213 C215 1.334 . S
C214 H195 0.929 . S
C214 C211 1.388 . S
C214 N213 1.397 . S
C215 H196 0.929 . S
C215 C212 1.404 . S
C215 N213 1.334 . S
C216 H208 0.930 . S
C216 C211 1.418 . S
C216 C212 1.353 . S
C217 H187 0.930 . S
C217 N218 1.330 . S
C217 C219 1.446 . S
N218 Co177 2.151 . S
N218 C217 1.330 . S
N218 C222 1.418 . S
C219 H198 0.929 . S
C219 C217 1.446 . S
C219 C220 1.332 . S
C220 H200 0.931 . S
C220 C219 1.332 . S
C220 C221 1.267 . S
C221 H189 0.929 . S
C221 C220 1.267 . S
C221 C222 1.251 . S
C222 H192 0.929 . S
C222 N218 1.418 . S
C222 C221 1.251 . S
C223 H190 0.930 . S
C223 C225 1.406 . S
C223 C228 1.261 . S
C224 H191 0.930 . S
C224 N226 1.325 . S
C224 C227 1.357 . S
C225 H193 0.928 . S
C225 C223 1.406 . S
C225 N226 1.261 . S
N226 Co177 2.214 . S
N226 C224 1.325 . S
N226 C225 1.261 . S
C227 H197 0.931 1_545 S
C227 C224 1.357 . S
C227 C228 1.312 . S
C228 H199 0.930 1_545 S
C228 C223 1.261 . S
C228 C227 1.312 . S
C229 O201 1.214 . S
C229 O209 1.234 . S
C230 H202 0.929 . S
C230 C233 1.391 . S
C230 C235 1.391 . S
C231 H203 0.929 . S
C231 C232 1.390 . S
C231 N234 1.391 . S
C232 H204 0.930 . S
C232 C231 1.390 . S
C232 C233 1.392 . S
C233 H205 0.929 . S
C233 C230 1.391 . S
C233 C232 1.392 . S
N234 Co178 2.257 . S
N234 C231 1.391 . S
N234 C235 1.388 . S
C235 H206 0.930 . S
C235 C230 1.391 . S
C235 N234 1.388 . S
Co236 O238 2.143 . S
Co236 O244 2.074 . S
Co236 O247 2.093 1_565 S
Co236 O260 2.097 1_565 S
Co236 N277 2.151 . S
Co236 N285 2.214 1_565 S
Co237 O238 2.160 . S
Co237 O243 2.058 . S
Co237 O253 2.057 . S
Co237 O268 2.037 1_565 S
Co237 N272 2.145 . S
Co237 N293 2.257 1_565 S
O238 Co236 2.143 . S
O238 Co237 2.160 . S
C239 O240 1.278 . S
C239 O247 1.224 . S
O240 C239 1.278 . S
C241 O242 1.245 . S
C241 O253 1.232 . S
O242 C241 1.245 . S
O243 Co237 2.058 . S
O243 C269 1.269 . S
O244 Co236 2.074 . S
O244 C269 1.257 . S
H245 C270 0.930 . S
H246 C276 0.930 . S
O247 Co236 2.093 1_545 S
O247 C239 1.224 . S
H248 C280 0.929 . S
H249 C282 0.930 . S
H250 C283 0.930 . S
H251 C281 0.929 . S
H252 C284 0.928 . S
O253 Co237 2.057 . S
O253 C241 1.232 . S
H254 C273 0.929 . S
H255 C274 0.929 . S
H256 C286 0.931 1_455 S
H257 C278 0.929 . S
H258 C287 0.930 1_455 S
H259 C279 0.931 . S
O260 Co236 2.097 1_545 S
O260 C288 1.214 . S
H261 C289 0.929 . S
H262 C290 0.929 . S
H263 C291 0.930 . S
H264 C292 0.929 . S
H265 C294 0.930 1_565 S
H266 C271 0.930 . S
H267 C275 0.930 . S
O268 Co237 2.037 1_545 S
O268 C288 1.234 . S
C269 O243 1.269 . S
C269 O244 1.257 . S
C270 H245 0.930 . S
C270 C273 1.388 . S
C270 C275 1.418 . S
C271 H266 0.930 . S
C271 C274 1.404 . S
C271 C275 1.353 1_565 S
N272 Co237 2.145 . S
N272 C273 1.397 1_565 S
N272 C274 1.334 . S
C273 H254 0.929 . S
C273 C270 1.388 . S
C273 N272 1.397 1_545 S
C274 H255 0.929 . S
C274 C271 1.404 . S
C274 N272 1.334 . S
C275 H267 0.930 . S
C275 C270 1.418 . S
C275 C271 1.353 1_545 S
C276 H246 0.930 . S
C276 N277 1.330 . S
C276 C278 1.446 . S
N277 Co236 2.151 . S
N277 C276 1.330 . S
N277 C281 1.418 . S
C278 H257 0.929 . S
C278 C276 1.446 . S
C278 C279 1.332 . S
C279 H259 0.931 . S
C279 C278 1.332 . S
C279 C280 1.267 . S
C280 H248 0.929 . S
C280 C279 1.267 . S
C280 C281 1.251 . S
C281 H251 0.929 . S
C281 N277 1.418 . S
C281 C280 1.251 . S
C282 H249 0.930 . S
C282 C284 1.406 1_545 S
C282 C287 1.261 . S
C283 H250 0.930 . S
C283 N285 1.325 . S
C283 C286 1.357 . S
C284 H252 0.928 . S
C284 C282 1.406 1_565 S
C284 N285 1.261 1_565 S
N285 Co236 2.214 1_545 S
N285 C283 1.325 . S
N285 C284 1.261 1_545 S
C286 H256 0.931 1_655 S
C286 C283 1.357 . S
C286 C287 1.312 . S
C287 H258 0.930 1_655 S
C287 C282 1.261 . S
C287 C286 1.312 . S
C288 O260 1.214 . S
C288 O268 1.234 . S
C289 H261 0.929 . S
C289 C292 1.391 . S
C289 C294 1.391 . S
C290 H262 0.929 . S
C290 C291 1.390 . S
C290 N293 1.391 . S
C291 H263 0.930 . S
C291 C290 1.390 . S
C291 C292 1.392 . S
C292 H264 0.929 . S
C292 C289 1.391 . S
C292 C291 1.392 . S
N293 Co237 2.257 1_545 S
N293 C290 1.391 . S
N293 C294 1.388 . S
C294 H265 0.930 1_545 S
C294 C289 1.391 . S
C294 N293 1.388 . S
Co295 O297 2.143 . S
Co295 O303 2.074 1_455 S
Co295 O306 2.093 . S
Co295 O319 2.097 . S
Co295 N336 2.151 1_455 S
Co295 N344 2.214 . S
Co296 O297 2.160 . S
Co296 O302 2.058 1_455 S
Co296 O312 2.057 1_455 S
Co296 O327 2.037 . S
Co296 N331 2.145 . S
Co296 N352 2.257 . S
O297 Co295 2.143 . S
O297 Co296 2.160 . S
C298 O299 1.278 . S
C298 O306 1.224 . S
O299 C298 1.278 . S
C300 O301 1.245 . S
C300 O312 1.232 . S
O301 C300 1.245 . S
O302 Co296 2.058 1_655 S
O302 C328 1.269 . S
O303 Co295 2.074 1_655 S
O303 C328 1.257 . S
H304 C329 0.930 . S
H305 C335 0.930 1_455 S
O306 Co295 2.093 . S
O306 C298 1.224 . S
H307 C339 0.929 . S
H308 C341 0.930 . S
H309 C342 0.930 . S
H310 C340 0.929 . S
H311 C343 0.928 . S
O312 Co296 2.057 1_655 S
O312 C300 1.232 . S
H313 C332 0.929 . S
H314 C333 0.929 . S
H315 C345 0.951 . S
H316 C337 0.929 . S
H317 C346 0.926 1_655 S
H318 C338 0.931 . S
O319 Co295 2.097 . S
O319 C347 1.214 . S
H320 C348 0.929 . S
H321 C349 0.929 . S
H322 C350 0.930 . S
H323 C351 0.929 . S
H324 C353 0.930 . S
H325 C330 0.927 1_655 S
H326 C334 0.930 . S
O327 Co296 2.037 . S
O327 C347 1.234 . S
C328 O302 1.269 . S
C328 O303 1.257 . S
C329 H304 0.930 . S
C329 C332 1.388 . S
C329 C334 1.418 . S
C330 H325 0.927 1_455 S
C330 C333 1.419 . S
C330 C334 1.342 . S
N331 Co296 2.145 . S
N331 C332 1.397 . S
N331 C333 1.334 . S
C332 H313 0.929 . S
C332 C329 1.388 . S
C332 N331 1.397 . S
C333 H314 0.929 . S
C333 C330 1.419 . S
C333 N331 1.334 . S
C334 H326 0.930 . S
C334 C329 1.418 . S
C334 C330 1.342 . S
C335 H305 0.930 1_655 S
C335 N336 1.330 . S
C335 C337 1.446 . S
N336 Co295 2.151 1_655 S
N336 C335 1.330 . S
N336 C340 1.418 . S
C337 H316 0.929 . S
C337 C335 1.446 . S
C337 C338 1.332 . S
C338 H318 0.931 . S
C338 C337 1.332 . S
C338 C339 1.267 . S
C339 H307 0.929 . S
C339 C338 1.267 . S
C339 C340 1.251 . S
C340 H310 0.929 . S
C340 N336 1.418 . S
C340 C339 1.251 . S
C341 H308 0.930 . S
C341 C343 1.406 . S
C341 C346 1.272 . S
C342 H309 0.930 . S
C342 N344 1.325 . S
C342 C345 1.348 1_455 S
C343 H311 0.928 . S
C343 C341 1.406 . S
C343 N344 1.261 . S
N344 Co295 2.214 . S
N344 C342 1.325 . S
N344 C343 1.261 . S
C345 H315 0.951 . S
C345 C342 1.348 1_655 S
C345 C346 1.294 1_655 S
C346 H317 0.926 1_455 S
C346 C341 1.272 . S
C346 C345 1.294 1_455 S
C347 O319 1.214 . S
C347 O327 1.234 . S
C348 H320 0.929 . S
C348 C351 1.391 . S
C348 C353 1.391 . S
C349 H321 0.929 . S
C349 C350 1.390 . S
C349 N352 1.391 . S
C350 H322 0.930 . S
C350 C349 1.390 . S
C350 C351 1.392 . S
C351 H323 0.929 . S
C351 C348 1.391 . S
C351 C350 1.392 . S
N352 Co296 2.257 . S
N352 C349 1.391 . S
N352 C353 1.388 . S
C353 H324 0.930 . S
C353 C348 1.391 . S
C353 N352 1.388 . S
Co354 O356 2.143 . S
Co354 O362 2.074 . S
Co354 O365 2.093 . S
Co354 O378 2.097 . S
Co354 N395 2.151 . S
Co354 N403 2.214 . S
Co355 O356 2.160 . S
Co355 O361 2.058 . S
Co355 O371 2.057 . S
Co355 O386 2.037 . S
Co355 N390 2.145 . S
Co355 N411 2.257 . S
O356 Co354 2.143 . S
O356 Co355 2.160 . S
C357 O358 1.278 . S
C357 O365 1.224 . S
O358 C357 1.278 . S
C359 O360 1.245 . S
C359 O371 1.232 . S
O360 C359 1.245 . S
O361 Co355 2.058 . S
O361 C387 1.269 . S
O362 Co354 2.074 . S
O362 C387 1.257 . S
H363 C388 0.930 . S
H364 C394 0.930 . S
O365 Co354 2.093 . S
O365 C357 1.224 . S
H366 C398 0.929 . S
H367 C400 0.930 . S
H368 C401 0.930 . S
H369 C399 0.929 . S
H370 C402 0.928 . S
O371 Co355 2.057 . S
O371 C359 1.232 . S
H372 C391 0.929 . S
H373 C392 0.929 . S
H374 C404 0.931 1_455 S
H375 C396 0.929 . S
H376 C405 0.930 1_455 S
H377 C397 0.931 . S
O378 Co354 2.097 . S
O378 C406 1.214 . S
H379 C407 0.929 . S
H380 C408 0.929 . S
H381 C409 0.930 . S
H382 C410 0.929 . S
H383 C412 0.930 . S
H384 C389 0.930 . S
H385 C393 0.930 . S
O386 Co355 2.037 . S
O386 C406 1.234 . S
C387 O361 1.269 . S
C387 O362 1.257 . S
C388 H363 0.930 . S
C388 C391 1.388 . S
C388 C393 1.418 . S
C389 H384 0.930 . S
C389 C392 1.404 . S
C389 C393 1.353 . S
N390 Co355 2.145 . S
N390 C391 1.397 . S
N390 C392 1.334 . S
C391 H372 0.929 . S
C391 C388 1.388 . S
C391 N390 1.397 . S
C392 H373 0.929 . S
C392 C389 1.404 . S
C392 N390 1.334 . S
C393 H385 0.930 . S
C393 C388 1.418 . S
C393 C389 1.353 . S
C394 H364 0.930 . S
C394 N395 1.330 . S
C394 C396 1.446 . S
N395 Co354 2.151 . S
N395 C394 1.330 . S
N395 C399 1.418 . S
C396 H375 0.929 . S
C396 C394 1.446 . S
C396 C397 1.332 . S
C397 H377 0.931 . S
C397 C396 1.332 . S
C397 C398 1.267 . S
C398 H366 0.929 . S
C398 C397 1.267 . S
C398 C399 1.251 . S
C399 H369 0.929 . S
C399 N395 1.418 . S
C399 C398 1.251 . S
C400 H367 0.930 . S
C400 C402 1.406 . S
C400 C405 1.261 . S
C401 H368 0.930 . S
C401 N403 1.325 . S
C401 C404 1.357 . S
C402 H370 0.928 . S
C402 C400 1.406 . S
C402 N403 1.261 . S
N403 Co354 2.214 . S
N403 C401 1.325 . S
N403 C402 1.261 . S
C404 H374 0.931 1_655 S
C404 C401 1.357 . S
C404 C405 1.312 . S
C405 H376 0.930 1_655 S
C405 C400 1.261 . S
C405 C404 1.312 . S
C406 O378 1.214 . S
C406 O386 1.234 . S
C407 H379 0.929 . S
C407 C410 1.391 . S
C407 C412 1.391 . S
C408 H380 0.929 . S
C408 C409 1.390 . S
C408 N411 1.391 . S
C409 H381 0.930 . S
C409 C408 1.390 . S
C409 C410 1.392 . S
C410 H382 0.929 . S
C410 C407 1.391 . S
C410 C409 1.392 . S
N411 Co355 2.257 . S
N411 C408 1.391 . S
N411 C412 1.388 . S
C412 H383 0.930 . S
C412 C407 1.391 . S
C412 N411 1.388 . S
Co413 O415 2.143 . S
Co413 O421 2.074 . S
Co413 O424 2.093 1_565 S
Co413 O437 2.097 1_565 S
Co413 N454 2.151 . S
Co413 N462 2.214 1_565 S
Co414 O415 2.160 . S
Co414 O420 2.058 . S
Co414 O430 2.057 . S
Co414 O445 2.037 1_565 S
Co414 N449 2.145 . S
Co414 N470 2.257 1_565 S
O415 Co413 2.143 . S
O415 Co414 2.160 . S
C416 O417 1.278 . S
C416 O424 1.224 . S
O417 C416 1.278 . S
C418 O419 1.245 . S
C418 O430 1.232 . S
O419 C418 1.245 . S
O420 Co414 2.058 . S
O420 C446 1.269 . S
O421 Co413 2.074 . S
O421 C446 1.257 . S
H422 C447 0.930 . S
H423 C453 0.930 . S
O424 Co413 2.093 1_545 S
O424 C416 1.224 . S
H425 C457 0.929 . S
H426 C459 0.930 . S
H427 C460 0.930 . S
H428 C458 0.929 . S
H429 C461 0.928 . S
O430 Co414 2.057 . S
O430 C418 1.232 . S
H431 C450 0.929 . S
H432 C451 0.929 . S
H433 C463 0.931 . S
H434 C455 0.929 . S
H435 C464 0.930 . S
H436 C456 0.931 . S
O437 Co413 2.097 1_545 S
O437 C465 1.214 . S
H438 C466 0.929 . S
H439 C467 0.929 . S
H440 C468 0.930 . S
H441 C469 0.929 . S
H442 C471 0.930 1_565 S
H443 C448 0.930 . S
H444 C452 0.930 . S
O445 Co414 2.037 1_545 S
O445 C465 1.234 . S
C446 O420 1.269 . S
C446 O421 1.257 . S
C447 H422 0.930 . S
C447 C450 1.388 . S
C447 C452 1.418 . S
C448 H443 0.930 . S
C448 C451 1.404 . S
C448 C452 1.353 1_565 S
N449 Co414 2.145 . S
N449 C450 1.397 1_565 S
N449 C451 1.334 . S
C450 H431 0.929 . S
C450 C447 1.388 . S
C450 N449 1.397 1_545 S
C451 H432 0.929 . S
C451 C448 1.404 . S
C451 N449 1.334 . S
C452 H444 0.930 . S
C452 C447 1.418 . S
C452 C448 1.353 1_545 S
C453 H423 0.930 . S
C453 N454 1.330 . S
C453 C455 1.446 . S
N454 Co413 2.151 . S
N454 C453 1.330 . S
N454 C458 1.418 . S
C455 H434 0.929 . S
C455 C453 1.446 . S
C455 C456 1.332 . S
C456 H436 0.931 . S
C456 C455 1.332 . S
C456 C457 1.267 . S
C457 H425 0.929 . S
C457 C456 1.267 . S
C457 C458 1.251 . S
C458 H428 0.929 . S
C458 N454 1.418 . S
C458 C457 1.251 . S
C459 H426 0.930 . S
C459 C461 1.406 1_545 S
C459 C464 1.261 . S
C460 H427 0.930 . S
C460 N462 1.325 . S
C460 C463 1.357 . S
C461 H429 0.928 . S
C461 C459 1.406 1_565 S
C461 N462 1.261 1_565 S
N462 Co413 2.214 1_545 S
N462 C460 1.325 . S
N462 C461 1.261 1_545 S
C463 H433 0.931 . S
C463 C460 1.357 . S
C463 C464 1.312 . S
C464 H435 0.930 . S
C464 C459 1.261 . S
C464 C463 1.312 . S
C465 O437 1.214 . S
C465 O445 1.234 . S
C466 H438 0.929 . S
C466 C469 1.391 . S
C466 C471 1.391 . S
C467 H439 0.929 . S
C467 C468 1.390 . S
C467 N470 1.391 . S
C468 H440 0.930 . S
C468 C467 1.390 . S
C468 C469 1.392 . S
C469 H441 0.929 . S
C469 C466 1.391 . S
C469 C468 1.392 . S
N470 Co414 2.257 1_545 S
N470 C467 1.391 . S
N470 C471 1.388 . S
C471 H442 0.930 1_545 S
C471 C466 1.391 . S
C471 N470 1.388 . S
Co472 O474 2.143 . S
Co472 O480 2.074 . S
Co472 O483 2.093 1_455 S
Co472 O496 2.097 1_455 S
Co472 N513 2.151 . S
Co472 N521 2.214 1_455 S
Co473 O474 2.160 . S
Co473 O479 2.058 . S
Co473 O489 2.057 . S
Co473 O504 2.037 1_455 S
Co473 N508 2.145 . S
Co473 N529 2.257 1_455 S
O474 Co472 2.143 . S
O474 Co473 2.160 . S
C475 O476 1.278 . S
C475 O483 1.224 . S
O476 C475 1.278 . S
C477 O478 1.245 . S
C477 O489 1.232 . S
O478 C477 1.245 . S
O479 Co473 2.058 . S
O479 C505 1.269 . S
O480 Co472 2.074 . S
O480 C505 1.257 . S
H481 C506 0.930 . S
H482 C512 0.930 . S
O483 Co472 2.093 1_655 S
O483 C475 1.224 . S
H484 C516 0.929 . S
H485 C518 0.930 . S
H486 C519 0.930 . S
H487 C517 0.929 . S
H488 C520 0.927 . S
O489 Co473 2.057 . S
O489 C477 1.232 . S
H490 C509 0.929 . S
H491 C510 0.929 . S
H492 C522 0.931 1_565 S
H493 C514 0.929 . S
H494 C523 0.930 1_565 S
H495 C515 0.931 . S
O496 Co472 2.097 1_655 S
O496 C524 1.214 . S
H497 C525 0.929 . S
H498 C526 0.929 . S
H499 C527 0.930 . S
H500 C528 0.929 . S
H501 C530 0.930 1_455 S
H502 C507 0.930 . S
H503 C511 0.930 . S
O504 Co473 2.037 1_655 S
O504 C524 1.234 . S
C505 O479 1.269 . S
C505 O480 1.257 . S
C506 H481 0.930 . S
C506 C509 1.388 . S
C506 C511 1.418 . S
C507 H502 0.930 . S
C507 C510 1.404 . S
C507 C511 1.353 1_455 S
N508 Co473 2.145 . S
N508 C509 1.397 1_455 S
N508 C510 1.334 . S
C509 H490 0.929 . S
C509 C506 1.388 . S
C509 N508 1.397 1_655 S
C510 H491 0.929 . S
C510 C507 1.404 . S
C510 N508 1.334 . S
C511 H503 0.930 . S
C511 C506 1.418 . S
C511 C507 1.353 1_655 S
C512 H482 0.930 . S
C512 N513 1.330 . S
C512 C514 1.446 . S
N513 Co472 2.151 . S
N513 C512 1.330 . S
N513 C517 1.418 . S
C514 H493 0.929 . S
C514 C512 1.446 . S
C514 C515 1.332 . S
C515 H495 0.931 . S
C515 C514 1.332 . S
C515 C516 1.267 . S
C516 H484 0.929 . S
C516 C515 1.267 . S
C516 C517 1.251 . S
C517 H487 0.929 . S
C517 N513 1.418 . S
C517 C516 1.251 . S
C518 H485 0.930 . S
C518 C520 1.415 1_655 S
C518 C523 1.261 . S
C519 H486 0.930 . S
C519 N521 1.325 . S
C519 C522 1.357 . S
C520 H488 0.927 . S
C520 C518 1.415 1_455 S
C520 N521 1.255 1_455 S
N521 Co472 2.214 1_655 S
N521 C519 1.325 . S
N521 C520 1.255 1_655 S
C522 H492 0.931 1_545 S
C522 C519 1.357 . S
C522 C523 1.312 . S
C523 H494 0.930 1_545 S
C523 C518 1.261 . S
C523 C522 1.312 . S
C524 O496 1.214 . S
C524 O504 1.234 . S
C525 H497 0.929 . S
C525 C528 1.391 . S
C525 C530 1.391 . S
C526 H498 0.929 . S
C526 C527 1.390 . S
C526 N529 1.391 . S
C527 H499 0.930 . S
C527 C526 1.390 . S
C527 C528 1.392 . S
C528 H500 0.929 . S
C528 C525 1.391 . S
C528 C527 1.392 . S
N529 Co473 2.257 1_655 S
N529 C526 1.391 . S
N529 C530 1.388 . S
C530 H501 0.930 1_655 S
C530 C525 1.391 . S
C530 N529 1.388 . S
Co531 O533 2.143 . S
Co531 O539 2.074 . S
Co531 O542 2.093 . S
Co531 O555 2.097 . S
Co531 N572 2.151 . S
Co531 N580 2.214 . S
Co532 O533 2.160 . S
Co532 O538 2.058 . S
Co532 O548 2.057 . S
Co532 O563 2.037 . S
Co532 N567 2.145 . S
Co532 N588 2.257 . S
O533 Co531 2.143 . S
O533 Co532 2.160 . S
C534 O535 1.278 . S
C534 O542 1.224 . S
O535 C534 1.278 . S
C536 O537 1.245 . S
C536 O548 1.232 . S
O537 C536 1.245 . S
O538 Co532 2.058 . S
O538 C564 1.269 . S
O539 Co531 2.074 . S
O539 C564 1.257 . S
H540 C565 0.930 . S
H541 C571 0.930 . S
O542 Co531 2.093 . S
O542 C534 1.224 . S
H543 C575 0.929 . S
H544 C577 0.930 . S
H545 C578 0.930 . S
H546 C576 0.929 . S
H547 C579 0.928 . S
O548 Co532 2.057 . S
O548 C536 1.232 . S
H549 C568 0.929 . S
H550 C569 0.929 . S
H551 C581 0.931 1_545 S
H552 C573 0.929 . S
H553 C582 0.930 1_545 S
H554 C574 0.931 . S
O555 Co531 2.097 . S
O555 C583 1.214 . S
H556 C584 0.929 . S
H557 C585 0.929 . S
H558 C586 0.930 . S
H559 C587 0.929 . S
H560 C589 0.930 . S
H561 C566 0.930 . S
H562 C570 0.930 . S
O563 Co532 2.037 . S
O563 C583 1.234 . S
C564 O538 1.269 . S
C564 O539 1.257 . S
C565 H540 0.930 . S
C565 C568 1.388 . S
C565 C570 1.418 . S
C566 H561 0.930 . S
C566 C569 1.404 . S
C566 C570 1.353 . S
N567 Co532 2.145 . S
N567 C568 1.397 . S
N567 C569 1.334 . S
C568 H549 0.929 . S
C568 C565 1.388 . S
C568 N567 1.397 . S
C569 H550 0.929 . S
C569 C566 1.404 . S
C569 N567 1.334 . S
C570 H562 0.930 . S
C570 C565 1.418 . S
C570 C566 1.353 . S
C571 H541 0.930 . S
C571 N572 1.330 . S
C571 C573 1.446 . S
N572 Co531 2.151 . S
N572 C571 1.330 . S
N572 C576 1.418 . S
C573 H552 0.929 . S
C573 C571 1.446 . S
C573 C574 1.332 . S
C574 H554 0.931 . S
C574 C573 1.332 . S
C574 C575 1.267 . S
C575 H543 0.929 . S
C575 C574 1.267 . S
C575 C576 1.251 . S
C576 H546 0.929 . S
C576 N572 1.418 . S
C576 C575 1.251 . S
C577 H544 0.930 . S
C577 C579 1.406 . S
C577 C582 1.261 . S
C578 H545 0.930 . S
C578 N580 1.325 . S
C578 C581 1.357 . S
C579 H547 0.928 . S
C579 C577 1.406 . S
C579 N580 1.261 . S
N580 Co531 2.214 . S
N580 C578 1.325 . S
N580 C579 1.261 . S
C581 H551 0.931 1_565 S
C581 C578 1.357 . S
C581 C582 1.312 . S
C582 H553 0.930 1_565 S
C582 C577 1.261 . S
C582 C581 1.312 . S
C583 O555 1.214 . S
C583 O563 1.234 . S
C584 H556 0.929 . S
C584 C587 1.391 . S
C584 C589 1.391 . S
C585 H557 0.929 . S
C585 C586 1.390 . S
C585 N588 1.391 . S
C586 H558 0.930 . S
C586 C585 1.390 . S
C586 C587 1.392 . S
C587 H559 0.929 . S
C587 C584 1.391 . S
C587 C586 1.392 . S
N588 Co532 2.257 . S
N588 C585 1.391 . S
N588 C589 1.388 . S
C589 H560 0.930 . S
C589 C584 1.391 . S
C589 N588 1.388 . S
Co590 O592 2.143 . S
Co590 O598 2.074 . S
Co590 O601 2.093 1_545 S
Co590 O614 2.097 1_545 S
Co590 N631 2.151 . S
Co590 N639 2.214 1_545 S
Co591 O592 2.160 . S
Co591 O597 2.058 . S
Co591 O607 2.057 . S
Co591 O622 2.037 1_545 S
Co591 N626 2.145 . S
Co591 N647 2.257 1_545 S
O592 Co590 2.143 . S
O592 Co591 2.160 . S
C593 O594 1.278 . S
C593 O601 1.224 . S
O594 C593 1.278 . S
C595 O596 1.245 . S
C595 O607 1.232 . S
O596 C595 1.245 . S
O597 Co591 2.058 . S
O597 C623 1.269 . S
O598 Co590 2.074 . S
O598 C623 1.257 . S
H599 C624 0.930 . S
H600 C630 0.930 . S
O601 Co590 2.093 1_565 S
O601 C593 1.224 . S
H602 C634 0.929 . S
H603 C636 0.930 . S
H604 C637 0.930 . S
H605 C635 0.929 . S
H606 C638 0.928 . S
O607 Co591 2.057 . S
O607 C595 1.232 . S
H608 C627 0.929 . S
H609 C628 0.929 . S
H610 C640 0.931 1_655 S
H611 C632 0.929 . S
H612 C641 0.930 1_655 S
H613 C633 0.931 . S
O614 Co590 2.097 1_565 S
O614 C642 1.214 . S
H615 C643 0.929 . S
H616 C644 0.929 . S
H617 C645 0.930 . S
H618 C646 0.929 . S
H619 C648 0.930 1_545 S
H620 C625 0.930 . S
H621 C629 0.930 . S
O622 Co591 2.037 1_565 S
O622 C642 1.234 . S
C623 O597 1.269 . S
C623 O598 1.257 . S
C624 H599 0.930 . S
C624 C627 1.388 . S
C624 C629 1.418 . S
C625 H620 0.930 . S
C625 C628 1.404 . S
C625 C629 1.353 1_545 S
N626 Co591 2.145 . S
N626 C627 1.397 1_545 S
N626 C628 1.334 . S
C627 H608 0.929 . S
C627 C624 1.388 . S
C627 N626 1.397 1_565 S
C628 H609 0.929 . S
C628 C625 1.404 . S
C628 N626 1.334 . S
C629 H621 0.930 . S
C629 C624 1.418 . S
C629 C625 1.353 1_565 S
C630 H600 0.930 . S
C630 N631 1.330 . S
C630 C632 1.446 . S
N631 Co590 2.151 . S
N631 C630 1.330 . S
N631 C635 1.418 . S
C632 H611 0.929 . S
C632 C630 1.446 . S
C632 C633 1.332 . S
C633 H613 0.931 . S
C633 C632 1.332 . S
C633 C634 1.267 . S
C634 H602 0.929 . S
C634 C633 1.267 . S
C634 C635 1.251 . S
C635 H605 0.929 . S
C635 N631 1.418 . S
C635 C634 1.251 . S
C636 H603 0.930 . S
C636 C638 1.406 1_565 S
C636 C641 1.261 . S
C637 H604 0.930 . S
C637 N639 1.325 . S
C637 C640 1.357 . S
C638 H606 0.928 . S
C638 C636 1.406 1_545 S
C638 N639 1.261 1_545 S
N639 Co590 2.214 1_565 S
N639 C637 1.325 . S
N639 C638 1.261 1_565 S
C640 H610 0.931 1_455 S
C640 C637 1.357 . S
C640 C641 1.312 . S
C641 H612 0.930 1_455 S
C641 C636 1.261 . S
C641 C640 1.312 . S
C642 O614 1.214 . S
C642 O622 1.234 . S
C643 H615 0.929 . S
C643 C646 1.391 . S
C643 C648 1.391 . S
C644 H616 0.929 . S
C644 C645 1.390 . S
C644 N647 1.391 . S
C645 H617 0.930 . S
C645 C644 1.390 . S
C645 C646 1.392 . S
C646 H618 0.929 . S
C646 C643 1.391 . S
C646 C645 1.392 . S
N647 Co591 2.257 1_565 S
N647 C644 1.391 . S
N647 C648 1.388 . S
C648 H619 0.930 1_565 S
C648 C643 1.391 . S
C648 N647 1.388 . S
Co649 O651 2.143 . S
Co649 O657 2.074 . S
Co649 O660 2.093 1_655 S
Co649 O673 2.097 1_655 S
Co649 N690 2.151 . S
Co649 N698 2.214 1_655 S
Co650 O651 2.160 . S
Co650 O656 2.058 . S
Co650 O666 2.057 . S
Co650 O681 2.037 1_655 S
Co650 N685 2.145 . S
Co650 N706 2.257 1_655 S
O651 Co649 2.143 . S
O651 Co650 2.160 . S
C652 O653 1.278 . S
C652 O660 1.224 . S
O653 C652 1.278 . S
C654 O655 1.245 . S
C654 O666 1.232 . S
O655 C654 1.245 . S
O656 Co650 2.058 . S
O656 C682 1.269 . S
O657 Co649 2.074 . S
O657 C682 1.257 . S
H658 C683 0.930 . S
H659 C689 0.930 . S
O660 Co649 2.093 1_455 S
O660 C652 1.224 . S
H661 C693 0.929 . S
H662 C695 0.930 . S
H663 C696 0.930 . S
H664 C694 0.929 . S
H665 C697 0.928 . S
O666 Co650 2.057 . S
O666 C654 1.232 . S
H667 C686 0.929 . S
H668 C687 0.929 . S
H669 C699 0.931 . S
H670 C691 0.929 . S
H671 C700 0.930 . S
H672 C692 0.931 . S
O673 Co649 2.097 1_455 S
O673 C701 1.214 . S
H674 C702 0.929 . S
H675 C703 0.929 . S
H676 C704 0.930 . S
H677 C705 0.929 . S
H678 C707 0.930 1_655 S
H679 C684 0.930 . S
H680 C688 0.930 . S
O681 Co650 2.037 1_455 S
O681 C701 1.234 . S
C682 O656 1.269 . S
C682 O657 1.257 . S
C683 H658 0.930 . S
C683 C686 1.388 . S
C683 C688 1.418 . S
C684 H679 0.930 . S
C684 C687 1.404 . S
C684 C688 1.353 1_655 S
N685 Co650 2.145 . S
N685 C686 1.397 1_655 S
N685 C687 1.334 . S
C686 H667 0.929 . S
C686 C683 1.388 . S
C686 N685 1.397 1_455 S
C687 H668 0.929 . S
C687 C684 1.404 . S
C687 N685 1.334 . S
C688 H680 0.930 . S
C688 C683 1.418 . S
C688 C684 1.353 1_455 S
C689 H659 0.930 . S
C689 N690 1.330 . S
C689 C691 1.446 . S
N690 Co649 2.151 . S
N690 C689 1.330 . S
N690 C694 1.418 . S
C691 H670 0.929 . S
C691 C689 1.446 . S
C691 C692 1.332 . S
C692 H672 0.931 . S
C692 C691 1.332 . S
C692 C693 1.267 . S
C693 H661 0.929 . S
C693 C692 1.267 . S
C693 C694 1.251 . S
C694 H664 0.929 . S
C694 N690 1.418 . S
C694 C693 1.251 . S
C695 H662 0.930 . S
C695 C697 1.406 1_455 S
C695 C700 1.261 . S
C696 H663 0.930 . S
C696 N698 1.325 . S
C696 C699 1.357 . S
C697 H665 0.928 . S
C697 C695 1.406 1_655 S
C697 N698 1.261 1_655 S
N698 Co649 2.214 1_455 S
N698 C696 1.325 . S
N698 C697 1.261 1_455 S
C699 H669 0.931 . S
C699 C696 1.357 . S
C699 C700 1.312 . S
C700 H671 0.930 . S
C700 C695 1.261 . S
C700 C699 1.312 . S
C701 O673 1.214 . S
C701 O681 1.234 . S
C702 H674 0.929 . S
C702 C705 1.391 . S
C702 C707 1.391 . S
C703 H675 0.929 . S
C703 C704 1.390 . S
C703 N706 1.391 . S
C704 H676 0.930 . S
C704 C703 1.390 . S
C704 C705 1.392 . S
C705 H677 0.929 . S
C705 C702 1.391 . S
C705 C704 1.392 . S
N706 Co650 2.257 1_455 S
N706 C703 1.391 . S
N706 C707 1.388 . S
C707 H678 0.930 1_455 S
C707 C702 1.391 . S
C707 N706 1.388 . S
Co708 O710 2.143 . S
Co708 O716 2.074 . S
Co708 O719 2.093 . S
Co708 O732 2.097 . S
Co708 N749 2.151 . S
Co708 N757 2.214 . S
Co709 O710 2.160 . S
Co709 O715 2.058 . S
Co709 O725 2.057 . S
Co709 O740 2.037 . S
Co709 N744 2.145 . S
Co709 N765 2.257 . S
O710 Co708 2.143 . S
O710 Co709 2.160 . S
C711 O712 1.278 . S
C711 O719 1.224 . S
O712 C711 1.278 . S
C713 O714 1.245 . S
C713 O725 1.232 . S
O714 C713 1.245 . S
O715 Co709 2.058 . S
O715 C741 1.269 . S
O716 Co708 2.074 . S
O716 C741 1.257 . S
H717 C742 0.930 . S
H718 C748 0.930 . S
O719 Co708 2.093 . S
O719 C711 1.224 . S
H720 C752 0.929 . S
H721 C754 0.930 . S
H722 C755 0.930 . S
H723 C753 0.929 . S
H724 C756 0.928 . S
O725 Co709 2.057 . S
O725 C713 1.232 . S
H726 C745 0.929 . S
H727 C746 0.929 . S
H728 C758 0.931 . S
H729 C750 0.929 . S
H730 C759 0.930 . S
H731 C751 0.931 . S
O732 Co708 2.097 . S
O732 C760 1.214 . S
H733 C761 0.929 . S
H734 C762 0.929 . S
H735 C763 0.930 . S
H736 C764 0.929 . S
H737 C766 0.930 . S
H738 C743 0.930 . S
H739 C747 0.930 . S
O740 Co709 2.037 . S
O740 C760 1.234 . S
C741 O715 1.269 . S
C741 O716 1.257 . S
C742 H717 0.930 . S
C742 C745 1.388 . S
C742 C747 1.418 . S
C743 H738 0.930 . S
C743 C746 1.404 . S
C743 C747 1.353 . S
N744 Co709 2.145 . S
N744 C745 1.397 . S
N744 C746 1.334 . S
C745 H726 0.929 . S
C745 C742 1.388 . S
C745 N744 1.397 . S
C746 H727 0.929 . S
C746 C743 1.404 . S
C746 N744 1.334 . S
C747 H739 0.930 . S
C747 C742 1.418 . S
C747 C743 1.353 . S
C748 H718 0.930 . S
C748 N749 1.330 . S
C748 C750 1.446 . S
N749 Co708 2.151 . S
N749 C748 1.330 . S
N749 C753 1.418 . S
C750 H729 0.929 . S
C750 C748 1.446 . S
C750 C751 1.332 . S
C751 H731 0.931 . S
C751 C750 1.332 . S
C751 C752 1.267 . S
C752 H720 0.929 . S
C752 C751 1.267 . S
C752 C753 1.251 . S
C753 H723 0.929 . S
C753 N749 1.418 . S
C753 C752 1.251 . S
C754 H721 0.930 . S
C754 C756 1.406 . S
C754 C759 1.261 . S
C755 H722 0.930 . S
C755 N757 1.325 . S
C755 C758 1.357 . S
C756 H724 0.928 . S
C756 C754 1.406 . S
C756 N757 1.261 . S
N757 Co708 2.214 . S
N757 C755 1.325 . S
N757 C756 1.261 . S
C758 H728 0.931 . S
C758 C755 1.357 . S
C758 C759 1.312 . S
C759 H730 0.930 . S
C759 C754 1.261 . S
C759 C758 1.312 . S
C760 O732 1.214 . S
C760 O740 1.234 . S
C761 H733 0.929 . S
C761 C764 1.391 . S
C761 C766 1.391 . S
C762 H734 0.929 . S
C762 C763 1.390 . S
C762 N765 1.391 . S
C763 H735 0.930 . S
C763 C762 1.390 . S
C763 C764 1.392 . S
C764 H736 0.929 . S
C764 C761 1.391 . S
C764 C763 1.392 . S
N765 Co709 2.257 . S
N765 C762 1.391 . S
N765 C766 1.388 . S
C766 H737 0.930 . S
C766 C761 1.391 . S
C766 N765 1.388 . S
Co767 O769 2.143 . S
Co767 O775 2.074 . S
Co767 O778 2.093 . S
Co767 O791 2.097 . S
Co767 N808 2.151 . S
Co767 N816 2.214 . S
Co768 O769 2.160 . S
Co768 O774 2.058 . S
Co768 O784 2.057 . S
Co768 O799 2.037 . S
Co768 N803 2.145 . S
Co768 N824 2.257 . S
O769 Co767 2.143 . S
O769 Co768 2.160 . S
C770 O771 1.278 . S
C770 O778 1.224 . S
O771 C770 1.278 . S
C772 O773 1.245 . S
C772 O784 1.232 . S
O773 C772 1.245 . S
O774 Co768 2.058 . S
O774 C800 1.269 . S
O775 Co767 2.074 . S
O775 C800 1.257 . S
H776 C801 0.930 . S
H777 C807 0.930 . S
O778 Co767 2.093 . S
O778 C770 1.224 . S
H779 C811 0.929 . S
H780 C813 0.930 . S
H781 C814 0.930 . S
H782 C812 0.929 . S
H783 C815 0.928 . S
O784 Co768 2.057 . S
O784 C772 1.232 . S
H785 C804 0.929 . S
H786 C805 0.929 . S
H787 C817 0.931 . S
H788 C809 0.929 . S
H789 C818 0.930 . S
H790 C810 0.931 . S
O791 Co767 2.097 . S
O791 C819 1.214 . S
H792 C820 0.929 . S
H793 C821 0.929 . S
H794 C822 0.930 . S
H795 C823 0.929 . S
H796 C825 0.930 . S
H797 C802 0.930 . S
H798 C806 0.930 . S
O799 Co768 2.037 . S
O799 C819 1.234 . S
C800 O774 1.269 . S
C800 O775 1.257 . S
C801 H776 0.930 . S
C801 C804 1.388 . S
C801 C806 1.418 . S
C802 H797 0.930 . S
C802 C805 1.404 . S
C802 C806 1.353 . S
N803 Co768 2.145 . S
N803 C804 1.397 . S
N803 C805 1.334 . S
C804 H785 0.929 . S
C804 C801 1.388 . S
C804 N803 1.397 . S
C805 H786 0.929 . S
C805 C802 1.404 . S
C805 N803 1.334 . S
C806 H798 0.930 . S
C806 C801 1.418 . S
C806 C802 1.353 . S
C807 H777 0.930 . S
C807 N808 1.330 . S
C807 C809 1.446 . S
N808 Co767 2.151 . S
N808 C807 1.330 . S
N808 C812 1.418 . S
C809 H788 0.929 . S
C809 C807 1.446 . S
C809 C810 1.332 . S
C810 H790 0.931 . S
C810 C809 1.332 . S
C810 C811 1.267 . S
C811 H779 0.929 . S
C811 C810 1.267 . S
C811 C812 1.251 . S
C812 H782 0.929 . S
C812 N808 1.418 . S
C812 C811 1.251 . S
C813 H780 0.930 . S
C813 C815 1.406 . S
C813 C818 1.261 . S
C814 H781 0.930 . S
C814 N816 1.325 . S
C814 C817 1.357 . S
C815 H783 0.928 . S
C815 C813 1.406 . S
C815 N816 1.261 . S
N816 Co767 2.214 . S
N816 C814 1.325 . S
N816 C815 1.261 . S
C817 H787 0.931 . S
C817 C814 1.357 . S
C817 C818 1.312 . S
C818 H789 0.930 . S
C818 C813 1.261 . S
C818 C817 1.312 . S
C819 O791 1.214 . S
C819 O799 1.234 . S
C820 H792 0.929 . S
C820 C823 1.391 . S
C820 C825 1.391 . S
C821 H793 0.929 . S
C821 C822 1.390 . S
C821 N824 1.391 . S
C822 H794 0.930 . S
C822 C821 1.390 . S
C822 C823 1.392 . S
C823 H795 0.929 . S
C823 C820 1.391 . S
C823 C822 1.392 . S
N824 Co768 2.257 . S
N824 C821 1.391 . S
N824 C825 1.388 . S
C825 H796 0.930 . S
C825 C820 1.391 . S
C825 N824 1.388 . S
Co826 O828 2.143 . S
Co826 O834 2.074 . S
Co826 O837 2.093 . S
Co826 O850 2.097 . S
Co826 N867 2.151 . S
Co826 N875 2.214 . S
Co827 O828 2.160 . S
Co827 O833 2.058 . S
Co827 O843 2.057 . S
Co827 O858 2.037 . S
Co827 N862 2.145 . S
Co827 N883 2.257 . S
O828 Co826 2.143 . S
O828 Co827 2.160 . S
C829 O830 1.278 . S
C829 O837 1.224 . S
O830 C829 1.278 . S
C831 O832 1.245 . S
C831 O843 1.232 . S
O832 C831 1.245 . S
O833 Co827 2.058 . S
O833 C859 1.269 . S
O834 Co826 2.074 . S
O834 C859 1.257 . S
H835 C860 0.930 . S
H836 C866 0.930 . S
O837 Co826 2.093 . S
O837 C829 1.224 . S
H838 C870 0.929 . S
H839 C872 0.930 . S
H840 C873 0.930 . S
H841 C871 0.929 . S
H842 C874 0.928 . S
O843 Co827 2.057 . S
O843 C831 1.232 . S
H844 C863 0.929 . S
H845 C864 0.929 . S
H846 C876 0.931 . S
H847 C868 0.929 . S
H848 C877 0.930 . S
H849 C869 0.931 . S
O850 Co826 2.097 . S
O850 C878 1.214 . S
H851 C879 0.929 . S
H852 C880 0.929 . S
H853 C881 0.930 . S
H854 C882 0.929 . S
H855 C884 0.930 . S
H856 C861 0.930 . S
H857 C865 0.930 . S
O858 Co827 2.037 . S
O858 C878 1.234 . S
C859 O833 1.269 . S
C859 O834 1.257 . S
C860 H835 0.930 . S
C860 C863 1.388 . S
C860 C865 1.418 . S
C861 H856 0.930 . S
C861 C864 1.404 . S
C861 C865 1.353 . S
N862 Co827 2.145 . S
N862 C863 1.397 . S
N862 C864 1.334 . S
C863 H844 0.929 . S
C863 C860 1.388 . S
C863 N862 1.397 . S
C864 H845 0.929 . S
C864 C861 1.404 . S
C864 N862 1.334 . S
C865 H857 0.930 . S
C865 C860 1.418 . S
C865 C861 1.353 . S
C866 H836 0.930 . S
C866 N867 1.330 . S
C866 C868 1.446 . S
N867 Co826 2.151 . S
N867 C866 1.330 . S
N867 C871 1.418 . S
C868 H847 0.929 . S
C868 C866 1.446 . S
C868 C869 1.332 . S
C869 H849 0.931 . S
C869 C868 1.332 . S
C869 C870 1.267 . S
C870 H838 0.929 . S
C870 C869 1.267 . S
C870 C871 1.251 . S
C871 H841 0.929 . S
C871 N867 1.418 . S
C871 C870 1.251 . S
C872 H839 0.930 . S
C872 C874 1.406 . S
C872 C877 1.261 . S
C873 H840 0.930 . S
C873 N875 1.325 . S
C873 C876 1.357 . S
C874 H842 0.928 . S
C874 C872 1.406 . S
C874 N875 1.261 . S
N875 Co826 2.214 . S
N875 C873 1.325 . S
N875 C874 1.261 . S
C876 H846 0.931 . S
C876 C873 1.357 . S
C876 C877 1.312 . S
C877 H848 0.930 . S
C877 C872 1.261 . S
C877 C876 1.312 . S
C878 O850 1.214 . S
C878 O858 1.234 . S
C879 H851 0.929 . S
C879 C882 1.391 . S
C879 C884 1.391 . S
C880 H852 0.929 . S
C880 C881 1.390 . S
C880 N883 1.391 . S
C881 H853 0.930 . S
C881 C880 1.390 . S
C881 C882 1.392 . S
C882 H854 0.929 . S
C882 C879 1.391 . S
C882 C881 1.392 . S
N883 Co827 2.257 . S
N883 C880 1.391 . S
N883 C884 1.388 . S
C884 H855 0.930 . S
C884 C879 1.391 . S
C884 N883 1.388 . S
Co885 O887 2.143 . S
Co885 O893 2.074 . S
Co885 O896 2.093 . S
Co885 O909 2.097 . S
Co885 N926 2.151 . S
Co885 N934 2.214 . S
Co886 O887 2.160 . S
Co886 O892 2.058 . S
Co886 O902 2.057 . S
Co886 O917 2.037 . S
Co886 N921 2.145 . S
Co886 N942 2.257 . S
O887 Co885 2.143 . S
O887 Co886 2.160 . S
C888 O889 1.278 . S
C888 O896 1.224 . S
O889 C888 1.278 . S
C890 O891 1.245 . S
C890 O902 1.232 . S
O891 C890 1.245 . S
O892 Co886 2.058 . S
O892 C918 1.269 . S
O893 Co885 2.074 . S
O893 C918 1.257 . S
H894 C919 0.930 . S
H895 C925 0.930 . S
O896 Co885 2.093 . S
O896 C888 1.224 . S
H897 C929 0.929 . S
H898 C931 0.930 . S
H899 C932 0.930 . S
H900 C930 0.929 . S
H901 C933 0.928 . S
O902 Co886 2.057 . S
O902 C890 1.232 . S
H903 C922 0.929 . S
H904 C923 0.929 . S
H905 C935 0.931 . S
H906 C927 0.929 . S
H907 C936 0.930 . S
H908 C928 0.931 . S
O909 Co885 2.097 . S
O909 C937 1.214 . S
H910 C938 0.929 . S
H911 C939 0.929 . S
H912 C940 0.930 . S
H913 C941 0.929 1_455 S
H914 C943 0.930 . S
H915 C920 0.930 . S
H916 C924 0.930 . S
O917 Co886 2.037 . S
O917 C937 1.234 . S
C918 O892 1.269 . S
C918 O893 1.257 . S
C919 H894 0.930 . S
C919 C922 1.388 . S
C919 C924 1.418 . S
C920 H915 0.930 . S
C920 C923 1.404 . S
C920 C924 1.353 . S
N921 Co886 2.145 . S
N921 C922 1.397 . S
N921 C923 1.334 . S
C922 H903 0.929 . S
C922 C919 1.388 . S
C922 N921 1.397 . S
C923 H904 0.929 . S
C923 C920 1.404 . S
C923 N921 1.334 . S
C924 H916 0.930 . S
C924 C919 1.418 . S
C924 C920 1.353 . S
C925 H895 0.930 . S
C925 N926 1.330 . S
C925 C927 1.446 . S
N926 Co885 2.151 . S
N926 C925 1.330 . S
N926 C930 1.418 . S
C927 H906 0.929 . S
C927 C925 1.446 . S
C927 C928 1.332 . S
C928 H908 0.931 . S
C928 C927 1.332 . S
C928 C929 1.267 . S
C929 H897 0.929 . S
C929 C928 1.267 . S
C929 C930 1.251 . S
C930 H900 0.929 . S
C930 N926 1.418 . S
C930 C929 1.251 . S
C931 H898 0.930 . S
C931 C933 1.406 . S
C931 C936 1.261 . S
C932 H899 0.930 . S
C932 N934 1.325 . S
C932 C935 1.357 . S
C933 H901 0.928 . S
C933 C931 1.406 . S
C933 N934 1.261 . S
N934 Co885 2.214 . S
N934 C932 1.325 . S
N934 C933 1.261 . S
C935 H905 0.931 . S
C935 C932 1.357 . S
C935 C936 1.312 . S
C936 H907 0.930 . S
C936 C931 1.261 . S
C936 C935 1.312 . S
C937 O909 1.214 . S
C937 O917 1.234 . S
C938 H910 0.929 . S
C938 C941 1.391 . S
C938 C943 1.391 . S
C939 H911 0.929 . S
C939 C940 1.390 . S
C939 N942 1.391 . S
C940 H912 0.930 . S
C940 C939 1.390 . S
C940 C941 1.392 . S
C941 H913 0.929 1_655 S
C941 C938 1.391 . S
C941 C940 1.392 . S
N942 Co886 2.257 . S
N942 C939 1.391 . S
N942 C943 1.388 . S
C943 H914 0.930 . S
C943 C938 1.391 . S
C943 N942 1.388 . S
Co944 O946 2.143 . S
Co944 O952 2.074 . S
Co944 O955 2.093 . S
Co944 O968 2.097 . S
Co944 N985 2.151 . S
Co944 N993 2.214 . S
Co945 O946 2.160 . S
Co945 O951 2.058 . S
Co945 O961 2.057 . S
Co945 O976 2.037 . S
Co945 N980 2.145 . S
Co945 N1001 2.257 . S
O946 Co944 2.143 . S
O946 Co945 2.160 . S
C947 O948 1.278 . S
C947 O955 1.224 . S
O948 C947 1.278 . S
C949 O950 1.245 . S
C949 O961 1.232 . S
O950 C949 1.245 . S
O951 Co945 2.058 . S
O951 C977 1.269 . S
O952 Co944 2.074 . S
O952 C977 1.257 . S
H953 C978 0.930 . S
H954 C984 0.930 . S
O955 Co944 2.093 . S
O955 C947 1.224 . S
H956 C988 0.929 . S
H957 C990 0.930 . S
H958 C991 0.930 . S
H959 C989 0.929 . S
H960 C992 0.928 . S
O961 Co945 2.057 . S
O961 C949 1.232 . S
H962 C981 0.929 . S
H963 C982 0.929 . S
H964 C994 0.931 . S
H965 C986 0.929 . S
H966 C995 0.930 . S
H967 C987 0.931 . S
O968 Co944 2.097 . S
O968 C996 1.214 . S
H969 C997 0.929 . S
H970 C998 0.929 . S
H971 C999 0.930 . S
H972 C1000 0.929 . S
H973 C1002 0.930 . S
H974 C979 0.930 . S
H975 C983 0.930 . S
O976 Co945 2.037 . S
O976 C996 1.234 . S
C977 O951 1.269 . S
C977 O952 1.257 . S
C978 H953 0.930 . S
C978 C981 1.388 . S
C978 C983 1.418 . S
C979 H974 0.930 . S
C979 C982 1.404 . S
C979 C983 1.353 . S
N980 Co945 2.145 . S
N980 C981 1.397 . S
N980 C982 1.334 . S
C981 H962 0.929 . S
C981 C978 1.388 . S
C981 N980 1.397 . S
C982 H963 0.929 . S
C982 C979 1.404 . S
C982 N980 1.334 . S
C983 H975 0.930 . S
C983 C978 1.418 . S
C983 C979 1.353 . S
C984 H954 0.930 . S
C984 N985 1.330 . S
C984 C986 1.446 . S
N985 Co944 2.151 . S
N985 C984 1.330 . S
N985 C989 1.418 . S
C986 H965 0.929 . S
C986 C984 1.446 . S
C986 C987 1.332 . S
C987 H967 0.931 . S
C987 C986 1.332 . S
C987 C988 1.267 . S
C988 H956 0.929 . S
C988 C987 1.267 . S
C988 C989 1.251 . S
C989 H959 0.929 . S
C989 N985 1.418 . S
C989 C988 1.251 . S
C990 H957 0.930 . S
C990 C992 1.406 . S
C990 C995 1.261 . S
C991 H958 0.930 . S
C991 N993 1.325 . S
C991 C994 1.357 . S
C992 H960 0.928 . S
C992 C990 1.406 . S
C992 N993 1.261 . S
N993 Co944 2.214 . S
N993 C991 1.325 . S
N993 C992 1.261 . S
C994 H964 0.931 . S
C994 C991 1.357 . S
C994 C995 1.312 . S
C995 H966 0.930 . S
C995 C990 1.261 . S
C995 C994 1.312 . S
C996 O968 1.214 . S
C996 O976 1.234 . S
C997 H969 0.929 . S
C997 C1000 1.391 . S
C997 C1002 1.391 . S
C998 H970 0.929 . S
C998 C999 1.390 . S
C998 N1001 1.391 . S
C999 H971 0.930 . S
C999 C998 1.390 . S
C999 C1000 1.392 . S
C1000 H972 0.929 . S
C1000 C997 1.391 . S
C1000 C999 1.392 . S
N1001 Co945 2.257 . S
N1001 C998 1.391 . S
N1001 C1002 1.388 . S
C1002 H973 0.930 . S
C1002 C997 1.391 . S
C1002 N1001 1.388 . S
Co1003 O1005 2.143 . S
Co1003 O1011 2.074 . S
Co1003 O1014 2.093 . S
Co1003 O1027 2.097 . S
Co1003 N1044 2.151 . S
Co1003 N1052 2.214 . S
Co1004 O1005 2.160 . S
Co1004 O1010 2.058 . S
Co1004 O1020 2.057 . S
Co1004 O1035 2.037 . S
Co1004 N1039 2.145 . S
Co1004 N1060 2.257 . S
O1005 Co1003 2.143 . S
O1005 Co1004 2.160 . S
C1006 O1007 1.278 . S
C1006 O1014 1.224 . S
O1007 C1006 1.278 . S
C1008 O1009 1.245 . S
C1008 O1020 1.232 . S
O1009 C1008 1.245 . S
O1010 Co1004 2.058 . S
O1010 C1036 1.269 . S
O1011 Co1003 2.074 . S
O1011 C1036 1.257 . S
H1012 C1037 0.930 . S
H1013 C1043 0.930 . S
O1014 Co1003 2.093 . S
O1014 C1006 1.224 . S
H1015 C1047 0.929 . S
H1016 C1049 0.930 . S
H1017 C1050 0.930 . S
H1018 C1048 0.929 . S
H1019 C1051 0.928 . S
O1020 Co1004 2.057 . S
O1020 C1008 1.232 . S
H1021 C1040 0.929 . S
H1022 C1041 0.929 . S
H1023 C1053 0.931 . S
H1024 C1045 0.929 . S
H1025 C1054 0.930 . S
H1026 C1046 0.931 . S
O1027 Co1003 2.097 . S
O1027 C1055 1.214 . S
H1028 C1056 0.929 . S
H1029 C1057 0.929 . S
H1030 C1058 0.930 . S
H1031 C1059 0.929 . S
H1032 C1061 0.930 . S
H1033 C1038 0.930 . S
H1034 C1042 0.930 . S
O1035 Co1004 2.037 . S
O1035 C1055 1.234 . S
C1036 O1010 1.269 . S
C1036 O1011 1.257 . S
C1037 H1012 0.930 . S
C1037 C1040 1.388 . S
C1037 C1042 1.418 . S
C1038 H1033 0.930 . S
C1038 C1041 1.404 . S
C1038 C1042 1.353 . S
N1039 Co1004 2.145 . S
N1039 C1040 1.397 . S
N1039 C1041 1.334 . S
C1040 H1021 0.929 . S
C1040 C1037 1.388 . S
C1040 N1039 1.397 . S
C1041 H1022 0.929 . S
C1041 C1038 1.404 . S
C1041 N1039 1.334 . S
C1042 H1034 0.930 . S
C1042 C1037 1.418 . S
C1042 C1038 1.353 . S
C1043 H1013 0.930 . S
C1043 N1044 1.330 . S
C1043 C1045 1.446 . S
N1044 Co1003 2.151 . S
N1044 C1043 1.330 . S
N1044 C1048 1.418 . S
C1045 H1024 0.929 . S
C1045 C1043 1.446 . S
C1045 C1046 1.332 . S
C1046 H1026 0.931 . S
C1046 C1045 1.332 . S
C1046 C1047 1.267 . S
C1047 H1015 0.929 . S
C1047 C1046 1.267 . S
C1047 C1048 1.251 . S
C1048 H1018 0.929 . S
C1048 N1044 1.418 . S
C1048 C1047 1.251 . S
C1049 H1016 0.930 . S
C1049 C1051 1.406 . S
C1049 C1054 1.261 . S
C1050 H1017 0.930 . S
C1050 N1052 1.325 . S
C1050 C1053 1.357 . S
C1051 H1019 0.928 . S
C1051 C1049 1.406 . S
C1051 N1052 1.261 . S
N1052 Co1003 2.214 . S
N1052 C1050 1.325 . S
N1052 C1051 1.261 . S
C1053 H1023 0.931 . S
C1053 C1050 1.357 . S
C1053 C1054 1.312 . S
C1054 H1025 0.930 . S
C1054 C1049 1.261 . S
C1054 C1053 1.312 . S
C1055 O1027 1.214 . S
C1055 O1035 1.234 . S
C1056 H1028 0.929 . S
C1056 C1059 1.391 . S
C1056 C1061 1.391 . S
C1057 H1029 0.929 . S
C1057 C1058 1.390 . S
C1057 N1060 1.391 . S
C1058 H1030 0.930 . S
C1058 C1057 1.390 . S
C1058 C1059 1.392 . S
C1059 H1031 0.929 . S
C1059 C1056 1.391 . S
C1059 C1058 1.392 . S
N1060 Co1004 2.257 . S
N1060 C1057 1.391 . S
N1060 C1061 1.388 . S
C1061 H1032 0.930 . S
C1061 C1056 1.391 . S
C1061 N1060 1.388 . S
Co1062 O1064 2.143 . S
Co1062 O1070 2.074 . S
Co1062 O1073 2.093 . S
Co1062 O1086 2.097 . S
Co1062 N1103 2.151 . S
Co1062 N1111 2.214 . S
Co1063 O1064 2.160 . S
Co1063 O1069 2.058 . S
Co1063 O1079 2.057 . S
Co1063 O1094 2.037 . S
Co1063 N1098 2.145 . S
Co1063 N1119 2.257 . S
O1064 Co1062 2.143 . S
O1064 Co1063 2.160 . S
C1065 O1066 1.278 . S
C1065 O1073 1.224 . S
O1066 C1065 1.278 . S
C1067 O1068 1.245 . S
C1067 O1079 1.232 . S
O1068 C1067 1.245 . S
O1069 Co1063 2.058 . S
O1069 C1095 1.269 . S
O1070 Co1062 2.074 . S
O1070 C1095 1.257 . S
H1071 C1096 0.930 . S
H1072 C1102 0.930 . S
O1073 Co1062 2.093 . S
O1073 C1065 1.224 . S
H1074 C1106 0.929 . S
H1075 C1108 0.930 . S
H1076 C1109 0.930 . S
H1077 C1107 0.929 . S
H1078 C1110 0.928 . S
O1079 Co1063 2.057 . S
O1079 C1067 1.232 . S
H1080 C1099 0.929 . S
H1081 C1100 0.929 . S
H1082 C1112 0.931 . S
H1083 C1104 0.929 . S
H1084 C1113 0.930 . S
H1085 C1105 0.931 . S
O1086 Co1062 2.097 . S
O1086 C1114 1.214 . S
H1087 C1115 0.929 . S
H1088 C1116 0.929 . S
H1089 C1117 0.930 . S
H1090 C1118 0.897 1_565 S
H1091 C1120 0.930 . S
H1092 C1097 0.930 . S
H1093 C1101 0.930 . S
O1094 Co1063 2.037 . S
O1094 C1114 1.234 . S
C1095 O1069 1.269 . S
C1095 O1070 1.257 . S
C1096 H1071 0.930 . S
C1096 C1099 1.388 . S
C1096 C1101 1.418 . S
C1097 H1092 0.930 . S
C1097 C1100 1.404 . S
C1097 C1101 1.353 . S
N1098 Co1063 2.145 . S
N1098 C1099 1.397 . S
N1098 C1100 1.334 . S
C1099 H1080 0.929 . S
C1099 C1096 1.388 . S
C1099 N1098 1.397 . S
C1100 H1081 0.929 . S
C1100 C1097 1.404 . S
C1100 N1098 1.334 . S
C1101 H1093 0.930 . S
C1101 C1096 1.418 . S
C1101 C1097 1.353 . S
C1102 H1072 0.930 . S
C1102 N1103 1.330 . S
C1102 C1104 1.446 . S
N1103 Co1062 2.151 . S
N1103 C1102 1.330 . S
N1103 C1107 1.418 . S
C1104 H1083 0.929 . S
C1104 C1102 1.446 . S
C1104 C1105 1.332 . S
C1105 H1085 0.931 . S
C1105 C1104 1.332 . S
C1105 C1106 1.267 . S
C1106 H1074 0.929 . S
C1106 C1105 1.267 . S
C1106 C1107 1.251 . S
C1107 H1077 0.929 . S
C1107 N1103 1.418 . S
C1107 C1106 1.251 . S
C1108 H1075 0.930 . S
C1108 C1110 1.406 . S
C1108 C1113 1.261 . S
C1109 H1076 0.930 . S
C1109 N1111 1.325 . S
C1109 C1112 1.357 . S
C1110 H1078 0.928 . S
C1110 C1108 1.406 . S
C1110 N1111 1.261 . S
N1111 Co1062 2.214 . S
N1111 C1109 1.325 . S
N1111 C1110 1.261 . S
C1112 H1082 0.931 . S
C1112 C1109 1.357 . S
C1112 C1113 1.312 . S
C1113 H1084 0.930 . S
C1113 C1108 1.261 . S
C1113 C1112 1.312 . S
C1114 O1086 1.214 . S
C1114 O1094 1.234 . S
C1115 H1087 0.929 . S
C1115 C1118 1.391 . S
C1115 C1120 1.391 . S
C1116 H1088 0.929 . S
C1116 C1117 1.390 . S
C1116 N1119 1.391 . S
C1117 H1089 0.930 . S
C1117 C1116 1.390 . S
C1117 C1118 1.392 . S
C1118 H1090 0.897 1_545 S
C1118 C1115 1.391 . S
C1118 C1117 1.392 . S
N1119 Co1063 2.257 . S
N1119 C1116 1.391 . S
N1119 C1120 1.388 . S
C1120 H1091 0.930 . S
C1120 C1115 1.391 . S
C1120 N1119 1.388 . S
Co1121 O1123 2.143 . S
Co1121 O1129 2.074 . S
Co1121 O1132 2.093 . S
Co1121 O1145 2.097 . S
Co1121 N1162 2.151 . S
Co1121 N1170 2.214 . S
Co1122 O1123 2.160 . S
Co1122 O1128 2.058 . S
Co1122 O1138 2.057 . S
Co1122 O1153 2.037 . S
Co1122 N1157 2.145 . S
Co1122 N1178 2.257 . S
O1123 Co1121 2.143 . S
O1123 Co1122 2.160 . S
C1124 O1125 1.278 . S
C1124 O1132 1.224 . S
O1125 C1124 1.278 . S
C1126 O1127 1.245 . S
C1126 O1138 1.232 . S
O1127 C1126 1.245 . S
O1128 Co1122 2.058 . S
O1128 C1154 1.269 . S
O1129 Co1121 2.074 . S
O1129 C1154 1.257 . S
H1130 C1155 0.930 . S
H1131 C1161 0.930 . S
O1132 Co1121 2.093 . S
O1132 C1124 1.224 . S
H1133 C1165 0.929 . S
H1134 C1167 0.930 . S
H1135 C1168 0.930 . S
H1136 C1166 0.929 . S
H1137 C1169 0.928 . S
O1138 Co1122 2.057 . S
O1138 C1126 1.232 . S
H1139 C1158 0.929 . S
H1140 C1159 0.929 . S
H1141 C1171 0.931 . S
H1142 C1163 0.929 . S
H1143 C1172 0.930 . S
H1144 C1164 0.931 . S
O1145 Co1121 2.097 . S
O1145 C1173 1.214 . S
H1146 C1174 0.929 . S
H1147 C1175 0.929 . S
H1148 C1176 0.930 . S
H1149 C1177 0.911 1_455 S
H1150 C1179 0.930 . S
H1151 C1156 0.930 . S
H1152 C1160 0.930 . S
O1153 Co1122 2.037 . S
O1153 C1173 1.234 . S
C1154 O1128 1.269 . S
C1154 O1129 1.257 . S
C1155 H1130 0.930 . S
C1155 C1158 1.388 . S
C1155 C1160 1.418 . S
C1156 H1151 0.930 . S
C1156 C1159 1.404 . S
C1156 C1160 1.353 . S
N1157 Co1122 2.145 . S
N1157 C1158 1.397 . S
N1157 C1159 1.334 . S
C1158 H1139 0.929 . S
C1158 C1155 1.388 . S
C1158 N1157 1.397 . S
C1159 H1140 0.929 . S
C1159 C1156 1.404 . S
C1159 N1157 1.334 . S
C1160 H1152 0.930 . S
C1160 C1155 1.418 . S
C1160 C1156 1.353 . S
C1161 H1131 0.930 . S
C1161 N1162 1.330 . S
C1161 C1163 1.446 . S
N1162 Co1121 2.151 . S
N1162 C1161 1.330 . S
N1162 C1166 1.418 . S
C1163 H1142 0.929 . S
C1163 C1161 1.446 . S
C1163 C1164 1.332 . S
C1164 H1144 0.931 . S
C1164 C1163 1.332 . S
C1164 C1165 1.267 . S
C1165 H1133 0.929 . S
C1165 C1164 1.267 . S
C1165 C1166 1.251 . S
C1166 H1136 0.929 . S
C1166 N1162 1.418 . S
C1166 C1165 1.251 . S
C1167 H1134 0.930 . S
C1167 C1169 1.406 . S
C1167 C1172 1.261 . S
C1168 H1135 0.930 . S
C1168 N1170 1.325 . S
C1168 C1171 1.357 . S
C1169 H1137 0.928 . S
C1169 C1167 1.406 . S
C1169 N1170 1.261 . S
N1170 Co1121 2.214 . S
N1170 C1168 1.325 . S
N1170 C1169 1.261 . S
C1171 H1141 0.931 . S
C1171 C1168 1.357 . S
C1171 C1172 1.312 . S
C1172 H1143 0.930 . S
C1172 C1167 1.261 . S
C1172 C1171 1.312 . S
C1173 O1145 1.214 . S
C1173 O1153 1.234 . S
C1174 H1146 0.929 . S
C1174 C1177 1.391 . S
C1174 C1179 1.391 . S
C1175 H1147 0.929 . S
C1175 C1176 1.390 . S
C1175 N1178 1.391 . S
C1176 H1148 0.930 . S
C1176 C1175 1.390 . S
C1176 C1177 1.392 . S
C1177 H1149 0.911 1_655 S
C1177 C1174 1.391 . S
C1177 C1176 1.392 . S
N1178 Co1122 2.257 . S
N1178 C1175 1.391 . S
N1178 C1179 1.388 . S
C1179 H1150 0.930 . S
C1179 C1174 1.391 . S
C1179 N1178 1.388 . S
Co1180 O1182 2.143 . S
Co1180 O1188 2.074 . S
Co1180 O1191 2.093 . S
Co1180 O1204 2.097 . S
Co1180 N1221 2.151 . S
Co1180 N1229 2.214 . S
Co1181 O1182 2.160 . S
Co1181 O1187 2.058 . S
Co1181 O1197 2.057 . S
Co1181 O1212 2.037 . S
Co1181 N1216 2.145 . S
Co1181 N1237 2.257 . S
O1182 Co1180 2.143 . S
O1182 Co1181 2.160 . S
C1183 O1184 1.278 . S
C1183 O1191 1.224 . S
O1184 C1183 1.278 . S
C1185 O1186 1.245 . S
C1185 O1197 1.232 . S
O1186 C1185 1.245 . S
O1187 Co1181 2.058 . S
O1187 C1213 1.269 . S
O1188 Co1180 2.074 . S
O1188 C1213 1.257 . S
H1189 C1214 0.930 . S
H1190 C1220 0.930 . S
O1191 Co1180 2.093 . S
O1191 C1183 1.224 . S
H1192 C1224 0.929 . S
H1193 C1226 0.930 . S
H1194 C1227 0.930 . S
H1195 C1225 0.929 . S
H1196 C1228 0.928 . S
O1197 Co1181 2.057 . S
O1197 C1185 1.232 . S
H1198 C1217 0.929 . S
H1199 C1218 0.929 . S
H1200 C1230 0.931 . S
H1201 C1222 0.929 . S
H1202 C1231 0.930 . S
H1203 C1223 0.931 . S
O1204 Co1180 2.097 . S
O1204 C1232 1.214 . S
H1205 C1233 0.929 . S
H1206 C1234 0.929 . S
H1207 C1235 0.930 . S
H1208 C1236 0.929 . S
H1209 C1238 0.930 . S
H1210 C1215 0.930 . S
H1211 C1219 0.930 . S
O1212 Co1181 2.037 . S
O1212 C1232 1.234 . S
C1213 O1187 1.269 . S
C1213 O1188 1.257 . S
C1214 H1189 0.930 . S
C1214 C1217 1.388 . S
C1214 C1219 1.418 . S
C1215 H1210 0.930 . S
C1215 C1218 1.404 . S
C1215 C1219 1.353 . S
N1216 Co1181 2.145 . S
N1216 C1217 1.397 . S
N1216 C1218 1.334 . S
C1217 H1198 0.929 . S
C1217 C1214 1.388 . S
C1217 N1216 1.397 . S
C1218 H1199 0.929 . S
C1218 C1215 1.404 . S
C1218 N1216 1.334 . S
C1219 H1211 0.930 . S
C1219 C1214 1.418 . S
C1219 C1215 1.353 . S
C1220 H1190 0.930 . S
C1220 N1221 1.330 . S
C1220 C1222 1.446 . S
N1221 Co1180 2.151 . S
N1221 C1220 1.330 . S
N1221 C1225 1.418 . S
C1222 H1201 0.929 . S
C1222 C1220 1.446 . S
C1222 C1223 1.332 . S
C1223 H1203 0.931 . S
C1223 C1222 1.332 . S
C1223 C1224 1.267 . S
C1224 H1192 0.929 . S
C1224 C1223 1.267 . S
C1224 C1225 1.251 . S
C1225 H1195 0.929 . S
C1225 N1221 1.418 . S
C1225 C1224 1.251 . S
C1226 H1193 0.930 . S
C1226 C1228 1.406 . S
C1226 C1231 1.261 . S
C1227 H1194 0.930 . S
C1227 N1229 1.325 . S
C1227 C1230 1.357 . S
C1228 H1196 0.928 . S
C1228 C1226 1.406 . S
C1228 N1229 1.261 . S
N1229 Co1180 2.214 . S
N1229 C1227 1.325 . S
N1229 C1228 1.261 . S
C1230 H1200 0.931 . S
C1230 C1227 1.357 . S
C1230 C1231 1.312 . S
C1231 H1202 0.930 . S
C1231 C1226 1.261 . S
C1231 C1230 1.312 . S
C1232 O1204 1.214 . S
C1232 O1212 1.234 . S
C1233 H1205 0.929 . S
C1233 C1236 1.391 . S
C1233 C1238 1.391 . S
C1234 H1206 0.929 . S
C1234 C1235 1.390 . S
C1234 N1237 1.391 . S
C1235 H1207 0.930 . S
C1235 C1234 1.390 . S
C1235 C1236 1.392 . S
C1236 H1208 0.929 . S
C1236 C1233 1.391 . S
C1236 C1235 1.392 . S
N1237 Co1181 2.257 . S
N1237 C1234 1.391 . S
N1237 C1238 1.388 . S
C1238 H1209 0.930 . S
C1238 C1233 1.391 . S
C1238 N1237 1.388 . S
Co1239 O1241 2.143 . S
Co1239 O1247 2.074 . S
Co1239 O1250 2.093 . S
Co1239 O1263 2.097 . S
Co1239 N1280 2.151 . S
Co1239 N1288 2.214 . S
Co1240 O1241 2.160 1_556 S
Co1240 O1246 2.058 . S
Co1240 O1256 2.057 . S
Co1240 O1271 2.037 . S
Co1240 N1275 2.145 . S
Co1240 N1296 2.257 . S
O1241 Co1239 2.143 . S
O1241 Co1240 2.160 1_554 S
C1242 O1243 1.278 . S
C1242 O1250 1.224 . S
O1243 C1242 1.278 . S
C1244 O1245 1.245 1_556 S
C1244 O1256 1.232 . S
O1245 C1244 1.245 1_554 S
O1246 Co1240 2.058 . S
O1246 C1272 1.273 1_556 S
O1247 Co1239 2.074 . S
O1247 C1272 1.252 . S
H1248 C1273 0.930 . S
H1249 C1279 0.930 . S
O1250 Co1239 2.093 . S
O1250 C1242 1.224 . S
H1251 C1283 0.929 . S
H1252 C1285 0.930 . S
H1253 C1286 0.930 . S
H1254 C1284 0.929 . S
H1255 C1287 0.928 . S
O1256 Co1240 2.057 . S
O1256 C1244 1.232 . S
H1257 C1276 0.929 . S
H1258 C1277 0.929 . S
H1259 C1289 0.931 . S
H1260 C1281 0.929 . S
H1261 C1290 0.930 . S
H1262 C1282 0.931 . S
O1263 Co1239 2.097 . S
O1263 C1291 1.214 . S
H1264 C1292 0.929 . S
H1265 C1293 0.929 . S
H1266 C1294 0.930 . S
H1267 C1295 0.929 1_554 S
H1268 C1297 0.930 . S
H1269 C1274 0.930 . S
H1270 C1278 0.930 . S
O1271 Co1240 2.037 . S
O1271 C1291 1.234 1_556 S
C1272 O1246 1.273 1_554 S
C1272 O1247 1.252 . S
C1273 H1248 0.930 . S
C1273 C1276 1.388 . S
C1273 C1278 1.418 . S
C1274 H1269 0.930 . S
C1274 C1277 1.404 . S
C1274 C1278 1.353 . S
N1275 Co1240 2.145 . S
N1275 C1276 1.397 . S
N1275 C1277 1.334 . S
C1276 H1257 0.929 . S
C1276 C1273 1.388 . S
C1276 N1275 1.397 . S
C1277 H1258 0.929 . S
C1277 C1274 1.404 . S
C1277 N1275 1.334 . S
C1278 H1270 0.930 . S
C1278 C1273 1.418 . S
C1278 C1274 1.353 . S
C1279 H1249 0.930 . S
C1279 N1280 1.330 . S
C1279 C1281 1.446 . S
N1280 Co1239 2.151 . S
N1280 C1279 1.330 . S
N1280 C1284 1.418 . S
C1281 H1260 0.929 . S
C1281 C1279 1.446 . S
C1281 C1282 1.332 . S
C1282 H1262 0.931 . S
C1282 C1281 1.332 . S
C1282 C1283 1.267 . S
C1283 H1251 0.929 . S
C1283 C1282 1.267 . S
C1283 C1284 1.251 . S
C1284 H1254 0.929 . S
C1284 N1280 1.418 . S
C1284 C1283 1.251 . S
C1285 H1252 0.930 . S
C1285 C1287 1.406 . S
C1285 C1290 1.261 . S
C1286 H1253 0.930 . S
C1286 N1288 1.325 . S
C1286 C1289 1.357 . S
C1287 H1255 0.928 . S
C1287 C1285 1.406 . S
C1287 N1288 1.261 . S
N1288 Co1239 2.214 . S
N1288 C1286 1.325 . S
N1288 C1287 1.261 . S
C1289 H1259 0.931 . S
C1289 C1286 1.357 . S
C1289 C1290 1.312 . S
C1290 H1261 0.930 . S
C1290 C1285 1.261 . S
C1290 C1289 1.312 . S
C1291 O1263 1.214 . S
C1291 O1271 1.234 1_554 S
C1292 H1264 0.929 . S
C1292 C1295 1.391 1_554 S
C1292 C1297 1.391 . S
C1293 H1265 0.929 . S
C1293 C1294 1.390 . S
C1293 N1296 1.391 . S
C1294 H1266 0.930 . S
C1294 C1293 1.390 . S
C1294 C1295 1.392 . S
C1295 H1267 0.929 1_556 S
C1295 C1292 1.391 1_556 S
C1295 C1294 1.392 . S
N1296 Co1240 2.257 . S
N1296 C1293 1.391 . S
N1296 C1297 1.388 1_556 S
C1297 H1268 0.930 . S
C1297 C1292 1.391 . S
C1297 N1296 1.388 1_554 S
Co1298 O1300 2.143 . S
Co1298 O1306 2.074 . S
Co1298 O1309 2.093 . S
Co1298 O1322 2.097 . S
Co1298 N1339 2.151 . S
Co1298 N1347 2.214 . S
Co1299 O1300 2.160 1_556 S
Co1299 O1305 2.058 . S
Co1299 O1315 2.057 . S
Co1299 O1330 2.037 . S
Co1299 N1334 2.145 . S
Co1299 N1355 2.257 . S
O1300 Co1298 2.143 . S
O1300 Co1299 2.160 1_554 S
C1301 O1302 1.278 . S
C1301 O1309 1.224 . S
O1302 C1301 1.278 . S
C1303 O1304 1.245 1_556 S
C1303 O1315 1.232 . S
O1304 C1303 1.245 1_554 S
O1305 Co1299 2.058 . S
O1305 C1331 1.265 . S
O1306 Co1298 2.074 . S
O1306 C1331 1.265 1_554 S
H1307 C1332 0.930 . S
H1308 C1338 0.930 . S
O1309 Co1298 2.093 . S
O1309 C1301 1.224 . S
H1310 C1342 0.929 . S
H1311 C1344 0.930 . S
H1312 C1345 0.930 . S
H1313 C1343 0.929 . S
H1314 C1346 0.928 . S
O1315 Co1299 2.057 . S
O1315 C1303 1.232 . S
H1316 C1335 0.929 . S
H1317 C1336 0.929 . S
H1318 C1348 0.931 . S
H1319 C1340 0.929 . S
H1320 C1349 0.930 . S
H1321 C1341 0.931 . S
O1322 Co1298 2.097 . S
O1322 C1350 1.214 . S
H1323 C1351 0.929 . S
H1324 C1352 0.929 . S
H1325 C1353 0.930 . S
H1326 C1354 0.929 1_554 S
H1327 C1356 0.930 . S
H1328 C1333 0.930 . S
H1329 C1337 0.930 . S
O1330 Co1299 2.037 . S
O1330 C1350 1.234 1_556 S
C1331 O1305 1.265 . S
C1331 O1306 1.265 1_556 S
C1332 H1307 0.930 . S
C1332 C1335 1.388 . S
C1332 C1337 1.418 . S
C1333 H1328 0.930 . S
C1333 C1336 1.404 . S
C1333 C1337 1.353 . S
N1334 Co1299 2.145 . S
N1334 C1335 1.397 . S
N1334 C1336 1.334 . S
C1335 H1316 0.929 . S
C1335 C1332 1.388 . S
C1335 N1334 1.397 . S
C1336 H1317 0.929 . S
C1336 C1333 1.404 . S
C1336 N1334 1.334 . S
C1337 H1329 0.930 . S
C1337 C1332 1.418 . S
C1337 C1333 1.353 . S
C1338 H1308 0.930 . S
C1338 N1339 1.330 . S
C1338 C1340 1.446 . S
N1339 Co1298 2.151 . S
N1339 C1338 1.330 . S
N1339 C1343 1.418 . S
C1340 H1319 0.929 . S
C1340 C1338 1.446 . S
C1340 C1341 1.332 . S
C1341 H1321 0.931 . S
C1341 C1340 1.332 . S
C1341 C1342 1.267 . S
C1342 H1310 0.929 . S
C1342 C1341 1.267 . S
C1342 C1343 1.251 . S
C1343 H1313 0.929 . S
C1343 N1339 1.418 . S
C1343 C1342 1.251 . S
C1344 H1311 0.930 . S
C1344 C1346 1.406 . S
C1344 C1349 1.261 . S
C1345 H1312 0.930 . S
C1345 N1347 1.325 . S
C1345 C1348 1.357 . S
C1346 H1314 0.928 . S
C1346 C1344 1.406 . S
C1346 N1347 1.261 . S
N1347 Co1298 2.214 . S
N1347 C1345 1.325 . S
N1347 C1346 1.261 . S
C1348 H1318 0.931 . S
C1348 C1345 1.357 . S
C1348 C1349 1.312 . S
C1349 H1320 0.930 . S
C1349 C1344 1.261 . S
C1349 C1348 1.312 . S
C1350 O1322 1.214 . S
C1350 O1330 1.234 1_554 S
C1351 H1323 0.929 . S
C1351 C1354 1.391 1_554 S
C1351 C1356 1.391 . S
C1352 H1324 0.929 . S
C1352 C1353 1.390 . S
C1352 N1355 1.391 . S
C1353 H1325 0.930 . S
C1353 C1352 1.390 . S
C1353 C1354 1.392 . S
C1354 H1326 0.929 1_556 S
C1354 C1351 1.391 1_556 S
C1354 C1353 1.392 . S
N1355 Co1299 2.257 . S
N1355 C1352 1.391 . S
N1355 C1356 1.388 1_556 S
C1356 H1327 0.930 . S
C1356 C1351 1.391 . S
C1356 N1355 1.388 1_554 S
Co1357 O1359 2.143 . S
Co1357 O1365 2.074 . S
Co1357 O1368 2.093 . S
Co1357 O1381 2.097 . S
Co1357 N1398 2.151 . S
Co1357 N1406 2.214 . S
Co1358 O1359 2.160 1_556 S
Co1358 O1364 2.058 . S
Co1358 O1374 2.057 . S
Co1358 O1389 2.037 . S
Co1358 N1393 2.145 . S
Co1358 N1414 2.257 . S
O1359 Co1357 2.143 . S
O1359 Co1358 2.160 1_554 S
C1360 O1361 1.278 . S
C1360 O1368 1.224 . S
O1361 C1360 1.278 . S
C1362 O1363 1.245 1_556 S
C1362 O1374 1.232 . S
O1363 C1362 1.245 1_554 S
O1364 Co1358 2.058 . S
O1364 C1390 1.265 . S
O1365 Co1357 2.074 . S
O1365 C1390 1.265 1_554 S
H1366 C1391 0.930 . S
H1367 C1397 0.930 . S
O1368 Co1357 2.093 . S
O1368 C1360 1.224 . S
H1369 C1401 0.929 . S
H1370 C1403 0.930 . S
H1371 C1404 0.930 . S
H1372 C1402 0.929 . S
H1373 C1405 0.928 . S
O1374 Co1358 2.057 . S
O1374 C1362 1.232 . S
H1375 C1394 0.929 . S
H1376 C1395 0.929 . S
H1377 C1407 0.931 . S
H1378 C1399 0.929 . S
H1379 C1408 0.930 . S
H1380 C1400 0.931 . S
O1381 Co1357 2.097 . S
O1381 C1409 1.214 . S
H1382 C1410 0.929 . S
H1383 C1411 0.929 . S
H1384 C1412 0.930 . S
H1385 C1413 0.930 1_554 S
H1386 C1415 0.930 . S
H1387 C1392 0.930 . S
H1388 C1396 0.930 . S
O1389 Co1358 2.037 . S
O1389 C1409 1.234 1_556 S
C1390 O1364 1.265 . S
C1390 O1365 1.265 1_556 S
C1391 H1366 0.930 . S
C1391 C1394 1.388 . S
C1391 C1396 1.418 . S
C1392 H1387 0.930 . S
C1392 C1395 1.404 . S
C1392 C1396 1.353 . S
N1393 Co1358 2.145 . S
N1393 C1394 1.397 . S
N1393 C1395 1.334 . S
C1394 H1375 0.929 . S
C1394 C1391 1.388 . S
C1394 N1393 1.397 . S
C1395 H1376 0.929 . S
C1395 C1392 1.404 . S
C1395 N1393 1.334 . S
C1396 H1388 0.930 . S
C1396 C1391 1.418 . S
C1396 C1392 1.353 . S
C1397 H1367 0.930 . S
C1397 N1398 1.330 . S
C1397 C1399 1.446 . S
N1398 Co1357 2.151 . S
N1398 C1397 1.330 . S
N1398 C1402 1.418 . S
C1399 H1378 0.929 . S
C1399 C1397 1.446 . S
C1399 C1400 1.332 . S
C1400 H1380 0.931 . S
C1400 C1399 1.332 . S
C1400 C1401 1.267 . S
C1401 H1369 0.929 . S
C1401 C1400 1.267 . S
C1401 C1402 1.251 . S
C1402 H1372 0.929 . S
C1402 N1398 1.418 . S
C1402 C1401 1.251 . S
C1403 H1370 0.930 . S
C1403 C1405 1.406 . S
C1403 C1408 1.261 . S
C1404 H1371 0.930 . S
C1404 N1406 1.325 . S
C1404 C1407 1.357 . S
C1405 H1373 0.928 . S
C1405 C1403 1.406 . S
C1405 N1406 1.261 . S
N1406 Co1357 2.214 . S
N1406 C1404 1.325 . S
N1406 C1405 1.261 . S
C1407 H1377 0.931 . S
C1407 C1404 1.357 . S
C1407 C1408 1.312 . S
C1408 H1379 0.930 . S
C1408 C1403 1.261 . S
C1408 C1407 1.312 . S
C1409 O1381 1.214 . S
C1409 O1389 1.234 1_554 S
C1410 H1382 0.929 . S
C1410 C1413 1.391 1_554 S
C1410 C1415 1.391 . S
C1411 H1383 0.929 . S
C1411 C1412 1.390 . S
C1411 N1414 1.391 . S
C1412 H1384 0.930 . S
C1412 C1411 1.390 . S
C1412 C1413 1.392 . S
C1413 H1385 0.930 1_556 S
C1413 C1410 1.391 1_556 S
C1413 C1412 1.392 . S
N1414 Co1358 2.257 . S
N1414 C1411 1.391 . S
N1414 C1415 1.388 1_556 S
C1415 H1386 0.930 . S
C1415 C1410 1.391 . S
C1415 N1414 1.388 1_554 S
Co1416 O1418 2.143 . S
Co1416 O1424 2.074 . S
Co1416 O1427 2.093 . S
Co1416 O1440 2.097 . S
Co1416 N1457 2.151 . S
Co1416 N1465 2.214 . S
Co1417 O1418 2.160 . S
Co1417 O1423 2.058 . S
Co1417 O1433 2.057 . S
Co1417 O1448 2.037 . S
Co1417 N1452 2.145 . S
Co1417 N1473 2.257 . S
O1418 Co1416 2.143 . S
O1418 Co1417 2.160 . S
C1419 O1420 1.278 . S
C1419 O1427 1.224 . S
O1420 C1419 1.278 . S
C1421 O1422 1.245 . S
C1421 O1433 1.232 . S
O1422 C1421 1.245 . S
O1423 Co1417 2.058 . S
O1423 C1449 1.269 . S
O1424 Co1416 2.074 . S
O1424 C1449 1.257 . S
H1425 C1450 0.930 . S
H1426 C1456 0.930 . S
O1427 Co1416 2.093 . S
O1427 C1419 1.224 . S
H1428 C1460 0.929 . S
H1429 C1462 0.930 . S
H1430 C1463 0.930 . S
H1431 C1461 0.929 . S
H1432 C1464 0.928 . S
O1433 Co1417 2.057 . S
O1433 C1421 1.232 . S
H1434 C1453 0.929 . S
H1435 C1454 0.929 . S
H1436 C1466 0.931 . S
H1437 C1458 0.929 . S
H1438 C1467 0.930 . S
H1439 C1459 0.931 . S
O1440 Co1416 2.097 . S
O1440 C1468 1.214 . S
H1441 C1469 0.929 . S
H1442 C1470 0.929 . S
H1443 C1471 0.930 . S
H1444 C1472 0.929 . S
H1445 C1474 0.930 . S
H1446 C1451 0.930 . S
H1447 C1455 0.930 . S
O1448 Co1417 2.037 . S
O1448 C1468 1.234 . S
C1449 O1423 1.269 . S
C1449 O1424 1.257 . S
C1450 H1425 0.930 . S
C1450 C1453 1.388 . S
C1450 C1455 1.418 . S
C1451 H1446 0.930 . S
C1451 C1454 1.404 . S
C1451 C1455 1.353 . S
N1452 Co1417 2.145 . S
N1452 C1453 1.397 . S
N1452 C1454 1.334 . S
C1453 H1434 0.929 . S
C1453 C1450 1.388 . S
C1453 N1452 1.397 . S
C1454 H1435 0.929 . S
C1454 C1451 1.404 . S
C1454 N1452 1.334 . S
C1455 H1447 0.930 . S
C1455 C1450 1.418 . S
C1455 C1451 1.353 . S
C1456 H1426 0.930 . S
C1456 N1457 1.330 . S
C1456 C1458 1.446 . S
N1457 Co1416 2.151 . S
N1457 C1456 1.330 . S
N1457 C1461 1.418 . S
C1458 H1437 0.929 . S
C1458 C1456 1.446 . S
C1458 C1459 1.332 . S
C1459 H1439 0.931 . S
C1459 C1458 1.332 . S
C1459 C1460 1.267 . S
C1460 H1428 0.929 . S
C1460 C1459 1.267 . S
C1460 C1461 1.251 . S
C1461 H1431 0.929 . S
C1461 N1457 1.418 . S
C1461 C1460 1.251 . S
C1462 H1429 0.930 . S
C1462 C1464 1.406 . S
C1462 C1467 1.261 . S
C1463 H1430 0.930 . S
C1463 N1465 1.325 . S
C1463 C1466 1.357 . S
C1464 H1432 0.928 . S
C1464 C1462 1.406 . S
C1464 N1465 1.261 . S
N1465 Co1416 2.214 . S
N1465 C1463 1.325 . S
N1465 C1464 1.261 . S
C1466 H1436 0.931 . S
C1466 C1463 1.357 . S
C1466 C1467 1.312 . S
C1467 H1438 0.930 . S
C1467 C1462 1.261 . S
C1467 C1466 1.312 . S
C1468 O1440 1.214 . S
C1468 O1448 1.234 . S
C1469 H1441 0.929 . S
C1469 C1472 1.391 . S
C1469 C1474 1.391 . S
C1470 H1442 0.929 . S
C1470 C1471 1.390 . S
C1470 N1473 1.391 . S
C1471 H1443 0.930 . S
C1471 C1470 1.390 . S
C1471 C1472 1.392 . S
C1472 H1444 0.929 . S
C1472 C1469 1.391 . S
C1472 C1471 1.392 . S
N1473 Co1417 2.257 . S
N1473 C1470 1.391 . S
N1473 C1474 1.388 . S
C1474 H1445 0.930 . S
C1474 C1469 1.391 . S
C1474 N1473 1.388 . S
Co1475 O1477 2.143 . S
Co1475 O1483 2.074 . S
Co1475 O1486 2.093 . S
Co1475 O1499 2.097 . S
Co1475 N1516 2.151 . S
Co1475 N1524 2.214 . S
Co1476 O1477 2.160 . S
Co1476 O1482 2.058 . S
Co1476 O1492 2.057 . S
Co1476 O1507 2.037 . S
Co1476 N1511 2.145 . S
Co1476 N1532 2.257 . S
O1477 Co1475 2.143 . S
O1477 Co1476 2.160 . S
C1478 O1479 1.278 . S
C1478 O1486 1.224 . S
O1479 C1478 1.278 . S
C1480 O1481 1.245 . S
C1480 O1492 1.232 . S
O1481 C1480 1.245 . S
O1482 Co1476 2.058 . S
O1482 C1508 1.269 . S
O1483 Co1475 2.074 . S
O1483 C1508 1.257 . S
H1484 C1509 0.930 . S
H1485 C1515 0.930 . S
O1486 Co1475 2.093 . S
O1486 C1478 1.224 . S
H1487 C1519 0.929 . S
H1488 C1521 0.930 . S
H1489 C1522 0.930 . S
H1490 C1520 0.929 . S
H1491 C1523 0.928 . S
O1492 Co1476 2.057 . S
O1492 C1480 1.232 . S
H1493 C1512 0.929 . S
H1494 C1513 0.929 . S
H1495 C1525 0.931 . S
H1496 C1517 0.929 . S
H1497 C1526 0.930 . S
H1498 C1518 0.931 . S
O1499 Co1475 2.097 . S
O1499 C1527 1.214 . S
H1500 C1528 0.929 . S
H1501 C1529 0.929 . S
H1502 C1530 0.930 . S
H1503 C1531 0.916 1_655 S
H1504 C1533 0.930 . S
H1505 C1510 0.930 . S
H1506 C1514 0.930 . S
O1507 Co1476 2.037 . S
O1507 C1527 1.234 . S
C1508 O1482 1.269 . S
C1508 O1483 1.257 . S
C1509 H1484 0.930 . S
C1509 C1512 1.388 . S
C1509 C1514 1.418 . S
C1510 H1505 0.930 . S
C1510 C1513 1.404 . S
C1510 C1514 1.353 . S
N1511 Co1476 2.145 . S
N1511 C1512 1.397 . S
N1511 C1513 1.334 . S
C1512 H1493 0.929 . S
C1512 C1509 1.388 . S
C1512 N1511 1.397 . S
C1513 H1494 0.929 . S
C1513 C1510 1.404 . S
C1513 N1511 1.334 . S
C1514 H1506 0.930 . S
C1514 C1509 1.418 . S
C1514 C1510 1.353 . S
C1515 H1485 0.930 . S
C1515 N1516 1.330 . S
C1515 C1517 1.446 . S
N1516 Co1475 2.151 . S
N1516 C1515 1.330 . S
N1516 C1520 1.418 . S
C1517 H1496 0.929 . S
C1517 C1515 1.446 . S
C1517 C1518 1.332 . S
C1518 H1498 0.931 . S
C1518 C1517 1.332 . S
C1518 C1519 1.267 . S
C1519 H1487 0.929 . S
C1519 C1518 1.267 . S
C1519 C1520 1.251 . S
C1520 H1490 0.929 . S
C1520 N1516 1.418 . S
C1520 C1519 1.251 . S
C1521 H1488 0.930 . S
C1521 C1523 1.406 . S
C1521 C1526 1.261 . S
C1522 H1489 0.930 . S
C1522 N1524 1.325 . S
C1522 C1525 1.357 . S
C1523 H1491 0.928 . S
C1523 C1521 1.406 . S
C1523 N1524 1.261 . S
N1524 Co1475 2.214 . S
N1524 C1522 1.325 . S
N1524 C1523 1.261 . S
C1525 H1495 0.931 . S
C1525 C1522 1.357 . S
C1525 C1526 1.312 . S
C1526 H1497 0.930 . S
C1526 C1521 1.261 . S
C1526 C1525 1.312 . S
C1527 O1499 1.214 . S
C1527 O1507 1.234 . S
C1528 H1500 0.929 . S
C1528 C1531 1.391 . S
C1528 C1533 1.391 . S
C1529 H1501 0.929 . S
C1529 C1530 1.390 . S
C1529 N1532 1.391 . S
C1530 H1502 0.930 . S
C1530 C1529 1.390 . S
C1530 C1531 1.392 . S
C1531 H1503 0.916 1_455 S
C1531 C1528 1.391 . S
C1531 C1530 1.392 . S
N1532 Co1476 2.257 . S
N1532 C1529 1.391 . S
N1532 C1533 1.388 . S
C1533 H1504 0.930 . S
C1533 C1528 1.391 . S
C1533 N1532 1.388 . S
Co1534 O1536 2.143 . S
Co1534 O1542 2.074 . S
Co1534 O1545 2.093 . S
Co1534 O1558 2.097 . S
Co1534 N1575 2.151 . S
Co1534 N1583 2.214 . S
Co1535 O1536 2.160 . S
Co1535 O1541 2.058 . S
Co1535 O1551 2.057 . S
Co1535 O1566 2.037 . S
Co1535 N1570 2.145 . S
Co1535 N1591 2.257 . S
O1536 Co1534 2.143 . S
O1536 Co1535 2.160 . S
C1537 O1538 1.278 . S
C1537 O1545 1.224 . S
O1538 C1537 1.278 . S
C1539 O1540 1.245 . S
C1539 O1551 1.232 . S
O1540 C1539 1.245 . S
O1541 Co1535 2.058 . S
O1541 C1567 1.269 . S
O1542 Co1534 2.074 . S
O1542 C1567 1.257 . S
H1543 C1568 0.930 . S
H1544 C1574 0.930 . S
O1545 Co1534 2.093 . S
O1545 C1537 1.224 . S
H1546 C1578 0.929 . S
H1547 C1580 0.930 . S
H1548 C1581 0.930 . S
H1549 C1579 0.929 . S
H1550 C1582 0.928 . S
O1551 Co1535 2.057 . S
O1551 C1539 1.232 . S
H1552 C1571 0.929 . S
H1553 C1572 0.929 . S
H1554 C1584 0.931 . S
H1555 C1576 0.929 . S
H1556 C1585 0.930 . S
H1557 C1577 0.931 . S
O1558 Co1534 2.097 . S
O1558 C1586 1.214 . S
H1559 C1587 0.929 . S
H1560 C1588 0.929 . S
H1561 C1589 0.930 . S
H1562 C1590 0.929 . S
H1563 C1592 0.930 . S
H1564 C1569 0.930 . S
H1565 C1573 0.930 . S
O1566 Co1535 2.037 . S
O1566 C1586 1.234 . S
C1567 O1541 1.269 . S
C1567 O1542 1.257 . S
C1568 H1543 0.930 . S
C1568 C1571 1.388 . S
C1568 C1573 1.418 . S
C1569 H1564 0.930 . S
C1569 C1572 1.404 . S
C1569 C1573 1.353 . S
N1570 Co1535 2.145 . S
N1570 C1571 1.397 . S
N1570 C1572 1.334 . S
C1571 H1552 0.929 . S
C1571 C1568 1.388 . S
C1571 N1570 1.397 . S
C1572 H1553 0.929 . S
C1572 C1569 1.404 . S
C1572 N1570 1.334 . S
C1573 H1565 0.930 . S
C1573 C1568 1.418 . S
C1573 C1569 1.353 . S
C1574 H1544 0.930 . S
C1574 N1575 1.330 . S
C1574 C1576 1.446 . S
N1575 Co1534 2.151 . S
N1575 C1574 1.330 . S
N1575 C1579 1.418 . S
C1576 H1555 0.929 . S
C1576 C1574 1.446 . S
C1576 C1577 1.332 . S
C1577 H1557 0.931 . S
C1577 C1576 1.332 . S
C1577 C1578 1.267 . S
C1578 H1546 0.929 . S
C1578 C1577 1.267 . S
C1578 C1579 1.251 . S
C1579 H1549 0.929 . S
C1579 N1575 1.418 . S
C1579 C1578 1.251 . S
C1580 H1547 0.930 . S
C1580 C1582 1.406 . S
C1580 C1585 1.261 . S
C1581 H1548 0.930 . S
C1581 N1583 1.325 . S
C1581 C1584 1.357 . S
C1582 H1550 0.928 . S
C1582 C1580 1.406 . S
C1582 N1583 1.261 . S
N1583 Co1534 2.214 . S
N1583 C1581 1.325 . S
N1583 C1582 1.261 . S
C1584 H1554 0.931 . S
C1584 C1581 1.357 . S
C1584 C1585 1.312 . S
C1585 H1556 0.930 . S
C1585 C1580 1.261 . S
C1585 C1584 1.312 . S
C1586 O1558 1.214 . S
C1586 O1566 1.234 . S
C1587 H1559 0.929 . S
C1587 C1590 1.391 . S
C1587 C1592 1.391 . S
C1588 H1560 0.929 . S
C1588 C1589 1.390 . S
C1588 N1591 1.391 . S
C1589 H1561 0.930 . S
C1589 C1588 1.390 . S
C1589 C1590 1.392 . S
C1590 H1562 0.929 . S
C1590 C1587 1.391 . S
C1590 C1589 1.392 . S
N1591 Co1535 2.257 . S
N1591 C1588 1.391 . S
N1591 C1592 1.388 . S
C1592 H1563 0.930 . S
C1592 C1587 1.391 . S
C1592 N1591 1.388 . S
Co1593 O1595 2.143 . S
Co1593 O1601 2.074 . S
Co1593 O1604 2.093 . S
Co1593 O1617 2.097 . S
Co1593 N1634 2.151 . S
Co1593 N1642 2.214 . S
Co1594 O1595 2.160 1_554 S
Co1594 O1600 2.058 . S
Co1594 O1610 2.057 . S
Co1594 O1625 2.037 . S
Co1594 N1629 2.145 . S
Co1594 N1650 2.257 . S
O1595 Co1593 2.143 . S
O1595 Co1594 2.160 1_556 S
C1596 O1597 1.278 . S
C1596 O1604 1.224 . S
O1597 C1596 1.278 . S
C1598 O1599 1.245 1_554 S
C1598 O1610 1.232 . S
O1599 C1598 1.245 1_556 S
O1600 Co1594 2.058 . S
O1600 C1626 1.268 1_554 S
O1601 Co1593 2.074 . S
O1601 C1626 1.259 . S
H1602 C1627 0.930 . S
H1603 C1633 0.930 . S
O1604 Co1593 2.093 . S
O1604 C1596 1.224 . S
H1605 C1637 0.929 . S
H1606 C1639 0.930 . S
H1607 C1640 0.930 . S
H1608 C1638 0.929 . S
H1609 C1641 0.928 . S
O1610 Co1594 2.057 . S
O1610 C1598 1.232 . S
H1611 C1630 0.929 . S
H1612 C1631 0.929 . S
H1613 C1643 0.931 . S
H1614 C1635 0.929 . S
H1615 C1644 0.930 . S
H1616 C1636 0.931 . S
O1617 Co1593 2.097 . S
O1617 C1645 1.214 . S
H1618 C1646 0.929 . S
H1619 C1647 0.929 . S
H1620 C1648 0.930 . S
H1621 C1649 0.928 1_556 S
H1622 C1651 0.930 . S
H1623 C1628 0.930 . S
H1624 C1632 0.930 . S
O1625 Co1594 2.037 . S
O1625 C1645 1.234 1_554 S
C1626 O1600 1.268 1_556 S
C1626 O1601 1.259 . S
C1627 H1602 0.930 . S
C1627 C1630 1.388 . S
C1627 C1632 1.418 . S
C1628 H1623 0.930 . S
C1628 C1631 1.404 . S
C1628 C1632 1.353 . S
N1629 Co1594 2.145 . S
N1629 C1630 1.397 . S
N1629 C1631 1.334 . S
C1630 H1611 0.929 . S
C1630 C1627 1.388 . S
C1630 N1629 1.397 . S
C1631 H1612 0.929 . S
C1631 C1628 1.404 . S
C1631 N1629 1.334 . S
C1632 H1624 0.930 . S
C1632 C1627 1.418 . S
C1632 C1628 1.353 . S
C1633 H1603 0.930 . S
C1633 N1634 1.330 . S
C1633 C1635 1.446 . S
N1634 Co1593 2.151 . S
N1634 C1633 1.330 . S
N1634 C1638 1.418 . S
C1635 H1614 0.929 . S
C1635 C1633 1.446 . S
C1635 C1636 1.332 . S
C1636 H1616 0.931 . S
C1636 C1635 1.332 . S
C1636 C1637 1.267 . S
C1637 H1605 0.929 . S
C1637 C1636 1.267 . S
C1637 C1638 1.251 . S
C1638 H1608 0.929 . S
C1638 N1634 1.418 . S
C1638 C1637 1.251 . S
C1639 H1606 0.930 . S
C1639 C1641 1.406 . S
C1639 C1644 1.261 . S
C1640 H1607 0.930 . S
C1640 N1642 1.325 . S
C1640 C1643 1.357 . S
C1641 H1609 0.928 . S
C1641 C1639 1.406 . S
C1641 N1642 1.261 . S
N1642 Co1593 2.214 . S
N1642 C1640 1.325 . S
N1642 C1641 1.261 . S
C1643 H1613 0.931 . S
C1643 C1640 1.357 . S
C1643 C1644 1.312 . S
C1644 H1615 0.930 . S
C1644 C1639 1.261 . S
C1644 C1643 1.312 . S
C1645 O1617 1.214 . S
C1645 O1625 1.234 1_556 S
C1646 H1618 0.929 . S
C1646 C1649 1.391 1_556 S
C1646 C1651 1.391 . S
C1647 H1619 0.929 . S
C1647 C1648 1.390 . S
C1647 N1650 1.391 . S
C1648 H1620 0.930 . S
C1648 C1647 1.390 . S
C1648 C1649 1.392 . S
C1649 H1621 0.928 1_554 S
C1649 C1646 1.391 1_554 S
C1649 C1648 1.392 . S
N1650 Co1594 2.257 . S
N1650 C1647 1.391 . S
N1650 C1651 1.388 1_554 S
C1651 H1622 0.930 . S
C1651 C1646 1.391 . S
C1651 N1650 1.388 1_556 S
Co1652 O1654 2.143 . S
Co1652 O1660 2.074 . S
Co1652 O1663 2.093 . S
Co1652 O1676 2.097 . S
Co1652 N1693 2.151 . S
Co1652 N1701 2.214 . S
Co1653 O1654 2.160 1_554 S
Co1653 O1659 2.058 . S
Co1653 O1669 2.057 . S
Co1653 O1684 2.037 . S
Co1653 N1688 2.145 . S
Co1653 N1709 2.257 . S
O1654 Co1652 2.143 . S
O1654 Co1653 2.160 1_556 S
C1655 O1656 1.278 . S
C1655 O1663 1.224 . S
O1656 C1655 1.278 . S
C1657 O1658 1.245 1_554 S
C1657 O1669 1.232 . S
O1658 C1657 1.245 1_556 S
O1659 Co1653 2.058 . S
O1659 C1685 1.263 1_554 S
O1660 Co1652 2.074 . S
O1660 C1685 1.269 . S
H1661 C1686 0.930 . S
H1662 C1692 0.930 . S
O1663 Co1652 2.093 . S
O1663 C1655 1.224 . S
H1664 C1696 0.929 . S
H1665 C1698 0.930 . S
H1666 C1699 0.930 . S
H1667 C1697 0.929 . S
H1668 C1700 0.928 . S
O1669 Co1653 2.057 . S
O1669 C1657 1.232 . S
H1670 C1689 0.929 . S
H1671 C1690 0.929 . S
H1672 C1702 0.931 . S
H1673 C1694 0.929 . S
H1674 C1703 0.930 . S
H1675 C1695 0.931 . S
O1676 Co1652 2.097 . S
O1676 C1704 1.214 . S
H1677 C1705 0.929 . S
H1678 C1706 0.929 . S
H1679 C1707 0.930 . S
H1680 C1708 0.922 1_556 S
H1681 C1710 0.930 . S
H1682 C1687 0.930 . S
H1683 C1691 0.930 . S
O1684 Co1653 2.037 . S
O1684 C1704 1.234 1_554 S
C1685 O1659 1.263 1_556 S
C1685 O1660 1.269 . S
C1686 H1661 0.930 . S
C1686 C1689 1.388 . S
C1686 C1691 1.418 . S
C1687 H1682 0.930 . S
C1687 C1690 1.404 . S
C1687 C1691 1.353 . S
N1688 Co1653 2.145 . S
N1688 C1689 1.397 . S
N1688 C1690 1.334 . S
C1689 H1670 0.929 . S
C1689 C1686 1.388 . S
C1689 N1688 1.397 . S
C1690 H1671 0.929 . S
C1690 C1687 1.404 . S
C1690 N1688 1.334 . S
C1691 H1683 0.930 . S
C1691 C1686 1.418 . S
C1691 C1687 1.353 . S
C1692 H1662 0.930 . S
C1692 N1693 1.330 . S
C1692 C1694 1.446 . S
N1693 Co1652 2.151 . S
N1693 C1692 1.330 . S
N1693 C1697 1.418 . S
C1694 H1673 0.929 . S
C1694 C1692 1.446 . S
C1694 C1695 1.332 . S
C1695 H1675 0.931 . S
C1695 C1694 1.332 . S
C1695 C1696 1.267 . S
C1696 H1664 0.929 . S
C1696 C1695 1.267 . S
C1696 C1697 1.251 . S
C1697 H1667 0.929 . S
C1697 N1693 1.418 . S
C1697 C1696 1.251 . S
C1698 H1665 0.930 . S
C1698 C1700 1.406 . S
C1698 C1703 1.261 . S
C1699 H1666 0.930 . S
C1699 N1701 1.325 . S
C1699 C1702 1.357 . S
C1700 H1668 0.928 . S
C1700 C1698 1.406 . S
C1700 N1701 1.261 . S
N1701 Co1652 2.214 . S
N1701 C1699 1.325 . S
N1701 C1700 1.261 . S
C1702 H1672 0.931 . S
C1702 C1699 1.357 . S
C1702 C1703 1.312 . S
C1703 H1674 0.930 . S
C1703 C1698 1.261 . S
C1703 C1702 1.312 . S
C1704 O1676 1.214 . S
C1704 O1684 1.234 1_556 S
C1705 H1677 0.929 . S
C1705 C1708 1.361 1_556 S
C1705 C1710 1.391 . S
C1706 H1678 0.929 . S
C1706 C1707 1.390 . S
C1706 N1709 1.391 . S
C1707 H1679 0.930 . S
C1707 C1706 1.390 . S
C1707 C1708 1.435 . S
C1708 H1680 0.922 1_554 S
C1708 C1705 1.361 1_554 S
C1708 C1707 1.435 . S
N1709 Co1653 2.257 . S
N1709 C1706 1.391 . S
N1709 C1710 1.388 1_554 S
C1710 H1681 0.930 . S
C1710 C1705 1.391 . S
C1710 N1709 1.388 1_556 S
Co1711 O1713 2.143 1_554 S
Co1711 O1719 2.074 . S
Co1711 O1722 2.093 . S
Co1711 O1735 2.097 . S
Co1711 N1752 2.151 . S
Co1711 N1760 2.214 . S
Co1712 O1713 2.160 . S
Co1712 O1718 2.058 . S
Co1712 O1728 2.057 . S
Co1712 O1743 2.037 . S
Co1712 N1747 2.145 . S
Co1712 N1768 2.257 . S
O1713 Co1711 2.143 1_556 S
O1713 Co1712 2.160 . S
C1714 O1715 1.278 1_554 S
C1714 O1722 1.224 . S
O1715 C1714 1.278 1_556 S
C1716 O1717 1.245 . S
C1716 O1728 1.232 . S
O1717 C1716 1.245 . S
O1718 Co1712 2.058 . S
O1718 C1744 1.269 . S
O1719 Co1711 2.074 . S
O1719 C1744 1.257 1_554 S
H1720 C1745 0.930 . S
H1721 C1751 0.930 . S
O1722 Co1711 2.093 . S
O1722 C1714 1.224 . S
H1723 C1755 0.929 . S
H1724 C1757 0.930 . S
H1725 C1758 0.930 . S
H1726 C1756 0.929 . S
H1727 C1759 0.928 . S
O1728 Co1712 2.057 . S
O1728 C1716 1.232 . S
H1729 C1748 0.929 . S
H1730 C1749 0.929 . S
H1731 C1761 0.931 . S
H1732 C1753 0.929 . S
H1733 C1762 0.930 . S
H1734 C1754 0.931 . S
O1735 Co1711 2.097 . S
O1735 C1763 1.191 1_554 S
H1736 C1764 0.929 . S
H1737 C1765 0.929 . S
H1738 C1766 0.930 . S
H1739 C1767 0.929 . S
H1740 C1769 0.930 . S
H1741 C1746 0.930 . S
H1742 C1750 0.930 . S
O1743 Co1712 2.037 . S
O1743 C1763 1.271 . S
C1744 O1718 1.269 . S
C1744 O1719 1.257 1_556 S
C1745 H1720 0.930 . S
C1745 C1748 1.388 . S
C1745 C1750 1.418 . S
C1746 H1741 0.930 . S
C1746 C1749 1.404 . S
C1746 C1750 1.353 . S
N1747 Co1712 2.145 . S
N1747 C1748 1.397 . S
N1747 C1749 1.334 . S
C1748 H1729 0.929 . S
C1748 C1745 1.388 . S
C1748 N1747 1.397 . S
C1749 H1730 0.929 . S
C1749 C1746 1.404 . S
C1749 N1747 1.334 . S
C1750 H1742 0.930 . S
C1750 C1745 1.418 . S
C1750 C1746 1.353 . S
C1751 H1721 0.930 . S
C1751 N1752 1.330 . S
C1751 C1753 1.446 . S
N1752 Co1711 2.151 . S
N1752 C1751 1.330 . S
N1752 C1756 1.418 . S
C1753 H1732 0.929 . S
C1753 C1751 1.446 . S
C1753 C1754 1.332 . S
C1754 H1734 0.931 . S
C1754 C1753 1.332 . S
C1754 C1755 1.267 . S
C1755 H1723 0.929 . S
C1755 C1754 1.267 . S
C1755 C1756 1.251 . S
C1756 H1726 0.929 . S
C1756 N1752 1.418 . S
C1756 C1755 1.251 . S
C1757 H1724 0.930 . S
C1757 C1759 1.406 . S
C1757 C1762 1.261 . S
C1758 H1725 0.930 . S
C1758 N1760 1.325 . S
C1758 C1761 1.357 . S
C1759 H1727 0.928 . S
C1759 C1757 1.406 . S
C1759 N1760 1.261 . S
N1760 Co1711 2.214 . S
N1760 C1758 1.325 . S
N1760 C1759 1.261 . S
C1761 H1731 0.931 . S
C1761 C1758 1.357 . S
C1761 C1762 1.312 . S
C1762 H1733 0.930 . S
C1762 C1757 1.261 . S
C1762 C1761 1.312 . S
C1763 O1735 1.191 1_556 S
C1763 O1743 1.271 . S
C1764 H1736 0.929 . S
C1764 C1767 1.391 . S
C1764 C1769 1.391 . S
C1765 H1737 0.929 . S
C1765 C1766 1.390 . S
C1765 N1768 1.391 . S
C1766 H1738 0.930 . S
C1766 C1765 1.390 . S
C1766 C1767 1.392 . S
C1767 H1739 0.929 . S
C1767 C1764 1.391 . S
C1767 C1766 1.392 . S
N1768 Co1712 2.257 . S
N1768 C1765 1.391 . S
N1768 C1769 1.388 . S
C1769 H1740 0.930 . S
C1769 C1764 1.391 . S
C1769 N1768 1.388 . S
Co1770 O1772 2.143 . S
Co1770 O1778 2.074 . S
Co1770 O1781 2.093 . S
Co1770 O1794 2.097 . S
Co1770 N1811 2.151 . S
Co1770 N1819 2.214 . S
Co1771 O1772 2.160 . S
Co1771 O1777 2.058 . S
Co1771 O1787 2.057 . S
Co1771 O1802 2.037 . S
Co1771 N1806 2.145 . S
Co1771 N1827 2.257 . S
O1772 Co1770 2.143 . S
O1772 Co1771 2.160 . S
C1773 O1774 1.278 . S
C1773 O1781 1.224 . S
O1774 C1773 1.278 . S
C1775 O1776 1.245 . S
C1775 O1787 1.232 . S
O1776 C1775 1.245 . S
O1777 Co1771 2.058 . S
O1777 C1803 1.269 . S
O1778 Co1770 2.074 . S
O1778 C1803 1.257 . S
H1779 C1804 0.930 . S
H1780 C1810 0.930 . S
O1781 Co1770 2.093 . S
O1781 C1773 1.224 . S
H1782 C1814 0.929 . S
H1783 C1816 0.930 . S
H1784 C1817 0.930 . S
H1785 C1815 0.929 . S
H1786 C1818 0.928 . S
O1787 Co1771 2.057 . S
O1787 C1775 1.232 . S
H1788 C1807 0.929 . S
H1789 C1808 0.929 . S
H1790 C1820 0.931 . S
H1791 C1812 0.929 . S
H1792 C1821 0.930 . S
H1793 C1813 0.931 . S
O1794 Co1770 2.097 . S
O1794 C1822 1.214 . S
H1795 C1823 0.929 . S
H1796 C1824 0.929 . S
H1797 C1825 0.930 . S
H1798 C1826 0.929 . S
H1799 C1828 0.930 . S
H1800 C1805 0.930 . S
H1801 C1809 0.930 . S
O1802 Co1771 2.037 . S
O1802 C1822 1.234 . S
C1803 O1777 1.269 . S
C1803 O1778 1.257 . S
C1804 H1779 0.930 . S
C1804 C1807 1.388 . S
C1804 C1809 1.418 . S
C1805 H1800 0.930 . S
C1805 C1808 1.404 . S
C1805 C1809 1.353 . S
N1806 Co1771 2.145 . S
N1806 C1807 1.397 . S
N1806 C1808 1.334 . S
C1807 H1788 0.929 . S
C1807 C1804 1.388 . S
C1807 N1806 1.397 . S
C1808 H1789 0.929 . S
C1808 C1805 1.404 . S
C1808 N1806 1.334 . S
C1809 H1801 0.930 . S
C1809 C1804 1.418 . S
C1809 C1805 1.353 . S
C1810 H1780 0.930 . S
C1810 N1811 1.330 . S
C1810 C1812 1.446 . S
N1811 Co1770 2.151 . S
N1811 C1810 1.330 . S
N1811 C1815 1.418 . S
C1812 H1791 0.929 . S
C1812 C1810 1.446 . S
C1812 C1813 1.332 . S
C1813 H1793 0.931 . S
C1813 C1812 1.332 . S
C1813 C1814 1.267 . S
C1814 H1782 0.929 . S
C1814 C1813 1.267 . S
C1814 C1815 1.251 . S
C1815 H1785 0.929 . S
C1815 N1811 1.418 . S
C1815 C1814 1.251 . S
C1816 H1783 0.930 . S
C1816 C1818 1.406 . S
C1816 C1821 1.261 . S
C1817 H1784 0.930 . S
C1817 N1819 1.325 . S
C1817 C1820 1.357 . S
C1818 H1786 0.928 . S
C1818 C1816 1.406 . S
C1818 N1819 1.261 . S
N1819 Co1770 2.214 . S
N1819 C1817 1.325 . S
N1819 C1818 1.261 . S
C1820 H1790 0.931 . S
C1820 C1817 1.357 . S
C1820 C1821 1.312 . S
C1821 H1792 0.930 . S
C1821 C1816 1.261 . S
C1821 C1820 1.312 . S
C1822 O1794 1.214 . S
C1822 O1802 1.234 . S
C1823 H1795 0.929 . S
C1823 C1826 1.391 . S
C1823 C1828 1.391 . S
C1824 H1796 0.929 . S
C1824 C1825 1.390 . S
C1824 N1827 1.391 . S
C1825 H1797 0.930 . S
C1825 C1824 1.390 . S
C1825 C1826 1.392 . S
C1826 H1798 0.929 . S
C1826 C1823 1.391 . S
C1826 C1825 1.392 . S
N1827 Co1771 2.257 . S
N1827 C1824 1.391 . S
N1827 C1828 1.388 . S
C1828 H1799 0.930 . S
C1828 C1823 1.391 . S
C1828 N1827 1.388 . S
Co1829 O1831 2.143 . S
Co1829 O1837 2.074 . S
Co1829 O1840 2.093 . S
Co1829 O1853 2.097 . S
Co1829 N1870 2.151 . S
Co1829 N1878 2.214 . S
Co1830 O1831 2.160 . S
Co1830 O1836 2.058 . S
Co1830 O1846 2.057 . S
Co1830 O1861 2.037 . S
Co1830 N1865 2.145 . S
Co1830 N1886 2.257 . S
O1831 Co1829 2.143 . S
O1831 Co1830 2.160 . S
C1832 O1833 1.278 . S
C1832 O1840 1.224 . S
O1833 C1832 1.278 . S
C1834 O1835 1.245 . S
C1834 O1846 1.232 . S
O1835 C1834 1.245 . S
O1836 Co1830 2.058 . S
O1836 C1862 1.269 . S
O1837 Co1829 2.074 . S
O1837 C1862 1.257 . S
H1838 C1863 0.930 . S
H1839 C1869 0.930 . S
O1840 Co1829 2.093 . S
O1840 C1832 1.224 . S
H1841 C1873 0.929 . S
H1842 C1875 0.930 . S
H1843 C1876 0.930 . S
H1844 C1874 0.929 . S
H1845 C1877 0.928 . S
O1846 Co1830 2.057 . S
O1846 C1834 1.232 . S
H1847 C1866 0.929 . S
H1848 C1867 0.929 . S
H1849 C1879 0.931 . S
H1850 C1871 0.929 . S
H1851 C1880 0.930 . S
H1852 C1872 0.931 . S
O1853 Co1829 2.097 . S
O1853 C1881 1.214 . S
H1854 C1882 0.929 . S
H1855 C1883 0.929 . S
H1856 C1884 0.930 . S
H1857 C1885 0.929 . S
H1858 C1887 0.930 . S
H1859 C1864 0.930 . S
H1860 C1868 0.930 . S
O1861 Co1830 2.037 . S
O1861 C1881 1.234 . S
C1862 O1836 1.269 . S
C1862 O1837 1.257 . S
C1863 H1838 0.930 . S
C1863 C1866 1.388 . S
C1863 C1868 1.418 . S
C1864 H1859 0.930 . S
C1864 C1867 1.404 . S
C1864 C1868 1.353 . S
N1865 Co1830 2.145 . S
N1865 C1866 1.397 . S
N1865 C1867 1.334 . S
C1866 H1847 0.929 . S
C1866 C1863 1.388 . S
C1866 N1865 1.397 . S
C1867 H1848 0.929 . S
C1867 C1864 1.404 . S
C1867 N1865 1.334 . S
C1868 H1860 0.930 . S
C1868 C1863 1.418 . S
C1868 C1864 1.353 . S
C1869 H1839 0.930 . S
C1869 N1870 1.330 . S
C1869 C1871 1.446 . S
N1870 Co1829 2.151 . S
N1870 C1869 1.330 . S
N1870 C1874 1.418 . S
C1871 H1850 0.929 . S
C1871 C1869 1.446 . S
C1871 C1872 1.332 . S
C1872 H1852 0.931 . S
C1872 C1871 1.332 . S
C1872 C1873 1.267 . S
C1873 H1841 0.929 . S
C1873 C1872 1.267 . S
C1873 C1874 1.251 . S
C1874 H1844 0.929 . S
C1874 N1870 1.418 . S
C1874 C1873 1.251 . S
C1875 H1842 0.930 . S
C1875 C1877 1.406 . S
C1875 C1880 1.261 . S
C1876 H1843 0.930 . S
C1876 N1878 1.325 . S
C1876 C1879 1.357 . S
C1877 H1845 0.928 . S
C1877 C1875 1.406 . S
C1877 N1878 1.261 . S
N1878 Co1829 2.214 . S
N1878 C1876 1.325 . S
N1878 C1877 1.261 . S
C1879 H1849 0.931 . S
C1879 C1876 1.357 . S
C1879 C1880 1.312 . S
C1880 H1851 0.930 . S
C1880 C1875 1.261 . S
C1880 C1879 1.312 . S
C1881 O1853 1.214 . S
C1881 O1861 1.234 . S
C1882 H1854 0.929 . S
C1882 C1885 1.391 . S
C1882 C1887 1.391 . S
C1883 H1855 0.929 . S
C1883 C1884 1.390 . S
C1883 N1886 1.391 . S
C1884 H1856 0.930 . S
C1884 C1883 1.390 . S
C1884 C1885 1.392 . S
C1885 H1857 0.929 . S
C1885 C1882 1.391 . S
C1885 C1884 1.392 . S
N1886 Co1830 2.257 . S
N1886 C1883 1.391 . S
N1886 C1887 1.388 . S
C1887 H1858 0.930 . S
C1887 C1882 1.391 . S
C1887 N1886 1.388 . S
Co1888 O1890 2.143 . S
Co1888 O1896 2.074 . S
Co1888 O1899 2.093 . S
Co1888 O1912 2.097 . S
Co1888 N1929 2.151 . S
Co1888 N1937 2.214 . S
Co1889 O1890 2.160 . S
Co1889 O1895 2.058 . S
Co1889 O1905 2.057 . S
Co1889 O1920 2.037 . S
Co1889 N1924 2.145 . S
Co1889 N1945 2.257 . S
O1890 Co1888 2.143 . S
O1890 Co1889 2.160 . S
C1891 O1892 1.278 . S
C1891 O1899 1.224 . S
O1892 C1891 1.278 . S
C1893 O1894 1.245 . S
C1893 O1905 1.232 . S
O1894 C1893 1.245 . S
O1895 Co1889 2.058 . S
O1895 C1921 1.269 . S
O1896 Co1888 2.074 . S
O1896 C1921 1.257 . S
H1897 C1922 0.930 . S
H1898 C1928 0.930 . S
O1899 Co1888 2.093 . S
O1899 C1891 1.224 . S
H1900 C1932 0.929 . S
H1901 C1934 0.930 . S
H1902 C1935 0.930 . S
H1903 C1933 0.929 . S
H1904 C1936 0.928 . S
O1905 Co1889 2.057 . S
O1905 C1893 1.232 . S
H1906 C1925 0.929 . S
H1907 C1926 0.929 . S
H1908 C1938 0.931 . S
H1909 C1930 0.929 . S
H1910 C1939 0.930 . S
H1911 C1931 0.931 . S
O1912 Co1888 2.097 . S
O1912 C1940 1.214 . S
H1913 C1941 0.929 . S
H1914 C1942 0.929 . S
H1915 C1943 0.930 . S
H1916 C1944 0.929 . S
H1917 C1946 0.930 . S
H1918 C1923 0.930 . S
H1919 C1927 0.930 . S
O1920 Co1889 2.037 . S
O1920 C1940 1.234 . S
C1921 O1895 1.269 . S
C1921 O1896 1.257 . S
C1922 H1897 0.930 . S
C1922 C1925 1.388 . S
C1922 C1927 1.418 . S
C1923 H1918 0.930 . S
C1923 C1926 1.404 . S
C1923 C1927 1.353 . S
N1924 Co1889 2.145 . S
N1924 C1925 1.397 . S
N1924 C1926 1.334 . S
C1925 H1906 0.929 . S
C1925 C1922 1.388 . S
C1925 N1924 1.397 . S
C1926 H1907 0.929 . S
C1926 C1923 1.404 . S
C1926 N1924 1.334 . S
C1927 H1919 0.930 . S
C1927 C1922 1.418 . S
C1927 C1923 1.353 . S
C1928 H1898 0.930 . S
C1928 N1929 1.330 . S
C1928 C1930 1.446 . S
N1929 Co1888 2.151 . S
N1929 C1928 1.330 . S
N1929 C1933 1.418 . S
C1930 H1909 0.929 . S
C1930 C1928 1.446 . S
C1930 C1931 1.332 . S
C1931 H1911 0.931 . S
C1931 C1930 1.332 . S
C1931 C1932 1.267 . S
C1932 H1900 0.929 . S
C1932 C1931 1.267 . S
C1932 C1933 1.251 . S
C1933 H1903 0.929 . S
C1933 N1929 1.418 . S
C1933 C1932 1.251 . S
C1934 H1901 0.930 . S
C1934 C1936 1.406 . S
C1934 C1939 1.261 . S
C1935 H1902 0.930 . S
C1935 N1937 1.325 . S
C1935 C1938 1.357 . S
C1936 H1904 0.928 . S
C1936 C1934 1.406 . S
C1936 N1937 1.261 . S
N1937 Co1888 2.214 . S
N1937 C1935 1.325 . S
N1937 C1936 1.261 . S
C1938 H1908 0.931 . S
C1938 C1935 1.357 . S
C1938 C1939 1.312 . S
C1939 H1910 0.930 . S
C1939 C1934 1.261 . S
C1939 C1938 1.312 . S
C1940 O1912 1.214 . S
C1940 O1920 1.234 . S
C1941 H1913 0.929 . S
C1941 C1944 1.391 . S
C1941 C1946 1.391 . S
C1942 H1914 0.929 . S
C1942 C1943 1.390 . S
C1942 N1945 1.391 . S
C1943 H1915 0.930 . S
C1943 C1942 1.390 . S
C1943 C1944 1.392 . S
C1944 H1916 0.929 . S
C1944 C1941 1.391 . S
C1944 C1943 1.392 . S
N1945 Co1889 2.257 . S
N1945 C1942 1.391 . S
N1945 C1946 1.388 . S
C1946 H1917 0.930 . S
C1946 C1941 1.391 . S
C1946 N1945 1.388 . S
Co1947 O1949 2.143 . S
Co1947 O1955 2.074 . S
Co1947 O1958 2.093 . S
Co1947 O1971 2.097 . S
Co1947 N1988 2.151 . S
Co1947 N1996 2.214 . S
Co1948 O1949 2.160 . S
Co1948 O1954 2.058 . S
Co1948 O1964 2.057 . S
Co1948 O1979 2.037 . S
Co1948 N1983 2.145 . S
Co1948 N2004 2.257 . S
O1949 Co1947 2.143 . S
O1949 Co1948 2.160 . S
C1950 O1951 1.278 . S
C1950 O1958 1.224 . S
O1951 C1950 1.278 . S
C1952 O1953 1.245 . S
C1952 O1964 1.232 . S
O1953 C1952 1.245 . S
O1954 Co1948 2.058 . S
O1954 C1980 1.269 . S
O1955 Co1947 2.074 . S
O1955 C1980 1.257 . S
H1956 C1981 0.930 . S
H1957 C1987 0.930 . S
O1958 Co1947 2.093 . S
O1958 C1950 1.224 . S
H1959 C1991 0.929 . S
H1960 C1993 0.930 . S
H1961 C1994 0.930 . S
H1962 C1992 0.929 . S
H1963 C1995 0.928 . S
O1964 Co1948 2.057 . S
O1964 C1952 1.232 . S
H1965 C1984 0.929 . S
H1966 C1985 0.929 . S
H1967 C1997 0.931 . S
H1968 C1989 0.929 . S
H1969 C1998 0.930 . S
H1970 C1990 0.931 . S
O1971 Co1947 2.097 . S
O1971 C1999 1.214 . S
H1972 C2000 0.929 . S
H1973 C2001 0.929 . S
H1974 C2002 0.930 . S
H1975 C2003 0.929 1_655 S
H1976 C2005 0.930 . S
H1977 C1982 0.930 . S
H1978 C1986 0.930 . S
O1979 Co1948 2.037 . S
O1979 C1999 1.234 . S
C1980 O1954 1.269 . S
C1980 O1955 1.257 . S
C1981 H1956 0.930 . S
C1981 C1984 1.388 . S
C1981 C1986 1.418 . S
C1982 H1977 0.930 . S
C1982 C1985 1.404 . S
C1982 C1986 1.353 . S
N1983 Co1948 2.145 . S
N1983 C1984 1.397 . S
N1983 C1985 1.334 . S
C1984 H1965 0.929 . S
C1984 C1981 1.388 . S
C1984 N1983 1.397 . S
C1985 H1966 0.929 . S
C1985 C1982 1.404 . S
C1985 N1983 1.334 . S
C1986 H1978 0.930 . S
C1986 C1981 1.418 . S
C1986 C1982 1.353 . S
C1987 H1957 0.930 . S
C1987 N1988 1.330 . S
C1987 C1989 1.446 . S
N1988 Co1947 2.151 . S
N1988 C1987 1.330 . S
N1988 C1992 1.418 . S
C1989 H1968 0.929 . S
C1989 C1987 1.446 . S
C1989 C1990 1.332 . S
C1990 H1970 0.931 . S
C1990 C1989 1.332 . S
C1990 C1991 1.267 . S
C1991 H1959 0.929 . S
C1991 C1990 1.267 . S
C1991 C1992 1.251 . S
C1992 H1962 0.929 . S
C1992 N1988 1.418 . S
C1992 C1991 1.251 . S
C1993 H1960 0.930 . S
C1993 C1995 1.406 . S
C1993 C1998 1.261 . S
C1994 H1961 0.930 . S
C1994 N1996 1.325 . S
C1994 C1997 1.357 . S
C1995 H1963 0.928 . S
C1995 C1993 1.406 . S
C1995 N1996 1.261 . S
N1996 Co1947 2.214 . S
N1996 C1994 1.325 . S
N1996 C1995 1.261 . S
C1997 H1967 0.931 . S
C1997 C1994 1.357 . S
C1997 C1998 1.312 . S
C1998 H1969 0.930 . S
C1998 C1993 1.261 . S
C1998 C1997 1.312 . S
C1999 O1971 1.214 . S
C1999 O1979 1.234 . S
C2000 H1972 0.929 . S
C2000 C2003 1.391 . S
C2000 C2005 1.391 . S
C2001 H1973 0.929 . S
C2001 C2002 1.390 . S
C2001 N2004 1.391 . S
C2002 H1974 0.930 . S
C2002 C2001 1.390 . S
C2002 C2003 1.392 . S
C2003 H1975 0.929 1_455 S
C2003 C2000 1.391 . S
C2003 C2002 1.392 . S
N2004 Co1948 2.257 . S
N2004 C2001 1.391 . S
N2004 C2005 1.388 . S
C2005 H1976 0.930 . S
C2005 C2000 1.391 . S
C2005 N2004 1.388 . S
Co2006 O2008 2.143 . S
Co2006 O2014 2.074 . S
Co2006 O2017 2.093 . S
Co2006 O2030 2.097 . S
Co2006 N2047 2.151 . S
Co2006 N2055 2.214 . S
Co2007 O2008 2.160 . S
Co2007 O2013 2.058 . S
Co2007 O2023 2.057 . S
Co2007 O2038 2.037 . S
Co2007 N2042 2.145 . S
Co2007 N2063 2.257 . S
O2008 Co2006 2.143 . S
O2008 Co2007 2.160 . S
C2009 O2010 1.278 . S
C2009 O2017 1.224 . S
O2010 C2009 1.278 . S
C2011 O2012 1.245 . S
C2011 O2023 1.232 . S
O2012 C2011 1.245 . S
O2013 Co2007 2.058 . S
O2013 C2039 1.269 . S
O2014 Co2006 2.074 . S
O2014 C2039 1.257 . S
H2015 C2040 0.930 . S
H2016 C2046 0.930 . S
O2017 Co2006 2.093 . S
O2017 C2009 1.224 . S
H2018 C2050 0.929 . S
H2019 C2052 0.930 . S
H2020 C2053 0.930 . S
H2021 C2051 0.929 . S
H2022 C2054 0.928 . S
O2023 Co2007 2.057 . S
O2023 C2011 1.232 . S
H2024 C2043 0.929 . S
H2025 C2044 0.929 . S
H2026 C2056 0.931 . S
H2027 C2048 0.929 . S
H2028 C2057 0.930 . S
H2029 C2049 0.931 . S
O2030 Co2006 2.097 . S
O2030 C2058 1.214 . S
H2031 C2059 0.929 . S
H2032 C2060 0.929 . S
H2033 C2061 0.930 . S
H2034 C2062 0.929 . S
H2035 C2064 0.930 . S
H2036 C2041 0.930 . S
H2037 C2045 0.930 . S
O2038 Co2007 2.037 . S
O2038 C2058 1.234 . S
C2039 O2013 1.269 . S
C2039 O2014 1.257 . S
C2040 H2015 0.930 . S
C2040 C2043 1.388 . S
C2040 C2045 1.418 . S
C2041 H2036 0.930 . S
C2041 C2044 1.404 . S
C2041 C2045 1.353 . S
N2042 Co2007 2.145 . S
N2042 C2043 1.397 . S
N2042 C2044 1.334 . S
C2043 H2024 0.929 . S
C2043 C2040 1.388 . S
C2043 N2042 1.397 . S
C2044 H2025 0.929 . S
C2044 C2041 1.404 . S
C2044 N2042 1.334 . S
C2045 H2037 0.930 . S
C2045 C2040 1.418 . S
C2045 C2041 1.353 . S
C2046 H2016 0.930 . S
C2046 N2047 1.330 . S
C2046 C2048 1.446 . S
N2047 Co2006 2.151 . S
N2047 C2046 1.330 . S
N2047 C2051 1.418 . S
C2048 H2027 0.929 . S
C2048 C2046 1.446 . S
C2048 C2049 1.332 . S
C2049 H2029 0.931 . S
C2049 C2048 1.332 . S
C2049 C2050 1.267 . S
C2050 H2018 0.929 . S
C2050 C2049 1.267 . S
C2050 C2051 1.251 . S
C2051 H2021 0.929 . S
C2051 N2047 1.418 . S
C2051 C2050 1.251 . S
C2052 H2019 0.930 . S
C2052 C2054 1.406 . S
C2052 C2057 1.261 . S
C2053 H2020 0.930 . S
C2053 N2055 1.325 . S
C2053 C2056 1.357 . S
C2054 H2022 0.928 . S
C2054 C2052 1.406 . S
C2054 N2055 1.261 . S
N2055 Co2006 2.214 . S
N2055 C2053 1.325 . S
N2055 C2054 1.261 . S
C2056 H2026 0.931 . S
C2056 C2053 1.357 . S
C2056 C2057 1.312 . S
C2057 H2028 0.930 . S
C2057 C2052 1.261 . S
C2057 C2056 1.312 . S
C2058 O2030 1.214 . S
C2058 O2038 1.234 . S
C2059 H2031 0.929 . S
C2059 C2062 1.391 . S
C2059 C2064 1.391 . S
C2060 H2032 0.929 . S
C2060 C2061 1.390 . S
C2060 N2063 1.391 . S
C2061 H2033 0.930 . S
C2061 C2060 1.390 . S
C2061 C2062 1.392 . S
C2062 H2034 0.929 . S
C2062 C2059 1.391 . S
C2062 C2061 1.392 . S
N2063 Co2007 2.257 . S
N2063 C2060 1.391 . S
N2063 C2064 1.388 . S
C2064 H2035 0.930 . S
C2064 C2059 1.391 . S
C2064 N2063 1.388 . S
Co2065 O2067 2.143 . S
Co2065 O2073 2.074 . S
Co2065 O2076 2.093 . S
Co2065 O2089 2.097 . S
Co2065 N2106 2.151 . S
Co2065 N2114 2.214 . S
Co2066 O2067 2.160 . S
Co2066 O2072 2.058 . S
Co2066 O2082 2.057 . S
Co2066 O2097 2.037 . S
Co2066 N2101 2.145 . S
Co2066 N2122 2.257 . S
O2067 Co2065 2.143 . S
O2067 Co2066 2.160 . S
C2068 O2069 1.278 . S
C2068 O2076 1.224 . S
O2069 C2068 1.278 . S
C2070 O2071 1.245 . S
C2070 O2082 1.232 . S
O2071 C2070 1.245 . S
O2072 Co2066 2.058 . S
O2072 C2098 1.269 . S
O2073 Co2065 2.074 . S
O2073 C2098 1.257 . S
H2074 C2099 0.930 . S
H2075 C2105 0.930 . S
O2076 Co2065 2.093 . S
O2076 C2068 1.224 . S
H2077 C2109 0.929 . S
H2078 C2111 0.930 . S
H2079 C2112 0.930 . S
H2080 C2110 0.929 . S
H2081 C2113 0.928 . S
O2082 Co2066 2.057 . S
O2082 C2070 1.232 . S
H2083 C2102 0.929 . S
H2084 C2103 0.929 . S
H2085 C2115 0.931 . S
H2086 C2107 0.929 . S
H2087 C2116 0.930 . S
H2088 C2108 0.931 . S
O2089 Co2065 2.097 . S
O2089 C2117 1.214 . S
H2090 C2118 0.929 . S
H2091 C2119 0.929 . S
H2092 C2120 0.930 . S
H2093 C2121 0.929 1_545 S
H2094 C2123 0.930 . S
H2095 C2100 0.930 . S
H2096 C2104 0.930 . S
O2097 Co2066 2.037 . S
O2097 C2117 1.234 . S
C2098 O2072 1.269 . S
C2098 O2073 1.257 . S
C2099 H2074 0.930 . S
C2099 C2102 1.388 . S
C2099 C2104 1.418 . S
C2100 H2095 0.930 . S
C2100 C2103 1.404 . S
C2100 C2104 1.353 . S
N2101 Co2066 2.145 . S
N2101 C2102 1.397 . S
N2101 C2103 1.334 . S
C2102 H2083 0.929 . S
C2102 C2099 1.388 . S
C2102 N2101 1.397 . S
C2103 H2084 0.929 . S
C2103 C2100 1.404 . S
C2103 N2101 1.334 . S
C2104 H2096 0.930 . S
C2104 C2099 1.418 . S
C2104 C2100 1.353 . S
C2105 H2075 0.930 . S
C2105 N2106 1.330 . S
C2105 C2107 1.446 . S
N2106 Co2065 2.151 . S
N2106 C2105 1.330 . S
N2106 C2110 1.418 . S
C2107 H2086 0.929 . S
C2107 C2105 1.446 . S
C2107 C2108 1.332 . S
C2108 H2088 0.931 . S
C2108 C2107 1.332 . S
C2108 C2109 1.267 . S
C2109 H2077 0.929 . S
C2109 C2108 1.267 . S
C2109 C2110 1.251 . S
C2110 H2080 0.929 . S
C2110 N2106 1.418 . S
C2110 C2109 1.251 . S
C2111 H2078 0.930 . S
C2111 C2113 1.406 . S
C2111 C2116 1.261 . S
C2112 H2079 0.930 . S
C2112 N2114 1.325 . S
C2112 C2115 1.357 . S
C2113 H2081 0.928 . S
C2113 C2111 1.406 . S
C2113 N2114 1.261 . S
N2114 Co2065 2.214 . S
N2114 C2112 1.325 . S
N2114 C2113 1.261 . S
C2115 H2085 0.931 . S
C2115 C2112 1.357 . S
C2115 C2116 1.312 . S
C2116 H2087 0.930 . S
C2116 C2111 1.261 . S
C2116 C2115 1.312 . S
C2117 O2089 1.214 . S
C2117 O2097 1.234 . S
C2118 H2090 0.929 . S
C2118 C2121 1.391 . S
C2118 C2123 1.391 . S
C2119 H2091 0.929 . S
C2119 C2120 1.390 . S
C2119 N2122 1.391 . S
C2120 H2092 0.930 . S
C2120 C2119 1.390 . S
C2120 C2121 1.392 . S
C2121 H2093 0.929 1_565 S
C2121 C2118 1.391 . S
C2121 C2120 1.392 . S
N2122 Co2066 2.257 . S
N2122 C2119 1.391 . S
N2122 C2123 1.388 . S
C2123 H2094 0.930 . S
C2123 C2118 1.391 . S
C2123 N2122 1.388 . S
C2124 C2125 1.369 . S
C2124 C2126 1.419 1_455 S
C2124 H2128 0.930 . S
C2125 C2124 1.369 . S
C2125 C2134 1.429 . S
C2126 C2124 1.419 1_655 S
C2126 C2127 1.363 . S
C2126 H2129 0.929 . S
C2127 C2126 1.363 . S
C2127 C2133 1.428 . S
H2128 C2124 0.930 . S
H2129 C2126 0.929 . S
S2130 N2131 1.613 . S
S2130 N2132 1.610 1_455 S
N2131 S2130 1.613 . S
N2131 C2134 1.350 . S
N2132 S2130 1.610 1_655 S
N2132 C2133 1.351 . S
C2133 C2127 1.428 . S
C2133 N2132 1.351 . S
C2133 C2134 1.434 1_655 S
C2134 C2125 1.429 . S
C2134 N2131 1.350 . S
C2134 C2133 1.434 1_455 S
C2135 C2136 1.369 . S
C2135 C2137 1.419 . S
C2135 H2139 0.930 . S
C2136 C2135 1.369 . S
C2136 C2145 1.429 . S
C2137 C2135 1.419 . S
C2137 C2138 1.363 . S
C2137 H2140 0.929 . S
C2138 C2137 1.363 . S
C2138 C2144 1.428 . S
H2139 C2135 0.930 . S
H2140 C2137 0.929 . S
S2141 N2142 1.613 . S
S2141 N2143 1.610 . S
N2142 S2141 1.613 . S
N2142 C2145 1.350 . S
N2143 S2141 1.610 . S
N2143 C2144 1.351 . S
C2144 C2138 1.428 . S
C2144 N2143 1.351 . S
C2144 C2145 1.434 . S
C2145 C2136 1.429 . S
C2145 N2142 1.350 . S
C2145 C2144 1.434 . S
C2146 C2147 1.369 . S
C2146 C2148 1.419 1_545 S
C2146 H2150 0.930 . S
C2147 C2146 1.369 . S
C2147 C2156 1.429 . S
C2148 C2146 1.419 1_565 S
C2148 C2149 1.363 . S
C2148 H2151 0.929 . S
C2149 C2148 1.363 . S
C2149 C2155 1.428 . S
H2150 C2146 0.930 . S
H2151 C2148 0.929 . S
S2152 N2153 1.613 1_565 S
S2152 N2154 1.610 . S
N2153 S2152 1.613 1_545 S
N2153 C2156 1.350 . S
N2154 S2152 1.610 . S
N2154 C2155 1.351 . S
C2155 C2149 1.428 . S
C2155 N2154 1.351 . S
C2155 C2156 1.434 1_565 S
C2156 C2147 1.429 . S
C2156 N2153 1.350 . S
C2156 C2155 1.434 1_545 S
C2157 C2158 1.369 . S
C2157 C2159 1.419 1_545 S
C2157 H2161 0.930 . S
C2158 C2157 1.369 . S
C2158 C2167 1.429 . S
C2159 C2157 1.419 1_565 S
C2159 C2160 1.363 . S
C2159 H2162 0.929 . S
C2160 C2159 1.363 . S
C2160 C2166 1.428 . S
H2161 C2157 0.930 . S
H2162 C2159 0.929 . S
S2163 N2164 1.613 1_565 S
S2163 N2165 1.610 . S
N2164 S2163 1.613 1_545 S
N2164 C2167 1.350 . S
N2165 S2163 1.610 . S
N2165 C2166 1.351 . S
C2166 C2160 1.428 . S
C2166 N2165 1.351 . S
C2166 C2167 1.434 1_565 S
C2167 C2158 1.429 . S
C2167 N2164 1.350 . S
C2167 C2166 1.434 1_545 S
C2168 C2169 1.369 . S
C2168 C2170 1.419 1_655 S
C2168 H2172 0.930 . S
C2169 C2168 1.369 . S
C2169 C2178 1.429 . S
C2170 C2168 1.419 1_455 S
C2170 C2171 1.363 . S
C2170 H2173 0.929 . S
C2171 C2170 1.363 . S
C2171 C2177 1.428 . S
H2172 C2168 0.930 . S
H2173 C2170 0.929 . S
S2174 N2175 1.613 . S
S2174 N2176 1.610 1_655 S
N2175 S2174 1.613 . S
N2175 C2178 1.350 . S
N2176 S2174 1.610 1_455 S
N2176 C2177 1.351 . S
C2177 C2171 1.428 . S
C2177 N2176 1.351 . S
C2177 C2178 1.434 1_455 S
C2178 C2169 1.429 . S
C2178 N2175 1.350 . S
C2178 C2177 1.434 1_655 S
C2179 C2180 1.369 . S
C2179 C2181 1.419 . S
C2179 H2183 0.930 . S
C2180 C2179 1.369 . S
C2180 C2189 1.429 . S
C2181 C2179 1.419 . S
C2181 C2182 1.363 . S
C2181 H2184 0.929 . S
C2182 C2181 1.363 . S
C2182 C2188 1.428 . S
H2183 C2179 0.930 . S
H2184 C2181 0.929 . S
S2185 N2186 1.613 . S
S2185 N2187 1.610 . S
N2186 S2185 1.613 . S
N2186 C2189 1.350 . S
N2187 S2185 1.610 . S
N2187 C2188 1.351 . S
C2188 C2182 1.428 . S
C2188 N2187 1.351 . S
C2188 C2189 1.434 . S
C2189 C2180 1.429 . S
C2189 N2186 1.350 . S
C2189 C2188 1.434 . S
C2190 C2191 1.369 . S
C2190 C2192 1.419 1_655 S
C2190 H2194 0.930 . S
C2191 C2190 1.369 . S
C2191 C2200 1.429 . S
C2192 C2190 1.419 1_455 S
C2192 C2193 1.363 . S
C2192 H2195 0.929 . S
C2193 C2192 1.363 . S
C2193 C2199 1.428 . S
H2194 C2190 0.930 . S
H2195 C2192 0.929 . S
S2196 N2197 1.597 1_455 S
S2196 N2198 1.614 . S
N2197 S2196 1.597 1_655 S
N2197 C2200 1.350 . S
N2198 S2196 1.614 . S
N2198 C2199 1.351 . S
C2199 C2193 1.428 . S
C2199 N2198 1.351 . S
C2199 C2200 1.434 1_455 S
C2200 C2191 1.429 . S
C2200 N2197 1.350 . S
C2200 C2199 1.434 1_655 S
C2201 C2202 1.369 . S
C2201 C2203 1.419 . S
C2201 H2205 0.930 . S
C2202 C2201 1.369 . S
C2202 C2211 1.429 . S
C2203 C2201 1.419 . S
C2203 C2204 1.363 . S
C2203 H2206 0.929 . S
C2204 C2203 1.363 . S
C2204 C2210 1.428 . S
H2205 C2201 0.930 . S
H2206 C2203 0.929 . S
S2207 N2208 1.613 . S
S2207 N2209 1.610 . S
N2208 S2207 1.613 . S
N2208 C2211 1.350 . S
N2209 S2207 1.610 . S
N2209 C2210 1.351 . S
C2210 C2204 1.428 . S
C2210 N2209 1.351 . S
C2210 C2211 1.434 . S
C2211 C2202 1.429 . S
C2211 N2208 1.350 . S
C2211 C2210 1.434 . S
C2212 C2213 1.369 . S
C2212 C2214 1.419 1_565 S
C2212 H2216 0.930 . S
C2213 C2212 1.369 . S
C2213 C2222 1.429 . S
C2214 C2212 1.419 1_545 S
C2214 C2215 1.363 . S
C2214 H2217 0.929 . S
C2215 C2214 1.363 . S
C2215 C2221 1.428 . S
H2216 C2212 0.930 . S
H2217 C2214 0.929 . S
S2218 N2219 1.613 1_545 S
S2218 N2220 1.610 . S
N2219 S2218 1.613 1_565 S
N2219 C2222 1.350 . S
N2220 S2218 1.610 . S
N2220 C2221 1.351 . S
C2221 C2215 1.428 . S
C2221 N2220 1.351 . S
C2221 C2222 1.434 1_545 S
C2222 C2213 1.429 . S
C2222 N2219 1.350 . S
C2222 C2221 1.434 1_565 S
C2223 C2224 1.369 . S
C2223 C2225 1.419 1_545 S
C2223 H2227 0.930 . S
C2224 C2223 1.369 . S
C2224 C2233 1.429 . S
C2225 C2223 1.419 1_565 S
C2225 C2226 1.363 . S
C2225 H2228 0.929 . S
C2226 C2225 1.363 . S
C2226 C2232 1.428 . S
H2227 C2223 0.930 . S
H2228 C2225 0.929 . S
S2229 N2230 1.613 1_565 S
S2229 N2231 1.610 . S
N2230 S2229 1.613 1_545 S
N2230 C2233 1.350 . S
N2231 S2229 1.610 . S
N2231 C2232 1.351 . S
C2232 C2226 1.428 . S
C2232 N2231 1.351 . S
C2232 C2233 1.434 1_565 S
C2233 C2224 1.429 . S
C2233 N2230 1.350 . S
C2233 C2232 1.434 1_545 S
C2234 C2235 1.369 . S
C2234 C2236 1.419 1_455 S
C2234 H2238 0.930 . S
C2235 C2234 1.369 . S
C2235 C2244 1.429 . S
C2236 C2234 1.419 1_655 S
C2236 C2237 1.363 . S
C2236 H2239 0.929 . S
C2237 C2236 1.363 . S
C2237 C2243 1.428 . S
H2238 C2234 0.930 . S
H2239 C2236 0.929 . S
S2240 N2241 1.613 . S
S2240 N2242 1.610 1_455 S
N2241 S2240 1.613 . S
N2241 C2244 1.350 . S
N2242 S2240 1.610 1_655 S
N2242 C2243 1.351 . S
C2243 C2237 1.428 . S
C2243 N2242 1.351 . S
C2243 C2244 1.434 1_655 S
C2244 C2235 1.429 . S
C2244 N2241 1.350 . S
C2244 C2243 1.434 1_455 S
C2245 C2246 1.369 . S
C2245 C2247 1.419 . S
C2245 H2249 0.930 . S
C2246 C2245 1.369 . S
C2246 C2255 1.429 . S
C2247 C2245 1.419 . S
C2247 C2248 1.363 . S
C2247 H2250 0.929 . S
C2248 C2247 1.363 . S
C2248 C2254 1.428 . S
H2249 C2245 0.930 . S
H2250 C2247 0.929 . S
S2251 N2252 1.613 . S
S2251 N2253 1.610 . S
N2252 S2251 1.613 . S
N2252 C2255 1.350 . S
N2253 S2251 1.610 . S
N2253 C2254 1.351 . S
C2254 C2248 1.428 . S
C2254 N2253 1.351 . S
C2254 C2255 1.434 . S
C2255 C2246 1.429 . S
C2255 N2252 1.350 . S
C2255 C2254 1.434 . S
C2256 C2257 1.369 . S
C2256 C2258 1.419 . S
C2256 H2260 0.930 . S
C2257 C2256 1.369 . S
C2257 C2266 1.429 . S
C2258 C2256 1.419 . S
C2258 C2259 1.363 . S
C2258 H2261 0.929 . S
C2259 C2258 1.363 . S
C2259 C2265 1.428 . S
H2260 C2256 0.930 . S
H2261 C2258 0.929 . S
S2262 N2263 1.613 . S
S2262 N2264 1.610 . S
N2263 S2262 1.613 . S
N2263 C2266 1.350 . S
N2264 S2262 1.610 . S
N2264 C2265 1.351 . S
C2265 C2259 1.428 . S
C2265 N2264 1.351 . S
C2265 C2266 1.434 . S
C2266 C2257 1.429 . S
C2266 N2263 1.350 . S
C2266 C2265 1.434 . S
C2267 C2268 1.369 . S
C2267 C2269 1.419 . S
C2267 H2271 0.930 . S
C2268 C2267 1.369 . S
C2268 C2277 1.429 . S
C2269 C2267 1.419 . S
C2269 C2270 1.363 . S
C2269 H2272 0.929 . S
C2270 C2269 1.363 . S
C2270 C2276 1.428 . S
H2271 C2267 0.930 . S
H2272 C2269 0.929 . S
S2273 N2274 1.613 . S
S2273 N2275 1.610 . S
N2274 S2273 1.613 . S
N2274 C2277 1.350 . S
N2275 S2273 1.610 . S
N2275 C2276 1.351 . S
C2276 C2270 1.428 . S
C2276 N2275 1.351 . S
C2276 C2277 1.434 . S
C2277 C2268 1.429 . S
C2277 N2274 1.350 . S
C2277 C2276 1.434 . S
C2278 C2279 1.369 . S
C2278 C2280 1.419 . S
C2278 H2282 0.930 . S
C2279 C2278 1.369 . S
C2279 C2288 1.429 . S
C2280 C2278 1.419 . S
C2280 C2281 1.363 . S
C2280 H2283 0.929 . S
C2281 C2280 1.363 . S
C2281 C2287 1.428 . S
H2282 C2278 0.930 . S
H2283 C2280 0.929 . S
S2284 N2285 1.613 . S
S2284 N2286 1.610 . S
N2285 S2284 1.613 . S
N2285 C2288 1.350 . S
N2286 S2284 1.610 . S
N2286 C2287 1.351 . S
C2287 C2281 1.428 . S
C2287 N2286 1.351 . S
C2287 C2288 1.434 . S
C2288 C2279 1.429 . S
C2288 N2285 1.350 . S
C2288 C2287 1.434 . S
C2289 C2290 1.369 . S
C2289 C2291 1.419 . S
C2289 H2293 0.930 . S
C2290 C2289 1.369 . S
C2290 C2299 1.429 . S
C2291 C2289 1.419 . S
C2291 C2292 1.363 . S
C2291 H2294 0.929 . S
C2292 C2291 1.363 . S
C2292 C2298 1.428 . S
H2293 C2289 0.930 . S
H2294 C2291 0.929 . S
S2295 N2296 1.613 . S
S2295 N2297 1.610 . S
N2296 S2295 1.613 . S
N2296 C2299 1.350 . S
N2297 S2295 1.610 . S
N2297 C2298 1.351 . S
C2298 C2292 1.428 . S
C2298 N2297 1.351 . S
C2298 C2299 1.434 . S
C2299 C2290 1.429 . S
C2299 N2296 1.350 . S
C2299 C2298 1.434 . S
C2300 C2301 1.369 . S
C2300 C2302 1.419 . S
C2300 H2304 0.930 . S
C2301 C2300 1.369 . S
C2301 C2310 1.429 . S
C2302 C2300 1.419 . S
C2302 C2303 1.363 . S
C2302 H2305 0.929 . S
C2303 C2302 1.363 . S
C2303 C2309 1.428 . S
H2304 C2300 0.930 . S
H2305 C2302 0.929 . S
S2306 N2307 1.613 . S
S2306 N2308 1.610 . S
N2307 S2306 1.613 . S
N2307 C2310 1.350 . S
N2308 S2306 1.610 . S
N2308 C2309 1.351 . S
C2309 C2303 1.428 . S
C2309 N2308 1.351 . S
C2309 C2310 1.434 . S
C2310 C2301 1.429 . S
C2310 N2307 1.350 . S
C2310 C2309 1.434 . S
C2311 C2312 1.369 . S
C2311 C2313 1.419 . S
C2311 H2315 0.930 . S
C2312 C2311 1.369 . S
C2312 C2321 1.429 . S
C2313 C2311 1.419 . S
C2313 C2314 1.363 . S
C2313 H2316 0.929 . S
C2314 C2313 1.363 . S
C2314 C2320 1.428 . S
H2315 C2311 0.930 . S
H2316 C2313 0.929 . S
S2317 N2318 1.613 . S
S2317 N2319 1.610 . S
N2318 S2317 1.613 . S
N2318 C2321 1.350 . S
N2319 S2317 1.610 . S
N2319 C2320 1.351 . S
C2320 C2314 1.428 . S
C2320 N2319 1.351 . S
C2320 C2321 1.434 . S
C2321 C2312 1.429 . S
C2321 N2318 1.350 . S
C2321 C2320 1.434 . S
C2322 C2323 1.369 . S
C2322 C2324 1.419 . S
C2322 H2326 0.930 . S
C2323 C2322 1.369 . S
C2323 C2332 1.429 . S
C2324 C2322 1.419 . S
C2324 C2325 1.363 . S
C2324 H2327 0.929 . S
C2325 C2324 1.363 . S
C2325 C2331 1.428 . S
H2326 C2322 0.930 . S
H2327 C2324 0.929 . S
S2328 N2329 1.613 . S
S2328 N2330 1.610 . S
N2329 S2328 1.613 . S
N2329 C2332 1.350 . S
N2330 S2328 1.610 . S
N2330 C2331 1.351 . S
C2331 C2325 1.428 . S
C2331 N2330 1.351 . S
C2331 C2332 1.434 . S
C2332 C2323 1.429 . S
C2332 N2329 1.350 . S
C2332 C2331 1.434 . S
C2333 C2334 1.369 . S
C2333 C2335 1.419 . S
C2333 H2337 0.930 . S
C2334 C2333 1.369 . S
C2334 C2343 1.429 . S
C2335 C2333 1.419 . S
C2335 C2336 1.363 . S
C2335 H2338 0.929 . S
C2336 C2335 1.363 . S
C2336 C2342 1.428 . S
H2337 C2333 0.930 . S
H2338 C2335 0.929 . S
S2339 N2340 1.613 . S
S2339 N2341 1.610 . S
N2340 S2339 1.613 . S
N2340 C2343 1.350 . S
N2341 S2339 1.610 . S
N2341 C2342 1.351 . S
C2342 C2336 1.428 . S
C2342 N2341 1.351 . S
C2342 C2343 1.434 . S
C2343 C2334 1.429 . S
C2343 N2340 1.350 . S
C2343 C2342 1.434 . S
C2344 C2345 1.369 . S
C2344 C2346 1.419 . S
C2344 H2348 0.930 . S
C2345 C2344 1.369 . S
C2345 C2354 1.429 . S
C2346 C2344 1.419 . S
C2346 C2347 1.363 . S
C2346 H2349 0.929 . S
C2347 C2346 1.363 . S
C2347 C2353 1.428 . S
H2348 C2344 0.930 . S
H2349 C2346 0.929 . S
S2350 N2351 1.613 . S
S2350 N2352 1.610 . S
N2351 S2350 1.613 . S
N2351 C2354 1.350 . S
N2352 S2350 1.610 . S
N2352 C2353 1.351 . S
C2353 C2347 1.428 . S
C2353 N2352 1.351 . S
C2353 C2354 1.434 . S
C2354 C2345 1.429 . S
C2354 N2351 1.350 . S
C2354 C2353 1.434 . S
C2355 C2356 1.369 1_554 S
C2355 C2357 1.419 . S
C2355 H2359 0.930 . S
C2356 C2355 1.369 1_556 S
C2356 C2365 1.429 . S
C2357 C2355 1.419 . S
C2357 C2358 1.363 . S
C2357 H2360 0.929 . S
C2358 C2357 1.363 . S
C2358 C2364 1.428 1_554 S
H2359 C2355 0.930 . S
H2360 C2357 0.929 . S
S2361 N2362 1.613 . S
S2361 N2363 1.610 . S
N2362 S2361 1.613 . S
N2362 C2365 1.350 . S
N2363 S2361 1.610 . S
N2363 C2364 1.351 . S
C2364 C2358 1.428 1_556 S
C2364 N2363 1.351 . S
C2364 C2365 1.434 . S
C2365 C2356 1.429 . S
C2365 N2362 1.350 . S
C2365 C2364 1.434 . S
C2366 C2367 1.369 . S
C2366 C2368 1.419 . S
C2366 H2370 0.930 . S
C2367 C2366 1.369 . S
C2367 C2376 1.429 1_554 S
C2368 C2366 1.419 . S
C2368 C2369 1.363 1_554 S
C2368 H2371 0.929 . S
C2369 C2368 1.363 1_556 S
C2369 C2375 1.428 . S
H2370 C2366 0.930 . S
H2371 C2368 0.929 . S
S2372 N2373 1.613 . S
S2372 N2374 1.610 . S
N2373 S2372 1.613 . S
N2373 C2376 1.350 . S
N2374 S2372 1.610 . S
N2374 C2375 1.351 . S
C2375 C2369 1.428 . S
C2375 N2374 1.351 . S
C2375 C2376 1.434 . S
C2376 C2367 1.429 1_556 S
C2376 N2373 1.350 . S
C2376 C2375 1.434 . S
C2377 C2378 1.369 . S
C2377 C2379 1.419 . S
C2377 H2381 0.930 . S
C2378 C2377 1.369 . S
C2378 C2387 1.429 1_556 S
C2379 C2377 1.419 . S
C2379 C2380 1.363 1_556 S
C2379 H2382 0.929 . S
C2380 C2379 1.363 1_554 S
C2380 C2386 1.428 . S
H2381 C2377 0.930 . S
H2382 C2379 0.929 . S
S2383 N2384 1.613 . S
S2383 N2385 1.610 . S
N2384 S2383 1.613 . S
N2384 C2387 1.350 . S
N2385 S2383 1.610 . S
N2385 C2386 1.351 . S
C2386 C2380 1.428 . S
C2386 N2385 1.351 . S
C2386 C2387 1.434 . S
C2387 C2378 1.429 1_554 S
C2387 N2384 1.350 . S
C2387 C2386 1.434 . S
C2388 C2389 1.369 . S
C2388 C2390 1.419 . S
C2388 H2392 0.930 . S
C2389 C2388 1.369 . S
C2389 C2398 1.429 . S
C2390 C2388 1.419 . S
C2390 C2391 1.363 . S
C2390 H2393 0.929 . S
C2391 C2390 1.363 . S
C2391 C2397 1.428 . S
H2392 C2388 0.930 . S
H2393 C2390 0.929 . S
S2394 N2395 1.613 . S
S2394 N2396 1.610 . S
N2395 S2394 1.613 . S
N2395 C2398 1.350 . S
N2396 S2394 1.610 . S
N2396 C2397 1.351 . S
C2397 C2391 1.428 . S
C2397 N2396 1.351 . S
C2397 C2398 1.434 . S
C2398 C2389 1.429 . S
C2398 N2395 1.350 . S
C2398 C2397 1.434 . S
C2399 C2400 1.369 . S
C2399 C2401 1.419 . S
C2399 H2403 0.930 . S
C2400 C2399 1.369 . S
C2400 C2409 1.429 . S
C2401 C2399 1.419 . S
C2401 C2402 1.363 . S
C2401 H2404 0.929 . S
C2402 C2401 1.363 . S
C2402 C2408 1.428 . S
H2403 C2399 0.930 . S
H2404 C2401 0.929 . S
S2405 N2406 1.613 . S
S2405 N2407 1.610 . S
N2406 S2405 1.613 . S
N2406 C2409 1.350 . S
N2407 S2405 1.610 . S
N2407 C2408 1.351 . S
C2408 C2402 1.428 . S
C2408 N2407 1.351 . S
C2408 C2409 1.434 . S
C2409 C2400 1.429 . S
C2409 N2406 1.350 . S
C2409 C2408 1.434 . S
C2410 C2411 1.369 . S
C2410 C2412 1.419 . S
C2410 H2414 0.930 . S
C2411 C2410 1.369 . S
C2411 C2420 1.429 . S
C2412 C2410 1.419 . S
C2412 C2413 1.363 . S
C2412 H2415 0.929 . S
C2413 C2412 1.363 . S
C2413 C2419 1.428 . S
H2414 C2410 0.930 . S
H2415 C2412 0.929 . S
S2416 N2417 1.613 . S
S2416 N2418 1.610 . S
N2417 S2416 1.613 . S
N2417 C2420 1.350 . S
N2418 S2416 1.610 . S
N2418 C2419 1.351 . S
C2419 C2413 1.428 . S
C2419 N2418 1.351 . S
C2419 C2420 1.434 . S
C2420 C2411 1.429 . S
C2420 N2417 1.350 . S
C2420 C2419 1.434 . S
C2421 C2422 1.369 1_556 S
C2421 C2423 1.419 . S
C2421 H2425 0.930 . S
C2422 C2421 1.369 1_554 S
C2422 C2431 1.429 . S
C2423 C2421 1.419 . S
C2423 C2424 1.363 . S
C2423 H2426 0.929 . S
C2424 C2423 1.363 . S
C2424 C2430 1.428 1_556 S
H2425 C2421 0.930 . S
H2426 C2423 0.929 . S
S2427 N2428 1.613 . S
S2427 N2429 1.610 . S
N2428 S2427 1.613 . S
N2428 C2431 1.350 . S
N2429 S2427 1.610 . S
N2429 C2430 1.351 . S
C2430 C2424 1.428 1_554 S
C2430 N2429 1.351 . S
C2430 C2431 1.434 . S
C2431 C2422 1.429 . S
C2431 N2428 1.350 . S
C2431 C2430 1.434 . S
C2432 C2433 1.378 . S
C2432 C2434 1.411 1_556 S
C2432 H2436 0.934 . S
C2433 C2432 1.378 . S
C2433 C2442 1.429 . S
C2434 C2432 1.411 1_554 S
C2434 C2435 1.363 . S
C2434 H2437 0.929 . S
C2435 C2434 1.363 . S
C2435 C2441 1.429 1_554 S
H2436 C2432 0.934 . S
H2437 C2434 0.929 . S
S2438 N2439 1.621 . S
S2438 N2440 1.604 1_556 S
N2439 S2438 1.621 . S
N2439 C2442 1.350 . S
N2440 S2438 1.604 1_554 S
N2440 C2441 1.349 1_554 S
C2441 C2435 1.429 1_556 S
C2441 N2440 1.349 1_556 S
C2441 C2442 1.433 . S
C2442 C2433 1.429 . S
C2442 N2439 1.350 . S
C2442 C2441 1.433 . S
C2443 C2444 1.369 . S
C2443 C2445 1.419 . S
C2443 H2447 0.930 . S
C2444 C2443 1.369 . S
C2444 C2453 1.429 1_554 S
C2445 C2443 1.419 . S
C2445 C2446 1.363 1_554 S
C2445 H2448 0.929 . S
C2446 C2445 1.363 1_556 S
C2446 C2452 1.428 . S
H2447 C2443 0.930 . S
H2448 C2445 0.929 . S
S2449 N2450 1.613 . S
S2449 N2451 1.610 . S
N2450 S2449 1.613 . S
N2450 C2453 1.350 . S
N2451 S2449 1.610 . S
N2451 C2452 1.351 . S
C2452 C2446 1.428 . S
C2452 N2451 1.351 . S
C2452 C2453 1.434 . S
C2453 C2444 1.429 1_556 S
C2453 N2450 1.350 . S
C2453 C2452 1.434 . S
C2454 C2455 1.369 . S
C2454 C2456 1.419 . S
C2454 H2458 0.930 . S
C2455 C2454 1.369 . S
C2455 C2464 1.429 . S
C2456 C2454 1.419 . S
C2456 C2457 1.363 . S
C2456 H2459 0.929 . S
C2457 C2456 1.363 . S
C2457 C2463 1.428 . S
H2458 C2454 0.930 . S
H2459 C2456 0.929 . S
S2460 N2461 1.613 . S
S2460 N2462 1.610 . S
N2461 S2460 1.613 . S
N2461 C2464 1.350 . S
N2462 S2460 1.610 . S
N2462 C2463 1.351 . S
C2463 C2457 1.428 . S
C2463 N2462 1.351 . S
C2463 C2464 1.434 . S
C2464 C2455 1.429 . S
C2464 N2461 1.350 . S
C2464 C2463 1.434 . S
C2465 C2466 1.369 . S
C2465 C2467 1.419 . S
C2465 H2469 0.930 . S
C2466 C2465 1.369 . S
C2466 C2475 1.429 . S
C2467 C2465 1.419 . S
C2467 C2468 1.363 . S
C2467 H2470 0.929 . S
C2468 C2467 1.363 . S
C2468 C2474 1.428 . S
H2469 C2465 0.930 . S
H2470 C2467 0.929 . S
S2471 N2472 1.613 . S
S2471 N2473 1.610 . S
N2472 S2471 1.613 . S
N2472 C2475 1.350 . S
N2473 S2471 1.610 . S
N2473 C2474 1.351 . S
C2474 C2468 1.428 . S
C2474 N2473 1.351 . S
C2474 C2475 1.434 . S
C2475 C2466 1.429 . S
C2475 N2472 1.350 . S
C2475 C2474 1.434 . S
C2476 C2477 1.369 . S
C2476 C2478 1.419 . S
C2476 H2480 0.930 . S
C2477 C2476 1.369 . S
C2477 C2486 1.429 . S
C2478 C2476 1.419 . S
C2478 C2479 1.363 . S
C2478 H2481 0.929 . S
C2479 C2478 1.363 . S
C2479 C2485 1.428 . S
H2480 C2476 0.930 . S
H2481 C2478 0.929 . S
S2482 N2483 1.613 . S
S2482 N2484 1.610 . S
N2483 S2482 1.613 . S
N2483 C2486 1.350 . S
N2484 S2482 1.610 . S
N2484 C2485 1.351 . S
C2485 C2479 1.428 . S
C2485 N2484 1.351 . S
C2485 C2486 1.434 . S
C2486 C2477 1.429 . S
C2486 N2483 1.350 . S
C2486 C2485 1.434 . S
C2487 C2488 1.369 . S
C2487 C2489 1.419 . S
C2487 H2491 0.930 . S
C2488 C2487 1.369 . S
C2488 C2497 1.429 . S
C2489 C2487 1.419 . S
C2489 C2490 1.363 . S
C2489 H2492 0.929 . S
C2490 C2489 1.363 . S
C2490 C2496 1.428 . S
H2491 C2487 0.930 . S
H2492 C2489 0.929 . S
S2493 N2494 1.613 . S
S2493 N2495 1.610 . S
N2494 S2493 1.613 . S
N2494 C2497 1.350 . S
N2495 S2493 1.610 . S
N2495 C2496 1.351 . S
C2496 C2490 1.428 . S
C2496 N2495 1.351 . S
C2496 C2497 1.434 . S
C2497 C2488 1.429 . S
C2497 N2494 1.350 . S
C2497 C2496 1.434 . S
C2498 C2499 1.369 . S
C2498 C2500 1.419 . S
C2498 H2502 0.930 . S
C2499 C2498 1.369 . S
C2499 C2508 1.429 . S
C2500 C2498 1.419 . S
C2500 C2501 1.363 . S
C2500 H2503 0.929 . S
C2501 C2500 1.363 . S
C2501 C2507 1.428 . S
H2502 C2498 0.930 . S
H2503 C2500 0.929 . S
S2504 N2505 1.613 . S
S2504 N2506 1.610 . S
N2505 S2504 1.613 . S
N2505 C2508 1.350 . S
N2506 S2504 1.610 . S
N2506 C2507 1.351 . S
C2507 C2501 1.428 . S
C2507 N2506 1.351 . S
C2507 C2508 1.434 . S
C2508 C2499 1.429 . S
C2508 N2505 1.350 . S
C2508 C2507 1.434 . S
C2509 C2510 1.369 . S
C2509 C2511 1.419 . S
C2509 H2513 0.930 . S
C2510 C2509 1.369 . S
C2510 C2519 1.429 . S
C2511 C2509 1.419 . S
C2511 C2512 1.363 . S
C2511 H2514 0.929 . S
C2512 C2511 1.363 . S
C2512 C2518 1.428 . S
H2513 C2509 0.930 . S
H2514 C2511 0.929 . S
S2515 N2516 1.613 . S
S2515 N2517 1.610 . S
N2516 S2515 1.613 . S
N2516 C2519 1.350 . S
N2517 S2515 1.610 . S
N2517 C2518 1.351 . S
C2518 C2512 1.428 . S
C2518 N2517 1.351 . S
C2518 C2519 1.434 . S
C2519 C2510 1.429 . S
C2519 N2516 1.350 . S
C2519 C2518 1.434 . S
C2520 C2521 1.369 . S
C2520 C2522 1.419 . S
C2520 H2524 0.930 . S
C2521 C2520 1.369 . S
C2521 C2530 1.429 . S
C2522 C2520 1.419 . S
C2522 C2523 1.363 . S
C2522 H2525 0.929 . S
C2523 C2522 1.363 . S
C2523 C2529 1.428 . S
H2524 C2520 0.930 . S
H2525 C2522 0.929 . S
S2526 N2527 1.613 . S
S2526 N2528 1.610 . S
N2527 S2526 1.613 . S
N2527 C2530 1.350 . S
N2528 S2526 1.610 . S
N2528 C2529 1.351 . S
C2529 C2523 1.428 . S
C2529 N2528 1.351 . S
C2529 C2530 1.434 . S
C2530 C2521 1.429 . S
C2530 N2527 1.350 . S
C2530 C2529 1.434 . S
C2531 C2532 1.369 1_545 S
C2531 C2533 1.419 . S
C2531 H2535 0.930 . S
C2532 C2531 1.369 1_565 S
C2532 C2541 1.429 . S
C2533 C2531 1.419 . S
C2533 C2534 1.363 . S
C2533 H2536 0.929 . S
C2534 C2533 1.363 . S
C2534 C2540 1.428 1_545 S
H2535 C2531 0.930 . S
H2536 C2533 0.929 . S
S2537 N2538 1.613 . S
S2537 N2539 1.610 . S
N2538 S2537 1.613 . S
N2538 C2541 1.350 . S
N2539 S2537 1.610 . S
N2539 C2540 1.351 . S
C2540 C2534 1.428 1_565 S
C2540 N2539 1.351 . S
C2540 C2541 1.434 . S
C2541 C2532 1.429 . S
C2541 N2538 1.350 . S
C2541 C2540 1.434 . S
C2542 C2543 1.369 1_455 S
C2542 C2544 1.419 . S
C2542 H2546 0.930 . S
C2543 C2542 1.369 1_655 S
C2543 C2552 1.429 . S
C2544 C2542 1.419 . S
C2544 C2545 1.363 . S
C2544 H2547 0.929 . S
C2545 C2544 1.363 . S
C2545 C2551 1.428 1_455 S
H2546 C2542 0.930 . S
H2547 C2544 0.929 . S
S2548 N2549 1.613 . S
S2548 N2550 1.610 . S
N2549 S2548 1.613 . S
N2549 C2552 1.350 . S
N2550 S2548 1.610 . S
N2550 C2551 1.351 . S
C2551 C2545 1.428 1_655 S
C2551 N2550 1.351 . S
C2551 C2552 1.434 . S
C2552 C2543 1.429 . S
C2552 N2549 1.350 . S
C2552 C2551 1.434 . S
C2553 C2554 1.369 . S
C2553 C2555 1.419 . S
C2553 H2557 0.930 . S
C2554 C2553 1.369 . S
C2554 C2563 1.429 . S
C2555 C2553 1.419 . S
C2555 C2556 1.363 . S
C2555 H2558 0.929 . S
C2556 C2555 1.363 . S
C2556 C2562 1.428 . S
H2557 C2553 0.930 . S
H2558 C2555 0.929 . S
S2559 N2560 1.613 . S
S2559 N2561 1.610 . S
N2560 S2559 1.613 . S
N2560 C2563 1.350 . S
N2561 S2559 1.610 . S
N2561 C2562 1.351 . S
C2562 C2556 1.428 . S
C2562 N2561 1.351 . S
C2562 C2563 1.434 . S
C2563 C2554 1.429 . S
C2563 N2560 1.350 . S
C2563 C2562 1.434 . S
C2564 C2565 1.369 . S
C2564 C2566 1.419 . S
C2564 H2568 0.930 . S
C2565 C2564 1.369 . S
C2565 C2574 1.429 1_545 S
C2566 C2564 1.419 . S
C2566 C2567 1.363 1_545 S
C2566 H2569 0.929 . S
C2567 C2566 1.363 1_565 S
C2567 C2573 1.428 . S
H2568 C2564 0.930 . S
H2569 C2566 0.929 . S
S2570 N2571 1.613 . S
S2570 N2572 1.610 . S
N2571 S2570 1.613 . S
N2571 C2574 1.350 . S
N2572 S2570 1.610 . S
N2572 C2573 1.351 . S
C2573 C2567 1.428 . S
C2573 N2572 1.351 . S
C2573 C2574 1.434 . S
C2574 C2565 1.429 1_565 S
C2574 N2571 1.350 . S
C2574 C2573 1.434 . S
C2575 C2576 1.369 1_655 S
C2575 C2577 1.419 . S
C2575 H2579 0.930 . S
C2576 C2575 1.369 1_455 S
C2576 C2585 1.429 . S
C2577 C2575 1.419 . S
C2577 C2578 1.363 . S
C2577 H2580 0.929 . S
C2578 C2577 1.363 . S
C2578 C2584 1.428 1_655 S
H2579 C2575 0.930 . S
H2580 C2577 0.929 . S
S2581 N2582 1.613 . S
S2581 N2583 1.610 . S
N2582 S2581 1.613 . S
N2582 C2585 1.350 . S
N2583 S2581 1.610 . S
N2583 C2584 1.351 . S
C2584 C2578 1.428 1_455 S
C2584 N2583 1.351 . S
C2584 C2585 1.434 . S
C2585 C2576 1.429 . S
C2585 N2582 1.350 . S
C2585 C2584 1.434 . S
C2586 C2587 1.369 . S
C2586 C2588 1.419 . S
C2586 H2590 0.930 . S
C2587 C2586 1.369 . S
C2587 C2596 1.429 . S
C2588 C2586 1.419 . S
C2588 C2589 1.363 . S
C2588 H2591 0.929 . S
C2589 C2588 1.363 . S
C2589 C2595 1.428 . S
H2590 C2586 0.930 . S
H2591 C2588 0.929 . S
S2592 N2593 1.613 . S
S2592 N2594 1.610 . S
N2593 S2592 1.613 . S
N2593 C2596 1.350 . S
N2594 S2592 1.610 . S
N2594 C2595 1.351 . S
C2595 C2589 1.428 . S
C2595 N2594 1.351 . S
C2595 C2596 1.434 . S
C2596 C2587 1.429 . S
C2596 N2593 1.350 . S
C2596 C2595 1.434 . S
C2597 C2598 1.369 . S
C2597 C2599 1.419 . S
C2597 H2601 0.930 . S
C2598 C2597 1.369 . S
C2598 C2607 1.429 . S
C2599 C2597 1.419 . S
C2599 C2600 1.363 . S
C2599 H2602 0.929 . S
C2600 C2599 1.363 . S
C2600 C2606 1.428 . S
H2601 C2597 0.930 . S
H2602 C2599 0.929 . S
S2603 N2604 1.613 . S
S2603 N2605 1.610 . S
N2604 S2603 1.613 . S
N2604 C2607 1.350 . S
N2605 S2603 1.610 . S
N2605 C2606 1.351 . S
C2606 C2600 1.428 . S
C2606 N2605 1.351 . S
C2606 C2607 1.434 . S
C2607 C2598 1.429 . S
C2607 N2604 1.350 . S
C2607 C2606 1.434 . S
C2608 C2609 1.369 . S
C2608 C2610 1.419 . S
C2608 H2612 0.930 . S
C2609 C2608 1.369 . S
C2609 C2618 1.429 . S
C2610 C2608 1.419 . S
C2610 C2611 1.363 . S
C2610 H2613 0.929 . S
C2611 C2610 1.363 . S
C2611 C2617 1.428 . S
H2612 C2608 0.930 . S
H2613 C2610 0.929 . S
S2614 N2615 1.613 . S
S2614 N2616 1.610 . S
N2615 S2614 1.613 . S
N2615 C2618 1.350 . S
N2616 S2614 1.610 . S
N2616 C2617 1.351 . S
C2617 C2611 1.428 . S
C2617 N2616 1.351 . S
C2617 C2618 1.434 . S
C2618 C2609 1.429 . S
C2618 N2615 1.350 . S
C2618 C2617 1.434 . S
C2619 C2620 1.369 . S
C2619 C2621 1.419 . S
C2619 H2623 0.930 . S
C2620 C2619 1.369 . S
C2620 C2629 1.429 . S
C2621 C2619 1.419 . S
C2621 C2622 1.363 . S
C2621 H2624 0.929 . S
C2622 C2621 1.363 . S
C2622 C2628 1.428 . S
H2623 C2619 0.930 . S
H2624 C2621 0.929 . S
S2625 N2626 1.613 . S
S2625 N2627 1.610 . S
N2626 S2625 1.613 . S
N2626 C2629 1.350 . S
N2627 S2625 1.610 . S
N2627 C2628 1.351 . S
C2628 C2622 1.428 . S
C2628 N2627 1.351 . S
C2628 C2629 1.434 . S
C2629 C2620 1.429 . S
C2629 N2626 1.350 . S
C2629 C2628 1.434 . S
C2630 C2631 1.369 . S
C2630 C2632 1.419 . S
C2630 H2634 0.930 . S
C2631 C2630 1.369 . S
C2631 C2640 1.429 . S
C2632 C2630 1.419 . S
C2632 C2633 1.363 . S
C2632 H2635 0.929 . S
C2633 C2632 1.363 . S
C2633 C2639 1.428 . S
H2634 C2630 0.930 . S
H2635 C2632 0.929 . S
S2636 N2637 1.613 . S
S2636 N2638 1.610 . S
N2637 S2636 1.613 . S
N2637 C2640 1.350 . S
N2638 S2636 1.610 . S
N2638 C2639 1.351 . S
C2639 C2633 1.428 . S
C2639 N2638 1.351 . S
C2639 C2640 1.434 . S
C2640 C2631 1.429 . S
C2640 N2637 1.350 . S
C2640 C2639 1.434 . S
C2641 C2642 1.369 . S
C2641 C2643 1.419 . S
C2641 H2645 0.930 . S
C2642 C2641 1.369 . S
C2642 C2651 1.429 . S
C2643 C2641 1.419 . S
C2643 C2644 1.363 . S
C2643 H2646 0.929 . S
C2644 C2643 1.363 . S
C2644 C2650 1.428 . S
H2645 C2641 0.930 . S
H2646 C2643 0.929 . S
S2647 N2648 1.613 . S
S2647 N2649 1.610 . S
N2648 S2647 1.613 . S
N2648 C2651 1.350 . S
N2649 S2647 1.610 . S
N2649 C2650 1.351 . S
C2650 C2644 1.428 . S
C2650 N2649 1.351 . S
C2650 C2651 1.434 . S
C2651 C2642 1.429 . S
C2651 N2648 1.350 . S
C2651 C2650 1.434 . S
C2652 C2653 1.369 . S
C2652 C2654 1.419 . S
C2652 H2656 0.930 . S
C2653 C2652 1.369 . S
C2653 C2662 1.429 . S
C2654 C2652 1.419 . S
C2654 C2655 1.363 . S
C2654 H2657 0.929 . S
C2655 C2654 1.363 . S
C2655 C2661 1.428 . S
H2656 C2652 0.930 . S
H2657 C2654 0.929 . S
S2658 N2659 1.613 . S
S2658 N2660 1.610 . S
N2659 S2658 1.613 . S
N2659 C2662 1.350 . S
N2660 S2658 1.610 . S
N2660 C2661 1.351 . S
C2661 C2655 1.428 . S
C2661 N2660 1.351 . S
C2661 C2662 1.434 . S
C2662 C2653 1.429 . S
C2662 N2659 1.350 . S
C2662 C2661 1.434 . S
C2663 C2664 1.369 . S
C2663 C2665 1.419 . S
C2663 H2667 0.930 . S
C2664 C2663 1.369 . S
C2664 C2673 1.429 . S
C2665 C2663 1.419 . S
C2665 C2666 1.363 . S
C2665 H2668 0.929 . S
C2666 C2665 1.363 . S
C2666 C2672 1.428 . S
H2667 C2663 0.930 . S
H2668 C2665 0.929 . S
S2669 N2670 1.613 . S
S2669 N2671 1.610 . S
N2670 S2669 1.613 . S
N2670 C2673 1.350 . S
N2671 S2669 1.610 . S
N2671 C2672 1.351 . S
C2672 C2666 1.428 . S
C2672 N2671 1.351 . S
C2672 C2673 1.434 . S
C2673 C2664 1.429 . S
C2673 N2670 1.350 . S
C2673 C2672 1.434 . S
C2674 C2675 1.369 . S
C2674 C2676 1.419 . S
C2674 H2678 0.930 . S
C2675 C2674 1.369 . S
C2675 C2684 1.429 . S
C2676 C2674 1.419 . S
C2676 C2677 1.363 . S
C2676 H2679 0.929 . S
C2677 C2676 1.363 . S
C2677 C2683 1.428 . S
H2678 C2674 0.930 . S
H2679 C2676 0.929 . S
S2680 N2681 1.613 . S
S2680 N2682 1.610 . S
N2681 S2680 1.613 . S
N2681 C2684 1.350 . S
N2682 S2680 1.610 . S
N2682 C2683 1.351 . S
C2683 C2677 1.428 . S
C2683 N2682 1.351 . S
C2683 C2684 1.434 . S
C2684 C2675 1.429 . S
C2684 N2681 1.350 . S
C2684 C2683 1.434 . S
C2685 C2686 1.369 . S
C2685 C2687 1.419 . S
C2685 H2689 0.930 . S
C2686 C2685 1.369 . S
C2686 C2695 1.429 . S
C2687 C2685 1.419 . S
C2687 C2688 1.363 . S
C2687 H2690 0.929 . S
C2688 C2687 1.363 . S
C2688 C2694 1.428 . S
H2689 C2685 0.930 . S
H2690 C2687 0.929 . S
S2691 N2692 1.613 . S
S2691 N2693 1.610 . S
N2692 S2691 1.613 . S
N2692 C2695 1.350 . S
N2693 S2691 1.610 . S
N2693 C2694 1.351 . S
C2694 C2688 1.428 . S
C2694 N2693 1.351 . S
C2694 C2695 1.434 . S
C2695 C2686 1.429 . S
C2695 N2692 1.350 . S
C2695 C2694 1.434 . S
C2696 C2697 1.369 . S
C2696 C2698 1.419 . S
C2696 H2700 0.930 . S
C2697 C2696 1.369 . S
C2697 C2706 1.429 . S
C2698 C2696 1.419 . S
C2698 C2699 1.363 . S
C2698 H2701 0.929 . S
C2699 C2698 1.363 . S
C2699 C2705 1.428 . S
H2700 C2696 0.930 . S
H2701 C2698 0.929 . S
S2702 N2703 1.613 . S
S2702 N2704 1.610 . S
N2703 S2702 1.613 . S
N2703 C2706 1.350 . S
N2704 S2702 1.610 . S
N2704 C2705 1.351 . S
C2705 C2699 1.428 . S
C2705 N2704 1.351 . S
C2705 C2706 1.434 . S
C2706 C2697 1.429 . S
C2706 N2703 1.350 . S
C2706 C2705 1.434 . S
C2707 C2708 1.369 . S
C2707 C2709 1.419 . S
C2707 H2711 0.930 . S
C2708 C2707 1.369 . S
C2708 C2717 1.429 . S
C2709 C2707 1.419 . S
C2709 C2710 1.363 . S
C2709 H2712 0.929 . S
C2710 C2709 1.363 . S
C2710 C2716 1.428 . S
H2711 C2707 0.930 . S
H2712 C2709 0.929 . S
S2713 N2714 1.613 . S
S2713 N2715 1.610 . S
N2714 S2713 1.613 . S
N2714 C2717 1.350 . S
N2715 S2713 1.610 . S
N2715 C2716 1.351 . S
C2716 C2710 1.428 . S
C2716 N2715 1.351 . S
C2716 C2717 1.434 . S
C2717 C2708 1.429 . S
C2717 N2714 1.350 . S
C2717 C2716 1.434 . S
C2718 C2719 1.369 . S
C2718 C2720 1.419 . S
C2718 H2722 0.930 . S
C2719 C2718 1.369 . S
C2719 C2728 1.429 . S
C2720 C2718 1.419 . S
C2720 C2721 1.363 . S
C2720 H2723 0.929 . S
C2721 C2720 1.363 . S
C2721 C2727 1.428 . S
H2722 C2718 0.930 . S
H2723 C2720 0.929 . S
S2724 N2725 1.613 . S
S2724 N2726 1.610 . S
N2725 S2724 1.613 . S
N2725 C2728 1.350 . S
N2726 S2724 1.610 . S
N2726 C2727 1.351 . S
C2727 C2721 1.428 . S
C2727 N2726 1.351 . S
C2727 C2728 1.434 . S
C2728 C2719 1.429 . S
C2728 N2725 1.350 . S
C2728 C2727 1.434 . S
C2729 C2730 1.369 . S
C2729 C2731 1.419 . S
C2729 H2733 0.930 . S
C2730 C2729 1.369 . S
C2730 C2739 1.429 . S
C2731 C2729 1.419 . S
C2731 C2732 1.363 . S
C2731 H2734 0.929 . S
C2732 C2731 1.363 . S
C2732 C2738 1.428 . S
H2733 C2729 0.930 . S
H2734 C2731 0.929 . S
S2735 N2736 1.613 . S
S2735 N2737 1.610 . S
N2736 S2735 1.613 . S
N2736 C2739 1.350 . S
N2737 S2735 1.610 . S
N2737 C2738 1.351 . S
C2738 C2732 1.428 . S
C2738 N2737 1.351 . S
C2738 C2739 1.434 . S
C2739 C2730 1.429 . S
C2739 N2736 1.350 . S
C2739 C2738 1.434 . S
C2740 C2741 1.369 . S
C2740 C2742 1.419 . S
C2740 H2744 0.930 . S
C2741 C2740 1.369 . S
C2741 C2750 1.429 . S
C2742 C2740 1.419 . S
C2742 C2743 1.363 . S
C2742 H2745 0.929 . S
C2743 C2742 1.363 . S
C2743 C2749 1.428 . S
H2744 C2740 0.930 . S
H2745 C2742 0.929 . S
S2746 N2747 1.613 . S
S2746 N2748 1.610 . S
N2747 S2746 1.613 . S
N2747 C2750 1.350 . S
N2748 S2746 1.610 . S
N2748 C2749 1.351 . S
C2749 C2743 1.428 . S
C2749 N2748 1.351 . S
C2749 C2750 1.434 . S
C2750 C2741 1.429 . S
C2750 N2747 1.350 . S
C2750 C2749 1.434 . S
C2751 C2752 1.369 . S
C2751 C2753 1.419 . S
C2751 H2755 0.930 . S
C2752 C2751 1.369 . S
C2752 C2761 1.429 . S
C2753 C2751 1.419 . S
C2753 C2754 1.363 . S
C2753 H2756 0.929 . S
C2754 C2753 1.363 . S
C2754 C2760 1.428 . S
H2755 C2751 0.930 . S
H2756 C2753 0.929 . S
S2757 N2758 1.613 . S
S2757 N2759 1.610 . S
N2758 S2757 1.613 . S
N2758 C2761 1.350 . S
N2759 S2757 1.610 . S
N2759 C2760 1.351 . S
C2760 C2754 1.428 . S
C2760 N2759 1.351 . S
C2760 C2761 1.434 . S
C2761 C2752 1.429 . S
C2761 N2758 1.350 . S
C2761 C2760 1.434 . S
C2762 C2763 1.369 . S
C2762 C2764 1.419 . S
C2762 H2766 0.930 . S
C2763 C2762 1.369 . S
C2763 C2772 1.429 . S
C2764 C2762 1.419 . S
C2764 C2765 1.363 . S
C2764 H2767 0.929 . S
C2765 C2764 1.363 . S
C2765 C2771 1.428 . S
H2766 C2762 0.930 . S
H2767 C2764 0.929 . S
S2768 N2769 1.613 . S
S2768 N2770 1.610 . S
N2769 S2768 1.613 . S
N2769 C2772 1.350 . S
N2770 S2768 1.610 . S
N2770 C2771 1.351 . S
C2771 C2765 1.428 . S
C2771 N2770 1.351 . S
C2771 C2772 1.434 . S
C2772 C2763 1.429 . S
C2772 N2769 1.350 . S
C2772 C2771 1.434 . S
C2773 C2774 1.369 . S
C2773 C2775 1.419 . S
C2773 H2777 0.930 . S
C2774 C2773 1.369 . S
C2774 C2783 1.429 . S
C2775 C2773 1.419 . S
C2775 C2776 1.363 . S
C2775 H2778 0.929 . S
C2776 C2775 1.363 . S
C2776 C2782 1.428 . S
H2777 C2773 0.930 . S
H2778 C2775 0.929 . S
S2779 N2780 1.613 . S
S2779 N2781 1.610 . S
N2780 S2779 1.613 . S
N2780 C2783 1.350 . S
N2781 S2779 1.610 . S
N2781 C2782 1.351 . S
C2782 C2776 1.428 . S
C2782 N2781 1.351 . S
C2782 C2783 1.434 . S
C2783 C2774 1.429 . S
C2783 N2780 1.350 . S
C2783 C2782 1.434 . S
C2784 C2785 1.369 . S
C2784 C2786 1.419 . S
C2784 H2788 0.930 . S
C2785 C2784 1.369 . S
C2785 C2794 1.429 . S
C2786 C2784 1.419 . S
C2786 C2787 1.363 . S
C2786 H2789 0.929 . S
C2787 C2786 1.363 . S
C2787 C2793 1.428 . S
H2788 C2784 0.930 . S
H2789 C2786 0.929 . S
S2790 N2791 1.613 . S
S2790 N2792 1.610 . S
N2791 S2790 1.613 . S
N2791 C2794 1.350 . S
N2792 S2790 1.610 . S
N2792 C2793 1.351 . S
C2793 C2787 1.428 . S
C2793 N2792 1.351 . S
C2793 C2794 1.434 . S
C2794 C2785 1.429 . S
C2794 N2791 1.350 . S
C2794 C2793 1.434 . S
C2795 C2796 1.369 . S
C2795 C2797 1.419 . S
C2795 H2799 0.930 . S
C2796 C2795 1.369 . S
C2796 C2805 1.429 . S
C2797 C2795 1.419 . S
C2797 C2798 1.363 . S
C2797 H2800 0.929 . S
C2798 C2797 1.363 . S
C2798 C2804 1.428 . S
H2799 C2795 0.930 . S
H2800 C2797 0.929 . S
S2801 N2802 1.613 . S
S2801 N2803 1.610 . S
N2802 S2801 1.613 . S
N2802 C2805 1.350 . S
N2803 S2801 1.610 . S
N2803 C2804 1.351 . S
C2804 C2798 1.428 . S
C2804 N2803 1.351 . S
C2804 C2805 1.434 . S
C2805 C2796 1.429 . S
C2805 N2802 1.350 . S
C2805 C2804 1.434 . S
C2806 C2807 1.369 . S
C2806 C2808 1.419 . S
C2806 H2810 0.930 . S
C2807 C2806 1.369 . S
C2807 C2816 1.429 . S
C2808 C2806 1.419 . S
C2808 C2809 1.363 . S
C2808 H2811 0.929 . S
C2809 C2808 1.363 . S
C2809 C2815 1.428 . S
H2810 C2806 0.930 . S
H2811 C2808 0.929 . S
S2812 N2813 1.613 . S
S2812 N2814 1.610 . S
N2813 S2812 1.613 . S
N2813 C2816 1.350 . S
N2814 S2812 1.610 . S
N2814 C2815 1.351 . S
C2815 C2809 1.428 . S
C2815 N2814 1.351 . S
C2815 C2816 1.434 . S
C2816 C2807 1.429 . S
C2816 N2813 1.350 . S
C2816 C2815 1.434 . S
C2817 C2818 1.369 . S
C2817 C2819 1.419 . S
C2817 H2821 0.930 . S
C2818 C2817 1.369 . S
C2818 C2827 1.429 . S
C2819 C2817 1.419 . S
C2819 C2820 1.363 . S
C2819 H2822 0.929 . S
C2820 C2819 1.363 . S
C2820 C2826 1.428 . S
H2821 C2817 0.930 . S
H2822 C2819 0.929 . S
S2823 N2824 1.613 . S
S2823 N2825 1.610 . S
N2824 S2823 1.613 . S
N2824 C2827 1.350 . S
N2825 S2823 1.610 . S
N2825 C2826 1.351 . S
C2826 C2820 1.428 . S
C2826 N2825 1.351 . S
C2826 C2827 1.434 . S
C2827 C2818 1.429 . S
C2827 N2824 1.350 . S
C2827 C2826 1.434 . S
C2828 C2829 1.369 . S
C2828 C2830 1.419 . S
C2828 H2832 0.930 . S
C2829 C2828 1.369 . S
C2829 C2838 1.429 . S
C2830 C2828 1.419 . S
C2830 C2831 1.363 . S
C2830 H2833 0.929 . S
C2831 C2830 1.363 . S
C2831 C2837 1.428 . S
H2832 C2828 0.930 . S
H2833 C2830 0.929 . S
S2834 N2835 1.613 . S
S2834 N2836 1.610 . S
N2835 S2834 1.613 . S
N2835 C2838 1.350 . S
N2836 S2834 1.610 . S
N2836 C2837 1.351 . S
C2837 C2831 1.428 . S
C2837 N2836 1.351 . S
C2837 C2838 1.434 . S
C2838 C2829 1.429 . S
C2838 N2835 1.350 . S
C2838 C2837 1.434 . S
C2839 C2840 1.369 . S
C2839 C2841 1.419 . S
C2839 H2843 0.930 . S
C2840 C2839 1.369 . S
C2840 C2849 1.429 . S
C2841 C2839 1.419 . S
C2841 C2842 1.363 . S
C2841 H2844 0.929 . S
C2842 C2841 1.363 . S
C2842 C2848 1.428 . S
H2843 C2839 0.930 . S
H2844 C2841 0.929 . S
S2845 N2846 1.613 . S
S2845 N2847 1.610 . S
N2846 S2845 1.613 . S
N2846 C2849 1.350 . S
N2847 S2845 1.610 . S
N2847 C2848 1.351 . S
C2848 C2842 1.428 . S
C2848 N2847 1.351 . S
C2848 C2849 1.434 . S
C2849 C2840 1.429 . S
C2849 N2846 1.350 . S
C2849 C2848 1.434 . S
C2850 C2851 1.369 . S
C2850 C2852 1.419 . S
C2850 H2854 0.930 . S
C2851 C2850 1.369 . S
C2851 C2860 1.429 1_455 S
C2852 C2850 1.419 . S
C2852 C2853 1.363 1_455 S
C2852 H2855 0.929 . S
C2853 C2852 1.363 1_655 S
C2853 C2859 1.428 . S
H2854 C2850 0.930 . S
H2855 C2852 0.929 . S
S2856 N2857 1.613 . S
S2856 N2858 1.610 . S
N2857 S2856 1.613 . S
N2857 C2860 1.350 . S
N2858 S2856 1.610 . S
N2858 C2859 1.351 . S
C2859 C2853 1.428 . S
C2859 N2858 1.351 . S
C2859 C2860 1.434 . S
C2860 C2851 1.429 1_655 S
C2860 N2857 1.350 . S
C2860 C2859 1.434 . S
C2861 C2862 1.369 . S
C2861 C2863 1.419 . S
C2861 H2865 0.930 . S
C2862 C2861 1.369 . S
C2862 C2871 1.429 . S
C2863 C2861 1.419 . S
C2863 C2864 1.363 . S
C2863 H2866 0.929 . S
C2864 C2863 1.363 . S
C2864 C2870 1.428 . S
H2865 C2861 0.930 . S
H2866 C2863 0.929 . S
S2867 N2868 1.613 . S
S2867 N2869 1.610 . S
N2868 S2867 1.613 . S
N2868 C2871 1.350 . S
N2869 S2867 1.610 . S
N2869 C2870 1.351 . S
C2870 C2864 1.428 . S
C2870 N2869 1.351 . S
C2870 C2871 1.434 . S
C2871 C2862 1.429 . S
C2871 N2868 1.350 . S
C2871 C2870 1.434 . S
C2872 C2873 1.369 . S
C2872 C2874 1.419 . S
C2872 H2876 0.930 . S
C2873 C2872 1.369 . S
C2873 C2882 1.429 1_545 S
C2874 C2872 1.419 . S
C2874 C2875 1.363 1_545 S
C2874 H2877 0.929 . S
C2875 C2874 1.363 1_565 S
C2875 C2881 1.428 . S
H2876 C2872 0.930 . S
H2877 C2874 0.929 . S
S2878 N2879 1.613 . S
S2878 N2880 1.610 . S
N2879 S2878 1.613 . S
N2879 C2882 1.350 . S
N2880 S2878 1.610 . S
N2880 C2881 1.351 . S
C2881 C2875 1.428 . S
C2881 N2880 1.351 . S
C2881 C2882 1.434 . S
C2882 C2873 1.429 1_565 S
C2882 N2879 1.350 . S
C2882 C2881 1.434 . S
C2883 C2884 1.369 1_554 S
C2883 C2885 1.419 . S
C2883 H2887 0.930 . S
C2884 C2883 1.369 1_556 S
C2884 C2893 1.429 1_545 S
C2885 C2883 1.419 . S
C2885 C2886 1.363 1_545 S
C2885 H2888 0.929 . S
C2886 C2885 1.363 1_565 S
C2886 C2892 1.428 1_554 S
H2887 C2883 0.930 . S
H2888 C2885 0.929 . S
S2889 N2890 1.613 . S
S2889 N2891 1.610 . S
N2890 S2889 1.613 . S
N2890 C2893 1.350 . S
N2891 S2889 1.610 . S
N2891 C2892 1.351 . S
C2892 C2886 1.428 1_556 S
C2892 N2891 1.351 . S
C2892 C2893 1.434 . S
C2893 C2884 1.429 1_565 S
C2893 N2890 1.350 . S
C2893 C2892 1.434 . S
C2894 C2895 1.369 . S
C2894 C2896 1.419 . S
C2894 H2898 0.930 . S
C2895 C2894 1.369 . S
C2895 C2904 1.429 1_656 S
C2896 C2894 1.419 . S
C2896 C2897 1.363 1_656 S
C2896 H2899 0.929 . S
C2897 C2896 1.363 1_454 S
C2897 C2903 1.428 . S
H2898 C2894 0.930 . S
H2899 C2896 0.929 . S
S2900 N2901 1.613 . S
S2900 N2902 1.610 . S
N2901 S2900 1.613 . S
N2901 C2904 1.350 . S
N2902 S2900 1.610 . S
N2902 C2903 1.351 . S
C2903 C2897 1.428 . S
C2903 N2902 1.351 . S
C2903 C2904 1.434 . S
C2904 C2895 1.429 1_454 S
C2904 N2901 1.350 . S
C2904 C2903 1.434 . S
C2905 C2906 1.369 . S
C2905 C2907 1.419 . S
C2905 H2909 0.930 . S
C2906 C2905 1.369 . S
C2906 C2915 1.429 1_554 S
C2907 C2905 1.419 . S
C2907 C2908 1.363 1_554 S
C2907 H2910 0.929 . S
C2908 C2907 1.363 1_556 S
C2908 C2914 1.428 . S
H2909 C2905 0.930 . S
H2910 C2907 0.929 . S
S2911 N2912 1.613 . S
S2911 N2913 1.610 . S
N2912 S2911 1.613 . S
N2912 C2915 1.350 . S
N2913 S2911 1.610 . S
N2913 C2914 1.351 . S
C2914 C2908 1.428 . S
C2914 N2913 1.351 . S
C2914 C2915 1.434 . S
C2915 C2906 1.429 1_556 S
C2915 N2912 1.350 . S
C2915 C2914 1.434 . S
C2125 C33 1.540 . S
C2127 C92 1.602 . S
C2136 C111 1.568 . S
C2138 C151 1.598 . S
C2147 C52 1.592 . S
C2149 C170 1.567 . S
C2158 C229 1.565 . S
C2160 C347 1.584 . S
C2169 C288 1.569 . S
C2171 C210 1.600 . S
C2180 C269 1.604 . S
C2182 C328 1.539 . S
C2191 C406 1.569 . S
C2193 C446 1.600 . S
C2202 C505 1.596 . S
C2204 C465 1.565 . S
C2213 C387 1.600 . S
C2215 C524 1.562 . S
C2224 C682 1.605 . S
C2226 C583 1.564 . S
C2235 C642 1.566 . S
C2237 C564 1.602 . S
C2246 C701 1.559 . S
C2248 C623 1.599 . S
C2257 C800 1.597 . S
C2259 C741 1.533 . S
C2268 C819 1.568 . S
C2270 C859 1.598 . S
C2279 C878 1.561 . S
C2281 C760 1.589 . S
C2290 C937 1.569 . S
C2292 C1055 1.590 . S
C2301 C996 1.560 . S
C2303 C918 1.598 . S
C2312 C1036 1.531 . S
C2314 C977 1.599 . S
C2323 C1154 1.603 . S
C2325 C1114 1.563 . S
C2334 C1173 1.563 . S
C2336 C1213 1.596 . S
C2345 C1095 1.605 . S
C2347 C1232 1.566 . S
C2356 C1390 1.603 . S
C2358 C1291 1.566 . S
C2367 C1350 1.568 . S
C2369 C1272 1.601 1_556 S
C2378 C1331 1.599 . S
C2380 C1409 1.560 . S
C2389 C1508 1.600 . S
C2391 C1449 1.532 . S
C2400 C1527 1.561 . S
C2402 C1567 1.601 . S
C2411 C1586 1.565 . S
C2413 C1468 1.591 . S
C2422 C1763 1.584 1_554 S
C2424 C1645 1.562 . S
C2433 C1704 1.560 . S
C2435 C1626 1.601 1_554 S
C2444 C1685 1.596 1_554 S
C2446 C1744 1.538 . S
C2455 C1822 1.559 . S
C2457 C1862 1.599 . S
C2466 C1881 1.558 . S
C2468 C1921 1.599 . S
C2477 C1940 1.570 . S
C2479 C1803 1.603 . S
C2488 C2098 1.597 . S
C2490 C1999 1.565 . S
C2499 C1980 1.600 . S
C2501 C2058 1.567 . S
C2510 C2117 1.569 . S
C2512 C2039 1.600 . S
C2521 C180 1.909 . S
C2523 C5 1.911 . S
C2532 C62 1.919 . S
C2534 C239 1.915 . S
C2543 C300 1.915 . S
C2545 C121 1.909 . S
C2554 C534 1.909 . S
C2556 C357 1.909 . S
C2565 C416 1.911 . S
C2567 C593 1.913 . S
C2576 C652 1.908 . S
C2578 C475 1.909 . S
C2587 C713 1.914 . S
C2589 C888 1.909 . S
C2598 C770 1.919 . S
C2600 C947 1.915 . S
C2609 C829 1.910 . S
C2611 C1008 1.910 . S
C2620 C1242 1.910 . S
C2622 C1065 1.909 . S
C2631 C1301 1.908 . S
C2633 C1124 1.911 . S
C2642 C1183 1.916 . S
C2644 C1360 1.914 . S
C2653 C1596 1.914 . S
C2655 C1421 1.911 . S
C2664 C1655 1.916 . S
C2666 C1478 1.913 . S
C2675 C1537 1.915 . S
C2677 C1716 1.914 . S
C2686 C1773 1.915 . S
C2688 C1950 1.914 . S
C2697 C2009 1.915 . S
C2699 C1832 1.912 . S
C2708 C1891 1.912 . S
C2710 C2068 1.910 . S
C2719 C3 1.702 . S
C2721 C1067 1.722 . S
C2730 C64 1.722 . S
C2732 C1126 1.714 . S
C2741 C123 1.726 . S
C2743 C1185 1.720 . S
C2752 C1952 1.716 . S
C2754 C182 1.725 . S
C2763 C2011 1.713 . S
C2765 C241 1.722 . S
C2774 C298 1.700 . S
C2776 C2070 1.724 . S
C2785 C359 1.713 . S
C2787 C1419 1.709 . S
C2796 C1480 1.712 . S
C2798 C418 1.722 . S
C2807 C1539 1.724 . S
C2809 C477 1.720 . S
C2818 C890 1.726 . S
C2820 C536 1.717 . S
C2829 C949 1.714 . S
C2831 C595 1.721 . S
C2840 C1006 1.703 . S
C2842 C654 1.722 . S
C2851 C1775 1.721 . S
C2853 C711 1.701 . S
C2862 C772 1.713 . S
C2864 C1834 1.722 . S
C2873 C831 1.726 . S
C2875 C1893 1.720 . S
C2884 C1244 1.727 . S
C2886 C1598 1.716 . S
C2895 C1303 1.719 . S
C2897 C1657 1.718 . S
C2906 C1714 1.708 . S
C2908 C1362 1.717 . S
