# Generated by pormake.
# Topology wiu, (6)-cn, num edge types: 1
# Building blocks:
#     Node 0, Type 0, BuildingBlock: CUKXOW_clean_sbu_0, # of connection points: 6
#     Node 1, Type 0, BuildingBlock: CUKXOW_clean_sbu_0, # of connection points: 6
#     Node 2, Type 0, BuildingBlock: CUKXOW_clean_sbu_0, # of connection points: 6
#     Node 3, Type 0, BuildingBlock: CUKXOW_clean_sbu_0, # of connection points: 6
#     Node 4, Type 0, BuildingBlock: CUKXOW_clean_sbu_0, # of connection points: 6
#     Node 5, Type 0, BuildingBlock: CUKXOW_clean_sbu_0, # of connection points: 6
#     Node 6, Type 0, BuildingBlock: CUKXOW_clean_sbu_0, # of connection points: 6
#     Node 7, Type 0, BuildingBlock: CUKXOW_clean_sbu_0, # of connection points: 6
#     Node 8, Type 0, BuildingBlock: CUKXOW_clean_sbu_0, # of connection points: 6
#     Node 9, Type 0, BuildingBlock: CUKXOW_clean_sbu_0, # of connection points: 6
#     Node 10, Type 0, BuildingBlock: CUKXOW_clean_sbu_0, # of connection points: 6
#     Node 11, Type 0, BuildingBlock: CUKXOW_clean_sbu_0, # of connection points: 6
#     Node 12, Type 0, BuildingBlock: CUKXOW_clean_sbu_0, # of connection points: 6
#     Node 13, Type 0, BuildingBlock: CUKXOW_clean_sbu_0, # of connection points: 6
#     Node 14, Type 0, BuildingBlock: CUKXOW_clean_sbu_0, # of connection points: 6
#     Node 15, Type 0, BuildingBlock: CUKXOW_clean_sbu_0, # of connection points: 6
#     Edge 16, Type (0, 0), BuildingBlock: XIVTED_clean_linker_0, # of connection points: 2
#     Edge 17, Type (0, 0), BuildingBlock: XIVTED_clean_linker_0, # of connection points: 2
#     Edge 18, Type (0, 0), BuildingBlock: XIVTED_clean_linker_0, # of connection points: 2
#     Edge 19, Type (0, 0), BuildingBlock: XIVTED_clean_linker_0, # of connection points: 2
#     Edge 20, Type (0, 0), BuildingBlock: XIVTED_clean_linker_0, # of connection points: 2
#     Edge 21, Type (0, 0), BuildingBlock: XIVTED_clean_linker_0, # of connection points: 2
#     Edge 22, Type (0, 0), BuildingBlock: XIVTED_clean_linker_0, # of connection points: 2
#     Edge 23, Type (0, 0), BuildingBlock: XIVTED_clean_linker_0, # of connection points: 2
#     Edge 24, Type (0, 0), BuildingBlock: XIVTED_clean_linker_0, # of connection points: 2
#     Edge 25, Type (0, 0), BuildingBlock: XIVTED_clean_linker_0, # of connection points: 2
#     Edge 26, Type (0, 0), BuildingBlock: XIVTED_clean_linker_0, # of connection points: 2
#     Edge 27, Type (0, 0), BuildingBlock: XIVTED_clean_linker_0, # of connection points: 2
#     Edge 28, Type (0, 0), BuildingBlock: XIVTED_clean_linker_0, # of connection points: 2
#     Edge 29, Type (0, 0), BuildingBlock: XIVTED_clean_linker_0, # of connection points: 2
#     Edge 30, Type (0, 0), BuildingBlock: XIVTED_clean_linker_0, # of connection points: 2
#     Edge 31, Type (0, 0), BuildingBlock: XIVTED_clean_linker_0, # of connection points: 2
#     Edge 32, Type (0, 0), BuildingBlock: XIVTED_clean_linker_0, # of connection points: 2
#     Edge 33, Type (0, 0), BuildingBlock: XIVTED_clean_linker_0, # of connection points: 2
#     Edge 34, Type (0, 0), BuildingBlock: XIVTED_clean_linker_0, # of connection points: 2
#     Edge 35, Type (0, 0), BuildingBlock: XIVTED_clean_linker_0, # of connection points: 2
#     Edge 36, Type (0, 0), BuildingBlock: XIVTED_clean_linker_0, # of connection points: 2
#     Edge 37, Type (0, 0), BuildingBlock: XIVTED_clean_linker_0, # of connection points: 2
#     Edge 38, Type (0, 0), BuildingBlock: XIVTED_clean_linker_0, # of connection points: 2
#     Edge 39, Type (0, 0), BuildingBlock: XIVTED_clean_linker_0, # of connection points: 2
#     Edge 40, Type (0, 0), BuildingBlock: XIVTED_clean_linker_0, # of connection points: 2
#     Edge 41, Type (0, 0), BuildingBlock: XIVTED_clean_linker_0, # of connection points: 2
#     Edge 42, Type (0, 0), BuildingBlock: XIVTED_clean_linker_0, # of connection points: 2
#     Edge 43, Type (0, 0), BuildingBlock: XIVTED_clean_linker_0, # of connection points: 2
#     Edge 44, Type (0, 0), BuildingBlock: XIVTED_clean_linker_0, # of connection points: 2
#     Edge 45, Type (0, 0), BuildingBlock: XIVTED_clean_linker_0, # of connection points: 2
#     Edge 46, Type (0, 0), BuildingBlock: XIVTED_clean_linker_0, # of connection points: 2
#     Edge 47, Type (0, 0), BuildingBlock: XIVTED_clean_linker_0, # of connection points: 2
#     Edge 48, Type (0, 0), BuildingBlock: XIVTED_clean_linker_0, # of connection points: 2
#     Edge 49, Type (0, 0), BuildingBlock: XIVTED_clean_linker_0, # of connection points: 2
#     Edge 50, Type (0, 0), BuildingBlock: XIVTED_clean_linker_0, # of connection points: 2
#     Edge 51, Type (0, 0), BuildingBlock: XIVTED_clean_linker_0, # of connection points: 2
#     Edge 52, Type (0, 0), BuildingBlock: XIVTED_clean_linker_0, # of connection points: 2
#     Edge 53, Type (0, 0), BuildingBlock: XIVTED_clean_linker_0, # of connection points: 2
#     Edge 54, Type (0, 0), BuildingBlock: XIVTED_clean_linker_0, # of connection points: 2
#     Edge 55, Type (0, 0), BuildingBlock: XIVTED_clean_linker_0, # of connection points: 2
#     Edge 56, Type (0, 0), BuildingBlock: XIVTED_clean_linker_0, # of connection points: 2
#     Edge 57, Type (0, 0), BuildingBlock: XIVTED_clean_linker_0, # of connection points: 2
#     Edge 58, Type (0, 0), BuildingBlock: XIVTED_clean_linker_0, # of connection points: 2
#     Edge 59, Type (0, 0), BuildingBlock: XIVTED_clean_linker_0, # of connection points: 2
#     Edge 60, Type (0, 0), BuildingBlock: XIVTED_clean_linker_0, # of connection points: 2
#     Edge 61, Type (0, 0), BuildingBlock: XIVTED_clean_linker_0, # of connection points: 2
#     Edge 62, Type (0, 0), BuildingBlock: XIVTED_clean_linker_0, # of connection points: 2
#     Edge 63, Type (0, 0), BuildingBlock: XIVTED_clean_linker_0, # of connection points: 2
# Relax obj value: 0.180
# Max RMSD: 0.246
# Mean RMSD: 0.246
data_MOF--net-wiu--node1-CUKXOW_clean_sbu_0--edge1-XIVTED_clean_linker_0
_symmetry_space_group_name_H-M    P1
_symmetry_Int_Tables_number       1
_symmetry_cell_setting            triclinic
loop_
_symmetry_equiv_pos_as_xyz
'x, y, z'
_cell_length_a     26.222328
_cell_length_b     26.180155
_cell_length_c     68.73146
_cell_angle_alpha  89.967209
_cell_angle_beta   90.007303
_cell_angle_gamma 89.821919
loop_
_atom_site_label
_atom_site_type_symbol
_atom_site_fract_x
_atom_site_fract_y
_atom_site_fract_z
_atom_type_partial_charge
Tb0 Tb 0.33444 0.078 0.0955 0.0
C1 C 0.37784 0.14809 0.06296 0.0
Tb2 Tb 0.2744 0.09519 0.05962 0.0
O3 O 0.40114 0.04452 0.08224 0.0
O4 O 0.3311 0.03874 0.06785 0.0
O5 O 0.37621 0.14044 0.08204 0.0
C6 C 0.23196 0.08451 0.02463 0.0
O7 O 0.34492 0.12836 0.05069 0.0
C8 C 0.27343 0.17338 0.08405 0.0
C9 C 0.22039 0.03519 0.09375 0.0
O10 O 0.21944 0.11901 0.0373 0.0
O11 O 0.26708 0.05548 0.03195 0.0
O12 O 0.27091 0.17773 0.06523 0.0
O13 O 0.27259 0.1263 0.08835 0.0
O14 O 0.21523 0.05462 0.07601 0.0
O15 O 0.2646 0.03662 0.10314 0.0
C16 C 0.36449 0.07557 0.13229 0.0
O17 O 0.35635 0.03583 0.12144 0.0
O18 O 0.357 0.11694 0.12223 0.0
C19 C 0.37986 0.03302 0.06582 0.0
Tb20 Tb 0.70477 0.59271 0.34772 0.0
C21 C 0.63735 0.64861 0.31736 0.0
Tb22 Tb 0.67504 0.5383 0.31176 0.0
O23 O 0.74464 0.6563 0.33433 0.0
O24 O 0.73769 0.58804 0.31906 0.0
O25 O 0.64522 0.642 0.33626 0.0
C26 C 0.67835 0.4942 0.27686 0.0
O27 O 0.65032 0.61415 0.30427 0.0
C28 C 0.60251 0.54201 0.33829 0.0
C29 C 0.73526 0.4756 0.34419 0.0
O30 O 0.71417 0.52145 0.28454 0.0
O31 O 0.64066 0.49096 0.28898 0.0
O32 O 0.59432 0.54314 0.31963 0.0
O33 O 0.64987 0.53586 0.34126 0.0
O34 O 0.71032 0.47335 0.32735 0.0
O35 O 0.742 0.51952 0.35338 0.0
C36 C 0.71169 0.61816 0.38494 0.0
O37 O 0.74999 0.60707 0.37369 0.0
O38 O 0.66959 0.61656 0.37501 0.0
C39 C 0.74954 0.6357 0.31726 0.0
Tb40 Tb 0.18773 0.94685 0.59559 0.0
C41 C 0.13418 0.88094 0.56421 0.0
Tb42 Tb 0.24237 0.92401 0.55894 0.0
O43 O 0.12177 0.98465 0.58317 0.0
O44 O 0.19009 0.98394 0.56751 0.0
O45 O 0.14093 0.88701 0.58317 0.0
C46 C 0.28525 0.92872 0.52381 0.0
O47 O 0.16771 0.89652 0.55123 0.0
C48 C 0.24251 0.84813 0.58424 0.0
C49 C 0.30047 0.98799 0.59173 0.0
O50 O 0.25043 0.95926 0.53039 0.0
O51 O 0.29698 0.8959 0.53721 0.0
O52 O 0.24091 0.84203 0.56549 0.0
O53 O 0.24678 0.8954 0.58789 0.0
O54 O 0.30401 0.96473 0.57454 0.0
O55 O 0.25692 0.98985 0.60146 0.0
C56 C 0.16192 0.94202 0.63274 0.0
O57 O 0.16442 0.98392 0.62263 0.0
O58 O 0.17283 0.90312 0.62185 0.0
C59 C 0.14173 0.99345 0.56622 0.0
Tb60 Tb 0.81831 0.43619 0.84532 0.0
C61 C 0.88262 0.37256 0.81643 0.0
Tb62 Tb 0.85848 0.48551 0.81012 0.0
O63 O 0.77369 0.37609 0.83174 0.0
O64 O 0.79028 0.44173 0.81584 0.0
O65 O 0.87471 0.38149 0.83516 0.0
C66 C 0.87208 0.53125 0.77578 0.0
O67 O 0.87288 0.40705 0.80298 0.0
C68 C 0.92562 0.4794 0.83881 0.0
C69 C 0.79709 0.55441 0.84026 0.0
O70 O 0.90736 0.51019 0.7862 0.0
O71 O 0.82873 0.52693 0.78469 0.0
O72 O 0.93687 0.47641 0.8205 0.0
O73 O 0.87842 0.48898 0.84031 0.0
O74 O 0.82726 0.55415 0.82468 0.0
O75 O 0.78425 0.51146 0.84915 0.0
C76 C 0.80798 0.41197 0.88264 0.0
O77 O 0.77128 0.4272 0.8713 0.0
O78 O 0.85011 0.40904 0.87279 0.0
C79 C 0.7734 0.39561 0.81436 0.0
Tb80 Tb 0.74238 0.92458 0.9579 0.0
C81 C 0.7966 0.99115 0.92592 0.0
Tb82 Tb 0.68432 0.94294 0.92252 0.0
O83 O 0.76286 0.84636 0.94953 0.0
O84 O 0.75205 0.90148 0.92823 0.0
O85 O 0.80153 0.96949 0.94329 0.0
C86 C 0.65283 0.95288 0.886 0.0
O87 O 0.75274 0.98897 0.91621 0.0
C88 C 0.6318 0.97562 0.95317 0.0
C89 C 0.65228 0.85628 0.95013 0.0
O90 O 0.66229 0.99037 0.89781 0.0
O91 O 0.66029 0.90973 0.89487 0.0
O92 O 0.61286 0.96202 0.93662 0.0
O93 O 0.68067 0.97747 0.95138 0.0
O94 O 0.65739 0.86831 0.93154 0.0
O95 O 0.67302 0.88413 0.96391 0.0
C96 C 0.78353 0.92376 0.99333 0.0
O97 O 0.77361 0.88431 0.9828 0.0
O98 O 0.77088 0.9648 0.98385 0.0
C99 C 0.76015 0.85438 0.93098 0.0
Tb100 Tb 0.34848 0.49751 0.7082 0.0
C101 C 0.28647 0.54268 0.67293 0.0
Tb102 Tb 0.34618 0.43472 0.6727 0.0
O103 O 0.42761 0.52188 0.70312 0.0
O104 O 0.37993 0.50532 0.67976 0.0
O105 O 0.29895 0.54896 0.6915 0.0
C106 C 0.34161 0.39818 0.63674 0.0
O107 O 0.29884 0.50022 0.66337 0.0
C108 C 0.31025 0.38381 0.70314 0.0
C109 C 0.42986 0.41351 0.70341 0.0
O110 O 0.30304 0.40409 0.64838 0.0
O111 O 0.3832 0.41208 0.64552 0.0
O112 O 0.33198 0.36404 0.68805 0.0
O113 O 0.30348 0.43179 0.69978 0.0
O114 O 0.41991 0.41325 0.6845 0.0
O115 O 0.40004 0.43654 0.71615 0.0
C116 C 0.32746 0.53208 0.74376 0.0
O117 O 0.35566 0.55542 0.73108 0.0
O118 O 0.31024 0.49039 0.73615 0.0
C119 C 0.42529 0.51696 0.68429 0.0
Tb120 Tb 0.77716 0.09271 0.4576 0.0
C121 C 0.72908 0.03063 0.42289 0.0
Tb122 Tb 0.83992 0.08306 0.42257 0.0
O123 O 0.75837 0.17296 0.45112 0.0
O124 O 0.77078 0.12107 0.42865 0.0
O125 O 0.7229 0.04602 0.44114 0.0
C126 C 0.87567 0.0773 0.3866 0.0
O127 O 0.77287 0.03809 0.41356 0.0
C128 C 0.88971 0.04737 0.4533 0.0
C129 C 0.86635 0.16631 0.45289 0.0
O130 O 0.86795 0.03866 0.39808 0.0
O131 O 0.86414 0.11948 0.39555 0.0
O132 O 0.91017 0.06443 0.4375 0.0
O133 O 0.84124 0.04356 0.45041 0.0
O134 O 0.86523 0.15601 0.43401 0.0
O135 O 0.8415 0.13874 0.4658 0.0
C136 C 0.73551 0.0763 0.49239 0.0
O137 O 0.72106 0.11101 0.48013 0.0
O138 O 0.77258 0.05027 0.48484 0.0
C139 C 0.76212 0.16762 0.43236 0.0
Tb140 Tb 0.18488 0.52644 0.20807 0.0
C141 C 0.24738 0.4809 0.17269 0.0
Tb142 Tb 0.18728 0.58837 0.17194 0.0
O143 O 0.10544 0.50288 0.20262 0.0
O144 O 0.15461 0.51789 0.17961 0.0
O145 O 0.23421 0.47484 0.19124 0.0
C146 C 0.1826 0.62233 0.13563 0.0
O147 O 0.23626 0.52367 0.16305 0.0
C148 C 0.22335 0.64009 0.20222 0.0
C149 C 0.10525 0.61176 0.20332 0.0
O150 O 0.22344 0.622 0.14636 0.0
O151 O 0.14443 0.60438 0.14546 0.0
O152 O 0.20287 0.6597 0.18681 0.0
O153 O 0.22942 0.5919 0.19913 0.0
O154 O 0.11434 0.6108 0.18434 0.0
O155 O 0.1346 0.58827 0.21608 0.0
C156 C 0.20573 0.49042 0.24345 0.0
O157 O 0.17637 0.46843 0.23081 0.0
O158 O 0.22425 0.53169 0.23589 0.0
C159 C 0.10905 0.50663 0.18379 0.0
Tb160 Tb 0.84283 0.59355 0.59844 0.0
C161 C 0.86309 0.67533 0.56654 0.0
Tb162 Tb 0.77988 0.59468 0.56264 0.0
O163 O 0.91441 0.57855 0.58381 0.0
O164 O 0.84729 0.55169 0.57111 0.0
O165 O 0.86262 0.66698 0.58559 0.0
C166 C 0.7405 0.57383 0.52777 0.0
O167 O 0.84069 0.64466 0.55402 0.0
C168 C 0.7586 0.66945 0.58739 0.0
C169 C 0.73708 0.53119 0.59811 0.0
O170 O 0.72243 0.60693 0.53998 0.0
O171 O 0.77975 0.5516 0.53548 0.0
O172 O 0.75461 0.67378 0.5686 0.0
O173 O 0.77112 0.62396 0.5912 0.0
O174 O 0.73011 0.54443 0.57963 0.0
O175 O 0.7799 0.54291 0.60753 0.0
C176 C 0.87684 0.59864 0.63475 0.0
O177 O 0.87765 0.55793 0.62393 0.0
O178 O 0.85775 0.63661 0.62499 0.0
C179 C 0.89548 0.55839 0.56824 0.0
Tb180 Tb 0.18895 0.08505 0.84526 0.0
C181 C 0.10341 0.11522 0.81666 0.0
Tb182 Tb 0.17306 0.02452 0.81032 0.0
O183 O 0.20721 0.15585 0.83058 0.0
O184 O 0.22484 0.08711 0.81662 0.0
O185 O 0.115 0.11167 0.83535 0.0
C186 C 0.17407 0.97993 0.77548 0.0
O187 O 0.13135 0.09296 0.8032 0.0
C188 C 0.10128 1.00901 0.83681 0.0
C189 C 0.24026 0.97355 0.84296 0.0
O190 O 0.13487 0.98577 0.78656 0.0
O191 O 0.21391 0.99868 0.78408 0.0
O192 O 0.09451 1.00527 0.81822 0.0
O193 O 0.14827 0.01689 0.83986 0.0
O194 O 0.2188 0.96704 0.82566 0.0
O195 O 0.23675 0.01794 0.8523 0.0
C196 C 0.1955 0.11799 0.88171 0.0
O197 O 0.23398 0.10935 0.87026 0.0
O198 O 0.15334 0.10918 0.87245 0.0
C199 C 0.2222 0.13592 0.81435 0.0
Tb200 Tb 0.68396 0.44973 0.09751 0.0
C201 C 0.6426 0.37765 0.06529 0.0
Tb202 Tb 0.7453 0.43199 0.06165 0.0
O203 O 0.61759 0.48339 0.08384 0.0
O204 O 0.68785 0.48767 0.06964 0.0
O205 O 0.64371 0.38588 0.08434 0.0
C206 C 0.78651 0.44422 0.02649 0.0
O207 O 0.67524 0.39769 0.05298 0.0
C208 C 0.74718 0.35526 0.08675 0.0
C209 C 0.79956 0.48978 0.09627 0.0
O210 O 0.79693 0.40716 0.03839 0.0
O211 O 0.75432 0.475 0.0347 0.0
O212 O 0.75053 0.34975 0.06798 0.0
O213 O 0.74672 0.40252 0.09059 0.0
O214 O 0.80477 0.47122 0.07838 0.0
O215 O 0.75498 0.48896 0.10547 0.0
C216 C 0.65236 0.45471 0.13405 0.0
O217 O 0.66283 0.49369 0.12307 0.0
O218 O 0.65864 0.41263 0.12429 0.0
C219 C 0.63925 0.4936 0.06738 0.0
Tb220 Tb 0.33967 0.93764 0.34551 0.0
C221 C 0.42464 0.91586 0.31542 0.0
Tb222 Tb 0.34469 1.00107 0.3102 0.0
O223 O 0.32548 0.86718 0.33 0.0
O224 O 0.29885 0.93539 0.31796 0.0
O225 O 0.41384 0.91572 0.33427 0.0
C226 C 0.32574 0.03791 0.27482 0.0
O227 O 0.39609 0.93969 0.30247 0.0
C228 C 0.42021 0.01933 0.33484 0.0
C229 C 0.28112 0.04624 0.3451 0.0
O230 O 0.35316 0.06043 0.28794 0.0
O231 O 0.30831 0.99556 0.28184 0.0
O232 O 0.42378 0.02444 0.31605 0.0
O233 O 0.37444 1.00811 0.3389 0.0
O234 O 0.29457 0.0526 0.32664 0.0
O235 O 0.29252 1.00348 0.35466 0.0
C236 C 0.33347 0.90117 0.38146 0.0
O237 O 0.29526 0.90788 0.3697 0.0
O238 O 0.37554 0.91403 0.37279 0.0
C239 C 0.30535 0.88732 0.31465 0.0
Tb240 Tb 0.24001 0.42585 0.4598 0.0
C241 C 0.30212 0.48838 0.42792 0.0
Tb242 Tb 0.18657 0.45465 0.42361 0.0
O243 O 0.23549 0.34463 0.4526 0.0
O244 O 0.24271 0.39887 0.43044 0.0
O245 O 0.30404 0.46461 0.44503 0.0
C246 C 0.16152 0.46115 0.38631 0.0
O247 O 0.25899 0.49249 0.41805 0.0
C248 C 0.14311 0.50029 0.45383 0.0
C249 C 0.13034 0.38706 0.45365 0.0
O250 O 0.17179 0.49967 0.39754 0.0
O251 O 0.16385 0.41907 0.39627 0.0
O252 O 0.12248 0.49393 0.43685 0.0
O253 O 0.19095 0.48911 0.45209 0.0
O254 O 0.13674 0.39574 0.43482 0.0
O255 O 0.16447 0.39976 0.46686 0.0
C256 C 0.28133 0.42735 0.4952 0.0
O257 O 0.29442 0.3963 0.48138 0.0
O258 O 0.24594 0.45766 0.48893 0.0
C259 C 0.23653 0.3516 0.43388 0.0
Tb260 Tb 0.84563 0.99128 0.20971 0.0
C261 C 0.78376 0.05119 0.17671 0.0
Tb262 Tb 0.82008 0.93607 0.17343 0.0
O263 O 0.92696 0.98844 0.20277 0.0
O264 O 0.87279 0.9943 0.18053 0.0
O265 O 0.80733 0.05418 0.19384 0.0
C266 C 0.82127 0.90895 0.13638 0.0
O267 O 0.7795 1.00718 0.16734 0.0
C268 C 0.77518 0.89155 0.20357 0.0
C269 C 0.88791 0.88243 0.20443 0.0
O270 O 0.78038 0.9129 0.14698 0.0
O271 O 0.86126 0.91911 0.14675 0.0
O272 O 0.78245 0.87088 0.18663 0.0
O273 O 0.78504 0.9397 0.20179 0.0
O274 O 0.88014 0.88845 0.1855 0.0
O275 O 0.87334 0.91646 0.21744 0.0
C276 C 0.8419 0.03598 0.24447 0.0
O277 O 0.87634 0.04431 0.23136 0.0
O278 O 0.80927 1.00338 0.23783 0.0
C279 C 0.92005 0.98948 0.18404 0.0
Tb280 Tb 0.29019 0.60277 0.95996 0.0
C281 C 0.22137 0.54134 0.92981 0.0
Tb282 Tb 0.3387 0.56384 0.92471 0.0
O283 O 0.2991 0.6817 0.95053 0.0
O284 O 0.28647 0.62479 0.92992 0.0
O285 O 0.22146 0.57201 0.94527 0.0
C286 C 0.36203 0.55348 0.88737 0.0
O287 O 0.26435 0.52853 0.92099 0.0
C288 C 0.38118 0.51865 0.95533 0.0
C289 C 0.40266 0.62783 0.95331 0.0
O290 O 0.34906 0.51643 0.89892 0.0
O291 O 0.3632 0.59604 0.89701 0.0
O292 O 0.40015 0.52002 0.9379 0.0
O293 O 0.33466 0.53475 0.95411 0.0
O294 O 0.39327 0.6201 0.93462 0.0
O295 O 0.36868 0.61774 0.96688 0.0
C296 C 0.24514 0.61608 0.99442 0.0
O297 O 0.26507 0.65155 0.98384 0.0
O298 O 0.2502 0.57258 0.9856 0.0
C299 C 0.2962 0.67193 0.9321 0.0
Tb300 Tb 0.67215 0.04098 0.70797 0.0
C301 C 0.73132 0.97747 0.67544 0.0
Tb302 Tb 0.70372 0.09536 0.67195 0.0
O303 O 0.59164 0.04738 0.69979 0.0
O304 O 0.64764 0.03971 0.67837 0.0
O305 O 0.70642 0.97554 0.69232 0.0
C306 C 0.71024 0.1218 0.63488 0.0
O307 O 0.73883 0.02128 0.66623 0.0
C308 C 0.75034 0.13577 0.70249 0.0
C309 C 0.63854 0.15281 0.70261 0.0
O310 O 0.74856 0.10911 0.64588 0.0
O311 O 0.66837 0.12108 0.64496 0.0
O312 O 0.74691 0.15668 0.68542 0.0
O313 O 0.73599 0.08891 0.70054 0.0
O314 O 0.64632 0.14671 0.68369 0.0
O315 O 0.64977 0.11736 0.71555 0.0
C316 C 0.67454 0.99761 0.74303 0.0
O317 O 0.63676 0.99485 0.73091 0.0
O318 O 0.71102 0.02367 0.73521 0.0
C319 C 0.60033 0.04656 0.68115 0.0
H320 H 0.47836 0.13232 0.06744 0.0
H321 H 0.54142 0.39213 0.06819 0.0
H322 H 0.36751 0.22926 0.03926 0.0
H323 H 0.65656 0.29524 0.04266 0.0
H324 H 0.47551 0.33559 0.05519 0.0
H325 H 0.54625 0.18832 0.05578 0.0
C326 C 0.46877 0.16531 0.05862 0.0
C327 C 0.4182 0.17816 0.0548 0.0
C328 C 0.51519 0.32758 0.05196 0.0
C329 C 0.49399 0.24125 0.04162 0.0
C330 C 0.55239 0.35886 0.05977 0.0
C331 C 0.60348 0.34617 0.05706 0.0
C332 C 0.52999 0.28291 0.04217 0.0
C333 C 0.61693 0.3045 0.04544 0.0
C334 C 0.50717 0.1964 0.05162 0.0
C335 C 0.40665 0.21975 0.04283 0.0
N336 N 0.58011 0.27288 0.03888 0.0
N337 N 0.44449 0.25137 0.03715 0.0
H338 H 0.58968 0.67432 0.28344 0.0
H339 H 0.51441 0.91966 0.33438 0.0
H340 H 0.66053 0.73798 0.33457 0.0
H341 H 0.44435 0.8668 0.28138 0.0
H342 H 0.59245 0.87581 0.32554 0.0
H343 H 0.56178 0.76011 0.27398 0.0
C344 C 0.59939 0.70653 0.2926 0.0
C345 C 0.62376 0.69931 0.3105 0.0
C346 C 0.56044 0.87419 0.31559 0.0
C347 C 0.59371 0.79653 0.2997 0.0
C348 C 0.51583 0.89899 0.32076 0.0
C349 C 0.47279 0.89456 0.30897 0.0
C350 C 0.56024 0.84152 0.29938 0.0
C351 C 0.47662 0.86903 0.29117 0.0
C352 C 0.58434 0.75542 0.28706 0.0
C353 C 0.63841 0.74189 0.32134 0.0
N354 N 0.51925 0.84162 0.28719 0.0
N355 N 0.6224 0.78875 0.31592 0.0
H356 H 0.10747 0.83122 0.53077 0.0
H357 H 0.85878 0.76884 0.58297 0.0
H358 H 0.04577 0.90693 0.5813 0.0
H359 H 0.91409 0.68796 0.53256 0.0
H360 H 0.90502 0.84423 0.57251 0.0
H361 H 0.02108 0.80397 0.52194 0.0
C362 C 0.07558 0.84221 0.53989 0.0
C363 C 0.08343 0.8678 0.55748 0.0
C364 C 0.90661 0.81034 0.56349 0.0
C365 C 0.98572 0.83879 0.54737 0.0
C366 C 0.88061 0.7673 0.56961 0.0
C367 C 0.88518 0.72203 0.55907 0.0
C368 C 0.94016 0.80644 0.54759 0.0
C369 C 0.91177 0.72205 0.54144 0.0
C370 C 0.0264 0.82753 0.53472 0.0
C371 C 0.04132 0.884 0.56831 0.0
N372 N 0.94003 0.76329 0.53654 0.0
N373 N 0.99423 0.86855 0.56322 0.0
H374 H 0.01722 0.11296 0.83798 0.0
H375 H 0.92294 0.3416 0.78182 0.0
H376 H 0.07648 0.15864 0.78211 0.0
H377 H 0.8611 0.28536 0.83587 0.0
H378 H 0.95131 0.25519 0.77389 0.0
H379 H 0.93555 0.15014 0.82958 0.0
C380 C 0.01283 0.13095 0.8239 0.0
C381 C 0.05388 0.13527 0.81107 0.0
C382 C 0.93053 0.2615 0.7873 0.0
C383 C 0.96169 0.18031 0.80175 0.0
C384 C 0.91514 0.31086 0.79194 0.0
C385 C 0.89366 0.32066 0.8102 0.0
C386 C 0.92498 0.2227 0.80125 0.0
C387 C 0.88122 0.27966 0.82228 0.0
C388 C 0.96603 0.15168 0.81896 0.0
C389 C 0.04597 0.15684 0.7927 0.0
N390 N 0.89803 0.23239 0.81776 0.0
N391 N 1.00103 0.18034 0.7888 0.0
H392 H 0.65367 0.77064 0.92823 0.0
H393 H 0.4346 0.66962 0.98753 0.0
H394 H 0.61162 0.82795 0.98486 0.0
H395 H 0.4891 0.60586 0.93352 0.0
H396 H 0.52039 0.70085 0.99432 0.0
H397 H 0.61931 0.68789 0.93692 0.0
C398 C 0.63684 0.76568 0.94249 0.0
C399 C 0.63273 0.80643 0.9555 0.0
C400 C 0.5139 0.67901 0.98117 0.0
C401 C 0.59187 0.71274 0.96535 0.0
C402 C 0.46487 0.66192 0.9772 0.0
C403 C 0.45457 0.63926 0.95921 0.0
C404 C 0.55169 0.67407 0.96678 0.0
C405 C 0.49509 0.62696 0.94687 0.0
C406 C 0.61796 0.71824 0.94762 0.0
C407 C 0.61316 0.79769 0.97413 0.0
N408 N 0.54193 0.64557 0.95068 0.0
N409 N 0.59185 0.75199 0.97834 0.0
H410 H 0.67445 0.24119 0.68796 0.0
H411 H 0.45231 0.37619 0.73942 0.0
H412 H 0.58547 0.17933 0.73511 0.0
H413 H 0.51833 0.40988 0.68339 0.0
H414 H 0.53118 0.33203 0.74867 0.0
H415 H 0.65211 0.32711 0.69855 0.0
C416 C 0.64972 0.24593 0.70047 0.0
C417 C 0.62812 0.20381 0.70983 0.0
C418 C 0.5289 0.35067 0.73462 0.0
C419 C 0.60207 0.301 0.72171 0.0
C420 C 0.48384 0.37504 0.72924 0.0
C421 C 0.47841 0.3937 0.71026 0.0
C422 C 0.56787 0.34515 0.72078 0.0
C423 C 0.52044 0.39347 0.69782 0.0
C424 C 0.63808 0.29478 0.7068 0.0
C425 C 0.59995 0.21138 0.72684 0.0
N426 N 0.56334 0.36872 0.70321 0.0
N427 N 0.58605 0.2594 0.73191 0.0
H428 H 0.04034 0.41657 0.4386 0.0
H429 H 0.91125 0.1842 0.4879 0.0
H430 H 0.10711 0.3276 0.48493 0.0
H431 H 0.87151 0.25514 0.43327 0.0
H432 H 0.95932 0.26093 0.49682 0.0
H433 H 0.95641 0.38598 0.44792 0.0
C434 C 0.0371 0.39024 0.4507 0.0
C435 C 0.0803 0.3717 0.46032 0.0
C436 C 0.93877 0.26012 0.48315 0.0
C437 C 0.98541 0.33581 0.47064 0.0
C438 C 0.91207 0.21637 0.47798 0.0
C439 C 0.88999 0.21311 0.45948 0.0
C440 C 0.94276 0.30014 0.46965 0.0
C441 C 0.89021 0.25571 0.44731 0.0
C442 C 0.98929 0.37359 0.45625 0.0
C443 C 0.07439 0.34047 0.47664 0.0
N444 N 0.91693 0.29741 0.45252 0.0
N445 N 0.02761 0.32183 0.48094 0.0
H446 H 0.01306 0.60908 0.1861 0.0
H447 H 0.9437 0.8596 0.23686 0.0
H448 H 0.0918 0.66536 0.23676 0.0
H449 H 0.86363 0.79202 0.18855 0.0
H450 H 0.97712 0.77499 0.2455 0.0
H451 H 0.93774 0.65667 0.19566 0.0
C452 C 0.0141 0.63133 0.19935 0.0
C453 C 0.05869 0.63536 0.21029 0.0
C454 C 0.95132 0.77855 0.23326 0.0
C455 C 0.97422 0.69207 0.22078 0.0
C456 C 0.93299 0.82674 0.22822 0.0
C457 C 0.90411 0.83252 0.21126 0.0
C458 C 0.94035 0.73675 0.22114 0.0
C459 C 0.88873 0.78919 0.20102 0.0
C460 C 0.97108 0.65827 0.20494 0.0
C461 C 0.05814 0.66307 0.22767 0.0
N462 N 0.90772 0.74309 0.20595 0.0
N463 N 0.01688 0.69209 0.23209 0.0
H464 H 0.35613 0.01845 0.02558 0.0
H465 H 0.65422 0.99327 0.99293 0.0
H466 H 0.48273 0.02345 0.06552 0.0
H467 H 0.52845 0.98411 0.95274 0.0
H468 H 0.59209 1.00637 0.01962 0.0
H469 H 0.41766 1.00677 0.99863 0.0
C470 C 0.3964 0.01698 0.02882 0.0
C471 C 0.41339 0.02212 0.04816 0.0
C472 C 0.57811 1.00172 1.00491 0.0
C473 C 0.48509 1.00888 0.01708 0.0
C474 C 0.61387 0.99452 0.98961 0.0
C475 C 0.59719 0.9878 0.97032 0.0
C476 C 0.52494 1.00226 1.00107 0.0
C477 C 0.54376 0.98919 0.96723 0.0
C478 C 0.43188 1.01037 0.01335 0.0
C479 C 0.4669 0.01973 0.05105 0.0
N480 N 0.5101 0.99613 0.98222 0.0
N481 N 0.5002 0.0135 0.03594 0.0
H482 H 0.73877 0.61556 0.27666 0.0
H483 H 0.78264 0.91188 0.24428 0.0
H484 H 0.77334 0.73665 0.31692 0.0
H485 H 0.7522 0.79041 0.20372 0.0
H486 H 0.77767 0.84914 0.27107 0.0
H487 H 0.74307 0.67833 0.2498 0.0
C488 C 0.74775 0.65486 0.27996 0.0
C489 C 0.75591 0.66992 0.29939 0.0
C490 C 0.77184 0.83625 0.25628 0.0
C491 C 0.76029 0.74329 0.26838 0.0
C492 C 0.77442 0.87252 0.24089 0.0
C493 C 0.76773 0.85736 0.22139 0.0
C494 C 0.76241 0.78394 0.25237 0.0
C495 C 0.75759 0.80478 0.21834 0.0
C496 C 0.74993 0.69111 0.26455 0.0
C497 C 0.76685 0.72236 0.30236 0.0
N498 N 0.75539 0.77058 0.2334 0.0
N499 N 0.76856 0.75653 0.28729 0.0
H500 H 0.04056 0.01517 0.56724 0.0
H501 H 0.98935 0.01946 0.45175 0.0
H502 H 0.16021 0.99264 0.52516 0.0
H503 H 0.87004 0.04187 0.49396 0.0
H504 H 0.05066 1.00688 0.47805 0.0
H505 H 0.97886 0.02354 0.54096 0.0
C506 C 0.05442 1.01232 0.55244 0.0
C507 C 0.1068 1.0032 0.5488 0.0
C508 C 1.0111 0.01401 0.4817 0.0
C509 C 0.03401 1.01274 0.51786 0.0
C510 C 0.97551 0.02099 0.46659 0.0
C511 C 0.92342 0.03126 0.47031 0.0
C512 C 0.99559 0.0176 0.50119 0.0
C513 C 0.90901 0.03312 0.49006 0.0
C514 C 0.01852 0.01697 0.53732 0.0
C515 C 0.12098 0.99981 0.52904 0.0
N516 N 0.94471 0.02668 0.50461 0.0
N517 N 0.08505 1.0045 0.51447 0.0
H518 H 0.79408 0.41194 0.77426 0.0
H519 H 0.72997 0.11888 0.74277 0.0
H520 H 0.74023 0.2973 0.81423 0.0
H521 H 0.78589 0.2329 0.70298 0.0
H522 H 0.73419 0.18277 0.76916 0.0
H523 H 0.79055 0.34761 0.7479 0.0
C524 C 0.78096 0.37372 0.77753 0.0
C525 C 0.76729 0.36077 0.79673 0.0
C526 C 0.74584 0.19371 0.75464 0.0
C527 C 0.76365 0.28583 0.76639 0.0
C528 C 0.74379 0.15676 0.73951 0.0
C529 C 0.7577 0.16965 0.72033 0.0
C530 C 0.76199 0.24435 0.75077 0.0
C531 C 0.77471 0.22041 0.71737 0.0
C532 C 0.77924 0.33662 0.76245 0.0
C533 C 0.75113 0.3098 0.79981 0.0
N534 N 0.77615 0.25534 0.73216 0.0
N535 N 0.7499 0.27476 0.78505 0.0
H536 H 0.25624 0.40601 0.73816 0.0
H537 H 0.26502 0.11211 0.77751 0.0
H538 H 0.32787 0.28216 0.70707 0.0
H539 H 0.20859 0.23856 0.81145 0.0
H540 H 0.28478 0.17282 0.7509 0.0
H541 H 0.23517 0.34535 0.76458 0.0
C542 C 0.26774 0.36648 0.7368 0.0
C543 C 0.29431 0.34998 0.72013 0.0
C544 C 0.26807 0.18725 0.76421 0.0
C545 C 0.2695 0.27925 0.75049 0.0
C546 C 0.25677 0.15233 0.77945 0.0
C547 C 0.23533 0.16967 0.79703 0.0
C548 C 0.2576 0.24016 0.76634 0.0
C549 C 0.22539 0.22279 0.79838 0.0
C550 C 0.25552 0.33151 0.75193 0.0
C551 C 0.30737 0.29743 0.71944 0.0
N552 N 0.23642 0.25559 0.78346 0.0
N553 N 0.29496 0.26452 0.73415 0.0
H554 H 0.25037 0.90888 0.27975 0.0
H555 H 0.27852 0.6191 0.23707 0.0
H556 H 0.32985 0.78744 0.30946 0.0
H557 H 0.19819 0.73993 0.20734 0.0
H558 H 0.29738 0.67966 0.26376 0.0
H559 H 0.2312 0.84841 0.25301 0.0
C560 C 0.264 0.86991 0.28073 0.0
C561 C 0.29192 0.85396 0.29718 0.0
C562 C 0.27556 0.6929 0.25137 0.0
C563 C 0.26967 0.7835 0.26637 0.0
C564 C 0.26459 0.65796 0.23608 0.0
C565 C 0.23652 0.67369 0.21965 0.0
C566 C 0.25853 0.74436 0.2504 0.0
C567 C 0.22013 0.72536 0.21948 0.0
C568 C 0.25289 0.83504 0.26542 0.0
C569 C 0.30803 0.8022 0.29732 0.0
N570 N 0.23124 0.75825 0.23436 0.0
N571 N 0.29682 0.76944 0.28242 0.0
H572 H 0.03993 0.50852 0.45406 0.0
H573 H 0.99895 0.55193 0.5688 0.0
H574 H 0.16545 0.51131 0.4945 0.0
H575 H 0.8742 0.53226 0.52876 0.0
H576 H 0.05924 0.5372 0.54235 0.0
H577 H 0.98041 0.51774 0.48092 0.0
C578 C 0.05553 0.51101 0.46861 0.0
C579 C 0.10891 0.50842 0.47161 0.0
C580 C 0.01879 0.53571 0.53924 0.0
C581 C 0.03855 0.51993 0.50328 0.0
C582 C 0.98376 0.54407 0.55446 0.0
C583 C 0.93037 0.54333 0.55139 0.0
C584 C 1.00133 0.52678 0.52025 0.0
C585 C 0.91434 0.53301 0.53221 0.0
C586 C 0.02084 0.51626 0.48409 0.0
C587 C 0.12527 0.51236 0.49112 0.0
N588 N 0.94941 0.52554 0.51751 0.0
N589 N 0.09047 0.51802 0.50605 0.0
H590 H 0.54447 0.53437 0.06755 0.0
H591 H 0.47914 0.48494 0.9547 0.0
H592 H 0.65501 0.47602 0.02683 0.0
H593 H 0.36753 0.54004 0.99569 0.0
H594 H 0.54298 0.48282 0.98046 0.0
H595 H 0.48153 0.53968 0.0415 0.0
C596 C 0.55613 0.52338 0.05302 0.0
C597 C 0.60619 0.50513 0.04969 0.0
C598 C 0.50463 0.49516 0.98398 0.0
C599 C 0.53197 0.51031 0.01917 0.0
C600 C 0.46753 0.4962 0.9692 0.0
C601 C 0.41689 0.51251 0.97273 0.0
C602 C 0.49209 0.51055 1.00294 0.0
C603 C 0.40545 0.52674 0.99203 0.0
C604 C 0.51955 0.52617 0.03808 0.0
C605 C 0.61777 0.49116 0.03036 0.0
N606 N 0.44256 0.52557 1.00626 0.0
N607 N 0.58109 0.49379 0.016 0.0
H608 H 0.28525 0.27403 0.07508 0.0
H609 H 0.25557 0.37991 0.18445 0.0
H610 H 0.26642 0.17439 0.12446 0.0
H611 H 0.27469 0.47596 0.13398 0.0
H612 H 0.26617 0.3044 0.16366 0.0
H613 H 0.28666 0.34751 0.09699 0.0
C614 C 0.28147 0.26752 0.09058 0.0
C615 C 0.27554 0.2177 0.09785 0.0
C616 C 0.26869 0.342 0.15717 0.0
C617 C 0.27716 0.30262 0.12334 0.0
C618 C 0.26308 0.3854 0.1691 0.0
C619 C 0.26426 0.43501 0.16111 0.0
C620 C 0.27547 0.34779 0.13697 0.0
C621 C 0.27351 0.43894 0.14097 0.0
C622 C 0.28239 0.30969 0.10315 0.0
C623 C 0.27115 0.21197 0.11815 0.0
N624 N 0.27833 0.39625 0.1297 0.0
N625 N 0.27182 0.25379 0.13014 0.0
H626 H 0.50233 0.56437 0.33298 0.0
H627 H 0.40367 0.4684 0.43729 0.0
H628 H 0.60728 0.5147 0.37743 0.0
H629 H 0.31025 0.54566 0.39473 0.0
H630 H 0.47913 0.48552 0.41691 0.0
H631 H 0.43237 0.55735 0.35617 0.0
C632 C 0.51074 0.55209 0.3477 0.0
C633 C 0.5609 0.53996 0.35317 0.0
C634 C 0.44214 0.49921 0.41219 0.0
C635 C 0.48001 0.5313 0.38013 0.0
C636 C 0.39896 0.48973 0.42391 0.0
C637 C 0.35003 0.5054 0.41782 0.0
C638 C 0.43646 0.52427 0.39417 0.0
C639 C 0.34673 0.53244 0.40014 0.0
C640 C 0.4706 0.54814 0.36102 0.0
C641 C 0.56922 0.52443 0.37254 0.0
N642 N 0.3889 0.54049 0.389 0.0
N643 N 0.5292 0.52013 0.38527 0.0
H644 H 0.26263 0.85037 0.62392 0.0
H645 H 0.2514 0.54432 0.63518 0.0
H646 H 0.2255 0.74708 0.57727 0.0
H647 H 0.28176 0.64466 0.68354 0.0
H648 H 0.23657 0.61889 0.61454 0.0
H649 H 0.26576 0.77721 0.64648 0.0
C650 C 0.25471 0.81244 0.61844 0.0
C651 C 0.24359 0.80507 0.59862 0.0
C652 C 0.24592 0.62479 0.62971 0.0
C653 C 0.24768 0.72073 0.62438 0.0
C654 C 0.25412 0.58197 0.64161 0.0
C655 C 0.26783 0.58768 0.66129 0.0
C656 C 0.25182 0.67435 0.63731 0.0
C657 C 0.27097 0.63795 0.66856 0.0
C658 C 0.25666 0.77058 0.63133 0.0
C659 C 0.23433 0.7548 0.59237 0.0
N660 N 0.26357 0.67911 0.65659 0.0
N661 N 0.23672 0.71487 0.6051 0.0
H662 H 0.02363 0.44712 0.83694 0.0
H663 H 0.12194 0.57673 0.93564 0.0
H664 H 0.91849 0.52076 0.87616 0.0
H665 H 0.20923 0.47062 0.90095 0.0
H666 H 0.04658 0.55826 0.91528 0.0
H667 H 0.09143 0.45745 0.86082 0.0
C668 C 0.0147 0.46533 0.85068 0.0
C669 C 0.96516 0.48315 0.85445 0.0
C670 C 0.08215 0.53864 0.91233 0.0
C671 C 0.0437 0.49589 0.88219 0.0
C672 C 0.12522 0.54895 0.92404 0.0
C673 C 0.17253 0.52545 0.92009 0.0
C674 C 0.08642 0.50484 0.89645 0.0
C675 C 0.1741 0.49014 0.90464 0.0
C676 C 0.0536 0.47121 0.8644 0.0
C677 C 0.9561 0.50635 0.87262 0.0
N678 N 0.13223 0.48144 0.89343 0.0
N679 N 0.99506 0.51254 0.88574 0.0
H680 H 0.82517 0.65434 0.83122 0.0
H681 H 0.75853 0.75246 0.93739 0.0
H682 H 0.73939 0.56658 0.87307 0.0
H683 H 0.76888 0.8618 0.89065 0.0
H684 H 0.76226 0.68328 0.91376 0.0
H685 H 0.81334 0.73064 0.85189 0.0
C686 C 0.80317 0.65111 0.84449 0.0
C687 C 0.78355 0.60345 0.85034 0.0
C688 C 0.76365 0.72232 0.90856 0.0
C689 C 0.77111 0.69038 0.87425 0.0
C690 C 0.7618 0.76199 0.9221 0.0
C691 C 0.76324 0.81314 0.91604 0.0
C692 C 0.76825 0.73329 0.88864 0.0
C693 C 0.76745 0.82289 0.89596 0.0
C694 C 0.79661 0.6947 0.85631 0.0
C695 C 0.75565 0.60197 0.86784 0.0
N696 N 0.77028 0.7833 0.88294 0.0
N697 N 0.751 0.64426 0.87918 0.0
H698 H 0.52547 0.52501 0.69454 0.0
H699 H 0.63784 0.51471 0.58591 0.0
H700 H 0.42952 0.50607 0.64419 0.0
H701 H 0.73106 0.51457 0.63765 0.0
H702 H 0.56162 0.50797 0.60643 0.0
H703 H 0.6007 0.52033 0.67361 0.0
C704 C 0.52016 0.52008 0.67903 0.0
C705 C 0.47088 0.51587 0.67118 0.0
C706 C 0.59879 0.50871 0.61328 0.0
C707 C 0.55767 0.51036 0.64686 0.0
C708 C 0.6426 0.51213 0.60153 0.0
C709 C 0.69155 0.51523 0.60991 0.0
C710 C 0.60353 0.50879 0.63367 0.0
C711 C 0.69457 0.51221 0.63035 0.0
C712 C 0.56331 0.51708 0.66705 0.0
C713 C 0.46668 0.50921 0.65093 0.0
N714 N 0.65144 0.50973 0.64143 0.0
N715 N 0.50937 0.50684 0.63949 0.0
H716 H 0.75833 0.16347 0.39212 0.0
H717 H 0.78183 0.46732 0.37976 0.0
H718 H 0.76373 0.26986 0.43989 0.0
H719 H 0.71813 0.37392 0.33414 0.0
H720 H 0.79076 0.39168 0.40008 0.0
H721 H 0.7567 0.23624 0.36923 0.0
C722 C 0.75924 0.20205 0.3978 0.0
C723 C 0.76096 0.21052 0.418 0.0
C724 C 0.7752 0.38749 0.38557 0.0
C725 C 0.75998 0.29388 0.39188 0.0
C726 C 0.77037 0.43084 0.37379 0.0
C727 C 0.7489 0.42759 0.35505 0.0
C728 C 0.75896 0.33971 0.37872 0.0
C729 C 0.73493 0.37863 0.34841 0.0
C730 C 0.75825 0.24353 0.38472 0.0
C731 C 0.76209 0.26137 0.42449 0.0
N732 N 0.74002 0.33674 0.36023 0.0
N733 N 0.7619 0.30083 0.41154 0.0
H734 H 0.80467 0.52102 0.13439 0.0
H735 H 0.11019 0.50731 0.1436 0.0
H736 H 0.90143 0.4861 0.08534 0.0
H737 H 1.00733 0.50357 0.19245 0.0
H738 H 0.03627 0.50946 0.12149 0.0
H739 H 0.88013 0.52697 0.15499 0.0
C740 C 0.84177 0.51542 0.12779 0.0
C741 C 0.84616 0.5029 0.10794 0.0
C742 C 0.02989 0.50823 0.13704 0.0
C743 C 0.93369 0.50912 0.13186 0.0
C744 C 0.0721 0.50714 0.14969 0.0
C745 C 0.06505 0.50573 0.16996 0.0
C746 C 0.98009 0.50822 0.1447 0.0
C747 C 0.01473 0.50468 0.17696 0.0
C748 C 0.88503 0.51843 0.13969 0.0
C749 C 0.89579 0.49595 0.10048 0.0
N750 N 0.97443 0.50628 0.16443 0.0
N751 N 0.93744 0.49892 0.11242 0.0
H752 H 0.75499 0.66558 0.62755 0.0
H753 H 0.77683 0.96901 0.63972 0.0
H754 H 0.75565 0.77173 0.57962 0.0
H755 H 0.71339 0.87585 0.6855 0.0
H756 H 0.78464 0.89349 0.61934 0.0
H757 H 0.75273 0.73833 0.65037 0.0
C758 C 0.75477 0.70413 0.62182 0.0
C759 C 0.75577 0.71253 0.6016 0.0
C760 C 0.76936 0.88934 0.63389 0.0
C761 C 0.75372 0.79589 0.62763 0.0
C762 C 0.76517 0.9326 0.64571 0.0
C763 C 0.74413 0.92939 0.66452 0.0
C764 C 0.75298 0.84166 0.64078 0.0
C765 C 0.72989 0.88052 0.67118 0.0
C766 C 0.75335 0.74559 0.63486 0.0
C767 C 0.75493 0.76332 0.59504 0.0
N768 N 0.73444 0.83867 0.65933 0.0
N769 N 0.75441 0.80283 0.60795 0.0
H770 H 0.8976 0.98946 0.93796 0.0
H771 H 1.00035 1.00449 0.82885 0.0
H772 H 0.80355 0.02598 0.8883 0.0
H773 H 0.10384 0.01519 0.8774 0.0
H774 H 0.92856 1.00834 0.85121 0.0
H775 H 0.97368 0.9976 0.91727 0.0
C776 C 0.89279 1.00027 0.92286 0.0
C777 C 0.84356 1.00688 0.91498 0.0
C778 C 0.96682 1.01002 0.8571 0.0
C779 C 0.93092 0.01491 0.89104 0.0
C780 C 1.00808 1.00745 0.84429 0.0
C781 C 0.05846 1.00973 0.85118 0.0
C782 C 0.97534 0.01389 0.87722 0.0
C783 C 0.0657 0.01364 0.87141 0.0
C784 C 0.9364 1.00457 0.91102 0.0
C785 C 0.84027 0.02039 0.89519 0.0
N786 N 0.02463 0.01529 0.88374 0.0
N787 N 0.883 0.02325 0.88397 0.0
H788 H 0.79845 0.15301 0.1869 0.0
H789 H 0.73366 0.25401 0.07939 0.0
H790 H 0.7365 0.05892 0.14117 0.0
H791 H 0.76118 0.35795 0.12679 0.0
H792 H 0.73646 0.18254 0.10226 0.0
H793 H 0.7857 0.22859 0.16607 0.0
C794 C 0.78136 0.14813 0.17268 0.0
C795 C 0.76862 0.09897 0.16593 0.0
C796 C 0.74172 0.22088 0.10778 0.0
C797 C 0.75496 0.18571 0.14173 0.0
C798 C 0.74027 0.26185 0.09466 0.0
C799 C 0.74736 0.3122 0.1011 0.0
C800 C 0.75098 0.22974 0.12766 0.0
C801 C 0.75551 0.31979 0.12115 0.0
C802 C 0.77436 0.19142 0.16072 0.0
C803 C 0.7471 0.09558 0.14718 0.0
N804 N 0.75751 0.27908 0.13367 0.0
N805 N 0.7415 0.13791 0.13581 0.0
H806 H 0.62854 0.02104 0.43482 0.0
H807 H 0.52067 0.03041 0.32566 0.0
H808 H 0.7232 1.01109 0.38361 0.0
H809 H 0.42202 1.00724 0.37499 0.0
H810 H 0.59463 0.0259 0.34722 0.0
H811 H 0.55261 0.01567 0.41398 0.0
C812 C 0.6336 0.01667 0.41927 0.0
C813 C 0.68291 0.01649 0.4111 0.0
C814 C 0.55693 0.02167 0.35342 0.0
C815 C 0.59542 1.01171 0.38699 0.0
C816 C 0.51448 0.0246 0.34109 0.0
C817 C 0.46484 0.01888 0.34844 0.0
C818 C 0.5502 0.01376 0.3735 0.0
C819 C 0.45952 1.01135 0.36862 0.0
C820 C 0.59003 0.01399 0.40735 0.0
C821 C 0.6864 1.01129 0.39075 0.0
N822 N 0.50154 1.00917 0.38043 0.0
N823 N 0.64357 1.0097 0.37949 0.0
H824 H 0.25244 0.35477 0.39384 0.0
H825 H 0.24599 0.04811 0.38284 0.0
H826 H 0.22274 0.25015 0.44088 0.0
H827 H 0.27641 0.14834 0.33442 0.0
H828 H 0.23097 0.1227 0.4034 0.0
H829 H 0.25624 0.28161 0.37123 0.0
C830 C 0.24646 0.31656 0.39941 0.0
C831 C 0.23742 0.30879 0.41937 0.0
C832 C 0.24039 0.1286 0.38823 0.0
C833 C 0.24179 0.22457 0.39354 0.0
C834 C 0.24869 0.08574 0.37637 0.0
C835 C 0.26247 0.09138 0.3567 0.0
C836 C 0.24616 0.17817 0.3806 0.0
C837 C 0.26558 0.14167 0.3494 0.0
C838 C 0.24867 0.27471 0.38649 0.0
C839 C 0.23005 0.25822 0.42569 0.0
N840 N 0.25799 0.18288 0.36133 0.0
N841 N 0.23253 0.21841 0.41293 0.0
H842 H 0.02035 0.96951 0.19062 0.0
H843 H 0.11842 0.04224 0.08335 0.0
H844 H 0.91714 1.01172 0.1445 0.0
H845 H 0.2161 0.99148 0.13008 0.0
H846 H 0.04389 0.02691 0.10422 0.0
H847 H 0.09142 0.97397 0.16777 0.0
C848 C 0.01256 0.97959 0.17562 0.0
C849 C 0.96254 0.99032 0.16954 0.0
C850 C 0.08162 0.01861 0.10981 0.0
C851 C 0.04458 0.99579 0.143 0.0
C852 C 0.12434 0.02703 0.09783 0.0
C853 C 0.1741 0.01824 0.10485 0.0
C854 C 0.08843 1.00137 0.12904 0.0
C855 C 0.17887 0.99899 0.12389 0.0
C856 C 0.05332 0.98207 0.16251 0.0
C857 C 0.95501 1.00299 0.14984 0.0
N858 N 0.13691 0.99163 0.13525 0.0
N859 N 0.99554 1.00566 0.13732 0.0
H860 H 0.289 0.97115 0.87839 0.0
H861 H 0.26938 0.66612 0.89287 0.0
H862 H 0.23424 0.87106 0.83319 0.0
H863 H 0.31838 0.7722 0.93695 0.0
H864 H 0.26244 0.738 0.86966 0.0
H865 H 0.30729 0.8967 0.89861 0.0
C866 C 0.28153 0.93352 0.87253 0.0
C867 C 0.25995 0.92789 0.85392 0.0
C868 C 0.27496 0.7454 0.8844 0.0
C869 C 0.28013 0.84137 0.87746 0.0
C870 C 0.27896 0.70433 0.89764 0.0
C871 C 0.29413 0.71305 0.91698 0.0
C872 C 0.28641 0.79554 0.89051 0.0
C873 C 0.30615 0.76348 0.92229 0.0
C874 C 0.29174 0.89076 0.8842 0.0
C875 C 0.25105 0.87764 0.84735 0.0
N876 N 0.30189 0.80244 0.90925 0.0
N877 N 0.2607 0.83654 0.85912 0.0
H878 H 0.60766 0.02007 0.64213 0.0
H879 H 0.30508 0.04684 0.62461 0.0
H880 H 0.49896 0.0661 0.68579 0.0
H881 H 0.40304 0.97054 0.58334 0.0
H882 H 0.37899 0.06508 0.64482 0.0
H883 H 0.53707 1.01136 0.61858 0.0
C884 C 0.56908 0.02868 0.64674 0.0
C885 C 0.55929 0.04363 0.66605 0.0
C886 C 0.38467 0.04471 0.63128 0.0
C887 C 0.47828 0.03405 0.63911 0.0
C888 C 0.34224 0.03443 0.61957 0.0
C889 C 0.34728 1.00681 0.60211 0.0
C890 C 0.43331 0.0274 0.62571 0.0
C891 C 0.39699 0.99209 0.59658 0.0
C892 C 0.52877 0.02357 0.63329 0.0
C893 C 0.50847 0.05424 0.67114 0.0
N894 N 0.4379 1.0022 0.60837 0.0
N895 N 0.47021 0.04927 0.65785 0.0
H896 H 0.27747 0.03111 0.99578 0.0
H897 H 0.11903 0.13919 0.90748 0.0
H898 H 0.16004 0.14361 1.00633 0.0
H899 H 0.28009 0.1062 0.90392 0.0
H900 H 0.12411 0.13177 0.94312 0.0
H901 H 0.26759 0.04466 0.96086 0.0
C902 C 0.24893 0.05802 0.99071 0.0
C903 C 0.21956 0.08645 1.00384 0.0
C904 C 0.15831 0.12693 0.93447 0.0
C905 C 0.20846 0.1023 0.96407 0.0
C906 C 0.15554 0.13134 0.91425 0.0
C907 C 0.19925 0.12322 0.90289 0.0
C908 C 0.20477 0.11309 0.94311 0.0
C909 C 0.24558 0.11281 0.91221 0.0
C910 C 0.24377 0.06612 0.97083 0.0
C911 C 0.18334 0.12104 0.99655 0.0
N912 N 0.24699 0.10722 0.93181 0.0
N913 N 0.17868 0.12808 0.97702 0.0
H914 H 0.62713 0.37826 0.15954 0.0
H915 H 0.7415 0.52633 0.24836 0.0
H916 H 0.66727 0.53784 0.15656 0.0
H917 H 0.60991 0.43143 0.25865 0.0
H918 H 0.73051 0.51408 0.2134 0.0
H919 H 0.63221 0.38287 0.19534 0.0
C920 C 0.63617 0.4143 0.16644 0.0
C921 C 0.64685 0.45777 0.15523 0.0
C922 C 0.7044 0.49557 0.22336 0.0
C923 C 0.65436 0.46259 0.19552 0.0
C924 C 0.71086 0.50212 0.24325 0.0
C925 C 0.67633 0.48001 0.25627 0.0
C926 C 0.66373 0.46601 0.21651 0.0
C927 C 0.63711 0.44918 0.24893 0.0
C928 C 0.63918 0.41679 0.18672 0.0
C929 C 0.6587 0.50352 0.16472 0.0
N930 N 0.63176 0.44294 0.22939 0.0
N931 N 0.66299 0.50454 0.18434 0.0
H932 H 0.36231 0.87207 0.50752 0.0
H933 H 0.24559 0.89813 0.40205 0.0
H934 H 0.23846 0.97458 0.49346 0.0
H935 H 0.40905 0.88835 0.40854 0.0
H936 H 0.23711 0.90241 0.43738 0.0
H937 H 0.37664 0.85832 0.47242 0.0
C938 C 0.33865 0.89202 0.49705 0.0
C939 C 0.29931 0.92458 0.50324 0.0
C940 C 0.27477 0.89865 0.43104 0.0
C941 C 0.31413 0.9077 0.46369 0.0
C942 C 0.27963 0.89577 0.41095 0.0
C943 C 0.32811 0.89334 0.40248 0.0
C944 C 0.31862 0.89835 0.4427 0.0
C945 C 0.37103 0.89046 0.41463 0.0
C946 C 0.34669 0.88404 0.47717 0.0
C947 C 0.26935 0.94937 0.48924 0.0
N948 N 0.36536 0.89327 0.43427 0.0
N949 N 0.27696 0.93989 0.4701 0.0
H950 H 0.84024 0.66626 0.66138 0.0
H951 H 0.95485 0.51753 0.75269 0.0
H952 H 0.93294 0.53067 0.65578 0.0
H953 H 0.80626 0.58866 0.75392 0.0
H954 H 0.96366 0.54221 0.71848 0.0
H955 H 0.84459 0.65784 0.69693 0.0
C956 C 0.86244 0.63543 0.66767 0.0
C957 C 0.88614 0.59888 0.65579 0.0
C958 C 0.92945 0.5529 0.72634 0.0
C959 C 0.89144 0.58942 0.69607 0.0
C960 C 0.92443 0.53903 0.74581 0.0
C961 C 0.87956 0.55081 0.75596 0.0
C962 C 0.88972 0.57948 0.71715 0.0
C963 C 0.84125 0.57862 0.74646 0.0
C964 C 0.86457 0.6305 0.68786 0.0
C965 C 0.91404 0.55941 0.66454 0.0
N966 N 0.84714 0.59205 0.72748 0.0
N967 N 0.9159 0.55562 0.68422 0.0
H968 H 0.75062 0.86263 0.11353 0.0
H969 H 0.82077 0.99929 0.01708 0.0
H970 H 0.89138 0.94733 0.11142 0.0
H971 H 0.77684 0.84055 0.0162 0.0
H972 H 0.83642 0.99191 0.05238 0.0
H973 H 0.74751 0.86402 0.07781 0.0
C974 C 0.78102 0.88098 0.10549 0.0
C975 C 0.82146 0.90452 0.1152 0.0
C976 C 0.8239 0.95877 0.04427 0.0
C977 C 0.81726 0.9078 0.07489 0.0
C978 C 0.81491 0.96298 0.0243 0.0
C979 C 0.79759 0.92047 0.0139 0.0
C980 C 0.81387 0.91229 0.0537 0.0
C981 C 0.79035 0.87416 0.02376 0.0
C982 C 0.77925 0.8818 0.08525 0.0
C983 C 0.85988 0.92831 0.1043 0.0
N984 N 0.79769 0.87148 0.04323 0.0
N985 N 0.85645 0.93014 0.08461 0.0
H986 H 0.34111 0.47038 0.86521 0.0
H987 H 0.3729 0.61098 0.76321 0.0
H988 H 0.38344 0.62921 0.86139 0.0
H989 H 0.28225 0.47553 0.77178 0.0
H990 H 0.38404 0.61745 0.79862 0.0
H991 H 0.33001 0.4685 0.82995 0.0
C992 C 0.34881 0.50463 0.85687 0.0
C993 C 0.36313 0.55 0.8661 0.0
C994 C 0.36123 0.58674 0.7927 0.0
C995 C 0.34983 0.54845 0.82594 0.0
C996 C 0.3546 0.58326 0.77258 0.0
C997 C 0.32675 0.54264 0.7647 0.0
C998 C 0.3404 0.54889 0.80478 0.0
C999 C 0.30406 0.50742 0.77733 0.0
C1000 C 0.34196 0.50373 0.83681 0.0
C1001 C 0.3724 0.59346 0.85471 0.0
N1002 N 0.31188 0.51103 0.79676 0.0
N1003 N 0.36548 0.59169 0.83514 0.0
H1004 H 0.63329 0.14541 0.60961 0.0
H1005 H 0.78082 0.02056 0.52076 0.0
H1006 H 0.7907 0.09717 0.61205 0.0
H1007 H 0.66324 0.13345 0.51104 0.0
H1008 H 0.77243 0.03386 0.55576 0.0
H1009 H 0.63393 0.13125 0.57425 0.0
C1010 C 0.66813 0.13271 0.60263 0.0
C1011 C 0.71208 0.12251 0.6136 0.0
C1012 C 0.74814 0.05535 0.54596 0.0
C1013 C 0.71243 0.10471 0.57375 0.0
C1014 C 0.75248 0.04738 0.52605 0.0
C1015 C 0.72289 0.07629 0.51313 0.0
C1016 C 0.71367 0.0921 0.55292 0.0
C1017 C 0.68681 0.11063 0.52065 0.0
C1018 C 0.66833 0.12436 0.58258 0.0
C1019 C 0.75613 0.10566 0.60404 0.0
N1020 N 0.68331 0.11789 0.54017 0.0
N1021 N 0.75501 0.09667 0.58465 0.0
H1022 H 0.14539 0.38316 0.36068 0.0
H1023 H 0.2513 0.54571 0.27178 0.0
H1024 H 0.17908 0.54418 0.36375 0.0
H1025 H 0.15976 0.4112 0.2625 0.0
H1026 H 0.23828 0.53698 0.30676 0.0
H1027 H 0.15928 0.38599 0.32535 0.0
C1028 C 0.15485 0.4192 0.35385 0.0
C1029 C 0.16104 0.46357 0.36501 0.0
C1030 C 0.22135 0.50913 0.29708 0.0
C1031 C 0.17839 0.46664 0.32508 0.0
C1032 C 0.22924 0.51375 0.27717 0.0
C1033 C 0.2063 0.47923 0.26434 0.0
C1034 C 0.19064 0.46951 0.30419 0.0
C1035 C 0.17796 0.43859 0.27201 0.0
C1036 C 0.16305 0.42069 0.33379 0.0
C1037 C 0.17378 0.50921 0.35561 0.0
N1038 N 0.17066 0.4349 0.29154 0.0
N1039 N 0.18259 0.50946 0.33618 0.0
H1040 H 0.63469 0.63793 0.41063 0.0
H1041 H 0.79213 0.52343 0.49948 0.0
H1042 H 0.7938 0.59623 0.40743 0.0
H1043 H 0.66373 0.62399 0.50877 0.0
H1044 H 0.78343 0.53615 0.46445 0.0
H1045 H 0.63704 0.62364 0.44595 0.0
C1046 C 0.67024 0.6266 0.41743 0.0
C1047 C 0.71419 0.61835 0.40624 0.0
C1048 C 0.75687 0.55507 0.47415 0.0
C1049 C 0.71663 0.60048 0.44614 0.0
C1050 C 0.76143 0.54736 0.4941 0.0
C1051 C 0.72871 0.57296 0.50693 0.0
C1052 C 0.71907 0.58823 0.46704 0.0
C1053 C 0.68972 0.60372 0.49926 0.0
C1054 C 0.67144 0.61817 0.43748 0.0
C1055 C 0.75918 0.60322 0.4156 0.0
N1056 N 0.68605 0.61077 0.47972 0.0
N1057 N 0.75911 0.59422 0.43502 0.0
H1058 H 0.20394 0.87109 0.65664 0.0
H1059 H 0.0885 0.97673 0.75385 0.0
H1060 H 0.11312 1.00881 0.65667 0.0
H1061 H 0.25082 0.94994 0.75079 0.0
H1062 H 0.08225 0.96167 0.71884 0.0
H1063 H 0.20655 0.87384 0.69238 0.0
C1064 C 0.18377 0.90128 0.66422 0.0
C1065 C 0.15819 0.93986 0.65392 0.0
C1066 C 0.119 0.95842 0.72596 0.0
C1067 C 0.16046 0.94248 0.69423 0.0
C1068 C 0.1227 0.96673 0.74585 0.0
C1069 C 0.17037 0.96474 0.75505 0.0
C1070 C 0.16303 0.94674 0.7154 0.0
C1071 C 0.21352 0.95196 0.74408 0.0
C1072 C 0.18567 0.90294 0.68446 0.0
C1073 C 0.13316 0.97851 0.66423 0.0
N1074 N 0.20886 0.94321 0.72466 0.0
N1075 N 0.13459 0.9787 0.68396 0.0
H1076 H 0.87992 0.37637 0.90799 0.0
H1077 H 0.7456 0.50621 0.999 0.0
H1078 H 0.73057 0.44566 0.90556 0.0
H1079 H 0.85019 0.38012 1.00641 0.0
H1080 H 0.75158 0.49585 0.96377 0.0
H1081 H 0.87905 0.38553 0.94357 0.0
C1082 C 0.84671 0.39281 0.915 0.0
C1083 C 0.80515 0.41015 0.90395 0.0
C1084 C 0.77352 0.47071 0.97311 0.0
C1085 C 0.80464 0.42207 0.94422 0.0
C1086 C 0.77059 0.47694 0.99318 0.0
C1087 C 0.79738 0.44384 1.00554 0.0
C1088 C 0.80389 0.43148 0.96538 0.0
C1089 C 0.82896 0.40635 0.99728 0.0
C1090 C 0.84636 0.3982 0.9352 0.0
C1091 C 0.76321 0.43156 0.9136 0.0
N1092 N 0.83134 0.40105 0.97762 0.0
N1093 N 0.76426 0.43746 0.9332 0.0
H1094 H 0.28319 0.98289 0.24584 0.0
H1095 H 0.37308 0.15539 0.1578 0.0
H1096 H 0.36913 0.1203 0.25672 0.0
H1097 H 0.36067 0.99122 0.15494 0.0
H1098 H 0.36178 0.15076 0.19331 0.0
H1099 H 0.29627 0.99463 0.21102 0.0
C1100 C 0.30408 0.01606 0.24085 0.0
C1101 C 0.32547 0.05054 0.25406 0.0
C1102 C 0.36222 0.11588 0.18484 0.0
C1103 C 0.34104 0.06378 0.21439 0.0
C1104 C 0.36895 0.11842 0.1647 0.0
C1105 C 0.36765 0.07358 0.15356 0.0
C1106 C 0.35318 0.06833 0.19358 0.0
C1107 C 0.36183 0.02665 0.16304 0.0
C1108 C 0.31198 0.02242 0.22103 0.0
C1109 C 0.35221 0.09287 0.24688 0.0
N1110 N 0.3541 0.0253 0.1825 0.0
N1111 N 0.3595 0.09833 0.2274 0.0
H1112 H 0.41776 0.389 0.60963 0.0
H1113 H 0.23542 0.47273 0.52577 0.0
H1114 H 0.25408 0.39072 0.6162 0.0
H1115 H 0.35944 0.371 0.51111 0.0
H1116 H 0.25247 0.45795 0.56018 0.0
H1117 H 0.40667 0.39244 0.57403 0.0
C1118 C 0.37963 0.38903 0.60356 0.0
C1119 C 0.3367 0.38993 0.61573 0.0
C1120 C 0.27604 0.43901 0.54941 0.0
C1121 C 0.32412 0.39535 0.57563 0.0
C1122 C 0.2667 0.44776 0.52983 0.0
C1123 C 0.29603 0.42282 0.5157 0.0
C1124 C 0.31554 0.40586 0.55491 0.0
C1125 C 0.33601 0.39073 0.5217 0.0
C1126 C 0.37342 0.3911 0.58337 0.0
C1127 C 0.28812 0.39019 0.60729 0.0
N1128 N 0.34491 0.3832 0.541 0.0
N1129 N 0.28313 0.39389 0.58774 0.0
H1130 H 0.87501 0.99036 0.36538 0.0
H1131 H 0.90307 0.10905 0.26069 0.0
H1132 H 0.89058 0.15389 0.36013 0.0
H1133 H 0.79238 0.99309 0.27474 0.0
H1134 H 0.91835 0.12179 0.29577 0.0
H1135 H 0.86875 0.98415 0.33001 0.0
C1136 C 0.87827 0.02483 0.35673 0.0
C1137 C 0.88283 0.07276 0.36555 0.0
C1138 C 0.89046 0.09402 0.29102 0.0
C1139 C 0.87558 0.06584 0.32537 0.0
C1140 C 0.8816 0.0869 0.27116 0.0
C1141 C 0.84639 0.0501 0.26499 0.0
C1142 C 0.86495 0.06297 0.30446 0.0
C1143 C 0.81966 0.02201 0.27897 0.0
C1144 C 0.87424 0.02127 0.33664 0.0
C1145 C 0.88682 0.11629 0.35375 0.0
N1146 N 0.83006 0.02849 0.29809 0.0
N1147 N 0.88286 0.1119 0.33409 0.0
H1148 H 0.11348 0.58757 0.10937 0.0
H1149 H 0.25897 0.69928 0.0172 0.0
H1150 H 0.25124 0.67631 0.11427 0.0
H1151 H 0.18927 0.55022 0.0167 0.0
H1152 H 0.23568 0.70851 0.05153 0.0
H1153 H 0.12075 0.59154 0.07379 0.0
C1154 C 0.14459 0.60883 0.10292 0.0
C1155 C 0.18205 0.6315 0.1146 0.0
C1156 C 0.22498 0.67412 0.04379 0.0
C1157 C 0.19013 0.63643 0.0743 0.0
C1158 C 0.23806 0.66884 0.02427 0.0
C1159 C 0.2263 0.62371 0.01429 0.0
C1160 C 0.19917 0.6344 0.0532 0.0
C1161 C 0.19926 0.58539 0.02403 0.0
C1162 C 0.14882 0.61075 0.08272 0.0
C1163 C 0.22181 0.65822 0.10566 0.0
N1164 N 0.18656 0.59156 0.04306 0.0
N1165 N 0.22489 0.65995 0.08595 0.0
H1166 H 0.62372 0.88003 0.85981 0.0
H1167 H 0.73716 0.03116 0.77146 0.0
H1168 H 0.6696 0.0377 0.86442 0.0
H1169 H 0.60569 0.93585 0.76158 0.0
H1170 H 0.72649 0.01951 0.80647 0.0
H1171 H 0.62677 0.88761 0.8241 0.0
C1172 C 0.63362 0.91634 0.85328 0.0
C1173 C 0.64645 0.95836 0.86492 0.0
C1174 C 0.70022 1.0009 0.7966 0.0
C1175 C 0.65157 0.96654 0.82464 0.0
C1176 C 0.70655 1.00706 0.77668 0.0
C1177 C 0.67213 0.98444 0.76374 0.0
C1178 C 0.65984 0.97116 0.80358 0.0
C1179 C 0.63289 0.95389 0.77121 0.0
C1180 C 0.63543 0.92053 0.83303 0.0
C1181 C 0.65931 1.00451 0.85591 0.0
N1182 N 0.62779 0.94788 0.79078 0.0
N1183 N 0.66239 1.00715 0.83625 0.0
loop_
_geom_bond_atom_site_label_1
_geom_bond_atom_site_label_2
_geom_bond_distance
_geom_bond_site_symmetry_2
_ccdc_geom_bond_type
Tb0 O3 2.453 . S
Tb0 O4 2.596 . S
Tb0 O5 2.374 . S
Tb0 O13 2.343 . S
Tb0 O15 2.353 . S
Tb0 O17 2.427 . S
Tb0 O18 2.513 . S
C1 O5 1.251 . S
C1 O7 1.263 . S
Tb2 O4 2.343 . S
Tb2 O7 2.353 . S
Tb2 O10 2.427 . S
Tb2 O11 2.513 . S
Tb2 O12 2.453 . S
Tb2 O13 2.596 . S
Tb2 O14 2.374 . S
O3 Tb0 2.453 . S
O3 C19 1.245 . S
O4 Tb0 2.596 . S
O4 Tb2 2.343 . S
O4 C19 1.259 . S
O5 Tb0 2.374 . S
O5 C1 1.251 . S
C6 O10 1.275 . S
C6 O11 1.246 . S
O7 C1 1.263 . S
O7 Tb2 2.353 . S
C8 O12 1.245 . S
C8 O13 1.259 . S
C9 O14 1.250 . S
C9 O15 1.263 . S
O10 Tb2 2.427 . S
O10 C6 1.275 . S
O11 Tb2 2.513 . S
O11 C6 1.246 . S
O12 Tb2 2.453 . S
O12 C8 1.245 . S
O13 Tb0 2.343 . S
O13 Tb2 2.596 . S
O13 C8 1.259 . S
O14 Tb2 2.374 . S
O14 C9 1.250 . S
O15 Tb0 2.353 . S
O15 C9 1.263 . S
C16 O17 1.275 . S
C16 O18 1.246 . S
O17 Tb0 2.427 . S
O17 C16 1.275 . S
O18 Tb0 2.513 . S
O18 C16 1.246 . S
C19 O3 1.245 . S
C19 O4 1.259 . S
Tb20 O23 2.453 . S
Tb20 O24 2.596 . S
Tb20 O25 2.374 . S
Tb20 O33 2.343 . S
Tb20 O35 2.353 . S
Tb20 O37 2.427 . S
Tb20 O38 2.513 . S
C21 O25 1.251 . S
C21 O27 1.263 . S
Tb22 O24 2.343 . S
Tb22 O27 2.353 . S
Tb22 O30 2.427 . S
Tb22 O31 2.513 . S
Tb22 O32 2.453 . S
Tb22 O33 2.596 . S
Tb22 O34 2.374 . S
O23 Tb20 2.453 . S
O23 C39 1.245 . S
O24 Tb20 2.596 . S
O24 Tb22 2.343 . S
O24 C39 1.259 . S
O25 Tb20 2.374 . S
O25 C21 1.251 . S
C26 O30 1.275 . S
C26 O31 1.246 . S
O27 C21 1.263 . S
O27 Tb22 2.353 . S
C28 O32 1.245 . S
C28 O33 1.259 . S
C29 O34 1.250 . S
C29 O35 1.263 . S
O30 Tb22 2.427 . S
O30 C26 1.275 . S
O31 Tb22 2.513 . S
O31 C26 1.246 . S
O32 Tb22 2.453 . S
O32 C28 1.245 . S
O33 Tb20 2.343 . S
O33 Tb22 2.596 . S
O33 C28 1.259 . S
O34 Tb22 2.374 . S
O34 C29 1.250 . S
O35 Tb20 2.353 . S
O35 C29 1.263 . S
C36 O37 1.275 . S
C36 O38 1.246 . S
O37 Tb20 2.427 . S
O37 C36 1.275 . S
O38 Tb20 2.513 . S
O38 C36 1.246 . S
C39 O23 1.245 . S
C39 O24 1.259 . S
Tb40 O43 2.453 . S
Tb40 O44 2.596 . S
Tb40 O45 2.374 . S
Tb40 O53 2.343 . S
Tb40 O55 2.353 . S
Tb40 O57 2.427 . S
Tb40 O58 2.513 . S
C41 O45 1.251 . S
C41 O47 1.263 . S
Tb42 O44 2.343 . S
Tb42 O47 2.353 . S
Tb42 O50 2.427 . S
Tb42 O51 2.513 . S
Tb42 O52 2.453 . S
Tb42 O53 2.596 . S
Tb42 O54 2.374 . S
O43 Tb40 2.453 . S
O43 C59 1.245 . S
O44 Tb40 2.596 . S
O44 Tb42 2.343 . S
O44 C59 1.259 . S
O45 Tb40 2.374 . S
O45 C41 1.251 . S
C46 O50 1.275 . S
C46 O51 1.246 . S
O47 C41 1.263 . S
O47 Tb42 2.353 . S
C48 O52 1.245 . S
C48 O53 1.259 . S
C49 O54 1.250 . S
C49 O55 1.263 . S
O50 Tb42 2.427 . S
O50 C46 1.275 . S
O51 Tb42 2.513 . S
O51 C46 1.246 . S
O52 Tb42 2.453 . S
O52 C48 1.245 . S
O53 Tb40 2.343 . S
O53 Tb42 2.596 . S
O53 C48 1.259 . S
O54 Tb42 2.374 . S
O54 C49 1.250 . S
O55 Tb40 2.353 . S
O55 C49 1.263 . S
C56 O57 1.275 . S
C56 O58 1.246 . S
O57 Tb40 2.427 . S
O57 C56 1.275 . S
O58 Tb40 2.513 . S
O58 C56 1.246 . S
C59 O43 1.245 . S
C59 O44 1.259 . S
Tb60 O63 2.453 . S
Tb60 O64 2.596 . S
Tb60 O65 2.374 . S
Tb60 O73 2.343 . S
Tb60 O75 2.353 . S
Tb60 O77 2.427 . S
Tb60 O78 2.513 . S
C61 O65 1.251 . S
C61 O67 1.263 . S
Tb62 O64 2.343 . S
Tb62 O67 2.353 . S
Tb62 O70 2.427 . S
Tb62 O71 2.513 . S
Tb62 O72 2.453 . S
Tb62 O73 2.596 . S
Tb62 O74 2.374 . S
O63 Tb60 2.453 . S
O63 C79 1.245 . S
O64 Tb60 2.596 . S
O64 Tb62 2.343 . S
O64 C79 1.259 . S
O65 Tb60 2.374 . S
O65 C61 1.251 . S
C66 O70 1.275 . S
C66 O71 1.246 . S
O67 C61 1.263 . S
O67 Tb62 2.353 . S
C68 O72 1.245 . S
C68 O73 1.259 . S
C69 O74 1.250 . S
C69 O75 1.263 . S
O70 Tb62 2.427 . S
O70 C66 1.275 . S
O71 Tb62 2.513 . S
O71 C66 1.246 . S
O72 Tb62 2.453 . S
O72 C68 1.245 . S
O73 Tb60 2.343 . S
O73 Tb62 2.596 . S
O73 C68 1.259 . S
O74 Tb62 2.374 . S
O74 C69 1.250 . S
O75 Tb60 2.353 . S
O75 C69 1.263 . S
C76 O77 1.275 . S
C76 O78 1.246 . S
O77 Tb60 2.427 . S
O77 C76 1.275 . S
O78 Tb60 2.513 . S
O78 C76 1.246 . S
C79 O63 1.245 . S
C79 O64 1.259 . S
Tb80 O83 2.453 . S
Tb80 O84 2.596 . S
Tb80 O85 2.374 . S
Tb80 O93 2.343 . S
Tb80 O95 2.353 . S
Tb80 O97 2.427 . S
Tb80 O98 2.513 . S
C81 O85 1.251 . S
C81 O87 1.263 . S
Tb82 O84 2.343 . S
Tb82 O87 2.353 . S
Tb82 O90 2.427 . S
Tb82 O91 2.513 . S
Tb82 O92 2.453 . S
Tb82 O93 2.596 . S
Tb82 O94 2.374 . S
O83 Tb80 2.453 . S
O83 C99 1.245 . S
O84 Tb80 2.596 . S
O84 Tb82 2.343 . S
O84 C99 1.259 . S
O85 Tb80 2.374 . S
O85 C81 1.251 . S
C86 O90 1.275 . S
C86 O91 1.246 . S
O87 C81 1.263 . S
O87 Tb82 2.353 . S
C88 O92 1.245 . S
C88 O93 1.259 . S
C89 O94 1.250 . S
C89 O95 1.263 . S
O90 Tb82 2.427 . S
O90 C86 1.275 . S
O91 Tb82 2.513 . S
O91 C86 1.246 . S
O92 Tb82 2.453 . S
O92 C88 1.245 . S
O93 Tb80 2.343 . S
O93 Tb82 2.596 . S
O93 C88 1.259 . S
O94 Tb82 2.374 . S
O94 C89 1.250 . S
O95 Tb80 2.353 . S
O95 C89 1.263 . S
C96 O97 1.275 . S
C96 O98 1.246 . S
O97 Tb80 2.427 . S
O97 C96 1.275 . S
O98 Tb80 2.513 . S
O98 C96 1.246 . S
C99 O83 1.245 . S
C99 O84 1.259 . S
Tb100 O103 2.453 . S
Tb100 O104 2.596 . S
Tb100 O105 2.374 . S
Tb100 O113 2.343 . S
Tb100 O115 2.353 . S
Tb100 O117 2.427 . S
Tb100 O118 2.513 . S
C101 O105 1.251 . S
C101 O107 1.263 . S
Tb102 O104 2.343 . S
Tb102 O107 2.353 . S
Tb102 O110 2.427 . S
Tb102 O111 2.513 . S
Tb102 O112 2.453 . S
Tb102 O113 2.596 . S
Tb102 O114 2.374 . S
O103 Tb100 2.453 . S
O103 C119 1.245 . S
O104 Tb100 2.596 . S
O104 Tb102 2.343 . S
O104 C119 1.259 . S
O105 Tb100 2.374 . S
O105 C101 1.251 . S
C106 O110 1.275 . S
C106 O111 1.246 . S
O107 C101 1.263 . S
O107 Tb102 2.353 . S
C108 O112 1.245 . S
C108 O113 1.259 . S
C109 O114 1.250 . S
C109 O115 1.263 . S
O110 Tb102 2.427 . S
O110 C106 1.275 . S
O111 Tb102 2.513 . S
O111 C106 1.246 . S
O112 Tb102 2.453 . S
O112 C108 1.245 . S
O113 Tb100 2.343 . S
O113 Tb102 2.596 . S
O113 C108 1.259 . S
O114 Tb102 2.374 . S
O114 C109 1.250 . S
O115 Tb100 2.353 . S
O115 C109 1.263 . S
C116 O117 1.275 . S
C116 O118 1.246 . S
O117 Tb100 2.427 . S
O117 C116 1.275 . S
O118 Tb100 2.513 . S
O118 C116 1.246 . S
C119 O103 1.245 . S
C119 O104 1.259 . S
Tb120 O123 2.453 . S
Tb120 O124 2.596 . S
Tb120 O125 2.374 . S
Tb120 O133 2.343 . S
Tb120 O135 2.353 . S
Tb120 O137 2.427 . S
Tb120 O138 2.513 . S
C121 O125 1.251 . S
C121 O127 1.263 . S
Tb122 O124 2.343 . S
Tb122 O127 2.353 . S
Tb122 O130 2.427 . S
Tb122 O131 2.513 . S
Tb122 O132 2.453 . S
Tb122 O133 2.596 . S
Tb122 O134 2.374 . S
O123 Tb120 2.453 . S
O123 C139 1.245 . S
O124 Tb120 2.596 . S
O124 Tb122 2.343 . S
O124 C139 1.259 . S
O125 Tb120 2.374 . S
O125 C121 1.251 . S
C126 O130 1.275 . S
C126 O131 1.246 . S
O127 C121 1.263 . S
O127 Tb122 2.353 . S
C128 O132 1.245 . S
C128 O133 1.259 . S
C129 O134 1.250 . S
C129 O135 1.263 . S
O130 Tb122 2.427 . S
O130 C126 1.275 . S
O131 Tb122 2.513 . S
O131 C126 1.246 . S
O132 Tb122 2.453 . S
O132 C128 1.245 . S
O133 Tb120 2.343 . S
O133 Tb122 2.596 . S
O133 C128 1.259 . S
O134 Tb122 2.374 . S
O134 C129 1.250 . S
O135 Tb120 2.353 . S
O135 C129 1.263 . S
C136 O137 1.275 . S
C136 O138 1.246 . S
O137 Tb120 2.427 . S
O137 C136 1.275 . S
O138 Tb120 2.513 . S
O138 C136 1.246 . S
C139 O123 1.245 . S
C139 O124 1.259 . S
Tb140 O143 2.453 . S
Tb140 O144 2.596 . S
Tb140 O145 2.374 . S
Tb140 O153 2.343 . S
Tb140 O155 2.353 . S
Tb140 O157 2.427 . S
Tb140 O158 2.513 . S
C141 O145 1.251 . S
C141 O147 1.263 . S
Tb142 O144 2.343 . S
Tb142 O147 2.353 . S
Tb142 O150 2.427 . S
Tb142 O151 2.513 . S
Tb142 O152 2.453 . S
Tb142 O153 2.596 . S
Tb142 O154 2.374 . S
O143 Tb140 2.453 . S
O143 C159 1.245 . S
O144 Tb140 2.596 . S
O144 Tb142 2.343 . S
O144 C159 1.259 . S
O145 Tb140 2.374 . S
O145 C141 1.251 . S
C146 O150 1.275 . S
C146 O151 1.246 . S
O147 C141 1.263 . S
O147 Tb142 2.353 . S
C148 O152 1.245 . S
C148 O153 1.259 . S
C149 O154 1.250 . S
C149 O155 1.263 . S
O150 Tb142 2.427 . S
O150 C146 1.275 . S
O151 Tb142 2.513 . S
O151 C146 1.246 . S
O152 Tb142 2.453 . S
O152 C148 1.245 . S
O153 Tb140 2.343 . S
O153 Tb142 2.596 . S
O153 C148 1.259 . S
O154 Tb142 2.374 . S
O154 C149 1.250 . S
O155 Tb140 2.353 . S
O155 C149 1.263 . S
C156 O157 1.275 . S
C156 O158 1.246 . S
O157 Tb140 2.427 . S
O157 C156 1.275 . S
O158 Tb140 2.513 . S
O158 C156 1.246 . S
C159 O143 1.245 . S
C159 O144 1.259 . S
Tb160 O163 2.453 . S
Tb160 O164 2.596 . S
Tb160 O165 2.374 . S
Tb160 O173 2.343 . S
Tb160 O175 2.353 . S
Tb160 O177 2.427 . S
Tb160 O178 2.513 . S
C161 O165 1.251 . S
C161 O167 1.263 . S
Tb162 O164 2.343 . S
Tb162 O167 2.353 . S
Tb162 O170 2.427 . S
Tb162 O171 2.513 . S
Tb162 O172 2.453 . S
Tb162 O173 2.596 . S
Tb162 O174 2.374 . S
O163 Tb160 2.453 . S
O163 C179 1.245 . S
O164 Tb160 2.596 . S
O164 Tb162 2.343 . S
O164 C179 1.259 . S
O165 Tb160 2.374 . S
O165 C161 1.251 . S
C166 O170 1.275 . S
C166 O171 1.246 . S
O167 C161 1.263 . S
O167 Tb162 2.353 . S
C168 O172 1.245 . S
C168 O173 1.259 . S
C169 O174 1.250 . S
C169 O175 1.263 . S
O170 Tb162 2.427 . S
O170 C166 1.275 . S
O171 Tb162 2.513 . S
O171 C166 1.246 . S
O172 Tb162 2.453 . S
O172 C168 1.245 . S
O173 Tb160 2.343 . S
O173 Tb162 2.596 . S
O173 C168 1.259 . S
O174 Tb162 2.374 . S
O174 C169 1.250 . S
O175 Tb160 2.353 . S
O175 C169 1.263 . S
C176 O177 1.275 . S
C176 O178 1.246 . S
O177 Tb160 2.427 . S
O177 C176 1.275 . S
O178 Tb160 2.513 . S
O178 C176 1.246 . S
C179 O163 1.245 . S
C179 O164 1.259 . S
Tb180 O183 2.453 . S
Tb180 O184 2.596 . S
Tb180 O185 2.374 . S
Tb180 O193 2.343 . S
Tb180 O195 2.356 . S
Tb180 O197 2.427 . S
Tb180 O198 2.513 . S
C181 O185 1.251 . S
C181 O187 1.263 . S
Tb182 O184 2.343 . S
Tb182 O187 2.353 . S
Tb182 O190 2.427 . S
Tb182 O191 2.513 1_545 S
Tb182 O192 2.453 1_545 S
Tb182 O193 2.596 . S
Tb182 O194 2.374 1_545 S
O183 Tb180 2.453 . S
O183 C199 1.245 . S
O184 Tb180 2.596 . S
O184 Tb182 2.343 . S
O184 C199 1.259 . S
O185 Tb180 2.374 . S
O185 C181 1.251 . S
C186 O190 1.275 . S
C186 O191 1.246 1_545 S
O187 C181 1.263 . S
O187 Tb182 2.353 . S
C188 O192 1.245 1_545 S
C188 O193 1.259 . S
C189 O194 1.250 . S
C189 O195 1.260 1_565 S
O190 Tb182 2.427 . S
O190 C186 1.275 . S
O191 Tb182 2.513 1_565 S
O191 C186 1.246 1_565 S
O192 Tb182 2.453 1_565 S
O192 C188 1.245 1_565 S
O193 Tb180 2.343 . S
O193 Tb182 2.596 . S
O193 C188 1.259 . S
O194 Tb182 2.374 1_565 S
O194 C189 1.250 . S
O195 Tb180 2.356 . S
O195 C189 1.260 1_545 S
C196 O197 1.275 . S
C196 O198 1.246 . S
O197 Tb180 2.427 . S
O197 C196 1.275 . S
O198 Tb180 2.513 . S
O198 C196 1.246 . S
C199 O183 1.245 . S
C199 O184 1.259 . S
Tb200 O203 2.453 . S
Tb200 O204 2.596 . S
Tb200 O205 2.374 . S
Tb200 O213 2.343 . S
Tb200 O215 2.353 . S
Tb200 O217 2.427 . S
Tb200 O218 2.513 . S
C201 O205 1.251 . S
C201 O207 1.263 . S
Tb202 O204 2.343 . S
Tb202 O207 2.353 . S
Tb202 O210 2.427 . S
Tb202 O211 2.513 . S
Tb202 O212 2.453 . S
Tb202 O213 2.596 . S
Tb202 O214 2.374 . S
O203 Tb200 2.453 . S
O203 C219 1.245 . S
O204 Tb200 2.596 . S
O204 Tb202 2.343 . S
O204 C219 1.259 . S
O205 Tb200 2.374 . S
O205 C201 1.251 . S
C206 O210 1.275 . S
C206 O211 1.246 . S
O207 C201 1.263 . S
O207 Tb202 2.353 . S
C208 O212 1.245 . S
C208 O213 1.259 . S
C209 O214 1.250 . S
C209 O215 1.263 . S
O210 Tb202 2.427 . S
O210 C206 1.275 . S
O211 Tb202 2.513 . S
O211 C206 1.246 . S
O212 Tb202 2.453 . S
O212 C208 1.245 . S
O213 Tb200 2.343 . S
O213 Tb202 2.596 . S
O213 C208 1.259 . S
O214 Tb202 2.374 . S
O214 C209 1.250 . S
O215 Tb200 2.353 . S
O215 C209 1.263 . S
C216 O217 1.275 . S
C216 O218 1.246 . S
O217 Tb200 2.427 . S
O217 C216 1.275 . S
O218 Tb200 2.513 . S
O218 C216 1.246 . S
C219 O203 1.245 . S
C219 O204 1.259 . S
Tb220 O223 2.453 . S
Tb220 O224 2.596 . S
Tb220 O225 2.374 . S
Tb220 O233 2.343 . S
Tb220 O235 2.356 . S
Tb220 O237 2.427 . S
Tb220 O238 2.513 . S
C221 O225 1.251 . S
C221 O227 1.263 . S
Tb222 O224 2.343 . S
Tb222 O227 2.353 . S
Tb222 O230 2.427 . S
Tb222 O231 2.513 1_565 S
Tb222 O232 2.453 1_565 S
Tb222 O233 2.596 . S
Tb222 O234 2.374 1_565 S
O223 Tb220 2.453 . S
O223 C239 1.245 . S
O224 Tb220 2.596 . S
O224 Tb222 2.343 . S
O224 C239 1.259 . S
O225 Tb220 2.374 . S
O225 C221 1.251 . S
C226 O230 1.275 . S
C226 O231 1.246 1_565 S
O227 C221 1.263 . S
O227 Tb222 2.353 . S
C228 O232 1.245 1_565 S
C228 O233 1.259 . S
C229 O234 1.250 . S
C229 O235 1.260 1_545 S
O230 Tb222 2.427 . S
O230 C226 1.275 . S
O231 Tb222 2.513 1_545 S
O231 C226 1.246 1_545 S
O232 Tb222 2.453 1_545 S
O232 C228 1.245 1_545 S
O233 Tb220 2.343 . S
O233 Tb222 2.596 . S
O233 C228 1.259 . S
O234 Tb222 2.374 1_545 S
O234 C229 1.250 . S
O235 Tb220 2.356 . S
O235 C229 1.260 1_565 S
C236 O237 1.275 . S
C236 O238 1.246 . S
O237 Tb220 2.427 . S
O237 C236 1.275 . S
O238 Tb220 2.513 . S
O238 C236 1.246 . S
C239 O223 1.245 . S
C239 O224 1.259 . S
Tb240 O243 2.453 . S
Tb240 O244 2.596 . S
Tb240 O245 2.374 . S
Tb240 O253 2.343 . S
Tb240 O255 2.353 . S
Tb240 O257 2.427 . S
Tb240 O258 2.513 . S
C241 O245 1.251 . S
C241 O247 1.263 . S
Tb242 O244 2.343 . S
Tb242 O247 2.353 . S
Tb242 O250 2.427 . S
Tb242 O251 2.513 . S
Tb242 O252 2.453 . S
Tb242 O253 2.596 . S
Tb242 O254 2.374 . S
O243 Tb240 2.453 . S
O243 C259 1.245 . S
O244 Tb240 2.596 . S
O244 Tb242 2.343 . S
O244 C259 1.259 . S
O245 Tb240 2.374 . S
O245 C241 1.251 . S
C246 O250 1.275 . S
C246 O251 1.246 . S
O247 C241 1.263 . S
O247 Tb242 2.353 . S
C248 O252 1.245 . S
C248 O253 1.259 . S
C249 O254 1.250 . S
C249 O255 1.263 . S
O250 Tb242 2.427 . S
O250 C246 1.275 . S
O251 Tb242 2.513 . S
O251 C246 1.246 . S
O252 Tb242 2.453 . S
O252 C248 1.245 . S
O253 Tb240 2.343 . S
O253 Tb242 2.596 . S
O253 C248 1.259 . S
O254 Tb242 2.374 . S
O254 C249 1.250 . S
O255 Tb240 2.353 . S
O255 C249 1.263 . S
C256 O257 1.275 . S
C256 O258 1.246 . S
O257 Tb240 2.427 . S
O257 C256 1.275 . S
O258 Tb240 2.513 . S
O258 C256 1.246 . S
C259 O243 1.245 . S
C259 O244 1.259 . S
Tb260 O263 2.453 1_565 S
Tb260 O264 2.596 . S
Tb260 O265 2.374 1_565 S
Tb260 O273 2.343 . S
Tb260 O275 2.353 . S
Tb260 O277 2.427 . S
Tb260 O278 2.513 1_565 S
C261 O265 1.251 . S
C261 O267 1.260 1_545 S
Tb262 O264 2.343 . S
Tb262 O267 2.356 . S
Tb262 O270 2.427 . S
Tb262 O271 2.513 . S
Tb262 O272 2.453 . S
Tb262 O273 2.596 . S
Tb262 O274 2.374 . S
O263 Tb260 2.453 1_545 S
O263 C279 1.245 1_545 S
O264 Tb260 2.596 . S
O264 Tb262 2.343 . S
O264 C279 1.259 . S
O265 Tb260 2.374 1_545 S
O265 C261 1.251 . S
C266 O270 1.275 . S
C266 O271 1.246 . S
O267 C261 1.260 1_565 S
O267 Tb262 2.356 . S
C268 O272 1.245 . S
C268 O273 1.259 . S
C269 O274 1.250 . S
C269 O275 1.263 . S
O270 Tb262 2.427 . S
O270 C266 1.275 . S
O271 Tb262 2.513 . S
O271 C266 1.246 . S
O272 Tb262 2.453 . S
O272 C268 1.245 . S
O273 Tb260 2.343 . S
O273 Tb262 2.596 . S
O273 C268 1.259 . S
O274 Tb262 2.374 . S
O274 C269 1.250 . S
O275 Tb260 2.353 . S
O275 C269 1.263 . S
C276 O277 1.275 . S
C276 O278 1.246 1_565 S
O277 Tb260 2.427 . S
O277 C276 1.275 . S
O278 Tb260 2.513 1_545 S
O278 C276 1.246 1_545 S
C279 O263 1.245 1_565 S
C279 O264 1.259 . S
Tb280 O283 2.453 . S
Tb280 O284 2.596 . S
Tb280 O285 2.374 . S
Tb280 O293 2.343 . S
Tb280 O295 2.353 . S
Tb280 O297 2.427 . S
Tb280 O298 2.513 . S
C281 O285 1.251 . S
C281 O287 1.263 . S
Tb282 O284 2.343 . S
Tb282 O287 2.353 . S
Tb282 O290 2.427 . S
Tb282 O291 2.513 . S
Tb282 O292 2.453 . S
Tb282 O293 2.596 . S
Tb282 O294 2.374 . S
O283 Tb280 2.453 . S
O283 C299 1.245 . S
O284 Tb280 2.596 . S
O284 Tb282 2.343 . S
O284 C299 1.259 . S
O285 Tb280 2.374 . S
O285 C281 1.251 . S
C286 O290 1.275 . S
C286 O291 1.246 . S
O287 C281 1.263 . S
O287 Tb282 2.353 . S
C288 O292 1.245 . S
C288 O293 1.259 . S
C289 O294 1.250 . S
C289 O295 1.263 . S
O290 Tb282 2.427 . S
O290 C286 1.275 . S
O291 Tb282 2.513 . S
O291 C286 1.246 . S
O292 Tb282 2.453 . S
O292 C288 1.245 . S
O293 Tb280 2.343 . S
O293 Tb282 2.596 . S
O293 C288 1.259 . S
O294 Tb282 2.374 . S
O294 C289 1.250 . S
O295 Tb280 2.353 . S
O295 C289 1.263 . S
C296 O297 1.275 . S
C296 O298 1.246 . S
O297 Tb280 2.427 . S
O297 C296 1.275 . S
O298 Tb280 2.513 . S
O298 C296 1.246 . S
C299 O283 1.245 . S
C299 O284 1.259 . S
Tb300 O303 2.453 1_545 S
Tb300 O304 2.596 . S
Tb300 O305 2.374 1_545 S
Tb300 O313 2.343 . S
Tb300 O315 2.353 . S
Tb300 O317 2.427 . S
Tb300 O318 2.513 1_545 S
C301 O305 1.251 . S
C301 O307 1.260 1_565 S
Tb302 O304 2.343 . S
Tb302 O307 2.356 . S
Tb302 O310 2.427 . S
Tb302 O311 2.513 . S
Tb302 O312 2.453 . S
Tb302 O313 2.596 . S
Tb302 O314 2.374 . S
O303 Tb300 2.453 1_565 S
O303 C319 1.245 1_565 S
O304 Tb300 2.596 . S
O304 Tb302 2.343 . S
O304 C319 1.259 . S
O305 Tb300 2.374 1_565 S
O305 C301 1.251 . S
C306 O310 1.275 . S
C306 O311 1.246 . S
O307 C301 1.260 1_545 S
O307 Tb302 2.356 . S
C308 O312 1.245 . S
C308 O313 1.259 . S
C309 O314 1.250 . S
C309 O315 1.263 . S
O310 Tb302 2.427 . S
O310 C306 1.275 . S
O311 Tb302 2.513 . S
O311 C306 1.246 . S
O312 Tb302 2.453 . S
O312 C308 1.245 . S
O313 Tb300 2.343 . S
O313 Tb302 2.596 . S
O313 C308 1.259 . S
O314 Tb302 2.374 . S
O314 C309 1.250 . S
O315 Tb300 2.353 . S
O315 C309 1.263 . S
C316 O317 1.275 . S
C316 O318 1.246 1_545 S
O317 Tb300 2.427 . S
O317 C316 1.275 . S
O318 Tb300 2.513 1_565 S
O318 C316 1.246 1_565 S
C319 O303 1.245 1_545 S
C319 O304 1.259 . S
H320 C326 0.930 . S
H321 C330 0.930 . S
H322 C335 0.929 . S
H323 C333 0.929 . S
H324 C328 0.929 . S
H325 C334 0.929 . S
C326 H320 0.930 . S
C326 C327 1.367 . S
C326 C334 1.378 . S
C327 C326 1.367 . S
C327 C335 1.433 . S
C328 H324 0.929 . S
C328 C330 1.378 . S
C328 C332 1.350 . S
C329 C332 1.463 . S
C329 C334 1.350 . S
C329 N337 1.427 . S
C330 H321 0.930 . S
C330 C328 1.378 . S
C330 C331 1.367 . S
C331 C330 1.367 . S
C331 C333 1.433 . S
C332 C328 1.350 . S
C332 C329 1.463 . S
C332 N336 1.427 . S
C333 H323 0.929 . S
C333 C331 1.433 . S
C333 N336 1.384 . S
C334 H325 0.929 . S
C334 C326 1.378 . S
C334 C329 1.350 . S
C335 H322 0.929 . S
C335 C327 1.433 . S
C335 N337 1.384 . S
N336 C332 1.427 . S
N336 C333 1.384 . S
N337 C329 1.427 . S
N337 C335 1.384 . S
H338 C344 0.930 . S
H339 C348 0.930 . S
H340 C353 0.929 . S
H341 C351 0.929 . S
H342 C346 0.929 . S
H343 C352 0.929 . S
C344 H338 0.930 . S
C344 C345 1.367 . S
C344 C352 1.378 . S
C345 C344 1.367 . S
C345 C353 1.433 . S
C346 H342 0.929 . S
C346 C348 1.378 . S
C346 C350 1.350 . S
C347 C350 1.463 . S
C347 C352 1.350 . S
C347 N355 1.427 . S
C348 H339 0.930 . S
C348 C346 1.378 . S
C348 C349 1.367 . S
C349 C348 1.367 . S
C349 C351 1.433 . S
C350 C346 1.350 . S
C350 C347 1.463 . S
C350 N354 1.427 . S
C351 H341 0.929 . S
C351 C349 1.433 . S
C351 N354 1.384 . S
C352 H343 0.929 . S
C352 C344 1.378 . S
C352 C347 1.350 . S
C353 H340 0.929 . S
C353 C345 1.433 . S
C353 N355 1.384 . S
N354 C350 1.427 . S
N354 C351 1.384 . S
N355 C347 1.427 . S
N355 C353 1.384 . S
H356 C362 0.930 . S
H357 C366 0.930 . S
H358 C371 0.929 . S
H359 C369 0.929 . S
H360 C364 0.929 . S
H361 C370 0.929 . S
C362 H356 0.930 . S
C362 C363 1.367 . S
C362 C370 1.378 . S
C363 C362 1.367 . S
C363 C371 1.433 . S
C364 H360 0.929 . S
C364 C366 1.378 . S
C364 C368 1.350 . S
C365 C368 1.463 1_455 S
C365 C370 1.350 . S
C365 N373 1.427 . S
C366 H357 0.930 . S
C366 C364 1.378 . S
C366 C367 1.367 . S
C367 C366 1.367 . S
C367 C369 1.433 . S
C368 C364 1.350 . S
C368 C365 1.463 1_655 S
C368 N372 1.427 . S
C369 H359 0.929 . S
C369 C367 1.433 . S
C369 N372 1.384 . S
C370 H361 0.929 . S
C370 C362 1.378 . S
C370 C365 1.350 . S
C371 H358 0.929 . S
C371 C363 1.433 . S
C371 N373 1.384 . S
N372 C368 1.427 . S
N372 C369 1.384 . S
N373 C365 1.427 . S
N373 C371 1.384 . S
H374 C380 0.930 . S
H375 C384 0.930 . S
H376 C389 0.929 . S
H377 C387 0.929 . S
H378 C382 0.929 . S
H379 C388 0.929 . S
C380 H374 0.930 . S
C380 C381 1.367 . S
C380 C388 1.378 . S
C381 C380 1.367 . S
C381 C389 1.433 . S
C382 H378 0.929 . S
C382 C384 1.378 . S
C382 C386 1.350 . S
C383 C386 1.463 1_455 S
C383 C388 1.350 . S
C383 N391 1.427 . S
C384 H375 0.930 . S
C384 C382 1.378 . S
C384 C385 1.367 . S
C385 C384 1.367 . S
C385 C387 1.433 . S
C386 C382 1.350 . S
C386 C383 1.463 1_655 S
C386 N390 1.427 . S
C387 H377 0.929 . S
C387 C385 1.433 . S
C387 N390 1.384 . S
C388 H379 0.929 . S
C388 C380 1.378 . S
C388 C383 1.350 . S
C389 H376 0.929 . S
C389 C381 1.433 . S
C389 N391 1.384 . S
N390 C386 1.427 . S
N390 C387 1.384 . S
N391 C383 1.427 . S
N391 C389 1.384 . S
H392 C398 0.930 . S
H393 C402 0.930 . S
H394 C407 0.929 . S
H395 C405 0.929 . S
H396 C400 0.929 . S
H397 C406 0.929 . S
C398 H392 0.930 . S
C398 C399 1.367 . S
C398 C406 1.378 . S
C399 C398 1.367 . S
C399 C407 1.433 . S
C400 H396 0.929 . S
C400 C402 1.378 . S
C400 C404 1.350 . S
C401 C404 1.463 . S
C401 C406 1.350 . S
C401 N409 1.427 . S
C402 H393 0.930 . S
C402 C400 1.378 . S
C402 C403 1.367 . S
C403 C402 1.367 . S
C403 C405 1.433 . S
C404 C400 1.350 . S
C404 C401 1.463 . S
C404 N408 1.427 . S
C405 H395 0.929 . S
C405 C403 1.433 . S
C405 N408 1.384 . S
C406 H397 0.929 . S
C406 C398 1.378 . S
C406 C401 1.350 . S
C407 H394 0.929 . S
C407 C399 1.433 . S
C407 N409 1.384 . S
N408 C404 1.427 . S
N408 C405 1.384 . S
N409 C401 1.427 . S
N409 C407 1.384 . S
H410 C416 0.930 . S
H411 C420 0.930 . S
H412 C425 0.929 . S
H413 C423 0.929 . S
H414 C418 0.929 . S
H415 C424 0.929 . S
C416 H410 0.930 . S
C416 C417 1.367 . S
C416 C424 1.378 . S
C417 C416 1.367 . S
C417 C425 1.433 . S
C418 H414 0.929 . S
C418 C420 1.378 . S
C418 C422 1.350 . S
C419 C422 1.463 . S
C419 C424 1.350 . S
C419 N427 1.427 . S
C420 H411 0.930 . S
C420 C418 1.378 . S
C420 C421 1.367 . S
C421 C420 1.367 . S
C421 C423 1.433 . S
C422 C418 1.350 . S
C422 C419 1.463 . S
C422 N426 1.427 . S
C423 H413 0.929 . S
C423 C421 1.433 . S
C423 N426 1.384 . S
C424 H415 0.929 . S
C424 C416 1.378 . S
C424 C419 1.350 . S
C425 H412 0.929 . S
C425 C417 1.433 . S
C425 N427 1.384 . S
N426 C422 1.427 . S
N426 C423 1.384 . S
N427 C419 1.427 . S
N427 C425 1.384 . S
H428 C434 0.930 . S
H429 C438 0.930 . S
H430 C443 0.929 . S
H431 C441 0.929 . S
H432 C436 0.929 1_455 S
H433 C442 0.929 1_655 S
C434 H428 0.930 . S
C434 C435 1.367 . S
C434 C442 1.378 . S
C435 C434 1.367 . S
C435 C443 1.433 . S
C436 H432 0.929 1_655 S
C436 C438 1.378 . S
C436 C440 1.350 . S
C437 C440 1.463 1_455 S
C437 C442 1.350 . S
C437 N445 1.427 . S
C438 H429 0.930 . S
C438 C436 1.378 . S
C438 C439 1.367 . S
C439 C438 1.367 . S
C439 C441 1.433 . S
C440 C436 1.350 . S
C440 C437 1.463 1_655 S
C440 N444 1.427 . S
C441 H431 0.929 . S
C441 C439 1.433 . S
C441 N444 1.384 . S
C442 H433 0.929 1_455 S
C442 C434 1.378 . S
C442 C437 1.350 . S
C443 H430 0.929 . S
C443 C435 1.433 . S
C443 N445 1.384 . S
N444 C440 1.427 . S
N444 C441 1.384 . S
N445 C437 1.427 . S
N445 C443 1.384 . S
H446 C452 0.930 . S
H447 C456 0.930 . S
H448 C461 0.929 . S
H449 C459 0.929 . S
H450 C454 0.929 . S
H451 C460 0.929 . S
C452 H446 0.930 . S
C452 C453 1.367 . S
C452 C460 1.378 1_455 S
C453 C452 1.367 . S
C453 C461 1.433 . S
C454 H450 0.929 . S
C454 C456 1.378 1_455 S
C454 C458 1.350 1_455 S
C455 C458 1.463 1_455 S
C455 C460 1.350 1_455 S
C455 N463 1.427 . S
C456 H447 0.930 . S
C456 C454 1.378 1_655 S
C456 C457 1.367 . S
C457 C456 1.367 . S
C457 C459 1.433 . S
C458 C454 1.350 1_655 S
C458 C455 1.463 1_655 S
C458 N462 1.427 . S
C459 H449 0.929 . S
C459 C457 1.433 . S
C459 N462 1.384 . S
C460 H451 0.929 . S
C460 C452 1.378 1_655 S
C460 C455 1.350 1_655 S
C461 H448 0.929 . S
C461 C453 1.433 . S
C461 N463 1.384 . S
N462 C458 1.427 . S
N462 C459 1.384 . S
N463 C455 1.427 . S
N463 C461 1.384 . S
H464 C470 0.930 . S
H465 C474 0.930 . S
H466 C479 0.929 . S
H467 C477 0.929 . S
H468 C472 0.929 1_554 S
H469 C478 0.929 1_556 S
C470 H464 0.930 . S
C470 C471 1.367 1_565 S
C470 C478 1.378 . S
C471 C470 1.367 1_545 S
C471 C479 1.433 . S
C472 H468 0.929 1_556 S
C472 C474 1.378 . S
C472 C476 1.350 1_545 S
C473 C476 1.463 1_544 S
C473 C478 1.350 1_545 S
C473 N481 1.427 . S
C474 H465 0.930 . S
C474 C472 1.378 . S
C474 C475 1.367 1_545 S
C475 C474 1.367 1_565 S
C475 C477 1.433 . S
C476 C472 1.350 1_565 S
C476 C473 1.463 1_566 S
C476 N480 1.427 . S
C477 H467 0.929 . S
C477 C475 1.433 . S
C477 N480 1.384 . S
C478 H469 0.929 1_554 S
C478 C470 1.378 . S
C478 C473 1.350 1_565 S
C479 H466 0.929 . S
C479 C471 1.433 . S
C479 N481 1.384 . S
N480 C476 1.427 . S
N480 C477 1.384 . S
N481 C473 1.427 . S
N481 C479 1.384 . S
H482 C488 0.930 . S
H483 C492 0.930 . S
H484 C497 0.929 . S
H485 C495 0.929 . S
H486 C490 0.929 . S
H487 C496 0.929 . S
C488 H482 0.930 . S
C488 C489 1.367 . S
C488 C496 1.378 . S
C489 C488 1.367 . S
C489 C497 1.433 . S
C490 H486 0.929 . S
C490 C492 1.378 . S
C490 C494 1.350 . S
C491 C494 1.463 . S
C491 C496 1.350 . S
C491 N499 1.427 . S
C492 H483 0.930 . S
C492 C490 1.378 . S
C492 C493 1.367 . S
C493 C492 1.367 . S
C493 C495 1.433 . S
C494 C490 1.350 . S
C494 C491 1.463 . S
C494 N498 1.427 . S
C495 H485 0.929 . S
C495 C493 1.433 . S
C495 N498 1.384 . S
C496 H487 0.929 . S
C496 C488 1.378 . S
C496 C491 1.350 . S
C497 H484 0.929 . S
C497 C489 1.433 . S
C497 N499 1.384 . S
N498 C494 1.427 . S
N498 C495 1.384 . S
N499 C491 1.427 . S
N499 C497 1.384 . S
H500 C506 0.930 . S
H501 C510 0.930 . S
H502 C515 0.929 1_545 S
H503 C513 0.929 1_565 S
H504 C508 0.929 1_455 S
H505 C514 0.929 1_655 S
C506 H500 0.930 . S
C506 C507 1.367 . S
C506 C514 1.378 . S
C507 C506 1.367 . S
C507 C515 1.433 . S
C508 H504 0.929 1_655 S
C508 C510 1.378 . S
C508 C512 1.350 . S
C509 C512 1.463 1_465 S
C509 C514 1.350 . S
C509 N517 1.427 1_565 S
C510 H501 0.930 . S
C510 C508 1.378 . S
C510 C511 1.367 . S
C511 C510 1.367 . S
C511 C513 1.433 . S
C512 C508 1.350 . S
C512 C509 1.463 1_645 S
C512 N516 1.427 1_545 S
C513 H503 0.929 1_545 S
C513 C511 1.433 . S
C513 N516 1.384 1_545 S
C514 H505 0.929 1_455 S
C514 C506 1.378 . S
C514 C509 1.350 . S
C515 H502 0.929 1_565 S
C515 C507 1.433 . S
C515 N517 1.384 1_565 S
N516 C512 1.427 1_565 S
N516 C513 1.384 1_565 S
N517 C509 1.427 1_545 S
N517 C515 1.384 1_545 S
H518 C524 0.930 . S
H519 C528 0.930 . S
H520 C533 0.929 . S
H521 C531 0.929 . S
H522 C526 0.929 . S
H523 C532 0.929 . S
C524 H518 0.930 . S
C524 C525 1.367 . S
C524 C532 1.378 . S
C525 C524 1.367 . S
C525 C533 1.433 . S
C526 H522 0.929 . S
C526 C528 1.378 . S
C526 C530 1.350 . S
C527 C530 1.463 . S
C527 C532 1.350 . S
C527 N535 1.427 . S
C528 H519 0.930 . S
C528 C526 1.378 . S
C528 C529 1.367 . S
C529 C528 1.367 . S
C529 C531 1.433 . S
C530 C526 1.350 . S
C530 C527 1.463 . S
C530 N534 1.427 . S
C531 H521 0.929 . S
C531 C529 1.433 . S
C531 N534 1.384 . S
C532 H523 0.929 . S
C532 C524 1.378 . S
C532 C527 1.350 . S
C533 H520 0.929 . S
C533 C525 1.433 . S
C533 N535 1.384 . S
N534 C530 1.427 . S
N534 C531 1.384 . S
N535 C527 1.427 . S
N535 C533 1.384 . S
H536 C542 0.930 . S
H537 C546 0.930 . S
H538 C551 0.929 . S
H539 C549 0.929 . S
H540 C544 0.929 . S
H541 C550 0.929 . S
C542 H536 0.930 . S
C542 C543 1.367 . S
C542 C550 1.378 . S
C543 C542 1.367 . S
C543 C551 1.433 . S
C544 H540 0.929 . S
C544 C546 1.378 . S
C544 C548 1.350 . S
C545 C548 1.463 . S
C545 C550 1.350 . S
C545 N553 1.427 . S
C546 H537 0.930 . S
C546 C544 1.378 . S
C546 C547 1.367 . S
C547 C546 1.367 . S
C547 C549 1.433 . S
C548 C544 1.350 . S
C548 C545 1.463 . S
C548 N552 1.427 . S
C549 H539 0.929 . S
C549 C547 1.433 . S
C549 N552 1.384 . S
C550 H541 0.929 . S
C550 C542 1.378 . S
C550 C545 1.350 . S
C551 H538 0.929 . S
C551 C543 1.433 . S
C551 N553 1.384 . S
N552 C548 1.427 . S
N552 C549 1.384 . S
N553 C545 1.427 . S
N553 C551 1.384 . S
H554 C560 0.930 . S
H555 C564 0.930 . S
H556 C569 0.929 . S
H557 C567 0.929 . S
H558 C562 0.929 . S
H559 C568 0.929 . S
C560 H554 0.930 . S
C560 C561 1.367 . S
C560 C568 1.378 . S
C561 C560 1.367 . S
C561 C569 1.433 . S
C562 H558 0.929 . S
C562 C564 1.378 . S
C562 C566 1.350 . S
C563 C566 1.463 . S
C563 C568 1.350 . S
C563 N571 1.427 . S
C564 H555 0.930 . S
C564 C562 1.378 . S
C564 C565 1.367 . S
C565 C564 1.367 . S
C565 C567 1.433 . S
C566 C562 1.350 . S
C566 C563 1.463 . S
C566 N570 1.427 . S
C567 H557 0.929 . S
C567 C565 1.433 . S
C567 N570 1.384 . S
C568 H559 0.929 . S
C568 C560 1.378 . S
C568 C563 1.350 . S
C569 H556 0.929 . S
C569 C561 1.433 . S
C569 N571 1.384 . S
N570 C566 1.427 . S
N570 C567 1.384 . S
N571 C563 1.427 . S
N571 C569 1.384 . S
H572 C578 0.930 . S
H573 C582 0.930 . S
H574 C587 0.929 . S
H575 C585 0.929 . S
H576 C580 0.929 . S
H577 C586 0.929 . S
C578 H572 0.930 . S
C578 C579 1.367 . S
C578 C586 1.378 . S
C579 C578 1.367 . S
C579 C587 1.433 . S
C580 H576 0.929 . S
C580 C582 1.378 . S
C580 C584 1.350 . S
C581 C584 1.463 1_455 S
C581 C586 1.350 . S
C581 N589 1.427 . S
C582 H573 0.930 . S
C582 C580 1.378 . S
C582 C583 1.367 . S
C583 C582 1.367 . S
C583 C585 1.433 . S
C584 C580 1.350 . S
C584 C581 1.463 1_655 S
C584 N588 1.427 . S
C585 H575 0.929 . S
C585 C583 1.433 . S
C585 N588 1.384 . S
C586 H577 0.929 . S
C586 C578 1.378 . S
C586 C581 1.350 . S
C587 H574 0.929 . S
C587 C579 1.433 . S
C587 N589 1.384 . S
N588 C584 1.427 . S
N588 C585 1.384 . S
N589 C581 1.427 . S
N589 C587 1.384 . S
H590 C596 0.930 . S
H591 C600 0.930 . S
H592 C605 0.929 . S
H593 C603 0.929 . S
H594 C598 0.929 . S
H595 C604 0.929 . S
C596 H590 0.930 . S
C596 C597 1.367 . S
C596 C604 1.378 . S
C597 C596 1.367 . S
C597 C605 1.433 . S
C598 H594 0.929 . S
C598 C600 1.378 . S
C598 C602 1.350 . S
C599 C602 1.463 1_554 S
C599 C604 1.350 . S
C599 N607 1.427 . S
C600 H591 0.930 . S
C600 C598 1.378 . S
C600 C601 1.367 . S
C601 C600 1.367 . S
C601 C603 1.433 . S
C602 C598 1.350 . S
C602 C599 1.463 1_556 S
C602 N606 1.427 . S
C603 H593 0.929 . S
C603 C601 1.433 . S
C603 N606 1.384 . S
C604 H595 0.929 . S
C604 C596 1.378 . S
C604 C599 1.350 . S
C605 H592 0.929 . S
C605 C597 1.433 . S
C605 N607 1.384 . S
N606 C602 1.427 . S
N606 C603 1.384 . S
N607 C599 1.427 . S
N607 C605 1.384 . S
H608 C614 0.930 . S
H609 C618 0.930 . S
H610 C623 0.929 . S
H611 C621 0.929 . S
H612 C616 0.929 . S
H613 C622 0.929 . S
C614 H608 0.930 . S
C614 C615 1.367 . S
C614 C622 1.378 . S
C615 C614 1.367 . S
C615 C623 1.433 . S
C616 H612 0.929 . S
C616 C618 1.378 . S
C616 C620 1.350 . S
C617 C620 1.463 . S
C617 C622 1.350 . S
C617 N625 1.427 . S
C618 H609 0.930 . S
C618 C616 1.378 . S
C618 C619 1.367 . S
C619 C618 1.367 . S
C619 C621 1.433 . S
C620 C616 1.350 . S
C620 C617 1.463 . S
C620 N624 1.427 . S
C621 H611 0.929 . S
C621 C619 1.433 . S
C621 N624 1.384 . S
C622 H613 0.929 . S
C622 C614 1.378 . S
C622 C617 1.350 . S
C623 H610 0.929 . S
C623 C615 1.433 . S
C623 N625 1.384 . S
N624 C620 1.427 . S
N624 C621 1.384 . S
N625 C617 1.427 . S
N625 C623 1.384 . S
H626 C632 0.930 . S
H627 C636 0.930 . S
H628 C641 0.929 . S
H629 C639 0.929 . S
H630 C634 0.929 . S
H631 C640 0.929 . S
C632 H626 0.930 . S
C632 C633 1.367 . S
C632 C640 1.378 . S
C633 C632 1.367 . S
C633 C641 1.433 . S
C634 H630 0.929 . S
C634 C636 1.378 . S
C634 C638 1.350 . S
C635 C638 1.463 . S
C635 C640 1.350 . S
C635 N643 1.427 . S
C636 H627 0.930 . S
C636 C634 1.378 . S
C636 C637 1.367 . S
C637 C636 1.367 . S
C637 C639 1.433 . S
C638 C634 1.350 . S
C638 C635 1.463 . S
C638 N642 1.427 . S
C639 H629 0.929 . S
C639 C637 1.433 . S
C639 N642 1.384 . S
C640 H631 0.929 . S
C640 C632 1.378 . S
C640 C635 1.350 . S
C641 H628 0.929 . S
C641 C633 1.433 . S
C641 N643 1.384 . S
N642 C638 1.427 . S
N642 C639 1.384 . S
N643 C635 1.427 . S
N643 C641 1.384 . S
H644 C650 0.930 . S
H645 C654 0.930 . S
H646 C659 0.929 . S
H647 C657 0.929 . S
H648 C652 0.929 . S
H649 C658 0.929 . S
C650 H644 0.930 . S
C650 C651 1.367 . S
C650 C658 1.378 . S
C651 C650 1.367 . S
C651 C659 1.433 . S
C652 H648 0.929 . S
C652 C654 1.378 . S
C652 C656 1.350 . S
C653 C656 1.463 . S
C653 C658 1.350 . S
C653 N661 1.427 . S
C654 H645 0.930 . S
C654 C652 1.378 . S
C654 C655 1.367 . S
C655 C654 1.367 . S
C655 C657 1.433 . S
C656 C652 1.350 . S
C656 C653 1.463 . S
C656 N660 1.427 . S
C657 H647 0.929 . S
C657 C655 1.433 . S
C657 N660 1.384 . S
C658 H649 0.929 . S
C658 C650 1.378 . S
C658 C653 1.350 . S
C659 H646 0.929 . S
C659 C651 1.433 . S
C659 N661 1.384 . S
N660 C656 1.427 . S
N660 C657 1.384 . S
N661 C653 1.427 . S
N661 C659 1.384 . S
H662 C668 0.930 . S
H663 C672 0.930 . S
H664 C677 0.929 . S
H665 C675 0.929 . S
H666 C670 0.929 . S
H667 C676 0.929 . S
C668 H662 0.930 . S
C668 C669 1.367 . S
C668 C676 1.378 1_655 S
C669 C668 1.367 . S
C669 C677 1.433 . S
C670 H666 0.929 . S
C670 C672 1.378 . S
C670 C674 1.350 . S
C671 C674 1.463 . S
C671 C676 1.350 . S
C671 N679 1.427 . S
C672 H663 0.930 . S
C672 C670 1.378 . S
C672 C673 1.367 . S
C673 C672 1.367 . S
C673 C675 1.433 . S
C674 C670 1.350 . S
C674 C671 1.463 . S
C674 N678 1.427 . S
C675 H665 0.929 . S
C675 C673 1.433 . S
C675 N678 1.384 . S
C676 H667 0.929 . S
C676 C668 1.378 1_455 S
C676 C671 1.350 . S
C677 H664 0.929 . S
C677 C669 1.433 . S
C677 N679 1.384 1_655 S
N678 C674 1.427 . S
N678 C675 1.384 . S
N679 C671 1.427 . S
N679 C677 1.384 1_455 S
H680 C686 0.930 . S
H681 C690 0.930 . S
H682 C695 0.929 . S
H683 C693 0.929 . S
H684 C688 0.929 . S
H685 C694 0.929 . S
C686 H680 0.930 . S
C686 C687 1.367 . S
C686 C694 1.378 . S
C687 C686 1.367 . S
C687 C695 1.433 . S
C688 H684 0.929 . S
C688 C690 1.378 . S
C688 C692 1.350 . S
C689 C692 1.463 . S
C689 C694 1.350 . S
C689 N697 1.427 . S
C690 H681 0.930 . S
C690 C688 1.378 . S
C690 C691 1.367 . S
C691 C690 1.367 . S
C691 C693 1.433 . S
C692 C688 1.350 . S
C692 C689 1.463 . S
C692 N696 1.427 . S
C693 H683 0.929 . S
C693 C691 1.433 . S
C693 N696 1.384 . S
C694 H685 0.929 . S
C694 C686 1.378 . S
C694 C689 1.350 . S
C695 H682 0.929 . S
C695 C687 1.433 . S
C695 N697 1.384 . S
N696 C692 1.427 . S
N696 C693 1.384 . S
N697 C689 1.427 . S
N697 C695 1.384 . S
H698 C704 0.930 . S
H699 C708 0.930 . S
H700 C713 0.929 . S
H701 C711 0.929 . S
H702 C706 0.929 . S
H703 C712 0.929 . S
C704 H698 0.930 . S
C704 C705 1.367 . S
C704 C712 1.378 . S
C705 C704 1.367 . S
C705 C713 1.433 . S
C706 H702 0.929 . S
C706 C708 1.378 . S
C706 C710 1.350 . S
C707 C710 1.463 . S
C707 C712 1.350 . S
C707 N715 1.427 . S
C708 H699 0.930 . S
C708 C706 1.378 . S
C708 C709 1.367 . S
C709 C708 1.367 . S
C709 C711 1.433 . S
C710 C706 1.350 . S
C710 C707 1.463 . S
C710 N714 1.427 . S
C711 H701 0.929 . S
C711 C709 1.433 . S
C711 N714 1.384 . S
C712 H703 0.929 . S
C712 C704 1.378 . S
C712 C707 1.350 . S
C713 H700 0.929 . S
C713 C705 1.433 . S
C713 N715 1.384 . S
N714 C710 1.427 . S
N714 C711 1.384 . S
N715 C707 1.427 . S
N715 C713 1.384 . S
H716 C722 0.930 . S
H717 C726 0.930 . S
H718 C731 0.929 . S
H719 C729 0.929 . S
H720 C724 0.929 . S
H721 C730 0.929 . S
C722 H716 0.930 . S
C722 C723 1.367 . S
C722 C730 1.378 . S
C723 C722 1.367 . S
C723 C731 1.433 . S
C724 H720 0.929 . S
C724 C726 1.378 . S
C724 C728 1.350 . S
C725 C728 1.463 . S
C725 C730 1.350 . S
C725 N733 1.427 . S
C726 H717 0.930 . S
C726 C724 1.378 . S
C726 C727 1.367 . S
C727 C726 1.367 . S
C727 C729 1.433 . S
C728 C724 1.350 . S
C728 C725 1.463 . S
C728 N732 1.427 . S
C729 H719 0.929 . S
C729 C727 1.433 . S
C729 N732 1.384 . S
C730 H721 0.929 . S
C730 C722 1.378 . S
C730 C725 1.350 . S
C731 H718 0.929 . S
C731 C723 1.433 . S
C731 N733 1.384 . S
N732 C728 1.427 . S
N732 C729 1.384 . S
N733 C725 1.427 . S
N733 C731 1.384 . S
H734 C740 0.930 . S
H735 C744 0.930 . S
H736 C749 0.929 . S
H737 C747 0.929 . S
H738 C742 0.929 . S
H739 C748 0.929 . S
C740 H734 0.930 . S
C740 C741 1.367 . S
C740 C748 1.378 . S
C741 C740 1.367 . S
C741 C749 1.433 . S
C742 H738 0.929 . S
C742 C744 1.378 1_655 S
C742 C746 1.350 . S
C743 C746 1.463 . S
C743 C748 1.350 . S
C743 N751 1.427 . S
C744 H735 0.930 . S
C744 C742 1.378 1_455 S
C744 C745 1.367 . S
C745 C744 1.367 . S
C745 C747 1.433 1_455 S
C746 C742 1.350 . S
C746 C743 1.463 . S
C746 N750 1.427 . S
C747 H737 0.929 . S
C747 C745 1.433 1_655 S
C747 N750 1.384 . S
C748 H739 0.929 . S
C748 C740 1.378 . S
C748 C743 1.350 . S
C749 H736 0.929 . S
C749 C741 1.433 . S
C749 N751 1.384 . S
N750 C746 1.427 . S
N750 C747 1.384 . S
N751 C743 1.427 . S
N751 C749 1.384 . S
H752 C758 0.930 . S
H753 C762 0.930 . S
H754 C767 0.929 . S
H755 C765 0.929 . S
H756 C760 0.929 . S
H757 C766 0.929 . S
C758 H752 0.930 . S
C758 C759 1.367 . S
C758 C766 1.378 . S
C759 C758 1.367 . S
C759 C767 1.433 . S
C760 H756 0.929 . S
C760 C762 1.378 . S
C760 C764 1.350 . S
C761 C764 1.463 . S
C761 C766 1.350 . S
C761 N769 1.427 . S
C762 H753 0.930 . S
C762 C760 1.378 . S
C762 C763 1.367 . S
C763 C762 1.367 . S
C763 C765 1.433 . S
C764 C760 1.350 . S
C764 C761 1.463 . S
C764 N768 1.427 . S
C765 H755 0.929 . S
C765 C763 1.433 . S
C765 N768 1.384 . S
C766 H757 0.929 . S
C766 C758 1.378 . S
C766 C761 1.350 . S
C767 H754 0.929 . S
C767 C759 1.433 . S
C767 N769 1.384 . S
N768 C764 1.427 . S
N768 C765 1.384 . S
N769 C761 1.427 . S
N769 C767 1.384 . S
H770 C776 0.930 1_545 S
H771 C780 0.930 . S
H772 C785 0.929 . S
H773 C783 0.929 . S
H774 C778 0.929 . S
H775 C784 0.929 1_545 S
C776 H770 0.930 1_565 S
C776 C777 1.367 . S
C776 C784 1.378 . S
C777 C776 1.367 . S
C777 C785 1.433 . S
C778 H774 0.929 . S
C778 C780 1.378 1_655 S
C778 C782 1.350 . S
C779 C782 1.463 . S
C779 C784 1.350 . S
C779 N787 1.427 . S
C780 H771 0.930 . S
C780 C778 1.378 1_455 S
C780 C781 1.367 . S
C781 C780 1.367 . S
C781 C783 1.433 1_565 S
C782 C778 1.350 . S
C782 C779 1.463 . S
C782 N786 1.427 1_565 S
C783 H773 0.929 . S
C783 C781 1.433 1_545 S
C783 N786 1.384 1_455 S
C784 H775 0.929 1_565 S
C784 C776 1.378 . S
C784 C779 1.350 . S
C785 H772 0.929 . S
C785 C777 1.433 . S
C785 N787 1.384 . S
N786 C782 1.427 1_545 S
N786 C783 1.384 1_655 S
N787 C779 1.427 . S
N787 C785 1.384 . S
H788 C794 0.930 . S
H789 C798 0.930 . S
H790 C803 0.929 . S
H791 C801 0.929 . S
H792 C796 0.929 . S
H793 C802 0.929 . S
C794 H788 0.930 . S
C794 C795 1.367 . S
C794 C802 1.378 . S
C795 C794 1.367 . S
C795 C803 1.433 . S
C796 H792 0.929 . S
C796 C798 1.378 . S
C796 C800 1.350 . S
C797 C800 1.463 . S
C797 C802 1.350 . S
C797 N805 1.427 . S
C798 H789 0.930 . S
C798 C796 1.378 . S
C798 C799 1.367 . S
C799 C798 1.367 . S
C799 C801 1.433 . S
C800 C796 1.350 . S
C800 C797 1.463 . S
C800 N804 1.427 . S
C801 H791 0.929 . S
C801 C799 1.433 . S
C801 N804 1.384 . S
C802 H793 0.929 . S
C802 C794 1.378 . S
C802 C797 1.350 . S
C803 H790 0.929 . S
C803 C795 1.433 . S
C803 N805 1.384 . S
N804 C800 1.427 . S
N804 C801 1.384 . S
N805 C797 1.427 . S
N805 C803 1.384 . S
H806 C812 0.930 . S
H807 C816 0.930 . S
H808 C821 0.929 . S
H809 C819 0.929 . S
H810 C814 0.929 . S
H811 C820 0.929 . S
C812 H806 0.930 . S
C812 C813 1.367 . S
C812 C820 1.378 . S
C813 C812 1.367 . S
C813 C821 1.433 . S
C814 H810 0.929 . S
C814 C816 1.378 . S
C814 C818 1.350 . S
C815 C818 1.463 . S
C815 C820 1.350 . S
C815 N823 1.427 . S
C816 H807 0.930 . S
C816 C814 1.378 . S
C816 C817 1.367 . S
C817 C816 1.367 . S
C817 C819 1.433 1_545 S
C818 C814 1.350 . S
C818 C815 1.463 . S
C818 N822 1.427 . S
C819 H809 0.929 . S
C819 C817 1.433 1_565 S
C819 N822 1.384 1_565 S
C820 H811 0.929 . S
C820 C812 1.378 . S
C820 C815 1.350 . S
C821 H808 0.929 . S
C821 C813 1.433 . S
C821 N823 1.384 . S
N822 C818 1.427 . S
N822 C819 1.384 1_545 S
N823 C815 1.427 . S
N823 C821 1.384 . S
H824 C830 0.930 . S
H825 C834 0.930 . S
H826 C839 0.929 . S
H827 C837 0.929 . S
H828 C832 0.929 . S
H829 C838 0.929 . S
C830 H824 0.930 . S
C830 C831 1.367 . S
C830 C838 1.378 . S
C831 C830 1.367 . S
C831 C839 1.433 . S
C832 H828 0.929 . S
C832 C834 1.378 . S
C832 C836 1.350 . S
C833 C836 1.463 . S
C833 C838 1.350 . S
C833 N841 1.427 . S
C834 H825 0.930 . S
C834 C832 1.378 . S
C834 C835 1.367 . S
C835 C834 1.367 . S
C835 C837 1.433 . S
C836 C832 1.350 . S
C836 C833 1.463 . S
C836 N840 1.427 . S
C837 H827 0.929 . S
C837 C835 1.433 . S
C837 N840 1.384 . S
C838 H829 0.929 . S
C838 C830 1.378 . S
C838 C833 1.350 . S
C839 H826 0.929 . S
C839 C831 1.433 . S
C839 N841 1.384 . S
N840 C836 1.427 . S
N840 C837 1.384 . S
N841 C833 1.427 . S
N841 C839 1.384 . S
H842 C848 0.930 . S
H843 C852 0.935 . S
H844 C857 0.929 . S
H845 C855 0.929 . S
H846 C850 0.929 1_565 S
H847 C856 0.929 . S
C848 H842 0.930 . S
C848 C849 1.367 . S
C848 C856 1.378 1_655 S
C849 C848 1.367 . S
C849 C857 1.433 1_545 S
C850 H846 0.929 1_545 S
C850 C852 1.378 . S
C850 C854 1.350 . S
C851 C854 1.463 . S
C851 C856 1.350 . S
C851 N859 1.427 1_545 S
C852 H843 0.935 . S
C852 C850 1.378 . S
C852 C853 1.367 . S
C853 C852 1.367 . S
C853 C855 1.433 . S
C854 C850 1.350 . S
C854 C851 1.463 . S
C854 N858 1.427 . S
C855 H845 0.929 . S
C855 C853 1.433 . S
C855 N858 1.384 . S
C856 H847 0.929 . S
C856 C848 1.378 1_455 S
C856 C851 1.350 . S
C857 H844 0.929 . S
C857 C849 1.433 1_565 S
C857 N859 1.384 1_655 S
N858 C854 1.427 . S
N858 C855 1.384 . S
N859 C851 1.427 1_565 S
N859 C857 1.384 1_455 S
H860 C866 0.930 . S
H861 C870 0.930 . S
H862 C875 0.929 . S
H863 C873 0.929 . S
H864 C868 0.929 . S
H865 C874 0.929 . S
C866 H860 0.930 . S
C866 C867 1.367 . S
C866 C874 1.378 . S
C867 C866 1.367 . S
C867 C875 1.433 . S
C868 H864 0.929 . S
C868 C870 1.378 . S
C868 C872 1.350 . S
C869 C872 1.463 . S
C869 C874 1.350 . S
C869 N877 1.427 . S
C870 H861 0.930 . S
C870 C868 1.378 . S
C870 C871 1.367 . S
C871 C870 1.367 . S
C871 C873 1.433 . S
C872 C868 1.350 . S
C872 C869 1.463 . S
C872 N876 1.427 . S
C873 H863 0.929 . S
C873 C871 1.433 . S
C873 N876 1.384 . S
C874 H865 0.929 . S
C874 C866 1.378 . S
C874 C869 1.350 . S
C875 H862 0.929 . S
C875 C867 1.433 . S
C875 N877 1.384 . S
N876 C872 1.427 . S
N876 C873 1.384 . S
N877 C869 1.427 . S
N877 C875 1.384 . S
H878 C884 0.930 . S
H879 C888 0.930 1_545 S
H880 C893 0.929 . S
H881 C891 0.929 . S
H882 C886 0.943 . S
H883 C892 0.929 . S
C884 H878 0.930 . S
C884 C885 1.367 . S
C884 C892 1.378 . S
C885 C884 1.367 . S
C885 C893 1.433 1_565 S
C886 H882 0.943 . S
C886 C888 1.375 1_545 S
C886 C890 1.338 1_545 S
C887 C890 1.463 . S
C887 C892 1.350 . S
C887 N895 1.427 1_565 S
C888 H879 0.930 1_565 S
C888 C886 1.375 1_565 S
C888 C889 1.367 . S
C889 C888 1.367 . S
C889 C891 1.433 . S
C890 C886 1.338 1_565 S
C890 C887 1.463 . S
C890 N894 1.427 . S
C891 H881 0.929 . S
C891 C889 1.433 . S
C891 N894 1.384 . S
C892 H883 0.929 . S
C892 C884 1.378 . S
C892 C887 1.350 . S
C893 H880 0.929 . S
C893 C885 1.433 1_545 S
C893 N895 1.384 . S
N894 C890 1.427 . S
N894 C891 1.384 . S
N895 C887 1.427 1_545 S
N895 C893 1.384 . S
H896 C902 0.930 . S
H897 C906 0.930 . S
H898 C911 0.929 . S
H899 C909 0.929 . S
H900 C904 0.929 . S
H901 C910 0.929 . S
C902 H896 0.930 . S
C902 C903 1.367 . S
C902 C910 1.378 . S
C903 C902 1.367 . S
C903 C911 1.433 . S
C904 H900 0.929 . S
C904 C906 1.378 . S
C904 C908 1.350 . S
C905 C908 1.463 . S
C905 C910 1.350 . S
C905 N913 1.427 . S
C906 H897 0.930 . S
C906 C904 1.378 . S
C906 C907 1.367 . S
C907 C906 1.367 . S
C907 C909 1.433 . S
C908 C904 1.350 . S
C908 C905 1.463 . S
C908 N912 1.427 . S
C909 H899 0.929 . S
C909 C907 1.433 . S
C909 N912 1.384 . S
C910 H901 0.929 . S
C910 C902 1.378 . S
C910 C905 1.350 . S
C911 H898 0.929 . S
C911 C903 1.433 . S
C911 N913 1.384 . S
N912 C908 1.427 . S
N912 C909 1.384 . S
N913 C905 1.427 . S
N913 C911 1.384 . S
H914 C920 0.930 . S
H915 C924 0.930 . S
H916 C929 0.929 . S
H917 C927 0.929 . S
H918 C922 0.929 . S
H919 C928 0.929 . S
C920 H914 0.930 . S
C920 C921 1.367 . S
C920 C928 1.378 . S
C921 C920 1.367 . S
C921 C929 1.433 . S
C922 H918 0.929 . S
C922 C924 1.378 . S
C922 C926 1.350 . S
C923 C926 1.463 . S
C923 C928 1.350 . S
C923 N931 1.427 . S
C924 H915 0.930 . S
C924 C922 1.378 . S
C924 C925 1.367 . S
C925 C924 1.367 . S
C925 C927 1.433 . S
C926 C922 1.350 . S
C926 C923 1.463 . S
C926 N930 1.427 . S
C927 H917 0.929 . S
C927 C925 1.433 . S
C927 N930 1.384 . S
C928 H919 0.929 . S
C928 C920 1.378 . S
C928 C923 1.350 . S
C929 H916 0.929 . S
C929 C921 1.433 . S
C929 N931 1.384 . S
N930 C926 1.427 . S
N930 C927 1.384 . S
N931 C923 1.427 . S
N931 C929 1.384 . S
H932 C938 0.930 . S
H933 C942 0.930 . S
H934 C947 0.929 . S
H935 C945 0.929 . S
H936 C940 0.929 . S
H937 C946 0.929 . S
C938 H932 0.930 . S
C938 C939 1.367 . S
C938 C946 1.378 . S
C939 C938 1.367 . S
C939 C947 1.433 . S
C940 H936 0.929 . S
C940 C942 1.378 . S
C940 C944 1.350 . S
C941 C944 1.463 . S
C941 C946 1.350 . S
C941 N949 1.427 . S
C942 H933 0.930 . S
C942 C940 1.378 . S
C942 C943 1.367 . S
C943 C942 1.367 . S
C943 C945 1.433 . S
C944 C940 1.350 . S
C944 C941 1.463 . S
C944 N948 1.427 . S
C945 H935 0.929 . S
C945 C943 1.433 . S
C945 N948 1.384 . S
C946 H937 0.929 . S
C946 C938 1.378 . S
C946 C941 1.350 . S
C947 H934 0.929 . S
C947 C939 1.433 . S
C947 N949 1.384 . S
N948 C944 1.427 . S
N948 C945 1.384 . S
N949 C941 1.427 . S
N949 C947 1.384 . S
H950 C956 0.930 . S
H951 C960 0.930 . S
H952 C965 0.929 . S
H953 C963 0.929 . S
H954 C958 0.929 . S
H955 C964 0.929 . S
C956 H950 0.930 . S
C956 C957 1.367 . S
C956 C964 1.378 . S
C957 C956 1.367 . S
C957 C965 1.433 . S
C958 H954 0.929 . S
C958 C960 1.378 . S
C958 C962 1.350 . S
C959 C962 1.463 . S
C959 C964 1.350 . S
C959 N967 1.427 . S
C960 H951 0.930 . S
C960 C958 1.378 . S
C960 C961 1.367 . S
C961 C960 1.367 . S
C961 C963 1.433 . S
C962 C958 1.350 . S
C962 C959 1.463 . S
C962 N966 1.427 . S
C963 H953 0.929 . S
C963 C961 1.433 . S
C963 N966 1.384 . S
C964 H955 0.929 . S
C964 C956 1.378 . S
C964 C959 1.350 . S
C965 H952 0.929 . S
C965 C957 1.433 . S
C965 N967 1.384 . S
N966 C962 1.427 . S
N966 C963 1.384 . S
N967 C959 1.427 . S
N967 C965 1.384 . S
H968 C974 0.930 . S
H969 C978 0.930 . S
H970 C983 0.929 . S
H971 C981 0.929 . S
H972 C976 0.929 . S
H973 C982 0.929 . S
C974 H968 0.930 . S
C974 C975 1.367 . S
C974 C982 1.378 . S
C975 C974 1.367 . S
C975 C983 1.433 . S
C976 H972 0.929 . S
C976 C978 1.378 . S
C976 C980 1.350 . S
C977 C980 1.463 . S
C977 C982 1.350 . S
C977 N985 1.427 . S
C978 H969 0.930 . S
C978 C976 1.378 . S
C978 C979 1.367 . S
C979 C978 1.367 . S
C979 C981 1.433 . S
C980 C976 1.350 . S
C980 C977 1.463 . S
C980 N984 1.427 . S
C981 H971 0.929 . S
C981 C979 1.433 . S
C981 N984 1.384 . S
C982 H973 0.929 . S
C982 C974 1.378 . S
C982 C977 1.350 . S
C983 H970 0.929 . S
C983 C975 1.433 . S
C983 N985 1.384 . S
N984 C980 1.427 . S
N984 C981 1.384 . S
N985 C977 1.427 . S
N985 C983 1.384 . S
H986 C992 0.930 . S
H987 C996 0.930 . S
H988 C1001 0.929 . S
H989 C999 0.929 . S
H990 C994 0.929 . S
H991 C1000 0.929 . S
C992 H986 0.930 . S
C992 C993 1.367 . S
C992 C1000 1.378 . S
C993 C992 1.367 . S
C993 C1001 1.433 . S
C994 H990 0.929 . S
C994 C996 1.378 . S
C994 C998 1.350 . S
C995 C998 1.463 . S
C995 C1000 1.350 . S
C995 N1003 1.427 . S
C996 H987 0.930 . S
C996 C994 1.378 . S
C996 C997 1.367 . S
C997 C996 1.367 . S
C997 C999 1.433 . S
C998 C994 1.350 . S
C998 C995 1.463 . S
C998 N1002 1.427 . S
C999 H989 0.929 . S
C999 C997 1.433 . S
C999 N1002 1.384 . S
C1000 H991 0.929 . S
C1000 C992 1.378 . S
C1000 C995 1.350 . S
C1001 H988 0.929 . S
C1001 C993 1.433 . S
C1001 N1003 1.384 . S
N1002 C998 1.427 . S
N1002 C999 1.384 . S
N1003 C995 1.427 . S
N1003 C1001 1.384 . S
H1004 C1010 0.930 . S
H1005 C1014 0.930 . S
H1006 C1019 0.929 . S
H1007 C1017 0.929 . S
H1008 C1012 0.929 . S
H1009 C1018 0.929 . S
C1010 H1004 0.930 . S
C1010 C1011 1.367 . S
C1010 C1018 1.378 . S
C1011 C1010 1.367 . S
C1011 C1019 1.433 . S
C1012 H1008 0.929 . S
C1012 C1014 1.378 . S
C1012 C1016 1.350 . S
C1013 C1016 1.463 . S
C1013 C1018 1.350 . S
C1013 N1021 1.427 . S
C1014 H1005 0.930 . S
C1014 C1012 1.378 . S
C1014 C1015 1.367 . S
C1015 C1014 1.367 . S
C1015 C1017 1.433 . S
C1016 C1012 1.350 . S
C1016 C1013 1.463 . S
C1016 N1020 1.427 . S
C1017 H1007 0.929 . S
C1017 C1015 1.433 . S
C1017 N1020 1.384 . S
C1018 H1009 0.929 . S
C1018 C1010 1.378 . S
C1018 C1013 1.350 . S
C1019 H1006 0.929 . S
C1019 C1011 1.433 . S
C1019 N1021 1.384 . S
N1020 C1016 1.427 . S
N1020 C1017 1.384 . S
N1021 C1013 1.427 . S
N1021 C1019 1.384 . S
H1022 C1028 0.930 . S
H1023 C1032 0.930 . S
H1024 C1037 0.929 . S
H1025 C1035 0.929 . S
H1026 C1030 0.929 . S
H1027 C1036 0.929 . S
C1028 H1022 0.930 . S
C1028 C1029 1.367 . S
C1028 C1036 1.378 . S
C1029 C1028 1.367 . S
C1029 C1037 1.433 . S
C1030 H1026 0.929 . S
C1030 C1032 1.378 . S
C1030 C1034 1.350 . S
C1031 C1034 1.463 . S
C1031 C1036 1.350 . S
C1031 N1039 1.427 . S
C1032 H1023 0.930 . S
C1032 C1030 1.378 . S
C1032 C1033 1.367 . S
C1033 C1032 1.367 . S
C1033 C1035 1.433 . S
C1034 C1030 1.350 . S
C1034 C1031 1.463 . S
C1034 N1038 1.427 . S
C1035 H1025 0.929 . S
C1035 C1033 1.433 . S
C1035 N1038 1.384 . S
C1036 H1027 0.929 . S
C1036 C1028 1.378 . S
C1036 C1031 1.350 . S
C1037 H1024 0.929 . S
C1037 C1029 1.433 . S
C1037 N1039 1.384 . S
N1038 C1034 1.427 . S
N1038 C1035 1.384 . S
N1039 C1031 1.427 . S
N1039 C1037 1.384 . S
H1040 C1046 0.930 . S
H1041 C1050 0.930 . S
H1042 C1055 0.929 . S
H1043 C1053 0.929 . S
H1044 C1048 0.929 . S
H1045 C1054 0.929 . S
C1046 H1040 0.930 . S
C1046 C1047 1.367 . S
C1046 C1054 1.378 . S
C1047 C1046 1.367 . S
C1047 C1055 1.433 . S
C1048 H1044 0.929 . S
C1048 C1050 1.378 . S
C1048 C1052 1.350 . S
C1049 C1052 1.463 . S
C1049 C1054 1.350 . S
C1049 N1057 1.427 . S
C1050 H1041 0.930 . S
C1050 C1048 1.378 . S
C1050 C1051 1.367 . S
C1051 C1050 1.367 . S
C1051 C1053 1.433 . S
C1052 C1048 1.350 . S
C1052 C1049 1.463 . S
C1052 N1056 1.427 . S
C1053 H1043 0.929 . S
C1053 C1051 1.433 . S
C1053 N1056 1.384 . S
C1054 H1045 0.929 . S
C1054 C1046 1.378 . S
C1054 C1049 1.350 . S
C1055 H1042 0.929 . S
C1055 C1047 1.433 . S
C1055 N1057 1.384 . S
N1056 C1052 1.427 . S
N1056 C1053 1.384 . S
N1057 C1049 1.427 . S
N1057 C1055 1.384 . S
H1058 C1064 0.930 . S
H1059 C1068 0.930 1_545 S
H1060 C1073 0.929 . S
H1061 C1071 0.929 . S
H1062 C1066 0.929 . S
H1063 C1072 0.929 . S
C1064 H1058 0.930 . S
C1064 C1065 1.367 . S
C1064 C1072 1.378 . S
C1065 C1064 1.367 . S
C1065 C1073 1.433 . S
C1066 H1062 0.929 . S
C1066 C1068 1.378 . S
C1066 C1070 1.350 . S
C1067 C1070 1.463 . S
C1067 C1072 1.350 . S
C1067 N1075 1.427 . S
C1068 H1059 0.930 1_565 S
C1068 C1066 1.378 . S
C1068 C1069 1.367 1_565 S
C1069 C1068 1.367 1_545 S
C1069 C1071 1.433 1_545 S
C1070 C1066 1.350 . S
C1070 C1067 1.463 . S
C1070 N1074 1.427 . S
C1071 H1061 0.929 . S
C1071 C1069 1.433 1_565 S
C1071 N1074 1.384 . S
C1072 H1063 0.929 . S
C1072 C1064 1.378 . S
C1072 C1067 1.350 . S
C1073 H1060 0.929 . S
C1073 C1065 1.433 . S
C1073 N1075 1.384 . S
N1074 C1070 1.427 . S
N1074 C1071 1.384 . S
N1075 C1067 1.427 . S
N1075 C1073 1.384 . S
H1076 C1082 0.930 . S
H1077 C1086 0.930 . S
H1078 C1091 0.929 . S
H1079 C1089 0.929 . S
H1080 C1084 0.929 . S
H1081 C1090 0.929 . S
C1082 H1076 0.930 . S
C1082 C1083 1.367 . S
C1082 C1090 1.378 . S
C1083 C1082 1.367 . S
C1083 C1091 1.433 . S
C1084 H1080 0.929 . S
C1084 C1086 1.378 . S
C1084 C1088 1.350 . S
C1085 C1088 1.463 . S
C1085 C1090 1.350 . S
C1085 N1093 1.427 . S
C1086 H1077 0.930 . S
C1086 C1084 1.378 . S
C1086 C1087 1.367 . S
C1087 C1086 1.367 . S
C1087 C1089 1.433 . S
C1088 C1084 1.350 . S
C1088 C1085 1.463 . S
C1088 N1092 1.427 . S
C1089 H1079 0.929 . S
C1089 C1087 1.433 . S
C1089 N1092 1.384 . S
C1090 H1081 0.929 . S
C1090 C1082 1.378 . S
C1090 C1085 1.350 . S
C1091 H1078 0.929 . S
C1091 C1083 1.433 . S
C1091 N1093 1.384 . S
N1092 C1088 1.427 . S
N1092 C1089 1.384 . S
N1093 C1085 1.427 . S
N1093 C1091 1.384 . S
H1094 C1100 0.930 . S
H1095 C1104 0.930 . S
H1096 C1109 0.929 . S
H1097 C1107 0.929 . S
H1098 C1102 0.929 . S
H1099 C1108 0.929 . S
C1100 H1094 0.930 . S
C1100 C1101 1.367 . S
C1100 C1108 1.378 1_565 S
C1101 C1100 1.367 . S
C1101 C1109 1.433 1_565 S
C1102 H1098 0.929 . S
C1102 C1104 1.378 . S
C1102 C1106 1.350 . S
C1103 C1106 1.463 . S
C1103 C1108 1.350 . S
C1103 N1111 1.427 . S
C1104 H1095 0.930 . S
C1104 C1102 1.378 . S
C1104 C1105 1.367 . S
C1105 C1104 1.367 . S
C1105 C1107 1.433 . S
C1106 C1102 1.350 . S
C1106 C1103 1.463 . S
C1106 N1110 1.427 . S
C1107 H1097 0.929 . S
C1107 C1105 1.433 . S
C1107 N1110 1.384 . S
C1108 H1099 0.929 . S
C1108 C1100 1.378 1_545 S
C1108 C1103 1.350 . S
C1109 H1096 0.929 . S
C1109 C1101 1.433 1_545 S
C1109 N1111 1.384 . S
N1110 C1106 1.427 . S
N1110 C1107 1.384 . S
N1111 C1103 1.427 . S
N1111 C1109 1.384 . S
H1112 C1118 0.930 . S
H1113 C1122 0.930 . S
H1114 C1127 0.929 . S
H1115 C1125 0.929 . S
H1116 C1120 0.929 . S
H1117 C1126 0.929 . S
C1118 H1112 0.930 . S
C1118 C1119 1.367 . S
C1118 C1126 1.378 . S
C1119 C1118 1.367 . S
C1119 C1127 1.433 . S
C1120 H1116 0.929 . S
C1120 C1122 1.378 . S
C1120 C1124 1.350 . S
C1121 C1124 1.463 . S
C1121 C1126 1.350 . S
C1121 N1129 1.427 . S
C1122 H1113 0.930 . S
C1122 C1120 1.378 . S
C1122 C1123 1.367 . S
C1123 C1122 1.367 . S
C1123 C1125 1.433 . S
C1124 C1120 1.350 . S
C1124 C1121 1.463 . S
C1124 N1128 1.427 . S
C1125 H1115 0.929 . S
C1125 C1123 1.433 . S
C1125 N1128 1.384 . S
C1126 H1117 0.929 . S
C1126 C1118 1.378 . S
C1126 C1121 1.350 . S
C1127 H1114 0.929 . S
C1127 C1119 1.433 . S
C1127 N1129 1.384 . S
N1128 C1124 1.427 . S
N1128 C1125 1.384 . S
N1129 C1121 1.427 . S
N1129 C1127 1.384 . S
H1130 C1136 0.930 . S
H1131 C1140 0.930 . S
H1132 C1145 0.929 . S
H1133 C1143 0.929 . S
H1134 C1138 0.929 . S
H1135 C1144 0.929 . S
C1136 H1130 0.930 . S
C1136 C1137 1.367 . S
C1136 C1144 1.378 . S
C1137 C1136 1.367 . S
C1137 C1145 1.433 . S
C1138 H1134 0.929 . S
C1138 C1140 1.378 . S
C1138 C1142 1.350 . S
C1139 C1142 1.463 . S
C1139 C1144 1.350 . S
C1139 N1147 1.427 . S
C1140 H1131 0.930 . S
C1140 C1138 1.378 . S
C1140 C1141 1.367 1_545 S
C1141 C1140 1.367 1_565 S
C1141 C1143 1.433 . S
C1142 C1138 1.350 . S
C1142 C1139 1.463 . S
C1142 N1146 1.427 . S
C1143 H1133 0.929 . S
C1143 C1141 1.433 . S
C1143 N1146 1.384 1_565 S
C1144 H1135 0.929 . S
C1144 C1136 1.378 . S
C1144 C1139 1.350 . S
C1145 H1132 0.929 . S
C1145 C1137 1.433 . S
C1145 N1147 1.384 . S
N1146 C1142 1.427 . S
N1146 C1143 1.384 1_545 S
N1147 C1139 1.427 . S
N1147 C1145 1.384 . S
H1148 C1154 0.930 . S
H1149 C1158 0.930 . S
H1150 C1163 0.929 . S
H1151 C1161 0.968 . S
H1152 C1156 0.929 . S
H1153 C1162 0.929 . S
C1154 H1148 0.930 . S
C1154 C1155 1.367 . S
C1154 C1162 1.378 . S
C1155 C1154 1.367 . S
C1155 C1163 1.433 . S
C1156 H1152 0.929 . S
C1156 C1158 1.378 . S
C1156 C1160 1.350 . S
C1157 C1160 1.463 . S
C1157 C1162 1.350 . S
C1157 N1165 1.427 . S
C1158 H1149 0.930 . S
C1158 C1156 1.378 . S
C1158 C1159 1.367 . S
C1159 C1158 1.367 . S
C1159 C1161 1.433 . S
C1160 C1156 1.350 . S
C1160 C1157 1.463 . S
C1160 N1164 1.427 . S
C1161 H1151 0.968 . S
C1161 C1159 1.433 . S
C1161 N1164 1.384 . S
C1162 H1153 0.929 . S
C1162 C1154 1.378 . S
C1162 C1157 1.350 . S
C1163 H1150 0.929 . S
C1163 C1155 1.433 . S
C1163 N1165 1.384 . S
N1164 C1160 1.427 . S
N1164 C1161 1.384 . S
N1165 C1157 1.427 . S
N1165 C1163 1.384 . S
H1166 C1172 0.930 . S
H1167 C1176 0.930 . S
H1168 C1181 0.929 . S
H1169 C1179 0.929 . S
H1170 C1174 0.929 . S
H1171 C1180 0.929 . S
C1172 H1166 0.930 . S
C1172 C1173 1.367 . S
C1172 C1180 1.378 . S
C1173 C1172 1.367 . S
C1173 C1181 1.433 . S
C1174 H1170 0.929 . S
C1174 C1176 1.378 . S
C1174 C1178 1.350 1_545 S
C1175 C1178 1.463 . S
C1175 C1180 1.350 . S
C1175 N1183 1.427 . S
C1176 H1167 0.930 . S
C1176 C1174 1.378 . S
C1176 C1177 1.367 . S
C1177 C1176 1.367 . S
C1177 C1179 1.433 1_545 S
C1178 C1174 1.350 1_565 S
C1178 C1175 1.463 . S
C1178 N1182 1.427 . S
C1179 H1169 0.929 . S
C1179 C1177 1.433 1_565 S
C1179 N1182 1.384 . S
C1180 H1171 0.929 . S
C1180 C1172 1.378 . S
C1180 C1175 1.350 . S
C1181 H1168 0.929 . S
C1181 C1173 1.433 . S
C1181 N1183 1.384 . S
N1182 C1178 1.427 . S
N1182 C1179 1.384 . S
N1183 C1175 1.427 . S
N1183 C1181 1.384 . S
C327 C1 0.505 . S
C331 C201 0.497 . S
C345 C21 0.490 . S
C349 C221 0.466 . S
C363 C41 0.492 . S
C367 C161 0.466 . S
C381 C181 0.470 . S
C385 C61 0.505 . S
C399 C89 0.466 . S
C403 C289 0.499 . S
C417 C309 0.501 . S
C421 C109 0.503 . S
C435 C249 0.500 . S
C439 C129 0.503 . S
C453 C149 0.470 . S
C457 C269 0.482 . S
C471 C19 2.339 . S
C475 C88 2.339 . S
C489 C39 2.340 . S
C493 C268 2.340 . S
C507 C59 2.332 . S
C511 C128 2.332 . S
C525 C79 2.341 . S
C529 C308 2.341 . S
C543 C108 2.341 . S
C547 C199 2.341 . S
C561 C239 2.341 . S
C565 C148 2.341 . S
C579 C248 2.335 . S
C583 C179 2.335 . S
C597 C219 2.337 . S
C601 C288 2.337 . S
C615 C8 1.271 . S
C619 C141 1.380 . S
C633 C28 1.273 . S
C637 C241 1.382 . S
C651 C48 1.292 . S
C655 C101 1.376 . S
C669 C68 1.275 . S
C673 C281 1.378 . S
C687 C69 1.381 . S
C691 C99 1.271 . S
C705 C119 1.273 . S
C709 C169 1.381 . S
C723 C139 1.290 . S
C727 C29 1.376 . S
C741 C209 1.379 . S
C745 C159 1.291 . S
C759 C168 1.292 . S
C763 C301 1.376 . S
C777 C81 1.381 . S
C781 C188 1.281 1_565 S
C795 C261 1.379 . S
C799 C208 1.273 . S
C813 C121 1.381 . S
C817 C228 1.274 1_545 S
C831 C259 1.292 . S
C835 C229 1.378 . S
C849 C279 1.277 1_545 S
C853 C9 1.381 . S
C867 C189 1.377 . S
C871 C299 1.294 . S
C885 C319 1.286 1_565 S
C889 C49 1.380 . S
C903 C6 1.656 1_556 S
C907 C196 1.600 . S
C921 C216 1.613 . S
C925 C26 1.663 . S
C939 C46 1.651 . S
C943 C236 1.597 . S
C957 C176 1.614 . S
C961 C66 1.663 . S
C975 C266 1.598 . S
C979 C96 1.654 1_554 S
C993 C286 1.602 . S
C997 C116 1.651 . S
C1011 C306 1.601 . S
C1015 C136 1.657 . S
C1029 C246 1.609 . S
C1033 C156 1.662 . S
C1047 C36 1.607 . S
C1051 C166 1.661 . S
C1065 C56 1.610 . S
C1069 C186 1.656 . S
C1083 C76 1.608 . S
C1087 C206 1.662 1_556 S
C1101 C226 1.660 . S
C1105 C16 1.605 . S
C1119 C106 1.601 . S
C1123 C256 1.657 . S
C1137 C126 1.604 . S
C1141 C276 1.653 . S
C1155 C146 1.613 . S
C1159 C296 1.659 1_554 S
C1173 C86 1.612 . S
C1177 C316 1.663 . S
