# Generated by pormake.
# Topology ttw, (5)-cn, num edge types: 1
# Building blocks:
#     Node 0, Type 0, BuildingBlock: XOMCOT_clean_sbu_1, # of connection points: 5
#     Node 1, Type 0, BuildingBlock: XOMCOT_clean_sbu_1, # of connection points: 5
#     Node 2, Type 0, BuildingBlock: XOMCOT_clean_sbu_1, # of connection points: 5
#     Node 3, Type 0, BuildingBlock: XOMCOT_clean_sbu_1, # of connection points: 5
#     Node 4, Type 0, BuildingBlock: XOMCOT_clean_sbu_1, # of connection points: 5
#     Node 5, Type 0, BuildingBlock: XOMCOT_clean_sbu_1, # of connection points: 5
#     Edge 6, Type (0, 0), BuildingBlock: ZUJKAS_clean_linker_0, # of connection points: 2
#     Edge 7, Type (0, 0), BuildingBlock: ZUJKAS_clean_linker_0, # of connection points: 2
#     Edge 8, Type (0, 0), BuildingBlock: ZUJKAS_clean_linker_0, # of connection points: 2
#     Edge 9, Type (0, 0), BuildingBlock: ZUJKAS_clean_linker_0, # of connection points: 2
#     Edge 10, Type (0, 0), BuildingBlock: ZUJKAS_clean_linker_0, # of connection points: 2
#     Edge 11, Type (0, 0), BuildingBlock: ZUJKAS_clean_linker_0, # of connection points: 2
#     Edge 12, Type (0, 0), BuildingBlock: ZUJKAS_clean_linker_0, # of connection points: 2
#     Edge 13, Type (0, 0), BuildingBlock: ZUJKAS_clean_linker_0, # of connection points: 2
#     Edge 14, Type (0, 0), BuildingBlock: ZUJKAS_clean_linker_0, # of connection points: 2
#     Edge 15, Type (0, 0), BuildingBlock: ZUJKAS_clean_linker_0, # of connection points: 2
#     Edge 16, Type (0, 0), BuildingBlock: ZUJKAS_clean_linker_0, # of connection points: 2
#     Edge 17, Type (0, 0), BuildingBlock: ZUJKAS_clean_linker_0, # of connection points: 2
#     Edge 18, Type (0, 0), BuildingBlock: ZUJKAS_clean_linker_0, # of connection points: 2
#     Edge 19, Type (0, 0), BuildingBlock: ZUJKAS_clean_linker_0, # of connection points: 2
#     Edge 20, Type (0, 0), BuildingBlock: ZUJKAS_clean_linker_0, # of connection points: 2
# Relax obj value: 0.327
# Max RMSD: 0.294
# Mean RMSD: 0.267
data_MOF--net-ttw--node1-XOMCOT_clean_sbu_1--edge1-ZUJKAS_clean_linker_0
_symmetry_space_group_name_H-M    P1
_symmetry_Int_Tables_number       1
_symmetry_cell_setting            triclinic
loop_
_symmetry_equiv_pos_as_xyz
'x, y, z'
_cell_length_a     70.107061
_cell_length_b     70.355798
_cell_length_c     22.083629
_cell_angle_alpha  94.447712
_cell_angle_beta   94.37163
_cell_angle_gamma 120.57049
loop_
_atom_site_label
_atom_site_type_symbol
_atom_site_fract_x
_atom_site_fract_y
_atom_site_fract_z
_atom_type_partial_charge
C0 C 0.14806 0.55411 0.94531 0.0
C1 C 0.14604 0.55106 0.88255 0.0
N2 N 0.14687 0.56891 0.86179 0.0
N3 N 0.15068 0.57407 0.96501 0.0
C4 C 0.14933 0.58243 0.9126 0.0
H5 H 0.14679 0.54189 0.97387 0.0
Co6 Co 0.15185 0.58535 0.04674 0.0
C7 C 0.18689 0.62694 1.00039 0.0
O8 O 0.19419 0.61662 0.96571 0.0
N9 N 0.1523 0.59622 0.12697 0.0
C10 C 0.15219 0.61772 0.20592 0.0
C11 C 0.15187 0.61484 0.1436 0.0
C12 C 0.15251 0.58783 0.17995 0.0
N13 N 0.15264 0.60075 0.22891 0.0
O14 O 0.12646 0.58754 0.02226 0.0
H15 H 0.151 0.62552 0.11224 0.0
H16 H 0.15272 0.57265 0.1826 0.0
O17 O 0.17111 0.61592 0.03166 0.0
C18 C 0.10771 0.56938 1.01172 0.0
O19 O 0.10717 0.55056 0.01537 0.0
N20 N 0.17625 0.58211 0.07296 0.0
C21 C 0.20897 0.57122 0.09758 0.0
C22 C 0.21488 0.5935 0.0966 0.0
C23 C 0.19822 0.59865 0.08591 0.0
C24 C 0.17015 0.56088 0.08156 0.0
C25 C 0.18619 0.55496 0.09281 0.0
H26 H 0.20324 0.61592 0.08791 0.0
H27 H 0.15261 0.54826 0.07773 0.0
H28 H 0.14954 0.59789 0.91167 0.0
H29 H 0.14408 0.53672 0.85448 0.0
H30 H 0.15161 0.63104 0.23206 0.0
H31 H 0.2322 0.60685 0.10201 0.0
H32 H 0.18073 0.53773 0.09672 0.0
C33 C 0.54587 0.07232 0.82597 0.0
C34 C 0.54377 0.06777 0.7635 0.0
N35 N 0.53349 0.07751 0.73757 0.0
N36 N 0.53716 0.08504 0.8402 0.0
C37 C 0.5292 0.08748 0.78523 0.0
H38 H 0.55382 0.06716 0.85935 0.0
Co39 Co 0.53974 0.09591 0.92267 0.0
C40 C 0.53936 0.13655 0.87208 0.0
O41 O 0.54273 0.13626 0.81442 0.0
N42 N 0.54265 0.10643 1.00575 0.0
C43 C 0.55459 0.1293 0.09339 0.0
C44 C 0.55544 0.12791 0.03148 0.0
C45 C 0.53418 0.09502 0.05322 0.0
N46 N 0.5413 0.10861 0.10735 0.0
O47 O 0.50783 0.08012 0.92104 0.0
H48 H 0.56528 0.14172 1.00695 0.0
H49 H 0.52361 0.07706 0.0484 0.0
O50 O 0.53897 0.12182 0.90301 0.0
C51 C 0.49172 0.06196 0.89158 0.0
O52 O 0.49554 0.05048 0.84965 0.0
N53 N 0.57108 0.11129 0.92652 0.0
C54 C 0.61755 0.13773 0.94595 0.0
C55 C 0.6052 0.13956 0.89615 0.0
C56 C 0.58197 0.1261 0.88707 0.0
C57 C 0.58289 0.10779 0.97171 0.0
C58 C 0.60619 0.12112 0.98293 0.0
H59 H 0.57275 0.12797 0.84912 0.0
H60 H 0.57412 0.09536 1.00125 0.0
H61 H 0.52059 0.09645 0.78007 0.0
H62 H 0.54964 0.0582 0.73915 0.0
H63 H 0.56324 0.14444 0.12571 0.0
H64 H 0.61326 0.15209 0.86623 0.0
H65 H 0.61516 0.11889 0.02116 0.0
C66 C 0.47824 0.61345 0.08521 0.0
C67 C 0.48074 0.61489 0.02436 0.0
N68 N 0.46574 0.59509 0.9918 0.0
N69 N 0.46121 0.59295 0.09161 0.0
C70 C 0.45453 0.58191 0.03353 0.0
H71 H 0.48847 0.62688 0.12153 0.0
Co72 Co 0.44868 0.58112 0.16348 0.0
C73 C 0.41007 0.57495 0.08023 0.0
O74 O 0.42328 0.59434 0.06239 0.0
N75 N 0.4367 0.56906 0.23391 0.0
C76 C 0.41397 0.5479 0.29699 0.0
C77 C 0.41668 0.55073 0.23664 0.0
C78 C 0.44608 0.57682 0.29314 0.0
N79 N 0.43248 0.5643 0.33248 0.0
O80 O 0.44997 0.55541 0.13841 0.0
H81 H 0.40482 0.53994 0.19735 0.0
H82 H 0.46239 0.5916 0.30716 0.0
O83 O 0.41821 0.56746 0.11913 0.0
C84 C 0.46762 0.55765 0.16681 0.0
O85 O 0.48064 0.57577 0.20586 0.0
N86 N 0.44889 0.60712 0.19267 0.0
C87 C 0.45345 0.64772 0.23502 0.0
C88 C 0.43219 0.62862 0.2182 0.0
C89 C 0.43026 0.60831 0.19886 0.0
C90 C 0.46937 0.6247 0.21707 0.0
C91 C 0.47218 0.6454 0.23676 0.0
H92 H 0.41375 0.59366 0.18917 0.0
H93 H 0.48374 0.62275 0.21997 0.0
H94 H 0.44085 0.56484 0.02166 0.0
H95 H 0.4926 0.62947 1.00534 0.0
H96 H 0.39961 0.53461 0.31354 0.0
H97 H 0.41716 0.62941 0.21837 0.0
H98 H 0.48883 0.65946 0.25271 0.0
C99 C 0.88301 0.4212 0.15397 0.0
C100 C 0.8878 0.42361 0.21656 0.0
N101 N 0.8778 0.43364 0.2425 0.0
N102 N 0.87001 0.42963 0.13983 0.0
C103 C 0.86721 0.43724 0.19478 0.0
H104 H 0.88807 0.41312 0.12066 0.0
Co105 Co 0.85848 0.42829 0.05866 0.0
C106 C 0.81548 0.42399 0.09326 0.0
O107 O 0.80354 0.40242 0.07595 0.0
N108 N 0.84765 0.42759 0.97635 0.0
C109 C 0.82585 0.42189 0.88983 0.0
C110 C 0.82638 0.41955 0.95089 0.0
C111 C 0.85973 0.43459 0.92898 0.0
N112 N 0.84684 0.4314 0.87574 0.0
O113 O 0.87913 0.4595 0.06217 0.0
H114 H 0.81182 0.41171 0.97387 0.0
H115 H 0.87764 0.4418 0.93343 0.0
O116 O 0.83633 0.43508 0.08791 0.0
C117 C 0.89867 0.46334 0.05676 0.0
O118 O 0.90167 0.4464 0.0481 0.0
N119 N 0.83952 0.39679 0.05434 0.0
C120 C 0.81342 0.35031 0.04305 0.0
C121 C 0.81655 0.36341 0.09823 0.0
C122 C 0.82998 0.38656 0.10331 0.0
C123 C 0.83831 0.3841 1.00243 0.0
C124 C 0.82498 0.36091 0.9953 0.0
H125 H 0.83163 0.39625 0.14586 0.0
H126 H 0.84767 0.39186 0.96585 0.0
H127 H 0.85724 0.44485 0.19972 0.0
H128 H 0.89717 0.41755 0.24099 0.0
H129 H 0.81095 0.41626 0.85784 0.0
H130 H 0.80806 0.35595 0.13653 0.0
H131 H 0.82376 0.35136 0.95274 0.0
C132 C 0.42489 0.90069 0.33363 0.0
C133 C 0.42847 0.905 0.39634 0.0
N134 N 0.40852 0.8953 0.41684 0.0
N135 N 0.40275 0.88754 0.31383 0.0
C136 C 0.39319 0.88554 0.36608 0.0
H137 H 0.43787 0.9074 0.3046 0.0
Co138 Co 0.39062 0.87686 0.22959 0.0
C139 C 0.35458 0.84 0.28701 0.0
O140 O 0.36916 0.83878 0.32506 0.0
N141 N 0.37931 0.86735 0.14618 0.0
C142 C 0.35834 0.84861 0.0572 0.0
C143 C 0.3595 0.84961 0.11974 0.0
C144 C 0.38971 0.87712 0.09852 0.0
N145 N 0.37732 0.86592 0.04384 0.0
O146 O 0.38116 0.89785 0.22826 0.0
H147 H 0.3466 0.83787 0.14375 0.0
H148 H 0.40618 0.89198 0.10385 0.0
O149 O 0.36146 0.85486 0.25092 0.0
C150 C 0.39633 0.91795 0.22675 0.0
O151 O 0.4173 0.92321 0.23324 0.0
N152 N 0.40072 0.85637 0.22723 0.0
C153 C 0.41787 0.8282 0.22858 0.0
C154 C 0.39485 0.81947 0.2152 0.0
C155 C 0.38669 0.83381 0.21322 0.0
C156 C 0.42326 0.86508 0.23263 0.0
C157 C 0.43224 0.85137 0.23512 0.0
H158 H 0.36902 0.82652 0.20018 0.0
H159 H 0.43445 0.88272 0.234 0.0
H160 H 0.37538 0.87688 0.36748 0.0
H161 H 0.44454 0.91465 0.4248 0.0
H162 H 0.34447 0.83624 0.02398 0.0
H163 H 0.38319 0.80165 0.20581 0.0
H164 H 0.45022 0.85888 0.24283 0.0
C165 C 0.56582 0.37379 0.10037 0.0
C166 C 0.56456 0.37075 0.03777 0.0
N167 N 0.58012 0.38995 0.01988 0.0
N168 N 0.58234 0.39468 0.12252 0.0
C169 C 0.59069 0.40422 0.07247 0.0
H170 H 0.55506 0.36159 0.12791 0.0
Co171 Co 0.58901 0.40654 0.20486 0.0
C172 C 0.63804 0.43624 0.23085 0.0
O173 O 0.63704 0.4297 0.28526 0.0
N174 N 0.59488 0.41866 0.28862 0.0
C175 C 0.60542 0.4442 0.37026 0.0
C176 C 0.60288 0.44046 0.30747 0.0
C177 C 0.59231 0.40945 0.34139 0.0
N178 N 0.5988 0.42469 0.39163 0.0
O179 O 0.57992 0.42672 0.18433 0.0
H180 H 0.60702 0.45305 0.27737 0.0
H181 H 0.58624 0.39206 0.34361 0.0
O182 O 0.62002 0.42824 0.19336 0.0
C183 C 0.55974 0.42012 0.19113 0.0
O184 O 0.54795 0.40132 0.21348 0.0
N185 N 0.59613 0.38487 0.22211 0.0
C186 C 0.59379 0.34395 0.2045 0.0
C187 C 0.61251 0.36344 0.19184 0.0
C188 C 0.61307 0.38356 0.19921 0.0
C189 C 0.57878 0.36648 0.23997 0.0
C190 C 0.57731 0.34585 0.23183 0.0
H191 H 0.6259 0.39714 0.17966 0.0
H192 H 0.56469 0.36722 0.25392 0.0
H193 H 0.60372 0.4215 0.07458 0.0
H194 H 0.55292 0.35549 1.00797 0.0
H195 H 0.61148 0.46005 0.39802 0.0
H196 H 0.62574 0.36282 0.1711 0.0
H197 H 0.56231 0.33124 0.24127 0.0
H198 H 0.06678 0.53411 0.9655 0.0
H199 H 0.03101 0.53195 0.9627 0.0
H200 H 0.06459 0.60189 0.03234 0.0
H201 H 0.10081 0.60416 0.03569 0.0
H202 H 0.0331 0.57661 0.10104 0.0
H203 H 0.99484 0.5506 0.86038 0.0
H204 H 0.00651 0.53398 0.87931 0.0
H205 H 0.02467 0.56371 0.88225 0.0
C206 C 0.06665 0.54918 0.97897 0.0
C207 C 0.08658 0.56926 1.00118 0.0
C208 C 0.04616 0.54799 0.97661 0.0
C209 C 0.04509 0.56685 0.99625 0.0
C210 C 0.06505 0.58721 0.01619 0.0
H211 H 0.90135 0.49879 1.00531 0.0
H212 H 0.93614 0.53358 0.99488 0.0
C213 C 0.08569 0.58847 0.0181 0.0
C214 C 0.023 0.5639 1.00475 0.0
H215 H 0.96894 0.53245 0.9368 0.0
C216 C 0.01911 0.56773 0.06464 0.0
C217 C 0.00474 0.55297 0.95725 0.0
C218 C 0.008 0.55035 0.89111 0.0
C219 C -0.00273 0.55799 0.07958 0.0
C220 C 0.97908 0.54384 0.03373 0.0
C221 C 0.9829 0.54288 0.9724 0.0
C222 C 0.95766 0.52589 0.04973 0.0
C223 C 0.99397 0.56135 0.14533 0.0
C224 C 0.95825 0.51029 0.08449 0.0
C225 C 0.93869 0.49054 0.08955 0.0
C226 C 0.91808 0.48601 0.06039 0.0
C227 C 0.91711 0.50213 0.02874 0.0
C228 C 0.9369 0.52191 0.02273 0.0
H229 H 0.00671 0.57845 0.16754 0.0
H230 H 0.97704 0.55858 0.14888 0.0
H231 H 0.99611 0.54947 0.17104 0.0
H232 H 0.97404 0.51263 0.10434 0.0
H233 H 0.93981 0.47831 0.1141 0.0
H234 H 0.35897 0.90848 0.15083 0.0
H235 H 0.35663 0.93375 0.08433 0.0
H236 H 0.41944 0.988 0.17901 0.0
H237 H 0.42185 0.96299 0.24538 0.0
H238 H 0.38764 0.00065 0.12457 0.0
H239 H 0.40445 0.94661 0.96621 0.0
H240 H 0.37939 0.93403 1.00195 0.0
H241 H 0.40611 0.9454 0.04749 0.0
C242 C 0.37173 0.92601 0.15931 0.0
C243 C 0.39084 0.93375 0.20236 0.0
C244 C 0.37038 0.94041 0.1212 0.0
C245 C 0.38806 0.96261 0.12614 0.0
C246 C 0.40563 0.97091 0.17443 0.0
H247 H 0.4826 0.06999 1.00501 0.0
H248 H 0.449 0.04656 0.04908 0.0
C249 C 0.40707 0.95657 0.21211 0.0
C250 C 0.39156 0.97564 0.07436 0.0
H251 H 0.41568 0.98196 0.94366 0.0
C252 C 0.3931 0.99636 0.0838 0.0
C253 C 0.39836 0.96987 0.02076 0.0
C254 C 0.3971 0.94783 1.0081 0.0
C255 C 0.40312 0.01222 0.04367 0.0
C256 C 0.41255 0.00747 0.99446 0.0
C257 C 0.40869 0.98584 0.9815 0.0
C258 C 0.43005 0.0252 0.96393 0.0
C259 C 0.40428 0.03418 0.05606 0.0
C260 C 0.43082 0.02144 0.90088 0.0
C261 C 0.45056 0.03436 0.87601 0.0
C262 C 0.46965 0.0516 0.91345 0.0
C263 C 0.46814 0.05684 0.9749 0.0
C264 C 0.44868 0.04356 1.0001 0.0
H265 H 0.38849 0.03157 0.07138 0.0
H266 H 0.41796 0.04498 0.09386 0.0
H267 H 0.40728 0.04293 0.01492 0.0
H268 H 0.41672 0.00744 0.87185 0.0
H269 H 0.45121 0.03012 0.8283 0.0
H270 H 0.52314 0.41795 0.23142 0.0
H271 H 0.50606 0.43942 0.20488 0.0
H272 H 0.5552 0.4723 0.08374 0.0
H273 H 0.57308 0.45148 0.11264 0.0
H274 H 0.55111 0.50138 0.14818 0.0
H275 H 0.46553 0.43335 0.06017 0.0
H276 H 0.47295 0.42935 0.13545 0.0
H277 H 0.48826 0.42844 0.07427 0.0
C278 C 0.53023 0.42964 0.1988 0.0
C279 C 0.54943 0.43306 0.17408 0.0
C280 C 0.52026 0.44171 0.183 0.0
C281 C 0.52889 0.45702 0.14083 0.0
C282 C 0.54808 0.46041 0.11587 0.0
H283 H 0.45628 0.5271 0.06477 0.0
H284 H 0.47113 0.50237 0.04653 0.0
C285 C 0.55833 0.4486 0.13258 0.0
C286 C 0.51906 0.47086 0.12765 0.0
H287 H 0.46915 0.46845 0.10226 0.0
C288 C 0.53322 0.49411 0.13678 0.0
C289 C 0.49578 0.46152 0.11105 0.0
C290 C 0.47985 0.43679 0.09396 0.0
C291 C 0.52462 0.50821 0.13451 0.0
C292 C 0.50117 0.49881 0.12513 0.0
C293 C 0.48709 0.47564 0.11105 0.0
C294 C 0.49113 0.51269 0.13569 0.0
C295 C 0.54079 0.53306 0.14356 0.0
C296 C 0.49674 0.52592 0.19248 0.0
C297 C 0.48854 0.54005 0.20261 0.0
C298 C 0.47412 0.54089 0.15666 0.0
C299 C 0.46741 0.52674 0.10087 0.0
C300 C 0.47593 0.51273 0.09038 0.0
H301 H 0.55691 0.53719 0.12725 0.0
H302 H 0.53385 0.54186 0.11893 0.0
H303 H 0.54442 0.53943 0.19317 0.0
H304 H 0.50775 0.52554 0.22891 0.0
H305 H 0.49369 0.55049 0.24645 0.0
H306 H 0.17002 0.63247 0.32803 0.0
H307 H 0.16881 0.62684 0.43568 0.0
H308 H 0.13434 0.55574 0.38259 0.0
H309 H 0.13556 0.5613 0.27444 0.0
H310 H 0.13214 0.60441 0.49472 0.0
H311 H 0.18451 0.56626 0.51138 0.0
H312 H 0.18322 0.58024 0.44741 0.0
H313 H 0.16121 0.55219 0.45146 0.0
C314 C 0.16216 0.61562 0.33914 0.0
C315 C 0.15284 0.59732 0.29252 0.0
C316 C 0.16155 0.61244 0.40078 0.0
C317 C 0.1517 0.5909 0.41734 0.0
C318 C 0.14246 0.57255 0.37101 0.0
H319 H 0.12646 0.53746 0.76187 0.0
H320 H 0.12721 0.54346 0.65454 0.0
C321 C 0.14315 0.57574 0.30918 0.0
C322 C 0.15052 0.58775 0.48304 0.0
H323 H 0.16586 0.56603 0.59688 0.0
C324 C 0.1396 0.59611 0.51715 0.0
C325 C 0.16029 0.57695 0.51229 0.0
C326 C 0.17316 0.56857 0.479 0.0
C327 C 0.13785 0.5936 0.57937 0.0
C328 C 0.1475 0.5827 0.60845 0.0
C329 C 0.15844 0.57437 0.57442 0.0
C330 C 0.14622 0.57941 0.67396 0.0
C331 C 0.12525 0.60221 0.61314 0.0
C332 C 0.15657 0.59767 0.72072 0.0
C333 C 0.15627 0.59429 0.78244 0.0
C334 C 0.14575 0.57258 0.79849 0.0
C335 C 0.13504 0.55439 0.75134 0.0
C336 C 0.13535 0.55778 0.68985 0.0
H337 H 0.11452 0.60544 0.58116 0.0
H338 H 0.1146 0.59017 0.64316 0.0
H339 H 0.13738 0.6181 0.64256 0.0
H340 H 0.16537 0.61452 0.70949 0.0
H341 H 0.16491 0.60864 0.81749 0.0
H342 H 0.56899 0.13012 0.21333 0.0
H343 H 0.56154 0.12166 0.3168 0.0
H344 H 0.49634 0.06544 0.24469 0.0
H345 H 0.50384 0.07386 0.13999 0.0
H346 H 0.52899 0.12064 0.37946 0.0
H347 H 0.52163 0.0378 0.35635 0.0
H348 H 0.53269 0.05662 0.30007 0.0
H349 H 0.50307 0.0407 0.30234 0.0
C350 C 0.55301 0.11599 0.21924 0.0
C351 C 0.53697 0.10273 0.16823 0.0
C352 C 0.54878 0.11113 0.2786 0.0
C353 C 0.52843 0.09286 0.28881 0.0
C354 C 0.51233 0.07943 0.23805 0.0
H355 H 0.5017 0.08293 0.67591 0.0
H356 H 0.49678 0.08519 0.56581 0.0
C357 C 0.51662 0.08424 0.17822 0.0
C358 C 0.52444 0.08835 0.35295 0.0
H359 H 0.51783 0.05128 0.4527 0.0
C360 C 0.5263 0.10537 0.39539 0.0
C361 C 0.52105 0.06847 0.37383 0.0
C362 C 0.51965 0.04988 0.33106 0.0
C363 C 0.52568 0.10341 0.45825 0.0
C364 C 0.52267 0.08369 0.4793 0.0
C365 C 0.52001 0.06635 0.43654 0.0
C366 C 0.52467 0.08163 0.54588 0.0
C367 C 0.52943 0.12296 0.50191 0.0
C368 C 0.54162 0.07845 0.57124 0.0
C369 C 0.54437 0.07705 0.63369 0.0
C370 C 0.53017 0.07872 0.67278 0.0
C371 C 0.51306 0.0818 0.64736 0.0
C372 C 0.51025 0.08311 0.58441 0.0
H373 H 0.53595 0.13841 0.48001 0.0
H374 H 0.51333 0.11915 0.51756 0.0
H375 H 0.54139 0.12617 0.5429 0.0
H376 H 0.55306 0.07741 0.54273 0.0
H377 H 0.55801 0.07512 0.65147 0.0
H378 H 0.46365 0.62162 0.91365 0.0
H379 H 0.45735 0.61465 0.80178 0.0
H380 H 0.45274 0.55129 0.80835 0.0
H381 H 0.45785 0.5579 0.92102 0.0
H382 H 0.48077 0.61112 0.72456 0.0
H383 H 0.39966 0.53128 0.68705 0.0
H384 H 0.41158 0.54763 0.76153 0.0
H385 H 0.42089 0.52952 0.73238 0.0
C386 C 0.46109 0.60613 0.89109 0.0
C387 C 0.46121 0.59028 0.92585 0.0
C388 C 0.45751 0.60213 0.82708 0.0
C389 C 0.45429 0.5823 0.79594 0.0
C390 C 0.45451 0.56644 0.83078 0.0
H391 H 0.47122 0.57709 0.40419 0.0
H392 H 0.47731 0.58076 0.51644 0.0
C393 C 0.45758 0.57024 0.89517 0.0
C394 C 0.45158 0.57895 0.72733 0.0
H395 H 0.41825 0.54294 0.59964 0.0
C396 C 0.467 0.59621 0.69736 0.0
C397 C 0.43353 0.55965 0.6913 0.0
C398 C 0.41535 0.54108 0.71967 0.0
C399 C 0.46479 0.5949 0.63308 0.0
C400 C 0.44719 0.57529 0.597 0.0
C401 C 0.43188 0.55792 0.62691 0.0
C402 C 0.44372 0.57276 0.52844 0.0
C403 C 0.48088 0.61502 0.60497 0.0
C404 C 0.42264 0.5662 0.49707 0.0
C405 C 0.41904 0.56351 0.43297 0.0
C406 C 0.4365 0.5676 0.39858 0.0
C407 C 0.45761 0.57423 0.42968 0.0
C408 C 0.46109 0.57643 0.49389 0.0
H409 H 0.48838 0.63054 0.63798 0.0
H410 H 0.49473 0.61294 0.59171 0.0
H411 H 0.47251 0.61714 0.56354 0.0
H412 H 0.40892 0.56325 0.52222 0.0
H413 H 0.40263 0.55846 0.41016 0.0
H414 H 0.88281 0.43336 0.83026 0.0
H415 H 0.89165 0.43808 0.72501 0.0
H416 H 0.83386 0.44341 0.67831 0.0
H417 H 0.82546 0.43955 0.78314 0.0
H418 H 0.86595 0.41082 0.6203 0.0
H419 H 0.88046 0.49516 0.60464 0.0
H420 H 0.87966 0.48459 0.67691 0.0
H421 H 0.8541 0.47712 0.62979 0.0
C422 C 0.87228 0.43602 0.79794 0.0
C423 C 0.85335 0.43595 0.81536 0.0
C424 C 0.87727 0.43858 0.73761 0.0
C425 C 0.86359 0.44139 0.69366 0.0
C426 C 0.84497 0.44175 0.71138 0.0
H427 H 0.84547 0.43618 0.29749 0.0
H428 H 0.84313 0.43931 0.40775 0.0
C429 C 0.84 0.43921 0.77141 0.0
C430 C 0.86774 0.44239 0.62834 0.0
H431 H 0.87381 0.47258 0.50929 0.0
C432 C 0.86795 0.42447 0.59629 0.0
C433 C 0.87023 0.46013 0.59667 0.0
C434 C 0.87133 0.48044 0.62893 0.0
C435 C 0.86992 0.42348 0.53335 0.0
C436 C 0.87202 0.44103 0.5015 0.0
C437 C 0.87207 0.45908 0.53359 0.0
C438 C 0.87424 0.44084 0.43491 0.0
C439 C 0.86907 0.40332 0.50098 0.0
C440 C 0.89282 0.44137 0.41358 0.0
C441 C 0.89427 0.43973 0.35075 0.0
C442 C 0.87718 0.43754 0.30753 0.0
C443 C 0.85899 0.43795 0.32922 0.0
C444 C 0.85757 0.43963 0.3923 0.0
H445 H 0.86224 0.38915 0.52815 0.0
H446 H 0.85867 0.39782 0.45545 0.0
H447 H 0.88624 0.40768 0.49368 0.0
H448 H 0.90613 0.44281 0.4456 0.0
H449 H 0.90876 0.44 0.33603 0.0
H450 H 0.43254 0.88904 0.50517 0.0
H451 H 0.4268 0.88603 0.61239 0.0
H452 H 0.37119 0.89599 0.58003 0.0
H453 H 0.37637 0.89793 0.47131 0.0
H454 H 0.4297 0.91374 0.70129 0.0
H455 H 0.3424 0.84215 0.66355 0.0
H456 H 0.35912 0.85126 0.60202 0.0
H457 H 0.34559 0.86564 0.62894 0.0
C458 C 0.41907 0.89056 0.52097 0.0
C459 C 0.40487 0.89368 0.48003 0.0
C460 C 0.41579 0.88884 0.58232 0.0
C461 C 0.39837 0.89048 0.60456 0.0
C462 C 0.38435 0.89403 0.56387 0.0
H463 H 0.39772 0.90648 1.00561 0.0
H464 H 0.40303 0.9143 0.89961 0.0
C465 C 0.38737 0.89527 0.50188 0.0
C466 C 0.39526 0.88857 0.67039 0.0
H467 H 0.35748 0.85928 0.76571 0.0
C468 C 0.41389 0.9018 0.71535 0.0
C469 C 0.37472 0.87285 0.68896 0.0
C470 C 0.35439 0.85702 0.64335 0.0
C471 C 0.41272 0.89944 0.77784 0.0
C472 C 0.39206 0.88402 0.7965 0.0
C473 C 0.37331 0.87117 0.75167 0.0
C474 C 0.38961 0.87989 0.86154 0.0
C475 C 0.4339 0.91281 0.82259 0.0
C476 C 0.37991 0.85799 0.87565 0.0
C477 C 0.37634 0.85356 0.93563 0.0
C478 C 0.38268 0.87092 0.9832 0.0
C479 C 0.39293 0.8929 0.96971 0.0
C480 C 0.39605 0.89733 0.90924 0.0
H481 H 0.44903 0.91848 0.79925 0.0
H482 H 0.43455 0.92786 0.84479 0.0
H483 H 0.43457 0.90299 0.85879 0.0
H484 H 0.37488 0.84422 0.84003 0.0
H485 H 0.36855 0.83648 0.94493 0.0
H486 H 0.56995 0.38764 0.43898 0.0
H487 H 0.56894 0.38272 0.54766 0.0
H488 H 0.62697 0.44869 0.5965 0.0
H489 H 0.62783 0.45377 0.48835 0.0
H490 H 0.59913 0.38362 0.63485 0.0
H491 H 0.58396 0.45196 0.702 0.0
H492 H 0.58174 0.4415 0.62298 0.0
H493 H 0.60871 0.46087 0.66597 0.0
C494 C 0.58255 0.40102 0.47291 0.0
C495 C 0.5988 0.42119 0.45514 0.0
C496 C 0.58192 0.39824 0.53499 0.0
C497 C 0.59757 0.41554 0.58041 0.0
C498 C 0.61429 0.43537 0.56254 0.0
H499 H 0.6171 0.42349 0.98096 0.0
H500 H 0.62279 0.43041 0.87486 0.0
C501 C 0.6148 0.43823 0.50065 0.0
C502 C 0.59644 0.41281 0.64638 0.0
H503 H 0.5913 0.43525 0.78277 0.0
C504 C 0.59739 0.3949 0.66711 0.0
C505 C 0.59418 0.42755 0.6886 0.0
C506 C 0.59187 0.44642 0.66877 0.0
C507 C 0.5962 0.39137 0.72881 0.0
C508 C 0.59392 0.40608 0.77078 0.0
C509 C 0.59326 0.42414 0.75044 0.0
C510 C 0.59069 0.40208 0.83509 0.0
C511 C 0.59739 0.37195 0.7489 0.0
C512 C 0.57063 0.38411 0.84773 0.0
C513 C 0.56717 0.38028 0.9081 0.0
C514 C 0.58377 0.39428 0.95748 0.0
C515 C 0.60386 0.41244 0.94449 0.0
C516 C 0.60722 0.41636 0.88382 0.0
H517 H 0.60369 0.36494 0.71437 0.0
H518 H 0.6084 0.37705 0.79328 0.0
H519 H 0.58041 0.35859 0.75557 0.0
H520 H 0.55752 0.37313 0.81075 0.0
H521 H 0.55129 0.36644 0.91574 0.0
H522 H 0.2061 0.53383 0.0392 0.0
H523 H 0.23541 0.52489 0.03699 0.0
H524 H 0.28105 0.58612 0.15556 0.0
H525 H 0.25148 0.59448 0.1614 0.0
H526 H 0.27263 0.54627 0.99082 0.0
H527 H 0.29459 0.54455 0.23449 0.0
H528 H 0.26957 0.54435 0.20691 0.0
H529 H 0.29599 0.57027 0.2251 0.0
C530 C 0.22215 0.54509 0.06647 0.0
C531 C 0.22633 0.56491 0.1006 0.0
C532 C 0.23898 0.54003 0.06464 0.0
C533 C 0.2604 0.55465 0.09674 0.0
C534 C 0.26454 0.57426 0.13161 0.0
H535 H 0.3879 0.59032 1.01269 0.0
H536 H 0.34914 0.57996 1.01124 0.0
C537 C 0.24766 0.57922 0.13404 0.0
C538 C 0.27895 0.55052 0.08952 0.0
H539 H 0.32366 0.55263 0.16992 0.0
C540 C 0.28353 0.54723 0.03004 0.0
C541 C 0.29291 0.55115 0.14039 0.0
C542 C 0.28783 0.55251 0.20521 0.0
C543 C 0.3025 0.5461 0.02026 0.0
C544 C 0.31767 0.54903 0.07129 0.0
C545 C 0.31226 0.55074 0.13064 0.0
C546 C 0.34023 0.55278 0.0647 0.0
C547 C 0.30621 0.54212 0.95524 0.0
C548 C 0.34832 0.54095 0.09513 0.0
C549 C 0.37077 0.54709 0.09683 0.0
C550 C 0.38556 0.56529 0.06847 0.0
C551 C 0.37705 0.57622 0.03508 0.0
C552 C 0.35473 0.57018 0.03375 0.0
H553 H 0.29002 0.53172 0.92495 0.0
H554 H 0.31542 0.55833 0.93742 0.0
H555 H 0.31601 0.53377 0.95237 0.0
H556 H 0.33746 0.52748 0.11948 0.0
H557 H 0.37671 0.53824 0.12269 0.0
H558 H 0.63968 0.15959 0.05942 0.0
H559 H 0.67718 0.1927 0.08347 0.0
H560 H 0.68707 0.18797 0.89391 0.0
H561 H 0.64966 0.15462 0.86945 0.0
H562 H 0.72724 0.20275 0.9957 0.0
H563 H 0.68219 0.24905 1.00602 0.0
H564 H 0.67351 0.22619 0.05008 0.0
H565 H 0.66907 0.22084 0.96796 0.0
C566 C 0.65011 0.16512 0.02321 0.0
C567 C 0.64166 0.15464 0.96239 0.0
C568 C 0.67148 0.18408 0.03702 0.0
C569 C 0.68471 0.19277 0.99032 0.0
C570 C 0.67704 0.18143 0.93049 0.0
H571 H 0.78305 0.32526 0.94261 0.0
H572 H 0.7537 0.28598 0.9313 0.0
C573 C 0.65565 0.16251 0.91656 0.0
C574 C 0.70497 0.21522 1.00189 0.0
H575 H 0.7214 0.27025 0.02192 0.0
C576 C 0.72608 0.21755 1.00196 0.0
C577 C 0.70321 0.23438 1.00933 0.0
C578 C 0.68082 0.23268 1.00807 0.0
C579 C 0.74559 0.23877 1.00923 0.0
C580 C 0.74375 0.25788 0.01625 0.0
C581 C 0.72266 0.25548 0.0166 0.0
C582 C 0.76332 0.28067 0.02086 0.0
C583 C 0.76798 0.24073 1.00781 0.0
C584 C 0.77856 0.29052 0.0748 0.0
C585 C 0.7954 0.31302 0.08147 0.0
C586 C 0.79721 0.32594 0.03421 0.0
C587 C 0.78232 0.31572 0.9795 0.0
C588 C 0.76547 0.29331 0.97304 0.0
H589 H 0.76633 0.22433 0.9948 0.0
H590 H 0.77737 0.25216 0.97489 0.0
H591 H 0.77798 0.24796 0.05384 0.0
H592 H 0.77697 0.28103 0.11243 0.0
H593 H 0.80674 0.3204 0.12395 0.0
H594 H 0.48421 0.6864 0.19679 0.0
H595 H 0.48566 0.72198 0.20622 0.0
H596 H 0.42936 0.69461 0.30778 0.0
H597 H 0.42821 0.6592 0.30016 0.0
H598 H 0.45063 0.726 0.15747 0.0
H599 H 0.47152 0.75592 0.40649 0.0
H600 H 0.47628 0.73482 0.37186 0.0
H601 H 0.44884 0.72755 0.38872 0.0
C602 C 0.47256 0.68816 0.22271 0.0
C603 C 0.45605 0.66998 0.24765 0.0
C604 C 0.47334 0.70846 0.22773 0.0
C605 C 0.45778 0.71098 0.25821 0.0
C606 C 0.4418 0.69314 0.28507 0.0
H607 H 0.40046 0.79121 0.28636 0.0
H608 H 0.41341 0.76509 0.29367 0.0
C609 C 0.44098 0.67283 0.28003 0.0
C610 C 0.45656 0.7313 0.25612 0.0
H611 H 0.45464 0.77182 0.34588 0.0
C612 C 0.45191 0.73631 0.19857 0.0
C613 C 0.45823 0.74462 0.30986 0.0
C614 C 0.46421 0.74061 0.37272 0.0
C615 C 0.44765 0.75358 0.19335 0.0
C616 C 0.44848 0.76638 0.24721 0.0
C617 C 0.45401 0.76193 0.30471 0.0
C618 C 0.44171 0.7831 0.24493 0.0
C619 C 0.44112 0.75719 0.13046 0.0
C620 C 0.45355 0.80204 0.21578 0.0
C621 C 0.44601 0.81691 0.21084 0.0
C622 C 0.42658 0.81307 0.23524 0.0
C623 C 0.41521 0.7944 0.26598 0.0
C624 C 0.42271 0.77957 0.27076 0.0
H625 H 0.43709 0.74318 0.0948 0.0
H626 H 0.42642 0.75923 0.13007 0.0
H627 H 0.45522 0.77264 0.11786 0.0
H628 H 0.46844 0.80518 0.19631 0.0
H629 H 0.4551 0.8311 0.18675 0.0
H630 H 0.77916 0.40745 0.15221 0.0
H631 H 0.75443 0.42195 0.16355 0.0
H632 H 0.79897 0.47998 0.08292 0.0
H633 H 0.82426 0.46557 0.07228 0.0
H634 H 0.7781 0.48808 0.1849 0.0
H635 H 0.71699 0.42029 1.00561 0.0
H636 H 0.72668 0.40982 0.0645 0.0
H637 H 0.74609 0.42847 0.0178 0.0
C638 C 0.78394 0.4235 0.13793 0.0
C639 C 0.80347 0.43529 0.1108 0.0
C640 C 0.76976 0.43172 0.14419 0.0
C641 C 0.7746 0.45172 0.12256 0.0
C642 C 0.79488 0.4644 0.09931 0.0
H643 H 0.64765 0.44551 0.11419 0.0
H644 H 0.68374 0.45817 0.07716 0.0
C645 C 0.80932 0.45622 0.09357 0.0
C646 C 0.75747 0.45811 0.12138 0.0
H647 H 0.70172 0.435 0.07725 0.0
C648 C 0.7615 0.47685 0.16026 0.0
C649 C 0.73607 0.44396 0.08743 0.0
C650 C 0.73125 0.42465 0.04094 0.0
C651 C 0.74397 0.48044 0.1709 0.0
C652 C 0.72187 0.46447 0.14334 0.0
C653 C 0.71848 0.44714 0.09941 0.0
C654 C 0.70179 0.4629 0.16652 0.0
C655 C 0.74926 0.50089 0.21306 0.0
C656 C 0.70001 0.46217 0.22928 0.0
C657 C 0.67956 0.45526 0.25051 0.0
C658 C 0.66021 0.44838 0.20936 0.0
C659 C 0.66221 0.4506 0.14707 0.0
C660 C 0.68286 0.45783 0.12585 0.0
H661 H 0.76567 0.51532 0.20653 0.0
H662 H 0.73625 0.50533 0.20523 0.0
H663 H 0.75058 0.49787 0.26136 0.0
H664 H 0.71401 0.46528 0.26163 0.0
H665 H 0.67869 0.45391 0.29887 0.0
H666 H 0.23113 0.65461 0.99121 0.0
H667 H 0.25507 0.69329 0.03902 0.0
H668 H 0.19748 0.69331 0.09517 0.0
H669 H 0.1735 0.65443 0.0486 0.0
H670 H 0.25758 0.73282 0.02915 0.0
H671 H 0.23586 0.70732 0.25797 0.0
H672 H 0.228 0.6874 0.19054 0.0
H673 H 0.21239 0.70086 0.20335 0.0
C674 C 0.22349 0.66297 1.01261 0.0
C675 C 0.20049 0.65139 0.01707 0.0
C676 C 0.23721 0.68507 0.04014 0.0
C677 C 0.22814 0.69597 0.07218 0.0
C678 C 0.20492 0.685 0.07232 0.0
H679 H 0.31855 0.8372 0.21978 0.0
H680 H 0.28463 0.80294 0.1711 0.0
C681 C 0.19123 0.66284 0.04538 0.0
C682 C 0.24321 0.71823 0.10839 0.0
H683 H 0.26067 0.74551 0.25478 0.0
C684 C 0.25814 0.73569 0.0784 0.0
C685 C 0.24411 0.72179 0.17285 0.0
C686 C 0.2294 0.70333 0.20829 0.0
C687 C 0.27426 0.7565 0.11115 0.0
C688 C 0.27503 0.76012 0.17555 0.0
C689 C 0.2598 0.74279 0.20537 0.0
C690 C 0.29303 0.78092 0.21328 0.0
C691 C 0.291 0.77403 0.0768 0.0
C692 C 0.30808 0.77993 0.25673 0.0
C693 C 0.32723 0.79944 0.28541 0.0
C694 C 0.33176 0.82031 0.27073 0.0
C695 C 0.31564 0.82135 0.23143 0.0
C696 C 0.29637 0.80179 0.20312 0.0
H697 H 0.29118 0.7669 0.03031 0.0
H698 H 0.28656 0.78692 0.07144 0.0
H699 H 0.30813 0.78231 0.10231 0.0
H700 H 0.30572 0.764 0.26573 0.0
H701 H 0.33924 0.798 0.31551 0.0
H702 H 0.52405 0.13936 0.9803 0.0
H703 H 0.53199 0.17325 0.04394 0.0
H704 H 0.56533 0.21223 0.90288 0.0
H705 H 0.55798 0.17846 0.83961 0.0
H706 H 0.59097 0.22707 0.02051 0.0
H707 H 0.50609 0.21394 0.03005 0.0
H708 H 0.5095 0.19133 0.04872 0.0
H709 H 0.5118 0.19856 0.97229 0.0
C710 C 0.53289 0.15513 0.9626 0.0
C711 C 0.54067 0.15631 0.90534 0.0
C712 C 0.53723 0.17444 0.9988 0.0
C713 C 0.54918 0.19521 0.97801 0.0
C714 C 0.55606 0.19631 0.91966 0.0
H715 H 0.60304 0.33246 0.09464 0.0
H716 H 0.59339 0.29576 0.04809 0.0
C717 C 0.55173 0.177 0.88343 0.0
C718 C 0.55605 0.21597 0.01877 0.0
H719 H 0.5362 0.24552 0.09221 0.0
C720 C 0.57899 0.2311 0.03626 0.0
C721 C 0.54037 0.22098 0.03996 0.0
C722 C 0.51555 0.20547 0.02155 0.0
C723 C 0.58672 0.25133 0.07359 0.0
C724 C 0.57109 0.25669 0.09311 0.0
C725 C 0.54812 0.24128 0.07728 0.0
C726 C 0.57828 0.27908 0.12466 0.0
C727 C 0.61157 0.26685 0.09155 0.0
C728 C 0.57284 0.28188 0.18326 0.0
C729 C 0.5786 0.30308 0.21068 0.0
C730 C 0.58971 0.32174 0.1796 0.0
C731 C 0.59519 0.31871 0.12101 0.0
C732 C 0.58955 0.29765 0.09397 0.0
H733 H 0.62067 0.25776 0.089 0.0
H734 H 0.61799 0.27948 0.05952 0.0
H735 H 0.61538 0.27571 0.13874 0.0
H736 H 0.56399 0.26766 0.20744 0.0
H737 H 0.57412 0.30481 0.25576 0.0
loop_
_geom_bond_atom_site_label_1
_geom_bond_atom_site_label_2
_geom_bond_distance
_geom_bond_site_symmetry_2
_ccdc_geom_bond_type
C0 C1 1.351 . S
C0 N3 1.368 . S
C0 H5 0.931 . S
C1 C0 1.351 . S
C1 N2 1.373 . S
C1 H29 0.930 . S
N2 C1 1.373 . S
N2 C4 1.340 . S
N3 C0 1.368 . S
N3 C4 1.321 . S
N3 Co6 2.135 1_556 S
C4 N2 1.340 . S
C4 N3 1.321 . S
C4 H28 0.930 . S
H5 C0 0.931 . S
Co6 N3 2.135 1_554 S
Co6 N9 2.121 . S
Co6 O14 2.055 . S
Co6 O17 2.039 . S
Co6 N20 2.140 . S
C7 O8 1.227 . S
C7 O17 1.265 . S
O8 C7 1.227 . S
N9 Co6 2.121 . S
N9 C11 1.375 . S
N9 C12 1.313 . S
C10 C11 1.338 . S
C10 N13 1.377 . S
C10 H30 0.930 . S
C11 N9 1.375 . S
C11 C10 1.338 . S
C11 H15 0.931 . S
C12 N9 1.313 . S
C12 N13 1.344 . S
C12 H16 0.930 . S
N13 C10 1.377 . S
N13 C12 1.344 . S
O14 Co6 2.055 . S
O14 C18 1.253 . S
H15 C11 0.931 . S
H16 C12 0.930 . S
O17 Co6 2.039 . S
O17 C7 1.265 . S
C18 O14 1.253 . S
C18 O19 1.227 . S
O19 C18 1.227 . S
N20 Co6 2.140 . S
N20 C23 1.346 . S
N20 C24 1.345 . S
C21 C22 1.387 . S
C21 C25 1.391 . S
C22 C21 1.387 . S
C22 C23 1.369 . S
C22 H31 0.929 1_554 S
C23 N20 1.346 . S
C23 C22 1.369 . S
C23 H26 0.928 1_554 S
C24 N20 1.345 . S
C24 C25 1.371 . S
C24 H27 0.931 . S
C25 C21 1.391 . S
C25 C24 1.371 . S
C25 H32 0.930 . S
H26 C23 0.928 1_556 S
H27 C24 0.931 . S
H28 C4 0.930 . S
H29 C1 0.930 . S
H30 C10 0.930 . S
H31 C22 0.929 1_556 S
H32 C25 0.930 . S
C33 C34 1.351 . S
C33 N36 1.368 . S
C33 H38 0.931 . S
C34 C33 1.351 . S
C34 N35 1.373 . S
C34 H62 0.930 . S
N35 C34 1.373 . S
N35 C37 1.340 . S
N36 C33 1.368 . S
N36 C37 1.321 . S
N36 Co39 2.135 1_556 S
C37 N35 1.340 . S
C37 N36 1.321 . S
C37 H61 0.930 . S
H38 C33 0.931 . S
Co39 N36 2.135 1_554 S
Co39 N42 2.121 . S
Co39 O47 2.055 . S
Co39 O50 2.039 . S
Co39 N53 2.140 . S
C40 O41 1.227 . S
C40 O50 1.265 . S
O41 C40 1.227 . S
N42 Co39 2.121 . S
N42 C44 1.375 . S
N42 C45 1.313 . S
C43 C44 1.338 . S
C43 N46 1.377 . S
C43 H63 0.930 . S
C44 N42 1.375 . S
C44 C43 1.338 . S
C44 H48 0.931 . S
C45 N42 1.313 . S
C45 N46 1.344 . S
C45 H49 0.930 . S
N46 C43 1.377 . S
N46 C45 1.344 . S
O47 Co39 2.055 . S
O47 C51 1.253 . S
H48 C44 0.931 . S
H49 C45 0.930 . S
O50 Co39 2.039 . S
O50 C40 1.265 . S
C51 O47 1.253 . S
C51 O52 1.227 . S
O52 C51 1.227 . S
N53 Co39 2.140 . S
N53 C56 1.346 . S
N53 C57 1.345 . S
C54 C55 1.387 . S
C54 C58 1.391 . S
C55 C54 1.387 . S
C55 C56 1.369 . S
C55 H64 0.929 1_554 S
C56 N53 1.346 . S
C56 C55 1.369 . S
C56 H59 0.928 1_554 S
C57 N53 1.345 . S
C57 C58 1.371 . S
C57 H60 0.931 . S
C58 C54 1.391 . S
C58 C57 1.371 . S
C58 H65 0.930 . S
H59 C56 0.928 1_556 S
H60 C57 0.931 . S
H61 C37 0.930 . S
H62 C34 0.930 . S
H63 C43 0.930 . S
H64 C55 0.929 1_556 S
H65 C58 0.930 . S
C66 C67 1.351 . S
C66 N69 1.368 1_556 S
C66 H71 0.931 1_556 S
C67 C66 1.351 . S
C67 N68 1.373 . S
C67 H95 0.930 . S
N68 C67 1.373 . S
N68 C70 1.340 . S
N69 C66 1.368 1_554 S
N69 C70 1.321 1_554 S
N69 Co72 2.135 . S
C70 N68 1.340 . S
C70 N69 1.321 1_556 S
C70 H94 0.930 . S
H71 C66 0.931 1_554 S
Co72 N69 2.135 . S
Co72 N75 2.121 . S
Co72 O80 2.055 . S
Co72 O83 2.039 . S
Co72 N86 2.140 . S
C73 O74 1.227 . S
C73 O83 1.265 . S
O74 C73 1.227 . S
N75 Co72 2.121 . S
N75 C77 1.375 . S
N75 C78 1.313 . S
C76 C77 1.338 . S
C76 N79 1.377 . S
C76 H96 0.930 . S
C77 N75 1.375 . S
C77 C76 1.338 . S
C77 H81 0.931 . S
C78 N75 1.313 . S
C78 N79 1.344 . S
C78 H82 0.930 . S
N79 C76 1.377 . S
N79 C78 1.344 . S
O80 Co72 2.055 . S
O80 C84 1.253 . S
H81 C77 0.931 . S
H82 C78 0.930 . S
O83 Co72 2.039 . S
O83 C73 1.265 . S
C84 O80 1.253 . S
C84 O85 1.227 . S
O85 C84 1.227 . S
N86 Co72 2.140 . S
N86 C89 1.346 . S
N86 C90 1.345 . S
C87 C88 1.387 . S
C87 C91 1.391 . S
C88 C87 1.387 . S
C88 C89 1.369 . S
C88 H97 0.929 . S
C89 N86 1.346 . S
C89 C88 1.369 . S
C89 H92 0.928 . S
C90 N86 1.345 . S
C90 C91 1.371 . S
C90 H93 0.931 . S
C91 C87 1.391 . S
C91 C90 1.371 . S
C91 H98 0.930 . S
H92 C89 0.928 . S
H93 C90 0.931 . S
H94 C70 0.930 . S
H95 C67 0.930 . S
H96 C76 0.930 . S
H97 C88 0.929 . S
H98 C91 0.930 . S
C99 C100 1.351 . S
C99 N102 1.368 . S
C99 H104 0.931 . S
C100 C99 1.351 . S
C100 N101 1.373 . S
C100 H128 0.930 . S
N101 C100 1.373 . S
N101 C103 1.340 . S
N102 C99 1.368 . S
N102 C103 1.321 . S
N102 Co105 2.135 . S
C103 N101 1.340 . S
C103 N102 1.321 . S
C103 H127 0.930 . S
H104 C99 0.931 . S
Co105 N102 2.135 . S
Co105 N108 2.121 . S
Co105 O113 2.055 . S
Co105 O116 2.039 . S
Co105 N119 2.140 . S
C106 O107 1.227 . S
C106 O116 1.265 . S
O107 C106 1.227 . S
N108 Co105 2.121 . S
N108 C110 1.375 1_554 S
N108 C111 1.313 1_554 S
C109 C110 1.338 . S
C109 N112 1.377 . S
C109 H129 0.930 . S
C110 N108 1.375 1_556 S
C110 C109 1.338 . S
C110 H114 0.931 1_556 S
C111 N108 1.313 1_556 S
C111 N112 1.344 . S
C111 H115 0.930 . S
N112 C109 1.377 . S
N112 C111 1.344 . S
O113 Co105 2.055 . S
O113 C117 1.253 . S
H114 C110 0.931 1_554 S
H115 C111 0.930 . S
O116 Co105 2.039 . S
O116 C106 1.265 . S
C117 O113 1.253 . S
C117 O118 1.227 . S
O118 C117 1.227 . S
N119 Co105 2.140 . S
N119 C122 1.346 . S
N119 C123 1.345 . S
C120 C121 1.387 . S
C120 C124 1.391 . S
C121 C120 1.387 . S
C121 C122 1.369 . S
C121 H130 0.929 . S
C122 N119 1.346 . S
C122 C121 1.369 . S
C122 H125 0.928 . S
C123 N119 1.345 . S
C123 C124 1.371 . S
C123 H126 0.931 . S
C124 C120 1.391 . S
C124 C123 1.371 . S
C124 H131 0.930 . S
H125 C122 0.928 . S
H126 C123 0.931 . S
H127 C103 0.930 . S
H128 C100 0.930 . S
H129 C109 0.930 . S
H130 C121 0.929 . S
H131 C124 0.930 . S
C132 C133 1.351 . S
C132 N135 1.368 . S
C132 H137 0.931 . S
C133 C132 1.351 . S
C133 N134 1.373 . S
C133 H161 0.930 . S
N134 C133 1.373 . S
N134 C136 1.340 . S
N135 C132 1.368 . S
N135 C136 1.321 . S
N135 Co138 2.135 . S
C136 N134 1.340 . S
C136 N135 1.321 . S
C136 H160 0.930 . S
H137 C132 0.931 . S
Co138 N135 2.135 . S
Co138 N141 2.121 . S
Co138 O146 2.055 . S
Co138 O149 2.039 . S
Co138 N152 2.140 . S
C139 O140 1.227 . S
C139 O149 1.265 . S
O140 C139 1.227 . S
N141 Co138 2.121 . S
N141 C143 1.375 1_554 S
N141 C144 1.313 1_554 S
C142 C143 1.338 . S
C142 N145 1.377 . S
C142 H162 0.930 . S
C143 N141 1.375 1_556 S
C143 C142 1.338 . S
C143 H147 0.931 . S
C144 N141 1.313 1_556 S
C144 N145 1.344 . S
C144 H148 0.930 . S
N145 C142 1.377 . S
N145 C144 1.344 . S
O146 Co138 2.055 . S
O146 C150 1.253 . S
H147 C143 0.931 . S
H148 C144 0.930 . S
O149 Co138 2.039 . S
O149 C139 1.265 . S
C150 O146 1.253 . S
C150 O151 1.227 . S
O151 C150 1.227 . S
N152 Co138 2.140 . S
N152 C155 1.346 . S
N152 C156 1.345 . S
C153 C154 1.387 . S
C153 C157 1.391 . S
C154 C153 1.387 . S
C154 C155 1.369 . S
C154 H163 0.929 . S
C155 N152 1.346 . S
C155 C154 1.369 . S
C155 H158 0.928 . S
C156 N152 1.345 . S
C156 C157 1.371 . S
C156 H159 0.931 . S
C157 C153 1.391 . S
C157 C156 1.371 . S
C157 H164 0.930 . S
H158 C155 0.928 . S
H159 C156 0.931 . S
H160 C136 0.930 . S
H161 C133 0.930 . S
H162 C142 0.930 . S
H163 C154 0.929 . S
H164 C157 0.930 . S
C165 C166 1.351 . S
C165 N168 1.368 1_556 S
C165 H170 0.931 1_556 S
C166 C165 1.351 . S
C166 N167 1.373 . S
C166 H194 0.930 . S
N167 C166 1.373 . S
N167 C169 1.340 . S
N168 C165 1.368 1_554 S
N168 C169 1.321 1_554 S
N168 Co171 2.135 . S
C169 N167 1.340 . S
C169 N168 1.321 1_556 S
C169 H193 0.930 . S
H170 C165 0.931 1_554 S
Co171 N168 2.135 . S
Co171 N174 2.121 . S
Co171 O179 2.055 . S
Co171 O182 2.039 . S
Co171 N185 2.140 . S
C172 O173 1.227 . S
C172 O182 1.265 . S
O173 C172 1.227 . S
N174 Co171 2.121 . S
N174 C176 1.375 . S
N174 C177 1.313 . S
C175 C176 1.338 . S
C175 N178 1.377 . S
C175 H195 0.930 . S
C176 N174 1.375 . S
C176 C175 1.338 . S
C176 H180 0.931 . S
C177 N174 1.313 . S
C177 N178 1.344 . S
C177 H181 0.930 . S
N178 C175 1.377 . S
N178 C177 1.344 . S
O179 Co171 2.055 . S
O179 C183 1.253 . S
H180 C176 0.931 . S
H181 C177 0.930 . S
O182 Co171 2.039 . S
O182 C172 1.265 . S
C183 O179 1.253 . S
C183 O184 1.227 . S
O184 C183 1.227 . S
N185 Co171 2.140 . S
N185 C188 1.346 . S
N185 C189 1.345 . S
C186 C187 1.387 . S
C186 C190 1.391 . S
C187 C186 1.387 . S
C187 C188 1.369 . S
C187 H196 0.929 . S
C188 N185 1.346 . S
C188 C187 1.369 . S
C188 H191 0.928 . S
C189 N185 1.345 . S
C189 C190 1.371 . S
C189 H192 0.931 . S
C190 C186 1.391 . S
C190 C189 1.371 . S
C190 H197 0.930 . S
H191 C188 0.928 . S
H192 C189 0.931 . S
H193 C169 0.930 . S
H194 C166 0.930 . S
H195 C175 0.930 . S
H196 C187 0.929 . S
H197 C190 0.930 . S
H198 C206 0.929 1_556 S
H199 C208 0.930 . S
H200 C210 0.930 . S
H201 C213 0.929 . S
H202 C216 0.930 . S
H203 C218 0.960 . S
H204 C218 0.960 1_556 S
H205 C218 0.960 . S
C206 H198 0.929 1_554 S
C206 C207 1.377 . S
C206 C208 1.384 . S
C207 C206 1.377 . S
C207 C213 1.390 . S
C208 H199 0.930 . S
C208 C206 1.384 . S
C208 C209 1.372 . S
C209 C208 1.372 . S
C209 C210 1.400 . S
C209 C214 1.490 . S
C210 H200 0.930 . S
C210 C209 1.400 . S
C210 C213 1.386 . S
H211 C227 0.930 . S
H212 C228 0.931 . S
C213 H201 0.929 . S
C213 C207 1.390 . S
C213 C210 1.386 . S
C214 C209 1.490 . S
C214 C216 1.395 . S
C214 C217 1.403 . S
H215 C221 0.930 . S
C216 H202 0.930 . S
C216 C214 1.395 . S
C216 C219 1.403 1_455 S
C217 C214 1.403 . S
C217 C218 1.524 . S
C217 C221 1.400 1_455 S
C218 H203 0.960 . S
C218 H204 0.960 1_554 S
C218 H205 0.960 . S
C218 C217 1.524 . S
C219 C216 1.403 1_655 S
C219 C220 1.392 . S
C219 C223 1.495 . S
C220 C219 1.392 . S
C220 C221 1.385 . S
C220 C222 1.478 . S
C221 H215 0.930 . S
C221 C217 1.400 1_655 S
C221 C220 1.385 . S
C222 C220 1.478 . S
C222 C224 1.381 . S
C222 C228 1.383 . S
C223 C219 1.495 . S
C223 H229 0.959 . S
C223 H230 0.961 . S
C223 H231 0.960 . S
C224 C222 1.381 . S
C224 C225 1.394 . S
C224 H232 0.930 . S
C225 C224 1.394 . S
C225 C226 1.383 . S
C225 H233 0.929 . S
C226 C225 1.383 . S
C226 C227 1.377 . S
C227 H211 0.930 . S
C227 C226 1.377 . S
C227 C228 1.379 . S
C228 H212 0.931 . S
C228 C222 1.383 . S
C228 C227 1.379 . S
H229 C223 0.959 . S
H230 C223 0.961 . S
H231 C223 0.960 . S
H232 C224 0.930 . S
H233 C225 0.929 . S
H234 C242 0.929 . S
H235 C244 0.930 1_556 S
H236 C246 0.930 . S
H237 C249 0.929 . S
H238 C252 0.930 . S
H239 C254 0.960 . S
H240 C254 0.960 . S
H241 C254 0.960 . S
C242 H234 0.929 . S
C242 C243 1.377 . S
C242 C244 1.384 . S
C243 C242 1.377 . S
C243 C249 1.390 . S
C244 H235 0.930 1_554 S
C244 C242 1.384 . S
C244 C245 1.372 . S
C245 C244 1.372 . S
C245 C246 1.400 . S
C245 C250 1.490 . S
C246 H236 0.930 . S
C246 C245 1.400 . S
C246 C249 1.386 . S
H247 C263 0.930 . S
H248 C264 0.931 . S
C249 H237 0.929 . S
C249 C243 1.390 . S
C249 C246 1.386 . S
C250 C245 1.490 . S
C250 C252 1.395 . S
C250 C253 1.403 . S
H251 C257 0.930 . S
C252 H238 0.930 . S
C252 C250 1.395 . S
C252 C255 1.403 1_565 S
C253 C250 1.403 . S
C253 C254 1.524 . S
C253 C257 1.400 1_565 S
C254 H239 0.960 . S
C254 H240 0.960 . S
C254 H241 0.960 . S
C254 C253 1.524 . S
C255 C252 1.403 1_545 S
C255 C256 1.392 . S
C255 C259 1.495 . S
C256 C255 1.392 . S
C256 C257 1.385 . S
C256 C258 1.478 . S
C257 H251 0.930 . S
C257 C253 1.400 1_545 S
C257 C256 1.385 . S
C258 C256 1.478 . S
C258 C260 1.381 1_554 S
C258 C264 1.383 . S
C259 C255 1.495 . S
C259 H265 0.959 1_544 S
C259 H266 0.961 . S
C259 H267 0.960 1_554 S
C260 C258 1.381 1_556 S
C260 C261 1.394 . S
C260 H268 0.930 . S
C261 C260 1.394 . S
C261 C262 1.383 1_556 S
C261 H269 0.929 . S
C262 C261 1.383 1_554 S
C262 C263 1.377 . S
C263 H247 0.930 . S
C263 C262 1.377 . S
C263 C264 1.379 . S
C264 H248 0.931 . S
C264 C258 1.383 . S
C264 C263 1.379 . S
H265 C259 0.959 1_566 S
H266 C259 0.961 . S
H267 C259 0.960 1_556 S
H268 C260 0.930 . S
H269 C261 0.929 . S
H270 C278 0.929 . S
H271 C280 0.930 . S
H272 C282 0.930 . S
H273 C285 0.929 . S
H274 C288 0.930 . S
H275 C290 0.960 . S
H276 C290 0.960 . S
H277 C290 0.960 . S
C278 H270 0.929 . S
C278 C279 1.377 . S
C278 C280 1.384 . S
C279 C278 1.377 . S
C279 C285 1.390 . S
C280 H271 0.930 . S
C280 C278 1.384 . S
C280 C281 1.372 . S
C281 C280 1.372 . S
C281 C282 1.400 . S
C281 C286 1.490 . S
C282 H272 0.930 . S
C282 C281 1.400 . S
C282 C285 1.386 . S
H283 C299 0.930 . S
H284 C300 0.931 . S
C285 H273 0.929 . S
C285 C279 1.390 . S
C285 C282 1.386 . S
C286 C281 1.490 . S
C286 C288 1.395 . S
C286 C289 1.403 . S
H287 C293 0.930 . S
C288 H274 0.930 . S
C288 C286 1.395 . S
C288 C291 1.403 . S
C289 C286 1.403 . S
C289 C290 1.524 . S
C289 C293 1.400 . S
C290 H275 0.960 . S
C290 H276 0.960 . S
C290 H277 0.960 . S
C290 C289 1.524 . S
C291 C288 1.403 . S
C291 C292 1.392 . S
C291 C295 1.495 . S
C292 C291 1.392 . S
C292 C293 1.385 . S
C292 C294 1.478 . S
C293 H287 0.930 . S
C293 C289 1.400 . S
C293 C292 1.385 . S
C294 C292 1.478 . S
C294 C296 1.381 . S
C294 C300 1.383 . S
C295 C291 1.495 . S
C295 H301 0.959 . S
C295 H302 0.961 . S
C295 H303 0.960 . S
C296 C294 1.381 . S
C296 C297 1.394 . S
C296 H304 0.930 . S
C297 C296 1.394 . S
C297 C298 1.383 . S
C297 H305 0.929 . S
C298 C297 1.383 . S
C298 C299 1.377 . S
C299 H283 0.930 . S
C299 C298 1.377 . S
C299 C300 1.379 . S
C300 H284 0.931 . S
C300 C294 1.383 . S
C300 C299 1.379 . S
H301 C295 0.959 . S
H302 C295 0.961 . S
H303 C295 0.960 . S
H304 C296 0.930 . S
H305 C297 0.929 . S
H306 C314 0.929 . S
H307 C316 0.930 . S
H308 C318 0.930 . S
H309 C321 0.929 . S
H310 C324 0.930 . S
H311 C326 0.960 . S
H312 C326 0.960 . S
H313 C326 0.960 . S
C314 H306 0.929 . S
C314 C315 1.377 . S
C314 C316 1.384 . S
C315 C314 1.377 . S
C315 C321 1.390 . S
C316 H307 0.930 . S
C316 C314 1.384 . S
C316 C317 1.372 . S
C317 C316 1.372 . S
C317 C318 1.400 . S
C317 C322 1.490 . S
C318 H308 0.930 . S
C318 C317 1.400 . S
C318 C321 1.386 . S
H319 C335 0.930 . S
H320 C336 0.931 . S
C321 H309 0.929 . S
C321 C315 1.390 . S
C321 C318 1.386 . S
C322 C317 1.490 . S
C322 C324 1.395 . S
C322 C325 1.403 . S
H323 C329 0.930 . S
C324 H310 0.930 . S
C324 C322 1.395 . S
C324 C327 1.403 . S
C325 C322 1.403 . S
C325 C326 1.524 . S
C325 C329 1.400 . S
C326 H311 0.960 . S
C326 H312 0.960 . S
C326 H313 0.960 . S
C326 C325 1.524 . S
C327 C324 1.403 . S
C327 C328 1.392 . S
C327 C331 1.495 . S
C328 C327 1.392 . S
C328 C329 1.385 . S
C328 C330 1.478 . S
C329 H323 0.930 . S
C329 C325 1.400 . S
C329 C328 1.385 . S
C330 C328 1.478 . S
C330 C332 1.381 . S
C330 C336 1.383 . S
C331 C327 1.495 . S
C331 H337 0.959 . S
C331 H338 0.961 . S
C331 H339 0.960 . S
C332 C330 1.381 . S
C332 C333 1.394 . S
C332 H340 0.930 . S
C333 C332 1.394 . S
C333 C334 1.383 . S
C333 H341 0.929 . S
C334 C333 1.383 . S
C334 C335 1.377 . S
C335 H319 0.930 . S
C335 C334 1.377 . S
C335 C336 1.379 . S
C336 H320 0.931 . S
C336 C330 1.383 . S
C336 C335 1.379 . S
H337 C331 0.959 . S
H338 C331 0.961 . S
H339 C331 0.960 . S
H340 C332 0.930 . S
H341 C333 0.929 . S
H342 C350 0.929 . S
H343 C352 0.930 . S
H344 C354 0.930 . S
H345 C357 0.929 . S
H346 C360 0.930 . S
H347 C362 0.960 . S
H348 C362 0.960 . S
H349 C362 0.960 . S
C350 H342 0.929 . S
C350 C351 1.377 . S
C350 C352 1.384 . S
C351 C350 1.377 . S
C351 C357 1.390 . S
C352 H343 0.930 . S
C352 C350 1.384 . S
C352 C353 1.372 . S
C353 C352 1.372 . S
C353 C354 1.400 . S
C353 C358 1.490 . S
C354 H344 0.930 . S
C354 C353 1.400 . S
C354 C357 1.386 . S
H355 C371 0.930 . S
H356 C372 0.931 . S
C357 H345 0.929 . S
C357 C351 1.390 . S
C357 C354 1.386 . S
C358 C353 1.490 . S
C358 C360 1.395 . S
C358 C361 1.403 . S
H359 C365 0.930 . S
C360 H346 0.930 . S
C360 C358 1.395 . S
C360 C363 1.403 . S
C361 C358 1.403 . S
C361 C362 1.524 . S
C361 C365 1.400 . S
C362 H347 0.960 . S
C362 H348 0.960 . S
C362 H349 0.960 . S
C362 C361 1.524 . S
C363 C360 1.403 . S
C363 C364 1.392 . S
C363 C367 1.495 . S
C364 C363 1.392 . S
C364 C365 1.385 . S
C364 C366 1.478 . S
C365 H359 0.930 . S
C365 C361 1.400 . S
C365 C364 1.385 . S
C366 C364 1.478 . S
C366 C368 1.381 . S
C366 C372 1.383 . S
C367 C363 1.495 . S
C367 H373 0.959 . S
C367 H374 0.961 . S
C367 H375 0.960 . S
C368 C366 1.381 . S
C368 C369 1.394 . S
C368 H376 0.930 . S
C369 C368 1.394 . S
C369 C370 1.383 . S
C369 H377 0.929 . S
C370 C369 1.383 . S
C370 C371 1.377 . S
C371 H355 0.930 . S
C371 C370 1.377 . S
C371 C372 1.379 . S
C372 H356 0.931 . S
C372 C366 1.383 . S
C372 C371 1.379 . S
H373 C367 0.959 . S
H374 C367 0.961 . S
H375 C367 0.960 . S
H376 C368 0.930 . S
H377 C369 0.929 . S
H378 C386 0.929 . S
H379 C388 0.930 . S
H380 C390 0.930 . S
H381 C393 0.929 . S
H382 C396 0.930 . S
H383 C398 0.960 . S
H384 C398 0.960 . S
H385 C398 0.960 . S
C386 H378 0.929 . S
C386 C387 1.377 . S
C386 C388 1.384 . S
C387 C386 1.377 . S
C387 C393 1.390 . S
C388 H379 0.930 . S
C388 C386 1.384 . S
C388 C389 1.372 . S
C389 C388 1.372 . S
C389 C390 1.400 . S
C389 C394 1.490 . S
C390 H380 0.930 . S
C390 C389 1.400 . S
C390 C393 1.386 . S
H391 C407 0.930 . S
H392 C408 0.931 . S
C393 H381 0.929 . S
C393 C387 1.390 . S
C393 C390 1.386 . S
C394 C389 1.490 . S
C394 C396 1.395 . S
C394 C397 1.403 . S
H395 C401 0.930 . S
C396 H382 0.930 . S
C396 C394 1.395 . S
C396 C399 1.403 . S
C397 C394 1.403 . S
C397 C398 1.524 . S
C397 C401 1.400 . S
C398 H383 0.960 . S
C398 H384 0.960 . S
C398 H385 0.960 . S
C398 C397 1.524 . S
C399 C396 1.403 . S
C399 C400 1.392 . S
C399 C403 1.495 . S
C400 C399 1.392 . S
C400 C401 1.385 . S
C400 C402 1.478 . S
C401 H395 0.930 . S
C401 C397 1.400 . S
C401 C400 1.385 . S
C402 C400 1.478 . S
C402 C404 1.381 . S
C402 C408 1.383 . S
C403 C399 1.495 . S
C403 H409 0.959 . S
C403 H410 0.961 . S
C403 H411 0.960 . S
C404 C402 1.381 . S
C404 C405 1.394 . S
C404 H412 0.930 . S
C405 C404 1.394 . S
C405 C406 1.383 . S
C405 H413 0.929 . S
C406 C405 1.383 . S
C406 C407 1.377 . S
C407 H391 0.930 . S
C407 C406 1.377 . S
C407 C408 1.379 . S
C408 H392 0.931 . S
C408 C402 1.383 . S
C408 C407 1.379 . S
H409 C403 0.959 . S
H410 C403 0.961 . S
H411 C403 0.960 . S
H412 C404 0.930 . S
H413 C405 0.929 . S
H414 C422 0.929 . S
H415 C424 0.930 . S
H416 C426 0.930 . S
H417 C429 0.929 . S
H418 C432 0.930 . S
H419 C434 0.960 . S
H420 C434 0.960 . S
H421 C434 0.960 . S
C422 H414 0.929 . S
C422 C423 1.377 . S
C422 C424 1.384 . S
C423 C422 1.377 . S
C423 C429 1.390 . S
C424 H415 0.930 . S
C424 C422 1.384 . S
C424 C425 1.372 . S
C425 C424 1.372 . S
C425 C426 1.400 . S
C425 C430 1.490 . S
C426 H416 0.930 . S
C426 C425 1.400 . S
C426 C429 1.386 . S
H427 C443 0.930 . S
H428 C444 0.931 . S
C429 H417 0.929 . S
C429 C423 1.390 . S
C429 C426 1.386 . S
C430 C425 1.490 . S
C430 C432 1.395 . S
C430 C433 1.403 . S
H431 C437 0.930 . S
C432 H418 0.930 . S
C432 C430 1.395 . S
C432 C435 1.403 . S
C433 C430 1.403 . S
C433 C434 1.524 . S
C433 C437 1.400 . S
C434 H419 0.960 . S
C434 H420 0.960 . S
C434 H421 0.960 . S
C434 C433 1.524 . S
C435 C432 1.403 . S
C435 C436 1.392 . S
C435 C439 1.495 . S
C436 C435 1.392 . S
C436 C437 1.385 . S
C436 C438 1.478 . S
C437 H431 0.930 . S
C437 C433 1.400 . S
C437 C436 1.385 . S
C438 C436 1.478 . S
C438 C440 1.381 . S
C438 C444 1.383 . S
C439 C435 1.495 . S
C439 H445 0.959 . S
C439 H446 0.961 . S
C439 H447 0.960 . S
C440 C438 1.381 . S
C440 C441 1.394 . S
C440 H448 0.930 . S
C441 C440 1.394 . S
C441 C442 1.383 . S
C441 H449 0.929 . S
C442 C441 1.383 . S
C442 C443 1.377 . S
C443 H427 0.930 . S
C443 C442 1.377 . S
C443 C444 1.379 . S
C444 H428 0.931 . S
C444 C438 1.383 . S
C444 C443 1.379 . S
H445 C439 0.959 . S
H446 C439 0.961 . S
H447 C439 0.960 . S
H448 C440 0.930 . S
H449 C441 0.929 . S
H450 C458 0.929 . S
H451 C460 0.930 . S
H452 C462 0.930 . S
H453 C465 0.929 . S
H454 C468 0.930 . S
H455 C470 0.960 . S
H456 C470 0.960 . S
H457 C470 0.960 . S
C458 H450 0.929 . S
C458 C459 1.377 . S
C458 C460 1.384 . S
C459 C458 1.377 . S
C459 C465 1.390 . S
C460 H451 0.930 . S
C460 C458 1.384 . S
C460 C461 1.372 . S
C461 C460 1.372 . S
C461 C462 1.400 . S
C461 C466 1.490 . S
C462 H452 0.930 . S
C462 C461 1.400 . S
C462 C465 1.386 . S
H463 C479 0.930 . S
H464 C480 0.931 . S
C465 H453 0.929 . S
C465 C459 1.390 . S
C465 C462 1.386 . S
C466 C461 1.490 . S
C466 C468 1.395 . S
C466 C469 1.403 . S
H467 C473 0.930 . S
C468 H454 0.930 . S
C468 C466 1.395 . S
C468 C471 1.403 . S
C469 C466 1.403 . S
C469 C470 1.524 . S
C469 C473 1.400 . S
C470 H455 0.960 . S
C470 H456 0.960 . S
C470 H457 0.960 . S
C470 C469 1.524 . S
C471 C468 1.403 . S
C471 C472 1.392 . S
C471 C475 1.495 . S
C472 C471 1.392 . S
C472 C473 1.385 . S
C472 C474 1.478 . S
C473 H467 0.930 . S
C473 C469 1.400 . S
C473 C472 1.385 . S
C474 C472 1.478 . S
C474 C476 1.381 . S
C474 C480 1.383 . S
C475 C471 1.495 . S
C475 H481 0.959 . S
C475 H482 0.961 . S
C475 H483 0.960 . S
C476 C474 1.381 . S
C476 C477 1.394 . S
C476 H484 0.930 . S
C477 C476 1.394 . S
C477 C478 1.383 . S
C477 H485 0.929 . S
C478 C477 1.383 . S
C478 C479 1.377 . S
C479 H463 0.930 . S
C479 C478 1.377 . S
C479 C480 1.379 . S
C480 H464 0.931 . S
C480 C474 1.383 . S
C480 C479 1.379 . S
H481 C475 0.959 . S
H482 C475 0.961 . S
H483 C475 0.960 . S
H484 C476 0.930 . S
H485 C477 0.929 . S
H486 C494 0.929 . S
H487 C496 0.930 . S
H488 C498 0.930 . S
H489 C501 0.929 . S
H490 C504 0.930 . S
H491 C506 0.960 . S
H492 C506 0.960 . S
H493 C506 0.960 . S
C494 H486 0.929 . S
C494 C495 1.377 . S
C494 C496 1.384 . S
C495 C494 1.377 . S
C495 C501 1.390 . S
C496 H487 0.930 . S
C496 C494 1.384 . S
C496 C497 1.372 . S
C497 C496 1.372 . S
C497 C498 1.400 . S
C497 C502 1.490 . S
C498 H488 0.930 . S
C498 C497 1.400 . S
C498 C501 1.386 . S
H499 C515 0.930 . S
H500 C516 0.931 . S
C501 H489 0.929 . S
C501 C495 1.390 . S
C501 C498 1.386 . S
C502 C497 1.490 . S
C502 C504 1.395 . S
C502 C505 1.403 . S
H503 C509 0.930 . S
C504 H490 0.930 . S
C504 C502 1.395 . S
C504 C507 1.403 . S
C505 C502 1.403 . S
C505 C506 1.524 . S
C505 C509 1.400 . S
C506 H491 0.960 . S
C506 H492 0.960 . S
C506 H493 0.960 . S
C506 C505 1.524 . S
C507 C504 1.403 . S
C507 C508 1.392 . S
C507 C511 1.495 . S
C508 C507 1.392 . S
C508 C509 1.385 . S
C508 C510 1.478 . S
C509 H503 0.930 . S
C509 C505 1.400 . S
C509 C508 1.385 . S
C510 C508 1.478 . S
C510 C512 1.381 . S
C510 C516 1.383 . S
C511 C507 1.495 . S
C511 H517 0.959 . S
C511 H518 0.961 . S
C511 H519 0.960 . S
C512 C510 1.381 . S
C512 C513 1.394 . S
C512 H520 0.930 . S
C513 C512 1.394 . S
C513 C514 1.383 . S
C513 H521 0.929 . S
C514 C513 1.383 . S
C514 C515 1.377 . S
C515 H499 0.930 . S
C515 C514 1.377 . S
C515 C516 1.379 . S
C516 H500 0.931 . S
C516 C510 1.383 . S
C516 C515 1.379 . S
H517 C511 0.959 . S
H518 C511 0.961 . S
H519 C511 0.960 . S
H520 C512 0.930 . S
H521 C513 0.929 . S
H522 C530 0.929 . S
H523 C532 0.930 . S
H524 C534 0.930 . S
H525 C537 0.929 . S
H526 C540 0.930 1_556 S
H527 C542 0.960 . S
H528 C542 0.960 . S
H529 C542 0.960 . S
C530 H522 0.929 . S
C530 C531 1.377 . S
C530 C532 1.384 . S
C531 C530 1.377 . S
C531 C537 1.390 . S
C532 H523 0.930 . S
C532 C530 1.384 . S
C532 C533 1.372 . S
C533 C532 1.372 . S
C533 C534 1.400 . S
C533 C538 1.490 . S
C534 H524 0.930 . S
C534 C533 1.400 . S
C534 C537 1.386 . S
H535 C551 0.930 . S
H536 C552 0.931 . S
C537 H525 0.929 . S
C537 C531 1.390 . S
C537 C534 1.386 . S
C538 C533 1.490 . S
C538 C540 1.395 . S
C538 C541 1.403 . S
H539 C545 0.930 . S
C540 H526 0.930 1_554 S
C540 C538 1.395 . S
C540 C543 1.403 . S
C541 C538 1.403 . S
C541 C542 1.524 . S
C541 C545 1.400 . S
C542 H527 0.960 . S
C542 H528 0.960 . S
C542 H529 0.960 . S
C542 C541 1.524 . S
C543 C540 1.403 . S
C543 C544 1.392 . S
C543 C547 1.495 1_554 S
C544 C543 1.392 . S
C544 C545 1.385 . S
C544 C546 1.478 . S
C545 H539 0.930 . S
C545 C541 1.400 . S
C545 C544 1.385 . S
C546 C544 1.478 . S
C546 C548 1.381 . S
C546 C552 1.383 . S
C547 C543 1.495 1_556 S
C547 H553 0.959 . S
C547 H554 0.961 . S
C547 H555 0.960 . S
C548 C546 1.381 . S
C548 C549 1.394 . S
C548 H556 0.930 . S
C549 C548 1.394 . S
C549 C550 1.383 . S
C549 H557 0.929 . S
C550 C549 1.383 . S
C550 C551 1.377 . S
C551 H535 0.930 . S
C551 C550 1.377 . S
C551 C552 1.379 . S
C552 H536 0.931 . S
C552 C546 1.383 . S
C552 C551 1.379 . S
H553 C547 0.959 . S
H554 C547 0.961 . S
H555 C547 0.960 . S
H556 C548 0.930 . S
H557 C549 0.929 . S
H558 C566 0.929 . S
H559 C568 0.930 . S
H560 C570 0.930 1_556 S
H561 C573 0.929 1_556 S
H562 C576 0.930 . S
H563 C578 0.960 1_556 S
H564 C578 0.960 . S
H565 C578 0.960 1_556 S
C566 H558 0.929 . S
C566 C567 1.377 . S
C566 C568 1.384 . S
C567 C566 1.377 . S
C567 C573 1.390 . S
C568 H559 0.930 . S
C568 C566 1.384 . S
C568 C569 1.372 . S
C569 C568 1.372 . S
C569 C570 1.400 . S
C569 C574 1.490 . S
C570 H560 0.930 1_554 S
C570 C569 1.400 . S
C570 C573 1.386 . S
H571 C587 0.930 . S
H572 C588 0.931 . S
C573 H561 0.929 1_554 S
C573 C567 1.390 . S
C573 C570 1.386 . S
C574 C569 1.490 . S
C574 C576 1.395 . S
C574 C577 1.403 . S
H575 C581 0.930 . S
C576 H562 0.930 . S
C576 C574 1.395 . S
C576 C579 1.403 . S
C577 C574 1.403 . S
C577 C578 1.524 . S
C577 C581 1.400 . S
C578 H563 0.960 1_554 S
C578 H564 0.960 . S
C578 H565 0.960 1_554 S
C578 C577 1.524 . S
C579 C576 1.403 . S
C579 C580 1.392 . S
C579 C583 1.495 . S
C580 C579 1.392 . S
C580 C581 1.385 . S
C580 C582 1.478 . S
C581 H575 0.930 . S
C581 C577 1.400 . S
C581 C580 1.385 . S
C582 C580 1.478 . S
C582 C584 1.381 . S
C582 C588 1.383 . S
C583 C579 1.495 . S
C583 H589 0.959 . S
C583 H590 0.961 . S
C583 H591 0.960 . S
C584 C582 1.381 . S
C584 C585 1.394 . S
C584 H592 0.930 . S
C585 C584 1.394 . S
C585 C586 1.383 . S
C585 H593 0.929 . S
C586 C585 1.383 . S
C586 C587 1.377 . S
C587 H571 0.930 . S
C587 C586 1.377 . S
C587 C588 1.379 . S
C588 H572 0.931 . S
C588 C582 1.383 . S
C588 C587 1.379 . S
H589 C583 0.959 . S
H590 C583 0.961 . S
H591 C583 0.960 . S
H592 C584 0.930 . S
H593 C585 0.929 . S
H594 C602 0.929 . S
H595 C604 0.930 . S
H596 C606 0.930 . S
H597 C609 0.929 . S
H598 C612 0.930 . S
H599 C614 0.960 . S
H600 C614 0.960 . S
H601 C614 0.960 . S
C602 H594 0.929 . S
C602 C603 1.377 . S
C602 C604 1.384 . S
C603 C602 1.377 . S
C603 C609 1.390 . S
C604 H595 0.930 . S
C604 C602 1.384 . S
C604 C605 1.372 . S
C605 C604 1.372 . S
C605 C606 1.400 . S
C605 C610 1.490 . S
C606 H596 0.930 . S
C606 C605 1.400 . S
C606 C609 1.386 . S
H607 C623 0.930 . S
H608 C624 0.931 . S
C609 H597 0.929 . S
C609 C603 1.390 . S
C609 C606 1.386 . S
C610 C605 1.490 . S
C610 C612 1.395 . S
C610 C613 1.403 . S
H611 C617 0.930 . S
C612 H598 0.930 . S
C612 C610 1.395 . S
C612 C615 1.403 . S
C613 C610 1.403 . S
C613 C614 1.524 . S
C613 C617 1.400 . S
C614 H599 0.960 . S
C614 H600 0.960 . S
C614 H601 0.960 . S
C614 C613 1.524 . S
C615 C612 1.403 . S
C615 C616 1.392 . S
C615 C619 1.495 . S
C616 C615 1.392 . S
C616 C617 1.385 . S
C616 C618 1.478 . S
C617 H611 0.930 . S
C617 C613 1.400 . S
C617 C616 1.385 . S
C618 C616 1.478 . S
C618 C620 1.381 . S
C618 C624 1.383 . S
C619 C615 1.495 . S
C619 H625 0.959 1_554 S
C619 H626 0.961 . S
C619 H627 0.960 1_554 S
C620 C618 1.381 . S
C620 C621 1.394 . S
C620 H628 0.930 . S
C621 C620 1.394 . S
C621 C622 1.383 . S
C621 H629 0.929 . S
C622 C621 1.383 . S
C622 C623 1.377 . S
C623 H607 0.930 . S
C623 C622 1.377 . S
C623 C624 1.379 . S
C624 H608 0.931 . S
C624 C618 1.383 . S
C624 C623 1.379 . S
H625 C619 0.959 1_556 S
H626 C619 0.961 . S
H627 C619 0.960 1_556 S
H628 C620 0.930 . S
H629 C621 0.929 . S
H630 C638 0.929 . S
H631 C640 0.930 . S
H632 C642 0.930 . S
H633 C645 0.929 . S
H634 C648 0.930 . S
H635 C650 0.960 . S
H636 C650 0.960 . S
H637 C650 0.960 . S
C638 H630 0.929 . S
C638 C639 1.377 . S
C638 C640 1.384 . S
C639 C638 1.377 . S
C639 C645 1.390 . S
C640 H631 0.930 . S
C640 C638 1.384 . S
C640 C641 1.372 . S
C641 C640 1.372 . S
C641 C642 1.400 . S
C641 C646 1.490 . S
C642 H632 0.930 . S
C642 C641 1.400 . S
C642 C645 1.386 . S
H643 C659 0.930 . S
H644 C660 0.931 . S
C645 H633 0.929 . S
C645 C639 1.390 . S
C645 C642 1.386 . S
C646 C641 1.490 . S
C646 C648 1.395 . S
C646 C649 1.403 . S
H647 C653 0.930 . S
C648 H634 0.930 . S
C648 C646 1.395 . S
C648 C651 1.403 . S
C649 C646 1.403 . S
C649 C650 1.524 . S
C649 C653 1.400 . S
C650 H635 0.960 . S
C650 H636 0.960 . S
C650 H637 0.960 . S
C650 C649 1.524 . S
C651 C648 1.403 . S
C651 C652 1.392 . S
C651 C655 1.495 . S
C652 C651 1.392 . S
C652 C653 1.385 . S
C652 C654 1.478 . S
C653 H647 0.930 . S
C653 C649 1.400 . S
C653 C652 1.385 . S
C654 C652 1.478 . S
C654 C656 1.381 . S
C654 C660 1.383 . S
C655 C651 1.495 . S
C655 H661 0.959 . S
C655 H662 0.961 . S
C655 H663 0.960 . S
C656 C654 1.381 . S
C656 C657 1.394 . S
C656 H664 0.930 . S
C657 C656 1.394 . S
C657 C658 1.383 . S
C657 H665 0.929 . S
C658 C657 1.383 . S
C658 C659 1.377 . S
C659 H643 0.930 . S
C659 C658 1.377 . S
C659 C660 1.379 . S
C660 H644 0.931 . S
C660 C654 1.383 . S
C660 C659 1.379 . S
H661 C655 0.959 . S
H662 C655 0.961 . S
H663 C655 0.960 . S
H664 C656 0.930 . S
H665 C657 0.929 . S
H666 C674 0.929 . S
H667 C676 0.930 . S
H668 C678 0.930 . S
H669 C681 0.929 . S
H670 C684 0.930 1_556 S
H671 C686 0.960 . S
H672 C686 0.960 . S
H673 C686 0.960 . S
C674 H666 0.929 . S
C674 C675 1.377 . S
C674 C676 1.384 . S
C675 C674 1.377 . S
C675 C681 1.390 . S
C676 H667 0.930 . S
C676 C674 1.384 . S
C676 C677 1.372 . S
C677 C676 1.372 . S
C677 C678 1.400 . S
C677 C682 1.490 . S
C678 H668 0.930 . S
C678 C677 1.400 . S
C678 C681 1.386 . S
H679 C695 0.930 . S
H680 C696 0.931 . S
C681 H669 0.929 . S
C681 C675 1.390 . S
C681 C678 1.386 . S
C682 C677 1.490 . S
C682 C684 1.395 . S
C682 C685 1.403 . S
H683 C689 0.930 . S
C684 H670 0.930 1_554 S
C684 C682 1.395 . S
C684 C687 1.403 . S
C685 C682 1.403 . S
C685 C686 1.524 . S
C685 C689 1.400 . S
C686 H671 0.960 . S
C686 H672 0.960 . S
C686 H673 0.960 . S
C686 C685 1.524 . S
C687 C684 1.403 . S
C687 C688 1.392 . S
C687 C691 1.495 1_554 S
C688 C687 1.392 . S
C688 C689 1.385 . S
C688 C690 1.478 . S
C689 H683 0.930 . S
C689 C685 1.400 . S
C689 C688 1.385 . S
C690 C688 1.478 . S
C690 C692 1.381 . S
C690 C696 1.383 . S
C691 C687 1.495 1_556 S
C691 H697 0.959 . S
C691 H698 0.961 . S
C691 H699 0.960 . S
C692 C690 1.381 . S
C692 C693 1.394 . S
C692 H700 0.930 . S
C693 C692 1.394 . S
C693 C694 1.383 . S
C693 H701 0.929 . S
C694 C693 1.383 . S
C694 C695 1.377 . S
C695 H679 0.930 . S
C695 C694 1.377 . S
C695 C696 1.379 . S
C696 H680 0.931 . S
C696 C690 1.383 . S
C696 C695 1.379 . S
H697 C691 0.959 . S
H698 C691 0.961 . S
H699 C691 0.960 . S
H700 C692 0.930 . S
H701 C693 0.929 . S
H702 C710 0.929 . S
H703 C712 0.930 . S
H704 C714 0.930 . S
H705 C717 0.929 . S
H706 C720 0.930 1_556 S
H707 C722 0.960 . S
H708 C722 0.960 . S
H709 C722 0.960 . S
C710 H702 0.929 . S
C710 C711 1.377 . S
C710 C712 1.384 . S
C711 C710 1.377 . S
C711 C717 1.390 . S
C712 H703 0.930 . S
C712 C710 1.384 . S
C712 C713 1.372 . S
C713 C712 1.372 . S
C713 C714 1.400 . S
C713 C718 1.490 . S
C714 H704 0.930 . S
C714 C713 1.400 . S
C714 C717 1.386 . S
H715 C731 0.930 . S
H716 C732 0.931 . S
C717 H705 0.929 . S
C717 C711 1.390 . S
C717 C714 1.386 . S
C718 C713 1.490 . S
C718 C720 1.395 . S
C718 C721 1.403 . S
H719 C725 0.930 . S
C720 H706 0.930 1_554 S
C720 C718 1.395 . S
C720 C723 1.403 . S
C721 C718 1.403 . S
C721 C722 1.524 . S
C721 C725 1.400 . S
C722 H707 0.960 . S
C722 H708 0.960 . S
C722 H709 0.960 . S
C722 C721 1.524 . S
C723 C720 1.403 . S
C723 C724 1.392 . S
C723 C727 1.495 1_554 S
C724 C723 1.392 . S
C724 C725 1.385 . S
C724 C726 1.478 . S
C725 H719 0.930 . S
C725 C721 1.400 . S
C725 C724 1.385 . S
C726 C724 1.478 . S
C726 C728 1.381 . S
C726 C732 1.383 . S
C727 C723 1.495 1_556 S
C727 H733 0.959 . S
C727 H734 0.961 . S
C727 H735 0.959 1_556 S
C728 C726 1.381 . S
C728 C729 1.394 . S
C728 H736 0.930 . S
C729 C728 1.394 . S
C729 C730 1.383 . S
C729 H737 0.929 . S
C730 C729 1.383 . S
C730 C731 1.377 . S
C731 H715 0.930 . S
C731 C730 1.377 . S
C731 C732 1.379 . S
C732 H716 0.931 . S
C732 C726 1.383 . S
C732 C731 1.379 . S
H733 C727 0.959 . S
H734 C727 0.961 . S
H735 C727 0.959 1_554 S
H736 C728 0.930 . S
H737 C729 0.929 . S
C207 C18 0.842 . S
C226 C117 0.839 . S
C243 C150 0.716 . S
C262 C51 0.724 . S
C279 C183 0.819 . S
C298 C84 0.810 . S
C315 N13 1.439 . S
C334 N2 1.446 . S
C351 N46 1.444 . S
C370 N35 1.461 . S
C387 N68 1.448 . S
C406 N79 1.448 . S
C423 N112 1.444 . S
C442 N101 1.430 . S
C459 N134 1.443 . S
C478 N145 1.454 . S
C495 N178 1.444 . S
C514 N167 1.414 . S
C531 C21 0.519 . S
C550 C73 0.574 . S
C567 C54 0.457 . S
C586 C120 0.493 . S
C603 C87 0.470 . S
C622 C153 0.415 . S
C639 C106 0.603 . S
C658 C172 0.669 . S
C675 C7 0.629 . S
C694 C139 0.625 . S
C711 C40 0.553 . S
C730 C186 0.491 . S
