# Generated by pormake.
# Topology ukp, (4)-cn, num edge types: 1
# Building blocks:
#     Node 0, Type 0, BuildingBlock: ESEHIV_clean_sbu_0, # of connection points: 4
#     Node 1, Type 0, BuildingBlock: ESEHIV_clean_sbu_0, # of connection points: 4
#     Node 2, Type 0, BuildingBlock: ESEHIV_clean_sbu_0, # of connection points: 4
#     Node 3, Type 0, BuildingBlock: ESEHIV_clean_sbu_0, # of connection points: 4
#     Node 4, Type 0, BuildingBlock: ESEHIV_clean_sbu_0, # of connection points: 4
#     Node 5, Type 0, BuildingBlock: ESEHIV_clean_sbu_0, # of connection points: 4
#     Node 6, Type 0, BuildingBlock: ESEHIV_clean_sbu_0, # of connection points: 4
#     Node 7, Type 0, BuildingBlock: ESEHIV_clean_sbu_0, # of connection points: 4
#     Node 8, Type 0, BuildingBlock: ESEHIV_clean_sbu_0, # of connection points: 4
#     Node 9, Type 0, BuildingBlock: ESEHIV_clean_sbu_0, # of connection points: 4
#     Node 10, Type 0, BuildingBlock: ESEHIV_clean_sbu_0, # of connection points: 4
#     Node 11, Type 0, BuildingBlock: ESEHIV_clean_sbu_0, # of connection points: 4
#     Node 12, Type 0, BuildingBlock: ESEHIV_clean_sbu_0, # of connection points: 4
#     Node 13, Type 0, BuildingBlock: ESEHIV_clean_sbu_0, # of connection points: 4
#     Node 14, Type 0, BuildingBlock: ESEHIV_clean_sbu_0, # of connection points: 4
#     Node 15, Type 0, BuildingBlock: ESEHIV_clean_sbu_0, # of connection points: 4
#     Node 16, Type 0, BuildingBlock: ESEHIV_clean_sbu_0, # of connection points: 4
#     Node 17, Type 0, BuildingBlock: ESEHIV_clean_sbu_0, # of connection points: 4
#     Node 18, Type 0, BuildingBlock: ESEHIV_clean_sbu_0, # of connection points: 4
#     Node 19, Type 0, BuildingBlock: ESEHIV_clean_sbu_0, # of connection points: 4
#     Node 20, Type 0, BuildingBlock: ESEHIV_clean_sbu_0, # of connection points: 4
#     Node 21, Type 0, BuildingBlock: ESEHIV_clean_sbu_0, # of connection points: 4
#     Node 22, Type 0, BuildingBlock: ESEHIV_clean_sbu_0, # of connection points: 4
#     Node 23, Type 0, BuildingBlock: ESEHIV_clean_sbu_0, # of connection points: 4
#     Node 24, Type 0, BuildingBlock: ESEHIV_clean_sbu_0, # of connection points: 4
#     Node 25, Type 0, BuildingBlock: ESEHIV_clean_sbu_0, # of connection points: 4
#     Node 26, Type 0, BuildingBlock: ESEHIV_clean_sbu_0, # of connection points: 4
#     Node 27, Type 0, BuildingBlock: ESEHIV_clean_sbu_0, # of connection points: 4
#     Node 28, Type 0, BuildingBlock: ESEHIV_clean_sbu_0, # of connection points: 4
#     Node 29, Type 0, BuildingBlock: ESEHIV_clean_sbu_0, # of connection points: 4
#     Node 30, Type 0, BuildingBlock: ESEHIV_clean_sbu_0, # of connection points: 4
#     Node 31, Type 0, BuildingBlock: ESEHIV_clean_sbu_0, # of connection points: 4
#     Node 32, Type 0, BuildingBlock: ESEHIV_clean_sbu_0, # of connection points: 4
#     Node 33, Type 0, BuildingBlock: ESEHIV_clean_sbu_0, # of connection points: 4
#     Node 34, Type 0, BuildingBlock: ESEHIV_clean_sbu_0, # of connection points: 4
#     Node 35, Type 0, BuildingBlock: ESEHIV_clean_sbu_0, # of connection points: 4
#     Node 36, Type 0, BuildingBlock: ESEHIV_clean_sbu_0, # of connection points: 4
#     Node 37, Type 0, BuildingBlock: ESEHIV_clean_sbu_0, # of connection points: 4
#     Node 38, Type 0, BuildingBlock: ESEHIV_clean_sbu_0, # of connection points: 4
#     Node 39, Type 0, BuildingBlock: ESEHIV_clean_sbu_0, # of connection points: 4
#     Node 40, Type 0, BuildingBlock: ESEHIV_clean_sbu_0, # of connection points: 4
#     Node 41, Type 0, BuildingBlock: ESEHIV_clean_sbu_0, # of connection points: 4
#     Node 42, Type 0, BuildingBlock: ESEHIV_clean_sbu_0, # of connection points: 4
#     Node 43, Type 0, BuildingBlock: ESEHIV_clean_sbu_0, # of connection points: 4
#     Node 44, Type 0, BuildingBlock: ESEHIV_clean_sbu_0, # of connection points: 4
#     Node 45, Type 0, BuildingBlock: ESEHIV_clean_sbu_0, # of connection points: 4
#     Node 46, Type 0, BuildingBlock: ESEHIV_clean_sbu_0, # of connection points: 4
#     Node 47, Type 0, BuildingBlock: ESEHIV_clean_sbu_0, # of connection points: 4
#     Edge 48, Type (0, 0), BuildingBlock: AJUNOK_clean_linker_0, # of connection points: 2
#     Edge 49, Type (0, 0), BuildingBlock: AJUNOK_clean_linker_0, # of connection points: 2
#     Edge 50, Type (0, 0), BuildingBlock: AJUNOK_clean_linker_0, # of connection points: 2
#     Edge 51, Type (0, 0), BuildingBlock: AJUNOK_clean_linker_0, # of connection points: 2
#     Edge 52, Type (0, 0), BuildingBlock: AJUNOK_clean_linker_0, # of connection points: 2
#     Edge 53, Type (0, 0), BuildingBlock: AJUNOK_clean_linker_0, # of connection points: 2
#     Edge 54, Type (0, 0), BuildingBlock: AJUNOK_clean_linker_0, # of connection points: 2
#     Edge 55, Type (0, 0), BuildingBlock: AJUNOK_clean_linker_0, # of connection points: 2
#     Edge 56, Type (0, 0), BuildingBlock: AJUNOK_clean_linker_0, # of connection points: 2
#     Edge 57, Type (0, 0), BuildingBlock: AJUNOK_clean_linker_0, # of connection points: 2
#     Edge 58, Type (0, 0), BuildingBlock: AJUNOK_clean_linker_0, # of connection points: 2
#     Edge 59, Type (0, 0), BuildingBlock: AJUNOK_clean_linker_0, # of connection points: 2
#     Edge 60, Type (0, 0), BuildingBlock: AJUNOK_clean_linker_0, # of connection points: 2
#     Edge 61, Type (0, 0), BuildingBlock: AJUNOK_clean_linker_0, # of connection points: 2
#     Edge 62, Type (0, 0), BuildingBlock: AJUNOK_clean_linker_0, # of connection points: 2
#     Edge 63, Type (0, 0), BuildingBlock: AJUNOK_clean_linker_0, # of connection points: 2
#     Edge 64, Type (0, 0), BuildingBlock: AJUNOK_clean_linker_0, # of connection points: 2
#     Edge 65, Type (0, 0), BuildingBlock: AJUNOK_clean_linker_0, # of connection points: 2
#     Edge 66, Type (0, 0), BuildingBlock: AJUNOK_clean_linker_0, # of connection points: 2
#     Edge 67, Type (0, 0), BuildingBlock: AJUNOK_clean_linker_0, # of connection points: 2
#     Edge 68, Type (0, 0), BuildingBlock: AJUNOK_clean_linker_0, # of connection points: 2
#     Edge 69, Type (0, 0), BuildingBlock: AJUNOK_clean_linker_0, # of connection points: 2
#     Edge 70, Type (0, 0), BuildingBlock: AJUNOK_clean_linker_0, # of connection points: 2
#     Edge 71, Type (0, 0), BuildingBlock: AJUNOK_clean_linker_0, # of connection points: 2
#     Edge 72, Type (0, 0), BuildingBlock: AJUNOK_clean_linker_0, # of connection points: 2
#     Edge 73, Type (0, 0), BuildingBlock: AJUNOK_clean_linker_0, # of connection points: 2
#     Edge 74, Type (0, 0), BuildingBlock: AJUNOK_clean_linker_0, # of connection points: 2
#     Edge 75, Type (0, 0), BuildingBlock: AJUNOK_clean_linker_0, # of connection points: 2
#     Edge 76, Type (0, 0), BuildingBlock: AJUNOK_clean_linker_0, # of connection points: 2
#     Edge 77, Type (0, 0), BuildingBlock: AJUNOK_clean_linker_0, # of connection points: 2
#     Edge 78, Type (0, 0), BuildingBlock: AJUNOK_clean_linker_0, # of connection points: 2
#     Edge 79, Type (0, 0), BuildingBlock: AJUNOK_clean_linker_0, # of connection points: 2
#     Edge 80, Type (0, 0), BuildingBlock: AJUNOK_clean_linker_0, # of connection points: 2
#     Edge 81, Type (0, 0), BuildingBlock: AJUNOK_clean_linker_0, # of connection points: 2
#     Edge 82, Type (0, 0), BuildingBlock: AJUNOK_clean_linker_0, # of connection points: 2
#     Edge 83, Type (0, 0), BuildingBlock: AJUNOK_clean_linker_0, # of connection points: 2
#     Edge 84, Type (0, 0), BuildingBlock: AJUNOK_clean_linker_0, # of connection points: 2
#     Edge 85, Type (0, 0), BuildingBlock: AJUNOK_clean_linker_0, # of connection points: 2
#     Edge 86, Type (0, 0), BuildingBlock: AJUNOK_clean_linker_0, # of connection points: 2
#     Edge 87, Type (0, 0), BuildingBlock: AJUNOK_clean_linker_0, # of connection points: 2
#     Edge 88, Type (0, 0), BuildingBlock: AJUNOK_clean_linker_0, # of connection points: 2
#     Edge 89, Type (0, 0), BuildingBlock: AJUNOK_clean_linker_0, # of connection points: 2
#     Edge 90, Type (0, 0), BuildingBlock: AJUNOK_clean_linker_0, # of connection points: 2
#     Edge 91, Type (0, 0), BuildingBlock: AJUNOK_clean_linker_0, # of connection points: 2
#     Edge 92, Type (0, 0), BuildingBlock: AJUNOK_clean_linker_0, # of connection points: 2
#     Edge 93, Type (0, 0), BuildingBlock: AJUNOK_clean_linker_0, # of connection points: 2
#     Edge 94, Type (0, 0), BuildingBlock: AJUNOK_clean_linker_0, # of connection points: 2
#     Edge 95, Type (0, 0), BuildingBlock: AJUNOK_clean_linker_0, # of connection points: 2
#     Edge 96, Type (0, 0), BuildingBlock: AJUNOK_clean_linker_0, # of connection points: 2
#     Edge 97, Type (0, 0), BuildingBlock: AJUNOK_clean_linker_0, # of connection points: 2
#     Edge 98, Type (0, 0), BuildingBlock: AJUNOK_clean_linker_0, # of connection points: 2
#     Edge 99, Type (0, 0), BuildingBlock: AJUNOK_clean_linker_0, # of connection points: 2
#     Edge 100, Type (0, 0), BuildingBlock: AJUNOK_clean_linker_0, # of connection points: 2
#     Edge 101, Type (0, 0), BuildingBlock: AJUNOK_clean_linker_0, # of connection points: 2
#     Edge 102, Type (0, 0), BuildingBlock: AJUNOK_clean_linker_0, # of connection points: 2
#     Edge 103, Type (0, 0), BuildingBlock: AJUNOK_clean_linker_0, # of connection points: 2
#     Edge 104, Type (0, 0), BuildingBlock: AJUNOK_clean_linker_0, # of connection points: 2
#     Edge 105, Type (0, 0), BuildingBlock: AJUNOK_clean_linker_0, # of connection points: 2
#     Edge 106, Type (0, 0), BuildingBlock: AJUNOK_clean_linker_0, # of connection points: 2
#     Edge 107, Type (0, 0), BuildingBlock: AJUNOK_clean_linker_0, # of connection points: 2
#     Edge 108, Type (0, 0), BuildingBlock: AJUNOK_clean_linker_0, # of connection points: 2
#     Edge 109, Type (0, 0), BuildingBlock: AJUNOK_clean_linker_0, # of connection points: 2
#     Edge 110, Type (0, 0), BuildingBlock: AJUNOK_clean_linker_0, # of connection points: 2
#     Edge 111, Type (0, 0), BuildingBlock: AJUNOK_clean_linker_0, # of connection points: 2
#     Edge 112, Type (0, 0), BuildingBlock: AJUNOK_clean_linker_0, # of connection points: 2
#     Edge 113, Type (0, 0), BuildingBlock: AJUNOK_clean_linker_0, # of connection points: 2
#     Edge 114, Type (0, 0), BuildingBlock: AJUNOK_clean_linker_0, # of connection points: 2
#     Edge 115, Type (0, 0), BuildingBlock: AJUNOK_clean_linker_0, # of connection points: 2
#     Edge 116, Type (0, 0), BuildingBlock: AJUNOK_clean_linker_0, # of connection points: 2
#     Edge 117, Type (0, 0), BuildingBlock: AJUNOK_clean_linker_0, # of connection points: 2
#     Edge 118, Type (0, 0), BuildingBlock: AJUNOK_clean_linker_0, # of connection points: 2
#     Edge 119, Type (0, 0), BuildingBlock: AJUNOK_clean_linker_0, # of connection points: 2
#     Edge 120, Type (0, 0), BuildingBlock: AJUNOK_clean_linker_0, # of connection points: 2
#     Edge 121, Type (0, 0), BuildingBlock: AJUNOK_clean_linker_0, # of connection points: 2
#     Edge 122, Type (0, 0), BuildingBlock: AJUNOK_clean_linker_0, # of connection points: 2
#     Edge 123, Type (0, 0), BuildingBlock: AJUNOK_clean_linker_0, # of connection points: 2
#     Edge 124, Type (0, 0), BuildingBlock: AJUNOK_clean_linker_0, # of connection points: 2
#     Edge 125, Type (0, 0), BuildingBlock: AJUNOK_clean_linker_0, # of connection points: 2
#     Edge 126, Type (0, 0), BuildingBlock: AJUNOK_clean_linker_0, # of connection points: 2
#     Edge 127, Type (0, 0), BuildingBlock: AJUNOK_clean_linker_0, # of connection points: 2
#     Edge 128, Type (0, 0), BuildingBlock: AJUNOK_clean_linker_0, # of connection points: 2
#     Edge 129, Type (0, 0), BuildingBlock: AJUNOK_clean_linker_0, # of connection points: 2
#     Edge 130, Type (0, 0), BuildingBlock: AJUNOK_clean_linker_0, # of connection points: 2
#     Edge 131, Type (0, 0), BuildingBlock: AJUNOK_clean_linker_0, # of connection points: 2
#     Edge 132, Type (0, 0), BuildingBlock: AJUNOK_clean_linker_0, # of connection points: 2
#     Edge 133, Type (0, 0), BuildingBlock: AJUNOK_clean_linker_0, # of connection points: 2
#     Edge 134, Type (0, 0), BuildingBlock: AJUNOK_clean_linker_0, # of connection points: 2
#     Edge 135, Type (0, 0), BuildingBlock: AJUNOK_clean_linker_0, # of connection points: 2
#     Edge 136, Type (0, 0), BuildingBlock: AJUNOK_clean_linker_0, # of connection points: 2
#     Edge 137, Type (0, 0), BuildingBlock: AJUNOK_clean_linker_0, # of connection points: 2
#     Edge 138, Type (0, 0), BuildingBlock: AJUNOK_clean_linker_0, # of connection points: 2
#     Edge 139, Type (0, 0), BuildingBlock: AJUNOK_clean_linker_0, # of connection points: 2
#     Edge 140, Type (0, 0), BuildingBlock: AJUNOK_clean_linker_0, # of connection points: 2
#     Edge 141, Type (0, 0), BuildingBlock: AJUNOK_clean_linker_0, # of connection points: 2
#     Edge 142, Type (0, 0), BuildingBlock: AJUNOK_clean_linker_0, # of connection points: 2
#     Edge 143, Type (0, 0), BuildingBlock: AJUNOK_clean_linker_0, # of connection points: 2
# Relax obj value: 0.093
# Max RMSD: 0.155
# Mean RMSD: 0.155
data_MOF--net-ukp--node1-ESEHIV_clean_sbu_0--edge1-AJUNOK_clean_linker_0
_symmetry_space_group_name_H-M    P1
_symmetry_Int_Tables_number       1
_symmetry_cell_setting            triclinic
loop_
_symmetry_equiv_pos_as_xyz
'x, y, z'
_cell_length_a     52.723697
_cell_length_b     52.819095
_cell_length_c     52.945853
_cell_angle_alpha  90.000868
_cell_angle_beta   90.005252
_cell_angle_gamma 90.04431
loop_
_atom_site_label
_atom_site_type_symbol
_atom_site_fract_x
_atom_site_fract_y
_atom_site_fract_z
_atom_type_partial_charge
Cu0 Cu 0.21488 0.2992 0.39868 0.0
N1 N 0.20992 0.31804 0.36887 0.0
N2 N 0.21924 0.33985 0.33373 0.0
C3 C 0.22621 0.32084 0.34935 0.0
C4 C 0.1975 0.34907 0.34348 0.0
C5 C 0.19184 0.33563 0.36513 0.0
O6 O 0.24427 0.27716 0.39338 0.0
C7 C 0.22551 0.34615 0.42323 0.0
O8 O 0.23778 0.3514 0.40227 0.0
H9 H 0.24357 0.31012 0.34732 0.0
H10 H 0.17632 0.33928 0.37799 0.0
N11 N 0.18681 0.27801 0.40528 0.0
N12 N 0.16045 0.25045 0.42429 0.0
C13 C 0.18126 0.26534 0.42684 0.0
C14 C 0.1689 0.27091 0.38864 0.0
C15 C 0.15275 0.25392 0.40021 0.0
C16 C 0.26682 0.28452 0.38884 0.0
O17 O 0.27226 0.3087 0.39089 0.0
H18 H 0.19282 0.26628 0.44371 0.0
H19 H 0.16799 0.27723 0.36922 0.0
O20 O 0.21687 0.32378 0.42635 0.0
H21 H 0.1867 0.36468 0.33576 0.0
H22 H 0.13669 0.2446 0.39149 0.0
Cu23 Cu 0.98124 0.96806 0.65292 0.0
N24 N 0.96299 0.9632 0.62273 0.0
N25 N 0.93957 0.97355 0.58885 0.0
C26 C 0.95761 0.98114 0.60537 0.0
C27 C 0.93349 0.94978 0.59603 0.0
C28 C 0.94787 0.94351 0.61692 0.0
O29 O 1.00429 0.9966 0.64745 0.0
C30 C 0.93365 0.97948 0.67618 0.0
O31 O 0.92877 0.99141 0.65497 0.0
H32 H 0.96571 0.99994 0.60564 0.0
H33 H 0.94606 0.92652 0.62818 0.0
N34 N 1.00133 0.93969 0.66114 0.0
N35 N 0.02792 0.91409 0.68238 0.0
C36 C 1.01656 0.9371 0.68155 0.0
C37 C 1.0031 0.91755 0.64868 0.0
C38 C 0.01934 0.90176 0.66174 0.0
C39 C 0.99785 0.0196 0.64423 0.0
O40 O 0.97413 0.02613 0.64812 0.0
H41 H 0.01881 0.95166 0.69575 0.0
H42 H 0.99324 0.91314 0.63132 0.0
O43 O 0.95605 0.97114 0.67994 0.0
H44 H 0.91843 0.93842 0.58799 0.0
H45 H 0.02471 0.88276 0.65626 0.0
Cu46 Cu 0.31742 0.73304 0.90313 0.0
N47 N 0.32255 0.71504 0.87283 0.0
N48 N 0.31247 0.6908 0.83942 0.0
C49 C 0.30459 0.70892 0.85567 0.0
C50 C 0.33649 0.6855 0.84648 0.0
C51 C 0.34261 0.70041 0.86705 0.0
O52 O 0.28663 0.75327 0.89888 0.0
C53 C 0.3099 0.68511 0.92699 0.0
O54 O 0.29576 0.67984 0.90727 0.0
H55 H 0.28562 0.71657 0.85582 0.0
H56 H 0.35975 0.69924 0.87822 0.0
N57 N 0.34439 0.75545 0.91007 0.0
N58 N 0.36951 0.78303 0.9307 0.0
C59 C 0.34813 0.76875 0.9316 0.0
C60 C 0.36413 0.76139 0.8951 0.0
C61 C 0.37962 0.77827 0.90775 0.0
C62 C 0.26468 0.74395 0.89509 0.0
O63 O 0.26114 0.71958 0.89849 0.0
H64 H 0.33562 0.76751 0.94774 0.0
H65 H 0.36705 0.75396 0.87629 0.0
O66 O 0.31777 0.70775 0.93007 0.0
H67 H 0.34816 0.6706 0.83864 0.0
H68 H 0.39686 0.78666 0.90044 0.0
Cu69 Cu 0.55316 0.0671 0.15221 0.0
N70 N 0.57183 0.0707 0.12207 0.0
N71 N 0.59665 0.0584 0.08987 0.0
C72 C 0.57782 0.05183 0.10593 0.0
C73 C 0.60214 0.0827 0.09556 0.0
C74 C 0.58697 0.09015 0.11552 0.0
O75 O 0.53171 0.03708 0.14808 0.0
C76 C 0.60049 0.05801 0.17694 0.0
O77 O 0.60582 0.04503 0.15647 0.0
H78 H 0.56934 0.03324 0.10667 0.0
H79 H 0.58816 0.10787 0.12569 0.0
N80 N 0.53151 0.09499 0.15772 0.0
N81 N 0.50353 0.12148 0.17587 0.0
C82 C 0.51881 0.1011 0.17912 0.0
C83 C 0.52401 0.1121 0.14046 0.0
C84 C 0.50677 0.12833 0.15151 0.0
C85 C 0.53991 1.01452 0.14579 0.0
O86 O 0.56399 1.01002 0.15023 0.0
H87 H 0.52002 0.09021 0.19639 0.0
H88 H 0.53024 0.11239 0.12099 0.0
O89 O 0.57804 0.06659 0.17977 0.0
H90 H 0.6172 0.09371 0.08706 0.0
H91 H 0.49712 0.14385 0.14225 0.0
Cu92 Cu 0.21917 0.72634 0.12394 0.0
N93 N 0.21466 0.70734 0.1537 0.0
N94 N 0.22553 0.6825 0.18633 0.0
C95 C 0.23376 0.69859 0.16824 0.0
C96 C 0.20012 0.68147 0.18335 0.0
C97 C 0.1935 0.69661 0.16306 0.0
O98 O 0.25051 0.74581 0.12913 0.0
C99 C 0.22937 0.6798 0.09819 0.0
O100 O 0.24451 0.67547 0.11739 0.0
H101 H 0.25343 0.70357 0.16518 0.0
H102 H 0.17473 0.69884 0.15512 0.0
N103 N 0.19231 0.74925 0.11788 0.0
N104 N 0.16708 0.7775 0.09831 0.0
C105 C 0.18798 0.76262 0.09649 0.0
C106 C 0.1735 0.75587 0.13372 0.0
C107 C 0.15794 0.77312 0.12173 0.0
C108 C 0.25114 0.75891 0.14943 0.0
O109 O 0.23086 0.75922 0.16385 0.0
H110 H 0.19975 0.7611 0.07983 0.0
H111 H 0.17133 0.74877 0.15276 0.0
O112 O 0.21908 0.70159 0.09626 0.0
H113 H 0.18737 0.66982 0.19439 0.0
H114 H 0.14137 0.7821 0.12982 0.0
Cu115 Cu 0.54999 0.96559 0.37844 0.0
N116 N 0.56935 0.96093 0.408 0.0
N117 N 0.59455 0.97189 0.44047 0.0
C118 C 0.57693 0.97968 0.42359 0.0
C119 C 0.59817 0.94711 0.43522 0.0
C120 C 0.58268 0.94045 0.41519 0.0
O121 O 0.53093 0.99708 0.38322 0.0
C122 C 0.59611 0.97644 0.35277 0.0
O123 O 0.60006 0.99183 0.37185 0.0
H124 H 0.57042 0.99901 0.42181 0.0
H125 H 0.5823 0.92238 0.40558 0.0
N126 N 0.52715 0.9387 0.37232 0.0
N127 N 0.50028 0.91226 0.35236 0.0
C128 C 0.51517 0.93312 0.35038 0.0
C129 C 0.51938 0.92092 0.38878 0.0
C130 C 0.50282 0.90471 0.37661 0.0
C131 C 0.51801 0.99865 0.40356 0.0
O132 O 0.51732 0.97896 0.41871 0.0
H133 H 0.51749 0.94405 0.33325 0.0
H134 H 0.52519 0.91994 0.40835 0.0
O135 O 0.57452 0.96572 0.3508 0.0
H136 H 0.61209 0.93498 0.44407 0.0
H137 H 0.49291 0.88899 0.38525 0.0
Cu138 Cu 0.31766 0.30065 0.6282 0.0
N139 N 0.32186 0.31958 0.658 0.0
N140 N 0.31079 0.34427 0.69064 0.0
C141 C 0.30268 0.32823 0.67247 0.0
C142 C 0.33622 0.34535 0.68781 0.0
C143 C 0.34296 0.33029 0.66752 0.0
O144 O 0.28667 0.28067 0.63289 0.0
C145 C 0.30629 0.34679 0.60242 0.0
O146 O 0.29105 0.3509 0.62161 0.0
H147 H 0.28304 0.32322 0.66929 0.0
H148 H 0.36178 0.32808 0.65968 0.0
N149 N 0.34507 0.27853 0.62214 0.0
N150 N 0.37192 0.25217 0.60221 0.0
C151 C 0.35081 0.26666 0.60022 0.0
C152 C 0.36302 0.27109 0.63859 0.0
C153 C 0.37951 0.25486 0.62643 0.0
C154 C 0.28578 0.26745 0.65308 0.0
O155 O 0.30571 0.26735 0.66798 0.0
H156 H 0.33974 0.26869 0.58312 0.0
H157 H 0.36388 0.27682 0.65818 0.0
O158 O 0.31716 0.3253 0.6006 0.0
H159 H 0.34888 0.35701 0.69895 0.0
H160 H 0.39541 0.2452 0.63504 0.0
Cu161 Cu 0.98171 0.06271 0.87591 0.0
N162 N 0.96371 0.06842 0.90608 0.0
N163 N 0.93976 0.05912 0.93988 0.0
C164 C 0.95747 0.05074 0.92343 0.0
C165 C 0.93488 0.08318 0.93277 0.0
C166 C 0.94961 0.08882 0.91193 0.0
O167 O 1.00358 0.03333 0.8819 0.0
C168 C 0.93404 0.05039 0.85343 0.0
O169 O 0.9299 0.03902 0.87508 0.0
H170 H 0.96465 0.03159 0.92317 0.0
H171 H 0.94876 0.10593 0.90075 0.0
N172 N 1.00271 0.09062 0.86805 0.0
N173 N 0.02894 0.11725 0.8475 0.0
C174 C 1.01511 0.0956 0.84619 0.0
C175 C 1.00916 0.10959 0.88373 0.0
C176 C 0.02528 0.12591 0.87123 0.0
C177 C 0.9956 1.01079 0.88514 0.0
O178 O 0.97162 1.0058 0.88071 0.0
H179 H 1.01406 0.08356 0.82968 0.0
H180 H 1.00294 0.11118 0.90313 0.0
O181 O 0.95606 0.05957 0.84916 0.0
H182 H 0.92039 0.09522 0.94084 0.0
H183 H 0.03431 0.1424 0.87938 0.0
Cu184 Cu 0.40537 0.21668 0.29721 0.0
N185 N 0.37493 0.21101 0.31474 0.0
N186 N 0.34089 0.22046 0.33842 0.0
C187 C 0.36007 0.22953 0.3241 0.0
C188 C 0.34391 0.19504 0.33809 0.0
C189 C 0.36492 0.18929 0.32351 0.0
O190 O 0.40023 0.24989 0.28134 0.0
C191 C 0.43024 0.22633 0.3439 0.0
O192 O 0.41169 0.24259 0.34709 0.0
H193 H 0.36383 0.24942 0.32117 0.0
H194 H 0.37292 0.1707 0.32038 0.0
N195 N 0.41146 0.1913 0.27277 0.0
N196 N 0.43074 0.16641 0.24414 0.0
C197 C 0.43383 0.18426 0.26231 0.0
C198 C 0.39375 0.17735 0.2609 0.0
C199 C 0.40551 0.16214 0.24325 0.0
C200 C 0.39919 0.25354 0.25753 0.0
O201 O 0.40633 0.23539 0.24216 0.0
H202 H 0.45184 0.19279 0.26722 0.0
H203 H 0.37359 0.17859 0.26444 0.0
O204 O 0.4322 0.2151 0.32267 0.0
H205 H 0.33257 0.18158 0.34857 0.0
H206 H 0.39616 0.14908 0.23052 0.0
Cu207 Cu 0.06616 0.154 0.5475 0.0
N208 N 0.07186 0.12402 0.56565 0.0
N209 N 0.06237 0.09091 0.59051 0.0
C210 C 0.05327 0.10971 0.57577 0.0
C211 C 0.08786 0.09357 0.58963 0.0
C212 C 0.09364 0.11403 0.57432 0.0
O213 O 0.03276 0.1486 0.5321 0.0
C214 C 0.05781 0.17987 0.59394 0.0
O215 O 0.04161 0.16146 0.59823 0.0
H216 H 0.03334 0.11363 0.57309 0.0
H217 H 0.1123 0.1217 0.57064 0.0
N218 N 0.09131 0.15952 0.52266 0.0
N219 N 0.11611 0.17833 0.49361 0.0
C220 C 0.09866 0.18173 0.51213 0.0
C221 C 0.10464 0.14158 0.51047 0.0
C222 C 0.11979 0.15306 0.49256 0.0
C223 C 0.02855 0.1481 0.50838 0.0
O224 O 0.04614 0.1561 0.49275 0.0
H225 H 0.09061 0.19986 0.51724 0.0
H226 H 0.10299 0.12148 0.51397 0.0
O227 O 0.06824 0.18133 0.57227 0.0
H228 H 0.10137 0.0824 0.60021 0.0
H229 H 0.13238 0.1435 0.47953 0.0
Cu230 Cu 0.13085 0.81724 0.79682 0.0
N231 N 0.16269 0.8192 0.813 0.0
N232 N 0.1955 0.80615 0.83669 0.0
C233 C 0.17222 0.80057 0.8276 0.0
C234 C 0.20059 0.82962 0.82797 0.0
C235 C 0.18036 0.83764 0.81341 0.0
O236 O 0.13381 0.78766 0.77484 0.0
C237 C 0.10901 0.82959 0.84265 0.0
O238 O 0.12785 0.84582 0.84196 0.0
H239 H 0.16192 0.78349 0.83202 0.0
H240 H 0.17868 0.85575 0.80411 0.0
N241 N 0.12359 0.84531 0.77586 0.0
N242 N 0.1025 0.872 0.75023 0.0
C243 C 0.10062 0.85284 0.76719 0.0
C244 C 0.14048 0.85986 0.76348 0.0
C245 C 0.12761 0.87634 0.74789 0.0
C246 C 0.13496 0.76491 0.78271 0.0
O247 O 0.12926 0.76017 0.80638 0.0
H248 H 0.08295 0.84394 0.77263 0.0
H249 H 0.16082 0.8577 0.7645 0.0
O250 O 0.10553 0.81478 0.8239 0.0
H251 H 0.21785 0.84013 0.83157 0.0
H252 H 0.1362 0.88944 0.73469 0.0
Cu253 Cu 0.46739 0.87909 0.05049 0.0
N254 N 0.46361 0.9093 0.069 0.0
N255 N 0.47575 0.94166 0.09371 0.0
C256 C 0.48243 0.92558 0.07498 0.0
C257 C 0.45144 0.9358 0.09916 0.0
C258 C 0.44408 0.91574 0.08406 0.0
O259 O 0.49729 0.88328 0.02901 0.0
C260 C 0.47687 0.85455 0.09768 0.0
O261 O 0.48964 0.87522 0.10302 0.0
H262 H 0.50107 0.92491 0.06658 0.0
H263 H 0.4264 0.90541 0.08527 0.0
N264 N 0.43928 0.87295 0.02931 0.0
N265 N 0.41224 0.85352 1.00274 0.0
C266 C 0.43414 0.85165 0.01604 0.0
C267 C 0.42013 0.8889 0.02403 0.0
C268 C 0.40353 0.87706 1.00767 0.0
C269 C 0.5199 0.88537 0.03724 0.0
O270 O 0.52432 0.88088 0.06122 0.0
H271 H 0.44618 0.83506 0.01622 0.0
H272 H 0.4185 0.90795 0.03134 0.0
O273 O 0.46837 0.85158 0.0753 0.0
H274 H 0.44035 0.94426 0.11415 0.0
H275 H 0.38672 0.88548 0.99949 0.0
Cu276 Cu 0.40279 0.81722 0.22944 0.0
N277 N 0.37289 0.82314 0.21084 0.0
N278 N 0.33846 0.81372 0.18779 0.0
C279 C 0.35338 0.80688 0.2074 0.0
C280 C 0.34861 0.83537 0.17883 0.0
C281 C 0.36981 0.84111 0.19305 0.0
O282 O 0.39703 0.78727 0.25055 0.0
C283 C 0.4263 0.80611 0.18219 0.0
O284 O 0.4048 0.79454 0.17739 0.0
H285 H 0.35109 0.78943 0.21785 0.0
H286 H 0.38307 0.85635 0.18956 0.0
N287 N 0.41064 0.84475 0.25089 0.0
N288 N 0.43109 0.86994 0.27858 0.0
C289 C 0.43133 0.84765 0.2658 0.0
C290 C 0.39693 0.86594 0.25429 0.0
C291 C 0.40944 0.88145 0.2712 0.0
C292 C 0.3926 0.76521 0.24186 0.0
O293 O 0.39487 0.76135 0.21748 0.0
H294 H 0.44646 0.83386 0.26678 0.0
H295 H 0.37905 0.86986 0.24508 0.0
O296 O 0.4301 0.81477 0.20439 0.0
H297 H 0.34165 0.84587 0.1627 0.0
H298 H 0.40291 0.8997 0.27782 0.0
Cu299 Cu 0.46594 0.15472 0.47871 0.0
N300 N 0.45937 0.12468 0.46093 0.0
N301 N 0.46751 0.08926 0.43918 0.0
C302 C 0.47559 0.10523 0.45743 0.0
C303 C 0.44523 0.09881 0.43109 0.0
C304 C 0.4403 0.12069 0.44448 0.0
O305 O 0.49784 0.14931 0.49695 0.0
C306 C 0.4763 0.17779 0.43133 0.0
O307 O 0.4896 0.15714 0.4274 0.0
H308 H 0.49372 0.10366 0.4669 0.0
H309 H 0.42462 0.13354 0.4415 0.0
N310 N 0.43934 0.16236 0.50136 0.0
N311 N 0.41448 0.18268 0.5293 0.0
C312 C 0.43634 0.18332 0.51578 0.0
C313 C 0.41869 0.1481 0.50587 0.0
C314 C 0.40338 0.16053 0.52296 0.0
C315 C 0.49715 0.13604 0.51708 0.0
O316 O 0.47496 0.1287 0.52568 0.0
H317 H 0.44964 0.19892 0.51584 0.0
H318 H 0.41498 0.12992 0.49722 0.0
O319 O 0.46681 0.18144 0.45319 0.0
H320 H 0.43364 0.09084 0.4162 0.0
H321 H 0.38551 0.15366 0.53035 0.0
Cu322 Cu 0.13176 0.21096 0.72808 0.0
N323 N 0.16193 0.20415 0.71033 0.0
N324 N 0.19733 0.21265 0.68852 0.0
C325 C 0.18212 0.21969 0.7078 0.0
C326 C 0.18666 0.19158 0.67882 0.0
C327 C 0.16485 0.18639 0.69231 0.0
O328 O 0.13793 0.2406 0.74954 0.0
C329 C 0.10996 0.2233 0.68035 0.0
O330 O 0.13206 0.234 0.67626 0.0
H331 H 0.18473 0.23687 0.71862 0.0
H332 H 0.1511 0.17177 0.68811 0.0
N333 N 0.12266 0.18353 0.7491 0.0
N334 N 0.10082 0.15856 0.77587 0.0
C335 C 0.10105 0.18055 0.76259 0.0
C336 C 0.1365 0.1627 0.7539 0.0
C337 C 0.12313 0.14732 0.77026 0.0
C338 C 0.14353 0.2625 0.74108 0.0
O339 O 0.14227 0.26647 0.71665 0.0
H340 H 0.08569 0.19411 0.76227 0.0
H341 H 0.1551 0.15901 0.74613 0.0
O342 O 0.10523 0.21453 0.70234 0.0
H343 H 0.19364 0.18122 0.66262 0.0
H344 H 0.12959 0.1294 0.77782 0.0
Cu345 Cu 0.06766 0.87726 0.98244 0.0
N346 N 0.07181 0.90784 0.96469 0.0
N347 N 0.05989 0.94008 0.93978 0.0
C348 C 0.05296 0.9239 0.95832 0.0
C349 C 0.08437 0.93454 0.93485 0.0
C350 C 0.09159 0.91452 0.95006 0.0
O351 O 0.03783 0.8815 1.00423 0.0
C352 C 0.05723 0.8546 0.93445 0.0
O353 O 0.04234 0.8742 0.93096 0.0
H354 H 0.03408 0.92281 0.96614 0.0
H355 H 0.10933 0.90429 0.94908 0.0
N356 N 0.0959 0.87021 1.00326 0.0
N357 N 0.12324 0.84978 0.02876 0.0
C358 C 0.10098 0.84854 0.01596 0.0
C359 C 0.11546 0.88572 1.00843 0.0
C360 C 0.13224 0.87327 0.02412 0.0
C361 C 1.01505 0.88357 0.99645 0.0
O362 O 1.01013 0.87885 0.97261 0.0
H363 H 0.0887 0.83211 0.01566 0.0
H364 H 0.11731 0.90487 1.00143 0.0
O365 O 0.06674 0.85093 0.95633 0.0
H366 H 0.09565 0.94307 0.92003 0.0
H367 H 0.14942 0.88122 0.03202 0.0
Cu368 Cu 0.30108 0.39957 0.20848 0.0
N369 N 0.31866 0.3692 0.20224 0.0
N370 N 0.34255 0.33484 0.20988 0.0
C371 C 0.33032 0.35497 0.21995 0.0
C372 C 0.33856 0.33674 0.18474 0.0
C373 C 0.32394 0.35792 0.18009 0.0
O374 O 0.28299 0.39447 0.24054 0.0
C375 C 0.34588 0.42401 0.22472 0.0
O376 O 0.34378 0.40816 0.24371 0.0
H377 H 0.33038 0.35987 0.23976 0.0
H378 H 0.31796 0.36481 0.16181 0.0
N379 N 0.27754 0.40688 0.18247 0.0
N380 N 0.251 0.42723 0.15608 0.0
C381 C 0.26729 0.42945 0.17581 0.0
C382 C 0.26698 0.3899 0.16668 0.0
C383 C 0.25075 0.40231 0.15047 0.0
C384 C 0.27088 0.37364 0.243 0.0
O385 O 0.27026 0.3579 0.2238 0.0
H386 H 0.27168 0.44712 0.18519 0.0
H387 H 0.27052 0.36975 0.16719 0.0
O388 O 0.32768 0.42542 0.20894 0.0
H389 H 0.34567 0.32374 0.17062 0.0
H390 H 0.23904 0.39351 0.13614 0.0
Cu391 Cu 0.80231 0.12196 0.81238 0.0
N392 N 0.82221 0.15117 0.81676 0.0
N393 N 0.84706 0.18391 0.80581 0.0
C394 C 0.83364 0.16368 0.79771 0.0
C395 C 0.84356 0.18429 0.83112 0.0
C396 C 0.82838 0.164 0.83782 0.0
O397 O 0.78355 0.12798 0.78091 0.0
C398 C 0.84734 0.09381 0.80147 0.0
O399 O 0.85154 0.11146 0.78452 0.0
H400 H 0.83222 0.1578 0.77819 0.0
H401 H 0.82215 0.1591 0.85665 0.0
N402 N 0.77888 0.11722 0.83893 0.0
N403 N 0.75031 0.09903 0.8647 0.0
C404 C 0.76749 0.09535 0.84602 0.0
C405 C 0.76856 0.13522 0.85368 0.0
C406 C 0.75094 0.12412 0.86944 0.0
C407 C 0.77213 0.14931 0.78026 0.0
O408 O 0.7723 0.16351 0.80062 0.0
H409 H 0.77104 0.07732 0.83698 0.0
H410 H 0.77308 0.15516 0.85265 0.0
O411 O 0.82607 0.09352 0.81295 0.0
H412 H 0.85077 0.1985 0.84395 0.0
H413 H 0.73926 0.13382 0.88319 0.0
Cu414 Cu 0.15375 0.54821 0.05843 0.0
N415 N 0.12469 0.56768 0.06491 0.0
N416 N 0.09283 0.59451 0.05644 0.0
C417 C 0.10857 0.57655 0.04719 0.0
C418 C 0.09925 0.59691 0.08101 0.0
C419 C 0.11894 0.58045 0.08614 0.0
O420 O 0.14629 0.52882 0.02747 0.0
C421 C 0.1792 0.59505 0.04822 0.0
O422 O 0.15888 0.60032 0.03488 0.0
H423 H 0.10946 0.57103 0.02752 0.0
H424 H 0.1295 0.57922 0.10361 0.0
N425 N 0.16116 0.52598 0.0855 0.0
N426 N 0.18205 0.4993 0.11133 0.0
C427 C 0.18246 0.51211 0.08911 0.0
C428 C 0.14687 0.52175 0.10614 0.0
C429 C 0.15967 0.50546 0.12204 0.0
C430 C 0.13025 0.51075 0.02941 0.0
O431 O 0.12114 0.50548 0.0519 0.0
H432 H 0.19819 0.51196 0.07598 0.0
H433 H 0.12845 0.53007 0.1095 0.0
O434 O 0.18179 0.57268 0.05698 0.0
H435 H 0.0916 0.61083 0.09392 0.0
H436 H 0.1529 0.49848 0.14005 0.0
Cu437 Cu 0.72958 0.90094 0.3182 0.0
N438 N 0.71173 0.87067 0.32433 0.0
N439 N 0.6893 0.83536 0.31686 0.0
C440 C 0.70572 0.85255 0.30733 0.0
C441 C 0.6852 0.84266 0.34093 0.0
C442 C 0.69883 0.86453 0.34539 0.0
O443 O 0.75076 0.89544 0.28838 0.0
C444 C 0.68172 0.92401 0.30788 0.0
O445 O 0.67647 0.90224 0.29711 0.0
H446 H 0.71286 0.8522 0.28821 0.0
H447 H 0.69856 0.87576 0.36248 0.0
N448 N 0.75101 0.909 0.34559 0.0
N449 N 0.77717 0.93027 0.37159 0.0
C450 C 0.764 0.93076 0.3496 0.0
C451 C 0.75644 0.89421 0.36555 0.0
C452 C 0.77252 0.90719 0.38153 0.0
C453 C 0.74205 0.89173 0.26625 0.0
O454 O 0.71768 0.89491 0.26226 0.0
H455 H 0.76365 0.9467 0.33675 0.0
H456 H 0.74939 0.87517 0.36821 0.0
O457 O 0.70425 0.92796 0.31578 0.0
H458 H 0.67247 0.8334 0.35405 0.0
H459 H 0.78069 0.89989 0.39881 0.0
Cu460 Cu 0.88053 0.9817 0.06599 0.0
N461 N 0.91065 0.9632 0.07058 0.0
N462 N 0.94259 0.9374 0.05945 0.0
C463 C 0.92593 0.95523 0.05174 0.0
C464 C 0.93801 0.9344 0.08435 0.0
C465 C 0.91813 0.9501 0.09108 0.0
O466 O 0.88607 1.0036 0.03675 0.0
C467 C 0.84187 0.9481 0.08117 0.0
O468 O 0.84443 0.96035 0.10259 0.0
H469 H 0.92429 0.96172 0.03248 0.0
H470 H 0.90873 0.95068 0.10924 0.0
N471 N 0.87289 1.00316 0.09361 0.0
N472 N 0.85229 0.03077 0.11869 0.0
C473 C 0.85183 0.01747 0.09676 0.0
C474 C 0.88719 1.00764 0.11417 0.0
C475 C 0.87455 0.02448 0.12965 0.0
C476 C 0.88797 0.99637 1.0139 0.0
O477 O 0.88293 0.97266 1.00829 0.0
H478 H 0.83626 0.01756 0.08346 0.0
H479 H 0.90559 0.99933 0.11766 0.0
O480 O 0.85442 0.95549 0.06192 0.0
H481 H 0.9473 0.92073 0.09644 0.0
H482 H 0.88142 0.03182 0.14747 0.0
Cu483 Cu 0.2327 0.62927 0.71541 0.0
N484 N 0.21402 0.65923 0.71039 0.0
N485 N 0.18874 0.69173 0.72083 0.0
C486 C 0.20698 0.67559 0.72867 0.0
C487 C 0.18464 0.68583 0.69638 0.0
C488 C 0.20007 0.66565 0.69006 0.0
O489 O 0.25496 0.63499 0.74451 0.0
C490 C 0.18553 0.60497 0.72663 0.0
O491 O 0.18046 0.62597 0.7389 0.0
H492 H 0.21415 0.67491 0.74776 0.0
H493 H 0.19987 0.65529 0.67244 0.0
N494 N 0.25362 0.62173 0.6875 0.0
N495 N 0.28064 0.60097 0.66195 0.0
C496 C 0.26747 0.60047 0.68395 0.0
C497 C 0.25813 0.63613 0.66702 0.0
C498 C 0.27463 0.62339 0.65126 0.0
C499 C 0.2479 0.63821 0.7673 0.0
O500 O 0.22404 0.63418 0.77323 0.0
H501 H 0.26752 0.58482 0.69714 0.0
H502 H 0.25009 0.65469 0.66383 0.0
O503 O 0.20785 0.60173 0.7179 0.0
H504 H 0.17032 0.69438 0.68446 0.0
H505 H 0.28201 0.63031 0.63347 0.0
Cu506 Cu 0.15629 0.48037 0.46597 0.0
N507 N 0.1244 0.46443 0.46334 0.0
N508 N 0.08921 0.44408 0.47614 0.0
C509 C 0.11 0.45733 0.48317 0.0
C510 C 0.09071 0.44272 0.45069 0.0
C511 C 0.11241 0.45521 0.44288 0.0
O512 O 0.15404 0.50214 0.49581 0.0
C513 C 0.17844 0.43147 0.47451 0.0
O514 O 0.15789 0.4272 0.48782 0.0
H515 H 0.11561 0.46045 0.50249 0.0
H516 H 0.11936 0.45667 0.42372 0.0
N517 N 0.16308 0.50187 0.4383 0.0
N518 N 0.18347 0.52924 0.41281 0.0
C519 C 0.18498 0.51442 0.43368 0.0
C520 C 0.1472 0.509 0.41972 0.0
C521 C 0.15972 0.52568 0.40396 0.0
C522 C 0.15317 0.49484 0.51872 0.0
O523 O 0.15827 0.47109 0.52398 0.0
H524 H 0.20169 0.51256 0.44539 0.0
H525 H 0.1277 0.50293 0.41799 0.0
O526 O 0.18226 0.45371 0.46584 0.0
H527 H 0.07735 0.43301 0.43856 0.0
H528 H 0.15171 0.53503 0.38761 0.0
Cu529 Cu 0.38277 0.54752 0.96423 0.0
N530 N 0.41642 0.55845 0.95963 0.0
N531 N 0.45317 0.57911 0.96532 0.0
C532 C 0.42881 0.5765 0.97289 0.0
C533 C 0.45626 0.56166 0.94691 0.0
C534 C 0.43363 0.54903 0.94344 0.0
O535 O 0.38406 0.52493 0.99331 0.0
C536 C 0.36644 0.59719 0.9559 0.0
O537 O 0.38619 0.59695 0.94081 0.0
H538 H 0.42009 0.58759 0.98772 0.0
H539 H 0.43009 0.53368 0.93038 0.0
N540 N 0.37079 0.52974 0.93573 0.0
N541 N 0.34792 0.50379 0.91081 0.0
C542 C 0.35469 0.50979 0.93484 0.0
C543 C 0.37438 0.53653 0.91152 0.0
C544 C 0.3605 0.5206 0.8962 0.0
C545 C 0.38907 0.53331 0.0153 0.0
O546 O 0.3899 0.55791 0.01884 0.0
H547 H 0.34808 0.50007 0.95156 0.0
H548 H 0.38573 0.55248 0.90548 0.0
O549 O 0.36098 0.57733 0.96852 0.0
H550 H 0.47386 0.55761 0.9372 0.0
H551 H 0.35911 0.52193 0.87585 0.0
Cu552 Cu 0.71615 0.8019 0.9004 0.0
N553 N 0.71124 0.82087 0.87071 0.0
N554 N 0.72161 0.84479 0.8372 0.0
C555 C 0.72957 0.82732 0.8541 0.0
C556 C 0.69719 0.84939 0.84335 0.0
C557 C 0.69089 0.83469 0.86404 0.0
O558 O 0.74428 0.77895 0.89324 0.0
C559 C 0.72912 0.84842 0.92487 0.0
O560 O 0.74109 0.85353 0.90372 0.0
H561 H 0.7488 0.82029 0.85515 0.0
H562 H 0.67322 0.83521 0.8744 0.0
N563 N 0.68777 0.78157 0.90835 0.0
N564 N 0.66222 0.75454 0.92924 0.0
C565 C 0.68426 0.76784 0.92965 0.0
C566 C 0.66721 0.77692 0.89403 0.0
C567 C 0.65145 0.76042 0.90684 0.0
C568 C 0.76776 0.78437 0.89153 0.0
O569 O 0.77576 0.80673 0.89891 0.0
H570 H 0.69758 0.76785 0.94518 0.0
H571 H 0.66405 0.7847 0.8754 0.0
O572 O 0.72007 0.82623 0.92806 0.0
H573 H 0.68521 0.86354 0.83463 0.0
H574 H 0.63369 0.75284 0.8999 0.0
Cu575 Cu 0.48154 0.4657 0.15248 0.0
N576 N 0.46278 0.46013 0.12289 0.0
N577 N 0.43714 0.47003 0.09061 0.0
C578 C 0.45178 0.47888 0.10959 0.0
C579 C 0.43923 0.44458 0.09187 0.0
C580 C 0.45485 0.4385 0.112 0.0
O581 O 0.50045 0.49712 0.14624 0.0
C582 C 0.44626 0.44775 0.18775 0.0
O583 O 0.45741 0.42619 0.18242 0.0
H584 H 0.4546 0.49872 0.11384 0.0
H585 H 0.45954 0.4197 0.11858 0.0
N586 N 0.50464 0.43925 0.15969 0.0
N587 N 0.53174 0.41342 0.18007 0.0
C588 C 0.51614 0.43375 0.18191 0.0
C589 C 0.51364 0.42209 0.14321 0.0
C590 C 0.53029 0.40625 0.15562 0.0
C591 C 0.51214 0.49832 0.12514 0.0
O592 O 0.51235 0.47825 0.11049 0.0
H593 H 0.51299 0.44436 0.19912 0.0
H594 H 0.50877 0.42139 0.12339 0.0
O595 O 0.45513 0.46816 0.17836 0.0
H596 H 0.42966 0.43131 0.07954 0.0
H597 H 0.54109 0.39112 0.14703 0.0
Cu598 Cu 0.81783 0.23229 0.40377 0.0
N599 N 0.82223 0.21345 0.37392 0.0
N600 N 0.81158 0.18819 0.34155 0.0
C601 C 0.80312 0.20328 0.36034 0.0
C602 C 0.83712 0.18932 0.34303 0.0
C603 C 0.84364 0.20473 0.36316 0.0
O604 O 0.78622 0.25128 0.39908 0.0
C605 C 0.80622 0.18643 0.42968 0.0
O606 O 0.78931 0.18353 0.41171 0.0
H607 H 0.78331 0.2067 0.36444 0.0
H608 H 0.86259 0.20869 0.36991 0.0
N609 N 0.84457 0.25541 0.40962 0.0
N610 N 0.87022 0.28348 0.42884 0.0
C611 C 0.85119 0.26645 0.43176 0.0
C612 C 0.85997 0.26579 0.39221 0.0
C613 C 0.87566 0.28311 0.40393 0.0
C614 C 0.78486 0.26403 0.37861 0.0
O615 O 0.80468 0.26434 0.36357 0.0
H616 H 0.84157 0.26279 0.44945 0.0
H617 H 0.85943 0.2615 0.37224 0.0
O618 O 0.81814 0.20741 0.43112 0.0
H619 H 0.85012 0.17906 0.33096 0.0
H620 H 0.88982 0.29478 0.39478 0.0
Cu621 Cu 0.05447 0.56588 0.65205 0.0
N622 N 0.07408 0.56971 0.62261 0.0
N623 N 0.09998 0.55843 0.59093 0.0
C624 C 0.08411 0.55037 0.6093 0.0
C625 C 0.09948 0.58395 0.59241 0.0
C626 C 0.08366 0.59085 0.6121 0.0
O627 O 0.03492 0.53463 0.64733 0.0
C628 C 0.09981 0.55444 0.67925 0.0
O629 O 0.10351 0.53786 0.66115 0.0
H630 H 0.08002 0.53071 0.61331 0.0
H631 H 0.08001 0.60986 0.61876 0.0
N632 N 0.03161 0.59291 0.65723 0.0
N633 N 1.00443 0.61953 0.67658 0.0
C634 C 0.02187 0.60086 0.67952 0.0
C635 C 0.01989 0.60694 0.63956 0.0
C636 C 1.00312 0.62317 0.65133 0.0
C637 C 0.02264 0.53305 0.62657 0.0
O638 O 0.0233 0.55241 0.61101 0.0
H639 H 0.02724 0.59277 0.69752 0.0
H640 H 0.02273 0.60493 0.61943 0.0
O641 O 0.07866 0.56613 0.6801 0.0
H642 H 0.11044 0.59668 0.58067 0.0
H643 H 0.99013 0.63576 0.64174 0.0
Cu644 Cu 0.71594 0.23317 0.62977 0.0
N645 N 0.71019 0.21459 0.65952 0.0
N646 N 0.71931 0.192 0.69426 0.0
C647 C 0.72724 0.21008 0.678 0.0
C648 C 0.6963 0.18484 0.68568 0.0
C649 C 0.69074 0.19878 0.66429 0.0
O650 O 0.74616 0.25402 0.6359 0.0
C651 C 0.69809 0.19983 0.59237 0.0
O652 O 0.67667 0.21136 0.59754 0.0
H653 H 0.74575 0.21877 0.67869 0.0
H654 H 0.67426 0.19661 0.65231 0.0
N655 N 0.68898 0.25576 0.62296 0.0
N656 N 0.66365 0.28409 0.60379 0.0
C657 C 0.68386 0.26844 0.6013 0.0
C658 C 0.6715 0.2638 0.63963 0.0
C659 C 0.65598 0.28126 0.62795 0.0
C660 C 0.7684 0.2458 0.64053 0.0
O661 O 0.77306 0.22154 0.63759 0.0
H662 H 0.69512 0.2667 0.58429 0.0
H663 H 0.6704 0.25767 0.65909 0.0
O664 O 0.71842 0.20727 0.60322 0.0
H665 H 0.6846 0.17015 0.69392 0.0
H666 H 0.64029 0.29123 0.63659 0.0
Cu667 Cu 0.05251 0.47456 0.87376 0.0
N668 N 0.05889 0.46218 0.90639 0.0
N669 N 0.07655 0.4652 0.94496 0.0
C670 C 0.07955 0.46907 0.91989 0.0
C671 C 0.05312 0.45502 0.94721 0.0
C672 C 0.04226 0.4533 0.92347 0.0
O673 O 0.03886 0.50841 0.87967 0.0
C674 C 0.08843 0.46495 0.83403 0.0
O675 O 0.06848 0.4581 0.82083 0.0
H676 H 0.09564 0.47877 0.91166 0.0
H677 H 0.0228 0.44833 0.91931 0.0
N678 N 0.02667 0.45837 0.85462 0.0
N679 N 0.99819 0.43381 0.83449 0.0
C680 C 0.01768 0.43442 0.85136 0.0
C681 C 1.01243 0.47278 0.83917 0.0
C682 C 0.99506 0.45792 0.82692 0.0
C683 C 0.04856 0.52532 0.89383 0.0
O684 O 0.07174 0.52224 0.90231 0.0
H685 H 0.02485 0.41802 0.86132 0.0
H686 H 1.01463 0.49302 0.83696 0.0
O687 O 0.08515 0.47404 0.85608 0.0
H688 H 0.0435 0.45132 0.96488 0.0
H689 H 0.98095 0.46434 0.81351 0.0
Cu690 Cu 0.81473 0.8029 0.1276 0.0
N691 N 0.819 0.81954 0.1587 0.0
N692 N 0.80677 0.84247 0.19221 0.0
C693 C 0.80039 0.82412 0.17558 0.0
C694 C 0.8307 0.84911 0.18607 0.0
C695 C 0.8381 0.83512 0.16529 0.0
O696 O 0.78584 0.77983 0.13176 0.0
C697 C 0.80071 0.85067 0.10746 0.0
O698 O 0.78641 0.85154 0.12772 0.0
H699 H 0.78195 0.81524 0.17473 0.0
H700 H 0.85535 0.83761 0.15451 0.0
N701 N 0.84325 0.783 0.11953 0.0
N702 N 0.86946 0.75664 0.09878 0.0
C703 C 0.84717 0.76944 0.09821 0.0
C704 C 0.86376 0.77873 0.13401 0.0
C705 C 0.87993 0.76263 0.12128 0.0
C706 C 0.76266 0.78605 0.13455 0.0
O707 O 0.75599 0.80968 0.13075 0.0
H708 H 0.83401 0.76926 0.08254 0.0
H709 H 0.86665 0.78656 0.15266 0.0
O710 O 0.81218 0.83004 0.10234 0.0
H711 H 0.84135 0.86433 0.19476 0.0
H712 H 0.89782 0.75546 0.12831 0.0
Cu713 Cu 0.4819 0.56756 0.37994 0.0
N714 N 0.46305 0.5733 0.40955 0.0
N715 N 0.44053 0.56469 0.44438 0.0
C716 C 0.45971 0.55727 0.42916 0.0
C717 C 0.43173 0.5864 0.43427 0.0
C718 C 0.44563 0.59164 0.41281 0.0
O719 O 0.50349 0.53792 0.38565 0.0
C720 C 0.43467 0.55683 0.35578 0.0
O721 O 0.42932 0.54518 0.37705 0.0
H722 H 0.47003 0.53972 0.43143 0.0
H723 H 0.44232 0.60697 0.39966 0.0
N724 N 0.50305 0.59545 0.37269 0.0
N725 N 0.52913 0.62232 0.35236 0.0
C726 C 0.516 0.60026 0.35114 0.0
C727 C 0.50836 0.61499 0.3881 0.0
C728 C 0.52443 0.63147 0.37572 0.0
C729 C 0.49523 0.51554 0.38927 0.0
O730 O 0.47087 0.51112 0.38663 0.0
H731 H 0.51567 0.58791 0.33483 0.0
H732 H 0.50121 0.61699 0.40715 0.0
O733 O 0.45716 0.56516 0.35241 0.0
H734 H 0.41601 0.59736 0.44156 0.0
H735 H 0.53256 0.64853 0.38364 0.0
Cu736 Cu 0.90559 0.71778 0.79639 0.0
N737 N 0.87254 0.7143 0.80962 0.0
N738 N 0.83727 0.72368 0.83156 0.0
C739 C 0.86116 0.73079 0.82549 0.0
C740 C 0.83365 0.70159 0.81917 0.0
C741 C 0.85525 0.69601 0.80553 0.0
O742 O 0.90285 0.74588 0.77252 0.0
C743 C 0.92386 0.71145 0.84542 0.0
O744 O 0.90431 0.69607 0.84618 0.0
H745 H 0.87018 0.74786 0.83227 0.0
H746 H 0.858 0.6798 0.7934 0.0
N747 N 0.9166 0.68848 0.779 0.0
N748 N 0.93835 0.66255 0.75299 0.0
C749 C 0.93382 0.68688 0.76007 0.0
C750 C 0.91035 0.66438 0.78432 0.0
C751 C 0.92347 0.64849 0.76835 0.0
C752 C 0.89827 0.76843 0.7797 0.0
O753 O 0.90008 0.77381 0.80385 0.0
H754 H 0.94347 0.70324 0.75244 0.0
H755 H 0.89759 0.65865 0.79924 0.0
O756 O 0.92871 0.72338 0.825 0.0
H757 H 0.8168 0.68994 0.82006 0.0
H758 H 0.92217 0.62805 0.7682 0.0
Cu759 Cu 0.56728 0.65324 0.04819 0.0
N760 N 0.57306 0.62287 0.06565 0.0
N761 N 0.56384 0.58708 0.0865 0.0
C762 C 0.55563 0.60461 0.06978 0.0
C763 C 0.58733 0.59469 0.09322 0.0
C764 C 0.59297 0.61675 0.08034 0.0
O765 O 0.53538 0.64783 0.02991 0.0
C766 C 0.55746 0.67651 0.09573 0.0
O767 O 0.54423 0.65587 0.10003 0.0
H768 H 0.53673 0.60504 0.06184 0.0
H769 H 0.6099 0.62815 0.08238 0.0
N770 N 0.5941 0.66073 0.02566 0.0
N771 N 0.6203 0.68133 0.9991 0.0
C772 C 0.59891 0.68267 1.01329 0.0
C773 C 0.61295 0.64499 0.01888 0.0
C774 C 0.62897 0.65751 1.00249 0.0
C775 C 0.53618 0.63546 1.00921 0.0
O776 O 0.55838 0.62913 0.99994 0.0
H777 H 0.58712 0.69936 0.01487 0.0
H778 H 0.61478 0.62562 0.02525 0.0
O779 O 0.56669 0.67996 0.07374 0.0
H780 H 0.59939 0.58522 0.1068 0.0
H781 H 0.64539 0.64939 0.99331 0.0
Cu782 Cu 0.63081 0.31893 0.30174 0.0
N783 N 0.6606 0.3255 0.32018 0.0
N784 N 0.69562 0.31699 0.34258 0.0
C785 C 0.68074 0.30996 0.32302 0.0
C786 C 0.68478 0.33801 0.35214 0.0
C787 C 0.6632 0.3432 0.33832 0.0
O788 O 0.63734 0.28991 0.27959 0.0
C789 C 0.60837 0.30574 0.34886 0.0
O790 O 0.63018 0.29443 0.35279 0.0
H791 H 0.68354 0.29284 0.31216 0.0
H792 H 0.64942 0.35783 0.34228 0.0
N793 N 0.62204 0.34681 0.28121 0.0
N794 N 0.60094 0.372 0.2541 0.0
C795 C 0.60136 0.34937 0.26627 0.0
C796 C 0.63506 0.36854 0.27848 0.0
C797 C 0.62213 0.38406 0.26192 0.0
C798 C 0.64288 0.26766 0.28707 0.0
O799 O 0.64135 0.26245 0.31128 0.0
H800 H 0.58674 0.33507 0.26478 0.0
H801 H 0.65278 0.3728 0.28786 0.0
O802 O 0.6039 0.31493 0.327 0.0
H803 H 0.69155 0.34843 0.36842 0.0
H804 H 0.62811 0.40268 0.25579 0.0
Cu805 Cu 0.96537 0.37935 0.55261 0.0
N806 N 0.95842 0.40932 0.57063 0.0
N807 N 0.96682 0.44481 0.59231 0.0
C808 C 0.97328 0.43009 0.57246 0.0
C809 C 0.94659 0.43337 0.60292 0.0
C810 C 0.94145 0.41154 0.58952 0.0
O811 O 0.9962 0.38512 0.53251 0.0
C812 C 0.97606 0.35664 0.60023 0.0
O813 O 0.98793 0.37808 0.6044 0.0
H814 H 0.98959 0.43355 0.56062 0.0
H815 H 0.92755 0.39727 0.59437 0.0
N816 N 0.93858 0.37204 0.53004 0.0
N817 N 0.91355 0.35293 0.50138 0.0
C818 C 0.93338 0.35026 0.51751 0.0
C819 C 0.92144 0.38887 0.52158 0.0
C820 C 0.90613 0.37724 0.50393 0.0
C821 C 0.01697 0.39325 0.54182 0.0
O822 O 0.01959 0.39428 0.56644 0.0
H823 H 0.9445 0.33316 0.51943 0.0
H824 H 0.92055 0.40848 0.52742 0.0
O825 O 0.9671 0.35245 0.57819 0.0
H826 H 0.9368 0.4398 0.6197 0.0
H827 H 0.89083 0.38608 0.49353 0.0
Cu828 Cu 0.90783 0.31022 0.73494 0.0
N829 N 0.87666 0.31616 0.71835 0.0
N830 N 0.84223 0.30736 0.69482 0.0
C831 C 0.85857 0.2989 0.71263 0.0
C832 C 0.85008 0.3311 0.68947 0.0
C833 C 0.87121 0.33643 0.70395 0.0
O834 O 0.90544 0.27748 0.75207 0.0
C835 C 0.93055 0.30579 0.68655 0.0
O836 O 0.91016 0.29234 0.68177 0.0
H837 H 0.85806 0.28 0.72033 0.0
H838 H 0.88306 0.3531 0.70249 0.0
N839 N 0.91328 0.33392 0.76115 0.0
N840 N 0.93087 0.36058 0.78943 0.0
C841 C 0.93346 0.34892 0.76667 0.0
C842 C 0.8978 0.3359 0.7812 0.0
C843 C 0.90849 0.35208 0.79855 0.0
C844 C 0.89951 0.25636 0.74211 0.0
O845 O 0.89834 0.25443 0.71741 0.0
H846 H 0.94982 0.35095 0.75448 0.0
H847 H 0.88033 0.32539 0.78347 0.0
O848 O 0.93431 0.31348 0.70911 0.0
H849 H 0.84245 0.34303 0.67469 0.0
H850 H 0.90073 0.35641 0.81696 0.0
Cu851 Cu 0.9712 0.66294 0.98124 0.0
N852 N 0.96813 0.63332 0.96188 0.0
N853 N 0.98235 0.60114 0.93813 0.0
C854 C 0.98619 0.61547 0.95896 0.0
C855 C 0.96043 0.60975 0.92813 0.0
C856 C 0.95182 0.62963 0.94269 0.0
O857 O 1.00061 0.65848 1.00336 0.0
C858 C 0.98084 0.68841 0.93471 0.0
O859 O 0.99669 0.66977 0.93027 0.0
H860 H 1.00242 0.61379 0.97125 0.0
H861 H 0.93605 0.64198 0.93832 0.0
N862 N 0.9426 0.66796 1.0019 0.0
N863 N 0.91457 0.68654 0.02796 0.0
C864 C 0.93639 0.68923 0.01469 0.0
C865 C 0.92422 0.65119 1.00738 0.0
C866 C 0.90701 0.66251 0.02347 0.0
C867 C 0.02323 0.65447 0.99593 0.0
O868 O 0.02871 0.65776 0.97196 0.0
H869 H 0.94766 0.70637 1.01424 0.0
H870 H 0.92358 0.63194 1.00044 0.0
O871 O 0.97153 0.69073 0.95684 0.0
H872 H 0.95221 0.6034 0.91049 0.0
H873 H 0.89065 0.65339 0.03181 0.0
Cu874 Cu 0.62798 0.71543 0.2296 0.0
N875 N 0.65846 0.71034 0.21203 0.0
N876 N 0.69174 0.72074 0.18774 0.0
C877 C 0.6741 0.72903 0.20432 0.0
C878 C 0.68703 0.69574 0.18503 0.0
C879 C 0.66646 0.68942 0.19995 0.0
O880 O 0.63244 0.74741 0.24776 0.0
C881 C 0.60395 0.72574 0.18251 0.0
O882 O 0.62335 0.74096 0.17908 0.0
H883 H 0.67168 0.74864 0.20974 0.0
H884 H 0.65699 0.67126 0.20063 0.0
N885 N 0.62089 0.689 0.2526 0.0
N886 N 0.6004 0.66436 0.28066 0.0
C887 C 0.59932 0.68541 0.266 0.0
C888 C 0.63605 0.66953 0.25892 0.0
C889 C 0.6235 0.65434 0.27608 0.0
C890 C 0.64717 0.74718 0.26691 0.0
O891 O 0.6565 0.72543 0.27451 0.0
H892 H 0.58304 0.69777 0.26459 0.0
H893 H 0.65498 0.66661 0.25161 0.0
O894 O 0.60126 0.71512 0.20398 0.0
H895 H 0.69658 0.68325 0.17192 0.0
H896 H 0.63099 0.63739 0.28481 0.0
Cu897 Cu 0.56716 0.37774 0.48106 0.0
N898 N 0.57093 0.40773 0.4622 0.0
N899 N 0.55942 0.44072 0.4381 0.0
C900 C 0.55148 0.42143 0.45287 0.0
C901 C 0.585 0.43937 0.43851 0.0
C902 C 0.59204 0.41888 0.45322 0.0
O903 O 0.53512 0.38173 0.49937 0.0
C904 C 0.55773 0.351 0.43518 0.0
O905 O 0.54152 0.36935 0.43079 0.0
H906 H 0.53181 0.41715 0.45684 0.0
H907 H 0.61114 0.41226 0.45666 0.0
N908 N 0.59364 0.37293 0.50457 0.0
N909 N 0.61934 0.3547 0.53316 0.0
C910 C 0.60059 0.35107 0.51601 0.0
C911 C 0.60856 0.39089 0.5148 0.0
C912 C 0.62426 0.37977 0.53245 0.0
C913 C 0.53322 0.40239 0.51175 0.0
O914 O 0.5529 0.41763 0.51271 0.0
H915 H 0.59141 0.33307 0.51252 0.0
H916 H 0.60767 0.41081 0.51015 0.0
O917 O 0.56855 0.34998 0.4567 0.0
H918 H 0.59768 0.45185 0.42833 0.0
H919 H 0.6381 0.38944 0.54409 0.0
Cu920 Cu 0.80168 0.90382 0.71176 0.0
N921 N 0.82047 0.87396 0.70662 0.0
N922 N 0.84529 0.84074 0.71602 0.0
C923 C 0.8279 0.85745 0.72463 0.0
C924 C 0.84875 0.84684 0.69149 0.0
C925 C 0.83348 0.86731 0.68579 0.0
O926 O 0.77945 0.89809 0.74091 0.0
C927 C 0.84843 0.9286 0.72355 0.0
O928 O 0.85336 0.90767 0.73597 0.0
H929 H 0.82164 0.8584 0.74403 0.0
H930 H 0.83309 0.87763 0.66815 0.0
N931 N 0.7806 0.91075 0.68382 0.0
N932 N 0.7545 0.93112 0.65698 0.0
C933 C 0.76978 0.93311 0.67752 0.0
C934 C 0.77172 0.89402 0.66684 0.0
C935 C 0.75565 0.90642 0.65039 0.0
C936 C 0.78643 0.89517 0.76376 0.0
O937 O 0.81027 0.89928 0.76972 0.0
H938 H 0.77282 0.95043 0.68802 0.0
H939 H 0.77606 0.87401 0.66688 0.0
O940 O 0.82632 0.93156 0.71417 0.0
H941 H 0.86254 0.83827 0.679 0.0
H942 H 0.74478 0.89755 0.63549 0.0
Cu943 Cu 0.30136 0.6271 0.31409 0.0
N944 N 0.3189 0.65791 0.31791 0.0
N945 N 0.34252 0.69117 0.30601 0.0
C946 C 0.32464 0.67418 0.29911 0.0
C947 C 0.34769 0.68589 0.3304 0.0
C948 C 0.33328 0.66525 0.33762 0.0
O949 O 0.27979 0.63065 0.28417 0.0
C950 C 0.34953 0.60413 0.30467 0.0
O951 O 0.35412 0.62499 0.292 0.0
H952 H 0.31674 0.67283 0.28034 0.0
H953 H 0.33448 0.65524 0.3554 0.0
N954 N 0.28026 0.62049 0.34209 0.0
N955 N 0.2543 0.60047 0.36925 0.0
C956 C 0.26726 0.59898 0.34719 0.0
C957 C 0.27511 0.63617 0.36144 0.0
C958 C 0.25913 0.62396 0.37812 0.0
C959 C 0.28795 0.63218 0.26157 0.0
O960 O 0.31207 0.62782 0.2572 0.0
H961 H 0.26746 0.58248 0.33505 0.0
H962 H 0.28232 0.65526 0.36321 0.0
O963 O 0.32721 0.60041 0.31328 0.0
H964 H 0.36208 0.69519 0.34167 0.0
H965 H 0.25118 0.63204 0.39515 0.0
Cu966 Cu 0.65263 0.05341 0.56467 0.0
N967 N 0.61872 0.06352 0.56936 0.0
N968 N 0.58157 0.08309 0.56255 0.0
C969 C 0.60708 0.08431 0.55998 0.0
C970 C 0.57712 0.06093 0.57446 0.0
C971 C 0.59993 0.04888 0.57842 0.0
O972 O 0.65245 0.03306 0.53351 0.0
C973 C 0.67443 0.10183 0.54959 0.0
O974 O 0.66252 0.09884 0.52805 0.0
H975 H 0.61703 0.09946 0.55049 0.0
H976 H 0.60251 0.03003 0.58598 0.0
N977 N 0.66295 0.03253 0.5918 0.0
N978 N 0.68496 1.00546 0.6163 0.0
C979 C 0.68293 0.01648 0.59319 0.0
C980 C 0.65218 0.03177 0.61481 0.0
C981 C 0.66555 1.01518 0.62982 0.0
C982 C 0.63926 0.0395 0.51432 0.0
O983 O 0.62904 0.06212 0.51375 0.0
H984 H 0.69609 1.01361 0.57778 0.0
H985 H 0.63587 0.04281 0.62044 0.0
O986 O 0.67392 0.08399 0.5658 0.0
H987 H 0.55854 0.05322 0.57855 0.0
H988 H 0.66121 1.01057 0.64927 0.0
Cu989 Cu 0.23276 0.39935 0.81724 0.0
N990 N 0.2156 0.36832 0.82087 0.0
N991 N 0.19259 0.33508 0.80774 0.0
C992 C 0.21128 0.35166 0.80202 0.0
C993 C 0.18542 0.34103 0.83146 0.0
C994 C 0.19944 0.36166 0.83941 0.0
O995 O 0.25529 0.39567 0.78801 0.0
C996 C 0.18492 0.42098 0.80435 0.0
O997 O 0.18193 0.39994 0.79149 0.0
H998 H 0.22058 0.35269 0.78387 0.0
H999 H 0.19654 0.37234 0.85659 0.0
N1000 N 0.25263 0.4072 0.84583 0.0
N1001 N 0.2783 0.4284 0.87231 0.0
C1002 C 0.26846 0.42717 0.8487 0.0
C1003 C 0.25271 0.39531 0.86832 0.0
C1004 C 0.26848 0.4083 0.88464 0.0
C1005 C 0.24773 0.39472 0.76517 0.0
O1006 O 0.22388 0.39975 0.76022 0.0
H1007 H 0.27217 0.44092 0.834 0.0
H1008 H 0.24184 0.37851 0.87269 0.0
O1009 O 0.20629 0.42536 0.81481 0.0
H1010 H 0.16981 0.33238 0.84156 0.0
H1011 H 0.27252 0.40324 0.90404 0.0
Cu1012 Cu 0.37829 0.4805 0.56598 0.0
N1013 N 0.40825 0.46193 0.57117 0.0
N1014 N 0.44358 0.44027 0.56192 0.0
C1015 C 0.42547 0.4561 0.55325 0.0
C1016 C 0.43735 0.43565 0.58621 0.0
C1017 C 0.41555 0.44904 0.59186 0.0
O1018 O 0.38338 0.49971 0.53469 0.0
C1019 C 0.35379 0.43399 0.55475 0.0
O1020 O 0.37358 0.43062 0.54008 0.0
H1021 H 0.42413 0.46254 0.53389 0.0
H1022 H 0.40537 0.44889 0.6096 0.0
N1023 N 0.37202 0.50318 0.5928 0.0
N1024 N 0.3525 0.53029 0.61917 0.0
C1025 C 0.35024 0.5156 0.59828 0.0
C1026 C 0.38863 0.5105 0.61066 0.0
C1027 C 0.37674 0.52718 0.62683 0.0
C1028 C 0.40335 0.5134 0.53378 0.0
O1029 O 0.41781 0.51474 0.55395 0.0
H1030 H 0.33305 0.51378 0.58726 0.0
H1031 H 0.40815 0.50431 0.61168 0.0
O1032 O 0.35097 0.45543 0.56547 0.0
H1033 H 0.44782 0.42349 0.59894 0.0
H1034 H 0.38555 0.53681 0.6426 0.0
Cu1035 Cu 0.73406 0.12982 0.21598 0.0
N1036 N 0.7165 0.16052 0.21155 0.0
N1037 N 0.69327 0.19454 0.22205 0.0
C1038 C 0.71043 0.17722 0.22989 0.0
C1039 C 0.68851 0.18859 0.1977 0.0
C1040 C 0.70279 0.16762 0.19133 0.0
O1041 O 0.75595 0.13415 0.24557 0.0
C1042 C 0.68596 0.10702 0.22626 0.0
O1043 O 0.68161 0.12808 0.23868 0.0
H1044 H 0.71742 0.17591 0.24904 0.0
H1045 H 0.70194 0.15726 0.17373 0.0
N1046 N 0.75516 0.12282 0.18803 0.0
N1047 N 0.78141 0.10276 0.16113 0.0
C1048 C 0.76753 0.10101 0.18265 0.0
C1049 C 0.76166 0.13893 0.16945 0.0
C1050 C 0.7778 0.12672 0.15296 0.0
C1051 C 0.74839 0.1359 0.26835 0.0
O1052 O 0.72443 0.13144 0.27347 0.0
H1053 H 0.7664 0.08421 0.1943 0.0
H1054 H 0.75544 0.1584 0.16822 0.0
O1055 O 0.70819 0.10311 0.2175 0.0
H1056 H 0.67441 0.19755 0.18585 0.0
H1057 H 0.78685 0.13519 0.13668 0.0
Cu1058 Cu 0.65619 0.98008 0.9656 0.0
N1059 N 0.62608 0.96134 0.9617 0.0
N1060 N 0.59355 0.93665 0.97354 0.0
C1061 C 0.60962 0.9554 0.9803 0.0
C1062 C 0.59957 0.93113 0.94939 0.0
C1063 C 0.61974 0.94624 0.94221 0.0
O1064 O 0.65161 1.00173 0.99532 0.0
C1065 C 0.681 0.93312 0.97558 0.0
O1066 O 0.66038 0.92814 0.98856 0.0
H1067 H 0.61013 0.96388 0.99884 0.0
H1068 H 0.63017 0.94506 0.92466 0.0
N1069 N 0.66181 1.00144 0.93765 0.0
N1070 N 0.68031 0.02875 0.91082 0.0
C1071 C 0.68355 1.01337 0.93105 0.0
C1072 C 0.64431 1.00953 0.92102 0.0
C1073 C 0.65559 0.02638 0.90458 0.0
C1074 C 0.64909 0.99373 0.01789 0.0
O1075 O 0.65353 0.96975 0.02265 0.0
H1076 H 0.70111 1.01158 0.9415 0.0
H1077 H 0.62455 1.00399 0.92123 0.0
O1078 O 0.68392 0.95534 0.96653 0.0
H1079 H 0.59111 0.91612 0.93829 0.0
H1080 H 0.64626 0.03638 0.88934 0.0
Cu1081 Cu 0.88038 0.05128 0.4622 0.0
N1082 N 0.911 0.0684 0.45541 0.0
N1083 N 0.94623 0.09149 0.46203 0.0
C1084 C 0.92704 0.07822 0.47271 0.0
C1085 C 0.94197 0.08985 0.43691 0.0
C1086 C 0.92027 0.07576 0.43292 0.0
O1087 O 0.8862 0.03023 0.4921 0.0
C1088 C 0.85724 0.09911 0.47316 0.0
O1089 O 0.87845 0.10376 0.48528 0.0
H1090 H 0.92378 0.07685 0.49277 0.0
H1091 H 0.91147 0.07183 0.41489 0.0
N1092 N 0.87179 0.02898 0.43564 0.0
N1093 N 0.84991 1.00157 0.41147 0.0
C1094 C 0.84918 0.01755 0.43152 0.0
C1095 C 0.8873 0.01985 0.41764 0.0
C1096 C 0.87388 1.00317 0.40267 0.0
C1097 C 0.88984 0.03783 0.51465 0.0
O1098 O 0.88632 0.06184 0.52004 0.0
H1099 H 0.83258 0.02092 0.44305 0.0
H1100 H 0.9072 0.02449 0.41585 0.0
O1101 O 0.85357 0.07695 0.46425 0.0
H1102 H 0.9535 0.0985 0.42236 0.0
H1103 H 0.88142 0.9924 0.38698 0.0
C1104 C 0.13027 0.19131 0.45091 0.0
C1105 C 0.12704 0.19702 0.4767 0.0
C1106 C 0.14112 0.20882 0.43407 0.0
C1107 C 0.14968 0.23271 0.44228 0.0
H1108 H 0.12407 0.1732 0.44359 0.0
H1109 H 0.1431 0.20347 0.41443 0.0
S1110 S 0.14592 0.25705 0.50792 0.0
N1111 N 0.13344 0.22839 0.50966 0.0
N1112 N 0.15402 0.2612 0.47805 0.0
C1113 C 0.14675 0.23866 0.46805 0.0
C1114 C 0.13533 0.22091 0.4852 0.0
C1115 C 0.06304 0.86833 0.72483 0.0
C1116 C 0.08257 0.88333 0.7351 0.0
C1117 C 0.04509 0.87858 0.70798 0.0
C1118 C 0.04565 0.90435 0.70097 0.0
H1119 H 0.06215 0.84832 0.72917 0.0
H1120 H 0.03071 0.86618 0.70022 0.0
S1121 S 0.09212 0.95201 0.72367 0.0
N1122 N 0.10067 0.92554 0.73791 0.0
N1123 N 0.06717 0.9447 0.70628 0.0
C1124 C 0.06463 0.9197 0.71173 0.0
C1125 C 0.08302 0.90921 0.7287 0.0
C1126 C 0.41668 0.81975 0.97036 0.0
C1127 C 0.40115 0.83495 0.98578 0.0
C1128 C 0.40623 0.80274 0.95268 0.0
C1129 C 0.37977 0.79991 0.94984 0.0
H1130 H 0.43711 0.82148 0.9715 0.0
H1131 H 0.41903 0.79169 0.94112 0.0
S1132 S 0.33071 0.83438 0.98653 0.0
N1133 N 0.35785 0.84516 0.99778 0.0
N1134 N 0.33831 0.81366 0.96445 0.0
C1135 C 0.36402 0.8146 0.96555 0.0
C1136 C 0.37467 0.832 0.98346 0.0
C1137 C 0.44392 0.15144 0.20177 0.0
C1138 C 0.44964 0.15547 0.22746 0.0
C1139 C 0.46159 0.14046 0.18519 0.0
C1140 C 0.48567 0.13256 0.19357 0.0
H1141 H 0.42565 0.1571 0.19435 0.0
H1142 H 0.45621 0.13782 0.16563 0.0
S1143 S 0.51016 0.13859 0.259 0.0
N1144 N 0.48125 0.15058 0.26048 0.0
N1145 N 0.51437 0.12976 0.22935 0.0
C1146 C 0.49166 0.13633 0.21922 0.0
C1147 C 0.47373 0.14788 0.2361 0.0
C1148 C 0.12999 0.79815 0.07787 0.0
C1149 C 0.15648 0.79472 0.07967 0.0
C1150 C 0.11925 0.81558 0.06079 0.0
C1151 C 0.13453 0.83067 0.04498 0.0
H1152 H 0.11741 0.78725 0.08983 0.0
H1153 H 0.09884 0.81777 0.06045 0.0
S1154 S 0.20486 0.82863 0.04154 0.0
N1155 N 0.19764 0.80777 0.06363 0.0
N1156 N 0.17756 0.84014 0.03148 0.0
C1157 C 0.161 0.82713 0.04625 0.0
C1158 C 0.17193 0.80926 0.06352 0.0
C1159 C 0.47114 0.91654 0.31567 0.0
C1160 C 0.48409 0.9011 0.3331 0.0
C1161 C 0.4542 0.90621 0.29783 0.0
C1162 C 0.44963 0.87991 0.29634 0.0
H1163 H 0.47362 0.93688 0.31623 0.0
H1164 H 0.44456 0.91899 0.28506 0.0
S1165 S 0.47972 0.83099 0.3368 0.0
N1166 N 0.492 0.85792 0.34689 0.0
N1167 N 0.46002 0.83866 0.3138 0.0
C1168 C 0.46291 0.8642 0.31329 0.0
C1169 C 0.48008 0.87474 0.33154 0.0
C1170 C 0.36763 0.22245 0.56612 0.0
C1171 C 0.38312 0.23599 0.58306 0.0
C1172 C 0.37803 0.20543 0.54848 0.0
C1173 C 0.40442 0.2014 0.54673 0.0
H1174 H 0.34722 0.22452 0.56696 0.0
H1175 H 0.36524 0.19526 0.5361 0.0
S1176 S 0.45346 0.23317 0.58582 0.0
N1177 N 0.4264 0.24504 0.59611 0.0
N1178 N 0.44583 0.21294 0.56328 0.0
C1179 C 0.42018 0.2153 0.56313 0.0
C1180 C 0.40958 0.23253 0.58121 0.0
C1181 C 0.07752 0.12241 0.79513 0.0
C1182 C 0.08144 0.14876 0.79282 0.0
C1183 C 0.0599 0.1123 0.81242 0.0
C1184 C 0.04554 0.12805 0.82841 0.0
H1185 H 0.08827 0.10942 0.78351 0.0
H1186 H 0.05804 0.09193 0.81378 0.0
S1187 S 0.04754 0.19836 0.82928 0.0
N1188 N 0.06881 0.19037 0.80784 0.0
N1189 N 0.03547 0.17149 0.83976 0.0
C1190 C 0.04879 0.15444 0.82589 0.0
C1191 C 0.0667 0.16474 0.80824 0.0
C1192 C 0.22289 0.46485 0.15908 0.0
C1193 C 0.23561 0.4467 0.14431 0.0
C1194 C 0.20581 0.4822 0.14813 0.0
C1195 C 0.20107 0.48247 0.12189 0.0
H1196 H 0.22548 0.46503 0.17937 0.0
H1197 H 0.19606 0.49543 0.16035 0.0
S1198 S 0.2308 0.43992 0.07468 0.0
N1199 N 0.24319 0.43092 0.10188 0.0
N1200 N 0.21127 0.4634 0.08142 0.0
C1201 C 0.21435 0.46499 0.10683 0.0
C1202 C 0.2315 0.44715 0.11801 0.0
C1203 C 0.70777 0.08753 0.88086 0.0
C1204 C 0.73314 0.0808 0.87598 0.0
C1205 C 0.69074 0.07044 0.8921 0.0
C1206 C 0.69841 0.04598 0.89943 0.0
H1207 H 0.70094 0.10614 0.87567 0.0
H1208 H 0.67143 0.07654 0.89541 0.0
S1209 S 0.76282 0.01898 0.89112 0.0
N1210 N 0.76512 0.04791 0.87944 0.0
N1211 N 0.73318 1.01586 0.90081 0.0
C1212 C 0.72377 0.03901 0.89482 0.0
C1213 C 0.74107 0.05634 0.88299 0.0
C1214 C 0.81026 0.96323 0.36579 0.0
C1215 C 0.7939 0.94955 0.38177 0.0
C1216 C 0.82812 0.98048 0.3756 0.0
C1217 C 0.83012 0.98511 0.40177 0.0
H1218 H 0.80981 0.95997 0.34561 0.0
H1219 H 0.84063 0.99017 0.36257 0.0
S1220 S 0.79059 0.9553 0.45158 0.0
N1221 N 0.78001 0.94279 0.425 0.0
N1222 N 0.81354 0.97493 0.44337 0.0
C1223 C 0.81332 0.97212 0.41787 0.0
C1224 C 0.79529 0.95441 0.40791 0.0
C1225 C 0.82961 0.05005 0.15511 0.0
C1226 C 0.83335 0.04803 0.12879 0.0
C1227 C 0.81221 0.06741 0.16548 0.0
C1228 C 0.79794 0.08377 0.15004 0.0
H1229 H 0.84027 0.03809 0.16787 0.0
H1230 H 0.81042 0.06848 0.18582 0.0
S1231 S 0.79973 0.08564 0.07992 0.0
N1232 N 0.82078 0.06381 0.08753 0.0
N1233 N 0.78788 0.09591 0.1069 0.0
C1234 C 0.8011 0.08162 0.12367 0.0
C1235 C 0.81876 0.06389 0.1131 0.0
C1236 C 0.29943 0.57805 0.62546 0.0
C1237 C 0.29785 0.58207 0.65176 0.0
C1238 C 0.31677 0.56067 0.61501 0.0
C1239 C 0.33356 0.5468 0.63036 0.0
H1240 H 0.28714 0.58847 0.61281 0.0
H1241 H 0.3175 0.55859 0.59468 0.0
S1242 S 0.33675 0.54959 0.70039 0.0
N1243 N 0.31451 0.57025 0.6929 0.0
N1244 N 0.34667 0.53749 0.67338 0.0
C1245 C 0.33189 0.55029 0.65671 0.0
C1246 C 0.31414 0.56788 0.66736 0.0
C1247 C 0.22172 0.56671 0.36522 0.0
C1248 C 0.23778 0.58157 0.38046 0.0
C1249 C 0.20433 0.54951 0.3759 0.0
C1250 C 0.2025 0.54609 0.40227 0.0
H1251 H 0.2221 0.56892 0.3449 0.0
H1252 H 0.19215 0.53879 0.36338 0.0
S1253 S 0.24123 0.57945 0.45048 0.0
N1254 N 0.25149 0.59086 0.4233 0.0
N1255 N 0.21877 0.55888 0.44328 0.0
C1256 C 0.21891 0.56039 0.41768 0.0
C1257 C 0.23648 0.57804 0.40682 0.0
C1258 C 0.33346 0.47372 0.87763 0.0
C1259 C 0.33044 0.48439 0.90192 0.0
C1260 C 0.31631 0.4557 0.86802 0.0
C1261 C 0.29553 0.44726 0.88236 0.0
H1262 H 0.34935 0.47921 0.86592 0.0
H1263 H 0.31954 0.448 0.84934 0.0
S1264 S 0.2775 0.47024 0.94607 0.0
N1265 N 0.30372 0.48597 0.93937 0.0
N1266 N 0.27209 0.45171 0.92154 0.0
C1267 C 0.29212 0.45773 0.90656 0.0
C1268 C 0.3094 0.47632 0.91628 0.0
C1269 C 0.61553 0.717 0.96879 0.0
C1270 C 0.63121 0.70071 0.9829 0.0
C1271 C 0.62579 0.73467 0.95163 0.0
C1272 C 0.65221 0.73709 0.94803 0.0
H1273 H 0.59511 0.7156 0.9705 0.0
H1274 H 0.61287 0.74653 0.94104 0.0
S1275 S 0.70165 0.69983 0.98139 0.0
N1276 N 0.67465 0.6891 0.993 0.0
N1277 N 0.6938 0.72174 0.96058 0.0
C1278 C 0.66811 0.72132 0.96249 0.0
C1279 C 0.65766 0.70328 0.97989 0.0
C1280 C 0.57683 0.40784 0.23539 0.0
C1281 C 0.58227 0.3817 0.23636 0.0
C1282 C 0.55984 0.41796 0.21751 0.0
C1283 C 0.54774 0.40244 0.19954 0.0
H1284 H 0.58585 0.42066 0.24858 0.0
H1285 H 0.5567 0.43821 0.21729 0.0
S1286 S 0.5545 0.33263 0.19442 0.0
N1287 N 0.57358 0.34048 0.21787 0.0
N1288 N 0.54146 0.35932 0.18473 0.0
C1289 C 0.55256 0.3762 0.20063 0.0
C1290 C 0.5698 0.36589 0.2189 0.0
C1291 C 0.89686 0.34267 0.45886 0.0
C1292 C 0.90337 0.33481 0.48344 0.0
C1293 C 0.88623 0.32581 0.44124 0.0
C1294 C 0.88112 0.3004 0.44753 0.0
H1295 H 0.90022 0.36206 0.45312 0.0
H1296 H 0.88159 0.33283 0.42259 0.0
S1297 S 0.89443 0.27018 0.50937 0.0
N1298 N 0.90396 0.29976 0.51312 0.0
N1299 N 0.88366 0.26815 0.48013 0.0
C1300 C 0.88742 0.29226 0.47207 0.0
C1301 C 0.89868 0.30939 0.48994 0.0
C1302 C 0.96644 0.62841 0.73664 0.0
C1303 C 0.95587 0.65284 0.73403 0.0
C1304 C 0.98248 0.61794 0.71815 0.0
C1305 C 0.98887 0.63134 0.69604 0.0
H1306 H 0.96231 0.61713 0.75319 0.0
H1307 H 0.98946 0.59891 0.72103 0.0
S1308 S 0.96754 0.69656 0.68028 0.0
N1309 N 0.9535 0.69029 0.70744 0.0
N1310 N 0.98442 0.67118 0.67338 0.0
C1311 C 0.97901 0.65607 0.69343 0.0
C1312 C 0.96245 0.66667 0.71221 0.0
C1313 C 0.63504 0.34324 0.57574 0.0
C1314 C 0.63042 0.33647 0.55042 0.0
C1315 C 0.64588 0.32607 0.59292 0.0
C1316 C 0.65308 0.30152 0.58545 0.0
H1317 H 0.62988 0.3619 0.58243 0.0
H1318 H 0.64888 0.33214 0.61222 0.0
S1319 S 0.64548 0.2744 0.52126 0.0
N1320 N 0.63408 0.30343 0.51871 0.0
N1321 N 0.65475 0.27129 0.55092 0.0
C1322 C 0.64883 0.29454 0.56014 0.0
C1323 C 0.63737 0.31193 0.54269 0.0
C1324 C 0.97464 0.37585 0.79974 0.0
C1325 C 0.94803 0.37817 0.80195 0.0
C1326 C 0.9913 0.39303 0.81189 0.0
C1327 C 0.98193 0.41318 0.8266 0.0
H1328 H 0.98263 0.36075 0.78844 0.0
H1329 H 1.01154 0.3912 0.80894 0.0
S1330 S 0.9143 0.42816 0.8382 0.0
N1331 N 0.9135 0.40286 0.81992 0.0
N1332 N 0.94463 0.43435 0.8428 0.0
C1333 C 0.95554 0.4154 0.82925 0.0
C1334 C 0.93866 0.39815 0.81696 0.0
C1335 C 0.90669 0.73842 0.07653 0.0
C1336 C 0.88018 0.73981 0.07989 0.0
C1337 C 0.9177 0.72145 0.05923 0.0
C1338 C 0.90274 0.70488 0.04465 0.0
H1339 H 0.91908 0.75058 0.08743 0.0
H1340 H 0.93817 0.72088 0.05772 0.0
S1341 S 0.83238 0.70134 0.04549 0.0
N1342 N 0.83926 0.72318 0.06673 0.0
N1343 N 0.85984 0.69179 0.03395 0.0
C1344 C 0.87619 0.70636 0.04745 0.0
C1345 C 0.86496 0.72371 0.06505 0.0
C1346 C 0.56124 0.61758 0.31834 0.0
C1347 C 0.54577 0.63321 0.33338 0.0
C1348 C 0.57873 0.62787 0.30103 0.0
C1349 C 0.58132 0.65426 0.29772 0.0
H1350 H 0.56032 0.59722 0.32046 0.0
H1351 H 0.59037 0.61501 0.29015 0.0
S1352 S 0.54431 0.7035 0.33153 0.0
N1353 N 0.53338 0.6765 0.34289 0.0
N1354 N 0.56637 0.69575 0.31081 0.0
C1355 C 0.56551 0.67009 0.31222 0.0
C1356 C 0.54779 0.65961 0.32993 0.0
C1357 C 0.72771 0.96957 0.66122 0.0
C1358 C 0.73844 0.95057 0.64594 0.0
C1359 C 0.71077 0.98758 0.65129 0.0
C1360 C 0.70379 0.9876 0.62555 0.0
H1361 H 0.73187 0.97015 0.68123 0.0
H1362 H 0.70299 1.0016 0.66401 0.0
S1363 S 0.7277 0.94288 0.57697 0.0
N1364 N 0.74197 0.93391 0.60325 0.0
N1365 N 0.70967 0.96717 0.58484 0.0
C1366 C 0.71488 0.96911 0.60988 0.0
C1367 C 0.73221 0.95076 0.62 0.0
C1368 C 0.25524 0.33994 0.27236 0.0
C1369 C 0.25859 0.36593 0.26716 0.0
C1370 C 0.24284 0.33162 0.29431 0.0
C1371 C 0.23279 0.34892 0.31178 0.0
H1372 H 0.2623 0.32578 0.25933 0.0
H1373 H 0.24058 0.31148 0.2974 0.0
S1374 S 0.23745 0.41893 0.30797 0.0
N1375 N 0.25171 0.40889 0.28205 0.0
N1376 N 0.22801 0.39324 0.32311 0.0
C1377 C 0.2363 0.37495 0.3071 0.0
C1378 C 0.24934 0.38345 0.2849 0.0
C1379 C 0.90977 0.03023 0.55715 0.0
C1380 C 0.90119 0.02046 0.53388 0.0
C1381 C 0.92233 1.01489 0.57486 0.0
C1382 C 0.92675 0.98902 0.57021 0.0
H1383 H 0.90715 0.05006 0.56167 0.0
H1384 H 0.92842 0.02335 0.59246 0.0
S1385 S 0.90836 0.95383 0.51239 0.0
N1386 N 0.89807 0.98291 0.50734 0.0
N1387 N 0.92175 0.9543 0.54057 0.0
C1388 C 0.9181 0.97887 0.5472 0.0
C1389 C 0.90536 0.9945 0.52908 0.0
C1390 C 0.27121 0.67235 0.82645 0.0
C1391 C 0.29699 0.67715 0.82134 0.0
C1392 C 0.25581 0.65911 0.80927 0.0
C1393 C 0.26543 0.65016 0.78608 0.0
H1394 H 0.26285 0.6787 0.84401 0.0
H1395 H 0.23605 0.65629 0.81411 0.0
S1396 S 0.33176 0.65791 0.76354 0.0
N1397 N 0.33145 0.67199 0.79138 0.0
N1398 N 0.30273 0.64702 0.75913 0.0
C1399 C 0.29129 0.65464 0.78084 0.0
C1400 C 0.30698 0.6681 0.79843 0.0
C1401 C 0.63219 0.03606 0.03211 0.0
C1402 C 0.63724 1.01038 0.03747 0.0
C1403 C 0.61915 0.0516 0.04934 0.0
C1404 C 0.61032 0.04212 0.07256 0.0
H1405 H 0.63805 0.04422 1.01427 0.0
H1406 H 0.61547 0.0711 0.04422 0.0
S1407 S 0.61997 0.97683 0.09679 0.0
N1408 N 0.63318 0.9766 0.06853 0.0
N1409 N 0.60902 1.00582 0.10076 0.0
C1410 C 0.61573 0.01669 0.07848 0.0
C1411 C 0.62911 1.00087 0.06102 0.0
C1412 C 0.23198 0.6646 0.22912 0.0
C1413 C 0.24074 0.66852 0.20433 0.0
C1414 C 0.24697 0.65212 0.24722 0.0
C1415 C 0.27136 0.64287 0.24128 0.0
H1416 H 0.21365 0.6719 0.23476 0.0
H1417 H 0.23956 0.6503 0.26621 0.0
S1418 S 0.30183 0.64562 0.17803 0.0
N1419 N 0.2744 0.66012 0.17413 0.0
N1420 N 0.30266 0.63699 0.20798 0.0
C1421 C 0.27991 0.64583 0.21622 0.0
C1422 C 0.26463 0.65857 0.19782 0.0
C1423 C 0.6234 0.02976 0.47091 0.0
C1424 C 0.63162 0.02087 0.4946 0.0
C1425 C 0.61208 1.01354 0.4532 0.0
C1426 C 0.60814 0.98767 0.4584 0.0
H1427 H 0.62518 0.04964 0.46618 0.0
H1428 H 0.6061 0.02151 0.43534 0.0
S1429 S 0.62645 0.95472 0.51766 0.0
N1430 N 0.63567 0.98427 0.52212 0.0
N1431 N 0.61384 0.95389 0.48911 0.0
C1432 C 0.61695 0.97832 0.48177 0.0
C1433 C 0.62879 0.99487 0.49976 0.0
C1434 C 0.30397 0.36212 0.73339 0.0
C1435 C 0.29546 0.35827 0.7085 0.0
C1436 C 0.28882 0.37463 0.75134 0.0
C1437 C 0.26455 0.38399 0.74512 0.0
H1438 H 0.32221 0.35476 0.73922 0.0
H1439 H 0.29602 0.37642 0.77042 0.0
S1440 S 0.23474 0.38135 0.68152 0.0
N1441 N 0.26218 0.36677 0.67793 0.0
N1442 N 0.23363 0.38998 0.71146 0.0
C1443 C 0.25627 0.38109 0.71994 0.0
C1444 C 0.27169 0.3683 0.70173 0.0
C1445 C 0.90738 1.00358 0.97112 0.0
C1446 C 0.89956 1.01347 0.99458 0.0
C1447 C 0.92045 0.01855 0.95345 0.0
C1448 C 0.92614 0.04414 0.95834 0.0
H1449 H 0.90386 0.98393 0.96645 0.0
H1450 H 0.92601 1.01001 0.93571 0.0
S1451 S 0.90974 0.07956 0.01658 0.0
N1452 N 0.89825 0.05088 0.02146 0.0
N1453 N 0.92288 0.07878 0.98829 0.0
C1454 C 0.91811 0.05444 0.98148 0.0
C1455 C 0.90486 0.03919 0.99956 0.0
C1456 C 0.32894 0.25939 0.36176 0.0
C1457 C 0.32243 0.23529 0.35233 0.0
C1458 C 0.31111 0.27471 0.3742 0.0
C1459 C 0.28589 0.26667 0.37787 0.0
H1460 H 0.34804 0.26656 0.35948 0.0
H1461 H 0.31714 0.29321 0.38067 0.0
S1462 S 0.25894 0.20517 0.35667 0.0
N1463 N 0.28882 0.20419 0.34742 0.0
N1464 N 0.25544 0.23264 0.3711 0.0
C1465 C 0.27922 0.24236 0.36899 0.0
C1466 C 0.29742 0.22679 0.35619 0.0
C1467 C 1.00836 0.06327 0.62844 0.0
C1468 C 1.01594 0.03803 0.63252 0.0
C1469 C 0.02377 0.08042 0.61516 0.0
C1470 C 0.04752 0.07318 0.60532 0.0
H1471 H 0.99011 0.06984 0.63516 0.0
H1472 H 0.01693 0.09956 0.61253 0.0
S1473 S 0.07656 1.00943 0.61077 0.0
N1474 N 0.04929 1.00684 0.62588 0.0
N1475 N 0.0779 0.03896 0.60066 0.0
C1476 C 0.05562 0.04818 0.60966 0.0
C1477 C 0.03995 0.03067 0.62328 0.0
C1478 C 0.22834 0.80098 0.86989 0.0
C1479 C 0.21171 0.79021 0.85203 0.0
C1480 C 0.24487 0.78588 0.88432 0.0
C1481 C 0.24524 0.75935 0.8817 0.0
H1482 H 0.22866 0.82128 0.87268 0.0
H1483 H 0.25762 0.79509 0.89748 0.0
S1484 S 0.20693 0.72182 0.83623 0.0
N1485 N 0.19786 0.75134 0.83156 0.0
N1486 N 0.22815 0.72305 0.8591 0.0
C1487 C 0.22859 0.74831 0.86403 0.0
C1488 C 0.21203 0.76369 0.84911 0.0
C1489 C 0.49763 0.9998 0.12904 0.0
C1490 C 0.5234 0.99467 0.13409 0.0
C1491 C 0.48221 0.98237 0.11607 0.0
C1492 C 0.49191 0.95916 0.10732 0.0
H1493 H 0.4893 0.01761 0.13484 0.0
H1494 H 0.46263 0.98731 0.11238 0.0
S1495 S 0.55752 0.9355 0.117 0.0
N1496 N 0.55751 0.96385 0.13012 0.0
N1497 N 0.52852 0.93123 0.10608 0.0
C1498 C 0.51744 0.95347 0.11272 0.0
C1499 C 0.53313 0.97114 0.12604 0.0
C1500 C 0.29861 0.79002 0.19385 0.0
C1501 C 0.31725 0.79971 0.17759 0.0
C1502 C 0.27751 0.77685 0.18441 0.0
C1503 C 0.2744 0.77228 0.15832 0.0
H1504 H 0.30014 0.7931 0.21401 0.0
H1505 H 0.26352 0.77008 0.1978 0.0
S1506 S 0.31896 0.79227 0.10791 0.0
N1507 N 0.33194 0.80305 0.13421 0.0
N1508 N 0.2925 0.77783 0.11648 0.0
C1509 C 0.29332 0.78127 0.14188 0.0
C1510 C 0.31464 0.79514 0.1515 0.0
C1511 C 0.50269 0.02741 0.4378 0.0
C1512 C 0.50569 0.02261 0.41176 0.0
C1513 C 0.49066 0.04941 0.44657 0.0
C1514 C 0.48057 0.06723 0.42968 0.0
H1515 H 0.50985 1.01409 0.45164 0.0
H1516 H 0.48873 0.05229 0.46673 0.0
S1517 S 0.484 0.06433 0.35976 0.0
N1518 N 0.49826 0.03814 0.3692 0.0
N1519 N 0.47507 0.07922 0.38572 0.0
C1520 C 0.48356 0.06288 0.40361 0.0
C1521 C 0.4963 0.04067 0.39465 0.0
C1522 C 0.23775 0.23494 0.69581 0.0
C1523 C 0.21906 0.22629 0.67903 0.0
C1524 C 0.25914 0.24811 0.68708 0.0
C1525 C 0.26249 0.2537 0.66123 0.0
H1526 H 0.23594 0.23114 0.71583 0.0
H1527 H 0.27308 0.25415 0.70085 0.0
S1528 S 0.218 0.23652 0.60971 0.0
N1529 N 0.20465 0.2249 0.63546 0.0
N1530 N 0.24464 0.25012 0.61904 0.0
C1531 C 0.24359 0.24564 0.64428 0.0
C1532 C 0.22197 0.23179 0.65317 0.0
C1533 C 0.0531 0.98055 0.91712 0.0
C1534 C 0.04375 0.95709 0.92558 0.0
C1535 C 0.03766 0.99748 0.90353 0.0
C1536 C 1.01225 0.99155 0.89758 0.0
H1537 H 0.07238 0.98608 0.92149 0.0
H1538 H 0.04568 1.01553 0.89799 0.0
S1539 S 0.97934 0.93131 0.91347 0.0
N1540 N 1.00801 0.928 0.92551 0.0
N1541 N 0.97897 0.95963 0.90031 0.0
C1542 C 1.00293 0.96773 0.90533 0.0
C1543 C 0.01864 0.95059 0.91925 0.0
C1544 C 0.37769 0.30359 0.21043 0.0
C1545 C 0.35743 0.31574 0.22287 0.0
C1546 C 0.39166 0.2842 0.22212 0.0
C1547 C 0.38629 0.2763 0.24694 0.0
H1548 H 0.38277 0.30898 0.19137 0.0
H1549 H 0.40664 0.2751 0.21146 0.0
S1550 S 0.33473 0.30119 0.28776 0.0
N1551 N 0.33225 0.31762 0.26137 0.0
N1552 N 0.35911 0.28207 0.28355 0.0
C1553 C 0.36647 0.28863 0.25985 0.0
C1554 C 0.35192 0.30809 0.2478 0.0
C1555 C 0.85422 0.20528 0.76472 0.0
C1556 C 0.86126 0.20146 0.79014 0.0
C1557 C 0.86744 0.22219 0.74907 0.0
C1558 C 0.88808 0.23636 0.75822 0.0
H1559 H 0.83793 0.1956 0.75688 0.0
H1560 H 0.86076 0.22487 0.7299 0.0
S1561 S 0.91573 0.23227 0.82247 0.0
N1562 N 0.89177 0.21213 0.82301 0.0
N1563 N 0.91577 0.24475 0.79388 0.0
C1564 C 0.89564 0.23257 0.78339 0.0
C1565 C 0.88245 0.21497 0.79927 0.0
C1566 C 0.06509 0.63285 1.00301 0.0
C1567 C 0.04168 0.6412 1.01281 0.0
C1568 C 0.08162 0.61772 0.01732 0.0
C1569 C 0.07561 0.61037 0.04216 0.0
H1570 H 0.07058 0.63757 0.98386 0.0
H1571 H 0.09933 0.6118 1.00883 0.0
S1572 S 0.01704 0.62726 0.07713 0.0
N1573 N 1.01368 0.64118 0.04941 0.0
N1574 N 0.04471 0.61268 0.07607 0.0
C1575 C 0.05258 0.61895 0.05245 0.0
C1576 C 0.03566 0.63435 0.03787 0.0
C1577 C 0.66387 0.7698 0.30491 0.0
C1578 C 0.65579 0.77083 0.27957 0.0
C1579 C 0.6744 0.79101 0.31698 0.0
C1580 C 0.6778 0.81403 0.30409 0.0
H1581 H 0.66226 0.75234 0.31553 0.0
H1582 H 0.68054 0.7892 0.33641 0.0
S1583 S 0.65929 0.82705 0.23768 0.0
N1584 N 0.6514 0.7971 0.24212 0.0
N1585 N 0.67137 0.83691 0.26474 0.0
C1586 C 0.66951 0.81549 0.27882 0.0
C1587 C 0.65842 0.79394 0.26661 0.0
C1588 C 1.00142 0.90281 0.03792 0.0
C1589 C 0.99532 0.89532 1.01306 0.0
C1590 C 0.98402 0.91615 0.05306 0.0
C1591 C 0.95986 0.9228 0.04395 0.0
H1592 H 0.02001 0.89882 0.04566 0.0
H1593 H 0.98975 0.92191 0.07184 0.0
S1594 S 0.93329 0.90573 0.98127 0.0
N1595 N 0.96242 0.8943 0.98076 0.0
N1596 N 0.92993 0.91905 1.00925 0.0
C1597 C 0.95315 0.91473 0.0195 0.0
C1598 C 0.97078 0.90107 1.0041 0.0
C1599 C 0.16758 0.73316 0.72661 0.0
C1600 C 0.17429 0.70923 0.73612 0.0
C1601 C 0.1542 0.75071 0.74149 0.0
C1602 C 0.14666 0.74495 0.76643 0.0
H1603 H 0.17331 0.73856 0.70773 0.0
H1604 H 0.15016 0.76913 0.73347 0.0
S1605 S 0.15714 0.68351 0.79908 0.0
N1606 N 0.17064 0.67983 0.7712 0.0
N1607 N 0.14561 0.71255 0.79917 0.0
C1608 C 0.15245 0.72061 0.77576 0.0
C1609 C 0.16623 0.70286 0.76065 0.0
C1610 C 0.04101 0.39701 0.50089 0.0
C1611 C 0.03584 0.4061 0.52532 0.0
C1612 C 0.05833 0.40951 0.48493 0.0
C1613 C 0.07079 0.43191 0.49255 0.0
H1614 H 0.03185 0.37991 0.49419 0.0
H1615 H 0.0622 0.40131 0.46661 0.0
S1616 S 0.06097 0.4654 0.55357 0.0
N1617 N 0.0432 0.43976 0.55577 0.0
N1618 N 0.07452 0.46385 0.52552 0.0
C1619 C 0.065 0.44164 0.51668 0.0
C1620 C 0.04784 0.42861 0.53309 0.0
C1621 C 0.4729 0.60145 1.00171 0.0
C1622 C 0.47234 0.59583 0.97567 0.0
C1623 C 0.49283 0.61568 1.01239 0.0
C1624 C 0.51296 0.62473 0.99741 0.0
H1625 H 0.45843 0.59389 1.01411 0.0
H1626 H 0.49313 0.61846 0.03266 0.0
S1627 S 0.51839 0.61875 0.92781 0.0
N1628 N 0.4921 0.60329 0.93487 0.0
N1629 N 0.52969 0.6293 0.95492 0.0
C1630 C 0.51188 0.62039 0.97123 0.0
C1631 C 0.49157 0.60614 0.96036 0.0
C1632 C 0.76252 0.86399 0.8243 0.0
C1633 C 0.73705 0.85809 0.81885 0.0
C1634 C 0.77797 0.87666 0.80674 0.0
C1635 C 0.76874 0.88386 0.78279 0.0
H1636 H 0.77058 0.85891 0.84241 0.0
H1637 H 0.79749 0.88041 0.81191 0.0
S1638 S 0.70327 0.87271 0.75915 0.0
N1639 N 0.70325 0.86038 0.7878 0.0
N1640 N 0.73207 0.88421 0.7548 0.0
C1641 C 0.74315 0.87831 0.77722 0.0
C1642 C 0.72739 0.86547 0.79521 0.0
C1643 C 0.42093 0.47704 0.04723 0.0
C1644 C 0.42274 0.4848 0.0726 0.0
C1645 C 0.40892 0.49226 0.02901 0.0
C1646 C 0.39829 0.51589 0.03543 0.0
H1647 H 0.4297 0.45953 0.04122 0.0
H1648 H 0.40892 0.4859 1.00956 0.0
S1649 S 0.39438 0.54296 0.1 0.0
N1650 N 0.41007 0.51618 0.10372 0.0
N1651 N 0.38811 0.54499 0.06952 0.0
C1652 C 0.39886 0.52323 0.06097 0.0
C1653 C 0.41092 0.50767 0.07952 0.0
C1654 C 0.80386 0.17123 0.29859 0.0
C1655 C 0.79649 0.1735 0.32402 0.0
C1656 C 0.78868 0.15829 0.28095 0.0
C1657 C 0.76549 0.14695 0.28802 0.0
H1658 H 0.82114 0.18022 0.29211 0.0
H1659 H 0.79489 0.15784 0.26146 0.0
S1660 S 0.73944 0.14446 0.35319 0.0
N1661 N 0.76581 0.1611 0.35594 0.0
N1662 N 0.73718 0.13706 0.32297 0.0
C1663 C 0.7585 0.14815 0.31369 0.0
C1664 C 0.77397 0.16135 0.33161 0.0
C1665 C 0.11853 0.55082 0.54861 0.0
C1666 C 0.11479 0.54304 0.57375 0.0
C1667 C 0.13175 0.53557 0.53127 0.0
C1668 C 0.14193 0.51189 0.53832 0.0
H1669 H 0.11052 0.56851 0.54209 0.0
H1670 H 0.13336 0.5422 0.51198 0.0
S1671 S 0.14003 0.48429 0.60286 0.0
N1672 N 0.12439 0.51121 0.60547 0.0
N1673 N 0.14888 0.48245 0.573 0.0
C1674 C 0.13917 0.50439 0.56373 0.0
C1675 C 0.12569 0.51994 0.58137 0.0
C1676 C 0.73187 0.15512 0.72067 0.0
C1677 C 0.73338 0.18124 0.71515 0.0
C1678 C 0.74532 0.14444 0.74108 0.0
C1679 C 0.76037 0.15961 0.75694 0.0
H1680 H 0.72027 0.14284 0.70906 0.0
H1681 H 0.74327 0.1244 0.74493 0.0
S1682 S 0.7716 0.22869 0.75018 0.0
N1683 N 0.75184 0.22169 0.72703 0.0
N1684 N 0.77697 0.20178 0.76508 0.0
C1685 C 0.76242 0.18559 0.75132 0.0
C1686 C 0.74899 0.19636 0.73052 0.0
C1687 C 0.1052 0.49835 0.96269 0.0
C1688 C 0.09234 0.47501 0.96523 0.0
C1689 C 0.11852 0.50931 0.98308 0.0
C1690 C 0.11946 0.49743 1.00688 0.0
H1691 H 0.10414 0.50878 0.94514 0.0
H1692 H 0.12717 0.52773 0.98045 0.0
S1693 S 0.09204 0.43447 0.02242 0.0
N1694 N 0.08377 0.43928 0.99273 0.0
N1695 N 0.10836 0.45976 0.03093 0.0
C1696 C 0.10772 0.47353 1.00925 0.0
C1697 C 0.09427 0.46239 0.98852 0.0
C1698 C 0.78448 0.87577 0.2512 0.0
C1699 C 0.7586 0.88047 0.24627 0.0
C1700 C 0.80005 0.86349 0.23346 0.0
C1701 C 0.7904 0.85515 0.21014 0.0
H1702 H 0.79279 0.88133 0.26907 0.0
H1703 H 0.81973 0.86007 0.23822 0.0
S1704 S 0.72458 0.86433 0.18688 0.0
N1705 N 0.72445 0.87669 0.21551 0.0
N1706 N 0.75374 0.85399 0.1823 0.0
C1707 C 0.76476 0.86022 0.20466 0.0
C1708 C 0.7489 0.87279 0.22265 0.0
C1709 C 0.43818 0.53007 0.50637 0.0
C1710 C 0.41201 0.5259 0.51012 0.0
C1711 C 0.44735 0.54227 0.48466 0.0
C1712 C 0.4307 0.5514 0.4661 0.0
H1713 H 0.45181 0.52373 0.52031 0.0
H1714 H 0.46759 0.5451 0.4826 0.0
S1715 S 0.36065 0.54474 0.46614 0.0
N1716 N 0.36967 0.53118 0.49279 0.0
N1717 N 0.38689 0.55473 0.45227 0.0
C1718 C 0.40453 0.54724 0.4694 0.0
C1719 C 0.3952 0.5343 0.4913 0.0
C1720 C 0.81146 0.76804 0.88146 0.0
C1721 C 0.7851 0.76715 0.8774 0.0
C1722 C 0.82826 0.75338 0.86687 0.0
C1723 C 0.81946 0.73747 0.84731 0.0
H1724 H 0.81923 0.78026 0.89596 0.0
H1725 H 0.84834 0.75462 0.87092 0.0
S1726 S 0.75216 0.72971 0.82786 0.0
N1727 N 0.75101 0.74946 0.85196 0.0
N1728 N 0.78244 0.72279 0.8241 0.0
C1729 C 0.79309 0.7365 0.84305 0.0
C1730 C 0.77598 0.75111 0.85815 0.0
C1731 C 0.53859 0.53757 0.13162 0.0
C1732 C 0.5238 0.52214 0.11575 0.0
C1733 C 0.55166 0.55876 0.12197 0.0
C1734 C 0.54992 0.56558 0.09625 0.0
H1735 H 0.54072 0.53279 0.1514 0.0
H1736 H 0.56316 0.56995 0.13472 0.0
S1737 S 0.51226 0.53221 0.0473 0.0
N1738 N 0.50733 0.51572 0.07334 0.0
N1739 N 0.53151 0.55551 0.05542 0.0
C1740 C 0.53454 0.5507 0.08045 0.0
C1741 C 0.52161 0.52899 0.09014 0.0
C1742 C 0.73617 0.29495 0.33552 0.0
C1743 C 0.71742 0.30359 0.35222 0.0
C1744 C 0.75775 0.28223 0.34439 0.0
C1745 C 0.76125 0.2771 0.37032 0.0
H1746 H 0.73431 0.29848 0.31546 0.0
H1747 H 0.77175 0.27623 0.33068 0.0
S1748 S 0.71662 0.29431 0.42167 0.0
N1749 N 0.70306 0.30535 0.39579 0.0
N1750 N 0.74343 0.28099 0.41249 0.0
C1751 C 0.74226 0.28508 0.38719 0.0
C1752 C 0.72044 0.29847 0.37815 0.0
C1753 C 1.00313 0.50608 0.59294 0.0
C1754 C 1.00872 0.50977 0.61875 0.0
C1755 C 0.9896 0.48482 0.58452 0.0
C1756 C 0.98062 0.46655 0.60155 0.0
H1757 H 1.0094 0.51968 0.57895 0.0
H1758 H 0.98582 0.4828 0.56451 0.0
S1759 S 0.99108 0.46629 0.67089 0.0
N1760 N 1.00495 0.4926 0.66118 0.0
N1761 N 0.97925 0.45275 0.64534 0.0
C1762 C 0.98625 0.46973 0.62738 0.0
C1763 C 1.00039 0.49127 0.63596 0.0
C1764 C 0.82793 0.26672 0.67605 0.0
C1765 C 0.82358 0.29254 0.6811 0.0
C1766 C 0.81041 0.25209 0.66232 0.0
C1767 C 0.7876 0.26253 0.6531 0.0
H1768 H 0.84521 0.25774 0.6825 0.0
H1769 H 0.81472 0.23229 0.65925 0.0
S1770 S 0.76687 0.32926 0.66166 0.0
N1771 N 0.7946 0.32787 0.67609 0.0
N1772 N 0.76174 0.30062 0.65025 0.0
C1773 C 0.78307 0.28842 0.65795 0.0
C1774 C 0.801 0.30332 0.67191 0.0
C1775 C 0.98962 0.56243 0.91283 0.0
C1776 C 0.9994 0.58283 0.92688 0.0
C1777 C 1.00566 0.54447 0.90157 0.0
C1778 C 0.03225 0.54605 0.9039 0.0
H1779 H 0.96932 0.56006 0.91088 0.0
H1780 H 0.99701 0.52886 0.89146 0.0
S1781 S 0.06778 0.59718 0.93659 0.0
N1782 N 0.03767 0.60466 0.94069 0.0
N1783 N 0.06769 0.57059 0.92022 0.0
C1784 C 0.04236 0.56668 0.91741 0.0
C1785 C 0.02601 0.58511 0.92873 0.0
C1786 C 0.70272 0.76084 0.16604 0.0
C1787 C 0.7094 0.73613 0.17346 0.0
C1788 C 0.71968 0.77637 0.15268 0.0
C1789 C 0.74421 0.76797 0.14619 0.0
H1790 H 0.68414 0.76828 0.17055 0.0
H1791 H 0.71359 0.79534 0.14788 0.0
S1792 S 0.77103 0.70461 0.16105 0.0
N1793 N 0.7422 0.70389 0.17322 0.0
N1794 N 0.77405 0.73282 0.14796 0.0
C1795 C 0.75098 0.74306 0.1531 0.0
C1796 C 0.73362 0.72724 0.16672 0.0
C1797 C 0.53614 0.50217 0.40998 0.0
C1798 C 0.51231 0.49558 0.39978 0.0
C1799 C 0.55158 0.48413 0.42206 0.0
C1800 C 0.54385 0.45874 0.42451 0.0
H1801 H 0.54271 0.52159 0.40926 0.0
H1802 H 0.5694 0.49027 0.43017 0.0
S1803 S 0.48473 0.43085 0.39842 0.0
N1804 N 0.48276 0.46121 0.39131 0.0
N1805 N 0.51186 0.42745 0.41358 0.0
C1806 C 0.52055 0.45166 0.41356 0.0
C1807 C 0.50481 0.47001 0.40132 0.0
C1808 C 0.86632 0.82861 0.75604 0.0
C1809 C 0.85966 0.8228 0.73095 0.0
C1810 C 0.87968 0.81134 0.77117 0.0
C1811 C 0.88692 0.78736 0.76199 0.0
H1812 H 0.86119 0.84673 0.7641 0.0
H1813 H 0.88387 0.81675 0.79045 0.0
S1814 S 0.87437 0.76296 0.69732 0.0
N1815 N 0.86157 0.79148 0.69744 0.0
N1816 N 0.88677 0.75903 0.72569 0.0
C1817 C 0.88086 0.78151 0.73669 0.0
C1818 C 0.86725 0.79919 0.72125 0.0
C1819 C 0.36289 0.73292 0.29929 0.0
C1820 C 0.35575 0.70901 0.28997 0.0
C1821 C 0.37537 0.75069 0.28386 0.0
C1822 C 0.38142 0.74522 0.25848 0.0
H1823 H 0.35829 0.73812 0.31853 0.0
H1824 H 0.37986 0.76903 0.29184 0.0
S1825 S 0.36925 0.68408 0.2258 0.0
N1826 N 0.35749 0.68001 0.25439 0.0
N1827 N 0.3806 0.71321 0.22536 0.0
C1828 C 0.3751 0.72098 0.24922 0.0
C1829 C 0.36234 0.70296 0.26492 0.0
C1830 C 0.51895 0.11602 0.55396 0.0
C1831 C 0.52058 0.12614 0.52939 0.0
C1832 C 0.53935 0.10307 0.565 0.0
C1833 C 0.56236 0.09962 0.55204 0.0
H1834 H 0.50145 0.11743 0.56459 0.0
H1835 H 0.53687 0.09509 0.58368 0.0
S1836 S 0.57695 0.12306 0.48751 0.0
N1837 N 0.5476 0.13262 0.49273 0.0
N1838 N 0.58584 0.10804 0.51339 0.0
C1839 C 0.56471 0.11052 0.52784 0.0
C1840 C 0.54387 0.12382 0.51656 0.0
C1841 C 0.17121 0.29403 0.79995 0.0
C1842 C 0.18003 0.31748 0.7909 0.0
C1843 C 0.15896 0.27664 0.78392 0.0
C1844 C 0.15478 0.28207 0.75816 0.0
H1845 H 0.17423 0.2889 0.81952 0.0
H1846 H 0.15305 0.25865 0.79177 0.0
S1847 S 0.17211 0.34208 0.72567 0.0
N1848 N 0.1821 0.34601 0.75494 0.0
N1849 N 0.15942 0.31352 0.72481 0.0
C1850 C 0.16292 0.30584 0.74906 0.0
C1851 C 0.17546 0.32346 0.76539 0.0
C1852 C 0.47297 0.40511 0.55133 0.0
C1853 C 0.46508 0.43042 0.54813 0.0
C1854 C 0.49437 0.39553 0.53856 0.0
C1855 C 0.50889 0.41115 0.52264 0.0
H1856 H 0.46252 0.39267 0.56382 0.0
H1857 H 0.50011 0.37613 0.54188 0.0
S1858 S 0.49593 0.47846 0.50724 0.0
N1859 N 0.47321 0.47055 0.52721 0.0
N1860 N 0.51337 0.45277 0.50359 0.0
C1861 C 0.50093 0.4363 0.51897 0.0
C1862 C 0.47904 0.44588 0.5316 0.0
C1863 C 0.66181 0.22486 0.27848 0.0
C1864 C 0.65425 0.24876 0.26935 0.0
C1865 C 0.67445 0.20736 0.26298 0.0
C1866 C 0.68008 0.21289 0.23758 0.0
H1867 H 0.65824 0.21961 0.29793 0.0
H1868 H 0.67971 0.18925 0.27097 0.0
S1869 S 0.66466 0.27265 0.20411 0.0
N1870 N 0.65333 0.27686 0.23287 0.0
N1871 N 0.67725 0.24404 0.20397 0.0
C1872 C 0.6724 0.23653 0.22803 0.0
C1873 C 0.6595 0.25442 0.24382 0.0
C1874 C 0.5349 0.90186 0.99515 0.0
C1875 C 0.53994 0.8968 0.02083 0.0
C1876 C 0.55255 0.91462 0.97982 0.0
C1877 C 0.57588 0.92312 0.98954 0.0
H1878 H 0.51699 0.89627 0.98683 0.0
H1879 H 0.54767 0.91837 0.96031 0.0
S1880 S 0.59942 0.91317 0.0549 0.0
N1881 N 0.57085 0.90039 0.05486 0.0
N1882 N 0.60387 0.92403 0.02602 0.0
C1883 C 0.5815 0.91764 0.01496 0.0
C1884 C 0.56362 0.90455 0.03057 0.0
C1885 C 0.99651 0.14119 0.47402 0.0
C1886 C 1.00583 0.13485 0.49809 0.0
C1887 C 0.97688 0.12725 0.46263 0.0
C1888 C 0.96596 0.106 0.4746 0.0
H1889 H 1.00459 0.15701 0.46376 0.0
H1890 H 0.97028 0.13322 0.44423 0.0
S1891 S 0.98476 0.08048 0.53734 0.0
N1892 N 1.00294 0.10562 0.53342 0.0
N1893 N 0.96697 0.07882 0.51174 0.0
C1894 C 0.97519 0.09943 0.49874 0.0
C1895 C 0.99486 0.11396 0.51052 0.0
C1896 C 0.2117 0.41322 0.4457 0.0
C1897 C 0.19399 0.40966 0.4653 0.0
C1898 C 0.22303 0.39256 0.43337 0.0
C1899 C 0.2172 0.36736 0.44001 0.0
H1900 H 0.21595 0.43209 0.43888 0.0
H1901 H 0.23554 0.39651 0.41762 0.0
S1902 S 0.17526 0.34763 0.49286 0.0
N1903 N 0.17362 0.37884 0.49288 0.0
N1904 N 0.19479 0.34018 0.46966 0.0
C1905 C 0.20102 0.36354 0.46085 0.0
C1906 C 0.18947 0.38461 0.47346 0.0
C1907 C 0.88692 0.97536 0.68456 0.0
C1908 C 0.91209 0.97064 0.69228 0.0
C1909 C 0.86624 0.96308 0.69598 0.0
C1910 C 0.86976 0.9455 0.71567 0.0
H1911 H 0.88312 0.98762 0.66861 0.0
H1912 H 0.8475 0.96638 0.68828 0.0
S1913 S 0.93132 0.92987 0.74614 0.0
N1914 N 0.93894 0.94968 0.72325 0.0
N1915 N 0.9002 0.92672 0.74472 0.0
C1916 C 0.89461 0.94224 0.72502 0.0
C1917 C 0.9157 0.95476 0.71336 0.0
C1918 C 0.31093 0.63951 0.94034 0.0
C1919 C 0.32201 0.66383 0.94097 0.0
C1920 C 0.32461 0.61787 0.94776 0.0
C1921 C 0.34997 0.61981 0.95566 0.0
H1922 H 0.29204 0.63697 0.93269 0.0
H1923 H 0.31597 0.59941 0.94536 0.0
S1924 S 0.38694 0.67893 0.96377 0.0
N1925 N 0.35917 0.6885 0.953 0.0
N1926 N 0.38488 0.64782 0.96606 0.0
C1927 C 0.36066 0.64403 0.95809 0.0
C1928 C 0.34666 0.66607 0.95105 0.0
C1929 C 0.66767 0.07256 0.19896 0.0
C1930 C 0.66413 0.09102 0.21781 0.0
C1931 C 0.64696 0.06079 0.18707 0.0
C1932 C 0.62172 0.06693 0.19344 0.0
H1933 H 0.68657 0.06804 0.19232 0.0
H1934 H 0.6509 0.04767 0.17185 0.0
S1935 S 0.60201 0.11088 0.24455 0.0
N1936 N 0.63328 0.11247 0.24454 0.0
N1937 N 0.59451 0.09048 0.22213 0.0
C1938 C 0.61791 0.08388 0.21362 0.0
C1939 C 0.63904 0.09587 0.22578 0.0
C1940 C 0.20071 0.66202 0.06447 0.0
C1941 C 0.22031 0.65823 0.08216 0.0
C1942 C 0.1887 0.64155 0.05242 0.0
C1943 C 0.19562 0.61625 0.05751 0.0
H1944 H 0.19372 0.68092 0.06069 0.0
H1945 H 0.17299 0.64566 0.0399 0.0
S1946 S 0.24831 0.59597 0.09945 0.0
N1947 N 0.248 0.62712 0.10195 0.0
N1948 N 0.22535 0.58881 0.07948 0.0
C1949 C 0.21635 0.61224 0.07382 0.0
C1950 C 0.22868 0.63313 0.08606 0.0
C1951 C 0.63527 0.93408 0.30979 0.0
C1952 C 0.66046 0.94113 0.31536 0.0
C1953 C 0.61453 0.94674 0.32058 0.0
C1954 C 0.61798 0.96708 0.33744 0.0
H1955 H 0.63141 0.9178 0.29797 0.0
H1956 H 0.59568 0.9396 0.31663 0.0
S1957 S 0.67992 0.9959 0.35488 0.0
N1958 N 0.68753 0.97193 0.33637 0.0
N1959 N 0.64866 0.99578 0.35655 0.0
C1960 C 0.643 0.97568 0.34153 0.0
C1961 C 0.66418 0.96272 0.33054 0.0
C1962 C 0.32011 0.41459 0.58231 0.0
C1963 C 0.33829 0.41176 0.56302 0.0
C1964 C 0.30864 0.39349 0.59377 0.0
C1965 C 0.31489 0.36856 0.58656 0.0
H1966 H 0.31551 0.43322 0.58953 0.0
H1967 H 0.29573 0.39685 0.60932 0.0
S1968 S 0.35825 0.3507 0.53426 0.0
N1969 N 0.35961 0.38191 0.53512 0.0
N1970 N 0.33824 0.34242 0.55677 0.0
C1971 C 0.33162 0.36548 0.56607 0.0
C1972 C 0.34324 0.38699 0.55429 0.0
C1973 C 0.91513 0.07474 0.81717 0.0
C1974 C 0.91207 0.05712 0.8369 0.0
C1975 C 0.8941 0.08516 0.80461 0.0
C1976 C 0.86905 0.07853 0.81127 0.0
H1977 H 0.93384 0.08159 0.81221 0.0
H1978 H 0.89759 0.09961 0.79051 0.0
S1979 S 0.85068 0.02996 0.85856 0.0
N1980 N 0.88194 0.03098 0.86012 0.0
N1981 N 0.84261 0.05074 0.83671 0.0
C1982 C 0.86578 0.05948 0.82957 0.0
C1983 C 0.8872 0.04876 0.84231 0.0
C1984 C 0.47328 0.18522 0.38457 0.0
C1985 C 0.46807 0.19352 0.40935 0.0
C1986 C 0.46216 0.19687 0.36344 0.0
C1987 C 0.44537 0.21743 0.36608 0.0
H1988 H 0.4851 0.16877 0.38139 0.0
H1989 H 0.46594 0.18889 0.34498 0.0
S1990 S 0.42845 0.249 0.42655 0.0
N1991 N 0.44716 0.22545 0.43504 0.0
N1992 N 0.42641 0.24742 0.39548 0.0
C1993 C 0.44144 0.22709 0.39063 0.0
C1994 C 0.45272 0.21514 0.41218 0.0
C1995 C 0.06101 0.18851 0.6405 0.0
C1996 C 0.06779 0.19506 0.61557 0.0
C1997 C 0.07356 0.199 0.66146 0.0
C1998 C 0.09344 0.21656 0.65843 0.0
H1999 H 0.04676 0.17414 0.64397 0.0
H2000 H 0.06847 0.19222 0.68009 0.0
S2001 S 0.11561 0.24339 0.59735 0.0
N2002 N 0.0936 0.22268 0.58928 0.0
N2003 N 0.11704 0.24247 0.62848 0.0
C2004 C 0.09903 0.22479 0.63369 0.0
C2005 C 0.08627 0.21405 0.61234 0.0
C2006 C 0.05592 0.84443 0.88809 0.0
C2007 C 0.06788 0.84154 0.91181 0.0
C2008 C 0.06838 0.83804 0.86545 0.0
C2009 C 0.09328 0.82869 0.86573 0.0
H2010 H 0.03736 0.85314 0.88688 0.0
H2011 H 0.05921 0.84228 0.84763 0.0
S2012 S 0.13208 0.81457 0.92234 0.0
N2013 N 0.1053 0.82595 0.93385 0.0
N2014 N 0.12866 0.81461 0.89134 0.0
C2015 C 0.10475 0.82398 0.88919 0.0
C2016 C 0.09203 0.83013 0.91224 0.0
C2017 C 0.47365 0.84462 0.14396 0.0
C2018 C 0.46781 0.83807 0.11878 0.0
C2019 C 0.46148 0.83292 0.16447 0.0
C2020 C 0.44292 0.8141 0.16077 0.0
H2021 H 0.48677 0.85989 0.14795 0.0
H2022 H 0.4657 0.83974 0.18331 0.0
S2023 S 0.42395 0.78676 0.09887 0.0
N2024 N 0.44458 0.80909 0.09155 0.0
N2025 N 0.42185 0.78706 0.12997 0.0
C2026 C 0.43847 0.80586 0.1358 0.0
C2027 C 0.45086 0.81782 0.11488 0.0
C2028 C 0.41753 0.42979 0.22051 0.0
C2029 C 0.42125 0.44694 0.20057 0.0
C2030 C 0.39314 0.4241 0.22947 0.0
C2031 C 0.3713 0.43478 0.21838 0.0
H2032 H 0.43357 0.41981 0.22855 0.0
H2033 H 0.39143 0.40994 0.24416 0.0
S2034 S 0.37096 0.48239 0.16675 0.0
N2035 N 0.40132 0.47609 0.17118 0.0
N2036 N 0.35535 0.46495 0.18749 0.0
C2037 C 0.37487 0.45304 0.19927 0.0
C2038 C 0.39986 0.45922 0.1905 0.0
C2039 C 0.80654 0.92139 0.09715 0.0
C2040 C 0.82795 0.92368 0.08154 0.0
C2041 C 0.79653 0.89764 0.10348 0.0
C2042 C 0.80783 0.87502 0.09493 0.0
H2043 H 0.79822 0.93809 0.10568 0.0
H2044 H 0.78074 0.89711 0.11656 0.0
S2045 S 0.86265 0.87087 0.05102 0.0
N2046 N 0.85869 0.90157 0.05548 0.0
N2047 N 0.84023 0.85675 0.06767 0.0
C2048 C 0.82813 0.87712 0.07767 0.0
C2049 C 0.83812 0.90148 0.07093 0.0
C2050 C 0.13893 0.5956 0.7236 0.0
C2051 C 0.16412 0.58835 0.71833 0.0
C2052 C 0.11819 0.58348 0.71213 0.0
C2053 C 0.12162 0.56344 0.69493 0.0
H2054 H 0.13509 0.61167 0.73571 0.0
H2055 H 0.09937 0.59075 0.71594 0.0
S2056 S 0.18349 0.53438 0.67771 0.0
N2057 N 0.1911 0.55778 0.69695 0.0
N2058 N 0.15226 0.5349 0.67557 0.0
C2059 C 0.14661 0.55467 0.69102 0.0
C2060 C 0.16778 0.56712 0.70265 0.0
C2061 C 0.71441 0.91549 0.94659 0.0
C2062 C 0.69736 0.91179 0.96672 0.0
C2063 C 0.72602 0.89493 0.93436 0.0
C2064 C 0.7211 0.86971 0.94167 0.0
H2065 H 0.71777 0.93432 0.9392 0.0
H2066 H 0.73786 0.8989 0.91812 0.0
S2067 S 0.68163 0.84991 0.99633 0.0
N2068 N 0.67895 0.88104 0.99569 0.0
N2069 N 0.70062 0.84254 0.97267 0.0
C2070 C 0.70578 0.86587 0.96313 0.0
C2071 C 0.69397 0.88684 0.97563 0.0
C2072 C 0.8355 0.16678 0.46158 0.0
C2073 C 0.81537 0.16402 0.44432 0.0
C2074 C 0.84777 0.14566 0.47205 0.0
C2075 C 0.84058 0.12074 0.46568 0.0
H2076 H 0.8427 0.18542 0.46623 0.0
H2077 H 0.86386 0.14903 0.48431 0.0
S2078 S 0.78653 0.10294 0.42431 0.0
N2079 N 0.78689 0.13418 0.42362 0.0
N2080 N 0.81004 0.09461 0.44314 0.0
C2081 C 0.81929 0.11766 0.4499 0.0
C2082 C 0.80668 0.13923 0.43928 0.0
C2083 C 0.70783 0.15361 0.5874 0.0
C2084 C 0.69691 0.1759 0.57774 0.0
C2085 C 0.70146 0.12972 0.57739 0.0
C2086 C 0.68432 0.12726 0.55706 0.0
H2087 H 0.71996 0.15448 0.60389 0.0
H2088 H 0.70927 0.11299 0.5863 0.0
S2089 S 0.65278 0.18039 0.52342 0.0
N2090 N 0.66968 0.19428 0.54572 0.0
N2091 N 0.65825 0.14976 0.52643 0.0
C2092 C 0.67472 0.14966 0.54618 0.0
C2093 C 0.68085 0.17385 0.55667 0.0
C2094 C 0.11695 0.4443 0.80227 0.0
C2095 C 0.11434 0.45809 0.82489 0.0
C2096 C 0.14026 0.43376 0.79507 0.0
C2097 C 0.16215 0.43668 0.81002 0.0
H2098 H 0.10061 0.44054 0.79045 0.0
H2099 H 0.14084 0.42235 0.77808 0.0
S2100 S 0.1665 0.47372 0.86948 0.0
N2101 N 0.13644 0.47609 0.86108 0.0
N2102 N 0.18025 0.45639 0.84744 0.0
C2103 C 0.16032 0.45191 0.83179 0.0
C2104 C 0.13644 0.46255 0.83926 0.0
C2105 C 0.36755 0.57069 0.33332 0.0
C2106 C 0.37119 0.58826 0.31364 0.0
C2107 C 0.3882 0.55932 0.34565 0.0
C2108 C 0.41347 0.56497 0.3389 0.0
H2109 H 0.34865 0.56667 0.34026 0.0
H2110 H 0.38423 0.54698 0.3615 0.0
S2111 S 0.43332 0.60629 0.28567 0.0
N2112 N 0.40206 0.60816 0.28577 0.0
N2113 N 0.44074 0.58691 0.30897 0.0
C2114 C 0.41733 0.58091 0.31791 0.0
C2115 C 0.39627 0.5925 0.30531 0.0
C2116 C 0.9797 0.69979 0.88861 0.0
C2117 C 0.96846 0.70118 0.91279 0.0
C2118 C 0.96592 0.7057 0.8666 0.0
C2119 C 0.94032 0.7129 0.868 0.0
H2120 H 0.99882 0.6926 0.88652 0.0
H2121 H 0.97472 0.70265 0.84837 0.0
S2122 S 0.90283 0.72293 0.92634 0.0
N2123 N 0.93083 0.71341 0.93656 0.0
N2124 N 0.90501 0.72373 0.89524 0.0
C2125 C 0.92945 0.71623 0.89198 0.0
C2126 C 0.94352 0.71066 0.91438 0.0
C2127 C 0.56007 0.68501 0.14233 0.0
C2128 C 0.56579 0.69258 0.11744 0.0
C2129 C 0.57126 0.69687 0.16331 0.0
C2130 C 0.58867 0.7169 0.1604 0.0
H2131 H 0.54775 0.66895 0.14575 0.0
H2132 H 0.56707 0.6894 0.1819 0.0
S2133 S 0.60707 0.74668 0.09945 0.0
N2134 N 0.58782 0.72342 0.09128 0.0
N2135 N 0.60873 0.74574 0.13057 0.0
C2136 C 0.59311 0.72591 0.1357 0.0
C2137 C 0.58173 0.71377 0.1143 0.0
C2138 C 0.57235 0.3305 0.36783 0.0
C2139 C 0.59215 0.31288 0.37088 0.0
C2140 C 0.56017 0.34145 0.38875 0.0
C2141 C 0.56728 0.33533 0.4137 0.0
H2142 H 0.56703 0.33696 0.34915 0.0
H2143 H 0.54598 0.35583 0.38522 0.0
S2144 S 0.61504 0.2871 0.43215 0.0
N2145 N 0.616 0.28741 0.40099 0.0
N2146 N 0.59328 0.30807 0.44014 0.0
C2147 C 0.58566 0.3163 0.41703 0.0
C2148 C 0.59803 0.30507 0.3957 0.0
C2149 C 0.93895 0.3094 0.63999 0.0
C2150 C 0.94595 0.31561 0.66497 0.0
C2151 C 0.94993 0.32154 0.61907 0.0
C2152 C 0.96848 0.34047 0.62214 0.0
H2153 H 0.92396 0.29581 0.63646 0.0
H2154 H 0.94286 0.31688 0.60043 0.0
S2155 S 0.99647 0.36107 0.68329 0.0
N2156 N 0.97478 0.34 0.69132 0.0
N2157 N 0.99554 0.36268 0.65217 0.0
C2158 C 0.97703 0.34554 0.64691 0.0
C2159 C 0.96578 0.33317 0.66825 0.0
loop_
_geom_bond_atom_site_label_1
_geom_bond_atom_site_label_2
_geom_bond_distance
_geom_bond_site_symmetry_2
_ccdc_geom_bond_type
Cu0 N1 1.999 . S
Cu0 O6 1.974 . S
Cu0 N11 1.985 . S
Cu0 O20 1.959 . S
N1 Cu0 1.999 . S
N1 C3 1.263 . S
N1 C5 1.389 . S
N2 C3 1.358 . S
N2 C4 1.400 . S
C3 N1 1.263 . S
C3 N2 1.358 . S
C3 H9 0.930 . S
C4 N2 1.400 . S
C4 C5 1.351 . S
C4 H21 0.930 . S
C5 N1 1.389 . S
C5 C4 1.351 . S
C5 H10 0.930 . S
O6 Cu0 1.974 . S
O6 C16 1.282 . S
C7 O8 1.261 . S
C7 O20 1.251 . S
O8 C7 1.261 . S
H9 C3 0.930 . S
H10 C5 0.930 . S
N11 Cu0 1.985 . S
N11 C13 1.335 . S
N11 C14 1.390 . S
N12 C13 1.345 . S
N12 C15 1.336 . S
C13 N11 1.335 . S
C13 N12 1.345 . S
C13 H18 0.930 . S
C14 N11 1.390 . S
C14 C15 1.346 . S
C14 H19 0.930 . S
C15 N12 1.336 . S
C15 C14 1.346 . S
C15 H22 0.929 . S
C16 O6 1.282 . S
C16 O17 1.216 . S
O17 C16 1.216 . S
H18 C13 0.930 . S
H19 C14 0.930 . S
O20 Cu0 1.959 . S
O20 C7 1.251 . S
H21 C4 0.930 . S
H22 C15 0.929 . S
Cu23 N24 1.999 . S
Cu23 O29 1.974 . S
Cu23 N34 1.985 . S
Cu23 O43 1.959 . S
N24 Cu23 1.999 . S
N24 C26 1.263 . S
N24 C28 1.389 . S
N25 C26 1.358 . S
N25 C27 1.400 . S
C26 N24 1.263 . S
C26 N25 1.358 . S
C26 H32 0.930 . S
C27 N25 1.400 . S
C27 C28 1.351 . S
C27 H44 0.930 . S
C28 N24 1.389 . S
C28 C27 1.351 . S
C28 H33 0.930 . S
O29 Cu23 1.974 . S
O29 C39 1.282 . S
C30 O31 1.261 . S
C30 O43 1.251 . S
O31 C30 1.261 . S
H32 C26 0.930 . S
H33 C28 0.930 . S
N34 Cu23 1.985 . S
N34 C36 1.335 . S
N34 C37 1.390 1_655 S
N35 C36 1.345 1_455 S
N35 C38 1.336 . S
C36 N34 1.335 . S
C36 N35 1.345 1_655 S
C36 H41 0.930 . S
C37 N34 1.390 1_455 S
C37 C38 1.346 . S
C37 H42 0.930 . S
C38 N35 1.336 . S
C38 C37 1.346 . S
C38 H45 0.929 . S
C39 O29 1.282 . S
C39 O40 1.216 . S
O40 C39 1.216 . S
H41 C36 0.930 . S
H42 C37 0.930 . S
O43 Cu23 1.959 . S
O43 C30 1.251 . S
H44 C27 0.930 . S
H45 C38 0.929 . S
Cu46 N47 1.999 . S
Cu46 O52 1.974 . S
Cu46 N57 1.985 . S
Cu46 O66 1.959 . S
N47 Cu46 1.999 . S
N47 C49 1.263 . S
N47 C51 1.389 . S
N48 C49 1.358 . S
N48 C50 1.400 . S
C49 N47 1.263 . S
C49 N48 1.358 . S
C49 H55 0.930 . S
C50 N48 1.400 . S
C50 C51 1.351 . S
C50 H67 0.930 . S
C51 N47 1.389 . S
C51 C50 1.351 . S
C51 H56 0.930 . S
O52 Cu46 1.974 . S
O52 C62 1.282 . S
C53 O54 1.261 . S
C53 O66 1.251 . S
O54 C53 1.261 . S
H55 C49 0.930 . S
H56 C51 0.930 . S
N57 Cu46 1.985 . S
N57 C59 1.335 . S
N57 C60 1.390 . S
N58 C59 1.345 . S
N58 C61 1.336 . S
C59 N57 1.335 . S
C59 N58 1.345 . S
C59 H64 0.930 . S
C60 N57 1.390 . S
C60 C61 1.346 . S
C60 H65 0.930 . S
C61 N58 1.336 . S
C61 C60 1.346 . S
C61 H68 0.929 . S
C62 O52 1.282 . S
C62 O63 1.216 . S
O63 C62 1.216 . S
H64 C59 0.930 . S
H65 C60 0.930 . S
O66 Cu46 1.959 . S
O66 C53 1.251 . S
H67 C50 0.930 . S
H68 C61 0.929 . S
Cu69 N70 1.999 . S
Cu69 O75 1.974 . S
Cu69 N80 1.985 . S
Cu69 O89 1.959 . S
N70 Cu69 1.999 . S
N70 C72 1.263 . S
N70 C74 1.389 . S
N71 C72 1.358 . S
N71 C73 1.400 . S
C72 N70 1.263 . S
C72 N71 1.358 . S
C72 H78 0.930 . S
C73 N71 1.400 . S
C73 C74 1.351 . S
C73 H90 0.930 . S
C74 N70 1.389 . S
C74 C73 1.351 . S
C74 H79 0.930 . S
O75 Cu69 1.974 . S
O75 C85 1.282 . S
C76 O77 1.261 . S
C76 O89 1.251 . S
O77 C76 1.261 . S
H78 C72 0.930 . S
H79 C74 0.930 . S
N80 Cu69 1.985 . S
N80 C82 1.335 . S
N80 C83 1.390 . S
N81 C82 1.345 . S
N81 C84 1.336 . S
C82 N80 1.335 . S
C82 N81 1.345 . S
C82 H87 0.930 . S
C83 N80 1.390 . S
C83 C84 1.346 . S
C83 H88 0.930 . S
C84 N81 1.336 . S
C84 C83 1.346 . S
C84 H91 0.929 . S
C85 O75 1.282 . S
C85 O86 1.216 . S
O86 C85 1.216 . S
H87 C82 0.930 . S
H88 C83 0.930 . S
O89 Cu69 1.959 . S
O89 C76 1.251 . S
H90 C73 0.930 . S
H91 C84 0.929 . S
Cu92 N93 1.999 . S
Cu92 O98 1.974 . S
Cu92 N103 1.985 . S
Cu92 O112 1.959 . S
N93 Cu92 1.999 . S
N93 C95 1.263 . S
N93 C97 1.389 . S
N94 C95 1.358 . S
N94 C96 1.400 . S
C95 N93 1.263 . S
C95 N94 1.358 . S
C95 H101 0.930 . S
C96 N94 1.400 . S
C96 C97 1.351 . S
C96 H113 0.930 . S
C97 N93 1.389 . S
C97 C96 1.351 . S
C97 H102 0.930 . S
O98 Cu92 1.974 . S
O98 C108 1.282 . S
C99 O100 1.261 . S
C99 O112 1.251 . S
O100 C99 1.261 . S
H101 C95 0.930 . S
H102 C97 0.930 . S
N103 Cu92 1.985 . S
N103 C105 1.335 . S
N103 C106 1.390 . S
N104 C105 1.345 . S
N104 C107 1.336 . S
C105 N103 1.335 . S
C105 N104 1.345 . S
C105 H110 0.930 . S
C106 N103 1.390 . S
C106 C107 1.346 . S
C106 H111 0.930 . S
C107 N104 1.336 . S
C107 C106 1.346 . S
C107 H114 0.929 . S
C108 O98 1.282 . S
C108 O109 1.216 . S
O109 C108 1.216 . S
H110 C105 0.930 . S
H111 C106 0.930 . S
O112 Cu92 1.959 . S
O112 C99 1.251 . S
H113 C96 0.930 . S
H114 C107 0.929 . S
Cu115 N116 1.999 . S
Cu115 O121 1.974 . S
Cu115 N126 1.985 . S
Cu115 O135 1.959 . S
N116 Cu115 1.999 . S
N116 C118 1.263 . S
N116 C120 1.389 . S
N117 C118 1.358 . S
N117 C119 1.400 . S
C118 N116 1.263 . S
C118 N117 1.358 . S
C118 H124 0.930 . S
C119 N117 1.400 . S
C119 C120 1.351 . S
C119 H136 0.930 . S
C120 N116 1.389 . S
C120 C119 1.351 . S
C120 H125 0.930 . S
O121 Cu115 1.974 . S
O121 C131 1.282 . S
C122 O123 1.261 . S
C122 O135 1.251 . S
O123 C122 1.261 . S
H124 C118 0.930 . S
H125 C120 0.930 . S
N126 Cu115 1.985 . S
N126 C128 1.335 . S
N126 C129 1.390 . S
N127 C128 1.345 . S
N127 C130 1.336 . S
C128 N126 1.335 . S
C128 N127 1.345 . S
C128 H133 0.930 . S
C129 N126 1.390 . S
C129 C130 1.346 . S
C129 H134 0.930 . S
C130 N127 1.336 . S
C130 C129 1.346 . S
C130 H137 0.929 . S
C131 O121 1.282 . S
C131 O132 1.216 . S
O132 C131 1.216 . S
H133 C128 0.930 . S
H134 C129 0.930 . S
O135 Cu115 1.959 . S
O135 C122 1.251 . S
H136 C119 0.930 . S
H137 C130 0.929 . S
Cu138 N139 1.999 . S
Cu138 O144 1.974 . S
Cu138 N149 1.985 . S
Cu138 O158 1.959 . S
N139 Cu138 1.999 . S
N139 C141 1.263 . S
N139 C143 1.389 . S
N140 C141 1.358 . S
N140 C142 1.400 . S
C141 N139 1.263 . S
C141 N140 1.358 . S
C141 H147 0.930 . S
C142 N140 1.400 . S
C142 C143 1.351 . S
C142 H159 0.930 . S
C143 N139 1.389 . S
C143 C142 1.351 . S
C143 H148 0.930 . S
O144 Cu138 1.974 . S
O144 C154 1.282 . S
C145 O146 1.261 . S
C145 O158 1.251 . S
O146 C145 1.261 . S
H147 C141 0.930 . S
H148 C143 0.930 . S
N149 Cu138 1.985 . S
N149 C151 1.335 . S
N149 C152 1.390 . S
N150 C151 1.345 . S
N150 C153 1.336 . S
C151 N149 1.335 . S
C151 N150 1.345 . S
C151 H156 0.930 . S
C152 N149 1.390 . S
C152 C153 1.346 . S
C152 H157 0.930 . S
C153 N150 1.336 . S
C153 C152 1.346 . S
C153 H160 0.929 . S
C154 O144 1.282 . S
C154 O155 1.216 . S
O155 C154 1.216 . S
H156 C151 0.930 . S
H157 C152 0.930 . S
O158 Cu138 1.959 . S
O158 C145 1.251 . S
H159 C142 0.930 . S
H160 C153 0.929 . S
Cu161 N162 1.999 . S
Cu161 O167 1.974 . S
Cu161 N172 1.985 . S
Cu161 O181 1.959 . S
N162 Cu161 1.999 . S
N162 C164 1.263 . S
N162 C166 1.389 . S
N163 C164 1.358 . S
N163 C165 1.400 . S
C164 N162 1.263 . S
C164 N163 1.358 . S
C164 H170 0.930 . S
C165 N163 1.400 . S
C165 C166 1.351 . S
C165 H182 0.930 . S
C166 N162 1.389 . S
C166 C165 1.351 . S
C166 H171 0.930 . S
O167 Cu161 1.974 . S
O167 C177 1.282 . S
C168 O169 1.261 . S
C168 O181 1.251 . S
O169 C168 1.261 . S
H170 C164 0.930 . S
H171 C166 0.930 . S
N172 Cu161 1.985 . S
N172 C174 1.335 . S
N172 C175 1.390 1_655 S
N173 C174 1.345 1_455 S
N173 C176 1.336 . S
C174 N172 1.335 . S
C174 N173 1.345 1_655 S
C174 H179 0.930 . S
C175 N172 1.390 1_455 S
C175 C176 1.346 . S
C175 H180 0.930 . S
C176 N173 1.336 . S
C176 C175 1.346 . S
C176 H183 0.929 . S
C177 O167 1.282 . S
C177 O178 1.216 . S
O178 C177 1.216 . S
H179 C174 0.930 . S
H180 C175 0.930 . S
O181 Cu161 1.959 . S
O181 C168 1.251 . S
H182 C165 0.930 . S
H183 C176 0.929 . S
Cu184 N185 1.999 . S
Cu184 O190 1.974 . S
Cu184 N195 1.985 . S
Cu184 O204 1.959 . S
N185 Cu184 1.999 . S
N185 C187 1.263 . S
N185 C189 1.389 . S
N186 C187 1.358 . S
N186 C188 1.400 . S
C187 N185 1.263 . S
C187 N186 1.358 . S
C187 H193 0.930 . S
C188 N186 1.400 . S
C188 C189 1.351 . S
C188 H205 0.930 . S
C189 N185 1.389 . S
C189 C188 1.351 . S
C189 H194 0.930 . S
O190 Cu184 1.974 . S
O190 C200 1.282 . S
C191 O192 1.261 . S
C191 O204 1.251 . S
O192 C191 1.261 . S
H193 C187 0.930 . S
H194 C189 0.930 . S
N195 Cu184 1.985 . S
N195 C197 1.335 . S
N195 C198 1.390 . S
N196 C197 1.345 . S
N196 C199 1.336 . S
C197 N195 1.335 . S
C197 N196 1.345 . S
C197 H202 0.930 . S
C198 N195 1.390 . S
C198 C199 1.346 . S
C198 H203 0.930 . S
C199 N196 1.336 . S
C199 C198 1.346 . S
C199 H206 0.929 . S
C200 O190 1.282 . S
C200 O201 1.216 . S
O201 C200 1.216 . S
H202 C197 0.930 . S
H203 C198 0.930 . S
O204 Cu184 1.959 . S
O204 C191 1.251 . S
H205 C188 0.930 . S
H206 C199 0.929 . S
Cu207 N208 1.999 . S
Cu207 O213 1.974 . S
Cu207 N218 1.985 . S
Cu207 O227 1.959 . S
N208 Cu207 1.999 . S
N208 C210 1.263 . S
N208 C212 1.389 . S
N209 C210 1.358 . S
N209 C211 1.400 . S
C210 N208 1.263 . S
C210 N209 1.358 . S
C210 H216 0.930 . S
C211 N209 1.400 . S
C211 C212 1.351 . S
C211 H228 0.930 . S
C212 N208 1.389 . S
C212 C211 1.351 . S
C212 H217 0.930 . S
O213 Cu207 1.974 . S
O213 C223 1.282 . S
C214 O215 1.261 . S
C214 O227 1.251 . S
O215 C214 1.261 . S
H216 C210 0.930 . S
H217 C212 0.930 . S
N218 Cu207 1.985 . S
N218 C220 1.335 . S
N218 C221 1.390 . S
N219 C220 1.345 . S
N219 C222 1.336 . S
C220 N218 1.335 . S
C220 N219 1.345 . S
C220 H225 0.930 . S
C221 N218 1.390 . S
C221 C222 1.346 . S
C221 H226 0.930 . S
C222 N219 1.336 . S
C222 C221 1.346 . S
C222 H229 0.929 . S
C223 O213 1.282 . S
C223 O224 1.216 . S
O224 C223 1.216 . S
H225 C220 0.930 . S
H226 C221 0.930 . S
O227 Cu207 1.959 . S
O227 C214 1.251 . S
H228 C211 0.930 . S
H229 C222 0.929 . S
Cu230 N231 1.999 . S
Cu230 O236 1.974 . S
Cu230 N241 1.985 . S
Cu230 O250 1.959 . S
N231 Cu230 1.999 . S
N231 C233 1.263 . S
N231 C235 1.389 . S
N232 C233 1.358 . S
N232 C234 1.400 . S
C233 N231 1.263 . S
C233 N232 1.358 . S
C233 H239 0.930 . S
C234 N232 1.400 . S
C234 C235 1.351 . S
C234 H251 0.930 . S
C235 N231 1.389 . S
C235 C234 1.351 . S
C235 H240 0.930 . S
O236 Cu230 1.974 . S
O236 C246 1.282 . S
C237 O238 1.261 . S
C237 O250 1.251 . S
O238 C237 1.261 . S
H239 C233 0.930 . S
H240 C235 0.930 . S
N241 Cu230 1.985 . S
N241 C243 1.335 . S
N241 C244 1.390 . S
N242 C243 1.345 . S
N242 C245 1.336 . S
C243 N241 1.335 . S
C243 N242 1.345 . S
C243 H248 0.930 . S
C244 N241 1.390 . S
C244 C245 1.346 . S
C244 H249 0.930 . S
C245 N242 1.336 . S
C245 C244 1.346 . S
C245 H252 0.929 . S
C246 O236 1.282 . S
C246 O247 1.216 . S
O247 C246 1.216 . S
H248 C243 0.930 . S
H249 C244 0.930 . S
O250 Cu230 1.959 . S
O250 C237 1.251 . S
H251 C234 0.930 . S
H252 C245 0.929 . S
Cu253 N254 1.999 . S
Cu253 O259 1.974 . S
Cu253 N264 1.985 . S
Cu253 O273 1.959 . S
N254 Cu253 1.999 . S
N254 C256 1.263 . S
N254 C258 1.389 . S
N255 C256 1.358 . S
N255 C257 1.400 . S
C256 N254 1.263 . S
C256 N255 1.358 . S
C256 H262 0.930 . S
C257 N255 1.400 . S
C257 C258 1.351 . S
C257 H274 0.930 . S
C258 N254 1.389 . S
C258 C257 1.351 . S
C258 H263 0.930 . S
O259 Cu253 1.974 . S
O259 C269 1.282 . S
C260 O261 1.261 . S
C260 O273 1.251 . S
O261 C260 1.261 . S
H262 C256 0.930 . S
H263 C258 0.930 . S
N264 Cu253 1.985 . S
N264 C266 1.335 . S
N264 C267 1.390 1_554 S
N265 C266 1.345 1_556 S
N265 C268 1.336 . S
C266 N264 1.335 . S
C266 N265 1.345 1_554 S
C266 H271 0.930 . S
C267 N264 1.390 1_556 S
C267 C268 1.346 . S
C267 H272 0.930 . S
C268 N265 1.336 . S
C268 C267 1.346 . S
C268 H275 0.929 . S
C269 O259 1.282 . S
C269 O270 1.216 . S
O270 C269 1.216 . S
H271 C266 0.930 . S
H272 C267 0.930 . S
O273 Cu253 1.959 . S
O273 C260 1.251 . S
H274 C257 0.930 . S
H275 C268 0.929 . S
Cu276 N277 1.999 . S
Cu276 O282 1.974 . S
Cu276 N287 1.985 . S
Cu276 O296 1.959 . S
N277 Cu276 1.999 . S
N277 C279 1.263 . S
N277 C281 1.389 . S
N278 C279 1.358 . S
N278 C280 1.400 . S
C279 N277 1.263 . S
C279 N278 1.358 . S
C279 H285 0.930 . S
C280 N278 1.400 . S
C280 C281 1.351 . S
C280 H297 0.930 . S
C281 N277 1.389 . S
C281 C280 1.351 . S
C281 H286 0.930 . S
O282 Cu276 1.974 . S
O282 C292 1.282 . S
C283 O284 1.261 . S
C283 O296 1.251 . S
O284 C283 1.261 . S
H285 C279 0.930 . S
H286 C281 0.930 . S
N287 Cu276 1.985 . S
N287 C289 1.335 . S
N287 C290 1.390 . S
N288 C289 1.345 . S
N288 C291 1.336 . S
C289 N287 1.335 . S
C289 N288 1.345 . S
C289 H294 0.930 . S
C290 N287 1.390 . S
C290 C291 1.346 . S
C290 H295 0.930 . S
C291 N288 1.336 . S
C291 C290 1.346 . S
C291 H298 0.929 . S
C292 O282 1.282 . S
C292 O293 1.216 . S
O293 C292 1.216 . S
H294 C289 0.930 . S
H295 C290 0.930 . S
O296 Cu276 1.959 . S
O296 C283 1.251 . S
H297 C280 0.930 . S
H298 C291 0.929 . S
Cu299 N300 1.999 . S
Cu299 O305 1.974 . S
Cu299 N310 1.985 . S
Cu299 O319 1.959 . S
N300 Cu299 1.999 . S
N300 C302 1.263 . S
N300 C304 1.389 . S
N301 C302 1.358 . S
N301 C303 1.400 . S
C302 N300 1.263 . S
C302 N301 1.358 . S
C302 H308 0.930 . S
C303 N301 1.400 . S
C303 C304 1.351 . S
C303 H320 0.930 . S
C304 N300 1.389 . S
C304 C303 1.351 . S
C304 H309 0.930 . S
O305 Cu299 1.974 . S
O305 C315 1.282 . S
C306 O307 1.261 . S
C306 O319 1.251 . S
O307 C306 1.261 . S
H308 C302 0.930 . S
H309 C304 0.930 . S
N310 Cu299 1.985 . S
N310 C312 1.335 . S
N310 C313 1.390 . S
N311 C312 1.345 . S
N311 C314 1.336 . S
C312 N310 1.335 . S
C312 N311 1.345 . S
C312 H317 0.930 . S
C313 N310 1.390 . S
C313 C314 1.346 . S
C313 H318 0.930 . S
C314 N311 1.336 . S
C314 C313 1.346 . S
C314 H321 0.929 . S
C315 O305 1.282 . S
C315 O316 1.216 . S
O316 C315 1.216 . S
H317 C312 0.930 . S
H318 C313 0.930 . S
O319 Cu299 1.959 . S
O319 C306 1.251 . S
H320 C303 0.930 . S
H321 C314 0.929 . S
Cu322 N323 1.999 . S
Cu322 O328 1.974 . S
Cu322 N333 1.985 . S
Cu322 O342 1.959 . S
N323 Cu322 1.999 . S
N323 C325 1.263 . S
N323 C327 1.389 . S
N324 C325 1.358 . S
N324 C326 1.400 . S
C325 N323 1.263 . S
C325 N324 1.358 . S
C325 H331 0.930 . S
C326 N324 1.400 . S
C326 C327 1.351 . S
C326 H343 0.930 . S
C327 N323 1.389 . S
C327 C326 1.351 . S
C327 H332 0.930 . S
O328 Cu322 1.974 . S
O328 C338 1.282 . S
C329 O330 1.261 . S
C329 O342 1.251 . S
O330 C329 1.261 . S
H331 C325 0.930 . S
H332 C327 0.930 . S
N333 Cu322 1.985 . S
N333 C335 1.335 . S
N333 C336 1.390 . S
N334 C335 1.345 . S
N334 C337 1.336 . S
C335 N333 1.335 . S
C335 N334 1.345 . S
C335 H340 0.930 . S
C336 N333 1.390 . S
C336 C337 1.346 . S
C336 H341 0.930 . S
C337 N334 1.336 . S
C337 C336 1.346 . S
C337 H344 0.929 . S
C338 O328 1.282 . S
C338 O339 1.216 . S
O339 C338 1.216 . S
H340 C335 0.930 . S
H341 C336 0.930 . S
O342 Cu322 1.959 . S
O342 C329 1.251 . S
H343 C326 0.930 . S
H344 C337 0.929 . S
Cu345 N346 1.999 . S
Cu345 O351 1.974 . S
Cu345 N356 1.985 . S
Cu345 O365 1.959 . S
N346 Cu345 1.999 . S
N346 C348 1.263 . S
N346 C350 1.389 . S
N347 C348 1.358 . S
N347 C349 1.400 . S
C348 N346 1.263 . S
C348 N347 1.358 . S
C348 H354 0.930 . S
C349 N347 1.400 . S
C349 C350 1.351 . S
C349 H366 0.930 . S
C350 N346 1.389 . S
C350 C349 1.351 . S
C350 H355 0.930 . S
O351 Cu345 1.974 . S
O351 C361 1.282 . S
C352 O353 1.261 . S
C352 O365 1.251 . S
O353 C352 1.261 . S
H354 C348 0.930 . S
H355 C350 0.930 . S
N356 Cu345 1.985 . S
N356 C358 1.335 . S
N356 C359 1.390 1_556 S
N357 C358 1.345 1_554 S
N357 C360 1.336 . S
C358 N356 1.335 . S
C358 N357 1.345 1_556 S
C358 H363 0.930 . S
C359 N356 1.390 1_554 S
C359 C360 1.346 . S
C359 H364 0.930 . S
C360 N357 1.336 . S
C360 C359 1.346 . S
C360 H367 0.929 . S
C361 O351 1.282 . S
C361 O362 1.216 . S
O362 C361 1.216 . S
H363 C358 0.930 . S
H364 C359 0.930 . S
O365 Cu345 1.959 . S
O365 C352 1.251 . S
H366 C349 0.930 . S
H367 C360 0.929 . S
Cu368 N369 1.999 . S
Cu368 O374 1.974 . S
Cu368 N379 1.985 . S
Cu368 O388 1.959 . S
N369 Cu368 1.999 . S
N369 C371 1.263 . S
N369 C373 1.389 . S
N370 C371 1.358 . S
N370 C372 1.400 . S
C371 N369 1.263 . S
C371 N370 1.358 . S
C371 H377 0.930 . S
C372 N370 1.400 . S
C372 C373 1.351 . S
C372 H389 0.930 . S
C373 N369 1.389 . S
C373 C372 1.351 . S
C373 H378 0.930 . S
O374 Cu368 1.974 . S
O374 C384 1.282 . S
C375 O376 1.261 . S
C375 O388 1.251 . S
O376 C375 1.261 . S
H377 C371 0.930 . S
H378 C373 0.930 . S
N379 Cu368 1.985 . S
N379 C381 1.335 . S
N379 C382 1.390 . S
N380 C381 1.345 . S
N380 C383 1.336 . S
C381 N379 1.335 . S
C381 N380 1.345 . S
C381 H386 0.930 . S
C382 N379 1.390 . S
C382 C383 1.346 . S
C382 H387 0.930 . S
C383 N380 1.336 . S
C383 C382 1.346 . S
C383 H390 0.929 . S
C384 O374 1.282 . S
C384 O385 1.216 . S
O385 C384 1.216 . S
H386 C381 0.930 . S
H387 C382 0.930 . S
O388 Cu368 1.959 . S
O388 C375 1.251 . S
H389 C372 0.930 . S
H390 C383 0.929 . S
Cu391 N392 1.999 . S
Cu391 O397 1.974 . S
Cu391 N402 1.985 . S
Cu391 O411 1.959 . S
N392 Cu391 1.999 . S
N392 C394 1.263 . S
N392 C396 1.389 . S
N393 C394 1.358 . S
N393 C395 1.400 . S
C394 N392 1.263 . S
C394 N393 1.358 . S
C394 H400 0.930 . S
C395 N393 1.400 . S
C395 C396 1.351 . S
C395 H412 0.930 . S
C396 N392 1.389 . S
C396 C395 1.351 . S
C396 H401 0.930 . S
O397 Cu391 1.974 . S
O397 C407 1.282 . S
C398 O399 1.261 . S
C398 O411 1.251 . S
O399 C398 1.261 . S
H400 C394 0.930 . S
H401 C396 0.930 . S
N402 Cu391 1.985 . S
N402 C404 1.335 . S
N402 C405 1.390 . S
N403 C404 1.345 . S
N403 C406 1.336 . S
C404 N402 1.335 . S
C404 N403 1.345 . S
C404 H409 0.930 . S
C405 N402 1.390 . S
C405 C406 1.346 . S
C405 H410 0.930 . S
C406 N403 1.336 . S
C406 C405 1.346 . S
C406 H413 0.929 . S
C407 O397 1.282 . S
C407 O408 1.216 . S
O408 C407 1.216 . S
H409 C404 0.930 . S
H410 C405 0.930 . S
O411 Cu391 1.959 . S
O411 C398 1.251 . S
H412 C395 0.930 . S
H413 C406 0.929 . S
Cu414 N415 1.999 . S
Cu414 O420 1.974 . S
Cu414 N425 1.985 . S
Cu414 O434 1.959 . S
N415 Cu414 1.999 . S
N415 C417 1.263 . S
N415 C419 1.389 . S
N416 C417 1.358 . S
N416 C418 1.400 . S
C417 N415 1.263 . S
C417 N416 1.358 . S
C417 H423 0.930 . S
C418 N416 1.400 . S
C418 C419 1.351 . S
C418 H435 0.930 . S
C419 N415 1.389 . S
C419 C418 1.351 . S
C419 H424 0.930 . S
O420 Cu414 1.974 . S
O420 C430 1.282 . S
C421 O422 1.261 . S
C421 O434 1.251 . S
O422 C421 1.261 . S
H423 C417 0.930 . S
H424 C419 0.930 . S
N425 Cu414 1.985 . S
N425 C427 1.335 . S
N425 C428 1.390 . S
N426 C427 1.345 . S
N426 C429 1.336 . S
C427 N425 1.335 . S
C427 N426 1.345 . S
C427 H432 0.930 . S
C428 N425 1.390 . S
C428 C429 1.346 . S
C428 H433 0.930 . S
C429 N426 1.336 . S
C429 C428 1.346 . S
C429 H436 0.929 . S
C430 O420 1.282 . S
C430 O431 1.216 . S
O431 C430 1.216 . S
H432 C427 0.930 . S
H433 C428 0.930 . S
O434 Cu414 1.959 . S
O434 C421 1.251 . S
H435 C418 0.930 . S
H436 C429 0.929 . S
Cu437 N438 1.999 . S
Cu437 O443 1.974 . S
Cu437 N448 1.985 . S
Cu437 O457 1.959 . S
N438 Cu437 1.999 . S
N438 C440 1.263 . S
N438 C442 1.389 . S
N439 C440 1.358 . S
N439 C441 1.400 . S
C440 N438 1.263 . S
C440 N439 1.358 . S
C440 H446 0.930 . S
C441 N439 1.400 . S
C441 C442 1.351 . S
C441 H458 0.930 . S
C442 N438 1.389 . S
C442 C441 1.351 . S
C442 H447 0.930 . S
O443 Cu437 1.974 . S
O443 C453 1.282 . S
C444 O445 1.261 . S
C444 O457 1.251 . S
O445 C444 1.261 . S
H446 C440 0.930 . S
H447 C442 0.930 . S
N448 Cu437 1.985 . S
N448 C450 1.335 . S
N448 C451 1.390 . S
N449 C450 1.345 . S
N449 C452 1.336 . S
C450 N448 1.335 . S
C450 N449 1.345 . S
C450 H455 0.930 . S
C451 N448 1.390 . S
C451 C452 1.346 . S
C451 H456 0.930 . S
C452 N449 1.336 . S
C452 C451 1.346 . S
C452 H459 0.929 . S
C453 O443 1.282 . S
C453 O454 1.216 . S
O454 C453 1.216 . S
H455 C450 0.930 . S
H456 C451 0.930 . S
O457 Cu437 1.959 . S
O457 C444 1.251 . S
H458 C441 0.930 . S
H459 C452 0.929 . S
Cu460 N461 1.999 . S
Cu460 O466 1.974 . S
Cu460 N471 1.985 . S
Cu460 O480 1.959 . S
N461 Cu460 1.999 . S
N461 C463 1.263 . S
N461 C465 1.389 . S
N462 C463 1.358 . S
N462 C464 1.400 . S
C463 N461 1.263 . S
C463 N462 1.358 . S
C463 H469 0.930 . S
C464 N462 1.400 . S
C464 C465 1.351 . S
C464 H481 0.930 . S
C465 N461 1.389 . S
C465 C464 1.351 . S
C465 H470 0.930 . S
O466 Cu460 1.974 . S
O466 C476 1.282 . S
C467 O468 1.261 . S
C467 O480 1.251 . S
O468 C467 1.261 . S
H469 C463 0.930 . S
H470 C465 0.930 . S
N471 Cu460 1.985 . S
N471 C473 1.335 . S
N471 C474 1.390 1_565 S
N472 C473 1.345 1_545 S
N472 C475 1.336 . S
C473 N471 1.335 . S
C473 N472 1.345 1_565 S
C473 H478 0.930 . S
C474 N471 1.390 1_545 S
C474 C475 1.346 . S
C474 H479 0.930 . S
C475 N472 1.336 . S
C475 C474 1.346 . S
C475 H482 0.929 . S
C476 O466 1.282 . S
C476 O477 1.216 . S
O477 C476 1.216 . S
H478 C473 0.930 . S
H479 C474 0.930 . S
O480 Cu460 1.959 . S
O480 C467 1.251 . S
H481 C464 0.930 . S
H482 C475 0.929 . S
Cu483 N484 1.999 . S
Cu483 O489 1.974 . S
Cu483 N494 1.985 . S
Cu483 O503 1.959 . S
N484 Cu483 1.999 . S
N484 C486 1.263 . S
N484 C488 1.389 . S
N485 C486 1.358 . S
N485 C487 1.400 . S
C486 N484 1.263 . S
C486 N485 1.358 . S
C486 H492 0.930 . S
C487 N485 1.400 . S
C487 C488 1.351 . S
C487 H504 0.930 . S
C488 N484 1.389 . S
C488 C487 1.351 . S
C488 H493 0.930 . S
O489 Cu483 1.974 . S
O489 C499 1.282 . S
C490 O491 1.261 . S
C490 O503 1.251 . S
O491 C490 1.261 . S
H492 C486 0.930 . S
H493 C488 0.930 . S
N494 Cu483 1.985 . S
N494 C496 1.335 . S
N494 C497 1.390 . S
N495 C496 1.345 . S
N495 C498 1.336 . S
C496 N494 1.335 . S
C496 N495 1.345 . S
C496 H501 0.930 . S
C497 N494 1.390 . S
C497 C498 1.346 . S
C497 H502 0.930 . S
C498 N495 1.336 . S
C498 C497 1.346 . S
C498 H505 0.929 . S
C499 O489 1.282 . S
C499 O500 1.216 . S
O500 C499 1.216 . S
H501 C496 0.930 . S
H502 C497 0.930 . S
O503 Cu483 1.959 . S
O503 C490 1.251 . S
H504 C487 0.930 . S
H505 C498 0.929 . S
Cu506 N507 1.999 . S
Cu506 O512 1.974 . S
Cu506 N517 1.985 . S
Cu506 O526 1.959 . S
N507 Cu506 1.999 . S
N507 C509 1.263 . S
N507 C511 1.389 . S
N508 C509 1.358 . S
N508 C510 1.400 . S
C509 N507 1.263 . S
C509 N508 1.358 . S
C509 H515 0.930 . S
C510 N508 1.400 . S
C510 C511 1.351 . S
C510 H527 0.930 . S
C511 N507 1.389 . S
C511 C510 1.351 . S
C511 H516 0.930 . S
O512 Cu506 1.974 . S
O512 C522 1.282 . S
C513 O514 1.261 . S
C513 O526 1.251 . S
O514 C513 1.261 . S
H515 C509 0.930 . S
H516 C511 0.930 . S
N517 Cu506 1.985 . S
N517 C519 1.335 . S
N517 C520 1.390 . S
N518 C519 1.345 . S
N518 C521 1.336 . S
C519 N517 1.335 . S
C519 N518 1.345 . S
C519 H524 0.930 . S
C520 N517 1.390 . S
C520 C521 1.346 . S
C520 H525 0.930 . S
C521 N518 1.336 . S
C521 C520 1.346 . S
C521 H528 0.929 . S
C522 O512 1.282 . S
C522 O523 1.216 . S
O523 C522 1.216 . S
H524 C519 0.930 . S
H525 C520 0.930 . S
O526 Cu506 1.959 . S
O526 C513 1.251 . S
H527 C510 0.930 . S
H528 C521 0.929 . S
Cu529 N530 1.999 . S
Cu529 O535 1.974 . S
Cu529 N540 1.985 . S
Cu529 O549 1.959 . S
N530 Cu529 1.999 . S
N530 C532 1.263 . S
N530 C534 1.389 . S
N531 C532 1.358 . S
N531 C533 1.400 . S
C532 N530 1.263 . S
C532 N531 1.358 . S
C532 H538 0.930 . S
C533 N531 1.400 . S
C533 C534 1.351 . S
C533 H550 0.930 . S
C534 N530 1.389 . S
C534 C533 1.351 . S
C534 H539 0.930 . S
O535 Cu529 1.974 . S
O535 C545 1.282 . S
C536 O537 1.261 . S
C536 O549 1.251 . S
O537 C536 1.261 . S
H538 C532 0.930 . S
H539 C534 0.930 . S
N540 Cu529 1.985 . S
N540 C542 1.335 . S
N540 C543 1.390 . S
N541 C542 1.345 . S
N541 C544 1.336 . S
C542 N540 1.335 . S
C542 N541 1.345 . S
C542 H547 0.930 . S
C543 N540 1.390 . S
C543 C544 1.346 . S
C543 H548 0.930 . S
C544 N541 1.336 . S
C544 C543 1.346 . S
C544 H551 0.929 . S
C545 O535 1.282 . S
C545 O546 1.216 . S
O546 C545 1.216 . S
H547 C542 0.930 . S
H548 C543 0.930 . S
O549 Cu529 1.959 . S
O549 C536 1.251 . S
H550 C533 0.930 . S
H551 C544 0.929 . S
Cu552 N553 1.999 . S
Cu552 O558 1.974 . S
Cu552 N563 1.985 . S
Cu552 O572 1.959 . S
N553 Cu552 1.999 . S
N553 C555 1.263 . S
N553 C557 1.389 . S
N554 C555 1.358 . S
N554 C556 1.400 . S
C555 N553 1.263 . S
C555 N554 1.358 . S
C555 H561 0.930 . S
C556 N554 1.400 . S
C556 C557 1.351 . S
C556 H573 0.930 . S
C557 N553 1.389 . S
C557 C556 1.351 . S
C557 H562 0.930 . S
O558 Cu552 1.974 . S
O558 C568 1.282 . S
C559 O560 1.261 . S
C559 O572 1.251 . S
O560 C559 1.261 . S
H561 C555 0.930 . S
H562 C557 0.930 . S
N563 Cu552 1.985 . S
N563 C565 1.335 . S
N563 C566 1.390 . S
N564 C565 1.345 . S
N564 C567 1.336 . S
C565 N563 1.335 . S
C565 N564 1.345 . S
C565 H570 0.930 . S
C566 N563 1.390 . S
C566 C567 1.346 . S
C566 H571 0.930 . S
C567 N564 1.336 . S
C567 C566 1.346 . S
C567 H574 0.929 . S
C568 O558 1.282 . S
C568 O569 1.216 . S
O569 C568 1.216 . S
H570 C565 0.930 . S
H571 C566 0.930 . S
O572 Cu552 1.959 . S
O572 C559 1.251 . S
H573 C556 0.930 . S
H574 C567 0.929 . S
Cu575 N576 1.999 . S
Cu575 O581 1.974 . S
Cu575 N586 1.985 . S
Cu575 O595 1.959 . S
N576 Cu575 1.999 . S
N576 C578 1.263 . S
N576 C580 1.389 . S
N577 C578 1.358 . S
N577 C579 1.400 . S
C578 N576 1.263 . S
C578 N577 1.358 . S
C578 H584 0.930 . S
C579 N577 1.400 . S
C579 C580 1.351 . S
C579 H596 0.930 . S
C580 N576 1.389 . S
C580 C579 1.351 . S
C580 H585 0.930 . S
O581 Cu575 1.974 . S
O581 C591 1.282 . S
C582 O583 1.261 . S
C582 O595 1.251 . S
O583 C582 1.261 . S
H584 C578 0.930 . S
H585 C580 0.930 . S
N586 Cu575 1.985 . S
N586 C588 1.335 . S
N586 C589 1.390 . S
N587 C588 1.345 . S
N587 C590 1.336 . S
C588 N586 1.335 . S
C588 N587 1.345 . S
C588 H593 0.930 . S
C589 N586 1.390 . S
C589 C590 1.346 . S
C589 H594 0.930 . S
C590 N587 1.336 . S
C590 C589 1.346 . S
C590 H597 0.929 . S
C591 O581 1.282 . S
C591 O592 1.216 . S
O592 C591 1.216 . S
H593 C588 0.930 . S
H594 C589 0.930 . S
O595 Cu575 1.959 . S
O595 C582 1.251 . S
H596 C579 0.930 . S
H597 C590 0.929 . S
Cu598 N599 1.999 . S
Cu598 O604 1.974 . S
Cu598 N609 1.985 . S
Cu598 O618 1.959 . S
N599 Cu598 1.999 . S
N599 C601 1.263 . S
N599 C603 1.389 . S
N600 C601 1.358 . S
N600 C602 1.400 . S
C601 N599 1.263 . S
C601 N600 1.358 . S
C601 H607 0.930 . S
C602 N600 1.400 . S
C602 C603 1.351 . S
C602 H619 0.930 . S
C603 N599 1.389 . S
C603 C602 1.351 . S
C603 H608 0.930 . S
O604 Cu598 1.974 . S
O604 C614 1.282 . S
C605 O606 1.261 . S
C605 O618 1.251 . S
O606 C605 1.261 . S
H607 C601 0.930 . S
H608 C603 0.930 . S
N609 Cu598 1.985 . S
N609 C611 1.335 . S
N609 C612 1.390 . S
N610 C611 1.345 . S
N610 C613 1.336 . S
C611 N609 1.335 . S
C611 N610 1.345 . S
C611 H616 0.930 . S
C612 N609 1.390 . S
C612 C613 1.346 . S
C612 H617 0.930 . S
C613 N610 1.336 . S
C613 C612 1.346 . S
C613 H620 0.929 . S
C614 O604 1.282 . S
C614 O615 1.216 . S
O615 C614 1.216 . S
H616 C611 0.930 . S
H617 C612 0.930 . S
O618 Cu598 1.959 . S
O618 C605 1.251 . S
H619 C602 0.930 . S
H620 C613 0.929 . S
Cu621 N622 1.999 . S
Cu621 O627 1.974 . S
Cu621 N632 1.985 . S
Cu621 O641 1.959 . S
N622 Cu621 1.999 . S
N622 C624 1.263 . S
N622 C626 1.389 . S
N623 C624 1.358 . S
N623 C625 1.400 . S
C624 N622 1.263 . S
C624 N623 1.358 . S
C624 H630 0.930 . S
C625 N623 1.400 . S
C625 C626 1.351 . S
C625 H642 0.930 . S
C626 N622 1.389 . S
C626 C625 1.351 . S
C626 H631 0.930 . S
O627 Cu621 1.974 . S
O627 C637 1.282 . S
C628 O629 1.261 . S
C628 O641 1.251 . S
O629 C628 1.261 . S
H630 C624 0.930 . S
H631 C626 0.930 . S
N632 Cu621 1.985 . S
N632 C634 1.335 . S
N632 C635 1.390 1_455 S
N633 C634 1.345 1_655 S
N633 C636 1.336 . S
C634 N632 1.335 . S
C634 N633 1.345 1_455 S
C634 H639 0.930 . S
C635 N632 1.390 1_655 S
C635 C636 1.346 . S
C635 H640 0.930 . S
C636 N633 1.336 . S
C636 C635 1.346 . S
C636 H643 0.929 . S
C637 O627 1.282 . S
C637 O638 1.216 . S
O638 C637 1.216 . S
H639 C634 0.930 . S
H640 C635 0.930 . S
O641 Cu621 1.959 . S
O641 C628 1.251 . S
H642 C625 0.930 . S
H643 C636 0.929 . S
Cu644 N645 1.999 . S
Cu644 O650 1.974 . S
Cu644 N655 1.985 . S
Cu644 O664 1.959 . S
N645 Cu644 1.999 . S
N645 C647 1.263 . S
N645 C649 1.389 . S
N646 C647 1.358 . S
N646 C648 1.400 . S
C647 N645 1.263 . S
C647 N646 1.358 . S
C647 H653 0.930 . S
C648 N646 1.400 . S
C648 C649 1.351 . S
C648 H665 0.930 . S
C649 N645 1.389 . S
C649 C648 1.351 . S
C649 H654 0.930 . S
O650 Cu644 1.974 . S
O650 C660 1.282 . S
C651 O652 1.261 . S
C651 O664 1.251 . S
O652 C651 1.261 . S
H653 C647 0.930 . S
H654 C649 0.930 . S
N655 Cu644 1.985 . S
N655 C657 1.335 . S
N655 C658 1.390 . S
N656 C657 1.345 . S
N656 C659 1.336 . S
C657 N655 1.335 . S
C657 N656 1.345 . S
C657 H662 0.930 . S
C658 N655 1.390 . S
C658 C659 1.346 . S
C658 H663 0.930 . S
C659 N656 1.336 . S
C659 C658 1.346 . S
C659 H666 0.929 . S
C660 O650 1.282 . S
C660 O661 1.216 . S
O661 C660 1.216 . S
H662 C657 0.930 . S
H663 C658 0.930 . S
O664 Cu644 1.959 . S
O664 C651 1.251 . S
H665 C648 0.930 . S
H666 C659 0.929 . S
Cu667 N668 1.999 . S
Cu667 O673 1.974 . S
Cu667 N678 1.985 . S
Cu667 O687 1.959 . S
N668 Cu667 1.999 . S
N668 C670 1.263 . S
N668 C672 1.389 . S
N669 C670 1.358 . S
N669 C671 1.400 . S
C670 N668 1.263 . S
C670 N669 1.358 . S
C670 H676 0.930 . S
C671 N669 1.400 . S
C671 C672 1.351 . S
C671 H688 0.930 . S
C672 N668 1.389 . S
C672 C671 1.351 . S
C672 H677 0.930 . S
O673 Cu667 1.974 . S
O673 C683 1.282 . S
C674 O675 1.261 . S
C674 O687 1.251 . S
O675 C674 1.261 . S
H676 C670 0.930 . S
H677 C672 0.930 . S
N678 Cu667 1.985 . S
N678 C680 1.335 . S
N678 C681 1.390 1_455 S
N679 C680 1.345 1_655 S
N679 C682 1.336 . S
C680 N678 1.335 . S
C680 N679 1.345 1_455 S
C680 H685 0.930 . S
C681 N678 1.390 1_655 S
C681 C682 1.346 . S
C681 H686 0.930 . S
C682 N679 1.336 . S
C682 C681 1.346 . S
C682 H689 0.929 . S
C683 O673 1.282 . S
C683 O684 1.216 . S
O684 C683 1.216 . S
H685 C680 0.930 . S
H686 C681 0.930 . S
O687 Cu667 1.959 . S
O687 C674 1.251 . S
H688 C671 0.930 . S
H689 C682 0.929 . S
Cu690 N691 1.999 . S
Cu690 O696 1.974 . S
Cu690 N701 1.985 . S
Cu690 O710 1.959 . S
N691 Cu690 1.999 . S
N691 C693 1.263 . S
N691 C695 1.389 . S
N692 C693 1.358 . S
N692 C694 1.400 . S
C693 N691 1.263 . S
C693 N692 1.358 . S
C693 H699 0.930 . S
C694 N692 1.400 . S
C694 C695 1.351 . S
C694 H711 0.930 . S
C695 N691 1.389 . S
C695 C694 1.351 . S
C695 H700 0.930 . S
O696 Cu690 1.974 . S
O696 C706 1.282 . S
C697 O698 1.261 . S
C697 O710 1.251 . S
O698 C697 1.261 . S
H699 C693 0.930 . S
H700 C695 0.930 . S
N701 Cu690 1.985 . S
N701 C703 1.335 . S
N701 C704 1.390 . S
N702 C703 1.345 . S
N702 C705 1.336 . S
C703 N701 1.335 . S
C703 N702 1.345 . S
C703 H708 0.930 . S
C704 N701 1.390 . S
C704 C705 1.346 . S
C704 H709 0.930 . S
C705 N702 1.336 . S
C705 C704 1.346 . S
C705 H712 0.929 . S
C706 O696 1.282 . S
C706 O707 1.216 . S
O707 C706 1.216 . S
H708 C703 0.930 . S
H709 C704 0.930 . S
O710 Cu690 1.959 . S
O710 C697 1.251 . S
H711 C694 0.930 . S
H712 C705 0.929 . S
Cu713 N714 1.999 . S
Cu713 O719 1.974 . S
Cu713 N724 1.985 . S
Cu713 O733 1.959 . S
N714 Cu713 1.999 . S
N714 C716 1.263 . S
N714 C718 1.389 . S
N715 C716 1.358 . S
N715 C717 1.400 . S
C716 N714 1.263 . S
C716 N715 1.358 . S
C716 H722 0.930 . S
C717 N715 1.400 . S
C717 C718 1.351 . S
C717 H734 0.930 . S
C718 N714 1.389 . S
C718 C717 1.351 . S
C718 H723 0.930 . S
O719 Cu713 1.974 . S
O719 C729 1.282 . S
C720 O721 1.261 . S
C720 O733 1.251 . S
O721 C720 1.261 . S
H722 C716 0.930 . S
H723 C718 0.930 . S
N724 Cu713 1.985 . S
N724 C726 1.335 . S
N724 C727 1.390 . S
N725 C726 1.345 . S
N725 C728 1.336 . S
C726 N724 1.335 . S
C726 N725 1.345 . S
C726 H731 0.930 . S
C727 N724 1.390 . S
C727 C728 1.346 . S
C727 H732 0.930 . S
C728 N725 1.336 . S
C728 C727 1.346 . S
C728 H735 0.929 . S
C729 O719 1.282 . S
C729 O730 1.216 . S
O730 C729 1.216 . S
H731 C726 0.930 . S
H732 C727 0.930 . S
O733 Cu713 1.959 . S
O733 C720 1.251 . S
H734 C717 0.930 . S
H735 C728 0.929 . S
Cu736 N737 1.999 . S
Cu736 O742 1.974 . S
Cu736 N747 1.985 . S
Cu736 O756 1.959 . S
N737 Cu736 1.999 . S
N737 C739 1.263 . S
N737 C741 1.389 . S
N738 C739 1.358 . S
N738 C740 1.400 . S
C739 N737 1.263 . S
C739 N738 1.358 . S
C739 H745 0.930 . S
C740 N738 1.400 . S
C740 C741 1.351 . S
C740 H757 0.930 . S
C741 N737 1.389 . S
C741 C740 1.351 . S
C741 H746 0.930 . S
O742 Cu736 1.974 . S
O742 C752 1.282 . S
C743 O744 1.261 . S
C743 O756 1.251 . S
O744 C743 1.261 . S
H745 C739 0.930 . S
H746 C741 0.930 . S
N747 Cu736 1.985 . S
N747 C749 1.335 . S
N747 C750 1.390 . S
N748 C749 1.345 . S
N748 C751 1.336 . S
C749 N747 1.335 . S
C749 N748 1.345 . S
C749 H754 0.930 . S
C750 N747 1.390 . S
C750 C751 1.346 . S
C750 H755 0.930 . S
C751 N748 1.336 . S
C751 C750 1.346 . S
C751 H758 0.929 . S
C752 O742 1.282 . S
C752 O753 1.216 . S
O753 C752 1.216 . S
H754 C749 0.930 . S
H755 C750 0.930 . S
O756 Cu736 1.959 . S
O756 C743 1.251 . S
H757 C740 0.930 . S
H758 C751 0.929 . S
Cu759 N760 1.999 . S
Cu759 O765 1.974 . S
Cu759 N770 1.985 . S
Cu759 O779 1.959 . S
N760 Cu759 1.999 . S
N760 C762 1.263 . S
N760 C764 1.389 . S
N761 C762 1.358 . S
N761 C763 1.400 . S
C762 N760 1.263 . S
C762 N761 1.358 . S
C762 H768 0.930 . S
C763 N761 1.400 . S
C763 C764 1.351 . S
C763 H780 0.930 . S
C764 N760 1.389 . S
C764 C763 1.351 . S
C764 H769 0.930 . S
O765 Cu759 1.974 . S
O765 C775 1.282 . S
C766 O767 1.261 . S
C766 O779 1.251 . S
O767 C766 1.261 . S
H768 C762 0.930 . S
H769 C764 0.930 . S
N770 Cu759 1.985 . S
N770 C772 1.335 . S
N770 C773 1.390 1_554 S
N771 C772 1.345 1_556 S
N771 C774 1.336 . S
C772 N770 1.335 . S
C772 N771 1.345 1_554 S
C772 H777 0.930 . S
C773 N770 1.390 1_556 S
C773 C774 1.346 . S
C773 H778 0.930 . S
C774 N771 1.336 . S
C774 C773 1.346 . S
C774 H781 0.929 . S
C775 O765 1.282 . S
C775 O776 1.216 . S
O776 C775 1.216 . S
H777 C772 0.930 . S
H778 C773 0.930 . S
O779 Cu759 1.959 . S
O779 C766 1.251 . S
H780 C763 0.930 . S
H781 C774 0.929 . S
Cu782 N783 1.999 . S
Cu782 O788 1.974 . S
Cu782 N793 1.985 . S
Cu782 O802 1.959 . S
N783 Cu782 1.999 . S
N783 C785 1.263 . S
N783 C787 1.389 . S
N784 C785 1.358 . S
N784 C786 1.400 . S
C785 N783 1.263 . S
C785 N784 1.358 . S
C785 H791 0.930 . S
C786 N784 1.400 . S
C786 C787 1.351 . S
C786 H803 0.930 . S
C787 N783 1.389 . S
C787 C786 1.351 . S
C787 H792 0.930 . S
O788 Cu782 1.974 . S
O788 C798 1.282 . S
C789 O790 1.261 . S
C789 O802 1.251 . S
O790 C789 1.261 . S
H791 C785 0.930 . S
H792 C787 0.930 . S
N793 Cu782 1.985 . S
N793 C795 1.335 . S
N793 C796 1.390 . S
N794 C795 1.345 . S
N794 C797 1.336 . S
C795 N793 1.335 . S
C795 N794 1.345 . S
C795 H800 0.930 . S
C796 N793 1.390 . S
C796 C797 1.346 . S
C796 H801 0.930 . S
C797 N794 1.336 . S
C797 C796 1.346 . S
C797 H804 0.929 . S
C798 O788 1.282 . S
C798 O799 1.216 . S
O799 C798 1.216 . S
H800 C795 0.930 . S
H801 C796 0.930 . S
O802 Cu782 1.959 . S
O802 C789 1.251 . S
H803 C786 0.930 . S
H804 C797 0.929 . S
Cu805 N806 1.999 . S
Cu805 O811 1.974 . S
Cu805 N816 1.985 . S
Cu805 O825 1.959 . S
N806 Cu805 1.999 . S
N806 C808 1.263 . S
N806 C810 1.389 . S
N807 C808 1.358 . S
N807 C809 1.400 . S
C808 N806 1.263 . S
C808 N807 1.358 . S
C808 H814 0.930 . S
C809 N807 1.400 . S
C809 C810 1.351 . S
C809 H826 0.930 . S
C810 N806 1.389 . S
C810 C809 1.351 . S
C810 H815 0.930 . S
O811 Cu805 1.974 . S
O811 C821 1.282 . S
C812 O813 1.261 . S
C812 O825 1.251 . S
O813 C812 1.261 . S
H814 C808 0.930 . S
H815 C810 0.930 . S
N816 Cu805 1.985 . S
N816 C818 1.335 . S
N816 C819 1.390 . S
N817 C818 1.345 . S
N817 C820 1.336 . S
C818 N816 1.335 . S
C818 N817 1.345 . S
C818 H823 0.930 . S
C819 N816 1.390 . S
C819 C820 1.346 . S
C819 H824 0.930 . S
C820 N817 1.336 . S
C820 C819 1.346 . S
C820 H827 0.929 . S
C821 O811 1.282 . S
C821 O822 1.216 . S
O822 C821 1.216 . S
H823 C818 0.930 . S
H824 C819 0.930 . S
O825 Cu805 1.959 . S
O825 C812 1.251 . S
H826 C809 0.930 . S
H827 C820 0.929 . S
Cu828 N829 1.999 . S
Cu828 O834 1.974 . S
Cu828 N839 1.985 . S
Cu828 O848 1.959 . S
N829 Cu828 1.999 . S
N829 C831 1.263 . S
N829 C833 1.389 . S
N830 C831 1.358 . S
N830 C832 1.400 . S
C831 N829 1.263 . S
C831 N830 1.358 . S
C831 H837 0.930 . S
C832 N830 1.400 . S
C832 C833 1.351 . S
C832 H849 0.930 . S
C833 N829 1.389 . S
C833 C832 1.351 . S
C833 H838 0.930 . S
O834 Cu828 1.974 . S
O834 C844 1.282 . S
C835 O836 1.261 . S
C835 O848 1.251 . S
O836 C835 1.261 . S
H837 C831 0.930 . S
H838 C833 0.930 . S
N839 Cu828 1.985 . S
N839 C841 1.335 . S
N839 C842 1.390 . S
N840 C841 1.345 . S
N840 C843 1.336 . S
C841 N839 1.335 . S
C841 N840 1.345 . S
C841 H846 0.930 . S
C842 N839 1.390 . S
C842 C843 1.346 . S
C842 H847 0.930 . S
C843 N840 1.336 . S
C843 C842 1.346 . S
C843 H850 0.929 . S
C844 O834 1.282 . S
C844 O845 1.216 . S
O845 C844 1.216 . S
H846 C841 0.930 . S
H847 C842 0.930 . S
O848 Cu828 1.959 . S
O848 C835 1.251 . S
H849 C832 0.930 . S
H850 C843 0.929 . S
Cu851 N852 1.999 . S
Cu851 O857 1.974 . S
Cu851 N862 1.985 . S
Cu851 O871 1.959 . S
N852 Cu851 1.999 . S
N852 C854 1.263 . S
N852 C856 1.389 . S
N853 C854 1.358 . S
N853 C855 1.400 . S
C854 N852 1.263 . S
C854 N853 1.358 . S
C854 H860 0.930 . S
C855 N853 1.400 . S
C855 C856 1.351 . S
C855 H872 0.930 . S
C856 N852 1.389 . S
C856 C855 1.351 . S
C856 H861 0.930 . S
O857 Cu851 1.974 . S
O857 C867 1.282 . S
C858 O859 1.261 . S
C858 O871 1.251 . S
O859 C858 1.261 . S
H860 C854 0.930 . S
H861 C856 0.930 . S
N862 Cu851 1.985 . S
N862 C864 1.335 . S
N862 C865 1.390 1_556 S
N863 C864 1.345 1_554 S
N863 C866 1.336 . S
C864 N862 1.335 . S
C864 N863 1.345 1_556 S
C864 H869 0.930 . S
C865 N862 1.390 1_554 S
C865 C866 1.346 . S
C865 H870 0.930 . S
C866 N863 1.336 . S
C866 C865 1.346 . S
C866 H873 0.929 . S
C867 O857 1.282 . S
C867 O868 1.216 . S
O868 C867 1.216 . S
H869 C864 0.930 . S
H870 C865 0.930 . S
O871 Cu851 1.959 . S
O871 C858 1.251 . S
H872 C855 0.930 . S
H873 C866 0.929 . S
Cu874 N875 1.999 . S
Cu874 O880 1.974 . S
Cu874 N885 1.985 . S
Cu874 O894 1.959 . S
N875 Cu874 1.999 . S
N875 C877 1.263 . S
N875 C879 1.389 . S
N876 C877 1.358 . S
N876 C878 1.400 . S
C877 N875 1.263 . S
C877 N876 1.358 . S
C877 H883 0.930 . S
C878 N876 1.400 . S
C878 C879 1.351 . S
C878 H895 0.930 . S
C879 N875 1.389 . S
C879 C878 1.351 . S
C879 H884 0.930 . S
O880 Cu874 1.974 . S
O880 C890 1.282 . S
C881 O882 1.261 . S
C881 O894 1.251 . S
O882 C881 1.261 . S
H883 C877 0.930 . S
H884 C879 0.930 . S
N885 Cu874 1.985 . S
N885 C887 1.335 . S
N885 C888 1.390 . S
N886 C887 1.345 . S
N886 C889 1.336 . S
C887 N885 1.335 . S
C887 N886 1.345 . S
C887 H892 0.930 . S
C888 N885 1.390 . S
C888 C889 1.346 . S
C888 H893 0.930 . S
C889 N886 1.336 . S
C889 C888 1.346 . S
C889 H896 0.929 . S
C890 O880 1.282 . S
C890 O891 1.216 . S
O891 C890 1.216 . S
H892 C887 0.930 . S
H893 C888 0.930 . S
O894 Cu874 1.959 . S
O894 C881 1.251 . S
H895 C878 0.930 . S
H896 C889 0.929 . S
Cu897 N898 1.999 . S
Cu897 O903 1.974 . S
Cu897 N908 1.985 . S
Cu897 O917 1.959 . S
N898 Cu897 1.999 . S
N898 C900 1.263 . S
N898 C902 1.389 . S
N899 C900 1.358 . S
N899 C901 1.400 . S
C900 N898 1.263 . S
C900 N899 1.358 . S
C900 H906 0.930 . S
C901 N899 1.400 . S
C901 C902 1.351 . S
C901 H918 0.930 . S
C902 N898 1.389 . S
C902 C901 1.351 . S
C902 H907 0.930 . S
O903 Cu897 1.974 . S
O903 C913 1.282 . S
C904 O905 1.261 . S
C904 O917 1.251 . S
O905 C904 1.261 . S
H906 C900 0.930 . S
H907 C902 0.930 . S
N908 Cu897 1.985 . S
N908 C910 1.335 . S
N908 C911 1.390 . S
N909 C910 1.345 . S
N909 C912 1.336 . S
C910 N908 1.335 . S
C910 N909 1.345 . S
C910 H915 0.930 . S
C911 N908 1.390 . S
C911 C912 1.346 . S
C911 H916 0.930 . S
C912 N909 1.336 . S
C912 C911 1.346 . S
C912 H919 0.929 . S
C913 O903 1.282 . S
C913 O914 1.216 . S
O914 C913 1.216 . S
H915 C910 0.930 . S
H916 C911 0.930 . S
O917 Cu897 1.959 . S
O917 C904 1.251 . S
H918 C901 0.930 . S
H919 C912 0.929 . S
Cu920 N921 1.999 . S
Cu920 O926 1.974 . S
Cu920 N931 1.985 . S
Cu920 O940 1.959 . S
N921 Cu920 1.999 . S
N921 C923 1.263 . S
N921 C925 1.389 . S
N922 C923 1.358 . S
N922 C924 1.400 . S
C923 N921 1.263 . S
C923 N922 1.358 . S
C923 H929 0.930 . S
C924 N922 1.400 . S
C924 C925 1.351 . S
C924 H941 0.930 . S
C925 N921 1.389 . S
C925 C924 1.351 . S
C925 H930 0.930 . S
O926 Cu920 1.974 . S
O926 C936 1.282 . S
C927 O928 1.261 . S
C927 O940 1.251 . S
O928 C927 1.261 . S
H929 C923 0.930 . S
H930 C925 0.930 . S
N931 Cu920 1.985 . S
N931 C933 1.335 . S
N931 C934 1.390 . S
N932 C933 1.345 . S
N932 C935 1.336 . S
C933 N931 1.335 . S
C933 N932 1.345 . S
C933 H938 0.930 . S
C934 N931 1.390 . S
C934 C935 1.346 . S
C934 H939 0.930 . S
C935 N932 1.336 . S
C935 C934 1.346 . S
C935 H942 0.929 . S
C936 O926 1.282 . S
C936 O937 1.216 . S
O937 C936 1.216 . S
H938 C933 0.930 . S
H939 C934 0.930 . S
O940 Cu920 1.959 . S
O940 C927 1.251 . S
H941 C924 0.930 . S
H942 C935 0.929 . S
Cu943 N944 1.999 . S
Cu943 O949 1.974 . S
Cu943 N954 1.985 . S
Cu943 O963 1.959 . S
N944 Cu943 1.999 . S
N944 C946 1.263 . S
N944 C948 1.389 . S
N945 C946 1.358 . S
N945 C947 1.400 . S
C946 N944 1.263 . S
C946 N945 1.358 . S
C946 H952 0.930 . S
C947 N945 1.400 . S
C947 C948 1.351 . S
C947 H964 0.930 . S
C948 N944 1.389 . S
C948 C947 1.351 . S
C948 H953 0.930 . S
O949 Cu943 1.974 . S
O949 C959 1.282 . S
C950 O951 1.261 . S
C950 O963 1.251 . S
O951 C950 1.261 . S
H952 C946 0.930 . S
H953 C948 0.930 . S
N954 Cu943 1.985 . S
N954 C956 1.335 . S
N954 C957 1.390 . S
N955 C956 1.345 . S
N955 C958 1.336 . S
C956 N954 1.335 . S
C956 N955 1.345 . S
C956 H961 0.930 . S
C957 N954 1.390 . S
C957 C958 1.346 . S
C957 H962 0.930 . S
C958 N955 1.336 . S
C958 C957 1.346 . S
C958 H965 0.929 . S
C959 O949 1.282 . S
C959 O960 1.216 . S
O960 C959 1.216 . S
H961 C956 0.930 . S
H962 C957 0.930 . S
O963 Cu943 1.959 . S
O963 C950 1.251 . S
H964 C947 0.930 . S
H965 C958 0.929 . S
Cu966 N967 1.999 . S
Cu966 O972 1.974 . S
Cu966 N977 1.985 . S
Cu966 O986 1.959 . S
N967 Cu966 1.999 . S
N967 C969 1.263 . S
N967 C971 1.389 . S
N968 C969 1.358 . S
N968 C970 1.400 . S
C969 N967 1.263 . S
C969 N968 1.358 . S
C969 H975 0.930 . S
C970 N968 1.400 . S
C970 C971 1.351 . S
C970 H987 0.930 . S
C971 N967 1.389 . S
C971 C970 1.351 . S
C971 H976 0.930 . S
O972 Cu966 1.974 . S
O972 C982 1.282 . S
C973 O974 1.261 . S
C973 O986 1.251 . S
O974 C973 1.261 . S
H975 C969 0.930 . S
H976 C971 0.930 . S
N977 Cu966 1.985 . S
N977 C979 1.335 . S
N977 C980 1.390 1_545 S
N978 C979 1.345 1_565 S
N978 C981 1.336 . S
C979 N977 1.335 . S
C979 N978 1.345 1_545 S
C979 H984 0.930 . S
C980 N977 1.390 1_565 S
C980 C981 1.346 . S
C980 H985 0.930 . S
C981 N978 1.336 . S
C981 C980 1.346 . S
C981 H988 0.929 . S
C982 O972 1.282 . S
C982 O983 1.216 . S
O983 C982 1.216 . S
H984 C979 0.930 . S
H985 C980 0.930 . S
O986 Cu966 1.959 . S
O986 C973 1.251 . S
H987 C970 0.930 . S
H988 C981 0.929 . S
Cu989 N990 1.999 . S
Cu989 O995 1.974 . S
Cu989 N1000 1.985 . S
Cu989 O1009 1.959 . S
N990 Cu989 1.999 . S
N990 C992 1.263 . S
N990 C994 1.389 . S
N991 C992 1.358 . S
N991 C993 1.400 . S
C992 N990 1.263 . S
C992 N991 1.358 . S
C992 H998 0.930 . S
C993 N991 1.400 . S
C993 C994 1.351 . S
C993 H1010 0.930 . S
C994 N990 1.389 . S
C994 C993 1.351 . S
C994 H999 0.930 . S
O995 Cu989 1.974 . S
O995 C1005 1.282 . S
C996 O997 1.261 . S
C996 O1009 1.251 . S
O997 C996 1.261 . S
H998 C992 0.930 . S
H999 C994 0.930 . S
N1000 Cu989 1.985 . S
N1000 C1002 1.335 . S
N1000 C1003 1.390 . S
N1001 C1002 1.345 . S
N1001 C1004 1.336 . S
C1002 N1000 1.335 . S
C1002 N1001 1.345 . S
C1002 H1007 0.930 . S
C1003 N1000 1.390 . S
C1003 C1004 1.346 . S
C1003 H1008 0.930 . S
C1004 N1001 1.336 . S
C1004 C1003 1.346 . S
C1004 H1011 0.929 . S
C1005 O995 1.282 . S
C1005 O1006 1.216 . S
O1006 C1005 1.216 . S
H1007 C1002 0.930 . S
H1008 C1003 0.930 . S
O1009 Cu989 1.959 . S
O1009 C996 1.251 . S
H1010 C993 0.930 . S
H1011 C1004 0.929 . S
Cu1012 N1013 1.999 . S
Cu1012 O1018 1.974 . S
Cu1012 N1023 1.985 . S
Cu1012 O1032 1.959 . S
N1013 Cu1012 1.999 . S
N1013 C1015 1.263 . S
N1013 C1017 1.389 . S
N1014 C1015 1.358 . S
N1014 C1016 1.400 . S
C1015 N1013 1.263 . S
C1015 N1014 1.358 . S
C1015 H1021 0.930 . S
C1016 N1014 1.400 . S
C1016 C1017 1.351 . S
C1016 H1033 0.930 . S
C1017 N1013 1.389 . S
C1017 C1016 1.351 . S
C1017 H1022 0.930 . S
O1018 Cu1012 1.974 . S
O1018 C1028 1.282 . S
C1019 O1020 1.261 . S
C1019 O1032 1.251 . S
O1020 C1019 1.261 . S
H1021 C1015 0.930 . S
H1022 C1017 0.930 . S
N1023 Cu1012 1.985 . S
N1023 C1025 1.335 . S
N1023 C1026 1.390 . S
N1024 C1025 1.345 . S
N1024 C1027 1.336 . S
C1025 N1023 1.335 . S
C1025 N1024 1.345 . S
C1025 H1030 0.930 . S
C1026 N1023 1.390 . S
C1026 C1027 1.346 . S
C1026 H1031 0.930 . S
C1027 N1024 1.336 . S
C1027 C1026 1.346 . S
C1027 H1034 0.929 . S
C1028 O1018 1.282 . S
C1028 O1029 1.216 . S
O1029 C1028 1.216 . S
H1030 C1025 0.930 . S
H1031 C1026 0.930 . S
O1032 Cu1012 1.959 . S
O1032 C1019 1.251 . S
H1033 C1016 0.930 . S
H1034 C1027 0.929 . S
Cu1035 N1036 1.999 . S
Cu1035 O1041 1.974 . S
Cu1035 N1046 1.985 . S
Cu1035 O1055 1.959 . S
N1036 Cu1035 1.999 . S
N1036 C1038 1.263 . S
N1036 C1040 1.389 . S
N1037 C1038 1.358 . S
N1037 C1039 1.400 . S
C1038 N1036 1.263 . S
C1038 N1037 1.358 . S
C1038 H1044 0.930 . S
C1039 N1037 1.400 . S
C1039 C1040 1.351 . S
C1039 H1056 0.930 . S
C1040 N1036 1.389 . S
C1040 C1039 1.351 . S
C1040 H1045 0.930 . S
O1041 Cu1035 1.974 . S
O1041 C1051 1.282 . S
C1042 O1043 1.261 . S
C1042 O1055 1.251 . S
O1043 C1042 1.261 . S
H1044 C1038 0.930 . S
H1045 C1040 0.930 . S
N1046 Cu1035 1.985 . S
N1046 C1048 1.335 . S
N1046 C1049 1.390 . S
N1047 C1048 1.345 . S
N1047 C1050 1.336 . S
C1048 N1046 1.335 . S
C1048 N1047 1.345 . S
C1048 H1053 0.930 . S
C1049 N1046 1.390 . S
C1049 C1050 1.346 . S
C1049 H1054 0.930 . S
C1050 N1047 1.336 . S
C1050 C1049 1.346 . S
C1050 H1057 0.929 . S
C1051 O1041 1.282 . S
C1051 O1052 1.216 . S
O1052 C1051 1.216 . S
H1053 C1048 0.930 . S
H1054 C1049 0.930 . S
O1055 Cu1035 1.959 . S
O1055 C1042 1.251 . S
H1056 C1039 0.930 . S
H1057 C1050 0.929 . S
Cu1058 N1059 1.999 . S
Cu1058 O1064 1.974 . S
Cu1058 N1069 1.985 . S
Cu1058 O1078 1.959 . S
N1059 Cu1058 1.999 . S
N1059 C1061 1.263 . S
N1059 C1063 1.389 . S
N1060 C1061 1.358 . S
N1060 C1062 1.400 . S
C1061 N1059 1.263 . S
C1061 N1060 1.358 . S
C1061 H1067 0.930 . S
C1062 N1060 1.400 . S
C1062 C1063 1.351 . S
C1062 H1079 0.930 . S
C1063 N1059 1.389 . S
C1063 C1062 1.351 . S
C1063 H1068 0.930 . S
O1064 Cu1058 1.974 . S
O1064 C1074 1.282 . S
C1065 O1066 1.261 . S
C1065 O1078 1.251 . S
O1066 C1065 1.261 . S
H1067 C1061 0.930 . S
H1068 C1063 0.930 . S
N1069 Cu1058 1.985 . S
N1069 C1071 1.335 . S
N1069 C1072 1.390 1_565 S
N1070 C1071 1.345 1_545 S
N1070 C1073 1.336 . S
C1071 N1069 1.335 . S
C1071 N1070 1.345 1_565 S
C1071 H1076 0.930 . S
C1072 N1069 1.390 1_545 S
C1072 C1073 1.346 . S
C1072 H1077 0.930 . S
C1073 N1070 1.336 . S
C1073 C1072 1.346 . S
C1073 H1080 0.929 . S
C1074 O1064 1.282 . S
C1074 O1075 1.216 . S
O1075 C1074 1.216 . S
H1076 C1071 0.930 . S
H1077 C1072 0.930 . S
O1078 Cu1058 1.959 . S
O1078 C1065 1.251 . S
H1079 C1062 0.930 . S
H1080 C1073 0.929 . S
Cu1081 N1082 1.999 . S
Cu1081 O1087 1.974 . S
Cu1081 N1092 1.985 . S
Cu1081 O1101 1.959 . S
N1082 Cu1081 1.999 . S
N1082 C1084 1.263 . S
N1082 C1086 1.389 . S
N1083 C1084 1.358 . S
N1083 C1085 1.400 . S
C1084 N1082 1.263 . S
C1084 N1083 1.358 . S
C1084 H1090 0.930 . S
C1085 N1083 1.400 . S
C1085 C1086 1.351 . S
C1085 H1102 0.930 . S
C1086 N1082 1.389 . S
C1086 C1085 1.351 . S
C1086 H1091 0.930 . S
O1087 Cu1081 1.974 . S
O1087 C1097 1.282 . S
C1088 O1089 1.261 . S
C1088 O1101 1.251 . S
O1089 C1088 1.261 . S
H1090 C1084 0.930 . S
H1091 C1086 0.930 . S
N1092 Cu1081 1.985 . S
N1092 C1094 1.335 . S
N1092 C1095 1.390 1_545 S
N1093 C1094 1.345 1_565 S
N1093 C1096 1.336 . S
C1094 N1092 1.335 . S
C1094 N1093 1.345 1_545 S
C1094 H1099 0.930 . S
C1095 N1092 1.390 1_565 S
C1095 C1096 1.346 . S
C1095 H1100 0.930 . S
C1096 N1093 1.336 . S
C1096 C1095 1.346 . S
C1096 H1103 0.929 . S
C1097 O1087 1.282 . S
C1097 O1098 1.216 . S
O1098 C1097 1.216 . S
H1099 C1094 0.930 . S
H1100 C1095 0.930 . S
O1101 Cu1081 1.959 . S
O1101 C1088 1.251 . S
H1102 C1085 0.930 . S
H1103 C1096 0.929 . S
C1104 C1105 1.369 . S
C1104 C1106 1.419 . S
C1104 H1108 0.930 . S
C1105 C1104 1.369 . S
C1105 C1114 1.429 . S
C1106 C1104 1.419 . S
C1106 C1107 1.363 . S
C1106 H1109 0.929 . S
C1107 C1106 1.363 . S
C1107 C1113 1.428 . S
H1108 C1104 0.930 . S
H1109 C1106 0.929 . S
S1110 N1111 1.613 . S
S1110 N1112 1.610 . S
N1111 S1110 1.613 . S
N1111 C1114 1.350 . S
N1112 S1110 1.610 . S
N1112 C1113 1.351 . S
C1113 C1107 1.428 . S
C1113 N1112 1.351 . S
C1113 C1114 1.434 . S
C1114 C1105 1.429 . S
C1114 N1111 1.350 . S
C1114 C1113 1.434 . S
C1115 C1116 1.369 . S
C1115 C1117 1.419 . S
C1115 H1119 0.930 . S
C1116 C1115 1.369 . S
C1116 C1125 1.429 . S
C1117 C1115 1.419 . S
C1117 C1118 1.363 . S
C1117 H1120 0.929 . S
C1118 C1117 1.363 . S
C1118 C1124 1.428 . S
H1119 C1115 0.930 . S
H1120 C1117 0.929 . S
S1121 N1122 1.613 . S
S1121 N1123 1.610 . S
N1122 S1121 1.613 . S
N1122 C1125 1.350 . S
N1123 S1121 1.610 . S
N1123 C1124 1.351 . S
C1124 C1118 1.428 . S
C1124 N1123 1.351 . S
C1124 C1125 1.434 . S
C1125 C1116 1.429 . S
C1125 N1122 1.350 . S
C1125 C1124 1.434 . S
C1126 C1127 1.369 . S
C1126 C1128 1.419 . S
C1126 H1130 0.930 . S
C1127 C1126 1.369 . S
C1127 C1136 1.429 . S
C1128 C1126 1.419 . S
C1128 C1129 1.363 . S
C1128 H1131 0.929 . S
C1129 C1128 1.363 . S
C1129 C1135 1.428 . S
H1130 C1126 0.930 . S
H1131 C1128 0.929 . S
S1132 N1133 1.613 . S
S1132 N1134 1.610 . S
N1133 S1132 1.613 . S
N1133 C1136 1.350 . S
N1134 S1132 1.610 . S
N1134 C1135 1.351 . S
C1135 C1129 1.428 . S
C1135 N1134 1.351 . S
C1135 C1136 1.434 . S
C1136 C1127 1.429 . S
C1136 N1133 1.350 . S
C1136 C1135 1.434 . S
C1137 C1138 1.369 . S
C1137 C1139 1.419 . S
C1137 H1141 0.930 . S
C1138 C1137 1.369 . S
C1138 C1147 1.429 . S
C1139 C1137 1.419 . S
C1139 C1140 1.363 . S
C1139 H1142 0.929 . S
C1140 C1139 1.363 . S
C1140 C1146 1.428 . S
H1141 C1137 0.930 . S
H1142 C1139 0.929 . S
S1143 N1144 1.613 . S
S1143 N1145 1.610 . S
N1144 S1143 1.613 . S
N1144 C1147 1.350 . S
N1145 S1143 1.610 . S
N1145 C1146 1.351 . S
C1146 C1140 1.428 . S
C1146 N1145 1.351 . S
C1146 C1147 1.434 . S
C1147 C1138 1.429 . S
C1147 N1144 1.350 . S
C1147 C1146 1.434 . S
C1148 C1149 1.369 . S
C1148 C1150 1.419 . S
C1148 H1152 0.930 . S
C1149 C1148 1.369 . S
C1149 C1158 1.429 . S
C1150 C1148 1.419 . S
C1150 C1151 1.363 . S
C1150 H1153 0.929 . S
C1151 C1150 1.363 . S
C1151 C1157 1.428 . S
H1152 C1148 0.930 . S
H1153 C1150 0.929 . S
S1154 N1155 1.613 1_556 S
S1154 N1156 1.610 . S
N1155 S1154 1.613 1_554 S
N1155 C1158 1.350 . S
N1156 S1154 1.610 . S
N1156 C1157 1.351 1_556 S
C1157 C1151 1.428 . S
C1157 N1156 1.351 1_554 S
C1157 C1158 1.434 . S
C1158 C1149 1.429 . S
C1158 N1155 1.350 . S
C1158 C1157 1.434 . S
C1159 C1160 1.369 . S
C1159 C1161 1.419 . S
C1159 H1163 0.930 . S
C1160 C1159 1.369 . S
C1160 C1169 1.429 . S
C1161 C1159 1.419 . S
C1161 C1162 1.363 . S
C1161 H1164 0.929 . S
C1162 C1161 1.363 . S
C1162 C1168 1.428 . S
H1163 C1159 0.930 . S
H1164 C1161 0.929 . S
S1165 N1166 1.613 . S
S1165 N1167 1.610 . S
N1166 S1165 1.613 . S
N1166 C1169 1.350 . S
N1167 S1165 1.610 . S
N1167 C1168 1.351 . S
C1168 C1162 1.428 . S
C1168 N1167 1.351 . S
C1168 C1169 1.434 . S
C1169 C1160 1.429 . S
C1169 N1166 1.350 . S
C1169 C1168 1.434 . S
C1170 C1171 1.369 . S
C1170 C1172 1.419 . S
C1170 H1174 0.930 . S
C1171 C1170 1.369 . S
C1171 C1180 1.429 . S
C1172 C1170 1.419 . S
C1172 C1173 1.363 . S
C1172 H1175 0.929 . S
C1173 C1172 1.363 . S
C1173 C1179 1.428 . S
H1174 C1170 0.930 . S
H1175 C1172 0.929 . S
S1176 N1177 1.613 . S
S1176 N1178 1.610 . S
N1177 S1176 1.613 . S
N1177 C1180 1.350 . S
N1178 S1176 1.610 . S
N1178 C1179 1.351 . S
C1179 C1173 1.428 . S
C1179 N1178 1.351 . S
C1179 C1180 1.434 . S
C1180 C1171 1.429 . S
C1180 N1177 1.350 . S
C1180 C1179 1.434 . S
C1181 C1182 1.369 . S
C1181 C1183 1.419 . S
C1181 H1185 0.930 . S
C1182 C1181 1.369 . S
C1182 C1191 1.429 . S
C1183 C1181 1.419 . S
C1183 C1184 1.363 . S
C1183 H1186 0.929 . S
C1184 C1183 1.363 . S
C1184 C1190 1.428 . S
H1185 C1181 0.930 . S
H1186 C1183 0.929 . S
S1187 N1188 1.613 1_655 S
S1187 N1189 1.610 . S
N1188 S1187 1.613 1_455 S
N1188 C1191 1.350 . S
N1189 S1187 1.610 . S
N1189 C1190 1.351 1_655 S
C1190 C1184 1.428 . S
C1190 N1189 1.351 1_455 S
C1190 C1191 1.434 . S
C1191 C1182 1.429 . S
C1191 N1188 1.350 . S
C1191 C1190 1.434 . S
C1192 C1193 1.369 . S
C1192 C1194 1.419 . S
C1192 H1196 0.930 . S
C1193 C1192 1.369 . S
C1193 C1202 1.429 . S
C1194 C1192 1.419 . S
C1194 C1195 1.363 . S
C1194 H1197 0.929 . S
C1195 C1194 1.363 . S
C1195 C1201 1.428 . S
H1196 C1192 0.930 . S
H1197 C1194 0.929 . S
S1198 N1199 1.613 . S
S1198 N1200 1.610 . S
N1199 S1198 1.613 . S
N1199 C1202 1.350 . S
N1200 S1198 1.610 . S
N1200 C1201 1.351 . S
C1201 C1195 1.428 . S
C1201 N1200 1.351 . S
C1201 C1202 1.434 . S
C1202 C1193 1.429 . S
C1202 N1199 1.350 . S
C1202 C1201 1.434 . S
C1203 C1204 1.369 . S
C1203 C1205 1.419 . S
C1203 H1207 0.930 . S
C1204 C1203 1.369 . S
C1204 C1213 1.429 . S
C1205 C1203 1.419 . S
C1205 C1206 1.363 . S
C1205 H1208 0.929 . S
C1206 C1205 1.363 . S
C1206 C1212 1.428 . S
H1207 C1203 0.930 . S
H1208 C1205 0.929 . S
S1209 N1210 1.613 1_565 S
S1209 N1211 1.610 . S
N1210 S1209 1.613 1_545 S
N1210 C1213 1.350 . S
N1211 S1209 1.610 . S
N1211 C1212 1.351 1_565 S
C1212 C1206 1.428 . S
C1212 N1211 1.351 1_545 S
C1212 C1213 1.434 . S
C1213 C1204 1.429 . S
C1213 N1210 1.350 . S
C1213 C1212 1.434 . S
C1214 C1215 1.369 . S
C1214 C1216 1.419 . S
C1214 H1218 0.930 . S
C1215 C1214 1.369 . S
C1215 C1224 1.429 . S
C1216 C1214 1.419 . S
C1216 C1217 1.363 . S
C1216 H1219 0.929 . S
C1217 C1216 1.363 . S
C1217 C1223 1.428 . S
H1218 C1214 0.930 . S
H1219 C1216 0.929 . S
S1220 N1221 1.605 1_545 S
S1220 N1222 1.612 . S
N1221 S1220 1.605 1_565 S
N1221 C1224 1.350 . S
N1222 S1220 1.612 . S
N1222 C1223 1.351 1_545 S
C1223 C1217 1.428 . S
C1223 N1222 1.351 1_565 S
C1223 C1224 1.434 . S
C1224 C1215 1.429 . S
C1224 N1221 1.350 . S
C1224 C1223 1.434 . S
C1225 C1226 1.369 . S
C1225 C1227 1.419 . S
C1225 H1229 0.930 . S
C1226 C1225 1.369 . S
C1226 C1235 1.429 . S
C1227 C1225 1.419 . S
C1227 C1228 1.363 . S
C1227 H1230 0.929 . S
C1228 C1227 1.363 . S
C1228 C1234 1.428 . S
H1229 C1225 0.930 . S
H1230 C1227 0.929 . S
S1231 N1232 1.613 . S
S1231 N1233 1.610 . S
N1232 S1231 1.613 . S
N1232 C1235 1.350 . S
N1233 S1231 1.610 . S
N1233 C1234 1.351 . S
C1234 C1228 1.428 . S
C1234 N1233 1.351 . S
C1234 C1235 1.434 . S
C1235 C1226 1.429 . S
C1235 N1232 1.350 . S
C1235 C1234 1.434 . S
C1236 C1237 1.369 . S
C1236 C1238 1.419 . S
C1236 H1240 0.930 . S
C1237 C1236 1.369 . S
C1237 C1246 1.429 . S
C1238 C1236 1.419 . S
C1238 C1239 1.363 . S
C1238 H1241 0.929 . S
C1239 C1238 1.363 . S
C1239 C1245 1.428 . S
H1240 C1236 0.930 . S
H1241 C1238 0.929 . S
S1242 N1243 1.613 . S
S1242 N1244 1.610 . S
N1243 S1242 1.613 . S
N1243 C1246 1.350 . S
N1244 S1242 1.610 . S
N1244 C1245 1.351 . S
C1245 C1239 1.428 . S
C1245 N1244 1.351 . S
C1245 C1246 1.434 . S
C1246 C1237 1.429 . S
C1246 N1243 1.350 . S
C1246 C1245 1.434 . S
C1247 C1248 1.369 . S
C1247 C1249 1.419 . S
C1247 H1251 0.930 . S
C1248 C1247 1.369 . S
C1248 C1257 1.429 . S
C1249 C1247 1.419 . S
C1249 C1250 1.363 . S
C1249 H1252 0.929 . S
C1250 C1249 1.363 . S
C1250 C1256 1.428 . S
H1251 C1247 0.930 . S
H1252 C1249 0.929 . S
S1253 N1254 1.613 . S
S1253 N1255 1.610 . S
N1254 S1253 1.613 . S
N1254 C1257 1.350 . S
N1255 S1253 1.610 . S
N1255 C1256 1.351 . S
C1256 C1250 1.428 . S
C1256 N1255 1.351 . S
C1256 C1257 1.434 . S
C1257 C1248 1.429 . S
C1257 N1254 1.350 . S
C1257 C1256 1.434 . S
C1258 C1259 1.369 . S
C1258 C1260 1.419 . S
C1258 H1262 0.930 . S
C1259 C1258 1.369 . S
C1259 C1268 1.429 . S
C1260 C1258 1.419 . S
C1260 C1261 1.363 . S
C1260 H1263 0.929 . S
C1261 C1260 1.363 . S
C1261 C1267 1.428 . S
H1262 C1258 0.930 . S
H1263 C1260 0.929 . S
S1264 N1265 1.613 . S
S1264 N1266 1.610 . S
N1265 S1264 1.613 . S
N1265 C1268 1.350 . S
N1266 S1264 1.610 . S
N1266 C1267 1.351 . S
C1267 C1261 1.428 . S
C1267 N1266 1.351 . S
C1267 C1268 1.434 . S
C1268 C1259 1.429 . S
C1268 N1265 1.350 . S
C1268 C1267 1.434 . S
C1269 C1270 1.369 . S
C1269 C1271 1.419 . S
C1269 H1273 0.930 . S
C1270 C1269 1.369 . S
C1270 C1279 1.429 . S
C1271 C1269 1.419 . S
C1271 C1272 1.363 . S
C1271 H1274 0.929 . S
C1272 C1271 1.363 . S
C1272 C1278 1.428 . S
H1273 C1269 0.930 . S
H1274 C1271 0.929 . S
S1275 N1276 1.613 . S
S1275 N1277 1.610 1_554 S
N1276 S1275 1.613 . S
N1276 C1279 1.350 1_554 S
N1277 S1275 1.610 1_556 S
N1277 C1278 1.351 . S
C1278 C1272 1.428 . S
C1278 N1277 1.351 . S
C1278 C1279 1.434 . S
C1279 C1270 1.429 . S
C1279 N1276 1.350 1_556 S
C1279 C1278 1.434 . S
C1280 C1281 1.369 . S
C1280 C1282 1.419 . S
C1280 H1284 0.930 . S
C1281 C1280 1.369 . S
C1281 C1290 1.429 . S
C1282 C1280 1.419 . S
C1282 C1283 1.363 . S
C1282 H1285 0.929 . S
C1283 C1282 1.363 . S
C1283 C1289 1.428 . S
H1284 C1280 0.930 . S
H1285 C1282 0.929 . S
S1286 N1287 1.613 . S
S1286 N1288 1.610 . S
N1287 S1286 1.613 . S
N1287 C1290 1.350 . S
N1288 S1286 1.610 . S
N1288 C1289 1.351 . S
C1289 C1283 1.428 . S
C1289 N1288 1.351 . S
C1289 C1290 1.434 . S
C1290 C1281 1.429 . S
C1290 N1287 1.350 . S
C1290 C1289 1.434 . S
C1291 C1292 1.369 . S
C1291 C1293 1.419 . S
C1291 H1295 0.930 . S
C1292 C1291 1.369 . S
C1292 C1301 1.429 . S
C1293 C1291 1.419 . S
C1293 C1294 1.363 . S
C1293 H1296 0.929 . S
C1294 C1293 1.363 . S
C1294 C1300 1.428 . S
H1295 C1291 0.930 . S
H1296 C1293 0.929 . S
S1297 N1298 1.613 . S
S1297 N1299 1.610 . S
N1298 S1297 1.613 . S
N1298 C1301 1.350 . S
N1299 S1297 1.610 . S
N1299 C1300 1.351 . S
C1300 C1294 1.428 . S
C1300 N1299 1.351 . S
C1300 C1301 1.434 . S
C1301 C1292 1.429 . S
C1301 N1298 1.350 . S
C1301 C1300 1.434 . S
C1302 C1303 1.369 . S
C1302 C1304 1.419 . S
C1302 H1306 0.930 . S
C1303 C1302 1.369 . S
C1303 C1312 1.429 . S
C1304 C1302 1.419 . S
C1304 C1305 1.363 . S
C1304 H1307 0.929 . S
C1305 C1304 1.363 . S
C1305 C1311 1.428 . S
H1306 C1302 0.930 . S
H1307 C1304 0.929 . S
S1308 N1309 1.613 . S
S1308 N1310 1.610 . S
N1309 S1308 1.613 . S
N1309 C1312 1.350 . S
N1310 S1308 1.610 . S
N1310 C1311 1.351 . S
C1311 C1305 1.428 . S
C1311 N1310 1.351 . S
C1311 C1312 1.434 . S
C1312 C1303 1.429 . S
C1312 N1309 1.350 . S
C1312 C1311 1.434 . S
C1313 C1314 1.369 . S
C1313 C1315 1.419 . S
C1313 H1317 0.930 . S
C1314 C1313 1.369 . S
C1314 C1323 1.429 . S
C1315 C1313 1.419 . S
C1315 C1316 1.363 . S
C1315 H1318 0.929 . S
C1316 C1315 1.363 . S
C1316 C1322 1.428 . S
H1317 C1313 0.930 . S
H1318 C1315 0.929 . S
S1319 N1320 1.613 . S
S1319 N1321 1.610 . S
N1320 S1319 1.613 . S
N1320 C1323 1.350 . S
N1321 S1319 1.610 . S
N1321 C1322 1.351 . S
C1322 C1316 1.428 . S
C1322 N1321 1.351 . S
C1322 C1323 1.434 . S
C1323 C1314 1.429 . S
C1323 N1320 1.350 . S
C1323 C1322 1.434 . S
C1324 C1325 1.369 . S
C1324 C1326 1.419 . S
C1324 H1328 0.930 . S
C1325 C1324 1.369 . S
C1325 C1334 1.429 . S
C1326 C1324 1.419 . S
C1326 C1327 1.363 . S
C1326 H1329 0.929 . S
C1327 C1326 1.363 . S
C1327 C1333 1.428 . S
H1328 C1324 0.930 . S
H1329 C1326 0.929 . S
S1330 N1331 1.613 . S
S1330 N1332 1.610 . S
N1331 S1330 1.613 . S
N1331 C1334 1.350 . S
N1332 S1330 1.610 . S
N1332 C1333 1.351 . S
C1333 C1327 1.428 . S
C1333 N1332 1.351 . S
C1333 C1334 1.434 . S
C1334 C1325 1.429 . S
C1334 N1331 1.350 . S
C1334 C1333 1.434 . S
C1335 C1336 1.369 . S
C1335 C1337 1.419 . S
C1335 H1339 0.930 . S
C1336 C1335 1.369 . S
C1336 C1345 1.429 . S
C1337 C1335 1.419 . S
C1337 C1338 1.363 . S
C1337 H1340 0.929 . S
C1338 C1337 1.363 . S
C1338 C1344 1.428 . S
H1339 C1335 0.930 . S
H1340 C1337 0.929 . S
S1341 N1342 1.613 . S
S1341 N1343 1.611 1_554 S
N1342 S1341 1.613 . S
N1342 C1345 1.350 . S
N1343 S1341 1.611 1_556 S
N1343 C1344 1.352 1_556 S
C1344 C1338 1.428 . S
C1344 N1343 1.352 1_554 S
C1344 C1345 1.434 . S
C1345 C1336 1.429 . S
C1345 N1342 1.350 . S
C1345 C1344 1.434 . S
C1346 C1347 1.369 . S
C1346 C1348 1.419 . S
C1346 H1350 0.930 . S
C1347 C1346 1.369 . S
C1347 C1356 1.429 . S
C1348 C1346 1.419 . S
C1348 C1349 1.363 . S
C1348 H1351 0.929 . S
C1349 C1348 1.363 . S
C1349 C1355 1.428 . S
H1350 C1346 0.930 . S
H1351 C1348 0.929 . S
S1352 N1353 1.613 . S
S1352 N1354 1.610 . S
N1353 S1352 1.613 . S
N1353 C1356 1.350 . S
N1354 S1352 1.610 . S
N1354 C1355 1.351 . S
C1355 C1349 1.428 . S
C1355 N1354 1.351 . S
C1355 C1356 1.434 . S
C1356 C1347 1.429 . S
C1356 N1353 1.350 . S
C1356 C1355 1.434 . S
C1357 C1358 1.369 . S
C1357 C1359 1.419 . S
C1357 H1361 0.930 . S
C1358 C1357 1.369 . S
C1358 C1367 1.429 . S
C1359 C1357 1.419 . S
C1359 C1360 1.363 . S
C1359 H1362 0.929 1_565 S
C1360 C1359 1.363 . S
C1360 C1366 1.428 . S
H1361 C1357 0.930 . S
H1362 C1359 0.929 1_545 S
S1363 N1364 1.613 . S
S1363 N1365 1.610 . S
N1364 S1363 1.613 . S
N1364 C1367 1.350 . S
N1365 S1363 1.610 . S
N1365 C1366 1.351 . S
C1366 C1360 1.428 . S
C1366 N1365 1.351 . S
C1366 C1367 1.434 . S
C1367 C1358 1.429 . S
C1367 N1364 1.350 . S
C1367 C1366 1.434 . S
C1368 C1369 1.369 . S
C1368 C1370 1.419 . S
C1368 H1372 0.930 . S
C1369 C1368 1.369 . S
C1369 C1378 1.429 . S
C1370 C1368 1.419 . S
C1370 C1371 1.363 . S
C1370 H1373 0.929 . S
C1371 C1370 1.363 . S
C1371 C1377 1.428 . S
H1372 C1368 0.930 . S
H1373 C1370 0.929 . S
S1374 N1375 1.613 . S
S1374 N1376 1.610 . S
N1375 S1374 1.613 . S
N1375 C1378 1.350 . S
N1376 S1374 1.610 . S
N1376 C1377 1.351 . S
C1377 C1371 1.428 . S
C1377 N1376 1.351 . S
C1377 C1378 1.434 . S
C1378 C1369 1.429 . S
C1378 N1375 1.350 . S
C1378 C1377 1.434 . S
C1379 C1380 1.369 1_545 S
C1379 C1381 1.419 1_545 S
C1379 H1383 0.930 . S
C1380 C1379 1.369 1_565 S
C1380 C1389 1.429 . S
C1381 C1379 1.419 1_565 S
C1381 C1382 1.363 . S
C1381 H1384 0.929 1_565 S
C1382 C1381 1.363 . S
C1382 C1388 1.428 . S
H1383 C1379 0.930 . S
H1384 C1381 0.929 1_545 S
S1385 N1386 1.613 . S
S1385 N1387 1.610 . S
N1386 S1385 1.613 . S
N1386 C1389 1.350 . S
N1387 S1385 1.610 . S
N1387 C1388 1.351 . S
C1388 C1382 1.428 . S
C1388 N1387 1.351 . S
C1388 C1389 1.434 . S
C1389 C1380 1.429 . S
C1389 N1386 1.350 . S
C1389 C1388 1.434 . S
C1390 C1391 1.369 . S
C1390 C1392 1.419 . S
C1390 H1394 0.930 . S
C1391 C1390 1.369 . S
C1391 C1400 1.429 . S
C1392 C1390 1.419 . S
C1392 C1393 1.363 . S
C1392 H1395 0.929 . S
C1393 C1392 1.363 . S
C1393 C1399 1.428 . S
H1394 C1390 0.930 . S
H1395 C1392 0.929 . S
S1396 N1397 1.613 . S
S1396 N1398 1.610 . S
N1397 S1396 1.613 . S
N1397 C1400 1.350 . S
N1398 S1396 1.610 . S
N1398 C1399 1.351 . S
C1399 C1393 1.428 . S
C1399 N1398 1.351 . S
C1399 C1400 1.434 . S
C1400 C1391 1.429 . S
C1400 N1397 1.350 . S
C1400 C1399 1.434 . S
C1401 C1402 1.366 1_554 S
C1401 C1403 1.439 . S
C1401 H1405 0.913 1_554 S
C1402 C1401 1.366 1_556 S
C1402 C1411 1.429 1_546 S
C1403 C1401 1.439 . S
C1403 C1404 1.363 . S
C1403 H1406 0.929 . S
C1404 C1403 1.363 . S
C1404 C1410 1.428 . S
H1405 C1401 0.913 1_556 S
H1406 C1403 0.929 . S
S1407 N1408 1.613 . S
S1407 N1409 1.599 1_565 S
N1408 S1407 1.613 . S
N1408 C1411 1.350 . S
N1409 S1407 1.599 1_545 S
N1409 C1410 1.356 . S
C1410 C1404 1.428 . S
C1410 N1409 1.356 . S
C1410 C1411 1.434 1_545 S
C1411 C1402 1.429 1_564 S
C1411 N1408 1.350 . S
C1411 C1410 1.434 1_565 S
C1412 C1413 1.369 . S
C1412 C1414 1.419 . S
C1412 H1416 0.930 . S
C1413 C1412 1.369 . S
C1413 C1422 1.429 . S
C1414 C1412 1.419 . S
C1414 C1415 1.363 . S
C1414 H1417 0.929 . S
C1415 C1414 1.363 . S
C1415 C1421 1.428 . S
H1416 C1412 0.930 . S
H1417 C1414 0.929 . S
S1418 N1419 1.613 . S
S1418 N1420 1.610 . S
N1419 S1418 1.613 . S
N1419 C1422 1.350 . S
N1420 S1418 1.610 . S
N1420 C1421 1.351 . S
C1421 C1415 1.428 . S
C1421 N1420 1.351 . S
C1421 C1422 1.434 . S
C1422 C1413 1.429 . S
C1422 N1419 1.350 . S
C1422 C1421 1.434 . S
C1423 C1424 1.369 1_545 S
C1423 C1425 1.419 . S
C1423 H1427 0.930 . S
C1424 C1423 1.369 1_565 S
C1424 C1433 1.429 . S
C1425 C1423 1.419 . S
C1425 C1426 1.363 1_545 S
C1425 H1428 0.929 . S
C1426 C1425 1.363 1_565 S
C1426 C1432 1.428 . S
H1427 C1423 0.930 . S
H1428 C1425 0.929 . S
S1429 N1430 1.613 . S
S1429 N1431 1.610 . S
N1430 S1429 1.613 . S
N1430 C1433 1.350 . S
N1431 S1429 1.610 . S
N1431 C1432 1.351 . S
C1432 C1426 1.428 . S
C1432 N1431 1.351 . S
C1432 C1433 1.434 . S
C1433 C1424 1.429 . S
C1433 N1430 1.350 . S
C1433 C1432 1.434 . S
C1434 C1435 1.369 . S
C1434 C1436 1.419 . S
C1434 H1438 0.930 . S
C1435 C1434 1.369 . S
C1435 C1444 1.429 . S
C1436 C1434 1.419 . S
C1436 C1437 1.363 . S
C1436 H1439 0.929 . S
C1437 C1436 1.363 . S
C1437 C1443 1.428 . S
H1438 C1434 0.930 . S
H1439 C1436 0.929 . S
S1440 N1441 1.613 . S
S1440 N1442 1.610 . S
N1441 S1440 1.613 . S
N1441 C1444 1.350 . S
N1442 S1440 1.610 . S
N1442 C1443 1.351 . S
C1443 C1437 1.428 . S
C1443 N1442 1.351 . S
C1443 C1444 1.434 . S
C1444 C1435 1.429 . S
C1444 N1441 1.350 . S
C1444 C1443 1.434 . S
C1445 C1446 1.369 1_566 S
C1445 C1447 1.419 1_565 S
C1445 H1449 0.930 . S
C1446 C1445 1.369 1_544 S
C1446 C1455 1.433 . S
C1447 C1445 1.419 1_545 S
C1447 C1448 1.363 . S
C1447 H1450 0.929 . S
C1448 C1447 1.363 . S
C1448 C1454 1.428 . S
H1449 C1445 0.930 . S
H1450 C1447 0.929 . S
S1451 N1452 1.613 . S
S1451 N1453 1.610 1_554 S
N1452 S1451 1.613 . S
N1452 C1455 1.375 . S
N1453 S1451 1.610 1_556 S
N1453 C1454 1.351 . S
C1454 C1448 1.428 . S
C1454 N1453 1.351 . S
C1454 C1455 1.404 1_556 S
C1455 C1446 1.433 . S
C1455 N1452 1.375 . S
C1455 C1454 1.404 1_554 S
C1456 C1457 1.369 . S
C1456 C1458 1.419 . S
C1456 H1460 0.930 . S
C1457 C1456 1.369 . S
C1457 C1466 1.429 . S
C1458 C1456 1.419 . S
C1458 C1459 1.363 . S
C1458 H1461 0.929 . S
C1459 C1458 1.363 . S
C1459 C1465 1.428 . S
H1460 C1456 0.930 . S
H1461 C1458 0.929 . S
S1462 N1463 1.613 . S
S1462 N1464 1.610 . S
N1463 S1462 1.613 . S
N1463 C1466 1.350 . S
N1464 S1462 1.610 . S
N1464 C1465 1.351 . S
C1465 C1459 1.428 . S
C1465 N1464 1.351 . S
C1465 C1466 1.434 . S
C1466 C1457 1.429 . S
C1466 N1463 1.350 . S
C1466 C1465 1.434 . S
C1467 C1468 1.369 1_545 S
C1467 C1469 1.419 . S
C1467 H1471 0.930 1_455 S
C1468 C1467 1.369 1_565 S
C1468 C1477 1.427 1_565 S
C1469 C1467 1.419 . S
C1469 C1470 1.363 . S
C1469 H1472 0.929 . S
C1470 C1469 1.363 . S
C1470 C1476 1.428 . S
H1471 C1467 0.930 1_655 S
H1472 C1469 0.929 . S
S1473 N1474 1.613 . S
S1473 N1475 1.610 1_565 S
N1474 S1473 1.613 . S
N1474 C1477 1.344 1_565 S
N1475 S1473 1.610 1_545 S
N1475 C1476 1.351 . S
C1476 C1470 1.428 . S
C1476 N1475 1.351 . S
C1476 C1477 1.441 . S
C1477 C1468 1.427 1_545 S
C1477 N1474 1.344 1_545 S
C1477 C1476 1.441 . S
C1478 C1479 1.369 . S
C1478 C1480 1.419 . S
C1478 H1482 0.930 . S
C1479 C1478 1.369 . S
C1479 C1488 1.429 . S
C1480 C1478 1.419 . S
C1480 C1481 1.363 . S
C1480 H1483 0.929 . S
C1481 C1480 1.363 . S
C1481 C1487 1.428 . S
H1482 C1478 0.930 . S
H1483 C1480 0.929 . S
S1484 N1485 1.613 . S
S1484 N1486 1.610 . S
N1485 S1484 1.613 . S
N1485 C1488 1.350 . S
N1486 S1484 1.610 . S
N1486 C1487 1.351 . S
C1487 C1481 1.428 . S
C1487 N1486 1.351 . S
C1487 C1488 1.434 . S
C1488 C1479 1.429 . S
C1488 N1485 1.350 . S
C1488 C1487 1.434 . S
C1489 C1490 1.369 1_565 S
C1489 C1491 1.419 . S
C1489 H1493 0.929 1_565 S
C1490 C1489 1.369 1_545 S
C1490 C1499 1.429 1_545 S
C1491 C1489 1.419 . S
C1491 C1492 1.363 . S
C1491 H1494 0.929 . S
C1492 C1491 1.363 . S
C1492 C1498 1.428 . S
H1493 C1489 0.929 1_545 S
H1494 C1491 0.929 . S
S1495 N1496 1.613 . S
S1495 N1497 1.610 . S
N1496 S1495 1.613 . S
N1496 C1499 1.350 . S
N1497 S1495 1.610 . S
N1497 C1498 1.351 . S
C1498 C1492 1.428 . S
C1498 N1497 1.351 . S
C1498 C1499 1.434 . S
C1499 C1490 1.429 1_565 S
C1499 N1496 1.350 . S
C1499 C1498 1.434 . S
C1500 C1501 1.369 . S
C1500 C1502 1.419 . S
C1500 H1504 0.930 . S
C1501 C1500 1.369 . S
C1501 C1510 1.429 . S
C1502 C1500 1.419 . S
C1502 C1503 1.363 . S
C1502 H1505 0.929 . S
C1503 C1502 1.363 . S
C1503 C1509 1.428 . S
H1504 C1500 0.930 . S
H1505 C1502 0.929 . S
S1506 N1507 1.613 . S
S1506 N1508 1.610 . S
N1507 S1506 1.613 . S
N1507 C1510 1.350 . S
N1508 S1506 1.610 . S
N1508 C1509 1.351 . S
C1509 C1503 1.428 . S
C1509 N1508 1.351 . S
C1509 C1510 1.434 . S
C1510 C1501 1.429 . S
C1510 N1507 1.350 . S
C1510 C1509 1.434 . S
C1511 C1512 1.369 1_545 S
C1511 C1513 1.419 . S
C1511 H1515 0.930 1_545 S
C1512 C1511 1.369 1_565 S
C1512 C1521 1.429 1_565 S
C1513 C1511 1.419 . S
C1513 C1514 1.363 . S
C1513 H1516 0.929 . S
C1514 C1513 1.363 . S
C1514 C1520 1.428 . S
H1515 C1511 0.930 1_565 S
H1516 C1513 0.929 . S
S1517 N1518 1.613 . S
S1517 N1519 1.610 . S
N1518 S1517 1.613 . S
N1518 C1521 1.350 . S
N1519 S1517 1.610 . S
N1519 C1520 1.351 . S
C1520 C1514 1.428 . S
C1520 N1519 1.351 . S
C1520 C1521 1.434 . S
C1521 C1512 1.429 1_545 S
C1521 N1518 1.350 . S
C1521 C1520 1.434 . S
C1522 C1523 1.369 . S
C1522 C1524 1.419 . S
C1522 H1526 0.930 . S
C1523 C1522 1.369 . S
C1523 C1532 1.429 . S
C1524 C1522 1.419 . S
C1524 C1525 1.363 . S
C1524 H1527 0.929 . S
C1525 C1524 1.363 . S
C1525 C1531 1.428 . S
H1526 C1522 0.930 . S
H1527 C1524 0.929 . S
S1528 N1529 1.613 . S
S1528 N1530 1.610 . S
N1529 S1528 1.613 . S
N1529 C1532 1.350 . S
N1530 S1528 1.610 . S
N1530 C1531 1.351 . S
C1531 C1525 1.428 . S
C1531 N1530 1.351 . S
C1531 C1532 1.434 . S
C1532 C1523 1.429 . S
C1532 N1529 1.350 . S
C1532 C1531 1.434 . S
C1533 C1534 1.369 . S
C1533 C1535 1.419 . S
C1533 H1537 0.930 . S
C1534 C1533 1.369 . S
C1534 C1543 1.429 1_455 S
C1535 C1533 1.419 . S
C1535 C1536 1.363 1_565 S
C1535 H1538 0.929 1_565 S
C1536 C1535 1.363 1_545 S
C1536 C1542 1.428 1_445 S
H1537 C1533 0.930 . S
H1538 C1535 0.929 1_545 S
S1539 N1540 1.613 . S
S1539 N1541 1.610 . S
N1540 S1539 1.613 . S
N1540 C1543 1.350 . S
N1541 S1539 1.610 . S
N1541 C1542 1.351 . S
C1542 C1536 1.428 1_665 S
C1542 N1541 1.351 . S
C1542 C1543 1.434 . S
C1543 C1534 1.429 1_655 S
C1543 N1540 1.350 . S
C1543 C1542 1.434 . S
C1544 C1545 1.369 . S
C1544 C1546 1.419 . S
C1544 H1548 0.930 . S
C1545 C1544 1.369 . S
C1545 C1554 1.429 . S
C1546 C1544 1.419 . S
C1546 C1547 1.363 . S
C1546 H1549 0.929 . S
C1547 C1546 1.363 . S
C1547 C1553 1.428 . S
H1548 C1544 0.930 . S
H1549 C1546 0.929 . S
S1550 N1551 1.613 . S
S1550 N1552 1.610 . S
N1551 S1550 1.613 . S
N1551 C1554 1.350 . S
N1552 S1550 1.610 . S
N1552 C1553 1.351 . S
C1553 C1547 1.428 . S
C1553 N1552 1.351 . S
C1553 C1554 1.434 . S
C1554 C1545 1.429 . S
C1554 N1551 1.350 . S
C1554 C1553 1.434 . S
C1555 C1556 1.369 . S
C1555 C1557 1.419 . S
C1555 H1559 0.930 . S
C1556 C1555 1.369 . S
C1556 C1565 1.429 . S
C1557 C1555 1.419 . S
C1557 C1558 1.363 . S
C1557 H1560 0.929 . S
C1558 C1557 1.363 . S
C1558 C1564 1.428 . S
H1559 C1555 0.930 . S
H1560 C1557 0.929 . S
S1561 N1562 1.613 . S
S1561 N1563 1.610 . S
N1562 S1561 1.613 . S
N1562 C1565 1.350 . S
N1563 S1561 1.610 . S
N1563 C1564 1.351 . S
C1564 C1558 1.428 . S
C1564 N1563 1.351 . S
C1564 C1565 1.434 . S
C1565 C1556 1.429 . S
C1565 N1562 1.350 . S
C1565 C1564 1.434 . S
C1566 C1567 1.369 1_456 S
C1566 C1568 1.419 . S
C1566 H1570 0.930 . S
C1567 C1566 1.369 1_654 S
C1567 C1576 1.429 1_655 S
C1568 C1566 1.419 . S
C1568 C1569 1.363 1_556 S
C1568 H1571 0.929 . S
C1569 C1568 1.363 1_554 S
C1569 C1575 1.428 . S
H1570 C1566 0.930 . S
H1571 C1568 0.929 . S
S1572 N1573 1.614 1_455 S
S1572 N1574 1.609 . S
N1573 S1572 1.614 1_655 S
N1573 C1576 1.350 1_655 S
N1574 S1572 1.609 . S
N1574 C1575 1.351 . S
C1575 C1569 1.428 . S
C1575 N1574 1.351 . S
C1575 C1576 1.434 . S
C1576 C1567 1.429 1_455 S
C1576 N1573 1.350 1_455 S
C1576 C1575 1.434 . S
C1577 C1578 1.369 . S
C1577 C1579 1.419 . S
C1577 H1581 0.930 . S
C1578 C1577 1.369 . S
C1578 C1587 1.429 . S
C1579 C1577 1.419 . S
C1579 C1580 1.363 . S
C1579 H1582 0.929 . S
C1580 C1579 1.363 . S
C1580 C1586 1.428 . S
H1581 C1577 0.930 . S
H1582 C1579 0.929 . S
S1583 N1584 1.613 . S
S1583 N1585 1.610 . S
N1584 S1583 1.613 . S
N1584 C1587 1.350 . S
N1585 S1583 1.610 . S
N1585 C1586 1.351 . S
C1586 C1580 1.428 . S
C1586 N1585 1.351 . S
C1586 C1587 1.434 . S
C1587 C1578 1.429 . S
C1587 N1584 1.350 . S
C1587 C1586 1.434 . S
C1588 C1589 1.369 . S
C1588 C1590 1.418 1_455 S
C1588 H1592 0.931 . S
C1589 C1588 1.369 . S
C1589 C1598 1.429 1_454 S
C1590 C1588 1.418 1_655 S
C1590 C1591 1.363 . S
C1590 H1593 0.929 . S
C1591 C1590 1.363 . S
C1591 C1597 1.428 . S
H1592 C1588 0.931 . S
H1593 C1590 0.929 . S
S1594 N1595 1.613 . S
S1594 N1596 1.610 . S
N1595 S1594 1.613 . S
N1595 C1598 1.350 . S
N1596 S1594 1.610 . S
N1596 C1597 1.351 1_556 S
C1597 C1591 1.428 . S
C1597 N1596 1.351 1_554 S
C1597 C1598 1.434 1_554 S
C1598 C1589 1.429 1_656 S
C1598 N1595 1.350 . S
C1598 C1597 1.434 1_556 S
C1599 C1600 1.369 . S
C1599 C1601 1.419 . S
C1599 H1603 0.930 . S
C1600 C1599 1.369 . S
C1600 C1609 1.429 . S
C1601 C1599 1.419 . S
C1601 C1602 1.363 . S
C1601 H1604 0.929 . S
C1602 C1601 1.363 . S
C1602 C1608 1.428 . S
H1603 C1599 0.930 . S
H1604 C1601 0.929 . S
S1605 N1606 1.613 . S
S1605 N1607 1.610 . S
N1606 S1605 1.613 . S
N1606 C1609 1.350 . S
N1607 S1605 1.610 . S
N1607 C1608 1.351 . S
C1608 C1602 1.428 . S
C1608 N1607 1.351 . S
C1608 C1609 1.434 . S
C1609 C1600 1.429 . S
C1609 N1606 1.350 . S
C1609 C1608 1.434 . S
C1610 C1611 1.369 1_455 S
C1610 C1612 1.419 . S
C1610 H1614 0.930 1_455 S
C1611 C1610 1.369 1_655 S
C1611 C1620 1.429 1_655 S
C1612 C1610 1.419 . S
C1612 C1613 1.363 . S
C1612 H1615 0.929 . S
C1613 C1612 1.363 . S
C1613 C1619 1.428 . S
H1614 C1610 0.930 1_655 S
H1615 C1612 0.929 . S
S1616 N1617 1.613 . S
S1616 N1618 1.610 . S
N1617 S1616 1.613 . S
N1617 C1620 1.350 . S
N1618 S1616 1.610 . S
N1618 C1619 1.351 . S
C1619 C1613 1.428 . S
C1619 N1618 1.351 . S
C1619 C1620 1.434 . S
C1620 C1611 1.429 1_455 S
C1620 N1617 1.350 . S
C1620 C1619 1.434 . S
C1621 C1622 1.369 . S
C1621 C1623 1.419 1_556 S
C1621 H1625 0.930 1_556 S
C1622 C1621 1.369 . S
C1622 C1631 1.429 . S
C1623 C1621 1.419 1_554 S
C1623 C1624 1.363 1_554 S
C1623 H1626 0.929 . S
C1624 C1623 1.363 1_556 S
C1624 C1630 1.428 . S
H1625 C1621 0.930 1_554 S
H1626 C1623 0.929 . S
S1627 N1628 1.613 . S
S1627 N1629 1.610 . S
N1628 S1627 1.613 . S
N1628 C1631 1.350 . S
N1629 S1627 1.610 . S
N1629 C1630 1.351 . S
C1630 C1624 1.428 . S
C1630 N1629 1.351 . S
C1630 C1631 1.434 . S
C1631 C1622 1.429 . S
C1631 N1628 1.350 . S
C1631 C1630 1.434 . S
C1632 C1633 1.369 . S
C1632 C1634 1.419 . S
C1632 H1636 0.930 . S
C1633 C1632 1.369 . S
C1633 C1642 1.429 . S
C1634 C1632 1.419 . S
C1634 C1635 1.363 . S
C1634 H1637 0.929 . S
C1635 C1634 1.363 . S
C1635 C1641 1.428 . S
H1636 C1632 0.930 . S
H1637 C1634 0.929 . S
S1638 N1639 1.613 . S
S1638 N1640 1.610 . S
N1639 S1638 1.613 . S
N1639 C1642 1.350 . S
N1640 S1638 1.610 . S
N1640 C1641 1.351 . S
C1641 C1635 1.428 . S
C1641 N1640 1.351 . S
C1641 C1642 1.434 . S
C1642 C1633 1.429 . S
C1642 N1639 1.350 . S
C1642 C1641 1.434 . S
C1643 C1644 1.369 . S
C1643 C1645 1.409 1_554 S
C1643 H1647 0.930 . S
C1644 C1643 1.369 . S
C1644 C1653 1.429 . S
C1645 C1643 1.409 1_556 S
C1645 C1646 1.365 . S
C1645 H1648 0.938 . S
C1646 C1645 1.365 . S
C1646 C1652 1.428 1_556 S
H1647 C1643 0.930 . S
H1648 C1645 0.938 . S
S1649 N1650 1.613 . S
S1649 N1651 1.610 . S
N1650 S1649 1.613 . S
N1650 C1653 1.350 . S
N1651 S1649 1.610 . S
N1651 C1652 1.351 . S
C1652 C1646 1.428 1_554 S
C1652 N1651 1.351 . S
C1652 C1653 1.434 . S
C1653 C1644 1.429 . S
C1653 N1650 1.350 . S
C1653 C1652 1.434 . S
C1654 C1655 1.369 . S
C1654 C1656 1.419 . S
C1654 H1658 0.930 . S
C1655 C1654 1.369 . S
C1655 C1664 1.429 . S
C1656 C1654 1.419 . S
C1656 C1657 1.363 . S
C1656 H1659 0.929 . S
C1657 C1656 1.363 . S
C1657 C1663 1.428 . S
H1658 C1654 0.930 . S
H1659 C1656 0.929 . S
S1660 N1661 1.613 . S
S1660 N1662 1.610 . S
N1661 S1660 1.613 . S
N1661 C1664 1.350 . S
N1662 S1660 1.610 . S
N1662 C1663 1.351 . S
C1663 C1657 1.428 . S
C1663 N1662 1.351 . S
C1663 C1664 1.434 . S
C1664 C1655 1.429 . S
C1664 N1661 1.350 . S
C1664 C1663 1.434 . S
C1665 C1666 1.369 . S
C1665 C1667 1.419 . S
C1665 H1669 0.930 . S
C1666 C1665 1.369 . S
C1666 C1675 1.429 . S
C1667 C1665 1.419 . S
C1667 C1668 1.363 . S
C1667 H1670 0.929 . S
C1668 C1667 1.363 . S
C1668 C1674 1.428 . S
H1669 C1665 0.930 . S
H1670 C1667 0.929 . S
S1671 N1672 1.613 . S
S1671 N1673 1.610 . S
N1672 S1671 1.613 . S
N1672 C1675 1.350 . S
N1673 S1671 1.610 . S
N1673 C1674 1.351 . S
C1674 C1668 1.428 . S
C1674 N1673 1.351 . S
C1674 C1675 1.434 . S
C1675 C1666 1.429 . S
C1675 N1672 1.350 . S
C1675 C1674 1.434 . S
C1676 C1677 1.369 . S
C1676 C1678 1.419 . S
C1676 H1680 0.930 . S
C1677 C1676 1.369 . S
C1677 C1686 1.429 . S
C1678 C1676 1.419 . S
C1678 C1679 1.363 . S
C1678 H1681 0.929 . S
C1679 C1678 1.363 . S
C1679 C1685 1.428 . S
H1680 C1676 0.930 . S
H1681 C1678 0.929 . S
S1682 N1683 1.613 . S
S1682 N1684 1.610 . S
N1683 S1682 1.613 . S
N1683 C1686 1.350 . S
N1684 S1682 1.610 . S
N1684 C1685 1.351 . S
C1685 C1679 1.428 . S
C1685 N1684 1.351 . S
C1685 C1686 1.434 . S
C1686 C1677 1.429 . S
C1686 N1683 1.350 . S
C1686 C1685 1.434 . S
C1687 C1688 1.369 . S
C1687 C1689 1.419 . S
C1687 H1691 0.930 . S
C1688 C1687 1.369 . S
C1688 C1697 1.429 . S
C1689 C1687 1.419 . S
C1689 C1690 1.363 1_556 S
C1689 H1692 0.929 1_556 S
C1690 C1689 1.363 1_554 S
C1690 C1696 1.428 1_554 S
H1691 C1687 0.930 . S
H1692 C1689 0.929 1_554 S
S1693 N1694 1.613 . S
S1693 N1695 1.610 . S
N1694 S1693 1.613 . S
N1694 C1697 1.350 . S
N1695 S1693 1.610 . S
N1695 C1696 1.351 . S
C1696 C1690 1.428 1_556 S
C1696 N1695 1.351 . S
C1696 C1697 1.434 . S
C1697 C1688 1.429 . S
C1697 N1694 1.350 . S
C1697 C1696 1.434 . S
C1698 C1699 1.369 . S
C1698 C1700 1.419 . S
C1698 H1702 0.930 . S
C1699 C1698 1.369 . S
C1699 C1708 1.429 . S
C1700 C1698 1.419 . S
C1700 C1701 1.363 . S
C1700 H1703 0.929 . S
C1701 C1700 1.363 . S
C1701 C1707 1.428 . S
H1702 C1698 0.930 . S
H1703 C1700 0.929 . S
S1704 N1705 1.613 . S
S1704 N1706 1.610 . S
N1705 S1704 1.613 . S
N1705 C1708 1.350 . S
N1706 S1704 1.610 . S
N1706 C1707 1.351 . S
C1707 C1701 1.428 . S
C1707 N1706 1.351 . S
C1707 C1708 1.434 . S
C1708 C1699 1.429 . S
C1708 N1705 1.350 . S
C1708 C1707 1.434 . S
C1709 C1710 1.369 . S
C1709 C1711 1.419 . S
C1709 H1713 0.930 . S
C1710 C1709 1.369 . S
C1710 C1719 1.429 . S
C1711 C1709 1.419 . S
C1711 C1712 1.363 . S
C1711 H1714 0.929 . S
C1712 C1711 1.363 . S
C1712 C1718 1.428 . S
H1713 C1709 0.930 . S
H1714 C1711 0.929 . S
S1715 N1716 1.613 . S
S1715 N1717 1.610 . S
N1716 S1715 1.613 . S
N1716 C1719 1.350 . S
N1717 S1715 1.610 . S
N1717 C1718 1.351 . S
C1718 C1712 1.428 . S
C1718 N1717 1.351 . S
C1718 C1719 1.434 . S
C1719 C1710 1.429 . S
C1719 N1716 1.350 . S
C1719 C1718 1.434 . S
C1720 C1721 1.369 . S
C1720 C1722 1.419 . S
C1720 H1724 0.930 . S
C1721 C1720 1.369 . S
C1721 C1730 1.429 . S
C1722 C1720 1.419 . S
C1722 C1723 1.363 . S
C1722 H1725 0.929 . S
C1723 C1722 1.363 . S
C1723 C1729 1.428 . S
H1724 C1720 0.930 . S
H1725 C1722 0.929 . S
S1726 N1727 1.613 . S
S1726 N1728 1.610 . S
N1727 S1726 1.613 . S
N1727 C1730 1.350 . S
N1728 S1726 1.610 . S
N1728 C1729 1.351 . S
C1729 C1723 1.428 . S
C1729 N1728 1.351 . S
C1729 C1730 1.434 . S
C1730 C1721 1.429 . S
C1730 N1727 1.350 . S
C1730 C1729 1.434 . S
C1731 C1732 1.369 . S
C1731 C1733 1.419 . S
C1731 H1735 0.930 . S
C1732 C1731 1.369 . S
C1732 C1741 1.429 . S
C1733 C1731 1.419 . S
C1733 C1734 1.363 . S
C1733 H1736 0.929 . S
C1734 C1733 1.363 . S
C1734 C1740 1.428 . S
H1735 C1731 0.930 . S
H1736 C1733 0.929 . S
S1737 N1738 1.613 . S
S1737 N1739 1.610 . S
N1738 S1737 1.613 . S
N1738 C1741 1.350 . S
N1739 S1737 1.610 . S
N1739 C1740 1.351 . S
C1740 C1734 1.428 . S
C1740 N1739 1.351 . S
C1740 C1741 1.434 . S
C1741 C1732 1.429 . S
C1741 N1738 1.350 . S
C1741 C1740 1.434 . S
C1742 C1743 1.369 . S
C1742 C1744 1.419 . S
C1742 H1746 0.930 . S
C1743 C1742 1.369 . S
C1743 C1752 1.429 . S
C1744 C1742 1.419 . S
C1744 C1745 1.363 . S
C1744 H1747 0.929 . S
C1745 C1744 1.363 . S
C1745 C1751 1.428 . S
H1746 C1742 0.930 . S
H1747 C1744 0.929 . S
S1748 N1749 1.613 . S
S1748 N1750 1.610 . S
N1749 S1748 1.613 . S
N1749 C1752 1.350 . S
N1750 S1748 1.610 . S
N1750 C1751 1.351 . S
C1751 C1745 1.428 . S
C1751 N1750 1.351 . S
C1751 C1752 1.434 . S
C1752 C1743 1.429 . S
C1752 N1749 1.350 . S
C1752 C1751 1.434 . S
C1753 C1754 1.369 1_455 S
C1753 C1755 1.419 1_455 S
C1753 H1757 0.930 . S
C1754 C1753 1.369 1_655 S
C1754 C1763 1.429 . S
C1755 C1753 1.419 1_655 S
C1755 C1756 1.363 . S
C1755 H1758 0.929 1_655 S
C1756 C1755 1.363 . S
C1756 C1762 1.428 . S
H1757 C1753 0.930 . S
H1758 C1755 0.929 1_455 S
S1759 N1760 1.613 . S
S1759 N1761 1.610 . S
N1760 S1759 1.613 . S
N1760 C1763 1.350 . S
N1761 S1759 1.610 . S
N1761 C1762 1.351 . S
C1762 C1756 1.428 . S
C1762 N1761 1.351 . S
C1762 C1763 1.434 . S
C1763 C1754 1.429 . S
C1763 N1760 1.350 . S
C1763 C1762 1.434 . S
C1764 C1765 1.369 . S
C1764 C1766 1.419 . S
C1764 H1768 0.930 . S
C1765 C1764 1.369 . S
C1765 C1774 1.429 . S
C1766 C1764 1.419 . S
C1766 C1767 1.363 . S
C1766 H1769 0.929 . S
C1767 C1766 1.363 . S
C1767 C1773 1.428 . S
H1768 C1764 0.930 . S
H1769 C1766 0.929 . S
S1770 N1771 1.613 . S
S1770 N1772 1.610 . S
N1771 S1770 1.613 . S
N1771 C1774 1.350 . S
N1772 S1770 1.610 . S
N1772 C1773 1.351 . S
C1773 C1767 1.428 . S
C1773 N1772 1.351 . S
C1773 C1774 1.434 . S
C1774 C1765 1.429 . S
C1774 N1771 1.350 . S
C1774 C1773 1.434 . S
C1775 C1776 1.369 . S
C1775 C1777 1.419 . S
C1775 H1779 0.930 . S
C1776 C1775 1.369 . S
C1776 C1785 1.429 1_655 S
C1777 C1775 1.419 . S
C1777 C1778 1.363 . S
C1777 H1780 0.929 . S
C1778 C1777 1.363 . S
C1778 C1784 1.428 1_655 S
H1779 C1775 0.930 . S
H1780 C1777 0.929 . S
S1781 N1782 1.613 . S
S1781 N1783 1.610 . S
N1782 S1781 1.613 . S
N1782 C1785 1.350 . S
N1783 S1781 1.610 . S
N1783 C1784 1.351 . S
C1784 C1778 1.428 1_455 S
C1784 N1783 1.351 . S
C1784 C1785 1.434 . S
C1785 C1776 1.429 1_455 S
C1785 N1782 1.350 . S
C1785 C1784 1.434 . S
C1786 C1787 1.369 . S
C1786 C1788 1.419 . S
C1786 H1790 0.930 . S
C1787 C1786 1.369 . S
C1787 C1796 1.429 . S
C1788 C1786 1.419 . S
C1788 C1789 1.363 . S
C1788 H1791 0.929 . S
C1789 C1788 1.363 . S
C1789 C1795 1.428 . S
H1790 C1786 0.930 . S
H1791 C1788 0.929 . S
S1792 N1793 1.613 . S
S1792 N1794 1.610 . S
N1793 S1792 1.613 . S
N1793 C1796 1.350 . S
N1794 S1792 1.610 . S
N1794 C1795 1.351 . S
C1795 C1789 1.428 . S
C1795 N1794 1.351 . S
C1795 C1796 1.434 . S
C1796 C1787 1.429 . S
C1796 N1793 1.350 . S
C1796 C1795 1.434 . S
C1797 C1798 1.369 . S
C1797 C1799 1.419 . S
C1797 H1801 0.930 . S
C1798 C1797 1.369 . S
C1798 C1807 1.429 . S
C1799 C1797 1.419 . S
C1799 C1800 1.363 . S
C1799 H1802 0.929 . S
C1800 C1799 1.363 . S
C1800 C1806 1.428 . S
H1801 C1797 0.930 . S
H1802 C1799 0.929 . S
S1803 N1804 1.613 . S
S1803 N1805 1.610 . S
N1804 S1803 1.613 . S
N1804 C1807 1.350 . S
N1805 S1803 1.610 . S
N1805 C1806 1.351 . S
C1806 C1800 1.428 . S
C1806 N1805 1.351 . S
C1806 C1807 1.434 . S
C1807 C1798 1.429 . S
C1807 N1804 1.350 . S
C1807 C1806 1.434 . S
C1808 C1809 1.369 . S
C1808 C1810 1.419 . S
C1808 H1812 0.930 . S
C1809 C1808 1.369 . S
C1809 C1818 1.429 . S
C1810 C1808 1.419 . S
C1810 C1811 1.363 . S
C1810 H1813 0.929 . S
C1811 C1810 1.363 . S
C1811 C1817 1.428 . S
H1812 C1808 0.930 . S
H1813 C1810 0.929 . S
S1814 N1815 1.613 . S
S1814 N1816 1.610 . S
N1815 S1814 1.613 . S
N1815 C1818 1.350 . S
N1816 S1814 1.610 . S
N1816 C1817 1.351 . S
C1817 C1811 1.428 . S
C1817 N1816 1.351 . S
C1817 C1818 1.434 . S
C1818 C1809 1.429 . S
C1818 N1815 1.350 . S
C1818 C1817 1.434 . S
C1819 C1820 1.369 . S
C1819 C1821 1.419 . S
C1819 H1823 0.930 . S
C1820 C1819 1.369 . S
C1820 C1829 1.429 . S
C1821 C1819 1.419 . S
C1821 C1822 1.363 . S
C1821 H1824 0.929 . S
C1822 C1821 1.363 . S
C1822 C1828 1.428 . S
H1823 C1819 0.930 . S
H1824 C1821 0.929 . S
S1825 N1826 1.613 . S
S1825 N1827 1.610 . S
N1826 S1825 1.613 . S
N1826 C1829 1.350 . S
N1827 S1825 1.610 . S
N1827 C1828 1.351 . S
C1828 C1822 1.428 . S
C1828 N1827 1.351 . S
C1828 C1829 1.434 . S
C1829 C1820 1.429 . S
C1829 N1826 1.350 . S
C1829 C1828 1.434 . S
C1830 C1831 1.369 . S
C1830 C1832 1.419 . S
C1830 H1834 0.930 . S
C1831 C1830 1.369 . S
C1831 C1840 1.429 . S
C1832 C1830 1.419 . S
C1832 C1833 1.363 . S
C1832 H1835 0.929 . S
C1833 C1832 1.363 . S
C1833 C1839 1.428 . S
H1834 C1830 0.930 . S
H1835 C1832 0.929 . S
S1836 N1837 1.613 . S
S1836 N1838 1.610 . S
N1837 S1836 1.613 . S
N1837 C1840 1.350 . S
N1838 S1836 1.610 . S
N1838 C1839 1.351 . S
C1839 C1833 1.428 . S
C1839 N1838 1.351 . S
C1839 C1840 1.434 . S
C1840 C1831 1.429 . S
C1840 N1837 1.350 . S
C1840 C1839 1.434 . S
C1841 C1842 1.369 . S
C1841 C1843 1.419 . S
C1841 H1845 0.930 . S
C1842 C1841 1.369 . S
C1842 C1851 1.429 . S
C1843 C1841 1.419 . S
C1843 C1844 1.363 . S
C1843 H1846 0.929 . S
C1844 C1843 1.363 . S
C1844 C1850 1.428 . S
H1845 C1841 0.930 . S
H1846 C1843 0.929 . S
S1847 N1848 1.613 . S
S1847 N1849 1.610 . S
N1848 S1847 1.613 . S
N1848 C1851 1.350 . S
N1849 S1847 1.610 . S
N1849 C1850 1.351 . S
C1850 C1844 1.428 . S
C1850 N1849 1.351 . S
C1850 C1851 1.434 . S
C1851 C1842 1.429 . S
C1851 N1848 1.350 . S
C1851 C1850 1.434 . S
C1852 C1853 1.369 . S
C1852 C1854 1.419 . S
C1852 H1856 0.930 . S
C1853 C1852 1.369 . S
C1853 C1862 1.429 . S
C1854 C1852 1.419 . S
C1854 C1855 1.363 . S
C1854 H1857 0.929 . S
C1855 C1854 1.363 . S
C1855 C1861 1.428 . S
H1856 C1852 0.930 . S
H1857 C1854 0.929 . S
S1858 N1859 1.613 . S
S1858 N1860 1.610 . S
N1859 S1858 1.613 . S
N1859 C1862 1.350 . S
N1860 S1858 1.610 . S
N1860 C1861 1.351 . S
C1861 C1855 1.428 . S
C1861 N1860 1.351 . S
C1861 C1862 1.434 . S
C1862 C1853 1.429 . S
C1862 N1859 1.350 . S
C1862 C1861 1.434 . S
C1863 C1864 1.369 . S
C1863 C1865 1.419 . S
C1863 H1867 0.930 . S
C1864 C1863 1.369 . S
C1864 C1873 1.429 . S
C1865 C1863 1.419 . S
C1865 C1866 1.363 . S
C1865 H1868 0.929 . S
C1866 C1865 1.363 . S
C1866 C1872 1.428 . S
H1867 C1863 0.930 . S
H1868 C1865 0.929 . S
S1869 N1870 1.613 . S
S1869 N1871 1.610 . S
N1870 S1869 1.613 . S
N1870 C1873 1.350 . S
N1871 S1869 1.610 . S
N1871 C1872 1.351 . S
C1872 C1866 1.428 . S
C1872 N1871 1.351 . S
C1872 C1873 1.434 . S
C1873 C1864 1.429 . S
C1873 N1870 1.350 . S
C1873 C1872 1.434 . S
C1874 C1875 1.369 . S
C1874 C1876 1.419 . S
C1874 H1878 0.930 . S
C1875 C1874 1.369 . S
C1875 C1884 1.429 1_556 S
C1876 C1874 1.419 . S
C1876 C1877 1.363 . S
C1876 H1879 0.929 . S
C1877 C1876 1.363 . S
C1877 C1883 1.428 1_556 S
H1878 C1874 0.930 . S
H1879 C1876 0.929 . S
S1880 N1881 1.613 . S
S1880 N1882 1.610 . S
N1881 S1880 1.613 . S
N1881 C1884 1.350 . S
N1882 S1880 1.610 . S
N1882 C1883 1.351 . S
C1883 C1877 1.428 1_554 S
C1883 N1882 1.351 . S
C1883 C1884 1.434 . S
C1884 C1875 1.429 1_554 S
C1884 N1881 1.350 . S
C1884 C1883 1.434 . S
C1885 C1886 1.369 1_655 S
C1885 C1887 1.419 . S
C1885 H1889 0.930 . S
C1886 C1885 1.369 1_455 S
C1886 C1895 1.429 1_455 S
C1887 C1885 1.419 . S
C1887 C1888 1.363 . S
C1887 H1890 0.929 . S
C1888 C1887 1.363 . S
C1888 C1894 1.428 . S
H1889 C1885 0.930 . S
H1890 C1887 0.929 . S
S1891 N1892 1.613 1_655 S
S1891 N1893 1.610 . S
N1892 S1891 1.613 1_455 S
N1892 C1895 1.350 1_455 S
N1893 S1891 1.610 . S
N1893 C1894 1.351 . S
C1894 C1888 1.428 . S
C1894 N1893 1.351 . S
C1894 C1895 1.434 . S
C1895 C1886 1.429 1_655 S
C1895 N1892 1.350 1_655 S
C1895 C1894 1.434 . S
C1896 C1897 1.369 . S
C1896 C1898 1.419 . S
C1896 H1900 0.930 . S
C1897 C1896 1.369 . S
C1897 C1906 1.429 . S
C1898 C1896 1.419 . S
C1898 C1899 1.363 . S
C1898 H1901 0.929 . S
C1899 C1898 1.363 . S
C1899 C1905 1.428 . S
H1900 C1896 0.930 . S
H1901 C1898 0.929 . S
S1902 N1903 1.613 . S
S1902 N1904 1.610 . S
N1903 S1902 1.613 . S
N1903 C1906 1.350 . S
N1904 S1902 1.610 . S
N1904 C1905 1.351 . S
C1905 C1899 1.428 . S
C1905 N1904 1.351 . S
C1905 C1906 1.434 . S
C1906 C1897 1.429 . S
C1906 N1903 1.350 . S
C1906 C1905 1.434 . S
C1907 C1908 1.369 . S
C1907 C1909 1.419 . S
C1907 H1911 0.930 . S
C1908 C1907 1.369 . S
C1908 C1917 1.429 . S
C1909 C1907 1.419 . S
C1909 C1910 1.363 . S
C1909 H1912 0.929 . S
C1910 C1909 1.363 . S
C1910 C1916 1.428 . S
H1911 C1907 0.930 . S
H1912 C1909 0.929 . S
S1913 N1914 1.613 . S
S1913 N1915 1.610 . S
N1914 S1913 1.613 . S
N1914 C1917 1.350 . S
N1915 S1913 1.610 . S
N1915 C1916 1.351 . S
C1916 C1910 1.428 . S
C1916 N1915 1.351 . S
C1916 C1917 1.434 . S
C1917 C1908 1.429 . S
C1917 N1914 1.350 . S
C1917 C1916 1.434 . S
C1918 C1919 1.369 . S
C1918 C1920 1.419 . S
C1918 H1922 0.930 . S
C1919 C1918 1.369 . S
C1919 C1928 1.429 . S
C1920 C1918 1.419 . S
C1920 C1921 1.363 . S
C1920 H1923 0.929 . S
C1921 C1920 1.363 . S
C1921 C1927 1.428 . S
H1922 C1918 0.930 . S
H1923 C1920 0.929 . S
S1924 N1925 1.613 . S
S1924 N1926 1.610 . S
N1925 S1924 1.613 . S
N1925 C1928 1.350 . S
N1926 S1924 1.610 . S
N1926 C1927 1.351 . S
C1927 C1921 1.428 . S
C1927 N1926 1.351 . S
C1927 C1928 1.434 . S
C1928 C1919 1.429 . S
C1928 N1925 1.350 . S
C1928 C1927 1.434 . S
C1929 C1930 1.369 . S
C1929 C1931 1.419 . S
C1929 H1933 0.930 . S
C1930 C1929 1.369 . S
C1930 C1939 1.429 . S
C1931 C1929 1.419 . S
C1931 C1932 1.363 . S
C1931 H1934 0.929 . S
C1932 C1931 1.363 . S
C1932 C1938 1.428 . S
H1933 C1929 0.930 . S
H1934 C1931 0.929 . S
S1935 N1936 1.613 . S
S1935 N1937 1.610 . S
N1936 S1935 1.613 . S
N1936 C1939 1.350 . S
N1937 S1935 1.610 . S
N1937 C1938 1.351 . S
C1938 C1932 1.428 . S
C1938 N1937 1.351 . S
C1938 C1939 1.434 . S
C1939 C1930 1.429 . S
C1939 N1936 1.350 . S
C1939 C1938 1.434 . S
C1940 C1941 1.369 . S
C1940 C1942 1.419 . S
C1940 H1944 0.930 . S
C1941 C1940 1.369 . S
C1941 C1950 1.429 . S
C1942 C1940 1.419 . S
C1942 C1943 1.363 . S
C1942 H1945 0.929 . S
C1943 C1942 1.363 . S
C1943 C1949 1.428 . S
H1944 C1940 0.930 . S
H1945 C1942 0.929 . S
S1946 N1947 1.613 . S
S1946 N1948 1.610 . S
N1947 S1946 1.613 . S
N1947 C1950 1.350 . S
N1948 S1946 1.610 . S
N1948 C1949 1.351 . S
C1949 C1943 1.428 . S
C1949 N1948 1.351 . S
C1949 C1950 1.434 . S
C1950 C1941 1.429 . S
C1950 N1947 1.350 . S
C1950 C1949 1.434 . S
C1951 C1952 1.369 . S
C1951 C1953 1.419 . S
C1951 H1955 0.930 . S
C1952 C1951 1.369 . S
C1952 C1961 1.429 . S
C1953 C1951 1.419 . S
C1953 C1954 1.363 . S
C1953 H1956 0.929 . S
C1954 C1953 1.363 . S
C1954 C1960 1.428 . S
H1955 C1951 0.930 . S
H1956 C1953 0.929 . S
S1957 N1958 1.613 . S
S1957 N1959 1.610 . S
N1958 S1957 1.613 . S
N1958 C1961 1.350 . S
N1959 S1957 1.610 . S
N1959 C1960 1.351 . S
C1960 C1954 1.428 . S
C1960 N1959 1.351 . S
C1960 C1961 1.434 . S
C1961 C1952 1.429 . S
C1961 N1958 1.350 . S
C1961 C1960 1.434 . S
C1962 C1963 1.369 . S
C1962 C1964 1.419 . S
C1962 H1966 0.930 . S
C1963 C1962 1.369 . S
C1963 C1972 1.429 . S
C1964 C1962 1.419 . S
C1964 C1965 1.363 . S
C1964 H1967 0.929 . S
C1965 C1964 1.363 . S
C1965 C1971 1.428 . S
H1966 C1962 0.930 . S
H1967 C1964 0.929 . S
S1968 N1969 1.613 . S
S1968 N1970 1.610 . S
N1969 S1968 1.613 . S
N1969 C1972 1.350 . S
N1970 S1968 1.610 . S
N1970 C1971 1.351 . S
C1971 C1965 1.428 . S
C1971 N1970 1.351 . S
C1971 C1972 1.434 . S
C1972 C1963 1.429 . S
C1972 N1969 1.350 . S
C1972 C1971 1.434 . S
C1973 C1974 1.369 . S
C1973 C1975 1.419 . S
C1973 H1977 0.930 . S
C1974 C1973 1.369 . S
C1974 C1983 1.429 . S
C1975 C1973 1.419 . S
C1975 C1976 1.363 . S
C1975 H1978 0.929 . S
C1976 C1975 1.363 . S
C1976 C1982 1.428 . S
H1977 C1973 0.930 . S
H1978 C1975 0.929 . S
S1979 N1980 1.613 . S
S1979 N1981 1.610 . S
N1980 S1979 1.613 . S
N1980 C1983 1.350 . S
N1981 S1979 1.610 . S
N1981 C1982 1.351 . S
C1982 C1976 1.428 . S
C1982 N1981 1.351 . S
C1982 C1983 1.434 . S
C1983 C1974 1.429 . S
C1983 N1980 1.350 . S
C1983 C1982 1.434 . S
C1984 C1985 1.369 . S
C1984 C1986 1.419 . S
C1984 H1988 0.930 . S
C1985 C1984 1.369 . S
C1985 C1994 1.429 . S
C1986 C1984 1.419 . S
C1986 C1987 1.363 . S
C1986 H1989 0.929 . S
C1987 C1986 1.363 . S
C1987 C1993 1.428 . S
H1988 C1984 0.930 . S
H1989 C1986 0.929 . S
S1990 N1991 1.613 . S
S1990 N1992 1.610 . S
N1991 S1990 1.613 . S
N1991 C1994 1.350 . S
N1992 S1990 1.610 . S
N1992 C1993 1.351 . S
C1993 C1987 1.428 . S
C1993 N1992 1.351 . S
C1993 C1994 1.434 . S
C1994 C1985 1.429 . S
C1994 N1991 1.350 . S
C1994 C1993 1.434 . S
C1995 C1996 1.369 . S
C1995 C1997 1.419 . S
C1995 H1999 0.930 . S
C1996 C1995 1.369 . S
C1996 C2005 1.429 . S
C1997 C1995 1.419 . S
C1997 C1998 1.363 . S
C1997 H2000 0.929 . S
C1998 C1997 1.363 . S
C1998 C2004 1.428 . S
H1999 C1995 0.930 . S
H2000 C1997 0.929 . S
S2001 N2002 1.613 . S
S2001 N2003 1.610 . S
N2002 S2001 1.613 . S
N2002 C2005 1.350 . S
N2003 S2001 1.610 . S
N2003 C2004 1.351 . S
C2004 C1998 1.428 . S
C2004 N2003 1.351 . S
C2004 C2005 1.434 . S
C2005 C1996 1.429 . S
C2005 N2002 1.350 . S
C2005 C2004 1.434 . S
C2006 C2007 1.369 . S
C2006 C2008 1.419 . S
C2006 H2010 0.930 . S
C2007 C2006 1.369 . S
C2007 C2016 1.429 . S
C2008 C2006 1.419 . S
C2008 C2009 1.363 . S
C2008 H2011 0.929 . S
C2009 C2008 1.363 . S
C2009 C2015 1.428 . S
H2010 C2006 0.930 . S
H2011 C2008 0.929 . S
S2012 N2013 1.613 . S
S2012 N2014 1.610 . S
N2013 S2012 1.613 . S
N2013 C2016 1.350 . S
N2014 S2012 1.610 . S
N2014 C2015 1.351 . S
C2015 C2009 1.428 . S
C2015 N2014 1.351 . S
C2015 C2016 1.434 . S
C2016 C2007 1.429 . S
C2016 N2013 1.350 . S
C2016 C2015 1.434 . S
C2017 C2018 1.369 . S
C2017 C2019 1.419 . S
C2017 H2021 0.930 . S
C2018 C2017 1.369 . S
C2018 C2027 1.429 . S
C2019 C2017 1.419 . S
C2019 C2020 1.363 . S
C2019 H2022 0.929 . S
C2020 C2019 1.363 . S
C2020 C2026 1.428 . S
H2021 C2017 0.930 . S
H2022 C2019 0.929 . S
S2023 N2024 1.613 . S
S2023 N2025 1.610 . S
N2024 S2023 1.613 . S
N2024 C2027 1.350 . S
N2025 S2023 1.610 . S
N2025 C2026 1.351 . S
C2026 C2020 1.428 . S
C2026 N2025 1.351 . S
C2026 C2027 1.434 . S
C2027 C2018 1.429 . S
C2027 N2024 1.350 . S
C2027 C2026 1.434 . S
C2028 C2029 1.369 . S
C2028 C2030 1.419 . S
C2028 H2032 0.930 . S
C2029 C2028 1.369 . S
C2029 C2038 1.429 . S
C2030 C2028 1.419 . S
C2030 C2031 1.363 . S
C2030 H2033 0.929 . S
C2031 C2030 1.363 . S
C2031 C2037 1.428 . S
H2032 C2028 0.930 . S
H2033 C2030 0.929 . S
S2034 N2035 1.613 . S
S2034 N2036 1.610 . S
N2035 S2034 1.613 . S
N2035 C2038 1.350 . S
N2036 S2034 1.610 . S
N2036 C2037 1.351 . S
C2037 C2031 1.428 . S
C2037 N2036 1.351 . S
C2037 C2038 1.434 . S
C2038 C2029 1.429 . S
C2038 N2035 1.350 . S
C2038 C2037 1.434 . S
C2039 C2040 1.369 . S
C2039 C2041 1.419 . S
C2039 H2043 0.930 . S
C2040 C2039 1.369 . S
C2040 C2049 1.429 . S
C2041 C2039 1.419 . S
C2041 C2042 1.363 . S
C2041 H2044 0.929 . S
C2042 C2041 1.363 . S
C2042 C2048 1.428 . S
H2043 C2039 0.930 . S
H2044 C2041 0.929 . S
S2045 N2046 1.613 . S
S2045 N2047 1.610 . S
N2046 S2045 1.613 . S
N2046 C2049 1.350 . S
N2047 S2045 1.610 . S
N2047 C2048 1.351 . S
C2048 C2042 1.428 . S
C2048 N2047 1.351 . S
C2048 C2049 1.434 . S
C2049 C2040 1.429 . S
C2049 N2046 1.350 . S
C2049 C2048 1.434 . S
C2050 C2051 1.369 . S
C2050 C2052 1.419 . S
C2050 H2054 0.930 . S
C2051 C2050 1.369 . S
C2051 C2060 1.429 . S
C2052 C2050 1.419 . S
C2052 C2053 1.363 . S
C2052 H2055 0.929 . S
C2053 C2052 1.363 . S
C2053 C2059 1.428 . S
H2054 C2050 0.930 . S
H2055 C2052 0.929 . S
S2056 N2057 1.613 . S
S2056 N2058 1.610 . S
N2057 S2056 1.613 . S
N2057 C2060 1.350 . S
N2058 S2056 1.610 . S
N2058 C2059 1.351 . S
C2059 C2053 1.428 . S
C2059 N2058 1.351 . S
C2059 C2060 1.434 . S
C2060 C2051 1.429 . S
C2060 N2057 1.350 . S
C2060 C2059 1.434 . S
C2061 C2062 1.369 . S
C2061 C2063 1.419 . S
C2061 H2065 0.930 . S
C2062 C2061 1.369 . S
C2062 C2071 1.429 . S
C2063 C2061 1.419 . S
C2063 C2064 1.363 . S
C2063 H2066 0.929 . S
C2064 C2063 1.363 . S
C2064 C2070 1.428 . S
H2065 C2061 0.930 . S
H2066 C2063 0.929 . S
S2067 N2068 1.613 . S
S2067 N2069 1.610 . S
N2068 S2067 1.613 . S
N2068 C2071 1.350 . S
N2069 S2067 1.610 . S
N2069 C2070 1.351 . S
C2070 C2064 1.428 . S
C2070 N2069 1.351 . S
C2070 C2071 1.434 . S
C2071 C2062 1.429 . S
C2071 N2068 1.350 . S
C2071 C2070 1.434 . S
C2072 C2073 1.369 . S
C2072 C2074 1.419 . S
C2072 H2076 0.930 . S
C2073 C2072 1.369 . S
C2073 C2082 1.429 . S
C2074 C2072 1.419 . S
C2074 C2075 1.363 . S
C2074 H2077 0.929 . S
C2075 C2074 1.363 . S
C2075 C2081 1.428 . S
H2076 C2072 0.930 . S
H2077 C2074 0.929 . S
S2078 N2079 1.613 . S
S2078 N2080 1.610 . S
N2079 S2078 1.613 . S
N2079 C2082 1.350 . S
N2080 S2078 1.610 . S
N2080 C2081 1.351 . S
C2081 C2075 1.428 . S
C2081 N2080 1.351 . S
C2081 C2082 1.434 . S
C2082 C2073 1.429 . S
C2082 N2079 1.350 . S
C2082 C2081 1.434 . S
C2083 C2084 1.369 . S
C2083 C2085 1.419 . S
C2083 H2087 0.930 . S
C2084 C2083 1.369 . S
C2084 C2093 1.429 . S
C2085 C2083 1.419 . S
C2085 C2086 1.363 . S
C2085 H2088 0.929 . S
C2086 C2085 1.363 . S
C2086 C2092 1.428 . S
H2087 C2083 0.930 . S
H2088 C2085 0.929 . S
S2089 N2090 1.613 . S
S2089 N2091 1.610 . S
N2090 S2089 1.613 . S
N2090 C2093 1.350 . S
N2091 S2089 1.610 . S
N2091 C2092 1.351 . S
C2092 C2086 1.428 . S
C2092 N2091 1.351 . S
C2092 C2093 1.434 . S
C2093 C2084 1.429 . S
C2093 N2090 1.350 . S
C2093 C2092 1.434 . S
C2094 C2095 1.369 . S
C2094 C2096 1.419 . S
C2094 H2098 0.930 . S
C2095 C2094 1.369 . S
C2095 C2104 1.429 . S
C2096 C2094 1.419 . S
C2096 C2097 1.363 . S
C2096 H2099 0.929 . S
C2097 C2096 1.363 . S
C2097 C2103 1.428 . S
H2098 C2094 0.930 . S
H2099 C2096 0.929 . S
S2100 N2101 1.613 . S
S2100 N2102 1.610 . S
N2101 S2100 1.613 . S
N2101 C2104 1.350 . S
N2102 S2100 1.610 . S
N2102 C2103 1.351 . S
C2103 C2097 1.428 . S
C2103 N2102 1.351 . S
C2103 C2104 1.434 . S
C2104 C2095 1.429 . S
C2104 N2101 1.350 . S
C2104 C2103 1.434 . S
C2105 C2106 1.369 . S
C2105 C2107 1.419 . S
C2105 H2109 0.930 . S
C2106 C2105 1.369 . S
C2106 C2115 1.429 . S
C2107 C2105 1.419 . S
C2107 C2108 1.363 . S
C2107 H2110 0.929 . S
C2108 C2107 1.363 . S
C2108 C2114 1.428 . S
H2109 C2105 0.930 . S
H2110 C2107 0.929 . S
S2111 N2112 1.613 . S
S2111 N2113 1.610 . S
N2112 S2111 1.613 . S
N2112 C2115 1.350 . S
N2113 S2111 1.610 . S
N2113 C2114 1.351 . S
C2114 C2108 1.428 . S
C2114 N2113 1.351 . S
C2114 C2115 1.434 . S
C2115 C2106 1.429 . S
C2115 N2112 1.350 . S
C2115 C2114 1.434 . S
C2116 C2117 1.369 . S
C2116 C2118 1.419 . S
C2116 H2120 0.930 . S
C2117 C2116 1.369 . S
C2117 C2126 1.429 . S
C2118 C2116 1.419 . S
C2118 C2119 1.363 . S
C2118 H2121 0.929 . S
C2119 C2118 1.363 . S
C2119 C2125 1.428 . S
H2120 C2116 0.930 . S
H2121 C2118 0.929 . S
S2122 N2123 1.613 . S
S2122 N2124 1.610 . S
N2123 S2122 1.613 . S
N2123 C2126 1.350 . S
N2124 S2122 1.610 . S
N2124 C2125 1.351 . S
C2125 C2119 1.428 . S
C2125 N2124 1.351 . S
C2125 C2126 1.434 . S
C2126 C2117 1.429 . S
C2126 N2123 1.350 . S
C2126 C2125 1.434 . S
C2127 C2128 1.369 . S
C2127 C2129 1.419 . S
C2127 H2131 0.930 . S
C2128 C2127 1.369 . S
C2128 C2137 1.429 . S
C2129 C2127 1.419 . S
C2129 C2130 1.363 . S
C2129 H2132 0.929 . S
C2130 C2129 1.363 . S
C2130 C2136 1.428 . S
H2131 C2127 0.930 . S
H2132 C2129 0.929 . S
S2133 N2134 1.613 . S
S2133 N2135 1.610 . S
N2134 S2133 1.613 . S
N2134 C2137 1.350 . S
N2135 S2133 1.610 . S
N2135 C2136 1.351 . S
C2136 C2130 1.428 . S
C2136 N2135 1.351 . S
C2136 C2137 1.434 . S
C2137 C2128 1.429 . S
C2137 N2134 1.350 . S
C2137 C2136 1.434 . S
C2138 C2139 1.369 . S
C2138 C2140 1.419 . S
C2138 H2142 0.930 . S
C2139 C2138 1.369 . S
C2139 C2148 1.429 . S
C2140 C2138 1.419 . S
C2140 C2141 1.363 . S
C2140 H2143 0.929 . S
C2141 C2140 1.363 . S
C2141 C2147 1.428 . S
H2142 C2138 0.930 . S
H2143 C2140 0.929 . S
S2144 N2145 1.613 . S
S2144 N2146 1.610 . S
N2145 S2144 1.613 . S
N2145 C2148 1.350 . S
N2146 S2144 1.610 . S
N2146 C2147 1.351 . S
C2147 C2141 1.428 . S
C2147 N2146 1.351 . S
C2147 C2148 1.434 . S
C2148 C2139 1.429 . S
C2148 N2145 1.350 . S
C2148 C2147 1.434 . S
C2149 C2150 1.369 . S
C2149 C2151 1.419 . S
C2149 H2153 0.930 . S
C2150 C2149 1.369 . S
C2150 C2159 1.429 . S
C2151 C2149 1.419 . S
C2151 C2152 1.363 . S
C2151 H2154 0.929 . S
C2152 C2151 1.363 . S
C2152 C2158 1.428 . S
H2153 C2149 0.930 . S
H2154 C2151 0.929 . S
S2155 N2156 1.613 . S
S2155 N2157 1.610 . S
N2156 S2155 1.613 . S
N2156 C2159 1.350 . S
N2157 S2155 1.610 . S
N2157 C2158 1.351 . S
C2158 C2152 1.428 . S
C2158 N2157 1.351 . S
C2158 C2159 1.434 . S
C2159 C2150 1.429 . S
C2159 N2156 1.350 . S
C2159 C2158 1.434 . S
C1105 N219 1.947 . S
C1107 N12 1.947 . S
C1116 N242 1.948 . S
C1118 N35 1.943 . S
C1127 N265 1.946 . S
C1129 N58 1.942 . S
C1138 N196 1.946 . S
C1140 N81 1.947 . S
C1149 N104 1.942 . S
C1151 N357 1.947 . S
C1160 N127 1.948 . S
C1162 N288 1.944 . S
C1171 N150 1.947 . S
C1173 N311 1.946 . S
C1182 N334 1.945 . S
C1184 N173 1.947 . S
C1193 N380 1.945 . S
C1195 N426 1.942 . S
C1204 N403 1.945 . S
C1206 N1070 1.947 . S
C1215 N449 1.947 . S
C1217 N1093 1.946 . S
C1226 N472 1.942 . S
C1228 N1047 1.947 . S
C1237 N495 1.944 . S
C1239 N1024 1.947 . S
C1248 N955 1.947 . S
C1250 N518 1.943 . S
C1259 N541 1.944 . S
C1261 N1001 1.942 . S
C1270 N771 1.948 . S
C1272 N564 1.945 . S
C1281 N794 1.941 . S
C1283 N587 1.946 . S
C1292 N817 1.945 . S
C1294 N610 1.947 . S
C1303 N748 1.943 . S
C1305 N633 1.943 . S
C1314 N909 1.948 . S
C1316 N656 1.945 . S
C1325 N840 1.941 . S
C1327 N679 1.944 . S
C1336 N702 1.942 . S
C1338 N863 1.947 . S
C1347 N725 1.948 . S
C1349 N886 1.943 . S
C1358 N932 1.947 . S
C1360 N978 1.942 . S
C1369 C384 1.179 . S
C1371 N2 1.181 . S
C1380 C1097 1.190 1_565 S
C1382 N25 1.173 . S
C1391 N48 1.173 . S
C1393 C499 1.189 . S
C1402 C1074 1.179 1_545 S
C1404 N71 1.182 . S
C1413 N94 1.181 . S
C1415 C959 1.180 . S
C1424 C982 1.188 1_565 S
C1426 N117 1.173 . S
C1435 N140 1.183 . S
C1437 C1005 1.180 . S
C1446 C476 1.190 1_545 S
C1448 N163 1.174 . S
C1457 N186 1.171 . S
C1459 C16 1.188 . S
C1468 C39 1.190 1_455 S
C1470 N209 1.174 . S
C1479 N232 1.182 . S
C1481 C62 1.184 . S
C1490 C85 1.179 . S
C1492 N255 1.182 . S
C1501 N278 1.173 . S
C1503 C108 1.185 . S
C1512 C131 1.181 . S
C1514 N301 1.178 . S
C1523 N324 1.175 . S
C1525 C154 1.184 . S
C1534 N347 1.184 . S
C1536 C177 1.182 1_455 S
C1545 N370 1.180 . S
C1547 C200 1.186 . S
C1556 N393 1.172 . S
C1558 C844 1.186 . S
C1567 C867 1.186 1_554 S
C1569 N416 1.174 . S
C1578 C890 1.187 . S
C1580 N439 1.179 . S
C1589 C361 1.179 1_554 S
C1591 N462 1.182 . S
C1600 N485 1.183 . S
C1602 C246 1.180 . S
C1611 C821 1.186 . S
C1613 N508 1.180 . S
C1622 N531 1.173 . S
C1624 C775 1.186 1_556 S
C1633 N554 1.172 . S
C1635 C936 1.188 . S
C1644 N577 1.181 . S
C1646 C545 1.180 . S
C1655 N600 1.179 . S
C1657 C1051 1.181 . S
C1666 N623 1.184 . S
C1668 C522 1.181 . S
C1677 N646 1.176 . S
C1679 C407 1.188 . S
C1688 N669 1.173 . S
C1690 C430 1.185 . S
C1699 C453 1.179 . S
C1701 N692 1.182 . S
C1710 C1028 1.181 . S
C1712 N715 1.178 . S
C1721 C568 1.190 . S
C1723 N738 1.173 . S
C1732 C591 1.186 . S
C1734 N761 1.179 . S
C1743 N784 1.176 . S
C1745 C614 1.182 . S
C1754 C637 1.182 1_655 S
C1756 N807 1.177 . S
C1765 N830 1.173 . S
C1767 C660 1.189 . S
C1776 N853 1.183 . S
C1778 C683 1.180 1_655 S
C1787 N876 1.171 . S
C1789 C706 1.188 . S
C1798 C729 1.183 . S
C1800 N899 1.181 . S
C1809 N922 1.172 . S
C1811 C752 1.189 . S
C1820 N945 1.184 . S
C1822 C292 1.181 . S
C1831 C315 1.189 . S
C1833 N968 1.177 . S
C1842 N991 1.184 . S
C1844 C338 1.181 . S
C1853 N1014 1.178 . S
C1855 C913 1.187 . S
C1864 C798 1.189 . S
C1866 N1037 1.173 . S
C1875 C269 1.185 1_556 S
C1877 N1060 1.180 . S
C1886 C223 1.189 . S
C1888 N1083 1.177 . S
C1897 C513 1.476 . S
C1899 C7 1.477 . S
C1908 C30 1.484 . S
C1910 C927 1.474 . S
C1919 C53 1.481 . S
C1921 C536 1.477 . S
C1930 C1042 1.475 . S
C1932 C76 1.482 . S
C1941 C99 1.473 . S
C1943 C421 1.481 . S
C1952 C444 1.484 . S
C1954 C122 1.473 . S
C1963 C1019 1.472 . S
C1965 C145 1.482 . S
C1974 C168 1.472 . S
C1976 C398 1.482 . S
C1985 C306 1.477 . S
C1987 C191 1.480 . S
C1996 C214 1.484 . S
C1998 C329 1.475 . S
C2007 C352 1.480 . S
C2009 C237 1.478 . S
C2018 C260 1.484 . S
C2020 C283 1.473 . S
C2029 C582 1.478 . S
C2031 C375 1.480 . S
C2040 C467 1.474 . S
C2042 C697 1.482 . S
C2051 C490 1.479 . S
C2053 C628 1.475 . S
C2062 C1065 1.473 . S
C2064 C559 1.480 . S
C2073 C605 1.472 . S
C2075 C1088 1.482 . S
C2084 C651 1.482 . S
C2086 C973 1.474 . S
C2095 C674 1.472 . S
C2097 C996 1.483 . S
C2106 C950 1.472 . S
C2108 C720 1.482 . S
C2117 C858 1.480 . S
C2119 C743 1.478 . S
C2128 C766 1.481 . S
C2130 C881 1.477 . S
C2139 C789 1.478 . S
C2141 C904 1.476 . S
C2150 C835 1.484 . S
C2152 C812 1.474 . S
