# Generated by pormake.
# Topology wna, (6)-cn, num edge types: 1
# Building blocks:
#     Node 0, Type 0, BuildingBlock: INOVEN_clean_sbu_0, # of connection points: 6
#     Node 1, Type 0, BuildingBlock: INOVEN_clean_sbu_0, # of connection points: 6
#     Node 2, Type 0, BuildingBlock: INOVEN_clean_sbu_0, # of connection points: 6
#     Node 3, Type 0, BuildingBlock: INOVEN_clean_sbu_0, # of connection points: 6
#     Node 4, Type 0, BuildingBlock: INOVEN_clean_sbu_0, # of connection points: 6
#     Node 5, Type 0, BuildingBlock: INOVEN_clean_sbu_0, # of connection points: 6
#     Node 6, Type 0, BuildingBlock: INOVEN_clean_sbu_0, # of connection points: 6
#     Node 7, Type 0, BuildingBlock: INOVEN_clean_sbu_0, # of connection points: 6
#     Node 8, Type 0, BuildingBlock: INOVEN_clean_sbu_0, # of connection points: 6
#     Node 9, Type 0, BuildingBlock: INOVEN_clean_sbu_0, # of connection points: 6
#     Node 10, Type 0, BuildingBlock: INOVEN_clean_sbu_0, # of connection points: 6
#     Node 11, Type 0, BuildingBlock: INOVEN_clean_sbu_0, # of connection points: 6
#     Node 12, Type 0, BuildingBlock: INOVEN_clean_sbu_0, # of connection points: 6
#     Node 13, Type 0, BuildingBlock: INOVEN_clean_sbu_0, # of connection points: 6
#     Node 14, Type 0, BuildingBlock: INOVEN_clean_sbu_0, # of connection points: 6
#     Node 15, Type 0, BuildingBlock: INOVEN_clean_sbu_0, # of connection points: 6
#     Node 16, Type 0, BuildingBlock: INOVEN_clean_sbu_0, # of connection points: 6
#     Node 17, Type 0, BuildingBlock: INOVEN_clean_sbu_0, # of connection points: 6
#     Node 18, Type 0, BuildingBlock: INOVEN_clean_sbu_0, # of connection points: 6
#     Node 19, Type 0, BuildingBlock: INOVEN_clean_sbu_0, # of connection points: 6
#     Node 20, Type 0, BuildingBlock: INOVEN_clean_sbu_0, # of connection points: 6
#     Node 21, Type 0, BuildingBlock: INOVEN_clean_sbu_0, # of connection points: 6
#     Node 22, Type 0, BuildingBlock: INOVEN_clean_sbu_0, # of connection points: 6
#     Node 23, Type 0, BuildingBlock: INOVEN_clean_sbu_0, # of connection points: 6
#     Node 24, Type 0, BuildingBlock: INOVEN_clean_sbu_0, # of connection points: 6
#     Node 25, Type 0, BuildingBlock: INOVEN_clean_sbu_0, # of connection points: 6
#     Node 26, Type 0, BuildingBlock: INOVEN_clean_sbu_0, # of connection points: 6
#     Node 27, Type 0, BuildingBlock: INOVEN_clean_sbu_0, # of connection points: 6
#     Node 28, Type 0, BuildingBlock: INOVEN_clean_sbu_0, # of connection points: 6
#     Node 29, Type 0, BuildingBlock: INOVEN_clean_sbu_0, # of connection points: 6
#     Node 30, Type 0, BuildingBlock: INOVEN_clean_sbu_0, # of connection points: 6
#     Node 31, Type 0, BuildingBlock: INOVEN_clean_sbu_0, # of connection points: 6
#     Node 32, Type 0, BuildingBlock: INOVEN_clean_sbu_0, # of connection points: 6
#     Node 33, Type 0, BuildingBlock: INOVEN_clean_sbu_0, # of connection points: 6
#     Node 34, Type 0, BuildingBlock: INOVEN_clean_sbu_0, # of connection points: 6
#     Node 35, Type 0, BuildingBlock: INOVEN_clean_sbu_0, # of connection points: 6
#     Edge 36, Type (0, 0), BuildingBlock: TEMPAE_clean_linker_10, # of connection points: 2
#     Edge 37, Type (0, 0), BuildingBlock: TEMPAE_clean_linker_10, # of connection points: 2
#     Edge 38, Type (0, 0), BuildingBlock: TEMPAE_clean_linker_10, # of connection points: 2
#     Edge 39, Type (0, 0), BuildingBlock: TEMPAE_clean_linker_10, # of connection points: 2
#     Edge 40, Type (0, 0), BuildingBlock: TEMPAE_clean_linker_10, # of connection points: 2
#     Edge 41, Type (0, 0), BuildingBlock: TEMPAE_clean_linker_10, # of connection points: 2
#     Edge 42, Type (0, 0), BuildingBlock: TEMPAE_clean_linker_10, # of connection points: 2
#     Edge 43, Type (0, 0), BuildingBlock: TEMPAE_clean_linker_10, # of connection points: 2
#     Edge 44, Type (0, 0), BuildingBlock: TEMPAE_clean_linker_10, # of connection points: 2
#     Edge 45, Type (0, 0), BuildingBlock: TEMPAE_clean_linker_10, # of connection points: 2
#     Edge 46, Type (0, 0), BuildingBlock: TEMPAE_clean_linker_10, # of connection points: 2
#     Edge 47, Type (0, 0), BuildingBlock: TEMPAE_clean_linker_10, # of connection points: 2
#     Edge 48, Type (0, 0), BuildingBlock: TEMPAE_clean_linker_10, # of connection points: 2
#     Edge 49, Type (0, 0), BuildingBlock: TEMPAE_clean_linker_10, # of connection points: 2
#     Edge 50, Type (0, 0), BuildingBlock: TEMPAE_clean_linker_10, # of connection points: 2
#     Edge 51, Type (0, 0), BuildingBlock: TEMPAE_clean_linker_10, # of connection points: 2
#     Edge 52, Type (0, 0), BuildingBlock: TEMPAE_clean_linker_10, # of connection points: 2
#     Edge 53, Type (0, 0), BuildingBlock: TEMPAE_clean_linker_10, # of connection points: 2
#     Edge 54, Type (0, 0), BuildingBlock: TEMPAE_clean_linker_10, # of connection points: 2
#     Edge 55, Type (0, 0), BuildingBlock: TEMPAE_clean_linker_10, # of connection points: 2
#     Edge 56, Type (0, 0), BuildingBlock: TEMPAE_clean_linker_10, # of connection points: 2
#     Edge 57, Type (0, 0), BuildingBlock: TEMPAE_clean_linker_10, # of connection points: 2
#     Edge 58, Type (0, 0), BuildingBlock: TEMPAE_clean_linker_10, # of connection points: 2
#     Edge 59, Type (0, 0), BuildingBlock: TEMPAE_clean_linker_10, # of connection points: 2
#     Edge 60, Type (0, 0), BuildingBlock: TEMPAE_clean_linker_10, # of connection points: 2
#     Edge 61, Type (0, 0), BuildingBlock: TEMPAE_clean_linker_10, # of connection points: 2
#     Edge 62, Type (0, 0), BuildingBlock: TEMPAE_clean_linker_10, # of connection points: 2
#     Edge 63, Type (0, 0), BuildingBlock: TEMPAE_clean_linker_10, # of connection points: 2
#     Edge 64, Type (0, 0), BuildingBlock: TEMPAE_clean_linker_10, # of connection points: 2
#     Edge 65, Type (0, 0), BuildingBlock: TEMPAE_clean_linker_10, # of connection points: 2
#     Edge 66, Type (0, 0), BuildingBlock: TEMPAE_clean_linker_10, # of connection points: 2
#     Edge 67, Type (0, 0), BuildingBlock: TEMPAE_clean_linker_10, # of connection points: 2
#     Edge 68, Type (0, 0), BuildingBlock: TEMPAE_clean_linker_10, # of connection points: 2
#     Edge 69, Type (0, 0), BuildingBlock: TEMPAE_clean_linker_10, # of connection points: 2
#     Edge 70, Type (0, 0), BuildingBlock: TEMPAE_clean_linker_10, # of connection points: 2
#     Edge 71, Type (0, 0), BuildingBlock: TEMPAE_clean_linker_10, # of connection points: 2
#     Edge 72, Type (0, 0), BuildingBlock: TEMPAE_clean_linker_10, # of connection points: 2
#     Edge 73, Type (0, 0), BuildingBlock: TEMPAE_clean_linker_10, # of connection points: 2
#     Edge 74, Type (0, 0), BuildingBlock: TEMPAE_clean_linker_10, # of connection points: 2
#     Edge 75, Type (0, 0), BuildingBlock: TEMPAE_clean_linker_10, # of connection points: 2
#     Edge 76, Type (0, 0), BuildingBlock: TEMPAE_clean_linker_10, # of connection points: 2
#     Edge 77, Type (0, 0), BuildingBlock: TEMPAE_clean_linker_10, # of connection points: 2
#     Edge 78, Type (0, 0), BuildingBlock: TEMPAE_clean_linker_10, # of connection points: 2
#     Edge 79, Type (0, 0), BuildingBlock: TEMPAE_clean_linker_10, # of connection points: 2
#     Edge 80, Type (0, 0), BuildingBlock: TEMPAE_clean_linker_10, # of connection points: 2
#     Edge 81, Type (0, 0), BuildingBlock: TEMPAE_clean_linker_10, # of connection points: 2
#     Edge 82, Type (0, 0), BuildingBlock: TEMPAE_clean_linker_10, # of connection points: 2
#     Edge 83, Type (0, 0), BuildingBlock: TEMPAE_clean_linker_10, # of connection points: 2
#     Edge 84, Type (0, 0), BuildingBlock: TEMPAE_clean_linker_10, # of connection points: 2
#     Edge 85, Type (0, 0), BuildingBlock: TEMPAE_clean_linker_10, # of connection points: 2
#     Edge 86, Type (0, 0), BuildingBlock: TEMPAE_clean_linker_10, # of connection points: 2
#     Edge 87, Type (0, 0), BuildingBlock: TEMPAE_clean_linker_10, # of connection points: 2
#     Edge 88, Type (0, 0), BuildingBlock: TEMPAE_clean_linker_10, # of connection points: 2
#     Edge 89, Type (0, 0), BuildingBlock: TEMPAE_clean_linker_10, # of connection points: 2
#     Edge 90, Type (0, 0), BuildingBlock: TEMPAE_clean_linker_10, # of connection points: 2
#     Edge 91, Type (0, 0), BuildingBlock: TEMPAE_clean_linker_10, # of connection points: 2
#     Edge 92, Type (0, 0), BuildingBlock: TEMPAE_clean_linker_10, # of connection points: 2
#     Edge 93, Type (0, 0), BuildingBlock: TEMPAE_clean_linker_10, # of connection points: 2
#     Edge 94, Type (0, 0), BuildingBlock: TEMPAE_clean_linker_10, # of connection points: 2
#     Edge 95, Type (0, 0), BuildingBlock: TEMPAE_clean_linker_10, # of connection points: 2
#     Edge 96, Type (0, 0), BuildingBlock: TEMPAE_clean_linker_10, # of connection points: 2
#     Edge 97, Type (0, 0), BuildingBlock: TEMPAE_clean_linker_10, # of connection points: 2
#     Edge 98, Type (0, 0), BuildingBlock: TEMPAE_clean_linker_10, # of connection points: 2
#     Edge 99, Type (0, 0), BuildingBlock: TEMPAE_clean_linker_10, # of connection points: 2
#     Edge 100, Type (0, 0), BuildingBlock: TEMPAE_clean_linker_10, # of connection points: 2
#     Edge 101, Type (0, 0), BuildingBlock: TEMPAE_clean_linker_10, # of connection points: 2
#     Edge 102, Type (0, 0), BuildingBlock: TEMPAE_clean_linker_10, # of connection points: 2
#     Edge 103, Type (0, 0), BuildingBlock: TEMPAE_clean_linker_10, # of connection points: 2
#     Edge 104, Type (0, 0), BuildingBlock: TEMPAE_clean_linker_10, # of connection points: 2
#     Edge 105, Type (0, 0), BuildingBlock: TEMPAE_clean_linker_10, # of connection points: 2
#     Edge 106, Type (0, 0), BuildingBlock: TEMPAE_clean_linker_10, # of connection points: 2
#     Edge 107, Type (0, 0), BuildingBlock: TEMPAE_clean_linker_10, # of connection points: 2
#     Edge 108, Type (0, 0), BuildingBlock: TEMPAE_clean_linker_10, # of connection points: 2
#     Edge 109, Type (0, 0), BuildingBlock: TEMPAE_clean_linker_10, # of connection points: 2
#     Edge 110, Type (0, 0), BuildingBlock: TEMPAE_clean_linker_10, # of connection points: 2
#     Edge 111, Type (0, 0), BuildingBlock: TEMPAE_clean_linker_10, # of connection points: 2
#     Edge 112, Type (0, 0), BuildingBlock: TEMPAE_clean_linker_10, # of connection points: 2
#     Edge 113, Type (0, 0), BuildingBlock: TEMPAE_clean_linker_10, # of connection points: 2
#     Edge 114, Type (0, 0), BuildingBlock: TEMPAE_clean_linker_10, # of connection points: 2
#     Edge 115, Type (0, 0), BuildingBlock: TEMPAE_clean_linker_10, # of connection points: 2
#     Edge 116, Type (0, 0), BuildingBlock: TEMPAE_clean_linker_10, # of connection points: 2
#     Edge 117, Type (0, 0), BuildingBlock: TEMPAE_clean_linker_10, # of connection points: 2
#     Edge 118, Type (0, 0), BuildingBlock: TEMPAE_clean_linker_10, # of connection points: 2
#     Edge 119, Type (0, 0), BuildingBlock: TEMPAE_clean_linker_10, # of connection points: 2
#     Edge 120, Type (0, 0), BuildingBlock: TEMPAE_clean_linker_10, # of connection points: 2
#     Edge 121, Type (0, 0), BuildingBlock: TEMPAE_clean_linker_10, # of connection points: 2
#     Edge 122, Type (0, 0), BuildingBlock: TEMPAE_clean_linker_10, # of connection points: 2
#     Edge 123, Type (0, 0), BuildingBlock: TEMPAE_clean_linker_10, # of connection points: 2
#     Edge 124, Type (0, 0), BuildingBlock: TEMPAE_clean_linker_10, # of connection points: 2
#     Edge 125, Type (0, 0), BuildingBlock: TEMPAE_clean_linker_10, # of connection points: 2
#     Edge 126, Type (0, 0), BuildingBlock: TEMPAE_clean_linker_10, # of connection points: 2
#     Edge 127, Type (0, 0), BuildingBlock: TEMPAE_clean_linker_10, # of connection points: 2
#     Edge 128, Type (0, 0), BuildingBlock: TEMPAE_clean_linker_10, # of connection points: 2
#     Edge 129, Type (0, 0), BuildingBlock: TEMPAE_clean_linker_10, # of connection points: 2
#     Edge 130, Type (0, 0), BuildingBlock: TEMPAE_clean_linker_10, # of connection points: 2
#     Edge 131, Type (0, 0), BuildingBlock: TEMPAE_clean_linker_10, # of connection points: 2
#     Edge 132, Type (0, 0), BuildingBlock: TEMPAE_clean_linker_10, # of connection points: 2
#     Edge 133, Type (0, 0), BuildingBlock: TEMPAE_clean_linker_10, # of connection points: 2
#     Edge 134, Type (0, 0), BuildingBlock: TEMPAE_clean_linker_10, # of connection points: 2
#     Edge 135, Type (0, 0), BuildingBlock: TEMPAE_clean_linker_10, # of connection points: 2
#     Edge 136, Type (0, 0), BuildingBlock: TEMPAE_clean_linker_10, # of connection points: 2
#     Edge 137, Type (0, 0), BuildingBlock: TEMPAE_clean_linker_10, # of connection points: 2
#     Edge 138, Type (0, 0), BuildingBlock: TEMPAE_clean_linker_10, # of connection points: 2
#     Edge 139, Type (0, 0), BuildingBlock: TEMPAE_clean_linker_10, # of connection points: 2
#     Edge 140, Type (0, 0), BuildingBlock: TEMPAE_clean_linker_10, # of connection points: 2
#     Edge 141, Type (0, 0), BuildingBlock: TEMPAE_clean_linker_10, # of connection points: 2
#     Edge 142, Type (0, 0), BuildingBlock: TEMPAE_clean_linker_10, # of connection points: 2
#     Edge 143, Type (0, 0), BuildingBlock: TEMPAE_clean_linker_10, # of connection points: 2
# Relax obj value: 0.156
# Max RMSD: 0.228
# Mean RMSD: 0.210
data_MOF--net-wna--node1-INOVEN_clean_sbu_0--edge1-TEMPAE_clean_linker_10
_symmetry_space_group_name_H-M    P1
_symmetry_Int_Tables_number       1
_symmetry_cell_setting            triclinic
loop_
_symmetry_equiv_pos_as_xyz
'x, y, z'
_cell_length_a     41.735321
_cell_length_b     41.739611
_cell_length_c     152.8425
_cell_angle_alpha  90.001387
_cell_angle_beta   89.999172
_cell_angle_gamma 119.99978
loop_
_atom_site_label
_atom_site_type_symbol
_atom_site_fract_x
_atom_site_fract_y
_atom_site_fract_z
_atom_type_partial_charge
Gd0 Gd 0.10819 0.24708 0.16952 0.0
Gd1 Gd 0.11714 0.24656 0.18883 0.0
C2 C 0.19174 0.29388 0.17798 0.0
C3 C 0.10337 0.26556 0.1535 0.0
C4 C 0.12049 0.28083 0.14482 0.0
C5 C 0.1362 0.26426 0.13967 0.0
C6 C 0.11634 0.30933 0.14111 0.0
C7 C 0.14094 0.30287 0.1271 0.0
C8 C 0.12644 0.32025 0.13239 0.0
C9 C 0.14634 0.27519 0.13093 0.0
C10 C 0.12033 0.19246 0.1749 0.0
C11 C 0.03819 0.18752 0.1801 0.0
C12 C 0.11663 0.23232 0.20547 0.0
C13 C 0.09486 0.2247 0.21373 0.0
C14 C 0.09453 0.25336 0.21852 0.0
C15 C 0.07736 0.18898 0.21738 0.0
C16 C 0.06092 0.21098 0.23054 0.0
C17 C 0.06053 0.18218 0.22565 0.0
C18 C 0.07775 0.24657 0.22679 0.0
C19 C 0.09782 0.29673 0.183 0.0
O20 O 0.17003 0.28912 0.17116 0.0
O21 O 0.17763 0.27625 0.18542 0.0
O22 O 0.09806 0.23306 0.15578 0.0
O23 O 0.11084 0.28801 0.16016 0.0
O24 O 0.09953 0.18988 0.16833 0.0
O25 O 0.13642 0.22502 0.17799 0.0
O26 O 0.06115 0.19557 0.18676 0.0
O27 O 0.04845 0.20831 0.17298 0.0
O28 O 0.13215 0.26571 0.20221 0.0
O29 O 0.10409 0.20684 0.1994 0.0
O30 O 0.1216 0.30304 0.18912 0.0
O31 O 0.08485 0.26394 0.18039 0.0
H32 H 0.13963 0.24205 0.14229 0.0
H33 H 0.10377 0.32222 0.14485 0.0
H34 H 0.12134 0.34128 0.1297 0.0
H35 H 0.15795 0.26151 0.12714 0.0
H36 H 0.10794 0.2813 0.21597 0.0
H37 H 0.0776 0.16639 0.21395 0.0
H38 H 0.04833 0.15452 0.22833 0.0
H39 H 0.07821 0.26937 0.23028 0.0
Gd40 Gd 0.76702 0.8614 0.16949 0.0
Gd41 Gd 0.76769 0.87133 0.18879 0.0
C42 C 0.72002 0.89805 0.17791 0.0
C43 C 0.74821 0.83765 0.15352 0.0
C44 C 0.73232 0.83893 0.14487 0.0
C45 C 0.75043 0.86965 0.13925 0.0
C46 C 0.70142 0.80678 0.14164 0.0
C47 C 0.70858 0.835 0.12721 0.0
C48 C 0.68967 0.80485 0.13296 0.0
C49 C 0.73862 0.86775 0.13055 0.0
C50 C 0.82159 0.92832 0.17478 0.0
C51 C 0.82677 0.85129 0.1801 0.0
C52 C 0.782 0.88595 0.20538 0.0
C53 C 0.79115 0.87346 0.21366 0.0
C54 C 0.76759 0.83836 0.2173 0.0
C55 C 0.8225 0.89859 0.21844 0.0
C56 C 0.8057 0.85467 0.23053 0.0
C57 C 0.82973 0.88934 0.22674 0.0
C58 C 0.77483 0.82907 0.22562 0.0
C59 C 0.71758 0.80173 0.18302 0.0
O60 O 0.72491 0.88116 0.1711 0.0
O61 O 0.73758 0.90164 0.18535 0.0
O62 O 0.78063 0.86521 0.15572 0.0
O63 O 0.72614 0.82253 0.16023 0.0
O64 O 0.82419 0.90995 0.16825 0.0
O65 O 0.78904 0.91188 0.17789 0.0
O66 O 0.81856 0.86605 0.18677 0.0
O67 O 0.80612 0.84085 0.17296 0.0
O68 O 0.74867 0.86606 0.2022 0.0
O69 O 0.8073 0.89995 0.19928 0.0
O70 O 0.71112 0.81938 0.18907 0.0
O71 O 0.7504 0.8215 0.18042 0.0
H72 H 0.7746 0.89476 0.14146 0.0
H73 H 0.6871 0.7825 0.14575 0.0
H74 H 0.66606 0.77937 0.1307 0.0
H75 H 0.75411 0.89147 0.12634 0.0
H76 H 0.74305 0.81837 0.21382 0.0
H77 H 0.84106 0.92588 0.21583 0.0
H78 H 0.85412 0.90957 0.23022 0.0
H79 H 0.75552 0.80222 0.22832 0.0
Gd80 Gd 0.15303 0.90632 0.16969 0.0
Gd81 Gd 0.14332 0.89708 0.18893 0.0
C82 C 0.11617 0.82266 0.17805 0.0
C83 C 0.17663 0.91118 0.15371 0.0
C84 C 0.17466 0.89346 0.14512 0.0
C85 C 0.14233 0.87743 0.13998 0.0
C86 C 0.20725 0.89722 0.14146 0.0
C87 C 0.17601 0.87156 0.12753 0.0
C88 C 0.20795 0.88639 0.13281 0.0
C89 C 0.14299 0.86656 0.13131 0.0
C90 C 0.08614 0.89409 0.17498 0.0
C91 C 0.16316 0.97611 0.1803 0.0
C92 C 0.12936 0.89701 0.20557 0.0
C93 C 0.14361 0.9183 0.21387 0.0
C94 C 0.15841 0.90559 0.22038 0.0
C95 C 0.13934 0.94895 0.21579 0.0
C96 C 0.16334 0.95286 0.23061 0.0
C97 C 0.14911 0.96601 0.22404 0.0
C98 C 0.16826 0.92268 0.2286 0.0
C99 C 0.21301 0.91671 0.18316 0.0
O100 O 0.13326 0.84447 0.17126 0.0
O101 O 0.11249 0.83666 0.18548 0.0
O102 O 0.14932 0.91639 0.15594 0.0
O103 O 0.19167 0.90402 0.16041 0.0
O104 O 0.10457 0.91507 0.16845 0.0
O105 O 0.10251 0.8779 0.17809 0.0
O106 O 0.14818 0.95304 0.18693 0.0
O107 O 0.1738 0.96598 0.17318 0.0
O108 O 0.14713 0.88142 0.2023 0.0
O109 O 0.11673 0.90995 0.19952 0.0
O110 O 0.19542 0.89271 0.18924 0.0
O111 O 0.19317 0.92965 0.18056 0.0
H112 H 0.11674 0.87427 0.14257 0.0
H113 H 0.23274 0.91001 0.1452 0.0
H114 H 0.23403 0.89119 0.13015 0.0
H115 H 0.11769 0.85473 0.12753 0.0
H116 H 0.16148 0.88168 0.21919 0.0
H117 H 0.12775 0.95938 0.21099 0.0
H118 H 0.14533 0.98945 0.22529 0.0
H119 H 0.17861 0.91137 0.2335 0.0
Gd120 Gd 0.24997 0.10518 0.35341 0.0
Gd121 Gd 0.24984 0.1147 0.33414 0.0
C122 C 0.29597 0.18924 0.34513 0.0
C123 C 0.2689 0.1002 0.36936 0.0
C124 C 0.28376 0.11734 0.37807 0.0
C125 C 0.26433 0.12871 0.3836 0.0
C126 C 0.31513 0.11735 0.38141 0.0
C127 C 0.30601 0.13735 0.39579 0.0
C128 C 0.32617 0.12729 0.39013 0.0
C129 C 0.27536 0.13864 0.39233 0.0
C130 C 0.19515 0.11701 0.34808 0.0
C131 C 0.19057 0.03546 0.34272 0.0
C132 C 0.23613 0.11482 0.3175 0.0
C133 C 0.23003 0.09408 0.30914 0.0
C134 C 0.25798 0.10763 0.30273 0.0
C135 C 0.19551 0.06315 0.30706 0.0
C136 C 0.21677 0.06082 0.29226 0.0
C137 C 0.18902 0.04669 0.29874 0.0
C138 C 0.25152 0.09119 0.29444 0.0
C139 C 0.29995 0.09513 0.33993 0.0
O140 O 0.29075 0.16748 0.35197 0.0
O141 O 0.27929 0.1752 0.3376 0.0
O142 O 0.23591 0.09361 0.36711 0.0
O143 O 0.29153 0.10886 0.36269 0.0
O144 O 0.19268 0.09619 0.35464 0.0
O145 O 0.22772 0.13335 0.34499 0.0
O146 O 0.19868 0.05863 0.33611 0.0
O147 O 0.21132 0.04554 0.34985 0.0
O148 O 0.26942 0.13126 0.32082 0.0
O149 O 0.21041 0.10091 0.32351 0.0
O150 O 0.30631 0.11906 0.33385 0.0
O151 O 0.26714 0.08218 0.34253 0.0
H152 H 0.23988 0.12883 0.38127 0.0
H153 H 0.33031 0.10812 0.37738 0.0
H154 H 0.34961 0.12546 0.39254 0.0
H155 H 0.25944 0.14677 0.39642 0.0
H156 H 0.28476 0.13161 0.30407 0.0
H157 H 0.17313 0.05219 0.31177 0.0
H158 H 0.16179 0.02362 0.2973 0.0
H159 H 0.2738 0.10255 0.2897 0.0
Gd160 Gd 0.90801 0.14809 0.35337 0.0
Gd161 Gd 0.89899 0.13806 0.33403 0.0
C162 C 0.82448 0.11124 0.34488 0.0
C163 C 0.91286 0.17189 0.36933 0.0
C164 C 0.89572 0.17044 0.37799 0.0
C165 C 0.8802 0.13847 0.38325 0.0
C166 C 0.89969 0.20323 0.38158 0.0
C167 C 0.87528 0.17292 0.39567 0.0
C168 C 0.88959 0.20448 0.39027 0.0
C169 C 0.87006 0.13969 0.39196 0.0
C170 C 0.89599 0.08126 0.34809 0.0
C171 C 0.97809 0.15859 0.34279 0.0
C172 C 0.89923 0.12349 0.31745 0.0
C173 C 0.92121 0.13657 0.30922 0.0
C174 C 0.93259 0.17181 0.30569 0.0
C175 C 0.92811 0.11199 0.30441 0.0
C176 C 0.95594 0.15685 0.29251 0.0
C177 C 0.94527 0.12197 0.29618 0.0
C178 C 0.94973 0.1818 0.29744 0.0
C179 C 0.91828 0.20762 0.33978 0.0
O180 O 0.84618 0.12822 0.3517 0.0
O181 O 0.83854 0.10761 0.33745 0.0
O182 O 0.91797 0.14449 0.36713 0.0
O183 O 0.90558 0.18678 0.36262 0.0
O184 O 0.91678 0.09966 0.35465 0.0
O185 O 0.87984 0.09762 0.34496 0.0
O186 O 0.95518 0.14357 0.33613 0.0
O187 O 0.96774 0.16906 0.34991 0.0
O188 O 0.88503 0.14275 0.3206 0.0
O189 O 0.91083 0.10989 0.32358 0.0
O190 O 0.89448 0.19005 0.33366 0.0
O191 O 0.93124 0.18784 0.34243 0.0
H192 H 0.87692 0.11275 0.38073 0.0
H193 H 0.91212 0.22847 0.37775 0.0
H194 H 0.89456 0.23072 0.39287 0.0
H195 H 0.8586 0.11464 0.39584 0.0
H196 H 0.92768 0.19145 0.30921 0.0
H197 H 0.91929 0.08452 0.30691 0.0
H198 H 0.94907 0.10178 0.29258 0.0
H199 H 0.95799 0.20908 0.29491 0.0
Gd200 Gd 0.86505 0.76286 0.35349 0.0
Gd201 Gd 0.8748 0.76362 0.33418 0.0
C202 C 0.90169 0.71592 0.34504 0.0
C203 C 0.84142 0.74407 0.36947 0.0
C204 C 0.84315 0.72852 0.37813 0.0
C205 C 0.87504 0.74551 0.38341 0.0
C206 C 0.81062 0.69924 0.38169 0.0
C207 C 0.84099 0.70574 0.39581 0.0
C208 C 0.80953 0.68796 0.39039 0.0
C209 C 0.87398 0.73422 0.39212 0.0
C210 C 0.9319 0.81757 0.34817 0.0
C211 C 0.85465 0.82251 0.34291 0.0
C212 C 0.88953 0.77822 0.3176 0.0
C213 C 0.87696 0.78727 0.30932 0.0
C214 C 0.8422 0.7632 0.30558 0.0
C215 C 0.90173 0.81909 0.30463 0.0
C216 C 0.8582 0.80181 0.29244 0.0
C217 C 0.8925 0.82632 0.29633 0.0
C218 C 0.83292 0.77044 0.29726 0.0
C219 C 0.80507 0.71353 0.33993 0.0
O220 O 0.88496 0.72089 0.35187 0.0
O221 O 0.90506 0.73337 0.33759 0.0
O222 O 0.86868 0.77661 0.36724 0.0
O223 O 0.82653 0.72179 0.36278 0.0
O224 O 0.91358 0.82004 0.35474 0.0
O225 O 0.91547 0.78502 0.34506 0.0
O226 O 0.86946 0.81442 0.33623 0.0
O227 O 0.84426 0.80179 0.35004 0.0
O228 O 0.86993 0.74481 0.32076 0.0
O229 O 0.9032 0.80346 0.32372 0.0
O230 O 0.8226 0.70727 0.33381 0.0
O231 O 0.82501 0.74624 0.3426 0.0
H232 H 0.90056 0.76831 0.3809 0.0
H233 H 0.78543 0.68601 0.37785 0.0
H234 H 0.78348 0.66629 0.39297 0.0
H235 H 0.89896 0.74823 0.39601 0.0
H236 H 0.82249 0.73828 0.30898 0.0
H237 H 0.92877 0.83805 0.30731 0.0
H238 H 0.91246 0.85109 0.29292 0.0
H239 H 0.80637 0.75075 0.29448 0.0
Gd240 Gd 0.89923 0.76685 0.83283 0.0
Gd241 Gd 0.90843 0.76436 0.85357 0.0
C242 C 0.9781 0.82239 0.84228 0.0
C243 C 0.89398 0.78577 0.81696 0.0
C244 C 0.91238 0.79211 0.80829 0.0
C245 C 0.92254 0.76738 0.80472 0.0
C246 C 0.91883 0.82311 0.80334 0.0
C247 C 0.94426 0.80417 0.79128 0.0
C248 C 0.93457 0.82911 0.79497 0.0
C249 C 0.93827 0.77334 0.79632 0.0
C250 C 0.9269 0.72128 0.83724 0.0
C251 C 0.82495 0.71889 0.84475 0.0
C252 C 0.91342 0.74414 0.86937 0.0
C253 C 0.89637 0.72766 0.87799 0.0
C254 C 0.88207 0.74438 0.88355 0.0
C255 C 0.89938 0.69778 0.88124 0.0
C256 C 0.87672 0.70329 0.89561 0.0
C257 C 0.88964 0.68571 0.8899 0.0
C258 C 0.87226 0.73226 0.89224 0.0
C259 C 0.89926 0.82016 0.84762 0.0
O260 O 0.95513 0.81658 0.8357 0.0
O261 O 0.96782 0.80057 0.84928 0.0
O262 O 0.87538 0.75161 0.81985 0.0
O263 O 0.91234 0.80983 0.82315 0.0
O264 O 0.91884 0.72581 0.82933 0.0
O265 O 0.91885 0.74051 0.84208 0.0
O266 O 0.84576 0.72789 0.85196 0.0
O267 O 0.8392 0.7309 0.83685 0.0
O268 O 0.91834 0.7768 0.86737 0.0
O269 O 0.90638 0.72257 0.86253 0.0
O270 O 0.91826 0.8222 0.85456 0.0
O271 O 0.88336 0.78754 0.84455 0.0
H272 H 0.91796 0.74322 0.80838 0.0
H273 H 0.91138 0.84267 0.80593 0.0
H274 H 0.93932 0.85352 0.7914 0.0
H275 H 0.94502 0.75332 0.79371 0.0
H276 H 0.87972 0.76774 0.88132 0.0
H277 H 0.91065 0.68456 0.87715 0.0
H278 H 0.89288 0.66292 0.89218 0.0
H279 H 0.86268 0.74672 0.89641 0.0
Gd280 Gd 0.24979 0.13841 0.83388 0.0
Gd281 Gd 0.25036 0.14892 0.85305 0.0
C282 C 0.19088 0.15899 0.84234 0.0
C283 C 0.23491 0.12286 0.81736 0.0
C284 C 0.22495 0.13519 0.80919 0.0
C285 C 0.24725 0.17088 0.80572 0.0
C286 C 0.19391 0.10961 0.8044 0.0
C287 C 0.2085 0.15436 0.79261 0.0
C288 C 0.18573 0.11904 0.79624 0.0
C289 C 0.23908 0.18036 0.79753 0.0
C290 C 0.29953 0.20857 0.83942 0.0
C291 C 0.29779 0.11231 0.84486 0.0
C292 C 0.26906 0.17373 0.86893 0.0
C293 C 0.2844 0.17273 0.87765 0.0
C294 C 0.26414 0.14381 0.88361 0.0
C295 C 0.31712 0.20383 0.88058 0.0
C296 C 0.30768 0.17833 0.89536 0.0
C297 C 0.32869 0.20655 0.8893 0.0
C298 C 0.27567 0.14656 0.89234 0.0
C299 C 0.19581 0.08156 0.8479 0.0
O300 O 0.19889 0.14373 0.83575 0.0
O301 O 0.2116 0.16969 0.84946 0.0
O302 O 0.26835 0.14324 0.82044 0.0
O303 O 0.20995 0.10866 0.82352 0.0
O304 O 0.30603 0.1908 0.8334 0.0
O305 O 0.26688 0.18861 0.84211 0.0
O306 O 0.29248 0.12904 0.85164 0.0
O307 O 0.28056 0.10881 0.83737 0.0
O308 O 0.2364 0.14649 0.86676 0.0
O309 O 0.29148 0.18785 0.86223 0.0
O310 O 0.19317 0.10034 0.85434 0.0
O311 O 0.22843 0.09793 0.84483 0.0
H312 H 0.27148 0.19125 0.80922 0.0
H313 H 0.1763 0.08189 0.8069 0.0
H314 H 0.16157 0.09849 0.79274 0.0
H315 H 0.25742 0.20772 0.79494 0.0
H316 H 0.23863 0.11954 0.88163 0.0
H317 H 0.333 0.22688 0.8762 0.0
H318 H 0.35326 0.2316 0.89137 0.0
H319 H 0.25908 0.124 0.89677 0.0
Gd320 Gd 0.87522 0.11512 0.83386 0.0
Gd321 Gd 0.86587 0.10537 0.85312 0.0
C322 C 0.85561 0.03593 0.84233 0.0
C323 C 0.88914 0.11522 0.81722 0.0
C324 C 0.87546 0.09321 0.80901 0.0
C325 C 0.84225 0.08632 0.80499 0.0
C326 C 0.89776 0.08182 0.80466 0.0
C327 C 0.85481 0.05844 0.79231 0.0
C328 C 0.88757 0.0646 0.79645 0.0
C329 C 0.83207 0.06915 0.79675 0.0
C330 C 0.80562 0.0952 0.8397 0.0
C331 C 0.9024 0.18934 0.84485 0.0
C332 C 0.84312 0.10001 0.86922 0.0
C333 C 0.84684 0.11685 0.87805 0.0
C334 C 0.86619 0.11039 0.88472 0.0
C335 C 0.82678 0.13453 0.8803 0.0
C336 C 0.84391 0.13713 0.89574 0.0
C337 C 0.82547 0.14467 0.88901 0.0
C338 C 0.86482 0.12042 0.89341 0.0
C339 C 0.93269 0.11795 0.84766 0.0
O340 O 0.87059 0.05925 0.83574 0.0
O341 O 0.84475 0.04576 0.84946 0.0
O342 O 0.87028 0.12966 0.82049 0.0
O343 O 0.90289 0.10344 0.82327 0.0
O344 O 0.82305 0.11928 0.83363 0.0
O345 O 0.82554 0.0823 0.8423 0.0
O346 O 0.88587 0.16739 0.85167 0.0
O347 O 0.90561 0.17551 0.83735 0.0
O348 O 0.86851 0.09233 0.86672 0.0
O349 O 0.82946 0.10984 0.86269 0.0
O350 O 0.91459 0.09696 0.85421 0.0
O351 O 0.91617 0.13417 0.84468 0.0
H352 H 0.8244 0.0948 0.80812 0.0
H353 H 0.92374 0.08716 0.80752 0.0
H354 H 0.90607 0.05724 0.79321 0.0
H355 H 0.8064 0.06443 0.79385 0.0
H356 H 0.88128 0.09613 0.8833 0.0
H357 H 0.81109 0.1395 0.87539 0.0
H358 H 0.80948 0.15794 0.89049 0.0
H359 H 0.87894 0.11355 0.89836 0.0
Gd360 Gd 0.76346 0.89555 0.68895 0.0
Gd361 Gd 0.76406 0.90584 0.66973 0.0
C362 C 0.82301 0.97496 0.68063 0.0
C363 C 0.7772 0.89517 0.70559 0.0
C364 C 0.78567 0.91719 0.71381 0.0
C365 C 0.75883 0.92257 0.71808 0.0
C366 C 0.82011 0.93005 0.71792 0.0
C367 C 0.8003 0.95192 0.73052 0.0
C368 C 0.82738 0.94726 0.72614 0.0
C369 C 0.76607 0.93973 0.72631 0.0
C370 C 0.71377 0.91557 0.68317 0.0
C371 C 0.71646 0.82168 0.67789 0.0
C372 C 0.74702 0.91156 0.65362 0.0
C373 C 0.73499 0.89522 0.64471 0.0
C374 C 0.76151 0.90496 0.63803 0.0
C375 C 0.69732 0.87455 0.64242 0.0
C376 C 0.71316 0.87569 0.62694 0.0
C377 C 0.68655 0.8647 0.63365 0.0
C378 C 0.75078 0.8953 0.6293 0.0
C379 C 0.81823 0.89303 0.67512 0.0
O380 O 0.81471 0.95141 0.68716 0.0
O381 O 0.8023 0.96538 0.6735 0.0
O382 O 0.74392 0.88093 0.70231 0.0
O383 O 0.80271 0.9068 0.69953 0.0
O384 O 0.70709 0.89128 0.68919 0.0
O385 O 0.74662 0.9286 0.68059 0.0
O386 O 0.722 0.84379 0.6711 0.0
O387 O 0.73345 0.83529 0.68541 0.0
O388 O 0.78028 0.92029 0.6562 0.0
O389 O 0.72307 0.90048 0.66007 0.0
O390 O 0.82114 0.91421 0.66861 0.0
O391 O 0.78549 0.87673 0.67809 0.0
H392 H 0.73191 0.9129 0.71514 0.0
H393 H 0.84119 0.92588 0.71488 0.0
H394 H 0.85387 0.95579 0.72919 0.0
H395 H 0.7447 0.94326 0.72941 0.0
H396 H 0.79076 0.92131 0.6395 0.0
H397 H 0.67608 0.86709 0.64734 0.0
H398 H 0.65732 0.84985 0.63209 0.0
H399 H 0.77209 0.90382 0.62435 0.0
Gd400 Gd 0.11482 0.87309 0.6886 0.0
Gd401 Gd 0.10593 0.86321 0.66932 0.0
C402 C 0.03558 0.85212 0.67988 0.0
C403 C 0.11434 0.88781 0.70517 0.0
C404 C 0.09183 0.8755 0.71334 0.0
C405 C 0.07901 0.84009 0.71693 0.0
C406 C 0.08588 0.90096 0.71804 0.0
C407 C 0.05637 0.85669 0.72998 0.0
C408 C 0.06836 0.89171 0.72623 0.0
C409 C 0.06144 0.83079 0.72514 0.0
C410 C 0.09554 0.80348 0.68293 0.0
C411 C 0.18937 0.89951 0.67784 0.0
C412 C 0.10135 0.83983 0.65331 0.0
C413 C 0.11876 0.84114 0.6447 0.0
C414 C 0.13534 0.87331 0.63952 0.0
C415 C 0.11409 0.80813 0.64108 0.0
C416 C 0.14 0.8387 0.62709 0.0
C417 C 0.12457 0.8069 0.63242 0.0
C418 C 0.14588 0.87212 0.63084 0.0
C419 C 0.11796 0.93009 0.67463 0.0
O420 O 0.05843 0.86706 0.68655 0.0
O421 O 0.04611 0.84208 0.67272 0.0
O422 O 0.12737 0.86739 0.7021 0.0
O423 O 0.10411 0.90241 0.69898 0.0
O424 O 0.11942 0.8212 0.68902 0.0
O425 O 0.08261 0.82321 0.68021 0.0
O426 O 0.16769 0.88276 0.67101 0.0
O427 O 0.17533 0.90309 0.68527 0.0
O428 O 0.0969 0.86763 0.65553 0.0
O429 O 0.10781 0.82433 0.66003 0.0
O430 O 0.09676 0.91147 0.66814 0.0
O431 O 0.13428 0.91379 0.6777 0.0
H432 H 0.0833 0.81981 0.71351 0.0
H433 H 0.09557 0.92849 0.71547 0.0
H434 H 0.06442 0.91221 0.72965 0.0
H435 H 0.0529 0.80366 0.72781 0.0
H436 H 0.13918 0.89921 0.64207 0.0
H437 H 0.10084 0.78274 0.64485 0.0
H438 H 0.11906 0.78052 0.6298 0.0
H439 H 0.1582 0.89735 0.62702 0.0
Gd440 Gd 0.13741 0.24474 0.69017 0.0
Gd441 Gd 0.14553 0.24777 0.66947 0.0
C442 C 0.15956 0.1893 0.67986 0.0
C443 C 0.11478 0.22487 0.70609 0.0
C444 C 0.12746 0.2187 0.71467 0.0
C445 C 0.16199 0.24425 0.71826 0.0
C446 C 0.10371 0.18706 0.71953 0.0
C447 C 0.14806 0.20703 0.73159 0.0
C448 C 0.11385 0.18124 0.72786 0.0
C449 C 0.17216 0.23847 0.72663 0.0
C450 C 0.20943 0.29294 0.68537 0.0
C451 C 0.11234 0.29532 0.67936 0.0
C452 C 0.16069 0.26651 0.65324 0.0
C453 C 0.16766 0.27636 0.64379 0.0
C454 C 0.13784 0.26311 0.6379 0.0
C455 C 0.20359 0.2998 0.64059 0.0
C456 C 0.17945 0.29726 0.62584 0.0
C457 C 0.20942 0.31011 0.63173 0.0
C458 C 0.14364 0.27335 0.62907 0.0
C459 C 0.08256 0.19078 0.67591 0.0
O460 O 0.14559 0.19644 0.68691 0.0
O461 O 0.16732 0.20928 0.67258 0.0
O462 O 0.12938 0.25908 0.70329 0.0
O463 O 0.10951 0.20122 0.69983 0.0
O464 O 0.19786 0.28686 0.69339 0.0
O465 O 0.18191 0.27376 0.68058 0.0
O466 O 0.12708 0.28984 0.67221 0.0
O467 O 0.11105 0.27908 0.68691 0.0
O468 O 0.12695 0.24668 0.65624 0.0
O469 O 0.18688 0.27609 0.65913 0.0
O470 O 0.09963 0.18875 0.669 0.0
O471 O 0.09866 0.22359 0.67887 0.0
H472 H 0.18093 0.26892 0.71467 0.0
H473 H 0.077 0.1669 0.7169 0.0
H474 H 0.09483 0.15637 0.73138 0.0
H475 H 0.19858 0.2591 0.72928 0.0
H476 H 0.10979 0.24488 0.64011 0.0
H477 H 0.22715 0.31061 0.64496 0.0
H478 H 0.23736 0.32881 0.62952 0.0
H479 H 0.11993 0.26228 0.62474 0.0
Gd480 Gd 0.77537 0.58175 0.50304 0.0
Gd481 Gd 0.78474 0.58115 0.52232 0.0
C482 C 0.85914 0.62881 0.51143 0.0
C483 C 0.77013 0.60055 0.48708 0.0
C484 C 0.78714 0.61642 0.47842 0.0
C485 C 0.8003 0.59867 0.47285 0.0
C486 C 0.78519 0.64686 0.47515 0.0
C487 C 0.80663 0.63991 0.46074 0.0
C488 C 0.79485 0.6585 0.46645 0.0
C489 C 0.81004 0.61035 0.46414 0.0
C490 C 0.78801 0.52739 0.5083 0.0
C491 C 0.7059 0.52134 0.51366 0.0
C492 C 0.78461 0.56676 0.53893 0.0
C493 C 0.76256 0.55837 0.54714 0.0
C494 C 0.75532 0.58451 0.55112 0.0
C495 C 0.75146 0.52479 0.55151 0.0
C496 C 0.72766 0.54413 0.56383 0.0
C497 C 0.73418 0.51771 0.55972 0.0
C498 C 0.73809 0.57746 0.55935 0.0
C499 C 0.76472 0.63093 0.5166 0.0
O500 O 0.8373 0.62386 0.50462 0.0
O501 O 0.84519 0.61126 0.51888 0.0
O502 O 0.76541 0.56817 0.48927 0.0
O503 O 0.77714 0.62261 0.49381 0.0
O504 O 0.76707 0.52475 0.50175 0.0
O505 O 0.80401 0.55991 0.51142 0.0
O506 O 0.72896 0.52986 0.52031 0.0
O507 O 0.71582 0.54198 0.50652 0.0
O508 O 0.79931 0.60017 0.53572 0.0
O509 O 0.7727 0.5414 0.53284 0.0
O510 O 0.78878 0.63743 0.52266 0.0
O511 O 0.75192 0.59818 0.51397 0.0
H512 H 0.80179 0.57485 0.4751 0.0
H513 H 0.7748 0.66089 0.47923 0.0
H514 H 0.79245 0.68175 0.46415 0.0
H515 H 0.8187 0.59512 0.45996 0.0
H516 H 0.76356 0.61074 0.54797 0.0
H517 H 0.75707 0.5043 0.54868 0.0
H518 H 0.72704 0.49195 0.56297 0.0
H519 H 0.7331 0.59828 0.56223 0.0
Gd520 Gd 0.4346 0.19619 0.50254 0.0
Gd521 Gd 0.43706 0.20842 0.52322 0.0
C522 C 0.38798 0.23309 0.51123 0.0
C523 C 0.41505 0.17096 0.48672 0.0
C524 C 0.39802 0.17118 0.47817 0.0
C525 C 0.41268 0.20296 0.47285 0.0
C526 C 0.3699 0.13762 0.47472 0.0
C527 C 0.3733 0.16682 0.4606 0.0
C528 C 0.35766 0.13545 0.46607 0.0
C529 C 0.40038 0.20082 0.46419 0.0
C530 C 0.4901 0.26158 0.50837 0.0
C531 C 0.49285 0.18523 0.51389 0.0
C532 C 0.45569 0.23296 0.53908 0.0
C533 C 0.46177 0.22092 0.54777 0.0
C534 C 0.43786 0.1854 0.55114 0.0
C535 C 0.49171 0.246 0.55293 0.0
C536 C 0.47332 0.20082 0.56479 0.0
C537 C 0.49746 0.23613 0.56131 0.0
C538 C 0.44356 0.17548 0.55954 0.0
C539 C 0.39172 0.13503 0.51893 0.0
O540 O 0.39656 0.22057 0.50409 0.0
O541 O 0.401 0.23215 0.5191 0.0
O542 O 0.44712 0.19957 0.48873 0.0
O543 O 0.39378 0.1555 0.49355 0.0
O544 O 0.49227 0.24433 0.50151 0.0
O545 O 0.45752 0.24485 0.51147 0.0
O546 O 0.48699 0.20257 0.52042 0.0
O547 O 0.471 0.17337 0.50691 0.0
O548 O 0.42159 0.21737 0.53614 0.0
O549 O 0.47987 0.23849 0.53293 0.0
O550 O 0.3962 0.14783 0.52682 0.0
O551 O 0.41083 0.16219 0.51406 0.0
H552 H 0.43463 0.22924 0.47525 0.0
H553 H 0.3583 0.1126 0.47861 0.0
H554 H 0.33632 0.10893 0.46363 0.0
H555 H 0.41331 0.22554 0.46019 0.0
H556 H 0.41454 0.1654 0.54731 0.0
H557 H 0.51064 0.2735 0.55048 0.0
H558 H 0.52107 0.25621 0.56503 0.0
H559 H 0.42417 0.14817 0.56199 0.0
Gd560 Gd 0.81928 0.24045 0.50296 0.0
Gd561 Gd 0.80976 0.23148 0.52227 0.0
C562 C 0.78305 0.15695 0.51144 0.0
C563 C 0.84266 0.24522 0.48696 0.0
C564 C 0.84114 0.22803 0.47829 0.0
C565 C 0.81037 0.21565 0.4727 0.0
C566 C 0.87312 0.22903 0.47503 0.0
C567 C 0.84468 0.2082 0.46062 0.0
C568 C 0.87486 0.2192 0.46634 0.0
C569 C 0.81208 0.20574 0.46399 0.0
C570 C 0.75232 0.22799 0.50831 0.0
C571 C 0.82986 0.31051 0.51356 0.0
C572 C 0.79519 0.23125 0.53887 0.0
C573 C 0.80716 0.2529 0.54716 0.0
C574 C 0.84309 0.26708 0.55056 0.0
C575 C 0.78092 0.25648 0.55217 0.0
C576 C 0.82549 0.28624 0.56404 0.0
C577 C 0.78992 0.27293 0.56047 0.0
C578 C 0.85215 0.28363 0.55889 0.0
C579 C 0.87934 0.25098 0.51644 0.0
O580 O 0.7997 0.17866 0.5046 0.0
O581 O 0.77965 0.17099 0.51889 0.0
O582 O 0.81525 0.25025 0.4892 0.0
O583 O 0.85782 0.23815 0.49365 0.0
O584 O 0.77065 0.24897 0.50177 0.0
O585 O 0.7689 0.212 0.51141 0.0
O586 O 0.81514 0.28764 0.52024 0.0
O587 O 0.84011 0.30015 0.50641 0.0
O588 O 0.81569 0.21849 0.53571 0.0
O589 O 0.78074 0.242 0.53276 0.0
O590 O 0.86182 0.22702 0.52253 0.0
O591 O 0.85945 0.2639 0.51383 0.0
H592 H 0.78539 0.21492 0.47493 0.0
H593 H 0.89744 0.23881 0.47913 0.0
H594 H 0.90022 0.22086 0.46406 0.0
H595 H 0.78834 0.1977 0.4598 0.0
H596 H 0.86396 0.26462 0.5469 0.0
H597 H 0.75299 0.24569 0.54974 0.0
H598 H 0.76881 0.27499 0.56413 0.0
H599 H 0.87974 0.29328 0.56141 0.0
Gd600 Gd 0.91445 0.439 0.68717 0.0
Gd601 Gd 0.91457 0.44741 0.66779 0.0
C602 C 0.96178 0.52227 0.67857 0.0
C603 C 0.93273 0.43446 0.70322 0.0
C604 C 0.94882 0.45181 0.71183 0.0
C605 C 0.93263 0.4675 0.71712 0.0
C606 C 0.97775 0.44785 0.71536 0.0
C607 C 0.97246 0.47261 0.72946 0.0
C608 C 0.98946 0.45813 0.72403 0.0
C609 C 0.94436 0.47783 0.72581 0.0
C610 C 0.85994 0.45084 0.68155 0.0
C611 C 0.85518 0.36864 0.67658 0.0
C612 C 0.90089 0.44697 0.65112 0.0
C613 C 0.89203 0.42509 0.64287 0.0
C614 C 0.91755 0.417 0.63886 0.0
C615 C 0.85889 0.4154 0.63844 0.0
C616 C 0.8776 0.39165 0.62599 0.0
C617 C 0.85172 0.39886 0.63015 0.0
C618 C 0.91037 0.40041 0.63054 0.0
C619 C 0.96441 0.42819 0.67393 0.0
O620 O 0.9566 0.50078 0.68546 0.0
O621 O 0.94457 0.50799 0.67111 0.0
O622 O 0.90069 0.43044 0.70095 0.0
O623 O 0.95475 0.4405 0.69654 0.0
O624 O 0.85719 0.43023 0.68819 0.0
O625 O 0.89262 0.46692 0.67851 0.0
O626 O 0.86372 0.39126 0.66983 0.0
O627 O 0.8754 0.37922 0.68379 0.0
O628 O 0.9341 0.46063 0.6544 0.0
O629 O 0.87537 0.43592 0.65717 0.0
O630 O 0.97109 0.4518 0.66774 0.0
O631 O 0.93151 0.41537 0.67643 0.0
H632 H 0.91011 0.47077 0.71465 0.0
H633 H 0.99036 0.43528 0.71151 0.0
H634 H 0.01079 0.45317 0.72658 0.0
H635 H 0.93095 0.48941 0.72971 0.0
H636 H 0.94354 0.42435 0.64203 0.0
H637 H 0.83879 0.42148 0.64132 0.0
H638 H 0.82591 0.39198 0.62695 0.0
H639 H 0.93114 0.39563 0.62756 0.0
Gd640 Gd 0.57247 0.48068 0.68634 0.0
Gd641 Gd 0.56313 0.47118 0.66708 0.0
C642 C 0.48849 0.44317 0.67799 0.0
C643 C 0.57754 0.5037 0.7024 0.0
C644 C 0.56154 0.49952 0.71134 0.0
C645 C 0.57338 0.485 0.71811 0.0
C646 C 0.53903 0.51459 0.71355 0.0
C647 C 0.5425 0.50257 0.72911 0.0
C648 C 0.52942 0.51586 0.72232 0.0
C649 C 0.56398 0.48644 0.72685 0.0
C650 C 0.5604 0.41392 0.68101 0.0
C651 C 0.64246 0.49186 0.67566 0.0
C652 C 0.56362 0.45736 0.65045 0.0
C653 C 0.58581 0.47115 0.64226 0.0
C654 C 0.59095 0.50328 0.63799 0.0
C655 C 0.59905 0.44986 0.63817 0.0
C656 C 0.62075 0.4916 0.62557 0.0
C657 C 0.61636 0.45997 0.62996 0.0
C658 C 0.60821 0.51337 0.62977 0.0
C659 C 0.58241 0.54073 0.6729 0.0
O660 O 0.51019 0.45935 0.68486 0.0
O661 O 0.50255 0.44067 0.67045 0.0
O662 O 0.58718 0.47976 0.69988 0.0
O663 O 0.56568 0.51567 0.69592 0.0
O664 O 0.58109 0.43216 0.68758 0.0
O665 O 0.54421 0.43028 0.67791 0.0
O666 O 0.61926 0.47634 0.66907 0.0
O667 O 0.63226 0.50277 0.68272 0.0
O668 O 0.54889 0.47602 0.65368 0.0
O669 O 0.57534 0.44371 0.65654 0.0
O670 O 0.55849 0.52313 0.66681 0.0
O671 O 0.59549 0.52098 0.6755 0.0
H672 H 0.59118 0.47367 0.7167 0.0
H673 H 0.52989 0.52661 0.70855 0.0
H674 H 0.51306 0.52873 0.72381 0.0
H675 H 0.57414 0.47545 0.73186 0.0
H676 H 0.58099 0.52032 0.64091 0.0
H677 H 0.59507 0.42469 0.64121 0.0
H678 H 0.62517 0.44222 0.62692 0.0
H679 H 0.61152 0.53818 0.62667 0.0
Gd680 Gd 0.52973 0.09602 0.68681 0.0
Gd681 Gd 0.53982 0.09702 0.66747 0.0
C682 C 0.56651 0.04922 0.6783 0.0
C683 C 0.50609 0.07702 0.70279 0.0
C684 C 0.50769 0.06134 0.71145 0.0
C685 C 0.53836 0.07991 0.71706 0.0
C686 C 0.47584 0.03016 0.71468 0.0
C687 C 0.5042 0.0379 0.72912 0.0
C688 C 0.47412 0.01854 0.72337 0.0
C689 C 0.53667 0.06826 0.72577 0.0
C690 C 0.59651 0.15086 0.68153 0.0
C691 C 0.51886 0.15532 0.6762 0.0
C692 C 0.55451 0.11214 0.6509 0.0
C693 C 0.54229 0.12253 0.64275 0.0
C694 C 0.50755 0.0992 0.63891 0.0
C695 C 0.5673 0.15493 0.63828 0.0
C696 C 0.52397 0.13973 0.6261 0.0
C697 C 0.55828 0.16347 0.63009 0.0
C698 C 0.49849 0.10774 0.63071 0.0
C699 C 0.4703 0.04664 0.67321 0.0
O700 O 0.54973 0.05414 0.68514 0.0
O701 O 0.56995 0.06668 0.67085 0.0
O702 O 0.53333 0.10961 0.70058 0.0
O703 O 0.49121 0.05485 0.69607 0.0
O704 O 0.57807 0.15326 0.68808 0.0
O705 O 0.58021 0.11834 0.67841 0.0
O706 O 0.53385 0.1474 0.66954 0.0
O707 O 0.50862 0.13467 0.68334 0.0
O708 O 0.53392 0.07872 0.65398 0.0
O709 O 0.56933 0.13694 0.65709 0.0
O710 O 0.48798 0.04041 0.66712 0.0
O711 O 0.49 0.07939 0.67586 0.0
H712 H 0.56323 0.10432 0.71485 0.0
H713 H 0.45159 0.01547 0.71057 0.0
H714 H 0.44887 0.99468 0.72563 0.0
H715 H 0.56032 0.0841 0.72998 0.0
H716 H 0.48764 0.07386 0.64213 0.0
H717 H 0.59433 0.17336 0.64103 0.0
H718 H 0.57842 0.18867 0.62686 0.0
H719 H 0.47194 0.0886 0.62784 0.0
Gd720 Gd 0.56867 0.09705 0.16738 0.0
Gd721 Gd 0.57768 0.09659 0.18666 0.0
C722 C 0.64784 0.15557 0.17606 0.0
C723 C 0.56945 0.11187 0.15077 0.0
C724 C 0.59227 0.1219 0.14265 0.0
C725 C 0.60067 0.09689 0.13848 0.0
C726 C 0.60284 0.15583 0.13851 0.0
C727 C 0.62823 0.139 0.12605 0.0
C728 C 0.62063 0.16432 0.13035 0.0
C729 C 0.61848 0.10537 0.13031 0.0
C730 C 0.58777 0.04671 0.17316 0.0
C731 C 0.49402 0.04954 0.17819 0.0
C732 C 0.58212 0.07855 0.20275 0.0
C733 C 0.56489 0.06541 0.21155 0.0
C734 C 0.57186 0.09118 0.21827 0.0
C735 C 0.54623 0.02758 0.21373 0.0
C736 C 0.54361 0.04186 0.22919 0.0
C737 C 0.5356 0.01596 0.22242 0.0
C738 C 0.56134 0.07961 0.22693 0.0
C739 C 0.56531 0.15111 0.18126 0.0
O740 O 0.6248 0.1478 0.16944 0.0
O741 O 0.63753 0.1346 0.18315 0.0
O742 O 0.5562 0.07847 0.1539 0.0
O743 O 0.57951 0.13679 0.15694 0.0
O744 O 0.56385 0.04048 0.16707 0.0
O745 O 0.60088 0.07946 0.17583 0.0
O746 O 0.51572 0.05476 0.18504 0.0
O747 O 0.50811 0.06674 0.17071 0.0
O748 O 0.59045 0.11184 0.20029 0.0
O749 O 0.57216 0.05519 0.1962 0.0
O750 O 0.58621 0.15379 0.18782 0.0
O751 O 0.54921 0.11849 0.17822 0.0
H752 H 0.59268 0.07033 0.14142 0.0
H753 H 0.59656 0.17559 0.1415 0.0
H754 H 0.62821 0.19073 0.12739 0.0
H755 H 0.6235 0.08498 0.1272 0.0
H756 H 0.58687 0.12058 0.2169 0.0
H757 H 0.54082 0.00692 0.20878 0.0
H758 H 0.52156 0.98663 0.22383 0.0
H759 H 0.56861 0.10054 0.23192 0.0
Gd760 Gd 0.91786 0.47217 0.16732 0.0
Gd761 Gd 0.91859 0.48188 0.18661 0.0
C762 C 0.85885 0.49207 0.17604 0.0
C763 C 0.90358 0.45802 0.1507 0.0
C764 C 0.89699 0.47235 0.14234 0.0
C765 C 0.92546 0.48904 0.13609 0.0
C766 C 0.86159 0.46604 0.14008 0.0
C767 C 0.88309 0.49157 0.12542 0.0
C768 C 0.85477 0.47563 0.13175 0.0
C769 C 0.91866 0.49863 0.12778 0.0
C770 C 0.96798 0.54184 0.17303 0.0
C771 C 0.96533 0.4451 0.17816 0.0
C772 C 0.93714 0.50532 0.20261 0.0
C773 C 0.95282 0.50374 0.21125 0.0
C774 C 0.93672 0.47152 0.21642 0.0
C775 C 0.98125 0.53659 0.21491 0.0
C776 C 0.97566 0.50579 0.22892 0.0
C777 C 0.99256 0.53763 0.2236 0.0
C778 C 0.94806 0.47253 0.22513 0.0
C779 C 0.86389 0.41501 0.18126 0.0
O780 O 0.86677 0.47698 0.1694 0.0
O781 O 0.87976 0.50276 0.18314 0.0
O782 O 0.93698 0.47509 0.15396 0.0
O783 O 0.87807 0.44619 0.15676 0.0
O784 O 0.97416 0.52432 0.1669 0.0
O785 O 0.93533 0.52199 0.17573 0.0
O786 O 0.96079 0.46228 0.18496 0.0
O787 O 0.94741 0.44129 0.17077 0.0
O788 O 0.90477 0.47779 0.20036 0.0
O789 O 0.95937 0.52053 0.19592 0.0
O790 O 0.86129 0.4334 0.18779 0.0
O791 O 0.89649 0.43142 0.17819 0.0
H792 H 0.95295 0.49394 0.13755 0.0
H793 H 0.83881 0.45276 0.14465 0.0
H794 H 0.82693 0.46935 0.13018 0.0
H795 H 0.94135 0.51135 0.12317 0.0
H796 H 0.91459 0.44575 0.21384 0.0
H797 H 0.99376 0.562 0.21115 0.0
H798 H 0.0135 0.56389 0.22626 0.0
H799 H 0.93475 0.44729 0.22894 0.0
Gd800 Gd 0.54246 0.44611 0.16756 0.0
Gd801 Gd 0.53269 0.43704 0.18676 0.0
C802 C 0.52171 0.36692 0.17619 0.0
C803 C 0.55683 0.44551 0.15099 0.0
C804 C 0.5433 0.42278 0.14288 0.0
C805 C 0.51126 0.41732 0.1385 0.0
C806 C 0.56465 0.40918 0.13899 0.0
C807 C 0.52314 0.38638 0.12638 0.0
C808 C 0.55468 0.39113 0.13087 0.0
C809 C 0.50132 0.39933 0.13036 0.0
C810 C 0.47277 0.42674 0.17323 0.0
C811 C 0.56946 0.5207 0.17833 0.0
C812 C 0.50991 0.43245 0.20282 0.0
C813 C 0.51391 0.44989 0.21158 0.0
C814 C 0.53274 0.44316 0.21833 0.0
C815 C 0.49463 0.4685 0.21369 0.0
C816 C 0.5114 0.47146 0.22915 0.0
C817 C 0.49353 0.47928 0.22235 0.0
C818 C 0.53159 0.45383 0.22696 0.0
C819 C 0.5997 0.44939 0.18147 0.0
O820 O 0.53719 0.39004 0.16959 0.0
O821 O 0.51089 0.37719 0.18325 0.0
O822 O 0.53769 0.4599 0.15412 0.0
O823 O 0.57073 0.43437 0.15715 0.0
O824 O 0.49057 0.45075 0.16717 0.0
O825 O 0.49244 0.41371 0.17592 0.0
O826 O 0.5524 0.49894 0.18514 0.0
O827 O 0.57311 0.50656 0.17093 0.0
O828 O 0.53508 0.42436 0.2004 0.0
O829 O 0.49642 0.44218 0.19625 0.0
O830 O 0.5813 0.42842 0.18799 0.0
O831 O 0.58329 0.46557 0.17841 0.0
H832 H 0.49419 0.42755 0.14126 0.0
H833 H 0.58975 0.41338 0.14213 0.0
H834 H 0.57246 0.38201 0.12799 0.0
H835 H 0.47659 0.39577 0.12717 0.0
H836 H 0.54723 0.4282 0.21701 0.0
H837 H 0.47937 0.47373 0.2087 0.0
H838 H 0.47811 0.49324 0.22372 0.0
H839 H 0.54525 0.44673 0.23199 0.0
Gd840 Gd 0.43675 0.22672 0.02392 0.0
Gd841 Gd 0.43115 0.23104 1.00332 0.0
C842 C 0.49156 0.3035 0.01342 0.0
C843 C 0.457 0.22355 0.03977 0.0
C844 C 0.46312 0.24271 0.04831 0.0
C845 C 0.4368 0.25047 0.05197 0.0
C846 C 0.49547 0.25226 0.05306 0.0
C847 C 0.47486 0.27615 0.06509 0.0
C848 C 0.50134 0.26882 0.06133 0.0
C849 C 0.44258 0.2669 0.06027 0.0
C850 C 0.3895 0.25257 0.01964 0.0
C851 C 0.38363 0.15096 0.01334 0.0
C852 C 0.41154 0.22739 0.98715 0.0
C853 C 0.40126 0.22435 0.97773 0.0
C854 C 0.41397 0.20733 0.97182 0.0
C855 C 0.37818 0.23732 0.97456 0.0
C856 C 0.38008 0.21539 0.9598 0.0
C857 C 0.36773 0.23292 0.9657 0.0
C858 C 0.4036 0.20297 0.963 0.0
C859 C 0.48863 0.22451 1.00928 0.0
O860 O 0.48553 0.2823 0.02039 0.0
O861 O 0.47038 0.29136 1.00632 0.0
O862 O 0.42277 0.20381 0.03699 0.0
O863 O 0.48056 0.24185 0.03348 0.0
O864 O 0.39817 0.24876 0.02755 0.0
O865 O 0.4065 0.24223 0.01462 0.0
O866 O 0.38853 0.17105 1.00621 0.0
O867 O 0.40078 0.16596 0.0208 0.0
O868 O 0.4306 0.21259 0.99012 0.0
O869 O 0.40306 0.24485 0.99306 0.0
O870 O 0.49 0.24361 1.00243 0.0
O871 O 0.4562 0.2082 0.01246 0.0
H872 H 0.41164 0.24362 0.04846 0.0
H873 H 0.51611 0.24643 0.05041 0.0
H874 H 0.5263 0.27511 0.06486 0.0
H875 H 0.42181 0.27256 0.0629 0.0
H876 H 0.43194 0.19715 0.97401 0.0
H877 H 0.36781 0.25044 0.97894 0.0
H878 H 0.34936 0.24259 0.96351 0.0
H879 H 0.41429 0.19 0.95867 0.0
Gd880 Gd 0.7856 0.20632 0.02344 0.0
Gd881 Gd 0.77484 0.19331 1.0028 0.0
C882 C 0.70647 0.18314 0.01435 0.0
C883 C 0.79213 0.23149 0.03925 0.0
C884 C 0.77397 0.21977 0.04794 0.0
C885 C 0.7591 0.18331 0.05102 0.0
C886 C 0.77216 0.24597 0.05336 0.0
C887 C 0.7418 0.19987 0.06491 0.0
C888 C 0.75629 0.2362 0.06172 0.0
C889 C 0.74321 0.17348 0.0594 0.0
C890 C 0.75654 0.13254 0.01929 0.0
C891 C 0.85887 0.2306 1.01129 0.0
C892 C 0.76898 0.16764 0.987 0.0
C893 C 0.78571 0.17193 0.97813 0.0
C894 C 0.7795 0.19184 0.97155 0.0
C895 C 0.8033 0.15192 0.97576 0.0
C896 C 0.80641 0.17022 0.96041 0.0
C897 C 0.81365 0.15121 0.96704 0.0
C898 C 0.78975 0.19107 0.96284 0.0
C899 C 0.78579 0.25931 1.00846 0.0
O900 O 0.73019 0.20121 0.02073 0.0
O901 O 0.71585 0.17021 1.00746 0.0
O902 O 0.81014 0.21533 0.03635 0.0
O903 O 0.77362 0.23713 0.03309 0.0
O904 O 0.76539 0.14572 0.02714 0.0
O905 O 0.76454 0.15954 0.01437 0.0
O906 O 0.83753 0.21861 1.00418 0.0
O907 O 0.84518 0.22929 0.01922 0.0
O908 O 0.75819 0.19097 0.98931 0.0
O909 O 0.78167 0.15713 0.9936 0.0
O910 O 0.76688 0.24237 1.00152 0.0
O911 O 0.80123 0.24227 0.0116 0.0
H912 H 0.76003 0.16247 0.04697 0.0
H913 H 0.78325 0.27421 0.05113 0.0
H914 H 0.75515 0.25717 0.06565 0.0
H915 H 0.73269 0.14533 0.06162 0.0
H916 H 0.76537 0.20699 0.97305 0.0
H917 H 0.80807 0.13582 0.98061 0.0
H918 H 0.82688 0.13526 0.96549 0.0
H919 H 0.78312 0.20565 0.95796 0.0
Gd920 Gd 0.8064 0.5769 0.02191 0.0
Gd921 Gd 0.81645 0.5773 1.0027 0.0
C922 C 0.82624 0.51755 0.01341 0.0
C923 C 0.79232 0.56312 0.03855 0.0
C924 C 0.8069 0.55679 0.04689 0.0
C925 C 0.81939 0.58378 0.05351 0.0
C926 C 0.80532 0.52295 0.04871 0.0
C927 C 0.82744 0.54305 0.06366 0.0
C928 C 0.81549 0.51621 0.05697 0.0
C929 C 0.82963 0.57709 0.06175 0.0
C930 C 0.8763 0.62683 0.01626 0.0
C931 C 0.7796 0.62429 1.011 0.0
C932 C 0.84011 0.59576 0.9867 0.0
C933 C 0.83847 0.61145 0.97805 0.0
C934 C 0.80693 0.594 0.97267 0.0
C935 C 0.87081 0.6414 0.9746 0.0
C936 C 0.841 0.63471 0.9604 0.0
C937 C 0.87207 0.65293 0.96592 0.0
C938 C 0.80818 0.60552 0.96397 0.0
C939 C 0.74949 0.52257 1.00795 0.0
O940 O 0.81113 0.52575 0.02 0.0
O941 O 0.83699 0.53821 1.00627 0.0
O942 O 0.80942 0.59644 0.03524 0.0
O943 O 0.78035 0.53747 0.03252 0.0
O944 O 0.85858 0.63322 0.0223 0.0
O945 O 0.85646 0.59414 0.01359 0.0
O946 O 0.79681 0.61957 1.00423 0.0
O947 O 0.77563 0.60646 0.01842 0.0
O948 O 0.81263 0.56338 0.98895 0.0
O949 O 0.85526 0.61798 0.99339 0.0
O950 O 0.76821 0.51998 1.00149 0.0
O951 O 0.76564 0.55521 1.01101 0.0
H952 H 0.82036 0.60989 0.0524 0.0
H953 H 0.7956 0.50136 0.0438 0.0
H954 H 0.81384 0.48983 0.05814 0.0
H955 H 0.83814 0.59826 0.06674 0.0
H956 H 0.78157 0.57067 0.97507 0.0
H957 H 0.89575 0.65502 0.97853 0.0
H958 H 0.898 0.67517 0.96344 0.0
H959 H 0.78349 0.59114 0.95999 0.0
Gd960 Gd 0.44127 0.91477 0.83643 0.0
Gd961 Gd 0.45027 0.91409 0.85571 0.0
C962 C 0.52479 0.96162 0.84488 0.0
C963 C 0.4364 0.93344 0.82043 0.0
C964 C 0.45343 0.94911 0.81177 0.0
C965 C 0.46917 0.93284 0.80652 0.0
C966 C 0.44915 0.97771 0.80816 0.0
C967 C 0.47374 0.97198 0.79407 0.0
C968 C 0.45918 0.98903 0.79946 0.0
C969 C 0.47925 0.94419 0.7978 0.0
C970 C 0.45354 0.86005 0.84172 0.0
C971 C 0.37122 0.85531 0.847 0.0
C972 C 0.44978 0.89966 0.87234 0.0
C973 C 0.42801 0.89177 0.88061 0.0
C974 C 0.42716 0.92017 0.8854 0.0
C975 C 0.41108 0.85609 0.88428 0.0
C976 C 0.39418 0.87762 0.89746 0.0
C977 C 0.3943 0.84908 0.89256 0.0
C978 C 0.41044 0.91317 0.89369 0.0
C979 C 0.43082 0.96429 0.84994 0.0
O980 O 0.50304 0.95694 0.83807 0.0
O981 O 0.51075 0.94387 0.8523 0.0
O982 O 0.43152 0.90105 0.82266 0.0
O983 O 0.44352 0.95566 0.82713 0.0
O984 O 0.43256 0.85756 0.8352 0.0
O985 O 0.46962 0.89259 0.84485 0.0
O986 O 0.39421 0.86324 0.85365 0.0
O987 O 0.38154 0.87606 0.83988 0.0
O988 O 0.46509 0.93309 0.86911 0.0
O989 O 0.43741 0.87427 0.86625 0.0
O990 O 0.45469 0.97058 0.85604 0.0
O991 O 0.4179 0.93153 0.84731 0.0
H992 H 0.47269 0.91056 0.80905 0.0
H993 H 0.43654 0.99037 0.81198 0.0
H994 H 0.45397 0.01013 0.79686 0.0
H995 H 0.49091 0.93075 0.79394 0.0
H996 H 0.44013 0.94808 0.88284 0.0
H997 H 0.41172 0.8337 0.88086 0.0
H998 H 0.38256 0.82147 0.89525 0.0
H999 H 0.41049 0.93578 0.89718 0.0
Gd1000 Gd 0.09903 0.53047 0.83649 0.0
Gd1001 Gd 0.09915 0.54005 0.8558 0.0
C1002 C 0.05249 0.56796 0.84485 0.0
C1003 C 0.0799 0.50636 0.82056 0.0
C1004 C 0.06411 0.50778 0.81191 0.0
C1005 C 0.0824 0.53849 0.80629 0.0
C1006 C 0.03306 0.47578 0.80869 0.0
C1007 C 0.04038 0.50407 0.79426 0.0
C1008 C 0.0213 0.47395 0.80001 0.0
C1009 C 0.0706 0.53669 0.7976 0.0
C1010 C 0.1536 0.5971 0.84184 0.0
C1011 C 0.15899 0.52081 0.84717 0.0
C1012 C 0.11329 0.55413 0.87242 0.0
C1013 C 0.12246 0.54116 0.88063 0.0
C1014 C 0.09826 0.50635 0.88432 0.0
C1015 C 0.15457 0.56553 0.88528 0.0
C1016 C 0.13738 0.52148 0.89735 0.0
C1017 C 0.16199 0.55584 0.89351 0.0
C1018 C 0.10568 0.49662 0.89257 0.0
C1019 C 0.04936 0.47043 0.84996 0.0
O1020 O 0.05814 0.55186 0.83798 0.0
O1021 O 0.06883 0.5703 0.85241 0.0
O1022 O 0.11254 0.53364 0.82273 0.0
O1023 O 0.05778 0.49169 0.82729 0.0
O1024 O 0.15619 0.57887 0.83526 0.0
O1025 O 0.121 0.58074 0.84493 0.0
O1026 O 0.15028 0.5351 0.85384 0.0
O1027 O 0.13862 0.51049 0.83998 0.0
O1028 O 0.07999 0.53439 0.86921 0.0
O1029 O 0.13861 0.56847 0.86633 0.0
O1030 O 0.04273 0.4879 0.85602 0.0
O1031 O 0.0822 0.4904 0.84738 0.0
H1032 H 0.10669 0.56349 0.8085 0.0
H1033 H 0.01859 0.45151 0.8128 0.0
H1034 H 0.99755 0.44857 0.79776 0.0
H1035 H 0.08622 0.56037 0.79339 0.0
H1036 H 0.07312 0.48694 0.88095 0.0
H1037 H 0.17364 0.59259 0.88263 0.0
H1038 H 0.18699 0.57549 0.89689 0.0
H1039 H 0.08591 0.47005 0.89532 0.0
Gd1040 Gd 0.484 0.57376 0.83587 0.0
Gd1041 Gd 0.47204 0.56406 0.8565 0.0
C1042 C 0.44663 0.4901 0.84452 0.0
C1043 C 0.50896 0.57898 0.82002 0.0
C1044 C 0.50389 0.56287 0.81105 0.0
C1045 C 0.48818 0.57399 0.8044 0.0
C1046 C 0.51929 0.54079 0.80871 0.0
C1047 C 0.5052 0.54319 0.79325 0.0
C1048 C 0.51972 0.53089 0.79993 0.0
C1049 C 0.48876 0.56425 0.79565 0.0
C1050 C 0.41822 0.56331 0.84161 0.0
C1051 C 0.49566 0.64293 0.84727 0.0
C1052 C 0.44755 0.5581 0.87236 0.0
C1053 C 0.45955 0.57618 0.88106 0.0
C1054 C 0.49539 0.58872 0.88433 0.0
C1055 C 0.43412 0.58009 0.88631 0.0
C1056 C 0.47965 0.60782 0.89808 0.0
C1057 C 0.44399 0.59571 0.89469 0.0
C1058 C 0.50531 0.60434 0.89274 0.0
C1059 C 0.54564 0.59255 0.85224 0.0
O1060 O 0.45834 0.51111 0.83735 0.0
O1061 O 0.44852 0.50423 0.85243 0.0
O1062 O 0.48713 0.59147 0.82244 0.0
O1063 O 0.51824 0.56472 0.82652 0.0
O1064 O 0.43496 0.58181 0.83462 0.0
O1065 O 0.43528 0.54796 0.84479 0.0
O1066 O 0.4774 0.61953 0.85369 0.0
O1067 O 0.50828 0.63298 0.84043 0.0
O1068 O 0.46321 0.53968 0.86942 0.0
O1069 O 0.44202 0.57677 0.86623 0.0
O1070 O 0.53268 0.58422 0.86011 0.0
O1071 O 0.51852 0.58429 0.84732 0.0
H1072 H 0.47653 0.59142 0.8059 0.0
H1073 H 0.53223 0.53225 0.81361 0.0
H1074 H 0.5329 0.51491 0.79834 0.0
H1075 H 0.47684 0.57382 0.79072 0.0
H1076 H 0.51565 0.58613 0.88043 0.0
H1077 H 0.40637 0.5708 0.88394 0.0
H1078 H 0.42363 0.59849 0.89849 0.0
H1079 H 0.53291 0.61301 0.89511 0.0
Gd1080 Gd 0.58417 0.76967 0.02006 0.0
Gd1081 Gd 0.58341 0.77884 1.00072 0.0
C1082 C 0.63026 0.85357 0.01162 0.0
C1083 C 0.60371 0.76506 0.03598 0.0
C1084 C 0.61921 0.78228 0.04464 0.0
C1085 C 0.60245 0.79753 0.04988 0.0
C1086 C 0.64826 0.77874 0.04823 0.0
C1087 C 0.64205 0.80307 0.06231 0.0
C1088 C 0.65957 0.789 0.05692 0.0
C1089 C 0.61378 0.80785 0.05859 0.0
C1090 C 0.52922 0.78128 0.01477 0.0
C1091 C 0.52473 0.69955 1.00947 0.0
C1092 C 0.56834 0.7782 0.98413 0.0
C1093 C 0.55798 0.75547 0.976 0.0
C1094 C 0.58183 0.74496 0.97205 0.0
C1095 C 0.52506 0.74711 0.97164 0.0
C1096 C 0.54072 0.71979 0.95937 0.0
C1097 C 0.51649 0.72947 0.96346 0.0
C1098 C 0.57326 0.72728 0.96386 0.0
C1099 C 0.63369 0.75956 1.00649 0.0
O1100 O 0.62467 0.83195 0.01851 0.0
O1101 O 0.61398 0.8395 1.00405 0.0
O1102 O 0.57082 0.75906 0.03382 0.0
O1103 O 0.62593 0.77306 0.02925 0.0
O1104 O 0.52688 0.76057 0.02135 0.0
O1105 O 0.56175 0.7976 0.01164 0.0
O1106 O 0.53283 0.72243 1.00279 0.0
O1107 O 0.54535 0.70994 0.01661 0.0
O1108 O 0.60175 0.7911 0.98722 0.0
O1109 O 0.54353 0.76833 0.99032 0.0
O1110 O 0.63999 0.7835 1.0004 0.0
O1111 O 0.60092 0.7466 1.00912 0.0
H1112 H 0.57983 0.80049 0.04735 0.0
H1113 H 0.66131 0.76652 0.04441 0.0
H1114 H 0.68105 0.78436 0.05952 0.0
H1115 H 0.59997 0.81911 0.06245 0.0
H1116 H 0.60758 0.75117 0.97518 0.0
H1117 H 0.50622 0.75503 0.97447 0.0
H1118 H 0.49088 0.72364 0.96032 0.0
H1119 H 0.59279 0.7206 0.96092 0.0
Gd1120 Gd 0.24082 0.8101 0.02049 0.0
Gd1121 Gd 0.23232 0.80168 1.00112 0.0
C1122 C 0.15749 0.77384 0.01191 0.0
C1123 C 0.24542 0.83307 0.03652 0.0
C1124 C 0.22816 0.83205 0.04513 0.0
C1125 C 0.21585 0.80163 0.05084 0.0
C1126 C 0.22912 0.8642 0.04825 0.0
C1127 C 0.20846 0.83664 0.06275 0.0
C1128 C 0.21934 0.86646 0.05691 0.0
C1129 C 0.206 0.80386 0.05951 0.0
C1130 C 0.22934 0.74385 0.01493 0.0
C1131 C 0.31124 0.82152 1.00988 0.0
C1132 C 0.23295 0.78859 0.98445 0.0
C1133 C 0.25507 0.80198 0.97624 0.0
C1134 C 0.2656 0.83693 0.97265 0.0
C1135 C 0.26278 0.77785 0.97147 0.0
C1136 C 0.28969 0.82255 0.95951 0.0
C1137 C 0.27989 0.78797 0.96324 0.0
C1138 C 0.28269 0.84707 0.9644 0.0
C1139 C 0.25133 0.87064 1.00729 0.0
O1140 O 0.179 0.79028 0.01879 0.0
O1141 O 0.17177 0.77089 1.00445 0.0
O1142 O 0.2494 0.80501 0.03428 0.0
O1143 O 0.23942 0.849 0.02982 0.0
O1144 O 0.25001 0.76193 0.02154 0.0
O1145 O 0.21304 0.76023 0.01187 0.0
O1146 O 0.28857 0.80725 1.00315 0.0
O1147 O 0.30062 0.83112 0.01709 0.0
O1148 O 0.21909 0.80796 0.98773 0.0
O1149 O 0.24405 0.77416 0.99049 0.0
O1150 O 0.2277 0.85373 1.0011 0.0
O1151 O 0.26426 0.85064 1.00976 0.0
H1152 H 0.21517 0.77654 0.04871 0.0
H1153 H 0.23886 0.88827 0.04407 0.0
H1154 H 0.22101 0.89194 0.05909 0.0
H1155 H 0.19806 0.78041 0.0638 0.0
H1156 H 0.26002 0.85623 0.97612 0.0
H1157 H 0.25459 0.75057 0.974 0.0
H1158 H 0.28429 0.76808 0.95967 0.0
H1159 H 0.29027 0.87412 0.96183 0.0
Gd1160 Gd 0.19963 0.42477 0.01965 0.0
Gd1161 Gd 0.2103 0.428 1.00037 0.0
C1162 C 0.238 0.38032 1.01083 0.0
C1163 C 0.17594 0.40509 0.03561 0.0
C1164 C 0.17713 0.38924 0.04427 0.0
C1165 C 0.20772 0.40758 0.04992 0.0
C1166 C 0.14499 0.35834 0.04749 0.0
C1167 C 0.17289 0.36602 0.06199 0.0
C1168 C 0.14291 0.34683 0.05621 0.0
C1169 C 0.20566 0.39605 0.05865 0.0
C1170 C 0.26668 0.48042 0.01466 0.0
C1171 C 0.18962 0.48567 1.00945 0.0
C1172 C 0.22539 0.44398 0.98386 0.0
C1173 C 0.21242 0.45243 0.97557 0.0
C1174 C 0.17712 0.42868 0.97205 0.0
C1175 C 0.23722 0.48364 0.97071 0.0
C1176 C 0.19259 0.46646 0.95878 0.0
C1177 C 0.22748 0.49061 0.96245 0.0
C1178 C 0.16731 0.43568 0.96376 0.0
C1179 C 0.14029 0.37715 1.00589 0.0
O1180 O 0.21798 0.38161 0.01745 0.0
O1181 O 0.24357 0.40088 1.00381 0.0
O1182 O 0.20338 0.43762 0.03345 0.0
O1183 O 0.16101 0.38319 0.02886 0.0
O1184 O 0.24805 0.48195 0.02127 0.0
O1185 O 0.25047 0.4483 1.01135 0.0
O1186 O 0.20512 0.47861 1.00275 0.0
O1187 O 0.17869 0.46394 0.01642 0.0
O1188 O 0.20723 0.41021 0.9869 0.0
O1189 O 0.23731 0.46891 0.99005 0.0
O1190 O 0.15817 0.3714 0.99976 0.0
O1191 O 0.1601 0.40958 1.00872 0.0
H1192 H 0.23281 0.43178 0.04772 0.0
H1193 H 0.1208 0.34385 0.04336 0.0
H1194 H 0.11743 0.32322 0.05846 0.0
H1195 H 0.22925 0.41176 0.06288 0.0
H1196 H 0.15738 0.40428 0.97561 0.0
H1197 H 0.26462 0.50236 0.97324 0.0
H1198 H 0.24746 0.51494 0.95891 0.0
H1199 H 0.14029 0.41631 0.96115 0.0
Gd1200 Gd 0.23473 0.431 0.50013 0.0
Gd1201 Gd 0.24437 0.43022 0.51933 0.0
C1202 C 0.31403 0.48998 0.50871 0.0
C1203 C 0.23479 0.446 0.48358 0.0
C1204 C 0.25743 0.45567 0.47544 0.0
C1205 C 0.26204 0.42909 0.4708 0.0
C1206 C 0.27173 0.49112 0.47178 0.0
C1207 C 0.29342 0.47288 0.45887 0.0
C1208 C 0.28956 0.49966 0.46363 0.0
C1209 C 0.27987 0.43763 0.46264 0.0
C1210 C 0.25482 0.3811 0.50571 0.0
C1211 C 0.1604 0.38328 0.51107 0.0
C1212 C 0.25016 0.41117 0.5352 0.0
C1213 C 0.23355 0.3954 0.54387 0.0
C1214 C 0.22425 0.41517 0.54983 0.0
C1215 C 0.23226 0.3628 0.54676 0.0
C1216 C 0.21527 0.37138 0.56152 0.0
C1217 C 0.22312 0.35086 0.55545 0.0
C1218 C 0.21517 0.40327 0.55853 0.0
C1219 C 0.23201 0.48497 0.51416 0.0
O1220 O 0.29088 0.48195 0.50209 0.0
O1221 O 0.30395 0.46916 0.51581 0.0
O1222 O 0.22099 0.41249 0.48668 0.0
O1223 O 0.24558 0.47093 0.48976 0.0
O1224 O 0.23068 0.37467 0.49967 0.0
O1225 O 0.26759 0.41376 0.5084 0.0
O1226 O 0.18234 0.38836 0.51786 0.0
O1227 O 0.17427 0.40056 0.50359 0.0
O1228 O 0.2553 0.44377 0.53307 0.0
O1229 O 0.24235 0.38902 0.52846 0.0
O1230 O 0.25319 0.48745 0.52065 0.0
O1231 O 0.21566 0.45239 0.51107 0.0
H1232 H 0.25106 0.40135 0.47336 0.0
H1233 H 0.2684 0.51214 0.47513 0.0
H1234 H 0.3001 0.52727 0.46103 0.0
H1235 H 0.28194 0.41614 0.45916 0.0
H1236 H 0.22521 0.44057 0.54788 0.0
H1237 H 0.23992 0.34731 0.54239 0.0
H1238 H 0.22389 0.32642 0.5575 0.0
H1239 H 0.20871 0.41948 0.56297 0.0
Gd1240 Gd 0.58513 0.80665 0.50069 0.0
Gd1241 Gd 0.58457 0.81565 0.51994 0.0
C1242 C 0.52629 0.82719 0.50913 0.0
C1243 C 0.57179 0.79309 0.48402 0.0
C1244 C 0.56488 0.80742 0.47571 0.0
C1245 C 0.59156 0.81996 0.46902 0.0
C1246 C 0.53082 0.80552 0.474 0.0
C1247 C 0.55005 0.82738 0.459 0.0
C1248 C 0.52354 0.8154 0.46576 0.0
C1249 C 0.58433 0.82992 0.4608 0.0
C1250 C 0.63524 0.87605 0.50658 0.0
C1251 C 0.63165 0.77884 0.51167 0.0
C1252 C 0.60137 0.83788 0.53608 0.0
C1253 C 0.61299 0.83365 0.54504 0.0
C1254 C 0.58668 0.82031 0.55182 0.0
C1255 C 0.65041 0.8474 0.54723 0.0
C1256 C 0.6349 0.83644 0.56281 0.0
C1257 C 0.66118 0.84854 0.556 0.0
C1258 C 0.59743 0.82163 0.56056 0.0
C1259 C 0.53011 0.74895 0.5144 0.0
O1260 O 0.53408 0.81165 0.50257 0.0
O1261 O 0.54722 0.83804 0.51622 0.0
O1262 O 0.60505 0.81095 0.48734 0.0
O1263 O 0.54606 0.78023 0.49003 0.0
O1264 O 0.64166 0.85854 0.50049 0.0
O1265 O 0.60239 0.85632 0.50916 0.0
O1266 O 0.62647 0.79554 0.51848 0.0
O1267 O 0.6145 0.77565 0.50418 0.0
O1268 O 0.56808 0.81359 0.53346 0.0
O1269 O 0.62552 0.85056 0.52967 0.0
O1270 O 0.52726 0.76701 0.52096 0.0
O1271 O 0.56287 0.76543 0.51145 0.0
H1272 H 0.61782 0.82117 0.47006 0.0
H1273 H 0.50947 0.79577 0.47897 0.0
H1274 H 0.497 0.8135 0.46467 0.0
H1275 H 0.60527 0.83846 0.45576 0.0
H1276 H 0.5577 0.81 0.55042 0.0
H1277 H 0.67154 0.85845 0.54221 0.0
H1278 H 0.69031 0.86037 0.55748 0.0
H1279 H 0.57632 0.81156 0.56559 0.0
Gd1280 Gd 0.20968 0.78137 0.50063 0.0
Gd1281 Gd 0.20064 0.77243 0.51995 0.0
C1282 C 0.18998 0.70233 0.50935 0.0
C1283 C 0.22337 0.78075 0.48399 0.0
C1284 C 0.20945 0.75876 0.47577 0.0
C1285 C 0.17773 0.75444 0.47145 0.0
C1286 C 0.23031 0.74499 0.47169 0.0
C1287 C 0.189 0.7244 0.45901 0.0
C1288 C 0.2202 0.72796 0.46345 0.0
C1289 C 0.16764 0.73747 0.46319 0.0
C1290 C 0.14025 0.76202 0.50649 0.0
C1291 C 0.238 0.85619 0.5115 0.0
C1292 C 0.17725 0.76785 0.53595 0.0
C1293 C 0.17853 0.78496 0.54461 0.0
C1294 C 0.20868 0.79627 0.55036 0.0
C1295 C 0.14679 0.78488 0.54772 0.0
C1296 C 0.17418 0.80453 0.56227 0.0
C1297 C 0.14465 0.79459 0.5564 0.0
C1298 C 0.20658 0.80605 0.55906 0.0
C1299 C 0.26711 0.78417 0.51444 0.0
O1300 O 0.20436 0.72516 0.50265 0.0
O1301 O 0.18001 0.71271 0.51654 0.0
O1302 O 0.20503 0.79581 0.48723 0.0
O1303 O 0.23673 0.76868 0.49007 0.0
O1304 O 0.15764 0.78574 0.50035 0.0
O1305 O 0.16016 0.74917 0.50913 0.0
O1306 O 0.22184 0.83461 0.51839 0.0
O1307 O 0.24037 0.84201 0.50396 0.0
O1308 O 0.20472 0.76287 0.53373 0.0
O1309 O 0.1621 0.77483 0.52924 0.0
O1310 O 0.24897 0.76333 0.52102 0.0
O1311 O 0.25072 0.80048 0.51143 0.0
H1312 H 0.16104 0.76485 0.47435 0.0
H1313 H 0.25518 0.74833 0.47477 0.0
H1314 H 0.23765 0.71873 0.46043 0.0
H1315 H 0.14316 0.73481 0.46005 0.0
H1316 H 0.23344 0.79624 0.54825 0.0
H1317 H 0.12291 0.77592 0.54351 0.0
H1318 H 0.11948 0.79366 0.55855 0.0
H1319 H 0.2298 0.81324 0.56337 0.0
Gd1320 Gd 0.09954 0.5629 0.35547 0.0
Gd1321 Gd 0.09875 0.57187 0.33621 0.0
C1322 C 0.15816 0.642 0.34677 0.0
C1323 C 0.1143 0.56323 0.37206 0.0
C1324 C 0.12273 0.58514 0.38029 0.0
C1325 C 0.09679 0.59273 0.38426 0.0
C1326 C 0.15609 0.59569 0.38471 0.0
C1327 C 0.1369 0.61959 0.39704 0.0
C1328 C 0.16314 0.61274 0.39295 0.0
C1329 C 0.1038 0.60973 0.39251 0.0
C1330 C 0.04938 0.58247 0.34979 0.0
C1331 C 0.05167 0.48841 0.34467 0.0
C1332 C 0.08017 0.57661 0.3202 0.0
C1333 C 0.06449 0.55939 0.31154 0.0
C1334 C 0.08321 0.54756 0.30589 0.0
C1335 C 0.03317 0.55986 0.30833 0.0
C1336 C 0.04105 0.53962 0.29387 0.0
C1337 C 0.02155 0.55005 0.29964 0.0
C1338 C 0.07155 0.53768 0.29719 0.0
C1339 C 0.15347 0.55957 0.34152 0.0
O1340 O 0.1503 0.61903 0.35341 0.0
O1341 O 0.13738 0.63164 0.33965 0.0
O1342 O 0.08082 0.5484 0.36888 0.0
O1343 O 0.13957 0.57529 0.36594 0.0
O1344 O 0.04317 0.55863 0.35589 0.0
O1345 O 0.08203 0.59529 0.34708 0.0
O1346 O 0.05641 0.51015 0.33786 0.0
O1347 O 0.06948 0.50244 0.35208 0.0
O1348 O 0.1126 0.58165 0.32245 0.0
O1349 O 0.05794 0.56956 0.32689 0.0
O1350 O 0.15606 0.58069 0.33502 0.0
O1351 O 0.12086 0.54339 0.3446 0.0
H1352 H 0.07072 0.58491 0.38107 0.0
H1353 H 0.17642 0.58981 0.38189 0.0
H1354 H 0.18872 0.61943 0.39624 0.0
H1355 H 0.08314 0.61499 0.39537 0.0
H1356 H 0.10773 0.54725 0.30809 0.0
H1357 H 0.01837 0.56921 0.31247 0.0
H1358 H 0.99759 0.5513 0.2974 0.0
H1359 H 0.0875 0.5301 0.29295 0.0
Gd1360 Gd 0.44982 0.542 0.35645 0.0
Gd1361 Gd 0.43997 0.52903 0.33583 0.0
C1362 C 0.37085 0.51798 0.34719 0.0
C1363 C 0.45641 0.56767 0.37219 0.0
C1364 C 0.43853 0.55587 0.38089 0.0
C1365 C 0.4206 0.51866 0.38355 0.0
C1366 C 0.43995 0.58257 0.38669 0.0
C1367 C 0.4066 0.53535 0.39783 0.0
C1368 C 0.42419 0.5725 0.39504 0.0
C1369 C 0.40482 0.50852 0.39193 0.0
C1370 C 0.42126 0.46829 0.35238 0.0
C1371 C 0.5236 0.5664 0.34451 0.0
C1372 C 0.43478 0.50345 0.32006 0.0
C1373 C 0.45193 0.50788 0.31124 0.0
C1374 C 0.4462 0.52803 0.30465 0.0
C1375 C 0.46944 0.48773 0.30895 0.0
C1376 C 0.4733 0.50626 0.2936 0.0
C1377 C 0.48012 0.48705 0.30026 0.0
C1378 C 0.45678 0.5273 0.29597 0.0
C1379 C 0.45061 0.59503 0.34145 0.0
O1380 O 0.39425 0.53639 0.3536 0.0
O1381 O 0.38077 0.50524 0.34037 0.0
O1382 O 0.47472 0.55179 0.36932 0.0
O1383 O 0.43736 0.5726 0.36605 0.0
O1384 O 0.42969 0.48152 0.36024 0.0
O1385 O 0.42942 0.49519 0.34741 0.0
O1386 O 0.50261 0.55441 0.33734 0.0
O1387 O 0.5095 0.56503 0.35238 0.0
O1388 O 0.42376 0.52667 0.32231 0.0
O1389 O 0.44732 0.49301 0.32671 0.0
O1390 O 0.43185 0.57804 0.33449 0.0
O1391 O 0.46593 0.57797 0.34463 0.0
H1392 H 0.41905 0.49749 0.37918 0.0
H1393 H 0.45345 0.61141 0.38476 0.0
H1394 H 0.42556 0.59388 0.3993 0.0
H1395 H 0.39182 0.47972 0.39384 0.0
H1396 H 0.43215 0.5433 0.3061 0.0
H1397 H 0.47386 0.47145 0.31381 0.0
H1398 H 0.49324 0.47096 0.29875 0.0
H1399 H 0.4505 0.54203 0.29106 0.0
Gd1400 Gd 0.47394 0.91365 0.35549 0.0
Gd1401 Gd 0.48346 0.91361 0.33625 0.0
C1402 C 0.49351 0.85418 0.34699 0.0
C1403 C 0.46018 0.90008 0.37215 0.0
C1404 C 0.47484 0.89383 0.38049 0.0
C1405 C 0.49151 0.92244 0.3867 0.0
C1406 C 0.46897 0.8586 0.38277 0.0
C1407 C 0.49491 0.88058 0.39737 0.0
C1408 C 0.47898 0.85211 0.39108 0.0
C1409 C 0.50152 0.91597 0.39499 0.0
C1410 C 0.54362 0.96354 0.34972 0.0
C1411 C 0.44665 0.96066 0.34456 0.0
C1412 C 0.5063 0.93129 0.32017 0.0
C1413 C 0.50275 0.9448 0.31136 0.0
C1414 C 0.48253 0.9193 0.3047 0.0
C1415 C 0.52378 0.98248 0.30912 0.0
C1416 C 0.50588 0.96849 0.29371 0.0
C1417 C 0.52519 0.99417 0.30043 0.0
C1418 C 0.484 0.93095 0.29603 0.0
C1419 C 0.41657 0.85917 0.34164 0.0
O1420 O 0.47823 0.86226 0.35355 0.0
O1421 O 0.50462 0.87511 0.33989 0.0
O1422 O 0.47716 0.93334 0.36881 0.0
O1423 O 0.44815 0.87434 0.36614 0.0
O1424 O 0.52608 0.96997 0.3558 0.0
O1425 O 0.52378 0.93079 0.34709 0.0
O1426 O 0.46358 0.9557 0.33776 0.0
O1427 O 0.44305 0.94313 0.352 0.0
O1428 O 0.48074 0.89825 0.32262 0.0
O1429 O 0.5201 0.95458 0.32672 0.0
O1430 O 0.43484 0.85644 0.3351 0.0
O1431 O 0.43299 0.89184 0.34466 0.0
H1432 H 0.49609 0.9498 0.38522 0.0
H1433 H 0.45573 0.83571 0.37823 0.0
H1434 H 0.47304 0.82439 0.39268 0.0
H1435 H 0.51423 0.93877 0.39957 0.0
H1436 H 0.46665 0.88997 0.30612 0.0
H1437 H 0.54015 1.00288 0.31403 0.0
H1438 H 0.54194 0.02336 0.29896 0.0
H1439 H 0.46915 0.91015 0.29108 0.0
C1440 C 0.16229 0.17078 0.18112 0.0
C1441 C 0.12924 0.16304 0.17696 0.0
C1442 C 0.17161 0.14286 0.18228 0.0
C1443 C 0.14701 0.10631 0.17934 0.0
C1444 C 0.11304 0.0983 0.17542 0.0
C1445 C 0.10477 0.12673 0.17423 0.0
C1446 C 0.20811 0.15261 0.18647 0.0
C1447 C 0.08557 0.05972 0.17233 0.0
C1448 C 0.17736 0.03669 0.1734 0.0
C1449 C 0.16438 0.01246 0.18058 0.0
C1450 C 0.17375 0.06849 0.17313 0.0
C1451 C 0.15657 0.07628 0.18017 0.0
C1452 C 0.14509 0.05293 0.18761 0.0
C1453 C 0.1492 0.02146 0.18773 0.0
C1454 C 0.18667 0.09275 0.16509 0.0
C1455 C 0.1265 0.05995 0.19525 0.0
H1456 H 0.18133 0.19884 0.18322 0.0
H1457 H 0.07901 0.12053 0.17107 0.0
H1458 H 0.20356 0.13432 0.19216 0.0
H1459 H 0.22551 0.148 0.18172 0.0
H1460 H 0.22355 0.18185 0.18869 0.0
H1461 H 0.05972 0.05772 0.16976 0.0
H1462 H 0.09814 0.05121 0.16708 0.0
H1463 H 0.07826 0.03969 0.17778 0.0
H1464 H 0.18922 0.03019 0.16784 0.0
H1465 H 0.1391 1.0031 0.19333 0.0
H1466 H 0.20383 0.12225 0.16699 0.0
H1467 H 0.16235 0.08987 0.16146 0.0
H1468 H 0.20301 0.08541 0.16063 0.0
H1469 H 0.14274 0.08923 0.19738 0.0
H1470 H 0.12296 0.04182 0.20093 0.0
H1471 H 0.09881 0.05484 0.19322 0.0
C1472 C 0.9776 0.1412 0.17318 0.0
C1473 C 1.0018 0.15242 0.18036 0.0
C1474 C 0.94575 0.10582 0.1729 0.0
C1475 C 0.93786 0.08084 0.17995 0.0
C1476 C 0.96119 0.09267 0.18739 0.0
C1477 C 0.99271 0.12822 0.18752 0.0
C1478 C 0.92152 0.09452 0.16486 0.0
C1479 C 0.95408 0.06704 0.19503 0.0
C1480 C 0.8433 0.99208 0.18094 0.0
C1481 C 0.85102 0.96671 0.1768 0.0
C1482 C 0.87124 0.02935 0.18207 0.0
C1483 C 0.90777 0.04126 0.17912 0.0
C1484 C 0.91576 0.01525 0.17521 0.0
C1485 C 0.88731 0.97852 0.17405 0.0
C1486 C 0.86153 0.05616 0.18623 0.0
C1487 C 0.95432 0.0263 0.17212 0.0
H1488 H 0.98417 0.15957 0.16762 0.0
H1489 H 0.01103 0.13643 0.19312 0.0
H1490 H 0.92437 0.07306 0.16123 0.0
H1491 H 0.89201 0.08222 0.16675 0.0
H1492 H 0.92892 0.11822 0.1604 0.0
H1493 H 0.97225 0.08159 0.2007 0.0
H1494 H 0.92482 0.05411 0.19717 0.0
H1495 H 0.95909 0.04439 0.193 0.0
H1496 H 0.81526 0.9831 0.18304 0.0
H1497 H 0.89349 0.95891 0.17092 0.0
H1498 H 0.86624 0.07819 0.18148 0.0
H1499 H 0.87977 0.06986 0.19193 0.0
H1500 H 0.83226 0.04241 0.18843 0.0
H1501 H 0.96285 0.04737 0.16687 0.0
H1502 H 0.95627 1.00242 0.16956 0.0
H1503 H 0.97436 0.039 0.17757 0.0
C1504 C 0.03594 0.9096 0.17421 0.0
C1505 C 0.04771 0.8851 0.17697 0.0
C1506 C 0.99919 0.9013 0.17534 0.0
C1507 C 0.97312 0.86727 0.17922 0.0
C1508 C 0.98498 0.84263 0.18218 0.0
C1509 C 0.02227 0.85197 0.18108 0.0
C1510 C 0.98817 0.92883 0.17224 0.0
C1511 C 0.95811 0.80607 0.18632 0.0
C1512 C 0.88601 0.86512 0.18756 0.0
C1513 C 0.86189 0.85004 0.18039 0.0
C1514 C 0.92158 0.8692 0.18746 0.0
C1515 C 0.93352 0.85777 0.18002 0.0
C1516 C 0.90862 0.8407 0.17296 0.0
C1517 C 0.87322 0.83714 0.17321 0.0
C1518 C 0.94711 0.88768 0.19512 0.0
C1519 C 0.92004 0.82785 0.16493 0.0
H1520 H 0.05559 0.93541 0.1711 0.0
H1521 H 0.03123 0.8329 0.18319 0.0
H1522 H 0.96718 0.91631 0.16697 0.0
H1523 H 0.97539 0.93612 0.17768 0.0
H1524 H 0.01209 0.95468 0.1697 0.0
H1525 H 0.97182 0.79052 0.18853 0.0
H1526 H 0.94434 0.81056 0.19201 0.0
H1527 H 0.93613 0.7888 0.18154 0.0
H1528 H 0.87772 0.87519 0.19316 0.0
H1529 H 0.85492 0.82537 0.16764 0.0
H1530 H 0.96981 0.91534 0.1931 0.0
H1531 H 0.96001 0.87133 0.19726 0.0
H1532 H 0.9325 0.89128 0.20078 0.0
H1533 H 0.94155 0.8522 0.16131 0.0
H1534 H 0.89641 0.8116 0.16044 0.0
H1535 H 0.93232 0.81064 0.16682 0.0
C1536 C 0.17335 0.15902 0.34198 0.0
C1537 C 0.16567 0.12586 0.34607 0.0
C1538 C 0.14536 0.16826 0.34086 0.0
C1539 C 0.10883 0.14348 0.34378 0.0
C1540 C 0.10088 0.10943 0.34764 0.0
C1541 C 0.12938 0.10123 0.34879 0.0
C1542 C 0.15501 0.20485 0.33674 0.0
C1543 C 0.0623 0.08178 0.3507 0.0
C1544 C 0.03868 0.1731 0.34973 0.0
C1545 C 0.01458 0.16015 0.34253 0.0
C1546 C 0.07063 0.16975 0.35001 0.0
C1547 C 0.07868 0.15286 0.34295 0.0
C1548 C 0.05547 0.14143 0.33549 0.0
C1549 C 0.02386 0.14528 0.33536 0.0
C1550 C 0.09475 0.1826 0.35807 0.0
C1551 C 0.06279 0.12314 0.32783 0.0
H1552 H 0.20141 0.17818 0.3399 0.0
H1553 H 0.12325 0.07541 0.35189 0.0
H1554 H 0.13685 0.20038 0.33103 0.0
H1555 H 0.15014 0.222 0.34151 0.0
H1556 H 0.18432 0.2205 0.33457 0.0
H1557 H 0.06041 0.05594 0.35324 0.0
H1558 H 0.05365 0.09418 0.35596 0.0
H1559 H 0.04233 0.07448 0.34524 0.0
H1560 H 0.03196 0.18472 0.3553 0.0
H1561 H 1.0056 0.13521 0.32974 0.0
H1562 H 0.12427 0.19989 0.3562 0.0
H1563 H 0.09191 0.15825 0.36168 0.0
H1564 H 0.08722 0.19876 0.36254 0.0
H1565 H 0.09208 0.13961 0.32572 0.0
H1566 H 0.04468 0.11957 0.32215 0.0
H1567 H 0.05787 0.09548 0.32983 0.0
C1568 C 0.8682 0.88167 0.33547 0.0
C1569 C 0.8532 0.85752 0.34263 0.0
C1570 C 0.87206 0.91715 0.33558 0.0
C1571 C 0.86049 0.92895 0.34301 0.0
C1572 C 0.84351 0.904 0.35007 0.0
C1573 C 0.84016 0.8687 0.34981 0.0
C1574 C 0.89047 0.94274 0.32792 0.0
C1575 C 0.83051 0.91527 0.3581 0.0
C1576 C 0.91185 0.03132 0.34885 0.0
C1577 C 0.88723 0.04293 0.34609 0.0
C1578 C 0.90375 0.99464 0.34771 0.0
C1579 C 0.86979 0.96848 0.34382 0.0
C1580 C 0.84502 0.98018 0.34086 0.0
C1581 C 0.85418 0.01741 0.34196 0.0
C1582 C 0.9314 0.9838 0.35082 0.0
C1583 C 0.80853 0.9532 0.33671 0.0
H1584 H 0.87837 0.87349 0.32986 0.0
H1585 H 0.82845 0.85037 0.35538 0.0
H1586 H 0.874 0.95551 0.32577 0.0
H1587 H 0.91807 0.96552 0.32994 0.0
H1588 H 0.89418 0.92821 0.32226 0.0
H1589 H 0.81432 0.89159 0.36258 0.0
H1590 H 0.85479 0.93685 0.36172 0.0
H1591 H 0.81318 0.92742 0.35621 0.0
H1592 H 0.9376 0.05105 0.35197 0.0
H1593 H 0.83501 0.02625 0.33985 0.0
H1594 H 0.93881 0.97111 0.34538 0.0
H1595 H 0.91895 0.96278 0.35608 0.0
H1596 H 0.95719 0.00779 0.35336 0.0
H1597 H 0.81313 0.93949 0.33102 0.0
H1598 H 0.79288 0.9668 0.33449 0.0
H1599 H 0.7913 0.93119 0.34148 0.0
C1600 C 0.98178 0.88346 0.34889 0.0
C1601 C 0.97015 0.84725 0.34609 0.0
C1602 C 0.01837 0.91215 0.34767 0.0
C1603 C 0.04446 0.90454 0.34367 0.0
C1604 C 0.03272 0.86811 0.34066 0.0
C1605 C 0.99557 0.8399 0.34185 0.0
C1606 C 0.02922 0.95057 0.35083 0.0
C1607 C 0.0596 0.85877 0.33638 0.0
C1608 C 0.13112 0.9901 0.33531 0.0
C1609 C 0.15548 0.99903 0.34243 0.0
C1610 C 0.09562 0.95846 0.33543 0.0
C1611 C 0.08399 0.93486 0.34283 0.0
C1612 C 0.10913 0.94263 0.34983 0.0
C1613 C 0.14444 0.97459 0.34956 0.0
C1614 C 0.06984 0.95148 0.32783 0.0
C1615 C 0.09807 0.91814 0.35782 0.0
H1616 H 0.96214 0.88938 0.3521 0.0
H1617 H 0.98674 0.81195 0.3397 0.0
H1618 H 0.05041 0.9591 0.35606 0.0
H1619 H 0.04172 0.97076 0.34541 0.0
H1620 H 1.00528 0.95226 0.35346 0.0
H1621 H 0.04594 0.8296 0.33411 0.0
H1622 H 0.07312 0.87727 0.33071 0.0
H1623 H 0.08175 0.86342 0.34109 0.0
H1624 H 0.13918 0.00862 0.32974 0.0
H1625 H 0.16292 0.98102 0.35509 0.0
H1626 H 0.04715 0.95632 0.32992 0.0
H1627 H 0.05696 0.92229 0.32564 0.0
H1628 H 0.08426 0.96983 0.32217 0.0
H1629 H 0.07653 0.92068 0.36151 0.0
H1630 H 0.12185 0.92556 0.36226 0.0
H1631 H 0.08595 0.88873 0.35588 0.0
C1632 C 0.8581 0.84212 0.84111 0.0
C1633 C 0.89114 0.84985 0.84527 0.0
C1634 C 0.8488 0.87007 0.83995 0.0
C1635 C 0.87341 0.9066 0.8429 0.0
C1636 C 0.90753 0.91466 0.84675 0.0
C1637 C 0.91577 0.88619 0.84794 0.0
C1638 C 0.81216 0.86026 0.83584 0.0
C1639 C 0.93506 0.95325 0.84982 0.0
C1640 C 0.86996 0.99114 0.83475 0.0
C1641 C 0.85479 0.99978 0.84197 0.0
C1642 C 0.87455 0.95995 0.83478 0.0
C1643 C 0.86358 0.9365 0.8422 0.0
C1644 C 0.84646 0.94393 0.84932 0.0
C1645 C 0.84236 0.97546 0.84913 0.0
C1646 C 0.89304 0.95332 0.82706 0.0
C1647 C 0.83407 0.91953 0.85733 0.0
H1648 H 0.83889 0.81401 0.83908 0.0
H1649 H 0.94148 0.89232 0.85111 0.0
H1650 H 0.79462 0.86415 0.84069 0.0
H1651 H 0.8164 0.87896 0.83026 0.0
H1652 H 0.79699 0.8312 0.83348 0.0
H1653 H 0.96116 0.95536 0.85223 0.0
H1654 H 0.94186 0.97336 0.84441 0.0
H1655 H 0.92277 0.96152 0.85518 0.0
H1656 H 0.87966 0.00957 0.82916 0.0
H1657 H 0.83057 0.9817 0.85475 0.0
H1658 H 0.87692 0.92408 0.82489 0.0
H1659 H 0.92087 0.95858 0.82902 0.0
H1660 H 0.89628 0.97154 0.82143 0.0
H1661 H 0.81693 0.89005 0.85542 0.0
H1662 H 0.81788 0.92668 0.8619 0.0
H1663 H 0.85864 0.92248 0.86086 0.0
C1664 C 0.13018 0.03103 0.84882 0.0
C1665 C 0.16644 0.04289 0.84603 0.0
C1666 C 0.10173 0.99422 0.84772 0.0
C1667 C 0.10964 0.96813 0.84384 0.0
C1668 C 0.14618 0.98002 0.84089 0.0
C1669 C 0.17413 0.01737 0.84195 0.0
C1670 C 0.06318 0.98323 0.85081 0.0
C1671 C 0.15587 0.95315 0.83674 0.0
C1672 C 0.03875 0.86785 0.84943 0.0
C1673 C 0.0149 0.85722 0.84218 0.0
C1674 C 0.07081 0.90312 0.84985 0.0
C1675 C 0.07931 0.92861 0.84288 0.0
C1676 C 0.05636 0.91736 0.83537 0.0
C1677 C 0.02466 0.88195 0.8351 0.0
C1678 C 0.09461 0.91376 0.85795 0.0
C1679 C 0.06407 0.94349 0.8278 0.0
H1680 H 0.12398 0.0507 0.85191 0.0
H1681 H 0.20213 0.02635 0.83981 0.0
H1682 H 0.04323 0.97097 0.84533 0.0
H1683 H 0.05441 0.96183 0.85599 0.0
H1684 H 0.06136 0.00706 0.85346 0.0
H1685 H 0.18532 0.96673 0.83469 0.0
H1686 H 0.15044 0.93074 0.84145 0.0
H1687 H 0.1381 0.93998 0.83094 0.0
H1688 H 0.03171 0.84916 0.85493 0.0
H1689 H 1.00671 0.87426 0.82943 0.0
H1690 H 0.09168 0.93504 0.86165 0.0
H1691 H 0.1242 0.92607 0.85614 0.0
H1692 H 0.08686 0.88973 0.86233 0.0
H1693 H 0.05938 0.96628 0.8299 0.0
H1694 H 0.04603 0.92942 0.82208 0.0
H1695 H 0.09338 0.95619 0.82572 0.0
C1696 C 0.99626 0.1599 0.84141 0.0
C1697 C 0.97091 0.12677 0.84553 0.0
C1698 C 0.03345 0.16909 0.84021 0.0
C1699 C 0.04526 0.1443 0.84309 0.0
C1700 C 0.01923 0.11023 0.84695 0.0
C1701 C 0.98258 0.10207 0.84817 0.0
C1702 C 0.06031 0.20567 0.83608 0.0
C1703 C 0.03019 0.08257 0.84998 0.0
C1704 C 0.13209 0.14594 0.83478 0.0
C1705 C 0.15606 0.16072 0.84199 0.0
C1706 C 0.0967 0.14228 0.83484 0.0
C1707 C 0.08481 0.15377 0.84228 0.0
C1708 C 0.10961 0.1706 0.84937 0.0
C1709 C 0.14484 0.17381 0.84915 0.0
C1710 C 0.07126 0.1241 0.82715 0.0
C1711 C 0.09821 0.18346 0.8574 0.0
H1712 H 0.98734 0.1791 0.83938 0.0
H1713 H 0.96296 0.07624 0.85128 0.0
H1714 H 0.08218 0.22298 0.84087 0.0
H1715 H 0.07421 0.20124 0.8304 0.0
H1716 H 0.04654 0.22114 0.83385 0.0
H1717 H 1.00626 0.05666 0.85249 0.0
H1718 H 0.04293 0.07539 0.8445 0.0
H1719 H 0.05121 0.0949 0.85524 0.0
H1720 H 0.14035 0.13578 0.82919 0.0
H1721 H 0.16305 0.18538 0.85474 0.0
H1722 H 0.05834 0.14049 0.82506 0.0
H1723 H 0.04859 0.09634 0.82911 0.0
H1724 H 0.08597 0.12077 0.82148 0.0
H1725 H 0.08601 0.20076 0.85552 0.0
H1726 H 0.12184 0.19963 0.8619 0.0
H1727 H 0.07664 0.15911 0.861 0.0
C1728 C 0.884 0.909 0.67463 0.0
C1729 C 0.84752 0.88395 0.67714 0.0
C1730 C 0.91244 0.90068 0.67572 0.0
C1731 C 0.90424 0.86609 0.67929 0.0
C1732 C 0.86752 0.84089 0.68202 0.0
C1733 C 0.83957 0.85025 0.68097 0.0
C1734 C 0.95121 0.92879 0.67287 0.0
C1735 C 0.85762 0.80373 0.68583 0.0
C1736 C 0.97505 0.8379 0.67295 0.0
C1737 C 0.99886 0.85005 0.68021 0.0
C1738 C 0.94291 0.84092 0.67277 0.0
C1739 C 0.93435 0.85662 0.68 0.0
C1740 C 0.95722 0.86711 0.68752 0.0
C1741 C 0.98905 0.86364 0.68754 0.0
C1742 C 0.91918 0.82912 0.66465 0.0
C1743 C 0.94934 0.8841 0.69536 0.0
H1744 H 0.89033 0.93525 0.67174 0.0
H1745 H 0.81136 0.83077 0.68288 0.0
H1746 H 0.97084 0.93525 0.67838 0.0
H1747 H 0.9602 0.91721 0.6675 0.0
H1748 H 0.95326 0.955 0.67057 0.0
H1749 H 0.82824 0.78787 0.68795 0.0
H1750 H 0.86256 0.78719 0.68089 0.0
H1751 H 0.87558 0.80735 0.69153 0.0
H1752 H 0.98219 0.82726 0.66726 0.0
H1753 H 1.00705 0.87303 0.69321 0.0
H1754 H 0.92215 0.85393 0.66124 0.0
H1755 H 0.88957 0.81154 0.66641 0.0
H1756 H 0.92697 0.81359 0.66003 0.0
H1757 H 0.95439 0.91207 0.69362 0.0
H1758 H 0.96707 0.88675 0.70105 0.0
H1759 H 0.91992 0.8673 0.69734 0.0
C1760 C 0.14891 0.13079 0.68717 0.0
C1761 C 0.16168 0.15455 0.67988 0.0
C1762 C 0.14517 0.09538 0.68693 0.0
C1763 C 0.15472 0.08319 0.67923 0.0
C1764 C 0.1696 0.10774 0.67202 0.0
C1765 C 0.17275 0.14298 0.67241 0.0
C1766 C 0.12891 0.07022 0.69475 0.0
C1767 C 0.18056 0.0961 0.66372 0.0
C1768 C 0.16141 0.99482 0.68009 0.0
C1769 C 0.1273 0.96875 0.67648 0.0
C1770 C 0.17094 0.03225 0.68101 0.0
C1771 C 0.14546 0.04363 0.67841 0.0
C1772 C 0.11055 0.01696 0.67503 0.0
C1773 C 0.10211 0.98009 0.67403 0.0
C1774 C 0.20851 0.05977 0.68458 0.0
C1775 C 0.08208 0.0274 0.67236 0.0
H1776 H 0.14028 0.13918 0.69301 0.0
H1777 H 0.18273 0.16094 0.66674 0.0
H1778 H 0.10099 0.04708 0.69307 0.0
H1779 H 0.14617 0.05793 0.69657 0.0
H1780 H 0.12635 0.08495 0.70053 0.0
H1781 H 0.19555 0.11957 0.65911 0.0
H1782 H 0.19837 0.08409 0.66525 0.0
H1783 H 0.15542 0.07433 0.6604 0.0
H1784 H 0.18106 0.98623 0.68193 0.0
H1785 H 0.07558 0.95997 0.6713 0.0
H1786 H 0.20546 0.07379 0.69042 0.0
H1787 H 0.22415 0.08147 0.67962 0.0
H1788 H 0.22497 0.04654 0.68642 0.0
H1789 H 0.07595 0.04052 0.67793 0.0
H1790 H 0.05577 1.00314 0.67014 0.0
H1791 H 0.09316 0.04796 0.66697 0.0
C1792 C 0.88176 0.01961 0.68835 0.0
C1793 C 0.85834 0.01108 0.68105 0.0
C1794 C 0.91758 0.05072 0.6884 0.0
C1795 C 0.9305 0.07419 0.681 0.0
C1796 C 0.90635 0.06686 0.6738 0.0
C1797 C 0.87065 0.03541 0.6739 0.0
C1798 C 0.94229 0.05726 0.69621 0.0
C1799 C 0.91884 0.0913 0.66579 0.0
C1800 C 0.01921 0.16856 0.68229 0.0
C1801 C 0.0448 0.16093 0.67824 0.0
C1802 C 0.98194 0.14057 0.68336 0.0
C1803 C 0.97025 0.10408 0.68041 0.0
C1804 C 0.99656 0.09609 0.67668 0.0
C1805 C 0.03332 0.12461 0.67559 0.0
C1806 C 0.95484 0.15029 0.68735 0.0
C1807 C 0.98572 0.05755 0.67363 0.0
H1808 H 0.8727 1.00117 0.69394 0.0
H1809 H 0.85292 0.02923 0.66823 0.0
H1810 H 0.96496 0.05203 0.69434 0.0
H1811 H 0.95527 0.08646 0.69839 0.0
H1812 H 0.92698 0.03896 0.7018 0.0
H1813 H 0.89578 0.08417 0.66114 0.0
H1814 H 0.93106 0.12076 0.6677 0.0
H1815 H 0.94067 0.08837 0.66236 0.0
H1816 H 0.02794 0.19666 0.68431 0.0
H1817 H 0.0531 0.11856 0.6725 0.0
H1818 H 0.94 0.13147 0.69288 0.0
H1819 H 0.93374 0.14651 0.68241 0.0
H1820 H 0.96858 0.1793 0.68974 0.0
H1821 H 0.97204 0.03736 0.67901 0.0
H1822 H 0.00988 0.05548 0.67132 0.0
H1823 H 0.96551 0.04934 0.66819 0.0
C1824 C 0.84421 0.3711 0.50665 0.0
C1825 C 0.83137 0.34698 0.51384 0.0
C1826 C 0.84083 0.40303 0.50639 0.0
C1827 C 0.82403 0.41107 0.51348 0.0
C1828 C 0.81272 0.38784 0.52094 0.0
C1829 C 0.81659 0.35624 0.52104 0.0
C1830 C 0.85355 0.42715 0.49833 0.0
C1831 C 0.79452 0.39513 0.52862 0.0
C1832 C 0.83009 0.50571 0.51443 0.0
C1833 C 0.79691 0.49796 0.51034 0.0
C1834 C 0.83936 0.47773 0.51556 0.0
C1835 C 0.81458 0.44117 0.51267 0.0
C1836 C 0.78048 0.43316 0.50882 0.0
C1837 C 0.77225 0.46164 0.50766 0.0
C1838 C 0.876 0.48745 0.51966 0.0
C1839 C 0.7528 0.39455 0.50579 0.0
H1840 H 0.85576 0.3644 0.50106 0.0
H1841 H 0.8066 0.33797 0.52666 0.0
H1842 H 0.82914 0.42429 0.49475 0.0
H1843 H 0.87086 0.45667 0.50019 0.0
H1844 H 0.86968 0.41965 0.49384 0.0
H1845 H 0.7911 0.37706 0.5343 0.0
H1846 H 0.81097 0.42443 0.53072 0.0
H1847 H 0.7668 0.39014 0.52665 0.0
H1848 H 0.84926 0.53379 0.51649 0.0
H1849 H 0.74639 0.45545 0.50456 0.0
H1850 H 0.89317 0.4827 0.51487 0.0
H1851 H 0.87163 0.46925 0.52536 0.0
H1852 H 0.8916 0.51674 0.52185 0.0
H1853 H 0.76511 0.3859 0.50051 0.0
H1854 H 0.72688 0.39259 0.50329 0.0
H1855 H 0.74565 0.37461 0.51125 0.0
C1856 C 0.51216 0.32485 0.51483 0.0
C1857 C 0.51983 0.29945 0.51069 0.0
C1858 C 0.54014 0.3621 0.51597 0.0
C1859 C 0.57668 0.37396 0.51302 0.0
C1860 C 0.58468 0.34784 0.50919 0.0
C1861 C 0.55617 0.31113 0.50801 0.0
C1862 C 0.53039 0.389 0.52006 0.0
C1863 C 0.62325 0.35882 0.50612 0.0
C1864 C 0.64562 0.4739 0.50679 0.0
C1865 C 0.66985 0.48584 0.51397 0.0
C1866 C 0.61412 0.43824 0.5066 0.0
C1867 C 0.60663 0.41368 0.51372 0.0
C1868 C 0.63004 0.42619 0.52115 0.0
C1869 C 0.66118 0.462 0.52119 0.0
C1870 C 0.58979 0.42623 0.49857 0.0
C1871 C 0.62336 0.40105 0.52887 0.0
H1872 H 0.48406 0.31598 0.51687 0.0
H1873 H 0.56227 0.2915 0.50486 0.0
H1874 H 0.54905 0.40342 0.52565 0.0
H1875 H 0.53439 0.41045 0.5152 0.0
H1876 H 0.5013 0.37516 0.52241 0.0
H1877 H 0.62532 0.33479 0.50372 0.0
H1878 H 0.63156 0.37936 0.50075 0.0
H1879 H 0.64337 0.37215 0.51153 0.0
H1880 H 0.65188 0.49195 0.50118 0.0
H1881 H 0.67954 0.47074 0.5268 0.0
H1882 H 0.5603 0.41396 0.50047 0.0
H1883 H 0.5927 0.40455 0.49506 0.0
H1884 H 0.59702 0.44955 0.49399 0.0
H1885 H 0.59413 0.38802 0.53104 0.0
H1886 H 0.64162 0.41602 0.5345 0.0
H1887 H 0.62853 0.37843 0.52691 0.0
C1888 C 0.55232 0.19842 0.52114 0.0
C1889 C 0.52774 0.18341 0.51404 0.0
C1890 C 0.58781 0.20232 0.5209 0.0
C1891 C 0.59928 0.19079 0.5134 0.0
C1892 C 0.57392 0.17373 0.50641 0.0
C1893 C 0.53857 0.17031 0.5068 0.0
C1894 C 0.61379 0.2208 0.52849 0.0
C1895 C 0.58481 0.16075 0.49832 0.0
C1896 C 0.70168 0.24291 0.50748 0.0
C1897 C 0.71371 0.21863 0.51025 0.0
C1898 C 0.66482 0.23435 0.50859 0.0
C1899 C 0.63887 0.20027 0.51247 0.0
C1900 C 0.65095 0.17577 0.51541 0.0
C1901 C 0.68835 0.18538 0.51433 0.0
C1902 C 0.65361 0.26176 0.50551 0.0
C1903 C 0.62423 0.13914 0.51955 0.0
H1904 H 0.54446 0.20857 0.5268 0.0
H1905 H 0.51997 0.15862 0.50128 0.0
H1906 H 0.62669 0.20437 0.53057 0.0
H1907 H 0.63646 0.24839 0.52642 0.0
H1908 H 0.59955 0.22455 0.53421 0.0
H1909 H 0.56087 0.14437 0.49392 0.0
H1910 H 0.60603 0.18505 0.49464 0.0
H1911 H 0.59728 0.14363 0.50014 0.0
H1912 H 0.72123 0.2688 0.50438 0.0
H1913 H 0.69747 0.16644 0.51645 0.0
H1914 H 0.64114 0.26923 0.51099 0.0
H1915 H 0.6323 0.24908 0.50032 0.0
H1916 H 0.67737 0.28753 0.50289 0.0
H1917 H 0.61081 0.14357 0.52532 0.0
H1918 H 0.638 0.12349 0.52164 0.0
H1919 H 0.60198 0.12201 0.51482 0.0
C1920 C 0.7941 0.43503 0.68212 0.0
C1921 C 0.83041 0.45951 0.67938 0.0
C1922 C 0.76555 0.44309 0.68085 0.0
C1923 C 0.77341 0.47685 0.67684 0.0
C1924 C 0.80995 0.50143 0.67388 0.0
C1925 C 0.83802 0.49234 0.67513 0.0
C1926 C 0.727 0.41563 0.68397 0.0
C1927 C 0.81954 0.5377 0.66959 0.0
C1928 C 0.68812 0.47801 0.66832 0.0
C1929 C 0.67899 0.4934 0.67542 0.0
C1930 C 0.71978 0.4742 0.6685 0.0
C1931 C 0.7432 0.48618 0.67593 0.0
C1932 C 0.73527 0.50356 0.6829 0.0
C1933 C 0.70329 0.50688 0.68258 0.0
C1934 C 0.72694 0.4554 0.66092 0.0
C1935 C 0.75956 0.51698 0.69092 0.0
H1936 H 0.78799 0.40944 0.68534 0.0
H1937 H 0.86606 0.5114 0.67302 0.0
H1938 H 0.7184 0.42836 0.68916 0.0
H1939 H 0.70697 0.40798 0.6785 0.0
H1940 H 0.72514 0.38996 0.68661 0.0
H1941 H 0.84877 0.55312 0.66736 0.0
H1942 H 0.80119 0.53282 0.66389 0.0
H1943 H 0.81489 0.55526 0.67428 0.0
H1944 H 0.66971 0.46751 0.66274 0.0
H1945 H 0.6967 0.51889 0.68809 0.0
H1946 H 0.722 0.42786 0.66303 0.0
H1947 H 0.7562 0.47169 0.65878 0.0
H1948 H 0.70876 0.45151 0.65524 0.0
H1949 H 0.75684 0.49289 0.69464 0.0
H1950 H 0.7521 0.53342 0.69532 0.0
H1951 H 0.78904 0.53418 0.68902 0.0
C1952 C 0.53137 0.21385 0.66863 0.0
C1953 C 0.51704 0.1901 0.67588 0.0
C1954 C 0.53507 0.24925 0.66868 0.0
C1955 C 0.52403 0.26137 0.67615 0.0
C1956 C 0.50763 0.23678 0.6833 0.0
C1957 C 0.50442 0.20154 0.68309 0.0
C1958 C 0.55285 0.27446 0.66093 0.0
C1959 C 0.4952 0.24842 0.69137 0.0
C1960 C 0.57611 0.36394 0.68171 0.0
C1961 C 0.55138 0.37552 0.67904 0.0
C1962 C 0.56778 0.32717 0.68064 0.0
C1963 C 0.53349 0.30093 0.6769 0.0
C1964 C 0.5086 0.3126 0.67402 0.0
C1965 C 0.51798 0.34992 0.67506 0.0
C1966 C 0.59557 0.31634 0.68365 0.0
C1967 C 0.47175 0.28551 0.67004 0.0
H1968 H 0.54116 0.20544 0.663 0.0
H1969 H 0.49322 0.18351 0.68872 0.0
H1970 H 0.53626 0.28719 0.65886 0.0
H1971 H 0.58065 0.29729 0.66282 0.0
H1972 H 0.55605 0.25964 0.65526 0.0
H1973 H 0.47924 0.22492 0.69591 0.0
H1974 H 0.51974 0.27006 0.6949 0.0
H1975 H 0.47783 0.26059 0.68952 0.0
H1976 H 0.60212 0.38374 0.68472 0.0
H1977 H 0.49873 0.35876 0.67302 0.0
H1978 H 0.60253 0.30337 0.67819 0.0
H1979 H 0.58344 0.29555 0.68897 0.0
H1980 H 0.62157 0.34037 0.68609 0.0
H1981 H 0.47584 0.27146 0.66434 0.0
H1982 H 0.45603 0.2991 0.66787 0.0
H1983 H 0.45484 0.26378 0.67489 0.0
C1984 C 0.79628 0.32289 0.66906 0.0
C1985 C 0.82019 0.33216 0.67628 0.0
C1986 C 0.76083 0.29122 0.66912 0.0
C1987 C 0.74881 0.26791 0.67657 0.0
C1988 C 0.77353 0.276 0.68369 0.0
C1989 C 0.8088 0.30801 0.68347 0.0
C1990 C 0.73548 0.28392 0.66141 0.0
C1991 C 0.76203 0.25179 0.69173 0.0
C1992 C 0.64627 0.21673 0.68225 0.0
C1993 C 0.63483 0.18049 0.67953 0.0
C1994 C 0.68295 0.24537 0.68114 0.0
C1995 C 0.70928 0.23763 0.67732 0.0
C1996 C 0.69774 0.20114 0.6744 0.0
C1997 C 0.66051 0.173 0.67548 0.0
C1998 C 0.6936 0.28388 0.68419 0.0
C1999 C 0.72491 0.19168 0.67034 0.0
H2000 H 0.80462 0.34119 0.66344 0.0
H2001 H 0.82695 0.31471 0.68908 0.0
H2002 H 0.72283 0.25467 0.65928 0.0
H2003 H 0.7126 0.28871 0.66336 0.0
H2004 H 0.75018 0.30213 0.65576 0.0
H2005 H 0.78557 0.25937 0.69626 0.0
H2006 H 0.7403 0.25445 0.69528 0.0
H2007 H 0.75002 0.2223 0.68985 0.0
H2008 H 0.62642 0.22273 0.68532 0.0
H2009 H 0.65181 0.14499 0.6734 0.0
H2010 H 0.70646 0.30393 0.67875 0.0
H2011 H 0.71443 0.29253 0.6895 0.0
H2012 H 0.66949 0.28564 0.68667 0.0
H2013 H 0.7388 0.20999 0.66466 0.0
H2014 H 0.71142 0.16244 0.66812 0.0
H2015 H 0.74675 0.1965 0.67516 0.0
C2016 C 0.58036 0.21664 0.18199 0.0
C2017 C 0.55595 0.18027 0.17929 0.0
C2018 C 0.57172 0.24486 0.18089 0.0
C2019 C 0.53744 0.23656 0.1771 0.0
C2020 C 0.51286 0.19993 0.17421 0.0
C2021 C 0.52254 0.17222 0.17527 0.0
C2022 C 0.5992 0.28355 0.18392 0.0
C2023 C 0.47602 0.18988 0.17017 0.0
C2024 C 0.50746 0.30638 0.18312 0.0
C2025 C 0.52013 0.33042 0.17591 0.0
C2026 C 0.51096 0.27451 0.18338 0.0
C2027 C 0.52771 0.26647 0.17629 0.0
C2028 C 0.5388 0.28959 0.16881 0.0
C2029 C 0.5348 0.32111 0.1687 0.0
C2030 C 0.49846 0.2505 0.19146 0.0
C2031 C 0.55692 0.28229 0.16111 0.0
H2032 H 0.60637 0.22306 0.18504 0.0
H2033 H 0.50353 0.1441 0.17321 0.0
H2034 H 0.6062 0.30344 0.17845 0.0
H2035 H 0.58677 0.29208 0.1892 0.0
H2036 H 0.6252 0.28572 0.18643 0.0
H2037 H 0.4605 0.16054 0.16802 0.0
H2038 H 0.45892 0.19464 0.17498 0.0
H2039 H 0.48011 0.2079 0.16445 0.0
H2040 H 0.49601 0.31314 0.18872 0.0
H2041 H 0.54464 0.33929 0.16307 0.0
H2042 H 0.52299 0.25362 0.19504 0.0
H2043 H 0.48134 0.22092 0.18962 0.0
H2044 H 0.48224 0.25789 0.19595 0.0
H2045 H 0.58472 0.28744 0.16306 0.0
H2046 H 0.56016 0.30025 0.15543 0.0
H2047 H 0.54054 0.25295 0.15904 0.0
C2048 C 0.79829 0.3646 0.18203 0.0
C2049 C 0.83461 0.37651 0.17929 0.0
C2050 C 0.76998 0.32778 0.18092 0.0
C2051 C 0.77815 0.3018 0.17707 0.0
C2052 C 0.81472 0.3138 0.17414 0.0
C2053 C 0.84252 0.35115 0.17522 0.0
C2054 C 0.73135 0.31661 0.18398 0.0
C2055 C 0.82463 0.28702 0.17004 0.0
C2056 C 0.70837 0.20185 0.18301 0.0
C2057 C 0.68429 0.19058 0.17581 0.0
C2058 C 0.7402 0.23725 0.1833 0.0
C2059 C 0.74816 0.26219 0.17624 0.0
C2060 C 0.72498 0.25027 0.16877 0.0
C2061 C 0.6935 0.21471 0.16863 0.0
C2062 C 0.76428 0.24864 0.19136 0.0
C2063 C 0.73218 0.27585 0.16111 0.0
H2064 H 0.79197 0.38419 0.18512 0.0
H2065 H 0.87059 0.36022 0.17313 0.0
H2066 H 0.71138 0.30382 0.17852 0.0
H2067 H 0.72284 0.29557 0.18924 0.0
H2068 H 0.72928 0.34045 0.18652 0.0
H2069 H 0.85396 0.30081 0.16788 0.0
H2070 H 0.81984 0.26504 0.17482 0.0
H2071 H 0.80656 0.27325 0.16432 0.0
H2072 H 0.7017 0.18354 0.18858 0.0
H2073 H 0.67528 0.20645 0.16301 0.0
H2074 H 0.76124 0.27003 0.19497 0.0
H2075 H 0.79384 0.26106 0.18951 0.0
H2076 H 0.75689 0.22496 0.19583 0.0
H2077 H 0.72711 0.29849 0.16311 0.0
H2078 H 0.71411 0.26124 0.15543 0.0
H2079 H 0.76148 0.2888 0.159 0.0
C2080 C 0.81275 0.50666 0.18295 0.0
C2081 C 0.82377 0.49338 0.17579 0.0
C2082 C 0.77739 0.50318 0.18324 0.0
C2083 C 0.75222 0.48579 0.17624 0.0
C2084 C 0.76386 0.47398 0.16882 0.0
C2085 C 0.7994 0.478 0.16867 0.0
C2086 C 0.7663 0.51645 0.19126 0.0
C2087 C 0.73803 0.45514 0.16123 0.0
C2088 C 0.65005 0.43413 0.18227 0.0
C2089 C 0.63812 0.45844 0.17947 0.0
C2090 C 0.68679 0.44245 0.1811 0.0
C2091 C 0.71266 0.47629 0.17711 0.0
C2092 C 0.70064 0.50075 0.17411 0.0
C2093 C 0.66337 0.4914 0.17527 0.0
C2094 C 0.69798 0.41512 0.18425 0.0
C2095 C 0.72732 0.53712 0.16987 0.0
H2096 H 0.83126 0.51868 0.18847 0.0
H2097 H 0.80747 0.46766 0.16308 0.0
H2098 H 0.75391 0.53353 0.18934 0.0
H2099 H 0.74497 0.49228 0.19496 0.0
H2100 H 0.79013 0.53296 0.19568 0.0
H2101 H 0.75244 0.45133 0.15555 0.0
H2102 H 0.71545 0.42756 0.16332 0.0
H2103 H 0.725 0.47136 0.15907 0.0
H2104 H 0.63054 0.40844 0.18546 0.0
H2105 H 0.65428 0.51031 0.17311 0.0
H2106 H 0.71922 0.42794 0.18946 0.0
H2107 H 0.71053 0.40754 0.17881 0.0
H2108 H 0.6742 0.3894 0.18689 0.0
H2109 H 0.7495 0.55462 0.17457 0.0
H2110 H 0.71349 0.55256 0.16765 0.0
H2111 H 0.74083 0.53237 0.16416 0.0
C2112 C 0.66098 0.1971 0.0217 0.0
C2113 C 0.66994 0.1817 0.01458 0.0
C2114 C 0.6296 0.20136 0.02157 0.0
C2115 C 0.60616 0.18975 0.01415 0.0
C2116 C 0.61387 0.17239 1.00713 0.0
C2117 C 0.64565 0.16865 1.00741 0.0
C2118 C 0.62273 0.22017 0.02919 0.0
C2119 C 0.58947 0.15929 0.99912 0.0
C2120 C 0.51145 0.18357 0.01553 0.0
C2121 C 0.51865 0.21647 1.01138 0.0
C2122 C 0.53958 0.17441 0.01651 0.0
C2123 C 0.57583 0.19901 0.0134 0.0
C2124 C 0.58336 0.23289 1.0095 0.0
C2125 C 0.5547 0.24099 1.00848 0.0
C2126 C 0.5303 0.138 0.02068 0.0
C2127 C 0.62165 0.26043 1.00626 0.0
H2128 H 0.67928 0.20723 0.02731 0.0
H2129 H 0.65213 0.15671 1.00186 0.0
H2130 H 0.62731 0.2476 0.02709 0.0
H2131 H 0.59363 0.20374 0.03143 0.0
H2132 H 0.64129 0.22431 0.03481 0.0
H2133 H 0.59684 0.14298 0.99465 0.0
H2134 H 0.56002 0.14206 1.00105 0.0
H2135 H 0.59216 0.18352 0.99548 0.0
H2136 H 0.48358 0.16442 0.01773 0.0
H2137 H 0.56045 0.26657 1.00531 0.0
H2138 H 0.54894 0.14271 0.0263 0.0
H2139 H 0.53479 0.12067 0.01588 0.0
H2140 H 0.50119 0.12242 0.02299 0.0
H2141 H 0.6421 0.26797 0.01162 0.0
H2142 H 0.62329 0.28615 1.00371 0.0
H2143 H 0.62987 0.24782 1.00096 0.0
C2144 C 0.76861 0.30829 1.00821 0.0
C2145 C 0.79366 0.29702 1.01083 0.0
C2146 C 0.77647 0.34488 1.00937 0.0
C2147 C 0.81063 0.37131 0.01313 0.0
C2148 C 0.83567 0.35984 0.01604 0.0
C2149 C 0.82674 0.32268 0.01491 0.0
C2150 C 0.74848 0.35542 1.00635 0.0
C2151 C 0.87237 0.38709 0.02005 0.0
C2152 C 0.84001 0.47058 1.00666 0.0
C2153 C 0.82756 0.48248 0.01382 0.0
C2154 C 0.83654 0.4352 1.00656 0.0
C2155 C 0.82005 0.41093 0.01376 0.0
C2156 C 0.8091 0.42348 0.02117 0.0
C2157 C 0.81304 0.459 0.02112 0.0
C2158 C 0.84889 0.42313 0.99855 0.0
C2159 C 0.79125 0.39864 0.02897 0.0
H2160 H 0.74285 0.28843 1.0051 0.0
H2161 H 0.84626 0.3141 0.0169 0.0
H2162 H 0.74175 0.36879 0.01176 0.0
H2163 H 0.76033 0.37579 1.00094 0.0
H2164 H 0.72239 0.33116 1.00402 0.0
H2165 H 0.88782 0.3735 0.02243 0.0
H2166 H 0.88961 0.40833 0.01514 0.0
H2167 H 0.86817 0.40171 0.02561 0.0
H2168 H 0.85133 0.48838 1.001 0.0
H2169 H 0.80337 0.46775 0.02671 0.0
H2170 H 0.82432 0.40118 0.99509 0.0
H2171 H 0.8664 0.41121 1.00046 0.0
H2172 H 0.86468 0.44634 0.99393 0.0
H2173 H 0.7634 0.37582 0.02711 0.0
H2174 H 0.78817 0.41379 0.03459 0.0
H2175 H 0.80773 0.38588 0.03111 0.0
C2176 C 0.54985 0.35211 0.02062 0.0
C2177 C 0.5261 0.34047 0.01333 0.0
C2178 C 0.58501 0.38406 0.02033 0.0
C2179 C 0.59694 0.40541 0.01258 0.0
C2180 C 0.57239 0.39507 1.00535 0.0
C2181 C 0.53737 0.36271 1.00579 0.0
C2182 C 0.61019 0.39373 0.02818 0.0
C2183 C 0.58381 0.41722 0.99698 0.0
C2184 C 0.68458 0.50097 0.0133 0.0
C2185 C 0.71095 0.49311 1.0098 0.0
C2186 C 0.64725 0.47284 0.01421 0.0
C2187 C 0.63632 0.43597 0.01172 0.0
C2188 C 0.66329 0.42793 1.00845 0.0
C2189 C 0.70004 0.45657 1.00747 0.0
C2190 C 0.61938 0.48264 0.01766 0.0
C2191 C 0.65332 0.38903 1.00591 0.0
H2192 H 0.54163 0.33545 0.02652 0.0
H2193 H 0.5194 0.35421 1.00012 0.0
H2194 H 0.63364 0.38934 0.02656 0.0
H2195 H 0.62205 0.42332 0.02991 0.0
H2196 H 0.59561 0.37662 0.03399 0.0
H2197 H 0.56031 0.40821 0.99236 0.0
H2198 H 0.59547 0.44708 0.99841 0.0
H2199 H 0.60581 0.41403 0.99372 0.0
H2200 H 0.69287 0.52923 0.01506 0.0
H2201 H 0.72042 0.45034 1.00482 0.0
H2202 H 0.60542 0.46581 0.02354 0.0
H2203 H 0.59766 0.47606 0.01266 0.0
H2204 H 0.63227 0.51239 0.0194 0.0
H2205 H 0.64035 0.37001 0.01153 0.0
H2206 H 0.67777 0.3872 1.00375 0.0
H2207 H 0.63276 0.37907 1.00052 0.0
C2208 C 0.43875 0.79455 0.84076 0.0
C2209 C 0.46296 0.83078 0.84359 0.0
C2210 C 0.44732 0.76625 0.84182 0.0
C2211 C 0.48135 0.77429 0.84572 0.0
C2212 C 0.50581 0.8108 0.84871 0.0
C2213 C 0.49619 0.8386 0.84768 0.0
C2214 C 0.41996 0.7277 0.8387 0.0
C2215 C 0.54237 0.82061 0.85287 0.0
C2216 C 0.48267 0.68943 0.85445 0.0
C2217 C 0.49774 0.67976 0.84738 0.0
C2218 C 0.47892 0.72109 0.85418 0.0
C2219 C 0.49068 0.74408 0.84668 0.0
C2220 C 0.50783 0.7357 0.83973 0.0
C2221 C 0.51108 0.70366 0.84015 0.0
C2222 C 0.46035 0.72869 0.86174 0.0
C2223 C 0.52106 0.75956 0.83164 0.0
H2224 H 0.41289 0.78828 0.83765 0.0
H2225 H 0.51507 0.86659 0.84984 0.0
H2226 H 0.43278 0.71909 0.83353 0.0
H2227 H 0.41224 0.70769 0.84417 0.0
H2228 H 0.39431 0.72579 0.83602 0.0
H2229 H 0.55812 0.85005 0.85494 0.0
H2230 H 0.53782 0.80282 0.85866 0.0
H2231 H 0.55947 0.81532 0.84817 0.0
H2232 H 0.47236 0.67144 0.86011 0.0
H2233 H 0.5228 0.69666 0.83465 0.0
H2234 H 0.43287 0.72393 0.85963 0.0
H2235 H 0.47686 0.75798 0.86383 0.0
H2236 H 0.45634 0.71063 0.86746 0.0
H2237 H 0.49687 0.75652 0.82791 0.0
H2238 H 0.53752 0.75195 0.82728 0.0
H2239 H 0.53818 0.78915 0.83346 0.0
C2240 C 0.21945 0.6468 0.84125 0.0
C2241 C 0.18313 0.63534 0.8439 0.0
C2242 C 0.24803 0.68345 0.8424 0.0
C2243 C 0.24014 0.70971 0.8462 0.0
C2244 C 0.20357 0.69813 0.84906 0.0
C2245 C 0.17548 0.66093 0.84794 0.0
C2246 C 0.28663 0.69417 0.83941 0.0
C2247 C 0.19397 0.72523 0.85311 0.0
C2248 C 0.32527 0.79655 0.85452 0.0
C2249 C 0.33467 0.82046 0.8473 0.0
C2250 C 0.29354 0.76117 0.85445 0.0
C2251 C 0.27035 0.74922 0.84698 0.0
C2252 C 0.27854 0.77394 0.83987 0.0
C2253 C 0.31058 0.80917 0.8401 0.0
C2254 C 0.28607 0.7358 0.86217 0.0
C2255 C 0.25446 0.76249 0.8318 0.0
H2256 H 0.22555 0.627 0.8382 0.0
H2257 H 0.14739 0.65219 0.84997 0.0
H2258 H 0.29541 0.71506 0.83411 0.0
H2259 H 0.30654 0.70699 0.84488 0.0
H2260 H 0.28849 0.67011 0.83694 0.0
H2261 H 0.16469 0.71168 0.8553 0.0
H2262 H 0.21219 0.73914 0.8588 0.0
H2263 H 0.1988 0.74707 0.84829 0.0
H2264 H 0.34351 0.80485 0.86015 0.0
H2265 H 0.3174 0.82733 0.83449 0.0
H2266 H 0.29096 0.71296 0.86024 0.0
H2267 H 0.25676 0.7231 0.86425 0.0
H2268 H 0.30413 0.7505 0.86784 0.0
H2269 H 0.25721 0.7408 0.82825 0.0
H2270 H 0.26209 0.78606 0.82727 0.0
H2271 H 0.22494 0.75043 0.83365 0.0
C2272 C 0.3687 0.57985 0.8412 0.0
C2273 C 0.38044 0.55536 0.84398 0.0
C2274 C 0.33209 0.57188 0.84244 0.0
C2275 C 0.3061 0.53816 0.84645 0.0
C2276 C 0.31803 0.51368 0.84951 0.0
C2277 C 0.3552 0.52272 0.8483 0.0
C2278 C 0.32108 0.59929 0.83925 0.0
C2279 C 0.29127 0.47743 0.85379 0.0
C2280 C 0.21857 0.53577 0.85464 0.0
C2281 C 0.19442 0.5201 0.84749 0.0
C2282 C 0.25432 0.54022 0.85458 0.0
C2283 C 0.26642 0.52858 0.84721 0.0
C2284 C 0.24154 0.51102 0.84017 0.0
C2285 C 0.20597 0.50711 0.84038 0.0
C2286 C 0.27982 0.55927 0.86221 0.0
C2287 C 0.25309 0.49788 0.83221 0.0
H2288 H 0.38821 0.60527 0.83792 0.0
H2289 H 0.36411 0.50362 0.85042 0.0
H2290 H 0.30027 0.58665 0.83395 0.0
H2291 H 0.30805 0.6066 0.84463 0.0
H2292 H 0.34504 0.62513 0.83672 0.0
H2293 H 0.30516 0.46234 0.8562 0.0
H2294 H 0.27716 0.48224 0.85936 0.0
H2295 H 0.26956 0.45959 0.84903 0.0
H2296 H 0.21015 0.54597 0.8602 0.0
H2297 H 0.18768 0.4949 0.83482 0.0
H2298 H 0.30239 0.58687 0.86012 0.0
H2299 H 0.29289 0.5432 0.86445 0.0
H2300 H 0.26513 0.56307 0.86782 0.0
H2301 H 0.27466 0.5221 0.82857 0.0
H2302 H 0.22954 0.48144 0.82771 0.0
H2303 H 0.26536 0.48076 0.83419 0.0
C2304 C 0.50713 0.8232 1.00876 0.0
C2305 C 0.4996 0.78992 0.01276 0.0
C2306 C 0.47899 0.83226 1.00769 0.0
C2307 C 0.44246 0.80719 1.01057 0.0
C2308 C 0.43467 0.773 0.01432 0.0
C2309 C 0.46332 0.76499 0.01543 0.0
C2310 C 0.48848 0.86901 1.00369 0.0
C2311 C 0.39612 0.74503 0.01733 0.0
C2312 C 0.37188 0.8359 0.01677 0.0
C2313 C 0.34781 0.82326 1.00956 0.0
C2314 C 0.40396 0.83278 0.01697 0.0
C2315 C 0.41218 0.81641 1.00983 0.0
C2316 C 0.38899 0.80529 1.00236 0.0
C2317 C 0.35724 0.80893 1.00231 0.0
C2318 C 0.42806 0.8453 0.02504 0.0
C2319 C 0.39648 0.78755 0.99461 0.0
H2320 H 0.53518 0.8426 1.00673 0.0
H2321 H 0.45731 0.73907 0.01846 0.0
H2322 H 0.47025 0.86477 0.99801 0.0
H2323 H 0.4836 0.88588 1.00855 0.0
H2324 H 0.51776 0.88485 1.00151 0.0
H2325 H 0.39434 0.7191 0.01976 0.0
H2326 H 0.38733 0.75702 0.02265 0.0
H2327 H 0.37616 0.73798 0.01187 0.0
H2328 H 0.36504 0.84712 0.0224 0.0
H2329 H 0.33902 0.79909 0.99668 0.0
H2330 H 0.45757 0.86283 0.02319 0.0
H2331 H 0.42536 0.82081 0.02856 0.0
H2332 H 0.4204 0.86112 0.02959 0.0
H2333 H 0.42577 0.80424 0.99253 0.0
H2334 H 0.37838 0.78424 0.98895 0.0
H2335 H 0.39167 0.75982 0.99651 0.0
C2336 C 0.24562 0.69421 0.0155 0.0
C2337 C 0.2206 0.70554 0.01289 0.0
C2338 C 0.23758 0.65753 0.0144 0.0
C2339 C 0.20329 0.63106 1.0107 0.0
C2340 C 0.17808 0.64247 1.0079 0.0
C2341 C 0.18717 0.67971 1.00896 0.0
C2342 C 0.26572 0.64705 0.01732 0.0
C2343 C 0.14122 0.61516 1.00396 0.0
C2344 C 0.20189 0.54465 1.00214 0.0
C2345 C 0.18779 0.52051 1.00933 0.0
C2346 C 0.20533 0.57994 1.00232 0.0
C2347 C 0.19428 0.59162 1.00986 0.0
C2348 C 0.17821 0.56669 0.01697 0.0
C2349 C 0.17525 0.53153 0.01663 0.0
C2350 C 0.22278 0.6055 0.99461 0.0
C2351 C 0.16579 0.57783 0.02511 0.0
H2352 H 0.27165 0.71416 0.01848 0.0
H2353 H 0.16767 0.68831 1.00697 0.0
H2354 H 0.25387 0.62611 0.02262 0.0
H2355 H 0.2728 0.63438 0.01182 0.0
H2356 H 0.29162 0.6712 0.01977 0.0
H2357 H 0.12514 0.62849 1.00188 0.0
H2358 H 0.14534 0.6014 0.99821 0.0
H2359 H 0.12465 0.59323 1.0088 0.0
H2360 H 0.21162 0.53659 0.99643 0.0
H2361 H 0.16426 0.51322 0.02222 0.0
H2362 H 0.25041 0.62858 0.99651 0.0
H2363 H 0.20579 0.61787 0.99259 0.0
H2364 H 0.22624 0.59107 0.98889 0.0
H2365 H 0.1903 0.59957 0.02863 0.0
H2366 H 0.15019 0.55414 0.02963 0.0
H2367 H 0.14807 0.58971 0.02337 0.0
C2368 C 0.33056 0.50337 1.00845 0.0
C2369 C 0.30495 0.51033 0.01273 0.0
C2370 C 0.36767 0.53173 1.00734 0.0
C2371 C 0.37917 0.56796 1.01046 0.0
C2372 C 0.35292 0.57518 0.01453 0.0
C2373 C 0.31636 0.5463 0.01567 0.0
C2374 C 0.39474 0.52279 1.00301 0.0
C2375 C 0.36352 0.61339 0.0178 0.0
C2376 C 0.47905 0.63849 0.01631 0.0
C2377 C 0.48978 0.66301 1.00919 0.0
C2378 C 0.44387 0.60635 0.01658 0.0
C2379 C 0.41856 0.59852 1.00961 0.0
C2380 C 0.42988 0.62225 1.00224 0.0
C2381 C 0.46526 0.65403 1.00211 0.0
C2382 C 0.43314 0.58171 0.02454 0.0
C2383 C 0.40387 0.61524 0.99468 0.0
H2384 H 0.32187 0.47557 1.0062 0.0
H2385 H 0.29657 0.55189 0.01892 0.0
H2386 H 0.4077 0.54111 0.99728 0.0
H2387 H 0.41729 0.52803 1.00765 0.0
H2388 H 0.38139 0.49354 1.00081 0.0
H2389 H 0.33949 0.61476 0.02048 0.0
H2390 H 0.38479 0.62186 0.023 0.0
H2391 H 0.37582 0.63382 0.01241 0.0
H2392 H 0.49767 0.64497 0.02181 0.0
H2393 H 0.47307 0.67262 0.99656 0.0
H2394 H 0.42115 0.55236 0.02255 0.0
H2395 H 0.41158 0.58399 0.02828 0.0
H2396 H 0.45706 0.5892 0.02894 0.0
H2397 H 0.39129 0.58615 0.99243 0.0
H2398 H 0.41801 0.63387 0.98905 0.0
H2399 H 0.38098 0.61962 0.99686 0.0
C2400 C 0.18988 0.50702 0.50819 0.0
C2401 C 0.22308 0.51453 0.51224 0.0
C2402 C 0.18069 0.53511 0.50715 0.0
C2403 C 0.20555 0.57159 0.5101 0.0
C2404 C 0.23963 0.57935 0.51391 0.0
C2405 C 0.24779 0.55077 0.51498 0.0
C2406 C 0.14406 0.52561 0.50308 0.0
C2407 C 0.26739 0.61784 0.517 0.0
C2408 C 0.20355 0.6568 0.50184 0.0
C2409 C 0.18871 0.66592 0.50905 0.0
C2410 C 0.20752 0.62523 0.50191 0.0
C2411 C 0.19622 0.60185 0.50935 0.0
C2412 C 0.17944 0.60981 0.51645 0.0
C2413 C 0.17599 0.64172 0.51623 0.0
C2414 C 0.22571 0.61807 0.4942 0.0
C2415 C 0.16674 0.58556 0.52449 0.0
H2416 H 0.17065 0.47903 0.50609 0.0
H2417 H 0.27366 0.55681 0.51805 0.0
H2418 H 0.12702 0.53045 0.50789 0.0
H2419 H 0.14849 0.54387 0.49739 0.0
H2420 H 0.12832 0.49634 0.50088 0.0
H2421 H 0.29326 0.61963 0.51949 0.0
H2422 H 0.27463 0.63794 0.51157 0.0
H2423 H 0.25512 0.62641 0.5223 0.0
H2424 H 0.21349 0.67513 0.49623 0.0
H2425 H 0.16441 0.6483 0.52183 0.0
H2426 H 0.20917 0.58885 0.49206 0.0
H2427 H 0.25336 0.62287 0.49617 0.0
H2428 H 0.22927 0.63635 0.48856 0.0
H2429 H 0.14933 0.55608 0.5226 0.0
H2430 H 0.15072 0.59306 0.52902 0.0
H2431 H 0.19114 0.58825 0.52805 0.0
C2432 C 0.46444 0.69867 0.51499 0.0
C2433 C 0.50081 0.71065 0.51228 0.0
C2434 C 0.43608 0.66197 0.51374 0.0
C2435 C 0.44423 0.6362 0.50977 0.0
C2436 C 0.48083 0.6483 0.50685 0.0
C2437 C 0.5087 0.68552 0.50808 0.0
C2438 C 0.39744 0.65069 0.51682 0.0
C2439 C 0.4907 0.62173 0.50261 0.0
C2440 C 0.37468 0.53612 0.5156 0.0
C2441 C 0.35041 0.52504 0.50843 0.0
C2442 C 0.4065 0.5715 0.5159 0.0
C2443 C 0.41428 0.59661 0.50889 0.0
C2444 C 0.3909 0.58491 0.50145 0.0
C2445 C 0.3594 0.54936 0.50131 0.0
C2446 C 0.43076 0.58267 0.52393 0.0
C2447 C 0.39794 0.61069 0.49385 0.0
H2448 H 0.45813 0.71809 0.51817 0.0
H2449 H 0.5368 0.69466 0.50599 0.0
H2450 H 0.37747 0.63811 0.51136 0.0
H2451 H 0.38892 0.62945 0.52203 0.0
H2452 H 0.39536 0.67442 0.51944 0.0
H2453 H 0.51997 0.63567 0.5004 0.0
H2454 H 0.48613 0.59962 0.50733 0.0
H2455 H 0.47246 0.60812 0.49691 0.0
H2456 H 0.36818 0.51765 0.52113 0.0
H2457 H 0.341 0.54124 0.49571 0.0
H2458 H 0.42781 0.60398 0.52761 0.0
H2459 H 0.46027 0.59511 0.52204 0.0
H2460 H 0.42345 0.55888 0.52836 0.0
H2461 H 0.39276 0.63318 0.49591 0.0
H2462 H 0.37986 0.5962 0.48816 0.0
H2463 H 0.42724 0.62382 0.49172 0.0
C2464 C 0.47999 0.84154 0.51601 0.0
C2465 C 0.49133 0.8287 0.50882 0.0
C2466 C 0.44459 0.83796 0.51627 0.0
C2467 C 0.41972 0.82096 0.5092 0.0
C2468 C 0.43171 0.8097 0.50174 0.0
C2469 C 0.46727 0.81376 0.50163 0.0
C2470 C 0.43311 0.85063 0.52432 0.0
C2471 C 0.40623 0.79135 0.49406 0.0
C2472 C 0.31737 0.76873 0.51506 0.0
C2473 C 0.30548 0.79321 0.51238 0.0
C2474 C 0.35414 0.77715 0.51388 0.0
C2475 C 0.38008 0.81128 0.51002 0.0
C2476 C 0.36807 0.83589 0.50712 0.0
C2477 C 0.33078 0.82643 0.50828 0.0
C2478 C 0.36532 0.74967 0.51692 0.0
C2479 C 0.39481 0.87255 0.50301 0.0
H2480 H 0.49825 0.85319 0.52159 0.0
H2481 H 0.4756 0.80379 0.49602 0.0
H2482 H 0.4207 0.86776 0.52246 0.0
H2483 H 0.4117 0.82619 0.52793 0.0
H2484 H 0.45675 0.86692 0.5288 0.0
H2485 H 0.42094 0.78808 0.48838 0.0
H2486 H 0.38368 0.76355 0.49604 0.0
H2487 H 0.39313 0.80759 0.49197 0.0
H2488 H 0.29782 0.74286 0.51817 0.0
H2489 H 0.32172 0.84549 0.50622 0.0
H2490 H 0.38634 0.76214 0.52218 0.0
H2491 H 0.37812 0.74255 0.51145 0.0
H2492 H 0.34147 0.72372 0.51945 0.0
H2493 H 0.41673 0.88984 0.50779 0.0
H2494 H 0.38096 0.88798 0.50081 0.0
H2495 H 0.40867 0.86823 0.4973 0.0
C2496 C 0.17493 0.517 0.34751 0.0
C2497 C 0.18274 0.55017 0.34341 0.0
C2498 C 0.20275 0.50743 0.34858 0.0
C2499 C 0.23927 0.53188 0.34559 0.0
C2500 C 0.24729 0.56584 0.34166 0.0
C2501 C 0.21897 0.57437 0.34057 0.0
C2502 C 0.19297 0.47093 0.35277 0.0
C2503 C 0.28584 0.59318 0.33852 0.0
C2504 C 0.32425 0.5309 0.35435 0.0
C2505 C 0.33397 0.51579 0.3473 0.0
C2506 C 0.29251 0.53452 0.35407 0.0
C2507 C 0.26951 0.5226 0.34657 0.0
C2508 C 0.27793 0.5054 0.33964 0.0
C2509 C 0.31003 0.50227 0.34007 0.0
C2510 C 0.28487 0.55315 0.3616 0.0
C2511 C 0.25405 0.492 0.33155 0.0
H2512 H 0.14694 0.49813 0.34968 0.0
H2513 H 0.22524 0.60019 0.33745 0.0
H2514 H 0.19829 0.45379 0.34809 0.0
H2515 H 0.21076 0.47559 0.35857 0.0
H2516 H 0.16353 0.45519 0.35484 0.0
H2517 H 0.28773 0.61878 0.33581 0.0
H2518 H 0.30584 0.601 0.344 0.0
H2519 H 0.29448 0.5803 0.33338 0.0
H2520 H 0.34226 0.54134 0.36 0.0
H2521 H 0.31706 0.4905 0.33459 0.0
H2522 H 0.25557 0.53663 0.3637 0.0
H2523 H 0.2896 0.5806 0.35947 0.0
H2524 H 0.30292 0.55723 0.36733 0.0
H2525 H 0.22446 0.47489 0.33338 0.0
H2526 H 0.26168 0.47549 0.32722 0.0
H2527 H 0.25704 0.51611 0.3278 0.0
C2528 C 0.4344 0.64475 0.34097 0.0
C2529 C 0.45873 0.63287 0.34378 0.0
C2530 C 0.44253 0.6814 0.3422 0.0
C2531 C 0.47627 0.70727 0.34623 0.0
C2532 C 0.50061 0.6952 0.3493 0.0
C2533 C 0.4914 0.65799 0.3481 0.0
C2534 C 0.41527 0.6926 0.339 0.0
C2535 C 0.53686 0.72183 0.3536 0.0
C2536 C 0.50752 0.80742 0.3402 0.0
C2537 C 0.4944 0.81887 0.34731 0.0
C2538 C 0.50362 0.77187 0.33998 0.0
C2539 C 0.48596 0.74694 0.34701 0.0
C2540 C 0.47426 0.75897 0.35438 0.0
C2541 C 0.4787 0.79469 0.35446 0.0
C2542 C 0.51682 0.76037 0.33202 0.0
C2543 C 0.45514 0.73341 0.362 0.0
H2544 H 0.40896 0.62532 0.33768 0.0
H2545 H 0.51037 0.64895 0.35025 0.0
H2546 H 0.40792 0.70557 0.34439 0.0
H2547 H 0.42806 0.71348 0.33372 0.0
H2548 H 0.38943 0.66873 0.33644 0.0
H2549 H 0.55187 0.70785 0.35601 0.0
H2550 H 0.55478 0.74358 0.34885 0.0
H2551 H 0.53208 0.73592 0.35918 0.0
H2552 H 0.51975 0.82576 0.33466 0.0
H2553 H 0.46846 0.80306 0.36001 0.0
H2554 H 0.49262 0.73894 0.32836 0.0
H2555 H 0.53381 0.74797 0.33401 0.0
H2556 H 0.53341 0.78399 0.32756 0.0
H2557 H 0.4275 0.71095 0.3599 0.0
H2558 H 0.4514 0.74809 0.36763 0.0
H2559 H 0.4711 0.72021 0.36423 0.0
C2560 C 0.20427 0.70262 0.33985 0.0
C2561 C 0.19297 0.67859 0.34707 0.0
C2562 C 0.2395 0.73466 0.33962 0.0
C2563 C 0.2642 0.74291 0.34674 0.0
C2564 C 0.25221 0.71979 0.35422 0.0
C2565 C 0.21683 0.68806 0.3543 0.0
C2566 C 0.25099 0.75866 0.33154 0.0
C2567 C 0.27755 0.72732 0.36195 0.0
C2568 C 0.36664 0.79343 0.34105 0.0
C2569 C 0.37823 0.8298 0.34368 0.0
C2570 C 0.32993 0.76496 0.34218 0.0
C2571 C 0.30374 0.77303 0.34595 0.0
C2572 C 0.31543 0.80964 0.34879 0.0
C2573 C 0.3527 0.83761 0.34768 0.0
C2574 C 0.31909 0.72631 0.33921 0.0
C2575 C 0.28841 0.8194 0.35281 0.0
H2576 H 0.18614 0.69574 0.33424 0.0
H2577 H 0.20851 0.66988 0.35993 0.0
H2578 H 0.26314 0.78821 0.33337 0.0
H2579 H 0.27262 0.75579 0.32799 0.0
H2580 H 0.22742 0.75105 0.32701 0.0
H2581 H 0.26281 0.70936 0.36763 0.0
H2582 H 0.30035 0.72234 0.36004 0.0
H2583 H 0.2903 0.75666 0.364 0.0
H2584 H 0.3864 0.7872 0.33802 0.0
H2585 H 0.36154 0.86573 0.3497 0.0
H2586 H 0.29819 0.71753 0.33391 0.0
H2587 H 0.30624 0.70647 0.34469 0.0
H2588 H 0.3431 0.72434 0.33675 0.0
H2589 H 0.26659 0.81456 0.34798 0.0
H2590 H 0.30203 0.84872 0.35497 0.0
H2591 H 0.27445 0.80129 0.35851 0.0
C2592 C 0.25049 0.31896 0.16912 0.0
C2593 C 0.23289 0.31625 0.17713 0.0
C2594 C 0.28948 0.33717 0.16849 0.0
C2595 C 0.31163 0.35413 0.176 0.0
C2596 C 0.2939 0.35247 0.18404 0.0
C2597 C 0.25493 0.33314 0.18453 0.0
C2598 C 0.30695 0.33734 0.15983 0.0
C2599 C 0.31611 0.37099 0.19215 0.0
C2600 C 0.411 0.37168 0.17711 0.0
C2601 C 0.43185 0.40866 0.17438 0.0
C2602 C 0.372 0.35354 0.17756 0.0
C2603 C 0.35324 0.37307 0.17549 0.0
C2604 C 0.37435 0.41077 0.17297 0.0
C2605 C 0.41321 0.42786 0.17232 0.0
C2606 C 0.35082 0.31318 0.18008 0.0
C2607 C 0.35588 0.43312 0.17097 0.0
H2608 H 0.23376 0.30566 0.16339 0.0
H2609 H 0.24163 0.33134 0.19075 0.0
H2610 H 0.32589 0.36618 0.1577 0.0
H2611 H 0.32381 0.32371 0.16057 0.0
H2612 H 0.28604 0.32283 0.15462 0.0
H2613 H 0.2983 0.36919 0.19775 0.0
H2614 H 0.33252 0.3579 0.19409 0.0
H2615 H 0.33596 0.40059 0.1908 0.0
H2616 H 0.42512 0.35652 0.17864 0.0
H2617 H 0.42913 0.45646 0.17023 0.0
H2618 H 0.33097 0.29693 0.17481 0.0
H2619 H 0.33446 0.30951 0.18609 0.0
H2620 H 0.36932 0.30162 0.18126 0.0
H2621 H 0.33709 0.42102 0.16528 0.0
H2622 H 0.3762 0.46249 0.16949 0.0
H2623 H 0.33871 0.43218 0.17661 0.0
C2624 C 0.58641 0.98595 0.17228 0.0
C2625 C 0.60573 0.02378 0.17434 0.0
C2626 C 0.6034 0.96409 0.17292 0.0
C2627 C 0.64109 0.98057 0.17543 0.0
C2628 C 0.66074 0.01886 0.17751 0.0
C2629 C 0.64271 0.03982 0.17706 0.0
C2630 C 0.58094 0.92327 0.17092 0.0
C2631 C 0.70109 0.03792 0.18002 0.0
C2632 C 0.68071 0.92191 0.18445 0.0
C2633 C 0.69759 0.91675 0.17705 0.0
C2634 C 0.66148 0.94164 0.18396 0.0
C2635 C 0.65992 0.95781 0.17593 0.0
C2636 C 0.67683 0.95258 0.16842 0.0
C2637 C 0.69494 0.93171 0.16904 0.0
C2638 C 0.64302 0.94539 0.19208 0.0
C2639 C 0.67672 0.96995 0.15977 0.0
H2640 H 0.55781 0.97334 0.1702 0.0
H2641 H 0.65795 0.0691 0.17859 0.0
H2642 H 0.59298 0.91655 0.16522 0.0
H2643 H 0.58184 0.90699 0.17656 0.0
H2644 H 0.55158 0.91431 0.16944 0.0
H2645 H 0.71274 0.06798 0.18122 0.0
H2646 H 0.70474 0.02515 0.18603 0.0
H2647 H 0.71731 0.03431 0.17475 0.0
H2648 H 0.68246 0.91036 0.19066 0.0
H2649 H 0.70825 0.92829 0.16331 0.0
H2650 H 0.61344 0.93575 0.19073 0.0
H2651 H 0.65621 0.97488 0.19403 0.0
H2652 H 0.64475 0.92931 0.19767 0.0
H2653 H 0.64789 0.96017 0.15764 0.0
H2654 H 0.69114 0.96346 0.15455 0.0
H2655 H 0.69048 1.00044 0.16051 0.0
C2656 C 0.09212 0.75941 0.18456 0.0
C2657 C 0.09738 0.78154 0.17717 0.0
C2658 C 0.07243 0.72046 0.18404 0.0
C2659 C 0.05639 0.70284 0.17599 0.0
C2660 C 0.06168 0.72508 0.16849 0.0
C2661 C 0.08252 0.76405 0.16915 0.0
C2662 C 0.06863 0.69815 0.19214 0.0
C2663 C 0.04442 0.70772 0.15983 0.0
C2664 C 0.02863 0.60138 0.17222 0.0
C2665 C 0.99077 0.5827 0.17426 0.0
C2666 C 0.05038 0.64021 0.17292 0.0
C2667 C 0.03375 0.66126 0.17545 0.0
C2668 C 0.99543 0.64245 0.1775 0.0
C2669 C 0.97458 0.60347 0.17701 0.0
C2670 C 0.09123 0.65873 0.17094 0.0
C2671 C 0.97622 0.66358 0.18004 0.0
H2672 H 0.10359 0.77264 0.19079 0.0
H2673 H 0.08603 0.78085 0.16343 0.0
H2674 H 0.03911 0.68171 0.19407 0.0
H2675 H 0.0784 0.67831 0.19079 0.0
H2676 H 0.08457 0.71588 0.19776 0.0
H2677 H 0.05085 0.72869 0.15463 0.0
H2678 H 0.05436 0.68882 0.15767 0.0
H2679 H 0.01393 0.69084 0.16056 0.0
H2680 H 0.04134 0.58551 0.17012 0.0
H2681 H 0.94529 0.58931 0.17852 0.0
H2682 H 0.1074 0.67585 0.1766 0.0
H2683 H 0.09797 0.67757 0.16526 0.0
H2684 H 0.10032 0.63844 0.16945 0.0
H2685 H 0.98887 0.67989 0.18606 0.0
H2686 H 0.94615 0.64506 0.18121 0.0
H2687 H 0.97982 0.68348 0.17478 0.0
C2688 C 0.31166 0.24747 0.35338 0.0
C2689 C 0.31714 0.23031 0.3461 0.0
C2690 C 0.32866 0.28638 0.35394 0.0
C2691 C 0.35304 0.30898 0.34722 0.0
C2692 C 0.35946 0.29165 0.33998 0.0
C2693 C 0.34082 0.25267 0.33941 0.0
C2694 C 0.31983 0.3033 0.36163 0.0
C2695 C 0.38629 0.3143 0.33284 0.0
C2696 C 0.37465 0.40962 0.34483 0.0
C2697 C 0.40631 0.42869 0.35006 0.0
C2698 C 0.35701 0.37075 0.34384 0.0
C2699 C 0.37221 0.3506 0.34787 0.0
C2700 C 0.40531 0.37027 0.35278 0.0
C2701 C 0.42131 0.40876 0.35399 0.0
C2702 C 0.32113 0.35104 0.33881 0.0
C2703 C 0.42359 0.35059 0.35689 0.0
H2704 H 0.29288 0.23037 0.3585 0.0
H2705 H 0.34512 0.23958 0.33376 0.0
H2706 H 0.34528 0.32074 0.36547 0.0
H2707 H 0.30938 0.32154 0.35928 0.0
H2708 H 0.29881 0.28203 0.36605 0.0
H2709 H 0.38975 0.29676 0.3279 0.0
H2710 H 0.37654 0.33139 0.32948 0.0
H2711 H 0.41374 0.33357 0.33573 0.0
H2712 H 0.36255 0.4248 0.34192 0.0
H2713 H 0.4457 0.42339 0.35807 0.0
H2714 H 0.29871 0.33141 0.34321 0.0
H2715 H 0.32343 0.33458 0.33341 0.0
H2716 H 0.31302 0.37053 0.33602 0.0
H2717 H 0.40583 0.3321 0.36219 0.0
H2718 H 0.45113 0.37021 0.3597 0.0
H2719 H 0.42704 0.33301 0.35196 0.0
C2720 C 0.60524 0.96997 0.34581 0.0
C2721 C 0.58449 0.98625 0.34851 0.0
C2722 C 0.64423 0.99076 0.34534 0.0
C2723 C 0.66306 0.02911 0.34736 0.0
C2724 C 0.64204 0.04582 0.34984 0.0
C2725 C 0.60319 0.02413 0.35051 0.0
C2726 C 0.66534 0.97148 0.34285 0.0
C2727 C 0.66059 0.08669 0.3518 0.0
C2728 C 0.76574 0.07774 0.35374 0.0
C2729 C 0.78335 0.09253 0.34572 0.0
C2730 C 0.72676 0.05698 0.35437 0.0
C2731 C 0.70464 0.05168 0.34685 0.0
C2732 C 0.72238 0.06764 0.3388 0.0
C2733 C 0.76134 0.08727 0.33831 0.0
C2734 C 0.70926 0.03981 0.36303 0.0
C2735 C 0.70019 0.06381 0.33068 0.0
H2736 H 0.59105 0.94066 0.34432 0.0
H2737 H 0.58733 0.03691 0.35258 0.0
H2738 H 0.68176 0.98407 0.33684 0.0
H2739 H 0.68514 0.97507 0.34813 0.0
H2740 H 0.64679 0.94141 0.34168 0.0
H2741 H 0.64031 0.09584 0.35324 0.0
H2742 H 0.67936 0.09345 0.35749 0.0
H2743 H 0.67779 0.10279 0.34614 0.0
H2744 H 0.78246 0.08125 0.35948 0.0
H2745 H 0.77466 0.0987 0.33209 0.0
H2746 H 0.69236 0.00931 0.36232 0.0
H2747 H 0.69036 0.0498 0.36515 0.0
H2748 H 0.73016 0.04625 0.36825 0.0
H2749 H 0.68373 0.03428 0.32877 0.0
H2750 H 0.71801 0.07968 0.32507 0.0
H2751 H 0.68038 0.07364 0.332 0.0
C2752 C 0.92541 0.67646 0.33848 0.0
C2753 C 0.92042 0.69348 0.34588 0.0
C2754 C 0.94501 0.65709 0.33897 0.0
C2755 C 0.96123 0.65552 0.347 0.0
C2756 C 0.95621 0.67261 0.3545 0.0
C2757 C 0.93546 0.69086 0.35388 0.0
C2758 C 0.94851 0.63842 0.33086 0.0
C2759 C 0.97366 0.67254 0.36314 0.0
C2760 C 0.98883 0.58161 0.3507 0.0
C2761 C 0.02664 0.60066 0.34861 0.0
C2762 C 0.96715 0.5988 0.35005 0.0
C2763 C 0.98379 0.63646 0.34749 0.0
C2764 C 0.02207 0.65584 0.34539 0.0
C2765 C 0.04284 0.6376 0.34585 0.0
C2766 C 0.92635 0.57659 0.35209 0.0
C2767 C 0.04132 0.69615 0.34283 0.0
H2768 H 0.91379 0.67818 0.33228 0.0
H2769 H 0.93217 0.70427 0.35961 0.0
H2770 H 0.97797 0.6514 0.32889 0.0
H2771 H 0.93869 0.60883 0.33223 0.0
H2772 H 0.93245 0.64022 0.32527 0.0
H2773 H 0.96743 0.6872 0.36835 0.0
H2774 H 0.96369 0.64372 0.3653 0.0
H2775 H 1.00413 0.68606 0.36237 0.0
H2776 H 0.97609 0.55304 0.35282 0.0
H2777 H 0.0721 0.65264 0.34429 0.0
H2778 H 0.91005 0.57752 0.34645 0.0
H2779 H 0.91981 0.5888 0.35778 0.0
H2780 H 0.91722 0.54721 0.35359 0.0
H2781 H 0.02855 0.69979 0.33683 0.0
H2782 H 0.07134 0.70759 0.34162 0.0
H2783 H 0.03791 0.71254 0.34809 0.0
C2784 C 0.60607 0.59469 0.85428 0.0
C2785 C 0.58524 0.60753 0.84985 0.0
C2786 C 0.64452 0.61085 0.85297 0.0
C2787 C 0.66329 0.64198 0.84739 0.0
C2788 C 0.64223 0.65492 0.84283 0.0
C2789 C 0.6034 0.6371 0.84398 0.0
C2790 C 0.66516 0.59493 0.8577 0.0
C2791 C 0.66095 0.68872 0.83706 0.0
C2792 C 0.76634 0.70587 0.85246 0.0
C2793 C 0.78374 0.69799 0.84562 0.0
C2794 C 0.72741 0.68869 0.85297 0.0
C2795 C 0.70495 0.66174 0.84666 0.0
C2796 C 0.72247 0.65307 0.83985 0.0
C2797 C 0.7615 0.67182 0.8393 0.0
C2798 C 0.7103 0.69988 0.86019 0.0
C2799 C 0.69998 0.62359 0.83318 0.0
H2800 H 0.59219 0.57188 0.85884 0.0
H2801 H 0.58754 0.64755 0.84066 0.0
H2802 H 0.68275 0.59016 0.85304 0.0
H2803 H 0.68374 0.61485 0.86269 0.0
H2804 H 0.64616 0.56841 0.86102 0.0
H2805 H 0.6408 0.69487 0.83382 0.0
H2806 H 0.68024 0.71303 0.84104 0.0
H2807 H 0.67765 0.68496 0.83195 0.0
H2808 H 0.78327 0.72651 0.85728 0.0
H2809 H 0.77471 0.66559 0.83398 0.0
H2810 H 0.69357 0.67594 0.86453 0.0
H2811 H 0.69135 0.70858 0.85735 0.0
H2812 H 0.73144 0.72291 0.86422 0.0
H2813 H 0.68153 0.59705 0.83655 0.0
H2814 H 0.71766 0.61913 0.82848 0.0
H2815 H 0.68205 0.63134 0.82947 0.0
C2816 C 0.32275 0.0787 0.85381 0.0
C2817 C 0.32031 0.0937 0.84579 0.0
C2818 C 0.34092 0.05789 0.85449 0.0
C2819 C 0.3581 0.05273 0.84701 0.0
C2820 C 0.35673 0.06892 0.83897 0.0
C2821 C 0.33746 0.08861 0.83843 0.0
C2822 C 0.34081 0.0405 0.86315 0.0
C2823 C 0.37547 0.06527 0.83089 0.0
C2824 C 0.4318 0.0249 0.85081 0.0
C2825 C 0.41269 0.98707 0.84873 0.0
C2826 C 0.41468 0.04664 0.85013 0.0
C2827 C 0.37704 0.03006 0.84757 0.0
C2828 C 0.3576 0.99177 0.84548 0.0
C2829 C 0.37576 0.97093 0.84596 0.0
C2830 C 0.43696 0.08744 0.85216 0.0
C2831 C 0.31731 0.9726 0.8429 0.0
H2832 H 0.30923 0.08205 0.85951 0.0
H2833 H 0.33587 0.10017 0.8322 0.0
H2834 H 0.32714 0.01001 0.8624 0.0
H2835 H 0.36959 0.05033 0.86533 0.0
H2836 H 0.32618 0.0469 0.86833 0.0
H2837 H 0.37384 0.08132 0.82528 0.0
H2838 H 0.40502 0.07499 0.83229 0.0
H2839 H 0.36241 0.03579 0.82894 0.0
H2840 H 0.46036 0.0376 0.85294 0.0
H2841 H 0.36067 0.94167 0.84441 0.0
H2842 H 0.42467 0.09407 0.85783 0.0
H2843 H 0.43619 0.10373 0.84651 0.0
H2844 H 0.46629 0.0965 0.8537 0.0
H2845 H 0.3009 0.97613 0.84813 0.0
H2846 H 0.3058 0.94255 0.84171 0.0
H2847 H 0.31378 0.98533 0.83687 0.0
C2848 C 0.93595 0.24796 0.85379 0.0
C2849 C 0.92108 0.23049 0.84576 0.0
C2850 C 0.95663 0.28695 0.85446 0.0
C2851 C 0.96178 0.30924 0.84699 0.0
C2852 C 0.94574 0.29164 0.83893 0.0
C2853 C 0.92618 0.25268 0.8384 0.0
C2854 C 0.97385 0.30428 0.86314 0.0
C2855 C 0.9494 0.31398 0.83085 0.0
C2856 C 0.98893 0.41059 0.85077 0.0
C2857 C 0.0268 0.42951 0.84873 0.0
C2858 C 0.96739 0.37172 0.85008 0.0
C2859 C 0.98423 0.35086 0.84754 0.0
C2860 C 0.02255 0.36991 0.84549 0.0
C2861 C 0.04319 0.40892 0.84599 0.0
C2862 C 0.92654 0.35296 0.85207 0.0
C2863 C 0.04199 0.34902 0.84294 0.0
H2864 H 0.93257 0.23114 0.8595 0.0
H2865 H 0.9147 0.2395 0.83217 0.0
H2866 H 1.00434 0.3213 0.86241 0.0
H2867 H 0.96378 0.32305 0.86531 0.0
H2868 H 0.96754 0.28328 0.86832 0.0
H2869 H 0.93355 0.29625 0.82522 0.0
H2870 H 0.93944 0.33365 0.83222 0.0
H2871 H 0.97892 0.3306 0.82893 0.0
H2872 H 0.97604 0.42629 0.85287 0.0
H2873 H 0.07249 0.42325 0.84447 0.0
H2874 H 0.91994 0.33407 0.85774 0.0
H2875 H 0.91041 0.33586 0.84641 0.0
H2876 H 0.91729 0.3731 0.85359 0.0
H2877 H 0.03853 0.32914 0.84819 0.0
H2878 H 0.07202 0.3677 0.84177 0.0
H2879 H 0.0294 0.33271 0.83692 0.0
C2880 C 0.63764 0.60234 0.67682 0.0
C2881 C 0.60068 0.58165 0.67406 0.0
C2882 C 0.65595 0.64134 0.67727 0.0
C2883 C 0.63663 0.66028 0.67516 0.0
C2884 C 0.59897 0.63934 0.6726 0.0
C2885 C 0.58169 0.60046 0.67196 0.0
C2886 C 0.69625 0.66234 0.67984 0.0
C2887 C 0.57685 0.65801 0.67054 0.0
C2888 C 0.67654 0.75838 0.6843 0.0
C2889 C 0.69385 0.78058 0.67694 0.0
C2890 C 0.6571 0.71944 0.68375 0.0
C2891 C 0.6557 0.70187 0.6757 0.0
C2892 C 0.67303 0.72417 0.66824 0.0
C2893 C 0.69139 0.76315 0.66892 0.0
C2894 C 0.63823 0.69708 0.69182 0.0
C2895 C 0.67309 0.70685 0.65958 0.0
H2896 H 0.65263 0.58808 0.67839 0.0
H2897 H 0.55311 0.58468 0.66985 0.0
H2898 H 0.7127 0.68223 0.6746 0.0
H2899 H 0.69984 0.67863 0.68586 0.0
H2900 H 0.70767 0.64372 0.68104 0.0
H2901 H 0.54751 0.63781 0.66899 0.0
H2902 H 0.57762 0.67508 0.67619 0.0
H2903 H 0.58926 0.67692 0.66489 0.0
H2904 H 0.67813 0.77154 0.69052 0.0
H2905 H 0.70501 0.78 0.66323 0.0
H2906 H 0.65115 0.68053 0.69378 0.0
H2907 H 0.60866 0.67735 0.69041 0.0
H2908 H 0.6399 0.71479 0.69743 0.0
H2909 H 0.68668 0.68996 0.66033 0.0
H2910 H 0.68776 0.72786 0.65439 0.0
H2911 H 0.6443 0.68797 0.65739 0.0
C2912 C 0.40864 0.0401 0.67711 0.0
C2913 C 0.42941 0.02387 0.67439 0.0
C2914 C 0.36965 0.01933 0.67754 0.0
C2915 C 0.35082 0.98104 0.67547 0.0
C2916 C 0.37186 0.96436 0.67296 0.0
C2917 C 0.41072 0.98604 0.67233 0.0
C2918 C 0.34853 0.03859 0.68005 0.0
C2919 C 0.3533 0.92354 0.67095 0.0
C2920 C 0.25239 0.92295 0.68443 0.0
C2921 C 0.23049 0.91799 0.67702 0.0
C2922 C 0.29136 0.94241 0.68396 0.0
C2923 C 0.30922 0.95851 0.67594 0.0
C2924 C 0.28722 0.95348 0.66841 0.0
C2925 C 0.24823 0.93287 0.66901 0.0
C2926 C 0.31342 0.94596 0.6921 0.0
C2927 C 0.30486 0.9708 0.65977 0.0
H2928 H 0.42282 0.06938 0.67864 0.0
H2929 H 0.4266 0.9733 0.67025 0.0
H2930 H 0.32881 0.03513 0.67477 0.0
H2931 H 0.33204 0.02587 0.68605 0.0
H2932 H 0.36709 0.06862 0.68126 0.0
H2933 H 0.37358 0.9144 0.6695 0.0
H2934 H 0.336 0.90731 0.67659 0.0
H2935 H 0.33462 0.91694 0.66525 0.0
H2936 H 0.23898 0.91144 0.69064 0.0
H2937 H 0.2316 0.92959 0.66327 0.0
H2938 H 0.32988 0.97543 0.69406 0.0
H2939 H 0.33322 0.93613 0.69076 0.0
H2940 H 0.2955 0.92994 0.69768 0.0
H2941 H 0.32178 1.00128 0.66052 0.0
H2942 H 0.28405 0.96448 0.65454 0.0
H2943 H 0.32378 0.96083 0.65766 0.0
C2944 C 0.9711 0.37377 0.67849 0.0
C2945 C 0.98729 0.4104 0.67549 0.0
C2946 C 0.99198 0.35573 0.67925 0.0
C2947 C 0.03032 0.37503 0.67722 0.0
C2948 C 0.04699 0.41247 0.6745 0.0
C2949 C 0.02523 0.42945 0.67354 0.0
C2950 C 0.9727 0.31562 0.68198 0.0
C2951 C 0.08785 0.43459 0.67251 0.0
C2952 C 0.08885 0.33486 0.68615 0.0
C2953 C 0.09349 0.31774 0.67872 0.0
C2954 C 0.06924 0.35428 0.68571 0.0
C2955 C 0.05271 0.35579 0.67773 0.0
C2956 C 0.0573 0.3385 0.67021 0.0
C2957 C 0.07798 0.32023 0.67077 0.0
C2958 C 0.06611 0.37312 0.69383 0.0
C2959 C 0.03954 0.33849 0.66161 0.0
H2960 H 0.94176 0.35874 0.67996 0.0
H2961 H 0.03797 0.4578 0.67126 0.0
H2962 H 0.97551 0.29876 0.67675 0.0
H2963 H 0.98589 0.31227 0.68794 0.0
H2964 H 0.94282 0.30447 0.68333 0.0
H2965 H 0.09712 0.46403 0.67106 0.0
H2966 H 0.10401 0.4334 0.67814 0.0
H2967 H 0.09437 0.42247 0.6668 0.0
H2968 H 0.10075 0.33322 0.69232 0.0
H2969 H 0.08092 0.30674 0.66501 0.0
H2970 H 0.03671 0.36041 0.69583 0.0
H2971 H 0.07614 0.40276 0.69245 0.0
H2972 H 0.0822 0.37121 0.6994 0.0
H2973 H 0.00914 0.3254 0.66246 0.0
H2974 H 0.04522 0.32341 0.6564 0.0
H2975 H 0.0498 0.3673 0.65938 0.0
C2976 C 0.9224 0.66814 0.51795 0.0
C2977 C 0.90031 0.65124 0.51056 0.0
C2978 C 0.96138 0.68743 0.51745 0.0
C2979 C 0.97908 0.68906 0.5094 0.0
C2980 C 0.95687 0.67209 0.5019 0.0
C2981 C 0.91788 0.65391 0.50254 0.0
C2982 C 0.98363 0.70594 0.52556 0.0
C2983 C 0.9743 0.67224 0.49324 0.0
C2984 C 0.08059 0.76295 0.50569 0.0
C2985 C 0.09935 0.74384 0.50772 0.0
C2986 C 0.04173 0.74578 0.50636 0.0
C2987 C 0.0207 0.70808 0.50888 0.0
C2988 C 0.03959 0.68865 0.51094 0.0
C2989 C 0.0786 0.70687 0.51046 0.0
C2990 C 0.02315 0.76805 0.50437 0.0
C2991 C 0.01852 0.6483 0.51346 0.0
H2992 H 0.90914 0.66637 0.52417 0.0
H2993 H 0.90112 0.6406 0.49682 0.0
H2994 H 1.0001 0.6929 0.52748 0.0
H2995 H 1.00343 0.73556 0.52421 0.0
H2996 H 0.96584 0.70409 0.53117 0.0
H2997 H 0.95336 0.65768 0.48804 0.0
H2998 H 0.99319 0.70109 0.49109 0.0
H2999 H 0.99121 0.65867 0.49398 0.0
H3000 H 0.09642 0.79155 0.50359 0.0
H3001 H 0.09281 0.69177 0.51197 0.0
H3002 H 1.00597 0.76704 0.51002 0.0
H3003 H 1.00436 0.75593 0.49868 0.0
H3004 H 0.04341 0.79744 0.5029 0.0
H3005 H 1.00214 0.64458 0.51947 0.0
H3006 H 0.03709 0.63682 0.51464 0.0
H3007 H 0.99869 0.63199 0.5082 0.0
C3008 C 0.36546 0.2693 0.50245 0.0
C3009 C 0.36577 0.25212 0.51033 0.0
C3010 C 0.34717 0.28998 0.50177 0.0
C3011 C 0.32778 0.29295 0.50907 0.0
C3012 C 0.32713 0.27476 0.51697 0.0
C3013 C 0.34645 0.25509 0.51753 0.0
C3014 C 0.34938 0.30944 0.49328 0.0
C3015 C 0.30613 0.2762 0.52485 0.0
C3016 C 0.30894 0.37396 0.51035 0.0
C3017 C 0.27285 0.35824 0.50702 0.0
C3018 C 0.32714 0.3532 0.51101 0.0
C3019 C 0.30858 0.31538 0.50848 0.0
C3020 C 0.27172 0.29917 0.50534 0.0
C3021 C 0.25456 0.32084 0.50454 0.0
C3022 C 0.3666 0.372 0.51423 0.0
C3023 C 0.25037 0.25885 0.5028 0.0
H3024 H 0.38058 0.26762 0.49687 0.0
H3025 H 0.34632 0.24187 0.52365 0.0
H3026 H 0.32119 0.29979 0.49069 0.0
H3027 H 0.36237 0.33965 0.49444 0.0
H3028 H 0.36566 0.30466 0.48822 0.0
H3029 H 0.30667 0.25907 0.53035 0.0
H3030 H 0.31819 0.30517 0.52715 0.0
H3031 H 0.27689 0.26637 0.52307 0.0
H3032 H 0.32341 0.40288 0.51223 0.0
H3033 H 0.22663 0.30842 0.50199 0.0
H3034 H 0.38464 0.37009 0.50916 0.0
H3035 H 0.3686 0.35779 0.52016 0.0
H3036 H 0.37739 0.40163 0.51582 0.0
H3037 H 0.26426 0.25366 0.49724 0.0
H3038 H 0.22142 0.24991 0.50087 0.0
H3039 H 0.24987 0.24142 0.50834 0.0
C3040 C 0.6959 0.9356 0.50578 0.0
C3041 C 0.65802 0.91693 0.5078 0.0
C3042 C 0.71762 0.97445 0.50645 0.0
C3043 C 0.70096 0.99551 0.50895 0.0
C3044 C 0.66262 0.9767 0.51098 0.0
C3045 C 0.64179 0.93771 0.51051 0.0
C3046 C 0.75848 0.99298 0.50448 0.0
C3047 C 0.64338 0.99783 0.51349 0.0
C3048 C 0.75923 0.0938 0.51799 0.0
C3049 C 0.7644 0.11582 0.51058 0.0
C3050 C 0.7396 0.05484 0.5175 0.0
C3051 C 0.72356 0.0371 0.50946 0.0
C3052 C 0.72879 0.05922 0.50194 0.0
C3053 C 0.74954 0.0982 0.50257 0.0
C3054 C 0.73584 0.03265 0.52562 0.0
C3055 C 0.71155 0.04173 0.49328 0.0
H3056 H 0.70865 0.91973 0.50371 0.0
H3057 H 0.61248 0.92355 0.51201 0.0
H3058 H 0.76521 0.01174 0.49878 0.0
H3059 H 0.77463 0.01017 0.51013 0.0
H3060 H 0.76759 0.97268 0.50302 0.0
H3061 H 0.61332 0.9793 0.51467 0.0
H3062 H 0.65604 0.01425 0.51949 0.0
H3063 H 0.64693 0.01762 0.50821 0.0
H3064 H 0.7707 0.10711 0.52421 0.0
H3065 H 0.75297 0.11492 0.49684 0.0
H3066 H 0.74564 0.01283 0.52429 0.0
H3067 H 0.70632 0.0162 0.52754 0.0
H3068 H 0.75177 0.05047 0.53122 0.0
H3069 H 0.72149 0.0228 0.49116 0.0
H3070 H 0.71798 0.06262 0.48807 0.0
H3071 H 0.68105 0.02486 0.49401 0.0
C3072 C 0.09639 0.74381 0.68393 0.0
C3073 C 0.07735 0.76254 0.68179 0.0
C3074 C 0.07916 0.70492 0.68333 0.0
C3075 C 0.04149 0.68388 0.68078 0.0
C3076 C 0.02213 0.70275 0.67863 0.0
C3077 C 0.0404 0.74176 0.67904 0.0
C3078 C 0.10133 0.68634 0.68542 0.0
C3079 C 0.98181 0.68165 0.67608 0.0
C3080 C 1.00133 0.58525 0.67193 0.0
C3081 C 0.98426 0.56346 0.67935 0.0
C3082 C 0.02077 0.62423 0.67236 0.0
C3083 C 0.02237 0.64225 0.68035 0.0
C3084 C 1.00524 0.62035 0.68788 0.0
C3085 C 0.98691 0.58135 0.68732 0.0
C3086 C 0.03945 0.64615 0.66422 0.0
C3087 C 1.00537 0.63814 0.69649 0.0
H3088 H 0.12496 0.75966 0.68604 0.0
H3089 H 0.02537 0.75595 0.67745 0.0
H3090 H 0.08912 0.66776 0.69114 0.0
H3091 H 0.10035 0.66895 0.67982 0.0
H3092 H 0.13073 0.70661 0.6869 0.0
H3093 H 0.9704 0.70023 0.67481 0.0
H3094 H 0.97815 0.66506 0.67011 0.0
H3095 H 0.9654 0.66202 0.68136 0.0
H3096 H 0.99959 0.57174 0.66575 0.0
H3097 H 0.97348 0.56482 0.69307 0.0
H3098 H 0.06907 0.66593 0.66558 0.0
H3099 H 0.02653 0.66264 0.66221 0.0
H3100 H 0.03761 0.62814 0.65867 0.0
H3101 H 0.03422 0.65702 0.69864 0.0
H3102 H 0.9907 0.61741 0.70172 0.0
H3103 H 0.9919 0.6551 0.69567 0.0
C3104 C 0.2677 0.30329 0.67796 0.0
C3105 C 0.24876 0.3172 0.68279 0.0
C3106 C 0.30658 0.32408 0.67694 0.0
C3107 C 0.32692 0.36023 0.68056 0.0
C3108 C 0.30739 0.37494 0.68505 0.0
C3109 C 0.26885 0.35296 0.68629 0.0
C3110 C 0.3261 0.3066 0.67238 0.0
C3111 C 0.32729 0.41371 0.68872 0.0
C3112 C 0.42982 0.40275 0.68636 0.0
C3113 C 0.44736 0.4238 0.67889 0.0
C3114 C 0.39084 0.38143 0.68691 0.0
C3115 C 0.36859 0.38217 0.67996 0.0
C3116 C 0.3863 0.40433 0.67252 0.0
C3117 C 0.42531 0.42414 0.672 0.0
C3118 C 0.37349 0.3574 0.69485 0.0
C3119 C 0.36404 0.40736 0.66511 0.0
H3120 H 0.25239 0.27532 0.67542 0.0
H3121 H 0.25434 0.36368 0.6901 0.0
H3122 H 0.34304 0.32428 0.66688 0.0
H3123 H 0.34528 0.30426 0.67703 0.0
H3124 H 0.30646 0.27862 0.6698 0.0
H3125 H 0.3078 0.4225 0.69116 0.0
H3126 H 0.34543 0.41532 0.6942 0.0
H3127 H 0.34525 0.43359 0.68363 0.0
H3128 H 0.44663 0.40185 0.69166 0.0
H3129 H 0.43866 0.44034 0.6662 0.0
H3130 H 0.35506 0.32828 0.6928 0.0
H3131 H 0.35613 0.36644 0.69837 0.0
H3132 H 0.39449 0.35834 0.69947 0.0
H3133 H 0.34671 0.3799 0.66203 0.0
H3134 H 0.38187 0.42716 0.65999 0.0
H3135 H 0.34503 0.41651 0.66767 0.0
C3136 C 0.70748 0.97087 0.67931 0.0
C3137 C 0.69112 0.9338 0.68197 0.0
C3138 C 0.68675 0.98913 0.67883 0.0
C3139 C 0.64837 0.96964 0.68082 0.0
C3140 C 0.63157 0.93186 0.68327 0.0
C3141 C 0.6532 0.91464 0.68394 0.0
C3142 C 0.70613 0.02956 0.67638 0.0
C3143 C 0.59066 0.90957 0.68519 0.0
C3144 C 0.59982 0.0238 0.68718 0.0
C3145 C 0.58516 0.02674 0.67916 0.0
C3146 C 0.6205 0.0055 0.68782 0.0
C3147 C 0.62585 0.98871 0.6803 0.0
C3148 C 0.61003 0.99062 0.67225 0.0
C3149 C 0.59047 0.01001 0.67175 0.0
C3150 C 0.63751 1.00502 0.6965 0.0
C3151 C 0.61394 0.97231 0.66412 0.0
H3152 H 0.73682 0.98599 0.67784 0.0
H3153 H 0.64034 0.88596 0.68598 0.0
H3154 H 0.69365 0.03348 0.67036 0.0
H3155 H 0.70248 0.04572 0.68166 0.0
H3156 H 0.73621 0.04106 0.67524 0.0
H3157 H 0.58145 0.88013 0.68663 0.0
H3158 H 0.58384 0.92155 0.69089 0.0
H3159 H 0.57467 0.91076 0.67953 0.0
H3160 H 0.59627 0.03698 0.69292 0.0
H3161 H 0.57914 0.01198 0.66552 0.0
H3162 H 0.66802 0.01859 0.69581 0.0
H3163 H 0.62745 0.9761 0.69859 0.0
H3164 H 0.63101 0.01943 0.70171 0.0
H3165 H 0.64351 0.98536 0.66223 0.0
H3166 H 0.59819 0.97438 0.6585 0.0
H3167 H 0.60403 0.94265 0.66542 0.0
C3168 C 0.27466 0.97179 0.17918 0.0
C3169 C 0.2539 0.93483 0.18194 0.0
C3170 C 0.31365 0.98995 0.17869 0.0
C3171 C 0.3325 0.97048 0.18074 0.0
C3172 C 0.31147 0.93281 0.18328 0.0
C3173 C 0.27262 0.91569 0.18397 0.0
C3174 C 0.33475 0.03028 0.17614 0.0
C3175 C 0.33002 0.91052 0.18527 0.0
C3176 C 0.43076 0.01028 0.17166 0.0
C3177 C 0.45286 0.02721 0.17905 0.0
C3178 C 0.39179 0.99102 0.17217 0.0
C3179 C 0.37411 0.98947 0.18021 0.0
C3180 C 0.39632 0.00648 0.1877 0.0
C3181 C 0.4353 0.02462 0.18706 0.0
C3182 C 0.36952 0.97246 0.16406 0.0
C3183 C 0.3789 0.00639 0.19636 0.0
H3184 H 0.26047 0.98689 0.17767 0.0
H3185 H 0.25678 0.88711 0.18608 0.0
H3186 H 0.35461 0.04662 0.18139 0.0
H3187 H 0.3511 0.03392 0.17012 0.0
H3188 H 0.3162 0.04177 0.17495 0.0
H3189 H 0.30975 0.88114 0.18676 0.0
H3190 H 0.34716 0.91147 0.17961 0.0
H3191 H 0.34885 0.92266 0.19095 0.0
H3192 H 0.44401 0.01198 0.16544 0.0
H3193 H 0.45206 0.03796 0.19279 0.0
H3194 H 0.35304 0.9855 0.16213 0.0
H3195 H 0.34972 0.94286 0.16542 0.0
H3196 H 0.38728 0.97429 0.15845 0.0
H3197 H 0.362 0.01997 0.19562 0.0
H3198 H 0.39985 0.02098 0.20156 0.0
H3199 H 0.36002 0.97756 0.19852 0.0
C3200 C 0.99062 0.41164 0.18703 0.0
C3201 C 0.98767 0.4263 0.179 0.0
C3202 C 0.00872 0.39077 0.18765 0.0
C3203 C 0.02531 0.38523 0.18012 0.0
C3204 C 0.02341 0.40107 0.17207 0.0
C3205 C 1.00419 0.42081 0.17158 0.0
C3206 C 0.00918 0.37374 0.19632 0.0
C3207 C 0.04154 0.397 0.16392 0.0
C3208 C 0.09907 0.35744 0.18373 0.0
C3209 C 0.07975 0.31952 0.18177 0.0
C3210 C 0.08201 0.37922 0.18306 0.0
C3211 C 0.04422 0.36256 0.18062 0.0
C3212 C 0.02457 0.32418 0.17864 0.0
C3213 C 0.04268 0.3033 0.17911 0.0
C3214 C 0.10448 0.42012 0.18497 0.0
C3215 C 0.98412 0.30495 0.17621 0.0
H3216 H 0.97758 0.41533 0.19278 0.0
H3217 H 1.0022 0.43213 0.16536 0.0
H3218 H 0.99549 0.34322 0.19564 0.0
H3219 H 0.03811 0.38369 0.19841 0.0
H3220 H 0.99489 0.38034 0.20155 0.0
H3221 H 0.03951 0.41279 0.1583 0.0
H3222 H 0.07119 0.40676 0.16521 0.0
H3223 H 0.02833 0.36742 0.16205 0.0
H3224 H 0.12774 0.37018 0.18577 0.0
H3225 H 0.02744 0.27395 0.17765 0.0
H3226 H 0.09266 0.42704 0.19068 0.0
H3227 H 0.10328 0.43613 0.17931 0.0
H3228 H 0.13392 0.42921 0.18638 0.0
H3229 H 0.96807 0.3087 0.1815 0.0
H3230 H 0.9725 0.27485 0.17507 0.0
H3231 H 0.98021 0.31746 0.17019 0.0
C3232 C 0.59952 0.57951 0.18731 0.0
C3233 C 0.58821 0.56191 0.17915 0.0
C3234 C 0.62017 0.6185 0.18798 0.0
C3235 C 0.6291 0.64066 0.18033 0.0
C3236 C 0.6167 0.62297 0.17211 0.0
C3237 C 0.5969 0.58402 0.17162 0.0
C3238 C 0.63332 0.63596 0.19687 0.0
C3239 C 0.62458 0.6452 0.16379 0.0
C3240 C 0.65646 0.74258 0.18302 0.0
C3241 C 0.69496 0.76083 0.18189 0.0
C3242 C 0.63468 0.70372 0.18237 0.0
C3243 C 0.65186 0.68224 0.18087 0.0
C3244 C 0.69087 0.70063 0.1798 0.0
C3245 C 0.71181 0.73963 0.18016 0.0
C3246 C 0.59321 0.68567 0.18325 0.0
C3247 C 0.71062 0.67904 0.17842 0.0
H3248 H 0.59329 0.56279 0.19317 0.0
H3249 H 0.58819 0.57082 0.16527 0.0
H3250 H 0.664 0.65249 0.19693 0.0
H3251 H 0.62291 0.65521 0.19827 0.0
H3252 H 0.62409 0.61506 0.20218 0.0
H3253 H 0.6112 0.62744 0.15799 0.0
H3254 H 0.61467 0.6653 0.16442 0.0
H3255 H 0.65485 0.66133 0.16263 0.0
H3256 H 0.64328 0.75882 0.18434 0.0
H3257 H 0.7416 0.75349 0.17938 0.0
H3258 H 0.58364 0.66688 0.18899 0.0
H3259 H 0.57957 0.66856 0.17739 0.0
H3260 H 0.58394 0.70624 0.18405 0.0
H3261 H 0.70421 0.65925 0.18389 0.0
H3262 H 0.74111 0.69727 0.178 0.0
H3263 H 0.70076 0.66259 0.17231 0.0
C3264 C 0.30548 0.93164 0.01195 0.0
C3265 C 0.26883 0.91117 1.00898 0.0
C3266 C 0.32329 0.97047 0.01286 0.0
C3267 C 0.30371 0.98938 1.01102 0.0
C3268 C 0.26621 0.96856 1.00832 0.0
C3269 C 0.24948 0.92991 1.0072 0.0
C3270 C 0.36348 0.99138 0.01553 0.0
C3271 C 0.24381 0.98716 1.00653 0.0
C3272 C 0.34429 0.08784 0.02012 0.0
C3273 C 0.36101 0.10972 0.0127 0.0
C3274 C 0.32476 0.04881 0.01964 0.0
C3275 C 0.32282 0.03096 0.01159 0.0
C3276 C 0.33971 0.05299 1.00407 0.0
C3277 C 0.35804 0.0919 1.00469 0.0
C3278 C 0.3063 0.02664 0.02776 0.0
C3279 C 0.33932 0.03545 0.9954 0.0
H3280 H 0.32072 0.91743 0.01329 0.0
H3281 H 0.2211 0.91426 1.00494 0.0
H3282 H 0.38012 0.01127 1.01031 0.0
H3283 H 0.36693 0.00767 0.02154 0.0
H3284 H 0.37481 0.97272 0.01676 0.0
H3285 H 0.21431 0.9669 1.00515 0.0
H3286 H 0.24524 1.00433 0.01222 0.0
H3287 H 0.25551 0.00594 1.00083 0.0
H3288 H 0.34634 0.10127 0.02634 0.0
H3289 H 0.37125 0.10844 0.99893 0.0
H3290 H 0.31924 0.01006 0.02967 0.0
H3291 H 0.27665 0.00694 0.02643 0.0
H3292 H 0.30834 0.04451 0.03337 0.0
H3293 H 0.3525 0.01817 0.99613 0.0
H3294 H 0.35412 0.05633 0.99021 0.0
H3295 H 0.31041 0.01693 0.99325 0.0
C3296 C 0.07907 0.36997 1.01058 0.0
C3297 C 0.09931 0.35436 1.0071 0.0
C3298 C 0.04008 0.34941 1.01118 0.0
C3299 C 0.02062 0.31187 1.00844 0.0
C3300 C 0.0411 0.29575 1.00513 0.0
C3301 C 0.07999 0.31725 1.00439 0.0
C3302 C 0.01963 0.36813 0.01459 0.0
C3303 C 0.0219 0.25571 1.00234 0.0
C3304 C 0.92239 0.25146 0.01746 0.0
C3305 C 0.9001 0.24937 1.01034 0.0
C3306 C 0.96137 0.27082 0.01686 0.0
C3307 C 0.97895 0.2896 1.00903 0.0
C3308 C 0.95658 0.28751 1.0018 0.0
C3309 C 0.91759 0.26711 1.00251 0.0
C3310 C 0.98379 0.27132 0.02467 0.0
C3311 C 0.97385 0.30764 0.99338 0.0
H3312 H 0.09367 0.39867 0.01264 0.0
H3313 H 0.09538 0.30492 1.00171 0.0
H3314 H 0.99969 0.36675 1.00959 0.0
H3315 H 1.00344 0.35351 0.02049 0.0
H3316 H 0.03861 0.3976 0.0163 0.0
H3317 H 0.04176 0.24681 1.00026 0.0
H3318 H 1.00494 0.23777 1.00782 0.0
H3319 H 1.00282 0.25121 0.99683 0.0
H3320 H 0.9093 0.23778 0.02354 0.0
H3321 H 0.90079 0.2661 0.99699 0.0
H3322 H 1.00086 0.30003 0.02711 0.0
H3323 H 1.00305 0.2615 0.02273 0.0
H3324 H 0.96609 0.25371 0.03011 0.0
H3325 H 0.99121 0.33773 0.99468 0.0
H3326 H 0.9528 0.30341 0.98837 0.0
H3327 H 0.99227 0.29808 0.99066 0.0
C3328 C 0.74656 0.65012 1.00213 0.0
C3329 C 0.76122 0.64704 1.01015 0.0
C3330 C 0.72609 0.66866 1.00153 0.0
C3331 C 0.72099 0.68558 1.00906 0.0
C3332 C 0.73687 0.68356 0.01709 0.0
C3333 C 0.75618 0.66392 0.01757 0.0
C3334 C 0.709 0.66923 0.99287 0.0
C3335 C 0.73327 0.702 0.02524 0.0
C3336 C 0.69407 0.7601 1.00556 0.0
C3337 C 0.65622 0.74114 1.00761 0.0
C3338 C 0.71554 0.74265 1.00614 0.0
C3339 C 0.69863 0.70485 1.00858 0.0
C3340 C 0.66031 0.68556 1.01064 0.0
C3341 C 0.63976 0.70403 1.01026 0.0
C3342 C 0.7564 0.76476 1.00416 0.0
C3343 C 0.6408 0.64511 0.01309 0.0
H3344 H 0.74991 0.63683 0.99639 0.0
H3345 H 0.76753 0.66185 0.02378 0.0
H3346 H 0.67851 0.65577 0.99359 0.0
H3347 H 0.71913 0.69817 0.99078 0.0
H3348 H 0.71534 0.65477 0.98764 0.0
H3349 H 0.74911 0.6999 0.03083 0.0
H3350 H 0.74327 0.73168 0.02393 0.0
H3351 H 0.70376 0.68909 0.02716 0.0
H3352 H 0.70701 0.78879 1.00352 0.0
H3353 H 0.61047 0.68905 0.01178 0.0
H3354 H 0.76297 0.75267 0.99845 0.0
H3355 H 0.7725 0.76352 1.0098 0.0
H3356 H 0.7657 0.79422 1.00272 0.0
H3357 H 0.64429 0.62892 1.00779 0.0
H3358 H 0.61075 0.63375 0.01425 0.0
H3359 H 0.65329 0.6411 0.01909 0.0
C3360 C 0.74596 0.09613 0.83904 0.0
C3361 C 0.76477 0.07697 0.84097 0.0
C3362 C 0.70712 0.07891 0.83977 0.0
C3363 C 0.68621 0.04113 0.84223 0.0
C3364 C 0.70515 0.02165 0.84417 0.0
C3365 C 0.74413 0.03991 0.84364 0.0
C3366 C 0.68846 0.1012 0.83791 0.0
C3367 C 0.68416 0.98121 0.84662 0.0
C3368 C 0.58806 1.00066 0.8514 0.0
C3369 C 0.56592 0.98403 0.844 0.0
C3370 C 0.62701 0.02005 0.85087 0.0
C3371 C 0.64462 0.02203 0.84279 0.0
C3372 C 0.62237 1.00532 0.83529 0.0
C3373 C 0.5834 0.98704 0.83595 0.0
C3374 C 0.64935 0.0383 0.85899 0.0
C3375 C 0.63972 0.00584 0.82659 0.0
H3376 H 0.76173 0.1248 0.83699 0.0
H3377 H 0.75839 0.0248 0.84507 0.0
H3378 H 0.66959 0.08928 0.83223 0.0
H3379 H 0.67135 0.09994 0.8436 0.0
H3380 H 0.70867 0.13066 0.83648 0.0
H3381 H 0.70278 0.96973 0.84772 0.0
H3382 H 0.66786 0.97727 0.85266 0.0
H3383 H 0.66426 0.96506 0.84136 0.0
H3384 H 0.57484 0.99862 0.85765 0.0
H3385 H 0.56659 0.97393 0.83022 0.0
H3386 H 0.66907 0.06798 0.85769 0.0
H3387 H 0.66591 0.02526 0.86083 0.0
H3388 H 0.63161 0.03619 0.86463 0.0
H3389 H 0.6585 0.03478 0.82449 0.0
H3390 H 0.61873 0.99142 0.82139 0.0
H3391 H 0.65673 0.99233 0.82724 0.0
C3392 C 0.92638 0.66136 0.83597 0.0
C3393 C 0.94168 0.69664 0.83973 0.0
C3394 C 0.94241 0.63893 0.83725 0.0
C3395 C 0.97581 0.65274 0.84206 0.0
C3396 C 0.99127 0.68841 0.84593 0.0
C3397 C 0.97362 0.70961 0.84487 0.0
C3398 C 0.92387 0.60065 0.83331 0.0
C3399 C 0.02745 0.70496 0.85084 0.0
C3400 C 1.0079 0.58686 0.85062 0.0
C3401 C 0.03118 0.58776 0.84388 0.0
C3402 C 0.98919 0.60714 0.85005 0.0
C3403 C 0.99509 0.63038 0.84273 0.0
C3404 C 0.01904 0.63171 0.83595 0.0
C3405 C 0.03614 0.6099 0.83652 0.0
C3406 C 0.96283 0.60343 0.85726 0.0
C3407 C 0.02729 0.65689 0.82816 0.0
H3408 H 0.90178 0.65131 0.83195 0.0
H3409 H 0.98597 0.73717 0.84764 0.0
H3410 H 0.94122 0.59954 0.82796 0.0
H3411 H 0.92085 0.58003 0.83831 0.0
H3412 H 0.8961 0.59247 0.83061 0.0
H3413 H 0.03562 0.73269 0.85356 0.0
H3414 H 0.02556 0.68652 0.85628 0.0
H3415 H 0.04964 0.70761 0.84638 0.0
H3416 H 1.00398 0.56985 0.85633 0.0
H3417 H 0.05459 0.61126 0.83136 0.0
H3418 H 0.93517 0.59496 0.85446 0.0
H3419 H 0.97273 0.63051 0.86051 0.0
H3420 H 0.95978 0.58284 0.86228 0.0
H3421 H 1.00158 0.64857 0.8244 0.0
H3422 H 0.04804 0.65637 0.8237 0.0
H3423 H 0.03785 0.68574 0.83041 0.0
C3424 C 0.30639 0.26979 0.84401 0.0
C3425 C 0.32219 0.24954 0.84063 0.0
C3426 C 0.32693 0.3088 0.84459 0.0
C3427 C 0.36461 0.32824 0.84195 0.0
C3428 C 0.3809 0.30774 0.83876 0.0
C3429 C 0.35945 0.26885 0.83804 0.0
C3430 C 0.30805 0.32928 0.84788 0.0
C3431 C 0.42107 0.32691 0.83608 0.0
C3432 C 0.40987 0.43112 0.83584 0.0
C3433 C 0.42751 0.44881 0.84366 0.0
C3434 C 0.38929 0.39212 0.8352 0.0
C3435 C 0.38685 0.36992 0.84249 0.0
C3436 C 0.40546 0.38768 0.85033 0.0
C3437 C 0.42505 0.42668 0.85085 0.0
C3438 C 0.3694 0.37465 0.82677 0.0
C3439 C 0.40457 0.36544 0.85821 0.0
H3440 H 0.27758 0.2552 0.84598 0.0
H3441 H 0.37193 0.25346 0.83546 0.0
H3442 H 0.32249 0.34565 0.85377 0.0
H3443 H 0.30954 0.34905 0.84282 0.0
H3444 H 0.27854 0.31031 0.84955 0.0
H3445 H 0.4301 0.30703 0.8341 0.0
H3446 H 0.4258 0.34587 0.83053 0.0
H3447 H 0.43876 0.344 0.84157 0.0
H3448 H 0.41117 0.44778 0.83026 0.0
H3449 H 0.43863 0.43991 0.85693 0.0
H3450 H 0.33928 0.35728 0.82802 0.0
H3451 H 0.37908 0.35621 0.82412 0.0
H3452 H 0.37376 0.39558 0.82171 0.0
H3453 H 0.37573 0.34836 0.86058 0.0
H3454 H 0.42187 0.38326 0.86367 0.0
H3455 H 0.41455 0.34619 0.85638 0.0
C3456 C 0.67704 0.91699 1.00622 0.0
C3457 C 0.65133 0.89463 0.0126 0.0
C3458 C 0.69583 0.95598 1.00683 0.0
C3459 C 0.68748 0.9733 0.01376 0.0
C3460 C 0.66094 0.95068 0.02012 0.0
C3461 C 0.64383 0.91176 0.01956 0.0
C3462 C 0.72494 0.97864 1.00011 0.0
C3463 C 0.65003 0.96757 0.02744 0.0
C3464 C 0.75467 0.07223 0.02129 0.0
C3465 C 0.7415 0.09294 0.01693 0.0
C3466 C 0.73851 0.03379 0.01999 0.0
C3467 C 0.70708 0.01492 0.0145 0.0
C3468 C 0.69379 0.03584 1.01002 0.0
C3469 C 0.71161 0.07468 1.01115 0.0
C3470 C 0.75481 0.01328 0.02462 0.0
C3471 C 0.65965 0.01701 1.00436 0.0
H3472 H 0.68287 0.90389 1.00081 0.0
H3473 H 0.62347 0.89465 0.02442 0.0
H3474 H 0.71678 0.99636 0.99644 0.0
H3475 H 0.75157 0.99731 1.00342 0.0
H3476 H 0.72942 0.96109 0.99537 0.0
H3477 H 0.6273 0.94631 0.03152 0.0
H3478 H 0.67419 0.98438 0.03172 0.0
H3479 H 0.641 0.98642 0.02471 0.0
H3480 H 0.77773 0.08621 0.02578 0.0
H3481 H 0.70093 0.09045 1.00789 0.0
H3482 H 0.75942 0.99575 0.0199 0.0
H3483 H 0.73521 0.99466 0.02965 0.0
H3484 H 0.78149 0.03236 0.02787 0.0
H3485 H 0.66326 1.0005 0.99918 0.0
H3486 H 0.6531 0.03705 1.00122 0.0
H3487 H 0.63564 0.99752 1.0084 0.0
C3488 C 0.93605 0.68725 0.01722 0.0
C3489 C 0.91725 0.64944 0.01514 0.0
C3490 C 0.97494 0.70881 0.01663 0.0
C3491 C 0.99591 0.69205 0.01413 0.0
C3492 C 0.97697 0.65378 0.01203 0.0
C3493 C 0.93795 0.63313 0.01243 0.0
C3494 C 0.9936 0.74961 0.01867 0.0
C3495 C 0.99799 0.63443 1.00952 0.0
C3496 C 0.09452 0.75025 1.00526 0.0
C3497 C 0.11632 0.75513 0.01269 0.0
C3498 C 0.05554 0.73072 1.00569 0.0
C3499 C 0.03753 0.71449 0.01369 0.0
C3500 C 0.05943 0.71939 0.02123 0.0
C3501 C 0.09844 0.74005 0.02067 0.0
C3502 C 0.03361 0.72732 0.99754 0.0
C3503 C 0.04165 0.70194 0.02985 0.0
H3504 H 0.92024 0.70007 0.0193 0.0
H3505 H 0.92369 0.60387 1.01087 0.0
H3506 H 0.01221 0.75607 0.02439 0.0
H3507 H 0.01099 0.76588 0.01306 0.0
H3508 H 0.97339 0.75883 0.02013 0.0
H3509 H 0.97937 0.60443 1.00829 0.0
H3510 H 0.01459 0.64719 1.00354 0.0
H3511 H 0.01762 0.63773 0.01482 0.0
H3512 H 0.10802 0.76191 0.99907 0.0
H3513 H 0.11497 0.74326 0.02642 0.0
H3514 H 0.01389 0.73726 0.99887 0.0
H3515 H 0.01706 0.69786 0.99557 0.0
H3516 H 0.05162 0.74332 0.99197 0.0
H3517 H 0.02281 0.71198 0.03198 0.0
H3518 H 0.06239 0.70807 0.03509 0.0
H3519 H 0.02464 0.67148 0.02907 0.0
C3520 C 0.29311 0.37338 1.00744 0.0
C3521 C 0.2587 0.35973 0.01163 0.0
C3522 C 0.31409 0.35553 1.00823 0.0
C3523 C 0.30003 0.32229 0.01311 0.0
C3524 C 0.26479 0.30778 0.01716 0.0
C3525 C 0.2449 0.32697 0.0165 0.0
C3526 C 0.35196 0.37304 1.00408 0.0
C3527 C 0.24817 0.27204 0.02224 0.0
C3528 C 0.3463 0.26299 1.00985 0.0
C3529 C 0.36802 0.27132 0.01743 0.0
C3530 C 0.3236 0.27883 1.00839 0.0
C3531 C 0.32344 0.30446 0.01451 0.0
C3532 C 0.34633 0.31366 0.02202 0.0
C3533 C 0.36766 0.29659 0.02344 0.0
C3534 C 0.29906 0.26744 1.00042 0.0
C3535 C 0.34842 0.34172 0.02858 0.0
H3536 H 0.30429 0.39888 1.00373 0.0
H3537 H 0.2183 0.31605 0.01971 0.0
H3538 H 0.37325 0.38005 1.00921 0.0
H3539 H 0.35372 0.35326 0.99954 0.0
H3540 H 0.35876 0.39864 1.0004 0.0
H3541 H 0.21923 0.26254 0.02428 0.0
H3542 H 0.24857 0.25008 0.01823 0.0
H3543 H 0.26493 0.27572 0.02818 0.0
H3544 H 0.34608 0.24318 1.00524 0.0
H3545 H 0.38445 0.30331 0.0293 0.0
H3546 H 0.30563 0.29203 0.99637 0.0
H3547 H 0.26971 0.25497 1.00247 0.0
H3548 H 0.3021 0.24716 0.99631 0.0
H3549 H 0.35605 0.36818 0.02523 0.0
H3550 H 0.36895 0.34725 0.03383 0.0
H3551 H 0.32097 0.33173 0.03165 0.0
C3552 C 0.10189 0.35837 0.52005 0.0
C3553 C 0.11923 0.36099 0.512 0.0
C3554 C 0.06292 0.34032 0.52075 0.0
C3555 C 0.04046 0.32344 0.51328 0.0
C3556 C 0.05791 0.32502 0.5052 0.0
C3557 C 0.09688 0.34418 0.50463 0.0
C3558 C 0.04578 0.34021 0.52945 0.0
C3559 C 0.03539 0.3066 0.49712 0.0
C3560 C 0.93892 0.24981 0.51714 0.0
C3561 C 0.92023 0.26905 0.51517 0.0
C3562 C 0.97776 0.26685 0.5164 0.0
C3563 C 0.99885 0.30455 0.51388 0.0
C3564 C 0.98002 0.32412 0.5119 0.0
C3565 C 0.94103 0.30603 0.51244 0.0
C3566 C 0.99625 0.24444 0.51831 0.0
C3567 C 1.00116 0.36447 0.50938 0.0
H3568 H 0.11883 0.37161 0.52576 0.0
H3569 H 0.10993 0.34591 0.49838 0.0
H3570 H 0.02894 0.35389 0.52878 0.0
H3571 H 0.02688 0.31138 0.53161 0.0
H3572 H 0.06689 0.3547 0.53463 0.0
H3573 H 0.05298 0.3084 0.49147 0.0
H3574 H 0.01554 0.27701 0.49847 0.0
H3575 H 0.01896 0.31976 0.49525 0.0
H3576 H 0.92306 0.22121 0.51923 0.0
H3577 H 0.92688 0.32122 0.51097 0.0
H3578 H 0.01524 0.25649 0.52397 0.0
H3579 H 0.01321 0.24537 0.51262 0.0
H3580 H 0.97594 0.21507 0.5198 0.0
H3581 H 0.02119 0.3807 0.51461 0.0
H3582 H 0.98265 0.37607 0.50826 0.0
H3583 H 0.01732 0.36813 0.50333 0.0
C3584 C 0.6566 0.74514 0.52059 0.0
C3585 C 0.65394 0.75999 0.51256 0.0
C3586 C 0.67474 0.7243 0.52123 0.0
C3587 C 0.69164 0.71896 0.51373 0.0
C3588 C 0.69001 0.73496 0.50568 0.0
C3589 C 0.67078 0.7547 0.50517 0.0
C3590 C 0.67494 0.70712 0.5299 0.0
C3591 C 0.70845 0.7311 0.49757 0.0
C3592 C 0.76559 0.69145 0.51742 0.0
C3593 C 0.74647 0.65358 0.5154 0.0
C3594 C 0.74839 0.7131 0.51676 0.0
C3595 C 0.71066 0.69638 0.51427 0.0
C3596 C 0.6912 0.65804 0.51223 0.0
C3597 C 0.70944 0.63728 0.51269 0.0
C3598 C 0.77067 0.75397 0.51873 0.0
C3599 C 0.65081 0.63873 0.50973 0.0
H3600 H 0.64334 0.74868 0.52631 0.0
H3601 H 0.66903 0.76616 0.49894 0.0
H3602 H 0.66134 0.67662 0.52919 0.0
H3603 H 0.7038 0.71708 0.53204 0.0
H3604 H 0.66044 0.71358 0.5351 0.0
H3605 H 0.70653 0.74693 0.49195 0.0
H3606 H 0.73808 0.74095 0.49891 0.0
H3607 H 0.6954 0.70156 0.49567 0.0
H3608 H 0.79423 0.70426 0.51949 0.0
H3609 H 0.69435 0.60798 0.51119 0.0
H3610 H 0.75856 0.7607 0.5244 0.0
H3611 H 0.76965 0.77008 0.51306 0.0
H3612 H 0.80007 0.76312 0.5202 0.0
H3613 H 0.63457 0.64234 0.515 0.0
H3614 H 0.63931 0.60867 0.50858 0.0
H3615 H 0.64703 0.6513 0.50371 0.0
C3616 C 0.25672 0.91958 0.50571 0.0
C3617 C 0.25792 0.89729 0.51243 0.0
C3618 C 0.27706 0.95858 0.50625 0.0
C3619 C 0.30066 0.97596 0.51352 0.0
C3620 C 0.30232 0.95343 0.52027 0.0
C3621 C 0.28043 0.91452 0.51972 0.0
C3622 C 0.27301 0.98117 0.49909 0.0
C3623 C 0.32788 0.97041 0.52799 0.0
C3624 C 0.37977 0.07662 0.51127 0.0
C3625 C 0.36704 0.09559 0.51649 0.0
C3626 C 0.35852 0.03779 0.51021 0.0
C3627 C 0.32302 0.01758 0.51417 0.0
C3628 C 0.30943 0.03717 0.51906 0.0
C3629 C 0.33192 0.07562 0.52033 0.0
C3630 C 0.37485 0.01816 0.50521 0.0
C3631 C 0.27132 0.01744 0.52309 0.0
H3632 H 0.23943 0.90644 0.50004 0.0
H3633 H 0.28201 0.89747 0.52487 0.0
H3634 H 0.26463 1.00034 0.50193 0.0
H3635 H 0.29994 0.99835 0.49576 0.0
H3636 H 0.25221 0.96359 0.49411 0.0
H3637 H 0.32763 0.94918 0.53242 0.0
H3638 H 0.35662 0.98873 0.52567 0.0
H3639 H 0.31972 0.98778 0.53181 0.0
H3640 H 0.4072 0.09185 0.50843 0.0
H3641 H 0.32204 0.09016 0.5244 0.0
H3642 H 0.35614 1.00157 0.49982 0.0
H3643 H 0.37774 0.99866 0.50964 0.0
H3644 H 0.40243 0.03772 0.50242 0.0
H3645 H 0.25048 0.99982 0.51813 0.0
H3646 H 0.26326 0.03703 0.52585 0.0
H3647 H 0.27045 0.99899 0.52842 0.0
C3648 C 0.01275 0.42527 0.35125 0.0
C3649 C 0.02911 0.44729 0.34382 0.0
C3650 C 0.99333 0.38632 0.35075 0.0
C3651 C 0.99104 0.3686 0.34267 0.0
C3652 C 1.00742 0.39073 0.33513 0.0
C3653 C 0.02575 0.4297 0.33577 0.0
C3654 C 0.97545 0.36411 0.35891 0.0
C3655 C 1.00653 0.37324 0.32642 0.0
C3656 C 0.97357 0.26928 0.34358 0.0
C3657 C 0.9364 0.24848 0.34099 0.0
C3658 C 0.99174 0.30826 0.34405 0.0
C3659 C 0.97205 0.32702 0.34215 0.0
C3660 C 0.93417 0.30594 0.33979 0.0
C3661 C 0.91704 0.2671 0.3391 0.0
C3662 C 0.03229 0.32943 0.34639 0.0
C3663 C 0.91167 0.32443 0.33798 0.0
H3664 H 0.01504 0.43857 0.35749 0.0
H3665 H 0.03864 0.44643 0.33001 0.0
H3666 H 0.94574 0.34426 0.35767 0.0
H3667 H 0.98868 0.34769 0.36072 0.0
H3668 H 0.97769 0.38192 0.36455 0.0
H3669 H 0.02061 0.39415 0.32119 0.0
H3670 H 0.0202 0.35637 0.32703 0.0
H3671 H 0.97751 0.35431 0.3244 0.0
H3672 H 0.98883 0.25514 0.34498 0.0
H3673 H 0.88829 0.25119 0.33712 0.0
H3674 H 0.03645 0.34581 0.35243 0.0
H3675 H 0.04814 0.34926 0.34109 0.0
H3676 H 0.04393 0.31093 0.34746 0.0
H3677 H 0.91309 0.34161 0.34367 0.0
H3678 H 0.88216 0.30411 0.33662 0.0
H3679 H 0.92329 0.3432 0.33227 0.0
C3680 C 0.74372 0.70663 0.34442 0.0
C3681 C 0.76411 0.69086 0.34113 0.0
C3682 C 0.70469 0.68605 0.34491 0.0
C3683 C 0.68541 0.64841 0.34225 0.0
C3684 C 0.70606 0.63214 0.33915 0.0
C3685 C 0.74496 0.65362 0.33853 0.0
C3686 C 0.68403 0.70487 0.34811 0.0
C3687 C 0.68704 0.59199 0.33646 0.0
C3688 C 0.58673 0.58776 0.35094 0.0
C3689 C 0.56487 0.58533 0.3437 0.0
C3690 C 0.62573 0.60743 0.35051 0.0
C3691 C 0.64374 0.62611 0.3427 0.0
C3692 C 0.62182 0.62365 0.33534 0.0
C3693 C 0.5828 0.60301 0.3359 0.0
C3694 C 0.64769 0.60833 0.35844 0.0
C3695 C 0.63959 0.64361 0.32694 0.0
H3696 H 0.75821 0.73544 0.3464 0.0
H3697 H 0.76048 0.64118 0.336 0.0
H3698 H 0.6645 0.70343 0.34299 0.0
H3699 H 0.66735 0.69036 0.35396 0.0
H3700 H 0.7029 0.73436 0.34982 0.0
H3701 H 0.70703 0.58301 0.33455 0.0
H3702 H 0.66971 0.57425 0.34192 0.0
H3703 H 0.66833 0.58729 0.33085 0.0
H3704 H 0.57329 0.57415 0.35699 0.0
H3705 H 0.56632 0.60173 0.33029 0.0
H3706 H 0.66459 0.63716 0.36083 0.0
H3707 H 0.66709 0.59846 0.35668 0.0
H3708 H 0.62968 0.59096 0.36387 0.0
H3709 H 0.65681 0.67374 0.32821 0.0
H3710 H 0.61885 0.63919 0.32183 0.0
H3711 H 0.65824 0.63406 0.32436 0.0
C3712 C 0.30608 0.03964 0.34374 0.0
C3713 C 0.3225 0.07672 0.34108 0.0
C3714 C 0.3267 0.02123 0.34415 0.0
C3715 C 0.36502 0.04057 0.34209 0.0
C3716 C 0.38188 0.07835 0.33964 0.0
C3717 C 0.36036 0.09573 0.33903 0.0
C3718 C 0.30724 0.98081 0.34661 0.0
C3719 C 0.42273 0.1005 0.33765 0.0
C3720 C 0.42292 1.00006 0.3511 0.0
C3721 C 0.42805 0.98321 0.34369 0.0
C3722 C 0.40341 0.01952 0.35062 0.0
C3723 C 0.38746 0.02138 0.34258 0.0
C3724 C 0.39264 1.00448 0.33506 0.0
C3725 C 0.41328 0.98611 0.33568 0.0
C3726 C 0.39972 0.03795 0.35876 0.0
C3727 C 0.37549 1.0049 0.32641 0.0
H3728 H 0.27679 0.02463 0.34526 0.0
H3729 H 0.37326 0.1244 0.33699 0.0
H3730 H 0.31076 0.96459 0.34132 0.0
H3731 H 0.31978 0.97686 0.35261 0.0
H3732 H 0.27719 0.96941 0.34777 0.0
H3733 H 0.43199 0.12995 0.3362 0.0
H3734 H 0.43885 0.09935 0.3433 0.0
H3735 H 0.42935 0.08839 0.33196 0.0
H3736 H 0.43434 0.99813 0.35732 0.0
H3737 H 0.41669 0.97285 0.32994 0.0
H3738 H 0.3702 0.02499 0.36067 0.0
H3739 H 0.40968 0.06761 0.35744 0.0
H3740 H 0.41556 0.0359 0.36436 0.0
H3741 H 0.34499 0.99139 0.32713 0.0
H3742 H 0.38185 0.99041 0.32118 0.0
H3743 H 0.38556 0.03381 0.3243 0.0
C3744 C 0.13637 0.34601 0.07608 0.0
C3745 C 0.16931 0.35591 0.07153 0.0
C3746 C 0.13268 0.33735 0.08507 0.0
C3747 C 0.16264 0.33853 0.08972 0.0
C3748 C 0.19593 0.34834 0.08518 0.0
C3749 C 0.19889 0.35693 0.07617 0.0
C3750 C 0.09673 0.32727 0.08961 0.0
C3751 C 0.22851 0.34979 0.08984 0.0
C3752 C 0.16319 0.34903 0.11462 0.0
C3753 C 0.14861 0.31239 0.11754 0.0
C3754 C 0.16845 0.35797 0.10564 0.0
C3755 C 0.15905 0.3297 0.09934 0.0
C3756 C 0.14502 0.2928 0.10224 0.0
C3757 C 0.13995 0.28462 0.11126 0.0
C3758 C 0.18358 0.3977 0.10289 0.0
C3759 C 0.13456 0.26172 0.09579 0.0
H3760 H 0.11351 0.34574 0.07265 0.0
H3761 H 0.22435 0.36414 0.07275 0.0
H3762 H 0.08497 0.29948 0.09264 0.0
H3763 H 0.10181 0.34724 0.09496 0.0
H3764 H 0.07588 0.32713 0.08507 0.0
H3765 H 0.2524 0.35773 0.0854 0.0
H3766 H 0.23751 0.37002 0.09529 0.0
H3767 H 0.22032 0.3224 0.09274 0.0
H3768 H 0.17054 0.37089 0.11937 0.0
H3769 H 0.12816 0.25614 0.11336 0.0
H3770 H 0.16293 0.40005 0.09878 0.0
H3771 H 0.20879 0.40702 0.09885 0.0
H3772 H 0.19056 0.41663 0.10857 0.0
H3773 H 0.11159 0.25877 0.09157 0.0
H3774 H 0.12573 0.23484 0.09908 0.0
H3775 H 0.15831 0.26814 0.09144 0.0
C3776 C 0.62459 0.8019 0.07821 0.0
C3777 C 0.65209 0.81092 0.07183 0.0
C3778 C 0.63328 0.80707 0.08721 0.0
C3779 C 0.67041 0.82156 0.08998 0.0
C3780 C 0.6984 0.83137 0.08358 0.0
C3781 C 0.68896 0.82602 0.07463 0.0
C3782 C 0.60249 0.79619 0.09377 0.0
C3783 C 0.73835 0.84699 0.0862 0.0
C3784 C 0.69856 0.86107 0.11315 0.0
C3785 C 0.69813 0.83158 0.1177 0.0
C3786 C 0.68946 0.8582 0.10418 0.0
C3787 C 0.67979 0.82508 0.09957 0.0
C3788 C 0.67926 0.79524 0.10412 0.0
C3789 C 0.68837 0.79883 0.11308 0.0
C3790 C 0.69021 0.89065 0.09963 0.0
C3791 C 0.66936 0.75949 0.0995 0.0
H3792 H 0.59595 0.78973 0.07621 0.0
H3793 H 0.7106 0.83367 0.0698 0.0
H3794 H 0.60002 0.77324 0.09792 0.0
H3795 H 0.60891 0.81979 0.09817 0.0
H3796 H 0.57538 0.78715 0.09058 0.0
H3797 H 0.75701 0.85433 0.08045 0.0
H3798 H 0.74756 0.87207 0.09028 0.0
H3799 H 0.74129 0.82647 0.09022 0.0
H3800 H 0.70566 0.88639 0.11663 0.0
H3801 H 0.68855 0.77605 0.11644 0.0
H3802 H 0.66257 0.88219 0.09683 0.0
H3803 H 0.71014 0.89997 0.09411 0.0
H3804 H 0.69813 0.9144 0.10411 0.0
H3805 H 0.64136 0.74744 0.09658 0.0
H3806 H 0.66982 0.73872 0.10396 0.0
H3807 H 0.68908 0.76492 0.09407 0.0
C3808 C 0.15892 0.87171 0.11166 0.0
C3809 C 0.17778 0.86316 0.11804 0.0
C3810 C 0.1621 0.86611 0.10268 0.0
C3811 C 0.18479 0.85166 0.09992 0.0
C3812 C 0.20333 0.8423 0.10632 0.0
C3813 C 0.19959 0.84809 0.11526 0.0
C3814 C 0.14184 0.87655 0.09612 0.0
C3815 C 0.22771 0.82672 0.10371 0.0
C3816 C 0.17278 0.81113 0.07687 0.0
C3817 C 0.20163 0.84048 0.07224 0.0
C3818 C 0.16683 0.81438 0.08583 0.0
C3819 C 0.19032 0.84775 0.09035 0.0
C3820 C 0.21941 0.87747 0.08571 0.0
C3821 C 0.22468 0.8735 0.07676 0.0
C3822 C 0.13536 0.78206 0.09048 0.0
C3823 C 0.2453 0.91347 0.09024 0.0
H3824 H 0.14242 0.88386 0.11366 0.0
H3825 H 0.21388 0.84083 0.12009 0.0
H3826 H 0.16209 0.89936 0.0919 0.0
H3827 H 0.12459 0.85272 0.09178 0.0
H3828 H 0.12376 0.88559 0.09931 0.0
H3829 H 0.23927 0.81968 0.10946 0.0
H3830 H 0.21179 0.80147 0.09968 0.0
H3831 H 0.25099 0.84714 0.09963 0.0
H3832 H 0.15456 0.78563 0.07345 0.0
H3833 H 0.24748 0.89617 0.07334 0.0
H3834 H 0.11621 0.79054 0.09329 0.0
H3835 H 0.14624 0.77306 0.096 0.0
H3836 H 0.11944 0.7581 0.08606 0.0
H3837 H 0.22933 0.92551 0.09315 0.0
H3838 H 0.2663 0.9341 0.08571 0.0
H3839 H 0.25986 0.90838 0.09566 0.0
C3840 C 0.35729 0.1329 0.44616 0.0
C3841 C 0.36269 0.16361 0.45111 0.0
C3842 C 0.34804 0.1296 0.43722 0.0
C3843 C 0.34401 0.15766 0.43302 0.0
C3844 C 0.34932 0.1887 0.43796 0.0
C3845 C 0.35863 0.19134 0.44691 0.0
C3846 C 0.34286 0.0961 0.43223 0.0
C3847 C 0.34514 0.21918 0.43379 0.0
C3848 C 0.35299 0.16343 0.40806 0.0
C3849 C 0.31585 0.14457 0.40533 0.0
C3850 C 0.36251 0.16849 0.41701 0.0
C3851 C 0.3343 0.15438 0.42346 0.0
C3852 C 0.29679 0.13594 0.42075 0.0
C3853 C 0.28806 0.13126 0.41176 0.0
C3854 C 0.40285 0.18845 0.41957 0.0
C3855 C 0.26577 0.12035 0.42737 0.0
H3856 H 0.36098 0.1116 0.44925 0.0
H3857 H 0.36236 0.21502 0.45065 0.0
H3858 H 0.31474 0.08122 0.42933 0.0
H3859 H 0.36296 0.10489 0.42675 0.0
H3860 H 0.34664 0.07654 0.43645 0.0
H3861 H 0.35017 0.2415 0.4385 0.0
H3862 H 0.36482 0.23146 0.42826 0.0
H3863 H 0.31685 0.20767 0.43107 0.0
H3864 H 0.37477 0.17432 0.40319 0.0
H3865 H 0.25928 0.11615 0.40978 0.0
H3866 H 0.40919 0.16954 0.42332 0.0
H3867 H 0.40899 0.21219 0.42389 0.0
H3868 H 0.42148 0.19884 0.41379 0.0
H3869 H 0.26679 0.09845 0.43127 0.0
H3870 H 0.23811 0.10834 0.42424 0.0
H3871 H 0.26911 0.14229 0.43199 0.0
C3872 C 0.87652 0.15667 0.41158 0.0
C3873 C 0.86765 0.17529 0.4052 0.0
C3874 C 0.87154 0.16032 0.42058 0.0
C3875 C 0.8574 0.18325 0.42336 0.0
C3876 C 0.84775 0.20159 0.41697 0.0
C3877 C 0.85292 0.19737 0.40801 0.0
C3878 C 0.88225 0.14025 0.42713 0.0
C3879 C 0.8325 0.22622 0.4196 0.0
C3880 C 0.81821 0.17222 0.44656 0.0
C3881 C 0.84789 0.20112 0.4511 0.0
C3882 C 0.82091 0.16596 0.43758 0.0
C3883 C 0.85404 0.18919 0.43295 0.0
C3884 C 0.88408 0.21835 0.43749 0.0
C3885 C 0.88066 0.22393 0.44646 0.0
C3886 C 0.78825 0.13442 0.43304 0.0
C3887 C 0.91986 0.24399 0.43285 0.0
H3888 H 0.88842 0.13997 0.40956 0.0
H3889 H 0.8454 0.21149 0.40319 0.0
H3890 H 0.90531 0.16062 0.43127 0.0
H3891 H 0.85864 0.12321 0.43154 0.0
H3892 H 0.89106 0.12201 0.42393 0.0
H3893 H 0.82525 0.23765 0.41385 0.0
H3894 H 0.80742 0.21054 0.42369 0.0
H3895 H 0.85319 0.24959 0.42361 0.0
H3896 H 0.79288 0.15416 0.45005 0.0
H3897 H 0.90359 0.24677 0.4498 0.0
H3898 H 0.79645 0.11505 0.43024 0.0
H3899 H 0.77905 0.14516 0.42753 0.0
H3900 H 0.7645 0.11877 0.43754 0.0
H3901 H 0.93167 0.22784 0.42992 0.0
H3902 H 0.94077 0.26512 0.43731 0.0
H3903 H 0.91453 0.25837 0.42743 0.0
C3904 C 0.81738 0.65889 0.40814 0.0
C3905 C 0.83874 0.6958 0.40534 0.0
C3906 C 0.81329 0.64951 0.41709 0.0
C3907 C 0.831 0.6776 0.42349 0.0
C3908 C 0.8532 0.71479 0.42071 0.0
C3909 C 0.85675 0.72341 0.41172 0.0
C3910 C 0.78946 0.60949 0.41971 0.0
C3911 C 0.87256 0.74569 0.42727 0.0
C3912 C 0.79008 0.65925 0.44657 0.0
C3913 C 0.81353 0.65019 0.45122 0.0
C3914 C 0.79552 0.66824 0.4376 0.0
C3915 C 0.82518 0.66826 0.43308 0.0
C3916 C 0.84904 0.65924 0.43772 0.0
C3917 C 0.84291 0.65028 0.4467 0.0
C3918 C 0.76922 0.67743 0.43294 0.0
C3919 C 0.8811 0.65909 0.4332 0.0
H3920 H 0.80374 0.63718 0.40331 0.0
H3921 H 0.87288 0.75207 0.4097 0.0
H3922 H 0.80561 0.6007 0.42382 0.0
H3923 H 0.76579 0.60614 0.42371 0.0
H3924 H 0.77848 0.59077 0.41397 0.0
H3925 H 0.89027 0.77288 0.42408 0.0
H3926 H 0.85177 0.74769 0.4314 0.0
H3927 H 0.89003 0.73974 0.43169 0.0
H3928 H 0.76688 0.65865 0.4499 0.0
H3929 H 0.86146 0.64371 0.45021 0.0
H3930 H 0.75527 0.65758 0.42751 0.0
H3931 H 0.78477 0.70544 0.43001 0.0
H3932 H 0.74773 0.67655 0.43739 0.0
H3933 H 0.87084 0.63914 0.42769 0.0
H3934 H 0.89718 0.65156 0.43771 0.0
H3935 H 0.89996 0.68681 0.4304 0.0
C3936 C 0.89367 0.68437 0.90979 0.0
C3937 C 0.86968 0.69259 0.9051 0.0
C3938 C 0.88808 0.675 0.91874 0.0
C3939 C 0.8577 0.67372 0.92321 0.0
C3940 C 0.8333 0.68189 0.91853 0.0
C3941 C 0.83959 0.69126 0.90957 0.0
C3942 C 0.91497 0.66674 0.92343 0.0
C3943 C 0.80047 0.6807 0.92299 0.0
C3944 C 0.8265 0.61752 0.94443 0.0
C3945 C 0.84351 0.64498 0.95089 0.0
C3946 C 0.83028 0.6265 0.93545 0.0
C3947 C 0.85168 0.66392 0.93277 0.0
C3948 C 0.86839 0.69185 0.93925 0.0
C3949 C 0.86412 0.68209 0.94818 0.0
C3950 C 0.812 0.59577 0.92881 0.0
C3951 C 0.89133 0.73209 0.93673 0.0
H3952 H 0.9174 0.68593 0.9065 0.0
H3953 H 0.82062 0.69717 0.90604 0.0
H3954 H 0.9282 0.68649 0.92891 0.0
H3955 H 0.90003 0.63856 0.9263 0.0
H3956 H 0.93701 0.66857 0.91903 0.0
H3957 H 0.78405 0.68772 0.91847 0.0
H3958 H 0.78214 0.65268 0.92572 0.0
H3959 H 0.80994 0.70039 0.92856 0.0
H3960 H 0.81098 0.58872 0.94637 0.0
H3961 H 0.87699 0.70367 0.95307 0.0
H3962 H 0.83343 0.59476 0.92472 0.0
H3963 H 0.79419 0.60115 0.92437 0.0
H3964 H 0.79485 0.56829 0.93193 0.0
H3965 H 0.91547 0.7364 0.93278 0.0
H3966 H 0.90158 0.7506 0.94253 0.0
H3967 H 0.87477 0.74033 0.93261 0.0
C3968 C 0.2909 0.17208 0.91138 0.0
C3969 C 0.31813 0.18286 0.90486 0.0
C3970 C 0.30028 0.17727 0.92032 0.0
C3971 C 0.33786 0.19363 0.92288 0.0
C3972 C 0.36548 0.20442 0.91634 0.0
C3973 C 0.35533 0.19897 0.90744 0.0
C3974 C 0.26991 0.16546 0.92704 0.0
C3975 C 0.40584 0.22172 0.91876 0.0
C3976 C 0.36627 0.23731 0.94561 0.0
C3977 C 0.36846 0.20968 0.95038 0.0
C3978 C 0.35629 0.23245 0.93669 0.0
C3979 C 0.34822 0.19915 0.93238 0.0
C3980 C 0.35008 0.17106 0.93717 0.0
C3981 C 0.36006 0.17662 0.94607 0.0
C3982 C 0.35466 0.26314 0.93186 0.0
C3983 C 0.34156 0.13506 0.93288 0.0
H3984 H 0.26215 0.16021 0.90948 0.0
H3985 H 0.37659 0.20707 0.90249 0.0
H3986 H 0.27042 0.14502 0.93159 0.0
H3987 H 0.27451 0.18966 0.93101 0.0
H3988 H 0.24203 0.15297 0.924 0.0
H3989 H 0.42398 0.22874 0.91292 0.0
H3990 H 0.41456 0.24732 0.92261 0.0
H3991 H 0.41012 0.20249 0.92295 0.0
H3992 H 0.37306 0.26311 0.94881 0.0
H3993 H 0.36097 0.15477 0.94969 0.0
H3994 H 0.32668 0.25267 0.92903 0.0
H3995 H 0.37458 0.27285 0.92633 0.0
H3996 H 0.36116 0.2871 0.93615 0.0
H3997 H 0.31295 0.12095 0.93026 0.0
H3998 H 0.34435 0.11601 0.93749 0.0
H3999 H 0.36049 0.14057 0.92727 0.0
C4000 C 0.8698 0.15685 0.91104 0.0
C4001 C 0.83998 0.14486 0.90518 0.0
C4002 C 0.86584 0.16212 0.92 0.0
C4003 C 0.83126 0.1555 0.92326 0.0
C4004 C 0.80124 0.14408 0.91737 0.0
C4005 C 0.80591 0.13883 0.90845 0.0
C4006 C 0.89863 0.17434 0.92601 0.0
C4007 C 0.7639 0.13676 0.92053 0.0
C4008 C 0.80847 0.13316 0.94754 0.0
C4009 C 0.81448 0.167 0.95096 0.0
C4010 C 0.81426 0.1292 0.93861 0.0
C4011 C 0.82621 0.15974 0.93285 0.0
C4012 C 0.83271 0.19407 0.93626 0.0
C4013 C 0.82689 0.19731 0.94523 0.0
C4014 C 0.80702 0.09208 0.9353 0.0
C4015 C 0.84548 0.22738 0.9304 0.0
H4016 H 0.89643 0.16218 0.90862 0.0
H4017 H 0.78243 0.12902 0.90408 0.0
H4018 H 0.90481 0.20031 0.9294 0.0
H4019 H 0.89204 0.15308 0.93113 0.0
H4020 H 0.92382 0.17899 0.92246 0.0
H4021 H 0.74371 0.12934 0.91509 0.0
H4022 H 0.75255 0.11381 0.92535 0.0
H4023 H 0.76671 0.16156 0.92391 0.0
H4024 H 0.79832 0.10931 0.9518 0.0
H4025 H 0.83218 0.22376 0.94776 0.0
H4026 H 0.83208 0.09506 0.93202 0.0
H4027 H 0.78454 0.08132 0.93036 0.0
H4028 H 0.79896 0.07138 0.94063 0.0
H4029 H 0.87177 0.23384 0.92713 0.0
H4030 H 0.84982 0.25226 0.93405 0.0
H4031 H 0.8247 0.22126 0.92519 0.0
C4032 C 0.63044 0.85369 0.5784 0.0
C4033 C 0.6464 0.8408 0.57224 0.0
C4034 C 0.64105 0.85848 0.58726 0.0
C4035 C 0.66824 0.85001 0.59015 0.0
C4036 C 0.68433 0.83676 0.58399 0.0
C4037 C 0.67341 0.83252 0.57513 0.0
C4038 C 0.62345 0.87313 0.59353 0.0
C4039 C 0.71316 0.82709 0.58677 0.0
C4040 C 0.72073 0.89623 0.61118 0.0
C4041 C 0.70197 0.86849 0.61749 0.0
C4042 C 0.7103 0.89046 0.6023 0.0
C4043 C 0.6804 0.85597 0.59956 0.0
C4044 C 0.66154 0.82769 0.60587 0.0
C4045 C 0.67238 0.83433 0.61474 0.0
C4046 C 0.73096 0.9216 0.59587 0.0
C4047 C 0.62974 0.79041 0.60325 0.0
H4048 H 0.61002 0.86078 0.57624 0.0
H4049 H 0.68572 0.82227 0.57047 0.0
H4050 H 0.61 0.85332 0.59899 0.0
H4051 H 0.64502 0.89956 0.59643 0.0
H4052 H 0.60242 0.87799 0.59029 0.0
H4053 H 0.72233 0.81622 0.58127 0.0
H4054 H 0.73765 0.85194 0.58948 0.0
H4055 H 0.70198 0.80602 0.59205 0.0
H4056 H 0.74322 0.92294 0.61322 0.0
H4057 H 0.65789 0.81258 0.61952 0.0
H4058 H 0.71168 0.92944 0.59285 0.0
H4059 H 0.74243 0.91242 0.59051 0.0
H4060 H 0.75401 0.94651 0.59899 0.0
H4061 H 0.60702 0.79372 0.60047 0.0
H4062 H 0.61868 0.77093 0.60886 0.0
H4063 H 0.63878 0.77798 0.59809 0.0
C4064 C 0.20021 0.83963 0.57645 0.0
C4065 C 0.17044 0.81147 0.57177 0.0
C4066 C 0.19702 0.84573 0.58542 0.0
C4067 C 0.16328 0.82307 0.58989 0.0
C4068 C 0.13315 0.79466 0.5852 0.0
C4069 C 0.13707 0.78924 0.57626 0.0
C4070 C 0.2298 0.87646 0.59011 0.0
C4071 C 0.09673 0.76965 0.58967 0.0
C4072 C 0.1621 0.81362 0.61483 0.0
C4073 C 0.14817 0.83646 0.61759 0.0
C4074 C 0.16773 0.80953 0.60589 0.0
C4075 C 0.1594 0.82879 0.59947 0.0
C4076 C 0.14609 0.85248 0.6022 0.0
C4077 C 0.14061 0.85597 0.61118 0.0
C4078 C 0.18205 0.78406 0.60332 0.0
C4079 C 0.13681 0.87356 0.59562 0.0
H4080 H 0.22601 0.85726 0.57308 0.0
H4081 H 0.11404 0.76695 0.5728 0.0
H4082 H 0.22219 0.8963 0.5929 0.0
H4083 H 0.23803 0.86496 0.59566 0.0
H4084 H 0.25404 0.89176 0.58573 0.0
H4085 H 0.07582 0.7491 0.58511 0.0
H4086 H 0.101 0.75457 0.59511 0.0
H4087 H 0.08547 0.78637 0.59256 0.0
H4088 H 0.16863 0.7988 0.61967 0.0
H4089 H 0.12934 0.87327 0.61316 0.0
H4090 H 0.20757 0.79931 0.59934 0.0
H4091 H 0.16125 0.76121 0.5992 0.0
H4092 H 0.18828 0.7719 0.60909 0.0
H4093 H 0.16094 0.89026 0.59132 0.0
H4094 H 0.12854 0.89229 0.59879 0.0
H4095 H 0.11379 0.85385 0.59137 0.0
C4096 C 0.18831 0.32327 0.5735 0.0
C4097 C 0.20907 0.36059 0.57099 0.0
C4098 C 0.18343 0.3128 0.58238 0.0
C4099 C 0.19973 0.34022 0.58897 0.0
C4100 C 0.22057 0.37793 0.58649 0.0
C4101 C 0.22496 0.38762 0.57757 0.0
C4102 C 0.16079 0.27231 0.58471 0.0
C4103 C 0.23856 0.4081 0.59328 0.0
C4104 C 0.16015 0.3168 0.61212 0.0
C4105 C 0.18516 0.30886 0.61642 0.0
C4106 C 0.16456 0.32698 0.60323 0.0
C4107 C 0.19482 0.32951 0.59845 0.0
C4108 C 0.22036 0.32185 0.60275 0.0
C4109 C 0.21525 0.31166 0.61166 0.0
C4110 C 0.13674 0.33506 0.59895 0.0
C4111 C 0.25301 0.32418 0.59792 0.0
H4112 H 0.17557 0.30215 0.5685 0.0
H4113 H 0.24158 0.41647 0.57574 0.0
H4114 H 0.17786 0.26379 0.58854 0.0
H4115 H 0.13707 0.26753 0.58889 0.0
H4116 H 0.14998 0.25436 0.57883 0.0
H4117 H 0.25361 0.43611 0.5903 0.0
H4118 H 0.21731 0.40701 0.59782 0.0
H4119 H 0.25835 0.40378 0.59724 0.0
H4120 H 0.13716 0.31541 0.61574 0.0
H4121 H 0.23454 0.30522 0.61485 0.0
H4122 H 0.1237 0.3163 0.5933 0.0
H4123 H 0.15089 0.36378 0.5964 0.0
H4124 H 0.11462 0.33167 0.60355 0.0
H4125 H 0.24316 0.30451 0.59235 0.0
H4126 H 0.27062 0.31782 0.6022 0.0
H4127 H 0.27027 0.35233 0.59516 0.0
C4128 C 0.95555 0.47163 0.74539 0.0
C4129 C 0.98281 0.48041 0.73896 0.0
C4130 C 0.96449 0.47674 0.75437 0.0
C4131 C 1.00166 0.49091 0.75708 0.0
C4132 C 0.02942 0.50047 0.75063 0.0
C4133 C 0.01972 0.49517 0.74169 0.0
C4134 C 0.93394 0.46612 0.76099 0.0
C4135 C 0.0694 0.51576 0.75318 0.0
C4136 C 0.03052 0.53039 0.78023 0.0
C4137 C 0.02986 0.50075 0.78476 0.0
C4138 C 0.02131 0.52759 0.77127 0.0
C4139 C 0.01128 0.4944 0.76665 0.0
C4140 C 0.01056 0.46442 0.77118 0.0
C4141 C 0.0198 0.46794 0.78013 0.0
C4142 C 0.02229 0.56018 0.76673 0.0
C4143 C 1.00028 0.42859 0.76655 0.0
H4144 H 0.92688 0.4597 0.74343 0.0
H4145 H 0.04119 0.5026 0.73683 0.0
H4146 H 0.9314 0.44312 0.76512 0.0
H4147 H 0.94066 0.48979 0.76539 0.0
H4148 H 0.90677 0.45726 0.75784 0.0
H4149 H 0.08788 0.52293 0.7474 0.0
H4150 H 0.07894 0.54088 0.75727 0.0
H4151 H 0.07223 0.49512 0.75718 0.0
H4152 H 0.03787 0.55575 0.78372 0.0
H4153 H 0.01981 0.44506 0.78348 0.0
H4154 H 0.99463 0.55197 0.76398 0.0
H4155 H 0.04204 0.56929 0.76118 0.0
H4156 H 0.03057 0.58401 0.77122 0.0
H4157 H 0.97222 0.41673 0.76367 0.0
H4158 H 1.00068 0.40775 0.771 0.0
H4159 H 0.01981 0.43387 0.76109 0.0
C4160 C 0.56413 0.51874 0.74473 0.0
C4161 C 0.53551 0.50706 0.73854 0.0
C4162 C 0.55849 0.52373 0.75359 0.0
C4163 C 0.52324 0.51671 0.75644 0.0
C4164 C 0.49412 0.50466 0.75026 0.0
C4165 C 0.50063 0.5002 0.7414 0.0
C4166 C 0.5905 0.53705 0.7599 0.0
C4167 C 0.45604 0.49654 0.753 0.0
C4168 C 0.50265 0.5011 0.781 0.0
C4169 C 0.50874 0.53579 0.78379 0.0
C4170 C 0.50659 0.49428 0.77213 0.0
C4171 C 0.51726 0.5229 0.76585 0.0
C4172 C 0.52335 0.55791 0.76863 0.0
C4173 C 0.51895 0.56387 0.77751 0.0
C4174 C 0.49951 0.45646 0.76948 0.0
C4175 C 0.53518 0.5894 0.76222 0.0
H4176 H 0.59135 0.52475 0.7426 0.0
H4177 H 0.47824 0.49088 0.73671 0.0
H4178 H 0.59644 0.5638 0.76282 0.0
H4179 H 0.58323 0.51699 0.76534 0.0
H4180 H 0.61606 0.54085 0.75669 0.0
H4181 H 0.4361 0.48647 0.74747 0.0
H4182 H 0.44528 0.47535 0.75825 0.0
H4183 H 0.45752 0.52189 0.75572 0.0
H4184 H 0.49444 0.47909 0.78575 0.0
H4185 H 0.52435 0.59096 0.77958 0.0
H4186 H 0.52512 0.45865 0.76672 0.0
H4187 H 0.47811 0.44489 0.76428 0.0
H4188 H 0.49021 0.43681 0.77506 0.0
H4189 H 0.5621 0.59622 0.75924 0.0
H4190 H 0.53808 0.61471 0.76536 0.0
H4191 H 0.51474 0.58108 0.75683 0.0
C4192 C 0.53081 0.0287 0.74319 0.0
C4193 C 0.50099 0.02754 0.73864 0.0
C4194 C 0.52813 0.01972 0.75217 0.0
C4195 C 0.49486 0.00942 0.75678 0.0
C4196 C 0.46467 0.00814 0.75222 0.0
C4197 C 0.46808 0.01717 0.74326 0.0
C4198 C 0.56096 0.02128 0.75673 0.0
C4199 C 0.42874 0.99756 0.75684 0.0
C4200 C 0.47284 0.95455 0.77817 0.0
C4201 C 0.48135 0.98198 0.78454 0.0
C4202 C 0.4778 0.96317 0.76917 0.0
C4203 C 0.49154 1.00016 0.76638 0.0
C4204 C 0.50082 0.0281 0.77276 0.0
C4205 C 0.4957 0.01873 0.78172 0.0
C4206 C 0.4675 0.93244 0.76263 0.0
C4207 C 0.51564 0.06791 0.77012 0.0
H4208 H 0.55625 0.03628 0.73971 0.0
H4209 H 0.44503 0.01678 0.7399 0.0
H4210 H 0.56992 0.04124 0.76224 0.0
H4211 H 0.55306 0.99381 0.75954 0.0
H4212 H 0.58479 0.02963 0.75224 0.0
H4213 H 0.40771 0.99746 0.75237 0.0
H4214 H 0.41724 0.96964 0.75978 0.0
H4215 H 0.43378 0.01721 0.76226 0.0
H4216 H 0.46124 0.92599 0.78019 0.0
H4217 H 0.50296 0.04034 0.78654 0.0
H4218 H 0.49121 0.93928 0.75823 0.0
H4219 H 0.44434 0.92942 0.75847 0.0
H4220 H 0.459 0.90546 0.76583 0.0
H4221 H 0.5408 0.07758 0.76604 0.0
H4222 H 0.52262 0.08656 0.77587 0.0
H4223 H 0.4948 0.07026 0.76609 0.0
C4224 C 0.52387 0.04824 0.24447 0.0
C4225 C 0.53527 0.02992 0.2386 0.0
C4226 C 0.51801 0.03869 0.25342 0.0
C4227 C 0.52342 0.00991 0.25665 0.0
C4228 C 0.53425 0.99086 0.25075 0.0
C4229 C 0.54011 1.0011 0.24185 0.0
C4230 C 0.50645 0.05978 0.25944 0.0
C4231 C 0.54028 0.95995 0.25387 0.0
C4232 C 0.54422 0.00764 0.28097 0.0
C4233 C 0.50986 0.98033 0.28428 0.0
C4234 C 0.54885 0.0178 0.27206 0.0
C4235 C 0.51849 1.00021 0.26622 0.0
C4236 C 0.48364 0.97294 0.26952 0.0
C4237 C 0.47974 0.96345 0.27847 0.0
C4238 C 0.5865 0.04704 0.26887 0.0
C4239 C 0.45048 0.95346 0.26357 0.0
H4240 H 0.51945 0.07015 0.24208 0.0
H4241 H 0.54945 0.98703 0.23747 0.0
H4242 H 0.48008 0.04041 0.26275 0.0
H4243 H 0.5276 0.07373 0.26462 0.0
H4244 H 0.50277 0.08098 0.25591 0.0
H4245 H 0.5474 0.94696 0.24843 0.0
H4246 H 0.563 0.97077 0.25875 0.0
H4247 H 0.515 0.9383 0.25717 0.0
H4248 H 0.56792 0.02055 0.2853 0.0
H4249 H 0.45291 0.94273 0.28092 0.0
H4250 H 0.58448 0.06974 0.26561 0.0
H4251 H 0.59692 0.03498 0.26393 0.0
H4252 H 0.60702 0.05898 0.27426 0.0
H4253 H 0.44498 0.97397 0.26032 0.0
H4254 H 0.42517 0.93329 0.26715 0.0
H4255 H 0.45623 0.93855 0.25835 0.0
C4256 C 0.03204 0.50416 0.27975 0.0
C4257 C 0.03073 0.53266 0.28435 0.0
C4258 C 0.02314 0.49807 0.27077 0.0
C4259 C 0.01274 0.52106 0.2662 0.0
C4260 C 0.0113 0.54978 0.27081 0.0
C4261 C 0.02026 0.5552 0.27978 0.0
C4262 C 0.02487 0.467 0.26616 0.0
C4263 C 1.00061 0.57514 0.26623 0.0
C4264 C 0.02229 0.5303 0.24129 0.0
C4265 C 0.98559 0.50788 0.23844 0.0
C4266 C 0.03158 0.53429 0.25025 0.0
C4267 C 1.00359 0.51536 0.25661 0.0
C4268 C 0.96664 0.49207 0.25379 0.0
C4269 C 0.95811 0.48867 0.24479 0.0
C4270 C 0.07134 0.55933 0.25292 0.0
C4271 C 0.93587 0.47137 0.2603 0.0
H4272 H 0.03971 0.4863 0.2832 0.0
H4273 H 0.01975 0.57773 0.28317 0.0
H4274 H 0.99745 0.44744 0.26332 0.0
H4275 H 0.04489 0.47821 0.26067 0.0
H4276 H 0.03325 0.45146 0.27062 0.0
H4277 H 1.00036 0.59589 0.27074 0.0
H4278 H 0.0203 0.58997 0.26083 0.0
H4279 H 0.97273 0.55871 0.26327 0.0
H4280 H 0.04393 0.54488 0.23649 0.0
H4281 H 0.92958 0.47169 0.24274 0.0
H4282 H 0.08106 0.54381 0.25697 0.0
H4283 H 0.07357 0.58238 0.25698 0.0
H4284 H 0.09005 0.5712 0.24719 0.0
H4285 H 0.94277 0.45446 0.26468 0.0
H4286 H 0.90895 0.45289 0.25707 0.0
H4287 H 0.9327 0.49133 0.26449 0.0
C4288 C 0.47364 0.47446 0.24174 0.0
C4289 C 0.50756 0.47979 0.23854 0.0
C4290 C 0.46895 0.48007 0.25063 0.0
C4291 C 0.49878 0.49114 0.25656 0.0
C4292 C 0.53324 0.49713 0.25337 0.0
C4293 C 0.53722 0.4915 0.24443 0.0
C4294 C 0.43175 0.47342 0.25372 0.0
C4295 C 0.56582 0.50897 0.25943 0.0
C4296 C 0.49454 0.53333 0.27846 0.0
C4297 C 0.48157 0.50295 0.28418 0.0
C4298 C 0.50054 0.53 0.26951 0.0
C4299 C 0.4936 0.49549 0.26613 0.0
C4300 C 0.48108 0.46488 0.27187 0.0
C4301 C 0.47515 0.46893 0.28078 0.0
C4302 C 0.51393 0.56339 0.26365 0.0
C4303 C 0.47336 0.42758 0.26858 0.0
H4304 H 0.45029 0.46487 0.23733 0.0
H4305 H 0.56373 0.49629 0.24206 0.0
H4306 H 0.41992 0.45044 0.25853 0.0
H4307 H 0.43494 0.4984 0.25709 0.0
H4308 H 0.41178 0.46637 0.24825 0.0
H4309 H 0.59099 0.51333 0.25591 0.0
H4310 H 0.57222 0.53501 0.26281 0.0
H4311 H 0.55885 0.48762 0.26454 0.0
H4312 H 0.50013 0.55989 0.28099 0.0
H4313 H 0.46456 0.44505 0.28505 0.0
H4314 H 0.49334 0.5576 0.2584 0.0
H4315 H 0.54016 0.56943 0.26041 0.0
H4316 H 0.5186 0.5884 0.26729 0.0
H4317 H 0.45103 0.41712 0.2636 0.0
H4318 H 0.46487 0.40682 0.27392 0.0
H4319 H 0.49835 0.43016 0.26535 0.0
C4320 C 0.96209 0.18574 0.27761 0.0
C4321 C 0.97238 0.16657 0.28349 0.0
C4322 C 0.97623 0.19381 0.26902 0.0
C4323 C 1.0014 0.18253 0.26616 0.0
C4324 C 0.01221 0.16353 0.27209 0.0
C4325 C 0.99763 0.15581 0.28064 0.0
C4326 C 0.96384 0.21405 0.26295 0.0
C4327 C 0.03909 0.15114 0.26937 0.0
C4328 C 0.01205 0.17141 0.24166 0.0
C4329 C 0.045 0.20414 0.23962 0.0
C4330 C 0.99746 0.1642 0.25021 0.0
C4331 C 0.01617 0.19026 0.25697 0.0
C4332 C 0.04924 0.22348 0.25495 0.0
C4333 C 0.0632 0.22999 0.24634 0.0
C4334 C 0.96205 0.12852 0.25203 0.0
C4335 C 0.07021 0.25202 0.26193 0.0
H4336 H 0.94225 0.19378 0.27966 0.0
H4337 H 1.00626 0.14147 0.28513 0.0
H4338 H 0.9882 0.23966 0.26049 0.0
H4339 H 0.94963 0.19651 0.25718 0.0
H4340 H 0.94472 0.22161 0.26619 0.0
H4341 H 0.04509 0.13705 0.27476 0.0
H4342 H 0.02772 0.13187 0.26374 0.0
H4343 H 0.06549 0.17531 0.26719 0.0
H4344 H 0.99742 0.15141 0.23653 0.0
H4345 H 0.08893 0.25512 0.24492 0.0
H4346 H 0.94099 0.13454 0.25476 0.0
H4347 H 0.96709 0.11217 0.257 0.0
H4348 H 0.95053 0.11132 0.24606 0.0
H4349 H 0.05195 0.26101 0.26502 0.0
H4350 H 0.09505 0.27676 0.25929 0.0
H4351 H 0.07911 0.2397 0.26715 0.0
C4352 C 0.81386 0.80157 0.2811 0.0
C4353 C 0.84944 0.8085 0.28333 0.0
C4354 C 0.80557 0.80801 0.27255 0.0
C4355 C 0.83344 0.8217 0.26602 0.0
C4356 C 0.86929 0.82844 0.26821 0.0
C4357 C 0.87681 0.82178 0.27679 0.0
C4358 C 0.76702 0.80052 0.27054 0.0
C4359 C 0.89984 0.84286 0.26148 0.0
C4360 C 0.80625 0.8105 0.24181 0.0
C4361 C 0.81234 0.84585 0.23964 0.0
C4362 C 0.81266 0.80216 0.25035 0.0
C4363 C 0.82545 0.82972 0.25695 0.0
C4364 C 0.83133 0.86532 0.25483 0.0
C4365 C 0.82472 0.8729 0.24625 0.0
C4366 C 0.8061 0.76388 0.25229 0.0
C4367 C 0.84477 0.89554 0.26163 0.0
H4368 H 0.79255 0.79166 0.28608 0.0
H4369 H 0.9042 0.82661 0.27835 0.0
H4370 H 0.76808 0.82647 0.26843 0.0
H4371 H 0.7551 0.7806 0.26504 0.0
H4372 H 0.74822 0.78916 0.27626 0.0
H4373 H 0.92608 0.84623 0.26417 0.0
H4374 H 0.89133 0.82367 0.25582 0.0
H4375 H 0.90513 0.87002 0.25897 0.0
H4376 H 0.79704 0.78944 0.23678 0.0
H4377 H 0.82888 0.90009 0.24473 0.0
H4378 H 0.78602 0.75132 0.25774 0.0
H4379 H 0.83231 0.76559 0.25444 0.0
H4380 H 0.79537 0.74528 0.24652 0.0
H4381 H 0.82531 0.88635 0.26724 0.0
H4382 H 0.84753 0.9216 0.25898 0.0
H4383 H 0.87206 0.90144 0.26419 0.0
C4384 C 0.18786 0.00649 0.28182 0.0
C4385 C 0.20928 0.04485 0.28319 0.0
C4386 C 0.18044 0.99135 0.27332 0.0
C4387 C 0.1947 0.01501 0.26595 0.0
C4388 C 0.21635 0.05371 0.26728 0.0
C4389 C 0.2233 0.0681 0.27584 0.0
C4390 C 0.15732 0.94994 0.27222 0.0
C4391 C 0.23204 0.08003 0.25964 0.0
C4392 C 0.20327 0.97464 0.24418 0.0
C4393 C 0.17191 0.96965 0.23959 0.0
C4394 C 0.21101 0.98935 0.25272 0.0
C4395 C 0.18685 0.99937 0.25684 0.0
C4396 C 0.15527 0.99458 0.25224 0.0
C4397 C 0.14822 0.97987 0.2437 0.0
C4398 C 0.24512 0.99417 0.25734 0.0
C4399 C 0.12868 1.00474 0.25636 0.0
H4400 H 0.1772 0.98816 0.28741 0.0
H4401 H 0.23932 0.09778 0.27677 0.0
H4402 H 0.13249 0.94296 0.26822 0.0
H4403 H 0.17339 0.93943 0.26867 0.0
H4404 H 0.14817 0.93529 0.27859 0.0
H4405 H 0.24876 0.10933 0.26176 0.0
H4406 H 0.24973 0.07298 0.2556 0.0
H4407 H 0.20924 0.07728 0.25539 0.0
H4408 H 0.22205 0.96733 0.24106 0.0
H4409 H 0.12363 0.97567 0.2403 0.0
H4410 H 0.23717 0.97812 0.26353 0.0
H4411 H 0.2634 0.02367 0.25909 0.0
H4412 H 0.26109 0.98499 0.25327 0.0
H4413 H 0.11693 0.98846 0.26244 0.0
H4414 H 0.10556 0.99964 0.25191 0.0
H4415 H 0.14355 0.03439 0.25824 0.0
C4416 C 0.94703 0.8239 0.77552 0.0
C4417 C 0.96016 0.81025 0.7822 0.0
C4418 C 0.96208 0.83052 0.76702 0.0
C4419 C 0.99103 0.82326 0.76505 0.0
C4420 C 1.00413 0.80904 0.77171 0.0
C4421 C 0.98862 0.80276 0.78017 0.0
C4422 C 0.94711 0.84557 0.76015 0.0
C4423 C 0.03492 0.80091 0.76992 0.0
C4424 C 0.00967 0.8126 0.74098 0.0
C4425 C 0.03967 0.84776 0.73899 0.0
C4426 C 0.99378 0.80415 0.74941 0.0
C4427 C 1.00813 0.83142 0.75608 0.0
C4428 C 0.03855 0.86684 0.75413 0.0
C4429 C 0.05388 0.87452 0.74566 0.0
C4430 C 0.96138 0.76606 0.75117 0.0
C4431 C 0.05491 0.89676 0.76102 0.0
H4432 H 0.92464 0.82918 0.77692 0.0
H4433 H 0.99937 0.79262 0.78525 0.0
H4434 H 0.96954 0.8727 0.75777 0.0
H4435 H 0.93691 0.82664 0.75445 0.0
H4436 H 0.92417 0.84923 0.76267 0.0
H4437 H 0.04127 0.78889 0.7757 0.0
H4438 H 0.02733 0.78132 0.76437 0.0
H4439 H 0.06038 0.82673 0.76801 0.0
H4440 H 0.99814 0.79175 0.73589 0.0
H4441 H 0.07744 0.90155 0.74429 0.0
H4442 H 0.93692 0.7682 0.75313 0.0
H4443 H 0.96791 0.75299 0.75668 0.0
H4444 H 0.95392 0.74768 0.74536 0.0
H4445 H 0.03351 0.90296 0.76342 0.0
H4446 H 0.07874 0.92274 0.7585 0.0
H4447 H 0.06429 0.8871 0.76671 0.0
C4448 C 0.1944 0.20963 0.74264 0.0
C4449 C 0.15815 0.20119 0.74063 0.0
C4450 C 0.20386 0.20346 0.75108 0.0
C4451 C 0.17647 0.18841 0.75771 0.0
C4452 C 0.13997 0.18026 0.75576 0.0
C4453 C 0.13131 0.18678 0.74728 0.0
C4454 C 0.24309 0.21256 0.75287 0.0
C4455 C 0.10989 0.16428 0.76261 0.0
C4456 C 0.18913 0.13717 0.77689 0.0
C4457 C 0.20083 0.16352 0.78364 0.0
C4458 C 0.18146 0.14502 0.76845 0.0
C4459 C 0.18561 0.18019 0.76663 0.0
C4460 C 0.19774 0.20707 0.77337 0.0
C4461 C 0.20519 0.19845 0.78177 0.0
C4462 C 0.16872 0.11554 0.76147 0.0
C4463 C 0.20251 0.24488 0.77173 0.0
H4464 H 0.21532 0.22039 0.73757 0.0
H4465 H 0.10339 0.18078 0.74588 0.0
H4466 H 0.25457 0.23188 0.75849 0.0
H4467 H 0.24348 0.18702 0.75469 0.0
H4468 H 0.26146 0.22529 0.74712 0.0
H4469 H 0.08307 0.1601 0.7601 0.0
H4470 H 0.10581 0.13727 0.7649 0.0
H4471 H 0.11816 0.1829 0.76837 0.0
H4472 H 0.18632 0.11035 0.77818 0.0
H4473 H 0.21386 0.21893 0.78693 0.0
H4474 H 0.18784 0.12594 0.7558 0.0
H4475 H 0.14093 0.10872 0.75907 0.0
H4476 H 0.16728 0.08976 0.76389 0.0
H4477 H 0.22204 0.25855 0.76624 0.0
H4478 H 0.21305 0.26303 0.77758 0.0
H4479 H 0.17563 0.24215 0.7698 0.0
C4480 C 0.83057 0.05589 0.77702 0.0
C4481 C 0.84513 0.04202 0.78329 0.0
C4482 C 0.82255 0.04164 0.76844 0.0
C4483 C 0.82915 0.01267 0.766 0.0
C4484 C 0.84348 0.99827 0.77232 0.0
C4485 C 0.85129 0.01307 0.78085 0.0
C4486 C 0.80743 0.05794 0.76193 0.0
C4487 C 0.85076 0.96728 0.77005 0.0
C4488 C 0.77964 0.95336 0.74599 0.0
C4489 C 0.80736 0.9683 0.73955 0.0
C4490 C 0.78623 0.96761 0.75457 0.0
C4491 C 0.82144 0.99766 0.75684 0.0
C4492 C 0.84944 0.01312 0.75035 0.0
C4493 C 0.8421 0.9983 0.74182 0.0
C4494 C 0.75559 0.95016 0.76126 0.0
C4495 C 0.8873 0.04528 0.75243 0.0
H4496 H 0.82616 0.07857 0.77875 0.0
H4497 H 0.86203 1.00174 0.78564 0.0
H4498 H 0.82675 0.06996 0.75633 0.0
H4499 H 0.78064 0.03592 0.75928 0.0
H4500 H 0.80315 0.07986 0.76488 0.0
H4501 H 0.86151 0.9588 0.77572 0.0
H4502 H 0.82491 0.94286 0.76772 0.0
H4503 H 0.87118 0.97602 0.76465 0.0
H4504 H 0.75287 0.92988 0.74438 0.0
H4505 H 0.86361 0.01044 0.7369 0.0
H4506 H 0.74987 0.97135 0.76404 0.0
H4507 H 0.7643 0.93885 0.76675 0.0
H4508 H 0.72956 0.92747 0.75844 0.0
H4509 H 0.88483 0.06898 0.75488 0.0
H4510 H 0.90592 0.0545 0.74665 0.0
H4511 H 0.90031 0.0374 0.75771 0.0
C4512 C 0.66744 0.49668 0.6143 0.0
C4513 C 0.63719 0.50105 0.61656 0.0
C4514 C 0.68232 0.50427 0.60578 0.0
C4515 C 0.66667 0.51653 0.59928 0.0
C4516 C 0.63637 0.52132 0.60152 0.0
C4517 C 0.62207 0.51358 0.6101 0.0
C4518 C 0.71474 0.49896 0.60372 0.0
C4519 C 0.61871 0.53421 0.59482 0.0
C4520 C 0.72477 0.56584 0.57909 0.0
C4521 C 0.71117 0.53735 0.57283 0.0
C4522 C 0.71046 0.55955 0.58767 0.0
C4523 C 0.68171 0.52388 0.59011 0.0
C4524 C 0.66758 0.4951 0.58381 0.0
C4525 C 0.68243 0.50215 0.57528 0.0
C4526 C 0.72647 0.59104 0.59416 0.0
C4527 C 0.63682 0.45672 0.58609 0.0
H4528 H 0.67972 0.48751 0.61924 0.0
H4529 H 0.5984 0.51657 0.61169 0.0
H4530 H 0.70708 0.47806 0.59845 0.0
H4531 H 0.73828 0.52523 0.60126 0.0
H4532 H 0.72411 0.48978 0.60951 0.0
H4533 H 0.59585 0.53731 0.59762 0.0
H4534 H 0.63974 0.56118 0.59203 0.0
H4535 H 0.60757 0.51414 0.58933 0.0
H4536 H 0.74728 0.593 0.57735 0.0
H4537 H 0.6713 0.48002 0.5705 0.0
H4538 H 0.73863 0.58397 0.59977 0.0
H4539 H 0.70426 0.59554 0.59679 0.0
H4540 H 0.74822 0.6173 0.59121 0.0
H4541 H 0.64572 0.44525 0.5915 0.0
H4542 H 0.62852 0.43747 0.58043 0.0
H4543 H 0.61224 0.45789 0.58841 0.0
C4544 C 0.54287 0.16214 0.61059 0.0
C4545 C 0.51539 0.14786 0.6171 0.0
C4546 C 0.53547 0.17003 0.60211 0.0
C4547 C 0.49963 0.1635 0.6 0.0
C4548 C 0.47166 0.14886 0.6065 0.0
C4549 C 0.47984 0.14123 0.61494 0.0
C4550 C 0.56614 0.18546 0.5954 0.0
C4551 C 0.4331 0.14151 0.60457 0.0
C4552 C 0.49102 0.21694 0.58067 0.0
C4553 C 0.47913 0.19078 0.57387 0.0
C4554 C 0.4974 0.20833 0.58918 0.0
C4555 C 0.4917 0.17257 0.59102 0.0
C4556 C 0.47925 0.14586 0.58423 0.0
C4557 C 0.47317 0.15525 0.57577 0.0
C4558 C 0.51054 0.23769 0.59619 0.0
C4559 C 0.4728 0.10742 0.58588 0.0
H4560 H 0.57024 0.16677 0.61208 0.0
H4561 H 0.45843 0.13057 0.61991 0.0
H4562 H 0.55785 0.16695 0.58962 0.0
H4563 H 0.57124 0.21283 0.5931 0.0
H4564 H 0.59242 0.18874 0.59804 0.0
H4565 H 0.41425 0.12943 0.61026 0.0
H4566 H 0.4341 0.16766 0.60268 0.0
H4567 H 0.42128 0.12225 0.59895 0.0
H4568 H 0.4951 0.24425 0.57937 0.0
H4569 H 0.46441 0.13486 0.57058 0.0
H4570 H 0.53787 0.24349 0.5987 0.0
H4571 H 0.49102 0.22769 0.60179 0.0
H4572 H 0.51312 0.26397 0.59376 0.0
H4573 H 0.49907 0.10898 0.5879 0.0
H4574 H 0.46204 0.08945 0.58 0.0
H4575 H 0.4528 0.09422 0.59131 0.0
C4576 C 0.85483 0.38814 0.61051 0.0
C4577 C 0.87086 0.37616 0.61687 0.0
C4578 C 0.84823 0.37398 0.60192 0.0
C4579 C 0.85786 0.34705 0.59954 0.0
C4580 C 0.87426 0.33497 0.6059 0.0
C4581 C 0.88057 0.34963 0.61445 0.0
C4582 C 0.83085 0.38785 0.59539 0.0
C4583 C 0.88486 0.30625 0.60368 0.0
C4584 C 0.80806 0.28523 0.5799 0.0
C4585 C 0.83421 0.30174 0.57315 0.0
C4586 C 0.81552 0.29944 0.58848 0.0
C4587 C 0.85005 0.33107 0.59046 0.0
C4588 C 0.87672 0.34773 0.58371 0.0
C4589 C 0.86854 0.33289 0.57518 0.0
C4590 C 0.78629 0.2806 0.59545 0.0
C4591 C 0.91383 0.38152 0.58549 0.0
H4592 H 0.8478 0.40908 0.61221 0.0
H4593 H 0.89262 0.33982 0.61929 0.0
H4594 H 0.84926 0.39987 0.58963 0.0
H4595 H 0.80434 0.36446 0.59299 0.0
H4596 H 0.82537 0.40916 0.59821 0.0
H4597 H 0.89802 0.30026 0.60928 0.0
H4598 H 0.85993 0.28014 0.60166 0.0
H4599 H 0.90434 0.31577 0.59807 0.0
H4600 H 0.78172 0.26078 0.5785 0.0
H4601 H 0.88887 0.34615 0.57003 0.0
H4602 H 0.77831 0.3003 0.59815 0.0
H4603 H 0.79748 0.27178 0.60094 0.0
H4604 H 0.76105 0.25598 0.5929 0.0
H4605 H 0.90988 0.40456 0.58777 0.0
H4606 H 0.93188 0.3908 0.57961 0.0
H4607 H 0.92828 0.37563 0.5908 0.0
C4608 C 0.69374 0.15556 0.07563 0.0
C4609 C 0.72557 0.18983 0.07395 0.0
C4610 C 0.67792 0.14626 0.08406 0.0
C4611 C 0.69416 0.17176 0.09105 0.0
C4612 C 0.72647 0.20622 0.08942 0.0
C4613 C 0.74173 0.21476 0.08094 0.0
C4614 C 0.6435 0.10924 0.08547 0.0
C4615 C 0.74484 0.23426 0.09665 0.0
C4616 C 0.63462 0.16474 0.11078 0.0
C4617 C 0.64521 0.14723 0.11708 0.0
C4618 C 0.65013 0.17266 0.10232 0.0
C4619 C 0.67699 0.16285 0.10001 0.0
C4620 C 0.6877 0.145 0.10629 0.0
C4621 C 0.67174 0.13743 0.11472 0.0
C4622 C 0.63772 0.19159 0.09585 0.0
C4623 C 0.71625 0.13409 0.10414 0.0
H4624 H 0.68065 0.13617 0.07031 0.0
H4625 H 0.76666 0.24103 0.07981 0.0
H4626 H 0.64827 0.0938 0.09074 0.0
H4627 H 0.62045 0.11338 0.08763 0.0
H4628 H 0.63481 0.09202 0.07945 0.0
H4629 H 0.77009 0.25956 0.09437 0.0
H4630 H 0.72521 0.2424 0.09931 0.0
H4631 H 0.75255 0.2219 0.1021 0.0
H4632 H 0.6137 0.17188 0.11243 0.0
H4633 H 0.68051 0.12427 0.11952 0.0
H4634 H 0.62611 0.17412 0.08994 0.0
H4635 H 0.66177 0.21816 0.09372 0.0
H4636 H 0.61647 0.19727 0.09864 0.0
H4637 H 0.7072 0.11547 0.09837 0.0
H4638 H 0.72118 0.11987 0.10968 0.0
H4639 H 0.74283 0.15903 0.10239 0.0
C4640 C 0.89154 0.49275 0.10903 0.0
C4641 C 0.87539 0.49967 0.11633 0.0
C4642 C 0.88435 0.49977 0.10045 0.0
C4643 C 0.86028 0.51404 0.09904 0.0
C4644 C 0.84389 0.52114 0.10637 0.0
C4645 C 0.8516 0.51389 0.11489 0.0
C4646 C 0.90238 0.49166 0.09286 0.0
C4647 C 0.81817 0.53644 0.1052 0.0
C4648 C 0.86641 0.5629 0.0774 0.0
C4649 C 0.83649 0.53531 0.07264 0.0
C4650 C 0.87448 0.55637 0.08595 0.0
C4651 C 0.85215 0.52136 0.08992 0.0
C4652 C 0.82206 0.49331 0.08514 0.0
C4653 C 0.81464 0.50058 0.07659 0.0
C4654 C 0.90697 0.58703 0.09075 0.0
C4655 C 0.79743 0.45562 0.08909 0.0
H4656 H 0.90944 0.48118 0.11001 0.0
H4657 H 0.83926 0.5198 0.12045 0.0
H4658 H 0.88083 0.47077 0.08849 0.0
H4659 H 0.91886 0.51708 0.08893 0.0
H4660 H 0.92083 0.48114 0.09504 0.0
H4661 H 0.80758 0.54041 0.11154 0.0
H4662 H 0.83276 0.56343 0.10175 0.0
H4663 H 0.79427 0.51745 0.10107 0.0
H4664 H 0.88382 0.58968 0.07441 0.0
H4665 H 0.79114 0.47918 0.07307 0.0
H4666 H 0.92691 0.57791 0.09256 0.0
H4667 H 0.89741 0.59359 0.09691 0.0
H4668 H 0.92166 0.61267 0.08678 0.0
H4669 H 0.81418 0.44286 0.09101 0.0
H4670 H 0.77541 0.43665 0.08451 0.0
H4671 H 0.78419 0.45837 0.09512 0.0
C4672 C 0.50184 0.38394 0.11081 0.0
C4673 C 0.51388 0.36916 0.11746 0.0
C4674 C 0.49448 0.36901 0.10229 0.0
C4675 C 0.49915 0.33842 0.10032 0.0
C4676 C 0.5108 0.32304 0.10702 0.0
C4677 C 0.51804 0.33856 0.11547 0.0
C4678 C 0.48226 0.3864 0.09536 0.0
C4679 C 0.51594 0.29031 0.10524 0.0
C4680 C 0.45161 0.27966 0.08011 0.0
C4681 C 0.48077 0.29282 0.07404 0.0
C4682 C 0.4571 0.2943 0.08864 0.0
C4683 C 0.49261 0.32298 0.09121 0.0
C4684 C 0.52205 0.33668 0.08509 0.0
C4685 C 0.51581 0.32145 0.07662 0.0
C4686 C 0.42497 0.27872 0.09495 0.0
C4687 C 0.56027 0.3674 0.0875 0.0
H4688 H 0.49901 0.40786 0.1122 0.0
H4689 H 0.52682 0.32656 0.12056 0.0
H4690 H 0.50285 0.3973 0.08998 0.0
H4691 H 0.45555 0.36529 0.09248 0.0
H4692 H 0.47894 0.4094 0.09799 0.0
H4693 H 0.52432 0.28103 0.11119 0.0
H4694 H 0.48984 0.26683 0.10269 0.0
H4695 H 0.53739 0.29759 0.10014 0.0
H4696 H 0.42454 0.25727 0.07825 0.0
H4697 H 0.53843 0.33222 0.07197 0.0
H4698 H 0.42034 0.30113 0.09738 0.0
H4699 H 0.43138 0.26678 0.10072 0.0
H4700 H 0.39896 0.25691 0.09192 0.0
H4701 H 0.55903 0.39215 0.08965 0.0
H4702 H 0.58008 0.37538 0.08197 0.0
H4703 H 0.57112 0.35864 0.09308 0.0
C4704 C 0.34578 0.83749 0.90861 0.0
C4705 C 0.37831 0.87059 0.90654 0.0
C4706 C 0.33126 0.83013 0.91718 0.0
C4707 C 0.34961 0.8564 0.92392 0.0
C4708 C 0.38227 0.88997 0.92187 0.0
C4709 C 0.39616 0.89664 0.91325 0.0
C4710 C 0.29629 0.79406 0.91902 0.0
C4711 C 0.40285 0.91875 0.92883 0.0
C4712 C 0.29512 0.85096 0.94457 0.0
C4713 C 0.30602 0.83236 0.95048 0.0
C4714 C 0.30918 0.85913 0.93597 0.0
C4715 C 0.33489 0.84854 0.93312 0.0
C4716 C 0.34631 0.83011 0.93907 0.0
C4717 C 0.3318 0.82229 0.94763 0.0
C4718 C 0.29613 0.87873 0.92988 0.0
C4719 C 0.37378 0.81846 0.93637 0.0
H4720 H 0.33139 0.81733 0.9035 0.0
H4721 H 0.42158 0.92205 0.91181 0.0
H4722 H 0.30181 0.77811 0.92401 0.0
H4723 H 0.27486 0.79954 0.92174 0.0
H4724 H 0.28503 0.7767 0.91306 0.0
H4725 H 0.42739 0.94375 0.92617 0.0
H4726 H 0.3842 0.92726 0.93191 0.0
H4727 H 0.41217 0.90686 0.93406 0.0
H4728 H 0.27486 0.85846 0.9466 0.0
H4729 H 0.34091 0.80841 0.95213 0.0
H4730 H 0.28214 0.86098 0.92412 0.0
H4731 H 0.32015 0.90457 0.92739 0.0
H4732 H 0.27663 0.8858 0.93311 0.0
H4733 H 0.3627 0.79908 0.93075 0.0
H4734 H 0.38019 0.80475 0.94177 0.0
H4735 H 0.3999 0.84293 0.93417 0.0
C4736 C 0.14785 0.46729 0.94771 0.0
C4737 C 0.18321 0.47302 0.94972 0.0
C4738 C 0.13913 0.47401 0.93924 0.0
C4739 C 0.16631 0.48672 0.93255 0.0
C4740 C 0.20187 0.49212 0.9345 0.0
C4741 C 0.20984 0.48524 0.94302 0.0
C4742 C 0.10091 0.46796 0.93747 0.0
C4743 C 0.23167 0.50543 0.92759 0.0
C4744 C 0.137 0.47639 0.9085 0.0
C4745 C 0.14431 0.51221 0.9064 0.0
C4746 C 0.14366 0.4676 0.91697 0.0
C4747 C 0.15796 0.49521 0.92356 0.0
C4748 C 0.16509 0.5313 0.9215 0.0
C4749 C 0.15819 0.53932 0.91299 0.0
C4750 C 0.13575 0.42881 0.91884 0.0
C4751 C 0.18018 0.5616 0.92831 0.0
H4752 H 0.12712 0.4582 0.95282 0.0
H4753 H 0.23702 0.48913 0.94441 0.0
H4754 H 0.10283 0.49441 0.93546 0.0
H4755 H 0.08791 0.44818 0.93199 0.0
H4756 H 0.08258 0.45712 0.94329 0.0
H4757 H 0.25769 0.50765 0.9301 0.0
H4758 H 0.22191 0.4862 0.92193 0.0
H4759 H 0.23786 0.53296 0.92514 0.0
H4760 H 0.12664 0.45527 0.90347 0.0
H4761 H 0.16332 0.56689 0.91153 0.0
H4762 H 0.11612 0.4169 0.92439 0.0
H4763 H 0.16164 0.42941 0.9208 0.0
H4764 H 0.12387 0.41025 0.91309 0.0
H4765 H 0.1613 0.55307 0.93402 0.0
H4766 H 0.18374 0.58807 0.92572 0.0
H4767 H 0.20736 0.56647 0.93069 0.0
C4768 C 0.46389 0.60877 0.91401 0.0
C4769 C 0.4897 0.6237 0.90715 0.0
C4770 C 0.47248 0.62378 0.92252 0.0
C4771 C 0.50788 0.65454 0.9243 0.0
C4772 C 0.53426 0.66949 0.91745 0.0
C4773 C 0.5249 0.65397 0.90899 0.0
C4774 C 0.44347 0.60683 0.9296 0.0
C4775 C 0.57231 0.70225 0.91903 0.0
C4776 C 0.51724 0.71545 0.94393 0.0
C4777 C 0.53253 0.70302 0.95037 0.0
C4778 C 0.50933 0.70013 0.93546 0.0
C4779 C 0.51689 0.67156 0.93327 0.0
C4780 C 0.53253 0.65899 0.93971 0.0
C4781 C 0.54015 0.67482 0.94815 0.0
C4782 C 0.49281 0.71454 0.92883 0.0
C4783 C 0.54099 0.62859 0.9377 0.0
H4784 H 0.43686 0.58501 0.91276 0.0
H4785 H 0.545 0.6661 0.90376 0.0
H4786 H 0.45422 0.59783 0.93515 0.0
H4787 H 0.43693 0.62777 0.93216 0.0
H4788 H 0.41748 0.58264 0.92721 0.0
H4789 H 0.59009 0.70995 0.91311 0.0
H4790 H 0.56995 0.72646 0.9211 0.0
H4791 H 0.5862 0.69602 0.92441 0.0
H4792 H 0.51183 0.73765 0.94548 0.0
H4793 H 0.55159 0.66464 0.95306 0.0
H4794 H 0.46566 0.69171 0.92657 0.0
H4795 H 0.51104 0.72525 0.923 0.0
H4796 H 0.48877 0.737 0.93151 0.0
H4797 H 0.51519 0.60298 0.93585 0.0
H4798 H 0.55373 0.62234 0.94335 0.0
H4799 H 0.5601 0.63657 0.93203 0.0
C4800 C 0.33394 0.46825 0.44721 0.0
C4801 C 0.31041 0.48139 0.44992 0.0
C4802 C 0.34979 0.47593 0.43878 0.0
C4803 C 0.34203 0.49732 0.43286 0.0
C4804 C 0.31822 0.51055 0.43554 0.0
C4805 C 0.30274 0.50243 0.44399 0.0
C4806 C 0.37505 0.46132 0.43623 0.0
C4807 C 0.30905 0.53335 0.42945 0.0
C4808 C 0.40868 0.54782 0.41404 0.0
C4809 C 0.39041 0.52491 0.40684 0.0
C4810 C 0.39348 0.539 0.42252 0.0
C4811 C 0.35911 0.50632 0.42391 0.0
C4812 C 0.34073 0.48277 0.41672 0.0
C4813 C 0.35653 0.49232 0.4083 0.0
C4814 C 0.41414 0.56488 0.42998 0.0
C4815 C 0.30405 0.44768 0.41789 0.0
H4816 H 0.34043 0.45231 0.45174 0.0
H4817 H 0.28411 0.5122 0.44591 0.0
H4818 H 0.36428 0.44387 0.43028 0.0
H4819 H 0.40291 0.48468 0.4346 0.0
H4820 H 0.3779 0.44465 0.44152 0.0
H4821 H 0.28999 0.54148 0.43249 0.0
H4822 H 0.33479 0.5588 0.42749 0.0
H4823 H 0.29603 0.5175 0.4234 0.0
H4824 H 0.43516 0.5727 0.41307 0.0
H4825 H 0.34189 0.47456 0.40281 0.0
H4826 H 0.41972 0.54978 0.43518 0.0
H4827 H 0.39691 0.57544 0.43293 0.0
H4828 H 0.44085 0.58885 0.42785 0.0
H4829 H 0.3066 0.42981 0.42289 0.0
H4830 H 0.29382 0.43173 0.41171 0.0
H4831 H 0.28307 0.45447 0.4203 0.0
C4832 C 0.51816 0.84978 0.40786 0.0
C4833 C 0.50351 0.87322 0.40644 0.0
C4834 C 0.52589 0.8424 0.41636 0.0
C4835 C 0.51886 0.85879 0.4237 0.0
C4836 C 0.50416 0.8825 0.42232 0.0
C4837 C 0.49665 0.88936 0.41376 0.0
C4838 C 0.54163 0.81704 0.4175 0.0
C4839 C 0.49611 0.90051 0.42992 0.0
C4840 C 0.50688 0.81385 0.44618 0.0
C4841 C 0.54174 0.83608 0.45004 0.0
C4842 C 0.49908 0.82092 0.43766 0.0
C4843 C 0.52673 0.85103 0.43281 0.0
C4844 C 0.56186 0.87375 0.43668 0.0
C4845 C 0.56893 0.86602 0.44521 0.0
C4846 C 0.46129 0.79589 0.4338 0.0
C4847 C 0.5921 0.90628 0.4318 0.0
H4848 H 0.52402 0.83746 0.40229 0.0
H4849 H 0.48476 0.90698 0.4128 0.0
H4850 H 0.56876 0.83195 0.42088 0.0
H4851 H 0.523 0.79317 0.42169 0.0
H4852 H 0.54546 0.80638 0.41116 0.0
H4853 H 0.4852 0.91865 0.42777 0.0
H4854 H 0.47556 0.87896 0.43435 0.0
H4855 H 0.52166 0.9173 0.43379 0.0
H4856 H 0.48579 0.79033 0.44977 0.0
H4857 H 0.59579 0.88371 0.44814 0.0
H4858 H 0.46394 0.78259 0.42777 0.0
H4859 H 0.44817 0.81233 0.43191 0.0
H4860 H 0.44267 0.7739 0.43843 0.0
H4861 H 0.59854 0.8967 0.42562 0.0
H4862 H 0.61789 0.9213 0.43571 0.0
H4863 H 0.5826 0.92593 0.43 0.0
C4864 C 0.18338 0.67774 0.44766 0.0
C4865 C 0.1796 0.70829 0.44996 0.0
C4866 C 0.17584 0.66315 0.43911 0.0
C4867 C 0.16423 0.67942 0.43261 0.0
C4868 C 0.16002 0.71004 0.4349 0.0
C4869 C 0.16771 0.72403 0.4435 0.0
C4870 C 0.18051 0.63038 0.43701 0.0
C4871 C 0.14784 0.72836 0.42821 0.0
C4872 C 0.17895 0.66406 0.40861 0.0
C4873 C 0.14362 0.63582 0.40608 0.0
C4874 C 0.18593 0.67862 0.41717 0.0
C4875 C 0.15695 0.6647 0.42342 0.0
C4876 C 0.12116 0.63646 0.42089 0.0
C4877 C 0.11494 0.62243 0.41229 0.0
C4878 C 0.22446 0.70883 0.41953 0.0
C4879 C 0.08945 0.6207 0.42732 0.0
H4880 H 0.19204 0.66497 0.45259 0.0
H4881 H 0.16518 0.74795 0.44513 0.0
H4882 H 0.15412 0.60723 0.43449 0.0
H4883 H 0.20153 0.63788 0.43178 0.0
H4884 H 0.18922 0.62053 0.4428 0.0
H4885 H 0.14512 0.75139 0.43104 0.0
H4886 H 0.16811 0.73942 0.42276 0.0
H4887 H 0.12082 0.70776 0.42536 0.0
H4888 H 0.20125 0.67505 0.40387 0.0
H4889 H 0.08766 0.60029 0.41048 0.0
H4890 H 0.23546 0.69943 0.42495 0.0
H4891 H 0.22371 0.73359 0.42189 0.0
H4892 H 0.24387 0.71703 0.41391 0.0
H4893 H 0.096 0.60806 0.43292 0.0
H4894 H 0.06311 0.59937 0.4243 0.0
H4895 H 0.08535 0.64311 0.42998 0.0
loop_
_geom_bond_atom_site_label_1
_geom_bond_atom_site_label_2
_geom_bond_distance
_geom_bond_site_symmetry_2
_ccdc_geom_bond_type
Gd0 C3 2.818 . S
Gd0 O20 2.377 . S
Gd0 O22 2.448 . S
Gd0 O23 2.506 . S
Gd0 O24 2.435 . S
Gd0 O25 2.717 . S
Gd0 O27 2.395 . S
Gd0 O31 2.327 . S
Gd1 C12 2.818 . S
Gd1 O21 2.395 . S
Gd1 O25 2.327 . S
Gd1 O26 2.377 . S
Gd1 O28 2.448 . S
Gd1 O29 2.506 . S
Gd1 O30 2.435 . S
Gd1 O31 2.717 . S
C2 O20 1.240 . S
C2 O21 1.240 . S
C3 Gd0 2.818 . S
C3 C4 1.510 . S
C3 O22 1.249 . S
C3 O23 1.252 . S
C4 C3 1.510 . S
C4 C5 1.404 . S
C4 C6 1.352 . S
C5 C4 1.404 . S
C5 C9 1.389 . S
C5 H32 0.930 . S
C6 C4 1.352 . S
C6 C8 1.374 . S
C6 H33 0.931 . S
C7 C8 1.359 . S
C7 C9 1.364 . S
C8 C6 1.374 . S
C8 C7 1.359 . S
C8 H34 0.931 . S
C9 C5 1.389 . S
C9 C7 1.364 . S
C9 H35 0.931 . S
C10 O24 1.256 . S
C10 O25 1.257 . S
C11 O26 1.240 . S
C11 O27 1.240 . S
C12 Gd1 2.818 . S
C12 C13 1.510 . S
C12 O28 1.249 . S
C12 O29 1.252 . S
C13 C12 1.510 . S
C13 C14 1.404 . S
C13 C15 1.352 . S
C14 C13 1.404 . S
C14 C18 1.389 . S
C14 H36 0.930 . S
C15 C13 1.352 . S
C15 C17 1.374 . S
C15 H37 0.931 . S
C16 C17 1.359 . S
C16 C18 1.364 . S
C17 C15 1.374 . S
C17 C16 1.359 . S
C17 H38 0.931 . S
C18 C14 1.389 . S
C18 C16 1.364 . S
C18 H39 0.931 . S
C19 O30 1.256 . S
C19 O31 1.257 . S
O20 Gd0 2.377 . S
O20 C2 1.240 . S
O21 Gd1 2.395 . S
O21 C2 1.240 . S
O22 Gd0 2.448 . S
O22 C3 1.249 . S
O23 Gd0 2.506 . S
O23 C3 1.252 . S
O24 Gd0 2.435 . S
O24 C10 1.256 . S
O25 Gd0 2.717 . S
O25 Gd1 2.327 . S
O25 C10 1.257 . S
O26 Gd1 2.377 . S
O26 C11 1.240 . S
O27 Gd0 2.395 . S
O27 C11 1.240 . S
O28 Gd1 2.448 . S
O28 C12 1.249 . S
O29 Gd1 2.506 . S
O29 C12 1.252 . S
O30 Gd1 2.435 . S
O30 C19 1.256 . S
O31 Gd0 2.327 . S
O31 Gd1 2.717 . S
O31 C19 1.257 . S
H32 C5 0.930 . S
H33 C6 0.931 . S
H34 C8 0.931 . S
H35 C9 0.931 . S
H36 C14 0.930 . S
H37 C15 0.931 . S
H38 C17 0.931 . S
H39 C18 0.931 . S
Gd40 C43 2.818 . S
Gd40 O60 2.377 . S
Gd40 O62 2.448 . S
Gd40 O63 2.506 . S
Gd40 O64 2.435 . S
Gd40 O65 2.717 . S
Gd40 O67 2.395 . S
Gd40 O71 2.327 . S
Gd41 C52 2.818 . S
Gd41 O61 2.395 . S
Gd41 O65 2.327 . S
Gd41 O66 2.377 . S
Gd41 O68 2.448 . S
Gd41 O69 2.506 . S
Gd41 O70 2.435 . S
Gd41 O71 2.717 . S
C42 O60 1.240 . S
C42 O61 1.240 . S
C43 Gd40 2.818 . S
C43 C44 1.510 . S
C43 O62 1.249 . S
C43 O63 1.252 . S
C44 C43 1.510 . S
C44 C45 1.404 . S
C44 C46 1.352 . S
C45 C44 1.404 . S
C45 C49 1.389 . S
C45 H72 0.930 . S
C46 C44 1.352 . S
C46 C48 1.374 . S
C46 H73 0.931 . S
C47 C48 1.359 . S
C47 C49 1.364 . S
C48 C46 1.374 . S
C48 C47 1.359 . S
C48 H74 0.931 . S
C49 C45 1.389 . S
C49 C47 1.364 . S
C49 H75 0.931 . S
C50 O64 1.256 . S
C50 O65 1.257 . S
C51 O66 1.240 . S
C51 O67 1.240 . S
C52 Gd41 2.818 . S
C52 C53 1.510 . S
C52 O68 1.249 . S
C52 O69 1.252 . S
C53 C52 1.510 . S
C53 C54 1.404 . S
C53 C55 1.352 . S
C54 C53 1.404 . S
C54 C58 1.389 . S
C54 H76 0.930 . S
C55 C53 1.352 . S
C55 C57 1.374 . S
C55 H77 0.931 . S
C56 C57 1.359 . S
C56 C58 1.364 . S
C57 C55 1.374 . S
C57 C56 1.359 . S
C57 H78 0.931 . S
C58 C54 1.389 . S
C58 C56 1.364 . S
C58 H79 0.931 . S
C59 O70 1.256 . S
C59 O71 1.257 . S
O60 Gd40 2.377 . S
O60 C42 1.240 . S
O61 Gd41 2.395 . S
O61 C42 1.240 . S
O62 Gd40 2.448 . S
O62 C43 1.249 . S
O63 Gd40 2.506 . S
O63 C43 1.252 . S
O64 Gd40 2.435 . S
O64 C50 1.256 . S
O65 Gd40 2.717 . S
O65 Gd41 2.327 . S
O65 C50 1.257 . S
O66 Gd41 2.377 . S
O66 C51 1.240 . S
O67 Gd40 2.395 . S
O67 C51 1.240 . S
O68 Gd41 2.448 . S
O68 C52 1.249 . S
O69 Gd41 2.506 . S
O69 C52 1.252 . S
O70 Gd41 2.435 . S
O70 C59 1.256 . S
O71 Gd40 2.327 . S
O71 Gd41 2.717 . S
O71 C59 1.257 . S
H72 C45 0.930 . S
H73 C46 0.931 . S
H74 C48 0.931 . S
H75 C49 0.931 . S
H76 C54 0.930 . S
H77 C55 0.931 . S
H78 C57 0.931 . S
H79 C58 0.931 . S
Gd80 C83 2.818 . S
Gd80 O100 2.377 . S
Gd80 O102 2.448 . S
Gd80 O103 2.506 . S
Gd80 O104 2.435 . S
Gd80 O105 2.717 . S
Gd80 O107 2.395 . S
Gd80 O111 2.327 . S
Gd81 C92 2.818 . S
Gd81 O101 2.395 . S
Gd81 O105 2.327 . S
Gd81 O106 2.377 . S
Gd81 O108 2.448 . S
Gd81 O109 2.506 . S
Gd81 O110 2.435 . S
Gd81 O111 2.717 . S
C82 O100 1.240 . S
C82 O101 1.240 . S
C83 Gd80 2.818 . S
C83 C84 1.510 . S
C83 O102 1.249 . S
C83 O103 1.252 . S
C84 C83 1.510 . S
C84 C85 1.404 . S
C84 C86 1.352 . S
C85 C84 1.404 . S
C85 C89 1.389 . S
C85 H112 0.930 . S
C86 C84 1.352 . S
C86 C88 1.374 . S
C86 H113 0.931 . S
C87 C88 1.359 . S
C87 C89 1.364 . S
C88 C86 1.374 . S
C88 C87 1.359 . S
C88 H114 0.931 . S
C89 C85 1.389 . S
C89 C87 1.364 . S
C89 H115 0.931 . S
C90 O104 1.256 . S
C90 O105 1.257 . S
C91 O106 1.240 . S
C91 O107 1.240 . S
C92 Gd81 2.818 . S
C92 C93 1.510 . S
C92 O108 1.249 . S
C92 O109 1.252 . S
C93 C92 1.510 . S
C93 C94 1.404 . S
C93 C95 1.352 . S
C94 C93 1.404 . S
C94 C98 1.389 . S
C94 H116 0.930 . S
C95 C93 1.352 . S
C95 C97 1.374 . S
C95 H117 0.931 . S
C96 C97 1.359 . S
C96 C98 1.364 . S
C97 C95 1.374 . S
C97 C96 1.359 . S
C97 H118 0.931 . S
C98 C94 1.389 . S
C98 C96 1.364 . S
C98 H119 0.931 . S
C99 O110 1.256 . S
C99 O111 1.257 . S
O100 Gd80 2.377 . S
O100 C82 1.240 . S
O101 Gd81 2.395 . S
O101 C82 1.240 . S
O102 Gd80 2.448 . S
O102 C83 1.249 . S
O103 Gd80 2.506 . S
O103 C83 1.252 . S
O104 Gd80 2.435 . S
O104 C90 1.256 . S
O105 Gd80 2.717 . S
O105 Gd81 2.327 . S
O105 C90 1.257 . S
O106 Gd81 2.377 . S
O106 C91 1.240 . S
O107 Gd80 2.395 . S
O107 C91 1.240 . S
O108 Gd81 2.448 . S
O108 C92 1.249 . S
O109 Gd81 2.506 . S
O109 C92 1.252 . S
O110 Gd81 2.435 . S
O110 C99 1.256 . S
O111 Gd80 2.327 . S
O111 Gd81 2.717 . S
O111 C99 1.257 . S
H112 C85 0.930 . S
H113 C86 0.931 . S
H114 C88 0.931 . S
H115 C89 0.931 . S
H116 C94 0.930 . S
H117 C95 0.931 . S
H118 C97 0.931 . S
H119 C98 0.931 . S
Gd120 C123 2.818 . S
Gd120 O140 2.377 . S
Gd120 O142 2.448 . S
Gd120 O143 2.506 . S
Gd120 O144 2.435 . S
Gd120 O145 2.717 . S
Gd120 O147 2.395 . S
Gd120 O151 2.327 . S
Gd121 C132 2.818 . S
Gd121 O141 2.395 . S
Gd121 O145 2.327 . S
Gd121 O146 2.377 . S
Gd121 O148 2.448 . S
Gd121 O149 2.506 . S
Gd121 O150 2.435 . S
Gd121 O151 2.717 . S
C122 O140 1.240 . S
C122 O141 1.240 . S
C123 Gd120 2.818 . S
C123 C124 1.510 . S
C123 O142 1.249 . S
C123 O143 1.252 . S
C124 C123 1.510 . S
C124 C125 1.404 . S
C124 C126 1.352 . S
C125 C124 1.404 . S
C125 C129 1.389 . S
C125 H152 0.930 . S
C126 C124 1.352 . S
C126 C128 1.374 . S
C126 H153 0.931 . S
C127 C128 1.359 . S
C127 C129 1.364 . S
C128 C126 1.374 . S
C128 C127 1.359 . S
C128 H154 0.931 . S
C129 C125 1.389 . S
C129 C127 1.364 . S
C129 H155 0.931 . S
C130 O144 1.256 . S
C130 O145 1.257 . S
C131 O146 1.240 . S
C131 O147 1.240 . S
C132 Gd121 2.818 . S
C132 C133 1.510 . S
C132 O148 1.249 . S
C132 O149 1.252 . S
C133 C132 1.510 . S
C133 C134 1.404 . S
C133 C135 1.352 . S
C134 C133 1.404 . S
C134 C138 1.389 . S
C134 H156 0.930 . S
C135 C133 1.352 . S
C135 C137 1.374 . S
C135 H157 0.931 . S
C136 C137 1.359 . S
C136 C138 1.364 . S
C137 C135 1.374 . S
C137 C136 1.359 . S
C137 H158 0.931 . S
C138 C134 1.389 . S
C138 C136 1.364 . S
C138 H159 0.931 . S
C139 O150 1.256 . S
C139 O151 1.257 . S
O140 Gd120 2.377 . S
O140 C122 1.240 . S
O141 Gd121 2.395 . S
O141 C122 1.240 . S
O142 Gd120 2.448 . S
O142 C123 1.249 . S
O143 Gd120 2.506 . S
O143 C123 1.252 . S
O144 Gd120 2.435 . S
O144 C130 1.256 . S
O145 Gd120 2.717 . S
O145 Gd121 2.327 . S
O145 C130 1.257 . S
O146 Gd121 2.377 . S
O146 C131 1.240 . S
O147 Gd120 2.395 . S
O147 C131 1.240 . S
O148 Gd121 2.448 . S
O148 C132 1.249 . S
O149 Gd121 2.506 . S
O149 C132 1.252 . S
O150 Gd121 2.435 . S
O150 C139 1.256 . S
O151 Gd120 2.327 . S
O151 Gd121 2.717 . S
O151 C139 1.257 . S
H152 C125 0.930 . S
H153 C126 0.931 . S
H154 C128 0.931 . S
H155 C129 0.931 . S
H156 C134 0.930 . S
H157 C135 0.931 . S
H158 C137 0.931 . S
H159 C138 0.931 . S
Gd160 C163 2.818 . S
Gd160 O180 2.377 . S
Gd160 O182 2.448 . S
Gd160 O183 2.506 . S
Gd160 O184 2.435 . S
Gd160 O185 2.717 . S
Gd160 O187 2.395 . S
Gd160 O191 2.327 . S
Gd161 C172 2.818 . S
Gd161 O181 2.395 . S
Gd161 O185 2.327 . S
Gd161 O186 2.377 . S
Gd161 O188 2.448 . S
Gd161 O189 2.506 . S
Gd161 O190 2.435 . S
Gd161 O191 2.717 . S
C162 O180 1.240 . S
C162 O181 1.240 . S
C163 Gd160 2.818 . S
C163 C164 1.510 . S
C163 O182 1.249 . S
C163 O183 1.252 . S
C164 C163 1.510 . S
C164 C165 1.404 . S
C164 C166 1.352 . S
C165 C164 1.404 . S
C165 C169 1.389 . S
C165 H192 0.930 . S
C166 C164 1.352 . S
C166 C168 1.374 . S
C166 H193 0.931 . S
C167 C168 1.359 . S
C167 C169 1.364 . S
C168 C166 1.374 . S
C168 C167 1.359 . S
C168 H194 0.931 . S
C169 C165 1.389 . S
C169 C167 1.364 . S
C169 H195 0.931 . S
C170 O184 1.256 . S
C170 O185 1.257 . S
C171 O186 1.240 . S
C171 O187 1.240 . S
C172 Gd161 2.818 . S
C172 C173 1.510 . S
C172 O188 1.249 . S
C172 O189 1.252 . S
C173 C172 1.510 . S
C173 C174 1.404 . S
C173 C175 1.352 . S
C174 C173 1.404 . S
C174 C178 1.389 . S
C174 H196 0.930 . S
C175 C173 1.352 . S
C175 C177 1.374 . S
C175 H197 0.931 . S
C176 C177 1.359 . S
C176 C178 1.364 . S
C177 C175 1.374 . S
C177 C176 1.359 . S
C177 H198 0.931 . S
C178 C174 1.389 . S
C178 C176 1.364 . S
C178 H199 0.931 . S
C179 O190 1.256 . S
C179 O191 1.257 . S
O180 Gd160 2.377 . S
O180 C162 1.240 . S
O181 Gd161 2.395 . S
O181 C162 1.240 . S
O182 Gd160 2.448 . S
O182 C163 1.249 . S
O183 Gd160 2.506 . S
O183 C163 1.252 . S
O184 Gd160 2.435 . S
O184 C170 1.256 . S
O185 Gd160 2.717 . S
O185 Gd161 2.327 . S
O185 C170 1.257 . S
O186 Gd161 2.377 . S
O186 C171 1.240 . S
O187 Gd160 2.395 . S
O187 C171 1.240 . S
O188 Gd161 2.448 . S
O188 C172 1.249 . S
O189 Gd161 2.506 . S
O189 C172 1.252 . S
O190 Gd161 2.435 . S
O190 C179 1.256 . S
O191 Gd160 2.327 . S
O191 Gd161 2.717 . S
O191 C179 1.257 . S
H192 C165 0.930 . S
H193 C166 0.931 . S
H194 C168 0.931 . S
H195 C169 0.931 . S
H196 C174 0.930 . S
H197 C175 0.931 . S
H198 C177 0.931 . S
H199 C178 0.931 . S
Gd200 C203 2.818 . S
Gd200 O220 2.377 . S
Gd200 O222 2.448 . S
Gd200 O223 2.506 . S
Gd200 O224 2.435 . S
Gd200 O225 2.717 . S
Gd200 O227 2.395 . S
Gd200 O231 2.327 . S
Gd201 C212 2.818 . S
Gd201 O221 2.395 . S
Gd201 O225 2.327 . S
Gd201 O226 2.377 . S
Gd201 O228 2.448 . S
Gd201 O229 2.506 . S
Gd201 O230 2.435 . S
Gd201 O231 2.717 . S
C202 O220 1.240 . S
C202 O221 1.240 . S
C203 Gd200 2.818 . S
C203 C204 1.510 . S
C203 O222 1.249 . S
C203 O223 1.252 . S
C204 C203 1.510 . S
C204 C205 1.404 . S
C204 C206 1.352 . S
C205 C204 1.404 . S
C205 C209 1.389 . S
C205 H232 0.930 . S
C206 C204 1.352 . S
C206 C208 1.374 . S
C206 H233 0.931 . S
C207 C208 1.359 . S
C207 C209 1.364 . S
C208 C206 1.374 . S
C208 C207 1.359 . S
C208 H234 0.931 . S
C209 C205 1.389 . S
C209 C207 1.364 . S
C209 H235 0.931 . S
C210 O224 1.256 . S
C210 O225 1.257 . S
C211 O226 1.240 . S
C211 O227 1.240 . S
C212 Gd201 2.818 . S
C212 C213 1.510 . S
C212 O228 1.249 . S
C212 O229 1.252 . S
C213 C212 1.510 . S
C213 C214 1.404 . S
C213 C215 1.352 . S
C214 C213 1.404 . S
C214 C218 1.389 . S
C214 H236 0.930 . S
C215 C213 1.352 . S
C215 C217 1.374 . S
C215 H237 0.931 . S
C216 C217 1.359 . S
C216 C218 1.364 . S
C217 C215 1.374 . S
C217 C216 1.359 . S
C217 H238 0.931 . S
C218 C214 1.389 . S
C218 C216 1.364 . S
C218 H239 0.931 . S
C219 O230 1.256 . S
C219 O231 1.257 . S
O220 Gd200 2.377 . S
O220 C202 1.240 . S
O221 Gd201 2.395 . S
O221 C202 1.240 . S
O222 Gd200 2.448 . S
O222 C203 1.249 . S
O223 Gd200 2.506 . S
O223 C203 1.252 . S
O224 Gd200 2.435 . S
O224 C210 1.256 . S
O225 Gd200 2.717 . S
O225 Gd201 2.327 . S
O225 C210 1.257 . S
O226 Gd201 2.377 . S
O226 C211 1.240 . S
O227 Gd200 2.395 . S
O227 C211 1.240 . S
O228 Gd201 2.448 . S
O228 C212 1.249 . S
O229 Gd201 2.506 . S
O229 C212 1.252 . S
O230 Gd201 2.435 . S
O230 C219 1.256 . S
O231 Gd200 2.327 . S
O231 Gd201 2.717 . S
O231 C219 1.257 . S
H232 C205 0.930 . S
H233 C206 0.931 . S
H234 C208 0.931 . S
H235 C209 0.931 . S
H236 C214 0.930 . S
H237 C215 0.931 . S
H238 C217 0.931 . S
H239 C218 0.931 . S
Gd240 C243 2.818 . S
Gd240 O260 2.377 . S
Gd240 O262 2.448 . S
Gd240 O263 2.506 . S
Gd240 O264 2.435 . S
Gd240 O265 2.717 . S
Gd240 O267 2.395 . S
Gd240 O271 2.327 . S
Gd241 C252 2.818 . S
Gd241 O261 2.395 . S
Gd241 O265 2.327 . S
Gd241 O266 2.377 . S
Gd241 O268 2.448 . S
Gd241 O269 2.506 . S
Gd241 O270 2.435 . S
Gd241 O271 2.717 . S
C242 O260 1.240 . S
C242 O261 1.240 . S
C243 Gd240 2.818 . S
C243 C244 1.510 . S
C243 O262 1.249 . S
C243 O263 1.252 . S
C244 C243 1.510 . S
C244 C245 1.404 . S
C244 C246 1.352 . S
C245 C244 1.404 . S
C245 C249 1.389 . S
C245 H272 0.930 . S
C246 C244 1.352 . S
C246 C248 1.374 . S
C246 H273 0.931 . S
C247 C248 1.359 . S
C247 C249 1.364 . S
C248 C246 1.374 . S
C248 C247 1.359 . S
C248 H274 0.931 . S
C249 C245 1.389 . S
C249 C247 1.364 . S
C249 H275 0.931 . S
C250 O264 1.256 . S
C250 O265 1.257 . S
C251 O266 1.240 . S
C251 O267 1.240 . S
C252 Gd241 2.818 . S
C252 C253 1.510 . S
C252 O268 1.249 . S
C252 O269 1.252 . S
C253 C252 1.510 . S
C253 C254 1.404 . S
C253 C255 1.352 . S
C254 C253 1.404 . S
C254 C258 1.389 . S
C254 H276 0.930 . S
C255 C253 1.352 . S
C255 C257 1.374 . S
C255 H277 0.931 . S
C256 C257 1.359 . S
C256 C258 1.364 . S
C257 C255 1.374 . S
C257 C256 1.359 . S
C257 H278 0.931 . S
C258 C254 1.389 . S
C258 C256 1.364 . S
C258 H279 0.931 . S
C259 O270 1.256 . S
C259 O271 1.257 . S
O260 Gd240 2.377 . S
O260 C242 1.240 . S
O261 Gd241 2.395 . S
O261 C242 1.240 . S
O262 Gd240 2.448 . S
O262 C243 1.249 . S
O263 Gd240 2.506 . S
O263 C243 1.252 . S
O264 Gd240 2.435 . S
O264 C250 1.256 . S
O265 Gd240 2.717 . S
O265 Gd241 2.327 . S
O265 C250 1.257 . S
O266 Gd241 2.377 . S
O266 C251 1.240 . S
O267 Gd240 2.395 . S
O267 C251 1.240 . S
O268 Gd241 2.448 . S
O268 C252 1.249 . S
O269 Gd241 2.506 . S
O269 C252 1.252 . S
O270 Gd241 2.435 . S
O270 C259 1.256 . S
O271 Gd240 2.327 . S
O271 Gd241 2.717 . S
O271 C259 1.257 . S
H272 C245 0.930 . S
H273 C246 0.931 . S
H274 C248 0.931 . S
H275 C249 0.931 . S
H276 C254 0.930 . S
H277 C255 0.931 . S
H278 C257 0.931 . S
H279 C258 0.931 . S
Gd280 C283 2.818 . S
Gd280 O300 2.377 . S
Gd280 O302 2.448 . S
Gd280 O303 2.506 . S
Gd280 O304 2.435 . S
Gd280 O305 2.717 . S
Gd280 O307 2.395 . S
Gd280 O311 2.327 . S
Gd281 C292 2.818 . S
Gd281 O301 2.395 . S
Gd281 O305 2.327 . S
Gd281 O306 2.377 . S
Gd281 O308 2.448 . S
Gd281 O309 2.506 . S
Gd281 O310 2.435 . S
Gd281 O311 2.717 . S
C282 O300 1.240 . S
C282 O301 1.240 . S
C283 Gd280 2.818 . S
C283 C284 1.510 . S
C283 O302 1.249 . S
C283 O303 1.252 . S
C284 C283 1.510 . S
C284 C285 1.404 . S
C284 C286 1.352 . S
C285 C284 1.404 . S
C285 C289 1.389 . S
C285 H312 0.930 . S
C286 C284 1.352 . S
C286 C288 1.374 . S
C286 H313 0.931 . S
C287 C288 1.359 . S
C287 C289 1.364 . S
C288 C286 1.374 . S
C288 C287 1.359 . S
C288 H314 0.931 . S
C289 C285 1.389 . S
C289 C287 1.364 . S
C289 H315 0.931 . S
C290 O304 1.256 . S
C290 O305 1.257 . S
C291 O306 1.240 . S
C291 O307 1.240 . S
C292 Gd281 2.818 . S
C292 C293 1.510 . S
C292 O308 1.249 . S
C292 O309 1.252 . S
C293 C292 1.510 . S
C293 C294 1.404 . S
C293 C295 1.352 . S
C294 C293 1.404 . S
C294 C298 1.389 . S
C294 H316 0.930 . S
C295 C293 1.352 . S
C295 C297 1.374 . S
C295 H317 0.931 . S
C296 C297 1.359 . S
C296 C298 1.364 . S
C297 C295 1.374 . S
C297 C296 1.359 . S
C297 H318 0.931 . S
C298 C294 1.389 . S
C298 C296 1.364 . S
C298 H319 0.931 . S
C299 O310 1.256 . S
C299 O311 1.257 . S
O300 Gd280 2.377 . S
O300 C282 1.240 . S
O301 Gd281 2.395 . S
O301 C282 1.240 . S
O302 Gd280 2.448 . S
O302 C283 1.249 . S
O303 Gd280 2.506 . S
O303 C283 1.252 . S
O304 Gd280 2.435 . S
O304 C290 1.256 . S
O305 Gd280 2.717 . S
O305 Gd281 2.327 . S
O305 C290 1.257 . S
O306 Gd281 2.377 . S
O306 C291 1.240 . S
O307 Gd280 2.395 . S
O307 C291 1.240 . S
O308 Gd281 2.448 . S
O308 C292 1.249 . S
O309 Gd281 2.506 . S
O309 C292 1.252 . S
O310 Gd281 2.435 . S
O310 C299 1.256 . S
O311 Gd280 2.327 . S
O311 Gd281 2.717 . S
O311 C299 1.257 . S
H312 C285 0.930 . S
H313 C286 0.931 . S
H314 C288 0.931 . S
H315 C289 0.931 . S
H316 C294 0.930 . S
H317 C295 0.931 . S
H318 C297 0.931 . S
H319 C298 0.931 . S
Gd320 C323 2.818 . S
Gd320 O340 2.377 . S
Gd320 O342 2.448 . S
Gd320 O343 2.506 . S
Gd320 O344 2.435 . S
Gd320 O345 2.717 . S
Gd320 O347 2.395 . S
Gd320 O351 2.327 . S
Gd321 C332 2.818 . S
Gd321 O341 2.395 . S
Gd321 O345 2.327 . S
Gd321 O346 2.377 . S
Gd321 O348 2.448 . S
Gd321 O349 2.506 . S
Gd321 O350 2.435 . S
Gd321 O351 2.717 . S
C322 O340 1.240 . S
C322 O341 1.240 . S
C323 Gd320 2.818 . S
C323 C324 1.510 . S
C323 O342 1.249 . S
C323 O343 1.252 . S
C324 C323 1.510 . S
C324 C325 1.404 . S
C324 C326 1.352 . S
C325 C324 1.404 . S
C325 C329 1.389 . S
C325 H352 0.930 . S
C326 C324 1.352 . S
C326 C328 1.374 . S
C326 H353 0.931 . S
C327 C328 1.359 . S
C327 C329 1.364 . S
C328 C326 1.374 . S
C328 C327 1.359 . S
C328 H354 0.931 . S
C329 C325 1.389 . S
C329 C327 1.364 . S
C329 H355 0.931 . S
C330 O344 1.256 . S
C330 O345 1.257 . S
C331 O346 1.240 . S
C331 O347 1.240 . S
C332 Gd321 2.818 . S
C332 C333 1.510 . S
C332 O348 1.249 . S
C332 O349 1.252 . S
C333 C332 1.510 . S
C333 C334 1.404 . S
C333 C335 1.352 . S
C334 C333 1.404 . S
C334 C338 1.389 . S
C334 H356 0.930 . S
C335 C333 1.352 . S
C335 C337 1.374 . S
C335 H357 0.931 . S
C336 C337 1.359 . S
C336 C338 1.364 . S
C337 C335 1.374 . S
C337 C336 1.359 . S
C337 H358 0.931 . S
C338 C334 1.389 . S
C338 C336 1.364 . S
C338 H359 0.931 . S
C339 O350 1.256 . S
C339 O351 1.257 . S
O340 Gd320 2.377 . S
O340 C322 1.240 . S
O341 Gd321 2.395 . S
O341 C322 1.240 . S
O342 Gd320 2.448 . S
O342 C323 1.249 . S
O343 Gd320 2.506 . S
O343 C323 1.252 . S
O344 Gd320 2.435 . S
O344 C330 1.256 . S
O345 Gd320 2.717 . S
O345 Gd321 2.327 . S
O345 C330 1.257 . S
O346 Gd321 2.377 . S
O346 C331 1.240 . S
O347 Gd320 2.395 . S
O347 C331 1.240 . S
O348 Gd321 2.448 . S
O348 C332 1.249 . S
O349 Gd321 2.506 . S
O349 C332 1.252 . S
O350 Gd321 2.435 . S
O350 C339 1.256 . S
O351 Gd320 2.327 . S
O351 Gd321 2.717 . S
O351 C339 1.257 . S
H352 C325 0.930 . S
H353 C326 0.931 . S
H354 C328 0.931 . S
H355 C329 0.931 . S
H356 C334 0.930 . S
H357 C335 0.931 . S
H358 C337 0.931 . S
H359 C338 0.931 . S
Gd360 C363 2.818 . S
Gd360 O380 2.377 . S
Gd360 O382 2.448 . S
Gd360 O383 2.506 . S
Gd360 O384 2.435 . S
Gd360 O385 2.717 . S
Gd360 O387 2.395 . S
Gd360 O391 2.327 . S
Gd361 C372 2.818 . S
Gd361 O381 2.395 . S
Gd361 O385 2.327 . S
Gd361 O386 2.377 . S
Gd361 O388 2.448 . S
Gd361 O389 2.506 . S
Gd361 O390 2.435 . S
Gd361 O391 2.717 . S
C362 O380 1.240 . S
C362 O381 1.240 . S
C363 Gd360 2.818 . S
C363 C364 1.510 . S
C363 O382 1.249 . S
C363 O383 1.252 . S
C364 C363 1.510 . S
C364 C365 1.404 . S
C364 C366 1.352 . S
C365 C364 1.404 . S
C365 C369 1.389 . S
C365 H392 0.930 . S
C366 C364 1.352 . S
C366 C368 1.374 . S
C366 H393 0.931 . S
C367 C368 1.359 . S
C367 C369 1.364 . S
C368 C366 1.374 . S
C368 C367 1.359 . S
C368 H394 0.931 . S
C369 C365 1.389 . S
C369 C367 1.364 . S
C369 H395 0.931 . S
C370 O384 1.256 . S
C370 O385 1.257 . S
C371 O386 1.240 . S
C371 O387 1.240 . S
C372 Gd361 2.818 . S
C372 C373 1.510 . S
C372 O388 1.249 . S
C372 O389 1.252 . S
C373 C372 1.510 . S
C373 C374 1.404 . S
C373 C375 1.352 . S
C374 C373 1.404 . S
C374 C378 1.389 . S
C374 H396 0.930 . S
C375 C373 1.352 . S
C375 C377 1.374 . S
C375 H397 0.931 . S
C376 C377 1.359 . S
C376 C378 1.364 . S
C377 C375 1.374 . S
C377 C376 1.359 . S
C377 H398 0.931 . S
C378 C374 1.389 . S
C378 C376 1.364 . S
C378 H399 0.931 . S
C379 O390 1.256 . S
C379 O391 1.257 . S
O380 Gd360 2.377 . S
O380 C362 1.240 . S
O381 Gd361 2.395 . S
O381 C362 1.240 . S
O382 Gd360 2.448 . S
O382 C363 1.249 . S
O383 Gd360 2.506 . S
O383 C363 1.252 . S
O384 Gd360 2.435 . S
O384 C370 1.256 . S
O385 Gd360 2.717 . S
O385 Gd361 2.327 . S
O385 C370 1.257 . S
O386 Gd361 2.377 . S
O386 C371 1.240 . S
O387 Gd360 2.395 . S
O387 C371 1.240 . S
O388 Gd361 2.448 . S
O388 C372 1.249 . S
O389 Gd361 2.506 . S
O389 C372 1.252 . S
O390 Gd361 2.435 . S
O390 C379 1.256 . S
O391 Gd360 2.327 . S
O391 Gd361 2.717 . S
O391 C379 1.257 . S
H392 C365 0.930 . S
H393 C366 0.931 . S
H394 C368 0.931 . S
H395 C369 0.931 . S
H396 C374 0.930 . S
H397 C375 0.931 . S
H398 C377 0.931 . S
H399 C378 0.931 . S
Gd400 C403 2.818 . S
Gd400 O420 2.377 . S
Gd400 O422 2.448 . S
Gd400 O423 2.506 . S
Gd400 O424 2.435 . S
Gd400 O425 2.717 . S
Gd400 O427 2.395 . S
Gd400 O431 2.327 . S
Gd401 C412 2.818 . S
Gd401 O421 2.395 . S
Gd401 O425 2.327 . S
Gd401 O426 2.377 . S
Gd401 O428 2.448 . S
Gd401 O429 2.506 . S
Gd401 O430 2.435 . S
Gd401 O431 2.717 . S
C402 O420 1.240 . S
C402 O421 1.240 . S
C403 Gd400 2.818 . S
C403 C404 1.510 . S
C403 O422 1.249 . S
C403 O423 1.252 . S
C404 C403 1.510 . S
C404 C405 1.404 . S
C404 C406 1.352 . S
C405 C404 1.404 . S
C405 C409 1.389 . S
C405 H432 0.930 . S
C406 C404 1.352 . S
C406 C408 1.374 . S
C406 H433 0.931 . S
C407 C408 1.359 . S
C407 C409 1.364 . S
C408 C406 1.374 . S
C408 C407 1.359 . S
C408 H434 0.931 . S
C409 C405 1.389 . S
C409 C407 1.364 . S
C409 H435 0.931 . S
C410 O424 1.256 . S
C410 O425 1.257 . S
C411 O426 1.240 . S
C411 O427 1.240 . S
C412 Gd401 2.818 . S
C412 C413 1.510 . S
C412 O428 1.249 . S
C412 O429 1.252 . S
C413 C412 1.510 . S
C413 C414 1.404 . S
C413 C415 1.352 . S
C414 C413 1.404 . S
C414 C418 1.389 . S
C414 H436 0.930 . S
C415 C413 1.352 . S
C415 C417 1.374 . S
C415 H437 0.931 . S
C416 C417 1.359 . S
C416 C418 1.364 . S
C417 C415 1.374 . S
C417 C416 1.359 . S
C417 H438 0.931 . S
C418 C414 1.389 . S
C418 C416 1.364 . S
C418 H439 0.931 . S
C419 O430 1.256 . S
C419 O431 1.257 . S
O420 Gd400 2.377 . S
O420 C402 1.240 . S
O421 Gd401 2.395 . S
O421 C402 1.240 . S
O422 Gd400 2.448 . S
O422 C403 1.249 . S
O423 Gd400 2.506 . S
O423 C403 1.252 . S
O424 Gd400 2.435 . S
O424 C410 1.256 . S
O425 Gd400 2.717 . S
O425 Gd401 2.327 . S
O425 C410 1.257 . S
O426 Gd401 2.377 . S
O426 C411 1.240 . S
O427 Gd400 2.395 . S
O427 C411 1.240 . S
O428 Gd401 2.448 . S
O428 C412 1.249 . S
O429 Gd401 2.506 . S
O429 C412 1.252 . S
O430 Gd401 2.435 . S
O430 C419 1.256 . S
O431 Gd400 2.327 . S
O431 Gd401 2.717 . S
O431 C419 1.257 . S
H432 C405 0.930 . S
H433 C406 0.931 . S
H434 C408 0.931 . S
H435 C409 0.931 . S
H436 C414 0.930 . S
H437 C415 0.931 . S
H438 C417 0.931 . S
H439 C418 0.931 . S
Gd440 C443 2.818 . S
Gd440 O460 2.377 . S
Gd440 O462 2.448 . S
Gd440 O463 2.506 . S
Gd440 O464 2.435 . S
Gd440 O465 2.717 . S
Gd440 O467 2.395 . S
Gd440 O471 2.327 . S
Gd441 C452 2.818 . S
Gd441 O461 2.395 . S
Gd441 O465 2.327 . S
Gd441 O466 2.377 . S
Gd441 O468 2.448 . S
Gd441 O469 2.506 . S
Gd441 O470 2.435 . S
Gd441 O471 2.717 . S
C442 O460 1.240 . S
C442 O461 1.240 . S
C443 Gd440 2.818 . S
C443 C444 1.510 . S
C443 O462 1.249 . S
C443 O463 1.252 . S
C444 C443 1.510 . S
C444 C445 1.404 . S
C444 C446 1.352 . S
C445 C444 1.404 . S
C445 C449 1.389 . S
C445 H472 0.930 . S
C446 C444 1.352 . S
C446 C448 1.374 . S
C446 H473 0.931 . S
C447 C448 1.359 . S
C447 C449 1.364 . S
C448 C446 1.374 . S
C448 C447 1.359 . S
C448 H474 0.931 . S
C449 C445 1.389 . S
C449 C447 1.364 . S
C449 H475 0.931 . S
C450 O464 1.256 . S
C450 O465 1.257 . S
C451 O466 1.240 . S
C451 O467 1.240 . S
C452 Gd441 2.818 . S
C452 C453 1.510 . S
C452 O468 1.249 . S
C452 O469 1.252 . S
C453 C452 1.510 . S
C453 C454 1.404 . S
C453 C455 1.352 . S
C454 C453 1.404 . S
C454 C458 1.389 . S
C454 H476 0.930 . S
C455 C453 1.352 . S
C455 C457 1.374 . S
C455 H477 0.931 . S
C456 C457 1.359 . S
C456 C458 1.364 . S
C457 C455 1.374 . S
C457 C456 1.359 . S
C457 H478 0.931 . S
C458 C454 1.389 . S
C458 C456 1.364 . S
C458 H479 0.931 . S
C459 O470 1.256 . S
C459 O471 1.257 . S
O460 Gd440 2.377 . S
O460 C442 1.240 . S
O461 Gd441 2.395 . S
O461 C442 1.240 . S
O462 Gd440 2.448 . S
O462 C443 1.249 . S
O463 Gd440 2.506 . S
O463 C443 1.252 . S
O464 Gd440 2.435 . S
O464 C450 1.256 . S
O465 Gd440 2.717 . S
O465 Gd441 2.327 . S
O465 C450 1.257 . S
O466 Gd441 2.377 . S
O466 C451 1.240 . S
O467 Gd440 2.395 . S
O467 C451 1.240 . S
O468 Gd441 2.448 . S
O468 C452 1.249 . S
O469 Gd441 2.506 . S
O469 C452 1.252 . S
O470 Gd441 2.435 . S
O470 C459 1.256 . S
O471 Gd440 2.327 . S
O471 Gd441 2.717 . S
O471 C459 1.257 . S
H472 C445 0.930 . S
H473 C446 0.931 . S
H474 C448 0.931 . S
H475 C449 0.931 . S
H476 C454 0.930 . S
H477 C455 0.931 . S
H478 C457 0.931 . S
H479 C458 0.931 . S
Gd480 C483 2.818 . S
Gd480 O500 2.377 . S
Gd480 O502 2.448 . S
Gd480 O503 2.506 . S
Gd480 O504 2.435 . S
Gd480 O505 2.717 . S
Gd480 O507 2.395 . S
Gd480 O511 2.327 . S
Gd481 C492 2.818 . S
Gd481 O501 2.395 . S
Gd481 O505 2.327 . S
Gd481 O506 2.377 . S
Gd481 O508 2.448 . S
Gd481 O509 2.506 . S
Gd481 O510 2.435 . S
Gd481 O511 2.717 . S
C482 O500 1.240 . S
C482 O501 1.240 . S
C483 Gd480 2.818 . S
C483 C484 1.510 . S
C483 O502 1.249 . S
C483 O503 1.252 . S
C484 C483 1.510 . S
C484 C485 1.404 . S
C484 C486 1.352 . S
C485 C484 1.404 . S
C485 C489 1.389 . S
C485 H512 0.930 . S
C486 C484 1.352 . S
C486 C488 1.374 . S
C486 H513 0.931 . S
C487 C488 1.359 . S
C487 C489 1.364 . S
C488 C486 1.374 . S
C488 C487 1.359 . S
C488 H514 0.931 . S
C489 C485 1.389 . S
C489 C487 1.364 . S
C489 H515 0.931 . S
C490 O504 1.256 . S
C490 O505 1.257 . S
C491 O506 1.240 . S
C491 O507 1.240 . S
C492 Gd481 2.818 . S
C492 C493 1.510 . S
C492 O508 1.249 . S
C492 O509 1.252 . S
C493 C492 1.510 . S
C493 C494 1.404 . S
C493 C495 1.352 . S
C494 C493 1.404 . S
C494 C498 1.389 . S
C494 H516 0.930 . S
C495 C493 1.352 . S
C495 C497 1.374 . S
C495 H517 0.931 . S
C496 C497 1.359 . S
C496 C498 1.364 . S
C497 C495 1.374 . S
C497 C496 1.359 . S
C497 H518 0.931 . S
C498 C494 1.389 . S
C498 C496 1.364 . S
C498 H519 0.931 . S
C499 O510 1.256 . S
C499 O511 1.257 . S
O500 Gd480 2.377 . S
O500 C482 1.240 . S
O501 Gd481 2.395 . S
O501 C482 1.240 . S
O502 Gd480 2.448 . S
O502 C483 1.249 . S
O503 Gd480 2.506 . S
O503 C483 1.252 . S
O504 Gd480 2.435 . S
O504 C490 1.256 . S
O505 Gd480 2.717 . S
O505 Gd481 2.327 . S
O505 C490 1.257 . S
O506 Gd481 2.377 . S
O506 C491 1.240 . S
O507 Gd480 2.395 . S
O507 C491 1.240 . S
O508 Gd481 2.448 . S
O508 C492 1.249 . S
O509 Gd481 2.506 . S
O509 C492 1.252 . S
O510 Gd481 2.435 . S
O510 C499 1.256 . S
O511 Gd480 2.327 . S
O511 Gd481 2.717 . S
O511 C499 1.257 . S
H512 C485 0.930 . S
H513 C486 0.931 . S
H514 C488 0.931 . S
H515 C489 0.931 . S
H516 C494 0.930 . S
H517 C495 0.931 . S
H518 C497 0.931 . S
H519 C498 0.931 . S
Gd520 C523 2.818 . S
Gd520 O540 2.377 . S
Gd520 O542 2.448 . S
Gd520 O543 2.506 . S
Gd520 O544 2.435 . S
Gd520 O545 2.717 . S
Gd520 O547 2.395 . S
Gd520 O551 2.327 . S
Gd521 C532 2.818 . S
Gd521 O541 2.395 . S
Gd521 O545 2.327 . S
Gd521 O546 2.377 . S
Gd521 O548 2.448 . S
Gd521 O549 2.506 . S
Gd521 O550 2.435 . S
Gd521 O551 2.717 . S
C522 O540 1.240 . S
C522 O541 1.240 . S
C523 Gd520 2.818 . S
C523 C524 1.510 . S
C523 O542 1.249 . S
C523 O543 1.252 . S
C524 C523 1.510 . S
C524 C525 1.404 . S
C524 C526 1.352 . S
C525 C524 1.404 . S
C525 C529 1.389 . S
C525 H552 0.930 . S
C526 C524 1.352 . S
C526 C528 1.374 . S
C526 H553 0.931 . S
C527 C528 1.359 . S
C527 C529 1.364 . S
C528 C526 1.374 . S
C528 C527 1.359 . S
C528 H554 0.931 . S
C529 C525 1.389 . S
C529 C527 1.364 . S
C529 H555 0.931 . S
C530 O544 1.256 . S
C530 O545 1.257 . S
C531 O546 1.240 . S
C531 O547 1.240 . S
C532 Gd521 2.818 . S
C532 C533 1.510 . S
C532 O548 1.249 . S
C532 O549 1.252 . S
C533 C532 1.510 . S
C533 C534 1.404 . S
C533 C535 1.352 . S
C534 C533 1.404 . S
C534 C538 1.389 . S
C534 H556 0.930 . S
C535 C533 1.352 . S
C535 C537 1.374 . S
C535 H557 0.931 . S
C536 C537 1.359 . S
C536 C538 1.364 . S
C537 C535 1.374 . S
C537 C536 1.359 . S
C537 H558 0.931 . S
C538 C534 1.389 . S
C538 C536 1.364 . S
C538 H559 0.931 . S
C539 O550 1.256 . S
C539 O551 1.257 . S
O540 Gd520 2.377 . S
O540 C522 1.240 . S
O541 Gd521 2.395 . S
O541 C522 1.240 . S
O542 Gd520 2.448 . S
O542 C523 1.249 . S
O543 Gd520 2.506 . S
O543 C523 1.252 . S
O544 Gd520 2.435 . S
O544 C530 1.256 . S
O545 Gd520 2.717 . S
O545 Gd521 2.327 . S
O545 C530 1.257 . S
O546 Gd521 2.377 . S
O546 C531 1.240 . S
O547 Gd520 2.395 . S
O547 C531 1.240 . S
O548 Gd521 2.448 . S
O548 C532 1.249 . S
O549 Gd521 2.506 . S
O549 C532 1.252 . S
O550 Gd521 2.435 . S
O550 C539 1.256 . S
O551 Gd520 2.327 . S
O551 Gd521 2.717 . S
O551 C539 1.257 . S
H552 C525 0.930 . S
H553 C526 0.931 . S
H554 C528 0.931 . S
H555 C529 0.931 . S
H556 C534 0.930 . S
H557 C535 0.931 . S
H558 C537 0.931 . S
H559 C538 0.931 . S
Gd560 C563 2.818 . S
Gd560 O580 2.377 . S
Gd560 O582 2.448 . S
Gd560 O583 2.506 . S
Gd560 O584 2.435 . S
Gd560 O585 2.717 . S
Gd560 O587 2.395 . S
Gd560 O591 2.327 . S
Gd561 C572 2.818 . S
Gd561 O581 2.395 . S
Gd561 O585 2.327 . S
Gd561 O586 2.377 . S
Gd561 O588 2.448 . S
Gd561 O589 2.506 . S
Gd561 O590 2.435 . S
Gd561 O591 2.717 . S
C562 O580 1.240 . S
C562 O581 1.240 . S
C563 Gd560 2.818 . S
C563 C564 1.510 . S
C563 O582 1.249 . S
C563 O583 1.252 . S
C564 C563 1.510 . S
C564 C565 1.404 . S
C564 C566 1.352 . S
C565 C564 1.404 . S
C565 C569 1.389 . S
C565 H592 0.930 . S
C566 C564 1.352 . S
C566 C568 1.374 . S
C566 H593 0.931 . S
C567 C568 1.359 . S
C567 C569 1.364 . S
C568 C566 1.374 . S
C568 C567 1.359 . S
C568 H594 0.931 . S
C569 C565 1.389 . S
C569 C567 1.364 . S
C569 H595 0.931 . S
C570 O584 1.256 . S
C570 O585 1.257 . S
C571 O586 1.240 . S
C571 O587 1.240 . S
C572 Gd561 2.818 . S
C572 C573 1.510 . S
C572 O588 1.249 . S
C572 O589 1.252 . S
C573 C572 1.510 . S
C573 C574 1.404 . S
C573 C575 1.352 . S
C574 C573 1.404 . S
C574 C578 1.389 . S
C574 H596 0.930 . S
C575 C573 1.352 . S
C575 C577 1.374 . S
C575 H597 0.931 . S
C576 C577 1.359 . S
C576 C578 1.364 . S
C577 C575 1.374 . S
C577 C576 1.359 . S
C577 H598 0.931 . S
C578 C574 1.389 . S
C578 C576 1.364 . S
C578 H599 0.931 . S
C579 O590 1.256 . S
C579 O591 1.257 . S
O580 Gd560 2.377 . S
O580 C562 1.240 . S
O581 Gd561 2.395 . S
O581 C562 1.240 . S
O582 Gd560 2.448 . S
O582 C563 1.249 . S
O583 Gd560 2.506 . S
O583 C563 1.252 . S
O584 Gd560 2.435 . S
O584 C570 1.256 . S
O585 Gd560 2.717 . S
O585 Gd561 2.327 . S
O585 C570 1.257 . S
O586 Gd561 2.377 . S
O586 C571 1.240 . S
O587 Gd560 2.395 . S
O587 C571 1.240 . S
O588 Gd561 2.448 . S
O588 C572 1.249 . S
O589 Gd561 2.506 . S
O589 C572 1.252 . S
O590 Gd561 2.435 . S
O590 C579 1.256 . S
O591 Gd560 2.327 . S
O591 Gd561 2.717 . S
O591 C579 1.257 . S
H592 C565 0.930 . S
H593 C566 0.931 . S
H594 C568 0.931 . S
H595 C569 0.931 . S
H596 C574 0.930 . S
H597 C575 0.931 . S
H598 C577 0.931 . S
H599 C578 0.931 . S
Gd600 C603 2.818 . S
Gd600 O620 2.377 . S
Gd600 O622 2.448 . S
Gd600 O623 2.506 . S
Gd600 O624 2.435 . S
Gd600 O625 2.717 . S
Gd600 O627 2.395 . S
Gd600 O631 2.327 . S
Gd601 C612 2.818 . S
Gd601 O621 2.395 . S
Gd601 O625 2.327 . S
Gd601 O626 2.377 . S
Gd601 O628 2.448 . S
Gd601 O629 2.506 . S
Gd601 O630 2.435 . S
Gd601 O631 2.717 . S
C602 O620 1.240 . S
C602 O621 1.240 . S
C603 Gd600 2.818 . S
C603 C604 1.510 . S
C603 O622 1.249 . S
C603 O623 1.252 . S
C604 C603 1.510 . S
C604 C605 1.404 . S
C604 C606 1.352 . S
C605 C604 1.404 . S
C605 C609 1.389 . S
C605 H632 0.930 . S
C606 C604 1.352 . S
C606 C608 1.374 1_655 S
C606 H633 0.931 1_655 S
C607 C608 1.359 1_655 S
C607 C609 1.364 . S
C608 C606 1.374 1_455 S
C608 C607 1.359 1_455 S
C608 H634 0.931 . S
C609 C605 1.389 . S
C609 C607 1.364 . S
C609 H635 0.931 . S
C610 O624 1.256 . S
C610 O625 1.257 . S
C611 O626 1.240 . S
C611 O627 1.240 . S
C612 Gd601 2.818 . S
C612 C613 1.510 . S
C612 O628 1.249 . S
C612 O629 1.252 . S
C613 C612 1.510 . S
C613 C614 1.404 . S
C613 C615 1.352 . S
C614 C613 1.404 . S
C614 C618 1.389 . S
C614 H636 0.930 . S
C615 C613 1.352 . S
C615 C617 1.374 . S
C615 H637 0.931 . S
C616 C617 1.359 . S
C616 C618 1.364 . S
C617 C615 1.374 . S
C617 C616 1.359 . S
C617 H638 0.931 . S
C618 C614 1.389 . S
C618 C616 1.364 . S
C618 H639 0.931 . S
C619 O630 1.256 . S
C619 O631 1.257 . S
O620 Gd600 2.377 . S
O620 C602 1.240 . S
O621 Gd601 2.395 . S
O621 C602 1.240 . S
O622 Gd600 2.448 . S
O622 C603 1.249 . S
O623 Gd600 2.506 . S
O623 C603 1.252 . S
O624 Gd600 2.435 . S
O624 C610 1.256 . S
O625 Gd600 2.717 . S
O625 Gd601 2.327 . S
O625 C610 1.257 . S
O626 Gd601 2.377 . S
O626 C611 1.240 . S
O627 Gd600 2.395 . S
O627 C611 1.240 . S
O628 Gd601 2.448 . S
O628 C612 1.249 . S
O629 Gd601 2.506 . S
O629 C612 1.252 . S
O630 Gd601 2.435 . S
O630 C619 1.256 . S
O631 Gd600 2.327 . S
O631 Gd601 2.717 . S
O631 C619 1.257 . S
H632 C605 0.930 . S
H633 C606 0.931 1_455 S
H634 C608 0.931 . S
H635 C609 0.931 . S
H636 C614 0.930 . S
H637 C615 0.931 . S
H638 C617 0.931 . S
H639 C618 0.931 . S
Gd640 C643 2.818 . S
Gd640 O660 2.377 . S
Gd640 O662 2.448 . S
Gd640 O663 2.506 . S
Gd640 O664 2.435 . S
Gd640 O665 2.717 . S
Gd640 O667 2.395 . S
Gd640 O671 2.327 . S
Gd641 C652 2.818 . S
Gd641 O661 2.395 . S
Gd641 O665 2.327 . S
Gd641 O666 2.377 . S
Gd641 O668 2.448 . S
Gd641 O669 2.506 . S
Gd641 O670 2.435 . S
Gd641 O671 2.717 . S
C642 O660 1.240 . S
C642 O661 1.240 . S
C643 Gd640 2.818 . S
C643 C644 1.510 . S
C643 O662 1.249 . S
C643 O663 1.252 . S
C644 C643 1.510 . S
C644 C645 1.404 . S
C644 C646 1.352 . S
C645 C644 1.404 . S
C645 C649 1.389 . S
C645 H672 0.930 . S
C646 C644 1.352 . S
C646 C648 1.374 . S
C646 H673 0.931 . S
C647 C648 1.359 . S
C647 C649 1.364 . S
C648 C646 1.374 . S
C648 C647 1.359 . S
C648 H674 0.931 . S
C649 C645 1.389 . S
C649 C647 1.364 . S
C649 H675 0.931 . S
C650 O664 1.256 . S
C650 O665 1.257 . S
C651 O666 1.240 . S
C651 O667 1.240 . S
C652 Gd641 2.818 . S
C652 C653 1.510 . S
C652 O668 1.249 . S
C652 O669 1.252 . S
C653 C652 1.510 . S
C653 C654 1.404 . S
C653 C655 1.352 . S
C654 C653 1.404 . S
C654 C658 1.389 . S
C654 H676 0.930 . S
C655 C653 1.352 . S
C655 C657 1.374 . S
C655 H677 0.931 . S
C656 C657 1.359 . S
C656 C658 1.364 . S
C657 C655 1.374 . S
C657 C656 1.359 . S
C657 H678 0.931 . S
C658 C654 1.389 . S
C658 C656 1.364 . S
C658 H679 0.931 . S
C659 O670 1.256 . S
C659 O671 1.257 . S
O660 Gd640 2.377 . S
O660 C642 1.240 . S
O661 Gd641 2.395 . S
O661 C642 1.240 . S
O662 Gd640 2.448 . S
O662 C643 1.249 . S
O663 Gd640 2.506 . S
O663 C643 1.252 . S
O664 Gd640 2.435 . S
O664 C650 1.256 . S
O665 Gd640 2.717 . S
O665 Gd641 2.327 . S
O665 C650 1.257 . S
O666 Gd641 2.377 . S
O666 C651 1.240 . S
O667 Gd640 2.395 . S
O667 C651 1.240 . S
O668 Gd641 2.448 . S
O668 C652 1.249 . S
O669 Gd641 2.506 . S
O669 C652 1.252 . S
O670 Gd641 2.435 . S
O670 C659 1.256 . S
O671 Gd640 2.327 . S
O671 Gd641 2.717 . S
O671 C659 1.257 . S
H672 C645 0.930 . S
H673 C646 0.931 . S
H674 C648 0.931 . S
H675 C649 0.931 . S
H676 C654 0.930 . S
H677 C655 0.931 . S
H678 C657 0.931 . S
H679 C658 0.931 . S
Gd680 C683 2.818 . S
Gd680 O700 2.377 . S
Gd680 O702 2.448 . S
Gd680 O703 2.506 . S
Gd680 O704 2.435 . S
Gd680 O705 2.717 . S
Gd680 O707 2.395 . S
Gd680 O711 2.327 . S
Gd681 C692 2.818 . S
Gd681 O701 2.395 . S
Gd681 O705 2.327 . S
Gd681 O706 2.377 . S
Gd681 O708 2.448 . S
Gd681 O709 2.506 . S
Gd681 O710 2.435 . S
Gd681 O711 2.717 . S
C682 O700 1.240 . S
C682 O701 1.240 . S
C683 Gd680 2.818 . S
C683 C684 1.510 . S
C683 O702 1.249 . S
C683 O703 1.252 . S
C684 C683 1.510 . S
C684 C685 1.404 . S
C684 C686 1.352 . S
C685 C684 1.404 . S
C685 C689 1.389 . S
C685 H712 0.930 . S
C686 C684 1.352 . S
C686 C688 1.374 1_545 S
C686 H713 0.931 1_545 S
C687 C688 1.359 1_545 S
C687 C689 1.364 . S
C688 C686 1.374 1_565 S
C688 C687 1.359 1_565 S
C688 H714 0.931 . S
C689 C685 1.389 . S
C689 C687 1.364 . S
C689 H715 0.931 . S
C690 O704 1.256 . S
C690 O705 1.257 . S
C691 O706 1.240 . S
C691 O707 1.240 . S
C692 Gd681 2.818 . S
C692 C693 1.510 . S
C692 O708 1.249 . S
C692 O709 1.252 . S
C693 C692 1.510 . S
C693 C694 1.404 . S
C693 C695 1.352 . S
C694 C693 1.404 . S
C694 C698 1.389 . S
C694 H716 0.930 . S
C695 C693 1.352 . S
C695 C697 1.374 . S
C695 H717 0.931 . S
C696 C697 1.359 . S
C696 C698 1.364 . S
C697 C695 1.374 . S
C697 C696 1.359 . S
C697 H718 0.931 . S
C698 C694 1.389 . S
C698 C696 1.364 . S
C698 H719 0.931 . S
C699 O710 1.256 . S
C699 O711 1.257 . S
O700 Gd680 2.377 . S
O700 C682 1.240 . S
O701 Gd681 2.395 . S
O701 C682 1.240 . S
O702 Gd680 2.448 . S
O702 C683 1.249 . S
O703 Gd680 2.506 . S
O703 C683 1.252 . S
O704 Gd680 2.435 . S
O704 C690 1.256 . S
O705 Gd680 2.717 . S
O705 Gd681 2.327 . S
O705 C690 1.257 . S
O706 Gd681 2.377 . S
O706 C691 1.240 . S
O707 Gd680 2.395 . S
O707 C691 1.240 . S
O708 Gd681 2.448 . S
O708 C692 1.249 . S
O709 Gd681 2.506 . S
O709 C692 1.252 . S
O710 Gd681 2.435 . S
O710 C699 1.256 . S
O711 Gd680 2.327 . S
O711 Gd681 2.717 . S
O711 C699 1.257 . S
H712 C685 0.930 . S
H713 C686 0.931 1_565 S
H714 C688 0.931 . S
H715 C689 0.931 . S
H716 C694 0.930 . S
H717 C695 0.931 . S
H718 C697 0.931 . S
H719 C698 0.931 . S
Gd720 C723 2.818 . S
Gd720 O740 2.377 . S
Gd720 O742 2.448 . S
Gd720 O743 2.506 . S
Gd720 O744 2.435 . S
Gd720 O745 2.717 . S
Gd720 O747 2.395 . S
Gd720 O751 2.327 . S
Gd721 C732 2.818 . S
Gd721 O741 2.395 . S
Gd721 O745 2.327 . S
Gd721 O746 2.377 . S
Gd721 O748 2.448 . S
Gd721 O749 2.506 . S
Gd721 O750 2.435 . S
Gd721 O751 2.717 . S
C722 O740 1.240 . S
C722 O741 1.240 . S
C723 Gd720 2.818 . S
C723 C724 1.510 . S
C723 O742 1.249 . S
C723 O743 1.252 . S
C724 C723 1.510 . S
C724 C725 1.404 . S
C724 C726 1.352 . S
C725 C724 1.404 . S
C725 C729 1.389 . S
C725 H752 0.930 . S
C726 C724 1.352 . S
C726 C728 1.374 . S
C726 H753 0.931 . S
C727 C728 1.359 . S
C727 C729 1.364 . S
C728 C726 1.374 . S
C728 C727 1.359 . S
C728 H754 0.931 . S
C729 C725 1.389 . S
C729 C727 1.364 . S
C729 H755 0.931 . S
C730 O744 1.256 . S
C730 O745 1.257 . S
C731 O746 1.240 . S
C731 O747 1.240 . S
C732 Gd721 2.818 . S
C732 C733 1.510 . S
C732 O748 1.249 . S
C732 O749 1.252 . S
C733 C732 1.510 . S
C733 C734 1.404 . S
C733 C735 1.352 . S
C734 C733 1.404 . S
C734 C738 1.389 . S
C734 H756 0.930 . S
C735 C733 1.352 . S
C735 C737 1.374 1_545 S
C735 H757 0.916 1_545 S
C736 C737 1.359 1_545 S
C736 C738 1.364 . S
C737 C735 1.374 1_565 S
C737 C736 1.359 1_565 S
C737 H758 0.931 . S
C738 C734 1.389 . S
C738 C736 1.364 . S
C738 H759 0.931 . S
C739 O750 1.256 . S
C739 O751 1.257 . S
O740 Gd720 2.377 . S
O740 C722 1.240 . S
O741 Gd721 2.395 . S
O741 C722 1.240 . S
O742 Gd720 2.448 . S
O742 C723 1.249 . S
O743 Gd720 2.506 . S
O743 C723 1.252 . S
O744 Gd720 2.435 . S
O744 C730 1.256 . S
O745 Gd720 2.717 . S
O745 Gd721 2.327 . S
O745 C730 1.257 . S
O746 Gd721 2.377 . S
O746 C731 1.240 . S
O747 Gd720 2.395 . S
O747 C731 1.240 . S
O748 Gd721 2.448 . S
O748 C732 1.249 . S
O749 Gd721 2.506 . S
O749 C732 1.252 . S
O750 Gd721 2.435 . S
O750 C739 1.256 . S
O751 Gd720 2.327 . S
O751 Gd721 2.717 . S
O751 C739 1.257 . S
H752 C725 0.930 . S
H753 C726 0.931 . S
H754 C728 0.931 . S
H755 C729 0.931 . S
H756 C734 0.930 . S
H757 C735 0.916 1_565 S
H758 C737 0.931 . S
H759 C738 0.931 . S
Gd760 C763 2.818 . S
Gd760 O780 2.377 . S
Gd760 O782 2.448 . S
Gd760 O783 2.506 . S
Gd760 O784 2.435 . S
Gd760 O785 2.717 . S
Gd760 O787 2.395 . S
Gd760 O791 2.327 . S
Gd761 C772 2.818 . S
Gd761 O781 2.395 . S
Gd761 O785 2.327 . S
Gd761 O786 2.377 . S
Gd761 O788 2.448 . S
Gd761 O789 2.506 . S
Gd761 O790 2.435 . S
Gd761 O791 2.717 . S
C762 O780 1.240 . S
C762 O781 1.240 . S
C763 Gd760 2.818 . S
C763 C764 1.510 . S
C763 O782 1.249 . S
C763 O783 1.252 . S
C764 C763 1.510 . S
C764 C765 1.404 . S
C764 C766 1.352 . S
C765 C764 1.404 . S
C765 C769 1.389 . S
C765 H792 0.930 . S
C766 C764 1.352 . S
C766 C768 1.374 . S
C766 H793 0.931 . S
C767 C768 1.359 . S
C767 C769 1.364 . S
C768 C766 1.374 . S
C768 C767 1.359 . S
C768 H794 0.931 . S
C769 C765 1.389 . S
C769 C767 1.364 . S
C769 H795 0.931 . S
C770 O784 1.256 . S
C770 O785 1.257 . S
C771 O786 1.240 . S
C771 O787 1.240 . S
C772 Gd761 2.818 . S
C772 C773 1.510 . S
C772 O788 1.249 . S
C772 O789 1.252 . S
C773 C772 1.510 . S
C773 C774 1.404 . S
C773 C775 1.352 . S
C774 C773 1.404 . S
C774 C778 1.389 . S
C774 H796 0.930 . S
C775 C773 1.352 . S
C775 C777 1.374 1_655 S
C775 H797 0.928 1_655 S
C776 C777 1.359 1_655 S
C776 C778 1.364 . S
C777 C775 1.374 1_455 S
C777 C776 1.359 1_455 S
C777 H798 0.931 . S
C778 C774 1.389 . S
C778 C776 1.364 . S
C778 H799 0.931 . S
C779 O790 1.256 . S
C779 O791 1.257 . S
O780 Gd760 2.377 . S
O780 C762 1.240 . S
O781 Gd761 2.395 . S
O781 C762 1.240 . S
O782 Gd760 2.448 . S
O782 C763 1.249 . S
O783 Gd760 2.506 . S
O783 C763 1.252 . S
O784 Gd760 2.435 . S
O784 C770 1.256 . S
O785 Gd760 2.717 . S
O785 Gd761 2.327 . S
O785 C770 1.257 . S
O786 Gd761 2.377 . S
O786 C771 1.240 . S
O787 Gd760 2.395 . S
O787 C771 1.240 . S
O788 Gd761 2.448 . S
O788 C772 1.249 . S
O789 Gd761 2.506 . S
O789 C772 1.252 . S
O790 Gd761 2.435 . S
O790 C779 1.256 . S
O791 Gd760 2.327 . S
O791 Gd761 2.717 . S
O791 C779 1.257 . S
H792 C765 0.930 . S
H793 C766 0.931 . S
H794 C768 0.931 . S
H795 C769 0.931 . S
H796 C774 0.930 . S
H797 C775 0.928 1_455 S
H798 C777 0.931 . S
H799 C778 0.931 . S
Gd800 C803 2.818 . S
Gd800 O820 2.377 . S
Gd800 O822 2.448 . S
Gd800 O823 2.506 . S
Gd800 O824 2.435 . S
Gd800 O825 2.717 . S
Gd800 O827 2.395 . S
Gd800 O831 2.327 . S
Gd801 C812 2.818 . S
Gd801 O821 2.395 . S
Gd801 O825 2.327 . S
Gd801 O826 2.377 . S
Gd801 O828 2.448 . S
Gd801 O829 2.506 . S
Gd801 O830 2.435 . S
Gd801 O831 2.717 . S
C802 O820 1.240 . S
C802 O821 1.240 . S
C803 Gd800 2.818 . S
C803 C804 1.510 . S
C803 O822 1.249 . S
C803 O823 1.252 . S
C804 C803 1.510 . S
C804 C805 1.404 . S
C804 C806 1.352 . S
C805 C804 1.404 . S
C805 C809 1.389 . S
C805 H832 0.930 . S
C806 C804 1.352 . S
C806 C808 1.374 . S
C806 H833 0.931 . S
C807 C808 1.359 . S
C807 C809 1.364 . S
C808 C806 1.374 . S
C808 C807 1.359 . S
C808 H834 0.931 . S
C809 C805 1.389 . S
C809 C807 1.364 . S
C809 H835 0.931 . S
C810 O824 1.256 . S
C810 O825 1.257 . S
C811 O826 1.240 . S
C811 O827 1.240 . S
C812 Gd801 2.818 . S
C812 C813 1.510 . S
C812 O828 1.249 . S
C812 O829 1.252 . S
C813 C812 1.510 . S
C813 C814 1.404 . S
C813 C815 1.352 . S
C814 C813 1.404 . S
C814 C818 1.389 . S
C814 H836 0.930 . S
C815 C813 1.352 . S
C815 C817 1.374 . S
C815 H837 0.931 . S
C816 C817 1.359 . S
C816 C818 1.364 . S
C817 C815 1.374 . S
C817 C816 1.359 . S
C817 H838 0.931 . S
C818 C814 1.389 . S
C818 C816 1.364 . S
C818 H839 0.931 . S
C819 O830 1.256 . S
C819 O831 1.257 . S
O820 Gd800 2.377 . S
O820 C802 1.240 . S
O821 Gd801 2.395 . S
O821 C802 1.240 . S
O822 Gd800 2.448 . S
O822 C803 1.249 . S
O823 Gd800 2.506 . S
O823 C803 1.252 . S
O824 Gd800 2.435 . S
O824 C810 1.256 . S
O825 Gd800 2.717 . S
O825 Gd801 2.327 . S
O825 C810 1.257 . S
O826 Gd801 2.377 . S
O826 C811 1.240 . S
O827 Gd800 2.395 . S
O827 C811 1.240 . S
O828 Gd801 2.448 . S
O828 C812 1.249 . S
O829 Gd801 2.506 . S
O829 C812 1.252 . S
O830 Gd801 2.435 . S
O830 C819 1.256 . S
O831 Gd800 2.327 . S
O831 Gd801 2.717 . S
O831 C819 1.257 . S
H832 C805 0.930 . S
H833 C806 0.931 . S
H834 C808 0.931 . S
H835 C809 0.931 . S
H836 C814 0.930 . S
H837 C815 0.931 . S
H838 C817 0.931 . S
H839 C818 0.931 . S
Gd840 C843 2.818 . S
Gd840 O860 2.377 . S
Gd840 O862 2.448 . S
Gd840 O863 2.506 . S
Gd840 O864 2.435 . S
Gd840 O865 2.717 1_554 S
Gd840 O867 2.395 . S
Gd840 O871 2.327 . S
Gd841 C852 2.818 . S
Gd841 O861 2.395 . S
Gd841 O865 2.327 . S
Gd841 O866 2.377 . S
Gd841 O868 2.448 . S
Gd841 O869 2.506 . S
Gd841 O870 2.435 . S
Gd841 O871 2.717 1_556 S
C842 O860 1.240 . S
C842 O861 1.240 1_554 S
C843 Gd840 2.818 . S
C843 C844 1.510 . S
C843 O862 1.249 . S
C843 O863 1.252 . S
C844 C843 1.510 . S
C844 C845 1.404 . S
C844 C846 1.352 . S
C845 C844 1.404 . S
C845 C849 1.389 . S
C845 H872 0.930 . S
C846 C844 1.352 . S
C846 C848 1.374 . S
C846 H873 0.931 . S
C847 C848 1.359 . S
C847 C849 1.364 . S
C848 C846 1.374 . S
C848 C847 1.359 . S
C848 H874 0.931 . S
C849 C845 1.389 . S
C849 C847 1.364 . S
C849 H875 0.931 . S
C850 O864 1.256 . S
C850 O865 1.257 1_554 S
C851 O866 1.240 . S
C851 O867 1.240 1_556 S
C852 Gd841 2.818 . S
C852 C853 1.510 . S
C852 O868 1.249 . S
C852 O869 1.252 . S
C853 C852 1.510 . S
C853 C854 1.404 . S
C853 C855 1.352 . S
C854 C853 1.404 . S
C854 C858 1.389 . S
C854 H876 0.930 . S
C855 C853 1.352 . S
C855 C857 1.374 . S
C855 H877 0.931 . S
C856 C857 1.359 . S
C856 C858 1.364 . S
C857 C855 1.374 . S
C857 C856 1.359 . S
C857 H878 0.931 . S
C858 C854 1.389 . S
C858 C856 1.364 . S
C858 H879 0.931 . S
C859 O870 1.256 . S
C859 O871 1.257 1_556 S
O860 Gd840 2.377 . S
O860 C842 1.240 . S
O861 Gd841 2.395 . S
O861 C842 1.240 1_556 S
O862 Gd840 2.448 . S
O862 C843 1.249 . S
O863 Gd840 2.506 . S
O863 C843 1.252 . S
O864 Gd840 2.435 . S
O864 C850 1.256 . S
O865 Gd840 2.717 1_556 S
O865 Gd841 2.327 . S
O865 C850 1.257 1_556 S
O866 Gd841 2.377 . S
O866 C851 1.240 . S
O867 Gd840 2.395 . S
O867 C851 1.240 1_554 S
O868 Gd841 2.448 . S
O868 C852 1.249 . S
O869 Gd841 2.506 . S
O869 C852 1.252 . S
O870 Gd841 2.435 . S
O870 C859 1.256 . S
O871 Gd840 2.327 . S
O871 Gd841 2.717 1_554 S
O871 C859 1.257 1_554 S
H872 C845 0.930 . S
H873 C846 0.931 . S
H874 C848 0.931 . S
H875 C849 0.931 . S
H876 C854 0.930 . S
H877 C855 0.931 . S
H878 C857 0.931 . S
H879 C858 0.931 . S
Gd880 C883 2.818 . S
Gd880 O900 2.377 . S
Gd880 O902 2.448 . S
Gd880 O903 2.506 . S
Gd880 O904 2.435 . S
Gd880 O905 2.717 1_554 S
Gd880 O907 2.395 . S
Gd880 O911 2.327 . S
Gd881 C892 2.818 . S
Gd881 O901 2.395 . S
Gd881 O905 2.327 . S
Gd881 O906 2.377 . S
Gd881 O908 2.448 . S
Gd881 O909 2.506 . S
Gd881 O910 2.435 . S
Gd881 O911 2.717 1_556 S
C882 O900 1.240 . S
C882 O901 1.240 1_554 S
C883 Gd880 2.818 . S
C883 C884 1.510 . S
C883 O902 1.249 . S
C883 O903 1.252 . S
C884 C883 1.510 . S
C884 C885 1.404 . S
C884 C886 1.352 . S
C885 C884 1.404 . S
C885 C889 1.389 . S
C885 H912 0.930 . S
C886 C884 1.352 . S
C886 C888 1.374 . S
C886 H913 0.931 . S
C887 C888 1.359 . S
C887 C889 1.364 . S
C888 C886 1.374 . S
C888 C887 1.359 . S
C888 H914 0.931 . S
C889 C885 1.389 . S
C889 C887 1.364 . S
C889 H915 0.931 . S
C890 O904 1.256 . S
C890 O905 1.257 1_554 S
C891 O906 1.240 . S
C891 O907 1.240 1_556 S
C892 Gd881 2.818 . S
C892 C893 1.510 . S
C892 O908 1.249 . S
C892 O909 1.252 . S
C893 C892 1.510 . S
C893 C894 1.404 . S
C893 C895 1.352 . S
C894 C893 1.404 . S
C894 C898 1.389 . S
C894 H916 0.930 . S
C895 C893 1.352 . S
C895 C897 1.374 . S
C895 H917 0.931 . S
C896 C897 1.359 . S
C896 C898 1.364 . S
C897 C895 1.374 . S
C897 C896 1.359 . S
C897 H918 0.931 . S
C898 C894 1.389 . S
C898 C896 1.364 . S
C898 H919 0.931 . S
C899 O910 1.256 . S
C899 O911 1.257 1_556 S
O900 Gd880 2.377 . S
O900 C882 1.240 . S
O901 Gd881 2.395 . S
O901 C882 1.240 1_556 S
O902 Gd880 2.448 . S
O902 C883 1.249 . S
O903 Gd880 2.506 . S
O903 C883 1.252 . S
O904 Gd880 2.435 . S
O904 C890 1.256 . S
O905 Gd880 2.717 1_556 S
O905 Gd881 2.327 . S
O905 C890 1.257 1_556 S
O906 Gd881 2.377 . S
O906 C891 1.240 . S
O907 Gd880 2.395 . S
O907 C891 1.240 1_554 S
O908 Gd881 2.448 . S
O908 C892 1.249 . S
O909 Gd881 2.506 . S
O909 C892 1.252 . S
O910 Gd881 2.435 . S
O910 C899 1.256 . S
O911 Gd880 2.327 . S
O911 Gd881 2.717 1_554 S
O911 C899 1.257 1_554 S
H912 C885 0.930 . S
H913 C886 0.931 . S
H914 C888 0.931 . S
H915 C889 0.931 . S
H916 C894 0.930 . S
H917 C895 0.931 . S
H918 C897 0.931 . S
H919 C898 0.931 . S
Gd920 C923 2.818 . S
Gd920 O940 2.377 . S
Gd920 O942 2.448 . S
Gd920 O943 2.506 . S
Gd920 O944 2.435 . S
Gd920 O945 2.717 1_554 S
Gd920 O947 2.395 . S
Gd920 O951 2.327 . S
Gd921 C932 2.818 . S
Gd921 O941 2.395 . S
Gd921 O945 2.327 . S
Gd921 O946 2.377 . S
Gd921 O948 2.448 . S
Gd921 O949 2.506 . S
Gd921 O950 2.435 . S
Gd921 O951 2.717 1_556 S
C922 O940 1.240 . S
C922 O941 1.240 1_554 S
C923 Gd920 2.818 . S
C923 C924 1.510 . S
C923 O942 1.249 . S
C923 O943 1.252 . S
C924 C923 1.510 . S
C924 C925 1.404 . S
C924 C926 1.352 . S
C925 C924 1.404 . S
C925 C929 1.389 . S
C925 H952 0.930 . S
C926 C924 1.352 . S
C926 C928 1.374 . S
C926 H953 0.931 . S
C927 C928 1.359 . S
C927 C929 1.364 . S
C928 C926 1.374 . S
C928 C927 1.359 . S
C928 H954 0.931 . S
C929 C925 1.389 . S
C929 C927 1.364 . S
C929 H955 0.931 . S
C930 O944 1.256 . S
C930 O945 1.257 1_554 S
C931 O946 1.240 . S
C931 O947 1.240 1_556 S
C932 Gd921 2.818 . S
C932 C933 1.510 . S
C932 O948 1.249 . S
C932 O949 1.252 . S
C933 C932 1.510 . S
C933 C934 1.404 . S
C933 C935 1.352 . S
C934 C933 1.404 . S
C934 C938 1.389 . S
C934 H956 0.930 . S
C935 C933 1.352 . S
C935 C937 1.374 . S
C935 H957 0.931 . S
C936 C937 1.359 . S
C936 C938 1.364 . S
C937 C935 1.374 . S
C937 C936 1.359 . S
C937 H958 0.931 . S
C938 C934 1.389 . S
C938 C936 1.364 . S
C938 H959 0.931 . S
C939 O950 1.256 . S
C939 O951 1.257 1_556 S
O940 Gd920 2.377 . S
O940 C922 1.240 . S
O941 Gd921 2.395 . S
O941 C922 1.240 1_556 S
O942 Gd920 2.448 . S
O942 C923 1.249 . S
O943 Gd920 2.506 . S
O943 C923 1.252 . S
O944 Gd920 2.435 . S
O944 C930 1.256 . S
O945 Gd920 2.717 1_556 S
O945 Gd921 2.327 . S
O945 C930 1.257 1_556 S
O946 Gd921 2.377 . S
O946 C931 1.240 . S
O947 Gd920 2.395 . S
O947 C931 1.240 1_554 S
O948 Gd921 2.448 . S
O948 C932 1.249 . S
O949 Gd921 2.506 . S
O949 C932 1.252 . S
O950 Gd921 2.435 . S
O950 C939 1.256 . S
O951 Gd920 2.327 . S
O951 Gd921 2.717 1_554 S
O951 C939 1.257 1_554 S
H952 C925 0.930 . S
H953 C926 0.931 . S
H954 C928 0.931 . S
H955 C929 0.931 . S
H956 C934 0.930 . S
H957 C935 0.931 . S
H958 C937 0.931 . S
H959 C938 0.931 . S
Gd960 C963 2.818 . S
Gd960 O980 2.377 . S
Gd960 O982 2.448 . S
Gd960 O983 2.506 . S
Gd960 O984 2.435 . S
Gd960 O985 2.717 . S
Gd960 O987 2.395 . S
Gd960 O991 2.327 . S
Gd961 C972 2.818 . S
Gd961 O981 2.395 . S
Gd961 O985 2.327 . S
Gd961 O986 2.377 . S
Gd961 O988 2.448 . S
Gd961 O989 2.506 . S
Gd961 O990 2.435 . S
Gd961 O991 2.717 . S
C962 O980 1.240 . S
C962 O981 1.240 . S
C963 Gd960 2.818 . S
C963 C964 1.510 . S
C963 O982 1.249 . S
C963 O983 1.252 . S
C964 C963 1.510 . S
C964 C965 1.404 . S
C964 C966 1.352 . S
C965 C964 1.404 . S
C965 C969 1.389 . S
C965 H992 0.930 . S
C966 C964 1.352 . S
C966 C968 1.374 1_565 S
C966 H993 0.916 1_565 S
C967 C968 1.359 1_565 S
C967 C969 1.364 . S
C968 C966 1.374 1_545 S
C968 C967 1.359 1_545 S
C968 H994 0.931 . S
C969 C965 1.389 . S
C969 C967 1.364 . S
C969 H995 0.931 . S
C970 O984 1.256 . S
C970 O985 1.257 . S
C971 O986 1.240 . S
C971 O987 1.240 . S
C972 Gd961 2.818 . S
C972 C973 1.510 . S
C972 O988 1.249 . S
C972 O989 1.252 . S
C973 C972 1.510 . S
C973 C974 1.404 . S
C973 C975 1.352 . S
C974 C973 1.404 . S
C974 C978 1.389 . S
C974 H996 0.930 . S
C975 C973 1.352 . S
C975 C977 1.374 . S
C975 H997 0.931 . S
C976 C977 1.359 . S
C976 C978 1.364 . S
C977 C975 1.374 . S
C977 C976 1.359 . S
C977 H998 0.931 . S
C978 C974 1.389 . S
C978 C976 1.364 . S
C978 H999 0.931 . S
C979 O990 1.256 . S
C979 O991 1.257 . S
O980 Gd960 2.377 . S
O980 C962 1.240 . S
O981 Gd961 2.395 . S
O981 C962 1.240 . S
O982 Gd960 2.448 . S
O982 C963 1.249 . S
O983 Gd960 2.506 . S
O983 C963 1.252 . S
O984 Gd960 2.435 . S
O984 C970 1.256 . S
O985 Gd960 2.717 . S
O985 Gd961 2.327 . S
O985 C970 1.257 . S
O986 Gd961 2.377 . S
O986 C971 1.240 . S
O987 Gd960 2.395 . S
O987 C971 1.240 . S
O988 Gd961 2.448 . S
O988 C972 1.249 . S
O989 Gd961 2.506 . S
O989 C972 1.252 . S
O990 Gd961 2.435 . S
O990 C979 1.256 . S
O991 Gd960 2.327 . S
O991 Gd961 2.717 . S
O991 C979 1.257 . S
H992 C965 0.930 . S
H993 C966 0.916 1_545 S
H994 C968 0.931 . S
H995 C969 0.931 . S
H996 C974 0.930 . S
H997 C975 0.931 . S
H998 C977 0.931 . S
H999 C978 0.931 . S
Gd1000 C1003 2.818 . S
Gd1000 O1020 2.377 . S
Gd1000 O1022 2.448 . S
Gd1000 O1023 2.506 . S
Gd1000 O1024 2.435 . S
Gd1000 O1025 2.717 . S
Gd1000 O1027 2.395 . S
Gd1000 O1031 2.327 . S
Gd1001 C1012 2.818 . S
Gd1001 O1021 2.395 . S
Gd1001 O1025 2.327 . S
Gd1001 O1026 2.377 . S
Gd1001 O1028 2.448 . S
Gd1001 O1029 2.506 . S
Gd1001 O1030 2.435 . S
Gd1001 O1031 2.717 . S
C1002 O1020 1.240 . S
C1002 O1021 1.240 . S
C1003 Gd1000 2.818 . S
C1003 C1004 1.510 . S
C1003 O1022 1.249 . S
C1003 O1023 1.252 . S
C1004 C1003 1.510 . S
C1004 C1005 1.404 . S
C1004 C1006 1.352 . S
C1005 C1004 1.404 . S
C1005 C1009 1.389 . S
C1005 H1032 0.930 . S
C1006 C1004 1.352 . S
C1006 C1008 1.374 1_455 S
C1006 H1033 0.928 1_455 S
C1007 C1008 1.359 1_455 S
C1007 C1009 1.364 . S
C1008 C1006 1.374 1_655 S
C1008 C1007 1.359 1_655 S
C1008 H1034 0.931 . S
C1009 C1005 1.389 . S
C1009 C1007 1.364 . S
C1009 H1035 0.931 . S
C1010 O1024 1.256 . S
C1010 O1025 1.257 . S
C1011 O1026 1.240 . S
C1011 O1027 1.240 . S
C1012 Gd1001 2.818 . S
C1012 C1013 1.510 . S
C1012 O1028 1.249 . S
C1012 O1029 1.252 . S
C1013 C1012 1.510 . S
C1013 C1014 1.404 . S
C1013 C1015 1.352 . S
C1014 C1013 1.404 . S
C1014 C1018 1.389 . S
C1014 H1036 0.930 . S
C1015 C1013 1.352 . S
C1015 C1017 1.374 . S
C1015 H1037 0.931 . S
C1016 C1017 1.359 . S
C1016 C1018 1.364 . S
C1017 C1015 1.374 . S
C1017 C1016 1.359 . S
C1017 H1038 0.931 . S
C1018 C1014 1.389 . S
C1018 C1016 1.364 . S
C1018 H1039 0.931 . S
C1019 O1030 1.256 . S
C1019 O1031 1.257 . S
O1020 Gd1000 2.377 . S
O1020 C1002 1.240 . S
O1021 Gd1001 2.395 . S
O1021 C1002 1.240 . S
O1022 Gd1000 2.448 . S
O1022 C1003 1.249 . S
O1023 Gd1000 2.506 . S
O1023 C1003 1.252 . S
O1024 Gd1000 2.435 . S
O1024 C1010 1.256 . S
O1025 Gd1000 2.717 . S
O1025 Gd1001 2.327 . S
O1025 C1010 1.257 . S
O1026 Gd1001 2.377 . S
O1026 C1011 1.240 . S
O1027 Gd1000 2.395 . S
O1027 C1011 1.240 . S
O1028 Gd1001 2.448 . S
O1028 C1012 1.249 . S
O1029 Gd1001 2.506 . S
O1029 C1012 1.252 . S
O1030 Gd1001 2.435 . S
O1030 C1019 1.256 . S
O1031 Gd1000 2.327 . S
O1031 Gd1001 2.717 . S
O1031 C1019 1.257 . S
H1032 C1005 0.930 . S
H1033 C1006 0.928 1_655 S
H1034 C1008 0.931 . S
H1035 C1009 0.931 . S
H1036 C1014 0.930 . S
H1037 C1015 0.931 . S
H1038 C1017 0.931 . S
H1039 C1018 0.931 . S
Gd1040 C1043 2.818 . S
Gd1040 O1060 2.377 . S
Gd1040 O1062 2.448 . S
Gd1040 O1063 2.506 . S
Gd1040 O1064 2.435 . S
Gd1040 O1065 2.717 . S
Gd1040 O1067 2.395 . S
Gd1040 O1071 2.327 . S
Gd1041 C1052 2.818 . S
Gd1041 O1061 2.395 . S
Gd1041 O1065 2.327 . S
Gd1041 O1066 2.377 . S
Gd1041 O1068 2.448 . S
Gd1041 O1069 2.506 . S
Gd1041 O1070 2.435 . S
Gd1041 O1071 2.717 . S
C1042 O1060 1.240 . S
C1042 O1061 1.240 . S
C1043 Gd1040 2.818 . S
C1043 C1044 1.510 . S
C1043 O1062 1.249 . S
C1043 O1063 1.252 . S
C1044 C1043 1.510 . S
C1044 C1045 1.404 . S
C1044 C1046 1.352 . S
C1045 C1044 1.404 . S
C1045 C1049 1.389 . S
C1045 H1072 0.930 . S
C1046 C1044 1.352 . S
C1046 C1048 1.374 . S
C1046 H1073 0.931 . S
C1047 C1048 1.359 . S
C1047 C1049 1.364 . S
C1048 C1046 1.374 . S
C1048 C1047 1.359 . S
C1048 H1074 0.931 . S
C1049 C1045 1.389 . S
C1049 C1047 1.364 . S
C1049 H1075 0.931 . S
C1050 O1064 1.256 . S
C1050 O1065 1.257 . S
C1051 O1066 1.240 . S
C1051 O1067 1.240 . S
C1052 Gd1041 2.818 . S
C1052 C1053 1.510 . S
C1052 O1068 1.249 . S
C1052 O1069 1.252 . S
C1053 C1052 1.510 . S
C1053 C1054 1.404 . S
C1053 C1055 1.352 . S
C1054 C1053 1.404 . S
C1054 C1058 1.389 . S
C1054 H1076 0.930 . S
C1055 C1053 1.352 . S
C1055 C1057 1.374 . S
C1055 H1077 0.931 . S
C1056 C1057 1.359 . S
C1056 C1058 1.364 . S
C1057 C1055 1.374 . S
C1057 C1056 1.359 . S
C1057 H1078 0.931 . S
C1058 C1054 1.389 . S
C1058 C1056 1.364 . S
C1058 H1079 0.931 . S
C1059 O1070 1.256 . S
C1059 O1071 1.257 . S
O1060 Gd1040 2.377 . S
O1060 C1042 1.240 . S
O1061 Gd1041 2.395 . S
O1061 C1042 1.240 . S
O1062 Gd1040 2.448 . S
O1062 C1043 1.249 . S
O1063 Gd1040 2.506 . S
O1063 C1043 1.252 . S
O1064 Gd1040 2.435 . S
O1064 C1050 1.256 . S
O1065 Gd1040 2.717 . S
O1065 Gd1041 2.327 . S
O1065 C1050 1.257 . S
O1066 Gd1041 2.377 . S
O1066 C1051 1.240 . S
O1067 Gd1040 2.395 . S
O1067 C1051 1.240 . S
O1068 Gd1041 2.448 . S
O1068 C1052 1.249 . S
O1069 Gd1041 2.506 . S
O1069 C1052 1.252 . S
O1070 Gd1041 2.435 . S
O1070 C1059 1.256 . S
O1071 Gd1040 2.327 . S
O1071 Gd1041 2.717 . S
O1071 C1059 1.257 . S
H1072 C1045 0.930 . S
H1073 C1046 0.931 . S
H1074 C1048 0.931 . S
H1075 C1049 0.931 . S
H1076 C1054 0.930 . S
H1077 C1055 0.931 . S
H1078 C1057 0.931 . S
H1079 C1058 0.931 . S
Gd1080 C1083 2.818 . S
Gd1080 O1100 2.377 . S
Gd1080 O1102 2.448 . S
Gd1080 O1103 2.506 . S
Gd1080 O1104 2.435 . S
Gd1080 O1105 2.717 1_554 S
Gd1080 O1107 2.395 . S
Gd1080 O1111 2.327 . S
Gd1081 C1092 2.818 . S
Gd1081 O1101 2.395 . S
Gd1081 O1105 2.327 . S
Gd1081 O1106 2.377 . S
Gd1081 O1108 2.448 . S
Gd1081 O1109 2.506 . S
Gd1081 O1110 2.435 . S
Gd1081 O1111 2.717 1_556 S
C1082 O1100 1.240 . S
C1082 O1101 1.240 1_554 S
C1083 Gd1080 2.818 . S
C1083 C1084 1.510 . S
C1083 O1102 1.249 . S
C1083 O1103 1.252 . S
C1084 C1083 1.510 . S
C1084 C1085 1.404 . S
C1084 C1086 1.352 . S
C1085 C1084 1.404 . S
C1085 C1089 1.389 . S
C1085 H1112 0.930 . S
C1086 C1084 1.352 . S
C1086 C1088 1.374 . S
C1086 H1113 0.931 . S
C1087 C1088 1.359 . S
C1087 C1089 1.364 . S
C1088 C1086 1.374 . S
C1088 C1087 1.359 . S
C1088 H1114 0.931 . S
C1089 C1085 1.389 . S
C1089 C1087 1.364 . S
C1089 H1115 0.931 . S
C1090 O1104 1.256 . S
C1090 O1105 1.257 1_554 S
C1091 O1106 1.240 . S
C1091 O1107 1.240 1_556 S
C1092 Gd1081 2.818 . S
C1092 C1093 1.510 . S
C1092 O1108 1.249 . S
C1092 O1109 1.252 . S
C1093 C1092 1.510 . S
C1093 C1094 1.404 . S
C1093 C1095 1.352 . S
C1094 C1093 1.404 . S
C1094 C1098 1.389 . S
C1094 H1116 0.930 . S
C1095 C1093 1.352 . S
C1095 C1097 1.374 . S
C1095 H1117 0.931 . S
C1096 C1097 1.359 . S
C1096 C1098 1.364 . S
C1097 C1095 1.374 . S
C1097 C1096 1.359 . S
C1097 H1118 0.931 . S
C1098 C1094 1.389 . S
C1098 C1096 1.364 . S
C1098 H1119 0.931 . S
C1099 O1110 1.256 . S
C1099 O1111 1.257 1_556 S
O1100 Gd1080 2.377 . S
O1100 C1082 1.240 . S
O1101 Gd1081 2.395 . S
O1101 C1082 1.240 1_556 S
O1102 Gd1080 2.448 . S
O1102 C1083 1.249 . S
O1103 Gd1080 2.506 . S
O1103 C1083 1.252 . S
O1104 Gd1080 2.435 . S
O1104 C1090 1.256 . S
O1105 Gd1080 2.717 1_556 S
O1105 Gd1081 2.327 . S
O1105 C1090 1.257 1_556 S
O1106 Gd1081 2.377 . S
O1106 C1091 1.240 . S
O1107 Gd1080 2.395 . S
O1107 C1091 1.240 1_554 S
O1108 Gd1081 2.448 . S
O1108 C1092 1.249 . S
O1109 Gd1081 2.506 . S
O1109 C1092 1.252 . S
O1110 Gd1081 2.435 . S
O1110 C1099 1.256 . S
O1111 Gd1080 2.327 . S
O1111 Gd1081 2.717 1_554 S
O1111 C1099 1.257 1_554 S
H1112 C1085 0.930 . S
H1113 C1086 0.931 . S
H1114 C1088 0.931 . S
H1115 C1089 0.931 . S
H1116 C1094 0.930 . S
H1117 C1095 0.931 . S
H1118 C1097 0.931 . S
H1119 C1098 0.931 . S
Gd1120 C1123 2.818 . S
Gd1120 O1140 2.377 . S
Gd1120 O1142 2.448 . S
Gd1120 O1143 2.506 . S
Gd1120 O1144 2.435 . S
Gd1120 O1145 2.717 1_554 S
Gd1120 O1147 2.395 . S
Gd1120 O1151 2.327 . S
Gd1121 C1132 2.818 . S
Gd1121 O1141 2.395 . S
Gd1121 O1145 2.327 . S
Gd1121 O1146 2.377 . S
Gd1121 O1148 2.448 . S
Gd1121 O1149 2.506 . S
Gd1121 O1150 2.435 . S
Gd1121 O1151 2.717 1_556 S
C1122 O1140 1.240 . S
C1122 O1141 1.240 1_554 S
C1123 Gd1120 2.818 . S
C1123 C1124 1.510 . S
C1123 O1142 1.249 . S
C1123 O1143 1.252 . S
C1124 C1123 1.510 . S
C1124 C1125 1.404 . S
C1124 C1126 1.352 . S
C1125 C1124 1.404 . S
C1125 C1129 1.389 . S
C1125 H1152 0.930 . S
C1126 C1124 1.352 . S
C1126 C1128 1.374 . S
C1126 H1153 0.931 . S
C1127 C1128 1.359 . S
C1127 C1129 1.364 . S
C1128 C1126 1.374 . S
C1128 C1127 1.359 . S
C1128 H1154 0.931 . S
C1129 C1125 1.389 . S
C1129 C1127 1.364 . S
C1129 H1155 0.931 . S
C1130 O1144 1.256 . S
C1130 O1145 1.257 1_554 S
C1131 O1146 1.240 . S
C1131 O1147 1.240 1_556 S
C1132 Gd1121 2.818 . S
C1132 C1133 1.510 . S
C1132 O1148 1.249 . S
C1132 O1149 1.252 . S
C1133 C1132 1.510 . S
C1133 C1134 1.404 . S
C1133 C1135 1.352 . S
C1134 C1133 1.404 . S
C1134 C1138 1.389 . S
C1134 H1156 0.930 . S
C1135 C1133 1.352 . S
C1135 C1137 1.374 . S
C1135 H1157 0.931 . S
C1136 C1137 1.359 . S
C1136 C1138 1.364 . S
C1137 C1135 1.374 . S
C1137 C1136 1.359 . S
C1137 H1158 0.931 . S
C1138 C1134 1.389 . S
C1138 C1136 1.364 . S
C1138 H1159 0.931 . S
C1139 O1150 1.256 . S
C1139 O1151 1.257 1_556 S
O1140 Gd1120 2.377 . S
O1140 C1122 1.240 . S
O1141 Gd1121 2.395 . S
O1141 C1122 1.240 1_556 S
O1142 Gd1120 2.448 . S
O1142 C1123 1.249 . S
O1143 Gd1120 2.506 . S
O1143 C1123 1.252 . S
O1144 Gd1120 2.435 . S
O1144 C1130 1.256 . S
O1145 Gd1120 2.717 1_556 S
O1145 Gd1121 2.327 . S
O1145 C1130 1.257 1_556 S
O1146 Gd1121 2.377 . S
O1146 C1131 1.240 . S
O1147 Gd1120 2.395 . S
O1147 C1131 1.240 1_554 S
O1148 Gd1121 2.448 . S
O1148 C1132 1.249 . S
O1149 Gd1121 2.506 . S
O1149 C1132 1.252 . S
O1150 Gd1121 2.435 . S
O1150 C1139 1.256 . S
O1151 Gd1120 2.327 . S
O1151 Gd1121 2.717 1_554 S
O1151 C1139 1.257 1_554 S
H1152 C1125 0.930 . S
H1153 C1126 0.931 . S
H1154 C1128 0.931 . S
H1155 C1129 0.931 . S
H1156 C1134 0.930 . S
H1157 C1135 0.931 . S
H1158 C1137 0.931 . S
H1159 C1138 0.931 . S
Gd1160 C1163 2.818 . S
Gd1160 O1180 2.377 . S
Gd1160 O1182 2.448 . S
Gd1160 O1183 2.506 . S
Gd1160 O1184 2.435 . S
Gd1160 O1185 2.717 1_554 S
Gd1160 O1187 2.395 . S
Gd1160 O1191 2.327 . S
Gd1161 C1172 2.818 . S
Gd1161 O1181 2.395 . S
Gd1161 O1185 2.327 . S
Gd1161 O1186 2.377 . S
Gd1161 O1188 2.448 . S
Gd1161 O1189 2.506 . S
Gd1161 O1190 2.435 . S
Gd1161 O1191 2.717 1_556 S
C1162 O1180 1.240 . S
C1162 O1181 1.240 1_554 S
C1163 Gd1160 2.818 . S
C1163 C1164 1.510 . S
C1163 O1182 1.249 . S
C1163 O1183 1.252 . S
C1164 C1163 1.510 . S
C1164 C1165 1.404 . S
C1164 C1166 1.352 . S
C1165 C1164 1.404 . S
C1165 C1169 1.389 . S
C1165 H1192 0.930 . S
C1166 C1164 1.352 . S
C1166 C1168 1.374 . S
C1166 H1193 0.931 . S
C1167 C1168 1.359 . S
C1167 C1169 1.364 . S
C1168 C1166 1.374 . S
C1168 C1167 1.359 . S
C1168 H1194 0.931 . S
C1169 C1165 1.389 . S
C1169 C1167 1.364 . S
C1169 H1195 0.931 . S
C1170 O1184 1.256 . S
C1170 O1185 1.257 1_554 S
C1171 O1186 1.240 . S
C1171 O1187 1.240 1_556 S
C1172 Gd1161 2.818 . S
C1172 C1173 1.510 . S
C1172 O1188 1.249 . S
C1172 O1189 1.252 . S
C1173 C1172 1.510 . S
C1173 C1174 1.404 . S
C1173 C1175 1.352 . S
C1174 C1173 1.404 . S
C1174 C1178 1.389 . S
C1174 H1196 0.930 . S
C1175 C1173 1.352 . S
C1175 C1177 1.374 . S
C1175 H1197 0.931 . S
C1176 C1177 1.359 . S
C1176 C1178 1.364 . S
C1177 C1175 1.374 . S
C1177 C1176 1.359 . S
C1177 H1198 0.931 . S
C1178 C1174 1.389 . S
C1178 C1176 1.364 . S
C1178 H1199 0.931 . S
C1179 O1190 1.256 . S
C1179 O1191 1.257 1_556 S
O1180 Gd1160 2.377 . S
O1180 C1162 1.240 . S
O1181 Gd1161 2.395 . S
O1181 C1162 1.240 1_556 S
O1182 Gd1160 2.448 . S
O1182 C1163 1.249 . S
O1183 Gd1160 2.506 . S
O1183 C1163 1.252 . S
O1184 Gd1160 2.435 . S
O1184 C1170 1.256 . S
O1185 Gd1160 2.717 1_556 S
O1185 Gd1161 2.327 . S
O1185 C1170 1.257 1_556 S
O1186 Gd1161 2.377 . S
O1186 C1171 1.240 . S
O1187 Gd1160 2.395 . S
O1187 C1171 1.240 1_554 S
O1188 Gd1161 2.448 . S
O1188 C1172 1.249 . S
O1189 Gd1161 2.506 . S
O1189 C1172 1.252 . S
O1190 Gd1161 2.435 . S
O1190 C1179 1.256 . S
O1191 Gd1160 2.327 . S
O1191 Gd1161 2.717 1_554 S
O1191 C1179 1.257 1_554 S
H1192 C1165 0.930 . S
H1193 C1166 0.931 . S
H1194 C1168 0.931 . S
H1195 C1169 0.931 . S
H1196 C1174 0.930 . S
H1197 C1175 0.931 . S
H1198 C1177 0.931 . S
H1199 C1178 0.931 . S
Gd1200 C1203 2.818 . S
Gd1200 O1220 2.377 . S
Gd1200 O1222 2.448 . S
Gd1200 O1223 2.506 . S
Gd1200 O1224 2.435 . S
Gd1200 O1225 2.717 . S
Gd1200 O1227 2.395 . S
Gd1200 O1231 2.327 . S
Gd1201 C1212 2.818 . S
Gd1201 O1221 2.395 . S
Gd1201 O1225 2.327 . S
Gd1201 O1226 2.377 . S
Gd1201 O1228 2.448 . S
Gd1201 O1229 2.506 . S
Gd1201 O1230 2.435 . S
Gd1201 O1231 2.717 . S
C1202 O1220 1.240 . S
C1202 O1221 1.240 . S
C1203 Gd1200 2.818 . S
C1203 C1204 1.510 . S
C1203 O1222 1.249 . S
C1203 O1223 1.252 . S
C1204 C1203 1.510 . S
C1204 C1205 1.404 . S
C1204 C1206 1.352 . S
C1205 C1204 1.404 . S
C1205 C1209 1.389 . S
C1205 H1232 0.930 . S
C1206 C1204 1.352 . S
C1206 C1208 1.374 . S
C1206 H1233 0.931 . S
C1207 C1208 1.359 . S
C1207 C1209 1.364 . S
C1208 C1206 1.374 . S
C1208 C1207 1.359 . S
C1208 H1234 0.931 . S
C1209 C1205 1.389 . S
C1209 C1207 1.364 . S
C1209 H1235 0.931 . S
C1210 O1224 1.256 . S
C1210 O1225 1.257 . S
C1211 O1226 1.240 . S
C1211 O1227 1.240 . S
C1212 Gd1201 2.818 . S
C1212 C1213 1.510 . S
C1212 O1228 1.249 . S
C1212 O1229 1.252 . S
C1213 C1212 1.510 . S
C1213 C1214 1.404 . S
C1213 C1215 1.352 . S
C1214 C1213 1.404 . S
C1214 C1218 1.389 . S
C1214 H1236 0.930 . S
C1215 C1213 1.352 . S
C1215 C1217 1.374 . S
C1215 H1237 0.931 . S
C1216 C1217 1.359 . S
C1216 C1218 1.364 . S
C1217 C1215 1.374 . S
C1217 C1216 1.359 . S
C1217 H1238 0.931 . S
C1218 C1214 1.389 . S
C1218 C1216 1.364 . S
C1218 H1239 0.931 . S
C1219 O1230 1.256 . S
C1219 O1231 1.257 . S
O1220 Gd1200 2.377 . S
O1220 C1202 1.240 . S
O1221 Gd1201 2.395 . S
O1221 C1202 1.240 . S
O1222 Gd1200 2.448 . S
O1222 C1203 1.249 . S
O1223 Gd1200 2.506 . S
O1223 C1203 1.252 . S
O1224 Gd1200 2.435 . S
O1224 C1210 1.256 . S
O1225 Gd1200 2.717 . S
O1225 Gd1201 2.327 . S
O1225 C1210 1.257 . S
O1226 Gd1201 2.377 . S
O1226 C1211 1.240 . S
O1227 Gd1200 2.395 . S
O1227 C1211 1.240 . S
O1228 Gd1201 2.448 . S
O1228 C1212 1.249 . S
O1229 Gd1201 2.506 . S
O1229 C1212 1.252 . S
O1230 Gd1201 2.435 . S
O1230 C1219 1.256 . S
O1231 Gd1200 2.327 . S
O1231 Gd1201 2.717 . S
O1231 C1219 1.257 . S
H1232 C1205 0.930 . S
H1233 C1206 0.931 . S
H1234 C1208 0.931 . S
H1235 C1209 0.931 . S
H1236 C1214 0.930 . S
H1237 C1215 0.931 . S
H1238 C1217 0.931 . S
H1239 C1218 0.931 . S
Gd1240 C1243 2.818 . S
Gd1240 O1260 2.377 . S
Gd1240 O1262 2.448 . S
Gd1240 O1263 2.506 . S
Gd1240 O1264 2.435 . S
Gd1240 O1265 2.717 . S
Gd1240 O1267 2.395 . S
Gd1240 O1271 2.327 . S
Gd1241 C1252 2.818 . S
Gd1241 O1261 2.395 . S
Gd1241 O1265 2.327 . S
Gd1241 O1266 2.377 . S
Gd1241 O1268 2.448 . S
Gd1241 O1269 2.506 . S
Gd1241 O1270 2.435 . S
Gd1241 O1271 2.717 . S
C1242 O1260 1.240 . S
C1242 O1261 1.240 . S
C1243 Gd1240 2.818 . S
C1243 C1244 1.510 . S
C1243 O1262 1.249 . S
C1243 O1263 1.252 . S
C1244 C1243 1.510 . S
C1244 C1245 1.404 . S
C1244 C1246 1.352 . S
C1245 C1244 1.404 . S
C1245 C1249 1.389 . S
C1245 H1272 0.930 . S
C1246 C1244 1.352 . S
C1246 C1248 1.374 . S
C1246 H1273 0.931 . S
C1247 C1248 1.359 . S
C1247 C1249 1.364 . S
C1248 C1246 1.374 . S
C1248 C1247 1.359 . S
C1248 H1274 0.931 . S
C1249 C1245 1.389 . S
C1249 C1247 1.364 . S
C1249 H1275 0.931 . S
C1250 O1264 1.256 . S
C1250 O1265 1.257 . S
C1251 O1266 1.240 . S
C1251 O1267 1.240 . S
C1252 Gd1241 2.818 . S
C1252 C1253 1.510 . S
C1252 O1268 1.249 . S
C1252 O1269 1.252 . S
C1253 C1252 1.510 . S
C1253 C1254 1.404 . S
C1253 C1255 1.352 . S
C1254 C1253 1.404 . S
C1254 C1258 1.389 . S
C1254 H1276 0.930 . S
C1255 C1253 1.352 . S
C1255 C1257 1.374 . S
C1255 H1277 0.931 . S
C1256 C1257 1.359 . S
C1256 C1258 1.364 . S
C1257 C1255 1.374 . S
C1257 C1256 1.359 . S
C1257 H1278 0.931 . S
C1258 C1254 1.389 . S
C1258 C1256 1.364 . S
C1258 H1279 0.931 . S
C1259 O1270 1.256 . S
C1259 O1271 1.257 . S
O1260 Gd1240 2.377 . S
O1260 C1242 1.240 . S
O1261 Gd1241 2.395 . S
O1261 C1242 1.240 . S
O1262 Gd1240 2.448 . S
O1262 C1243 1.249 . S
O1263 Gd1240 2.506 . S
O1263 C1243 1.252 . S
O1264 Gd1240 2.435 . S
O1264 C1250 1.256 . S
O1265 Gd1240 2.717 . S
O1265 Gd1241 2.327 . S
O1265 C1250 1.257 . S
O1266 Gd1241 2.377 . S
O1266 C1251 1.240 . S
O1267 Gd1240 2.395 . S
O1267 C1251 1.240 . S
O1268 Gd1241 2.448 . S
O1268 C1252 1.249 . S
O1269 Gd1241 2.506 . S
O1269 C1252 1.252 . S
O1270 Gd1241 2.435 . S
O1270 C1259 1.256 . S
O1271 Gd1240 2.327 . S
O1271 Gd1241 2.717 . S
O1271 C1259 1.257 . S
H1272 C1245 0.930 . S
H1273 C1246 0.931 . S
H1274 C1248 0.931 . S
H1275 C1249 0.931 . S
H1276 C1254 0.930 . S
H1277 C1255 0.931 . S
H1278 C1257 0.931 . S
H1279 C1258 0.931 . S
Gd1280 C1283 2.818 . S
Gd1280 O1300 2.377 . S
Gd1280 O1302 2.448 . S
Gd1280 O1303 2.506 . S
Gd1280 O1304 2.435 . S
Gd1280 O1305 2.717 . S
Gd1280 O1307 2.395 . S
Gd1280 O1311 2.327 . S
Gd1281 C1292 2.818 . S
Gd1281 O1301 2.395 . S
Gd1281 O1305 2.327 . S
Gd1281 O1306 2.377 . S
Gd1281 O1308 2.448 . S
Gd1281 O1309 2.506 . S
Gd1281 O1310 2.435 . S
Gd1281 O1311 2.717 . S
C1282 O1300 1.240 . S
C1282 O1301 1.240 . S
C1283 Gd1280 2.818 . S
C1283 C1284 1.510 . S
C1283 O1302 1.249 . S
C1283 O1303 1.252 . S
C1284 C1283 1.510 . S
C1284 C1285 1.404 . S
C1284 C1286 1.352 . S
C1285 C1284 1.404 . S
C1285 C1289 1.389 . S
C1285 H1312 0.930 . S
C1286 C1284 1.352 . S
C1286 C1288 1.374 . S
C1286 H1313 0.931 . S
C1287 C1288 1.359 . S
C1287 C1289 1.364 . S
C1288 C1286 1.374 . S
C1288 C1287 1.359 . S
C1288 H1314 0.931 . S
C1289 C1285 1.389 . S
C1289 C1287 1.364 . S
C1289 H1315 0.931 . S
C1290 O1304 1.256 . S
C1290 O1305 1.257 . S
C1291 O1306 1.240 . S
C1291 O1307 1.240 . S
C1292 Gd1281 2.818 . S
C1292 C1293 1.510 . S
C1292 O1308 1.249 . S
C1292 O1309 1.252 . S
C1293 C1292 1.510 . S
C1293 C1294 1.404 . S
C1293 C1295 1.352 . S
C1294 C1293 1.404 . S
C1294 C1298 1.389 . S
C1294 H1316 0.930 . S
C1295 C1293 1.352 . S
C1295 C1297 1.374 . S
C1295 H1317 0.931 . S
C1296 C1297 1.359 . S
C1296 C1298 1.364 . S
C1297 C1295 1.374 . S
C1297 C1296 1.359 . S
C1297 H1318 0.931 . S
C1298 C1294 1.389 . S
C1298 C1296 1.364 . S
C1298 H1319 0.931 . S
C1299 O1310 1.256 . S
C1299 O1311 1.257 . S
O1300 Gd1280 2.377 . S
O1300 C1282 1.240 . S
O1301 Gd1281 2.395 . S
O1301 C1282 1.240 . S
O1302 Gd1280 2.448 . S
O1302 C1283 1.249 . S
O1303 Gd1280 2.506 . S
O1303 C1283 1.252 . S
O1304 Gd1280 2.435 . S
O1304 C1290 1.256 . S
O1305 Gd1280 2.717 . S
O1305 Gd1281 2.327 . S
O1305 C1290 1.257 . S
O1306 Gd1281 2.377 . S
O1306 C1291 1.240 . S
O1307 Gd1280 2.395 . S
O1307 C1291 1.240 . S
O1308 Gd1281 2.448 . S
O1308 C1292 1.249 . S
O1309 Gd1281 2.506 . S
O1309 C1292 1.252 . S
O1310 Gd1281 2.435 . S
O1310 C1299 1.256 . S
O1311 Gd1280 2.327 . S
O1311 Gd1281 2.717 . S
O1311 C1299 1.257 . S
H1312 C1285 0.930 . S
H1313 C1286 0.931 . S
H1314 C1288 0.931 . S
H1315 C1289 0.931 . S
H1316 C1294 0.930 . S
H1317 C1295 0.931 . S
H1318 C1297 0.931 . S
H1319 C1298 0.931 . S
Gd1320 C1323 2.818 . S
Gd1320 O1340 2.377 . S
Gd1320 O1342 2.448 . S
Gd1320 O1343 2.506 . S
Gd1320 O1344 2.435 . S
Gd1320 O1345 2.717 . S
Gd1320 O1347 2.395 . S
Gd1320 O1351 2.327 . S
Gd1321 C1332 2.818 . S
Gd1321 O1341 2.395 . S
Gd1321 O1345 2.327 . S
Gd1321 O1346 2.377 . S
Gd1321 O1348 2.448 . S
Gd1321 O1349 2.506 . S
Gd1321 O1350 2.435 . S
Gd1321 O1351 2.717 . S
C1322 O1340 1.240 . S
C1322 O1341 1.240 . S
C1323 Gd1320 2.818 . S
C1323 C1324 1.510 . S
C1323 O1342 1.249 . S
C1323 O1343 1.252 . S
C1324 C1323 1.510 . S
C1324 C1325 1.404 . S
C1324 C1326 1.352 . S
C1325 C1324 1.404 . S
C1325 C1329 1.389 . S
C1325 H1352 0.930 . S
C1326 C1324 1.352 . S
C1326 C1328 1.374 . S
C1326 H1353 0.931 . S
C1327 C1328 1.359 . S
C1327 C1329 1.364 . S
C1328 C1326 1.374 . S
C1328 C1327 1.359 . S
C1328 H1354 0.931 . S
C1329 C1325 1.389 . S
C1329 C1327 1.364 . S
C1329 H1355 0.931 . S
C1330 O1344 1.256 . S
C1330 O1345 1.257 . S
C1331 O1346 1.240 . S
C1331 O1347 1.240 . S
C1332 Gd1321 2.818 . S
C1332 C1333 1.510 . S
C1332 O1348 1.249 . S
C1332 O1349 1.252 . S
C1333 C1332 1.510 . S
C1333 C1334 1.404 . S
C1333 C1335 1.352 . S
C1334 C1333 1.404 . S
C1334 C1338 1.389 . S
C1334 H1356 0.930 . S
C1335 C1333 1.352 . S
C1335 C1337 1.374 1_455 S
C1335 H1357 0.931 1_455 S
C1336 C1337 1.359 1_455 S
C1336 C1338 1.364 . S
C1337 C1335 1.374 1_655 S
C1337 C1336 1.359 1_655 S
C1337 H1358 0.931 . S
C1338 C1334 1.389 . S
C1338 C1336 1.364 . S
C1338 H1359 0.931 . S
C1339 O1350 1.256 . S
C1339 O1351 1.257 . S
O1340 Gd1320 2.377 . S
O1340 C1322 1.240 . S
O1341 Gd1321 2.395 . S
O1341 C1322 1.240 . S
O1342 Gd1320 2.448 . S
O1342 C1323 1.249 . S
O1343 Gd1320 2.506 . S
O1343 C1323 1.252 . S
O1344 Gd1320 2.435 . S
O1344 C1330 1.256 . S
O1345 Gd1320 2.717 . S
O1345 Gd1321 2.327 . S
O1345 C1330 1.257 . S
O1346 Gd1321 2.377 . S
O1346 C1331 1.240 . S
O1347 Gd1320 2.395 . S
O1347 C1331 1.240 . S
O1348 Gd1321 2.448 . S
O1348 C1332 1.249 . S
O1349 Gd1321 2.506 . S
O1349 C1332 1.252 . S
O1350 Gd1321 2.435 . S
O1350 C1339 1.256 . S
O1351 Gd1320 2.327 . S
O1351 Gd1321 2.717 . S
O1351 C1339 1.257 . S
H1352 C1325 0.930 . S
H1353 C1326 0.931 . S
H1354 C1328 0.931 . S
H1355 C1329 0.931 . S
H1356 C1334 0.930 . S
H1357 C1335 0.931 1_655 S
H1358 C1337 0.931 . S
H1359 C1338 0.931 . S
Gd1360 C1363 2.818 . S
Gd1360 O1380 2.377 . S
Gd1360 O1382 2.448 . S
Gd1360 O1383 2.506 . S
Gd1360 O1384 2.435 . S
Gd1360 O1385 2.717 . S
Gd1360 O1387 2.395 . S
Gd1360 O1391 2.327 . S
Gd1361 C1372 2.818 . S
Gd1361 O1381 2.395 . S
Gd1361 O1385 2.327 . S
Gd1361 O1386 2.377 . S
Gd1361 O1388 2.448 . S
Gd1361 O1389 2.506 . S
Gd1361 O1390 2.435 . S
Gd1361 O1391 2.717 . S
C1362 O1380 1.240 . S
C1362 O1381 1.240 . S
C1363 Gd1360 2.818 . S
C1363 C1364 1.510 . S
C1363 O1382 1.249 . S
C1363 O1383 1.252 . S
C1364 C1363 1.510 . S
C1364 C1365 1.404 . S
C1364 C1366 1.352 . S
C1365 C1364 1.404 . S
C1365 C1369 1.389 . S
C1365 H1392 0.930 . S
C1366 C1364 1.352 . S
C1366 C1368 1.374 . S
C1366 H1393 0.931 . S
C1367 C1368 1.359 . S
C1367 C1369 1.364 . S
C1368 C1366 1.374 . S
C1368 C1367 1.359 . S
C1368 H1394 0.931 . S
C1369 C1365 1.389 . S
C1369 C1367 1.364 . S
C1369 H1395 0.931 . S
C1370 O1384 1.256 . S
C1370 O1385 1.257 . S
C1371 O1386 1.240 . S
C1371 O1387 1.240 . S
C1372 Gd1361 2.818 . S
C1372 C1373 1.510 . S
C1372 O1388 1.249 . S
C1372 O1389 1.252 . S
C1373 C1372 1.510 . S
C1373 C1374 1.404 . S
C1373 C1375 1.352 . S
C1374 C1373 1.404 . S
C1374 C1378 1.389 . S
C1374 H1396 0.930 . S
C1375 C1373 1.352 . S
C1375 C1377 1.374 . S
C1375 H1397 0.931 . S
C1376 C1377 1.359 . S
C1376 C1378 1.364 . S
C1377 C1375 1.374 . S
C1377 C1376 1.359 . S
C1377 H1398 0.931 . S
C1378 C1374 1.389 . S
C1378 C1376 1.364 . S
C1378 H1399 0.931 . S
C1379 O1390 1.256 . S
C1379 O1391 1.257 . S
O1380 Gd1360 2.377 . S
O1380 C1362 1.240 . S
O1381 Gd1361 2.395 . S
O1381 C1362 1.240 . S
O1382 Gd1360 2.448 . S
O1382 C1363 1.249 . S
O1383 Gd1360 2.506 . S
O1383 C1363 1.252 . S
O1384 Gd1360 2.435 . S
O1384 C1370 1.256 . S
O1385 Gd1360 2.717 . S
O1385 Gd1361 2.327 . S
O1385 C1370 1.257 . S
O1386 Gd1361 2.377 . S
O1386 C1371 1.240 . S
O1387 Gd1360 2.395 . S
O1387 C1371 1.240 . S
O1388 Gd1361 2.448 . S
O1388 C1372 1.249 . S
O1389 Gd1361 2.506 . S
O1389 C1372 1.252 . S
O1390 Gd1361 2.435 . S
O1390 C1379 1.256 . S
O1391 Gd1360 2.327 . S
O1391 Gd1361 2.717 . S
O1391 C1379 1.257 . S
H1392 C1365 0.930 . S
H1393 C1366 0.931 . S
H1394 C1368 0.931 . S
H1395 C1369 0.931 . S
H1396 C1374 0.930 . S
H1397 C1375 0.931 . S
H1398 C1377 0.931 . S
H1399 C1378 0.931 . S
Gd1400 C1403 2.818 . S
Gd1400 O1420 2.377 . S
Gd1400 O1422 2.448 . S
Gd1400 O1423 2.506 . S
Gd1400 O1424 2.435 . S
Gd1400 O1425 2.717 . S
Gd1400 O1427 2.395 . S
Gd1400 O1431 2.327 . S
Gd1401 C1412 2.818 . S
Gd1401 O1421 2.395 . S
Gd1401 O1425 2.327 . S
Gd1401 O1426 2.377 . S
Gd1401 O1428 2.448 . S
Gd1401 O1429 2.506 . S
Gd1401 O1430 2.435 . S
Gd1401 O1431 2.717 . S
C1402 O1420 1.240 . S
C1402 O1421 1.240 . S
C1403 Gd1400 2.818 . S
C1403 C1404 1.510 . S
C1403 O1422 1.249 . S
C1403 O1423 1.252 . S
C1404 C1403 1.510 . S
C1404 C1405 1.404 . S
C1404 C1406 1.352 . S
C1405 C1404 1.404 . S
C1405 C1409 1.389 . S
C1405 H1432 0.930 . S
C1406 C1404 1.352 . S
C1406 C1408 1.374 . S
C1406 H1433 0.931 . S
C1407 C1408 1.359 . S
C1407 C1409 1.364 . S
C1408 C1406 1.374 . S
C1408 C1407 1.359 . S
C1408 H1434 0.931 . S
C1409 C1405 1.389 . S
C1409 C1407 1.364 . S
C1409 H1435 0.931 . S
C1410 O1424 1.256 . S
C1410 O1425 1.257 . S
C1411 O1426 1.240 . S
C1411 O1427 1.240 . S
C1412 Gd1401 2.818 . S
C1412 C1413 1.510 . S
C1412 O1428 1.249 . S
C1412 O1429 1.252 . S
C1413 C1412 1.510 . S
C1413 C1414 1.404 . S
C1413 C1415 1.352 . S
C1414 C1413 1.404 . S
C1414 C1418 1.389 . S
C1414 H1436 0.930 . S
C1415 C1413 1.352 . S
C1415 C1417 1.374 1_565 S
C1415 H1437 0.931 1_565 S
C1416 C1417 1.359 1_565 S
C1416 C1418 1.364 . S
C1417 C1415 1.374 1_545 S
C1417 C1416 1.359 1_545 S
C1417 H1438 0.931 . S
C1418 C1414 1.389 . S
C1418 C1416 1.364 . S
C1418 H1439 0.931 . S
C1419 O1430 1.256 . S
C1419 O1431 1.257 . S
O1420 Gd1400 2.377 . S
O1420 C1402 1.240 . S
O1421 Gd1401 2.395 . S
O1421 C1402 1.240 . S
O1422 Gd1400 2.448 . S
O1422 C1403 1.249 . S
O1423 Gd1400 2.506 . S
O1423 C1403 1.252 . S
O1424 Gd1400 2.435 . S
O1424 C1410 1.256 . S
O1425 Gd1400 2.717 . S
O1425 Gd1401 2.327 . S
O1425 C1410 1.257 . S
O1426 Gd1401 2.377 . S
O1426 C1411 1.240 . S
O1427 Gd1400 2.395 . S
O1427 C1411 1.240 . S
O1428 Gd1401 2.448 . S
O1428 C1412 1.249 . S
O1429 Gd1401 2.506 . S
O1429 C1412 1.252 . S
O1430 Gd1401 2.435 . S
O1430 C1419 1.256 . S
O1431 Gd1400 2.327 . S
O1431 Gd1401 2.717 . S
O1431 C1419 1.257 . S
H1432 C1405 0.930 . S
H1433 C1406 0.931 . S
H1434 C1408 0.931 . S
H1435 C1409 0.931 . S
H1436 C1414 0.930 . S
H1437 C1415 0.931 1_545 S
H1438 C1417 0.931 . S
H1439 C1418 0.931 . S
C1440 C1441 1.391 . S
C1440 C1442 1.394 . S
C1440 H1456 0.931 . S
C1441 C1440 1.391 . S
C1441 C1445 1.376 . S
C1442 C1440 1.394 . S
C1442 C1443 1.369 . S
C1442 C1446 1.531 . S
C1443 C1442 1.369 . S
C1443 C1444 1.410 . S
C1443 C1451 1.503 . S
C1444 C1443 1.410 . S
C1444 C1445 1.392 . S
C1444 C1447 1.511 . S
C1445 C1441 1.376 . S
C1445 C1444 1.392 . S
C1445 H1457 0.929 . S
C1446 C1442 1.531 . S
C1446 H1458 0.960 . S
C1446 H1459 0.962 . S
C1446 H1460 0.960 . S
C1447 C1444 1.511 . S
C1447 H1461 0.961 . S
C1447 H1462 0.961 . S
C1447 H1463 0.961 . S
C1448 C1449 1.381 . S
C1448 C1450 1.339 1_565 S
C1448 H1464 0.945 . S
C1449 C1448 1.381 . S
C1449 C1453 1.408 . S
C1450 C1448 1.339 1_545 S
C1450 C1451 1.370 . S
C1450 C1454 1.524 . S
C1451 C1443 1.503 . S
C1451 C1450 1.370 . S
C1451 C1452 1.403 . S
C1452 C1451 1.403 . S
C1452 C1453 1.404 1_545 S
C1452 C1455 1.539 . S
C1453 C1449 1.408 . S
C1453 C1452 1.404 1_565 S
C1453 H1465 0.930 . S
C1454 C1450 1.524 . S
C1454 H1466 0.956 . S
C1454 H1467 0.961 . S
C1454 H1468 0.961 . S
C1455 C1452 1.539 . S
C1455 H1469 0.958 . S
C1455 H1470 0.961 . S
C1455 H1471 0.960 . S
H1456 C1440 0.931 . S
H1457 C1445 0.929 . S
H1458 C1446 0.960 . S
H1459 C1446 0.962 . S
H1460 C1446 0.960 . S
H1461 C1447 0.961 . S
H1462 C1447 0.961 . S
H1463 C1447 0.961 . S
H1464 C1448 0.945 . S
H1465 C1453 0.930 . S
H1466 C1454 0.956 . S
H1467 C1454 0.961 . S
H1468 C1454 0.961 . S
H1469 C1455 0.958 . S
H1470 C1455 0.961 . S
H1471 C1455 0.960 . S
C1472 C1473 1.391 1_655 S
C1472 C1474 1.394 . S
C1472 H1488 0.931 1_655 S
C1473 C1472 1.391 1_455 S
C1473 C1477 1.376 . S
C1474 C1472 1.394 . S
C1474 C1475 1.369 . S
C1474 C1478 1.531 . S
C1475 C1474 1.369 . S
C1475 C1476 1.410 . S
C1475 C1483 1.503 . S
C1476 C1475 1.410 . S
C1476 C1477 1.392 1_655 S
C1476 C1479 1.511 . S
C1477 C1473 1.376 . S
C1477 C1476 1.392 1_455 S
C1477 H1489 0.929 . S
C1478 C1474 1.531 . S
C1478 H1490 0.960 . S
C1478 H1491 0.962 . S
C1478 H1492 0.960 . S
C1479 C1476 1.511 . S
C1479 H1493 0.960 . S
C1479 H1494 0.961 . S
C1479 H1495 0.961 . S
C1480 C1481 1.370 . S
C1480 C1482 1.363 . S
C1480 H1496 0.931 . S
C1481 C1480 1.370 . S
C1481 C1485 1.408 . S
C1482 C1480 1.363 . S
C1482 C1483 1.370 . S
C1482 C1486 1.524 . S
C1483 C1475 1.503 . S
C1483 C1482 1.370 . S
C1483 C1484 1.403 . S
C1484 C1483 1.403 . S
C1484 C1485 1.404 . S
C1484 C1487 1.539 . S
C1485 C1481 1.408 . S
C1485 C1484 1.404 . S
C1485 H1497 0.930 . S
C1486 C1482 1.524 . S
C1486 H1498 0.956 . S
C1486 H1499 0.961 . S
C1486 H1500 0.961 . S
C1487 C1484 1.539 . S
C1487 H1501 0.958 . S
C1487 H1502 0.961 . S
C1487 H1503 0.960 . S
H1488 C1472 0.931 1_455 S
H1489 C1477 0.929 . S
H1490 C1478 0.960 . S
H1491 C1478 0.962 . S
H1492 C1478 0.960 . S
H1493 C1479 0.960 . S
H1494 C1479 0.961 . S
H1495 C1479 0.961 . S
H1496 C1480 0.931 . S
H1497 C1485 0.930 . S
H1498 C1486 0.956 . S
H1499 C1486 0.961 . S
H1500 C1486 0.961 . S
H1501 C1487 0.958 . S
H1502 C1487 0.961 . S
H1503 C1487 0.960 . S
C1504 C1505 1.391 . S
C1504 C1506 1.394 . S
C1504 H1520 0.931 . S
C1505 C1504 1.391 . S
C1505 C1509 1.376 . S
C1506 C1504 1.394 . S
C1506 C1507 1.369 . S
C1506 C1510 1.531 . S
C1507 C1506 1.369 . S
C1507 C1508 1.410 . S
C1507 C1515 1.503 . S
C1508 C1507 1.410 . S
C1508 C1509 1.392 . S
C1508 C1511 1.511 . S
C1509 C1505 1.376 . S
C1509 C1508 1.392 . S
C1509 H1521 0.929 . S
C1510 C1506 1.531 . S
C1510 H1522 0.960 . S
C1510 H1523 0.962 . S
C1510 H1524 0.960 . S
C1511 C1508 1.511 . S
C1511 H1525 0.961 . S
C1511 H1526 0.961 . S
C1511 H1527 0.961 . S
C1512 C1513 1.370 . S
C1512 C1514 1.363 . S
C1512 H1528 0.931 . S
C1513 C1512 1.370 . S
C1513 C1517 1.408 . S
C1514 C1512 1.363 . S
C1514 C1515 1.370 . S
C1514 C1518 1.524 . S
C1515 C1507 1.503 . S
C1515 C1514 1.370 . S
C1515 C1516 1.403 . S
C1516 C1515 1.403 . S
C1516 C1517 1.404 . S
C1516 C1519 1.539 . S
C1517 C1513 1.408 . S
C1517 C1516 1.404 . S
C1517 H1529 0.930 . S
C1518 C1514 1.524 . S
C1518 H1530 0.956 . S
C1518 H1531 0.961 . S
C1518 H1532 0.961 . S
C1519 C1516 1.539 . S
C1519 H1533 0.958 . S
C1519 H1534 0.961 . S
C1519 H1535 0.960 . S
H1520 C1504 0.931 . S
H1521 C1509 0.929 . S
H1522 C1510 0.960 . S
H1523 C1510 0.962 . S
H1524 C1510 0.960 . S
H1525 C1511 0.961 . S
H1526 C1511 0.961 . S
H1527 C1511 0.961 . S
H1528 C1512 0.931 . S
H1529 C1517 0.930 . S
H1530 C1518 0.956 . S
H1531 C1518 0.961 . S
H1532 C1518 0.961 . S
H1533 C1519 0.958 . S
H1534 C1519 0.961 . S
H1535 C1519 0.960 . S
C1536 C1537 1.391 . S
C1536 C1538 1.394 . S
C1536 H1552 0.931 . S
C1537 C1536 1.391 . S
C1537 C1541 1.376 . S
C1538 C1536 1.394 . S
C1538 C1539 1.369 . S
C1538 C1542 1.531 . S
C1539 C1538 1.369 . S
C1539 C1540 1.410 . S
C1539 C1547 1.503 . S
C1540 C1539 1.410 . S
C1540 C1541 1.392 . S
C1540 C1543 1.511 . S
C1541 C1537 1.376 . S
C1541 C1540 1.392 . S
C1541 H1553 0.929 . S
C1542 C1538 1.531 . S
C1542 H1554 0.960 . S
C1542 H1555 0.962 . S
C1542 H1556 0.960 . S
C1543 C1540 1.511 . S
C1543 H1557 0.961 . S
C1543 H1558 0.961 . S
C1543 H1559 0.961 . S
C1544 C1545 1.370 1_455 S
C1544 C1546 1.363 . S
C1544 H1560 0.931 . S
C1545 C1544 1.370 1_655 S
C1545 C1549 1.408 . S
C1546 C1544 1.363 . S
C1546 C1547 1.370 . S
C1546 C1550 1.524 . S
C1547 C1539 1.503 . S
C1547 C1546 1.370 . S
C1547 C1548 1.403 . S
C1548 C1547 1.403 . S
C1548 C1549 1.404 1_455 S
C1548 C1551 1.539 . S
C1549 C1545 1.408 . S
C1549 C1548 1.404 1_655 S
C1549 H1561 0.930 . S
C1550 C1546 1.524 . S
C1550 H1562 0.956 . S
C1550 H1563 0.961 . S
C1550 H1564 0.961 . S
C1551 C1548 1.539 . S
C1551 H1565 0.958 . S
C1551 H1566 0.961 1_455 S
C1551 H1567 0.960 . S
H1552 C1536 0.931 . S
H1553 C1541 0.929 . S
H1554 C1542 0.960 . S
H1555 C1542 0.962 . S
H1556 C1542 0.960 . S
H1557 C1543 0.961 . S
H1558 C1543 0.961 . S
H1559 C1543 0.961 . S
H1560 C1544 0.931 . S
H1561 C1549 0.930 . S
H1562 C1550 0.956 . S
H1563 C1550 0.961 . S
H1564 C1550 0.961 . S
H1565 C1551 0.958 . S
H1566 C1551 0.961 1_655 S
H1567 C1551 0.960 . S
C1568 C1569 1.391 . S
C1568 C1570 1.394 . S
C1568 H1584 0.931 . S
C1569 C1568 1.391 . S
C1569 C1573 1.376 . S
C1570 C1568 1.394 . S
C1570 C1571 1.369 . S
C1570 C1574 1.531 . S
C1571 C1570 1.369 . S
C1571 C1572 1.410 . S
C1571 C1579 1.503 . S
C1572 C1571 1.410 . S
C1572 C1573 1.392 . S
C1572 C1575 1.511 . S
C1573 C1569 1.376 . S
C1573 C1572 1.392 . S
C1573 H1585 0.929 . S
C1574 C1570 1.531 . S
C1574 H1586 0.960 . S
C1574 H1587 0.962 . S
C1574 H1588 0.960 . S
C1575 C1572 1.511 . S
C1575 H1589 0.961 . S
C1575 H1590 0.961 . S
C1575 H1591 0.961 . S
C1576 C1577 1.370 . S
C1576 C1578 1.363 . S
C1576 H1592 0.923 1_565 S
C1577 C1576 1.370 . S
C1577 C1581 1.408 . S
C1578 C1576 1.363 . S
C1578 C1579 1.370 . S
C1578 C1582 1.524 . S
C1579 C1571 1.503 . S
C1579 C1578 1.370 . S
C1579 C1580 1.403 . S
C1580 C1579 1.403 . S
C1580 C1581 1.404 . S
C1580 C1583 1.539 . S
C1581 C1577 1.408 . S
C1581 C1580 1.404 . S
C1581 H1593 0.930 . S
C1582 C1578 1.524 . S
C1582 H1594 0.956 . S
C1582 H1595 0.961 . S
C1582 H1596 0.961 . S
C1583 C1580 1.539 . S
C1583 H1597 0.958 . S
C1583 H1598 0.961 . S
C1583 H1599 0.960 . S
H1584 C1568 0.931 . S
H1585 C1573 0.929 . S
H1586 C1574 0.960 . S
H1587 C1574 0.962 . S
H1588 C1574 0.960 . S
H1589 C1575 0.961 . S
H1590 C1575 0.961 . S
H1591 C1575 0.961 . S
H1592 C1576 0.923 1_545 S
H1593 C1581 0.930 . S
H1594 C1582 0.956 . S
H1595 C1582 0.961 . S
H1596 C1582 0.961 . S
H1597 C1583 0.958 . S
H1598 C1583 0.961 . S
H1599 C1583 0.960 . S
C1600 C1601 1.391 . S
C1600 C1602 1.394 . S
C1600 H1616 0.931 1_455 S
C1601 C1600 1.391 . S
C1601 C1605 1.376 . S
C1602 C1600 1.394 . S
C1602 C1603 1.369 . S
C1602 C1606 1.531 . S
C1603 C1602 1.369 . S
C1603 C1604 1.410 . S
C1603 C1611 1.503 . S
C1604 C1603 1.410 . S
C1604 C1605 1.392 . S
C1604 C1607 1.511 . S
C1605 C1601 1.376 . S
C1605 C1604 1.392 . S
C1605 H1617 0.929 . S
C1606 C1602 1.531 . S
C1606 H1618 0.960 . S
C1606 H1619 0.962 . S
C1606 H1620 0.960 . S
C1607 C1604 1.511 . S
C1607 H1621 0.961 . S
C1607 H1622 0.961 . S
C1607 H1623 0.961 . S
C1608 C1609 1.370 . S
C1608 C1610 1.363 1_545 S
C1608 H1624 0.931 . S
C1609 C1608 1.370 . S
C1609 C1613 1.408 . S
C1610 C1608 1.363 1_565 S
C1610 C1611 1.370 . S
C1610 C1614 1.524 . S
C1611 C1603 1.503 . S
C1611 C1610 1.370 . S
C1611 C1612 1.403 . S
C1612 C1611 1.403 . S
C1612 C1613 1.404 1_565 S
C1612 C1615 1.539 . S
C1613 C1609 1.408 . S
C1613 C1612 1.404 1_545 S
C1613 H1625 0.930 . S
C1614 C1610 1.524 . S
C1614 H1626 0.956 . S
C1614 H1627 0.961 . S
C1614 H1628 0.961 . S
C1615 C1612 1.539 . S
C1615 H1629 0.958 . S
C1615 H1630 0.961 . S
C1615 H1631 0.960 . S
H1616 C1600 0.931 1_655 S
H1617 C1605 0.929 . S
H1618 C1606 0.960 . S
H1619 C1606 0.962 . S
H1620 C1606 0.960 . S
H1621 C1607 0.961 . S
H1622 C1607 0.961 . S
H1623 C1607 0.961 . S
H1624 C1608 0.931 . S
H1625 C1613 0.930 . S
H1626 C1614 0.956 . S
H1627 C1614 0.961 . S
H1628 C1614 0.961 . S
H1629 C1615 0.958 . S
H1630 C1615 0.961 . S
H1631 C1615 0.960 . S
C1632 C1633 1.391 . S
C1632 C1634 1.394 . S
C1632 H1648 0.931 . S
C1633 C1632 1.391 . S
C1633 C1637 1.376 . S
C1634 C1632 1.394 . S
C1634 C1635 1.369 . S
C1634 C1638 1.531 . S
C1635 C1634 1.369 . S
C1635 C1636 1.410 . S
C1635 C1643 1.503 . S
C1636 C1635 1.410 . S
C1636 C1637 1.392 . S
C1636 C1639 1.511 . S
C1637 C1633 1.376 . S
C1637 C1636 1.392 . S
C1637 H1649 0.929 . S
C1638 C1634 1.531 . S
C1638 H1650 0.960 . S
C1638 H1651 0.962 . S
C1638 H1652 0.960 . S
C1639 C1636 1.511 . S
C1639 H1653 0.961 . S
C1639 H1654 0.961 . S
C1639 H1655 0.961 . S
C1640 C1641 1.370 1_565 S
C1640 C1642 1.363 . S
C1640 H1656 0.930 1_565 S
C1641 C1640 1.370 1_545 S
C1641 C1645 1.408 . S
C1642 C1640 1.363 . S
C1642 C1643 1.370 . S
C1642 C1646 1.524 . S
C1643 C1635 1.503 . S
C1643 C1642 1.370 . S
C1643 C1644 1.403 . S
C1644 C1643 1.403 . S
C1644 C1645 1.404 1_565 S
C1644 C1647 1.539 . S
C1645 C1641 1.408 . S
C1645 C1644 1.404 1_545 S
C1645 H1657 0.930 . S
C1646 C1642 1.524 . S
C1646 H1658 0.956 . S
C1646 H1659 0.961 . S
C1646 H1660 0.961 . S
C1647 C1644 1.539 . S
C1647 H1661 0.958 . S
C1647 H1662 0.961 1_565 S
C1647 H1663 0.960 . S
H1648 C1632 0.931 . S
H1649 C1637 0.929 . S
H1650 C1638 0.960 . S
H1651 C1638 0.962 . S
H1652 C1638 0.960 . S
H1653 C1639 0.961 . S
H1654 C1639 0.961 . S
H1655 C1639 0.961 . S
H1656 C1640 0.930 1_545 S
H1657 C1645 0.930 . S
H1658 C1646 0.956 . S
H1659 C1646 0.961 . S
H1660 C1646 0.961 . S
H1661 C1647 0.958 . S
H1662 C1647 0.961 1_545 S
H1663 C1647 0.960 . S
C1664 C1665 1.391 . S
C1664 C1666 1.394 . S
C1664 H1680 0.931 . S
C1665 C1664 1.391 . S
C1665 C1669 1.376 . S
C1666 C1664 1.394 . S
C1666 C1667 1.369 . S
C1666 C1670 1.531 . S
C1667 C1666 1.369 . S
C1667 C1668 1.410 . S
C1667 C1675 1.503 . S
C1668 C1667 1.410 . S
C1668 C1669 1.392 . S
C1668 C1671 1.511 . S
C1669 C1665 1.376 . S
C1669 C1668 1.392 . S
C1669 H1681 0.929 1_565 S
C1670 C1666 1.531 . S
C1670 H1682 0.960 . S
C1670 H1683 0.962 . S
C1670 H1684 0.960 . S
C1671 C1668 1.511 . S
C1671 H1685 0.961 . S
C1671 H1686 0.961 . S
C1671 H1687 0.961 . S
C1672 C1673 1.370 1_455 S
C1672 C1674 1.363 . S
C1672 H1688 0.931 . S
C1673 C1672 1.370 1_655 S
C1673 C1677 1.408 . S
C1674 C1672 1.363 . S
C1674 C1675 1.370 . S
C1674 C1678 1.524 . S
C1675 C1667 1.503 . S
C1675 C1674 1.370 . S
C1675 C1676 1.403 . S
C1676 C1675 1.403 . S
C1676 C1677 1.404 1_455 S
C1676 C1679 1.539 . S
C1677 C1673 1.408 . S
C1677 C1676 1.404 1_655 S
C1677 H1689 0.930 . S
C1678 C1674 1.524 . S
C1678 H1690 0.956 . S
C1678 H1691 0.961 . S
C1678 H1692 0.961 . S
C1679 C1676 1.539 . S
C1679 H1693 0.958 . S
C1679 H1694 0.961 1_455 S
C1679 H1695 0.960 . S
H1680 C1664 0.931 . S
H1681 C1669 0.929 1_545 S
H1682 C1670 0.960 . S
H1683 C1670 0.962 . S
H1684 C1670 0.960 . S
H1685 C1671 0.961 . S
H1686 C1671 0.961 . S
H1687 C1671 0.961 . S
H1688 C1672 0.931 . S
H1689 C1677 0.930 . S
H1690 C1678 0.956 . S
H1691 C1678 0.961 . S
H1692 C1678 0.961 . S
H1693 C1679 0.958 . S
H1694 C1679 0.961 1_655 S
H1695 C1679 0.960 . S
C1696 C1697 1.391 . S
C1696 C1698 1.394 . S
C1696 H1712 0.931 . S
C1697 C1696 1.391 . S
C1697 C1701 1.388 1_455 S
C1698 C1696 1.394 . S
C1698 C1699 1.369 . S
C1698 C1702 1.531 . S
C1699 C1698 1.369 . S
C1699 C1700 1.410 . S
C1699 C1707 1.503 . S
C1700 C1699 1.410 . S
C1700 C1701 1.359 1_455 S
C1700 C1703 1.511 . S
C1701 C1697 1.388 1_655 S
C1701 C1700 1.359 1_655 S
C1701 H1713 0.951 . S
C1702 C1698 1.531 . S
C1702 H1714 0.960 . S
C1702 H1715 0.962 . S
C1702 H1716 0.960 . S
C1703 C1700 1.511 . S
C1703 H1717 0.961 . S
C1703 H1718 0.961 . S
C1703 H1719 0.961 . S
C1704 C1705 1.370 . S
C1704 C1706 1.363 . S
C1704 H1720 0.931 . S
C1705 C1704 1.370 . S
C1705 C1709 1.408 . S
C1706 C1704 1.363 . S
C1706 C1707 1.370 . S
C1706 C1710 1.524 . S
C1707 C1699 1.503 . S
C1707 C1706 1.370 . S
C1707 C1708 1.403 . S
C1708 C1707 1.403 . S
C1708 C1709 1.404 . S
C1708 C1711 1.539 . S
C1709 C1705 1.408 . S
C1709 C1708 1.404 . S
C1709 H1721 0.930 . S
C1710 C1706 1.524 . S
C1710 H1722 0.956 . S
C1710 H1723 0.961 . S
C1710 H1724 0.961 . S
C1711 C1708 1.539 . S
C1711 H1725 0.958 . S
C1711 H1726 0.961 . S
C1711 H1727 0.960 . S
H1712 C1696 0.931 . S
H1713 C1701 0.951 . S
H1714 C1702 0.960 . S
H1715 C1702 0.962 . S
H1716 C1702 0.960 . S
H1717 C1703 0.961 . S
H1718 C1703 0.961 . S
H1719 C1703 0.961 . S
H1720 C1704 0.931 . S
H1721 C1709 0.930 . S
H1722 C1710 0.956 . S
H1723 C1710 0.961 . S
H1724 C1710 0.961 . S
H1725 C1711 0.958 . S
H1726 C1711 0.961 . S
H1727 C1711 0.960 . S
C1728 C1729 1.391 . S
C1728 C1730 1.394 . S
C1728 H1744 0.931 . S
C1729 C1728 1.391 . S
C1729 C1733 1.376 . S
C1730 C1728 1.394 . S
C1730 C1731 1.369 . S
C1730 C1734 1.531 . S
C1731 C1730 1.369 . S
C1731 C1732 1.410 . S
C1731 C1739 1.503 . S
C1732 C1731 1.410 . S
C1732 C1733 1.392 . S
C1732 C1735 1.511 . S
C1733 C1729 1.376 . S
C1733 C1732 1.392 . S
C1733 H1745 0.929 . S
C1734 C1730 1.531 . S
C1734 H1746 0.960 . S
C1734 H1747 0.962 . S
C1734 H1748 0.960 . S
C1735 C1732 1.511 . S
C1735 H1749 0.961 . S
C1735 H1750 0.961 . S
C1735 H1751 0.961 . S
C1736 C1737 1.370 . S
C1736 C1738 1.363 1_455 S
C1736 H1752 0.931 . S
C1737 C1736 1.370 . S
C1737 C1741 1.408 . S
C1738 C1736 1.363 1_655 S
C1738 C1739 1.370 . S
C1738 C1742 1.524 . S
C1739 C1731 1.503 . S
C1739 C1738 1.370 . S
C1739 C1740 1.403 . S
C1740 C1739 1.403 . S
C1740 C1741 1.404 1_655 S
C1740 C1743 1.539 . S
C1741 C1737 1.408 . S
C1741 C1740 1.404 1_455 S
C1741 H1753 0.930 . S
C1742 C1738 1.524 . S
C1742 H1754 0.956 . S
C1742 H1755 0.961 . S
C1742 H1756 0.961 . S
C1743 C1740 1.539 . S
C1743 H1757 0.958 . S
C1743 H1758 0.961 . S
C1743 H1759 0.960 . S
H1744 C1728 0.931 . S
H1745 C1733 0.929 . S
H1746 C1734 0.960 . S
H1747 C1734 0.962 . S
H1748 C1734 0.960 . S
H1749 C1735 0.961 . S
H1750 C1735 0.961 . S
H1751 C1735 0.961 . S
H1752 C1736 0.931 . S
H1753 C1741 0.930 . S
H1754 C1742 0.956 . S
H1755 C1742 0.961 . S
H1756 C1742 0.961 . S
H1757 C1743 0.958 . S
H1758 C1743 0.961 . S
H1759 C1743 0.960 . S
C1760 C1761 1.391 . S
C1760 C1762 1.394 . S
C1760 H1776 0.931 . S
C1761 C1760 1.391 . S
C1761 C1765 1.376 . S
C1762 C1760 1.394 . S
C1762 C1763 1.369 . S
C1762 C1766 1.531 . S
C1763 C1762 1.369 . S
C1763 C1764 1.410 . S
C1763 C1771 1.503 . S
C1764 C1763 1.410 . S
C1764 C1765 1.392 . S
C1764 C1767 1.511 . S
C1765 C1761 1.376 . S
C1765 C1764 1.392 . S
C1765 H1777 0.929 . S
C1766 C1762 1.531 . S
C1766 H1778 0.960 . S
C1766 H1779 0.962 . S
C1766 H1780 0.960 . S
C1767 C1764 1.511 . S
C1767 H1781 0.961 . S
C1767 H1782 0.961 . S
C1767 H1783 0.961 . S
C1768 C1769 1.370 . S
C1768 C1770 1.363 . S
C1768 H1784 0.944 . S
C1769 C1768 1.370 . S
C1769 C1773 1.408 . S
C1770 C1768 1.363 . S
C1770 C1771 1.370 . S
C1770 C1774 1.524 . S
C1771 C1763 1.503 . S
C1771 C1770 1.370 . S
C1771 C1772 1.403 . S
C1772 C1771 1.403 . S
C1772 C1773 1.404 . S
C1772 C1775 1.539 . S
C1773 C1769 1.408 . S
C1773 C1772 1.404 . S
C1773 H1785 0.930 . S
C1774 C1770 1.524 . S
C1774 H1786 0.956 . S
C1774 H1787 0.961 . S
C1774 H1788 0.961 . S
C1775 C1772 1.539 . S
C1775 H1789 0.958 . S
C1775 H1790 0.961 . S
C1775 H1791 0.960 . S
H1776 C1760 0.931 . S
H1777 C1765 0.929 . S
H1778 C1766 0.960 . S
H1779 C1766 0.962 . S
H1780 C1766 0.960 . S
H1781 C1767 0.961 . S
H1782 C1767 0.961 . S
H1783 C1767 0.961 . S
H1784 C1768 0.944 . S
H1785 C1773 0.930 . S
H1786 C1774 0.956 . S
H1787 C1774 0.961 . S
H1788 C1774 0.961 . S
H1789 C1775 0.958 . S
H1790 C1775 0.961 . S
H1791 C1775 0.960 . S
C1792 C1793 1.391 1_545 S
C1792 C1794 1.394 . S
C1792 H1808 0.936 1_545 S
C1793 C1792 1.391 1_565 S
C1793 C1797 1.376 . S
C1794 C1792 1.394 . S
C1794 C1795 1.369 . S
C1794 C1798 1.531 . S
C1795 C1794 1.369 . S
C1795 C1796 1.410 . S
C1795 C1803 1.503 . S
C1796 C1795 1.410 . S
C1796 C1797 1.392 1_545 S
C1796 C1799 1.511 . S
C1797 C1793 1.376 . S
C1797 C1796 1.392 1_565 S
C1797 H1809 0.929 . S
C1798 C1794 1.531 . S
C1798 H1810 0.960 . S
C1798 H1811 0.962 . S
C1798 H1812 0.960 . S
C1799 C1796 1.511 . S
C1799 H1813 0.968 . S
C1799 H1814 0.961 . S
C1799 H1815 0.961 . S
C1800 C1801 1.370 . S
C1800 C1802 1.363 . S
C1800 H1816 0.931 . S
C1801 C1800 1.370 . S
C1801 C1805 1.408 . S
C1802 C1800 1.363 . S
C1802 C1803 1.370 . S
C1802 C1806 1.524 . S
C1803 C1795 1.503 . S
C1803 C1802 1.370 . S
C1803 C1804 1.403 . S
C1804 C1803 1.403 . S
C1804 C1805 1.404 . S
C1804 C1807 1.539 . S
C1805 C1801 1.408 . S
C1805 C1804 1.404 . S
C1805 H1817 0.929 1_655 S
C1806 C1802 1.524 . S
C1806 H1818 0.956 . S
C1806 H1819 0.961 . S
C1806 H1820 0.961 . S
C1807 C1804 1.539 . S
C1807 H1821 0.958 . S
C1807 H1822 0.961 . S
C1807 H1823 0.960 . S
H1808 C1792 0.936 1_565 S
H1809 C1797 0.929 . S
H1810 C1798 0.960 . S
H1811 C1798 0.962 . S
H1812 C1798 0.960 . S
H1813 C1799 0.968 . S
H1814 C1799 0.961 . S
H1815 C1799 0.961 . S
H1816 C1800 0.931 . S
H1817 C1805 0.929 1_455 S
H1818 C1806 0.956 . S
H1819 C1806 0.961 . S
H1820 C1806 0.961 . S
H1821 C1807 0.958 . S
H1822 C1807 0.961 . S
H1823 C1807 0.960 . S
C1824 C1825 1.391 . S
C1824 C1826 1.394 . S
C1824 H1840 0.931 . S
C1825 C1824 1.391 . S
C1825 C1829 1.376 . S
C1826 C1824 1.394 . S
C1826 C1827 1.369 . S
C1826 C1830 1.531 . S
C1827 C1826 1.369 . S
C1827 C1828 1.410 . S
C1827 C1835 1.503 . S
C1828 C1827 1.410 . S
C1828 C1829 1.392 . S
C1828 C1831 1.511 . S
C1829 C1825 1.376 . S
C1829 C1828 1.392 . S
C1829 H1841 0.929 . S
C1830 C1826 1.531 . S
C1830 H1842 0.960 . S
C1830 H1843 0.962 . S
C1830 H1844 0.960 . S
C1831 C1828 1.511 . S
C1831 H1845 0.961 . S
C1831 H1846 0.961 . S
C1831 H1847 0.961 . S
C1832 C1833 1.370 . S
C1832 C1834 1.363 . S
C1832 H1848 0.931 . S
C1833 C1832 1.370 . S
C1833 C1837 1.408 . S
C1834 C1832 1.363 . S
C1834 C1835 1.370 . S
C1834 C1838 1.524 . S
C1835 C1827 1.503 . S
C1835 C1834 1.370 . S
C1835 C1836 1.403 . S
C1836 C1835 1.403 . S
C1836 C1837 1.404 . S
C1836 C1839 1.539 . S
C1837 C1833 1.408 . S
C1837 C1836 1.404 . S
C1837 H1849 0.930 . S
C1838 C1834 1.524 . S
C1838 H1850 0.956 . S
C1838 H1851 0.961 . S
C1838 H1852 0.961 . S
C1839 C1836 1.539 . S
C1839 H1853 0.958 . S
C1839 H1854 0.961 . S
C1839 H1855 0.960 . S
H1840 C1824 0.931 . S
H1841 C1829 0.929 . S
H1842 C1830 0.960 . S
H1843 C1830 0.962 . S
H1844 C1830 0.960 . S
H1845 C1831 0.961 . S
H1846 C1831 0.961 . S
H1847 C1831 0.961 . S
H1848 C1832 0.931 . S
H1849 C1837 0.930 . S
H1850 C1838 0.956 . S
H1851 C1838 0.961 . S
H1852 C1838 0.961 . S
H1853 C1839 0.958 . S
H1854 C1839 0.961 . S
H1855 C1839 0.960 . S
C1856 C1857 1.391 . S
C1856 C1858 1.394 . S
C1856 H1872 0.931 . S
C1857 C1856 1.391 . S
C1857 C1861 1.376 . S
C1858 C1856 1.394 . S
C1858 C1859 1.369 . S
C1858 C1862 1.531 . S
C1859 C1858 1.369 . S
C1859 C1860 1.410 . S
C1859 C1867 1.503 . S
C1860 C1859 1.410 . S
C1860 C1861 1.392 . S
C1860 C1863 1.511 . S
C1861 C1857 1.376 . S
C1861 C1860 1.392 . S
C1861 H1873 0.929 . S
C1862 C1858 1.531 . S
C1862 H1874 0.960 . S
C1862 H1875 0.962 . S
C1862 H1876 0.960 . S
C1863 C1860 1.511 . S
C1863 H1877 0.961 . S
C1863 H1878 0.961 . S
C1863 H1879 0.961 . S
C1864 C1865 1.370 . S
C1864 C1866 1.363 . S
C1864 H1880 0.931 . S
C1865 C1864 1.370 . S
C1865 C1869 1.408 . S
C1866 C1864 1.363 . S
C1866 C1867 1.370 . S
C1866 C1870 1.524 . S
C1867 C1859 1.503 . S
C1867 C1866 1.370 . S
C1867 C1868 1.403 . S
C1868 C1867 1.403 . S
C1868 C1869 1.404 . S
C1868 C1871 1.539 . S
C1869 C1865 1.408 . S
C1869 C1868 1.404 . S
C1869 H1881 0.930 . S
C1870 C1866 1.524 . S
C1870 H1882 0.956 . S
C1870 H1883 0.961 . S
C1870 H1884 0.961 . S
C1871 C1868 1.539 . S
C1871 H1885 0.958 . S
C1871 H1886 0.961 . S
C1871 H1887 0.960 . S
H1872 C1856 0.931 . S
H1873 C1861 0.929 . S
H1874 C1862 0.960 . S
H1875 C1862 0.962 . S
H1876 C1862 0.960 . S
H1877 C1863 0.961 . S
H1878 C1863 0.961 . S
H1879 C1863 0.961 . S
H1880 C1864 0.931 . S
H1881 C1869 0.930 . S
H1882 C1870 0.956 . S
H1883 C1870 0.961 . S
H1884 C1870 0.961 . S
H1885 C1871 0.958 . S
H1886 C1871 0.961 . S
H1887 C1871 0.960 . S
C1888 C1889 1.391 . S
C1888 C1890 1.394 . S
C1888 H1904 0.931 . S
C1889 C1888 1.391 . S
C1889 C1893 1.376 . S
C1890 C1888 1.394 . S
C1890 C1891 1.369 . S
C1890 C1894 1.531 . S
C1891 C1890 1.369 . S
C1891 C1892 1.410 . S
C1891 C1899 1.503 . S
C1892 C1891 1.410 . S
C1892 C1893 1.392 . S
C1892 C1895 1.511 . S
C1893 C1889 1.376 . S
C1893 C1892 1.392 . S
C1893 H1905 0.929 . S
C1894 C1890 1.531 . S
C1894 H1906 0.960 . S
C1894 H1907 0.962 . S
C1894 H1908 0.960 . S
C1895 C1892 1.511 . S
C1895 H1909 0.961 . S
C1895 H1910 0.961 . S
C1895 H1911 0.961 . S
C1896 C1897 1.370 . S
C1896 C1898 1.363 . S
C1896 H1912 0.931 . S
C1897 C1896 1.370 . S
C1897 C1901 1.408 . S
C1898 C1896 1.363 . S
C1898 C1899 1.370 . S
C1898 C1902 1.524 . S
C1899 C1891 1.503 . S
C1899 C1898 1.370 . S
C1899 C1900 1.403 . S
C1900 C1899 1.403 . S
C1900 C1901 1.404 . S
C1900 C1903 1.539 . S
C1901 C1897 1.408 . S
C1901 C1900 1.404 . S
C1901 H1913 0.930 . S
C1902 C1898 1.524 . S
C1902 H1914 0.956 . S
C1902 H1915 0.961 . S
C1902 H1916 0.961 . S
C1903 C1900 1.539 . S
C1903 H1917 0.958 . S
C1903 H1918 0.961 . S
C1903 H1919 0.960 . S
H1904 C1888 0.931 . S
H1905 C1893 0.929 . S
H1906 C1894 0.960 . S
H1907 C1894 0.962 . S
H1908 C1894 0.960 . S
H1909 C1895 0.961 . S
H1910 C1895 0.961 . S
H1911 C1895 0.961 . S
H1912 C1896 0.931 . S
H1913 C1901 0.930 . S
H1914 C1902 0.956 . S
H1915 C1902 0.961 . S
H1916 C1902 0.961 . S
H1917 C1903 0.958 . S
H1918 C1903 0.961 . S
H1919 C1903 0.960 . S
C1920 C1921 1.391 . S
C1920 C1922 1.394 . S
C1920 H1936 0.931 . S
C1921 C1920 1.391 . S
C1921 C1925 1.376 . S
C1922 C1920 1.394 . S
C1922 C1923 1.369 . S
C1922 C1926 1.531 . S
C1923 C1922 1.369 . S
C1923 C1924 1.410 . S
C1923 C1931 1.503 . S
C1924 C1923 1.410 . S
C1924 C1925 1.392 . S
C1924 C1927 1.511 . S
C1925 C1921 1.376 . S
C1925 C1924 1.392 . S
C1925 H1937 0.929 . S
C1926 C1922 1.531 . S
C1926 H1938 0.960 . S
C1926 H1939 0.962 . S
C1926 H1940 0.960 . S
C1927 C1924 1.511 . S
C1927 H1941 0.961 . S
C1927 H1942 0.961 . S
C1927 H1943 0.961 . S
C1928 C1929 1.370 . S
C1928 C1930 1.363 . S
C1928 H1944 0.931 . S
C1929 C1928 1.370 . S
C1929 C1933 1.408 . S
C1930 C1928 1.363 . S
C1930 C1931 1.370 . S
C1930 C1934 1.524 . S
C1931 C1923 1.503 . S
C1931 C1930 1.370 . S
C1931 C1932 1.403 . S
C1932 C1931 1.403 . S
C1932 C1933 1.404 . S
C1932 C1935 1.539 . S
C1933 C1929 1.408 . S
C1933 C1932 1.404 . S
C1933 H1945 0.930 . S
C1934 C1930 1.524 . S
C1934 H1946 0.956 . S
C1934 H1947 0.961 . S
C1934 H1948 0.961 . S
C1935 C1932 1.539 . S
C1935 H1949 0.958 . S
C1935 H1950 0.961 . S
C1935 H1951 0.960 . S
H1936 C1920 0.931 . S
H1937 C1925 0.929 . S
H1938 C1926 0.960 . S
H1939 C1926 0.962 . S
H1940 C1926 0.960 . S
H1941 C1927 0.961 . S
H1942 C1927 0.961 . S
H1943 C1927 0.961 . S
H1944 C1928 0.931 . S
H1945 C1933 0.930 . S
H1946 C1934 0.956 . S
H1947 C1934 0.961 . S
H1948 C1934 0.961 . S
H1949 C1935 0.958 . S
H1950 C1935 0.961 . S
H1951 C1935 0.960 . S
C1952 C1953 1.391 . S
C1952 C1954 1.394 . S
C1952 H1968 0.931 . S
C1953 C1952 1.391 . S
C1953 C1957 1.376 . S
C1954 C1952 1.394 . S
C1954 C1955 1.369 . S
C1954 C1958 1.531 . S
C1955 C1954 1.369 . S
C1955 C1956 1.410 . S
C1955 C1963 1.503 . S
C1956 C1955 1.410 . S
C1956 C1957 1.392 . S
C1956 C1959 1.511 . S
C1957 C1953 1.376 . S
C1957 C1956 1.392 . S
C1957 H1969 0.929 . S
C1958 C1954 1.531 . S
C1958 H1970 0.960 . S
C1958 H1971 0.962 . S
C1958 H1972 0.960 . S
C1959 C1956 1.511 . S
C1959 H1973 0.961 . S
C1959 H1974 0.961 . S
C1959 H1975 0.961 . S
C1960 C1961 1.370 . S
C1960 C1962 1.363 . S
C1960 H1976 0.931 . S
C1961 C1960 1.370 . S
C1961 C1965 1.408 . S
C1962 C1960 1.363 . S
C1962 C1963 1.370 . S
C1962 C1966 1.524 . S
C1963 C1955 1.503 . S
C1963 C1962 1.370 . S
C1963 C1964 1.403 . S
C1964 C1963 1.403 . S
C1964 C1965 1.404 . S
C1964 C1967 1.539 . S
C1965 C1961 1.408 . S
C1965 C1964 1.404 . S
C1965 H1977 0.930 . S
C1966 C1962 1.524 . S
C1966 H1978 0.956 . S
C1966 H1979 0.961 . S
C1966 H1980 0.961 . S
C1967 C1964 1.539 . S
C1967 H1981 0.958 . S
C1967 H1982 0.961 . S
C1967 H1983 0.960 . S
H1968 C1952 0.931 . S
H1969 C1957 0.929 . S
H1970 C1958 0.960 . S
H1971 C1958 0.962 . S
H1972 C1958 0.960 . S
H1973 C1959 0.961 . S
H1974 C1959 0.961 . S
H1975 C1959 0.961 . S
H1976 C1960 0.931 . S
H1977 C1965 0.930 . S
H1978 C1966 0.956 . S
H1979 C1966 0.961 . S
H1980 C1966 0.961 . S
H1981 C1967 0.958 . S
H1982 C1967 0.961 . S
H1983 C1967 0.960 . S
C1984 C1985 1.391 . S
C1984 C1986 1.394 . S
C1984 H2000 0.931 . S
C1985 C1984 1.391 . S
C1985 C1989 1.376 . S
C1986 C1984 1.394 . S
C1986 C1987 1.369 . S
C1986 C1990 1.531 . S
C1987 C1986 1.369 . S
C1987 C1988 1.410 . S
C1987 C1995 1.503 . S
C1988 C1987 1.410 . S
C1988 C1989 1.392 . S
C1988 C1991 1.511 . S
C1989 C1985 1.376 . S
C1989 C1988 1.392 . S
C1989 H2001 0.929 . S
C1990 C1986 1.531 . S
C1990 H2002 0.960 . S
C1990 H2003 0.962 . S
C1990 H2004 0.960 . S
C1991 C1988 1.511 . S
C1991 H2005 0.961 . S
C1991 H2006 0.961 . S
C1991 H2007 0.961 . S
C1992 C1993 1.370 . S
C1992 C1994 1.363 . S
C1992 H2008 0.931 . S
C1993 C1992 1.370 . S
C1993 C1997 1.408 . S
C1994 C1992 1.363 . S
C1994 C1995 1.370 . S
C1994 C1998 1.524 . S
C1995 C1987 1.503 . S
C1995 C1994 1.370 . S
C1995 C1996 1.403 . S
C1996 C1995 1.403 . S
C1996 C1997 1.404 . S
C1996 C1999 1.539 . S
C1997 C1993 1.408 . S
C1997 C1996 1.404 . S
C1997 H2009 0.930 . S
C1998 C1994 1.524 . S
C1998 H2010 0.956 . S
C1998 H2011 0.961 . S
C1998 H2012 0.961 . S
C1999 C1996 1.539 . S
C1999 H2013 0.958 . S
C1999 H2014 0.961 . S
C1999 H2015 0.960 . S
H2000 C1984 0.931 . S
H2001 C1989 0.929 . S
H2002 C1990 0.960 . S
H2003 C1990 0.962 . S
H2004 C1990 0.960 . S
H2005 C1991 0.961 . S
H2006 C1991 0.961 . S
H2007 C1991 0.961 . S
H2008 C1992 0.931 . S
H2009 C1997 0.930 . S
H2010 C1998 0.956 . S
H2011 C1998 0.961 . S
H2012 C1998 0.961 . S
H2013 C1999 0.958 . S
H2014 C1999 0.961 . S
H2015 C1999 0.960 . S
C2016 C2017 1.391 . S
C2016 C2018 1.394 . S
C2016 H2032 0.931 . S
C2017 C2016 1.391 . S
C2017 C2021 1.376 . S
C2018 C2016 1.394 . S
C2018 C2019 1.369 . S
C2018 C2022 1.531 . S
C2019 C2018 1.369 . S
C2019 C2020 1.410 . S
C2019 C2027 1.503 . S
C2020 C2019 1.410 . S
C2020 C2021 1.392 . S
C2020 C2023 1.511 . S
C2021 C2017 1.376 . S
C2021 C2020 1.392 . S
C2021 H2033 0.929 . S
C2022 C2018 1.531 . S
C2022 H2034 0.960 . S
C2022 H2035 0.962 . S
C2022 H2036 0.960 . S
C2023 C2020 1.511 . S
C2023 H2037 0.961 . S
C2023 H2038 0.961 . S
C2023 H2039 0.961 . S
C2024 C2025 1.370 . S
C2024 C2026 1.363 . S
C2024 H2040 0.931 . S
C2025 C2024 1.370 . S
C2025 C2029 1.408 . S
C2026 C2024 1.363 . S
C2026 C2027 1.370 . S
C2026 C2030 1.524 . S
C2027 C2019 1.503 . S
C2027 C2026 1.370 . S
C2027 C2028 1.403 . S
C2028 C2027 1.403 . S
C2028 C2029 1.404 . S
C2028 C2031 1.539 . S
C2029 C2025 1.408 . S
C2029 C2028 1.404 . S
C2029 H2041 0.930 . S
C2030 C2026 1.524 . S
C2030 H2042 0.956 . S
C2030 H2043 0.961 . S
C2030 H2044 0.961 . S
C2031 C2028 1.539 . S
C2031 H2045 0.958 . S
C2031 H2046 0.961 . S
C2031 H2047 0.960 . S
H2032 C2016 0.931 . S
H2033 C2021 0.929 . S
H2034 C2022 0.960 . S
H2035 C2022 0.962 . S
H2036 C2022 0.960 . S
H2037 C2023 0.961 . S
H2038 C2023 0.961 . S
H2039 C2023 0.961 . S
H2040 C2024 0.931 . S
H2041 C2029 0.930 . S
H2042 C2030 0.956 . S
H2043 C2030 0.961 . S
H2044 C2030 0.961 . S
H2045 C2031 0.958 . S
H2046 C2031 0.961 . S
H2047 C2031 0.960 . S
C2048 C2049 1.391 . S
C2048 C2050 1.394 . S
C2048 H2064 0.931 . S
C2049 C2048 1.391 . S
C2049 C2053 1.376 . S
C2050 C2048 1.394 . S
C2050 C2051 1.369 . S
C2050 C2054 1.531 . S
C2051 C2050 1.369 . S
C2051 C2052 1.410 . S
C2051 C2059 1.503 . S
C2052 C2051 1.410 . S
C2052 C2053 1.392 . S
C2052 C2055 1.511 . S
C2053 C2049 1.376 . S
C2053 C2052 1.392 . S
C2053 H2065 0.929 . S
C2054 C2050 1.531 . S
C2054 H2066 0.960 . S
C2054 H2067 0.962 . S
C2054 H2068 0.960 . S
C2055 C2052 1.511 . S
C2055 H2069 0.961 . S
C2055 H2070 0.961 . S
C2055 H2071 0.961 . S
C2056 C2057 1.370 . S
C2056 C2058 1.363 . S
C2056 H2072 0.931 . S
C2057 C2056 1.370 . S
C2057 C2061 1.408 . S
C2058 C2056 1.363 . S
C2058 C2059 1.370 . S
C2058 C2062 1.524 . S
C2059 C2051 1.503 . S
C2059 C2058 1.370 . S
C2059 C2060 1.403 . S
C2060 C2059 1.403 . S
C2060 C2061 1.404 . S
C2060 C2063 1.539 . S
C2061 C2057 1.408 . S
C2061 C2060 1.404 . S
C2061 H2073 0.930 . S
C2062 C2058 1.524 . S
C2062 H2074 0.956 . S
C2062 H2075 0.961 . S
C2062 H2076 0.961 . S
C2063 C2060 1.539 . S
C2063 H2077 0.958 . S
C2063 H2078 0.961 . S
C2063 H2079 0.960 . S
H2064 C2048 0.931 . S
H2065 C2053 0.929 . S
H2066 C2054 0.960 . S
H2067 C2054 0.962 . S
H2068 C2054 0.960 . S
H2069 C2055 0.961 . S
H2070 C2055 0.961 . S
H2071 C2055 0.961 . S
H2072 C2056 0.931 . S
H2073 C2061 0.930 . S
H2074 C2062 0.956 . S
H2075 C2062 0.961 . S
H2076 C2062 0.961 . S
H2077 C2063 0.958 . S
H2078 C2063 0.961 . S
H2079 C2063 0.960 . S
C2080 C2081 1.391 . S
C2080 C2082 1.394 . S
C2080 H2096 0.931 . S
C2081 C2080 1.391 . S
C2081 C2085 1.376 . S
C2082 C2080 1.394 . S
C2082 C2083 1.369 . S
C2082 C2086 1.531 . S
C2083 C2082 1.369 . S
C2083 C2084 1.410 . S
C2083 C2091 1.503 . S
C2084 C2083 1.410 . S
C2084 C2085 1.392 . S
C2084 C2087 1.511 . S
C2085 C2081 1.376 . S
C2085 C2084 1.392 . S
C2085 H2097 0.929 . S
C2086 C2082 1.531 . S
C2086 H2098 0.960 . S
C2086 H2099 0.962 . S
C2086 H2100 0.960 . S
C2087 C2084 1.511 . S
C2087 H2101 0.961 . S
C2087 H2102 0.961 . S
C2087 H2103 0.961 . S
C2088 C2089 1.370 . S
C2088 C2090 1.363 . S
C2088 H2104 0.931 . S
C2089 C2088 1.370 . S
C2089 C2093 1.408 . S
C2090 C2088 1.363 . S
C2090 C2091 1.370 . S
C2090 C2094 1.524 . S
C2091 C2083 1.503 . S
C2091 C2090 1.370 . S
C2091 C2092 1.403 . S
C2092 C2091 1.403 . S
C2092 C2093 1.404 . S
C2092 C2095 1.539 . S
C2093 C2089 1.408 . S
C2093 C2092 1.404 . S
C2093 H2105 0.930 . S
C2094 C2090 1.524 . S
C2094 H2106 0.956 . S
C2094 H2107 0.961 . S
C2094 H2108 0.961 . S
C2095 C2092 1.539 . S
C2095 H2109 0.958 . S
C2095 H2110 0.961 . S
C2095 H2111 0.960 . S
H2096 C2080 0.931 . S
H2097 C2085 0.929 . S
H2098 C2086 0.960 . S
H2099 C2086 0.962 . S
H2100 C2086 0.960 . S
H2101 C2087 0.961 . S
H2102 C2087 0.961 . S
H2103 C2087 0.961 . S
H2104 C2088 0.931 . S
H2105 C2093 0.930 . S
H2106 C2094 0.956 . S
H2107 C2094 0.961 . S
H2108 C2094 0.961 . S
H2109 C2095 0.958 . S
H2110 C2095 0.961 . S
H2111 C2095 0.960 . S
C2112 C2113 1.391 . S
C2112 C2114 1.394 . S
C2112 H2128 0.931 . S
C2113 C2112 1.391 . S
C2113 C2117 1.376 1_554 S
C2114 C2112 1.394 . S
C2114 C2115 1.369 . S
C2114 C2118 1.531 . S
C2115 C2114 1.369 . S
C2115 C2116 1.410 1_554 S
C2115 C2123 1.503 . S
C2116 C2115 1.410 1_556 S
C2116 C2117 1.392 . S
C2116 C2119 1.511 . S
C2117 C2113 1.376 1_556 S
C2117 C2116 1.392 . S
C2117 H2129 0.929 . S
C2118 C2114 1.531 . S
C2118 H2130 0.960 . S
C2118 H2131 0.962 . S
C2118 H2132 0.960 . S
C2119 C2116 1.511 . S
C2119 H2133 0.961 . S
C2119 H2134 0.961 . S
C2119 H2135 0.961 . S
C2120 C2121 1.444 . S
C2120 C2122 1.363 . S
C2120 H2136 0.931 . S
C2121 C2120 1.444 . S
C2121 C2125 1.342 1_554 S
C2122 C2120 1.363 . S
C2122 C2123 1.370 . S
C2122 C2126 1.524 . S
C2123 C2115 1.503 . S
C2123 C2122 1.370 . S
C2123 C2124 1.403 1_554 S
C2124 C2123 1.403 1_556 S
C2124 C2125 1.404 . S
C2124 C2127 1.539 . S
C2125 C2121 1.342 1_556 S
C2125 C2124 1.404 . S
C2125 H2137 0.930 . S
C2126 C2122 1.524 . S
C2126 H2138 0.956 . S
C2126 H2139 0.961 . S
C2126 H2140 0.961 . S
C2127 C2124 1.539 . S
C2127 H2141 0.958 . S
C2127 H2142 0.961 . S
C2127 H2143 0.960 . S
H2128 C2112 0.931 . S
H2129 C2117 0.929 . S
H2130 C2118 0.960 . S
H2131 C2118 0.962 . S
H2132 C2118 0.960 . S
H2133 C2119 0.961 . S
H2134 C2119 0.961 . S
H2135 C2119 0.961 . S
H2136 C2120 0.931 . S
H2137 C2125 0.930 . S
H2138 C2126 0.956 . S
H2139 C2126 0.961 . S
H2140 C2126 0.961 . S
H2141 C2127 0.958 . S
H2142 C2127 0.961 . S
H2143 C2127 0.960 . S
C2144 C2145 1.391 . S
C2144 C2146 1.394 . S
C2144 H2160 0.931 . S
C2145 C2144 1.391 . S
C2145 C2149 1.376 1_554 S
C2146 C2144 1.394 . S
C2146 C2147 1.369 . S
C2146 C2150 1.531 . S
C2147 C2146 1.369 . S
C2147 C2148 1.367 1_554 S
C2147 C2155 1.503 . S
C2148 C2147 1.367 1_556 S
C2148 C2149 1.405 . S
C2148 C2151 1.549 . S
C2149 C2145 1.376 1_556 S
C2149 C2148 1.405 . S
C2149 H2161 0.929 . S
C2150 C2146 1.531 . S
C2150 H2162 0.960 . S
C2150 H2163 0.962 . S
C2150 H2164 0.960 . S
C2151 C2148 1.549 . S
C2151 H2165 0.961 . S
C2151 H2166 0.961 . S
C2151 H2167 0.981 . S
C2152 C2153 1.370 1_556 S
C2152 C2154 1.363 . S
C2152 H2168 0.931 . S
C2153 C2152 1.370 1_554 S
C2153 C2157 1.408 . S
C2154 C2152 1.363 . S
C2154 C2155 1.370 1_556 S
C2154 C2158 1.524 . S
C2155 C2147 1.503 . S
C2155 C2154 1.370 1_554 S
C2155 C2156 1.403 . S
C2156 C2155 1.403 . S
C2156 C2157 1.404 . S
C2156 C2159 1.539 . S
C2157 C2153 1.408 . S
C2157 C2156 1.404 . S
C2157 H2169 0.930 . S
C2158 C2154 1.524 . S
C2158 H2170 0.956 . S
C2158 H2171 0.961 . S
C2158 H2172 0.961 . S
C2159 C2156 1.539 . S
C2159 H2173 0.958 . S
C2159 H2174 0.961 . S
C2159 H2175 0.960 . S
H2160 C2144 0.931 . S
H2161 C2149 0.929 . S
H2162 C2150 0.960 . S
H2163 C2150 0.962 . S
H2164 C2150 0.960 . S
H2165 C2151 0.961 . S
H2166 C2151 0.961 . S
H2167 C2151 0.981 . S
H2168 C2152 0.931 . S
H2169 C2157 0.930 . S
H2170 C2158 0.956 . S
H2171 C2158 0.961 . S
H2172 C2158 0.961 . S
H2173 C2159 0.958 . S
H2174 C2159 0.961 . S
H2175 C2159 0.960 . S
C2176 C2177 1.391 . S
C2176 C2178 1.394 . S
C2176 H2192 0.931 . S
C2177 C2176 1.391 . S
C2177 C2181 1.376 1_554 S
C2178 C2176 1.394 . S
C2178 C2179 1.369 . S
C2178 C2182 1.531 . S
C2179 C2178 1.369 . S
C2179 C2180 1.410 1_554 S
C2179 C2187 1.503 . S
C2180 C2179 1.410 1_556 S
C2180 C2181 1.392 . S
C2180 C2183 1.511 . S
C2181 C2177 1.376 1_556 S
C2181 C2180 1.392 . S
C2181 H2193 0.929 . S
C2182 C2178 1.531 . S
C2182 H2194 0.960 . S
C2182 H2195 0.962 . S
C2182 H2196 0.960 . S
C2183 C2180 1.511 . S
C2183 H2197 0.961 . S
C2183 H2198 0.961 . S
C2183 H2199 0.961 . S
C2184 C2185 1.343 1_556 S
C2184 C2186 1.360 . S
C2184 H2200 0.984 . S
C2185 C2184 1.343 1_554 S
C2185 C2189 1.408 . S
C2186 C2184 1.360 . S
C2186 C2187 1.354 1_556 S
C2186 C2190 1.539 . S
C2187 C2179 1.503 . S
C2187 C2186 1.354 1_554 S
C2187 C2188 1.403 . S
C2188 C2187 1.403 . S
C2188 C2189 1.404 . S
C2188 C2191 1.539 . S
C2189 C2185 1.408 . S
C2189 C2188 1.404 . S
C2189 H2201 0.930 . S
C2190 C2186 1.539 . S
C2190 H2202 0.956 1_556 S
C2190 H2203 0.961 . S
C2190 H2204 0.961 . S
C2191 C2188 1.539 . S
C2191 H2205 0.958 . S
C2191 H2206 0.961 . S
C2191 H2207 0.960 . S
H2192 C2176 0.931 . S
H2193 C2181 0.929 . S
H2194 C2182 0.960 . S
H2195 C2182 0.962 . S
H2196 C2182 0.960 . S
H2197 C2183 0.961 . S
H2198 C2183 0.961 . S
H2199 C2183 0.961 . S
H2200 C2184 0.984 . S
H2201 C2189 0.930 . S
H2202 C2190 0.956 1_554 S
H2203 C2190 0.961 . S
H2204 C2190 0.961 . S
H2205 C2191 0.958 . S
H2206 C2191 0.961 . S
H2207 C2191 0.960 . S
C2208 C2209 1.391 . S
C2208 C2210 1.394 . S
C2208 H2224 0.931 . S
C2209 C2208 1.391 . S
C2209 C2213 1.376 . S
C2210 C2208 1.394 . S
C2210 C2211 1.369 . S
C2210 C2214 1.531 . S
C2211 C2210 1.369 . S
C2211 C2212 1.410 . S
C2211 C2219 1.503 . S
C2212 C2211 1.410 . S
C2212 C2213 1.392 . S
C2212 C2215 1.511 . S
C2213 C2209 1.376 . S
C2213 C2212 1.392 . S
C2213 H2225 0.929 . S
C2214 C2210 1.531 . S
C2214 H2226 0.960 . S
C2214 H2227 0.962 . S
C2214 H2228 0.960 . S
C2215 C2212 1.511 . S
C2215 H2229 0.961 . S
C2215 H2230 0.961 . S
C2215 H2231 0.961 . S
C2216 C2217 1.370 . S
C2216 C2218 1.363 . S
C2216 H2232 0.931 . S
C2217 C2216 1.370 . S
C2217 C2221 1.408 . S
C2218 C2216 1.363 . S
C2218 C2219 1.370 . S
C2218 C2222 1.524 . S
C2219 C2211 1.503 . S
C2219 C2218 1.370 . S
C2219 C2220 1.403 . S
C2220 C2219 1.403 . S
C2220 C2221 1.404 . S
C2220 C2223 1.539 . S
C2221 C2217 1.408 . S
C2221 C2220 1.404 . S
C2221 H2233 0.930 . S
C2222 C2218 1.524 . S
C2222 H2234 0.956 . S
C2222 H2235 0.961 . S
C2222 H2236 0.961 . S
C2223 C2220 1.539 . S
C2223 H2237 0.958 . S
C2223 H2238 0.961 . S
C2223 H2239 0.960 . S
H2224 C2208 0.931 . S
H2225 C2213 0.929 . S
H2226 C2214 0.960 . S
H2227 C2214 0.962 . S
H2228 C2214 0.960 . S
H2229 C2215 0.961 . S
H2230 C2215 0.961 . S
H2231 C2215 0.961 . S
H2232 C2216 0.931 . S
H2233 C2221 0.930 . S
H2234 C2222 0.956 . S
H2235 C2222 0.961 . S
H2236 C2222 0.961 . S
H2237 C2223 0.958 . S
H2238 C2223 0.961 . S
H2239 C2223 0.960 . S
C2240 C2241 1.391 . S
C2240 C2242 1.394 . S
C2240 H2256 0.931 . S
C2241 C2240 1.391 . S
C2241 C2245 1.376 . S
C2242 C2240 1.394 . S
C2242 C2243 1.369 . S
C2242 C2246 1.531 . S
C2243 C2242 1.369 . S
C2243 C2244 1.410 . S
C2243 C2251 1.503 . S
C2244 C2243 1.410 . S
C2244 C2245 1.392 . S
C2244 C2247 1.511 . S
C2245 C2241 1.376 . S
C2245 C2244 1.392 . S
C2245 H2257 0.929 . S
C2246 C2242 1.531 . S
C2246 H2258 0.960 . S
C2246 H2259 0.962 . S
C2246 H2260 0.960 . S
C2247 C2244 1.511 . S
C2247 H2261 0.961 . S
C2247 H2262 0.961 . S
C2247 H2263 0.961 . S
C2248 C2249 1.370 . S
C2248 C2250 1.363 . S
C2248 H2264 0.931 . S
C2249 C2248 1.370 . S
C2249 C2253 1.408 . S
C2250 C2248 1.363 . S
C2250 C2251 1.370 . S
C2250 C2254 1.524 . S
C2251 C2243 1.503 . S
C2251 C2250 1.370 . S
C2251 C2252 1.403 . S
C2252 C2251 1.403 . S
C2252 C2253 1.404 . S
C2252 C2255 1.539 . S
C2253 C2249 1.408 . S
C2253 C2252 1.404 . S
C2253 H2265 0.930 . S
C2254 C2250 1.524 . S
C2254 H2266 0.956 . S
C2254 H2267 0.961 . S
C2254 H2268 0.961 . S
C2255 C2252 1.539 . S
C2255 H2269 0.958 . S
C2255 H2270 0.961 . S
C2255 H2271 0.960 . S
H2256 C2240 0.931 . S
H2257 C2245 0.929 . S
H2258 C2246 0.960 . S
H2259 C2246 0.962 . S
H2260 C2246 0.960 . S
H2261 C2247 0.961 . S
H2262 C2247 0.961 . S
H2263 C2247 0.961 . S
H2264 C2248 0.931 . S
H2265 C2253 0.930 . S
H2266 C2254 0.956 . S
H2267 C2254 0.961 . S
H2268 C2254 0.961 . S
H2269 C2255 0.958 . S
H2270 C2255 0.961 . S
H2271 C2255 0.960 . S
C2272 C2273 1.391 . S
C2272 C2274 1.394 . S
C2272 H2288 0.931 . S
C2273 C2272 1.391 . S
C2273 C2277 1.376 . S
C2274 C2272 1.394 . S
C2274 C2275 1.369 . S
C2274 C2278 1.531 . S
C2275 C2274 1.369 . S
C2275 C2276 1.410 . S
C2275 C2283 1.503 . S
C2276 C2275 1.410 . S
C2276 C2277 1.392 . S
C2276 C2279 1.511 . S
C2277 C2273 1.376 . S
C2277 C2276 1.392 . S
C2277 H2289 0.929 . S
C2278 C2274 1.531 . S
C2278 H2290 0.960 . S
C2278 H2291 0.962 . S
C2278 H2292 0.960 . S
C2279 C2276 1.511 . S
C2279 H2293 0.961 . S
C2279 H2294 0.961 . S
C2279 H2295 0.961 . S
C2280 C2281 1.370 . S
C2280 C2282 1.363 . S
C2280 H2296 0.931 . S
C2281 C2280 1.370 . S
C2281 C2285 1.408 . S
C2282 C2280 1.363 . S
C2282 C2283 1.370 . S
C2282 C2286 1.524 . S
C2283 C2275 1.503 . S
C2283 C2282 1.370 . S
C2283 C2284 1.403 . S
C2284 C2283 1.403 . S
C2284 C2285 1.404 . S
C2284 C2287 1.539 . S
C2285 C2281 1.408 . S
C2285 C2284 1.404 . S
C2285 H2297 0.930 . S
C2286 C2282 1.524 . S
C2286 H2298 0.956 . S
C2286 H2299 0.961 . S
C2286 H2300 0.961 . S
C2287 C2284 1.539 . S
C2287 H2301 0.958 . S
C2287 H2302 0.961 . S
C2287 H2303 0.960 . S
H2288 C2272 0.931 . S
H2289 C2277 0.929 . S
H2290 C2278 0.960 . S
H2291 C2278 0.962 . S
H2292 C2278 0.960 . S
H2293 C2279 0.961 . S
H2294 C2279 0.961 . S
H2295 C2279 0.961 . S
H2296 C2280 0.931 . S
H2297 C2285 0.930 . S
H2298 C2286 0.956 . S
H2299 C2286 0.961 . S
H2300 C2286 0.961 . S
H2301 C2287 0.958 . S
H2302 C2287 0.961 . S
H2303 C2287 0.960 . S
C2304 C2305 1.404 . S
C2304 C2306 1.406 . S
C2304 H2320 0.902 1_556 S
C2305 C2304 1.404 . S
C2305 C2309 1.376 . S
C2306 C2304 1.406 . S
C2306 C2307 1.369 . S
C2306 C2310 1.535 . S
C2307 C2306 1.369 . S
C2307 C2308 1.410 . S
C2307 C2315 1.503 . S
C2308 C2307 1.410 . S
C2308 C2309 1.392 . S
C2308 C2311 1.511 . S
C2309 C2305 1.376 . S
C2309 C2308 1.392 . S
C2309 H2321 0.929 . S
C2310 C2306 1.535 . S
C2310 H2322 0.975 . S
C2310 H2323 0.937 1_556 S
C2310 H2324 0.967 . S
C2311 C2308 1.511 . S
C2311 H2325 0.961 . S
C2311 H2326 0.961 . S
C2311 H2327 0.961 . S
C2312 C2313 1.370 1_554 S
C2312 C2314 1.363 . S
C2312 H2328 0.931 . S
C2313 C2312 1.370 1_556 S
C2313 C2317 1.408 . S
C2314 C2312 1.363 . S
C2314 C2315 1.370 1_554 S
C2314 C2318 1.524 . S
C2315 C2307 1.503 . S
C2315 C2314 1.370 1_556 S
C2315 C2316 1.403 . S
C2316 C2315 1.403 . S
C2316 C2317 1.404 . S
C2316 C2319 1.539 . S
C2317 C2313 1.408 . S
C2317 C2316 1.404 . S
C2317 H2329 0.930 . S
C2318 C2314 1.524 . S
C2318 H2330 0.956 . S
C2318 H2331 0.961 . S
C2318 H2332 0.961 . S
C2319 C2316 1.539 . S
C2319 H2333 0.958 . S
C2319 H2334 0.961 . S
C2319 H2335 0.960 . S
H2320 C2304 0.902 1_554 S
H2321 C2309 0.929 . S
H2322 C2310 0.975 . S
H2323 C2310 0.937 1_554 S
H2324 C2310 0.967 . S
H2325 C2311 0.961 . S
H2326 C2311 0.961 . S
H2327 C2311 0.961 . S
H2328 C2312 0.931 . S
H2329 C2317 0.930 . S
H2330 C2318 0.956 . S
H2331 C2318 0.961 . S
H2332 C2318 0.961 . S
H2333 C2319 0.958 . S
H2334 C2319 0.961 . S
H2335 C2319 0.960 . S
C2336 C2337 1.361 1_554 S
C2336 C2338 1.394 . S
C2336 H2352 0.931 . S
C2337 C2336 1.361 1_556 S
C2337 C2341 1.406 . S
C2338 C2336 1.394 . S
C2338 C2339 1.348 1_554 S
C2338 C2342 1.531 . S
C2339 C2338 1.348 1_556 S
C2339 C2340 1.430 . S
C2339 C2347 1.508 . S
C2340 C2339 1.430 . S
C2340 C2341 1.392 . S
C2340 C2343 1.511 . S
C2341 C2337 1.406 . S
C2341 C2340 1.392 . S
C2341 H2353 0.929 . S
C2342 C2338 1.531 . S
C2342 H2354 0.960 . S
C2342 H2355 0.962 . S
C2342 H2356 0.960 . S
C2343 C2340 1.511 . S
C2343 H2357 0.961 . S
C2343 H2358 0.961 . S
C2343 H2359 0.961 . S
C2344 C2345 1.370 . S
C2344 C2346 1.363 . S
C2344 H2360 0.931 . S
C2345 C2344 1.370 . S
C2345 C2349 1.408 1_556 S
C2346 C2344 1.363 . S
C2346 C2347 1.370 . S
C2346 C2350 1.524 . S
C2347 C2339 1.508 . S
C2347 C2346 1.370 . S
C2347 C2348 1.403 1_556 S
C2348 C2347 1.403 1_554 S
C2348 C2349 1.404 . S
C2348 C2351 1.539 . S
C2349 C2345 1.408 1_554 S
C2349 C2348 1.404 . S
C2349 H2361 0.930 . S
C2350 C2346 1.524 . S
C2350 H2362 0.956 . S
C2350 H2363 0.961 . S
C2350 H2364 0.961 . S
C2351 C2348 1.539 . S
C2351 H2365 0.958 . S
C2351 H2366 0.961 . S
C2351 H2367 0.960 . S
H2352 C2336 0.931 . S
H2353 C2341 0.929 . S
H2354 C2342 0.960 . S
H2355 C2342 0.962 . S
H2356 C2342 0.960 . S
H2357 C2343 0.961 . S
H2358 C2343 0.961 . S
H2359 C2343 0.961 . S
H2360 C2344 0.931 . S
H2361 C2349 0.930 . S
H2362 C2350 0.956 . S
H2363 C2350 0.961 . S
H2364 C2350 0.961 . S
H2365 C2351 0.958 . S
H2366 C2351 0.961 . S
H2367 C2351 0.960 . S
C2368 C2369 1.391 1_554 S
C2368 C2370 1.394 . S
C2368 H2384 0.931 . S
C2369 C2368 1.391 1_556 S
C2369 C2373 1.376 . S
C2370 C2368 1.394 . S
C2370 C2371 1.369 1_554 S
C2370 C2374 1.531 . S
C2371 C2370 1.369 1_556 S
C2371 C2372 1.410 . S
C2371 C2379 1.503 . S
C2372 C2371 1.410 . S
C2372 C2373 1.392 . S
C2372 C2375 1.511 . S
C2373 C2369 1.376 . S
C2373 C2372 1.392 . S
C2373 H2385 0.929 . S
C2374 C2370 1.531 . S
C2374 H2386 0.960 . S
C2374 H2387 0.962 . S
C2374 H2388 0.960 . S
C2375 C2372 1.511 . S
C2375 H2389 0.961 . S
C2375 H2390 0.961 . S
C2375 H2391 0.961 . S
C2376 C2377 1.370 1_554 S
C2376 C2378 1.363 . S
C2376 H2392 0.931 . S
C2377 C2376 1.370 1_556 S
C2377 C2381 1.408 . S
C2378 C2376 1.363 . S
C2378 C2379 1.370 1_554 S
C2378 C2382 1.524 . S
C2379 C2371 1.503 . S
C2379 C2378 1.370 1_556 S
C2379 C2380 1.403 . S
C2380 C2379 1.403 . S
C2380 C2381 1.404 . S
C2380 C2383 1.539 . S
C2381 C2377 1.408 . S
C2381 C2380 1.404 . S
C2381 H2393 0.930 . S
C2382 C2378 1.524 . S
C2382 H2394 0.956 . S
C2382 H2395 0.961 . S
C2382 H2396 0.961 . S
C2383 C2380 1.539 . S
C2383 H2397 0.958 . S
C2383 H2398 0.961 . S
C2383 H2399 0.960 . S
H2384 C2368 0.931 . S
H2385 C2373 0.929 . S
H2386 C2374 0.960 . S
H2387 C2374 0.962 . S
H2388 C2374 0.960 . S
H2389 C2375 0.961 . S
H2390 C2375 0.961 . S
H2391 C2375 0.961 . S
H2392 C2376 0.931 . S
H2393 C2381 0.930 . S
H2394 C2382 0.956 . S
H2395 C2382 0.961 . S
H2396 C2382 0.961 . S
H2397 C2383 0.958 . S
H2398 C2383 0.961 . S
H2399 C2383 0.960 . S
C2400 C2401 1.391 . S
C2400 C2402 1.394 . S
C2400 H2416 0.931 . S
C2401 C2400 1.391 . S
C2401 C2405 1.376 . S
C2402 C2400 1.394 . S
C2402 C2403 1.369 . S
C2402 C2406 1.531 . S
C2403 C2402 1.369 . S
C2403 C2404 1.410 . S
C2403 C2411 1.503 . S
C2404 C2403 1.410 . S
C2404 C2405 1.392 . S
C2404 C2407 1.511 . S
C2405 C2401 1.376 . S
C2405 C2404 1.392 . S
C2405 H2417 0.929 . S
C2406 C2402 1.531 . S
C2406 H2418 0.960 . S
C2406 H2419 0.962 . S
C2406 H2420 0.960 . S
C2407 C2404 1.511 . S
C2407 H2421 0.961 . S
C2407 H2422 0.961 . S
C2407 H2423 0.961 . S
C2408 C2409 1.370 . S
C2408 C2410 1.363 . S
C2408 H2424 0.931 . S
C2409 C2408 1.370 . S
C2409 C2413 1.408 . S
C2410 C2408 1.363 . S
C2410 C2411 1.370 . S
C2410 C2414 1.524 . S
C2411 C2403 1.503 . S
C2411 C2410 1.370 . S
C2411 C2412 1.403 . S
C2412 C2411 1.403 . S
C2412 C2413 1.404 . S
C2412 C2415 1.539 . S
C2413 C2409 1.408 . S
C2413 C2412 1.404 . S
C2413 H2425 0.930 . S
C2414 C2410 1.524 . S
C2414 H2426 0.956 . S
C2414 H2427 0.961 . S
C2414 H2428 0.961 . S
C2415 C2412 1.539 . S
C2415 H2429 0.958 . S
C2415 H2430 0.961 . S
C2415 H2431 0.960 . S
H2416 C2400 0.931 . S
H2417 C2405 0.929 . S
H2418 C2406 0.960 . S
H2419 C2406 0.962 . S
H2420 C2406 0.960 . S
H2421 C2407 0.961 . S
H2422 C2407 0.961 . S
H2423 C2407 0.961 . S
H2424 C2408 0.931 . S
H2425 C2413 0.930 . S
H2426 C2414 0.956 . S
H2427 C2414 0.961 . S
H2428 C2414 0.961 . S
H2429 C2415 0.958 . S
H2430 C2415 0.961 . S
H2431 C2415 0.960 . S
C2432 C2433 1.391 . S
C2432 C2434 1.394 . S
C2432 H2448 0.931 . S
C2433 C2432 1.391 . S
C2433 C2437 1.376 . S
C2434 C2432 1.394 . S
C2434 C2435 1.369 . S
C2434 C2438 1.531 . S
C2435 C2434 1.369 . S
C2435 C2436 1.410 . S
C2435 C2443 1.503 . S
C2436 C2435 1.410 . S
C2436 C2437 1.392 . S
C2436 C2439 1.511 . S
C2437 C2433 1.376 . S
C2437 C2436 1.392 . S
C2437 H2449 0.929 . S
C2438 C2434 1.531 . S
C2438 H2450 0.960 . S
C2438 H2451 0.962 . S
C2438 H2452 0.960 . S
C2439 C2436 1.511 . S
C2439 H2453 0.961 . S
C2439 H2454 0.961 . S
C2439 H2455 0.961 . S
C2440 C2441 1.370 . S
C2440 C2442 1.363 . S
C2440 H2456 0.931 . S
C2441 C2440 1.370 . S
C2441 C2445 1.408 . S
C2442 C2440 1.363 . S
C2442 C2443 1.370 . S
C2442 C2446 1.524 . S
C2443 C2435 1.503 . S
C2443 C2442 1.370 . S
C2443 C2444 1.403 . S
C2444 C2443 1.403 . S
C2444 C2445 1.404 . S
C2444 C2447 1.539 . S
C2445 C2441 1.408 . S
C2445 C2444 1.404 . S
C2445 H2457 0.930 . S
C2446 C2442 1.524 . S
C2446 H2458 0.956 . S
C2446 H2459 0.961 . S
C2446 H2460 0.961 . S
C2447 C2444 1.539 . S
C2447 H2461 0.958 . S
C2447 H2462 0.961 . S
C2447 H2463 0.960 . S
H2448 C2432 0.931 . S
H2449 C2437 0.929 . S
H2450 C2438 0.960 . S
H2451 C2438 0.962 . S
H2452 C2438 0.960 . S
H2453 C2439 0.961 . S
H2454 C2439 0.961 . S
H2455 C2439 0.961 . S
H2456 C2440 0.931 . S
H2457 C2445 0.930 . S
H2458 C2446 0.956 . S
H2459 C2446 0.961 . S
H2460 C2446 0.961 . S
H2461 C2447 0.958 . S
H2462 C2447 0.961 . S
H2463 C2447 0.960 . S
C2464 C2465 1.391 . S
C2464 C2466 1.394 . S
C2464 H2480 0.931 . S
C2465 C2464 1.391 . S
C2465 C2469 1.376 . S
C2466 C2464 1.394 . S
C2466 C2467 1.369 . S
C2466 C2470 1.531 . S
C2467 C2466 1.369 . S
C2467 C2468 1.410 . S
C2467 C2475 1.503 . S
C2468 C2467 1.410 . S
C2468 C2469 1.392 . S
C2468 C2471 1.511 . S
C2469 C2465 1.376 . S
C2469 C2468 1.392 . S
C2469 H2481 0.929 . S
C2470 C2466 1.531 . S
C2470 H2482 0.960 . S
C2470 H2483 0.962 . S
C2470 H2484 0.960 . S
C2471 C2468 1.511 . S
C2471 H2485 0.961 . S
C2471 H2486 0.961 . S
C2471 H2487 0.961 . S
C2472 C2473 1.370 . S
C2472 C2474 1.363 . S
C2472 H2488 0.931 . S
C2473 C2472 1.370 . S
C2473 C2477 1.408 . S
C2474 C2472 1.363 . S
C2474 C2475 1.370 . S
C2474 C2478 1.524 . S
C2475 C2467 1.503 . S
C2475 C2474 1.370 . S
C2475 C2476 1.403 . S
C2476 C2475 1.403 . S
C2476 C2477 1.404 . S
C2476 C2479 1.539 . S
C2477 C2473 1.408 . S
C2477 C2476 1.404 . S
C2477 H2489 0.930 . S
C2478 C2474 1.524 . S
C2478 H2490 0.956 . S
C2478 H2491 0.961 . S
C2478 H2492 0.961 . S
C2479 C2476 1.539 . S
C2479 H2493 0.958 . S
C2479 H2494 0.961 . S
C2479 H2495 0.960 . S
H2480 C2464 0.931 . S
H2481 C2469 0.929 . S
H2482 C2470 0.960 . S
H2483 C2470 0.962 . S
H2484 C2470 0.960 . S
H2485 C2471 0.961 . S
H2486 C2471 0.961 . S
H2487 C2471 0.961 . S
H2488 C2472 0.931 . S
H2489 C2477 0.930 . S
H2490 C2478 0.956 . S
H2491 C2478 0.961 . S
H2492 C2478 0.961 . S
H2493 C2479 0.958 . S
H2494 C2479 0.961 . S
H2495 C2479 0.960 . S
C2496 C2497 1.391 . S
C2496 C2498 1.394 . S
C2496 H2512 0.931 . S
C2497 C2496 1.391 . S
C2497 C2501 1.376 . S
C2498 C2496 1.394 . S
C2498 C2499 1.369 . S
C2498 C2502 1.531 . S
C2499 C2498 1.369 . S
C2499 C2500 1.410 . S
C2499 C2507 1.503 . S
C2500 C2499 1.410 . S
C2500 C2501 1.392 . S
C2500 C2503 1.511 . S
C2501 C2497 1.376 . S
C2501 C2500 1.392 . S
C2501 H2513 0.929 . S
C2502 C2498 1.531 . S
C2502 H2514 0.960 . S
C2502 H2515 0.962 . S
C2502 H2516 0.960 . S
C2503 C2500 1.511 . S
C2503 H2517 0.961 . S
C2503 H2518 0.961 . S
C2503 H2519 0.961 . S
C2504 C2505 1.370 . S
C2504 C2506 1.363 . S
C2504 H2520 0.931 . S
C2505 C2504 1.370 . S
C2505 C2509 1.408 . S
C2506 C2504 1.363 . S
C2506 C2507 1.370 . S
C2506 C2510 1.524 . S
C2507 C2499 1.503 . S
C2507 C2506 1.370 . S
C2507 C2508 1.403 . S
C2508 C2507 1.403 . S
C2508 C2509 1.404 . S
C2508 C2511 1.539 . S
C2509 C2505 1.408 . S
C2509 C2508 1.404 . S
C2509 H2521 0.930 . S
C2510 C2506 1.524 . S
C2510 H2522 0.956 . S
C2510 H2523 0.961 . S
C2510 H2524 0.961 . S
C2511 C2508 1.539 . S
C2511 H2525 0.958 . S
C2511 H2526 0.961 . S
C2511 H2527 0.960 . S
H2512 C2496 0.931 . S
H2513 C2501 0.929 . S
H2514 C2502 0.960 . S
H2515 C2502 0.962 . S
H2516 C2502 0.960 . S
H2517 C2503 0.961 . S
H2518 C2503 0.961 . S
H2519 C2503 0.961 . S
H2520 C2504 0.931 . S
H2521 C2509 0.930 . S
H2522 C2510 0.956 . S
H2523 C2510 0.961 . S
H2524 C2510 0.961 . S
H2525 C2511 0.958 . S
H2526 C2511 0.961 . S
H2527 C2511 0.960 . S
C2528 C2529 1.391 . S
C2528 C2530 1.394 . S
C2528 H2544 0.931 . S
C2529 C2528 1.391 . S
C2529 C2533 1.376 . S
C2530 C2528 1.394 . S
C2530 C2531 1.369 . S
C2530 C2534 1.531 . S
C2531 C2530 1.369 . S
C2531 C2532 1.410 . S
C2531 C2539 1.503 . S
C2532 C2531 1.410 . S
C2532 C2533 1.392 . S
C2532 C2535 1.511 . S
C2533 C2529 1.376 . S
C2533 C2532 1.392 . S
C2533 H2545 0.929 . S
C2534 C2530 1.531 . S
C2534 H2546 0.960 . S
C2534 H2547 0.962 . S
C2534 H2548 0.960 . S
C2535 C2532 1.511 . S
C2535 H2549 0.961 . S
C2535 H2550 0.961 . S
C2535 H2551 0.961 . S
C2536 C2537 1.370 . S
C2536 C2538 1.363 . S
C2536 H2552 0.931 . S
C2537 C2536 1.370 . S
C2537 C2541 1.408 . S
C2538 C2536 1.363 . S
C2538 C2539 1.370 . S
C2538 C2542 1.524 . S
C2539 C2531 1.503 . S
C2539 C2538 1.370 . S
C2539 C2540 1.403 . S
C2540 C2539 1.403 . S
C2540 C2541 1.404 . S
C2540 C2543 1.539 . S
C2541 C2537 1.408 . S
C2541 C2540 1.404 . S
C2541 H2553 0.930 . S
C2542 C2538 1.524 . S
C2542 H2554 0.956 . S
C2542 H2555 0.961 . S
C2542 H2556 0.961 . S
C2543 C2540 1.539 . S
C2543 H2557 0.958 . S
C2543 H2558 0.961 . S
C2543 H2559 0.960 . S
H2544 C2528 0.931 . S
H2545 C2533 0.929 . S
H2546 C2534 0.960 . S
H2547 C2534 0.962 . S
H2548 C2534 0.960 . S
H2549 C2535 0.961 . S
H2550 C2535 0.961 . S
H2551 C2535 0.961 . S
H2552 C2536 0.931 . S
H2553 C2541 0.930 . S
H2554 C2542 0.956 . S
H2555 C2542 0.961 . S
H2556 C2542 0.961 . S
H2557 C2543 0.958 . S
H2558 C2543 0.961 . S
H2559 C2543 0.960 . S
C2560 C2561 1.391 . S
C2560 C2562 1.394 . S
C2560 H2576 0.931 . S
C2561 C2560 1.391 . S
C2561 C2565 1.376 . S
C2562 C2560 1.394 . S
C2562 C2563 1.369 . S
C2562 C2566 1.531 . S
C2563 C2562 1.369 . S
C2563 C2564 1.410 . S
C2563 C2571 1.503 . S
C2564 C2563 1.410 . S
C2564 C2565 1.392 . S
C2564 C2567 1.511 . S
C2565 C2561 1.376 . S
C2565 C2564 1.392 . S
C2565 H2577 0.929 . S
C2566 C2562 1.531 . S
C2566 H2578 0.960 . S
C2566 H2579 0.962 . S
C2566 H2580 0.960 . S
C2567 C2564 1.511 . S
C2567 H2581 0.961 . S
C2567 H2582 0.961 . S
C2567 H2583 0.961 . S
C2568 C2569 1.370 . S
C2568 C2570 1.363 . S
C2568 H2584 0.931 . S
C2569 C2568 1.370 . S
C2569 C2573 1.408 . S
C2570 C2568 1.363 . S
C2570 C2571 1.370 . S
C2570 C2574 1.524 . S
C2571 C2563 1.503 . S
C2571 C2570 1.370 . S
C2571 C2572 1.403 . S
C2572 C2571 1.403 . S
C2572 C2573 1.404 . S
C2572 C2575 1.539 . S
C2573 C2569 1.408 . S
C2573 C2572 1.404 . S
C2573 H2585 0.930 . S
C2574 C2570 1.524 . S
C2574 H2586 0.956 . S
C2574 H2587 0.961 . S
C2574 H2588 0.961 . S
C2575 C2572 1.539 . S
C2575 H2589 0.958 . S
C2575 H2590 0.961 . S
C2575 H2591 0.960 . S
H2576 C2560 0.931 . S
H2577 C2565 0.929 . S
H2578 C2566 0.960 . S
H2579 C2566 0.962 . S
H2580 C2566 0.960 . S
H2581 C2567 0.961 . S
H2582 C2567 0.961 . S
H2583 C2567 0.961 . S
H2584 C2568 0.931 . S
H2585 C2573 0.930 . S
H2586 C2574 0.956 . S
H2587 C2574 0.961 . S
H2588 C2574 0.961 . S
H2589 C2575 0.958 . S
H2590 C2575 0.961 . S
H2591 C2575 0.960 . S
C2592 C2593 1.391 . S
C2592 C2594 1.394 . S
C2592 H2608 0.931 . S
C2593 C2592 1.391 . S
C2593 C2597 1.376 . S
C2594 C2592 1.394 . S
C2594 C2595 1.369 . S
C2594 C2598 1.531 . S
C2595 C2594 1.369 . S
C2595 C2596 1.410 . S
C2595 C2603 1.503 . S
C2596 C2595 1.410 . S
C2596 C2597 1.392 . S
C2596 C2599 1.511 . S
C2597 C2593 1.376 . S
C2597 C2596 1.392 . S
C2597 H2609 0.929 . S
C2598 C2594 1.531 . S
C2598 H2610 0.960 . S
C2598 H2611 0.962 . S
C2598 H2612 0.960 . S
C2599 C2596 1.511 . S
C2599 H2613 0.961 . S
C2599 H2614 0.961 . S
C2599 H2615 0.961 . S
C2600 C2601 1.370 . S
C2600 C2602 1.363 . S
C2600 H2616 0.931 . S
C2601 C2600 1.370 . S
C2601 C2605 1.408 . S
C2602 C2600 1.363 . S
C2602 C2603 1.370 . S
C2602 C2606 1.524 . S
C2603 C2595 1.503 . S
C2603 C2602 1.370 . S
C2603 C2604 1.403 . S
C2604 C2603 1.403 . S
C2604 C2605 1.404 . S
C2604 C2607 1.539 . S
C2605 C2601 1.408 . S
C2605 C2604 1.404 . S
C2605 H2617 0.930 . S
C2606 C2602 1.524 . S
C2606 H2618 0.956 . S
C2606 H2619 0.961 . S
C2606 H2620 0.961 . S
C2607 C2604 1.539 . S
C2607 H2621 0.958 . S
C2607 H2622 0.961 . S
C2607 H2623 0.960 . S
H2608 C2592 0.931 . S
H2609 C2597 0.929 . S
H2610 C2598 0.960 . S
H2611 C2598 0.962 . S
H2612 C2598 0.960 . S
H2613 C2599 0.961 . S
H2614 C2599 0.961 . S
H2615 C2599 0.961 . S
H2616 C2600 0.931 . S
H2617 C2605 0.930 . S
H2618 C2606 0.956 . S
H2619 C2606 0.961 . S
H2620 C2606 0.961 . S
H2621 C2607 0.958 . S
H2622 C2607 0.961 . S
H2623 C2607 0.960 . S
C2624 C2625 1.391 1_565 S
C2624 C2626 1.394 . S
C2624 H2640 0.931 . S
C2625 C2624 1.391 1_545 S
C2625 C2629 1.376 . S
C2626 C2624 1.394 . S
C2626 C2627 1.369 . S
C2626 C2630 1.531 . S
C2627 C2626 1.369 . S
C2627 C2628 1.410 1_565 S
C2627 C2635 1.503 . S
C2628 C2627 1.410 1_545 S
C2628 C2629 1.392 . S
C2628 C2631 1.511 . S
C2629 C2625 1.376 . S
C2629 C2628 1.392 . S
C2629 H2641 0.929 . S
C2630 C2626 1.531 . S
C2630 H2642 0.960 . S
C2630 H2643 0.962 . S
C2630 H2644 0.960 . S
C2631 C2628 1.511 . S
C2631 H2645 0.961 . S
C2631 H2646 0.961 . S
C2631 H2647 0.961 . S
C2632 C2633 1.370 . S
C2632 C2634 1.363 . S
C2632 H2648 0.931 . S
C2633 C2632 1.370 . S
C2633 C2637 1.408 . S
C2634 C2632 1.363 . S
C2634 C2635 1.370 . S
C2634 C2638 1.524 . S
C2635 C2627 1.503 . S
C2635 C2634 1.370 . S
C2635 C2636 1.403 . S
C2636 C2635 1.403 . S
C2636 C2637 1.404 . S
C2636 C2639 1.539 . S
C2637 C2633 1.408 . S
C2637 C2636 1.404 . S
C2637 H2649 0.930 . S
C2638 C2634 1.524 . S
C2638 H2650 0.956 . S
C2638 H2651 0.961 . S
C2638 H2652 0.961 . S
C2639 C2636 1.539 . S
C2639 H2653 0.958 . S
C2639 H2654 0.961 1_565 S
C2639 H2655 0.960 1_565 S
H2640 C2624 0.931 . S
H2641 C2629 0.929 . S
H2642 C2630 0.960 . S
H2643 C2630 0.962 . S
H2644 C2630 0.960 . S
H2645 C2631 0.961 . S
H2646 C2631 0.961 . S
H2647 C2631 0.961 . S
H2648 C2632 0.931 . S
H2649 C2637 0.930 . S
H2650 C2638 0.956 . S
H2651 C2638 0.961 . S
H2652 C2638 0.961 . S
H2653 C2639 0.958 . S
H2654 C2639 0.961 1_545 S
H2655 C2639 0.960 1_545 S
C2656 C2657 1.391 . S
C2656 C2658 1.394 . S
C2656 H2672 0.931 . S
C2657 C2656 1.391 . S
C2657 C2661 1.376 . S
C2658 C2656 1.394 . S
C2658 C2659 1.369 . S
C2658 C2662 1.531 . S
C2659 C2658 1.369 . S
C2659 C2660 1.410 . S
C2659 C2667 1.503 . S
C2660 C2659 1.410 . S
C2660 C2661 1.392 . S
C2660 C2663 1.511 1_455 S
C2661 C2657 1.376 . S
C2661 C2660 1.392 . S
C2661 H2673 0.929 . S
C2662 C2658 1.531 . S
C2662 H2674 0.960 . S
C2662 H2675 0.962 . S
C2662 H2676 0.960 . S
C2663 C2660 1.511 1_655 S
C2663 H2677 0.961 . S
C2663 H2678 0.961 . S
C2663 H2679 0.961 . S
C2664 C2665 1.370 1_455 S
C2664 C2666 1.363 . S
C2664 H2680 0.931 . S
C2665 C2664 1.370 1_655 S
C2665 C2669 1.408 . S
C2666 C2664 1.363 . S
C2666 C2667 1.370 . S
C2666 C2670 1.524 . S
C2667 C2659 1.503 . S
C2667 C2666 1.370 . S
C2667 C2668 1.403 1_455 S
C2668 C2667 1.403 1_655 S
C2668 C2669 1.404 . S
C2668 C2671 1.539 . S
C2669 C2665 1.408 . S
C2669 C2668 1.404 . S
C2669 H2681 0.930 . S
C2670 C2666 1.524 . S
C2670 H2682 0.956 . S
C2670 H2683 0.961 . S
C2670 H2684 0.961 . S
C2671 C2668 1.539 . S
C2671 H2685 0.958 . S
C2671 H2686 0.961 . S
C2671 H2687 0.960 . S
H2672 C2656 0.931 . S
H2673 C2661 0.929 . S
H2674 C2662 0.960 . S
H2675 C2662 0.962 . S
H2676 C2662 0.960 . S
H2677 C2663 0.961 . S
H2678 C2663 0.961 . S
H2679 C2663 0.961 . S
H2680 C2664 0.931 . S
H2681 C2669 0.930 . S
H2682 C2670 0.956 . S
H2683 C2670 0.961 . S
H2684 C2670 0.961 . S
H2685 C2671 0.958 . S
H2686 C2671 0.961 . S
H2687 C2671 0.960 . S
C2688 C2689 1.391 . S
C2688 C2690 1.394 . S
C2688 H2704 0.931 . S
C2689 C2688 1.391 . S
C2689 C2693 1.376 . S
C2690 C2688 1.394 . S
C2690 C2691 1.369 . S
C2690 C2694 1.531 . S
C2691 C2690 1.369 . S
C2691 C2692 1.410 . S
C2691 C2699 1.503 . S
C2692 C2691 1.410 . S
C2692 C2693 1.392 . S
C2692 C2695 1.511 . S
C2693 C2689 1.376 . S
C2693 C2692 1.392 . S
C2693 H2705 0.929 . S
C2694 C2690 1.531 . S
C2694 H2706 0.960 . S
C2694 H2707 0.962 . S
C2694 H2708 0.960 . S
C2695 C2692 1.511 . S
C2695 H2709 0.961 . S
C2695 H2710 0.961 . S
C2695 H2711 0.961 . S
C2696 C2697 1.370 . S
C2696 C2698 1.363 . S
C2696 H2712 0.931 . S
C2697 C2696 1.370 . S
C2697 C2701 1.408 . S
C2698 C2696 1.363 . S
C2698 C2699 1.370 . S
C2698 C2702 1.524 . S
C2699 C2691 1.503 . S
C2699 C2698 1.370 . S
C2699 C2700 1.403 . S
C2700 C2699 1.403 . S
C2700 C2701 1.404 . S
C2700 C2703 1.539 . S
C2701 C2697 1.408 . S
C2701 C2700 1.404 . S
C2701 H2713 0.930 . S
C2702 C2698 1.524 . S
C2702 H2714 0.956 . S
C2702 H2715 0.961 . S
C2702 H2716 0.961 . S
C2703 C2700 1.539 . S
C2703 H2717 0.958 . S
C2703 H2718 0.961 . S
C2703 H2719 0.960 . S
H2704 C2688 0.931 . S
H2705 C2693 0.929 . S
H2706 C2694 0.960 . S
H2707 C2694 0.962 . S
H2708 C2694 0.960 . S
H2709 C2695 0.961 . S
H2710 C2695 0.961 . S
H2711 C2695 0.961 . S
H2712 C2696 0.931 . S
H2713 C2701 0.930 . S
H2714 C2702 0.956 . S
H2715 C2702 0.961 . S
H2716 C2702 0.961 . S
H2717 C2703 0.958 . S
H2718 C2703 0.961 . S
H2719 C2703 0.960 . S
C2720 C2721 1.391 . S
C2720 C2722 1.394 . S
C2720 H2736 0.931 . S
C2721 C2720 1.391 . S
C2721 C2725 1.376 1_565 S
C2722 C2720 1.394 . S
C2722 C2723 1.369 1_565 S
C2722 C2726 1.531 . S
C2723 C2722 1.369 1_545 S
C2723 C2724 1.410 . S
C2723 C2731 1.503 . S
C2724 C2723 1.410 . S
C2724 C2725 1.392 . S
C2724 C2727 1.511 . S
C2725 C2721 1.376 1_545 S
C2725 C2724 1.392 . S
C2725 H2737 0.929 . S
C2726 C2722 1.531 . S
C2726 H2738 0.960 . S
C2726 H2739 0.962 . S
C2726 H2740 0.960 . S
C2727 C2724 1.511 . S
C2727 H2741 0.961 . S
C2727 H2742 0.961 . S
C2727 H2743 0.961 . S
C2728 C2729 1.370 . S
C2728 C2730 1.363 . S
C2728 H2744 0.931 . S
C2729 C2728 1.370 . S
C2729 C2733 1.408 . S
C2730 C2728 1.363 . S
C2730 C2731 1.370 . S
C2730 C2734 1.524 . S
C2731 C2723 1.503 . S
C2731 C2730 1.370 . S
C2731 C2732 1.403 . S
C2732 C2731 1.403 . S
C2732 C2733 1.404 . S
C2732 C2735 1.539 . S
C2733 C2729 1.408 . S
C2733 C2732 1.404 . S
C2733 H2745 0.930 . S
C2734 C2730 1.524 . S
C2734 H2746 0.956 . S
C2734 H2747 0.961 . S
C2734 H2748 0.961 . S
C2735 C2732 1.539 . S
C2735 H2749 0.958 . S
C2735 H2750 0.961 . S
C2735 H2751 0.960 . S
H2736 C2720 0.931 . S
H2737 C2725 0.929 . S
H2738 C2726 0.960 . S
H2739 C2726 0.962 . S
H2740 C2726 0.960 . S
H2741 C2727 0.961 . S
H2742 C2727 0.961 . S
H2743 C2727 0.961 . S
H2744 C2728 0.931 . S
H2745 C2733 0.930 . S
H2746 C2734 0.956 . S
H2747 C2734 0.961 . S
H2748 C2734 0.961 . S
H2749 C2735 0.958 . S
H2750 C2735 0.961 . S
H2751 C2735 0.960 . S
C2752 C2753 1.391 . S
C2752 C2754 1.394 . S
C2752 H2768 0.931 . S
C2753 C2752 1.391 . S
C2753 C2757 1.376 . S
C2754 C2752 1.394 . S
C2754 C2755 1.369 . S
C2754 C2758 1.531 . S
C2755 C2754 1.369 . S
C2755 C2756 1.410 . S
C2755 C2763 1.503 . S
C2756 C2755 1.410 . S
C2756 C2757 1.392 . S
C2756 C2759 1.511 . S
C2757 C2753 1.376 . S
C2757 C2756 1.392 . S
C2757 H2769 0.929 . S
C2758 C2754 1.531 . S
C2758 H2770 0.960 1_655 S
C2758 H2771 0.962 . S
C2758 H2772 0.960 . S
C2759 C2756 1.511 . S
C2759 H2773 0.961 . S
C2759 H2774 0.961 . S
C2759 H2775 0.961 . S
C2760 C2761 1.370 1_655 S
C2760 C2762 1.363 . S
C2760 H2776 0.931 . S
C2761 C2760 1.370 1_455 S
C2761 C2765 1.408 . S
C2762 C2760 1.363 . S
C2762 C2763 1.370 . S
C2762 C2766 1.524 . S
C2763 C2755 1.503 . S
C2763 C2762 1.370 . S
C2763 C2764 1.403 1_655 S
C2764 C2763 1.403 1_455 S
C2764 C2765 1.404 . S
C2764 C2767 1.539 . S
C2765 C2761 1.408 . S
C2765 C2764 1.404 . S
C2765 H2777 0.930 . S
C2766 C2762 1.524 . S
C2766 H2778 0.956 . S
C2766 H2779 0.961 . S
C2766 H2780 0.961 . S
C2767 C2764 1.539 . S
C2767 H2781 0.958 . S
C2767 H2782 0.961 . S
C2767 H2783 0.960 . S
H2768 C2752 0.931 . S
H2769 C2757 0.929 . S
H2770 C2758 0.960 1_455 S
H2771 C2758 0.962 . S
H2772 C2758 0.960 . S
H2773 C2759 0.961 . S
H2774 C2759 0.961 . S
H2775 C2759 0.961 . S
H2776 C2760 0.931 . S
H2777 C2765 0.930 . S
H2778 C2766 0.956 . S
H2779 C2766 0.961 . S
H2780 C2766 0.961 . S
H2781 C2767 0.958 . S
H2782 C2767 0.961 . S
H2783 C2767 0.960 . S
C2784 C2785 1.391 . S
C2784 C2786 1.394 . S
C2784 H2800 0.931 . S
C2785 C2784 1.391 . S
C2785 C2789 1.376 . S
C2786 C2784 1.394 . S
C2786 C2787 1.369 . S
C2786 C2790 1.531 . S
C2787 C2786 1.369 . S
C2787 C2788 1.410 . S
C2787 C2795 1.503 . S
C2788 C2787 1.410 . S
C2788 C2789 1.392 . S
C2788 C2791 1.511 . S
C2789 C2785 1.376 . S
C2789 C2788 1.392 . S
C2789 H2801 0.929 . S
C2790 C2786 1.531 . S
C2790 H2802 0.960 . S
C2790 H2803 0.962 . S
C2790 H2804 0.960 . S
C2791 C2788 1.511 . S
C2791 H2805 0.961 . S
C2791 H2806 0.961 . S
C2791 H2807 0.961 . S
C2792 C2793 1.370 . S
C2792 C2794 1.363 . S
C2792 H2808 0.931 . S
C2793 C2792 1.370 . S
C2793 C2797 1.408 . S
C2794 C2792 1.363 . S
C2794 C2795 1.370 . S
C2794 C2798 1.524 . S
C2795 C2787 1.503 . S
C2795 C2794 1.370 . S
C2795 C2796 1.403 . S
C2796 C2795 1.403 . S
C2796 C2797 1.404 . S
C2796 C2799 1.539 . S
C2797 C2793 1.408 . S
C2797 C2796 1.404 . S
C2797 H2809 0.930 . S
C2798 C2794 1.524 . S
C2798 H2810 0.956 . S
C2798 H2811 0.961 . S
C2798 H2812 0.961 . S
C2799 C2796 1.539 . S
C2799 H2813 0.958 . S
C2799 H2814 0.961 . S
C2799 H2815 0.960 . S
H2800 C2784 0.931 . S
H2801 C2789 0.929 . S
H2802 C2790 0.960 . S
H2803 C2790 0.962 . S
H2804 C2790 0.960 . S
H2805 C2791 0.961 . S
H2806 C2791 0.961 . S
H2807 C2791 0.961 . S
H2808 C2792 0.931 . S
H2809 C2797 0.930 . S
H2810 C2798 0.956 . S
H2811 C2798 0.961 . S
H2812 C2798 0.961 . S
H2813 C2799 0.958 . S
H2814 C2799 0.961 . S
H2815 C2799 0.960 . S
C2816 C2817 1.391 . S
C2816 C2818 1.394 . S
C2816 H2832 0.931 . S
C2817 C2816 1.391 . S
C2817 C2821 1.376 . S
C2818 C2816 1.394 . S
C2818 C2819 1.369 . S
C2818 C2822 1.531 . S
C2819 C2818 1.369 . S
C2819 C2820 1.410 . S
C2819 C2827 1.503 . S
C2820 C2819 1.410 . S
C2820 C2821 1.392 . S
C2820 C2823 1.511 1_545 S
C2821 C2817 1.376 . S
C2821 C2820 1.392 . S
C2821 H2833 0.929 . S
C2822 C2818 1.531 . S
C2822 H2834 0.960 . S
C2822 H2835 0.962 . S
C2822 H2836 0.960 . S
C2823 C2820 1.511 1_565 S
C2823 H2837 0.961 . S
C2823 H2838 0.961 . S
C2823 H2839 0.961 . S
C2824 C2825 1.370 1_545 S
C2824 C2826 1.363 . S
C2824 H2840 0.931 . S
C2825 C2824 1.370 1_565 S
C2825 C2829 1.408 . S
C2826 C2824 1.363 . S
C2826 C2827 1.370 . S
C2826 C2830 1.524 . S
C2827 C2819 1.503 . S
C2827 C2826 1.370 . S
C2827 C2828 1.403 1_545 S
C2828 C2827 1.403 1_565 S
C2828 C2829 1.404 . S
C2828 C2831 1.539 . S
C2829 C2825 1.408 . S
C2829 C2828 1.404 . S
C2829 H2841 0.930 . S
C2830 C2826 1.524 . S
C2830 H2842 0.956 . S
C2830 H2843 0.961 . S
C2830 H2844 0.961 . S
C2831 C2828 1.539 . S
C2831 H2845 0.958 1_565 S
C2831 H2846 0.961 . S
C2831 H2847 0.960 . S
H2832 C2816 0.931 . S
H2833 C2821 0.929 . S
H2834 C2822 0.960 . S
H2835 C2822 0.962 . S
H2836 C2822 0.960 . S
H2837 C2823 0.961 . S
H2838 C2823 0.961 . S
H2839 C2823 0.961 . S
H2840 C2824 0.931 . S
H2841 C2829 0.930 . S
H2842 C2830 0.956 . S
H2843 C2830 0.961 . S
H2844 C2830 0.961 . S
H2845 C2831 0.958 1_545 S
H2846 C2831 0.961 . S
H2847 C2831 0.960 . S
C2848 C2849 1.391 . S
C2848 C2850 1.394 . S
C2848 H2864 0.931 . S
C2849 C2848 1.391 . S
C2849 C2853 1.376 . S
C2850 C2848 1.394 . S
C2850 C2851 1.369 . S
C2850 C2854 1.531 . S
C2851 C2850 1.369 . S
C2851 C2852 1.410 . S
C2851 C2859 1.503 . S
C2852 C2851 1.410 . S
C2852 C2853 1.392 . S
C2852 C2855 1.511 . S
C2853 C2849 1.376 . S
C2853 C2852 1.392 . S
C2853 H2865 0.929 . S
C2854 C2850 1.531 . S
C2854 H2866 0.960 . S
C2854 H2867 0.962 . S
C2854 H2868 0.960 . S
C2855 C2852 1.511 . S
C2855 H2869 0.961 . S
C2855 H2870 0.961 . S
C2855 H2871 0.961 1_655 S
C2856 C2857 1.370 1_655 S
C2856 C2858 1.363 . S
C2856 H2872 0.931 . S
C2857 C2856 1.370 1_455 S
C2857 C2861 1.408 . S
C2858 C2856 1.363 . S
C2858 C2859 1.370 . S
C2858 C2862 1.524 . S
C2859 C2851 1.503 . S
C2859 C2858 1.370 . S
C2859 C2860 1.403 1_655 S
C2860 C2859 1.403 1_455 S
C2860 C2861 1.404 . S
C2860 C2863 1.539 . S
C2861 C2857 1.408 . S
C2861 C2860 1.404 . S
C2861 H2873 0.930 . S
C2862 C2858 1.524 . S
C2862 H2874 0.956 . S
C2862 H2875 0.961 . S
C2862 H2876 0.961 . S
C2863 C2860 1.539 . S
C2863 H2877 0.958 . S
C2863 H2878 0.961 . S
C2863 H2879 0.960 . S
H2864 C2848 0.931 . S
H2865 C2853 0.929 . S
H2866 C2854 0.960 . S
H2867 C2854 0.962 . S
H2868 C2854 0.960 . S
H2869 C2855 0.961 . S
H2870 C2855 0.961 . S
H2871 C2855 0.961 1_455 S
H2872 C2856 0.931 . S
H2873 C2861 0.930 . S
H2874 C2862 0.956 . S
H2875 C2862 0.961 . S
H2876 C2862 0.961 . S
H2877 C2863 0.958 . S
H2878 C2863 0.961 . S
H2879 C2863 0.960 . S
C2880 C2881 1.391 . S
C2880 C2882 1.394 . S
C2880 H2896 0.931 . S
C2881 C2880 1.391 . S
C2881 C2885 1.376 . S
C2882 C2880 1.394 . S
C2882 C2883 1.369 . S
C2882 C2886 1.531 . S
C2883 C2882 1.369 . S
C2883 C2884 1.410 . S
C2883 C2891 1.503 . S
C2884 C2883 1.410 . S
C2884 C2885 1.392 . S
C2884 C2887 1.511 . S
C2885 C2881 1.376 . S
C2885 C2884 1.392 . S
C2885 H2897 0.929 . S
C2886 C2882 1.531 . S
C2886 H2898 0.960 . S
C2886 H2899 0.962 . S
C2886 H2900 0.960 . S
C2887 C2884 1.511 . S
C2887 H2901 0.961 . S
C2887 H2902 0.961 . S
C2887 H2903 0.961 . S
C2888 C2889 1.370 . S
C2888 C2890 1.363 . S
C2888 H2904 0.931 . S
C2889 C2888 1.370 . S
C2889 C2893 1.408 . S
C2890 C2888 1.363 . S
C2890 C2891 1.370 . S
C2890 C2894 1.524 . S
C2891 C2883 1.503 . S
C2891 C2890 1.370 . S
C2891 C2892 1.403 . S
C2892 C2891 1.403 . S
C2892 C2893 1.404 . S
C2892 C2895 1.539 . S
C2893 C2889 1.408 . S
C2893 C2892 1.404 . S
C2893 H2905 0.930 . S
C2894 C2890 1.524 . S
C2894 H2906 0.956 . S
C2894 H2907 0.961 . S
C2894 H2908 0.961 . S
C2895 C2892 1.539 . S
C2895 H2909 0.958 . S
C2895 H2910 0.961 . S
C2895 H2911 0.960 . S
H2896 C2880 0.931 . S
H2897 C2885 0.929 . S
H2898 C2886 0.960 . S
H2899 C2886 0.962 . S
H2900 C2886 0.960 . S
H2901 C2887 0.961 . S
H2902 C2887 0.961 . S
H2903 C2887 0.961 . S
H2904 C2888 0.931 . S
H2905 C2893 0.930 . S
H2906 C2894 0.956 . S
H2907 C2894 0.961 . S
H2908 C2894 0.961 . S
H2909 C2895 0.958 . S
H2910 C2895 0.961 . S
H2911 C2895 0.960 . S
C2912 C2913 1.391 . S
C2912 C2914 1.394 . S
C2912 H2928 0.931 . S
C2913 C2912 1.391 . S
C2913 C2917 1.376 1_545 S
C2914 C2912 1.394 . S
C2914 C2915 1.369 1_545 S
C2914 C2918 1.531 . S
C2915 C2914 1.369 1_565 S
C2915 C2916 1.410 . S
C2915 C2923 1.503 . S
C2916 C2915 1.410 . S
C2916 C2917 1.392 . S
C2916 C2919 1.511 . S
C2917 C2913 1.376 1_565 S
C2917 C2916 1.392 . S
C2917 H2929 0.929 . S
C2918 C2914 1.531 . S
C2918 H2930 0.960 . S
C2918 H2931 0.962 . S
C2918 H2932 0.960 . S
C2919 C2916 1.511 . S
C2919 H2933 0.961 . S
C2919 H2934 0.961 . S
C2919 H2935 0.961 . S
C2920 C2921 1.370 . S
C2920 C2922 1.363 . S
C2920 H2936 0.931 . S
C2921 C2920 1.370 . S
C2921 C2925 1.408 . S
C2922 C2920 1.363 . S
C2922 C2923 1.370 . S
C2922 C2926 1.524 . S
C2923 C2915 1.503 . S
C2923 C2922 1.370 . S
C2923 C2924 1.403 . S
C2924 C2923 1.403 . S
C2924 C2925 1.404 . S
C2924 C2927 1.539 . S
C2925 C2921 1.408 . S
C2925 C2924 1.404 . S
C2925 H2937 0.930 . S
C2926 C2922 1.524 . S
C2926 H2938 0.956 1_565 S
C2926 H2939 0.961 . S
C2926 H2940 0.961 . S
C2927 C2924 1.539 . S
C2927 H2941 0.958 . S
C2927 H2942 0.961 . S
C2927 H2943 0.960 . S
H2928 C2912 0.931 . S
H2929 C2917 0.929 . S
H2930 C2918 0.960 . S
H2931 C2918 0.962 . S
H2932 C2918 0.960 . S
H2933 C2919 0.961 . S
H2934 C2919 0.961 . S
H2935 C2919 0.961 . S
H2936 C2920 0.931 . S
H2937 C2925 0.930 . S
H2938 C2926 0.956 1_545 S
H2939 C2926 0.961 . S
H2940 C2926 0.961 . S
H2941 C2927 0.958 . S
H2942 C2927 0.961 . S
H2943 C2927 0.960 . S
C2944 C2945 1.391 . S
C2944 C2946 1.394 1_655 S
C2944 H2960 0.931 . S
C2945 C2944 1.391 . S
C2945 C2949 1.376 . S
C2946 C2944 1.394 1_455 S
C2946 C2947 1.369 . S
C2946 C2950 1.531 . S
C2947 C2946 1.369 . S
C2947 C2948 1.410 . S
C2947 C2955 1.503 . S
C2948 C2947 1.410 . S
C2948 C2949 1.392 1_455 S
C2948 C2951 1.511 . S
C2949 C2945 1.376 . S
C2949 C2948 1.392 1_655 S
C2949 H2961 0.929 . S
C2950 C2946 1.531 . S
C2950 H2962 0.960 . S
C2950 H2963 0.962 . S
C2950 H2964 0.960 1_455 S
C2951 C2948 1.511 . S
C2951 H2965 0.961 . S
C2951 H2966 0.961 . S
C2951 H2967 0.961 1_455 S
C2952 C2953 1.370 . S
C2952 C2954 1.363 . S
C2952 H2968 0.931 . S
C2953 C2952 1.370 . S
C2953 C2957 1.408 . S
C2954 C2952 1.363 . S
C2954 C2955 1.370 . S
C2954 C2958 1.524 . S
C2955 C2947 1.503 . S
C2955 C2954 1.370 . S
C2955 C2956 1.403 . S
C2956 C2955 1.403 . S
C2956 C2957 1.404 . S
C2956 C2959 1.539 1_455 S
C2957 C2953 1.408 . S
C2957 C2956 1.404 . S
C2957 H2969 0.930 . S
C2958 C2954 1.524 . S
C2958 H2970 0.956 . S
C2958 H2971 0.961 . S
C2958 H2972 0.961 . S
C2959 C2956 1.539 1_655 S
C2959 H2973 0.958 . S
C2959 H2974 0.961 . S
C2959 H2975 0.960 . S
H2960 C2944 0.931 . S
H2961 C2949 0.929 . S
H2962 C2950 0.960 . S
H2963 C2950 0.962 . S
H2964 C2950 0.960 1_655 S
H2965 C2951 0.961 . S
H2966 C2951 0.961 . S
H2967 C2951 0.961 1_655 S
H2968 C2952 0.931 . S
H2969 C2957 0.930 . S
H2970 C2958 0.956 . S
H2971 C2958 0.961 . S
H2972 C2958 0.961 . S
H2973 C2959 0.958 . S
H2974 C2959 0.961 . S
H2975 C2959 0.960 . S
C2976 C2977 1.391 . S
C2976 C2978 1.394 . S
C2976 H2992 0.931 . S
C2977 C2976 1.391 . S
C2977 C2981 1.376 . S
C2978 C2976 1.394 . S
C2978 C2979 1.369 1_655 S
C2978 C2982 1.531 1_655 S
C2979 C2978 1.369 1_455 S
C2979 C2980 1.410 1_455 S
C2979 C2987 1.503 . S
C2980 C2979 1.410 1_655 S
C2980 C2981 1.392 . S
C2980 C2983 1.511 . S
C2981 C2977 1.376 . S
C2981 C2980 1.392 . S
C2981 H2993 0.929 . S
C2982 C2978 1.531 1_455 S
C2982 H2994 0.960 . S
C2982 H2995 0.962 . S
C2982 H2996 0.960 . S
C2983 C2980 1.511 . S
C2983 H2997 0.961 . S
C2983 H2998 0.961 1_655 S
C2983 H2999 0.961 . S
C2984 C2985 1.370 . S
C2984 C2986 1.363 . S
C2984 H3000 0.931 . S
C2985 C2984 1.370 . S
C2985 C2989 1.408 . S
C2986 C2984 1.363 . S
C2986 C2987 1.370 . S
C2986 C2990 1.524 . S
C2987 C2979 1.503 . S
C2987 C2986 1.370 . S
C2987 C2988 1.403 . S
C2988 C2987 1.403 . S
C2988 C2989 1.404 . S
C2988 C2991 1.539 . S
C2989 C2985 1.408 . S
C2989 C2988 1.404 . S
C2989 H3001 0.930 . S
C2990 C2986 1.524 . S
C2990 H3002 0.956 . S
C2990 H3003 0.961 . S
C2990 H3004 0.961 . S
C2991 C2988 1.539 . S
C2991 H3005 0.958 . S
C2991 H3006 0.961 . S
C2991 H3007 0.960 . S
H2992 C2976 0.931 . S
H2993 C2981 0.929 . S
H2994 C2982 0.960 . S
H2995 C2982 0.962 . S
H2996 C2982 0.960 . S
H2997 C2983 0.961 . S
H2998 C2983 0.961 1_455 S
H2999 C2983 0.961 . S
H3000 C2984 0.931 . S
H3001 C2989 0.930 . S
H3002 C2990 0.956 . S
H3003 C2990 0.961 . S
H3004 C2990 0.961 . S
H3005 C2991 0.958 . S
H3006 C2991 0.961 . S
H3007 C2991 0.960 . S
C3008 C3009 1.391 . S
C3008 C3010 1.394 . S
C3008 H3024 0.931 . S
C3009 C3008 1.391 . S
C3009 C3013 1.376 . S
C3010 C3008 1.394 . S
C3010 C3011 1.369 . S
C3010 C3014 1.531 . S
C3011 C3010 1.369 . S
C3011 C3012 1.410 . S
C3011 C3019 1.503 . S
C3012 C3011 1.410 . S
C3012 C3013 1.392 . S
C3012 C3015 1.511 . S
C3013 C3009 1.376 . S
C3013 C3012 1.392 . S
C3013 H3025 0.929 . S
C3014 C3010 1.531 . S
C3014 H3026 0.960 . S
C3014 H3027 0.962 . S
C3014 H3028 0.960 . S
C3015 C3012 1.511 . S
C3015 H3029 0.961 . S
C3015 H3030 0.961 . S
C3015 H3031 0.961 . S
C3016 C3017 1.370 . S
C3016 C3018 1.363 . S
C3016 H3032 0.931 . S
C3017 C3016 1.370 . S
C3017 C3021 1.408 . S
C3018 C3016 1.363 . S
C3018 C3019 1.370 . S
C3018 C3022 1.524 . S
C3019 C3011 1.503 . S
C3019 C3018 1.370 . S
C3019 C3020 1.403 . S
C3020 C3019 1.403 . S
C3020 C3021 1.404 . S
C3020 C3023 1.539 . S
C3021 C3017 1.408 . S
C3021 C3020 1.404 . S
C3021 H3033 0.930 . S
C3022 C3018 1.524 . S
C3022 H3034 0.956 . S
C3022 H3035 0.961 . S
C3022 H3036 0.961 . S
C3023 C3020 1.539 . S
C3023 H3037 0.958 . S
C3023 H3038 0.961 . S
C3023 H3039 0.960 . S
H3024 C3008 0.931 . S
H3025 C3013 0.929 . S
H3026 C3014 0.960 . S
H3027 C3014 0.962 . S
H3028 C3014 0.960 . S
H3029 C3015 0.961 . S
H3030 C3015 0.961 . S
H3031 C3015 0.961 . S
H3032 C3016 0.931 . S
H3033 C3021 0.930 . S
H3034 C3022 0.956 . S
H3035 C3022 0.961 . S
H3036 C3022 0.961 . S
H3037 C3023 0.958 . S
H3038 C3023 0.961 . S
H3039 C3023 0.960 . S
C3040 C3041 1.391 . S
C3040 C3042 1.394 . S
C3040 H3056 0.931 . S
C3041 C3040 1.391 . S
C3041 C3045 1.376 . S
C3042 C3040 1.394 . S
C3042 C3043 1.369 . S
C3042 C3046 1.531 . S
C3043 C3042 1.369 . S
C3043 C3044 1.410 . S
C3043 C3051 1.503 . S
C3044 C3043 1.410 . S
C3044 C3045 1.392 . S
C3044 C3047 1.511 . S
C3045 C3041 1.376 . S
C3045 C3044 1.392 . S
C3045 H3057 0.929 . S
C3046 C3042 1.531 . S
C3046 H3058 0.960 . S
C3046 H3059 0.962 . S
C3046 H3060 0.960 . S
C3047 C3044 1.511 . S
C3047 H3061 0.961 . S
C3047 H3062 0.961 . S
C3047 H3063 0.961 . S
C3048 C3049 1.370 . S
C3048 C3050 1.363 . S
C3048 H3064 0.931 . S
C3049 C3048 1.370 . S
C3049 C3053 1.408 . S
C3050 C3048 1.363 . S
C3050 C3051 1.370 1_545 S
C3050 C3054 1.524 1_545 S
C3051 C3043 1.503 . S
C3051 C3050 1.370 1_565 S
C3051 C3052 1.403 1_565 S
C3052 C3051 1.403 1_545 S
C3052 C3053 1.404 . S
C3052 C3055 1.539 . S
C3053 C3049 1.408 . S
C3053 C3052 1.404 . S
C3053 H3065 0.930 . S
C3054 C3050 1.524 1_565 S
C3054 H3066 0.956 . S
C3054 H3067 0.961 . S
C3054 H3068 0.966 . S
C3055 C3052 1.539 . S
C3055 H3069 0.958 . S
C3055 H3070 0.961 . S
C3055 H3071 0.960 1_545 S
H3056 C3040 0.931 . S
H3057 C3045 0.929 . S
H3058 C3046 0.960 . S
H3059 C3046 0.962 . S
H3060 C3046 0.960 . S
H3061 C3047 0.961 . S
H3062 C3047 0.961 . S
H3063 C3047 0.961 . S
H3064 C3048 0.931 . S
H3065 C3053 0.930 . S
H3066 C3054 0.956 . S
H3067 C3054 0.961 . S
H3068 C3054 0.966 . S
H3069 C3055 0.958 . S
H3070 C3055 0.961 . S
H3071 C3055 0.960 1_565 S
C3072 C3073 1.391 . S
C3072 C3074 1.394 . S
C3072 H3088 0.931 . S
C3073 C3072 1.391 . S
C3073 C3077 1.376 . S
C3074 C3072 1.394 . S
C3074 C3075 1.369 . S
C3074 C3078 1.531 . S
C3075 C3074 1.369 . S
C3075 C3076 1.410 . S
C3075 C3083 1.503 . S
C3076 C3075 1.410 . S
C3076 C3077 1.392 . S
C3076 C3079 1.511 . S
C3077 C3073 1.376 . S
C3077 C3076 1.392 . S
C3077 H3089 0.929 . S
C3078 C3074 1.531 . S
C3078 H3090 0.960 . S
C3078 H3091 0.962 . S
C3078 H3092 0.960 . S
C3079 C3076 1.511 . S
C3079 H3093 0.961 . S
C3079 H3094 0.961 . S
C3079 H3095 0.961 1_455 S
C3080 C3081 1.370 1_455 S
C3080 C3082 1.363 . S
C3080 H3096 0.931 . S
C3081 C3080 1.370 1_655 S
C3081 C3085 1.408 . S
C3082 C3080 1.363 . S
C3082 C3083 1.370 . S
C3082 C3086 1.524 . S
C3083 C3075 1.503 . S
C3083 C3082 1.370 . S
C3083 C3084 1.403 . S
C3084 C3083 1.403 . S
C3084 C3085 1.404 1_455 S
C3084 C3087 1.554 . S
C3085 C3081 1.408 . S
C3085 C3084 1.404 1_655 S
C3085 H3097 0.930 . S
C3086 C3082 1.524 . S
C3086 H3098 0.956 . S
C3086 H3099 0.961 . S
C3086 H3100 0.961 . S
C3087 C3084 1.554 . S
C3087 H3101 0.974 . S
C3087 H3102 0.938 1_455 S
C3087 H3103 0.952 . S
H3088 C3072 0.931 . S
H3089 C3077 0.929 . S
H3090 C3078 0.960 . S
H3091 C3078 0.962 . S
H3092 C3078 0.960 . S
H3093 C3079 0.961 . S
H3094 C3079 0.961 . S
H3095 C3079 0.961 1_655 S
H3096 C3080 0.931 . S
H3097 C3085 0.930 . S
H3098 C3086 0.956 . S
H3099 C3086 0.961 . S
H3100 C3086 0.961 . S
H3101 C3087 0.974 . S
H3102 C3087 0.938 1_655 S
H3103 C3087 0.952 . S
C3104 C3105 1.391 . S
C3104 C3106 1.394 . S
C3104 H3120 0.931 . S
C3105 C3104 1.391 . S
C3105 C3109 1.376 . S
C3106 C3104 1.394 . S
C3106 C3107 1.369 . S
C3106 C3110 1.531 . S
C3107 C3106 1.369 . S
C3107 C3108 1.410 . S
C3107 C3115 1.503 . S
C3108 C3107 1.410 . S
C3108 C3109 1.392 . S
C3108 C3111 1.511 . S
C3109 C3105 1.376 . S
C3109 C3108 1.392 . S
C3109 H3121 0.929 . S
C3110 C3106 1.531 . S
C3110 H3122 0.960 . S
C3110 H3123 0.962 . S
C3110 H3124 0.960 . S
C3111 C3108 1.511 . S
C3111 H3125 0.961 . S
C3111 H3126 0.961 . S
C3111 H3127 0.961 . S
C3112 C3113 1.370 . S
C3112 C3114 1.363 . S
C3112 H3128 0.931 . S
C3113 C3112 1.370 . S
C3113 C3117 1.408 . S
C3114 C3112 1.363 . S
C3114 C3115 1.370 . S
C3114 C3118 1.524 . S
C3115 C3107 1.503 . S
C3115 C3114 1.370 . S
C3115 C3116 1.403 . S
C3116 C3115 1.403 . S
C3116 C3117 1.404 . S
C3116 C3119 1.539 . S
C3117 C3113 1.408 . S
C3117 C3116 1.404 . S
C3117 H3129 0.930 . S
C3118 C3114 1.524 . S
C3118 H3130 0.956 . S
C3118 H3131 0.961 . S
C3118 H3132 0.961 . S
C3119 C3116 1.539 . S
C3119 H3133 0.958 . S
C3119 H3134 0.961 . S
C3119 H3135 0.960 . S
H3120 C3104 0.931 . S
H3121 C3109 0.929 . S
H3122 C3110 0.960 . S
H3123 C3110 0.962 . S
H3124 C3110 0.960 . S
H3125 C3111 0.961 . S
H3126 C3111 0.961 . S
H3127 C3111 0.961 . S
H3128 C3112 0.931 . S
H3129 C3117 0.930 . S
H3130 C3118 0.956 . S
H3131 C3118 0.961 . S
H3132 C3118 0.961 . S
H3133 C3119 0.958 . S
H3134 C3119 0.961 . S
H3135 C3119 0.960 . S
C3136 C3137 1.391 . S
C3136 C3138 1.394 . S
C3136 H3152 0.931 . S
C3137 C3136 1.391 . S
C3137 C3141 1.376 . S
C3138 C3136 1.394 . S
C3138 C3139 1.369 . S
C3138 C3142 1.531 . S
C3139 C3138 1.369 . S
C3139 C3140 1.410 . S
C3139 C3147 1.503 . S
C3140 C3139 1.410 . S
C3140 C3141 1.392 . S
C3140 C3143 1.511 . S
C3141 C3137 1.376 . S
C3141 C3140 1.392 . S
C3141 H3153 0.929 . S
C3142 C3138 1.531 . S
C3142 H3154 0.960 . S
C3142 H3155 0.962 . S
C3142 H3156 0.960 . S
C3143 C3140 1.511 . S
C3143 H3157 0.961 . S
C3143 H3158 0.961 . S
C3143 H3159 0.961 . S
C3144 C3145 1.370 1_565 S
C3144 C3146 1.363 . S
C3144 H3160 0.931 . S
C3145 C3144 1.370 1_545 S
C3145 C3149 1.408 . S
C3146 C3144 1.363 . S
C3146 C3147 1.370 . S
C3146 C3150 1.524 . S
C3147 C3139 1.503 . S
C3147 C3146 1.370 . S
C3147 C3148 1.403 . S
C3148 C3147 1.403 . S
C3148 C3149 1.404 1_565 S
C3148 C3151 1.539 1_565 S
C3149 C3145 1.408 . S
C3149 C3148 1.404 1_545 S
C3149 H3161 0.930 . S
C3150 C3146 1.524 . S
C3150 H3162 0.956 . S
C3150 H3163 0.961 . S
C3150 H3164 0.961 . S
C3151 C3148 1.539 1_545 S
C3151 H3165 0.958 . S
C3151 H3166 0.961 . S
C3151 H3167 0.960 1_545 S
H3152 C3136 0.931 . S
H3153 C3141 0.929 . S
H3154 C3142 0.960 . S
H3155 C3142 0.962 . S
H3156 C3142 0.960 . S
H3157 C3143 0.961 . S
H3158 C3143 0.961 . S
H3159 C3143 0.961 . S
H3160 C3144 0.931 . S
H3161 C3149 0.930 . S
H3162 C3150 0.956 . S
H3163 C3150 0.961 . S
H3164 C3150 0.961 . S
H3165 C3151 0.958 . S
H3166 C3151 0.961 . S
H3167 C3151 0.960 1_565 S
C3168 C3169 1.391 . S
C3168 C3170 1.394 . S
C3168 H3184 0.931 . S
C3169 C3168 1.391 . S
C3169 C3173 1.376 . S
C3170 C3168 1.394 . S
C3170 C3171 1.369 . S
C3170 C3174 1.531 . S
C3171 C3170 1.369 . S
C3171 C3172 1.410 . S
C3171 C3179 1.503 . S
C3172 C3171 1.410 . S
C3172 C3173 1.392 . S
C3172 C3175 1.511 . S
C3173 C3169 1.376 . S
C3173 C3172 1.392 . S
C3173 H3185 0.929 . S
C3174 C3170 1.531 . S
C3174 H3186 0.960 1_565 S
C3174 H3187 0.962 1_565 S
C3174 H3188 0.960 1_565 S
C3175 C3172 1.511 . S
C3175 H3189 0.961 . S
C3175 H3190 0.961 . S
C3175 H3191 0.961 . S
C3176 C3177 1.370 1_565 S
C3176 C3178 1.363 . S
C3176 H3192 0.931 . S
C3177 C3176 1.370 1_545 S
C3177 C3181 1.408 1_545 S
C3178 C3176 1.363 . S
C3178 C3179 1.370 . S
C3178 C3182 1.524 . S
C3179 C3171 1.503 . S
C3179 C3178 1.370 . S
C3179 C3180 1.403 . S
C3180 C3179 1.403 . S
C3180 C3181 1.404 . S
C3180 C3183 1.539 . S
C3181 C3177 1.408 1_565 S
C3181 C3180 1.404 . S
C3181 H3193 0.930 1_565 S
C3182 C3178 1.524 . S
C3182 H3194 0.956 . S
C3182 H3195 0.961 . S
C3182 H3196 0.961 . S
C3183 C3180 1.539 . S
C3183 H3197 0.958 . S
C3183 H3198 0.961 . S
C3183 H3199 0.960 . S
H3184 C3168 0.931 . S
H3185 C3173 0.929 . S
H3186 C3174 0.960 1_545 S
H3187 C3174 0.962 1_545 S
H3188 C3174 0.960 1_545 S
H3189 C3175 0.961 . S
H3190 C3175 0.961 . S
H3191 C3175 0.961 . S
H3192 C3176 0.931 . S
H3193 C3181 0.930 1_545 S
H3194 C3182 0.956 . S
H3195 C3182 0.961 . S
H3196 C3182 0.961 . S
H3197 C3183 0.958 . S
H3198 C3183 0.961 . S
H3199 C3183 0.960 . S
C3200 C3201 1.391 . S
C3200 C3202 1.394 1_655 S
C3200 H3216 0.931 . S
C3201 C3200 1.391 . S
C3201 C3205 1.376 1_655 S
C3202 C3200 1.394 1_455 S
C3202 C3203 1.369 . S
C3202 C3206 1.531 1_455 S
C3203 C3202 1.369 . S
C3203 C3204 1.410 . S
C3203 C3211 1.503 . S
C3204 C3203 1.410 . S
C3204 C3205 1.392 . S
C3204 C3207 1.511 . S
C3205 C3201 1.376 1_455 S
C3205 C3204 1.392 . S
C3205 H3217 0.929 . S
C3206 C3202 1.531 1_655 S
C3206 H3218 0.960 1_655 S
C3206 H3219 0.962 1_655 S
C3206 H3220 0.960 . S
C3207 C3204 1.511 . S
C3207 H3221 0.961 . S
C3207 H3222 0.961 . S
C3207 H3223 0.961 . S
C3208 C3209 1.370 . S
C3208 C3210 1.363 . S
C3208 H3224 0.931 . S
C3209 C3208 1.370 . S
C3209 C3213 1.408 . S
C3210 C3208 1.363 . S
C3210 C3211 1.370 . S
C3210 C3214 1.524 . S
C3211 C3203 1.503 . S
C3211 C3210 1.370 . S
C3211 C3212 1.403 . S
C3212 C3211 1.403 . S
C3212 C3213 1.404 . S
C3212 C3215 1.539 . S
C3213 C3209 1.408 . S
C3213 C3212 1.404 . S
C3213 H3225 0.930 . S
C3214 C3210 1.524 . S
C3214 H3226 0.956 . S
C3214 H3227 0.961 . S
C3214 H3228 0.961 . S
C3215 C3212 1.539 . S
C3215 H3229 0.958 1_455 S
C3215 H3230 0.961 . S
C3215 H3231 0.960 . S
H3216 C3200 0.931 . S
H3217 C3205 0.929 . S
H3218 C3206 0.960 1_455 S
H3219 C3206 0.962 1_455 S
H3220 C3206 0.960 . S
H3221 C3207 0.961 . S
H3222 C3207 0.961 . S
H3223 C3207 0.961 . S
H3224 C3208 0.931 . S
H3225 C3213 0.930 . S
H3226 C3214 0.956 . S
H3227 C3214 0.961 . S
H3228 C3214 0.961 . S
H3229 C3215 0.958 1_655 S
H3230 C3215 0.961 . S
H3231 C3215 0.960 . S
C3232 C3233 1.391 . S
C3232 C3234 1.394 . S
C3232 H3248 0.931 . S
C3233 C3232 1.391 . S
C3233 C3237 1.376 . S
C3234 C3232 1.394 . S
C3234 C3235 1.369 . S
C3234 C3238 1.531 . S
C3235 C3234 1.369 . S
C3235 C3236 1.410 . S
C3235 C3243 1.503 . S
C3236 C3235 1.410 . S
C3236 C3237 1.392 . S
C3236 C3239 1.511 . S
C3237 C3233 1.376 . S
C3237 C3236 1.392 . S
C3237 H3249 0.929 . S
C3238 C3234 1.531 . S
C3238 H3250 0.960 . S
C3238 H3251 0.962 . S
C3238 H3252 0.960 . S
C3239 C3236 1.511 . S
C3239 H3253 0.961 . S
C3239 H3254 0.961 . S
C3239 H3255 0.961 . S
C3240 C3241 1.370 . S
C3240 C3242 1.363 . S
C3240 H3256 0.931 . S
C3241 C3240 1.370 . S
C3241 C3245 1.408 . S
C3242 C3240 1.363 . S
C3242 C3243 1.370 . S
C3242 C3246 1.524 . S
C3243 C3235 1.503 . S
C3243 C3242 1.370 . S
C3243 C3244 1.403 . S
C3244 C3243 1.403 . S
C3244 C3245 1.404 . S
C3244 C3247 1.539 . S
C3245 C3241 1.408 . S
C3245 C3244 1.404 . S
C3245 H3257 0.930 . S
C3246 C3242 1.524 . S
C3246 H3258 0.956 . S
C3246 H3259 0.961 . S
C3246 H3260 0.961 . S
C3247 C3244 1.539 . S
C3247 H3261 0.958 . S
C3247 H3262 0.961 . S
C3247 H3263 0.960 . S
H3248 C3232 0.931 . S
H3249 C3237 0.929 . S
H3250 C3238 0.960 . S
H3251 C3238 0.962 . S
H3252 C3238 0.960 . S
H3253 C3239 0.961 . S
H3254 C3239 0.961 . S
H3255 C3239 0.961 . S
H3256 C3240 0.931 . S
H3257 C3245 0.930 . S
H3258 C3246 0.956 . S
H3259 C3246 0.961 . S
H3260 C3246 0.961 . S
H3261 C3247 0.958 . S
H3262 C3247 0.961 . S
H3263 C3247 0.960 . S
C3264 C3265 1.405 . S
C3264 C3266 1.394 . S
C3264 H3280 0.931 . S
C3265 C3264 1.405 . S
C3265 C3269 1.366 1_556 S
C3266 C3264 1.394 . S
C3266 C3267 1.369 . S
C3266 C3270 1.531 . S
C3267 C3266 1.369 . S
C3267 C3268 1.410 1_556 S
C3267 C3275 1.503 1_565 S
C3268 C3267 1.410 1_554 S
C3268 C3269 1.392 . S
C3268 C3271 1.511 . S
C3269 C3265 1.366 1_554 S
C3269 C3268 1.392 . S
C3269 H3281 0.929 . S
C3270 C3266 1.531 . S
C3270 H3282 0.960 . S
C3270 H3283 0.962 . S
C3270 H3284 0.960 . S
C3271 C3268 1.511 . S
C3271 H3285 0.961 . S
C3271 H3286 0.961 . S
C3271 H3287 0.961 . S
C3272 C3273 1.370 1_554 S
C3272 C3274 1.363 . S
C3272 H3288 0.931 . S
C3273 C3272 1.370 1_556 S
C3273 C3277 1.408 . S
C3274 C3272 1.363 . S
C3274 C3275 1.370 1_554 S
C3274 C3278 1.524 1_545 S
C3275 C3267 1.503 1_545 S
C3275 C3274 1.370 1_556 S
C3275 C3276 1.403 . S
C3276 C3275 1.403 . S
C3276 C3277 1.404 . S
C3276 C3279 1.539 . S
C3277 C3273 1.408 . S
C3277 C3276 1.404 . S
C3277 H3289 0.930 . S
C3278 C3274 1.524 1_565 S
C3278 H3290 0.956 . S
C3278 H3291 0.961 . S
C3278 H3292 0.961 1_565 S
C3279 C3276 1.539 . S
C3279 H3293 0.958 1_545 S
C3279 H3294 0.961 . S
C3279 H3295 0.960 1_545 S
H3280 C3264 0.931 . S
H3281 C3269 0.929 . S
H3282 C3270 0.960 . S
H3283 C3270 0.962 . S
H3284 C3270 0.960 . S
H3285 C3271 0.961 . S
H3286 C3271 0.961 . S
H3287 C3271 0.961 . S
H3288 C3272 0.931 . S
H3289 C3277 0.930 . S
H3290 C3278 0.956 . S
H3291 C3278 0.961 . S
H3292 C3278 0.961 1_545 S
H3293 C3279 0.958 1_565 S
H3294 C3279 0.961 . S
H3295 C3279 0.960 1_565 S
C3296 C3297 1.397 . S
C3296 C3298 1.394 . S
C3296 H3312 0.931 . S
C3297 C3296 1.397 . S
C3297 C3301 1.380 . S
C3298 C3296 1.394 . S
C3298 C3299 1.369 . S
C3298 C3302 1.531 . S
C3299 C3298 1.369 . S
C3299 C3300 1.410 . S
C3299 C3307 1.503 1_455 S
C3300 C3299 1.410 . S
C3300 C3301 1.392 . S
C3300 C3303 1.511 . S
C3301 C3297 1.380 . S
C3301 C3300 1.392 . S
C3301 H3313 0.939 . S
C3302 C3298 1.531 . S
C3302 H3314 0.960 . S
C3302 H3315 0.962 1_556 S
C3302 H3316 0.960 . S
C3303 C3300 1.511 . S
C3303 H3317 0.958 . S
C3303 H3318 1.018 . S
C3303 H3319 0.961 . S
C3304 C3305 1.370 1_554 S
C3304 C3306 1.363 . S
C3304 H3320 0.931 . S
C3305 C3304 1.370 1_556 S
C3305 C3309 1.408 . S
C3306 C3304 1.363 . S
C3306 C3307 1.370 1_554 S
C3306 C3310 1.524 . S
C3307 C3299 1.503 1_655 S
C3307 C3306 1.370 1_556 S
C3307 C3308 1.403 . S
C3308 C3307 1.403 . S
C3308 C3309 1.404 . S
C3308 C3311 1.539 1_655 S
C3309 C3305 1.408 . S
C3309 C3308 1.404 . S
C3309 H3321 0.930 . S
C3310 C3306 1.524 . S
C3310 H3322 0.956 1_655 S
C3310 H3323 0.961 1_655 S
C3310 H3324 0.961 . S
C3311 C3308 1.539 1_455 S
C3311 H3325 0.958 . S
C3311 H3326 0.961 1_455 S
C3311 H3327 0.960 . S
H3312 C3296 0.931 . S
H3313 C3301 0.939 . S
H3314 C3302 0.960 . S
H3315 C3302 0.962 1_554 S
H3316 C3302 0.960 . S
H3317 C3303 0.958 . S
H3318 C3303 1.018 . S
H3319 C3303 0.961 . S
H3320 C3304 0.931 . S
H3321 C3309 0.930 . S
H3322 C3310 0.956 1_455 S
H3323 C3310 0.961 1_455 S
H3324 C3310 0.961 . S
H3325 C3311 0.958 . S
H3326 C3311 0.961 1_655 S
H3327 C3311 0.960 . S
C3328 C3329 1.391 . S
C3328 C3330 1.394 . S
C3328 H3344 0.931 . S
C3329 C3328 1.391 . S
C3329 C3333 1.376 1_556 S
C3330 C3328 1.394 . S
C3330 C3331 1.369 . S
C3330 C3334 1.531 . S
C3331 C3330 1.369 . S
C3331 C3332 1.410 1_556 S
C3331 C3339 1.503 . S
C3332 C3331 1.410 1_554 S
C3332 C3333 1.392 . S
C3332 C3335 1.511 . S
C3333 C3329 1.376 1_554 S
C3333 C3332 1.392 . S
C3333 H3345 0.929 . S
C3334 C3330 1.531 . S
C3334 H3346 0.960 . S
C3334 H3347 0.962 . S
C3334 H3348 0.960 . S
C3335 C3332 1.511 . S
C3335 H3349 0.961 . S
C3335 H3350 0.961 . S
C3335 H3351 0.961 . S
C3336 C3337 1.369 . S
C3336 C3338 1.363 . S
C3336 H3352 0.931 . S
C3337 C3336 1.369 . S
C3337 C3341 1.410 1_554 S
C3338 C3336 1.363 . S
C3338 C3339 1.370 1_554 S
C3338 C3342 1.524 . S
C3339 C3331 1.503 . S
C3339 C3338 1.370 1_556 S
C3339 C3340 1.403 . S
C3340 C3339 1.403 . S
C3340 C3341 1.404 . S
C3340 C3343 1.539 . S
C3341 C3337 1.410 1_556 S
C3341 C3340 1.404 . S
C3341 H3353 0.930 . S
C3342 C3338 1.524 . S
C3342 H3354 0.981 . S
C3342 H3355 0.961 . S
C3342 H3356 0.961 . S
C3343 C3340 1.539 . S
C3343 H3357 0.958 . S
C3343 H3358 0.961 . S
C3343 H3359 0.960 . S
H3344 C3328 0.931 . S
H3345 C3333 0.929 . S
H3346 C3334 0.960 . S
H3347 C3334 0.962 . S
H3348 C3334 0.960 . S
H3349 C3335 0.961 . S
H3350 C3335 0.961 . S
H3351 C3335 0.961 . S
H3352 C3336 0.931 . S
H3353 C3341 0.930 . S
H3354 C3342 0.981 . S
H3355 C3342 0.961 . S
H3356 C3342 0.961 . S
H3357 C3343 0.958 . S
H3358 C3343 0.961 . S
H3359 C3343 0.960 . S
C3360 C3361 1.391 . S
C3360 C3362 1.394 . S
C3360 H3376 0.931 . S
C3361 C3360 1.391 . S
C3361 C3365 1.376 . S
C3362 C3360 1.394 . S
C3362 C3363 1.369 . S
C3362 C3366 1.531 . S
C3363 C3362 1.369 . S
C3363 C3364 1.410 . S
C3363 C3371 1.503 . S
C3364 C3363 1.410 . S
C3364 C3365 1.392 . S
C3364 C3367 1.511 . S
C3365 C3361 1.376 . S
C3365 C3364 1.392 . S
C3365 H3377 0.929 . S
C3366 C3362 1.531 . S
C3366 H3378 0.960 . S
C3366 H3379 0.962 . S
C3366 H3380 0.960 . S
C3367 C3364 1.511 . S
C3367 H3381 0.961 . S
C3367 H3382 0.961 . S
C3367 H3383 0.961 1_545 S
C3368 C3369 1.370 1_545 S
C3368 C3370 1.363 . S
C3368 H3384 0.931 . S
C3369 C3368 1.370 1_565 S
C3369 C3373 1.408 . S
C3370 C3368 1.363 . S
C3370 C3371 1.370 . S
C3370 C3374 1.524 . S
C3371 C3363 1.503 . S
C3371 C3370 1.370 . S
C3371 C3372 1.403 . S
C3372 C3371 1.403 . S
C3372 C3373 1.404 1_545 S
C3372 C3375 1.539 . S
C3373 C3369 1.408 . S
C3373 C3372 1.404 1_565 S
C3373 H3385 0.930 . S
C3374 C3370 1.524 . S
C3374 H3386 0.956 . S
C3374 H3387 0.961 . S
C3374 H3388 0.961 . S
C3375 C3372 1.539 . S
C3375 H3389 0.958 . S
C3375 H3390 0.961 1_545 S
C3375 H3391 0.960 . S
H3376 C3360 0.931 . S
H3377 C3365 0.929 . S
H3378 C3366 0.960 . S
H3379 C3366 0.962 . S
H3380 C3366 0.960 . S
H3381 C3367 0.961 . S
H3382 C3367 0.961 . S
H3383 C3367 0.961 1_565 S
H3384 C3368 0.931 . S
H3385 C3373 0.930 . S
H3386 C3374 0.956 . S
H3387 C3374 0.961 . S
H3388 C3374 0.961 . S
H3389 C3375 0.958 . S
H3390 C3375 0.961 1_565 S
H3391 C3375 0.960 . S
C3392 C3393 1.391 . S
C3392 C3394 1.394 . S
C3392 H3408 0.931 . S
C3393 C3392 1.391 . S
C3393 C3397 1.376 . S
C3394 C3392 1.394 . S
C3394 C3395 1.369 . S
C3394 C3398 1.531 . S
C3395 C3394 1.369 . S
C3395 C3396 1.410 . S
C3395 C3403 1.503 . S
C3396 C3395 1.410 . S
C3396 C3397 1.392 . S
C3396 C3399 1.511 . S
C3397 C3393 1.376 . S
C3397 C3396 1.392 . S
C3397 H3409 0.929 . S
C3398 C3394 1.531 . S
C3398 H3410 0.960 . S
C3398 H3411 0.962 . S
C3398 H3412 0.960 . S
C3399 C3396 1.511 . S
C3399 H3413 0.961 . S
C3399 H3414 0.961 . S
C3399 H3415 0.961 . S
C3400 C3401 1.370 1_655 S
C3400 C3402 1.363 . S
C3400 H3416 0.931 . S
C3401 C3400 1.370 1_455 S
C3401 C3405 1.408 . S
C3402 C3400 1.363 . S
C3402 C3403 1.370 . S
C3402 C3406 1.524 . S
C3403 C3395 1.503 . S
C3403 C3402 1.370 . S
C3403 C3404 1.416 . S
C3404 C3403 1.416 . S
C3404 C3405 1.389 1_655 S
C3404 C3407 1.539 1_655 S
C3405 C3401 1.408 . S
C3405 C3404 1.389 1_455 S
C3405 H3417 0.930 . S
C3406 C3402 1.524 . S
C3406 H3418 0.956 . S
C3406 H3419 0.961 . S
C3406 H3420 0.961 . S
C3407 C3404 1.539 1_455 S
C3407 H3421 0.958 . S
C3407 H3422 0.961 . S
C3407 H3423 0.960 . S
H3408 C3392 0.931 . S
H3409 C3397 0.929 . S
H3410 C3398 0.960 . S
H3411 C3398 0.962 . S
H3412 C3398 0.960 . S
H3413 C3399 0.961 . S
H3414 C3399 0.961 . S
H3415 C3399 0.961 . S
H3416 C3400 0.931 . S
H3417 C3405 0.930 . S
H3418 C3406 0.956 . S
H3419 C3406 0.961 . S
H3420 C3406 0.961 . S
H3421 C3407 0.958 . S
H3422 C3407 0.961 . S
H3423 C3407 0.960 . S
C3424 C3425 1.391 . S
C3424 C3426 1.394 . S
C3424 H3440 0.931 . S
C3425 C3424 1.391 . S
C3425 C3429 1.376 . S
C3426 C3424 1.394 . S
C3426 C3427 1.369 . S
C3426 C3430 1.531 . S
C3427 C3426 1.369 . S
C3427 C3428 1.410 . S
C3427 C3435 1.503 . S
C3428 C3427 1.410 . S
C3428 C3429 1.392 . S
C3428 C3431 1.511 . S
C3429 C3425 1.376 . S
C3429 C3428 1.392 . S
C3429 H3441 0.929 . S
C3430 C3426 1.531 . S
C3430 H3442 0.960 . S
C3430 H3443 0.962 . S
C3430 H3444 0.960 . S
C3431 C3428 1.511 . S
C3431 H3445 0.961 . S
C3431 H3446 0.961 . S
C3431 H3447 0.961 . S
C3432 C3433 1.370 . S
C3432 C3434 1.363 . S
C3432 H3448 0.931 . S
C3433 C3432 1.370 . S
C3433 C3437 1.408 . S
C3434 C3432 1.363 . S
C3434 C3435 1.370 . S
C3434 C3438 1.524 . S
C3435 C3427 1.503 . S
C3435 C3434 1.370 . S
C3435 C3436 1.403 . S
C3436 C3435 1.403 . S
C3436 C3437 1.404 . S
C3436 C3439 1.539 . S
C3437 C3433 1.408 . S
C3437 C3436 1.404 . S
C3437 H3449 0.930 . S
C3438 C3434 1.524 . S
C3438 H3450 0.956 . S
C3438 H3451 0.961 . S
C3438 H3452 0.961 . S
C3439 C3436 1.539 . S
C3439 H3453 0.958 . S
C3439 H3454 0.961 . S
C3439 H3455 0.960 . S
H3440 C3424 0.931 . S
H3441 C3429 0.929 . S
H3442 C3430 0.960 . S
H3443 C3430 0.962 . S
H3444 C3430 0.960 . S
H3445 C3431 0.961 . S
H3446 C3431 0.961 . S
H3447 C3431 0.961 . S
H3448 C3432 0.931 . S
H3449 C3437 0.930 . S
H3450 C3438 0.956 . S
H3451 C3438 0.961 . S
H3452 C3438 0.961 . S
H3453 C3439 0.958 . S
H3454 C3439 0.961 . S
H3455 C3439 0.960 . S
C3456 C3457 1.390 . S
C3456 C3458 1.394 1_554 S
C3456 H3472 0.919 1_554 S
C3457 C3456 1.390 . S
C3457 C3461 1.376 . S
C3458 C3456 1.394 1_556 S
C3458 C3459 1.369 1_556 S
C3458 C3462 1.531 . S
C3459 C3458 1.369 1_554 S
C3459 C3460 1.410 . S
C3459 C3467 1.503 1_564 S
C3460 C3459 1.410 . S
C3460 C3461 1.392 . S
C3460 C3463 1.511 1_565 S
C3461 C3457 1.376 . S
C3461 C3460 1.392 . S
C3461 H3473 0.929 . S
C3462 C3458 1.531 . S
C3462 H3474 0.960 1_565 S
C3462 H3475 0.865 1_556 S
C3462 H3476 0.960 . S
C3463 C3460 1.511 1_545 S
C3463 H3477 0.961 1_545 S
C3463 H3478 0.961 . S
C3463 H3479 0.961 1_554 S
C3464 C3465 1.325 1_554 S
C3464 C3466 1.363 . S
C3464 H3480 0.931 . S
C3465 C3464 1.325 1_556 S
C3465 C3469 1.455 . S
C3466 C3464 1.363 . S
C3466 C3467 1.367 1_554 S
C3466 C3470 1.524 . S
C3467 C3459 1.503 1_546 S
C3467 C3466 1.367 1_556 S
C3467 C3468 1.406 . S
C3468 C3467 1.406 . S
C3468 C3469 1.404 . S
C3468 C3471 1.539 . S
C3469 C3465 1.455 . S
C3469 C3468 1.404 . S
C3469 H3481 0.930 . S
C3470 C3466 1.524 . S
C3470 H3482 0.956 . S
C3470 H3483 0.961 . S
C3470 H3484 0.961 . S
C3471 C3468 1.539 . S
C3471 H3485 0.958 . S
C3471 H3486 0.961 . S
C3471 H3487 0.960 . S
H3472 C3456 0.919 1_556 S
H3473 C3461 0.929 . S
H3474 C3462 0.960 1_545 S
H3475 C3462 0.865 1_554 S
H3476 C3462 0.960 . S
H3477 C3463 0.961 1_565 S
H3478 C3463 0.961 . S
H3479 C3463 0.961 1_556 S
H3480 C3464 0.931 . S
H3481 C3469 0.930 . S
H3482 C3470 0.956 . S
H3483 C3470 0.961 . S
H3484 C3470 0.961 . S
H3485 C3471 0.958 . S
H3486 C3471 0.961 . S
H3487 C3471 0.960 . S
C3488 C3489 1.387 . S
C3488 C3490 1.394 . S
C3488 H3504 0.931 . S
C3489 C3488 1.387 . S
C3489 C3493 1.380 1_556 S
C3490 C3488 1.394 . S
C3490 C3491 1.369 1_556 S
C3490 C3494 1.531 . S
C3491 C3490 1.369 1_554 S
C3491 C3492 1.410 . S
C3491 C3499 1.503 1_655 S
C3492 C3491 1.410 . S
C3492 C3493 1.392 . S
C3492 C3495 1.511 . S
C3493 C3489 1.380 1_554 S
C3493 C3492 1.392 . S
C3493 H3505 0.929 . S
C3494 C3490 1.531 . S
C3494 H3506 0.960 . S
C3494 H3507 0.962 . S
C3494 H3508 0.960 . S
C3495 C3492 1.511 . S
C3495 H3509 0.961 . S
C3495 H3510 0.961 . S
C3495 H3511 0.961 . S
C3496 C3497 1.374 . S
C3496 C3498 1.362 1_554 S
C3496 H3512 0.928 1_554 S
C3497 C3496 1.374 . S
C3497 C3501 1.408 . S
C3498 C3496 1.362 1_556 S
C3498 C3499 1.363 1_556 S
C3498 C3502 1.534 1_455 S
C3499 C3491 1.503 1_455 S
C3499 C3498 1.363 1_554 S
C3499 C3500 1.403 . S
C3500 C3499 1.403 . S
C3500 C3501 1.404 . S
C3500 C3503 1.539 . S
C3501 C3497 1.408 . S
C3501 C3500 1.404 . S
C3501 H3513 0.930 . S
C3502 C3498 1.534 1_655 S
C3502 H3514 0.956 . S
C3502 H3515 0.938 1_556 S
C3502 H3516 0.961 1_655 S
C3503 C3500 1.539 . S
C3503 H3517 0.958 . S
C3503 H3518 0.961 . S
C3503 H3519 0.960 1_455 S
H3504 C3488 0.931 . S
H3505 C3493 0.929 . S
H3506 C3494 0.960 . S
H3507 C3494 0.962 . S
H3508 C3494 0.960 . S
H3509 C3495 0.961 . S
H3510 C3495 0.961 . S
H3511 C3495 0.961 . S
H3512 C3496 0.928 1_556 S
H3513 C3501 0.930 . S
H3514 C3502 0.956 . S
H3515 C3502 0.938 1_554 S
H3516 C3502 0.961 1_455 S
H3517 C3503 0.958 . S
H3518 C3503 0.961 . S
H3519 C3503 0.960 1_655 S
C3520 C3521 1.391 . S
C3520 C3522 1.394 . S
C3520 H3536 0.931 . S
C3521 C3520 1.391 . S
C3521 C3525 1.376 . S
C3522 C3520 1.394 . S
C3522 C3523 1.369 . S
C3522 C3526 1.531 . S
C3523 C3522 1.369 . S
C3523 C3524 1.410 . S
C3523 C3531 1.503 . S
C3524 C3523 1.410 . S
C3524 C3525 1.392 . S
C3524 C3527 1.540 . S
C3525 C3521 1.376 . S
C3525 C3524 1.392 . S
C3525 H3537 0.929 . S
C3526 C3522 1.531 . S
C3526 H3538 0.960 . S
C3526 H3539 0.962 . S
C3526 H3540 0.960 . S
C3527 C3524 1.540 . S
C3527 H3541 0.894 1_554 S
C3527 H3542 0.903 1_554 S
C3527 H3543 1.078 . S
C3528 C3529 1.367 1_556 S
C3528 C3530 1.363 . S
C3528 H3544 0.931 . S
C3529 C3528 1.367 1_554 S
C3529 C3533 1.413 . S
C3530 C3528 1.363 . S
C3530 C3531 1.370 1_556 S
C3530 C3534 1.524 . S
C3531 C3523 1.503 . S
C3531 C3530 1.370 1_554 S
C3531 C3532 1.403 . S
C3532 C3531 1.403 . S
C3532 C3533 1.404 . S
C3532 C3535 1.539 . S
C3533 C3529 1.413 . S
C3533 C3532 1.404 . S
C3533 H3545 0.930 . S
C3534 C3530 1.524 . S
C3534 H3546 0.956 . S
C3534 H3547 0.961 . S
C3534 H3548 0.961 . S
C3535 C3532 1.539 . S
C3535 H3549 0.958 . S
C3535 H3550 0.961 . S
C3535 H3551 0.960 . S
H3536 C3520 0.931 . S
H3537 C3525 0.929 . S
H3538 C3526 0.960 . S
H3539 C3526 0.962 . S
H3540 C3526 0.960 . S
H3541 C3527 0.894 1_556 S
H3542 C3527 0.903 1_556 S
H3543 C3527 1.078 . S
H3544 C3528 0.931 . S
H3545 C3533 0.930 . S
H3546 C3534 0.956 . S
H3547 C3534 0.961 . S
H3548 C3534 0.961 . S
H3549 C3535 0.958 . S
H3550 C3535 0.961 . S
H3551 C3535 0.960 . S
C3552 C3553 1.391 . S
C3552 C3554 1.394 . S
C3552 H3568 0.931 . S
C3553 C3552 1.391 . S
C3553 C3557 1.376 . S
C3554 C3552 1.394 . S
C3554 C3555 1.369 1_455 S
C3554 C3558 1.531 . S
C3555 C3554 1.369 1_655 S
C3555 C3556 1.410 1_655 S
C3555 C3563 1.503 . S
C3556 C3555 1.410 1_455 S
C3556 C3557 1.392 . S
C3556 C3559 1.511 1_455 S
C3557 C3553 1.376 . S
C3557 C3556 1.392 . S
C3557 H3569 0.929 . S
C3558 C3554 1.531 . S
C3558 H3570 0.960 1_455 S
C3558 H3571 0.962 1_455 S
C3558 H3572 0.960 . S
C3559 C3556 1.511 1_655 S
C3559 H3573 0.960 1_655 S
C3559 H3574 0.961 . S
C3559 H3575 0.961 . S
C3560 C3561 1.370 . S
C3560 C3562 1.363 . S
C3560 H3576 0.931 . S
C3561 C3560 1.370 . S
C3561 C3565 1.408 . S
C3562 C3560 1.363 . S
C3562 C3563 1.370 . S
C3562 C3566 1.524 . S
C3563 C3555 1.503 . S
C3563 C3562 1.370 . S
C3563 C3564 1.403 . S
C3564 C3563 1.403 . S
C3564 C3565 1.404 . S
C3564 C3567 1.539 . S
C3565 C3561 1.408 . S
C3565 C3564 1.404 . S
C3565 H3577 0.930 . S
C3566 C3562 1.524 . S
C3566 H3578 0.956 . S
C3566 H3579 0.961 . S
C3566 H3580 0.961 . S
C3567 C3564 1.539 . S
C3567 H3581 0.958 . S
C3567 H3582 0.961 . S
C3567 H3583 0.960 . S
H3568 C3552 0.931 . S
H3569 C3557 0.929 . S
H3570 C3558 0.960 1_655 S
H3571 C3558 0.962 1_655 S
H3572 C3558 0.960 . S
H3573 C3559 0.960 1_455 S
H3574 C3559 0.961 . S
H3575 C3559 0.961 . S
H3576 C3560 0.931 . S
H3577 C3565 0.930 . S
H3578 C3566 0.956 . S
H3579 C3566 0.961 . S
H3580 C3566 0.961 . S
H3581 C3567 0.958 . S
H3582 C3567 0.961 . S
H3583 C3567 0.960 . S
C3584 C3585 1.391 . S
C3584 C3586 1.394 . S
C3584 H3600 0.931 . S
C3585 C3584 1.391 . S
C3585 C3589 1.376 . S
C3586 C3584 1.394 . S
C3586 C3587 1.369 . S
C3586 C3590 1.531 . S
C3587 C3586 1.369 . S
C3587 C3588 1.410 . S
C3587 C3595 1.503 . S
C3588 C3587 1.410 . S
C3588 C3589 1.392 . S
C3588 C3591 1.511 . S
C3589 C3585 1.376 . S
C3589 C3588 1.392 . S
C3589 H3601 0.929 . S
C3590 C3586 1.531 . S
C3590 H3602 0.960 . S
C3590 H3603 0.962 . S
C3590 H3604 0.960 . S
C3591 C3588 1.511 . S
C3591 H3605 0.961 . S
C3591 H3606 0.961 . S
C3591 H3607 0.961 . S
C3592 C3593 1.370 . S
C3592 C3594 1.363 . S
C3592 H3608 0.931 . S
C3593 C3592 1.370 . S
C3593 C3597 1.408 . S
C3594 C3592 1.363 . S
C3594 C3595 1.370 . S
C3594 C3598 1.524 . S
C3595 C3587 1.503 . S
C3595 C3594 1.370 . S
C3595 C3596 1.403 . S
C3596 C3595 1.403 . S
C3596 C3597 1.404 . S
C3596 C3599 1.539 . S
C3597 C3593 1.408 . S
C3597 C3596 1.404 . S
C3597 H3609 0.930 . S
C3598 C3594 1.524 . S
C3598 H3610 0.956 . S
C3598 H3611 0.961 . S
C3598 H3612 0.961 . S
C3599 C3596 1.539 . S
C3599 H3613 0.958 . S
C3599 H3614 0.961 . S
C3599 H3615 0.960 . S
H3600 C3584 0.931 . S
H3601 C3589 0.929 . S
H3602 C3590 0.960 . S
H3603 C3590 0.962 . S
H3604 C3590 0.960 . S
H3605 C3591 0.961 . S
H3606 C3591 0.961 . S
H3607 C3591 0.961 . S
H3608 C3592 0.931 . S
H3609 C3597 0.930 . S
H3610 C3598 0.956 . S
H3611 C3598 0.961 . S
H3612 C3598 0.961 . S
H3613 C3599 0.958 . S
H3614 C3599 0.961 . S
H3615 C3599 0.960 . S
C3616 C3617 1.391 . S
C3616 C3618 1.394 . S
C3616 H3632 0.931 . S
C3617 C3616 1.391 . S
C3617 C3621 1.376 . S
C3618 C3616 1.394 . S
C3618 C3619 1.369 1_565 S
C3618 C3622 1.538 . S
C3619 C3618 1.369 1_545 S
C3619 C3620 1.410 1_545 S
C3619 C3627 1.503 . S
C3620 C3619 1.410 1_565 S
C3620 C3621 1.392 . S
C3620 C3623 1.511 1_565 S
C3621 C3617 1.376 . S
C3621 C3620 1.392 . S
C3621 H3633 0.929 . S
C3622 C3618 1.538 . S
C3622 H3634 0.953 1_565 S
C3622 H3635 0.959 1_565 S
C3622 H3636 0.962 . S
C3623 C3620 1.511 1_545 S
C3623 H3637 0.961 1_545 S
C3623 H3638 0.961 . S
C3623 H3639 0.961 . S
C3624 C3625 1.370 . S
C3624 C3626 1.363 . S
C3624 H3640 0.931 . S
C3625 C3624 1.370 . S
C3625 C3629 1.408 . S
C3626 C3624 1.363 . S
C3626 C3627 1.370 . S
C3626 C3630 1.524 . S
C3627 C3619 1.503 . S
C3627 C3626 1.370 . S
C3627 C3628 1.403 . S
C3628 C3627 1.403 . S
C3628 C3629 1.404 . S
C3628 C3631 1.539 . S
C3629 C3625 1.408 . S
C3629 C3628 1.404 . S
C3629 H3641 0.930 . S
C3630 C3626 1.524 . S
C3630 H3642 0.956 . S
C3630 H3643 0.961 . S
C3630 H3644 0.961 . S
C3631 C3628 1.539 . S
C3631 H3645 0.958 . S
C3631 H3646 0.961 . S
C3631 H3647 0.960 . S
H3632 C3616 0.931 . S
H3633 C3621 0.929 . S
H3634 C3622 0.953 1_545 S
H3635 C3622 0.959 1_545 S
H3636 C3622 0.962 . S
H3637 C3623 0.961 1_565 S
H3638 C3623 0.961 . S
H3639 C3623 0.961 . S
H3640 C3624 0.931 . S
H3641 C3629 0.930 . S
H3642 C3630 0.956 . S
H3643 C3630 0.961 . S
H3644 C3630 0.961 . S
H3645 C3631 0.958 . S
H3646 C3631 0.961 . S
H3647 C3631 0.960 . S
C3648 C3649 1.400 . S
C3648 C3650 1.394 1_455 S
C3648 H3664 0.931 . S
C3649 C3648 1.400 . S
C3649 C3653 1.365 1_455 S
C3650 C3648 1.394 1_655 S
C3650 C3651 1.369 . S
C3650 C3654 1.531 1_655 S
C3651 C3650 1.369 . S
C3651 C3652 1.410 . S
C3651 C3659 1.503 . S
C3652 C3651 1.410 . S
C3652 C3653 1.392 . S
C3652 C3655 1.511 . S
C3653 C3649 1.365 1_655 S
C3653 C3652 1.392 . S
C3653 H3665 0.929 . S
C3654 C3650 1.531 1_455 S
C3654 H3666 0.960 1_455 S
C3654 H3667 0.962 . S
C3654 H3668 0.960 . S
C3655 C3652 1.511 . S
C3655 H3669 0.961 . S
C3655 H3670 0.961 . S
C3655 H3671 0.961 . S
C3656 C3657 1.370 . S
C3656 C3658 1.363 . S
C3656 H3672 0.931 . S
C3657 C3656 1.370 . S
C3657 C3661 1.408 . S
C3658 C3656 1.363 . S
C3658 C3659 1.370 . S
C3658 C3662 1.524 . S
C3659 C3651 1.503 . S
C3659 C3658 1.370 . S
C3659 C3660 1.403 . S
C3660 C3659 1.403 . S
C3660 C3661 1.404 . S
C3660 C3663 1.539 . S
C3661 C3657 1.408 . S
C3661 C3660 1.404 . S
C3661 H3673 0.930 . S
C3662 C3658 1.524 . S
C3662 H3674 0.956 . S
C3662 H3675 0.961 . S
C3662 H3676 0.961 . S
C3663 C3660 1.539 . S
C3663 H3677 0.958 . S
C3663 H3678 0.961 . S
C3663 H3679 0.960 . S
H3664 C3648 0.931 . S
H3665 C3653 0.929 . S
H3666 C3654 0.960 1_655 S
H3667 C3654 0.962 . S
H3668 C3654 0.960 . S
H3669 C3655 0.961 . S
H3670 C3655 0.961 . S
H3671 C3655 0.961 . S
H3672 C3656 0.931 . S
H3673 C3661 0.930 . S
H3674 C3662 0.956 . S
H3675 C3662 0.961 . S
H3676 C3662 0.961 . S
H3677 C3663 0.958 . S
H3678 C3663 0.961 . S
H3679 C3663 0.960 . S
C3680 C3681 1.391 . S
C3680 C3682 1.394 . S
C3680 H3696 0.931 . S
C3681 C3680 1.391 . S
C3681 C3685 1.376 . S
C3682 C3680 1.394 . S
C3682 C3683 1.369 . S
C3682 C3686 1.531 . S
C3683 C3682 1.369 . S
C3683 C3684 1.410 . S
C3683 C3691 1.503 . S
C3684 C3683 1.410 . S
C3684 C3685 1.392 . S
C3684 C3687 1.511 . S
C3685 C3681 1.376 . S
C3685 C3684 1.392 . S
C3685 H3697 0.929 . S
C3686 C3682 1.531 . S
C3686 H3698 0.960 . S
C3686 H3699 0.962 . S
C3686 H3700 0.960 . S
C3687 C3684 1.511 . S
C3687 H3701 0.961 . S
C3687 H3702 0.961 . S
C3687 H3703 0.961 . S
C3688 C3689 1.370 . S
C3688 C3690 1.363 . S
C3688 H3704 0.931 . S
C3689 C3688 1.370 . S
C3689 C3693 1.408 . S
C3690 C3688 1.363 . S
C3690 C3691 1.370 . S
C3690 C3694 1.524 . S
C3691 C3683 1.503 . S
C3691 C3690 1.370 . S
C3691 C3692 1.403 . S
C3692 C3691 1.403 . S
C3692 C3693 1.404 . S
C3692 C3695 1.539 . S
C3693 C3689 1.408 . S
C3693 C3692 1.404 . S
C3693 H3705 0.930 . S
C3694 C3690 1.524 . S
C3694 H3706 0.956 . S
C3694 H3707 0.961 . S
C3694 H3708 0.961 . S
C3695 C3692 1.539 . S
C3695 H3709 0.958 . S
C3695 H3710 0.961 . S
C3695 H3711 0.960 . S
H3696 C3680 0.931 . S
H3697 C3685 0.929 . S
H3698 C3686 0.960 . S
H3699 C3686 0.962 . S
H3700 C3686 0.960 . S
H3701 C3687 0.961 . S
H3702 C3687 0.961 . S
H3703 C3687 0.961 . S
H3704 C3688 0.931 . S
H3705 C3693 0.930 . S
H3706 C3694 0.956 . S
H3707 C3694 0.961 . S
H3708 C3694 0.961 . S
H3709 C3695 0.958 . S
H3710 C3695 0.961 . S
H3711 C3695 0.960 . S
C3712 C3713 1.391 . S
C3712 C3714 1.394 . S
C3712 H3728 0.931 . S
C3713 C3712 1.391 . S
C3713 C3717 1.376 . S
C3714 C3712 1.394 . S
C3714 C3715 1.369 . S
C3714 C3718 1.531 . S
C3715 C3714 1.369 . S
C3715 C3716 1.410 . S
C3715 C3723 1.503 . S
C3716 C3715 1.410 . S
C3716 C3717 1.392 . S
C3716 C3719 1.511 . S
C3717 C3713 1.376 . S
C3717 C3716 1.392 . S
C3717 H3729 0.929 . S
C3718 C3714 1.531 . S
C3718 H3730 0.960 1_545 S
C3718 H3731 0.962 . S
C3718 H3732 0.960 . S
C3719 C3716 1.511 . S
C3719 H3733 0.961 . S
C3719 H3734 0.961 . S
C3719 H3735 0.961 . S
C3720 C3721 1.370 1_545 S
C3720 C3722 1.363 . S
C3720 H3736 0.931 . S
C3721 C3720 1.370 1_565 S
C3721 C3725 1.408 . S
C3722 C3720 1.363 . S
C3722 C3723 1.370 . S
C3722 C3726 1.524 . S
C3723 C3715 1.503 . S
C3723 C3722 1.370 . S
C3723 C3724 1.403 . S
C3724 C3723 1.403 . S
C3724 C3725 1.404 1_545 S
C3724 C3727 1.539 . S
C3725 C3721 1.408 . S
C3725 C3724 1.404 1_565 S
C3725 H3737 0.930 . S
C3726 C3722 1.524 . S
C3726 H3738 0.956 . S
C3726 H3739 0.961 . S
C3726 H3740 0.961 . S
C3727 C3724 1.539 . S
C3727 H3741 0.958 1_545 S
C3727 H3742 0.961 1_545 S
C3727 H3743 0.960 . S
H3728 C3712 0.931 . S
H3729 C3717 0.929 . S
H3730 C3718 0.960 1_565 S
H3731 C3718 0.962 . S
H3732 C3718 0.960 . S
H3733 C3719 0.961 . S
H3734 C3719 0.961 . S
H3735 C3719 0.961 . S
H3736 C3720 0.931 . S
H3737 C3725 0.930 . S
H3738 C3726 0.956 . S
H3739 C3726 0.961 . S
H3740 C3726 0.961 . S
H3741 C3727 0.958 1_565 S
H3742 C3727 0.961 1_565 S
H3743 C3727 0.960 . S
C3744 C3745 1.391 . S
C3744 C3746 1.394 . S
C3744 H3760 0.931 . S
C3745 C3744 1.391 . S
C3745 C3749 1.376 . S
C3746 C3744 1.394 . S
C3746 C3747 1.369 . S
C3746 C3750 1.531 . S
C3747 C3746 1.369 . S
C3747 C3748 1.410 . S
C3747 C3755 1.503 . S
C3748 C3747 1.410 . S
C3748 C3749 1.392 . S
C3748 C3751 1.511 . S
C3749 C3745 1.376 . S
C3749 C3748 1.392 . S
C3749 H3761 0.929 . S
C3750 C3746 1.531 . S
C3750 H3762 0.960 . S
C3750 H3763 0.962 . S
C3750 H3764 0.960 . S
C3751 C3748 1.511 . S
C3751 H3765 0.961 . S
C3751 H3766 0.961 . S
C3751 H3767 0.961 . S
C3752 C3753 1.370 . S
C3752 C3754 1.363 . S
C3752 H3768 0.931 . S
C3753 C3752 1.370 . S
C3753 C3757 1.408 . S
C3754 C3752 1.363 . S
C3754 C3755 1.370 . S
C3754 C3758 1.524 . S
C3755 C3747 1.503 . S
C3755 C3754 1.370 . S
C3755 C3756 1.403 . S
C3756 C3755 1.403 . S
C3756 C3757 1.404 . S
C3756 C3759 1.539 . S
C3757 C3753 1.408 . S
C3757 C3756 1.404 . S
C3757 H3769 0.930 . S
C3758 C3754 1.524 . S
C3758 H3770 0.956 . S
C3758 H3771 0.961 . S
C3758 H3772 0.961 . S
C3759 C3756 1.539 . S
C3759 H3773 0.958 . S
C3759 H3774 0.961 . S
C3759 H3775 0.960 . S
H3760 C3744 0.931 . S
H3761 C3749 0.929 . S
H3762 C3750 0.960 . S
H3763 C3750 0.962 . S
H3764 C3750 0.960 . S
H3765 C3751 0.961 . S
H3766 C3751 0.961 . S
H3767 C3751 0.961 . S
H3768 C3752 0.931 . S
H3769 C3757 0.930 . S
H3770 C3758 0.956 . S
H3771 C3758 0.961 . S
H3772 C3758 0.961 . S
H3773 C3759 0.958 . S
H3774 C3759 0.961 . S
H3775 C3759 0.960 . S
C3776 C3777 1.391 . S
C3776 C3778 1.394 . S
C3776 H3792 0.931 . S
C3777 C3776 1.391 . S
C3777 C3781 1.376 . S
C3778 C3776 1.394 . S
C3778 C3779 1.369 . S
C3778 C3782 1.531 . S
C3779 C3778 1.369 . S
C3779 C3780 1.410 . S
C3779 C3787 1.503 . S
C3780 C3779 1.410 . S
C3780 C3781 1.392 . S
C3780 C3783 1.511 . S
C3781 C3777 1.376 . S
C3781 C3780 1.392 . S
C3781 H3793 0.929 . S
C3782 C3778 1.531 . S
C3782 H3794 0.960 . S
C3782 H3795 0.962 . S
C3782 H3796 0.960 . S
C3783 C3780 1.511 . S
C3783 H3797 0.961 . S
C3783 H3798 0.961 . S
C3783 H3799 0.961 . S
C3784 C3785 1.370 . S
C3784 C3786 1.363 . S
C3784 H3800 0.931 . S
C3785 C3784 1.370 . S
C3785 C3789 1.408 . S
C3786 C3784 1.363 . S
C3786 C3787 1.370 . S
C3786 C3790 1.524 . S
C3787 C3779 1.503 . S
C3787 C3786 1.370 . S
C3787 C3788 1.403 . S
C3788 C3787 1.403 . S
C3788 C3789 1.404 . S
C3788 C3791 1.539 . S
C3789 C3785 1.408 . S
C3789 C3788 1.404 . S
C3789 H3801 0.930 . S
C3790 C3786 1.524 . S
C3790 H3802 0.956 . S
C3790 H3803 0.961 . S
C3790 H3804 0.961 . S
C3791 C3788 1.539 . S
C3791 H3805 0.958 . S
C3791 H3806 0.961 . S
C3791 H3807 0.960 . S
H3792 C3776 0.931 . S
H3793 C3781 0.929 . S
H3794 C3782 0.960 . S
H3795 C3782 0.962 . S
H3796 C3782 0.960 . S
H3797 C3783 0.961 . S
H3798 C3783 0.961 . S
H3799 C3783 0.961 . S
H3800 C3784 0.931 . S
H3801 C3789 0.930 . S
H3802 C3790 0.956 . S
H3803 C3790 0.961 . S
H3804 C3790 0.961 . S
H3805 C3791 0.958 . S
H3806 C3791 0.961 . S
H3807 C3791 0.960 . S
C3808 C3809 1.391 . S
C3808 C3810 1.394 . S
C3808 H3824 0.931 . S
C3809 C3808 1.391 . S
C3809 C3813 1.376 . S
C3810 C3808 1.394 . S
C3810 C3811 1.369 . S
C3810 C3814 1.531 . S
C3811 C3810 1.369 . S
C3811 C3812 1.410 . S
C3811 C3819 1.503 . S
C3812 C3811 1.410 . S
C3812 C3813 1.392 . S
C3812 C3815 1.511 . S
C3813 C3809 1.376 . S
C3813 C3812 1.392 . S
C3813 H3825 0.929 . S
C3814 C3810 1.531 . S
C3814 H3826 0.960 . S
C3814 H3827 0.962 . S
C3814 H3828 0.960 . S
C3815 C3812 1.511 . S
C3815 H3829 0.961 . S
C3815 H3830 0.961 . S
C3815 H3831 0.961 . S
C3816 C3817 1.370 . S
C3816 C3818 1.363 . S
C3816 H3832 0.931 . S
C3817 C3816 1.370 . S
C3817 C3821 1.408 . S
C3818 C3816 1.363 . S
C3818 C3819 1.370 . S
C3818 C3822 1.524 . S
C3819 C3811 1.503 . S
C3819 C3818 1.370 . S
C3819 C3820 1.403 . S
C3820 C3819 1.403 . S
C3820 C3821 1.404 . S
C3820 C3823 1.539 . S
C3821 C3817 1.408 . S
C3821 C3820 1.404 . S
C3821 H3833 0.930 . S
C3822 C3818 1.524 . S
C3822 H3834 0.956 . S
C3822 H3835 0.961 . S
C3822 H3836 0.961 . S
C3823 C3820 1.539 . S
C3823 H3837 0.958 . S
C3823 H3838 0.961 . S
C3823 H3839 0.960 . S
H3824 C3808 0.931 . S
H3825 C3813 0.929 . S
H3826 C3814 0.960 . S
H3827 C3814 0.962 . S
H3828 C3814 0.960 . S
H3829 C3815 0.961 . S
H3830 C3815 0.961 . S
H3831 C3815 0.961 . S
H3832 C3816 0.931 . S
H3833 C3821 0.930 . S
H3834 C3822 0.956 . S
H3835 C3822 0.961 . S
H3836 C3822 0.961 . S
H3837 C3823 0.958 . S
H3838 C3823 0.961 . S
H3839 C3823 0.960 . S
C3840 C3841 1.391 . S
C3840 C3842 1.394 . S
C3840 H3856 0.931 . S
C3841 C3840 1.391 . S
C3841 C3845 1.376 . S
C3842 C3840 1.394 . S
C3842 C3843 1.369 . S
C3842 C3846 1.531 . S
C3843 C3842 1.369 . S
C3843 C3844 1.410 . S
C3843 C3851 1.503 . S
C3844 C3843 1.410 . S
C3844 C3845 1.392 . S
C3844 C3847 1.511 . S
C3845 C3841 1.376 . S
C3845 C3844 1.392 . S
C3845 H3857 0.929 . S
C3846 C3842 1.531 . S
C3846 H3858 0.960 . S
C3846 H3859 0.962 . S
C3846 H3860 0.960 . S
C3847 C3844 1.511 . S
C3847 H3861 0.961 . S
C3847 H3862 0.961 . S
C3847 H3863 0.961 . S
C3848 C3849 1.370 . S
C3848 C3850 1.363 . S
C3848 H3864 0.931 . S
C3849 C3848 1.370 . S
C3849 C3853 1.408 . S
C3850 C3848 1.363 . S
C3850 C3851 1.370 . S
C3850 C3854 1.524 . S
C3851 C3843 1.503 . S
C3851 C3850 1.370 . S
C3851 C3852 1.403 . S
C3852 C3851 1.403 . S
C3852 C3853 1.404 . S
C3852 C3855 1.539 . S
C3853 C3849 1.408 . S
C3853 C3852 1.404 . S
C3853 H3865 0.930 . S
C3854 C3850 1.524 . S
C3854 H3866 0.956 . S
C3854 H3867 0.961 . S
C3854 H3868 0.961 . S
C3855 C3852 1.539 . S
C3855 H3869 0.958 . S
C3855 H3870 0.961 . S
C3855 H3871 0.960 . S
H3856 C3840 0.931 . S
H3857 C3845 0.929 . S
H3858 C3846 0.960 . S
H3859 C3846 0.962 . S
H3860 C3846 0.960 . S
H3861 C3847 0.961 . S
H3862 C3847 0.961 . S
H3863 C3847 0.961 . S
H3864 C3848 0.931 . S
H3865 C3853 0.930 . S
H3866 C3854 0.956 . S
H3867 C3854 0.961 . S
H3868 C3854 0.961 . S
H3869 C3855 0.958 . S
H3870 C3855 0.961 . S
H3871 C3855 0.960 . S
C3872 C3873 1.391 . S
C3872 C3874 1.394 . S
C3872 H3888 0.931 . S
C3873 C3872 1.391 . S
C3873 C3877 1.376 . S
C3874 C3872 1.394 . S
C3874 C3875 1.369 . S
C3874 C3878 1.531 . S
C3875 C3874 1.369 . S
C3875 C3876 1.410 . S
C3875 C3883 1.503 . S
C3876 C3875 1.410 . S
C3876 C3877 1.392 . S
C3876 C3879 1.511 . S
C3877 C3873 1.376 . S
C3877 C3876 1.392 . S
C3877 H3889 0.929 . S
C3878 C3874 1.531 . S
C3878 H3890 0.960 . S
C3878 H3891 0.962 . S
C3878 H3892 0.960 . S
C3879 C3876 1.511 . S
C3879 H3893 0.961 . S
C3879 H3894 0.961 . S
C3879 H3895 0.961 . S
C3880 C3881 1.370 . S
C3880 C3882 1.363 . S
C3880 H3896 0.931 . S
C3881 C3880 1.370 . S
C3881 C3885 1.408 . S
C3882 C3880 1.363 . S
C3882 C3883 1.370 . S
C3882 C3886 1.524 . S
C3883 C3875 1.503 . S
C3883 C3882 1.370 . S
C3883 C3884 1.403 . S
C3884 C3883 1.403 . S
C3884 C3885 1.404 . S
C3884 C3887 1.539 . S
C3885 C3881 1.408 . S
C3885 C3884 1.404 . S
C3885 H3897 0.930 . S
C3886 C3882 1.524 . S
C3886 H3898 0.956 . S
C3886 H3899 0.961 . S
C3886 H3900 0.961 . S
C3887 C3884 1.539 . S
C3887 H3901 0.958 . S
C3887 H3902 0.961 . S
C3887 H3903 0.960 . S
H3888 C3872 0.931 . S
H3889 C3877 0.929 . S
H3890 C3878 0.960 . S
H3891 C3878 0.962 . S
H3892 C3878 0.960 . S
H3893 C3879 0.961 . S
H3894 C3879 0.961 . S
H3895 C3879 0.961 . S
H3896 C3880 0.931 . S
H3897 C3885 0.930 . S
H3898 C3886 0.956 . S
H3899 C3886 0.961 . S
H3900 C3886 0.961 . S
H3901 C3887 0.958 . S
H3902 C3887 0.961 . S
H3903 C3887 0.960 . S
C3904 C3905 1.391 . S
C3904 C3906 1.394 . S
C3904 H3920 0.931 . S
C3905 C3904 1.391 . S
C3905 C3909 1.376 . S
C3906 C3904 1.394 . S
C3906 C3907 1.369 . S
C3906 C3910 1.531 . S
C3907 C3906 1.369 . S
C3907 C3908 1.410 . S
C3907 C3915 1.503 . S
C3908 C3907 1.410 . S
C3908 C3909 1.392 . S
C3908 C3911 1.511 . S
C3909 C3905 1.376 . S
C3909 C3908 1.392 . S
C3909 H3921 0.929 . S
C3910 C3906 1.531 . S
C3910 H3922 0.960 . S
C3910 H3923 0.962 . S
C3910 H3924 0.960 . S
C3911 C3908 1.511 . S
C3911 H3925 0.961 . S
C3911 H3926 0.961 . S
C3911 H3927 0.961 . S
C3912 C3913 1.370 . S
C3912 C3914 1.363 . S
C3912 H3928 0.931 . S
C3913 C3912 1.370 . S
C3913 C3917 1.408 . S
C3914 C3912 1.363 . S
C3914 C3915 1.370 . S
C3914 C3918 1.524 . S
C3915 C3907 1.503 . S
C3915 C3914 1.370 . S
C3915 C3916 1.403 . S
C3916 C3915 1.403 . S
C3916 C3917 1.404 . S
C3916 C3919 1.539 . S
C3917 C3913 1.408 . S
C3917 C3916 1.404 . S
C3917 H3929 0.930 . S
C3918 C3914 1.524 . S
C3918 H3930 0.956 . S
C3918 H3931 0.961 . S
C3918 H3932 0.961 . S
C3919 C3916 1.539 . S
C3919 H3933 0.958 . S
C3919 H3934 0.961 1_655 S
C3919 H3935 0.960 . S
H3920 C3904 0.931 . S
H3921 C3909 0.929 . S
H3922 C3910 0.960 . S
H3923 C3910 0.962 . S
H3924 C3910 0.960 . S
H3925 C3911 0.961 . S
H3926 C3911 0.961 . S
H3927 C3911 0.961 . S
H3928 C3912 0.931 . S
H3929 C3917 0.930 . S
H3930 C3918 0.956 . S
H3931 C3918 0.961 . S
H3932 C3918 0.961 . S
H3933 C3919 0.958 . S
H3934 C3919 0.961 1_455 S
H3935 C3919 0.960 . S
C3936 C3937 1.391 . S
C3936 C3938 1.394 . S
C3936 H3952 0.931 . S
C3937 C3936 1.391 . S
C3937 C3941 1.376 . S
C3938 C3936 1.394 . S
C3938 C3939 1.369 . S
C3938 C3942 1.531 . S
C3939 C3938 1.369 . S
C3939 C3940 1.410 . S
C3939 C3947 1.503 . S
C3940 C3939 1.410 . S
C3940 C3941 1.392 . S
C3940 C3943 1.511 . S
C3941 C3937 1.376 . S
C3941 C3940 1.392 . S
C3941 H3953 0.929 . S
C3942 C3938 1.531 . S
C3942 H3954 0.960 . S
C3942 H3955 0.962 . S
C3942 H3956 0.960 . S
C3943 C3940 1.511 . S
C3943 H3957 0.961 . S
C3943 H3958 0.961 . S
C3943 H3959 0.961 . S
C3944 C3945 1.370 . S
C3944 C3946 1.363 . S
C3944 H3960 0.931 . S
C3945 C3944 1.370 . S
C3945 C3949 1.408 . S
C3946 C3944 1.363 . S
C3946 C3947 1.370 . S
C3946 C3950 1.524 . S
C3947 C3939 1.503 . S
C3947 C3946 1.370 . S
C3947 C3948 1.403 . S
C3948 C3947 1.403 . S
C3948 C3949 1.404 . S
C3948 C3951 1.539 . S
C3949 C3945 1.408 . S
C3949 C3948 1.404 . S
C3949 H3961 0.930 . S
C3950 C3946 1.524 . S
C3950 H3962 0.956 . S
C3950 H3963 0.961 . S
C3950 H3964 0.961 . S
C3951 C3948 1.539 . S
C3951 H3965 0.958 . S
C3951 H3966 0.961 . S
C3951 H3967 0.960 . S
H3952 C3936 0.931 . S
H3953 C3941 0.929 . S
H3954 C3942 0.960 . S
H3955 C3942 0.962 . S
H3956 C3942 0.960 . S
H3957 C3943 0.961 . S
H3958 C3943 0.961 . S
H3959 C3943 0.961 . S
H3960 C3944 0.931 . S
H3961 C3949 0.930 . S
H3962 C3950 0.956 . S
H3963 C3950 0.961 . S
H3964 C3950 0.961 . S
H3965 C3951 0.958 . S
H3966 C3951 0.961 . S
H3967 C3951 0.960 . S
C3968 C3969 1.391 . S
C3968 C3970 1.394 . S
C3968 H3984 0.931 . S
C3969 C3968 1.391 . S
C3969 C3973 1.376 . S
C3970 C3968 1.394 . S
C3970 C3971 1.369 . S
C3970 C3974 1.531 . S
C3971 C3970 1.369 . S
C3971 C3972 1.410 . S
C3971 C3979 1.503 . S
C3972 C3971 1.410 . S
C3972 C3973 1.392 . S
C3972 C3975 1.511 . S
C3973 C3969 1.376 . S
C3973 C3972 1.392 . S
C3973 H3985 0.929 . S
C3974 C3970 1.531 . S
C3974 H3986 0.960 . S
C3974 H3987 0.962 . S
C3974 H3988 0.960 . S
C3975 C3972 1.511 . S
C3975 H3989 0.961 . S
C3975 H3990 0.961 . S
C3975 H3991 0.961 . S
C3976 C3977 1.370 . S
C3976 C3978 1.363 . S
C3976 H3992 0.931 . S
C3977 C3976 1.370 . S
C3977 C3981 1.408 . S
C3978 C3976 1.363 . S
C3978 C3979 1.370 . S
C3978 C3982 1.524 . S
C3979 C3971 1.503 . S
C3979 C3978 1.370 . S
C3979 C3980 1.403 . S
C3980 C3979 1.403 . S
C3980 C3981 1.404 . S
C3980 C3983 1.539 . S
C3981 C3977 1.408 . S
C3981 C3980 1.404 . S
C3981 H3993 0.930 . S
C3982 C3978 1.524 . S
C3982 H3994 0.956 . S
C3982 H3995 0.961 . S
C3982 H3996 0.961 . S
C3983 C3980 1.539 . S
C3983 H3997 0.958 . S
C3983 H3998 0.961 . S
C3983 H3999 0.960 . S
H3984 C3968 0.931 . S
H3985 C3973 0.929 . S
H3986 C3974 0.960 . S
H3987 C3974 0.962 . S
H3988 C3974 0.960 . S
H3989 C3975 0.961 . S
H3990 C3975 0.961 . S
H3991 C3975 0.961 . S
H3992 C3976 0.931 . S
H3993 C3981 0.930 . S
H3994 C3982 0.956 . S
H3995 C3982 0.961 . S
H3996 C3982 0.961 . S
H3997 C3983 0.958 . S
H3998 C3983 0.961 . S
H3999 C3983 0.960 . S
C4000 C4001 1.391 . S
C4000 C4002 1.394 . S
C4000 H4016 0.931 . S
C4001 C4000 1.391 . S
C4001 C4005 1.376 . S
C4002 C4000 1.394 . S
C4002 C4003 1.369 . S
C4002 C4006 1.531 . S
C4003 C4002 1.369 . S
C4003 C4004 1.410 . S
C4003 C4011 1.503 . S
C4004 C4003 1.410 . S
C4004 C4005 1.392 . S
C4004 C4007 1.511 . S
C4005 C4001 1.376 . S
C4005 C4004 1.392 . S
C4005 H4017 0.929 . S
C4006 C4002 1.531 . S
C4006 H4018 0.960 . S
C4006 H4019 0.962 . S
C4006 H4020 0.960 . S
C4007 C4004 1.511 . S
C4007 H4021 0.961 . S
C4007 H4022 0.961 . S
C4007 H4023 0.961 . S
C4008 C4009 1.370 . S
C4008 C4010 1.363 . S
C4008 H4024 0.931 . S
C4009 C4008 1.370 . S
C4009 C4013 1.408 . S
C4010 C4008 1.363 . S
C4010 C4011 1.370 . S
C4010 C4014 1.524 . S
C4011 C4003 1.503 . S
C4011 C4010 1.370 . S
C4011 C4012 1.403 . S
C4012 C4011 1.403 . S
C4012 C4013 1.404 . S
C4012 C4015 1.539 . S
C4013 C4009 1.408 . S
C4013 C4012 1.404 . S
C4013 H4025 0.930 . S
C4014 C4010 1.524 . S
C4014 H4026 0.956 . S
C4014 H4027 0.961 . S
C4014 H4028 0.961 . S
C4015 C4012 1.539 . S
C4015 H4029 0.958 . S
C4015 H4030 0.961 . S
C4015 H4031 0.960 . S
H4016 C4000 0.931 . S
H4017 C4005 0.929 . S
H4018 C4006 0.960 . S
H4019 C4006 0.962 . S
H4020 C4006 0.960 . S
H4021 C4007 0.961 . S
H4022 C4007 0.961 . S
H4023 C4007 0.961 . S
H4024 C4008 0.931 . S
H4025 C4013 0.930 . S
H4026 C4014 0.956 . S
H4027 C4014 0.961 . S
H4028 C4014 0.961 . S
H4029 C4015 0.958 . S
H4030 C4015 0.961 . S
H4031 C4015 0.960 . S
C4032 C4033 1.391 . S
C4032 C4034 1.394 . S
C4032 H4048 0.931 . S
C4033 C4032 1.391 . S
C4033 C4037 1.376 . S
C4034 C4032 1.394 . S
C4034 C4035 1.369 . S
C4034 C4038 1.531 . S
C4035 C4034 1.369 . S
C4035 C4036 1.410 . S
C4035 C4043 1.503 . S
C4036 C4035 1.410 . S
C4036 C4037 1.392 . S
C4036 C4039 1.511 . S
C4037 C4033 1.376 . S
C4037 C4036 1.392 . S
C4037 H4049 0.929 . S
C4038 C4034 1.531 . S
C4038 H4050 0.960 . S
C4038 H4051 0.962 . S
C4038 H4052 0.960 . S
C4039 C4036 1.511 . S
C4039 H4053 0.961 . S
C4039 H4054 0.961 . S
C4039 H4055 0.961 . S
C4040 C4041 1.370 . S
C4040 C4042 1.363 . S
C4040 H4056 0.931 . S
C4041 C4040 1.370 . S
C4041 C4045 1.408 . S
C4042 C4040 1.363 . S
C4042 C4043 1.370 . S
C4042 C4046 1.524 . S
C4043 C4035 1.503 . S
C4043 C4042 1.370 . S
C4043 C4044 1.403 . S
C4044 C4043 1.403 . S
C4044 C4045 1.404 . S
C4044 C4047 1.539 . S
C4045 C4041 1.408 . S
C4045 C4044 1.404 . S
C4045 H4057 0.930 . S
C4046 C4042 1.524 . S
C4046 H4058 0.956 . S
C4046 H4059 0.961 . S
C4046 H4060 0.961 . S
C4047 C4044 1.539 . S
C4047 H4061 0.958 . S
C4047 H4062 0.961 . S
C4047 H4063 0.960 . S
H4048 C4032 0.931 . S
H4049 C4037 0.929 . S
H4050 C4038 0.960 . S
H4051 C4038 0.962 . S
H4052 C4038 0.960 . S
H4053 C4039 0.961 . S
H4054 C4039 0.961 . S
H4055 C4039 0.961 . S
H4056 C4040 0.931 . S
H4057 C4045 0.930 . S
H4058 C4046 0.956 . S
H4059 C4046 0.961 . S
H4060 C4046 0.961 . S
H4061 C4047 0.958 . S
H4062 C4047 0.961 . S
H4063 C4047 0.960 . S
C4064 C4065 1.391 . S
C4064 C4066 1.394 . S
C4064 H4080 0.931 . S
C4065 C4064 1.391 . S
C4065 C4069 1.376 . S
C4066 C4064 1.394 . S
C4066 C4067 1.369 . S
C4066 C4070 1.531 . S
C4067 C4066 1.369 . S
C4067 C4068 1.410 . S
C4067 C4075 1.503 . S
C4068 C4067 1.410 . S
C4068 C4069 1.392 . S
C4068 C4071 1.511 . S
C4069 C4065 1.376 . S
C4069 C4068 1.392 . S
C4069 H4081 0.929 . S
C4070 C4066 1.531 . S
C4070 H4082 0.960 . S
C4070 H4083 0.962 . S
C4070 H4084 0.960 . S
C4071 C4068 1.511 . S
C4071 H4085 0.961 . S
C4071 H4086 0.961 . S
C4071 H4087 0.961 . S
C4072 C4073 1.370 . S
C4072 C4074 1.363 . S
C4072 H4088 0.931 . S
C4073 C4072 1.370 . S
C4073 C4077 1.408 . S
C4074 C4072 1.363 . S
C4074 C4075 1.370 . S
C4074 C4078 1.524 . S
C4075 C4067 1.503 . S
C4075 C4074 1.370 . S
C4075 C4076 1.403 . S
C4076 C4075 1.403 . S
C4076 C4077 1.404 . S
C4076 C4079 1.539 . S
C4077 C4073 1.408 . S
C4077 C4076 1.404 . S
C4077 H4089 0.930 . S
C4078 C4074 1.524 . S
C4078 H4090 0.956 . S
C4078 H4091 0.961 . S
C4078 H4092 0.961 . S
C4079 C4076 1.539 . S
C4079 H4093 0.958 . S
C4079 H4094 0.961 . S
C4079 H4095 0.960 . S
H4080 C4064 0.931 . S
H4081 C4069 0.929 . S
H4082 C4070 0.960 . S
H4083 C4070 0.962 . S
H4084 C4070 0.960 . S
H4085 C4071 0.961 . S
H4086 C4071 0.961 . S
H4087 C4071 0.961 . S
H4088 C4072 0.931 . S
H4089 C4077 0.930 . S
H4090 C4078 0.956 . S
H4091 C4078 0.961 . S
H4092 C4078 0.961 . S
H4093 C4079 0.958 . S
H4094 C4079 0.961 . S
H4095 C4079 0.960 . S
C4096 C4097 1.391 . S
C4096 C4098 1.394 . S
C4096 H4112 0.931 . S
C4097 C4096 1.391 . S
C4097 C4101 1.376 . S
C4098 C4096 1.394 . S
C4098 C4099 1.369 . S
C4098 C4102 1.531 . S
C4099 C4098 1.369 . S
C4099 C4100 1.410 . S
C4099 C4107 1.503 . S
C4100 C4099 1.410 . S
C4100 C4101 1.392 . S
C4100 C4103 1.511 . S
C4101 C4097 1.376 . S
C4101 C4100 1.392 . S
C4101 H4113 0.929 . S
C4102 C4098 1.531 . S
C4102 H4114 0.960 . S
C4102 H4115 0.962 . S
C4102 H4116 0.960 . S
C4103 C4100 1.511 . S
C4103 H4117 0.961 . S
C4103 H4118 0.961 . S
C4103 H4119 0.961 . S
C4104 C4105 1.370 . S
C4104 C4106 1.363 . S
C4104 H4120 0.931 . S
C4105 C4104 1.370 . S
C4105 C4109 1.408 . S
C4106 C4104 1.363 . S
C4106 C4107 1.370 . S
C4106 C4110 1.524 . S
C4107 C4099 1.503 . S
C4107 C4106 1.370 . S
C4107 C4108 1.403 . S
C4108 C4107 1.403 . S
C4108 C4109 1.404 . S
C4108 C4111 1.539 . S
C4109 C4105 1.408 . S
C4109 C4108 1.404 . S
C4109 H4121 0.930 . S
C4110 C4106 1.524 . S
C4110 H4122 0.956 . S
C4110 H4123 0.961 . S
C4110 H4124 0.961 . S
C4111 C4108 1.539 . S
C4111 H4125 0.958 . S
C4111 H4126 0.961 . S
C4111 H4127 0.960 . S
H4112 C4096 0.931 . S
H4113 C4101 0.929 . S
H4114 C4102 0.960 . S
H4115 C4102 0.962 . S
H4116 C4102 0.960 . S
H4117 C4103 0.961 . S
H4118 C4103 0.961 . S
H4119 C4103 0.961 . S
H4120 C4104 0.931 . S
H4121 C4109 0.930 . S
H4122 C4110 0.956 . S
H4123 C4110 0.961 . S
H4124 C4110 0.961 . S
H4125 C4111 0.958 . S
H4126 C4111 0.961 . S
H4127 C4111 0.960 . S
C4128 C4129 1.391 . S
C4128 C4130 1.394 . S
C4128 H4144 0.931 . S
C4129 C4128 1.391 . S
C4129 C4133 1.375 1_655 S
C4130 C4128 1.394 . S
C4130 C4131 1.369 1_655 S
C4130 C4134 1.531 . S
C4131 C4130 1.369 1_455 S
C4131 C4132 1.410 . S
C4131 C4139 1.503 . S
C4132 C4131 1.410 . S
C4132 C4133 1.392 . S
C4132 C4135 1.511 . S
C4133 C4129 1.375 1_455 S
C4133 C4132 1.392 . S
C4133 H4145 0.929 . S
C4134 C4130 1.531 . S
C4134 H4146 0.960 . S
C4134 H4147 0.962 . S
C4134 H4148 0.960 . S
C4135 C4132 1.511 . S
C4135 H4149 0.961 . S
C4135 H4150 0.961 . S
C4135 H4151 0.961 . S
C4136 C4137 1.370 . S
C4136 C4138 1.363 . S
C4136 H4152 0.926 1_455 S
C4137 C4136 1.370 . S
C4137 C4141 1.408 . S
C4138 C4136 1.363 . S
C4138 C4139 1.370 . S
C4138 C4142 1.524 1_455 S
C4139 C4131 1.503 . S
C4139 C4138 1.370 . S
C4139 C4140 1.403 . S
C4140 C4139 1.403 . S
C4140 C4141 1.404 . S
C4140 C4143 1.539 . S
C4141 C4137 1.408 . S
C4141 C4140 1.404 . S
C4141 H4153 0.930 . S
C4142 C4138 1.524 1_655 S
C4142 H4154 0.956 . S
C4142 H4155 0.961 1_655 S
C4142 H4156 0.961 . S
C4143 C4140 1.539 . S
C4143 H4157 0.958 1_455 S
C4143 H4158 0.961 . S
C4143 H4159 0.960 . S
H4144 C4128 0.931 . S
H4145 C4133 0.929 . S
H4146 C4134 0.960 . S
H4147 C4134 0.962 . S
H4148 C4134 0.960 . S
H4149 C4135 0.961 . S
H4150 C4135 0.961 . S
H4151 C4135 0.961 . S
H4152 C4136 0.926 1_655 S
H4153 C4141 0.930 . S
H4154 C4142 0.956 . S
H4155 C4142 0.961 1_455 S
H4156 C4142 0.961 . S
H4157 C4143 0.958 1_655 S
H4158 C4143 0.961 . S
H4159 C4143 0.960 . S
C4160 C4161 1.391 . S
C4160 C4162 1.394 . S
C4160 H4176 0.931 . S
C4161 C4160 1.391 . S
C4161 C4165 1.376 . S
C4162 C4160 1.394 . S
C4162 C4163 1.369 . S
C4162 C4166 1.531 . S
C4163 C4162 1.369 . S
C4163 C4164 1.410 . S
C4163 C4171 1.503 . S
C4164 C4163 1.410 . S
C4164 C4165 1.392 . S
C4164 C4167 1.511 . S
C4165 C4161 1.376 . S
C4165 C4164 1.392 . S
C4165 H4177 0.929 . S
C4166 C4162 1.531 . S
C4166 H4178 0.960 . S
C4166 H4179 0.962 . S
C4166 H4180 0.960 . S
C4167 C4164 1.511 . S
C4167 H4181 0.961 . S
C4167 H4182 0.961 . S
C4167 H4183 0.961 . S
C4168 C4169 1.370 . S
C4168 C4170 1.363 . S
C4168 H4184 0.931 . S
C4169 C4168 1.370 . S
C4169 C4173 1.408 . S
C4170 C4168 1.363 . S
C4170 C4171 1.370 . S
C4170 C4174 1.524 . S
C4171 C4163 1.503 . S
C4171 C4170 1.370 . S
C4171 C4172 1.403 . S
C4172 C4171 1.403 . S
C4172 C4173 1.404 . S
C4172 C4175 1.539 . S
C4173 C4169 1.408 . S
C4173 C4172 1.404 . S
C4173 H4185 0.930 . S
C4174 C4170 1.524 . S
C4174 H4186 0.956 . S
C4174 H4187 0.961 . S
C4174 H4188 0.961 . S
C4175 C4172 1.539 . S
C4175 H4189 0.958 . S
C4175 H4190 0.961 . S
C4175 H4191 0.960 . S
H4176 C4160 0.931 . S
H4177 C4165 0.929 . S
H4178 C4166 0.960 . S
H4179 C4166 0.962 . S
H4180 C4166 0.960 . S
H4181 C4167 0.961 . S
H4182 C4167 0.961 . S
H4183 C4167 0.961 . S
H4184 C4168 0.931 . S
H4185 C4173 0.930 . S
H4186 C4174 0.956 . S
H4187 C4174 0.961 . S
H4188 C4174 0.961 . S
H4189 C4175 0.958 . S
H4190 C4175 0.961 . S
H4191 C4175 0.960 . S
C4192 C4193 1.391 . S
C4192 C4194 1.394 . S
C4192 H4208 0.931 . S
C4193 C4192 1.391 . S
C4193 C4197 1.376 1_545 S
C4194 C4192 1.394 . S
C4194 C4195 1.369 . S
C4194 C4198 1.531 . S
C4195 C4194 1.369 . S
C4195 C4196 1.410 1_545 S
C4195 C4203 1.503 . S
C4196 C4195 1.410 1_565 S
C4196 C4197 1.392 . S
C4196 C4199 1.511 . S
C4197 C4193 1.376 1_565 S
C4197 C4196 1.392 . S
C4197 H4209 0.929 . S
C4198 C4194 1.531 . S
C4198 H4210 0.960 . S
C4198 H4211 0.962 . S
C4198 H4212 0.960 . S
C4199 C4196 1.511 . S
C4199 H4213 0.961 . S
C4199 H4214 0.961 . S
C4199 H4215 0.961 1_565 S
C4200 C4201 1.370 . S
C4200 C4202 1.363 . S
C4200 H4216 0.931 . S
C4201 C4200 1.370 . S
C4201 C4205 1.408 1_565 S
C4202 C4200 1.363 . S
C4202 C4203 1.370 1_565 S
C4202 C4206 1.524 . S
C4203 C4195 1.503 . S
C4203 C4202 1.370 1_545 S
C4203 C4204 1.403 . S
C4204 C4203 1.403 . S
C4204 C4205 1.404 . S
C4204 C4207 1.539 . S
C4205 C4201 1.408 1_545 S
C4205 C4204 1.404 . S
C4205 H4217 0.930 . S
C4206 C4202 1.524 . S
C4206 H4218 0.956 . S
C4206 H4219 0.961 . S
C4206 H4220 0.961 . S
C4207 C4204 1.539 . S
C4207 H4221 0.958 . S
C4207 H4222 0.961 . S
C4207 H4223 0.960 . S
H4208 C4192 0.931 . S
H4209 C4197 0.929 . S
H4210 C4198 0.960 . S
H4211 C4198 0.962 . S
H4212 C4198 0.960 . S
H4213 C4199 0.961 . S
H4214 C4199 0.961 . S
H4215 C4199 0.961 1_545 S
H4216 C4200 0.931 . S
H4217 C4205 0.930 . S
H4218 C4206 0.956 . S
H4219 C4206 0.961 . S
H4220 C4206 0.961 . S
H4221 C4207 0.958 . S
H4222 C4207 0.961 . S
H4223 C4207 0.960 . S
C4224 C4225 1.391 . S
C4224 C4226 1.394 . S
C4224 H4240 0.931 . S
C4225 C4224 1.391 . S
C4225 C4229 1.376 1_545 S
C4226 C4224 1.394 . S
C4226 C4227 1.369 . S
C4226 C4230 1.531 . S
C4227 C4226 1.369 . S
C4227 C4228 1.409 1_545 S
C4227 C4235 1.503 1_545 S
C4228 C4227 1.409 1_565 S
C4228 C4229 1.392 . S
C4228 C4231 1.511 . S
C4229 C4225 1.376 1_565 S
C4229 C4228 1.392 . S
C4229 H4241 0.929 . S
C4230 C4226 1.531 . S
C4230 H4242 0.960 . S
C4230 H4243 0.962 . S
C4230 H4244 0.960 . S
C4231 C4228 1.511 . S
C4231 H4245 0.961 . S
C4231 H4246 0.961 . S
C4231 H4247 0.961 . S
C4232 C4233 1.370 1_545 S
C4232 C4234 1.363 . S
C4232 H4248 0.931 . S
C4233 C4232 1.370 1_565 S
C4233 C4237 1.408 . S
C4234 C4232 1.363 . S
C4234 C4235 1.371 1_545 S
C4234 C4238 1.524 . S
C4235 C4227 1.503 1_565 S
C4235 C4234 1.371 1_565 S
C4235 C4236 1.403 . S
C4236 C4235 1.403 . S
C4236 C4237 1.404 . S
C4236 C4239 1.539 . S
C4237 C4233 1.408 . S
C4237 C4236 1.404 . S
C4237 H4249 0.930 . S
C4238 C4234 1.524 . S
C4238 H4250 0.956 . S
C4238 H4251 0.961 . S
C4238 H4252 0.961 . S
C4239 C4236 1.539 . S
C4239 H4253 0.958 . S
C4239 H4254 0.961 . S
C4239 H4255 0.960 . S
H4240 C4224 0.931 . S
H4241 C4229 0.929 . S
H4242 C4230 0.960 . S
H4243 C4230 0.962 . S
H4244 C4230 0.960 . S
H4245 C4231 0.961 . S
H4246 C4231 0.961 . S
H4247 C4231 0.961 . S
H4248 C4232 0.931 . S
H4249 C4237 0.930 . S
H4250 C4238 0.956 . S
H4251 C4238 0.961 . S
H4252 C4238 0.961 . S
H4253 C4239 0.958 . S
H4254 C4239 0.961 . S
H4255 C4239 0.960 . S
C4256 C4257 1.391 1_455 S
C4256 C4258 1.394 . S
C4256 H4272 0.931 . S
C4257 C4256 1.391 1_655 S
C4257 C4261 1.376 . S
C4258 C4256 1.394 . S
C4258 C4259 1.369 1_455 S
C4258 C4262 1.531 . S
C4259 C4258 1.369 1_655 S
C4259 C4260 1.410 . S
C4259 C4267 1.503 . S
C4260 C4259 1.410 . S
C4260 C4261 1.392 . S
C4260 C4263 1.511 . S
C4261 C4257 1.376 . S
C4261 C4260 1.392 . S
C4261 H4273 0.929 . S
C4262 C4258 1.531 . S
C4262 H4274 0.960 . S
C4262 H4275 0.962 . S
C4262 H4276 0.960 . S
C4263 C4260 1.511 . S
C4263 H4277 0.961 . S
C4263 H4278 0.961 . S
C4263 H4279 0.961 . S
C4264 C4265 1.370 1_455 S
C4264 C4266 1.363 . S
C4264 H4280 0.931 . S
C4265 C4264 1.370 1_655 S
C4265 C4269 1.408 . S
C4266 C4264 1.363 . S
C4266 C4267 1.370 1_455 S
C4266 C4270 1.524 . S
C4267 C4259 1.503 . S
C4267 C4266 1.370 1_655 S
C4267 C4268 1.403 . S
C4268 C4267 1.403 . S
C4268 C4269 1.404 . S
C4268 C4271 1.539 . S
C4269 C4265 1.408 . S
C4269 C4268 1.404 . S
C4269 H4281 0.930 . S
C4270 C4266 1.524 . S
C4270 H4282 0.956 . S
C4270 H4283 0.961 . S
C4270 H4284 0.961 . S
C4271 C4268 1.539 . S
C4271 H4285 0.958 . S
C4271 H4286 0.961 . S
C4271 H4287 0.960 . S
H4272 C4256 0.931 . S
H4273 C4261 0.929 . S
H4274 C4262 0.960 . S
H4275 C4262 0.962 . S
H4276 C4262 0.960 . S
H4277 C4263 0.961 . S
H4278 C4263 0.961 . S
H4279 C4263 0.961 . S
H4280 C4264 0.931 . S
H4281 C4269 0.930 . S
H4282 C4270 0.956 . S
H4283 C4270 0.961 . S
H4284 C4270 0.961 . S
H4285 C4271 0.958 . S
H4286 C4271 0.961 . S
H4287 C4271 0.960 . S
C4288 C4289 1.391 . S
C4288 C4290 1.394 . S
C4288 H4304 0.931 . S
C4289 C4288 1.391 . S
C4289 C4293 1.376 . S
C4290 C4288 1.394 . S
C4290 C4291 1.369 . S
C4290 C4294 1.531 . S
C4291 C4290 1.369 . S
C4291 C4292 1.410 . S
C4291 C4299 1.503 . S
C4292 C4291 1.410 . S
C4292 C4293 1.392 . S
C4292 C4295 1.511 . S
C4293 C4289 1.376 . S
C4293 C4292 1.392 . S
C4293 H4305 0.929 . S
C4294 C4290 1.531 . S
C4294 H4306 0.960 . S
C4294 H4307 0.962 . S
C4294 H4308 0.960 . S
C4295 C4292 1.511 . S
C4295 H4309 0.961 . S
C4295 H4310 0.961 . S
C4295 H4311 0.961 . S
C4296 C4297 1.370 . S
C4296 C4298 1.363 . S
C4296 H4312 0.931 . S
C4297 C4296 1.370 . S
C4297 C4301 1.408 . S
C4298 C4296 1.363 . S
C4298 C4299 1.370 . S
C4298 C4302 1.524 . S
C4299 C4291 1.503 . S
C4299 C4298 1.370 . S
C4299 C4300 1.403 . S
C4300 C4299 1.403 . S
C4300 C4301 1.404 . S
C4300 C4303 1.539 . S
C4301 C4297 1.408 . S
C4301 C4300 1.404 . S
C4301 H4313 0.930 . S
C4302 C4298 1.524 . S
C4302 H4314 0.956 . S
C4302 H4315 0.961 . S
C4302 H4316 0.961 . S
C4303 C4300 1.539 . S
C4303 H4317 0.958 . S
C4303 H4318 0.961 . S
C4303 H4319 0.960 . S
H4304 C4288 0.931 . S
H4305 C4293 0.929 . S
H4306 C4294 0.960 . S
H4307 C4294 0.962 . S
H4308 C4294 0.960 . S
H4309 C4295 0.961 . S
H4310 C4295 0.961 . S
H4311 C4295 0.961 . S
H4312 C4296 0.931 . S
H4313 C4301 0.930 . S
H4314 C4302 0.956 . S
H4315 C4302 0.961 . S
H4316 C4302 0.961 . S
H4317 C4303 0.958 . S
H4318 C4303 0.961 . S
H4319 C4303 0.960 . S
C4320 C4321 1.391 . S
C4320 C4322 1.394 . S
C4320 H4336 0.931 . S
C4321 C4320 1.391 . S
C4321 C4325 1.376 . S
C4322 C4320 1.394 . S
C4322 C4323 1.369 . S
C4322 C4326 1.531 . S
C4323 C4322 1.369 . S
C4323 C4324 1.410 . S
C4323 C4331 1.503 1_655 S
C4324 C4323 1.410 . S
C4324 C4325 1.392 . S
C4324 C4327 1.511 1_655 S
C4325 C4321 1.376 . S
C4325 C4324 1.392 . S
C4325 H4337 0.929 . S
C4326 C4322 1.531 . S
C4326 H4338 0.960 1_655 S
C4326 H4339 0.962 . S
C4326 H4340 0.960 . S
C4327 C4324 1.511 1_455 S
C4327 H4341 0.961 . S
C4327 H4342 0.961 . S
C4327 H4343 0.961 . S
C4328 C4329 1.370 . S
C4328 C4330 1.363 1_455 S
C4328 H4344 0.931 1_455 S
C4329 C4328 1.370 . S
C4329 C4333 1.408 . S
C4330 C4328 1.363 1_655 S
C4330 C4331 1.370 1_655 S
C4330 C4334 1.524 . S
C4331 C4323 1.503 1_455 S
C4331 C4330 1.370 1_455 S
C4331 C4332 1.403 . S
C4332 C4331 1.403 . S
C4332 C4333 1.404 . S
C4332 C4335 1.539 . S
C4333 C4329 1.408 . S
C4333 C4332 1.404 . S
C4333 H4345 0.930 . S
C4334 C4330 1.524 . S
C4334 H4346 0.956 . S
C4334 H4347 0.961 . S
C4334 H4348 0.961 . S
C4335 C4332 1.539 . S
C4335 H4349 0.958 . S
C4335 H4350 0.961 . S
C4335 H4351 0.960 . S
H4336 C4320 0.931 . S
H4337 C4325 0.929 . S
H4338 C4326 0.960 1_455 S
H4339 C4326 0.962 . S
H4340 C4326 0.960 . S
H4341 C4327 0.961 . S
H4342 C4327 0.961 . S
H4343 C4327 0.961 . S
H4344 C4328 0.931 1_655 S
H4345 C4333 0.930 . S
H4346 C4334 0.956 . S
H4347 C4334 0.961 . S
H4348 C4334 0.961 . S
H4349 C4335 0.958 . S
H4350 C4335 0.961 . S
H4351 C4335 0.960 . S
C4352 C4353 1.391 . S
C4352 C4354 1.394 . S
C4352 H4368 0.931 . S
C4353 C4352 1.391 . S
C4353 C4357 1.376 . S
C4354 C4352 1.394 . S
C4354 C4355 1.369 . S
C4354 C4358 1.531 . S
C4355 C4354 1.369 . S
C4355 C4356 1.410 . S
C4355 C4363 1.503 . S
C4356 C4355 1.410 . S
C4356 C4357 1.392 . S
C4356 C4359 1.511 . S
C4357 C4353 1.376 . S
C4357 C4356 1.392 . S
C4357 H4369 0.929 . S
C4358 C4354 1.531 . S
C4358 H4370 0.960 . S
C4358 H4371 0.962 . S
C4358 H4372 0.960 . S
C4359 C4356 1.511 . S
C4359 H4373 0.961 . S
C4359 H4374 0.961 . S
C4359 H4375 0.961 . S
C4360 C4361 1.370 . S
C4360 C4362 1.363 . S
C4360 H4376 0.931 . S
C4361 C4360 1.370 . S
C4361 C4365 1.408 . S
C4362 C4360 1.363 . S
C4362 C4363 1.370 . S
C4362 C4366 1.524 . S
C4363 C4355 1.503 . S
C4363 C4362 1.370 . S
C4363 C4364 1.403 . S
C4364 C4363 1.403 . S
C4364 C4365 1.404 . S
C4364 C4367 1.539 . S
C4365 C4361 1.408 . S
C4365 C4364 1.404 . S
C4365 H4377 0.930 . S
C4366 C4362 1.524 . S
C4366 H4378 0.956 . S
C4366 H4379 0.961 . S
C4366 H4380 0.961 . S
C4367 C4364 1.539 . S
C4367 H4381 0.958 . S
C4367 H4382 0.961 . S
C4367 H4383 0.960 . S
H4368 C4352 0.931 . S
H4369 C4357 0.929 . S
H4370 C4358 0.960 . S
H4371 C4358 0.962 . S
H4372 C4358 0.960 . S
H4373 C4359 0.961 . S
H4374 C4359 0.961 . S
H4375 C4359 0.961 . S
H4376 C4360 0.931 . S
H4377 C4365 0.930 . S
H4378 C4366 0.956 . S
H4379 C4366 0.961 . S
H4380 C4366 0.961 . S
H4381 C4367 0.958 . S
H4382 C4367 0.961 . S
H4383 C4367 0.960 . S
C4384 C4385 1.391 . S
C4384 C4386 1.394 1_545 S
C4384 H4400 0.931 1_545 S
C4385 C4384 1.391 . S
C4385 C4389 1.376 . S
C4386 C4384 1.394 1_565 S
C4386 C4387 1.369 1_565 S
C4386 C4390 1.531 . S
C4387 C4386 1.369 1_545 S
C4387 C4388 1.410 . S
C4387 C4395 1.503 1_545 S
C4388 C4387 1.410 . S
C4388 C4389 1.392 . S
C4388 C4391 1.511 . S
C4389 C4385 1.376 . S
C4389 C4388 1.392 . S
C4389 H4401 0.929 . S
C4390 C4386 1.531 . S
C4390 H4402 0.960 . S
C4390 H4403 0.962 . S
C4390 H4404 0.960 . S
C4391 C4388 1.511 . S
C4391 H4405 0.961 . S
C4391 H4406 0.961 . S
C4391 H4407 0.961 . S
C4392 C4393 1.370 . S
C4392 C4394 1.363 . S
C4392 H4408 0.931 . S
C4393 C4392 1.370 . S
C4393 C4397 1.408 . S
C4394 C4392 1.363 . S
C4394 C4395 1.370 . S
C4394 C4398 1.519 . S
C4395 C4387 1.503 1_565 S
C4395 C4394 1.370 . S
C4395 C4396 1.403 . S
C4396 C4395 1.403 . S
C4396 C4397 1.404 . S
C4396 C4399 1.539 . S
C4397 C4393 1.408 . S
C4397 C4396 1.404 . S
C4397 H4409 0.930 . S
C4398 C4394 1.519 . S
C4398 H4410 0.977 . S
C4398 H4411 0.928 1_565 S
C4398 H4412 0.979 . S
C4399 C4396 1.539 . S
C4399 H4413 0.958 . S
C4399 H4414 0.961 . S
C4399 H4415 0.960 1_565 S
H4400 C4384 0.931 1_565 S
H4401 C4389 0.929 . S
H4402 C4390 0.960 . S
H4403 C4390 0.962 . S
H4404 C4390 0.960 . S
H4405 C4391 0.961 . S
H4406 C4391 0.961 . S
H4407 C4391 0.961 . S
H4408 C4392 0.931 . S
H4409 C4397 0.930 . S
H4410 C4398 0.977 . S
H4411 C4398 0.928 1_545 S
H4412 C4398 0.979 . S
H4413 C4399 0.958 . S
H4414 C4399 0.961 . S
H4415 C4399 0.960 1_545 S
C4416 C4417 1.391 . S
C4416 C4418 1.394 . S
C4416 H4432 0.931 . S
C4417 C4416 1.391 . S
C4417 C4421 1.376 . S
C4418 C4416 1.394 . S
C4418 C4419 1.369 . S
C4418 C4422 1.531 . S
C4419 C4418 1.369 . S
C4419 C4420 1.410 1_655 S
C4419 C4427 1.503 1_655 S
C4420 C4419 1.410 1_455 S
C4420 C4421 1.392 1_455 S
C4420 C4423 1.511 . S
C4421 C4417 1.376 . S
C4421 C4420 1.392 1_655 S
C4421 H4433 0.929 . S
C4422 C4418 1.531 . S
C4422 H4434 0.960 . S
C4422 H4435 0.962 . S
C4422 H4436 0.960 . S
C4423 C4420 1.511 . S
C4423 H4437 0.961 . S
C4423 H4438 0.961 . S
C4423 H4439 0.961 . S
C4424 C4425 1.370 . S
C4424 C4426 1.363 1_455 S
C4424 H4440 0.931 1_455 S
C4425 C4424 1.370 . S
C4425 C4429 1.408 . S
C4426 C4424 1.363 1_655 S
C4426 C4427 1.370 1_655 S
C4426 C4430 1.524 . S
C4427 C4419 1.503 1_455 S
C4427 C4426 1.370 1_455 S
C4427 C4428 1.403 . S
C4428 C4427 1.403 . S
C4428 C4429 1.404 . S
C4428 C4431 1.539 . S
C4429 C4425 1.408 . S
C4429 C4428 1.404 . S
C4429 H4441 0.930 . S
C4430 C4426 1.524 . S
C4430 H4442 0.956 . S
C4430 H4443 0.961 . S
C4430 H4444 0.961 . S
C4431 C4428 1.539 . S
C4431 H4445 0.958 . S
C4431 H4446 0.961 . S
C4431 H4447 0.960 . S
H4432 C4416 0.931 . S
H4433 C4421 0.929 . S
H4434 C4422 0.960 . S
H4435 C4422 0.962 . S
H4436 C4422 0.960 . S
H4437 C4423 0.961 . S
H4438 C4423 0.961 . S
H4439 C4423 0.961 . S
H4440 C4424 0.931 1_655 S
H4441 C4429 0.930 . S
H4442 C4430 0.956 . S
H4443 C4430 0.961 . S
H4444 C4430 0.961 . S
H4445 C4431 0.958 . S
H4446 C4431 0.961 . S
H4447 C4431 0.960 . S
C4448 C4449 1.391 . S
C4448 C4450 1.394 . S
C4448 H4464 0.931 . S
C4449 C4448 1.391 . S
C4449 C4453 1.376 . S
C4450 C4448 1.394 . S
C4450 C4451 1.369 . S
C4450 C4454 1.531 . S
C4451 C4450 1.369 . S
C4451 C4452 1.410 . S
C4451 C4459 1.503 . S
C4452 C4451 1.410 . S
C4452 C4453 1.392 . S
C4452 C4455 1.511 . S
C4453 C4449 1.376 . S
C4453 C4452 1.392 . S
C4453 H4465 0.929 . S
C4454 C4450 1.531 . S
C4454 H4466 0.960 . S
C4454 H4467 0.962 . S
C4454 H4468 0.960 . S
C4455 C4452 1.511 . S
C4455 H4469 0.961 . S
C4455 H4470 0.961 . S
C4455 H4471 0.961 . S
C4456 C4457 1.370 . S
C4456 C4458 1.363 . S
C4456 H4472 0.931 . S
C4457 C4456 1.370 . S
C4457 C4461 1.408 . S
C4458 C4456 1.363 . S
C4458 C4459 1.370 . S
C4458 C4462 1.524 . S
C4459 C4451 1.503 . S
C4459 C4458 1.370 . S
C4459 C4460 1.403 . S
C4460 C4459 1.403 . S
C4460 C4461 1.404 . S
C4460 C4463 1.539 . S
C4461 C4457 1.408 . S
C4461 C4460 1.404 . S
C4461 H4473 0.930 . S
C4462 C4458 1.524 . S
C4462 H4474 0.956 . S
C4462 H4475 0.961 . S
C4462 H4476 0.961 . S
C4463 C4460 1.539 . S
C4463 H4477 0.958 . S
C4463 H4478 0.961 . S
C4463 H4479 0.960 . S
H4464 C4448 0.931 . S
H4465 C4453 0.929 . S
H4466 C4454 0.960 . S
H4467 C4454 0.962 . S
H4468 C4454 0.960 . S
H4469 C4455 0.961 . S
H4470 C4455 0.961 . S
H4471 C4455 0.961 . S
H4472 C4456 0.931 . S
H4473 C4461 0.930 . S
H4474 C4462 0.956 . S
H4475 C4462 0.961 . S
H4476 C4462 0.961 . S
H4477 C4463 0.958 . S
H4478 C4463 0.961 . S
H4479 C4463 0.960 . S
C4480 C4481 1.391 . S
C4480 C4482 1.394 . S
C4480 H4496 0.931 . S
C4481 C4480 1.391 . S
C4481 C4485 1.376 . S
C4482 C4480 1.394 . S
C4482 C4483 1.369 . S
C4482 C4486 1.531 . S
C4483 C4482 1.369 . S
C4483 C4484 1.410 . S
C4483 C4491 1.503 1_545 S
C4484 C4483 1.410 . S
C4484 C4485 1.392 . S
C4484 C4487 1.511 1_545 S
C4485 C4481 1.376 . S
C4485 C4484 1.392 . S
C4485 H4497 0.929 . S
C4486 C4482 1.531 . S
C4486 H4498 0.960 . S
C4486 H4499 0.962 . S
C4486 H4500 0.960 . S
C4487 C4484 1.511 1_565 S
C4487 H4501 0.961 . S
C4487 H4502 0.961 . S
C4487 H4503 0.961 . S
C4488 C4489 1.370 . S
C4488 C4490 1.363 . S
C4488 H4504 0.931 . S
C4489 C4488 1.370 . S
C4489 C4493 1.408 . S
C4490 C4488 1.363 . S
C4490 C4491 1.370 . S
C4490 C4494 1.524 . S
C4491 C4483 1.503 1_565 S
C4491 C4490 1.370 . S
C4491 C4492 1.403 1_565 S
C4492 C4491 1.403 1_545 S
C4492 C4493 1.404 1_545 S
C4492 C4495 1.539 . S
C4493 C4489 1.408 . S
C4493 C4492 1.404 1_565 S
C4493 H4505 0.930 . S
C4494 C4490 1.524 . S
C4494 H4506 0.956 . S
C4494 H4507 0.961 . S
C4494 H4508 0.961 . S
C4495 C4492 1.539 . S
C4495 H4509 0.958 . S
C4495 H4510 0.961 . S
C4495 H4511 0.960 . S
H4496 C4480 0.931 . S
H4497 C4485 0.929 . S
H4498 C4486 0.960 . S
H4499 C4486 0.962 . S
H4500 C4486 0.960 . S
H4501 C4487 0.961 . S
H4502 C4487 0.961 . S
H4503 C4487 0.961 . S
H4504 C4488 0.931 . S
H4505 C4493 0.930 . S
H4506 C4494 0.956 . S
H4507 C4494 0.961 . S
H4508 C4494 0.961 . S
H4509 C4495 0.958 . S
H4510 C4495 0.961 . S
H4511 C4495 0.960 . S
C4512 C4513 1.391 . S
C4512 C4514 1.394 . S
C4512 H4528 0.931 . S
C4513 C4512 1.391 . S
C4513 C4517 1.376 . S
C4514 C4512 1.394 . S
C4514 C4515 1.369 . S
C4514 C4518 1.531 . S
C4515 C4514 1.369 . S
C4515 C4516 1.410 . S
C4515 C4523 1.503 . S
C4516 C4515 1.410 . S
C4516 C4517 1.392 . S
C4516 C4519 1.511 . S
C4517 C4513 1.376 . S
C4517 C4516 1.392 . S
C4517 H4529 0.929 . S
C4518 C4514 1.531 . S
C4518 H4530 0.960 . S
C4518 H4531 0.962 . S
C4518 H4532 0.960 . S
C4519 C4516 1.511 . S
C4519 H4533 0.961 . S
C4519 H4534 0.961 . S
C4519 H4535 0.961 . S
C4520 C4521 1.370 . S
C4520 C4522 1.363 . S
C4520 H4536 0.931 . S
C4521 C4520 1.370 . S
C4521 C4525 1.408 . S
C4522 C4520 1.363 . S
C4522 C4523 1.370 . S
C4522 C4526 1.524 . S
C4523 C4515 1.503 . S
C4523 C4522 1.370 . S
C4523 C4524 1.403 . S
C4524 C4523 1.403 . S
C4524 C4525 1.404 . S
C4524 C4527 1.539 . S
C4525 C4521 1.408 . S
C4525 C4524 1.404 . S
C4525 H4537 0.930 . S
C4526 C4522 1.524 . S
C4526 H4538 0.956 . S
C4526 H4539 0.961 . S
C4526 H4540 0.961 . S
C4527 C4524 1.539 . S
C4527 H4541 0.958 . S
C4527 H4542 0.961 . S
C4527 H4543 0.960 . S
H4528 C4512 0.931 . S
H4529 C4517 0.929 . S
H4530 C4518 0.960 . S
H4531 C4518 0.962 . S
H4532 C4518 0.960 . S
H4533 C4519 0.961 . S
H4534 C4519 0.961 . S
H4535 C4519 0.961 . S
H4536 C4520 0.931 . S
H4537 C4525 0.930 . S
H4538 C4526 0.956 . S
H4539 C4526 0.961 . S
H4540 C4526 0.961 . S
H4541 C4527 0.958 . S
H4542 C4527 0.961 . S
H4543 C4527 0.960 . S
C4544 C4545 1.391 . S
C4544 C4546 1.394 . S
C4544 H4560 0.931 . S
C4545 C4544 1.391 . S
C4545 C4549 1.376 . S
C4546 C4544 1.394 . S
C4546 C4547 1.369 . S
C4546 C4550 1.531 . S
C4547 C4546 1.369 . S
C4547 C4548 1.410 . S
C4547 C4555 1.503 . S
C4548 C4547 1.410 . S
C4548 C4549 1.392 . S
C4548 C4551 1.511 . S
C4549 C4545 1.376 . S
C4549 C4548 1.392 . S
C4549 H4561 0.929 . S
C4550 C4546 1.531 . S
C4550 H4562 0.960 . S
C4550 H4563 0.962 . S
C4550 H4564 0.960 . S
C4551 C4548 1.511 . S
C4551 H4565 0.961 . S
C4551 H4566 0.961 . S
C4551 H4567 0.961 . S
C4552 C4553 1.370 . S
C4552 C4554 1.363 . S
C4552 H4568 0.931 . S
C4553 C4552 1.370 . S
C4553 C4557 1.408 . S
C4554 C4552 1.363 . S
C4554 C4555 1.370 . S
C4554 C4558 1.524 . S
C4555 C4547 1.503 . S
C4555 C4554 1.370 . S
C4555 C4556 1.403 . S
C4556 C4555 1.403 . S
C4556 C4557 1.404 . S
C4556 C4559 1.539 . S
C4557 C4553 1.408 . S
C4557 C4556 1.404 . S
C4557 H4569 0.930 . S
C4558 C4554 1.524 . S
C4558 H4570 0.956 . S
C4558 H4571 0.961 . S
C4558 H4572 0.961 . S
C4559 C4556 1.539 . S
C4559 H4573 0.958 . S
C4559 H4574 0.961 . S
C4559 H4575 0.960 . S
H4560 C4544 0.931 . S
H4561 C4549 0.929 . S
H4562 C4550 0.960 . S
H4563 C4550 0.962 . S
H4564 C4550 0.960 . S
H4565 C4551 0.961 . S
H4566 C4551 0.961 . S
H4567 C4551 0.961 . S
H4568 C4552 0.931 . S
H4569 C4557 0.930 . S
H4570 C4558 0.956 . S
H4571 C4558 0.961 . S
H4572 C4558 0.961 . S
H4573 C4559 0.958 . S
H4574 C4559 0.961 . S
H4575 C4559 0.960 . S
C4576 C4577 1.391 . S
C4576 C4578 1.394 . S
C4576 H4592 0.931 . S
C4577 C4576 1.391 . S
C4577 C4581 1.376 . S
C4578 C4576 1.394 . S
C4578 C4579 1.369 . S
C4578 C4582 1.531 . S
C4579 C4578 1.369 . S
C4579 C4580 1.410 . S
C4579 C4587 1.503 . S
C4580 C4579 1.410 . S
C4580 C4581 1.392 . S
C4580 C4583 1.511 . S
C4581 C4577 1.376 . S
C4581 C4580 1.392 . S
C4581 H4593 0.929 . S
C4582 C4578 1.531 . S
C4582 H4594 0.960 . S
C4582 H4595 0.962 . S
C4582 H4596 0.960 . S
C4583 C4580 1.511 . S
C4583 H4597 0.961 . S
C4583 H4598 0.961 . S
C4583 H4599 0.961 . S
C4584 C4585 1.370 . S
C4584 C4586 1.363 . S
C4584 H4600 0.931 . S
C4585 C4584 1.370 . S
C4585 C4589 1.408 . S
C4586 C4584 1.363 . S
C4586 C4587 1.370 . S
C4586 C4590 1.524 . S
C4587 C4579 1.503 . S
C4587 C4586 1.370 . S
C4587 C4588 1.403 . S
C4588 C4587 1.403 . S
C4588 C4589 1.404 . S
C4588 C4591 1.539 . S
C4589 C4585 1.408 . S
C4589 C4588 1.404 . S
C4589 H4601 0.930 . S
C4590 C4586 1.524 . S
C4590 H4602 0.956 . S
C4590 H4603 0.961 . S
C4590 H4604 0.961 . S
C4591 C4588 1.539 . S
C4591 H4605 0.958 . S
C4591 H4606 0.961 . S
C4591 H4607 0.960 . S
H4592 C4576 0.931 . S
H4593 C4581 0.929 . S
H4594 C4582 0.960 . S
H4595 C4582 0.962 . S
H4596 C4582 0.960 . S
H4597 C4583 0.961 . S
H4598 C4583 0.961 . S
H4599 C4583 0.961 . S
H4600 C4584 0.931 . S
H4601 C4589 0.930 . S
H4602 C4590 0.956 . S
H4603 C4590 0.961 . S
H4604 C4590 0.961 . S
H4605 C4591 0.958 . S
H4606 C4591 0.961 . S
H4607 C4591 0.960 . S
C4608 C4609 1.391 . S
C4608 C4610 1.394 . S
C4608 H4624 0.931 . S
C4609 C4608 1.391 . S
C4609 C4613 1.376 . S
C4610 C4608 1.394 . S
C4610 C4611 1.369 . S
C4610 C4614 1.531 . S
C4611 C4610 1.369 . S
C4611 C4612 1.410 . S
C4611 C4619 1.503 . S
C4612 C4611 1.410 . S
C4612 C4613 1.392 . S
C4612 C4615 1.511 . S
C4613 C4609 1.376 . S
C4613 C4612 1.392 . S
C4613 H4625 0.929 . S
C4614 C4610 1.531 . S
C4614 H4626 0.960 . S
C4614 H4627 0.962 . S
C4614 H4628 0.960 . S
C4615 C4612 1.511 . S
C4615 H4629 0.961 . S
C4615 H4630 0.961 . S
C4615 H4631 0.961 . S
C4616 C4617 1.370 . S
C4616 C4618 1.363 . S
C4616 H4632 0.931 . S
C4617 C4616 1.370 . S
C4617 C4621 1.408 . S
C4618 C4616 1.363 . S
C4618 C4619 1.370 . S
C4618 C4622 1.524 . S
C4619 C4611 1.503 . S
C4619 C4618 1.370 . S
C4619 C4620 1.403 . S
C4620 C4619 1.403 . S
C4620 C4621 1.404 . S
C4620 C4623 1.539 . S
C4621 C4617 1.408 . S
C4621 C4620 1.404 . S
C4621 H4633 0.930 . S
C4622 C4618 1.524 . S
C4622 H4634 0.956 . S
C4622 H4635 0.961 . S
C4622 H4636 0.961 . S
C4623 C4620 1.539 . S
C4623 H4637 0.958 . S
C4623 H4638 0.961 . S
C4623 H4639 0.960 . S
H4624 C4608 0.931 . S
H4625 C4613 0.929 . S
H4626 C4614 0.960 . S
H4627 C4614 0.962 . S
H4628 C4614 0.960 . S
H4629 C4615 0.961 . S
H4630 C4615 0.961 . S
H4631 C4615 0.961 . S
H4632 C4616 0.931 . S
H4633 C4621 0.930 . S
H4634 C4622 0.956 . S
H4635 C4622 0.961 . S
H4636 C4622 0.961 . S
H4637 C4623 0.958 . S
H4638 C4623 0.961 . S
H4639 C4623 0.960 . S
C4640 C4641 1.391 . S
C4640 C4642 1.394 . S
C4640 H4656 0.931 . S
C4641 C4640 1.391 . S
C4641 C4645 1.376 . S
C4642 C4640 1.394 . S
C4642 C4643 1.369 . S
C4642 C4646 1.531 . S
C4643 C4642 1.369 . S
C4643 C4644 1.410 . S
C4643 C4651 1.503 . S
C4644 C4643 1.410 . S
C4644 C4645 1.392 . S
C4644 C4647 1.511 . S
C4645 C4641 1.376 . S
C4645 C4644 1.392 . S
C4645 H4657 0.929 . S
C4646 C4642 1.531 . S
C4646 H4658 0.960 . S
C4646 H4659 0.962 . S
C4646 H4660 0.960 . S
C4647 C4644 1.511 . S
C4647 H4661 0.961 . S
C4647 H4662 0.961 . S
C4647 H4663 0.961 . S
C4648 C4649 1.370 . S
C4648 C4650 1.363 . S
C4648 H4664 0.931 . S
C4649 C4648 1.370 . S
C4649 C4653 1.408 . S
C4650 C4648 1.363 . S
C4650 C4651 1.370 . S
C4650 C4654 1.524 . S
C4651 C4643 1.503 . S
C4651 C4650 1.370 . S
C4651 C4652 1.403 . S
C4652 C4651 1.403 . S
C4652 C4653 1.404 . S
C4652 C4655 1.539 . S
C4653 C4649 1.408 . S
C4653 C4652 1.404 . S
C4653 H4665 0.930 . S
C4654 C4650 1.524 . S
C4654 H4666 0.956 . S
C4654 H4667 0.961 . S
C4654 H4668 0.961 . S
C4655 C4652 1.539 . S
C4655 H4669 0.958 . S
C4655 H4670 0.961 . S
C4655 H4671 0.960 . S
H4656 C4640 0.931 . S
H4657 C4645 0.929 . S
H4658 C4646 0.960 . S
H4659 C4646 0.962 . S
H4660 C4646 0.960 . S
H4661 C4647 0.961 . S
H4662 C4647 0.961 . S
H4663 C4647 0.961 . S
H4664 C4648 0.931 . S
H4665 C4653 0.930 . S
H4666 C4654 0.956 . S
H4667 C4654 0.961 . S
H4668 C4654 0.961 . S
H4669 C4655 0.958 . S
H4670 C4655 0.961 . S
H4671 C4655 0.960 . S
C4672 C4673 1.391 . S
C4672 C4674 1.394 . S
C4672 H4688 0.931 . S
C4673 C4672 1.391 . S
C4673 C4677 1.376 . S
C4674 C4672 1.394 . S
C4674 C4675 1.369 . S
C4674 C4678 1.531 . S
C4675 C4674 1.369 . S
C4675 C4676 1.410 . S
C4675 C4683 1.503 . S
C4676 C4675 1.410 . S
C4676 C4677 1.392 . S
C4676 C4679 1.511 . S
C4677 C4673 1.376 . S
C4677 C4676 1.392 . S
C4677 H4689 0.929 . S
C4678 C4674 1.531 . S
C4678 H4690 0.960 . S
C4678 H4691 0.962 . S
C4678 H4692 0.960 . S
C4679 C4676 1.511 . S
C4679 H4693 0.961 . S
C4679 H4694 0.961 . S
C4679 H4695 0.961 . S
C4680 C4681 1.370 . S
C4680 C4682 1.363 . S
C4680 H4696 0.931 . S
C4681 C4680 1.370 . S
C4681 C4685 1.408 . S
C4682 C4680 1.363 . S
C4682 C4683 1.370 . S
C4682 C4686 1.524 . S
C4683 C4675 1.503 . S
C4683 C4682 1.370 . S
C4683 C4684 1.403 . S
C4684 C4683 1.403 . S
C4684 C4685 1.404 . S
C4684 C4687 1.539 . S
C4685 C4681 1.408 . S
C4685 C4684 1.404 . S
C4685 H4697 0.930 . S
C4686 C4682 1.524 . S
C4686 H4698 0.956 . S
C4686 H4699 0.961 . S
C4686 H4700 0.961 . S
C4687 C4684 1.539 . S
C4687 H4701 0.958 . S
C4687 H4702 0.961 . S
C4687 H4703 0.960 . S
H4688 C4672 0.931 . S
H4689 C4677 0.929 . S
H4690 C4678 0.960 . S
H4691 C4678 0.962 . S
H4692 C4678 0.960 . S
H4693 C4679 0.961 . S
H4694 C4679 0.961 . S
H4695 C4679 0.961 . S
H4696 C4680 0.931 . S
H4697 C4685 0.930 . S
H4698 C4686 0.956 . S
H4699 C4686 0.961 . S
H4700 C4686 0.961 . S
H4701 C4687 0.958 . S
H4702 C4687 0.961 . S
H4703 C4687 0.960 . S
C4704 C4705 1.391 . S
C4704 C4706 1.394 . S
C4704 H4720 0.931 . S
C4705 C4704 1.391 . S
C4705 C4709 1.376 . S
C4706 C4704 1.394 . S
C4706 C4707 1.369 . S
C4706 C4710 1.531 . S
C4707 C4706 1.369 . S
C4707 C4708 1.410 . S
C4707 C4715 1.503 . S
C4708 C4707 1.410 . S
C4708 C4709 1.392 . S
C4708 C4711 1.511 . S
C4709 C4705 1.376 . S
C4709 C4708 1.392 . S
C4709 H4721 0.929 . S
C4710 C4706 1.531 . S
C4710 H4722 0.960 . S
C4710 H4723 0.962 . S
C4710 H4724 0.960 . S
C4711 C4708 1.511 . S
C4711 H4725 0.961 . S
C4711 H4726 0.961 . S
C4711 H4727 0.961 . S
C4712 C4713 1.370 . S
C4712 C4714 1.363 . S
C4712 H4728 0.931 . S
C4713 C4712 1.370 . S
C4713 C4717 1.408 . S
C4714 C4712 1.363 . S
C4714 C4715 1.370 . S
C4714 C4718 1.524 . S
C4715 C4707 1.503 . S
C4715 C4714 1.370 . S
C4715 C4716 1.403 . S
C4716 C4715 1.403 . S
C4716 C4717 1.404 . S
C4716 C4719 1.539 . S
C4717 C4713 1.408 . S
C4717 C4716 1.404 . S
C4717 H4729 0.930 . S
C4718 C4714 1.524 . S
C4718 H4730 0.956 . S
C4718 H4731 0.961 . S
C4718 H4732 0.961 . S
C4719 C4716 1.539 . S
C4719 H4733 0.958 . S
C4719 H4734 0.961 . S
C4719 H4735 0.960 . S
H4720 C4704 0.931 . S
H4721 C4709 0.929 . S
H4722 C4710 0.960 . S
H4723 C4710 0.962 . S
H4724 C4710 0.960 . S
H4725 C4711 0.961 . S
H4726 C4711 0.961 . S
H4727 C4711 0.961 . S
H4728 C4712 0.931 . S
H4729 C4717 0.930 . S
H4730 C4718 0.956 . S
H4731 C4718 0.961 . S
H4732 C4718 0.961 . S
H4733 C4719 0.958 . S
H4734 C4719 0.961 . S
H4735 C4719 0.960 . S
C4736 C4737 1.391 . S
C4736 C4738 1.394 . S
C4736 H4752 0.931 . S
C4737 C4736 1.391 . S
C4737 C4741 1.376 . S
C4738 C4736 1.394 . S
C4738 C4739 1.369 . S
C4738 C4742 1.531 . S
C4739 C4738 1.369 . S
C4739 C4740 1.410 . S
C4739 C4747 1.503 . S
C4740 C4739 1.410 . S
C4740 C4741 1.392 . S
C4740 C4743 1.511 . S
C4741 C4737 1.376 . S
C4741 C4740 1.392 . S
C4741 H4753 0.929 . S
C4742 C4738 1.531 . S
C4742 H4754 0.960 . S
C4742 H4755 0.962 . S
C4742 H4756 0.960 . S
C4743 C4740 1.511 . S
C4743 H4757 0.961 . S
C4743 H4758 0.961 . S
C4743 H4759 0.961 . S
C4744 C4745 1.370 . S
C4744 C4746 1.363 . S
C4744 H4760 0.931 . S
C4745 C4744 1.370 . S
C4745 C4749 1.408 . S
C4746 C4744 1.363 . S
C4746 C4747 1.370 . S
C4746 C4750 1.524 . S
C4747 C4739 1.503 . S
C4747 C4746 1.370 . S
C4747 C4748 1.403 . S
C4748 C4747 1.403 . S
C4748 C4749 1.404 . S
C4748 C4751 1.539 . S
C4749 C4745 1.408 . S
C4749 C4748 1.404 . S
C4749 H4761 0.930 . S
C4750 C4746 1.524 . S
C4750 H4762 0.956 . S
C4750 H4763 0.961 . S
C4750 H4764 0.961 . S
C4751 C4748 1.539 . S
C4751 H4765 0.958 . S
C4751 H4766 0.961 . S
C4751 H4767 0.960 . S
H4752 C4736 0.931 . S
H4753 C4741 0.929 . S
H4754 C4742 0.960 . S
H4755 C4742 0.962 . S
H4756 C4742 0.960 . S
H4757 C4743 0.961 . S
H4758 C4743 0.961 . S
H4759 C4743 0.961 . S
H4760 C4744 0.931 . S
H4761 C4749 0.930 . S
H4762 C4750 0.956 . S
H4763 C4750 0.961 . S
H4764 C4750 0.961 . S
H4765 C4751 0.958 . S
H4766 C4751 0.961 . S
H4767 C4751 0.960 . S
C4768 C4769 1.391 . S
C4768 C4770 1.394 . S
C4768 H4784 0.931 . S
C4769 C4768 1.391 . S
C4769 C4773 1.376 . S
C4770 C4768 1.394 . S
C4770 C4771 1.369 . S
C4770 C4774 1.531 . S
C4771 C4770 1.369 . S
C4771 C4772 1.410 . S
C4771 C4779 1.503 . S
C4772 C4771 1.410 . S
C4772 C4773 1.392 . S
C4772 C4775 1.511 . S
C4773 C4769 1.376 . S
C4773 C4772 1.392 . S
C4773 H4785 0.929 . S
C4774 C4770 1.531 . S
C4774 H4786 0.960 . S
C4774 H4787 0.962 . S
C4774 H4788 0.960 . S
C4775 C4772 1.511 . S
C4775 H4789 0.961 . S
C4775 H4790 0.961 . S
C4775 H4791 0.961 . S
C4776 C4777 1.370 . S
C4776 C4778 1.363 . S
C4776 H4792 0.931 . S
C4777 C4776 1.370 . S
C4777 C4781 1.408 . S
C4778 C4776 1.363 . S
C4778 C4779 1.370 . S
C4778 C4782 1.524 . S
C4779 C4771 1.503 . S
C4779 C4778 1.370 . S
C4779 C4780 1.403 . S
C4780 C4779 1.403 . S
C4780 C4781 1.404 . S
C4780 C4783 1.539 . S
C4781 C4777 1.408 . S
C4781 C4780 1.404 . S
C4781 H4793 0.930 . S
C4782 C4778 1.524 . S
C4782 H4794 0.956 . S
C4782 H4795 0.961 . S
C4782 H4796 0.961 . S
C4783 C4780 1.539 . S
C4783 H4797 0.958 . S
C4783 H4798 0.961 . S
C4783 H4799 0.960 . S
H4784 C4768 0.931 . S
H4785 C4773 0.929 . S
H4786 C4774 0.960 . S
H4787 C4774 0.962 . S
H4788 C4774 0.960 . S
H4789 C4775 0.961 . S
H4790 C4775 0.961 . S
H4791 C4775 0.961 . S
H4792 C4776 0.931 . S
H4793 C4781 0.930 . S
H4794 C4782 0.956 . S
H4795 C4782 0.961 . S
H4796 C4782 0.961 . S
H4797 C4783 0.958 . S
H4798 C4783 0.961 . S
H4799 C4783 0.960 . S
C4800 C4801 1.391 . S
C4800 C4802 1.394 . S
C4800 H4816 0.931 . S
C4801 C4800 1.391 . S
C4801 C4805 1.376 . S
C4802 C4800 1.394 . S
C4802 C4803 1.369 . S
C4802 C4806 1.531 . S
C4803 C4802 1.369 . S
C4803 C4804 1.410 . S
C4803 C4811 1.503 . S
C4804 C4803 1.410 . S
C4804 C4805 1.392 . S
C4804 C4807 1.511 . S
C4805 C4801 1.376 . S
C4805 C4804 1.392 . S
C4805 H4817 0.929 . S
C4806 C4802 1.531 . S
C4806 H4818 0.960 . S
C4806 H4819 0.962 . S
C4806 H4820 0.960 . S
C4807 C4804 1.511 . S
C4807 H4821 0.961 . S
C4807 H4822 0.961 . S
C4807 H4823 0.961 . S
C4808 C4809 1.370 . S
C4808 C4810 1.363 . S
C4808 H4824 0.931 . S
C4809 C4808 1.370 . S
C4809 C4813 1.408 . S
C4810 C4808 1.363 . S
C4810 C4811 1.370 . S
C4810 C4814 1.524 . S
C4811 C4803 1.503 . S
C4811 C4810 1.370 . S
C4811 C4812 1.403 . S
C4812 C4811 1.403 . S
C4812 C4813 1.404 . S
C4812 C4815 1.539 . S
C4813 C4809 1.408 . S
C4813 C4812 1.404 . S
C4813 H4825 0.930 . S
C4814 C4810 1.524 . S
C4814 H4826 0.956 . S
C4814 H4827 0.961 . S
C4814 H4828 0.961 . S
C4815 C4812 1.539 . S
C4815 H4829 0.958 . S
C4815 H4830 0.961 . S
C4815 H4831 0.960 . S
H4816 C4800 0.931 . S
H4817 C4805 0.929 . S
H4818 C4806 0.960 . S
H4819 C4806 0.962 . S
H4820 C4806 0.960 . S
H4821 C4807 0.961 . S
H4822 C4807 0.961 . S
H4823 C4807 0.961 . S
H4824 C4808 0.931 . S
H4825 C4813 0.930 . S
H4826 C4814 0.956 . S
H4827 C4814 0.961 . S
H4828 C4814 0.961 . S
H4829 C4815 0.958 . S
H4830 C4815 0.961 . S
H4831 C4815 0.960 . S
C4832 C4833 1.391 . S
C4832 C4834 1.394 . S
C4832 H4848 0.931 . S
C4833 C4832 1.391 . S
C4833 C4837 1.376 . S
C4834 C4832 1.394 . S
C4834 C4835 1.369 . S
C4834 C4838 1.531 . S
C4835 C4834 1.369 . S
C4835 C4836 1.410 . S
C4835 C4843 1.503 . S
C4836 C4835 1.410 . S
C4836 C4837 1.392 . S
C4836 C4839 1.511 . S
C4837 C4833 1.376 . S
C4837 C4836 1.392 . S
C4837 H4849 0.929 . S
C4838 C4834 1.531 . S
C4838 H4850 0.960 . S
C4838 H4851 0.962 . S
C4838 H4852 0.960 . S
C4839 C4836 1.511 . S
C4839 H4853 0.961 . S
C4839 H4854 0.961 . S
C4839 H4855 0.961 . S
C4840 C4841 1.370 . S
C4840 C4842 1.363 . S
C4840 H4856 0.931 . S
C4841 C4840 1.370 . S
C4841 C4845 1.408 . S
C4842 C4840 1.363 . S
C4842 C4843 1.370 . S
C4842 C4846 1.524 . S
C4843 C4835 1.503 . S
C4843 C4842 1.370 . S
C4843 C4844 1.403 . S
C4844 C4843 1.403 . S
C4844 C4845 1.404 . S
C4844 C4847 1.539 . S
C4845 C4841 1.408 . S
C4845 C4844 1.404 . S
C4845 H4857 0.930 . S
C4846 C4842 1.524 . S
C4846 H4858 0.956 . S
C4846 H4859 0.961 . S
C4846 H4860 0.961 . S
C4847 C4844 1.539 . S
C4847 H4861 0.958 . S
C4847 H4862 0.961 . S
C4847 H4863 0.960 . S
H4848 C4832 0.931 . S
H4849 C4837 0.929 . S
H4850 C4838 0.960 . S
H4851 C4838 0.962 . S
H4852 C4838 0.960 . S
H4853 C4839 0.961 . S
H4854 C4839 0.961 . S
H4855 C4839 0.961 . S
H4856 C4840 0.931 . S
H4857 C4845 0.930 . S
H4858 C4846 0.956 . S
H4859 C4846 0.961 . S
H4860 C4846 0.961 . S
H4861 C4847 0.958 . S
H4862 C4847 0.961 . S
H4863 C4847 0.960 . S
C4864 C4865 1.391 . S
C4864 C4866 1.394 . S
C4864 H4880 0.931 . S
C4865 C4864 1.391 . S
C4865 C4869 1.376 . S
C4866 C4864 1.394 . S
C4866 C4867 1.369 . S
C4866 C4870 1.531 . S
C4867 C4866 1.369 . S
C4867 C4868 1.410 . S
C4867 C4875 1.503 . S
C4868 C4867 1.410 . S
C4868 C4869 1.392 . S
C4868 C4871 1.511 . S
C4869 C4865 1.376 . S
C4869 C4868 1.392 . S
C4869 H4881 0.929 . S
C4870 C4866 1.531 . S
C4870 H4882 0.960 . S
C4870 H4883 0.962 . S
C4870 H4884 0.960 . S
C4871 C4868 1.511 . S
C4871 H4885 0.961 . S
C4871 H4886 0.961 . S
C4871 H4887 0.961 . S
C4872 C4873 1.370 . S
C4872 C4874 1.363 . S
C4872 H4888 0.931 . S
C4873 C4872 1.370 . S
C4873 C4877 1.408 . S
C4874 C4872 1.363 . S
C4874 C4875 1.370 . S
C4874 C4878 1.524 . S
C4875 C4867 1.503 . S
C4875 C4874 1.370 . S
C4875 C4876 1.403 . S
C4876 C4875 1.403 . S
C4876 C4877 1.404 . S
C4876 C4879 1.539 . S
C4877 C4873 1.408 . S
C4877 C4876 1.404 . S
C4877 H4889 0.930 . S
C4878 C4874 1.524 . S
C4878 H4890 0.956 . S
C4878 H4891 0.961 . S
C4878 H4892 0.961 . S
C4879 C4876 1.539 . S
C4879 H4893 0.958 . S
C4879 H4894 0.961 . S
C4879 H4895 0.960 . S
H4880 C4864 0.931 . S
H4881 C4869 0.929 . S
H4882 C4870 0.960 . S
H4883 C4870 0.962 . S
H4884 C4870 0.960 . S
H4885 C4871 0.961 . S
H4886 C4871 0.961 . S
H4887 C4871 0.961 . S
H4888 C4872 0.931 . S
H4889 C4877 0.930 . S
H4890 C4878 0.956 . S
H4891 C4878 0.961 . S
H4892 C4878 0.961 . S
H4893 C4879 0.958 . S
H4894 C4879 0.961 . S
H4895 C4879 0.960 . S
C1441 C10 1.733 . S
C1449 C91 1.798 . S
C1473 C11 1.770 . S
C1481 C50 1.718 1_545 S
C1505 C90 1.746 1_655 S
C1513 C51 1.793 . S
C1537 C130 1.791 . S
C1545 C171 1.872 . S
C1569 C211 1.879 . S
C1577 C170 1.821 1_565 S
C1601 C210 1.802 1_455 S
C1609 C131 1.866 . S
C1633 C259 1.695 . S
C1641 C322 1.790 . S
C1665 C299 1.702 1_565 S
C1673 C242 1.793 . S
C1697 C339 1.694 1_455 S
C1705 C282 1.787 . S
C1729 C379 1.829 . S
C1737 C402 1.877 . S
C1761 C442 1.850 . S
C1769 C419 1.804 1_545 S
C1793 C362 1.882 . S
C1801 C459 1.816 1_655 S
C1825 C571 1.846 . S
C1833 C490 1.785 . S
C1857 C530 1.821 . S
C1865 C491 1.865 . S
C1889 C531 1.865 . S
C1897 C570 1.808 . S
C1921 C610 1.801 . S
C1929 C651 1.884 . S
C1953 C691 1.901 . S
C1961 C650 1.839 . S
C1985 C611 1.898 . S
C1993 C690 1.841 . S
C2017 C739 1.745 . S
C2025 C802 1.831 . S
C2049 C779 1.786 . S
C2057 C722 1.834 . S
C2081 C762 1.837 . S
C2089 C819 1.776 . S
C2113 C882 1.694 . S
C2121 C859 1.623 1_554 S
C2145 C899 1.682 1_554 S
C2153 C922 1.711 . S
C2177 C842 1.711 . S
C2185 C939 1.653 1_554 S
C2209 C970 1.738 . S
C2217 C1051 1.820 . S
C2241 C1010 1.734 . S
C2249 C971 1.824 . S
C2273 C1050 1.731 . S
C2281 C1011 1.823 . S
C2305 C1090 1.681 1_556 S
C2313 C1131 1.714 . S
C2337 C1130 1.634 1_556 S
C2345 C1171 1.702 . S
C2369 C1170 1.683 1_556 S
C2377 C1091 1.713 . S
C2401 C1219 1.764 . S
C2409 C1282 1.855 . S
C2433 C1259 1.817 . S
C2441 C1202 1.860 . S
C2465 C1242 1.841 . S
C2473 C1299 1.796 . S
C2497 C1339 1.796 . S
C2505 C1362 1.888 . S
C2529 C1379 1.827 . S
C2537 C1402 1.896 . S
C2561 C1322 1.899 . S
C2569 C1419 1.840 . S
C2593 C2 1.833 . S
C2601 C810 1.811 . S
C2625 C730 1.772 . S
C2633 C42 1.828 . S
C2657 C82 1.809 . S
C2665 C770 1.803 . S
C2689 C122 1.734 . S
C2697 C1370 1.682 . S
C2721 C1410 1.704 . S
C2729 C162 1.716 . S
C2753 C202 1.701 . S
C2761 C1330 1.677 . S
C2785 C1059 1.818 . S
C2793 C251 1.833 . S
C2817 C291 1.825 . S
C2825 C979 1.791 . S
C2849 C331 1.808 . S
C2857 C1019 1.796 . S
C2881 C659 1.668 . S
C2889 C371 1.729 . S
C2913 C699 1.661 . S
C2921 C411 1.727 . S
C2945 C619 1.666 . S
C2953 C451 1.715 . S
C2977 C482 1.769 . S
C2985 C1290 1.734 . S
C3009 C522 1.770 . S
C3017 C1210 1.754 . S
C3041 C1250 1.715 . S
C3049 C562 1.777 . S
C3073 C410 1.698 . S
C3081 C602 1.762 . S
C3105 C450 1.750 . S
C3113 C642 1.768 . S
C3137 C370 1.721 . S
C3145 C682 1.755 . S
C3169 C99 1.772 . S
C3177 C731 1.828 . S
C3201 C771 1.801 . S
C3209 C19 1.800 . S
C3233 C811 1.825 . S
C3241 C59 1.787 . S
C3265 C1139 1.735 . S
C3273 C851 1.804 . S
C3297 C1179 1.723 . S
C3305 C891 1.801 . S
C3329 C931 1.781 . S
C3337 C1099 1.737 1_554 S
C3361 C330 1.769 . S
C3369 C962 1.823 . S
C3393 C250 1.770 . S
C3401 C1002 1.820 . S
C3425 C290 1.817 . S
C3433 C1042 1.825 . S
C3457 C1082 1.772 . S
C3465 C890 1.746 1_556 S
C3489 C930 1.750 1_556 S
C3497 C1122 1.804 . S
C3521 C1162 1.810 . S
C3529 C850 1.738 . S
C3553 C1211 1.776 . S
C3561 C579 1.734 . S
C3585 C1251 1.775 . S
C3593 C499 1.733 . S
C3617 C1291 1.786 . S
C3625 C539 1.736 . S
C3649 C1331 1.757 . S
C3657 C179 1.742 . S
C3681 C219 1.704 . S
C3689 C1371 1.770 . S
C3713 C139 1.698 . S
C3721 C1411 1.765 . S
C3745 C1167 2.336 . S
C3753 C7 2.310 . S
C3777 C1087 2.307 . S
C3785 C47 2.304 . S
C3809 C87 2.307 . S
C3817 C1127 2.304 . S
C3841 C527 2.579 . S
C3849 C127 2.570 . S
C3873 C167 2.558 . S
C3881 C567 2.570 . S
C3905 C207 2.576 . S
C3913 C487 2.581 . S
C3937 C256 2.315 . S
C3945 C936 2.316 . S
C3969 C296 2.330 . S
C3977 C856 2.314 . S
C4001 C336 2.338 . S
C4009 C896 2.309 . S
C4033 C1256 2.568 . S
C4041 C376 2.580 . S
C4065 C1296 2.584 . S
C4073 C416 2.571 . S
C4097 C1216 2.566 . S
C4105 C456 2.567 . S
C4129 C607 2.615 . S
C4137 C1007 2.628 . S
C4161 C647 2.627 . S
C4169 C1047 2.627 . S
C4193 C687 2.612 . S
C4201 C967 2.635 . S
C4225 C736 2.642 . S
C4233 C1416 2.631 . S
C4257 C1336 2.638 1_655 S
C4265 C776 2.630 . S
C4289 C816 2.613 . S
C4297 C1376 2.629 . S
C4321 C176 1.119 . S
C4329 C16 1.121 . S
C4353 C216 1.127 . S
C4361 C56 1.124 . S
C4385 C136 1.130 . S
C4393 C96 1.126 . S
C4417 C247 1.125 . S
C4425 C407 1.122 . S
C4449 C447 1.112 . S
C4457 C287 1.121 . S
C4481 C327 1.125 . S
C4489 C367 1.126 . S
C4513 C656 1.216 . S
C4521 C496 1.217 . S
C4545 C696 1.200 . S
C4553 C536 1.210 . S
C4577 C616 1.204 . S
C4585 C576 1.212 . S
C4609 C887 1.474 . S
C4617 C727 1.516 . S
C4641 C767 1.500 . S
C4649 C927 1.511 . S
C4673 C807 1.494 . S
C4681 C847 1.512 . S
C4705 C976 1.500 . S
C4713 C1136 1.512 . S
C4737 C1176 1.503 . S
C4745 C1016 1.516 . S
C4769 C1056 1.490 . S
C4777 C1096 1.504 . S
C4801 C1207 1.203 . S
C4809 C1367 1.212 . S
C4833 C1407 1.200 . S
C4841 C1247 1.210 . S
C4865 C1287 1.204 . S
C4873 C1327 1.209 . S
