# Generated by pormake.
# Topology snp, (6)-cn, num edge types: 1
# Building blocks:
#     Node 0, Type 0, BuildingBlock: HISSIN_clean_sbu_0, # of connection points: 6
#     Node 1, Type 0, BuildingBlock: HISSIN_clean_sbu_0, # of connection points: 6
#     Node 2, Type 0, BuildingBlock: HISSIN_clean_sbu_0, # of connection points: 6
#     Node 3, Type 0, BuildingBlock: HISSIN_clean_sbu_0, # of connection points: 6
#     Edge 4, Type (0, 0), BuildingBlock: XIVTED_clean_linker_0, # of connection points: 2
#     Edge 5, Type (0, 0), BuildingBlock: XIVTED_clean_linker_0, # of connection points: 2
#     Edge 6, Type (0, 0), BuildingBlock: XIVTED_clean_linker_0, # of connection points: 2
#     Edge 7, Type (0, 0), BuildingBlock: XIVTED_clean_linker_0, # of connection points: 2
#     Edge 8, Type (0, 0), BuildingBlock: XIVTED_clean_linker_0, # of connection points: 2
#     Edge 9, Type (0, 0), BuildingBlock: XIVTED_clean_linker_0, # of connection points: 2
#     Edge 10, Type (0, 0), BuildingBlock: XIVTED_clean_linker_0, # of connection points: 2
#     Edge 11, Type (0, 0), BuildingBlock: XIVTED_clean_linker_0, # of connection points: 2
#     Edge 12, Type (0, 0), BuildingBlock: XIVTED_clean_linker_0, # of connection points: 2
#     Edge 13, Type (0, 0), BuildingBlock: XIVTED_clean_linker_0, # of connection points: 2
#     Edge 14, Type (0, 0), BuildingBlock: XIVTED_clean_linker_0, # of connection points: 2
#     Edge 15, Type (0, 0), BuildingBlock: XIVTED_clean_linker_0, # of connection points: 2
# Relax obj value: 0.715
# Max RMSD: 0.184
# Mean RMSD: 0.184
data_MOF--net-snp--node1-HISSIN_clean_sbu_0--edge1-XIVTED_clean_linker_0
_symmetry_space_group_name_H-M    P1
_symmetry_Int_Tables_number       1
_symmetry_cell_setting            triclinic
loop_
_symmetry_equiv_pos_as_xyz
'x, y, z'
_cell_length_a     24.498321
_cell_length_b     23.982608
_cell_length_c     29.315958
_cell_angle_alpha  92.154886
_cell_angle_beta   87.342056
_cell_angle_gamma 120.99783
loop_
_atom_site_label
_atom_site_type_symbol
_atom_site_fract_x
_atom_site_fract_y
_atom_site_fract_z
_atom_type_partial_charge
Eu0 Eu 0.23554 -0.00012 0.26533 0.0
Eu1 Eu 0.35117 0.14939 0.24653 0.0
C2 C 0.38257 0.0481 0.28397 0.0
C3 C 0.17028 0.83111 0.30401 0.0
C4 C 0.23162 0.85282 0.31897 0.0
C5 C 0.14116 0.71976 0.3182 0.0
C6 C 0.24754 0.80886 0.33392 0.0
C7 C 0.12535 0.76424 0.30279 0.0
C8 C 0.20235 0.74178 0.33452 0.0
C9 C 0.1556 0.87911 0.2881 0.0
O10 O 0.32823 0.09928 0.17336 0.0
O11 O 0.24513 -0.00446 0.18847 0.0
C12 C 0.28382 0.03992 0.15893 0.0
O13 O 0.19167 0.04031 0.22048 0.0
O14 O 0.45053 0.21368 0.22589 0.0
O15 O 0.39077 0.25405 0.24386 0.0
O16 O 0.25735 0.14209 0.24552 0.0
C17 C 0.21625 0.10306 0.21608 0.0
O18 O 0.22923 0.06064 0.3267 0.0
O19 O 0.32127 0.1607 0.31996 0.0
O20 O 0.39156 0.10617 0.29045 0.0
O21 O 0.17057 0.92867 0.31551 0.0
O22 O 0.17439 0.89744 0.24634 0.0
O23 O 0.32944 0.00171 0.26665 0.0
C24 C 0.47303 0.30911 0.18937 0.0
C25 C 0.45638 0.28461 1.14483 0.0
C26 C 0.5344 0.41871 0.16045 0.0
C27 C 0.47821 0.3271 1.10826 0.0
C28 C 0.51296 0.37607 0.197 0.0
C29 C 0.51637 0.39461 1.11587 0.0
C30 C 0.44638 0.26586 0.22832 0.0
C31 C 0.26847 0.12013 0.34306 0.0
H32 H 0.26702 0.90419 0.32022 0.0
H33 H 0.10521 0.66847 0.31837 0.0
H34 H 0.29449 0.82824 0.34741 0.0
H35 H 0.07798 0.74662 0.29066 0.0
H36 H 0.42504 0.23295 1.13853 0.0
H37 H 0.56361 0.47055 0.16709 0.0
H38 H 0.46251 0.30739 1.07432 0.0
H39 H 0.52603 0.39548 0.23135 0.0
Eu40 Eu 0.02161 0.21517 0.73009 0.0
Eu41 Eu 0.1577 0.34998 0.73854 0.0
C42 C 0.04103 0.35515 0.70402 0.0
C43 C 0.84734 0.10802 0.71275 0.0
C44 C 0.84365 0.16378 0.72137 0.0
C45 C 0.74261 0.05489 0.68037 0.0
C46 C 0.79264 0.16724 0.70578 0.0
C47 C 0.79496 0.05224 0.69477 0.0
C48 C 0.74357 0.1144 0.68162 0.0
C49 C 0.90972 0.11342 0.71383 0.0
O50 O 0.11251 0.32566 0.81373 0.0
O51 O 0.00936 0.243 0.80241 0.0
C52 C 0.05405 0.28305 0.8303 0.0
O53 O 0.07756 0.19506 0.77974 0.0
O54 O 0.2099 0.45258 0.75844 0.0
O55 O 0.2612 0.40613 0.73188 0.0
O56 O 0.17189 0.26741 0.74732 0.0
C57 C 0.14 0.22757 0.78014 0.0
O58 O 0.08582 0.21098 0.67118 0.0
O59 O 0.16492 0.31787 0.66465 0.0
O60 O 0.1008 0.37484 0.69575 0.0
O61 O 0.94996 0.15032 0.68207 0.0
O62 O 0.93598 0.1259 0.75343 0.0
O63 O 0.00317 0.29895 0.72352 0.0
C64 C 0.31175 0.48857 0.78678 0.0
C65 C 0.29165 0.47842 0.83284 0.0
C66 C 0.4219 0.54411 0.80917 0.0
C67 C 0.33642 0.50038 0.86683 0.0
C68 C 0.37702 0.52277 0.77515 0.0
C69 C 0.40185 0.53194 0.85523 0.0
C70 C 0.26556 0.45841 0.75057 0.0
C71 C 0.13495 0.25767 0.64797 0.0
H72 H 0.88324 0.20702 0.7361 0.0
H73 H 0.70427 0.01164 0.66474 0.0
H74 H 0.79625 0.21405 0.70866 0.0
H75 H 0.79647 0.0082 0.68872 0.0
H76 H 0.24142 0.45122 0.84248 0.0
H77 H 0.47206 0.568 0.79947 0.0
H78 H 0.31963 0.48907 0.90202 0.0
H79 H 0.39316 0.53056 0.73965 0.0
Eu80 Eu 0.95016 0.18114 0.2815 0.0
Eu81 Eu 0.90433 0.03623 0.24334 0.0
C82 C 0.80328 0.0736 0.27759 0.0
C83 C 0.91906 0.30095 0.34491 0.0
C84 C 0.85808 0.28738 0.33341 0.0
C85 C 0.89421 0.31494 0.42418 0.0
C86 C 0.81455 0.28398 0.36727 0.0
C87 C 0.9377 0.31788 0.39031 0.0
C88 C 0.83126 0.2949 0.41324 0.0
C89 C 0.95919 0.28938 0.31101 0.0
O90 O 0.90823 0.08306 0.17567 0.0
O91 O 0.94851 0.18827 0.20243 0.0
C92 C 0.93142 0.14549 0.16787 0.0
O93 O 0.03661 0.19922 0.24005 0.0
O94 O 0.83727 0.93514 0.26041 0.0
O95 O 0.904 0.95787 0.2029 0.0
O96 O 0.00656 0.09339 0.21889 0.0
C97 C 0.04488 0.15683 0.21579 0.0
O98 O 0.98082 0.14337 0.34104 0.0
O99 O 0.93979 0.03842 0.31513 0.0
O100 O 0.81766 0.04609 0.2438 0.0
O101 O -0.00585 0.26772 0.32631 0.0
O102 O 0.93077 0.2588 0.27375 0.0
O103 O 0.84798 0.11421 0.30466 0.0
C104 C 0.80417 0.86048 0.19922 0.0
C105 C 0.77814 0.87547 0.16352 0.0
C106 C 0.73556 0.74543 0.18225 0.0
C107 C 0.73263 0.82575 1.13627 0.0
C108 C 0.78139 0.79534 0.20936 0.0
C109 C 0.71215 0.76016 1.14447 0.0
C110 C 0.85547 0.91217 0.22585 0.0
C111 C 0.96872 0.08348 0.34708 0.0
H112 H 0.84227 0.27526 0.29862 0.0
H113 H 0.90846 0.32326 0.45938 0.0
H114 H 0.76661 0.26905 0.35781 0.0
H115 H 0.9845 0.32931 0.40014 0.0
H116 H 0.79472 0.92565 1.15569 0.0
H117 H 0.72035 0.69552 0.18976 0.0
H118 H 0.71663 0.83921 1.10708 0.0
H119 H 0.80042 0.78313 0.23743 0.0
Eu120 Eu 0.17526 0.92558 0.71102 0.0
Eu121 Eu 0.03644 0.89064 0.75051 0.0
C122 C 0.06177 0.77898 0.7168 0.0
C123 C 0.29058 0.88733 0.65144 0.0
C124 C 0.23859 0.83797 0.62813 0.0
C125 C 0.35679 0.84631 0.61944 0.0
C126 C 0.24506 0.79245 0.60146 0.0
C127 C 0.3498 0.89136 0.64717 0.0
C128 C 0.30407 0.7959 0.59686 0.0
C129 C 0.27994 0.92896 0.68394 0.0
O130 O 0.08048 0.89371 0.81843 0.0
O131 O 0.18176 0.92671 0.7901 0.0
C132 C 0.14096 0.91381 0.82528 0.0
O133 O 0.19811 0.02063 0.7436 0.0
O134 O 0.93676 0.82819 0.73365 0.0
O135 O 0.96228 0.89573 0.79118 0.0
O136 O 0.09948 -0.00714 0.7761 0.0
C137 C 0.16175 0.03165 0.77222 0.0
O138 O 0.13829 0.95026 0.64838 0.0
O139 O 0.04411 0.93433 0.6801 0.0
O140 O 0.03775 0.79695 0.75082 0.0
O141 O 0.26157 0.96623 0.66708 0.0
O142 O 0.24571 0.8981 0.7199 0.0
O143 O 0.10394 0.82299 0.68926 0.0
C144 C 0.86377 0.79688 0.79555 0.0
C145 C 0.8007 0.77681 0.78599 0.0
C146 C 0.82635 0.72254 0.85868 0.0
C147 C 0.75054 0.73097 0.8135 0.0
C148 C 0.87629 0.768 0.83102 0.0
C149 C 0.76296 0.7049 0.85112 0.0
C150 C 0.91605 0.84821 0.76852 0.0
C151 C 0.08495 0.95102 0.645 0.0
H152 H 0.19267 0.83431 0.63089 0.0
H153 H 0.403 0.85064 0.61571 0.0
H154 H 0.20407 0.75552 0.58329 0.0
H155 H 0.39027 0.92887 0.66545 0.0
H156 H 0.79037 0.79797 0.75807 0.0
H157 H 0.83808 0.70451 0.88772 0.0
H158 H 0.70233 0.71793 0.80644 0.0
H159 H 0.92483 0.78239 0.83837 0.0
H160 H 0.01854 0.10119 1.13118 0.0
H161 H 0.30469 0.22398 0.18346 0.0
H162 H 0.15702 0.27417 0.20193 0.0
H163 H 0.15137 0.03773 1.13834 0.0
H164 H 0.29983 0.27102 1.11294 0.0
H165 H 0.08921 0.13429 1.06404 0.0
C166 C 0.06472 0.14536 1.13311 0.0
C167 C 0.08599 0.18051 0.17442 0.0
C168 C 0.26798 0.2193 1.1179 0.0
C169 C 0.16882 0.2118 1.10018 0.0
C170 C 0.26887 0.19304 0.15935 0.0
C171 C 0.22087 0.1289 0.17023 0.0
C172 C 0.21177 0.18482 1.09348 0.0
C173 C 0.18231 0.08975 1.13469 0.0
C174 C 0.10418 0.16584 1.09405 0.0
C175 C 0.14249 0.24106 0.17282 0.0
N176 N 0.18058 0.11847 1.0961 0.0
N177 N 0.18297 0.25509 1.13594 0.0
H178 H 0.28337 0.1386 0.77417 0.0
H179 H 0.08797 0.18095 0.86648 0.0
H180 H 0.11737 0.02213 0.85987 0.0
H181 H 0.26605 0.31566 0.79889 0.0
H182 H 0.14876 0.18492 0.93201 0.0
H183 H 0.32741 0.21946 0.83603 0.0
C184 C 0.25577 0.13058 0.80575 0.0
C185 C 0.19293 0.07843 0.80983 0.0
C186 C 0.1745 0.21334 0.90225 0.0
C187 C 0.24161 0.17072 0.8796 0.0
C188 C 0.13952 0.20911 0.86439 0.0
C189 C 0.17274 0.23808 0.82338 0.0
C190 C 0.23798 0.22994 0.89248 0.0
C191 C 0.23894 0.28219 0.82609 0.0
C192 C 0.2816 0.1756 0.84173 0.0
C193 C 0.16258 0.06619 0.8532 0.0
N194 N 0.27018 0.27941 0.86237 0.0
N195 N 0.18736 0.11204 0.88672 0.0
H196 H 0.76056 0.13226 0.33938 0.0
H197 H 0.40486 0.9538 0.24693 0.0
H198 H 0.69555 -0.01295 0.23127 0.0
H199 H 0.48577 0.12283 0.33616 0.0
H200 H 0.50439 0.95247 0.24962 0.0
H201 H 0.65419 0.11722 0.34674 0.0
C202 C 0.72383 0.09676 0.31739 0.0
C203 C 0.73737 0.06116 0.28442 0.0
C204 C 0.49996 -0.01063 0.26898 0.0
C205 C 0.61474 0.04361 0.2928 0.0
C206 C 0.44298 -0.01015 0.26773 0.0
C207 C 0.43709 0.03886 0.29102 0.0
C208 C 0.55108 0.03788 0.29403 0.0
C209 C 0.48827 0.0845 0.31727 0.0
C210 C 0.66296 0.08825 0.32161 0.0
C211 C 0.68748 0.01584 0.25699 0.0
N212 N 0.54297 0.08309 0.31783 0.0
N213 N 0.62851 0.00854 0.26166 0.0
H214 H 0.95905 0.37793 0.75793 0.0
H215 H 0.09397 0.72572 0.64417 0.0
H216 H 0.08243 0.44535 0.63772 0.0
H217 H 0.98945 0.67421 0.77335 0.0
H218 H 0.07418 0.61563 0.63563 0.0
H219 H 0.95218 0.47688 0.75771 0.0
C220 C 0.98296 0.41245 0.73068 0.0
C221 C 0.02149 0.4035 0.69784 0.0
C222 C 0.05504 0.62797 0.66577 0.0
C223 C 0.01492 0.51708 0.69785 0.0
C224 C 0.06652 0.69119 0.67075 0.0
C225 C 0.04412 0.70986 0.70987 0.0
C226 C 0.02092 0.58237 0.70018 0.0
C227 C 0.00799 0.66221 0.74274 0.0
C228 C 0.9797 0.4693 0.73089 0.0
C229 C 0.05237 0.45037 0.66379 0.0
N230 N -0.002 0.60085 0.73738 0.0
N231 N 0.04886 0.50512 0.66493 0.0
H232 H 0.23476 0.33835 0.58683 0.0
H233 H 0.17744 0.04582 0.40941 0.0
H234 H 0.08757 0.13806 0.60377 0.0
H235 H 0.31967 0.24551 0.38222 0.0
H236 H 0.15063 0.08142 0.48189 0.0
H237 H 0.26916 0.30814 0.51426 0.0
C238 C 0.20943 0.28792 0.57561 0.0
C239 C 0.15763 0.24087 0.60251 0.0
C240 C 0.18656 0.11745 0.45985 0.0
C241 C 0.1978 0.20536 0.51792 0.0
C242 C 0.20277 0.09721 0.41815 0.0
C243 C 0.2513 0.14222 0.38852 0.0
C244 C 0.21712 0.18353 0.47302 0.0
C245 C 0.282 0.20831 0.40333 0.0
C246 C 0.22934 0.27064 0.53379 0.0
C247 C 0.12755 0.17641 0.58504 0.0
N248 N 0.26433 0.22675 0.44391 0.0
N249 N 0.14785 0.16092 0.54462 0.0
H250 H 0.12631 0.34943 0.90823 0.0
H251 H 0.88185 0.07596 1.08713 0.0
H252 H 0.94414 0.18564 0.8715 0.0
H253 H 0.0186 0.2691 1.13404 0.0
H254 H 0.91242 0.1125 1.00789 0.0
H255 H 0.09696 0.31957 0.98964 0.0
C256 C 0.08004 0.30781 0.91686 0.0
C257 C 0.03778 0.27104 0.88171 0.0
C258 C 0.93566 0.14728 1.03538 0.0
C259 C 0.00416 0.23494 0.97615 0.0
C260 C 0.91789 0.12631 1.08107 0.0
C261 C 0.94635 0.16929 1.1184 0.0
C262 C 0.98392 0.21191 1.02564 0.0
C263 C -0.00613 0.23395 1.10707 0.0
C264 C 0.06329 0.29052 0.96368 0.0
C265 C 0.97883 0.21668 0.89631 0.0
N266 N 0.01129 0.25285 1.0623 0.0
N267 N 0.96445 0.20045 0.94146 0.0
H268 H 0.11286 0.92981 0.55507 0.0
H269 H 0.98469 0.97899 0.36 0.0
H270 H 0.01713 0.01323 0.63127 0.0
H271 H -0.00558 0.14111 0.43559 0.0
H272 H 0.01014 0.94385 0.42913 0.0
H273 H 0.08221 0.95577 0.48381 0.0
C274 C 0.08586 0.95414 0.55707 0.0
C275 C 0.06851 0.96955 0.60016 0.0
C276 C 0.00728 -0.01258 0.43096 0.0
C277 C 0.03336 0.00154 0.51672 0.0
C278 C 0.99231 0.00772 0.39102 0.0
C279 C 0.98735 0.06393 0.39073 0.0
C280 C 0.01672 0.02228 0.47261 0.0
C281 C -0.00205 0.09795 0.43311 0.0
C282 C 0.0674 0.96838 0.51595 0.0
C283 C 0.03235 0.00042 0.59939 0.0
N284 N 0.01137 0.07649 0.47183 0.0
N285 N 0.01727 0.01624 0.55894 0.0
H286 H 0.26425 -0.00112 0.85421 0.0
H287 H 0.18276 0.92924 1.12274 0.0
H288 H 0.07484 0.87059 0.90882 0.0
H289 H 0.34684 0.10914 1.0777 0.0
H290 H 0.15069 0.90046 1.04397 0.0
H291 H 0.30186 0.0323 0.93276 0.0
C292 C 0.23049 0.97667 0.88252 0.0
C293 C 0.16588 0.93064 0.87391 0.0
C294 C 0.19395 0.94615 1.05093 0.0
C295 C 0.20962 0.96946 0.9655 0.0
C296 C 0.21302 0.96291 1.09646 0.0
C297 C 0.26859 0.02213 1.10827 0.0
C298 C 0.23064 -0.01228 1.01509 0.0
C299 C 0.30411 0.06282 1.07121 0.0
C300 C 0.25216 -0.00347 0.92766 0.0
C301 C 0.12498 0.90554 0.91289 0.0
N302 N 0.28492 0.04477 1.02673 0.0
N303 N 0.14744 0.92458 0.95629 0.0
H304 H 0.61379 0.74522 1.0932 0.0
H305 H 0.74328 0.60221 0.90304 0.0
H306 H 0.72891 0.66037 1.11418 0.0
H307 H 0.66874 0.72752 0.88206 0.0
H308 H 0.69186 0.57764 0.97903 0.0
H309 H 0.58773 0.69248 1.01789 0.0
C310 C 0.63214 0.71406 1.08257 0.0
C311 C 0.67621 0.70993 1.10905 0.0
C312 C 0.68528 0.60901 0.95717 0.0
C313 C 0.64685 0.64997 1.02325 0.0
C314 C 0.71466 0.62313 0.91383 0.0
C315 C 0.71309 0.66963 0.88709 0.0
C316 C 0.65457 0.6419 0.97363 0.0
C317 C 0.6729 0.6928 0.90188 0.0
C318 C 0.61715 0.6839 1.03963 0.0
C319 C 0.69615 0.66656 1.09451 0.0
N320 N 0.64674 0.68021 0.94477 0.0
N321 N 0.68284 0.63975 1.05194 0.0
H322 H 0.12393 0.64482 0.39369 0.0
H323 H 0.22903 0.66317 0.5895 0.0
H324 H 0.31426 0.74029 0.33405 0.0
H325 H 0.39266 0.82806 0.52736 0.0
H326 H 0.21073 0.60262 0.5173 0.0
H327 H 0.16103 0.61546 0.45811 0.0
C328 C 0.17314 0.65713 0.39301 0.0
C329 C 0.21685 0.69853 0.35973 0.0
C330 C 0.25159 0.65146 0.51969 0.0
C331 C 0.2607 0.66691 0.43469 0.0
C332 C 0.26241 0.6858 0.56102 0.0
C333 C 0.31047 0.75171 0.56345 0.0
C334 C 0.28795 0.68437 0.48067 0.0
C335 C 0.35371 0.77802 0.52637 0.0
C336 C 0.19475 0.64033 0.43029 0.0
C337 C 0.27967 0.7115 0.36048 0.0
N338 N 0.34016 0.74496 0.48587 0.0
N339 N 0.30048 0.6984 0.39848 0.0
H340 H 0.41293 0.5881 0.93986 0.0
H341 H 0.56106 0.39098 1.02919 0.0
H342 H 0.49206 0.49774 0.85149 0.0
H343 H 0.49989 0.49846 1.11678 0.0
H344 H 0.55753 0.44868 0.96344 0.0
H345 H 0.46604 0.57654 1.00422 0.0
C346 C 0.44279 0.56724 0.93392 0.0
C347 C 0.44716 0.54258 0.8907 0.0
C348 C 0.54596 0.46051 0.99714 0.0
C349 C 0.5064 0.52753 0.96397 0.0
C350 C 0.5481 0.42769 1.03458 0.0
C351 C 0.52962 0.43927 1.07815 0.0
C352 C 0.52396 0.5041 1.00342 0.0
C353 C 0.51418 0.4879 1.08364 0.0
C354 C 0.47291 0.56042 0.97059 0.0
C355 C 0.48713 0.51693 0.88443 0.0
N356 N 0.51028 0.51753 1.0465 0.0
N357 N 0.51409 0.50865 0.92096 0.0
H358 H 0.71564 0.18265 0.4163 0.0
H359 H 0.71121 0.2109 0.68461 0.0
H360 H 0.83392 0.35738 0.49458 0.0
H361 H 0.68534 0.04579 0.6024 0.0
H362 H 0.70032 0.25869 0.61618 0.0
H363 H 0.65076 0.1325 0.48501 0.0
C364 C 0.72643 0.21157 0.44748 0.0
C365 C 0.78133 0.27373 0.45006 0.0
C366 C 0.69494 0.21093 0.61384 0.0
C367 C 0.70756 0.21618 0.52871 0.0
C368 C 0.70212 0.18372 0.65278 0.0
C369 C 0.70541 0.12667 0.64908 0.0
C370 C 0.68814 0.17935 0.5715 0.0
C371 C 0.68689 0.09138 0.6075 0.0
C372 C 0.68938 0.18271 0.48672 0.0
C373 C 0.79301 0.30867 0.4915 0.0
N374 N 0.68089 0.11918 0.57012 0.0
N375 N 0.75727 0.27885 0.52956 0.0
loop_
_geom_bond_atom_site_label_1
_geom_bond_atom_site_label_2
_geom_bond_distance
_geom_bond_site_symmetry_2
_ccdc_geom_bond_type
Eu0 C9 2.828 . S
Eu0 O11 2.392 . S
Eu0 O13 2.418 . S
Eu0 O18 2.373 . S
Eu0 O21 2.488 . S
Eu0 O22 2.471 . S
Eu0 O23 2.349 . S
Eu1 O10 2.373 . S
Eu1 O14 2.488 . S
Eu1 O15 2.471 . S
Eu1 O16 2.349 . S
Eu1 O19 2.392 . S
Eu1 O20 2.418 . S
Eu1 C30 2.828 1_554 S
C2 O20 1.244 . S
C2 O23 1.265 . S
C3 C4 1.379 . S
C3 C7 1.373 1_545 S
C3 C9 1.505 . S
C4 C3 1.379 . S
C4 C6 1.369 . S
C4 H32 0.930 . S
C5 C7 1.383 . S
C5 C8 1.382 . S
C5 H33 0.930 . S
C6 C4 1.369 . S
C6 C8 1.392 1_545 S
C6 H34 0.930 . S
C7 C3 1.373 1_565 S
C7 C5 1.383 . S
C7 H35 0.931 . S
C8 C5 1.382 . S
C8 C6 1.392 1_565 S
C9 Eu0 2.828 . S
C9 C3 1.505 . S
C9 O21 1.249 . S
C9 O22 1.244 . S
O10 Eu1 2.373 . S
O10 C12 1.258 . S
O11 Eu0 2.392 . S
O11 C12 1.242 . S
C12 O10 1.258 . S
C12 O11 1.242 . S
O13 Eu0 2.418 . S
O13 C17 1.244 . S
O14 Eu1 2.488 . S
O14 C30 1.249 1_554 S
O15 Eu1 2.471 . S
O15 C30 1.244 1_554 S
O16 Eu1 2.349 . S
O16 C17 1.265 . S
C17 O13 1.244 . S
C17 O16 1.265 . S
O18 Eu0 2.373 . S
O18 C31 1.258 . S
O19 Eu1 2.392 . S
O19 C31 1.242 . S
O20 Eu1 2.418 . S
O20 C2 1.244 . S
O21 Eu0 2.488 . S
O21 C9 1.249 . S
O22 Eu0 2.471 . S
O22 C9 1.244 . S
O23 Eu0 2.349 . S
O23 C2 1.265 . S
C24 C25 1.379 . S
C24 C28 1.373 . S
C24 C30 1.505 . S
C25 C24 1.379 . S
C25 C27 1.369 . S
C25 H36 0.930 . S
C26 C28 1.383 . S
C26 C29 1.382 . S
C26 H37 0.930 . S
C27 C25 1.369 . S
C27 C29 1.392 . S
C27 H38 0.930 . S
C28 C24 1.373 . S
C28 C26 1.383 . S
C28 H39 0.931 . S
C29 C26 1.382 . S
C29 C27 1.392 . S
C30 Eu1 2.828 1_556 S
C30 O14 1.249 1_556 S
C30 O15 1.244 1_556 S
C30 C24 1.505 . S
C31 O18 1.258 . S
C31 O19 1.242 . S
H32 C4 0.930 . S
H33 C5 0.930 . S
H34 C6 0.930 . S
H35 C7 0.931 . S
H36 C25 0.930 . S
H37 C26 0.930 . S
H38 C27 0.930 . S
H39 C28 0.931 . S
Eu40 C49 2.828 . S
Eu40 O51 2.392 . S
Eu40 O53 2.418 . S
Eu40 O58 2.373 . S
Eu40 O61 2.488 . S
Eu40 O62 2.471 . S
Eu40 O63 2.349 . S
Eu41 O50 2.373 . S
Eu41 O54 2.488 . S
Eu41 O55 2.471 . S
Eu41 O56 2.349 . S
Eu41 O59 2.392 . S
Eu41 O60 2.418 . S
Eu41 C70 2.828 . S
C42 O60 1.244 . S
C42 O63 1.265 . S
C43 C44 1.379 . S
C43 C47 1.373 1_455 S
C43 C49 1.505 . S
C44 C43 1.379 . S
C44 C46 1.369 . S
C44 H72 0.930 . S
C45 C47 1.383 . S
C45 C48 1.382 . S
C45 H73 0.930 . S
C46 C44 1.369 . S
C46 C48 1.392 1_455 S
C46 H74 0.930 . S
C47 C43 1.373 1_655 S
C47 C45 1.383 . S
C47 H75 0.931 . S
C48 C45 1.382 . S
C48 C46 1.392 1_655 S
C49 Eu40 2.828 . S
C49 C43 1.505 . S
C49 O61 1.249 . S
C49 O62 1.244 . S
O50 Eu41 2.373 . S
O50 C52 1.258 . S
O51 Eu40 2.392 . S
O51 C52 1.242 . S
C52 O50 1.258 . S
C52 O51 1.242 . S
O53 Eu40 2.418 . S
O53 C57 1.244 . S
O54 Eu41 2.488 . S
O54 C70 1.249 . S
O55 Eu41 2.471 . S
O55 C70 1.244 . S
O56 Eu41 2.349 . S
O56 C57 1.265 . S
C57 O53 1.244 . S
C57 O56 1.265 . S
O58 Eu40 2.373 . S
O58 C71 1.258 . S
O59 Eu41 2.392 . S
O59 C71 1.242 . S
O60 Eu41 2.418 . S
O60 C42 1.244 . S
O61 Eu40 2.488 . S
O61 C49 1.249 . S
O62 Eu40 2.471 . S
O62 C49 1.244 . S
O63 Eu40 2.349 . S
O63 C42 1.265 . S
C64 C65 1.379 . S
C64 C68 1.373 . S
C64 C70 1.505 . S
C65 C64 1.379 . S
C65 C67 1.369 . S
C65 H76 0.930 . S
C66 C68 1.383 . S
C66 C69 1.382 . S
C66 H77 0.930 . S
C67 C65 1.369 . S
C67 C69 1.392 . S
C67 H78 0.930 . S
C68 C64 1.373 . S
C68 C66 1.383 . S
C68 H79 0.931 . S
C69 C66 1.382 . S
C69 C67 1.392 . S
C70 Eu41 2.828 . S
C70 O54 1.249 . S
C70 O55 1.244 . S
C70 C64 1.505 . S
C71 O58 1.258 . S
C71 O59 1.242 . S
H72 C44 0.930 . S
H73 C45 0.930 . S
H74 C46 0.930 . S
H75 C47 0.931 . S
H76 C65 0.930 . S
H77 C66 0.930 . S
H78 C67 0.930 . S
H79 C68 0.931 . S
Eu80 C89 2.828 . S
Eu80 O91 2.392 . S
Eu80 O93 2.418 . S
Eu80 O98 2.367 1_545 S
Eu80 O101 2.488 . S
Eu80 O102 2.471 . S
Eu80 O103 2.349 . S
Eu81 O90 2.373 1_565 S
Eu81 O94 2.488 . S
Eu81 O95 2.471 . S
Eu81 O96 2.349 . S
Eu81 O99 2.392 . S
Eu81 O100 2.418 . S
Eu81 C110 2.828 1_554 S
C82 O100 1.244 . S
C82 O103 1.265 1_565 S
C83 C84 1.379 . S
C83 C87 1.373 . S
C83 C89 1.505 . S
C84 C83 1.379 . S
C84 C86 1.369 . S
C84 H112 0.930 . S
C85 C87 1.383 . S
C85 C88 1.382 . S
C85 H113 0.930 . S
C86 C84 1.369 . S
C86 C88 1.392 . S
C86 H114 0.930 . S
C87 C83 1.373 . S
C87 C85 1.383 . S
C87 H115 0.931 . S
C88 C85 1.382 . S
C88 C86 1.392 . S
C89 Eu80 2.828 . S
C89 C83 1.505 . S
C89 O101 1.249 . S
C89 O102 1.244 . S
O90 Eu81 2.373 1_545 S
O90 C92 1.258 . S
O91 Eu80 2.392 . S
O91 C92 1.242 . S
C92 O90 1.258 . S
C92 O91 1.242 . S
O93 Eu80 2.418 . S
O93 C97 1.244 . S
O94 Eu81 2.488 . S
O94 C110 1.249 1_554 S
O95 Eu81 2.471 . S
O95 C110 1.244 1_554 S
O96 Eu81 2.349 . S
O96 C97 1.265 1_565 S
C97 O93 1.244 . S
C97 O96 1.265 1_545 S
O98 Eu80 2.367 1_565 S
O98 C111 1.264 . S
O99 Eu81 2.392 . S
O99 C111 1.242 . S
O100 Eu81 2.418 . S
O100 C82 1.244 . S
O101 Eu80 2.488 . S
O101 C89 1.249 . S
O102 Eu80 2.471 . S
O102 C89 1.244 . S
O103 Eu80 2.349 . S
O103 C82 1.265 1_545 S
C104 C105 1.379 . S
C104 C108 1.373 . S
C104 C110 1.505 . S
C105 C104 1.379 . S
C105 C107 1.369 . S
C105 H116 0.930 . S
C106 C108 1.383 . S
C106 C109 1.382 . S
C106 H117 0.930 . S
C107 C105 1.369 . S
C107 C109 1.392 . S
C107 H118 0.930 . S
C108 C104 1.373 . S
C108 C106 1.383 . S
C108 H119 0.931 . S
C109 C106 1.382 . S
C109 C107 1.392 . S
C110 Eu81 2.828 1_556 S
C110 O94 1.249 1_556 S
C110 O95 1.244 1_556 S
C110 C104 1.505 . S
C111 O98 1.264 . S
C111 O99 1.242 . S
H112 C84 0.930 . S
H113 C85 0.930 . S
H114 C86 0.930 . S
H115 C87 0.931 . S
H116 C105 0.930 . S
H117 C106 0.930 . S
H118 C107 0.930 . S
H119 C108 0.931 . S
Eu120 C129 2.828 . S
Eu120 O131 2.392 . S
Eu120 O133 2.418 . S
Eu120 O138 2.367 1_455 S
Eu120 O141 2.488 . S
Eu120 O142 2.471 . S
Eu120 O143 2.349 . S
Eu121 O130 2.373 1_655 S
Eu121 O134 2.488 . S
Eu121 O135 2.471 . S
Eu121 O136 2.349 . S
Eu121 O139 2.392 . S
Eu121 O140 2.418 . S
Eu121 C150 2.828 . S
C122 O140 1.244 . S
C122 O143 1.265 1_655 S
C123 C124 1.379 . S
C123 C127 1.373 . S
C123 C129 1.505 . S
C124 C123 1.379 . S
C124 C126 1.369 . S
C124 H152 0.930 . S
C125 C127 1.383 . S
C125 C128 1.382 . S
C125 H153 0.930 . S
C126 C124 1.369 . S
C126 C128 1.392 . S
C126 H154 0.930 . S
C127 C123 1.373 . S
C127 C125 1.383 . S
C127 H155 0.931 . S
C128 C125 1.382 . S
C128 C126 1.392 . S
C129 Eu120 2.828 . S
C129 C123 1.505 . S
C129 O141 1.249 . S
C129 O142 1.244 . S
O130 Eu121 2.373 1_455 S
O130 C132 1.258 . S
O131 Eu120 2.392 . S
O131 C132 1.242 . S
C132 O130 1.258 . S
C132 O131 1.242 . S
O133 Eu120 2.418 . S
O133 C137 1.244 . S
O134 Eu121 2.488 . S
O134 C150 1.249 . S
O135 Eu121 2.471 . S
O135 C150 1.244 . S
O136 Eu121 2.349 . S
O136 C137 1.265 1_655 S
C137 O133 1.244 . S
C137 O136 1.265 1_455 S
O138 Eu120 2.367 1_655 S
O138 C151 1.264 . S
O139 Eu121 2.392 . S
O139 C151 1.242 . S
O140 Eu121 2.418 . S
O140 C122 1.244 . S
O141 Eu120 2.488 . S
O141 C129 1.249 . S
O142 Eu120 2.471 . S
O142 C129 1.244 . S
O143 Eu120 2.349 . S
O143 C122 1.265 1_455 S
C144 C145 1.379 . S
C144 C148 1.373 . S
C144 C150 1.505 . S
C145 C144 1.379 . S
C145 C147 1.369 . S
C145 H156 0.930 . S
C146 C148 1.383 . S
C146 C149 1.382 . S
C146 H157 0.930 . S
C147 C145 1.369 . S
C147 C149 1.392 . S
C147 H158 0.930 . S
C148 C144 1.373 . S
C148 C146 1.383 . S
C148 H159 0.931 . S
C149 C146 1.382 . S
C149 C147 1.392 . S
C150 Eu121 2.828 . S
C150 O134 1.249 . S
C150 O135 1.244 . S
C150 C144 1.505 . S
C151 O138 1.264 . S
C151 O139 1.242 . S
H152 C124 0.930 . S
H153 C125 0.930 . S
H154 C126 0.930 . S
H155 C127 0.931 . S
H156 C145 0.930 . S
H157 C146 0.930 . S
H158 C147 0.930 . S
H159 C148 0.931 . S
H160 C166 0.930 . S
H161 C170 0.930 . S
H162 C175 0.929 . S
H163 C173 0.929 . S
H164 C168 0.929 . S
H165 C174 0.929 . S
C166 H160 0.930 . S
C166 C167 1.367 . S
C166 C174 1.378 1_655 S
C167 C166 1.367 . S
C167 C175 1.433 1_545 S
C168 H164 0.929 . S
C168 C170 1.378 . S
C168 C172 1.350 . S
C169 C172 1.463 . S
C169 C174 1.350 . S
C169 N177 1.427 . S
C170 H161 0.930 . S
C170 C168 1.378 . S
C170 C171 1.367 . S
C171 C170 1.367 . S
C171 C173 1.433 . S
C172 C168 1.350 . S
C172 C169 1.463 . S
C172 N176 1.427 . S
C173 H163 0.929 . S
C173 C171 1.433 . S
C173 N176 1.384 . S
C174 H165 0.929 . S
C174 C166 1.378 1_455 S
C174 C169 1.350 . S
C175 H162 0.929 . S
C175 C167 1.433 1_565 S
C175 N177 1.384 1_665 S
N176 C172 1.427 . S
N176 C173 1.384 . S
N177 C169 1.427 . S
N177 C175 1.384 1_445 S
H178 C184 0.930 . S
H179 C188 0.930 . S
H180 C193 0.929 . S
H181 C191 0.929 . S
H182 C186 0.929 . S
H183 C192 0.929 . S
C184 H178 0.930 . S
C184 C185 1.367 1_655 S
C184 C192 1.378 1_665 S
C185 C184 1.367 1_455 S
C185 C193 1.433 . S
C186 H182 0.929 . S
C186 C188 1.378 . S
C186 C190 1.350 . S
C187 C190 1.463 . S
C187 C192 1.350 . S
C187 N195 1.427 . S
C188 H179 0.930 . S
C188 C186 1.378 . S
C188 C189 1.367 . S
C189 C188 1.367 . S
C189 C191 1.433 . S
C190 C186 1.350 . S
C190 C187 1.463 . S
C190 N194 1.427 . S
C191 H181 0.929 . S
C191 C189 1.433 . S
C191 N194 1.384 . S
C192 H183 0.929 . S
C192 C184 1.378 1_445 S
C192 C187 1.350 . S
C193 H180 0.929 . S
C193 C185 1.433 . S
C193 N195 1.384 1_565 S
N194 C190 1.427 . S
N194 C191 1.384 . S
N195 C187 1.427 . S
N195 C193 1.384 1_545 S
H196 C202 0.930 . S
H197 C206 0.930 . S
H198 C211 0.929 . S
H199 C209 0.929 . S
H200 C204 0.929 . S
H201 C210 0.929 . S
C202 H196 0.930 . S
C202 C203 1.367 1_565 S
C202 C210 1.378 1_565 S
C203 C202 1.367 1_545 S
C203 C211 1.433 . S
C204 H200 0.929 . S
C204 C206 1.378 . S
C204 C208 1.350 . S
C205 C208 1.463 . S
C205 C210 1.350 . S
C205 N213 1.427 . S
C206 H197 0.930 . S
C206 C204 1.378 . S
C206 C207 1.367 . S
C207 C206 1.367 . S
C207 C209 1.433 . S
C208 C204 1.350 . S
C208 C205 1.463 . S
C208 N212 1.427 . S
C209 H199 0.929 . S
C209 C207 1.433 . S
C209 N212 1.384 . S
C210 H201 0.929 . S
C210 C202 1.378 1_545 S
C210 C205 1.350 . S
C211 H198 0.929 . S
C211 C203 1.433 . S
C211 N213 1.384 . S
N212 C208 1.427 . S
N212 C209 1.384 . S
N213 C205 1.427 . S
N213 C211 1.384 . S
H214 C220 0.930 . S
H215 C224 0.930 . S
H216 C229 0.929 . S
H217 C227 0.929 . S
H218 C222 0.929 . S
H219 C228 0.929 . S
C220 H214 0.930 . S
C220 C221 1.367 . S
C220 C228 1.378 . S
C221 C220 1.367 . S
C221 C229 1.433 . S
C222 H218 0.929 . S
C222 C224 1.378 . S
C222 C226 1.350 . S
C223 C226 1.463 . S
C223 C228 1.350 . S
C223 N231 1.427 . S
C224 H215 0.930 . S
C224 C222 1.378 . S
C224 C225 1.367 . S
C225 C224 1.367 . S
C225 C227 1.433 1_455 S
C226 C222 1.350 . S
C226 C223 1.463 . S
C226 N230 1.427 . S
C227 H217 0.929 . S
C227 C225 1.433 1_655 S
C227 N230 1.384 1_655 S
C228 H219 0.929 . S
C228 C220 1.378 . S
C228 C223 1.350 . S
C229 H216 0.929 . S
C229 C221 1.433 . S
C229 N231 1.384 . S
N230 C226 1.427 . S
N230 C227 1.384 1_455 S
N231 C223 1.427 . S
N231 C229 1.384 . S
H232 C238 0.930 . S
H233 C242 0.930 . S
H234 C247 0.929 . S
H235 C245 0.929 . S
H236 C240 0.929 . S
H237 C246 0.929 . S
C238 H232 0.930 . S
C238 C239 1.367 . S
C238 C246 1.378 . S
C239 C238 1.367 . S
C239 C247 1.433 . S
C240 H236 0.929 . S
C240 C242 1.378 . S
C240 C244 1.350 . S
C241 C244 1.463 . S
C241 C246 1.350 . S
C241 N249 1.427 . S
C242 H233 0.930 . S
C242 C240 1.378 . S
C242 C243 1.367 . S
C243 C242 1.367 . S
C243 C245 1.433 . S
C244 C240 1.350 . S
C244 C241 1.463 . S
C244 N248 1.427 . S
C245 H235 0.929 . S
C245 C243 1.433 . S
C245 N248 1.384 . S
C246 H237 0.929 . S
C246 C238 1.378 . S
C246 C241 1.350 . S
C247 H234 0.929 . S
C247 C239 1.433 . S
C247 N249 1.384 . S
N248 C244 1.427 . S
N248 C245 1.384 . S
N249 C241 1.427 . S
N249 C247 1.384 . S
H250 C256 0.930 . S
H251 C260 0.930 . S
H252 C265 0.929 . S
H253 C263 0.929 . S
H254 C258 0.929 . S
H255 C264 0.929 1_655 S
C256 H250 0.930 . S
C256 C257 1.367 . S
C256 C264 1.378 . S
C257 C256 1.367 . S
C257 C265 1.433 . S
C258 H254 0.929 . S
C258 C260 1.378 . S
C258 C262 1.350 . S
C259 C262 1.463 . S
C259 C264 1.350 1_655 S
C259 N267 1.427 1_655 S
C260 H251 0.930 . S
C260 C258 1.378 . S
C260 C261 1.367 . S
C261 C260 1.367 . S
C261 C263 1.433 . S
C262 C258 1.350 . S
C262 C259 1.463 . S
C262 N266 1.427 . S
C263 H253 0.929 . S
C263 C261 1.433 . S
C263 N266 1.384 . S
C264 H255 0.929 1_455 S
C264 C256 1.378 . S
C264 C259 1.350 1_455 S
C265 H252 0.929 . S
C265 C257 1.433 . S
C265 N267 1.384 . S
N266 C262 1.427 . S
N266 C263 1.384 . S
N267 C259 1.427 1_455 S
N267 C265 1.384 . S
H268 C274 0.930 . S
H269 C278 0.930 . S
H270 C283 0.929 . S
H271 C281 0.929 . S
H272 C276 0.929 . S
H273 C282 0.929 . S
C274 H268 0.930 . S
C274 C275 1.367 . S
C274 C282 1.378 . S
C275 C274 1.367 . S
C275 C283 1.433 . S
C276 H272 0.929 . S
C276 C278 1.378 . S
C276 C280 1.350 . S
C277 C280 1.463 . S
C277 C282 1.350 . S
C277 N285 1.427 . S
C278 H269 0.930 . S
C278 C276 1.378 . S
C278 C279 1.367 . S
C279 C278 1.367 . S
C279 C281 1.433 . S
C280 C276 1.350 . S
C280 C277 1.463 . S
C280 N284 1.427 . S
C281 H271 0.929 . S
C281 C279 1.433 . S
C281 N284 1.384 . S
C282 H273 0.929 . S
C282 C274 1.378 . S
C282 C277 1.350 . S
C283 H270 0.929 . S
C283 C275 1.433 . S
C283 N285 1.384 . S
N284 C280 1.427 . S
N284 C281 1.384 . S
N285 C277 1.427 . S
N285 C283 1.384 . S
H286 C292 0.930 . S
H287 C296 0.930 . S
H288 C301 0.929 . S
H289 C299 0.929 . S
H290 C294 0.929 . S
H291 C300 0.929 . S
C292 H286 0.930 . S
C292 C293 1.367 . S
C292 C300 1.378 . S
C293 C292 1.367 . S
C293 C301 1.433 . S
C294 H290 0.929 . S
C294 C296 1.378 . S
C294 C298 1.350 1_545 S
C295 C298 1.463 . S
C295 C300 1.350 . S
C295 N303 1.427 . S
C296 H287 0.930 . S
C296 C294 1.378 . S
C296 C297 1.367 . S
C297 C296 1.367 . S
C297 C299 1.433 . S
C298 C294 1.350 1_565 S
C298 C295 1.463 . S
C298 N302 1.427 . S
C299 H289 0.929 . S
C299 C297 1.433 . S
C299 N302 1.384 1_545 S
C300 H291 0.929 . S
C300 C292 1.378 . S
C300 C295 1.350 . S
C301 H288 0.929 . S
C301 C293 1.433 . S
C301 N303 1.384 . S
N302 C298 1.427 . S
N302 C299 1.384 1_565 S
N303 C295 1.427 . S
N303 C301 1.384 . S
H304 C310 0.930 . S
H305 C314 0.930 . S
H306 C319 0.929 . S
H307 C317 0.929 . S
H308 C312 0.929 . S
H309 C318 0.929 . S
C310 H304 0.930 . S
C310 C311 1.367 . S
C310 C318 1.378 . S
C311 C310 1.367 . S
C311 C319 1.433 . S
C312 H308 0.929 . S
C312 C314 1.378 . S
C312 C316 1.350 . S
C313 C316 1.463 . S
C313 C318 1.350 . S
C313 N321 1.427 . S
C314 H305 0.930 . S
C314 C312 1.378 . S
C314 C315 1.367 . S
C315 C314 1.367 . S
C315 C317 1.433 . S
C316 C312 1.350 . S
C316 C313 1.463 . S
C316 N320 1.427 . S
C317 H307 0.929 . S
C317 C315 1.433 . S
C317 N320 1.384 . S
C318 H309 0.929 . S
C318 C310 1.378 . S
C318 C313 1.350 . S
C319 H306 0.929 . S
C319 C311 1.433 . S
C319 N321 1.384 . S
N320 C316 1.427 . S
N320 C317 1.384 . S
N321 C313 1.427 . S
N321 C319 1.384 . S
H322 C328 0.930 . S
H323 C332 0.930 . S
H324 C337 0.929 . S
H325 C335 0.929 . S
H326 C330 0.929 . S
H327 C336 0.929 . S
C328 H322 0.930 . S
C328 C329 1.367 . S
C328 C336 1.378 . S
C329 C328 1.367 . S
C329 C337 1.433 1_545 S
C330 H326 0.929 . S
C330 C332 1.378 . S
C330 C334 1.350 . S
C331 C334 1.463 . S
C331 C336 1.350 1_565 S
C331 N339 1.427 . S
C332 H323 0.930 . S
C332 C330 1.378 . S
C332 C333 1.367 . S
C333 C332 1.367 . S
C333 C335 1.433 . S
C334 C330 1.350 . S
C334 C331 1.463 . S
C334 N338 1.427 . S
C335 H325 0.929 . S
C335 C333 1.433 . S
C335 N338 1.384 . S
C336 H327 0.929 . S
C336 C328 1.378 . S
C336 C331 1.350 1_545 S
C337 H324 0.929 . S
C337 C329 1.433 1_565 S
C337 N339 1.384 . S
N338 C334 1.427 . S
N338 C335 1.384 . S
N339 C331 1.427 . S
N339 C337 1.384 . S
H340 C346 0.930 . S
H341 C350 0.930 . S
H342 C355 0.929 . S
H343 C353 0.929 . S
H344 C348 0.929 . S
H345 C354 0.929 . S
C346 H340 0.930 . S
C346 C347 1.367 . S
C346 C354 1.378 . S
C347 C346 1.367 . S
C347 C355 1.433 . S
C348 H344 0.929 . S
C348 C350 1.378 . S
C348 C352 1.350 . S
C349 C352 1.463 . S
C349 C354 1.350 . S
C349 N357 1.427 . S
C350 H341 0.930 . S
C350 C348 1.378 . S
C350 C351 1.367 . S
C351 C350 1.367 . S
C351 C353 1.433 . S
C352 C348 1.350 . S
C352 C349 1.463 . S
C352 N356 1.427 . S
C353 H343 0.929 . S
C353 C351 1.433 . S
C353 N356 1.384 . S
C354 H345 0.929 . S
C354 C346 1.378 . S
C354 C349 1.350 . S
C355 H342 0.929 . S
C355 C347 1.433 . S
C355 N357 1.384 . S
N356 C352 1.427 . S
N356 C353 1.384 . S
N357 C349 1.427 . S
N357 C355 1.384 . S
H358 C364 0.930 . S
H359 C368 0.930 . S
H360 C373 0.929 . S
H361 C371 0.929 . S
H362 C366 0.929 . S
H363 C372 0.929 . S
C364 H358 0.930 . S
C364 C365 1.367 . S
C364 C372 1.378 . S
C365 C364 1.367 . S
C365 C373 1.433 . S
C366 H362 0.929 . S
C366 C368 1.378 . S
C366 C370 1.350 . S
C367 C370 1.463 . S
C367 C372 1.350 . S
C367 N375 1.427 . S
C368 H359 0.930 . S
C368 C366 1.378 . S
C368 C369 1.367 1_655 S
C369 C368 1.367 1_455 S
C369 C371 1.433 . S
C370 C366 1.350 . S
C370 C367 1.463 . S
C370 N374 1.427 . S
C371 H361 0.929 . S
C371 C369 1.433 . S
C371 N374 1.384 1_455 S
C372 H363 0.929 . S
C372 C364 1.378 . S
C372 C367 1.350 . S
C373 H360 0.929 . S
C373 C365 1.433 . S
C373 N375 1.384 . S
N374 C370 1.427 . S
N374 C371 1.384 1_655 S
N375 C367 1.427 . S
N375 C373 1.384 . S
C167 C97 0.600 . S
C171 C17 0.585 . S
C185 C137 0.613 . S
C189 C57 0.628 . S
C203 C82 1.245 1_545 S
C207 C2 1.239 . S
C221 C42 1.233 . S
C225 C122 1.240 1_455 S
C239 C71 4.694 . S
C243 C31 4.691 . S
C257 C52 4.467 . S
C261 C92 4.464 1_556 S
C275 C151 4.691 . S
C279 C111 4.693 . S
C293 C132 4.466 . S
C297 C12 4.464 1_556 S
C311 C109 0.853 . S
C315 C149 0.860 . S
C329 C8 1.159 1_545 S
C333 C128 1.166 . S
C347 C69 0.859 . S
C351 C29 0.863 . S
C365 C88 1.154 . S
C369 C48 1.164 1_455 S
