# Generated by pormake.
# Topology wjw, (5)-cn, num edge types: 1
# Building blocks:
#     Node 0, Type 0, BuildingBlock: XOMCOT_clean_sbu_0, # of connection points: 5
#     Node 1, Type 0, BuildingBlock: XOMCOT_clean_sbu_0, # of connection points: 5
#     Node 2, Type 0, BuildingBlock: XOMCOT_clean_sbu_0, # of connection points: 5
#     Node 3, Type 0, BuildingBlock: XOMCOT_clean_sbu_0, # of connection points: 5
#     Node 4, Type 0, BuildingBlock: XOMCOT_clean_sbu_0, # of connection points: 5
#     Node 5, Type 0, BuildingBlock: XOMCOT_clean_sbu_0, # of connection points: 5
#     Node 6, Type 0, BuildingBlock: XOMCOT_clean_sbu_0, # of connection points: 5
#     Node 7, Type 0, BuildingBlock: XOMCOT_clean_sbu_0, # of connection points: 5
#     Node 8, Type 0, BuildingBlock: XOMCOT_clean_sbu_0, # of connection points: 5
#     Node 9, Type 0, BuildingBlock: XOMCOT_clean_sbu_0, # of connection points: 5
#     Node 10, Type 0, BuildingBlock: XOMCOT_clean_sbu_0, # of connection points: 5
#     Node 11, Type 0, BuildingBlock: XOMCOT_clean_sbu_0, # of connection points: 5
#     Edge 12, Type (0, 0), BuildingBlock: XUDNAN_clean_linker_2, # of connection points: 2
#     Edge 13, Type (0, 0), BuildingBlock: XUDNAN_clean_linker_2, # of connection points: 2
#     Edge 14, Type (0, 0), BuildingBlock: XUDNAN_clean_linker_2, # of connection points: 2
#     Edge 15, Type (0, 0), BuildingBlock: XUDNAN_clean_linker_2, # of connection points: 2
#     Edge 16, Type (0, 0), BuildingBlock: XUDNAN_clean_linker_2, # of connection points: 2
#     Edge 17, Type (0, 0), BuildingBlock: XUDNAN_clean_linker_2, # of connection points: 2
#     Edge 18, Type (0, 0), BuildingBlock: XUDNAN_clean_linker_2, # of connection points: 2
#     Edge 19, Type (0, 0), BuildingBlock: XUDNAN_clean_linker_2, # of connection points: 2
#     Edge 20, Type (0, 0), BuildingBlock: XUDNAN_clean_linker_2, # of connection points: 2
#     Edge 21, Type (0, 0), BuildingBlock: XUDNAN_clean_linker_2, # of connection points: 2
#     Edge 22, Type (0, 0), BuildingBlock: XUDNAN_clean_linker_2, # of connection points: 2
#     Edge 23, Type (0, 0), BuildingBlock: XUDNAN_clean_linker_2, # of connection points: 2
#     Edge 24, Type (0, 0), BuildingBlock: XUDNAN_clean_linker_2, # of connection points: 2
#     Edge 25, Type (0, 0), BuildingBlock: XUDNAN_clean_linker_2, # of connection points: 2
#     Edge 26, Type (0, 0), BuildingBlock: XUDNAN_clean_linker_2, # of connection points: 2
#     Edge 27, Type (0, 0), BuildingBlock: XUDNAN_clean_linker_2, # of connection points: 2
#     Edge 28, Type (0, 0), BuildingBlock: XUDNAN_clean_linker_2, # of connection points: 2
#     Edge 29, Type (0, 0), BuildingBlock: XUDNAN_clean_linker_2, # of connection points: 2
#     Edge 30, Type (0, 0), BuildingBlock: XUDNAN_clean_linker_2, # of connection points: 2
#     Edge 31, Type (0, 0), BuildingBlock: XUDNAN_clean_linker_2, # of connection points: 2
#     Edge 32, Type (0, 0), BuildingBlock: XUDNAN_clean_linker_2, # of connection points: 2
#     Edge 33, Type (0, 0), BuildingBlock: XUDNAN_clean_linker_2, # of connection points: 2
#     Edge 34, Type (0, 0), BuildingBlock: XUDNAN_clean_linker_2, # of connection points: 2
#     Edge 35, Type (0, 0), BuildingBlock: XUDNAN_clean_linker_2, # of connection points: 2
#     Edge 36, Type (0, 0), BuildingBlock: XUDNAN_clean_linker_2, # of connection points: 2
#     Edge 37, Type (0, 0), BuildingBlock: XUDNAN_clean_linker_2, # of connection points: 2
#     Edge 38, Type (0, 0), BuildingBlock: XUDNAN_clean_linker_2, # of connection points: 2
#     Edge 39, Type (0, 0), BuildingBlock: XUDNAN_clean_linker_2, # of connection points: 2
#     Edge 40, Type (0, 0), BuildingBlock: XUDNAN_clean_linker_2, # of connection points: 2
#     Edge 41, Type (0, 0), BuildingBlock: XUDNAN_clean_linker_2, # of connection points: 2
# Relax obj value: 0.220
# Max RMSD: 0.191
# Mean RMSD: 0.187
data_MOF--net-wjw--node1-XOMCOT_clean_sbu_0--edge1-XUDNAN_clean_linker_2
_symmetry_space_group_name_H-M    P1
_symmetry_Int_Tables_number       1
_symmetry_cell_setting            triclinic
loop_
_symmetry_equiv_pos_as_xyz
'x, y, z'
_cell_length_a     40.163048
_cell_length_b     40.205211
_cell_length_c     37.185508
_cell_angle_alpha  89.957824
_cell_angle_beta   89.935095
_cell_angle_gamma 120.03875
loop_
_atom_site_label
_atom_site_type_symbol
_atom_site_fract_x
_atom_site_fract_y
_atom_site_fract_z
_atom_type_partial_charge
Co0 Co 0.15789 0.40419 0.29186 0.0
C1 C 0.11308 0.44419 0.29704 0.0
C2 C 0.09489 0.39896 0.33607 0.0
C3 C 0.07124 0.41443 0.33864 0.0
N4 N 0.12132 0.41786 0.31027 0.0
N5 N 0.08254 0.44263 0.31393 0.0
H6 H 0.12843 0.46334 0.27493 0.0
H7 H 0.09167 0.37432 0.35071 0.0
C8 C 0.18803 0.3889 0.36017 0.0
O9 O 0.22313 0.40886 0.34721 0.0
N10 N 0.19349 0.38891 0.27287 0.0
C11 C 0.21455 0.40091 0.24233 0.0
C12 C 0.2334 0.38055 0.23756 0.0
C13 C 0.19844 0.35998 0.28505 0.0
N14 N 0.22348 0.35513 0.2647 0.0
C15 C 0.22205 0.47954 0.27781 0.0
C16 C 0.23278 0.50587 0.34776 0.0
C17 C 0.25802 0.53021 0.32105 0.0
C18 C 0.25148 0.51675 0.28547 0.0
C19 C 0.203 0.46922 0.33866 0.0
N20 N 0.19944 0.45545 0.30444 0.0
H21 H 0.21673 0.47074 0.25014 0.0
H22 H 0.18278 0.45197 0.35934 0.0
H23 H 0.21522 0.42181 0.22371 0.0
H24 H 0.18324 0.34189 0.30776 0.0
O25 O 0.14802 0.41527 0.24418 0.0
O26 O 0.11552 0.35833 0.27084 0.0
O27 O 0.15925 0.3833 0.341 0.0
C28 C 0.11976 0.38004 0.24314 0.0
H29 H 0.04637 0.40436 0.35601 0.0
H30 H 0.25293 0.3842 0.21584 0.0
H31 H 0.23587 0.51467 0.37561 0.0
H32 H 0.26839 0.53494 0.26339 0.0
Co33 Co 0.76586 0.1338 0.63864 0.0
C34 C 0.67899 0.08847 0.63082 0.0
C35 C 0.70178 0.06186 0.66517 0.0
C36 C 0.6626 0.03845 0.6636 0.0
N37 N 0.71222 0.09396 0.64567 0.0
N38 N 0.64835 0.05513 0.64198 0.0
H39 H 0.67678 0.10768 0.61205 0.0
H40 H 0.72155 0.0558 0.67955 0.0
C41 C 0.75438 0.12889 0.71733 0.0
O42 O 0.72198 0.12827 0.71038 0.0
N43 N 0.81952 0.17175 0.63161 0.0
C44 C 0.83446 0.19987 0.60672 0.0
C45 C 0.87356 0.222 0.61241 0.0
C46 C 0.84955 0.17699 0.65199 0.0
N47 N 0.88297 0.20768 0.64103 0.0
C48 C 0.73361 0.18306 0.62527 0.0
C49 C 0.76897 0.23139 0.68294 0.0
C50 C 0.74365 0.23718 0.66169 0.0
C51 C 0.72672 0.21341 0.63182 0.0
C52 C 0.77564 0.20142 0.67496 0.0
N53 N 0.75586 0.17582 0.6481 0.0
H54 H 0.72191 0.16614 0.60129 0.0
H55 H 0.79706 0.19907 0.69048 0.0
H56 H 0.81792 0.20459 0.58648 0.0
H57 H 0.84695 0.15892 0.67461 0.0
O58 O 0.75762 0.12944 0.58756 0.0
O59 O 0.7756 0.09462 0.62004 0.0
O60 O 0.77607 0.13031 0.69143 0.0
C61 C 0.7661 0.10222 0.5889 0.0
H62 H 0.64585 0.01089 0.67677 0.0
H63 H 0.89324 0.24751 0.59749 0.0
H64 H 0.7841 0.25039 0.70519 0.0
H65 H 0.70822 0.2181 0.61389 0.0
Co66 Co 0.62477 0.75254 0.96398 0.0
C67 C 0.57203 0.66624 0.96192 0.0
C68 C 0.62915 0.68414 0.98016 0.0
C69 C 0.60897 0.64477 0.97885 0.0
N70 N 0.60602 0.69782 0.97005 0.0
N71 N 0.57304 0.63343 0.96733 0.0
H72 H 0.54741 0.66685 0.95133 0.0
H73 H 0.65896 0.70183 0.98785 0.0
C74 C 0.63022 0.74142 0.04194 0.0
O75 O 0.59725 0.70935 0.03824 0.0
N76 N 0.64511 0.80718 0.95753 0.0
C77 C 0.63239 0.8241 0.93435 0.0
C78 C 0.6505 0.86289 0.94188 0.0
C79 C 0.67076 0.83581 0.97874 0.0
N80 N 0.67436 0.87012 0.97003 0.0
C81 C 0.54433 0.73164 0.96206 0.0
C82 C 0.54655 0.77126 0.0235 0.0
C83 C 0.51226 0.7531 0.00378 0.0
C84 C 0.51138 0.73286 0.97266 0.0
C85 C 0.5788 0.77023 0.01146 0.0
N86 N 0.57726 0.74909 0.98205 0.0
H87 H 0.5438 0.71827 0.93676 0.0
H88 H 0.60548 0.78814 0.02527 0.0
H89 H 0.61006 0.80905 0.91459 0.0
H90 H 0.6856 0.83153 0.00091 0.0
O91 O 0.61184 0.74335 0.91383 0.0
O92 O 0.66768 0.75563 0.93708 0.0
O93 O 0.64702 0.76201 0.01424 0.0
C94 C 0.64527 0.74623 0.9091 0.0
H95 H 0.61991 0.626 0.98628 0.0
H96 H 0.6448 0.88368 0.92901 0.0
H97 H 0.54912 0.7874 0.04765 0.0
H98 H 0.48614 0.71959 0.95567 0.0
Co99 Co 0.86221 0.61698 0.29686 0.0
C100 C 0.90921 0.57845 0.29419 0.0
C101 C 0.92638 0.62024 0.33652 0.0
C102 C 0.94961 0.60432 0.33762 0.0
N103 N 0.90074 0.60371 0.30969 0.0
N104 N 0.93888 0.57818 0.31106 0.0
H105 H 0.89393 0.56058 0.2714 0.0
H106 H 0.92845 0.64274 0.35388 0.0
C107 C 0.83092 0.61988 0.36907 0.0
O108 O 0.79605 0.59839 0.35615 0.0
N109 N 0.82527 0.63337 0.28463 0.0
C110 C 0.80121 0.62503 0.25637 0.0
C111 C 0.7808 0.64416 0.26049 0.0
C112 C 0.82131 0.65987 0.30345 0.0
N113 N 0.79321 0.66551 0.29061 0.0
C114 C 0.79413 0.54392 0.28069 0.0
C115 C 0.7917 0.51 0.34598 0.0
C116 C 0.76004 0.49138 0.32281 0.0
C117 C 0.76235 0.50809 0.28906 0.0
C118 C 0.82252 0.54593 0.3367 0.0
N119 N 0.82207 0.56381 0.30557 0.0
H120 H 0.79593 0.55564 0.25435 0.0
H121 H 0.84598 0.56021 0.35552 0.0
H122 H 0.79891 0.60718 0.23379 0.0
H123 H 0.83894 0.67524 0.32625 0.0
O124 O 0.87209 0.61319 0.24678 0.0
O125 O 0.90254 0.66613 0.28008 0.0
O126 O 0.86032 0.63044 0.34884 0.0
C127 C 0.89867 0.64916 0.24929 0.0
H128 H 0.97319 0.61192 0.35607 0.0
H129 H 0.75812 0.64187 0.24314 0.0
H130 H 0.79235 0.49745 0.37155 0.0
H131 H 0.73931 0.49444 0.26965 0.0
Co132 Co 0.25052 0.87024 0.63614 0.0
C133 C 0.33777 0.91057 0.62705 0.0
C134 C 0.31818 0.93421 0.66803 0.0
C135 C 0.35756 0.95486 0.66733 0.0
N136 N 0.30544 0.90553 0.64367 0.0
N137 N 0.36986 0.94005 0.64163 0.0
H138 H 0.33846 0.89373 0.60486 0.0
H139 H 0.29984 0.93974 0.68535 0.0
C140 C 0.26358 0.862 0.71331 0.0
O141 O 0.29344 0.85899 0.7036 0.0
N142 N 0.19558 0.83703 0.63 0.0
C143 C 0.17696 0.81261 0.60282 0.0
C144 C 0.13806 0.79281 0.61064 0.0
C145 C 0.16796 0.83193 0.65379 0.0
N146 N 0.13252 0.80485 0.64284 0.0
C147 C 0.27797 0.82032 0.60934 0.0
C148 C 0.24408 0.76562 0.6629 0.0
C149 C 0.27 0.76335 0.63939 0.0
C150 C 0.28586 0.79009 0.61133 0.0
C151 C 0.23675 0.79593 0.65965 0.0
N152 N 0.2564 0.82479 0.63525 0.0
H153 H 0.28939 0.84023 0.58716 0.0
H154 H 0.21616 0.7968 0.67775 0.0
H155 H 0.19076 0.80873 0.5795 0.0
H156 H 0.17371 0.84751 0.67883 0.0
O157 O 0.25662 0.88324 0.58551 0.0
O158 O 0.24478 0.91433 0.6284 0.0
O159 O 0.24297 0.8663 0.68972 0.0
C160 C 0.25167 0.91179 0.59463 0.0
H161 H 0.37586 0.97931 0.68407 0.0
H162 H 0.11581 0.77028 0.59449 0.0
H163 H 0.23024 0.7446 0.68413 0.0
H164 H 0.30495 0.78826 0.59185 0.0
Co165 Co 0.38178 0.24572 0.96257 0.0
C166 C 0.41507 0.33052 0.9661 0.0
C167 C 0.37197 0.30004 0.00648 0.0
C168 C 0.38242 0.33817 0.00795 0.0
N169 N 0.39234 0.29521 0.9803 0.0
N170 N 0.40931 0.35724 0.98251 0.0
H171 H 0.43369 0.33615 0.94308 0.0
H172 H 0.34965 0.27711 0.02227 0.0
C173 C 0.37903 0.20195 0.02743 0.0
O174 O 0.39994 0.19149 0.00852 0.0
N175 N 0.36738 0.19415 0.94557 0.0
C176 C 0.38538 0.17931 0.92621 0.0
C177 C 0.36537 0.13973 0.93006 0.0
C178 C 0.33563 0.16315 0.95868 0.0
N179 N 0.33458 0.1298 0.95133 0.0
C180 C 0.45851 0.26065 0.94429 0.0
C181 C 0.48563 0.27612 0.01405 0.0
C182 C 0.50632 0.26851 0.98824 0.0
C183 C 0.49386 0.26333 0.95239 0.0
C184 C 0.45078 0.27333 0.00464 0.0
N185 N 0.43553 0.26094 0.97117 0.0
H186 H 0.44893 0.25682 0.91673 0.0
H187 H 0.43464 0.27821 0.02517 0.0
H188 H 0.41205 0.19521 0.91183 0.0
H189 H 0.31552 0.16544 0.97645 0.0
O190 O 0.3865 0.26424 0.91406 0.0
O191 O 0.33222 0.23655 0.9457 0.0
O192 O 0.36783 0.2238 0.01325 0.0
C193 C 0.35013 0.25329 0.91603 0.0
H194 H 0.37051 0.35081 0.02583 0.0
H195 H 0.37466 0.12024 0.92054 0.0
H196 H 0.49534 0.28228 0.04169 0.0
H197 H 0.51001 0.25918 0.93127 0.0
Co198 Co 0.63097 0.88005 0.34528 0.0
C199 C 0.60058 0.93413 0.33645 0.0
C200 C 0.6383 0.93876 0.29363 0.0
C201 C 0.62853 0.96674 0.28898 0.0
N202 N 0.61993 0.91739 0.32286 0.0
N203 N 0.60471 0.96364 0.31587 0.0
H204 H 0.58653 0.92753 0.3623 0.0
H205 H 0.65906 0.93562 0.27766 0.0
C206 C 0.62185 0.85705 0.26863 0.0
O207 O 0.58885 0.85648 0.26912 0.0
N208 N 0.64373 0.84442 0.36742 0.0
C209 C 0.62976 0.82523 0.39854 0.0
C210 C 0.64478 0.80139 0.40375 0.0
C211 C 0.66702 0.83222 0.35413 0.0
N212 N 0.66802 0.80573 0.3757 0.0
C213 C 0.54885 0.84206 0.35889 0.0
C214 C 0.5321 0.77211 0.33004 0.0
C215 C 0.50192 0.77579 0.34482 0.0
C216 C 0.51089 0.81161 0.35925 0.0
C217 C 0.56938 0.80357 0.32936 0.0
N218 N 0.57742 0.8385 0.34275 0.0
H219 H 0.55519 0.86778 0.37302 0.0
H220 H 0.5921 0.79941 0.3188 0.0
H221 H 0.60945 0.82778 0.41578 0.0
H222 H 0.68287 0.84244 0.3292 0.0
O223 O 0.62994 0.90042 0.39186 0.0
O224 O 0.68167 0.92148 0.3569 0.0
O225 O 0.64284 0.86633 0.29669 0.0
C226 C 0.66648 0.92413 0.38694 0.0
H227 H 0.63881 0.98822 0.26791 0.0
H228 H 0.63825 0.78162 0.42594 0.0
H229 H 0.52749 0.74488 0.31998 0.0
H230 H 0.48903 0.81626 0.3713 0.0
Co231 Co 0.75869 0.60464 0.6902 0.0
C232 C 0.67726 0.58316 0.67012 0.0
C233 C 0.70451 0.56446 0.63197 0.0
C234 C 0.66818 0.55348 0.6198 0.0
N235 N 0.71056 0.58335 0.66343 0.0
N236 N 0.65108 0.56508 0.64386 0.0
H237 H 0.67224 0.59657 0.69287 0.0
H238 H 0.72509 0.55865 0.61883 0.0
C239 C 0.81957 0.63271 0.62978 0.0
O240 O 0.84658 0.63388 0.65034 0.0
N241 N 0.80702 0.62608 0.71642 0.0
C242 C 0.81713 0.60777 0.74059 0.0
C243 C 0.85515 0.6315 0.74982 0.0
C244 C 0.83842 0.66142 0.71275 0.0
N245 N 0.86875 0.66492 0.73172 0.0
C246 C 0.72183 0.52457 0.70346 0.0
C247 C 0.77556 0.50952 0.67288 0.0
C248 C 0.74267 0.47927 0.68878 0.0
C249 C 0.71554 0.48717 0.70409 0.0
C250 C 0.78086 0.54664 0.67303 0.0
N251 N 0.75419 0.55396 0.68821 0.0
H252 H 0.70031 0.52991 0.71512 0.0
H253 H 0.80672 0.569 0.66154 0.0
H254 H 0.79882 0.57845 0.74945 0.0
H255 H 0.84006 0.68286 0.69406 0.0
O256 O 0.73217 0.59777 0.73514 0.0
O257 O 0.756 0.65052 0.70177 0.0
O258 O 0.78565 0.6212 0.64179 0.0
C259 C 0.73763 0.63217 0.73076 0.0
H260 H 0.65506 0.53769 0.59538 0.0
H261 H 0.87231 0.62362 0.76635 0.0
H262 H 0.79754 0.50475 0.66119 0.0
H263 H 0.68946 0.46459 0.71629 0.0
Co264 Co 0.15298 0.75583 0.03226 0.0
C265 C 0.10853 0.6696 0.02932 0.0
C266 C 0.10435 0.69587 0.98078 0.0
C267 C 0.08068 0.65693 0.97781 0.0
N268 N 0.12318 0.70408 0.01249 0.0
N269 N 0.08323 0.64033 0.00832 0.0
H270 H 0.11436 0.66601 0.05696 0.0
H271 H 0.1055 0.71682 0.96185 0.0
C272 C 0.18117 0.7671 0.95717 0.0
O273 O 0.1873 0.73824 0.96225 0.0
N274 N 0.18065 0.80751 0.05139 0.0
C275 C 0.19689 0.81839 0.08411 0.0
C276 C 0.21489 0.8579 0.0863 0.0
C277 C 0.18887 0.84034 0.03415 0.0
N278 N 0.21 0.87155 0.05477 0.0
C279 C 0.20212 0.72394 0.05171 0.0
C280 C 0.26869 0.7855 0.0247 0.0
C281 C 0.27084 0.75513 0.04059 0.0
C282 C 0.237 0.72383 0.05407 0.0
C283 C 0.23359 0.7843 0.02258 0.0
N284 N 0.20047 0.75348 0.03521 0.0
H285 H 0.17694 0.70081 0.06402 0.0
H286 H 0.23319 0.8085 0.0105 0.0
H287 H 0.19628 0.79903 0.10465 0.0
H288 H 0.17972 0.84149 0.00705 0.0
O289 O 0.13154 0.73617 0.07923 0.0
O290 O 0.1058 0.75666 0.03796 0.0
O291 O 0.16665 0.77758 0.98221 0.0
C292 C 0.10396 0.74252 0.06987 0.0
H293 H 0.06118 0.6422 0.9558 0.0
H294 H 0.23117 0.8753 0.10897 0.0
H295 H 0.29413 0.81025 0.01394 0.0
H296 H 0.23773 0.70021 0.06732 0.0
Co297 Co 0.38812 0.1411 0.35924 0.0
C298 C 0.44007 0.10682 0.35317 0.0
C299 C 0.38132 0.06755 0.33962 0.0
C300 C 0.40179 0.04873 0.33628 0.0
N301 N 0.40508 0.10398 0.35051 0.0
N302 N 0.43871 0.07345 0.34473 0.0
H303 H 0.46622 0.1324 0.36063 0.0
H304 H 0.35105 0.05545 0.33389 0.0
C305 C 0.39544 0.13972 0.279 0.0
O306 O 0.42654 0.13712 0.28295 0.0
N307 N 0.36995 0.17678 0.36742 0.0
C308 C 0.3823 0.20498 0.39212 0.0
C309 C 0.36499 0.22664 0.38542 0.0
C310 C 0.34516 0.18128 0.34646 0.0
N311 N 0.34198 0.21182 0.35645 0.0
C312 C 0.46516 0.19157 0.38266 0.0
C313 C 0.48583 0.24555 0.32852 0.0
C314 C 0.51209 0.25221 0.35622 0.0
C315 C 0.50136 0.22459 0.38344 0.0
C316 C 0.44974 0.21209 0.32884 0.0
N317 N 0.44017 0.1849 0.35508 0.0
H318 H 0.45722 0.17117 0.40442 0.0
H319 H 0.42904 0.20922 0.30885 0.0
H320 H 0.40365 0.21046 0.41249 0.0
H321 H 0.33032 0.16304 0.32383 0.0
O322 O 0.3872 0.13237 0.41036 0.0
O323 O 0.33826 0.09907 0.37328 0.0
O324 O 0.37749 0.14168 0.30649 0.0
C325 C 0.35206 0.10474 0.40573 0.0
H326 H 0.39058 0.01944 0.32728 0.0
H327 H 0.37055 0.25247 0.3995 0.0
H328 H 0.49242 0.2668 0.30768 0.0
H329 H 0.52064 0.22859 0.40547 0.0
Co330 Co 0.26453 0.40358 0.68169 0.0
C331 C 0.3489 0.44563 0.66722 0.0
C332 C 0.3169 0.40079 0.62883 0.0
C333 C 0.35501 0.41954 0.61898 0.0
N334 N 0.31298 0.41737 0.65875 0.0
N335 N 0.37503 0.44755 0.64311 0.0
H336 H 0.35553 0.46514 0.68961 0.0
H337 H 0.29354 0.37711 0.61473 0.0
C338 C 0.21446 0.39968 0.62028 0.0
O339 O 0.20143 0.41781 0.64004 0.0
N340 N 0.21499 0.38774 0.70467 0.0
C341 C 0.20789 0.39703 0.73758 0.0
C342 C 0.169 0.3759 0.74452 0.0
C343 C 0.18028 0.35948 0.6931 0.0
N344 N 0.15167 0.35257 0.71632 0.0
C345 C 0.28134 0.4776 0.70911 0.0
C346 C 0.29161 0.51307 0.64306 0.0
C347 C 0.29228 0.53314 0.67411 0.0
C348 C 0.28805 0.51521 0.70755 0.0
C349 C 0.28498 0.47554 0.64592 0.0
N350 N 0.27731 0.45727 0.67849 0.0
H351 H 0.27994 0.46512 0.73504 0.0
H352 H 0.28593 0.46118 0.62174 0.0
H353 H 0.22924 0.41616 0.75643 0.0
H354 H 0.17604 0.34333 0.66863 0.0
O355 O 0.28685 0.40433 0.72801 0.0
O356 O 0.25687 0.3533 0.69255 0.0
O357 O 0.23946 0.39196 0.63274 0.0
C358 C 0.27464 0.36801 0.72266 0.0
H359 H 0.36715 0.4134 0.59563 0.0
H360 H 0.15464 0.37742 0.76859 0.0
H361 H 0.29654 0.52635 0.61677 0.0
H362 H 0.28936 0.52983 0.7324 0.0
Co363 Co 0.85403 0.24603 0.03572 0.0
C364 C 0.89574 0.33211 0.02799 0.0
C365 C 0.90835 0.30432 0.98551 0.0
C366 C 0.93183 0.34327 0.98174 0.0
N367 N 0.88462 0.29695 0.01389 0.0
N368 N 0.92405 0.36085 0.00855 0.0
H369 H 0.88556 0.33674 0.05324 0.0
H370 H 0.91062 0.28282 0.97 0.0
C371 C 0.83465 0.23129 0.95881 0.0
O372 O 0.82797 0.2601 0.96037 0.0
N373 N 0.82561 0.19548 0.05724 0.0
C374 C 0.80661 0.18623 0.08884 0.0
C375 C 0.78853 0.14692 0.09326 0.0
C376 C 0.81886 0.16183 0.04285 0.0
N377 N 0.79609 0.13168 0.06421 0.0
C378 C 0.80234 0.27588 0.04596 0.0
C379 C 0.73893 0.21469 0.01452 0.0
C380 C 0.73591 0.24565 0.02753 0.0
C381 C 0.7679 0.27642 0.0436 0.0
C382 C 0.77406 0.21558 0.01691 0.0
N383 N 0.80577 0.2466 0.03133 0.0
H384 H 0.82559 0.29833 0.06079 0.0
H385 H 0.77567 0.19113 0.00718 0.0
H386 H 0.80521 0.20652 0.10697 0.0
H387 H 0.83006 0.1593 0.01717 0.0
O388 O 0.86912 0.26896 0.08244 0.0
O389 O 0.90196 0.24892 0.04966 0.0
O390 O 0.84651 0.22165 0.98665 0.0
C391 C 0.89949 0.26561 0.07879 0.0
H392 H 0.95481 0.35732 0.96226 0.0
H393 H 0.77017 0.13069 0.11554 0.0
H394 H 0.71428 0.18993 0.00287 0.0
H395 H 0.76591 0.30004 0.0553 0.0
H396 H 0.94645 0.24191 0.11107 0.0
H397 H 0.92612 0.33775 0.10113 0.0
H398 H 0.98306 0.37781 0.13797 0.0
H399 H 0.97254 0.26035 0.20548 0.0
H400 H 0.00816 0.24565 0.20332 0.0
H401 H 0.96777 0.22492 0.17304 0.0
H402 H 0.01445 0.2459 0.11875 0.0
H403 H 0.055 0.26693 0.14888 0.0
H404 H 0.05091 0.29571 0.11387 0.0
H405 H 0.0427 0.40844 0.17251 0.0
H406 H 0.0967 0.42598 0.21371 0.0
H407 H 0.07497 0.30881 0.21106 0.0
C408 C 0.95433 0.27139 0.11665 0.0
C409 C 0.93256 0.28722 0.1027 0.0
C410 C 0.94284 0.32545 0.11114 0.0
C411 C 0.97517 0.34843 0.13197 0.0
C412 C 0.99627 0.33232 0.1452 0.0
C413 C 0.9859 0.29447 0.13888 0.0
C414 C 0.01192 0.28385 0.15954 0.0
C415 C 0.9887 0.2518 0.18698 0.0
C416 C 0.0344 0.27242 0.13371 0.0
C417 C 0.03844 0.32175 0.1781 0.0
C418 C 0.02924 0.34938 0.16849 0.0
C419 C 0.05004 0.38705 0.18061 0.0
C420 C 0.08076 0.39675 0.20386 0.0
C421 C 0.08977 0.3687 0.2156 0.0
C422 C 0.06843 0.33066 0.20254 0.0
H423 H 0.64511 0.96606 0.42805 0.0
H424 H 0.73954 0.94552 0.40752 0.0
H425 H 0.77689 0.99036 0.45675 0.0
H426 H 0.70597 0.06851 0.44603 0.0
H427 H 0.67398 0.06883 0.47989 0.0
H428 H 0.65504 0.03503 0.44331 0.0
H429 H 0.6233 0.97887 0.48903 0.0
H430 H 0.64224 0.01248 0.5257 0.0
H431 H 0.65261 0.97382 0.52286 0.0
H432 H 0.80064 0.03242 0.51242 0.0
H433 H 0.81255 0.0752 0.56487 0.0
H434 H 0.70569 0.07353 0.54356 0.0
C435 C 0.67373 0.97121 0.43394 0.0
C436 C 0.68957 0.95238 0.4145 0.0
C437 C 0.72717 0.95995 0.42231 0.0
C438 C 0.74843 0.98517 0.4502 0.0
C439 C 0.73189 1.00317 0.46919 0.0
C440 C 0.6957 0.9971 0.46088 0.0
C441 C 0.68486 0.0208 0.48454 0.0
C442 C 0.67967 0.05003 0.4621 0.0
C443 C 0.64861 0.99494 0.50685 0.0
C444 C 0.72023 0.04049 0.50801 0.0
C445 C 0.74686 0.02963 0.49914 0.0
C446 C 0.78042 0.04182 0.5191 0.0
C447 C 0.78693 0.06592 0.54878 0.0
C448 C 0.76042 0.07808 0.5574 0.0
C449 C 0.72688 0.06539 0.53669 0.0
H450 H 0.7136 0.76972 0.8721 0.0
H451 H 0.59265 0.68267 0.87534 0.0
H452 H 0.60348 0.64578 0.82875 0.0
H453 H 0.72209 0.76301 0.77181 0.0
H454 H 0.77052 0.77147 0.77474 0.0
H455 H 0.75335 0.79252 0.80741 0.0
H456 H 0.77149 0.76087 0.85861 0.0
H457 H 0.78824 0.73934 0.82615 0.0
H458 H 0.75195 0.70956 0.85847 0.0
H459 H 0.62884 0.61284 0.79202 0.0
H460 H 0.66454 0.59124 0.75424 0.0
H461 H 0.76718 0.70332 0.76354 0.0
C462 C 0.68939 0.74338 0.86221 0.0
C463 C 0.65224 0.72905 0.87708 0.0
C464 C 0.62118 0.69439 0.86388 0.0
C465 C 0.62707 0.67307 0.83762 0.0
C466 C 0.66401 0.68741 0.82396 0.0
C467 C 0.69448 0.72231 0.8347 0.0
C468 C 0.73102 0.73088 0.81473 0.0
C469 C 0.74507 0.76659 0.79074 0.0
C470 C 0.76253 0.73542 0.84107 0.0
C471 C 0.71644 0.69462 0.7923 0.0
C472 C 0.6778 0.66979 0.79881 0.0
C473 C 0.65863 0.63257 0.78533 0.0
C474 C 0.67918 0.62059 0.76386 0.0
C475 C 0.71801 0.64622 0.75461 0.0
C476 C 0.73703 0.68376 0.76909 0.0
H477 H 0.06216 0.67841 0.11075 0.0
H478 H 0.07438 0.78881 0.08354 0.0
H479 H 0.02181 0.77665 0.12595 0.0
H480 H 0.95763 0.62812 0.11559 0.0
H481 H 0.95518 0.59727 0.15193 0.0
H482 H 0.99445 0.61526 0.12029 0.0
H483 H 0.04315 0.64385 0.17273 0.0
H484 H 1.00406 0.62594 0.20449 0.0
H485 H 0.03969 0.67632 0.20391 0.0
H486 H 0.97193 0.75459 0.17513 0.0
H487 H 0.92271 0.72076 0.22252 0.0
H488 H 0.93763 0.6217 0.21188 0.0
C489 C 0.05369 0.69994 0.11392 0.0
C490 C 0.07228 0.73469 0.09446 0.0
C491 C 0.06027 0.76206 0.09846 0.0
C492 C 0.0306 0.75543 0.12245 0.0
C493 C 0.01273 0.72085 0.14139 0.0
C494 C 0.02333 0.69324 0.1369 0.0
C495 C 0.99844 0.65788 0.15937 0.0
C496 C 0.97503 0.62255 0.13535 0.0
C497 C 0.0228 0.6506 0.18675 0.0
C498 C 0.97277 0.67026 0.17779 0.0
C499 C 0.98179 0.70688 0.16741 0.0
C500 C 0.964 0.7256 0.18291 0.0
C501 C 0.93623 0.70632 0.20972 0.0
C502 C 0.92603 0.66855 0.2199 0.0
C503 C 0.94427 0.65022 0.20359 0.0
H504 H 0.31978 0.0272 0.40975 0.0
H505 H 0.33724 0.127 0.46965 0.0
H506 H 0.30502 0.08581 0.52262 0.0
H507 H 0.22727 0.9548 0.45127 0.0
H508 H 0.24121 0.9186 0.45251 0.0
H509 H 0.25944 0.95454 0.41755 0.0
H510 H 0.32924 0.97383 0.43514 0.0
H511 H 0.31126 0.93803 0.47008 0.0
H512 H 0.34483 0.98745 0.48092 0.0
H513 H 0.27518 0.03511 0.56968 0.0
H514 H 0.25604 0.98 0.61024 0.0
H515 H 0.26279 0.91355 0.52144 0.0
C516 C 0.31565 0.03997 0.43377 0.0
C517 C 0.32986 0.07986 0.43575 0.0
C518 C 0.3258 0.09627 0.46781 0.0
C519 C 0.30747 0.07312 0.49782 0.0
C520 C 0.29413 0.03381 0.49535 0.0
C521 C 0.29838 0.01738 0.46429 0.0
C522 C 0.28611 0.97546 0.4702 0.0
C523 C 0.25144 0.94931 0.44647 0.0
C524 C 0.31987 0.9683 0.46371 0.0
C525 C 0.27494 0.97108 0.50959 0.0
C526 C 0.27896 0.00487 0.52327 0.0
C527 C 0.27166 0.00842 0.55924 0.0
C528 C 0.26074 0.97689 0.58206 0.0
C529 C 0.25788 0.94246 0.56899 0.0
C530 C 0.26448 0.9394 0.53213 0.0
H531 H 0.33489 0.3893 0.76891 0.0
H532 H 0.22463 0.29291 0.73798 0.0
H533 H 0.23082 0.25293 0.78526 0.0
H534 H 0.38048 0.33269 0.78394 0.0
H535 H 0.40903 0.3615 0.82118 0.0
H536 H 0.39485 0.38291 0.78624 0.0
H537 H 0.36377 0.40589 0.834 0.0
H538 H 0.37774 0.38442 0.86906 0.0
H539 H 0.32801 0.37136 0.86422 0.0
H540 H 0.24773 0.22476 0.83857 0.0
H541 H 0.27802 0.2081 0.88834 0.0
H542 H 0.37996 0.32056 0.87953 0.0
C543 C 0.31206 0.35981 0.77226 0.0
C544 C 0.27914 0.34412 0.75015 0.0
C545 C 0.25008 0.30531 0.75474 0.0
C546 C 0.25327 0.2825 0.78159 0.0
C547 C 0.28608 0.29878 0.80308 0.0
C548 C 0.31529 0.33635 0.79827 0.0
C549 C 0.34851 0.34627 0.82354 0.0
C550 C 0.38539 0.35643 0.80246 0.0
C551 C 0.35486 0.37891 0.84922 0.0
C552 C 0.33334 0.30853 0.84345 0.0
C553 C 0.29698 0.28169 0.83178 0.0
C554 C 0.27641 0.24535 0.84757 0.0
C555 C 0.29367 0.23615 0.87579 0.0
C556 C 0.33137 0.26284 0.8871 0.0
C557 C 0.35134 0.2994 0.87074 0.0
H558 H 0.24198 0.39566 0.40946 0.0
H559 H 0.12099 0.35986 0.39863 0.0
H560 H 0.11334 0.35332 0.46431 0.0
H561 H 0.22926 0.33173 0.48799 0.0
H562 H 0.27381 0.36742 0.50802 0.0
H563 H 0.26862 0.36463 0.45978 0.0
H564 H 0.28752 0.43641 0.45789 0.0
H565 H 0.29228 0.43931 0.50604 0.0
H566 H 0.26044 0.45241 0.48418 0.0
H567 H 0.12112 0.36115 0.53095 0.0
H568 H 0.1426 0.37575 0.59425 0.0
H569 H 0.25707 0.40188 0.56236 0.0
C570 C 0.21366 0.38553 0.42081 0.0
C571 C 0.18217 0.37862 0.39881 0.0
C572 C 0.14563 0.36553 0.4148 0.0
C573 C 0.14094 0.36165 0.45217 0.0
C574 C 0.17287 0.37015 0.47319 0.0
C575 C 0.20836 0.381 0.45809 0.0
C576 C 0.23845 0.39029 0.48684 0.0
C577 C 0.25341 0.36181 0.48558 0.0
C578 C 0.27161 0.43208 0.48353 0.0
C579 C 0.21468 0.38455 0.52036 0.0
C580 C 0.17689 0.37288 0.51189 0.0
C581 C 0.15037 0.36935 0.53803 0.0
C582 C 0.16282 0.37793 0.57379 0.0
C583 C 0.20123 0.38939 0.58297 0.0
C584 C 0.22729 0.39227 0.556 0.0
H585 H 0.73165 0.15804 0.7714 0.0
H586 H 0.81108 0.11777 0.74663 0.0
H587 H 0.8377 0.13488 0.80844 0.0
H588 H 0.79816 0.23963 0.81777 0.0
H589 H 0.76384 0.23839 0.84981 0.0
H590 H 0.74813 0.21825 0.80572 0.0
H591 H 0.69846 0.15298 0.83412 0.0
H592 H 0.71391 0.17298 0.87838 0.0
H593 H 0.71446 0.12997 0.86579 0.0
H594 H 0.85635 0.15867 0.87346 0.0
H595 H 0.86922 0.19211 0.93234 0.0
H596 H 0.78033 0.22037 0.91008 0.0
C597 C 0.75401 0.15187 0.77913 0.0
C598 C 0.76884 0.13589 0.75456 0.0
C599 C 0.79904 0.12959 0.76534 0.0
C600 C 0.81422 0.13913 0.80033 0.0
C601 C 0.7991 0.15532 0.82381 0.0
C602 C 0.76985 0.16188 0.81339 0.0
C603 C 0.76089 0.18292 0.84192 0.0
C604 C 0.76821 0.22211 0.82796 0.0
C605 C 0.71947 0.15823 0.85588 0.0
C606 C 0.78985 0.18757 0.8701 0.0
C607 C 0.81124 0.17091 0.85968 0.0
C608 C 0.83978 0.17184 0.88179 0.0
C609 C 0.84687 0.19077 0.9151 0.0
C610 C 0.82604 0.20908 0.92532 0.0
C611 C 0.79702 0.20701 0.90265 0.0
H612 H 0.57485 0.79683 0.22658 0.0
H613 H 0.69369 0.88627 0.23946 0.0
H614 H 0.71121 0.86374 0.18421 0.0
H615 H 0.59657 0.72362 0.19566 0.0
H616 H 0.55624 0.70261 0.16528 0.0
H617 H 0.5538 0.72579 0.20585 0.0
H618 H 0.53789 0.77054 0.16832 0.0
H619 H 0.53995 0.74729 0.12777 0.0
H620 H 0.56969 0.79862 0.13228 0.0
H621 H 0.71309 0.83524 0.12316 0.0
H622 H 0.70031 0.79987 0.06546 0.0
H623 H 0.58186 0.72529 0.09832 0.0
C624 C 0.60455 0.81162 0.2177 0.0
C625 C 0.63292 0.84351 0.23662 0.0
C626 C 0.67164 0.86181 0.22493 0.0
C627 C 0.68177 0.84921 0.19372 0.0
C628 C 0.65294 0.81766 0.1754 0.0
C629 C 0.61525 0.79876 0.18741 0.0
C630 C 0.58962 0.76546 0.16338 0.0
C631 C 0.5731 0.7271 0.18377 0.0
C632 C 0.55741 0.77083 0.14697 0.0
C633 C 0.61843 0.76917 0.13527 0.0
C634 C 0.65479 0.79955 0.14232 0.0
C635 C 0.68499 0.81072 0.11787 0.0
C636 C 0.67755 0.79051 0.08525 0.0
C637 C 0.64042 0.75924 0.07787 0.0
C638 C 0.61091 0.74817 0.10363 0.0
H639 H 0.7685 0.60651 0.57371 0.0
H640 H 0.88942 0.67866 0.59906 0.0
H641 H 0.90495 0.6882 0.53431 0.0
H642 H 0.78111 0.55801 0.50294 0.0
H643 H 0.74284 0.55507 0.47537 0.0
H644 H 0.7405 0.55819 0.52347 0.0
H645 H 0.73312 0.61835 0.51688 0.0
H646 H 0.73519 0.61531 0.46864 0.0
H647 H 0.76832 0.65908 0.49146 0.0
H648 H 0.908 0.68443 0.46764 0.0
H649 H 0.89856 0.66804 0.40319 0.0
H650 H 0.77546 0.59793 0.42112 0.0
C651 C 0.79811 0.62501 0.56563 0.0
C652 C 0.82789 0.64169 0.59129 0.0
C653 C 0.86635 0.66525 0.57972 0.0
C654 C 0.87537 0.67108 0.54305 0.0
C655 C 0.84549 0.65326 0.51837 0.0
C656 C 0.8076 0.63089 0.52911 0.0
C657 C 0.78133 0.61246 0.4972 0.0
C658 C 0.76022 0.56833 0.49992 0.0
C659 C 0.75281 0.62719 0.49332 0.0
C660 C 0.81054 0.62705 0.46699 0.0
C661 C 0.84729 0.65093 0.47973 0.0
C662 C 0.87931 0.6662 0.45722 0.0
C663 C 0.87365 0.65658 0.42068 0.0
C664 C 0.83627 0.63174 0.40712 0.0
C665 C 0.80435 0.61725 0.4306 0.0
H666 H 0.22803 0.76489 0.9054 0.0
H667 H 0.15811 0.81612 0.93136 0.0
H668 H 0.17458 0.84935 0.87255 0.0
H669 H 0.30369 0.84832 0.85894 0.0
H670 H 0.31096 0.81959 0.82611 0.0
H671 H 0.29459 0.80097 0.87071 0.0
H672 H 0.23538 0.74116 0.84373 0.0
H673 H 0.25158 0.75954 0.7991 0.0
H674 H 0.20403 0.7477 0.81352 0.0
H675 H 0.19423 0.87219 0.809 0.0
H676 H 0.2189 0.88625 0.74659 0.0
H677 H 0.27879 0.82294 0.76434 0.0
C678 C 0.21623 0.78315 0.89877 0.0
C679 C 0.19157 0.78774 0.92267 0.0
C680 C 0.17703 0.8122 0.91328 0.0
C681 C 0.18623 0.83118 0.88002 0.0
C682 C 0.2104 0.82575 0.8569 0.0
C683 C 0.22552 0.80265 0.86602 0.0
C684 C 0.25047 0.80124 0.83632 0.0
C685 C 0.29242 0.81858 0.84877 0.0
C686 C 0.23439 0.75997 0.82235 0.0
C687 C 0.24638 0.8265 0.80869 0.0
C688 C 0.22309 0.84031 0.821 0.0
C689 C 0.21304 0.86212 0.79926 0.0
C690 C 0.22707 0.86986 0.76393 0.0
C691 C 0.25111 0.85609 0.75102 0.0
C692 C 0.26117 0.83455 0.77385 0.0
H693 H 0.41773 0.17639 0.06808 0.0
H694 H 0.32662 0.20446 0.07361 0.0
H695 H 0.31804 0.18757 0.13849 0.0
H696 H 0.37698 0.09634 0.1302 0.0
H697 H 0.42303 0.10892 0.14932 0.0
H698 H 0.41995 0.1208 0.10318 0.0
H699 H 0.46912 0.19236 0.11587 0.0
H700 H 0.47248 0.18079 0.162 0.0
H701 H 0.45979 0.21685 0.15165 0.0
H702 H 0.32067 0.16842 0.20292 0.0
H703 H 0.33649 0.15277 0.2622 0.0
H704 H 0.42809 0.14029 0.21389 0.0
C705 C 0.39555 0.17854 0.08271 0.0
C706 C 0.37251 0.19136 0.06581 0.0
C707 C 0.34444 0.19455 0.08612 0.0
C708 C 0.33933 0.18491 0.12285 0.0
C709 C 0.36272 0.17246 0.13866 0.0
C710 C 0.39043 0.16952 0.1192 0.0
C711 C 0.41341 0.15758 0.14265 0.0
C712 C 0.408 0.11859 0.13062 0.0
C713 C 0.45622 0.18876 0.14307 0.0
C714 C 0.39453 0.15444 0.17862 0.0
C715 C 0.36508 0.1627 0.17571 0.0
C716 C 0.34369 0.16197 0.20546 0.0
C717 C 0.353 0.15311 0.2391 0.0
C718 C 0.38381 0.14564 0.24287 0.0
C719 C 0.40443 0.14588 0.21201 0.0
H720 H 0.96221 0.54423 0.35917 0.0
H721 H 0.95617 0.56203 0.24509 0.0
H722 H 0.99328 0.529 0.23247 0.0
H723 H 0.05702 0.56065 0.36102 0.0
H724 H 0.0472 0.52396 0.394 0.0
H725 H 0.01898 0.54738 0.39344 0.0
H726 H 0.95643 0.48138 0.3878 0.0
H727 H 0.98442 0.45771 0.38876 0.0
H728 H 0.952 0.44928 0.35193 0.0
H729 H 0.0354 0.49766 0.23366 0.0
H730 H 0.07252 0.46522 0.24784 0.0
H731 H 0.0485 0.46717 0.36117 0.0
C732 C 0.96848 0.54085 0.33153 0.0
C733 C 0.95657 0.55561 0.30305 0.0
C734 C 0.96487 0.55051 0.26716 0.0
C735 C 0.98609 0.53208 0.25986 0.0
C736 C 0.99817 0.51855 0.28878 0.0
C737 C 0.98906 0.52223 0.32386 0.0
C738 C 1.00511 0.5053 0.35029 0.0
C739 C 0.03378 0.53617 0.3762 0.0
C740 C 0.97255 0.4714 0.3709 0.0
C741 C 0.02522 0.49188 0.32475 0.0
C742 C 0.02121 0.49992 0.28938 0.0
C743 C 0.03842 0.49101 0.26125 0.0
C744 C 0.0597 0.47291 0.26954 0.0
C745 C 0.06321 0.46365 0.30558 0.0
C746 C 0.04588 0.47354 0.33338 0.0
H747 H 0.58972 0.02491 0.68918 0.0
H748 H 0.61681 0.05121 0.57641 0.0
H749 H 0.547 0.02113 0.56257 0.0
H750 H 0.50375 0.93396 0.67907 0.0
H751 H 0.47913 0.94166 0.71586 0.0
H752 H 0.5308 0.96434 0.71614 0.0
H753 H 0.53641 0.03111 0.72333 0.0
H754 H 0.48478 0.0086 0.72344 0.0
H755 H 0.51272 0.0461 0.69144 0.0
H756 H 0.47263 0.9851 0.56188 0.0
H757 H 0.40263 0.95473 0.57527 0.0
H758 H 0.42657 0.95634 0.68885 0.0
C759 C 0.58083 0.02424 0.66159 0.0
C760 C 0.60833 0.04005 0.63377 0.0
C761 C 0.59596 0.03933 0.59801 0.0
C762 C 0.55646 0.02208 0.58998 0.0
C763 C 0.52993 0.00627 0.61814 0.0
C764 C 0.54182 0.00788 0.65331 0.0
C765 C 0.50814 0.9906 0.67907 0.0
C766 C 0.5053 0.95556 0.69868 0.0
C767 C 0.51067 0.02091 0.70589 0.0
C768 C 0.47524 0.97878 0.65305 0.0
C769 C 0.48809 0.98744 0.61791 0.0
C770 C 0.4624 0.97844 0.58933 0.0
C771 C 0.42278 0.961 0.59705 0.0
C772 C 0.40952 0.95344 0.63303 0.0
C773 C 0.43614 0.9621 0.66114 0.0
H774 H 0.48342 0.40709 0.96399 0.0
H775 H 0.37262 0.39804 0.98207 0.0
H776 H 0.4018 0.46808 0.97359 0.0
H777 H 0.53683 0.49099 0.01281 0.0
H778 H 0.5782 0.51188 0.98353 0.0
H779 H 0.54785 0.46053 0.98576 0.0
H780 H 0.53744 0.45793 0.91683 0.0
H781 H 0.568 0.50937 0.91434 0.0
H782 H 0.51979 0.48693 0.89668 0.0
H783 H 0.44393 0.53952 0.96945 0.0
H784 H 0.49616 0.60718 0.97088 0.0
H785 H 0.57985 0.57025 0.95502 0.0
C786 C 0.46527 0.41986 0.96516 0.0
C787 C 0.42582 0.3973 0.97363 0.0
C788 C 0.40297 0.41497 0.97585 0.0
C789 C 0.41923 0.45465 0.97083 0.0
C790 C 0.45845 0.47635 0.96353 0.0
C791 C 0.48119 0.45961 0.96052 0.0
C792 C 0.52311 0.48987 0.95556 0.0
C793 C 0.54794 0.48821 0.98625 0.0
C794 C 0.53795 0.48578 0.91865 0.0
C795 C 0.52045 0.52614 0.95744 0.0
C796 C 0.48285 0.51771 0.96148 0.0
C797 C 0.47346 0.54651 0.96574 0.0
C798 C 0.50335 0.58493 0.96639 0.0
C799 C 0.54223 0.59425 0.96311 0.0
C800 C 0.55056 0.56427 0.95791 0.0
H801 H 0.53363 0.94129 0.34202 0.0
H802 H 0.63794 0.04005 0.30277 0.0
H803 H 0.60806 0.08055 0.31016 0.0
H804 H 0.46956 0.96245 0.29666 0.0
H805 H 0.43412 0.94568 0.33208 0.0
H806 H 0.46502 0.92552 0.32717 0.0
H807 H 0.48755 0.94332 0.39317 0.0
H808 H 0.4566 0.96348 0.39834 0.0
H809 H 0.50724 0.99233 0.40789 0.0
H810 H 0.56562 0.10956 0.31951 0.0
H811 H 0.51284 0.1239 0.32674 0.0
H812 H 0.43574 0.00569 0.35825 0.0
C813 C 0.55035 0.9716 0.33567 0.0
C814 C 0.58813 0.98767 0.32203 0.0
C815 C 0.60889 0.02722 0.31312 0.0
C816 C 0.59224 0.05045 0.31744 0.0
C817 C 0.55471 0.0336 0.33051 0.0
C818 C 0.53396 0.99504 0.33937 0.0
C819 C 0.49324 0.98337 0.35043 0.0
C820 C 0.46376 0.95244 0.32506 0.0
C821 C 0.48573 0.96983 0.3898 0.0
C822 C 0.49413 0.02124 0.34587 0.0
C823 C 0.52998 0.05001 0.33489 0.0
C824 C 0.53748 0.0873 0.32831 0.0
C825 C 0.50741 0.09524 0.33264 0.0
C826 C 0.4702 0.06592 0.34301 0.0
C827 C 0.46379 0.0286 0.35003 0.0
H828 H 0.59504 0.53597 0.69499 0.0
H829 H 0.62025 0.57857 0.58564 0.0
H830 H 0.5523 0.56059 0.57691 0.0
H831 H 0.50824 0.45405 0.67534 0.0
H832 H 0.48325 0.45361 0.71579 0.0
H833 H 0.53482 0.47577 0.71592 0.0
H834 H 0.54079 0.53945 0.73847 0.0
H835 H 0.4891 0.51737 0.73855 0.0
H836 H 0.51797 0.56109 0.71361 0.0
H837 H 0.48172 0.53089 0.5769 0.0
H838 H 0.41154 0.49018 0.58539 0.0
H839 H 0.4295 0.46541 0.69463 0.0
C840 C 0.58625 0.54256 0.66972 0.0
C841 C 0.61275 0.55911 0.64104 0.0
C842 C 0.60026 0.56617 0.60786 0.0
C843 C 0.56183 0.55619 0.60277 0.0
C844 C 0.53608 0.53897 0.63113 0.0
C845 C 0.54761 0.5322 0.66404 0.0
C846 C 0.51314 0.50949 0.68858 0.0
C847 C 0.50967 0.47095 0.69954 0.0
C848 C 0.51539 0.53328 0.72177 0.0
C849 C 0.48046 0.50354 0.66389 0.0
C850 C 0.49459 0.52133 0.63107 0.0
C851 C 0.47031 0.51747 0.60268 0.0
C852 C 0.43059 0.49429 0.60765 0.0
C853 C 0.41537 0.47528 0.64071 0.0
C854 C 0.44057 0.48057 0.66946 0.0
H855 H 0.96232 0.419 0.96091 0.0
H856 H 0.93354 0.39558 0.07408 0.0
H857 H 0.97217 0.46496 0.08711 0.0
H858 H 0.05986 0.49353 0.97307 0.0
H859 H 0.05916 0.52155 0.93552 0.0
H860 H 0.02861 0.47011 0.93536 0.0
H861 H 0.96886 0.47775 0.92562 0.0
H862 H 0.99923 0.5292 0.92563 0.0
H863 H 0.9594 0.50654 0.95658 0.0
H864 H 0.01591 0.53822 0.08747 0.0
H865 H 0.05746 0.60765 0.07439 0.0
H866 H 0.05774 0.58134 0.96137 0.0
C867 C 0.96424 0.42828 0.98851 0.0
C868 C 0.94499 0.40152 0.01644 0.0
C869 C 0.94775 0.41525 0.05208 0.0
C870 C 0.96986 0.45472 0.05981 0.0
C871 C 0.98891 0.48016 0.0316 0.0
C872 C 0.98605 0.46737 0.99664 0.0
C873 C 0.00896 0.50028 0.97097 0.0
C874 C 0.04105 0.49611 0.95267 0.0
C875 C 0.98253 0.50363 0.94306 0.0
C876 C 0.02529 0.53369 0.99689 0.0
C877 C 0.0136 0.5217 0.03179 0.0
C878 C 0.02524 0.54784 0.06021 0.0
C879 C 0.04907 0.58719 0.05259 0.0
C880 C 0.06082 0.59995 0.01683 0.0
C881 C 0.0489 0.57259 0.98889 0.0
H882 H 0.23859 0.33519 0.32978 0.0
H883 H 0.2423 0.31806 0.21509 0.0
H884 H 0.27064 0.27682 0.22662 0.0
H885 H 0.32841 0.34302 0.34989 0.0
H886 H 0.31349 0.31833 0.39245 0.0
H887 H 0.29076 0.34401 0.37549 0.0
H888 H 0.22412 0.28242 0.38035 0.0
H889 H 0.24652 0.25646 0.39752 0.0
H890 H 0.21611 0.23906 0.35839 0.0
H891 H 0.30008 0.23926 0.25037 0.0
H892 H 0.33112 0.20965 0.28442 0.0
H893 H 0.30983 0.25204 0.38404 0.0
C894 C 0.24473 0.32214 0.30718 0.0
C895 C 0.23801 0.32948 0.27152 0.0
C896 C 0.24734 0.3128 0.24255 0.0
C897 C 0.26325 0.28925 0.24887 0.0
C898 C 0.26989 0.2829 0.28433 0.0
C899 C 0.26107 0.29894 0.31302 0.0
C900 C 0.27301 0.28923 0.34839 0.0
C901 C 0.30322 0.32583 0.36767 0.0
C902 C 0.23784 0.26536 0.37258 0.0
C903 C 0.29024 0.26547 0.33505 0.0
C904 C 0.28773 0.26188 0.29804 0.0
C905 C 0.30195 0.24162 0.27937 0.0
C906 C 0.31932 0.22466 0.29901 0.0
C907 C 0.3226 0.2282 0.33695 0.0
C908 C 0.3078 0.24892 0.3551 0.0
H909 H 0.95342 0.25012 0.60946 0.0
H910 H 0.89721 0.20252 0.71163 0.0
H911 H 0.96042 0.23207 0.74146 0.0
H912 H 0.03699 0.23885 0.62475 0.0
H913 H 0.06984 0.28344 0.60276 0.0
H914 H 0.02021 0.25704 0.589 0.0
H915 H 0.01389 0.31726 0.60017 0.0
H916 H 0.06349 0.34369 0.61391 0.0
H917 H 0.02635 0.34022 0.64359 0.0
H918 H 0.02945 0.27011 0.76105 0.0
H919 H 0.09965 0.31218 0.76844 0.0
H920 H 0.11149 0.33451 0.65372 0.0
C921 C 0.9544 0.24584 0.63809 0.0
C922 C 0.92018 0.22377 0.65811 0.0
C923 C 0.92287 0.2187 0.69553 0.0
C924 C 0.9587 0.23559 0.71279 0.0
C925 C 0.99176 0.25732 0.69231 0.0
C926 C 0.99 0.26231 0.65573 0.0
C927 C 0.02989 0.28761 0.6401 0.0
C928 C 0.03981 0.26539 0.61253 0.0
C929 C 0.03361 0.32437 0.62348 0.0
C930 C 0.05425 0.29647 0.67371 0.0
C931 C 0.03167 0.27873 0.70353 0.0
C932 C 0.04744 0.28389 0.73785 0.0
C933 C 0.0873 0.30796 0.74183 0.0
C934 C 0.11104 0.32643 0.71167 0.0
C935 C 0.09417 0.32023 0.67715 0.0
H936 H 0.7759 0.0966 -0.00108 0.0
H937 H 0.78122 0.07551 0.11254 0.0
H938 H 0.75306 0.00611 0.10026 0.0
H939 H 0.68535 0.01299 0.98288 0.0
H940 H 0.69768 1.00417 0.93866 0.0
H941 H 0.72045 0.0524 0.95605 0.0
H942 H 0.78743 0.05947 0.94552 0.0
H943 H 0.7649 0.01126 0.92801 0.0
H944 H 0.79817 0.02483 0.96499 0.0
H945 H 0.72312 0.93893 0.07577 0.0
H946 H 0.69086 0.87845 0.04146 0.0
H947 H 0.70394 0.94278 0.94357 0.0
C948 C 0.7717 0.07743 0.0211 0.0
C949 C 0.78099 0.09145 0.05671 0.0
C950 C 0.77417 0.06533 0.08513 0.0
C951 C 0.75838 0.02593 0.07837 0.0
C952 C 0.74931 0.01301 0.04302 0.0
C953 C 0.75556 0.03793 0.01485 0.0
C954 C 0.74151 0.01638 0.9796 0.0
C955 C 0.70933 0.02181 0.96336 0.0
C956 C 0.77501 0.02872 0.95296 0.0
C957 C 0.72623 0.97541 0.99237 0.0
C958 C 0.73133 0.97417 0.02899 0.0
C959 C 0.71918 0.93958 0.04704 0.0
C960 C 0.70108 0.90532 0.02723 0.0
C961 C 0.695 0.90575 0.9897 0.0
C962 C 0.70799 0.94144 0.97219 0.0
H963 H 0.75815 0.70225 0.26053 0.0
H964 H 0.79042 0.67378 0.36248 0.0
H965 H 0.76291 0.70767 0.39476 0.0
H966 H 0.77785 0.79742 0.28618 0.0
H967 H 0.73726 0.79411 0.2623 0.0
H968 H 0.7599 0.76783 0.24658 0.0
H969 H 0.69438 0.70445 0.24938 0.0
H970 H 0.67162 0.73062 0.26504 0.0
H971 H 0.6675 0.69078 0.29089 0.0
H972 H 0.73104 0.74306 0.41656 0.0
H973 H 0.69719 0.77929 0.42645 0.0
H974 H 0.685 0.78564 0.31111 0.0
C975 C 0.75935 0.7032 0.2896 0.0
C976 C 0.77696 0.68576 0.30888 0.0
C977 C 0.77797 0.68764 0.34699 0.0
C978 C 0.76213 0.7066 0.36567 0.0
C979 C 0.74531 0.72371 0.34597 0.0
C980 C 0.74379 0.72233 0.30882 0.0
C981 C 0.72387 0.74323 0.29445 0.0
C982 C 0.75137 0.7777 0.27099 0.0
C983 C 0.68716 0.71562 0.27372 0.0
C984 C 0.71441 0.7563 0.32936 0.0
C985 C 0.72699 0.74458 0.35869 0.0
C986 C 0.72107 0.75248 0.39383 0.0
C987 C 0.70166 0.7729 0.3992 0.0
C988 C 0.68852 0.78535 0.36962 0.0
C989 C 0.69519 0.77699 0.33424 0.0
H990 H 0.05992 0.77298 0.6155 0.0
H991 H 0.12379 0.80158 0.71554 0.0
H992 H 0.0629 0.77328 0.74966 0.0
H993 H 0.98351 0.79059 0.64531 0.0
H994 H 0.94675 0.75021 0.62082 0.0
H995 H 0.99555 0.77482 0.60446 0.0
H996 H 0.99529 0.71051 0.60377 0.0
H997 H 0.94703 0.68518 0.62122 0.0
H998 H 0.98493 0.6828 0.64459 0.0
H999 H 0.99426 0.73605 0.7729 0.0
H1000 H 0.92394 0.69551 0.78278 0.0
H1001 H 0.90515 0.69537 0.66815 0.0
C1002 C 0.06114 0.77355 0.64457 0.0
C1003 C 0.09683 0.78978 0.66274 0.0
C1004 C 0.097 0.78993 0.7009 0.0
C1005 C 0.06247 0.77375 0.72057 0.0
C1006 C 0.02782 0.75781 0.70181 0.0
C1007 C 0.02694 0.7579 0.66464 0.0
C1008 C 0.98589 0.73754 0.65094 0.0
C1009 C 0.97744 0.76494 0.62909 0.0
C1010 C 0.97781 0.70193 0.62882 0.0
C1011 C 0.9638 0.72621 0.68615 0.0
C1012 C 0.98847 0.73772 0.71522 0.0
C1013 C 0.97469 0.72756 0.75034 0.0
C1014 C 0.93478 0.70463 0.75576 0.0
C1015 C 0.90897 0.69268 0.72637 0.0
C1016 C 0.92388 0.70447 0.69124 0.0
H1017 H 0.31129 0.05688 0.92784 0.0
H1018 H 0.30949 0.12194 0.02021 0.0
H1019 H 0.2757 0.06259 0.0555 0.0
H1020 H 0.21622 0.97247 0.94387 0.0
H1021 H 0.23078 0.93871 0.92987 0.0
H1022 H 0.25379 0.98635 0.91082 0.0
H1023 H 0.32023 0.99686 0.93051 0.0
H1024 H 0.29736 0.94931 0.94964 0.0
H1025 H 0.32813 0.99031 0.97706 0.0
H1026 H 0.24572 0.99737 0.08245 0.0
H1027 H 0.21819 0.92886 0.09833 0.0
H1028 H 0.23695 0.90421 0.98908 0.0
C1029 C 0.30341 0.05846 0.95537 0.0
C1030 C 0.31266 0.0942 0.97093 0.0
C1031 C 0.30205 0.09507 0.0072 0.0
C1032 C 0.28303 0.06142 0.02769 0.0
C1033 C 0.27441 0.02681 0.01164 0.0
C1034 C 0.2839 0.02487 0.97626 0.0
C1035 C 0.27151 0.98371 0.96595 0.0
C1036 C 0.24127 0.96947 0.93584 0.0
C1037 C 0.30639 0.97983 0.95516 0.0
C1038 C 0.25407 0.96313 0.00119 0.0
C1039 C 0.25624 0.98867 0.02717 0.0
C1040 C 0.24353 0.97699 0.06227 0.0
C1041 C 0.22812 0.93811 0.07111 0.0
C1042 C 0.22523 0.91126 0.04495 0.0
C1043 C 0.23822 0.92402 0.00946 0.0
H1044 H 0.46683 0.71459 0.29764 0.0
H1045 H 0.44584 0.75941 0.39625 0.0
H1046 H 0.38045 0.70365 0.39901 0.0
H1047 H 0.37196 0.67125 0.26054 0.0
H1048 H 0.37277 0.62945 0.24422 0.0
H1049 H 0.41696 0.67464 0.2481 0.0
H1050 H 0.44559 0.64259 0.28847 0.0
H1051 H 0.40159 0.59728 0.28454 0.0
H1052 H 0.41998 0.61703 0.32836 0.0
H1053 H 0.3167 0.6426 0.3909 0.0
H1054 H 0.2619 0.57939 0.37515 0.0
H1055 H 0.3285 0.57071 0.28706 0.0
C1056 C 0.44887 0.71283 0.3201 0.0
C1057 C 0.46192 0.74213 0.34646 0.0
C1058 C 0.43665 0.73831 0.37498 0.0
C1059 C 0.39938 0.70642 0.37704 0.0
C1060 C 0.38779 0.67814 0.35076 0.0
C1061 C 0.41198 0.68082 0.3231 0.0
C1062 C 0.39344 0.64544 0.29948 0.0
C1063 C 0.38849 0.65583 0.2608 0.0
C1064 C 0.41652 0.62434 0.30028 0.0
C1065 C 0.355 0.62243 0.3182 0.0
C1066 C 0.35207 0.64198 0.34741 0.0
C1067 C 0.31886 0.62679 0.36834 0.0
C1068 C 0.28793 0.59053 0.35931 0.0
C1069 C 0.29056 0.56935 0.32997 0.0
C1070 C 0.32484 0.58591 0.30931 0.0
H1071 H 0.75448 0.4393 0.635 0.0
H1072 H 0.71895 0.4307 0.74651 0.0
H1073 H 0.71119 0.3659 0.75026 0.0
H1074 H 0.68962 0.33861 0.61203 0.0
H1075 H 0.7242 0.33577 0.58319 0.0
H1076 H 0.72525 0.38082 0.58861 0.0
H1077 H 0.79653 0.41332 0.60856 0.0
H1078 H 0.79575 0.36845 0.60308 0.0
H1079 H 0.80964 0.39323 0.64558 0.0
H1080 H 0.71177 0.30449 0.74343 0.0
H1081 H 0.71926 0.24929 0.72586 0.0
H1082 H 0.7525 0.29632 0.61833 0.0
C1083 C 0.74499 0.42371 0.66016 0.0
C1084 C 0.73718 0.43996 0.69045 0.0
C1085 C 0.72459 0.41859 0.72285 0.0
C1086 C 0.72021 0.38183 0.72527 0.0
C1087 C 0.72822 0.36669 0.69497 0.0
C1088 C 0.74014 0.3868 0.66296 0.0
C1089 C 0.74769 0.36421 0.63469 0.0
C1090 C 0.72003 0.35426 0.60274 0.0
C1091 C 0.78991 0.38611 0.62226 0.0
C1092 C 0.73889 0.32861 0.65605 0.0
C1093 C 0.72765 0.33066 0.69076 0.0
C1094 C 0.72005 0.30229 0.71622 0.0
C1095 C 0.72442 0.27116 0.70606 0.0
C1096 C 0.73602 0.26854 0.67072 0.0
C1097 C 0.74284 0.29737 0.64529 0.0
H1098 H 0.4338 0.70157 -0.00285 0.0
H1099 H 0.51553 0.81728 0.03289 0.0
H1100 H 0.46232 0.82645 0.05188 0.0
H1101 H 0.3677 0.7271 0.95922 0.0
H1102 H 0.32522 0.68289 0.97178 0.0
H1103 H 0.36975 0.68352 0.96382 0.0
H1104 H 0.36538 0.65497 0.02729 0.0
H1105 H 0.32096 0.6546 0.03556 0.0
H1106 H 0.36079 0.67924 0.0661 0.0
H1107 H 0.40171 0.82509 0.06527 0.0
H1108 H 0.33602 0.81511 0.06729 0.0
H1109 H 0.29171 0.70194 0.02038 0.0
C1110 C 0.44055 0.72881 0.00901 0.0
C1111 C 0.47921 0.75825 0.01433 0.0
C1112 C 0.48648 0.79358 0.0297 0.0
C1113 C 0.45634 0.79927 0.04043 0.0
C1114 C 0.41882 0.76964 0.03528 0.0
C1115 C 0.41064 0.73525 0.01957 0.0
C1116 C 0.36749 0.70928 0.01503 0.0
C1117 C 0.35693 0.70017 0.97509 0.0
C1118 C 0.3528 0.67233 0.03733 0.0
C1119 C 0.35297 0.7348 0.03018 0.0
C1120 C 0.38323 0.76926 0.04211 0.0
C1121 C 0.37771 0.79821 0.05612 0.0
C1122 C 0.34034 0.7923 0.05712 0.0
C1123 C 0.3089 0.75783 0.04397 0.0
C1124 C 0.3152 0.72833 0.03106 0.0
H1125 H 0.56362 0.2901 0.3013 0.0
H1126 H 0.5448 0.29708 0.41535 0.0
H1127 H 0.60669 0.35772 0.4192 0.0
H1128 H 0.66636 0.32794 0.30698 0.0
H1129 H 0.67681 0.35449 0.26543 0.0
H1130 H 0.63111 0.31125 0.27149 0.0
H1131 H 0.59584 0.3488 0.25706 0.0
H1132 H 0.64143 0.39213 0.25093 0.0
H1133 H 0.60702 0.39119 0.28267 0.0
H1134 H 0.66907 0.41824 0.41063 0.0
H1135 H 0.72884 0.47494 0.39048 0.0
H1136 H 0.70924 0.42832 0.28215 0.0
C1137 C 0.57252 0.30449 0.32703 0.0
C1138 C 0.54947 0.28872 0.35809 0.0
C1139 C 0.56223 0.30827 0.39134 0.0
C1140 C 0.59725 0.34284 0.39376 0.0
C1141 C 0.61932 0.35749 0.36274 0.0
C1142 C 0.60761 0.33899 0.33 0.0
C1143 C 0.63692 0.36112 0.30082 0.0
C1144 C 0.6538 0.33727 0.28527 0.0
C1145 C 0.61924 0.37408 0.27112 0.0
C1146 C 0.66672 0.39508 0.32227 0.0
C1147 C 0.65591 0.39232 0.35791 0.0
C1148 C 0.67812 0.42053 0.38288 0.0
C1149 C 0.7123 0.45253 0.37115 0.0
C1150 C 0.72432 0.45613 0.33474 0.0
C1151 C 0.70103 0.42674 0.3101 0.0
H1152 H 0.24783 0.69555 0.6037 0.0
H1153 H 0.31804 0.76653 0.69161 0.0
H1154 H 0.33502 0.7171 0.70765 0.0
H1155 H 0.2089 0.60729 0.65052 0.0
H1156 H 0.20852 0.57937 0.61246 0.0
H1157 H 0.20494 0.62179 0.60557 0.0
H1158 H 0.2642 0.64964 0.56328 0.0
H1159 H 0.2679 0.6072 0.56999 0.0
H1160 H 0.30859 0.65397 0.5792 0.0
H1161 H 0.3413 0.65881 0.71634 0.0
H1162 H 0.33596 0.59497 0.71778 0.0
H1163 H 0.25995 0.5603 0.62533 0.0
C1164 C 0.26739 0.7008 0.6258 0.0
C1165 C 0.28222 0.73486 0.64621 0.0
C1166 C 0.3069 0.74067 0.67554 0.0
C1167 C 0.31665 0.71281 0.68479 0.0
C1168 C 0.30128 0.67923 0.66449 0.0
C1169 C 0.27719 0.67305 0.63559 0.0
C1170 C 0.26277 0.63339 0.61973 0.0
C1171 C 0.21867 0.60903 0.62224 0.0
C1172 C 0.27671 0.63624 0.58073 0.0
C1173 C 0.28206 0.61814 0.64452 0.0
C1174 C 0.30437 0.64518 0.66995 0.0
C1175 C 0.32403 0.63742 0.69647 0.0
C1176 C 0.32059 0.60095 0.69723 0.0
C1177 C 0.29747 0.57248 0.67176 0.0
C1178 C 0.2783 0.58154 0.64487 0.0
H1179 H 0.57898 0.29811 0.95875 0.0
H1180 H 0.50437 0.22333 0.04325 0.0
H1181 H 0.55497 0.2095 0.06225 0.0
H1182 H 0.62287 0.24201 0.93565 0.0
H1183 H 0.67011 0.28289 0.92844 0.0
H1184 H 0.62808 0.2872 0.92123 0.0
H1185 H 0.65429 0.34418 0.96593 0.0
H1186 H 0.69645 0.3401 0.9732 0.0
H1187 H 0.66715 0.33799 0.01086 0.0
H1188 H 0.612 0.20143 0.07071 0.0
H1189 H 0.67458 0.20325 0.07057 0.0
H1190 H 0.71399 0.28531 0.98287 0.0
C1191 C 0.57346 0.27891 0.98125 0.0
C1192 C 0.5379 0.26195 -0.00031 0.0
C1193 C 0.53164 0.23704 0.0291 0.0
C1194 C 0.56009 0.22882 0.03996 0.0
C1195 C 0.59481 0.24595 0.02132 0.0
C1196 C 0.60186 0.27076 0.99283 0.0
C1197 C 0.64207 0.28576 0.97794 0.0
C1198 C 0.64068 0.27373 0.93847 0.0
C1199 C 0.66643 0.32961 0.98226 0.0
C1200 C 0.65627 0.26523 0.00233 0.0
C1201 C 0.62838 0.24219 0.02698 0.0
C1202 C 0.6342 0.21956 0.05175 0.0
C1203 C 0.66963 0.22067 0.05147 0.0
C1204 C 0.6987 0.2445 0.02687 0.0
C1205 C 0.69205 0.26709 0.00204 0.0
loop_
_geom_bond_atom_site_label_1
_geom_bond_atom_site_label_2
_geom_bond_distance
_geom_bond_site_symmetry_2
_ccdc_geom_bond_type
Co0 N4 2.148 . S
Co0 N10 2.128 . S
Co0 N20 2.194 . S
Co0 O25 2.351 . S
Co0 O26 2.155 . S
Co0 O27 2.096 . S
C1 N4 1.301 . S
C1 N5 1.328 . S
C1 H6 0.930 . S
C2 C3 1.333 . S
C2 N4 1.317 . S
C2 H7 0.930 . S
C3 C2 1.333 . S
C3 N5 1.350 . S
C3 H29 0.931 . S
N4 Co0 2.148 . S
N4 C1 1.301 . S
N4 C2 1.317 . S
N5 C1 1.328 . S
N5 C3 1.350 . S
H6 C1 0.930 . S
H7 C2 0.930 . S
C8 O9 1.224 . S
C8 O27 1.247 . S
O9 C8 1.224 . S
N10 Co0 2.128 . S
N10 C11 1.355 . S
N10 C13 1.311 . S
C11 N10 1.355 . S
C11 C12 1.363 . S
C11 H23 0.929 . S
C12 C11 1.363 . S
C12 N14 1.375 . S
C12 H30 0.931 . S
C13 N10 1.311 . S
C13 N14 1.347 . S
C13 H24 0.929 . S
N14 C12 1.375 . S
N14 C13 1.347 . S
C15 C18 1.365 . S
C15 N20 1.328 . S
C15 H21 0.929 . S
C16 C17 1.362 . S
C16 C19 1.378 . S
C16 H31 0.929 . S
C17 C16 1.362 . S
C17 C18 1.366 . S
C18 C15 1.365 . S
C18 C17 1.366 . S
C18 H32 0.930 . S
C19 C16 1.378 . S
C19 N20 1.315 . S
C19 H22 0.930 . S
N20 Co0 2.194 . S
N20 C15 1.328 . S
N20 C19 1.315 . S
H21 C15 0.929 . S
H22 C19 0.930 . S
H23 C11 0.929 . S
H24 C13 0.929 . S
O25 Co0 2.351 . S
O25 C28 1.244 . S
O26 Co0 2.155 . S
O26 C28 1.240 . S
O27 Co0 2.096 . S
O27 C8 1.247 . S
C28 O25 1.244 . S
C28 O26 1.240 . S
H29 C3 0.931 . S
H30 C12 0.931 . S
H31 C16 0.929 . S
H32 C18 0.930 . S
Co33 N37 2.148 . S
Co33 N43 2.128 . S
Co33 N53 2.194 . S
Co33 O58 2.351 . S
Co33 O59 2.155 . S
Co33 O60 2.096 . S
C34 N37 1.301 . S
C34 N38 1.328 . S
C34 H39 0.930 . S
C35 C36 1.333 . S
C35 N37 1.317 . S
C35 H40 0.930 . S
C36 C35 1.333 . S
C36 N38 1.350 . S
C36 H62 0.931 . S
N37 Co33 2.148 . S
N37 C34 1.301 . S
N37 C35 1.317 . S
N38 C34 1.328 . S
N38 C36 1.350 . S
H39 C34 0.930 . S
H40 C35 0.930 . S
C41 O42 1.224 . S
C41 O60 1.247 . S
O42 C41 1.224 . S
N43 Co33 2.128 . S
N43 C44 1.355 . S
N43 C46 1.311 . S
C44 N43 1.355 . S
C44 C45 1.363 . S
C44 H56 0.929 . S
C45 C44 1.363 . S
C45 N47 1.375 . S
C45 H63 0.931 . S
C46 N43 1.311 . S
C46 N47 1.347 . S
C46 H57 0.929 . S
N47 C45 1.375 . S
N47 C46 1.347 . S
C48 C51 1.365 . S
C48 N53 1.328 . S
C48 H54 0.929 . S
C49 C50 1.362 . S
C49 C52 1.378 . S
C49 H64 0.929 . S
C50 C49 1.362 . S
C50 C51 1.366 . S
C51 C48 1.365 . S
C51 C50 1.366 . S
C51 H65 0.930 . S
C52 C49 1.378 . S
C52 N53 1.315 . S
C52 H55 0.930 . S
N53 Co33 2.194 . S
N53 C48 1.328 . S
N53 C52 1.315 . S
H54 C48 0.929 . S
H55 C52 0.930 . S
H56 C44 0.929 . S
H57 C46 0.929 . S
O58 Co33 2.351 . S
O58 C61 1.244 . S
O59 Co33 2.155 . S
O59 C61 1.240 . S
O60 Co33 2.096 . S
O60 C41 1.247 . S
C61 O58 1.244 . S
C61 O59 1.240 . S
H62 C36 0.931 . S
H63 C45 0.931 . S
H64 C49 0.929 . S
H65 C51 0.930 . S
Co66 N70 2.148 . S
Co66 N76 2.128 1_554 S
Co66 N86 2.194 1_554 S
Co66 O91 2.351 1_554 S
Co66 O92 2.155 1_554 S
Co66 O93 2.096 . S
C67 N70 1.301 1_556 S
C67 N71 1.328 1_556 S
C67 H72 0.930 . S
C68 C69 1.333 . S
C68 N70 1.317 . S
C68 H73 0.930 . S
C69 C68 1.333 . S
C69 N71 1.350 . S
C69 H95 0.931 . S
N70 Co66 2.148 . S
N70 C67 1.301 1_554 S
N70 C68 1.317 . S
N71 C67 1.328 1_554 S
N71 C69 1.350 . S
H72 C67 0.930 . S
H73 C68 0.930 . S
C74 O75 1.224 . S
C74 O93 1.247 . S
O75 C74 1.224 . S
N76 Co66 2.128 1_556 S
N76 C77 1.355 . S
N76 C79 1.311 1_556 S
C77 N76 1.355 . S
C77 C78 1.363 . S
C77 H89 0.929 . S
C78 C77 1.363 . S
C78 N80 1.375 . S
C78 H96 0.931 . S
C79 N76 1.311 1_554 S
C79 N80 1.347 1_554 S
C79 H90 0.929 . S
N80 C78 1.375 . S
N80 C79 1.347 1_556 S
C81 C84 1.365 . S
C81 N86 1.328 . S
C81 H87 0.929 . S
C82 C83 1.362 1_554 S
C82 C85 1.378 . S
C82 H97 0.929 . S
C83 C82 1.362 1_556 S
C83 C84 1.366 . S
C84 C81 1.365 . S
C84 C83 1.366 . S
C84 H98 0.930 . S
C85 C82 1.378 . S
C85 N86 1.315 1_554 S
C85 H88 0.930 . S
N86 Co66 2.194 1_556 S
N86 C81 1.328 . S
N86 C85 1.315 1_556 S
H87 C81 0.929 . S
H88 C85 0.930 . S
H89 C77 0.929 . S
H90 C79 0.929 . S
O91 Co66 2.351 1_556 S
O91 C94 1.244 . S
O92 Co66 2.155 1_556 S
O92 C94 1.240 . S
O93 Co66 2.096 . S
O93 C74 1.247 . S
C94 O91 1.244 . S
C94 O92 1.240 . S
H95 C69 0.931 . S
H96 C78 0.931 . S
H97 C82 0.929 . S
H98 C84 0.930 . S
Co99 N103 2.148 . S
Co99 N109 2.128 . S
Co99 N119 2.194 . S
Co99 O124 2.351 . S
Co99 O125 2.155 . S
Co99 O126 2.096 . S
C100 N103 1.301 . S
C100 N104 1.328 . S
C100 H105 0.930 . S
C101 C102 1.333 . S
C101 N103 1.317 . S
C101 H106 0.930 . S
C102 C101 1.333 . S
C102 N104 1.350 . S
C102 H128 0.931 . S
N103 Co99 2.148 . S
N103 C100 1.301 . S
N103 C101 1.317 . S
N104 C100 1.328 . S
N104 C102 1.350 . S
H105 C100 0.930 . S
H106 C101 0.930 . S
C107 O108 1.224 . S
C107 O126 1.247 . S
O108 C107 1.224 . S
N109 Co99 2.128 . S
N109 C110 1.355 . S
N109 C112 1.311 . S
C110 N109 1.355 . S
C110 C111 1.363 . S
C110 H122 0.929 . S
C111 C110 1.363 . S
C111 N113 1.375 . S
C111 H129 0.931 . S
C112 N109 1.311 . S
C112 N113 1.347 . S
C112 H123 0.929 . S
N113 C111 1.375 . S
N113 C112 1.347 . S
C114 C117 1.365 . S
C114 N119 1.328 . S
C114 H120 0.929 . S
C115 C116 1.362 . S
C115 C118 1.378 . S
C115 H130 0.929 . S
C116 C115 1.362 . S
C116 C117 1.366 . S
C117 C114 1.365 . S
C117 C116 1.366 . S
C117 H131 0.930 . S
C118 C115 1.378 . S
C118 N119 1.315 . S
C118 H121 0.930 . S
N119 Co99 2.194 . S
N119 C114 1.328 . S
N119 C118 1.315 . S
H120 C114 0.929 . S
H121 C118 0.930 . S
H122 C110 0.929 . S
H123 C112 0.929 . S
O124 Co99 2.351 . S
O124 C127 1.244 . S
O125 Co99 2.155 . S
O125 C127 1.240 . S
O126 Co99 2.096 . S
O126 C107 1.247 . S
C127 O124 1.244 . S
C127 O125 1.240 . S
H128 C102 0.931 . S
H129 C111 0.931 . S
H130 C115 0.929 . S
H131 C117 0.930 . S
Co132 N136 2.148 . S
Co132 N142 2.128 . S
Co132 N152 2.194 . S
Co132 O157 2.351 . S
Co132 O158 2.155 . S
Co132 O159 2.096 . S
C133 N136 1.301 . S
C133 N137 1.328 . S
C133 H138 0.930 . S
C134 C135 1.333 . S
C134 N136 1.317 . S
C134 H139 0.930 . S
C135 C134 1.333 . S
C135 N137 1.350 . S
C135 H161 0.931 . S
N136 Co132 2.148 . S
N136 C133 1.301 . S
N136 C134 1.317 . S
N137 C133 1.328 . S
N137 C135 1.350 . S
H138 C133 0.930 . S
H139 C134 0.930 . S
C140 O141 1.224 . S
C140 O159 1.247 . S
O141 C140 1.224 . S
N142 Co132 2.128 . S
N142 C143 1.355 . S
N142 C145 1.311 . S
C143 N142 1.355 . S
C143 C144 1.363 . S
C143 H155 0.929 . S
C144 C143 1.363 . S
C144 N146 1.375 . S
C144 H162 0.931 . S
C145 N142 1.311 . S
C145 N146 1.347 . S
C145 H156 0.929 . S
N146 C144 1.375 . S
N146 C145 1.347 . S
C147 C150 1.365 . S
C147 N152 1.328 . S
C147 H153 0.929 . S
C148 C149 1.362 . S
C148 C151 1.378 . S
C148 H163 0.929 . S
C149 C148 1.362 . S
C149 C150 1.366 . S
C150 C147 1.365 . S
C150 C149 1.366 . S
C150 H164 0.930 . S
C151 C148 1.378 . S
C151 N152 1.315 . S
C151 H154 0.930 . S
N152 Co132 2.194 . S
N152 C147 1.328 . S
N152 C151 1.315 . S
H153 C147 0.929 . S
H154 C151 0.930 . S
H155 C143 0.929 . S
H156 C145 0.929 . S
O157 Co132 2.351 . S
O157 C160 1.244 . S
O158 Co132 2.155 . S
O158 C160 1.240 . S
O159 Co132 2.096 . S
O159 C140 1.247 . S
C160 O157 1.244 . S
C160 O158 1.240 . S
H161 C135 0.931 . S
H162 C144 0.931 . S
H163 C148 0.929 . S
H164 C150 0.930 . S
Co165 N169 2.148 . S
Co165 N175 2.128 1_554 S
Co165 N185 2.194 1_554 S
Co165 O190 2.351 1_554 S
Co165 O191 2.155 1_554 S
Co165 O192 2.096 . S
C166 N169 1.301 1_556 S
C166 N170 1.328 1_556 S
C166 H171 0.930 . S
C167 C168 1.333 . S
C167 N169 1.317 . S
C167 H172 0.930 . S
C168 C167 1.333 . S
C168 N170 1.350 . S
C168 H194 0.931 . S
N169 Co165 2.148 . S
N169 C166 1.301 1_554 S
N169 C167 1.317 . S
N170 C166 1.328 1_554 S
N170 C168 1.350 . S
H171 C166 0.930 . S
H172 C167 0.930 . S
C173 O174 1.224 . S
C173 O192 1.247 . S
O174 C173 1.224 . S
N175 Co165 2.128 1_556 S
N175 C176 1.355 . S
N175 C178 1.311 1_556 S
C176 N175 1.355 . S
C176 C177 1.363 . S
C176 H188 0.929 . S
C177 C176 1.363 . S
C177 N179 1.375 . S
C177 H195 0.931 . S
C178 N175 1.311 1_554 S
C178 N179 1.347 1_554 S
C178 H189 0.929 . S
N179 C177 1.375 . S
N179 C178 1.347 1_556 S
C180 C183 1.365 . S
C180 N185 1.328 . S
C180 H186 0.929 . S
C181 C182 1.362 1_554 S
C181 C184 1.378 . S
C181 H196 0.929 . S
C182 C181 1.362 1_556 S
C182 C183 1.366 . S
C183 C180 1.365 . S
C183 C182 1.366 . S
C183 H197 0.930 . S
C184 C181 1.378 . S
C184 N185 1.315 1_554 S
C184 H187 0.930 . S
N185 Co165 2.194 1_556 S
N185 C180 1.328 . S
N185 C184 1.315 1_556 S
H186 C180 0.929 . S
H187 C184 0.930 . S
H188 C176 0.929 . S
H189 C178 0.929 . S
O190 Co165 2.351 1_556 S
O190 C193 1.244 . S
O191 Co165 2.155 1_556 S
O191 C193 1.240 . S
O192 Co165 2.096 . S
O192 C173 1.247 . S
C193 O190 1.244 . S
C193 O191 1.240 . S
H194 C168 0.931 . S
H195 C177 0.931 . S
H196 C181 0.929 . S
H197 C183 0.930 . S
Co198 N202 2.148 . S
Co198 N208 2.128 . S
Co198 N218 2.194 . S
Co198 O223 2.351 . S
Co198 O224 2.155 . S
Co198 O225 2.096 . S
C199 N202 1.301 . S
C199 N203 1.328 . S
C199 H204 0.930 . S
C200 C201 1.333 . S
C200 N202 1.317 . S
C200 H205 0.930 . S
C201 C200 1.333 . S
C201 N203 1.350 . S
C201 H227 0.931 . S
N202 Co198 2.148 . S
N202 C199 1.301 . S
N202 C200 1.317 . S
N203 C199 1.328 . S
N203 C201 1.350 . S
H204 C199 0.930 . S
H205 C200 0.930 . S
C206 O207 1.224 . S
C206 O225 1.247 . S
O207 C206 1.224 . S
N208 Co198 2.128 . S
N208 C209 1.355 . S
N208 C211 1.311 . S
C209 N208 1.355 . S
C209 C210 1.363 . S
C209 H221 0.929 . S
C210 C209 1.363 . S
C210 N212 1.375 . S
C210 H228 0.931 . S
C211 N208 1.311 . S
C211 N212 1.347 . S
C211 H222 0.929 . S
N212 C210 1.375 . S
N212 C211 1.347 . S
C213 C216 1.365 . S
C213 N218 1.328 . S
C213 H219 0.929 . S
C214 C215 1.362 . S
C214 C217 1.378 . S
C214 H229 0.929 . S
C215 C214 1.362 . S
C215 C216 1.366 . S
C216 C213 1.365 . S
C216 C215 1.366 . S
C216 H230 0.930 . S
C217 C214 1.378 . S
C217 N218 1.315 . S
C217 H220 0.930 . S
N218 Co198 2.194 . S
N218 C213 1.328 . S
N218 C217 1.315 . S
H219 C213 0.929 . S
H220 C217 0.930 . S
H221 C209 0.929 . S
H222 C211 0.929 . S
O223 Co198 2.351 . S
O223 C226 1.244 . S
O224 Co198 2.155 . S
O224 C226 1.240 . S
O225 Co198 2.096 . S
O225 C206 1.247 . S
C226 O223 1.244 . S
C226 O224 1.240 . S
H227 C201 0.931 . S
H228 C210 0.931 . S
H229 C214 0.929 . S
H230 C216 0.930 . S
Co231 N235 2.148 . S
Co231 N241 2.128 . S
Co231 N251 2.194 . S
Co231 O256 2.351 . S
Co231 O257 2.155 . S
Co231 O258 2.096 . S
C232 N235 1.301 . S
C232 N236 1.328 . S
C232 H237 0.930 . S
C233 C234 1.333 . S
C233 N235 1.317 . S
C233 H238 0.930 . S
C234 C233 1.333 . S
C234 N236 1.350 . S
C234 H260 0.931 . S
N235 Co231 2.148 . S
N235 C232 1.301 . S
N235 C233 1.317 . S
N236 C232 1.328 . S
N236 C234 1.350 . S
H237 C232 0.930 . S
H238 C233 0.930 . S
C239 O240 1.224 . S
C239 O258 1.247 . S
O240 C239 1.224 . S
N241 Co231 2.128 . S
N241 C242 1.355 . S
N241 C244 1.311 . S
C242 N241 1.355 . S
C242 C243 1.363 . S
C242 H254 0.929 . S
C243 C242 1.363 . S
C243 N245 1.375 . S
C243 H261 0.931 . S
C244 N241 1.311 . S
C244 N245 1.347 . S
C244 H255 0.929 . S
N245 C243 1.375 . S
N245 C244 1.347 . S
C246 C249 1.365 . S
C246 N251 1.328 . S
C246 H252 0.929 . S
C247 C248 1.362 . S
C247 C250 1.378 . S
C247 H262 0.929 . S
C248 C247 1.362 . S
C248 C249 1.366 . S
C249 C246 1.365 . S
C249 C248 1.366 . S
C249 H263 0.930 . S
C250 C247 1.378 . S
C250 N251 1.315 . S
C250 H253 0.930 . S
N251 Co231 2.194 . S
N251 C246 1.328 . S
N251 C250 1.315 . S
H252 C246 0.929 . S
H253 C250 0.930 . S
H254 C242 0.929 . S
H255 C244 0.929 . S
O256 Co231 2.351 . S
O256 C259 1.244 . S
O257 Co231 2.155 . S
O257 C259 1.240 . S
O258 Co231 2.096 . S
O258 C239 1.247 . S
C259 O256 1.244 . S
C259 O257 1.240 . S
H260 C234 0.931 . S
H261 C243 0.931 . S
H262 C247 0.929 . S
H263 C249 0.930 . S
Co264 N268 2.148 . S
Co264 N274 2.128 1_556 S
Co264 N284 2.194 1_556 S
Co264 O289 2.351 1_556 S
Co264 O290 2.155 1_556 S
Co264 O291 2.096 . S
C265 N268 1.301 1_554 S
C265 N269 1.328 1_554 S
C265 H270 0.930 . S
C266 C267 1.333 . S
C266 N268 1.317 . S
C266 H271 0.930 . S
C267 C266 1.333 . S
C267 N269 1.350 . S
C267 H293 0.931 . S
N268 Co264 2.148 . S
N268 C265 1.301 1_556 S
N268 C266 1.317 . S
N269 C265 1.328 1_556 S
N269 C267 1.350 . S
H270 C265 0.930 . S
H271 C266 0.930 . S
C272 O273 1.224 . S
C272 O291 1.247 . S
O273 C272 1.224 . S
N274 Co264 2.128 1_554 S
N274 C275 1.355 . S
N274 C277 1.311 1_554 S
C275 N274 1.355 . S
C275 C276 1.363 . S
C275 H287 0.929 . S
C276 C275 1.363 . S
C276 N278 1.375 . S
C276 H294 0.931 . S
C277 N274 1.311 1_556 S
C277 N278 1.347 1_556 S
C277 H288 0.929 . S
N278 C276 1.375 . S
N278 C277 1.347 1_554 S
C279 C282 1.365 . S
C279 N284 1.328 . S
C279 H285 0.929 . S
C280 C281 1.362 1_556 S
C280 C283 1.378 . S
C280 H295 0.929 . S
C281 C280 1.362 1_554 S
C281 C282 1.366 . S
C282 C279 1.365 . S
C282 C281 1.366 . S
C282 H296 0.930 . S
C283 C280 1.378 . S
C283 N284 1.315 1_556 S
C283 H286 0.930 . S
N284 Co264 2.194 1_554 S
N284 C279 1.328 . S
N284 C283 1.315 1_554 S
H285 C279 0.929 . S
H286 C283 0.930 . S
H287 C275 0.929 . S
H288 C277 0.929 . S
O289 Co264 2.351 1_554 S
O289 C292 1.244 . S
O290 Co264 2.155 1_554 S
O290 C292 1.240 . S
O291 Co264 2.096 . S
O291 C272 1.247 . S
C292 O289 1.244 . S
C292 O290 1.240 . S
H293 C267 0.931 . S
H294 C276 0.931 . S
H295 C280 0.929 . S
H296 C282 0.930 . S
Co297 N301 2.148 . S
Co297 N307 2.128 . S
Co297 N317 2.194 . S
Co297 O322 2.351 . S
Co297 O323 2.155 . S
Co297 O324 2.096 . S
C298 N301 1.301 . S
C298 N302 1.328 . S
C298 H303 0.930 . S
C299 C300 1.333 . S
C299 N301 1.317 . S
C299 H304 0.930 . S
C300 C299 1.333 . S
C300 N302 1.350 . S
C300 H326 0.931 . S
N301 Co297 2.148 . S
N301 C298 1.301 . S
N301 C299 1.317 . S
N302 C298 1.328 . S
N302 C300 1.350 . S
H303 C298 0.930 . S
H304 C299 0.930 . S
C305 O306 1.224 . S
C305 O324 1.247 . S
O306 C305 1.224 . S
N307 Co297 2.128 . S
N307 C308 1.355 . S
N307 C310 1.311 . S
C308 N307 1.355 . S
C308 C309 1.363 . S
C308 H320 0.929 . S
C309 C308 1.363 . S
C309 N311 1.375 . S
C309 H327 0.931 . S
C310 N307 1.311 . S
C310 N311 1.347 . S
C310 H321 0.929 . S
N311 C309 1.375 . S
N311 C310 1.347 . S
C312 C315 1.365 . S
C312 N317 1.328 . S
C312 H318 0.929 . S
C313 C314 1.362 . S
C313 C316 1.378 . S
C313 H328 0.929 . S
C314 C313 1.362 . S
C314 C315 1.366 . S
C315 C312 1.365 . S
C315 C314 1.366 . S
C315 H329 0.930 . S
C316 C313 1.378 . S
C316 N317 1.315 . S
C316 H319 0.930 . S
N317 Co297 2.194 . S
N317 C312 1.328 . S
N317 C316 1.315 . S
H318 C312 0.929 . S
H319 C316 0.930 . S
H320 C308 0.929 . S
H321 C310 0.929 . S
O322 Co297 2.351 . S
O322 C325 1.244 . S
O323 Co297 2.155 . S
O323 C325 1.240 . S
O324 Co297 2.096 . S
O324 C305 1.247 . S
C325 O322 1.244 . S
C325 O323 1.240 . S
H326 C300 0.931 . S
H327 C309 0.931 . S
H328 C313 0.929 . S
H329 C315 0.930 . S
Co330 N334 2.148 . S
Co330 N340 2.128 . S
Co330 N350 2.194 . S
Co330 O355 2.351 . S
Co330 O356 2.155 . S
Co330 O357 2.096 . S
C331 N334 1.301 . S
C331 N335 1.328 . S
C331 H336 0.930 . S
C332 C333 1.333 . S
C332 N334 1.317 . S
C332 H337 0.930 . S
C333 C332 1.333 . S
C333 N335 1.350 . S
C333 H359 0.931 . S
N334 Co330 2.148 . S
N334 C331 1.301 . S
N334 C332 1.317 . S
N335 C331 1.328 . S
N335 C333 1.350 . S
H336 C331 0.930 . S
H337 C332 0.930 . S
C338 O339 1.224 . S
C338 O357 1.247 . S
O339 C338 1.224 . S
N340 Co330 2.128 . S
N340 C341 1.355 . S
N340 C343 1.311 . S
C341 N340 1.355 . S
C341 C342 1.363 . S
C341 H353 0.929 . S
C342 C341 1.363 . S
C342 N344 1.375 . S
C342 H360 0.931 . S
C343 N340 1.311 . S
C343 N344 1.347 . S
C343 H354 0.929 . S
N344 C342 1.375 . S
N344 C343 1.347 . S
C345 C348 1.365 . S
C345 N350 1.328 . S
C345 H351 0.929 . S
C346 C347 1.362 . S
C346 C349 1.378 . S
C346 H361 0.929 . S
C347 C346 1.362 . S
C347 C348 1.366 . S
C348 C345 1.365 . S
C348 C347 1.366 . S
C348 H362 0.930 . S
C349 C346 1.378 . S
C349 N350 1.315 . S
C349 H352 0.930 . S
N350 Co330 2.194 . S
N350 C345 1.328 . S
N350 C349 1.315 . S
H351 C345 0.929 . S
H352 C349 0.930 . S
H353 C341 0.929 . S
H354 C343 0.929 . S
O355 Co330 2.351 . S
O355 C358 1.244 . S
O356 Co330 2.155 . S
O356 C358 1.240 . S
O357 Co330 2.096 . S
O357 C338 1.247 . S
C358 O355 1.244 . S
C358 O356 1.240 . S
H359 C333 0.931 . S
H360 C342 0.931 . S
H361 C346 0.929 . S
H362 C348 0.930 . S
Co363 N367 2.148 . S
Co363 N373 2.128 1_556 S
Co363 N383 2.194 1_556 S
Co363 O388 2.351 1_556 S
Co363 O389 2.155 1_556 S
Co363 O390 2.096 . S
C364 N367 1.301 1_554 S
C364 N368 1.328 1_554 S
C364 H369 0.930 . S
C365 C366 1.333 . S
C365 N367 1.317 . S
C365 H370 0.930 . S
C366 C365 1.333 . S
C366 N368 1.350 . S
C366 H392 0.931 . S
N367 Co363 2.148 . S
N367 C364 1.301 1_556 S
N367 C365 1.317 . S
N368 C364 1.328 1_556 S
N368 C366 1.350 . S
H369 C364 0.930 . S
H370 C365 0.930 . S
C371 O372 1.224 . S
C371 O390 1.247 . S
O372 C371 1.224 . S
N373 Co363 2.128 1_554 S
N373 C374 1.355 . S
N373 C376 1.311 1_554 S
C374 N373 1.355 . S
C374 C375 1.363 . S
C374 H386 0.929 . S
C375 C374 1.363 . S
C375 N377 1.375 . S
C375 H393 0.931 . S
C376 N373 1.311 1_556 S
C376 N377 1.347 1_556 S
C376 H387 0.929 . S
N377 C375 1.375 . S
N377 C376 1.347 1_554 S
C378 C381 1.365 . S
C378 N383 1.328 . S
C378 H384 0.929 . S
C379 C380 1.362 1_556 S
C379 C382 1.378 . S
C379 H394 0.929 . S
C380 C379 1.362 1_554 S
C380 C381 1.366 . S
C381 C378 1.365 . S
C381 C380 1.366 . S
C381 H395 0.930 . S
C382 C379 1.378 . S
C382 N383 1.315 1_556 S
C382 H385 0.930 . S
N383 Co363 2.194 1_554 S
N383 C378 1.328 . S
N383 C382 1.315 1_554 S
H384 C378 0.929 . S
H385 C382 0.930 . S
H386 C374 0.929 . S
H387 C376 0.929 . S
O388 Co363 2.351 1_554 S
O388 C391 1.244 . S
O389 Co363 2.155 1_554 S
O389 C391 1.240 . S
O390 Co363 2.096 . S
O390 C371 1.247 . S
C391 O388 1.244 . S
C391 O389 1.240 . S
H392 C366 0.931 . S
H393 C375 0.931 . S
H394 C379 0.929 . S
H395 C381 0.930 . S
H396 C408 0.930 . S
H397 C410 0.930 . S
H398 C411 0.930 . S
H399 C415 0.959 . S
H400 C415 0.959 . S
H401 C415 0.961 . S
H402 C416 0.960 . S
H403 C416 0.961 . S
H404 C416 0.959 . S
H405 C419 0.929 . S
H406 C420 0.931 . S
H407 C422 0.930 . S
C408 H396 0.930 . S
C408 C409 1.399 . S
C408 C413 1.399 . S
C409 C408 1.399 . S
C409 C410 1.376 . S
C410 H397 0.930 . S
C410 C409 1.376 . S
C410 C411 1.388 . S
C411 H398 0.930 . S
C411 C410 1.388 . S
C411 C412 1.390 . S
C412 C411 1.390 . S
C412 C413 1.394 . S
C412 C418 1.465 1_655 S
C413 C408 1.399 . S
C413 C412 1.394 . S
C413 C414 1.516 . S
C414 C413 1.516 . S
C414 C415 1.502 . S
C414 C416 1.561 1_655 S
C414 C417 1.526 1_655 S
C415 H399 0.959 . S
C415 H400 0.959 . S
C415 H401 0.961 . S
C415 C414 1.502 . S
C416 H402 0.960 . S
C416 H403 0.961 . S
C416 H404 0.959 . S
C416 C414 1.561 1_455 S
C417 C414 1.526 1_455 S
C417 C418 1.396 . S
C417 C422 1.390 . S
C418 C412 1.465 1_455 S
C418 C417 1.396 . S
C418 C419 1.399 . S
C419 H405 0.929 . S
C419 C418 1.399 . S
C419 C420 1.385 . S
C420 H406 0.931 . S
C420 C419 1.385 . S
C420 C421 1.389 . S
C421 C420 1.389 . S
C421 C422 1.387 . S
C422 H407 0.930 . S
C422 C417 1.390 . S
C422 C421 1.387 . S
H423 C435 0.930 . S
H424 C437 0.930 . S
H425 C438 0.930 . S
H426 C442 0.959 . S
H427 C442 0.959 . S
H428 C442 0.961 . S
H429 C443 0.960 . S
H430 C443 0.961 . S
H431 C443 0.959 . S
H432 C446 0.929 . S
H433 C447 0.931 . S
H434 C449 0.930 . S
C435 H423 0.930 . S
C435 C436 1.399 . S
C435 C440 1.399 . S
C436 C435 1.399 . S
C436 C437 1.376 . S
C437 H424 0.930 . S
C437 C436 1.376 . S
C437 C438 1.388 . S
C438 H425 0.930 . S
C438 C437 1.388 . S
C438 C439 1.390 . S
C439 C438 1.390 . S
C439 C440 1.394 . S
C439 C445 1.465 1_565 S
C440 C435 1.399 . S
C440 C439 1.394 . S
C440 C441 1.516 1_565 S
C441 C440 1.516 1_545 S
C441 C442 1.502 . S
C441 C443 1.561 . S
C441 C444 1.526 . S
C442 H426 0.959 . S
C442 H427 0.959 . S
C442 H428 0.961 . S
C442 C441 1.502 . S
C443 H429 0.960 . S
C443 H430 0.961 . S
C443 H431 0.959 . S
C443 C441 1.561 . S
C444 C441 1.526 . S
C444 C445 1.396 . S
C444 C449 1.390 . S
C445 C439 1.465 1_545 S
C445 C444 1.396 . S
C445 C446 1.399 1_545 S
C446 H432 0.929 . S
C446 C445 1.399 1_565 S
C446 C447 1.385 1_565 S
C447 H433 0.931 . S
C447 C446 1.385 1_545 S
C447 C448 1.389 . S
C448 C447 1.389 . S
C448 C449 1.387 . S
C449 H434 0.930 . S
C449 C444 1.390 . S
C449 C448 1.387 . S
H450 C462 0.930 . S
H451 C464 0.930 . S
H452 C465 0.930 . S
H453 C469 0.959 . S
H454 C469 0.959 . S
H455 C469 0.961 . S
H456 C470 0.960 . S
H457 C470 0.961 . S
H458 C470 0.959 . S
H459 C473 0.929 . S
H460 C474 0.931 . S
H461 C476 0.930 . S
C462 H450 0.930 . S
C462 C463 1.399 . S
C462 C467 1.399 . S
C463 C462 1.399 . S
C463 C464 1.376 . S
C464 H451 0.930 . S
C464 C463 1.376 . S
C464 C465 1.388 . S
C465 H452 0.930 . S
C465 C464 1.388 . S
C465 C466 1.390 . S
C466 C465 1.390 . S
C466 C467 1.394 . S
C466 C472 1.465 . S
C467 C462 1.399 . S
C467 C466 1.394 . S
C467 C468 1.516 . S
C468 C467 1.516 . S
C468 C469 1.502 . S
C468 C470 1.561 . S
C468 C471 1.526 . S
C469 H453 0.959 . S
C469 H454 0.959 . S
C469 H455 0.961 . S
C469 C468 1.502 . S
C470 H456 0.960 . S
C470 H457 0.961 . S
C470 H458 0.959 . S
C470 C468 1.561 . S
C471 C468 1.526 . S
C471 C472 1.396 . S
C471 C476 1.390 . S
C472 C466 1.465 . S
C472 C471 1.396 . S
C472 C473 1.399 . S
C473 H459 0.929 . S
C473 C472 1.399 . S
C473 C474 1.385 . S
C474 H460 0.931 . S
C474 C473 1.385 . S
C474 C475 1.389 . S
C475 C474 1.389 . S
C475 C476 1.387 . S
C476 H461 0.930 . S
C476 C471 1.390 . S
C476 C475 1.387 . S
H477 C489 0.930 . S
H478 C491 0.930 . S
H479 C492 0.930 . S
H480 C496 0.959 . S
H481 C496 0.959 . S
H482 C496 0.961 . S
H483 C497 0.960 . S
H484 C497 0.961 . S
H485 C497 0.959 . S
H486 C500 0.929 . S
H487 C501 0.931 . S
H488 C503 0.930 . S
C489 H477 0.930 . S
C489 C490 1.399 . S
C489 C494 1.399 . S
C490 C489 1.399 . S
C490 C491 1.376 . S
C491 H478 0.930 . S
C491 C490 1.376 . S
C491 C492 1.388 . S
C492 H479 0.930 . S
C492 C491 1.388 . S
C492 C493 1.390 . S
C493 C492 1.390 . S
C493 C494 1.394 . S
C493 C499 1.465 . S
C494 C489 1.399 . S
C494 C493 1.394 . S
C494 C495 1.516 1_455 S
C495 C494 1.516 1_655 S
C495 C496 1.502 . S
C495 C497 1.561 . S
C495 C498 1.526 . S
C496 H480 0.959 . S
C496 H481 0.959 . S
C496 H482 0.961 . S
C496 C495 1.502 . S
C497 H483 0.960 . S
C497 H484 0.961 . S
C497 H485 0.959 . S
C497 C495 1.561 . S
C498 C495 1.526 . S
C498 C499 1.396 1_655 S
C498 C503 1.390 . S
C499 C493 1.465 . S
C499 C498 1.396 1_455 S
C499 C500 1.399 . S
C500 H486 0.929 . S
C500 C499 1.399 . S
C500 C501 1.385 1_455 S
C501 H487 0.931 . S
C501 C500 1.385 1_655 S
C501 C502 1.389 . S
C502 C501 1.389 . S
C502 C503 1.387 . S
C503 H488 0.930 . S
C503 C498 1.390 . S
C503 C502 1.387 . S
H504 C516 0.929 . S
H505 C518 0.930 . S
H506 C519 0.930 . S
H507 C523 0.959 . S
H508 C523 0.959 . S
H509 C523 0.961 . S
H510 C524 0.960 . S
H511 C524 0.961 . S
H512 C524 0.959 . S
H513 C527 0.929 . S
H514 C528 0.931 . S
H515 C530 0.930 . S
C516 H504 0.929 . S
C516 C517 1.399 . S
C516 C521 1.399 . S
C517 C516 1.399 . S
C517 C518 1.376 . S
C518 H505 0.930 . S
C518 C517 1.376 . S
C518 C519 1.388 . S
C519 H506 0.930 . S
C519 C518 1.388 . S
C519 C520 1.390 . S
C520 C519 1.390 . S
C520 C521 1.394 . S
C520 C526 1.465 . S
C521 C516 1.399 . S
C521 C520 1.394 . S
C521 C522 1.516 1_545 S
C522 C521 1.516 1_565 S
C522 C523 1.502 . S
C522 C524 1.561 . S
C522 C525 1.526 . S
C523 H507 0.959 . S
C523 H508 0.959 . S
C523 H509 0.961 . S
C523 C522 1.502 . S
C524 H510 0.960 . S
C524 H511 0.961 . S
C524 H512 0.959 . S
C524 C522 1.561 . S
C525 C522 1.526 . S
C525 C526 1.396 1_565 S
C525 C530 1.390 . S
C526 C520 1.465 . S
C526 C525 1.396 1_545 S
C526 C527 1.399 . S
C527 H513 0.929 . S
C527 C526 1.399 . S
C527 C528 1.385 1_545 S
C528 H514 0.931 . S
C528 C527 1.385 1_565 S
C528 C529 1.389 . S
C529 C528 1.389 . S
C529 C530 1.387 . S
C530 H515 0.930 . S
C530 C525 1.390 . S
C530 C529 1.387 . S
H531 C543 0.930 . S
H532 C545 0.930 . S
H533 C546 0.930 . S
H534 C550 0.959 . S
H535 C550 0.959 . S
H536 C550 0.961 . S
H537 C551 0.960 . S
H538 C551 0.961 . S
H539 C551 0.959 . S
H540 C554 0.929 . S
H541 C555 0.931 . S
H542 C557 0.930 . S
C543 H531 0.930 . S
C543 C544 1.399 . S
C543 C548 1.399 . S
C544 C543 1.399 . S
C544 C545 1.376 . S
C545 H532 0.930 . S
C545 C544 1.376 . S
C545 C546 1.388 . S
C546 H533 0.930 . S
C546 C545 1.388 . S
C546 C547 1.390 . S
C547 C546 1.390 . S
C547 C548 1.394 . S
C547 C553 1.465 . S
C548 C543 1.399 . S
C548 C547 1.394 . S
C548 C549 1.516 . S
C549 C548 1.516 . S
C549 C550 1.502 . S
C549 C551 1.561 . S
C549 C552 1.526 . S
C550 H534 0.959 . S
C550 H535 0.959 . S
C550 H536 0.961 . S
C550 C549 1.502 . S
C551 H537 0.960 . S
C551 H538 0.961 . S
C551 H539 0.959 . S
C551 C549 1.561 . S
C552 C549 1.526 . S
C552 C553 1.396 . S
C552 C557 1.390 . S
C553 C547 1.465 . S
C553 C552 1.396 . S
C553 C554 1.399 . S
C554 H540 0.929 . S
C554 C553 1.399 . S
C554 C555 1.385 . S
C555 H541 0.931 . S
C555 C554 1.385 . S
C555 C556 1.389 . S
C556 C555 1.389 . S
C556 C557 1.387 . S
C557 H542 0.930 . S
C557 C552 1.390 . S
C557 C556 1.387 . S
H558 C570 0.930 . S
H559 C572 0.930 . S
H560 C573 0.930 . S
H561 C577 0.959 . S
H562 C577 0.959 . S
H563 C577 0.961 . S
H564 C578 0.960 . S
H565 C578 0.961 . S
H566 C578 0.959 . S
H567 C581 0.929 . S
H568 C582 0.931 . S
H569 C584 0.930 . S
C570 H558 0.930 . S
C570 C571 1.399 . S
C570 C575 1.399 . S
C571 C570 1.399 . S
C571 C572 1.376 . S
C572 H559 0.930 . S
C572 C571 1.376 . S
C572 C573 1.388 . S
C573 H560 0.930 . S
C573 C572 1.388 . S
C573 C574 1.390 . S
C574 C573 1.390 . S
C574 C575 1.394 . S
C574 C580 1.465 . S
C575 C570 1.399 . S
C575 C574 1.394 . S
C575 C576 1.516 . S
C576 C575 1.516 . S
C576 C577 1.502 . S
C576 C578 1.561 . S
C576 C579 1.526 . S
C577 H561 0.959 . S
C577 H562 0.959 . S
C577 H563 0.961 . S
C577 C576 1.502 . S
C578 H564 0.960 . S
C578 H565 0.961 . S
C578 H566 0.959 . S
C578 C576 1.561 . S
C579 C576 1.526 . S
C579 C580 1.396 . S
C579 C584 1.390 . S
C580 C574 1.465 . S
C580 C579 1.396 . S
C580 C581 1.399 . S
C581 H567 0.929 . S
C581 C580 1.399 . S
C581 C582 1.385 . S
C582 H568 0.931 . S
C582 C581 1.385 . S
C582 C583 1.389 . S
C583 C582 1.389 . S
C583 C584 1.387 . S
C584 H569 0.930 . S
C584 C579 1.390 . S
C584 C583 1.387 . S
H585 C597 0.930 . S
H586 C599 0.930 . S
H587 C600 0.930 . S
H588 C604 0.959 . S
H589 C604 0.959 . S
H590 C604 0.961 . S
H591 C605 0.960 . S
H592 C605 0.961 . S
H593 C605 0.959 . S
H594 C608 0.929 . S
H595 C609 0.931 . S
H596 C611 0.930 . S
C597 H585 0.930 . S
C597 C598 1.399 . S
C597 C602 1.399 . S
C598 C597 1.399 . S
C598 C599 1.376 . S
C599 H586 0.930 . S
C599 C598 1.376 . S
C599 C600 1.388 . S
C600 H587 0.930 . S
C600 C599 1.388 . S
C600 C601 1.390 . S
C601 C600 1.390 . S
C601 C602 1.394 . S
C601 C607 1.465 . S
C602 C597 1.399 . S
C602 C601 1.394 . S
C602 C603 1.516 . S
C603 C602 1.516 . S
C603 C604 1.502 . S
C603 C605 1.561 . S
C603 C606 1.526 . S
C604 H588 0.959 . S
C604 H589 0.959 . S
C604 H590 0.961 . S
C604 C603 1.502 . S
C605 H591 0.960 . S
C605 H592 0.961 . S
C605 H593 0.959 . S
C605 C603 1.561 . S
C606 C603 1.526 . S
C606 C607 1.396 . S
C606 C611 1.390 . S
C607 C601 1.465 . S
C607 C606 1.396 . S
C607 C608 1.399 . S
C608 H594 0.929 . S
C608 C607 1.399 . S
C608 C609 1.385 . S
C609 H595 0.931 . S
C609 C608 1.385 . S
C609 C610 1.389 . S
C610 C609 1.389 . S
C610 C611 1.387 . S
C611 H596 0.930 . S
C611 C606 1.390 . S
C611 C610 1.387 . S
H612 C624 0.930 . S
H613 C626 0.930 . S
H614 C627 0.930 . S
H615 C631 0.959 . S
H616 C631 0.959 . S
H617 C631 0.961 . S
H618 C632 0.960 . S
H619 C632 0.961 . S
H620 C632 0.959 . S
H621 C635 0.929 . S
H622 C636 0.931 . S
H623 C638 0.930 . S
C624 H612 0.930 . S
C624 C625 1.399 . S
C624 C629 1.399 . S
C625 C624 1.399 . S
C625 C626 1.376 . S
C626 H613 0.930 . S
C626 C625 1.376 . S
C626 C627 1.388 . S
C627 H614 0.930 . S
C627 C626 1.388 . S
C627 C628 1.390 . S
C628 C627 1.390 . S
C628 C629 1.394 . S
C628 C634 1.465 . S
C629 C624 1.399 . S
C629 C628 1.394 . S
C629 C630 1.516 . S
C630 C629 1.516 . S
C630 C631 1.502 . S
C630 C632 1.561 . S
C630 C633 1.526 . S
C631 H615 0.959 . S
C631 H616 0.959 . S
C631 H617 0.961 . S
C631 C630 1.502 . S
C632 H618 0.960 . S
C632 H619 0.961 . S
C632 H620 0.959 . S
C632 C630 1.561 . S
C633 C630 1.526 . S
C633 C634 1.396 . S
C633 C638 1.390 . S
C634 C628 1.465 . S
C634 C633 1.396 . S
C634 C635 1.399 . S
C635 H621 0.929 . S
C635 C634 1.399 . S
C635 C636 1.385 . S
C636 H622 0.931 . S
C636 C635 1.385 . S
C636 C637 1.389 . S
C637 C636 1.389 . S
C637 C638 1.387 . S
C638 H623 0.930 . S
C638 C633 1.390 . S
C638 C637 1.387 . S
H639 C651 0.930 . S
H640 C653 0.930 . S
H641 C654 0.930 . S
H642 C658 0.959 . S
H643 C658 0.959 . S
H644 C658 0.961 . S
H645 C659 0.960 . S
H646 C659 0.961 . S
H647 C659 0.959 . S
H648 C662 0.929 . S
H649 C663 0.931 . S
H650 C665 0.930 . S
C651 H639 0.930 . S
C651 C652 1.399 . S
C651 C656 1.399 . S
C652 C651 1.399 . S
C652 C653 1.376 . S
C653 H640 0.930 . S
C653 C652 1.376 . S
C653 C654 1.388 . S
C654 H641 0.930 . S
C654 C653 1.388 . S
C654 C655 1.390 . S
C655 C654 1.390 . S
C655 C656 1.394 . S
C655 C661 1.465 . S
C656 C651 1.399 . S
C656 C655 1.394 . S
C656 C657 1.516 . S
C657 C656 1.516 . S
C657 C658 1.502 . S
C657 C659 1.561 . S
C657 C660 1.526 . S
C658 H642 0.959 . S
C658 H643 0.959 . S
C658 H644 0.961 . S
C658 C657 1.502 . S
C659 H645 0.960 . S
C659 H646 0.961 . S
C659 H647 0.959 . S
C659 C657 1.561 . S
C660 C657 1.526 . S
C660 C661 1.396 . S
C660 C665 1.390 . S
C661 C655 1.465 . S
C661 C660 1.396 . S
C661 C662 1.399 . S
C662 H648 0.929 . S
C662 C661 1.399 . S
C662 C663 1.385 . S
C663 H649 0.931 . S
C663 C662 1.385 . S
C663 C664 1.389 . S
C664 C663 1.389 . S
C664 C665 1.387 . S
C665 H650 0.930 . S
C665 C660 1.390 . S
C665 C664 1.387 . S
H666 C678 0.930 . S
H667 C680 0.930 . S
H668 C681 0.930 . S
H669 C685 0.959 . S
H670 C685 0.959 . S
H671 C685 0.961 . S
H672 C686 0.960 . S
H673 C686 0.961 . S
H674 C686 0.959 . S
H675 C689 0.929 . S
H676 C690 0.931 . S
H677 C692 0.930 . S
C678 H666 0.930 . S
C678 C679 1.399 . S
C678 C683 1.399 . S
C679 C678 1.399 . S
C679 C680 1.376 . S
C680 H667 0.930 . S
C680 C679 1.376 . S
C680 C681 1.388 . S
C681 H668 0.930 . S
C681 C680 1.388 . S
C681 C682 1.390 . S
C682 C681 1.390 . S
C682 C683 1.394 . S
C682 C688 1.465 . S
C683 C678 1.399 . S
C683 C682 1.394 . S
C683 C684 1.516 . S
C684 C683 1.516 . S
C684 C685 1.502 . S
C684 C686 1.561 . S
C684 C687 1.526 . S
C685 H669 0.959 . S
C685 H670 0.959 . S
C685 H671 0.961 . S
C685 C684 1.502 . S
C686 H672 0.960 . S
C686 H673 0.961 . S
C686 H674 0.959 . S
C686 C684 1.561 . S
C687 C684 1.526 . S
C687 C688 1.396 . S
C687 C692 1.390 . S
C688 C682 1.465 . S
C688 C687 1.396 . S
C688 C689 1.399 . S
C689 H675 0.929 . S
C689 C688 1.399 . S
C689 C690 1.385 . S
C690 H676 0.931 . S
C690 C689 1.385 . S
C690 C691 1.389 . S
C691 C690 1.389 . S
C691 C692 1.387 . S
C692 H677 0.930 . S
C692 C687 1.390 . S
C692 C691 1.387 . S
H693 C705 0.930 . S
H694 C707 0.930 . S
H695 C708 0.930 . S
H696 C712 0.959 . S
H697 C712 0.959 . S
H698 C712 0.961 . S
H699 C713 0.960 . S
H700 C713 0.961 . S
H701 C713 0.959 . S
H702 C716 0.929 . S
H703 C717 0.931 . S
H704 C719 0.930 . S
C705 H693 0.930 . S
C705 C706 1.399 . S
C705 C710 1.399 . S
C706 C705 1.399 . S
C706 C707 1.376 . S
C707 H694 0.930 . S
C707 C706 1.376 . S
C707 C708 1.388 . S
C708 H695 0.930 . S
C708 C707 1.388 . S
C708 C709 1.390 . S
C709 C708 1.390 . S
C709 C710 1.394 . S
C709 C715 1.465 . S
C710 C705 1.399 . S
C710 C709 1.394 . S
C710 C711 1.516 . S
C711 C710 1.516 . S
C711 C712 1.502 . S
C711 C713 1.561 . S
C711 C714 1.526 . S
C712 H696 0.959 . S
C712 H697 0.959 . S
C712 H698 0.961 . S
C712 C711 1.502 . S
C713 H699 0.960 . S
C713 H700 0.961 . S
C713 H701 0.959 . S
C713 C711 1.561 . S
C714 C711 1.526 . S
C714 C715 1.396 . S
C714 C719 1.390 . S
C715 C709 1.465 . S
C715 C714 1.396 . S
C715 C716 1.399 . S
C716 H702 0.929 . S
C716 C715 1.399 . S
C716 C717 1.385 . S
C717 H703 0.931 . S
C717 C716 1.385 . S
C717 C718 1.389 . S
C718 C717 1.389 . S
C718 C719 1.387 . S
C719 H704 0.930 . S
C719 C714 1.390 . S
C719 C718 1.387 . S
H720 C732 0.930 . S
H721 C734 0.930 . S
H722 C735 0.930 . S
H723 C739 0.959 . S
H724 C739 0.959 . S
H725 C739 0.961 . S
H726 C740 0.960 . S
H727 C740 0.961 . S
H728 C740 0.959 . S
H729 C743 0.929 . S
H730 C744 0.931 . S
H731 C746 0.930 . S
C732 H720 0.930 . S
C732 C733 1.399 . S
C732 C737 1.399 . S
C733 C732 1.399 . S
C733 C734 1.376 . S
C734 H721 0.930 . S
C734 C733 1.376 . S
C734 C735 1.388 . S
C735 H722 0.930 . S
C735 C734 1.388 . S
C735 C736 1.390 . S
C736 C735 1.390 . S
C736 C737 1.394 . S
C736 C742 1.465 1_655 S
C737 C732 1.399 . S
C737 C736 1.394 . S
C737 C738 1.516 . S
C738 C737 1.516 . S
C738 C739 1.502 1_655 S
C738 C740 1.561 . S
C738 C741 1.526 1_655 S
C739 H723 0.959 . S
C739 H724 0.959 . S
C739 H725 0.961 . S
C739 C738 1.502 1_455 S
C740 H726 0.960 . S
C740 H727 0.961 . S
C740 H728 0.959 . S
C740 C738 1.561 . S
C741 C738 1.526 1_455 S
C741 C742 1.396 . S
C741 C746 1.390 . S
C742 C736 1.465 1_455 S
C742 C741 1.396 . S
C742 C743 1.399 . S
C743 H729 0.929 . S
C743 C742 1.399 . S
C743 C744 1.385 . S
C744 H730 0.931 . S
C744 C743 1.385 . S
C744 C745 1.389 . S
C745 C744 1.389 . S
C745 C746 1.387 . S
C746 H731 0.930 . S
C746 C741 1.390 . S
C746 C745 1.387 . S
H747 C759 0.930 . S
H748 C761 0.930 . S
H749 C762 0.930 . S
H750 C766 0.959 . S
H751 C766 0.959 . S
H752 C766 0.961 . S
H753 C767 0.960 1_545 S
H754 C767 0.961 . S
H755 C767 0.959 1_545 S
H756 C770 0.929 . S
H757 C771 0.931 . S
H758 C773 0.930 . S
C759 H747 0.930 . S
C759 C760 1.399 . S
C759 C764 1.399 . S
C760 C759 1.399 . S
C760 C761 1.376 . S
C761 H748 0.930 . S
C761 C760 1.376 . S
C761 C762 1.388 . S
C762 H749 0.930 . S
C762 C761 1.388 . S
C762 C763 1.390 . S
C763 C762 1.390 . S
C763 C764 1.394 . S
C763 C769 1.465 . S
C764 C759 1.399 . S
C764 C763 1.394 . S
C764 C765 1.516 1_545 S
C765 C764 1.516 1_565 S
C765 C766 1.502 . S
C765 C767 1.561 . S
C765 C768 1.526 . S
C766 H750 0.959 . S
C766 H751 0.959 . S
C766 H752 0.961 . S
C766 C765 1.502 . S
C767 H753 0.960 1_565 S
C767 H754 0.961 . S
C767 H755 0.959 1_565 S
C767 C765 1.561 . S
C768 C765 1.526 . S
C768 C769 1.396 1_565 S
C768 C773 1.390 . S
C769 C763 1.465 . S
C769 C768 1.396 1_545 S
C769 C770 1.399 . S
C770 H756 0.929 . S
C770 C769 1.399 . S
C770 C771 1.385 1_545 S
C771 H757 0.931 . S
C771 C770 1.385 1_565 S
C771 C772 1.389 . S
C772 C771 1.389 . S
C772 C773 1.387 . S
C773 H758 0.930 . S
C773 C768 1.390 . S
C773 C772 1.387 . S
H774 C786 0.930 . S
H775 C788 0.930 . S
H776 C789 0.930 . S
H777 C793 0.959 . S
H778 C793 0.959 . S
H779 C793 0.961 . S
H780 C794 0.960 . S
H781 C794 0.961 . S
H782 C794 0.959 . S
H783 C797 0.929 . S
H784 C798 0.931 . S
H785 C800 0.930 . S
C786 H774 0.930 . S
C786 C787 1.399 1_556 S
C786 C791 1.399 . S
C787 C786 1.399 1_554 S
C787 C788 1.376 . S
C788 H775 0.930 . S
C788 C787 1.376 . S
C788 C789 1.388 . S
C789 H776 0.930 . S
C789 C788 1.388 . S
C789 C790 1.390 . S
C790 C789 1.390 . S
C790 C791 1.394 1_554 S
C790 C796 1.465 . S
C791 C786 1.399 . S
C791 C790 1.394 1_556 S
C791 C792 1.516 . S
C792 C791 1.516 . S
C792 C793 1.502 . S
C792 C794 1.561 . S
C792 C795 1.526 . S
C793 H777 0.959 . S
C793 H778 0.959 . S
C793 H779 0.961 . S
C793 C792 1.502 . S
C794 H780 0.960 . S
C794 H781 0.961 . S
C794 H782 0.959 . S
C794 C792 1.561 . S
C795 C792 1.526 . S
C795 C796 1.396 1_556 S
C795 C800 1.390 . S
C796 C790 1.465 . S
C796 C795 1.396 1_554 S
C796 C797 1.399 . S
C797 H783 0.929 . S
C797 C796 1.399 . S
C797 C798 1.385 . S
C798 H784 0.931 . S
C798 C797 1.385 . S
C798 C799 1.389 . S
C799 C798 1.389 . S
C799 C800 1.387 1_554 S
C800 H785 0.930 . S
C800 C795 1.390 . S
C800 C799 1.387 1_556 S
H801 C813 0.930 . S
H802 C815 0.930 . S
H803 C816 0.930 . S
H804 C820 0.959 . S
H805 C820 0.959 . S
H806 C820 0.961 . S
H807 C821 0.960 . S
H808 C821 0.961 . S
H809 C821 0.959 . S
H810 C824 0.929 . S
H811 C825 0.931 . S
H812 C827 0.930 . S
C813 H801 0.930 . S
C813 C814 1.399 . S
C813 C818 1.399 . S
C814 C813 1.399 . S
C814 C815 1.376 . S
C815 H802 0.930 . S
C815 C814 1.376 . S
C815 C816 1.388 1_565 S
C816 H803 0.930 . S
C816 C815 1.388 1_545 S
C816 C817 1.390 . S
C817 C816 1.390 . S
C817 C818 1.394 1_545 S
C817 C823 1.465 . S
C818 C813 1.399 . S
C818 C817 1.394 1_565 S
C818 C819 1.516 . S
C819 C818 1.516 . S
C819 C820 1.502 . S
C819 C821 1.561 . S
C819 C822 1.526 1_565 S
C820 H804 0.959 . S
C820 H805 0.959 . S
C820 H806 0.961 . S
C820 C819 1.502 . S
C821 H807 0.960 . S
C821 H808 0.961 . S
C821 H809 0.959 . S
C821 C819 1.561 . S
C822 C819 1.526 1_545 S
C822 C823 1.396 . S
C822 C827 1.390 . S
C823 C817 1.465 . S
C823 C822 1.396 . S
C823 C824 1.399 . S
C824 H810 0.929 . S
C824 C823 1.399 . S
C824 C825 1.385 . S
C825 H811 0.931 . S
C825 C824 1.385 . S
C825 C826 1.389 . S
C826 C825 1.389 . S
C826 C827 1.387 . S
C827 H812 0.930 . S
C827 C822 1.390 . S
C827 C826 1.387 . S
H828 C840 0.930 . S
H829 C842 0.930 . S
H830 C843 0.930 . S
H831 C847 0.959 . S
H832 C847 0.959 . S
H833 C847 0.961 . S
H834 C848 0.960 . S
H835 C848 0.961 . S
H836 C848 0.959 . S
H837 C851 0.929 . S
H838 C852 0.931 . S
H839 C854 0.930 . S
C840 H828 0.930 . S
C840 C841 1.399 . S
C840 C845 1.399 . S
C841 C840 1.399 . S
C841 C842 1.376 . S
C842 H829 0.930 . S
C842 C841 1.376 . S
C842 C843 1.388 . S
C843 H830 0.930 . S
C843 C842 1.388 . S
C843 C844 1.390 . S
C844 C843 1.390 . S
C844 C845 1.394 . S
C844 C850 1.465 . S
C845 C840 1.399 . S
C845 C844 1.394 . S
C845 C846 1.516 . S
C846 C845 1.516 . S
C846 C847 1.502 . S
C846 C848 1.561 . S
C846 C849 1.526 . S
C847 H831 0.959 . S
C847 H832 0.959 . S
C847 H833 0.961 . S
C847 C846 1.502 . S
C848 H834 0.960 . S
C848 H835 0.961 . S
C848 H836 0.959 . S
C848 C846 1.561 . S
C849 C846 1.526 . S
C849 C850 1.396 . S
C849 C854 1.390 . S
C850 C844 1.465 . S
C850 C849 1.396 . S
C850 C851 1.399 . S
C851 H837 0.929 . S
C851 C850 1.399 . S
C851 C852 1.385 . S
C852 H838 0.931 . S
C852 C851 1.385 . S
C852 C853 1.389 . S
C853 C852 1.389 . S
C853 C854 1.387 . S
C854 H839 0.930 . S
C854 C849 1.390 . S
C854 C853 1.387 . S
H855 C867 0.930 . S
H856 C869 0.930 . S
H857 C870 0.930 . S
H858 C874 0.959 . S
H859 C874 0.959 . S
H860 C874 0.961 . S
H861 C875 0.960 . S
H862 C875 0.961 1_455 S
H863 C875 0.959 . S
H864 C878 0.929 1_655 S
H865 C879 0.931 . S
H866 C881 0.930 . S
C867 H855 0.930 . S
C867 C868 1.399 . S
C867 C872 1.399 . S
C868 C867 1.399 . S
C868 C869 1.376 1_556 S
C869 H856 0.930 . S
C869 C868 1.376 1_554 S
C869 C870 1.388 . S
C870 H857 0.930 . S
C870 C869 1.388 . S
C870 C871 1.390 . S
C871 C870 1.390 . S
C871 C872 1.394 1_554 S
C871 C877 1.465 1_655 S
C872 C867 1.399 . S
C872 C871 1.394 1_556 S
C872 C873 1.516 1_655 S
C873 C872 1.516 1_455 S
C873 C874 1.502 . S
C873 C875 1.561 1_455 S
C873 C876 1.526 . S
C874 H858 0.959 . S
C874 H859 0.959 . S
C874 H860 0.961 . S
C874 C873 1.502 . S
C875 H861 0.960 . S
C875 H862 0.961 1_655 S
C875 H863 0.959 . S
C875 C873 1.561 1_655 S
C876 C873 1.526 . S
C876 C877 1.396 1_556 S
C876 C881 1.390 . S
C877 C871 1.465 1_455 S
C877 C876 1.396 1_554 S
C877 C878 1.399 . S
C878 H864 0.929 1_455 S
C878 C877 1.399 . S
C878 C879 1.385 . S
C879 H865 0.931 . S
C879 C878 1.385 . S
C879 C880 1.389 1_554 S
C880 C879 1.389 1_556 S
C880 C881 1.387 . S
C881 H866 0.930 . S
C881 C876 1.390 . S
C881 C880 1.387 . S
H882 C894 0.930 . S
H883 C896 0.930 . S
H884 C897 0.930 . S
H885 C901 0.959 . S
H886 C901 0.959 . S
H887 C901 0.961 . S
H888 C902 0.960 . S
H889 C902 0.961 . S
H890 C902 0.959 . S
H891 C905 0.929 . S
H892 C906 0.931 . S
H893 C908 0.930 . S
C894 H882 0.930 . S
C894 C895 1.399 . S
C894 C899 1.399 . S
C895 C894 1.399 . S
C895 C896 1.376 . S
C896 H883 0.930 . S
C896 C895 1.376 . S
C896 C897 1.388 . S
C897 H884 0.930 . S
C897 C896 1.388 . S
C897 C898 1.390 . S
C898 C897 1.390 . S
C898 C899 1.394 . S
C898 C904 1.465 . S
C899 C894 1.399 . S
C899 C898 1.394 . S
C899 C900 1.516 . S
C900 C899 1.516 . S
C900 C901 1.502 . S
C900 C902 1.561 . S
C900 C903 1.526 . S
C901 H885 0.959 . S
C901 H886 0.959 . S
C901 H887 0.961 . S
C901 C900 1.502 . S
C902 H888 0.960 . S
C902 H889 0.961 . S
C902 H890 0.959 . S
C902 C900 1.561 . S
C903 C900 1.526 . S
C903 C904 1.396 . S
C903 C908 1.390 . S
C904 C898 1.465 . S
C904 C903 1.396 . S
C904 C905 1.399 . S
C905 H891 0.929 . S
C905 C904 1.399 . S
C905 C906 1.385 . S
C906 H892 0.931 . S
C906 C905 1.385 . S
C906 C907 1.389 . S
C907 C906 1.389 . S
C907 C908 1.387 . S
C908 H893 0.930 . S
C908 C903 1.390 . S
C908 C907 1.387 . S
H909 C921 0.930 . S
H910 C923 0.930 . S
H911 C924 0.930 . S
H912 C928 0.959 1_455 S
H913 C928 0.959 1_455 S
H914 C928 0.961 . S
H915 C929 0.960 . S
H916 C929 0.961 1_455 S
H917 C929 0.962 1_455 S
H918 C932 0.929 . S
H919 C933 0.931 . S
H920 C935 0.930 . S
C921 H909 0.930 . S
C921 C922 1.399 . S
C921 C926 1.399 . S
C922 C921 1.399 . S
C922 C923 1.376 . S
C923 H910 0.930 . S
C923 C922 1.376 . S
C923 C924 1.388 . S
C924 H911 0.930 . S
C924 C923 1.388 . S
C924 C925 1.390 . S
C925 C924 1.390 . S
C925 C926 1.394 . S
C925 C931 1.465 1_655 S
C926 C921 1.399 . S
C926 C925 1.394 . S
C926 C927 1.516 . S
C927 C926 1.516 . S
C927 C928 1.502 . S
C927 C929 1.561 . S
C927 C930 1.526 1_655 S
C928 H912 0.959 1_655 S
C928 H913 0.959 1_655 S
C928 H914 0.961 . S
C928 C927 1.502 . S
C929 H915 0.960 . S
C929 H916 0.961 1_655 S
C929 H917 0.962 1_655 S
C929 C927 1.561 . S
C930 C927 1.526 1_455 S
C930 C931 1.396 . S
C930 C935 1.390 . S
C931 C925 1.465 1_455 S
C931 C930 1.396 . S
C931 C932 1.399 . S
C932 H918 0.929 . S
C932 C931 1.399 . S
C932 C933 1.385 . S
C933 H919 0.931 . S
C933 C932 1.385 . S
C933 C934 1.389 . S
C934 C933 1.389 . S
C934 C935 1.387 . S
C935 H920 0.930 . S
C935 C930 1.390 . S
C935 C934 1.387 . S
H936 C948 0.930 . S
H937 C950 0.930 . S
H938 C951 0.930 . S
H939 C955 0.961 1_565 S
H940 C955 0.956 1_565 S
H941 C955 0.966 . S
H942 C956 0.960 . S
H943 C956 0.961 1_565 S
H944 C956 0.959 1_565 S
H945 C959 0.929 . S
H946 C960 0.931 . S
H947 C962 0.930 . S
C948 H936 0.930 . S
C948 C949 1.399 1_556 S
C948 C953 1.399 . S
C949 C948 1.399 1_554 S
C949 C950 1.376 . S
C950 H937 0.930 . S
C950 C949 1.376 . S
C950 C951 1.388 . S
C951 H938 0.930 . S
C951 C950 1.388 . S
C951 C952 1.390 . S
C952 C951 1.390 . S
C952 C953 1.394 1_554 S
C952 C958 1.465 1_545 S
C953 C948 1.399 . S
C953 C952 1.394 1_556 S
C953 C954 1.531 . S
C954 C953 1.531 . S
C954 C955 1.512 . S
C954 C956 1.554 . S
C954 C957 1.504 1_545 S
C955 H939 0.961 1_545 S
C955 H940 0.956 1_545 S
C955 H941 0.966 . S
C955 C954 1.512 . S
C956 H942 0.960 . S
C956 H943 0.961 1_545 S
C956 H944 0.959 1_545 S
C956 C954 1.554 . S
C957 C954 1.504 1_565 S
C957 C958 1.396 1_556 S
C957 C962 1.390 . S
C958 C952 1.465 1_565 S
C958 C957 1.396 1_554 S
C958 C959 1.399 . S
C959 H945 0.929 . S
C959 C958 1.399 . S
C959 C960 1.385 . S
C960 H946 0.931 . S
C960 C959 1.385 . S
C960 C961 1.389 . S
C961 C960 1.389 . S
C961 C962 1.387 1_554 S
C962 H947 0.930 . S
C962 C957 1.390 . S
C962 C961 1.387 1_556 S
H963 C975 0.930 . S
H964 C977 0.930 . S
H965 C978 0.930 . S
H966 C982 0.959 . S
H967 C982 0.959 . S
H968 C982 0.961 . S
H969 C983 0.960 . S
H970 C983 0.961 . S
H971 C983 0.959 . S
H972 C986 0.929 . S
H973 C987 0.931 . S
H974 C989 0.930 . S
C975 H963 0.930 . S
C975 C976 1.399 . S
C975 C980 1.399 . S
C976 C975 1.399 . S
C976 C977 1.376 . S
C977 H964 0.930 . S
C977 C976 1.376 . S
C977 C978 1.388 . S
C978 H965 0.930 . S
C978 C977 1.388 . S
C978 C979 1.390 . S
C979 C978 1.390 . S
C979 C980 1.394 . S
C979 C985 1.465 . S
C980 C975 1.399 . S
C980 C979 1.394 . S
C980 C981 1.516 . S
C981 C980 1.516 . S
C981 C982 1.502 . S
C981 C983 1.561 . S
C981 C984 1.526 . S
C982 H966 0.959 . S
C982 H967 0.959 . S
C982 H968 0.961 . S
C982 C981 1.502 . S
C983 H969 0.960 . S
C983 H970 0.961 . S
C983 H971 0.959 . S
C983 C981 1.561 . S
C984 C981 1.526 . S
C984 C985 1.396 . S
C984 C989 1.390 . S
C985 C979 1.465 . S
C985 C984 1.396 . S
C985 C986 1.399 . S
C986 H972 0.929 . S
C986 C985 1.399 . S
C986 C987 1.385 . S
C987 H973 0.931 . S
C987 C986 1.385 . S
C987 C988 1.389 . S
C988 C987 1.389 . S
C988 C989 1.387 . S
C989 H974 0.930 . S
C989 C984 1.390 . S
C989 C988 1.387 . S
H990 C1002 0.930 . S
H991 C1004 0.930 . S
H992 C1005 0.930 . S
H993 C1009 0.944 1_655 S
H994 C1009 0.959 1_655 S
H995 C1009 0.961 . S
H996 C1010 0.960 . S
H997 C1010 0.961 1_655 S
H998 C1010 0.963 1_655 S
H999 C1013 0.929 . S
H1000 C1014 0.931 . S
H1001 C1016 0.930 . S
C1002 H990 0.930 . S
C1002 C1003 1.399 . S
C1002 C1007 1.399 . S
C1003 C1002 1.399 . S
C1003 C1004 1.376 . S
C1004 H991 0.930 . S
C1004 C1003 1.376 . S
C1004 C1005 1.388 . S
C1005 H992 0.930 . S
C1005 C1004 1.388 . S
C1005 C1006 1.390 . S
C1006 C1005 1.390 . S
C1006 C1007 1.394 . S
C1006 C1012 1.465 1_455 S
C1007 C1002 1.399 . S
C1007 C1006 1.394 . S
C1007 C1008 1.516 . S
C1008 C1007 1.516 . S
C1008 C1009 1.502 . S
C1008 C1010 1.561 . S
C1008 C1011 1.526 1_455 S
C1009 H993 0.944 1_455 S
C1009 H994 0.959 1_455 S
C1009 H995 0.961 . S
C1009 C1008 1.502 . S
C1010 H996 0.960 . S
C1010 H997 0.961 1_455 S
C1010 H998 0.963 1_455 S
C1010 C1008 1.561 . S
C1011 C1008 1.526 1_655 S
C1011 C1012 1.396 . S
C1011 C1016 1.390 . S
C1012 C1006 1.465 1_655 S
C1012 C1011 1.396 . S
C1012 C1013 1.399 . S
C1013 H999 0.929 . S
C1013 C1012 1.399 . S
C1013 C1014 1.385 . S
C1014 H1000 0.931 . S
C1014 C1013 1.385 . S
C1014 C1015 1.389 . S
C1015 C1014 1.389 . S
C1015 C1016 1.387 . S
C1016 H1001 0.930 . S
C1016 C1011 1.390 . S
C1016 C1015 1.387 . S
H1017 C1029 0.930 . S
H1018 C1031 0.930 . S
H1019 C1032 0.930 . S
H1020 C1036 0.959 . S
H1021 C1036 0.959 . S
H1022 C1036 0.961 1_545 S
H1023 C1037 0.960 1_545 S
H1024 C1037 0.961 . S
H1025 C1037 0.959 . S
H1026 C1040 0.929 . S
H1027 C1041 0.931 . S
H1028 C1043 0.930 . S
C1029 H1017 0.930 . S
C1029 C1030 1.382 1_556 S
C1029 C1034 1.399 . S
C1030 C1029 1.382 1_554 S
C1030 C1031 1.398 . S
C1031 H1018 0.930 . S
C1031 C1030 1.398 . S
C1031 C1032 1.388 . S
C1032 H1019 0.930 . S
C1032 C1031 1.388 . S
C1032 C1033 1.390 . S
C1033 C1032 1.390 . S
C1033 C1034 1.394 1_554 S
C1033 C1039 1.465 1_545 S
C1034 C1029 1.399 . S
C1034 C1033 1.394 1_556 S
C1034 C1035 1.516 1_545 S
C1035 C1034 1.516 1_565 S
C1035 C1036 1.502 . S
C1035 C1037 1.561 . S
C1035 C1038 1.526 . S
C1036 H1020 0.959 . S
C1036 H1021 0.959 . S
C1036 H1022 0.961 1_565 S
C1036 C1035 1.502 . S
C1037 H1023 0.960 1_565 S
C1037 H1024 0.961 . S
C1037 H1025 0.959 . S
C1037 C1035 1.561 . S
C1038 C1035 1.526 . S
C1038 C1039 1.396 1_556 S
C1038 C1043 1.390 . S
C1039 C1033 1.465 1_565 S
C1039 C1038 1.396 1_554 S
C1039 C1040 1.399 . S
C1040 H1026 0.929 . S
C1040 C1039 1.399 . S
C1040 C1041 1.385 . S
C1041 H1027 0.931 . S
C1041 C1040 1.385 . S
C1041 C1042 1.389 . S
C1042 C1041 1.389 . S
C1042 C1043 1.387 1_554 S
C1043 H1028 0.930 . S
C1043 C1038 1.390 . S
C1043 C1042 1.387 1_556 S
H1044 C1056 0.930 . S
H1045 C1058 0.930 . S
H1046 C1059 0.930 . S
H1047 C1063 0.959 . S
H1048 C1063 0.959 . S
H1049 C1063 0.961 . S
H1050 C1064 0.960 . S
H1051 C1064 0.961 . S
H1052 C1064 0.959 . S
H1053 C1067 0.929 . S
H1054 C1068 0.931 . S
H1055 C1070 0.930 . S
C1056 H1044 0.930 . S
C1056 C1057 1.399 . S
C1056 C1061 1.399 . S
C1057 C1056 1.399 . S
C1057 C1058 1.376 . S
C1058 H1045 0.930 . S
C1058 C1057 1.376 . S
C1058 C1059 1.388 . S
C1059 H1046 0.930 . S
C1059 C1058 1.388 . S
C1059 C1060 1.390 . S
C1060 C1059 1.390 . S
C1060 C1061 1.394 . S
C1060 C1066 1.465 . S
C1061 C1056 1.399 . S
C1061 C1060 1.394 . S
C1061 C1062 1.516 . S
C1062 C1061 1.516 . S
C1062 C1063 1.502 . S
C1062 C1064 1.561 . S
C1062 C1065 1.526 . S
C1063 H1047 0.959 . S
C1063 H1048 0.959 . S
C1063 H1049 0.961 . S
C1063 C1062 1.502 . S
C1064 H1050 0.960 . S
C1064 H1051 0.961 . S
C1064 H1052 0.959 . S
C1064 C1062 1.561 . S
C1065 C1062 1.526 . S
C1065 C1066 1.396 . S
C1065 C1070 1.390 . S
C1066 C1060 1.465 . S
C1066 C1065 1.396 . S
C1066 C1067 1.399 . S
C1067 H1053 0.929 . S
C1067 C1066 1.399 . S
C1067 C1068 1.385 . S
C1068 H1054 0.931 . S
C1068 C1067 1.385 . S
C1068 C1069 1.389 . S
C1069 C1068 1.389 . S
C1069 C1070 1.387 . S
C1070 H1055 0.930 . S
C1070 C1065 1.390 . S
C1070 C1069 1.387 . S
H1071 C1083 0.930 . S
H1072 C1085 0.930 . S
H1073 C1086 0.930 . S
H1074 C1090 0.959 . S
H1075 C1090 0.959 . S
H1076 C1090 0.961 . S
H1077 C1091 0.960 . S
H1078 C1091 0.961 . S
H1079 C1091 0.959 . S
H1080 C1094 0.929 . S
H1081 C1095 0.931 . S
H1082 C1097 0.930 . S
C1083 H1071 0.930 . S
C1083 C1084 1.399 . S
C1083 C1088 1.399 . S
C1084 C1083 1.399 . S
C1084 C1085 1.376 . S
C1085 H1072 0.930 . S
C1085 C1084 1.376 . S
C1085 C1086 1.388 . S
C1086 H1073 0.930 . S
C1086 C1085 1.388 . S
C1086 C1087 1.390 . S
C1087 C1086 1.390 . S
C1087 C1088 1.394 . S
C1087 C1093 1.465 . S
C1088 C1083 1.399 . S
C1088 C1087 1.394 . S
C1088 C1089 1.516 . S
C1089 C1088 1.516 . S
C1089 C1090 1.502 . S
C1089 C1091 1.561 . S
C1089 C1092 1.526 . S
C1090 H1074 0.959 . S
C1090 H1075 0.959 . S
C1090 H1076 0.961 . S
C1090 C1089 1.502 . S
C1091 H1077 0.960 . S
C1091 H1078 0.961 . S
C1091 H1079 0.959 . S
C1091 C1089 1.561 . S
C1092 C1089 1.526 . S
C1092 C1093 1.396 . S
C1092 C1097 1.390 . S
C1093 C1087 1.465 . S
C1093 C1092 1.396 . S
C1093 C1094 1.399 . S
C1094 H1080 0.929 . S
C1094 C1093 1.399 . S
C1094 C1095 1.385 . S
C1095 H1081 0.931 . S
C1095 C1094 1.385 . S
C1095 C1096 1.389 . S
C1096 C1095 1.389 . S
C1096 C1097 1.387 . S
C1097 H1082 0.930 . S
C1097 C1092 1.390 . S
C1097 C1096 1.387 . S
H1098 C1110 0.930 . S
H1099 C1112 0.930 1_554 S
H1100 C1113 0.930 . S
H1101 C1117 0.959 . S
H1102 C1117 0.959 . S
H1103 C1117 0.961 . S
H1104 C1118 0.960 . S
H1105 C1118 0.961 . S
H1106 C1118 0.959 . S
H1107 C1121 0.929 . S
H1108 C1122 0.931 . S
H1109 C1124 0.930 . S
C1110 H1098 0.930 . S
C1110 C1111 1.399 . S
C1110 C1115 1.399 . S
C1111 C1110 1.399 . S
C1111 C1112 1.376 . S
C1112 H1099 0.930 1_556 S
C1112 C1111 1.376 . S
C1112 C1113 1.388 1_556 S
C1113 H1100 0.930 . S
C1113 C1112 1.388 1_554 S
C1113 C1114 1.390 . S
C1114 C1113 1.390 . S
C1114 C1115 1.394 1_554 S
C1114 C1120 1.465 . S
C1115 C1110 1.399 . S
C1115 C1114 1.394 1_556 S
C1115 C1116 1.516 . S
C1116 C1115 1.516 . S
C1116 C1117 1.502 . S
C1116 C1118 1.561 1_556 S
C1116 C1119 1.526 1_556 S
C1117 H1101 0.959 . S
C1117 H1102 0.959 . S
C1117 H1103 0.961 . S
C1117 C1116 1.502 . S
C1118 H1104 0.960 . S
C1118 H1105 0.961 . S
C1118 H1106 0.959 . S
C1118 C1116 1.561 1_554 S
C1119 C1116 1.526 1_554 S
C1119 C1120 1.396 . S
C1119 C1124 1.390 . S
C1120 C1114 1.465 . S
C1120 C1119 1.396 . S
C1120 C1121 1.399 . S
C1121 H1107 0.929 . S
C1121 C1120 1.399 . S
C1121 C1122 1.385 . S
C1122 H1108 0.931 . S
C1122 C1121 1.385 . S
C1122 C1123 1.389 . S
C1123 C1122 1.389 . S
C1123 C1124 1.387 . S
C1124 H1109 0.930 . S
C1124 C1119 1.390 . S
C1124 C1123 1.387 . S
H1125 C1137 0.930 . S
H1126 C1139 0.930 . S
H1127 C1140 0.930 . S
H1128 C1144 0.959 . S
H1129 C1144 0.959 . S
H1130 C1144 0.961 . S
H1131 C1145 0.960 . S
H1132 C1145 0.961 . S
H1133 C1145 0.959 . S
H1134 C1148 0.929 . S
H1135 C1149 0.931 . S
H1136 C1151 0.930 . S
C1137 H1125 0.930 . S
C1137 C1138 1.399 . S
C1137 C1142 1.399 . S
C1138 C1137 1.399 . S
C1138 C1139 1.376 . S
C1139 H1126 0.930 . S
C1139 C1138 1.376 . S
C1139 C1140 1.388 . S
C1140 H1127 0.930 . S
C1140 C1139 1.388 . S
C1140 C1141 1.390 . S
C1141 C1140 1.390 . S
C1141 C1142 1.394 . S
C1141 C1147 1.465 . S
C1142 C1137 1.399 . S
C1142 C1141 1.394 . S
C1142 C1143 1.516 . S
C1143 C1142 1.516 . S
C1143 C1144 1.502 . S
C1143 C1145 1.561 . S
C1143 C1146 1.526 . S
C1144 H1128 0.959 . S
C1144 H1129 0.959 . S
C1144 H1130 0.961 . S
C1144 C1143 1.502 . S
C1145 H1131 0.960 . S
C1145 H1132 0.961 . S
C1145 H1133 0.959 . S
C1145 C1143 1.561 . S
C1146 C1143 1.526 . S
C1146 C1147 1.396 . S
C1146 C1151 1.390 . S
C1147 C1141 1.465 . S
C1147 C1146 1.396 . S
C1147 C1148 1.399 . S
C1148 H1134 0.929 . S
C1148 C1147 1.399 . S
C1148 C1149 1.385 . S
C1149 H1135 0.931 . S
C1149 C1148 1.385 . S
C1149 C1150 1.389 . S
C1150 C1149 1.389 . S
C1150 C1151 1.387 . S
C1151 H1136 0.930 . S
C1151 C1146 1.390 . S
C1151 C1150 1.387 . S
H1152 C1164 0.930 . S
H1153 C1166 0.930 . S
H1154 C1167 0.930 . S
H1155 C1171 0.959 . S
H1156 C1171 0.959 . S
H1157 C1171 0.961 . S
H1158 C1172 0.960 . S
H1159 C1172 0.961 . S
H1160 C1172 0.959 . S
H1161 C1175 0.929 . S
H1162 C1176 0.931 . S
H1163 C1178 0.930 . S
C1164 H1152 0.930 . S
C1164 C1165 1.399 . S
C1164 C1169 1.399 . S
C1165 C1164 1.399 . S
C1165 C1166 1.376 . S
C1166 H1153 0.930 . S
C1166 C1165 1.376 . S
C1166 C1167 1.388 . S
C1167 H1154 0.930 . S
C1167 C1166 1.388 . S
C1167 C1168 1.390 . S
C1168 C1167 1.390 . S
C1168 C1169 1.394 . S
C1168 C1174 1.465 . S
C1169 C1164 1.399 . S
C1169 C1168 1.394 . S
C1169 C1170 1.516 . S
C1170 C1169 1.516 . S
C1170 C1171 1.502 . S
C1170 C1172 1.561 . S
C1170 C1173 1.526 . S
C1171 H1155 0.959 . S
C1171 H1156 0.959 . S
C1171 H1157 0.961 . S
C1171 C1170 1.502 . S
C1172 H1158 0.960 . S
C1172 H1159 0.961 . S
C1172 H1160 0.959 . S
C1172 C1170 1.561 . S
C1173 C1170 1.526 . S
C1173 C1174 1.396 . S
C1173 C1178 1.390 . S
C1174 C1168 1.465 . S
C1174 C1173 1.396 . S
C1174 C1175 1.399 . S
C1175 H1161 0.929 . S
C1175 C1174 1.399 . S
C1175 C1176 1.385 . S
C1176 H1162 0.931 . S
C1176 C1175 1.385 . S
C1176 C1177 1.389 . S
C1177 C1176 1.389 . S
C1177 C1178 1.387 . S
C1178 H1163 0.930 . S
C1178 C1173 1.390 . S
C1178 C1177 1.387 . S
H1179 C1191 0.930 . S
H1180 C1193 0.930 . S
H1181 C1194 0.930 . S
H1182 C1198 0.959 . S
H1183 C1198 0.959 . S
H1184 C1198 0.961 . S
H1185 C1199 0.960 . S
H1186 C1199 0.961 . S
H1187 C1199 0.959 . S
H1188 C1202 0.929 . S
H1189 C1203 0.931 . S
H1190 C1205 0.930 . S
C1191 H1179 0.930 . S
C1191 C1192 1.399 . S
C1191 C1196 1.399 . S
C1192 C1191 1.399 . S
C1192 C1193 1.376 . S
C1193 H1180 0.930 . S
C1193 C1192 1.376 . S
C1193 C1194 1.388 1_556 S
C1194 H1181 0.930 . S
C1194 C1193 1.388 1_554 S
C1194 C1195 1.390 . S
C1195 C1194 1.390 . S
C1195 C1196 1.394 1_554 S
C1195 C1201 1.465 . S
C1196 C1191 1.399 . S
C1196 C1195 1.394 1_556 S
C1196 C1197 1.516 . S
C1197 C1196 1.516 . S
C1197 C1198 1.502 . S
C1197 C1199 1.561 1_556 S
C1197 C1200 1.526 1_556 S
C1198 H1182 0.959 . S
C1198 H1183 0.959 . S
C1198 H1184 0.961 . S
C1198 C1197 1.502 . S
C1199 H1185 0.960 . S
C1199 H1186 0.961 . S
C1199 H1187 0.959 . S
C1199 C1197 1.561 1_554 S
C1200 C1197 1.526 1_554 S
C1200 C1201 1.396 . S
C1200 C1205 1.390 . S
C1201 C1195 1.465 . S
C1201 C1200 1.396 . S
C1201 C1202 1.399 . S
C1202 H1188 0.929 . S
C1202 C1201 1.399 . S
C1202 C1203 1.385 . S
C1203 H1189 0.931 . S
C1203 C1202 1.385 . S
C1203 C1204 1.389 . S
C1204 C1203 1.389 . S
C1204 C1205 1.387 . S
C1205 H1190 0.930 . S
C1205 C1200 1.390 . S
C1205 C1204 1.387 . S
C409 C391 1.779 . S
C421 C28 1.765 . S
C436 C226 1.865 . S
C448 C61 1.877 . S
C463 C94 1.783 . S
C475 C259 1.763 . S
C490 C292 1.768 . S
C502 C127 1.786 . S
C517 C325 1.862 . S
C529 C160 1.885 . S
C544 C358 1.782 . S
C556 C193 1.779 . S
C571 C8 0.653 . S
C583 C338 0.553 . S
C598 C41 0.582 . S
C610 C371 0.694 . S
C625 C206 0.622 . S
C637 C74 0.476 . S
C652 C239 0.651 . S
C664 C107 0.568 . S
C679 C272 0.600 . S
C691 C140 0.694 . S
C706 C173 0.642 . S
C718 C305 0.687 . S
C733 N104 1.274 . S
C745 N5 1.271 . S
C760 N38 1.275 . S
C772 N137 1.268 . S
C787 N170 1.224 . S
C799 N71 1.228 . S
C814 N203 1.246 . S
C826 N302 1.255 . S
C841 N236 1.221 . S
C853 N335 1.228 . S
C868 N368 1.279 . S
C880 N269 1.272 . S
C895 N14 0.985 . S
C907 N311 0.990 . S
C922 N47 1.030 . S
C934 N344 0.964 . S
C949 N377 0.973 . S
C961 N80 1.023 1_554 S
C976 N113 1.019 . S
C988 N212 0.966 . S
C1003 N146 1.031 . S
C1015 N245 0.963 . S
C1030 N179 0.992 1_554 S
C1042 N278 0.946 . S
C1057 C215 1.822 . S
C1069 C17 1.776 . S
C1084 C248 1.819 . S
C1096 C50 1.780 . S
C1111 C83 1.783 . S
C1123 C281 1.815 . S
C1138 C314 1.819 . S
C1150 C116 1.780 . S
C1165 C149 1.782 . S
C1177 C347 1.817 . S
C1192 C182 1.786 . S
C1204 C380 1.812 . S
