# Generated by pormake.
# Topology smu, (6)-cn, num edge types: 1
# Building blocks:
#     Node 0, Type 0, BuildingBlock: JUFBIX_clean_sbu_0, # of connection points: 6
#     Node 1, Type 0, BuildingBlock: JUFBIX_clean_sbu_0, # of connection points: 6
#     Node 2, Type 0, BuildingBlock: JUFBIX_clean_sbu_0, # of connection points: 6
#     Node 3, Type 0, BuildingBlock: JUFBIX_clean_sbu_0, # of connection points: 6
#     Node 4, Type 0, BuildingBlock: JUFBIX_clean_sbu_0, # of connection points: 6
#     Node 5, Type 0, BuildingBlock: JUFBIX_clean_sbu_0, # of connection points: 6
#     Edge 6, Type (0, 0), BuildingBlock: FUNLAD_clean_linker_0, # of connection points: 2
#     Edge 7, Type (0, 0), BuildingBlock: FUNLAD_clean_linker_0, # of connection points: 2
#     Edge 8, Type (0, 0), BuildingBlock: FUNLAD_clean_linker_0, # of connection points: 2
#     Edge 9, Type (0, 0), BuildingBlock: FUNLAD_clean_linker_0, # of connection points: 2
#     Edge 10, Type (0, 0), BuildingBlock: FUNLAD_clean_linker_0, # of connection points: 2
#     Edge 11, Type (0, 0), BuildingBlock: FUNLAD_clean_linker_0, # of connection points: 2
#     Edge 12, Type (0, 0), BuildingBlock: FUNLAD_clean_linker_0, # of connection points: 2
#     Edge 13, Type (0, 0), BuildingBlock: FUNLAD_clean_linker_0, # of connection points: 2
#     Edge 14, Type (0, 0), BuildingBlock: FUNLAD_clean_linker_0, # of connection points: 2
#     Edge 15, Type (0, 0), BuildingBlock: FUNLAD_clean_linker_0, # of connection points: 2
#     Edge 16, Type (0, 0), BuildingBlock: FUNLAD_clean_linker_0, # of connection points: 2
#     Edge 17, Type (0, 0), BuildingBlock: FUNLAD_clean_linker_0, # of connection points: 2
#     Edge 18, Type (0, 0), BuildingBlock: FUNLAD_clean_linker_0, # of connection points: 2
#     Edge 19, Type (0, 0), BuildingBlock: FUNLAD_clean_linker_0, # of connection points: 2
#     Edge 20, Type (0, 0), BuildingBlock: FUNLAD_clean_linker_0, # of connection points: 2
#     Edge 21, Type (0, 0), BuildingBlock: FUNLAD_clean_linker_0, # of connection points: 2
#     Edge 22, Type (0, 0), BuildingBlock: FUNLAD_clean_linker_0, # of connection points: 2
#     Edge 23, Type (0, 0), BuildingBlock: FUNLAD_clean_linker_0, # of connection points: 2
# Relax obj value: 0.410
# Max RMSD: 0.299
# Mean RMSD: 0.298
data_MOF--net-smu--node1-JUFBIX_clean_sbu_0--edge1-FUNLAD_clean_linker_0
_symmetry_space_group_name_H-M    P1
_symmetry_Int_Tables_number       1
_symmetry_cell_setting            triclinic
loop_
_symmetry_equiv_pos_as_xyz
'x, y, z'
_cell_length_a     36.06969
_cell_length_b     36.05177
_cell_length_c     33.275596
_cell_angle_alpha  91.346508
_cell_angle_beta   90.092286
_cell_angle_gamma 120.11767
loop_
_atom_site_label
_atom_site_type_symbol
_atom_site_fract_x
_atom_site_fract_y
_atom_site_fract_z
_atom_type_partial_charge
Co0 Co 0.32607 0.04107 0.25293 0.0
C1 C 0.35161 0.08516 0.18301 0.0
Co2 Co 0.37643 0.10884 0.26366 0.0
C3 C 0.24305 0.96785 0.26183 0.0
C4 C 0.27834 0.95534 0.21726 0.0
N5 N 0.2819 0.98509 0.24469 0.0
N6 N 0.21487 0.92898 0.24565 0.0
C7 C 0.23716 0.92076 0.21781 0.0
H8 H 0.23526 0.98432 0.28495 0.0
H9 H 0.30331 0.95951 0.19675 0.0
C10 C 0.34871 0.06049 0.33313 0.0
N11 N 0.41977 0.16574 0.27201 0.0
C12 C 0.41957 0.20191 0.26236 0.0
C13 C 0.45891 0.17974 0.2886 0.0
N14 N 0.45707 0.23768 0.27194 0.0
C15 C 0.48196 0.22386 0.28832 0.0
C16 C 0.29573 0.09855 0.26621 0.0
O17 O 0.32481 0.03186 0.30748 0.0
O18 O 0.37457 0.09838 0.32134 0.0
O19 O 0.33527 0.12562 0.27009 0.0
O20 O 0.2842 0.05943 0.25873 0.0
O21 O 0.37725 0.11711 0.2056 0.0
H22 H 0.47006 0.15922 0.30021 0.0
H23 H 0.39269 0.20209 0.24803 0.0
O24 O 0.32689 0.04952 0.19855 0.0
O25 O 0.36939 0.02424 0.24665 0.0
O26 O 0.41756 0.09225 0.25715 0.0
C27 C 0.40855 0.054 0.24982 0.0
H28 H 0.2241 0.89291 0.19768 0.0
H29 H 0.51427 0.24427 0.2999 0.0
Co30 Co 0.75277 0.6483 0.27995 0.0
C31 C 0.75365 0.67281 0.20038 0.0
Co32 Co 0.73528 0.69835 0.2721 0.0
C33 C 0.80137 0.60426 0.27085 0.0
C34 C 0.74855 0.57241 0.31061 0.0
N35 N 0.76773 0.60625 0.2864 0.0
N36 N 0.80419 0.57078 0.28478 0.0
C37 C 0.77082 0.55064 0.30971 0.0
H38 H 0.82414 0.62777 0.25072 0.0
H39 H 0.72056 0.56452 0.32836 0.0
C40 C 0.73167 0.67564 0.35124 0.0
N41 N 0.72181 0.74128 0.26642 0.0
C42 C 0.7482 0.78123 0.25344 0.0
C43 C 0.68672 0.74192 0.27929 0.0
N44 N 0.73156 0.80719 0.2585 0.0
C45 C 0.69258 0.78237 0.27441 0.0
C46 C 0.66618 0.61491 0.26648 0.0
O47 O 0.74548 0.65129 0.33801 0.0
O48 O 0.72557 0.69844 0.32677 0.0
O49 O 0.6758 0.65392 0.26309 0.0
O50 O 0.69523 0.60614 0.27437 0.0
O51 O 0.74448 0.69872 0.21769 0.0
H52 H 0.65966 0.71542 0.29334 0.0
H53 H 0.77974 0.79148 0.2417 0.0
O54 O 0.75865 0.64632 0.22141 0.0
O55 O 0.8106 0.69026 0.28561 0.0
O56 O 0.79498 0.74127 0.28074 0.0
C57 C 0.82282 0.72984 0.28534 0.0
H58 H 0.76294 0.5221 0.32612 0.0
H59 H 0.67091 0.79324 0.28413 0.0
Co60 Co 0.98232 0.29057 0.25544 0.0
C61 C 0.93696 0.27251 0.18342 0.0
Co62 Co 0.91481 0.27435 0.26305 0.0
C63 C 0.05543 0.2803 0.26552 0.0
C64 C 0.06508 0.32353 0.21839 0.0
N65 N 0.03755 0.30086 0.24751 0.0
N66 N 0.09243 0.28833 0.24827 0.0
C67 C 0.09876 0.31565 0.21862 0.0
H68 H 0.03998 0.25734 0.28895 0.0
H69 H 0.0597 0.34242 0.19686 0.0
C70 C 0.96463 0.29487 0.3347 0.0
N71 N 0.85868 0.26251 0.27173 0.0
C72 C 0.8205 0.22709 0.26227 0.0
C73 C 0.84835 0.28799 0.29347 0.0
N74 N 0.78699 0.22946 0.27774 0.0
C75 C 0.80463 0.26795 0.2971 0.0
C76 C 0.92311 0.20293 0.26473 0.0
O77 O 0.99309 0.29896 0.31016 0.0
O78 O 0.92696 0.28325 0.32133 0.0
O79 O 0.89665 0.21617 0.26744 0.0
O80 O 0.96257 0.23002 0.2597 0.0
O81 O 0.90511 0.26678 0.20475 0.0
H82 H 0.87128 0.31875 0.30694 0.0
H83 H 0.81746 0.19937 0.2459 0.0
O84 O 0.9722 0.28253 0.20057 0.0
O85 O 1.00063 0.35115 0.25111 0.0
O86 O 0.93285 0.33235 0.25823 0.0
C87 C 0.97138 0.3612 0.25306 0.0
H88 H 0.12497 0.32774 0.19768 0.0
H89 H 0.78722 0.28063 0.3133 0.0
Co90 Co 0.11453 0.36858 0.76642 0.0
C91 C 0.06441 0.33693 0.83523 0.0
Co92 Co 0.04733 0.31844 0.75408 0.0
C93 C 0.20722 0.41401 0.76235 0.0
C94 C 0.18448 0.44387 0.80412 0.0
N95 N 0.17093 0.41105 0.77708 0.0
N96 N 0.24289 0.4471 0.77947 0.0
C97 C 0.22858 0.46603 0.80567 0.0
H98 H 0.20738 0.39136 0.74052 0.0
H99 H 0.16358 0.45072 0.82215 0.0
C100 C 0.09298 0.3482 0.68478 0.0
N101 N 0.99158 0.2745 0.74386 0.0
C102 C 0.97384 0.23483 0.75894 0.0
C103 C 0.96352 0.27157 0.7154 0.0
N104 N 0.93647 0.20683 0.7404 0.0
C105 C 0.92967 0.22992 0.71308 0.0
C106 C 0.06078 0.40159 0.75672 0.0
O107 O 0.12404 0.37384 0.70813 0.0
O108 O 0.05769 0.32133 0.69978 0.0
O109 O 0.03116 0.36276 0.74968 0.0
O110 O 0.09836 0.40959 0.76503 0.0
O111 O 0.03596 0.31501 0.80879 0.0
H112 H 0.96868 0.29726 0.69587 0.0
H113 H 0.98974 0.22584 0.78104 0.0
O114 O 0.1027 0.36241 0.82403 0.0
O115 O 0.13151 0.32788 0.76809 0.0
O116 O 0.06557 0.2761 0.75793 0.0
C117 C 0.10496 0.28826 0.76392 0.0
H118 H 0.24853 0.49392 0.82468 0.0
H119 H 0.90314 0.21727 0.69176 0.0
Co120 Co 0.26385 0.90971 0.7573 0.0
C121 C 0.28855 0.96217 0.82895 0.0
Co122 Co 0.29181 0.97976 0.74977 0.0
C123 C 0.22858 0.81598 0.744 0.0
C124 C 0.21354 0.83406 0.8007 0.0
N125 N 0.2372 0.85078 0.76752 0.0
N126 N 0.20017 0.77881 0.76135 0.0
C127 C 0.19103 0.79027 0.797 0.0
H128 H 0.24063 0.81784 0.71391 0.0
H129 H 0.21034 0.85243 0.82519 0.0
C130 C 0.26977 0.93203 0.67786 0.0
N131 N 0.31346 0.03758 0.74086 0.0
C132 C 0.29673 0.06007 0.75799 0.0
C133 C 0.33746 0.0619 0.71056 0.0
N134 N 0.3072 0.09633 0.73855 0.0
C135 C 0.33366 0.09814 0.70907 0.0
C136 C 0.35122 0.9515 0.75054 0.0
O137 O 0.25801 0.89904 0.69923 0.0
O138 O 0.28464 0.96858 0.69487 0.0
O139 O 0.34819 0.98525 0.74758 0.0
O140 O 0.31784 0.91527 0.75554 0.0
O141 O 0.29934 0.99176 0.80423 0.0
H142 H 0.35307 0.05197 0.68861 0.0
H143 H 0.2742 0.04805 0.78234 0.0
O144 O 0.27175 0.9235 0.81556 0.0
O145 O 0.20961 0.90367 0.7582 0.0
O146 O 0.2349 0.97237 0.75193 0.0
C147 C 0.20317 0.9348 0.75507 0.0
H148 H 0.16853 0.76842 0.8184 0.0
H149 H 0.34602 0.12167 0.68578 0.0
Co150 Co 0.65113 0.74551 0.78193 0.0
C151 C 0.68211 0.72758 0.8521 0.0
Co152 Co 0.70199 0.72942 0.77225 0.0
C153 C 0.60411 0.79022 0.77381 0.0
C154 C 0.57608 0.74079 0.81704 0.0
N155 N 0.60825 0.75868 0.79057 0.0
N156 N 0.57089 0.79302 0.78905 0.0
C157 C 0.55313 0.76187 0.81624 0.0
H158 H 0.62588 0.81154 0.7517 0.0
H159 H 0.57008 0.71449 0.83609 0.0
C160 C 0.67314 0.7449 0.70159 0.0
N161 N 0.74581 0.71787 0.76371 0.0
C162 C 0.78633 0.74223 0.77772 0.0
C163 C 0.74718 0.68936 0.73769 0.0
N164 N 0.81337 0.73122 0.7606 0.0
C165 C 0.78878 0.69749 0.73574 0.0
C166 C 0.61977 0.65879 0.76919 0.0
O167 O 0.6481 0.75162 0.7238 0.0
O168 O 0.69862 0.73501 0.71769 0.0
O169 O 0.65905 0.66889 0.76707 0.0
O170 O 0.61015 0.68768 0.77557 0.0
O171 O 0.70607 0.72338 0.82692 0.0
H172 H 0.72036 0.66619 0.71932 0.0
H173 H 0.79628 0.76905 0.7987 0.0
O174 O 0.65517 0.73808 0.83966 0.0
O175 O 0.69179 0.80385 0.78837 0.0
O176 O 0.74354 0.79027 0.77708 0.0
C177 C 0.73136 0.81721 0.78463 0.0
H178 H 0.52537 0.75465 0.83411 0.0
H179 H 0.80047 0.6819 0.71543 0.0
C180 C 0.31955 0.01821 0.88378 0.0
C181 C 0.29654 0.97435 0.87237 0.0
C182 C 0.32667 0.03139 0.92413 0.0
C183 C 0.31118 1.00108 0.95452 0.0
C184 C 0.28833 0.95716 0.9433 0.0
C185 C 0.28127 0.94384 0.90259 0.0
C186 C 0.31561 0.01436 0.99785 0.0
C187 C 0.34527 0.05355 1.01272 0.0
C188 C 0.34658 0.06671 0.05569 0.0
C189 C 0.38592 0.09578 0.0747 0.0
C190 C 0.38785 0.10543 0.11611 0.0
C191 C 0.3503 0.08639 0.13877 0.0
H192 H 0.27777 0.02979 0.06405 0.0
C193 C 0.31074 0.06025 0.11897 0.0
C194 C 0.30884 0.05062 0.07798 0.0
H195 H 0.28121 0.04541 0.13571 0.0
H196 H 0.33181 0.04281 0.86142 0.0
H197 H 0.34322 0.06546 0.93113 0.0
H198 H 0.27559 0.93305 0.9661 0.0
H199 H 0.26336 0.90989 0.89486 0.0
H200 H 0.29352 0.99054 0.01835 0.0
H201 H 0.37033 0.0762 0.99352 0.0
H202 H 0.41541 0.10933 0.05796 0.0
H203 H 0.41876 0.12528 0.13074 0.0
C204 C 0.71155 0.75811 0.63748 0.0
C205 C 0.67272 0.7454 0.65725 0.0
C206 C 0.71193 0.74816 0.59684 0.0
C207 C 0.67337 0.72499 0.57484 0.0
C208 C 0.6347 0.71542 0.59365 0.0
C209 C 0.6343 0.72532 0.63474 0.0
C210 C 0.67323 0.71101 0.53233 0.0
C211 C 0.70224 0.70058 0.51853 0.0
C212 C 0.70608 0.69053 0.47551 0.0
C213 C 0.72905 0.66952 0.4655 0.0
C214 C 0.73656 0.66315 0.42517 0.0
C215 C 0.72173 0.67831 0.39413 0.0
H216 H 0.67357 0.72185 0.4503 0.0
C217 C 0.69804 0.69849 0.40427 0.0
C218 C 0.6904 0.7046 0.44425 0.0
H219 H 0.68588 0.71049 0.38119 0.0
H220 H 0.74172 0.77394 0.65408 0.0
H221 H 0.74249 0.75787 0.58298 0.0
H222 H 0.6046 0.69836 0.57708 0.0
H223 H 0.60392 0.71472 0.64934 0.0
H224 H 0.64789 0.7081 0.51258 0.0
H225 H 0.72461 0.6995 0.53973 0.0
H226 H 0.74184 0.65861 0.48899 0.0
H227 H 0.75492 0.64757 0.41839 0.0
C228 C 0.96371 0.25877 0.11967 0.0
C229 C 0.93642 0.27071 0.13894 0.0
C230 C 0.97363 0.26706 0.07924 0.0
C231 C 0.95658 0.28768 0.05683 0.0
C232 C 0.92647 0.29649 0.07508 0.0
C233 C 0.91662 0.28832 0.116 0.0
C234 C 0.96974 0.29972 0.01448 0.0
C235 C 1.00963 0.31144 1.0015 0.0
C236 C 0.02325 0.3203 0.9588 0.0
C237 C 0.06721 0.34437 0.9499 0.0
C238 C 0.08113 0.3507 0.90991 0.0
C239 C 0.05128 0.33244 0.87801 0.0
H240 H 0.95955 0.28281 0.93207 0.0
C241 C 1.00734 0.30855 0.88707 0.0
C242 C 0.99352 0.30255 0.92677 0.0
H243 H 0.98325 0.2939 0.86337 0.0
H244 H 0.97917 0.24475 0.1365 0.0
H245 H 0.99536 0.25799 0.06582 0.0
H246 H 0.91217 0.31159 0.05821 0.0
H247 H 0.89585 0.29824 0.13015 0.0
H248 H 0.94645 0.30022 0.99415 0.0
H249 H 0.03382 0.31499 0.02321 0.0
H250 H 0.09093 0.35809 0.97399 0.0
H251 H 0.11512 0.3692 0.90403 0.0
C252 C 0.32337 1.00373 0.38416 0.0
C253 C 0.34524 0.04776 0.3757 0.0
C254 C 0.31591 0.98984 0.42358 0.0
C255 C 0.33031 0.01958 0.45602 0.0
C256 C 0.35312 0.06371 0.44775 0.0
C257 C 0.3608 0.07773 0.40796 0.0
C258 C 0.31889 1.00568 0.49831 0.0
C259 C 0.30579 0.9655 0.51082 0.0
C260 C 0.29076 0.95185 0.55243 0.0
C261 C 0.29708 0.92049 0.5706 0.0
C262 C 0.28642 0.91022 0.61105 0.0
C263 C 0.26882 0.93091 0.63352 0.0
H264 H 0.2626 0.99237 0.56074 0.0
C265 C 0.25919 0.95939 0.61422 0.0
C266 C 0.26987 0.96966 0.5742 0.0
H267 H 0.24542 0.97566 0.63087 0.0
H268 H 0.31099 0.97956 0.36012 0.0
H269 H 0.29734 0.95569 0.42815 0.0
H270 H 0.36436 0.08743 0.47215 0.0
H271 H 0.37763 0.1118 0.40249 0.0
H272 H 0.32125 0.02977 0.52004 0.0
H273 H 0.3073 0.94218 0.49073 0.0
H274 H 0.31231 0.90558 0.55415 0.0
H275 H 0.2947 0.88862 0.62538 0.0
C276 C 0.7099 0.69885 0.9043 0.0
C277 C 0.68604 0.71879 0.89482 0.0
C278 C 0.71622 0.69163 0.94404 0.0
C279 C 0.69879 0.70407 0.97571 0.0
C280 C 0.67447 0.72357 0.96639 0.0
C281 C 0.66781 0.73056 0.92629 0.0
C282 C 0.70851 0.70043 0.01854 0.0
C283 C 0.7209 0.67287 0.03142 0.0
C284 C 0.73441 0.67324 0.07381 0.0
C285 C 0.72633 0.6349 0.09173 0.0
C286 C 0.73592 0.63461 0.13267 0.0
C287 C 0.75423 0.67285 0.15596 0.0
H288 H 0.76431 0.74214 0.08335 0.0
C289 C 0.7655 0.71152 0.13704 0.0
C290 C 0.75578 0.71176 0.09655 0.0
H291 H 0.78005 0.7416 0.15416 0.0
H292 H 0.7244 0.68917 0.8809 0.0
H293 H 0.7361 0.67765 0.94968 0.0
H294 H 0.66097 0.73388 0.99023 0.0
H295 H 0.64935 0.74599 0.92004 0.0
H296 H 0.70538 0.72156 0.04036 0.0
H297 H 0.72 0.64857 1.01091 0.0
H298 H 0.71068 0.60487 0.07456 0.0
H299 H 0.7265 0.60433 0.14657 0.0
C300 C 0.02127 0.32805 0.3882 0.0
C301 C 0.9773 0.30481 0.37786 0.0
C302 C 0.03508 0.33541 0.42827 0.0
C303 C 1.00531 0.31978 0.45944 0.0
C304 C 0.96124 0.29731 0.44927 0.0
C305 C 0.9473 0.29018 0.40886 0.0
C306 C 0.01926 0.32298 0.50228 0.0
C307 C 0.05879 0.35188 0.51684 0.0
C308 C 0.07278 0.35096 0.55881 0.0
C309 C 0.10158 0.38932 0.57973 0.0
C310 C 0.11201 0.38884 0.62042 0.0
C311 C 0.09416 0.34983 0.64041 0.0
H312 H 0.03725 0.28162 0.56255 0.0
C313 C 0.06843 0.31141 0.61836 0.0
C314 C 0.05788 0.31191 0.57815 0.0
H315 H 0.05442 0.28079 0.63294 0.0
H316 H 0.04543 0.34005 0.36516 0.0
H317 H 0.06921 0.35188 0.43441 0.0
H318 H 0.93751 0.28456 0.47266 0.0
H319 H 0.91328 0.27214 0.40193 0.0
H320 H 0.99582 0.30017 0.52265 0.0
H321 H 0.08121 0.37763 0.49816 0.0
H322 H 0.11425 0.41983 0.5652 0.0
H323 H 0.13147 0.41893 0.63678 0.0
C324 C 0.46503 0.0423 0.27878 0.0
C325 C 0.44488 0.04666 0.24459 0.0
C326 C 0.50807 0.05279 0.27763 0.0
C327 C 0.532 0.06867 0.24233 0.0
C328 C 0.51042 0.06894 0.20722 0.0
C329 C 0.46741 0.05847 0.20843 0.0
C330 C 0.5798 0.08897 0.24185 0.0
C331 C 0.60472 0.10906 0.27462 0.0
C332 C 0.65242 0.13755 0.27456 0.0
C333 C 0.67182 0.16537 0.30798 0.0
C334 C 0.71576 0.19473 0.3091 0.0
C335 C 0.74198 0.19709 0.27693 0.0
H336 H 0.66551 0.1174 0.21671 0.0
C337 C 0.72316 0.16821 0.24399 0.0
C338 C 0.67878 0.13879 0.24269 0.0
H339 H 0.74253 0.16911 0.21881 0.0
H340 H 0.44858 0.03416 0.30723 0.0
H341 H 0.52295 0.05048 0.30498 0.0
H342 H 0.52773 0.08055 0.17949 0.0
H343 H 0.45291 0.06321 0.18194 0.0
H344 H 0.59459 0.09209 0.21283 0.0
H345 H 0.58917 0.1082 0.30276 0.0
H346 H 0.65273 0.16506 0.33322 0.0
H347 H 0.7292 0.2157 0.33538 0.0
C348 C 0.60008 0.55329 0.29154 0.0
C349 C 0.62278 0.57853 0.25906 0.0
C350 C 0.56848 0.51024 0.28522 0.0
C351 C 0.55955 0.49155 0.24618 0.0
C352 C 0.57992 0.51795 0.21352 0.0
C353 C 0.61118 0.56112 0.21988 0.0
C354 C 0.53594 0.44411 0.23935 0.0
C355 C 0.50769 0.41598 0.26526 0.0
C356 C 0.4932 0.36938 0.26269 0.0
C357 C 0.45173 0.3391 0.27476 0.0
C358 C 0.43916 0.2955 0.27619 0.0
C359 C 0.46834 0.28166 0.26684 0.0
H360 H 0.55443 0.37776 0.24366 0.0
C361 C 0.50967 0.31187 0.25451 0.0
C362 C 0.52189 0.35518 0.25212 0.0
H363 H 0.53269 0.30194 0.24713 0.0
H364 H 0.60954 0.5657 0.3221 0.0
H365 H 0.55426 0.49097 0.31129 0.0
H366 H 0.57395 0.50441 0.18319 0.0
H367 H 0.62923 0.5796 0.19449 0.0
H368 H 0.54432 0.43176 0.21288 0.0
H369 H 0.49583 0.42729 0.28985 0.0
H370 H 0.42923 0.34928 0.28356 0.0
H371 H 0.40725 0.27282 0.28615 0.0
C372 C 0.95868 0.41401 0.21946 0.0
C373 C 0.97971 0.40538 0.25022 0.0
C374 C 0.94983 0.44746 0.22388 0.0
C375 C 0.96166 0.47297 0.25952 0.0
C376 C 0.98616 0.46659 0.28866 0.0
C377 C 0.99509 0.43307 0.28409 0.0
C378 C 0.94347 0.50116 0.27018 0.0
C379 C 0.92222 0.51238 0.24411 0.0
C380 C 0.89541 0.53134 0.25681 0.0
C381 C 0.88531 0.55368 0.22881 0.0
C382 C 0.8564 0.56773 0.23828 0.0
C383 C 0.83628 0.55909 0.2758 0.0
H384 H 0.88189 0.50563 0.31689 0.0
C385 C 0.84695 0.5374 0.30407 0.0
C386 C 0.87607 0.5237 0.29476 0.0
H387 H 0.83242 0.53059 0.33339 0.0
H388 H 0.9455 0.39231 0.19354 0.0
H389 H 0.93057 0.45045 0.2007 0.0
H390 H 0.9957 0.48553 0.31646 0.0
H391 H 1.01022 0.42628 0.30876 0.0
H392 H 0.9455 0.51083 0.30163 0.0
H393 H 0.9231 0.50642 0.21213 0.0
H394 H 0.89922 0.55958 0.19917 0.0
H395 H 0.84866 0.58402 0.21571 0.0
C396 C 0.07778 0.47302 0.7825 0.0
C397 C 0.05479 0.43913 0.75449 0.0
C398 C 0.08617 0.5143 0.77487 0.0
C399 C 0.07147 0.5228 0.73914 0.0
C400 C 0.04482 0.48829 0.71285 0.0
C401 C 0.03684 0.4466 0.72028 0.0
C402 C 0.0854 0.56794 0.72931 0.0
C403 C 0.12705 0.59885 0.73332 0.0
C404 C 0.14343 0.64586 0.73193 0.0
C405 C 0.18741 0.67389 0.72555 0.0
C406 C 0.20574 0.71832 0.73194 0.0
C407 C 0.18053 0.73538 0.74565 0.0
H408 H 0.08395 0.64308 0.74869 0.0
C409 C 0.13617 0.70771 0.74978 0.0
C410 C 0.11771 0.66347 0.7428 0.0
H411 H 0.11613 0.72025 0.76038 0.0
H412 H 0.09202 0.46817 0.80913 0.0
H413 H 0.10565 0.54002 0.79628 0.0
H414 H 0.03259 0.49406 0.68538 0.0
H415 H 0.01965 0.42122 0.6979 0.0
H416 H 0.06145 0.57558 0.71919 0.0
H417 H 0.15054 0.58925 0.73995 0.0
H418 H 0.20806 0.66119 0.71744 0.0
H419 H 0.24002 0.73895 0.72897 0.0
C420 C 0.39412 0.92042 0.72477 0.0
C421 C 0.39242 0.95249 0.74801 0.0
C422 C 0.42837 0.91312 0.72895 0.0
C423 C 0.46171 0.9376 0.75686 0.0
C424 C 0.46115 0.97135 0.77851 0.0
C425 C 0.42691 0.97905 0.77385 0.0
C426 C 0.49327 0.92429 0.76805 0.0
C427 C 0.50339 0.90057 0.74336 0.0
C428 C 0.52536 0.8774 0.75708 0.0
C429 C 0.52172 0.86327 0.79672 0.0
C430 C 0.5374 0.8363 0.80731 0.0
C431 C 0.55718 0.82295 0.77866 0.0
H432 H 0.54865 0.87463 0.69781 0.0
C433 C 0.56202 0.83813 0.73941 0.0
C434 C 0.54591 0.86473 0.72868 0.0
H435 H 0.57678 0.82812 0.71659 0.0
H436 H 0.36758 0.89925 0.70494 0.0
H437 H 0.42674 0.88615 0.71238 0.0
H438 H 0.48618 0.99044 0.80048 0.0
H439 H 0.42586 1.00349 0.79257 0.0
H440 H 0.50651 0.93221 0.79844 0.0
H441 H 0.49366 0.89627 0.7119 0.0
H442 H 0.50513 0.87131 0.81927 0.0
H443 H 0.53356 0.82547 0.83788 0.0
C444 C 0.31837 0.4801 0.80273 0.0
C445 C 0.28698 0.45915 0.77233 0.0
C446 C 0.36147 0.49383 0.7954 0.0
C447 C 0.37436 0.48687 0.75738 0.0
C448 C 0.34287 0.46529 0.72721 0.0
C449 C 0.29965 0.45127 0.73466 0.0
C450 C 0.4205 0.50594 0.74702 0.0
C451 C 0.45208 0.51688 0.77464 0.0
C452 C 0.49873 0.54581 0.76696 0.0
C453 C 0.52859 0.55279 0.79774 0.0
C454 C 0.5709 0.58697 0.79623 0.0
C455 C 0.58405 0.61462 0.76378 0.0
H456 H 0.49199 0.56794 0.70841 0.0
C457 C 0.55558 0.60549 0.73138 0.0
C458 C 0.51341 0.57141 0.73277 0.0
H459 H 0.56484 0.62713 0.70649 0.0
H460 H 0.30971 0.48629 0.83221 0.0
H461 H 0.38464 0.51138 0.81921 0.0
H462 H 0.35184 0.45997 0.69749 0.0
H463 H 0.27638 0.43556 0.71049 0.0
H464 H 0.42836 0.51243 0.71559 0.0
H465 H 0.44339 0.50666 0.80533 0.0
H466 H 0.51838 0.53377 0.82449 0.0
H467 H 0.59198 0.59414 0.82206 0.0
C468 C 0.27705 0.1547 0.28426 0.0
C469 C 0.26446 0.11371 0.26779 0.0
C470 C 0.24997 0.17182 0.28184 0.0
C471 C 0.20961 0.14842 0.26267 0.0
C472 C 0.19658 0.10705 0.24698 0.0
C473 C 0.22353 0.08961 0.2499 0.0
C474 C 0.18245 0.16799 0.25563 0.0
C475 C 0.18276 0.19829 0.28041 0.0
C476 C 0.15881 0.22077 0.2714 0.0
C477 C 0.14264 0.23447 0.3032 0.0
C478 C 0.12096 0.25673 0.29562 0.0
C479 C 0.11609 0.26679 0.25615 0.0
H480 H 0.16711 0.22182 0.20675 0.0
C481 C 0.13311 0.25394 0.22437 0.0
C482 C 0.15404 0.23093 0.23186 0.0
H483 H 0.1295 0.26097 0.19365 0.0
H484 H 0.30845 0.17417 0.29813 0.0
H485 H 0.26165 0.20417 0.29342 0.0
H486 H 0.16578 0.08848 0.2318 0.0
H487 H 0.21306 0.05807 0.23669 0.0
H488 H 0.16142 0.15689 0.22928 0.0
H489 H 0.20034 0.20634 0.30881 0.0
H490 H 0.1464 0.22755 0.33396 0.0
H491 H 0.10831 0.26649 0.32062 0.0
C492 C 0.89767 0.74786 0.3009 0.0
C493 C 0.86928 0.76125 0.2878 0.0
C494 C 0.94188 0.77502 0.29891 0.0
C495 C 0.95895 0.81618 0.28311 0.0
C496 C 0.93064 0.83049 0.27206 0.0
C497 C 0.88615 0.80326 0.27434 0.0
C498 C 1.00593 0.84458 0.2777 0.0
C499 C 0.0329 0.82915 0.27225 0.0
C500 C 0.0799 0.85608 0.2658 0.0
C501 C 0.10223 0.83613 0.25093 0.0
C502 C 0.14639 0.85984 0.24458 0.0
C503 C 0.16945 0.90419 0.25316 0.0
H504 H 0.08761 0.91708 0.28731 0.0
C505 C 0.1472 0.92412 0.26848 0.0
C506 C 0.10306 0.90041 0.27489 0.0
H507 H 0.16365 0.95828 0.27503 0.0
H508 H 0.8857 0.71591 0.31214 0.0
H509 H 0.96244 0.76339 0.30961 0.0
H510 H 0.94292 0.86231 0.26044 0.0
H511 H 0.86506 0.81452 0.26415 0.0
H512 H 0.01777 0.8787 0.2758 0.0
H513 H 0.01981 0.79467 0.27062 0.0
H514 H 0.08541 0.80197 0.24402 0.0
H515 H 0.16248 0.84334 0.23322 0.0
C516 C 0.86325 0.12782 0.27203 0.0
C517 C 0.90705 0.15625 0.26566 0.0
C518 C 0.84671 0.08361 0.2707 0.0
C519 C 0.87348 0.0665 0.2626 0.0
C520 C 0.91756 0.09483 0.25759 0.0
C521 C 0.93422 0.13934 0.25888 0.0
C522 C 0.85632 0.01936 0.26063 0.0
C523 C 0.8156 0.99113 0.24886 0.0
C524 C 0.79547 0.94355 0.24939 0.0
C525 C 0.75062 0.91857 0.24561 0.0
C526 C 0.72974 0.87392 0.24779 0.0
C527 C 0.75325 0.85301 0.25355 0.0
H528 H 0.85374 0.94011 0.25615 0.0
C529 C 0.79826 0.87785 0.25614 0.0
C530 C 0.81916 0.92254 0.25401 0.0
H531 H 0.81748 0.86298 0.2609 0.0
H532 H 0.84143 0.13967 0.27788 0.0
H533 H 0.81296 0.06304 0.27651 0.0
H534 H 0.93901 0.08249 0.25198 0.0
H535 H 0.96814 0.1604 0.25406 0.0
H536 H 0.87806 1.00827 0.26914 0.0
H537 H 0.79507 1.00338 0.23925 0.0
H538 H 0.73145 0.9337 0.24164 0.0
H539 H 0.69514 0.85578 0.24511 0.0
C540 C 0.16328 0.2728 0.77907 0.0
C541 C 0.12139 0.25804 0.76453 0.0
C542 C 0.18171 0.24694 0.77631 0.0
C543 C 0.15894 0.20567 0.75843 0.0
C544 C 0.11628 0.18999 0.74564 0.0
C545 C 0.09762 0.21599 0.74857 0.0
C546 C 0.1788 0.17829 0.75361 0.0
C547 C 0.22157 0.19475 0.75036 0.0
C548 C 0.24274 0.16845 0.74716 0.0
C549 C 0.28475 0.18727 0.73255 0.0
C550 C 0.30612 0.16389 0.72997 0.0
C551 C 0.28608 0.12125 0.74238 0.0
H552 H 0.19107 0.11042 0.77241 0.0
C553 C 0.24414 0.10261 0.75734 0.0
C554 C 0.22285 0.1259 0.7599 0.0
H555 H 0.22718 0.06963 0.76654 0.0
H556 H 0.18226 0.30478 0.79228 0.0
H557 H 0.21383 0.25955 0.78834 0.0
H558 H 0.09773 0.15796 0.73243 0.0
H559 H 0.06524 0.2037 0.73727 0.0
H560 H 0.1573 0.14387 0.75115 0.0
H561 H 0.24233 0.22926 0.74885 0.0
H562 H 0.3011 0.22018 0.72294 0.0
H563 H 0.3384 0.17922 0.71852 0.0
C564 C 0.13054 0.89031 0.72679 0.0
C565 C 0.1587 0.92521 0.75163 0.0
C566 C 0.08664 0.87437 0.72822 0.0
C567 C 0.06981 0.89233 0.75537 0.0
C568 C 0.09819 0.92948 0.77795 0.0
C569 C 0.14262 0.94594 0.77611 0.0
C570 C 0.02284 0.87162 0.76116 0.0
C571 C 0.99743 0.82853 0.75821 0.0
C572 C 0.94994 0.8045 0.76138 0.0
C573 C 0.92836 0.75966 0.75548 0.0
C574 C 0.88366 0.7355 0.75592 0.0
C575 C 0.85947 0.75561 0.76257 0.0
H576 H 0.94049 0.85887 0.7733 0.0
C577 C 0.88097 0.80035 0.76929 0.0
C578 C 0.92565 0.82457 0.76866 0.0
H579 H 0.86327 0.817 0.77378 0.0
H580 H 0.14249 0.87437 0.70713 0.0
H581 H 0.0659 0.84714 0.7088 0.0
H582 H 0.08594 0.94441 0.79848 0.0
H583 H 0.16398 0.97298 0.79546 0.0
H584 H 1.00996 0.89216 0.76922 0.0
H585 H 1.01235 0.80916 0.75278 0.0
H586 H 0.94612 0.7432 0.74986 0.0
H587 H 0.86799 0.7011 0.75091 0.0
C588 C 0.91406 0.14274 0.78127 0.0
C589 C 0.91351 0.16086 0.74446 0.0
C590 C 0.89474 0.09825 0.78457 0.0
C591 C 0.87435 0.07077 0.75103 0.0
C592 C 0.87376 0.08888 0.7143 0.0
C593 C 0.8928 0.13337 0.71109 0.0
C594 C 0.85418 0.0233 0.75305 0.0
C595 C 0.83742 1.00168 0.78693 0.0
C596 C 0.81301 0.95409 0.78775 0.0
C597 C 0.77721 0.93429 0.81255 0.0
C598 C 0.75155 0.88972 0.81222 0.0
C599 C 0.76181 0.86383 0.78794 0.0
H600 H 0.85228 0.94266 0.74554 0.0
C601 C 0.799 0.88337 0.76471 0.0
C602 C 0.82423 0.92826 0.76429 0.0
H603 H 0.80757 0.86409 0.74571 0.0
H604 H 0.92975 0.16305 0.80751 0.0
H605 H 0.89679 0.08568 0.81317 0.0
H606 H 0.85851 0.06853 0.68792 0.0
H607 H 0.89245 0.14625 0.68213 0.0
H608 H 0.85009 1.00539 0.72507 0.0
H609 H 0.83749 0.01903 0.81408 0.0
H610 H 0.76814 0.95343 0.83119 0.0
H611 H 0.72318 0.87548 0.83061 0.0
loop_
_geom_bond_atom_site_label_1
_geom_bond_atom_site_label_2
_geom_bond_distance
_geom_bond_site_symmetry_2
_ccdc_geom_bond_type
Co0 N5 2.057 1_545 S
Co0 O17 2.021 . S
Co0 O20 2.062 . S
Co0 O24 2.117 . S
Co0 O25 2.020 . S
C1 O21 1.259 . S
C1 O24 1.258 . S
Co2 N11 2.057 . S
Co2 O18 2.117 . S
Co2 O19 2.020 . S
Co2 O21 2.021 . S
Co2 O26 2.062 . S
C3 N5 1.316 . S
C3 N6 1.347 . S
C3 H8 0.931 . S
C4 N5 1.375 . S
C4 C7 1.350 . S
C4 H9 0.930 . S
N5 Co0 2.057 1_565 S
N5 C3 1.316 . S
N5 C4 1.375 . S
N6 C3 1.347 . S
N6 C7 1.373 . S
C7 C4 1.350 . S
C7 N6 1.373 . S
C7 H28 0.931 . S
H8 C3 0.931 . S
H9 C4 0.930 . S
C10 O17 1.259 . S
C10 O18 1.258 . S
N11 Co2 2.057 . S
N11 C12 1.316 . S
N11 C13 1.375 . S
C12 N11 1.316 . S
C12 N14 1.347 . S
C12 H23 0.931 . S
C13 N11 1.375 . S
C13 C15 1.350 . S
C13 H22 0.930 . S
N14 C12 1.347 . S
N14 C15 1.373 . S
C15 C13 1.350 . S
C15 N14 1.373 . S
C15 H29 0.931 . S
C16 O19 1.256 . S
C16 O20 1.255 . S
O17 Co0 2.021 . S
O17 C10 1.259 . S
O18 Co2 2.117 . S
O18 C10 1.258 . S
O19 Co2 2.020 . S
O19 C16 1.256 . S
O20 Co0 2.062 . S
O20 C16 1.255 . S
O21 C1 1.259 . S
O21 Co2 2.021 . S
H22 C13 0.930 . S
H23 C12 0.931 . S
O24 Co0 2.117 . S
O24 C1 1.258 . S
O25 Co0 2.020 . S
O25 C27 1.256 . S
O26 Co2 2.062 . S
O26 C27 1.255 . S
C27 O25 1.256 . S
C27 O26 1.255 . S
H28 C7 0.931 . S
H29 C15 0.931 . S
Co30 N35 2.057 . S
Co30 O47 2.021 . S
Co30 O50 2.062 . S
Co30 O54 2.117 . S
Co30 O55 2.020 . S
C31 O51 1.259 . S
C31 O54 1.258 . S
Co32 N41 2.057 . S
Co32 O48 2.117 . S
Co32 O49 2.020 . S
Co32 O51 2.021 . S
Co32 O56 2.062 . S
C33 N35 1.316 . S
C33 N36 1.347 . S
C33 H38 0.931 . S
C34 N35 1.375 . S
C34 C37 1.350 . S
C34 H39 0.930 . S
N35 Co30 2.057 . S
N35 C33 1.316 . S
N35 C34 1.375 . S
N36 C33 1.347 . S
N36 C37 1.373 . S
C37 C34 1.350 . S
C37 N36 1.373 . S
C37 H58 0.931 . S
H38 C33 0.931 . S
H39 C34 0.930 . S
C40 O47 1.259 . S
C40 O48 1.258 . S
N41 Co32 2.057 . S
N41 C42 1.316 . S
N41 C43 1.375 . S
C42 N41 1.316 . S
C42 N44 1.347 . S
C42 H53 0.931 . S
C43 N41 1.375 . S
C43 C45 1.350 . S
C43 H52 0.930 . S
N44 C42 1.347 . S
N44 C45 1.373 . S
C45 C43 1.350 . S
C45 N44 1.373 . S
C45 H59 0.931 . S
C46 O49 1.256 . S
C46 O50 1.255 . S
O47 Co30 2.021 . S
O47 C40 1.259 . S
O48 Co32 2.117 . S
O48 C40 1.258 . S
O49 Co32 2.020 . S
O49 C46 1.256 . S
O50 Co30 2.062 . S
O50 C46 1.255 . S
O51 C31 1.259 . S
O51 Co32 2.021 . S
H52 C43 0.930 . S
H53 C42 0.931 . S
O54 Co30 2.117 . S
O54 C31 1.258 . S
O55 Co30 2.020 . S
O55 C57 1.256 . S
O56 Co32 2.062 . S
O56 C57 1.255 . S
C57 O55 1.256 . S
C57 O56 1.255 . S
H58 C37 0.931 . S
H59 C45 0.931 . S
Co60 N65 2.057 1_655 S
Co60 O77 2.021 . S
Co60 O80 2.062 . S
Co60 O84 2.117 . S
Co60 O85 2.020 . S
C61 O81 1.259 . S
C61 O84 1.258 . S
Co62 N71 2.057 . S
Co62 O78 2.117 . S
Co62 O79 2.020 . S
Co62 O81 2.021 . S
Co62 O86 2.062 . S
C63 N65 1.316 . S
C63 N66 1.347 . S
C63 H68 0.931 . S
C64 N65 1.375 . S
C64 C67 1.350 . S
C64 H69 0.930 . S
N65 Co60 2.057 1_455 S
N65 C63 1.316 . S
N65 C64 1.375 . S
N66 C63 1.347 . S
N66 C67 1.373 . S
C67 C64 1.350 . S
C67 N66 1.373 . S
C67 H88 0.931 . S
H68 C63 0.931 . S
H69 C64 0.930 . S
C70 O77 1.259 . S
C70 O78 1.258 . S
N71 Co62 2.057 . S
N71 C72 1.316 . S
N71 C73 1.375 . S
C72 N71 1.316 . S
C72 N74 1.347 . S
C72 H83 0.931 . S
C73 N71 1.375 . S
C73 C75 1.350 . S
C73 H82 0.930 . S
N74 C72 1.347 . S
N74 C75 1.373 . S
C75 C73 1.350 . S
C75 N74 1.373 . S
C75 H89 0.931 . S
C76 O79 1.256 . S
C76 O80 1.255 . S
O77 Co60 2.021 . S
O77 C70 1.259 . S
O78 Co62 2.117 . S
O78 C70 1.258 . S
O79 Co62 2.020 . S
O79 C76 1.256 . S
O80 Co60 2.062 . S
O80 C76 1.255 . S
O81 C61 1.259 . S
O81 Co62 2.021 . S
H82 C73 0.930 . S
H83 C72 0.931 . S
O84 Co60 2.117 . S
O84 C61 1.258 . S
O85 Co60 2.020 . S
O85 C87 1.256 . S
O86 Co62 2.062 . S
O86 C87 1.255 . S
C87 O85 1.256 . S
C87 O86 1.255 . S
H88 C67 0.931 . S
H89 C75 0.931 . S
Co90 N95 2.057 . S
Co90 O107 2.021 . S
Co90 O110 2.062 . S
Co90 O114 2.117 . S
Co90 O115 2.020 . S
C91 O111 1.259 . S
C91 O114 1.258 . S
Co92 N101 2.057 1_455 S
Co92 O108 2.117 . S
Co92 O109 2.020 . S
Co92 O111 2.021 . S
Co92 O116 2.062 . S
C93 N95 1.316 . S
C93 N96 1.347 . S
C93 H98 0.931 . S
C94 N95 1.375 . S
C94 C97 1.350 . S
C94 H99 0.930 . S
N95 Co90 2.057 . S
N95 C93 1.316 . S
N95 C94 1.375 . S
N96 C93 1.347 . S
N96 C97 1.373 . S
C97 C94 1.350 . S
C97 N96 1.373 . S
C97 H118 0.931 . S
H98 C93 0.931 . S
H99 C94 0.930 . S
C100 O107 1.259 . S
C100 O108 1.258 . S
N101 Co92 2.057 1_655 S
N101 C102 1.316 . S
N101 C103 1.375 . S
C102 N101 1.316 . S
C102 N104 1.347 . S
C102 H113 0.931 . S
C103 N101 1.375 . S
C103 C105 1.350 . S
C103 H112 0.930 . S
N104 C102 1.347 . S
N104 C105 1.373 . S
C105 C103 1.350 . S
C105 N104 1.373 . S
C105 H119 0.931 . S
C106 O109 1.256 . S
C106 O110 1.255 . S
O107 Co90 2.021 . S
O107 C100 1.259 . S
O108 Co92 2.117 . S
O108 C100 1.258 . S
O109 Co92 2.020 . S
O109 C106 1.256 . S
O110 Co90 2.062 . S
O110 C106 1.255 . S
O111 C91 1.259 . S
O111 Co92 2.021 . S
H112 C103 0.930 . S
H113 C102 0.931 . S
O114 Co90 2.117 . S
O114 C91 1.258 . S
O115 Co90 2.020 . S
O115 C117 1.256 . S
O116 Co92 2.062 . S
O116 C117 1.255 . S
C117 O115 1.256 . S
C117 O116 1.255 . S
H118 C97 0.931 . S
H119 C105 0.931 . S
Co120 N125 2.057 . S
Co120 O137 2.021 . S
Co120 O140 2.062 . S
Co120 O144 2.117 . S
Co120 O145 2.020 . S
C121 O141 1.259 . S
C121 O144 1.258 . S
Co122 N131 2.057 1_565 S
Co122 O138 2.117 . S
Co122 O139 2.020 . S
Co122 O141 2.021 . S
Co122 O146 2.062 . S
C123 N125 1.316 . S
C123 N126 1.347 . S
C123 H128 0.931 . S
C124 N125 1.375 . S
C124 C127 1.350 . S
C124 H129 0.930 . S
N125 Co120 2.057 . S
N125 C123 1.316 . S
N125 C124 1.375 . S
N126 C123 1.347 . S
N126 C127 1.373 . S
C127 C124 1.350 . S
C127 N126 1.373 . S
C127 H148 0.931 . S
H128 C123 0.931 . S
H129 C124 0.930 . S
C130 O137 1.259 . S
C130 O138 1.258 . S
N131 Co122 2.057 1_545 S
N131 C132 1.316 . S
N131 C133 1.375 . S
C132 N131 1.316 . S
C132 N134 1.347 . S
C132 H143 0.931 . S
C133 N131 1.375 . S
C133 C135 1.350 . S
C133 H142 0.930 . S
N134 C132 1.347 . S
N134 C135 1.373 . S
C135 C133 1.350 . S
C135 N134 1.373 . S
C135 H149 0.931 . S
C136 O139 1.256 . S
C136 O140 1.255 . S
O137 Co120 2.021 . S
O137 C130 1.259 . S
O138 Co122 2.117 . S
O138 C130 1.258 . S
O139 Co122 2.020 . S
O139 C136 1.256 . S
O140 Co120 2.062 . S
O140 C136 1.255 . S
O141 C121 1.259 . S
O141 Co122 2.021 . S
H142 C133 0.930 . S
H143 C132 0.931 . S
O144 Co120 2.117 . S
O144 C121 1.258 . S
O145 Co120 2.020 . S
O145 C147 1.256 . S
O146 Co122 2.062 . S
O146 C147 1.255 . S
C147 O145 1.256 . S
C147 O146 1.255 . S
H148 C127 0.931 . S
H149 C135 0.931 . S
Co150 N155 2.057 . S
Co150 O167 2.021 . S
Co150 O170 2.062 . S
Co150 O174 2.117 . S
Co150 O175 2.020 . S
C151 O171 1.259 . S
C151 O174 1.258 . S
Co152 N161 2.057 . S
Co152 O168 2.117 . S
Co152 O169 2.020 . S
Co152 O171 2.021 . S
Co152 O176 2.062 . S
C153 N155 1.316 . S
C153 N156 1.347 . S
C153 H158 0.931 . S
C154 N155 1.375 . S
C154 C157 1.350 . S
C154 H159 0.930 . S
N155 Co150 2.057 . S
N155 C153 1.316 . S
N155 C154 1.375 . S
N156 C153 1.347 . S
N156 C157 1.373 . S
C157 C154 1.350 . S
C157 N156 1.373 . S
C157 H178 0.931 . S
H158 C153 0.931 . S
H159 C154 0.930 . S
C160 O167 1.259 . S
C160 O168 1.258 . S
N161 Co152 2.057 . S
N161 C162 1.316 . S
N161 C163 1.375 . S
C162 N161 1.316 . S
C162 N164 1.347 . S
C162 H173 0.931 . S
C163 N161 1.375 . S
C163 C165 1.350 . S
C163 H172 0.930 . S
N164 C162 1.347 . S
N164 C165 1.373 . S
C165 C163 1.350 . S
C165 N164 1.373 . S
C165 H179 0.931 . S
C166 O169 1.256 . S
C166 O170 1.255 . S
O167 Co150 2.021 . S
O167 C160 1.259 . S
O168 Co152 2.117 . S
O168 C160 1.258 . S
O169 Co152 2.020 . S
O169 C166 1.256 . S
O170 Co150 2.062 . S
O170 C166 1.255 . S
O171 C151 1.259 . S
O171 Co152 2.021 . S
H172 C163 0.930 . S
H173 C162 0.931 . S
O174 Co150 2.117 . S
O174 C151 1.258 . S
O175 Co150 2.020 . S
O175 C177 1.256 . S
O176 Co152 2.062 . S
O176 C177 1.255 . S
C177 O175 1.256 . S
C177 O176 1.255 . S
H178 C157 0.931 . S
H179 C165 0.931 . S
C180 C181 1.386 . S
C180 C182 1.383 . S
C180 H196 0.951 . S
C181 C180 1.386 . S
C181 C185 1.383 . S
C182 C180 1.383 . S
C182 C183 1.402 . S
C182 H197 0.951 . S
C183 C182 1.402 . S
C183 C184 1.375 . S
C183 C186 1.481 1_565 S
C184 C183 1.375 . S
C184 C185 1.367 . S
C184 H198 0.951 1_565 S
C185 C181 1.383 . S
C185 C184 1.367 . S
C185 H199 0.950 . S
C186 C183 1.481 1_545 S
C186 C187 1.297 1_556 S
C186 H200 0.950 . S
C187 C186 1.297 1_554 S
C187 C188 1.479 . S
C187 H201 0.950 1_545 S
C188 C187 1.479 . S
C188 C189 1.375 . S
C188 C194 1.404 . S
C189 C188 1.375 . S
C189 C190 1.369 . S
C189 H202 0.950 . S
C190 C189 1.369 . S
C190 C191 1.392 . S
C190 H203 0.951 . S
C191 C190 1.392 . S
C191 C193 1.384 . S
H192 C194 0.949 . S
C193 C191 1.384 . S
C193 C194 1.385 . S
C193 H195 0.950 . S
C194 C188 1.404 . S
C194 H192 0.949 . S
C194 C193 1.385 . S
H195 C193 0.950 . S
H196 C180 0.951 . S
H197 C182 0.951 . S
H198 C184 0.951 1_545 S
H199 C185 0.950 . S
H200 C186 0.950 . S
H201 C187 0.950 1_565 S
H202 C189 0.950 . S
H203 C190 0.951 . S
C204 C205 1.386 . S
C204 C206 1.383 . S
C204 H220 0.951 . S
C205 C204 1.386 . S
C205 C209 1.383 . S
C206 C204 1.383 . S
C206 C207 1.402 . S
C206 H221 0.951 . S
C207 C206 1.402 . S
C207 C208 1.375 . S
C207 C210 1.481 . S
C208 C207 1.375 . S
C208 C209 1.367 . S
C208 H222 0.951 . S
C209 C205 1.383 . S
C209 C208 1.367 . S
C209 H223 0.950 . S
C210 C207 1.481 . S
C210 C211 1.297 . S
C210 H224 0.950 . S
C211 C210 1.297 . S
C211 C212 1.479 . S
C211 H225 0.950 . S
C212 C211 1.479 . S
C212 C213 1.375 . S
C212 C218 1.404 . S
C213 C212 1.375 . S
C213 C214 1.369 . S
C213 H226 0.950 . S
C214 C213 1.369 . S
C214 C215 1.392 . S
C214 H227 0.951 . S
C215 C214 1.392 . S
C215 C217 1.384 . S
H216 C218 0.949 . S
C217 C215 1.384 . S
C217 C218 1.385 . S
C217 H219 0.950 . S
C218 C212 1.404 . S
C218 H216 0.949 . S
C218 C217 1.385 . S
H219 C217 0.950 . S
H220 C204 0.951 . S
H221 C206 0.951 . S
H222 C208 0.951 . S
H223 C209 0.950 . S
H224 C210 0.950 . S
H225 C211 0.950 . S
H226 C213 0.950 . S
H227 C214 0.951 . S
C228 C229 1.386 . S
C228 C230 1.383 . S
C228 H244 0.951 . S
C229 C228 1.386 . S
C229 C233 1.383 . S
C230 C228 1.383 . S
C230 C231 1.402 . S
C230 H245 0.951 . S
C231 C230 1.402 . S
C231 C232 1.375 . S
C231 C234 1.481 . S
C232 C231 1.375 . S
C232 C233 1.367 . S
C232 H246 0.951 . S
C233 C229 1.383 . S
C233 C232 1.367 . S
C233 H247 0.950 . S
C234 C231 1.481 . S
C234 C235 1.297 1_554 S
C234 H248 0.950 . S
C235 C234 1.297 1_556 S
C235 C236 1.479 1_655 S
C235 H249 0.950 . S
C236 C235 1.479 1_455 S
C236 C237 1.375 . S
C236 C242 1.404 . S
C237 C236 1.375 . S
C237 C238 1.369 . S
C237 H250 0.950 . S
C238 C237 1.369 . S
C238 C239 1.392 . S
C238 H251 0.951 . S
C239 C238 1.392 . S
C239 C241 1.384 . S
H240 C242 0.949 . S
C241 C239 1.384 . S
C241 C242 1.385 . S
C241 H243 0.950 . S
C242 C236 1.404 . S
C242 H240 0.949 . S
C242 C241 1.385 . S
H243 C241 0.950 . S
H244 C228 0.951 . S
H245 C230 0.951 . S
H246 C232 0.951 . S
H247 C233 0.950 . S
H248 C234 0.950 . S
H249 C235 0.950 . S
H250 C237 0.950 . S
H251 C238 0.951 . S
C252 C253 1.386 . S
C252 C254 1.383 . S
C252 H268 0.951 . S
C253 C252 1.386 . S
C253 C257 1.383 . S
C254 C252 1.383 . S
C254 C255 1.402 . S
C254 H269 0.951 1_545 S
C255 C254 1.402 . S
C255 C256 1.375 . S
C255 C258 1.481 . S
C256 C255 1.375 . S
C256 C257 1.367 . S
C256 H270 0.951 . S
C257 C253 1.383 . S
C257 C256 1.367 . S
C257 H271 0.950 . S
C258 C255 1.481 . S
C258 C259 1.297 1_545 S
C258 H272 0.950 . S
C259 C258 1.297 1_565 S
C259 C260 1.479 . S
C259 H273 0.950 . S
C260 C259 1.479 . S
C260 C261 1.375 . S
C260 C266 1.404 . S
C261 C260 1.375 . S
C261 C262 1.369 . S
C261 H274 0.950 . S
C262 C261 1.369 . S
C262 C263 1.392 . S
C262 H275 0.951 . S
C263 C262 1.392 . S
C263 C265 1.384 . S
H264 C266 0.949 1_545 S
C265 C263 1.384 . S
C265 C266 1.385 . S
C265 H267 0.950 . S
C266 C260 1.404 . S
C266 H264 0.949 1_565 S
C266 C265 1.385 . S
H267 C265 0.950 . S
H268 C252 0.951 . S
H269 C254 0.951 1_565 S
H270 C256 0.951 . S
H271 C257 0.950 . S
H272 C258 0.950 . S
H273 C259 0.950 . S
H274 C261 0.950 . S
H275 C262 0.951 . S
C276 C277 1.386 . S
C276 C278 1.383 . S
C276 H292 0.951 . S
C277 C276 1.386 . S
C277 C281 1.383 . S
C278 C276 1.383 . S
C278 C279 1.402 . S
C278 H293 0.951 . S
C279 C278 1.402 . S
C279 C280 1.375 . S
C279 C282 1.481 . S
C280 C279 1.375 . S
C280 C281 1.367 . S
C280 H294 0.951 . S
C281 C277 1.383 . S
C281 C280 1.367 . S
C281 H295 0.950 . S
C282 C279 1.481 . S
C282 C283 1.297 1_556 S
C282 H296 0.950 1_556 S
C283 C282 1.297 1_554 S
C283 C284 1.479 . S
C283 H297 0.950 1_554 S
C284 C283 1.479 . S
C284 C285 1.375 . S
C284 C290 1.404 . S
C285 C284 1.375 . S
C285 C286 1.369 . S
C285 H298 0.950 . S
C286 C285 1.369 . S
C286 C287 1.392 . S
C286 H299 0.951 . S
C287 C286 1.392 . S
C287 C289 1.384 . S
H288 C290 0.949 . S
C289 C287 1.384 . S
C289 C290 1.385 . S
C289 H291 0.950 . S
C290 C284 1.404 . S
C290 H288 0.949 . S
C290 C289 1.385 . S
H291 C289 0.950 . S
H292 C276 0.951 . S
H293 C278 0.951 . S
H294 C280 0.951 . S
H295 C281 0.950 . S
H296 C282 0.950 1_554 S
H297 C283 0.950 1_556 S
H298 C285 0.950 . S
H299 C286 0.951 . S
C300 C301 1.386 . S
C300 C302 1.383 . S
C300 H316 0.951 . S
C301 C300 1.386 . S
C301 C305 1.383 . S
C302 C300 1.383 . S
C302 C303 1.402 . S
C302 H317 0.951 . S
C303 C302 1.402 . S
C303 C304 1.375 . S
C303 C306 1.481 . S
C304 C303 1.375 . S
C304 C305 1.367 . S
C304 H318 0.951 . S
C305 C301 1.383 . S
C305 C304 1.367 . S
C305 H319 0.950 . S
C306 C303 1.481 . S
C306 C307 1.297 . S
C306 H320 0.950 . S
C307 C306 1.297 . S
C307 C308 1.479 1_655 S
C307 H321 0.950 . S
C308 C307 1.479 1_455 S
C308 C309 1.375 . S
C308 C314 1.404 . S
C309 C308 1.375 . S
C309 C310 1.369 . S
C309 H322 0.950 . S
C310 C309 1.369 . S
C310 C311 1.392 . S
C310 H323 0.951 . S
C311 C310 1.392 . S
C311 C313 1.384 . S
H312 C314 0.949 . S
C313 C311 1.384 . S
C313 C314 1.385 . S
C313 H315 0.950 . S
C314 C308 1.404 . S
C314 H312 0.949 . S
C314 C313 1.385 . S
H315 C313 0.950 . S
H316 C300 0.951 . S
H317 C302 0.951 . S
H318 C304 0.951 . S
H319 C305 0.950 . S
H320 C306 0.950 . S
H321 C307 0.950 . S
H322 C309 0.950 . S
H323 C310 0.951 . S
C324 C325 1.386 . S
C324 C326 1.383 . S
C324 H340 0.951 . S
C325 C324 1.386 . S
C325 C329 1.383 . S
C326 C324 1.383 . S
C326 C327 1.402 . S
C326 H341 0.951 . S
C327 C326 1.402 . S
C327 C328 1.375 . S
C327 C330 1.481 . S
C328 C327 1.375 . S
C328 C329 1.367 . S
C328 H342 0.951 . S
C329 C325 1.383 . S
C329 C328 1.367 . S
C329 H343 0.950 . S
C330 C327 1.481 . S
C330 C331 1.297 . S
C330 H344 0.950 . S
C331 C330 1.297 . S
C331 C332 1.479 . S
C331 H345 0.950 . S
C332 C331 1.479 . S
C332 C333 1.375 . S
C332 C338 1.404 . S
C333 C332 1.375 . S
C333 C334 1.369 . S
C333 H346 0.950 . S
C334 C333 1.369 . S
C334 C335 1.392 . S
C334 H347 0.951 . S
C335 C334 1.392 . S
C335 C337 1.384 . S
H336 C338 0.949 . S
C337 C335 1.384 . S
C337 C338 1.385 . S
C337 H339 0.950 . S
C338 C332 1.404 . S
C338 H336 0.949 . S
C338 C337 1.385 . S
H339 C337 0.950 . S
H340 C324 0.951 . S
H341 C326 0.951 . S
H342 C328 0.951 . S
H343 C329 0.950 . S
H344 C330 0.950 . S
H345 C331 0.950 . S
H346 C333 0.950 . S
H347 C334 0.951 . S
C348 C349 1.386 . S
C348 C350 1.383 . S
C348 H364 0.951 . S
C349 C348 1.386 . S
C349 C353 1.383 . S
C350 C348 1.383 . S
C350 C351 1.402 . S
C350 H365 0.951 . S
C351 C350 1.402 . S
C351 C352 1.375 . S
C351 C354 1.481 . S
C352 C351 1.375 . S
C352 C353 1.367 . S
C352 H366 0.951 . S
C353 C349 1.383 . S
C353 C352 1.367 . S
C353 H367 0.950 . S
C354 C351 1.481 . S
C354 C355 1.297 . S
C354 H368 0.950 . S
C355 C354 1.297 . S
C355 C356 1.479 . S
C355 H369 0.950 . S
C356 C355 1.479 . S
C356 C357 1.375 . S
C356 C362 1.404 . S
C357 C356 1.375 . S
C357 C358 1.369 . S
C357 H370 0.950 . S
C358 C357 1.369 . S
C358 C359 1.392 . S
C358 H371 0.951 . S
C359 C358 1.392 . S
C359 C361 1.384 . S
H360 C362 0.949 . S
C361 C359 1.384 . S
C361 C362 1.385 . S
C361 H363 0.950 . S
C362 C356 1.404 . S
C362 H360 0.949 . S
C362 C361 1.385 . S
H363 C361 0.950 . S
H364 C348 0.951 . S
H365 C350 0.951 . S
H366 C352 0.951 . S
H367 C353 0.950 . S
H368 C354 0.950 . S
H369 C355 0.950 . S
H370 C357 0.950 . S
H371 C358 0.951 . S
C372 C373 1.386 . S
C372 C374 1.383 . S
C372 H388 0.951 . S
C373 C372 1.386 . S
C373 C377 1.383 . S
C374 C372 1.383 . S
C374 C375 1.402 . S
C374 H389 0.951 . S
C375 C374 1.402 . S
C375 C376 1.375 . S
C375 C378 1.481 . S
C376 C375 1.375 . S
C376 C377 1.367 . S
C376 H390 0.951 . S
C377 C373 1.383 . S
C377 C376 1.367 . S
C377 H391 0.950 . S
C378 C375 1.481 . S
C378 C379 1.297 . S
C378 H392 0.950 . S
C379 C378 1.297 . S
C379 C380 1.479 . S
C379 H393 0.950 . S
C380 C379 1.479 . S
C380 C381 1.375 . S
C380 C386 1.404 . S
C381 C380 1.375 . S
C381 C382 1.369 . S
C381 H394 0.950 . S
C382 C381 1.369 . S
C382 C383 1.392 . S
C382 H395 0.951 . S
C383 C382 1.392 . S
C383 C385 1.384 . S
H384 C386 0.949 . S
C385 C383 1.384 . S
C385 C386 1.385 . S
C385 H387 0.950 . S
C386 C380 1.404 . S
C386 H384 0.949 . S
C386 C385 1.385 . S
H387 C385 0.950 . S
H388 C372 0.951 . S
H389 C374 0.951 . S
H390 C376 0.951 . S
H391 C377 0.950 . S
H392 C378 0.950 . S
H393 C379 0.950 . S
H394 C381 0.950 . S
H395 C382 0.951 . S
C396 C397 1.386 . S
C396 C398 1.383 . S
C396 H412 0.951 . S
C397 C396 1.386 . S
C397 C401 1.383 . S
C398 C396 1.383 . S
C398 C399 1.402 . S
C398 H413 0.951 . S
C399 C398 1.402 . S
C399 C400 1.375 . S
C399 C402 1.481 . S
C400 C399 1.375 . S
C400 C401 1.367 . S
C400 H414 0.951 . S
C401 C397 1.383 . S
C401 C400 1.367 . S
C401 H415 0.950 . S
C402 C399 1.481 . S
C402 C403 1.297 . S
C402 H416 0.950 . S
C403 C402 1.297 . S
C403 C404 1.479 . S
C403 H417 0.950 . S
C404 C403 1.479 . S
C404 C405 1.375 . S
C404 C410 1.404 . S
C405 C404 1.375 . S
C405 C406 1.369 . S
C405 H418 0.950 . S
C406 C405 1.369 . S
C406 C407 1.392 . S
C406 H419 0.951 . S
C407 C406 1.392 . S
C407 C409 1.384 . S
H408 C410 0.949 . S
C409 C407 1.384 . S
C409 C410 1.385 . S
C409 H411 0.950 . S
C410 C404 1.404 . S
C410 H408 0.949 . S
C410 C409 1.385 . S
H411 C409 0.950 . S
H412 C396 0.951 . S
H413 C398 0.951 . S
H414 C400 0.951 . S
H415 C401 0.950 . S
H416 C402 0.950 . S
H417 C403 0.950 . S
H418 C405 0.950 . S
H419 C406 0.951 . S
C420 C421 1.386 . S
C420 C422 1.383 . S
C420 H436 0.951 . S
C421 C420 1.386 . S
C421 C425 1.383 . S
C422 C420 1.383 . S
C422 C423 1.402 . S
C422 H437 0.951 . S
C423 C422 1.402 . S
C423 C424 1.375 . S
C423 C426 1.481 . S
C424 C423 1.375 . S
C424 C425 1.367 . S
C424 H438 0.951 . S
C425 C421 1.383 . S
C425 C424 1.367 . S
C425 H439 0.950 . S
C426 C423 1.481 . S
C426 C427 1.297 . S
C426 H440 0.950 . S
C427 C426 1.297 . S
C427 C428 1.479 . S
C427 H441 0.950 . S
C428 C427 1.479 . S
C428 C429 1.375 . S
C428 C434 1.404 . S
C429 C428 1.375 . S
C429 C430 1.369 . S
C429 H442 0.950 . S
C430 C429 1.369 . S
C430 C431 1.392 . S
C430 H443 0.951 . S
C431 C430 1.392 . S
C431 C433 1.384 . S
H432 C434 0.949 . S
C433 C431 1.384 . S
C433 C434 1.385 . S
C433 H435 0.950 . S
C434 C428 1.404 . S
C434 H432 0.949 . S
C434 C433 1.385 . S
H435 C433 0.950 . S
H436 C420 0.951 . S
H437 C422 0.951 . S
H438 C424 0.951 . S
H439 C425 0.950 . S
H440 C426 0.950 . S
H441 C427 0.950 . S
H442 C429 0.950 . S
H443 C430 0.951 . S
C444 C445 1.386 . S
C444 C446 1.383 . S
C444 H460 0.951 . S
C445 C444 1.386 . S
C445 C449 1.383 . S
C446 C444 1.383 . S
C446 C447 1.402 . S
C446 H461 0.951 . S
C447 C446 1.402 . S
C447 C448 1.375 . S
C447 C450 1.481 . S
C448 C447 1.375 . S
C448 C449 1.367 . S
C448 H462 0.951 . S
C449 C445 1.383 . S
C449 C448 1.367 . S
C449 H463 0.950 . S
C450 C447 1.481 . S
C450 C451 1.297 . S
C450 H464 0.950 . S
C451 C450 1.297 . S
C451 C452 1.479 . S
C451 H465 0.950 . S
C452 C451 1.479 . S
C452 C453 1.375 . S
C452 C458 1.404 . S
C453 C452 1.375 . S
C453 C454 1.369 . S
C453 H466 0.950 . S
C454 C453 1.369 . S
C454 C455 1.392 . S
C454 H467 0.951 . S
C455 C454 1.392 . S
C455 C457 1.384 . S
H456 C458 0.949 . S
C457 C455 1.384 . S
C457 C458 1.385 . S
C457 H459 0.950 . S
C458 C452 1.404 . S
C458 H456 0.949 . S
C458 C457 1.385 . S
H459 C457 0.950 . S
H460 C444 0.951 . S
H461 C446 0.951 . S
H462 C448 0.951 . S
H463 C449 0.950 . S
H464 C450 0.950 . S
H465 C451 0.950 . S
H466 C453 0.950 . S
H467 C454 0.951 . S
C468 C469 1.386 . S
C468 C470 1.383 . S
C468 H484 0.951 . S
C469 C468 1.386 . S
C469 C473 1.383 . S
C470 C468 1.383 . S
C470 C471 1.402 . S
C470 H485 0.951 . S
C471 C470 1.402 . S
C471 C472 1.375 . S
C471 C474 1.481 . S
C472 C471 1.375 . S
C472 C473 1.367 . S
C472 H486 0.951 . S
C473 C469 1.383 . S
C473 C472 1.367 . S
C473 H487 0.950 . S
C474 C471 1.481 . S
C474 C475 1.297 . S
C474 H488 0.950 . S
C475 C474 1.297 . S
C475 C476 1.479 . S
C475 H489 0.950 . S
C476 C475 1.479 . S
C476 C477 1.375 . S
C476 C482 1.404 . S
C477 C476 1.375 . S
C477 C478 1.369 . S
C477 H490 0.950 . S
C478 C477 1.369 . S
C478 C479 1.392 . S
C478 H491 0.951 . S
C479 C478 1.392 . S
C479 C481 1.384 . S
H480 C482 0.949 . S
C481 C479 1.384 . S
C481 C482 1.385 . S
C481 H483 0.950 . S
C482 C476 1.404 . S
C482 H480 0.949 . S
C482 C481 1.385 . S
H483 C481 0.950 . S
H484 C468 0.951 . S
H485 C470 0.951 . S
H486 C472 0.951 . S
H487 C473 0.950 . S
H488 C474 0.950 . S
H489 C475 0.950 . S
H490 C477 0.950 . S
H491 C478 0.951 . S
C492 C493 1.386 . S
C492 C494 1.383 . S
C492 H508 0.951 . S
C493 C492 1.386 . S
C493 C497 1.383 . S
C494 C492 1.383 . S
C494 C495 1.402 . S
C494 H509 0.951 . S
C495 C494 1.402 . S
C495 C496 1.375 . S
C495 C498 1.481 1_655 S
C496 C495 1.375 . S
C496 C497 1.367 . S
C496 H510 0.951 . S
C497 C493 1.383 . S
C497 C496 1.367 . S
C497 H511 0.950 . S
C498 C495 1.481 1_455 S
C498 C499 1.297 . S
C498 H512 0.950 . S
C499 C498 1.297 . S
C499 C500 1.479 . S
C499 H513 0.950 . S
C500 C499 1.479 . S
C500 C501 1.375 . S
C500 C506 1.404 . S
C501 C500 1.375 . S
C501 C502 1.369 . S
C501 H514 0.950 . S
C502 C501 1.369 . S
C502 C503 1.392 . S
C502 H515 0.951 . S
C503 C502 1.392 . S
C503 C505 1.384 . S
H504 C506 0.949 . S
C505 C503 1.384 . S
C505 C506 1.385 . S
C505 H507 0.950 . S
C506 C500 1.404 . S
C506 H504 0.949 . S
C506 C505 1.385 . S
H507 C505 0.950 . S
H508 C492 0.951 . S
H509 C494 0.951 . S
H510 C496 0.951 . S
H511 C497 0.950 . S
H512 C498 0.950 . S
H513 C499 0.950 . S
H514 C501 0.950 . S
H515 C502 0.951 . S
C516 C517 1.386 . S
C516 C518 1.383 . S
C516 H532 0.951 . S
C517 C516 1.386 . S
C517 C521 1.383 . S
C518 C516 1.383 . S
C518 C519 1.402 . S
C518 H533 0.951 . S
C519 C518 1.402 . S
C519 C520 1.375 . S
C519 C522 1.481 1_545 S
C520 C519 1.375 . S
C520 C521 1.367 . S
C520 H534 0.951 . S
C521 C517 1.383 . S
C521 C520 1.367 . S
C521 H535 0.950 . S
C522 C519 1.481 1_565 S
C522 C523 1.297 . S
C522 H536 0.950 . S
C523 C522 1.297 . S
C523 C524 1.479 . S
C523 H537 0.950 . S
C524 C523 1.479 . S
C524 C525 1.375 . S
C524 C530 1.404 . S
C525 C524 1.375 . S
C525 C526 1.369 . S
C525 H538 0.950 . S
C526 C525 1.369 . S
C526 C527 1.392 . S
C526 H539 0.951 . S
C527 C526 1.392 . S
C527 C529 1.384 . S
H528 C530 0.949 . S
C529 C527 1.384 . S
C529 C530 1.385 . S
C529 H531 0.950 . S
C530 C524 1.404 . S
C530 H528 0.949 . S
C530 C529 1.385 . S
H531 C529 0.950 . S
H532 C516 0.951 . S
H533 C518 0.951 . S
H534 C520 0.951 . S
H535 C521 0.950 . S
H536 C522 0.950 . S
H537 C523 0.950 . S
H538 C525 0.950 . S
H539 C526 0.951 . S
C540 C541 1.386 . S
C540 C542 1.383 . S
C540 H556 0.951 . S
C541 C540 1.386 . S
C541 C545 1.383 . S
C542 C540 1.383 . S
C542 C543 1.402 . S
C542 H557 0.951 . S
C543 C542 1.402 . S
C543 C544 1.375 . S
C543 C546 1.481 . S
C544 C543 1.375 . S
C544 C545 1.367 . S
C544 H558 0.951 . S
C545 C541 1.383 . S
C545 C544 1.367 . S
C545 H559 0.950 . S
C546 C543 1.481 . S
C546 C547 1.297 . S
C546 H560 0.950 . S
C547 C546 1.297 . S
C547 C548 1.479 . S
C547 H561 0.950 . S
C548 C547 1.479 . S
C548 C549 1.375 . S
C548 C554 1.404 . S
C549 C548 1.375 . S
C549 C550 1.369 . S
C549 H562 0.950 . S
C550 C549 1.369 . S
C550 C551 1.392 . S
C550 H563 0.951 . S
C551 C550 1.392 . S
C551 C553 1.384 . S
H552 C554 0.949 . S
C553 C551 1.384 . S
C553 C554 1.385 . S
C553 H555 0.950 . S
C554 C548 1.404 . S
C554 H552 0.949 . S
C554 C553 1.385 . S
H555 C553 0.950 . S
H556 C540 0.951 . S
H557 C542 0.951 . S
H558 C544 0.951 . S
H559 C545 0.950 . S
H560 C546 0.950 . S
H561 C547 0.950 . S
H562 C549 0.950 . S
H563 C550 0.951 . S
C564 C565 1.386 . S
C564 C566 1.383 . S
C564 H580 0.951 . S
C565 C564 1.386 . S
C565 C569 1.383 . S
C566 C564 1.383 . S
C566 C567 1.402 . S
C566 H581 0.951 . S
C567 C566 1.402 . S
C567 C568 1.375 . S
C567 C570 1.481 1_455 S
C568 C567 1.375 . S
C568 C569 1.367 . S
C568 H582 0.951 . S
C569 C565 1.383 . S
C569 C568 1.367 . S
C569 H583 0.950 . S
C570 C567 1.481 1_655 S
C570 C571 1.297 . S
C570 H584 0.950 . S
C571 C570 1.297 . S
C571 C572 1.479 . S
C571 H585 0.950 . S
C572 C571 1.479 . S
C572 C573 1.375 . S
C572 C578 1.404 . S
C573 C572 1.375 . S
C573 C574 1.369 . S
C573 H586 0.950 . S
C574 C573 1.369 . S
C574 C575 1.392 . S
C574 H587 0.951 . S
C575 C574 1.392 . S
C575 C577 1.384 . S
H576 C578 0.949 . S
C577 C575 1.384 . S
C577 C578 1.385 . S
C577 H579 0.950 . S
C578 C572 1.404 . S
C578 H576 0.949 . S
C578 C577 1.385 . S
H579 C577 0.950 . S
H580 C564 0.951 . S
H581 C566 0.951 . S
H582 C568 0.951 . S
H583 C569 0.950 . S
H584 C570 0.950 . S
H585 C571 0.950 . S
H586 C573 0.950 . S
H587 C574 0.951 . S
C588 C589 1.386 . S
C588 C590 1.383 . S
C588 H604 0.951 . S
C589 C588 1.386 . S
C589 C593 1.383 . S
C590 C588 1.383 . S
C590 C591 1.402 . S
C590 H605 0.951 . S
C591 C590 1.402 . S
C591 C592 1.375 . S
C591 C594 1.481 . S
C592 C591 1.375 . S
C592 C593 1.367 . S
C592 H606 0.951 . S
C593 C589 1.383 . S
C593 C592 1.367 . S
C593 H607 0.950 . S
C594 C591 1.481 . S
C594 C595 1.297 . S
C594 H608 0.950 . S
C595 C594 1.297 . S
C595 C596 1.479 1_545 S
C595 H609 0.950 . S
C596 C595 1.479 1_565 S
C596 C597 1.375 . S
C596 C602 1.404 . S
C597 C596 1.375 . S
C597 C598 1.369 . S
C597 H610 0.950 . S
C598 C597 1.369 . S
C598 C599 1.392 . S
C598 H611 0.951 . S
C599 C598 1.392 . S
C599 C601 1.384 . S
H600 C602 0.949 . S
C601 C599 1.384 . S
C601 C602 1.385 . S
C601 H603 0.950 . S
C602 C596 1.404 . S
C602 H600 0.949 . S
C602 C601 1.385 . S
H603 C601 0.950 . S
H604 C588 0.951 . S
H605 C590 0.951 . S
H606 C592 0.951 . S
H607 C593 0.950 . S
H608 C594 0.950 . S
H609 C595 0.950 . S
H610 C597 0.950 . S
H611 C598 0.951 . S
C181 C121 1.976 . S
C191 C1 2.077 . S
C205 C160 2.140 . S
C215 C40 2.143 . S
C229 C61 2.190 . S
C239 C91 2.057 . S
C253 C10 2.169 . S
C263 C130 2.205 . S
C277 C151 2.102 . S
C287 C31 2.079 . S
C301 C70 2.055 . S
C311 C100 2.068 . S
C325 C27 1.173 . S
C335 N74 1.157 . S
C349 C46 1.149 . S
C359 N14 1.201 . S
C373 C87 1.144 . S
C383 N36 1.120 . S
C397 C106 1.177 . S
C407 N126 1.228 . S
C421 C136 1.139 . S
C431 N156 1.165 . S
C445 N96 1.208 . S
C455 C166 1.197 . S
C469 C16 0.701 . S
C479 N66 0.765 . S
C493 C57 0.733 . S
C503 N6 0.662 . S
C517 C76 0.718 . S
C527 N44 0.816 . S
C541 C117 0.743 . S
C551 N134 0.748 . S
C565 C147 0.716 . S
C575 N164 0.818 . S
C589 N104 0.665 . S
C599 C177 0.667 . S
