# Generated by pormake.
# Topology wiu, (6)-cn, num edge types: 1
# Building blocks:
#     Node 0, Type 0, BuildingBlock: GEDQOX_clean_sbu_0, # of connection points: 6
#     Node 1, Type 0, BuildingBlock: GEDQOX_clean_sbu_0, # of connection points: 6
#     Node 2, Type 0, BuildingBlock: GEDQOX_clean_sbu_0, # of connection points: 6
#     Node 3, Type 0, BuildingBlock: GEDQOX_clean_sbu_0, # of connection points: 6
#     Node 4, Type 0, BuildingBlock: GEDQOX_clean_sbu_0, # of connection points: 6
#     Node 5, Type 0, BuildingBlock: GEDQOX_clean_sbu_0, # of connection points: 6
#     Node 6, Type 0, BuildingBlock: GEDQOX_clean_sbu_0, # of connection points: 6
#     Node 7, Type 0, BuildingBlock: GEDQOX_clean_sbu_0, # of connection points: 6
#     Node 8, Type 0, BuildingBlock: GEDQOX_clean_sbu_0, # of connection points: 6
#     Node 9, Type 0, BuildingBlock: GEDQOX_clean_sbu_0, # of connection points: 6
#     Node 10, Type 0, BuildingBlock: GEDQOX_clean_sbu_0, # of connection points: 6
#     Node 11, Type 0, BuildingBlock: GEDQOX_clean_sbu_0, # of connection points: 6
#     Node 12, Type 0, BuildingBlock: GEDQOX_clean_sbu_0, # of connection points: 6
#     Node 13, Type 0, BuildingBlock: GEDQOX_clean_sbu_0, # of connection points: 6
#     Node 14, Type 0, BuildingBlock: GEDQOX_clean_sbu_0, # of connection points: 6
#     Node 15, Type 0, BuildingBlock: GEDQOX_clean_sbu_0, # of connection points: 6
#     Edge 16, Type (0, 0), BuildingBlock: ZUJKAS_clean_linker_0, # of connection points: 2
#     Edge 17, Type (0, 0), BuildingBlock: ZUJKAS_clean_linker_0, # of connection points: 2
#     Edge 18, Type (0, 0), BuildingBlock: ZUJKAS_clean_linker_0, # of connection points: 2
#     Edge 19, Type (0, 0), BuildingBlock: ZUJKAS_clean_linker_0, # of connection points: 2
#     Edge 20, Type (0, 0), BuildingBlock: ZUJKAS_clean_linker_0, # of connection points: 2
#     Edge 21, Type (0, 0), BuildingBlock: ZUJKAS_clean_linker_0, # of connection points: 2
#     Edge 22, Type (0, 0), BuildingBlock: ZUJKAS_clean_linker_0, # of connection points: 2
#     Edge 23, Type (0, 0), BuildingBlock: ZUJKAS_clean_linker_0, # of connection points: 2
#     Edge 24, Type (0, 0), BuildingBlock: ZUJKAS_clean_linker_0, # of connection points: 2
#     Edge 25, Type (0, 0), BuildingBlock: ZUJKAS_clean_linker_0, # of connection points: 2
#     Edge 26, Type (0, 0), BuildingBlock: ZUJKAS_clean_linker_0, # of connection points: 2
#     Edge 27, Type (0, 0), BuildingBlock: ZUJKAS_clean_linker_0, # of connection points: 2
#     Edge 28, Type (0, 0), BuildingBlock: ZUJKAS_clean_linker_0, # of connection points: 2
#     Edge 29, Type (0, 0), BuildingBlock: ZUJKAS_clean_linker_0, # of connection points: 2
#     Edge 30, Type (0, 0), BuildingBlock: ZUJKAS_clean_linker_0, # of connection points: 2
#     Edge 31, Type (0, 0), BuildingBlock: ZUJKAS_clean_linker_0, # of connection points: 2
#     Edge 32, Type (0, 0), BuildingBlock: ZUJKAS_clean_linker_0, # of connection points: 2
#     Edge 33, Type (0, 0), BuildingBlock: ZUJKAS_clean_linker_0, # of connection points: 2
#     Edge 34, Type (0, 0), BuildingBlock: ZUJKAS_clean_linker_0, # of connection points: 2
#     Edge 35, Type (0, 0), BuildingBlock: ZUJKAS_clean_linker_0, # of connection points: 2
#     Edge 36, Type (0, 0), BuildingBlock: ZUJKAS_clean_linker_0, # of connection points: 2
#     Edge 37, Type (0, 0), BuildingBlock: ZUJKAS_clean_linker_0, # of connection points: 2
#     Edge 38, Type (0, 0), BuildingBlock: ZUJKAS_clean_linker_0, # of connection points: 2
#     Edge 39, Type (0, 0), BuildingBlock: ZUJKAS_clean_linker_0, # of connection points: 2
#     Edge 40, Type (0, 0), BuildingBlock: ZUJKAS_clean_linker_0, # of connection points: 2
#     Edge 41, Type (0, 0), BuildingBlock: ZUJKAS_clean_linker_0, # of connection points: 2
#     Edge 42, Type (0, 0), BuildingBlock: ZUJKAS_clean_linker_0, # of connection points: 2
#     Edge 43, Type (0, 0), BuildingBlock: ZUJKAS_clean_linker_0, # of connection points: 2
#     Edge 44, Type (0, 0), BuildingBlock: ZUJKAS_clean_linker_0, # of connection points: 2
#     Edge 45, Type (0, 0), BuildingBlock: ZUJKAS_clean_linker_0, # of connection points: 2
#     Edge 46, Type (0, 0), BuildingBlock: ZUJKAS_clean_linker_0, # of connection points: 2
#     Edge 47, Type (0, 0), BuildingBlock: ZUJKAS_clean_linker_0, # of connection points: 2
#     Edge 48, Type (0, 0), BuildingBlock: ZUJKAS_clean_linker_0, # of connection points: 2
#     Edge 49, Type (0, 0), BuildingBlock: ZUJKAS_clean_linker_0, # of connection points: 2
#     Edge 50, Type (0, 0), BuildingBlock: ZUJKAS_clean_linker_0, # of connection points: 2
#     Edge 51, Type (0, 0), BuildingBlock: ZUJKAS_clean_linker_0, # of connection points: 2
#     Edge 52, Type (0, 0), BuildingBlock: ZUJKAS_clean_linker_0, # of connection points: 2
#     Edge 53, Type (0, 0), BuildingBlock: ZUJKAS_clean_linker_0, # of connection points: 2
#     Edge 54, Type (0, 0), BuildingBlock: ZUJKAS_clean_linker_0, # of connection points: 2
#     Edge 55, Type (0, 0), BuildingBlock: ZUJKAS_clean_linker_0, # of connection points: 2
#     Edge 56, Type (0, 0), BuildingBlock: ZUJKAS_clean_linker_0, # of connection points: 2
#     Edge 57, Type (0, 0), BuildingBlock: ZUJKAS_clean_linker_0, # of connection points: 2
#     Edge 58, Type (0, 0), BuildingBlock: ZUJKAS_clean_linker_0, # of connection points: 2
#     Edge 59, Type (0, 0), BuildingBlock: ZUJKAS_clean_linker_0, # of connection points: 2
#     Edge 60, Type (0, 0), BuildingBlock: ZUJKAS_clean_linker_0, # of connection points: 2
#     Edge 61, Type (0, 0), BuildingBlock: ZUJKAS_clean_linker_0, # of connection points: 2
#     Edge 62, Type (0, 0), BuildingBlock: ZUJKAS_clean_linker_0, # of connection points: 2
#     Edge 63, Type (0, 0), BuildingBlock: ZUJKAS_clean_linker_0, # of connection points: 2
# Relax obj value: 0.215
# Max RMSD: 0.298
# Mean RMSD: 0.263
data_MOF--net-wiu--node1-GEDQOX_clean_sbu_0--edge1-ZUJKAS_clean_linker_0
_symmetry_space_group_name_H-M    P1
_symmetry_Int_Tables_number       1
_symmetry_cell_setting            triclinic
loop_
_symmetry_equiv_pos_as_xyz
'x, y, z'
_cell_length_a     37.485421
_cell_length_b     36.278692
_cell_length_c     105.30738
_cell_angle_alpha  80.117539
_cell_angle_beta   81.146642
_cell_angle_gamma 80.329706
loop_
_atom_site_label
_atom_site_type_symbol
_atom_site_fract_x
_atom_site_fract_y
_atom_site_fract_z
_atom_type_partial_charge
Nd0 Nd 0.35552 0.02765 0.11816 0.0
Nd1 Nd 0.30997 0.07296 0.09577 0.0
C2 C 0.38205 0.98449 0.13856 0.0
C3 C 0.3838 -0.00996 0.15225 0.0
C4 C 0.36074 0.9733 0.16271 0.0
C5 C 0.36182 0.97879 0.17555 0.0
C6 C 0.38619 0.00106 0.17838 0.0
C7 C 0.40947 0.01755 0.16791 0.0
C8 C 0.40829 0.01216 0.15507 0.0
C9 C 0.37474 0.09657 0.10715 0.0
C10 C 0.29467 0.09967 0.12451 0.0
C11 C 0.28729 0.12083 0.07576 0.0
C12 C 0.26857 0.11777 0.06483 0.0
C13 C 0.27223 0.14372 0.05339 0.0
C14 C 0.25803 0.13861 0.0424 0.0
C15 C 0.24001 0.10736 0.04269 0.0
C16 C 0.23558 0.08198 0.05433 0.0
C17 C 0.24988 0.08707 0.06529 0.0
C18 C 0.27264 0.01548 0.10926 0.0
C19 C 0.37974 0.01013 0.08716 0.0
O20 O 0.34986 0.98286 0.13542 0.0
O21 O 0.40214 0.00331 0.12919 0.0
O22 O 0.37632 0.08298 0.11933 0.0
O23 O 0.36528 0.07303 0.10132 0.0
O24 O 0.31135 0.06628 0.12933 0.0
O25 O 0.29516 0.11074 0.11185 0.0
O26 O 0.32031 0.10216 0.07562 0.0
O27 O 0.26828 0.11732 0.08731 0.0
O28 O 0.26312 0.03721 0.09887 0.0
O29 O 0.303 0.02242 0.11134 0.0
O30 O 0.35035 0.03339 0.08391 0.0
O31 O 0.38719 0.0021 0.09949 0.0
H32 H 0.34172 0.95587 0.16096 0.0
H33 H 0.34379 0.96511 0.18329 0.0
H34 H 0.42831 0.03526 0.16958 0.0
H35 H 0.42654 0.02561 0.14735 0.0
H36 H 0.28701 0.1673 0.05284 0.0
H37 H 0.26238 0.15837 0.03355 0.0
H38 H 0.22146 0.05791 0.05493 0.0
H39 H 0.24708 0.06654 0.07402 0.0
Nd40 Nd 0.63114 0.57638 0.35771 0.0
Nd41 Nd 0.61387 0.53329 0.33906 0.0
C42 C 0.64897 0.59954 0.37805 0.0
C43 C 0.64679 0.59139 0.39236 0.0
C44 C 0.67337 0.56505 0.3984 0.0
C45 C 0.67395 0.5613 0.41179 0.0
C46 C 0.64806 0.58392 0.41941 0.0
C47 C 0.62055 0.60901 0.41344 0.0
C48 C 0.62003 0.61284 0.40006 0.0
C49 C 0.58958 0.62077 0.33993 0.0
C50 C 0.55528 0.53746 0.36453 0.0
C51 C 0.60213 0.50098 0.31972 0.0
C52 C 0.61109 0.50222 0.30558 0.0
C53 C 0.58308 0.50259 0.29814 0.0
C54 C 0.59124 0.49906 0.28499 0.0
C55 C 0.62768 0.49466 0.27906 0.0
C56 C 0.65559 0.49615 0.2864 0.0
C57 C 0.64737 0.50001 0.29954 0.0
C58 C 0.64648 0.48823 0.35925 0.0
C59 C 0.67407 0.59299 0.32868 0.0
O60 O 0.67092 0.57595 0.37126 0.0
O61 O 0.61863 0.61284 0.37311 0.0
O62 O 0.61595 0.63178 0.34429 0.0
O63 O 0.58505 0.58781 0.34532 0.0
O64 O 0.58168 0.5484 0.36943 0.0
O65 O 0.55919 0.53394 0.35211 0.0
O66 O 0.57989 0.52943 0.32392 0.0
O67 O 0.62874 0.48831 0.32674 0.0
O68 O 0.61885 0.48118 0.35458 0.0
O69 O 0.65704 0.51869 0.35315 0.0
O70 O 0.65177 0.57233 0.32557 0.0
O71 O 0.67513 0.59518 0.34102 0.0
H72 H 0.69456 0.54828 0.39273 0.0
H73 H 0.69574 0.542 0.41607 0.0
H74 H 0.5999 0.62643 0.41908 0.0
H75 H 0.59932 0.63353 0.39569 0.0
H76 H 0.55491 0.50448 0.3026 0.0
H77 H 0.56903 0.49888 0.27953 0.0
H78 H 0.68395 0.49261 0.28217 0.0
H79 H 0.66951 0.49991 0.30506 0.0
Nd80 Nd 0.16608 0.86759 0.59094 0.0
Nd81 Nd 0.21326 0.83323 0.56923 0.0
C82 C 0.13927 0.89783 0.61214 0.0
C83 C 0.147 0.89983 0.62532 0.0
C84 C 0.17171 0.92288 0.6273 0.0
C85 C 0.1754 0.92793 0.63986 0.0
C86 C 0.15443 0.91013 0.65068 0.0
C87 C 0.13074 0.88605 0.6487 0.0
C88 C 0.12696 0.8811 0.63615 0.0
C89 C 0.12995 0.82866 0.57826 0.0
C90 C 0.21343 0.78238 0.59732 0.0
C91 C 0.2482 0.80999 0.54749 0.0
C92 C 0.25299 0.82289 0.5333 0.0
C93 C 0.22368 0.83067 0.52591 0.0
C94 C 0.22954 0.84338 0.5125 0.0
C95 C 0.26475 0.84876 0.50624 0.0
C96 C 0.29383 0.84103 0.51375 0.0
C97 C 0.28804 0.82806 0.52706 0.0
C98 C 0.25051 0.86533 0.58404 0.0
C99 C 0.14967 0.90713 0.56215 0.0
O100 O 0.15903 0.91492 0.60224 0.0
O101 O 0.13151 0.86572 0.61003 0.0
O102 O 0.11516 0.85938 0.58285 0.0
O103 O 0.16169 0.81765 0.58127 0.0
O104 O 0.19946 0.81464 0.60169 0.0
O105 O 0.21682 0.78016 0.58475 0.0
O106 O 0.21697 0.79972 0.55309 0.0
O107 O 0.26186 0.8293 0.55445 0.0
O108 O 0.26199 0.83378 0.5796 0.0
O109 O 0.22011 0.88049 0.58023 0.0
O110 O 0.17345 0.87899 0.55807 0.0
O111 O 0.14563 0.91253 0.57441 0.0
H112 H 0.18733 0.93802 0.61915 0.0
H113 H 0.19348 0.94705 0.64108 0.0
H114 H 0.11458 0.87155 0.65686 0.0
H115 H 0.10756 0.86337 0.63492 0.0
H116 H 0.1963 0.82704 0.53046 0.0
H117 H 0.20651 0.84861 0.50704 0.0
H118 H 0.32116 0.84554 0.5094 0.0
H119 H 0.31108 0.82239 0.53254 0.0
Nd120 Nd 0.81965 0.49835 0.84314 0.0
Nd121 Nd 0.88738 0.53441 0.84341 0.0
C122 C 0.76885 0.46173 0.83839 0.0
C123 C 0.7657 0.43512 0.82973 0.0
C124 C 0.79602 0.42131 0.82138 0.0
C125 C 0.79306 0.39432 0.81371 0.0
C126 C 0.75967 0.38082 0.81426 0.0
C127 C 0.72926 0.39541 0.82248 0.0
C128 C 0.7323 0.42226 0.83016 0.0
C129 C 0.80465 0.56801 0.85118 0.0
C130 C 0.86256 0.53368 0.81549 0.0
C131 C 0.93746 0.57098 0.84908 0.0
C132 C 0.96245 0.56788 0.85908 0.0
C133 C 0.94936 0.56824 0.87233 0.0
C134 C 0.97359 0.5664 0.88145 0.0
C135 C 0.01155 0.56396 0.87759 0.0
C136 C 0.0245 0.56324 0.86434 0.0
C137 C 0.00029 0.5653 0.85523 0.0
C138 C 0.90191 0.46298 0.8369 0.0
C139 C 0.84943 0.48593 0.87061 0.0
O140 O 0.7903 0.44871 0.84732 0.0
O141 O 0.77259 0.49631 0.83293 0.0
O142 O 0.78633 0.54033 0.8557 0.0
O143 O 0.82873 0.55979 0.84185 0.0
O144 O 0.84541 0.50588 0.8219 0.0
O145 O 0.87734 0.55478 0.82183 0.0
O146 O 0.90236 0.57991 0.85244 0.0
O147 O 0.94475 0.54561 0.84126 0.0
O148 O 0.92211 0.48903 0.83213 0.0
O149 O 0.87741 0.47393 0.84558 0.0
O150 O 0.87065 0.51179 0.8653 0.0
O151 O 0.83021 0.47201 0.8636 0.0
H152 H 0.82205 0.431 0.82094 0.0
H153 H 0.81711 0.38344 0.80759 0.0
H154 H 0.70301 0.38615 0.82298 0.0
H155 H 0.70862 0.43273 0.83654 0.0
H156 H 0.9204 0.57004 0.87568 0.0
H157 H 0.96255 0.56657 0.89157 0.0
H158 H 0.05339 0.56189 0.86093 0.0
H159 H 0.01121 0.56518 0.84509 0.0
Nd160 Nd 0.68674 0.89335 0.95461 0.0
Nd161 Nd 0.63901 0.94236 0.93654 0.0
C162 C 0.71968 0.85375 0.97414 0.0
C163 C 0.72311 0.85906 0.98742 0.0
C164 C 0.69277 0.87267 0.99585 0.0
C165 C 0.6974 0.8804 1.00801 0.0
C166 C 0.73245 0.87508 1.01183 0.0
C167 C 0.76259 0.86094 1.00344 0.0
C168 C 0.75792 0.8529 0.99137 0.0
C169 C 0.72283 0.94235 0.93636 0.0
C170 C 0.62355 0.95955 0.96644 0.0
C171 C 0.61385 0.97969 0.91487 0.0
C172 C 0.61661 0.97385 0.901 0.0
C173 C 0.65035 0.96537 0.89335 0.0
C174 C 0.6518 0.95911 0.88042 0.0
C175 C 0.61957 0.96084 0.87481 0.0
C176 C 0.58593 0.96932 0.88254 0.0
C177 C 0.58452 0.9758 0.89539 0.0
C178 C 0.60475 0.88928 0.95324 0.0
C179 C 0.68947 0.86337 0.92799 0.0
O180 O 0.68774 0.84849 0.97183 0.0
O181 O 0.73556 0.87658 0.96487 0.0
O182 O 0.73482 0.90698 0.93962 0.0
O183 O 0.69181 0.952 0.94269 0.0
O184 O 0.64856 0.9297 0.96854 0.0
O185 O 0.61681 0.97407 0.95438 0.0
O186 O 0.64264 -0.01297 0.9191 0.0
O187 O 0.59595 0.95671 0.92343 0.0
O188 O 0.58889 0.92329 0.94962 0.0
O189 O 0.63672 0.88333 0.9474 0.0
O190 O 0.67342 0.89805 0.92421 0.0
O191 O 0.69304 0.85152 0.94032 0.0
H192 H 0.66563 0.87802 0.99297 0.0
H193 H 0.67375 0.89145 1.01428 0.0
H194 H 0.78984 0.85611 1.00622 0.0
H195 H 0.78165 0.84254 0.98499 0.0
H196 H 0.67566 0.96323 0.89738 0.0
H197 H 0.67823 0.95226 0.87489 0.0
H198 H 0.56051 0.97143 0.8786 0.0
H199 H 0.55811 0.98224 0.90101 0.0
Nd200 Nd 0.38292 0.43614 0.71485 0.0
Nd201 Nd 0.36886 0.39441 0.69505 0.0
C202 C 0.38946 0.46801 0.73492 0.0
C203 C 0.38095 0.46366 0.7492 0.0
C204 C 0.40229 0.43718 0.75739 0.0
C205 C 0.39483 0.43559 0.77089 0.0
C206 C 0.36588 0.46034 0.7764 0.0
C207 C 0.34425 0.48625 0.76819 0.0
C208 C 0.35182 0.48801 0.75475 0.0
C209 C 0.35172 0.48193 0.69444 0.0
C210 C 0.32739 0.37169 0.72459 0.0
C211 C 0.34033 0.37114 0.67689 0.0
C212 C 0.34422 0.37365 0.66264 0.0
C213 C 0.33812 0.40865 0.65456 0.0
C214 C 0.33882 0.41006 0.64119 0.0
C215 C 0.34585 0.37659 0.63564 0.0
C216 C 0.35308 0.34174 0.64368 0.0
C217 C 0.3521 0.34031 0.65706 0.0
C218 C 0.42624 0.35844 0.70764 0.0
C219 C 0.44126 0.43604 0.68901 0.0
O220 O 0.41574 0.44419 0.72975 0.0
O221 O 0.3614 0.47688 0.7284 0.0
O222 O 0.37886 0.48892 0.69938 0.0
O223 O 0.34169 0.45105 0.70023 0.0
O224 O 0.34222 0.39896 0.72773 0.0
O225 O 0.33315 0.36444 0.71249 0.0
O226 O 0.32712 0.40213 0.68178 0.0
O227 O 0.36664 0.35066 0.68287 0.0
O228 O 0.42572 0.36026 0.69523 0.0
O229 O 0.3966 0.37429 0.71313 0.0
O230 O 0.41427 0.42811 0.68357 0.0
O231 O 0.438 0.43531 0.70174 0.0
H232 H 0.42504 0.41814 0.75339 0.0
H233 H 0.41187 0.41527 0.77702 0.0
H234 H 0.32223 0.5062 0.77213 0.0
H235 H 0.33523 0.50905 0.74868 0.0
H236 H 0.3321 0.43491 0.65858 0.0
H237 H 0.33346 0.4373 0.6352 0.0
H238 H 0.35814 0.31547 0.63969 0.0
H239 H 0.35667 0.31302 0.6631 0.0
Nd240 Nd 0.77752 0.12505 0.48378 0.0
Nd241 Nd 0.83263 0.10007 0.46142 0.0
C242 C 0.73575 0.15256 0.50373 0.0
C243 C 0.72568 0.1378 0.51764 0.0
C244 C 0.75208 0.11704 0.52527 0.0
C245 C 0.74239 0.10378 0.53843 0.0
C246 C 0.70601 0.11059 0.54429 0.0
C247 C 0.67952 0.13084 0.53658 0.0
C248 C 0.6893 0.14441 0.52341 0.0
C249 C 0.75492 0.07676 0.46963 0.0
C250 C 0.84153 0.05432 0.49031 0.0
C251 C 0.86562 0.07298 0.44032 0.0
C252 C 0.86035 0.07102 0.42688 0.0
C253 C 0.83154 0.0544 0.42424 0.0
C254 C 0.82906 0.04954 0.41157 0.0
C255 C 0.85552 0.06085 0.40131 0.0
C256 C 0.88376 0.07838 0.40392 0.0
C257 C 0.88613 0.08341 0.4166 0.0
C258 C 0.86214 0.13456 0.47765 0.0
C259 C 0.78039 0.18207 0.4556 0.0
O260 O 0.76972 0.15785 0.50015 0.0
O261 O 0.72286 0.13786 0.49521 0.0
O262 O 0.74905 0.07349 0.48224 0.0
O263 O 0.77231 0.10381 0.46538 0.0
O264 O 0.8193 0.08271 0.49483 0.0
O265 O 0.84354 0.05007 0.47797 0.0
O266 O 0.84574 0.05379 0.44968 0.0
O267 O 0.87024 0.1058 0.44296 0.0
O268 O 0.8797 0.10725 0.47167 0.0
O269 O 0.83075 0.14477 0.47416 0.0
O270 O 0.8049 0.15568 0.45068 0.0
O271 O 0.76666 0.17783 0.4681 0.0
H272 H 0.78031 0.11106 0.52107 0.0
H273 H 0.76339 0.08781 0.54402 0.0
H274 H 0.65131 0.13682 0.54078 0.0
H275 H 0.66844 0.16024 0.51773 0.0
H276 H 0.81153 0.04404 0.43199 0.0
H277 H 0.80725 0.03553 0.40988 0.0
H278 H 0.90432 0.08773 0.39617 0.0
H279 H 0.90867 0.09613 0.41841 0.0
Nd280 Nd 0.1112 0.43728 0.21 0.0
Nd281 Nd 0.18296 0.46375 0.21307 0.0
C282 C 0.05489 0.40519 0.20704 0.0
C283 C 0.02946 0.40857 0.1972 0.0
C284 C 0.04214 0.41099 0.18384 0.0
C285 C 0.01785 0.41296 0.17475 0.0
C286 C 0.98021 0.41287 0.17876 0.0
C287 C 0.96758 0.41108 0.19214 0.0
C288 C 0.99192 0.40885 0.20123 0.0
C289 C 0.10766 0.51341 0.21001 0.0
C290 C 0.15836 0.47682 0.18437 0.0
C291 C 0.23375 0.49952 0.21819 0.0
C292 C 0.23758 0.52468 0.22729 0.0
C293 C 0.2106 0.53105 0.23781 0.0
C294 C 0.21267 0.55837 0.24549 0.0
C295 C 0.24182 0.57967 0.24278 0.0
C296 C 0.2692 0.57237 0.23241 0.0
C297 C 0.26702 0.5452 0.22472 0.0
C298 C 0.19336 0.39694 0.20307 0.0
C299 C 0.13314 0.43157 0.23981 0.0
O300 O 0.089 0.39125 0.2038 0.0
O301 O 0.05163 0.43339 0.21359 0.0
O302 O 0.09082 0.49966 0.20242 0.0
O303 O 0.12434 0.48745 0.21733 0.0
O304 O 0.13746 0.45019 0.18874 0.0
O305 O 0.17336 0.4919 0.19242 0.0
O306 O 0.2111 0.514 0.20972 0.0
O307 O 0.23109 0.46409 0.22297 0.0
O308 O 0.2156 0.42173 0.20028 0.0
O309 O 0.16809 0.40586 0.21196 0.0
O310 O 0.16267 0.44636 0.23442 0.0
O311 O 0.10943 0.4242 0.2327 0.0
H312 H 0.07087 0.41121 0.18039 0.0
H313 H 0.02858 0.41487 0.16454 0.0
H314 H 0.93892 0.41057 0.19563 0.0
H315 H 0.9814 0.407 0.21146 0.0
H316 H 0.18761 0.51547 0.23992 0.0
H317 H 0.19134 0.56297 0.25349 0.0
H318 H 0.29173 0.58857 0.22992 0.0
H319 H 0.28787 0.54094 0.21654 0.0
Nd320 Nd 0.85616 0.53164 0.61675 0.0
Nd321 Nd 0.80702 0.5824 0.59636 0.0
C322 C 0.88034 0.49384 0.63845 0.0
C323 C 0.87784 0.49924 0.65233 0.0
C324 C 0.84428 0.50826 0.66001 0.0
C325 C 0.84321 0.51417 0.67295 0.0
C326 C 0.87566 0.51159 0.67852 0.0
C327 C 0.90909 0.50256 0.67077 0.0
C328 C 0.91012 0.49639 0.65791 0.0
C329 C 0.88629 0.58806 0.6006 0.0
C330 C 0.79768 0.60633 0.62529 0.0
C331 C 0.78398 0.63222 0.57697 0.0
C332 C 0.76691 0.6292 0.56562 0.0
C333 C 0.7732 0.65394 0.55402 0.0
C334 C 0.75973 0.64905 0.54285 0.0
C335 C 0.7398 0.61924 0.54313 0.0
C336 C 0.73297 0.59499 0.55489 0.0
C337 C 0.74655 0.59982 0.56601 0.0
C338 C 0.77169 0.52215 0.6086 0.0
C339 C 0.87376 0.51624 0.58629 0.0
O340 O 0.85131 0.48709 0.63417 0.0
O341 O 0.89876 0.51666 0.62998 0.0
O342 O 0.90511 0.55568 0.60441 0.0
O343 O 0.8537 0.59079 0.60597 0.0
O344 O 0.82126 0.57604 0.62874 0.0
O345 O 0.78953 0.61612 0.61329 0.0
O346 O 0.81794 0.61591 0.5769 0.0
O347 O 0.76425 0.62595 0.58832 0.0
O348 O 0.76021 0.54676 0.59912 0.0
O349 O 0.80257 0.52837 0.6104 0.0
O350 O 0.84971 0.54667 0.58355 0.0
O351 O 0.87835 0.50109 0.59856 0.0
H352 H 0.81886 0.51107 0.656 0.0
H353 H 0.81694 0.52141 0.67854 0.0
H354 H 0.93464 0.49974 0.67469 0.0
H355 H 0.93639 0.48951 0.65225 0.0
H356 H 0.78926 0.67648 0.55352 0.0
H357 H 0.76588 0.6679 0.53391 0.0
H358 H 0.71731 0.5721 0.55549 0.0
H359 H 0.74165 0.58019 0.57486 0.0
Nd360 Nd 0.13136 0.08219 0.8571 0.0
Nd361 Nd 0.11746 0.03485 0.83934 0.0
C362 C 0.14705 0.10806 0.87725 0.0
C363 C 0.14663 0.09757 0.89137 0.0
C364 C 0.15858 0.0604 0.89701 0.0
C365 C 0.16088 0.05204 0.91035 0.0
C366 C 0.15094 0.08063 0.91825 0.0
C367 C 0.13774 0.11744 0.91261 0.0
C368 C 0.1357 0.12581 0.89929 0.0
C369 C 0.09133 0.12328 0.83827 0.0
C370 C 0.05601 0.04224 0.86386 0.0
C371 C 0.11164 -0.003 0.82061 0.0
C372 C 0.11988 -0.00172 0.8064 0.0
C373 C 0.10135 0.02612 0.79775 0.0
C374 C 0.10816 0.02501 0.78437 0.0
C375 C 0.1337 -0.00382 0.77944 0.0
C376 C 0.15275 0.96894 0.78809 0.0
C377 C 0.14578 0.9699 0.80143 0.0
C378 C 0.14765 -0.00576 0.86074 0.0
C379 C 0.17556 0.09648 0.82832 0.0
O380 O 0.17097 0.0876 0.86991 0.0
O381 O 0.11543 0.11747 0.87291 0.0
O382 O 0.1162 0.136 0.84292 0.0
O383 O 0.08697 0.09063 0.84404 0.0
O384 O 0.08126 0.05525 0.86872 0.0
O385 O 0.06156 0.03591 0.85168 0.0
O386 O 0.08529 0.02178 0.82512 0.0
O387 O 0.13966 -0.00963 0.8271 0.0
O388 O 0.12048 -0.01406 0.85614 0.0
O389 O 0.15875 0.02363 0.85402 0.0
O390 O 0.15381 0.07486 0.82542 0.0
O391 O 0.17594 0.10005 0.84057 0.0
H392 H 0.16686 0.03803 0.89108 0.0
H393 H 0.17085 0.02337 0.91446 0.0
H394 H 0.13036 0.14018 0.91841 0.0
H395 H 0.12646 0.15463 0.8951 0.0
H396 H 0.08124 0.0484 0.80129 0.0
H397 H 0.09325 0.04649 0.7779 0.0
H398 H 0.17215 0.94605 0.7846 0.0
H399 H 0.16019 0.94793 0.80791 0.0
Nd400 Nd 0.66543 0.37007 0.09265 0.0
Nd401 Nd 0.71332 0.33755 0.07094 0.0
C402 C 0.63642 0.39823 0.11406 0.0
C403 C 0.64384 0.3975 0.12733 0.0
C404 C 0.67847 0.38326 0.13106 0.0
C405 C 0.68509 0.38423 0.14369 0.0
C406 C 0.65719 0.39938 0.15269 0.0
C407 C 0.6224 0.41282 0.14894 0.0
C408 C 0.61581 0.4119 0.13634 0.0
C409 C 0.62924 0.33389 0.07902 0.0
C410 C 0.71181 0.2842 0.09864 0.0
C411 C 0.74813 0.31669 0.04881 0.0
C412 C 0.75082 0.33136 0.03477 0.0
C413 C 0.76018 0.30615 1.02569 0.0
C414 C 0.76673 0.31969 1.01239 0.0
C415 C 0.76436 0.35883 1.00789 0.0
C416 C 0.75379 0.38401 1.01705 0.0
C417 C 0.74694 0.37043 0.03033 0.0
C418 C 0.75003 0.36785 0.08647 0.0
C419 C 0.65089 0.41281 0.06413 0.0
O420 O 0.65789 0.41548 0.10477 0.0
O421 O 0.6289 0.36681 0.11132 0.0
O422 O 0.61513 0.36443 0.08382 0.0
O423 O 0.6607 0.32165 0.0822 0.0
O424 O 0.69703 0.31584 0.10328 0.0
O425 O 0.71705 0.28328 0.08596 0.0
O426 O 0.71765 0.30489 0.05447 0.0
O427 O 0.76131 0.33601 0.05591 0.0
O428 O 0.76156 0.33661 0.08182 0.0
O429 O 0.71992 0.38353 0.08254 0.0
O430 O 0.67413 0.38453 0.0599 0.0
O431 O 0.6468 0.41717 0.07648 0.0
H432 H 0.70032 0.37173 0.12419 0.0
H433 H 0.71183 0.37305 0.14648 0.0
H434 H 0.60052 0.42494 0.15566 0.0
H435 H 0.58894 0.42294 0.13357 0.0
H436 H 0.76322 0.2759 0.02891 0.0
H437 H 0.77396 0.2994 1.00565 0.0
H438 H 0.752 0.41426 1.01405 0.0
H439 H 0.73969 0.39048 0.03716 0.0
Nd440 Nd 0.31561 0.00434 0.34079 0.0
Nd441 Nd 0.38656 0.03264 0.34408 0.0
C442 C 0.26537 0.9684 0.33536 0.0
C443 C 0.26156 0.94364 0.32612 0.0
C444 C 0.28879 0.93719 0.31568 0.0
C445 C 0.28669 0.91015 0.30789 0.0
C446 C 0.25728 0.88921 0.31042 0.0
C447 C 0.22966 0.89663 0.32072 0.0
C448 C 0.23186 0.92352 0.3285 0.0
C449 C 0.30413 0.07053 0.35122 0.0
C450 C 0.36535 0.03818 0.31418 0.0
C451 C 0.44013 0.06705 0.34806 0.0
C452 C 0.46432 0.0637 0.35831 0.0
C453 C 0.47044 0.09644 0.36259 0.0
C454 C 0.4928 0.09405 0.37233 0.0
C455 C 0.50981 0.05878 0.37806 0.0
C456 C 0.50363 0.02597 0.37374 0.0
C457 C 0.48107 0.02837 0.36404 0.0
C458 C 0.39199 0.95645 0.34369 0.0
C459 C 0.34027 -0.01015 0.36939 0.0
O460 O 0.28819 0.9537 0.34375 0.0
O461 O 0.26768 0.00402 0.33077 0.0
O462 O 0.28257 0.04509 0.35403 0.0
O463 O 0.32923 0.06243 0.3422 0.0
O464 O 0.3363 0.02242 0.31951 0.0
O465 O 0.38862 0.04622 0.32135 0.0
O466 O 0.40554 0.07943 0.35119 0.0
O467 O 0.44515 0.03972 0.34101 0.0
O468 O 0.40877 0.97043 0.35125 0.0
O469 O 0.37474 0.98231 0.33651 0.0
O470 O 0.36046 0.01722 0.36527 0.0
O471 O 0.32575 0.97493 0.36118 0.0
H472 H 0.31199 0.95246 0.31373 0.0
H473 H 0.30821 0.90546 0.29996 0.0
H474 H 0.20692 0.8807 0.32306 0.0
H475 H 0.21082 0.92785 0.33662 0.0
H476 H 0.45789 0.12402 0.35836 0.0
H477 H 0.49716 0.12 0.37523 0.0
H478 H 0.5158 -0.00171 0.37801 0.0
H479 H 0.47662 0.00254 0.36107 0.0
Nd480 Nd 0.18442 0.39202 0.45843 0.0
Nd481 Nd 0.14126 0.44032 0.4359 0.0
C482 C 0.20423 0.34171 0.47831 0.0
C483 C 0.22318 0.34227 0.48942 0.0
C484 C 0.22376 0.3119 0.4996 0.0
C485 C 0.23935 0.31354 0.51068 0.0
C486 C 0.25455 0.34566 0.51172 0.0
C487 C 0.2545 0.37575 0.50134 0.0
C488 C 0.23882 0.37411 0.49029 0.0
C489 C 0.2254 0.44667 0.44502 0.0
C490 C 0.11904 0.45913 0.46683 0.0
C491 C 0.11602 0.48476 0.4155 0.0
C492 C 0.11455 0.47968 0.40174 0.0
C493 C 0.1401 0.49344 0.39153 0.0
C494 C 0.13926 0.48806 0.37866 0.0
C495 C 0.11271 0.46889 0.37557 0.0
C496 C 0.08692 0.45551 0.38579 0.0
C497 C 0.0878 0.46083 0.39865 0.0
C498 C 0.11703 0.37391 0.44748 0.0
C499 C 0.19877 0.36631 0.4296 0.0
O500 O 0.17207 0.36234 0.4784 0.0
O501 O 0.22382 0.34505 0.46686 0.0
O502 O 0.23399 0.42417 0.45541 0.0
O503 O 0.19439 0.44178 0.44291 0.0
O504 O 0.14704 0.43387 0.47021 0.0
O505 O 0.11183 0.46775 0.45447 0.0
O506 O 0.14816 0.48556 0.41885 0.0
O507 O 0.09535 0.46609 0.4247 0.0
O508 O 0.11713 0.3863 0.43513 0.0
O509 O 0.12828 0.39699 0.45296 0.0
O510 O 0.18493 0.40098 0.42485 0.0
O511 O 0.19602 0.3544 0.44226 0.0
H512 H 0.21164 0.2872 0.49907 0.0
H513 H 0.23933 0.28978 0.51847 0.0
H514 H 0.26557 0.40105 0.50192 0.0
H515 H 0.23819 0.398 0.48254 0.0
H516 H 0.16091 0.50837 0.39348 0.0
H517 H 0.15927 0.49938 0.37111 0.0
H518 H 0.0663 0.44022 0.38392 0.0
H519 H 0.06755 0.44983 0.40618 0.0
Nd520 Nd 0.88109 0.93267 0.21368 0.0
Nd521 Nd 0.86546 0.8862 0.19615 0.0
C522 C 0.88893 0.97118 0.23197 0.0
C523 C 0.88175 0.97101 0.2461 0.0
C524 C 0.89579 0.9404 0.25494 0.0
C525 C 0.88967 0.94218 0.26828 0.0
C526 C 0.8692 0.97439 0.27296 0.0
C527 C 0.85467 0.00456 0.26409 0.0
C528 C 0.86101 0.00291 0.2508 0.0
C529 C 0.84941 0.97424 0.19267 0.0
C530 C 0.82379 0.87104 0.22539 0.0
C531 C 0.84659 0.85885 0.17683 0.0
C532 C 0.84167 0.8676 0.16305 0.0
C533 C 0.83601 0.90503 0.1567 0.0
C534 C 0.82724 0.91251 0.14397 0.0
C535 C 0.82382 0.88264 0.13751 0.0
C536 C 0.83087 0.84522 0.14379 0.0
C537 C 0.8397 0.83781 0.15645 0.0
C538 C 0.90731 0.84434 0.21436 0.0
C539 C 0.94086 0.92579 0.18873 0.0
O540 O 0.91459 0.94571 0.22748 0.0
O541 O 0.86028 0.97768 0.2258 0.0
O542 O 0.87745 0.98174 0.19694 0.0
O543 O 0.83842 0.94479 0.1994 0.0
O544 O 0.84605 0.89246 0.22806 0.0
O545 O 0.82218 0.86808 0.21318 0.0
O546 O 0.82353 0.87833 0.18469 0.0
O547 O 0.87992 0.85283 0.17975 0.0
O548 O 0.88179 0.83199 0.20998 0.0
O549 O 0.91128 0.87712 0.20865 0.0
O550 O 0.9147 0.91384 0.18399 0.0
O551 O 0.93645 0.93091 0.20101 0.0
H552 H 0.91174 0.91535 0.25156 0.0
H553 H 0.90098 0.91845 0.27493 0.0
H554 H 0.83928 0.02998 0.2674 0.0
H555 H 0.8501 0.02689 0.24414 0.0
H556 H 0.83735 0.92839 0.16171 0.0
H557 H 0.82187 0.94161 0.13936 0.0
H558 H 0.8291 0.82164 0.13896 0.0
H559 H 0.84404 0.80877 0.16122 0.0
Nd560 Nd 0.28279 0.63643 0.98463 0.0
Nd561 Nd 0.32871 0.60257 0.96261 0.0
C562 C 0.24862 0.65842 1.00668 0.0
C563 C 0.24526 0.6453 1.02083 0.0
C564 C 0.27537 0.62753 0.02717 0.0
C565 C 0.2704 0.61289 0.04046 0.0
C566 C 0.23522 0.61536 0.04755 0.0
C567 C 0.20536 0.63371 0.04116 0.0
C568 C 0.21037 0.64856 0.02797 0.0
C569 C 0.24418 0.60642 0.9696 0.0
C570 C 0.34552 0.56129 0.99118 0.0
C571 C 0.35387 0.57239 0.9413 0.0
C572 C 0.34486 0.56942 0.92839 0.0
C573 C 0.31959 0.54619 0.92704 0.0
C574 C 0.31511 0.53955 0.91475 0.0
C575 C 0.33595 0.55581 0.9036 0.0
C576 C 0.36 0.58035 0.90492 0.0
C577 C 0.36448 0.58698 0.9172 0.0
C578 C 0.36708 0.63852 0.9755 0.0
C579 C 0.28326 0.68902 0.95676 0.0
O580 O 0.27917 0.66979 1.00081 0.0
O581 O 0.23529 0.63823 0.99994 0.0
O582 O 0.23352 0.63787 0.97418 0.0
O583 O 0.27447 0.59051 0.97331 0.0
O584 O 0.32244 0.58958 0.99548 0.0
O585 O 0.3489 0.55656 0.97887 0.0
O586 O 0.33548 0.55499 0.95151 0.0
O587 O 0.3612 0.60502 0.9431 0.0
O588 O 0.38063 0.60831 0.9704 0.0
O589 O 0.33516 0.65097 0.97278 0.0
O590 O 0.29716 0.65712 0.95215 0.0
O591 O 0.27898 0.69031 0.96942 0.0
H592 H 0.30254 0.62437 1.02183 0.0
H593 H 0.29391 0.59872 0.04509 0.0
H594 H 0.17801 0.63657 0.04637 0.0
H595 H 0.18676 0.66206 1.02327 0.0
H596 H 0.30432 0.53187 0.93547 0.0
H597 H 0.2967 0.52017 0.91405 0.0
H598 H 0.37608 0.59364 0.89647 0.0
H599 H 0.38427 0.60484 0.91796 0.0
Nd600 Nd 0.60469 0.93677 0.71027 0.0
Nd601 Nd 0.67106 0.97555 0.70965 0.0
C602 C 0.55512 0.89876 0.7051 0.0
C603 C 0.5301 0.90205 0.69516 0.0
C604 C 0.52473 0.8695 0.69061 0.0
C605 C 0.50017 0.87172 0.68161 0.0
C606 C 0.48012 0.90663 0.67695 0.0
C607 C 0.48602 0.93932 0.68142 0.0
C608 C 0.51074 0.93708 0.69038 0.0
C609 C 0.58898 0.00737 0.71726 0.0
C610 C 0.63973 -0.01452 0.68242 0.0
C611 C 0.71941 0.01633 0.71363 0.0
C612 C 0.7225 0.04192 0.72266 0.0
C613 C 0.69174 0.05661 0.73065 0.0
C614 C 0.69472 0.08295 0.73857 0.0
C615 C 0.72851 0.09498 0.73861 0.0
C616 C 0.75934 0.07942 0.73078 0.0
C617 C 0.75631 0.05317 0.72287 0.0
C618 C 0.68786 0.90574 0.70171 0.0
C619 C 0.63205 0.93739 0.73779 0.0
O620 O 0.59009 0.89057 0.7014 0.0
O621 O 0.54799 0.92394 0.713 0.0
O622 O 0.57094 0.97996 0.7226 0.0
O623 O 0.61238 -0.00209 0.70802 0.0
O624 O 0.61779 0.96079 0.68828 0.0
O625 O 0.66075 -0.00117 0.68893 0.0
O626 O 0.69493 0.02865 0.7057 0.0
O627 O 0.71999 0.98051 0.71841 0.0
O628 O 0.70529 0.93405 0.69704 0.0
O629 O 0.66406 0.91345 0.71117 0.0
O630 O 0.64856 0.96555 0.73126 0.0
O631 O 0.61691 0.91619 0.7316 0.0
H632 H 0.53944 0.84218 0.69408 0.0
H633 H 0.49713 0.84598 0.67825 0.0
H634 H 0.47099 0.96668 0.67821 0.0
H635 H 0.51438 0.96274 0.69367 0.0
H636 H 0.66535 0.04825 0.73058 0.0
H637 H 0.6704 0.09461 0.74439 0.0
H638 H 0.78585 0.08759 0.73074 0.0
H639 H 0.78031 0.04202 0.71677 0.0
H640 H 0.38167 0.12334 0.08119 0.0
H641 H 0.41842 0.17164 0.0697 0.0
H642 H 0.44584 0.18931 0.10632 0.0
H643 H 0.40821 0.14221 0.11784 0.0
H644 H 0.43273 0.2551 0.08981 0.0
H645 H 0.529 0.14791 0.06464 0.0
H646 H 0.48221 0.1545 0.06172 0.0
H647 H 0.49401 0.13482 0.07763 0.0
C648 C 0.395 0.13812 0.08678 0.0
C649 C 0.39247 0.12891 0.10038 0.0
C650 C 0.41621 0.16539 0.0802 0.0
C651 C 0.43546 0.18336 0.08714 0.0
C652 C 0.4313 0.17559 0.10078 0.0
H653 H 0.63177 0.25751 0.08356 0.0
H654 H 0.58305 0.22323 0.08102 0.0
C655 C 0.40987 0.14866 0.10735 0.0
C656 C 0.46175 0.20869 0.08044 0.0
H657 H 0.54647 0.20765 0.06301 0.0
C658 C 0.45734 0.24513 0.08373 0.0
C659 C 0.49374 0.19531 0.07253 0.0
C660 C 0.50035 0.15594 0.06895 0.0
C661 C 0.48529 0.26755 0.08025 0.0
C662 C 0.51804 0.25355 0.0728 0.0
C663 C 0.52128 0.21825 0.06865 0.0
C664 C 0.55101 0.27215 0.07118 0.0
C665 C 0.48049 0.30452 0.08553 0.0
C666 C 0.55027 0.31033 0.06573 0.0
C667 C 0.57755 0.33007 0.06752 0.0
C668 C 0.60644 0.31146 0.07433 0.0
C669 C 0.6096 0.27233 0.07831 0.0
C670 C 0.5818 0.2528 0.07684 0.0
H671 H 0.45645 0.30742 0.0931 0.0
H672 H 0.50505 0.3071 0.08983 0.0
H673 H 0.47639 0.32839 0.07751 0.0
H674 H 0.52737 0.32545 0.06094 0.0
H675 H 0.57505 0.36027 0.0642 0.0
H676 H 0.52038 0.6095 0.33809 0.0
H677 H 0.46898 0.65877 0.33318 0.0
H678 H 0.54203 0.74251 0.32449 0.0
H679 H 0.59319 0.69358 0.32916 0.0
H680 H 0.44846 0.71213 0.34814 0.0
H681 H 0.474 0.78342 0.29793 0.0
H682 H 0.49674 0.73648 0.30321 0.0
H683 H 0.51505 0.77775 0.30524 0.0
C684 C 0.52556 0.63827 0.33469 0.0
C685 C 0.56056 0.64799 0.33418 0.0
C686 C 0.49621 0.66633 0.33188 0.0
C687 C 0.50165 0.7043 0.32837 0.0
C688 C 0.53719 0.71337 0.32687 0.0
H689 H 0.43188 0.89782 0.35735 0.0
H690 H 0.44621 0.83256 0.35309 0.0
C691 C 0.56642 0.68543 0.3297 0.0
C692 C 0.47042 0.73521 0.32878 0.0
H693 H 0.44625 0.82549 0.31426 0.0
C694 C 0.44707 0.73646 0.34054 0.0
C695 C 0.46777 0.76665 0.31881 0.0
C696 C 0.48953 0.76574 0.30555 0.0
C697 C 0.42456 0.76993 0.34316 0.0
C698 C 0.42606 0.80293 0.33388 0.0
C699 C 0.44581 0.80037 0.32152 0.0
C700 C 0.41279 0.84095 0.33748 0.0
C701 C 0.40109 0.77021 0.35614 0.0
C702 C 0.38945 0.86738 0.33006 0.0
C703 C 0.38153 0.90482 0.33242 0.0
C704 C 0.39717 0.91634 0.34213 0.0
C705 C 0.41949 0.88961 0.34982 0.0
C706 C 0.42737 0.85225 0.34747 0.0
H707 H 0.39192 0.74226 0.35972 0.0
H708 H 0.41735 0.77591 0.36336 0.0
H709 H 0.37675 0.79231 0.35558 0.0
H710 H 0.37822 0.85931 0.32223 0.0
H711 H 0.36419 0.925 0.32637 0.0
H712 H 0.0838 0.85193 0.56011 0.0
H713 H 0.04124 0.81521 0.55418 0.0
H714 H 0.08364 0.71811 0.58039 0.0
H715 H 0.12833 0.7537 0.58523 0.0
H716 H 0.06388 0.69475 0.56153 0.0
H717 H 0.95105 0.8044 0.57771 0.0
H718 H 0.98055 0.81952 0.56338 0.0
H719 H -0.0021 0.80697 0.57883 0.0
C720 C 0.08443 0.82241 0.56429 0.0
C721 C 0.10872 0.80547 0.57322 0.0
C722 C 0.05991 0.80161 0.56103 0.0
C723 C 0.05812 0.76434 0.56723 0.0
C724 C 0.08422 0.74688 0.57551 0.0
H725 H 0.89734 0.65208 0.60799 0.0
H726 H 0.93528 0.69794 0.59567 0.0
C727 C 0.10969 0.76717 0.57833 0.0
C728 C 0.02741 0.74422 0.56638 0.0
H729 H 0.93557 0.74722 0.57514 0.0
C730 C 0.03571 0.70629 0.56437 0.0
C731 C 0.99054 0.75959 0.56988 0.0
C732 C 0.97936 0.79972 0.57266 0.0
C733 C 0.00915 0.68206 0.56733 0.0
C734 C 0.97267 0.69694 0.57162 0.0
C735 C 0.96361 0.73589 0.57202 0.0
C736 C 0.94538 0.67216 0.57806 0.0
C737 C 0.02136 0.64032 0.56701 0.0
C738 C 0.93724 0.64317 0.57217 0.0
C739 C 0.91669 0.61616 0.57943 0.0
C740 C 0.90263 0.61905 0.5924 0.0
C741 C 0.90796 0.64969 0.59795 0.0
C742 C 0.92951 0.67586 0.59088 0.0
H743 H 0.05156 0.63297 0.56593 0.0
H744 H 0.00999 0.62323 0.57604 0.0
H745 H 0.01166 0.63208 0.55861 0.0
H746 H 0.94797 0.64049 0.56218 0.0
H747 H 0.91249 0.59258 0.57503 0.0
H748 H 0.02072 0.11325 0.83836 0.0
H749 H 0.97062 0.16271 0.83223 0.0
H750 H 0.04778 0.24062 0.81755 0.0
H751 H 0.0977 0.19159 0.82378 0.0
H752 H 0.96261 0.22537 0.8451 0.0
H753 H 0.9709 0.27203 0.79217 0.0
H754 H 0.98991 0.2251 0.79919 0.0
H755 H 0.01496 0.2642 0.79766 0.0
C756 C 0.02704 0.14056 0.8334 0.0
C757 C 0.06287 0.14902 0.83171 0.0
C758 C -0.00156 0.16867 0.82986 0.0
C759 C 0.00553 0.20519 0.82436 0.0
C760 C 0.04176 0.21244 0.82156 0.0
H761 H 0.96199 0.43134 0.82264 0.0
H762 H 0.97605 0.36628 0.81824 0.0
C763 C 0.07024 0.18457 0.82524 0.0
C764 C 0.97589 0.23763 0.82436 0.0
H765 H 0.9479 0.32109 0.80586 0.0
C766 C 0.95827 0.24592 0.83649 0.0
C767 C 0.97038 0.26412 0.8131 0.0
C768 C 0.98729 0.25573 0.79977 0.0
C769 C 0.93885 0.28181 0.8379 0.0
C770 C 0.936 0.30964 0.82674 0.0
C771 C 0.95037 0.29987 0.81442 0.0
C772 C 0.9244 0.35013 0.82789 0.0
C773 C 0.92489 0.29054 0.85146 0.0
C774 C 0.89032 0.36301 0.8345 0.0
C775 C 0.88277 0.39994 0.8374 0.0
C776 C 0.9087 0.42475 0.83335 0.0
C777 C 0.94169 0.41262 0.82598 0.0
C778 C 0.94958 0.37555 0.82336 0.0
H779 H 0.93499 0.26767 0.85908 0.0
H780 H 0.9333 0.31729 0.85291 0.0
H781 H 0.89465 0.29384 0.85293 0.0
H782 H 0.87008 0.34422 0.83778 0.0
H783 H 0.8569 0.4089 0.84294 0.0
H784 H 0.53432 0.89731 0.96432 0.0
H785 H 0.50013 0.84765 0.97594 0.0
H786 H 0.59812 0.76608 0.97338 0.0
H787 H 0.63234 0.81579 0.96126 0.0
H788 H 0.54648 0.74541 0.96348 0.0
H789 H 0.48552 0.78602 1.01099 0.0
H790 H 0.47647 0.82502 0.99841 0.0
H791 H 0.52293 0.80739 1.00127 0.0
C792 C 0.54872 0.86891 0.96643 0.0
C793 C 0.58576 0.86013 0.96173 0.0
C794 C 0.52926 0.84063 0.97328 0.0
C795 C 0.54665 0.8032 0.97574 0.0
C796 C 0.58424 0.79484 0.97168 0.0
H797 H 0.42886 0.61003 0.98616 0.0
H798 H 0.47423 0.64589 0.99054 0.0
C799 C 0.60369 0.82313 0.96471 0.0
C800 C 0.52424 0.77242 0.98025 0.0
H801 H 0.45029 0.74864 1.0015 0.0
C802 C 0.5262 0.74538 0.97202 0.0
C803 C 0.49768 0.77251 0.99137 0.0
C804 C 0.49584 0.79912 1.00106 0.0
C805 C 0.50059 0.72038 0.974 0.0
C806 C 0.47255 0.72215 0.98463 0.0
C807 C 0.47177 0.74759 0.99333 0.0
C808 C 0.44196 0.70051 0.98581 0.0
C809 C 0.50226 0.69406 0.96418 0.0
C810 C 0.40797 0.71943 0.98255 0.0
C811 C 0.38191 0.69902 0.98013 0.0
C812 C 0.38993 0.65962 0.98083 0.0
C813 C 0.42249 0.64055 0.98531 0.0
C814 C 0.44829 0.6609 0.98788 0.0
H815 H 0.52232 0.70044 0.95547 0.0
H816 H 0.51039 0.66449 0.96873 0.0
H817 H 0.47507 0.69588 0.96097 0.0
H818 H 0.40271 0.75006 0.98092 0.0
H819 H 0.35682 0.71421 0.97678 0.0
H820 H 0.55756 0.02429 0.74093 0.0
H821 H 0.5417 0.08717 0.74753 0.0
H822 H 0.59078 0.13641 0.71001 0.0
H823 H 0.60837 0.07336 0.70366 0.0
H824 H 0.59897 0.17507 0.72946 0.0
H825 H 0.4547 0.15028 0.73275 0.0
H826 H 0.48208 0.11856 0.74368 0.0
H827 H 0.49243 0.11792 0.72645 0.0
C828 C 0.56533 0.04858 0.73418 0.0
C829 C 0.58316 0.04441 0.72166 0.0
C830 C 0.55634 0.08438 0.73796 0.0
C831 C 0.56407 0.11651 0.72912 0.0
C832 C 0.58433 0.11198 0.71696 0.0
H833 H 0.49291 0.32773 0.69739 0.0
H834 H 0.53203 0.2736 0.70744 0.0
C835 C 0.59408 0.07608 0.71329 0.0
C836 C 0.54714 0.15486 0.73166 0.0
H837 H 0.46458 0.21115 0.73343 0.0
C838 C 0.56955 0.18292 0.7306 0.0
C839 C 0.50871 0.165 0.73327 0.0
C840 C 0.48299 0.13653 0.73402 0.0
C841 C 0.55456 0.2212 0.73018 0.0
C842 C 0.51634 0.23148 0.73076 0.0
C843 C 0.4939 0.20315 0.73303 0.0
C844 C 0.49927 0.27044 0.72632 0.0
C845 C 0.57982 0.2504 0.72851 0.0
C846 C 0.46828 0.28739 0.73369 0.0
C847 C 0.44561 0.31828 0.72788 0.0
C848 C 0.4535 0.3321 0.71462 0.0
C849 C 0.48609 0.31725 0.70761 0.0
C850 C 0.50878 0.28663 0.71341 0.0
H851 H 0.60458 0.23881 0.73332 0.0
H852 H 0.58888 0.2584 0.718 0.0
H853 H 0.5661 0.27626 0.73256 0.0
H854 H 0.46029 0.27507 0.74363 0.0
H855 H 0.42066 0.32946 0.73351 0.0
H856 H 0.08921 0.36706 0.47302 0.0
H857 H 0.04274 0.32862 0.48398 0.0
H858 H 0.04747 0.27902 0.44919 0.0
H859 H 0.09269 0.31898 0.43797 0.0
H860 H 0.98003 0.30671 0.45763 0.0
H861 H 0.04329 0.2198 0.49937 0.0
H862 H 0.04164 0.26982 0.49867 0.0
H863 H 0.06924 0.24616 0.48608 0.0
C864 C 0.08083 0.34738 0.46779 0.0
C865 C 0.09422 0.34602 0.45463 0.0
C866 C 0.05443 0.32527 0.47411 0.0
C867 C 0.04181 0.30076 0.46744 0.0
C868 C 0.05679 0.29788 0.4545 0.0
H869 H 0.93147 0.11819 0.48321 0.0
H870 H 0.97035 0.16377 0.48499 0.0
C871 C 0.08263 0.32054 0.4481 0.0
C872 C 0.01056 0.28088 0.47337 0.0
H873 H 0.98174 0.21489 0.49833 0.0
C874 C 0.9803 0.2867 0.46656 0.0
C875 C 0.01088 0.2553 0.48513 0.0
C876 C 0.04311 0.24709 0.4927 0.0
C877 C 0.9514 0.26578 0.47063 0.0
C878 C 0.95195 0.23948 0.48225 0.0
C879 C 0.98118 0.2354 0.48953 0.0
C880 C 0.92659 0.21107 0.48545 0.0
C881 C 0.92215 0.27014 0.46185 0.0
C882 C 0.88858 0.22178 0.48624 0.0
C883 C 0.8663 0.19581 0.48482 0.0
C884 C 0.88193 0.15886 0.48296 0.0
C885 C 0.91897 0.14689 0.48424 0.0
C886 C 0.9412 0.17289 0.48538 0.0
H887 H 0.92964 0.28662 0.45216 0.0
H888 H 0.91694 0.24208 0.46032 0.0
H889 H 0.89642 0.28529 0.46637 0.0
H890 H 0.8766 0.25085 0.48681 0.0
H891 H 0.83758 0.20541 0.48417 0.0
H892 H 0.06799 0.57241 0.1964 0.0
H893 H 0.05378 0.63749 0.20083 0.0
H894 H 0.12215 0.61 0.23157 0.0
H895 H 0.13598 0.54447 0.22728 0.0
H896 H 0.05463 0.64322 0.23981 0.0
H897 H 0.10689 0.72833 0.1945 0.0
H898 H 0.08157 0.69478 0.19073 0.0
H899 H 0.12246 0.67826 0.19833 0.0
C900 C 0.08053 0.58043 0.20393 0.0
C901 C 0.10284 0.55351 0.21156 0.0
C902 C 0.07272 0.6177 0.20637 0.0
C903 C 0.08739 0.62874 0.2164 0.0
C904 C 0.11083 0.60215 0.22372 0.0
H905 H 0.97574 0.85802 0.21618 0.0
H906 H 0.02818 0.81024 0.22116 0.0
C907 C 0.11865 0.5648 0.22127 0.0
C908 C 0.07394 0.66653 0.22018 0.0
H909 H 0.04991 0.75733 0.20626 0.0
C910 C 0.05454 0.66852 0.23262 0.0
C911 C 0.07479 0.6998 0.21101 0.0
C912 C 0.09797 0.70021 0.19795 0.0
C913 C 0.03218 0.70186 0.23551 0.0
C914 C 0.02874 0.73346 0.22562 0.0
C915 C 0.05187 0.73287 0.2138 0.0
C916 C 0.99686 0.76363 0.22617 0.0
C917 C 0.01081 0.70213 0.24885 0.0
C918 C 0.96169 0.7535 0.2278 0.0
C919 C 0.93186 0.78061 0.22495 0.0
C920 C 0.93675 0.81823 0.22029 0.0
C921 C 0.97132 0.82908 0.2197 0.0
C922 C 0.00127 0.80186 0.22255 0.0
H923 H 0.02698 0.68487 0.25636 0.0
H924 H 0.00288 0.73128 0.25125 0.0
H925 H 0.98572 0.68925 0.24928 0.0
H926 H 0.95762 0.72414 0.23027 0.0
H927 H 0.90543 0.77161 0.22556 0.0
H928 H 0.45524 -0.01359 0.08524 0.0
H929 H 0.49789 0.97832 0.06522 0.0
H930 H 0.4072 -0.00134 0.0431 0.0
H931 H 0.36496 0.00653 0.06279 0.0
H932 H 0.50595 0.92998 0.04546 0.0
H933 H 0.46877 0.07937 1.02399 0.0
H934 H 0.45683 0.06239 0.04101 0.0
H935 H 0.4304 0.05428 0.02915 0.0
C936 C 0.4443 -0.01171 0.07617 0.0
C937 C 0.40629 -0.00278 0.07582 0.0
C938 C 0.46885 0.984 0.06464 0.0
C939 C 0.45617 -0.01116 0.05239 0.0
C940 C 0.4182 -0.00426 0.05221 0.0
H941 H 0.55039 -0.00834 0.96967 0.0
H942 H 0.51077 -0.00097 0.99032 0.0
C943 C 0.39385 -0.00011 0.06363 0.0
C944 C 0.482 -0.01258 0.03978 0.0
H945 H 0.50483 0.03907 1.00988 0.0
C946 C 0.50587 0.954 0.03775 0.0
C947 C 0.48209 0.01844 0.02948 0.0
C948 C 0.45842 0.05579 0.03101 0.0
C949 C 0.52872 0.95045 1.0258 0.0
C950 C 0.52891 0.98156 1.01549 0.0
C951 C 0.50511 0.01503 1.01758 0.0
C952 C 0.55364 0.97994 1.0026 0.0
C953 C 0.55141 0.91262 1.02424 0.0
C954 C 0.59155 0.96845 1.00225 0.0
C955 C 0.6142 0.96432 0.99044 0.0
C956 C 0.60013 0.97221 0.97841 0.0
C957 C 0.56255 -0.01415 0.97863 0.0
C958 C 0.5397 -0.0103 0.99053 0.0
H959 H 0.53975 0.88926 0.03097 0.0
H960 H 0.55359 0.90657 1.01414 0.0
H961 H 0.57928 0.91271 1.02656 0.0
H962 H 0.60379 0.962 1.01118 0.0
H963 H 0.6429 0.95384 0.99079 0.0
H964 H 0.71551 0.64741 0.33089 0.0
H965 H 0.74033 0.69436 0.31362 0.0
H966 H 0.70129 0.64478 0.28501 0.0
H967 H 0.67612 0.59814 0.30217 0.0
H968 H 0.79091 0.69029 0.29174 0.0
H969 H 0.65633 0.75413 0.27654 0.0
H970 H 0.66087 0.72134 0.29136 0.0
H971 H 0.66664 0.70427 0.276 0.0
C972 C 0.71249 0.64614 0.32092 0.0
C973 C 0.69357 0.6187 0.31805 0.0
C974 C 0.72665 0.67326 0.311 0.0
C975 C 0.7221 0.67405 0.29792 0.0
C976 C 0.70447 0.64577 0.29499 0.0
H977 H 0.78171 0.81675 0.22377 0.0
H978 H 0.75753 0.77019 0.24128 0.0
C979 C 0.69034 0.61868 0.30488 0.0
C980 C 0.73561 0.70433 0.28739 0.0
H981 H 0.70832 0.77455 0.26304 0.0
C982 C 0.77273 0.70881 0.28554 0.0
C983 C 0.71219 0.72881 0.27915 0.0
C984 C 0.67174 0.72725 0.28091 0.0
C985 C 0.78707 0.73605 0.27562 0.0
C986 C 0.76365 0.7605 0.26737 0.0
C987 C 0.72651 0.75607 0.26926 0.0
C988 C 0.77717 0.79046 0.25671 0.0
C989 C 0.82755 0.7375 0.27385 0.0
C990 C 0.79549 0.81858 0.25938 0.0
C991 C 0.80934 0.84546 0.24933 0.0
C992 C 0.80507 0.84538 0.23625 0.0
C993 C 0.78556 0.81805 0.23365 0.0
C994 C 0.77174 0.79116 0.24372 0.0
H995 H 0.8429 0.71059 0.27822 0.0
H996 H 0.83839 0.74333 0.2634 0.0
H997 H 0.83274 0.76047 0.27874 0.0
H998 H 0.79935 0.81969 0.26928 0.0
H999 H 0.82408 0.86591 0.25182 0.0
H1000 H 0.09048 0.96086 0.56782 0.0
H1001 H 0.03897 0.98437 0.55542 0.0
H1002 H 0.09235 0.92167 0.52483 0.0
H1003 H 0.14378 0.89778 0.53718 0.0
H1004 H 0.03134 0.02549 0.53099 0.0
H1005 H 0.99447 0.88256 0.53324 0.0
H1006 H 0.02647 0.89186 0.54304 0.0
H1007 H 0.04067 0.8868 0.52625 0.0
C1008 C 0.09169 0.95252 0.55836 0.0
C1009 C 0.12162 0.92728 0.55359 0.0
C1010 C 0.06195 0.96589 0.55128 0.0
C1011 C 0.06106 0.95418 0.53927 0.0
C1012 C 0.09169 0.93049 0.53419 0.0
H1013 H 0.90107 0.00218 0.48331 0.0
H1014 H 0.95351 0.97708 0.4952 0.0
C1015 C 0.12146 0.91718 0.54124 0.0
C1016 C 0.02803 0.96634 0.5322 0.0
H1017 H 0.96195 0.93274 0.52004 0.0
C1018 C 0.01617 0.00514 0.52865 0.0
C1019 C 0.00788 0.93999 0.52909 0.0
C1020 C 0.01771 0.89799 0.5332 0.0
C1021 C 0.98547 0.01818 0.52195 0.0
C1022 C 0.96531 -0.00815 0.51885 0.0
C1023 C 0.97722 0.95305 0.52235 0.0
C1024 C 0.93177 0.00425 0.51208 0.0
C1025 C 0.97532 0.0602 0.51799 0.0
C1026 C 0.90113 0.02669 0.51773 0.0
C1027 C 0.87091 0.04082 0.51099 0.0
C1028 C 0.87028 0.0329 0.49838 0.0
C1029 C 0.90023 0.0088 0.493 0.0
C1030 C 0.93047 -0.00545 0.49979 0.0
H1031 H -0.00159 0.07579 0.51801 0.0
H1032 H 0.96652 0.06651 0.50815 0.0
H1033 H 0.95228 0.07102 0.52498 0.0
H1034 H 0.90087 0.034 0.52729 0.0
H1035 H 0.84857 0.0592 0.51553 0.0
H1036 H 0.7898 0.37437 0.78912 0.0
H1037 H 0.78419 0.32561 0.77638 0.0
H1038 H 0.71707 0.27176 0.80891 0.0
H1039 H 0.72288 0.31994 0.82177 0.0
H1040 H 0.80384 0.24584 0.7822 0.0
H1041 H 0.65564 0.28599 0.77867 0.0
H1042 H 0.68264 0.31699 0.78336 0.0
H1043 H 0.66751 0.27842 0.7949 0.0
C1044 C 0.77402 0.35203 0.7936 0.0
C1045 C 0.75656 0.35125 0.80645 0.0
C1046 C 0.77071 0.32432 0.78628 0.0
C1047 C 0.74972 0.29548 0.79164 0.0
C1048 C 0.7327 0.29428 0.8045 0.0
H1049 H 0.69669 0.10194 0.76352 0.0
H1050 H 0.70234 0.15023 0.77647 0.0
C1051 C 0.73602 0.3219 0.81182 0.0
C1052 C 0.74622 0.26614 0.78387 0.0
H1053 H 0.68424 0.229 0.77109 0.0
C1054 C 0.77775 0.24223 0.77971 0.0
C1055 C 0.71209 0.26145 0.7807 0.0
C1056 C 0.67753 0.28724 0.78453 0.0
C1057 C 0.77599 0.21328 0.77262 0.0
C1058 C 0.74187 0.20866 0.76941 0.0
C1059 C 0.71034 0.23256 0.77359 0.0
C1060 C 0.7384 0.17953 0.76155 0.0
C1061 C 0.81056 0.1874 0.76887 0.0
C1062 C 0.75629 0.18041 0.7488 0.0
C1063 C 0.75304 0.15299 0.74139 0.0
C1064 C 0.73162 0.12424 0.74653 0.0
C1065 C 0.71322 0.12381 0.75924 0.0
C1066 C 0.71654 0.15127 0.76667 0.0
H1067 H 0.83208 0.18809 0.77497 0.0
H1068 H 0.80531 0.15777 0.76979 0.0
H1069 H 0.82121 0.19669 0.7586 0.0
H1070 H 0.77255 0.20253 0.74455 0.0
H1071 H 0.76692 0.15465 0.73154 0.0
H1072 H 0.29442 0.31086 0.72234 0.0
H1073 H 0.26859 0.26501 0.73973 0.0
H1074 H 0.29351 0.32529 0.76837 0.0
H1075 H 0.31851 0.37162 0.75108 0.0
H1076 H 0.29924 0.21608 0.75833 0.0
H1077 H 0.19069 0.31268 0.78284 0.0
H1078 H 0.21504 0.32734 0.76712 0.0
H1079 H 0.23489 0.32661 0.7817 0.0
C1080 C 0.29386 0.31484 0.73233 0.0
C1081 C 0.30833 0.34552 0.73518 0.0
C1082 C 0.27918 0.28832 0.74233 0.0
C1083 C 0.27834 0.29159 0.75552 0.0
C1084 C 0.29268 0.3223 0.75837 0.0
H1085 H 0.21366 0.15374 0.83025 0.0
H1086 H 0.2394 0.19926 0.81271 0.0
C1087 C 0.30722 0.3489 0.74839 0.0
C1088 C 0.26393 0.26219 0.76621 0.0
H1089 H 0.20412 0.25045 0.79428 0.0
C1090 C 0.27824 0.22373 0.76612 0.0
C1091 C 0.2365 0.27161 0.77653 0.0
C1092 C 0.21811 0.31174 0.77702 0.0
C1093 C 0.26664 0.19497 0.77602 0.0
C1094 C 0.23942 0.20445 0.78637 0.0
C1095 C 0.22507 0.24286 0.78647 0.0
C1096 C 0.22521 0.1751 0.79708 0.0
C1097 C 0.28442 0.15467 0.77548 0.0
C1098 C 0.20853 0.14586 0.79434 0.0
C1099 C 0.19376 0.11961 0.8044 0.0
C1100 C 0.19513 0.12171 0.81757 0.0
C1101 C 0.21231 0.15071 0.82029 0.0
C1102 C 0.22692 0.17706 0.81022 0.0
H1103 H 0.31116 0.15324 0.7692 0.0
H1104 H 0.28864 0.13944 0.78534 0.0
H1105 H 0.26644 0.13974 0.77134 0.0
H1106 H 0.20601 0.14386 0.78438 0.0
H1107 H 0.18045 0.09814 0.80183 0.0
H1108 H 0.19785 0.8723 0.30151 0.0
H1109 H 0.19508 0.81968 0.29012 0.0
H1110 H 0.31068 0.78444 0.2905 0.0
H1111 H 0.31368 0.83681 0.302 0.0
H1112 H 0.28678 0.78493 0.26633 0.0
H1113 H 0.20157 0.70812 0.30677 0.0
H1114 H 0.18293 0.75653 0.30188 0.0
H1115 H 0.22478 0.74586 0.309 0.0
C1116 C 0.22267 0.85324 0.29924 0.0
C1117 C 0.25595 0.85868 0.30275 0.0
C1118 C 0.22102 0.82316 0.29274 0.0
C1119 C 0.25255 0.79775 0.28968 0.0
C1120 C 0.28599 0.80364 0.29283 0.0
H1121 H 0.30133 0.5972 0.25145 0.0
H1122 H 0.304 0.64998 0.26278 0.0
C1123 C 0.28768 0.83373 0.29934 0.0
C1124 C 0.25068 0.76513 0.28313 0.0
H1125 H 0.21212 0.68443 0.28669 0.0
C1126 C 0.2706 0.76286 0.27079 0.0
C1127 C 0.22949 0.7364 0.28897 0.0
C1128 C 0.20871 0.73651 0.30243 0.0
C1129 C 0.26939 0.73298 0.26403 0.0
C1130 C 0.24822 0.70422 0.26988 0.0
C1131 C 0.22829 0.70651 0.28222 0.0
C1132 C 0.24643 0.67154 0.26335 0.0
C1133 C 0.29013 0.73291 0.25056 0.0
C1134 C 0.21297 0.66537 0.2603 0.0
C1135 C 0.21132 0.63516 0.25384 0.0
C1136 C 0.24313 0.61039 0.25037 0.0
C1137 C 0.27644 0.61612 0.25376 0.0
C1138 C 0.27804 0.6463 0.26022 0.0
H1139 H 0.29704 0.76138 0.24621 0.0
H1140 H 0.31603 0.7131 0.25111 0.0
H1141 H 0.27414 0.72337 0.24402 0.0
H1142 H 0.18821 0.68441 0.26268 0.0
H1143 H 0.18529 0.63183 0.25126 0.0
H1144 H 0.04411 0.4847 0.46876 0.0
H1145 H 0.00209 0.49527 0.48869 0.0
H1146 H 0.09329 0.47254 0.51066 0.0
H1147 H 0.13489 0.46314 0.49099 0.0
H1148 H 0.98686 0.44742 0.51068 0.0
H1149 H 0.04147 0.5638 0.52521 0.0
H1150 H 0.05471 0.54974 0.50934 0.0
H1151 H 0.07644 0.52433 0.52305 0.0
C1152 C 0.05532 0.48327 0.47775 0.0
C1153 C 0.09328 0.47358 0.47805 0.0
C1154 C 0.03112 0.48884 0.48925 0.0
C1155 C 0.0441 0.48532 0.5014 0.0
C1156 C 0.08206 0.47658 0.50156 0.0
H1157 H 0.94717 0.48492 0.58397 0.0
H1158 H 0.98818 0.47536 0.56373 0.0
C1159 C 0.10606 0.47102 0.49017 0.0
C1160 C 0.0184 0.48845 0.51398 0.0
H1161 H 0.00273 0.53002 0.54173 0.0
C1162 C 0.99026 0.46582 0.51736 0.0
C1163 C 0.0224 0.51215 0.52298 0.0
C1164 C 0.05014 0.53915 0.51991 0.0
C1165 C 0.96703 0.4656 0.52937 0.0
C1166 C 0.97133 0.48896 0.53841 0.0
C1167 C -0.00065 0.51167 0.53502 0.0
C1168 C 0.94603 0.49167 0.55106 0.0
C1169 C 0.93851 0.43947 0.53238 0.0
C1170 C 0.90837 0.50367 0.55096 0.0
C1171 C 0.88498 0.50907 0.56252 0.0
C1172 C 0.89813 0.5025 0.5747 0.0
C1173 C 0.93569 0.4894 0.5749 0.0
C1174 C 0.95931 0.48437 0.56325 0.0
H1175 H 0.94545 0.41588 0.52655 0.0
H1176 H 0.93524 0.42739 0.54285 0.0
H1177 H 0.91193 0.45564 0.52999 0.0
H1178 H 0.89709 0.51034 0.54184 0.0
H1179 H 0.85645 0.51974 0.56183 0.0
H1180 H 0.59049 0.46392 0.0707 0.0
H1181 H 0.53908 0.48862 0.0584 0.0
H1182 H 0.59463 0.43305 1.02635 0.0
H1183 H 0.64638 0.4083 0.03856 0.0
H1184 H 0.55858 0.50669 1.01836 0.0
H1185 H 0.46514 0.42266 0.05312 0.0
H1186 H 0.48741 0.45226 0.06043 0.0
H1187 H 0.51402 0.4137 0.053 0.0
C1188 C 0.59225 0.45744 0.06094 0.0
C1189 C 0.62293 0.43397 0.0557 0.0
C1190 C 0.56246 0.47128 0.05395 0.0
C1191 C 0.56235 0.46209 0.04151 0.0
C1192 C 0.59371 0.44039 0.03596 0.0
H1193 H 0.40598 0.51052 0.98437 0.0
H1194 H 0.45761 0.48554 0.99655 0.0
C1195 C 0.6235 0.42637 0.04296 0.0
C1196 C 0.52935 0.47437 0.03445 0.0
H1197 H 0.43848 0.46691 0.03663 0.0
C1198 C 0.53239 0.49782 1.02234 0.0
C1199 C 0.49496 0.46289 0.03957 0.0
C1200 C 0.49007 0.43621 0.05218 0.0
C1201 C 0.5021 0.51069 1.01542 0.0
C1202 C 0.4677 0.49926 1.02054 0.0
C1203 C 0.46467 0.47577 0.03264 0.0
C1204 C 0.43462 0.51175 1.01353 0.0
C1205 C 0.507 0.53733 1.0028 0.0
C1206 C 0.40335 0.53337 1.01917 0.0
C1207 C 0.37345 0.54754 1.01224 0.0
C1208 C 0.37378 0.54017 0.9995 0.0
C1209 C 0.40439 0.51681 0.99415 0.0
C1210 C 0.43431 0.50282 1.00107 0.0
H1211 H 0.53199 0.55082 1.00184 0.0
H1212 H 0.50958 0.52128 0.99455 0.0
H1213 H 0.48309 0.5599 1.00198 0.0
H1214 H 0.40257 0.54051 0.0288 0.0
H1215 H 0.35062 0.56547 1.01673 0.0
H1216 H 0.24021 0.15934 0.1206 0.0
H1217 H 0.21501 0.20635 0.13496 0.0
H1218 H 0.28669 0.14942 0.16288 0.0
H1219 H 0.31047 0.10126 0.14888 0.0
H1220 H 0.22376 0.17416 0.1753 0.0
H1221 H 0.26529 0.29155 0.13782 0.0
H1222 H 0.23361 0.26703 0.1327 0.0
H1223 H 0.27831 0.24276 0.13563 0.0
C1224 C 0.25038 0.15673 0.12984 0.0
C1225 C 0.27757 0.12677 0.13354 0.0
C1226 C 0.23615 0.1838 0.13802 0.0
C1227 C 0.24963 0.18223 0.14988 0.0
C1228 C 0.27589 0.15152 0.15377 0.0
H1229 H 0.25342 0.37222 0.18744 0.0
H1230 H 0.26395 0.31869 0.17564 0.0
C1231 C 0.28953 0.12397 0.14574 0.0
C1232 C 0.23752 0.21307 0.15804 0.0
H1233 H 0.23095 0.30851 0.15719 0.0
C1234 C 0.22535 0.20356 0.17134 0.0
C1235 C 0.23992 0.2515 0.15295 0.0
C1236 C 0.25533 0.26383 0.13904 0.0
C1237 C 0.21617 0.23114 0.1797 0.0
C1238 C 0.218 0.26961 0.17455 0.0
C1239 C 0.22932 0.27912 0.16119 0.0
C1240 C 0.21153 0.3003 0.18282 0.0
C1241 C 0.20612 0.21849 0.19403 0.0
C1242 C 0.17874 0.30772 0.19113 0.0
C1243 C 0.17299 0.33817 0.19823 0.0
C1244 C 0.19946 0.36229 0.19685 0.0
C1245 C 0.23229 0.35439 0.18869 0.0
C1246 C 0.23833 0.32376 0.18186 0.0
H1247 H 0.21541 0.18783 0.19684 0.0
H1248 H 0.21815 0.23454 0.19996 0.0
H1249 H 0.176 0.22352 0.19644 0.0
H1250 H 0.15727 0.2906 0.1919 0.0
H1251 H 0.14763 0.34329 0.20454 0.0
H1252 H 0.49388 0.52176 0.35671 0.0
H1253 H 0.4354 0.51269 0.36967 0.0
H1254 H 0.47759 0.52815 0.40394 0.0
H1255 H 0.53625 0.53823 0.39091 0.0
H1256 H 0.41725 0.46022 0.38949 0.0
H1257 H 0.3833 0.5999 0.40633 0.0
H1258 H 0.42025 0.58986 0.39368 0.0
H1259 H 0.42637 0.57474 0.4105 0.0
C1260 C 0.49088 0.52336 0.36701 0.0
C1261 C 0.51999 0.53089 0.37272 0.0
C1262 C 0.45723 0.51815 0.37443 0.0
C1263 C 0.45156 0.52036 0.38779 0.0
C1264 C 0.48075 0.52728 0.3936 0.0
H1265 H 0.28441 0.46983 0.45128 0.0
H1266 H 0.33653 0.49109 0.43661 0.0
C1267 C 0.51449 0.53271 0.38614 0.0
C1268 C 0.41547 0.51425 0.39559 0.0
H1269 H 0.34572 0.55338 0.41647 0.0
C1270 C 0.4015 0.48081 0.39528 0.0
C1271 C 0.39458 0.54109 0.40315 0.0
C1272 C 0.40666 0.57858 0.40336 0.0
C1273 C 0.36807 0.47298 0.40256 0.0
C1274 C 0.34756 0.49949 0.41029 0.0
C1275 C 0.36127 0.53311 0.41051 0.0
C1276 C 0.31342 0.49133 0.419 0.0
C1277 C 0.35558 0.43573 0.40228 0.0
C1278 C 0.28215 0.48583 0.41405 0.0
C1279 C 0.25188 0.47401 0.4225 0.0
C1280 C 0.25252 0.46734 0.43602 0.0
C1281 C 0.28301 0.47485 0.44091 0.0
C1282 C 0.31294 0.48692 0.43252 0.0
H1283 H 0.37763 0.41552 0.39784 0.0
H1284 H 0.34591 0.42251 0.41225 0.0
H1285 H 0.33246 0.44069 0.39647 0.0
H1286 H 0.2816 0.48955 0.40366 0.0
H1287 H 0.22899 0.46805 0.41844 0.0
H1288 H 0.2151 0.77792 0.62351 0.0
H1289 H 0.23584 0.72288 0.6389 0.0
H1290 H 0.25897 0.65436 0.60816 0.0
H1291 H 0.23892 0.70956 0.59262 0.0
H1292 H 0.21216 0.6545 0.64689 0.0
H1293 H 0.35503 0.63287 0.62289 0.0
H1294 H 0.32358 0.67499 0.61858 0.0
H1295 H 0.32145 0.63207 0.61253 0.0
C1296 C 0.22465 0.7512 0.61997 0.0
C1297 C 0.22553 0.74843 0.60674 0.0
C1298 C 0.23645 0.71961 0.62883 0.0
C1299 C 0.24956 0.68436 0.62473 0.0
C1300 C 0.24981 0.6813 0.61158 0.0
H1301 H 0.29212 0.4764 0.68246 0.0
H1302 H 0.26567 0.52225 0.66502 0.0
C1303 C 0.23812 0.71296 0.60268 0.0
C1304 C 0.26312 0.65116 0.63425 0.0
H1305 H 0.33886 0.58762 0.64088 0.0
C1306 C 0.23982 0.63976 0.64554 0.0
C1307 C 0.29933 0.63195 0.6326 0.0
C1308 C 0.32646 0.64372 0.62107 0.0
C1309 C 0.25177 0.61024 0.65523 0.0
C1310 C 0.28795 0.59096 0.65355 0.0
C1311 C 0.31103 0.60201 0.64216 0.0
C1312 C 0.30364 0.56195 0.66396 0.0
C1313 C 0.22598 0.601 0.66743 0.0
C1314 C 0.3343 0.56823 0.66899 0.0
C1315 C 0.34952 0.54203 0.67878 0.0
C1316 C 0.33464 0.50862 0.68389 0.0
C1317 C 0.30415 0.50189 0.67879 0.0
C1318 C 0.28887 0.52827 0.66888 0.0
H1319 H 0.20215 0.62357 0.66845 0.0
H1320 H 0.2156 0.57434 0.66709 0.0
H1321 H 0.24019 0.59688 0.67618 0.0
H1322 H 0.34636 0.59378 0.66542 0.0
H1323 H 0.37307 0.54818 0.68241 0.0
H1324 H 0.07941 0.52129 0.87912 0.0
H1325 H 0.1218 0.52027 0.89476 0.0
H1326 H 0.0455 0.60363 0.91339 0.0
H1327 H 0.00297 0.60456 0.8979 0.0
H1328 H 0.15674 0.57378 0.9001 0.0
H1329 H 0.06647 0.52577 0.94432 0.0
H1330 H 0.05629 0.52455 0.92821 0.0
H1331 H 0.04504 0.56773 0.93518 0.0
C1332 C 0.0716 0.53945 0.88654 0.0
C1333 C 0.03746 0.5628 0.88726 0.0
C1334 C 0.09592 0.53875 0.89553 0.0
C1335 C 0.08675 0.56128 0.90549 0.0
C1336 C 0.05294 0.58504 0.90609 0.0
H1337 H 0.17854 0.63956 0.96269 0.0
H1338 H 0.14417 0.62339 0.94716 0.0
C1339 C 0.02856 0.5856 0.89717 0.0
C1340 C 0.11269 0.56077 0.91507 0.0
H1341 H 0.11753 0.55348 0.94763 0.0
C1342 C 0.14832 0.56877 0.91049 0.0
C1343 C 0.10214 0.55375 0.92869 0.0
C1344 C 0.06554 0.54206 0.93439 0.0
C1345 C 0.17268 0.57205 0.91909 0.0
C1346 C 0.1613 0.56703 0.93265 0.0
C1347 C 0.12628 0.55753 0.93724 0.0
C1348 C 0.18344 0.57557 0.94217 0.0
C1349 C 0.20985 0.58253 0.91361 0.0
C1350 C 0.21712 0.55378 0.94475 0.0
C1351 C 0.237 0.56286 0.95385 0.0
C1352 C 0.22362 0.59404 0.96042 0.0
C1353 C 0.18982 0.61536 0.95784 0.0
C1354 C 0.17001 0.60617 0.94892 0.0
H1355 H 0.21287 0.59014 0.90286 0.0
H1356 H 0.21506 0.6067 0.91791 0.0
H1357 H 0.23102 0.5582 0.91616 0.0
H1358 H 0.22791 0.5297 0.93979 0.0
H1359 H 0.26276 0.54575 0.95569 0.0
H1360 H 0.75002 0.58686 0.8698 0.0
H1361 H 0.73527 0.64489 0.87929 0.0
H1362 H 0.82474 0.69014 0.85411 0.0
H1363 H 0.83992 0.6312 0.84441 0.0
H1364 H 0.8208 0.69841 0.88093 0.0
H1365 H 0.68742 0.74888 0.86302 0.0
H1366 H 0.69121 0.70029 0.87047 0.0
H1367 H 0.72103 0.71382 0.85591 0.0
C1368 C 0.7665 0.60918 0.86614 0.0
C1369 C 0.79606 0.6045 0.85629 0.0
C1370 C 0.75785 0.64249 0.87156 0.0
C1371 C 0.77842 0.67216 0.86726 0.0
C1372 C 0.80827 0.66769 0.85747 0.0
H1373 H 0.69154 0.87942 0.90146 0.0
H1374 H 0.71685 0.8373 0.88542 0.0
C1375 C 0.8169 0.63412 0.85194 0.0
C1376 C 0.76906 0.70674 0.8736 0.0
H1377 H 0.6965 0.77214 0.88225 0.0
C1378 C 0.79389 0.71506 0.88102 0.0
C1379 C 0.73413 0.72883 0.87359 0.0
C1380 C 0.70705 0.72278 0.86521 0.0
C1381 C 0.78388 0.74328 0.88908 0.0
C1382 C 0.74787 0.76319 0.8899 0.0
C1383 C 0.7239 0.75654 0.88181 0.0
C1384 C 0.73381 0.78937 0.89959 0.0
C1385 C 0.81185 0.7511 0.89676 0.0
C1386 C 0.73432 0.77635 0.91292 0.0
C1387 C 0.7199 0.80032 0.92212 0.0
C1388 C 0.70424 0.83782 0.9182 0.0
C1389 C 0.70337 0.85072 0.90484 0.0
C1390 C 0.71792 0.8267 0.89564 0.0
H1391 H 0.84004 0.74354 0.89194 0.0
H1392 H 0.80782 0.78133 0.89806 0.0
H1393 H 0.80932 0.73361 0.90651 0.0
H1394 H 0.74542 0.74737 0.91626 0.0
H1395 H 0.72086 0.78932 0.93231 0.0
H1396 H 0.45981 0.43923 0.66251 0.0
H1397 H 0.519 0.44822 0.6497 0.0
H1398 H 0.56207 0.458 0.68444 0.0
H1399 H 0.50336 0.44873 0.69729 0.0
H1400 H 0.55786 0.50879 0.64651 0.0
H1401 H 0.63928 0.37871 0.66906 0.0
H1402 H 0.59001 0.38588 0.67119 0.0
H1403 H 0.61429 0.40826 0.68045 0.0
C1404 C 0.48185 0.44329 0.66744 0.0
C1405 C 0.47664 0.44314 0.68097 0.0
C1406 C 0.51577 0.44837 0.66009 0.0
C1407 C 0.5454 0.45306 0.6661 0.0
C1408 C 0.54007 0.45352 0.67957 0.0
H1409 H 0.76617 0.5059 0.63534 0.0
H1410 H 0.71238 0.48631 0.64992 0.0
C1411 C 0.50621 0.44855 0.68691 0.0
C1412 C 0.58143 0.45879 0.65824 0.0
H1413 H 0.67241 0.42267 0.6546 0.0
C1414 C 0.58282 0.48982 0.64826 0.0
C1415 C 0.61425 0.43428 0.66055 0.0
C1416 C 0.61451 0.39971 0.67081 0.0
C1417 C 0.61589 0.49723 0.64065 0.0
C1418 C 0.64866 0.47248 0.64283 0.0
C1419 C 0.64741 0.44163 0.6529 0.0
C1420 C 0.68398 0.478 0.63445 0.0
C1421 C 0.6155 0.53206 0.63048 0.0
C1422 C 0.68695 0.47772 0.62101 0.0
C1423 C 0.71749 0.48879 0.61275 0.0
C1424 C 0.74618 0.49978 0.6177 0.0
C1425 C 0.74479 0.49697 0.63126 0.0
C1426 C 0.71387 0.48615 0.63957 0.0
H1427 H 0.59103 0.55325 0.63245 0.0
H1428 H 0.64026 0.54557 0.62997 0.0
H1429 H 0.61492 0.5239 0.62084 0.0
H1430 H 0.66476 0.47072 0.61682 0.0
H1431 H 0.71769 0.49084 0.60235 0.0
H1432 H 0.73911 0.24878 0.46173 0.0
H1433 H 0.71945 0.30572 0.44679 0.0
H1434 H 0.77327 0.2515 0.41418 0.0
H1435 H 0.79388 0.19521 0.429 0.0
H1436 H 0.78528 0.32294 0.41037 0.0
H1437 H 0.63716 0.32091 0.42551 0.0
H1438 H 0.66171 0.32398 0.43853 0.0
H1439 H 0.67107 0.28221 0.4308 0.0
C1440 C 0.74672 0.24893 0.45138 0.0
C1441 C 0.76798 0.21709 0.44664 0.0
C1442 C 0.73525 0.28155 0.4428 0.0
C1443 C 0.74421 0.28299 0.42925 0.0
C1444 C 0.76583 0.25139 0.42454 0.0
H1445 H 0.63331 0.41673 0.36799 0.0
H1446 H 0.65889 0.37095 0.38509 0.0
C1447 C 0.77756 0.219 0.43309 0.0
C1448 C 0.73102 0.31695 0.41988 0.0
H1449 H 0.65384 0.37244 0.41014 0.0
C1450 C 0.75652 0.33384 0.41036 0.0
C1451 C 0.69346 0.33127 0.41972 0.0
C1452 C 0.66421 0.31349 0.42909 0.0
C1453 C 0.74559 0.36382 0.40063 0.0
C1454 C 0.70803 0.37816 0.4005 0.0
C1455 C 0.68266 0.36184 0.41021 0.0
C1456 C 0.69388 0.40715 0.38973 0.0
C1457 C 0.77432 0.37868 0.39025 0.0
C1458 C 0.70495 0.44331 0.38638 0.0
C1459 C 0.6905 0.46982 0.3763 0.0
C1460 C 0.66432 0.46085 0.36951 0.0
C1461 C 0.6534 0.42478 0.37295 0.0
C1462 C 0.66798 0.39843 0.38283 0.0
H1463 H 0.8005 0.35906 0.38999 0.0
H1464 H 0.76502 0.38333 0.38051 0.0
H1465 H 0.7796 0.40616 0.39228 0.0
H1466 H 0.72428 0.4513 0.39168 0.0
H1467 H 0.69923 0.49744 0.374 0.0
H1468 H 0.81754 0.33836 0.09237 0.0
H1469 H 0.85156 0.35538 0.10784 0.0
H1470 H 0.76363 0.4437 0.11693 0.0
H1471 H 0.729 0.42665 0.10119 0.0
H1472 H 0.87476 0.42594 0.10839 0.0
H1473 H 0.78192 0.38166 0.15301 0.0
H1474 H 0.78066 0.36594 0.13773 0.0
H1475 H 0.76253 0.41372 0.13998 0.0
C1476 C 0.80528 0.36158 0.09758 0.0
C1477 C 0.77038 0.38108 0.09552 0.0
C1478 C 0.82491 0.37129 0.10646 0.0
C1479 C 0.81021 0.40058 0.11368 0.0
C1480 C 0.77545 0.42064 0.1116 0.0
H1481 H 0.91089 0.45263 0.17791 0.0
H1482 H 0.86895 0.45389 0.16208 0.0
C1483 C 0.75573 0.41104 0.10255 0.0
C1484 C 0.83194 0.40932 0.1233 0.0
H1485 H 0.83688 0.40002 0.15591 0.0
C1486 C 0.86627 0.42067 0.11878 0.0
C1487 C 0.82096 0.40269 0.13687 0.0
C1488 C 0.78463 0.39012 0.1423 0.0
C1489 C 0.8901 0.42477 0.12741 0.0
C1490 C 0.87996 0.41618 0.14101 0.0
C1491 C 0.84499 0.4063 0.14553 0.0
C1492 C 0.9057 0.4158 0.15063 0.0
C1493 C 0.9259 0.43848 0.12179 0.0
C1494 C 0.94028 0.39352 0.1497 0.0
C1495 C 0.96438 0.39285 0.15872 0.0
C1496 C 0.95442 0.414 0.16907 0.0
C1497 C 0.91951 0.43579 0.17014 0.0
C1498 C 0.89548 0.43665 0.16104 0.0
H1499 H 0.92417 0.45573 0.11205 0.0
H1500 H 0.93447 0.45568 0.12824 0.0
H1501 H 0.94731 0.41373 0.12061 0.0
H1502 H 0.94856 0.37615 0.14206 0.0
H1503 H 0.99063 0.37509 0.15771 0.0
H1504 H 0.82399 0.61427 0.64742 0.0
H1505 H 0.79919 0.65992 0.66229 0.0
H1506 H 0.70836 0.69961 0.64036 0.0
H1507 H 0.7341 0.6555 0.62511 0.0
H1508 H 0.73338 0.75651 0.64425 0.0
H1509 H 0.7202 0.66463 0.69176 0.0
H1510 H 0.76614 0.65767 0.68384 0.0
H1511 H 0.7298 0.64572 0.67662 0.0
C1512 C 0.79852 0.63246 0.64587 0.0
C1513 C 0.78114 0.63144 0.63503 0.0
C1514 C 0.7841 0.65835 0.65447 0.0
C1515 C 0.75144 0.68299 0.65265 0.0
C1516 C 0.73354 0.68103 0.64204 0.0
H1517 H 0.65037 0.84406 0.70714 0.0
H1518 H 0.66233 0.78843 0.69571 0.0
C1519 C 0.74833 0.65578 0.6333 0.0
C1520 C 0.73772 0.71319 0.66097 0.0
H1521 H 0.72041 0.73093 0.69241 0.0
C1522 C 0.73008 0.75063 0.65478 0.0
C1523 C 0.73266 0.70588 0.67475 0.0
C1524 C 0.73724 0.66623 0.68211 0.0
C1525 C 0.71897 0.78086 0.66188 0.0
C1526 C 0.71672 0.77389 0.67561 0.0
C1527 C 0.72275 0.73639 0.68188 0.0
C1528 C 0.71036 0.80555 0.68339 0.0
C1529 C 0.70977 0.82007 0.65453 0.0
C1530 C 0.73402 0.8328 0.68063 0.0
C1531 C 0.72688 0.86458 0.68691 0.0
C1532 C 0.69629 0.86963 0.69634 0.0
C1533 C 0.67376 0.84122 0.69975 0.0
C1534 C 0.68068 0.80941 0.69328 0.0
H1535 H 0.70069 0.819 0.64506 0.0
H1536 H 0.68796 0.83751 0.66022 0.0
H1537 H 0.73449 0.83427 0.65248 0.0
H1538 H 0.75774 0.82992 0.67337 0.0
H1539 H 0.74516 0.8856 0.68418 0.0
H1540 H 0.75491 0.93276 0.91233 0.0
H1541 H 0.80779 0.96026 0.90029 0.0
H1542 H 0.80115 0.03245 0.92934 0.0
H1543 H 0.74754 0.00503 0.9414 0.0
H1544 H 0.82209 0.03883 0.89038 0.0
H1545 H 0.90423 0.96402 0.92944 0.0
H1546 H 0.86073 0.9514 0.92781 0.0
H1547 H 0.86246 -0.00615 0.93412 0.0
C1548 C 0.76388 0.95554 0.91589 0.0
C1549 C 0.74674 0.96725 0.92767 0.0
C1550 C 0.7943 0.97104 0.90905 0.0
C1551 C 0.80886 -0.00193 0.91397 0.0
C1552 C 0.79058 0.01143 0.92539 0.0
H1553 H 0.02882 0.06232 0.88799 0.0
H1554 H 0.96852 0.05546 0.9003 0.0
C1555 C 0.75964 -0.0038 0.93218 0.0
C1556 C 0.84459 0.0096 0.90757 0.0
H1557 H 0.9356 -0.00466 0.91079 0.0
C1558 C 0.84685 0.02969 0.8949 0.0
C1559 C 0.877 -0.00227 0.91344 0.0
C1560 C 0.87636 0.97536 0.92692 0.0
C1561 C 0.88053 0.03788 0.88791 0.0
C1562 C 0.91324 0.02454 0.89355 0.0
C1563 C 0.91077 0.00545 0.90639 0.0
C1564 C 0.95023 0.02865 0.88611 0.0
C1565 C 0.88056 0.06104 0.87456 0.0
C1566 C 0.96073 0.01509 0.87416 0.0
C1567 C 0.99507 0.01916 0.86708 0.0
C1568 C 0.02025 0.03639 0.87184 0.0
C1569 C 0.01021 0.04895 0.884 0.0
C1570 C 0.97563 0.04509 0.89105 0.0
H1571 H 0.85401 0.07951 0.87356 0.0
H1572 H 0.90259 0.07905 0.87243 0.0
H1573 H 0.88488 0.04177 0.86717 0.0
H1574 H 0.94236 0.00114 0.87028 0.0
H1575 H 0.00183 0.00875 0.85784 0.0
H1576 H 0.88127 0.02509 0.17472 0.0
H1577 H 0.85365 0.07329 0.15861 0.0
H1578 H 0.75053 0.03174 0.17024 0.0
H1579 H 0.77872 0.98212 0.1864 0.0
H1580 H 0.7642 0.05406 0.14322 0.0
H1581 H 0.78783 0.1667 0.1689 0.0
H1582 H 0.82922 0.136 0.16478 0.0
H1583 H 0.79294 0.11755 0.17606 0.0
C1584 C 0.85272 0.02591 0.17384 0.0
C1585 C 0.83206 8e-05 0.18201 0.0
C1586 C 0.83688 0.05373 0.16462 0.0
C1587 C 0.79967 0.05712 0.16342 0.0
C1588 C 0.77921 0.03009 0.17107 0.0
H1589 H 0.69355 0.27222 0.12507 0.0
H1590 H 0.71121 0.21616 0.14049 0.0
C1591 C 0.7953 0.00171 0.1803 0.0
C1592 C 0.7826 0.08975 0.15445 0.0
H1593 H 0.77376 0.18621 0.1472 0.0
C1594 C 0.76594 0.08298 0.14416 0.0
C1595 C 0.78418 0.12772 0.15573 0.0
C1596 C 0.79915 0.13751 0.16704 0.0
C1597 C 0.75206 0.11291 0.13492 0.0
C1598 C 0.75564 0.15075 0.13577 0.0
C1599 C 0.77128 0.15742 0.14632 0.0
C1600 C 0.74316 0.18405 0.12603 0.0
C1601 C 0.73319 0.10356 0.12447 0.0
C1602 C 0.75509 0.18528 0.11263 0.0
C1603 C 0.74457 0.2174 0.1037 0.0
C1604 C 0.72241 0.24944 0.10797 0.0
C1605 C 0.71068 0.24822 0.12138 0.0
C1606 C 0.72081 0.21601 0.13025 0.0
H1607 H 0.72222 0.07634 0.12756 0.0
H1608 H 0.7104 0.12612 0.12191 0.0
H1609 H 0.75315 0.10063 0.11563 0.0
H1610 H 0.77323 0.16172 0.10905 0.0
H1611 H 0.75442 0.21737 0.09348 0.0
H1612 H 0.76443 0.08478 0.44341 0.0
H1613 H 0.72254 0.07589 0.429 0.0
H1614 H 0.64886 0.0359 0.46219 0.0
H1615 H 0.69174 0.04368 0.47677 0.0
H1616 H 0.65231 -0.00368 0.44104 0.0
H1617 H 0.62997 0.15084 0.42467 0.0
H1618 H 0.67716 0.13067 0.42234 0.0
H1619 H 0.6532 0.13 0.43854 0.0
C1620 C 0.73977 0.07314 0.44767 0.0
C1621 C 0.73158 0.06481 0.46126 0.0
C1622 C 0.71553 0.06855 0.4394 0.0
C1623 C 0.68196 0.05617 0.44446 0.0
C1624 C 0.67444 0.04581 0.45802 0.0
H1625 H 0.49955 0.10004 0.3983 0.0
H1626 H 0.53946 0.09744 0.41484 0.0
C1627 C 0.69902 0.05011 0.46636 0.0
C1628 C 0.65441 0.05591 0.43556 0.0
H1629 H 0.60698 0.11279 0.41244 0.0
C1630 C 0.64223 0.02182 0.43484 0.0
C1631 C 0.64062 0.08925 0.42758 0.0
C1632 C 0.65059 0.12734 0.42838 0.0
C1633 C 0.61761 0.02 0.42614 0.0
C1634 C 0.60517 0.05306 0.41772 0.0
C1635 C 0.61665 0.08728 0.41872 0.0
C1636 C 0.58011 0.05312 0.40787 0.0
C1637 C 0.60475 0.98273 0.42622 0.0
C1638 C 0.58944 0.0293 0.39827 0.0
C1639 C 0.56653 0.03073 0.38875 0.0
C1640 C 0.53384 0.05638 0.38845 0.0
C1641 C 0.52462 0.08023 0.39807 0.0
C1642 C 0.54742 0.07863 0.40762 0.0
H1643 H 0.60757 0.96379 0.4356 0.0
H1644 H 0.5758 -0.0131 0.42445 0.0
H1645 H 0.62167 0.96823 0.41841 0.0
H1646 H 0.61489 0.0101 0.39794 0.0
H1647 H 0.57495 0.01235 0.38141 0.0
H1648 H 0.22663 0.29133 0.43538 0.0
H1649 H 0.25113 0.24646 0.42025 0.0
H1650 H 0.23427 0.33514 0.38787 0.0
H1651 H 0.20919 0.38015 0.40293 0.0
H1652 H 0.20744 0.27268 0.38527 0.0
H1653 H 0.34837 0.23086 0.39751 0.0
H1654 H 0.31478 0.22543 0.41155 0.0
H1655 H 0.319 0.27186 0.40266 0.0
C1656 C 0.22847 0.30148 0.42505 0.0
C1657 C 0.21587 0.33946 0.42041 0.0
C1658 C 0.2428 0.27577 0.41639 0.0
C1659 C 0.24517 0.28746 0.40289 0.0
C1660 C 0.23298 0.32545 0.39823 0.0
H1661 H 0.34327 0.13081 0.34651 0.0
H1662 H 0.33148 0.18659 0.35788 0.0
C1663 C 0.21861 0.35118 0.40688 0.0
C1664 C 0.25775 0.25951 0.39369 0.0
H1665 H 0.32689 0.18959 0.38569 0.0
C1666 C 0.23378 0.25491 0.38525 0.0
C1667 C 0.29235 0.23658 0.39348 0.0
C1668 C 0.32027 0.24165 0.40169 0.0
C1669 C 0.24266 0.22692 0.37711 0.0
C1670 C 0.27623 0.20242 0.37751 0.0
C1671 C 0.30102 0.20815 0.38546 0.0
C1672 C 0.28441 0.16884 0.37062 0.0
C1673 C 0.21571 0.2234 0.36827 0.0
C1674 C 0.26236 0.14019 0.37417 0.0
C1675 C 0.2691 0.10856 0.36779 0.0
C1676 C 0.29816 0.10465 0.35771 0.0
C1677 C 0.32069 0.13307 0.35423 0.0
C1678 C 0.31396 0.16489 0.3607 0.0
H1679 H 0.19691 0.25026 0.36628 0.0
H1680 H 0.22993 0.21527 0.35889 0.0
H1681 H 0.19899 0.20114 0.37304 0.0
H1682 H 0.23986 0.14223 0.38194 0.0
H1683 H 0.25141 0.08705 0.37081 0.0
H1684 H 0.00099 0.94571 0.19614 0.0
H1685 H 0.05915 0.95577 0.18304 0.0
H1686 H 0.02011 0.92988 0.14964 0.0
H1687 H 0.9614 0.92004 0.16271 0.0
H1688 H 0.11072 0.90703 0.16946 0.0
H1689 H 0.05582 0.0315 0.13585 0.0
H1690 H 0.02969 0.01358 0.15083 0.0
H1691 H 0.03413 -0.00957 0.13677 0.0
C1692 C 0.00453 0.9423 0.18599 0.0
C1693 C 0.97615 0.9323 0.1805 0.0
C1694 C 0.03802 0.94794 0.1785 0.0
C1695 C 0.04411 0.94405 0.16528 0.0
C1696 C 0.016 0.93373 0.15976 0.0
H1697 H 0.21926 0.98372 0.10276 0.0
H1698 H 0.16641 0.96242 0.11691 0.0
C1699 C 0.9824 0.92797 0.16727 0.0
C1700 C 0.07984 0.95087 0.15735 0.0
H1701 H 0.11794 0.00676 0.13095 0.0
C1702 C 0.11231 0.92887 0.16104 0.0
C1703 C 0.08214 0.9795 0.1464 0.0
C1704 C 0.04868 0.00539 0.14226 0.0
C1705 C 0.14671 0.93408 0.15393 0.0
C1706 C 0.14896 0.96259 0.14292 0.0
C1707 C 0.11646 -0.01526 0.13932 0.0
C1708 C 0.18433 0.96986 0.13476 0.0
C1709 C 0.18019 0.90832 0.15808 0.0
C1710 C 0.21312 0.97993 0.14002 0.0
C1711 C 0.24401 -0.00844 0.13187 0.0
C1712 C 0.24637 -0.0062 0.11831 0.0
C1713 C 0.21843 0.98198 0.11318 0.0
C1714 C 0.18796 0.97007 0.12127 0.0
H1715 H 0.17308 0.88184 0.16425 0.0
H1716 H 0.19964 0.90081 0.14952 0.0
H1717 H 0.19413 0.92304 0.16385 0.0
H1718 H 0.21089 0.98081 0.15034 0.0
H1719 H 0.26465 0.00132 0.13609 0.0
H1720 H 0.11414 0.94516 0.87889 0.0
H1721 H 0.13986 0.89883 0.89589 0.0
H1722 H 0.24379 0.9391 0.88473 0.0
H1723 H 0.21738 -0.01307 0.86776 0.0
H1724 H 0.19097 0.84174 0.89252 0.0
H1725 H 0.23689 0.92817 0.92379 0.0
H1726 H 0.20723 0.94848 0.91162 0.0
H1727 H 0.25553 0.9371 0.90698 0.0
C1728 C 0.14239 0.94464 0.88014 0.0
C1729 C 0.16376 0.96963 0.8719 0.0
C1730 C 0.15713 0.91797 0.8899 0.0
C1731 C 0.19388 0.91512 0.89172 0.0
C1732 C 0.21521 0.94091 0.88375 0.0
H1733 H 0.30131 0.70074 0.93035 0.0
H1734 H 0.28231 0.75603 0.91483 0.0
C1735 C 0.20017 0.96819 0.87399 0.0
C1736 C 0.20969 0.88322 0.90128 0.0
H1737 H 0.25406 0.86152 0.92833 0.0
C1738 C 0.20476 0.84623 0.90034 0.0
C1739 C 0.22731 0.88875 0.91165 0.0
C1740 C 0.2318 0.92777 0.91369 0.0
C1741 C 0.21657 0.81494 0.90938 0.0
C1742 C 0.23523 0.82019 0.91953 0.0
C1743 C 0.24016 0.8572 0.92052 0.0
C1744 C 0.24924 0.78761 0.92922 0.0
C1745 C 0.20769 0.7767 0.90817 0.0
C1746 C 0.2386 0.78722 0.94266 0.0
C1747 C 0.25004 0.75563 0.95165 0.0
C1748 C 0.27229 0.72358 0.94742 0.0
C1749 C 0.28372 0.72455 0.934 0.0
C1750 C 0.27269 0.75622 0.92506 0.0
H1751 H 0.18411 0.77935 0.90268 0.0
H1752 H 0.23153 0.76091 0.90279 0.0
H1753 H 0.20128 0.75984 0.91786 0.0
H1754 H 0.22072 0.81104 0.94619 0.0
H1755 H 0.24079 0.75603 0.96189 0.0
H1756 H 0.43443 0.85532 0.67596 0.0
H1757 H 0.39247 0.85754 0.66017 0.0
H1758 H 0.4204 0.9659 0.64124 0.0
H1759 H 0.46386 0.96308 0.65658 0.0
H1760 H 0.33189 0.90593 0.6538 0.0
H1761 H 0.43893 0.90764 0.61103 0.0
H1762 H 0.4498 0.89806 0.62747 0.0
H1763 H 0.43628 0.94588 0.62007 0.0
C1764 C 0.43217 0.87945 0.66834 0.0
C1765 C 0.45318 0.90877 0.66754 0.0
C1766 C 0.40772 0.88087 0.65938 0.0
C1767 C 0.40351 0.9116 0.64933 0.0
C1768 C 0.42357 0.94146 0.64871 0.0
H1769 H 0.23124 0.927 0.59758 0.0
H1770 H 0.2655 0.94383 0.6135 0.0
C1771 C 0.44821 0.93999 0.65763 0.0
C1772 C 0.37883 0.91169 0.63939 0.0
H1773 H 0.37831 0.91205 0.60691 0.0
C1774 C 0.34199 0.90751 0.64353 0.0
C1775 C 0.3919 0.91358 0.62597 0.0
C1776 C 0.43143 0.91619 0.62084 0.0
C1777 C 0.31827 0.90432 0.63471 0.0
C1778 C 0.33145 0.90597 0.62131 0.0
C1779 C 0.368 0.91117 0.61715 0.0
C1780 C 0.30969 0.89733 0.61168 0.0
C1781 C 0.27971 0.89764 0.63988 0.0
C1782 C 0.32315 0.86618 0.60521 0.0
C1783 C 0.30385 0.85676 0.5962 0.0
C1784 C 0.27039 0.87822 0.5933 0.0
C1785 C 0.25682 0.90984 0.59963 0.0
C1786 C 0.27633 0.91931 0.60877 0.0
H1787 H 0.27598 0.88965 0.65062 0.0
H1788 H 0.2608 0.92398 0.63736 0.0
H1789 H 0.27197 0.875 0.63543 0.0
H1790 H 0.34865 0.84868 0.60724 0.0
H1791 H 0.31526 0.83219 0.59157 0.0
H1792 H 0.24521 0.03963 0.03392 0.0
H1793 H 0.22802 0.02851 1.01356 0.0
H1794 H 0.19056 0.14765 1.00386 0.0
H1795 H 0.20695 0.15905 1.02432 0.0
H1796 H 0.15742 0.04862 1.00328 0.0
H1797 H 0.26965 0.11833 0.97306 0.0
H1798 H 0.26924 0.1026 0.99031 0.0
H1799 H 0.24131 0.14565 0.98453 0.0
C1800 C 0.23272 0.06342 0.02757 0.0
C1801 C 0.22757 0.10029 0.03072 0.0
C1802 C 0.22311 0.057 1.01593 0.0
C1803 C 0.20846 0.08732 1.0072 0.0
C1804 C 0.20234 0.12398 1.01043 0.0
H1805 H 0.10483 0.10447 0.93896 0.0
H1806 H 0.11856 0.10038 0.96118 0.0
C1807 C 0.21183 0.13044 1.02209 0.0
C1808 C 0.20054 0.08085 0.99451 0.0
H1809 H 0.22585 0.1017 0.96189 0.0
C1810 C 0.17244 0.06001 0.99421 0.0
C1811 C 0.22065 0.09527 0.98276 0.0
C1812 C 0.25213 0.11645 0.98261 0.0
C1813 C 0.16312 0.05425 0.98236 0.0
C1814 C 0.18231 0.06996 0.9706 0.0
C1815 C 0.21113 0.0898 0.97094 0.0
C1816 C 0.17211 0.06778 0.95776 0.0
C1817 C 0.1329 0.03145 0.98249 0.0
C1818 C 0.19759 0.05058 0.94854 0.0
C1819 C 0.18989 0.05304 0.93583 0.0
C1820 C 0.15673 0.07315 0.93212 0.0
C1821 C 0.1307 0.08905 0.94153 0.0
C1822 C 0.13835 0.08643 0.95425 0.0
H1823 H 0.12753 0.01335 0.99202 0.0
H1824 H 0.10745 0.05099 0.98067 0.0
H1825 H 0.13962 0.01323 0.97473 0.0
H1826 H 0.2239 0.03632 0.95107 0.0
H1827 H 0.21065 0.04087 0.92877 0.0
H1828 H 0.71292 0.42934 0.15902 0.0
H1829 H 0.72003 0.44259 0.18052 0.0
H1830 H 0.62403 0.39174 0.19717 0.0
H1831 H 0.61688 0.37836 0.17578 0.0
H1832 H 0.66187 0.48871 0.19511 0.0
H1833 H 0.70132 0.34642 0.22246 0.0
H1834 H 0.70827 0.35638 0.2049 0.0
H1835 H 0.66386 0.34958 0.21334 0.0
C1836 C 0.69393 0.42018 0.16735 0.0
C1837 C 0.66435 0.40286 0.1658 0.0
C1838 C 0.69792 0.4279 0.17957 0.0
C1839 C 0.67274 0.41781 0.19039 0.0
C1840 C 0.64403 0.39922 0.18894 0.0
H1841 H 0.59603 0.44813 0.26786 0.0
H1842 H 0.61145 0.43177 0.246 0.0
C1843 C 0.63983 0.39184 0.17674 0.0
C1844 C 0.67392 0.42987 0.20298 0.0
H1845 H 0.67696 0.39592 0.23509 0.0
C1846 C 0.66586 0.4686 0.20385 0.0
C1847 C 0.67904 0.40341 0.21428 0.0
C1848 C 0.68893 0.36161 0.21373 0.0
C1849 C 0.66053 0.48148 0.21592 0.0
C1850 C 0.66421 0.45485 0.22732 0.0
C1851 C 0.67403 0.41624 0.22633 0.0
C1852 C 0.655 0.46595 0.24043 0.0
C1853 C 0.64896 0.52317 0.21644 0.0
C1854 C 0.67434 0.49073 0.24452 0.0
C1855 C 0.66513 0.50074 0.25698 0.0
C1856 C 0.63664 0.48582 0.26558 0.0
C1857 C 0.61754 0.46084 0.26141 0.0
C1858 C 0.62661 0.45107 0.24897 0.0
H1859 H 0.64005 0.53866 0.20714 0.0
H1860 H 0.62628 0.52777 0.22439 0.0
H1861 H 0.67233 0.53557 0.21838 0.0
H1862 H 0.69672 0.50206 0.23813 0.0
H1863 H 0.68028 0.52015 0.25988 0.0
H1864 H 0.22057 0.90114 0.49116 0.0
H1865 H 0.23244 0.92414 0.4679 0.0
H1866 H 0.33686 0.8528 0.46593 0.0
H1867 H 0.32434 0.82792 0.48889 0.0
H1868 H 0.28453 0.96246 0.45448 0.0
H1869 H 0.29681 0.82614 0.43617 0.0
H1870 H 0.27952 0.83158 0.4528 0.0
H1871 H 0.32796 0.82444 0.44765 0.0
C1872 C 0.24574 0.8897 0.48574 0.0
C1873 C 0.27139 0.86249 0.49198 0.0
C1874 C 0.25265 0.9032 0.47245 0.0
C1875 C 0.28533 0.88983 0.46508 0.0
C1876 C 0.31109 0.86296 0.47129 0.0
H1877 H 0.37358 0.00344 0.38928 0.0
H1878 H 0.36078 0.97984 0.41251 0.0
C1879 C 0.30407 0.84917 0.48453 0.0
C1880 C 0.29294 0.90466 0.451 0.0
H1881 H 0.31737 0.87738 0.42101 0.0
C1882 C 0.29151 0.94387 0.44715 0.0
C1883 C 0.3016 0.88049 0.44138 0.0
C1884 C 0.3012 0.83838 0.44468 0.0
C1885 C 0.29893 0.95953 0.43401 0.0
C1886 C 0.30906 0.93521 0.42447 0.0
C1887 C 0.31007 0.89604 0.42831 0.0
C1888 C 0.31733 0.94971 0.41038 0.0
C1889 C 0.29492 0.002 0.43048 0.0
C1890 C 0.29809 0.9397 0.40136 0.0
C1891 C 0.30581 0.95255 0.38809 0.0
C1892 C 0.3329 0.97589 0.38349 0.0
C1893 C 0.35234 -0.01422 0.3925 0.0
C1894 C 0.34485 0.97253 0.40581 0.0
H1895 H 0.27712 0.01637 0.43817 0.0
H1896 H 0.32217 0.01116 0.42937 0.0
H1897 H 0.28332 0.01152 0.42118 0.0
H1898 H 0.27682 0.92207 0.40461 0.0
H1899 H 0.29019 0.94442 0.38145 0.0
H1900 H 0.92065 0.54957 0.68829 0.0
H1901 H 0.92128 0.55721 0.71094 0.0
H1902 H 0.82944 0.49642 0.72278 0.0
H1903 H 0.82894 0.48815 0.7002 0.0
H1904 H 0.86642 0.59115 0.72925 0.0
H1905 H 0.90592 0.43835 0.74603 0.0
H1906 H 0.90995 0.4584 0.72905 0.0
H1907 H 0.86636 0.44893 0.73763 0.0
C1908 C 0.90066 0.53759 0.69571 0.0
C1909 C 0.87492 0.51791 0.69233 0.0
C1910 C 0.90093 0.54224 0.70868 0.0
C1911 C 0.87576 0.52698 0.71867 0.0
C1912 C 0.84954 0.50802 0.71532 0.0
H1913 H 0.82241 0.50473 0.80131 0.0
H1914 H 0.82831 0.50636 0.778 0.0
C1915 C 0.84907 0.5036 0.70234 0.0
C1916 C 0.87716 0.53035 0.7326 0.0
H1917 H 0.88734 0.47766 0.7624 0.0
C1918 C 0.87129 0.56636 0.73649 0.0
C1919 C 0.88383 0.49811 0.74209 0.0
C1920 C 0.89223 0.45875 0.73851 0.0
C1921 C 0.87028 0.57083 0.74964 0.0
C1922 C 0.87598 0.53847 0.75918 0.0
C1923 C 0.88289 0.50258 0.75518 0.0
C1924 C 0.87189 0.54053 0.77348 0.0
C1925 C 0.8616 0.61006 0.75329 0.0
C1926 C 0.89415 0.55971 0.77896 0.0
C1927 C 0.89077 0.55896 0.79257 0.0
C1928 C 0.86526 0.53875 0.80095 0.0
C1929 C 0.84266 0.52042 0.79531 0.0
C1930 C 0.84597 0.52126 0.78187 0.0
H1931 H 0.85067 0.63118 0.74535 0.0
H1932 H 0.8414 0.61063 0.76217 0.0
H1933 H 0.88688 0.61868 0.75537 0.0
H1934 H 0.9148 0.57439 0.77278 0.0
H1935 H 0.90879 0.57316 0.79653 0.0
H1936 H 0.77271 0.85034 0.1293 0.0
H1937 H 0.75536 0.85903 0.10742 0.0
H1938 H 0.82938 0.94085 0.09436 0.0
H1939 H 0.84735 0.93192 0.11628 0.0
H1940 H 0.72742 0.92929 0.09085 0.0
H1941 H 0.8614 0.85528 0.07074 0.0
H1942 H 0.84595 0.85063 0.08797 0.0
H1943 H 0.8621 0.89328 0.07962 0.0
C1944 C 0.78536 0.87015 0.12176 0.0
C1945 C 0.81176 0.89009 0.12443 0.0
C1946 C 0.77519 0.87529 0.10932 0.0
C1947 C 0.79135 0.90029 0.0993 0.0
C1948 C 0.81686 0.9212 0.10198 0.0
H1949 H 0.78255 0.91597 1.01638 0.0
H1950 H 0.79471 0.92776 0.03739 0.0
C1951 C 0.82695 0.91621 0.11449 0.0
C1952 C 0.78255 0.90282 0.08596 0.0
H1953 H 0.81711 0.87551 0.05658 0.0
C1954 C 0.74705 0.91789 0.08328 0.0
C1955 C 0.8083 0.88789 0.07618 0.0
C1956 C 0.84656 0.8706 0.07871 0.0
C1957 C 0.73647 0.91818 0.07104 0.0
C1958 C 0.76189 0.90207 0.06138 0.0
C1959 C 0.79766 0.88784 0.064 0.0
C1960 C 0.75189 0.89822 0.04864 0.0
C1961 C 0.6983 0.93589 0.06857 0.0
C1962 C 0.72361 0.8779 0.04797 0.0
C1963 C 0.71646 0.87138 0.03597 0.0
C1964 C 0.73794 0.88444 1.02446 0.0
C1965 C 0.76584 0.90526 1.02513 0.0
C1966 C 0.77271 0.91212 0.0371 0.0
H1967 H 0.68683 0.95728 0.07507 0.0
H1968 H 0.69765 0.94965 0.05833 0.0
H1969 H 0.68035 0.91361 0.07058 0.0
H1970 H 0.70785 0.86599 0.05676 0.0
H1971 H 0.69507 0.8549 0.03572 0.0
H1972 H 0.27609 0.54833 0.89271 0.0
H1973 H 0.27568 0.52615 0.87198 0.0
H1974 H 0.39308 0.51605 0.86498 0.0
H1975 H 0.39383 0.53737 0.88567 0.0
H1976 H 0.30615 0.55863 0.8464 0.0
H1977 H 0.37042 0.41104 0.8608 0.0
H1978 H 0.34966 0.44191 0.8725 0.0
H1979 H 0.39465 0.44631 0.86413 0.0
C1980 C 0.30177 0.54123 0.88675 0.0
C1981 C 0.33498 0.54462 0.89079 0.0
C1982 C 0.30148 0.52867 0.87494 0.0
C1983 C 0.3344 0.5189 0.86711 0.0
C1984 C 0.36746 0.52286 0.87102 0.0
H1985 H 0.41677 0.45836 0.79254 0.0
H1986 H 0.40569 0.46909 0.81521 0.0
C1987 C 0.36778 0.53552 0.88275 0.0
C1988 C 0.33452 0.50546 0.85465 0.0
H1989 H 0.36861 0.43154 0.83807 0.0
C1990 C 0.31926 0.53067 0.8446 0.0
C1991 C 0.35174 0.46897 0.8524 0.0
C1992 C 0.36728 0.44032 0.86306 0.0
C1993 C 0.32233 0.52098 0.8321 0.0
C1994 C 0.34048 0.48483 0.82975 0.0
C1995 C 0.35473 0.4592 0.83993 0.0
C1996 C 0.34692 0.47411 0.81659 0.0
C1997 C 0.30765 0.55011 0.82139 0.0
C1998 C 0.31758 0.47202 0.81007 0.0
C1999 C 0.32383 0.46583 0.79714 0.0
C2000 C 0.35955 0.46138 0.79057 0.0
C2001 C 0.38899 0.46138 0.79738 0.0
C2002 C 0.3827 0.46769 0.81029 0.0
H2003 H 0.30137 0.57889 0.82418 0.0
H2004 H 0.32749 0.55093 0.81239 0.0
H2005 H 0.28209 0.54247 0.81916 0.0
H2006 H 0.28982 0.47611 0.81489 0.0
H2007 H 0.30067 0.46535 0.79219 0.0
H2008 H 0.60017 0.96716 0.6649 0.0
H2009 H 0.60733 -0.01413 0.64117 0.0
H2010 H 0.6918 0.05029 0.64388 0.0
H2011 H 0.68493 0.03212 0.66739 0.0
H2012 H 0.60414 0.06474 0.62587 0.0
H2013 H 0.73821 0.97452 0.61765 0.0
H2014 H 0.70646 0.96632 0.63224 0.0
H2015 H 0.73399 0.00345 0.63021 0.0
C2016 C 0.62014 -0.01454 0.66045 0.0
C2017 C 0.64204 -0.00205 0.66811 0.0
C2018 C 0.62418 -0.00388 0.64689 0.0
C2019 C 0.65043 0.01909 0.64074 0.0
C2020 C 0.67171 0.03216 0.64839 0.0
H2021 H 0.74277 0.11346 0.56457 0.0
H2022 H 0.72689 0.09053 0.58764 0.0
C2023 C 0.66759 0.02178 0.66188 0.0
C2024 C 0.65622 0.02944 0.62635 0.0
H2025 H 0.72057 0.02021 0.59989 0.0
C2026 C 0.62937 0.05471 0.62013 0.0
C2027 C 0.68924 0.01645 0.61891 0.0
C2028 C 0.71859 -0.01157 0.62503 0.0
C2029 C 0.63528 0.06853 0.60674 0.0
C2030 C 0.66866 0.05603 0.59931 0.0
C2031 C 0.69506 0.02997 0.60554 0.0
C2032 C 0.67749 0.07052 0.5852 0.0
C2033 C 0.60635 0.09763 0.60082 0.0
C2034 C 0.65522 0.06676 0.57604 0.0
C2035 C 0.66419 0.08007 0.5628 0.0
C2036 C 0.69595 0.09691 0.55839 0.0
C2037 C 0.71833 0.10031 0.56758 0.0
C2038 C 0.7092 0.0873 0.5808 0.0
H2039 H 0.58728 0.11155 0.60833 0.0
H2040 H 0.61879 0.11975 0.59371 0.0
H2041 H 0.59015 0.08353 0.59563 0.0
H2042 H 0.63115 0.05304 0.57909 0.0
H2043 H 0.64665 0.07647 0.55598 0.0
H2044 H 0.05299 0.47087 0.36285 0.0
H2045 H 0.05211 0.45943 0.34066 0.0
H2046 H 0.16967 0.44285 0.33454 0.0
H2047 H 0.17086 0.45294 0.35682 0.0
H2048 H 0.07808 0.49676 0.31706 0.0
H2049 H 0.14867 0.34929 0.32268 0.0
H2050 H 0.13111 0.37367 0.33641 0.0
H2051 H 0.1743 0.38163 0.32708 0.0
C2052 C 0.07875 0.46428 0.35688 0.0
C2053 C 0.11202 0.46264 0.36181 0.0
C2054 C 0.07817 0.45799 0.3441 0.0
C2055 C 0.1108 0.44955 0.33588 0.0
C2056 C 0.14403 0.44844 0.34069 0.0
H2057 H 0.18395 0.42162 0.25639 0.0
H2058 H 0.17462 0.42392 0.27964 0.0
C2059 C 0.14465 0.45476 0.35346 0.0
C2060 C 0.11016 0.44272 0.32223 0.0
H2061 H 0.14299 0.37964 0.30094 0.0
C2062 C 0.09191 0.47094 0.31359 0.0
C2063 C 0.128 0.40898 0.31761 0.0
C2064 C 0.14631 0.37649 0.32645 0.0
C2065 C 0.09241 0.4671 0.30043 0.0
C2066 C 0.11112 0.43378 0.29572 0.0
C2067 C 0.12857 0.40519 0.30446 0.0
C2068 C 0.11579 0.42945 0.28159 0.0
C2069 C 0.07426 0.49952 0.29152 0.0
C2070 C 0.08588 0.43049 0.2748 0.0
C2071 C 0.09119 0.42891 0.26132 0.0
C2072 C 0.12652 0.4264 0.25436 0.0
C2073 C 0.15629 0.42371 0.26135 0.0
C2074 C 0.15102 0.42504 0.27472 0.0
H2075 H 0.06745 0.5259 0.29596 0.0
H2076 H 0.09212 0.50517 0.28217 0.0
H2077 H 0.04854 0.49205 0.28936 0.0
H2078 H 0.05839 0.43314 0.27988 0.0
H2079 H 0.06762 0.4313 0.25628 0.0
H2080 H 0.66561 0.52281 0.43785 0.0
H2081 H 0.67631 0.52379 0.46018 0.0
H2082 H 0.64995 0.64536 0.45443 0.0
H2083 H 0.63963 0.64474 0.43218 0.0
H2084 H 0.72838 0.56144 0.46702 0.0
H2085 H 0.5894 0.61418 0.48925 0.0
H2086 H 0.59775 0.5947 0.47421 0.0
H2087 H 0.6041 0.64271 0.47429 0.0
C2088 C 0.66186 0.5497 0.44139 0.0
C2089 C 0.65156 0.58368 0.43327 0.0
C2090 C 0.66781 0.55019 0.45414 0.0
C2091 C 0.66332 0.58459 0.45899 0.0
C2092 C 0.65261 0.61844 0.45098 0.0
H2093 H 0.71018 0.67197 0.52426 0.0
H2094 H 0.69151 0.66088 0.50413 0.0
C2095 C 0.6467 0.618 0.43826 0.0
C2096 C 0.67256 0.58569 0.47206 0.0
H2097 H 0.63869 0.61772 0.50079 0.0
C2098 C 0.7087 0.57322 0.47449 0.0
C2099 C 0.64679 0.60127 0.48172 0.0
C2100 C 0.60725 0.61366 0.47981 0.0
C2101 C 0.72018 0.57731 0.48617 0.0
C2102 C 0.69459 0.59369 0.49572 0.0
C2103 C 0.65824 0.60532 0.49341 0.0
C2104 C 0.70529 0.60001 0.50802 0.0
C2105 C 0.75988 0.56546 0.48797 0.0
C2106 C 0.71878 0.56941 0.51691 0.0
C2107 C 0.7298 0.57566 0.52833 0.0
C2108 C 0.72721 0.61266 0.53113 0.0
C2109 C 0.71301 0.64321 0.5223 0.0
C2110 C 0.70208 0.63691 0.51086 0.0
H2111 H 0.77735 0.56182 0.47861 0.0
H2112 H 0.76999 0.58658 0.49248 0.0
H2113 H 0.76295 0.53801 0.49452 0.0
H2114 H 0.72093 0.54068 0.51498 0.0
H2115 H 0.74095 0.55153 0.53486 0.0
H2116 H 0.21428 0.91543 0.66196 0.0
H2117 H 0.21507 0.93035 0.68377 0.0
H2118 H 0.0977 0.93957 0.69079 0.0
H2119 H 0.09669 0.92469 0.66913 0.0
H2120 H 0.18151 -0.0054 0.69457 0.0
H2121 H 0.12919 0.86618 0.72227 0.0
H2122 H 0.14626 0.8701 0.70518 0.0
H2123 H 0.10054 0.89109 0.71045 0.0
C2124 C 0.1887 0.92057 0.66818 0.0
C2125 C 0.15547 0.91839 0.66391 0.0
C2126 C 0.1892 0.92901 0.68062 0.0
C2127 C 0.1565 0.93533 0.68895 0.0
C2128 C 0.12331 0.93377 0.68463 0.0
H2129 H 0.08103 0.00273 0.76367 0.0
H2130 H 0.08908 -0.00963 0.7412 0.0
C2131 C 0.12279 0.92522 0.67226 0.0
C2132 C 0.15666 0.94453 0.70209 0.0
H2133 H 0.12774 0.9171 0.73413 0.0
C2134 C 0.17017 0.97747 0.70325 0.0
C2135 C 0.14196 0.92199 0.71337 0.0
C2136 C 0.12901 0.88517 0.7128 0.0
C2137 C 0.16804 -0.01077 0.7154 0.0
C2138 C 0.15219 0.96734 0.72659 0.0
C2139 C 0.13952 0.93397 0.72547 0.0
C2140 C 0.14798 0.97862 0.73961 0.0
C2141 C 0.18166 0.02548 0.7162 0.0
C2142 C 0.17852 0.97647 0.74603 0.0
C2143 C 0.17402 0.98351 0.75885 0.0
C2144 C 0.13888 -0.00718 0.76543 0.0
C2145 C 0.10843 -0.0039 0.7588 0.0
C2146 C 0.11296 -0.01116 0.74602 0.0
H2147 H 0.18789 0.04214 0.70645 0.0
H2148 H 0.16111 0.0432 0.72224 0.0
H2149 H 0.20694 0.01874 0.72093 0.0
H2150 H 0.20573 0.96822 0.74125 0.0
H2151 H 0.19796 0.98101 0.76371 0.0
H2152 H 0.82265 0.42268 0.88364 0.0
H2153 H 0.81079 0.4037 0.90706 0.0
H2154 H 0.85468 0.50056 0.91343 0.0
H2155 H 0.86761 0.51937 0.88983 0.0
H2156 H 0.87577 0.43761 0.93035 0.0
H2157 H 0.72661 0.45411 0.92977 0.0
H2158 H 0.75103 0.42206 0.91915 0.0
H2159 H 0.75728 0.4711 0.91588 0.0
C2160 C 0.82999 0.43994 0.88998 0.0
C2161 C 0.84572 0.47282 0.88484 0.0
C2162 C 0.82294 0.42914 0.9034 0.0
C2163 C 0.83082 0.45126 0.91203 0.0
C2164 C 0.84798 0.48325 0.90696 0.0
H2165 H 0.73288 0.42317 0.99335 0.0
H2166 H 0.75065 0.44787 0.97059 0.0
C2167 C 0.85543 0.49393 0.89347 0.0
C2168 C 0.82067 0.44099 0.92629 0.0
H2169 H 0.7489 0.4205 0.94922 0.0
C2170 C 0.84799 0.43416 0.9345 0.0
C2171 C 0.78426 0.43722 0.93177 0.0
C2172 C 0.75306 0.4469 0.9237 0.0
C2173 C 0.84012 0.42246 0.94795 0.0
C2174 C 0.8041 0.41647 0.9533 0.0
C2175 C 0.77661 0.42451 0.94514 0.0
C2176 C 0.7942 0.40182 0.96731 0.0
C2177 C 0.87046 0.41716 0.95629 0.0
C2178 C 0.81237 0.36741 0.97307 0.0
C2179 C 0.80267 0.35349 0.98617 0.0
C2180 C 0.77408 0.37329 0.99381 0.0
C2181 C 0.75544 0.4074 0.98791 0.0
C2182 C 0.76541 0.42148 0.97483 0.0
H2183 H 0.8923 0.43423 0.95167 0.0
H2184 H 0.86011 0.42519 0.96604 0.0
H2185 H 0.88292 0.387 0.95754 0.0
H2186 H 0.83399 0.35111 0.96742 0.0
H2187 H 0.81801 0.32738 0.99034 0.0
H2188 H 0.43059 0.03994 0.29752 0.0
H2189 H 0.43943 0.03895 0.27385 0.0
H2190 H 0.32332 0.04552 0.27449 0.0
H2191 H 0.31438 0.04711 0.29774 0.0
H2192 H 0.42156 -0.01456 0.26072 0.0
H2193 H 0.34571 0.12491 0.24379 0.0
H2194 H 0.35953 0.11293 0.25985 0.0
H2195 H 0.31878 0.09824 0.2565 0.0
C2196 C 0.40694 0.04223 0.29253 0.0
C2197 C 0.37176 0.04391 0.29961 0.0
C2198 C 0.41201 0.0413 0.279 0.0
C2199 C 0.382 0.04264 0.27223 0.0
C2200 C 0.34695 0.0453 0.27929 0.0
H2201 H 0.32875 0.01144 0.19787 0.0
H2202 H 0.33053 0.02127 0.22017 0.0
C2203 C 0.34192 0.04603 0.29269 0.0
C2204 C 0.38674 0.03896 0.25802 0.0
H2205 H 0.35511 0.07906 0.22918 0.0
C2206 C 0.40752 0.00624 0.25378 0.0
C2207 C 0.36832 0.06586 0.24887 0.0
C2208 C 0.34714 0.10262 0.25245 0.0
C2209 C 0.40906 -0.00101 0.24091 0.0
C2210 C 0.38974 0.0254 0.23188 0.0
C2211 C 0.36974 0.05855 0.23604 0.0
C2212 C 0.38914 0.01886 0.21819 0.0
C2213 C 0.43017 0.96227 0.23727 0.0
C2214 C 0.4214 0.0145 0.20943 0.0
C2215 C 0.42049 0.00871 0.19662 0.0
C2216 C 0.38725 0.00716 0.19213 0.0
C2217 C 0.35496 0.0118 0.20092 0.0
C2218 C 0.3559 0.01774 0.21372 0.0
H2219 H 0.43582 0.94121 0.24598 0.0
H2220 H 0.41509 0.94984 0.23117 0.0
H2221 H 0.45673 0.96773 0.23158 0.0
H2222 H 0.44739 0.0159 0.21247 0.0
H2223 H 0.446 0.00503 0.19026 0.0
H2224 H 0.39269 0.33795 0.61822 0.0
H2225 H 0.3852 0.33542 0.59569 0.0
H2226 H 0.28525 0.41379 0.59931 0.0
H2227 H 0.29287 0.41682 0.6217 0.0
H2228 H 0.33026 0.3099 0.58803 0.0
H2229 H 0.33446 0.45803 0.56461 0.0
H2230 H 0.3493 0.44022 0.58032 0.0
H2231 H 0.30156 0.45481 0.5789 0.0
C2232 C 0.36939 0.35498 0.61413 0.0
C2233 C 0.34341 0.37766 0.62168 0.0
C2234 C 0.36519 0.35361 0.60127 0.0
C2235 C 0.33496 0.37485 0.59576 0.0
C2236 C 0.30933 0.398 0.60322 0.0
H2237 H 0.22411 0.3265 0.53673 0.0
H2238 H 0.24703 0.33256 0.55665 0.0
C2239 C 0.31365 0.39961 0.61604 0.0
C2240 C 0.32837 0.37019 0.58265 0.0
H2241 H 0.30766 0.41923 0.5534 0.0
C2242 C 0.32582 0.33375 0.5804 0.0
C2243 C 0.323 0.40124 0.57265 0.0
C2244 C 0.3276 0.4407 0.57419 0.0
C2245 C 0.31664 0.3277 0.56859 0.0
C2246 C 0.30905 0.35905 0.5589 0.0
C2247 C 0.31305 0.3953 0.56093 0.0
C2248 C 0.29565 0.35495 0.54679 0.0
C2249 C 0.31507 0.28778 0.56663 0.0
C2250 C 0.31495 0.36642 0.53463 0.0
C2251 C 0.30182 0.36312 0.52321 0.0
C2252 C 0.26912 0.34839 0.52378 0.0
C2253 C 0.24978 0.33718 0.53598 0.0
C2254 C 0.26283 0.34062 0.54737 0.0
H2255 H 0.33204 0.26675 0.57304 0.0
H2256 H 0.28647 0.28201 0.56909 0.0
H2257 H 0.32449 0.28364 0.55638 0.0
H2258 H 0.34024 0.37774 0.53399 0.0
H2259 H 0.31738 0.37183 0.51395 0.0
H2260 H 0.79663 0.0698 0.38802 0.0
H2261 H 0.79548 0.05204 0.36665 0.0
H2262 H 0.91158 0.01506 0.3635 0.0
H2263 H 0.91289 0.03202 0.38489 0.0
H2264 H 0.83739 0.07843 0.34225 0.0
H2265 H 0.86735 0.92305 0.35707 0.0
H2266 H 0.85108 0.9555 0.36864 0.0
H2267 H 0.89812 0.95006 0.36162 0.0
C2268 C 0.82185 0.05774 0.38278 0.0
C2269 C 0.85484 0.05225 0.38811 0.0
C2270 C 0.82116 0.04773 0.37059 0.0
C2271 C 0.85335 0.03174 0.36365 0.0
C2272 C 0.88639 0.02683 0.36884 0.0
H2273 H 0.92108 0.95724 0.28943 0.0
H2274 H 0.91474 0.96971 0.31185 0.0
C2275 C 0.88714 0.03695 0.38097 0.0
C2276 C 0.85267 0.02079 0.35084 0.0
H2277 H 0.86973 0.94512 0.33441 0.0
C2278 C 0.8441 0.04929 0.34052 0.0
C2279 C 0.86156 0.98273 0.3487 0.0
C2280 C 0.86976 0.95095 0.3596 0.0
C2281 C 0.84534 0.04087 0.32795 0.0
C2282 C 0.85458 0.0028 0.32576 0.0
C2283 C 0.86262 0.97423 0.33614 0.0
C2284 C 0.85735 -0.00767 0.31266 0.0
C2285 C 0.83802 0.07292 0.31703 0.0
C2286 C 0.82687 -0.00022 0.30589 0.0
C2287 C 0.83043 -0.00726 0.29311 0.0
C2288 C 0.86444 0.97775 0.28694 0.0
C2289 C 0.8945 0.96856 0.29397 0.0
C2290 C 0.89096 0.97581 0.30674 0.0
H2291 H 0.8401 0.10071 0.31973 0.0
H2292 H 0.85743 0.06863 0.30814 0.0
H2293 H 0.80997 0.07402 0.31468 0.0
H2294 H 0.80051 0.01168 0.31042 0.0
H2295 H 0.8067 -0.00048 0.28797 0.0
H2296 H 0.20536 0.52547 0.17192 0.0
H2297 H 0.21818 0.54667 0.1486 0.0
H2298 H 0.14138 0.47928 0.14122 0.0
H2299 H 0.12826 0.45776 0.16461 0.0
H2300 H 0.24394 0.49926 0.12828 0.0
H2301 H 0.10989 0.58817 0.12194 0.0
H2302 H 0.1258 0.57374 0.13763 0.0
H2303 H 0.10859 0.54059 0.13018 0.0
C2304 C 0.19101 0.51519 0.16538 0.0
C2305 C 0.16563 0.48997 0.17018 0.0
C2306 C 0.19849 0.5273 0.15203 0.0
C2307 C 0.18053 0.51483 0.14319 0.0
C2308 C 0.15523 0.48962 0.1479 0.0
H2309 H 0.18281 0.57233 0.05942 0.0
H2310 H 0.1711 0.54635 0.08242 0.0
C2311 C 0.14786 0.47725 0.16127 0.0
C2312 C 0.18873 0.528 0.12903 0.0
H2313 H 0.15194 0.58221 0.10305 0.0
C2314 C 0.22387 0.5174 0.12274 0.0
C2315 C 0.16246 0.55154 0.12184 0.0
C2316 C 0.1246 0.56451 0.1282 0.0
C2317 C 0.23333 0.52933 0.10939 0.0
C2318 C 0.20722 0.55342 0.1022 0.0
C2319 C 0.172 0.56383 0.10853 0.0
C2320 C 0.21564 0.56809 0.08812 0.0
C2321 C 0.27094 0.51523 0.10307 0.0
C2322 C 0.24459 0.58909 0.08359 0.0
C2323 C 0.25152 0.60377 0.07039 0.0
C2324 C 0.22921 0.59836 0.06148 0.0
C2325 C 0.20027 0.57735 0.06605 0.0
C2326 C 0.19359 0.56239 0.0792 0.0
H2327 H 0.28323 0.48871 0.10876 0.0
H2328 H 0.27024 0.50995 0.09304 0.0
H2329 H 0.28901 0.53686 0.10258 0.0
H2330 H 0.26142 0.59478 0.09031 0.0
H2331 H 0.2737 0.62025 0.06721 0.0
H2332 H 0.57536 0.92192 0.865 0.0
H2333 H 0.5767 0.91175 0.84254 0.0
H2334 H 0.66713 0.97463 0.83067 0.0
H2335 H 0.66622 0.98451 0.85313 0.0
H2336 H 0.56628 0.959 0.82058 0.0
H2337 H 0.70681 0.88259 0.81401 0.0
H2338 H 0.68389 0.89193 0.82974 0.0
H2339 H 0.70561 0.92791 0.8188 0.0
C2340 C 0.59559 0.93365 0.85763 0.0
C2341 C 0.62082 0.95395 0.86102 0.0
C2342 C 0.59638 0.92768 0.84473 0.0
C2343 C 0.62245 0.94172 0.83479 0.0
C2344 C 0.64739 0.96239 0.83811 0.0
H2345 H 0.67105 0.96856 0.75184 0.0
H2346 H 0.66648 0.96573 0.77519 0.0
C2347 C 0.64679 0.96814 0.85103 0.0
C2348 C 0.62292 0.93568 0.82094 0.0
H2349 H 0.67897 0.90558 0.79465 0.0
C2350 C 0.59085 0.94687 0.81498 0.0
C2351 C 0.65478 0.91958 0.81352 0.0
C2352 C 0.68959 0.90444 0.81938 0.0
C2353 C 0.59024 0.94406 0.80178 0.0
C2354 C 0.62245 0.92917 0.79426 0.0
C2355 C 0.65421 0.91704 0.80032 0.0
C2356 C 0.62487 0.92917 0.77986 0.0
C2357 C 0.55548 0.95859 0.79584 0.0
C2358 C 0.60337 0.90898 0.77443 0.0
C2359 C 0.60596 0.91044 0.76081 0.0
C2360 C 0.63006 0.93219 0.75234 0.0
C2361 C 0.65194 0.95158 0.75791 0.0
C2362 C 0.64946 0.94998 0.77138 0.0
H2363 H 0.53519 0.97563 0.80218 0.0
H2364 H 0.5612 0.9762 0.78624 0.0
H2365 H 0.54309 0.93425 0.7943 0.0
H2366 H 0.58458 0.8921 0.78072 0.0
H2367 H 0.58869 0.89516 0.75694 0.0
loop_
_geom_bond_atom_site_label_1
_geom_bond_atom_site_label_2
_geom_bond_distance
_geom_bond_site_symmetry_2
_ccdc_geom_bond_type
Nd0 C2 2.836 . S
Nd0 O20 2.500 . S
Nd0 O21 2.492 . S
Nd0 O22 2.487 . S
Nd0 O23 2.682 . S
Nd0 O24 2.410 . S
Nd0 O29 2.414 . S
Nd0 O31 2.424 . S
Nd1 C11 2.836 . S
Nd1 O23 2.414 . S
Nd1 O25 2.424 . S
Nd1 O26 2.500 . S
Nd1 O27 2.492 . S
Nd1 O28 2.487 . S
Nd1 O29 2.682 . S
Nd1 O30 2.410 . S
C2 Nd0 2.836 . S
C2 C3 1.498 . S
C2 O20 1.258 . S
C2 O21 1.239 . S
C3 C2 1.498 . S
C3 C4 1.366 . S
C3 C8 1.407 . S
C4 C3 1.366 . S
C4 C5 1.392 . S
C4 H32 0.930 . S
C5 C4 1.392 . S
C5 C6 1.398 . S
C5 H33 0.929 . S
C6 C5 1.398 . S
C6 C7 1.352 . S
C7 C6 1.352 . S
C7 C8 1.384 . S
C7 H34 0.930 . S
C8 C3 1.407 . S
C8 C7 1.384 . S
C8 H35 0.929 . S
C9 O22 1.241 . S
C9 O23 1.273 . S
C10 O24 1.251 . S
C10 O25 1.268 . S
C11 Nd1 2.836 . S
C11 C12 1.498 . S
C11 O26 1.258 . S
C11 O27 1.239 . S
C12 C11 1.498 . S
C12 C13 1.366 . S
C12 C17 1.407 . S
C13 C12 1.366 . S
C13 C14 1.392 . S
C13 H36 0.930 . S
C14 C13 1.392 . S
C14 C15 1.398 . S
C14 H37 0.929 . S
C15 C14 1.398 . S
C15 C16 1.352 . S
C16 C15 1.352 . S
C16 C17 1.384 . S
C16 H38 0.930 . S
C17 C12 1.407 . S
C17 C16 1.384 . S
C17 H39 0.929 . S
C18 O28 1.241 . S
C18 O29 1.273 . S
C19 O30 1.251 . S
C19 O31 1.268 . S
O20 Nd0 2.500 . S
O20 C2 1.258 . S
O21 Nd0 2.492 . S
O21 C2 1.239 . S
O22 Nd0 2.487 . S
O22 C9 1.241 . S
O23 Nd0 2.682 . S
O23 Nd1 2.414 . S
O23 C9 1.273 . S
O24 Nd0 2.410 . S
O24 C10 1.251 . S
O25 Nd1 2.424 . S
O25 C10 1.268 . S
O26 Nd1 2.500 . S
O26 C11 1.258 . S
O27 Nd1 2.492 . S
O27 C11 1.239 . S
O28 Nd1 2.487 . S
O28 C18 1.241 . S
O29 Nd0 2.414 . S
O29 Nd1 2.682 . S
O29 C18 1.273 . S
O30 Nd1 2.410 . S
O30 C19 1.251 . S
O31 Nd0 2.424 . S
O31 C19 1.268 . S
H32 C4 0.930 . S
H33 C5 0.929 . S
H34 C7 0.930 . S
H35 C8 0.929 . S
H36 C13 0.930 . S
H37 C14 0.929 . S
H38 C16 0.930 . S
H39 C17 0.929 . S
Nd40 C42 2.836 . S
Nd40 O60 2.500 . S
Nd40 O61 2.492 . S
Nd40 O62 2.487 . S
Nd40 O63 2.682 . S
Nd40 O64 2.410 . S
Nd40 O69 2.414 . S
Nd40 O71 2.424 . S
Nd41 C51 2.836 . S
Nd41 O63 2.414 . S
Nd41 O65 2.424 . S
Nd41 O66 2.500 . S
Nd41 O67 2.492 . S
Nd41 O68 2.487 . S
Nd41 O69 2.682 . S
Nd41 O70 2.410 . S
C42 Nd40 2.836 . S
C42 C43 1.498 . S
C42 O60 1.258 . S
C42 O61 1.239 . S
C43 C42 1.498 . S
C43 C44 1.366 . S
C43 C48 1.407 . S
C44 C43 1.366 . S
C44 C45 1.392 . S
C44 H72 0.930 . S
C45 C44 1.392 . S
C45 C46 1.398 . S
C45 H73 0.929 . S
C46 C45 1.398 . S
C46 C47 1.352 . S
C47 C46 1.352 . S
C47 C48 1.384 . S
C47 H74 0.930 . S
C48 C43 1.407 . S
C48 C47 1.384 . S
C48 H75 0.929 . S
C49 O62 1.241 . S
C49 O63 1.273 . S
C50 O64 1.251 . S
C50 O65 1.268 . S
C51 Nd41 2.836 . S
C51 C52 1.498 . S
C51 O66 1.258 . S
C51 O67 1.239 . S
C52 C51 1.498 . S
C52 C53 1.366 . S
C52 C57 1.407 . S
C53 C52 1.366 . S
C53 C54 1.392 . S
C53 H76 0.930 . S
C54 C53 1.392 . S
C54 C55 1.398 . S
C54 H77 0.929 . S
C55 C54 1.398 . S
C55 C56 1.352 . S
C56 C55 1.352 . S
C56 C57 1.384 . S
C56 H78 0.930 . S
C57 C52 1.407 . S
C57 C56 1.384 . S
C57 H79 0.929 . S
C58 O68 1.241 . S
C58 O69 1.273 . S
C59 O70 1.251 . S
C59 O71 1.268 . S
O60 Nd40 2.500 . S
O60 C42 1.258 . S
O61 Nd40 2.492 . S
O61 C42 1.239 . S
O62 Nd40 2.487 . S
O62 C49 1.241 . S
O63 Nd40 2.682 . S
O63 Nd41 2.414 . S
O63 C49 1.273 . S
O64 Nd40 2.410 . S
O64 C50 1.251 . S
O65 Nd41 2.424 . S
O65 C50 1.268 . S
O66 Nd41 2.500 . S
O66 C51 1.258 . S
O67 Nd41 2.492 . S
O67 C51 1.239 . S
O68 Nd41 2.487 . S
O68 C58 1.241 . S
O69 Nd40 2.414 . S
O69 Nd41 2.682 . S
O69 C58 1.273 . S
O70 Nd41 2.410 . S
O70 C59 1.251 . S
O71 Nd40 2.424 . S
O71 C59 1.268 . S
H72 C44 0.930 . S
H73 C45 0.929 . S
H74 C47 0.930 . S
H75 C48 0.929 . S
H76 C53 0.930 . S
H77 C54 0.929 . S
H78 C56 0.930 . S
H79 C57 0.929 . S
Nd80 C82 2.836 . S
Nd80 O100 2.500 . S
Nd80 O101 2.492 . S
Nd80 O102 2.487 . S
Nd80 O103 2.682 . S
Nd80 O104 2.410 . S
Nd80 O109 2.414 . S
Nd80 O111 2.424 . S
Nd81 C91 2.836 . S
Nd81 O103 2.414 . S
Nd81 O105 2.424 . S
Nd81 O106 2.500 . S
Nd81 O107 2.492 . S
Nd81 O108 2.487 . S
Nd81 O109 2.682 . S
Nd81 O110 2.410 . S
C82 Nd80 2.836 . S
C82 C83 1.498 . S
C82 O100 1.258 . S
C82 O101 1.239 . S
C83 C82 1.498 . S
C83 C84 1.366 . S
C83 C88 1.407 . S
C84 C83 1.366 . S
C84 C85 1.392 . S
C84 H112 0.930 . S
C85 C84 1.392 . S
C85 C86 1.398 . S
C85 H113 0.929 . S
C86 C85 1.398 . S
C86 C87 1.352 . S
C87 C86 1.352 . S
C87 C88 1.384 . S
C87 H114 0.930 . S
C88 C83 1.407 . S
C88 C87 1.384 . S
C88 H115 0.929 . S
C89 O102 1.241 . S
C89 O103 1.273 . S
C90 O104 1.251 . S
C90 O105 1.268 . S
C91 Nd81 2.836 . S
C91 C92 1.498 . S
C91 O106 1.258 . S
C91 O107 1.239 . S
C92 C91 1.498 . S
C92 C93 1.366 . S
C92 C97 1.407 . S
C93 C92 1.366 . S
C93 C94 1.392 . S
C93 H116 0.930 . S
C94 C93 1.392 . S
C94 C95 1.398 . S
C94 H117 0.929 . S
C95 C94 1.398 . S
C95 C96 1.352 . S
C96 C95 1.352 . S
C96 C97 1.384 . S
C96 H118 0.930 . S
C97 C92 1.407 . S
C97 C96 1.384 . S
C97 H119 0.929 . S
C98 O108 1.241 . S
C98 O109 1.273 . S
C99 O110 1.251 . S
C99 O111 1.268 . S
O100 Nd80 2.500 . S
O100 C82 1.258 . S
O101 Nd80 2.492 . S
O101 C82 1.239 . S
O102 Nd80 2.487 . S
O102 C89 1.241 . S
O103 Nd80 2.682 . S
O103 Nd81 2.414 . S
O103 C89 1.273 . S
O104 Nd80 2.410 . S
O104 C90 1.251 . S
O105 Nd81 2.424 . S
O105 C90 1.268 . S
O106 Nd81 2.500 . S
O106 C91 1.258 . S
O107 Nd81 2.492 . S
O107 C91 1.239 . S
O108 Nd81 2.487 . S
O108 C98 1.241 . S
O109 Nd80 2.414 . S
O109 Nd81 2.682 . S
O109 C98 1.273 . S
O110 Nd81 2.410 . S
O110 C99 1.251 . S
O111 Nd80 2.424 . S
O111 C99 1.268 . S
H112 C84 0.930 . S
H113 C85 0.929 . S
H114 C87 0.930 . S
H115 C88 0.929 . S
H116 C93 0.930 . S
H117 C94 0.929 . S
H118 C96 0.930 . S
H119 C97 0.929 . S
Nd120 C122 2.836 . S
Nd120 O140 2.500 . S
Nd120 O141 2.492 . S
Nd120 O142 2.487 . S
Nd120 O143 2.682 . S
Nd120 O144 2.410 . S
Nd120 O149 2.414 . S
Nd120 O151 2.424 . S
Nd121 C131 2.836 . S
Nd121 O143 2.414 . S
Nd121 O145 2.424 . S
Nd121 O146 2.500 . S
Nd121 O147 2.492 . S
Nd121 O148 2.487 . S
Nd121 O149 2.682 . S
Nd121 O150 2.410 . S
C122 Nd120 2.836 . S
C122 C123 1.498 . S
C122 O140 1.258 . S
C122 O141 1.239 . S
C123 C122 1.498 . S
C123 C124 1.366 . S
C123 C128 1.407 . S
C124 C123 1.366 . S
C124 C125 1.392 . S
C124 H152 0.930 . S
C125 C124 1.392 . S
C125 C126 1.398 . S
C125 H153 0.929 . S
C126 C125 1.398 . S
C126 C127 1.352 . S
C127 C126 1.352 . S
C127 C128 1.384 . S
C127 H154 0.930 . S
C128 C123 1.407 . S
C128 C127 1.384 . S
C128 H155 0.929 . S
C129 O142 1.241 . S
C129 O143 1.273 . S
C130 O144 1.251 . S
C130 O145 1.268 . S
C131 Nd121 2.836 . S
C131 C132 1.498 . S
C131 O146 1.258 . S
C131 O147 1.239 . S
C132 C131 1.498 . S
C132 C133 1.366 . S
C132 C137 1.407 1_655 S
C133 C132 1.366 . S
C133 C134 1.392 . S
C133 H156 0.930 . S
C134 C133 1.392 . S
C134 C135 1.398 1_655 S
C134 H157 0.929 . S
C135 C134 1.398 1_455 S
C135 C136 1.352 . S
C136 C135 1.352 . S
C136 C137 1.384 . S
C136 H158 0.930 . S
C137 C132 1.407 1_455 S
C137 C136 1.384 . S
C137 H159 0.929 . S
C138 O148 1.241 . S
C138 O149 1.273 . S
C139 O150 1.251 . S
C139 O151 1.268 . S
O140 Nd120 2.500 . S
O140 C122 1.258 . S
O141 Nd120 2.492 . S
O141 C122 1.239 . S
O142 Nd120 2.487 . S
O142 C129 1.241 . S
O143 Nd120 2.682 . S
O143 Nd121 2.414 . S
O143 C129 1.273 . S
O144 Nd120 2.410 . S
O144 C130 1.251 . S
O145 Nd121 2.424 . S
O145 C130 1.268 . S
O146 Nd121 2.500 . S
O146 C131 1.258 . S
O147 Nd121 2.492 . S
O147 C131 1.239 . S
O148 Nd121 2.487 . S
O148 C138 1.241 . S
O149 Nd120 2.414 . S
O149 Nd121 2.682 . S
O149 C138 1.273 . S
O150 Nd121 2.410 . S
O150 C139 1.251 . S
O151 Nd120 2.424 . S
O151 C139 1.268 . S
H152 C124 0.930 . S
H153 C125 0.929 . S
H154 C127 0.930 . S
H155 C128 0.929 . S
H156 C133 0.930 . S
H157 C134 0.929 . S
H158 C136 0.930 . S
H159 C137 0.929 . S
Nd160 C162 2.836 . S
Nd160 O180 2.500 . S
Nd160 O181 2.492 . S
Nd160 O182 2.487 . S
Nd160 O183 2.682 . S
Nd160 O184 2.410 . S
Nd160 O189 2.414 . S
Nd160 O191 2.424 . S
Nd161 C171 2.836 . S
Nd161 O183 2.414 . S
Nd161 O185 2.424 . S
Nd161 O186 2.500 . S
Nd161 O187 2.492 . S
Nd161 O188 2.487 . S
Nd161 O189 2.682 . S
Nd161 O190 2.410 . S
C162 Nd160 2.836 . S
C162 C163 1.498 . S
C162 O180 1.258 . S
C162 O181 1.239 . S
C163 C162 1.498 . S
C163 C164 1.366 . S
C163 C168 1.407 . S
C164 C163 1.366 . S
C164 C165 1.392 . S
C164 H192 0.930 . S
C165 C164 1.392 . S
C165 C166 1.398 . S
C165 H193 0.929 . S
C166 C165 1.398 . S
C166 C167 1.352 . S
C167 C166 1.352 . S
C167 C168 1.384 . S
C167 H194 0.930 . S
C168 C163 1.407 . S
C168 C167 1.384 . S
C168 H195 0.929 . S
C169 O182 1.241 . S
C169 O183 1.273 . S
C170 O184 1.251 . S
C170 O185 1.268 . S
C171 Nd161 2.836 . S
C171 C172 1.498 . S
C171 O186 1.258 . S
C171 O187 1.239 . S
C172 C171 1.498 . S
C172 C173 1.366 . S
C172 C177 1.407 . S
C173 C172 1.366 . S
C173 C174 1.392 . S
C173 H196 0.930 . S
C174 C173 1.392 . S
C174 C175 1.398 . S
C174 H197 0.929 . S
C175 C174 1.398 . S
C175 C176 1.352 . S
C176 C175 1.352 . S
C176 C177 1.384 . S
C176 H198 0.930 . S
C177 C172 1.407 . S
C177 C176 1.384 . S
C177 H199 0.929 . S
C178 O188 1.241 . S
C178 O189 1.273 . S
C179 O190 1.251 . S
C179 O191 1.268 . S
O180 Nd160 2.500 . S
O180 C162 1.258 . S
O181 Nd160 2.492 . S
O181 C162 1.239 . S
O182 Nd160 2.487 . S
O182 C169 1.241 . S
O183 Nd160 2.682 . S
O183 Nd161 2.414 . S
O183 C169 1.273 . S
O184 Nd160 2.410 . S
O184 C170 1.251 . S
O185 Nd161 2.424 . S
O185 C170 1.268 . S
O186 Nd161 2.500 . S
O186 C171 1.258 . S
O187 Nd161 2.492 . S
O187 C171 1.239 . S
O188 Nd161 2.487 . S
O188 C178 1.241 . S
O189 Nd160 2.414 . S
O189 Nd161 2.682 . S
O189 C178 1.273 . S
O190 Nd161 2.410 . S
O190 C179 1.251 . S
O191 Nd160 2.424 . S
O191 C179 1.268 . S
H192 C164 0.930 . S
H193 C165 0.929 . S
H194 C167 0.930 . S
H195 C168 0.929 . S
H196 C173 0.930 . S
H197 C174 0.929 . S
H198 C176 0.930 . S
H199 C177 0.929 . S
Nd200 C202 2.836 . S
Nd200 O220 2.500 . S
Nd200 O221 2.492 . S
Nd200 O222 2.487 . S
Nd200 O223 2.682 . S
Nd200 O224 2.410 . S
Nd200 O229 2.414 . S
Nd200 O231 2.424 . S
Nd201 C211 2.836 . S
Nd201 O223 2.414 . S
Nd201 O225 2.424 . S
Nd201 O226 2.500 . S
Nd201 O227 2.492 . S
Nd201 O228 2.487 . S
Nd201 O229 2.682 . S
Nd201 O230 2.410 . S
C202 Nd200 2.836 . S
C202 C203 1.498 . S
C202 O220 1.258 . S
C202 O221 1.239 . S
C203 C202 1.498 . S
C203 C204 1.366 . S
C203 C208 1.407 . S
C204 C203 1.366 . S
C204 C205 1.392 . S
C204 H232 0.930 . S
C205 C204 1.392 . S
C205 C206 1.398 . S
C205 H233 0.929 . S
C206 C205 1.398 . S
C206 C207 1.352 . S
C207 C206 1.352 . S
C207 C208 1.384 . S
C207 H234 0.930 . S
C208 C203 1.407 . S
C208 C207 1.384 . S
C208 H235 0.929 . S
C209 O222 1.241 . S
C209 O223 1.273 . S
C210 O224 1.251 . S
C210 O225 1.268 . S
C211 Nd201 2.836 . S
C211 C212 1.498 . S
C211 O226 1.258 . S
C211 O227 1.239 . S
C212 C211 1.498 . S
C212 C213 1.366 . S
C212 C217 1.407 . S
C213 C212 1.366 . S
C213 C214 1.392 . S
C213 H236 0.930 . S
C214 C213 1.392 . S
C214 C215 1.398 . S
C214 H237 0.929 . S
C215 C214 1.398 . S
C215 C216 1.352 . S
C216 C215 1.352 . S
C216 C217 1.384 . S
C216 H238 0.930 . S
C217 C212 1.407 . S
C217 C216 1.384 . S
C217 H239 0.929 . S
C218 O228 1.241 . S
C218 O229 1.273 . S
C219 O230 1.251 . S
C219 O231 1.268 . S
O220 Nd200 2.500 . S
O220 C202 1.258 . S
O221 Nd200 2.492 . S
O221 C202 1.239 . S
O222 Nd200 2.487 . S
O222 C209 1.241 . S
O223 Nd200 2.682 . S
O223 Nd201 2.414 . S
O223 C209 1.273 . S
O224 Nd200 2.410 . S
O224 C210 1.251 . S
O225 Nd201 2.424 . S
O225 C210 1.268 . S
O226 Nd201 2.500 . S
O226 C211 1.258 . S
O227 Nd201 2.492 . S
O227 C211 1.239 . S
O228 Nd201 2.487 . S
O228 C218 1.241 . S
O229 Nd200 2.414 . S
O229 Nd201 2.682 . S
O229 C218 1.273 . S
O230 Nd201 2.410 . S
O230 C219 1.251 . S
O231 Nd200 2.424 . S
O231 C219 1.268 . S
H232 C204 0.930 . S
H233 C205 0.929 . S
H234 C207 0.930 . S
H235 C208 0.929 . S
H236 C213 0.930 . S
H237 C214 0.929 . S
H238 C216 0.930 . S
H239 C217 0.929 . S
Nd240 C242 2.836 . S
Nd240 O260 2.500 . S
Nd240 O261 2.492 . S
Nd240 O262 2.487 . S
Nd240 O263 2.682 . S
Nd240 O264 2.410 . S
Nd240 O269 2.414 . S
Nd240 O271 2.424 . S
Nd241 C251 2.836 . S
Nd241 O263 2.414 . S
Nd241 O265 2.424 . S
Nd241 O266 2.500 . S
Nd241 O267 2.492 . S
Nd241 O268 2.487 . S
Nd241 O269 2.682 . S
Nd241 O270 2.410 . S
C242 Nd240 2.836 . S
C242 C243 1.498 . S
C242 O260 1.258 . S
C242 O261 1.239 . S
C243 C242 1.498 . S
C243 C244 1.366 . S
C243 C248 1.407 . S
C244 C243 1.366 . S
C244 C245 1.392 . S
C244 H272 0.930 . S
C245 C244 1.392 . S
C245 C246 1.398 . S
C245 H273 0.929 . S
C246 C245 1.398 . S
C246 C247 1.352 . S
C247 C246 1.352 . S
C247 C248 1.384 . S
C247 H274 0.930 . S
C248 C243 1.407 . S
C248 C247 1.384 . S
C248 H275 0.929 . S
C249 O262 1.241 . S
C249 O263 1.273 . S
C250 O264 1.251 . S
C250 O265 1.268 . S
C251 Nd241 2.836 . S
C251 C252 1.498 . S
C251 O266 1.258 . S
C251 O267 1.239 . S
C252 C251 1.498 . S
C252 C253 1.366 . S
C252 C257 1.407 . S
C253 C252 1.366 . S
C253 C254 1.392 . S
C253 H276 0.930 . S
C254 C253 1.392 . S
C254 C255 1.398 . S
C254 H277 0.929 . S
C255 C254 1.398 . S
C255 C256 1.352 . S
C256 C255 1.352 . S
C256 C257 1.384 . S
C256 H278 0.930 . S
C257 C252 1.407 . S
C257 C256 1.384 . S
C257 H279 0.929 . S
C258 O268 1.241 . S
C258 O269 1.273 . S
C259 O270 1.251 . S
C259 O271 1.268 . S
O260 Nd240 2.500 . S
O260 C242 1.258 . S
O261 Nd240 2.492 . S
O261 C242 1.239 . S
O262 Nd240 2.487 . S
O262 C249 1.241 . S
O263 Nd240 2.682 . S
O263 Nd241 2.414 . S
O263 C249 1.273 . S
O264 Nd240 2.410 . S
O264 C250 1.251 . S
O265 Nd241 2.424 . S
O265 C250 1.268 . S
O266 Nd241 2.500 . S
O266 C251 1.258 . S
O267 Nd241 2.492 . S
O267 C251 1.239 . S
O268 Nd241 2.487 . S
O268 C258 1.241 . S
O269 Nd240 2.414 . S
O269 Nd241 2.682 . S
O269 C258 1.273 . S
O270 Nd241 2.410 . S
O270 C259 1.251 . S
O271 Nd240 2.424 . S
O271 C259 1.268 . S
H272 C244 0.930 . S
H273 C245 0.929 . S
H274 C247 0.930 . S
H275 C248 0.929 . S
H276 C253 0.930 . S
H277 C254 0.929 . S
H278 C256 0.930 . S
H279 C257 0.929 . S
Nd280 C282 2.836 . S
Nd280 O300 2.500 . S
Nd280 O301 2.492 . S
Nd280 O302 2.487 . S
Nd280 O303 2.682 . S
Nd280 O304 2.410 . S
Nd280 O309 2.414 . S
Nd280 O311 2.424 . S
Nd281 C291 2.836 . S
Nd281 O303 2.414 . S
Nd281 O305 2.424 . S
Nd281 O306 2.500 . S
Nd281 O307 2.492 . S
Nd281 O308 2.487 . S
Nd281 O309 2.682 . S
Nd281 O310 2.410 . S
C282 Nd280 2.836 . S
C282 C283 1.498 . S
C282 O300 1.258 . S
C282 O301 1.239 . S
C283 C282 1.498 . S
C283 C284 1.366 . S
C283 C288 1.407 1_455 S
C284 C283 1.366 . S
C284 C285 1.392 . S
C284 H312 0.930 . S
C285 C284 1.392 . S
C285 C286 1.398 1_455 S
C285 H313 0.929 . S
C286 C285 1.398 1_655 S
C286 C287 1.352 . S
C287 C286 1.352 . S
C287 C288 1.384 . S
C287 H314 0.930 . S
C288 C283 1.407 1_655 S
C288 C287 1.384 . S
C288 H315 0.929 . S
C289 O302 1.241 . S
C289 O303 1.273 . S
C290 O304 1.251 . S
C290 O305 1.268 . S
C291 Nd281 2.836 . S
C291 C292 1.498 . S
C291 O306 1.258 . S
C291 O307 1.239 . S
C292 C291 1.498 . S
C292 C293 1.366 . S
C292 C297 1.407 . S
C293 C292 1.366 . S
C293 C294 1.392 . S
C293 H316 0.930 . S
C294 C293 1.392 . S
C294 C295 1.398 . S
C294 H317 0.929 . S
C295 C294 1.398 . S
C295 C296 1.352 . S
C296 C295 1.352 . S
C296 C297 1.384 . S
C296 H318 0.930 . S
C297 C292 1.407 . S
C297 C296 1.384 . S
C297 H319 0.929 . S
C298 O308 1.241 . S
C298 O309 1.273 . S
C299 O310 1.251 . S
C299 O311 1.268 . S
O300 Nd280 2.500 . S
O300 C282 1.258 . S
O301 Nd280 2.492 . S
O301 C282 1.239 . S
O302 Nd280 2.487 . S
O302 C289 1.241 . S
O303 Nd280 2.682 . S
O303 Nd281 2.414 . S
O303 C289 1.273 . S
O304 Nd280 2.410 . S
O304 C290 1.251 . S
O305 Nd281 2.424 . S
O305 C290 1.268 . S
O306 Nd281 2.500 . S
O306 C291 1.258 . S
O307 Nd281 2.492 . S
O307 C291 1.239 . S
O308 Nd281 2.487 . S
O308 C298 1.241 . S
O309 Nd280 2.414 . S
O309 Nd281 2.682 . S
O309 C298 1.273 . S
O310 Nd281 2.410 . S
O310 C299 1.251 . S
O311 Nd280 2.424 . S
O311 C299 1.268 . S
H312 C284 0.930 . S
H313 C285 0.929 . S
H314 C287 0.930 . S
H315 C288 0.929 . S
H316 C293 0.930 . S
H317 C294 0.929 . S
H318 C296 0.930 . S
H319 C297 0.929 . S
Nd320 C322 2.836 . S
Nd320 O340 2.500 . S
Nd320 O341 2.492 . S
Nd320 O342 2.487 . S
Nd320 O343 2.682 . S
Nd320 O344 2.410 . S
Nd320 O349 2.414 . S
Nd320 O351 2.424 . S
Nd321 C331 2.836 . S
Nd321 O343 2.414 . S
Nd321 O345 2.424 . S
Nd321 O346 2.500 . S
Nd321 O347 2.492 . S
Nd321 O348 2.487 . S
Nd321 O349 2.682 . S
Nd321 O350 2.410 . S
C322 Nd320 2.836 . S
C322 C323 1.498 . S
C322 O340 1.258 . S
C322 O341 1.239 . S
C323 C322 1.498 . S
C323 C324 1.366 . S
C323 C328 1.407 . S
C324 C323 1.366 . S
C324 C325 1.392 . S
C324 H352 0.930 . S
C325 C324 1.392 . S
C325 C326 1.398 . S
C325 H353 0.929 . S
C326 C325 1.398 . S
C326 C327 1.352 . S
C327 C326 1.352 . S
C327 C328 1.384 . S
C327 H354 0.930 . S
C328 C323 1.407 . S
C328 C327 1.384 . S
C328 H355 0.929 . S
C329 O342 1.241 . S
C329 O343 1.273 . S
C330 O344 1.251 . S
C330 O345 1.268 . S
C331 Nd321 2.836 . S
C331 C332 1.498 . S
C331 O346 1.258 . S
C331 O347 1.239 . S
C332 C331 1.498 . S
C332 C333 1.366 . S
C332 C337 1.407 . S
C333 C332 1.366 . S
C333 C334 1.392 . S
C333 H356 0.930 . S
C334 C333 1.392 . S
C334 C335 1.398 . S
C334 H357 0.929 . S
C335 C334 1.398 . S
C335 C336 1.352 . S
C336 C335 1.352 . S
C336 C337 1.384 . S
C336 H358 0.930 . S
C337 C332 1.407 . S
C337 C336 1.384 . S
C337 H359 0.929 . S
C338 O348 1.241 . S
C338 O349 1.273 . S
C339 O350 1.251 . S
C339 O351 1.268 . S
O340 Nd320 2.500 . S
O340 C322 1.258 . S
O341 Nd320 2.492 . S
O341 C322 1.239 . S
O342 Nd320 2.487 . S
O342 C329 1.241 . S
O343 Nd320 2.682 . S
O343 Nd321 2.414 . S
O343 C329 1.273 . S
O344 Nd320 2.410 . S
O344 C330 1.251 . S
O345 Nd321 2.424 . S
O345 C330 1.268 . S
O346 Nd321 2.500 . S
O346 C331 1.258 . S
O347 Nd321 2.492 . S
O347 C331 1.239 . S
O348 Nd321 2.487 . S
O348 C338 1.241 . S
O349 Nd320 2.414 . S
O349 Nd321 2.682 . S
O349 C338 1.273 . S
O350 Nd321 2.410 . S
O350 C339 1.251 . S
O351 Nd320 2.424 . S
O351 C339 1.268 . S
H352 C324 0.930 . S
H353 C325 0.929 . S
H354 C327 0.930 . S
H355 C328 0.929 . S
H356 C333 0.930 . S
H357 C334 0.929 . S
H358 C336 0.930 . S
H359 C337 0.929 . S
Nd360 C362 2.836 . S
Nd360 O380 2.500 . S
Nd360 O381 2.492 . S
Nd360 O382 2.487 . S
Nd360 O383 2.682 . S
Nd360 O384 2.410 . S
Nd360 O389 2.414 . S
Nd360 O391 2.424 . S
Nd361 C371 2.836 . S
Nd361 O383 2.414 . S
Nd361 O385 2.424 . S
Nd361 O386 2.500 . S
Nd361 O387 2.492 . S
Nd361 O388 2.487 1_545 S
Nd361 O389 2.682 . S
Nd361 O390 2.410 . S
C362 Nd360 2.836 . S
C362 C363 1.498 . S
C362 O380 1.258 . S
C362 O381 1.239 . S
C363 C362 1.498 . S
C363 C364 1.366 . S
C363 C368 1.407 . S
C364 C363 1.366 . S
C364 C365 1.392 . S
C364 H392 0.930 . S
C365 C364 1.392 . S
C365 C366 1.398 . S
C365 H393 0.929 . S
C366 C365 1.398 . S
C366 C367 1.352 . S
C367 C366 1.352 . S
C367 C368 1.384 . S
C367 H394 0.930 . S
C368 C363 1.407 . S
C368 C367 1.384 . S
C368 H395 0.929 . S
C369 O382 1.241 . S
C369 O383 1.273 . S
C370 O384 1.251 . S
C370 O385 1.268 . S
C371 Nd361 2.836 . S
C371 C372 1.498 . S
C371 O386 1.258 . S
C371 O387 1.239 . S
C372 C371 1.498 . S
C372 C373 1.366 . S
C372 C377 1.407 . S
C373 C372 1.366 . S
C373 C374 1.392 . S
C373 H396 0.930 . S
C374 C373 1.392 . S
C374 C375 1.398 . S
C374 H397 0.929 . S
C375 C374 1.398 . S
C375 C376 1.352 . S
C376 C375 1.352 . S
C376 C377 1.384 . S
C376 H398 0.930 1_545 S
C377 C372 1.407 . S
C377 C376 1.384 . S
C377 H399 0.929 1_545 S
C378 O388 1.241 . S
C378 O389 1.273 1_565 S
C379 O390 1.251 . S
C379 O391 1.268 . S
O380 Nd360 2.500 . S
O380 C362 1.258 . S
O381 Nd360 2.492 . S
O381 C362 1.239 . S
O382 Nd360 2.487 . S
O382 C369 1.241 . S
O383 Nd360 2.682 . S
O383 Nd361 2.414 . S
O383 C369 1.273 . S
O384 Nd360 2.410 . S
O384 C370 1.251 . S
O385 Nd361 2.424 . S
O385 C370 1.268 . S
O386 Nd361 2.500 . S
O386 C371 1.258 . S
O387 Nd361 2.492 . S
O387 C371 1.239 . S
O388 Nd361 2.487 1_565 S
O388 C378 1.241 . S
O389 Nd360 2.414 . S
O389 Nd361 2.682 . S
O389 C378 1.273 1_545 S
O390 Nd361 2.410 . S
O390 C379 1.251 . S
O391 Nd360 2.424 . S
O391 C379 1.268 . S
H392 C364 0.930 . S
H393 C365 0.929 . S
H394 C367 0.930 . S
H395 C368 0.929 . S
H396 C373 0.930 . S
H397 C374 0.929 . S
H398 C376 0.930 1_565 S
H399 C377 0.929 1_565 S
Nd400 C402 2.836 . S
Nd400 O420 2.500 . S
Nd400 O421 2.492 . S
Nd400 O422 2.487 . S
Nd400 O423 2.682 . S
Nd400 O424 2.410 . S
Nd400 O429 2.414 . S
Nd400 O431 2.424 . S
Nd401 C411 2.836 . S
Nd401 O423 2.414 . S
Nd401 O425 2.424 . S
Nd401 O426 2.500 . S
Nd401 O427 2.492 . S
Nd401 O428 2.487 . S
Nd401 O429 2.682 . S
Nd401 O430 2.410 . S
C402 Nd400 2.836 . S
C402 C403 1.498 . S
C402 O420 1.258 . S
C402 O421 1.239 . S
C403 C402 1.498 . S
C403 C404 1.366 . S
C403 C408 1.407 . S
C404 C403 1.366 . S
C404 C405 1.392 . S
C404 H432 0.930 . S
C405 C404 1.392 . S
C405 C406 1.398 . S
C405 H433 0.929 . S
C406 C405 1.398 . S
C406 C407 1.352 . S
C407 C406 1.352 . S
C407 C408 1.384 . S
C407 H434 0.930 . S
C408 C403 1.407 . S
C408 C407 1.384 . S
C408 H435 0.929 . S
C409 O422 1.241 . S
C409 O423 1.273 . S
C410 O424 1.251 . S
C410 O425 1.268 . S
C411 Nd401 2.836 . S
C411 C412 1.498 . S
C411 O426 1.258 . S
C411 O427 1.239 . S
C412 C411 1.498 . S
C412 C413 1.366 . S
C412 C417 1.407 . S
C413 C412 1.366 . S
C413 C414 1.392 1_554 S
C413 H436 0.930 . S
C414 C413 1.392 1_556 S
C414 C415 1.398 . S
C414 H437 0.929 . S
C415 C414 1.398 . S
C415 C416 1.352 . S
C416 C415 1.352 . S
C416 C417 1.384 1_556 S
C416 H438 0.930 . S
C417 C412 1.407 . S
C417 C416 1.384 1_554 S
C417 H439 0.929 . S
C418 O428 1.241 . S
C418 O429 1.273 . S
C419 O430 1.251 . S
C419 O431 1.268 . S
O420 Nd400 2.500 . S
O420 C402 1.258 . S
O421 Nd400 2.492 . S
O421 C402 1.239 . S
O422 Nd400 2.487 . S
O422 C409 1.241 . S
O423 Nd400 2.682 . S
O423 Nd401 2.414 . S
O423 C409 1.273 . S
O424 Nd400 2.410 . S
O424 C410 1.251 . S
O425 Nd401 2.424 . S
O425 C410 1.268 . S
O426 Nd401 2.500 . S
O426 C411 1.258 . S
O427 Nd401 2.492 . S
O427 C411 1.239 . S
O428 Nd401 2.487 . S
O428 C418 1.241 . S
O429 Nd400 2.414 . S
O429 Nd401 2.682 . S
O429 C418 1.273 . S
O430 Nd401 2.410 . S
O430 C419 1.251 . S
O431 Nd400 2.424 . S
O431 C419 1.268 . S
H432 C404 0.930 . S
H433 C405 0.929 . S
H434 C407 0.930 . S
H435 C408 0.929 . S
H436 C413 0.930 . S
H437 C414 0.929 . S
H438 C416 0.930 . S
H439 C417 0.929 . S
Nd440 C442 2.836 . S
Nd440 O460 2.500 . S
Nd440 O461 2.492 . S
Nd440 O462 2.487 1_565 S
Nd440 O463 2.682 1_565 S
Nd440 O464 2.410 . S
Nd440 O469 2.414 . S
Nd440 O471 2.424 . S
Nd441 C451 2.836 1_565 S
Nd441 O463 2.414 1_565 S
Nd441 O465 2.424 . S
Nd441 O466 2.500 1_565 S
Nd441 O467 2.492 . S
Nd441 O468 2.487 . S
Nd441 O469 2.682 . S
Nd441 O470 2.410 . S
C442 Nd440 2.836 . S
C442 C443 1.498 . S
C442 O460 1.258 . S
C442 O461 1.239 . S
C443 C442 1.498 . S
C443 C444 1.366 . S
C443 C448 1.407 . S
C444 C443 1.366 . S
C444 C445 1.392 . S
C444 H472 0.930 . S
C445 C444 1.392 . S
C445 C446 1.398 . S
C445 H473 0.929 . S
C446 C445 1.398 . S
C446 C447 1.352 . S
C447 C446 1.352 . S
C447 C448 1.384 . S
C447 H474 0.930 . S
C448 C443 1.407 . S
C448 C447 1.384 . S
C448 H475 0.929 . S
C449 O462 1.241 . S
C449 O463 1.273 . S
C450 O464 1.251 . S
C450 O465 1.268 . S
C451 Nd441 2.836 1_545 S
C451 C452 1.498 . S
C451 O466 1.258 . S
C451 O467 1.239 1_545 S
C452 C451 1.498 . S
C452 C453 1.366 . S
C452 C457 1.405 1_545 S
C453 C452 1.366 . S
C453 C454 1.392 . S
C453 H476 0.930 . S
C454 C453 1.392 . S
C454 C455 1.398 . S
C454 H477 0.929 . S
C455 C454 1.398 . S
C455 C456 1.352 . S
C456 C455 1.352 . S
C456 C457 1.381 1_545 S
C456 H478 0.929 . S
C457 C452 1.405 1_565 S
C457 C456 1.381 1_565 S
C457 H479 0.934 . S
C458 O468 1.241 . S
C458 O469 1.273 . S
C459 O470 1.251 . S
C459 O471 1.268 . S
O460 Nd440 2.500 . S
O460 C442 1.258 . S
O461 Nd440 2.492 . S
O461 C442 1.239 . S
O462 Nd440 2.487 1_545 S
O462 C449 1.241 . S
O463 Nd440 2.682 1_545 S
O463 Nd441 2.414 1_545 S
O463 C449 1.273 . S
O464 Nd440 2.410 . S
O464 C450 1.251 . S
O465 Nd441 2.424 . S
O465 C450 1.268 . S
O466 Nd441 2.500 1_545 S
O466 C451 1.258 . S
O467 Nd441 2.492 . S
O467 C451 1.239 1_565 S
O468 Nd441 2.487 . S
O468 C458 1.241 . S
O469 Nd440 2.414 . S
O469 Nd441 2.682 . S
O469 C458 1.273 . S
O470 Nd441 2.410 . S
O470 C459 1.251 . S
O471 Nd440 2.424 . S
O471 C459 1.268 . S
H472 C444 0.930 . S
H473 C445 0.929 . S
H474 C447 0.930 . S
H475 C448 0.929 . S
H476 C453 0.930 . S
H477 C454 0.929 . S
H478 C456 0.929 . S
H479 C457 0.934 . S
Nd480 C482 2.836 . S
Nd480 O500 2.500 . S
Nd480 O501 2.492 . S
Nd480 O502 2.487 . S
Nd480 O503 2.682 . S
Nd480 O504 2.410 . S
Nd480 O509 2.414 . S
Nd480 O511 2.424 . S
Nd481 C491 2.836 . S
Nd481 O503 2.414 . S
Nd481 O505 2.424 . S
Nd481 O506 2.500 . S
Nd481 O507 2.492 . S
Nd481 O508 2.487 . S
Nd481 O509 2.682 . S
Nd481 O510 2.410 . S
C482 Nd480 2.836 . S
C482 C483 1.498 . S
C482 O500 1.258 . S
C482 O501 1.239 . S
C483 C482 1.498 . S
C483 C484 1.366 . S
C483 C488 1.407 . S
C484 C483 1.366 . S
C484 C485 1.392 . S
C484 H512 0.930 . S
C485 C484 1.392 . S
C485 C486 1.398 . S
C485 H513 0.929 . S
C486 C485 1.398 . S
C486 C487 1.352 . S
C487 C486 1.352 . S
C487 C488 1.384 . S
C487 H514 0.930 . S
C488 C483 1.407 . S
C488 C487 1.384 . S
C488 H515 0.929 . S
C489 O502 1.241 . S
C489 O503 1.273 . S
C490 O504 1.251 . S
C490 O505 1.268 . S
C491 Nd481 2.836 . S
C491 C492 1.498 . S
C491 O506 1.258 . S
C491 O507 1.239 . S
C492 C491 1.498 . S
C492 C493 1.366 . S
C492 C497 1.407 . S
C493 C492 1.366 . S
C493 C494 1.392 . S
C493 H516 0.930 . S
C494 C493 1.392 . S
C494 C495 1.398 . S
C494 H517 0.929 . S
C495 C494 1.398 . S
C495 C496 1.352 . S
C496 C495 1.352 . S
C496 C497 1.384 . S
C496 H518 0.930 . S
C497 C492 1.407 . S
C497 C496 1.384 . S
C497 H519 0.929 . S
C498 O508 1.241 . S
C498 O509 1.273 . S
C499 O510 1.251 . S
C499 O511 1.268 . S
O500 Nd480 2.500 . S
O500 C482 1.258 . S
O501 Nd480 2.492 . S
O501 C482 1.239 . S
O502 Nd480 2.487 . S
O502 C489 1.241 . S
O503 Nd480 2.682 . S
O503 Nd481 2.414 . S
O503 C489 1.273 . S
O504 Nd480 2.410 . S
O504 C490 1.251 . S
O505 Nd481 2.424 . S
O505 C490 1.268 . S
O506 Nd481 2.500 . S
O506 C491 1.258 . S
O507 Nd481 2.492 . S
O507 C491 1.239 . S
O508 Nd481 2.487 . S
O508 C498 1.241 . S
O509 Nd480 2.414 . S
O509 Nd481 2.682 . S
O509 C498 1.273 . S
O510 Nd481 2.410 . S
O510 C499 1.251 . S
O511 Nd480 2.424 . S
O511 C499 1.268 . S
H512 C484 0.930 . S
H513 C485 0.929 . S
H514 C487 0.930 . S
H515 C488 0.929 . S
H516 C493 0.930 . S
H517 C494 0.929 . S
H518 C496 0.930 . S
H519 C497 0.929 . S
Nd520 C522 2.836 . S
Nd520 O540 2.500 . S
Nd520 O541 2.492 . S
Nd520 O542 2.487 1_565 S
Nd520 O543 2.682 . S
Nd520 O544 2.410 . S
Nd520 O549 2.414 . S
Nd520 O551 2.424 . S
Nd521 C531 2.836 . S
Nd521 O543 2.414 . S
Nd521 O545 2.424 . S
Nd521 O546 2.500 . S
Nd521 O547 2.492 . S
Nd521 O548 2.487 . S
Nd521 O549 2.682 . S
Nd521 O550 2.410 . S
C522 Nd520 2.836 . S
C522 C523 1.498 . S
C522 O540 1.258 . S
C522 O541 1.239 . S
C523 C522 1.498 . S
C523 C524 1.366 . S
C523 C528 1.407 . S
C524 C523 1.366 . S
C524 C525 1.392 . S
C524 H552 0.930 . S
C525 C524 1.392 . S
C525 C526 1.398 . S
C525 H553 0.929 . S
C526 C525 1.398 . S
C526 C527 1.352 . S
C527 C526 1.352 . S
C527 C528 1.384 . S
C527 H554 0.930 1_565 S
C528 C523 1.407 . S
C528 C527 1.384 . S
C528 H555 0.929 1_565 S
C529 O542 1.241 . S
C529 O543 1.273 1_545 S
C530 O544 1.251 . S
C530 O545 1.268 . S
C531 Nd521 2.836 . S
C531 C532 1.498 . S
C531 O546 1.258 . S
C531 O547 1.239 . S
C532 C531 1.498 . S
C532 C533 1.366 . S
C532 C537 1.407 . S
C533 C532 1.366 . S
C533 C534 1.392 . S
C533 H556 0.930 . S
C534 C533 1.392 . S
C534 C535 1.398 . S
C534 H557 0.929 . S
C535 C534 1.398 . S
C535 C536 1.352 . S
C536 C535 1.352 . S
C536 C537 1.384 . S
C536 H558 0.930 . S
C537 C532 1.407 . S
C537 C536 1.384 . S
C537 H559 0.929 . S
C538 O548 1.241 . S
C538 O549 1.273 . S
C539 O550 1.251 . S
C539 O551 1.268 . S
O540 Nd520 2.500 . S
O540 C522 1.258 . S
O541 Nd520 2.492 . S
O541 C522 1.239 . S
O542 Nd520 2.487 1_545 S
O542 C529 1.241 . S
O543 Nd520 2.682 . S
O543 Nd521 2.414 . S
O543 C529 1.273 1_565 S
O544 Nd520 2.410 . S
O544 C530 1.251 . S
O545 Nd521 2.424 . S
O545 C530 1.268 . S
O546 Nd521 2.500 . S
O546 C531 1.258 . S
O547 Nd521 2.492 . S
O547 C531 1.239 . S
O548 Nd521 2.487 . S
O548 C538 1.241 . S
O549 Nd520 2.414 . S
O549 Nd521 2.682 . S
O549 C538 1.273 . S
O550 Nd521 2.410 . S
O550 C539 1.251 . S
O551 Nd520 2.424 . S
O551 C539 1.268 . S
H552 C524 0.930 . S
H553 C525 0.929 . S
H554 C527 0.930 1_545 S
H555 C528 0.929 1_545 S
H556 C533 0.930 . S
H557 C534 0.929 . S
H558 C536 0.930 . S
H559 C537 0.929 . S
Nd560 C562 2.836 . S
Nd560 O580 2.500 . S
Nd560 O581 2.492 . S
Nd560 O582 2.487 . S
Nd560 O583 2.682 . S
Nd560 O584 2.410 . S
Nd560 O589 2.414 . S
Nd560 O591 2.424 . S
Nd561 C571 2.836 . S
Nd561 O583 2.414 . S
Nd561 O585 2.424 . S
Nd561 O586 2.500 . S
Nd561 O587 2.492 . S
Nd561 O588 2.487 . S
Nd561 O589 2.682 . S
Nd561 O590 2.410 . S
C562 Nd560 2.836 . S
C562 C563 1.498 . S
C562 O580 1.258 . S
C562 O581 1.239 . S
C563 C562 1.498 . S
C563 C564 1.366 . S
C563 C568 1.407 . S
C564 C563 1.366 . S
C564 C565 1.392 1_556 S
C564 H592 0.930 . S
C565 C564 1.392 1_554 S
C565 C566 1.398 . S
C565 H593 0.929 . S
C566 C565 1.398 . S
C566 C567 1.352 . S
C567 C566 1.352 . S
C567 C568 1.384 1_554 S
C567 H594 0.930 . S
C568 C563 1.407 . S
C568 C567 1.384 1_556 S
C568 H595 0.929 . S
C569 O582 1.241 . S
C569 O583 1.273 . S
C570 O584 1.251 . S
C570 O585 1.268 . S
C571 Nd561 2.836 . S
C571 C572 1.498 . S
C571 O586 1.258 . S
C571 O587 1.239 . S
C572 C571 1.498 . S
C572 C573 1.366 . S
C572 C577 1.407 . S
C573 C572 1.366 . S
C573 C574 1.392 . S
C573 H596 0.930 . S
C574 C573 1.392 . S
C574 C575 1.398 . S
C574 H597 0.929 . S
C575 C574 1.398 . S
C575 C576 1.352 . S
C576 C575 1.352 . S
C576 C577 1.384 . S
C576 H598 0.930 . S
C577 C572 1.407 . S
C577 C576 1.384 . S
C577 H599 0.929 . S
C578 O588 1.241 . S
C578 O589 1.273 . S
C579 O590 1.251 . S
C579 O591 1.268 . S
O580 Nd560 2.500 . S
O580 C562 1.258 . S
O581 Nd560 2.492 . S
O581 C562 1.239 . S
O582 Nd560 2.487 . S
O582 C569 1.241 . S
O583 Nd560 2.682 . S
O583 Nd561 2.414 . S
O583 C569 1.273 . S
O584 Nd560 2.410 . S
O584 C570 1.251 . S
O585 Nd561 2.424 . S
O585 C570 1.268 . S
O586 Nd561 2.500 . S
O586 C571 1.258 . S
O587 Nd561 2.492 . S
O587 C571 1.239 . S
O588 Nd561 2.487 . S
O588 C578 1.241 . S
O589 Nd560 2.414 . S
O589 Nd561 2.682 . S
O589 C578 1.273 . S
O590 Nd561 2.410 . S
O590 C579 1.251 . S
O591 Nd560 2.424 . S
O591 C579 1.268 . S
H592 C564 0.930 . S
H593 C565 0.929 . S
H594 C567 0.930 . S
H595 C568 0.929 . S
H596 C573 0.930 . S
H597 C574 0.929 . S
H598 C576 0.930 . S
H599 C577 0.929 . S
Nd600 C602 2.836 1_545 S
Nd600 O620 2.500 1_545 S
Nd600 O621 2.492 . S
Nd600 O622 2.487 . S
Nd600 O623 2.682 . S
Nd600 O624 2.410 . S
Nd600 O629 2.414 1_545 S
Nd600 O631 2.424 . S
Nd601 C611 2.836 . S
Nd601 O623 2.414 . S
Nd601 O625 2.424 . S
Nd601 O626 2.500 . S
Nd601 O627 2.492 . S
Nd601 O628 2.487 1_545 S
Nd601 O629 2.682 1_545 S
Nd601 O630 2.410 . S
C602 Nd600 2.836 1_565 S
C602 C603 1.498 . S
C602 O620 1.258 . S
C602 O621 1.239 1_565 S
C603 C602 1.498 . S
C603 C604 1.366 . S
C603 C608 1.405 1_565 S
C604 C603 1.366 . S
C604 C605 1.392 . S
C604 H632 0.930 . S
C605 C604 1.392 . S
C605 C606 1.398 . S
C605 H633 0.929 . S
C606 C605 1.398 . S
C606 C607 1.352 . S
C607 C606 1.352 . S
C607 C608 1.381 1_565 S
C607 H634 0.929 . S
C608 C603 1.405 1_545 S
C608 C607 1.381 1_545 S
C608 H635 0.934 . S
C609 O622 1.241 . S
C609 O623 1.273 . S
C610 O624 1.251 . S
C610 O625 1.268 . S
C611 Nd601 2.836 . S
C611 C612 1.498 . S
C611 O626 1.258 . S
C611 O627 1.239 . S
C612 C611 1.498 . S
C612 C613 1.366 . S
C612 C617 1.407 . S
C613 C612 1.366 . S
C613 C614 1.392 . S
C613 H636 0.930 . S
C614 C613 1.392 . S
C614 C615 1.398 . S
C614 H637 0.929 . S
C615 C614 1.398 . S
C615 C616 1.352 . S
C616 C615 1.352 . S
C616 C617 1.384 . S
C616 H638 0.930 . S
C617 C612 1.407 . S
C617 C616 1.384 . S
C617 H639 0.929 . S
C618 O628 1.241 . S
C618 O629 1.273 . S
C619 O630 1.251 . S
C619 O631 1.268 . S
O620 Nd600 2.500 1_565 S
O620 C602 1.258 . S
O621 Nd600 2.492 . S
O621 C602 1.239 1_545 S
O622 Nd600 2.487 . S
O622 C609 1.241 . S
O623 Nd600 2.682 . S
O623 Nd601 2.414 . S
O623 C609 1.273 . S
O624 Nd600 2.410 . S
O624 C610 1.251 . S
O625 Nd601 2.424 . S
O625 C610 1.268 . S
O626 Nd601 2.500 . S
O626 C611 1.258 . S
O627 Nd601 2.492 . S
O627 C611 1.239 . S
O628 Nd601 2.487 1_565 S
O628 C618 1.241 . S
O629 Nd600 2.414 1_565 S
O629 Nd601 2.682 1_565 S
O629 C618 1.273 . S
O630 Nd601 2.410 . S
O630 C619 1.251 . S
O631 Nd600 2.424 . S
O631 C619 1.268 . S
H632 C604 0.930 . S
H633 C605 0.929 . S
H634 C607 0.929 . S
H635 C608 0.934 . S
H636 C613 0.930 . S
H637 C614 0.929 . S
H638 C616 0.930 . S
H639 C617 0.929 . S
H640 C648 0.929 . S
H641 C650 0.930 . S
H642 C652 0.930 . S
H643 C655 0.929 . S
H644 C658 0.930 . S
H645 C660 0.960 . S
H646 C660 0.960 . S
H647 C660 0.960 . S
C648 H640 0.929 . S
C648 C649 1.377 . S
C648 C650 1.384 . S
C649 C648 1.377 . S
C649 C655 1.390 . S
C650 H641 0.930 . S
C650 C648 1.384 . S
C650 C651 1.372 . S
C651 C650 1.372 . S
C651 C652 1.400 . S
C651 C656 1.490 . S
C652 H642 0.930 . S
C652 C651 1.400 . S
C652 C655 1.386 . S
H653 C669 0.930 . S
H654 C670 0.931 . S
C655 H643 0.929 . S
C655 C649 1.390 . S
C655 C652 1.386 . S
C656 C651 1.490 . S
C656 C658 1.395 . S
C656 C659 1.403 . S
H657 C663 0.930 . S
C658 H644 0.930 . S
C658 C656 1.395 . S
C658 C661 1.403 . S
C659 C656 1.403 . S
C659 C660 1.524 . S
C659 C663 1.400 . S
C660 H645 0.960 . S
C660 H646 0.960 . S
C660 H647 0.960 . S
C660 C659 1.524 . S
C661 C658 1.403 . S
C661 C662 1.392 . S
C661 C665 1.495 . S
C662 C661 1.392 . S
C662 C663 1.385 . S
C662 C664 1.478 . S
C663 H657 0.930 . S
C663 C659 1.400 . S
C663 C662 1.385 . S
C664 C662 1.478 . S
C664 C666 1.381 . S
C664 C670 1.383 . S
C665 C661 1.495 . S
C665 H671 0.959 . S
C665 H672 0.961 . S
C665 H673 0.960 . S
C666 C664 1.381 . S
C666 C667 1.394 . S
C666 H674 0.930 . S
C667 C666 1.394 . S
C667 C668 1.383 . S
C667 H675 0.929 . S
C668 C667 1.383 . S
C668 C669 1.377 . S
C669 H653 0.930 . S
C669 C668 1.377 . S
C669 C670 1.379 . S
C670 H654 0.931 . S
C670 C664 1.383 . S
C670 C669 1.379 . S
H671 C665 0.959 . S
H672 C665 0.961 . S
H673 C665 0.960 . S
H674 C666 0.930 . S
H675 C667 0.929 . S
H676 C684 0.929 . S
H677 C686 0.930 . S
H678 C688 0.930 . S
H679 C691 0.929 . S
H680 C694 0.930 . S
H681 C696 0.960 . S
H682 C696 0.960 . S
H683 C696 0.960 . S
C684 H676 0.929 . S
C684 C685 1.377 . S
C684 C686 1.384 . S
C685 C684 1.377 . S
C685 C691 1.390 . S
C686 H677 0.930 . S
C686 C684 1.384 . S
C686 C687 1.372 . S
C687 C686 1.372 . S
C687 C688 1.400 . S
C687 C692 1.490 . S
C688 H678 0.930 . S
C688 C687 1.400 . S
C688 C691 1.386 . S
H689 C705 0.930 . S
H690 C706 0.931 . S
C691 H679 0.929 . S
C691 C685 1.390 . S
C691 C688 1.386 . S
C692 C687 1.490 . S
C692 C694 1.395 . S
C692 C695 1.403 . S
H693 C699 0.930 . S
C694 H680 0.930 . S
C694 C692 1.395 . S
C694 C697 1.403 . S
C695 C692 1.403 . S
C695 C696 1.524 . S
C695 C699 1.400 . S
C696 H681 0.960 . S
C696 H682 0.960 . S
C696 H683 0.960 . S
C696 C695 1.524 . S
C697 C694 1.403 . S
C697 C698 1.392 . S
C697 C701 1.495 . S
C698 C697 1.392 . S
C698 C699 1.385 . S
C698 C700 1.478 . S
C699 H693 0.930 . S
C699 C695 1.400 . S
C699 C698 1.385 . S
C700 C698 1.478 . S
C700 C702 1.381 . S
C700 C706 1.383 . S
C701 C697 1.495 . S
C701 H707 0.959 . S
C701 H708 0.961 . S
C701 H709 0.960 . S
C702 C700 1.381 . S
C702 C703 1.394 . S
C702 H710 0.930 . S
C703 C702 1.394 . S
C703 C704 1.383 . S
C703 H711 0.929 . S
C704 C703 1.383 . S
C704 C705 1.377 . S
C705 H689 0.930 . S
C705 C704 1.377 . S
C705 C706 1.379 . S
C706 H690 0.931 . S
C706 C700 1.383 . S
C706 C705 1.379 . S
H707 C701 0.959 . S
H708 C701 0.961 . S
H709 C701 0.960 . S
H710 C702 0.930 . S
H711 C703 0.929 . S
H712 C720 0.929 . S
H713 C722 0.930 . S
H714 C724 0.930 . S
H715 C727 0.929 . S
H716 C730 0.930 . S
H717 C732 0.960 . S
H718 C732 0.960 . S
H719 C732 0.960 . S
C720 H712 0.929 . S
C720 C721 1.377 . S
C720 C722 1.384 . S
C721 C720 1.377 . S
C721 C727 1.390 . S
C722 H713 0.930 . S
C722 C720 1.384 . S
C722 C723 1.372 . S
C723 C722 1.372 . S
C723 C724 1.400 . S
C723 C728 1.490 . S
C724 H714 0.930 . S
C724 C723 1.400 . S
C724 C727 1.386 . S
H725 C741 0.930 . S
H726 C742 0.931 . S
C727 H715 0.929 . S
C727 C721 1.390 . S
C727 C724 1.386 . S
C728 C723 1.490 . S
C728 C730 1.395 . S
C728 C731 1.403 1_455 S
H729 C735 0.930 . S
C730 H716 0.930 . S
C730 C728 1.395 . S
C730 C733 1.403 . S
C731 C728 1.403 1_655 S
C731 C732 1.524 . S
C731 C735 1.400 . S
C732 H717 0.960 . S
C732 H718 0.960 . S
C732 H719 0.960 . S
C732 C731 1.524 . S
C733 C730 1.403 . S
C733 C734 1.392 1_455 S
C733 C737 1.495 . S
C734 C733 1.392 1_655 S
C734 C735 1.385 . S
C734 C736 1.478 . S
C735 H729 0.930 . S
C735 C731 1.400 . S
C735 C734 1.385 . S
C736 C734 1.478 . S
C736 C738 1.381 . S
C736 C742 1.383 . S
C737 C733 1.495 . S
C737 H743 0.959 . S
C737 H744 0.961 . S
C737 H745 0.960 . S
C738 C736 1.381 . S
C738 C739 1.394 . S
C738 H746 0.930 . S
C739 C738 1.394 . S
C739 C740 1.383 . S
C739 H747 0.929 . S
C740 C739 1.383 . S
C740 C741 1.377 . S
C741 H725 0.930 . S
C741 C740 1.377 . S
C741 C742 1.379 . S
C742 H726 0.931 . S
C742 C736 1.383 . S
C742 C741 1.379 . S
H743 C737 0.959 . S
H744 C737 0.961 . S
H745 C737 0.960 . S
H746 C738 0.930 . S
H747 C739 0.929 . S
H748 C756 0.929 . S
H749 C758 0.930 . S
H750 C760 0.930 . S
H751 C763 0.929 . S
H752 C766 0.930 . S
H753 C768 0.960 . S
H754 C768 0.960 . S
H755 C768 0.960 . S
C756 H748 0.929 . S
C756 C757 1.377 . S
C756 C758 1.384 . S
C757 C756 1.377 . S
C757 C763 1.390 . S
C758 H749 0.930 . S
C758 C756 1.384 . S
C758 C759 1.372 . S
C759 C758 1.372 . S
C759 C760 1.400 . S
C759 C764 1.490 . S
C760 H750 0.930 . S
C760 C759 1.400 . S
C760 C763 1.386 . S
H761 C777 0.930 . S
H762 C778 0.931 . S
C763 H751 0.929 . S
C763 C757 1.390 . S
C763 C760 1.386 . S
C764 C759 1.490 . S
C764 C766 1.395 1_455 S
C764 C767 1.403 . S
H765 C771 0.930 . S
C766 H752 0.930 . S
C766 C764 1.395 1_655 S
C766 C769 1.403 . S
C767 C764 1.403 . S
C767 C768 1.524 . S
C767 C771 1.400 . S
C768 H753 0.960 . S
C768 H754 0.960 . S
C768 H755 0.960 . S
C768 C767 1.524 . S
C769 C766 1.403 . S
C769 C770 1.392 . S
C769 C773 1.495 . S
C770 C769 1.392 . S
C770 C771 1.385 1_655 S
C770 C772 1.478 . S
C771 H765 0.930 . S
C771 C767 1.400 . S
C771 C770 1.385 1_455 S
C772 C770 1.478 . S
C772 C774 1.381 . S
C772 C778 1.383 . S
C773 C769 1.495 . S
C773 H779 0.959 . S
C773 H780 0.961 . S
C773 H781 0.960 . S
C774 C772 1.381 . S
C774 C775 1.394 . S
C774 H782 0.930 . S
C775 C774 1.394 . S
C775 C776 1.383 . S
C775 H783 0.929 . S
C776 C775 1.383 . S
C776 C777 1.377 . S
C777 H761 0.930 . S
C777 C776 1.377 . S
C777 C778 1.379 . S
C778 H762 0.931 . S
C778 C772 1.383 . S
C778 C777 1.379 . S
H779 C773 0.959 . S
H780 C773 0.961 . S
H781 C773 0.960 . S
H782 C774 0.930 . S
H783 C775 0.929 . S
H784 C792 0.929 . S
H785 C794 0.930 . S
H786 C796 0.930 . S
H787 C799 0.929 . S
H788 C802 0.930 . S
H789 C804 0.960 . S
H790 C804 0.960 . S
H791 C804 0.960 . S
C792 H784 0.929 . S
C792 C793 1.377 . S
C792 C794 1.384 . S
C793 C792 1.377 . S
C793 C799 1.390 . S
C794 H785 0.930 . S
C794 C792 1.384 . S
C794 C795 1.372 . S
C795 C794 1.372 . S
C795 C796 1.400 . S
C795 C800 1.490 . S
C796 H786 0.930 . S
C796 C795 1.400 . S
C796 C799 1.386 . S
H797 C813 0.930 . S
H798 C814 0.931 . S
C799 H787 0.929 . S
C799 C793 1.390 . S
C799 C796 1.386 . S
C800 C795 1.490 . S
C800 C802 1.395 . S
C800 C803 1.403 . S
H801 C807 0.930 . S
C802 H788 0.930 . S
C802 C800 1.395 . S
C802 C805 1.403 . S
C803 C800 1.403 . S
C803 C804 1.524 . S
C803 C807 1.400 . S
C804 H789 0.960 . S
C804 H790 0.960 . S
C804 H791 0.960 . S
C804 C803 1.524 . S
C805 C802 1.403 . S
C805 C806 1.392 . S
C805 C809 1.495 . S
C806 C805 1.392 . S
C806 C807 1.385 . S
C806 C808 1.478 . S
C807 H801 0.930 . S
C807 C803 1.400 . S
C807 C806 1.385 . S
C808 C806 1.478 . S
C808 C810 1.381 . S
C808 C814 1.383 . S
C809 C805 1.495 . S
C809 H815 0.959 . S
C809 H816 0.961 . S
C809 H817 0.960 . S
C810 C808 1.381 . S
C810 C811 1.394 . S
C810 H818 0.930 . S
C811 C810 1.394 . S
C811 C812 1.383 . S
C811 H819 0.929 . S
C812 C811 1.383 . S
C812 C813 1.377 . S
C813 H797 0.930 . S
C813 C812 1.377 . S
C813 C814 1.379 . S
C814 H798 0.931 . S
C814 C808 1.383 . S
C814 C813 1.379 . S
H815 C809 0.959 . S
H816 C809 0.961 . S
H817 C809 0.960 . S
H818 C810 0.930 . S
H819 C811 0.929 . S
H820 C828 0.929 . S
H821 C830 0.930 . S
H822 C832 0.930 . S
H823 C835 0.929 . S
H824 C838 0.930 . S
H825 C840 0.960 . S
H826 C840 0.960 . S
H827 C840 0.960 . S
C828 H820 0.929 . S
C828 C829 1.377 . S
C828 C830 1.384 . S
C829 C828 1.377 . S
C829 C835 1.390 . S
C830 H821 0.930 . S
C830 C828 1.384 . S
C830 C831 1.372 . S
C831 C830 1.372 . S
C831 C832 1.400 . S
C831 C836 1.490 . S
C832 H822 0.930 . S
C832 C831 1.400 . S
C832 C835 1.386 . S
H833 C849 0.930 . S
H834 C850 0.931 . S
C835 H823 0.929 . S
C835 C829 1.390 . S
C835 C832 1.386 . S
C836 C831 1.490 . S
C836 C838 1.395 . S
C836 C839 1.403 . S
H837 C843 0.930 . S
C838 H824 0.930 . S
C838 C836 1.395 . S
C838 C841 1.403 . S
C839 C836 1.403 . S
C839 C840 1.524 . S
C839 C843 1.400 . S
C840 H825 0.960 . S
C840 H826 0.960 . S
C840 H827 0.960 . S
C840 C839 1.524 . S
C841 C838 1.403 . S
C841 C842 1.392 . S
C841 C845 1.495 . S
C842 C841 1.392 . S
C842 C843 1.385 . S
C842 C844 1.478 . S
C843 H837 0.930 . S
C843 C839 1.400 . S
C843 C842 1.385 . S
C844 C842 1.478 . S
C844 C846 1.381 . S
C844 C850 1.383 . S
C845 C841 1.495 . S
C845 H851 0.959 . S
C845 H852 0.961 . S
C845 H853 0.960 . S
C846 C844 1.381 . S
C846 C847 1.394 . S
C846 H854 0.930 . S
C847 C846 1.394 . S
C847 C848 1.383 . S
C847 H855 0.929 . S
C848 C847 1.383 . S
C848 C849 1.377 . S
C849 H833 0.930 . S
C849 C848 1.377 . S
C849 C850 1.379 . S
C850 H834 0.931 . S
C850 C844 1.383 . S
C850 C849 1.379 . S
H851 C845 0.959 . S
H852 C845 0.961 . S
H853 C845 0.960 . S
H854 C846 0.930 . S
H855 C847 0.929 . S
H856 C864 0.929 . S
H857 C866 0.930 . S
H858 C868 0.930 . S
H859 C871 0.929 . S
H860 C874 0.930 . S
H861 C876 0.960 . S
H862 C876 0.960 . S
H863 C876 0.960 . S
C864 H856 0.929 . S
C864 C865 1.377 . S
C864 C866 1.384 . S
C865 C864 1.377 . S
C865 C871 1.390 . S
C866 H857 0.930 . S
C866 C864 1.384 . S
C866 C867 1.372 . S
C867 C866 1.372 . S
C867 C868 1.400 . S
C867 C872 1.490 . S
C868 H858 0.930 . S
C868 C867 1.400 . S
C868 C871 1.386 . S
H869 C885 0.930 . S
H870 C886 0.931 . S
C871 H859 0.929 . S
C871 C865 1.390 . S
C871 C868 1.386 . S
C872 C867 1.490 . S
C872 C874 1.395 . S
C872 C875 1.403 . S
H873 C879 0.930 . S
C874 H860 0.930 . S
C874 C872 1.395 . S
C874 C877 1.403 1_455 S
C875 C872 1.403 . S
C875 C876 1.524 . S
C875 C879 1.400 1_455 S
C876 H861 0.960 . S
C876 H862 0.960 . S
C876 H863 0.960 . S
C876 C875 1.524 . S
C877 C874 1.403 1_655 S
C877 C878 1.392 . S
C877 C881 1.495 . S
C878 C877 1.392 . S
C878 C879 1.385 . S
C878 C880 1.478 . S
C879 H873 0.930 . S
C879 C875 1.400 1_655 S
C879 C878 1.385 . S
C880 C878 1.478 . S
C880 C882 1.381 . S
C880 C886 1.383 . S
C881 C877 1.495 . S
C881 H887 0.959 . S
C881 H888 0.961 . S
C881 H889 0.960 . S
C882 C880 1.381 . S
C882 C883 1.394 . S
C882 H890 0.930 . S
C883 C882 1.394 . S
C883 C884 1.383 . S
C883 H891 0.929 . S
C884 C883 1.383 . S
C884 C885 1.377 . S
C885 H869 0.930 . S
C885 C884 1.377 . S
C885 C886 1.379 . S
C886 H870 0.931 . S
C886 C880 1.383 . S
C886 C885 1.379 . S
H887 C881 0.959 . S
H888 C881 0.961 . S
H889 C881 0.960 . S
H890 C882 0.930 . S
H891 C883 0.929 . S
H892 C900 0.929 . S
H893 C902 0.930 1_655 S
H894 C904 0.930 . S
H895 C907 0.929 . S
H896 C910 0.930 . S
H897 C912 0.960 . S
H898 C912 0.960 . S
H899 C912 0.960 . S
C900 H892 0.929 . S
C900 C901 1.377 . S
C900 C902 1.384 . S
C901 C900 1.377 . S
C901 C907 1.390 . S
C902 H893 0.930 1_455 S
C902 C900 1.384 . S
C902 C903 1.372 . S
C903 C902 1.372 . S
C903 C904 1.400 . S
C903 C908 1.490 . S
C904 H894 0.930 . S
C904 C903 1.400 . S
C904 C907 1.386 . S
H905 C921 0.930 . S
H906 C922 0.931 . S
C907 H895 0.929 . S
C907 C901 1.390 . S
C907 C904 1.386 . S
C908 C903 1.490 . S
C908 C910 1.395 1_455 S
C908 C911 1.403 . S
H909 C915 0.930 . S
C910 H896 0.930 . S
C910 C908 1.395 1_655 S
C910 C913 1.403 . S
C911 C908 1.403 . S
C911 C912 1.524 . S
C911 C915 1.400 1_455 S
C912 H897 0.960 . S
C912 H898 0.960 . S
C912 H899 0.960 . S
C912 C911 1.524 . S
C913 C910 1.403 . S
C913 C914 1.392 . S
C913 C917 1.495 . S
C914 C913 1.392 . S
C914 C915 1.385 . S
C914 C916 1.478 . S
C915 H909 0.930 . S
C915 C911 1.400 1_655 S
C915 C914 1.385 . S
C916 C914 1.478 . S
C916 C918 1.381 . S
C916 C922 1.383 . S
C917 C913 1.495 . S
C917 H923 0.959 . S
C917 H924 0.961 . S
C917 H925 0.960 . S
C918 C916 1.381 . S
C918 C919 1.394 . S
C918 H926 0.930 . S
C919 C918 1.394 . S
C919 C920 1.383 . S
C919 H927 0.929 . S
C920 C919 1.383 . S
C920 C921 1.377 . S
C921 H905 0.930 . S
C921 C920 1.377 . S
C921 C922 1.379 . S
C922 H906 0.931 . S
C922 C916 1.383 . S
C922 C921 1.379 . S
H923 C917 0.959 . S
H924 C917 0.961 . S
H925 C917 0.960 . S
H926 C918 0.930 . S
H927 C919 0.929 . S
H928 C936 0.924 1_565 S
H929 C938 0.919 1_565 S
H930 C940 0.930 . S
H931 C943 0.929 . S
H932 C946 0.930 . S
H933 C948 0.960 1_556 S
H934 C948 0.960 . S
H935 C948 0.960 . S
C936 H928 0.924 1_545 S
C936 C937 1.377 . S
C936 C938 1.390 . S
C937 C936 1.377 . S
C937 C943 1.390 . S
C938 H929 0.919 1_545 S
C938 C936 1.390 . S
C938 C939 1.377 . S
C939 C938 1.377 . S
C939 C940 1.400 . S
C939 C944 1.490 . S
C940 H930 0.930 . S
C940 C939 1.400 . S
C940 C943 1.386 . S
H941 C957 0.930 . S
H942 C958 0.931 1_545 S
C943 H931 0.929 . S
C943 C937 1.390 . S
C943 C940 1.386 . S
C944 C939 1.490 . S
C944 C946 1.395 1_545 S
C944 C947 1.403 . S
H945 C951 0.930 . S
C946 H932 0.930 . S
C946 C944 1.395 1_565 S
C946 C949 1.403 1_554 S
C947 C944 1.403 . S
C947 C948 1.524 . S
C947 C951 1.400 1_554 S
C948 H933 0.960 1_554 S
C948 H934 0.960 . S
C948 H935 0.960 . S
C948 C947 1.524 . S
C949 C946 1.403 1_556 S
C949 C950 1.392 . S
C949 C953 1.495 . S
C950 C949 1.392 . S
C950 C951 1.385 1_565 S
C950 C952 1.478 . S
C951 H945 0.930 . S
C951 C947 1.400 1_556 S
C951 C950 1.385 1_545 S
C952 C950 1.478 . S
C952 C954 1.381 . S
C952 C958 1.383 . S
C953 C949 1.495 . S
C953 H959 0.959 1_556 S
C953 H960 0.961 . S
C953 H961 0.960 . S
C954 C952 1.381 . S
C954 C955 1.394 . S
C954 H962 0.930 . S
C955 C954 1.394 . S
C955 C956 1.383 . S
C955 H963 0.929 . S
C956 C955 1.383 . S
C956 C957 1.377 . S
C957 H941 0.930 . S
C957 C956 1.377 . S
C957 C958 1.379 . S
C958 H942 0.931 1_565 S
C958 C952 1.383 . S
C958 C957 1.379 . S
H959 C953 0.959 1_554 S
H960 C953 0.961 . S
H961 C953 0.960 . S
H962 C954 0.930 . S
H963 C955 0.929 . S
H964 C972 0.929 . S
H965 C974 0.930 . S
H966 C976 0.930 . S
H967 C979 0.929 . S
H968 C982 0.930 . S
H969 C984 0.960 . S
H970 C984 0.960 . S
H971 C984 0.960 . S
C972 H964 0.929 . S
C972 C973 1.377 . S
C972 C974 1.384 . S
C973 C972 1.377 . S
C973 C979 1.390 . S
C974 H965 0.930 . S
C974 C972 1.384 . S
C974 C975 1.372 . S
C975 C974 1.372 . S
C975 C976 1.400 . S
C975 C980 1.490 . S
C976 H966 0.930 . S
C976 C975 1.400 . S
C976 C979 1.386 . S
H977 C993 0.930 . S
H978 C994 0.931 . S
C979 H967 0.929 . S
C979 C973 1.390 . S
C979 C976 1.386 . S
C980 C975 1.490 . S
C980 C982 1.395 . S
C980 C983 1.403 . S
H981 C987 0.930 . S
C982 H968 0.930 . S
C982 C980 1.395 . S
C982 C985 1.403 . S
C983 C980 1.403 . S
C983 C984 1.524 . S
C983 C987 1.400 . S
C984 H969 0.960 . S
C984 H970 0.960 . S
C984 H971 0.960 . S
C984 C983 1.524 . S
C985 C982 1.403 . S
C985 C986 1.392 . S
C985 C989 1.495 . S
C986 C985 1.392 . S
C986 C987 1.385 . S
C986 C988 1.478 . S
C987 H981 0.930 . S
C987 C983 1.400 . S
C987 C986 1.385 . S
C988 C986 1.478 . S
C988 C990 1.381 . S
C988 C994 1.383 . S
C989 C985 1.495 . S
C989 H995 0.959 . S
C989 H996 0.961 . S
C989 H997 0.960 . S
C990 C988 1.381 . S
C990 C991 1.394 . S
C990 H998 0.930 . S
C991 C990 1.394 . S
C991 C992 1.383 . S
C991 H999 0.929 . S
C992 C991 1.383 . S
C992 C993 1.377 . S
C993 H977 0.930 . S
C993 C992 1.377 . S
C993 C994 1.379 . S
C994 H978 0.931 . S
C994 C988 1.383 . S
C994 C993 1.379 . S
H995 C989 0.959 . S
H996 C989 0.961 . S
H997 C989 0.960 . S
H998 C990 0.930 . S
H999 C991 0.929 . S
H1000 C1008 0.929 . S
H1001 C1010 0.930 . S
H1002 C1012 0.930 1_545 S
H1003 C1015 0.929 . S
H1004 C1018 0.929 . S
H1005 C1020 0.960 . S
H1006 C1020 0.960 . S
H1007 C1020 0.960 . S
C1008 H1000 0.929 . S
C1008 C1009 1.377 . S
C1008 C1010 1.384 . S
C1009 C1008 1.377 . S
C1009 C1015 1.390 . S
C1010 H1001 0.930 . S
C1010 C1008 1.384 . S
C1010 C1011 1.372 . S
C1011 C1010 1.372 . S
C1011 C1012 1.400 . S
C1011 C1016 1.490 . S
C1012 H1002 0.930 1_565 S
C1012 C1011 1.400 . S
C1012 C1015 1.386 . S
H1013 C1029 0.930 . S
H1014 C1030 0.931 . S
C1015 H1003 0.929 . S
C1015 C1009 1.390 . S
C1015 C1012 1.386 . S
C1016 C1011 1.490 . S
C1016 C1018 1.390 1_465 S
C1016 C1019 1.403 . S
H1017 C1023 0.934 . S
C1018 H1004 0.929 . S
C1018 C1016 1.390 1_645 S
C1018 C1021 1.406 . S
C1019 C1016 1.403 . S
C1019 C1020 1.524 . S
C1019 C1023 1.405 . S
C1020 H1005 0.960 . S
C1020 H1006 0.960 . S
C1020 H1007 0.960 . S
C1020 C1019 1.524 . S
C1021 C1018 1.406 . S
C1021 C1022 1.392 . S
C1021 C1025 1.495 . S
C1022 C1021 1.392 . S
C1022 C1023 1.378 1_645 S
C1022 C1024 1.478 . S
C1023 H1017 0.934 . S
C1023 C1019 1.405 . S
C1023 C1022 1.378 1_465 S
C1024 C1022 1.478 . S
C1024 C1026 1.381 . S
C1024 C1030 1.383 . S
C1025 C1021 1.495 . S
C1025 H1031 0.959 . S
C1025 H1032 0.961 . S
C1025 H1033 0.960 . S
C1026 C1024 1.381 . S
C1026 C1027 1.394 . S
C1026 H1034 0.930 1_545 S
C1027 C1026 1.394 . S
C1027 C1028 1.383 . S
C1027 H1035 0.929 . S
C1028 C1027 1.383 . S
C1028 C1029 1.377 . S
C1029 H1013 0.930 . S
C1029 C1028 1.377 . S
C1029 C1030 1.379 . S
C1030 H1014 0.931 . S
C1030 C1024 1.383 . S
C1030 C1029 1.379 . S
H1031 C1025 0.959 . S
H1032 C1025 0.961 . S
H1033 C1025 0.960 . S
H1034 C1026 0.930 1_565 S
H1035 C1027 0.929 . S
H1036 C1044 0.929 . S
H1037 C1046 0.930 . S
H1038 C1048 0.930 . S
H1039 C1051 0.929 . S
H1040 C1054 0.930 . S
H1041 C1056 0.960 . S
H1042 C1056 0.960 . S
H1043 C1056 0.960 . S
C1044 H1036 0.929 . S
C1044 C1045 1.377 . S
C1044 C1046 1.384 . S
C1045 C1044 1.377 . S
C1045 C1051 1.390 . S
C1046 H1037 0.930 . S
C1046 C1044 1.384 . S
C1046 C1047 1.372 . S
C1047 C1046 1.372 . S
C1047 C1048 1.400 . S
C1047 C1052 1.490 . S
C1048 H1038 0.930 . S
C1048 C1047 1.400 . S
C1048 C1051 1.386 . S
H1049 C1065 0.930 . S
H1050 C1066 0.931 . S
C1051 H1039 0.929 . S
C1051 C1045 1.390 . S
C1051 C1048 1.386 . S
C1052 C1047 1.490 . S
C1052 C1054 1.395 . S
C1052 C1055 1.403 . S
H1053 C1059 0.930 . S
C1054 H1040 0.930 . S
C1054 C1052 1.395 . S
C1054 C1057 1.403 . S
C1055 C1052 1.403 . S
C1055 C1056 1.524 . S
C1055 C1059 1.400 . S
C1056 H1041 0.960 . S
C1056 H1042 0.960 . S
C1056 H1043 0.960 . S
C1056 C1055 1.524 . S
C1057 C1054 1.403 . S
C1057 C1058 1.392 . S
C1057 C1061 1.495 . S
C1058 C1057 1.392 . S
C1058 C1059 1.385 . S
C1058 C1060 1.478 . S
C1059 H1053 0.930 . S
C1059 C1055 1.400 . S
C1059 C1058 1.385 . S
C1060 C1058 1.478 . S
C1060 C1062 1.381 . S
C1060 C1066 1.383 . S
C1061 C1057 1.495 . S
C1061 H1067 0.959 . S
C1061 H1068 0.961 . S
C1061 H1069 0.960 . S
C1062 C1060 1.381 . S
C1062 C1063 1.394 . S
C1062 H1070 0.930 . S
C1063 C1062 1.394 . S
C1063 C1064 1.383 . S
C1063 H1071 0.929 . S
C1064 C1063 1.383 . S
C1064 C1065 1.377 . S
C1065 H1049 0.930 . S
C1065 C1064 1.377 . S
C1065 C1066 1.379 . S
C1066 H1050 0.931 . S
C1066 C1060 1.383 . S
C1066 C1065 1.379 . S
H1067 C1061 0.959 . S
H1068 C1061 0.961 . S
H1069 C1061 0.960 . S
H1070 C1062 0.930 . S
H1071 C1063 0.929 . S
H1072 C1080 0.929 . S
H1073 C1082 0.930 . S
H1074 C1084 0.930 . S
H1075 C1087 0.929 . S
H1076 C1090 0.930 . S
H1077 C1092 0.960 . S
H1078 C1092 0.960 . S
H1079 C1092 0.960 . S
C1080 H1072 0.929 . S
C1080 C1081 1.377 . S
C1080 C1082 1.384 . S
C1081 C1080 1.377 . S
C1081 C1087 1.390 . S
C1082 H1073 0.930 . S
C1082 C1080 1.384 . S
C1082 C1083 1.372 . S
C1083 C1082 1.372 . S
C1083 C1084 1.400 . S
C1083 C1088 1.490 . S
C1084 H1074 0.930 . S
C1084 C1083 1.400 . S
C1084 C1087 1.386 . S
H1085 C1101 0.930 . S
H1086 C1102 0.931 . S
C1087 H1075 0.929 . S
C1087 C1081 1.390 . S
C1087 C1084 1.386 . S
C1088 C1083 1.490 . S
C1088 C1090 1.395 . S
C1088 C1091 1.403 . S
H1089 C1095 0.930 . S
C1090 H1076 0.930 . S
C1090 C1088 1.395 . S
C1090 C1093 1.403 . S
C1091 C1088 1.403 . S
C1091 C1092 1.524 . S
C1091 C1095 1.400 . S
C1092 H1077 0.960 . S
C1092 H1078 0.960 . S
C1092 H1079 0.960 . S
C1092 C1091 1.524 . S
C1093 C1090 1.403 . S
C1093 C1094 1.392 . S
C1093 C1097 1.495 . S
C1094 C1093 1.392 . S
C1094 C1095 1.385 . S
C1094 C1096 1.478 . S
C1095 H1089 0.930 . S
C1095 C1091 1.400 . S
C1095 C1094 1.385 . S
C1096 C1094 1.478 . S
C1096 C1098 1.381 . S
C1096 C1102 1.383 . S
C1097 C1093 1.495 . S
C1097 H1103 0.959 . S
C1097 H1104 0.961 . S
C1097 H1105 0.960 . S
C1098 C1096 1.381 . S
C1098 C1099 1.394 . S
C1098 H1106 0.930 . S
C1099 C1098 1.394 . S
C1099 C1100 1.383 . S
C1099 H1107 0.929 . S
C1100 C1099 1.383 . S
C1100 C1101 1.377 . S
C1101 H1085 0.930 . S
C1101 C1100 1.377 . S
C1101 C1102 1.379 . S
C1102 H1086 0.931 . S
C1102 C1096 1.383 . S
C1102 C1101 1.379 . S
H1103 C1097 0.959 . S
H1104 C1097 0.961 . S
H1105 C1097 0.960 . S
H1106 C1098 0.930 . S
H1107 C1099 0.929 . S
H1108 C1116 0.929 . S
H1109 C1118 0.930 . S
H1110 C1120 0.930 . S
H1111 C1123 0.929 . S
H1112 C1126 0.930 . S
H1113 C1128 0.960 . S
H1114 C1128 0.960 . S
H1115 C1128 0.960 . S
C1116 H1108 0.929 . S
C1116 C1117 1.377 . S
C1116 C1118 1.384 . S
C1117 C1116 1.377 . S
C1117 C1123 1.390 . S
C1118 H1109 0.930 . S
C1118 C1116 1.384 . S
C1118 C1119 1.372 . S
C1119 C1118 1.372 . S
C1119 C1120 1.400 . S
C1119 C1124 1.490 . S
C1120 H1110 0.930 . S
C1120 C1119 1.400 . S
C1120 C1123 1.386 . S
H1121 C1137 0.930 . S
H1122 C1138 0.931 . S
C1123 H1111 0.929 . S
C1123 C1117 1.390 . S
C1123 C1120 1.386 . S
C1124 C1119 1.490 . S
C1124 C1126 1.395 . S
C1124 C1127 1.403 . S
H1125 C1131 0.930 . S
C1126 H1112 0.930 . S
C1126 C1124 1.395 . S
C1126 C1129 1.403 . S
C1127 C1124 1.403 . S
C1127 C1128 1.524 . S
C1127 C1131 1.400 . S
C1128 H1113 0.960 . S
C1128 H1114 0.960 . S
C1128 H1115 0.960 . S
C1128 C1127 1.524 . S
C1129 C1126 1.403 . S
C1129 C1130 1.392 . S
C1129 C1133 1.495 . S
C1130 C1129 1.392 . S
C1130 C1131 1.385 . S
C1130 C1132 1.478 . S
C1131 H1125 0.930 . S
C1131 C1127 1.400 . S
C1131 C1130 1.385 . S
C1132 C1130 1.478 . S
C1132 C1134 1.381 . S
C1132 C1138 1.383 . S
C1133 C1129 1.495 . S
C1133 H1139 0.959 . S
C1133 H1140 0.961 . S
C1133 H1141 0.960 . S
C1134 C1132 1.381 . S
C1134 C1135 1.394 . S
C1134 H1142 0.930 . S
C1135 C1134 1.394 . S
C1135 C1136 1.383 . S
C1135 H1143 0.929 . S
C1136 C1135 1.383 . S
C1136 C1137 1.377 . S
C1137 H1121 0.930 . S
C1137 C1136 1.377 . S
C1137 C1138 1.379 . S
C1138 H1122 0.931 . S
C1138 C1132 1.383 . S
C1138 C1137 1.379 . S
H1139 C1133 0.959 . S
H1140 C1133 0.961 . S
H1141 C1133 0.960 . S
H1142 C1134 0.930 . S
H1143 C1135 0.929 . S
H1144 C1152 0.929 . S
H1145 C1154 0.930 . S
H1146 C1156 0.930 . S
H1147 C1159 0.929 . S
H1148 C1162 0.930 . S
H1149 C1164 0.960 . S
H1150 C1164 0.960 . S
H1151 C1164 0.960 . S
C1152 H1144 0.929 . S
C1152 C1153 1.377 . S
C1152 C1154 1.384 . S
C1153 C1152 1.377 . S
C1153 C1159 1.390 . S
C1154 H1145 0.930 . S
C1154 C1152 1.384 . S
C1154 C1155 1.372 . S
C1155 C1154 1.372 . S
C1155 C1156 1.400 . S
C1155 C1160 1.490 . S
C1156 H1146 0.930 . S
C1156 C1155 1.400 . S
C1156 C1159 1.386 . S
H1157 C1173 0.930 . S
H1158 C1174 0.931 . S
C1159 H1147 0.929 . S
C1159 C1153 1.390 . S
C1159 C1156 1.386 . S
C1160 C1155 1.490 . S
C1160 C1162 1.395 1_455 S
C1160 C1163 1.403 . S
H1161 C1167 0.930 . S
C1162 H1148 0.930 . S
C1162 C1160 1.395 1_655 S
C1162 C1165 1.403 . S
C1163 C1160 1.403 . S
C1163 C1164 1.524 . S
C1163 C1167 1.400 . S
C1164 H1149 0.960 . S
C1164 H1150 0.960 . S
C1164 H1151 0.960 . S
C1164 C1163 1.524 . S
C1165 C1162 1.403 . S
C1165 C1166 1.392 . S
C1165 C1169 1.495 . S
C1166 C1165 1.392 . S
C1166 C1167 1.385 1_655 S
C1166 C1168 1.478 . S
C1167 H1161 0.930 . S
C1167 C1163 1.400 . S
C1167 C1166 1.385 1_455 S
C1168 C1166 1.478 . S
C1168 C1170 1.381 . S
C1168 C1174 1.383 . S
C1169 C1165 1.495 . S
C1169 H1175 0.959 . S
C1169 H1176 0.961 . S
C1169 H1177 0.960 . S
C1170 C1168 1.381 . S
C1170 C1171 1.394 . S
C1170 H1178 0.930 . S
C1171 C1170 1.394 . S
C1171 C1172 1.383 . S
C1171 H1179 0.929 . S
C1172 C1171 1.383 . S
C1172 C1173 1.377 . S
C1173 H1157 0.930 . S
C1173 C1172 1.377 . S
C1173 C1174 1.379 . S
C1174 H1158 0.931 . S
C1174 C1168 1.383 . S
C1174 C1173 1.379 . S
H1175 C1169 0.959 . S
H1176 C1169 0.961 . S
H1177 C1169 0.960 . S
H1178 C1170 0.930 . S
H1179 C1171 0.929 . S
H1180 C1188 0.929 . S
H1181 C1190 0.930 . S
H1182 C1192 0.930 . S
H1183 C1195 0.929 . S
H1184 C1198 0.930 . S
H1185 C1200 0.960 . S
H1186 C1200 0.960 . S
H1187 C1200 0.960 . S
C1188 H1180 0.929 . S
C1188 C1189 1.377 . S
C1188 C1190 1.384 . S
C1189 C1188 1.377 . S
C1189 C1195 1.390 . S
C1190 H1181 0.930 . S
C1190 C1188 1.384 . S
C1190 C1191 1.372 . S
C1191 C1190 1.372 . S
C1191 C1192 1.400 . S
C1191 C1196 1.490 . S
C1192 H1182 0.930 . S
C1192 C1191 1.400 . S
C1192 C1195 1.386 . S
H1193 C1209 0.930 . S
H1194 C1210 0.931 . S
C1195 H1183 0.929 . S
C1195 C1189 1.390 . S
C1195 C1192 1.386 . S
C1196 C1191 1.490 . S
C1196 C1198 1.395 1_554 S
C1196 C1199 1.403 . S
H1197 C1203 0.930 . S
C1198 H1184 0.930 . S
C1198 C1196 1.395 1_556 S
C1198 C1201 1.403 . S
C1199 C1196 1.403 . S
C1199 C1200 1.524 . S
C1199 C1203 1.400 . S
C1200 H1185 0.960 . S
C1200 H1186 0.960 . S
C1200 H1187 0.960 . S
C1200 C1199 1.524 . S
C1201 C1198 1.403 . S
C1201 C1202 1.392 . S
C1201 C1205 1.495 . S
C1202 C1201 1.392 . S
C1202 C1203 1.385 1_556 S
C1202 C1204 1.478 . S
C1203 H1197 0.930 . S
C1203 C1199 1.400 . S
C1203 C1202 1.385 1_554 S
C1204 C1202 1.478 . S
C1204 C1206 1.381 . S
C1204 C1210 1.383 . S
C1205 C1201 1.495 . S
C1205 H1211 0.959 . S
C1205 H1212 0.961 . S
C1205 H1213 0.960 . S
C1206 C1204 1.381 . S
C1206 C1207 1.394 . S
C1206 H1214 0.930 . S
C1207 C1206 1.394 . S
C1207 C1208 1.383 . S
C1207 H1215 0.929 . S
C1208 C1207 1.383 . S
C1208 C1209 1.377 . S
C1209 H1193 0.930 . S
C1209 C1208 1.377 . S
C1209 C1210 1.379 . S
C1210 H1194 0.931 . S
C1210 C1204 1.383 . S
C1210 C1209 1.379 . S
H1211 C1205 0.959 . S
H1212 C1205 0.961 . S
H1213 C1205 0.960 . S
H1214 C1206 0.930 . S
H1215 C1207 0.929 . S
H1216 C1224 0.929 . S
H1217 C1226 0.930 . S
H1218 C1228 0.930 . S
H1219 C1231 0.929 . S
H1220 C1234 0.930 . S
H1221 C1236 0.960 . S
H1222 C1236 0.960 . S
H1223 C1236 0.960 . S
C1224 H1216 0.929 . S
C1224 C1225 1.377 . S
C1224 C1226 1.384 . S
C1225 C1224 1.377 . S
C1225 C1231 1.390 . S
C1226 H1217 0.930 . S
C1226 C1224 1.384 . S
C1226 C1227 1.372 . S
C1227 C1226 1.372 . S
C1227 C1228 1.400 . S
C1227 C1232 1.490 . S
C1228 H1218 0.930 . S
C1228 C1227 1.400 . S
C1228 C1231 1.386 . S
H1229 C1245 0.930 . S
H1230 C1246 0.931 . S
C1231 H1219 0.929 . S
C1231 C1225 1.390 . S
C1231 C1228 1.386 . S
C1232 C1227 1.490 . S
C1232 C1234 1.395 . S
C1232 C1235 1.403 . S
H1233 C1239 0.930 . S
C1234 H1220 0.930 . S
C1234 C1232 1.395 . S
C1234 C1237 1.403 . S
C1235 C1232 1.403 . S
C1235 C1236 1.524 . S
C1235 C1239 1.400 . S
C1236 H1221 0.960 . S
C1236 H1222 0.960 . S
C1236 H1223 0.960 . S
C1236 C1235 1.524 . S
C1237 C1234 1.403 . S
C1237 C1238 1.392 . S
C1237 C1241 1.495 . S
C1238 C1237 1.392 . S
C1238 C1239 1.385 . S
C1238 C1240 1.478 . S
C1239 H1233 0.930 . S
C1239 C1235 1.400 . S
C1239 C1238 1.385 . S
C1240 C1238 1.478 . S
C1240 C1242 1.381 . S
C1240 C1246 1.383 . S
C1241 C1237 1.495 . S
C1241 H1247 0.959 . S
C1241 H1248 0.961 . S
C1241 H1249 0.960 . S
C1242 C1240 1.381 . S
C1242 C1243 1.394 . S
C1242 H1250 0.930 . S
C1243 C1242 1.394 . S
C1243 C1244 1.383 . S
C1243 H1251 0.929 . S
C1244 C1243 1.383 . S
C1244 C1245 1.377 . S
C1245 H1229 0.930 . S
C1245 C1244 1.377 . S
C1245 C1246 1.379 . S
C1246 H1230 0.931 . S
C1246 C1240 1.383 . S
C1246 C1245 1.379 . S
H1247 C1241 0.959 . S
H1248 C1241 0.961 . S
H1249 C1241 0.960 . S
H1250 C1242 0.930 . S
H1251 C1243 0.929 . S
H1252 C1260 0.929 . S
H1253 C1262 0.930 . S
H1254 C1264 0.930 . S
H1255 C1267 0.929 . S
H1256 C1270 0.930 . S
H1257 C1272 0.960 . S
H1258 C1272 0.960 . S
H1259 C1272 0.960 . S
C1260 H1252 0.929 . S
C1260 C1261 1.377 . S
C1260 C1262 1.384 . S
C1261 C1260 1.377 . S
C1261 C1267 1.390 . S
C1262 H1253 0.930 . S
C1262 C1260 1.384 . S
C1262 C1263 1.372 . S
C1263 C1262 1.372 . S
C1263 C1264 1.400 . S
C1263 C1268 1.490 . S
C1264 H1254 0.930 . S
C1264 C1263 1.400 . S
C1264 C1267 1.386 . S
H1265 C1281 0.930 . S
H1266 C1282 0.931 . S
C1267 H1255 0.929 . S
C1267 C1261 1.390 . S
C1267 C1264 1.386 . S
C1268 C1263 1.490 . S
C1268 C1270 1.395 . S
C1268 C1271 1.403 . S
H1269 C1275 0.930 . S
C1270 H1256 0.930 . S
C1270 C1268 1.395 . S
C1270 C1273 1.403 . S
C1271 C1268 1.403 . S
C1271 C1272 1.524 . S
C1271 C1275 1.400 . S
C1272 H1257 0.960 . S
C1272 H1258 0.960 . S
C1272 H1259 0.960 . S
C1272 C1271 1.524 . S
C1273 C1270 1.403 . S
C1273 C1274 1.392 . S
C1273 C1277 1.495 . S
C1274 C1273 1.392 . S
C1274 C1275 1.385 . S
C1274 C1276 1.478 . S
C1275 H1269 0.930 . S
C1275 C1271 1.400 . S
C1275 C1274 1.385 . S
C1276 C1274 1.478 . S
C1276 C1278 1.381 . S
C1276 C1282 1.383 . S
C1277 C1273 1.495 . S
C1277 H1283 0.959 . S
C1277 H1284 0.961 . S
C1277 H1285 0.960 . S
C1278 C1276 1.381 . S
C1278 C1279 1.394 . S
C1278 H1286 0.930 . S
C1279 C1278 1.394 . S
C1279 C1280 1.383 . S
C1279 H1287 0.929 . S
C1280 C1279 1.383 . S
C1280 C1281 1.377 . S
C1281 H1265 0.930 . S
C1281 C1280 1.377 . S
C1281 C1282 1.379 . S
C1282 H1266 0.931 . S
C1282 C1276 1.383 . S
C1282 C1281 1.379 . S
H1283 C1277 0.959 . S
H1284 C1277 0.961 . S
H1285 C1277 0.960 . S
H1286 C1278 0.930 . S
H1287 C1279 0.929 . S
H1288 C1296 0.929 . S
H1289 C1298 0.930 . S
H1290 C1300 0.930 . S
H1291 C1303 0.929 . S
H1292 C1306 0.930 . S
H1293 C1308 0.960 . S
H1294 C1308 0.960 . S
H1295 C1308 0.960 . S
C1296 H1288 0.929 . S
C1296 C1297 1.377 . S
C1296 C1298 1.384 . S
C1297 C1296 1.377 . S
C1297 C1303 1.390 . S
C1298 H1289 0.930 . S
C1298 C1296 1.384 . S
C1298 C1299 1.372 . S
C1299 C1298 1.372 . S
C1299 C1300 1.400 . S
C1299 C1304 1.490 . S
C1300 H1290 0.930 . S
C1300 C1299 1.400 . S
C1300 C1303 1.386 . S
H1301 C1317 0.930 . S
H1302 C1318 0.931 . S
C1303 H1291 0.929 . S
C1303 C1297 1.390 . S
C1303 C1300 1.386 . S
C1304 C1299 1.490 . S
C1304 C1306 1.395 . S
C1304 C1307 1.403 . S
H1305 C1311 0.930 . S
C1306 H1292 0.930 . S
C1306 C1304 1.395 . S
C1306 C1309 1.403 . S
C1307 C1304 1.403 . S
C1307 C1308 1.524 . S
C1307 C1311 1.400 . S
C1308 H1293 0.960 . S
C1308 H1294 0.960 . S
C1308 H1295 0.960 . S
C1308 C1307 1.524 . S
C1309 C1306 1.403 . S
C1309 C1310 1.392 . S
C1309 C1313 1.495 . S
C1310 C1309 1.392 . S
C1310 C1311 1.385 . S
C1310 C1312 1.478 . S
C1311 H1305 0.930 . S
C1311 C1307 1.400 . S
C1311 C1310 1.385 . S
C1312 C1310 1.478 . S
C1312 C1314 1.381 . S
C1312 C1318 1.383 . S
C1313 C1309 1.495 . S
C1313 H1319 0.959 . S
C1313 H1320 0.961 . S
C1313 H1321 0.960 . S
C1314 C1312 1.381 . S
C1314 C1315 1.394 . S
C1314 H1322 0.930 . S
C1315 C1314 1.394 . S
C1315 C1316 1.383 . S
C1315 H1323 0.929 . S
C1316 C1315 1.383 . S
C1316 C1317 1.377 . S
C1317 H1301 0.930 . S
C1317 C1316 1.377 . S
C1317 C1318 1.379 . S
C1318 H1302 0.931 . S
C1318 C1312 1.383 . S
C1318 C1317 1.379 . S
H1319 C1313 0.959 . S
H1320 C1313 0.961 . S
H1321 C1313 0.960 . S
H1322 C1314 0.930 . S
H1323 C1315 0.929 . S
H1324 C1332 0.929 . S
H1325 C1334 0.930 . S
H1326 C1336 0.930 . S
H1327 C1339 0.929 . S
H1328 C1342 0.930 . S
H1329 C1344 0.960 . S
H1330 C1344 0.960 . S
H1331 C1344 0.960 . S
C1332 H1324 0.929 . S
C1332 C1333 1.377 . S
C1332 C1334 1.384 . S
C1333 C1332 1.377 . S
C1333 C1339 1.390 . S
C1334 H1325 0.930 . S
C1334 C1332 1.384 . S
C1334 C1335 1.372 . S
C1335 C1334 1.372 . S
C1335 C1336 1.400 . S
C1335 C1340 1.490 . S
C1336 H1326 0.930 . S
C1336 C1335 1.400 . S
C1336 C1339 1.386 . S
H1337 C1353 0.930 . S
H1338 C1354 0.931 . S
C1339 H1327 0.929 . S
C1339 C1333 1.390 . S
C1339 C1336 1.386 . S
C1340 C1335 1.490 . S
C1340 C1342 1.395 . S
C1340 C1343 1.403 . S
H1341 C1347 0.930 . S
C1342 H1328 0.930 . S
C1342 C1340 1.395 . S
C1342 C1345 1.403 . S
C1343 C1340 1.403 . S
C1343 C1344 1.524 . S
C1343 C1347 1.400 . S
C1344 H1329 0.960 . S
C1344 H1330 0.960 . S
C1344 H1331 0.960 . S
C1344 C1343 1.524 . S
C1345 C1342 1.403 . S
C1345 C1346 1.392 . S
C1345 C1349 1.495 . S
C1346 C1345 1.392 . S
C1346 C1347 1.385 . S
C1346 C1348 1.478 . S
C1347 H1341 0.930 . S
C1347 C1343 1.400 . S
C1347 C1346 1.385 . S
C1348 C1346 1.478 . S
C1348 C1350 1.381 . S
C1348 C1354 1.383 . S
C1349 C1345 1.495 . S
C1349 H1355 0.959 . S
C1349 H1356 0.961 . S
C1349 H1357 0.960 . S
C1350 C1348 1.381 . S
C1350 C1351 1.394 . S
C1350 H1358 0.930 . S
C1351 C1350 1.394 . S
C1351 C1352 1.383 . S
C1351 H1359 0.929 . S
C1352 C1351 1.383 . S
C1352 C1353 1.377 . S
C1353 H1337 0.930 . S
C1353 C1352 1.377 . S
C1353 C1354 1.379 . S
C1354 H1338 0.931 . S
C1354 C1348 1.383 . S
C1354 C1353 1.379 . S
H1355 C1349 0.959 . S
H1356 C1349 0.961 . S
H1357 C1349 0.960 . S
H1358 C1350 0.930 . S
H1359 C1351 0.929 . S
H1360 C1368 0.929 . S
H1361 C1370 0.930 . S
H1362 C1372 0.930 . S
H1363 C1375 0.929 . S
H1364 C1378 0.930 . S
H1365 C1380 0.960 . S
H1366 C1380 0.960 . S
H1367 C1380 0.960 . S
C1368 H1360 0.929 . S
C1368 C1369 1.377 . S
C1368 C1370 1.384 . S
C1369 C1368 1.377 . S
C1369 C1375 1.390 . S
C1370 H1361 0.930 . S
C1370 C1368 1.384 . S
C1370 C1371 1.372 . S
C1371 C1370 1.372 . S
C1371 C1372 1.400 . S
C1371 C1376 1.490 . S
C1372 H1362 0.930 . S
C1372 C1371 1.400 . S
C1372 C1375 1.386 . S
H1373 C1389 0.930 . S
H1374 C1390 0.931 . S
C1375 H1363 0.929 . S
C1375 C1369 1.390 . S
C1375 C1372 1.386 . S
C1376 C1371 1.490 . S
C1376 C1378 1.395 . S
C1376 C1379 1.403 . S
H1377 C1383 0.930 . S
C1378 H1364 0.930 . S
C1378 C1376 1.395 . S
C1378 C1381 1.403 . S
C1379 C1376 1.403 . S
C1379 C1380 1.524 . S
C1379 C1383 1.400 . S
C1380 H1365 0.960 . S
C1380 H1366 0.960 . S
C1380 H1367 0.960 . S
C1380 C1379 1.524 . S
C1381 C1378 1.403 . S
C1381 C1382 1.392 . S
C1381 C1385 1.495 . S
C1382 C1381 1.392 . S
C1382 C1383 1.385 . S
C1382 C1384 1.478 . S
C1383 H1377 0.930 . S
C1383 C1379 1.400 . S
C1383 C1382 1.385 . S
C1384 C1382 1.478 . S
C1384 C1386 1.381 . S
C1384 C1390 1.383 . S
C1385 C1381 1.495 . S
C1385 H1391 0.959 . S
C1385 H1392 0.961 . S
C1385 H1393 0.960 . S
C1386 C1384 1.381 . S
C1386 C1387 1.394 . S
C1386 H1394 0.930 . S
C1387 C1386 1.394 . S
C1387 C1388 1.383 . S
C1387 H1395 0.929 . S
C1388 C1387 1.383 . S
C1388 C1389 1.377 . S
C1389 H1373 0.930 . S
C1389 C1388 1.377 . S
C1389 C1390 1.379 . S
C1390 H1374 0.931 . S
C1390 C1384 1.383 . S
C1390 C1389 1.379 . S
H1391 C1385 0.959 . S
H1392 C1385 0.961 . S
H1393 C1385 0.960 . S
H1394 C1386 0.930 . S
H1395 C1387 0.929 . S
H1396 C1404 0.929 . S
H1397 C1406 0.930 . S
H1398 C1408 0.930 . S
H1399 C1411 0.929 . S
H1400 C1414 0.930 . S
H1401 C1416 0.960 . S
H1402 C1416 0.960 . S
H1403 C1416 0.960 . S
C1404 H1396 0.929 . S
C1404 C1405 1.377 . S
C1404 C1406 1.384 . S
C1405 C1404 1.377 . S
C1405 C1411 1.390 . S
C1406 H1397 0.930 . S
C1406 C1404 1.384 . S
C1406 C1407 1.372 . S
C1407 C1406 1.372 . S
C1407 C1408 1.400 . S
C1407 C1412 1.490 . S
C1408 H1398 0.930 . S
C1408 C1407 1.400 . S
C1408 C1411 1.386 . S
H1409 C1425 0.930 . S
H1410 C1426 0.931 . S
C1411 H1399 0.929 . S
C1411 C1405 1.390 . S
C1411 C1408 1.386 . S
C1412 C1407 1.490 . S
C1412 C1414 1.395 . S
C1412 C1415 1.403 . S
H1413 C1419 0.930 . S
C1414 H1400 0.930 . S
C1414 C1412 1.395 . S
C1414 C1417 1.403 . S
C1415 C1412 1.403 . S
C1415 C1416 1.524 . S
C1415 C1419 1.400 . S
C1416 H1401 0.960 . S
C1416 H1402 0.960 . S
C1416 H1403 0.960 . S
C1416 C1415 1.524 . S
C1417 C1414 1.403 . S
C1417 C1418 1.392 . S
C1417 C1421 1.495 . S
C1418 C1417 1.392 . S
C1418 C1419 1.385 . S
C1418 C1420 1.478 . S
C1419 H1413 0.930 . S
C1419 C1415 1.400 . S
C1419 C1418 1.385 . S
C1420 C1418 1.478 . S
C1420 C1422 1.381 . S
C1420 C1426 1.383 . S
C1421 C1417 1.495 . S
C1421 H1427 0.959 . S
C1421 H1428 0.961 . S
C1421 H1429 0.960 . S
C1422 C1420 1.381 . S
C1422 C1423 1.394 . S
C1422 H1430 0.930 . S
C1423 C1422 1.394 . S
C1423 C1424 1.383 . S
C1423 H1431 0.929 . S
C1424 C1423 1.383 . S
C1424 C1425 1.377 . S
C1425 H1409 0.930 . S
C1425 C1424 1.377 . S
C1425 C1426 1.379 . S
C1426 H1410 0.931 . S
C1426 C1420 1.383 . S
C1426 C1425 1.379 . S
H1427 C1421 0.959 . S
H1428 C1421 0.961 . S
H1429 C1421 0.960 . S
H1430 C1422 0.930 . S
H1431 C1423 0.929 . S
H1432 C1440 0.929 . S
H1433 C1442 0.930 . S
H1434 C1444 0.930 . S
H1435 C1447 0.929 . S
H1436 C1450 0.930 . S
H1437 C1452 0.960 . S
H1438 C1452 0.960 . S
H1439 C1452 0.960 . S
C1440 H1432 0.929 . S
C1440 C1441 1.377 . S
C1440 C1442 1.384 . S
C1441 C1440 1.377 . S
C1441 C1447 1.390 . S
C1442 H1433 0.930 . S
C1442 C1440 1.384 . S
C1442 C1443 1.372 . S
C1443 C1442 1.372 . S
C1443 C1444 1.400 . S
C1443 C1448 1.490 . S
C1444 H1434 0.930 . S
C1444 C1443 1.400 . S
C1444 C1447 1.386 . S
H1445 C1461 0.930 . S
H1446 C1462 0.931 . S
C1447 H1435 0.929 . S
C1447 C1441 1.390 . S
C1447 C1444 1.386 . S
C1448 C1443 1.490 . S
C1448 C1450 1.395 . S
C1448 C1451 1.403 . S
H1449 C1455 0.930 . S
C1450 H1436 0.930 . S
C1450 C1448 1.395 . S
C1450 C1453 1.403 . S
C1451 C1448 1.403 . S
C1451 C1452 1.524 . S
C1451 C1455 1.400 . S
C1452 H1437 0.960 . S
C1452 H1438 0.960 . S
C1452 H1439 0.960 . S
C1452 C1451 1.524 . S
C1453 C1450 1.403 . S
C1453 C1454 1.392 . S
C1453 C1457 1.495 . S
C1454 C1453 1.392 . S
C1454 C1455 1.385 . S
C1454 C1456 1.478 . S
C1455 H1449 0.930 . S
C1455 C1451 1.400 . S
C1455 C1454 1.385 . S
C1456 C1454 1.478 . S
C1456 C1458 1.381 . S
C1456 C1462 1.383 . S
C1457 C1453 1.495 . S
C1457 H1463 0.959 . S
C1457 H1464 0.961 . S
C1457 H1465 0.960 . S
C1458 C1456 1.381 . S
C1458 C1459 1.394 . S
C1458 H1466 0.930 . S
C1459 C1458 1.394 . S
C1459 C1460 1.383 . S
C1459 H1467 0.929 . S
C1460 C1459 1.383 . S
C1460 C1461 1.377 . S
C1461 H1445 0.930 . S
C1461 C1460 1.377 . S
C1461 C1462 1.379 . S
C1462 H1446 0.931 . S
C1462 C1456 1.383 . S
C1462 C1461 1.379 . S
H1463 C1457 0.959 . S
H1464 C1457 0.961 . S
H1465 C1457 0.960 . S
H1466 C1458 0.930 . S
H1467 C1459 0.929 . S
H1468 C1476 0.929 . S
H1469 C1478 0.930 . S
H1470 C1480 0.930 . S
H1471 C1483 0.929 . S
H1472 C1486 0.930 . S
H1473 C1488 0.960 . S
H1474 C1488 0.960 . S
H1475 C1488 0.960 . S
C1476 H1468 0.929 . S
C1476 C1477 1.377 . S
C1476 C1478 1.384 . S
C1477 C1476 1.377 . S
C1477 C1483 1.390 . S
C1478 H1469 0.930 . S
C1478 C1476 1.384 . S
C1478 C1479 1.372 . S
C1479 C1478 1.372 . S
C1479 C1480 1.400 . S
C1479 C1484 1.490 . S
C1480 H1470 0.930 . S
C1480 C1479 1.400 . S
C1480 C1483 1.386 . S
H1481 C1497 0.930 . S
H1482 C1498 0.931 . S
C1483 H1471 0.929 . S
C1483 C1477 1.390 . S
C1483 C1480 1.386 . S
C1484 C1479 1.490 . S
C1484 C1486 1.395 . S
C1484 C1487 1.403 . S
H1485 C1491 0.930 . S
C1486 H1472 0.930 . S
C1486 C1484 1.395 . S
C1486 C1489 1.403 . S
C1487 C1484 1.403 . S
C1487 C1488 1.524 . S
C1487 C1491 1.400 . S
C1488 H1473 0.960 . S
C1488 H1474 0.960 . S
C1488 H1475 0.960 . S
C1488 C1487 1.524 . S
C1489 C1486 1.403 . S
C1489 C1490 1.392 . S
C1489 C1493 1.495 . S
C1490 C1489 1.392 . S
C1490 C1491 1.385 . S
C1490 C1492 1.478 . S
C1491 H1485 0.930 . S
C1491 C1487 1.400 . S
C1491 C1490 1.385 . S
C1492 C1490 1.478 . S
C1492 C1494 1.381 . S
C1492 C1498 1.383 . S
C1493 C1489 1.495 . S
C1493 H1499 0.959 . S
C1493 H1500 0.961 . S
C1493 H1501 0.960 . S
C1494 C1492 1.381 . S
C1494 C1495 1.394 . S
C1494 H1502 0.930 . S
C1495 C1494 1.394 . S
C1495 C1496 1.383 . S
C1495 H1503 0.929 . S
C1496 C1495 1.383 . S
C1496 C1497 1.377 . S
C1497 H1481 0.930 . S
C1497 C1496 1.377 . S
C1497 C1498 1.379 . S
C1498 H1482 0.931 . S
C1498 C1492 1.383 . S
C1498 C1497 1.379 . S
H1499 C1493 0.959 . S
H1500 C1493 0.961 . S
H1501 C1493 0.960 . S
H1502 C1494 0.930 . S
H1503 C1495 0.929 . S
H1504 C1512 0.929 . S
H1505 C1514 0.930 . S
H1506 C1516 0.930 . S
H1507 C1519 0.929 . S
H1508 C1522 0.930 . S
H1509 C1524 0.960 . S
H1510 C1524 0.960 . S
H1511 C1524 0.960 . S
C1512 H1504 0.929 . S
C1512 C1513 1.377 . S
C1512 C1514 1.384 . S
C1513 C1512 1.377 . S
C1513 C1519 1.390 . S
C1514 H1505 0.930 . S
C1514 C1512 1.384 . S
C1514 C1515 1.372 . S
C1515 C1514 1.372 . S
C1515 C1516 1.400 . S
C1515 C1520 1.490 . S
C1516 H1506 0.930 . S
C1516 C1515 1.400 . S
C1516 C1519 1.386 . S
H1517 C1533 0.930 . S
H1518 C1534 0.931 . S
C1519 H1507 0.929 . S
C1519 C1513 1.390 . S
C1519 C1516 1.386 . S
C1520 C1515 1.490 . S
C1520 C1522 1.395 . S
C1520 C1523 1.403 . S
H1521 C1527 0.930 . S
C1522 H1508 0.930 . S
C1522 C1520 1.395 . S
C1522 C1525 1.403 . S
C1523 C1520 1.403 . S
C1523 C1524 1.524 . S
C1523 C1527 1.400 . S
C1524 H1509 0.960 . S
C1524 H1510 0.960 . S
C1524 H1511 0.960 . S
C1524 C1523 1.524 . S
C1525 C1522 1.403 . S
C1525 C1526 1.392 . S
C1525 C1529 1.495 . S
C1526 C1525 1.392 . S
C1526 C1527 1.385 . S
C1526 C1528 1.478 . S
C1527 H1521 0.930 . S
C1527 C1523 1.400 . S
C1527 C1526 1.385 . S
C1528 C1526 1.478 . S
C1528 C1530 1.381 . S
C1528 C1534 1.383 . S
C1529 C1525 1.495 . S
C1529 H1535 0.959 . S
C1529 H1536 0.961 . S
C1529 H1537 0.960 . S
C1530 C1528 1.381 . S
C1530 C1531 1.394 . S
C1530 H1538 0.930 . S
C1531 C1530 1.394 . S
C1531 C1532 1.383 . S
C1531 H1539 0.929 . S
C1532 C1531 1.383 . S
C1532 C1533 1.377 . S
C1533 H1517 0.930 . S
C1533 C1532 1.377 . S
C1533 C1534 1.379 . S
C1534 H1518 0.931 . S
C1534 C1528 1.383 . S
C1534 C1533 1.379 . S
H1535 C1529 0.959 . S
H1536 C1529 0.961 . S
H1537 C1529 0.960 . S
H1538 C1530 0.930 . S
H1539 C1531 0.929 . S
H1540 C1548 0.929 . S
H1541 C1550 0.930 . S
H1542 C1552 0.930 1_545 S
H1543 C1555 0.929 . S
H1544 C1558 0.930 . S
H1545 C1560 0.960 1_545 S
H1546 C1560 0.960 . S
H1547 C1560 0.960 1_545 S
C1548 H1540 0.929 . S
C1548 C1549 1.377 . S
C1548 C1550 1.384 . S
C1549 C1548 1.377 . S
C1549 C1555 1.390 . S
C1550 H1541 0.930 . S
C1550 C1548 1.384 . S
C1550 C1551 1.372 . S
C1551 C1550 1.372 . S
C1551 C1552 1.400 . S
C1551 C1556 1.490 . S
C1552 H1542 0.930 1_565 S
C1552 C1551 1.400 . S
C1552 C1555 1.386 . S
H1553 C1569 0.930 . S
H1554 C1570 0.931 . S
C1555 H1543 0.929 . S
C1555 C1549 1.390 . S
C1555 C1552 1.386 . S
C1556 C1551 1.490 . S
C1556 C1558 1.395 . S
C1556 C1559 1.403 . S
H1557 C1563 0.930 1_545 S
C1558 H1544 0.930 . S
C1558 C1556 1.395 . S
C1558 C1561 1.403 . S
C1559 C1556 1.403 . S
C1559 C1560 1.524 . S
C1559 C1563 1.400 . S
C1560 H1545 0.960 1_565 S
C1560 H1546 0.960 . S
C1560 H1547 0.960 1_565 S
C1560 C1559 1.524 . S
C1561 C1558 1.403 . S
C1561 C1562 1.392 . S
C1561 C1565 1.495 . S
C1562 C1561 1.392 . S
C1562 C1563 1.385 . S
C1562 C1564 1.478 1_565 S
C1563 H1557 0.930 1_565 S
C1563 C1559 1.400 . S
C1563 C1562 1.385 . S
C1564 C1562 1.478 1_545 S
C1564 C1566 1.381 1_545 S
C1564 C1570 1.383 . S
C1565 C1561 1.495 . S
C1565 H1571 0.959 . S
C1565 H1572 0.961 . S
C1565 H1573 0.960 . S
C1566 C1564 1.381 1_565 S
C1566 C1567 1.394 1_655 S
C1566 H1574 0.930 . S
C1567 C1566 1.394 1_455 S
C1567 C1568 1.383 1_565 S
C1567 H1575 0.929 . S
C1568 C1567 1.383 1_545 S
C1568 C1569 1.377 . S
C1569 H1553 0.930 . S
C1569 C1568 1.377 . S
C1569 C1570 1.379 1_455 S
C1570 H1554 0.931 . S
C1570 C1564 1.383 . S
C1570 C1569 1.379 1_655 S
H1571 C1565 0.959 . S
H1572 C1565 0.961 . S
H1573 C1565 0.960 . S
H1574 C1566 0.930 . S
H1575 C1567 0.929 . S
H1576 C1584 0.929 . S
H1577 C1586 0.930 . S
H1578 C1588 0.930 . S
H1579 C1591 0.929 . S
H1580 C1594 0.930 . S
H1581 C1596 0.960 . S
H1582 C1596 0.960 . S
H1583 C1596 0.960 . S
C1584 H1576 0.929 . S
C1584 C1585 1.377 . S
C1584 C1586 1.384 . S
C1585 C1584 1.377 . S
C1585 C1591 1.390 . S
C1586 H1577 0.930 . S
C1586 C1584 1.384 . S
C1586 C1587 1.372 . S
C1587 C1586 1.372 . S
C1587 C1588 1.400 . S
C1587 C1592 1.490 . S
C1588 H1578 0.930 . S
C1588 C1587 1.400 . S
C1588 C1591 1.386 . S
H1589 C1605 0.930 . S
H1590 C1606 0.931 . S
C1591 H1579 0.929 . S
C1591 C1585 1.390 . S
C1591 C1588 1.386 . S
C1592 C1587 1.490 . S
C1592 C1594 1.395 . S
C1592 C1595 1.403 . S
H1593 C1599 0.930 . S
C1594 H1580 0.930 . S
C1594 C1592 1.395 . S
C1594 C1597 1.403 . S
C1595 C1592 1.403 . S
C1595 C1596 1.524 . S
C1595 C1599 1.400 . S
C1596 H1581 0.960 . S
C1596 H1582 0.960 . S
C1596 H1583 0.960 . S
C1596 C1595 1.524 . S
C1597 C1594 1.403 . S
C1597 C1598 1.392 . S
C1597 C1601 1.495 . S
C1598 C1597 1.392 . S
C1598 C1599 1.385 . S
C1598 C1600 1.478 . S
C1599 H1593 0.930 . S
C1599 C1595 1.400 . S
C1599 C1598 1.385 . S
C1600 C1598 1.478 . S
C1600 C1602 1.381 . S
C1600 C1606 1.383 . S
C1601 C1597 1.495 . S
C1601 H1607 0.959 . S
C1601 H1608 0.961 . S
C1601 H1609 0.960 . S
C1602 C1600 1.381 . S
C1602 C1603 1.394 . S
C1602 H1610 0.930 . S
C1603 C1602 1.394 . S
C1603 C1604 1.383 . S
C1603 H1611 0.929 . S
C1604 C1603 1.383 . S
C1604 C1605 1.377 . S
C1605 H1589 0.930 . S
C1605 C1604 1.377 . S
C1605 C1606 1.379 . S
C1606 H1590 0.931 . S
C1606 C1600 1.383 . S
C1606 C1605 1.379 . S
H1607 C1601 0.959 . S
H1608 C1601 0.961 . S
H1609 C1601 0.960 . S
H1610 C1602 0.930 . S
H1611 C1603 0.929 . S
H1612 C1620 0.929 . S
H1613 C1622 0.930 . S
H1614 C1624 0.930 . S
H1615 C1627 0.929 . S
H1616 C1630 0.930 . S
H1617 C1632 0.960 . S
H1618 C1632 0.960 . S
H1619 C1632 0.960 . S
C1620 H1612 0.929 . S
C1620 C1621 1.377 . S
C1620 C1622 1.384 . S
C1621 C1620 1.377 . S
C1621 C1627 1.390 . S
C1622 H1613 0.930 . S
C1622 C1620 1.384 . S
C1622 C1623 1.372 . S
C1623 C1622 1.372 . S
C1623 C1624 1.400 . S
C1623 C1628 1.490 . S
C1624 H1614 0.930 . S
C1624 C1623 1.400 . S
C1624 C1627 1.386 . S
H1625 C1641 0.930 . S
H1626 C1642 0.931 . S
C1627 H1615 0.929 . S
C1627 C1621 1.390 . S
C1627 C1624 1.386 . S
C1628 C1623 1.490 . S
C1628 C1630 1.395 . S
C1628 C1631 1.403 . S
H1629 C1635 0.930 . S
C1630 H1616 0.930 . S
C1630 C1628 1.395 . S
C1630 C1633 1.403 . S
C1631 C1628 1.403 . S
C1631 C1632 1.524 . S
C1631 C1635 1.400 . S
C1632 H1617 0.960 . S
C1632 H1618 0.960 . S
C1632 H1619 0.960 . S
C1632 C1631 1.524 . S
C1633 C1630 1.403 . S
C1633 C1634 1.392 . S
C1633 C1637 1.495 1_545 S
C1634 C1633 1.392 . S
C1634 C1635 1.385 . S
C1634 C1636 1.478 . S
C1635 H1629 0.930 . S
C1635 C1631 1.400 . S
C1635 C1634 1.385 . S
C1636 C1634 1.478 . S
C1636 C1638 1.381 . S
C1636 C1642 1.383 . S
C1637 C1633 1.495 1_565 S
C1637 H1643 0.959 . S
C1637 H1644 0.961 . S
C1637 H1645 0.960 . S
C1638 C1636 1.381 . S
C1638 C1639 1.394 . S
C1638 H1646 0.930 . S
C1639 C1638 1.394 . S
C1639 C1640 1.383 . S
C1639 H1647 0.929 . S
C1640 C1639 1.383 . S
C1640 C1641 1.377 . S
C1641 H1625 0.930 . S
C1641 C1640 1.377 . S
C1641 C1642 1.379 . S
C1642 H1626 0.931 . S
C1642 C1636 1.383 . S
C1642 C1641 1.379 . S
H1643 C1637 0.959 . S
H1644 C1637 0.961 . S
H1645 C1637 0.960 . S
H1646 C1638 0.930 . S
H1647 C1639 0.929 . S
H1648 C1656 0.929 . S
H1649 C1658 0.930 . S
H1650 C1660 0.930 . S
H1651 C1663 0.929 . S
H1652 C1666 0.930 . S
H1653 C1668 0.960 . S
H1654 C1668 0.960 . S
H1655 C1668 0.960 . S
C1656 H1648 0.929 . S
C1656 C1657 1.377 . S
C1656 C1658 1.384 . S
C1657 C1656 1.377 . S
C1657 C1663 1.390 . S
C1658 H1649 0.930 . S
C1658 C1656 1.384 . S
C1658 C1659 1.372 . S
C1659 C1658 1.372 . S
C1659 C1660 1.400 . S
C1659 C1664 1.490 . S
C1660 H1650 0.930 . S
C1660 C1659 1.400 . S
C1660 C1663 1.386 . S
H1661 C1677 0.930 . S
H1662 C1678 0.931 . S
C1663 H1651 0.929 . S
C1663 C1657 1.390 . S
C1663 C1660 1.386 . S
C1664 C1659 1.490 . S
C1664 C1666 1.395 . S
C1664 C1667 1.403 . S
H1665 C1671 0.930 . S
C1666 H1652 0.930 . S
C1666 C1664 1.395 . S
C1666 C1669 1.403 . S
C1667 C1664 1.403 . S
C1667 C1668 1.524 . S
C1667 C1671 1.400 . S
C1668 H1653 0.960 . S
C1668 H1654 0.960 . S
C1668 H1655 0.960 . S
C1668 C1667 1.524 . S
C1669 C1666 1.403 . S
C1669 C1670 1.392 . S
C1669 C1673 1.495 . S
C1670 C1669 1.392 . S
C1670 C1671 1.385 . S
C1670 C1672 1.478 . S
C1671 H1665 0.930 . S
C1671 C1667 1.400 . S
C1671 C1670 1.385 . S
C1672 C1670 1.478 . S
C1672 C1674 1.381 . S
C1672 C1678 1.383 . S
C1673 C1669 1.495 . S
C1673 H1679 0.959 . S
C1673 H1680 0.961 . S
C1673 H1681 0.960 . S
C1674 C1672 1.381 . S
C1674 C1675 1.394 . S
C1674 H1682 0.930 . S
C1675 C1674 1.394 . S
C1675 C1676 1.383 . S
C1675 H1683 0.929 . S
C1676 C1675 1.383 . S
C1676 C1677 1.377 . S
C1677 H1661 0.930 . S
C1677 C1676 1.377 . S
C1677 C1678 1.379 . S
C1678 H1662 0.931 . S
C1678 C1672 1.383 . S
C1678 C1677 1.379 . S
H1679 C1673 0.959 . S
H1680 C1673 0.961 . S
H1681 C1673 0.960 . S
H1682 C1674 0.930 . S
H1683 C1675 0.929 . S
H1684 C1692 0.929 . S
H1685 C1694 0.930 . S
H1686 C1696 0.930 1_545 S
H1687 C1699 0.929 . S
H1688 C1702 0.930 . S
H1689 C1704 0.960 . S
H1690 C1704 0.960 . S
H1691 C1704 0.960 . S
C1692 H1684 0.929 . S
C1692 C1693 1.377 . S
C1692 C1694 1.384 1_655 S
C1693 C1692 1.377 . S
C1693 C1699 1.390 . S
C1694 H1685 0.930 . S
C1694 C1692 1.384 1_455 S
C1694 C1695 1.372 . S
C1695 C1694 1.372 . S
C1695 C1696 1.400 . S
C1695 C1700 1.490 1_565 S
C1696 H1686 0.930 1_565 S
C1696 C1695 1.400 . S
C1696 C1699 1.386 1_455 S
H1697 C1713 0.930 . S
H1698 C1714 0.931 . S
C1699 H1687 0.929 . S
C1699 C1693 1.390 . S
C1699 C1696 1.386 1_655 S
C1700 C1695 1.490 1_545 S
C1700 C1702 1.395 1_545 S
C1700 C1703 1.403 . S
H1701 C1707 0.930 . S
C1702 H1688 0.930 . S
C1702 C1700 1.395 1_565 S
C1702 C1705 1.403 . S
C1703 C1700 1.403 . S
C1703 C1704 1.524 . S
C1703 C1707 1.400 . S
C1704 H1689 0.960 . S
C1704 H1690 0.960 . S
C1704 H1691 0.960 . S
C1704 C1703 1.524 . S
C1705 C1702 1.403 . S
C1705 C1706 1.392 1_565 S
C1705 C1709 1.495 . S
C1706 C1705 1.392 1_545 S
C1706 C1707 1.385 . S
C1706 C1708 1.478 . S
C1707 H1701 0.930 . S
C1707 C1703 1.400 . S
C1707 C1706 1.385 . S
C1708 C1706 1.478 . S
C1708 C1710 1.381 . S
C1708 C1714 1.383 . S
C1709 C1705 1.495 . S
C1709 H1715 0.959 . S
C1709 H1716 0.961 . S
C1709 H1717 0.960 . S
C1710 C1708 1.381 . S
C1710 C1711 1.394 . S
C1710 H1718 0.930 . S
C1711 C1710 1.394 . S
C1711 C1712 1.383 . S
C1711 H1719 0.929 . S
C1712 C1711 1.383 . S
C1712 C1713 1.377 . S
C1713 H1697 0.930 . S
C1713 C1712 1.377 . S
C1713 C1714 1.379 . S
C1714 H1698 0.931 . S
C1714 C1708 1.383 . S
C1714 C1713 1.379 . S
H1715 C1709 0.959 . S
H1716 C1709 0.961 . S
H1717 C1709 0.960 . S
H1718 C1710 0.930 . S
H1719 C1711 0.929 . S
H1720 C1728 0.929 . S
H1721 C1730 0.930 . S
H1722 C1732 0.930 . S
H1723 C1735 0.929 . S
H1724 C1738 0.930 . S
H1725 C1740 0.960 . S
H1726 C1740 0.960 . S
H1727 C1740 0.960 . S
C1728 H1720 0.929 . S
C1728 C1729 1.377 . S
C1728 C1730 1.384 . S
C1729 C1728 1.377 . S
C1729 C1735 1.390 . S
C1730 H1721 0.930 . S
C1730 C1728 1.384 . S
C1730 C1731 1.372 . S
C1731 C1730 1.372 . S
C1731 C1732 1.400 . S
C1731 C1736 1.490 . S
C1732 H1722 0.930 . S
C1732 C1731 1.400 . S
C1732 C1735 1.386 . S
H1733 C1749 0.930 . S
H1734 C1750 0.931 . S
C1735 H1723 0.929 . S
C1735 C1729 1.390 . S
C1735 C1732 1.386 . S
C1736 C1731 1.490 . S
C1736 C1738 1.395 . S
C1736 C1739 1.403 . S
H1737 C1743 0.930 . S
C1738 H1724 0.930 . S
C1738 C1736 1.395 . S
C1738 C1741 1.403 . S
C1739 C1736 1.403 . S
C1739 C1740 1.524 . S
C1739 C1743 1.400 . S
C1740 H1725 0.960 . S
C1740 H1726 0.960 . S
C1740 H1727 0.960 . S
C1740 C1739 1.524 . S
C1741 C1738 1.403 . S
C1741 C1742 1.392 . S
C1741 C1745 1.495 . S
C1742 C1741 1.392 . S
C1742 C1743 1.385 . S
C1742 C1744 1.478 . S
C1743 H1737 0.930 . S
C1743 C1739 1.400 . S
C1743 C1742 1.385 . S
C1744 C1742 1.478 . S
C1744 C1746 1.381 . S
C1744 C1750 1.383 . S
C1745 C1741 1.495 . S
C1745 H1751 0.959 . S
C1745 H1752 0.961 . S
C1745 H1753 0.960 . S
C1746 C1744 1.381 . S
C1746 C1747 1.394 . S
C1746 H1754 0.930 . S
C1747 C1746 1.394 . S
C1747 C1748 1.383 . S
C1747 H1755 0.929 . S
C1748 C1747 1.383 . S
C1748 C1749 1.377 . S
C1749 H1733 0.930 . S
C1749 C1748 1.377 . S
C1749 C1750 1.379 . S
C1750 H1734 0.931 . S
C1750 C1744 1.383 . S
C1750 C1749 1.379 . S
H1751 C1745 0.959 . S
H1752 C1745 0.961 . S
H1753 C1745 0.960 . S
H1754 C1746 0.930 . S
H1755 C1747 0.929 . S
H1756 C1764 0.929 . S
H1757 C1766 0.930 . S
H1758 C1768 0.930 . S
H1759 C1771 0.929 . S
H1760 C1774 0.930 . S
H1761 C1776 0.960 . S
H1762 C1776 0.960 . S
H1763 C1776 0.960 . S
C1764 H1756 0.929 . S
C1764 C1765 1.377 . S
C1764 C1766 1.384 . S
C1765 C1764 1.377 . S
C1765 C1771 1.390 . S
C1766 H1757 0.930 . S
C1766 C1764 1.384 . S
C1766 C1767 1.372 . S
C1767 C1766 1.372 . S
C1767 C1768 1.400 . S
C1767 C1772 1.490 . S
C1768 H1758 0.930 . S
C1768 C1767 1.400 . S
C1768 C1771 1.386 . S
H1769 C1785 0.930 . S
H1770 C1786 0.931 . S
C1771 H1759 0.929 . S
C1771 C1765 1.390 . S
C1771 C1768 1.386 . S
C1772 C1767 1.490 . S
C1772 C1774 1.395 . S
C1772 C1775 1.403 . S
H1773 C1779 0.930 . S
C1774 H1760 0.930 . S
C1774 C1772 1.395 . S
C1774 C1777 1.403 . S
C1775 C1772 1.403 . S
C1775 C1776 1.524 . S
C1775 C1779 1.400 . S
C1776 H1761 0.960 . S
C1776 H1762 0.960 . S
C1776 H1763 0.960 . S
C1776 C1775 1.524 . S
C1777 C1774 1.403 . S
C1777 C1778 1.392 . S
C1777 C1781 1.495 . S
C1778 C1777 1.392 . S
C1778 C1779 1.385 . S
C1778 C1780 1.478 . S
C1779 H1773 0.930 . S
C1779 C1775 1.400 . S
C1779 C1778 1.385 . S
C1780 C1778 1.478 . S
C1780 C1782 1.381 . S
C1780 C1786 1.383 . S
C1781 C1777 1.495 . S
C1781 H1787 0.959 . S
C1781 H1788 0.961 . S
C1781 H1789 0.960 . S
C1782 C1780 1.381 . S
C1782 C1783 1.394 . S
C1782 H1790 0.930 . S
C1783 C1782 1.394 . S
C1783 C1784 1.383 . S
C1783 H1791 0.929 . S
C1784 C1783 1.383 . S
C1784 C1785 1.377 . S
C1785 H1769 0.930 . S
C1785 C1784 1.377 . S
C1785 C1786 1.379 . S
C1786 H1770 0.931 . S
C1786 C1780 1.383 . S
C1786 C1785 1.379 . S
H1787 C1781 0.959 . S
H1788 C1781 0.961 . S
H1789 C1781 0.960 . S
H1790 C1782 0.930 . S
H1791 C1783 0.929 . S
H1792 C1800 0.929 . S
H1793 C1802 0.930 . S
H1794 C1804 0.930 . S
H1795 C1807 0.929 . S
H1796 C1810 0.930 . S
H1797 C1812 0.960 . S
H1798 C1812 0.960 . S
H1799 C1812 0.960 . S
C1800 H1792 0.929 . S
C1800 C1801 1.377 . S
C1800 C1802 1.384 . S
C1801 C1800 1.377 . S
C1801 C1807 1.390 . S
C1802 H1793 0.930 . S
C1802 C1800 1.384 . S
C1802 C1803 1.372 . S
C1803 C1802 1.372 . S
C1803 C1804 1.400 . S
C1803 C1808 1.490 . S
C1804 H1794 0.930 . S
C1804 C1803 1.400 . S
C1804 C1807 1.386 . S
H1805 C1821 0.930 . S
H1806 C1822 0.931 . S
C1807 H1795 0.929 . S
C1807 C1801 1.390 . S
C1807 C1804 1.386 . S
C1808 C1803 1.490 . S
C1808 C1810 1.395 . S
C1808 C1811 1.403 . S
H1809 C1815 0.930 . S
C1810 H1796 0.930 . S
C1810 C1808 1.395 . S
C1810 C1813 1.403 . S
C1811 C1808 1.403 . S
C1811 C1812 1.524 . S
C1811 C1815 1.400 . S
C1812 H1797 0.960 . S
C1812 H1798 0.960 . S
C1812 H1799 0.960 . S
C1812 C1811 1.524 . S
C1813 C1810 1.403 . S
C1813 C1814 1.392 . S
C1813 C1817 1.495 . S
C1814 C1813 1.392 . S
C1814 C1815 1.385 . S
C1814 C1816 1.478 . S
C1815 H1809 0.930 . S
C1815 C1811 1.400 . S
C1815 C1814 1.385 . S
C1816 C1814 1.478 . S
C1816 C1818 1.381 . S
C1816 C1822 1.383 . S
C1817 C1813 1.495 . S
C1817 H1823 0.959 . S
C1817 H1824 0.961 . S
C1817 H1825 0.960 . S
C1818 C1816 1.381 . S
C1818 C1819 1.394 . S
C1818 H1826 0.930 . S
C1819 C1818 1.394 . S
C1819 C1820 1.383 . S
C1819 H1827 0.929 . S
C1820 C1819 1.383 . S
C1820 C1821 1.377 . S
C1821 H1805 0.930 . S
C1821 C1820 1.377 . S
C1821 C1822 1.379 . S
C1822 H1806 0.931 . S
C1822 C1816 1.383 . S
C1822 C1821 1.379 . S
H1823 C1817 0.959 . S
H1824 C1817 0.961 . S
H1825 C1817 0.960 . S
H1826 C1818 0.930 . S
H1827 C1819 0.929 . S
H1828 C1836 0.929 . S
H1829 C1838 0.930 . S
H1830 C1840 0.930 . S
H1831 C1843 0.929 . S
H1832 C1846 0.930 . S
H1833 C1848 0.960 . S
H1834 C1848 0.960 . S
H1835 C1848 0.960 . S
C1836 H1828 0.929 . S
C1836 C1837 1.377 . S
C1836 C1838 1.384 . S
C1837 C1836 1.377 . S
C1837 C1843 1.390 . S
C1838 H1829 0.930 . S
C1838 C1836 1.384 . S
C1838 C1839 1.372 . S
C1839 C1838 1.372 . S
C1839 C1840 1.400 . S
C1839 C1844 1.490 . S
C1840 H1830 0.930 . S
C1840 C1839 1.400 . S
C1840 C1843 1.386 . S
H1841 C1857 0.930 . S
H1842 C1858 0.931 . S
C1843 H1831 0.929 . S
C1843 C1837 1.390 . S
C1843 C1840 1.386 . S
C1844 C1839 1.490 . S
C1844 C1846 1.395 . S
C1844 C1847 1.403 . S
H1845 C1851 0.930 . S
C1846 H1832 0.930 . S
C1846 C1844 1.395 . S
C1846 C1849 1.403 . S
C1847 C1844 1.403 . S
C1847 C1848 1.524 . S
C1847 C1851 1.400 . S
C1848 H1833 0.960 . S
C1848 H1834 0.960 . S
C1848 H1835 0.960 . S
C1848 C1847 1.524 . S
C1849 C1846 1.403 . S
C1849 C1850 1.392 . S
C1849 C1853 1.495 . S
C1850 C1849 1.392 . S
C1850 C1851 1.385 . S
C1850 C1852 1.478 . S
C1851 H1845 0.930 . S
C1851 C1847 1.400 . S
C1851 C1850 1.385 . S
C1852 C1850 1.478 . S
C1852 C1854 1.381 . S
C1852 C1858 1.383 . S
C1853 C1849 1.495 . S
C1853 H1859 0.959 . S
C1853 H1860 0.961 . S
C1853 H1861 0.960 . S
C1854 C1852 1.381 . S
C1854 C1855 1.394 . S
C1854 H1862 0.930 . S
C1855 C1854 1.394 . S
C1855 C1856 1.383 . S
C1855 H1863 0.929 . S
C1856 C1855 1.383 . S
C1856 C1857 1.377 . S
C1857 H1841 0.930 . S
C1857 C1856 1.377 . S
C1857 C1858 1.379 . S
C1858 H1842 0.931 . S
C1858 C1852 1.383 . S
C1858 C1857 1.379 . S
H1859 C1853 0.959 . S
H1860 C1853 0.961 . S
H1861 C1853 0.960 . S
H1862 C1854 0.930 . S
H1863 C1855 0.929 . S
H1864 C1872 0.929 . S
H1865 C1874 0.930 . S
H1866 C1876 0.930 . S
H1867 C1879 0.929 . S
H1868 C1882 0.930 . S
H1869 C1884 0.960 . S
H1870 C1884 0.960 . S
H1871 C1884 0.960 . S
C1872 H1864 0.929 . S
C1872 C1873 1.377 . S
C1872 C1874 1.384 . S
C1873 C1872 1.377 . S
C1873 C1879 1.390 . S
C1874 H1865 0.930 . S
C1874 C1872 1.384 . S
C1874 C1875 1.372 . S
C1875 C1874 1.372 . S
C1875 C1876 1.400 . S
C1875 C1880 1.490 . S
C1876 H1866 0.930 . S
C1876 C1875 1.400 . S
C1876 C1879 1.386 . S
H1877 C1893 0.930 . S
H1878 C1894 0.931 . S
C1879 H1867 0.929 . S
C1879 C1873 1.390 . S
C1879 C1876 1.386 . S
C1880 C1875 1.490 . S
C1880 C1882 1.395 . S
C1880 C1883 1.403 . S
H1881 C1887 0.930 . S
C1882 H1868 0.930 . S
C1882 C1880 1.395 . S
C1882 C1885 1.403 . S
C1883 C1880 1.403 . S
C1883 C1884 1.524 . S
C1883 C1887 1.400 . S
C1884 H1869 0.960 . S
C1884 H1870 0.960 . S
C1884 H1871 0.960 . S
C1884 C1883 1.524 . S
C1885 C1882 1.403 . S
C1885 C1886 1.392 . S
C1885 C1889 1.495 . S
C1886 C1885 1.392 . S
C1886 C1887 1.385 . S
C1886 C1888 1.478 . S
C1887 H1881 0.930 . S
C1887 C1883 1.400 . S
C1887 C1886 1.385 . S
C1888 C1886 1.478 . S
C1888 C1890 1.381 . S
C1888 C1894 1.383 . S
C1889 C1885 1.495 . S
C1889 H1895 0.959 1_565 S
C1889 H1896 0.961 . S
C1889 H1897 0.960 1_565 S
C1890 C1888 1.381 . S
C1890 C1891 1.394 . S
C1890 H1898 0.930 . S
C1891 C1890 1.394 . S
C1891 C1892 1.383 . S
C1891 H1899 0.929 . S
C1892 C1891 1.383 . S
C1892 C1893 1.377 . S
C1893 H1877 0.930 . S
C1893 C1892 1.377 . S
C1893 C1894 1.379 . S
C1894 H1878 0.931 . S
C1894 C1888 1.383 . S
C1894 C1893 1.379 . S
H1895 C1889 0.959 1_545 S
H1896 C1889 0.961 . S
H1897 C1889 0.960 1_545 S
H1898 C1890 0.930 . S
H1899 C1891 0.929 . S
H1900 C1908 0.929 . S
H1901 C1910 0.930 . S
H1902 C1912 0.930 . S
H1903 C1915 0.929 . S
H1904 C1918 0.930 . S
H1905 C1920 0.960 . S
H1906 C1920 0.960 . S
H1907 C1920 0.960 . S
C1908 H1900 0.929 . S
C1908 C1909 1.377 . S
C1908 C1910 1.384 . S
C1909 C1908 1.377 . S
C1909 C1915 1.390 . S
C1910 H1901 0.930 . S
C1910 C1908 1.384 . S
C1910 C1911 1.372 . S
C1911 C1910 1.372 . S
C1911 C1912 1.400 . S
C1911 C1916 1.490 . S
C1912 H1902 0.930 . S
C1912 C1911 1.400 . S
C1912 C1915 1.386 . S
H1913 C1929 0.930 . S
H1914 C1930 0.931 . S
C1915 H1903 0.929 . S
C1915 C1909 1.390 . S
C1915 C1912 1.386 . S
C1916 C1911 1.490 . S
C1916 C1918 1.395 . S
C1916 C1919 1.403 . S
H1917 C1923 0.930 . S
C1918 H1904 0.930 . S
C1918 C1916 1.395 . S
C1918 C1921 1.403 . S
C1919 C1916 1.403 . S
C1919 C1920 1.524 . S
C1919 C1923 1.400 . S
C1920 H1905 0.960 . S
C1920 H1906 0.960 . S
C1920 H1907 0.960 . S
C1920 C1919 1.524 . S
C1921 C1918 1.403 . S
C1921 C1922 1.392 . S
C1921 C1925 1.495 . S
C1922 C1921 1.392 . S
C1922 C1923 1.385 . S
C1922 C1924 1.478 . S
C1923 H1917 0.930 . S
C1923 C1919 1.400 . S
C1923 C1922 1.385 . S
C1924 C1922 1.478 . S
C1924 C1926 1.381 . S
C1924 C1930 1.383 . S
C1925 C1921 1.495 . S
C1925 H1931 0.959 . S
C1925 H1932 0.961 . S
C1925 H1933 0.960 . S
C1926 C1924 1.381 . S
C1926 C1927 1.394 . S
C1926 H1934 0.930 . S
C1927 C1926 1.394 . S
C1927 C1928 1.383 . S
C1927 H1935 0.929 . S
C1928 C1927 1.383 . S
C1928 C1929 1.377 . S
C1929 H1913 0.930 . S
C1929 C1928 1.377 . S
C1929 C1930 1.379 . S
C1930 H1914 0.931 . S
C1930 C1924 1.383 . S
C1930 C1929 1.379 . S
H1931 C1925 0.959 . S
H1932 C1925 0.961 . S
H1933 C1925 0.960 . S
H1934 C1926 0.930 . S
H1935 C1927 0.929 . S
H1936 C1944 0.929 . S
H1937 C1946 0.930 . S
H1938 C1948 0.930 . S
H1939 C1951 0.929 . S
H1940 C1954 0.930 . S
H1941 C1956 0.960 . S
H1942 C1956 0.960 . S
H1943 C1956 0.960 . S
C1944 H1936 0.929 . S
C1944 C1945 1.377 . S
C1944 C1946 1.384 . S
C1945 C1944 1.377 . S
C1945 C1951 1.390 . S
C1946 H1937 0.930 . S
C1946 C1944 1.384 . S
C1946 C1947 1.372 . S
C1947 C1946 1.372 . S
C1947 C1948 1.400 . S
C1947 C1952 1.490 . S
C1948 H1938 0.930 . S
C1948 C1947 1.400 . S
C1948 C1951 1.386 . S
H1949 C1965 0.930 1_556 S
H1950 C1966 0.931 . S
C1951 H1939 0.929 . S
C1951 C1945 1.390 . S
C1951 C1948 1.386 . S
C1952 C1947 1.490 . S
C1952 C1954 1.395 . S
C1952 C1955 1.403 . S
H1953 C1959 0.930 . S
C1954 H1940 0.930 . S
C1954 C1952 1.395 . S
C1954 C1957 1.403 . S
C1955 C1952 1.403 . S
C1955 C1956 1.524 . S
C1955 C1959 1.400 . S
C1956 H1941 0.960 . S
C1956 H1942 0.960 . S
C1956 H1943 0.960 . S
C1956 C1955 1.524 . S
C1957 C1954 1.403 . S
C1957 C1958 1.392 . S
C1957 C1961 1.495 . S
C1958 C1957 1.392 . S
C1958 C1959 1.385 . S
C1958 C1960 1.478 . S
C1959 H1953 0.930 . S
C1959 C1955 1.400 . S
C1959 C1958 1.385 . S
C1960 C1958 1.478 . S
C1960 C1962 1.381 . S
C1960 C1966 1.383 . S
C1961 C1957 1.495 . S
C1961 H1967 0.959 . S
C1961 H1968 0.961 . S
C1961 H1969 0.960 . S
C1962 C1960 1.381 . S
C1962 C1963 1.394 . S
C1962 H1970 0.930 . S
C1963 C1962 1.394 . S
C1963 C1964 1.383 . S
C1963 H1971 0.929 . S
C1964 C1963 1.383 . S
C1964 C1965 1.377 . S
C1965 H1949 0.930 1_554 S
C1965 C1964 1.377 . S
C1965 C1966 1.379 . S
C1966 H1950 0.931 . S
C1966 C1960 1.383 . S
C1966 C1965 1.379 . S
H1967 C1961 0.959 . S
H1968 C1961 0.961 . S
H1969 C1961 0.960 . S
H1970 C1962 0.930 . S
H1971 C1963 0.929 . S
H1972 C1980 0.929 . S
H1973 C1982 0.930 . S
H1974 C1984 0.930 . S
H1975 C1987 0.929 . S
H1976 C1990 0.930 . S
H1977 C1992 0.960 . S
H1978 C1992 0.960 . S
H1979 C1992 0.960 . S
C1980 H1972 0.929 . S
C1980 C1981 1.377 . S
C1980 C1982 1.384 . S
C1981 C1980 1.377 . S
C1981 C1987 1.390 . S
C1982 H1973 0.930 . S
C1982 C1980 1.384 . S
C1982 C1983 1.372 . S
C1983 C1982 1.372 . S
C1983 C1984 1.400 . S
C1983 C1988 1.490 . S
C1984 H1974 0.930 . S
C1984 C1983 1.400 . S
C1984 C1987 1.386 . S
H1985 C2001 0.930 . S
H1986 C2002 0.931 . S
C1987 H1975 0.929 . S
C1987 C1981 1.390 . S
C1987 C1984 1.386 . S
C1988 C1983 1.490 . S
C1988 C1990 1.395 . S
C1988 C1991 1.403 . S
H1989 C1995 0.930 . S
C1990 H1976 0.930 . S
C1990 C1988 1.395 . S
C1990 C1993 1.403 . S
C1991 C1988 1.403 . S
C1991 C1992 1.524 . S
C1991 C1995 1.400 . S
C1992 H1977 0.960 . S
C1992 H1978 0.960 . S
C1992 H1979 0.960 . S
C1992 C1991 1.524 . S
C1993 C1990 1.403 . S
C1993 C1994 1.392 . S
C1993 C1997 1.495 . S
C1994 C1993 1.392 . S
C1994 C1995 1.385 . S
C1994 C1996 1.478 . S
C1995 H1989 0.930 . S
C1995 C1991 1.400 . S
C1995 C1994 1.385 . S
C1996 C1994 1.478 . S
C1996 C1998 1.381 . S
C1996 C2002 1.383 . S
C1997 C1993 1.495 . S
C1997 H2003 0.959 . S
C1997 H2004 0.961 . S
C1997 H2005 0.960 . S
C1998 C1996 1.381 . S
C1998 C1999 1.394 . S
C1998 H2006 0.930 . S
C1999 C1998 1.394 . S
C1999 C2000 1.383 . S
C1999 H2007 0.929 . S
C2000 C1999 1.383 . S
C2000 C2001 1.377 . S
C2001 H1985 0.930 . S
C2001 C2000 1.377 . S
C2001 C2002 1.379 . S
C2002 H1986 0.931 . S
C2002 C1996 1.383 . S
C2002 C2001 1.379 . S
H2003 C1997 0.959 . S
H2004 C1997 0.961 . S
H2005 C1997 0.960 . S
H2006 C1998 0.930 . S
H2007 C1999 0.929 . S
H2008 C2016 0.929 . S
H2009 C2018 0.930 . S
H2010 C2020 0.930 . S
H2011 C2023 0.929 . S
H2012 C2026 0.930 . S
H2013 C2028 0.960 . S
H2014 C2028 0.960 . S
H2015 C2028 0.960 . S
C2016 H2008 0.929 . S
C2016 C2017 1.377 . S
C2016 C2018 1.384 . S
C2017 C2016 1.377 . S
C2017 C2023 1.390 . S
C2018 H2009 0.930 . S
C2018 C2016 1.384 . S
C2018 C2019 1.372 . S
C2019 C2018 1.372 . S
C2019 C2020 1.400 . S
C2019 C2024 1.490 . S
C2020 H2010 0.930 . S
C2020 C2019 1.400 . S
C2020 C2023 1.386 . S
H2021 C2037 0.930 . S
H2022 C2038 0.931 . S
C2023 H2011 0.929 . S
C2023 C2017 1.390 . S
C2023 C2020 1.386 . S
C2024 C2019 1.490 . S
C2024 C2026 1.395 . S
C2024 C2027 1.403 . S
H2025 C2031 0.930 . S
C2026 H2012 0.930 . S
C2026 C2024 1.395 . S
C2026 C2029 1.403 . S
C2027 C2024 1.403 . S
C2027 C2028 1.524 . S
C2027 C2031 1.400 . S
C2028 H2013 0.960 . S
C2028 H2014 0.960 . S
C2028 H2015 0.960 . S
C2028 C2027 1.524 . S
C2029 C2026 1.403 . S
C2029 C2030 1.392 . S
C2029 C2033 1.495 . S
C2030 C2029 1.392 . S
C2030 C2031 1.385 . S
C2030 C2032 1.478 . S
C2031 H2025 0.930 . S
C2031 C2027 1.400 . S
C2031 C2030 1.385 . S
C2032 C2030 1.478 . S
C2032 C2034 1.381 . S
C2032 C2038 1.383 . S
C2033 C2029 1.495 . S
C2033 H2039 0.959 . S
C2033 H2040 0.961 . S
C2033 H2041 0.960 . S
C2034 C2032 1.381 . S
C2034 C2035 1.394 . S
C2034 H2042 0.930 . S
C2035 C2034 1.394 . S
C2035 C2036 1.383 . S
C2035 H2043 0.929 . S
C2036 C2035 1.383 . S
C2036 C2037 1.377 . S
C2037 H2021 0.930 . S
C2037 C2036 1.377 . S
C2037 C2038 1.379 . S
C2038 H2022 0.931 . S
C2038 C2032 1.383 . S
C2038 C2037 1.379 . S
H2039 C2033 0.959 . S
H2040 C2033 0.961 . S
H2041 C2033 0.960 . S
H2042 C2034 0.930 . S
H2043 C2035 0.929 . S
H2044 C2052 0.929 . S
H2045 C2054 0.930 . S
H2046 C2056 0.930 . S
H2047 C2059 0.929 . S
H2048 C2062 0.930 . S
H2049 C2064 0.960 . S
H2050 C2064 0.960 . S
H2051 C2064 0.960 . S
C2052 H2044 0.929 . S
C2052 C2053 1.377 . S
C2052 C2054 1.384 . S
C2053 C2052 1.377 . S
C2053 C2059 1.390 . S
C2054 H2045 0.930 . S
C2054 C2052 1.384 . S
C2054 C2055 1.372 . S
C2055 C2054 1.372 . S
C2055 C2056 1.400 . S
C2055 C2060 1.490 . S
C2056 H2046 0.930 . S
C2056 C2055 1.400 . S
C2056 C2059 1.386 . S
H2057 C2073 0.930 . S
H2058 C2074 0.931 . S
C2059 H2047 0.929 . S
C2059 C2053 1.390 . S
C2059 C2056 1.386 . S
C2060 C2055 1.490 . S
C2060 C2062 1.395 . S
C2060 C2063 1.403 . S
H2061 C2067 0.930 . S
C2062 H2048 0.930 . S
C2062 C2060 1.395 . S
C2062 C2065 1.403 . S
C2063 C2060 1.403 . S
C2063 C2064 1.524 . S
C2063 C2067 1.400 . S
C2064 H2049 0.960 . S
C2064 H2050 0.960 . S
C2064 H2051 0.960 . S
C2064 C2063 1.524 . S
C2065 C2062 1.403 . S
C2065 C2066 1.392 . S
C2065 C2069 1.495 . S
C2066 C2065 1.392 . S
C2066 C2067 1.385 . S
C2066 C2068 1.478 . S
C2067 H2061 0.930 . S
C2067 C2063 1.400 . S
C2067 C2066 1.385 . S
C2068 C2066 1.478 . S
C2068 C2070 1.381 . S
C2068 C2074 1.383 . S
C2069 C2065 1.495 . S
C2069 H2075 0.959 . S
C2069 H2076 0.961 . S
C2069 H2077 0.960 . S
C2070 C2068 1.381 . S
C2070 C2071 1.394 . S
C2070 H2078 0.930 . S
C2071 C2070 1.394 . S
C2071 C2072 1.383 . S
C2071 H2079 0.929 . S
C2072 C2071 1.383 . S
C2072 C2073 1.377 . S
C2073 H2057 0.930 . S
C2073 C2072 1.377 . S
C2073 C2074 1.379 . S
C2074 H2058 0.931 . S
C2074 C2068 1.383 . S
C2074 C2073 1.379 . S
H2075 C2069 0.959 . S
H2076 C2069 0.961 . S
H2077 C2069 0.960 . S
H2078 C2070 0.930 . S
H2079 C2071 0.929 . S
H2080 C2088 0.929 . S
H2081 C2090 0.930 . S
H2082 C2092 0.930 . S
H2083 C2095 0.929 . S
H2084 C2098 0.930 . S
H2085 C2100 0.960 . S
H2086 C2100 0.960 . S
H2087 C2100 0.960 . S
C2088 H2080 0.929 . S
C2088 C2089 1.377 . S
C2088 C2090 1.384 . S
C2089 C2088 1.377 . S
C2089 C2095 1.390 . S
C2090 H2081 0.930 . S
C2090 C2088 1.384 . S
C2090 C2091 1.372 . S
C2091 C2090 1.372 . S
C2091 C2092 1.400 . S
C2091 C2096 1.490 . S
C2092 H2082 0.930 . S
C2092 C2091 1.400 . S
C2092 C2095 1.386 . S
H2093 C2109 0.930 . S
H2094 C2110 0.931 . S
C2095 H2083 0.929 . S
C2095 C2089 1.390 . S
C2095 C2092 1.386 . S
C2096 C2091 1.490 . S
C2096 C2098 1.395 . S
C2096 C2099 1.403 . S
H2097 C2103 0.930 . S
C2098 H2084 0.930 . S
C2098 C2096 1.395 . S
C2098 C2101 1.403 . S
C2099 C2096 1.403 . S
C2099 C2100 1.524 . S
C2099 C2103 1.400 . S
C2100 H2085 0.960 . S
C2100 H2086 0.960 . S
C2100 H2087 0.960 . S
C2100 C2099 1.524 . S
C2101 C2098 1.403 . S
C2101 C2102 1.392 . S
C2101 C2105 1.495 . S
C2102 C2101 1.392 . S
C2102 C2103 1.385 . S
C2102 C2104 1.478 . S
C2103 H2097 0.930 . S
C2103 C2099 1.400 . S
C2103 C2102 1.385 . S
C2104 C2102 1.478 . S
C2104 C2106 1.381 . S
C2104 C2110 1.383 . S
C2105 C2101 1.495 . S
C2105 H2111 0.959 . S
C2105 H2112 0.961 . S
C2105 H2113 0.960 . S
C2106 C2104 1.381 . S
C2106 C2107 1.394 . S
C2106 H2114 0.930 . S
C2107 C2106 1.394 . S
C2107 C2108 1.383 . S
C2107 H2115 0.929 . S
C2108 C2107 1.383 . S
C2108 C2109 1.377 . S
C2109 H2093 0.930 . S
C2109 C2108 1.377 . S
C2109 C2110 1.379 . S
C2110 H2094 0.931 . S
C2110 C2104 1.383 . S
C2110 C2109 1.379 . S
H2111 C2105 0.959 . S
H2112 C2105 0.961 . S
H2113 C2105 0.960 . S
H2114 C2106 0.930 . S
H2115 C2107 0.929 . S
H2116 C2124 0.929 . S
H2117 C2126 0.930 . S
H2118 C2128 0.930 . S
H2119 C2131 0.929 . S
H2120 C2134 0.930 . S
H2121 C2136 0.960 . S
H2122 C2136 0.960 . S
H2123 C2136 0.960 . S
C2124 H2116 0.929 . S
C2124 C2125 1.377 . S
C2124 C2126 1.384 . S
C2125 C2124 1.377 . S
C2125 C2131 1.390 . S
C2126 H2117 0.930 . S
C2126 C2124 1.384 . S
C2126 C2127 1.372 . S
C2127 C2126 1.372 . S
C2127 C2128 1.400 . S
C2127 C2132 1.490 . S
C2128 H2118 0.930 . S
C2128 C2127 1.400 . S
C2128 C2131 1.386 . S
H2129 C2145 0.930 . S
H2130 C2146 0.931 . S
C2131 H2119 0.929 . S
C2131 C2125 1.390 . S
C2131 C2128 1.386 . S
C2132 C2127 1.490 . S
C2132 C2134 1.395 . S
C2132 C2135 1.403 . S
H2133 C2139 0.930 . S
C2134 H2120 0.930 . S
C2134 C2132 1.395 . S
C2134 C2137 1.403 . S
C2135 C2132 1.403 . S
C2135 C2136 1.524 . S
C2135 C2139 1.400 . S
C2136 H2121 0.960 . S
C2136 H2122 0.960 . S
C2136 H2123 0.960 . S
C2136 C2135 1.524 . S
C2137 C2134 1.403 . S
C2137 C2138 1.392 . S
C2137 C2141 1.495 1_565 S
C2138 C2137 1.392 . S
C2138 C2139 1.385 . S
C2138 C2140 1.489 . S
C2139 H2133 0.930 . S
C2139 C2135 1.400 . S
C2139 C2138 1.385 . S
C2140 C2138 1.489 . S
C2140 C2142 1.374 1_565 S
C2140 C2146 1.379 1_565 S
C2141 C2137 1.495 1_545 S
C2141 H2147 0.959 . S
C2141 H2148 0.961 . S
C2141 H2149 0.960 . S
C2142 C2140 1.374 1_545 S
C2142 C2143 1.394 . S
C2142 H2150 0.930 1_545 S
C2143 C2142 1.394 . S
C2143 C2144 1.383 . S
C2143 H2151 0.929 . S
C2144 C2143 1.383 . S
C2144 C2145 1.377 . S
C2145 H2129 0.930 . S
C2145 C2144 1.377 . S
C2145 C2146 1.379 . S
C2146 H2130 0.931 . S
C2146 C2140 1.379 1_545 S
C2146 C2145 1.379 . S
H2147 C2141 0.959 . S
H2148 C2141 0.961 . S
H2149 C2141 0.960 . S
H2150 C2142 0.930 1_565 S
H2151 C2143 0.929 . S
H2152 C2160 0.929 . S
H2153 C2162 0.930 . S
H2154 C2164 0.930 . S
H2155 C2167 0.929 . S
H2156 C2170 0.930 . S
H2157 C2172 0.960 . S
H2158 C2172 0.960 . S
H2159 C2172 0.960 . S
C2160 H2152 0.929 . S
C2160 C2161 1.377 . S
C2160 C2162 1.384 . S
C2161 C2160 1.377 . S
C2161 C2167 1.390 . S
C2162 H2153 0.930 . S
C2162 C2160 1.384 . S
C2162 C2163 1.372 . S
C2163 C2162 1.372 . S
C2163 C2164 1.400 . S
C2163 C2168 1.490 . S
C2164 H2154 0.930 . S
C2164 C2163 1.400 . S
C2164 C2167 1.386 . S
H2165 C2181 0.930 . S
H2166 C2182 0.931 . S
C2167 H2155 0.929 . S
C2167 C2161 1.390 . S
C2167 C2164 1.386 . S
C2168 C2163 1.490 . S
C2168 C2170 1.395 . S
C2168 C2171 1.403 . S
H2169 C2175 0.930 . S
C2170 H2156 0.930 . S
C2170 C2168 1.395 . S
C2170 C2173 1.403 . S
C2171 C2168 1.403 . S
C2171 C2172 1.524 . S
C2171 C2175 1.400 . S
C2172 H2157 0.960 . S
C2172 H2158 0.960 . S
C2172 H2159 0.960 . S
C2172 C2171 1.524 . S
C2173 C2170 1.403 . S
C2173 C2174 1.392 . S
C2173 C2177 1.495 . S
C2174 C2173 1.392 . S
C2174 C2175 1.385 . S
C2174 C2176 1.478 . S
C2175 H2169 0.930 . S
C2175 C2171 1.400 . S
C2175 C2174 1.385 . S
C2176 C2174 1.478 . S
C2176 C2178 1.381 . S
C2176 C2182 1.383 . S
C2177 C2173 1.495 . S
C2177 H2183 0.959 . S
C2177 H2184 0.961 . S
C2177 H2185 0.960 . S
C2178 C2176 1.381 . S
C2178 C2179 1.394 . S
C2178 H2186 0.930 . S
C2179 C2178 1.394 . S
C2179 C2180 1.383 . S
C2179 H2187 0.929 . S
C2180 C2179 1.383 . S
C2180 C2181 1.377 . S
C2181 H2165 0.930 . S
C2181 C2180 1.377 . S
C2181 C2182 1.379 . S
C2182 H2166 0.931 . S
C2182 C2176 1.383 . S
C2182 C2181 1.379 . S
H2183 C2177 0.959 . S
H2184 C2177 0.961 . S
H2185 C2177 0.960 . S
H2186 C2178 0.930 . S
H2187 C2179 0.929 . S
H2188 C2196 0.929 . S
H2189 C2198 0.930 . S
H2190 C2200 0.930 . S
H2191 C2203 0.929 . S
H2192 C2206 0.930 1_565 S
H2193 C2208 0.960 . S
H2194 C2208 0.960 . S
H2195 C2208 0.960 . S
C2196 H2188 0.929 . S
C2196 C2197 1.377 1_545 S
C2196 C2198 1.384 . S
C2197 C2196 1.377 1_565 S
C2197 C2203 1.390 . S
C2198 H2189 0.930 . S
C2198 C2196 1.384 . S
C2198 C2199 1.372 . S
C2199 C2198 1.372 . S
C2199 C2200 1.400 . S
C2199 C2204 1.490 . S
C2200 H2190 0.930 . S
C2200 C2199 1.400 . S
C2200 C2203 1.386 1_545 S
H2201 C2217 0.930 . S
H2202 C2218 0.931 . S
C2203 H2191 0.929 . S
C2203 C2197 1.390 . S
C2203 C2200 1.386 1_565 S
C2204 C2199 1.490 . S
C2204 C2206 1.395 . S
C2204 C2207 1.403 . S
H2205 C2211 0.930 . S
C2206 H2192 0.930 1_545 S
C2206 C2204 1.395 . S
C2206 C2209 1.403 . S
C2207 C2204 1.403 . S
C2207 C2208 1.524 . S
C2207 C2211 1.400 . S
C2208 H2193 0.960 . S
C2208 H2194 0.960 . S
C2208 H2195 0.960 . S
C2208 C2207 1.524 . S
C2209 C2206 1.403 . S
C2209 C2210 1.392 . S
C2209 C2213 1.495 1_545 S
C2210 C2209 1.392 . S
C2210 C2211 1.385 . S
C2210 C2212 1.478 . S
C2211 H2205 0.930 . S
C2211 C2207 1.400 . S
C2211 C2210 1.385 . S
C2212 C2210 1.478 . S
C2212 C2214 1.381 . S
C2212 C2218 1.383 . S
C2213 C2209 1.495 1_565 S
C2213 H2219 0.959 . S
C2213 H2220 0.961 . S
C2213 H2221 0.961 . S
C2214 C2212 1.381 . S
C2214 C2215 1.394 . S
C2214 H2222 0.930 . S
C2215 C2214 1.394 . S
C2215 C2216 1.383 . S
C2215 H2223 0.929 . S
C2216 C2215 1.383 . S
C2216 C2217 1.377 . S
C2217 H2201 0.930 . S
C2217 C2216 1.377 . S
C2217 C2218 1.379 . S
C2218 H2202 0.931 . S
C2218 C2212 1.383 . S
C2218 C2217 1.379 . S
H2219 C2213 0.959 . S
H2220 C2213 0.961 . S
H2221 C2213 0.961 . S
H2222 C2214 0.930 . S
H2223 C2215 0.929 . S
H2224 C2232 0.929 . S
H2225 C2234 0.930 . S
H2226 C2236 0.930 . S
H2227 C2239 0.929 . S
H2228 C2242 0.930 . S
H2229 C2244 0.960 . S
H2230 C2244 0.960 . S
H2231 C2244 0.960 . S
C2232 H2224 0.929 . S
C2232 C2233 1.377 . S
C2232 C2234 1.384 . S
C2233 C2232 1.377 . S
C2233 C2239 1.390 . S
C2234 H2225 0.930 . S
C2234 C2232 1.384 . S
C2234 C2235 1.372 . S
C2235 C2234 1.372 . S
C2235 C2236 1.400 . S
C2235 C2240 1.490 . S
C2236 H2226 0.930 . S
C2236 C2235 1.400 . S
C2236 C2239 1.386 . S
H2237 C2253 0.930 . S
H2238 C2254 0.931 . S
C2239 H2227 0.929 . S
C2239 C2233 1.390 . S
C2239 C2236 1.386 . S
C2240 C2235 1.490 . S
C2240 C2242 1.395 . S
C2240 C2243 1.403 . S
H2241 C2247 0.930 . S
C2242 H2228 0.930 . S
C2242 C2240 1.395 . S
C2242 C2245 1.403 . S
C2243 C2240 1.403 . S
C2243 C2244 1.524 . S
C2243 C2247 1.400 . S
C2244 H2229 0.960 . S
C2244 H2230 0.960 . S
C2244 H2231 0.960 . S
C2244 C2243 1.524 . S
C2245 C2242 1.403 . S
C2245 C2246 1.392 . S
C2245 C2249 1.495 . S
C2246 C2245 1.392 . S
C2246 C2247 1.385 . S
C2246 C2248 1.478 . S
C2247 H2241 0.930 . S
C2247 C2243 1.400 . S
C2247 C2246 1.385 . S
C2248 C2246 1.478 . S
C2248 C2250 1.381 . S
C2248 C2254 1.383 . S
C2249 C2245 1.495 . S
C2249 H2255 0.959 . S
C2249 H2256 0.961 . S
C2249 H2257 0.960 . S
C2250 C2248 1.381 . S
C2250 C2251 1.394 . S
C2250 H2258 0.930 . S
C2251 C2250 1.394 . S
C2251 C2252 1.383 . S
C2251 H2259 0.929 . S
C2252 C2251 1.383 . S
C2252 C2253 1.377 . S
C2253 H2237 0.930 . S
C2253 C2252 1.377 . S
C2253 C2254 1.379 . S
C2254 H2238 0.931 . S
C2254 C2248 1.383 . S
C2254 C2253 1.379 . S
H2255 C2249 0.959 . S
H2256 C2249 0.961 . S
H2257 C2249 0.960 . S
H2258 C2250 0.930 . S
H2259 C2251 0.929 . S
H2260 C2268 0.929 . S
H2261 C2270 0.930 . S
H2262 C2272 0.930 . S
H2263 C2275 0.929 . S
H2264 C2278 0.930 . S
H2265 C2280 0.960 1_565 S
H2266 C2280 0.960 . S
H2267 C2280 0.960 . S
C2268 H2260 0.929 . S
C2268 C2269 1.377 . S
C2268 C2270 1.384 . S
C2269 C2268 1.377 . S
C2269 C2275 1.390 . S
C2270 H2261 0.930 . S
C2270 C2268 1.384 . S
C2270 C2271 1.372 . S
C2271 C2270 1.372 . S
C2271 C2272 1.400 . S
C2271 C2276 1.490 . S
C2272 H2262 0.930 . S
C2272 C2271 1.400 . S
C2272 C2275 1.386 . S
H2273 C2289 0.930 . S
H2274 C2290 0.931 . S
C2275 H2263 0.929 . S
C2275 C2269 1.390 . S
C2275 C2272 1.386 . S
C2276 C2271 1.490 . S
C2276 C2278 1.395 . S
C2276 C2279 1.403 . S
H2277 C2283 0.930 1_565 S
C2278 H2264 0.930 . S
C2278 C2276 1.395 . S
C2278 C2281 1.403 . S
C2279 C2276 1.403 . S
C2279 C2280 1.524 . S
C2279 C2283 1.400 . S
C2280 H2265 0.960 1_545 S
C2280 H2266 0.960 . S
C2280 H2267 0.960 . S
C2280 C2279 1.524 . S
C2281 C2278 1.403 . S
C2281 C2282 1.392 . S
C2281 C2285 1.495 . S
C2282 C2281 1.392 . S
C2282 C2283 1.385 . S
C2282 C2284 1.478 . S
C2283 H2277 0.930 1_545 S
C2283 C2279 1.400 . S
C2283 C2282 1.385 . S
C2284 C2282 1.478 . S
C2284 C2286 1.381 . S
C2284 C2290 1.383 1_545 S
C2285 C2281 1.495 . S
C2285 H2291 0.959 . S
C2285 H2292 0.961 . S
C2285 H2293 0.960 . S
C2286 C2284 1.381 . S
C2286 C2287 1.394 1_545 S
C2286 H2294 0.930 . S
C2287 C2286 1.394 1_565 S
C2287 C2288 1.383 . S
C2287 H2295 0.929 . S
C2288 C2287 1.383 . S
C2288 C2289 1.377 . S
C2289 H2273 0.930 . S
C2289 C2288 1.377 . S
C2289 C2290 1.379 . S
C2290 H2274 0.931 . S
C2290 C2284 1.383 1_565 S
C2290 C2289 1.379 . S
H2291 C2285 0.959 . S
H2292 C2285 0.961 . S
H2293 C2285 0.960 . S
H2294 C2286 0.930 . S
H2295 C2287 0.929 . S
H2296 C2304 0.929 . S
H2297 C2306 0.930 . S
H2298 C2308 0.930 . S
H2299 C2311 0.929 . S
H2300 C2314 0.930 . S
H2301 C2316 0.960 . S
H2302 C2316 0.960 . S
H2303 C2316 0.960 . S
C2304 H2296 0.929 . S
C2304 C2305 1.377 . S
C2304 C2306 1.384 . S
C2305 C2304 1.377 . S
C2305 C2311 1.390 . S
C2306 H2297 0.930 . S
C2306 C2304 1.384 . S
C2306 C2307 1.372 . S
C2307 C2306 1.372 . S
C2307 C2308 1.400 . S
C2307 C2312 1.490 . S
C2308 H2298 0.930 . S
C2308 C2307 1.400 . S
C2308 C2311 1.386 . S
H2309 C2325 0.930 . S
H2310 C2326 0.931 . S
C2311 H2299 0.929 . S
C2311 C2305 1.390 . S
C2311 C2308 1.386 . S
C2312 C2307 1.490 . S
C2312 C2314 1.395 . S
C2312 C2315 1.403 . S
H2313 C2319 0.930 . S
C2314 H2300 0.930 . S
C2314 C2312 1.395 . S
C2314 C2317 1.403 . S
C2315 C2312 1.403 . S
C2315 C2316 1.524 . S
C2315 C2319 1.400 . S
C2316 H2301 0.960 . S
C2316 H2302 0.960 . S
C2316 H2303 0.960 . S
C2316 C2315 1.524 . S
C2317 C2314 1.403 . S
C2317 C2318 1.392 . S
C2317 C2321 1.495 . S
C2318 C2317 1.392 . S
C2318 C2319 1.385 . S
C2318 C2320 1.478 . S
C2319 H2313 0.930 . S
C2319 C2315 1.400 . S
C2319 C2318 1.385 . S
C2320 C2318 1.478 . S
C2320 C2322 1.381 . S
C2320 C2326 1.383 . S
C2321 C2317 1.495 . S
C2321 H2327 0.959 . S
C2321 H2328 0.961 . S
C2321 H2329 0.960 . S
C2322 C2320 1.381 . S
C2322 C2323 1.394 . S
C2322 H2330 0.930 . S
C2323 C2322 1.394 . S
C2323 C2324 1.383 . S
C2323 H2331 0.929 . S
C2324 C2323 1.383 . S
C2324 C2325 1.377 . S
C2325 H2309 0.930 . S
C2325 C2324 1.377 . S
C2325 C2326 1.379 . S
C2326 H2310 0.931 . S
C2326 C2320 1.383 . S
C2326 C2325 1.379 . S
H2327 C2321 0.959 . S
H2328 C2321 0.961 . S
H2329 C2321 0.960 . S
H2330 C2322 0.930 . S
H2331 C2323 0.929 . S
H2332 C2340 0.929 . S
H2333 C2342 0.930 . S
H2334 C2344 0.930 . S
H2335 C2347 0.929 . S
H2336 C2350 0.930 . S
H2337 C2352 0.960 . S
H2338 C2352 0.960 . S
H2339 C2352 0.960 . S
C2340 H2332 0.929 . S
C2340 C2341 1.377 . S
C2340 C2342 1.384 . S
C2341 C2340 1.377 . S
C2341 C2347 1.390 . S
C2342 H2333 0.930 . S
C2342 C2340 1.384 . S
C2342 C2343 1.372 . S
C2343 C2342 1.372 . S
C2343 C2344 1.400 . S
C2343 C2348 1.490 . S
C2344 H2334 0.930 . S
C2344 C2343 1.400 . S
C2344 C2347 1.386 . S
H2345 C2361 0.930 . S
H2346 C2362 0.931 . S
C2347 H2335 0.929 . S
C2347 C2341 1.390 . S
C2347 C2344 1.386 . S
C2348 C2343 1.490 . S
C2348 C2350 1.395 . S
C2348 C2351 1.403 . S
H2349 C2355 0.930 . S
C2350 H2336 0.930 . S
C2350 C2348 1.395 . S
C2350 C2353 1.403 . S
C2351 C2348 1.403 . S
C2351 C2352 1.524 . S
C2351 C2355 1.400 . S
C2352 H2337 0.960 . S
C2352 H2338 0.960 . S
C2352 H2339 0.960 . S
C2352 C2351 1.524 . S
C2353 C2350 1.403 . S
C2353 C2354 1.392 . S
C2353 C2357 1.495 . S
C2354 C2353 1.392 . S
C2354 C2355 1.385 . S
C2354 C2356 1.478 . S
C2355 H2349 0.930 . S
C2355 C2351 1.400 . S
C2355 C2354 1.385 . S
C2356 C2354 1.478 . S
C2356 C2358 1.381 . S
C2356 C2362 1.383 1_565 S
C2357 C2353 1.495 . S
C2357 H2363 0.959 . S
C2357 H2364 0.961 1_565 S
C2357 H2365 0.960 . S
C2358 C2356 1.381 . S
C2358 C2359 1.394 . S
C2358 H2366 0.930 . S
C2359 C2358 1.394 . S
C2359 C2360 1.383 1_565 S
C2359 H2367 0.929 . S
C2360 C2359 1.383 1_545 S
C2360 C2361 1.377 . S
C2361 H2345 0.930 . S
C2361 C2360 1.377 . S
C2361 C2362 1.379 . S
C2362 H2346 0.931 . S
C2362 C2356 1.383 1_545 S
C2362 C2361 1.379 . S
H2363 C2357 0.959 . S
H2364 C2357 0.961 1_545 S
H2365 C2357 0.960 . S
H2366 C2358 0.930 . S
H2367 C2359 0.929 . S
C649 C9 0.517 . S
C668 C409 0.467 . S
C685 C49 0.873 . S
C704 C458 0.640 . S
C721 C89 0.526 . S
C740 C329 0.488 . S
C757 C369 0.876 . S
C776 C138 0.633 . S
C793 C178 0.488 . S
C812 C578 0.438 . S
C829 C609 0.582 . S
C848 C218 0.899 . S
C865 C498 0.501 . S
C884 C258 0.425 . S
C901 C289 0.575 . S
C920 C538 0.904 . S
C937 C19 3.518 . S
C956 C170 3.508 . S
C973 C59 2.921 . S
C992 C530 2.920 . S
C1009 C99 2.338 . S
C1028 C250 2.339 . S
C1045 C126 1.485 . S
C1064 C615 1.510 . S
C1081 C210 2.923 . S
C1100 C379 2.921 . S
C1117 C446 1.491 . S
C1136 C295 1.482 . S
C1153 C490 3.519 . S
C1172 C339 3.513 . S
C1189 C419 2.340 . S
C1208 C570 2.327 . S
C1225 C10 1.374 . S
C1244 C298 1.403 . S
C1261 C50 1.646 . S
C1280 C489 1.637 . S
C1297 C90 1.428 . S
C1316 C209 1.416 . S
C1333 C135 0.578 . S
C1352 C569 0.625 . S
C1369 C129 1.382 . S
C1388 C179 1.382 . S
C1405 C219 1.654 . S
C1424 C338 1.632 . S
C1441 C259 1.427 . S
C1460 C58 1.442 . S
C1477 C418 0.598 . S
C1496 C286 0.612 . S
C1513 C330 1.376 . S
C1532 C618 1.365 . S
C1549 C169 1.652 . S
C1568 C370 1.627 . S
C1585 C529 1.422 . S
C1604 C410 1.410 . S
C1621 C249 0.597 . S
C1640 C455 0.570 . S
C1657 C499 1.373 . S
C1676 C449 1.371 . S
C1693 C539 1.649 . S
C1712 C18 1.676 . S
C1729 C378 1.424 . S
C1748 C579 1.443 . S
C1765 C606 0.581 . S
C1784 C98 0.640 . S
C1801 C15 1.555 1_556 S
C1820 C366 1.553 . S
C1837 C406 1.602 . S
C1856 C55 1.645 . S
C1873 C95 1.825 . S
C1892 C459 1.813 . S
C1909 C326 2.377 . S
C1928 C130 2.346 . S
C1945 C535 1.526 . S
C1964 C166 1.570 1_554 S
C1981 C575 1.597 . S
C2000 C206 1.599 . S
C2017 C610 1.805 . S
C2036 C246 1.802 . S
C2053 C495 2.378 . S
C2072 C299 2.366 . S
C2089 C46 1.532 . S
C2108 C335 1.551 . S
C2125 C86 1.604 . S
C2144 C375 1.646 . S
C2161 C139 1.799 . S
C2180 C415 1.803 . S
C2197 C450 2.359 . S
C2216 C6 2.366 . S
C2233 C215 1.531 . S
C2252 C486 1.548 . S
C2269 C255 1.598 . S
C2288 C526 1.598 . S
C2305 C290 1.801 . S
C2324 C566 1.828 . S
C2341 C175 2.379 . S
C2360 C619 2.363 . S
