# Generated by pormake.
# Topology wgl, (5)-cn, num edge types: 1
# Building blocks:
#     Node 0, Type 0, BuildingBlock: XOMCOT_clean_sbu_0, # of connection points: 5
#     Node 1, Type 0, BuildingBlock: XOMCOT_clean_sbu_0, # of connection points: 5
#     Node 2, Type 0, BuildingBlock: XOMCOT_clean_sbu_0, # of connection points: 5
#     Node 3, Type 0, BuildingBlock: XOMCOT_clean_sbu_0, # of connection points: 5
#     Node 4, Type 0, BuildingBlock: XOMCOT_clean_sbu_0, # of connection points: 5
#     Node 5, Type 0, BuildingBlock: XOMCOT_clean_sbu_0, # of connection points: 5
#     Node 6, Type 0, BuildingBlock: XOMCOT_clean_sbu_0, # of connection points: 5
#     Node 7, Type 0, BuildingBlock: XOMCOT_clean_sbu_0, # of connection points: 5
#     Node 8, Type 0, BuildingBlock: XOMCOT_clean_sbu_0, # of connection points: 5
#     Node 9, Type 0, BuildingBlock: XOMCOT_clean_sbu_0, # of connection points: 5
#     Node 10, Type 0, BuildingBlock: XOMCOT_clean_sbu_0, # of connection points: 5
#     Node 11, Type 0, BuildingBlock: XOMCOT_clean_sbu_0, # of connection points: 5
#     Node 12, Type 0, BuildingBlock: XOMCOT_clean_sbu_0, # of connection points: 5
#     Node 13, Type 0, BuildingBlock: XOMCOT_clean_sbu_0, # of connection points: 5
#     Node 14, Type 0, BuildingBlock: XOMCOT_clean_sbu_0, # of connection points: 5
#     Node 15, Type 0, BuildingBlock: XOMCOT_clean_sbu_0, # of connection points: 5
#     Node 16, Type 0, BuildingBlock: XOMCOT_clean_sbu_0, # of connection points: 5
#     Node 17, Type 0, BuildingBlock: XOMCOT_clean_sbu_0, # of connection points: 5
#     Node 18, Type 0, BuildingBlock: XOMCOT_clean_sbu_0, # of connection points: 5
#     Node 19, Type 0, BuildingBlock: XOMCOT_clean_sbu_0, # of connection points: 5
#     Node 20, Type 0, BuildingBlock: XOMCOT_clean_sbu_0, # of connection points: 5
#     Node 21, Type 0, BuildingBlock: XOMCOT_clean_sbu_0, # of connection points: 5
#     Node 22, Type 0, BuildingBlock: XOMCOT_clean_sbu_0, # of connection points: 5
#     Node 23, Type 0, BuildingBlock: XOMCOT_clean_sbu_0, # of connection points: 5
#     Node 24, Type 0, BuildingBlock: XOMCOT_clean_sbu_0, # of connection points: 5
#     Node 25, Type 0, BuildingBlock: XOMCOT_clean_sbu_0, # of connection points: 5
#     Node 26, Type 0, BuildingBlock: XOMCOT_clean_sbu_0, # of connection points: 5
#     Node 27, Type 0, BuildingBlock: XOMCOT_clean_sbu_0, # of connection points: 5
#     Node 28, Type 0, BuildingBlock: XOMCOT_clean_sbu_0, # of connection points: 5
#     Node 29, Type 0, BuildingBlock: XOMCOT_clean_sbu_0, # of connection points: 5
#     Node 30, Type 0, BuildingBlock: XOMCOT_clean_sbu_0, # of connection points: 5
#     Node 31, Type 0, BuildingBlock: XOMCOT_clean_sbu_0, # of connection points: 5
#     Edge 32, Type (0, 0), BuildingBlock: UVAHIK_clean_linker_0, # of connection points: 2
#     Edge 33, Type (0, 0), BuildingBlock: UVAHIK_clean_linker_0, # of connection points: 2
#     Edge 34, Type (0, 0), BuildingBlock: UVAHIK_clean_linker_0, # of connection points: 2
#     Edge 35, Type (0, 0), BuildingBlock: UVAHIK_clean_linker_0, # of connection points: 2
#     Edge 36, Type (0, 0), BuildingBlock: UVAHIK_clean_linker_0, # of connection points: 2
#     Edge 37, Type (0, 0), BuildingBlock: UVAHIK_clean_linker_0, # of connection points: 2
#     Edge 38, Type (0, 0), BuildingBlock: UVAHIK_clean_linker_0, # of connection points: 2
#     Edge 39, Type (0, 0), BuildingBlock: UVAHIK_clean_linker_0, # of connection points: 2
#     Edge 40, Type (0, 0), BuildingBlock: UVAHIK_clean_linker_0, # of connection points: 2
#     Edge 41, Type (0, 0), BuildingBlock: UVAHIK_clean_linker_0, # of connection points: 2
#     Edge 42, Type (0, 0), BuildingBlock: UVAHIK_clean_linker_0, # of connection points: 2
#     Edge 43, Type (0, 0), BuildingBlock: UVAHIK_clean_linker_0, # of connection points: 2
#     Edge 44, Type (0, 0), BuildingBlock: UVAHIK_clean_linker_0, # of connection points: 2
#     Edge 45, Type (0, 0), BuildingBlock: UVAHIK_clean_linker_0, # of connection points: 2
#     Edge 46, Type (0, 0), BuildingBlock: UVAHIK_clean_linker_0, # of connection points: 2
#     Edge 47, Type (0, 0), BuildingBlock: UVAHIK_clean_linker_0, # of connection points: 2
#     Edge 48, Type (0, 0), BuildingBlock: UVAHIK_clean_linker_0, # of connection points: 2
#     Edge 49, Type (0, 0), BuildingBlock: UVAHIK_clean_linker_0, # of connection points: 2
#     Edge 50, Type (0, 0), BuildingBlock: UVAHIK_clean_linker_0, # of connection points: 2
#     Edge 51, Type (0, 0), BuildingBlock: UVAHIK_clean_linker_0, # of connection points: 2
#     Edge 52, Type (0, 0), BuildingBlock: UVAHIK_clean_linker_0, # of connection points: 2
#     Edge 53, Type (0, 0), BuildingBlock: UVAHIK_clean_linker_0, # of connection points: 2
#     Edge 54, Type (0, 0), BuildingBlock: UVAHIK_clean_linker_0, # of connection points: 2
#     Edge 55, Type (0, 0), BuildingBlock: UVAHIK_clean_linker_0, # of connection points: 2
#     Edge 56, Type (0, 0), BuildingBlock: UVAHIK_clean_linker_0, # of connection points: 2
#     Edge 57, Type (0, 0), BuildingBlock: UVAHIK_clean_linker_0, # of connection points: 2
#     Edge 58, Type (0, 0), BuildingBlock: UVAHIK_clean_linker_0, # of connection points: 2
#     Edge 59, Type (0, 0), BuildingBlock: UVAHIK_clean_linker_0, # of connection points: 2
#     Edge 60, Type (0, 0), BuildingBlock: UVAHIK_clean_linker_0, # of connection points: 2
#     Edge 61, Type (0, 0), BuildingBlock: UVAHIK_clean_linker_0, # of connection points: 2
#     Edge 62, Type (0, 0), BuildingBlock: UVAHIK_clean_linker_0, # of connection points: 2
#     Edge 63, Type (0, 0), BuildingBlock: UVAHIK_clean_linker_0, # of connection points: 2
#     Edge 64, Type (0, 0), BuildingBlock: UVAHIK_clean_linker_0, # of connection points: 2
#     Edge 65, Type (0, 0), BuildingBlock: UVAHIK_clean_linker_0, # of connection points: 2
#     Edge 66, Type (0, 0), BuildingBlock: UVAHIK_clean_linker_0, # of connection points: 2
#     Edge 67, Type (0, 0), BuildingBlock: UVAHIK_clean_linker_0, # of connection points: 2
#     Edge 68, Type (0, 0), BuildingBlock: UVAHIK_clean_linker_0, # of connection points: 2
#     Edge 69, Type (0, 0), BuildingBlock: UVAHIK_clean_linker_0, # of connection points: 2
#     Edge 70, Type (0, 0), BuildingBlock: UVAHIK_clean_linker_0, # of connection points: 2
#     Edge 71, Type (0, 0), BuildingBlock: UVAHIK_clean_linker_0, # of connection points: 2
#     Edge 72, Type (0, 0), BuildingBlock: UVAHIK_clean_linker_0, # of connection points: 2
#     Edge 73, Type (0, 0), BuildingBlock: UVAHIK_clean_linker_0, # of connection points: 2
#     Edge 74, Type (0, 0), BuildingBlock: UVAHIK_clean_linker_0, # of connection points: 2
#     Edge 75, Type (0, 0), BuildingBlock: UVAHIK_clean_linker_0, # of connection points: 2
#     Edge 76, Type (0, 0), BuildingBlock: UVAHIK_clean_linker_0, # of connection points: 2
#     Edge 77, Type (0, 0), BuildingBlock: UVAHIK_clean_linker_0, # of connection points: 2
#     Edge 78, Type (0, 0), BuildingBlock: UVAHIK_clean_linker_0, # of connection points: 2
#     Edge 79, Type (0, 0), BuildingBlock: UVAHIK_clean_linker_0, # of connection points: 2
#     Edge 80, Type (0, 0), BuildingBlock: UVAHIK_clean_linker_0, # of connection points: 2
#     Edge 81, Type (0, 0), BuildingBlock: UVAHIK_clean_linker_0, # of connection points: 2
#     Edge 82, Type (0, 0), BuildingBlock: UVAHIK_clean_linker_0, # of connection points: 2
#     Edge 83, Type (0, 0), BuildingBlock: UVAHIK_clean_linker_0, # of connection points: 2
#     Edge 84, Type (0, 0), BuildingBlock: UVAHIK_clean_linker_0, # of connection points: 2
#     Edge 85, Type (0, 0), BuildingBlock: UVAHIK_clean_linker_0, # of connection points: 2
#     Edge 86, Type (0, 0), BuildingBlock: UVAHIK_clean_linker_0, # of connection points: 2
#     Edge 87, Type (0, 0), BuildingBlock: UVAHIK_clean_linker_0, # of connection points: 2
#     Edge 88, Type (0, 0), BuildingBlock: UVAHIK_clean_linker_0, # of connection points: 2
#     Edge 89, Type (0, 0), BuildingBlock: UVAHIK_clean_linker_0, # of connection points: 2
#     Edge 90, Type (0, 0), BuildingBlock: UVAHIK_clean_linker_0, # of connection points: 2
#     Edge 91, Type (0, 0), BuildingBlock: UVAHIK_clean_linker_0, # of connection points: 2
#     Edge 92, Type (0, 0), BuildingBlock: UVAHIK_clean_linker_0, # of connection points: 2
#     Edge 93, Type (0, 0), BuildingBlock: UVAHIK_clean_linker_0, # of connection points: 2
#     Edge 94, Type (0, 0), BuildingBlock: UVAHIK_clean_linker_0, # of connection points: 2
#     Edge 95, Type (0, 0), BuildingBlock: UVAHIK_clean_linker_0, # of connection points: 2
#     Edge 96, Type (0, 0), BuildingBlock: UVAHIK_clean_linker_0, # of connection points: 2
#     Edge 97, Type (0, 0), BuildingBlock: UVAHIK_clean_linker_0, # of connection points: 2
#     Edge 98, Type (0, 0), BuildingBlock: UVAHIK_clean_linker_0, # of connection points: 2
#     Edge 99, Type (0, 0), BuildingBlock: UVAHIK_clean_linker_0, # of connection points: 2
#     Edge 100, Type (0, 0), BuildingBlock: UVAHIK_clean_linker_0, # of connection points: 2
#     Edge 101, Type (0, 0), BuildingBlock: UVAHIK_clean_linker_0, # of connection points: 2
#     Edge 102, Type (0, 0), BuildingBlock: UVAHIK_clean_linker_0, # of connection points: 2
#     Edge 103, Type (0, 0), BuildingBlock: UVAHIK_clean_linker_0, # of connection points: 2
#     Edge 104, Type (0, 0), BuildingBlock: UVAHIK_clean_linker_0, # of connection points: 2
#     Edge 105, Type (0, 0), BuildingBlock: UVAHIK_clean_linker_0, # of connection points: 2
#     Edge 106, Type (0, 0), BuildingBlock: UVAHIK_clean_linker_0, # of connection points: 2
#     Edge 107, Type (0, 0), BuildingBlock: UVAHIK_clean_linker_0, # of connection points: 2
#     Edge 108, Type (0, 0), BuildingBlock: UVAHIK_clean_linker_0, # of connection points: 2
#     Edge 109, Type (0, 0), BuildingBlock: UVAHIK_clean_linker_0, # of connection points: 2
#     Edge 110, Type (0, 0), BuildingBlock: UVAHIK_clean_linker_0, # of connection points: 2
#     Edge 111, Type (0, 0), BuildingBlock: UVAHIK_clean_linker_0, # of connection points: 2
# Relax obj value: 0.052
# Max RMSD: 0.100
# Mean RMSD: 0.100
data_MOF--net-wgl--node1-XOMCOT_clean_sbu_0--edge1-UVAHIK_clean_linker_0
_symmetry_space_group_name_H-M    P1
_symmetry_Int_Tables_number       1
_symmetry_cell_setting            triclinic
loop_
_symmetry_equiv_pos_as_xyz
'x, y, z'
_cell_length_a     72.103248
_cell_length_b     72.119756
_cell_length_c     66.773418
_cell_angle_alpha  89.943785
_cell_angle_beta   90.020257
_cell_angle_gamma 89.969217
loop_
_atom_site_label
_atom_site_type_symbol
_atom_site_fract_x
_atom_site_fract_y
_atom_site_fract_z
_atom_type_partial_charge
Co0 Co 0.29912 0.33324 0.14361 0.0
C1 C 0.32174 0.29763 0.14272 0.0
C2 C 0.29488 0.29569 0.12911 0.0
C3 C 0.30274 0.27839 0.12907 0.0
N4 N 0.30672 0.3079 0.13756 0.0
N5 N 0.31959 0.27963 0.13759 0.0
H6 H 0.33362 0.30266 0.15081 0.0
H7 H 0.28111 0.29912 0.12384 0.0
C8 C 0.29879 0.33058 0.09947 0.0
O9 O 0.31514 0.32267 0.10123 0.0
N10 N 0.29038 0.35798 0.14944 0.0
C11 C 0.29865 0.37095 0.16084 0.0
C12 C 0.28814 0.38693 0.16009 0.0
C13 C 0.27491 0.36607 0.14212 0.0
N14 N 0.27322 0.38383 0.14832 0.0
C15 C 0.33825 0.33953 0.14874 0.0
C16 C 0.34226 0.36496 0.1181 0.0
C17 C 0.35795 0.35985 0.12922 0.0
C18 C 0.35572 0.3471 0.14488 0.0
C19 C 0.32506 0.35699 0.12244 0.0
N20 N 0.32337 0.34364 0.1369 0.0
H21 H 0.33662 0.33083 0.16175 0.0
H22 H 0.31304 0.36188 0.11437 0.0
H23 H 0.31153 0.369 0.16888 0.0
H24 H 0.26535 0.35923 0.13206 0.0
O25 O 0.30325 0.3287 0.17169 0.0
O26 O 0.27694 0.32298 0.1557 0.0
O27 O 0.29009 0.33598 0.11511 0.0
C28 C 0.2865 0.32211 0.17225 0.0
H29 H 0.2965 0.26578 0.12344 0.0
H30 H 0.29122 0.39981 0.16769 0.0
H31 H 0.34319 0.37513 0.1062 0.0
H32 H 0.36722 0.34349 0.15456 0.0
Co33 Co 0.93478 0.04638 0.39304 0.0
C34 C 0.97039 0.06891 0.38845 0.0
C35 C 0.97057 0.04225 0.37423 0.0
C36 C 0.98728 0.05059 0.37065 0.0
N37 N 0.95966 0.05381 0.38491 0.0
N38 N 0.98717 0.06729 0.37955 0.0
H39 H 0.96637 0.08079 0.39718 0.0
H40 H 0.96652 0.02857 0.36927 0.0
C41 C 0.93452 0.04622 0.34874 0.0
O42 O 0.94248 0.06257 0.35 0.0
N43 N 0.9105 0.0376 0.40076 0.0
C44 C 0.89916 0.0443 0.41504 0.0
C45 C 0.88324 0.03363 0.41541 0.0
C46 C 0.90144 0.02305 0.39268 0.0
N47 N 0.8847 0.02033 0.40127 0.0
C48 C 0.92918 0.0856 0.39824 0.0
C49 C 0.90157 0.08958 0.36986 0.0
C50 C 0.90783 0.10539 0.38006 0.0
C51 C 0.92163 0.10314 0.39466 0.0
C52 C 0.90954 0.0723 0.37391 0.0
N53 N 0.92396 0.07062 0.38712 0.0
H54 H 0.93891 0.08402 0.41038 0.0
H55 H 0.90396 0.06024 0.36648 0.0
H56 H 0.90221 0.05613 0.42442 0.0
H57 H 0.90712 0.01444 0.38092 0.0
O58 O 0.94115 0.05064 0.42064 0.0
O59 O 0.9459 0.02422 0.40455 0.0
O60 O 0.93008 0.03745 0.36472 0.0
C61 C 0.94773 0.03389 0.42094 0.0
H62 H 0.9988 0.04473 0.3624 0.0
H63 H 0.87139 0.03571 0.4251 0.0
H64 H 0.89065 0.09051 0.35878 0.0
H65 H 0.92623 0.11475 0.40366 0.0
Co66 Co 0.22172 0.68575 0.64394 0.0
C67 C 0.20156 0.72286 0.64309 0.0
C68 C 0.22652 0.72183 0.62574 0.0
C69 C 0.21962 0.73948 0.62481 0.0
N70 N 0.21508 0.71114 0.63678 0.0
N71 N 0.20397 0.74024 0.6358 0.0
H72 H 0.19074 0.71927 0.6535 0.0
H73 H 0.23936 0.71714 0.61909 0.0
C74 C 0.22153 0.68639 0.59959 0.0
O75 O 0.20554 0.69506 0.60103 0.0
N76 N 0.22966 0.66093 0.65074 0.0
C77 C 0.22093 0.6483 0.66221 0.0
C78 C 0.23104 0.63202 0.66182 0.0
C79 C 0.245 0.65236 0.64377 0.0
N80 N 0.24617 0.63463 0.65023 0.0
C81 C 0.18252 0.68175 0.64994 0.0
C82 C 0.17653 0.655 0.62106 0.0
C83 C 0.16142 0.66132 0.63239 0.0
C84 C 0.16466 0.67481 0.64707 0.0
C85 C 0.19422 0.66233 0.62447 0.0
N86 N 0.19692 0.67621 0.63814 0.0
H87 H 0.18481 0.6911 0.66225 0.0
H88 H 0.20581 0.65645 0.61644 0.0
H89 H 0.20797 0.65064 0.66997 0.0
H90 H 0.25481 0.65883 0.63369 0.0
O91 O 0.21816 0.69146 0.6718 0.0
O92 O 0.24446 0.69568 0.65529 0.0
O93 O 0.23014 0.68135 0.61545 0.0
C94 C 0.23513 0.69746 0.67191 0.0
H95 H 0.2258 0.75089 0.61668 0.0
H96 H 0.22751 0.61927 0.66947 0.0
H97 H 0.17483 0.64403 0.61016 0.0
H98 H 0.15353 0.67985 0.6565 0.0
Co99 Co 0.58237 0.97099 0.89096 0.0
C100 C 0.54943 0.94626 0.88823 0.0
C101 C 0.55036 0.96636 0.86445 0.0
C102 C 0.53496 0.95544 0.86179 0.0
N103 N 0.55957 0.96046 0.88083 0.0
N104 N 0.53439 0.94291 0.87673 0.0
H105 H 0.55302 0.93851 0.90157 0.0
H106 H 0.55434 0.97796 0.85519 0.0
C107 C 0.60365 0.97886 0.85329 0.0
O108 O 0.61825 0.97113 0.86164 0.0
N109 N 0.60507 0.98254 0.90099 0.0
C110 C 0.61519 0.97855 0.91747 0.0
C111 C 0.62974 0.99093 0.91883 0.0
C112 C 0.6131 0.99795 0.89333 0.0
N113 N 0.6285 1.00297 0.90345 0.0
C114 C 0.60103 0.93739 0.90215 0.0
C115 C 0.60143 0.92131 0.86462 0.0
C116 C 0.60903 0.91143 0.88078 0.0
C117 C 0.60848 0.91968 0.89979 0.0
C118 C 0.59389 0.93896 0.86772 0.0
N119 N 0.59456 0.94722 0.88615 0.0
H120 H 0.59965 0.94273 0.91709 0.0
H121 H 0.58715 0.94577 0.85529 0.0
H122 H 0.61216 0.96785 0.92824 0.0
H123 H 0.60768 1.00558 0.88067 0.0
O124 O 0.57416 0.96644 0.91791 0.0
O125 O 0.56841 0.99216 0.90084 0.0
O126 O 0.58838 0.98007 0.86299 0.0
C127 C 0.56628 0.98262 0.91729 0.0
H128 H 0.52468 0.95685 0.85006 0.0
H129 H 0.64051 0.9909 0.93013 0.0
H130 H 0.60117 0.91547 0.84969 0.0
H131 H 0.61319 0.91229 0.91297 0.0
Co132 Co 0.29705 0.68627 0.36133 0.0
C133 C 0.31782 0.72211 0.36406 0.0
C134 C 0.29701 0.71893 0.38683 0.0
C135 C 0.30459 0.73623 0.3886 0.0
N136 N 0.30529 0.70999 0.37155 0.0
N137 N 0.31754 0.73836 0.37422 0.0
H138 H 0.32626 0.71946 0.35097 0.0
H139 H 0.28564 0.71359 0.39566 0.0
C140 C 0.29152 0.666 0.40014 0.0
O141 O 0.30187 0.65238 0.39335 0.0
N142 N 0.28732 0.66268 0.35129 0.0
C143 C 0.2896 0.65482 0.33308 0.0
C144 C 0.27812 0.63957 0.3315 0.0
C145 C 0.27367 0.65257 0.35993 0.0
N146 N 0.26822 0.63813 0.34853 0.0
C147 C 0.33047 0.6661 0.35248 0.0
C148 C 0.34789 0.67211 0.3888 0.0
C149 C 0.35673 0.66112 0.37439 0.0
C150 C 0.34791 0.65838 0.35595 0.0
C151 C 0.33026 0.67941 0.38479 0.0
N152 N 0.32143 0.67573 0.36708 0.0
H153 H 0.32449 0.6646 0.33786 0.0
H154 H 0.32361 0.68781 0.39609 0.0
H155 H 0.29827 0.66019 0.32122 0.0
H156 H 0.26685 0.65626 0.37375 0.0
O157 O 0.30187 0.69454 0.33446 0.0
O158 O 0.27527 0.69858 0.35058 0.0
O159 O 0.28783 0.67998 0.38905 0.0
C160 C 0.28517 0.70133 0.33448 0.0
H161 H 0.30059 0.74663 0.39945 0.0
H162 H 0.27694 0.63047 0.31869 0.0
H163 H 0.35436 0.67477 0.40316 0.0
H164 H 0.3546 0.65058 0.34412 0.0
Co165 Co 0.58568 0.04637 0.60954 0.0
C166 C 0.54951 0.06635 0.61287 0.0
C167 C 0.55198 0.04326 0.63306 0.0
C168 C 0.53465 0.05076 0.63518 0.0
N169 N 0.56135 0.05304 0.6192 0.0
N170 N 0.53296 0.06517 0.62239 0.0
H171 H 0.5527 0.07618 0.60111 0.0
H172 H 0.55716 0.0311 0.64069 0.0
C173 C 0.60674 0.03801 0.64721 0.0
O174 O 0.62103 0.04693 0.63969 0.0
N175 N 0.61004 0.03841 0.60012 0.0
C176 C 0.62241 0.04681 0.58795 0.0
C177 C 0.63808 0.03592 0.58662 0.0
C178 C 0.61814 0.02213 0.60519 0.0
N179 N 0.63543 0.02046 0.5976 0.0
C180 C 0.59917 0.08295 0.60126 0.0
C181 C 0.59968 0.09583 0.6402 0.0
C182 C 0.60643 0.10728 0.62487 0.0
C183 C 0.60564 0.10078 0.60515 0.0
C184 C 0.59344 0.07792 0.6356 0.0
N185 N 0.59443 0.07121 0.61645 0.0
H186 H 0.59772 0.07874 0.58587 0.0
H187 H 0.58763 0.06959 0.64748 0.0
H188 H 0.62055 0.05983 0.58034 0.0
H189 H 0.61178 0.01206 0.61504 0.0
O190 O 0.57794 0.05138 0.58249 0.0
O191 O 0.57496 0.02422 0.59761 0.0
O192 O 0.59175 0.03646 0.63709 0.0
C193 C 0.57216 0.03436 0.5817 0.0
H194 H 0.52406 0.04581 0.64533 0.0
H195 H 0.65049 0.03917 0.57821 0.0
H196 H 0.59943 0.10056 0.65558 0.0
H197 H 0.60976 0.10953 0.59272 0.0
Co198 Co 0.22113 0.3327 0.85935 0.0
C199 C 0.19988 0.29717 0.86077 0.0
C200 C 0.22447 0.29697 0.879 0.0
C201 C 0.21669 0.27964 0.8796 0.0
N202 N 0.214 0.30795 0.86724 0.0
N203 N 0.20131 0.27972 0.86813 0.0
H204 H 0.18937 0.3017 0.85027 0.0
H205 H 0.23733 0.30111 0.88604 0.0
C206 C 0.22877 0.35121 0.89874 0.0
O207 O 0.22042 0.36626 0.89224 0.0
N208 N 0.22953 0.35746 0.85169 0.0
C209 C 0.22184 0.37004 0.8392 0.0
C210 C 0.23277 0.38569 0.83883 0.0
C211 C 0.24553 0.36545 0.85792 0.0
N212 N 0.24761 0.38284 0.8507 0.0
C213 C 0.18502 0.3472 0.85064 0.0
C214 C 0.17124 0.34659 0.88922 0.0
C215 C 0.16055 0.35463 0.87398 0.0
C216 C 0.16742 0.35434 0.8544 0.0
C217 C 0.18897 0.33976 0.88478 0.0
N218 N 0.1962 0.3414 0.8659 0.0
H219 H 0.18955 0.34622 0.83531 0.0
H220 H 0.19677 0.3331 0.89655 0.0
H221 H 0.2094 0.36822 0.83054 0.0
H222 H 0.25518 0.35884 0.86809 0.0
O223 O 0.21702 0.32638 0.8317 0.0
O224 O 0.2436 0.32247 0.84783 0.0
O225 O 0.23021 0.33696 0.88749 0.0
C226 C 0.23403 0.32044 0.83141 0.0
H227 H 0.22211 0.26774 0.8876 0.0
H228 H 0.23007 0.39818 0.8303 0.0
H229 H 0.16612 0.34592 0.90445 0.0
H230 H 0.15918 0.3595 0.84201 0.0
Co231 Co 0.93393 0.97221 0.11024 0.0
C232 C 0.97025 0.95253 0.11348 0.0
C233 C 0.96818 0.97645 0.13255 0.0
C234 C 0.98582 0.96949 0.13403 0.0
N235 N 0.95842 0.96589 0.1197 0.0
N236 N 0.98714 0.95453 0.12202 0.0
H237 H 0.96687 0.94221 0.10229 0.0
H238 H 0.96304 0.98887 0.13972 0.0
C239 C 0.91309 0.97922 0.14821 0.0
O240 O 0.89934 0.96926 0.14109 0.0
N241 N 0.90936 0.97992 0.10115 0.0
C242 C 0.89686 0.97149 0.08917 0.0
C243 C 0.88109 0.98229 0.08815 0.0
C244 C 0.90118 0.99607 0.10653 0.0
N245 N 0.8838 0.9977 0.09917 0.0
C246 C 0.92123 0.93552 0.10128 0.0
C247 C 0.92226 0.92157 0.13979 0.0
C248 C 0.91625 0.90997 0.12423 0.0
C249 C 0.91598 0.9172 0.10473 0.0
C250 C 0.92736 0.93993 0.13563 0.0
N251 N 0.92575 0.94706 0.1167 0.0
H252 H 0.92208 0.94023 0.086 0.0
H253 H 0.93301 0.94821 0.14762 0.0
H254 H 0.89867 0.95853 0.08149 0.0
H255 H 0.90762 1.00612 0.11634 0.0
O256 O 0.94175 0.96783 0.08309 0.0
O257 O 0.94424 0.99475 0.09876 0.0
O258 O 0.9278 0.98166 0.13786 0.0
C259 C 0.9474 0.98491 0.08274 0.0
H260 H 0.99698 0.9752 0.14294 0.0
H261 H 0.8686 0.97904 0.07989 0.0
H262 H 0.9235 0.91639 0.15496 0.0
H263 H 0.91176 0.9088 0.0921 0.0
Co264 Co 0.72207 0.68407 0.85943 0.0
C265 C 0.70021 0.72001 0.86465 0.0
C266 C 0.72801 0.72049 0.87604 0.0
C267 C 0.72016 0.73748 0.8794 0.0
N268 N 0.71556 0.70934 0.867 0.0
N269 N 0.70267 0.73721 0.87234 0.0
H270 H 0.68747 0.71555 0.85779 0.0
H271 H 0.74199 0.71644 0.87998 0.0
C272 C 0.72196 0.6845 0.90369 0.0
O273 O 0.70589 0.69299 0.90218 0.0
N274 N 0.72982 0.65932 0.85227 0.0
C275 C 0.72099 0.64699 0.84052 0.0
C276 C 0.73103 0.63068 0.84047 0.0
C277 C 0.74513 0.65054 0.85897 0.0
N278 N 0.74621 0.63297 0.85206 0.0
C279 C 0.68302 0.67974 0.85285 0.0
C280 C 0.67674 0.65337 0.88211 0.0
C281 C 0.66179 0.65949 0.87041 0.0
C282 C 0.66518 0.6727 0.85547 0.0
C283 C 0.69446 0.66068 0.87883 0.0
N284 N 0.69726 0.67448 0.86508 0.0
H285 H 0.68541 0.68927 0.84067 0.0
H286 H 0.70596 0.6549 0.8871 0.0
H287 H 0.70805 0.64958 0.83281 0.0
H288 H 0.75503 0.65676 0.86913 0.0
O289 O 0.71844 0.69015 0.83164 0.0
O290 O 0.74483 0.69399 0.84807 0.0
O291 O 0.73064 0.67951 0.88787 0.0
C292 C 0.73544 0.69604 0.83152 0.0
H293 H 0.72697 0.74925 0.88624 0.0
H294 H 0.72745 0.61813 0.83247 0.0
H295 H 0.67488 0.6426 0.89324 0.0
H296 H 0.65413 0.67755 0.8458 0.0
Co297 Co 0.08387 0.97271 0.61076 0.0
C298 C 0.04798 0.95211 0.61313 0.0
C299 C 0.04924 0.97592 0.63245 0.0
C300 C 0.03174 0.96861 0.63353 0.0
N301 N 0.05943 0.96565 0.61971 0.0
N302 N 0.03091 0.95374 0.62137 0.0
H303 H 0.05173 0.94197 0.60189 0.0
H304 H 0.05396 0.98842 0.63977 0.0
C305 C 0.10349 0.98066 0.64939 0.0
O306 O 0.11785 0.97124 0.64279 0.0
N307 N 0.10833 0.9812 0.60217 0.0
C308 C 0.12093 0.97348 0.58974 0.0
C309 C 0.13645 0.98463 0.58905 0.0
C310 C 0.11615 0.99738 0.60802 0.0
N311 N 0.13343 0.99962 0.60064 0.0
C312 C 0.0987 0.93666 0.60251 0.0
C313 C 0.09815 0.92313 0.64122 0.0
C314 C 0.10618 0.91234 0.62608 0.0
C315 C 0.10588 0.9191 0.60644 0.0
C316 C 0.0913 0.94085 0.63661 0.0
N317 N 0.0929 0.94795 0.61766 0.0
H318 H 0.0976 0.94104 0.58714 0.0
H319 H 0.0847 0.94878 0.64831 0.0
H320 H 0.11929 0.96084 0.58142 0.0
H321 H 0.10951 1.00706 0.61811 0.0
O322 O 0.07682 0.96784 0.58346 0.0
O323 O 0.07304 0.99479 0.59878 0.0
O324 O 0.08905 0.98254 0.63847 0.0
C325 C 0.07066 0.98475 0.58275 0.0
H326 H 0.02031 0.97407 0.64223 0.0
H327 H 0.14896 0.98195 0.58059 0.0
H328 H 0.09748 0.9181 0.65649 0.0
H329 H 0.11101 0.91077 0.59413 0.0
Co330 Co 0.79695 0.33399 0.35825 0.0
C331 C 0.81723 0.297 0.35991 0.0
C332 C 0.79219 0.29821 0.37713 0.0
C333 C 0.79893 0.28048 0.37808 0.0
N334 N 0.80371 0.30879 0.36603 0.0
N335 N 0.81463 0.27968 0.36724 0.0
H336 H 0.8281 0.3004 0.34949 0.0
H337 H 0.77929 0.30297 0.3836 0.0
C338 C 0.79747 0.33449 0.40251 0.0
O339 O 0.81374 0.32635 0.40107 0.0
N340 N 0.78892 0.35864 0.35086 0.0
C341 C 0.79748 0.37085 0.33872 0.0
C342 C 0.78743 0.38716 0.33866 0.0
C343 C 0.77373 0.3675 0.35779 0.0
N344 N 0.7725 0.38501 0.35065 0.0
C345 C 0.83612 0.33808 0.3522 0.0
C346 C 0.84184 0.36586 0.37998 0.0
C347 C 0.85698 0.35936 0.36884 0.0
C348 C 0.85389 0.34534 0.35472 0.0
C349 C 0.82423 0.35822 0.3769 0.0
N350 N 0.82167 0.34384 0.36382 0.0
H351 H 0.83392 0.32836 0.34023 0.0
H352 H 0.81258 0.36422 0.38472 0.0
H353 H 0.81028 0.36819 0.33078 0.0
H354 H 0.76405 0.3614 0.36828 0.0
O355 O 0.80063 0.32783 0.33053 0.0
O356 O 0.77429 0.32373 0.34701 0.0
O357 O 0.78846 0.33877 0.38665 0.0
C358 C 0.78368 0.32179 0.33044 0.0
H359 H 0.79259 0.26896 0.38591 0.0
H360 H 0.79085 0.39961 0.3304 0.0
H361 H 0.84344 0.37722 0.39044 0.0
H362 H 0.86506 0.34018 0.34543 0.0
Co363 Co 0.43319 0.04636 0.10915 0.0
C364 C 0.46861 0.06703 0.11504 0.0
C365 C 0.46658 0.04246 0.13318 0.0
C366 C 0.48316 0.05095 0.13727 0.0
N367 N 0.45737 0.05261 0.11948 0.0
N368 N 0.48444 0.06635 0.12591 0.0
H369 H 0.46526 0.07777 0.1043 0.0
H370 H 0.46171 0.02959 0.13958 0.0
C371 C 0.41158 0.03646 0.14614 0.0
O372 O 0.39716 0.04527 0.13876 0.0
N373 N 0.40894 0.03891 0.09906 0.0
C374 C 0.39631 0.04831 0.0881 0.0
C375 C 0.38055 0.03762 0.0863 0.0
C376 C 0.40087 0.02238 0.103 0.0
N377 N 0.38338 0.02137 0.09584 0.0
C378 C 0.42112 0.08364 0.10176 0.0
C379 C 0.41878 0.09491 0.1412 0.0
C380 C 0.41418 0.1075 0.12602 0.0
C381 C 0.41575 0.10179 0.10608 0.0
C382 C 0.42448 0.07695 0.13616 0.0
N383 N 0.42449 0.07109 0.11666 0.0
H384 H 0.42281 0.07982 0.08626 0.0
H385 H 0.42934 0.06802 0.14802 0.0
H386 H 0.39799 0.06199 0.08195 0.0
H387 H 0.40734 0.01172 0.11204 0.0
O388 O 0.4414 0.05197 0.08239 0.0
O389 O 0.44391 0.02442 0.09678 0.0
O390 O 0.42674 0.03564 0.13623 0.0
C391 C 0.44701 0.03491 0.08122 0.0
H392 H 0.49371 0.04597 0.14749 0.0
H393 H 0.36787 0.04165 0.07878 0.0
H394 H 0.41847 0.09906 0.15678 0.0
H395 H 0.41273 0.11124 0.09389 0.0
Co396 Co 0.72008 0.33352 0.64231 0.0
C397 C 0.69799 0.29834 0.64104 0.0
C398 C 0.7202 0.29928 0.61962 0.0
C399 C 0.71207 0.28218 0.61861 0.0
N400 N 0.71138 0.3095 0.63352 0.0
N401 N 0.69823 0.28144 0.63218 0.0
H402 H 0.68893 0.30217 0.65328 0.0
H403 H 0.73233 0.30362 0.61139 0.0
C404 C 0.72624 0.3523 0.60272 0.0
O405 O 0.71732 0.36693 0.60942 0.0
N406 N 0.73028 0.35738 0.65097 0.0
C407 C 0.72751 0.36656 0.66835 0.0
C408 C 0.73937 0.38155 0.66925 0.0
C409 C 0.7446 0.36646 0.64222 0.0
N410 N 0.75002 0.38153 0.65268 0.0
C411 C 0.68656 0.35358 0.65087 0.0
C412 C 0.66958 0.3479 0.61425 0.0
C413 C 0.66051 0.35872 0.62867 0.0
C414 C 0.66912 0.36125 0.64728 0.0
C415 C 0.68717 0.3406 0.61843 0.0
N416 N 0.69582 0.34416 0.63627 0.0
H417 H 0.69233 0.35485 0.66562 0.0
H418 H 0.69388 0.33209 0.60724 0.0
H419 H 0.71832 0.36225 0.68024 0.0
H420 H 0.75173 0.36164 0.62899 0.0
O421 O 0.71555 0.32652 0.66968 0.0
O422 O 0.74183 0.3214 0.65335 0.0
O423 O 0.72899 0.3383 0.61411 0.0
C424 C 0.73214 0.31948 0.66973 0.0
H425 H 0.71631 0.27099 0.60885 0.0
H426 H 0.74026 0.39149 0.68134 0.0
H427 H 0.66327 0.34531 0.5998 0.0
H428 H 0.66225 0.36882 0.65916 0.0
Co429 Co 0.4363 0.97276 0.39089 0.0
C430 C 0.46947 0.94833 0.38687 0.0
C431 C 0.46875 0.97012 0.36488 0.0
C432 C 0.4843 0.95957 0.36163 0.0
N433 N 0.45931 0.96294 0.38047 0.0
N434 N 0.48475 0.94596 0.37544 0.0
H435 H 0.46574 0.93961 0.39944 0.0
H436 H 0.46479 0.98236 0.35659 0.0
C437 C 0.41525 0.98001 0.35304 0.0
O438 O 0.40097 0.97151 0.36114 0.0
N439 N 0.41344 0.98379 0.40135 0.0
C440 C 0.40505 0.98089 0.41918 0.0
C441 C 0.39021 0.99285 0.42103 0.0
C442 C 0.40414 0.99834 0.39332 0.0
N443 N 0.38957 1.00368 0.40461 0.0
C444 C 0.41558 0.93977 0.4003 0.0
C445 C 0.41909 0.9231 0.36321 0.0
C446 C 0.40911 0.91394 0.37825 0.0
C447 C 0.40758 0.92243 0.39704 0.0
C448 C 0.42675 0.94055 0.36707 0.0
N449 N 0.42437 0.94903 0.38523 0.0
H450 H 0.41522 0.94536 0.41517 0.0
H451 H 0.43473 0.94722 0.35541 0.0
H452 H 0.40971 0.97138 0.43062 0.0
H453 H 0.40831 1.00549 0.37985 0.0
O454 O 0.44459 0.96746 0.41767 0.0
O455 O 0.44998 0.99378 0.40149 0.0
O456 O 0.4302 0.98226 0.3631 0.0
C457 C 0.45226 0.98376 0.41761 0.0
H458 H 0.49477 0.96197 0.35029 0.0
H459 H 0.38069 0.99354 0.43354 0.0
H460 H 0.42086 0.91691 0.34857 0.0
H461 H 0.40067 0.91549 0.40935 0.0
Co462 Co 0.80072 0.6846 0.14328 0.0
C463 C 0.82383 0.71882 0.14158 0.0
C464 C 0.80109 0.71926 0.12073 0.0
C465 C 0.81114 0.73528 0.11835 0.0
N466 N 0.80916 0.70884 0.13504 0.0
N467 N 0.82532 0.73497 0.13146 0.0
H468 H 0.83331 0.71426 0.15315 0.0
H469 H 0.78868 0.71553 0.11261 0.0
C470 C 0.7926 0.6655 0.10431 0.0
O471 O 0.80035 0.65032 0.11132 0.0
N472 N 0.79121 0.66033 0.15123 0.0
C473 C 0.79908 0.64676 0.16231 0.0
C474 C 0.78758 0.63151 0.16231 0.0
C475 C 0.77466 0.65328 0.14541 0.0
N476 N 0.7723 0.63559 0.15158 0.0
C477 C 0.83647 0.66971 0.15293 0.0
C478 C 0.8511 0.67028 0.11472 0.0
C479 C 0.86218 0.66374 0.1305 0.0
C480 C 0.85459 0.66363 0.14983 0.0
C481 C 0.8329 0.67613 0.11851 0.0
N482 N 0.82542 0.67488 0.1373 0.0
H483 H 0.83151 0.67061 0.16811 0.0
H484 H 0.82516 0.68228 0.10637 0.0
H485 H 0.81222 0.64742 0.16985 0.0
H486 H 0.76497 0.66064 0.13589 0.0
O487 O 0.8047 0.69121 0.17088 0.0
O488 O 0.77855 0.696 0.15427 0.0
O489 O 0.79173 0.6801 0.1151 0.0
C490 C 0.78797 0.69787 0.17081 0.0
H491 H 0.80818 0.74643 0.10796 0.0
H492 H 0.79037 0.61834 0.16949 0.0
H493 H 0.85659 0.67143 0.09968 0.0
H494 H 0.86256 0.65895 0.16261 0.0
Co495 Co 0.08336 0.04699 0.89508 0.0
C496 C 0.0476 0.06939 0.8936 0.0
C497 C 0.04509 0.04134 0.88334 0.0
C498 C 0.0278 0.04925 0.88316 0.0
N499 N 0.05762 0.05385 0.88988 0.0
N500 N 0.02941 0.06684 0.88958 0.0
H501 H 0.05302 0.08209 0.89968 0.0
H502 H 0.04832 0.02718 0.8793 0.0
C503 C 0.07871 0.04539 0.85103 0.0
O504 O 0.06957 0.06108 0.85268 0.0
N505 N 0.10852 0.03901 0.90015 0.0
C506 C 0.12168 0.04786 0.91076 0.0
C507 C 0.13786 0.03767 0.90976 0.0
C508 C 0.11671 0.02352 0.89305 0.0
N509 N 0.13471 0.02236 0.89862 0.0
C510 C 0.08905 0.08622 0.89979 0.0
C511 C 0.11247 0.09096 0.86746 0.0
C512 C 0.10764 0.1065 0.87896 0.0
C513 C 0.09593 0.10388 0.89547 0.0
C514 C 0.10518 0.07354 0.87227 0.0
N515 N 0.09281 0.07147 0.88764 0.0
H516 H 0.08093 0.08438 0.91321 0.0
H517 H 0.10988 0.06169 0.86383 0.0
H518 H 0.11972 0.0609 0.91847 0.0
H519 H 0.10973 0.01353 0.8836 0.0
O520 O 0.07948 0.05129 0.92327 0.0
O521 O 0.07411 0.02466 0.90788 0.0
O522 O 0.08556 0.03766 0.86662 0.0
C523 C 0.0733 0.0344 0.92429 0.0
H524 H 0.01498 0.04261 0.8787 0.0
H525 H 0.15091 0.04123 0.91678 0.0
H526 H 0.12185 0.09219 0.85487 0.0
H527 H 0.09252 0.11529 0.90534 0.0
Co528 Co 0.79752 0.83302 0.64387 0.0
C529 C 0.82025 0.79758 0.6388 0.0
C530 C 0.79252 0.79647 0.62729 0.0
C531 C 0.80072 0.77964 0.62405 0.0
N532 N 0.80471 0.80793 0.6363 0.0
N533 N 0.81818 0.78031 0.63118 0.0
H534 H 0.83284 0.80229 0.6458 0.0
H535 H 0.77845 0.80019 0.62335 0.0
C536 C 0.79689 0.83243 0.59967 0.0
O537 O 0.8133 0.82456 0.60095 0.0
N538 N 0.78904 0.85754 0.65105 0.0
C539 C 0.79754 0.87013 0.66275 0.0
C540 C 0.78721 0.88626 0.66252 0.0
C541 C 0.77362 0.86598 0.64411 0.0
N542 N 0.77218 0.8836 0.65079 0.0
C543 C 0.83675 0.83862 0.64879 0.0
C544 C 0.84067 0.86561 0.61972 0.0
C545 C 0.85644 0.85979 0.63031 0.0
C546 C 0.85425 0.84624 0.64519 0.0
C547 C 0.82345 0.85758 0.6238 0.0
N548 N 0.82179 0.8435 0.63742 0.0
H549 H 0.83519 0.8291 0.66114 0.0
H550 H 0.81138 0.86298 0.61619 0.0
H551 H 0.81052 0.86788 0.67051 0.0
H552 H 0.76397 0.85953 0.63383 0.0
O553 O 0.80197 0.82723 0.67161 0.0
O554 O 0.77538 0.82242 0.65582 0.0
O555 O 0.78822 0.83708 0.61561 0.0
C556 C 0.78516 0.82079 0.67216 0.0
H557 H 0.79419 0.76769 0.61725 0.0
H558 H 0.79055 0.89897 0.67033 0.0
H559 H 0.84157 0.87636 0.60843 0.0
H560 H 0.86583 0.84198 0.65445 0.0
Co561 Co 0.43487 0.54613 0.89249 0.0
C562 C 0.47053 0.56844 0.88876 0.0
C563 C 0.4712 0.54177 0.87461 0.0
C564 C 0.48802 0.55014 0.87165 0.0
N565 N 0.45995 0.55333 0.88486 0.0
N566 N 0.48759 0.56686 0.88053 0.0
H567 H 0.46621 0.58031 0.89733 0.0
H568 H 0.46734 0.52805 0.86957 0.0
C569 C 0.4356 0.54499 0.84818 0.0
O570 O 0.44365 0.56132 0.84916 0.0
N571 N 0.41036 0.53771 0.89981 0.0
C572 C 0.39782 0.54634 0.91147 0.0
C573 C 0.38176 0.53593 0.91165 0.0
C574 C 0.40195 0.52214 0.89328 0.0
N575 N 0.38439 0.52072 0.90021 0.0
C576 C 0.42923 0.58537 0.89729 0.0
C577 C 0.40257 0.58943 0.86791 0.0
C578 C 0.40832 0.60518 0.87856 0.0
C579 C 0.4217 0.6029 0.8936 0.0
C580 C 0.41051 0.57216 0.87209 0.0
N581 N 0.42442 0.57042 0.88591 0.0
H582 H 0.43853 0.58377 0.90982 0.0
H583 H 0.40515 0.56013 0.86442 0.0
H584 H 0.40008 0.55942 0.919 0.0
H585 H 0.40839 0.51232 0.8832 0.0
O586 O 0.44074 0.55064 0.92018 0.0
O587 O 0.44556 0.52402 0.9045 0.0
O588 O 0.43063 0.53672 0.86428 0.0
C589 C 0.44719 0.53384 0.92081 0.0
H590 H 0.49982 0.54428 0.86387 0.0
H591 H 0.36912 0.5393 0.91961 0.0
H592 H 0.39195 0.59038 0.85649 0.0
H593 H 0.42588 0.61443 0.90293 0.0
Co594 Co 0.72017 0.18482 0.14293 0.0
C595 C 0.69702 0.22003 0.14006 0.0
C596 C 0.7213 0.21985 0.12153 0.0
C597 C 0.7123 0.23638 0.11871 0.0
N598 N 0.71149 0.2092 0.13436 0.0
N599 N 0.6971 0.23647 0.13033 0.0
H600 H 0.68681 0.21639 0.15114 0.0
H601 H 0.73432 0.21588 0.11474 0.0
C602 C 0.71881 0.18257 0.09865 0.0
O603 O 0.702 0.18953 0.1001 0.0
N604 N 0.72994 0.16101 0.15105 0.0
C605 C 0.72237 0.14875 0.16388 0.0
C606 C 0.7331 0.13289 0.16393 0.0
C607 C 0.74524 0.15263 0.1437 0.0
N608 N 0.74746 0.13537 0.15123 0.0
C609 C 0.68149 0.17838 0.15024 0.0
C610 C 0.67676 0.14998 0.12297 0.0
C611 C 0.66143 0.15608 0.13406 0.0
C612 C 0.66404 0.1703 0.14804 0.0
C613 C 0.69406 0.15839 0.1258 0.0
N614 N 0.69604 0.17318 0.13844 0.0
H615 H 0.68336 0.18843 0.16196 0.0
H616 H 0.70591 0.15279 0.11797 0.0
H617 H 0.7097 0.15101 0.1722 0.0
H618 H 0.75418 0.1588 0.13252 0.0
O619 O 0.71667 0.19168 0.17047 0.0
O620 O 0.74233 0.19695 0.15314 0.0
O621 O 0.72838 0.17959 0.11448 0.0
C622 C 0.7332 0.19877 0.1699 0.0
H623 H 0.71679 0.2477 0.10921 0.0
H624 H 0.73045 0.12045 0.17255 0.0
H625 H 0.67554 0.13847 0.11265 0.0
H626 H 0.65272 0.17511 0.15734 0.0
Co627 Co 0.08376 0.47269 0.38885 0.0
C628 C 0.04928 0.45027 0.38389 0.0
C629 C 0.05099 0.47327 0.36346 0.0
C630 C 0.03479 0.46392 0.35981 0.0
N631 N 0.06018 0.46462 0.37833 0.0
N632 N 0.03371 0.4495 0.37261 0.0
H633 H 0.05267 0.44063 0.39578 0.0
H634 H 0.05556 0.48575 0.35599 0.0
C635 C 0.10567 0.48121 0.35182 0.0
O636 O 0.11994 0.47272 0.35997 0.0
N637 N 0.10732 0.48203 0.39906 0.0
C638 C 0.11912 0.47516 0.41291 0.0
C639 C 0.1342 0.48689 0.41446 0.0
C640 C 0.11507 0.49819 0.39314 0.0
N641 N 0.1317 0.50123 0.40178 0.0
C642 C 0.09845 0.43686 0.39847 0.0
C643 C 0.09945 0.42298 0.35993 0.0
C644 C 0.10482 0.41151 0.37584 0.0
C645 C 0.10411 0.41861 0.39531 0.0
C646 C 0.09353 0.44111 0.36382 0.0
N647 N 0.09395 0.44821 0.38283 0.0
H648 H 0.09695 0.44153 0.41369 0.0
H649 H 0.08802 0.44914 0.35155 0.0
H650 H 0.11722 0.46265 0.42145 0.0
H651 H 0.10874 0.50746 0.38237 0.0
O652 O 0.07537 0.46769 0.41563 0.0
O653 O 0.07155 0.49447 0.39992 0.0
O654 O 0.09032 0.48246 0.36134 0.0
C655 C 0.06879 0.48443 0.41591 0.0
H656 H 0.02432 0.46773 0.34893 0.0
H657 H 0.14632 0.48472 0.42375 0.0
H658 H 0.09915 0.41775 0.34473 0.0
H659 H 0.10775 0.41005 0.40807 0.0
Co660 Co 0.79681 0.18436 0.8591 0.0
C661 C 0.81813 0.21987 0.86118 0.0
C662 C 0.79457 0.21891 0.8809 0.0
C663 C 0.80212 0.23629 0.88185 0.0
N664 N 0.80455 0.20859 0.86801 0.0
N665 N 0.81682 0.23694 0.86943 0.0
H666 H 0.828 0.21603 0.8497 0.0
H667 H 0.78203 0.21441 0.8883 0.0
C668 C 0.78951 0.16484 0.89815 0.0
O669 O 0.79804 0.15004 0.89128 0.0
N670 N 0.78764 0.16021 0.85051 0.0
C671 C 0.79317 0.14909 0.83537 0.0
C672 C 0.78141 0.13399 0.83435 0.0
C673 C 0.77214 0.15207 0.85775 0.0
N674 N 0.76832 0.13585 0.84861 0.0
C675 C 0.83229 0.16874 0.84964 0.0
C676 C 0.84699 0.16964 0.88782 0.0
C677 C 0.85781 0.16224 0.87226 0.0
C678 C 0.85029 0.16232 0.85287 0.0
C679 C 0.82911 0.17627 0.88382 0.0
N680 N 0.82151 0.17473 0.86512 0.0
H681 H 0.82732 0.16947 0.83447 0.0
H682 H 0.8215 0.18283 0.8958 0.0
H683 H 0.80446 0.15179 0.82523 0.0
H684 H 0.76352 0.15809 0.86929 0.0
O685 O 0.80107 0.19155 0.83173 0.0
O686 O 0.7746 0.19566 0.84797 0.0
O687 O 0.78776 0.17927 0.88717 0.0
C688 C 0.78424 0.19795 0.83162 0.0
H689 H 0.79687 0.24781 0.89057 0.0
H690 H 0.78247 0.12253 0.82396 0.0
H691 H 0.85217 0.1703 0.90301 0.0
H692 H 0.85836 0.15785 0.84008 0.0
Co693 Co 0.08653 0.54685 0.10798 0.0
C694 C 0.05218 0.5693 0.11231 0.0
C695 C 0.05362 0.54694 0.13358 0.0
C696 C 0.03764 0.55679 0.13705 0.0
N697 N 0.06285 0.55491 0.11829 0.0
N698 N 0.03676 0.57075 0.12367 0.0
H699 H 0.05572 0.5786 0.10017 0.0
H700 H 0.05808 0.5347 0.14158 0.0
C701 C 0.10826 0.53731 0.14493 0.0
O702 O 0.12278 0.54548 0.13694 0.0
N703 N 0.11024 0.53786 0.0978 0.0
C704 C 0.12274 0.54619 0.08574 0.0
C705 C 0.13814 0.53498 0.08412 0.0
C706 C 0.11798 0.52132 0.10255 0.0
N707 N 0.13521 0.51941 0.09486 0.0
C708 C 0.10031 0.58332 0.09918 0.0
C709 C 0.1028 0.59567 0.13823 0.0
C710 C 0.1078 0.60768 0.12268 0.0
C711 C 0.1062 0.60143 0.10293 0.0
C712 C 0.09663 0.57776 0.13377 0.0
N713 N 0.09651 0.57133 0.11449 0.0
H714 H 0.09836 0.57917 0.08382 0.0
H715 H 0.09139 0.56939 0.14589 0.0
H716 H 0.12119 0.5595 0.07865 0.0
H717 H 0.11152 0.51135 0.11246 0.0
O718 O 0.07823 0.55199 0.08113 0.0
O719 O 0.07451 0.52513 0.0967 0.0
O720 O 0.0929 0.53668 0.13536 0.0
C721 C 0.07167 0.53524 0.08079 0.0
H722 H 0.02725 0.55377 0.14829 0.0
H723 H 0.15066 0.53818 0.07588 0.0
H724 H 0.10307 0.60028 0.15366 0.0
H725 H 0.10946 0.61047 0.09045 0.0
Co726 Co 0.72106 0.83266 0.3592 0.0
C727 C 0.699 0.79761 0.36082 0.0
C728 C 0.72261 0.79762 0.3805 0.0
C729 C 0.71454 0.78043 0.38123 0.0
N730 N 0.71291 0.80841 0.36778 0.0
N731 N 0.69979 0.78038 0.36884 0.0
H732 H 0.68918 0.80192 0.34947 0.0
H733 H 0.73524 0.80171 0.38801 0.0
C734 C 0.72648 0.85114 0.39903 0.0
O735 O 0.71735 0.86569 0.39244 0.0
N736 N 0.73063 0.85683 0.35068 0.0
C737 C 0.72785 0.86571 0.33309 0.0
C738 C 0.73929 0.88099 0.3321 0.0
C739 C 0.74454 0.86646 0.35953 0.0
N740 N 0.7497 0.88149 0.34884 0.0
C741 C 0.68696 0.85139 0.35011 0.0
C742 C 0.66957 0.84477 0.3863 0.0
C743 C 0.65986 0.85433 0.37128 0.0
C744 C 0.66887 0.85762 0.35303 0.0
C745 C 0.68776 0.83877 0.38274 0.0
N746 N 0.69647 0.8426 0.365 0.0
H747 H 0.693 0.85309 0.33554 0.0
H748 H 0.69471 0.83072 0.39415 0.0
H749 H 0.71898 0.86098 0.32111 0.0
H750 H 0.7516 0.86205 0.37299 0.0
O751 O 0.71691 0.82564 0.33177 0.0
O752 O 0.74321 0.82117 0.34831 0.0
O753 O 0.72963 0.83736 0.38748 0.0
C754 C 0.73367 0.81902 0.33186 0.0
H755 H 0.71943 0.76867 0.38984 0.0
H756 H 0.74012 0.89075 0.31981 0.0
H757 H 0.66301 0.84147 0.40045 0.0
H758 H 0.66196 0.86485 0.34091 0.0
Co759 Co 0.43311 0.47154 0.60844 0.0
C760 C 0.46956 0.45183 0.61102 0.0
C761 C 0.46711 0.4747 0.63147 0.0
C762 C 0.48458 0.46742 0.63319 0.0
N763 N 0.45765 0.46496 0.61766 0.0
N764 N 0.48624 0.45315 0.62027 0.0
H765 H 0.46633 0.44205 0.59924 0.0
H766 H 0.46188 0.48669 0.63936 0.0
C767 C 0.41295 0.47886 0.64695 0.0
O768 O 0.39881 0.46917 0.64025 0.0
N769 N 0.40851 0.47945 0.59962 0.0
C770 C 0.39617 0.47136 0.58719 0.0
C771 C 0.38038 0.48213 0.58635 0.0
C772 C 0.40023 0.49543 0.60541 0.0
N773 N 0.38291 0.49723 0.59791 0.0
C774 C 0.41992 0.43497 0.59974 0.0
C775 C 0.42136 0.42106 0.63825 0.0
C776 C 0.41514 0.40946 0.62278 0.0
C777 C 0.41463 0.41667 0.60329 0.0
C778 C 0.42649 0.43939 0.63399 0.0
N779 N 0.42473 0.44649 0.61506 0.0
H780 H 0.42065 0.43962 0.58444 0.0
H781 H 0.43235 0.44764 0.64588 0.0
H782 H 0.39817 0.45869 0.579 0.0
H783 H 0.40657 0.50528 0.61553 0.0
O784 O 0.44061 0.46704 0.5812 0.0
O785 O 0.44352 0.49395 0.59681 0.0
O786 O 0.42738 0.48108 0.63612 0.0
C787 C 0.44642 0.48407 0.58076 0.0
H788 H 0.49533 0.47241 0.64315 0.0
H789 H 0.36801 0.47911 0.57776 0.0
H790 H 0.42276 0.41589 0.6534 0.0
H791 H 0.41025 0.40826 0.59072 0.0
Co792 Co 0.22207 0.18662 0.36018 0.0
C793 C 0.19886 0.22177 0.36438 0.0
C794 C 0.2256 0.22272 0.37836 0.0
C795 C 0.2171 0.23947 0.38124 0.0
N796 N 0.21419 0.21141 0.36805 0.0
N797 N 0.20026 0.23891 0.37253 0.0
H798 H 0.18693 0.21719 0.35606 0.0
H799 H 0.23939 0.219 0.38336 0.0
C800 C 0.22062 0.186 0.40444 0.0
O801 O 0.20421 0.1938 0.40268 0.0
N802 N 0.23117 0.16239 0.35278 0.0
C803 C 0.22489 0.15108 0.33826 0.0
C804 C 0.23572 0.13527 0.33809 0.0
C805 C 0.24562 0.15343 0.36122 0.0
N806 N 0.2487 0.13678 0.3526 0.0
C807 C 0.18341 0.18073 0.35231 0.0
C808 C 0.17764 0.15357 0.38083 0.0
C809 C 0.16264 0.15944 0.36906 0.0
C810 C 0.16579 0.17303 0.35445 0.0
C811 C 0.19512 0.16156 0.37804 0.0
N812 N 0.19761 0.17578 0.36473 0.0
H813 H 0.18568 0.19049 0.34032 0.0
H814 H 0.2067 0.15604 0.38641 0.0
H815 H 0.21327 0.1541 0.32854 0.0
H816 H 0.25393 0.15914 0.37321 0.0
O817 O 0.21899 0.19308 0.33244 0.0
O818 O 0.2447 0.19776 0.34988 0.0
O819 O 0.22995 0.18189 0.38878 0.0
C820 C 0.23574 0.19963 0.33302 0.0
H821 H 0.22308 0.25132 0.38878 0.0
H822 H 0.234 0.12348 0.32825 0.0
H823 H 0.176 0.1425 0.39167 0.0
H824 H 0.15472 0.17765 0.34467 0.0
Co825 Co 0.58497 0.47338 0.10972 0.0
C826 C 0.54942 0.45226 0.11249 0.0
C827 C 0.55081 0.47556 0.13251 0.0
C828 C 0.53339 0.46807 0.13369 0.0
N829 N 0.56087 0.46571 0.11926 0.0
N830 N 0.53248 0.45352 0.1211 0.0
H831 H 0.55301 0.44252 0.10079 0.0
H832 H 0.55551 0.48795 0.14006 0.0
C833 C 0.60472 0.48022 0.14842 0.0
O834 O 0.61868 0.47031 0.14166 0.0
N835 N 0.60898 0.48256 0.10034 0.0
C836 C 0.61882 0.47789 0.08387 0.0
C837 C 0.63419 0.4892 0.08248 0.0
C838 C 0.61797 0.49753 0.10782 0.0
N839 N 0.63361 0.50154 0.09759 0.0
C840 C 0.60331 0.43868 0.10201 0.0
C841 C 0.59857 0.42351 0.13968 0.0
C842 C 0.60872 0.41362 0.12535 0.0
C843 C 0.61075 0.42127 0.10622 0.0
C844 C 0.5916 0.44112 0.1349 0.0
N845 N 0.59488 0.44894 0.11653 0.0
H846 H 0.60387 0.44357 0.08685 0.0
H847 H 0.58363 0.44851 0.14603 0.0
H848 H 0.61478 0.46782 0.07278 0.0
H849 H 0.61305 0.5056 0.12037 0.0
O850 O 0.57744 0.46818 0.08265 0.0
O851 O 0.57333 0.49511 0.09801 0.0
O852 O 0.59051 0.48314 0.1374 0.0
C853 C 0.57084 0.48494 0.08208 0.0
H854 H 0.52201 0.47325 0.14268 0.0
H855 H 0.64456 0.48889 0.07077 0.0
H856 H 0.59626 0.41783 0.15449 0.0
H857 H 0.61772 0.41365 0.09443 0.0
Co858 Co 0.29756 0.8341 0.85938 0.0
C859 C 0.31752 0.79774 0.86137 0.0
C860 C 0.29292 0.79886 0.87952 0.0
C861 C 0.29993 0.78122 0.88041 0.0
N862 N 0.30388 0.80923 0.86764 0.0
N863 N 0.31531 0.78047 0.86897 0.0
H864 H 0.32822 0.80164 0.8508 0.0
H865 H 0.28019 0.8036 0.88638 0.0
C866 C 0.28965 0.85312 0.89849 0.0
O867 O 0.29823 0.86804 0.89201 0.0
N868 N 0.28989 0.85901 0.85141 0.0
C869 C 0.29839 0.87167 0.83968 0.0
C870 C 0.28763 0.88746 0.83887 0.0
C871 C 0.27372 0.86713 0.85685 0.0
N872 N 0.27216 0.88464 0.84979 0.0
C873 C 0.33431 0.84679 0.85091 0.0
C874 C 0.34799 0.84558 0.88952 0.0
C875 C 0.3597 0.85157 0.87404 0.0
C876 C 0.35261 0.85196 0.85451 0.0
C877 C 0.32965 0.8405 0.8852 0.0
N878 N 0.32267 0.84211 0.86621 0.0
H879 H 0.32969 0.84618 0.83559 0.0
H880 H 0.32132 0.83476 0.89711 0.0
H881 H 0.31133 0.86989 0.83193 0.0
H882 H 0.26357 0.86052 0.86641 0.0
O883 O 0.30191 0.82745 0.83187 0.0
O884 O 0.275 0.82429 0.84746 0.0
O885 O 0.28819 0.83882 0.88732 0.0
C886 C 0.28482 0.82183 0.83128 0.0
H887 H 0.29396 0.76967 0.88851 0.0
H888 H 0.29093 0.90001 0.83073 0.0
H889 H 0.35308 0.84431 0.90472 0.0
H890 H 0.36112 0.85624 0.84197 0.0
Co891 Co 0.93551 0.54642 0.60823 0.0
C892 C 0.96932 0.57021 0.61257 0.0
C893 C 0.96939 0.54616 0.63165 0.0
C894 C 0.98527 0.55603 0.63521 0.0
N895 N 0.95925 0.55512 0.61774 0.0
N896 N 0.98524 0.5711 0.62327 0.0
H897 H 0.96505 0.58031 0.60149 0.0
H898 H 0.9656 0.53315 0.63857 0.0
C899 C 0.91585 0.53875 0.64707 0.0
O900 O 0.90105 0.54719 0.64006 0.0
N901 N 0.91182 0.53636 0.59902 0.0
C902 C 0.90141 0.54098 0.58294 0.0
C903 C 0.88636 0.52918 0.58186 0.0
C904 C 0.90337 0.52119 0.60672 0.0
N905 N 0.88754 0.51686 0.597 0.0
C906 C 0.91795 0.58097 0.59887 0.0
C907 C 0.91951 0.59625 0.63675 0.0
C908 C 0.9114 0.6066 0.62122 0.0
C909 C 0.91106 0.59878 0.602 0.0
C910 C 0.92649 0.57848 0.63287 0.0
N911 N 0.92478 0.57063 0.61431 0.0
H912 H 0.9185 0.57589 0.58377 0.0
H913 H 0.93354 0.57119 0.64478 0.0
H914 H 0.90464 0.55163 0.57216 0.0
H915 H 0.90893 0.5131 0.61896 0.0
O916 O 0.94292 0.55137 0.5811 0.0
O917 O 0.94789 0.52485 0.59699 0.0
O918 O 0.93031 0.53696 0.63615 0.0
C919 C 0.94994 0.5348 0.5808 0.0
H920 H 0.99626 0.55223 0.64548 0.0
H921 H 0.87538 0.5297 0.57081 0.0
H922 H 0.92052 0.60177 0.65178 0.0
H923 H 0.90598 0.60654 0.58924 0.0
Co924 Co 0.22104 0.8341 0.14398 0.0
C925 C 0.1987 0.79836 0.14239 0.0
C926 C 0.22589 0.79663 0.12955 0.0
C927 C 0.21814 0.77929 0.12915 0.0
N928 N 0.2138 0.80871 0.13778 0.0
N929 N 0.20108 0.78041 0.13719 0.0
H930 H 0.18655 0.80329 0.15007 0.0
H931 H 0.23973 0.80017 0.12461 0.0
C932 C 0.22129 0.83164 0.09983 0.0
O933 O 0.20506 0.82352 0.10163 0.0
N934 N 0.22946 0.85891 0.14994 0.0
C935 C 0.22113 0.87168 0.16154 0.0
C936 C 0.2314 0.88781 0.16081 0.0
C937 C 0.24473 0.86725 0.14251 0.0
N938 N 0.24624 0.88499 0.14884 0.0
C939 C 0.18186 0.83998 0.14925 0.0
C940 C 0.17753 0.86567 0.1189 0.0
C941 C 0.16194 0.86043 0.1301 0.0
C942 C 0.16433 0.84752 0.14558 0.0
C943 C 0.19479 0.85771 0.12303 0.0
N944 N 0.19665 0.84426 0.13736 0.0
H945 H 0.18362 0.83115 0.16215 0.0
H946 H 0.20673 0.86273 0.11493 0.0
H947 H 0.20835 0.86951 0.1697 0.0
H948 H 0.25427 0.8606 0.13228 0.0
O949 O 0.217 0.82938 0.17205 0.0
O950 O 0.24339 0.82407 0.15606 0.0
O951 O 0.22999 0.83708 0.11546 0.0
C952 C 0.23386 0.82303 0.17262 0.0
H953 H 0.22457 0.76675 0.12356 0.0
H954 H 0.22822 0.90059 0.16855 0.0
H955 H 0.17647 0.87596 0.10713 0.0
H956 H 0.1529 0.84378 0.1553 0.0
Co957 Co 0.935 0.47132 0.89301 0.0
C958 C 0.9719 0.4511 0.89176 0.0
C959 C 0.97018 0.47468 0.87233 0.0
C960 C 0.98778 0.4677 0.87124 0.0
N961 N 0.9599 0.46406 0.88472 0.0
N962 N 0.98896 0.45292 0.88351 0.0
H963 H 0.96883 0.44135 0.90352 0.0
H964 H 0.96535 0.48715 0.865 0.0
C965 C 0.93333 0.47085 0.84877 0.0
O966 O 0.94099 0.45435 0.85013 0.0
N967 N 0.91069 0.47979 0.90101 0.0
C968 C 0.89867 0.47142 0.91352 0.0
C969 C 0.88244 0.48159 0.91382 0.0
C970 C 0.90181 0.49498 0.89411 0.0
N971 N 0.88447 0.49639 0.90161 0.0
C972 C 0.93057 0.43179 0.89756 0.0
C973 C 0.90163 0.42797 0.87076 0.0
C974 C 0.90864 0.41207 0.88021 0.0
C975 C 0.92316 0.41421 0.89399 0.0
C976 C 0.90944 0.44528 0.87482 0.0
N977 N 0.92444 0.44694 0.88724 0.0
H978 H 0.94073 0.43326 0.90923 0.0
H979 H 0.90331 0.45741 0.86798 0.0
H980 H 0.90137 0.45864 0.92149 0.0
H981 H 0.90775 0.50449 0.88333 0.0
O982 O 0.94159 0.4672 0.92056 0.0
O983 O 0.94594 0.49361 0.90422 0.0
O984 O 0.92985 0.48013 0.86468 0.0
C985 C 0.94796 0.48404 0.92068 0.0
H986 H 0.99892 0.47329 0.86221 0.0
H987 H 0.87009 0.47831 0.92234 0.0
H988 H 0.89018 0.42712 0.8603 0.0
H989 H 0.92836 0.4025 0.90247 0.0
Co990 Co 0.29934 0.18456 0.64348 0.0
C991 C 0.32319 0.21822 0.64105 0.0
C992 C 0.30065 0.21868 0.61995 0.0
C993 C 0.31099 0.23447 0.61735 0.0
N994 N 0.30842 0.20837 0.63455 0.0
N995 N 0.32505 0.23417 0.63061 0.0
H996 H 0.33243 0.21377 0.65289 0.0
H997 H 0.28819 0.21508 0.61187 0.0
C998 C 0.29079 0.16513 0.60478 0.0
O999 O 0.29863 0.15 0.61179 0.0
N1000 N 0.28922 0.16076 0.65225 0.0
C1001 C 0.2957 0.1487 0.66606 0.0
C1002 C 0.2841 0.13356 0.66687 0.0
C1003 C 0.27317 0.1531 0.64571 0.0
N1004 N 0.27 0.13628 0.65396 0.0
C1005 C 0.3344 0.16783 0.65282 0.0
C1006 C 0.34871 0.16782 0.61445 0.0
C1007 C 0.35914 0.15988 0.62995 0.0
C1008 C 0.35192 0.16032 0.6494 0.0
C1009 C 0.33107 0.17504 0.61855 0.0
N1010 N 0.32361 0.17392 0.63737 0.0
H1011 H 0.32983 0.16926 0.66807 0.0
H1012 H 0.32362 0.18182 0.60658 0.0
H1013 H 0.30772 0.1506 0.67537 0.0
H1014 H 0.26425 0.15947 0.63463 0.0
O1015 O 0.30389 0.19163 0.67084 0.0
O1016 O 0.27767 0.1968 0.65443 0.0
O1017 O 0.28993 0.17977 0.61553 0.0
C1018 C 0.28734 0.19873 0.6708 0.0
H1019 H 0.30825 0.24554 0.60678 0.0
H1020 H 0.28583 0.12152 0.67639 0.0
H1021 H 0.35405 0.16835 0.5993 0.0
H1022 H 0.35996 0.15527 0.66199 0.0
Co1023 Co 0.58391 0.5467 0.3939 0.0
C1024 C 0.54671 0.56669 0.39275 0.0
C1025 C 0.54759 0.54098 0.37674 0.0
C1026 C 0.52988 0.5477 0.37584 0.0
N1027 N 0.55839 0.55296 0.38694 0.0
N1028 N 0.52923 0.56382 0.38597 0.0
H1029 H 0.5504 0.57801 0.40245 0.0
H1030 H 0.55227 0.52789 0.37066 0.0
C1031 C 0.58245 0.54594 0.34965 0.0
O1032 O 0.5737 0.56188 0.35109 0.0
N1033 N 0.60886 0.53912 0.4006 0.0
C1034 C 0.62142 0.54814 0.41188 0.0
C1035 C 0.6378 0.53821 0.41163 0.0
C1036 C 0.6176 0.52379 0.39386 0.0
N1037 N 0.63536 0.5229 0.4003 0.0
C1038 C 0.58778 0.58629 0.39807 0.0
C1039 C 0.61423 0.59093 0.36857 0.0
C1040 C 0.60774 0.60662 0.37881 0.0
C1041 C 0.5945 0.60406 0.39393 0.0
C1042 C 0.60711 0.57342 0.37319 0.0
N1043 N 0.59331 0.57134 0.38706 0.0
H1044 H 0.57865 0.58451 0.41067 0.0
H1045 H 0.61296 0.56149 0.36574 0.0
H1046 H 0.61894 0.56117 0.41945 0.0
H1047 H 0.61121 0.51376 0.38399 0.0
O1048 O 0.57847 0.55101 0.42174 0.0
O1049 O 0.57426 0.52425 0.40613 0.0
O1050 O 0.58793 0.53759 0.36553 0.0
C1051 C 0.57253 0.53402 0.42245 0.0
H1052 H 0.51834 0.5411 0.36832 0.0
H1053 H 0.65052 0.54197 0.41923 0.0
H1054 H 0.62475 0.59212 0.35707 0.0
H1055 H 0.58977 0.6156 0.40295 0.0
C1056 C 0.29065 0.31133 0.20754 0.0
C1057 C 0.2798 0.31191 0.19006 0.0
C1058 C 0.28589 0.2996 0.2234 0.0
C1059 C 0.26062 0.25628 0.23328 0.0
H1060 H 0.26592 0.27032 0.28904 0.0
C1061 C 0.23302 0.21119 0.29795 0.0
C1062 C 0.24315 0.21037 0.31592 0.0
C1063 C 0.23844 0.22305 0.28251 0.0
C1064 C 0.26465 0.26608 0.27354 0.0
H1065 H 0.25501 0.30119 0.17582 0.0
H1066 H 0.24656 0.28082 0.20363 0.0
H1067 H 0.27229 0.29302 0.26279 0.0
H1068 H 0.26728 0.22091 0.33153 0.0
H1069 H 0.27697 0.24154 0.30433 0.0
H1070 H 0.25303 0.22936 0.24396 0.0
C1071 C 0.25891 0.28927 0.20495 0.0
C1072 C 0.26821 0.27913 0.2585 0.0
C1073 C 0.26364 0.30107 0.1891 0.0
C1074 C 0.25923 0.22121 0.31784 0.0
C1075 C 0.26466 0.23315 0.30234 0.0
C1076 C 0.2571 0.24324 0.2483 0.0
C1077 C 0.2702 0.28812 0.22211 0.0
C1078 C 0.26613 0.27441 0.23819 0.0
C1079 C 0.25415 0.23441 0.28461 0.0
C1080 C 0.25896 0.248 0.26862 0.0
H1081 H 0.30322 0.31948 0.20874 0.0
H1082 H 0.29495 0.29898 0.23632 0.0
H1083 H 0.25928 0.25207 0.21779 0.0
H1084 H 0.22053 0.20305 0.296 0.0
H1085 H 0.22989 0.22379 0.26919 0.0
C1086 C 0.05851 0.98 0.54812 0.0
C1087 C 0.0598 0.99123 0.56526 0.0
C1088 C 0.04661 0.98474 0.53242 0.0
C1089 C 0.01942 0.02342 0.51058 0.0
H1090 H 0.99086 0.98358 0.48668 0.0
C1091 C 0.95959 0.03823 0.45575 0.0
C1092 C 0.95851 0.02723 0.43842 0.0
C1093 C 0.97147 0.03341 0.47144 0.0
C1094 C 0.99885 0.99484 0.49304 0.0
H1095 H 0.04997 0.01654 0.57912 0.0
H1096 H 0.02906 0.02484 0.55168 0.0
H1097 H 0.01302 0.97665 0.51325 0.0
H1098 H 0.96866 1.0022 0.42423 0.0
H1099 H 0.9895 0.99373 0.45171 0.0
H1100 H 1.00522 0.04161 0.49039 0.0
C1101 C 0.0374 0.01241 0.55031 0.0
C1102 C 0.01159 0.99088 0.50827 0.0
C1103 C 0.04937 1.00767 0.56605 0.0
C1104 C 0.9691 0.0109 0.43744 0.0
C1105 C 0.98104 1.00606 0.45319 0.0
C1106 C 1.00666 0.02738 0.49536 0.0
C1107 C 0.03562 1.00081 0.53345 0.0
C1108 C 0.02207 1.00511 0.51722 0.0
C1109 C 0.98262 0.01747 0.47022 0.0
C1110 C 0.99619 0.01315 0.48641 0.0
H1111 H 0.06642 0.96727 0.54698 0.0
H1112 H 0.04592 0.97569 0.5195 0.0
H1113 H 0.02742 0.03469 0.51691 0.0
H1114 H 0.95155 0.05087 0.45705 0.0
H1115 H 0.97203 0.0423 0.48449 0.0
C1116 C 0.26161 0.80064 0.81508 0.0
C1117 C 0.27796 0.81117 0.81387 0.0
C1118 C 0.25674 0.78851 0.79956 0.0
C1119 C 0.26636 0.77717 0.74629 0.0
H1120 H 0.25008 0.72791 0.76154 0.0
C1121 C 0.25857 0.71853 0.68792 0.0
C1122 C 0.24229 0.70792 0.68933 0.0
C1123 C 0.26365 0.73053 0.70348 0.0
C1124 C 0.25447 0.74165 0.757 0.0
H1125 H 0.30161 0.81779 0.79511 0.0
H1126 H 0.29314 0.79678 0.76818 0.0
H1127 H 0.25608 0.75102 0.78737 0.0
H1128 H 0.219 0.701 0.70849 0.0
H1129 H 0.22779 0.72183 0.73544 0.0
H1130 H 0.2647 0.76782 0.71592 0.0
C1131 C 0.284 0.79788 0.781 0.0
C1132 C 0.25783 0.75493 0.77182 0.0
C1133 C 0.2889 0.8099 0.7965 0.0
C1134 C 0.23166 0.70896 0.70694 0.0
C1135 C 0.23674 0.72088 0.72246 0.0
C1136 C 0.26298 0.7639 0.73147 0.0
C1137 C 0.26807 0.78675 0.78249 0.0
C1138 C 0.26382 0.77286 0.76665 0.0
C1139 C 0.25259 0.73211 0.72078 0.0
C1140 C 0.25697 0.74597 0.73663 0.0
H1141 H 0.25294 0.80127 0.8283 0.0
H1142 H 0.24423 0.78033 0.80105 0.0
H1143 H 0.27076 0.7909 0.74176 0.0
H1144 H 0.26701 0.71808 0.67452 0.0
H1145 H 0.2761 0.73878 0.70183 0.0
C1146 C 0.46686 0.01136 0.06354 0.0
C1147 C 0.45755 0.02847 0.0635 0.0
C1148 C 0.47815 1.00629 0.04735 0.0
C1149 C 0.50419 0.02706 0.00494 0.0
H1150 H 0.50655 0.9764 0.98581 0.0
C1151 C 0.54457 1.00569 0.93318 0.0
C1152 C 0.55459 0.989 0.93418 0.0
C1153 C 0.53265 0.01081 0.94883 0.0
C1154 C 0.50619 0.99059 0.99109 0.0
H1155 H 0.45227 0.05339 0.04618 0.0
H1156 H 0.47156 0.04443 0.01795 0.0
H1157 H 0.48559 0.98426 0.01316 0.0
H1158 H 0.56027 0.96483 0.95259 0.0
H1159 H 0.53975 0.97381 0.97975 0.0
H1160 H 0.52479 0.03337 0.98283 0.0
C1161 C 0.47054 0.03507 0.03059 0.0
C1162 C 0.49417 0.99509 0.0068 0.0
C1163 C 0.45934 0.04015 0.04674 0.0
C1164 C 0.55271 0.97775 0.95127 0.0
C1165 C 0.54081 0.98283 0.96681 0.0
C1166 C 0.51618 0.02256 0.98919 0.0
C1167 C 0.48033 0.01822 0.03079 0.0
C1168 C 0.49303 0.01338 0.01396 0.0
C1169 C 0.53047 0.99931 0.96572 0.0
C1170 C 0.51739 1.00426 0.98213 0.0
H1171 H 0.46583 1.00212 0.07628 0.0
H1172 H 0.4856 0.99326 0.04809 0.0
H1173 H 0.50393 0.04123 0.01027 0.0
H1174 H 0.54568 0.01462 0.92018 0.0
H1175 H 0.52479 0.02356 0.94747 0.0
C1176 C 0.22976 0.81199 0.20783 0.0
C1177 C 0.24077 0.81303 0.1905 0.0
C1178 C 0.2349 0.80057 0.22382 0.0
C1179 C 0.26248 0.75869 0.23452 0.0
H1180 H 0.25466 0.77245 0.29 0.0
C1181 C 0.28968 0.71451 0.30027 0.0
C1182 C 0.2786 0.71279 0.31749 0.0
C1183 C 0.2846 0.72651 0.28479 0.0
C1184 C 0.25669 0.7683 0.27458 0.0
H1185 H 0.2662 0.80341 0.17666 0.0
H1186 H 0.27533 0.78362 0.20471 0.0
H1187 H 0.24783 0.79475 0.26347 0.0
H1188 H 0.25328 0.72206 0.3318 0.0
H1189 H 0.24425 0.74298 0.30457 0.0
H1190 H 0.2713 0.73226 0.24557 0.0
C1191 C 0.26256 0.79145 0.20581 0.0
C1192 C 0.25284 0.78111 0.25936 0.0
C1193 C 0.25743 0.80293 0.18981 0.0
C1194 C 0.26208 0.72305 0.3187 0.0
C1195 C 0.257 0.73515 0.30318 0.0
C1196 C 0.26631 0.7459 0.24971 0.0
C1197 C 0.25116 0.78986 0.22285 0.0
C1198 C 0.25573 0.77648 0.23914 0.0
C1199 C 0.26831 0.73714 0.28612 0.0
C1200 C 0.26352 0.75055 0.26994 0.0
H1201 H 0.21681 0.81956 0.20882 0.0
H1202 H 0.22571 0.79958 0.2366 0.0
H1203 H 0.26449 0.75451 0.2191 0.0
H1204 H 0.30254 0.70685 0.29887 0.0
H1205 H 0.29376 0.72785 0.27202 0.0
C1206 C 0.46557 0.97832 0.45164 0.0
C1207 C 0.46387 0.9898 0.43471 0.0
C1208 C 0.47742 0.98309 0.46736 0.0
C1209 C 0.50253 0.02243 0.49019 0.0
H1210 H 0.53235 0.98356 0.51431 0.0
C1211 C 0.56011 0.03912 0.54705 0.0
C1212 C 0.56161 0.02774 0.56407 0.0
C1213 C 0.54874 0.03408 0.53103 0.0
C1214 C 0.52399 0.99454 0.5079 0.0
H1215 H 0.47308 0.01551 0.42116 0.0
H1216 H 0.4939 0.02388 0.44868 0.0
H1217 H 0.51124 0.97607 0.48694 0.0
H1218 H 0.55268 1.00185 0.57741 0.0
H1219 H 0.53265 0.993 0.54938 0.0
H1220 H 0.51522 0.04089 0.51117 0.0
C1221 C 0.48592 0.01121 0.44983 0.0
C1222 C 0.51187 0.99026 0.49219 0.0
C1223 C 0.47403 1.00641 0.43404 0.0
C1224 C 0.55189 0.01086 0.56446 0.0
C1225 C 0.54043 1.00581 0.54838 0.0
C1226 C 0.51463 0.02671 0.5059 0.0
C1227 C 0.48791 0.99948 0.46659 0.0
C1228 C 0.50097 1.00414 0.48315 0.0
C1229 C 0.53849 0.01752 0.53161 0.0
C1230 C 0.52555 0.01283 0.51494 0.0
H1231 H 0.45788 0.96545 0.4527 0.0
H1232 H 0.47831 0.97391 0.48017 0.0
H1233 H 0.49415 0.03341 0.48381 0.0
H1234 H 0.56751 0.05217 0.54619 0.0
H1235 H 0.54792 0.04324 0.5182 0.0
C1236 C 0.26411 0.22 0.68684 0.0
C1237 C 0.28073 0.20988 0.68797 0.0
C1238 C 0.25899 0.23197 0.70239 0.0
C1239 C 0.26835 0.24294 0.75574 0.0
H1240 H 0.24936 0.2915 0.74148 0.0
C1241 C 0.25803 0.30037 0.81496 0.0
C1242 C 0.24119 0.31011 0.81392 0.0
C1243 C 0.26352 0.28877 0.79922 0.0
C1244 C 0.25452 0.27795 0.74573 0.0
H1245 H 0.30475 0.20399 0.7065 0.0
H1246 H 0.29588 0.22482 0.73346 0.0
H1247 H 0.25659 0.2692 0.71518 0.0
H1248 H 0.21721 0.31587 0.79528 0.0
H1249 H 0.22672 0.29571 0.76797 0.0
H1250 H 0.26626 0.25168 0.78629 0.0
C1251 C 0.2867 0.22346 0.7207 0.0
C1252 C 0.25859 0.26513 0.73065 0.0
C1253 C 0.29182 0.21156 0.70518 0.0
C1254 C 0.2303 0.30857 0.79654 0.0
C1255 C 0.23579 0.29705 0.78082 0.0
C1256 C 0.26428 0.25575 0.77082 0.0
C1257 C 0.27035 0.23401 0.7194 0.0
C1258 C 0.26554 0.24746 0.73547 0.0
C1259 C 0.25229 0.28675 0.78211 0.0
C1260 C 0.2573 0.27341 0.766 0.0
H1261 H 0.25528 0.21902 0.67376 0.0
H1262 H 0.24617 0.23971 0.70105 0.0
H1263 H 0.27346 0.22937 0.76 0.0
H1264 H 0.26671 0.30125 0.82817 0.0
H1265 H 0.27645 0.28123 0.80055 0.0
C1266 C 0.06207 0.03918 0.95934 0.0
C1267 C 0.0633 0.0278 0.94231 0.0
C1268 C 0.05035 0.03447 0.97523 0.0
C1269 C 0.02323 0.99585 0.99743 0.0
H1270 H 0.99324 0.0356 0.01942 0.0
C1271 C 0.96105 0.98064 0.04872 0.0
C1272 C 0.95881 0.99175 0.06583 0.0
C1273 C 0.97369 0.98556 0.03379 0.0
C1274 C 1.00164 0.02437 0.01362 0.0
H1275 H 0.05369 1.00217 0.92894 0.0
H1276 H 0.03321 0.99393 0.95665 0.0
H1277 H 0.01637 0.0425 0.99383 0.0
H1278 H 0.96768 0.01707 0.08039 0.0
H1279 H 0.98985 0.02571 0.05425 0.0
H1280 H 1.00846 0.97771 0.01714 0.0
C1281 C 0.04141 1.00646 0.95781 0.0
C1282 C 0.01494 0.02833 0.99895 0.0
C1283 C 0.05316 0.01118 0.9419 0.0
C1284 C 0.969 1.00829 0.06732 0.0
C1285 C 0.98171 0.01322 0.05234 0.0
C1286 C 0.00994 0.9919 0.01208 0.0
C1287 C 0.03955 0.01826 0.97448 0.0
C1288 C 0.02585 0.0141 0.9906 0.0
C1289 C 0.98448 1.00169 0.03558 0.0
C1290 C 0.99888 1.00609 0.02027 0.0
H1291 H 0.06973 0.05207 0.96016 0.0
H1292 H 0.04955 0.0437 0.98799 0.0
H1293 H 0.03156 0.9846 0.99157 0.0
H1294 H 0.95335 0.96784 0.04704 0.0
H1295 H 0.97513 0.97658 0.02089 0.0
C1296 C 0.7588 0.71734 0.8157 0.0
C1297 C 0.74258 0.70665 0.81418 0.0
C1298 C 0.76382 0.72952 0.80026 0.0
C1299 C 0.74266 0.75574 0.75847 0.0
H1300 H 0.79347 0.76335 0.74151 0.0
C1301 C 0.76231 0.79946 0.68871 0.0
C1302 C 0.77859 0.81011 0.68971 0.0
C1303 C 0.7576 0.78741 0.70436 0.0
C1304 C 0.77922 0.76158 0.74625 0.0
H1305 H 0.71943 0.69964 0.79487 0.0
H1306 H 0.72832 0.72054 0.76793 0.0
H1307 H 0.78665 0.74046 0.76739 0.0
H1308 H 0.80224 0.81711 0.70831 0.0
H1309 H 0.79386 0.79644 0.73568 0.0
H1310 H 0.73521 0.77685 0.73738 0.0
C1311 C 0.73696 0.71988 0.78118 0.0
C1312 C 0.77533 0.74842 0.76107 0.0
C1313 C 0.73196 0.70776 0.79657 0.0
C1314 C 0.78964 0.80903 0.70702 0.0
C1315 C 0.78493 0.79704 0.72265 0.0
C1316 C 0.74656 0.76891 0.74368 0.0
C1317 C 0.75269 0.73124 0.78301 0.0
C1318 C 0.75698 0.74528 0.76731 0.0
C1319 C 0.76907 0.78578 0.72136 0.0
C1320 C 0.76489 0.77198 0.73735 0.0
H1321 H 0.7672 0.71687 0.82915 0.0
H1322 H 0.77599 0.73813 0.80219 0.0
H1323 H 0.7284 0.75394 0.76319 0.0
H1324 H 0.75358 0.7999 0.67551 0.0
H1325 H 0.74535 0.77886 0.70279 0.0
C1326 C 0.76053 0.30037 0.31446 0.0
C1327 C 0.77653 0.31138 0.31298 0.0
C1328 C 0.75547 0.28856 0.29872 0.0
C1329 C 0.76366 0.27894 0.24474 0.0
H1330 H 0.74928 0.22886 0.25903 0.0
C1331 C 0.75595 0.22113 0.18514 0.0
C1332 C 0.74016 0.20986 0.18697 0.0
C1333 C 0.76099 0.23318 0.20068 0.0
C1334 C 0.75312 0.24283 0.25476 0.0
H1335 H 0.79934 0.31921 0.29355 0.0
H1336 H 0.79054 0.29874 0.26626 0.0
H1337 H 0.75542 0.25145 0.28534 0.0
H1338 H 0.71764 0.20195 0.20676 0.0
H1339 H 0.72634 0.22287 0.23362 0.0
H1340 H 0.76134 0.27032 0.21416 0.0
C1341 C 0.78182 0.29921 0.27945 0.0
C1342 C 0.75657 0.25581 0.26986 0.0
C1343 C 0.7869 0.31092 0.29516 0.0
C1344 C 0.72991 0.21043 0.20487 0.0
C1345 C 0.73496 0.22239 0.22035 0.0
C1346 C 0.7602 0.26596 0.22963 0.0
C1347 C 0.76625 0.28761 0.28116 0.0
C1348 C 0.76187 0.27403 0.26504 0.0
C1349 C 0.75038 0.23414 0.21837 0.0
C1350 C 0.75486 0.24774 0.23445 0.0
H1351 H 0.7523 0.30038 0.32803 0.0
H1352 H 0.74324 0.27998 0.30041 0.0
H1353 H 0.76754 0.2929 0.24049 0.0
H1354 H 0.76409 0.22103 0.17151 0.0
H1355 H 0.77311 0.24188 0.19878 0.0
C1356 C 0.75521 0.2981 0.686 0.0
C1357 C 0.73875 0.30848 0.68705 0.0
C1358 C 0.76028 0.28628 0.70175 0.0
C1359 C 0.75108 0.27615 0.75542 0.0
H1360 H 0.76925 0.22714 0.74188 0.0
C1361 C 0.76075 0.21895 0.81543 0.0
C1362 C 0.77731 0.20874 0.81429 0.0
C1363 C 0.75547 0.23068 0.79968 0.0
C1364 C 0.76433 0.24082 0.74593 0.0
H1365 H 0.71499 0.31502 0.70569 0.0
H1366 H 0.72376 0.29447 0.73298 0.0
H1367 H 0.76227 0.24923 0.71525 0.0
H1368 H 0.80103 0.20241 0.7955 0.0
H1369 H 0.79188 0.22279 0.76822 0.0
H1370 H 0.75316 0.26774 0.78611 0.0
C1371 C 0.73286 0.29549 0.72012 0.0
C1372 C 0.7604 0.25352 0.73066 0.0
C1373 C 0.72779 0.30723 0.7044 0.0
C1374 C 0.78816 0.21006 0.79685 0.0
C1375 C 0.78287 0.2217 0.78114 0.0
C1376 C 0.75501 0.26345 0.7707 0.0
C1377 C 0.74903 0.28467 0.7189 0.0
C1378 C 0.75373 0.27135 0.73521 0.0
C1379 C 0.7666 0.23237 0.78245 0.0
C1380 C 0.76172 0.24563 0.76615 0.0
H1381 H 0.76394 0.29874 0.67281 0.0
H1382 H 0.77296 0.27832 0.70045 0.0
H1383 H 0.74618 0.28983 0.75948 0.0
H1384 H 0.75213 0.21826 0.82869 0.0
H1385 H 0.74272 0.23853 0.80106 0.0
C1386 C 0.72984 0.80672 0.29717 0.0
C1387 C 0.74063 0.80815 0.31463 0.0
C1388 C 0.7352 0.79502 0.28156 0.0
C1389 C 0.76336 0.75337 0.27152 0.0
H1390 H 0.75627 0.76736 0.21595 0.0
C1391 C 0.79173 0.70996 0.20561 0.0
C1392 C 0.78094 0.70857 0.18813 0.0
C1393 C 0.78631 0.72157 0.22128 0.0
C1394 C 0.75809 0.76313 0.23139 0.0
H1395 H 0.76582 0.79878 0.32919 0.0
H1396 H 0.77536 0.77843 0.30175 0.0
H1397 H 0.74891 0.78945 0.24239 0.0
H1398 H 0.75571 0.71789 0.17364 0.0
H1399 H 0.74608 0.73807 0.20118 0.0
H1400 H 0.77256 0.72706 0.26051 0.0
C1401 C 0.76259 0.78622 0.30027 0.0
C1402 C 0.75394 0.77583 0.24656 0.0
C1403 C 0.75722 0.798 0.31591 0.0
C1404 C 0.7643 0.71864 0.18692 0.0
C1405 C 0.75889 0.73033 0.20262 0.0
C1406 C 0.76752 0.74068 0.25634 0.0
C1407 C 0.7515 0.78441 0.28301 0.0
C1408 C 0.75651 0.77111 0.26683 0.0
C1409 C 0.76997 0.73212 0.21988 0.0
C1410 C 0.76495 0.7454 0.23608 0.0
H1411 H 0.71694 0.81432 0.29572 0.0
H1412 H 0.72622 0.79384 0.26862 0.0
H1413 H 0.76518 0.74915 0.28696 0.0
H1414 H 0.80466 0.70242 0.20702 0.0
H1415 H 0.79528 0.72273 0.23423 0.0
C1416 C 0.46799 0.5107 0.93783 0.0
C1417 C 0.45774 0.52726 0.93848 0.0
C1418 C 0.47979 0.50586 0.95369 0.0
C1419 C 0.50587 0.52731 0.99542 0.0
H1420 H 0.51154 0.47668 0.01391 0.0
C1421 C 0.54923 0.50773 0.06566 0.0
C1422 C 0.55952 0.4912 0.06483 0.0
C1423 C 0.537 0.51242 0.05013 0.0
C1424 C 0.5103 0.49087 0.00877 0.0
H1425 H 0.45124 0.55132 0.95664 0.0
H1426 H 0.4715 0.54276 0.9843 0.0
H1427 H 0.48926 0.48368 0.98749 0.0
H1428 H 0.56554 0.46696 0.04673 0.0
H1429 H 0.54457 0.47528 0.01962 0.0
H1430 H 0.52695 0.5345 0.01664 0.0
C1431 C 0.47076 0.53368 0.97142 0.0
C1432 C 0.49749 0.49488 0.99362 0.0
C1433 C 0.45901 0.5385 0.95561 0.0
C1434 C 0.55776 0.47977 0.04789 0.0
C1435 C 0.5456 0.48445 0.0324 0.0
C1436 C 0.5187 0.5233 0.01055 0.0
C1437 C 0.48159 0.51749 0.97051 0.0
C1438 C 0.4951 0.51315 0.98675 0.0
C1439 C 0.53482 0.50067 0.03345 0.0
C1440 C 0.52111 0.50502 0.0174 0.0
H1441 H 0.46741 0.5018 0.92479 0.0
H1442 H 0.48801 0.49334 0.95243 0.0
H1443 H 0.50464 0.5415 0.99025 0.0
H1444 H 0.55019 0.51676 0.07857 0.0
H1445 H 0.52883 0.52495 0.05151 0.0
C1446 C 0.97108 0.51192 0.56382 0.0
C1447 C 0.9608 0.52846 0.56328 0.0
C1448 C 0.98257 0.50704 0.54771 0.0
C1449 C 1.00739 0.52805 0.50471 0.0
H1450 H 0.01137 0.47732 0.48613 0.0
C1451 C 0.04757 0.50749 0.43254 0.0
C1452 C 0.05772 0.49088 0.43324 0.0
C1453 C 0.0359 0.51245 0.44847 0.0
C1454 C 0.01059 0.49154 0.49127 0.0
H1455 H 0.95404 0.55254 0.54517 0.0
H1456 H 0.97375 0.54395 0.51717 0.0
H1457 H 0.99047 0.48469 0.51369 0.0
H1458 H 0.06412 0.46678 0.45148 0.0
H1459 H 0.04415 0.47553 0.47918 0.0
H1460 H 0.02754 0.53489 0.48231 0.0
C1461 C 0.97329 0.53489 0.53011 0.0
C1462 C 0.99859 0.49575 0.50709 0.0
C1463 C 0.96186 0.53974 0.54614 0.0
C1464 C 0.05638 0.47962 0.45037 0.0
C1465 C 0.0448 0.48456 0.46623 0.0
C1466 C 0.0194 0.52383 0.4889 0.0
C1467 C 0.98401 0.51863 0.53079 0.0
C1468 C 0.99683 0.51406 0.51401 0.0
C1469 C 0.03418 0.50088 0.46539 0.0
C1470 C 0.02119 0.50551 0.48201 0.0
H1471 H 0.97062 0.50298 0.57686 0.0
H1472 H 0.99073 0.49447 0.54878 0.0
H1473 H 1.00661 0.54226 0.50986 0.0
H1474 H 0.04825 0.51641 0.4195 0.0
H1475 H 0.02783 0.52507 0.44728 0.0
C1476 C 0.05019 0.5122 0.06468 0.0
C1477 C 0.06022 0.52886 0.06372 0.0
C1478 C 0.03802 0.50728 0.04919 0.0
C1479 C 0.0265 0.51735 0.99607 0.0
H1480 H 0.97806 0.49819 0.0104 0.0
C1481 C 0.96864 0.50767 0.93698 0.0
C1482 C 0.95866 0.49098 0.93805 0.0
C1483 C 0.98045 0.51293 0.95265 0.0
C1484 C 0.99158 0.50338 0.00612 0.0
H1485 H 0.06572 0.55321 0.04554 0.0
H1486 H 0.0446 0.54468 0.0187 0.0
H1487 H 1.00058 0.50501 0.03664 0.0
H1488 H 0.95278 0.46702 0.95667 0.0
H1489 H 0.97331 0.47611 0.9838 0.0
H1490 H 0.01755 0.51567 0.96556 0.0
C1491 C 0.04616 0.5353 0.03127 0.0
C1492 C 1.00452 0.50724 0.02117 0.0
C1493 C 0.05823 0.54023 0.04674 0.0
C1494 C 0.96024 0.48 0.95537 0.0
C1495 C 0.97198 0.48526 0.97101 0.0
C1496 C 0.01358 0.51348 0.98102 0.0
C1497 C 0.03572 0.51889 0.0324 0.0
C1498 C 0.02214 0.51427 0.01634 0.0
C1499 C 0.98247 0.50163 0.96974 0.0
C1500 C 0.99595 0.50643 0.98584 0.0
H1501 H 0.0514 0.50317 0.07758 0.0
H1502 H 0.03035 0.49442 0.0504 0.0
H1503 H 0.04003 0.52254 0.9918 0.0
H1504 H 0.96775 0.51641 0.92381 0.0
H1505 H 0.98813 0.52578 0.95131 0.0
C1506 C 0.56059 0.53849 0.45724 0.0
C1507 C 0.56207 0.52727 0.4401 0.0
C1508 C 0.54863 0.53365 0.47286 0.0
C1509 C 0.52132 0.49489 0.49437 0.0
H1510 H 0.49148 0.53457 0.51673 0.0
C1511 C 0.45971 0.47963 0.54658 0.0
C1512 C 0.45767 0.4908 0.56368 0.0
C1513 C 0.47215 0.48451 0.53144 0.0
C1514 C 0.49983 0.52336 0.51082 0.0
H1515 H 0.55261 0.50182 0.42624 0.0
H1516 H 0.53167 0.49333 0.45353 0.0
H1517 H 0.51449 0.54157 0.49107 0.0
H1518 H 0.4667 0.51619 0.578 0.0
H1519 H 0.48853 0.52474 0.55152 0.0
H1520 H 0.50665 0.47668 0.5141 0.0
C1521 C 0.53988 0.50584 0.45496 0.0
C1522 C 0.51306 0.52736 0.49611 0.0
C1523 C 0.55188 0.51069 0.4393 0.0
C1524 C 0.46787 0.50736 0.56495 0.0
C1525 C 0.48038 0.51224 0.54976 0.0
C1526 C 0.5081 0.49089 0.50909 0.0
C1527 C 0.53781 0.51747 0.47174 0.0
C1528 C 0.52397 0.51318 0.48767 0.0
C1529 C 0.48294 0.50067 0.533 0.0
C1530 C 0.49712 0.50506 0.51745 0.0
H1531 H 0.5683 0.55133 0.45838 0.0
H1532 H 0.5477 0.54273 0.48572 0.0
H1533 H 0.52964 0.48367 0.48842 0.0
H1534 H 0.452 0.46682 0.54507 0.0
H1535 H 0.47344 0.47548 0.51856 0.0
C1536 C 0.35095 0.26595 0.13605 0.0
C1537 C 0.3321 0.26444 0.14102 0.0
C1538 C 0.36253 0.25035 0.13703 0.0
C1539 C 0.36775 0.20402 0.15921 0.0
H1540 H 0.3911 0.19034 0.10909 0.0
C1541 C 0.39309 0.12943 0.14407 0.0
C1542 C 0.40787 0.12656 0.13078 0.0
C1543 C 0.38605 0.14727 0.14722 0.0
C1544 C 0.3851 0.19405 0.12339 0.0
H1545 H 0.31074 0.24597 0.15193 0.0
H1546 H 0.33102 0.21885 0.15423 0.0
H1547 H 0.37552 0.22015 0.11199 0.0
H1548 H 0.42754 0.14009 0.11113 0.0
H1549 H 0.41588 0.17132 0.11724 0.0
H1550 H 0.37736 0.17809 0.17077 0.0
C1551 C 0.33683 0.23195 0.14935 0.0
C1552 C 0.3761 0.21116 0.12498 0.0
C1553 C 0.32522 0.24739 0.14794 0.0
C1554 C 0.41597 0.14193 0.12128 0.0
C1555 C 0.40917 0.15981 0.1247 0.0
C1556 C 0.37703 0.18703 0.15775 0.0
C1557 C 0.35549 0.23316 0.14349 0.0
C1558 C 0.36702 0.21614 0.14276 0.0
C1559 C 0.39386 0.16273 0.13741 0.0
C1560 C 0.38549 0.18159 0.13967 0.0
H1561 H 0.35647 0.27895 0.13057 0.0
H1562 H 0.37688 0.25162 0.13246 0.0
H1563 H 0.36094 0.20761 0.17314 0.0
H1564 H 0.3865 0.11778 0.15144 0.0
H1565 H 0.37406 0.14879 0.15684 0.0
C1566 C 1.00892 0.08835 0.39692 0.0
C1567 C 1.00229 0.08023 0.37921 0.0
C1568 C 0.02561 0.09835 0.39681 0.0
C1569 C 0.06862 0.10161 0.36664 0.0
H1570 H 0.07903 0.14515 0.39872 0.0
C1571 C 0.13386 0.14562 0.35429 0.0
C1572 C 0.14402 0.15091 0.37131 0.0
C1573 C 0.11636 0.13756 0.35626 0.0
C1574 C 0.07633 0.1329 0.38983 0.0
H1575 H 1.00686 0.0773 0.34739 0.0
H1576 H 0.03544 0.09525 0.34692 0.0
H1577 H 0.04821 0.13089 0.40012 0.0
H1578 H 0.14369 0.15212 0.40374 0.0
H1579 H 0.11292 0.13799 0.40718 0.0
H1580 H 0.09654 0.1037 0.35614 0.0
C1581 C 0.02833 0.09338 0.36107 0.0
C1582 C 0.0587 0.12473 0.39063 0.0
C1583 C 0.01189 0.08325 0.36125 0.0
C1584 C 0.13622 0.14806 0.39037 0.0
C1585 C 0.11857 0.14014 0.39233 0.0
C1586 C 0.0861 0.10983 0.36573 0.0
C1587 C 0.03579 0.10049 0.37894 0.0
C1588 C 0.05457 0.10911 0.37883 0.0
C1589 C 0.10853 0.13469 0.37528 0.0
C1590 C 0.09011 0.12566 0.37713 0.0
H1591 H 1.00175 0.08606 0.41095 0.0
H1592 H 0.03096 0.10361 0.41085 0.0
H1593 H 0.06617 0.08927 0.35781 0.0
H1594 H 0.13956 0.14748 0.33942 0.0
H1595 H 0.10889 0.13364 0.34284 0.0
C1596 C 0.10578 0.88022 0.64104 0.0
C1597 C 0.11506 0.89421 0.63034 0.0
C1598 C 0.11387 0.86263 0.64332 0.0
C1599 C 0.15027 0.83313 0.61994 0.0
H1600 H 0.14656 0.80363 0.66838 0.0
C1601 C 0.20046 0.7743 0.63653 0.0
C1602 C 0.19267 0.75655 0.63895 0.0
C1603 C 0.18938 0.79011 0.63714 0.0
C1604 C 0.14749 0.81169 0.65472 0.0
H1605 H 0.14042 0.90121 0.61474 0.0
H1606 H 0.15475 0.87101 0.61923 0.0
H1607 H 0.13043 0.83359 0.66631 0.0
H1608 H 0.16715 0.74173 0.64519 0.0
H1609 H 0.14772 0.76973 0.64675 0.0
H1610 H 0.16789 0.81167 0.60869 0.0
C1611 C 0.14096 0.87318 0.62521 0.0
C1612 C 0.13827 0.8288 0.65349 0.0
C1613 C 0.13282 0.89057 0.62274 0.0
C1614 C 0.1736 0.75516 0.64327 0.0
C1615 C 0.16248 0.77114 0.64413 0.0
C1616 C 0.15962 0.81626 0.6213 0.0
C1617 C 0.13145 0.85881 0.63509 0.0
C1618 C 0.13989 0.83993 0.6362 0.0
C1619 C 0.17025 0.78869 0.6405 0.0
C1620 C 0.15861 0.80554 0.63879 0.0
H1621 H 0.09203 0.88268 0.64701 0.0
H1622 H 0.10612 0.8519 0.65097 0.0
H1623 H 0.15137 0.84096 0.60615 0.0
H1624 H 0.21514 0.77604 0.63382 0.0
H1625 H 0.19574 0.80353 0.63463 0.0
C1626 C 0.51016 0.92862 0.89777 0.0
C1627 C 0.51996 0.92948 0.87965 0.0
C1628 C 0.49395 0.91795 0.89922 0.0
C1629 C 0.4579 0.89825 0.86564 0.0
H1630 H 0.43989 0.87432 0.91389 0.0
C1631 C 0.39325 0.85261 0.86406 0.0
C1632 C 0.37926 0.8572 0.87789 0.0
C1633 C 0.41114 0.85969 0.86617 0.0
C1634 C 0.44477 0.88101 0.90035 0.0
H1635 H 0.5216 0.91902 0.84943 0.0
H1636 H 0.49407 0.8996 0.85211 0.0
H1637 H 0.47041 0.88933 0.91397 0.0
H1638 H 0.37353 0.87198 0.90548 0.0
H1639 H 0.40506 0.88416 0.9093 0.0
H1640 H 0.43249 0.88977 0.85196 0.0
C1641 C 0.4982 0.9077 0.865 0.0
C1642 C 0.46221 0.88965 0.90038 0.0
C1643 C 0.51409 0.91862 0.86347 0.0
C1644 C 0.38396 0.86814 0.89459 0.0
C1645 C 0.402 0.87513 0.89678 0.0
C1646 C 0.4407 0.88945 0.86556 0.0
C1647 C 0.48747 0.90777 0.88261 0.0
C1648 C 0.46905 0.89831 0.88296 0.0
C1649 C 0.4156 0.87138 0.88226 0.0
C1650 C 0.43396 0.88067 0.88284 0.0
H1651 H 0.51442 0.93706 0.91036 0.0
H1652 H 0.48605 0.91844 0.91299 0.0
H1653 H 0.4623 0.90526 0.85211 0.0
H1654 H 0.39029 0.84379 0.85134 0.0
H1655 H 0.42145 0.85629 0.85495 0.0
C1656 C 0.41038 0.88125 0.36501 0.0
C1657 C 0.40056 0.89549 0.37473 0.0
C1658 C 0.40262 0.86352 0.36308 0.0
C1659 C 0.36681 0.83399 0.38662 0.0
H1660 H 0.37096 0.80375 0.3388 0.0
C1661 C 0.31935 0.7724 0.3746 0.0
C1662 C 0.3276 0.75523 0.37021 0.0
C1663 C 0.3295 0.78875 0.37328 0.0
C1664 C 0.3699 0.812 0.3523 0.0
H1665 H 0.37454 0.90263 0.38899 0.0
H1666 H 0.36091 0.87199 0.38539 0.0
H1667 H 0.38625 0.83416 0.34008 0.0
H1668 H 0.35266 0.74186 0.3597 0.0
H1669 H 0.37062 0.77084 0.3572 0.0
H1670 H 0.35017 0.81218 0.3987 0.0
C1671 C 0.37482 0.87425 0.37978 0.0
C1672 C 0.37863 0.82937 0.35306 0.0
C1673 C 0.3826 0.89185 0.3818 0.0
C1674 C 0.34599 0.75491 0.36321 0.0
C1675 C 0.35624 0.77143 0.36181 0.0
C1676 C 0.35804 0.8168 0.38581 0.0
C1677 C 0.38485 0.85974 0.37078 0.0
C1678 C 0.37684 0.84073 0.37011 0.0
C1679 C 0.34818 0.78842 0.36745 0.0
C1680 C 0.35915 0.80579 0.36853 0.0
H1681 H 0.42431 0.88364 0.35949 0.0
H1682 H 0.41074 0.85266 0.35614 0.0
H1683 H 0.36559 0.84208 0.40022 0.0
H1684 H 0.30505 0.7732 0.37943 0.0
H1685 H 0.32281 0.8017 0.37723 0.0
C1686 C 0.39114 0.16042 0.61475 0.0
C1687 C 0.37755 0.15134 0.62623 0.0
C1688 C 0.40892 0.15274 0.61271 0.0
C1689 C 0.43996 0.11902 0.63802 0.0
H1690 H 0.46781 0.11939 0.58832 0.0
C1691 C 0.49898 0.06864 0.62424 0.0
C1692 C 0.51642 0.07615 0.61943 0.0
C1693 C 0.48306 0.07953 0.6235 0.0
C1694 C 0.46024 0.11943 0.60232 0.0
H1695 H 0.37152 0.12667 0.64356 0.0
H1696 H 0.40216 0.11311 0.63969 0.0
H1697 H 0.43757 0.13504 0.59 0.0
H1698 H 0.53054 0.10082 0.60885 0.0
H1699 H 0.50228 0.11993 0.60716 0.0
H1700 H 0.46218 0.10288 0.65011 0.0
C1701 C 0.39944 0.12644 0.63281 0.0
C1702 C 0.44296 0.12837 0.60333 0.0
C1703 C 0.38183 0.13415 0.63496 0.0
C1704 C 0.51734 0.09463 0.61269 0.0
C1705 C 0.50122 0.10556 0.61175 0.0
C1706 C 0.45701 0.11 0.63695 0.0
C1707 C 0.41336 0.13579 0.62204 0.0
C1708 C 0.43242 0.12786 0.62108 0.0
C1709 C 0.48404 0.09817 0.61768 0.0
C1710 C 0.46713 0.10976 0.61901 0.0
H1711 H 0.38822 0.17373 0.60792 0.0
H1712 H 0.41931 0.16033 0.60436 0.0
H1713 H 0.43253 0.11882 0.65211 0.0
H1714 H 0.49758 0.05433 0.62884 0.0
H1715 H 0.46991 0.0734 0.62776 0.0
C1716 C 0.19812 0.24634 0.86157 0.0
C1717 C 0.18987 0.26384 0.86393 0.0
C1718 C 0.18724 0.23046 0.85963 0.0
C1719 C 0.14237 0.21177 0.87433 0.0
H1720 H 0.15607 0.17149 0.83885 0.0
C1721 C 0.10416 0.1411 0.87576 0.0
C1722 C 0.11535 0.12517 0.87436 0.0
C1723 C 0.11154 0.15871 0.87202 0.0
C1724 C 0.15213 0.18254 0.84896 0.0
H1725 H 0.1638 0.2786 0.86549 0.0
H1726 H 0.14453 0.25059 0.8623 0.0
H1727 H 0.17176 0.20132 0.836 0.0
H1728 H 0.14316 0.11534 0.86804 0.0
H1729 H 0.15608 0.14596 0.86173 0.0
H1730 H 0.12323 0.19283 0.88781 0.0
C1731 C 0.15948 0.24925 0.86195 0.0
C1732 C 0.16106 0.19966 0.84725 0.0
C1733 C 0.17045 0.26525 0.86362 0.0
C1734 C 0.13407 0.12727 0.86894 0.0
C1735 C 0.14147 0.14487 0.86528 0.0
C1736 C 0.13349 0.19459 0.87613 0.0
C1737 C 0.16781 0.23165 0.86018 0.0
C1738 C 0.15656 0.21436 0.86018 0.0
C1739 C 0.13033 0.16085 0.86685 0.0
C1740 C 0.13853 0.17962 0.86374 0.0
H1741 H 0.21307 0.24491 0.86158 0.0
H1742 H 0.19411 0.21714 0.85848 0.0
H1743 H 0.13874 0.22275 0.88467 0.0
H1744 H 0.08962 0.13994 0.87965 0.0
H1745 H 0.10248 0.17065 0.87309 0.0
C1746 C 0.14216 0.88835 0.12306 0.0
C1747 C 0.14354 0.86917 0.12653 0.0
C1748 C 0.12484 0.89676 0.12074 0.0
C1749 C 0.07554 0.88804 0.10903 0.0
H1750 H 0.06798 0.93363 0.13861 0.0
C1751 C 1.00363 0.92468 0.11768 0.0
C1752 C 1.00383 0.94414 0.11838 0.0
C1753 C 0.02035 0.91472 0.11694 0.0
C1754 C 0.06989 0.92107 0.12998 0.0
H1755 H 0.1278 0.84372 0.12963 0.0
H1756 H 0.09746 0.8585 0.12569 0.0
H1757 H 0.09771 0.91792 0.1405 0.0
H1758 H 0.02134 0.96846 0.11721 0.0
H1759 H 0.05033 0.9513 0.11532 0.0
H1760 H 0.04762 0.89132 0.09845 0.0
C1761 C 0.10983 0.86698 0.12472 0.0
C1762 C 0.08697 0.91204 0.13112 0.0
C1763 C 0.12718 0.85855 0.12717 0.0
C1764 C 0.02086 0.95345 0.11711 0.0
C1765 C 0.03746 0.94359 0.11614 0.0
C1766 C 0.0584 0.89717 0.10779 0.0
C1767 C 0.10846 0.88622 0.12176 0.0
C1768 C 0.09007 0.8955 0.12056 0.0
C1769 C 0.0375 0.92411 0.11671 0.0
C1770 C 0.05544 0.91391 0.11812 0.0
H1771 H 0.15445 0.89697 0.12267 0.0
H1772 H 0.12426 0.9116 0.11826 0.0
H1773 H 0.07755 0.87534 0.10067 0.0
H1774 H 0.99063 0.91723 0.11869 0.0
H1775 H 0.01987 0.89972 0.11742 0.0
C1776 C 0.67598 0.75479 0.85837 0.0
C1777 C 0.68968 0.75242 0.87315 0.0
C1778 C 0.66441 0.77045 0.8586 0.0
C1779 C 0.64899 0.80911 0.8918 0.0
H1780 H 0.64086 0.83579 0.8421 0.0
C1781 C 0.63209 0.88666 0.88988 0.0
C1782 C 0.61689 0.89244 0.87821 0.0
C1783 C 0.63886 0.86858 0.88849 0.0
C1784 C 0.64284 0.82835 0.85604 0.0
H1785 H 0.7013 0.76416 0.90027 0.0
H1786 H 0.68175 0.79141 0.9004 0.0
H1787 H 0.65592 0.80536 0.84143 0.0
H1788 H 0.5972 0.88355 0.85552 0.0
H1789 H 0.60958 0.85208 0.85265 0.0
H1790 H 0.63668 0.83246 0.90645 0.0
C1791 C 0.67968 0.78123 0.88869 0.0
C1792 C 0.65138 0.8109 0.85568 0.0
C1793 C 0.69113 0.76568 0.88846 0.0
C1794 C 0.60905 0.87973 0.86459 0.0
C1795 C 0.61605 0.86166 0.863 0.0
C1796 C 0.64069 0.82659 0.89216 0.0
C1797 C 0.66626 0.78395 0.8737 0.0
C1798 C 0.65498 0.80127 0.87362 0.0
C1799 C 0.63083 0.85585 0.87518 0.0
C1800 C 0.63791 0.83656 0.87435 0.0
H1801 H 0.67456 0.74485 0.84634 0.0
H1802 H 0.65412 0.77203 0.84692 0.0
H1803 H 0.65108 0.80191 0.90586 0.0
H1804 H 0.63882 0.89612 0.90015 0.0
H1805 H 0.65051 0.86456 0.89779 0.0
C1806 C 0.01477 0.92373 0.61697 0.0
C1807 C 0.01443 0.94319 0.61727 0.0
C1808 C 0.99811 0.91367 0.61619 0.0
C1809 C 0.94876 0.92003 0.62929 0.0
H1810 H 0.94067 0.87426 0.6002 0.0
C1811 C 0.87633 0.8877 0.62365 0.0
C1812 C 0.87486 0.86847 0.62669 0.0
C1813 C 0.89366 0.89602 0.62115 0.0
C1814 C 0.9428 0.88696 0.60853 0.0
H1815 H 0.99681 0.9674 0.61523 0.0
H1816 H 0.96794 0.95005 0.61334 0.0
H1817 H 0.97064 0.89011 0.59762 0.0
H1818 H 0.89048 0.84284 0.62886 0.0
H1819 H 0.92083 0.85746 0.62474 0.0
H1820 H 0.9211 0.91699 0.64024 0.0
C1821 C 0.98085 0.94244 0.61445 0.0
C1822 C 0.95996 0.89602 0.60706 0.0
C1823 C 0.99737 0.95239 0.61543 0.0
C1824 C 0.89115 0.85772 0.62676 0.0
C1825 C 0.90852 0.86605 0.62419 0.0
C1826 C 0.9317 0.91105 0.63071 0.0
C1827 C 0.98093 0.92298 0.61555 0.0
C1828 C 0.96304 0.91279 0.61726 0.0
C1829 C 0.90998 0.88534 0.62162 0.0
C1830 C 0.92841 0.89451 0.62021 0.0
H1831 H 0.0278 0.91637 0.61843 0.0
H1832 H 0.99865 0.89868 0.61705 0.0
H1833 H 0.9508 0.93263 0.63781 0.0
H1834 H 0.86411 0.89644 0.6237 0.0
H1835 H 0.89428 0.91089 0.61895 0.0
C1836 C 0.91093 0.1399 0.37547 0.0
C1837 C 0.89966 0.12399 0.37599 0.0
C1838 C 0.90323 0.15741 0.37189 0.0
C1839 C 0.86111 0.18048 0.35166 0.0
H1840 H 0.87716 0.22209 0.38406 0.0
C1841 C 0.81687 0.24587 0.3626 0.0
C1842 C 0.82557 0.26327 0.36377 0.0
C1843 C 0.82734 0.22966 0.36121 0.0
C1844 C 0.87274 0.2107 0.37463 0.0
H1845 H 0.87134 0.11413 0.37338 0.0
H1846 H 0.85792 0.14458 0.36722 0.0
H1847 H 0.89264 0.19216 0.38755 0.0
H1848 H 0.85204 0.27738 0.36378 0.0
H1849 H 0.87054 0.24884 0.36139 0.0
H1850 H 0.8409 0.19889 0.33912 0.0
C1851 C 0.87279 0.14351 0.36918 0.0
C1852 C 0.8816 0.19352 0.37665 0.0
C1853 C 0.88049 0.12602 0.37275 0.0
C1854 C 0.84501 0.26414 0.36283 0.0
C1855 C 0.85556 0.24783 0.36164 0.0
C1856 C 0.85224 0.19762 0.34968 0.0
C1857 C 0.88405 0.15944 0.36874 0.0
C1858 C 0.87566 0.1781 0.36546 0.0
C1859 C 0.84681 0.23038 0.36106 0.0
C1860 C 0.8577 0.21285 0.36142 0.0
H1861 H 0.92578 0.1388 0.37763 0.0
H1862 H 0.91233 0.16934 0.3714 0.0
H1863 H 0.85644 0.16902 0.34248 0.0
H1864 H 0.80191 0.24478 0.36303 0.0
H1865 H 0.82014 0.21648 0.36099 0.0
C1866 C 0.50735 0.08521 0.10729 0.0
C1867 C 0.50008 0.0787 0.12549 0.0
C1868 C 0.52434 0.0947 0.10694 0.0
C1869 C 0.56684 0.09897 0.13768 0.0
H1870 H 0.57879 0.14029 0.10284 0.0
C1871 C 0.63249 0.14258 0.14882 0.0
C1872 C 0.64297 0.14719 0.13179 0.0
C1873 C 0.61503 0.13445 0.14686 0.0
C1874 C 0.57568 0.12863 0.1125 0.0
H1875 H 0.50389 0.07821 0.15761 0.0
H1876 H 0.53306 0.09515 0.15718 0.0
H1877 H 0.54771 0.12658 0.10169 0.0
H1878 H 0.6433 0.14698 0.09934 0.0
H1879 H 0.61262 0.13267 0.0959 0.0
H1880 H 0.5946 0.10109 0.14868 0.0
C1881 C 0.52617 0.09241 0.14307 0.0
C1882 C 0.5579 0.12078 0.11185 0.0
C1883 C 0.50941 0.08283 0.14337 0.0
C1884 C 0.63558 0.14346 0.11272 0.0
C1885 C 0.61797 0.13545 0.11075 0.0
C1886 C 0.58448 0.10684 0.13841 0.0
C1887 C 0.5342 0.09791 0.12483 0.0
C1888 C 0.5532 0.10602 0.12467 0.0
C1889 C 0.60756 0.13078 0.12782 0.0
C1890 C 0.58905 0.1219 0.12603 0.0
H1891 H 0.50042 0.08208 0.09331 0.0
H1892 H 0.53013 0.09873 0.09263 0.0
H1893 H 0.56392 0.08727 0.14735 0.0
H1894 H 0.63787 0.14511 0.16371 0.0
H1895 H 0.60728 0.13117 0.16029 0.0
C1896 C 0.69475 0.24751 0.63337 0.0
C1897 C 0.6872 0.26525 0.63654 0.0
C1898 C 0.68371 0.23175 0.63474 0.0
C1899 C 0.64459 0.20869 0.65499 0.0
H1900 H 0.643 0.18318 0.60389 0.0
C1901 C 0.60524 0.13865 0.64159 0.0
C1902 C 0.61433 0.1259 0.62904 0.0
C1903 C 0.61227 0.15666 0.64403 0.0
C1904 C 0.64338 0.19001 0.61832 0.0
H1905 H 0.66238 0.2802 0.64511 0.0
H1906 H 0.64289 0.25218 0.64787 0.0
H1907 H 0.65844 0.21308 0.60643 0.0
H1908 H 0.63843 0.12161 0.61024 0.0
H1909 H 0.65082 0.15262 0.61475 0.0
H1910 H 0.63025 0.18511 0.66711 0.0
C1911 C 0.65743 0.25077 0.64409 0.0
C1912 C 0.65207 0.20721 0.61969 0.0
C1913 C 0.66855 0.26672 0.64255 0.0
C1914 C 0.6309 0.13125 0.61966 0.0
C1915 C 0.63795 0.14908 0.62218 0.0
C1916 C 0.63598 0.19126 0.65367 0.0
C1917 C 0.66487 0.23324 0.63959 0.0
C1918 C 0.65312 0.21651 0.63809 0.0
C1919 C 0.62854 0.16218 0.63403 0.0
C1920 C 0.63575 0.1815 0.6354 0.0
H1921 H 0.70918 0.2458 0.62932 0.0
H1922 H 0.68979 0.21834 0.63147 0.0
H1923 H 0.64534 0.21562 0.66935 0.0
H1924 H 0.5924 0.13491 0.64897 0.0
H1925 H 0.60467 0.1664 0.65325 0.0
C1926 C 0.63446 0.86841 0.39239 0.0
C1927 C 0.64033 0.86049 0.3742 0.0
C1928 C 0.61647 0.87559 0.39432 0.0
C1929 C 0.58005 0.89582 0.36319 0.0
H1930 H 0.54723 0.88812 0.40843 0.0
C1931 C 0.50627 0.92374 0.36027 0.0
C1932 C 0.49927 0.93245 0.37743 0.0
C1933 C 0.52229 0.91295 0.3613 0.0
C1934 C 0.55631 0.89055 0.39579 0.0
H1935 H 0.63141 0.85269 0.34433 0.0
H1936 H 0.60032 0.86543 0.34761 0.0
H1937 H 0.57782 0.8732 0.40794 0.0
H1938 H 0.5029 0.93616 0.4093 0.0
H1939 H 0.53143 0.91762 0.41117 0.0
H1940 H 0.55912 0.91347 0.35116 0.0
C1941 C 0.6097 0.8664 0.36025 0.0
C1942 C 0.57379 0.88198 0.39551 0.0
C1943 C 0.62755 0.85917 0.35836 0.0
C1944 C 0.50804 0.92942 0.39592 0.0
C1945 C 0.52434 0.91882 0.39693 0.0
C1946 C 0.56277 0.90446 0.36354 0.0
C1947 C 0.60407 0.87504 0.37808 0.0
C1948 C 0.58573 0.88437 0.37906 0.0
C1949 C 0.53197 0.91094 0.37948 0.0
C1950 C 0.55052 0.90177 0.37968 0.0
H1951 H 0.64397 0.8697 0.40487 0.0
H1952 H 0.61251 0.88223 0.40822 0.0
H1953 H 0.58912 0.89828 0.35052 0.0
H1954 H 0.49957 0.92575 0.34592 0.0
H1955 H 0.52737 0.90661 0.34767 0.0
C1956 C 0.9147 0.87648 0.11394 0.0
C1957 C 0.91051 0.8904 0.12798 0.0
C1958 C 0.9077 0.85856 0.11622 0.0
C1959 C 0.88786 0.8248 0.1513 0.0
H1960 H 0.86208 0.80681 0.10423 0.0
C1961 C 0.8406 0.75921 0.15153 0.0
C1962 C 0.83896 0.74929 0.13357 0.0
C1963 C 0.85129 0.77545 0.15228 0.0
C1964 C 0.86953 0.81133 0.11743 0.0
H1965 H 0.89642 0.89599 0.15605 0.0
H1966 H 0.88447 0.86443 0.16018 0.0
H1967 H 0.87735 0.83673 0.10322 0.0
H1968 H 0.84791 0.74753 0.10281 0.0
H1969 H 0.86744 0.7751 0.10422 0.0
H1970 H 0.88024 0.7992 0.16544 0.0
C1971 C 0.89312 0.86756 0.14736 0.0
C1972 C 0.8782 0.8286 0.11685 0.0
C1973 C 0.89999 0.88561 0.14498 0.0
C1974 C 0.84901 0.7551 0.11676 0.0
C1975 C 0.85996 0.77102 0.11757 0.0
C1976 C 0.87937 0.8073 0.15182 0.0
C1977 C 0.89652 0.854 0.13271 0.0
C1978 C 0.88748 0.83553 0.13373 0.0
C1979 C 0.86069 0.78186 0.13509 0.0
C1980 C 0.87013 0.8003 0.13483 0.0
H1981 H 0.92321 0.87946 0.10097 0.0
H1982 H 0.91082 0.84829 0.10488 0.0
H1983 H 0.89497 0.82981 0.16452 0.0
H1984 H 0.83273 0.755 0.16458 0.0
H1985 H 0.85138 0.78342 0.166 0.0
C1986 C 0.01602 0.09803 0.88458 0.0
C1987 C 0.01443 0.07983 0.89184 0.0
C1988 C 1.00057 0.10983 0.88451 0.0
C1989 C 0.95459 0.11781 0.90666 0.0
H1990 H 0.94018 0.13581 0.85414 0.0
C1991 C 0.88848 0.16237 0.8908 0.0
C1992 C 0.87686 0.15477 0.87593 0.0
C1993 C 0.90635 0.1553 0.89396 0.0
C1994 C 0.94413 0.13101 0.86892 0.0
H1995 H 0.99599 0.05998 0.90573 0.0
H1996 H 0.96913 0.08071 0.90614 0.0
H1997 H 0.97015 0.12035 0.85851 0.0
H1998 H 0.8751 0.13332 0.85315 0.0
H1999 H 0.90641 0.12169 0.85815 0.0
H2000 H 0.9284 0.12826 0.91698 0.0
C2001 C 0.98219 0.08582 0.90031 0.0
C2002 C 0.9613 0.1223 0.87145 0.0
C2003 C 0.99747 0.07394 0.89997 0.0
C2004 C 0.88368 0.13993 0.86437 0.0
C2005 C 0.90162 0.13315 0.86727 0.0
C2006 C 0.93755 0.12686 0.90421 0.0
C2007 C 0.98345 0.10373 0.89216 0.0
C2008 C 0.96651 0.11524 0.89024 0.0
C2009 C 0.91312 0.14075 0.88208 0.0
C2010 C 0.93199 0.13313 0.88522 0.0
H2011 H 0.02896 0.10278 0.87814 0.0
H2012 H 1.00189 0.1236 0.87815 0.0
H2013 H 0.9583 0.11249 0.9213 0.0
H2014 H 0.88394 0.17397 0.89983 0.0
H2015 H 0.915 0.16142 0.90546 0.0
C2016 C 0.91228 0.63804 0.63805 0.0
C2017 C 0.90381 0.6256 0.62459 0.0
C2018 C 0.9056 0.6562 0.6401 0.0
C2019 C 0.88145 0.69189 0.61179 0.0
H2020 H 0.86547 0.7127 0.66245 0.0
C2021 C 0.83044 0.75215 0.61508 0.0
C2022 C 0.83147 0.76536 0.63048 0.0
C2023 C 0.84214 0.73679 0.61496 0.0
C2024 C 0.87024 0.70728 0.64824 0.0
H2025 H 0.88099 0.6224 0.60361 0.0
H2026 H 0.86992 0.6541 0.6067 0.0
H2027 H 0.88049 0.68221 0.66174 0.0
H2028 H 0.84608 0.77305 0.65758 0.0
H2029 H 0.86695 0.74618 0.65721 0.0
H2030 H 0.87131 0.7167 0.59816 0.0
C2031 C 0.8818 0.64982 0.6155 0.0
C2032 C 0.87876 0.6898 0.64785 0.0
C2033 C 0.88824 0.63167 0.61369 0.0
C2034 C 0.845 0.76315 0.64547 0.0
C2035 C 0.85681 0.74767 0.64536 0.0
C2036 C 0.8732 0.70938 0.61219 0.0
C2037 C 0.89053 0.66232 0.62853 0.0
C2038 C 0.88388 0.68174 0.62954 0.0
C2039 C 0.85539 0.73421 0.63015 0.0
C2040 C 0.86689 0.71704 0.63032 0.0
H2041 H 0.92439 0.63396 0.64657 0.0
H2042 H 0.91255 0.66563 0.65025 0.0
H2043 H 0.88559 0.68609 0.59751 0.0
H2044 H 0.82039 0.75357 0.60313 0.0
H2045 H 0.84038 0.72664 0.60317 0.0
C2046 C 0.6323 0.64651 0.85643 0.0
C2047 C 0.6429 0.65169 0.87315 0.0
C2048 C 0.61439 0.63952 0.85882 0.0
C2049 C 0.58292 0.61797 0.89608 0.0
H2050 H 0.54591 0.62943 0.85575 0.0
C2051 C 0.5075 0.58925 0.89854 0.0
C2052 C 0.50258 0.57999 0.88083 0.0
C2053 C 0.52342 0.60041 0.89912 0.0
C2054 C 0.55609 0.62617 0.86717 0.0
H2055 H 0.64305 0.65361 0.90553 0.0
H2056 H 0.61156 0.64165 0.90975 0.0
H2057 H 0.57625 0.64422 0.85416 0.0
H2058 H 0.50973 0.57572 0.84972 0.0
H2059 H 0.5372 0.59545 0.85054 0.0
H2060 H 0.56258 0.59984 0.90899 0.0
C2061 C 0.61721 0.64272 0.89477 0.0
C2062 C 0.57353 0.63453 0.86619 0.0
C2063 C 0.63524 0.64959 0.89237 0.0
C2064 C 0.51333 0.58266 0.86355 0.0
C2065 C 0.52896 0.59403 0.86401 0.0
C2066 C 0.56536 0.60975 0.89716 0.0
C2067 C 0.60651 0.63766 0.878 0.0
C2068 C 0.58736 0.63017 0.88032 0.0
C2069 C 0.53436 0.60277 0.88187 0.0
C2070 C 0.55194 0.61343 0.88243 0.0
H2071 H 0.63794 0.64764 0.84145 0.0
H2072 H 0.60681 0.63531 0.84558 0.0
H2073 H 0.59323 0.61415 0.90713 0.0
H2074 H 0.49946 0.58726 0.91207 0.0
H2075 H 0.52727 0.60705 0.91306 0.0
C2076 C 0.63575 0.39204 0.12521 0.0
C2077 C 0.61707 0.39531 0.12989 0.0
C2078 C 0.64342 0.37441 0.12754 0.0
C2079 C 0.63569 0.32742 0.14951 0.0
H2080 H 0.6697 0.31336 0.10724 0.0
C2081 C 0.67971 0.25941 0.15039 0.0
C2082 C 0.68415 0.25154 0.1318 0.0
C2083 C 0.66971 0.2761 0.1513 0.0
C2084 C 0.66003 0.31687 0.11905 0.0
H2085 H 0.59186 0.3829 0.14129 0.0
H2086 H 0.60511 0.35177 0.14484 0.0
H2087 H 0.65614 0.34398 0.10706 0.0
H2088 H 0.6806 0.25385 0.09978 0.0
H2089 H 0.66242 0.2823 0.10122 0.0
H2090 H 0.63923 0.29984 0.16103 0.0
C2091 C 0.61396 0.36293 0.13973 0.0
C2092 C 0.65249 0.33466 0.11916 0.0
C2093 C 0.60634 0.38072 0.13765 0.0
C2094 C 0.67745 0.25985 0.11425 0.0
C2095 C 0.66722 0.27624 0.11513 0.0
C2096 C 0.64317 0.30944 0.14931 0.0
C2097 C 0.63252 0.35946 0.13427 0.0
C2098 C 0.64032 0.34028 0.13444 0.0
C2099 C 0.66382 0.28501 0.13359 0.0
C2100 C 0.65543 0.30393 0.13402 0.0
H2101 H 0.64439 0.40313 0.11949 0.0
H2102 H 0.65789 0.37246 0.12376 0.0
H2103 H 0.62646 0.33128 0.16159 0.0
H2104 H 0.6849 0.25324 0.16408 0.0
H2105 H 0.66743 0.28244 0.16578 0.0
C2106 C 0.01093 0.4317 0.39262 0.0
C2107 C 0.01833 0.43688 0.37398 0.0
C2108 C 0.99405 0.42205 0.39362 0.0
C2109 C 0.95187 0.41565 0.36312 0.0
H2110 H 0.93982 0.37609 0.40025 0.0
C2111 C 0.88623 0.37192 0.3538 0.0
C2112 C 0.87566 0.36788 0.37093 0.0
C2113 C 0.90374 0.37998 0.35554 0.0
C2114 C 0.94295 0.38727 0.38995 0.0
H2115 H 0.0149 0.43475 0.34188 0.0
H2116 H 0.98587 0.41761 0.34352 0.0
H2117 H 0.97086 0.39 0.40084 0.0
H2118 H 0.87531 0.36897 0.40337 0.0
H2119 H 0.90604 0.38325 0.40641 0.0
H2120 H 0.92418 0.41296 0.35212 0.0
C2121 C 0.99261 0.42149 0.3574 0.0
C2122 C 0.96071 0.39521 0.39028 0.0
C2123 C 1.00928 0.4312 0.35643 0.0
C2124 C 0.88308 0.37204 0.38989 0.0
C2125 C 0.90072 0.38004 0.39164 0.0
C2126 C 0.93425 0.40773 0.36277 0.0
C2127 C 0.98443 0.41737 0.37597 0.0
C2128 C 0.96545 0.40929 0.37661 0.0
C2129 C 0.91117 0.38421 0.37445 0.0
C2130 C 0.92964 0.39326 0.37594 0.0
H2131 H 0.01764 0.43603 0.40635 0.0
H2132 H 0.98812 0.41907 0.40817 0.0
H2133 H 0.95485 0.42683 0.35278 0.0
H2134 H 0.88086 0.3691 0.33896 0.0
H2135 H 0.91152 0.38283 0.342 0.0
C2136 C 0.91143 0.37753 0.87542 0.0
C2137 C 0.90026 0.39352 0.87655 0.0
C2138 C 0.90343 0.36003 0.87269 0.0
C2139 C 0.85913 0.33559 0.88035 0.0
H2140 H 0.87985 0.29808 0.84524 0.0
C2141 C 0.81812 0.27039 0.86311 0.0
C2142 C 0.82735 0.25335 0.86503 0.0
C2143 C 0.82803 0.28692 0.86227 0.0
C2144 C 0.87402 0.30838 0.85521 0.0
H2145 H 0.8719 0.40355 0.87557 0.0
H2146 H 0.85805 0.37322 0.8704 0.0
H2147 H 0.89525 0.32827 0.84838 0.0
H2148 H 0.85419 0.24003 0.86632 0.0
H2149 H 0.87184 0.26924 0.86506 0.0
H2150 H 0.83798 0.31592 0.88726 0.0
C2151 C 0.87298 0.37415 0.87185 0.0
C2152 C 0.88282 0.32564 0.85703 0.0
C2153 C 0.88096 0.3916 0.87457 0.0
C2154 C 0.84682 0.25304 0.8648 0.0
C2155 C 0.85685 0.26972 0.8641 0.0
C2156 C 0.85037 0.31846 0.87852 0.0
C2157 C 0.88408 0.35812 0.87112 0.0
C2158 C 0.87531 0.33952 0.86945 0.0
C2159 C 0.84748 0.28686 0.86354 0.0
C2160 C 0.85753 0.30473 0.86574 0.0
H2161 H 0.92637 0.37854 0.87665 0.0
H2162 H 0.91236 0.34795 0.87231 0.0
H2163 H 0.85324 0.34575 0.89045 0.0
H2164 H 0.80311 0.27092 0.86288 0.0
H2165 H 0.82042 0.29984 0.86126 0.0
C2166 C 0.88642 0.64713 0.10994 0.0
C2167 C 0.88161 0.65737 0.12712 0.0
C2168 C 0.90433 0.63985 0.10774 0.0
C2169 C 0.94218 0.6228 0.13832 0.0
H2170 H 0.97317 0.62702 0.0911 0.0
C2171 C 0.01546 0.59287 0.13938 0.0
C2172 C 0.02196 0.58398 0.12211 0.0
C2173 C 0.9995 0.60377 0.13871 0.0
C2174 C 0.96462 0.62551 0.10432 0.0
H2175 H 0.89241 0.66909 0.15472 0.0
H2176 H 0.9233 0.65589 0.15115 0.0
H2177 H 0.94276 0.64219 0.0918 0.0
H2178 H 0.01739 0.57982 0.09047 0.0
H2179 H 0.98887 0.59832 0.08926 0.0
H2180 H 0.96329 0.6056 0.1507 0.0
C2181 C 0.91314 0.65336 0.13951 0.0
C2182 C 0.94724 0.63426 0.10471 0.0
C2183 C 0.89538 0.6608 0.14159 0.0
C2184 C 0.01263 0.58672 0.10391 0.0
C2185 C 0.99634 0.59734 0.10329 0.0
C2186 C 0.95931 0.61385 0.13784 0.0
C2187 C 0.9177 0.64253 0.12277 0.0
C2188 C 0.93597 0.63312 0.12182 0.0
C2189 C 0.98929 0.60563 0.12083 0.0
C2190 C 0.97092 0.61523 0.12095 0.0
H2191 H 0.87617 0.64412 0.09854 0.0
H2192 H 0.9075 0.63148 0.09472 0.0
H2193 H 0.93361 0.6214 0.15156 0.0
H2194 H 0.02261 0.59103 0.15352 0.0
H2195 H 0.99495 0.61042 0.15239 0.0
C2196 C 0.66919 0.76584 0.36279 0.0
C2197 C 0.68857 0.76445 0.36425 0.0
C2198 C 0.65832 0.7498 0.3608 0.0
C2199 C 0.66083 0.69989 0.34743 0.0
H2200 H 0.62102 0.69368 0.38586 0.0
C2201 C 0.63431 0.62788 0.3706 0.0
C2202 C 0.6153 0.6254 0.37439 0.0
C2203 C 0.64149 0.64553 0.3668 0.0
C2204 C 0.63187 0.69526 0.37477 0.0
H2205 H 0.71185 0.74551 0.3636 0.0
H2206 H 0.69309 0.71768 0.36 0.0
H2207 H 0.63636 0.72372 0.38269 0.0
H2208 H 0.58887 0.63961 0.37679 0.0
H2209 H 0.60143 0.67046 0.37015 0.0
H2210 H 0.65667 0.6714 0.33977 0.0
C2211 C 0.68616 0.73101 0.36046 0.0
C2212 C 0.64064 0.71251 0.37294 0.0
C2213 C 0.69692 0.74692 0.3627 0.0
C2214 C 0.60362 0.64105 0.37418 0.0
C2215 C 0.61081 0.65873 0.37036 0.0
C2216 C 0.65205 0.6827 0.34921 0.0
C2217 C 0.66673 0.73218 0.35987 0.0
C2218 C 0.65554 0.71487 0.35961 0.0
C2219 C 0.62986 0.6612 0.36666 0.0
C2220 C 0.63778 0.68002 0.36327 0.0
H2221 H 0.66246 0.77922 0.36402 0.0
H2222 H 0.64337 0.75113 0.36027 0.0
H2223 H 0.67208 0.70136 0.33679 0.0
H2224 H 0.64377 0.61621 0.37101 0.0
H2225 H 0.65628 0.64693 0.36444 0.0
C2226 C 0.62761 0.35716 0.6159 0.0
C2227 C 0.64214 0.36731 0.62468 0.0
C2228 C 0.60995 0.3651 0.61369 0.0
C2229 C 0.58138 0.40292 0.63503 0.0
H2230 H 0.5501 0.39613 0.58834 0.0
C2231 C 0.52029 0.45066 0.62034 0.0
C2232 C 0.50288 0.44247 0.61696 0.0
C2233 C 0.53645 0.44011 0.61963 0.0
C2234 C 0.55864 0.39794 0.60154 0.0
H2235 H 0.64988 0.39404 0.63687 0.0
H2236 H 0.6194 0.40794 0.63274 0.0
H2237 H 0.58027 0.38037 0.59019 0.0
H2238 H 0.48894 0.41695 0.60889 0.0
H2239 H 0.51756 0.39834 0.60739 0.0
H2240 H 0.56011 0.42078 0.64619 0.0
C2241 C 0.62135 0.39367 0.62814 0.0
C2242 C 0.57588 0.38894 0.60263 0.0
C2243 C 0.63886 0.38574 0.63045 0.0
C2244 C 0.50215 0.42362 0.6116 0.0
C2245 C 0.51848 0.41299 0.61077 0.0
C2246 C 0.56433 0.41196 0.63387 0.0
C2247 C 0.60654 0.38336 0.62015 0.0
C2248 C 0.58763 0.39166 0.61924 0.0
C2249 C 0.53571 0.42109 0.61537 0.0
C2250 C 0.55293 0.40989 0.61697 0.0
H2251 H 0.62972 0.3429 0.61138 0.0
H2252 H 0.59886 0.35674 0.60754 0.0
H2253 H 0.58976 0.4049 0.64832 0.0
H2254 H 0.52144 0.46525 0.62389 0.0
H2255 H 0.54958 0.44682 0.62276 0.0
C2256 C 0.12454 0.38777 0.35853 0.0
C2257 C 0.1106 0.39204 0.37244 0.0
C2258 C 0.13123 0.36961 0.35683 0.0
C2259 C 0.13416 0.32633 0.38664 0.0
H2260 H 0.15474 0.30631 0.33758 0.0
C2261 C 0.1869 0.26712 0.38754 0.0
C2262 C 0.18697 0.25388 0.37212 0.0
C2263 C 0.17512 0.28242 0.38672 0.0
C2264 C 0.1488 0.31155 0.35135 0.0
H2265 H 0.0918 0.38058 0.39449 0.0
H2266 H 0.10293 0.34883 0.3911 0.0
H2267 H 0.13807 0.33576 0.33677 0.0
H2268 H 0.1743 0.24614 0.34391 0.0
H2269 H 0.1533 0.27285 0.34263 0.0
H2270 H 0.1446 0.30209 0.40118 0.0
C2271 C 0.10927 0.35952 0.38199 0.0
C2272 C 0.13946 0.32858 0.35095 0.0
C2273 C 0.1028 0.37769 0.38389 0.0
C2274 C 0.17452 0.25604 0.35607 0.0
C2275 C 0.16264 0.27145 0.35525 0.0
C2276 C 0.14333 0.30929 0.387 0.0
C2277 C 0.12391 0.35529 0.36883 0.0
C2278 C 0.13233 0.33638 0.36867 0.0
C2279 C 0.16293 0.2849 0.37052 0.0
C2280 C 0.15118 0.30188 0.36948 0.0
H2281 H 0.13082 0.39862 0.34958 0.0
H2282 H 0.14265 0.36699 0.3467 0.0
H2283 H 0.1291 0.33189 0.40066 0.0
H2284 H 0.19608 0.26575 0.40027 0.0
H2285 H 0.17597 0.29258 0.39862 0.0
C2286 C 0.51618 0.42366 0.11644 0.0
C2287 C 0.51598 0.44312 0.11675 0.0
C2288 C 0.49946 0.41373 0.11542 0.0
C2289 C 0.44985 0.42053 0.12751 0.0
H2290 H 0.44234 0.37416 0.09936 0.0
C2291 C 0.37765 0.38765 0.12147 0.0
C2292 C 0.37632 0.36854 0.12536 0.0
C2293 C 0.39495 0.39603 0.11887 0.0
C2294 C 0.4443 0.38704 0.1074 0.0
H2295 H 0.49859 0.46747 0.11456 0.0
H2296 H 0.4696 0.45035 0.11213 0.0
H2297 H 0.4723 0.39003 0.09696 0.0
H2298 H 0.39211 0.34315 0.1289 0.0
H2299 H 0.4224 0.35787 0.12453 0.0
H2300 H 0.422 0.41765 0.13795 0.0
C2301 C 0.48244 0.44263 0.11345 0.0
C2302 C 0.46146 0.39612 0.10605 0.0
C2303 C 0.49902 0.45246 0.11471 0.0
C2304 C 0.39269 0.35794 0.12613 0.0
C2305 C 0.41002 0.36632 0.12342 0.0
C2306 C 0.43277 0.41155 0.12878 0.0
C2307 C 0.48235 0.42316 0.11453 0.0
C2308 C 0.46437 0.41308 0.11596 0.0
C2309 C 0.41135 0.38551 0.12005 0.0
C2310 C 0.42972 0.39478 0.11864 0.0
H2311 H 0.52914 0.41622 0.11807 0.0
H2312 H 0.4999 0.39874 0.1163 0.0
H2313 H 0.45173 0.43328 0.13583 0.0
H2314 H 0.36536 0.39626 0.12096 0.0
H2315 H 0.39549 0.41081 0.11606 0.0
C2316 C 0.34537 0.76412 0.86546 0.0
C2317 C 0.3259 0.76395 0.86505 0.0
C2318 C 0.35535 0.74739 0.86481 0.0
C2319 C 0.34834 0.69787 0.8769 0.0
H2320 H 0.39487 0.68989 0.84916 0.0
C2321 C 0.38057 0.62527 0.87144 0.0
C2322 C 0.39974 0.62367 0.87485 0.0
C2323 C 0.37235 0.64267 0.86892 0.0
C2324 C 0.38195 0.69198 0.85711 0.0
H2325 H 0.30166 0.74652 0.86192 0.0
H2326 H 0.31888 0.71755 0.8603 0.0
H2327 H 0.37927 0.72001 0.84659 0.0
H2328 H 0.42538 0.63917 0.87765 0.0
H2329 H 0.41095 0.66961 0.87354 0.0
H2330 H 0.35091 0.67003 0.88749 0.0
C2331 C 0.32654 0.73039 0.86185 0.0
C2332 C 0.37303 0.70923 0.85565 0.0
C2333 C 0.31666 0.74697 0.86267 0.0
C2334 C 0.41054 0.63992 0.87527 0.0
C2335 C 0.40231 0.65735 0.8727 0.0
C2336 C 0.35718 0.68071 0.87832 0.0
C2337 C 0.34596 0.73029 0.86361 0.0
C2338 C 0.35599 0.71229 0.86536 0.0
C2339 C 0.38307 0.65895 0.86976 0.0
C2340 C 0.374 0.67746 0.86832 0.0
H2341 H 0.35276 0.77707 0.86734 0.0
H2342 H 0.3703 0.74781 0.86618 0.0
H2343 H 0.3355 0.69987 0.88503 0.0
H2344 H 0.37179 0.6131 0.87121 0.0
H2345 H 0.35753 0.64338 0.86641 0.0
C2346 C 0.13172 0.64898 0.64668 0.0
C2347 C 0.14261 0.65318 0.62982 0.0
C2348 C 0.11411 0.64124 0.64448 0.0
C2349 C 0.07539 0.63477 0.60902 0.0
H2350 H 0.06233 0.59509 0.64558 0.0
C2351 C 1.00771 0.58989 0.60398 0.0
C2352 C 0.99991 0.58454 0.62237 0.0
C2353 C 0.02441 0.59989 0.60355 0.0
C2354 C 0.06563 0.60632 0.6354 0.0
H2355 H 0.14338 0.65269 0.59736 0.0
H2356 H 0.11252 0.6389 0.59352 0.0
H2357 H 0.09306 0.60873 0.64719 0.0
H2358 H 1.00235 0.58669 0.65455 0.0
H2359 H 0.03103 0.60451 0.6539 0.0
H2360 H 0.04775 0.63223 0.59728 0.0
C2361 C 0.11765 0.64178 0.60844 0.0
C2362 C 0.08329 0.61412 0.63631 0.0
C2363 C 0.13538 0.64949 0.61065 0.0
C2364 C 1.00827 0.59048 0.64021 0.0
C2365 C 0.02475 0.60055 0.6398 0.0
C2366 C 0.05759 0.62693 0.60812 0.0
C2367 C 0.10688 0.63744 0.62536 0.0
C2368 C 0.08833 0.62861 0.62336 0.0
C2369 C 0.03344 0.60473 0.62152 0.0
C2370 C 0.05243 0.61281 0.62156 0.0
H2371 H 0.13692 0.65142 0.66166 0.0
H2372 H 0.1061 0.63828 0.65782 0.0
H2373 H 0.07884 0.64597 0.59887 0.0
H2374 H 1.00153 0.58532 0.59006 0.0
H2375 H 0.03075 0.60293 0.58921 0.0
C2376 C 0.10652 0.64201 0.11688 0.0
C2377 C 0.1143 0.62677 0.12694 0.0
C2378 C 0.11317 0.65994 0.12033 0.0
C2379 C 0.14367 0.6875 0.15473 0.0
H2380 H 0.14674 0.72058 0.10903 0.0
C2381 C 0.19532 0.74813 0.14722 0.0
C2382 C 0.18857 0.76516 0.14008 0.0
C2383 C 0.18378 0.73263 0.1481 0.0
C2384 C 0.14571 0.7116 0.12199 0.0
H2385 H 0.13502 0.61825 0.14851 0.0
H2386 H 0.14722 0.64933 0.15396 0.0
H2387 H 0.1316 0.6906 0.10541 0.0
H2388 H 0.16448 0.77956 0.12865 0.0
H2389 H 0.14421 0.7521 0.12959 0.0
H2390 H 0.15887 0.70824 0.17086 0.0
C2391 C 0.13557 0.64768 0.14388 0.0
C2392 C 0.13697 0.69439 0.11998 0.0
C2393 C 0.12869 0.6298 0.14069 0.0
C2394 C 0.16989 0.76657 0.13432 0.0
C2395 C 0.15841 0.75091 0.13476 0.0
C2396 C 0.15269 0.70457 0.15661 0.0
C2397 C 0.12799 0.66302 0.13365 0.0
C2398 C 0.13605 0.68196 0.13625 0.0
C2399 C 0.16534 0.73375 0.14146 0.0
C2400 C 0.15398 0.71667 0.1402 0.0
H2401 H 0.09523 0.64005 0.10639 0.0
H2402 H 0.10666 0.67136 0.11248 0.0
H2403 H 0.14288 0.67858 0.16775 0.0
H2404 H 0.20967 0.74679 0.1518 0.0
H2405 H 0.18951 0.71955 0.15317 0.0
C2406 C 0.02302 0.44957 0.88357 0.0
C2407 C 1.00537 0.4419 0.88702 0.0
C2408 C 0.03886 0.43855 0.88437 0.0
C2409 C 0.06073 0.39716 0.90337 0.0
H2410 H 0.08896 0.39947 0.85399 0.0
C2411 C 0.12857 0.35455 0.88924 0.0
C2412 C 0.14245 0.36359 0.87816 0.0
C2413 C 0.11107 0.36278 0.89164 0.0
C2414 C 0.08141 0.3988 0.86799 0.0
H2415 H 0.99076 0.41677 0.89532 0.0
H2416 H 0.01883 0.39744 0.89715 0.0
H2417 H 0.05983 0.41624 0.85666 0.0
H2418 H 0.14939 0.38869 0.862 0.0
H2419 H 0.11932 0.40323 0.86663 0.0
H2420 H 0.08276 0.38023 0.91497 0.0
C2421 C 0.02014 0.41204 0.8936 0.0
C2422 C 0.06465 0.40831 0.86944 0.0
C2423 C 1.00413 0.4231 0.89259 0.0
C2424 C 0.13881 0.38126 0.87027 0.0
C2425 C 0.12151 0.38953 0.87284 0.0
C2426 C 0.07773 0.38776 0.90202 0.0
C2427 C 0.03755 0.41962 0.8889 0.0
C2428 C 0.05432 0.40788 0.88722 0.0
C2429 C 0.10725 0.38025 0.88314 0.0
C2430 C 0.08847 0.38882 0.88443 0.0
H2431 H 0.02462 0.46408 0.87986 0.0
H2432 H 0.05219 0.44478 0.88104 0.0
H2433 H 0.05297 0.39666 0.91725 0.0
H2434 H 0.13104 0.34089 0.89544 0.0
H2435 H 0.1004 0.35523 0.89962 0.0
C2436 C 0.3991 0.38508 0.64369 0.0
C2437 C 0.40951 0.38988 0.62662 0.0
C2438 C 0.39234 0.367 0.64615 0.0
C2439 C 0.37768 0.32779 0.61577 0.0
H2440 H 0.37967 0.29871 0.6646 0.0
C2441 C 0.34893 0.25414 0.61604 0.0
C2442 C 0.33872 0.24845 0.63279 0.0
C2443 C 0.35984 0.27009 0.61684 0.0
C2444 C 0.37882 0.30672 0.65091 0.0
H2445 H 0.42214 0.37896 0.59957 0.0
H2446 H 0.41 0.34771 0.60365 0.0
H2447 H 0.39422 0.32941 0.66352 0.0
H2448 H 0.33219 0.25437 0.66367 0.0
H2449 H 0.35079 0.28283 0.66506 0.0
H2450 H 0.36177 0.3058 0.60324 0.0
C2451 C 0.40685 0.358 0.61497 0.0
C2452 C 0.38721 0.32427 0.65031 0.0
C2453 C 0.41372 0.37595 0.6126 0.0
C2454 C 0.34019 0.25849 0.65068 0.0
C2455 C 0.35084 0.27475 0.65141 0.0
C2456 C 0.36913 0.31046 0.61643 0.0
C2457 C 0.39576 0.35341 0.63153 0.0
C2458 C 0.38684 0.33488 0.63265 0.0
C2459 C 0.36038 0.28106 0.63427 0.0
C2460 C 0.36971 0.29955 0.63392 0.0
H2461 H 0.39553 0.39547 0.65475 0.0
H2462 H 0.38376 0.36385 0.65903 0.0
H2463 H 0.37682 0.33582 0.60208 0.0
H2464 H 0.34796 0.24649 0.60214 0.0
H2465 H 0.36742 0.2741 0.60353 0.0
C2466 C 0.3899 0.66267 0.38612 0.0
C2467 C 0.37501 0.65238 0.37833 0.0
C2468 C 0.40743 0.65449 0.38837 0.0
C2469 C 0.43467 0.6144 0.36948 0.0
H2470 H 0.46735 0.62454 0.41431 0.0
C2471 C 0.49522 0.56692 0.388 0.0
C2472 C 0.5129 0.57511 0.38886 0.0
C2473 C 0.47926 0.5778 0.38818 0.0
C2474 C 0.4584 0.62176 0.40164 0.0
H2475 H 0.36645 0.62528 0.36789 0.0
H2476 H 0.39666 0.6109 0.37232 0.0
H2477 H 0.43743 0.64065 0.41184 0.0
H2478 H 0.52757 0.60118 0.39191 0.0
H2479 H 0.49934 0.62035 0.39264 0.0
H2480 H 0.45527 0.59513 0.35963 0.0
C2481 C 0.39514 0.62544 0.37601 0.0
C2482 C 0.4413 0.63098 0.40017 0.0
C2483 C 0.37777 0.63364 0.37356 0.0
C2484 C 0.51416 0.59446 0.39122 0.0
C2485 C 0.49806 0.60542 0.3916 0.0
C2486 C 0.45155 0.6051 0.37108 0.0
C2487 C 0.41033 0.63583 0.38304 0.0
C2488 C 0.42907 0.62713 0.38424 0.0
C2489 C 0.48051 0.59717 0.38948 0.0
C2490 C 0.46344 0.60844 0.38731 0.0
H2491 H 0.38815 0.67718 0.38984 0.0
H2492 H 0.41881 0.66294 0.39373 0.0
H2493 H 0.42594 0.61149 0.35666 0.0
H2494 H 0.49365 0.55205 0.38681 0.0
H2495 H 0.46588 0.57108 0.38694 0.0
C2496 C 0.3028 0.33267 0.06248 0.0
C2497 C 0.29121 0.33419 0.07929 0.0
C2498 C 0.29584 0.3357 0.04328 0.0
C2499 C 0.25611 0.35568 0.01516 0.0
H2500 H 0.27475 0.32347 0.97329 0.0
C2501 C 0.2379 0.36615 0.93121 0.0
C2502 C 0.23543 0.35009 0.91962 0.0
C2503 C 0.24437 0.36486 0.95093 0.0
C2504 C 0.26921 0.33248 0.9848 0.0
H2505 H 0.26326 0.34037 0.08922 0.0
H2506 H 0.25088 0.34509 0.05551 0.0
H2507 H 0.28606 0.3198 0.00721 0.0
H2508 H 0.2372 0.32006 0.91982 0.0
H2509 H 0.24793 0.31776 0.95415 0.0
H2510 H 0.23869 0.36785 0.99271 0.0
C2511 C 0.26547 0.34191 0.05722 0.0
C2512 C 0.27594 0.33056 0.00426 0.0
C2513 C 0.27252 0.33908 0.07652 0.0
C2514 C 0.23923 0.33273 0.92823 0.0
C2515 C 0.24547 0.33142 0.94794 0.0
C2516 C 0.24923 0.3575 0.99565 0.0
C2517 C 0.27703 0.34007 0.04035 0.0
C2518 C 0.26956 0.34217 0.01969 0.0
C2519 C 0.24832 0.34745 0.95949 0.0
C2520 C 0.25569 0.34588 0.98024 0.0
H2521 H 0.31734 0.3292 0.06411 0.0
H2522 H 0.30527 0.33463 0.03072 0.0
H2523 H 0.25101 0.36498 0.02663 0.0
H2524 H 0.2351 0.37973 0.92495 0.0
H2525 H 0.24659 0.3775 0.95932 0.0
C2526 C 0.92478 1.00036 0.17497 0.0
C2527 C 0.91227 0.98656 0.16884 0.0
C2528 C 0.92464 1.00683 0.19466 0.0
C2529 C 0.91343 0.99324 0.24566 0.0
H2530 H 0.91646 0.046 0.25625 0.0
C2531 C 0.9384 0.0466 0.3117 0.0
C2532 C 0.93034 0.03852 0.32874 0.0
C2533 C 0.93429 0.03997 0.29263 0.0
C2534 C 0.91579 0.03121 0.25358 0.0
H2535 H 0.88976 0.96874 0.17852 0.0
H2536 H 0.88973 0.97993 0.21315 0.0
H2537 H 0.91271 0.03514 0.22197 0.0
H2538 H 0.91165 0.01703 0.33916 0.0
H2539 H 0.90416 1.00556 0.30561 0.0
H2540 H 0.91722 0.98926 0.2772 0.0
C2541 C 0.89956 0.98575 0.20261 0.0
C2542 C 0.91356 0.02502 0.23394 0.0
C2543 C 0.89951 0.97944 0.18279 0.0
C2544 C 0.91814 0.02349 0.3263 0.0
C2545 C 0.91389 0.0169 0.30709 0.0
C2546 C 0.91586 0.99944 0.26535 0.0
C2547 C 0.91214 0.99949 0.20871 0.0
C2548 C 0.91268 1.00598 0.22974 0.0
C2549 C 0.92183 0.02518 0.29002 0.0
C2550 C 0.91746 0.0185 0.26948 0.0
H2551 H 0.93477 1.00612 0.16458 0.0
H2552 H 0.93461 0.01731 0.19901 0.0
H2553 H 0.9129 0.97847 0.2428 0.0
H2554 H 0.94803 0.05806 0.31306 0.0
H2555 H 0.94106 0.04637 0.27991 0.0
C2556 C 0.24429 0.67008 0.57721 0.0
C2557 C 0.22911 0.68211 0.57956 0.0
C2558 C 0.25105 0.66593 0.55807 0.0
C2559 C 0.26906 0.66852 0.51677 0.0
H2560 H 0.2342 0.66466 0.4727 0.0
C2561 C 0.29115 0.65273 0.43485 0.0
C2562 C 0.28389 0.66517 0.42065 0.0
C2563 C 0.28442 0.65264 0.4545 0.0
C2564 C 0.24409 0.66572 0.48487 0.0
H2565 H 0.20932 0.69946 0.56375 0.0
H2566 H 0.22131 0.69262 0.53065 0.0
H2567 H 0.22264 0.66818 0.50676 0.0
H2568 H 0.26365 0.68699 0.41576 0.0
H2569 H 0.25179 0.68665 0.44991 0.0
H2570 H 0.29049 0.66604 0.49467 0.0
C2571 C 0.22774 0.68596 0.54343 0.0
C2572 C 0.23749 0.66782 0.50437 0.0
C2573 C 0.22094 0.69001 0.56247 0.0
C2574 C 0.26955 0.67726 0.42636 0.0
C2575 C 0.26268 0.67699 0.44588 0.0
C2576 C 0.27565 0.66625 0.49722 0.0
C2577 C 0.2428 0.67379 0.54095 0.0
C2578 C 0.24989 0.66969 0.52052 0.0
C2579 C 0.27013 0.66479 0.46018 0.0
C2580 C 0.26322 0.66523 0.48106 0.0
H2581 H 0.25083 0.66372 0.59011 0.0
H2582 H 0.26258 0.65639 0.55669 0.0
H2583 H 0.279 0.67008 0.52881 0.0
H2584 H 0.30225 0.64329 0.4309 0.0
H2585 H 0.29033 0.64305 0.46525 0.0
C2586 C 0.58852 0.99009 0.82178 0.0
C2587 C 0.60474 0.98578 0.83246 0.0
C2588 C 0.58947 0.99607 0.80191 0.0
C2589 C 0.6207 0.99662 0.75771 0.0
H2590 H 0.58542 0.03304 0.73828 0.0
C2591 C 0.62422 0.03032 0.67864 0.0
C2592 C 0.60734 0.03125 0.66813 0.0
C2593 C 0.62458 0.02472 0.69871 0.0
C2594 C 0.59528 0.02277 0.74347 0.0
H2595 H 0.63476 0.98477 0.83078 0.0
H2596 H 0.63648 0.99569 0.79625 0.0
H2597 H 0.58501 0.02407 0.77345 0.0
H2598 H 0.57764 0.02688 0.67045 0.0
H2599 H 0.5783 0.01728 0.70542 0.0
H2600 H 0.63109 0.99563 0.72764 0.0
C2601 C 0.62296 0.99401 0.80306 0.0
C2602 C 0.59503 0.01757 0.76362 0.0
C2603 C 0.62199 0.98784 0.8229 0.0
C2604 C 0.59088 0.02629 0.67806 0.0
C2605 C 0.59123 0.02091 0.69815 0.0
C2606 C 0.62106 1.00198 0.73757 0.0
C2607 C 0.6067 0.99811 0.79226 0.0
C2608 C 0.60759 1.00426 0.77098 0.0
C2609 C 0.60805 0.02018 0.70872 0.0
C2610 C 0.60822 0.01495 0.73021 0.0
H2611 H 0.57501 0.98854 0.82863 0.0
H2612 H 0.57663 0.99876 0.79401 0.0
H2613 H 0.63041 0.98615 0.76275 0.0
H2614 H 0.63714 0.03402 0.67141 0.0
H2615 H 0.63774 0.02436 0.70654 0.0
C2616 C 0.78314 0.6499 0.07228 0.0
C2617 C 0.78584 0.6662 0.08341 0.0
C2618 C 0.77655 0.65079 0.05256 0.0
C2619 C 0.75156 0.68247 0.01811 0.0
H2620 H 0.76961 0.64935 0.97677 0.0
C2621 C 0.71779 0.68155 0.94059 0.0
C2622 C 0.72942 0.68024 0.92379 0.0
C2623 C 0.72473 0.6784 0.95978 0.0
C2624 C 0.76454 0.6588 0.98811 0.0
H2625 H 0.78432 0.69624 0.08236 0.0
H2626 H 0.77332 0.69781 0.04809 0.0
H2627 H 0.78207 0.647 0.0107 0.0
H2628 H 0.75738 0.67413 0.91385 0.0
H2629 H 0.76971 0.66913 0.94757 0.0
H2630 H 0.73457 0.69476 0.99557 0.0
C2631 C 0.77574 0.68429 0.05465 0.0
C2632 C 0.77151 0.65729 0.00762 0.0
C2633 C 0.78213 0.68339 0.07433 0.0
C2634 C 0.74809 0.67526 0.92654 0.0
C2635 C 0.75512 0.67229 0.94585 0.0
C2636 C 0.74472 0.68405 0.99866 0.0
C2637 C 0.77267 0.66801 0.04356 0.0
C2638 C 0.76514 0.66918 0.02285 0.0
C2639 C 0.74355 0.67409 0.96273 0.0
C2640 C 0.75105 0.67222 0.9834 0.0
H2641 H 0.78585 0.63644 0.07888 0.0
H2642 H 0.77417 0.63797 0.04453 0.0
H2643 H 0.74611 0.69168 0.02948 0.0
H2644 H 0.70326 0.68507 0.93897 0.0
H2645 H 0.71529 0.67943 0.97234 0.0
C2646 C 0.09578 0.02396 0.82774 0.0
C2647 C 0.08227 0.03772 0.83086 0.0
C2648 C 0.0997 0.01767 0.80836 0.0
C2649 C 0.09816 1.00003 0.76674 0.0
H2650 H 0.09655 0.03595 0.72348 0.0
C2651 C 0.11644 0.98197 0.68425 0.0
C2652 C 0.10333 0.98798 0.67007 0.0
C2653 C 0.11551 0.98816 0.70409 0.0
C2654 C 0.097 0.02576 0.7354 0.0
H2655 H 0.06185 0.05518 0.81619 0.0
H2656 H 0.06832 0.04395 0.78267 0.0
H2657 H 0.09191 0.04621 0.75785 0.0
H2658 H 0.07922 1.00549 0.66546 0.0
H2659 H 0.07774 0.0164 0.69993 0.0
H2660 H 0.10332 0.9796 0.74409 0.0
C2661 C 0.07631 0.03836 0.79502 0.0
C2662 C 0.09426 0.0316 0.7551 0.0
C2663 C 0.07249 0.04472 0.8143 0.0
C2664 C 0.08952 1.00058 0.67602 0.0
C2665 C 0.08873 1.00691 0.69574 0.0
C2666 C 0.10104 0.9942 0.74699 0.0
C2667 C 0.09013 0.02495 0.79174 0.0
C2668 C 0.09444 0.01877 0.77099 0.0
C2669 C 0.10161 1.00066 0.71003 0.0
C2670 C 0.10016 1.00697 0.73111 0.0
H2671 H 0.1036 0.01835 0.84021 0.0
H2672 H 0.11052 1.00741 0.80636 0.0
H2673 H 0.09824 0.98976 0.77857 0.0
H2674 H 0.12721 0.97222 0.68014 0.0
H2675 H 0.12568 0.98321 0.71478 0.0
C2676 C 0.73454 0.36817 0.57046 0.0
C2677 C 0.73319 0.35186 0.5819 0.0
C2678 C 0.74131 0.36756 0.55082 0.0
C2679 C 0.76902 0.33756 0.5171 0.0
H2680 H 0.74819 0.36824 0.47501 0.0
C2681 C 0.80193 0.33891 0.43918 0.0
C2682 C 0.79003 0.33893 0.42253 0.0
C2683 C 0.79502 0.34217 0.45835 0.0
C2684 C 0.75407 0.35948 0.48657 0.0
H2685 H 0.73734 0.32208 0.58151 0.0
H2686 H 0.74864 0.32092 0.54735 0.0
H2687 H 0.73566 0.37022 0.50892 0.0
H2688 H 0.76162 0.34286 0.4128 0.0
H2689 H 0.74936 0.34797 0.44649 0.0
H2690 H 0.78687 0.32622 0.4948 0.0
C2691 C 0.74503 0.33429 0.55362 0.0
C2692 C 0.74704 0.36079 0.50607 0.0
C2693 C 0.73845 0.33493 0.57323 0.0
C2694 C 0.77111 0.34275 0.42538 0.0
C2695 C 0.76412 0.34578 0.44467 0.0
C2696 C 0.77591 0.33614 0.49767 0.0
C2697 C 0.74673 0.35059 0.54221 0.0
C2698 C 0.75439 0.34975 0.52154 0.0
C2699 C 0.77598 0.34525 0.46143 0.0
C2700 C 0.76856 0.34708 0.48213 0.0
H2701 H 0.73062 0.38144 0.57676 0.0
H2702 H 0.74262 0.3804 0.54254 0.0
H2703 H 0.77524 0.32906 0.52868 0.0
H2704 H 0.81664 0.33633 0.43744 0.0
H2705 H 0.80465 0.34215 0.4708 0.0
C2706 C 0.39696 0.98756 0.32218 0.0
C2707 C 0.41415 0.98651 0.33206 0.0
C2708 C 0.39601 0.9929 0.30207 0.0
C2709 C 0.42364 0.99364 0.25614 0.0
H2710 H 0.38825 0.03036 0.23765 0.0
C2711 C 0.42761 0.02472 0.17687 0.0
C2712 C 0.41106 0.0293 0.16691 0.0
C2713 C 0.42735 0.01895 0.19683 0.0
C2714 C 0.39801 0.01985 0.24247 0.0
H2715 H 0.44381 0.99042 0.3286 0.0
H2716 H 0.44214 0.99954 0.29346 0.0
H2717 H 0.38893 0.02167 0.27298 0.0
H2718 H 0.38118 0.03098 0.16997 0.0
H2719 H 0.38063 0.02037 0.2047 0.0
H2720 H 0.43257 0.99149 0.22572 0.0
C2721 C 0.42942 0.99621 0.30129 0.0
C2722 C 0.39844 0.01495 0.26274 0.0
C2723 C 0.43035 0.9911 0.32146 0.0
C2724 C 0.39418 0.02765 0.17727 0.0
C2725 C 0.39389 0.02168 0.19722 0.0
C2726 C 0.42308 0.99837 0.23586 0.0
C2727 C 0.41225 0.99705 0.29136 0.0
C2728 C 0.41139 1.00194 0.2698 0.0
C2729 C 0.4105 0.0174 0.20731 0.0
C2730 C 0.4104 0.01169 0.22877 0.0
H2731 H 0.38422 0.98418 0.32996 0.0
H2732 H 0.3826 0.99335 0.29475 0.0
H2733 H 0.43356 0.98333 0.26111 0.0
H2734 H 0.44088 0.02602 0.16943 0.0
H2735 H 0.44045 0.01613 0.20416 0.0
C2736 C 0.7702 0.84041 0.57702 0.0
C2737 C 0.78915 0.83656 0.57968 0.0
C2738 C 0.763 0.84326 0.55777 0.0
C2739 C 0.77425 0.83319 0.50474 0.0
H2740 H 0.73456 0.86791 0.49334 0.0
C2741 C 0.73778 0.83324 0.42859 0.0
C2742 C 0.73295 0.85036 0.42001 0.0
C2743 C 0.74392 0.83226 0.44835 0.0
C2744 C 0.74578 0.85829 0.49624 0.0
H2745 H 0.81557 0.8337 0.56444 0.0
H2746 H 0.80321 0.8392 0.53119 0.0
H2747 H 0.74699 0.86568 0.5273 0.0
H2748 H 0.73063 0.87989 0.42546 0.0
H2749 H 0.74194 0.87826 0.45995 0.0
H2750 H 0.77359 0.8262 0.47373 0.0
C2751 C 0.79372 0.83937 0.54376 0.0
C2752 C 0.75273 0.85683 0.51577 0.0
C2753 C 0.80084 0.8363 0.56287 0.0
C2754 C 0.73424 0.8665 0.4317 0.0
C2755 C 0.74061 0.86554 0.45149 0.0
C2756 C 0.76743 0.83475 0.48528 0.0
C2757 C 0.77466 0.8425 0.54088 0.0
C2758 C 0.76707 0.84425 0.52024 0.0
C2759 C 0.74564 0.84839 0.46 0.0
C2760 C 0.75304 0.84722 0.48077 0.0
H2761 H 0.76088 0.84072 0.58974 0.0
H2762 H 0.74823 0.84552 0.5561 0.0
H2763 H 0.78507 0.82312 0.50763 0.0
H2764 H 0.73665 0.82051 0.42009 0.0
H2765 H 0.74722 0.81876 0.45452 0.0
C2766 C 0.4417 0.54347 0.81153 0.0
C2767 C 0.4323 0.53653 0.82836 0.0
C2768 C 0.43879 0.53578 0.79266 0.0
C2769 C 0.40546 0.51069 0.76209 0.0
H2770 H 0.44846 0.50014 0.72913 0.0
C2771 C 0.4269 0.49825 0.67395 0.0
C2772 C 0.41318 0.48567 0.66783 0.0
C2773 C 0.42825 0.50364 0.69395 0.0
C2774 C 0.43628 0.50321 0.73802 0.0
H2775 H 0.41231 0.51617 0.8386 0.0
H2776 H 0.407 0.5028 0.80526 0.0
H2777 H 0.45273 0.51058 0.76346 0.0
H2778 H 0.38977 0.46921 0.67781 0.0
H2779 H 0.39232 0.47841 0.71293 0.0
H2780 H 0.389 0.50381 0.73641 0.0
C2781 C 0.41669 0.51418 0.80685 0.0
C2782 C 0.43875 0.50908 0.75773 0.0
C2783 C 0.4198 0.52175 0.82589 0.0
C2784 C 0.40047 0.47898 0.68207 0.0
C2785 C 0.40191 0.48428 0.70218 0.0
C2786 C 0.40297 0.50493 0.74224 0.0
C2787 C 0.42628 0.52107 0.7901 0.0
C2788 C 0.4234 0.51317 0.76986 0.0
C2789 C 0.41603 0.49645 0.7084 0.0
C2790 C 0.41838 0.50145 0.72987 0.0
H2791 H 0.45145 0.55483 0.81291 0.0
H2792 H 0.4462 0.54151 0.77997 0.0
H2793 H 0.39339 0.51386 0.77111 0.0
H2794 H 0.43677 0.50385 0.66332 0.0
H2795 H 0.43898 0.51343 0.69808 0.0
C2796 C 0.74536 0.17493 0.07573 0.0
C2797 C 0.72634 0.1782 0.07862 0.0
C2798 C 0.75238 0.17195 0.05643 0.0
C2799 C 0.74032 0.18108 0.00348 0.0
H2800 H 0.78082 0.14733 0.99211 0.0
C2801 C 0.77748 0.18226 0.9277 0.0
C2802 C 0.78261 0.1653 0.919 0.0
C2803 C 0.77102 0.18295 0.94736 0.0
C2804 C 0.76938 0.15668 0.99501 0.0
H2805 H 0.69963 0.17993 0.06376 0.0
H2806 H 0.71171 0.1743 0.03041 0.0
H2807 H 0.7685 0.14939 0.02612 0.0
H2808 H 0.78505 0.13571 0.92415 0.0
H2809 H 0.77332 0.13685 0.95849 0.0
H2810 H 0.74078 0.18807 0.97242 0.0
C2811 C 0.72136 0.17461 0.04284 0.0
C2812 C 0.76247 0.15803 0.01455 0.0
C2813 C 0.71441 0.17775 0.06201 0.0
C2814 C 0.78123 0.149 0.93046 0.0
C2815 C 0.77461 0.14967 0.95016 0.0
C2816 C 0.74713 0.17967 0.984 0.0
C2817 C 0.74047 0.17205 0.03972 0.0
C2818 C 0.74786 0.17028 0.01901 0.0
C2819 C 0.76934 0.16667 0.9588 0.0
C2820 C 0.76183 0.16757 0.97952 0.0
H2821 H 0.75489 0.17517 0.08827 0.0
H2822 H 0.76719 0.17016 0.05457 0.0
H2823 H 0.72926 0.19088 0.00637 0.0
H2824 H 0.7786 0.19512 0.91941 0.0
H2825 H 0.76749 0.19633 0.95364 0.0
C2826 C 0.1242 0.48985 0.32145 0.0
C2827 C 0.10693 0.4882 0.33104 0.0
C2828 C 0.12526 0.49582 0.30155 0.0
C2829 C 0.09774 0.51942 0.26182 0.0
H2830 H 0.1328 0.49574 0.22597 0.0
C2831 C 0.09263 0.52633 0.17623 0.0
C2832 C 0.10904 0.53073 0.16592 0.0
C2833 C 0.09316 0.52132 0.19642 0.0
C2834 C 0.12307 0.50258 0.23587 0.0
H2835 H 0.07724 0.49153 0.32724 0.0
H2836 H 0.07902 0.50147 0.29254 0.0
H2837 H 0.13226 0.48706 0.26133 0.0
H2838 H 0.13896 0.53277 0.16859 0.0
H2839 H 0.13987 0.52375 0.20391 0.0
H2840 H 0.08826 0.53458 0.23621 0.0
C2841 C 0.09182 0.4986 0.30045 0.0
C2842 C 0.12278 0.49767 0.25614 0.0
C2843 C 0.09078 0.4928 0.32037 0.0
C2844 C 0.12607 0.52952 0.17612 0.0
C2845 C 0.12661 0.52429 0.19631 0.0
C2846 C 0.09791 0.52417 0.24155 0.0
C2847 C 0.10906 0.50015 0.29074 0.0
C2848 C 0.11001 0.50593 0.26935 0.0
C2849 C 0.11013 0.5204 0.20671 0.0
C2850 C 0.11047 0.5157 0.22834 0.0
H2851 H 0.13692 0.48655 0.32933 0.0
H2852 H 0.13879 0.49713 0.29467 0.0
H2853 H 0.088 0.52638 0.2716 0.0
H2854 H 0.07929 0.5271 0.16886 0.0
H2855 H 0.08026 0.51815 0.204 0.0
C2856 C 0.27927 0.18284 0.57516 0.0
C2857 C 0.28371 0.16573 0.58401 0.0
C2858 C 0.27261 0.18368 0.5556 0.0
C2859 C 0.26921 0.15721 0.50829 0.0
H2860 H 0.23097 0.19355 0.49696 0.0
C2861 C 0.24649 0.17685 0.42761 0.0
C2862 C 0.22774 0.18139 0.42458 0.0
C2863 C 0.25319 0.17342 0.44694 0.0
C2864 C 0.24147 0.18314 0.49984 0.0
H2865 H 0.28473 0.13602 0.57918 0.0
H2866 H 0.27261 0.13744 0.54498 0.0
H2867 H 0.2424 0.19009 0.53087 0.0
H2868 H 0.20114 0.18496 0.43925 0.0
H2869 H 0.21264 0.17849 0.4727 0.0
H2870 H 0.26783 0.14996 0.47721 0.0
C2871 C 0.2746 0.15025 0.55314 0.0
C2872 C 0.24824 0.18136 0.5193 0.0
C2873 C 0.28144 0.14943 0.57276 0.0
C2874 C 0.21573 0.1818 0.44111 0.0
C2875 C 0.22235 0.17817 0.46033 0.0
C2876 C 0.26231 0.15891 0.48877 0.0
C2877 C 0.27001 0.16741 0.54439 0.0
C2878 C 0.26233 0.16852 0.52375 0.0
C2879 C 0.24123 0.17429 0.46357 0.0
C2880 C 0.24841 0.17198 0.48431 0.0
H2881 H 0.28107 0.1957 0.58327 0.0
H2882 H 0.26964 0.19716 0.54921 0.0
H2883 H 0.28016 0.14728 0.51118 0.0
H2884 H 0.25607 0.1764 0.41512 0.0
H2885 H 0.26784 0.17063 0.44889 0.0
C2886 C 0.59904 0.52371 0.32681 0.0
C2887 C 0.58637 0.5383 0.32956 0.0
C2888 C 0.60308 0.51724 0.30751 0.0
C2889 C 0.60093 0.49975 0.26578 0.0
H2890 H 0.60238 0.53568 0.22251 0.0
C2891 C 0.61778 0.48051 0.18322 0.0
C2892 C 0.60503 0.48742 0.16913 0.0
C2893 C 0.61737 0.4867 0.20307 0.0
C2894 C 0.60198 0.52549 0.23444 0.0
H2895 H 0.56759 0.55714 0.31433 0.0
H2896 H 0.57424 0.54567 0.28101 0.0
H2897 H 0.5985 0.54629 0.25687 0.0
H2898 H 0.58211 0.50649 0.16468 0.0
H2899 H 0.58159 0.51744 0.19919 0.0
H2900 H 0.60446 0.47897 0.24313 0.0
C2901 C 0.58151 0.53952 0.29356 0.0
C2902 C 0.59969 0.53153 0.25412 0.0
C2903 C 0.57759 0.54603 0.31273 0.0
C2904 C 0.59211 0.50088 0.17518 0.0
C2905 C 0.59187 0.50723 0.19491 0.0
C2906 C 0.60339 0.49371 0.24604 0.0
C2907 C 0.59446 0.52521 0.29064 0.0
C2908 C 0.59869 0.51873 0.27 0.0
C2909 C 0.60439 0.50011 0.20909 0.0
C2910 C 0.60355 0.50651 0.23016 0.0
H2911 H 0.60607 0.51751 0.3395 0.0
H2912 H 0.6132 0.50626 0.30577 0.0
H2913 H 0.60009 0.48951 0.27761 0.0
H2914 H 0.62785 0.47006 0.17903 0.0
H2915 H 0.62724 0.48106 0.2137 0.0
C2916 C 0.28068 0.86813 0.93102 0.0
C2917 C 0.28299 0.85207 0.91939 0.0
C2918 C 0.27432 0.86685 0.95079 0.0
C2919 C 0.24958 0.83451 0.98482 0.0
H2920 H 0.2683 0.86672 0.02664 0.0
C2921 C 0.2169 0.83411 0.06291 0.0
C2922 C 0.22866 0.83551 0.0796 0.0
C2923 C 0.22364 0.83733 0.04366 0.0
C2924 C 0.26306 0.8575 0.01517 0.0
H2925 H 0.28105 0.82204 0.91959 0.0
H2926 H 0.2705 0.81978 0.95396 0.0
H2927 H 0.28026 0.86974 0.99259 0.0
H2928 H 0.25668 0.8417 0.08927 0.0
H2929 H 0.26869 0.84674 0.05545 0.0
H2930 H 0.23297 0.82174 0.00735 0.0
C2931 C 0.27299 0.83343 0.94775 0.0
C2932 C 0.26973 0.8594 0.99558 0.0
C2933 C 0.27912 0.83472 0.92801 0.0
C2934 C 0.2473 0.84049 0.07666 0.0
C2935 C 0.25413 0.84351 0.05729 0.0
C2936 C 0.24307 0.8325 0.00435 0.0
C2937 C 0.27031 0.84946 0.95936 0.0
C2938 C 0.26309 0.84788 0.98017 0.0
C2939 C 0.2424 0.84177 0.04053 0.0
C2940 C 0.24964 0.844 0.01979 0.0
H2941 H 0.28355 0.88169 0.92477 0.0
H2942 H 0.27223 0.8795 0.95922 0.0
H2943 H 0.24391 0.82557 0.97333 0.0
H2944 H 0.20239 0.83059 0.06467 0.0
H2945 H 0.21407 0.83635 0.03121 0.0
C2946 C 0.93318 0.52683 0.6768 0.0
C2947 C 0.91626 0.53203 0.668 0.0
C2948 C 0.93383 0.52075 0.69661 0.0
C2949 C 0.90761 0.52039 0.74432 0.0
H2950 H 0.94135 0.48011 0.75665 0.0
C2951 C 0.9256 0.49728 0.82562 0.0
C2952 C 0.92872 0.47826 0.82875 0.0
C2953 C 0.92262 0.50411 0.80622 0.0
C2954 C 0.93168 0.49123 0.75349 0.0
H2955 H 0.88671 0.53493 0.67313 0.0
H2956 H 0.88777 0.52382 0.70772 0.0
H2957 H 0.93867 0.49103 0.72245 0.0
H2958 H 0.93004 0.45138 0.81427 0.0
H2959 H 0.92437 0.46313 0.78079 0.0
H2960 H 0.9003 0.52016 0.77545 0.0
C2961 C 0.9006 0.5248 0.69936 0.0
C2962 C 0.93034 0.49769 0.73387 0.0
C2963 C 0.89997 0.53104 0.6795 0.0
C2964 C 0.92802 0.46616 0.81231 0.0
C2965 C 0.92485 0.47292 0.79307 0.0
C2966 C 0.90887 0.51383 0.76403 0.0
C2967 C 0.91755 0.5195 0.70811 0.0
C2968 C 0.9184 0.51242 0.72903 0.0
C2969 C 0.92255 0.49201 0.78967 0.0
C2970 C 0.92094 0.49915 0.76883 0.0
H2971 H 0.94603 0.52764 0.66848 0.0
H2972 H 0.94718 0.51717 0.70297 0.0
H2973 H 0.89838 0.53188 0.74114 0.0
H2974 H 0.92604 0.50692 0.83803 0.0
H2975 H 0.92099 0.51891 0.80413 0.0
C2976 C 0.26283 0.416 0.14178 0.0
C2977 C 0.25888 0.39695 0.14296 0.0
C2978 C 0.24902 0.42875 0.13654 0.0
C2979 C 0.202 0.43223 0.11322 0.0
H2980 H 0.20288 0.48111 0.13733 0.0
C2981 C 0.14283 0.48683 0.10369 0.0
C2982 C 0.14857 0.50505 0.09941 0.0
C2983 C 0.15583 0.47315 0.10885 0.0
C2984 C 0.20251 0.46755 0.13036 0.0
H2985 H 0.23718 0.37642 0.13977 0.0
H2986 H 0.21293 0.39865 0.1311 0.0
H2987 H 0.22609 0.45826 0.14697 0.0
H2988 H 0.1725 0.52315 0.09744 0.0
H2989 H 0.19506 0.49939 0.10646 0.0
H2990 H 0.17809 0.44161 0.0969 0.0
C2991 C 0.22683 0.40376 0.13374 0.0
C2992 C 0.21589 0.45443 0.13582 0.0
C2993 C 0.24073 0.39097 0.13878 0.0
C2994 C 0.1676 0.50923 0.10038 0.0
C2995 C 0.18053 0.49565 0.10577 0.0
C2996 C 0.18847 0.44533 0.10793 0.0
C2997 C 0.23076 0.42286 0.13254 0.0
C2998 C 0.21599 0.43662 0.12717 0.0
C2999 C 0.17482 0.47746 0.11015 0.0
C3000 C 0.18869 0.46321 0.11628 0.0
H3001 H 0.27673 0.42105 0.14456 0.0
H3002 H 0.25278 0.44324 0.13535 0.0
H3003 H 0.2017 0.41881 0.10599 0.0
H3004 H 0.12829 0.48315 0.103 0.0
H3005 H 0.15098 0.45928 0.11222 0.0
C3006 C 0.8699 0.9996 0.3764 0.0
C3007 C 0.87119 1.00632 0.39612 0.0
C3008 C 0.85678 0.98608 0.37134 0.0
C3009 C 0.82818 0.94869 0.3928 0.0
H3010 H 0.79887 0.95448 0.34452 0.0
C3011 C 0.7671 0.89938 0.3743 0.0
C3012 C 0.76366 0.89501 0.35412 0.0
C3013 C 0.78025 0.91284 0.37946 0.0
C3014 C 0.8071 0.95243 0.3579 0.0
H3015 H 0.8598 1.0039 0.42602 0.0
H3016 H 0.83695 0.98019 0.41723 0.0
H3017 H 0.82172 0.97797 0.35335 0.0
H3018 H 0.77176 0.90106 0.32358 0.0
H3019 H 0.795 0.92414 0.3325 0.0
H3020 H 0.81392 0.923 0.39722 0.0
C3021 C 0.8461 0.98542 0.40568 0.0
C3022 C 0.82018 0.96599 0.363 0.0
C3023 C 0.85908 0.99912 0.41068 0.0
C3024 C 0.77387 0.90428 0.33924 0.0
C3025 C 0.78718 0.91759 0.3444 0.0
C3026 C 0.81524 0.93502 0.38761 0.0
C3027 C 0.84475 0.97878 0.38593 0.0
C3028 C 0.83085 0.96431 0.38053 0.0
C3029 C 0.7905 0.92218 0.36459 0.0
C3030 C 0.80446 0.9367 0.37009 0.0
H3031 H 0.87888 1.00497 0.36478 0.0
H3032 H 0.8562 0.98117 0.35603 0.0
H3033 H 0.83635 0.94686 0.40628 0.0
H3034 H 0.75928 0.89269 0.38611 0.0
H3035 H 0.7821 0.91615 0.39515 0.0
C3036 C 0.25574 0.60218 0.64365 0.0
C3037 C 0.26021 0.62112 0.64507 0.0
C3038 C 0.26923 0.58913 0.63821 0.0
C3039 C 0.31963 0.58089 0.63723 0.0
H3040 H 0.30764 0.5438 0.59731 0.0
C3041 C 0.37514 0.52965 0.60712 0.0
C3042 C 0.36947 0.51151 0.60246 0.0
C3043 C 0.36206 0.54336 0.61187 0.0
C3044 C 0.31121 0.55385 0.60871 0.0
H3045 H 0.28248 0.64109 0.64223 0.0
H3046 H 0.3061 0.61828 0.63293 0.0
H3047 H 0.28445 0.56671 0.60684 0.0
H3048 H 0.34559 0.49351 0.59961 0.0
H3049 H 0.32289 0.51711 0.60831 0.0
H3050 H 0.3462 0.56783 0.63955 0.0
C3051 C 0.29211 0.61356 0.63595 0.0
C3052 C 0.29788 0.56705 0.61411 0.0
C3053 C 0.27856 0.62665 0.64112 0.0
C3054 C 0.35042 0.50741 0.60276 0.0
C3055 C 0.33737 0.52103 0.60772 0.0
C3056 C 0.33291 0.56754 0.63201 0.0
C3057 C 0.28759 0.59465 0.63431 0.0
C3058 C 0.3019 0.58072 0.62846 0.0
C3059 C 0.34295 0.53925 0.61232 0.0
C3060 C 0.3289 0.55376 0.61768 0.0
H3061 H 0.24173 0.59747 0.6464 0.0
H3062 H 0.26532 0.57466 0.63722 0.0
H3063 H 0.3231 0.59112 0.64849 0.0
H3064 H 0.38969 0.53332 0.60684 0.0
H3065 H 0.36697 0.55725 0.61496 0.0
C3066 C 0.64463 0.02162 0.87767 0.0
C3067 C 0.64161 0.01723 0.89794 0.0
C3068 C 0.65795 0.03478 0.87218 0.0
C3069 C 0.68431 0.07489 0.89084 0.0
H3070 H 0.71876 0.06284 0.84822 0.0
C3071 C 0.74778 0.12121 0.87369 0.0
C3072 C 0.75374 0.12298 0.85374 0.0
C3073 C 0.7339 0.10854 0.87887 0.0
C3074 C 0.7091 0.06663 0.85992 0.0
H3075 H 0.65 0.02351 0.92833 0.0
H3076 H 0.67317 0.04668 0.91875 0.0
H3077 H 0.69477 0.04068 0.85756 0.0
H3078 H 0.74956 0.113 0.82352 0.0
H3079 H 0.72495 0.09124 0.83235 0.0
H3080 H 0.69829 0.10095 0.89302 0.0
C3081 C 0.66523 0.03988 0.90712 0.0
C3082 C 0.69537 0.05384 0.86533 0.0
C3083 C 0.65206 0.02652 0.91261 0.0
C3084 C 0.7454 0.11182 0.83904 0.0
C3085 C 0.73132 0.09929 0.84417 0.0
C3086 C 0.6979 0.08778 0.88528 0.0
C3087 C 0.66845 0.04404 0.88682 0.0
C3088 C 0.68287 0.05778 0.88091 0.0
C3089 C 0.7254 0.0974 0.86419 0.0
C3090 C 0.71059 0.08381 0.86981 0.0
H3091 H 0.63699 0.01455 0.86599 0.0
H3092 H 0.66 0.03776 0.85643 0.0
H3093 H 0.67474 0.07844 0.90273 0.0
H3094 H 0.75417 0.12937 0.88543 0.0
H3095 H 0.73009 0.10728 0.89449 0.0
C3096 C 0.15745 0.52231 0.41106 0.0
C3097 C 0.14484 0.51561 0.39674 0.0
C3098 C 0.17053 0.53588 0.40591 0.0
C3099 C 0.1957 0.55518 0.36262 0.0
H3100 H 0.20457 0.59727 0.39736 0.0
C3101 C 0.24354 0.61592 0.33879 0.0
C3102 C 0.25439 0.62443 0.35365 0.0
C3103 C 0.23 0.60281 0.34394 0.0
C3104 C 0.2025 0.58548 0.38759 0.0
H3105 H 0.13632 0.5177 0.36567 0.0
H3106 H 0.15908 0.5413 0.3567 0.0
H3107 H 0.18155 0.5741 0.40678 0.0
H3108 H 0.25988 0.6254 0.38553 0.0
H3109 H 0.23669 0.60237 0.39451 0.0
H3110 H 0.21685 0.56626 0.3436 0.0
C3111 C 0.15884 0.53613 0.37194 0.0
C3112 C 0.18924 0.57222 0.39299 0.0
C3113 C 0.14564 0.52275 0.37714 0.0
C3114 C 0.25153 0.61936 0.37375 0.0
C3115 C 0.23815 0.60615 0.37889 0.0
C3116 C 0.2091 0.56834 0.35729 0.0
C3117 C 0.17147 0.54284 0.38623 0.0
C3118 C 0.18565 0.55692 0.38056 0.0
C3119 C 0.2271 0.59773 0.36409 0.0
C3120 C 0.2127 0.58371 0.36969 0.0
H3121 H 0.15714 0.51712 0.42627 0.0
H3122 H 0.18015 0.54067 0.41723 0.0
H3123 H 0.19345 0.54343 0.35283 0.0
H3124 H 0.24526 0.61966 0.3232 0.0
H3125 H 0.22161 0.5969 0.33212 0.0
C3126 C 0.66789 0.01027 0.60255 0.0
C3127 C 0.64885 1.00612 0.60193 0.0
C3128 C 0.68091 0.99663 0.60751 0.0
C3129 C 0.68521 0.95006 0.63155 0.0
H3130 H 0.73392 0.95115 0.607 0.0
C3131 C 0.73983 0.89133 0.6414 0.0
C3132 C 0.75808 0.89701 0.64559 0.0
C3133 C 0.72623 0.90431 0.63606 0.0
C3134 C 0.72042 0.95074 0.61409 0.0
H3135 H 0.62864 0.9842 0.60568 0.0
H3136 H 0.65134 0.96022 0.61382 0.0
H3137 H 0.71071 0.97396 0.59714 0.0
H3138 H 0.77636 0.92079 0.64722 0.0
H3139 H 0.75269 0.94343 0.63777 0.0
H3140 H 0.69496 0.92653 0.64819 0.0
C3141 C 0.65623 0.97416 0.61097 0.0
C3142 C 0.70709 0.96387 0.6085 0.0
C3143 C 0.64318 0.98789 0.60622 0.0
C3144 C 0.76241 0.91598 0.64428 0.0
C3145 C 0.74889 0.92892 0.63868 0.0
C3146 C 0.6985 0.93678 0.63696 0.0
C3147 C 0.67531 0.97835 0.61179 0.0
C3148 C 0.68931 0.96386 0.61727 0.0
C3149 C 0.73063 0.92325 0.6345 0.0
C3150 C 0.71631 0.93706 0.62842 0.0
H3151 H 0.67272 0.02423 0.59971 0.0
H3152 H 0.69537 1.00058 0.60838 0.0
H3153 H 0.67184 0.94971 0.63891 0.0
H3154 H 0.73602 0.87684 0.64241 0.0
H3155 H 0.71232 0.89949 0.63283 0.0
C3156 C 0.35199 0.51046 0.89489 0.0
C3157 C 0.37104 0.50638 0.89569 0.0
C3158 C 0.33904 0.49665 0.89028 0.0
C3159 C 0.33495 0.44922 0.86811 0.0
H3160 H 0.28629 0.45098 0.89274 0.0
C3161 C 0.28002 0.3903 0.86034 0.0
C3162 C 0.26189 0.39611 0.85572 0.0
C3163 C 0.29374 0.40327 0.86537 0.0
C3164 C 0.29979 0.45035 0.88565 0.0
H3165 H 0.39135 0.48445 0.89258 0.0
H3166 H 0.3688 0.46022 0.88507 0.0
H3167 H 0.30939 0.47421 0.90152 0.0
H3168 H 0.24393 0.42009 0.85317 0.0
H3169 H 0.26774 0.44265 0.86207 0.0
H3170 H 0.32527 0.42505 0.85255 0.0
C3171 C 0.36383 0.47421 0.88747 0.0
C3172 C 0.31305 0.46375 0.8906 0.0
C3173 C 0.37681 0.4881 0.89185 0.0
C3174 C 0.25779 0.41516 0.8564 0.0
C3175 C 0.2714 0.42808 0.8617 0.0
C3176 C 0.32172 0.43567 0.86334 0.0
C3177 C 0.34473 0.47828 0.88658 0.0
C3178 C 0.33079 0.46353 0.88176 0.0
C3179 C 0.28954 0.42231 0.86624 0.0
C3180 C 0.30392 0.4362 0.8719 0.0
H3181 H 0.34711 0.52445 0.89743 0.0
H3182 H 0.32456 0.50052 0.88932 0.0
H3183 H 0.3483 0.44866 0.86072 0.0
H3184 H 0.28364 0.37574 0.85985 0.0
H3185 H 0.30757 0.39839 0.86889 0.0
C3186 C 0.85141 1.008 0.10439 0.0
C3187 C 0.87044 0.01211 0.1035 0.0
C3188 C 0.83845 0.02175 0.1092 0.0
C3189 C 0.83445 0.06898 0.13193 0.0
H3190 H 0.78533 0.06708 0.10837 0.0
C3191 C 0.77956 0.12775 0.14074 0.0
C3192 C 0.76154 0.12199 0.14589 0.0
C3193 C 0.79316 0.11474 0.13545 0.0
C3194 C 0.79896 0.06774 0.11516 0.0
H3195 H 0.89073 0.03403 0.10663 0.0
H3196 H 0.86814 0.0582 0.11443 0.0
H3197 H 0.80843 0.04408 0.09885 0.0
H3198 H 0.74365 0.09806 0.14922 0.0
H3199 H 0.76729 0.0754 0.13977 0.0
H3200 H 0.82491 0.09299 0.14788 0.0
C3201 C 0.86319 0.04422 0.11195 0.0
C3202 C 0.81223 0.05447 0.10979 0.0
C3203 C 0.87619 0.03038 0.10738 0.0
C3204 C 0.75743 0.10294 0.14552 0.0
C3205 C 0.77093 0.08997 0.13994 0.0
C3206 C 0.82122 0.0824 0.13709 0.0
C3207 C 0.8441 0.04011 0.11301 0.0
C3208 C 0.83015 0.05475 0.11823 0.0
C3209 C 0.78896 0.0957 0.13486 0.0
C3210 C 0.80326 0.08183 0.12892 0.0
H3211 H 0.84654 0.99401 0.10186 0.0
H3212 H 0.824 0.01782 0.11029 0.0
H3213 H 0.84793 0.06957 0.13905 0.0
H3214 H 0.78318 0.14231 0.141 0.0
H3215 H 0.8069 0.1196 0.13152 0.0
C3216 C 0.87605 0.52853 0.89209 0.0
C3217 C 0.87072 0.51028 0.89681 0.0
C3218 C 0.86271 0.54196 0.8873 0.0
C3219 C 0.8153 0.54735 0.86786 0.0
H3220 H 0.81728 0.59603 0.89231 0.0
C3221 C 0.75582 0.6004 0.85765 0.0
C3222 C 0.76027 0.61935 0.85669 0.0
C3223 C 0.76937 0.58722 0.86249 0.0
C3224 C 0.81663 0.58263 0.88506 0.0
H3225 H 0.84721 0.49181 0.89991 0.0
H3226 H 0.82394 0.5152 0.89138 0.0
H3227 H 0.84084 0.573 0.9006 0.0
H3228 H 0.78258 0.63925 0.85964 0.0
H3229 H 0.80634 0.61631 0.86751 0.0
H3230 H 0.79141 0.55696 0.85195 0.0
C3231 C 0.83844 0.51912 0.89147 0.0
C3232 C 0.83014 0.56939 0.88991 0.0
C3233 C 0.85175 0.50577 0.89654 0.0
C3234 C 0.77865 0.62478 0.86052 0.0
C3235 C 0.79227 0.61159 0.86512 0.0
C3236 C 0.80192 0.56064 0.86281 0.0
C3237 C 0.84376 0.53738 0.88682 0.0
C3238 C 0.82957 0.55157 0.88145 0.0
C3239 C 0.78783 0.59259 0.86626 0.0
C3240 C 0.80231 0.57847 0.87141 0.0
H3241 H 0.89053 0.53247 0.89231 0.0
H3242 H 0.86726 0.55587 0.88367 0.0
H3243 H 0.81463 0.53381 0.86088 0.0
H3244 H 0.74174 0.59579 0.85508 0.0
H3245 H 0.76524 0.57283 0.8636 0.0
C3246 C 0.16555 0.01015 0.6069 0.0
C3247 C 0.1465 0.01411 0.60548 0.0
C3248 C 0.1782 0.02393 0.61241 0.0
C3249 C 0.18592 0.0741 0.61332 0.0
H3250 H 0.22161 0.06269 0.65498 0.0
C3251 C 0.23777 0.12936 0.64321 0.0
C3252 C 0.25551 0.12325 0.64895 0.0
C3253 C 0.22382 0.11657 0.63833 0.0
C3254 C 0.21198 0.0661 0.64309 0.0
H3255 H 0.12587 0.03578 0.60835 0.0
H3256 H 0.14811 0.06005 0.61765 0.0
H3257 H 0.19885 0.03951 0.64518 0.0
H3258 H 0.27266 0.09894 0.65337 0.0
H3259 H 0.24877 0.07676 0.64435 0.0
H3260 H 0.19938 0.10045 0.61069 0.0
C3261 C 0.15317 0.04619 0.61461 0.0
C3262 C 0.19884 0.05279 0.63756 0.0
C3263 C 0.14044 0.03229 0.60942 0.0
C3264 C 0.25904 0.1041 0.64943 0.0
C3265 C 0.24524 0.09135 0.6443 0.0
C3266 C 0.19927 0.08736 0.61863 0.0
C3267 C 0.17217 0.0421 0.61637 0.0
C3268 C 0.18573 0.05658 0.62255 0.0
C3269 C 0.22735 0.09734 0.6388 0.0
C3270 C 0.21261 0.08351 0.63352 0.0
H3271 H 0.17064 0.99626 0.60418 0.0
H3272 H 0.19277 0.02038 0.61351 0.0
H3273 H 0.17606 0.07737 0.6016 0.0
H3274 H 0.23459 0.14403 0.64282 0.0
H3275 H 0.21021 0.1218 0.63447 0.0
C3276 C 0.66793 0.51346 0.39416 0.0
C3277 C 0.649 0.5089 0.39545 0.0
C3278 C 0.68112 0.49998 0.38913 0.0
C3279 C 0.68951 0.44958 0.38923 0.0
H3280 H 0.72723 0.461 0.34976 0.0
C3281 C 0.74029 0.3934 0.36002 0.0
C3282 C 0.75855 0.39873 0.35542 0.0
C3283 C 0.72679 0.4067 0.36468 0.0
C3284 C 0.717 0.4576 0.36105 0.0
H3285 H 0.62919 0.48646 0.39278 0.0
H3286 H 0.65223 0.46287 0.38417 0.0
H3287 H 0.70423 0.48437 0.3586 0.0
H3288 H 0.77699 0.42228 0.35254 0.0
H3289 H 0.75372 0.44542 0.3611 0.0
H3290 H 0.70243 0.423 0.3921 0.0
C3291 C 0.65684 0.47692 0.38699 0.0
C3292 C 0.70375 0.47103 0.36605 0.0
C3293 C 0.64362 0.49047 0.39176 0.0
C3294 C 0.763 0.41771 0.3557 0.0
C3295 C 0.74957 0.431 0.36057 0.0
C3296 C 0.70289 0.43621 0.38441 0.0
C3297 C 0.67575 0.48153 0.38552 0.0
C3298 C 0.68983 0.46719 0.38019 0.0
C3299 C 0.73123 0.42573 0.36508 0.0
C3300 C 0.71686 0.43999 0.37022 0.0
H3301 H 0.67253 0.52754 0.39672 0.0
H3302 H 0.69558 0.50396 0.38827 0.0
H3303 H 0.6791 0.44625 0.40036 0.0
H3304 H 0.73635 0.37892 0.3597 0.0
H3305 H 0.7128 0.40204 0.36767 0.0
C3306 C 0.37537 0.98859 0.10309 0.0
C3307 C 0.36985 1.00707 0.0999 0.0
C3308 C 0.36229 0.97494 0.108 0.0
C3309 C 0.31606 0.96932 0.13065 0.0
H3310 H 0.31622 0.92109 0.10509 0.0
C3311 C 0.2562 0.91734 0.14261 0.0
C3312 C 0.26035 0.89831 0.14341 0.0
C3313 C 0.26979 0.93026 0.13723 0.0
C3314 C 0.31611 0.93437 0.11262 0.0
H3315 H 0.34619 0.02564 0.0995 0.0
H3316 H 0.32345 1.00191 0.10801 0.0
H3317 H 0.33958 0.94405 0.09585 0.0
H3318 H 0.28217 0.878 0.13941 0.0
H3319 H 0.30601 0.90052 0.13044 0.0
H3320 H 0.29289 0.9597 0.14769 0.0
C3321 C 0.3379 0.99795 0.10671 0.0
C3322 C 0.32949 0.94756 0.10725 0.0
C3323 C 0.35092 0.01153 0.1016 0.0
C3324 C 0.27846 0.89253 0.13871 0.0
C3325 C 0.29212 0.90548 0.13351 0.0
C3326 C 0.3028 0.9561 0.13616 0.0
C3327 C 0.34342 0.97951 0.11009 0.0
C3328 C 0.32953 0.96525 0.11609 0.0
C3329 C 0.28799 0.92456 0.13268 0.0
C3330 C 0.30251 0.93847 0.12712 0.0
H3331 H 0.38981 0.98468 0.10178 0.0
H3332 H 0.36701 0.96088 0.11059 0.0
H3333 H 0.3159 0.9827 0.138 0.0
H3334 H 0.24232 0.92224 0.14579 0.0
H3335 H 0.26589 0.94474 0.13636 0.0
C3336 C 0.77433 0.40434 0.66191 0.0
C3337 C 0.76431 0.39465 0.6472 0.0
C3338 C 0.78802 0.41718 0.65649 0.0
C3339 C 0.81767 0.43201 0.61343 0.0
H3340 H 0.82364 0.47668 0.645 0.0
C3341 C 0.86304 0.49425 0.58777 0.0
C3342 C 0.87434 0.50261 0.60237 0.0
C3343 C 0.84996 0.48076 0.59315 0.0
C3344 C 0.82228 0.4642 0.63612 0.0
H3345 H 0.76065 0.39118 0.61521 0.0
H3346 H 0.78419 0.41373 0.60573 0.0
H3347 H 0.80024 0.45397 0.65451 0.0
H3348 H 0.8805 0.50345 0.63414 0.0
H3349 H 0.85778 0.47995 0.64349 0.0
H3350 H 0.83955 0.44249 0.59485 0.0
C3351 C 0.78188 0.41111 0.6215 0.0
C3352 C 0.80886 0.4511 0.64161 0.0
C3353 C 0.76831 0.39816 0.62693 0.0
C3354 C 0.87221 0.49715 0.62247 0.0
C3355 C 0.85903 0.48381 0.62787 0.0
C3356 C 0.83098 0.44518 0.60785 0.0
C3357 C 0.79195 0.42083 0.63619 0.0
C3358 C 0.80636 0.43478 0.63037 0.0
C3359 C 0.8477 0.47546 0.6133 0.0
C3360 C 0.83348 0.46143 0.61915 0.0
H3361 H 0.77178 0.4018 0.67764 0.0
H3362 H 0.79567 0.4241 0.66827 0.0
H3363 H 0.81644 0.4195 0.60456 0.0
H3364 H 0.86438 0.49806 0.57216 0.0
H3365 H 0.84137 0.47471 0.58157 0.0
C3366 C 0.26935 0.12215 0.37771 0.0
C3367 C 0.26283 0.12343 0.35791 0.0
C3368 C 0.28305 0.10924 0.3829 0.0
C3369 C 0.30614 0.06605 0.36475 0.0
H3370 H 0.34307 0.07894 0.40461 0.0
C3371 C 0.37121 0.02104 0.37949 0.0
C3372 C 0.37587 0.01757 0.39962 0.0
C3373 C 0.3575 0.034 0.37456 0.0
C3374 C 0.33276 0.07507 0.39357 0.0
H3375 H 0.26583 0.11229 0.32799 0.0
H3376 H 0.28997 0.09007 0.33684 0.0
H3377 H 0.31922 0.10141 0.39553 0.0
H3378 H 0.36992 0.02528 0.4303 0.0
H3379 H 0.34602 0.04804 0.42168 0.0
H3380 H 0.31998 0.03983 0.36258 0.0
C3381 C 0.2842 0.0987 0.34855 0.0
C3382 C 0.31901 0.08795 0.38838 0.0
C3383 C 0.27037 0.1115 0.34342 0.0
C3384 C 0.36659 0.02754 0.41468 0.0
C3385 C 0.353 0.04068 0.40973 0.0
C3386 C 0.31999 0.05327 0.36981 0.0
C3387 C 0.29074 0.09735 0.36839 0.0
C3388 C 0.30547 0.08363 0.37391 0.0
C3389 C 0.3482 0.04396 0.38961 0.0
C3390 C 0.33346 0.05761 0.38429 0.0
H3391 H 0.26364 0.13093 0.38931 0.0
H3392 H 0.28739 0.10842 0.3984 0.0
H3393 H 0.29579 0.06202 0.35385 0.0
H3394 H 0.37792 0.01345 0.36753 0.0
H3395 H 0.35425 0.03631 0.35891 0.0
C3396 C 0.7393 0.62914 0.14376 0.0
C3397 C 0.75769 0.62296 0.14592 0.0
C3398 C 0.72522 0.61675 0.13816 0.0
C3399 C 0.71727 0.57329 0.11123 0.0
H3400 H 0.67245 0.56879 0.14287 0.0
C3401 C 0.66588 0.51304 0.09842 0.0
C3402 C 0.64691 0.51594 0.10196 0.0
C3403 C 0.67892 0.52668 0.10331 0.0
C3404 C 0.68468 0.57005 0.13358 0.0
H3405 H 0.77579 0.59909 0.14342 0.0
H3406 H 0.75135 0.57761 0.13329 0.0
H3407 H 0.69574 0.59185 0.15192 0.0
H3408 H 0.62667 0.53564 0.11293 0.0
H3409 H 0.64923 0.55974 0.12079 0.0
H3410 H 0.70624 0.55195 0.09254 0.0
C3411 C 0.74777 0.59195 0.13616 0.0
C3412 C 0.69807 0.58325 0.13887 0.0
C3413 C 0.76173 0.60421 0.14212 0.0
C3414 C 0.64123 0.53292 0.11025 0.0
C3415 C 0.65423 0.54671 0.11485 0.0
C3416 C 0.70377 0.56032 0.10571 0.0
C3417 C 0.72935 0.59805 0.13416 0.0
C3418 C 0.71461 0.58483 0.12791 0.0
C3419 C 0.67332 0.54377 0.11158 0.0
C3420 C 0.68735 0.55829 0.11696 0.0
H3421 H 0.7358 0.64349 0.14664 0.0
H3422 H 0.71115 0.62185 0.13665 0.0
H3423 H 0.72979 0.57437 0.10234 0.0
H3424 H 0.6707 0.5 0.09233 0.0
H3425 H 0.69345 0.5236 0.10095 0.0
C3426 C 0.16691 0.01236 0.89143 0.0
C3427 C 0.14795 1.00811 0.89332 0.0
C3428 C 0.17975 0.99864 0.88616 0.0
C3429 C 0.18749 0.94812 0.88645 0.0
H3430 H 0.22513 0.95929 0.84682 0.0
C3431 C 0.23947 0.89226 0.85823 0.0
C3432 C 0.25771 0.898 0.85406 0.0
C3433 C 0.22557 0.9053 0.8625 0.0
C3434 C 0.2149 0.95596 0.85813 0.0
H3435 H 0.12772 0.98598 0.89138 0.0
H3436 H 0.1502 0.96196 0.8823 0.0
H3437 H 0.20211 0.98267 0.85543 0.0
H3438 H 0.27566 0.92198 0.85168 0.0
H3439 H 0.25172 0.94458 0.85942 0.0
H3440 H 0.20049 0.92156 0.88952 0.0
C3441 C 0.15508 0.97596 0.88487 0.0
C3442 C 0.20164 0.96939 0.86301 0.0
C3443 C 0.14219 0.98975 0.8899 0.0
C3444 C 0.26171 0.91707 0.85441 0.0
C3445 C 0.2479 0.93007 0.85883 0.0
C3446 C 0.20088 0.93472 0.88171 0.0
C3447 C 0.17403 0.98025 0.88285 0.0
C3448 C 0.18782 0.96569 0.87731 0.0
C3449 C 0.22958 0.92443 0.86287 0.0
C3450 C 0.21488 0.93847 0.86755 0.0
H3451 H 0.1718 0.02637 0.89375 0.0
H3452 H 0.19425 1.0024 0.8849 0.0
H3453 H 0.17714 0.94488 0.89767 0.0
H3454 H 0.23587 0.8777 0.85791 0.0
H3455 H 0.21162 0.90037 0.86523 0.0
loop_
_geom_bond_atom_site_label_1
_geom_bond_atom_site_label_2
_geom_bond_distance
_geom_bond_site_symmetry_2
_ccdc_geom_bond_type
Co0 N4 2.148 . S
Co0 N10 2.128 . S
Co0 N20 2.194 . S
Co0 O25 2.351 . S
Co0 O26 2.155 . S
Co0 O27 2.096 . S
C1 N4 1.301 . S
C1 N5 1.328 . S
C1 H6 0.930 . S
C2 C3 1.333 . S
C2 N4 1.317 . S
C2 H7 0.930 . S
C3 C2 1.333 . S
C3 N5 1.350 . S
C3 H29 0.931 . S
N4 Co0 2.148 . S
N4 C1 1.301 . S
N4 C2 1.317 . S
N5 C1 1.328 . S
N5 C3 1.350 . S
H6 C1 0.930 . S
H7 C2 0.930 . S
C8 O9 1.224 . S
C8 O27 1.247 . S
O9 C8 1.224 . S
N10 Co0 2.128 . S
N10 C11 1.355 . S
N10 C13 1.311 . S
C11 N10 1.355 . S
C11 C12 1.363 . S
C11 H23 0.929 . S
C12 C11 1.363 . S
C12 N14 1.375 . S
C12 H30 0.931 . S
C13 N10 1.311 . S
C13 N14 1.347 . S
C13 H24 0.929 . S
N14 C12 1.375 . S
N14 C13 1.347 . S
C15 C18 1.365 . S
C15 N20 1.328 . S
C15 H21 0.929 . S
C16 C17 1.362 . S
C16 C19 1.378 . S
C16 H31 0.929 . S
C17 C16 1.362 . S
C17 C18 1.366 . S
C18 C15 1.365 . S
C18 C17 1.366 . S
C18 H32 0.930 . S
C19 C16 1.378 . S
C19 N20 1.315 . S
C19 H22 0.930 . S
N20 Co0 2.194 . S
N20 C15 1.328 . S
N20 C19 1.315 . S
H21 C15 0.929 . S
H22 C19 0.930 . S
H23 C11 0.929 . S
H24 C13 0.929 . S
O25 Co0 2.351 . S
O25 C28 1.244 . S
O26 Co0 2.155 . S
O26 C28 1.240 . S
O27 Co0 2.096 . S
O27 C8 1.247 . S
C28 O25 1.244 . S
C28 O26 1.240 . S
H29 C3 0.931 . S
H30 C12 0.931 . S
H31 C16 0.929 . S
H32 C18 0.930 . S
Co33 N37 2.148 . S
Co33 N43 2.128 . S
Co33 N53 2.194 . S
Co33 O58 2.351 . S
Co33 O59 2.155 . S
Co33 O60 2.096 . S
C34 N37 1.301 . S
C34 N38 1.328 . S
C34 H39 0.930 . S
C35 C36 1.333 . S
C35 N37 1.317 . S
C35 H40 0.930 . S
C36 C35 1.333 . S
C36 N38 1.350 . S
C36 H62 0.931 . S
N37 Co33 2.148 . S
N37 C34 1.301 . S
N37 C35 1.317 . S
N38 C34 1.328 . S
N38 C36 1.350 . S
H39 C34 0.930 . S
H40 C35 0.930 . S
C41 O42 1.224 . S
C41 O60 1.247 . S
O42 C41 1.224 . S
N43 Co33 2.128 . S
N43 C44 1.355 . S
N43 C46 1.311 . S
C44 N43 1.355 . S
C44 C45 1.363 . S
C44 H56 0.929 . S
C45 C44 1.363 . S
C45 N47 1.375 . S
C45 H63 0.931 . S
C46 N43 1.311 . S
C46 N47 1.347 . S
C46 H57 0.929 . S
N47 C45 1.375 . S
N47 C46 1.347 . S
C48 C51 1.365 . S
C48 N53 1.328 . S
C48 H54 0.929 . S
C49 C50 1.362 . S
C49 C52 1.378 . S
C49 H64 0.929 . S
C50 C49 1.362 . S
C50 C51 1.366 . S
C51 C48 1.365 . S
C51 C50 1.366 . S
C51 H65 0.930 . S
C52 C49 1.378 . S
C52 N53 1.315 . S
C52 H55 0.930 . S
N53 Co33 2.194 . S
N53 C48 1.328 . S
N53 C52 1.315 . S
H54 C48 0.929 . S
H55 C52 0.930 . S
H56 C44 0.929 . S
H57 C46 0.929 . S
O58 Co33 2.351 . S
O58 C61 1.244 . S
O59 Co33 2.155 . S
O59 C61 1.240 . S
O60 Co33 2.096 . S
O60 C41 1.247 . S
C61 O58 1.244 . S
C61 O59 1.240 . S
H62 C36 0.931 . S
H63 C45 0.931 . S
H64 C49 0.929 . S
H65 C51 0.930 . S
Co66 N70 2.148 . S
Co66 N76 2.128 . S
Co66 N86 2.194 . S
Co66 O91 2.351 . S
Co66 O92 2.155 . S
Co66 O93 2.096 . S
C67 N70 1.301 . S
C67 N71 1.328 . S
C67 H72 0.930 . S
C68 C69 1.333 . S
C68 N70 1.317 . S
C68 H73 0.930 . S
C69 C68 1.333 . S
C69 N71 1.350 . S
C69 H95 0.931 . S
N70 Co66 2.148 . S
N70 C67 1.301 . S
N70 C68 1.317 . S
N71 C67 1.328 . S
N71 C69 1.350 . S
H72 C67 0.930 . S
H73 C68 0.930 . S
C74 O75 1.224 . S
C74 O93 1.247 . S
O75 C74 1.224 . S
N76 Co66 2.128 . S
N76 C77 1.355 . S
N76 C79 1.311 . S
C77 N76 1.355 . S
C77 C78 1.363 . S
C77 H89 0.929 . S
C78 C77 1.363 . S
C78 N80 1.375 . S
C78 H96 0.931 . S
C79 N76 1.311 . S
C79 N80 1.347 . S
C79 H90 0.929 . S
N80 C78 1.375 . S
N80 C79 1.347 . S
C81 C84 1.365 . S
C81 N86 1.328 . S
C81 H87 0.929 . S
C82 C83 1.362 . S
C82 C85 1.378 . S
C82 H97 0.929 . S
C83 C82 1.362 . S
C83 C84 1.366 . S
C84 C81 1.365 . S
C84 C83 1.366 . S
C84 H98 0.930 . S
C85 C82 1.378 . S
C85 N86 1.315 . S
C85 H88 0.930 . S
N86 Co66 2.194 . S
N86 C81 1.328 . S
N86 C85 1.315 . S
H87 C81 0.929 . S
H88 C85 0.930 . S
H89 C77 0.929 . S
H90 C79 0.929 . S
O91 Co66 2.351 . S
O91 C94 1.244 . S
O92 Co66 2.155 . S
O92 C94 1.240 . S
O93 Co66 2.096 . S
O93 C74 1.247 . S
C94 O91 1.244 . S
C94 O92 1.240 . S
H95 C69 0.931 . S
H96 C78 0.931 . S
H97 C82 0.929 . S
H98 C84 0.930 . S
Co99 N103 2.148 . S
Co99 N109 2.128 . S
Co99 N119 2.194 . S
Co99 O124 2.351 . S
Co99 O125 2.155 . S
Co99 O126 2.096 . S
C100 N103 1.301 . S
C100 N104 1.328 . S
C100 H105 0.930 . S
C101 C102 1.333 . S
C101 N103 1.317 . S
C101 H106 0.930 . S
C102 C101 1.333 . S
C102 N104 1.350 . S
C102 H128 0.931 . S
N103 Co99 2.148 . S
N103 C100 1.301 . S
N103 C101 1.317 . S
N104 C100 1.328 . S
N104 C102 1.350 . S
H105 C100 0.930 . S
H106 C101 0.930 . S
C107 O108 1.224 . S
C107 O126 1.247 . S
O108 C107 1.224 . S
N109 Co99 2.128 . S
N109 C110 1.355 . S
N109 C112 1.311 . S
C110 N109 1.355 . S
C110 C111 1.363 . S
C110 H122 0.929 . S
C111 C110 1.363 . S
C111 N113 1.375 . S
C111 H129 0.931 . S
C112 N109 1.311 . S
C112 N113 1.347 . S
C112 H123 0.929 . S
N113 C111 1.375 . S
N113 C112 1.347 . S
C114 C117 1.365 . S
C114 N119 1.328 . S
C114 H120 0.929 . S
C115 C116 1.362 . S
C115 C118 1.378 . S
C115 H130 0.929 . S
C116 C115 1.362 . S
C116 C117 1.366 . S
C117 C114 1.365 . S
C117 C116 1.366 . S
C117 H131 0.930 . S
C118 C115 1.378 . S
C118 N119 1.315 . S
C118 H121 0.930 . S
N119 Co99 2.194 . S
N119 C114 1.328 . S
N119 C118 1.315 . S
H120 C114 0.929 . S
H121 C118 0.930 . S
H122 C110 0.929 . S
H123 C112 0.929 . S
O124 Co99 2.351 . S
O124 C127 1.244 . S
O125 Co99 2.155 . S
O125 C127 1.240 . S
O126 Co99 2.096 . S
O126 C107 1.247 . S
C127 O124 1.244 . S
C127 O125 1.240 . S
H128 C102 0.931 . S
H129 C111 0.931 . S
H130 C115 0.929 . S
H131 C117 0.930 . S
Co132 N136 2.148 . S
Co132 N142 2.128 . S
Co132 N152 2.194 . S
Co132 O157 2.351 . S
Co132 O158 2.155 . S
Co132 O159 2.096 . S
C133 N136 1.301 . S
C133 N137 1.328 . S
C133 H138 0.930 . S
C134 C135 1.333 . S
C134 N136 1.317 . S
C134 H139 0.930 . S
C135 C134 1.333 . S
C135 N137 1.350 . S
C135 H161 0.931 . S
N136 Co132 2.148 . S
N136 C133 1.301 . S
N136 C134 1.317 . S
N137 C133 1.328 . S
N137 C135 1.350 . S
H138 C133 0.930 . S
H139 C134 0.930 . S
C140 O141 1.224 . S
C140 O159 1.247 . S
O141 C140 1.224 . S
N142 Co132 2.128 . S
N142 C143 1.355 . S
N142 C145 1.311 . S
C143 N142 1.355 . S
C143 C144 1.363 . S
C143 H155 0.929 . S
C144 C143 1.363 . S
C144 N146 1.375 . S
C144 H162 0.931 . S
C145 N142 1.311 . S
C145 N146 1.347 . S
C145 H156 0.929 . S
N146 C144 1.375 . S
N146 C145 1.347 . S
C147 C150 1.365 . S
C147 N152 1.328 . S
C147 H153 0.929 . S
C148 C149 1.362 . S
C148 C151 1.378 . S
C148 H163 0.929 . S
C149 C148 1.362 . S
C149 C150 1.366 . S
C150 C147 1.365 . S
C150 C149 1.366 . S
C150 H164 0.930 . S
C151 C148 1.378 . S
C151 N152 1.315 . S
C151 H154 0.930 . S
N152 Co132 2.194 . S
N152 C147 1.328 . S
N152 C151 1.315 . S
H153 C147 0.929 . S
H154 C151 0.930 . S
H155 C143 0.929 . S
H156 C145 0.929 . S
O157 Co132 2.351 . S
O157 C160 1.244 . S
O158 Co132 2.155 . S
O158 C160 1.240 . S
O159 Co132 2.096 . S
O159 C140 1.247 . S
C160 O157 1.244 . S
C160 O158 1.240 . S
H161 C135 0.931 . S
H162 C144 0.931 . S
H163 C148 0.929 . S
H164 C150 0.930 . S
Co165 N169 2.148 . S
Co165 N175 2.128 . S
Co165 N185 2.194 . S
Co165 O190 2.351 . S
Co165 O191 2.155 . S
Co165 O192 2.096 . S
C166 N169 1.301 . S
C166 N170 1.328 . S
C166 H171 0.930 . S
C167 C168 1.333 . S
C167 N169 1.317 . S
C167 H172 0.930 . S
C168 C167 1.333 . S
C168 N170 1.350 . S
C168 H194 0.931 . S
N169 Co165 2.148 . S
N169 C166 1.301 . S
N169 C167 1.317 . S
N170 C166 1.328 . S
N170 C168 1.350 . S
H171 C166 0.930 . S
H172 C167 0.930 . S
C173 O174 1.224 . S
C173 O192 1.247 . S
O174 C173 1.224 . S
N175 Co165 2.128 . S
N175 C176 1.355 . S
N175 C178 1.311 . S
C176 N175 1.355 . S
C176 C177 1.363 . S
C176 H188 0.929 . S
C177 C176 1.363 . S
C177 N179 1.375 . S
C177 H195 0.931 . S
C178 N175 1.311 . S
C178 N179 1.347 . S
C178 H189 0.929 . S
N179 C177 1.375 . S
N179 C178 1.347 . S
C180 C183 1.365 . S
C180 N185 1.328 . S
C180 H186 0.929 . S
C181 C182 1.362 . S
C181 C184 1.378 . S
C181 H196 0.929 . S
C182 C181 1.362 . S
C182 C183 1.366 . S
C183 C180 1.365 . S
C183 C182 1.366 . S
C183 H197 0.930 . S
C184 C181 1.378 . S
C184 N185 1.315 . S
C184 H187 0.930 . S
N185 Co165 2.194 . S
N185 C180 1.328 . S
N185 C184 1.315 . S
H186 C180 0.929 . S
H187 C184 0.930 . S
H188 C176 0.929 . S
H189 C178 0.929 . S
O190 Co165 2.351 . S
O190 C193 1.244 . S
O191 Co165 2.155 . S
O191 C193 1.240 . S
O192 Co165 2.096 . S
O192 C173 1.247 . S
C193 O190 1.244 . S
C193 O191 1.240 . S
H194 C168 0.931 . S
H195 C177 0.931 . S
H196 C181 0.929 . S
H197 C183 0.930 . S
Co198 N202 2.148 . S
Co198 N208 2.128 . S
Co198 N218 2.194 . S
Co198 O223 2.351 . S
Co198 O224 2.155 . S
Co198 O225 2.096 . S
C199 N202 1.301 . S
C199 N203 1.328 . S
C199 H204 0.930 . S
C200 C201 1.333 . S
C200 N202 1.317 . S
C200 H205 0.930 . S
C201 C200 1.333 . S
C201 N203 1.350 . S
C201 H227 0.931 . S
N202 Co198 2.148 . S
N202 C199 1.301 . S
N202 C200 1.317 . S
N203 C199 1.328 . S
N203 C201 1.350 . S
H204 C199 0.930 . S
H205 C200 0.930 . S
C206 O207 1.224 . S
C206 O225 1.247 . S
O207 C206 1.224 . S
N208 Co198 2.128 . S
N208 C209 1.355 . S
N208 C211 1.311 . S
C209 N208 1.355 . S
C209 C210 1.363 . S
C209 H221 0.929 . S
C210 C209 1.363 . S
C210 N212 1.375 . S
C210 H228 0.931 . S
C211 N208 1.311 . S
C211 N212 1.347 . S
C211 H222 0.929 . S
N212 C210 1.375 . S
N212 C211 1.347 . S
C213 C216 1.365 . S
C213 N218 1.328 . S
C213 H219 0.929 . S
C214 C215 1.362 . S
C214 C217 1.378 . S
C214 H229 0.929 . S
C215 C214 1.362 . S
C215 C216 1.366 . S
C216 C213 1.365 . S
C216 C215 1.366 . S
C216 H230 0.930 . S
C217 C214 1.378 . S
C217 N218 1.315 . S
C217 H220 0.930 . S
N218 Co198 2.194 . S
N218 C213 1.328 . S
N218 C217 1.315 . S
H219 C213 0.929 . S
H220 C217 0.930 . S
H221 C209 0.929 . S
H222 C211 0.929 . S
O223 Co198 2.351 . S
O223 C226 1.244 . S
O224 Co198 2.155 . S
O224 C226 1.240 . S
O225 Co198 2.096 . S
O225 C206 1.247 . S
C226 O223 1.244 . S
C226 O224 1.240 . S
H227 C201 0.931 . S
H228 C210 0.931 . S
H229 C214 0.929 . S
H230 C216 0.930 . S
Co231 N235 2.148 . S
Co231 N241 2.128 . S
Co231 N251 2.194 . S
Co231 O256 2.351 . S
Co231 O257 2.155 . S
Co231 O258 2.096 . S
C232 N235 1.301 . S
C232 N236 1.328 . S
C232 H237 0.930 . S
C233 C234 1.333 . S
C233 N235 1.317 . S
C233 H238 0.930 . S
C234 C233 1.333 . S
C234 N236 1.350 . S
C234 H260 0.931 . S
N235 Co231 2.148 . S
N235 C232 1.301 . S
N235 C233 1.317 . S
N236 C232 1.328 . S
N236 C234 1.350 . S
H237 C232 0.930 . S
H238 C233 0.930 . S
C239 O240 1.224 . S
C239 O258 1.247 . S
O240 C239 1.224 . S
N241 Co231 2.128 . S
N241 C242 1.355 . S
N241 C244 1.311 . S
C242 N241 1.355 . S
C242 C243 1.363 . S
C242 H254 0.929 . S
C243 C242 1.363 . S
C243 N245 1.375 . S
C243 H261 0.931 . S
C244 N241 1.311 . S
C244 N245 1.347 . S
C244 H255 0.929 . S
N245 C243 1.375 . S
N245 C244 1.347 . S
C246 C249 1.365 . S
C246 N251 1.328 . S
C246 H252 0.929 . S
C247 C248 1.362 . S
C247 C250 1.378 . S
C247 H262 0.929 . S
C248 C247 1.362 . S
C248 C249 1.366 . S
C249 C246 1.365 . S
C249 C248 1.366 . S
C249 H263 0.930 . S
C250 C247 1.378 . S
C250 N251 1.315 . S
C250 H253 0.930 . S
N251 Co231 2.194 . S
N251 C246 1.328 . S
N251 C250 1.315 . S
H252 C246 0.929 . S
H253 C250 0.930 . S
H254 C242 0.929 . S
H255 C244 0.929 . S
O256 Co231 2.351 . S
O256 C259 1.244 . S
O257 Co231 2.155 . S
O257 C259 1.240 . S
O258 Co231 2.096 . S
O258 C239 1.247 . S
C259 O256 1.244 . S
C259 O257 1.240 . S
H260 C234 0.931 . S
H261 C243 0.931 . S
H262 C247 0.929 . S
H263 C249 0.930 . S
Co264 N268 2.148 . S
Co264 N274 2.128 . S
Co264 N284 2.194 . S
Co264 O289 2.351 . S
Co264 O290 2.155 . S
Co264 O291 2.096 . S
C265 N268 1.301 . S
C265 N269 1.328 . S
C265 H270 0.930 . S
C266 C267 1.333 . S
C266 N268 1.317 . S
C266 H271 0.930 . S
C267 C266 1.333 . S
C267 N269 1.350 . S
C267 H293 0.931 . S
N268 Co264 2.148 . S
N268 C265 1.301 . S
N268 C266 1.317 . S
N269 C265 1.328 . S
N269 C267 1.350 . S
H270 C265 0.930 . S
H271 C266 0.930 . S
C272 O273 1.224 . S
C272 O291 1.247 . S
O273 C272 1.224 . S
N274 Co264 2.128 . S
N274 C275 1.355 . S
N274 C277 1.311 . S
C275 N274 1.355 . S
C275 C276 1.363 . S
C275 H287 0.929 . S
C276 C275 1.363 . S
C276 N278 1.375 . S
C276 H294 0.931 . S
C277 N274 1.311 . S
C277 N278 1.347 . S
C277 H288 0.929 . S
N278 C276 1.375 . S
N278 C277 1.347 . S
C279 C282 1.365 . S
C279 N284 1.328 . S
C279 H285 0.929 . S
C280 C281 1.362 . S
C280 C283 1.378 . S
C280 H295 0.929 . S
C281 C280 1.362 . S
C281 C282 1.366 . S
C282 C279 1.365 . S
C282 C281 1.366 . S
C282 H296 0.930 . S
C283 C280 1.378 . S
C283 N284 1.315 . S
C283 H286 0.930 . S
N284 Co264 2.194 . S
N284 C279 1.328 . S
N284 C283 1.315 . S
H285 C279 0.929 . S
H286 C283 0.930 . S
H287 C275 0.929 . S
H288 C277 0.929 . S
O289 Co264 2.351 . S
O289 C292 1.244 . S
O290 Co264 2.155 . S
O290 C292 1.240 . S
O291 Co264 2.096 . S
O291 C272 1.247 . S
C292 O289 1.244 . S
C292 O290 1.240 . S
H293 C267 0.931 . S
H294 C276 0.931 . S
H295 C280 0.929 . S
H296 C282 0.930 . S
Co297 N301 2.148 . S
Co297 N307 2.128 . S
Co297 N317 2.194 . S
Co297 O322 2.351 . S
Co297 O323 2.155 . S
Co297 O324 2.096 . S
C298 N301 1.301 . S
C298 N302 1.328 . S
C298 H303 0.930 . S
C299 C300 1.333 . S
C299 N301 1.317 . S
C299 H304 0.930 . S
C300 C299 1.333 . S
C300 N302 1.350 . S
C300 H326 0.931 . S
N301 Co297 2.148 . S
N301 C298 1.301 . S
N301 C299 1.317 . S
N302 C298 1.328 . S
N302 C300 1.350 . S
H303 C298 0.930 . S
H304 C299 0.930 . S
C305 O306 1.224 . S
C305 O324 1.247 . S
O306 C305 1.224 . S
N307 Co297 2.128 . S
N307 C308 1.355 . S
N307 C310 1.311 . S
C308 N307 1.355 . S
C308 C309 1.363 . S
C308 H320 0.929 . S
C309 C308 1.363 . S
C309 N311 1.375 . S
C309 H327 0.931 . S
C310 N307 1.311 . S
C310 N311 1.347 . S
C310 H321 0.929 . S
N311 C309 1.375 . S
N311 C310 1.347 . S
C312 C315 1.365 . S
C312 N317 1.328 . S
C312 H318 0.929 . S
C313 C314 1.362 . S
C313 C316 1.378 . S
C313 H328 0.929 . S
C314 C313 1.362 . S
C314 C315 1.366 . S
C315 C312 1.365 . S
C315 C314 1.366 . S
C315 H329 0.930 . S
C316 C313 1.378 . S
C316 N317 1.315 . S
C316 H319 0.930 . S
N317 Co297 2.194 . S
N317 C312 1.328 . S
N317 C316 1.315 . S
H318 C312 0.929 . S
H319 C316 0.930 . S
H320 C308 0.929 . S
H321 C310 0.929 . S
O322 Co297 2.351 . S
O322 C325 1.244 . S
O323 Co297 2.155 . S
O323 C325 1.240 . S
O324 Co297 2.096 . S
O324 C305 1.247 . S
C325 O322 1.244 . S
C325 O323 1.240 . S
H326 C300 0.931 . S
H327 C309 0.931 . S
H328 C313 0.929 . S
H329 C315 0.930 . S
Co330 N334 2.148 . S
Co330 N340 2.128 . S
Co330 N350 2.194 . S
Co330 O355 2.351 . S
Co330 O356 2.155 . S
Co330 O357 2.096 . S
C331 N334 1.301 . S
C331 N335 1.328 . S
C331 H336 0.930 . S
C332 C333 1.333 . S
C332 N334 1.317 . S
C332 H337 0.930 . S
C333 C332 1.333 . S
C333 N335 1.350 . S
C333 H359 0.931 . S
N334 Co330 2.148 . S
N334 C331 1.301 . S
N334 C332 1.317 . S
N335 C331 1.328 . S
N335 C333 1.350 . S
H336 C331 0.930 . S
H337 C332 0.930 . S
C338 O339 1.224 . S
C338 O357 1.247 . S
O339 C338 1.224 . S
N340 Co330 2.128 . S
N340 C341 1.355 . S
N340 C343 1.311 . S
C341 N340 1.355 . S
C341 C342 1.363 . S
C341 H353 0.929 . S
C342 C341 1.363 . S
C342 N344 1.375 . S
C342 H360 0.931 . S
C343 N340 1.311 . S
C343 N344 1.347 . S
C343 H354 0.929 . S
N344 C342 1.375 . S
N344 C343 1.347 . S
C345 C348 1.365 . S
C345 N350 1.328 . S
C345 H351 0.929 . S
C346 C347 1.362 . S
C346 C349 1.378 . S
C346 H361 0.929 . S
C347 C346 1.362 . S
C347 C348 1.366 . S
C348 C345 1.365 . S
C348 C347 1.366 . S
C348 H362 0.930 . S
C349 C346 1.378 . S
C349 N350 1.315 . S
C349 H352 0.930 . S
N350 Co330 2.194 . S
N350 C345 1.328 . S
N350 C349 1.315 . S
H351 C345 0.929 . S
H352 C349 0.930 . S
H353 C341 0.929 . S
H354 C343 0.929 . S
O355 Co330 2.351 . S
O355 C358 1.244 . S
O356 Co330 2.155 . S
O356 C358 1.240 . S
O357 Co330 2.096 . S
O357 C338 1.247 . S
C358 O355 1.244 . S
C358 O356 1.240 . S
H359 C333 0.931 . S
H360 C342 0.931 . S
H361 C346 0.929 . S
H362 C348 0.930 . S
Co363 N367 2.148 . S
Co363 N373 2.128 . S
Co363 N383 2.194 . S
Co363 O388 2.351 . S
Co363 O389 2.155 . S
Co363 O390 2.096 . S
C364 N367 1.301 . S
C364 N368 1.328 . S
C364 H369 0.930 . S
C365 C366 1.333 . S
C365 N367 1.317 . S
C365 H370 0.930 . S
C366 C365 1.333 . S
C366 N368 1.350 . S
C366 H392 0.931 . S
N367 Co363 2.148 . S
N367 C364 1.301 . S
N367 C365 1.317 . S
N368 C364 1.328 . S
N368 C366 1.350 . S
H369 C364 0.930 . S
H370 C365 0.930 . S
C371 O372 1.224 . S
C371 O390 1.247 . S
O372 C371 1.224 . S
N373 Co363 2.128 . S
N373 C374 1.355 . S
N373 C376 1.311 . S
C374 N373 1.355 . S
C374 C375 1.363 . S
C374 H386 0.929 . S
C375 C374 1.363 . S
C375 N377 1.375 . S
C375 H393 0.931 . S
C376 N373 1.311 . S
C376 N377 1.347 . S
C376 H387 0.929 . S
N377 C375 1.375 . S
N377 C376 1.347 . S
C378 C381 1.365 . S
C378 N383 1.328 . S
C378 H384 0.929 . S
C379 C380 1.362 . S
C379 C382 1.378 . S
C379 H394 0.929 . S
C380 C379 1.362 . S
C380 C381 1.366 . S
C381 C378 1.365 . S
C381 C380 1.366 . S
C381 H395 0.930 . S
C382 C379 1.378 . S
C382 N383 1.315 . S
C382 H385 0.930 . S
N383 Co363 2.194 . S
N383 C378 1.328 . S
N383 C382 1.315 . S
H384 C378 0.929 . S
H385 C382 0.930 . S
H386 C374 0.929 . S
H387 C376 0.929 . S
O388 Co363 2.351 . S
O388 C391 1.244 . S
O389 Co363 2.155 . S
O389 C391 1.240 . S
O390 Co363 2.096 . S
O390 C371 1.247 . S
C391 O388 1.244 . S
C391 O389 1.240 . S
H392 C366 0.931 . S
H393 C375 0.931 . S
H394 C379 0.929 . S
H395 C381 0.930 . S
Co396 N400 2.148 . S
Co396 N406 2.128 . S
Co396 N416 2.194 . S
Co396 O421 2.351 . S
Co396 O422 2.155 . S
Co396 O423 2.096 . S
C397 N400 1.301 . S
C397 N401 1.328 . S
C397 H402 0.930 . S
C398 C399 1.333 . S
C398 N400 1.317 . S
C398 H403 0.930 . S
C399 C398 1.333 . S
C399 N401 1.350 . S
C399 H425 0.931 . S
N400 Co396 2.148 . S
N400 C397 1.301 . S
N400 C398 1.317 . S
N401 C397 1.328 . S
N401 C399 1.350 . S
H402 C397 0.930 . S
H403 C398 0.930 . S
C404 O405 1.224 . S
C404 O423 1.247 . S
O405 C404 1.224 . S
N406 Co396 2.128 . S
N406 C407 1.355 . S
N406 C409 1.311 . S
C407 N406 1.355 . S
C407 C408 1.363 . S
C407 H419 0.929 . S
C408 C407 1.363 . S
C408 N410 1.375 . S
C408 H426 0.931 . S
C409 N406 1.311 . S
C409 N410 1.347 . S
C409 H420 0.929 . S
N410 C408 1.375 . S
N410 C409 1.347 . S
C411 C414 1.365 . S
C411 N416 1.328 . S
C411 H417 0.929 . S
C412 C413 1.362 . S
C412 C415 1.378 . S
C412 H427 0.929 . S
C413 C412 1.362 . S
C413 C414 1.366 . S
C414 C411 1.365 . S
C414 C413 1.366 . S
C414 H428 0.930 . S
C415 C412 1.378 . S
C415 N416 1.315 . S
C415 H418 0.930 . S
N416 Co396 2.194 . S
N416 C411 1.328 . S
N416 C415 1.315 . S
H417 C411 0.929 . S
H418 C415 0.930 . S
H419 C407 0.929 . S
H420 C409 0.929 . S
O421 Co396 2.351 . S
O421 C424 1.244 . S
O422 Co396 2.155 . S
O422 C424 1.240 . S
O423 Co396 2.096 . S
O423 C404 1.247 . S
C424 O421 1.244 . S
C424 O422 1.240 . S
H425 C399 0.931 . S
H426 C408 0.931 . S
H427 C412 0.929 . S
H428 C414 0.930 . S
Co429 N433 2.148 . S
Co429 N439 2.128 . S
Co429 N449 2.194 . S
Co429 O454 2.351 . S
Co429 O455 2.155 . S
Co429 O456 2.096 . S
C430 N433 1.301 . S
C430 N434 1.328 . S
C430 H435 0.930 . S
C431 C432 1.333 . S
C431 N433 1.317 . S
C431 H436 0.930 . S
C432 C431 1.333 . S
C432 N434 1.350 . S
C432 H458 0.931 . S
N433 Co429 2.148 . S
N433 C430 1.301 . S
N433 C431 1.317 . S
N434 C430 1.328 . S
N434 C432 1.350 . S
H435 C430 0.930 . S
H436 C431 0.930 . S
C437 O438 1.224 . S
C437 O456 1.247 . S
O438 C437 1.224 . S
N439 Co429 2.128 . S
N439 C440 1.355 . S
N439 C442 1.311 . S
C440 N439 1.355 . S
C440 C441 1.363 . S
C440 H452 0.929 . S
C441 C440 1.363 . S
C441 N443 1.375 . S
C441 H459 0.931 . S
C442 N439 1.311 . S
C442 N443 1.347 . S
C442 H453 0.929 . S
N443 C441 1.375 . S
N443 C442 1.347 . S
C444 C447 1.365 . S
C444 N449 1.328 . S
C444 H450 0.929 . S
C445 C446 1.362 . S
C445 C448 1.378 . S
C445 H460 0.929 . S
C446 C445 1.362 . S
C446 C447 1.366 . S
C447 C444 1.365 . S
C447 C446 1.366 . S
C447 H461 0.930 . S
C448 C445 1.378 . S
C448 N449 1.315 . S
C448 H451 0.930 . S
N449 Co429 2.194 . S
N449 C444 1.328 . S
N449 C448 1.315 . S
H450 C444 0.929 . S
H451 C448 0.930 . S
H452 C440 0.929 . S
H453 C442 0.929 . S
O454 Co429 2.351 . S
O454 C457 1.244 . S
O455 Co429 2.155 . S
O455 C457 1.240 . S
O456 Co429 2.096 . S
O456 C437 1.247 . S
C457 O454 1.244 . S
C457 O455 1.240 . S
H458 C432 0.931 . S
H459 C441 0.931 . S
H460 C445 0.929 . S
H461 C447 0.930 . S
Co462 N466 2.148 . S
Co462 N472 2.128 . S
Co462 N482 2.194 . S
Co462 O487 2.351 . S
Co462 O488 2.155 . S
Co462 O489 2.096 . S
C463 N466 1.301 . S
C463 N467 1.328 . S
C463 H468 0.930 . S
C464 C465 1.333 . S
C464 N466 1.317 . S
C464 H469 0.930 . S
C465 C464 1.333 . S
C465 N467 1.350 . S
C465 H491 0.931 . S
N466 Co462 2.148 . S
N466 C463 1.301 . S
N466 C464 1.317 . S
N467 C463 1.328 . S
N467 C465 1.350 . S
H468 C463 0.930 . S
H469 C464 0.930 . S
C470 O471 1.224 . S
C470 O489 1.247 . S
O471 C470 1.224 . S
N472 Co462 2.128 . S
N472 C473 1.355 . S
N472 C475 1.311 . S
C473 N472 1.355 . S
C473 C474 1.363 . S
C473 H485 0.929 . S
C474 C473 1.363 . S
C474 N476 1.375 . S
C474 H492 0.931 . S
C475 N472 1.311 . S
C475 N476 1.347 . S
C475 H486 0.929 . S
N476 C474 1.375 . S
N476 C475 1.347 . S
C477 C480 1.365 . S
C477 N482 1.328 . S
C477 H483 0.929 . S
C478 C479 1.362 . S
C478 C481 1.378 . S
C478 H493 0.929 . S
C479 C478 1.362 . S
C479 C480 1.366 . S
C480 C477 1.365 . S
C480 C479 1.366 . S
C480 H494 0.930 . S
C481 C478 1.378 . S
C481 N482 1.315 . S
C481 H484 0.930 . S
N482 Co462 2.194 . S
N482 C477 1.328 . S
N482 C481 1.315 . S
H483 C477 0.929 . S
H484 C481 0.930 . S
H485 C473 0.929 . S
H486 C475 0.929 . S
O487 Co462 2.351 . S
O487 C490 1.244 . S
O488 Co462 2.155 . S
O488 C490 1.240 . S
O489 Co462 2.096 . S
O489 C470 1.247 . S
C490 O487 1.244 . S
C490 O488 1.240 . S
H491 C465 0.931 . S
H492 C474 0.931 . S
H493 C478 0.929 . S
H494 C480 0.930 . S
Co495 N499 2.148 . S
Co495 N505 2.128 . S
Co495 N515 2.194 . S
Co495 O520 2.351 . S
Co495 O521 2.155 . S
Co495 O522 2.096 . S
C496 N499 1.301 . S
C496 N500 1.328 . S
C496 H501 0.930 . S
C497 C498 1.333 . S
C497 N499 1.317 . S
C497 H502 0.930 . S
C498 C497 1.333 . S
C498 N500 1.350 . S
C498 H524 0.931 . S
N499 Co495 2.148 . S
N499 C496 1.301 . S
N499 C497 1.317 . S
N500 C496 1.328 . S
N500 C498 1.350 . S
H501 C496 0.930 . S
H502 C497 0.930 . S
C503 O504 1.224 . S
C503 O522 1.247 . S
O504 C503 1.224 . S
N505 Co495 2.128 . S
N505 C506 1.355 . S
N505 C508 1.311 . S
C506 N505 1.355 . S
C506 C507 1.363 . S
C506 H518 0.929 . S
C507 C506 1.363 . S
C507 N509 1.375 . S
C507 H525 0.931 . S
C508 N505 1.311 . S
C508 N509 1.347 . S
C508 H519 0.929 . S
N509 C507 1.375 . S
N509 C508 1.347 . S
C510 C513 1.365 . S
C510 N515 1.328 . S
C510 H516 0.929 . S
C511 C512 1.362 . S
C511 C514 1.378 . S
C511 H526 0.929 . S
C512 C511 1.362 . S
C512 C513 1.366 . S
C513 C510 1.365 . S
C513 C512 1.366 . S
C513 H527 0.930 . S
C514 C511 1.378 . S
C514 N515 1.315 . S
C514 H517 0.930 . S
N515 Co495 2.194 . S
N515 C510 1.328 . S
N515 C514 1.315 . S
H516 C510 0.929 . S
H517 C514 0.930 . S
H518 C506 0.929 . S
H519 C508 0.929 . S
O520 Co495 2.351 . S
O520 C523 1.244 . S
O521 Co495 2.155 . S
O521 C523 1.240 . S
O522 Co495 2.096 . S
O522 C503 1.247 . S
C523 O520 1.244 . S
C523 O521 1.240 . S
H524 C498 0.931 . S
H525 C507 0.931 . S
H526 C511 0.929 . S
H527 C513 0.930 . S
Co528 N532 2.148 . S
Co528 N538 2.128 . S
Co528 N548 2.194 . S
Co528 O553 2.351 . S
Co528 O554 2.155 . S
Co528 O555 2.096 . S
C529 N532 1.301 . S
C529 N533 1.328 . S
C529 H534 0.930 . S
C530 C531 1.333 . S
C530 N532 1.317 . S
C530 H535 0.930 . S
C531 C530 1.333 . S
C531 N533 1.350 . S
C531 H557 0.931 . S
N532 Co528 2.148 . S
N532 C529 1.301 . S
N532 C530 1.317 . S
N533 C529 1.328 . S
N533 C531 1.350 . S
H534 C529 0.930 . S
H535 C530 0.930 . S
C536 O537 1.224 . S
C536 O555 1.247 . S
O537 C536 1.224 . S
N538 Co528 2.128 . S
N538 C539 1.355 . S
N538 C541 1.311 . S
C539 N538 1.355 . S
C539 C540 1.363 . S
C539 H551 0.929 . S
C540 C539 1.363 . S
C540 N542 1.375 . S
C540 H558 0.931 . S
C541 N538 1.311 . S
C541 N542 1.347 . S
C541 H552 0.929 . S
N542 C540 1.375 . S
N542 C541 1.347 . S
C543 C546 1.365 . S
C543 N548 1.328 . S
C543 H549 0.929 . S
C544 C545 1.362 . S
C544 C547 1.378 . S
C544 H559 0.929 . S
C545 C544 1.362 . S
C545 C546 1.366 . S
C546 C543 1.365 . S
C546 C545 1.366 . S
C546 H560 0.930 . S
C547 C544 1.378 . S
C547 N548 1.315 . S
C547 H550 0.930 . S
N548 Co528 2.194 . S
N548 C543 1.328 . S
N548 C547 1.315 . S
H549 C543 0.929 . S
H550 C547 0.930 . S
H551 C539 0.929 . S
H552 C541 0.929 . S
O553 Co528 2.351 . S
O553 C556 1.244 . S
O554 Co528 2.155 . S
O554 C556 1.240 . S
O555 Co528 2.096 . S
O555 C536 1.247 . S
C556 O553 1.244 . S
C556 O554 1.240 . S
H557 C531 0.931 . S
H558 C540 0.931 . S
H559 C544 0.929 . S
H560 C546 0.930 . S
Co561 N565 2.148 . S
Co561 N571 2.128 . S
Co561 N581 2.194 . S
Co561 O586 2.351 . S
Co561 O587 2.155 . S
Co561 O588 2.096 . S
C562 N565 1.301 . S
C562 N566 1.328 . S
C562 H567 0.930 . S
C563 C564 1.333 . S
C563 N565 1.317 . S
C563 H568 0.930 . S
C564 C563 1.333 . S
C564 N566 1.350 . S
C564 H590 0.931 . S
N565 Co561 2.148 . S
N565 C562 1.301 . S
N565 C563 1.317 . S
N566 C562 1.328 . S
N566 C564 1.350 . S
H567 C562 0.930 . S
H568 C563 0.930 . S
C569 O570 1.224 . S
C569 O588 1.247 . S
O570 C569 1.224 . S
N571 Co561 2.128 . S
N571 C572 1.355 . S
N571 C574 1.311 . S
C572 N571 1.355 . S
C572 C573 1.363 . S
C572 H584 0.929 . S
C573 C572 1.363 . S
C573 N575 1.375 . S
C573 H591 0.931 . S
C574 N571 1.311 . S
C574 N575 1.347 . S
C574 H585 0.929 . S
N575 C573 1.375 . S
N575 C574 1.347 . S
C576 C579 1.365 . S
C576 N581 1.328 . S
C576 H582 0.929 . S
C577 C578 1.362 . S
C577 C580 1.378 . S
C577 H592 0.929 . S
C578 C577 1.362 . S
C578 C579 1.366 . S
C579 C576 1.365 . S
C579 C578 1.366 . S
C579 H593 0.930 . S
C580 C577 1.378 . S
C580 N581 1.315 . S
C580 H583 0.930 . S
N581 Co561 2.194 . S
N581 C576 1.328 . S
N581 C580 1.315 . S
H582 C576 0.929 . S
H583 C580 0.930 . S
H584 C572 0.929 . S
H585 C574 0.929 . S
O586 Co561 2.351 . S
O586 C589 1.244 . S
O587 Co561 2.155 . S
O587 C589 1.240 . S
O588 Co561 2.096 . S
O588 C569 1.247 . S
C589 O586 1.244 . S
C589 O587 1.240 . S
H590 C564 0.931 . S
H591 C573 0.931 . S
H592 C577 0.929 . S
H593 C579 0.930 . S
Co594 N598 2.148 . S
Co594 N604 2.128 . S
Co594 N614 2.194 . S
Co594 O619 2.351 . S
Co594 O620 2.155 . S
Co594 O621 2.096 . S
C595 N598 1.301 . S
C595 N599 1.328 . S
C595 H600 0.930 . S
C596 C597 1.333 . S
C596 N598 1.317 . S
C596 H601 0.930 . S
C597 C596 1.333 . S
C597 N599 1.350 . S
C597 H623 0.931 . S
N598 Co594 2.148 . S
N598 C595 1.301 . S
N598 C596 1.317 . S
N599 C595 1.328 . S
N599 C597 1.350 . S
H600 C595 0.930 . S
H601 C596 0.930 . S
C602 O603 1.224 . S
C602 O621 1.247 . S
O603 C602 1.224 . S
N604 Co594 2.128 . S
N604 C605 1.355 . S
N604 C607 1.311 . S
C605 N604 1.355 . S
C605 C606 1.363 . S
C605 H617 0.929 . S
C606 C605 1.363 . S
C606 N608 1.375 . S
C606 H624 0.931 . S
C607 N604 1.311 . S
C607 N608 1.347 . S
C607 H618 0.929 . S
N608 C606 1.375 . S
N608 C607 1.347 . S
C609 C612 1.365 . S
C609 N614 1.328 . S
C609 H615 0.929 . S
C610 C611 1.362 . S
C610 C613 1.378 . S
C610 H625 0.929 . S
C611 C610 1.362 . S
C611 C612 1.366 . S
C612 C609 1.365 . S
C612 C611 1.366 . S
C612 H626 0.930 . S
C613 C610 1.378 . S
C613 N614 1.315 . S
C613 H616 0.930 . S
N614 Co594 2.194 . S
N614 C609 1.328 . S
N614 C613 1.315 . S
H615 C609 0.929 . S
H616 C613 0.930 . S
H617 C605 0.929 . S
H618 C607 0.929 . S
O619 Co594 2.351 . S
O619 C622 1.244 . S
O620 Co594 2.155 . S
O620 C622 1.240 . S
O621 Co594 2.096 . S
O621 C602 1.247 . S
C622 O619 1.244 . S
C622 O620 1.240 . S
H623 C597 0.931 . S
H624 C606 0.931 . S
H625 C610 0.929 . S
H626 C612 0.930 . S
Co627 N631 2.148 . S
Co627 N637 2.128 . S
Co627 N647 2.194 . S
Co627 O652 2.351 . S
Co627 O653 2.155 . S
Co627 O654 2.096 . S
C628 N631 1.301 . S
C628 N632 1.328 . S
C628 H633 0.930 . S
C629 C630 1.333 . S
C629 N631 1.317 . S
C629 H634 0.930 . S
C630 C629 1.333 . S
C630 N632 1.350 . S
C630 H656 0.931 . S
N631 Co627 2.148 . S
N631 C628 1.301 . S
N631 C629 1.317 . S
N632 C628 1.328 . S
N632 C630 1.350 . S
H633 C628 0.930 . S
H634 C629 0.930 . S
C635 O636 1.224 . S
C635 O654 1.247 . S
O636 C635 1.224 . S
N637 Co627 2.128 . S
N637 C638 1.355 . S
N637 C640 1.311 . S
C638 N637 1.355 . S
C638 C639 1.363 . S
C638 H650 0.929 . S
C639 C638 1.363 . S
C639 N641 1.375 . S
C639 H657 0.931 . S
C640 N637 1.311 . S
C640 N641 1.347 . S
C640 H651 0.929 . S
N641 C639 1.375 . S
N641 C640 1.347 . S
C642 C645 1.365 . S
C642 N647 1.328 . S
C642 H648 0.929 . S
C643 C644 1.362 . S
C643 C646 1.378 . S
C643 H658 0.929 . S
C644 C643 1.362 . S
C644 C645 1.366 . S
C645 C642 1.365 . S
C645 C644 1.366 . S
C645 H659 0.930 . S
C646 C643 1.378 . S
C646 N647 1.315 . S
C646 H649 0.930 . S
N647 Co627 2.194 . S
N647 C642 1.328 . S
N647 C646 1.315 . S
H648 C642 0.929 . S
H649 C646 0.930 . S
H650 C638 0.929 . S
H651 C640 0.929 . S
O652 Co627 2.351 . S
O652 C655 1.244 . S
O653 Co627 2.155 . S
O653 C655 1.240 . S
O654 Co627 2.096 . S
O654 C635 1.247 . S
C655 O652 1.244 . S
C655 O653 1.240 . S
H656 C630 0.931 . S
H657 C639 0.931 . S
H658 C643 0.929 . S
H659 C645 0.930 . S
Co660 N664 2.148 . S
Co660 N670 2.128 . S
Co660 N680 2.194 . S
Co660 O685 2.351 . S
Co660 O686 2.155 . S
Co660 O687 2.096 . S
C661 N664 1.301 . S
C661 N665 1.328 . S
C661 H666 0.930 . S
C662 C663 1.333 . S
C662 N664 1.317 . S
C662 H667 0.930 . S
C663 C662 1.333 . S
C663 N665 1.350 . S
C663 H689 0.931 . S
N664 Co660 2.148 . S
N664 C661 1.301 . S
N664 C662 1.317 . S
N665 C661 1.328 . S
N665 C663 1.350 . S
H666 C661 0.930 . S
H667 C662 0.930 . S
C668 O669 1.224 . S
C668 O687 1.247 . S
O669 C668 1.224 . S
N670 Co660 2.128 . S
N670 C671 1.355 . S
N670 C673 1.311 . S
C671 N670 1.355 . S
C671 C672 1.363 . S
C671 H683 0.929 . S
C672 C671 1.363 . S
C672 N674 1.375 . S
C672 H690 0.931 . S
C673 N670 1.311 . S
C673 N674 1.347 . S
C673 H684 0.929 . S
N674 C672 1.375 . S
N674 C673 1.347 . S
C675 C678 1.365 . S
C675 N680 1.328 . S
C675 H681 0.929 . S
C676 C677 1.362 . S
C676 C679 1.378 . S
C676 H691 0.929 . S
C677 C676 1.362 . S
C677 C678 1.366 . S
C678 C675 1.365 . S
C678 C677 1.366 . S
C678 H692 0.930 . S
C679 C676 1.378 . S
C679 N680 1.315 . S
C679 H682 0.930 . S
N680 Co660 2.194 . S
N680 C675 1.328 . S
N680 C679 1.315 . S
H681 C675 0.929 . S
H682 C679 0.930 . S
H683 C671 0.929 . S
H684 C673 0.929 . S
O685 Co660 2.351 . S
O685 C688 1.244 . S
O686 Co660 2.155 . S
O686 C688 1.240 . S
O687 Co660 2.096 . S
O687 C668 1.247 . S
C688 O685 1.244 . S
C688 O686 1.240 . S
H689 C663 0.931 . S
H690 C672 0.931 . S
H691 C676 0.929 . S
H692 C678 0.930 . S
Co693 N697 2.148 . S
Co693 N703 2.128 . S
Co693 N713 2.194 . S
Co693 O718 2.351 . S
Co693 O719 2.155 . S
Co693 O720 2.096 . S
C694 N697 1.301 . S
C694 N698 1.328 . S
C694 H699 0.930 . S
C695 C696 1.333 . S
C695 N697 1.317 . S
C695 H700 0.930 . S
C696 C695 1.333 . S
C696 N698 1.350 . S
C696 H722 0.931 . S
N697 Co693 2.148 . S
N697 C694 1.301 . S
N697 C695 1.317 . S
N698 C694 1.328 . S
N698 C696 1.350 . S
H699 C694 0.930 . S
H700 C695 0.930 . S
C701 O702 1.224 . S
C701 O720 1.247 . S
O702 C701 1.224 . S
N703 Co693 2.128 . S
N703 C704 1.355 . S
N703 C706 1.311 . S
C704 N703 1.355 . S
C704 C705 1.363 . S
C704 H716 0.929 . S
C705 C704 1.363 . S
C705 N707 1.375 . S
C705 H723 0.931 . S
C706 N703 1.311 . S
C706 N707 1.347 . S
C706 H717 0.929 . S
N707 C705 1.375 . S
N707 C706 1.347 . S
C708 C711 1.365 . S
C708 N713 1.328 . S
C708 H714 0.929 . S
C709 C710 1.362 . S
C709 C712 1.378 . S
C709 H724 0.929 . S
C710 C709 1.362 . S
C710 C711 1.366 . S
C711 C708 1.365 . S
C711 C710 1.366 . S
C711 H725 0.930 . S
C712 C709 1.378 . S
C712 N713 1.315 . S
C712 H715 0.930 . S
N713 Co693 2.194 . S
N713 C708 1.328 . S
N713 C712 1.315 . S
H714 C708 0.929 . S
H715 C712 0.930 . S
H716 C704 0.929 . S
H717 C706 0.929 . S
O718 Co693 2.351 . S
O718 C721 1.244 . S
O719 Co693 2.155 . S
O719 C721 1.240 . S
O720 Co693 2.096 . S
O720 C701 1.247 . S
C721 O718 1.244 . S
C721 O719 1.240 . S
H722 C696 0.931 . S
H723 C705 0.931 . S
H724 C709 0.929 . S
H725 C711 0.930 . S
Co726 N730 2.148 . S
Co726 N736 2.128 . S
Co726 N746 2.194 . S
Co726 O751 2.351 . S
Co726 O752 2.155 . S
Co726 O753 2.096 . S
C727 N730 1.301 . S
C727 N731 1.328 . S
C727 H732 0.930 . S
C728 C729 1.333 . S
C728 N730 1.317 . S
C728 H733 0.930 . S
C729 C728 1.333 . S
C729 N731 1.350 . S
C729 H755 0.931 . S
N730 Co726 2.148 . S
N730 C727 1.301 . S
N730 C728 1.317 . S
N731 C727 1.328 . S
N731 C729 1.350 . S
H732 C727 0.930 . S
H733 C728 0.930 . S
C734 O735 1.224 . S
C734 O753 1.247 . S
O735 C734 1.224 . S
N736 Co726 2.128 . S
N736 C737 1.355 . S
N736 C739 1.311 . S
C737 N736 1.355 . S
C737 C738 1.363 . S
C737 H749 0.929 . S
C738 C737 1.363 . S
C738 N740 1.375 . S
C738 H756 0.931 . S
C739 N736 1.311 . S
C739 N740 1.347 . S
C739 H750 0.929 . S
N740 C738 1.375 . S
N740 C739 1.347 . S
C741 C744 1.365 . S
C741 N746 1.328 . S
C741 H747 0.929 . S
C742 C743 1.362 . S
C742 C745 1.378 . S
C742 H757 0.929 . S
C743 C742 1.362 . S
C743 C744 1.366 . S
C744 C741 1.365 . S
C744 C743 1.366 . S
C744 H758 0.930 . S
C745 C742 1.378 . S
C745 N746 1.315 . S
C745 H748 0.930 . S
N746 Co726 2.194 . S
N746 C741 1.328 . S
N746 C745 1.315 . S
H747 C741 0.929 . S
H748 C745 0.930 . S
H749 C737 0.929 . S
H750 C739 0.929 . S
O751 Co726 2.351 . S
O751 C754 1.244 . S
O752 Co726 2.155 . S
O752 C754 1.240 . S
O753 Co726 2.096 . S
O753 C734 1.247 . S
C754 O751 1.244 . S
C754 O752 1.240 . S
H755 C729 0.931 . S
H756 C738 0.931 . S
H757 C742 0.929 . S
H758 C744 0.930 . S
Co759 N763 2.148 . S
Co759 N769 2.128 . S
Co759 N779 2.194 . S
Co759 O784 2.351 . S
Co759 O785 2.155 . S
Co759 O786 2.096 . S
C760 N763 1.301 . S
C760 N764 1.328 . S
C760 H765 0.930 . S
C761 C762 1.333 . S
C761 N763 1.317 . S
C761 H766 0.930 . S
C762 C761 1.333 . S
C762 N764 1.350 . S
C762 H788 0.931 . S
N763 Co759 2.148 . S
N763 C760 1.301 . S
N763 C761 1.317 . S
N764 C760 1.328 . S
N764 C762 1.350 . S
H765 C760 0.930 . S
H766 C761 0.930 . S
C767 O768 1.224 . S
C767 O786 1.247 . S
O768 C767 1.224 . S
N769 Co759 2.128 . S
N769 C770 1.355 . S
N769 C772 1.311 . S
C770 N769 1.355 . S
C770 C771 1.363 . S
C770 H782 0.929 . S
C771 C770 1.363 . S
C771 N773 1.375 . S
C771 H789 0.931 . S
C772 N769 1.311 . S
C772 N773 1.347 . S
C772 H783 0.929 . S
N773 C771 1.375 . S
N773 C772 1.347 . S
C774 C777 1.365 . S
C774 N779 1.328 . S
C774 H780 0.929 . S
C775 C776 1.362 . S
C775 C778 1.378 . S
C775 H790 0.929 . S
C776 C775 1.362 . S
C776 C777 1.366 . S
C777 C774 1.365 . S
C777 C776 1.366 . S
C777 H791 0.930 . S
C778 C775 1.378 . S
C778 N779 1.315 . S
C778 H781 0.930 . S
N779 Co759 2.194 . S
N779 C774 1.328 . S
N779 C778 1.315 . S
H780 C774 0.929 . S
H781 C778 0.930 . S
H782 C770 0.929 . S
H783 C772 0.929 . S
O784 Co759 2.351 . S
O784 C787 1.244 . S
O785 Co759 2.155 . S
O785 C787 1.240 . S
O786 Co759 2.096 . S
O786 C767 1.247 . S
C787 O784 1.244 . S
C787 O785 1.240 . S
H788 C762 0.931 . S
H789 C771 0.931 . S
H790 C775 0.929 . S
H791 C777 0.930 . S
Co792 N796 2.148 . S
Co792 N802 2.128 . S
Co792 N812 2.194 . S
Co792 O817 2.351 . S
Co792 O818 2.155 . S
Co792 O819 2.096 . S
C793 N796 1.301 . S
C793 N797 1.328 . S
C793 H798 0.930 . S
C794 C795 1.333 . S
C794 N796 1.317 . S
C794 H799 0.930 . S
C795 C794 1.333 . S
C795 N797 1.350 . S
C795 H821 0.931 . S
N796 Co792 2.148 . S
N796 C793 1.301 . S
N796 C794 1.317 . S
N797 C793 1.328 . S
N797 C795 1.350 . S
H798 C793 0.930 . S
H799 C794 0.930 . S
C800 O801 1.224 . S
C800 O819 1.247 . S
O801 C800 1.224 . S
N802 Co792 2.128 . S
N802 C803 1.355 . S
N802 C805 1.311 . S
C803 N802 1.355 . S
C803 C804 1.363 . S
C803 H815 0.929 . S
C804 C803 1.363 . S
C804 N806 1.375 . S
C804 H822 0.931 . S
C805 N802 1.311 . S
C805 N806 1.347 . S
C805 H816 0.929 . S
N806 C804 1.375 . S
N806 C805 1.347 . S
C807 C810 1.365 . S
C807 N812 1.328 . S
C807 H813 0.929 . S
C808 C809 1.362 . S
C808 C811 1.378 . S
C808 H823 0.929 . S
C809 C808 1.362 . S
C809 C810 1.366 . S
C810 C807 1.365 . S
C810 C809 1.366 . S
C810 H824 0.930 . S
C811 C808 1.378 . S
C811 N812 1.315 . S
C811 H814 0.930 . S
N812 Co792 2.194 . S
N812 C807 1.328 . S
N812 C811 1.315 . S
H813 C807 0.929 . S
H814 C811 0.930 . S
H815 C803 0.929 . S
H816 C805 0.929 . S
O817 Co792 2.351 . S
O817 C820 1.244 . S
O818 Co792 2.155 . S
O818 C820 1.240 . S
O819 Co792 2.096 . S
O819 C800 1.247 . S
C820 O817 1.244 . S
C820 O818 1.240 . S
H821 C795 0.931 . S
H822 C804 0.931 . S
H823 C808 0.929 . S
H824 C810 0.930 . S
Co825 N829 2.148 . S
Co825 N835 2.128 . S
Co825 N845 2.194 . S
Co825 O850 2.351 . S
Co825 O851 2.155 . S
Co825 O852 2.096 . S
C826 N829 1.301 . S
C826 N830 1.328 . S
C826 H831 0.930 . S
C827 C828 1.333 . S
C827 N829 1.317 . S
C827 H832 0.930 . S
C828 C827 1.333 . S
C828 N830 1.350 . S
C828 H854 0.931 . S
N829 Co825 2.148 . S
N829 C826 1.301 . S
N829 C827 1.317 . S
N830 C826 1.328 . S
N830 C828 1.350 . S
H831 C826 0.930 . S
H832 C827 0.930 . S
C833 O834 1.224 . S
C833 O852 1.247 . S
O834 C833 1.224 . S
N835 Co825 2.128 . S
N835 C836 1.355 . S
N835 C838 1.311 . S
C836 N835 1.355 . S
C836 C837 1.363 . S
C836 H848 0.929 . S
C837 C836 1.363 . S
C837 N839 1.375 . S
C837 H855 0.931 . S
C838 N835 1.311 . S
C838 N839 1.347 . S
C838 H849 0.929 . S
N839 C837 1.375 . S
N839 C838 1.347 . S
C840 C843 1.365 . S
C840 N845 1.328 . S
C840 H846 0.929 . S
C841 C842 1.362 . S
C841 C844 1.378 . S
C841 H856 0.929 . S
C842 C841 1.362 . S
C842 C843 1.366 . S
C843 C840 1.365 . S
C843 C842 1.366 . S
C843 H857 0.930 . S
C844 C841 1.378 . S
C844 N845 1.315 . S
C844 H847 0.930 . S
N845 Co825 2.194 . S
N845 C840 1.328 . S
N845 C844 1.315 . S
H846 C840 0.929 . S
H847 C844 0.930 . S
H848 C836 0.929 . S
H849 C838 0.929 . S
O850 Co825 2.351 . S
O850 C853 1.244 . S
O851 Co825 2.155 . S
O851 C853 1.240 . S
O852 Co825 2.096 . S
O852 C833 1.247 . S
C853 O850 1.244 . S
C853 O851 1.240 . S
H854 C828 0.931 . S
H855 C837 0.931 . S
H856 C841 0.929 . S
H857 C843 0.930 . S
Co858 N862 2.148 . S
Co858 N868 2.128 . S
Co858 N878 2.194 . S
Co858 O883 2.351 . S
Co858 O884 2.155 . S
Co858 O885 2.096 . S
C859 N862 1.301 . S
C859 N863 1.328 . S
C859 H864 0.930 . S
C860 C861 1.333 . S
C860 N862 1.317 . S
C860 H865 0.930 . S
C861 C860 1.333 . S
C861 N863 1.350 . S
C861 H887 0.931 . S
N862 Co858 2.148 . S
N862 C859 1.301 . S
N862 C860 1.317 . S
N863 C859 1.328 . S
N863 C861 1.350 . S
H864 C859 0.930 . S
H865 C860 0.930 . S
C866 O867 1.224 . S
C866 O885 1.247 . S
O867 C866 1.224 . S
N868 Co858 2.128 . S
N868 C869 1.355 . S
N868 C871 1.311 . S
C869 N868 1.355 . S
C869 C870 1.363 . S
C869 H881 0.929 . S
C870 C869 1.363 . S
C870 N872 1.375 . S
C870 H888 0.931 . S
C871 N868 1.311 . S
C871 N872 1.347 . S
C871 H882 0.929 . S
N872 C870 1.375 . S
N872 C871 1.347 . S
C873 C876 1.365 . S
C873 N878 1.328 . S
C873 H879 0.929 . S
C874 C875 1.362 . S
C874 C877 1.378 . S
C874 H889 0.929 . S
C875 C874 1.362 . S
C875 C876 1.366 . S
C876 C873 1.365 . S
C876 C875 1.366 . S
C876 H890 0.930 . S
C877 C874 1.378 . S
C877 N878 1.315 . S
C877 H880 0.930 . S
N878 Co858 2.194 . S
N878 C873 1.328 . S
N878 C877 1.315 . S
H879 C873 0.929 . S
H880 C877 0.930 . S
H881 C869 0.929 . S
H882 C871 0.929 . S
O883 Co858 2.351 . S
O883 C886 1.244 . S
O884 Co858 2.155 . S
O884 C886 1.240 . S
O885 Co858 2.096 . S
O885 C866 1.247 . S
C886 O883 1.244 . S
C886 O884 1.240 . S
H887 C861 0.931 . S
H888 C870 0.931 . S
H889 C874 0.929 . S
H890 C876 0.930 . S
Co891 N895 2.148 . S
Co891 N901 2.128 . S
Co891 N911 2.194 . S
Co891 O916 2.351 . S
Co891 O917 2.155 . S
Co891 O918 2.096 . S
C892 N895 1.301 . S
C892 N896 1.328 . S
C892 H897 0.930 . S
C893 C894 1.333 . S
C893 N895 1.317 . S
C893 H898 0.930 . S
C894 C893 1.333 . S
C894 N896 1.350 . S
C894 H920 0.931 . S
N895 Co891 2.148 . S
N895 C892 1.301 . S
N895 C893 1.317 . S
N896 C892 1.328 . S
N896 C894 1.350 . S
H897 C892 0.930 . S
H898 C893 0.930 . S
C899 O900 1.224 . S
C899 O918 1.247 . S
O900 C899 1.224 . S
N901 Co891 2.128 . S
N901 C902 1.355 . S
N901 C904 1.311 . S
C902 N901 1.355 . S
C902 C903 1.363 . S
C902 H914 0.929 . S
C903 C902 1.363 . S
C903 N905 1.375 . S
C903 H921 0.931 . S
C904 N901 1.311 . S
C904 N905 1.347 . S
C904 H915 0.929 . S
N905 C903 1.375 . S
N905 C904 1.347 . S
C906 C909 1.365 . S
C906 N911 1.328 . S
C906 H912 0.929 . S
C907 C908 1.362 . S
C907 C910 1.378 . S
C907 H922 0.929 . S
C908 C907 1.362 . S
C908 C909 1.366 . S
C909 C906 1.365 . S
C909 C908 1.366 . S
C909 H923 0.930 . S
C910 C907 1.378 . S
C910 N911 1.315 . S
C910 H913 0.930 . S
N911 Co891 2.194 . S
N911 C906 1.328 . S
N911 C910 1.315 . S
H912 C906 0.929 . S
H913 C910 0.930 . S
H914 C902 0.929 . S
H915 C904 0.929 . S
O916 Co891 2.351 . S
O916 C919 1.244 . S
O917 Co891 2.155 . S
O917 C919 1.240 . S
O918 Co891 2.096 . S
O918 C899 1.247 . S
C919 O916 1.244 . S
C919 O917 1.240 . S
H920 C894 0.931 . S
H921 C903 0.931 . S
H922 C907 0.929 . S
H923 C909 0.930 . S
Co924 N928 2.148 . S
Co924 N934 2.128 . S
Co924 N944 2.194 . S
Co924 O949 2.351 . S
Co924 O950 2.155 . S
Co924 O951 2.096 . S
C925 N928 1.301 . S
C925 N929 1.328 . S
C925 H930 0.930 . S
C926 C927 1.333 . S
C926 N928 1.317 . S
C926 H931 0.930 . S
C927 C926 1.333 . S
C927 N929 1.350 . S
C927 H953 0.931 . S
N928 Co924 2.148 . S
N928 C925 1.301 . S
N928 C926 1.317 . S
N929 C925 1.328 . S
N929 C927 1.350 . S
H930 C925 0.930 . S
H931 C926 0.930 . S
C932 O933 1.224 . S
C932 O951 1.247 . S
O933 C932 1.224 . S
N934 Co924 2.128 . S
N934 C935 1.355 . S
N934 C937 1.311 . S
C935 N934 1.355 . S
C935 C936 1.363 . S
C935 H947 0.929 . S
C936 C935 1.363 . S
C936 N938 1.375 . S
C936 H954 0.931 . S
C937 N934 1.311 . S
C937 N938 1.347 . S
C937 H948 0.929 . S
N938 C936 1.375 . S
N938 C937 1.347 . S
C939 C942 1.365 . S
C939 N944 1.328 . S
C939 H945 0.929 . S
C940 C941 1.362 . S
C940 C943 1.378 . S
C940 H955 0.929 . S
C941 C940 1.362 . S
C941 C942 1.366 . S
C942 C939 1.365 . S
C942 C941 1.366 . S
C942 H956 0.930 . S
C943 C940 1.378 . S
C943 N944 1.315 . S
C943 H946 0.930 . S
N944 Co924 2.194 . S
N944 C939 1.328 . S
N944 C943 1.315 . S
H945 C939 0.929 . S
H946 C943 0.930 . S
H947 C935 0.929 . S
H948 C937 0.929 . S
O949 Co924 2.351 . S
O949 C952 1.244 . S
O950 Co924 2.155 . S
O950 C952 1.240 . S
O951 Co924 2.096 . S
O951 C932 1.247 . S
C952 O949 1.244 . S
C952 O950 1.240 . S
H953 C927 0.931 . S
H954 C936 0.931 . S
H955 C940 0.929 . S
H956 C942 0.930 . S
Co957 N961 2.148 . S
Co957 N967 2.128 . S
Co957 N977 2.194 . S
Co957 O982 2.351 . S
Co957 O983 2.155 . S
Co957 O984 2.096 . S
C958 N961 1.301 . S
C958 N962 1.328 . S
C958 H963 0.930 . S
C959 C960 1.333 . S
C959 N961 1.317 . S
C959 H964 0.930 . S
C960 C959 1.333 . S
C960 N962 1.350 . S
C960 H986 0.931 . S
N961 Co957 2.148 . S
N961 C958 1.301 . S
N961 C959 1.317 . S
N962 C958 1.328 . S
N962 C960 1.350 . S
H963 C958 0.930 . S
H964 C959 0.930 . S
C965 O966 1.224 . S
C965 O984 1.247 . S
O966 C965 1.224 . S
N967 Co957 2.128 . S
N967 C968 1.355 . S
N967 C970 1.311 . S
C968 N967 1.355 . S
C968 C969 1.363 . S
C968 H980 0.929 . S
C969 C968 1.363 . S
C969 N971 1.375 . S
C969 H987 0.931 . S
C970 N967 1.311 . S
C970 N971 1.347 . S
C970 H981 0.929 . S
N971 C969 1.375 . S
N971 C970 1.347 . S
C972 C975 1.365 . S
C972 N977 1.328 . S
C972 H978 0.929 . S
C973 C974 1.362 . S
C973 C976 1.378 . S
C973 H988 0.929 . S
C974 C973 1.362 . S
C974 C975 1.366 . S
C975 C972 1.365 . S
C975 C974 1.366 . S
C975 H989 0.930 . S
C976 C973 1.378 . S
C976 N977 1.315 . S
C976 H979 0.930 . S
N977 Co957 2.194 . S
N977 C972 1.328 . S
N977 C976 1.315 . S
H978 C972 0.929 . S
H979 C976 0.930 . S
H980 C968 0.929 . S
H981 C970 0.929 . S
O982 Co957 2.351 . S
O982 C985 1.244 . S
O983 Co957 2.155 . S
O983 C985 1.240 . S
O984 Co957 2.096 . S
O984 C965 1.247 . S
C985 O982 1.244 . S
C985 O983 1.240 . S
H986 C960 0.931 . S
H987 C969 0.931 . S
H988 C973 0.929 . S
H989 C975 0.930 . S
Co990 N994 2.148 . S
Co990 N1000 2.128 . S
Co990 N1010 2.194 . S
Co990 O1015 2.351 . S
Co990 O1016 2.155 . S
Co990 O1017 2.096 . S
C991 N994 1.301 . S
C991 N995 1.328 . S
C991 H996 0.930 . S
C992 C993 1.333 . S
C992 N994 1.317 . S
C992 H997 0.930 . S
C993 C992 1.333 . S
C993 N995 1.350 . S
C993 H1019 0.931 . S
N994 Co990 2.148 . S
N994 C991 1.301 . S
N994 C992 1.317 . S
N995 C991 1.328 . S
N995 C993 1.350 . S
H996 C991 0.930 . S
H997 C992 0.930 . S
C998 O999 1.224 . S
C998 O1017 1.247 . S
O999 C998 1.224 . S
N1000 Co990 2.128 . S
N1000 C1001 1.355 . S
N1000 C1003 1.311 . S
C1001 N1000 1.355 . S
C1001 C1002 1.363 . S
C1001 H1013 0.929 . S
C1002 C1001 1.363 . S
C1002 N1004 1.375 . S
C1002 H1020 0.931 . S
C1003 N1000 1.311 . S
C1003 N1004 1.347 . S
C1003 H1014 0.929 . S
N1004 C1002 1.375 . S
N1004 C1003 1.347 . S
C1005 C1008 1.365 . S
C1005 N1010 1.328 . S
C1005 H1011 0.929 . S
C1006 C1007 1.362 . S
C1006 C1009 1.378 . S
C1006 H1021 0.929 . S
C1007 C1006 1.362 . S
C1007 C1008 1.366 . S
C1008 C1005 1.365 . S
C1008 C1007 1.366 . S
C1008 H1022 0.930 . S
C1009 C1006 1.378 . S
C1009 N1010 1.315 . S
C1009 H1012 0.930 . S
N1010 Co990 2.194 . S
N1010 C1005 1.328 . S
N1010 C1009 1.315 . S
H1011 C1005 0.929 . S
H1012 C1009 0.930 . S
H1013 C1001 0.929 . S
H1014 C1003 0.929 . S
O1015 Co990 2.351 . S
O1015 C1018 1.244 . S
O1016 Co990 2.155 . S
O1016 C1018 1.240 . S
O1017 Co990 2.096 . S
O1017 C998 1.247 . S
C1018 O1015 1.244 . S
C1018 O1016 1.240 . S
H1019 C993 0.931 . S
H1020 C1002 0.931 . S
H1021 C1006 0.929 . S
H1022 C1008 0.930 . S
Co1023 N1027 2.148 . S
Co1023 N1033 2.128 . S
Co1023 N1043 2.194 . S
Co1023 O1048 2.351 . S
Co1023 O1049 2.155 . S
Co1023 O1050 2.096 . S
C1024 N1027 1.301 . S
C1024 N1028 1.328 . S
C1024 H1029 0.930 . S
C1025 C1026 1.333 . S
C1025 N1027 1.317 . S
C1025 H1030 0.930 . S
C1026 C1025 1.333 . S
C1026 N1028 1.350 . S
C1026 H1052 0.931 . S
N1027 Co1023 2.148 . S
N1027 C1024 1.301 . S
N1027 C1025 1.317 . S
N1028 C1024 1.328 . S
N1028 C1026 1.350 . S
H1029 C1024 0.930 . S
H1030 C1025 0.930 . S
C1031 O1032 1.224 . S
C1031 O1050 1.247 . S
O1032 C1031 1.224 . S
N1033 Co1023 2.128 . S
N1033 C1034 1.355 . S
N1033 C1036 1.311 . S
C1034 N1033 1.355 . S
C1034 C1035 1.363 . S
C1034 H1046 0.929 . S
C1035 C1034 1.363 . S
C1035 N1037 1.375 . S
C1035 H1053 0.931 . S
C1036 N1033 1.311 . S
C1036 N1037 1.347 . S
C1036 H1047 0.929 . S
N1037 C1035 1.375 . S
N1037 C1036 1.347 . S
C1038 C1041 1.365 . S
C1038 N1043 1.328 . S
C1038 H1044 0.929 . S
C1039 C1040 1.362 . S
C1039 C1042 1.378 . S
C1039 H1054 0.929 . S
C1040 C1039 1.362 . S
C1040 C1041 1.366 . S
C1041 C1038 1.365 . S
C1041 C1040 1.366 . S
C1041 H1055 0.930 . S
C1042 C1039 1.378 . S
C1042 N1043 1.315 . S
C1042 H1045 0.930 . S
N1043 Co1023 2.194 . S
N1043 C1038 1.328 . S
N1043 C1042 1.315 . S
H1044 C1038 0.929 . S
H1045 C1042 0.930 . S
H1046 C1034 0.929 . S
H1047 C1036 0.929 . S
O1048 Co1023 2.351 . S
O1048 C1051 1.244 . S
O1049 Co1023 2.155 . S
O1049 C1051 1.240 . S
O1050 Co1023 2.096 . S
O1050 C1031 1.247 . S
C1051 O1048 1.244 . S
C1051 O1049 1.240 . S
H1052 C1026 0.931 . S
H1053 C1035 0.931 . S
H1054 C1039 0.929 . S
H1055 C1041 0.930 . S
C1056 C1057 1.349 . S
C1056 C1058 1.327 . S
C1056 H1081 0.950 . S
C1057 C1056 1.349 . S
C1057 C1073 1.349 . S
C1058 C1056 1.327 . S
C1058 C1077 1.429 . S
C1058 H1082 0.950 . S
C1059 C1076 1.574 . S
C1059 C1078 1.368 . S
C1059 H1083 0.949 . S
H1060 C1064 0.949 . S
C1061 C1062 1.349 . S
C1061 C1063 1.327 . S
C1061 H1084 0.950 . S
C1062 C1061 1.349 . S
C1062 C1074 1.349 . S
C1063 C1061 1.327 . S
C1063 C1079 1.429 . S
C1063 H1085 0.950 . S
C1064 H1060 0.949 . S
C1064 C1072 1.574 . S
C1064 C1080 1.368 . S
H1065 C1073 0.950 . S
H1066 C1071 0.950 . S
H1067 C1072 0.949 . S
H1068 C1074 0.950 . S
H1069 C1075 0.950 . S
H1070 C1076 0.949 . S
C1071 H1066 0.950 . S
C1071 C1073 1.327 . S
C1071 C1077 1.429 . S
C1072 C1064 1.574 . S
C1072 H1067 0.949 . S
C1072 C1078 1.368 . S
C1073 C1057 1.349 . S
C1073 H1065 0.950 . S
C1073 C1071 1.327 . S
C1074 C1062 1.349 . S
C1074 H1068 0.950 . S
C1074 C1075 1.327 . S
C1075 H1069 0.950 . S
C1075 C1074 1.327 . S
C1075 C1079 1.429 . S
C1076 C1059 1.574 . S
C1076 H1070 0.949 . S
C1076 C1080 1.368 . S
C1077 C1058 1.429 . S
C1077 C1071 1.429 . S
C1077 C1078 1.523 . S
C1078 C1059 1.368 . S
C1078 C1072 1.368 . S
C1078 C1077 1.523 . S
C1079 C1063 1.429 . S
C1079 C1075 1.429 . S
C1079 C1080 1.523 . S
C1080 C1064 1.368 . S
C1080 C1076 1.368 . S
C1080 C1079 1.523 . S
H1081 C1056 0.950 . S
H1082 C1058 0.950 . S
H1083 C1059 0.949 . S
H1084 C1061 0.950 . S
H1085 C1063 0.950 . S
C1086 C1087 1.349 . S
C1086 C1088 1.327 . S
C1086 H1111 0.950 . S
C1087 C1086 1.349 . S
C1087 C1103 1.349 . S
C1088 C1086 1.327 . S
C1088 C1107 1.429 . S
C1088 H1112 0.950 . S
C1089 C1106 1.574 . S
C1089 C1108 1.368 1_545 S
C1089 H1113 0.949 . S
H1090 C1094 0.949 . S
C1091 C1092 1.349 . S
C1091 C1093 1.327 . S
C1091 H1114 0.950 . S
C1092 C1091 1.349 . S
C1092 C1104 1.349 . S
C1093 C1091 1.327 . S
C1093 C1109 1.429 . S
C1093 H1115 0.950 . S
C1094 H1090 0.949 . S
C1094 C1102 1.574 . S
C1094 C1110 1.368 1_565 S
H1095 C1103 0.915 1_545 S
H1096 C1101 0.898 1_545 S
H1097 C1102 0.949 . S
H1098 C1104 0.915 1_565 S
H1099 C1105 0.898 1_565 S
H1100 C1106 0.949 . S
C1101 H1096 0.898 1_565 S
C1101 C1103 1.347 . S
C1101 C1107 1.461 . S
C1102 C1094 1.574 . S
C1102 H1097 0.949 . S
C1102 C1108 1.368 1_655 S
C1103 C1087 1.349 . S
C1103 H1095 0.915 1_565 S
C1103 C1101 1.347 . S
C1104 C1092 1.349 . S
C1104 H1098 0.915 1_545 S
C1104 C1105 1.347 . S
C1105 H1099 0.898 1_545 S
C1105 C1104 1.347 . S
C1105 C1109 1.461 . S
C1106 C1089 1.574 . S
C1106 H1100 0.949 . S
C1106 C1110 1.368 1_455 S
C1107 C1088 1.429 . S
C1107 C1101 1.461 . S
C1107 C1108 1.523 . S
C1108 C1089 1.368 1_565 S
C1108 C1102 1.368 1_455 S
C1108 C1107 1.523 . S
C1109 C1093 1.429 . S
C1109 C1105 1.461 . S
C1109 C1110 1.523 . S
C1110 C1094 1.368 1_545 S
C1110 C1106 1.368 1_655 S
C1110 C1109 1.523 . S
H1111 C1086 0.950 . S
H1112 C1088 0.950 . S
H1113 C1089 0.949 . S
H1114 C1091 0.950 . S
H1115 C1093 0.950 . S
C1116 C1117 1.349 . S
C1116 C1118 1.327 . S
C1116 H1141 0.950 . S
C1117 C1116 1.349 . S
C1117 C1133 1.349 . S
C1118 C1116 1.327 . S
C1118 C1137 1.429 . S
C1118 H1142 0.950 . S
C1119 C1136 1.574 . S
C1119 C1138 1.368 . S
C1119 H1143 0.949 . S
H1120 C1124 0.949 . S
C1121 C1122 1.349 . S
C1121 C1123 1.327 . S
C1121 H1144 0.950 . S
C1122 C1121 1.349 . S
C1122 C1134 1.349 . S
C1123 C1121 1.327 . S
C1123 C1139 1.429 . S
C1123 H1145 0.950 . S
C1124 H1120 0.949 . S
C1124 C1132 1.574 . S
C1124 C1140 1.368 . S
H1125 C1133 0.950 . S
H1126 C1131 0.950 . S
H1127 C1132 0.949 . S
H1128 C1134 0.950 . S
H1129 C1135 0.950 . S
H1130 C1136 0.949 . S
C1131 H1126 0.950 . S
C1131 C1133 1.327 . S
C1131 C1137 1.429 . S
C1132 C1124 1.574 . S
C1132 H1127 0.949 . S
C1132 C1138 1.368 . S
C1133 C1117 1.349 . S
C1133 H1125 0.950 . S
C1133 C1131 1.327 . S
C1134 C1122 1.349 . S
C1134 H1128 0.950 . S
C1134 C1135 1.327 . S
C1135 H1129 0.950 . S
C1135 C1134 1.327 . S
C1135 C1139 1.429 . S
C1136 C1119 1.574 . S
C1136 H1130 0.949 . S
C1136 C1140 1.368 . S
C1137 C1118 1.429 . S
C1137 C1131 1.429 . S
C1137 C1138 1.523 . S
C1138 C1119 1.368 . S
C1138 C1132 1.368 . S
C1138 C1137 1.523 . S
C1139 C1123 1.429 . S
C1139 C1135 1.429 . S
C1139 C1140 1.523 . S
C1140 C1124 1.368 . S
C1140 C1136 1.368 . S
C1140 C1139 1.523 . S
H1141 C1116 0.950 . S
H1142 C1118 0.950 . S
H1143 C1119 0.949 . S
H1144 C1121 0.950 . S
H1145 C1123 0.950 . S
C1146 C1147 1.349 . S
C1146 C1148 1.327 . S
C1146 H1171 0.950 . S
C1147 C1146 1.349 . S
C1147 C1163 1.349 . S
C1148 C1146 1.327 . S
C1148 C1167 1.429 . S
C1148 H1172 0.950 1_545 S
C1149 C1166 1.574 1_554 S
C1149 C1168 1.368 . S
C1149 H1173 0.949 . S
H1150 C1154 0.949 . S
C1151 C1152 1.349 . S
C1151 C1153 1.327 . S
C1151 H1174 0.950 . S
C1152 C1151 1.349 . S
C1152 C1164 1.349 . S
C1153 C1151 1.327 . S
C1153 C1169 1.429 . S
C1153 H1175 0.950 1_565 S
C1154 H1150 0.949 . S
C1154 C1162 1.574 1_556 S
C1154 C1170 1.368 . S
H1155 C1163 0.950 . S
H1156 C1161 0.950 . S
H1157 C1162 0.949 . S
H1158 C1164 0.950 . S
H1159 C1165 0.950 . S
H1160 C1166 0.949 . S
C1161 H1156 0.950 . S
C1161 C1163 1.327 . S
C1161 C1167 1.429 . S
C1162 C1154 1.574 1_554 S
C1162 H1157 0.949 . S
C1162 C1168 1.368 1_565 S
C1163 C1147 1.349 . S
C1163 H1155 0.950 . S
C1163 C1161 1.327 . S
C1164 C1152 1.349 . S
C1164 H1158 0.950 . S
C1164 C1165 1.327 . S
C1165 H1159 0.950 . S
C1165 C1164 1.327 . S
C1165 C1169 1.429 . S
C1166 C1149 1.574 1_556 S
C1166 H1160 0.949 . S
C1166 C1170 1.368 1_545 S
C1167 C1148 1.429 . S
C1167 C1161 1.429 . S
C1167 C1168 1.523 . S
C1168 C1149 1.368 . S
C1168 C1162 1.368 1_545 S
C1168 C1167 1.523 . S
C1169 C1153 1.429 . S
C1169 C1165 1.429 . S
C1169 C1170 1.523 . S
C1170 C1154 1.368 . S
C1170 C1166 1.368 1_565 S
C1170 C1169 1.523 . S
H1171 C1146 0.950 . S
H1172 C1148 0.950 1_565 S
H1173 C1149 0.949 . S
H1174 C1151 0.950 . S
H1175 C1153 0.950 1_545 S
C1176 C1177 1.349 . S
C1176 C1178 1.327 . S
C1176 H1201 0.950 . S
C1177 C1176 1.349 . S
C1177 C1193 1.349 . S
C1178 C1176 1.327 . S
C1178 C1197 1.429 . S
C1178 H1202 0.950 . S
C1179 C1196 1.574 . S
C1179 C1198 1.368 . S
C1179 H1203 0.949 . S
H1180 C1184 0.949 . S
C1181 C1182 1.349 . S
C1181 C1183 1.327 . S
C1181 H1204 0.950 . S
C1182 C1181 1.349 . S
C1182 C1194 1.349 . S
C1183 C1181 1.327 . S
C1183 C1199 1.429 . S
C1183 H1205 0.950 . S
C1184 H1180 0.949 . S
C1184 C1192 1.574 . S
C1184 C1200 1.368 . S
H1185 C1193 0.950 . S
H1186 C1191 0.950 . S
H1187 C1192 0.949 . S
H1188 C1194 0.950 . S
H1189 C1195 0.950 . S
H1190 C1196 0.949 . S
C1191 H1186 0.950 . S
C1191 C1193 1.327 . S
C1191 C1197 1.429 . S
C1192 C1184 1.574 . S
C1192 H1187 0.949 . S
C1192 C1198 1.368 . S
C1193 C1177 1.349 . S
C1193 H1185 0.950 . S
C1193 C1191 1.327 . S
C1194 C1182 1.349 . S
C1194 H1188 0.950 . S
C1194 C1195 1.327 . S
C1195 H1189 0.950 . S
C1195 C1194 1.327 . S
C1195 C1199 1.429 . S
C1196 C1179 1.574 . S
C1196 H1190 0.949 . S
C1196 C1200 1.368 . S
C1197 C1178 1.429 . S
C1197 C1191 1.429 . S
C1197 C1198 1.523 . S
C1198 C1179 1.368 . S
C1198 C1192 1.368 . S
C1198 C1197 1.523 . S
C1199 C1183 1.429 . S
C1199 C1195 1.429 . S
C1199 C1200 1.523 . S
C1200 C1184 1.368 . S
C1200 C1196 1.368 . S
C1200 C1199 1.523 . S
H1201 C1176 0.950 . S
H1202 C1178 0.950 . S
H1203 C1179 0.949 . S
H1204 C1181 0.950 . S
H1205 C1183 0.950 . S
C1206 C1207 1.349 . S
C1206 C1208 1.327 . S
C1206 H1231 0.950 . S
C1207 C1206 1.349 . S
C1207 C1223 1.349 . S
C1208 C1206 1.327 . S
C1208 C1227 1.429 . S
C1208 H1232 0.950 . S
C1209 C1226 1.574 . S
C1209 C1228 1.368 1_545 S
C1209 H1233 0.949 . S
H1210 C1214 0.949 . S
C1211 C1212 1.349 . S
C1211 C1213 1.327 . S
C1211 H1234 0.950 . S
C1212 C1211 1.349 . S
C1212 C1224 1.349 . S
C1213 C1211 1.327 . S
C1213 C1229 1.429 . S
C1213 H1235 0.950 . S
C1214 H1210 0.949 . S
C1214 C1222 1.574 . S
C1214 C1230 1.368 1_565 S
H1215 C1223 0.950 1_545 S
H1216 C1221 0.920 1_545 S
H1217 C1222 0.949 . S
H1218 C1224 0.950 1_565 S
H1219 C1225 0.920 1_565 S
H1220 C1226 0.949 . S
C1221 H1216 0.920 1_565 S
C1221 C1223 1.338 . S
C1221 C1227 1.447 . S
C1222 C1214 1.574 . S
C1222 H1217 0.949 . S
C1222 C1228 1.368 . S
C1223 C1207 1.349 . S
C1223 H1215 0.950 1_565 S
C1223 C1221 1.338 . S
C1224 C1212 1.349 . S
C1224 H1218 0.950 1_545 S
C1224 C1225 1.338 . S
C1225 H1219 0.920 1_545 S
C1225 C1224 1.338 . S
C1225 C1229 1.447 . S
C1226 C1209 1.574 . S
C1226 H1220 0.949 . S
C1226 C1230 1.368 . S
C1227 C1208 1.429 . S
C1227 C1221 1.447 . S
C1227 C1228 1.523 . S
C1228 C1209 1.368 1_565 S
C1228 C1222 1.368 . S
C1228 C1227 1.523 . S
C1229 C1213 1.429 . S
C1229 C1225 1.447 . S
C1229 C1230 1.523 . S
C1230 C1214 1.368 1_545 S
C1230 C1226 1.368 . S
C1230 C1229 1.523 . S
H1231 C1206 0.950 . S
H1232 C1208 0.950 . S
H1233 C1209 0.949 . S
H1234 C1211 0.950 . S
H1235 C1213 0.950 . S
C1236 C1237 1.349 . S
C1236 C1238 1.327 . S
C1236 H1261 0.950 . S
C1237 C1236 1.349 . S
C1237 C1253 1.349 . S
C1238 C1236 1.327 . S
C1238 C1257 1.429 . S
C1238 H1262 0.950 . S
C1239 C1256 1.574 . S
C1239 C1258 1.368 . S
C1239 H1263 0.949 . S
H1240 C1244 0.949 . S
C1241 C1242 1.349 . S
C1241 C1243 1.327 . S
C1241 H1264 0.950 . S
C1242 C1241 1.349 . S
C1242 C1254 1.349 . S
C1243 C1241 1.327 . S
C1243 C1259 1.429 . S
C1243 H1265 0.950 . S
C1244 H1240 0.949 . S
C1244 C1252 1.574 . S
C1244 C1260 1.368 . S
H1245 C1253 0.950 . S
H1246 C1251 0.950 . S
H1247 C1252 0.949 . S
H1248 C1254 0.950 . S
H1249 C1255 0.950 . S
H1250 C1256 0.949 . S
C1251 H1246 0.950 . S
C1251 C1253 1.327 . S
C1251 C1257 1.429 . S
C1252 C1244 1.574 . S
C1252 H1247 0.949 . S
C1252 C1258 1.368 . S
C1253 C1237 1.349 . S
C1253 H1245 0.950 . S
C1253 C1251 1.327 . S
C1254 C1242 1.349 . S
C1254 H1248 0.950 . S
C1254 C1255 1.327 . S
C1255 H1249 0.950 . S
C1255 C1254 1.327 . S
C1255 C1259 1.429 . S
C1256 C1239 1.574 . S
C1256 H1250 0.949 . S
C1256 C1260 1.368 . S
C1257 C1238 1.429 . S
C1257 C1251 1.429 . S
C1257 C1258 1.523 . S
C1258 C1239 1.368 . S
C1258 C1252 1.368 . S
C1258 C1257 1.523 . S
C1259 C1243 1.429 . S
C1259 C1255 1.429 . S
C1259 C1260 1.523 . S
C1260 C1244 1.368 . S
C1260 C1256 1.368 . S
C1260 C1259 1.523 . S
H1261 C1236 0.950 . S
H1262 C1238 0.950 . S
H1263 C1239 0.949 . S
H1264 C1241 0.950 . S
H1265 C1243 0.950 . S
C1266 C1267 1.349 . S
C1266 C1268 1.327 . S
C1266 H1291 0.950 . S
C1267 C1266 1.349 . S
C1267 C1283 1.349 . S
C1268 C1266 1.327 . S
C1268 C1287 1.429 . S
C1268 H1292 0.950 . S
C1269 C1286 1.572 1_556 S
C1269 C1288 1.368 1_565 S
C1269 H1293 0.949 . S
H1270 C1274 0.949 . S
C1271 C1272 1.349 . S
C1271 C1273 1.327 . S
C1271 H1294 0.950 . S
C1272 C1271 1.349 . S
C1272 C1284 1.349 . S
C1273 C1271 1.327 . S
C1273 C1289 1.429 . S
C1273 H1295 0.950 . S
C1274 H1270 0.949 . S
C1274 C1282 1.572 1_554 S
C1274 C1290 1.368 1_545 S
H1275 C1283 0.950 1_565 S
H1276 C1281 0.946 . S
H1277 C1282 0.949 1_455 S
H1278 C1284 0.950 1_545 S
H1279 C1285 0.946 . S
H1280 C1286 0.949 1_655 S
C1281 H1276 0.946 . S
C1281 C1283 1.328 1_565 S
C1281 C1287 1.431 1_565 S
C1282 C1274 1.572 1_556 S
C1282 H1277 0.949 1_655 S
C1282 C1288 1.370 1_655 S
C1283 C1267 1.349 . S
C1283 H1275 0.950 1_545 S
C1283 C1281 1.328 1_545 S
C1284 C1272 1.349 . S
C1284 H1278 0.950 1_565 S
C1284 C1285 1.328 1_565 S
C1285 H1279 0.946 . S
C1285 C1284 1.328 1_545 S
C1285 C1289 1.431 1_545 S
C1286 C1269 1.572 1_554 S
C1286 H1280 0.949 1_455 S
C1286 C1290 1.370 1_455 S
C1287 C1268 1.429 . S
C1287 C1281 1.431 1_545 S
C1287 C1288 1.523 . S
C1288 C1269 1.368 1_545 S
C1288 C1282 1.370 1_455 S
C1288 C1287 1.523 . S
C1289 C1273 1.429 . S
C1289 C1285 1.431 1_565 S
C1289 C1290 1.523 . S
C1290 C1274 1.368 1_565 S
C1290 C1286 1.370 1_655 S
C1290 C1289 1.523 . S
H1291 C1266 0.950 . S
H1292 C1268 0.950 . S
H1293 C1269 0.949 . S
H1294 C1271 0.950 . S
H1295 C1273 0.950 . S
C1296 C1297 1.349 . S
C1296 C1298 1.327 . S
C1296 H1321 0.950 . S
C1297 C1296 1.349 . S
C1297 C1313 1.349 . S
C1298 C1296 1.327 . S
C1298 C1317 1.429 . S
C1298 H1322 0.950 . S
C1299 C1316 1.574 . S
C1299 C1318 1.368 . S
C1299 H1323 0.949 . S
H1300 C1304 0.949 . S
C1301 C1302 1.349 . S
C1301 C1303 1.327 . S
C1301 H1324 0.950 . S
C1302 C1301 1.349 . S
C1302 C1314 1.349 . S
C1303 C1301 1.327 . S
C1303 C1319 1.429 . S
C1303 H1325 0.950 . S
C1304 H1300 0.949 . S
C1304 C1312 1.574 . S
C1304 C1320 1.368 . S
H1305 C1313 0.950 . S
H1306 C1311 0.950 . S
H1307 C1312 0.949 . S
H1308 C1314 0.950 . S
H1309 C1315 0.950 . S
H1310 C1316 0.949 . S
C1311 H1306 0.950 . S
C1311 C1313 1.327 . S
C1311 C1317 1.429 . S
C1312 C1304 1.574 . S
C1312 H1307 0.949 . S
C1312 C1318 1.368 . S
C1313 C1297 1.349 . S
C1313 H1305 0.950 . S
C1313 C1311 1.327 . S
C1314 C1302 1.349 . S
C1314 H1308 0.950 . S
C1314 C1315 1.327 . S
C1315 H1309 0.950 . S
C1315 C1314 1.327 . S
C1315 C1319 1.429 . S
C1316 C1299 1.574 . S
C1316 H1310 0.949 . S
C1316 C1320 1.368 . S
C1317 C1298 1.429 . S
C1317 C1311 1.429 . S
C1317 C1318 1.523 . S
C1318 C1299 1.368 . S
C1318 C1312 1.368 . S
C1318 C1317 1.523 . S
C1319 C1303 1.429 . S
C1319 C1315 1.429 . S
C1319 C1320 1.523 . S
C1320 C1304 1.368 . S
C1320 C1316 1.368 . S
C1320 C1319 1.523 . S
H1321 C1296 0.950 . S
H1322 C1298 0.950 . S
H1323 C1299 0.949 . S
H1324 C1301 0.950 . S
H1325 C1303 0.950 . S
C1326 C1327 1.349 . S
C1326 C1328 1.327 . S
C1326 H1351 0.950 . S
C1327 C1326 1.349 . S
C1327 C1343 1.349 . S
C1328 C1326 1.327 . S
C1328 C1347 1.429 . S
C1328 H1352 0.950 . S
C1329 C1346 1.574 . S
C1329 C1348 1.368 . S
C1329 H1353 0.949 . S
H1330 C1334 0.949 . S
C1331 C1332 1.349 . S
C1331 C1333 1.327 . S
C1331 H1354 0.950 . S
C1332 C1331 1.349 . S
C1332 C1344 1.349 . S
C1333 C1331 1.327 . S
C1333 C1349 1.429 . S
C1333 H1355 0.950 . S
C1334 H1330 0.949 . S
C1334 C1342 1.574 . S
C1334 C1350 1.368 . S
H1335 C1343 0.950 . S
H1336 C1341 0.950 . S
H1337 C1342 0.949 . S
H1338 C1344 0.950 . S
H1339 C1345 0.950 . S
H1340 C1346 0.949 . S
C1341 H1336 0.950 . S
C1341 C1343 1.327 . S
C1341 C1347 1.429 . S
C1342 C1334 1.574 . S
C1342 H1337 0.949 . S
C1342 C1348 1.368 . S
C1343 C1327 1.349 . S
C1343 H1335 0.950 . S
C1343 C1341 1.327 . S
C1344 C1332 1.349 . S
C1344 H1338 0.950 . S
C1344 C1345 1.327 . S
C1345 H1339 0.950 . S
C1345 C1344 1.327 . S
C1345 C1349 1.429 . S
C1346 C1329 1.574 . S
C1346 H1340 0.949 . S
C1346 C1350 1.368 . S
C1347 C1328 1.429 . S
C1347 C1341 1.429 . S
C1347 C1348 1.523 . S
C1348 C1329 1.368 . S
C1348 C1342 1.368 . S
C1348 C1347 1.523 . S
C1349 C1333 1.429 . S
C1349 C1345 1.429 . S
C1349 C1350 1.523 . S
C1350 C1334 1.368 . S
C1350 C1346 1.368 . S
C1350 C1349 1.523 . S
H1351 C1326 0.950 . S
H1352 C1328 0.950 . S
H1353 C1329 0.949 . S
H1354 C1331 0.950 . S
H1355 C1333 0.950 . S
C1356 C1357 1.349 . S
C1356 C1358 1.327 . S
C1356 H1381 0.950 . S
C1357 C1356 1.349 . S
C1357 C1373 1.349 . S
C1358 C1356 1.327 . S
C1358 C1377 1.429 . S
C1358 H1382 0.950 . S
C1359 C1376 1.574 . S
C1359 C1378 1.368 . S
C1359 H1383 0.949 . S
H1360 C1364 0.949 . S
C1361 C1362 1.349 . S
C1361 C1363 1.327 . S
C1361 H1384 0.950 . S
C1362 C1361 1.349 . S
C1362 C1374 1.349 . S
C1363 C1361 1.327 . S
C1363 C1379 1.429 . S
C1363 H1385 0.950 . S
C1364 H1360 0.949 . S
C1364 C1372 1.574 . S
C1364 C1380 1.368 . S
H1365 C1373 0.950 . S
H1366 C1371 0.950 . S
H1367 C1372 0.949 . S
H1368 C1374 0.950 . S
H1369 C1375 0.950 . S
H1370 C1376 0.949 . S
C1371 H1366 0.950 . S
C1371 C1373 1.327 . S
C1371 C1377 1.429 . S
C1372 C1364 1.574 . S
C1372 H1367 0.949 . S
C1372 C1378 1.368 . S
C1373 C1357 1.349 . S
C1373 H1365 0.950 . S
C1373 C1371 1.327 . S
C1374 C1362 1.349 . S
C1374 H1368 0.950 . S
C1374 C1375 1.327 . S
C1375 H1369 0.950 . S
C1375 C1374 1.327 . S
C1375 C1379 1.429 . S
C1376 C1359 1.574 . S
C1376 H1370 0.949 . S
C1376 C1380 1.368 . S
C1377 C1358 1.429 . S
C1377 C1371 1.429 . S
C1377 C1378 1.523 . S
C1378 C1359 1.368 . S
C1378 C1372 1.368 . S
C1378 C1377 1.523 . S
C1379 C1363 1.429 . S
C1379 C1375 1.429 . S
C1379 C1380 1.523 . S
C1380 C1364 1.368 . S
C1380 C1376 1.368 . S
C1380 C1379 1.523 . S
H1381 C1356 0.950 . S
H1382 C1358 0.950 . S
H1383 C1359 0.949 . S
H1384 C1361 0.950 . S
H1385 C1363 0.950 . S
C1386 C1387 1.349 . S
C1386 C1388 1.327 . S
C1386 H1411 0.950 . S
C1387 C1386 1.349 . S
C1387 C1403 1.349 . S
C1388 C1386 1.327 . S
C1388 C1407 1.429 . S
C1388 H1412 0.950 . S
C1389 C1406 1.574 . S
C1389 C1408 1.368 . S
C1389 H1413 0.949 . S
H1390 C1394 0.949 . S
C1391 C1392 1.349 . S
C1391 C1393 1.327 . S
C1391 H1414 0.950 . S
C1392 C1391 1.349 . S
C1392 C1404 1.349 . S
C1393 C1391 1.327 . S
C1393 C1409 1.429 . S
C1393 H1415 0.950 . S
C1394 H1390 0.949 . S
C1394 C1402 1.574 . S
C1394 C1410 1.368 . S
H1395 C1403 0.950 . S
H1396 C1401 0.950 . S
H1397 C1402 0.949 . S
H1398 C1404 0.950 . S
H1399 C1405 0.950 . S
H1400 C1406 0.949 . S
C1401 H1396 0.950 . S
C1401 C1403 1.327 . S
C1401 C1407 1.429 . S
C1402 C1394 1.574 . S
C1402 H1397 0.949 . S
C1402 C1408 1.368 . S
C1403 C1387 1.349 . S
C1403 H1395 0.950 . S
C1403 C1401 1.327 . S
C1404 C1392 1.349 . S
C1404 H1398 0.950 . S
C1404 C1405 1.327 . S
C1405 H1399 0.950 . S
C1405 C1404 1.327 . S
C1405 C1409 1.429 . S
C1406 C1389 1.574 . S
C1406 H1400 0.949 . S
C1406 C1410 1.368 . S
C1407 C1388 1.429 . S
C1407 C1401 1.429 . S
C1407 C1408 1.523 . S
C1408 C1389 1.368 . S
C1408 C1402 1.368 . S
C1408 C1407 1.523 . S
C1409 C1393 1.429 . S
C1409 C1405 1.429 . S
C1409 C1410 1.523 . S
C1410 C1394 1.368 . S
C1410 C1406 1.368 . S
C1410 C1409 1.523 . S
H1411 C1386 0.950 . S
H1412 C1388 0.950 . S
H1413 C1389 0.949 . S
H1414 C1391 0.950 . S
H1415 C1393 0.950 . S
C1416 C1417 1.349 . S
C1416 C1418 1.327 . S
C1416 H1441 0.950 . S
C1417 C1416 1.349 . S
C1417 C1433 1.349 . S
C1418 C1416 1.327 . S
C1418 C1437 1.429 . S
C1418 H1442 0.950 . S
C1419 C1436 1.574 1_556 S
C1419 C1438 1.368 . S
C1419 H1443 0.949 . S
H1420 C1424 0.949 . S
C1421 C1422 1.349 . S
C1421 C1423 1.327 . S
C1421 H1444 0.950 . S
C1422 C1421 1.349 . S
C1422 C1434 1.349 . S
C1423 C1421 1.327 . S
C1423 C1439 1.429 . S
C1423 H1445 0.950 . S
C1424 H1420 0.949 . S
C1424 C1432 1.574 1_554 S
C1424 C1440 1.368 . S
H1425 C1433 0.950 . S
H1426 C1431 0.950 . S
H1427 C1432 0.949 . S
H1428 C1434 0.950 . S
H1429 C1435 0.950 . S
H1430 C1436 0.949 . S
C1431 H1426 0.950 . S
C1431 C1433 1.327 . S
C1431 C1437 1.429 . S
C1432 C1424 1.574 1_556 S
C1432 H1427 0.949 . S
C1432 C1438 1.368 . S
C1433 C1417 1.349 . S
C1433 H1425 0.950 . S
C1433 C1431 1.327 . S
C1434 C1422 1.349 . S
C1434 H1428 0.950 . S
C1434 C1435 1.327 . S
C1435 H1429 0.950 . S
C1435 C1434 1.327 . S
C1435 C1439 1.429 . S
C1436 C1419 1.574 1_554 S
C1436 H1430 0.949 . S
C1436 C1440 1.368 . S
C1437 C1418 1.429 . S
C1437 C1431 1.429 . S
C1437 C1438 1.523 . S
C1438 C1419 1.368 . S
C1438 C1432 1.368 . S
C1438 C1437 1.523 . S
C1439 C1423 1.429 . S
C1439 C1435 1.429 . S
C1439 C1440 1.523 . S
C1440 C1424 1.368 . S
C1440 C1436 1.368 . S
C1440 C1439 1.523 . S
H1441 C1416 0.950 . S
H1442 C1418 0.950 . S
H1443 C1419 0.949 . S
H1444 C1421 0.950 . S
H1445 C1423 0.950 . S
C1446 C1447 1.349 . S
C1446 C1448 1.327 . S
C1446 H1471 0.950 . S
C1447 C1446 1.349 . S
C1447 C1463 1.349 . S
C1448 C1446 1.327 . S
C1448 C1467 1.429 . S
C1448 H1472 0.950 . S
C1449 C1466 1.574 . S
C1449 C1468 1.368 1_455 S
C1449 H1473 0.949 . S
H1450 C1454 0.949 . S
C1451 C1452 1.349 . S
C1451 C1453 1.327 . S
C1451 H1474 0.950 . S
C1452 C1451 1.349 . S
C1452 C1464 1.349 . S
C1453 C1451 1.327 . S
C1453 C1469 1.429 . S
C1453 H1475 0.950 . S
C1454 H1450 0.949 . S
C1454 C1462 1.574 . S
C1454 C1470 1.368 1_655 S
H1455 C1463 0.950 . S
H1456 C1461 0.950 . S
H1457 C1462 0.949 . S
H1458 C1464 0.950 . S
H1459 C1465 0.950 . S
H1460 C1466 0.949 . S
C1461 H1456 0.950 . S
C1461 C1463 1.327 . S
C1461 C1467 1.429 . S
C1462 C1454 1.574 . S
C1462 H1457 0.949 . S
C1462 C1468 1.368 . S
C1463 C1447 1.349 . S
C1463 H1455 0.950 . S
C1463 C1461 1.327 . S
C1464 C1452 1.349 . S
C1464 H1458 0.950 . S
C1464 C1465 1.327 . S
C1465 H1459 0.950 . S
C1465 C1464 1.327 . S
C1465 C1469 1.429 . S
C1466 C1449 1.574 . S
C1466 H1460 0.949 . S
C1466 C1470 1.368 . S
C1467 C1448 1.429 . S
C1467 C1461 1.429 . S
C1467 C1468 1.523 . S
C1468 C1449 1.368 1_655 S
C1468 C1462 1.368 . S
C1468 C1467 1.523 . S
C1469 C1453 1.429 . S
C1469 C1465 1.429 . S
C1469 C1470 1.523 . S
C1470 C1454 1.368 1_455 S
C1470 C1466 1.368 . S
C1470 C1469 1.523 . S
H1471 C1446 0.950 . S
H1472 C1448 0.950 . S
H1473 C1449 0.949 . S
H1474 C1451 0.950 . S
H1475 C1453 0.950 . S
C1476 C1477 1.349 . S
C1476 C1478 1.327 . S
C1476 H1501 0.950 . S
C1477 C1476 1.349 . S
C1477 C1493 1.349 . S
C1478 C1476 1.327 . S
C1478 C1497 1.429 . S
C1478 H1502 0.950 . S
C1479 C1496 1.574 . S
C1479 C1498 1.368 1_556 S
C1479 H1503 0.949 . S
H1480 C1484 0.949 . S
C1481 C1482 1.349 . S
C1481 C1483 1.327 . S
C1481 H1504 0.950 . S
C1482 C1481 1.349 . S
C1482 C1494 1.349 . S
C1483 C1481 1.327 . S
C1483 C1499 1.429 . S
C1483 H1505 0.950 . S
C1484 H1480 0.949 . S
C1484 C1492 1.574 . S
C1484 C1500 1.368 1_554 S
H1485 C1493 0.950 . S
H1486 C1491 0.950 . S
H1487 C1492 0.949 . S
H1488 C1494 0.950 . S
H1489 C1495 0.950 . S
H1490 C1496 0.949 . S
C1491 H1486 0.950 . S
C1491 C1493 1.327 . S
C1491 C1497 1.429 . S
C1492 C1484 1.574 . S
C1492 H1487 0.949 . S
C1492 C1498 1.368 1_655 S
C1493 C1477 1.349 . S
C1493 H1485 0.950 . S
C1493 C1491 1.327 . S
C1494 C1482 1.349 . S
C1494 H1488 0.950 . S
C1494 C1495 1.327 . S
C1495 H1489 0.950 . S
C1495 C1494 1.327 . S
C1495 C1499 1.429 . S
C1496 C1479 1.574 . S
C1496 H1490 0.949 . S
C1496 C1500 1.368 1_455 S
C1497 C1478 1.429 . S
C1497 C1491 1.429 . S
C1497 C1498 1.523 . S
C1498 C1479 1.368 1_554 S
C1498 C1492 1.368 1_455 S
C1498 C1497 1.523 . S
C1499 C1483 1.429 . S
C1499 C1495 1.429 . S
C1499 C1500 1.523 . S
C1500 C1484 1.368 1_556 S
C1500 C1496 1.368 1_655 S
C1500 C1499 1.523 . S
H1501 C1476 0.950 . S
H1502 C1478 0.950 . S
H1503 C1479 0.949 . S
H1504 C1481 0.950 . S
H1505 C1483 0.950 . S
C1506 C1507 1.349 . S
C1506 C1508 1.327 . S
C1506 H1531 0.950 . S
C1507 C1506 1.349 . S
C1507 C1523 1.349 . S
C1508 C1506 1.327 . S
C1508 C1527 1.429 . S
C1508 H1532 0.950 . S
C1509 C1526 1.574 . S
C1509 C1528 1.368 . S
C1509 H1533 0.949 . S
H1510 C1514 0.949 . S
C1511 C1512 1.349 . S
C1511 C1513 1.327 . S
C1511 H1534 0.950 . S
C1512 C1511 1.349 . S
C1512 C1524 1.349 . S
C1513 C1511 1.327 . S
C1513 C1529 1.429 . S
C1513 H1535 0.950 . S
C1514 H1510 0.949 . S
C1514 C1522 1.574 . S
C1514 C1530 1.368 . S
H1515 C1523 0.950 . S
H1516 C1521 0.950 . S
H1517 C1522 0.949 . S
H1518 C1524 0.950 . S
H1519 C1525 0.950 . S
H1520 C1526 0.949 . S
C1521 H1516 0.950 . S
C1521 C1523 1.327 . S
C1521 C1527 1.429 . S
C1522 C1514 1.574 . S
C1522 H1517 0.949 . S
C1522 C1528 1.368 . S
C1523 C1507 1.349 . S
C1523 H1515 0.950 . S
C1523 C1521 1.327 . S
C1524 C1512 1.349 . S
C1524 H1518 0.950 . S
C1524 C1525 1.327 . S
C1525 H1519 0.950 . S
C1525 C1524 1.327 . S
C1525 C1529 1.429 . S
C1526 C1509 1.574 . S
C1526 H1520 0.949 . S
C1526 C1530 1.368 . S
C1527 C1508 1.429 . S
C1527 C1521 1.429 . S
C1527 C1528 1.523 . S
C1528 C1509 1.368 . S
C1528 C1522 1.368 . S
C1528 C1527 1.523 . S
C1529 C1513 1.429 . S
C1529 C1525 1.429 . S
C1529 C1530 1.523 . S
C1530 C1514 1.368 . S
C1530 C1526 1.368 . S
C1530 C1529 1.523 . S
H1531 C1506 0.950 . S
H1532 C1508 0.950 . S
H1533 C1509 0.949 . S
H1534 C1511 0.950 . S
H1535 C1513 0.950 . S
C1536 C1537 1.349 . S
C1536 C1538 1.327 . S
C1536 H1561 0.950 . S
C1537 C1536 1.349 . S
C1537 C1553 1.349 . S
C1538 C1536 1.327 . S
C1538 C1557 1.429 . S
C1538 H1562 0.950 . S
C1539 C1556 1.574 . S
C1539 C1558 1.368 . S
C1539 H1563 0.949 . S
H1540 C1544 0.949 . S
C1541 C1542 1.349 . S
C1541 C1543 1.327 . S
C1541 H1564 0.950 . S
C1542 C1541 1.349 . S
C1542 C1554 1.349 . S
C1543 C1541 1.327 . S
C1543 C1559 1.429 . S
C1543 H1565 0.950 . S
C1544 H1540 0.949 . S
C1544 C1552 1.574 . S
C1544 C1560 1.368 . S
H1545 C1553 0.950 . S
H1546 C1551 0.950 . S
H1547 C1552 0.949 . S
H1548 C1554 0.950 . S
H1549 C1555 0.950 . S
H1550 C1556 0.949 . S
C1551 H1546 0.950 . S
C1551 C1553 1.327 . S
C1551 C1557 1.429 . S
C1552 C1544 1.574 . S
C1552 H1547 0.949 . S
C1552 C1558 1.368 . S
C1553 C1537 1.349 . S
C1553 H1545 0.950 . S
C1553 C1551 1.327 . S
C1554 C1542 1.349 . S
C1554 H1548 0.950 . S
C1554 C1555 1.327 . S
C1555 H1549 0.950 . S
C1555 C1554 1.327 . S
C1555 C1559 1.429 . S
C1556 C1539 1.574 . S
C1556 H1550 0.949 . S
C1556 C1560 1.368 . S
C1557 C1538 1.429 . S
C1557 C1551 1.429 . S
C1557 C1558 1.523 . S
C1558 C1539 1.368 . S
C1558 C1552 1.368 . S
C1558 C1557 1.523 . S
C1559 C1543 1.429 . S
C1559 C1555 1.429 . S
C1559 C1560 1.523 . S
C1560 C1544 1.368 . S
C1560 C1556 1.368 . S
C1560 C1559 1.523 . S
H1561 C1536 0.950 . S
H1562 C1538 0.950 . S
H1563 C1539 0.949 . S
H1564 C1541 0.950 . S
H1565 C1543 0.950 . S
C1566 C1567 1.349 1_455 S
C1566 C1568 1.327 . S
C1566 H1591 0.950 . S
C1567 C1566 1.349 1_655 S
C1567 C1583 1.349 1_655 S
C1568 C1566 1.327 . S
C1568 C1587 1.429 . S
C1568 H1592 0.950 . S
C1569 C1586 1.574 . S
C1569 C1588 1.368 . S
C1569 H1593 0.949 . S
H1570 C1574 0.949 . S
C1571 C1572 1.349 . S
C1571 C1573 1.327 . S
C1571 H1594 0.950 . S
C1572 C1571 1.349 . S
C1572 C1584 1.349 . S
C1573 C1571 1.327 . S
C1573 C1589 1.429 . S
C1573 H1595 0.950 . S
C1574 H1570 0.949 . S
C1574 C1582 1.574 . S
C1574 C1590 1.368 . S
H1575 C1583 0.950 1_655 S
H1576 C1581 0.950 . S
H1577 C1582 0.949 . S
H1578 C1584 0.950 . S
H1579 C1585 0.950 . S
H1580 C1586 0.949 . S
C1581 H1576 0.950 . S
C1581 C1583 1.327 . S
C1581 C1587 1.429 . S
C1582 C1574 1.574 . S
C1582 H1577 0.949 . S
C1582 C1588 1.368 . S
C1583 C1567 1.349 1_455 S
C1583 H1575 0.950 1_455 S
C1583 C1581 1.327 . S
C1584 C1572 1.349 . S
C1584 H1578 0.950 . S
C1584 C1585 1.327 . S
C1585 H1579 0.950 . S
C1585 C1584 1.327 . S
C1585 C1589 1.429 . S
C1586 C1569 1.574 . S
C1586 H1580 0.949 . S
C1586 C1590 1.368 . S
C1587 C1568 1.429 . S
C1587 C1581 1.429 . S
C1587 C1588 1.523 . S
C1588 C1569 1.368 . S
C1588 C1582 1.368 . S
C1588 C1587 1.523 . S
C1589 C1573 1.429 . S
C1589 C1585 1.429 . S
C1589 C1590 1.523 . S
C1590 C1574 1.368 . S
C1590 C1586 1.368 . S
C1590 C1589 1.523 . S
H1591 C1566 0.950 . S
H1592 C1568 0.950 . S
H1593 C1569 0.949 . S
H1594 C1571 0.950 . S
H1595 C1573 0.950 . S
C1596 C1597 1.349 . S
C1596 C1598 1.327 . S
C1596 H1621 0.950 . S
C1597 C1596 1.349 . S
C1597 C1613 1.349 . S
C1598 C1596 1.327 . S
C1598 C1617 1.429 . S
C1598 H1622 0.950 . S
C1599 C1616 1.574 . S
C1599 C1618 1.368 . S
C1599 H1623 0.949 . S
H1600 C1604 0.949 . S
C1601 C1602 1.349 . S
C1601 C1603 1.327 . S
C1601 H1624 0.950 . S
C1602 C1601 1.349 . S
C1602 C1614 1.349 . S
C1603 C1601 1.327 . S
C1603 C1619 1.429 . S
C1603 H1625 0.950 . S
C1604 H1600 0.949 . S
C1604 C1612 1.574 . S
C1604 C1620 1.368 . S
H1605 C1613 0.950 . S
H1606 C1611 0.950 . S
H1607 C1612 0.949 . S
H1608 C1614 0.950 . S
H1609 C1615 0.950 . S
H1610 C1616 0.949 . S
C1611 H1606 0.950 . S
C1611 C1613 1.327 . S
C1611 C1617 1.429 . S
C1612 C1604 1.574 . S
C1612 H1607 0.949 . S
C1612 C1618 1.368 . S
C1613 C1597 1.349 . S
C1613 H1605 0.950 . S
C1613 C1611 1.327 . S
C1614 C1602 1.349 . S
C1614 H1608 0.950 . S
C1614 C1615 1.327 . S
C1615 H1609 0.950 . S
C1615 C1614 1.327 . S
C1615 C1619 1.429 . S
C1616 C1599 1.574 . S
C1616 H1610 0.949 . S
C1616 C1620 1.368 . S
C1617 C1598 1.429 . S
C1617 C1611 1.429 . S
C1617 C1618 1.523 . S
C1618 C1599 1.368 . S
C1618 C1612 1.368 . S
C1618 C1617 1.523 . S
C1619 C1603 1.429 . S
C1619 C1615 1.429 . S
C1619 C1620 1.523 . S
C1620 C1604 1.368 . S
C1620 C1616 1.368 . S
C1620 C1619 1.523 . S
H1621 C1596 0.950 . S
H1622 C1598 0.950 . S
H1623 C1599 0.949 . S
H1624 C1601 0.950 . S
H1625 C1603 0.950 . S
C1626 C1627 1.349 . S
C1626 C1628 1.327 . S
C1626 H1651 0.950 . S
C1627 C1626 1.349 . S
C1627 C1643 1.349 . S
C1628 C1626 1.327 . S
C1628 C1647 1.429 . S
C1628 H1652 0.950 . S
C1629 C1646 1.574 . S
C1629 C1648 1.368 . S
C1629 H1653 0.949 . S
H1630 C1634 0.949 . S
C1631 C1632 1.349 . S
C1631 C1633 1.327 . S
C1631 H1654 0.950 . S
C1632 C1631 1.349 . S
C1632 C1644 1.349 . S
C1633 C1631 1.327 . S
C1633 C1649 1.429 . S
C1633 H1655 0.950 . S
C1634 H1630 0.949 . S
C1634 C1642 1.574 . S
C1634 C1650 1.368 . S
H1635 C1643 0.950 . S
H1636 C1641 0.950 . S
H1637 C1642 0.949 . S
H1638 C1644 0.950 . S
H1639 C1645 0.950 . S
H1640 C1646 0.949 . S
C1641 H1636 0.950 . S
C1641 C1643 1.327 . S
C1641 C1647 1.429 . S
C1642 C1634 1.574 . S
C1642 H1637 0.949 . S
C1642 C1648 1.368 . S
C1643 C1627 1.349 . S
C1643 H1635 0.950 . S
C1643 C1641 1.327 . S
C1644 C1632 1.349 . S
C1644 H1638 0.950 . S
C1644 C1645 1.327 . S
C1645 H1639 0.950 . S
C1645 C1644 1.327 . S
C1645 C1649 1.429 . S
C1646 C1629 1.574 . S
C1646 H1640 0.949 . S
C1646 C1650 1.368 . S
C1647 C1628 1.429 . S
C1647 C1641 1.429 . S
C1647 C1648 1.523 . S
C1648 C1629 1.368 . S
C1648 C1642 1.368 . S
C1648 C1647 1.523 . S
C1649 C1633 1.429 . S
C1649 C1645 1.429 . S
C1649 C1650 1.523 . S
C1650 C1634 1.368 . S
C1650 C1646 1.368 . S
C1650 C1649 1.523 . S
H1651 C1626 0.950 . S
H1652 C1628 0.950 . S
H1653 C1629 0.949 . S
H1654 C1631 0.950 . S
H1655 C1633 0.950 . S
C1656 C1657 1.349 . S
C1656 C1658 1.327 . S
C1656 H1681 0.950 . S
C1657 C1656 1.349 . S
C1657 C1673 1.349 . S
C1658 C1656 1.327 . S
C1658 C1677 1.429 . S
C1658 H1682 0.950 . S
C1659 C1676 1.574 . S
C1659 C1678 1.368 . S
C1659 H1683 0.949 . S
H1660 C1664 0.949 . S
C1661 C1662 1.349 . S
C1661 C1663 1.327 . S
C1661 H1684 0.950 . S
C1662 C1661 1.349 . S
C1662 C1674 1.349 . S
C1663 C1661 1.327 . S
C1663 C1679 1.429 . S
C1663 H1685 0.950 . S
C1664 H1660 0.949 . S
C1664 C1672 1.574 . S
C1664 C1680 1.368 . S
H1665 C1673 0.950 . S
H1666 C1671 0.950 . S
H1667 C1672 0.949 . S
H1668 C1674 0.950 . S
H1669 C1675 0.950 . S
H1670 C1676 0.949 . S
C1671 H1666 0.950 . S
C1671 C1673 1.327 . S
C1671 C1677 1.429 . S
C1672 C1664 1.574 . S
C1672 H1667 0.949 . S
C1672 C1678 1.368 . S
C1673 C1657 1.349 . S
C1673 H1665 0.950 . S
C1673 C1671 1.327 . S
C1674 C1662 1.349 . S
C1674 H1668 0.950 . S
C1674 C1675 1.327 . S
C1675 H1669 0.950 . S
C1675 C1674 1.327 . S
C1675 C1679 1.429 . S
C1676 C1659 1.574 . S
C1676 H1670 0.949 . S
C1676 C1680 1.368 . S
C1677 C1658 1.429 . S
C1677 C1671 1.429 . S
C1677 C1678 1.523 . S
C1678 C1659 1.368 . S
C1678 C1672 1.368 . S
C1678 C1677 1.523 . S
C1679 C1663 1.429 . S
C1679 C1675 1.429 . S
C1679 C1680 1.523 . S
C1680 C1664 1.368 . S
C1680 C1676 1.368 . S
C1680 C1679 1.523 . S
H1681 C1656 0.950 . S
H1682 C1658 0.950 . S
H1683 C1659 0.949 . S
H1684 C1661 0.950 . S
H1685 C1663 0.950 . S
C1686 C1687 1.349 . S
C1686 C1688 1.327 . S
C1686 H1711 0.950 . S
C1687 C1686 1.349 . S
C1687 C1703 1.349 . S
C1688 C1686 1.327 . S
C1688 C1707 1.429 . S
C1688 H1712 0.950 . S
C1689 C1706 1.574 . S
C1689 C1708 1.368 . S
C1689 H1713 0.949 . S
H1690 C1694 0.949 . S
C1691 C1692 1.349 . S
C1691 C1693 1.327 . S
C1691 H1714 0.950 . S
C1692 C1691 1.349 . S
C1692 C1704 1.349 . S
C1693 C1691 1.327 . S
C1693 C1709 1.429 . S
C1693 H1715 0.950 . S
C1694 H1690 0.949 . S
C1694 C1702 1.574 . S
C1694 C1710 1.368 . S
H1695 C1703 0.950 . S
H1696 C1701 0.950 . S
H1697 C1702 0.949 . S
H1698 C1704 0.950 . S
H1699 C1705 0.950 . S
H1700 C1706 0.949 . S
C1701 H1696 0.950 . S
C1701 C1703 1.327 . S
C1701 C1707 1.429 . S
C1702 C1694 1.574 . S
C1702 H1697 0.949 . S
C1702 C1708 1.368 . S
C1703 C1687 1.349 . S
C1703 H1695 0.950 . S
C1703 C1701 1.327 . S
C1704 C1692 1.349 . S
C1704 H1698 0.950 . S
C1704 C1705 1.327 . S
C1705 H1699 0.950 . S
C1705 C1704 1.327 . S
C1705 C1709 1.429 . S
C1706 C1689 1.574 . S
C1706 H1700 0.949 . S
C1706 C1710 1.368 . S
C1707 C1688 1.429 . S
C1707 C1701 1.429 . S
C1707 C1708 1.523 . S
C1708 C1689 1.368 . S
C1708 C1702 1.368 . S
C1708 C1707 1.523 . S
C1709 C1693 1.429 . S
C1709 C1705 1.429 . S
C1709 C1710 1.523 . S
C1710 C1694 1.368 . S
C1710 C1706 1.368 . S
C1710 C1709 1.523 . S
H1711 C1686 0.950 . S
H1712 C1688 0.950 . S
H1713 C1689 0.949 . S
H1714 C1691 0.950 . S
H1715 C1693 0.950 . S
C1716 C1717 1.349 . S
C1716 C1718 1.327 . S
C1716 H1741 0.950 . S
C1717 C1716 1.349 . S
C1717 C1733 1.349 . S
C1718 C1716 1.327 . S
C1718 C1737 1.429 . S
C1718 H1742 0.950 . S
C1719 C1736 1.574 . S
C1719 C1738 1.368 . S
C1719 H1743 0.949 . S
H1720 C1724 0.949 . S
C1721 C1722 1.349 . S
C1721 C1723 1.327 . S
C1721 H1744 0.950 . S
C1722 C1721 1.349 . S
C1722 C1734 1.349 . S
C1723 C1721 1.327 . S
C1723 C1739 1.429 . S
C1723 H1745 0.950 . S
C1724 H1720 0.949 . S
C1724 C1732 1.574 . S
C1724 C1740 1.368 . S
H1725 C1733 0.950 . S
H1726 C1731 0.950 . S
H1727 C1732 0.949 . S
H1728 C1734 0.950 . S
H1729 C1735 0.950 . S
H1730 C1736 0.949 . S
C1731 H1726 0.950 . S
C1731 C1733 1.327 . S
C1731 C1737 1.429 . S
C1732 C1724 1.574 . S
C1732 H1727 0.949 . S
C1732 C1738 1.368 . S
C1733 C1717 1.349 . S
C1733 H1725 0.950 . S
C1733 C1731 1.327 . S
C1734 C1722 1.349 . S
C1734 H1728 0.950 . S
C1734 C1735 1.327 . S
C1735 H1729 0.950 . S
C1735 C1734 1.327 . S
C1735 C1739 1.429 . S
C1736 C1719 1.574 . S
C1736 H1730 0.949 . S
C1736 C1740 1.368 . S
C1737 C1718 1.429 . S
C1737 C1731 1.429 . S
C1737 C1738 1.523 . S
C1738 C1719 1.368 . S
C1738 C1732 1.368 . S
C1738 C1737 1.523 . S
C1739 C1723 1.429 . S
C1739 C1735 1.429 . S
C1739 C1740 1.523 . S
C1740 C1724 1.368 . S
C1740 C1736 1.368 . S
C1740 C1739 1.523 . S
H1741 C1716 0.950 . S
H1742 C1718 0.950 . S
H1743 C1719 0.949 . S
H1744 C1721 0.950 . S
H1745 C1723 0.950 . S
C1746 C1747 1.349 . S
C1746 C1748 1.327 . S
C1746 H1771 0.950 . S
C1747 C1746 1.349 . S
C1747 C1763 1.349 . S
C1748 C1746 1.327 . S
C1748 C1767 1.429 . S
C1748 H1772 0.950 . S
C1749 C1766 1.574 . S
C1749 C1768 1.368 . S
C1749 H1773 0.949 . S
H1750 C1754 0.949 . S
C1751 C1752 1.349 1_455 S
C1751 C1753 1.327 . S
C1751 H1774 0.950 1_455 S
C1752 C1751 1.349 1_655 S
C1752 C1764 1.349 1_655 S
C1753 C1751 1.327 . S
C1753 C1769 1.429 . S
C1753 H1775 0.950 . S
C1754 H1750 0.949 . S
C1754 C1762 1.574 . S
C1754 C1770 1.368 . S
H1755 C1763 0.950 . S
H1756 C1761 0.950 . S
H1757 C1762 0.949 . S
H1758 C1764 0.950 . S
H1759 C1765 0.950 . S
H1760 C1766 0.949 . S
C1761 H1756 0.950 . S
C1761 C1763 1.327 . S
C1761 C1767 1.429 . S
C1762 C1754 1.574 . S
C1762 H1757 0.949 . S
C1762 C1768 1.368 . S
C1763 C1747 1.349 . S
C1763 H1755 0.950 . S
C1763 C1761 1.327 . S
C1764 C1752 1.349 1_455 S
C1764 H1758 0.950 . S
C1764 C1765 1.327 . S
C1765 H1759 0.950 . S
C1765 C1764 1.327 . S
C1765 C1769 1.429 . S
C1766 C1749 1.574 . S
C1766 H1760 0.949 . S
C1766 C1770 1.368 . S
C1767 C1748 1.429 . S
C1767 C1761 1.429 . S
C1767 C1768 1.523 . S
C1768 C1749 1.368 . S
C1768 C1762 1.368 . S
C1768 C1767 1.523 . S
C1769 C1753 1.429 . S
C1769 C1765 1.429 . S
C1769 C1770 1.523 . S
C1770 C1754 1.368 . S
C1770 C1766 1.368 . S
C1770 C1769 1.523 . S
H1771 C1746 0.950 . S
H1772 C1748 0.950 . S
H1773 C1749 0.949 . S
H1774 C1751 0.950 1_655 S
H1775 C1753 0.950 . S
C1776 C1777 1.349 . S
C1776 C1778 1.327 . S
C1776 H1801 0.950 . S
C1777 C1776 1.349 . S
C1777 C1793 1.349 . S
C1778 C1776 1.327 . S
C1778 C1797 1.429 . S
C1778 H1802 0.950 . S
C1779 C1796 1.574 . S
C1779 C1798 1.368 . S
C1779 H1803 0.949 . S
H1780 C1784 0.949 . S
C1781 C1782 1.349 . S
C1781 C1783 1.327 . S
C1781 H1804 0.950 . S
C1782 C1781 1.349 . S
C1782 C1794 1.349 . S
C1783 C1781 1.327 . S
C1783 C1799 1.429 . S
C1783 H1805 0.950 . S
C1784 H1780 0.949 . S
C1784 C1792 1.574 . S
C1784 C1800 1.368 . S
H1785 C1793 0.950 . S
H1786 C1791 0.950 . S
H1787 C1792 0.949 . S
H1788 C1794 0.950 . S
H1789 C1795 0.950 . S
H1790 C1796 0.949 . S
C1791 H1786 0.950 . S
C1791 C1793 1.327 . S
C1791 C1797 1.429 . S
C1792 C1784 1.574 . S
C1792 H1787 0.949 . S
C1792 C1798 1.368 . S
C1793 C1777 1.349 . S
C1793 H1785 0.950 . S
C1793 C1791 1.327 . S
C1794 C1782 1.349 . S
C1794 H1788 0.950 . S
C1794 C1795 1.327 . S
C1795 H1789 0.950 . S
C1795 C1794 1.327 . S
C1795 C1799 1.429 . S
C1796 C1779 1.574 . S
C1796 H1790 0.949 . S
C1796 C1800 1.368 . S
C1797 C1778 1.429 . S
C1797 C1791 1.429 . S
C1797 C1798 1.523 . S
C1798 C1779 1.368 . S
C1798 C1792 1.368 . S
C1798 C1797 1.523 . S
C1799 C1783 1.429 . S
C1799 C1795 1.429 . S
C1799 C1800 1.523 . S
C1800 C1784 1.368 . S
C1800 C1796 1.368 . S
C1800 C1799 1.523 . S
H1801 C1776 0.950 . S
H1802 C1778 0.950 . S
H1803 C1779 0.949 . S
H1804 C1781 0.950 . S
H1805 C1783 0.950 . S
C1806 C1807 1.349 1_655 S
C1806 C1808 1.327 . S
C1806 H1831 0.950 1_655 S
C1807 C1806 1.349 1_455 S
C1807 C1823 1.349 1_455 S
C1808 C1806 1.327 . S
C1808 C1827 1.429 . S
C1808 H1832 0.950 . S
C1809 C1826 1.574 . S
C1809 C1828 1.368 . S
C1809 H1833 0.949 . S
H1810 C1814 0.949 . S
C1811 C1812 1.349 . S
C1811 C1813 1.327 . S
C1811 H1834 0.950 . S
C1812 C1811 1.349 . S
C1812 C1824 1.349 . S
C1813 C1811 1.327 . S
C1813 C1829 1.429 . S
C1813 H1835 0.950 . S
C1814 H1810 0.949 . S
C1814 C1822 1.574 . S
C1814 C1830 1.368 . S
H1815 C1823 0.950 . S
H1816 C1821 0.950 . S
H1817 C1822 0.949 . S
H1818 C1824 0.950 . S
H1819 C1825 0.950 . S
H1820 C1826 0.949 . S
C1821 H1816 0.950 . S
C1821 C1823 1.327 . S
C1821 C1827 1.429 . S
C1822 C1814 1.574 . S
C1822 H1817 0.949 . S
C1822 C1828 1.368 . S
C1823 C1807 1.349 1_655 S
C1823 H1815 0.950 . S
C1823 C1821 1.327 . S
C1824 C1812 1.349 . S
C1824 H1818 0.950 . S
C1824 C1825 1.327 . S
C1825 H1819 0.950 . S
C1825 C1824 1.327 . S
C1825 C1829 1.429 . S
C1826 C1809 1.574 . S
C1826 H1820 0.949 . S
C1826 C1830 1.368 . S
C1827 C1808 1.429 . S
C1827 C1821 1.429 . S
C1827 C1828 1.523 . S
C1828 C1809 1.368 . S
C1828 C1822 1.368 . S
C1828 C1827 1.523 . S
C1829 C1813 1.429 . S
C1829 C1825 1.429 . S
C1829 C1830 1.523 . S
C1830 C1814 1.368 . S
C1830 C1826 1.368 . S
C1830 C1829 1.523 . S
H1831 C1806 0.950 1_455 S
H1832 C1808 0.950 . S
H1833 C1809 0.949 . S
H1834 C1811 0.950 . S
H1835 C1813 0.950 . S
C1836 C1837 1.349 . S
C1836 C1838 1.327 . S
C1836 H1861 0.950 . S
C1837 C1836 1.349 . S
C1837 C1853 1.349 . S
C1838 C1836 1.327 . S
C1838 C1857 1.429 . S
C1838 H1862 0.950 . S
C1839 C1856 1.574 . S
C1839 C1858 1.368 . S
C1839 H1863 0.949 . S
H1840 C1844 0.949 . S
C1841 C1842 1.349 . S
C1841 C1843 1.327 . S
C1841 H1864 0.950 . S
C1842 C1841 1.349 . S
C1842 C1854 1.349 . S
C1843 C1841 1.327 . S
C1843 C1859 1.429 . S
C1843 H1865 0.950 . S
C1844 H1840 0.949 . S
C1844 C1852 1.574 . S
C1844 C1860 1.368 . S
H1845 C1853 0.950 . S
H1846 C1851 0.950 . S
H1847 C1852 0.949 . S
H1848 C1854 0.950 . S
H1849 C1855 0.950 . S
H1850 C1856 0.949 . S
C1851 H1846 0.950 . S
C1851 C1853 1.327 . S
C1851 C1857 1.429 . S
C1852 C1844 1.574 . S
C1852 H1847 0.949 . S
C1852 C1858 1.368 . S
C1853 C1837 1.349 . S
C1853 H1845 0.950 . S
C1853 C1851 1.327 . S
C1854 C1842 1.349 . S
C1854 H1848 0.950 . S
C1854 C1855 1.327 . S
C1855 H1849 0.950 . S
C1855 C1854 1.327 . S
C1855 C1859 1.429 . S
C1856 C1839 1.574 . S
C1856 H1850 0.949 . S
C1856 C1860 1.368 . S
C1857 C1838 1.429 . S
C1857 C1851 1.429 . S
C1857 C1858 1.523 . S
C1858 C1839 1.368 . S
C1858 C1852 1.368 . S
C1858 C1857 1.523 . S
C1859 C1843 1.429 . S
C1859 C1855 1.429 . S
C1859 C1860 1.523 . S
C1860 C1844 1.368 . S
C1860 C1856 1.368 . S
C1860 C1859 1.523 . S
H1861 C1836 0.950 . S
H1862 C1838 0.950 . S
H1863 C1839 0.949 . S
H1864 C1841 0.950 . S
H1865 C1843 0.950 . S
C1866 C1867 1.349 . S
C1866 C1868 1.327 . S
C1866 H1891 0.950 . S
C1867 C1866 1.349 . S
C1867 C1883 1.349 . S
C1868 C1866 1.327 . S
C1868 C1887 1.429 . S
C1868 H1892 0.950 . S
C1869 C1886 1.574 . S
C1869 C1888 1.368 . S
C1869 H1893 0.949 . S
H1870 C1874 0.949 . S
C1871 C1872 1.349 . S
C1871 C1873 1.327 . S
C1871 H1894 0.950 . S
C1872 C1871 1.349 . S
C1872 C1884 1.349 . S
C1873 C1871 1.327 . S
C1873 C1889 1.429 . S
C1873 H1895 0.950 . S
C1874 H1870 0.949 . S
C1874 C1882 1.574 . S
C1874 C1890 1.368 . S
H1875 C1883 0.950 . S
H1876 C1881 0.950 . S
H1877 C1882 0.949 . S
H1878 C1884 0.950 . S
H1879 C1885 0.950 . S
H1880 C1886 0.949 . S
C1881 H1876 0.950 . S
C1881 C1883 1.327 . S
C1881 C1887 1.429 . S
C1882 C1874 1.574 . S
C1882 H1877 0.949 . S
C1882 C1888 1.368 . S
C1883 C1867 1.349 . S
C1883 H1875 0.950 . S
C1883 C1881 1.327 . S
C1884 C1872 1.349 . S
C1884 H1878 0.950 . S
C1884 C1885 1.327 . S
C1885 H1879 0.950 . S
C1885 C1884 1.327 . S
C1885 C1889 1.429 . S
C1886 C1869 1.574 . S
C1886 H1880 0.949 . S
C1886 C1890 1.368 . S
C1887 C1868 1.429 . S
C1887 C1881 1.429 . S
C1887 C1888 1.523 . S
C1888 C1869 1.368 . S
C1888 C1882 1.368 . S
C1888 C1887 1.523 . S
C1889 C1873 1.429 . S
C1889 C1885 1.429 . S
C1889 C1890 1.523 . S
C1890 C1874 1.368 . S
C1890 C1886 1.368 . S
C1890 C1889 1.523 . S
H1891 C1866 0.950 . S
H1892 C1868 0.950 . S
H1893 C1869 0.949 . S
H1894 C1871 0.950 . S
H1895 C1873 0.950 . S
C1896 C1897 1.349 . S
C1896 C1898 1.327 . S
C1896 H1921 0.950 . S
C1897 C1896 1.349 . S
C1897 C1913 1.349 . S
C1898 C1896 1.327 . S
C1898 C1917 1.429 . S
C1898 H1922 0.950 . S
C1899 C1916 1.574 . S
C1899 C1918 1.368 . S
C1899 H1923 0.949 . S
H1900 C1904 0.949 . S
C1901 C1902 1.349 . S
C1901 C1903 1.327 . S
C1901 H1924 0.950 . S
C1902 C1901 1.349 . S
C1902 C1914 1.349 . S
C1903 C1901 1.327 . S
C1903 C1919 1.429 . S
C1903 H1925 0.950 . S
C1904 H1900 0.949 . S
C1904 C1912 1.574 . S
C1904 C1920 1.368 . S
H1905 C1913 0.950 . S
H1906 C1911 0.950 . S
H1907 C1912 0.949 . S
H1908 C1914 0.950 . S
H1909 C1915 0.950 . S
H1910 C1916 0.949 . S
C1911 H1906 0.950 . S
C1911 C1913 1.327 . S
C1911 C1917 1.429 . S
C1912 C1904 1.574 . S
C1912 H1907 0.949 . S
C1912 C1918 1.368 . S
C1913 C1897 1.349 . S
C1913 H1905 0.950 . S
C1913 C1911 1.327 . S
C1914 C1902 1.349 . S
C1914 H1908 0.950 . S
C1914 C1915 1.327 . S
C1915 H1909 0.950 . S
C1915 C1914 1.327 . S
C1915 C1919 1.429 . S
C1916 C1899 1.574 . S
C1916 H1910 0.949 . S
C1916 C1920 1.368 . S
C1917 C1898 1.429 . S
C1917 C1911 1.429 . S
C1917 C1918 1.523 . S
C1918 C1899 1.368 . S
C1918 C1912 1.368 . S
C1918 C1917 1.523 . S
C1919 C1903 1.429 . S
C1919 C1915 1.429 . S
C1919 C1920 1.523 . S
C1920 C1904 1.368 . S
C1920 C1916 1.368 . S
C1920 C1919 1.523 . S
H1921 C1896 0.950 . S
H1922 C1898 0.950 . S
H1923 C1899 0.949 . S
H1924 C1901 0.950 . S
H1925 C1903 0.950 . S
C1926 C1927 1.349 . S
C1926 C1928 1.327 . S
C1926 H1951 0.950 . S
C1927 C1926 1.349 . S
C1927 C1943 1.349 . S
C1928 C1926 1.327 . S
C1928 C1947 1.429 . S
C1928 H1952 0.950 . S
C1929 C1946 1.574 . S
C1929 C1948 1.368 . S
C1929 H1953 0.949 . S
H1930 C1934 0.949 . S
C1931 C1932 1.349 . S
C1931 C1933 1.327 . S
C1931 H1954 0.950 . S
C1932 C1931 1.349 . S
C1932 C1944 1.349 . S
C1933 C1931 1.327 . S
C1933 C1949 1.429 . S
C1933 H1955 0.950 . S
C1934 H1930 0.949 . S
C1934 C1942 1.574 . S
C1934 C1950 1.368 . S
H1935 C1943 0.950 . S
H1936 C1941 0.950 . S
H1937 C1942 0.949 . S
H1938 C1944 0.950 . S
H1939 C1945 0.950 . S
H1940 C1946 0.949 . S
C1941 H1936 0.950 . S
C1941 C1943 1.327 . S
C1941 C1947 1.429 . S
C1942 C1934 1.574 . S
C1942 H1937 0.949 . S
C1942 C1948 1.368 . S
C1943 C1927 1.349 . S
C1943 H1935 0.950 . S
C1943 C1941 1.327 . S
C1944 C1932 1.349 . S
C1944 H1938 0.950 . S
C1944 C1945 1.327 . S
C1945 H1939 0.950 . S
C1945 C1944 1.327 . S
C1945 C1949 1.429 . S
C1946 C1929 1.574 . S
C1946 H1940 0.949 . S
C1946 C1950 1.368 . S
C1947 C1928 1.429 . S
C1947 C1941 1.429 . S
C1947 C1948 1.523 . S
C1948 C1929 1.368 . S
C1948 C1942 1.368 . S
C1948 C1947 1.523 . S
C1949 C1933 1.429 . S
C1949 C1945 1.429 . S
C1949 C1950 1.523 . S
C1950 C1934 1.368 . S
C1950 C1946 1.368 . S
C1950 C1949 1.523 . S
H1951 C1926 0.950 . S
H1952 C1928 0.950 . S
H1953 C1929 0.949 . S
H1954 C1931 0.950 . S
H1955 C1933 0.950 . S
C1956 C1957 1.349 . S
C1956 C1958 1.327 . S
C1956 H1981 0.950 . S
C1957 C1956 1.349 . S
C1957 C1973 1.349 . S
C1958 C1956 1.327 . S
C1958 C1977 1.429 . S
C1958 H1982 0.950 . S
C1959 C1976 1.574 . S
C1959 C1978 1.368 . S
C1959 H1983 0.949 . S
H1960 C1964 0.949 . S
C1961 C1962 1.349 . S
C1961 C1963 1.327 . S
C1961 H1984 0.950 . S
C1962 C1961 1.349 . S
C1962 C1974 1.349 . S
C1963 C1961 1.327 . S
C1963 C1979 1.429 . S
C1963 H1985 0.950 . S
C1964 H1960 0.949 . S
C1964 C1972 1.574 . S
C1964 C1980 1.368 . S
H1965 C1973 0.950 . S
H1966 C1971 0.950 . S
H1967 C1972 0.949 . S
H1968 C1974 0.950 . S
H1969 C1975 0.950 . S
H1970 C1976 0.949 . S
C1971 H1966 0.950 . S
C1971 C1973 1.327 . S
C1971 C1977 1.429 . S
C1972 C1964 1.574 . S
C1972 H1967 0.949 . S
C1972 C1978 1.368 . S
C1973 C1957 1.349 . S
C1973 H1965 0.950 . S
C1973 C1971 1.327 . S
C1974 C1962 1.349 . S
C1974 H1968 0.950 . S
C1974 C1975 1.327 . S
C1975 H1969 0.950 . S
C1975 C1974 1.327 . S
C1975 C1979 1.429 . S
C1976 C1959 1.574 . S
C1976 H1970 0.949 . S
C1976 C1980 1.368 . S
C1977 C1958 1.429 . S
C1977 C1971 1.429 . S
C1977 C1978 1.523 . S
C1978 C1959 1.368 . S
C1978 C1972 1.368 . S
C1978 C1977 1.523 . S
C1979 C1963 1.429 . S
C1979 C1975 1.429 . S
C1979 C1980 1.523 . S
C1980 C1964 1.368 . S
C1980 C1976 1.368 . S
C1980 C1979 1.523 . S
H1981 C1956 0.950 . S
H1982 C1958 0.950 . S
H1983 C1959 0.949 . S
H1984 C1961 0.950 . S
H1985 C1963 0.950 . S
C1986 C1987 1.349 1_655 S
C1986 C1988 1.327 . S
C1986 H2011 0.950 1_655 S
C1987 C1986 1.349 1_455 S
C1987 C2003 1.349 1_455 S
C1988 C1986 1.327 . S
C1988 C2007 1.429 . S
C1988 H2012 0.950 . S
C1989 C2006 1.574 . S
C1989 C2008 1.368 . S
C1989 H2013 0.949 . S
H1990 C1994 0.949 . S
C1991 C1992 1.349 . S
C1991 C1993 1.327 . S
C1991 H2014 0.950 . S
C1992 C1991 1.349 . S
C1992 C2004 1.349 . S
C1993 C1991 1.327 . S
C1993 C2009 1.429 . S
C1993 H2015 0.950 . S
C1994 H1990 0.949 . S
C1994 C2002 1.574 . S
C1994 C2010 1.368 . S
H1995 C2003 0.950 . S
H1996 C2001 0.950 . S
H1997 C2002 0.949 . S
H1998 C2004 0.950 . S
H1999 C2005 0.950 . S
H2000 C2006 0.949 . S
C2001 H1996 0.950 . S
C2001 C2003 1.327 . S
C2001 C2007 1.429 . S
C2002 C1994 1.574 . S
C2002 H1997 0.949 . S
C2002 C2008 1.368 . S
C2003 C1987 1.349 1_655 S
C2003 H1995 0.950 . S
C2003 C2001 1.327 . S
C2004 C1992 1.349 . S
C2004 H1998 0.950 . S
C2004 C2005 1.327 . S
C2005 H1999 0.950 . S
C2005 C2004 1.327 . S
C2005 C2009 1.429 . S
C2006 C1989 1.574 . S
C2006 H2000 0.949 . S
C2006 C2010 1.368 . S
C2007 C1988 1.429 . S
C2007 C2001 1.429 . S
C2007 C2008 1.523 . S
C2008 C1989 1.368 . S
C2008 C2002 1.368 . S
C2008 C2007 1.523 . S
C2009 C1993 1.429 . S
C2009 C2005 1.429 . S
C2009 C2010 1.523 . S
C2010 C1994 1.368 . S
C2010 C2006 1.368 . S
C2010 C2009 1.523 . S
H2011 C1986 0.950 1_455 S
H2012 C1988 0.950 . S
H2013 C1989 0.949 . S
H2014 C1991 0.950 . S
H2015 C1993 0.950 . S
C2016 C2017 1.349 . S
C2016 C2018 1.327 . S
C2016 H2041 0.950 . S
C2017 C2016 1.349 . S
C2017 C2033 1.349 . S
C2018 C2016 1.327 . S
C2018 C2037 1.429 . S
C2018 H2042 0.950 . S
C2019 C2036 1.574 . S
C2019 C2038 1.368 . S
C2019 H2043 0.949 . S
H2020 C2024 0.949 . S
C2021 C2022 1.349 . S
C2021 C2023 1.327 . S
C2021 H2044 0.950 . S
C2022 C2021 1.349 . S
C2022 C2034 1.349 . S
C2023 C2021 1.327 . S
C2023 C2039 1.429 . S
C2023 H2045 0.950 . S
C2024 H2020 0.949 . S
C2024 C2032 1.574 . S
C2024 C2040 1.368 . S
H2025 C2033 0.950 . S
H2026 C2031 0.950 . S
H2027 C2032 0.949 . S
H2028 C2034 0.950 . S
H2029 C2035 0.950 . S
H2030 C2036 0.949 . S
C2031 H2026 0.950 . S
C2031 C2033 1.327 . S
C2031 C2037 1.429 . S
C2032 C2024 1.574 . S
C2032 H2027 0.949 . S
C2032 C2038 1.368 . S
C2033 C2017 1.349 . S
C2033 H2025 0.950 . S
C2033 C2031 1.327 . S
C2034 C2022 1.349 . S
C2034 H2028 0.950 . S
C2034 C2035 1.327 . S
C2035 H2029 0.950 . S
C2035 C2034 1.327 . S
C2035 C2039 1.429 . S
C2036 C2019 1.574 . S
C2036 H2030 0.949 . S
C2036 C2040 1.368 . S
C2037 C2018 1.429 . S
C2037 C2031 1.429 . S
C2037 C2038 1.523 . S
C2038 C2019 1.368 . S
C2038 C2032 1.368 . S
C2038 C2037 1.523 . S
C2039 C2023 1.429 . S
C2039 C2035 1.429 . S
C2039 C2040 1.523 . S
C2040 C2024 1.368 . S
C2040 C2036 1.368 . S
C2040 C2039 1.523 . S
H2041 C2016 0.950 . S
H2042 C2018 0.950 . S
H2043 C2019 0.949 . S
H2044 C2021 0.950 . S
H2045 C2023 0.950 . S
C2046 C2047 1.349 . S
C2046 C2048 1.327 . S
C2046 H2071 0.950 . S
C2047 C2046 1.349 . S
C2047 C2063 1.349 . S
C2048 C2046 1.327 . S
C2048 C2067 1.429 . S
C2048 H2072 0.950 . S
C2049 C2066 1.574 . S
C2049 C2068 1.368 . S
C2049 H2073 0.949 . S
H2050 C2054 0.949 . S
C2051 C2052 1.349 . S
C2051 C2053 1.327 . S
C2051 H2074 0.950 . S
C2052 C2051 1.349 . S
C2052 C2064 1.349 . S
C2053 C2051 1.327 . S
C2053 C2069 1.429 . S
C2053 H2075 0.950 . S
C2054 H2050 0.949 . S
C2054 C2062 1.574 . S
C2054 C2070 1.368 . S
H2055 C2063 0.950 . S
H2056 C2061 0.950 . S
H2057 C2062 0.949 . S
H2058 C2064 0.950 . S
H2059 C2065 0.950 . S
H2060 C2066 0.949 . S
C2061 H2056 0.950 . S
C2061 C2063 1.327 . S
C2061 C2067 1.429 . S
C2062 C2054 1.574 . S
C2062 H2057 0.949 . S
C2062 C2068 1.368 . S
C2063 C2047 1.349 . S
C2063 H2055 0.950 . S
C2063 C2061 1.327 . S
C2064 C2052 1.349 . S
C2064 H2058 0.950 . S
C2064 C2065 1.327 . S
C2065 H2059 0.950 . S
C2065 C2064 1.327 . S
C2065 C2069 1.429 . S
C2066 C2049 1.574 . S
C2066 H2060 0.949 . S
C2066 C2070 1.368 . S
C2067 C2048 1.429 . S
C2067 C2061 1.429 . S
C2067 C2068 1.523 . S
C2068 C2049 1.368 . S
C2068 C2062 1.368 . S
C2068 C2067 1.523 . S
C2069 C2053 1.429 . S
C2069 C2065 1.429 . S
C2069 C2070 1.523 . S
C2070 C2054 1.368 . S
C2070 C2066 1.368 . S
C2070 C2069 1.523 . S
H2071 C2046 0.950 . S
H2072 C2048 0.950 . S
H2073 C2049 0.949 . S
H2074 C2051 0.950 . S
H2075 C2053 0.950 . S
C2076 C2077 1.349 . S
C2076 C2078 1.327 . S
C2076 H2101 0.950 . S
C2077 C2076 1.349 . S
C2077 C2093 1.349 . S
C2078 C2076 1.327 . S
C2078 C2097 1.429 . S
C2078 H2102 0.950 . S
C2079 C2096 1.574 . S
C2079 C2098 1.368 . S
C2079 H2103 0.949 . S
H2080 C2084 0.949 . S
C2081 C2082 1.349 . S
C2081 C2083 1.327 . S
C2081 H2104 0.950 . S
C2082 C2081 1.349 . S
C2082 C2094 1.349 . S
C2083 C2081 1.327 . S
C2083 C2099 1.429 . S
C2083 H2105 0.950 . S
C2084 H2080 0.949 . S
C2084 C2092 1.574 . S
C2084 C2100 1.368 . S
H2085 C2093 0.950 . S
H2086 C2091 0.950 . S
H2087 C2092 0.949 . S
H2088 C2094 0.950 . S
H2089 C2095 0.950 . S
H2090 C2096 0.949 . S
C2091 H2086 0.950 . S
C2091 C2093 1.327 . S
C2091 C2097 1.429 . S
C2092 C2084 1.574 . S
C2092 H2087 0.949 . S
C2092 C2098 1.368 . S
C2093 C2077 1.349 . S
C2093 H2085 0.950 . S
C2093 C2091 1.327 . S
C2094 C2082 1.349 . S
C2094 H2088 0.950 . S
C2094 C2095 1.327 . S
C2095 H2089 0.950 . S
C2095 C2094 1.327 . S
C2095 C2099 1.429 . S
C2096 C2079 1.574 . S
C2096 H2090 0.949 . S
C2096 C2100 1.368 . S
C2097 C2078 1.429 . S
C2097 C2091 1.429 . S
C2097 C2098 1.523 . S
C2098 C2079 1.368 . S
C2098 C2092 1.368 . S
C2098 C2097 1.523 . S
C2099 C2083 1.429 . S
C2099 C2095 1.429 . S
C2099 C2100 1.523 . S
C2100 C2084 1.368 . S
C2100 C2096 1.368 . S
C2100 C2099 1.523 . S
H2101 C2076 0.950 . S
H2102 C2078 0.950 . S
H2103 C2079 0.949 . S
H2104 C2081 0.950 . S
H2105 C2083 0.950 . S
C2106 C2107 1.349 1_655 S
C2106 C2108 1.327 . S
C2106 H2131 0.950 . S
C2107 C2106 1.349 1_455 S
C2107 C2123 1.349 1_455 S
C2108 C2106 1.327 . S
C2108 C2127 1.429 . S
C2108 H2132 0.950 . S
C2109 C2126 1.574 . S
C2109 C2128 1.368 . S
C2109 H2133 0.949 . S
H2110 C2114 0.949 . S
C2111 C2112 1.349 . S
C2111 C2113 1.327 . S
C2111 H2134 0.950 . S
C2112 C2111 1.349 . S
C2112 C2124 1.349 . S
C2113 C2111 1.327 . S
C2113 C2129 1.429 . S
C2113 H2135 0.950 . S
C2114 H2110 0.949 . S
C2114 C2122 1.574 . S
C2114 C2130 1.368 . S
H2115 C2123 0.950 1_455 S
H2116 C2121 0.950 . S
H2117 C2122 0.949 . S
H2118 C2124 0.950 . S
H2119 C2125 0.950 . S
H2120 C2126 0.949 . S
C2121 H2116 0.950 . S
C2121 C2123 1.327 . S
C2121 C2127 1.429 . S
C2122 C2114 1.574 . S
C2122 H2117 0.949 . S
C2122 C2128 1.368 . S
C2123 C2107 1.349 1_655 S
C2123 H2115 0.950 1_655 S
C2123 C2121 1.327 . S
C2124 C2112 1.349 . S
C2124 H2118 0.950 . S
C2124 C2125 1.327 . S
C2125 H2119 0.950 . S
C2125 C2124 1.327 . S
C2125 C2129 1.429 . S
C2126 C2109 1.574 . S
C2126 H2120 0.949 . S
C2126 C2130 1.368 . S
C2127 C2108 1.429 . S
C2127 C2121 1.429 . S
C2127 C2128 1.523 . S
C2128 C2109 1.368 . S
C2128 C2122 1.368 . S
C2128 C2127 1.523 . S
C2129 C2113 1.429 . S
C2129 C2125 1.429 . S
C2129 C2130 1.523 . S
C2130 C2114 1.368 . S
C2130 C2126 1.368 . S
C2130 C2129 1.523 . S
H2131 C2106 0.950 . S
H2132 C2108 0.950 . S
H2133 C2109 0.949 . S
H2134 C2111 0.950 . S
H2135 C2113 0.950 . S
C2136 C2137 1.349 . S
C2136 C2138 1.327 . S
C2136 H2161 0.950 . S
C2137 C2136 1.349 . S
C2137 C2153 1.349 . S
C2138 C2136 1.327 . S
C2138 C2157 1.429 . S
C2138 H2162 0.950 . S
C2139 C2156 1.574 . S
C2139 C2158 1.368 . S
C2139 H2163 0.949 . S
H2140 C2144 0.949 . S
C2141 C2142 1.349 . S
C2141 C2143 1.327 . S
C2141 H2164 0.950 . S
C2142 C2141 1.349 . S
C2142 C2154 1.349 . S
C2143 C2141 1.327 . S
C2143 C2159 1.429 . S
C2143 H2165 0.950 . S
C2144 H2140 0.949 . S
C2144 C2152 1.574 . S
C2144 C2160 1.368 . S
H2145 C2153 0.950 . S
H2146 C2151 0.950 . S
H2147 C2152 0.949 . S
H2148 C2154 0.950 . S
H2149 C2155 0.950 . S
H2150 C2156 0.949 . S
C2151 H2146 0.950 . S
C2151 C2153 1.327 . S
C2151 C2157 1.429 . S
C2152 C2144 1.574 . S
C2152 H2147 0.949 . S
C2152 C2158 1.368 . S
C2153 C2137 1.349 . S
C2153 H2145 0.950 . S
C2153 C2151 1.327 . S
C2154 C2142 1.349 . S
C2154 H2148 0.950 . S
C2154 C2155 1.327 . S
C2155 H2149 0.950 . S
C2155 C2154 1.327 . S
C2155 C2159 1.429 . S
C2156 C2139 1.574 . S
C2156 H2150 0.949 . S
C2156 C2160 1.368 . S
C2157 C2138 1.429 . S
C2157 C2151 1.429 . S
C2157 C2158 1.523 . S
C2158 C2139 1.368 . S
C2158 C2152 1.368 . S
C2158 C2157 1.523 . S
C2159 C2143 1.429 . S
C2159 C2155 1.429 . S
C2159 C2160 1.523 . S
C2160 C2144 1.368 . S
C2160 C2156 1.368 . S
C2160 C2159 1.523 . S
H2161 C2136 0.950 . S
H2162 C2138 0.950 . S
H2163 C2139 0.949 . S
H2164 C2141 0.950 . S
H2165 C2143 0.950 . S
C2166 C2167 1.349 . S
C2166 C2168 1.327 . S
C2166 H2191 0.950 . S
C2167 C2166 1.349 . S
C2167 C2183 1.349 . S
C2168 C2166 1.327 . S
C2168 C2187 1.429 . S
C2168 H2192 0.950 . S
C2169 C2186 1.574 . S
C2169 C2188 1.368 . S
C2169 H2193 0.949 . S
H2170 C2174 0.949 . S
C2171 C2172 1.350 . S
C2171 C2173 1.320 1_455 S
C2171 H2194 0.956 . S
C2172 C2171 1.350 . S
C2172 C2184 1.349 1_455 S
C2173 C2171 1.320 1_655 S
C2173 C2189 1.429 . S
C2173 H2195 0.950 . S
C2174 H2170 0.949 . S
C2174 C2182 1.574 . S
C2174 C2190 1.368 . S
H2175 C2183 0.950 . S
H2176 C2181 0.950 . S
H2177 C2182 0.949 . S
H2178 C2184 0.950 . S
H2179 C2185 0.950 . S
H2180 C2186 0.949 . S
C2181 H2176 0.950 . S
C2181 C2183 1.327 . S
C2181 C2187 1.429 . S
C2182 C2174 1.574 . S
C2182 H2177 0.949 . S
C2182 C2188 1.368 . S
C2183 C2167 1.349 . S
C2183 H2175 0.950 . S
C2183 C2181 1.327 . S
C2184 C2172 1.349 1_655 S
C2184 H2178 0.950 . S
C2184 C2185 1.327 . S
C2185 H2179 0.950 . S
C2185 C2184 1.327 . S
C2185 C2189 1.429 . S
C2186 C2169 1.574 . S
C2186 H2180 0.949 . S
C2186 C2190 1.368 . S
C2187 C2168 1.429 . S
C2187 C2181 1.429 . S
C2187 C2188 1.523 . S
C2188 C2169 1.368 . S
C2188 C2182 1.368 . S
C2188 C2187 1.523 . S
C2189 C2173 1.429 . S
C2189 C2185 1.429 . S
C2189 C2190 1.523 . S
C2190 C2174 1.368 . S
C2190 C2186 1.368 . S
C2190 C2189 1.523 . S
H2191 C2166 0.950 . S
H2192 C2168 0.950 . S
H2193 C2169 0.949 . S
H2194 C2171 0.956 . S
H2195 C2173 0.950 . S
C2196 C2197 1.349 . S
C2196 C2198 1.327 . S
C2196 H2221 0.950 . S
C2197 C2196 1.349 . S
C2197 C2213 1.349 . S
C2198 C2196 1.327 . S
C2198 C2217 1.429 . S
C2198 H2222 0.950 . S
C2199 C2216 1.574 . S
C2199 C2218 1.368 . S
C2199 H2223 0.949 . S
H2200 C2204 0.949 . S
C2201 C2202 1.349 . S
C2201 C2203 1.327 . S
C2201 H2224 0.950 . S
C2202 C2201 1.349 . S
C2202 C2214 1.349 . S
C2203 C2201 1.327 . S
C2203 C2219 1.429 . S
C2203 H2225 0.950 . S
C2204 H2200 0.949 . S
C2204 C2212 1.574 . S
C2204 C2220 1.368 . S
H2205 C2213 0.950 . S
H2206 C2211 0.950 . S
H2207 C2212 0.949 . S
H2208 C2214 0.950 . S
H2209 C2215 0.950 . S
H2210 C2216 0.949 . S
C2211 H2206 0.950 . S
C2211 C2213 1.327 . S
C2211 C2217 1.429 . S
C2212 C2204 1.574 . S
C2212 H2207 0.949 . S
C2212 C2218 1.368 . S
C2213 C2197 1.349 . S
C2213 H2205 0.950 . S
C2213 C2211 1.327 . S
C2214 C2202 1.349 . S
C2214 H2208 0.950 . S
C2214 C2215 1.327 . S
C2215 H2209 0.950 . S
C2215 C2214 1.327 . S
C2215 C2219 1.429 . S
C2216 C2199 1.574 . S
C2216 H2210 0.949 . S
C2216 C2220 1.368 . S
C2217 C2198 1.429 . S
C2217 C2211 1.429 . S
C2217 C2218 1.523 . S
C2218 C2199 1.368 . S
C2218 C2212 1.368 . S
C2218 C2217 1.523 . S
C2219 C2203 1.429 . S
C2219 C2215 1.429 . S
C2219 C2220 1.523 . S
C2220 C2204 1.368 . S
C2220 C2216 1.368 . S
C2220 C2219 1.523 . S
H2221 C2196 0.950 . S
H2222 C2198 0.950 . S
H2223 C2199 0.949 . S
H2224 C2201 0.950 . S
H2225 C2203 0.950 . S
C2226 C2227 1.349 . S
C2226 C2228 1.327 . S
C2226 H2251 0.950 . S
C2227 C2226 1.349 . S
C2227 C2243 1.349 . S
C2228 C2226 1.327 . S
C2228 C2247 1.429 . S
C2228 H2252 0.950 . S
C2229 C2246 1.574 . S
C2229 C2248 1.368 . S
C2229 H2253 0.949 . S
H2230 C2234 0.949 . S
C2231 C2232 1.349 . S
C2231 C2233 1.327 . S
C2231 H2254 0.950 . S
C2232 C2231 1.349 . S
C2232 C2244 1.349 . S
C2233 C2231 1.327 . S
C2233 C2249 1.429 . S
C2233 H2255 0.950 . S
C2234 H2230 0.949 . S
C2234 C2242 1.574 . S
C2234 C2250 1.368 . S
H2235 C2243 0.950 . S
H2236 C2241 0.950 . S
H2237 C2242 0.949 . S
H2238 C2244 0.950 . S
H2239 C2245 0.950 . S
H2240 C2246 0.949 . S
C2241 H2236 0.950 . S
C2241 C2243 1.327 . S
C2241 C2247 1.429 . S
C2242 C2234 1.574 . S
C2242 H2237 0.949 . S
C2242 C2248 1.368 . S
C2243 C2227 1.349 . S
C2243 H2235 0.950 . S
C2243 C2241 1.327 . S
C2244 C2232 1.349 . S
C2244 H2238 0.950 . S
C2244 C2245 1.327 . S
C2245 H2239 0.950 . S
C2245 C2244 1.327 . S
C2245 C2249 1.429 . S
C2246 C2229 1.574 . S
C2246 H2240 0.949 . S
C2246 C2250 1.368 . S
C2247 C2228 1.429 . S
C2247 C2241 1.429 . S
C2247 C2248 1.523 . S
C2248 C2229 1.368 . S
C2248 C2242 1.368 . S
C2248 C2247 1.523 . S
C2249 C2233 1.429 . S
C2249 C2245 1.429 . S
C2249 C2250 1.523 . S
C2250 C2234 1.368 . S
C2250 C2246 1.368 . S
C2250 C2249 1.523 . S
H2251 C2226 0.950 . S
H2252 C2228 0.950 . S
H2253 C2229 0.949 . S
H2254 C2231 0.950 . S
H2255 C2233 0.950 . S
C2256 C2257 1.349 . S
C2256 C2258 1.327 . S
C2256 H2281 0.950 . S
C2257 C2256 1.349 . S
C2257 C2273 1.349 . S
C2258 C2256 1.327 . S
C2258 C2277 1.429 . S
C2258 H2282 0.950 . S
C2259 C2276 1.574 . S
C2259 C2278 1.368 . S
C2259 H2283 0.949 . S
H2260 C2264 0.949 . S
C2261 C2262 1.349 . S
C2261 C2263 1.327 . S
C2261 H2284 0.950 . S
C2262 C2261 1.349 . S
C2262 C2274 1.349 . S
C2263 C2261 1.327 . S
C2263 C2279 1.429 . S
C2263 H2285 0.950 . S
C2264 H2260 0.949 . S
C2264 C2272 1.574 . S
C2264 C2280 1.368 . S
H2265 C2273 0.950 . S
H2266 C2271 0.950 . S
H2267 C2272 0.949 . S
H2268 C2274 0.950 . S
H2269 C2275 0.950 . S
H2270 C2276 0.949 . S
C2271 H2266 0.950 . S
C2271 C2273 1.327 . S
C2271 C2277 1.429 . S
C2272 C2264 1.574 . S
C2272 H2267 0.949 . S
C2272 C2278 1.368 . S
C2273 C2257 1.349 . S
C2273 H2265 0.950 . S
C2273 C2271 1.327 . S
C2274 C2262 1.349 . S
C2274 H2268 0.950 . S
C2274 C2275 1.327 . S
C2275 H2269 0.950 . S
C2275 C2274 1.327 . S
C2275 C2279 1.429 . S
C2276 C2259 1.574 . S
C2276 H2270 0.949 . S
C2276 C2280 1.368 . S
C2277 C2258 1.429 . S
C2277 C2271 1.429 . S
C2277 C2278 1.523 . S
C2278 C2259 1.368 . S
C2278 C2272 1.368 . S
C2278 C2277 1.523 . S
C2279 C2263 1.429 . S
C2279 C2275 1.429 . S
C2279 C2280 1.523 . S
C2280 C2264 1.368 . S
C2280 C2276 1.368 . S
C2280 C2279 1.523 . S
H2281 C2256 0.950 . S
H2282 C2258 0.950 . S
H2283 C2259 0.949 . S
H2284 C2261 0.950 . S
H2285 C2263 0.950 . S
C2286 C2287 1.349 . S
C2286 C2288 1.327 . S
C2286 H2311 0.950 . S
C2287 C2286 1.349 . S
C2287 C2303 1.349 . S
C2288 C2286 1.327 . S
C2288 C2307 1.429 . S
C2288 H2312 0.950 . S
C2289 C2306 1.574 . S
C2289 C2308 1.368 . S
C2289 H2313 0.949 . S
H2290 C2294 0.949 . S
C2291 C2292 1.349 . S
C2291 C2293 1.327 . S
C2291 H2314 0.950 . S
C2292 C2291 1.349 . S
C2292 C2304 1.349 . S
C2293 C2291 1.327 . S
C2293 C2309 1.429 . S
C2293 H2315 0.950 . S
C2294 H2290 0.949 . S
C2294 C2302 1.574 . S
C2294 C2310 1.368 . S
H2295 C2303 0.950 . S
H2296 C2301 0.950 . S
H2297 C2302 0.949 . S
H2298 C2304 0.950 . S
H2299 C2305 0.950 . S
H2300 C2306 0.949 . S
C2301 H2296 0.950 . S
C2301 C2303 1.327 . S
C2301 C2307 1.429 . S
C2302 C2294 1.574 . S
C2302 H2297 0.949 . S
C2302 C2308 1.368 . S
C2303 C2287 1.349 . S
C2303 H2295 0.950 . S
C2303 C2301 1.327 . S
C2304 C2292 1.349 . S
C2304 H2298 0.950 . S
C2304 C2305 1.327 . S
C2305 H2299 0.950 . S
C2305 C2304 1.327 . S
C2305 C2309 1.429 . S
C2306 C2289 1.574 . S
C2306 H2300 0.949 . S
C2306 C2310 1.368 . S
C2307 C2288 1.429 . S
C2307 C2301 1.429 . S
C2307 C2308 1.523 . S
C2308 C2289 1.368 . S
C2308 C2302 1.368 . S
C2308 C2307 1.523 . S
C2309 C2293 1.429 . S
C2309 C2305 1.429 . S
C2309 C2310 1.523 . S
C2310 C2294 1.368 . S
C2310 C2306 1.368 . S
C2310 C2309 1.523 . S
H2311 C2286 0.950 . S
H2312 C2288 0.950 . S
H2313 C2289 0.949 . S
H2314 C2291 0.950 . S
H2315 C2293 0.950 . S
C2316 C2317 1.349 . S
C2316 C2318 1.327 . S
C2316 H2341 0.950 . S
C2317 C2316 1.349 . S
C2317 C2333 1.349 . S
C2318 C2316 1.327 . S
C2318 C2337 1.429 . S
C2318 H2342 0.950 . S
C2319 C2336 1.574 . S
C2319 C2338 1.368 . S
C2319 H2343 0.949 . S
H2320 C2324 0.949 . S
C2321 C2322 1.349 . S
C2321 C2323 1.327 . S
C2321 H2344 0.950 . S
C2322 C2321 1.349 . S
C2322 C2334 1.349 . S
C2323 C2321 1.327 . S
C2323 C2339 1.429 . S
C2323 H2345 0.950 . S
C2324 H2320 0.949 . S
C2324 C2332 1.574 . S
C2324 C2340 1.368 . S
H2325 C2333 0.950 . S
H2326 C2331 0.950 . S
H2327 C2332 0.949 . S
H2328 C2334 0.950 . S
H2329 C2335 0.950 . S
H2330 C2336 0.949 . S
C2331 H2326 0.950 . S
C2331 C2333 1.327 . S
C2331 C2337 1.429 . S
C2332 C2324 1.574 . S
C2332 H2327 0.949 . S
C2332 C2338 1.368 . S
C2333 C2317 1.349 . S
C2333 H2325 0.950 . S
C2333 C2331 1.327 . S
C2334 C2322 1.349 . S
C2334 H2328 0.950 . S
C2334 C2335 1.327 . S
C2335 H2329 0.950 . S
C2335 C2334 1.327 . S
C2335 C2339 1.429 . S
C2336 C2319 1.574 . S
C2336 H2330 0.949 . S
C2336 C2340 1.368 . S
C2337 C2318 1.429 . S
C2337 C2331 1.429 . S
C2337 C2338 1.523 . S
C2338 C2319 1.368 . S
C2338 C2332 1.368 . S
C2338 C2337 1.523 . S
C2339 C2323 1.429 . S
C2339 C2335 1.429 . S
C2339 C2340 1.523 . S
C2340 C2324 1.368 . S
C2340 C2336 1.368 . S
C2340 C2339 1.523 . S
H2341 C2316 0.950 . S
H2342 C2318 0.950 . S
H2343 C2319 0.949 . S
H2344 C2321 0.950 . S
H2345 C2323 0.950 . S
C2346 C2347 1.349 . S
C2346 C2348 1.327 . S
C2346 H2371 0.950 . S
C2347 C2346 1.349 . S
C2347 C2363 1.349 . S
C2348 C2346 1.327 . S
C2348 C2367 1.429 . S
C2348 H2372 0.950 . S
C2349 C2366 1.574 . S
C2349 C2368 1.368 . S
C2349 H2373 0.949 . S
H2350 C2354 0.949 . S
C2351 C2352 1.349 1_455 S
C2351 C2353 1.327 . S
C2351 H2374 0.950 . S
C2352 C2351 1.349 1_655 S
C2352 C2364 1.349 1_655 S
C2353 C2351 1.327 . S
C2353 C2369 1.429 . S
C2353 H2375 0.950 . S
C2354 H2350 0.949 . S
C2354 C2362 1.574 . S
C2354 C2370 1.368 . S
H2355 C2363 0.950 . S
H2356 C2361 0.950 . S
H2357 C2362 0.949 . S
H2358 C2364 0.950 1_655 S
H2359 C2365 0.950 . S
H2360 C2366 0.949 . S
C2361 H2356 0.950 . S
C2361 C2363 1.327 . S
C2361 C2367 1.429 . S
C2362 C2354 1.574 . S
C2362 H2357 0.949 . S
C2362 C2368 1.368 . S
C2363 C2347 1.349 . S
C2363 H2355 0.950 . S
C2363 C2361 1.327 . S
C2364 C2352 1.349 1_455 S
C2364 H2358 0.950 1_455 S
C2364 C2365 1.327 . S
C2365 H2359 0.950 . S
C2365 C2364 1.327 . S
C2365 C2369 1.429 . S
C2366 C2349 1.574 . S
C2366 H2360 0.949 . S
C2366 C2370 1.368 . S
C2367 C2348 1.429 . S
C2367 C2361 1.429 . S
C2367 C2368 1.523 . S
C2368 C2349 1.368 . S
C2368 C2362 1.368 . S
C2368 C2367 1.523 . S
C2369 C2353 1.429 . S
C2369 C2365 1.429 . S
C2369 C2370 1.523 . S
C2370 C2354 1.368 . S
C2370 C2366 1.368 . S
C2370 C2369 1.523 . S
H2371 C2346 0.950 . S
H2372 C2348 0.950 . S
H2373 C2349 0.949 . S
H2374 C2351 0.950 . S
H2375 C2353 0.950 . S
C2376 C2377 1.349 . S
C2376 C2378 1.327 . S
C2376 H2401 0.950 . S
C2377 C2376 1.349 . S
C2377 C2393 1.349 . S
C2378 C2376 1.327 . S
C2378 C2397 1.429 . S
C2378 H2402 0.950 . S
C2379 C2396 1.574 . S
C2379 C2398 1.368 . S
C2379 H2403 0.949 . S
H2380 C2384 0.949 . S
C2381 C2382 1.349 . S
C2381 C2383 1.327 . S
C2381 H2404 0.950 . S
C2382 C2381 1.349 . S
C2382 C2394 1.349 . S
C2383 C2381 1.327 . S
C2383 C2399 1.429 . S
C2383 H2405 0.950 . S
C2384 H2380 0.949 . S
C2384 C2392 1.574 . S
C2384 C2400 1.368 . S
H2385 C2393 0.950 . S
H2386 C2391 0.950 . S
H2387 C2392 0.949 . S
H2388 C2394 0.950 . S
H2389 C2395 0.950 . S
H2390 C2396 0.949 . S
C2391 H2386 0.950 . S
C2391 C2393 1.327 . S
C2391 C2397 1.429 . S
C2392 C2384 1.574 . S
C2392 H2387 0.949 . S
C2392 C2398 1.368 . S
C2393 C2377 1.349 . S
C2393 H2385 0.950 . S
C2393 C2391 1.327 . S
C2394 C2382 1.349 . S
C2394 H2388 0.950 . S
C2394 C2395 1.327 . S
C2395 H2389 0.950 . S
C2395 C2394 1.327 . S
C2395 C2399 1.429 . S
C2396 C2379 1.574 . S
C2396 H2390 0.949 . S
C2396 C2400 1.368 . S
C2397 C2378 1.429 . S
C2397 C2391 1.429 . S
C2397 C2398 1.523 . S
C2398 C2379 1.368 . S
C2398 C2392 1.368 . S
C2398 C2397 1.523 . S
C2399 C2383 1.429 . S
C2399 C2395 1.429 . S
C2399 C2400 1.523 . S
C2400 C2384 1.368 . S
C2400 C2396 1.368 . S
C2400 C2399 1.523 . S
H2401 C2376 0.950 . S
H2402 C2378 0.950 . S
H2403 C2379 0.949 . S
H2404 C2381 0.950 . S
H2405 C2383 0.950 . S
C2406 C2407 1.349 1_455 S
C2406 C2408 1.327 . S
C2406 H2431 0.950 . S
C2407 C2406 1.349 1_655 S
C2407 C2423 1.349 1_655 S
C2408 C2406 1.327 . S
C2408 C2427 1.429 . S
C2408 H2432 0.950 . S
C2409 C2426 1.574 . S
C2409 C2428 1.368 . S
C2409 H2433 0.949 . S
H2410 C2414 0.949 . S
C2411 C2412 1.349 . S
C2411 C2413 1.327 . S
C2411 H2434 0.950 . S
C2412 C2411 1.349 . S
C2412 C2424 1.349 . S
C2413 C2411 1.327 . S
C2413 C2429 1.429 . S
C2413 H2435 0.950 . S
C2414 H2410 0.949 . S
C2414 C2422 1.574 . S
C2414 C2430 1.368 . S
H2415 C2423 0.950 1_655 S
H2416 C2421 0.950 . S
H2417 C2422 0.949 . S
H2418 C2424 0.950 . S
H2419 C2425 0.950 . S
H2420 C2426 0.949 . S
C2421 H2416 0.950 . S
C2421 C2423 1.327 . S
C2421 C2427 1.429 . S
C2422 C2414 1.574 . S
C2422 H2417 0.949 . S
C2422 C2428 1.368 . S
C2423 C2407 1.349 1_455 S
C2423 H2415 0.950 1_455 S
C2423 C2421 1.327 . S
C2424 C2412 1.349 . S
C2424 H2418 0.950 . S
C2424 C2425 1.327 . S
C2425 H2419 0.950 . S
C2425 C2424 1.327 . S
C2425 C2429 1.429 . S
C2426 C2409 1.574 . S
C2426 H2420 0.949 . S
C2426 C2430 1.368 . S
C2427 C2408 1.429 . S
C2427 C2421 1.429 . S
C2427 C2428 1.523 . S
C2428 C2409 1.368 . S
C2428 C2422 1.368 . S
C2428 C2427 1.523 . S
C2429 C2413 1.429 . S
C2429 C2425 1.429 . S
C2429 C2430 1.523 . S
C2430 C2414 1.368 . S
C2430 C2426 1.368 . S
C2430 C2429 1.523 . S
H2431 C2406 0.950 . S
H2432 C2408 0.950 . S
H2433 C2409 0.949 . S
H2434 C2411 0.950 . S
H2435 C2413 0.950 . S
C2436 C2437 1.349 . S
C2436 C2438 1.327 . S
C2436 H2461 0.950 . S
C2437 C2436 1.349 . S
C2437 C2453 1.349 . S
C2438 C2436 1.327 . S
C2438 C2457 1.429 . S
C2438 H2462 0.950 . S
C2439 C2456 1.574 . S
C2439 C2458 1.368 . S
C2439 H2463 0.949 . S
H2440 C2444 0.949 . S
C2441 C2442 1.349 . S
C2441 C2443 1.327 . S
C2441 H2464 0.950 . S
C2442 C2441 1.349 . S
C2442 C2454 1.349 . S
C2443 C2441 1.327 . S
C2443 C2459 1.429 . S
C2443 H2465 0.950 . S
C2444 H2440 0.949 . S
C2444 C2452 1.574 . S
C2444 C2460 1.368 . S
H2445 C2453 0.950 . S
H2446 C2451 0.950 . S
H2447 C2452 0.949 . S
H2448 C2454 0.950 . S
H2449 C2455 0.950 . S
H2450 C2456 0.949 . S
C2451 H2446 0.950 . S
C2451 C2453 1.327 . S
C2451 C2457 1.429 . S
C2452 C2444 1.574 . S
C2452 H2447 0.949 . S
C2452 C2458 1.368 . S
C2453 C2437 1.349 . S
C2453 H2445 0.950 . S
C2453 C2451 1.327 . S
C2454 C2442 1.349 . S
C2454 H2448 0.950 . S
C2454 C2455 1.327 . S
C2455 H2449 0.950 . S
C2455 C2454 1.327 . S
C2455 C2459 1.429 . S
C2456 C2439 1.574 . S
C2456 H2450 0.949 . S
C2456 C2460 1.368 . S
C2457 C2438 1.429 . S
C2457 C2451 1.429 . S
C2457 C2458 1.523 . S
C2458 C2439 1.368 . S
C2458 C2452 1.368 . S
C2458 C2457 1.523 . S
C2459 C2443 1.429 . S
C2459 C2455 1.429 . S
C2459 C2460 1.523 . S
C2460 C2444 1.368 . S
C2460 C2456 1.368 . S
C2460 C2459 1.523 . S
H2461 C2436 0.950 . S
H2462 C2438 0.950 . S
H2463 C2439 0.949 . S
H2464 C2441 0.950 . S
H2465 C2443 0.950 . S
C2466 C2467 1.349 . S
C2466 C2468 1.327 . S
C2466 H2491 0.950 . S
C2467 C2466 1.349 . S
C2467 C2483 1.349 . S
C2468 C2466 1.327 . S
C2468 C2487 1.429 . S
C2468 H2492 0.950 . S
C2469 C2486 1.574 . S
C2469 C2488 1.368 . S
C2469 H2493 0.949 . S
H2470 C2474 0.949 . S
C2471 C2472 1.349 . S
C2471 C2473 1.327 . S
C2471 H2494 0.950 . S
C2472 C2471 1.349 . S
C2472 C2484 1.349 . S
C2473 C2471 1.327 . S
C2473 C2489 1.429 . S
C2473 H2495 0.950 . S
C2474 H2470 0.949 . S
C2474 C2482 1.574 . S
C2474 C2490 1.368 . S
H2475 C2483 0.950 . S
H2476 C2481 0.950 . S
H2477 C2482 0.949 . S
H2478 C2484 0.950 . S
H2479 C2485 0.950 . S
H2480 C2486 0.949 . S
C2481 H2476 0.950 . S
C2481 C2483 1.327 . S
C2481 C2487 1.429 . S
C2482 C2474 1.574 . S
C2482 H2477 0.949 . S
C2482 C2488 1.368 . S
C2483 C2467 1.349 . S
C2483 H2475 0.950 . S
C2483 C2481 1.327 . S
C2484 C2472 1.349 . S
C2484 H2478 0.950 . S
C2484 C2485 1.327 . S
C2485 H2479 0.950 . S
C2485 C2484 1.327 . S
C2485 C2489 1.429 . S
C2486 C2469 1.574 . S
C2486 H2480 0.949 . S
C2486 C2490 1.368 . S
C2487 C2468 1.429 . S
C2487 C2481 1.429 . S
C2487 C2488 1.523 . S
C2488 C2469 1.368 . S
C2488 C2482 1.368 . S
C2488 C2487 1.523 . S
C2489 C2473 1.429 . S
C2489 C2485 1.429 . S
C2489 C2490 1.523 . S
C2490 C2474 1.368 . S
C2490 C2486 1.368 . S
C2490 C2489 1.523 . S
H2491 C2466 0.950 . S
H2492 C2468 0.950 . S
H2493 C2469 0.949 . S
H2494 C2471 0.950 . S
H2495 C2473 0.950 . S
C2496 C2497 1.349 . S
C2496 C2498 1.327 . S
C2496 H2521 0.950 . S
C2497 C2496 1.349 . S
C2497 C2513 1.349 . S
C2498 C2496 1.327 . S
C2498 C2517 1.429 . S
C2498 H2522 0.950 . S
C2499 C2516 1.574 1_554 S
C2499 C2518 1.368 . S
C2499 H2523 0.949 . S
H2500 C2504 0.949 . S
C2501 C2502 1.349 . S
C2501 C2503 1.327 . S
C2501 H2524 0.950 . S
C2502 C2501 1.349 . S
C2502 C2514 1.349 . S
C2503 C2501 1.327 . S
C2503 C2519 1.429 . S
C2503 H2525 0.950 . S
C2504 H2500 0.949 . S
C2504 C2512 1.574 1_556 S
C2504 C2520 1.368 . S
H2505 C2513 0.950 . S
H2506 C2511 0.950 . S
H2507 C2512 0.949 . S
H2508 C2514 0.950 . S
H2509 C2515 0.950 . S
H2510 C2516 0.949 . S
C2511 H2506 0.950 . S
C2511 C2513 1.327 . S
C2511 C2517 1.429 . S
C2512 C2504 1.574 1_554 S
C2512 H2507 0.949 . S
C2512 C2518 1.368 . S
C2513 C2497 1.349 . S
C2513 H2505 0.950 . S
C2513 C2511 1.327 . S
C2514 C2502 1.349 . S
C2514 H2508 0.950 . S
C2514 C2515 1.327 . S
C2515 H2509 0.950 . S
C2515 C2514 1.327 . S
C2515 C2519 1.429 . S
C2516 C2499 1.574 1_556 S
C2516 H2510 0.949 . S
C2516 C2520 1.368 . S
C2517 C2498 1.429 . S
C2517 C2511 1.429 . S
C2517 C2518 1.523 . S
C2518 C2499 1.368 . S
C2518 C2512 1.368 . S
C2518 C2517 1.523 . S
C2519 C2503 1.429 . S
C2519 C2515 1.429 . S
C2519 C2520 1.523 . S
C2520 C2504 1.368 . S
C2520 C2516 1.368 . S
C2520 C2519 1.523 . S
H2521 C2496 0.950 . S
H2522 C2498 0.950 . S
H2523 C2499 0.949 . S
H2524 C2501 0.950 . S
H2525 C2503 0.950 . S
C2526 C2527 1.349 . S
C2526 C2528 1.327 . S
C2526 H2551 0.950 . S
C2527 C2526 1.349 . S
C2527 C2543 1.349 . S
C2528 C2526 1.327 . S
C2528 C2547 1.429 . S
C2528 H2552 0.950 1_565 S
C2529 C2546 1.574 . S
C2529 C2548 1.368 . S
C2529 H2553 0.949 . S
H2530 C2534 0.949 . S
C2531 C2532 1.349 . S
C2531 C2533 1.327 . S
C2531 H2554 0.950 . S
C2532 C2531 1.349 . S
C2532 C2544 1.349 . S
C2533 C2531 1.327 . S
C2533 C2549 1.429 . S
C2533 H2555 0.950 1_545 S
C2534 H2530 0.949 . S
C2534 C2542 1.574 . S
C2534 C2550 1.368 . S
H2535 C2543 0.950 . S
H2536 C2541 0.950 . S
H2537 C2542 0.949 . S
H2538 C2544 0.950 . S
H2539 C2545 0.950 . S
H2540 C2546 0.949 . S
C2541 H2536 0.950 . S
C2541 C2543 1.327 . S
C2541 C2547 1.429 . S
C2542 C2534 1.574 . S
C2542 H2537 0.949 . S
C2542 C2548 1.368 1_545 S
C2543 C2527 1.349 . S
C2543 H2535 0.950 . S
C2543 C2541 1.327 . S
C2544 C2532 1.349 . S
C2544 H2538 0.950 . S
C2544 C2545 1.327 . S
C2545 H2539 0.950 . S
C2545 C2544 1.327 . S
C2545 C2549 1.429 . S
C2546 C2529 1.574 . S
C2546 H2540 0.949 . S
C2546 C2550 1.368 1_565 S
C2547 C2528 1.429 . S
C2547 C2541 1.429 . S
C2547 C2548 1.523 . S
C2548 C2529 1.368 . S
C2548 C2542 1.368 1_565 S
C2548 C2547 1.523 . S
C2549 C2533 1.429 . S
C2549 C2545 1.429 . S
C2549 C2550 1.523 . S
C2550 C2534 1.368 . S
C2550 C2546 1.368 1_545 S
C2550 C2549 1.523 . S
H2551 C2526 0.950 . S
H2552 C2528 0.950 1_545 S
H2553 C2529 0.949 . S
H2554 C2531 0.950 . S
H2555 C2533 0.950 1_565 S
C2556 C2557 1.349 . S
C2556 C2558 1.327 . S
C2556 H2581 0.950 . S
C2557 C2556 1.349 . S
C2557 C2573 1.349 . S
C2558 C2556 1.327 . S
C2558 C2577 1.429 . S
C2558 H2582 0.950 . S
C2559 C2576 1.574 . S
C2559 C2578 1.368 . S
C2559 H2583 0.949 . S
H2560 C2564 0.949 . S
C2561 C2562 1.349 . S
C2561 C2563 1.327 . S
C2561 H2584 0.950 . S
C2562 C2561 1.349 . S
C2562 C2574 1.349 . S
C2563 C2561 1.327 . S
C2563 C2579 1.429 . S
C2563 H2585 0.950 . S
C2564 H2560 0.949 . S
C2564 C2572 1.574 . S
C2564 C2580 1.368 . S
H2565 C2573 0.950 . S
H2566 C2571 0.950 . S
H2567 C2572 0.949 . S
H2568 C2574 0.950 . S
H2569 C2575 0.950 . S
H2570 C2576 0.949 . S
C2571 H2566 0.950 . S
C2571 C2573 1.327 . S
C2571 C2577 1.429 . S
C2572 C2564 1.574 . S
C2572 H2567 0.949 . S
C2572 C2578 1.368 . S
C2573 C2557 1.349 . S
C2573 H2565 0.950 . S
C2573 C2571 1.327 . S
C2574 C2562 1.349 . S
C2574 H2568 0.950 . S
C2574 C2575 1.327 . S
C2575 H2569 0.950 . S
C2575 C2574 1.327 . S
C2575 C2579 1.429 . S
C2576 C2559 1.574 . S
C2576 H2570 0.949 . S
C2576 C2580 1.368 . S
C2577 C2558 1.429 . S
C2577 C2571 1.429 . S
C2577 C2578 1.523 . S
C2578 C2559 1.368 . S
C2578 C2572 1.368 . S
C2578 C2577 1.523 . S
C2579 C2563 1.429 . S
C2579 C2575 1.429 . S
C2579 C2580 1.523 . S
C2580 C2564 1.368 . S
C2580 C2576 1.368 . S
C2580 C2579 1.523 . S
H2581 C2556 0.950 . S
H2582 C2558 0.950 . S
H2583 C2559 0.949 . S
H2584 C2561 0.950 . S
H2585 C2563 0.950 . S
C2586 C2587 1.349 . S
C2586 C2588 1.327 . S
C2586 H2611 0.950 . S
C2587 C2586 1.349 . S
C2587 C2603 1.349 . S
C2588 C2586 1.327 . S
C2588 C2607 1.429 . S
C2588 H2612 0.950 . S
C2589 C2606 1.574 . S
C2589 C2608 1.368 1_545 S
C2589 H2613 0.949 . S
H2590 C2594 0.949 . S
C2591 C2592 1.349 . S
C2591 C2593 1.327 . S
C2591 H2614 0.950 . S
C2592 C2591 1.349 . S
C2592 C2604 1.349 . S
C2593 C2591 1.327 . S
C2593 C2609 1.429 . S
C2593 H2615 0.950 . S
C2594 H2590 0.949 . S
C2594 C2602 1.574 . S
C2594 C2610 1.368 1_565 S
H2595 C2603 0.950 . S
H2596 C2601 0.950 1_545 S
H2597 C2602 0.949 . S
H2598 C2604 0.950 . S
H2599 C2605 0.950 1_565 S
H2600 C2606 0.949 . S
C2601 H2596 0.950 1_565 S
C2601 C2603 1.327 . S
C2601 C2607 1.429 . S
C2602 C2594 1.574 . S
C2602 H2597 0.949 . S
C2602 C2608 1.368 . S
C2603 C2587 1.349 . S
C2603 H2595 0.950 . S
C2603 C2601 1.327 . S
C2604 C2592 1.349 . S
C2604 H2598 0.950 . S
C2604 C2605 1.327 . S
C2605 H2599 0.950 1_545 S
C2605 C2604 1.327 . S
C2605 C2609 1.429 . S
C2606 C2589 1.574 . S
C2606 H2600 0.949 . S
C2606 C2610 1.368 . S
C2607 C2588 1.429 . S
C2607 C2601 1.429 . S
C2607 C2608 1.523 . S
C2608 C2589 1.368 1_565 S
C2608 C2602 1.368 . S
C2608 C2607 1.523 . S
C2609 C2593 1.429 . S
C2609 C2605 1.429 . S
C2609 C2610 1.523 . S
C2610 C2594 1.368 1_545 S
C2610 C2606 1.368 . S
C2610 C2609 1.523 . S
H2611 C2586 0.950 . S
H2612 C2588 0.950 . S
H2613 C2589 0.949 . S
H2614 C2591 0.950 . S
H2615 C2593 0.950 . S
C2616 C2617 1.349 . S
C2616 C2618 1.327 . S
C2616 H2641 0.950 . S
C2617 C2616 1.349 . S
C2617 C2633 1.349 . S
C2618 C2616 1.327 . S
C2618 C2637 1.429 . S
C2618 H2642 0.950 . S
C2619 C2636 1.574 1_554 S
C2619 C2638 1.368 . S
C2619 H2643 0.949 . S
H2620 C2624 0.949 . S
C2621 C2622 1.349 . S
C2621 C2623 1.327 . S
C2621 H2644 0.950 . S
C2622 C2621 1.349 . S
C2622 C2634 1.349 . S
C2623 C2621 1.327 . S
C2623 C2639 1.429 . S
C2623 H2645 0.950 . S
C2624 H2620 0.949 . S
C2624 C2632 1.574 1_556 S
C2624 C2640 1.368 . S
H2625 C2633 0.950 . S
H2626 C2631 0.950 . S
H2627 C2632 0.949 . S
H2628 C2634 0.950 . S
H2629 C2635 0.950 . S
H2630 C2636 0.949 . S
C2631 H2626 0.950 . S
C2631 C2633 1.327 . S
C2631 C2637 1.429 . S
C2632 C2624 1.574 1_554 S
C2632 H2627 0.949 . S
C2632 C2638 1.368 . S
C2633 C2617 1.349 . S
C2633 H2625 0.950 . S
C2633 C2631 1.327 . S
C2634 C2622 1.349 . S
C2634 H2628 0.950 . S
C2634 C2635 1.327 . S
C2635 H2629 0.950 . S
C2635 C2634 1.327 . S
C2635 C2639 1.429 . S
C2636 C2619 1.574 1_556 S
C2636 H2630 0.949 . S
C2636 C2640 1.368 . S
C2637 C2618 1.429 . S
C2637 C2631 1.429 . S
C2637 C2638 1.523 . S
C2638 C2619 1.368 . S
C2638 C2632 1.368 . S
C2638 C2637 1.523 . S
C2639 C2623 1.429 . S
C2639 C2635 1.429 . S
C2639 C2640 1.523 . S
C2640 C2624 1.368 . S
C2640 C2636 1.368 . S
C2640 C2639 1.523 . S
H2641 C2616 0.950 . S
H2642 C2618 0.950 . S
H2643 C2619 0.949 . S
H2644 C2621 0.950 . S
H2645 C2623 0.950 . S
C2646 C2647 1.349 . S
C2646 C2648 1.327 . S
C2646 H2671 0.950 . S
C2647 C2646 1.349 . S
C2647 C2663 1.349 . S
C2648 C2646 1.327 . S
C2648 C2667 1.429 . S
C2648 H2672 0.950 . S
C2649 C2666 1.574 . S
C2649 C2668 1.368 1_565 S
C2649 H2673 0.949 . S
H2650 C2654 0.949 . S
C2651 C2652 1.349 . S
C2651 C2653 1.327 . S
C2651 H2674 0.950 . S
C2652 C2651 1.349 . S
C2652 C2664 1.349 . S
C2653 C2651 1.327 . S
C2653 C2669 1.429 . S
C2653 H2675 0.950 . S
C2654 H2650 0.949 . S
C2654 C2662 1.574 . S
C2654 C2670 1.368 1_545 S
H2655 C2663 0.950 . S
H2656 C2661 0.950 1_565 S
H2657 C2662 0.949 . S
H2658 C2664 0.950 . S
H2659 C2665 0.950 1_545 S
H2660 C2666 0.949 . S
C2661 H2656 0.950 1_545 S
C2661 C2663 1.327 . S
C2661 C2667 1.429 . S
C2662 C2654 1.574 . S
C2662 H2657 0.949 . S
C2662 C2668 1.368 . S
C2663 C2647 1.349 . S
C2663 H2655 0.950 . S
C2663 C2661 1.327 . S
C2664 C2652 1.349 . S
C2664 H2658 0.950 . S
C2664 C2665 1.327 . S
C2665 H2659 0.950 1_565 S
C2665 C2664 1.327 . S
C2665 C2669 1.429 . S
C2666 C2649 1.574 . S
C2666 H2660 0.949 . S
C2666 C2670 1.368 . S
C2667 C2648 1.429 . S
C2667 C2661 1.429 . S
C2667 C2668 1.523 . S
C2668 C2649 1.368 1_545 S
C2668 C2662 1.368 . S
C2668 C2667 1.523 . S
C2669 C2653 1.429 . S
C2669 C2665 1.429 . S
C2669 C2670 1.523 . S
C2670 C2654 1.368 1_565 S
C2670 C2666 1.368 . S
C2670 C2669 1.523 . S
H2671 C2646 0.950 . S
H2672 C2648 0.950 . S
H2673 C2649 0.949 . S
H2674 C2651 0.950 . S
H2675 C2653 0.950 . S
C2676 C2677 1.349 . S
C2676 C2678 1.327 . S
C2676 H2701 0.950 . S
C2677 C2676 1.349 . S
C2677 C2693 1.349 . S
C2678 C2676 1.327 . S
C2678 C2697 1.429 . S
C2678 H2702 0.950 . S
C2679 C2696 1.574 . S
C2679 C2698 1.368 . S
C2679 H2703 0.949 . S
H2680 C2684 0.949 . S
C2681 C2682 1.349 . S
C2681 C2683 1.327 . S
C2681 H2704 0.950 . S
C2682 C2681 1.349 . S
C2682 C2694 1.349 . S
C2683 C2681 1.327 . S
C2683 C2699 1.429 . S
C2683 H2705 0.950 . S
C2684 H2680 0.949 . S
C2684 C2692 1.574 . S
C2684 C2700 1.368 . S
H2685 C2693 0.950 . S
H2686 C2691 0.950 . S
H2687 C2692 0.949 . S
H2688 C2694 0.950 . S
H2689 C2695 0.950 . S
H2690 C2696 0.949 . S
C2691 H2686 0.950 . S
C2691 C2693 1.327 . S
C2691 C2697 1.429 . S
C2692 C2684 1.574 . S
C2692 H2687 0.949 . S
C2692 C2698 1.368 . S
C2693 C2677 1.349 . S
C2693 H2685 0.950 . S
C2693 C2691 1.327 . S
C2694 C2682 1.349 . S
C2694 H2688 0.950 . S
C2694 C2695 1.327 . S
C2695 H2689 0.950 . S
C2695 C2694 1.327 . S
C2695 C2699 1.429 . S
C2696 C2679 1.574 . S
C2696 H2690 0.949 . S
C2696 C2700 1.368 . S
C2697 C2678 1.429 . S
C2697 C2691 1.429 . S
C2697 C2698 1.523 . S
C2698 C2679 1.368 . S
C2698 C2692 1.368 . S
C2698 C2697 1.523 . S
C2699 C2683 1.429 . S
C2699 C2695 1.429 . S
C2699 C2700 1.523 . S
C2700 C2684 1.368 . S
C2700 C2696 1.368 . S
C2700 C2699 1.523 . S
H2701 C2676 0.950 . S
H2702 C2678 0.950 . S
H2703 C2679 0.949 . S
H2704 C2681 0.950 . S
H2705 C2683 0.950 . S
C2706 C2707 1.349 . S
C2706 C2708 1.327 . S
C2706 H2731 0.950 . S
C2707 C2706 1.349 . S
C2707 C2723 1.349 . S
C2708 C2706 1.327 . S
C2708 C2727 1.429 . S
C2708 H2732 0.950 . S
C2709 C2726 1.574 . S
C2709 C2728 1.368 1_545 S
C2709 H2733 0.949 . S
H2710 C2714 0.949 . S
C2711 C2712 1.349 . S
C2711 C2713 1.327 . S
C2711 H2734 0.950 . S
C2712 C2711 1.349 . S
C2712 C2724 1.349 . S
C2713 C2711 1.327 . S
C2713 C2729 1.429 . S
C2713 H2735 0.950 . S
C2714 H2710 0.949 . S
C2714 C2722 1.574 . S
C2714 C2730 1.368 1_565 S
H2715 C2723 0.952 . S
H2716 C2721 0.950 1_545 S
H2717 C2722 0.949 . S
H2718 C2724 0.952 . S
H2719 C2725 0.950 1_565 S
H2720 C2726 0.949 . S
C2721 H2716 0.950 1_565 S
C2721 C2723 1.327 . S
C2721 C2727 1.429 . S
C2722 C2714 1.574 . S
C2722 H2717 0.949 . S
C2722 C2728 1.368 . S
C2723 C2707 1.349 . S
C2723 H2715 0.952 . S
C2723 C2721 1.327 . S
C2724 C2712 1.349 . S
C2724 H2718 0.952 . S
C2724 C2725 1.327 . S
C2725 H2719 0.950 1_545 S
C2725 C2724 1.327 . S
C2725 C2729 1.429 . S
C2726 C2709 1.574 . S
C2726 H2720 0.949 . S
C2726 C2730 1.368 . S
C2727 C2708 1.429 . S
C2727 C2721 1.429 . S
C2727 C2728 1.523 . S
C2728 C2709 1.368 1_565 S
C2728 C2722 1.368 . S
C2728 C2727 1.523 . S
C2729 C2713 1.429 . S
C2729 C2725 1.429 . S
C2729 C2730 1.523 . S
C2730 C2714 1.368 1_545 S
C2730 C2726 1.368 . S
C2730 C2729 1.523 . S
H2731 C2706 0.950 . S
H2732 C2708 0.950 . S
H2733 C2709 0.949 . S
H2734 C2711 0.950 . S
H2735 C2713 0.950 . S
C2736 C2737 1.349 . S
C2736 C2738 1.327 . S
C2736 H2761 0.950 . S
C2737 C2736 1.349 . S
C2737 C2753 1.349 . S
C2738 C2736 1.327 . S
C2738 C2757 1.429 . S
C2738 H2762 0.950 . S
C2739 C2756 1.574 . S
C2739 C2758 1.368 . S
C2739 H2763 0.949 . S
H2740 C2744 0.949 . S
C2741 C2742 1.349 . S
C2741 C2743 1.327 . S
C2741 H2764 0.950 . S
C2742 C2741 1.349 . S
C2742 C2754 1.349 . S
C2743 C2741 1.327 . S
C2743 C2759 1.429 . S
C2743 H2765 0.950 . S
C2744 H2740 0.949 . S
C2744 C2752 1.574 . S
C2744 C2760 1.368 . S
H2745 C2753 0.950 . S
H2746 C2751 0.950 . S
H2747 C2752 0.949 . S
H2748 C2754 0.950 . S
H2749 C2755 0.950 . S
H2750 C2756 0.949 . S
C2751 H2746 0.950 . S
C2751 C2753 1.327 . S
C2751 C2757 1.429 . S
C2752 C2744 1.574 . S
C2752 H2747 0.949 . S
C2752 C2758 1.368 . S
C2753 C2737 1.349 . S
C2753 H2745 0.950 . S
C2753 C2751 1.327 . S
C2754 C2742 1.349 . S
C2754 H2748 0.950 . S
C2754 C2755 1.327 . S
C2755 H2749 0.950 . S
C2755 C2754 1.327 . S
C2755 C2759 1.429 . S
C2756 C2739 1.574 . S
C2756 H2750 0.949 . S
C2756 C2760 1.368 . S
C2757 C2738 1.429 . S
C2757 C2751 1.429 . S
C2757 C2758 1.523 . S
C2758 C2739 1.368 . S
C2758 C2752 1.368 . S
C2758 C2757 1.523 . S
C2759 C2743 1.429 . S
C2759 C2755 1.429 . S
C2759 C2760 1.523 . S
C2760 C2744 1.368 . S
C2760 C2756 1.368 . S
C2760 C2759 1.523 . S
H2761 C2736 0.950 . S
H2762 C2738 0.950 . S
H2763 C2739 0.949 . S
H2764 C2741 0.950 . S
H2765 C2743 0.950 . S
C2766 C2767 1.349 . S
C2766 C2768 1.327 . S
C2766 H2791 0.950 . S
C2767 C2766 1.349 . S
C2767 C2783 1.349 . S
C2768 C2766 1.327 . S
C2768 C2787 1.429 . S
C2768 H2792 0.950 . S
C2769 C2786 1.574 . S
C2769 C2788 1.368 . S
C2769 H2793 0.949 . S
H2770 C2774 0.949 . S
C2771 C2772 1.349 . S
C2771 C2773 1.327 . S
C2771 H2794 0.950 . S
C2772 C2771 1.349 . S
C2772 C2784 1.349 . S
C2773 C2771 1.327 . S
C2773 C2789 1.429 . S
C2773 H2795 0.950 . S
C2774 H2770 0.949 . S
C2774 C2782 1.574 . S
C2774 C2790 1.368 . S
H2775 C2783 0.950 . S
H2776 C2781 0.950 . S
H2777 C2782 0.949 . S
H2778 C2784 0.950 . S
H2779 C2785 0.950 . S
H2780 C2786 0.949 . S
C2781 H2776 0.950 . S
C2781 C2783 1.327 . S
C2781 C2787 1.429 . S
C2782 C2774 1.574 . S
C2782 H2777 0.949 . S
C2782 C2788 1.368 . S
C2783 C2767 1.349 . S
C2783 H2775 0.950 . S
C2783 C2781 1.327 . S
C2784 C2772 1.349 . S
C2784 H2778 0.950 . S
C2784 C2785 1.327 . S
C2785 H2779 0.950 . S
C2785 C2784 1.327 . S
C2785 C2789 1.429 . S
C2786 C2769 1.574 . S
C2786 H2780 0.949 . S
C2786 C2790 1.368 . S
C2787 C2768 1.429 . S
C2787 C2781 1.429 . S
C2787 C2788 1.523 . S
C2788 C2769 1.368 . S
C2788 C2782 1.368 . S
C2788 C2787 1.523 . S
C2789 C2773 1.429 . S
C2789 C2785 1.429 . S
C2789 C2790 1.523 . S
C2790 C2774 1.368 . S
C2790 C2786 1.368 . S
C2790 C2789 1.523 . S
H2791 C2766 0.950 . S
H2792 C2768 0.950 . S
H2793 C2769 0.949 . S
H2794 C2771 0.950 . S
H2795 C2773 0.950 . S
C2796 C2797 1.349 . S
C2796 C2798 1.327 . S
C2796 H2821 0.950 . S
C2797 C2796 1.349 . S
C2797 C2813 1.349 . S
C2798 C2796 1.327 . S
C2798 C2817 1.429 . S
C2798 H2822 0.950 . S
C2799 C2816 1.574 1_554 S
C2799 C2818 1.368 . S
C2799 H2823 0.949 . S
H2800 C2804 0.949 . S
C2801 C2802 1.349 . S
C2801 C2803 1.327 . S
C2801 H2824 0.950 . S
C2802 C2801 1.349 . S
C2802 C2814 1.349 . S
C2803 C2801 1.327 . S
C2803 C2819 1.429 . S
C2803 H2825 0.950 . S
C2804 H2800 0.949 . S
C2804 C2812 1.574 1_556 S
C2804 C2820 1.368 . S
H2805 C2813 0.950 . S
H2806 C2811 0.950 . S
H2807 C2812 0.949 . S
H2808 C2814 0.950 . S
H2809 C2815 0.950 . S
H2810 C2816 0.949 . S
C2811 H2806 0.950 . S
C2811 C2813 1.327 . S
C2811 C2817 1.429 . S
C2812 C2804 1.574 1_554 S
C2812 H2807 0.949 . S
C2812 C2818 1.368 . S
C2813 C2797 1.349 . S
C2813 H2805 0.950 . S
C2813 C2811 1.327 . S
C2814 C2802 1.349 . S
C2814 H2808 0.950 . S
C2814 C2815 1.327 . S
C2815 H2809 0.950 . S
C2815 C2814 1.327 . S
C2815 C2819 1.429 . S
C2816 C2799 1.574 1_556 S
C2816 H2810 0.949 . S
C2816 C2820 1.368 . S
C2817 C2798 1.429 . S
C2817 C2811 1.429 . S
C2817 C2818 1.523 . S
C2818 C2799 1.368 . S
C2818 C2812 1.368 . S
C2818 C2817 1.523 . S
C2819 C2803 1.429 . S
C2819 C2815 1.429 . S
C2819 C2820 1.523 . S
C2820 C2804 1.368 . S
C2820 C2816 1.368 . S
C2820 C2819 1.523 . S
H2821 C2796 0.950 . S
H2822 C2798 0.950 . S
H2823 C2799 0.949 . S
H2824 C2801 0.950 . S
H2825 C2803 0.950 . S
C2826 C2827 1.349 . S
C2826 C2828 1.327 . S
C2826 H2851 0.950 . S
C2827 C2826 1.349 . S
C2827 C2843 1.349 . S
C2828 C2826 1.327 . S
C2828 C2847 1.429 . S
C2828 H2852 0.950 . S
C2829 C2846 1.574 . S
C2829 C2848 1.368 . S
C2829 H2853 0.949 . S
H2830 C2834 0.949 . S
C2831 C2832 1.349 . S
C2831 C2833 1.327 . S
C2831 H2854 0.950 . S
C2832 C2831 1.349 . S
C2832 C2844 1.349 . S
C2833 C2831 1.327 . S
C2833 C2849 1.429 . S
C2833 H2855 0.950 . S
C2834 H2830 0.949 . S
C2834 C2842 1.574 . S
C2834 C2850 1.368 . S
H2835 C2843 0.950 . S
H2836 C2841 0.950 . S
H2837 C2842 0.949 . S
H2838 C2844 0.950 . S
H2839 C2845 0.950 . S
H2840 C2846 0.949 . S
C2841 H2836 0.950 . S
C2841 C2843 1.327 . S
C2841 C2847 1.429 . S
C2842 C2834 1.574 . S
C2842 H2837 0.949 . S
C2842 C2848 1.368 . S
C2843 C2827 1.349 . S
C2843 H2835 0.950 . S
C2843 C2841 1.327 . S
C2844 C2832 1.349 . S
C2844 H2838 0.950 . S
C2844 C2845 1.327 . S
C2845 H2839 0.950 . S
C2845 C2844 1.327 . S
C2845 C2849 1.429 . S
C2846 C2829 1.574 . S
C2846 H2840 0.949 . S
C2846 C2850 1.368 . S
C2847 C2828 1.429 . S
C2847 C2841 1.429 . S
C2847 C2848 1.523 . S
C2848 C2829 1.368 . S
C2848 C2842 1.368 . S
C2848 C2847 1.523 . S
C2849 C2833 1.429 . S
C2849 C2845 1.429 . S
C2849 C2850 1.523 . S
C2850 C2834 1.368 . S
C2850 C2846 1.368 . S
C2850 C2849 1.523 . S
H2851 C2826 0.950 . S
H2852 C2828 0.950 . S
H2853 C2829 0.949 . S
H2854 C2831 0.950 . S
H2855 C2833 0.950 . S
C2856 C2857 1.349 . S
C2856 C2858 1.327 . S
C2856 H2881 0.950 . S
C2857 C2856 1.349 . S
C2857 C2873 1.349 . S
C2858 C2856 1.327 . S
C2858 C2877 1.429 . S
C2858 H2882 0.950 . S
C2859 C2876 1.574 . S
C2859 C2878 1.368 . S
C2859 H2883 0.949 . S
H2860 C2864 0.949 . S
C2861 C2862 1.349 . S
C2861 C2863 1.327 . S
C2861 H2884 0.950 . S
C2862 C2861 1.349 . S
C2862 C2874 1.349 . S
C2863 C2861 1.327 . S
C2863 C2879 1.429 . S
C2863 H2885 0.950 . S
C2864 H2860 0.949 . S
C2864 C2872 1.574 . S
C2864 C2880 1.368 . S
H2865 C2873 0.950 . S
H2866 C2871 0.950 . S
H2867 C2872 0.949 . S
H2868 C2874 0.950 . S
H2869 C2875 0.950 . S
H2870 C2876 0.949 . S
C2871 H2866 0.950 . S
C2871 C2873 1.327 . S
C2871 C2877 1.429 . S
C2872 C2864 1.574 . S
C2872 H2867 0.949 . S
C2872 C2878 1.368 . S
C2873 C2857 1.349 . S
C2873 H2865 0.950 . S
C2873 C2871 1.327 . S
C2874 C2862 1.349 . S
C2874 H2868 0.950 . S
C2874 C2875 1.327 . S
C2875 H2869 0.950 . S
C2875 C2874 1.327 . S
C2875 C2879 1.429 . S
C2876 C2859 1.574 . S
C2876 H2870 0.949 . S
C2876 C2880 1.368 . S
C2877 C2858 1.429 . S
C2877 C2871 1.429 . S
C2877 C2878 1.523 . S
C2878 C2859 1.368 . S
C2878 C2872 1.368 . S
C2878 C2877 1.523 . S
C2879 C2863 1.429 . S
C2879 C2875 1.429 . S
C2879 C2880 1.523 . S
C2880 C2864 1.368 . S
C2880 C2876 1.368 . S
C2880 C2879 1.523 . S
H2881 C2856 0.950 . S
H2882 C2858 0.950 . S
H2883 C2859 0.949 . S
H2884 C2861 0.950 . S
H2885 C2863 0.950 . S
C2886 C2887 1.349 . S
C2886 C2888 1.327 . S
C2886 H2911 0.950 . S
C2887 C2886 1.349 . S
C2887 C2903 1.349 . S
C2888 C2886 1.327 . S
C2888 C2907 1.429 . S
C2888 H2912 0.950 . S
C2889 C2906 1.574 . S
C2889 C2908 1.368 . S
C2889 H2913 0.949 . S
H2890 C2894 0.949 . S
C2891 C2892 1.349 . S
C2891 C2893 1.327 . S
C2891 H2914 0.950 . S
C2892 C2891 1.349 . S
C2892 C2904 1.349 . S
C2893 C2891 1.327 . S
C2893 C2909 1.429 . S
C2893 H2915 0.950 . S
C2894 H2890 0.949 . S
C2894 C2902 1.574 . S
C2894 C2910 1.368 . S
H2895 C2903 0.950 . S
H2896 C2901 0.950 . S
H2897 C2902 0.949 . S
H2898 C2904 0.950 . S
H2899 C2905 0.950 . S
H2900 C2906 0.949 . S
C2901 H2896 0.950 . S
C2901 C2903 1.327 . S
C2901 C2907 1.429 . S
C2902 C2894 1.574 . S
C2902 H2897 0.949 . S
C2902 C2908 1.368 . S
C2903 C2887 1.349 . S
C2903 H2895 0.950 . S
C2903 C2901 1.327 . S
C2904 C2892 1.349 . S
C2904 H2898 0.950 . S
C2904 C2905 1.327 . S
C2905 H2899 0.950 . S
C2905 C2904 1.327 . S
C2905 C2909 1.429 . S
C2906 C2889 1.574 . S
C2906 H2900 0.949 . S
C2906 C2910 1.368 . S
C2907 C2888 1.429 . S
C2907 C2901 1.429 . S
C2907 C2908 1.523 . S
C2908 C2889 1.368 . S
C2908 C2902 1.368 . S
C2908 C2907 1.523 . S
C2909 C2893 1.429 . S
C2909 C2905 1.429 . S
C2909 C2910 1.523 . S
C2910 C2894 1.368 . S
C2910 C2906 1.368 . S
C2910 C2909 1.523 . S
H2911 C2886 0.950 . S
H2912 C2888 0.950 . S
H2913 C2889 0.949 . S
H2914 C2891 0.950 . S
H2915 C2893 0.950 . S
C2916 C2917 1.349 . S
C2916 C2918 1.327 . S
C2916 H2941 0.950 . S
C2917 C2916 1.349 . S
C2917 C2933 1.349 . S
C2918 C2916 1.327 . S
C2918 C2937 1.429 . S
C2918 H2942 0.950 . S
C2919 C2936 1.574 1_556 S
C2919 C2938 1.368 . S
C2919 H2943 0.949 . S
H2920 C2924 0.949 . S
C2921 C2922 1.349 . S
C2921 C2923 1.327 . S
C2921 H2944 0.950 . S
C2922 C2921 1.349 . S
C2922 C2934 1.349 . S
C2923 C2921 1.327 . S
C2923 C2939 1.429 . S
C2923 H2945 0.950 . S
C2924 H2920 0.949 . S
C2924 C2932 1.574 1_554 S
C2924 C2940 1.368 . S
H2925 C2933 0.950 . S
H2926 C2931 0.950 . S
H2927 C2932 0.949 . S
H2928 C2934 0.950 . S
H2929 C2935 0.950 . S
H2930 C2936 0.949 . S
C2931 H2926 0.950 . S
C2931 C2933 1.327 . S
C2931 C2937 1.429 . S
C2932 C2924 1.574 1_556 S
C2932 H2927 0.949 . S
C2932 C2938 1.368 . S
C2933 C2917 1.349 . S
C2933 H2925 0.950 . S
C2933 C2931 1.327 . S
C2934 C2922 1.349 . S
C2934 H2928 0.950 . S
C2934 C2935 1.327 . S
C2935 H2929 0.950 . S
C2935 C2934 1.327 . S
C2935 C2939 1.429 . S
C2936 C2919 1.574 1_554 S
C2936 H2930 0.949 . S
C2936 C2940 1.368 . S
C2937 C2918 1.429 . S
C2937 C2931 1.429 . S
C2937 C2938 1.523 . S
C2938 C2919 1.368 . S
C2938 C2932 1.368 . S
C2938 C2937 1.523 . S
C2939 C2923 1.429 . S
C2939 C2935 1.429 . S
C2939 C2940 1.523 . S
C2940 C2924 1.368 . S
C2940 C2936 1.368 . S
C2940 C2939 1.523 . S
H2941 C2916 0.950 . S
H2942 C2918 0.950 . S
H2943 C2919 0.949 . S
H2944 C2921 0.950 . S
H2945 C2923 0.950 . S
C2946 C2947 1.349 . S
C2946 C2948 1.327 . S
C2946 H2971 0.950 . S
C2947 C2946 1.349 . S
C2947 C2963 1.349 . S
C2948 C2946 1.327 . S
C2948 C2967 1.429 . S
C2948 H2972 0.950 . S
C2949 C2966 1.574 . S
C2949 C2968 1.368 . S
C2949 H2973 0.949 . S
H2950 C2954 0.949 . S
C2951 C2952 1.349 . S
C2951 C2953 1.327 . S
C2951 H2974 0.950 . S
C2952 C2951 1.349 . S
C2952 C2964 1.349 . S
C2953 C2951 1.327 . S
C2953 C2969 1.429 . S
C2953 H2975 0.950 . S
C2954 H2950 0.949 . S
C2954 C2962 1.574 . S
C2954 C2970 1.368 . S
H2955 C2963 0.950 . S
H2956 C2961 0.950 . S
H2957 C2962 0.949 . S
H2958 C2964 0.950 . S
H2959 C2965 0.950 . S
H2960 C2966 0.949 . S
C2961 H2956 0.950 . S
C2961 C2963 1.327 . S
C2961 C2967 1.429 . S
C2962 C2954 1.574 . S
C2962 H2957 0.949 . S
C2962 C2968 1.368 . S
C2963 C2947 1.349 . S
C2963 H2955 0.950 . S
C2963 C2961 1.327 . S
C2964 C2952 1.349 . S
C2964 H2958 0.950 . S
C2964 C2965 1.327 . S
C2965 H2959 0.950 . S
C2965 C2964 1.327 . S
C2965 C2969 1.429 . S
C2966 C2949 1.574 . S
C2966 H2960 0.949 . S
C2966 C2970 1.368 . S
C2967 C2948 1.429 . S
C2967 C2961 1.429 . S
C2967 C2968 1.523 . S
C2968 C2949 1.368 . S
C2968 C2962 1.368 . S
C2968 C2967 1.523 . S
C2969 C2953 1.429 . S
C2969 C2965 1.429 . S
C2969 C2970 1.523 . S
C2970 C2954 1.368 . S
C2970 C2966 1.368 . S
C2970 C2969 1.523 . S
H2971 C2946 0.950 . S
H2972 C2948 0.950 . S
H2973 C2949 0.949 . S
H2974 C2951 0.950 . S
H2975 C2953 0.950 . S
C2976 C2977 1.349 . S
C2976 C2978 1.327 . S
C2976 H3001 0.950 . S
C2977 C2976 1.349 . S
C2977 C2993 1.349 . S
C2978 C2976 1.327 . S
C2978 C2997 1.429 . S
C2978 H3002 0.950 . S
C2979 C2996 1.574 . S
C2979 C2998 1.368 . S
C2979 H3003 0.949 . S
H2980 C2984 0.949 . S
C2981 C2982 1.349 . S
C2981 C2983 1.327 . S
C2981 H3004 0.950 . S
C2982 C2981 1.349 . S
C2982 C2994 1.349 . S
C2983 C2981 1.327 . S
C2983 C2999 1.429 . S
C2983 H3005 0.950 . S
C2984 H2980 0.949 . S
C2984 C2992 1.574 . S
C2984 C3000 1.368 . S
H2985 C2993 0.950 . S
H2986 C2991 0.950 . S
H2987 C2992 0.949 . S
H2988 C2994 0.950 . S
H2989 C2995 0.950 . S
H2990 C2996 0.949 . S
C2991 H2986 0.950 . S
C2991 C2993 1.327 . S
C2991 C2997 1.429 . S
C2992 C2984 1.574 . S
C2992 H2987 0.949 . S
C2992 C2998 1.368 . S
C2993 C2977 1.349 . S
C2993 H2985 0.950 . S
C2993 C2991 1.327 . S
C2994 C2982 1.349 . S
C2994 H2988 0.950 . S
C2994 C2995 1.327 . S
C2995 H2989 0.950 . S
C2995 C2994 1.327 . S
C2995 C2999 1.429 . S
C2996 C2979 1.574 . S
C2996 H2990 0.949 . S
C2996 C3000 1.368 . S
C2997 C2978 1.429 . S
C2997 C2991 1.429 . S
C2997 C2998 1.523 . S
C2998 C2979 1.368 . S
C2998 C2992 1.368 . S
C2998 C2997 1.523 . S
C2999 C2983 1.429 . S
C2999 C2995 1.429 . S
C2999 C3000 1.523 . S
C3000 C2984 1.368 . S
C3000 C2996 1.368 . S
C3000 C2999 1.523 . S
H3001 C2976 0.950 . S
H3002 C2978 0.950 . S
H3003 C2979 0.949 . S
H3004 C2981 0.950 . S
H3005 C2983 0.950 . S
C3006 C3007 1.349 . S
C3006 C3008 1.327 . S
C3006 H3031 0.950 . S
C3007 C3006 1.349 . S
C3007 C3023 1.349 . S
C3008 C3006 1.327 . S
C3008 C3027 1.429 . S
C3008 H3032 0.950 . S
C3009 C3026 1.574 . S
C3009 C3028 1.368 . S
C3009 H3033 0.949 . S
H3010 C3014 0.949 . S
C3011 C3012 1.349 . S
C3011 C3013 1.327 . S
C3011 H3034 0.950 . S
C3012 C3011 1.349 . S
C3012 C3024 1.349 . S
C3013 C3011 1.327 . S
C3013 C3029 1.429 . S
C3013 H3035 0.950 . S
C3014 H3010 0.949 . S
C3014 C3022 1.574 . S
C3014 C3030 1.368 . S
H3015 C3023 0.950 1_545 S
H3016 C3021 0.950 . S
H3017 C3022 0.949 . S
H3018 C3024 0.950 . S
H3019 C3025 0.950 . S
H3020 C3026 0.949 . S
C3021 H3016 0.950 . S
C3021 C3023 1.327 . S
C3021 C3027 1.429 . S
C3022 C3014 1.574 . S
C3022 H3017 0.949 . S
C3022 C3028 1.368 . S
C3023 C3007 1.349 . S
C3023 H3015 0.950 1_565 S
C3023 C3021 1.327 . S
C3024 C3012 1.349 . S
C3024 H3018 0.950 . S
C3024 C3025 1.327 . S
C3025 H3019 0.950 . S
C3025 C3024 1.327 . S
C3025 C3029 1.429 . S
C3026 C3009 1.574 . S
C3026 H3020 0.949 . S
C3026 C3030 1.368 . S
C3027 C3008 1.429 . S
C3027 C3021 1.429 . S
C3027 C3028 1.523 . S
C3028 C3009 1.368 . S
C3028 C3022 1.368 . S
C3028 C3027 1.523 . S
C3029 C3013 1.429 . S
C3029 C3025 1.429 . S
C3029 C3030 1.523 . S
C3030 C3014 1.368 . S
C3030 C3026 1.368 . S
C3030 C3029 1.523 . S
H3031 C3006 0.950 . S
H3032 C3008 0.950 . S
H3033 C3009 0.949 . S
H3034 C3011 0.950 . S
H3035 C3013 0.950 . S
C3036 C3037 1.349 . S
C3036 C3038 1.327 . S
C3036 H3061 0.950 . S
C3037 C3036 1.349 . S
C3037 C3053 1.349 . S
C3038 C3036 1.327 . S
C3038 C3057 1.429 . S
C3038 H3062 0.950 . S
C3039 C3056 1.574 . S
C3039 C3058 1.368 . S
C3039 H3063 0.949 . S
H3040 C3044 0.949 . S
C3041 C3042 1.349 . S
C3041 C3043 1.327 . S
C3041 H3064 0.950 . S
C3042 C3041 1.349 . S
C3042 C3054 1.349 . S
C3043 C3041 1.327 . S
C3043 C3059 1.429 . S
C3043 H3065 0.950 . S
C3044 H3040 0.949 . S
C3044 C3052 1.574 . S
C3044 C3060 1.368 . S
H3045 C3053 0.950 . S
H3046 C3051 0.950 . S
H3047 C3052 0.949 . S
H3048 C3054 0.950 . S
H3049 C3055 0.950 . S
H3050 C3056 0.949 . S
C3051 H3046 0.950 . S
C3051 C3053 1.327 . S
C3051 C3057 1.429 . S
C3052 C3044 1.574 . S
C3052 H3047 0.949 . S
C3052 C3058 1.368 . S
C3053 C3037 1.349 . S
C3053 H3045 0.950 . S
C3053 C3051 1.327 . S
C3054 C3042 1.349 . S
C3054 H3048 0.950 . S
C3054 C3055 1.327 . S
C3055 H3049 0.950 . S
C3055 C3054 1.327 . S
C3055 C3059 1.429 . S
C3056 C3039 1.574 . S
C3056 H3050 0.949 . S
C3056 C3060 1.368 . S
C3057 C3038 1.429 . S
C3057 C3051 1.429 . S
C3057 C3058 1.523 . S
C3058 C3039 1.368 . S
C3058 C3052 1.368 . S
C3058 C3057 1.523 . S
C3059 C3043 1.429 . S
C3059 C3055 1.429 . S
C3059 C3060 1.523 . S
C3060 C3044 1.368 . S
C3060 C3056 1.368 . S
C3060 C3059 1.523 . S
H3061 C3036 0.950 . S
H3062 C3038 0.950 . S
H3063 C3039 0.949 . S
H3064 C3041 0.950 . S
H3065 C3043 0.950 . S
C3066 C3067 1.349 . S
C3066 C3068 1.327 . S
C3066 H3091 0.950 . S
C3067 C3066 1.349 . S
C3067 C3083 1.349 . S
C3068 C3066 1.327 . S
C3068 C3087 1.429 . S
C3068 H3092 0.950 . S
C3069 C3086 1.574 . S
C3069 C3088 1.368 . S
C3069 H3093 0.949 . S
H3070 C3074 0.949 . S
C3071 C3072 1.349 . S
C3071 C3073 1.327 . S
C3071 H3094 0.950 . S
C3072 C3071 1.349 . S
C3072 C3084 1.349 . S
C3073 C3071 1.327 . S
C3073 C3089 1.429 . S
C3073 H3095 0.950 . S
C3074 H3070 0.949 . S
C3074 C3082 1.574 . S
C3074 C3090 1.368 . S
H3075 C3083 0.952 1_565 S
H3076 C3081 0.950 . S
H3077 C3082 0.949 . S
H3078 C3084 0.950 . S
H3079 C3085 0.950 . S
H3080 C3086 0.949 . S
C3081 H3076 0.950 . S
C3081 C3083 1.327 . S
C3081 C3087 1.429 . S
C3082 C3074 1.574 . S
C3082 H3077 0.949 . S
C3082 C3088 1.368 . S
C3083 C3067 1.349 . S
C3083 H3075 0.952 1_545 S
C3083 C3081 1.327 . S
C3084 C3072 1.349 . S
C3084 H3078 0.950 . S
C3084 C3085 1.327 . S
C3085 H3079 0.950 . S
C3085 C3084 1.327 . S
C3085 C3089 1.429 . S
C3086 C3069 1.574 . S
C3086 H3080 0.949 . S
C3086 C3090 1.368 . S
C3087 C3068 1.429 . S
C3087 C3081 1.429 . S
C3087 C3088 1.523 . S
C3088 C3069 1.368 . S
C3088 C3082 1.368 . S
C3088 C3087 1.523 . S
C3089 C3073 1.429 . S
C3089 C3085 1.429 . S
C3089 C3090 1.523 . S
C3090 C3074 1.368 . S
C3090 C3086 1.368 . S
C3090 C3089 1.523 . S
H3091 C3066 0.950 . S
H3092 C3068 0.950 . S
H3093 C3069 0.949 . S
H3094 C3071 0.950 . S
H3095 C3073 0.950 . S
C3096 C3097 1.349 . S
C3096 C3098 1.327 . S
C3096 H3121 0.950 . S
C3097 C3096 1.349 . S
C3097 C3113 1.349 . S
C3098 C3096 1.327 . S
C3098 C3117 1.429 . S
C3098 H3122 0.950 . S
C3099 C3116 1.574 . S
C3099 C3118 1.368 . S
C3099 H3123 0.949 . S
H3100 C3104 0.949 . S
C3101 C3102 1.349 . S
C3101 C3103 1.327 . S
C3101 H3124 0.950 . S
C3102 C3101 1.349 . S
C3102 C3114 1.349 . S
C3103 C3101 1.327 . S
C3103 C3119 1.429 . S
C3103 H3125 0.950 . S
C3104 H3100 0.949 . S
C3104 C3112 1.574 . S
C3104 C3120 1.368 . S
H3105 C3113 0.950 . S
H3106 C3111 0.950 . S
H3107 C3112 0.949 . S
H3108 C3114 0.950 . S
H3109 C3115 0.950 . S
H3110 C3116 0.949 . S
C3111 H3106 0.950 . S
C3111 C3113 1.327 . S
C3111 C3117 1.429 . S
C3112 C3104 1.574 . S
C3112 H3107 0.949 . S
C3112 C3118 1.368 . S
C3113 C3097 1.349 . S
C3113 H3105 0.950 . S
C3113 C3111 1.327 . S
C3114 C3102 1.349 . S
C3114 H3108 0.950 . S
C3114 C3115 1.327 . S
C3115 H3109 0.950 . S
C3115 C3114 1.327 . S
C3115 C3119 1.429 . S
C3116 C3099 1.574 . S
C3116 H3110 0.949 . S
C3116 C3120 1.368 . S
C3117 C3098 1.429 . S
C3117 C3111 1.429 . S
C3117 C3118 1.523 . S
C3118 C3099 1.368 . S
C3118 C3112 1.368 . S
C3118 C3117 1.523 . S
C3119 C3103 1.429 . S
C3119 C3115 1.429 . S
C3119 C3120 1.523 . S
C3120 C3104 1.368 . S
C3120 C3116 1.368 . S
C3120 C3119 1.523 . S
H3121 C3096 0.950 . S
H3122 C3098 0.950 . S
H3123 C3099 0.949 . S
H3124 C3101 0.950 . S
H3125 C3103 0.950 . S
C3126 C3127 1.349 . S
C3126 C3128 1.327 . S
C3126 H3151 0.950 1_565 S
C3127 C3126 1.349 . S
C3127 C3143 1.349 . S
C3128 C3126 1.327 . S
C3128 C3147 1.429 . S
C3128 H3152 0.950 . S
C3129 C3146 1.574 . S
C3129 C3148 1.368 . S
C3129 H3153 0.949 . S
H3130 C3134 0.949 . S
C3131 C3132 1.349 . S
C3131 C3133 1.327 . S
C3131 H3154 0.950 . S
C3132 C3131 1.349 . S
C3132 C3144 1.349 . S
C3133 C3131 1.327 . S
C3133 C3149 1.429 . S
C3133 H3155 0.950 . S
C3134 H3130 0.949 . S
C3134 C3142 1.574 . S
C3134 C3150 1.368 . S
H3135 C3143 0.950 . S
H3136 C3141 0.950 . S
H3137 C3142 0.949 . S
H3138 C3144 0.950 . S
H3139 C3145 0.950 . S
H3140 C3146 0.949 . S
C3141 H3136 0.950 . S
C3141 C3143 1.327 . S
C3141 C3147 1.429 . S
C3142 C3134 1.574 . S
C3142 H3137 0.949 . S
C3142 C3148 1.368 . S
C3143 C3127 1.349 . S
C3143 H3135 0.950 . S
C3143 C3141 1.327 . S
C3144 C3132 1.349 . S
C3144 H3138 0.950 . S
C3144 C3145 1.327 . S
C3145 H3139 0.950 . S
C3145 C3144 1.327 . S
C3145 C3149 1.429 . S
C3146 C3129 1.574 . S
C3146 H3140 0.949 . S
C3146 C3150 1.368 . S
C3147 C3128 1.429 . S
C3147 C3141 1.429 . S
C3147 C3148 1.523 . S
C3148 C3129 1.368 . S
C3148 C3142 1.368 . S
C3148 C3147 1.523 . S
C3149 C3133 1.429 . S
C3149 C3145 1.429 . S
C3149 C3150 1.523 . S
C3150 C3134 1.368 . S
C3150 C3146 1.368 . S
C3150 C3149 1.523 . S
H3151 C3126 0.950 1_545 S
H3152 C3128 0.950 . S
H3153 C3129 0.949 . S
H3154 C3131 0.950 . S
H3155 C3133 0.950 . S
C3156 C3157 1.349 . S
C3156 C3158 1.327 . S
C3156 H3181 0.950 . S
C3157 C3156 1.349 . S
C3157 C3173 1.349 . S
C3158 C3156 1.327 . S
C3158 C3177 1.429 . S
C3158 H3182 0.950 . S
C3159 C3176 1.574 . S
C3159 C3178 1.368 . S
C3159 H3183 0.949 . S
H3160 C3164 0.949 . S
C3161 C3162 1.349 . S
C3161 C3163 1.327 . S
C3161 H3184 0.950 . S
C3162 C3161 1.349 . S
C3162 C3174 1.349 . S
C3163 C3161 1.327 . S
C3163 C3179 1.429 . S
C3163 H3185 0.950 . S
C3164 H3160 0.949 . S
C3164 C3172 1.574 . S
C3164 C3180 1.368 . S
H3165 C3173 0.950 . S
H3166 C3171 0.950 . S
H3167 C3172 0.949 . S
H3168 C3174 0.950 . S
H3169 C3175 0.950 . S
H3170 C3176 0.949 . S
C3171 H3166 0.950 . S
C3171 C3173 1.327 . S
C3171 C3177 1.429 . S
C3172 C3164 1.574 . S
C3172 H3167 0.949 . S
C3172 C3178 1.368 . S
C3173 C3157 1.349 . S
C3173 H3165 0.950 . S
C3173 C3171 1.327 . S
C3174 C3162 1.349 . S
C3174 H3168 0.950 . S
C3174 C3175 1.327 . S
C3175 H3169 0.950 . S
C3175 C3174 1.327 . S
C3175 C3179 1.429 . S
C3176 C3159 1.574 . S
C3176 H3170 0.949 . S
C3176 C3180 1.368 . S
C3177 C3158 1.429 . S
C3177 C3171 1.429 . S
C3177 C3178 1.523 . S
C3178 C3159 1.368 . S
C3178 C3172 1.368 . S
C3178 C3177 1.523 . S
C3179 C3163 1.429 . S
C3179 C3175 1.429 . S
C3179 C3180 1.523 . S
C3180 C3164 1.368 . S
C3180 C3176 1.368 . S
C3180 C3179 1.523 . S
H3181 C3156 0.950 . S
H3182 C3158 0.950 . S
H3183 C3159 0.949 . S
H3184 C3161 0.950 . S
H3185 C3163 0.950 . S
C3186 C3187 1.349 . S
C3186 C3188 1.327 . S
C3186 H3211 0.950 1_545 S
C3187 C3186 1.349 . S
C3187 C3203 1.349 . S
C3188 C3186 1.327 . S
C3188 C3207 1.429 . S
C3188 H3212 0.950 . S
C3189 C3206 1.574 . S
C3189 C3208 1.368 . S
C3189 H3213 0.949 . S
H3190 C3194 0.949 . S
C3191 C3192 1.349 . S
C3191 C3193 1.327 . S
C3191 H3214 0.950 . S
C3192 C3191 1.349 . S
C3192 C3204 1.349 . S
C3193 C3191 1.327 . S
C3193 C3209 1.429 . S
C3193 H3215 0.950 . S
C3194 H3190 0.949 . S
C3194 C3202 1.574 . S
C3194 C3210 1.368 . S
H3195 C3203 0.950 . S
H3196 C3201 0.950 . S
H3197 C3202 0.949 . S
H3198 C3204 0.950 . S
H3199 C3205 0.950 . S
H3200 C3206 0.949 . S
C3201 H3196 0.950 . S
C3201 C3203 1.327 . S
C3201 C3207 1.429 . S
C3202 C3194 1.574 . S
C3202 H3197 0.949 . S
C3202 C3208 1.368 . S
C3203 C3187 1.349 . S
C3203 H3195 0.950 . S
C3203 C3201 1.327 . S
C3204 C3192 1.349 . S
C3204 H3198 0.950 . S
C3204 C3205 1.327 . S
C3205 H3199 0.950 . S
C3205 C3204 1.327 . S
C3205 C3209 1.429 . S
C3206 C3189 1.574 . S
C3206 H3200 0.949 . S
C3206 C3210 1.368 . S
C3207 C3188 1.429 . S
C3207 C3201 1.429 . S
C3207 C3208 1.523 . S
C3208 C3189 1.368 . S
C3208 C3202 1.368 . S
C3208 C3207 1.523 . S
C3209 C3193 1.429 . S
C3209 C3205 1.429 . S
C3209 C3210 1.523 . S
C3210 C3194 1.368 . S
C3210 C3206 1.368 . S
C3210 C3209 1.523 . S
H3211 C3186 0.950 1_565 S
H3212 C3188 0.950 . S
H3213 C3189 0.949 . S
H3214 C3191 0.950 . S
H3215 C3193 0.950 . S
C3216 C3217 1.349 . S
C3216 C3218 1.327 . S
C3216 H3241 0.950 . S
C3217 C3216 1.349 . S
C3217 C3233 1.349 . S
C3218 C3216 1.327 . S
C3218 C3237 1.429 . S
C3218 H3242 0.950 . S
C3219 C3236 1.574 . S
C3219 C3238 1.368 . S
C3219 H3243 0.949 . S
H3220 C3224 0.949 . S
C3221 C3222 1.349 . S
C3221 C3223 1.327 . S
C3221 H3244 0.950 . S
C3222 C3221 1.349 . S
C3222 C3234 1.349 . S
C3223 C3221 1.327 . S
C3223 C3239 1.429 . S
C3223 H3245 0.950 . S
C3224 H3220 0.949 . S
C3224 C3232 1.574 . S
C3224 C3240 1.368 . S
H3225 C3233 0.950 . S
H3226 C3231 0.950 . S
H3227 C3232 0.949 . S
H3228 C3234 0.950 . S
H3229 C3235 0.950 . S
H3230 C3236 0.949 . S
C3231 H3226 0.950 . S
C3231 C3233 1.327 . S
C3231 C3237 1.429 . S
C3232 C3224 1.574 . S
C3232 H3227 0.949 . S
C3232 C3238 1.368 . S
C3233 C3217 1.349 . S
C3233 H3225 0.950 . S
C3233 C3231 1.327 . S
C3234 C3222 1.349 . S
C3234 H3228 0.950 . S
C3234 C3235 1.327 . S
C3235 H3229 0.950 . S
C3235 C3234 1.327 . S
C3235 C3239 1.429 . S
C3236 C3219 1.574 . S
C3236 H3230 0.949 . S
C3236 C3240 1.368 . S
C3237 C3218 1.429 . S
C3237 C3231 1.429 . S
C3237 C3238 1.523 . S
C3238 C3219 1.368 . S
C3238 C3232 1.368 . S
C3238 C3237 1.523 . S
C3239 C3223 1.429 . S
C3239 C3235 1.429 . S
C3239 C3240 1.523 . S
C3240 C3224 1.368 . S
C3240 C3236 1.368 . S
C3240 C3239 1.523 . S
H3241 C3216 0.950 . S
H3242 C3218 0.950 . S
H3243 C3219 0.949 . S
H3244 C3221 0.950 . S
H3245 C3223 0.950 . S
C3246 C3247 1.349 . S
C3246 C3248 1.327 . S
C3246 H3271 0.950 1_545 S
C3247 C3246 1.349 . S
C3247 C3263 1.349 . S
C3248 C3246 1.327 . S
C3248 C3267 1.429 . S
C3248 H3272 0.950 . S
C3249 C3266 1.574 . S
C3249 C3268 1.368 . S
C3249 H3273 0.949 . S
H3250 C3254 0.949 . S
C3251 C3252 1.349 . S
C3251 C3253 1.327 . S
C3251 H3274 0.950 . S
C3252 C3251 1.349 . S
C3252 C3264 1.349 . S
C3253 C3251 1.327 . S
C3253 C3269 1.429 . S
C3253 H3275 0.950 . S
C3254 H3250 0.949 . S
C3254 C3262 1.574 . S
C3254 C3270 1.368 . S
H3255 C3263 0.950 . S
H3256 C3261 0.950 . S
H3257 C3262 0.949 . S
H3258 C3264 0.950 . S
H3259 C3265 0.950 . S
H3260 C3266 0.949 . S
C3261 H3256 0.950 . S
C3261 C3263 1.327 . S
C3261 C3267 1.429 . S
C3262 C3254 1.574 . S
C3262 H3257 0.949 . S
C3262 C3268 1.368 . S
C3263 C3247 1.349 . S
C3263 H3255 0.950 . S
C3263 C3261 1.327 . S
C3264 C3252 1.349 . S
C3264 H3258 0.950 . S
C3264 C3265 1.327 . S
C3265 H3259 0.950 . S
C3265 C3264 1.327 . S
C3265 C3269 1.429 . S
C3266 C3249 1.574 . S
C3266 H3260 0.949 . S
C3266 C3270 1.368 . S
C3267 C3248 1.429 . S
C3267 C3261 1.429 . S
C3267 C3268 1.523 . S
C3268 C3249 1.368 . S
C3268 C3262 1.368 . S
C3268 C3267 1.523 . S
C3269 C3253 1.429 . S
C3269 C3265 1.429 . S
C3269 C3270 1.523 . S
C3270 C3254 1.368 . S
C3270 C3266 1.368 . S
C3270 C3269 1.523 . S
H3271 C3246 0.950 1_565 S
H3272 C3248 0.950 . S
H3273 C3249 0.949 . S
H3274 C3251 0.950 . S
H3275 C3253 0.950 . S
C3276 C3277 1.349 . S
C3276 C3278 1.327 . S
C3276 H3301 0.950 . S
C3277 C3276 1.349 . S
C3277 C3293 1.349 . S
C3278 C3276 1.327 . S
C3278 C3297 1.429 . S
C3278 H3302 0.950 . S
C3279 C3296 1.574 . S
C3279 C3298 1.368 . S
C3279 H3303 0.949 . S
H3280 C3284 0.949 . S
C3281 C3282 1.349 . S
C3281 C3283 1.327 . S
C3281 H3304 0.950 . S
C3282 C3281 1.349 . S
C3282 C3294 1.349 . S
C3283 C3281 1.327 . S
C3283 C3299 1.429 . S
C3283 H3305 0.950 . S
C3284 H3280 0.949 . S
C3284 C3292 1.574 . S
C3284 C3300 1.368 . S
H3285 C3293 0.950 . S
H3286 C3291 0.950 . S
H3287 C3292 0.949 . S
H3288 C3294 0.950 . S
H3289 C3295 0.950 . S
H3290 C3296 0.949 . S
C3291 H3286 0.950 . S
C3291 C3293 1.327 . S
C3291 C3297 1.429 . S
C3292 C3284 1.574 . S
C3292 H3287 0.949 . S
C3292 C3298 1.368 . S
C3293 C3277 1.349 . S
C3293 H3285 0.950 . S
C3293 C3291 1.327 . S
C3294 C3282 1.349 . S
C3294 H3288 0.950 . S
C3294 C3295 1.327 . S
C3295 H3289 0.950 . S
C3295 C3294 1.327 . S
C3295 C3299 1.429 . S
C3296 C3279 1.574 . S
C3296 H3290 0.949 . S
C3296 C3300 1.368 . S
C3297 C3278 1.429 . S
C3297 C3291 1.429 . S
C3297 C3298 1.523 . S
C3298 C3279 1.368 . S
C3298 C3292 1.368 . S
C3298 C3297 1.523 . S
C3299 C3283 1.429 . S
C3299 C3295 1.429 . S
C3299 C3300 1.523 . S
C3300 C3284 1.368 . S
C3300 C3296 1.368 . S
C3300 C3299 1.523 . S
H3301 C3276 0.950 . S
H3302 C3278 0.950 . S
H3303 C3279 0.949 . S
H3304 C3281 0.950 . S
H3305 C3283 0.950 . S
C3306 C3307 1.349 . S
C3306 C3308 1.327 . S
C3306 H3331 0.950 . S
C3307 C3306 1.349 . S
C3307 C3323 1.349 . S
C3308 C3306 1.327 . S
C3308 C3327 1.429 . S
C3308 H3332 0.950 . S
C3309 C3326 1.574 . S
C3309 C3328 1.368 . S
C3309 H3333 0.949 . S
H3310 C3314 0.949 . S
C3311 C3312 1.349 . S
C3311 C3313 1.327 . S
C3311 H3334 0.950 . S
C3312 C3311 1.349 . S
C3312 C3324 1.349 . S
C3313 C3311 1.327 . S
C3313 C3329 1.429 . S
C3313 H3335 0.950 . S
C3314 H3310 0.949 . S
C3314 C3322 1.574 . S
C3314 C3330 1.368 . S
H3315 C3323 0.950 1_545 S
H3316 C3321 0.950 . S
H3317 C3322 0.949 . S
H3318 C3324 0.950 . S
H3319 C3325 0.950 . S
H3320 C3326 0.949 . S
C3321 H3316 0.950 . S
C3321 C3323 1.327 . S
C3321 C3327 1.429 . S
C3322 C3314 1.574 . S
C3322 H3317 0.949 . S
C3322 C3328 1.368 . S
C3323 C3307 1.349 . S
C3323 H3315 0.950 1_565 S
C3323 C3321 1.327 . S
C3324 C3312 1.349 . S
C3324 H3318 0.950 . S
C3324 C3325 1.327 . S
C3325 H3319 0.950 . S
C3325 C3324 1.327 . S
C3325 C3329 1.429 . S
C3326 C3309 1.574 . S
C3326 H3320 0.949 . S
C3326 C3330 1.368 . S
C3327 C3308 1.429 . S
C3327 C3321 1.429 . S
C3327 C3328 1.523 . S
C3328 C3309 1.368 . S
C3328 C3322 1.368 . S
C3328 C3327 1.523 . S
C3329 C3313 1.429 . S
C3329 C3325 1.429 . S
C3329 C3330 1.523 . S
C3330 C3314 1.368 . S
C3330 C3326 1.368 . S
C3330 C3329 1.523 . S
H3331 C3306 0.950 . S
H3332 C3308 0.950 . S
H3333 C3309 0.949 . S
H3334 C3311 0.950 . S
H3335 C3313 0.950 . S
C3336 C3337 1.349 . S
C3336 C3338 1.327 . S
C3336 H3361 0.950 . S
C3337 C3336 1.349 . S
C3337 C3353 1.349 . S
C3338 C3336 1.327 . S
C3338 C3357 1.429 . S
C3338 H3362 0.950 . S
C3339 C3356 1.574 . S
C3339 C3358 1.368 . S
C3339 H3363 0.949 . S
H3340 C3344 0.949 . S
C3341 C3342 1.349 . S
C3341 C3343 1.327 . S
C3341 H3364 0.950 . S
C3342 C3341 1.349 . S
C3342 C3354 1.349 . S
C3343 C3341 1.327 . S
C3343 C3359 1.429 . S
C3343 H3365 0.950 . S
C3344 H3340 0.949 . S
C3344 C3352 1.574 . S
C3344 C3360 1.368 . S
H3345 C3353 0.950 . S
H3346 C3351 0.950 . S
H3347 C3352 0.949 . S
H3348 C3354 0.950 . S
H3349 C3355 0.950 . S
H3350 C3356 0.949 . S
C3351 H3346 0.950 . S
C3351 C3353 1.327 . S
C3351 C3357 1.429 . S
C3352 C3344 1.574 . S
C3352 H3347 0.949 . S
C3352 C3358 1.368 . S
C3353 C3337 1.349 . S
C3353 H3345 0.950 . S
C3353 C3351 1.327 . S
C3354 C3342 1.349 . S
C3354 H3348 0.950 . S
C3354 C3355 1.327 . S
C3355 H3349 0.950 . S
C3355 C3354 1.327 . S
C3355 C3359 1.429 . S
C3356 C3339 1.574 . S
C3356 H3350 0.949 . S
C3356 C3360 1.368 . S
C3357 C3338 1.429 . S
C3357 C3351 1.429 . S
C3357 C3358 1.523 . S
C3358 C3339 1.368 . S
C3358 C3352 1.368 . S
C3358 C3357 1.523 . S
C3359 C3343 1.429 . S
C3359 C3355 1.429 . S
C3359 C3360 1.523 . S
C3360 C3344 1.368 . S
C3360 C3356 1.368 . S
C3360 C3359 1.523 . S
H3361 C3336 0.950 . S
H3362 C3338 0.950 . S
H3363 C3339 0.949 . S
H3364 C3341 0.950 . S
H3365 C3343 0.950 . S
C3366 C3367 1.349 . S
C3366 C3368 1.327 . S
C3366 H3391 0.950 . S
C3367 C3366 1.349 . S
C3367 C3383 1.349 . S
C3368 C3366 1.327 . S
C3368 C3387 1.429 . S
C3368 H3392 0.950 . S
C3369 C3386 1.574 . S
C3369 C3388 1.368 . S
C3369 H3393 0.949 . S
H3370 C3374 0.949 . S
C3371 C3372 1.349 . S
C3371 C3373 1.327 . S
C3371 H3394 0.950 . S
C3372 C3371 1.349 . S
C3372 C3384 1.349 . S
C3373 C3371 1.327 . S
C3373 C3389 1.429 . S
C3373 H3395 0.950 . S
C3374 H3370 0.949 . S
C3374 C3382 1.574 . S
C3374 C3390 1.368 . S
H3375 C3383 0.950 . S
H3376 C3381 0.950 . S
H3377 C3382 0.949 . S
H3378 C3384 0.914 1_565 S
H3379 C3385 0.950 . S
H3380 C3386 0.949 . S
C3381 H3376 0.950 . S
C3381 C3383 1.327 . S
C3381 C3387 1.429 . S
C3382 C3374 1.574 . S
C3382 H3377 0.949 . S
C3382 C3388 1.368 . S
C3383 C3367 1.349 . S
C3383 H3375 0.950 . S
C3383 C3381 1.327 . S
C3384 C3372 1.349 . S
C3384 H3378 0.914 1_545 S
C3384 C3385 1.327 . S
C3385 H3379 0.950 . S
C3385 C3384 1.327 . S
C3385 C3389 1.429 . S
C3386 C3369 1.574 . S
C3386 H3380 0.949 . S
C3386 C3390 1.368 . S
C3387 C3368 1.429 . S
C3387 C3381 1.429 . S
C3387 C3388 1.523 . S
C3388 C3369 1.368 . S
C3388 C3382 1.368 . S
C3388 C3387 1.523 . S
C3389 C3373 1.429 . S
C3389 C3385 1.429 . S
C3389 C3390 1.523 . S
C3390 C3374 1.368 . S
C3390 C3386 1.368 . S
C3390 C3389 1.523 . S
H3391 C3366 0.950 . S
H3392 C3368 0.950 . S
H3393 C3369 0.949 . S
H3394 C3371 0.950 . S
H3395 C3373 0.950 . S
C3396 C3397 1.349 . S
C3396 C3398 1.327 . S
C3396 H3421 0.950 . S
C3397 C3396 1.349 . S
C3397 C3413 1.349 . S
C3398 C3396 1.327 . S
C3398 C3417 1.429 . S
C3398 H3422 0.950 . S
C3399 C3416 1.574 . S
C3399 C3418 1.368 . S
C3399 H3423 0.949 . S
H3400 C3404 0.949 . S
C3401 C3402 1.349 . S
C3401 C3403 1.327 . S
C3401 H3424 0.950 . S
C3402 C3401 1.349 . S
C3402 C3414 1.349 . S
C3403 C3401 1.327 . S
C3403 C3419 1.429 . S
C3403 H3425 0.950 . S
C3404 H3400 0.949 . S
C3404 C3412 1.574 . S
C3404 C3420 1.368 . S
H3405 C3413 0.950 . S
H3406 C3411 0.950 . S
H3407 C3412 0.949 . S
H3408 C3414 0.950 . S
H3409 C3415 0.950 . S
H3410 C3416 0.949 . S
C3411 H3406 0.950 . S
C3411 C3413 1.327 . S
C3411 C3417 1.429 . S
C3412 C3404 1.574 . S
C3412 H3407 0.949 . S
C3412 C3418 1.368 . S
C3413 C3397 1.349 . S
C3413 H3405 0.950 . S
C3413 C3411 1.327 . S
C3414 C3402 1.349 . S
C3414 H3408 0.950 . S
C3414 C3415 1.327 . S
C3415 H3409 0.950 . S
C3415 C3414 1.327 . S
C3415 C3419 1.429 . S
C3416 C3399 1.574 . S
C3416 H3410 0.949 . S
C3416 C3420 1.368 . S
C3417 C3398 1.429 . S
C3417 C3411 1.429 . S
C3417 C3418 1.523 . S
C3418 C3399 1.368 . S
C3418 C3412 1.368 . S
C3418 C3417 1.523 . S
C3419 C3403 1.429 . S
C3419 C3415 1.429 . S
C3419 C3420 1.523 . S
C3420 C3404 1.368 . S
C3420 C3416 1.368 . S
C3420 C3419 1.523 . S
H3421 C3396 0.950 . S
H3422 C3398 0.950 . S
H3423 C3399 0.949 . S
H3424 C3401 0.950 . S
H3425 C3403 0.950 . S
C3426 C3427 1.349 . S
C3426 C3428 1.327 . S
C3426 H3451 0.950 1_565 S
C3427 C3426 1.349 . S
C3427 C3443 1.349 . S
C3428 C3426 1.327 . S
C3428 C3447 1.429 . S
C3428 H3452 0.950 . S
C3429 C3446 1.574 . S
C3429 C3448 1.368 . S
C3429 H3453 0.949 . S
H3430 C3434 0.949 . S
C3431 C3432 1.349 . S
C3431 C3433 1.327 . S
C3431 H3454 0.950 . S
C3432 C3431 1.349 . S
C3432 C3444 1.349 . S
C3433 C3431 1.327 . S
C3433 C3449 1.429 . S
C3433 H3455 0.950 . S
C3434 H3430 0.949 . S
C3434 C3442 1.574 . S
C3434 C3450 1.368 . S
H3435 C3443 0.950 . S
H3436 C3441 0.950 . S
H3437 C3442 0.949 . S
H3438 C3444 0.950 . S
H3439 C3445 0.950 . S
H3440 C3446 0.949 . S
C3441 H3436 0.950 . S
C3441 C3443 1.327 . S
C3441 C3447 1.429 . S
C3442 C3434 1.574 . S
C3442 H3437 0.949 . S
C3442 C3448 1.368 . S
C3443 C3427 1.349 . S
C3443 H3435 0.950 . S
C3443 C3441 1.327 . S
C3444 C3432 1.349 . S
C3444 H3438 0.950 . S
C3444 C3445 1.327 . S
C3445 H3439 0.950 . S
C3445 C3444 1.327 . S
C3445 C3449 1.429 . S
C3446 C3429 1.574 . S
C3446 H3440 0.949 . S
C3446 C3450 1.368 . S
C3447 C3428 1.429 . S
C3447 C3441 1.429 . S
C3447 C3448 1.523 . S
C3448 C3429 1.368 . S
C3448 C3442 1.368 . S
C3448 C3447 1.523 . S
C3449 C3433 1.429 . S
C3449 C3445 1.429 . S
C3449 C3450 1.523 . S
C3450 C3434 1.368 . S
C3450 C3446 1.368 . S
C3450 C3449 1.523 . S
H3451 C3426 0.950 1_545 S
H3452 C3428 0.950 . S
H3453 C3429 0.949 . S
H3454 C3431 0.950 . S
H3455 C3433 0.950 . S
C1057 C28 1.585 . S
C1062 C820 1.585 . S
C1087 C325 1.585 . S
C1092 C61 1.585 . S
C1117 C886 1.585 . S
C1122 C94 1.585 . S
C1147 C391 1.585 . S
C1152 C127 1.585 . S
C1177 C952 1.585 . S
C1182 C160 1.585 . S
C1207 C457 1.585 . S
C1212 C193 1.585 . S
C1237 C1018 1.585 . S
C1242 C226 1.585 . S
C1267 C523 1.585 . S
C1272 C259 1.585 . S
C1297 C292 1.585 . S
C1302 C556 1.585 . S
C1327 C358 1.585 . S
C1332 C622 1.585 . S
C1357 C424 1.585 . S
C1362 C688 1.585 . S
C1387 C754 1.585 . S
C1392 C490 1.585 . S
C1417 C589 1.585 . S
C1422 C853 1.585 . S
C1447 C919 1.585 . S
C1452 C655 1.585 . S
C1477 C721 1.585 . S
C1482 C985 1.585 . S
C1507 C1051 1.585 . S
C1512 C787 1.585 . S
C1537 N5 1.217 . S
C1542 C380 1.245 . S
C1567 N38 1.217 . S
C1572 C809 1.245 . S
C1597 C314 1.245 . S
C1602 N71 1.217 . S
C1627 N104 1.217 . S
C1632 C875 1.245 . S
C1657 C446 1.245 . S
C1662 N137 1.217 . S
C1687 C1007 1.245 . S
C1692 N170 1.217 . S
C1717 N203 1.217 . S
C1722 C512 1.245 . S
C1747 C941 1.245 . S
C1752 N236 1.217 . S
C1777 N269 1.217 . S
C1782 C116 1.245 . S
C1807 N302 1.217 . S
C1812 C545 1.245 . S
C1837 C50 1.245 . S
C1842 N335 1.217 . S
C1867 N368 1.217 . S
C1872 C611 1.245 . S
C1897 N401 1.217 . S
C1902 C182 1.245 . S
C1927 C743 1.245 . S
C1932 N434 1.217 . S
C1957 C248 1.245 . S
C1962 N467 1.217 . S
C1987 N500 1.217 . S
C1992 C677 1.245 . S
C2017 C908 1.245 . S
C2022 N533 1.217 . S
C2047 C281 1.245 . S
C2052 N566 1.217 . S
C2077 C842 1.244 . S
C2082 N599 1.217 . S
C2107 N632 1.217 . S
C2112 C347 1.244 . S
C2137 C974 1.244 . S
C2142 N665 1.217 . S
C2167 C479 1.245 . S
C2172 N698 1.217 . S
C2197 N731 1.217 . S
C2202 C1040 1.245 . S
C2227 C413 1.244 . S
C2232 N764 1.217 . S
C2257 C644 1.245 . S
C2262 N797 1.217 . S
C2287 N830 1.217 . S
C2292 C17 1.245 . S
C2317 N863 1.217 . S
C2322 C578 1.244 . S
C2347 C83 1.244 . S
C2352 N896 1.217 . S
C2377 C710 1.244 . S
C2382 N929 1.217 . S
C2407 N962 1.217 . S
C2412 C215 1.245 . S
C2437 C776 1.245 . S
C2442 N995 1.217 . S
C2467 C149 1.244 . S
C2472 N1028 1.217 . S
C2497 C8 0.871 . S
C2502 C206 0.871 . S
C2527 C239 0.871 . S
C2532 C41 0.871 . S
C2557 C74 0.871 . S
C2562 C140 0.871 . S
C2587 C107 0.871 . S
C2592 C173 0.871 . S
C2617 C470 0.871 . S
C2622 C272 0.871 . S
C2647 C503 0.871 . S
C2652 C305 0.871 . S
C2677 C404 0.871 . S
C2682 C338 0.871 . S
C2707 C437 0.871 . S
C2712 C371 0.871 . S
C2737 C536 0.871 . S
C2742 C734 0.871 . S
C2767 C569 0.871 . S
C2772 C767 0.871 . S
C2797 C602 0.871 . S
C2802 C668 0.871 . S
C2827 C635 0.871 . S
C2832 C701 0.871 . S
C2857 C998 0.871 . S
C2862 C800 0.871 . S
C2887 C1031 0.871 . S
C2892 C833 0.871 . S
C2917 C866 0.871 . S
C2922 C932 0.871 . S
C2947 C899 0.871 . S
C2952 C965 0.871 . S
C2977 N14 2.003 . S
C2982 N707 2.003 . S
C3007 N47 2.003 1_565 S
C3012 N740 2.003 . S
C3037 N80 2.003 . S
C3042 N773 2.003 . S
C3067 N113 2.003 1_545 S
C3072 N674 2.003 . S
C3097 N641 2.003 . S
C3102 N146 2.003 . S
C3127 N179 2.003 1_565 S
C3132 N542 2.003 . S
C3157 N575 2.003 . S
C3162 N212 2.003 . S
C3187 N245 2.003 1_545 S
C3192 N608 2.003 . S
C3217 N971 2.003 . S
C3222 N278 2.003 . S
C3247 N311 2.003 1_545 S
C3252 N1004 2.003 . S
C3277 N1037 2.003 . S
C3282 N344 2.003 . S
C3307 N377 2.003 1_565 S
C3312 N938 2.003 . S
C3337 N410 2.003 . S
C3342 N905 2.003 . S
C3367 N806 2.003 . S
C3372 N443 2.003 1_545 S
C3397 N476 2.003 . S
C3402 N839 2.003 . S
C3427 N509 2.003 1_565 S
C3432 N872 2.003 . S
