# Generated by pormake.
# Topology unl, (4)-cn, num edge types: 1
# Building blocks:
#     Node 0, Type 0, BuildingBlock: NAHDIM_clean_sbu_0, # of connection points: 4
#     Node 1, Type 0, BuildingBlock: NAHDIM_clean_sbu_0, # of connection points: 4
#     Node 2, Type 0, BuildingBlock: NAHDIM_clean_sbu_0, # of connection points: 4
#     Node 3, Type 0, BuildingBlock: NAHDIM_clean_sbu_0, # of connection points: 4
#     Node 4, Type 0, BuildingBlock: NAHDIM_clean_sbu_0, # of connection points: 4
#     Node 5, Type 0, BuildingBlock: NAHDIM_clean_sbu_0, # of connection points: 4
#     Node 6, Type 0, BuildingBlock: NAHDIM_clean_sbu_0, # of connection points: 4
#     Node 7, Type 0, BuildingBlock: NAHDIM_clean_sbu_0, # of connection points: 4
#     Node 8, Type 0, BuildingBlock: NAHDIM_clean_sbu_0, # of connection points: 4
#     Node 9, Type 0, BuildingBlock: NAHDIM_clean_sbu_0, # of connection points: 4
#     Node 10, Type 0, BuildingBlock: NAHDIM_clean_sbu_0, # of connection points: 4
#     Node 11, Type 0, BuildingBlock: NAHDIM_clean_sbu_0, # of connection points: 4
#     Node 12, Type 0, BuildingBlock: NAHDIM_clean_sbu_0, # of connection points: 4
#     Node 13, Type 0, BuildingBlock: NAHDIM_clean_sbu_0, # of connection points: 4
#     Node 14, Type 0, BuildingBlock: NAHDIM_clean_sbu_0, # of connection points: 4
#     Node 15, Type 0, BuildingBlock: NAHDIM_clean_sbu_0, # of connection points: 4
#     Node 16, Type 0, BuildingBlock: NAHDIM_clean_sbu_0, # of connection points: 4
#     Node 17, Type 0, BuildingBlock: NAHDIM_clean_sbu_0, # of connection points: 4
#     Node 18, Type 0, BuildingBlock: NAHDIM_clean_sbu_0, # of connection points: 4
#     Node 19, Type 0, BuildingBlock: NAHDIM_clean_sbu_0, # of connection points: 4
#     Node 20, Type 0, BuildingBlock: NAHDIM_clean_sbu_0, # of connection points: 4
#     Node 21, Type 0, BuildingBlock: NAHDIM_clean_sbu_0, # of connection points: 4
#     Node 22, Type 0, BuildingBlock: NAHDIM_clean_sbu_0, # of connection points: 4
#     Node 23, Type 0, BuildingBlock: NAHDIM_clean_sbu_0, # of connection points: 4
#     Node 24, Type 0, BuildingBlock: NAHDIM_clean_sbu_0, # of connection points: 4
#     Node 25, Type 0, BuildingBlock: NAHDIM_clean_sbu_0, # of connection points: 4
#     Node 26, Type 0, BuildingBlock: NAHDIM_clean_sbu_0, # of connection points: 4
#     Node 27, Type 0, BuildingBlock: NAHDIM_clean_sbu_0, # of connection points: 4
#     Node 28, Type 0, BuildingBlock: NAHDIM_clean_sbu_0, # of connection points: 4
#     Node 29, Type 0, BuildingBlock: NAHDIM_clean_sbu_0, # of connection points: 4
#     Node 30, Type 0, BuildingBlock: NAHDIM_clean_sbu_0, # of connection points: 4
#     Node 31, Type 0, BuildingBlock: NAHDIM_clean_sbu_0, # of connection points: 4
#     Node 32, Type 0, BuildingBlock: NAHDIM_clean_sbu_0, # of connection points: 4
#     Node 33, Type 0, BuildingBlock: NAHDIM_clean_sbu_0, # of connection points: 4
#     Node 34, Type 0, BuildingBlock: NAHDIM_clean_sbu_0, # of connection points: 4
#     Node 35, Type 0, BuildingBlock: NAHDIM_clean_sbu_0, # of connection points: 4
#     Edge 36, Type (0, 0), None
#     Edge 37, Type (0, 0), None
#     Edge 38, Type (0, 0), None
#     Edge 39, Type (0, 0), None
#     Edge 40, Type (0, 0), None
#     Edge 41, Type (0, 0), None
#     Edge 42, Type (0, 0), None
#     Edge 43, Type (0, 0), None
#     Edge 44, Type (0, 0), None
#     Edge 45, Type (0, 0), None
#     Edge 46, Type (0, 0), None
#     Edge 47, Type (0, 0), None
#     Edge 48, Type (0, 0), None
#     Edge 49, Type (0, 0), None
#     Edge 50, Type (0, 0), None
#     Edge 51, Type (0, 0), None
#     Edge 52, Type (0, 0), None
#     Edge 53, Type (0, 0), None
#     Edge 54, Type (0, 0), None
#     Edge 55, Type (0, 0), None
#     Edge 56, Type (0, 0), None
#     Edge 57, Type (0, 0), None
#     Edge 58, Type (0, 0), None
#     Edge 59, Type (0, 0), None
#     Edge 60, Type (0, 0), None
#     Edge 61, Type (0, 0), None
#     Edge 62, Type (0, 0), None
#     Edge 63, Type (0, 0), None
#     Edge 64, Type (0, 0), None
#     Edge 65, Type (0, 0), None
#     Edge 66, Type (0, 0), None
#     Edge 67, Type (0, 0), None
#     Edge 68, Type (0, 0), None
#     Edge 69, Type (0, 0), None
#     Edge 70, Type (0, 0), None
#     Edge 71, Type (0, 0), None
#     Edge 72, Type (0, 0), None
#     Edge 73, Type (0, 0), None
#     Edge 74, Type (0, 0), None
#     Edge 75, Type (0, 0), None
#     Edge 76, Type (0, 0), None
#     Edge 77, Type (0, 0), None
#     Edge 78, Type (0, 0), None
#     Edge 79, Type (0, 0), None
#     Edge 80, Type (0, 0), None
#     Edge 81, Type (0, 0), None
#     Edge 82, Type (0, 0), None
#     Edge 83, Type (0, 0), None
#     Edge 84, Type (0, 0), None
#     Edge 85, Type (0, 0), None
#     Edge 86, Type (0, 0), None
#     Edge 87, Type (0, 0), None
#     Edge 88, Type (0, 0), None
#     Edge 89, Type (0, 0), None
#     Edge 90, Type (0, 0), None
#     Edge 91, Type (0, 0), None
#     Edge 92, Type (0, 0), None
#     Edge 93, Type (0, 0), None
#     Edge 94, Type (0, 0), None
#     Edge 95, Type (0, 0), None
#     Edge 96, Type (0, 0), None
#     Edge 97, Type (0, 0), None
#     Edge 98, Type (0, 0), None
#     Edge 99, Type (0, 0), None
#     Edge 100, Type (0, 0), None
#     Edge 101, Type (0, 0), None
#     Edge 102, Type (0, 0), None
#     Edge 103, Type (0, 0), None
#     Edge 104, Type (0, 0), None
#     Edge 105, Type (0, 0), None
#     Edge 106, Type (0, 0), None
#     Edge 107, Type (0, 0), None
# Relax obj value: 0.173
# Max RMSD: 0.221
# Mean RMSD: 0.221
data_MOF--net-unl--node1-NAHDIM_clean_sbu_0--edge1-none
_symmetry_space_group_name_H-M    P1
_symmetry_Int_Tables_number       1
_symmetry_cell_setting            triclinic
loop_
_symmetry_equiv_pos_as_xyz
'x, y, z'
_cell_length_a     31.086339
_cell_length_b     31.086182
_cell_length_c     17.32881
_cell_angle_alpha  89.999355
_cell_angle_beta   90.000731
_cell_angle_gamma 120.00016
loop_
_atom_site_label
_atom_site_type_symbol
_atom_site_fract_x
_atom_site_fract_y
_atom_site_fract_z
_atom_type_partial_charge
C0 C 0.26792 0.12755 0.16232 0.0
O1 O 0.23928 0.092 0.21043 0.0
O2 O 0.1534 0.03032 0.06222 0.0
Zn3 Zn 0.17401 0.0999 0.09675 0.0
O4 O 0.14595 0.10181 0.2016 0.0
C5 C 0.12323 0.10727 0.95976 0.0
O6 O 0.11471 0.06226 0.94542 0.0
O7 O 0.24848 0.13834 0.10645 0.0
C8 C 0.12057 0.12318 0.21189 0.0
O9 O 0.10943 0.1421 0.15276 0.0
C10 C 0.1138 -0.00758 0.08504 0.0
O11 O 0.08612 -0.00256 0.13746 0.0
O12 O 0.14928 0.13088 0.01803 0.0
C13 C 0.8084 0.12758 0.16226 0.0
O14 O 0.84392 0.13445 0.21039 0.0
O15 O 0.90559 0.1102 0.06215 0.0
Zn16 Zn 0.836 0.06129 0.09669 0.0
O17 O 0.83407 0.03132 0.20155 0.0
C18 C 0.82848 0.00321 0.95951 0.0
O19 O 0.87338 0.03981 0.94489 0.0
O20 O 0.7976 0.09736 0.10637 0.0
C21 C 0.81276 -0.01543 0.21184 0.0
O22 O 0.79391 0.95449 0.15271 0.0
C23 C 0.94346 0.1084 0.08487 0.0
O24 O 0.93838 0.07563 0.13719 0.0
O25 O 0.80498 0.00556 0.01801 0.0
C26 C 0.80841 0.66805 0.16233 0.0
O27 O 0.80151 0.69669 0.21045 0.0
O28 O 0.82575 0.7826 0.06221 0.0
Zn29 Zn 0.87469 0.76196 0.09676 0.0
O30 O 0.90465 0.79002 0.20161 0.0
C31 C 0.93282 0.81262 0.95967 0.0
O32 O 0.89627 0.82102 0.94514 0.0
O33 O 0.83864 0.68748 0.10645 0.0
C34 C 0.9514 0.81535 0.21192 0.0
O35 O -0.01853 0.82641 0.15281 0.0
C36 C 0.82765 0.82234 0.0848 0.0
O37 O 0.86052 0.85011 0.13696 0.0
O38 O 0.93042 0.78668 0.01807 0.0
C39 C 0.11475 0.28073 0.33988 0.0
O40 O 0.0792 0.25209 0.29178 0.0
O41 O 0.01753 0.16621 0.43998 0.0
Zn42 Zn 0.0871 0.18682 0.40545 0.0
O43 O 0.08902 0.15876 0.3006 0.0
C44 C 0.09447 0.13604 0.54244 0.0
O45 O 0.04946 0.12752 0.55679 0.0
O46 O 0.12555 0.26129 0.39575 0.0
C47 C 0.11037 0.13336 0.29032 0.0
O48 O 0.12929 0.12221 0.34945 0.0
C49 C -0.02038 0.1266 0.41717 0.0
O50 O -0.01535 0.09891 0.36476 0.0
O51 O 0.11808 0.16208 0.48417 0.0
C52 C 0.65524 0.8212 0.33988 0.0
O53 O 0.68388 0.8143 0.29176 0.0
O54 O 0.7698 0.83855 0.43998 0.0
Zn55 Zn 0.74915 0.88748 0.40544 0.0
O56 O 0.7772 0.91744 0.30058 0.0
C57 C 0.7998 0.94561 0.54254 0.0
O58 O 0.80819 0.90906 0.55709 0.0
O59 O 0.67468 0.85143 0.39575 0.0
C60 C 0.80255 0.9642 0.29028 0.0
O61 O 0.81364 -0.00573 0.34939 0.0
C62 C 0.80955 0.84047 0.4174 0.0
O63 O 0.83732 0.87336 0.36527 0.0
O64 O 0.77388 0.94322 0.48412 0.0
C65 C 0.11478 0.8212 0.33994 0.0
O66 O 0.12166 0.85672 0.29182 0.0
O67 O 0.0974 0.91839 0.44005 0.0
Zn68 Zn 0.04849 0.8488 0.40551 0.0
O69 O 0.01852 0.84686 0.30065 0.0
C70 C -0.00959 0.84127 0.54269 0.0
O71 O 0.02702 0.88617 0.55732 0.0
O72 O 0.08457 0.8104 0.39583 0.0
C73 C -0.02823 0.82557 0.29036 0.0
O74 O 0.94169 0.80675 0.34949 0.0
C75 C 0.09559 0.95625 0.41733 0.0
O76 O 0.06281 0.95117 0.36502 0.0
O77 O -0.00724 0.81778 0.48418 0.0
C78 C 0.65523 0.8212 0.83988 0.0
O79 O 0.68387 0.85675 0.79178 0.0
O80 O 0.76974 0.91843 0.93997 0.0
Zn81 Zn 0.74914 0.84886 0.90545 0.0
O82 O 0.77719 0.84694 0.8006 0.0
C83 C 0.79997 0.84152 0.0424 0.0
O84 O 0.80852 0.88655 0.0567 0.0
O85 O 0.67467 0.81041 0.89575 0.0
C86 C 0.80259 0.82558 0.79031 0.0
O87 O 0.81374 0.80666 0.84944 0.0
C88 C 0.80932 0.95635 0.91711 0.0
O89 O 0.83699 0.95135 0.86465 0.0
O90 O 0.77389 0.81789 0.98417 0.0
C91 C 0.11476 0.82118 0.83994 0.0
O92 O 0.07923 0.8143 0.79182 0.0
O93 O 0.01756 0.83854 0.94005 0.0
Zn94 Zn 0.08715 0.88746 0.90551 0.0
O95 O 0.08909 0.91743 0.80065 0.0
C96 C 0.09465 0.94555 0.04265 0.0
O97 O 0.04972 0.90898 0.05723 0.0
O98 O 0.12556 0.8514 0.89583 0.0
C99 C 0.11039 0.96418 0.79035 0.0
O100 O 0.12923 -0.00574 0.84949 0.0
C101 C -0.02032 0.84031 0.91728 0.0
O102 O -0.01527 0.87305 0.86492 0.0
O103 O 0.11816 0.94319 0.98419 0.0
C104 C 0.11474 0.28071 0.83988 0.0
O105 O 0.12165 0.25207 0.79176 0.0
O106 O 0.09741 0.16616 0.93998 0.0
Zn107 Zn 0.04847 0.1868 0.90544 0.0
O108 O 0.01851 0.15874 0.80058 0.0
C109 C -0.00967 0.13609 0.04249 0.0
O110 O 0.02685 0.12765 0.05699 0.0
O111 O 0.08452 0.26127 0.89575 0.0
C112 C -0.02824 0.13341 0.79028 0.0
O113 O 0.94169 0.12234 0.84939 0.0
C114 C 0.09555 0.12644 0.91735 0.0
O115 O 0.06271 0.09869 0.86514 0.0
O116 O -0.00726 0.16206 0.98413 0.0
C117 C 0.8084 0.66804 0.66232 0.0
O118 O 0.84396 0.69668 0.71042 0.0
O119 O 0.90563 0.78254 0.56222 0.0
Zn120 Zn 0.83606 0.76195 0.59674 0.0
O121 O 0.83415 0.79001 0.70159 0.0
C122 C 0.82873 0.81279 0.45981 0.0
O123 O 0.87377 0.82137 0.44553 0.0
O124 O 0.79761 0.68747 0.60645 0.0
C125 C 0.81277 0.81539 0.71188 0.0
O126 O 0.79383 0.82651 0.65275 0.0
C127 C 0.94356 0.82212 0.58509 0.0
O128 O 0.93856 0.84978 0.63756 0.0
O129 O 0.80509 0.78669 0.51802 0.0
C130 C 0.2679 0.12754 0.66233 0.0
O131 O 0.23926 0.13444 0.71045 0.0
O132 O 0.15336 0.11021 0.56222 0.0
Zn133 Zn 0.17399 0.06127 0.59676 0.0
O134 O 0.14594 0.03131 0.70161 0.0
C135 C 0.12328 0.00312 0.45971 0.0
O136 O 0.11483 0.03964 0.44523 0.0
O137 O 0.24847 0.09731 0.60645 0.0
C138 C 0.12061 -0.01545 0.71191 0.0
O139 O 0.10955 0.95448 0.65281 0.0
C140 C 0.11364 0.10835 0.58485 0.0
O141 O 0.08589 0.07551 0.63706 0.0
O142 O 0.14926 0.00554 0.51807 0.0
C143 C 0.80839 0.12756 0.66226 0.0
O144 O 0.80151 0.09203 0.71039 0.0
O145 O 0.82574 0.03036 0.56214 0.0
Zn146 Zn 0.87467 0.09995 0.59669 0.0
O147 O 0.90463 0.10188 0.70155 0.0
C148 C 0.93276 0.10744 0.45956 0.0
O149 O 0.89619 0.06251 0.445 0.0
O150 O 0.8386 0.13836 0.60637 0.0
C151 C 0.95138 0.12319 0.71184 0.0
O152 O -0.01854 0.14205 0.65271 0.0
C153 C 0.82749 -0.00752 0.58493 0.0
O154 O 0.86023 -0.00248 0.6373 0.0
O155 O 0.93039 0.13096 0.518 0.0
C156 C 0.93459 0.46089 0.49565 0.0
O157 O 0.90594 0.42537 0.54378 0.0
O158 O 0.82003 0.36369 0.39555 0.0
Zn159 Zn 0.84069 0.43327 0.43007 0.0
O160 O 0.81267 0.43521 0.53493 0.0
C161 C 0.79009 0.44076 0.29293 0.0
O162 O 0.78174 0.39584 0.27836 0.0
O163 O 0.91517 0.47168 0.43975 0.0
C164 C 0.78724 0.45653 0.54523 0.0
O165 O 0.77603 0.4754 0.4861 0.0
C166 C 0.78032 0.32583 0.4182 0.0
O167 O 0.75258 0.33094 0.47041 0.0
O168 O 0.81597 0.46428 0.35139 0.0
C169 C 0.47506 0.46087 0.49564 0.0
O170 O 0.51058 0.46775 0.54378 0.0
O171 O 0.57228 0.44354 0.39552 0.0
Zn172 Zn 0.50269 0.39461 0.43006 0.0
O173 O 0.50077 0.36464 0.53491 0.0
C174 C 0.4952 0.33652 0.29292 0.0
O175 O 0.54012 0.37309 0.27835 0.0
O176 O 0.46428 0.43067 0.43974 0.0
C177 C 0.47942 0.31789 0.54521 0.0
O178 O 0.46053 0.28782 0.48608 0.0
C179 C 0.61014 0.44171 0.41819 0.0
O180 O 0.60505 0.40889 0.47044 0.0
O181 O 0.47168 0.33889 0.35137 0.0
C182 C 0.47508 0.00137 0.49565 0.0
O183 O 0.46822 0.03001 0.5438 0.0
O184 O 0.49242 0.11593 0.39554 0.0
Zn185 Zn 0.54134 0.09526 0.43008 0.0
O186 O 0.57129 0.12328 0.53495 0.0
C187 C 0.59943 0.14582 0.29291 0.0
O188 O 0.56283 0.15413 0.27828 0.0
O189 O 0.50528 0.02079 0.43974 0.0
C190 C 0.61804 0.14873 0.54525 0.0
O191 O 0.64812 0.15997 0.48612 0.0
C192 C 0.49429 0.15565 0.41818 0.0
O193 O 0.52713 0.18339 0.47038 0.0
O194 O 0.59707 0.11998 0.35141 0.0
C195 C 0.78142 0.61406 0.67324 0.0
O196 O 0.74587 0.58543 0.62514 0.0
O197 O 0.6842 0.49953 0.77333 0.0
Zn198 Zn 0.75377 0.52015 0.73881 0.0
O199 O 0.75568 0.4921 0.63396 0.0
C200 C 0.76116 0.4694 0.87582 0.0
O201 O 0.71617 0.46092 0.89022 0.0
O202 O 0.79221 0.59463 0.72911 0.0
C203 C 0.77708 0.46674 0.62367 0.0
O204 O 0.79606 0.45565 0.68278 0.0
C205 C 0.64631 0.45989 0.75057 0.0
O206 O 0.65137 0.43219 0.69823 0.0
O207 O 0.78475 0.49541 0.81752 0.0
C208 C 0.32188 0.15454 0.67323 0.0
O209 O 0.35052 0.14763 0.62512 0.0
O210 O 0.43642 0.17186 0.77333 0.0
Zn211 Zn 0.41579 0.2208 0.7388 0.0
O212 O 0.44384 0.25076 0.63394 0.0
C213 C 0.4665 0.27894 0.87584 0.0
O214 O 0.47494 0.24241 0.8903 0.0
O215 O 0.34132 0.18476 0.72911 0.0
C216 C 0.46922 0.29752 0.62364 0.0
O217 O 0.48036 0.32759 0.68276 0.0
C218 C 0.47607 0.17362 0.75059 0.0
O219 O 0.50377 0.20638 0.69825 0.0
O220 O 0.44053 0.27653 0.81749 0.0
C221 C 0.78138 0.15453 0.67319 0.0
O222 O 0.78827 0.19007 0.62508 0.0
O223 O 0.76409 0.25175 0.77337 0.0
Zn224 Zn 0.71514 0.18218 0.73882 0.0
O225 O 0.68517 0.18029 0.63398 0.0
C226 C 0.657 0.17477 0.87585 0.0
O227 O 0.6935 0.21976 0.89025 0.0
O228 O 0.75117 0.14374 0.72909 0.0
C229 C 0.63841 0.15888 0.62369 0.0
O230 O 0.60834 0.13988 0.6828 0.0
C231 C 0.76238 0.28965 0.75056 0.0
O232 O 0.72967 0.28462 0.69816 0.0
O233 O 0.65942 0.15119 0.81753 0.0
C234 C 0.3219 0.15454 0.17324 0.0
O235 O 0.35053 0.19008 0.12514 0.0
O236 O 0.43642 0.25176 0.27333 0.0
Zn237 Zn 0.41581 0.18219 0.2388 0.0
O238 O 0.44386 0.18028 0.13395 0.0
C239 C 0.4666 0.17483 0.37578 0.0
O240 O 0.47513 0.21983 0.39014 0.0
O241 O 0.34133 0.14374 0.22911 0.0
C242 C 0.46921 0.15888 0.12365 0.0
O243 O 0.4803 0.13989 0.18277 0.0
C244 C 0.47603 0.28966 0.25052 0.0
O245 O 0.50372 0.28463 0.19812 0.0
O246 O 0.44055 0.15122 0.31751 0.0
C247 C 0.78142 0.15458 0.17319 0.0
O248 O 0.74588 0.14769 0.12508 0.0
O249 O 0.6842 0.17185 0.27337 0.0
Zn250 Zn 0.75377 0.22082 0.23882 0.0
O251 O 0.75565 0.25078 0.13398 0.0
C252 C 0.76114 0.27897 0.37581 0.0
O253 O 0.71613 0.24249 0.39016 0.0
O254 O 0.79221 0.18479 0.22909 0.0
C255 C 0.77708 0.29754 0.12368 0.0
O256 O 0.79609 0.32761 0.18279 0.0
C257 C 0.64628 0.17352 0.25051 0.0
O258 O 0.65129 0.20619 0.19805 0.0
O259 O 0.78475 0.27653 0.31754 0.0
C260 C 0.78141 0.61407 0.17323 0.0
O261 O 0.78832 0.58543 0.12512 0.0
O262 O 0.76411 0.49954 0.27334 0.0
Zn263 Zn 0.71515 0.52016 0.2388 0.0
O264 O 0.68519 0.49211 0.13394 0.0
C265 C 0.657 0.46939 0.3758 0.0
O266 O 0.6935 0.4609 0.3902 0.0
O267 O 0.75119 0.59463 0.22911 0.0
C268 C 0.63844 0.46673 0.12364 0.0
O269 O 0.60837 0.45562 0.18276 0.0
C270 C 0.76239 0.45992 0.25053 0.0
O271 O 0.72969 0.43224 0.19812 0.0
O272 O 0.65943 0.49542 0.3175 0.0
C273 C 0.47506 0.00137 0.99564 0.0
O274 O 0.51058 0.03002 0.04378 0.0
O275 O 0.57227 0.11591 0.89555 0.0
Zn276 Zn 0.50269 0.09527 0.93007 0.0
O277 O 0.50076 0.12329 0.03493 0.0
C278 C 0.49524 0.14593 0.79298 0.0
O279 O 0.54019 0.15434 0.77847 0.0
O280 O 0.46427 0.02079 0.93974 0.0
C281 C 0.47942 0.14871 0.04522 0.0
O282 O 0.46053 0.1599 0.98609 0.0
C283 C 0.61014 0.1556 0.91825 0.0
O284 O 0.60506 0.18332 0.97052 0.0
O285 O 0.47169 0.11999 0.85137 0.0
C286 C 0.93458 0.46087 0.99565 0.0
O287 O 0.90594 0.46773 0.04381 0.0
O288 O 0.82003 0.44354 0.89554 0.0
Zn289 Zn 0.84069 0.39461 0.93008 0.0
O290 O 0.81267 0.36466 0.03495 0.0
C291 C 0.79008 0.33651 0.79295 0.0
O292 O 0.78172 0.37309 0.77837 0.0
O293 O 0.91516 0.43067 0.93974 0.0
C294 C 0.78722 0.31791 0.04525 0.0
O295 O 0.77599 0.28783 0.98612 0.0
C296 C 0.78034 0.44171 0.91822 0.0
O297 O 0.7526 0.4089 0.97048 0.0
O298 O 0.81596 0.33888 0.85141 0.0
C299 C 0.47509 0.46089 0.99564 0.0
O300 O 0.46821 0.42537 0.04378 0.0
O301 O 0.49241 0.36368 0.89552 0.0
Zn302 Zn 0.54134 0.43326 0.93006 0.0
O303 O 0.57131 0.43518 0.03491 0.0
C304 C 0.59945 0.44072 0.79296 0.0
O305 O 0.56291 0.39576 0.77846 0.0
O306 O 0.50529 0.47168 0.93974 0.0
C307 C 0.61807 0.45653 0.0452 0.0
O308 O 0.64814 0.47543 0.98608 0.0
C309 C 0.49419 0.3258 0.91824 0.0
O310 O 0.52697 0.33086 0.97055 0.0
O311 O 0.59706 0.46426 0.85137 0.0
C312 C 0.60125 0.79422 0.82896 0.0
O313 O 0.57262 0.75867 0.87707 0.0
O314 O 0.48673 0.697 0.72887 0.0
Zn315 Zn 0.50735 0.76657 0.76339 0.0
O316 O 0.47929 0.76847 0.86824 0.0
C317 C 0.45659 0.77396 0.62638 0.0
O318 O 0.4481 0.72897 0.61199 0.0
O319 O 0.58182 0.80501 0.77309 0.0
C320 C 0.45394 0.78988 0.87854 0.0
O321 O 0.44287 0.80888 0.81943 0.0
C322 C 0.44709 0.65911 0.75164 0.0
O323 O 0.4194 0.66415 0.804 0.0
O324 O 0.48261 0.79755 0.68468 0.0
C325 C 0.14174 0.79418 0.82901 0.0
O326 O 0.17727 0.80106 0.87712 0.0
O327 O 0.23895 0.77689 0.72883 0.0
Zn328 Zn 0.16939 0.72794 0.76338 0.0
O329 O 0.1675 0.69797 0.86821 0.0
C330 C 0.16198 0.66979 0.62636 0.0
O331 O 0.20698 0.70629 0.61197 0.0
O332 O 0.13095 0.76397 0.77311 0.0
C333 C 0.14607 0.65121 0.87851 0.0
O334 O 0.12704 0.62114 0.8194 0.0
C335 C 0.27686 0.77519 0.75164 0.0
O336 O 0.27184 0.7425 0.80407 0.0
O337 O 0.1384 0.67222 0.68466 0.0
C338 C 0.14174 0.33469 0.82897 0.0
O339 O 0.13484 0.36332 0.87709 0.0
O340 O 0.15906 0.44922 0.72886 0.0
Zn341 Zn 0.20801 0.4286 0.7634 0.0
O342 O 0.23797 0.45666 0.86825 0.0
C343 C 0.26615 0.47932 0.62637 0.0
O344 O 0.22963 0.48778 0.61193 0.0
O345 O 0.17197 0.35412 0.7731 0.0
C346 C 0.28472 0.48202 0.87855 0.0
O347 O 0.31479 0.49312 0.81944 0.0
C348 C 0.1608 0.48886 0.75163 0.0
O349 O 0.19353 0.51655 0.80399 0.0
O350 O 0.26373 0.45333 0.6847 0.0
C351 C 0.44809 0.94739 0.00656 0.0
O352 O 0.41257 0.91875 0.95843 0.0
O353 O 0.35089 0.83284 0.10665 0.0
Zn354 Zn 0.42048 0.8535 0.07213 0.0
O355 O 0.42242 0.82548 0.96727 0.0
C356 C 0.42797 0.8029 0.20927 0.0
O357 O 0.38305 0.79456 0.22386 0.0
O358 O 0.45888 0.92797 0.06246 0.0
C359 C 0.44373 0.80004 0.95698 0.0
O360 O 0.46258 0.78881 0.01611 0.0
C361 C 0.31304 0.79311 0.08402 0.0
O362 O 0.31815 0.76537 0.03182 0.0
O363 O 0.45148 0.82878 0.15081 0.0
C364 C -0.01144 0.48787 0.00656 0.0
O365 O 0.0172 0.48101 0.9584 0.0
O366 O 0.10313 0.50523 0.10665 0.0
Zn367 Zn 0.08246 0.55414 0.07212 0.0
O368 O 0.11046 0.58409 0.96724 0.0
C369 C 0.133 0.61222 0.2093 0.0
O370 O 0.14128 0.57561 0.22395 0.0
O371 O 0.00798 0.51807 0.06247 0.0
C372 C 0.13593 0.63084 0.95695 0.0
O373 O 0.14721 0.66092 0.01608 0.0
C374 C 0.14286 0.50712 0.08404 0.0
O375 O 0.17061 0.53998 0.03186 0.0
O376 O 0.10718 0.60987 0.15078 0.0
C377 C 0.44808 0.48786 0.00656 0.0
O378 O 0.45495 0.52338 0.95843 0.0
O379 O 0.43074 0.58507 0.10667 0.0
Zn380 Zn 0.38181 0.51549 0.07214 0.0
O381 O 0.35185 0.51355 0.96728 0.0
C382 C 0.32372 0.50798 0.20929 0.0
O383 O 0.3603 0.5529 0.22387 0.0
O384 O 0.41787 0.47708 0.06246 0.0
C385 C 0.30509 0.49223 0.95699 0.0
O386 O 0.27502 0.47337 0.01612 0.0
C387 C 0.42889 0.62293 0.08402 0.0
O388 O 0.39606 0.61784 0.03179 0.0
O389 O 0.32609 0.48448 0.15082 0.0
C390 C -0.01143 0.48786 0.50656 0.0
O391 O 0.01721 0.52338 0.45843 0.0
O392 O 0.10311 0.58507 0.60665 0.0
Zn393 Zn 0.08246 0.51548 0.57213 0.0
O394 O 0.11048 0.51354 0.46726 0.0
C395 C 0.1331 0.50802 0.70923 0.0
O396 O 0.14148 0.55296 0.72377 0.0
O397 O 0.00799 0.47707 0.56246 0.0
C398 C 0.13591 0.49223 0.45696 0.0
O399 O 0.14713 0.47338 0.5161 0.0
C400 C 0.14281 0.62293 0.58396 0.0
O401 O 0.17054 0.61785 0.53171 0.0
O402 O 0.10719 0.48449 0.65081 0.0
C403 C 0.44809 0.48788 0.50656 0.0
O404 O 0.41257 0.48101 0.45843 0.0
O405 O 0.35088 0.50521 0.60668 0.0
Zn406 Zn 0.42046 0.55414 0.57214 0.0
O407 O 0.42239 0.58411 0.46728 0.0
C408 C 0.42793 0.61224 0.70925 0.0
O409 O 0.38298 0.57569 0.72378 0.0
O410 O 0.45888 0.51809 0.56246 0.0
C411 C 0.44373 0.63086 0.45699 0.0
O412 O 0.46261 0.66093 0.51612 0.0
C413 C 0.31301 0.50701 0.58397 0.0
O414 O 0.31807 0.5398 0.53168 0.0
O415 O 0.45146 0.60986 0.65083 0.0
C416 C 0.44807 0.94739 0.50656 0.0
O417 O 0.45494 0.91875 0.4584 0.0
O418 O 0.43074 0.83283 0.60665 0.0
Zn419 Zn 0.38182 0.85349 0.57212 0.0
O420 O 0.35187 0.82548 0.46724 0.0
C421 C 0.32372 0.8029 0.70925 0.0
O422 O 0.3603 0.79456 0.72385 0.0
O423 O 0.41788 0.92796 0.56247 0.0
C424 C 0.30512 0.80002 0.45694 0.0
O425 O 0.27504 0.78877 0.51608 0.0
C426 C 0.4289 0.79313 0.58398 0.0
O427 O 0.39609 0.7654 0.53173 0.0
O428 O 0.32609 0.82877 0.65079 0.0
C429 C 0.14174 0.33471 0.32896 0.0
O430 O 0.17729 0.36334 0.37706 0.0
O431 O 0.23896 0.44922 0.22886 0.0
Zn432 Zn 0.16939 0.42861 0.26339 0.0
O433 O 0.16749 0.45668 0.36824 0.0
C434 C 0.16205 0.47944 0.12643 0.0
O435 O 0.20707 0.48799 0.1121 0.0
O436 O 0.13094 0.35414 0.27309 0.0
C437 C 0.14607 0.48201 0.37853 0.0
O438 O 0.12705 0.49306 0.31942 0.0
C439 C 0.27687 0.48882 0.25169 0.0
O440 O 0.27185 0.5165 0.3041 0.0
O441 O 0.13842 0.45336 0.18467 0.0
C442 C 0.60126 0.7942 0.32897 0.0
O443 O 0.57263 0.80111 0.37709 0.0
O444 O 0.48674 0.77691 0.22886 0.0
Zn445 Zn 0.50735 0.72795 0.2634 0.0
O446 O 0.47929 0.69799 0.36825 0.0
C447 C 0.45657 0.66979 0.12641 0.0
O448 O 0.44807 0.70629 0.11203 0.0
O449 O 0.58183 0.76398 0.27309 0.0
C450 C 0.45393 0.65123 0.37855 0.0
O451 O 0.44284 0.62116 0.31944 0.0
C452 C 0.44713 0.7752 0.25167 0.0
O453 O 0.41944 0.7425 0.30409 0.0
O454 O 0.48261 0.67223 0.1847 0.0
C455 C 0.14179 0.79422 0.32901 0.0
O456 O 0.1349 0.75868 0.37712 0.0
O457 O 0.15905 0.697 0.22883 0.0
Zn458 Zn 0.20802 0.76656 0.26338 0.0
O459 O 0.23799 0.76845 0.36821 0.0
C460 C 0.26618 0.77393 0.12641 0.0
O461 O 0.22971 0.72891 0.11208 0.0
O462 O 0.172 0.80501 0.27311 0.0
C463 C 0.28475 0.78988 0.37851 0.0
O464 O 0.31481 0.80892 0.3194 0.0
C465 C 0.1607 0.65908 0.2517 0.0
O466 O 0.19336 0.66407 0.30418 0.0
O467 O 0.26373 0.79755 0.18466 0.0
loop_
_geom_bond_atom_site_label_1
_geom_bond_atom_site_label_2
_geom_bond_distance
_geom_bond_site_symmetry_2
_ccdc_geom_bond_type
C0 O1 1.160 . S
C0 O7 1.185 . S
O1 C0 1.160 . S
O2 Zn3 1.899 . S
O2 C10 1.284 . S
Zn3 O2 1.899 . S
Zn3 O4 2.032 . S
Zn3 O7 2.086 . S
Zn3 O12 1.977 . S
O4 Zn3 2.032 . S
O4 C8 1.278 . S
C5 O6 1.203 . S
C5 O12 1.267 1_556 S
O6 C5 1.203 . S
O7 C0 1.185 . S
O7 Zn3 2.086 . S
C8 O4 1.278 . S
C8 O9 1.211 . S
O9 C8 1.211 . S
C10 O2 1.284 . S
C10 O11 1.273 . S
O11 C10 1.273 . S
O12 Zn3 1.977 . S
O12 C5 1.267 1_554 S
C13 O14 1.160 . S
C13 O20 1.185 . S
O14 C13 1.160 . S
O15 Zn16 1.899 . S
O15 C23 1.284 . S
Zn16 O15 1.899 . S
Zn16 O17 2.032 . S
Zn16 O20 2.086 . S
Zn16 O25 1.977 . S
O17 Zn16 2.032 . S
O17 C21 1.278 . S
C18 O19 1.211 1_565 S
C18 O25 1.248 1_566 S
O19 C18 1.211 1_545 S
O20 C13 1.185 . S
O20 Zn16 2.086 . S
C21 O17 1.278 . S
C21 O22 1.211 1_545 S
O22 C21 1.211 1_565 S
C23 O15 1.284 . S
C23 O24 1.273 . S
O24 C23 1.273 . S
O25 Zn16 1.977 . S
O25 C18 1.248 1_544 S
C26 O27 1.160 . S
C26 O33 1.185 . S
O27 C26 1.160 . S
O28 Zn29 1.899 . S
O28 C36 1.284 . S
Zn29 O28 1.899 . S
Zn29 O30 2.032 . S
Zn29 O33 2.086 . S
Zn29 O38 1.977 . S
O30 Zn29 2.032 . S
O30 C34 1.278 . S
C31 O32 1.187 1_455 S
C31 O38 1.264 1_456 S
O32 C31 1.187 1_655 S
O33 C26 1.185 . S
O33 Zn29 2.086 . S
C34 O30 1.278 . S
C34 O35 1.211 1_655 S
O35 C34 1.211 1_455 S
C36 O28 1.284 . S
C36 O37 1.273 . S
O37 C36 1.273 . S
O38 Zn29 1.977 . S
O38 C31 1.264 1_654 S
C39 O40 1.160 . S
C39 O46 1.185 . S
O40 C39 1.160 . S
O41 Zn42 1.899 . S
O41 C49 1.284 . S
Zn42 O41 1.899 . S
Zn42 O43 2.032 . S
Zn42 O46 2.086 . S
Zn42 O51 1.977 . S
O43 Zn42 2.032 . S
O43 C47 1.278 . S
C44 O45 1.203 . S
C44 O51 1.267 . S
O45 C44 1.203 . S
O46 C39 1.185 . S
O46 Zn42 2.086 . S
C47 O43 1.278 . S
C47 O48 1.211 . S
O48 C47 1.211 . S
C49 O41 1.284 . S
C49 O50 1.273 . S
O50 C49 1.273 . S
O51 Zn42 1.977 . S
O51 C44 1.267 . S
C52 O53 1.160 . S
C52 O59 1.185 . S
O53 C52 1.160 . S
O54 Zn55 1.899 . S
O54 C62 1.284 . S
Zn55 O54 1.899 . S
Zn55 O56 2.032 . S
Zn55 O59 2.086 . S
Zn55 O64 1.977 . S
O56 Zn55 2.032 . S
O56 C60 1.278 . S
C57 O58 1.187 1_545 S
C57 O64 1.264 1_545 S
O58 C57 1.187 1_565 S
O59 C52 1.185 . S
O59 Zn55 2.086 . S
C60 O56 1.278 . S
C60 O61 1.211 1_565 S
O61 C60 1.211 1_545 S
C62 O54 1.284 . S
C62 O63 1.273 . S
O63 C62 1.273 . S
O64 Zn55 1.977 . S
O64 C57 1.264 1_565 S
C65 O66 1.160 . S
C65 O72 1.185 . S
O66 C65 1.160 . S
O67 Zn68 1.899 . S
O67 C75 1.284 . S
Zn68 O67 1.899 . S
Zn68 O69 2.032 . S
Zn68 O72 2.086 . S
Zn68 O77 1.977 . S
O69 Zn68 2.032 . S
O69 C73 1.278 . S
C70 O71 1.211 1_655 S
C70 O77 1.248 1_655 S
O71 C70 1.211 1_455 S
O72 C65 1.185 . S
O72 Zn68 2.086 . S
C73 O69 1.278 . S
C73 O74 1.211 1_455 S
O74 C73 1.211 1_655 S
C75 O67 1.284 . S
C75 O76 1.273 . S
O76 C75 1.273 . S
O77 Zn68 1.977 . S
O77 C70 1.248 1_455 S
C78 O79 1.160 . S
C78 O85 1.185 . S
O79 C78 1.160 . S
O80 Zn81 1.899 . S
O80 C88 1.284 . S
Zn81 O80 1.899 . S
Zn81 O82 2.032 . S
Zn81 O85 2.086 . S
Zn81 O90 1.977 . S
O82 Zn81 2.032 . S
O82 C86 1.278 . S
C83 O84 1.203 . S
C83 O90 1.267 1_554 S
O84 C83 1.203 . S
O85 C78 1.185 . S
O85 Zn81 2.086 . S
C86 O82 1.278 . S
C86 O87 1.211 . S
O87 C86 1.211 . S
C88 O80 1.284 . S
C88 O89 1.273 . S
O89 C88 1.273 . S
O90 Zn81 1.977 . S
O90 C83 1.267 1_556 S
C91 O92 1.160 . S
C91 O98 1.185 . S
O92 C91 1.160 . S
O93 Zn94 1.899 . S
O93 C101 1.284 . S
Zn94 O93 1.899 . S
Zn94 O95 2.032 . S
Zn94 O98 2.086 . S
Zn94 O103 1.977 . S
O95 Zn94 2.032 . S
O95 C99 1.278 . S
C96 O97 1.211 1_545 S
C96 O103 1.248 1_544 S
O97 C96 1.211 1_565 S
O98 C91 1.185 . S
O98 Zn94 2.086 . S
C99 O95 1.278 . S
C99 O100 1.211 1_565 S
O100 C99 1.211 1_545 S
C101 O93 1.284 . S
C101 O102 1.273 . S
O102 C101 1.273 . S
O103 Zn94 1.977 . S
O103 C96 1.248 1_566 S
C104 O105 1.160 . S
C104 O111 1.185 . S
O105 C104 1.160 . S
O106 Zn107 1.899 . S
O106 C114 1.284 . S
Zn107 O106 1.899 . S
Zn107 O108 2.032 . S
Zn107 O111 2.086 . S
Zn107 O116 1.977 . S
O108 Zn107 2.032 . S
O108 C112 1.278 . S
C109 O110 1.187 1_655 S
C109 O116 1.264 1_654 S
O110 C109 1.187 1_455 S
O111 C104 1.185 . S
O111 Zn107 2.086 . S
C112 O108 1.278 . S
C112 O113 1.211 1_455 S
O113 C112 1.211 1_655 S
C114 O106 1.284 . S
C114 O115 1.273 . S
O115 C114 1.273 . S
O116 Zn107 1.977 . S
O116 C109 1.264 1_456 S
C117 O118 1.160 . S
C117 O124 1.185 . S
O118 C117 1.160 . S
O119 Zn120 1.899 . S
O119 C127 1.284 . S
Zn120 O119 1.899 . S
Zn120 O121 2.032 . S
Zn120 O124 2.086 . S
Zn120 O129 1.977 . S
O121 Zn120 2.032 . S
O121 C125 1.278 . S
C122 O123 1.203 . S
C122 O129 1.267 . S
O123 C122 1.203 . S
O124 C117 1.185 . S
O124 Zn120 2.086 . S
C125 O121 1.278 . S
C125 O126 1.211 . S
O126 C125 1.211 . S
C127 O119 1.284 . S
C127 O128 1.273 . S
O128 C127 1.273 . S
O129 Zn120 1.977 . S
O129 C122 1.267 . S
C130 O131 1.160 . S
C130 O137 1.185 . S
O131 C130 1.160 . S
O132 Zn133 1.899 . S
O132 C140 1.284 . S
Zn133 O132 1.899 . S
Zn133 O134 2.032 . S
Zn133 O137 2.086 . S
Zn133 O142 1.977 . S
O134 Zn133 2.032 . S
O134 C138 1.278 . S
C135 O136 1.187 1_565 S
C135 O142 1.264 1_565 S
O136 C135 1.187 1_545 S
O137 C130 1.185 . S
O137 Zn133 2.086 . S
C138 O134 1.278 . S
C138 O139 1.211 1_545 S
O139 C138 1.211 1_565 S
C140 O132 1.284 . S
C140 O141 1.273 . S
O141 C140 1.273 . S
O142 Zn133 1.977 . S
O142 C135 1.264 1_545 S
C143 O144 1.160 . S
C143 O150 1.185 . S
O144 C143 1.160 . S
O145 Zn146 1.899 . S
O145 C153 1.284 . S
Zn146 O145 1.899 . S
Zn146 O147 2.032 . S
Zn146 O150 2.086 . S
Zn146 O155 1.977 . S
O147 Zn146 2.032 . S
O147 C151 1.278 . S
C148 O149 1.211 1_455 S
C148 O155 1.248 1_455 S
O149 C148 1.211 1_655 S
O150 C143 1.185 . S
O150 Zn146 2.086 . S
C151 O147 1.278 . S
C151 O152 1.211 1_655 S
O152 C151 1.211 1_455 S
C153 O145 1.284 . S
C153 O154 1.273 . S
O154 C153 1.273 . S
O155 Zn146 1.977 . S
O155 C148 1.248 1_655 S
C156 O157 1.160 . S
C156 O163 1.185 . S
O157 C156 1.160 . S
O158 Zn159 1.899 . S
O158 C166 1.284 . S
Zn159 O158 1.899 . S
Zn159 O160 2.032 . S
Zn159 O163 2.086 . S
Zn159 O168 1.977 . S
O160 Zn159 2.032 . S
O160 C164 1.278 . S
C161 O162 1.203 . S
C161 O168 1.267 . S
O162 C161 1.203 . S
O163 C156 1.185 . S
O163 Zn159 2.086 . S
C164 O160 1.278 . S
C164 O165 1.211 . S
O165 C164 1.211 . S
C166 O158 1.284 . S
C166 O167 1.273 . S
O167 C166 1.273 . S
O168 Zn159 1.977 . S
O168 C161 1.267 . S
C169 O170 1.160 . S
C169 O176 1.185 . S
O170 C169 1.160 . S
O171 Zn172 1.899 . S
O171 C179 1.284 . S
Zn172 O171 1.899 . S
Zn172 O173 2.032 . S
Zn172 O176 2.086 . S
Zn172 O181 1.977 . S
O173 Zn172 2.032 . S
O173 C177 1.278 . S
C174 O175 1.203 . S
C174 O181 1.267 . S
O175 C174 1.203 . S
O176 C169 1.185 . S
O176 Zn172 2.086 . S
C177 O173 1.278 . S
C177 O178 1.211 . S
O178 C177 1.211 . S
C179 O171 1.284 . S
C179 O180 1.273 . S
O180 C179 1.273 . S
O181 Zn172 1.977 . S
O181 C174 1.267 . S
C182 O183 1.160 . S
C182 O189 1.185 . S
O183 C182 1.160 . S
O184 Zn185 1.899 . S
O184 C192 1.284 . S
Zn185 O184 1.899 . S
Zn185 O186 2.032 . S
Zn185 O189 2.086 . S
Zn185 O194 1.977 . S
O186 Zn185 2.032 . S
O186 C190 1.278 . S
C187 O188 1.203 . S
C187 O194 1.267 . S
O188 C187 1.203 . S
O189 C182 1.185 . S
O189 Zn185 2.086 . S
C190 O186 1.278 . S
C190 O191 1.211 . S
O191 C190 1.211 . S
C192 O184 1.284 . S
C192 O193 1.273 . S
O193 C192 1.273 . S
O194 Zn185 1.977 . S
O194 C187 1.267 . S
C195 O196 1.160 . S
C195 O202 1.185 . S
O196 C195 1.160 . S
O197 Zn198 1.899 . S
O197 C205 1.284 . S
Zn198 O197 1.899 . S
Zn198 O199 2.032 . S
Zn198 O202 2.086 . S
Zn198 O207 1.977 . S
O199 Zn198 2.032 . S
O199 C203 1.278 . S
C200 O201 1.203 . S
C200 O207 1.267 . S
O201 C200 1.203 . S
O202 C195 1.185 . S
O202 Zn198 2.086 . S
C203 O199 1.278 . S
C203 O204 1.211 . S
O204 C203 1.211 . S
C205 O197 1.284 . S
C205 O206 1.273 . S
O206 C205 1.273 . S
O207 Zn198 1.977 . S
O207 C200 1.267 . S
C208 O209 1.160 . S
C208 O215 1.185 . S
O209 C208 1.160 . S
O210 Zn211 1.899 . S
O210 C218 1.284 . S
Zn211 O210 1.899 . S
Zn211 O212 2.032 . S
Zn211 O215 2.086 . S
Zn211 O220 1.977 . S
O212 Zn211 2.032 . S
O212 C216 1.278 . S
C213 O214 1.203 . S
C213 O220 1.267 . S
O214 C213 1.203 . S
O215 C208 1.185 . S
O215 Zn211 2.086 . S
C216 O212 1.278 . S
C216 O217 1.211 . S
O217 C216 1.211 . S
C218 O210 1.284 . S
C218 O219 1.273 . S
O219 C218 1.273 . S
O220 Zn211 1.977 . S
O220 C213 1.267 . S
C221 O222 1.160 . S
C221 O228 1.185 . S
O222 C221 1.160 . S
O223 Zn224 1.899 . S
O223 C231 1.284 . S
Zn224 O223 1.899 . S
Zn224 O225 2.032 . S
Zn224 O228 2.086 . S
Zn224 O233 1.977 . S
O225 Zn224 2.032 . S
O225 C229 1.278 . S
C226 O227 1.203 . S
C226 O233 1.267 . S
O227 C226 1.203 . S
O228 C221 1.185 . S
O228 Zn224 2.086 . S
C229 O225 1.278 . S
C229 O230 1.211 . S
O230 C229 1.211 . S
C231 O223 1.284 . S
C231 O232 1.273 . S
O232 C231 1.273 . S
O233 Zn224 1.977 . S
O233 C226 1.267 . S
C234 O235 1.160 . S
C234 O241 1.185 . S
O235 C234 1.160 . S
O236 Zn237 1.899 . S
O236 C244 1.284 . S
Zn237 O236 1.899 . S
Zn237 O238 2.032 . S
Zn237 O241 2.086 . S
Zn237 O246 1.977 . S
O238 Zn237 2.032 . S
O238 C242 1.278 . S
C239 O240 1.203 . S
C239 O246 1.267 . S
O240 C239 1.203 . S
O241 C234 1.185 . S
O241 Zn237 2.086 . S
C242 O238 1.278 . S
C242 O243 1.211 . S
O243 C242 1.211 . S
C244 O236 1.284 . S
C244 O245 1.273 . S
O245 C244 1.273 . S
O246 Zn237 1.977 . S
O246 C239 1.267 . S
C247 O248 1.160 . S
C247 O254 1.185 . S
O248 C247 1.160 . S
O249 Zn250 1.899 . S
O249 C257 1.284 . S
Zn250 O249 1.899 . S
Zn250 O251 2.032 . S
Zn250 O254 2.086 . S
Zn250 O259 1.977 . S
O251 Zn250 2.032 . S
O251 C255 1.278 . S
C252 O253 1.203 . S
C252 O259 1.267 . S
O253 C252 1.203 . S
O254 C247 1.185 . S
O254 Zn250 2.086 . S
C255 O251 1.278 . S
C255 O256 1.211 . S
O256 C255 1.211 . S
C257 O249 1.284 . S
C257 O258 1.273 . S
O258 C257 1.273 . S
O259 Zn250 1.977 . S
O259 C252 1.267 . S
C260 O261 1.160 . S
C260 O267 1.185 . S
O261 C260 1.160 . S
O262 Zn263 1.899 . S
O262 C270 1.284 . S
Zn263 O262 1.899 . S
Zn263 O264 2.032 . S
Zn263 O267 2.086 . S
Zn263 O272 1.977 . S
O264 Zn263 2.032 . S
O264 C268 1.278 . S
C265 O266 1.203 . S
C265 O272 1.267 . S
O266 C265 1.203 . S
O267 C260 1.185 . S
O267 Zn263 2.086 . S
C268 O264 1.278 . S
C268 O269 1.211 . S
O269 C268 1.211 . S
C270 O262 1.284 . S
C270 O271 1.273 . S
O271 C270 1.273 . S
O272 Zn263 1.977 . S
O272 C265 1.267 . S
C273 O274 1.160 . S
C273 O280 1.185 . S
O274 C273 1.160 . S
O275 Zn276 1.899 . S
O275 C283 1.284 . S
Zn276 O275 1.899 . S
Zn276 O277 2.032 1_556 S
Zn276 O280 2.086 . S
Zn276 O285 1.977 . S
O277 Zn276 2.032 1_554 S
O277 C281 1.278 . S
C278 O279 1.203 . S
C278 O285 1.267 . S
O279 C278 1.203 . S
O280 C273 1.185 . S
O280 Zn276 2.086 . S
C281 O277 1.278 . S
C281 O282 1.211 . S
O282 C281 1.211 . S
C283 O275 1.284 . S
C283 O284 1.273 . S
O284 C283 1.273 . S
O285 Zn276 1.977 . S
O285 C278 1.267 . S
C286 O287 1.160 . S
C286 O293 1.185 . S
O287 C286 1.160 . S
O288 Zn289 1.899 . S
O288 C296 1.284 . S
Zn289 O288 1.899 . S
Zn289 O290 2.032 1_556 S
Zn289 O293 2.086 . S
Zn289 O298 1.977 . S
O290 Zn289 2.032 1_554 S
O290 C294 1.278 . S
C291 O292 1.203 . S
C291 O298 1.267 . S
O292 C291 1.203 . S
O293 C286 1.185 . S
O293 Zn289 2.086 . S
C294 O290 1.278 . S
C294 O295 1.211 . S
O295 C294 1.211 . S
C296 O288 1.284 . S
C296 O297 1.273 . S
O297 C296 1.273 . S
O298 Zn289 1.977 . S
O298 C291 1.267 . S
C299 O300 1.160 . S
C299 O306 1.185 . S
O300 C299 1.160 . S
O301 Zn302 1.899 . S
O301 C309 1.284 . S
Zn302 O301 1.899 . S
Zn302 O303 2.032 1_556 S
Zn302 O306 2.086 . S
Zn302 O311 1.977 . S
O303 Zn302 2.032 1_554 S
O303 C307 1.278 . S
C304 O305 1.203 . S
C304 O311 1.267 . S
O305 C304 1.203 . S
O306 C299 1.185 . S
O306 Zn302 2.086 . S
C307 O303 1.278 . S
C307 O308 1.211 . S
O308 C307 1.211 . S
C309 O301 1.284 . S
C309 O310 1.273 . S
O310 C309 1.273 . S
O311 Zn302 1.977 . S
O311 C304 1.267 . S
C312 O313 1.160 . S
C312 O319 1.185 . S
O313 C312 1.160 . S
O314 Zn315 1.899 . S
O314 C322 1.284 . S
Zn315 O314 1.899 . S
Zn315 O316 2.032 . S
Zn315 O319 2.086 . S
Zn315 O324 1.977 . S
O316 Zn315 2.032 . S
O316 C320 1.278 . S
C317 O318 1.203 . S
C317 O324 1.267 . S
O318 C317 1.203 . S
O319 C312 1.185 . S
O319 Zn315 2.086 . S
C320 O316 1.278 . S
C320 O321 1.211 . S
O321 C320 1.211 . S
C322 O314 1.284 . S
C322 O323 1.273 . S
O323 C322 1.273 . S
O324 Zn315 1.977 . S
O324 C317 1.267 . S
C325 O326 1.160 . S
C325 O332 1.185 . S
O326 C325 1.160 . S
O327 Zn328 1.899 . S
O327 C335 1.284 . S
Zn328 O327 1.899 . S
Zn328 O329 2.032 . S
Zn328 O332 2.086 . S
Zn328 O337 1.977 . S
O329 Zn328 2.032 . S
O329 C333 1.278 . S
C330 O331 1.203 . S
C330 O337 1.267 . S
O331 C330 1.203 . S
O332 C325 1.185 . S
O332 Zn328 2.086 . S
C333 O329 1.278 . S
C333 O334 1.211 . S
O334 C333 1.211 . S
C335 O327 1.284 . S
C335 O336 1.273 . S
O336 C335 1.273 . S
O337 Zn328 1.977 . S
O337 C330 1.267 . S
C338 O339 1.160 . S
C338 O345 1.185 . S
O339 C338 1.160 . S
O340 Zn341 1.899 . S
O340 C348 1.284 . S
Zn341 O340 1.899 . S
Zn341 O342 2.032 . S
Zn341 O345 2.086 . S
Zn341 O350 1.977 . S
O342 Zn341 2.032 . S
O342 C346 1.278 . S
C343 O344 1.203 . S
C343 O350 1.267 . S
O344 C343 1.203 . S
O345 C338 1.185 . S
O345 Zn341 2.086 . S
C346 O342 1.278 . S
C346 O347 1.211 . S
O347 C346 1.211 . S
C348 O340 1.284 . S
C348 O349 1.273 . S
O349 C348 1.273 . S
O350 Zn341 1.977 . S
O350 C343 1.267 . S
C351 O352 1.160 . S
C351 O358 1.185 . S
O352 C351 1.160 . S
O353 Zn354 1.899 . S
O353 C361 1.284 . S
Zn354 O353 1.899 . S
Zn354 O355 2.032 1_554 S
Zn354 O358 2.086 . S
Zn354 O363 1.977 . S
O355 Zn354 2.032 1_556 S
O355 C359 1.278 . S
C356 O357 1.203 . S
C356 O363 1.267 . S
O357 C356 1.203 . S
O358 C351 1.185 . S
O358 Zn354 2.086 . S
C359 O355 1.278 . S
C359 O360 1.211 . S
O360 C359 1.211 . S
C361 O353 1.284 . S
C361 O362 1.273 . S
O362 C361 1.273 . S
O363 Zn354 1.977 . S
O363 C356 1.267 . S
C364 O365 1.160 . S
C364 O371 1.185 . S
O365 C364 1.160 . S
O366 Zn367 1.899 . S
O366 C374 1.284 . S
Zn367 O366 1.899 . S
Zn367 O368 2.032 1_554 S
Zn367 O371 2.086 . S
Zn367 O376 1.977 . S
O368 Zn367 2.032 1_556 S
O368 C372 1.278 . S
C369 O370 1.203 . S
C369 O376 1.267 . S
O370 C369 1.203 . S
O371 C364 1.185 . S
O371 Zn367 2.086 . S
C372 O368 1.278 . S
C372 O373 1.211 . S
O373 C372 1.211 . S
C374 O366 1.284 . S
C374 O375 1.273 . S
O375 C374 1.273 . S
O376 Zn367 1.977 . S
O376 C369 1.267 . S
C377 O378 1.160 . S
C377 O384 1.185 . S
O378 C377 1.160 . S
O379 Zn380 1.899 . S
O379 C387 1.284 . S
Zn380 O379 1.899 . S
Zn380 O381 2.032 1_554 S
Zn380 O384 2.086 . S
Zn380 O389 1.977 . S
O381 Zn380 2.032 1_556 S
O381 C385 1.278 . S
C382 O383 1.203 . S
C382 O389 1.267 . S
O383 C382 1.203 . S
O384 C377 1.185 . S
O384 Zn380 2.086 . S
C385 O381 1.278 . S
C385 O386 1.211 . S
O386 C385 1.211 . S
C387 O379 1.284 . S
C387 O388 1.273 . S
O388 C387 1.273 . S
O389 Zn380 1.977 . S
O389 C382 1.267 . S
C390 O391 1.160 . S
C390 O397 1.185 . S
O391 C390 1.160 . S
O392 Zn393 1.899 . S
O392 C400 1.284 . S
Zn393 O392 1.899 . S
Zn393 O394 2.032 . S
Zn393 O397 2.086 . S
Zn393 O402 1.977 . S
O394 Zn393 2.032 . S
O394 C398 1.278 . S
C395 O396 1.203 . S
C395 O402 1.267 . S
O396 C395 1.203 . S
O397 C390 1.185 . S
O397 Zn393 2.086 . S
C398 O394 1.278 . S
C398 O399 1.211 . S
O399 C398 1.211 . S
C400 O392 1.284 . S
C400 O401 1.273 . S
O401 C400 1.273 . S
O402 Zn393 1.977 . S
O402 C395 1.267 . S
C403 O404 1.160 . S
C403 O410 1.185 . S
O404 C403 1.160 . S
O405 Zn406 1.899 . S
O405 C413 1.284 . S
Zn406 O405 1.899 . S
Zn406 O407 2.032 . S
Zn406 O410 2.086 . S
Zn406 O415 1.977 . S
O407 Zn406 2.032 . S
O407 C411 1.278 . S
C408 O409 1.203 . S
C408 O415 1.267 . S
O409 C408 1.203 . S
O410 C403 1.185 . S
O410 Zn406 2.086 . S
C411 O407 1.278 . S
C411 O412 1.211 . S
O412 C411 1.211 . S
C413 O405 1.284 . S
C413 O414 1.273 . S
O414 C413 1.273 . S
O415 Zn406 1.977 . S
O415 C408 1.267 . S
C416 O417 1.160 . S
C416 O423 1.185 . S
O417 C416 1.160 . S
O418 Zn419 1.899 . S
O418 C426 1.284 . S
Zn419 O418 1.899 . S
Zn419 O420 2.032 . S
Zn419 O423 2.086 . S
Zn419 O428 1.977 . S
O420 Zn419 2.032 . S
O420 C424 1.278 . S
C421 O422 1.203 . S
C421 O428 1.267 . S
O422 C421 1.203 . S
O423 C416 1.185 . S
O423 Zn419 2.086 . S
C424 O420 1.278 . S
C424 O425 1.211 . S
O425 C424 1.211 . S
C426 O418 1.284 . S
C426 O427 1.273 . S
O427 C426 1.273 . S
O428 Zn419 1.977 . S
O428 C421 1.267 . S
C429 O430 1.160 . S
C429 O436 1.185 . S
O430 C429 1.160 . S
O431 Zn432 1.899 . S
O431 C439 1.284 . S
Zn432 O431 1.899 . S
Zn432 O433 2.032 . S
Zn432 O436 2.086 . S
Zn432 O441 1.977 . S
O433 Zn432 2.032 . S
O433 C437 1.278 . S
C434 O435 1.203 . S
C434 O441 1.267 . S
O435 C434 1.203 . S
O436 C429 1.185 . S
O436 Zn432 2.086 . S
C437 O433 1.278 . S
C437 O438 1.211 . S
O438 C437 1.211 . S
C439 O431 1.284 . S
C439 O440 1.273 . S
O440 C439 1.273 . S
O441 Zn432 1.977 . S
O441 C434 1.267 . S
C442 O443 1.160 . S
C442 O449 1.185 . S
O443 C442 1.160 . S
O444 Zn445 1.899 . S
O444 C452 1.284 . S
Zn445 O444 1.899 . S
Zn445 O446 2.032 . S
Zn445 O449 2.086 . S
Zn445 O454 1.977 . S
O446 Zn445 2.032 . S
O446 C450 1.278 . S
C447 O448 1.203 . S
C447 O454 1.267 . S
O448 C447 1.203 . S
O449 C442 1.185 . S
O449 Zn445 2.086 . S
C450 O446 1.278 . S
C450 O451 1.211 . S
O451 C450 1.211 . S
C452 O444 1.284 . S
C452 O453 1.273 . S
O453 C452 1.273 . S
O454 Zn445 1.977 . S
O454 C447 1.267 . S
C455 O456 1.160 . S
C455 O462 1.185 . S
O456 C455 1.160 . S
O457 Zn458 1.899 . S
O457 C465 1.284 . S
Zn458 O457 1.899 . S
Zn458 O459 2.032 . S
Zn458 O462 2.086 . S
Zn458 O467 1.977 . S
O459 Zn458 2.032 . S
O459 C463 1.278 . S
C460 O461 1.203 . S
C460 O467 1.267 . S
O461 C460 1.203 . S
O462 C455 1.185 . S
O462 Zn458 2.086 . S
C463 O459 1.278 . S
C463 O464 1.211 . S
O464 C463 1.211 . S
C465 O457 1.284 . S
C465 O466 1.273 . S
O466 C465 1.273 . S
O467 Zn458 1.977 . S
O467 C460 1.267 . S
C10 C96 1.349 . S
C23 C109 1.342 . S
C83 C36 1.338 . S
C148 C49 1.349 . S
C62 C122 1.338 . S
C75 C135 1.342 . S
C18 C88 1.349 . S
C31 C101 1.342 . S
C114 C5 1.338 . S
C127 C70 1.349 . S
C44 C140 1.338 . S
C153 C57 1.342 . S
C252 C166 1.339 . S
C179 C265 1.338 . S
C192 C239 1.338 . S
C304 C205 1.339 . S
C218 C278 1.338 . S
C291 C231 1.338 . S
C174 C244 1.339 . S
C257 C187 1.338 . S
C161 C270 1.338 . S
C283 C226 1.339 . S
C296 C200 1.338 . S
C309 C213 1.338 . S
C408 C322 1.339 . S
C421 C335 1.338 . S
C395 C348 1.338 . S
C361 C460 1.339 . S
C374 C434 1.338 . S
C447 C387 1.338 . S
C400 C330 1.339 . S
C343 C413 1.338 . S
C317 C426 1.338 . S
C439 C382 1.339 . S
C452 C356 1.338 . S
C465 C369 1.338 . S
C47 C8 1.473 . S
C60 C21 1.473 1_565 S
C34 C73 1.473 1_655 S
C125 C86 1.473 . S
C138 C99 1.473 1_545 S
C151 C112 1.473 1_655 S
C203 C164 1.473 . S
C216 C177 1.473 . S
C190 C229 1.473 . S
C281 C242 1.473 . S
C294 C255 1.473 . S
C307 C268 1.473 . S
C359 C320 1.473 . S
C333 C372 1.473 . S
C385 C346 1.473 . S
C398 C437 1.473 . S
C411 C450 1.473 . S
C424 C463 1.473 . S
C0 C234 1.483 . S
C247 C13 1.483 . S
C260 C26 1.483 . S
C429 C39 1.483 . S
C442 C52 1.483 . S
C455 C65 1.483 . S
C78 C312 1.483 . S
C325 C91 1.483 . S
C338 C104 1.483 . S
C117 C195 1.483 . S
C130 C208 1.483 . S
C143 C221 1.483 . S
C390 C156 1.483 1_455 S
C403 C169 1.483 . S
C182 C416 1.483 1_545 S
C273 C351 1.483 1_546 S
C286 C364 1.483 1_656 S
C299 C377 1.483 1_556 S
