# Generated by pormake.
# Topology sxg, (6)-cn, num edge types: 1
# Building blocks:
#     Node 0, Type 0, BuildingBlock: VOLQOD_clean_sbu_1, # of connection points: 6
#     Node 1, Type 0, BuildingBlock: VOLQOD_clean_sbu_1, # of connection points: 6
#     Node 2, Type 0, BuildingBlock: VOLQOD_clean_sbu_1, # of connection points: 6
#     Node 3, Type 0, BuildingBlock: VOLQOD_clean_sbu_1, # of connection points: 6
#     Node 4, Type 0, BuildingBlock: VOLQOD_clean_sbu_1, # of connection points: 6
#     Node 5, Type 0, BuildingBlock: VOLQOD_clean_sbu_1, # of connection points: 6
#     Node 6, Type 0, BuildingBlock: VOLQOD_clean_sbu_1, # of connection points: 6
#     Node 7, Type 0, BuildingBlock: VOLQOD_clean_sbu_1, # of connection points: 6
#     Node 8, Type 0, BuildingBlock: VOLQOD_clean_sbu_1, # of connection points: 6
#     Node 9, Type 0, BuildingBlock: VOLQOD_clean_sbu_1, # of connection points: 6
#     Node 10, Type 0, BuildingBlock: VOLQOD_clean_sbu_1, # of connection points: 6
#     Node 11, Type 0, BuildingBlock: VOLQOD_clean_sbu_1, # of connection points: 6
#     Node 12, Type 0, BuildingBlock: VOLQOD_clean_sbu_1, # of connection points: 6
#     Node 13, Type 0, BuildingBlock: VOLQOD_clean_sbu_1, # of connection points: 6
#     Node 14, Type 0, BuildingBlock: VOLQOD_clean_sbu_1, # of connection points: 6
#     Node 15, Type 0, BuildingBlock: VOLQOD_clean_sbu_1, # of connection points: 6
#     Node 16, Type 0, BuildingBlock: VOLQOD_clean_sbu_1, # of connection points: 6
#     Node 17, Type 0, BuildingBlock: VOLQOD_clean_sbu_1, # of connection points: 6
#     Node 18, Type 0, BuildingBlock: VOLQOD_clean_sbu_1, # of connection points: 6
#     Node 19, Type 0, BuildingBlock: VOLQOD_clean_sbu_1, # of connection points: 6
#     Node 20, Type 0, BuildingBlock: VOLQOD_clean_sbu_1, # of connection points: 6
#     Node 21, Type 0, BuildingBlock: VOLQOD_clean_sbu_1, # of connection points: 6
#     Node 22, Type 0, BuildingBlock: VOLQOD_clean_sbu_1, # of connection points: 6
#     Node 23, Type 0, BuildingBlock: VOLQOD_clean_sbu_1, # of connection points: 6
#     Edge 24, Type (0, 0), None
#     Edge 25, Type (0, 0), None
#     Edge 26, Type (0, 0), None
#     Edge 27, Type (0, 0), None
#     Edge 28, Type (0, 0), None
#     Edge 29, Type (0, 0), None
#     Edge 30, Type (0, 0), None
#     Edge 31, Type (0, 0), None
#     Edge 32, Type (0, 0), None
#     Edge 33, Type (0, 0), None
#     Edge 34, Type (0, 0), None
#     Edge 35, Type (0, 0), None
#     Edge 36, Type (0, 0), None
#     Edge 37, Type (0, 0), None
#     Edge 38, Type (0, 0), None
#     Edge 39, Type (0, 0), None
#     Edge 40, Type (0, 0), None
#     Edge 41, Type (0, 0), None
#     Edge 42, Type (0, 0), None
#     Edge 43, Type (0, 0), None
#     Edge 44, Type (0, 0), None
#     Edge 45, Type (0, 0), None
#     Edge 46, Type (0, 0), None
#     Edge 47, Type (0, 0), None
#     Edge 48, Type (0, 0), None
#     Edge 49, Type (0, 0), None
#     Edge 50, Type (0, 0), None
#     Edge 51, Type (0, 0), None
#     Edge 52, Type (0, 0), None
#     Edge 53, Type (0, 0), None
#     Edge 54, Type (0, 0), None
#     Edge 55, Type (0, 0), None
#     Edge 56, Type (0, 0), None
#     Edge 57, Type (0, 0), None
#     Edge 58, Type (0, 0), None
#     Edge 59, Type (0, 0), None
#     Edge 60, Type (0, 0), None
#     Edge 61, Type (0, 0), None
#     Edge 62, Type (0, 0), None
#     Edge 63, Type (0, 0), None
#     Edge 64, Type (0, 0), None
#     Edge 65, Type (0, 0), None
#     Edge 66, Type (0, 0), None
#     Edge 67, Type (0, 0), None
#     Edge 68, Type (0, 0), None
#     Edge 69, Type (0, 0), None
#     Edge 70, Type (0, 0), None
#     Edge 71, Type (0, 0), None
#     Edge 72, Type (0, 0), None
#     Edge 73, Type (0, 0), None
#     Edge 74, Type (0, 0), None
#     Edge 75, Type (0, 0), None
#     Edge 76, Type (0, 0), None
#     Edge 77, Type (0, 0), None
#     Edge 78, Type (0, 0), None
#     Edge 79, Type (0, 0), None
#     Edge 80, Type (0, 0), None
#     Edge 81, Type (0, 0), None
#     Edge 82, Type (0, 0), None
#     Edge 83, Type (0, 0), None
#     Edge 84, Type (0, 0), None
#     Edge 85, Type (0, 0), None
#     Edge 86, Type (0, 0), None
#     Edge 87, Type (0, 0), None
#     Edge 88, Type (0, 0), None
#     Edge 89, Type (0, 0), None
#     Edge 90, Type (0, 0), None
#     Edge 91, Type (0, 0), None
#     Edge 92, Type (0, 0), None
#     Edge 93, Type (0, 0), None
#     Edge 94, Type (0, 0), None
#     Edge 95, Type (0, 0), None
# Relax obj value: 0.327
# Max RMSD: 0.255
# Mean RMSD: 0.255
data_MOF--net-sxg--node1-VOLQOD_clean_sbu_1--edge1-none
_symmetry_space_group_name_H-M    P1
_symmetry_Int_Tables_number       1
_symmetry_cell_setting            triclinic
loop_
_symmetry_equiv_pos_as_xyz
'x, y, z'
_cell_length_a     24.206674
_cell_length_b     24.207129
_cell_length_c     24.206501
_cell_angle_alpha  90.0
_cell_angle_beta   90.0
_cell_angle_gamma 90.0
loop_
_atom_site_label
_atom_site_type_symbol
_atom_site_fract_x
_atom_site_fract_y
_atom_site_fract_z
_atom_type_partial_charge
O0 O 0.0722 0.20405 0.29001 0.0
Zn1 Zn 0.04165 0.28226 0.28064 0.0
O2 O 0.01945 0.28902 0.20712 0.0
Zn3 Zn 0.03821 0.35285 0.16443 0.0
Zn4 Zn 0.02402 0.22641 0.16459 0.0
Zn5 Zn 0.94671 0.30711 0.21013 0.0
O6 O 0.96417 0.40103 0.15462 0.0
O7 O 0.94743 0.38124 0.24069 0.0
O8 O 0.09878 0.34408 0.29032 0.0
O9 O 0.08822 0.39483 0.21322 0.0
O10 O 0.09037 0.32406 0.10054 0.0
O11 O 0.09134 0.23417 0.12176 0.0
O12 O 0.96733 0.23135 0.10316 0.0
O13 O 0.97307 0.28744 0.32964 0.0
O14 O 0.92025 0.30553 0.12943 0.0
O15 O 0.90685 0.2676 0.26854 0.0
C16 C 0.06188 0.15982 0.2629 0.0
C17 C 0.93614 0.40957 0.19905 0.0
C18 C 0.11018 0.27494 0.09475 0.0
C19 C 0.11039 0.38604 0.26003 0.0
C20 C 0.93636 0.27256 0.09156 0.0
C21 C 0.92289 0.27539 0.31811 0.0
O22 O 0.03664 0.16101 0.21617 0.0
O23 O 0.40092 0.76905 0.79001 0.0
Zn24 Zn 0.43147 0.69084 0.78064 0.0
O25 O 0.45367 0.68408 0.70712 0.0
Zn26 Zn 0.43491 0.62025 0.66443 0.0
Zn27 Zn 0.4491 0.74669 0.66459 0.0
Zn28 Zn 0.52641 0.66599 0.71013 0.0
O29 O 0.50895 0.57208 0.65462 0.0
O30 O 0.52569 0.59186 0.74069 0.0
O31 O 0.37434 0.62902 0.79032 0.0
O32 O 0.3849 0.57827 0.71322 0.0
O33 O 0.38275 0.64904 0.60054 0.0
O34 O 0.38178 0.73893 0.62176 0.0
O35 O 0.50579 0.74176 0.60316 0.0
O36 O 0.50005 0.68566 0.82964 0.0
O37 O 0.55287 0.66757 0.62943 0.0
O38 O 0.56627 0.7055 0.76854 0.0
C39 C 0.41124 0.81328 0.7629 0.0
C40 C 0.53698 0.56353 0.69905 0.0
C41 C 0.36294 0.69816 0.59475 0.0
C42 C 0.36273 0.58707 0.76003 0.0
C43 C 0.53676 0.70054 0.59156 0.0
C44 C 0.55023 0.69771 0.81811 0.0
O45 O 0.43648 0.81209 0.71617 0.0
O46 O 0.5722 0.26905 0.68312 0.0
Zn47 Zn 0.54165 0.19084 0.69249 0.0
O48 O 0.51945 0.18408 0.76601 0.0
Zn49 Zn 0.53821 0.12025 0.8087 0.0
Zn50 Zn 0.52402 0.24669 0.80854 0.0
Zn51 Zn 0.44671 0.16599 0.763 0.0
O52 O 0.46417 0.07208 0.81851 0.0
O53 O 0.44743 0.09186 0.73244 0.0
O54 O 0.59878 0.12902 0.68281 0.0
O55 O 0.58822 0.07827 0.75991 0.0
O56 O 0.59037 0.14904 0.87259 0.0
O57 O 0.59134 0.23893 0.85136 0.0
O58 O 0.46733 0.24176 0.86997 0.0
O59 O 0.47307 0.18566 0.64349 0.0
O60 O 0.42025 0.16757 0.8437 0.0
O61 O 0.40685 0.2055 0.70459 0.0
C62 C 0.56188 0.31328 0.71023 0.0
C63 C 0.43614 0.06353 0.77408 0.0
C64 C 0.61018 0.19816 0.87838 0.0
C65 C 0.61039 0.08707 0.7131 0.0
C66 C 0.43636 0.20054 0.88157 0.0
C67 C 0.42289 0.19771 0.65502 0.0
O68 O 0.53664 0.31209 0.75696 0.0
O69 O 0.90092 0.70405 0.18312 0.0
Zn70 Zn 0.93147 0.78226 0.19249 0.0
O71 O 0.95367 0.78902 0.26601 0.0
Zn72 Zn 0.93491 0.85285 0.3087 0.0
Zn73 Zn 0.9491 0.72641 0.30854 0.0
Zn74 Zn 0.02641 0.80711 0.263 0.0
O75 O 0.00895 0.90103 0.31851 0.0
O76 O 0.02569 0.88124 0.23244 0.0
O77 O 0.87434 0.84408 0.18281 0.0
O78 O 0.8849 0.89483 0.25991 0.0
O79 O 0.88275 0.82406 0.37259 0.0
O80 O 0.88178 0.73417 0.35136 0.0
O81 O 0.00579 0.73135 0.36997 0.0
O82 O 5e-05 0.78744 0.14349 0.0
O83 O 0.05287 0.80553 0.3437 0.0
O84 O 0.06627 0.7676 0.20459 0.0
C85 C 0.91124 0.65982 0.21023 0.0
C86 C 0.03698 0.90957 0.27408 0.0
C87 C 0.86294 0.77494 0.37838 0.0
C88 C 0.86273 0.88604 0.2131 0.0
C89 C 0.03676 0.77256 0.38157 0.0
C90 C 0.05023 0.77539 0.15502 0.0
O91 O 0.93648 0.66101 0.25696 0.0
O92 O 0.29 0.07218 0.20407 0.0
Zn93 Zn 0.28064 0.04163 0.28228 0.0
O94 O 0.20712 0.01943 0.28904 0.0
Zn95 Zn 0.16443 0.03819 0.35287 0.0
Zn96 Zn 0.1646 0.02399 0.22641 0.0
Zn97 Zn 0.21012 0.94669 0.30713 0.0
O98 O 0.15462 0.96415 0.40105 0.0
O99 O 0.24068 0.94741 0.38127 0.0
O100 O 0.29031 0.09876 0.3441 0.0
O101 O 0.21322 0.0882 0.39485 0.0
O102 O 0.10055 0.09036 0.32407 0.0
O103 O 0.12177 0.09129 0.23417 0.0
O104 O 0.10316 0.9673 0.23135 0.0
O105 O 0.32963 0.97305 0.28746 0.0
O106 O 0.12943 0.92023 0.30555 0.0
O107 O 0.26854 0.90683 0.26762 0.0
C108 C 0.26289 0.06186 0.15984 0.0
C109 C 0.19904 0.93612 0.40959 0.0
C110 C 0.09475 0.11015 0.27494 0.0
C111 C 0.26003 0.11037 0.38606 0.0
C112 C 0.09156 0.93634 0.27257 0.0
C113 C 0.31811 0.92287 0.27541 0.0
O114 O 0.21617 0.03662 0.16102 0.0
O115 O 0.18312 0.90092 0.70407 0.0
Zn116 Zn 0.19248 0.93147 0.78228 0.0
O117 O 0.266 0.95368 0.78904 0.0
Zn118 Zn 0.30869 0.93491 0.85287 0.0
Zn119 Zn 0.30852 0.94911 0.72641 0.0
Zn120 Zn 0.263 0.02641 0.80713 0.0
O121 O 0.3185 0.00895 0.90105 0.0
O122 O 0.23244 0.02569 0.88127 0.0
O123 O 0.18281 0.87435 0.8441 0.0
O124 O 0.2599 0.88491 0.89485 0.0
O125 O 0.37257 0.88274 0.82407 0.0
O126 O 0.35135 0.88181 0.73417 0.0
O127 O 0.36996 0.0058 0.73135 0.0
O128 O 0.14349 5e-05 0.78746 0.0
O129 O 0.34369 0.05287 0.80555 0.0
O130 O 0.20458 0.06627 0.76762 0.0
C131 C 0.21023 0.91124 0.65984 0.0
C132 C 0.27408 0.03698 0.90959 0.0
C133 C 0.37837 0.86296 0.77494 0.0
C134 C 0.21309 0.86273 0.88606 0.0
C135 C 0.38156 0.03676 0.77257 0.0
C136 C 0.15501 0.05023 0.77541 0.0
O137 O 0.25695 0.93648 0.66102 0.0
O138 O 0.79 0.40092 0.76906 0.0
Zn139 Zn 0.78064 0.43147 0.69085 0.0
O140 O 0.70712 0.45368 0.68409 0.0
Zn141 Zn 0.66443 0.43491 0.62026 0.0
Zn142 Zn 0.6646 0.44911 0.74671 0.0
Zn143 Zn 0.71012 0.52641 0.66599 0.0
O144 O 0.65462 0.50895 0.57208 0.0
O145 O 0.74068 0.52569 0.59186 0.0
O146 O 0.79031 0.37435 0.62903 0.0
O147 O 0.71322 0.38491 0.57828 0.0
O148 O 0.60055 0.38274 0.64906 0.0
O149 O 0.62177 0.38181 0.73896 0.0
O150 O 0.60316 0.5058 0.74178 0.0
O151 O 0.82963 0.50005 0.68567 0.0
O152 O 0.62943 0.55287 0.66757 0.0
O153 O 0.76854 0.56627 0.70551 0.0
C154 C 0.76289 0.41124 0.81329 0.0
C155 C 0.69904 0.53698 0.56353 0.0
C156 C 0.59475 0.36296 0.69819 0.0
C157 C 0.76003 0.36273 0.58707 0.0
C158 C 0.59156 0.53676 0.70055 0.0
C159 C 0.81811 0.55023 0.69772 0.0
O160 O 0.71617 0.43648 0.81211 0.0
O161 O 0.68312 0.57218 0.26906 0.0
Zn162 Zn 0.69248 0.54163 0.19085 0.0
O163 O 0.766 0.51943 0.18409 0.0
Zn164 Zn 0.80869 0.53819 0.12026 0.0
Zn165 Zn 0.80852 0.52399 0.24671 0.0
Zn166 Zn 0.763 0.44669 0.16599 0.0
O167 O 0.8185 0.46415 0.07208 0.0
O168 O 0.73244 0.44741 0.09186 0.0
O169 O 0.68281 0.59876 0.12903 0.0
O170 O 0.7599 0.5882 0.07828 0.0
O171 O 0.87257 0.59036 0.14906 0.0
O172 O 0.85135 0.59129 0.23896 0.0
O173 O 0.86996 0.4673 0.24178 0.0
O174 O 0.64349 0.47305 0.18567 0.0
O175 O 0.84369 0.42023 0.16757 0.0
O176 O 0.70458 0.40683 0.20551 0.0
C177 C 0.71023 0.56186 0.31329 0.0
C178 C 0.77408 0.43612 0.06353 0.0
C179 C 0.87837 0.61015 0.19819 0.0
C180 C 0.71309 0.61037 0.08707 0.0
C181 C 0.88156 0.43634 0.20055 0.0
C182 C 0.65501 0.42287 0.19772 0.0
O183 O 0.75695 0.53662 0.31211 0.0
O184 O 0.20407 0.29001 0.0722 0.0
Zn185 Zn 0.28228 0.28064 0.04165 0.0
O186 O 0.28903 0.20711 0.01945 0.0
Zn187 Zn 0.35286 0.16442 0.03821 0.0
Zn188 Zn 0.22641 0.1646 0.02401 0.0
Zn189 Zn 0.30712 0.21012 0.94671 0.0
O190 O 0.40104 0.15461 0.96417 0.0
O191 O 0.38126 0.24069 0.94742 0.0
O192 O 0.3441 0.29031 0.09878 0.0
O193 O 0.39484 0.21321 0.08822 0.0
O194 O 0.32406 0.10054 0.09037 0.0
O195 O 0.23416 0.12176 0.09132 0.0
O196 O 0.23135 0.10316 0.96733 0.0
O197 O 0.28746 0.32963 0.97307 0.0
O198 O 0.30555 0.12943 0.92025 0.0
O199 O 0.26761 0.26854 0.90685 0.0
C200 C 0.15984 0.26291 0.06184 0.0
C201 C 0.40957 0.19904 0.93614 0.0
C202 C 0.27493 0.09474 0.11016 0.0
C203 C 0.38605 0.26002 0.11039 0.0
C204 C 0.27257 0.09156 0.93636 0.0
C205 C 0.2754 0.31811 0.92289 0.0
O206 O 0.16101 0.21618 0.03662 0.0
O207 O 0.70407 0.18309 0.90093 0.0
Zn208 Zn 0.78228 0.19246 0.93148 0.0
O209 O 0.78903 0.26599 0.95368 0.0
Zn210 Zn 0.85286 0.30868 0.93492 0.0
Zn211 Zn 0.72641 0.30851 0.94912 0.0
Zn212 Zn 0.80712 0.26298 0.02642 0.0
O213 O 0.90104 0.31849 0.00896 0.0
O214 O 0.88126 0.23241 0.02571 0.0
O215 O 0.8441 0.18279 0.87435 0.0
O216 O 0.89484 0.25989 0.88491 0.0
O217 O 0.82406 0.37256 0.88275 0.0
O218 O 0.73416 0.35134 0.88181 0.0
O219 O 0.73135 0.36994 0.0058 0.0
O220 O 0.78746 0.14347 6e-05 0.0
O221 O 0.80555 0.34367 0.05288 0.0
O222 O 0.76761 0.20456 0.06627 0.0
C223 C 0.65984 0.21019 0.91128 0.0
C224 C 0.90957 0.27406 0.03698 0.0
C225 C 0.77493 0.37836 0.86296 0.0
C226 C 0.88605 0.21308 0.86273 0.0
C227 C 0.77257 0.38154 0.03676 0.0
C228 C 0.7754 0.15499 0.05023 0.0
O229 O 0.66101 0.25692 0.9365 0.0
O230 O 0.76905 0.79001 0.40093 0.0
Zn231 Zn 0.69084 0.78064 0.43148 0.0
O232 O 0.68409 0.70711 0.45368 0.0
Zn233 Zn 0.62026 0.66442 0.43492 0.0
Zn234 Zn 0.74671 0.6646 0.44912 0.0
Zn235 Zn 0.666 0.71012 0.52642 0.0
O236 O 0.57208 0.65461 0.50896 0.0
O237 O 0.59186 0.74069 0.52571 0.0
O238 O 0.62902 0.79031 0.37435 0.0
O239 O 0.57828 0.71321 0.38491 0.0
O240 O 0.64906 0.60054 0.38275 0.0
O241 O 0.73896 0.62176 0.38181 0.0
O242 O 0.74177 0.60316 0.5058 0.0
O243 O 0.68566 0.82963 0.50006 0.0
O244 O 0.66757 0.62943 0.55288 0.0
O245 O 0.70551 0.76854 0.56627 0.0
C246 C 0.81328 0.76291 0.41128 0.0
C247 C 0.56355 0.69904 0.53698 0.0
C248 C 0.69819 0.59474 0.36296 0.0
C249 C 0.58707 0.76002 0.36273 0.0
C250 C 0.70055 0.59156 0.53676 0.0
C251 C 0.69772 0.81811 0.55023 0.0
O252 O 0.81211 0.71618 0.4365 0.0
O253 O 0.26905 0.68309 0.5722 0.0
Zn254 Zn 0.19084 0.69246 0.54165 0.0
O255 O 0.18409 0.76599 0.51945 0.0
Zn256 Zn 0.12026 0.80868 0.53821 0.0
Zn257 Zn 0.24671 0.80851 0.52401 0.0
Zn258 Zn 0.166 0.76298 0.44671 0.0
O259 O 0.07208 0.81849 0.46417 0.0
O260 O 0.09186 0.73241 0.44742 0.0
O261 O 0.12902 0.68279 0.59878 0.0
O262 O 0.07828 0.75989 0.58822 0.0
O263 O 0.14906 0.87256 0.59037 0.0
O264 O 0.23896 0.85134 0.59132 0.0
O265 O 0.24177 0.86994 0.46733 0.0
O266 O 0.18566 0.64347 0.47307 0.0
O267 O 0.16757 0.84367 0.42025 0.0
O268 O 0.20551 0.70456 0.40685 0.0
C269 C 0.31328 0.71019 0.56184 0.0
C270 C 0.06355 0.77406 0.43614 0.0
C271 C 0.19819 0.87836 0.61016 0.0
C272 C 0.08707 0.71308 0.61039 0.0
C273 C 0.20055 0.88154 0.43636 0.0
C274 C 0.19772 0.65499 0.42289 0.0
O275 O 0.31211 0.75692 0.53662 0.0
O276 O 0.90092 0.76905 0.68312 0.0
Zn277 Zn 0.93147 0.69084 0.69248 0.0
O278 O 0.95367 0.68408 0.76601 0.0
Zn279 Zn 0.93492 0.62026 0.8087 0.0
Zn280 Zn 0.9491 0.7467 0.80854 0.0
Zn281 Zn 0.02641 0.66599 0.76301 0.0
O282 O 0.00896 0.57208 0.81851 0.0
O283 O 0.02569 0.59186 0.73244 0.0
O284 O 0.87434 0.62902 0.68281 0.0
O285 O 0.88491 0.57828 0.75991 0.0
O286 O 0.88275 0.64904 0.87259 0.0
O287 O 0.88178 0.73894 0.85136 0.0
O288 O 0.00579 0.74176 0.86997 0.0
O289 O 5e-05 0.68566 0.64349 0.0
O290 O 0.05287 0.66757 0.8437 0.0
O291 O 0.06627 0.7055 0.7046 0.0
C292 C 0.91124 0.81328 0.71023 0.0
C293 C 0.03698 0.56353 0.77408 0.0
C294 C 0.86294 0.69816 0.87838 0.0
C295 C 0.86275 0.58706 0.7131 0.0
C296 C 0.03676 0.70054 0.88157 0.0
C297 C 0.05023 0.69769 0.65503 0.0
O298 O 0.93648 0.81209 0.75696 0.0
O299 O 0.5722 0.20405 0.18312 0.0
Zn300 Zn 0.54165 0.28226 0.19248 0.0
O301 O 0.51945 0.28902 0.26601 0.0
Zn302 Zn 0.5382 0.35285 0.3087 0.0
Zn303 Zn 0.52402 0.22641 0.30854 0.0
Zn304 Zn 0.44671 0.30711 0.26301 0.0
O305 O 0.46416 0.40102 0.31851 0.0
O306 O 0.44743 0.38125 0.23244 0.0
O307 O 0.59878 0.34409 0.18281 0.0
O308 O 0.58821 0.39483 0.25991 0.0
O309 O 0.59037 0.32406 0.37259 0.0
O310 O 0.59134 0.23417 0.35136 0.0
O311 O 0.46733 0.23134 0.36997 0.0
O312 O 0.47307 0.28744 0.14349 0.0
O313 O 0.42025 0.30553 0.3437 0.0
O314 O 0.40685 0.2676 0.2046 0.0
C315 C 0.56188 0.15982 0.21023 0.0
C316 C 0.43614 0.40957 0.27408 0.0
C317 C 0.61018 0.27494 0.37838 0.0
C318 C 0.61037 0.38605 0.2131 0.0
C319 C 0.43636 0.27256 0.38157 0.0
C320 C 0.42289 0.27541 0.15503 0.0
O321 O 0.53664 0.16101 0.25696 0.0
O322 O 0.40092 0.70405 0.29001 0.0
Zn323 Zn 0.43147 0.78226 0.28064 0.0
O324 O 0.45367 0.78902 0.20712 0.0
Zn325 Zn 0.43492 0.85285 0.16443 0.0
Zn326 Zn 0.4491 0.72641 0.16459 0.0
Zn327 Zn 0.52641 0.80711 0.21012 0.0
O328 O 0.50896 0.90102 0.15462 0.0
O329 O 0.52569 0.88125 0.24068 0.0
O330 O 0.37434 0.84409 0.29032 0.0
O331 O 0.38491 0.89483 0.21322 0.0
O332 O 0.38275 0.82406 0.10054 0.0
O333 O 0.38178 0.73417 0.12176 0.0
O334 O 0.50579 0.73134 0.10316 0.0
O335 O 0.50005 0.78744 0.32964 0.0
O336 O 0.55287 0.80553 0.12943 0.0
O337 O 0.56627 0.7676 0.26853 0.0
C338 C 0.41124 0.65982 0.26289 0.0
C339 C 0.53698 0.90957 0.19905 0.0
C340 C 0.36294 0.77494 0.09475 0.0
C341 C 0.36275 0.88605 0.26003 0.0
C342 C 0.53676 0.77256 0.09156 0.0
C343 C 0.55023 0.77541 0.3181 0.0
O344 O 0.43648 0.66101 0.21617 0.0
O345 O 0.0722 0.26905 0.79001 0.0
Zn346 Zn 0.04165 0.19084 0.78064 0.0
O347 O 0.01945 0.18408 0.70712 0.0
Zn348 Zn 0.0382 0.12026 0.66443 0.0
Zn349 Zn 0.02402 0.2467 0.66459 0.0
Zn350 Zn 0.94671 0.16599 0.71012 0.0
O351 O 0.96416 0.07208 0.65462 0.0
O352 O 0.94743 0.09186 0.74068 0.0
O353 O 0.09878 0.12902 0.79032 0.0
O354 O 0.08821 0.07828 0.71322 0.0
O355 O 0.09037 0.14904 0.60054 0.0
O356 O 0.09134 0.23894 0.62176 0.0
O357 O 0.96733 0.24176 0.60316 0.0
O358 O 0.97307 0.18566 0.82964 0.0
O359 O 0.92025 0.16757 0.62943 0.0
O360 O 0.90685 0.2055 0.76853 0.0
C361 C 0.06188 0.31328 0.76289 0.0
C362 C 0.93614 0.06353 0.69905 0.0
C363 C 0.11018 0.19816 0.59475 0.0
C364 C 0.11037 0.08706 0.76003 0.0
C365 C 0.93636 0.20054 0.59156 0.0
C366 C 0.92289 0.19769 0.8181 0.0
O367 O 0.03664 0.31209 0.71617 0.0
O368 O 0.68312 0.90092 0.76906 0.0
Zn369 Zn 0.69248 0.93147 0.69085 0.0
O370 O 0.76601 0.95368 0.68409 0.0
Zn371 Zn 0.8087 0.93492 0.62026 0.0
Zn372 Zn 0.80852 0.94911 0.74671 0.0
Zn373 Zn 0.763 0.02641 0.66599 0.0
O374 O 0.81851 0.00896 0.57208 0.0
O375 O 0.73244 0.02569 0.59186 0.0
O376 O 0.6828 0.87435 0.62902 0.0
O377 O 0.75991 0.88491 0.57828 0.0
O378 O 0.87257 0.88274 0.64906 0.0
O379 O 0.85136 0.88181 0.73896 0.0
O380 O 0.86996 0.0058 0.74178 0.0
O381 O 0.64349 5e-05 0.68568 0.0
O382 O 0.8437 0.05287 0.66757 0.0
O383 O 0.70459 0.06627 0.70551 0.0
C384 C 0.71023 0.91124 0.81329 0.0
C385 C 0.77408 0.03698 0.56353 0.0
C386 C 0.87837 0.86296 0.69819 0.0
C387 C 0.71309 0.86275 0.58706 0.0
C388 C 0.88156 0.03676 0.70055 0.0
C389 C 0.65502 0.05023 0.6977 0.0
O390 O 0.75695 0.93649 0.81211 0.0
O391 O 0.79 0.07218 0.26906 0.0
Zn392 Zn 0.78064 0.04163 0.19085 0.0
O393 O 0.70711 0.01943 0.18409 0.0
Zn394 Zn 0.66442 0.03818 0.12026 0.0
Zn395 Zn 0.6646 0.02399 0.24671 0.0
Zn396 Zn 0.71012 0.94669 0.16599 0.0
O397 O 0.65461 0.96415 0.07208 0.0
O398 O 0.74068 0.94741 0.09186 0.0
O399 O 0.79032 0.09875 0.12902 0.0
O400 O 0.71321 0.08819 0.07828 0.0
O401 O 0.60055 0.09036 0.14906 0.0
O402 O 0.62176 0.09129 0.23896 0.0
O403 O 0.60316 0.9673 0.24178 0.0
O404 O 0.82963 0.97305 0.18568 0.0
O405 O 0.62942 0.92023 0.16757 0.0
O406 O 0.76853 0.90683 0.20551 0.0
C407 C 0.76289 0.06186 0.31329 0.0
C408 C 0.69904 0.93612 0.06353 0.0
C409 C 0.59475 0.11015 0.19819 0.0
C410 C 0.76003 0.11035 0.08706 0.0
C411 C 0.59156 0.93634 0.20055 0.0
C412 C 0.8181 0.92287 0.1977 0.0
O413 O 0.71617 0.03662 0.31211 0.0
O414 O 0.18312 0.57218 0.20407 0.0
Zn415 Zn 0.19248 0.54163 0.28228 0.0
O416 O 0.26601 0.51943 0.28904 0.0
Zn417 Zn 0.3087 0.53818 0.35286 0.0
Zn418 Zn 0.30852 0.52399 0.22641 0.0
Zn419 Zn 0.263 0.44669 0.30713 0.0
O420 O 0.31851 0.46415 0.40104 0.0
O421 O 0.23244 0.44741 0.38127 0.0
O422 O 0.1828 0.59875 0.34411 0.0
O423 O 0.25991 0.58819 0.39485 0.0
O424 O 0.37257 0.59036 0.32407 0.0
O425 O 0.35136 0.59129 0.23417 0.0
O426 O 0.36996 0.4673 0.23135 0.0
O427 O 0.14349 0.47305 0.28745 0.0
O428 O 0.3437 0.42023 0.30555 0.0
O429 O 0.20459 0.40683 0.26762 0.0
C430 C 0.21023 0.56186 0.15984 0.0
C431 C 0.27408 0.43612 0.40959 0.0
C432 C 0.37837 0.61015 0.27494 0.0
C433 C 0.21309 0.61035 0.38607 0.0
C434 C 0.38156 0.43634 0.27257 0.0
C435 C 0.15502 0.42287 0.27542 0.0
O436 O 0.25695 0.53662 0.16102 0.0
O437 O 0.29 0.40092 0.70407 0.0
Zn438 Zn 0.28064 0.43147 0.78228 0.0
O439 O 0.20711 0.45368 0.78904 0.0
Zn440 Zn 0.16442 0.43492 0.85286 0.0
Zn441 Zn 0.1646 0.44911 0.72641 0.0
Zn442 Zn 0.21012 0.52641 0.80713 0.0
O443 O 0.15461 0.50896 0.90104 0.0
O444 O 0.24068 0.52569 0.88127 0.0
O445 O 0.29032 0.37435 0.84411 0.0
O446 O 0.21321 0.38491 0.89485 0.0
O447 O 0.10055 0.38274 0.82407 0.0
O448 O 0.12176 0.38181 0.73417 0.0
O449 O 0.10316 0.5058 0.73135 0.0
O450 O 0.32963 0.50005 0.78745 0.0
O451 O 0.12942 0.55287 0.80555 0.0
O452 O 0.26853 0.56627 0.76762 0.0
C453 C 0.26289 0.41124 0.65984 0.0
C454 C 0.19904 0.53698 0.90959 0.0
C455 C 0.09475 0.36296 0.77494 0.0
C456 C 0.26003 0.36275 0.88607 0.0
C457 C 0.09156 0.53676 0.77257 0.0
C458 C 0.3181 0.55023 0.77542 0.0
O459 O 0.21617 0.43649 0.66102 0.0
O460 O 0.76905 0.68309 0.90093 0.0
Zn461 Zn 0.69084 0.69246 0.93148 0.0
O462 O 0.68409 0.76599 0.95368 0.0
Zn463 Zn 0.62026 0.80868 0.93492 0.0
Zn464 Zn 0.74671 0.80851 0.94912 0.0
Zn465 Zn 0.666 0.76298 0.02642 0.0
O466 O 0.57208 0.81849 0.00896 0.0
O467 O 0.59186 0.73241 0.0257 0.0
O468 O 0.62901 0.68279 0.87435 0.0
O469 O 0.57828 0.7599 0.88491 0.0
O470 O 0.64906 0.87256 0.88276 0.0
O471 O 0.73896 0.85134 0.88181 0.0
O472 O 0.74177 0.86994 0.0058 0.0
O473 O 0.68566 0.64347 6e-05 0.0
O474 O 0.66757 0.84368 0.05288 0.0
O475 O 0.70551 0.70457 0.06628 0.0
C476 C 0.81328 0.71019 0.91128 0.0
C477 C 0.56355 0.77406 0.03698 0.0
C478 C 0.69819 0.87836 0.86296 0.0
C479 C 0.58706 0.71308 0.86275 0.0
C480 C 0.70055 0.88154 0.03676 0.0
C481 C 0.6977 0.655 0.05024 0.0
O482 O 0.81211 0.75692 0.9365 0.0
O483 O 0.26905 0.79001 0.0722 0.0
Zn484 Zn 0.19084 0.78064 0.04165 0.0
O485 O 0.18409 0.70711 0.01945 0.0
Zn486 Zn 0.12026 0.66442 0.03821 0.0
Zn487 Zn 0.24671 0.66459 0.02401 0.0
Zn488 Zn 0.166 0.71012 0.94671 0.0
O489 O 0.07208 0.65461 0.96417 0.0
O490 O 0.09186 0.74069 0.94742 0.0
O491 O 0.12901 0.79031 0.09878 0.0
O492 O 0.07828 0.7132 0.08821 0.0
O493 O 0.14906 0.60054 0.09037 0.0
O494 O 0.23896 0.62176 0.09132 0.0
O495 O 0.24177 0.60316 0.96732 0.0
O496 O 0.18566 0.82963 0.97307 0.0
O497 O 0.16757 0.62942 0.92025 0.0
O498 O 0.20551 0.76853 0.90685 0.0
C499 C 0.31328 0.76291 0.06184 0.0
C500 C 0.06355 0.69904 0.93615 0.0
C501 C 0.19819 0.59474 0.11016 0.0
C502 C 0.08706 0.76002 0.11038 0.0
C503 C 0.20055 0.59156 0.93636 0.0
C504 C 0.1977 0.8181 0.92289 0.0
O505 O 0.31211 0.71618 0.03662 0.0
O506 O 0.20407 0.18309 0.5722 0.0
Zn507 Zn 0.28228 0.19246 0.54165 0.0
O508 O 0.28903 0.26599 0.51945 0.0
Zn509 Zn 0.35286 0.30868 0.53821 0.0
Zn510 Zn 0.22641 0.30851 0.52401 0.0
Zn511 Zn 0.30712 0.26298 0.44671 0.0
O512 O 0.40104 0.31849 0.46417 0.0
O513 O 0.38126 0.23241 0.44742 0.0
O514 O 0.34411 0.18279 0.59878 0.0
O515 O 0.39484 0.2599 0.58821 0.0
O516 O 0.32406 0.37256 0.59037 0.0
O517 O 0.23416 0.35134 0.59132 0.0
O518 O 0.23135 0.36994 0.46732 0.0
O519 O 0.28746 0.14347 0.47307 0.0
O520 O 0.30555 0.34368 0.42025 0.0
O521 O 0.26761 0.20457 0.40685 0.0
C522 C 0.15984 0.21019 0.56184 0.0
C523 C 0.40957 0.27406 0.43615 0.0
C524 C 0.27493 0.37836 0.61016 0.0
C525 C 0.38606 0.21308 0.61038 0.0
C526 C 0.27257 0.38154 0.43636 0.0
C527 C 0.27542 0.155 0.42289 0.0
O528 O 0.16101 0.25692 0.53662 0.0
O529 O 0.70407 0.29001 0.40093 0.0
Zn530 Zn 0.78228 0.28064 0.43148 0.0
O531 O 0.78903 0.20711 0.45368 0.0
Zn532 Zn 0.85286 0.16442 0.43492 0.0
Zn533 Zn 0.72641 0.16459 0.44912 0.0
Zn534 Zn 0.80712 0.21012 0.52642 0.0
O535 O 0.90104 0.15461 0.50896 0.0
O536 O 0.88126 0.24069 0.5257 0.0
O537 O 0.84411 0.29031 0.37435 0.0
O538 O 0.89484 0.2132 0.38491 0.0
O539 O 0.82406 0.10054 0.38276 0.0
O540 O 0.73416 0.12176 0.38181 0.0
O541 O 0.73135 0.10316 0.5058 0.0
O542 O 0.78746 0.32963 0.50006 0.0
O543 O 0.80555 0.12942 0.55288 0.0
O544 O 0.76761 0.26853 0.56628 0.0
C545 C 0.65984 0.26291 0.41128 0.0
C546 C 0.90957 0.19904 0.53698 0.0
C547 C 0.77493 0.09474 0.36296 0.0
C548 C 0.88606 0.26002 0.36275 0.0
C549 C 0.77257 0.09156 0.53676 0.0
C550 C 0.77542 0.3181 0.55024 0.0
O551 O 0.66101 0.21618 0.4365 0.0
loop_
_geom_bond_atom_site_label_1
_geom_bond_atom_site_label_2
_geom_bond_distance
_geom_bond_site_symmetry_2
_ccdc_geom_bond_type
O0 Zn1 1.953 . S
O0 C16 1.225 . S
Zn1 O0 1.953 . S
Zn1 O2 1.949 . S
Zn1 O8 1.919 . S
Zn1 O13 1.924 . S
O2 Zn1 1.949 . S
O2 Zn3 1.923 . S
O2 Zn4 1.950 . S
O2 Zn5 1.945 1_455 S
Zn3 O2 1.923 . S
Zn3 O6 1.933 . S
Zn3 O9 1.941 . S
Zn3 O10 1.965 . S
Zn4 O2 1.950 . S
Zn4 O11 1.938 . S
Zn4 O12 1.906 1_455 S
Zn4 O22 1.953 . S
Zn5 O2 1.945 1_655 S
Zn5 O7 1.932 . S
Zn5 O14 1.977 . S
Zn5 O15 1.910 . S
O6 Zn3 1.933 . S
O6 C17 1.226 1_455 S
O7 Zn5 1.932 . S
O7 C17 1.307 . S
O8 Zn1 1.919 . S
O8 C19 1.253 . S
O9 Zn3 1.941 . S
O9 C19 1.283 . S
O10 Zn3 1.965 . S
O10 C18 1.303 . S
O11 Zn4 1.938 . S
O11 C18 1.247 . S
O12 Zn4 1.906 1_655 S
O12 C20 1.304 . S
O13 Zn1 1.924 . S
O13 C21 1.311 1_455 S
O14 Zn5 1.977 . S
O14 C20 1.272 . S
O15 Zn5 1.910 . S
O15 C21 1.231 . S
C16 O0 1.225 . S
C16 O22 1.298 . S
C17 O6 1.226 1_655 S
C17 O7 1.307 . S
C18 O10 1.303 . S
C18 O11 1.247 . S
C19 O8 1.253 . S
C19 O9 1.283 . S
C20 O12 1.304 . S
C20 O14 1.272 . S
C21 O13 1.311 1_655 S
C21 O15 1.231 . S
O22 Zn4 1.953 . S
O22 C16 1.298 . S
O23 Zn24 1.953 . S
O23 C39 1.225 . S
Zn24 O23 1.953 . S
Zn24 O25 1.949 . S
Zn24 O31 1.919 . S
Zn24 O36 1.924 . S
O25 Zn24 1.949 . S
O25 Zn26 1.923 . S
O25 Zn27 1.950 . S
O25 Zn28 1.945 . S
Zn26 O25 1.923 . S
Zn26 O29 1.933 . S
Zn26 O32 1.941 . S
Zn26 O33 1.965 . S
Zn27 O25 1.950 . S
Zn27 O34 1.938 . S
Zn27 O35 1.906 . S
Zn27 O45 1.953 . S
Zn28 O25 1.945 . S
Zn28 O30 1.932 . S
Zn28 O37 1.977 . S
Zn28 O38 1.910 . S
O29 Zn26 1.933 . S
O29 C40 1.226 . S
O30 Zn28 1.932 . S
O30 C40 1.307 . S
O31 Zn24 1.919 . S
O31 C42 1.253 . S
O32 Zn26 1.941 . S
O32 C42 1.283 . S
O33 Zn26 1.965 . S
O33 C41 1.303 . S
O34 Zn27 1.938 . S
O34 C41 1.247 . S
O35 Zn27 1.906 . S
O35 C43 1.304 . S
O36 Zn24 1.924 . S
O36 C44 1.311 . S
O37 Zn28 1.977 . S
O37 C43 1.272 . S
O38 Zn28 1.910 . S
O38 C44 1.231 . S
C39 O23 1.225 . S
C39 O45 1.298 . S
C40 O29 1.226 . S
C40 O30 1.307 . S
C41 O33 1.303 . S
C41 O34 1.247 . S
C42 O31 1.253 . S
C42 O32 1.283 . S
C43 O35 1.304 . S
C43 O37 1.272 . S
C44 O36 1.311 . S
C44 O38 1.231 . S
O45 Zn27 1.953 . S
O45 C39 1.298 . S
O46 Zn47 1.953 . S
O46 C62 1.225 . S
Zn47 O46 1.953 . S
Zn47 O48 1.949 . S
Zn47 O54 1.919 . S
Zn47 O59 1.924 . S
O48 Zn47 1.949 . S
O48 Zn49 1.923 . S
O48 Zn50 1.950 . S
O48 Zn51 1.945 . S
Zn49 O48 1.923 . S
Zn49 O52 1.933 . S
Zn49 O55 1.941 . S
Zn49 O56 1.965 . S
Zn50 O48 1.950 . S
Zn50 O57 1.938 . S
Zn50 O58 1.906 . S
Zn50 O68 1.953 . S
Zn51 O48 1.945 . S
Zn51 O53 1.932 . S
Zn51 O60 1.977 . S
Zn51 O61 1.910 . S
O52 Zn49 1.933 . S
O52 C63 1.226 . S
O53 Zn51 1.932 . S
O53 C63 1.307 . S
O54 Zn47 1.919 . S
O54 C65 1.253 . S
O55 Zn49 1.941 . S
O55 C65 1.283 . S
O56 Zn49 1.965 . S
O56 C64 1.303 . S
O57 Zn50 1.938 . S
O57 C64 1.247 . S
O58 Zn50 1.906 . S
O58 C66 1.304 . S
O59 Zn47 1.924 . S
O59 C67 1.311 . S
O60 Zn51 1.977 . S
O60 C66 1.272 . S
O61 Zn51 1.910 . S
O61 C67 1.231 . S
C62 O46 1.225 . S
C62 O68 1.298 . S
C63 O52 1.226 . S
C63 O53 1.307 . S
C64 O56 1.303 . S
C64 O57 1.247 . S
C65 O54 1.253 . S
C65 O55 1.283 . S
C66 O58 1.304 . S
C66 O60 1.272 . S
C67 O59 1.311 . S
C67 O61 1.231 . S
O68 Zn50 1.953 . S
O68 C62 1.298 . S
O69 Zn70 1.953 . S
O69 C85 1.225 . S
Zn70 O69 1.953 . S
Zn70 O71 1.949 . S
Zn70 O77 1.919 . S
Zn70 O82 1.924 . S
O71 Zn70 1.949 . S
O71 Zn72 1.923 . S
O71 Zn73 1.950 . S
O71 Zn74 1.945 1_655 S
Zn72 O71 1.923 . S
Zn72 O75 1.933 . S
Zn72 O78 1.941 . S
Zn72 O79 1.965 . S
Zn73 O71 1.950 . S
Zn73 O80 1.938 . S
Zn73 O81 1.906 1_655 S
Zn73 O91 1.953 . S
Zn74 O71 1.945 1_455 S
Zn74 O76 1.932 . S
Zn74 O83 1.977 . S
Zn74 O84 1.910 . S
O75 Zn72 1.933 . S
O75 C86 1.226 1_655 S
O76 Zn74 1.932 . S
O76 C86 1.307 . S
O77 Zn70 1.919 . S
O77 C88 1.253 . S
O78 Zn72 1.941 . S
O78 C88 1.283 . S
O79 Zn72 1.965 . S
O79 C87 1.303 . S
O80 Zn73 1.938 . S
O80 C87 1.247 . S
O81 Zn73 1.906 1_455 S
O81 C89 1.304 . S
O82 Zn70 1.924 . S
O82 C90 1.311 1_655 S
O83 Zn74 1.977 . S
O83 C89 1.272 . S
O84 Zn74 1.910 . S
O84 C90 1.231 . S
C85 O69 1.225 . S
C85 O91 1.298 . S
C86 O75 1.226 1_455 S
C86 O76 1.307 . S
C87 O79 1.303 . S
C87 O80 1.247 . S
C88 O77 1.253 . S
C88 O78 1.283 . S
C89 O81 1.304 . S
C89 O83 1.272 . S
C90 O82 1.311 1_455 S
C90 O84 1.231 . S
O91 Zn73 1.953 . S
O91 C85 1.298 . S
O92 Zn93 1.953 . S
O92 C108 1.225 . S
Zn93 O92 1.953 . S
Zn93 O94 1.949 . S
Zn93 O100 1.919 . S
Zn93 O105 1.924 . S
O94 Zn93 1.949 . S
O94 Zn95 1.923 . S
O94 Zn96 1.950 . S
O94 Zn97 1.945 1_545 S
Zn95 O94 1.923 . S
Zn95 O98 1.933 . S
Zn95 O101 1.941 . S
Zn95 O102 1.965 . S
Zn96 O94 1.950 . S
Zn96 O103 1.938 . S
Zn96 O104 1.906 1_545 S
Zn96 O114 1.953 . S
Zn97 O94 1.945 1_565 S
Zn97 O99 1.932 . S
Zn97 O106 1.977 . S
Zn97 O107 1.910 . S
O98 Zn95 1.933 . S
O98 C109 1.226 1_545 S
O99 Zn97 1.932 . S
O99 C109 1.307 . S
O100 Zn93 1.919 . S
O100 C111 1.253 . S
O101 Zn95 1.941 . S
O101 C111 1.283 . S
O102 Zn95 1.965 . S
O102 C110 1.303 . S
O103 Zn96 1.938 . S
O103 C110 1.247 . S
O104 Zn96 1.906 1_565 S
O104 C112 1.304 . S
O105 Zn93 1.924 . S
O105 C113 1.311 1_545 S
O106 Zn97 1.977 . S
O106 C112 1.272 . S
O107 Zn97 1.910 . S
O107 C113 1.231 . S
C108 O92 1.225 . S
C108 O114 1.298 . S
C109 O98 1.226 1_565 S
C109 O99 1.307 . S
C110 O102 1.303 . S
C110 O103 1.247 . S
C111 O100 1.253 . S
C111 O101 1.283 . S
C112 O104 1.304 . S
C112 O106 1.272 . S
C113 O105 1.311 1_565 S
C113 O107 1.231 . S
O114 Zn96 1.953 . S
O114 C108 1.298 . S
O115 Zn116 1.953 . S
O115 C131 1.225 . S
Zn116 O115 1.953 . S
Zn116 O117 1.949 . S
Zn116 O123 1.919 . S
Zn116 O128 1.924 . S
O117 Zn116 1.949 . S
O117 Zn118 1.923 . S
O117 Zn119 1.950 . S
O117 Zn120 1.945 1_565 S
Zn118 O117 1.923 . S
Zn118 O121 1.933 . S
Zn118 O124 1.941 . S
Zn118 O125 1.965 . S
Zn119 O117 1.950 . S
Zn119 O126 1.938 . S
Zn119 O127 1.906 1_565 S
Zn119 O137 1.953 . S
Zn120 O117 1.945 1_545 S
Zn120 O122 1.932 . S
Zn120 O129 1.977 . S
Zn120 O130 1.910 . S
O121 Zn118 1.933 . S
O121 C132 1.226 1_565 S
O122 Zn120 1.932 . S
O122 C132 1.307 . S
O123 Zn116 1.919 . S
O123 C134 1.253 . S
O124 Zn118 1.941 . S
O124 C134 1.283 . S
O125 Zn118 1.965 . S
O125 C133 1.303 . S
O126 Zn119 1.938 . S
O126 C133 1.247 . S
O127 Zn119 1.906 1_545 S
O127 C135 1.304 . S
O128 Zn116 1.924 . S
O128 C136 1.311 1_565 S
O129 Zn120 1.977 . S
O129 C135 1.272 . S
O130 Zn120 1.910 . S
O130 C136 1.231 . S
C131 O115 1.225 . S
C131 O137 1.298 . S
C132 O121 1.226 1_545 S
C132 O122 1.307 . S
C133 O125 1.303 . S
C133 O126 1.247 . S
C134 O123 1.253 . S
C134 O124 1.283 . S
C135 O127 1.304 . S
C135 O129 1.272 . S
C136 O128 1.311 1_545 S
C136 O130 1.231 . S
O137 Zn119 1.953 . S
O137 C131 1.298 . S
O138 Zn139 1.953 . S
O138 C154 1.225 . S
Zn139 O138 1.953 . S
Zn139 O140 1.949 . S
Zn139 O146 1.919 . S
Zn139 O151 1.924 . S
O140 Zn139 1.949 . S
O140 Zn141 1.923 . S
O140 Zn142 1.950 . S
O140 Zn143 1.945 . S
Zn141 O140 1.923 . S
Zn141 O144 1.933 . S
Zn141 O147 1.941 . S
Zn141 O148 1.965 . S
Zn142 O140 1.950 . S
Zn142 O149 1.938 . S
Zn142 O150 1.906 . S
Zn142 O160 1.953 . S
Zn143 O140 1.945 . S
Zn143 O145 1.932 . S
Zn143 O152 1.977 . S
Zn143 O153 1.910 . S
O144 Zn141 1.933 . S
O144 C155 1.226 . S
O145 Zn143 1.932 . S
O145 C155 1.307 . S
O146 Zn139 1.919 . S
O146 C157 1.253 . S
O147 Zn141 1.941 . S
O147 C157 1.283 . S
O148 Zn141 1.965 . S
O148 C156 1.303 . S
O149 Zn142 1.938 . S
O149 C156 1.247 . S
O150 Zn142 1.906 . S
O150 C158 1.304 . S
O151 Zn139 1.924 . S
O151 C159 1.311 . S
O152 Zn143 1.977 . S
O152 C158 1.272 . S
O153 Zn143 1.910 . S
O153 C159 1.231 . S
C154 O138 1.225 . S
C154 O160 1.298 . S
C155 O144 1.226 . S
C155 O145 1.307 . S
C156 O148 1.303 . S
C156 O149 1.247 . S
C157 O146 1.253 . S
C157 O147 1.283 . S
C158 O150 1.304 . S
C158 O152 1.272 . S
C159 O151 1.311 . S
C159 O153 1.231 . S
O160 Zn142 1.953 . S
O160 C154 1.298 . S
O161 Zn162 1.953 . S
O161 C177 1.225 . S
Zn162 O161 1.953 . S
Zn162 O163 1.949 . S
Zn162 O169 1.919 . S
Zn162 O174 1.924 . S
O163 Zn162 1.949 . S
O163 Zn164 1.923 . S
O163 Zn165 1.950 . S
O163 Zn166 1.945 . S
Zn164 O163 1.923 . S
Zn164 O167 1.933 . S
Zn164 O170 1.941 . S
Zn164 O171 1.965 . S
Zn165 O163 1.950 . S
Zn165 O172 1.938 . S
Zn165 O173 1.906 . S
Zn165 O183 1.953 . S
Zn166 O163 1.945 . S
Zn166 O168 1.932 . S
Zn166 O175 1.977 . S
Zn166 O176 1.910 . S
O167 Zn164 1.933 . S
O167 C178 1.226 . S
O168 Zn166 1.932 . S
O168 C178 1.307 . S
O169 Zn162 1.919 . S
O169 C180 1.253 . S
O170 Zn164 1.941 . S
O170 C180 1.283 . S
O171 Zn164 1.965 . S
O171 C179 1.303 . S
O172 Zn165 1.938 . S
O172 C179 1.247 . S
O173 Zn165 1.906 . S
O173 C181 1.304 . S
O174 Zn162 1.924 . S
O174 C182 1.311 . S
O175 Zn166 1.977 . S
O175 C181 1.272 . S
O176 Zn166 1.910 . S
O176 C182 1.231 . S
C177 O161 1.225 . S
C177 O183 1.298 . S
C178 O167 1.226 . S
C178 O168 1.307 . S
C179 O171 1.303 . S
C179 O172 1.247 . S
C180 O169 1.253 . S
C180 O170 1.283 . S
C181 O173 1.304 . S
C181 O175 1.272 . S
C182 O174 1.311 . S
C182 O176 1.231 . S
O183 Zn165 1.953 . S
O183 C177 1.298 . S
O184 Zn185 1.953 . S
O184 C200 1.225 . S
Zn185 O184 1.953 . S
Zn185 O186 1.949 . S
Zn185 O192 1.919 . S
Zn185 O197 1.924 . S
O186 Zn185 1.949 . S
O186 Zn187 1.923 . S
O186 Zn188 1.950 . S
O186 Zn189 1.945 1_554 S
Zn187 O186 1.923 . S
Zn187 O190 1.933 . S
Zn187 O193 1.941 . S
Zn187 O194 1.965 . S
Zn188 O186 1.950 . S
Zn188 O195 1.938 . S
Zn188 O196 1.906 1_554 S
Zn188 O206 1.953 . S
Zn189 O186 1.945 1_556 S
Zn189 O191 1.932 . S
Zn189 O198 1.977 . S
Zn189 O199 1.910 . S
O190 Zn187 1.933 . S
O190 C201 1.226 1_554 S
O191 Zn189 1.932 . S
O191 C201 1.307 . S
O192 Zn185 1.919 . S
O192 C203 1.253 . S
O193 Zn187 1.941 . S
O193 C203 1.283 . S
O194 Zn187 1.965 . S
O194 C202 1.303 . S
O195 Zn188 1.938 . S
O195 C202 1.247 . S
O196 Zn188 1.906 1_556 S
O196 C204 1.304 . S
O197 Zn185 1.924 . S
O197 C205 1.311 1_554 S
O198 Zn189 1.977 . S
O198 C204 1.272 . S
O199 Zn189 1.910 . S
O199 C205 1.231 . S
C200 O184 1.225 . S
C200 O206 1.298 . S
C201 O190 1.226 1_556 S
C201 O191 1.307 . S
C202 O194 1.303 . S
C202 O195 1.247 . S
C203 O192 1.253 . S
C203 O193 1.283 . S
C204 O196 1.304 . S
C204 O198 1.272 . S
C205 O197 1.311 1_556 S
C205 O199 1.231 . S
O206 Zn188 1.953 . S
O206 C200 1.298 . S
O207 Zn208 1.953 . S
O207 C223 1.225 . S
Zn208 O207 1.953 . S
Zn208 O209 1.949 . S
Zn208 O215 1.919 . S
Zn208 O220 1.924 . S
O209 Zn208 1.949 . S
O209 Zn210 1.923 . S
O209 Zn211 1.950 . S
O209 Zn212 1.945 1_556 S
Zn210 O209 1.923 . S
Zn210 O213 1.933 . S
Zn210 O216 1.941 . S
Zn210 O217 1.965 . S
Zn211 O209 1.950 . S
Zn211 O218 1.938 . S
Zn211 O219 1.906 1_556 S
Zn211 O229 1.953 . S
Zn212 O209 1.945 1_554 S
Zn212 O214 1.932 . S
Zn212 O221 1.977 . S
Zn212 O222 1.910 . S
O213 Zn210 1.933 . S
O213 C224 1.226 1_556 S
O214 Zn212 1.932 . S
O214 C224 1.307 . S
O215 Zn208 1.919 . S
O215 C226 1.253 . S
O216 Zn210 1.941 . S
O216 C226 1.283 . S
O217 Zn210 1.965 . S
O217 C225 1.303 . S
O218 Zn211 1.938 . S
O218 C225 1.247 . S
O219 Zn211 1.906 1_554 S
O219 C227 1.304 . S
O220 Zn208 1.924 . S
O220 C228 1.311 1_556 S
O221 Zn212 1.977 . S
O221 C227 1.272 . S
O222 Zn212 1.910 . S
O222 C228 1.231 . S
C223 O207 1.225 . S
C223 O229 1.298 . S
C224 O213 1.226 1_554 S
C224 O214 1.307 . S
C225 O217 1.303 . S
C225 O218 1.247 . S
C226 O215 1.253 . S
C226 O216 1.283 . S
C227 O219 1.304 . S
C227 O221 1.272 . S
C228 O220 1.311 1_554 S
C228 O222 1.231 . S
O229 Zn211 1.953 . S
O229 C223 1.298 . S
O230 Zn231 1.953 . S
O230 C246 1.225 . S
Zn231 O230 1.953 . S
Zn231 O232 1.949 . S
Zn231 O238 1.919 . S
Zn231 O243 1.924 . S
O232 Zn231 1.949 . S
O232 Zn233 1.923 . S
O232 Zn234 1.950 . S
O232 Zn235 1.945 . S
Zn233 O232 1.923 . S
Zn233 O236 1.933 . S
Zn233 O239 1.941 . S
Zn233 O240 1.965 . S
Zn234 O232 1.950 . S
Zn234 O241 1.938 . S
Zn234 O242 1.906 . S
Zn234 O252 1.953 . S
Zn235 O232 1.945 . S
Zn235 O237 1.932 . S
Zn235 O244 1.977 . S
Zn235 O245 1.910 . S
O236 Zn233 1.933 . S
O236 C247 1.226 . S
O237 Zn235 1.932 . S
O237 C247 1.307 . S
O238 Zn231 1.919 . S
O238 C249 1.253 . S
O239 Zn233 1.941 . S
O239 C249 1.283 . S
O240 Zn233 1.965 . S
O240 C248 1.303 . S
O241 Zn234 1.938 . S
O241 C248 1.247 . S
O242 Zn234 1.906 . S
O242 C250 1.304 . S
O243 Zn231 1.924 . S
O243 C251 1.311 . S
O244 Zn235 1.977 . S
O244 C250 1.272 . S
O245 Zn235 1.910 . S
O245 C251 1.231 . S
C246 O230 1.225 . S
C246 O252 1.298 . S
C247 O236 1.226 . S
C247 O237 1.307 . S
C248 O240 1.303 . S
C248 O241 1.247 . S
C249 O238 1.253 . S
C249 O239 1.283 . S
C250 O242 1.304 . S
C250 O244 1.272 . S
C251 O243 1.311 . S
C251 O245 1.231 . S
O252 Zn234 1.953 . S
O252 C246 1.298 . S
O253 Zn254 1.953 . S
O253 C269 1.225 . S
Zn254 O253 1.953 . S
Zn254 O255 1.949 . S
Zn254 O261 1.919 . S
Zn254 O266 1.924 . S
O255 Zn254 1.949 . S
O255 Zn256 1.923 . S
O255 Zn257 1.950 . S
O255 Zn258 1.945 . S
Zn256 O255 1.923 . S
Zn256 O259 1.933 . S
Zn256 O262 1.941 . S
Zn256 O263 1.965 . S
Zn257 O255 1.950 . S
Zn257 O264 1.938 . S
Zn257 O265 1.906 . S
Zn257 O275 1.953 . S
Zn258 O255 1.945 . S
Zn258 O260 1.932 . S
Zn258 O267 1.977 . S
Zn258 O268 1.910 . S
O259 Zn256 1.933 . S
O259 C270 1.226 . S
O260 Zn258 1.932 . S
O260 C270 1.307 . S
O261 Zn254 1.919 . S
O261 C272 1.253 . S
O262 Zn256 1.941 . S
O262 C272 1.283 . S
O263 Zn256 1.965 . S
O263 C271 1.303 . S
O264 Zn257 1.938 . S
O264 C271 1.247 . S
O265 Zn257 1.906 . S
O265 C273 1.304 . S
O266 Zn254 1.924 . S
O266 C274 1.311 . S
O267 Zn258 1.977 . S
O267 C273 1.272 . S
O268 Zn258 1.910 . S
O268 C274 1.231 . S
C269 O253 1.225 . S
C269 O275 1.298 . S
C270 O259 1.226 . S
C270 O260 1.307 . S
C271 O263 1.303 . S
C271 O264 1.247 . S
C272 O261 1.253 . S
C272 O262 1.283 . S
C273 O265 1.304 . S
C273 O267 1.272 . S
C274 O266 1.311 . S
C274 O268 1.231 . S
O275 Zn257 1.953 . S
O275 C269 1.298 . S
O276 Zn277 1.953 . S
O276 C292 1.225 . S
Zn277 O276 1.953 . S
Zn277 O278 1.949 . S
Zn277 O284 1.919 . S
Zn277 O289 1.924 . S
O278 Zn277 1.949 . S
O278 Zn279 1.923 . S
O278 Zn280 1.950 . S
O278 Zn281 1.945 1_655 S
Zn279 O278 1.923 . S
Zn279 O282 1.933 . S
Zn279 O285 1.941 . S
Zn279 O286 1.965 . S
Zn280 O278 1.950 . S
Zn280 O287 1.938 . S
Zn280 O288 1.906 1_655 S
Zn280 O298 1.953 . S
Zn281 O278 1.945 1_455 S
Zn281 O283 1.932 . S
Zn281 O290 1.977 . S
Zn281 O291 1.910 . S
O282 Zn279 1.933 . S
O282 C293 1.226 1_655 S
O283 Zn281 1.932 . S
O283 C293 1.307 . S
O284 Zn277 1.919 . S
O284 C295 1.253 . S
O285 Zn279 1.941 . S
O285 C295 1.283 . S
O286 Zn279 1.965 . S
O286 C294 1.303 . S
O287 Zn280 1.938 . S
O287 C294 1.247 . S
O288 Zn280 1.906 1_455 S
O288 C296 1.304 . S
O289 Zn277 1.924 . S
O289 C297 1.311 1_655 S
O290 Zn281 1.977 . S
O290 C296 1.272 . S
O291 Zn281 1.910 . S
O291 C297 1.231 . S
C292 O276 1.225 . S
C292 O298 1.298 . S
C293 O282 1.226 1_455 S
C293 O283 1.307 . S
C294 O286 1.303 . S
C294 O287 1.247 . S
C295 O284 1.253 . S
C295 O285 1.283 . S
C296 O288 1.304 . S
C296 O290 1.272 . S
C297 O289 1.311 1_455 S
C297 O291 1.231 . S
O298 Zn280 1.953 . S
O298 C292 1.298 . S
O299 Zn300 1.953 . S
O299 C315 1.225 . S
Zn300 O299 1.953 . S
Zn300 O301 1.949 . S
Zn300 O307 1.919 . S
Zn300 O312 1.924 . S
O301 Zn300 1.949 . S
O301 Zn302 1.923 . S
O301 Zn303 1.950 . S
O301 Zn304 1.945 . S
Zn302 O301 1.923 . S
Zn302 O305 1.933 . S
Zn302 O308 1.941 . S
Zn302 O309 1.965 . S
Zn303 O301 1.950 . S
Zn303 O310 1.938 . S
Zn303 O311 1.906 . S
Zn303 O321 1.953 . S
Zn304 O301 1.945 . S
Zn304 O306 1.932 . S
Zn304 O313 1.977 . S
Zn304 O314 1.910 . S
O305 Zn302 1.933 . S
O305 C316 1.226 . S
O306 Zn304 1.932 . S
O306 C316 1.307 . S
O307 Zn300 1.919 . S
O307 C318 1.253 . S
O308 Zn302 1.941 . S
O308 C318 1.283 . S
O309 Zn302 1.965 . S
O309 C317 1.303 . S
O310 Zn303 1.938 . S
O310 C317 1.247 . S
O311 Zn303 1.906 . S
O311 C319 1.304 . S
O312 Zn300 1.924 . S
O312 C320 1.311 . S
O313 Zn304 1.977 . S
O313 C319 1.272 . S
O314 Zn304 1.910 . S
O314 C320 1.231 . S
C315 O299 1.225 . S
C315 O321 1.298 . S
C316 O305 1.226 . S
C316 O306 1.307 . S
C317 O309 1.303 . S
C317 O310 1.247 . S
C318 O307 1.253 . S
C318 O308 1.283 . S
C319 O311 1.304 . S
C319 O313 1.272 . S
C320 O312 1.311 . S
C320 O314 1.231 . S
O321 Zn303 1.953 . S
O321 C315 1.298 . S
O322 Zn323 1.953 . S
O322 C338 1.225 . S
Zn323 O322 1.953 . S
Zn323 O324 1.949 . S
Zn323 O330 1.919 . S
Zn323 O335 1.924 . S
O324 Zn323 1.949 . S
O324 Zn325 1.923 . S
O324 Zn326 1.950 . S
O324 Zn327 1.945 . S
Zn325 O324 1.923 . S
Zn325 O328 1.933 . S
Zn325 O331 1.941 . S
Zn325 O332 1.965 . S
Zn326 O324 1.950 . S
Zn326 O333 1.938 . S
Zn326 O334 1.906 . S
Zn326 O344 1.953 . S
Zn327 O324 1.945 . S
Zn327 O329 1.932 . S
Zn327 O336 1.977 . S
Zn327 O337 1.910 . S
O328 Zn325 1.933 . S
O328 C339 1.226 . S
O329 Zn327 1.932 . S
O329 C339 1.307 . S
O330 Zn323 1.919 . S
O330 C341 1.253 . S
O331 Zn325 1.941 . S
O331 C341 1.283 . S
O332 Zn325 1.965 . S
O332 C340 1.303 . S
O333 Zn326 1.938 . S
O333 C340 1.247 . S
O334 Zn326 1.906 . S
O334 C342 1.304 . S
O335 Zn323 1.924 . S
O335 C343 1.311 . S
O336 Zn327 1.977 . S
O336 C342 1.272 . S
O337 Zn327 1.910 . S
O337 C343 1.231 . S
C338 O322 1.225 . S
C338 O344 1.298 . S
C339 O328 1.226 . S
C339 O329 1.307 . S
C340 O332 1.303 . S
C340 O333 1.247 . S
C341 O330 1.253 . S
C341 O331 1.283 . S
C342 O334 1.304 . S
C342 O336 1.272 . S
C343 O335 1.311 . S
C343 O337 1.231 . S
O344 Zn326 1.953 . S
O344 C338 1.298 . S
O345 Zn346 1.953 . S
O345 C361 1.225 . S
Zn346 O345 1.953 . S
Zn346 O347 1.949 . S
Zn346 O353 1.919 . S
Zn346 O358 1.924 . S
O347 Zn346 1.949 . S
O347 Zn348 1.923 . S
O347 Zn349 1.950 . S
O347 Zn350 1.945 1_455 S
Zn348 O347 1.923 . S
Zn348 O351 1.933 . S
Zn348 O354 1.941 . S
Zn348 O355 1.965 . S
Zn349 O347 1.950 . S
Zn349 O356 1.938 . S
Zn349 O357 1.906 1_455 S
Zn349 O367 1.953 . S
Zn350 O347 1.945 1_655 S
Zn350 O352 1.932 . S
Zn350 O359 1.977 . S
Zn350 O360 1.910 . S
O351 Zn348 1.933 . S
O351 C362 1.226 1_455 S
O352 Zn350 1.932 . S
O352 C362 1.307 . S
O353 Zn346 1.919 . S
O353 C364 1.253 . S
O354 Zn348 1.941 . S
O354 C364 1.283 . S
O355 Zn348 1.965 . S
O355 C363 1.303 . S
O356 Zn349 1.938 . S
O356 C363 1.247 . S
O357 Zn349 1.906 1_655 S
O357 C365 1.304 . S
O358 Zn346 1.924 . S
O358 C366 1.311 1_455 S
O359 Zn350 1.977 . S
O359 C365 1.272 . S
O360 Zn350 1.910 . S
O360 C366 1.231 . S
C361 O345 1.225 . S
C361 O367 1.298 . S
C362 O351 1.226 1_655 S
C362 O352 1.307 . S
C363 O355 1.303 . S
C363 O356 1.247 . S
C364 O353 1.253 . S
C364 O354 1.283 . S
C365 O357 1.304 . S
C365 O359 1.272 . S
C366 O358 1.311 1_655 S
C366 O360 1.231 . S
O367 Zn349 1.953 . S
O367 C361 1.298 . S
O368 Zn369 1.953 . S
O368 C384 1.225 . S
Zn369 O368 1.953 . S
Zn369 O370 1.949 . S
Zn369 O376 1.919 . S
Zn369 O381 1.924 . S
O370 Zn369 1.949 . S
O370 Zn371 1.923 . S
O370 Zn372 1.950 . S
O370 Zn373 1.945 1_565 S
Zn371 O370 1.923 . S
Zn371 O374 1.933 . S
Zn371 O377 1.941 . S
Zn371 O378 1.965 . S
Zn372 O370 1.950 . S
Zn372 O379 1.938 . S
Zn372 O380 1.906 1_565 S
Zn372 O390 1.953 . S
Zn373 O370 1.945 1_545 S
Zn373 O375 1.932 . S
Zn373 O382 1.977 . S
Zn373 O383 1.910 . S
O374 Zn371 1.933 . S
O374 C385 1.226 1_565 S
O375 Zn373 1.932 . S
O375 C385 1.307 . S
O376 Zn369 1.919 . S
O376 C387 1.253 . S
O377 Zn371 1.941 . S
O377 C387 1.283 . S
O378 Zn371 1.965 . S
O378 C386 1.303 . S
O379 Zn372 1.938 . S
O379 C386 1.247 . S
O380 Zn372 1.906 1_545 S
O380 C388 1.304 . S
O381 Zn369 1.924 . S
O381 C389 1.311 1_565 S
O382 Zn373 1.977 . S
O382 C388 1.272 . S
O383 Zn373 1.910 . S
O383 C389 1.231 . S
C384 O368 1.225 . S
C384 O390 1.298 . S
C385 O374 1.226 1_545 S
C385 O375 1.307 . S
C386 O378 1.303 . S
C386 O379 1.247 . S
C387 O376 1.253 . S
C387 O377 1.283 . S
C388 O380 1.304 . S
C388 O382 1.272 . S
C389 O381 1.311 1_545 S
C389 O383 1.231 . S
O390 Zn372 1.953 . S
O390 C384 1.298 . S
O391 Zn392 1.953 . S
O391 C407 1.225 . S
Zn392 O391 1.953 . S
Zn392 O393 1.949 . S
Zn392 O399 1.919 . S
Zn392 O404 1.924 . S
O393 Zn392 1.949 . S
O393 Zn394 1.923 . S
O393 Zn395 1.950 . S
O393 Zn396 1.945 1_545 S
Zn394 O393 1.923 . S
Zn394 O397 1.933 . S
Zn394 O400 1.941 . S
Zn394 O401 1.965 . S
Zn395 O393 1.950 . S
Zn395 O402 1.938 . S
Zn395 O403 1.906 1_545 S
Zn395 O413 1.953 . S
Zn396 O393 1.945 1_565 S
Zn396 O398 1.932 . S
Zn396 O405 1.977 . S
Zn396 O406 1.910 . S
O397 Zn394 1.933 . S
O397 C408 1.226 1_545 S
O398 Zn396 1.932 . S
O398 C408 1.307 . S
O399 Zn392 1.919 . S
O399 C410 1.253 . S
O400 Zn394 1.941 . S
O400 C410 1.283 . S
O401 Zn394 1.965 . S
O401 C409 1.303 . S
O402 Zn395 1.938 . S
O402 C409 1.247 . S
O403 Zn395 1.906 1_565 S
O403 C411 1.304 . S
O404 Zn392 1.924 . S
O404 C412 1.311 1_545 S
O405 Zn396 1.977 . S
O405 C411 1.272 . S
O406 Zn396 1.910 . S
O406 C412 1.231 . S
C407 O391 1.225 . S
C407 O413 1.298 . S
C408 O397 1.226 1_565 S
C408 O398 1.307 . S
C409 O401 1.303 . S
C409 O402 1.247 . S
C410 O399 1.253 . S
C410 O400 1.283 . S
C411 O403 1.304 . S
C411 O405 1.272 . S
C412 O404 1.311 1_565 S
C412 O406 1.231 . S
O413 Zn395 1.953 . S
O413 C407 1.298 . S
O414 Zn415 1.953 . S
O414 C430 1.225 . S
Zn415 O414 1.953 . S
Zn415 O416 1.949 . S
Zn415 O422 1.919 . S
Zn415 O427 1.924 . S
O416 Zn415 1.949 . S
O416 Zn417 1.923 . S
O416 Zn418 1.950 . S
O416 Zn419 1.945 . S
Zn417 O416 1.923 . S
Zn417 O420 1.933 . S
Zn417 O423 1.941 . S
Zn417 O424 1.965 . S
Zn418 O416 1.950 . S
Zn418 O425 1.938 . S
Zn418 O426 1.906 . S
Zn418 O436 1.953 . S
Zn419 O416 1.945 . S
Zn419 O421 1.932 . S
Zn419 O428 1.977 . S
Zn419 O429 1.910 . S
O420 Zn417 1.933 . S
O420 C431 1.226 . S
O421 Zn419 1.932 . S
O421 C431 1.307 . S
O422 Zn415 1.919 . S
O422 C433 1.253 . S
O423 Zn417 1.941 . S
O423 C433 1.283 . S
O424 Zn417 1.965 . S
O424 C432 1.303 . S
O425 Zn418 1.938 . S
O425 C432 1.247 . S
O426 Zn418 1.906 . S
O426 C434 1.304 . S
O427 Zn415 1.924 . S
O427 C435 1.311 . S
O428 Zn419 1.977 . S
O428 C434 1.272 . S
O429 Zn419 1.910 . S
O429 C435 1.231 . S
C430 O414 1.225 . S
C430 O436 1.298 . S
C431 O420 1.226 . S
C431 O421 1.307 . S
C432 O424 1.303 . S
C432 O425 1.247 . S
C433 O422 1.253 . S
C433 O423 1.283 . S
C434 O426 1.304 . S
C434 O428 1.272 . S
C435 O427 1.311 . S
C435 O429 1.231 . S
O436 Zn418 1.953 . S
O436 C430 1.298 . S
O437 Zn438 1.953 . S
O437 C453 1.225 . S
Zn438 O437 1.953 . S
Zn438 O439 1.949 . S
Zn438 O445 1.919 . S
Zn438 O450 1.924 . S
O439 Zn438 1.949 . S
O439 Zn440 1.923 . S
O439 Zn441 1.950 . S
O439 Zn442 1.945 . S
Zn440 O439 1.923 . S
Zn440 O443 1.933 . S
Zn440 O446 1.941 . S
Zn440 O447 1.965 . S
Zn441 O439 1.950 . S
Zn441 O448 1.938 . S
Zn441 O449 1.906 . S
Zn441 O459 1.953 . S
Zn442 O439 1.945 . S
Zn442 O444 1.932 . S
Zn442 O451 1.977 . S
Zn442 O452 1.910 . S
O443 Zn440 1.933 . S
O443 C454 1.226 . S
O444 Zn442 1.932 . S
O444 C454 1.307 . S
O445 Zn438 1.919 . S
O445 C456 1.253 . S
O446 Zn440 1.941 . S
O446 C456 1.283 . S
O447 Zn440 1.965 . S
O447 C455 1.303 . S
O448 Zn441 1.938 . S
O448 C455 1.247 . S
O449 Zn441 1.906 . S
O449 C457 1.304 . S
O450 Zn438 1.924 . S
O450 C458 1.311 . S
O451 Zn442 1.977 . S
O451 C457 1.272 . S
O452 Zn442 1.910 . S
O452 C458 1.231 . S
C453 O437 1.225 . S
C453 O459 1.298 . S
C454 O443 1.226 . S
C454 O444 1.307 . S
C455 O447 1.303 . S
C455 O448 1.247 . S
C456 O445 1.253 . S
C456 O446 1.283 . S
C457 O449 1.304 . S
C457 O451 1.272 . S
C458 O450 1.311 . S
C458 O452 1.231 . S
O459 Zn441 1.953 . S
O459 C453 1.298 . S
O460 Zn461 1.953 . S
O460 C476 1.225 . S
Zn461 O460 1.953 . S
Zn461 O462 1.949 . S
Zn461 O468 1.919 . S
Zn461 O473 1.924 . S
O462 Zn461 1.949 . S
O462 Zn463 1.923 . S
O462 Zn464 1.950 . S
O462 Zn465 1.945 1_556 S
Zn463 O462 1.923 . S
Zn463 O466 1.933 . S
Zn463 O469 1.941 . S
Zn463 O470 1.965 . S
Zn464 O462 1.950 . S
Zn464 O471 1.938 . S
Zn464 O472 1.906 1_556 S
Zn464 O482 1.953 . S
Zn465 O462 1.945 1_554 S
Zn465 O467 1.932 . S
Zn465 O474 1.977 . S
Zn465 O475 1.910 . S
O466 Zn463 1.933 . S
O466 C477 1.226 1_556 S
O467 Zn465 1.932 . S
O467 C477 1.307 . S
O468 Zn461 1.919 . S
O468 C479 1.253 . S
O469 Zn463 1.941 . S
O469 C479 1.283 . S
O470 Zn463 1.965 . S
O470 C478 1.303 . S
O471 Zn464 1.938 . S
O471 C478 1.247 . S
O472 Zn464 1.906 1_554 S
O472 C480 1.304 . S
O473 Zn461 1.924 . S
O473 C481 1.311 1_556 S
O474 Zn465 1.977 . S
O474 C480 1.272 . S
O475 Zn465 1.910 . S
O475 C481 1.231 . S
C476 O460 1.225 . S
C476 O482 1.298 . S
C477 O466 1.226 1_554 S
C477 O467 1.307 . S
C478 O470 1.303 . S
C478 O471 1.247 . S
C479 O468 1.253 . S
C479 O469 1.283 . S
C480 O472 1.304 . S
C480 O474 1.272 . S
C481 O473 1.311 1_554 S
C481 O475 1.231 . S
O482 Zn464 1.953 . S
O482 C476 1.298 . S
O483 Zn484 1.953 . S
O483 C499 1.225 . S
Zn484 O483 1.953 . S
Zn484 O485 1.949 . S
Zn484 O491 1.919 . S
Zn484 O496 1.924 . S
O485 Zn484 1.949 . S
O485 Zn486 1.923 . S
O485 Zn487 1.950 . S
O485 Zn488 1.945 1_554 S
Zn486 O485 1.923 . S
Zn486 O489 1.933 . S
Zn486 O492 1.941 . S
Zn486 O493 1.965 . S
Zn487 O485 1.950 . S
Zn487 O494 1.938 . S
Zn487 O495 1.906 1_554 S
Zn487 O505 1.953 . S
Zn488 O485 1.945 1_556 S
Zn488 O490 1.932 . S
Zn488 O497 1.977 . S
Zn488 O498 1.910 . S
O489 Zn486 1.933 . S
O489 C500 1.226 1_554 S
O490 Zn488 1.932 . S
O490 C500 1.307 . S
O491 Zn484 1.919 . S
O491 C502 1.253 . S
O492 Zn486 1.941 . S
O492 C502 1.283 . S
O493 Zn486 1.965 . S
O493 C501 1.303 . S
O494 Zn487 1.938 . S
O494 C501 1.247 . S
O495 Zn487 1.906 1_556 S
O495 C503 1.304 . S
O496 Zn484 1.924 . S
O496 C504 1.311 1_554 S
O497 Zn488 1.977 . S
O497 C503 1.272 . S
O498 Zn488 1.910 . S
O498 C504 1.231 . S
C499 O483 1.225 . S
C499 O505 1.298 . S
C500 O489 1.226 1_556 S
C500 O490 1.307 . S
C501 O493 1.303 . S
C501 O494 1.247 . S
C502 O491 1.253 . S
C502 O492 1.283 . S
C503 O495 1.304 . S
C503 O497 1.272 . S
C504 O496 1.311 1_556 S
C504 O498 1.231 . S
O505 Zn487 1.953 . S
O505 C499 1.298 . S
O506 Zn507 1.953 . S
O506 C522 1.225 . S
Zn507 O506 1.953 . S
Zn507 O508 1.949 . S
Zn507 O514 1.919 . S
Zn507 O519 1.924 . S
O508 Zn507 1.949 . S
O508 Zn509 1.923 . S
O508 Zn510 1.950 . S
O508 Zn511 1.945 . S
Zn509 O508 1.923 . S
Zn509 O512 1.933 . S
Zn509 O515 1.941 . S
Zn509 O516 1.965 . S
Zn510 O508 1.950 . S
Zn510 O517 1.938 . S
Zn510 O518 1.906 . S
Zn510 O528 1.953 . S
Zn511 O508 1.945 . S
Zn511 O513 1.932 . S
Zn511 O520 1.977 . S
Zn511 O521 1.910 . S
O512 Zn509 1.933 . S
O512 C523 1.226 . S
O513 Zn511 1.932 . S
O513 C523 1.307 . S
O514 Zn507 1.919 . S
O514 C525 1.253 . S
O515 Zn509 1.941 . S
O515 C525 1.283 . S
O516 Zn509 1.965 . S
O516 C524 1.303 . S
O517 Zn510 1.938 . S
O517 C524 1.247 . S
O518 Zn510 1.906 . S
O518 C526 1.304 . S
O519 Zn507 1.924 . S
O519 C527 1.311 . S
O520 Zn511 1.977 . S
O520 C526 1.272 . S
O521 Zn511 1.910 . S
O521 C527 1.231 . S
C522 O506 1.225 . S
C522 O528 1.298 . S
C523 O512 1.226 . S
C523 O513 1.307 . S
C524 O516 1.303 . S
C524 O517 1.247 . S
C525 O514 1.253 . S
C525 O515 1.283 . S
C526 O518 1.304 . S
C526 O520 1.272 . S
C527 O519 1.311 . S
C527 O521 1.231 . S
O528 Zn510 1.953 . S
O528 C522 1.298 . S
O529 Zn530 1.953 . S
O529 C545 1.225 . S
Zn530 O529 1.953 . S
Zn530 O531 1.949 . S
Zn530 O537 1.919 . S
Zn530 O542 1.924 . S
O531 Zn530 1.949 . S
O531 Zn532 1.923 . S
O531 Zn533 1.950 . S
O531 Zn534 1.945 . S
Zn532 O531 1.923 . S
Zn532 O535 1.933 . S
Zn532 O538 1.941 . S
Zn532 O539 1.965 . S
Zn533 O531 1.950 . S
Zn533 O540 1.938 . S
Zn533 O541 1.906 . S
Zn533 O551 1.953 . S
Zn534 O531 1.945 . S
Zn534 O536 1.932 . S
Zn534 O543 1.977 . S
Zn534 O544 1.910 . S
O535 Zn532 1.933 . S
O535 C546 1.226 . S
O536 Zn534 1.932 . S
O536 C546 1.307 . S
O537 Zn530 1.919 . S
O537 C548 1.253 . S
O538 Zn532 1.941 . S
O538 C548 1.283 . S
O539 Zn532 1.965 . S
O539 C547 1.303 . S
O540 Zn533 1.938 . S
O540 C547 1.247 . S
O541 Zn533 1.906 . S
O541 C549 1.304 . S
O542 Zn530 1.924 . S
O542 C550 1.311 . S
O543 Zn534 1.977 . S
O543 C549 1.272 . S
O544 Zn534 1.910 . S
O544 C550 1.231 . S
C545 O529 1.225 . S
C545 O551 1.298 . S
C546 O535 1.226 . S
C546 O536 1.307 . S
C547 O539 1.303 . S
C547 O540 1.247 . S
C548 O537 1.253 . S
C548 O538 1.283 . S
C549 O541 1.304 . S
C549 O543 1.272 . S
C550 O542 1.311 . S
C550 O544 1.231 . S
O551 Zn533 1.953 . S
O551 C545 1.298 . S
C19 C435 1.095 . S
C458 C42 1.095 . S
C65 C389 1.095 . S
C88 C412 1.095 . S
C527 C111 1.095 . S
C134 C504 1.095 . S
C550 C157 1.095 . S
C180 C481 1.095 . S
C203 C320 1.095 . S
C226 C366 1.095 . S
C343 C249 1.095 . S
C272 C297 1.095 . S
C295 C159 1.095 . S
C318 C182 1.095 . S
C341 C113 1.095 . S
C136 C364 1.095 . S
C387 C251 1.095 . S
C228 C410 1.095 . S
C274 C433 1.095 . S
C205 C456 1.095 . S
C44 C479 1.095 . S
C90 C502 1.095 . S
C67 C525 1.095 . S
C548 C21 1.095 . S
C110 C16 1.746 . S
C133 C39 1.746 . S
C156 C62 1.746 . S
C179 C85 1.746 . S
C108 C202 1.746 . S
C131 C271 1.746 . S
C154 C225 1.746 . S
C177 C248 1.746 . S
C200 C18 1.746 . S
C223 C64 1.746 . S
C246 C87 1.746 . S
C41 C269 1.746 . S
C386 C292 1.746 . S
C409 C315 1.746 . S
C338 C432 1.746 . S
C361 C455 1.746 . S
C478 C384 1.746 . S
C407 C547 1.746 . S
C501 C430 1.746 . S
C453 C524 1.746 . S
C294 C476 1.746 . S
C499 C340 1.746 . S
C522 C363 1.746 . S
C317 C545 1.746 . S
C20 C224 2.850 . S
C247 C43 2.850 . S
C201 C66 2.850 . S
C270 C89 2.850 . S
C112 C86 2.850 . S
C63 C135 2.850 . S
C158 C40 2.850 . S
C17 C181 2.850 . S
C204 C132 2.850 . S
C227 C178 2.850 . S
C250 C155 2.850 . S
C273 C109 2.850 . S
C296 C500 2.850 . S
C319 C523 2.850 . S
C477 C342 2.850 . S
C546 C365 2.850 . S
C388 C362 2.850 . S
C411 C339 2.850 . S
C316 C434 2.850 . S
C457 C293 2.850 . S
C480 C408 2.850 . S
C454 C503 2.850 . S
C526 C431 2.850 . S
C549 C385 2.850 . S
