# Generated by pormake.
# Topology wkh, (6)-cn, num edge types: 1
# Building blocks:
#     Node 0, Type 0, BuildingBlock: IZENUY_clean_sbu_0, # of connection points: 6
#     Node 1, Type 0, BuildingBlock: IZENUY_clean_sbu_0, # of connection points: 6
#     Node 2, Type 0, BuildingBlock: IZENUY_clean_sbu_0, # of connection points: 6
#     Node 3, Type 0, BuildingBlock: IZENUY_clean_sbu_0, # of connection points: 6
#     Node 4, Type 0, BuildingBlock: IZENUY_clean_sbu_0, # of connection points: 6
#     Node 5, Type 0, BuildingBlock: IZENUY_clean_sbu_0, # of connection points: 6
#     Node 6, Type 0, BuildingBlock: IZENUY_clean_sbu_0, # of connection points: 6
#     Node 7, Type 0, BuildingBlock: IZENUY_clean_sbu_0, # of connection points: 6
#     Node 8, Type 0, BuildingBlock: IZENUY_clean_sbu_0, # of connection points: 6
#     Node 9, Type 0, BuildingBlock: IZENUY_clean_sbu_0, # of connection points: 6
#     Node 10, Type 0, BuildingBlock: IZENUY_clean_sbu_0, # of connection points: 6
#     Node 11, Type 0, BuildingBlock: IZENUY_clean_sbu_0, # of connection points: 6
#     Edge 12, Type (0, 0), BuildingBlock: OJICUG_clean_linker_0, # of connection points: 2
#     Edge 13, Type (0, 0), BuildingBlock: OJICUG_clean_linker_0, # of connection points: 2
#     Edge 14, Type (0, 0), BuildingBlock: OJICUG_clean_linker_0, # of connection points: 2
#     Edge 15, Type (0, 0), BuildingBlock: OJICUG_clean_linker_0, # of connection points: 2
#     Edge 16, Type (0, 0), BuildingBlock: OJICUG_clean_linker_0, # of connection points: 2
#     Edge 17, Type (0, 0), BuildingBlock: OJICUG_clean_linker_0, # of connection points: 2
#     Edge 18, Type (0, 0), BuildingBlock: OJICUG_clean_linker_0, # of connection points: 2
#     Edge 19, Type (0, 0), BuildingBlock: OJICUG_clean_linker_0, # of connection points: 2
#     Edge 20, Type (0, 0), BuildingBlock: OJICUG_clean_linker_0, # of connection points: 2
#     Edge 21, Type (0, 0), BuildingBlock: OJICUG_clean_linker_0, # of connection points: 2
#     Edge 22, Type (0, 0), BuildingBlock: OJICUG_clean_linker_0, # of connection points: 2
#     Edge 23, Type (0, 0), BuildingBlock: OJICUG_clean_linker_0, # of connection points: 2
#     Edge 24, Type (0, 0), BuildingBlock: OJICUG_clean_linker_0, # of connection points: 2
#     Edge 25, Type (0, 0), BuildingBlock: OJICUG_clean_linker_0, # of connection points: 2
#     Edge 26, Type (0, 0), BuildingBlock: OJICUG_clean_linker_0, # of connection points: 2
#     Edge 27, Type (0, 0), BuildingBlock: OJICUG_clean_linker_0, # of connection points: 2
#     Edge 28, Type (0, 0), BuildingBlock: OJICUG_clean_linker_0, # of connection points: 2
#     Edge 29, Type (0, 0), BuildingBlock: OJICUG_clean_linker_0, # of connection points: 2
#     Edge 30, Type (0, 0), BuildingBlock: OJICUG_clean_linker_0, # of connection points: 2
#     Edge 31, Type (0, 0), BuildingBlock: OJICUG_clean_linker_0, # of connection points: 2
#     Edge 32, Type (0, 0), BuildingBlock: OJICUG_clean_linker_0, # of connection points: 2
#     Edge 33, Type (0, 0), BuildingBlock: OJICUG_clean_linker_0, # of connection points: 2
#     Edge 34, Type (0, 0), BuildingBlock: OJICUG_clean_linker_0, # of connection points: 2
#     Edge 35, Type (0, 0), BuildingBlock: OJICUG_clean_linker_0, # of connection points: 2
#     Edge 36, Type (0, 0), BuildingBlock: OJICUG_clean_linker_0, # of connection points: 2
#     Edge 37, Type (0, 0), BuildingBlock: OJICUG_clean_linker_0, # of connection points: 2
#     Edge 38, Type (0, 0), BuildingBlock: OJICUG_clean_linker_0, # of connection points: 2
#     Edge 39, Type (0, 0), BuildingBlock: OJICUG_clean_linker_0, # of connection points: 2
#     Edge 40, Type (0, 0), BuildingBlock: OJICUG_clean_linker_0, # of connection points: 2
#     Edge 41, Type (0, 0), BuildingBlock: OJICUG_clean_linker_0, # of connection points: 2
#     Edge 42, Type (0, 0), BuildingBlock: OJICUG_clean_linker_0, # of connection points: 2
#     Edge 43, Type (0, 0), BuildingBlock: OJICUG_clean_linker_0, # of connection points: 2
#     Edge 44, Type (0, 0), BuildingBlock: OJICUG_clean_linker_0, # of connection points: 2
#     Edge 45, Type (0, 0), BuildingBlock: OJICUG_clean_linker_0, # of connection points: 2
#     Edge 46, Type (0, 0), BuildingBlock: OJICUG_clean_linker_0, # of connection points: 2
#     Edge 47, Type (0, 0), BuildingBlock: OJICUG_clean_linker_0, # of connection points: 2
# Relax obj value: 0.285
# Max RMSD: 0.257
# Mean RMSD: 0.257
data_MOF--net-wkh--node1-IZENUY_clean_sbu_0--edge1-OJICUG_clean_linker_0
_symmetry_space_group_name_H-M    P1
_symmetry_Int_Tables_number       1
_symmetry_cell_setting            triclinic
loop_
_symmetry_equiv_pos_as_xyz
'x, y, z'
_cell_length_a     19.699304
_cell_length_b     19.786072
_cell_length_c     57.164522
_cell_angle_alpha  89.739429
_cell_angle_beta   90.140802
_cell_angle_gamma 119.95916
loop_
_atom_site_label
_atom_site_type_symbol
_atom_site_fract_x
_atom_site_fract_y
_atom_site_fract_z
_atom_type_partial_charge
Fe0 Fe 0.23911 0.32145 1.03227 0.0
Fe1 Fe 0.36809 0.27895 1.03771 0.0
O2 O 0.32747 0.3374 1.04593 0.0
Fe3 Fe 0.37433 0.41057 0.06767 0.0
O4 O 0.28735 0.36673 0.08595 0.0
O5 O 0.20031 0.34567 0.05851 0.0
O6 O 0.1857 0.223 1.04267 0.0
C7 C 0.20697 0.17393 1.03948 0.0
C8 C 0.30593 0.47523 1.03579 0.0
O9 O 0.27376 0.19284 1.03148 0.0
C10 C 0.50557 0.4258 1.04533 0.0
O11 O 0.25985 0.29086 1.00355 0.0
O12 O 0.38002 0.31313 1.0078 0.0
O13 O 0.34245 0.47731 0.05456 0.0
O14 O 0.28765 0.42033 1.02162 0.0
C15 C 0.38556 0.28133 0.08529 0.0
O16 O 0.46995 0.35279 1.04279 0.0
O17 O 0.46839 0.46018 0.05157 0.0
C18 C 0.32293 0.2993 0.99471 0.0
O19 O 0.35856 0.24119 0.06702 0.0
O20 O 0.40819 0.35391 0.08527 0.0
C21 C 0.21907 0.35002 0.07993 0.0
Fe22 Fe 0.97546 0.36772 0.23626 0.0
Fe23 Fe 0.93413 0.23992 0.19885 0.0
O24 O 1.00451 0.32515 0.21391 0.0
Fe25 Fe 0.10458 0.36761 0.20645 0.0
O26 O 0.12963 0.35225 0.23554 0.0
O27 O 0.06531 0.40018 0.25412 0.0
O28 O 0.93264 0.27833 0.25338 0.0
C29 C 0.88258 0.21105 0.24643 0.0
C30 C 0.09152 0.50151 0.21532 0.0
O31 O 0.86958 0.1959 0.22476 0.0
C32 C 0.04448 0.33194 0.16276 0.0
O33 O 0.87701 0.33654 0.22309 0.0
O34 O 0.8832 0.28937 0.18928 0.0
O35 O 0.13059 0.4673 0.21322 0.0
O36 O 0.01938 0.46334 0.22112 0.0
C37 C 0.05034 0.20754 0.20522 0.0
O38 O 0.9884 0.26738 0.17037 0.0
O39 O 0.0854 0.38574 0.17691 0.0
C40 C 0.84406 0.30291 0.20394 0.0
O41 O 0.97945 0.18531 0.20808 0.0
O42 O 0.09849 0.27574 0.1985 0.0
C43 C 0.11544 0.37741 0.25401 0.0
Fe44 Fe 0.71046 0.92469 0.3653 0.0
Fe45 Fe 0.75121 0.09425 0.37214 0.0
O46 O 0.69426 0.99475 0.37995 0.0
Fe47 Fe 0.6222 0.96605 0.40228 0.0
O48 O 0.6692 0.92407 0.41969 0.0
O49 O 0.69008 0.86103 0.39143 0.0
O50 O 0.81048 0.97078 0.37463 0.0
C51 C 0.85859 0.0414 0.37151 0.0
C52 C 0.55702 0.8345 0.37037 0.0
O53 O 0.8377 0.08852 0.36433 0.0
C54 C 0.60349 0.0809 0.3809 0.0
O55 O 0.73717 0.97804 0.33664 0.0
O56 O 0.71399 0.07413 0.34261 0.0
O57 O 0.55566 0.86775 0.38935 0.0
O58 O 0.6101 0.87299 0.35569 0.0
C59 C 0.75175 0.10596 0.41969 0.0
O60 O 0.67682 0.11988 0.3787 0.0
O61 O 0.56991 1.00919 0.3869 0.0
C62 C 0.72739 0.033 0.3287 0.0
O63 O 0.79138 0.12011 0.40121 0.0
O64 O 0.67889 0.05587 0.41988 0.0
C65 C 0.68716 0.87427 0.41303 0.0
Fe66 Fe 0.66664 0.61337 0.56956 0.0
Fe67 Fe 0.79779 0.70205 0.53291 0.0
O68 O 0.71086 0.68588 0.54739 0.0
Fe69 Fe 0.66845 0.7431 0.53946 0.0
O70 O 0.68117 0.78219 0.56855 0.0
O71 O 0.63297 0.6698 0.58718 0.0
O72 O 0.75518 0.65877 0.58716 0.0
C73 C 0.82296 0.67543 0.58061 0.0
C74 C 0.53351 0.59601 0.54796 0.0
O75 O 0.83991 0.67971 0.55901 0.0
C76 C 0.70808 0.72077 0.49611 0.0
O77 O 0.69868 0.54712 0.55646 0.0
O78 O 0.74896 0.60268 0.52294 0.0
O79 O 0.5679 0.66905 0.54568 0.0
O80 O 0.57162 0.56229 0.55402 0.0
C81 C 0.82904 0.84941 0.53949 0.0
O82 O 0.7727 0.73044 0.50426 0.0
O83 O 0.65278 0.70702 0.50986 0.0
C84 C 0.73347 0.54887 0.53741 0.0
O85 O 0.85154 0.80115 0.54259 0.0
O86 O 0.76132 0.82922 0.53202 0.0
C87 C 0.65478 0.74225 0.58695 0.0
Fe88 Fe 0.05931 0.65119 0.73756 0.0
Fe89 Fe 0.10274 0.77932 0.70005 0.0
O90 O 0.03184 0.69304 0.71449 0.0
Fe91 Fe 0.9327 0.64917 0.70602 0.0
O92 O 0.90469 0.66495 0.73476 0.0
O93 O 0.96678 0.61556 0.75405 0.0
O94 O 0.09542 0.73929 0.75454 0.0
C95 C 0.14496 0.8076 0.74824 0.0
C96 C 0.94851 0.51742 0.71601 0.0
O97 O 0.16336 0.82394 0.7268 0.0
C98 C 0.99751 0.68643 0.66295 0.0
O99 O 0.16063 0.6861 0.726 0.0
O100 O 0.15695 0.73237 0.69169 0.0
O101 O 0.90822 0.55033 0.71358 0.0
O102 O 0.02015 0.55658 0.72233 0.0
C103 C 0.98397 0.80918 0.7024 0.0
O104 O 0.05239 0.75105 0.67093 0.0
O105 O 0.95571 0.63163 0.67689 0.0
C106 C 0.19513 0.7197 0.70697 0.0
O107 O 0.05356 0.83167 0.70785 0.0
O108 O 0.93748 0.73944 0.6968 0.0
C109 C 0.91833 0.64032 0.7536 0.0
Fe110 Fe 0.30676 0.07981 0.86705 0.0
Fe111 Fe 0.29183 0.92101 0.87726 0.0
O112 O 0.3427 0.02383 0.88122 0.0
Fe113 Fe 0.42399 0.06773 0.90061 0.0
O114 O 0.40191 0.14113 0.91179 0.0
O115 O 0.2902 0.11464 0.89515 0.0
O116 O 0.2056 1.00412 0.8677 0.0
C117 C 0.17277 0.95182 0.88289 0.0
C118 C 0.47098 0.1851 0.86765 0.0
O119 O 0.20406 0.91332 0.88987 0.0
C120 C 0.43865 0.94417 0.87723 0.0
O121 O 0.31983 0.04889 0.83792 0.0
O122 O 0.26011 0.92472 0.84741 0.0
O123 O 0.48913 0.13946 0.87849 0.0
O124 O 0.40067 0.16573 0.86418 0.0
C125 C 0.32201 0.93242 0.92491 0.0
O126 O 0.37771 0.92349 0.86512 0.0
O127 O 0.45866 0.99746 0.89281 0.0
C128 C 0.28547 0.97775 0.83198 0.0
O129 O 0.31238 0.89593 0.90615 0.0
O130 O 0.36403 1.00579 0.92496 0.0
C131 C 0.34105 0.14739 0.91114 0.0
Fe132 Fe 0.74281 0.64902 0.88466 0.0
Fe133 Fe 0.62039 0.65276 0.85224 0.0
O134 O 0.68763 0.69311 0.87593 0.0
Fe135 Fe 0.70052 0.77721 0.89098 0.0
O136 O 0.80402 0.83118 0.88486 0.0
O137 O 0.82592 0.73727 0.89539 0.0
O138 O 0.79063 0.66895 0.85627 0.0
C139 C 0.7541 0.64579 0.83709 0.0
C140 C 0.70899 0.68041 0.92765 0.0
O141 O 0.68102 0.62172 0.83597 0.0
C142 C 0.54824 0.71711 0.88227 0.0
O143 O 0.67163 0.5513 0.87588 0.0
O144 O 0.5655 0.55552 0.86651 0.0
O145 O 0.71765 0.74501 0.92005 0.0
O146 O 0.69809 0.62726 0.91339 0.0
C147 C 0.68842 0.81051 0.84282 0.0
O148 O 0.55055 0.68352 0.86351 0.0
O149 O 0.59772 0.72941 0.89801 0.0
C150 C 0.59898 0.51704 0.87262 0.0
O151 O 0.67069 0.74328 0.83579 0.0
O152 O 0.68846 0.82492 0.86446 0.0
C153 C 0.84961 0.80809 0.89161 0.0
Fe154 Fe 0.10441 0.74678 0.05133 0.0
Fe155 Fe 0.98176 0.62433 1.01854 0.0
O156 O 1.0061 0.69092 1.04207 0.0
Fe157 Fe 0.93299 0.7025 0.05664 0.0
O158 O 0.97969 0.80432 0.04915 0.0
O159 O 0.09568 0.82949 0.06112 0.0
O160 O 0.13405 0.79455 1.02316 0.0
C161 C 0.1247 0.75935 1.00405 0.0
C162 C 0.03754 0.71397 0.09395 0.0
O163 O 0.0751 0.68655 1.00241 0.0
C164 C 0.84505 0.55061 0.04895 0.0
O165 O 0.13332 0.67591 1.04327 0.0
O166 O 0.02424 0.57043 1.03321 0.0
O167 O 0.98263 0.72395 0.0859 0.0
O168 O 0.07982 0.70202 0.07999 0.0
C169 C 0.88623 0.68503 1.00846 0.0
O170 O 0.88109 0.55367 1.03001 0.0
O171 O 0.88148 0.60074 0.0645 0.0
C172 C 0.09563 0.60345 1.03971 0.0
O173 O 0.94014 0.67281 1.00172 0.0
O174 O 0.87186 0.68577 1.03009 0.0
C175 C 0.04861 0.85199 0.05506 0.0
Fe176 Fe 0.37398 0.09843 0.21629 0.0
Fe177 Fe 0.37248 0.97098 0.18556 0.0
O178 O 0.33016 0.99925 0.20823 0.0
Fe179 Fe 0.24399 0.92932 0.22303 0.0
O180 O 0.1908 0.97738 0.21448 0.0
O181 O 0.28321 0.09323 0.22531 0.0
O182 O 0.35787 0.12552 0.18741 0.0
C183 C 0.38289 0.11194 0.16872 0.0
C184 C 0.33768 0.03569 0.25967 0.0
O185 O 0.40538 0.06169 0.16825 0.0
C186 C 0.30587 0.83814 0.21726 0.0
O187 O 0.47341 0.12407 0.20883 0.0
O188 O 0.46858 0.01335 0.20058 0.0
O189 O 0.27252 0.98111 0.25183 0.0
O190 O 0.3924 0.07671 0.2456 0.0
C191 C 0.21521 0.87928 0.17527 0.0
O192 O 0.34048 0.87199 0.19826 0.0
O193 O 0.29163 0.87613 0.23209 0.0
C194 C 0.50737 0.08497 0.20648 0.0
O195 O 0.28292 0.92945 0.16843 0.0
O196 O 0.19912 0.86677 0.19692 0.0
C197 C 0.21329 0.04685 0.21959 0.0
Fe198 Fe 0.41683 0.36511 0.35282 0.0
Fe199 Fe 0.33096 0.236 0.39014 0.0
O200 O 0.3466 0.32229 0.37564 0.0
Fe201 Fe 0.29107 0.3657 0.38422 0.0
O202 O 0.24716 0.35061 0.35553 0.0
O203 O 0.35827 0.39844 0.33597 0.0
O204 O 0.36866 0.27665 0.33554 0.0
C205 C 0.35167 0.20903 0.34213 0.0
C206 C 0.43767 0.49888 0.37406 0.0
O207 O 0.34868 0.19224 0.36373 0.0
C208 C 0.31821 0.32787 0.42725 0.0
O209 O 0.4844 0.33265 0.36506 0.0
O210 O 0.43203 0.28345 0.39896 0.0
O211 O 0.36458 0.46498 0.3768 0.0
O212 O 0.47065 0.46029 0.36793 0.0
C213 C 0.1823 0.20561 0.38715 0.0
O214 O 0.30758 0.26322 0.41916 0.0
O215 O 0.33203 0.38302 0.41337 0.0
C216 C 0.484 0.29761 0.38396 0.0
O217 O 0.22957 0.18341 0.38178 0.0
O218 O 0.2057 0.2749 0.39324 0.0
C219 C 0.28532 0.37584 0.33673 0.0
Fe220 Fe 0.06217 0.40529 0.51887 0.0
Fe221 Fe 0.10452 0.32022 0.5568 0.0
O222 O 0.03407 0.33545 0.54182 0.0
Fe223 Fe 0.93453 0.27996 0.55002 0.0
O224 O 0.90753 0.2362 0.52135 0.0
O225 O 0.97098 0.347 0.50179 0.0
O226 O 0.10377 0.35728 0.50199 0.0
C227 C 0.15434 0.34033 0.50895 0.0
C228 C 0.94786 0.42595 0.53968 0.0
O229 O 0.16732 0.33769 0.53064 0.0
C230 C 0.99722 0.30735 0.59332 0.0
O231 O 0.16156 0.47269 0.53129 0.0
O232 O 0.15758 0.421 0.56542 0.0
O233 O 0.90851 0.35306 0.54215 0.0
O234 O 0.01974 0.4588 0.53368 0.0
C235 C 0.98688 0.17194 0.55391 0.0
O236 O 0.05236 0.29722 0.58565 0.0
O237 O 0.95635 0.32083 0.57909 0.0
C238 C 0.19558 0.47277 0.55036 0.0
O239 O 0.05662 0.21911 0.5487 0.0
O240 O 0.94009 0.19508 0.55948 0.0
C241 C 0.92102 0.2743 0.50251 0.0
Fe242 Fe 0.66761 0.92333 0.71702 0.0
Fe243 Fe 0.66473 0.05065 0.6869 0.0
O244 O 0.70975 0.02252 0.70892 0.0
Fe245 Fe 0.7972 0.09301 0.72315 0.0
O246 O 0.85056 0.04718 0.71327 0.0
O247 O 0.76067 0.9298 0.72423 0.0
O248 O 0.67945 0.89634 0.68792 0.0
C249 C 0.6529 0.90997 0.66954 0.0
C250 C 0.70877 0.98597 0.7602 0.0
O251 O 0.63085 0.96056 0.66933 0.0
C252 C 0.7327 0.18206 0.71887 0.0
O253 O 0.56688 0.89708 0.71105 0.0
O254 O 0.57014 1.00727 0.70269 0.0
O255 O 0.77319 0.04016 0.75185 0.0
O256 O 0.65291 0.94456 0.74663 0.0
C257 C 0.82071 0.14414 0.67542 0.0
O258 O 0.69703 0.14887 0.69995 0.0
O259 O 0.74859 0.14381 0.73329 0.0
C260 C 0.53234 0.93579 0.70889 0.0
O261 O 0.75271 0.09331 0.66905 0.0
O262 O 0.83845 0.15685 0.69696 0.0
C263 C 0.82793 0.97654 0.71639 0.0
C264 C 0.7197 0.54142 0.06427 0.0
C265 C 0.75713 0.5156 0.0484 0.0
H266 H 0.61282 0.53678 0.07521 0.0
C267 C 0.71104 0.46499 1.03044 0.0
H268 H 0.75273 0.58152 0.07818 0.0
C269 C 0.6304 0.43959 1.02881 0.0
C270 C 0.59332 0.46546 1.04467 0.0
H271 H 0.73722 0.44484 1.01761 0.0
H272 H 0.59646 0.39851 1.01519 0.0
C273 C 0.63942 0.51729 0.06232 0.0
C274 C 0.19064 0.71468 0.23369 0.0
C275 C 0.25284 0.75091 0.21735 0.0
H276 H 0.08894 0.60882 0.24539 0.0
C277 C 0.25589 0.70445 0.19931 0.0
H278 H 0.1849 0.74823 0.24767 0.0
C279 C 0.20007 0.62461 0.19797 0.0
C280 C 0.13831 0.58857 0.21432 0.0
H281 H 0.30138 0.72976 0.18613 0.0
H282 H 0.20605 0.5903 0.18426 0.0
C283 C 0.13404 0.63488 0.23211 0.0
C284 C 0.56455 0.24499 0.36505 0.0
C285 C 0.51735 0.24373 0.38365 0.0
H286 H 0.62625 0.19303 0.34932 0.0
C287 C 0.49251 0.18247 0.40025 0.0
H288 H 0.58377 0.28972 0.35167 0.0
C289 C 0.51464 0.1251 0.39842 0.0
C290 C 0.56298 0.12761 0.38007 0.0
H291 H 0.45502 0.17815 0.41469 0.0
H292 H 0.4968 0.08091 0.41194 0.0
C293 C 0.5875 0.18835 0.36344 0.0
C294 C 0.31966 0.48137 0.56664 0.0
C295 C 0.28314 0.50726 0.55033 0.0
H296 H 0.42608 0.48582 0.57818 0.0
C297 C 0.32964 0.55701 0.53221 0.0
H298 H 0.28607 0.44191 0.58068 0.0
C299 C 0.40982 0.58131 0.53075 0.0
C300 C 0.44612 0.55563 0.54706 0.0
H301 H 0.30406 0.57713 0.51906 0.0
H302 H 0.44418 0.62175 0.51697 0.0
C303 C 0.39978 0.50483 0.56494 0.0
C304 C 0.78624 0.31497 0.69991 0.0
C305 C 0.7862 0.2691 0.71876 0.0
H306 H 0.83948 0.42825 0.68392 0.0
C307 C 0.84635 0.30544 0.73571 0.0
H308 H 0.74246 0.28956 0.68625 0.0
C309 C 0.90391 0.38488 0.73393 0.0
C310 C 0.90274 0.43051 0.71525 0.0
H311 H 0.84957 0.27226 0.75036 0.0
H312 H 0.94709 0.41131 0.74771 0.0
C313 C 0.84317 0.3943 0.69829 0.0
C314 C 0.47268 0.77444 0.86201 0.0
C315 C 0.51399 0.77052 0.88164 0.0
H316 H 0.41879 0.83262 0.84487 0.0
C317 C 0.53309 0.82713 0.8993 0.0
H318 H 0.45763 0.73314 0.84787 0.0
C319 C 0.51249 0.88561 0.89733 0.0
C320 C 0.47128 0.88956 0.87772 0.0
H321 H 0.56566 0.82743 0.91463 0.0
H322 H 0.52747 0.92678 0.91152 0.0
C323 C 0.45147 0.83264 0.86014 0.0
C324 C 0.52659 0.39001 0.85099 0.0
C325 C 0.5615 0.43051 0.87164 0.0
H326 H 0.47689 0.28119 0.8327 0.0
C327 C 0.57991 0.39154 0.88916 0.0
H328 H 0.5153 0.41914 0.83668 0.0
C329 C 0.56011 0.31305 0.88668 0.0
C330 C 0.52246 0.27141 0.86638 0.0
H331 H 0.60975 0.42216 0.90495 0.0
H332 H 0.56963 0.28368 0.90128 0.0
C333 C 0.5078 0.3119 0.84836 0.0
C334 C 0.13602 0.51159 1.02209 0.0
C335 C 0.14323 0.56368 1.03978 0.0
H336 H 0.18317 0.44591 1.00623 0.0
C337 C 0.20685 0.58939 0.05546 0.0
H338 H 0.08926 0.49225 1.00934 0.0
C339 C 0.2614 0.56363 0.05365 0.0
C340 C 0.25509 0.51214 1.03581 0.0
H341 H 0.21496 0.63054 0.06914 0.0
H342 H 0.30818 0.58361 0.06641 0.0
C343 C 0.19135 0.48658 1.02004 0.0
C344 C 0.63056 0.19144 0.22407 0.0
C345 C 0.59475 0.13154 0.2073 0.0
H346 H 0.73511 0.29267 0.23601 0.0
C347 C 0.64112 0.13038 0.18888 0.0
H348 H 0.59612 0.19514 0.23824 0.0
C349 C 0.72083 0.1882 0.18718 0.0
C350 C 0.7567 0.24866 0.20392 0.0
H351 H 0.61508 0.0869 0.17526 0.0
H352 H 0.75457 0.18492 0.17275 0.0
C353 C 0.71009 0.24861 0.22251 0.0
C354 C 0.52665 0.63166 0.35616 0.0
C355 C 0.47814 0.58593 0.37455 0.0
H356 H 0.58661 0.74439 0.33978 0.0
C357 C 0.45341 0.62215 0.391 0.0
H358 H 0.54472 0.60534 0.34278 0.0
C359 C 0.47607 0.70147 0.38917 0.0
C360 C 0.52361 0.74743 0.3706 0.0
H361 H 0.41463 0.58827 0.40516 0.0
H362 H 0.45654 0.72683 0.40244 0.0
C363 C 0.54882 0.71114 0.35417 0.0
C364 C 0.90446 0.51598 0.52229 0.0
C365 C 0.90145 0.46675 0.54048 0.0
H366 H 0.85228 0.57746 0.50639 0.0
C367 C 0.84067 0.44219 0.5571 0.0
H368 H 0.94875 0.53397 0.50879 0.0
C369 C 0.78448 0.46593 0.55565 0.0
C370 C 0.78633 0.51428 0.53727 0.0
H371 H 0.83566 0.40288 0.57112 0.0
H372 H 0.73978 0.44665 0.56905 0.0
C373 C 0.84756 0.53912 0.52064 0.0
C374 C 0.39816 0.89205 0.69205 0.0
C375 C 0.44502 0.88909 0.71008 0.0
H376 H 0.28439 0.83962 0.67629 0.0
C377 C 0.40941 0.82833 0.72674 0.0
H378 H 0.42394 0.93634 0.67854 0.0
C379 C 0.32939 0.77209 0.72544 0.0
C380 C 0.28249 0.77368 0.70712 0.0
H381 H 0.44424 0.82337 0.74062 0.0
H382 H 0.30434 0.72725 0.73881 0.0
C383 C 0.3183 0.83501 0.69051 0.0
C384 C 0.25592 0.21827 0.95875 0.0
C385 C 0.32478 0.27333 0.97035 0.0
H386 H 0.2065 0.13483 0.9307 0.0
C387 C 0.39738 0.29372 0.96013 0.0
H388 H 0.19898 0.20072 0.96621 0.0
C389 C 0.40154 0.25589 0.94007 0.0
C390 C 0.33327 0.19652 0.92946 0.0
H391 H 0.45159 0.33619 0.96839 0.0
H392 H 0.4589 0.27096 0.93345 0.0
C393 C 0.26014 0.18027 0.93844 0.0
C394 C 0.14324 0.40977 0.13177 0.0
C395 C 0.07732 0.33883 0.13872 0.0
H396 H 0.2396 0.4681 0.10793 0.0
C397 C 0.0527 0.27338 0.12413 0.0
H398 H 0.16404 0.46175 0.14234 0.0
C399 C 0.09603 0.27781 0.10402 0.0
C400 C 0.16504 0.3474 0.09835 0.0
H401 H 1.00266 0.21776 0.12892 0.0
H402 H 0.07819 0.22581 0.09371 0.0
C403 C 0.18693 0.41367 0.11205 0.0
C404 C 0.83964 0.09056 0.27102 0.0
C405 C 0.83069 0.15404 0.26421 0.0
H406 H 0.81301 1.00099 0.29676 0.0
C407 C 0.77859 0.16914 0.27669 0.0
H408 H 0.8801 0.07826 0.26174 0.0
C409 C 0.73948 0.12465 0.29641 0.0
C410 C 0.75257 0.06464 0.3045 0.0
H411 H 0.77076 0.21778 0.27178 0.0
H412 H 0.70246 0.14054 0.30616 0.0
C413 C 0.80096 0.04621 0.29103 0.0
C414 C 0.76451 0.83206 0.4382 0.0
C415 C 0.69203 0.82291 0.43108 0.0
H416 H 0.82695 0.806 0.46435 0.0
C417 C 0.62439 0.77125 0.44351 0.0
H418 H 0.81761 0.87223 0.42895 0.0
C419 C 0.62932 0.73272 0.46347 0.0
C420 C 0.70238 0.74591 0.47182 0.0
H421 H 0.56787 0.76331 0.43837 0.0
H422 H 0.57603 0.69597 0.47315 0.0
C423 C 0.76971 0.79392 0.45843 0.0
C424 C 0.94551 0.74638 0.60502 0.0
C425 C 0.87788 0.6767 0.59863 0.0
H426 H 0.03763 0.80455 0.63034 0.0
C427 C 0.85755 0.60872 0.61151 0.0
H428 H 0.96208 0.79972 0.59541 0.0
C429 C 0.90121 0.6109 0.63114 0.0
C430 C 0.96564 0.68163 0.6388 0.0
H431 H 0.80582 0.55423 0.6069 0.0
H432 H 0.88139 0.55765 0.64114 0.0
C433 C 0.9889 0.74895 0.62498 0.0
C434 C 0.17074 0.90683 0.8062 0.0
C435 C 0.25247 0.95302 0.80818 0.0
H436 H 0.07346 0.82584 0.78561 0.0
C437 C 0.29922 0.96009 0.7887 0.0
H438 H 0.13334 0.8999 0.82097 0.0
C439 C 0.26446 0.91734 0.76811 0.0
C440 C 0.18283 0.86652 0.76701 0.0
H441 H 0.36246 0.99417 0.78995 0.0
H442 H 0.3016 0.9197 0.75382 0.0
C443 C 0.13647 0.8641 0.78597 0.0
C444 C 0.77577 0.74352 0.96586 0.0
C445 C 0.73852 0.67678 0.95151 0.0
H446 H 0.85168 0.79852 0.99543 0.0
C447 C 0.74284 0.61039 0.9582 0.0
H448 H 0.77423 0.7959 0.96128 0.0
C449 C 0.78839 0.61279 0.97734 0.0
C450 C 0.82951 0.68089 0.99066 0.0
H451 H 0.71499 0.55774 0.94779 0.0
H452 H 0.79378 0.56202 0.98125 0.0
C453 C 0.82053 0.74535 0.98536 0.0
C454 C 0.13411 0.73446 0.12575 0.0
C455 C 0.06993 0.74152 0.11797 0.0
H456 H 0.23015 0.77305 0.14979 0.0
C457 C 0.04781 0.78706 0.1314 0.0
H458 H 0.15306 0.69993 0.11604 0.0
C459 C 0.09212 0.82855 0.15107 0.0
C460 C 0.15952 0.82565 0.15753 0.0
H461 H 0.99931 0.79456 0.12592 0.0
H462 H 0.07641 0.86636 0.16037 0.0
C463 C 0.17865 0.77654 0.14509 0.0
C464 C 0.27614 0.04425 0.29775 0.0
C465 C 0.34324 0.0677 0.28375 0.0
H466 H 0.2262 0.07041 0.32753 0.0
C467 C 0.41448 0.13189 0.29126 0.0
H468 H 0.22017 0.99563 0.29251 0.0
C469 C 0.41734 0.17501 0.31096 0.0
C470 C 0.34958 0.15445 0.32405 0.0
H471 H 0.46757 0.15184 0.28114 0.0
H472 H 0.47221 0.22654 0.31547 0.0
C473 C 0.2794 0.08715 0.31778 0.0
C474 C 0.24374 0.26446 0.46463 0.0
C475 C 0.29075 0.33228 0.45131 0.0
H476 H 0.1637 0.2138 0.49362 0.0
C477 C 0.29987 0.40365 0.45934 0.0
H478 H 0.23465 0.20839 0.45896 0.0
C479 C 0.25847 0.40625 0.47886 0.0
C480 C 0.20791 0.33797 0.49121 0.0
H481 H 0.33557 0.45723 0.44971 0.0
H482 H 0.26348 0.46142 0.48375 0.0
C483 C 0.20279 0.26737 0.48444 0.0
C484 C 0.89694 0.28352 0.62415 0.0
C485 C 0.96385 0.27998 0.61729 0.0
H486 H 0.79943 0.24269 0.64767 0.0
C487 C 0.98884 0.23872 0.63181 0.0
H488 H 0.8757 0.31481 0.61363 0.0
C489 C 0.94508 0.19808 0.65171 0.0
C490 C 0.87517 0.19724 0.65727 0.0
H491 H 0.0396 0.23414 0.6271 0.0
H492 H 0.96335 0.1637 0.66193 0.0
C493 C 0.85282 0.242 0.64366 0.0
C494 C 0.62611 0.85361 0.813 0.0
C495 C 0.69401 0.86755 0.82499 0.0
H496 H 0.57725 0.8823 0.78381 0.0
C497 C 0.76679 0.92913 0.81751 0.0
H498 H 0.56944 0.80612 0.81831 0.0
C499 C 0.77178 0.97284 0.7974 0.0
C500 C 0.70395 0.95546 0.78447 0.0
H501 H 0.82007 0.9404 0.82639 0.0
H502 H 0.82905 0.01656 0.79116 0.0
C503 C 0.63085 0.89738 0.79317 0.0
C504 C 0.38997 0.22963 0.14918 0.0
C505 C 0.38956 0.15839 0.14744 0.0
H506 H 0.39074 0.32523 0.13099 0.0
C507 C 0.39236 0.13057 0.12511 0.0
H508 H 0.3881 0.2529 0.16613 0.0
C509 C 0.39282 0.17151 0.10502 0.0
C510 C 0.392 0.24211 0.10673 0.0
H511 H 0.39179 0.07586 0.12313 0.0
H512 H 0.39291 0.14726 0.08807 0.0
C513 C 0.39196 0.2714 0.12906 0.0
C514 C 0.1323 0.38305 0.29771 0.0
C515 C 0.16142 0.38342 0.27529 0.0
H516 H 0.14814 0.37951 0.33472 0.0
C517 C 0.2335 0.38507 0.2733 0.0
H518 H 0.07681 0.38131 0.29983 0.0
C519 C 0.27491 0.38516 0.29323 0.0
C520 C 0.24459 0.38213 0.31565 0.0
H521 H 0.25774 0.38557 0.25627 0.0
H522 H 0.32955 0.38522 0.29104 0.0
C523 C 0.17306 0.38164 0.31768 0.0
C524 C 0.7621 0.12235 0.46338 0.0
C525 C 0.79133 0.15158 0.44097 0.0
H526 H 0.78051 0.13769 0.50039 0.0
C527 C 0.86173 0.22332 0.43901 0.0
H528 H 0.70836 0.0671 0.46547 0.0
C529 C 0.90255 0.26432 0.45896 0.0
C530 C 0.87473 0.2339 0.48137 0.0
H531 H 0.88583 0.24764 0.42198 0.0
H532 H 0.95711 0.31875 0.45681 0.0
C533 C 0.80373 0.16268 0.48336 0.0
C534 C 0.64604 0.8518 0.60602 0.0
C535 C 0.64678 0.78112 0.60809 0.0
H536 H 0.64596 0.9472 0.62373 0.0
C537 C 0.6444 0.75093 0.63052 0.0
H538 H 0.64753 0.8766 0.58897 0.0
C539 C 0.64449 0.79201 0.65042 0.0
C540 C 0.64556 0.86358 0.64836 0.0
H541 H 0.64524 0.69695 0.63273 0.0
H542 H 0.64484 0.76812 0.66748 0.0
C543 C 0.64474 0.89219 0.62592 0.0
C544 C 0.90585 0.63949 0.79739 0.0
C545 C 0.87479 0.63768 0.77507 0.0
H546 H 0.89292 0.64473 0.83451 0.0
C547 C 0.80336 0.63727 0.77341 0.0
H548 H 0.96118 0.6407 0.79924 0.0
C549 C 0.76383 0.63851 0.79356 0.0
C550 C 0.79545 0.64178 0.81588 0.0
H551 H 0.77789 0.63604 0.75649 0.0
H552 H 0.7091 0.63847 0.7916 0.0
C553 C 0.86699 0.64231 0.81758 0.0
C554 C 0.17807 0.76466 0.96357 0.0
C555 C 0.17773 0.80307 0.98412 0.0
H556 H 0.22462 0.77467 0.92917 0.0
C557 C 0.22909 0.88439 0.98555 0.0
H558 H 0.13982 0.70227 0.96183 0.0
C559 C 0.27817 0.92626 0.96676 0.0
C560 C 0.27753 0.88794 0.94606 0.0
H561 H 0.23061 0.91622 1.00109 0.0
H562 H 0.31522 0.98889 0.96828 0.0
C563 C 0.22734 0.80641 0.94486 0.0
C564 C 0.18394 0.0632 0.0636 0.0
C565 C 0.15642 0.09423 0.04652 0.0
H566 H 0.16832 0.9605 0.08043 0.0
C567 C 0.08507 0.04731 1.03518 0.0
H568 H 0.23826 0.09962 0.07281 0.0
C569 C 0.04499 0.96721 1.03936 0.0
C570 C 0.07671 0.93518 0.05492 0.0
H571 H 0.06348 0.07164 1.02207 0.0
H572 H 0.99296 0.93015 1.02923 0.0
C573 C 0.14389 0.984 0.06795 0.0
C574 C 0.1779 0.14274 0.23262 0.0
C575 C 0.15881 0.07592 0.21951 0.0
H576 H 0.15744 0.23726 0.23789 0.0
C577 C 0.09471 0.04518 0.20412 0.0
H578 H 0.22603 0.1663 0.245 0.0
C579 C 0.05486 0.08583 0.20025 0.0
C580 C 0.08 0.1568 0.21169 0.0
H581 H 0.07922 0.99336 0.19396 0.0
H582 H 1.00844 0.06489 0.18734 0.0
C583 C 0.13904 0.18336 0.22855 0.0
C584 C 0.04967 0.17139 0.39905 0.0
C585 C 0.09859 0.15159 0.38673 0.0
H586 H 0.93401 0.15105 0.4034 0.0
C587 C 0.06642 0.08668 0.37182 0.0
H588 H 0.07316 0.22012 0.41108 0.0
C589 C 0.986 0.04645 0.36765 0.0
C590 C 0.93903 0.07205 0.37828 0.0
H591 H 0.10359 0.07054 0.36226 0.0
H592 H 0.96148 0.99919 0.35512 0.0
C593 C 0.97032 0.13219 0.39466 0.0
C594 C 0.8893 0.04019 0.56644 0.0
C595 C 0.95794 0.08864 0.55394 0.0
H596 H 0.79437 0.92497 0.57122 0.0
C597 C 0.99121 0.05624 0.53926 0.0
H598 H 0.86368 0.06391 0.57829 0.0
C599 C 0.95149 0.97604 0.53543 0.0
C600 C 0.87889 0.92945 0.54619 0.0
H601 H 0.04447 0.09306 0.52957 0.0
H602 H 0.97449 0.95136 0.523 0.0
C603 C 0.84962 0.96099 0.56241 0.0
C604 C 0.88589 0.84338 0.68992 0.0
C605 C 0.95498 0.86364 0.70223 0.0
H606 H 0.7913 0.86469 0.68514 0.0
C607 C 0.98929 0.93014 0.7165 0.0
H608 H 0.85948 0.7934 0.67837 0.0
C609 C 0.95025 0.97155 0.72015 0.0
C610 C 0.87729 0.94566 0.70961 0.0
H611 H 0.04296 0.94669 0.72602 0.0
H612 H 0.97404 0.01988 0.73231 0.0
C613 C 0.84692 0.88391 0.69377 0.0
C614 C 0.05178 0.95807 0.87674 0.0
C615 C 0.09261 0.92803 0.88924 0.0
H616 H 0.93948 0.94281 0.86802 0.0
C617 C 0.0548 0.87223 0.90679 0.0
H618 H 0.08053 1.00319 0.86359 0.0
C619 C 0.97475 0.83936 0.90962 0.0
C620 C 0.93241 0.86154 0.8947 0.0
H621 H 0.08591 0.85059 0.91725 0.0
H622 H 0.94507 0.79187 0.92203 0.0
C623 C 0.97146 0.92462 0.87944 0.0
loop_
_geom_bond_atom_site_label_1
_geom_bond_atom_site_label_2
_geom_bond_distance
_geom_bond_site_symmetry_2
_ccdc_geom_bond_type
Fe0 O2 1.918 1_556 S
Fe0 O5 1.997 1_556 S
Fe0 O6 2.003 . S
Fe0 O11 1.976 . S
Fe0 O14 1.996 . S
Fe1 O2 1.918 . S
Fe1 O9 1.997 . S
Fe1 O12 1.996 1_554 S
Fe1 O16 1.977 . S
Fe1 O19 2.002 . S
O2 Fe0 1.918 1_554 S
O2 Fe1 1.918 . S
O2 Fe3 1.918 . S
Fe3 O2 1.918 . S
Fe3 O4 2.002 . S
Fe3 O13 1.976 . S
Fe3 O17 1.996 . S
Fe3 O20 1.997 . S
O4 Fe3 2.002 . S
O4 C21 1.295 . S
O5 Fe0 1.997 1_554 S
O5 C21 1.235 . S
O6 Fe0 2.003 . S
O6 C7 1.293 1_556 S
C7 O6 1.293 1_554 S
C7 O9 1.235 . S
C8 O13 1.287 . S
C8 O14 1.255 1_554 S
O9 Fe1 1.997 . S
O9 C7 1.235 . S
C10 O16 1.293 . S
C10 O17 1.255 . S
O11 Fe0 1.976 . S
O11 C18 1.287 . S
O12 Fe1 1.996 1_556 S
O12 C18 1.255 . S
O13 Fe3 1.976 . S
O13 C8 1.287 . S
O14 Fe0 1.996 . S
O14 C8 1.255 1_556 S
C15 O19 1.295 . S
C15 O20 1.235 . S
O16 Fe1 1.977 . S
O16 C10 1.293 . S
O17 Fe3 1.996 . S
O17 C10 1.255 . S
C18 O11 1.287 . S
C18 O12 1.255 . S
O19 Fe1 2.002 . S
O19 C15 1.295 . S
O20 Fe3 1.997 . S
O20 C15 1.235 . S
C21 O4 1.295 . S
C21 O5 1.235 . S
Fe22 O24 1.918 . S
Fe22 O27 1.997 1_655 S
Fe22 O28 2.002 . S
Fe22 O33 1.976 . S
Fe22 O36 1.996 . S
Fe23 O24 1.918 . S
Fe23 O31 1.997 . S
Fe23 O34 1.996 . S
Fe23 O38 1.976 . S
Fe23 O41 2.002 . S
O24 Fe22 1.918 . S
O24 Fe23 1.918 . S
O24 Fe25 1.918 1_655 S
Fe25 O24 1.918 1_455 S
Fe25 O26 2.002 . S
Fe25 O35 1.976 . S
Fe25 O39 1.996 . S
Fe25 O42 1.997 . S
O26 Fe25 2.002 . S
O26 C43 1.295 . S
O27 Fe22 1.997 1_455 S
O27 C43 1.235 . S
O28 Fe22 2.002 . S
O28 C29 1.295 . S
C29 O28 1.295 . S
C29 O31 1.235 . S
C30 O35 1.287 . S
C30 O36 1.255 1_455 S
O31 Fe23 1.997 . S
O31 C29 1.235 . S
C32 O38 1.287 . S
C32 O39 1.255 1_655 S
O33 Fe22 1.976 . S
O33 C40 1.287 . S
O34 Fe23 1.996 . S
O34 C40 1.255 . S
O35 Fe25 1.976 . S
O35 C30 1.287 . S
O36 Fe22 1.996 . S
O36 C30 1.255 1_655 S
C37 O41 1.295 1_455 S
C37 O42 1.235 . S
O38 Fe23 1.976 . S
O38 C32 1.287 . S
O39 Fe25 1.996 . S
O39 C32 1.255 1_455 S
C40 O33 1.287 . S
C40 O34 1.255 . S
O41 Fe23 2.002 . S
O41 C37 1.295 1_655 S
O42 Fe25 1.997 . S
O42 C37 1.235 . S
C43 O26 1.295 . S
C43 O27 1.235 . S
Fe44 O46 1.918 . S
Fe44 O49 1.997 . S
Fe44 O50 2.002 . S
Fe44 O55 1.976 . S
Fe44 O58 1.996 . S
Fe45 O46 1.918 1_545 S
Fe45 O53 1.997 . S
Fe45 O56 1.996 . S
Fe45 O60 1.976 . S
Fe45 O63 2.002 . S
O46 Fe44 1.918 . S
O46 Fe45 1.918 1_565 S
O46 Fe47 1.918 . S
Fe47 O46 1.918 . S
Fe47 O48 2.002 . S
Fe47 O57 1.976 . S
Fe47 O61 1.996 . S
Fe47 O64 1.997 1_565 S
O48 Fe47 2.002 . S
O48 C65 1.295 . S
O49 Fe44 1.997 . S
O49 C65 1.235 . S
O50 Fe44 2.002 . S
O50 C51 1.295 1_565 S
C51 O50 1.295 1_545 S
C51 O53 1.235 . S
C52 O57 1.287 . S
C52 O58 1.255 . S
O53 Fe45 1.997 . S
O53 C51 1.235 . S
C54 O60 1.287 . S
C54 O61 1.255 1_545 S
O55 Fe44 1.976 . S
O55 C62 1.287 . S
O56 Fe45 1.996 . S
O56 C62 1.255 1_545 S
O57 Fe47 1.976 . S
O57 C52 1.287 . S
O58 Fe44 1.996 . S
O58 C52 1.255 . S
C59 O63 1.295 . S
C59 O64 1.235 . S
O60 Fe45 1.976 . S
O60 C54 1.287 . S
O61 Fe47 1.996 . S
O61 C54 1.255 1_565 S
C62 O55 1.287 . S
C62 O56 1.255 1_565 S
O63 Fe45 2.002 . S
O63 C59 1.295 . S
O64 Fe47 1.997 1_545 S
O64 C59 1.235 . S
C65 O48 1.295 . S
C65 O49 1.235 . S
Fe66 O68 1.918 . S
Fe66 O71 1.997 . S
Fe66 O72 2.002 . S
Fe66 O77 1.976 . S
Fe66 O80 1.996 . S
Fe67 O68 1.918 . S
Fe67 O75 1.997 . S
Fe67 O78 1.996 . S
Fe67 O82 1.976 . S
Fe67 O85 2.002 . S
O68 Fe66 1.918 . S
O68 Fe67 1.918 . S
O68 Fe69 1.918 . S
Fe69 O68 1.918 . S
Fe69 O70 2.002 . S
Fe69 O79 1.976 . S
Fe69 O83 1.996 . S
Fe69 O86 1.997 . S
O70 Fe69 2.002 . S
O70 C87 1.295 . S
O71 Fe66 1.997 . S
O71 C87 1.235 . S
O72 Fe66 2.002 . S
O72 C73 1.295 . S
C73 O72 1.295 . S
C73 O75 1.235 . S
C74 O79 1.287 . S
C74 O80 1.255 . S
O75 Fe67 1.997 . S
O75 C73 1.235 . S
C76 O82 1.287 . S
C76 O83 1.255 . S
O77 Fe66 1.976 . S
O77 C84 1.287 . S
O78 Fe67 1.996 . S
O78 C84 1.255 . S
O79 Fe69 1.976 . S
O79 C74 1.287 . S
O80 Fe66 1.996 . S
O80 C74 1.255 . S
C81 O85 1.295 . S
C81 O86 1.235 . S
O82 Fe67 1.976 . S
O82 C76 1.287 . S
O83 Fe69 1.996 . S
O83 C76 1.255 . S
C84 O77 1.287 . S
C84 O78 1.255 . S
O85 Fe67 2.002 . S
O85 C81 1.295 . S
O86 Fe69 1.997 . S
O86 C81 1.235 . S
C87 O70 1.295 . S
C87 O71 1.235 . S
Fe88 O90 1.918 . S
Fe88 O93 1.997 1_455 S
Fe88 O94 2.002 . S
Fe88 O99 1.976 . S
Fe88 O102 1.996 . S
Fe89 O90 1.918 . S
Fe89 O97 1.997 . S
Fe89 O100 1.996 . S
Fe89 O104 1.976 . S
Fe89 O107 2.002 . S
O90 Fe88 1.918 . S
O90 Fe89 1.918 . S
O90 Fe91 1.918 1_455 S
Fe91 O90 1.918 1_655 S
Fe91 O92 2.002 . S
Fe91 O101 1.976 . S
Fe91 O105 1.996 . S
Fe91 O108 1.997 . S
O92 Fe91 2.002 . S
O92 C109 1.295 . S
O93 Fe88 1.997 1_655 S
O93 C109 1.235 . S
O94 Fe88 2.002 . S
O94 C95 1.295 . S
C95 O94 1.295 . S
C95 O97 1.235 . S
C96 O101 1.287 . S
C96 O102 1.255 1_655 S
O97 Fe89 1.997 . S
O97 C95 1.235 . S
C98 O104 1.287 . S
C98 O105 1.255 1_455 S
O99 Fe88 1.976 . S
O99 C106 1.287 . S
O100 Fe89 1.996 . S
O100 C106 1.255 . S
O101 Fe91 1.976 . S
O101 C96 1.287 . S
O102 Fe88 1.996 . S
O102 C96 1.255 1_455 S
C103 O107 1.295 1_655 S
C103 O108 1.235 . S
O104 Fe89 1.976 . S
O104 C98 1.287 . S
O105 Fe91 1.996 . S
O105 C98 1.255 1_655 S
C106 O99 1.287 . S
C106 O100 1.255 . S
O107 Fe89 2.002 . S
O107 C103 1.295 1_455 S
O108 Fe91 1.997 . S
O108 C103 1.235 . S
C109 O92 1.295 . S
C109 O93 1.235 . S
Fe110 O112 1.918 . S
Fe110 O115 1.997 . S
Fe110 O116 2.002 . S
Fe110 O121 1.976 . S
Fe110 O124 1.996 . S
Fe111 O112 1.918 1_565 S
Fe111 O119 1.997 . S
Fe111 O122 1.996 . S
Fe111 O126 1.976 . S
Fe111 O129 2.002 . S
O112 Fe110 1.918 . S
O112 Fe111 1.918 1_545 S
O112 Fe113 1.918 . S
Fe113 O112 1.918 . S
Fe113 O114 2.002 . S
Fe113 O123 1.976 . S
Fe113 O127 1.996 . S
Fe113 O130 1.997 1_545 S
O114 Fe113 2.002 . S
O114 C131 1.295 . S
O115 Fe110 1.997 . S
O115 C131 1.235 . S
O116 Fe110 2.002 . S
O116 C117 1.295 1_545 S
C117 O116 1.295 1_565 S
C117 O119 1.235 . S
C118 O123 1.287 . S
C118 O124 1.255 . S
O119 Fe111 1.997 . S
O119 C117 1.235 . S
C120 O126 1.287 . S
C120 O127 1.255 1_565 S
O121 Fe110 1.976 . S
O121 C128 1.287 . S
O122 Fe111 1.996 . S
O122 C128 1.255 1_565 S
O123 Fe113 1.976 . S
O123 C118 1.287 . S
O124 Fe110 1.996 . S
O124 C118 1.255 . S
C125 O129 1.295 . S
C125 O130 1.235 . S
O126 Fe111 1.976 . S
O126 C120 1.287 . S
O127 Fe113 1.996 . S
O127 C120 1.255 1_545 S
C128 O121 1.287 . S
C128 O122 1.255 1_545 S
O129 Fe111 2.002 . S
O129 C125 1.295 . S
O130 Fe113 1.997 1_565 S
O130 C125 1.235 . S
C131 O114 1.295 . S
C131 O115 1.235 . S
Fe132 O134 1.918 . S
Fe132 O137 1.997 . S
Fe132 O138 2.002 . S
Fe132 O143 1.976 . S
Fe132 O146 1.996 . S
Fe133 O134 1.918 . S
Fe133 O141 1.997 . S
Fe133 O144 1.996 . S
Fe133 O148 1.976 . S
Fe133 O151 2.002 . S
O134 Fe132 1.918 . S
O134 Fe133 1.918 . S
O134 Fe135 1.918 . S
Fe135 O134 1.918 . S
Fe135 O136 2.002 . S
Fe135 O145 1.976 . S
Fe135 O149 1.996 . S
Fe135 O152 1.997 . S
O136 Fe135 2.002 . S
O136 C153 1.295 . S
O137 Fe132 1.997 . S
O137 C153 1.235 . S
O138 Fe132 2.002 . S
O138 C139 1.295 . S
C139 O138 1.295 . S
C139 O141 1.235 . S
C140 O145 1.287 . S
C140 O146 1.255 . S
O141 Fe133 1.997 . S
O141 C139 1.235 . S
C142 O148 1.287 . S
C142 O149 1.255 . S
O143 Fe132 1.976 . S
O143 C150 1.287 . S
O144 Fe133 1.996 . S
O144 C150 1.255 . S
O145 Fe135 1.976 . S
O145 C140 1.287 . S
O146 Fe132 1.996 . S
O146 C140 1.255 . S
C147 O151 1.295 . S
C147 O152 1.235 . S
O148 Fe133 1.976 . S
O148 C142 1.287 . S
O149 Fe135 1.996 . S
O149 C142 1.255 . S
C150 O143 1.287 . S
C150 O144 1.255 . S
O151 Fe133 2.002 . S
O151 C147 1.295 . S
O152 Fe135 1.997 . S
O152 C147 1.235 . S
C153 O136 1.295 . S
C153 O137 1.235 . S
Fe154 O156 1.918 1_455 S
Fe154 O159 1.997 . S
Fe154 O160 2.002 . S
Fe154 O165 1.976 . S
Fe154 O168 1.996 1_556 S
Fe155 O156 1.918 . S
Fe155 O163 1.997 1_655 S
Fe155 O166 1.996 . S
Fe155 O170 1.976 . S
Fe155 O173 2.002 . S
O156 Fe154 1.918 1_655 S
O156 Fe155 1.918 . S
O156 Fe157 1.908 1_556 S
Fe157 O156 1.908 1_554 S
Fe157 O158 2.001 1_554 S
Fe157 O167 1.999 . S
Fe157 O171 1.999 . S
Fe157 O174 1.974 1_554 S
O158 Fe157 2.001 1_556 S
O158 C175 1.295 1_655 S
O159 Fe154 1.997 . S
O159 C175 1.235 . S
O160 Fe154 2.002 . S
O160 C161 1.295 . S
C161 O160 1.295 . S
C161 O163 1.235 . S
C162 O167 1.287 . S
C162 O168 1.255 1_655 S
O163 Fe155 1.997 1_455 S
O163 C161 1.235 . S
C164 O170 1.287 . S
C164 O171 1.255 1_556 S
O165 Fe154 1.976 . S
O165 C172 1.287 . S
O166 Fe155 1.996 . S
O166 C172 1.255 1_655 S
O167 Fe157 1.999 . S
O167 C162 1.287 . S
O168 Fe154 1.996 1_554 S
O168 C162 1.255 1_455 S
C169 O173 1.295 . S
C169 O174 1.235 . S
O170 Fe155 1.976 . S
O170 C164 1.287 . S
O171 Fe157 1.999 . S
O171 C164 1.255 1_554 S
C172 O165 1.287 . S
C172 O166 1.255 1_455 S
O173 Fe155 2.002 . S
O173 C169 1.295 . S
O174 Fe157 1.974 1_556 S
O174 C169 1.235 . S
C175 O158 1.295 1_455 S
C175 O159 1.235 . S
Fe176 O178 1.918 1_545 S
Fe176 O181 1.997 . S
Fe176 O182 2.002 . S
Fe176 O187 1.976 . S
Fe176 O190 1.996 . S
Fe177 O178 1.918 . S
Fe177 O185 1.997 1_565 S
Fe177 O188 1.996 . S
Fe177 O192 1.976 . S
Fe177 O195 2.002 . S
O178 Fe176 1.918 1_565 S
O178 Fe177 1.918 . S
O178 Fe179 1.918 . S
Fe179 O178 1.918 . S
Fe179 O180 2.002 . S
Fe179 O189 1.976 . S
Fe179 O193 1.996 . S
Fe179 O196 1.997 . S
O180 Fe179 2.002 . S
O180 C197 1.295 1_565 S
O181 Fe176 1.997 . S
O181 C197 1.235 . S
O182 Fe176 2.002 . S
O182 C183 1.295 . S
C183 O182 1.295 . S
C183 O185 1.235 . S
C184 O189 1.287 . S
C184 O190 1.255 1_565 S
O185 Fe177 1.997 1_545 S
O185 C183 1.235 . S
C186 O192 1.287 . S
C186 O193 1.255 . S
O187 Fe176 1.976 . S
O187 C194 1.287 . S
O188 Fe177 1.996 . S
O188 C194 1.255 1_565 S
O189 Fe179 1.976 . S
O189 C184 1.287 . S
O190 Fe176 1.996 . S
O190 C184 1.255 1_545 S
C191 O195 1.295 . S
C191 O196 1.235 . S
O192 Fe177 1.976 . S
O192 C186 1.287 . S
O193 Fe179 1.996 . S
O193 C186 1.255 . S
C194 O187 1.287 . S
C194 O188 1.255 1_545 S
O195 Fe177 2.002 . S
O195 C191 1.295 . S
O196 Fe179 1.997 . S
O196 C191 1.235 . S
C197 O180 1.295 1_545 S
C197 O181 1.235 . S
Fe198 O200 1.918 . S
Fe198 O203 1.997 . S
Fe198 O204 2.002 . S
Fe198 O209 1.976 . S
Fe198 O212 1.996 . S
Fe199 O200 1.918 . S
Fe199 O207 1.997 . S
Fe199 O210 1.996 . S
Fe199 O214 1.976 . S
Fe199 O217 2.002 . S
O200 Fe198 1.918 . S
O200 Fe199 1.918 . S
O200 Fe201 1.918 . S
Fe201 O200 1.918 . S
Fe201 O202 2.002 . S
Fe201 O211 1.976 . S
Fe201 O215 1.996 . S
Fe201 O218 1.997 . S
O202 Fe201 2.002 . S
O202 C219 1.295 . S
O203 Fe198 1.997 . S
O203 C219 1.235 . S
O204 Fe198 2.002 . S
O204 C205 1.295 . S
C205 O204 1.295 . S
C205 O207 1.235 . S
C206 O211 1.287 . S
C206 O212 1.255 . S
O207 Fe199 1.997 . S
O207 C205 1.235 . S
C208 O214 1.287 . S
C208 O215 1.255 . S
O209 Fe198 1.976 . S
O209 C216 1.287 . S
O210 Fe199 1.996 . S
O210 C216 1.255 . S
O211 Fe201 1.976 . S
O211 C206 1.287 . S
O212 Fe198 1.996 . S
O212 C206 1.255 . S
C213 O217 1.295 . S
C213 O218 1.235 . S
O214 Fe199 1.976 . S
O214 C208 1.287 . S
O215 Fe201 1.996 . S
O215 C208 1.255 . S
C216 O209 1.287 . S
C216 O210 1.255 . S
O217 Fe199 2.002 . S
O217 C213 1.295 . S
O218 Fe201 1.997 . S
O218 C213 1.235 . S
C219 O202 1.295 . S
C219 O203 1.235 . S
Fe220 O222 1.918 . S
Fe220 O225 1.997 1_455 S
Fe220 O226 2.002 . S
Fe220 O231 1.976 . S
Fe220 O234 1.996 . S
Fe221 O222 1.918 . S
Fe221 O229 1.997 . S
Fe221 O232 1.996 . S
Fe221 O236 1.976 . S
Fe221 O239 2.002 . S
O222 Fe220 1.918 . S
O222 Fe221 1.918 . S
O222 Fe223 1.918 1_455 S
Fe223 O222 1.918 1_655 S
Fe223 O224 2.002 . S
Fe223 O233 1.976 . S
Fe223 O237 1.996 . S
Fe223 O240 1.997 . S
O224 Fe223 2.002 . S
O224 C241 1.295 . S
O225 Fe220 1.997 1_655 S
O225 C241 1.235 . S
O226 Fe220 2.002 . S
O226 C227 1.295 . S
C227 O226 1.295 . S
C227 O229 1.235 . S
C228 O233 1.287 . S
C228 O234 1.255 1_655 S
O229 Fe221 1.997 . S
O229 C227 1.235 . S
C230 O236 1.287 . S
C230 O237 1.255 1_455 S
O231 Fe220 1.976 . S
O231 C238 1.287 . S
O232 Fe221 1.996 . S
O232 C238 1.255 . S
O233 Fe223 1.976 . S
O233 C228 1.287 . S
O234 Fe220 1.996 . S
O234 C228 1.255 1_455 S
C235 O239 1.295 1_655 S
C235 O240 1.235 . S
O236 Fe221 1.976 . S
O236 C230 1.287 . S
O237 Fe223 1.996 . S
O237 C230 1.255 1_655 S
C238 O231 1.287 . S
C238 O232 1.255 . S
O239 Fe221 2.002 . S
O239 C235 1.295 1_455 S
O240 Fe223 1.997 . S
O240 C235 1.235 . S
C241 O224 1.295 . S
C241 O225 1.235 . S
Fe242 O244 1.918 1_565 S
Fe242 O247 1.997 . S
Fe242 O248 2.002 . S
Fe242 O253 1.976 . S
Fe242 O256 1.996 . S
Fe243 O244 1.918 . S
Fe243 O251 1.997 1_545 S
Fe243 O254 1.996 . S
Fe243 O258 1.976 . S
Fe243 O261 2.002 . S
O244 Fe242 1.918 1_545 S
O244 Fe243 1.918 . S
O244 Fe245 1.918 . S
Fe245 O244 1.918 . S
Fe245 O246 2.002 . S
Fe245 O255 1.976 . S
Fe245 O259 1.996 . S
Fe245 O262 1.997 . S
O246 Fe245 2.002 . S
O246 C263 1.295 1_545 S
O247 Fe242 1.997 . S
O247 C263 1.235 . S
O248 Fe242 2.002 . S
O248 C249 1.295 . S
C249 O248 1.295 . S
C249 O251 1.235 . S
C250 O255 1.287 . S
C250 O256 1.255 1_545 S
O251 Fe243 1.997 1_565 S
O251 C249 1.235 . S
C252 O258 1.287 . S
C252 O259 1.255 . S
O253 Fe242 1.976 . S
O253 C260 1.287 . S
O254 Fe243 1.996 . S
O254 C260 1.255 1_545 S
O255 Fe245 1.976 . S
O255 C250 1.287 . S
O256 Fe242 1.996 . S
O256 C250 1.255 1_565 S
C257 O261 1.295 . S
C257 O262 1.235 . S
O258 Fe243 1.976 . S
O258 C252 1.287 . S
O259 Fe245 1.996 . S
O259 C252 1.255 . S
C260 O253 1.287 . S
C260 O254 1.255 1_565 S
O261 Fe243 2.002 . S
O261 C257 1.295 . S
O262 Fe245 1.997 . S
O262 C257 1.235 . S
C263 O246 1.295 1_565 S
C263 O247 1.235 . S
C264 C265 1.387 . S
C264 H268 0.950 . S
C264 C273 1.390 . S
C265 C264 1.387 . S
C265 C267 1.387 1_554 S
H266 C273 0.950 . S
C267 C265 1.387 1_556 S
C267 C269 1.390 . S
C267 H271 0.950 . S
H268 C264 0.950 . S
C269 C267 1.390 . S
C269 C270 1.387 1_556 S
C269 H272 0.950 . S
C270 C269 1.387 1_554 S
C270 C273 1.387 . S
H271 C267 0.950 . S
H272 C269 0.950 . S
C273 C264 1.390 . S
C273 H266 0.950 . S
C273 C270 1.387 . S
C274 C275 1.387 . S
C274 H278 0.950 . S
C274 C283 1.390 . S
C275 C274 1.387 . S
C275 C277 1.387 . S
H276 C283 0.950 . S
C277 C275 1.387 . S
C277 C279 1.390 . S
C277 H281 0.950 . S
H278 C274 0.950 . S
C279 C277 1.390 . S
C279 C280 1.387 . S
C279 H282 0.950 . S
C280 C279 1.387 . S
C280 C283 1.387 . S
H281 C277 0.950 . S
H282 C279 0.950 . S
C283 C274 1.390 . S
C283 H276 0.950 . S
C283 C280 1.387 . S
C284 C285 1.387 . S
C284 H288 0.950 . S
C284 C293 1.390 . S
C285 C284 1.387 . S
C285 C287 1.387 . S
H286 C293 0.950 . S
C287 C285 1.387 . S
C287 C289 1.390 . S
C287 H291 0.950 . S
H288 C284 0.950 . S
C289 C287 1.390 . S
C289 C290 1.387 . S
C289 H292 0.950 . S
C290 C289 1.387 . S
C290 C293 1.387 . S
H291 C287 0.950 . S
H292 C289 0.950 . S
C293 C284 1.390 . S
C293 H286 0.950 . S
C293 C290 1.387 . S
C294 C295 1.387 . S
C294 H298 0.950 . S
C294 C303 1.390 . S
C295 C294 1.387 . S
C295 C297 1.387 . S
H296 C303 0.950 . S
C297 C295 1.387 . S
C297 C299 1.390 . S
C297 H301 0.950 . S
H298 C294 0.950 . S
C299 C297 1.390 . S
C299 C300 1.387 . S
C299 H302 0.950 . S
C300 C299 1.387 . S
C300 C303 1.387 . S
H301 C297 0.950 . S
H302 C299 0.950 . S
C303 C294 1.390 . S
C303 H296 0.950 . S
C303 C300 1.387 . S
C304 C305 1.387 . S
C304 H308 0.950 . S
C304 C313 1.390 . S
C305 C304 1.387 . S
C305 C307 1.387 . S
H306 C313 0.950 . S
C307 C305 1.387 . S
C307 C309 1.390 . S
C307 H311 0.950 . S
H308 C304 0.950 . S
C309 C307 1.390 . S
C309 C310 1.387 . S
C309 H312 0.950 . S
C310 C309 1.387 . S
C310 C313 1.387 . S
H311 C307 0.950 . S
H312 C309 0.950 . S
C313 C304 1.390 . S
C313 H306 0.950 . S
C313 C310 1.387 . S
C314 C315 1.387 . S
C314 H318 0.950 . S
C314 C323 1.390 . S
C315 C314 1.387 . S
C315 C317 1.387 . S
H316 C323 0.950 . S
C317 C315 1.387 . S
C317 C319 1.390 . S
C317 H321 0.950 . S
H318 C314 0.950 . S
C319 C317 1.390 . S
C319 C320 1.387 . S
C319 H322 0.950 . S
C320 C319 1.387 . S
C320 C323 1.387 . S
H321 C317 0.950 . S
H322 C319 0.950 . S
C323 C314 1.390 . S
C323 H316 0.950 . S
C323 C320 1.387 . S
C324 C325 1.387 . S
C324 H328 0.950 . S
C324 C333 1.390 . S
C325 C324 1.387 . S
C325 C327 1.387 . S
H326 C333 0.950 . S
C327 C325 1.387 . S
C327 C329 1.390 . S
C327 H331 0.950 . S
H328 C324 0.950 . S
C329 C327 1.390 . S
C329 C330 1.387 . S
C329 H332 0.950 . S
C330 C329 1.387 . S
C330 C333 1.387 . S
H331 C327 0.950 . S
H332 C329 0.950 . S
C333 C324 1.390 . S
C333 H326 0.950 . S
C333 C330 1.387 . S
C334 C335 1.387 . S
C334 H338 0.950 . S
C334 C343 1.390 . S
C335 C334 1.387 . S
C335 C337 1.387 1_556 S
H336 C343 0.950 . S
C337 C335 1.387 1_554 S
C337 C339 1.390 . S
C337 H341 0.950 . S
H338 C334 0.950 . S
C339 C337 1.390 . S
C339 C340 1.387 1_554 S
C339 H342 0.950 . S
C340 C339 1.387 1_556 S
C340 C343 1.387 . S
H341 C337 0.950 . S
H342 C339 0.950 . S
C343 C334 1.390 . S
C343 H336 0.950 . S
C343 C340 1.387 . S
C344 C345 1.387 . S
C344 H348 0.950 . S
C344 C353 1.390 . S
C345 C344 1.387 . S
C345 C347 1.387 . S
H346 C353 0.950 . S
C347 C345 1.387 . S
C347 C349 1.390 . S
C347 H351 0.950 . S
H348 C344 0.950 . S
C349 C347 1.390 . S
C349 C350 1.387 . S
C349 H352 0.950 . S
C350 C349 1.387 . S
C350 C353 1.387 . S
H351 C347 0.950 . S
H352 C349 0.950 . S
C353 C344 1.390 . S
C353 H346 0.950 . S
C353 C350 1.387 . S
C354 C355 1.387 . S
C354 H358 0.950 . S
C354 C363 1.390 . S
C355 C354 1.387 . S
C355 C357 1.387 . S
H356 C363 0.950 . S
C357 C355 1.387 . S
C357 C359 1.390 . S
C357 H361 0.950 . S
H358 C354 0.950 . S
C359 C357 1.390 . S
C359 C360 1.387 . S
C359 H362 0.950 . S
C360 C359 1.387 . S
C360 C363 1.387 . S
H361 C357 0.950 . S
H362 C359 0.950 . S
C363 C354 1.390 . S
C363 H356 0.950 . S
C363 C360 1.387 . S
C364 C365 1.387 . S
C364 H368 0.950 . S
C364 C373 1.390 . S
C365 C364 1.387 . S
C365 C367 1.387 . S
H366 C373 0.950 . S
C367 C365 1.387 . S
C367 C369 1.390 . S
C367 H371 0.950 . S
H368 C364 0.950 . S
C369 C367 1.390 . S
C369 C370 1.387 . S
C369 H372 0.950 . S
C370 C369 1.387 . S
C370 C373 1.387 . S
H371 C367 0.950 . S
H372 C369 0.950 . S
C373 C364 1.390 . S
C373 H366 0.950 . S
C373 C370 1.387 . S
C374 C375 1.387 . S
C374 H378 0.950 . S
C374 C383 1.390 . S
C375 C374 1.387 . S
C375 C377 1.387 . S
H376 C383 0.950 . S
C377 C375 1.387 . S
C377 C379 1.390 . S
C377 H381 0.950 . S
H378 C374 0.950 . S
C379 C377 1.390 . S
C379 C380 1.387 . S
C379 H382 0.950 . S
C380 C379 1.387 . S
C380 C383 1.387 . S
H381 C377 0.950 . S
H382 C379 0.950 . S
C383 C374 1.390 . S
C383 H376 0.950 . S
C383 C380 1.387 . S
C384 C385 1.387 . S
C384 H388 0.950 . S
C384 C393 1.390 . S
C385 C384 1.387 . S
C385 C387 1.387 . S
H386 C393 0.950 . S
C387 C385 1.387 . S
C387 C389 1.390 . S
C387 H391 0.950 . S
H388 C384 0.950 . S
C389 C387 1.390 . S
C389 C390 1.387 . S
C389 H392 0.950 . S
C390 C389 1.387 . S
C390 C393 1.387 . S
H391 C387 0.950 . S
H392 C389 0.950 . S
C393 C384 1.390 . S
C393 H386 0.950 . S
C393 C390 1.387 . S
C394 C395 1.387 . S
C394 H398 0.950 . S
C394 C403 1.390 . S
C395 C394 1.387 . S
C395 C397 1.387 . S
H396 C403 0.950 . S
C397 C395 1.387 . S
C397 C399 1.390 . S
C397 H401 0.950 1_455 S
H398 C394 0.950 . S
C399 C397 1.390 . S
C399 C400 1.387 . S
C399 H402 0.950 . S
C400 C399 1.387 . S
C400 C403 1.387 . S
H401 C397 0.950 1_655 S
H402 C399 0.950 . S
C403 C394 1.390 . S
C403 H396 0.950 . S
C403 C400 1.387 . S
C404 C405 1.396 . S
C404 H408 0.944 1_545 S
C404 C413 1.388 1_545 S
C405 C404 1.396 . S
C405 C407 1.387 . S
H406 C413 0.950 . S
C407 C405 1.387 . S
C407 C409 1.390 . S
C407 H411 0.950 . S
H408 C404 0.944 1_565 S
C409 C407 1.390 . S
C409 C410 1.387 . S
C409 H412 0.950 . S
C410 C409 1.387 . S
C410 C413 1.387 1_545 S
H411 C407 0.950 . S
H412 C409 0.950 . S
C413 C404 1.388 1_565 S
C413 H406 0.950 . S
C413 C410 1.387 1_565 S
C414 C415 1.387 . S
C414 H418 0.950 . S
C414 C423 1.390 . S
C415 C414 1.387 . S
C415 C417 1.387 . S
H416 C423 0.950 . S
C417 C415 1.387 . S
C417 C419 1.390 . S
C417 H421 0.950 . S
H418 C414 0.950 . S
C419 C417 1.390 . S
C419 C420 1.387 . S
C419 H422 0.950 . S
C420 C419 1.387 . S
C420 C423 1.387 . S
H421 C417 0.950 . S
H422 C419 0.950 . S
C423 C414 1.390 . S
C423 H416 0.950 . S
C423 C420 1.387 . S
C424 C425 1.387 . S
C424 H428 0.950 . S
C424 C433 1.390 . S
C425 C424 1.387 . S
C425 C427 1.387 . S
H426 C433 0.950 1_455 S
C427 C425 1.387 . S
C427 C429 1.390 . S
C427 H431 0.950 . S
H428 C424 0.950 . S
C429 C427 1.390 . S
C429 C430 1.387 . S
C429 H432 0.950 . S
C430 C429 1.387 . S
C430 C433 1.387 . S
H431 C427 0.950 . S
H432 C429 0.950 . S
C433 C424 1.390 . S
C433 H426 0.950 1_655 S
C433 C430 1.387 . S
C434 C435 1.387 . S
C434 H438 0.950 . S
C434 C443 1.390 . S
C435 C434 1.387 . S
C435 C437 1.387 . S
H436 C443 0.950 . S
C437 C435 1.387 . S
C437 C439 1.390 . S
C437 H441 0.950 1_565 S
H438 C434 0.950 . S
C439 C437 1.390 . S
C439 C440 1.387 . S
C439 H442 0.950 . S
C440 C439 1.387 . S
C440 C443 1.387 . S
H441 C437 0.950 1_545 S
H442 C439 0.950 . S
C443 C434 1.390 . S
C443 H436 0.950 . S
C443 C440 1.387 . S
C444 C445 1.387 . S
C444 H448 0.950 . S
C444 C453 1.390 . S
C445 C444 1.387 . S
C445 C447 1.387 . S
H446 C453 0.950 . S
C447 C445 1.387 . S
C447 C449 1.390 . S
C447 H451 0.950 . S
H448 C444 0.950 . S
C449 C447 1.390 . S
C449 C450 1.387 . S
C449 H452 0.950 . S
C450 C449 1.387 . S
C450 C453 1.387 . S
H451 C447 0.950 . S
H452 C449 0.950 . S
C453 C444 1.390 . S
C453 H446 0.950 . S
C453 C450 1.387 . S
C454 C455 1.387 . S
C454 H458 0.950 1_455 S
C454 C463 1.390 . S
C455 C454 1.387 . S
C455 C457 1.387 . S
H456 C463 0.950 . S
C457 C455 1.387 . S
C457 C459 1.390 . S
C457 H461 0.950 . S
H458 C454 0.950 1_655 S
C459 C457 1.390 . S
C459 C460 1.387 . S
C459 H462 0.950 . S
C460 C459 1.387 . S
C460 C463 1.387 . S
H461 C457 0.950 . S
H462 C459 0.950 . S
C463 C454 1.390 . S
C463 H456 0.950 . S
C463 C460 1.387 . S
C464 C465 1.387 1_565 S
C464 H468 0.950 . S
C464 C473 1.390 1_565 S
C465 C464 1.387 1_545 S
C465 C467 1.387 . S
H466 C473 0.950 . S
C467 C465 1.387 . S
C467 C469 1.390 . S
C467 H471 0.950 . S
H468 C464 0.950 . S
C469 C467 1.390 . S
C469 C470 1.387 . S
C469 H472 0.950 . S
C470 C469 1.387 . S
C470 C473 1.387 . S
H471 C467 0.950 . S
H472 C469 0.950 . S
C473 C464 1.390 1_545 S
C473 H466 0.950 . S
C473 C470 1.387 . S
C474 C475 1.387 . S
C474 H478 0.950 . S
C474 C483 1.390 . S
C475 C474 1.387 . S
C475 C477 1.387 . S
H476 C483 0.950 . S
C477 C475 1.387 . S
C477 C479 1.390 . S
C477 H481 0.950 . S
H478 C474 0.950 . S
C479 C477 1.390 . S
C479 C480 1.387 . S
C479 H482 0.950 . S
C480 C479 1.387 . S
C480 C483 1.387 . S
H481 C477 0.950 . S
H482 C479 0.950 . S
C483 C474 1.390 . S
C483 H476 0.950 . S
C483 C480 1.387 . S
C484 C485 1.387 . S
C484 H488 0.950 1_655 S
C484 C493 1.390 . S
C485 C484 1.387 . S
C485 C487 1.387 . S
H486 C493 0.950 . S
C487 C485 1.387 . S
C487 C489 1.390 . S
C487 H491 0.950 . S
H488 C484 0.950 1_455 S
C489 C487 1.390 . S
C489 C490 1.387 . S
C489 H492 0.950 . S
C490 C489 1.387 . S
C490 C493 1.387 . S
H491 C487 0.950 . S
H492 C489 0.950 . S
C493 C484 1.390 . S
C493 H486 0.950 . S
C493 C490 1.387 . S
C494 C495 1.387 . S
C494 H498 0.950 . S
C494 C503 1.390 . S
C495 C494 1.387 . S
C495 C497 1.387 . S
H496 C503 0.950 . S
C497 C495 1.387 . S
C497 C499 1.390 1_565 S
C497 H501 0.950 1_565 S
H498 C494 0.950 . S
C499 C497 1.390 1_545 S
C499 C500 1.387 1_545 S
C499 H502 0.950 . S
C500 C499 1.387 1_565 S
C500 C503 1.387 . S
H501 C497 0.950 1_545 S
H502 C499 0.950 . S
C503 C494 1.390 . S
C503 H496 0.950 . S
C503 C500 1.387 . S
C504 C505 1.387 . S
C504 H508 0.950 . S
C504 C513 1.390 . S
C505 C504 1.387 . S
C505 C507 1.387 . S
H506 C513 0.950 . S
C507 C505 1.387 . S
C507 C509 1.390 . S
C507 H511 0.950 . S
H508 C504 0.950 . S
C509 C507 1.390 . S
C509 C510 1.387 . S
C509 H512 0.950 . S
C510 C509 1.387 . S
C510 C513 1.387 . S
H511 C507 0.950 . S
H512 C509 0.950 . S
C513 C504 1.390 . S
C513 H506 0.950 . S
C513 C510 1.387 . S
C514 C515 1.387 . S
C514 H518 0.950 . S
C514 C523 1.390 . S
C515 C514 1.387 . S
C515 C517 1.387 . S
H516 C523 0.950 . S
C517 C515 1.387 . S
C517 C519 1.390 . S
C517 H521 0.950 . S
H518 C514 0.950 . S
C519 C517 1.390 . S
C519 C520 1.387 . S
C519 H522 0.950 . S
C520 C519 1.387 . S
C520 C523 1.387 . S
H521 C517 0.950 . S
H522 C519 0.950 . S
C523 C514 1.390 . S
C523 H516 0.950 . S
C523 C520 1.387 . S
C524 C525 1.387 . S
C524 H528 0.950 . S
C524 C533 1.390 . S
C525 C524 1.387 . S
C525 C527 1.387 . S
H526 C533 0.950 . S
C527 C525 1.387 . S
C527 C529 1.390 . S
C527 H531 0.950 . S
H528 C524 0.950 . S
C529 C527 1.390 . S
C529 C530 1.387 . S
C529 H532 0.950 . S
C530 C529 1.387 . S
C530 C533 1.387 . S
H531 C527 0.950 . S
H532 C529 0.950 . S
C533 C524 1.390 . S
C533 H526 0.950 . S
C533 C530 1.387 . S
C534 C535 1.387 . S
C534 H538 0.950 . S
C534 C543 1.390 . S
C535 C534 1.387 . S
C535 C537 1.387 . S
H536 C543 0.950 . S
C537 C535 1.387 . S
C537 C539 1.390 . S
C537 H541 0.950 . S
H538 C534 0.950 . S
C539 C537 1.390 . S
C539 C540 1.387 . S
C539 H542 0.950 . S
C540 C539 1.387 . S
C540 C543 1.387 . S
H541 C537 0.950 . S
H542 C539 0.950 . S
C543 C534 1.390 . S
C543 H536 0.950 . S
C543 C540 1.387 . S
C544 C545 1.387 . S
C544 H548 0.950 . S
C544 C553 1.390 . S
C545 C544 1.387 . S
C545 C547 1.387 . S
H546 C553 0.950 . S
C547 C545 1.387 . S
C547 C549 1.390 . S
C547 H551 0.950 . S
H548 C544 0.950 . S
C549 C547 1.390 . S
C549 C550 1.387 . S
C549 H552 0.950 . S
C550 C549 1.387 . S
C550 C553 1.387 . S
H551 C547 0.950 . S
H552 C549 0.950 . S
C553 C544 1.390 . S
C553 H546 0.950 . S
C553 C550 1.387 . S
C554 C555 1.387 . S
C554 H558 0.950 . S
C554 C563 1.390 . S
C555 C554 1.387 . S
C555 C557 1.387 . S
H556 C563 0.950 . S
C557 C555 1.387 . S
C557 C559 1.390 . S
C557 H561 0.950 . S
H558 C554 0.950 . S
C559 C557 1.390 . S
C559 C560 1.387 . S
C559 H562 0.950 . S
C560 C559 1.387 . S
C560 C563 1.387 . S
H561 C557 0.950 . S
H562 C559 0.950 . S
C563 C554 1.390 . S
C563 H556 0.950 . S
C563 C560 1.387 . S
C564 C565 1.387 . S
C564 H568 0.950 . S
C564 C573 1.390 1_544 S
C565 C564 1.387 . S
C565 C567 1.387 . S
H566 C573 0.950 . S
C567 C565 1.387 . S
C567 C569 1.390 1_544 S
C567 H571 0.950 . S
H568 C564 0.950 . S
C569 C567 1.390 1_566 S
C569 C570 1.387 . S
C569 H572 0.950 1_455 S
C570 C569 1.387 . S
C570 C573 1.387 . S
H571 C567 0.950 . S
H572 C569 0.950 1_655 S
C573 C564 1.390 1_566 S
C573 H566 0.950 . S
C573 C570 1.387 . S
C574 C575 1.387 . S
C574 H578 0.950 . S
C574 C583 1.390 . S
C575 C574 1.387 . S
C575 C577 1.387 . S
H576 C583 0.950 . S
C577 C575 1.387 . S
C577 C579 1.390 . S
C577 H581 0.950 . S
H578 C574 0.950 . S
C579 C577 1.390 . S
C579 C580 1.387 . S
C579 H582 0.950 . S
C580 C579 1.387 . S
C580 C583 1.387 . S
H581 C577 0.950 . S
H582 C579 0.950 . S
C583 C574 1.390 . S
C583 H576 0.950 . S
C583 C580 1.387 . S
C584 C585 1.387 . S
C584 H588 0.950 . S
C584 C593 1.390 1_455 S
C585 C584 1.387 . S
C585 C587 1.387 . S
H586 C593 0.950 . S
C587 C585 1.387 . S
C587 C589 1.390 1_455 S
C587 H591 0.950 . S
H588 C584 0.950 . S
C589 C587 1.390 1_655 S
C589 C590 1.387 . S
C589 H592 0.952 . S
C590 C589 1.387 . S
C590 C593 1.387 . S
H591 C587 0.950 . S
H592 C589 0.952 . S
C593 C584 1.390 1_655 S
C593 H586 0.950 . S
C593 C590 1.387 . S
C594 C595 1.387 . S
C594 H598 0.950 . S
C594 C603 1.390 1_545 S
C595 C594 1.387 . S
C595 C597 1.387 . S
H596 C603 0.950 . S
C597 C595 1.387 . S
C597 C599 1.390 1_545 S
C597 H601 0.950 1_655 S
H598 C594 0.950 . S
C599 C597 1.390 1_565 S
C599 C600 1.387 . S
C599 H602 0.950 . S
C600 C599 1.387 . S
C600 C603 1.387 . S
H601 C597 0.950 1_455 S
H602 C599 0.950 . S
C603 C594 1.390 1_565 S
C603 H596 0.950 . S
C603 C600 1.387 . S
C604 C605 1.387 . S
C604 H608 0.950 . S
C604 C613 1.390 . S
C605 C604 1.387 . S
C605 C607 1.387 . S
H606 C613 0.950 . S
C607 C605 1.387 . S
C607 C609 1.390 . S
C607 H611 0.950 . S
H608 C604 0.950 . S
C609 C607 1.390 . S
C609 C610 1.387 . S
C609 H612 0.950 . S
C610 C609 1.387 . S
C610 C613 1.387 . S
H611 C607 0.950 . S
H612 C609 0.950 . S
C613 C604 1.390 . S
C613 H606 0.950 . S
C613 C610 1.387 . S
C614 C615 1.387 . S
C614 H618 0.939 1_565 S
C614 C623 1.390 1_455 S
C615 C614 1.387 . S
C615 C617 1.387 . S
H616 C623 0.950 . S
C617 C615 1.387 . S
C617 C619 1.390 1_455 S
C617 H621 0.950 . S
H618 C614 0.939 1_545 S
C619 C617 1.390 1_655 S
C619 C620 1.387 . S
C619 H622 0.950 . S
C620 C619 1.387 . S
C620 C623 1.387 . S
H621 C617 0.950 . S
H622 C619 0.950 . S
C623 C614 1.390 1_655 S
C623 H616 0.950 . S
C623 C620 1.387 . S
C265 C164 1.738 1_554 S
C270 C10 1.800 . S
C275 C186 1.738 . S
C280 C30 1.799 . S
C285 C216 1.735 . S
C290 C54 1.798 . S
C295 C238 1.738 . S
C300 C74 1.800 . S
C305 C252 1.737 . S
C310 C96 1.798 . S
C315 C142 1.735 . S
C320 C120 1.798 . S
C325 C150 1.800 . S
C330 C118 1.738 . S
C335 C172 1.799 . S
C340 C8 1.738 1_556 S
C345 C194 1.798 . S
C350 C40 1.735 . S
C355 C206 1.799 . S
C360 C52 1.738 . S
C365 C228 1.799 . S
C370 C84 1.738 . S
C375 C260 1.799 . S
C380 C106 1.738 . S
C385 C18 1.500 . S
C390 C131 1.505 . S
C395 C32 1.503 1_455 S
C400 C21 1.505 . S
C405 C29 1.505 . S
C410 C62 1.501 1_545 S
C415 C65 1.505 . S
C420 C76 1.502 . S
C425 C73 1.506 . S
C430 C98 1.501 1_655 S
C435 C128 1.501 1_565 S
C440 C95 1.506 . S
C445 C140 1.501 . S
C450 C169 1.506 . S
C455 C162 1.502 1_455 S
C460 C191 1.504 . S
C465 C184 1.500 1_545 S
C470 C205 1.506 . S
C475 C208 1.501 . S
C480 C227 1.506 . S
C485 C230 1.503 1_655 S
C490 C257 1.505 . S
C495 C147 1.505 . S
C500 C250 1.503 1_565 S
C505 C183 1.333 . S
C510 C15 1.335 . S
C515 C43 1.333 . S
C520 C219 1.333 . S
C525 C59 1.333 . S
C530 C241 1.333 . S
C535 C87 1.333 . S
C540 C249 1.333 . S
C545 C109 1.333 . S
C550 C139 1.333 . S
C555 C161 1.333 . S
C560 C125 1.333 . S
C565 C7 0.624 . S
C570 C175 0.624 . S
C575 C197 0.627 . S
C580 C37 0.626 . S
C585 C213 0.626 . S
C590 C51 0.625 . S
C595 C235 0.624 . S
C600 C81 0.624 . S
C605 C103 0.627 . S
C610 C263 0.626 . S
C615 C117 0.628 . S
C620 C153 0.629 . S
