# Generated by pormake.
# Topology unl, (4)-cn, num edge types: 1
# Building blocks:
#     Node 0, Type 0, BuildingBlock: KUFVIS_clean_sbu_0, # of connection points: 4
#     Node 1, Type 0, BuildingBlock: KUFVIS_clean_sbu_0, # of connection points: 4
#     Node 2, Type 0, BuildingBlock: KUFVIS_clean_sbu_0, # of connection points: 4
#     Node 3, Type 0, BuildingBlock: KUFVIS_clean_sbu_0, # of connection points: 4
#     Node 4, Type 0, BuildingBlock: KUFVIS_clean_sbu_0, # of connection points: 4
#     Node 5, Type 0, BuildingBlock: KUFVIS_clean_sbu_0, # of connection points: 4
#     Node 6, Type 0, BuildingBlock: KUFVIS_clean_sbu_0, # of connection points: 4
#     Node 7, Type 0, BuildingBlock: KUFVIS_clean_sbu_0, # of connection points: 4
#     Node 8, Type 0, BuildingBlock: KUFVIS_clean_sbu_0, # of connection points: 4
#     Node 9, Type 0, BuildingBlock: KUFVIS_clean_sbu_0, # of connection points: 4
#     Node 10, Type 0, BuildingBlock: KUFVIS_clean_sbu_0, # of connection points: 4
#     Node 11, Type 0, BuildingBlock: KUFVIS_clean_sbu_0, # of connection points: 4
#     Node 12, Type 0, BuildingBlock: KUFVIS_clean_sbu_0, # of connection points: 4
#     Node 13, Type 0, BuildingBlock: KUFVIS_clean_sbu_0, # of connection points: 4
#     Node 14, Type 0, BuildingBlock: KUFVIS_clean_sbu_0, # of connection points: 4
#     Node 15, Type 0, BuildingBlock: KUFVIS_clean_sbu_0, # of connection points: 4
#     Node 16, Type 0, BuildingBlock: KUFVIS_clean_sbu_0, # of connection points: 4
#     Node 17, Type 0, BuildingBlock: KUFVIS_clean_sbu_0, # of connection points: 4
#     Node 18, Type 0, BuildingBlock: KUFVIS_clean_sbu_0, # of connection points: 4
#     Node 19, Type 0, BuildingBlock: KUFVIS_clean_sbu_0, # of connection points: 4
#     Node 20, Type 0, BuildingBlock: KUFVIS_clean_sbu_0, # of connection points: 4
#     Node 21, Type 0, BuildingBlock: KUFVIS_clean_sbu_0, # of connection points: 4
#     Node 22, Type 0, BuildingBlock: KUFVIS_clean_sbu_0, # of connection points: 4
#     Node 23, Type 0, BuildingBlock: KUFVIS_clean_sbu_0, # of connection points: 4
#     Node 24, Type 0, BuildingBlock: KUFVIS_clean_sbu_0, # of connection points: 4
#     Node 25, Type 0, BuildingBlock: KUFVIS_clean_sbu_0, # of connection points: 4
#     Node 26, Type 0, BuildingBlock: KUFVIS_clean_sbu_0, # of connection points: 4
#     Node 27, Type 0, BuildingBlock: KUFVIS_clean_sbu_0, # of connection points: 4
#     Node 28, Type 0, BuildingBlock: KUFVIS_clean_sbu_0, # of connection points: 4
#     Node 29, Type 0, BuildingBlock: KUFVIS_clean_sbu_0, # of connection points: 4
#     Node 30, Type 0, BuildingBlock: KUFVIS_clean_sbu_0, # of connection points: 4
#     Node 31, Type 0, BuildingBlock: KUFVIS_clean_sbu_0, # of connection points: 4
#     Node 32, Type 0, BuildingBlock: KUFVIS_clean_sbu_0, # of connection points: 4
#     Node 33, Type 0, BuildingBlock: KUFVIS_clean_sbu_0, # of connection points: 4
#     Node 34, Type 0, BuildingBlock: KUFVIS_clean_sbu_0, # of connection points: 4
#     Node 35, Type 0, BuildingBlock: KUFVIS_clean_sbu_0, # of connection points: 4
#     Edge 36, Type (0, 0), BuildingBlock: KIFKEQ_clean_linker_1, # of connection points: 2
#     Edge 37, Type (0, 0), BuildingBlock: KIFKEQ_clean_linker_1, # of connection points: 2
#     Edge 38, Type (0, 0), BuildingBlock: KIFKEQ_clean_linker_1, # of connection points: 2
#     Edge 39, Type (0, 0), BuildingBlock: KIFKEQ_clean_linker_1, # of connection points: 2
#     Edge 40, Type (0, 0), BuildingBlock: KIFKEQ_clean_linker_1, # of connection points: 2
#     Edge 41, Type (0, 0), BuildingBlock: KIFKEQ_clean_linker_1, # of connection points: 2
#     Edge 42, Type (0, 0), BuildingBlock: KIFKEQ_clean_linker_1, # of connection points: 2
#     Edge 43, Type (0, 0), BuildingBlock: KIFKEQ_clean_linker_1, # of connection points: 2
#     Edge 44, Type (0, 0), BuildingBlock: KIFKEQ_clean_linker_1, # of connection points: 2
#     Edge 45, Type (0, 0), BuildingBlock: KIFKEQ_clean_linker_1, # of connection points: 2
#     Edge 46, Type (0, 0), BuildingBlock: KIFKEQ_clean_linker_1, # of connection points: 2
#     Edge 47, Type (0, 0), BuildingBlock: KIFKEQ_clean_linker_1, # of connection points: 2
#     Edge 48, Type (0, 0), BuildingBlock: KIFKEQ_clean_linker_1, # of connection points: 2
#     Edge 49, Type (0, 0), BuildingBlock: KIFKEQ_clean_linker_1, # of connection points: 2
#     Edge 50, Type (0, 0), BuildingBlock: KIFKEQ_clean_linker_1, # of connection points: 2
#     Edge 51, Type (0, 0), BuildingBlock: KIFKEQ_clean_linker_1, # of connection points: 2
#     Edge 52, Type (0, 0), BuildingBlock: KIFKEQ_clean_linker_1, # of connection points: 2
#     Edge 53, Type (0, 0), BuildingBlock: KIFKEQ_clean_linker_1, # of connection points: 2
#     Edge 54, Type (0, 0), BuildingBlock: KIFKEQ_clean_linker_1, # of connection points: 2
#     Edge 55, Type (0, 0), BuildingBlock: KIFKEQ_clean_linker_1, # of connection points: 2
#     Edge 56, Type (0, 0), BuildingBlock: KIFKEQ_clean_linker_1, # of connection points: 2
#     Edge 57, Type (0, 0), BuildingBlock: KIFKEQ_clean_linker_1, # of connection points: 2
#     Edge 58, Type (0, 0), BuildingBlock: KIFKEQ_clean_linker_1, # of connection points: 2
#     Edge 59, Type (0, 0), BuildingBlock: KIFKEQ_clean_linker_1, # of connection points: 2
#     Edge 60, Type (0, 0), BuildingBlock: KIFKEQ_clean_linker_1, # of connection points: 2
#     Edge 61, Type (0, 0), BuildingBlock: KIFKEQ_clean_linker_1, # of connection points: 2
#     Edge 62, Type (0, 0), BuildingBlock: KIFKEQ_clean_linker_1, # of connection points: 2
#     Edge 63, Type (0, 0), BuildingBlock: KIFKEQ_clean_linker_1, # of connection points: 2
#     Edge 64, Type (0, 0), BuildingBlock: KIFKEQ_clean_linker_1, # of connection points: 2
#     Edge 65, Type (0, 0), BuildingBlock: KIFKEQ_clean_linker_1, # of connection points: 2
#     Edge 66, Type (0, 0), BuildingBlock: KIFKEQ_clean_linker_1, # of connection points: 2
#     Edge 67, Type (0, 0), BuildingBlock: KIFKEQ_clean_linker_1, # of connection points: 2
#     Edge 68, Type (0, 0), BuildingBlock: KIFKEQ_clean_linker_1, # of connection points: 2
#     Edge 69, Type (0, 0), BuildingBlock: KIFKEQ_clean_linker_1, # of connection points: 2
#     Edge 70, Type (0, 0), BuildingBlock: KIFKEQ_clean_linker_1, # of connection points: 2
#     Edge 71, Type (0, 0), BuildingBlock: KIFKEQ_clean_linker_1, # of connection points: 2
#     Edge 72, Type (0, 0), BuildingBlock: KIFKEQ_clean_linker_1, # of connection points: 2
#     Edge 73, Type (0, 0), BuildingBlock: KIFKEQ_clean_linker_1, # of connection points: 2
#     Edge 74, Type (0, 0), BuildingBlock: KIFKEQ_clean_linker_1, # of connection points: 2
#     Edge 75, Type (0, 0), BuildingBlock: KIFKEQ_clean_linker_1, # of connection points: 2
#     Edge 76, Type (0, 0), BuildingBlock: KIFKEQ_clean_linker_1, # of connection points: 2
#     Edge 77, Type (0, 0), BuildingBlock: KIFKEQ_clean_linker_1, # of connection points: 2
#     Edge 78, Type (0, 0), BuildingBlock: KIFKEQ_clean_linker_1, # of connection points: 2
#     Edge 79, Type (0, 0), BuildingBlock: KIFKEQ_clean_linker_1, # of connection points: 2
#     Edge 80, Type (0, 0), BuildingBlock: KIFKEQ_clean_linker_1, # of connection points: 2
#     Edge 81, Type (0, 0), BuildingBlock: KIFKEQ_clean_linker_1, # of connection points: 2
#     Edge 82, Type (0, 0), BuildingBlock: KIFKEQ_clean_linker_1, # of connection points: 2
#     Edge 83, Type (0, 0), BuildingBlock: KIFKEQ_clean_linker_1, # of connection points: 2
#     Edge 84, Type (0, 0), BuildingBlock: KIFKEQ_clean_linker_1, # of connection points: 2
#     Edge 85, Type (0, 0), BuildingBlock: KIFKEQ_clean_linker_1, # of connection points: 2
#     Edge 86, Type (0, 0), BuildingBlock: KIFKEQ_clean_linker_1, # of connection points: 2
#     Edge 87, Type (0, 0), BuildingBlock: KIFKEQ_clean_linker_1, # of connection points: 2
#     Edge 88, Type (0, 0), BuildingBlock: KIFKEQ_clean_linker_1, # of connection points: 2
#     Edge 89, Type (0, 0), BuildingBlock: KIFKEQ_clean_linker_1, # of connection points: 2
#     Edge 90, Type (0, 0), BuildingBlock: KIFKEQ_clean_linker_1, # of connection points: 2
#     Edge 91, Type (0, 0), BuildingBlock: KIFKEQ_clean_linker_1, # of connection points: 2
#     Edge 92, Type (0, 0), BuildingBlock: KIFKEQ_clean_linker_1, # of connection points: 2
#     Edge 93, Type (0, 0), BuildingBlock: KIFKEQ_clean_linker_1, # of connection points: 2
#     Edge 94, Type (0, 0), BuildingBlock: KIFKEQ_clean_linker_1, # of connection points: 2
#     Edge 95, Type (0, 0), BuildingBlock: KIFKEQ_clean_linker_1, # of connection points: 2
#     Edge 96, Type (0, 0), BuildingBlock: KIFKEQ_clean_linker_1, # of connection points: 2
#     Edge 97, Type (0, 0), BuildingBlock: KIFKEQ_clean_linker_1, # of connection points: 2
#     Edge 98, Type (0, 0), BuildingBlock: KIFKEQ_clean_linker_1, # of connection points: 2
#     Edge 99, Type (0, 0), BuildingBlock: KIFKEQ_clean_linker_1, # of connection points: 2
#     Edge 100, Type (0, 0), BuildingBlock: KIFKEQ_clean_linker_1, # of connection points: 2
#     Edge 101, Type (0, 0), BuildingBlock: KIFKEQ_clean_linker_1, # of connection points: 2
#     Edge 102, Type (0, 0), BuildingBlock: KIFKEQ_clean_linker_1, # of connection points: 2
#     Edge 103, Type (0, 0), BuildingBlock: KIFKEQ_clean_linker_1, # of connection points: 2
#     Edge 104, Type (0, 0), BuildingBlock: KIFKEQ_clean_linker_1, # of connection points: 2
#     Edge 105, Type (0, 0), BuildingBlock: KIFKEQ_clean_linker_1, # of connection points: 2
#     Edge 106, Type (0, 0), BuildingBlock: KIFKEQ_clean_linker_1, # of connection points: 2
#     Edge 107, Type (0, 0), BuildingBlock: KIFKEQ_clean_linker_1, # of connection points: 2
# Relax obj value: 0.072
# Max RMSD: 0.161
# Mean RMSD: 0.161
data_MOF--net-unl--node1-KUFVIS_clean_sbu_0--edge1-KIFKEQ_clean_linker_1
_symmetry_space_group_name_H-M    P1
_symmetry_Int_Tables_number       1
_symmetry_cell_setting            triclinic
loop_
_symmetry_equiv_pos_as_xyz
'x, y, z'
_cell_length_a     66.214622
_cell_length_b     66.232466
_cell_length_c     41.26677
_cell_angle_alpha  90.011182
_cell_angle_beta   89.996896
_cell_angle_gamma 119.99325
loop_
_atom_site_label
_atom_site_type_symbol
_atom_site_fract_x
_atom_site_fract_y
_atom_site_fract_z
_atom_type_partial_charge
Mn0 Mn 0.21811 0.13994 0.10805 0.0
Mn1 Mn 0.15928 0.11199 0.11114 0.0
C2 C 0.1993 0.14993 0.14691 0.0
C3 C 0.25371 0.14348 0.12306 0.0
C4 C 0.18777 0.14857 0.06094 0.0
O5 O 0.20856 0.1104 0.08133 0.0
O6 O 0.16963 0.09238 0.08863 0.0
C7 C 0.14991 0.07231 0.15375 0.0
N8 N 0.14791 0.09141 0.14741 0.0
C9 C 0.12274 0.08369 0.19331 0.0
C10 C 0.12443 0.06387 0.20034 0.0
C11 C 0.13823 0.05826 0.18061 0.0
C12 C 0.13504 0.0972 0.16656 0.0
H13 H 0.16018 0.06774 0.13828 0.0
C14 C 0.18799 0.09301 0.0775 0.0
O15 O 0.25162 0.15304 0.09677 0.0
O16 O 0.23493 0.13111 0.13993 0.0
N17 N 0.14699 0.12915 0.13248 0.0
C18 C 0.14758 0.14911 0.1228 0.0
C19 C 0.13553 0.15772 0.14082 0.0
C20 C 0.1226 0.14546 0.16816 0.0
C21 C 0.12193 0.12473 0.17724 0.0
C22 C 0.13456 0.11718 0.15866 0.0
H23 H 0.15721 0.15842 0.10157 0.0
O24 O 0.22068 0.16457 0.13878 0.0
O25 O 0.18965 0.12992 0.13227 0.0
O26 O 0.20794 0.15395 0.07141 0.0
O27 O 0.16881 0.13283 0.07343 0.0
C28 C 0.10898 0.11112 0.20378 0.0
C29 C 0.10918 0.09047 0.21162 0.0
H30 H 0.11526 0.05287 0.22085 0.0
H31 H 0.13965 0.04302 0.18589 0.0
H32 H 0.13607 0.17368 0.13353 0.0
H33 H 0.11319 0.15205 0.18191 0.0
H34 H 0.09866 0.11637 0.21797 0.0
H35 H 0.09867 0.07976 0.23151 0.0
Mn36 Mn 0.85663 0.07552 0.10988 0.0
Mn37 Mn 0.88757 0.04768 0.11307 0.0
C38 C 0.84842 0.04736 0.14906 0.0
C39 C 0.85097 0.10634 0.12422 0.0
C40 C 0.85014 0.03725 0.06299 0.0
O41 O 0.88562 0.09659 0.08286 0.0
O42 O 0.90592 0.07801 0.0908 0.0
C43 C 0.92632 0.0796 0.15597 0.0
N44 N 0.90807 0.05795 0.14951 0.0
C45 C 0.91641 0.04189 0.19646 0.0
C46 C 0.93538 0.06398 0.20358 0.0
C47 C 0.94026 0.08294 0.18335 0.0
C48 C 0.90302 0.03966 0.16907 0.0
H49 H 0.93029 0.09415 0.14025 0.0
C50 C 0.90404 0.09505 0.07968 0.0
O51 O 0.84151 0.09398 0.09841 0.0
O52 O 0.86441 0.10131 0.14114 0.0
N53 N 0.87177 0.01812 0.13442 0.0
C54 C 0.85263 0.99803 0.12454 0.0
C55 C 0.84486 0.97761 0.14286 0.0
C56 C 0.85711 0.97795 0.17079 0.0
C57 C 0.87702 0.99873 0.18009 0.0
C58 C 0.88382 0.01857 0.16106 0.0
H59 H 0.84334 0.99758 0.10289 0.0
O60 O 0.83285 0.05287 0.141 0.0
O61 O 0.8683 0.05855 0.1342 0.0
O62 O 0.8436 0.05108 0.07368 0.0
O63 O 0.86678 0.03532 0.07518 0.0
C64 C 0.89049 0.00045 0.20736 0.0
C65 C 0.91031 0.02197 0.2154 0.0
H66 H 0.94625 0.06659 0.22457 0.0
H67 H 0.95483 0.10006 0.18871 0.0
H68 H 0.82954 0.96163 0.13537 0.0
H69 H 0.85113 0.96216 0.18485 0.0
H70 H 0.88573 0.98521 0.22203 0.0
H71 H 0.92089 0.02303 0.23596 0.0
Mn72 Mn 0.92514 0.78374 0.10647 0.0
Mn73 Mn 0.94854 0.84178 0.11008 0.0
C74 C 0.95393 0.805 0.14433 0.0
C75 C 0.89546 0.74678 0.12136 0.0
C76 C 0.95909 0.81668 0.05696 0.0
O77 O 0.90259 0.79019 0.08026 0.0
O78 O 0.91607 0.82777 0.0942 0.0
C79 C 0.92011 0.84741 0.16077 0.0
N80 N 0.94127 0.85193 0.1494 0.0
C81 C 0.96124 0.87926 0.19238 0.0
C82 C 0.93969 0.87509 0.20446 0.0
C83 C 0.91901 0.85889 0.18877 0.0
C84 C 0.96121 0.86698 0.1648 0.0
H85 H 0.90424 0.83526 0.14844 0.0
C86 C 0.90076 0.80853 0.08133 0.0
O87 O 0.90767 0.74997 0.09528 0.0
O88 O 0.90018 0.76511 0.13836 0.0
N89 N 0.97999 0.85714 0.12551 0.0
C90 C 0.99926 0.85825 0.11183 0.0
C91 C 0.02123 0.87248 0.12588 0.0
C92 C 0.02323 0.88581 0.15341 0.0
C93 C 0.00318 0.88454 0.16683 0.0
C94 C 0.9817 0.86967 0.15223 0.0
H95 H 0.99796 0.8484 0.09036 0.0
O96 O 0.94911 0.78407 0.13652 0.0
O97 O 0.94126 0.81241 0.13057 0.0
O98 O 0.94922 0.79654 0.06988 0.0
O99 O 0.95782 0.83385 0.06865 0.0
C100 C 0.00372 0.89773 0.19384 0.0
C101 C 0.98278 0.89528 0.20641 0.0
H102 H 0.9388 0.88411 0.22583 0.0
H103 H 0.9023 0.85549 0.19801 0.0
H104 H 0.03661 0.87337 0.11531 0.0
H105 H 0.04024 0.89699 0.16399 0.0
H106 H 0.02023 0.90996 0.20476 0.0
H107 H 0.9834 0.90586 0.22678 0.0
Mn108 Mn 0.14191 0.21706 0.38656 0.0
Mn109 Mn 0.10798 0.1588 0.38258 0.0
C110 C 0.14977 0.19629 0.34844 0.0
C111 C 0.14897 0.25404 0.3721 0.0
C112 C 0.14394 0.18393 0.43527 0.0
O113 O 0.11281 0.21027 0.41257 0.0
O114 O 0.08954 0.17221 0.40067 0.0
C115 C 0.07244 0.15305 0.33432 0.0
N116 N 0.08971 0.14892 0.34397 0.0
C117 C 0.08195 0.12241 0.29972 0.0
C118 C 0.06403 0.12631 0.28927 0.0
C119 C 0.0594 0.14186 0.3065 0.0
C120 C 0.09463 0.13438 0.32721 0.0
H121 H 0.06852 0.1646 0.34794 0.0
C122 C 0.09302 0.19146 0.41299 0.0
O123 O 0.15794 0.25074 0.39816 0.0
O124 O 0.13551 0.23579 0.35487 0.0
N125 N 0.12397 0.1439 0.36523 0.0
C126 C 0.14244 0.14277 0.37776 0.0
C127 C 0.1502 0.12901 0.36227 0.0
C128 C 0.13858 0.11616 0.33455 0.0
C129 C 0.11945 0.11739 0.3224 0.0
C130 C 0.11283 0.13178 0.33841 0.0
H131 H 0.15123 0.1523 0.39934 0.0
O132 O 0.16573 0.2172 0.3566 0.0
O133 O 0.12958 0.1885 0.36213 0.0
O134 O 0.15339 0.20433 0.42315 0.0
O135 O 0.12602 0.16646 0.42313 0.0
C136 C 0.10648 0.10462 0.29531 0.0
C137 C 0.08757 0.10693 0.28418 0.0
H138 H 0.05375 0.11749 0.26805 0.0
H139 H 0.0456 0.14497 0.29859 0.0
H140 H 0.16495 0.12813 0.37188 0.0
H141 H 0.14445 0.10536 0.32284 0.0
H142 H 0.11084 0.09282 0.28324 0.0
H143 H 0.07736 0.09663 0.26377 0.0
Mn144 Mn 0.78479 0.92318 0.38844 0.0
Mn145 Mn 0.84278 0.94648 0.38351 0.0
C146 C 0.80568 0.95218 0.35074 0.0
C147 C 0.74761 0.89367 0.37398 0.0
C148 C 0.81824 0.95653 0.43792 0.0
O149 O 0.79153 0.9005 0.41379 0.0
O150 O 0.8289 0.91388 0.39869 0.0
C151 C 0.8481 0.9186 0.33167 0.0
N152 N 0.85261 0.93962 0.34358 0.0
C153 C 0.87968 0.96006 0.3005 0.0
C154 C 0.87547 0.93864 0.28784 0.0
C155 C 0.85941 0.91781 0.30331 0.0
C156 C 0.86754 0.95972 0.32841 0.0
H157 H 0.83611 0.9026 0.34389 0.0
C158 C 0.80982 0.8986 0.41195 0.0
O159 O 0.75113 0.90571 0.40032 0.0
O160 O 0.76575 0.8984 0.35651 0.0
N161 N 0.858 0.97807 0.36871 0.0
C162 C 0.85919 0.99719 0.38304 0.0
C163 C 0.87331 0.0193 0.36933 0.0
C164 C 0.88645 0.02159 0.34147 0.0
C165 C 0.8851 0.0017 0.32737 0.0
C166 C 0.87031 0.98007 0.34164 0.0
H167 H 0.8495 0.99566 0.40477 0.0
O168 O 0.78483 0.94732 0.3591 0.0
O169 O 0.81321 0.9394 0.36383 0.0
O170 O 0.79803 0.94708 0.42522 0.0
O171 O 0.83525 0.95528 0.42564 0.0
C172 C 0.89813 0.00253 0.3 0.0
C173 C 0.89563 0.98174 0.28677 0.0
H174 H 0.88439 0.93799 0.2662 0.0
H175 H 0.85601 0.90121 0.29364 0.0
H176 H 0.87427 0.03456 0.38044 0.0
H177 H 0.89756 0.03871 0.33117 0.0
H178 H 0.91031 0.01914 0.28931 0.0
H179 H 0.90611 0.98261 0.26612 0.0
Mn180 Mn 0.07706 0.86094 0.38623 0.0
Mn181 Mn 0.04918 0.89163 0.38024 0.0
C182 C 0.04928 0.852 0.34617 0.0
C183 C 0.10826 0.85542 0.37332 0.0
C184 C 0.03905 0.85568 0.4325 0.0
O185 O 0.09751 0.89041 0.41313 0.0
O186 O 0.07967 0.91097 0.40136 0.0
C187 C 0.07979 0.92907 0.33482 0.0
N188 N 0.05845 0.91077 0.34247 0.0
C189 C 0.04094 0.91762 0.29589 0.0
C190 C 0.0627 0.93662 0.28749 0.0
C191 C 0.08225 0.94225 0.30691 0.0
C192 C 0.03962 0.90496 0.32368 0.0
H193 H 0.09475 0.93366 0.35005 0.0
C194 C 0.09614 0.90902 0.41451 0.0
O195 O 0.09569 0.8462 0.39905 0.0
O196 O 0.10332 0.86866 0.35582 0.0
N197 N 0.01928 0.87459 0.36008 0.0
C198 C 0.9997 0.85534 0.37104 0.0
C199 C 0.97883 0.84672 0.35348 0.0
C200 C 0.97823 0.85822 0.32523 0.0
C201 C 0.99854 0.87818 0.31476 0.0
C202 C 0.01888 0.88578 0.33298 0.0
H203 H 0.99998 0.84659 0.39294 0.0
O204 O 0.05496 0.8367 0.35506 0.0
O205 O 0.06019 0.87204 0.36063 0.0
O206 O 0.05196 0.848 0.42172 0.0
O207 O 0.0379 0.87257 0.41968 0.0
C208 C 0.99933 0.89097 0.28714 0.0
C209 C 0.02046 0.91085 0.27794 0.0
H210 H 0.06461 0.94694 0.26614 0.0
H211 H 0.09912 0.95686 0.30058 0.0
H212 H 0.96323 0.83134 0.3618 0.0
H213 H 0.96208 0.8516 0.31181 0.0
H214 H 0.98367 0.88568 0.27314 0.0
H215 H 0.02081 0.92101 0.25726 0.0
Mn216 Mn 0.78603 0.8609 0.8847 0.0
Mn217 Mn 0.8445 0.8936 0.88144 0.0
C218 C 0.80662 0.85227 0.84724 0.0
C219 C 0.7495 0.85452 0.86899 0.0
C220 C 0.81836 0.8582 0.93432 0.0
O221 O 0.79333 0.8904 0.91003 0.0
O222 O 0.83174 0.91266 0.8993 0.0
C223 C 0.85116 0.92923 0.83281 0.0
N224 N 0.85476 0.91167 0.84269 0.0
C225 C 0.88014 0.9178 0.79754 0.0
C226 C 0.8768 0.93602 0.78688 0.0
C227 C 0.8621 0.94165 0.80448 0.0
C228 C 0.86858 0.90589 0.82569 0.0
H229 H 0.84015 0.93381 0.84658 0.0
C230 C 0.81256 0.9098 0.91105 0.0
O231 O 0.75225 0.84582 0.89573 0.0
O232 O 0.76805 0.86742 0.85198 0.0
N233 N 0.85873 0.87688 0.86435 0.0
C234 C 0.85938 0.85824 0.87717 0.0
C235 C 0.87236 0.84963 0.86152 0.0
C236 C 0.88483 0.8605 0.83322 0.0
C237 C 0.8841 0.87981 0.82075 0.0
C238 C 0.87063 0.88743 0.83712 0.0
H239 H 0.85003 0.84994 0.89909 0.0
O240 O 0.78558 0.83658 0.85534 0.0
O241 O 0.81469 0.8725 0.86088 0.0
O242 O 0.79801 0.8493 0.92211 0.0
O243 O 0.83626 0.87561 0.92202 0.0
C244 C 0.89635 0.8919 0.79285 0.0
C245 C 0.89458 0.91105 0.78145 0.0
H246 H 0.88534 0.94574 0.76517 0.0
H247 H 0.85939 0.95566 0.79638 0.0
H248 H 0.87285 0.83473 0.87136 0.0
H249 H 0.89492 0.85388 0.82127 0.0
H250 H 0.9073 0.88662 0.7803 0.0
H251 H 0.90452 0.92062 0.76046 0.0
Mn252 Mn 0.14179 0.92301 0.88481 0.0
Mn253 Mn 0.10816 0.94758 0.88092 0.0
C254 C 0.14967 0.95151 0.84635 0.0
C255 C 0.14837 0.89277 0.87063 0.0
C256 C 0.14378 0.95761 0.93385 0.0
O257 O 0.1127 0.90118 0.91149 0.0
O258 O 0.0892 0.91535 0.89739 0.0
C259 C 0.07369 0.91916 0.83067 0.0
N260 N 0.09066 0.94028 0.84167 0.0
C261 C 0.08448 0.96012 0.79735 0.0
C262 C 0.06674 0.93862 0.78569 0.0
C263 C 0.06148 0.91802 0.80226 0.0
C264 C 0.09623 0.96013 0.82551 0.0
H265 H 0.06947 0.90335 0.84354 0.0
C266 C 0.09274 0.89987 0.91051 0.0
O267 O 0.15759 0.90519 0.89649 0.0
O268 O 0.13486 0.89755 0.85348 0.0
N269 N 0.12479 0.97886 0.86489 0.0
C270 C 0.14316 0.99806 0.87837 0.0
C271 C 0.15159 0.01989 0.86355 0.0
C272 C 0.14081 0.02185 0.83538 0.0
C273 C 0.12178 0.00189 0.8222 0.0
C274 C 0.11436 0.98055 0.83774 0.0
H275 H 0.15135 0.99679 0.90023 0.0
O276 O 0.16554 0.94636 0.85421 0.0
O277 O 0.12964 0.93938 0.8605 0.0
O278 O 0.15374 0.94746 0.92088 0.0
O279 O 0.12554 0.95685 0.9223 0.0
C280 C 0.10976 0.00239 0.79442 0.0
C281 C 0.09093 0.98154 0.78222 0.0
H282 H 0.05718 0.9377 0.76392 0.0
H283 H 0.04791 0.90134 0.79332 0.0
H284 H 0.16626 0.03521 0.87395 0.0
H285 H 0.14726 0.03874 0.8241 0.0
H286 H 0.11482 0.01879 0.78253 0.0
H287 H 0.08139 0.98213 0.76134 0.0
Mn288 Mn 0.07582 0.21783 0.89024 0.0
Mn289 Mn 0.04602 0.159 0.88867 0.0
C290 C 0.04646 0.19824 0.85258 0.0
C291 C 0.10733 0.25333 0.87411 0.0
C292 C 0.0376 0.18767 0.93832 0.0
O293 O 0.09666 0.20931 0.91645 0.0
O294 O 0.07645 0.17028 0.9106 0.0
C295 C 0.07656 0.14979 0.84621 0.0
N296 N 0.0553 0.14739 0.8527 0.0
C297 C 0.03772 0.1208 0.80819 0.0
C298 C 0.0594 0.1229 0.80105 0.0
C299 C 0.07894 0.13762 0.81999 0.0
C300 C 0.03649 0.13364 0.83426 0.0
H301 H 0.09152 0.16073 0.86112 0.0
C302 C 0.09423 0.18909 0.9206 0.0
O303 O 0.09598 0.25151 0.90062 0.0
O304 O 0.10084 0.23441 0.85756 0.0
N305 N 0.01632 0.14576 0.86775 0.0
C306 C 0.99687 0.14632 0.87709 0.0
C307 C 0.97612 0.13363 0.85944 0.0
C308 C 0.97543 0.12004 0.83289 0.0
C309 C 0.99557 0.11943 0.82412 0.0
C310 C 0.01587 0.13282 0.84217 0.0
H311 H 0.99721 0.15643 0.89776 0.0
O312 O 0.05306 0.21964 0.86035 0.0
O313 O 0.05742 0.18898 0.86672 0.0
O314 O 0.05217 0.20779 0.9275 0.0
O315 O 0.03458 0.16868 0.92618 0.0
C316 C 0.99623 0.10584 0.79839 0.0
C317 C 0.01723 0.10631 0.79067 0.0
H318 H 0.06124 0.11335 0.78105 0.0
H319 H 0.09574 0.13936 0.81462 0.0
H320 H 0.96063 0.13414 0.86648 0.0
H321 H 0.95933 0.1101 0.81949 0.0
H322 H 0.98058 0.09486 0.78467 0.0
H323 H 0.01746 0.09546 0.77123 0.0
Mn324 Mn 0.85938 0.78136 0.60768 0.0
Mn325 Mn 0.89495 0.83927 0.61145 0.0
C326 C 0.85263 0.80293 0.64586 0.0
C327 C 0.85118 0.74413 0.6225 0.0
C328 C 0.859 0.81478 0.55845 0.0
O329 O 0.88809 0.78723 0.58124 0.0
O330 O 0.9128 0.82474 0.59501 0.0
C331 C 0.92893 0.84396 0.6617 0.0
N332 N 0.91251 0.84893 0.6507 0.0
C333 C 0.91982 0.87539 0.69487 0.0
C334 C 0.93698 0.87076 0.70655 0.0
C335 C 0.94139 0.8548 0.69005 0.0
C336 C 0.90776 0.86384 0.66678 0.0
H337 H 0.93252 0.83191 0.64885 0.0
C338 C 0.90842 0.80537 0.58207 0.0
O339 O 0.84236 0.74761 0.59643 0.0
O340 O 0.86523 0.76232 0.6394 0.0
N341 N 0.8794 0.85505 0.62742 0.0
C342 C 0.86147 0.85669 0.61395 0.0
C343 C 0.85387 0.87082 0.6287 0.0
C344 C 0.86505 0.88344 0.65677 0.0
C345 C 0.8836 0.88165 0.66996 0.0
C346 C 0.89017 0.86701 0.65452 0.0
H347 H 0.85298 0.8473 0.59215 0.0
O348 O 0.83614 0.7822 0.63799 0.0
O349 O 0.87257 0.80999 0.63185 0.0
O350 O 0.84848 0.79461 0.57128 0.0
O351 O 0.87757 0.83177 0.57016 0.0
C352 C 0.89597 0.894 0.69765 0.0
C353 C 0.91426 0.89109 0.70989 0.0
H354 H 0.94675 0.87923 0.72827 0.0
H355 H 0.95452 0.85103 0.699 0.0
H356 H 0.83956 0.87212 0.61831 0.0
H357 H 0.85926 0.89446 0.66799 0.0
H358 H 0.8916 0.90591 0.70941 0.0
H359 H 0.92407 0.90109 0.7307 0.0
Mn360 Mn 0.21994 0.07795 0.60877 0.0
Mn361 Mn 0.16171 0.05339 0.61207 0.0
C362 C 0.19914 0.04957 0.64728 0.0
C363 C 0.25671 0.10817 0.62306 0.0
C364 C 0.18754 0.04306 0.55982 0.0
O365 O 0.21287 0.09973 0.58167 0.0
O366 O 0.17508 0.08553 0.59515 0.0
C367 C 0.15567 0.0822 0.66172 0.0
N368 N 0.15144 0.06099 0.65102 0.0
C369 C 0.12547 0.04152 0.69553 0.0
C370 C 0.1293 0.06312 0.70686 0.0
C371 C 0.14465 0.08358 0.69003 0.0
C372 C 0.13714 0.04127 0.66743 0.0
H373 H 0.16732 0.09791 0.64869 0.0
C374 C 0.1942 0.10101 0.58222 0.0
O375 O 0.25358 0.09567 0.59731 0.0
O376 O 0.23838 0.10351 0.64004 0.0
N377 N 0.14694 0.02221 0.62851 0.0
C378 C 0.14602 0.00289 0.61534 0.0
C379 C 0.13256 0.98116 0.63043 0.0
C380 C 0.11986 0.97945 0.65853 0.0
C381 C 0.12086 0.99952 0.67137 0.0
C382 C 0.13481 0.02074 0.65556 0.0
H383 H 0.15544 0.00397 0.59354 0.0
O384 O 0.2202 0.0547 0.63967 0.0
O385 O 0.1913 0.06166 0.63286 0.0
O386 O 0.20762 0.0534 0.57288 0.0
O387 O 0.16997 0.0438 0.57104 0.0
C388 C 0.10841 0.99926 0.6991 0.0
C389 C 0.11051 0.02022 0.71098 0.0
H390 H 0.12071 0.06422 0.72857 0.0
H391 H 0.14784 0.10033 0.69873 0.0
H392 H 0.13186 0.96575 0.62028 0.0
H393 H 0.1094 0.96264 0.67004 0.0
H394 H 0.09707 0.98295 0.7112 0.0
H395 H 0.10047 0.01982 0.73187 0.0
Mn396 Mn 0.92492 0.14109 0.60873 0.0
Mn397 Mn 0.95778 0.11523 0.61257 0.0
C398 C 0.95333 0.15181 0.64822 0.0
C399 C 0.8922 0.1436 0.623 0.0
C400 C 0.96611 0.15268 0.56384 0.0
O401 O 0.90581 0.11159 0.58201 0.0
O402 O 0.92919 0.09608 0.5866 0.0
C403 C 0.92575 0.07335 0.65057 0.0
N404 N 0.94698 0.09289 0.64686 0.0
C405 C 0.96209 0.0835 0.69392 0.0
C406 C 0.94043 0.06321 0.69819 0.0
C407 C 0.92213 0.05821 0.67654 0.0
C408 C 0.96456 0.09806 0.66786 0.0
H409 H 0.91175 0.06928 0.63371 0.0
C410 C 0.91068 0.09555 0.57625 0.0
O411 O 0.90394 0.15334 0.59683 0.0
O412 O 0.89893 0.13163 0.64019 0.0
N413 N 0.9859 0.13165 0.63717 0.0
C414 C 0.00555 0.15217 0.63014 0.0
C415 C 0.02519 0.1602 0.65024 0.0
C416 C 0.0246 0.14678 0.67692 0.0
C417 C 0.00432 0.12551 0.68328 0.0
C418 C 0.98519 0.11856 0.66267 0.0
H419 H 0.00621 0.16236 0.60945 0.0
O420 O 0.9462 0.16603 0.63947 0.0
O421 O 0.94372 0.13176 0.63364 0.0
O422 O 0.94923 0.1556 0.57223 0.0
O423 O 0.97075 0.13815 0.57724 0.0
C424 C 0.00242 0.11084 0.70912 0.0
C425 C 0.98137 0.08977 0.71435 0.0
H426 H 0.93764 0.0514 0.71805 0.0
H427 H 0.90535 0.04261 0.67971 0.0
H428 H 0.04079 0.17659 0.64503 0.0
H429 H 0.03982 0.15292 0.69227 0.0
H430 H 0.01719 0.11566 0.72484 0.0
H431 H 0.98018 0.07842 0.73401 0.0
Mn432 Mn 0.88418 0.4755 0.44106 0.0
Mn433 Mn 0.82535 0.44592 0.44247 0.0
C434 C 0.86431 0.48532 0.47816 0.0
C435 C 0.91978 0.4799 0.45755 0.0
C436 C 0.85385 0.48242 0.39205 0.0
O437 O 0.87591 0.44599 0.41534 0.0
O438 O 0.83689 0.42662 0.42174 0.0
C439 C 0.8163 0.40701 0.48648 0.0
N440 N 0.81378 0.42566 0.47906 0.0
C441 C 0.78696 0.41718 0.52313 0.0
C442 C 0.78919 0.39782 0.53123 0.0
C443 C 0.80409 0.39284 0.51299 0.0
C444 C 0.79985 0.43088 0.49683 0.0
H445 H 0.82738 0.40286 0.4721 0.0
C446 C 0.85582 0.4279 0.41176 0.0
O447 O 0.9179 0.48917 0.43083 0.0
O448 O 0.90086 0.4675 0.47413 0.0
N449 N 0.81193 0.46259 0.46225 0.0
C450 C 0.81247 0.48243 0.45209 0.0
C451 C 0.79963 0.49067 0.46901 0.0
C452 C 0.78595 0.47813 0.49571 0.0
C453 C 0.7854 0.45756 0.50537 0.0
C454 C 0.79894 0.45048 0.488 0.0
H455 H 0.82266 0.49193 0.43131 0.0
O456 O 0.88571 0.5002 0.47042 0.0
O457 O 0.85526 0.46501 0.46434 0.0
O458 O 0.87399 0.48862 0.40338 0.0
O459 O 0.83494 0.46632 0.40418 0.0
C460 C 0.77176 0.44368 0.53131 0.0
C461 C 0.77231 0.42333 0.53992 0.0
H462 H 0.7796 0.38672 0.55145 0.0
H463 H 0.80593 0.37795 0.5191 0.0
H464 H 0.80011 0.50652 0.46131 0.0
H465 H 0.7759 0.4844 0.50855 0.0
H466 H 0.76067 0.44846 0.54454 0.0
H467 H 0.7614 0.41249 0.55949 0.0
Mn468 Mn 0.52562 0.41083 0.44095 0.0
Mn469 Mn 0.55567 0.38205 0.44229 0.0
C470 C 0.51697 0.38201 0.47917 0.0
C471 C 0.52112 0.44207 0.45691 0.0
C472 C 0.51799 0.37264 0.39307 0.0
O473 O 0.5546 0.43182 0.41398 0.0
O474 O 0.57428 0.41248 0.42029 0.0
C475 C 0.59495 0.4133 0.48494 0.0
N476 N 0.57645 0.39181 0.47841 0.0
C477 C 0.5848 0.37518 0.52469 0.0
C478 C 0.60402 0.39709 0.53187 0.0
C479 C 0.60902 0.41627 0.51202 0.0
C480 C 0.57128 0.37334 0.49763 0.0
H481 H 0.59899 0.42802 0.46952 0.0
C482 C 0.57271 0.42989 0.40998 0.0
O483 O 0.5114 0.43038 0.43069 0.0
O484 O 0.53402 0.43607 0.47326 0.0
N485 N 0.53967 0.35237 0.4633 0.0
C486 C 0.52027 0.3325 0.45343 0.0
C487 C 0.51236 0.31193 0.47144 0.0
C488 C 0.52473 0.31188 0.49902 0.0
C489 C 0.5449 0.33243 0.50829 0.0
C490 C 0.55182 0.35245 0.48961 0.0
H491 H 0.51089 0.33233 0.43203 0.0
O492 O 0.50168 0.38806 0.47176 0.0
O493 O 0.53684 0.39309 0.46425 0.0
O494 O 0.51199 0.3868 0.40417 0.0
O495 O 0.53447 0.37022 0.40477 0.0
C496 C 0.55853 0.33375 0.53519 0.0
C497 C 0.57858 0.35507 0.54325 0.0
H498 H 0.615 0.3994 0.55262 0.0
H499 H 0.62378 0.43325 0.51744 0.0
H500 H 0.49684 0.29612 0.46396 0.0
H501 H 0.51865 0.29596 0.51282 0.0
H502 H 0.5537 0.31835 0.54955 0.0
H503 H 0.58926 0.35585 0.56355 0.0
Mn504 Mn 0.5892 0.1144 0.44165 0.0
Mn505 Mn 0.61237 0.17242 0.44203 0.0
C506 C 0.6191 0.13684 0.47749 0.0
C507 C 0.55999 0.07791 0.45886 0.0
C508 C 0.62107 0.14571 0.38933 0.0
O509 O 0.56584 0.12005 0.41615 0.0
O510 O 0.57933 0.1579 0.42851 0.0
C511 C 0.58595 0.17977 0.49406 0.0
N512 N 0.60663 0.18383 0.48139 0.0
C513 C 0.62823 0.21221 0.5226 0.0
C514 C 0.60717 0.20848 0.536 0.0
C515 C 0.58592 0.19201 0.52184 0.0
C516 C 0.62713 0.19921 0.49527 0.0
H517 H 0.56963 0.16739 0.4829 0.0
C518 C 0.56383 0.13829 0.41677 0.0
O519 O 0.57127 0.08041 0.43204 0.0
O520 O 0.56541 0.09664 0.47531 0.0
N521 N 0.64438 0.18822 0.45513 0.0
C522 C 0.6631 0.18887 0.44031 0.0
C523 C 0.68557 0.20339 0.45272 0.0
C524 C 0.68862 0.21744 0.47982 0.0
C525 C 0.66911 0.21661 0.49446 0.0
C526 C 0.64711 0.20146 0.48144 0.0
H527 H 0.661 0.17847 0.41917 0.0
O528 O 0.61416 0.11571 0.47069 0.0
O529 O 0.60595 0.14374 0.4639 0.0
O530 O 0.61211 0.12612 0.40369 0.0
O531 O 0.62 0.16316 0.40028 0.0
C532 C 0.67069 0.23047 0.52119 0.0
C533 C 0.65027 0.22845 0.53508 0.0
H534 H 0.6071 0.21807 0.55723 0.0
H535 H 0.56959 0.18896 0.53211 0.0
H536 H 0.70052 0.20393 0.44121 0.0
H537 H 0.706 0.22882 0.48915 0.0
H538 H 0.68759 0.24289 0.53088 0.0
H539 H 0.65169 0.23956 0.55519 0.0
Mn540 Mn 0.80621 0.54974 0.72103 0.0
Mn541 Mn 0.78125 0.49113 0.71767 0.0
C542 C 0.81737 0.5323 0.68178 0.0
C543 C 0.80797 0.58451 0.70634 0.0
C544 C 0.81843 0.52088 0.76634 0.0
O545 O 0.77666 0.53901 0.74771 0.0
O546 O 0.76172 0.50018 0.74348 0.0
C547 C 0.7392 0.48052 0.67952 0.0
N548 N 0.75893 0.4792 0.68335 0.0
C549 C 0.75008 0.45486 0.6362 0.0
C550 C 0.72959 0.45586 0.63179 0.0
C551 C 0.72422 0.46888 0.65343 0.0
C552 C 0.76445 0.46704 0.66238 0.0
H553 H 0.73486 0.49026 0.69633 0.0
C554 C 0.76088 0.51803 0.75365 0.0
O555 O 0.8179 0.58292 0.73258 0.0
O556 O 0.79625 0.56567 0.68933 0.0
N557 N 0.79806 0.4798 0.69324 0.0
C558 C 0.81875 0.48105 0.70038 0.0
C559 C 0.82712 0.46971 0.68035 0.0
C560 C 0.81388 0.45678 0.6536 0.0
C561 C 0.79245 0.45541 0.64709 0.0
C562 C 0.78514 0.46729 0.66768 0.0
H563 H 0.82881 0.49068 0.72111 0.0
O564 O 0.83132 0.55373 0.69037 0.0
O565 O 0.79734 0.52162 0.6964 0.0
O566 O 0.82101 0.5405 0.75774 0.0
O567 O 0.80418 0.50156 0.75303 0.0
C568 C 0.778 0.44258 0.62111 0.0
C569 C 0.75675 0.44219 0.61575 0.0
H570 H 0.71791 0.44676 0.61183 0.0
H571 H 0.70847 0.46978 0.65016 0.0
H572 H 0.84364 0.4708 0.68565 0.0
H573 H 0.82031 0.44792 0.63829 0.0
H574 H 0.78312 0.43288 0.60536 0.0
H575 H 0.74556 0.43201 0.59597 0.0
Mn576 Mn 0.4539 0.25678 0.71758 0.0
Mn577 Mn 0.51228 0.2827 0.71351 0.0
C578 C 0.47413 0.28638 0.68047 0.0
C579 C 0.41742 0.22653 0.7022 0.0
C580 C 0.48622 0.29122 0.76742 0.0
O581 O 0.46156 0.23465 0.74246 0.0
O582 O 0.4997 0.25051 0.72987 0.0
C583 C 0.51897 0.25485 0.66302 0.0
N584 N 0.52264 0.27578 0.6741 0.0
C585 C 0.54902 0.29618 0.63035 0.0
C586 C 0.54571 0.27487 0.61855 0.0
C587 C 0.53042 0.25409 0.63478 0.0
C588 C 0.53683 0.2958 0.65823 0.0
H589 H 0.50753 0.23891 0.67575 0.0
C590 C 0.48068 0.23426 0.74204 0.0
O591 O 0.42027 0.23786 0.72907 0.0
O592 O 0.43585 0.23236 0.68479 0.0
N593 N 0.52638 0.31398 0.69766 0.0
C594 C 0.52675 0.33292 0.71127 0.0
C595 C 0.54 0.35489 0.69673 0.0
C596 C 0.55311 0.35723 0.6688 0.0
C597 C 0.55263 0.33753 0.65549 0.0
C598 C 0.53873 0.31602 0.67062 0.0
H599 H 0.51702 0.33132 0.73301 0.0
O600 O 0.45304 0.2807 0.68881 0.0
O601 O 0.4824 0.27419 0.69346 0.0
O602 O 0.46591 0.2801 0.75509 0.0
O603 O 0.50405 0.29164 0.75495 0.0
C604 C 0.56565 0.33843 0.62805 0.0
C605 C 0.56408 0.31781 0.61574 0.0
H606 H 0.5547 0.27426 0.59698 0.0
H607 H 0.52769 0.23756 0.62576 0.0
H608 H 0.54029 0.37001 0.70722 0.0
H609 H 0.5635 0.37425 0.65781 0.0
H610 H 0.57708 0.35498 0.61655 0.0
H611 H 0.57458 0.31873 0.5951 0.0
Mn612 Mn 0.74611 0.1963 0.71508 0.0
Mn613 Mn 0.72271 0.23084 0.70763 0.0
C614 C 0.71812 0.18821 0.6757 0.0
C615 C 0.77579 0.18849 0.70233 0.0
C616 C 0.71112 0.19605 0.76232 0.0
O617 O 0.76823 0.2257 0.74089 0.0
O618 O 0.75467 0.24944 0.7253 0.0
C619 C 0.75273 0.26423 0.65733 0.0
N620 N 0.73122 0.24775 0.66783 0.0
C621 C 0.71282 0.25337 0.62121 0.0
C622 C 0.73475 0.27058 0.61 0.0
C623 C 0.75482 0.27589 0.62802 0.0
C624 C 0.71186 0.2422 0.6504 0.0
H625 H 0.76815 0.26847 0.6713 0.0
C626 C 0.76981 0.24575 0.7393 0.0
O627 O 0.76327 0.18005 0.72832 0.0
O628 O 0.7715 0.20198 0.68435 0.0
N629 N 0.69174 0.21462 0.69045 0.0
C630 C 0.67202 0.19686 0.70384 0.0
C631 C 0.65058 0.18854 0.68786 0.0
C632 C 0.64959 0.19879 0.65858 0.0
C633 C 0.67008 0.21722 0.64552 0.0
C634 C 0.69096 0.22463 0.66234 0.0
H635 H 0.67257 0.18903 0.72648 0.0
O636 O 0.72265 0.17218 0.68499 0.0
O637 O 0.73047 0.20848 0.68915 0.0
O638 O 0.7215 0.18577 0.75094 0.0
O639 O 0.71225 0.21405 0.74926 0.0
C640 C 0.67055 0.2286 0.61655 0.0
C641 C 0.69188 0.24685 0.60459 0.0
H642 H 0.7364 0.27968 0.58748 0.0
H643 H 0.77182 0.28905 0.61946 0.0
H644 H 0.63486 0.17433 0.69816 0.0
H645 H 0.63302 0.19238 0.64633 0.0
H646 H 0.65454 0.22344 0.60353 0.0
H647 H 0.69204 0.25591 0.58276 0.0
Mn648 Mn 0.45068 0.1924 0.22048 0.0
Mn649 Mn 0.50921 0.22479 0.21777 0.0
C650 C 0.47133 0.18447 0.18203 0.0
C651 C 0.41395 0.18601 0.20565 0.0
C652 C 0.48268 0.18852 0.26946 0.0
O653 O 0.45808 0.22157 0.24708 0.0
O654 O 0.49653 0.24363 0.2364 0.0
C655 C 0.51675 0.26165 0.17082 0.0
N656 N 0.51998 0.24369 0.17983 0.0
C657 C 0.5465 0.25119 0.1357 0.0
C658 C 0.54354 0.26983 0.12593 0.0
C659 C 0.52844 0.27495 0.14341 0.0
C660 C 0.53413 0.23835 0.16285 0.0
H661 H 0.50552 0.26591 0.18463 0.0
C662 C 0.47745 0.24089 0.2483 0.0
O663 O 0.41696 0.1768 0.23164 0.0
O664 O 0.4324 0.19955 0.18879 0.0
N665 N 0.52337 0.20822 0.19992 0.0
C666 C 0.52365 0.18917 0.21185 0.0
C667 C 0.53688 0.18092 0.19603 0.0
C668 C 0.55004 0.19262 0.16854 0.0
C669 C 0.54969 0.21235 0.15703 0.0
C670 C 0.53585 0.21951 0.17342 0.0
H671 H 0.51383 0.18028 0.23321 0.0
O672 O 0.45026 0.16868 0.1898 0.0
O673 O 0.47944 0.20441 0.19653 0.0
O674 O 0.46245 0.1799 0.257 0.0
O675 O 0.50066 0.20609 0.25771 0.0
C676 C 0.56276 0.22538 0.13017 0.0
C677 C 0.56142 0.24499 0.1198 0.0
H678 H 0.55272 0.28027 0.105 0.0
H679 H 0.52604 0.28929 0.13602 0.0
H680 H 0.53708 0.1657 0.20514 0.0
H681 H 0.56038 0.18633 0.15652 0.0
H682 H 0.57407 0.22053 0.11771 0.0
H683 H 0.57209 0.25538 0.09981 0.0
Mn684 Mn 0.8055 0.2564 0.2211 0.0
Mn685 Mn 0.77754 0.28726 0.21786 0.0
C686 C 0.81537 0.28501 0.18211 0.0
C687 C 0.80912 0.22444 0.20624 0.0
C688 C 0.81446 0.29577 0.26771 0.0
O689 O 0.776 0.23636 0.24768 0.0
O690 O 0.75823 0.25758 0.24122 0.0
C691 C 0.73753 0.25612 0.17623 0.0
N692 N 0.75659 0.27738 0.18195 0.0
C693 C 0.74873 0.29375 0.13493 0.0
C694 C 0.72894 0.27207 0.12857 0.0
C695 C 0.72341 0.25312 0.1492 0.0
C696 C 0.76227 0.29561 0.16197 0.0
H697 H 0.73307 0.24161 0.19229 0.0
C698 C 0.75877 0.23971 0.25198 0.0
O699 O 0.81868 0.23613 0.23252 0.0
O700 O 0.79673 0.23078 0.18929 0.0
N701 N 0.79433 0.31638 0.19564 0.0
C702 C 0.81423 0.33603 0.20481 0.0
C703 C 0.82267 0.35632 0.18601 0.0
C704 C 0.81033 0.35634 0.15836 0.0
C705 C 0.78967 0.33603 0.14979 0.0
C706 C 0.78224 0.31627 0.16925 0.0
H707 H 0.82361 0.33621 0.22624 0.0
O708 O 0.83011 0.27844 0.19038 0.0
O709 O 0.79538 0.27469 0.19679 0.0
O710 O 0.8194 0.28056 0.25771 0.0
O711 O 0.7989 0.29921 0.25505 0.0
C712 C 0.77607 0.3347 0.12286 0.0
C713 C 0.75549 0.31363 0.11559 0.0
H714 H 0.71792 0.26975 0.10787 0.0
H715 H 0.7082 0.23632 0.14443 0.0
H716 H 0.83857 0.37194 0.19291 0.0
H717 H 0.81683 0.37205 0.14397 0.0
H718 H 0.7813 0.3499 0.10787 0.0
H719 H 0.74482 0.31287 0.0953 0.0
Mn720 Mn 0.7433 0.5521 0.21853 0.0
Mn721 Mn 0.7137 0.4933 0.21735 0.0
C722 C 0.71434 0.53225 0.18033 0.0
C723 C 0.77508 0.58755 0.20277 0.0
C724 C 0.70533 0.52209 0.26686 0.0
O725 O 0.76388 0.54356 0.24555 0.0
O726 O 0.74428 0.50458 0.23863 0.0
C727 C 0.74374 0.48404 0.17396 0.0
N728 N 0.72257 0.4817 0.18097 0.0
C729 C 0.70476 0.45618 0.13549 0.0
C730 C 0.72633 0.4582 0.12781 0.0
C731 C 0.74594 0.47234 0.147 0.0
C732 C 0.70369 0.46846 0.16237 0.0
H733 H 0.75876 0.49462 0.18896 0.0
C734 C 0.76177 0.5234 0.24918 0.0
O735 O 0.76337 0.58576 0.22889 0.0
O736 O 0.76872 0.56862 0.18629 0.0
N737 N 0.6838 0.48019 0.19707 0.0
C738 C 0.66438 0.4805 0.20728 0.0
C739 C 0.6435 0.46807 0.18984 0.0
C740 C 0.64268 0.4551 0.16247 0.0
C741 C 0.66279 0.45472 0.1528 0.0
C742 C 0.68317 0.46767 0.17089 0.0
H743 H 0.66482 0.49017 0.22852 0.0
O744 O 0.72079 0.5537 0.18763 0.0
O745 O 0.72514 0.5232 0.19531 0.0
O746 O 0.71931 0.54215 0.2553 0.0
O747 O 0.70276 0.50311 0.25531 0.0
C748 C 0.66333 0.44183 0.12612 0.0
C749 C 0.68425 0.44235 0.11766 0.0
H750 H 0.72805 0.44906 0.10718 0.0
H751 H 0.76266 0.47403 0.14121 0.0
H752 H 0.62804 0.46839 0.19757 0.0
H753 H 0.62652 0.44544 0.14912 0.0
H754 H 0.64764 0.43133 0.11225 0.0
H755 H 0.68441 0.43192 0.09764 0.0
Mn756 Mn 0.53224 0.12048 0.94221 0.0
Mn757 Mn 0.56594 0.17856 0.94848 0.0
C758 C 0.52377 0.14044 0.98106 0.0
C759 C 0.52506 0.08332 0.95549 0.0
C760 C 0.53113 0.15424 0.89417 0.0
O761 O 0.5617 0.12804 0.91635 0.0
O762 O 0.58497 0.16557 0.93123 0.0
C763 C 0.60008 0.1836 -0.00135 0.0
N764 N 0.5831 0.18788 0.98805 0.0
C765 C 0.58925 0.21335 0.03308 0.0
C766 C 0.60692 0.20936 0.04444 0.0
C767 C 0.6122 0.19424 0.0273 0.0
C768 C 0.57753 0.20197 0.00472 0.0
H769 H 0.60441 0.17229 0.9852 0.0
C770 C 0.58157 0.14675 0.91755 0.0
O771 O 0.51645 0.08705 0.92941 0.0
O772 O 0.53839 0.10127 0.9733 0.0
N773 N 0.54927 0.19297 0.96515 0.0
C774 C 0.53106 0.19414 0.95175 0.0
C775 C 0.52266 0.20744 0.96702 0.0
C776 C 0.53337 0.21976 0.9955 0.0
C777 C 0.55224 0.21847 0.00857 0.0
C778 C 0.55956 0.20461 0.99265 0.0
H779 H 0.52295 0.18501 0.92963 0.0
O780 O 0.50798 0.11966 0.97214 0.0
O781 O 0.54408 0.14852 0.96765 0.0
O782 O 0.52116 0.13376 0.90602 0.0
O783 O 0.54898 0.17144 0.90695 0.0
C784 C 0.56426 0.23066 0.03654 0.0
C785 C 0.58293 0.22831 0.0486 0.0
H786 H 0.61646 0.21772 0.06635 0.0
H787 H 0.62576 0.19101 0.03595 0.0
H788 H 0.50812 0.20836 0.95671 0.0
H789 H 0.527 0.23017 0.00709 0.0
H790 H 0.55933 0.24204 0.0486 0.0
H791 H 0.59247 0.23819 0.06965 0.0
Mn792 Mn 0.88118 0.40924 0.94333 0.0
Mn793 Mn 0.82281 0.38463 0.94565 0.0
C794 C 0.85978 0.3793 0.9794 0.0
C795 C 0.91778 0.43866 0.96006 0.0
C796 C 0.84888 0.37555 0.89239 0.0
O797 O 0.87484 0.43243 0.91907 0.0
O798 O 0.8364 0.41688 0.92896 0.0
C799 C 0.8164 0.41326 0.99516 0.0
N800 N 0.81242 0.39211 0.98458 0.0
C801 C 0.78549 0.37237 0.02807 0.0
C802 C 0.78924 0.39393 0.03946 0.0
C803 C 0.80492 0.41448 0.02308 0.0
C804 C 0.79774 0.37228 0.00052 0.0
H805 H 0.82808 0.42903 0.98221 0.0
C806 C 0.85592 0.43318 0.91807 0.0
O807 O 0.91507 0.42763 0.93293 0.0
O808 O 0.89919 0.43291 0.97703 0.0
N809 N 0.80773 0.35336 0.96165 0.0
C810 C 0.80686 0.3341 0.94835 0.0
C811 C 0.79301 0.31225 0.96294 0.0
C812 C 0.77983 0.31037 0.9906 0.0
C813 C 0.78084 0.33042 0.00359 0.0
C814 C 0.79533 0.35178 0.98844 0.0
H815 H 0.81667 0.33536 0.92682 0.0
O816 O 0.8808 0.38445 0.97145 0.0
O817 O 0.85221 0.39215 0.96656 0.0
O818 O 0.86916 0.38652 0.90492 0.0
O819 O 0.83106 0.3752 0.90475 0.0
C820 C 0.76779 0.33 0.03072 0.0
C821 C 0.76991 0.35093 0.04274 0.0
H822 H 0.78021 0.3949 0.06077 0.0
H823 H 0.80792 0.43119 0.03172 0.0
H824 H 0.79231 0.29687 0.95271 0.0
H825 H 0.76897 0.29346 0.00162 0.0
H826 H 0.75591 0.31358 0.04219 0.0
H827 H 0.75945 0.35038 0.06323 0.0
Mn828 Mn 0.58859 0.47117 0.94201 0.0
Mn829 Mn 0.61172 0.43637 0.94803 0.0
C830 C 0.61736 0.47936 0.98012 0.0
C831 C 0.55922 0.47917 0.95583 0.0
C832 C 0.6222 0.47077 0.89325 0.0
O833 O 0.56595 0.44169 0.91674 0.0
O834 O 0.57927 0.41774 0.93227 0.0
C835 C 0.58324 0.40334 -0.00037 0.0
N836 N 0.60441 0.41978 0.98805 0.0
C837 C 0.62432 0.41329 0.03199 0.0
C838 C 0.60275 0.39616 0.04434 0.0
C839 C 0.5821 0.39134 0.02826 0.0
C840 C 0.62433 0.42497 0.00376 0.0
H841 H 0.56738 0.39931 0.98697 0.0
C842 C 0.56407 0.42152 0.91869 0.0
O843 O 0.57135 0.48746 0.9295 0.0
O844 O 0.56373 0.46574 0.97359 0.0
N845 N 0.64318 0.45266 0.96339 0.0
C846 C 0.66248 0.47045 0.94921 0.0
C847 C 0.68444 0.47845 0.96346 0.0
C848 C 0.68639 0.46775 0.99172 0.0
C849 C 0.66631 0.44933 0.00564 0.0
C850 C 0.64485 0.44245 0.99078 0.0
H851 H 0.66121 0.4785 0.92721 0.0
O852 O 0.61264 0.49537 0.97134 0.0
O853 O 0.6046 0.45899 0.96716 0.0
O854 O 0.61263 0.48155 0.90548 0.0
O855 O 0.62095 0.45261 0.90588 0.0
C856 C 0.6668 0.43728 0.0334 0.0
C857 C 0.64584 0.41908 0.04635 0.0
H858 H 0.60184 0.38669 0.0662 0.0
H859 H 0.56538 0.3782 0.03768 0.0
H860 H 0.69985 0.49266 0.9525 0.0
H861 H 0.70339 0.47379 0.00247 0.0
H862 H 0.68329 0.4418 0.04462 0.0
H863 H 0.64642 0.40954 0.06727 0.0
Mn864 Mn 0.55384 0.8116 0.77544 0.0
Mn865 Mn 0.495 0.78275 0.7796 0.0
C866 C 0.53509 0.82057 0.81558 0.0
C867 C 0.58985 0.8156 0.78877 0.0
C868 C 0.52261 0.82082 0.73075 0.0
O869 O 0.54471 0.78277 0.74753 0.0
O870 O 0.50578 0.76438 0.75461 0.0
C871 C 0.48721 0.74211 0.81896 0.0
N872 N 0.48443 0.76096 0.81454 0.0
C873 C 0.45965 0.75108 0.86135 0.0
C874 C 0.46214 0.73149 0.86638 0.0
C875 C 0.47614 0.7271 0.84522 0.0
C876 C 0.47137 0.76558 0.83509 0.0
H877 H 0.49764 0.73848 0.80244 0.0
C878 C 0.52425 0.7654 0.74313 0.0
O879 O 0.58725 0.82566 0.76341 0.0
O880 O 0.57134 0.80254 0.80581 0.0
N881 N 0.4821 0.79843 0.80334 0.0
C882 C 0.48177 0.81824 0.79545 0.0
C883 C 0.46933 0.82563 0.81496 0.0
C884 C 0.4569 0.81228 0.84191 0.0
C885 C 0.45712 0.79171 0.84913 0.0
C886 C 0.4701 0.7854 0.82911 0.0
H887 H 0.49095 0.82834 0.77449 0.0
O888 O 0.55631 0.83554 0.80721 0.0
O889 O 0.52549 0.8007 0.80052 0.0
O890 O 0.54292 0.82575 0.73998 0.0
O891 O 0.50382 0.80492 0.74345 0.0
C892 C 0.44473 0.77708 0.8752 0.0
C893 C 0.44584 0.75667 0.88119 0.0
H894 H 0.45345 0.71975 0.88644 0.0
H895 H 0.47818 0.71204 0.84896 0.0
H896 H 0.46916 0.84147 0.80908 0.0
H897 H 0.44716 0.81792 0.8568 0.0
H898 H 0.43416 0.78137 0.89045 0.0
H899 H 0.43588 0.74526 0.90091 0.0
Mn900 Mn 0.19111 0.73983 0.77798 0.0
Mn901 Mn 0.22013 0.71005 0.78116 0.0
C902 C 0.18171 0.71134 0.81701 0.0
C903 C 0.18737 0.77176 0.79254 0.0
C904 C 0.18307 0.70098 0.73114 0.0
O905 O 0.22035 0.76001 0.75099 0.0
O906 O 0.23938 0.74014 0.75864 0.0
C907 C 0.25937 0.74106 0.82398 0.0
N908 N 0.24062 0.71972 0.81758 0.0
C909 C 0.2481 0.70307 0.86462 0.0
C910 C 0.26757 0.72483 0.87169 0.0
C911 C 0.27314 0.74395 0.85139 0.0
C912 C 0.23491 0.70131 0.8372 0.0
H913 H 0.26385 0.75572 0.8082 0.0
C914 C 0.23818 0.75755 0.74744 0.0
O915 O 0.17761 0.75981 0.76652 0.0
O916 O 0.19987 0.76559 0.80954 0.0
N917 N 0.20342 0.68059 0.80259 0.0
C918 C 0.18382 0.6609 0.79275 0.0
C919 C 0.17538 0.64041 0.81113 0.0
C920 C 0.1874 0.64027 0.83905 0.0
C921 C 0.20776 0.66065 0.84831 0.0
C922 C 0.21523 0.68059 0.82923 0.0
H923 H 0.17468 0.6608 0.77112 0.0
O924 O 0.16678 0.71774 0.80897 0.0
O925 O 0.20165 0.72189 0.80222 0.0
O926 O 0.17726 0.71542 0.74169 0.0
O927 O 0.19925 0.69832 0.74337 0.0
C928 C 0.22103 0.66188 0.8756 0.0
C929 C 0.2413 0.68303 0.88361 0.0
H930 H 0.27831 0.72708 0.8927 0.0
H931 H 0.2881 0.76081 0.85672 0.0
H932 H 0.15971 0.62474 0.80369 0.0
H933 H 0.18089 0.62443 0.85315 0.0
H934 H 0.21575 0.64655 0.89031 0.0
H935 H 0.25169 0.68374 0.90423 0.0
Mn936 Mn 0.25897 0.44767 0.77495 0.0
Mn937 Mn 0.28705 0.50645 0.7774 0.0
C938 C 0.28735 0.46768 0.81376 0.0
C939 C 0.22783 0.41153 0.78973 0.0
C940 C 0.29722 0.47897 0.72781 0.0
O941 O 0.23809 0.4556 0.74758 0.0
O942 O 0.25663 0.49448 0.75531 0.0
C943 C 0.25557 0.51415 0.82003 0.0
N944 N 0.27711 0.51725 0.81357 0.0
C945 C 0.29385 0.54323 0.8589 0.0
C946 C 0.27188 0.5404 0.86601 0.0
C947 C 0.25261 0.52564 0.84664 0.0
C948 C 0.29566 0.53105 0.83241 0.0
H949 H 0.24082 0.50315 0.80482 0.0
C950 C 0.23961 0.47551 0.74423 0.0
O951 O 0.24014 0.41401 0.764 0.0
O952 O 0.23316 0.43019 0.80632 0.0
N953 N 0.31671 0.52025 0.7985 0.0
C954 C 0.33659 0.52061 0.78892 0.0
C955 C 0.35719 0.53359 0.80677 0.0
C956 C 0.35728 0.54651 0.8338 0.0
C957 C 0.33672 0.5462 0.84279 0.0
C958 C 0.31662 0.53261 0.82446 0.0
H959 H 0.33672 0.51104 0.76789 0.0
O960 O 0.28149 0.44645 0.80605 0.0
O961 O 0.2762 0.47646 0.79898 0.0
O962 O 0.28347 0.45866 0.73878 0.0
O963 O 0.29911 0.49759 0.73968 0.0
C964 C 0.33545 0.55909 0.86899 0.0
C965 C 0.31409 0.55781 0.87684 0.0
H966 H 0.26958 0.54943 0.88633 0.0
H967 H 0.23559 0.52334 0.85199 0.0
H968 H 0.37301 0.53381 0.79953 0.0
H969 H 0.37325 0.55666 0.84739 0.0
H970 H 0.35093 0.5702 0.88292 0.0
H971 H 0.31339 0.5682 0.89658 0.0
Mn972 Mn 0.47496 0.88677 0.05367 0.0
Mn973 Mn 0.44546 0.82793 0.05279 0.0
C974 C 0.48477 0.86671 0.01679 0.0
C975 C 0.47961 0.92246 0.03719 0.0
C976 C 0.48219 0.85668 0.10282 0.0
O977 O 0.44546 0.87863 0.07937 0.0
O978 O 0.42631 0.83957 0.07374 0.0
C979 C 0.40633 0.81889 0.00916 0.0
N980 N 0.42497 0.81629 0.01642 0.0
C981 C 0.41621 0.78939 0.97236 0.0
C982 C 0.39686 0.79169 0.96444 0.0
C983 C 0.39203 0.80667 0.98276 0.0
C984 C 0.43006 0.80232 -0.00146 0.0
H985 H 0.4023 0.83002 0.0236 0.0
C986 C 0.42749 0.85852 0.08341 0.0
O987 O 0.48874 0.92042 0.06395 0.0
O988 O 0.46716 0.9036 0.02048 0.0
N989 N 0.46191 0.81431 0.03287 0.0
C990 C 0.48161 0.81458 0.04306 0.0
C991 C 0.48962 0.80153 0.02619 0.0
C992 C 0.47694 0.78787 -0.00044 0.0
C993 C 0.45648 0.78755 0.98995 0.0
C994 C 0.44964 0.80131 0.00722 0.0
H995 H 0.49118 0.82469 0.06383 0.0
O996 O 0.49965 0.88813 0.02439 0.0
O997 O 0.46445 0.85773 0.03057 0.0
O998 O 0.48805 0.87673 0.09148 0.0
O999 O 0.46618 0.83765 0.0908 0.0
C1000 C 0.44241 0.77385 0.96418 0.0
C1001 C 0.42216 0.7746 0.95556 0.0
H1002 H 0.38563 0.78209 0.94432 0.0
H1003 H 0.37714 0.80856 0.97679 0.0
H1004 H 0.50537 0.8018 0.0339 0.0
H1005 H 0.48302 0.77763 0.98677 0.0
H1006 H 0.44698 0.76255 0.95116 0.0
H1007 H 0.41123 0.76368 0.93605 0.0
Mn1008 Mn 0.11477 0.58693 0.0564 0.0
Mn1009 Mn 0.17286 0.61073 0.05255 0.0
C1010 C 0.13575 0.61577 0.01854 0.0
C1011 C 0.07789 0.55702 0.04163 0.0
C1012 C 0.1476 0.62089 0.10588 0.0
O1013 O 0.12154 0.56458 0.08254 0.0
O1014 O 0.1591 0.57826 0.06825 0.0
C1015 C 0.17868 0.58259 0.00161 0.0
N1016 N 0.18305 0.60367 0.0131 0.0
C1017 C 0.21021 0.62385 0.97002 0.0
C1018 C 0.2062 0.60239 0.95785 0.0
C1019 C 0.19016 0.58164 0.97352 0.0
C1020 C 0.19794 0.62367 -0.0023 0.0
H1021 H 0.16664 0.56667 0.01391 0.0
C1022 C 0.13995 0.56288 0.08122 0.0
O1023 O 0.08103 0.56922 0.06773 0.0
O1024 O 0.09622 0.56188 0.02456 0.0
N1025 N 0.18798 0.64221 0.03722 0.0
C1026 C 0.18894 0.66138 0.05101 0.0
C1027 C 0.20295 0.68338 0.03694 0.0
C1028 C 0.21622 0.68553 0.00928 0.0
C1029 C 0.21513 0.66559 0.99574 0.0
C1030 C 0.20047 0.64407 0.01038 0.0
H1031 H 0.17914 0.65996 0.07257 0.0
O1032 O 0.11476 0.61074 0.0264 0.0
O1033 O 0.14337 0.60325 0.03221 0.0
O1034 O 0.12748 0.61108 0.09291 0.0
O1035 O 0.16486 0.61978 0.09418 0.0
C1036 C 0.22827 0.66628 0.96857 0.0
C1037 C 0.22604 0.64545 0.95597 0.0
H1038 H 0.21522 0.60162 0.9364 0.0
H1039 H 0.18687 0.565 0.9642 0.0
H1040 H 0.20372 0.69868 0.0476 0.0
H1041 H 0.22722 0.70257 -0.00133 0.0
H1042 H 0.24029 0.68281 0.95751 0.0
H1043 H 0.23661 0.64619 0.93551 0.0
Mn1044 Mn 0.41218 0.52833 0.05369 0.0
Mn1045 Mn 0.38068 0.55565 0.05153 0.0
C1046 C 0.38266 0.51761 0.01592 0.0
C1047 C 0.4441 0.52492 0.03791 0.0
C1048 C 0.37341 0.51922 0.10156 0.0
O1049 O 0.43249 0.55812 0.07943 0.0
O1050 O 0.41072 0.57536 0.07408 0.0
C1051 C 0.41091 0.5957 0.00935 0.0
N1052 N 0.38983 0.57651 0.01555 0.0
C1053 C 0.37237 0.58445 0.96983 0.0
C1054 C 0.39386 0.60435 0.96298 0.0
C1055 C 0.41326 0.60989 0.98269 0.0
C1056 C 0.37118 0.57079 0.99639 0.0
H1057 H 0.42575 0.60022 0.02478 0.0
C1058 C 0.42899 0.57522 0.08397 0.0
O1059 O 0.43291 0.51563 0.06459 0.0
O1060 O 0.43726 0.53691 0.02095 0.0
N1061 N 0.35125 0.5386 0.03009 0.0
C1062 C 0.3319 0.51853 0.03952 0.0
C1063 C 0.31127 0.50994 0.02142 0.0
C1064 C 0.31059 0.52236 0.99429 0.0
C1065 C 0.33059 0.54321 0.98548 0.0
C1066 C 0.35075 0.55071 0.00409 0.0
H1067 H 0.33221 0.50914 0.06062 0.0
O1068 O 0.3897 0.50321 0.02406 0.0
O1069 O 0.39313 0.53787 0.02992 0.0
O1070 O 0.38882 0.51468 0.09124 0.0
O1071 O 0.36937 0.53438 0.0889 0.0
C1072 C 0.33122 0.557 0.95919 0.0
C1073 C 0.35204 0.57772 0.95152 0.0
H1074 H 0.39567 0.61546 0.94262 0.0
H1075 H 0.42991 0.62521 0.97755 0.0
H1076 H 0.29588 0.49389 0.02853 0.0
H1077 H 0.2946 0.51579 0.98048 0.0
H1078 H 0.31565 0.55182 0.94504 0.0
H1079 H 0.35223 0.58847 0.93165 0.0
Mn1080 Mn 0.11424 0.52189 0.55498 0.0
Mn1081 Mn 0.17299 0.55253 0.55162 0.0
C1082 C 0.13388 0.51382 0.51522 0.0
C1083 C 0.07808 0.51721 0.54111 0.0
C1084 C 0.14587 0.51468 0.60112 0.0
O1085 O 0.12253 0.55052 0.58301 0.0
O1086 O 0.16131 0.57101 0.57423 0.0
C1087 C 0.18025 0.59163 0.50922 0.0
N1088 N 0.18341 0.57319 0.5154 0.0
C1089 C 0.2081 0.58176 0.46873 0.0
C1090 C 0.20523 0.60092 0.4619 0.0
C1091 C 0.1911 0.60577 0.48211 0.0
C1092 C 0.19665 0.56815 0.49583 0.0
H1093 H 0.16966 0.59558 0.52497 0.0
C1094 C 0.14246 0.56896 0.58599 0.0
O1095 O 0.08065 0.50709 0.56644 0.0
O1096 O 0.09665 0.53062 0.52442 0.0
N1097 N 0.18648 0.53656 0.52999 0.0
C1098 C 0.18706 0.51716 0.53951 0.0
C1099 C 0.19963 0.50934 0.52107 0.0
C1100 C 0.21184 0.52181 0.49342 0.0
C1101 C 0.21132 0.54196 0.48448 0.0
C1102 C 0.19829 0.54876 0.50357 0.0
H1103 H 0.17799 0.50768 0.56094 0.0
O1104 O 0.11269 0.49839 0.52304 0.0
O1105 O 0.1428 0.53355 0.53052 0.0
O1106 O 0.12548 0.50803 0.59033 0.0
O1107 O 0.16439 0.5316 0.58932 0.0
C1108 C 0.2234 0.55568 0.45754 0.0
C1109 C 0.22198 0.5757 0.44984 0.0
H1110 H 0.21371 0.61196 0.44114 0.0
H1111 H 0.18875 0.62048 0.47697 0.0
H1112 H 0.20001 0.49382 0.52825 0.0
H1113 H 0.22161 0.5158 0.4793 0.0
H1114 H 0.23394 0.55097 0.44288 0.0
H1115 H 0.23175 0.58648 0.42955 0.0
Mn1116 Mn 0.47624 0.59282 0.55326 0.0
Mn1117 Mn 0.44428 0.61942 0.5492 0.0
C1118 C 0.4843 0.62073 0.51389 0.0
C1119 C 0.48179 0.56186 0.53947 0.0
C1120 C 0.48118 0.63019 0.6003 0.0
O1121 O 0.44735 0.57184 0.58056 0.0
O1122 O 0.4256 0.58855 0.56991 0.0
C1123 C 0.40681 0.58847 0.50399 0.0
N1124 N 0.42482 0.60998 0.51172 0.0
C1125 C 0.41721 0.62723 0.46547 0.0
C1126 C 0.39851 0.60529 0.45703 0.0
C1127 C 0.3934 0.58579 0.47625 0.0
C1128 C 0.43012 0.62877 0.49312 0.0
H1129 H 0.40263 0.57353 0.51902 0.0
C1130 C 0.42826 0.57227 0.58222 0.0
O1131 O 0.49148 0.57447 0.56503 0.0
O1132 O 0.46835 0.56681 0.52247 0.0
N1133 N 0.46053 0.6495 0.52934 0.0
C1134 C 0.47959 0.66929 0.54023 0.0
C1135 C 0.48771 0.69014 0.52281 0.0
C1136 C 0.47591 0.69052 0.49476 0.0
C1137 C 0.45615 0.67001 0.48435 0.0
C1138 C 0.44905 0.64969 0.50243 0.0
H1139 H 0.48858 0.66919 0.56196 0.0
O1140 O 0.49992 0.61528 0.52197 0.0
O1141 O 0.46437 0.60938 0.5286 0.0
O1142 O 0.48921 0.61776 0.58887 0.0
O1143 O 0.46378 0.63087 0.58838 0.0
C1144 C 0.4431 0.66898 0.4569 0.0
C1145 C 0.42348 0.64765 0.44767 0.0
H1146 H 0.38803 0.6032 0.43579 0.0
H1147 H 0.37903 0.56879 0.46988 0.0
H1148 H 0.50295 0.7059 0.53109 0.0
H1149 H 0.48215 0.70666 0.48144 0.0
H1150 H 0.44798 0.68461 0.44303 0.0
H1151 H 0.41318 0.6471 0.42701 0.0
Mn1152 Mn 0.40766 0.88276 0.55478 0.0
Mn1153 Mn 0.38175 0.82426 0.55256 0.0
C1154 C 0.37884 0.86205 0.51691 0.0
C1155 C 0.43832 0.91908 0.53972 0.0
C1156 C 0.37188 0.851 0.60383 0.0
O1157 O 0.42935 0.87559 0.5815 0.0
O1158 O 0.41335 0.83714 0.57139 0.0
C1159 C 0.41142 0.81702 0.50579 0.0
N1160 N 0.39011 0.81354 0.51473 0.0
C1161 C 0.37139 0.78693 0.47056 0.0
C1162 C 0.39311 0.79015 0.46088 0.0
C1163 C 0.41324 0.80542 0.47842 0.0
C1164 C 0.37072 0.79926 0.49766 0.0
H1165 H 0.42684 0.82839 0.51963 0.0
C1166 C 0.42957 0.85641 0.58306 0.0
O1167 O 0.42608 0.91649 0.56558 0.0
O1168 O 0.43302 0.9005 0.52295 0.0
N1169 N 0.35105 0.8098 0.53454 0.0
C1170 C 0.33157 0.80932 0.54632 0.0
C1171 C 0.31016 0.7959 0.53042 0.0
C1172 C 0.3089 0.78273 0.50304 0.0
C1173 C 0.32912 0.78328 0.49167 0.0
C1174 C 0.35004 0.79734 0.50809 0.0
H1175 H 0.33235 0.8191 0.56762 0.0
O1176 O 0.38441 0.88325 0.52439 0.0
O1177 O 0.39076 0.85389 0.53112 0.0
O1178 O 0.3835 0.8712 0.59135 0.0
O1179 O 0.37138 0.8329 0.59233 0.0
C1180 C 0.32927 0.77019 0.46494 0.0
C1181 C 0.35035 0.77181 0.4546 0.0
H1182 H 0.39455 0.78104 0.43999 0.0
H1183 H 0.43007 0.80801 0.4711 0.0
H1184 H 0.29463 0.79554 0.53943 0.0
H1185 H 0.29231 0.77222 0.49099 0.0
H1186 H 0.31317 0.75869 0.45248 0.0
H1187 H 0.35021 0.7613 0.43442 0.0
Mn1188 Mn 0.19575 0.45064 0.27666 0.0
Mn1189 Mn 0.22714 0.50921 0.27945 0.0
C1190 C 0.18607 0.47082 0.31343 0.0
C1191 C 0.19018 0.41446 0.29258 0.0
C1192 C 0.19217 0.48217 0.22653 0.0
O1193 O 0.22562 0.45855 0.2519 0.0
O1194 O 0.2469 0.49711 0.26205 0.0
C1195 C 0.26317 0.51726 0.32821 0.0
N1196 N 0.24521 0.52018 0.31813 0.0
C1197 C 0.25151 0.5467 0.36183 0.0
C1198 C 0.27012 0.54404 0.37271 0.0
C1199 C 0.27584 0.52909 0.35597 0.0
C1200 C 0.23927 0.53415 0.33441 0.0
H1201 H 0.2679 0.50616 0.31497 0.0
C1202 C 0.24471 0.47808 0.25082 0.0
O1203 O 0.1815 0.41697 0.26568 0.0
O1204 O 0.20257 0.43306 0.30978 0.0
N1205 N 0.2098 0.52291 0.29611 0.0
C1206 C 0.19079 0.5228 0.28323 0.0
C1207 C 0.18195 0.5358 0.29823 0.0
C1208 C 0.19306 0.54917 0.32583 0.0
C1209 C 0.21276 0.5492 0.33836 0.0
C1210 C 0.22047 0.53552 0.32282 0.0
H1211 H 0.18238 0.51284 0.26174 0.0
O1212 O 0.17087 0.44958 0.30537 0.0
O1213 O 0.20652 0.47933 0.30028 0.0
O1214 O 0.18384 0.46192 0.23883 0.0
O1215 O 0.20919 0.50039 0.23882 0.0
C1216 C 0.22524 0.56254 0.36538 0.0
C1217 C 0.24478 0.5615 0.37689 0.0
H1218 H 0.28009 0.55335 0.39389 0.0
H1219 H 0.29016 0.52694 0.36421 0.0
H1220 H 0.16677 0.53571 0.28835 0.0
H1221 H 0.18635 0.55938 0.33717 0.0
H1222 H 0.22002 0.5738 0.37715 0.0
H1223 H 0.2546 0.57222 0.39724 0.0
Mn1224 Mn 0.55118 0.74607 0.27544 0.0
Mn1225 Mn 0.49246 0.718 0.27702 0.0
C1226 C 0.53088 0.71626 0.31228 0.0
C1227 C 0.58709 0.77689 0.29186 0.0
C1228 C 0.52043 0.71039 0.22525 0.0
O1229 O 0.54317 0.76779 0.25016 0.0
O1230 O 0.50436 0.74953 0.25869 0.0
C1231 C 0.4837 0.74639 0.32421 0.0
N1232 N 0.48107 0.72547 0.31497 0.0
C1233 C 0.45463 0.70575 0.35894 0.0
C1234 C 0.45697 0.72705 0.36893 0.0
C1235 C 0.47173 0.7475 0.35164 0.0
C1236 C 0.46726 0.70578 0.33178 0.0
H1237 H 0.49468 0.76204 0.31057 0.0
C1238 C 0.52338 0.76673 0.24809 0.0
O1239 O 0.5849 0.76573 0.26504 0.0
O1240 O 0.5683 0.77058 0.30867 0.0
N1241 N 0.47892 0.68723 0.29457 0.0
C1242 C 0.47924 0.66824 0.28246 0.0
C1243 C 0.46639 0.64662 0.29805 0.0
C1244 C 0.45298 0.64465 0.32549 0.0
C1245 C 0.4527 0.66438 0.33719 0.0
C1246 C 0.46618 0.68554 0.32103 0.0
H1247 H 0.48923 0.66956 0.26114 0.0
O1248 O 0.55223 0.72245 0.30463 0.0
O1249 O 0.52226 0.72791 0.29856 0.0
O1250 O 0.54056 0.7229 0.23761 0.0
O1251 O 0.50182 0.70849 0.23718 0.0
C1252 C 0.43934 0.66381 0.36402 0.0
C1253 C 0.44008 0.68443 0.37465 0.0
H1254 H 0.44758 0.72793 0.38988 0.0
H1255 H 0.47366 0.76402 0.35921 0.0
H1256 H 0.46667 0.63147 0.28879 0.0
H1257 H 0.44294 0.6279 0.33732 0.0
H1258 H 0.42828 0.6475 0.3763 0.0
H1259 H 0.42931 0.68375 0.3948 0.0
Mn1260 Mn 0.25569 0.80643 0.27504 0.0
Mn1261 Mn 0.2872 0.77911 0.27838 0.0
C1262 C 0.28432 0.81652 0.31417 0.0
C1263 C 0.22363 0.80998 0.28999 0.0
C1264 C 0.29568 0.81619 0.22891 0.0
O1265 O 0.23586 0.77689 0.24832 0.0
O1266 O 0.25788 0.75992 0.25414 0.0
C1267 C 0.25573 0.73851 0.31885 0.0
N1268 N 0.277 0.7577 0.31377 0.0
C1269 C 0.29298 0.7493 0.36078 0.0
C1270 C 0.27127 0.72937 0.36648 0.0
C1271 C 0.25252 0.72405 0.34554 0.0
C1272 C 0.29504 0.7632 0.33406 0.0
H1273 H 0.24137 0.7342 0.30254 0.0
C1274 C 0.23981 0.7601 0.24343 0.0
O1275 O 0.23525 0.81947 0.26365 0.0
O1276 O 0.22999 0.79757 0.30685 0.0
N1277 N 0.31604 0.79574 0.30133 0.0
C1278 C 0.33575 0.81578 0.29275 0.0
C1279 C 0.35587 0.82403 0.3119 0.0
C1280 C 0.35567 0.81134 0.33926 0.0
C1281 C 0.33532 0.79054 0.34719 0.0
C1282 C 0.31573 0.78331 0.32743 0.0
H1283 H 0.3361 0.82542 0.27153 0.0
O1284 O 0.27759 0.83112 0.3058 0.0
O1285 O 0.27418 0.79653 0.29949 0.0
O1286 O 0.27992 0.8205 0.23841 0.0
O1287 O 0.29951 0.80095 0.2418 0.0
C1288 C 0.33379 0.77657 0.37376 0.0
C1289 C 0.31269 0.75586 0.38042 0.0
H1290 H 0.26879 0.71808 0.3869 0.0
H1291 H 0.2357 0.70873 0.34981 0.0
H1292 H 0.37153 0.84005 0.30548 0.0
H1293 H 0.37125 0.81768 0.35391 0.0
H1294 H 0.34888 0.78163 0.38893 0.0
H1295 H 0.3118 0.74496 0.4005 0.0
H1296 H 0.14694 0.0578 0.05502 0.0
H1297 H 0.22062 0.08089 0.05816 0.0
H1298 H 0.13968 0.02351 0.02558 0.0
H1299 H 0.21308 0.04548 0.02887 0.0
H1300 H 0.1876 0.99492 0.93712 0.0
H1301 H 0.20118 0.02715 0.97581 0.0
H1302 H 0.13806 0.98743 0.03161 0.0
H1303 H 0.12408 0.95611 0.99177 0.0
C1304 C 0.16167 0.05545 0.04979 0.0
C1305 C 0.18441 0.07218 0.05918 0.0
C1306 C 0.15742 0.0355 0.03308 0.0
C1307 C 0.17569 0.03135 0.02541 0.0
C1308 C 0.19858 0.04811 0.03448 0.0
C1309 C 0.20291 0.06837 0.05123 0.0
C1310 C 0.17707 0.99291 0.95829 0.0
C1311 C 0.15479 0.97324 0.96157 0.0
C1312 C 0.18481 0.01135 0.98045 0.0
C1313 C 0.17044 0.01016 0.00638 0.0
C1314 C 0.14925 0.98927 0.01134 0.0
C1315 C 0.14131 0.97119 0.98882 0.0
H1316 H 0.94596 0.09763 0.07078 0.0
H1317 H 0.90945 0.13512 0.05055 0.0
H1318 H 0.97958 0.12664 0.04204 0.0
H1319 H 0.94401 0.16503 0.02202 0.0
H1320 H 0.99636 0.18639 0.933 0.0
H1321 H 0.9644 0.16846 0.97193 0.0
H1322 H 0.01125 0.16523 0.04203 0.0
H1323 H 0.0427 0.18187 0.00212 0.0
C1324 C 0.94512 0.11223 0.06048 0.0
C1325 C 0.92476 0.11382 0.06281 0.0
C1326 C 0.96471 0.12918 0.04429 0.0
C1327 C 0.96474 0.14844 0.02998 0.0
C1328 C 0.94456 0.15038 0.0327 0.0
C1329 C 0.92477 0.13325 0.04903 0.0
C1330 C 0.9999 0.18256 0.95717 0.0
C1331 C 0.02181 0.18537 0.96475 0.0
C1332 C 0.98162 0.17231 0.97954 0.0
C1333 C 0.98508 0.16485 0.00989 0.0
C1334 C 0.00782 0.17017 0.01855 0.0
C1335 C 0.02594 0.18002 0.99596 0.0
H1336 H 0.84814 0.88012 0.98362 0.0
H1337 H 0.79896 0.81161 0.94764 0.0
H1338 H 0.86174 0.86297 0.02385 0.0
H1339 H 0.81267 0.79412 0.9884 0.0
H1340 H 0.87752 0.78624 0.02575 0.0
H1341 H 0.85072 0.79433 0.99484 0.0
H1342 H 0.85167 0.83873 0.0722 0.0
H1343 H 0.87879 0.83126 0.10234 0.0
C1344 C 0.83981 0.86129 0.98497 0.0
C1345 C 0.8225 0.84719 0.96262 0.0
C1346 C 0.84752 0.8514 0.00812 0.0
C1347 C 0.83828 0.82714 0.00935 0.0
C1348 C 0.82015 0.81287 0.98795 0.0
C1349 C 0.81215 0.82283 0.96491 0.0
C1350 C 0.87144 0.79718 0.03643 0.0
C1351 C 0.88057 0.80851 0.06609 0.0
C1352 C 0.85604 0.80177 0.01882 0.0
C1353 C 0.84946 0.81755 0.03085 0.0
C1354 C 0.85683 0.82692 0.06198 0.0
C1355 C 0.87235 0.82261 0.07927 0.0
H1356 H 0.95764 0.14773 0.49909 0.0
H1357 H 0.01011 0.1887 0.56995 0.0
H1358 H 0.98729 0.16311 0.4564 0.0
H1359 H 0.03997 0.20305 0.52817 0.0
H1360 H 0.09216 0.22614 0.44901 0.0
H1361 H 0.05938 0.22322 0.48018 0.0
H1362 H 0.01587 0.15278 0.44534 0.0
H1363 H 0.04793 0.15595 0.4137 0.0
C1364 C 0.97543 0.16057 0.50528 0.0
C1365 C 0.98179 0.16686 0.53766 0.0
C1366 C 0.99248 0.16916 0.48101 0.0
C1367 C 0.01619 0.18386 0.48891 0.0
C1368 C 0.022 0.19183 0.52101 0.0
C1369 C 0.00492 0.18341 0.54512 0.0
C1370 C 0.07546 0.21021 0.44762 0.0
C1371 C 0.07287 0.19116 0.42928 0.0
C1372 C 0.05667 0.2085 0.46555 0.0
C1373 C 0.03494 0.18771 0.46551 0.0
C1374 C 0.03213 0.16922 0.44572 0.0
C1375 C 0.05076 0.17094 0.42782 0.0
H1376 H 0.78704 0.87458 0.46684 0.0
H1377 H 0.83362 0.87759 0.39133 0.0
H1378 H 0.79539 0.84798 0.49774 0.0
H1379 H 0.84144 0.85075 0.42156 0.0
H1380 H 0.88164 0.84631 0.51094 0.0
H1381 H 0.86492 0.86055 0.47093 0.0
H1382 H 0.79563 0.81007 0.50322 0.0
H1383 H 0.81261 0.79573 0.54376 0.0
C1384 C 0.79841 0.86894 0.45638 0.0
C1385 C 0.81005 0.87849 0.42704 0.0
C1386 C 0.80315 0.85367 0.47399 0.0
C1387 C 0.81944 0.84765 0.46232 0.0
C1388 C 0.82923 0.85547 0.4315 0.0
C1389 C 0.8247 0.87082 0.41417 0.0
C1390 C 0.86283 0.83787 0.50905 0.0
C1391 C 0.84844 0.81994 0.53046 0.0
C1392 C 0.8532 0.84594 0.48599 0.0
C1393 C 0.82892 0.83642 0.48389 0.0
C1394 C 0.8144 0.81777 0.50438 0.0
C1395 C 0.82409 0.80944 0.52732 0.0
H1396 H 0.13933 0.91852 0.43788 0.0
H1397 H 0.09272 0.94647 0.43288 0.0
H1398 H 0.16761 0.95346 0.4677 0.0
H1399 H 0.12 0.98019 0.46289 0.0
H1400 H 0.17246 0.0459 0.50007 0.0
H1401 H 0.15561 0.01491 0.45969 0.0
H1402 H 0.17313 0.97233 0.51971 0.0
H1403 H 0.1915 0.00424 0.55887 0.0
C1404 C 0.13511 0.93201 0.44308 0.0
C1405 C 0.11379 0.92968 0.43273 0.0
C1406 C 0.15127 0.95201 0.46015 0.0
C1407 C 0.14634 0.96994 0.46721 0.0
C1408 C 0.12492 0.9673 0.457 0.0
C1409 C 0.10904 0.94764 0.43995 0.0
C1410 C 0.17346 0.03023 0.50387 0.0
C1411 C 0.18317 0.02731 0.53235 0.0
C1412 C 0.16357 0.01233 0.48104 0.0
C1413 C 0.16231 0.99076 0.48692 0.0
C1414 C 0.17378 0.98864 0.5143 0.0
C1415 C 0.18431 0.00689 0.53675 0.0
H1416 H 0.81313 0.99369 0.06727 0.0
H1417 H 0.85938 0.04524 -0.00115 0.0
H1418 H 0.79978 0.96376 0.02544 0.0
H1419 H 0.84502 0.01576 0.95604 0.0
H1420 H 0.77774 0.9121 0.9448 0.0
H1421 H 0.7814 0.94507 0.97626 0.0
H1422 H 0.85354 0.98602 0.94684 0.0
H1423 H 0.84968 0.95389 0.91482 0.0
C1424 C 0.81977 0.99869 0.04284 0.0
C1425 C 0.8374 0.02154 0.03612 0.0
C1426 C 0.812 0.98161 0.01874 0.0
C1427 C 0.82165 0.98718 0.9874 0.0
C1428 C 0.83766 0.01069 0.9801 0.0
C1429 C 0.8457 0.02767 0.0044 0.0
C1430 C 0.79424 0.9283 0.94466 0.0
C1431 C 0.81348 0.93015 0.92761 0.0
C1432 C 0.79637 0.94719 0.9628 0.0
C1433 C 0.8178 0.96827 0.96429 0.0
C1434 C 0.83663 0.97033 0.94597 0.0
C1435 C 0.83448 0.95163 0.92782 0.0
H1436 H 0.98663 0.79773 0.04296 0.0
H1437 H 0.96794 0.84789 0.00902 0.0
H1438 H 0.01823 0.81216 0.00283 0.0
H1439 H 0.99919 0.86224 0.96946 0.0
H1440 H 0.0479 0.87915 0.89026 0.0
H1441 H 0.0132 0.85258 0.92059 0.0
H1442 H 0.05635 0.84996 0.99708 0.0
H1443 H 0.09137 0.87626 0.96598 0.0
C1444 C 0.98885 0.81135 0.02633 0.0
C1445 C 0.97484 0.82169 0.02902 0.0
C1446 C 0.00706 0.81975 0.00365 0.0
C1447 C 0.01123 0.83834 0.98299 0.0
C1448 C 0.99631 0.84769 0.98465 0.0
C1449 C 0.97842 0.83954 0.00743 0.0
C1450 C 0.05002 0.87249 0.91321 0.0
C1451 C 0.07234 0.88008 0.92604 0.0
C1452 C 0.03012 0.8573 0.93061 0.0
C1453 C 0.03202 0.84957 0.96153 0.0
C1454 C 0.05432 0.85558 0.97327 0.0
C1455 C 0.07437 0.87067 0.95554 0.0
H1456 H 0.13555 0.22363 0.94692 0.0
H1457 H 0.09522 0.14909 0.93185 0.0
H1458 H 0.1654 0.21868 0.97498 0.0
H1459 H 0.12435 0.14423 0.96014 0.0
H1460 H 0.18019 0.13605 -0.00212 0.0
H1461 H 0.16281 0.15019 0.95812 0.0
H1462 H 0.16927 0.20278 0.02611 0.0
H1463 H 0.18774 0.18925 0.06494 0.0
C1464 C 0.13304 0.20625 0.94949 0.0
C1465 C 0.11285 0.18677 0.93727 0.0
C1466 C 0.15015 0.20342 0.96555 0.0
C1467 C 0.14745 0.18109 0.96955 0.0
C1468 C 0.12741 0.16177 0.95686 0.0
C1469 C 0.11044 0.16456 0.94093 0.0
C1470 C 0.1789 0.15135 0.00353 0.0
C1471 C 0.18534 0.16171 0.03417 0.0
C1472 C 0.16864 0.15925 0.98106 0.0
C1473 C 0.16405 0.17723 0.98926 0.0
C1474 C 0.17257 0.18897 0.01889 0.0
C1475 C 0.18317 0.18126 0.04116 0.0
H1476 H 0.90842 0.78317 0.52591 0.0
H1477 H 0.95329 0.8273 0.60233 0.0
H1478 H 0.94286 0.79117 0.49389 0.0
H1479 H 0.98743 0.83474 0.57102 0.0
H1480 H 0.03063 0.8771 0.48172 0.0
H1481 H 1.00022 0.8595 0.5224 0.0
H1482 H 0.9811 0.79097 0.48634 0.0
H1483 H 0.01208 0.80893 0.4452 0.0
C1484 C 0.92559 0.79386 0.53632 0.0
C1485 C 0.92824 0.80501 0.56626 0.0
C1486 C 0.9453 0.79839 0.51807 0.0
C1487 C 0.96783 0.81396 0.52973 0.0
C1488 C 0.9703 0.82307 0.56113 0.0
C1489 C 0.95074 0.81879 0.57907 0.0
C1490 C 0.02033 0.85825 0.48299 0.0
C1491 C 0.02369 0.84435 0.46048 0.0
C1492 C 0.00295 0.84812 0.50639 0.0
C1493 C 0.98827 0.82381 0.50765 0.0
C1494 C 0.99217 0.80975 0.48589 0.0
C1495 C 0.00996 0.81997 0.46262 0.0
H1496 H 0.12181 0.15318 0.48356 0.0
H1497 H 0.19053 0.20291 0.44877 0.0
H1498 H 0.13878 0.13899 0.52322 0.0
H1499 H 0.20782 0.18863 0.48902 0.0
H1500 H 0.21641 0.12428 0.52654 0.0
H1501 H 0.20793 0.15069 0.49526 0.0
H1502 H 0.16261 0.14886 0.57188 0.0
H1503 H 0.17046 0.12215 0.60234 0.0
C1504 C 0.14064 0.16147 0.485 0.0
C1505 C 0.15485 0.17915 0.46317 0.0
C1506 C 0.15042 0.15342 0.50784 0.0
C1507 C 0.17469 0.16269 0.50931 0.0
C1508 C 0.18906 0.1811 0.48837 0.0
C1509 C 0.17921 0.18943 0.46562 0.0
C1510 C 0.20515 0.13006 0.53695 0.0
C1511 C 0.19373 0.12083 0.56653 0.0
C1512 C 0.20034 0.14523 0.51913 0.0
C1513 C 0.18423 0.15148 0.53086 0.0
C1514 C 0.17466 0.14394 0.56186 0.0
C1515 C 0.17921 0.12866 0.57934 0.0
H1516 H 0.91972 0.06423 0.54695 0.0
H1517 H 0.86421 0.0795 0.56301 0.0
H1518 H 0.89301 0.0289 0.51867 0.0
H1519 H 0.83694 0.04327 0.535 0.0
H1520 H 0.80797 0.99128 0.44513 0.0
H1521 H 0.82781 0.02469 0.48169 0.0
H1522 H 0.86129 0.99103 0.52932 0.0
H1523 H 0.84241 0.95843 0.49172 0.0
C1524 C 0.90171 0.05997 0.54465 0.0
C1525 C 0.89411 0.07469 0.55746 0.0
C1526 C 0.88627 0.03948 0.52865 0.0
C1527 C 0.86264 0.03288 0.5252 0.0
C1528 C 0.85501 0.04781 0.53734 0.0
C1529 C 0.87063 0.06856 0.55331 0.0
C1530 C 0.81895 0.99077 0.4642 0.0
C1531 C 0.82383 0.97244 0.46563 0.0
C1532 C 0.8304 0.00993 0.48507 0.0
C1533 C 0.84665 0.01084 0.50786 0.0
C1534 C 0.84948 0.99125 0.51135 0.0
C1535 C 0.83845 0.97242 0.49015 0.0
H1536 H 0.80422 0.28966 0.33169 0.0
H1537 H 0.8537 0.33762 0.26257 0.0
H1538 H 0.81903 0.32049 0.37261 0.0
H1539 H 0.86779 0.36888 0.30258 0.0
H1540 H 0.89023 0.42255 0.38201 0.0
H1541 H 0.88544 0.38821 0.35287 0.0
H1542 H 0.8118 0.35205 0.37515 0.0
H1543 H 0.81658 0.38558 0.4046 0.0
C1544 C 0.81882 0.30665 0.32571 0.0
C1545 C 0.82791 0.31143 0.29424 0.0
C1546 C 0.82711 0.3244 0.34889 0.0
C1547 C 0.8442 0.34735 0.34065 0.0
C1548 C 0.8547 0.35147 0.30989 0.0
C1549 C 0.84661 0.33361 0.28689 0.0
C1550 C 0.87309 0.40714 0.38094 0.0
C1551 C 0.85377 0.407 0.39537 0.0
C1552 C 0.87035 0.38747 0.36423 0.0
C1553 C 0.84826 0.36727 0.36175 0.0
C1554 C 0.82918 0.36702 0.37706 0.0
C1555 C 0.8319 0.38652 0.39366 0.0
H1556 H 0.6145 0.43225 0.40049 0.0
H1557 H 0.57821 0.4701 0.3813 0.0
H1558 H 0.64798 0.46115 0.37133 0.0
H1559 H 0.6126 0.49987 0.35239 0.0
H1560 H 0.66411 0.52104 0.26246 0.0
H1561 H 0.63249 0.5032 0.30192 0.0
H1562 H 0.67978 0.4996 0.37085 0.0
H1563 H 0.71086 0.51611 0.3304 0.0
C1564 C 0.61368 0.4469 0.39033 0.0
C1565 C 0.59342 0.44862 0.39304 0.0
C1566 C 0.63319 0.46379 0.37389 0.0
C1567 C 0.63321 0.48309 0.35974 0.0
C1568 C 0.61315 0.48518 0.36292 0.0
C1569 C 0.59345 0.46813 0.37948 0.0
C1570 C 0.66783 0.51714 0.2865 0.0
C1571 C 0.68974 0.51979 0.29358 0.0
C1572 C 0.64974 0.50695 0.30916 0.0
C1573 C 0.65341 0.49941 0.33933 0.0
C1574 C 0.67617 0.50459 0.34751 0.0
C1575 C 0.69409 0.51435 0.32462 0.0
H1576 H 0.54067 0.1158 0.36138 0.0
H1577 H 0.54119 0.16023 0.43829 0.0
H1578 H 0.51387 0.12379 0.33033 0.0
H1579 H 0.51402 0.1676 0.40799 0.0
H1580 H 0.51194 0.20986 0.31943 0.0
H1581 H 0.5248 0.19224 0.35996 0.0
H1582 H 0.47599 0.12378 0.32301 0.0
H1583 H 0.46302 0.14175 0.28195 0.0
C1584 C 0.53436 0.12653 0.37213 0.0
C1585 C 0.54332 0.13778 0.40188 0.0
C1586 C 0.51897 0.13107 0.35443 0.0
C1587 C 0.51223 0.14673 0.36647 0.0
C1588 C 0.51932 0.1559 0.39777 0.0
C1589 C 0.53484 0.15163 0.41515 0.0
C1590 C 0.50352 0.19101 0.32047 0.0
C1591 C 0.48651 0.17716 0.29763 0.0
C1592 C 0.51079 0.18086 0.34382 0.0
C1593 C 0.5014 0.15656 0.34476 0.0
C1594 C 0.48356 0.14254 0.32281 0.0
C1595 C 0.476 0.15278 0.29957 0.0
H1596 H 0.6244 0.44802 0.84019 0.0
H1597 H 0.65656 0.51586 0.88516 0.0
H1598 H 0.65683 0.46176 0.80228 0.0
H1599 H 0.68981 0.52947 0.84829 0.0
H1600 H 0.74407 0.54786 0.76634 0.0
H1601 H 0.70787 0.53854 0.79473 0.0
H1602 H 0.69505 0.46878 0.81249 0.0
H1603 H 0.73034 0.47776 0.78379 0.0
C1604 C 0.63822 0.46607 0.84137 0.0
C1605 C 0.6381 0.48089 0.86551 0.0
C1606 C 0.65694 0.4739 0.81998 0.0
C1607 C 0.67628 0.49651 0.8229 0.0
C1608 C 0.67523 0.51196 0.84535 0.0
C1609 C 0.65617 0.50422 0.86641 0.0
C1610 C 0.73347 0.53058 0.77642 0.0
C1611 C 0.74001 0.51351 0.77256 0.0
C1612 C 0.71274 0.52523 0.79262 0.0
C1613 C 0.69826 0.50275 0.8053 0.0
C1614 C 0.70527 0.48602 0.80211 0.0
C1615 C 0.72573 0.49127 0.78586 0.0
H1616 H 0.45644 0.20855 0.79506 0.0
H1617 H 0.50804 0.21642 0.7245 0.0
H1618 H 0.46557 0.18307 0.82731 0.0
H1619 H 0.51664 0.19061 0.75599 0.0
H1620 H 0.48514 0.13321 0.87594 0.0
H1621 H 0.4684 0.14666 0.83378 0.0
H1622 H 0.53775 0.20074 0.80726 0.0
H1623 H 0.55422 0.18737 0.84876 0.0
C1624 C 0.46914 0.20421 0.78593 0.0
C1625 C 0.48188 0.21482 0.75767 0.0
C1626 C 0.47433 0.18957 0.80431 0.0
C1627 C 0.49216 0.18523 0.79447 0.0
C1628 C 0.50319 0.19407 0.76457 0.0
C1629 C 0.49823 0.20882 0.74651 0.0
C1630 C 0.49673 0.14758 0.86046 0.0
C1631 C 0.52097 0.1593 0.86562 0.0
C1632 C 0.48716 0.15538 0.83658 0.0
C1633 C 0.50174 0.17473 0.81718 0.0
C1634 C 0.52602 0.18558 0.82141 0.0
C1635 C 0.53549 0.17801 0.84537 0.0
H1636 H 0.86922 0.3495 0.8768 0.0
H1637 H 0.81819 0.36734 0.84408 0.0
H1638 H 0.85607 0.31916 0.83483 0.0
H1639 H 0.80514 0.33741 0.80268 0.0
H1640 H 0.79013 0.29105 0.72101 0.0
H1641 H 0.81596 0.32519 0.75295 0.0
H1642 H 0.81872 0.28073 0.82727 0.0
H1643 H 0.79317 0.24634 0.79464 0.0
C1644 C 0.85569 0.34739 0.86006 0.0
C1645 C 0.84471 0.36074 0.8636 0.0
C1646 C 0.84803 0.32991 0.83631 0.0
C1647 C 0.82957 0.32587 0.81544 0.0
C1648 C 0.81961 0.34022 0.81799 0.0
C1649 C 0.827 0.35734 0.84184 0.0
C1650 C 0.79667 0.28854 0.74381 0.0
C1651 C 0.7893 0.26601 0.75562 0.0
C1652 C 0.81145 0.30812 0.76214 0.0
C1653 C 0.81898 0.30565 0.79292 0.0
C1654 C 0.81326 0.28321 0.80358 0.0
C1655 C 0.79858 0.2635 0.78497 0.0
H1656 H 0.47952 0.33025 0.39919 0.0
H1657 H 0.52698 0.37863 0.32864 0.0
H1658 H 0.46527 0.29891 0.35935 0.0
H1659 H 0.51168 0.34782 0.28775 0.0
H1660 H 0.51519 0.28447 0.25221 0.0
H1661 H 0.5195 0.31743 0.28226 0.0
H1662 H 0.44705 0.27836 0.31092 0.0
H1663 H 0.44288 0.24438 0.28132 0.0
C1664 C 0.48615 0.3343 0.37464 0.0
C1665 C 0.50442 0.35664 0.36685 0.0
C1666 C 0.47791 0.31638 0.35169 0.0
C1667 C 0.4877 0.32062 0.32044 0.0
C1668 C 0.50422 0.34373 0.31185 0.0
C1669 C 0.51279 0.3615 0.33503 0.0
C1670 C 0.49999 0.28273 0.26465 0.0
C1671 C 0.47872 0.2615 0.26462 0.0
C1672 C 0.50242 0.30195 0.28164 0.0
C1673 C 0.48361 0.30079 0.29899 0.0
C1674 C 0.46199 0.27985 0.29806 0.0
C1675 C 0.45956 0.26038 0.28103 0.0
H1676 H 0.74534 0.19395 0.26684 0.0
H1677 H 0.72468 0.24604 0.27773 0.0
H1678 H 0.70921 0.16533 0.29397 0.0
H1679 H 0.68953 0.21811 0.30497 0.0
H1680 H 0.62073 0.16602 0.33266 0.0
H1681 H 0.65291 0.18446 0.2943 0.0
H1682 H 0.68995 0.15658 0.34704 0.0
H1683 H 0.65695 0.13701 0.38429 0.0
C1684 C 0.73322 0.19933 0.27512 0.0
C1685 C 0.73785 0.22225 0.26986 0.0
C1686 C 0.71253 0.18295 0.29056 0.0
C1687 C 0.69617 0.18925 0.30098 0.0
C1688 C 0.70122 0.21232 0.29628 0.0
C1689 C 0.72163 0.22849 0.28087 0.0
C1690 C 0.63535 0.16307 0.33515 0.0
C1691 C 0.63648 0.15023 0.36133 0.0
C1692 C 0.65393 0.17386 0.3135 0.0
C1693 C 0.67436 0.17266 0.31826 0.0
C1694 C 0.67452 0.15791 0.34267 0.0
C1695 C 0.6556 0.14662 0.36395 0.0
H1696 H 0.85406 0.52323 0.39531 0.0
H1697 H 0.84607 0.46941 0.32912 0.0
H1698 H 0.83612 0.53695 0.35588 0.0
H1699 H 0.82936 0.48379 0.28871 0.0
H1700 H 0.76259 0.48339 0.26069 0.0
H1701 H 0.79129 0.47835 0.28968 0.0
H1702 H 0.83251 0.55277 0.30473 0.0
H1703 H 0.80298 0.55791 0.27599 0.0
C1704 C 0.8495 0.51513 0.3716 0.0
C1705 C 0.85136 0.49535 0.36502 0.0
C1706 C 0.83922 0.52296 0.34898 0.0
C1707 C 0.83078 0.51114 0.31937 0.0
C1708 C 0.83509 0.49291 0.31162 0.0
C1709 C 0.84496 0.48484 0.33447 0.0
C1710 C 0.77777 0.49883 0.26992 0.0
C1711 C 0.78029 0.52108 0.26613 0.0
C1712 C 0.7945 0.49593 0.28627 0.0
C1713 C 0.81446 0.51517 0.29924 0.0
C1714 C 0.81731 0.53756 0.29509 0.0
C1715 C 0.8004 0.5405 0.27863 0.0
H1716 H 0.62716 0.17396 0.93351 0.0
H1717 H 0.58202 0.12253 0.8637 0.0
H1718 H 0.66092 0.18253 0.90051 0.0
H1719 H 0.61605 0.13152 0.8301 0.0
H1720 H 0.68569 0.15018 0.78101 0.0
H1721 H 0.65547 0.13388 0.82319 0.0
H1722 H 0.67095 0.20348 0.84846 0.0
H1723 H 0.70079 0.21954 0.80683 0.0
C1724 C 0.62449 0.16417 0.91135 0.0
C1725 C 0.60189 0.14787 0.90088 0.0
C1726 C 0.64385 0.16912 0.89242 0.0
C1727 C 0.6411 0.15806 0.86241 0.0
C1728 C 0.61872 0.1403 0.85317 0.0
C1729 C 0.59923 0.13519 0.87235 0.0
C1730 C 0.68293 0.16193 0.79616 0.0
C1731 C 0.69558 0.18613 0.79067 0.0
C1732 C 0.66554 0.15261 0.82005 0.0
C1733 C 0.66087 0.16739 0.83918 0.0
C1734 C 0.67431 0.19161 0.8345 0.0
C1735 C 0.69135 0.20084 0.81049 0.0
H1736 H 0.82043 0.44281 0.91704 0.0
H1737 H 0.89123 0.46937 0.88389 0.0
H1738 H 0.8177 0.47204 0.88553 0.0
H1739 H 0.88872 0.49948 0.85287 0.0
H1740 H 0.81312 0.52506 0.83079 0.0
H1741 H 0.82826 0.51119 0.87433 0.0
H1742 H 0.86883 0.49808 0.80406 0.0
H1743 H 0.85462 0.51306 0.7614 0.0
C1744 C 0.83563 0.45518 0.90347 0.0
C1745 C 0.85589 0.45334 0.90246 0.0
C1746 C 0.83416 0.47226 0.88567 0.0
C1747 C 0.85294 0.48814 0.86643 0.0
C1748 C 0.87379 0.48731 0.86706 0.0
C1749 C 0.87526 0.47009 0.8849 0.0
C1750 C 0.82606 0.52014 0.82511 0.0
C1751 C 0.83254 0.51977 0.79292 0.0
C1752 C 0.83452 0.51192 0.84987 0.0
C1753 C 0.84932 0.50293 0.84263 0.0
C1754 C 0.85753 0.50485 0.8107 0.0
C1755 C 0.8492 0.51321 0.7861 0.0
H1756 H 0.54051 0.42056 0.86344 0.0
H1757 H 0.54332 0.37651 0.93833 0.0
H1758 H 0.51501 0.38588 0.8313 0.0
H1759 H 0.51765 0.34208 0.90674 0.0
H1760 H 0.51755 0.30064 0.81535 0.0
H1761 H 0.52988 0.3306 0.8567 0.0
H1762 H 0.47743 0.34673 0.82465 0.0
H1763 H 0.46493 0.31633 0.7829 0.0
C1764 C 0.53502 0.40348 0.87351 0.0
C1765 C 0.54426 0.40122 0.90304 0.0
C1766 C 0.52039 0.38362 0.85518 0.0
C1767 C 0.51473 0.3613 0.86629 0.0
C1768 C 0.52211 0.35907 0.89729 0.0
C1769 C 0.53679 0.3788 0.91538 0.0
C1770 C 0.50827 0.31019 0.8176 0.0
C1771 C 0.4903 0.30618 0.79598 0.0
C1772 C 0.51524 0.32729 0.8414 0.0
C1773 C 0.5046 0.34103 0.84395 0.0
C1774 C 0.48595 0.33642 0.82317 0.0
C1775 C 0.47868 0.31893 0.79953 0.0
H1776 H 0.46481 0.62758 0.6609 0.0
H1777 H 0.52349 0.66954 0.59893 0.0
H1778 H 0.47889 0.65942 0.7 0.0
H1779 H 0.53713 0.70207 0.63712 0.0
H1780 H 0.55779 0.75592 0.71958 0.0
H1781 H 0.55121 0.72099 0.68998 0.0
H1782 H 0.47687 0.6941 0.69453 0.0
H1783 H 0.48323 0.72808 0.72418 0.0
C1784 C 0.48114 0.64344 0.65624 0.0
C1785 C 0.4932 0.6462 0.62723 0.0
C1786 C 0.48908 0.6618 0.67832 0.0
C1787 C 0.5088 0.68354 0.67127 0.0
C1788 C 0.52194 0.68559 0.64338 0.0
C1789 C 0.51419 0.66698 0.62154 0.0
C1790 C 0.54007 0.74247 0.71428 0.0
C1791 C 0.52107 0.74486 0.72441 0.0
C1792 C 0.53631 0.72247 0.69737 0.0
C1793 C 0.5135 0.70451 0.69039 0.0
C1794 C 0.49466 0.70715 0.70031 0.0
C1795 C 0.49836 0.72691 0.71711 0.0
H1796 H 0.33227 0.85345 0.60363 0.0
H1797 H 0.37582 0.83821 0.66454 0.0
H1798 H 0.30037 0.83451 0.64268 0.0
H1799 H 0.34466 0.82056 0.70464 0.0
H1800 H 0.27684 0.75556 0.73059 0.0
H1801 H 0.31064 0.78374 0.7012 0.0
H1802 H 0.28152 0.82925 0.69484 0.0
H1803 H 0.24674 0.80025 0.72397 0.0
C1804 C 0.33532 0.84705 0.62621 0.0
C1805 C 0.35633 0.84719 0.6313 0.0
C1806 C 0.31707 0.83616 0.64858 0.0
C1807 C 0.31973 0.82547 0.67646 0.0
C1808 C 0.34176 0.82798 0.68297 0.0
C1809 C 0.35974 0.83836 0.66031 0.0
C1810 C 0.2775 0.77157 0.7232 0.0
C1811 C 0.25892 0.77553 0.72968 0.0
C1812 C 0.29717 0.78798 0.70657 0.0
C1813 C 0.29909 0.80904 0.69606 0.0
C1814 C 0.2806 0.81319 0.70258 0.0
C1815 C 0.26069 0.79659 0.71926 0.0
H1816 H 0.14881 0.47557 0.59566 0.0
H1817 H 0.15183 0.52577 0.66478 0.0
H1818 H 0.16718 0.46213 0.63478 0.0
H1819 H 0.16894 0.51155 0.70484 0.0
H1820 H 0.23663 0.51464 0.73531 0.0
H1821 H 0.20772 0.51899 0.70574 0.0
H1822 H 0.17025 0.44512 0.68507 0.0
H1823 H 0.20003 0.44075 0.71439 0.0
C1824 C 0.15247 0.48295 0.61983 0.0
C1825 C 0.14907 0.50168 0.6274 0.0
C1826 C 0.16295 0.47524 0.64231 0.0
C1827 C 0.17005 0.48612 0.67276 0.0
C1828 C 0.16427 0.50322 0.68131 0.0
C1829 C 0.15419 0.51117 0.65863 0.0
C1830 C 0.22224 0.49917 0.72468 0.0
C1831 C 0.22088 0.47734 0.72705 0.0
C1832 C 0.20536 0.50166 0.708 0.0
C1833 C 0.18641 0.48238 0.69325 0.0
C1834 C 0.18467 0.46036 0.69605 0.0
C1835 C 0.20172 0.45785 0.71286 0.0
H1836 H 0.38497 0.81942 0.08978 0.0
H1837 H 0.42245 0.89268 0.11453 0.0
H1838 H 0.35156 0.81445 0.11984 0.0
H1839 H 0.38826 0.88771 0.14433 0.0
H1840 H 0.33789 0.85494 0.23463 0.0
H1841 H 0.36905 0.86928 0.19444 0.0
H1842 H 0.32015 0.82199 0.12359 0.0
H1843 H 0.28937 0.80696 0.16461 0.0
C1844 C 0.38604 0.83462 0.10133 0.0
C1845 C 0.40663 0.85642 0.10004 0.0
C1846 C 0.36662 0.8318 0.11829 0.0
C1847 C 0.36707 0.8507 0.13442 0.0
C1848 C 0.38737 0.87275 0.13233 0.0
C1849 C 0.40695 0.8756 0.11523 0.0
C1850 C 0.33375 0.84822 0.21012 0.0
C1851 C 0.31141 0.82988 0.20253 0.0
C1852 C 0.35156 0.85647 0.18702 0.0
C1853 C 0.34725 0.84646 0.15591 0.0
C1854 C 0.32419 0.82971 0.14754 0.0
C1855 C 0.30647 0.8213 0.1708 0.0
H1856 H 0.11841 0.53976 0.13721 0.0
H1857 H 0.16241 0.54089 0.05922 0.0
H1858 H 0.12705 0.51315 0.16761 0.0
H1859 H 0.17044 0.51397 0.08887 0.0
H1860 H 0.21333 0.51153 0.17657 0.0
H1861 H 0.19542 0.52454 0.13664 0.0
H1862 H 0.12717 0.4752 0.17368 0.0
H1863 H 0.14542 0.46207 0.21407 0.0
C1864 C 0.12923 0.53367 0.12612 0.0
C1865 C 0.14013 0.54272 0.0962 0.0
C1866 C 0.13413 0.51839 0.14343 0.0
C1867 C 0.14981 0.51184 0.13086 0.0
C1868 C 0.15872 0.51911 0.0995 0.0
C1869 C 0.15409 0.53451 0.08249 0.0
C1870 C 0.19447 0.50299 0.17559 0.0
C1871 C 0.18075 0.48579 0.19827 0.0
C1872 C 0.18415 0.51037 0.15263 0.0
C1873 C 0.15983 0.50091 0.15199 0.0
C1874 C 0.14595 0.48284 0.17369 0.0
C1875 C 0.15634 0.47517 0.19651 0.0
H1876 H 0.52493 0.67198 0.22508 0.0
H1877 H 0.50714 0.71383 0.1646 0.0
H1878 H 0.5066 0.63989 0.18625 0.0
H1879 H 0.49005 0.68247 0.1247 0.0
H1880 H 0.42582 0.61325 0.1008 0.0
H1881 H 0.45379 0.64774 0.12918 0.0
H1882 H 0.50129 0.62091 0.13414 0.0
H1883 H 0.47256 0.58546 0.10602 0.0
C1884 C 0.51815 0.67467 0.20259 0.0
C1885 C 0.51738 0.69523 0.1976 0.0
C1886 C 0.50759 0.65629 0.18036 0.0
C1887 C 0.49631 0.65837 0.15271 0.0
C1888 C 0.49796 0.68003 0.1462 0.0
C1889 C 0.50803 0.69813 0.16873 0.0
C1890 C 0.44222 0.61455 0.10769 0.0
C1891 C 0.44682 0.5964 0.10113 0.0
C1892 C 0.4585 0.63463 0.12372 0.0
C1893 C 0.48005 0.63739 0.13355 0.0
C1894 C 0.48485 0.61934 0.12691 0.0
C1895 C 0.46839 0.59904 0.11082 0.0
H1896 H 0.18184 0.61079 0.59539 0.0
H1897 H 0.10791 0.57397 0.61619 0.0
H1898 H 0.18651 0.644 0.62539 0.0
H1899 H 0.11262 0.60809 0.64598 0.0
H1900 H 0.14359 0.65924 0.7361 0.0
H1901 H 0.12977 0.62773 0.69646 0.0
H1902 H 0.17945 0.6756 0.62683 0.0
H1903 H 0.19403 0.70662 0.66741 0.0
C1904 C 0.16643 0.6098 0.60607 0.0
C1905 C 0.14448 0.58948 0.60354 0.0
C1906 C 0.1691 0.62914 0.62301 0.0
C1907 C 0.14991 0.62894 0.63786 0.0
C1908 C 0.12779 0.60881 0.63491 0.0
C1909 C 0.12509 0.58927 0.61785 0.0
C1910 C 0.15095 0.66308 0.71192 0.0
C1911 C 0.16985 0.68516 0.70461 0.0
C1912 C 0.14302 0.64507 0.68915 0.0
C1913 C 0.15386 0.64897 0.65866 0.0
C1914 C 0.17113 0.67184 0.65038 0.0
C1915 C 0.17929 0.6897 0.67335 0.0
H1916 H 0.33959 0.48259 0.73261 0.0
H1917 H 0.29109 0.48368 0.66404 0.0
H1918 H 0.37084 0.50066 0.69269 0.0
H1919 H 0.32185 0.50039 0.62312 0.0
H1920 H 0.38549 0.56801 0.58999 0.0
H1921 H 0.35264 0.53907 0.62011 0.0
H1922 H 0.39066 0.50351 0.64277 0.0
H1923 H 0.42443 0.53341 0.613 0.0
C1924 C 0.33548 0.48578 0.70841 0.0
C1925 C 0.31313 0.48194 0.70122 0.0
C1926 C 0.35334 0.49607 0.68545 0.0
C1927 C 0.34903 0.50252 0.65485 0.0
C1928 C 0.32594 0.49626 0.64674 0.0
C1929 C 0.30823 0.48639 0.66991 0.0
C1930 C 0.387 0.55401 0.60113 0.0
C1931 C 0.40783 0.55328 0.59927 0.0
C1932 C 0.36787 0.5371 0.61815 0.0
C1933 C 0.36879 0.51872 0.63372 0.0
C1934 C 0.38939 0.51751 0.63123 0.0
C1935 C 0.40873 0.53463 0.61414 0.0
H1936 H 0.52254 0.81335 0.66622 0.0
H1937 H 0.51531 0.85729 0.73676 0.0
H1938 H 0.50624 0.82732 0.62449 0.0
H1939 H 0.49785 0.87038 0.69591 0.0
H1940 H 0.46653 0.8917 0.6163 0.0
H1941 H 0.49684 0.88901 0.64665 0.0
H1942 H 0.46671 0.8169 0.61774 0.0
H1943 H 0.43725 0.81972 0.58699 0.0
C1944 C 0.51812 0.82658 0.67244 0.0
C1945 C 0.51998 0.83422 0.7045 0.0
C1946 C 0.5085 0.83436 0.64876 0.0
C1947 C 0.50015 0.84953 0.65699 0.0
C1948 C 0.50409 0.85876 0.68857 0.0
C1949 C 0.51396 0.85117 0.71209 0.0
C1950 C 0.46662 0.87539 0.6161 0.0
C1951 C 0.44921 0.85585 0.59954 0.0
C1952 C 0.48397 0.87384 0.63354 0.0
C1953 C 0.48428 0.85274 0.63471 0.0
C1954 C 0.4674 0.83358 0.61701 0.0
C1955 C 0.4502 0.83513 0.59964 0.0
H1956 H 0.24844 0.44362 0.21835 0.0
H1957 H 0.28839 0.51591 0.2475 0.0
H1958 H 0.28216 0.44797 0.18806 0.0
H1959 H 0.32125 0.52042 0.21666 0.0
H1960 H 0.38142 0.52818 0.16582 0.0
H1961 H 0.35183 0.51287 0.2085 0.0
H1962 H 0.30086 0.4664 0.13891 0.0
H1963 H 0.3309 0.48075 0.09725 0.0
C1964 C 0.2644 0.46034 0.21856 0.0
C1965 C 0.26551 0.47948 0.23498 0.0
C1966 C 0.28371 0.46287 0.20112 0.0
C1967 C 0.3045 0.48458 0.19973 0.0
C1968 C 0.30582 0.50331 0.21749 0.0
C1969 C 0.28669 0.50078 0.23493 0.0
C1970 C 0.36411 0.51399 0.16023 0.0
C1971 C 0.35824 0.50567 0.12846 0.0
C1972 C 0.34705 0.50541 0.18445 0.0
C1973 C 0.32373 0.48883 0.17701 0.0
C1974 C 0.31854 0.47908 0.14571 0.0
C1975 C 0.3357 0.48741 0.1217 0.0
H1976 H 0.48469 0.77093 0.24271 0.0
H1977 H 0.55792 0.80615 0.21772 0.0
H1978 H 0.47998 0.79953 0.21305 0.0
H1979 H 0.55329 0.83578 0.18856 0.0
H1980 H 0.52163 0.85441 0.09851 0.0
H1981 H 0.53586 0.83778 0.13908 0.0
H1982 H 0.48671 0.83755 0.20839 0.0
H1983 H 0.47156 0.85271 0.16674 0.0
C1984 C 0.49997 0.78502 0.23128 0.0
C1985 C 0.52165 0.78594 0.23226 0.0
C1986 C 0.4973 0.80176 0.21454 0.0
C1987 C 0.51626 0.82016 0.19842 0.0
C1988 C 0.53825 0.82173 0.20044 0.0
C1989 C 0.54092 0.80477 0.21721 0.0
C1990 C 0.51442 0.8514 0.12276 0.0
C1991 C 0.49548 0.85459 0.12968 0.0
C1992 C 0.52262 0.84197 0.14612 0.0
C1993 C 0.51207 0.83576 0.17688 0.0
C1994 C 0.49479 0.84147 0.18467 0.0
C1995 C 0.4863 0.85045 0.16107 0.0
H1996 H 0.19347 0.74489 0.22942 0.0
H1997 H 0.24807 0.72809 0.21496 0.0
H1998 H 0.16586 0.70864 0.20145 0.0
H1999 H 0.22112 0.69284 0.18697 0.0
H2000 H 0.17036 0.62262 0.16109 0.0
H2001 H 0.18875 0.65532 0.19861 0.0
H2002 H 0.15718 0.68959 0.14772 0.0
H2003 H 0.13777 0.65606 0.11117 0.0
C2004 C 0.19961 0.73361 0.22014 0.0
C2005 C 0.22293 0.7393 0.22476 0.0
C2006 C 0.18381 0.71286 0.20422 0.0
C2007 C 0.19112 0.69751 0.19268 0.0
C2008 C 0.2146 0.70372 0.19654 0.0
C2009 C 0.23019 0.72417 0.21241 0.0
C2010 C 0.16668 0.63676 0.15877 0.0
C2011 C 0.15275 0.63692 0.13334 0.0
C2012 C 0.17741 0.65563 0.17995 0.0
C2013 C 0.17503 0.67542 0.17552 0.0
C2014 C 0.1594 0.67467 0.1518 0.0
C2015 C 0.14822 0.65545 0.13094 0.0
H2016 H 0.1851 0.18727 0.34005 0.0
H2017 H 0.1239 0.18108 0.29359 0.0
H2018 H 0.1943 0.17273 0.29068 0.0
H2019 H 0.13342 0.16707 0.24392 0.0
H2020 H 0.19464 0.18763 0.15976 0.0
H2021 H 0.1791 0.19529 0.20948 0.0
H2022 H 0.16719 0.13014 0.24975 0.0
H2023 H 0.1822 0.12222 0.19974 0.0
C2024 C 0.17347 0.1824 0.31942 0.0
C2025 C 0.1536 0.18479 0.3206 0.0
C2026 C 0.17867 0.1741 0.29135 0.0
C2027 C 0.16451 0.16885 0.26379 0.0
C2028 C 0.14449 0.17097 0.26504 0.0
C2029 C 0.13901 0.17882 0.29336 0.0
C2030 C 0.18841 0.17489 0.17913 0.0
C2031 C 0.18905 0.15416 0.17588 0.0
C2032 C 0.17948 0.17918 0.20735 0.0
C2033 C 0.17185 0.16316 0.23306 0.0
C2034 C 0.17284 0.14259 0.23003 0.0
C2035 C 0.18132 0.13808 0.20154 0.0
H2036 H 0.81998 0.94149 0.29516 0.0
H2037 H 0.81586 0.99701 0.34363 0.0
H2038 H 0.83351 0.96511 0.24561 0.0
H2039 H 0.8299 0.02087 0.29431 0.0
H2040 H 0.81278 0.00375 0.16184 0.0
H2041 H 0.8065 0.98109 0.21171 0.0
H2042 H 0.86947 0.03761 0.25244 0.0
H2043 H 0.87604 0.06001 0.20222 0.0
C2044 C 0.82263 0.95901 0.29539 0.0
C2045 C 0.81727 0.9677 0.32312 0.0
C2046 C 0.8302 0.97239 0.26713 0.0
C2047 C 0.83268 0.9947 0.26637 0.0
C2048 C 0.82825 0.00375 0.29453 0.0
C2049 C 0.82021 0.99017 0.32257 0.0
C2050 C 0.82536 0.01111 0.18135 0.0
C2051 C 0.84512 0.03326 0.17815 0.0
C2052 C 0.82187 0.9982 0.20967 0.0
C2053 C 0.83765 0.00764 0.23559 0.0
C2054 C 0.8572 0.02999 0.23261 0.0
C2055 C 0.86096 0.04269 0.204 0.0
H2056 H 0.99878 0.81538 0.15231 0.0
H2057 H 0.9429 0.81984 0.19912 0.0
H2058 H 0.02257 0.83045 0.20156 0.0
H2059 H 0.96646 0.8344 0.24864 0.0
H2060 H 0.00584 0.81581 0.33418 0.0
H2061 H 0.98299 0.80835 0.28422 0.0
H2062 H 0.03887 0.87098 0.24182 0.0
H2063 H 0.06147 0.87873 0.29212 0.0
C2064 C 0.99183 0.82 0.17299 0.0
C2065 C 0.96929 0.8169 0.17198 0.0
C2066 C 0.00538 0.82863 0.20099 0.0
C2067 C 0.99622 0.8335 0.22867 0.0
C2068 C 0.97382 0.83076 0.22748 0.0
C2069 C 0.96047 0.8226 0.19924 0.0
C2070 C 0.01302 0.82807 0.31429 0.0
C2071 C 0.03505 0.84806 0.31701 0.0
C2072 C 0.99999 0.8239 0.28591 0.0
C2073 C 0.00921 0.83924 0.25949 0.0
C2074 C 0.03142 0.85905 0.26203 0.0
C2075 C 0.04423 0.86347 0.29069 0.0
H2076 H 0.81931 0.8148 0.65487 0.0
H2077 H 0.8787 0.81643 0.7005 0.0
H2078 H 0.81199 0.83074 0.70436 0.0
H2079 H 0.87113 0.83191 0.75026 0.0
H2080 H 0.82104 0.87839 0.79273 0.0
H2081 H 0.83586 0.87011 0.74289 0.0
H2082 H 0.83108 0.80906 0.7879 0.0
H2083 H 0.8158 0.81711 0.83749 0.0
C2084 C 0.83095 0.81894 0.67537 0.0
C2085 C 0.84977 0.81488 0.67392 0.0
C2086 C 0.82686 0.82809 0.7035 0.0
C2087 C 0.84106 0.83252 0.73091 0.0
C2088 C 0.86002 0.82865 0.72934 0.0
C2089 C 0.86438 0.81994 0.70097 0.0
C2090 C 0.82358 0.86345 0.79203 0.0
C2091 C 0.81777 0.84856 0.8189 0.0
C2092 C 0.83192 0.8587 0.76362 0.0
C2093 C 0.83468 0.83907 0.76182 0.0
C2094 C 0.82934 0.82447 0.78896 0.0
C2095 C 0.82055 0.82896 0.81714 0.0
H2096 H 0.18885 0.00481 0.65581 0.0
H2097 H 0.18445 0.0609 0.70199 0.0
H2098 H 0.17283 0.98088 0.70472 0.0
H2099 H 0.16893 0.03719 0.75123 0.0
H2100 H 0.1239 0.94026 0.79143 0.0
H2101 H 0.13232 0.96402 0.7422 0.0
H2102 H 0.19237 0.02026 0.7891 0.0
H2103 H 0.18423 0.99627 0.83801 0.0
C2104 C 0.18412 0.01181 0.67632 0.0
C2105 C 0.18738 0.03439 0.67515 0.0
C2106 C 0.17492 0.99817 0.70412 0.0
C2107 C 0.16964 0.00726 0.73152 0.0
C2108 C 0.17283 0.02985 0.7303 0.0
C2109 C 0.18157 0.0433 0.70223 0.0
C2110 C 0.13864 0.95786 0.79128 0.0
C2111 C 0.15325 0.96672 0.81846 0.0
C2112 C 0.14347 0.97134 0.76322 0.0
C2113 C 0.16289 0.99391 0.7621 0.0
C2114 C 0.17715 0.00297 0.78961 0.0
C2115 C 0.17259 0.9893 0.81741 0.0
H2116 H 0.99343 0.19144 0.66347 0.0
H2117 H 0.94384 0.1233 0.70003 0.0
H2118 H 0.01566 0.20001 0.71427 0.0
H2119 H 0.96605 0.13193 0.75085 0.0
H2120 H 0.05478 0.17856 0.80043 0.0
H2121 H 0.0316 0.16481 0.75047 0.0
H2122 H 0.9819 0.18203 0.79036 0.0
H2123 H 0.00506 0.19579 0.84037 0.0
C2124 C 0.98748 0.17829 0.68228 0.0
C2125 C 0.96739 0.15654 0.67774 0.0
C2126 C 1.00014 0.18314 0.71112 0.0
C2127 C 0.9925 0.16649 0.73599 0.0
C2128 C 0.97224 0.14486 0.73172 0.0
C2129 C 0.95971 0.13993 0.70274 0.0
C2130 C 0.0386 0.17883 0.79875 0.0
C2131 C 0.03128 0.18763 0.82434 0.0
C2132 C 0.02552 0.17116 0.77023 0.0
C2133 C 0.00508 0.17235 0.76699 0.0
C2134 C 0.99757 0.18084 0.79269 0.0
C2135 C 0.01075 0.18869 0.82108 0.0
H2136 H 0.78886 0.51303 0.63003 0.0
H2137 H 0.85724 0.5323 0.66647 0.0
H2138 H 0.7976 0.49947 0.57927 0.0
H2139 H 0.86591 0.51865 0.61574 0.0
H2140 H 0.86131 0.52406 0.48953 0.0
H2141 H 0.84743 0.53365 0.53929 0.0
H2142 H 0.83098 0.46727 0.58028 0.0
H2143 H 0.84485 0.45766 0.53061 0.0
C2144 C 0.80558 0.51397 0.62729 0.0
C2145 C 0.82221 0.52306 0.65226 0.0
C2146 C 0.81056 0.50638 0.59836 0.0
C2147 C 0.83229 0.50795 0.59408 0.0
C2148 C 0.84897 0.51715 0.6189 0.0
C2149 C 0.84407 0.52496 0.64769 0.0
C2150 C 0.85434 0.51142 0.50901 0.0
C2151 C 0.85355 0.48995 0.50616 0.0
C2152 C 0.84642 0.51685 0.53726 0.0
C2153 C 0.83814 0.50108 0.5632 0.0
C2154 C 0.83717 0.47953 0.56034 0.0
C2155 C 0.84491 0.47403 0.53198 0.0
H2156 H 0.48929 0.27623 0.62528 0.0
H2157 H 0.48229 0.33051 0.67253 0.0
H2158 H 0.5027 0.29984 0.57569 0.0
H2159 H 0.49623 0.35436 0.62317 0.0
H2160 H 0.48081 0.33866 0.49171 0.0
H2161 H 0.47417 0.31574 0.54144 0.0
H2162 H 0.53795 0.37117 0.58197 0.0
H2163 H 0.54489 0.39383 0.53191 0.0
C2164 C 0.49124 0.29347 0.62523 0.0
C2165 C 0.48519 0.30185 0.65265 0.0
C2166 C 0.49875 0.30684 0.59695 0.0
C2167 C 0.50048 0.3288 0.59591 0.0
C2168 C 0.49518 0.33751 0.62368 0.0
C2169 C 0.4872 0.32393 0.65172 0.0
C2170 C 0.4935 0.34571 0.51112 0.0
C2171 C 0.51356 0.36764 0.50796 0.0
C2172 C 0.48979 0.33265 0.53935 0.0
C2173 C 0.50568 0.34176 0.56517 0.0
C2174 C 0.5256 0.36384 0.56219 0.0
C2175 C 0.52956 0.37667 0.53368 0.0
H2176 H 0.66429 0.1479 0.48433 0.0
H2177 H 0.6089 0.15284 0.53181 0.0
H2178 H 0.68896 0.16447 0.53252 0.0
H2179 H 0.63337 0.16903 0.58019 0.0
H2180 H 0.6731 0.15433 0.66729 0.0
H2181 H 0.64945 0.14607 0.61804 0.0
H2182 H 0.70712 0.20411 0.56993 0.0
H2183 H 0.73057 0.21264 0.61951 0.0
C2184 C 0.65763 0.15294 0.50491 0.0
C2185 C 0.63497 0.14952 0.50439 0.0
C2186 C 0.67169 0.16246 0.53231 0.0
C2187 C 0.66297 0.16795 0.55992 0.0
C2188 C 0.64042 0.16491 0.55914 0.0
C2189 C 0.62654 0.15581 0.53152 0.0
C2190 C 0.68049 0.16549 0.64631 0.0
C2191 C 0.70333 0.18437 0.64719 0.0
C2192 C 0.66702 0.16087 0.6183 0.0
C2193 C 0.6765 0.17457 0.59039 0.0
C2194 C 0.69945 0.19339 0.59122 0.0
C2195 C 0.71275 0.1983 0.61949 0.0
H2196 H 0.5487 0.15411 0.03682 0.0
H2197 H 0.48877 0.15002 0.98926 0.0
H2198 H 0.53903 0.16789 0.08657 0.0
H2199 H 0.47941 0.16434 0.0387 0.0
H2200 H 0.48008 0.1491 0.17119 0.0
H2201 H 0.49659 0.14215 0.12195 0.0
H2202 H 0.50299 0.20446 0.07898 0.0
H2203 H 0.487 0.2117 0.12853 0.0
C2204 C 0.53381 0.15673 0.03686 0.0
C2205 C 0.51965 0.15146 0.00926 0.0
C2206 C 0.52825 0.16446 0.06523 0.0
C2207 C 0.50857 0.16719 0.06622 0.0
C2208 C 0.4948 0.16255 0.0383 0.0
C2209 C 0.50008 0.15434 0.01018 0.0
C2210 C 0.48539 0.16144 0.15137 0.0
C2211 C 0.48279 0.18113 0.15368 0.0
C2212 C 0.49489 0.15756 0.1234 0.0
C2213 C 0.50111 0.17288 0.09694 0.0
C2214 C 0.4984 0.19252 0.0992 0.0
C2215 C 0.48937 0.19666 0.12745 0.0
H2216 H 0.8509 0.33494 0.98747 0.0
H2217 H 0.84441 0.38969 0.0342 0.0
H2218 H 0.83683 0.31128 0.037 0.0
H2219 H 0.83086 0.36627 0.08392 0.0
H2220 H 0.85273 0.32737 0.16816 0.0
H2221 H 0.85979 0.34984 0.11786 0.0
H2222 H 0.79474 0.29544 0.07883 0.0
H2223 H 0.78742 0.27326 0.12943 0.0
C2224 C 0.84603 0.34164 0.00817 0.0
C2225 C 0.84825 0.36382 0.00706 0.0
C2226 C 0.838 0.32819 0.03632 0.0
C2227 C 0.83286 0.3371 0.06399 0.0
C2228 C 0.8347 0.35912 0.06273 0.0
C2229 C 0.84227 0.37237 0.03437 0.0
C2230 C 0.8399 0.32044 0.14892 0.0
C2231 C 0.81933 0.29899 0.1527 0.0
C2232 C 0.84385 0.33323 0.12037 0.0
C2233 C 0.82766 0.32431 0.09486 0.0
C2234 C 0.80732 0.30263 0.09837 0.0
C2235 C 0.80314 0.29008 0.12719 0.0
H2236 H 0.66228 0.51385 0.98695 0.0
H2237 H 0.60651 0.45486 0.03616 0.0
H2238 H 0.68633 0.52369 0.0361 0.0
H2239 H 0.63034 0.46502 0.08557 0.0
H2240 H 0.67124 0.5259 0.16799 0.0
H2241 H 0.64784 0.50937 0.11868 0.0
H2242 H 0.70222 0.49932 0.07809 0.0
H2243 H 0.72534 0.5153 0.12772 0.0
C2244 C 0.65541 0.50282 0.00815 0.0
C2245 C 0.63284 0.48342 0.00784 0.0
C2246 C 0.6691 0.50838 0.03609 0.0
C2247 C 0.66006 0.49507 0.06438 0.0
C2248 C 0.6376 0.47545 0.06393 0.0
C2249 C 0.6241 0.46961 0.03576 0.0
C2250 C 0.67796 0.51985 0.14865 0.0
C2251 C 0.69972 0.5213 0.1517 0.0
C2252 C 0.66462 0.51035 0.12066 0.0
C2253 C 0.67327 0.50298 0.09494 0.0
C2254 C 0.69521 0.50477 0.09779 0.0
C2255 C 0.70831 0.5138 0.12607 0.0
H2256 H 0.45764 0.84744 0.96377 0.0
H2257 H 0.5232 0.86287 0.0068 0.0
H2258 H 0.46762 0.8334 0.91456 0.0
H2259 H 0.53303 0.84853 0.95772 0.0
H2260 H 0.53112 0.85853 0.82888 0.0
H2261 H 0.5161 0.86648 0.87885 0.0
H2262 H 0.50281 0.80069 0.91846 0.0
H2263 H 0.5175 0.79255 0.86823 0.0
C2264 C 0.47389 0.84724 0.96293 0.0
C2265 C 0.4895 0.85572 0.98912 0.0
C2266 C 0.4796 0.83935 0.93486 0.0
C2267 C 0.50096 0.83984 0.93274 0.0
C2268 C 0.51636 0.84784 0.95915 0.0
C2269 C 0.5108 0.85605 0.98702 0.0
C2270 C 0.52471 0.84571 0.84815 0.0
C2271 C 0.52484 0.82472 0.84462 0.0
C2272 C 0.51611 0.85019 0.87652 0.0
C2273 C 0.50822 0.83406 0.90207 0.0
C2274 C 0.50866 0.81322 0.89882 0.0
C2275 C 0.51692 0.80857 0.8702 0.0
H2276 H 0.20916 0.72297 0.87026 0.0
H2277 H 0.14488 0.6684 0.82965 0.0
H2278 H 0.20158 0.70035 0.9205 0.0
H2279 H 0.13759 0.6455 0.87956 0.0
H2280 H 0.15064 0.60503 0.96355 0.0
H2281 H 0.1648 0.62866 0.91405 0.0
H2282 H 0.16043 0.68436 0.9616 0.0
H2283 H 0.14573 0.6605 0.01085 0.0
C2284 C 0.19363 0.70595 0.87199 0.0
C2285 C 0.17779 0.69706 0.84608 0.0
C2286 C 0.1893 0.69314 0.90061 0.0
C2287 C 0.16917 0.67121 0.90352 0.0
C2288 C 0.15338 0.66228 0.87755 0.0
C2289 C 0.15746 0.67533 0.84921 0.0
C2290 C 0.15323 0.62253 0.96354 0.0
C2291 C 0.14751 0.63122 0.99094 0.0
C2292 C 0.16116 0.63591 0.93531 0.0
C2293 C 0.16365 0.65821 0.93428 0.0
C2294 C 0.15878 0.66725 0.96207 0.0
C2295 C 0.15037 0.65366 0.99007 0.0
H2296 H 0.39161 0.54497 0.96297 0.0
H2297 H 0.34097 0.47883 0.00397 0.0
H2298 H 0.36838 0.53555 0.91303 0.0
H2299 H 0.31756 0.46959 0.9542 0.0
H2300 H 0.27702 0.48517 0.86657 0.0
H2301 H 0.30006 0.49988 0.91659 0.0
H2302 H 0.35334 0.48841 0.87532 0.0
H2303 H 0.33015 0.47335 0.82554 0.0
C2304 C 0.37526 0.52866 0.96146 0.0
C2305 C 0.36769 0.51277 0.98735 0.0
C2306 C 0.36212 0.52328 0.933 0.0
C2307 C 0.34125 0.50199 0.93021 0.0
C2308 C 0.33353 0.48622 0.95618 0.0
C2309 C 0.34687 0.49143 0.98443 0.0
C2310 C 0.29387 0.48624 0.86808 0.0
C2311 C 0.30219 0.47868 0.84218 0.0
C2312 C 0.30689 0.4945 0.89659 0.0
C2313 C 0.32838 0.49531 0.89939 0.0
C2314 C 0.33686 0.48808 0.87335 0.0
C2315 C 0.32366 0.47947 0.84509 0.0
H2316 H 0.1496 0.54172 0.46236 0.0
H2317 H 0.14095 0.47768 0.50227 0.0
H2318 H 0.16501 0.53472 0.41198 0.0
H2319 H 0.1569 0.47098 0.45225 0.0
H2320 H 0.14926 0.47761 0.32195 0.0
H2321 H 0.13935 0.49164 0.37126 0.0
H2322 H 0.20181 0.50077 0.41747 0.0
H2323 H 0.21197 0.48725 0.36795 0.0
C2324 C 0.15143 0.5264 0.46046 0.0
C2325 C 0.14466 0.51044 0.48619 0.0
C2326 C 0.16011 0.52239 0.43177 0.0
C2327 C 0.16225 0.50247 0.42865 0.0
C2328 C 0.15561 0.4866 0.45445 0.0
C2329 C 0.14647 0.49035 0.48285 0.0
C2330 C 0.16104 0.48312 0.34245 0.0
C2331 C 0.18153 0.48184 0.34118 0.0
C2332 C 0.15545 0.49115 0.37046 0.0
C2333 C 0.1699 0.49725 0.39785 0.0
C2334 C 0.19053 0.49623 0.39648 0.0
C2335 C 0.19635 0.48864 0.36824 0.0
H2336 H 0.52003 0.66446 0.50277 0.0
H2337 H 0.45742 0.60886 0.45995 0.0
H2338 H 0.52777 0.68743 0.45289 0.0
H2339 H 0.46548 0.63161 0.4097 0.0
H2340 H 0.51407 0.72619 0.366 0.0
H2341 H 0.49956 0.70268 0.41555 0.0
H2342 H 0.50916 0.64902 0.37144 0.0
H2343 H 0.52418 0.67278 0.32211 0.0
C2344 C 0.50785 0.65735 0.48277 0.0
C2345 C 0.48791 0.63526 0.48521 0.0
C2346 C 0.5122 0.67043 0.45443 0.0
C2347 C 0.49711 0.6612 0.42779 0.0
C2348 C 0.47723 0.63902 0.43012 0.0
C2349 C 0.47261 0.62615 0.45874 0.0
C2350 C 0.51264 0.70917 0.36678 0.0
C2351 C 0.51978 0.70097 0.34027 0.0
C2352 C 0.50447 0.69585 0.39502 0.0
C2353 C 0.5032 0.67412 0.39697 0.0
C2354 C 0.5098 0.66566 0.37018 0.0
C2355 C 0.51842 0.6792 0.34218 0.0
H2356 H 0.38878 0.84536 0.46292 0.0
H2357 H 0.3351 0.85458 0.50779 0.0
H2358 H 0.36539 0.8316 0.41311 0.0
H2359 H 0.3115 0.84034 0.45825 0.0
H2360 H 0.27325 0.7885 0.36674 0.0
H2361 H 0.29564 0.79621 0.41725 0.0
H2362 H 0.34891 0.86192 0.37843 0.0
H2363 H 0.32627 0.85446 0.32819 0.0
C2364 C 0.3717 0.8438 0.46234 0.0
C2365 C 0.36342 0.85055 0.48917 0.0
C2366 C 0.35847 0.8361 0.43393 0.0
C2367 C 0.33676 0.83494 0.43217 0.0
C2368 C 0.32815 0.84096 0.45933 0.0
C2369 C 0.34158 0.84909 0.48749 0.0
C2370 C 0.28988 0.80444 0.36897 0.0
C2371 C 0.29843 0.82071 0.34354 0.0
C2372 C 0.30256 0.80883 0.39774 0.0
C2373 C 0.32397 0.82948 0.40128 0.0
C2374 C 0.33252 0.84574 0.37588 0.0
C2375 C 0.31962 0.84156 0.34736 0.0
H2376 H 0.26527 0.13666 0.18382 0.0
H2377 H 0.29428 0.16107 0.08862 0.0
H2378 H 0.3038 0.14751 0.2044 0.0
H2379 H 0.33274 0.17084 0.10865 0.0
H2380 H 0.40245 0.2085 0.16011 0.0
H2381 H 0.36368 0.19785 0.14047 0.0
H2382 H 0.33358 0.1386 0.2053 0.0
H2383 H 0.37223 0.15007 0.22599 0.0
C2384 C 0.27986 0.14396 0.16713 0.0
C2385 C 0.27676 0.14803 0.13461 0.0
C2386 C 0.30201 0.15012 0.1789 0.0
C2387 C 0.32158 0.16019 0.15831 0.0
C2388 C 0.31827 0.16365 0.12549 0.0
C2389 C 0.29616 0.15782 0.11386 0.0
C2390 C 0.38749 0.19332 0.17031 0.0
C2391 C 0.39038 0.18018 0.19467 0.0
C2392 C 0.36523 0.18703 0.15882 0.0
C2393 C 0.34532 0.16721 0.17105 0.0
C2394 C 0.34833 0.15418 0.19559 0.0
C2395 C 0.37055 0.16069 0.20742 0.0
H2396 H 0.80241 0.20613 0.14551 0.0
H2397 H 0.82664 0.20148 0.24083 0.0
H2398 H 0.81323 0.17843 0.12502 0.0
H2399 H 0.83638 0.17276 0.22087 0.0
H2400 H 0.87388 0.14052 0.16936 0.0
H2401 H 0.86345 0.16885 0.18892 0.0
H2402 H 0.80392 0.13961 0.12452 0.0
H2403 H 0.81515 0.11225 0.10392 0.0
C2404 C 0.80966 0.19882 0.16224 0.0
C2405 C 0.81368 0.20597 0.19477 0.0
C2406 C 0.81581 0.18284 0.15052 0.0
C2407 C 0.8258 0.1733 0.17119 0.0
C2408 C 0.82924 0.18006 0.20401 0.0
C2409 C 0.82343 0.19636 0.21559 0.0
C2410 C 0.85869 0.14034 0.15923 0.0
C2411 C 0.84539 0.12426 0.13503 0.0
C2412 C 0.85254 0.15642 0.17066 0.0
C2413 C 0.83271 0.15652 0.15852 0.0
C2414 C 0.81952 0.14042 0.13413 0.0
C2415 C 0.8259 0.12462 0.12236 0.0
H2416 H 0.79403 0.59866 0.14226 0.0
H2417 H 0.79838 0.62803 0.23715 0.0
H2418 H 0.82271 0.63693 0.12191 0.0
H2419 H 0.82798 0.66614 0.2174 0.0
H2420 H 0.86105 0.7356 0.16581 0.0
H2421 H 0.83237 0.69701 0.18507 0.0
H2422 H 0.86185 0.66629 0.12189 0.0
H2423 H 0.88973 0.70491 0.10151 0.0
C2424 C 0.80144 0.61327 0.15891 0.0
C2425 C 0.79391 0.61039 0.19126 0.0
C2426 C 0.81799 0.63524 0.14729 0.0
C2427 C 0.82768 0.6548 0.16789 0.0
C2428 C 0.82056 0.65167 0.20055 0.0
C2429 C 0.80373 0.62977 0.21201 0.0
C2430 C 0.86128 0.72056 0.15592 0.0
C2431 C 0.87759 0.72326 0.13212 0.0
C2432 C 0.84497 0.6984 0.16718 0.0
C2433 C 0.84482 0.6784 0.15531 0.0
C2434 C 0.86114 0.68118 0.13131 0.0
C2435 C 0.87722 0.70334 0.11968 0.0
H2436 H 0.17283 0.37417 0.25759 0.0
H2437 H 0.19603 0.40234 0.3535 0.0
H2438 H 0.16337 0.33568 0.27698 0.0
H2439 H 0.18551 0.36374 0.37341 0.0
H2440 H 0.18459 0.29577 0.39322 0.0
H2441 H 0.19546 0.33454 0.37345 0.0
H2442 H 0.13635 0.30431 0.30832 0.0
H2443 H 0.1263 0.26554 0.32703 0.0
C2444 C 0.17581 0.37209 0.28287 0.0
C2445 C 0.18521 0.39126 0.304 0.0
C2446 C 0.17019 0.34997 0.29411 0.0
C2447 C 0.17349 0.34643 0.3269 0.0
C2448 C 0.18305 0.36575 0.34793 0.0
C2449 C 0.18899 0.38792 0.33655 0.0
C2450 C 0.17389 0.29746 0.37476 0.0
C2451 C 0.15462 0.27763 0.36163 0.0
C2452 C 0.18005 0.31972 0.36348 0.0
C2453 C 0.16686 0.3227 0.33913 0.0
C2454 C 0.14727 0.30277 0.32653 0.0
C2455 C 0.14134 0.28051 0.33747 0.0
H2456 H 0.62761 0.80006 0.2575 0.0
H2457 H 0.59875 0.79447 0.35307 0.0
H2458 H 0.66605 0.8286 0.27763 0.0
H2459 H 0.63732 0.82206 0.37374 0.0
H2460 H 0.73568 0.85976 0.32844 0.0
H2461 H 0.69681 0.8318 0.30916 0.0
H2462 H 0.6672 0.86097 0.37487 0.0
H2463 H 0.70608 0.88811 0.39521 0.0
C2464 C 0.62952 0.80491 0.28286 0.0
C2465 C 0.61018 0.79506 0.30369 0.0
C2466 C 0.65162 0.82112 0.29453 0.0
C2467 C 0.65498 0.82758 0.32746 0.0
C2468 C 0.63546 0.81785 0.34817 0.0
C2469 C 0.61331 0.80192 0.33636 0.0
C2470 C 0.72083 0.86006 0.3389 0.0
C2471 C 0.72391 0.87608 0.36336 0.0
C2472 C 0.69851 0.84417 0.32762 0.0
C2473 C 0.67873 0.84416 0.34017 0.0
C2474 C 0.6819 0.86016 0.36489 0.0
C2475 C 0.70422 0.87581 0.37651 0.0
H2476 H 0.20568 0.80356 0.35099 0.0
H2477 H 0.20087 0.82798 0.2559 0.0
H2478 H 0.17881 0.8153 0.37209 0.0
H2479 H 0.17296 0.83864 0.27646 0.0
H2480 H 0.14249 0.87759 0.32801 0.0
H2481 H 0.17009 0.86624 0.30831 0.0
H2482 H 0.14046 0.80736 0.3738 0.0
H2483 H 0.11382 0.81953 0.39454 0.0
C2484 C 0.1985 0.81103 0.33444 0.0
C2485 C 0.20539 0.81486 0.30179 0.0
C2486 C 0.18298 0.81772 0.34651 0.0
C2487 C 0.17367 0.82809 0.32611 0.0
C2488 C 0.18012 0.83125 0.29316 0.0
C2489 C 0.19594 0.8249 0.28123 0.0
C2490 C 0.14209 0.86237 0.3384 0.0
C2491 C 0.12606 0.84951 0.3629 0.0
C2492 C 0.15775 0.85567 0.32686 0.0
C2493 C 0.15748 0.8357 0.33917 0.0
C2494 C 0.14153 0.82303 0.36399 0.0
C2495 C 0.12615 0.82996 0.37587 0.0
H2496 H 0.73745 0.86007 0.80803 0.0
H2497 H 0.70889 0.83627 0.90361 0.0
H2498 H 0.69892 0.84938 0.78779 0.0
H2499 H 0.67037 0.82665 0.88387 0.0
H2500 H 0.60021 0.7915 0.8332 0.0
H2501 H 0.63869 0.8004 0.85208 0.0
H2502 H 0.67041 0.86003 0.78799 0.0
H2503 H 0.63207 0.85032 0.76807 0.0
C2504 C 0.72294 0.85285 0.82484 0.0
C2505 C 0.72619 0.84905 0.85742 0.0
C2506 C 0.7008 0.8468 0.81327 0.0
C2507 C 0.68138 0.83716 0.83412 0.0
C2508 C 0.68475 0.83361 0.86688 0.0
C2509 C 0.70688 0.83932 0.87833 0.0
C2510 C 0.61546 0.80636 0.82297 0.0
C2511 C 0.61314 0.82015 0.79906 0.0
C2512 C 0.63755 0.81163 0.83401 0.0
C2513 C 0.65781 0.83104 0.82175 0.0
C2514 C 0.65535 0.8447 0.79764 0.0
C2515 C 0.63331 0.8392 0.78627 0.0
H2516 H 0.17013 0.79463 0.75723 0.0
H2517 H 0.19486 0.79113 0.85269 0.0
H2518 H 0.16139 0.82429 0.77612 0.0
H2519 H 0.18504 0.81982 0.87217 0.0
H2520 H 0.18432 0.88698 0.89099 0.0
H2521 H 0.19498 0.85891 0.8713 0.0
H2522 H 0.1349 0.82916 0.8079 0.0
H2523 H 0.12506 0.85808 0.82647 0.0
C2524 C 0.17364 0.80019 0.78229 0.0
C2525 C 0.18321 0.79061 0.80346 0.0
C2526 C 0.16842 0.81704 0.79326 0.0
C2527 C 0.1723 0.82442 0.82582 0.0
C2528 C 0.18213 0.81492 0.84684 0.0
C2529 C 0.18769 0.79836 0.83572 0.0
C2530 C 0.17337 0.87437 0.87293 0.0
C2531 C 0.15388 0.87473 0.86024 0.0
C2532 C 0.17941 0.85817 0.86169 0.0
C2533 C 0.16587 0.8417 0.83786 0.0
C2534 C 0.14608 0.84185 0.8257 0.0
C2535 C 0.14027 0.8583 0.83656 0.0
H2536 H 0.22092 0.36922 0.77034 0.0
H2537 H 0.19372 0.40142 0.8345 0.0
H2538 H 0.19279 0.33104 0.79142 0.0
H2539 H 0.16468 0.36313 0.85452 0.0
H2540 H 0.12535 0.26412 0.81315 0.0
H2541 H 0.1536 0.30223 0.79202 0.0
H2542 H 0.16001 0.3322 0.88725 0.0
H2543 H 0.13076 0.29417 0.90784 0.0
C2544 C 0.20864 0.36808 0.7886 0.0
C2545 C 0.20952 0.38829 0.80079 0.0
C2546 C 0.1924 0.34614 0.80064 0.0
C2547 C 0.17638 0.34386 0.82482 0.0
C2548 C 0.17701 0.36416 0.83646 0.0
C2549 C 0.19351 0.38613 0.82476 0.0
C2550 C 0.1329 0.27885 0.82959 0.0
C2551 C 0.12584 0.27618 0.86214 0.0
C2552 C 0.14921 0.30074 0.81751 0.0
C2553 C 0.15916 0.32045 0.83783 0.0
C2554 C 0.15241 0.31759 0.87064 0.0
C2555 C 0.1358 0.29573 0.88258 0.0
H2556 H 0.87315 0.73202 0.66774 0.0
H2557 H 0.81423 0.70282 0.60261 0.0
H2558 H 0.86154 0.69321 0.6879 0.0
H2559 H 0.80184 0.66401 0.62384 0.0
H2560 H 0.80017 0.59541 0.64571 0.0
H2561 H 0.81048 0.63374 0.62487 0.0
H2562 H 0.83374 0.66313 0.72042 0.0
H2563 H 0.82447 0.62491 0.74075 0.0
C2564 C 0.85764 0.71727 0.65783 0.0
C2565 C 0.84463 0.72043 0.63356 0.0
C2566 C 0.85081 0.695 0.66963 0.0
C2567 C 0.83057 0.67537 0.6578 0.0
C2568 C 0.81767 0.6786 0.63328 0.0
C2569 C 0.82472 0.70087 0.62114 0.0
C2570 C 0.80728 0.61004 0.66231 0.0
C2571 C 0.81161 0.6072 0.69482 0.0
C2572 C 0.81314 0.63205 0.65039 0.0
C2573 C 0.82317 0.65169 0.67084 0.0
C2574 C 0.82661 0.64857 0.70372 0.0
C2575 C 0.82108 0.62661 0.71551 0.0
H2576 H 0.29836 0.11394 0.60247 0.0
H2577 H 0.2682 0.14263 0.66774 0.0
H2578 H 0.33709 0.14172 0.62229 0.0
H2579 H 0.30704 0.17129 0.68652 0.0
H2580 H 0.37713 0.20431 0.73739 0.0
H2581 H 0.33842 0.17558 0.71813 0.0
H2582 H 0.36625 0.18084 0.62169 0.0
H2583 H 0.40499 0.20857 0.64143 0.0
C2584 C 0.30006 0.12646 0.62072 0.0
C2585 C 0.28027 0.12612 0.63357 0.0
C2586 C 0.32231 0.14249 0.63203 0.0
C2587 C 0.32532 0.15883 0.65611 0.0
C2588 C 0.30544 0.15871 0.66848 0.0
C2589 C 0.28316 0.14241 0.6575 0.0
C2590 C 0.37493 0.19915 0.71214 0.0
C2591 C 0.39407 0.20859 0.69095 0.0
C2592 C 0.3527 0.18284 0.70098 0.0
C2593 C 0.34907 0.17587 0.66825 0.0
C2594 C 0.36835 0.18539 0.64715 0.0
C2595 C 0.3906 0.2014 0.65843 0.0
H2596 H 0.87342 0.13663 0.68357 0.0
H2597 H 0.86879 0.16029 0.58784 0.0
H2598 H 0.84565 0.14757 0.70365 0.0
H2599 H 0.8401 0.17017 0.60738 0.0
H2600 H 0.81036 0.21006 0.65763 0.0
H2601 H 0.83775 0.19827 0.63887 0.0
H2602 H 0.80692 0.13941 0.70436 0.0
H2603 H 0.78031 0.15202 0.72419 0.0
C2604 C 0.86609 0.14375 0.66667 0.0
C2605 C 0.87335 0.1477 0.63416 0.0
C2606 C 0.85008 0.14997 0.67815 0.0
C2607 C 0.8407 0.15999 0.65728 0.0
C2608 C 0.84736 0.16308 0.62442 0.0
C2609 C 0.86364 0.15719 0.61308 0.0
C2610 C 0.80958 0.19471 0.66818 0.0
C2611 C 0.79322 0.18198 0.6924 0.0
C2612 C 0.82513 0.18776 0.65718 0.0
C2613 C 0.82446 0.16768 0.66976 0.0
C2614 C 0.80821 0.15512 0.69433 0.0
C2615 C 0.79288 0.16229 0.70568 0.0
H2616 H 0.03574 0.48197 0.5608 0.0
H2617 H 0.06793 0.54156 0.49702 0.0
H2618 H 0.99751 0.47219 0.54011 0.0
H2619 H 0.02962 0.53256 0.47739 0.0
H2620 H 0.96065 0.49741 0.42391 0.0
H2621 H 0.9987 0.50625 0.44453 0.0
H2622 H 0.96874 0.48274 0.53975 0.0
H2623 H 0.9306 0.47285 0.5186 0.0
C2624 C 0.03459 0.49321 0.54272 0.0
C2625 C 0.05481 0.51251 0.53049 0.0
C2626 C 0.01263 0.48767 0.53091 0.0
C2627 C 0.01035 0.5015 0.50691 0.0
C2628 C 0.03065 0.52117 0.49531 0.0
C2629 C 0.05263 0.5265 0.50679 0.0
C2630 C 0.96222 0.49398 0.44917 0.0
C2631 C 0.94266 0.48437 0.46961 0.0
C2632 C 0.98408 0.49926 0.46113 0.0
C2633 C 0.98694 0.49538 0.49394 0.0
C2634 C 0.96723 0.48563 0.51427 0.0
C2635 C 0.94534 0.48004 0.50218 0.0
H2636 H 0.45778 0.52704 0.49574 0.0
H2637 H 0.51763 0.55568 0.55916 0.0
H2638 H 0.46737 0.49811 0.47636 0.0
H2639 H 0.52803 0.52762 0.53867 0.0
H2640 H 0.52859 0.46056 0.51762 0.0
H2641 H 0.51834 0.48859 0.53855 0.0
H2642 H 0.49371 0.49373 0.4435 0.0
H2643 H 0.5029 0.46471 0.42315 0.0
C2644 C 0.47304 0.52717 0.50546 0.0
C2645 C 0.48692 0.54357 0.529 0.0
C2646 C 0.47871 0.51073 0.49412 0.0
C2647 C 0.49863 0.51055 0.50567 0.0
C2648 C 0.51237 0.52691 0.52951 0.0
C2649 C 0.50647 0.5431 0.54121 0.0
C2650 C 0.52109 0.46779 0.50119 0.0
C2651 C 0.51652 0.46044 0.46876 0.0
C2652 C 0.51528 0.48397 0.51315 0.0
C2653 C 0.50509 0.49348 0.49282 0.0
C2654 C 0.50103 0.48645 0.46012 0.0
C2655 C 0.50651 0.46997 0.44831 0.0
H2656 H 0.54236 0.06627 0.51992 0.0
H2657 H 0.53766 0.03719 0.42472 0.0
H2658 H 0.51404 0.02792 0.54029 0.0
H2659 H 0.50835 0.99893 0.44453 0.0
H2660 H 0.47273 0.9291 0.49556 0.0
H2661 H 0.50261 0.96739 0.47672 0.0
H2662 H 0.47461 0.99969 0.53961 0.0
H2663 H 0.44559 0.96145 0.55953 0.0
C2664 C 0.53502 0.05168 0.50324 0.0
C2665 C 0.54219 0.05471 0.47073 0.0
C2666 C 0.51866 0.02967 0.51487 0.0
C2667 C 0.50876 0.01019 0.49411 0.0
C2668 C 0.51586 0.01336 0.46144 0.0
C2669 C 0.53253 0.03533 0.44995 0.0
C2670 C 0.47311 0.94443 0.50547 0.0
C2671 C 0.45688 0.94231 0.52905 0.0
C2672 C 0.49012 0.9664 0.49448 0.0
C2673 C 0.49105 0.98676 0.50645 0.0
C2674 C 0.47477 0.98452 0.53019 0.0
C2675 C 0.45802 0.96256 0.54154 0.0
H2676 H 0.54681 0.07088 0.00072 0.0
H2677 H 0.4891 0.04208 0.93355 0.0
H2678 H 0.5354 0.03183 0.01975 0.0
H2679 H 0.47687 0.00305 0.95362 0.0
H2680 H 0.4739 0.93407 0.97583 0.0
H2681 H 0.48538 0.97273 0.95499 0.0
H2682 H 0.50719 0.00141 0.05121 0.0
H2683 H 0.49677 0.9629 0.07152 0.0
C2684 C 0.53163 0.05616 0.99009 0.0
C2685 C 0.51887 0.05952 0.96564 0.0
C2686 C 0.52491 0.03375 0.00122 0.0
C2687 C 0.50501 0.01417 0.98853 0.0
C2688 C 0.49244 0.0176 0.96372 0.0
C2689 C 0.49939 0.04001 0.95225 0.0
C2690 C 0.48101 0.94864 0.99252 0.0
C2691 C 0.48452 0.9455 0.02527 0.0
C2692 C 0.48754 0.97084 0.98062 0.0
C2693 C 0.49741 0.99036 0.00131 0.0
C2694 C 0.5002 0.98697 0.03433 0.0
C2695 C 0.49402 0.96484 0.04609 0.0
H2696 H 0.92973 0.45601 0.02124 0.0
H2697 H 0.95842 0.4611 0.92566 0.0
H2698 H 0.96827 0.48375 0.04166 0.0
H2699 H 0.9969 0.48983 0.94558 0.0
H2700 H 0.06675 0.52292 0.99661 0.0
H2701 H 0.02811 0.49419 0.97741 0.0
H2702 H 0.99737 0.52292 0.04188 0.0
H2703 H 0.03599 0.55082 0.06213 0.0
C2704 C 0.94427 0.46333 0.00448 0.0
C2705 C 0.94107 0.45637 0.97185 0.0
C2706 C 0.9664 0.47937 0.01615 0.0
C2707 C 0.98585 0.48914 0.99535 0.0
C2708 C 0.9825 0.48237 0.96253 0.0
C2709 C 0.96039 0.46604 0.95098 0.0
C2710 C 0.05169 0.52295 0.0068 0.0
C2711 C 0.05437 0.53906 0.03092 0.0
C2712 C 0.02951 0.50661 0.99559 0.0
C2713 C 0.00948 0.50623 0.00787 0.0
C2714 C 0.01227 0.52236 0.03216 0.0
C2715 C 0.03444 0.53846 0.04373 0.0
H2716 H 0.52537 0.45798 0.0016 0.0
H2717 H 0.55428 0.51536 0.93392 0.0
H2718 H 0.49813 0.46982 0.02092 0.0
H2719 H 0.52784 0.52801 0.95426 0.0
H2720 H 0.46163 0.53089 0.97665 0.0
H2721 H 0.48902 0.51963 0.9559 0.0
H2722 H 0.49623 0.49827 0.05223 0.0
H2723 H 0.46794 0.50847 0.07248 0.0
C2724 C 0.52594 0.4732 0.99093 0.0
C2725 C 0.54192 0.48572 0.96623 0.0
C2726 C 0.51047 0.48016 0.00223 0.0
C2727 C 0.51087 0.50007 0.98947 0.0
C2728 C 0.52676 0.51244 0.96444 0.0
C2729 C 0.542 0.50524 0.95281 0.0
C2730 C 0.46924 0.52396 0.9934 0.0
C2731 C 0.46259 0.52047 0.02615 0.0
C2732 C 0.48503 0.51756 0.98154 0.0
C2733 C 0.49478 0.50782 0.00227 0.0
C2734 C 0.48868 0.50514 0.03532 0.0
C2735 C 0.47262 0.51121 0.04705 0.0
loop_
_geom_bond_atom_site_label_1
_geom_bond_atom_site_label_2
_geom_bond_distance
_geom_bond_site_symmetry_2
_ccdc_geom_bond_type
Mn0 O5 2.095 . S
Mn0 O15 2.162 . S
Mn0 O16 2.297 . S
Mn0 O24 2.385 . S
Mn0 O25 2.209 . S
Mn0 O26 2.094 . S
Mn1 O6 2.121 . S
Mn1 N8 2.257 . S
Mn1 N17 2.282 . S
Mn1 O25 2.215 . S
Mn1 O27 2.117 . S
C2 O24 1.234 . S
C2 O25 1.283 . S
C3 O15 1.281 . S
C3 O16 1.236 . S
C4 O26 1.240 . S
C4 O27 1.264 . S
O5 Mn0 2.095 . S
O5 C14 1.250 . S
O6 Mn1 2.121 . S
O6 C14 1.258 . S
C7 N8 1.326 . S
C7 C11 1.460 . S
C7 H13 0.929 . S
N8 Mn1 2.257 . S
N8 C7 1.326 . S
N8 C12 1.362 . S
C9 C10 1.258 . S
C9 C12 1.431 . S
C9 C29 1.449 . S
C10 C9 1.258 . S
C10 C11 1.477 . S
C10 H30 0.931 . S
C11 C7 1.460 . S
C11 C10 1.477 . S
C11 H31 0.930 . S
C12 N8 1.362 . S
C12 C9 1.431 . S
C12 C22 1.476 . S
H13 C7 0.929 . S
C14 O5 1.250 . S
C14 O6 1.258 . S
O15 Mn0 2.162 . S
O15 C3 1.281 . S
O16 Mn0 2.297 . S
O16 C3 1.236 . S
N17 Mn1 2.282 . S
N17 C18 1.328 . S
N17 C22 1.318 . S
C18 N17 1.328 . S
C18 C19 1.457 . S
C18 H23 0.929 . S
C19 C18 1.457 . S
C19 C20 1.291 . S
C19 H32 0.931 . S
C20 C19 1.291 . S
C20 C21 1.373 . S
C20 H33 0.929 . S
C21 C20 1.373 . S
C21 C22 1.396 . S
C21 C28 1.403 . S
C22 C12 1.476 . S
C22 N17 1.318 . S
C22 C21 1.396 . S
H23 C18 0.929 . S
O24 Mn0 2.385 . S
O24 C2 1.234 . S
O25 Mn0 2.209 . S
O25 Mn1 2.215 . S
O25 C2 1.283 . S
O26 Mn0 2.094 . S
O26 C4 1.240 . S
O27 Mn1 2.117 . S
O27 C4 1.264 . S
C28 C21 1.403 . S
C28 C29 1.399 . S
C28 H34 0.929 . S
C29 C9 1.449 . S
C29 C28 1.399 . S
C29 H35 0.930 . S
H30 C10 0.931 . S
H31 C11 0.930 . S
H32 C19 0.931 . S
H33 C20 0.929 . S
H34 C28 0.929 . S
H35 C29 0.930 . S
Mn36 O41 2.095 . S
Mn36 O51 2.162 . S
Mn36 O52 2.297 . S
Mn36 O60 2.385 . S
Mn36 O61 2.209 . S
Mn36 O62 2.094 . S
Mn37 O42 2.121 . S
Mn37 N44 2.257 . S
Mn37 N53 2.282 . S
Mn37 O61 2.215 . S
Mn37 O63 2.117 . S
C38 O60 1.234 . S
C38 O61 1.283 . S
C39 O51 1.281 . S
C39 O52 1.236 . S
C40 O62 1.240 . S
C40 O63 1.264 . S
O41 Mn36 2.095 . S
O41 C50 1.250 . S
O42 Mn37 2.121 . S
O42 C50 1.258 . S
C43 N44 1.326 . S
C43 C47 1.460 . S
C43 H49 0.929 . S
N44 Mn37 2.257 . S
N44 C43 1.326 . S
N44 C48 1.362 . S
C45 C46 1.258 . S
C45 C48 1.431 . S
C45 C65 1.449 . S
C46 C45 1.258 . S
C46 C47 1.477 . S
C46 H66 0.931 . S
C47 C43 1.460 . S
C47 C46 1.477 . S
C47 H67 0.930 . S
C48 N44 1.362 . S
C48 C45 1.431 . S
C48 C58 1.476 . S
H49 C43 0.929 . S
C50 O41 1.250 . S
C50 O42 1.258 . S
O51 Mn36 2.162 . S
O51 C39 1.281 . S
O52 Mn36 2.297 . S
O52 C39 1.236 . S
N53 Mn37 2.282 . S
N53 C54 1.328 1_545 S
N53 C58 1.318 . S
C54 N53 1.328 1_565 S
C54 C55 1.457 . S
C54 H59 0.929 . S
C55 C54 1.457 . S
C55 C56 1.291 . S
C55 H68 0.931 . S
C56 C55 1.291 . S
C56 C57 1.373 . S
C56 H69 0.929 . S
C57 C56 1.373 . S
C57 C58 1.396 1_565 S
C57 C64 1.403 . S
C58 C48 1.476 . S
C58 N53 1.318 . S
C58 C57 1.396 1_545 S
H59 C54 0.929 . S
O60 Mn36 2.385 . S
O60 C38 1.234 . S
O61 Mn36 2.209 . S
O61 Mn37 2.215 . S
O61 C38 1.283 . S
O62 Mn36 2.094 . S
O62 C40 1.240 . S
O63 Mn37 2.117 . S
O63 C40 1.264 . S
C64 C57 1.403 . S
C64 C65 1.399 1_565 S
C64 H70 0.929 . S
C65 C45 1.449 . S
C65 C64 1.399 1_545 S
C65 H71 0.930 . S
H66 C46 0.931 . S
H67 C47 0.930 . S
H68 C55 0.931 . S
H69 C56 0.929 . S
H70 C64 0.929 . S
H71 C65 0.930 . S
Mn72 O77 2.095 . S
Mn72 O87 2.162 . S
Mn72 O88 2.297 . S
Mn72 O96 2.385 . S
Mn72 O97 2.209 . S
Mn72 O98 2.094 . S
Mn73 O78 2.121 . S
Mn73 N80 2.257 . S
Mn73 N89 2.282 . S
Mn73 O97 2.215 . S
Mn73 O99 2.117 . S
C74 O96 1.234 . S
C74 O97 1.283 . S
C75 O87 1.281 . S
C75 O88 1.236 . S
C76 O98 1.240 . S
C76 O99 1.264 . S
O77 Mn72 2.095 . S
O77 C86 1.250 . S
O78 Mn73 2.121 . S
O78 C86 1.258 . S
C79 N80 1.326 . S
C79 C83 1.460 . S
C79 H85 0.929 . S
N80 Mn73 2.257 . S
N80 C79 1.326 . S
N80 C84 1.362 . S
C81 C82 1.258 . S
C81 C84 1.431 . S
C81 C101 1.449 . S
C82 C81 1.258 . S
C82 C83 1.477 . S
C82 H102 0.931 . S
C83 C79 1.460 . S
C83 C82 1.477 . S
C83 H103 0.930 . S
C84 N80 1.362 . S
C84 C81 1.431 . S
C84 C94 1.476 . S
H85 C79 0.929 . S
C86 O77 1.250 . S
C86 O78 1.258 . S
O87 Mn72 2.162 . S
O87 C75 1.281 . S
O88 Mn72 2.297 . S
O88 C75 1.236 . S
N89 Mn73 2.282 . S
N89 C90 1.328 1_655 S
N89 C94 1.318 . S
C90 N89 1.328 1_455 S
C90 C91 1.457 . S
C90 H95 0.929 . S
C91 C90 1.457 . S
C91 C92 1.291 . S
C91 H104 0.931 . S
C92 C91 1.291 . S
C92 C93 1.373 . S
C92 H105 0.929 . S
C93 C92 1.373 . S
C93 C94 1.396 1_455 S
C93 C100 1.403 . S
C94 C84 1.476 . S
C94 N89 1.318 . S
C94 C93 1.396 1_655 S
H95 C90 0.929 . S
O96 Mn72 2.385 . S
O96 C74 1.234 . S
O97 Mn72 2.209 . S
O97 Mn73 2.215 . S
O97 C74 1.283 . S
O98 Mn72 2.094 . S
O98 C76 1.240 . S
O99 Mn73 2.117 . S
O99 C76 1.264 . S
C100 C93 1.403 . S
C100 C101 1.399 1_455 S
C100 H106 0.929 . S
C101 C81 1.449 . S
C101 C100 1.399 1_655 S
C101 H107 0.930 . S
H102 C82 0.931 . S
H103 C83 0.930 . S
H104 C91 0.931 . S
H105 C92 0.929 . S
H106 C100 0.929 . S
H107 C101 0.930 . S
Mn108 O113 2.095 . S
Mn108 O123 2.162 . S
Mn108 O124 2.297 . S
Mn108 O132 2.385 . S
Mn108 O133 2.209 . S
Mn108 O134 2.094 . S
Mn109 O114 2.121 . S
Mn109 N116 2.257 . S
Mn109 N125 2.282 . S
Mn109 O133 2.215 . S
Mn109 O135 2.117 . S
C110 O132 1.234 . S
C110 O133 1.283 . S
C111 O123 1.281 . S
C111 O124 1.236 . S
C112 O134 1.240 . S
C112 O135 1.264 . S
O113 Mn108 2.095 . S
O113 C122 1.250 . S
O114 Mn109 2.121 . S
O114 C122 1.258 . S
C115 N116 1.326 . S
C115 C119 1.460 . S
C115 H121 0.929 . S
N116 Mn109 2.257 . S
N116 C115 1.326 . S
N116 C120 1.362 . S
C117 C118 1.258 . S
C117 C120 1.431 . S
C117 C137 1.449 . S
C118 C117 1.258 . S
C118 C119 1.477 . S
C118 H138 0.931 . S
C119 C115 1.460 . S
C119 C118 1.477 . S
C119 H139 0.930 . S
C120 N116 1.362 . S
C120 C117 1.431 . S
C120 C130 1.476 . S
H121 C115 0.929 . S
C122 O113 1.250 . S
C122 O114 1.258 . S
O123 Mn108 2.162 . S
O123 C111 1.281 . S
O124 Mn108 2.297 . S
O124 C111 1.236 . S
N125 Mn109 2.282 . S
N125 C126 1.328 . S
N125 C130 1.318 . S
C126 N125 1.328 . S
C126 C127 1.457 . S
C126 H131 0.929 . S
C127 C126 1.457 . S
C127 C128 1.291 . S
C127 H140 0.931 . S
C128 C127 1.291 . S
C128 C129 1.373 . S
C128 H141 0.929 . S
C129 C128 1.373 . S
C129 C130 1.396 . S
C129 C136 1.403 . S
C130 C120 1.476 . S
C130 N125 1.318 . S
C130 C129 1.396 . S
H131 C126 0.929 . S
O132 Mn108 2.385 . S
O132 C110 1.234 . S
O133 Mn108 2.209 . S
O133 Mn109 2.215 . S
O133 C110 1.283 . S
O134 Mn108 2.094 . S
O134 C112 1.240 . S
O135 Mn109 2.117 . S
O135 C112 1.264 . S
C136 C129 1.403 . S
C136 C137 1.399 . S
C136 H142 0.929 . S
C137 C117 1.449 . S
C137 C136 1.399 . S
C137 H143 0.930 . S
H138 C118 0.931 . S
H139 C119 0.930 . S
H140 C127 0.931 . S
H141 C128 0.929 . S
H142 C136 0.929 . S
H143 C137 0.930 . S
Mn144 O149 2.095 . S
Mn144 O159 2.162 . S
Mn144 O160 2.297 . S
Mn144 O168 2.385 . S
Mn144 O169 2.209 . S
Mn144 O170 2.094 . S
Mn145 O150 2.121 . S
Mn145 N152 2.257 . S
Mn145 N161 2.282 . S
Mn145 O169 2.215 . S
Mn145 O171 2.117 . S
C146 O168 1.234 . S
C146 O169 1.283 . S
C147 O159 1.281 . S
C147 O160 1.236 . S
C148 O170 1.240 . S
C148 O171 1.264 . S
O149 Mn144 2.095 . S
O149 C158 1.250 . S
O150 Mn145 2.121 . S
O150 C158 1.258 . S
C151 N152 1.326 . S
C151 C155 1.460 . S
C151 H157 0.929 . S
N152 Mn145 2.257 . S
N152 C151 1.326 . S
N152 C156 1.362 . S
C153 C154 1.258 . S
C153 C156 1.431 . S
C153 C173 1.449 . S
C154 C153 1.258 . S
C154 C155 1.477 . S
C154 H174 0.931 . S
C155 C151 1.460 . S
C155 C154 1.477 . S
C155 H175 0.930 . S
C156 N152 1.362 . S
C156 C153 1.431 . S
C156 C166 1.476 . S
H157 C151 0.929 . S
C158 O149 1.250 . S
C158 O150 1.258 . S
O159 Mn144 2.162 . S
O159 C147 1.281 . S
O160 Mn144 2.297 . S
O160 C147 1.236 . S
N161 Mn145 2.282 . S
N161 C162 1.328 1_565 S
N161 C166 1.318 . S
C162 N161 1.328 1_545 S
C162 C163 1.457 . S
C162 H167 0.929 . S
C163 C162 1.457 . S
C163 C164 1.291 . S
C163 H176 0.931 . S
C164 C163 1.291 . S
C164 C165 1.373 . S
C164 H177 0.929 . S
C165 C164 1.373 . S
C165 C166 1.396 1_545 S
C165 C172 1.403 . S
C166 C156 1.476 . S
C166 N161 1.318 . S
C166 C165 1.396 1_565 S
H167 C162 0.929 . S
O168 Mn144 2.385 . S
O168 C146 1.234 . S
O169 Mn144 2.209 . S
O169 Mn145 2.215 . S
O169 C146 1.283 . S
O170 Mn144 2.094 . S
O170 C148 1.240 . S
O171 Mn145 2.117 . S
O171 C148 1.264 . S
C172 C165 1.403 . S
C172 C173 1.399 1_545 S
C172 H178 0.929 . S
C173 C153 1.449 . S
C173 C172 1.399 1_565 S
C173 H179 0.930 . S
H174 C154 0.931 . S
H175 C155 0.930 . S
H176 C163 0.931 . S
H177 C164 0.929 . S
H178 C172 0.929 . S
H179 C173 0.930 . S
Mn180 O185 2.095 . S
Mn180 O195 2.162 . S
Mn180 O196 2.297 . S
Mn180 O204 2.385 . S
Mn180 O205 2.209 . S
Mn180 O206 2.094 . S
Mn181 O186 2.121 . S
Mn181 N188 2.257 . S
Mn181 N197 2.282 . S
Mn181 O205 2.215 . S
Mn181 O207 2.117 . S
C182 O204 1.234 . S
C182 O205 1.283 . S
C183 O195 1.281 . S
C183 O196 1.236 . S
C184 O206 1.240 . S
C184 O207 1.264 . S
O185 Mn180 2.095 . S
O185 C194 1.250 . S
O186 Mn181 2.121 . S
O186 C194 1.258 . S
C187 N188 1.326 . S
C187 C191 1.460 . S
C187 H193 0.929 . S
N188 Mn181 2.257 . S
N188 C187 1.326 . S
N188 C192 1.362 . S
C189 C190 1.258 . S
C189 C192 1.431 . S
C189 C209 1.449 . S
C190 C189 1.258 . S
C190 C191 1.477 . S
C190 H210 0.931 . S
C191 C187 1.460 . S
C191 C190 1.477 . S
C191 H211 0.930 . S
C192 N188 1.362 . S
C192 C189 1.431 . S
C192 C202 1.476 . S
H193 C187 0.929 . S
C194 O185 1.250 . S
C194 O186 1.258 . S
O195 Mn180 2.162 . S
O195 C183 1.281 . S
O196 Mn180 2.297 . S
O196 C183 1.236 . S
N197 Mn181 2.282 . S
N197 C198 1.328 1_455 S
N197 C202 1.318 . S
C198 N197 1.328 1_655 S
C198 C199 1.457 . S
C198 H203 0.929 . S
C199 C198 1.457 . S
C199 C200 1.291 . S
C199 H212 0.931 . S
C200 C199 1.291 . S
C200 C201 1.373 . S
C200 H213 0.929 . S
C201 C200 1.373 . S
C201 C202 1.396 1_655 S
C201 C208 1.403 . S
C202 C192 1.476 . S
C202 N197 1.318 . S
C202 C201 1.396 1_455 S
H203 C198 0.929 . S
O204 Mn180 2.385 . S
O204 C182 1.234 . S
O205 Mn180 2.209 . S
O205 Mn181 2.215 . S
O205 C182 1.283 . S
O206 Mn180 2.094 . S
O206 C184 1.240 . S
O207 Mn181 2.117 . S
O207 C184 1.264 . S
C208 C201 1.403 . S
C208 C209 1.399 1_655 S
C208 H214 0.929 . S
C209 C189 1.449 . S
C209 C208 1.399 1_455 S
C209 H215 0.930 . S
H210 C190 0.931 . S
H211 C191 0.930 . S
H212 C199 0.931 . S
H213 C200 0.929 . S
H214 C208 0.929 . S
H215 C209 0.930 . S
Mn216 O221 2.095 . S
Mn216 O231 2.162 . S
Mn216 O232 2.297 . S
Mn216 O240 2.385 . S
Mn216 O241 2.209 . S
Mn216 O242 2.094 . S
Mn217 O222 2.121 . S
Mn217 N224 2.257 . S
Mn217 N233 2.282 . S
Mn217 O241 2.215 . S
Mn217 O243 2.117 . S
C218 O240 1.234 . S
C218 O241 1.283 . S
C219 O231 1.281 . S
C219 O232 1.236 . S
C220 O242 1.240 . S
C220 O243 1.264 . S
O221 Mn216 2.095 . S
O221 C230 1.250 . S
O222 Mn217 2.121 . S
O222 C230 1.258 . S
C223 N224 1.326 . S
C223 C227 1.460 . S
C223 H229 0.929 . S
N224 Mn217 2.257 . S
N224 C223 1.326 . S
N224 C228 1.362 . S
C225 C226 1.258 . S
C225 C228 1.431 . S
C225 C245 1.449 . S
C226 C225 1.258 . S
C226 C227 1.477 . S
C226 H246 0.931 . S
C227 C223 1.460 . S
C227 C226 1.477 . S
C227 H247 0.930 . S
C228 N224 1.362 . S
C228 C225 1.431 . S
C228 C238 1.476 . S
H229 C223 0.929 . S
C230 O221 1.250 . S
C230 O222 1.258 . S
O231 Mn216 2.162 . S
O231 C219 1.281 . S
O232 Mn216 2.297 . S
O232 C219 1.236 . S
N233 Mn217 2.282 . S
N233 C234 1.328 . S
N233 C238 1.318 . S
C234 N233 1.328 . S
C234 C235 1.457 . S
C234 H239 0.929 . S
C235 C234 1.457 . S
C235 C236 1.291 . S
C235 H248 0.931 . S
C236 C235 1.291 . S
C236 C237 1.373 . S
C236 H249 0.929 . S
C237 C236 1.373 . S
C237 C238 1.396 . S
C237 C244 1.403 . S
C238 C228 1.476 . S
C238 N233 1.318 . S
C238 C237 1.396 . S
H239 C234 0.929 . S
O240 Mn216 2.385 . S
O240 C218 1.234 . S
O241 Mn216 2.209 . S
O241 Mn217 2.215 . S
O241 C218 1.283 . S
O242 Mn216 2.094 . S
O242 C220 1.240 . S
O243 Mn217 2.117 . S
O243 C220 1.264 . S
C244 C237 1.403 . S
C244 C245 1.399 . S
C244 H250 0.929 . S
C245 C225 1.449 . S
C245 C244 1.399 . S
C245 H251 0.930 . S
H246 C226 0.931 . S
H247 C227 0.930 . S
H248 C235 0.931 . S
H249 C236 0.929 . S
H250 C244 0.929 . S
H251 C245 0.930 . S
Mn252 O257 2.095 . S
Mn252 O267 2.162 . S
Mn252 O268 2.297 . S
Mn252 O276 2.385 . S
Mn252 O277 2.209 . S
Mn252 O278 2.094 . S
Mn253 O258 2.121 . S
Mn253 N260 2.257 . S
Mn253 N269 2.282 . S
Mn253 O277 2.215 . S
Mn253 O279 2.117 . S
C254 O276 1.234 . S
C254 O277 1.283 . S
C255 O267 1.281 . S
C255 O268 1.236 . S
C256 O278 1.240 . S
C256 O279 1.264 . S
O257 Mn252 2.095 . S
O257 C266 1.250 . S
O258 Mn253 2.121 . S
O258 C266 1.258 . S
C259 N260 1.326 . S
C259 C263 1.460 . S
C259 H265 0.929 . S
N260 Mn253 2.257 . S
N260 C259 1.326 . S
N260 C264 1.362 . S
C261 C262 1.258 . S
C261 C264 1.431 . S
C261 C281 1.449 . S
C262 C261 1.258 . S
C262 C263 1.477 . S
C262 H282 0.931 . S
C263 C259 1.460 . S
C263 C262 1.477 . S
C263 H283 0.930 . S
C264 N260 1.362 . S
C264 C261 1.431 . S
C264 C274 1.476 . S
H265 C259 0.929 . S
C266 O257 1.250 . S
C266 O258 1.258 . S
O267 Mn252 2.162 . S
O267 C255 1.281 . S
O268 Mn252 2.297 . S
O268 C255 1.236 . S
N269 Mn253 2.282 . S
N269 C270 1.328 1_565 S
N269 C274 1.318 . S
C270 N269 1.328 1_545 S
C270 C271 1.457 . S
C270 H275 0.929 . S
C271 C270 1.457 . S
C271 C272 1.291 . S
C271 H284 0.931 . S
C272 C271 1.291 . S
C272 C273 1.373 . S
C272 H285 0.929 . S
C273 C272 1.373 . S
C273 C274 1.396 1_545 S
C273 C280 1.403 . S
C274 C264 1.476 . S
C274 N269 1.318 . S
C274 C273 1.396 1_565 S
H275 C270 0.929 . S
O276 Mn252 2.385 . S
O276 C254 1.234 . S
O277 Mn252 2.209 . S
O277 Mn253 2.215 . S
O277 C254 1.283 . S
O278 Mn252 2.094 . S
O278 C256 1.240 . S
O279 Mn253 2.117 . S
O279 C256 1.264 . S
C280 C273 1.403 . S
C280 C281 1.399 1_545 S
C280 H286 0.929 . S
C281 C261 1.449 . S
C281 C280 1.399 1_565 S
C281 H287 0.930 . S
H282 C262 0.931 . S
H283 C263 0.930 . S
H284 C271 0.931 . S
H285 C272 0.929 . S
H286 C280 0.929 . S
H287 C281 0.930 . S
Mn288 O293 2.095 . S
Mn288 O303 2.162 . S
Mn288 O304 2.297 . S
Mn288 O312 2.385 . S
Mn288 O313 2.209 . S
Mn288 O314 2.094 . S
Mn289 O294 2.121 . S
Mn289 N296 2.257 . S
Mn289 N305 2.282 . S
Mn289 O313 2.215 . S
Mn289 O315 2.117 . S
C290 O312 1.234 . S
C290 O313 1.283 . S
C291 O303 1.281 . S
C291 O304 1.236 . S
C292 O314 1.240 . S
C292 O315 1.264 . S
O293 Mn288 2.095 . S
O293 C302 1.250 . S
O294 Mn289 2.121 . S
O294 C302 1.258 . S
C295 N296 1.326 . S
C295 C299 1.460 . S
C295 H301 0.929 . S
N296 Mn289 2.257 . S
N296 C295 1.326 . S
N296 C300 1.362 . S
C297 C298 1.258 . S
C297 C300 1.431 . S
C297 C317 1.449 . S
C298 C297 1.258 . S
C298 C299 1.477 . S
C298 H318 0.931 . S
C299 C295 1.460 . S
C299 C298 1.477 . S
C299 H319 0.930 . S
C300 N296 1.362 . S
C300 C297 1.431 . S
C300 C310 1.476 . S
H301 C295 0.929 . S
C302 O293 1.250 . S
C302 O294 1.258 . S
O303 Mn288 2.162 . S
O303 C291 1.281 . S
O304 Mn288 2.297 . S
O304 C291 1.236 . S
N305 Mn289 2.282 . S
N305 C306 1.328 1_455 S
N305 C310 1.318 . S
C306 N305 1.328 1_655 S
C306 C307 1.457 . S
C306 H311 0.929 . S
C307 C306 1.457 . S
C307 C308 1.291 . S
C307 H320 0.931 . S
C308 C307 1.291 . S
C308 C309 1.373 . S
C308 H321 0.929 . S
C309 C308 1.373 . S
C309 C310 1.396 1_655 S
C309 C316 1.403 . S
C310 C300 1.476 . S
C310 N305 1.318 . S
C310 C309 1.396 1_455 S
H311 C306 0.929 . S
O312 Mn288 2.385 . S
O312 C290 1.234 . S
O313 Mn288 2.209 . S
O313 Mn289 2.215 . S
O313 C290 1.283 . S
O314 Mn288 2.094 . S
O314 C292 1.240 . S
O315 Mn289 2.117 . S
O315 C292 1.264 . S
C316 C309 1.403 . S
C316 C317 1.399 1_655 S
C316 H322 0.929 . S
C317 C297 1.449 . S
C317 C316 1.399 1_455 S
C317 H323 0.930 . S
H318 C298 0.931 . S
H319 C299 0.930 . S
H320 C307 0.931 . S
H321 C308 0.929 . S
H322 C316 0.929 . S
H323 C317 0.930 . S
Mn324 O329 2.095 . S
Mn324 O339 2.162 . S
Mn324 O340 2.297 . S
Mn324 O348 2.385 . S
Mn324 O349 2.209 . S
Mn324 O350 2.094 . S
Mn325 O330 2.121 . S
Mn325 N332 2.257 . S
Mn325 N341 2.282 . S
Mn325 O349 2.215 . S
Mn325 O351 2.117 . S
C326 O348 1.234 . S
C326 O349 1.283 . S
C327 O339 1.281 . S
C327 O340 1.236 . S
C328 O350 1.240 . S
C328 O351 1.264 . S
O329 Mn324 2.095 . S
O329 C338 1.250 . S
O330 Mn325 2.121 . S
O330 C338 1.258 . S
C331 N332 1.326 . S
C331 C335 1.460 . S
C331 H337 0.929 . S
N332 Mn325 2.257 . S
N332 C331 1.326 . S
N332 C336 1.362 . S
C333 C334 1.258 . S
C333 C336 1.431 . S
C333 C353 1.449 . S
C334 C333 1.258 . S
C334 C335 1.477 . S
C334 H354 0.931 . S
C335 C331 1.460 . S
C335 C334 1.477 . S
C335 H355 0.930 . S
C336 N332 1.362 . S
C336 C333 1.431 . S
C336 C346 1.476 . S
H337 C331 0.929 . S
C338 O329 1.250 . S
C338 O330 1.258 . S
O339 Mn324 2.162 . S
O339 C327 1.281 . S
O340 Mn324 2.297 . S
O340 C327 1.236 . S
N341 Mn325 2.282 . S
N341 C342 1.328 . S
N341 C346 1.318 . S
C342 N341 1.328 . S
C342 C343 1.457 . S
C342 H347 0.929 . S
C343 C342 1.457 . S
C343 C344 1.291 . S
C343 H356 0.931 . S
C344 C343 1.291 . S
C344 C345 1.373 . S
C344 H357 0.929 . S
C345 C344 1.373 . S
C345 C346 1.396 . S
C345 C352 1.403 . S
C346 C336 1.476 . S
C346 N341 1.318 . S
C346 C345 1.396 . S
H347 C342 0.929 . S
O348 Mn324 2.385 . S
O348 C326 1.234 . S
O349 Mn324 2.209 . S
O349 Mn325 2.215 . S
O349 C326 1.283 . S
O350 Mn324 2.094 . S
O350 C328 1.240 . S
O351 Mn325 2.117 . S
O351 C328 1.264 . S
C352 C345 1.403 . S
C352 C353 1.399 . S
C352 H358 0.929 . S
C353 C333 1.449 . S
C353 C352 1.399 . S
C353 H359 0.930 . S
H354 C334 0.931 . S
H355 C335 0.930 . S
H356 C343 0.931 . S
H357 C344 0.929 . S
H358 C352 0.929 . S
H359 C353 0.930 . S
Mn360 O365 2.095 . S
Mn360 O375 2.162 . S
Mn360 O376 2.297 . S
Mn360 O384 2.385 . S
Mn360 O385 2.209 . S
Mn360 O386 2.094 . S
Mn361 O366 2.121 . S
Mn361 N368 2.257 . S
Mn361 N377 2.282 . S
Mn361 O385 2.215 . S
Mn361 O387 2.117 . S
C362 O384 1.234 . S
C362 O385 1.283 . S
C363 O375 1.281 . S
C363 O376 1.236 . S
C364 O386 1.240 . S
C364 O387 1.264 . S
O365 Mn360 2.095 . S
O365 C374 1.250 . S
O366 Mn361 2.121 . S
O366 C374 1.258 . S
C367 N368 1.326 . S
C367 C371 1.460 . S
C367 H373 0.929 . S
N368 Mn361 2.257 . S
N368 C367 1.326 . S
N368 C372 1.362 . S
C369 C370 1.258 . S
C369 C372 1.431 . S
C369 C389 1.449 . S
C370 C369 1.258 . S
C370 C371 1.477 . S
C370 H390 0.931 . S
C371 C367 1.460 . S
C371 C370 1.477 . S
C371 H391 0.930 . S
C372 N368 1.362 . S
C372 C369 1.431 . S
C372 C382 1.476 . S
H373 C367 0.929 . S
C374 O365 1.250 . S
C374 O366 1.258 . S
O375 Mn360 2.162 . S
O375 C363 1.281 . S
O376 Mn360 2.297 . S
O376 C363 1.236 . S
N377 Mn361 2.282 . S
N377 C378 1.328 1_545 S
N377 C382 1.318 . S
C378 N377 1.328 1_565 S
C378 C379 1.457 . S
C378 H383 0.929 . S
C379 C378 1.457 . S
C379 C380 1.291 . S
C379 H392 0.931 . S
C380 C379 1.291 . S
C380 C381 1.373 . S
C380 H393 0.929 . S
C381 C380 1.373 . S
C381 C382 1.396 1_565 S
C381 C388 1.403 . S
C382 C372 1.476 . S
C382 N377 1.318 . S
C382 C381 1.396 1_545 S
H383 C378 0.929 . S
O384 Mn360 2.385 . S
O384 C362 1.234 . S
O385 Mn360 2.209 . S
O385 Mn361 2.215 . S
O385 C362 1.283 . S
O386 Mn360 2.094 . S
O386 C364 1.240 . S
O387 Mn361 2.117 . S
O387 C364 1.264 . S
C388 C381 1.403 . S
C388 C389 1.399 1_565 S
C388 H394 0.929 . S
C389 C369 1.449 . S
C389 C388 1.399 1_545 S
C389 H395 0.930 . S
H390 C370 0.931 . S
H391 C371 0.930 . S
H392 C379 0.931 . S
H393 C380 0.929 . S
H394 C388 0.929 . S
H395 C389 0.930 . S
Mn396 O401 2.095 . S
Mn396 O411 2.162 . S
Mn396 O412 2.297 . S
Mn396 O420 2.385 . S
Mn396 O421 2.209 . S
Mn396 O422 2.094 . S
Mn397 O402 2.121 . S
Mn397 N404 2.257 . S
Mn397 N413 2.282 . S
Mn397 O421 2.215 . S
Mn397 O423 2.117 . S
C398 O420 1.234 . S
C398 O421 1.283 . S
C399 O411 1.281 . S
C399 O412 1.236 . S
C400 O422 1.240 . S
C400 O423 1.264 . S
O401 Mn396 2.095 . S
O401 C410 1.250 . S
O402 Mn397 2.121 . S
O402 C410 1.258 . S
C403 N404 1.326 . S
C403 C407 1.460 . S
C403 H409 0.929 . S
N404 Mn397 2.257 . S
N404 C403 1.326 . S
N404 C408 1.362 . S
C405 C406 1.258 . S
C405 C408 1.431 . S
C405 C425 1.449 . S
C406 C405 1.258 . S
C406 C407 1.477 . S
C406 H426 0.931 . S
C407 C403 1.460 . S
C407 C406 1.477 . S
C407 H427 0.930 . S
C408 N404 1.362 . S
C408 C405 1.431 . S
C408 C418 1.476 . S
H409 C403 0.929 . S
C410 O401 1.250 . S
C410 O402 1.258 . S
O411 Mn396 2.162 . S
O411 C399 1.281 . S
O412 Mn396 2.297 . S
O412 C399 1.236 . S
N413 Mn397 2.282 . S
N413 C414 1.328 1_655 S
N413 C418 1.318 . S
C414 N413 1.328 1_455 S
C414 C415 1.457 . S
C414 H419 0.929 . S
C415 C414 1.457 . S
C415 C416 1.291 . S
C415 H428 0.931 . S
C416 C415 1.291 . S
C416 C417 1.373 . S
C416 H429 0.929 . S
C417 C416 1.373 . S
C417 C418 1.396 1_455 S
C417 C424 1.403 . S
C418 C408 1.476 . S
C418 N413 1.318 . S
C418 C417 1.396 1_655 S
H419 C414 0.929 . S
O420 Mn396 2.385 . S
O420 C398 1.234 . S
O421 Mn396 2.209 . S
O421 Mn397 2.215 . S
O421 C398 1.283 . S
O422 Mn396 2.094 . S
O422 C400 1.240 . S
O423 Mn397 2.117 . S
O423 C400 1.264 . S
C424 C417 1.403 . S
C424 C425 1.399 1_455 S
C424 H430 0.929 . S
C425 C405 1.449 . S
C425 C424 1.399 1_655 S
C425 H431 0.930 . S
H426 C406 0.931 . S
H427 C407 0.930 . S
H428 C415 0.931 . S
H429 C416 0.929 . S
H430 C424 0.929 . S
H431 C425 0.930 . S
Mn432 O437 2.095 . S
Mn432 O447 2.162 . S
Mn432 O448 2.297 . S
Mn432 O456 2.385 . S
Mn432 O457 2.209 . S
Mn432 O458 2.094 . S
Mn433 O438 2.121 . S
Mn433 N440 2.257 . S
Mn433 N449 2.282 . S
Mn433 O457 2.215 . S
Mn433 O459 2.117 . S
C434 O456 1.234 . S
C434 O457 1.283 . S
C435 O447 1.281 . S
C435 O448 1.236 . S
C436 O458 1.240 . S
C436 O459 1.264 . S
O437 Mn432 2.095 . S
O437 C446 1.250 . S
O438 Mn433 2.121 . S
O438 C446 1.258 . S
C439 N440 1.326 . S
C439 C443 1.460 . S
C439 H445 0.929 . S
N440 Mn433 2.257 . S
N440 C439 1.326 . S
N440 C444 1.362 . S
C441 C442 1.258 . S
C441 C444 1.431 . S
C441 C461 1.449 . S
C442 C441 1.258 . S
C442 C443 1.477 . S
C442 H462 0.931 . S
C443 C439 1.460 . S
C443 C442 1.477 . S
C443 H463 0.930 . S
C444 N440 1.362 . S
C444 C441 1.431 . S
C444 C454 1.476 . S
H445 C439 0.929 . S
C446 O437 1.250 . S
C446 O438 1.258 . S
O447 Mn432 2.162 . S
O447 C435 1.281 . S
O448 Mn432 2.297 . S
O448 C435 1.236 . S
N449 Mn433 2.282 . S
N449 C450 1.328 . S
N449 C454 1.318 . S
C450 N449 1.328 . S
C450 C451 1.457 . S
C450 H455 0.929 . S
C451 C450 1.457 . S
C451 C452 1.291 . S
C451 H464 0.931 . S
C452 C451 1.291 . S
C452 C453 1.373 . S
C452 H465 0.929 . S
C453 C452 1.373 . S
C453 C454 1.396 . S
C453 C460 1.403 . S
C454 C444 1.476 . S
C454 N449 1.318 . S
C454 C453 1.396 . S
H455 C450 0.929 . S
O456 Mn432 2.385 . S
O456 C434 1.234 . S
O457 Mn432 2.209 . S
O457 Mn433 2.215 . S
O457 C434 1.283 . S
O458 Mn432 2.094 . S
O458 C436 1.240 . S
O459 Mn433 2.117 . S
O459 C436 1.264 . S
C460 C453 1.403 . S
C460 C461 1.399 . S
C460 H466 0.929 . S
C461 C441 1.449 . S
C461 C460 1.399 . S
C461 H467 0.930 . S
H462 C442 0.931 . S
H463 C443 0.930 . S
H464 C451 0.931 . S
H465 C452 0.929 . S
H466 C460 0.929 . S
H467 C461 0.930 . S
Mn468 O473 2.095 . S
Mn468 O483 2.162 . S
Mn468 O484 2.297 . S
Mn468 O492 2.385 . S
Mn468 O493 2.209 . S
Mn468 O494 2.094 . S
Mn469 O474 2.121 . S
Mn469 N476 2.257 . S
Mn469 N485 2.282 . S
Mn469 O493 2.215 . S
Mn469 O495 2.117 . S
C470 O492 1.234 . S
C470 O493 1.283 . S
C471 O483 1.281 . S
C471 O484 1.236 . S
C472 O494 1.240 . S
C472 O495 1.264 . S
O473 Mn468 2.095 . S
O473 C482 1.250 . S
O474 Mn469 2.121 . S
O474 C482 1.258 . S
C475 N476 1.326 . S
C475 C479 1.460 . S
C475 H481 0.929 . S
N476 Mn469 2.257 . S
N476 C475 1.326 . S
N476 C480 1.362 . S
C477 C478 1.258 . S
C477 C480 1.431 . S
C477 C497 1.449 . S
C478 C477 1.258 . S
C478 C479 1.477 . S
C478 H498 0.931 . S
C479 C475 1.460 . S
C479 C478 1.477 . S
C479 H499 0.930 . S
C480 N476 1.362 . S
C480 C477 1.431 . S
C480 C490 1.476 . S
H481 C475 0.929 . S
C482 O473 1.250 . S
C482 O474 1.258 . S
O483 Mn468 2.162 . S
O483 C471 1.281 . S
O484 Mn468 2.297 . S
O484 C471 1.236 . S
N485 Mn469 2.282 . S
N485 C486 1.328 . S
N485 C490 1.318 . S
C486 N485 1.328 . S
C486 C487 1.457 . S
C486 H491 0.929 . S
C487 C486 1.457 . S
C487 C488 1.291 . S
C487 H500 0.931 . S
C488 C487 1.291 . S
C488 C489 1.373 . S
C488 H501 0.929 . S
C489 C488 1.373 . S
C489 C490 1.396 . S
C489 C496 1.403 . S
C490 C480 1.476 . S
C490 N485 1.318 . S
C490 C489 1.396 . S
H491 C486 0.929 . S
O492 Mn468 2.385 . S
O492 C470 1.234 . S
O493 Mn468 2.209 . S
O493 Mn469 2.215 . S
O493 C470 1.283 . S
O494 Mn468 2.094 . S
O494 C472 1.240 . S
O495 Mn469 2.117 . S
O495 C472 1.264 . S
C496 C489 1.403 . S
C496 C497 1.399 . S
C496 H502 0.929 . S
C497 C477 1.449 . S
C497 C496 1.399 . S
C497 H503 0.930 . S
H498 C478 0.931 . S
H499 C479 0.930 . S
H500 C487 0.931 . S
H501 C488 0.929 . S
H502 C496 0.929 . S
H503 C497 0.930 . S
Mn504 O509 2.095 . S
Mn504 O519 2.162 . S
Mn504 O520 2.297 . S
Mn504 O528 2.385 . S
Mn504 O529 2.209 . S
Mn504 O530 2.094 . S
Mn505 O510 2.121 . S
Mn505 N512 2.257 . S
Mn505 N521 2.282 . S
Mn505 O529 2.215 . S
Mn505 O531 2.117 . S
C506 O528 1.234 . S
C506 O529 1.283 . S
C507 O519 1.281 . S
C507 O520 1.236 . S
C508 O530 1.240 . S
C508 O531 1.264 . S
O509 Mn504 2.095 . S
O509 C518 1.250 . S
O510 Mn505 2.121 . S
O510 C518 1.258 . S
C511 N512 1.326 . S
C511 C515 1.460 . S
C511 H517 0.929 . S
N512 Mn505 2.257 . S
N512 C511 1.326 . S
N512 C516 1.362 . S
C513 C514 1.258 . S
C513 C516 1.431 . S
C513 C533 1.449 . S
C514 C513 1.258 . S
C514 C515 1.477 . S
C514 H534 0.931 . S
C515 C511 1.460 . S
C515 C514 1.477 . S
C515 H535 0.930 . S
C516 N512 1.362 . S
C516 C513 1.431 . S
C516 C526 1.476 . S
H517 C511 0.929 . S
C518 O509 1.250 . S
C518 O510 1.258 . S
O519 Mn504 2.162 . S
O519 C507 1.281 . S
O520 Mn504 2.297 . S
O520 C507 1.236 . S
N521 Mn505 2.282 . S
N521 C522 1.328 . S
N521 C526 1.318 . S
C522 N521 1.328 . S
C522 C523 1.457 . S
C522 H527 0.929 . S
C523 C522 1.457 . S
C523 C524 1.291 . S
C523 H536 0.931 . S
C524 C523 1.291 . S
C524 C525 1.373 . S
C524 H537 0.929 . S
C525 C524 1.373 . S
C525 C526 1.396 . S
C525 C532 1.403 . S
C526 C516 1.476 . S
C526 N521 1.318 . S
C526 C525 1.396 . S
H527 C522 0.929 . S
O528 Mn504 2.385 . S
O528 C506 1.234 . S
O529 Mn504 2.209 . S
O529 Mn505 2.215 . S
O529 C506 1.283 . S
O530 Mn504 2.094 . S
O530 C508 1.240 . S
O531 Mn505 2.117 . S
O531 C508 1.264 . S
C532 C525 1.403 . S
C532 C533 1.399 . S
C532 H538 0.929 . S
C533 C513 1.449 . S
C533 C532 1.399 . S
C533 H539 0.930 . S
H534 C514 0.931 . S
H535 C515 0.930 . S
H536 C523 0.931 . S
H537 C524 0.929 . S
H538 C532 0.929 . S
H539 C533 0.930 . S
Mn540 O545 2.095 . S
Mn540 O555 2.162 . S
Mn540 O556 2.297 . S
Mn540 O564 2.385 . S
Mn540 O565 2.209 . S
Mn540 O566 2.094 . S
Mn541 O546 2.121 . S
Mn541 N548 2.257 . S
Mn541 N557 2.282 . S
Mn541 O565 2.215 . S
Mn541 O567 2.117 . S
C542 O564 1.234 . S
C542 O565 1.283 . S
C543 O555 1.281 . S
C543 O556 1.236 . S
C544 O566 1.240 . S
C544 O567 1.264 . S
O545 Mn540 2.095 . S
O545 C554 1.250 . S
O546 Mn541 2.121 . S
O546 C554 1.258 . S
C547 N548 1.326 . S
C547 C551 1.460 . S
C547 H553 0.929 . S
N548 Mn541 2.257 . S
N548 C547 1.326 . S
N548 C552 1.362 . S
C549 C550 1.258 . S
C549 C552 1.431 . S
C549 C569 1.449 . S
C550 C549 1.258 . S
C550 C551 1.477 . S
C550 H570 0.931 . S
C551 C547 1.460 . S
C551 C550 1.477 . S
C551 H571 0.930 . S
C552 N548 1.362 . S
C552 C549 1.431 . S
C552 C562 1.476 . S
H553 C547 0.929 . S
C554 O545 1.250 . S
C554 O546 1.258 . S
O555 Mn540 2.162 . S
O555 C543 1.281 . S
O556 Mn540 2.297 . S
O556 C543 1.236 . S
N557 Mn541 2.282 . S
N557 C558 1.328 . S
N557 C562 1.318 . S
C558 N557 1.328 . S
C558 C559 1.457 . S
C558 H563 0.929 . S
C559 C558 1.457 . S
C559 C560 1.291 . S
C559 H572 0.931 . S
C560 C559 1.291 . S
C560 C561 1.373 . S
C560 H573 0.929 . S
C561 C560 1.373 . S
C561 C562 1.396 . S
C561 C568 1.403 . S
C562 C552 1.476 . S
C562 N557 1.318 . S
C562 C561 1.396 . S
H563 C558 0.929 . S
O564 Mn540 2.385 . S
O564 C542 1.234 . S
O565 Mn540 2.209 . S
O565 Mn541 2.215 . S
O565 C542 1.283 . S
O566 Mn540 2.094 . S
O566 C544 1.240 . S
O567 Mn541 2.117 . S
O567 C544 1.264 . S
C568 C561 1.403 . S
C568 C569 1.399 . S
C568 H574 0.929 . S
C569 C549 1.449 . S
C569 C568 1.399 . S
C569 H575 0.930 . S
H570 C550 0.931 . S
H571 C551 0.930 . S
H572 C559 0.931 . S
H573 C560 0.929 . S
H574 C568 0.929 . S
H575 C569 0.930 . S
Mn576 O581 2.095 . S
Mn576 O591 2.162 . S
Mn576 O592 2.297 . S
Mn576 O600 2.385 . S
Mn576 O601 2.209 . S
Mn576 O602 2.094 . S
Mn577 O582 2.121 . S
Mn577 N584 2.257 . S
Mn577 N593 2.282 . S
Mn577 O601 2.215 . S
Mn577 O603 2.117 . S
C578 O600 1.234 . S
C578 O601 1.283 . S
C579 O591 1.281 . S
C579 O592 1.236 . S
C580 O602 1.240 . S
C580 O603 1.264 . S
O581 Mn576 2.095 . S
O581 C590 1.250 . S
O582 Mn577 2.121 . S
O582 C590 1.258 . S
C583 N584 1.326 . S
C583 C587 1.460 . S
C583 H589 0.929 . S
N584 Mn577 2.257 . S
N584 C583 1.326 . S
N584 C588 1.362 . S
C585 C586 1.258 . S
C585 C588 1.431 . S
C585 C605 1.449 . S
C586 C585 1.258 . S
C586 C587 1.477 . S
C586 H606 0.931 . S
C587 C583 1.460 . S
C587 C586 1.477 . S
C587 H607 0.930 . S
C588 N584 1.362 . S
C588 C585 1.431 . S
C588 C598 1.476 . S
H589 C583 0.929 . S
C590 O581 1.250 . S
C590 O582 1.258 . S
O591 Mn576 2.162 . S
O591 C579 1.281 . S
O592 Mn576 2.297 . S
O592 C579 1.236 . S
N593 Mn577 2.282 . S
N593 C594 1.328 . S
N593 C598 1.318 . S
C594 N593 1.328 . S
C594 C595 1.457 . S
C594 H599 0.929 . S
C595 C594 1.457 . S
C595 C596 1.291 . S
C595 H608 0.931 . S
C596 C595 1.291 . S
C596 C597 1.373 . S
C596 H609 0.929 . S
C597 C596 1.373 . S
C597 C598 1.396 . S
C597 C604 1.403 . S
C598 C588 1.476 . S
C598 N593 1.318 . S
C598 C597 1.396 . S
H599 C594 0.929 . S
O600 Mn576 2.385 . S
O600 C578 1.234 . S
O601 Mn576 2.209 . S
O601 Mn577 2.215 . S
O601 C578 1.283 . S
O602 Mn576 2.094 . S
O602 C580 1.240 . S
O603 Mn577 2.117 . S
O603 C580 1.264 . S
C604 C597 1.403 . S
C604 C605 1.399 . S
C604 H610 0.929 . S
C605 C585 1.449 . S
C605 C604 1.399 . S
C605 H611 0.930 . S
H606 C586 0.931 . S
H607 C587 0.930 . S
H608 C595 0.931 . S
H609 C596 0.929 . S
H610 C604 0.929 . S
H611 C605 0.930 . S
Mn612 O617 2.095 . S
Mn612 O627 2.162 . S
Mn612 O628 2.297 . S
Mn612 O636 2.385 . S
Mn612 O637 2.209 . S
Mn612 O638 2.094 . S
Mn613 O618 2.121 . S
Mn613 N620 2.257 . S
Mn613 N629 2.282 . S
Mn613 O637 2.215 . S
Mn613 O639 2.117 . S
C614 O636 1.234 . S
C614 O637 1.283 . S
C615 O627 1.281 . S
C615 O628 1.236 . S
C616 O638 1.240 . S
C616 O639 1.264 . S
O617 Mn612 2.095 . S
O617 C626 1.250 . S
O618 Mn613 2.121 . S
O618 C626 1.258 . S
C619 N620 1.326 . S
C619 C623 1.460 . S
C619 H625 0.929 . S
N620 Mn613 2.257 . S
N620 C619 1.326 . S
N620 C624 1.362 . S
C621 C622 1.258 . S
C621 C624 1.431 . S
C621 C641 1.449 . S
C622 C621 1.258 . S
C622 C623 1.477 . S
C622 H642 0.931 . S
C623 C619 1.460 . S
C623 C622 1.477 . S
C623 H643 0.930 . S
C624 N620 1.362 . S
C624 C621 1.431 . S
C624 C634 1.476 . S
H625 C619 0.929 . S
C626 O617 1.250 . S
C626 O618 1.258 . S
O627 Mn612 2.162 . S
O627 C615 1.281 . S
O628 Mn612 2.297 . S
O628 C615 1.236 . S
N629 Mn613 2.282 . S
N629 C630 1.328 . S
N629 C634 1.318 . S
C630 N629 1.328 . S
C630 C631 1.457 . S
C630 H635 0.929 . S
C631 C630 1.457 . S
C631 C632 1.291 . S
C631 H644 0.931 . S
C632 C631 1.291 . S
C632 C633 1.373 . S
C632 H645 0.929 . S
C633 C632 1.373 . S
C633 C634 1.396 . S
C633 C640 1.403 . S
C634 C624 1.476 . S
C634 N629 1.318 . S
C634 C633 1.396 . S
H635 C630 0.929 . S
O636 Mn612 2.385 . S
O636 C614 1.234 . S
O637 Mn612 2.209 . S
O637 Mn613 2.215 . S
O637 C614 1.283 . S
O638 Mn612 2.094 . S
O638 C616 1.240 . S
O639 Mn613 2.117 . S
O639 C616 1.264 . S
C640 C633 1.403 . S
C640 C641 1.399 . S
C640 H646 0.929 . S
C641 C621 1.449 . S
C641 C640 1.399 . S
C641 H647 0.930 . S
H642 C622 0.931 . S
H643 C623 0.930 . S
H644 C631 0.931 . S
H645 C632 0.929 . S
H646 C640 0.929 . S
H647 C641 0.930 . S
Mn648 O653 2.095 . S
Mn648 O663 2.162 . S
Mn648 O664 2.297 . S
Mn648 O672 2.385 . S
Mn648 O673 2.209 . S
Mn648 O674 2.094 . S
Mn649 O654 2.121 . S
Mn649 N656 2.257 . S
Mn649 N665 2.282 . S
Mn649 O673 2.215 . S
Mn649 O675 2.117 . S
C650 O672 1.234 . S
C650 O673 1.283 . S
C651 O663 1.281 . S
C651 O664 1.236 . S
C652 O674 1.240 . S
C652 O675 1.264 . S
O653 Mn648 2.095 . S
O653 C662 1.250 . S
O654 Mn649 2.121 . S
O654 C662 1.258 . S
C655 N656 1.326 . S
C655 C659 1.460 . S
C655 H661 0.929 . S
N656 Mn649 2.257 . S
N656 C655 1.326 . S
N656 C660 1.362 . S
C657 C658 1.258 . S
C657 C660 1.431 . S
C657 C677 1.449 . S
C658 C657 1.258 . S
C658 C659 1.477 . S
C658 H678 0.931 . S
C659 C655 1.460 . S
C659 C658 1.477 . S
C659 H679 0.930 . S
C660 N656 1.362 . S
C660 C657 1.431 . S
C660 C670 1.476 . S
H661 C655 0.929 . S
C662 O653 1.250 . S
C662 O654 1.258 . S
O663 Mn648 2.162 . S
O663 C651 1.281 . S
O664 Mn648 2.297 . S
O664 C651 1.236 . S
N665 Mn649 2.282 . S
N665 C666 1.328 . S
N665 C670 1.318 . S
C666 N665 1.328 . S
C666 C667 1.457 . S
C666 H671 0.929 . S
C667 C666 1.457 . S
C667 C668 1.291 . S
C667 H680 0.931 . S
C668 C667 1.291 . S
C668 C669 1.373 . S
C668 H681 0.929 . S
C669 C668 1.373 . S
C669 C670 1.396 . S
C669 C676 1.403 . S
C670 C660 1.476 . S
C670 N665 1.318 . S
C670 C669 1.396 . S
H671 C666 0.929 . S
O672 Mn648 2.385 . S
O672 C650 1.234 . S
O673 Mn648 2.209 . S
O673 Mn649 2.215 . S
O673 C650 1.283 . S
O674 Mn648 2.094 . S
O674 C652 1.240 . S
O675 Mn649 2.117 . S
O675 C652 1.264 . S
C676 C669 1.403 . S
C676 C677 1.399 . S
C676 H682 0.929 . S
C677 C657 1.449 . S
C677 C676 1.399 . S
C677 H683 0.930 . S
H678 C658 0.931 . S
H679 C659 0.930 . S
H680 C667 0.931 . S
H681 C668 0.929 . S
H682 C676 0.929 . S
H683 C677 0.930 . S
Mn684 O689 2.095 . S
Mn684 O699 2.162 . S
Mn684 O700 2.297 . S
Mn684 O708 2.385 . S
Mn684 O709 2.209 . S
Mn684 O710 2.094 . S
Mn685 O690 2.121 . S
Mn685 N692 2.257 . S
Mn685 N701 2.282 . S
Mn685 O709 2.215 . S
Mn685 O711 2.117 . S
C686 O708 1.234 . S
C686 O709 1.283 . S
C687 O699 1.281 . S
C687 O700 1.236 . S
C688 O710 1.240 . S
C688 O711 1.264 . S
O689 Mn684 2.095 . S
O689 C698 1.250 . S
O690 Mn685 2.121 . S
O690 C698 1.258 . S
C691 N692 1.326 . S
C691 C695 1.460 . S
C691 H697 0.929 . S
N692 Mn685 2.257 . S
N692 C691 1.326 . S
N692 C696 1.362 . S
C693 C694 1.258 . S
C693 C696 1.431 . S
C693 C713 1.449 . S
C694 C693 1.258 . S
C694 C695 1.477 . S
C694 H714 0.931 . S
C695 C691 1.460 . S
C695 C694 1.477 . S
C695 H715 0.930 . S
C696 N692 1.362 . S
C696 C693 1.431 . S
C696 C706 1.476 . S
H697 C691 0.929 . S
C698 O689 1.250 . S
C698 O690 1.258 . S
O699 Mn684 2.162 . S
O699 C687 1.281 . S
O700 Mn684 2.297 . S
O700 C687 1.236 . S
N701 Mn685 2.282 . S
N701 C702 1.328 . S
N701 C706 1.318 . S
C702 N701 1.328 . S
C702 C703 1.457 . S
C702 H707 0.929 . S
C703 C702 1.457 . S
C703 C704 1.291 . S
C703 H716 0.931 . S
C704 C703 1.291 . S
C704 C705 1.373 . S
C704 H717 0.929 . S
C705 C704 1.373 . S
C705 C706 1.396 . S
C705 C712 1.403 . S
C706 C696 1.476 . S
C706 N701 1.318 . S
C706 C705 1.396 . S
H707 C702 0.929 . S
O708 Mn684 2.385 . S
O708 C686 1.234 . S
O709 Mn684 2.209 . S
O709 Mn685 2.215 . S
O709 C686 1.283 . S
O710 Mn684 2.094 . S
O710 C688 1.240 . S
O711 Mn685 2.117 . S
O711 C688 1.264 . S
C712 C705 1.403 . S
C712 C713 1.399 . S
C712 H718 0.929 . S
C713 C693 1.449 . S
C713 C712 1.399 . S
C713 H719 0.930 . S
H714 C694 0.931 . S
H715 C695 0.930 . S
H716 C703 0.931 . S
H717 C704 0.929 . S
H718 C712 0.929 . S
H719 C713 0.930 . S
Mn720 O725 2.095 . S
Mn720 O735 2.162 . S
Mn720 O736 2.297 . S
Mn720 O744 2.385 . S
Mn720 O745 2.209 . S
Mn720 O746 2.094 . S
Mn721 O726 2.121 . S
Mn721 N728 2.257 . S
Mn721 N737 2.282 . S
Mn721 O745 2.215 . S
Mn721 O747 2.117 . S
C722 O744 1.234 . S
C722 O745 1.283 . S
C723 O735 1.281 . S
C723 O736 1.236 . S
C724 O746 1.240 . S
C724 O747 1.264 . S
O725 Mn720 2.095 . S
O725 C734 1.250 . S
O726 Mn721 2.121 . S
O726 C734 1.258 . S
C727 N728 1.326 . S
C727 C731 1.460 . S
C727 H733 0.929 . S
N728 Mn721 2.257 . S
N728 C727 1.326 . S
N728 C732 1.362 . S
C729 C730 1.258 . S
C729 C732 1.431 . S
C729 C749 1.449 . S
C730 C729 1.258 . S
C730 C731 1.477 . S
C730 H750 0.931 . S
C731 C727 1.460 . S
C731 C730 1.477 . S
C731 H751 0.930 . S
C732 N728 1.362 . S
C732 C729 1.431 . S
C732 C742 1.476 . S
H733 C727 0.929 . S
C734 O725 1.250 . S
C734 O726 1.258 . S
O735 Mn720 2.162 . S
O735 C723 1.281 . S
O736 Mn720 2.297 . S
O736 C723 1.236 . S
N737 Mn721 2.282 . S
N737 C738 1.328 . S
N737 C742 1.318 . S
C738 N737 1.328 . S
C738 C739 1.457 . S
C738 H743 0.929 . S
C739 C738 1.457 . S
C739 C740 1.291 . S
C739 H752 0.931 . S
C740 C739 1.291 . S
C740 C741 1.373 . S
C740 H753 0.929 . S
C741 C740 1.373 . S
C741 C742 1.396 . S
C741 C748 1.403 . S
C742 C732 1.476 . S
C742 N737 1.318 . S
C742 C741 1.396 . S
H743 C738 0.929 . S
O744 Mn720 2.385 . S
O744 C722 1.234 . S
O745 Mn720 2.209 . S
O745 Mn721 2.215 . S
O745 C722 1.283 . S
O746 Mn720 2.094 . S
O746 C724 1.240 . S
O747 Mn721 2.117 . S
O747 C724 1.264 . S
C748 C741 1.403 . S
C748 C749 1.399 . S
C748 H754 0.929 . S
C749 C729 1.449 . S
C749 C748 1.399 . S
C749 H755 0.930 . S
H750 C730 0.931 . S
H751 C731 0.930 . S
H752 C739 0.931 . S
H753 C740 0.929 . S
H754 C748 0.929 . S
H755 C749 0.930 . S
Mn756 O761 2.095 . S
Mn756 O771 2.162 . S
Mn756 O772 2.297 . S
Mn756 O780 2.385 . S
Mn756 O781 2.209 . S
Mn756 O782 2.094 . S
Mn757 O762 2.121 . S
Mn757 N764 2.257 . S
Mn757 N773 2.282 . S
Mn757 O781 2.215 . S
Mn757 O783 2.117 . S
C758 O780 1.234 . S
C758 O781 1.283 . S
C759 O771 1.281 . S
C759 O772 1.236 . S
C760 O782 1.240 . S
C760 O783 1.264 . S
O761 Mn756 2.095 . S
O761 C770 1.250 . S
O762 Mn757 2.121 . S
O762 C770 1.258 . S
C763 N764 1.326 . S
C763 C767 1.460 1_556 S
C763 H769 0.929 . S
N764 Mn757 2.257 . S
N764 C763 1.326 . S
N764 C768 1.362 . S
C765 C766 1.258 . S
C765 C768 1.431 1_554 S
C765 C785 1.449 . S
C766 C765 1.258 . S
C766 C767 1.477 . S
C766 H786 0.931 . S
C767 C763 1.460 1_554 S
C767 C766 1.477 . S
C767 H787 0.930 . S
C768 N764 1.362 . S
C768 C765 1.431 1_556 S
C768 C778 1.476 . S
H769 C763 0.929 . S
C770 O761 1.250 . S
C770 O762 1.258 . S
O771 Mn756 2.162 . S
O771 C759 1.281 . S
O772 Mn756 2.297 . S
O772 C759 1.236 . S
N773 Mn757 2.282 . S
N773 C774 1.328 . S
N773 C778 1.318 . S
C774 N773 1.328 . S
C774 C775 1.457 . S
C774 H779 0.929 . S
C775 C774 1.457 . S
C775 C776 1.291 1_556 S
C775 H788 0.931 . S
C776 C775 1.291 1_554 S
C776 C777 1.373 . S
C776 H789 0.929 . S
C777 C776 1.373 . S
C777 C778 1.396 1_554 S
C777 C784 1.403 . S
C778 C768 1.476 . S
C778 N773 1.318 . S
C778 C777 1.396 1_556 S
H779 C774 0.929 . S
O780 Mn756 2.385 . S
O780 C758 1.234 . S
O781 Mn756 2.209 . S
O781 Mn757 2.215 . S
O781 C758 1.283 . S
O782 Mn756 2.094 . S
O782 C760 1.240 . S
O783 Mn757 2.117 . S
O783 C760 1.264 . S
C784 C777 1.403 . S
C784 C785 1.399 . S
C784 H790 0.929 . S
C785 C765 1.449 . S
C785 C784 1.399 . S
C785 H791 0.930 . S
H786 C766 0.931 . S
H787 C767 0.930 . S
H788 C775 0.931 . S
H789 C776 0.929 . S
H790 C784 0.929 . S
H791 C785 0.930 . S
Mn792 O797 2.095 . S
Mn792 O807 2.162 . S
Mn792 O808 2.297 . S
Mn792 O816 2.385 . S
Mn792 O817 2.209 . S
Mn792 O818 2.094 . S
Mn793 O798 2.121 . S
Mn793 N800 2.257 . S
Mn793 N809 2.282 . S
Mn793 O817 2.215 . S
Mn793 O819 2.117 . S
C794 O816 1.234 . S
C794 O817 1.283 . S
C795 O807 1.281 . S
C795 O808 1.236 . S
C796 O818 1.240 . S
C796 O819 1.264 . S
O797 Mn792 2.095 . S
O797 C806 1.250 . S
O798 Mn793 2.121 . S
O798 C806 1.258 . S
C799 N800 1.326 . S
C799 C803 1.460 1_556 S
C799 H805 0.929 . S
N800 Mn793 2.257 . S
N800 C799 1.326 . S
N800 C804 1.362 . S
C801 C802 1.258 . S
C801 C804 1.431 1_554 S
C801 C821 1.449 . S
C802 C801 1.258 . S
C802 C803 1.477 . S
C802 H822 0.931 . S
C803 C799 1.460 1_554 S
C803 C802 1.477 . S
C803 H823 0.930 . S
C804 N800 1.362 . S
C804 C801 1.431 1_556 S
C804 C814 1.476 . S
H805 C799 0.929 . S
C806 O797 1.250 . S
C806 O798 1.258 . S
O807 Mn792 2.162 . S
O807 C795 1.281 . S
O808 Mn792 2.297 . S
O808 C795 1.236 . S
N809 Mn793 2.282 . S
N809 C810 1.328 . S
N809 C814 1.318 . S
C810 N809 1.328 . S
C810 C811 1.457 . S
C810 H815 0.929 . S
C811 C810 1.457 . S
C811 C812 1.291 1_556 S
C811 H824 0.931 . S
C812 C811 1.291 1_554 S
C812 C813 1.373 . S
C812 H825 0.929 . S
C813 C812 1.373 . S
C813 C814 1.396 1_554 S
C813 C820 1.403 . S
C814 C804 1.476 . S
C814 N809 1.318 . S
C814 C813 1.396 1_556 S
H815 C810 0.929 . S
O816 Mn792 2.385 . S
O816 C794 1.234 . S
O817 Mn792 2.209 . S
O817 Mn793 2.215 . S
O817 C794 1.283 . S
O818 Mn792 2.094 . S
O818 C796 1.240 . S
O819 Mn793 2.117 . S
O819 C796 1.264 . S
C820 C813 1.403 . S
C820 C821 1.399 . S
C820 H826 0.929 . S
C821 C801 1.449 . S
C821 C820 1.399 . S
C821 H827 0.930 . S
H822 C802 0.931 . S
H823 C803 0.930 . S
H824 C811 0.931 . S
H825 C812 0.929 . S
H826 C820 0.929 . S
H827 C821 0.930 . S
Mn828 O833 2.095 . S
Mn828 O843 2.162 . S
Mn828 O844 2.297 . S
Mn828 O852 2.385 . S
Mn828 O853 2.209 . S
Mn828 O854 2.094 . S
Mn829 O834 2.121 . S
Mn829 N836 2.257 . S
Mn829 N845 2.282 . S
Mn829 O853 2.215 . S
Mn829 O855 2.117 . S
C830 O852 1.234 . S
C830 O853 1.283 . S
C831 O843 1.281 . S
C831 O844 1.236 . S
C832 O854 1.240 . S
C832 O855 1.264 . S
O833 Mn828 2.095 . S
O833 C842 1.250 . S
O834 Mn829 2.121 . S
O834 C842 1.258 . S
C835 N836 1.326 . S
C835 C839 1.460 1_556 S
C835 H841 0.929 . S
N836 Mn829 2.257 . S
N836 C835 1.326 . S
N836 C840 1.362 . S
C837 C838 1.258 . S
C837 C840 1.431 1_554 S
C837 C857 1.449 . S
C838 C837 1.258 . S
C838 C839 1.477 . S
C838 H858 0.931 . S
C839 C835 1.460 1_554 S
C839 C838 1.477 . S
C839 H859 0.930 . S
C840 N836 1.362 . S
C840 C837 1.431 1_556 S
C840 C850 1.476 . S
H841 C835 0.929 . S
C842 O833 1.250 . S
C842 O834 1.258 . S
O843 Mn828 2.162 . S
O843 C831 1.281 . S
O844 Mn828 2.297 . S
O844 C831 1.236 . S
N845 Mn829 2.282 . S
N845 C846 1.328 . S
N845 C850 1.318 . S
C846 N845 1.328 . S
C846 C847 1.457 . S
C846 H851 0.929 . S
C847 C846 1.457 . S
C847 C848 1.291 1_556 S
C847 H860 0.931 . S
C848 C847 1.291 1_554 S
C848 C849 1.373 . S
C848 H861 0.929 . S
C849 C848 1.373 . S
C849 C850 1.396 1_554 S
C849 C856 1.403 . S
C850 C840 1.476 . S
C850 N845 1.318 . S
C850 C849 1.396 1_556 S
H851 C846 0.929 . S
O852 Mn828 2.385 . S
O852 C830 1.234 . S
O853 Mn828 2.209 . S
O853 Mn829 2.215 . S
O853 C830 1.283 . S
O854 Mn828 2.094 . S
O854 C832 1.240 . S
O855 Mn829 2.117 . S
O855 C832 1.264 . S
C856 C849 1.403 . S
C856 C857 1.399 . S
C856 H862 0.929 . S
C857 C837 1.449 . S
C857 C856 1.399 . S
C857 H863 0.930 . S
H858 C838 0.931 . S
H859 C839 0.930 . S
H860 C847 0.931 . S
H861 C848 0.929 . S
H862 C856 0.929 . S
H863 C857 0.930 . S
Mn864 O869 2.095 . S
Mn864 O879 2.162 . S
Mn864 O880 2.297 . S
Mn864 O888 2.385 . S
Mn864 O889 2.209 . S
Mn864 O890 2.094 . S
Mn865 O870 2.121 . S
Mn865 N872 2.257 . S
Mn865 N881 2.282 . S
Mn865 O889 2.215 . S
Mn865 O891 2.117 . S
C866 O888 1.234 . S
C866 O889 1.283 . S
C867 O879 1.281 . S
C867 O880 1.236 . S
C868 O890 1.240 . S
C868 O891 1.264 . S
O869 Mn864 2.095 . S
O869 C878 1.250 . S
O870 Mn865 2.121 . S
O870 C878 1.258 . S
C871 N872 1.326 . S
C871 C875 1.460 . S
C871 H877 0.929 . S
N872 Mn865 2.257 . S
N872 C871 1.326 . S
N872 C876 1.362 . S
C873 C874 1.258 . S
C873 C876 1.431 . S
C873 C893 1.449 . S
C874 C873 1.258 . S
C874 C875 1.477 . S
C874 H894 0.931 . S
C875 C871 1.460 . S
C875 C874 1.477 . S
C875 H895 0.930 . S
C876 N872 1.362 . S
C876 C873 1.431 . S
C876 C886 1.476 . S
H877 C871 0.929 . S
C878 O869 1.250 . S
C878 O870 1.258 . S
O879 Mn864 2.162 . S
O879 C867 1.281 . S
O880 Mn864 2.297 . S
O880 C867 1.236 . S
N881 Mn865 2.282 . S
N881 C882 1.328 . S
N881 C886 1.318 . S
C882 N881 1.328 . S
C882 C883 1.457 . S
C882 H887 0.929 . S
C883 C882 1.457 . S
C883 C884 1.291 . S
C883 H896 0.931 . S
C884 C883 1.291 . S
C884 C885 1.373 . S
C884 H897 0.929 . S
C885 C884 1.373 . S
C885 C886 1.396 . S
C885 C892 1.403 . S
C886 C876 1.476 . S
C886 N881 1.318 . S
C886 C885 1.396 . S
H887 C882 0.929 . S
O888 Mn864 2.385 . S
O888 C866 1.234 . S
O889 Mn864 2.209 . S
O889 Mn865 2.215 . S
O889 C866 1.283 . S
O890 Mn864 2.094 . S
O890 C868 1.240 . S
O891 Mn865 2.117 . S
O891 C868 1.264 . S
C892 C885 1.403 . S
C892 C893 1.399 . S
C892 H898 0.929 . S
C893 C873 1.449 . S
C893 C892 1.399 . S
C893 H899 0.930 . S
H894 C874 0.931 . S
H895 C875 0.930 . S
H896 C883 0.931 . S
H897 C884 0.929 . S
H898 C892 0.929 . S
H899 C893 0.930 . S
Mn900 O905 2.095 . S
Mn900 O915 2.162 . S
Mn900 O916 2.297 . S
Mn900 O924 2.385 . S
Mn900 O925 2.209 . S
Mn900 O926 2.094 . S
Mn901 O906 2.121 . S
Mn901 N908 2.257 . S
Mn901 N917 2.282 . S
Mn901 O925 2.215 . S
Mn901 O927 2.117 . S
C902 O924 1.234 . S
C902 O925 1.283 . S
C903 O915 1.281 . S
C903 O916 1.236 . S
C904 O926 1.240 . S
C904 O927 1.264 . S
O905 Mn900 2.095 . S
O905 C914 1.250 . S
O906 Mn901 2.121 . S
O906 C914 1.258 . S
C907 N908 1.326 . S
C907 C911 1.460 . S
C907 H913 0.929 . S
N908 Mn901 2.257 . S
N908 C907 1.326 . S
N908 C912 1.362 . S
C909 C910 1.258 . S
C909 C912 1.431 . S
C909 C929 1.449 . S
C910 C909 1.258 . S
C910 C911 1.477 . S
C910 H930 0.931 . S
C911 C907 1.460 . S
C911 C910 1.477 . S
C911 H931 0.930 . S
C912 N908 1.362 . S
C912 C909 1.431 . S
C912 C922 1.476 . S
H913 C907 0.929 . S
C914 O905 1.250 . S
C914 O906 1.258 . S
O915 Mn900 2.162 . S
O915 C903 1.281 . S
O916 Mn900 2.297 . S
O916 C903 1.236 . S
N917 Mn901 2.282 . S
N917 C918 1.328 . S
N917 C922 1.318 . S
C918 N917 1.328 . S
C918 C919 1.457 . S
C918 H923 0.929 . S
C919 C918 1.457 . S
C919 C920 1.291 . S
C919 H932 0.931 . S
C920 C919 1.291 . S
C920 C921 1.373 . S
C920 H933 0.929 . S
C921 C920 1.373 . S
C921 C922 1.396 . S
C921 C928 1.403 . S
C922 C912 1.476 . S
C922 N917 1.318 . S
C922 C921 1.396 . S
H923 C918 0.929 . S
O924 Mn900 2.385 . S
O924 C902 1.234 . S
O925 Mn900 2.209 . S
O925 Mn901 2.215 . S
O925 C902 1.283 . S
O926 Mn900 2.094 . S
O926 C904 1.240 . S
O927 Mn901 2.117 . S
O927 C904 1.264 . S
C928 C921 1.403 . S
C928 C929 1.399 . S
C928 H934 0.929 . S
C929 C909 1.449 . S
C929 C928 1.399 . S
C929 H935 0.930 . S
H930 C910 0.931 . S
H931 C911 0.930 . S
H932 C919 0.931 . S
H933 C920 0.929 . S
H934 C928 0.929 . S
H935 C929 0.930 . S
Mn936 O941 2.095 . S
Mn936 O951 2.162 . S
Mn936 O952 2.297 . S
Mn936 O960 2.385 . S
Mn936 O961 2.209 . S
Mn936 O962 2.094 . S
Mn937 O942 2.121 . S
Mn937 N944 2.257 . S
Mn937 N953 2.282 . S
Mn937 O961 2.215 . S
Mn937 O963 2.117 . S
C938 O960 1.234 . S
C938 O961 1.283 . S
C939 O951 1.281 . S
C939 O952 1.236 . S
C940 O962 1.240 . S
C940 O963 1.264 . S
O941 Mn936 2.095 . S
O941 C950 1.250 . S
O942 Mn937 2.121 . S
O942 C950 1.258 . S
C943 N944 1.326 . S
C943 C947 1.460 . S
C943 H949 0.929 . S
N944 Mn937 2.257 . S
N944 C943 1.326 . S
N944 C948 1.362 . S
C945 C946 1.258 . S
C945 C948 1.431 . S
C945 C965 1.449 . S
C946 C945 1.258 . S
C946 C947 1.477 . S
C946 H966 0.931 . S
C947 C943 1.460 . S
C947 C946 1.477 . S
C947 H967 0.930 . S
C948 N944 1.362 . S
C948 C945 1.431 . S
C948 C958 1.476 . S
H949 C943 0.929 . S
C950 O941 1.250 . S
C950 O942 1.258 . S
O951 Mn936 2.162 . S
O951 C939 1.281 . S
O952 Mn936 2.297 . S
O952 C939 1.236 . S
N953 Mn937 2.282 . S
N953 C954 1.328 . S
N953 C958 1.318 . S
C954 N953 1.328 . S
C954 C955 1.457 . S
C954 H959 0.929 . S
C955 C954 1.457 . S
C955 C956 1.291 . S
C955 H968 0.931 . S
C956 C955 1.291 . S
C956 C957 1.373 . S
C956 H969 0.929 . S
C957 C956 1.373 . S
C957 C958 1.396 . S
C957 C964 1.403 . S
C958 C948 1.476 . S
C958 N953 1.318 . S
C958 C957 1.396 . S
H959 C954 0.929 . S
O960 Mn936 2.385 . S
O960 C938 1.234 . S
O961 Mn936 2.209 . S
O961 Mn937 2.215 . S
O961 C938 1.283 . S
O962 Mn936 2.094 . S
O962 C940 1.240 . S
O963 Mn937 2.117 . S
O963 C940 1.264 . S
C964 C957 1.403 . S
C964 C965 1.399 . S
C964 H970 0.929 . S
C965 C945 1.449 . S
C965 C964 1.399 . S
C965 H971 0.930 . S
H966 C946 0.931 . S
H967 C947 0.930 . S
H968 C955 0.931 . S
H969 C956 0.929 . S
H970 C964 0.929 . S
H971 C965 0.930 . S
Mn972 O977 2.095 . S
Mn972 O987 2.162 . S
Mn972 O988 2.297 . S
Mn972 O996 2.385 . S
Mn972 O997 2.209 . S
Mn972 O998 2.094 . S
Mn973 O978 2.121 . S
Mn973 N980 2.257 . S
Mn973 N989 2.282 . S
Mn973 O997 2.215 . S
Mn973 O999 2.117 . S
C974 O996 1.234 . S
C974 O997 1.283 . S
C975 O987 1.281 . S
C975 O988 1.236 . S
C976 O998 1.240 . S
C976 O999 1.264 . S
O977 Mn972 2.095 . S
O977 C986 1.250 . S
O978 Mn973 2.121 . S
O978 C986 1.258 . S
C979 N980 1.326 . S
C979 C983 1.460 1_554 S
C979 H985 0.929 . S
N980 Mn973 2.257 . S
N980 C979 1.326 . S
N980 C984 1.362 . S
C981 C982 1.258 . S
C981 C984 1.431 1_556 S
C981 C1001 1.449 . S
C982 C981 1.258 . S
C982 C983 1.477 . S
C982 H1002 0.931 . S
C983 C979 1.460 1_556 S
C983 C982 1.477 . S
C983 H1003 0.930 . S
C984 N980 1.362 . S
C984 C981 1.431 1_554 S
C984 C994 1.476 . S
H985 C979 0.929 . S
C986 O977 1.250 . S
C986 O978 1.258 . S
O987 Mn972 2.162 . S
O987 C975 1.281 . S
O988 Mn972 2.297 . S
O988 C975 1.236 . S
N989 Mn973 2.282 . S
N989 C990 1.328 . S
N989 C994 1.318 . S
C990 N989 1.328 . S
C990 C991 1.457 . S
C990 H995 0.929 . S
C991 C990 1.457 . S
C991 C992 1.291 1_554 S
C991 H1004 0.931 . S
C992 C991 1.291 1_556 S
C992 C993 1.373 . S
C992 H1005 0.929 . S
C993 C992 1.373 . S
C993 C994 1.396 1_556 S
C993 C1000 1.403 . S
C994 C984 1.476 . S
C994 N989 1.318 . S
C994 C993 1.396 1_554 S
H995 C990 0.929 . S
O996 Mn972 2.385 . S
O996 C974 1.234 . S
O997 Mn972 2.209 . S
O997 Mn973 2.215 . S
O997 C974 1.283 . S
O998 Mn972 2.094 . S
O998 C976 1.240 . S
O999 Mn973 2.117 . S
O999 C976 1.264 . S
C1000 C993 1.403 . S
C1000 C1001 1.399 . S
C1000 H1006 0.929 . S
C1001 C981 1.449 . S
C1001 C1000 1.399 . S
C1001 H1007 0.930 . S
H1002 C982 0.931 . S
H1003 C983 0.930 . S
H1004 C991 0.931 . S
H1005 C992 0.929 . S
H1006 C1000 0.929 . S
H1007 C1001 0.930 . S
Mn1008 O1013 2.095 . S
Mn1008 O1023 2.162 . S
Mn1008 O1024 2.297 . S
Mn1008 O1032 2.385 . S
Mn1008 O1033 2.209 . S
Mn1008 O1034 2.094 . S
Mn1009 O1014 2.121 . S
Mn1009 N1016 2.257 . S
Mn1009 N1025 2.282 . S
Mn1009 O1033 2.215 . S
Mn1009 O1035 2.117 . S
C1010 O1032 1.234 . S
C1010 O1033 1.283 . S
C1011 O1023 1.281 . S
C1011 O1024 1.236 . S
C1012 O1034 1.240 . S
C1012 O1035 1.264 . S
O1013 Mn1008 2.095 . S
O1013 C1022 1.250 . S
O1014 Mn1009 2.121 . S
O1014 C1022 1.258 . S
C1015 N1016 1.326 . S
C1015 C1019 1.460 1_554 S
C1015 H1021 0.929 . S
N1016 Mn1009 2.257 . S
N1016 C1015 1.326 . S
N1016 C1020 1.362 . S
C1017 C1018 1.258 . S
C1017 C1020 1.431 1_556 S
C1017 C1037 1.449 . S
C1018 C1017 1.258 . S
C1018 C1019 1.477 . S
C1018 H1038 0.931 . S
C1019 C1015 1.460 1_556 S
C1019 C1018 1.477 . S
C1019 H1039 0.930 . S
C1020 N1016 1.362 . S
C1020 C1017 1.431 1_554 S
C1020 C1030 1.476 . S
H1021 C1015 0.929 . S
C1022 O1013 1.250 . S
C1022 O1014 1.258 . S
O1023 Mn1008 2.162 . S
O1023 C1011 1.281 . S
O1024 Mn1008 2.297 . S
O1024 C1011 1.236 . S
N1025 Mn1009 2.282 . S
N1025 C1026 1.328 . S
N1025 C1030 1.318 . S
C1026 N1025 1.328 . S
C1026 C1027 1.457 . S
C1026 H1031 0.929 . S
C1027 C1026 1.457 . S
C1027 C1028 1.291 1_554 S
C1027 H1040 0.931 . S
C1028 C1027 1.291 1_556 S
C1028 C1029 1.373 . S
C1028 H1041 0.929 . S
C1029 C1028 1.373 . S
C1029 C1030 1.396 1_556 S
C1029 C1036 1.403 . S
C1030 C1020 1.476 . S
C1030 N1025 1.318 . S
C1030 C1029 1.396 1_554 S
H1031 C1026 0.929 . S
O1032 Mn1008 2.385 . S
O1032 C1010 1.234 . S
O1033 Mn1008 2.209 . S
O1033 Mn1009 2.215 . S
O1033 C1010 1.283 . S
O1034 Mn1008 2.094 . S
O1034 C1012 1.240 . S
O1035 Mn1009 2.117 . S
O1035 C1012 1.264 . S
C1036 C1029 1.403 . S
C1036 C1037 1.399 . S
C1036 H1042 0.929 . S
C1037 C1017 1.449 . S
C1037 C1036 1.399 . S
C1037 H1043 0.930 . S
H1038 C1018 0.931 . S
H1039 C1019 0.930 . S
H1040 C1027 0.931 . S
H1041 C1028 0.929 . S
H1042 C1036 0.929 . S
H1043 C1037 0.930 . S
Mn1044 O1049 2.095 . S
Mn1044 O1059 2.162 . S
Mn1044 O1060 2.297 . S
Mn1044 O1068 2.385 . S
Mn1044 O1069 2.209 . S
Mn1044 O1070 2.094 . S
Mn1045 O1050 2.121 . S
Mn1045 N1052 2.257 . S
Mn1045 N1061 2.282 . S
Mn1045 O1069 2.215 . S
Mn1045 O1071 2.117 . S
C1046 O1068 1.234 . S
C1046 O1069 1.283 . S
C1047 O1059 1.281 . S
C1047 O1060 1.236 . S
C1048 O1070 1.240 . S
C1048 O1071 1.264 . S
O1049 Mn1044 2.095 . S
O1049 C1058 1.250 . S
O1050 Mn1045 2.121 . S
O1050 C1058 1.258 . S
C1051 N1052 1.326 . S
C1051 C1055 1.460 1_554 S
C1051 H1057 0.929 . S
N1052 Mn1045 2.257 . S
N1052 C1051 1.326 . S
N1052 C1056 1.362 . S
C1053 C1054 1.258 . S
C1053 C1056 1.431 1_556 S
C1053 C1073 1.449 . S
C1054 C1053 1.258 . S
C1054 C1055 1.477 . S
C1054 H1074 0.931 . S
C1055 C1051 1.460 1_556 S
C1055 C1054 1.477 . S
C1055 H1075 0.930 . S
C1056 N1052 1.362 . S
C1056 C1053 1.431 1_554 S
C1056 C1066 1.476 . S
H1057 C1051 0.929 . S
C1058 O1049 1.250 . S
C1058 O1050 1.258 . S
O1059 Mn1044 2.162 . S
O1059 C1047 1.281 . S
O1060 Mn1044 2.297 . S
O1060 C1047 1.236 . S
N1061 Mn1045 2.282 . S
N1061 C1062 1.328 . S
N1061 C1066 1.318 . S
C1062 N1061 1.328 . S
C1062 C1063 1.457 . S
C1062 H1067 0.929 . S
C1063 C1062 1.457 . S
C1063 C1064 1.291 1_554 S
C1063 H1076 0.931 . S
C1064 C1063 1.291 1_556 S
C1064 C1065 1.373 . S
C1064 H1077 0.929 . S
C1065 C1064 1.373 . S
C1065 C1066 1.396 1_556 S
C1065 C1072 1.403 . S
C1066 C1056 1.476 . S
C1066 N1061 1.318 . S
C1066 C1065 1.396 1_554 S
H1067 C1062 0.929 . S
O1068 Mn1044 2.385 . S
O1068 C1046 1.234 . S
O1069 Mn1044 2.209 . S
O1069 Mn1045 2.215 . S
O1069 C1046 1.283 . S
O1070 Mn1044 2.094 . S
O1070 C1048 1.240 . S
O1071 Mn1045 2.117 . S
O1071 C1048 1.264 . S
C1072 C1065 1.403 . S
C1072 C1073 1.399 . S
C1072 H1078 0.929 . S
C1073 C1053 1.449 . S
C1073 C1072 1.399 . S
C1073 H1079 0.930 . S
H1074 C1054 0.931 . S
H1075 C1055 0.930 . S
H1076 C1063 0.931 . S
H1077 C1064 0.929 . S
H1078 C1072 0.929 . S
H1079 C1073 0.930 . S
Mn1080 O1085 2.095 . S
Mn1080 O1095 2.162 . S
Mn1080 O1096 2.297 . S
Mn1080 O1104 2.385 . S
Mn1080 O1105 2.209 . S
Mn1080 O1106 2.094 . S
Mn1081 O1086 2.121 . S
Mn1081 N1088 2.257 . S
Mn1081 N1097 2.282 . S
Mn1081 O1105 2.215 . S
Mn1081 O1107 2.117 . S
C1082 O1104 1.234 . S
C1082 O1105 1.283 . S
C1083 O1095 1.281 . S
C1083 O1096 1.236 . S
C1084 O1106 1.240 . S
C1084 O1107 1.264 . S
O1085 Mn1080 2.095 . S
O1085 C1094 1.250 . S
O1086 Mn1081 2.121 . S
O1086 C1094 1.258 . S
C1087 N1088 1.326 . S
C1087 C1091 1.460 . S
C1087 H1093 0.929 . S
N1088 Mn1081 2.257 . S
N1088 C1087 1.326 . S
N1088 C1092 1.362 . S
C1089 C1090 1.258 . S
C1089 C1092 1.431 . S
C1089 C1109 1.449 . S
C1090 C1089 1.258 . S
C1090 C1091 1.477 . S
C1090 H1110 0.931 . S
C1091 C1087 1.460 . S
C1091 C1090 1.477 . S
C1091 H1111 0.930 . S
C1092 N1088 1.362 . S
C1092 C1089 1.431 . S
C1092 C1102 1.476 . S
H1093 C1087 0.929 . S
C1094 O1085 1.250 . S
C1094 O1086 1.258 . S
O1095 Mn1080 2.162 . S
O1095 C1083 1.281 . S
O1096 Mn1080 2.297 . S
O1096 C1083 1.236 . S
N1097 Mn1081 2.282 . S
N1097 C1098 1.328 . S
N1097 C1102 1.318 . S
C1098 N1097 1.328 . S
C1098 C1099 1.457 . S
C1098 H1103 0.929 . S
C1099 C1098 1.457 . S
C1099 C1100 1.291 . S
C1099 H1112 0.931 . S
C1100 C1099 1.291 . S
C1100 C1101 1.373 . S
C1100 H1113 0.929 . S
C1101 C1100 1.373 . S
C1101 C1102 1.396 . S
C1101 C1108 1.403 . S
C1102 C1092 1.476 . S
C1102 N1097 1.318 . S
C1102 C1101 1.396 . S
H1103 C1098 0.929 . S
O1104 Mn1080 2.385 . S
O1104 C1082 1.234 . S
O1105 Mn1080 2.209 . S
O1105 Mn1081 2.215 . S
O1105 C1082 1.283 . S
O1106 Mn1080 2.094 . S
O1106 C1084 1.240 . S
O1107 Mn1081 2.117 . S
O1107 C1084 1.264 . S
C1108 C1101 1.403 . S
C1108 C1109 1.399 . S
C1108 H1114 0.929 . S
C1109 C1089 1.449 . S
C1109 C1108 1.399 . S
C1109 H1115 0.930 . S
H1110 C1090 0.931 . S
H1111 C1091 0.930 . S
H1112 C1099 0.931 . S
H1113 C1100 0.929 . S
H1114 C1108 0.929 . S
H1115 C1109 0.930 . S
Mn1116 O1121 2.095 . S
Mn1116 O1131 2.162 . S
Mn1116 O1132 2.297 . S
Mn1116 O1140 2.385 . S
Mn1116 O1141 2.209 . S
Mn1116 O1142 2.094 . S
Mn1117 O1122 2.121 . S
Mn1117 N1124 2.257 . S
Mn1117 N1133 2.282 . S
Mn1117 O1141 2.215 . S
Mn1117 O1143 2.117 . S
C1118 O1140 1.234 . S
C1118 O1141 1.283 . S
C1119 O1131 1.281 . S
C1119 O1132 1.236 . S
C1120 O1142 1.240 . S
C1120 O1143 1.264 . S
O1121 Mn1116 2.095 . S
O1121 C1130 1.250 . S
O1122 Mn1117 2.121 . S
O1122 C1130 1.258 . S
C1123 N1124 1.326 . S
C1123 C1127 1.460 . S
C1123 H1129 0.929 . S
N1124 Mn1117 2.257 . S
N1124 C1123 1.326 . S
N1124 C1128 1.362 . S
C1125 C1126 1.258 . S
C1125 C1128 1.431 . S
C1125 C1145 1.449 . S
C1126 C1125 1.258 . S
C1126 C1127 1.477 . S
C1126 H1146 0.931 . S
C1127 C1123 1.460 . S
C1127 C1126 1.477 . S
C1127 H1147 0.930 . S
C1128 N1124 1.362 . S
C1128 C1125 1.431 . S
C1128 C1138 1.476 . S
H1129 C1123 0.929 . S
C1130 O1121 1.250 . S
C1130 O1122 1.258 . S
O1131 Mn1116 2.162 . S
O1131 C1119 1.281 . S
O1132 Mn1116 2.297 . S
O1132 C1119 1.236 . S
N1133 Mn1117 2.282 . S
N1133 C1134 1.328 . S
N1133 C1138 1.318 . S
C1134 N1133 1.328 . S
C1134 C1135 1.457 . S
C1134 H1139 0.929 . S
C1135 C1134 1.457 . S
C1135 C1136 1.291 . S
C1135 H1148 0.931 . S
C1136 C1135 1.291 . S
C1136 C1137 1.373 . S
C1136 H1149 0.929 . S
C1137 C1136 1.373 . S
C1137 C1138 1.396 . S
C1137 C1144 1.403 . S
C1138 C1128 1.476 . S
C1138 N1133 1.318 . S
C1138 C1137 1.396 . S
H1139 C1134 0.929 . S
O1140 Mn1116 2.385 . S
O1140 C1118 1.234 . S
O1141 Mn1116 2.209 . S
O1141 Mn1117 2.215 . S
O1141 C1118 1.283 . S
O1142 Mn1116 2.094 . S
O1142 C1120 1.240 . S
O1143 Mn1117 2.117 . S
O1143 C1120 1.264 . S
C1144 C1137 1.403 . S
C1144 C1145 1.399 . S
C1144 H1150 0.929 . S
C1145 C1125 1.449 . S
C1145 C1144 1.399 . S
C1145 H1151 0.930 . S
H1146 C1126 0.931 . S
H1147 C1127 0.930 . S
H1148 C1135 0.931 . S
H1149 C1136 0.929 . S
H1150 C1144 0.929 . S
H1151 C1145 0.930 . S
Mn1152 O1157 2.095 . S
Mn1152 O1167 2.162 . S
Mn1152 O1168 2.297 . S
Mn1152 O1176 2.385 . S
Mn1152 O1177 2.209 . S
Mn1152 O1178 2.094 . S
Mn1153 O1158 2.121 . S
Mn1153 N1160 2.257 . S
Mn1153 N1169 2.282 . S
Mn1153 O1177 2.215 . S
Mn1153 O1179 2.117 . S
C1154 O1176 1.234 . S
C1154 O1177 1.283 . S
C1155 O1167 1.281 . S
C1155 O1168 1.236 . S
C1156 O1178 1.240 . S
C1156 O1179 1.264 . S
O1157 Mn1152 2.095 . S
O1157 C1166 1.250 . S
O1158 Mn1153 2.121 . S
O1158 C1166 1.258 . S
C1159 N1160 1.326 . S
C1159 C1163 1.460 . S
C1159 H1165 0.929 . S
N1160 Mn1153 2.257 . S
N1160 C1159 1.326 . S
N1160 C1164 1.362 . S
C1161 C1162 1.258 . S
C1161 C1164 1.431 . S
C1161 C1181 1.449 . S
C1162 C1161 1.258 . S
C1162 C1163 1.477 . S
C1162 H1182 0.931 . S
C1163 C1159 1.460 . S
C1163 C1162 1.477 . S
C1163 H1183 0.930 . S
C1164 N1160 1.362 . S
C1164 C1161 1.431 . S
C1164 C1174 1.476 . S
H1165 C1159 0.929 . S
C1166 O1157 1.250 . S
C1166 O1158 1.258 . S
O1167 Mn1152 2.162 . S
O1167 C1155 1.281 . S
O1168 Mn1152 2.297 . S
O1168 C1155 1.236 . S
N1169 Mn1153 2.282 . S
N1169 C1170 1.328 . S
N1169 C1174 1.318 . S
C1170 N1169 1.328 . S
C1170 C1171 1.457 . S
C1170 H1175 0.929 . S
C1171 C1170 1.457 . S
C1171 C1172 1.291 . S
C1171 H1184 0.931 . S
C1172 C1171 1.291 . S
C1172 C1173 1.373 . S
C1172 H1185 0.929 . S
C1173 C1172 1.373 . S
C1173 C1174 1.396 . S
C1173 C1180 1.403 . S
C1174 C1164 1.476 . S
C1174 N1169 1.318 . S
C1174 C1173 1.396 . S
H1175 C1170 0.929 . S
O1176 Mn1152 2.385 . S
O1176 C1154 1.234 . S
O1177 Mn1152 2.209 . S
O1177 Mn1153 2.215 . S
O1177 C1154 1.283 . S
O1178 Mn1152 2.094 . S
O1178 C1156 1.240 . S
O1179 Mn1153 2.117 . S
O1179 C1156 1.264 . S
C1180 C1173 1.403 . S
C1180 C1181 1.399 . S
C1180 H1186 0.929 . S
C1181 C1161 1.449 . S
C1181 C1180 1.399 . S
C1181 H1187 0.930 . S
H1182 C1162 0.931 . S
H1183 C1163 0.930 . S
H1184 C1171 0.931 . S
H1185 C1172 0.929 . S
H1186 C1180 0.929 . S
H1187 C1181 0.930 . S
Mn1188 O1193 2.095 . S
Mn1188 O1203 2.162 . S
Mn1188 O1204 2.297 . S
Mn1188 O1212 2.385 . S
Mn1188 O1213 2.209 . S
Mn1188 O1214 2.094 . S
Mn1189 O1194 2.121 . S
Mn1189 N1196 2.257 . S
Mn1189 N1205 2.282 . S
Mn1189 O1213 2.215 . S
Mn1189 O1215 2.117 . S
C1190 O1212 1.234 . S
C1190 O1213 1.283 . S
C1191 O1203 1.281 . S
C1191 O1204 1.236 . S
C1192 O1214 1.240 . S
C1192 O1215 1.264 . S
O1193 Mn1188 2.095 . S
O1193 C1202 1.250 . S
O1194 Mn1189 2.121 . S
O1194 C1202 1.258 . S
C1195 N1196 1.326 . S
C1195 C1199 1.460 . S
C1195 H1201 0.929 . S
N1196 Mn1189 2.257 . S
N1196 C1195 1.326 . S
N1196 C1200 1.362 . S
C1197 C1198 1.258 . S
C1197 C1200 1.431 . S
C1197 C1217 1.449 . S
C1198 C1197 1.258 . S
C1198 C1199 1.477 . S
C1198 H1218 0.931 . S
C1199 C1195 1.460 . S
C1199 C1198 1.477 . S
C1199 H1219 0.930 . S
C1200 N1196 1.362 . S
C1200 C1197 1.431 . S
C1200 C1210 1.476 . S
H1201 C1195 0.929 . S
C1202 O1193 1.250 . S
C1202 O1194 1.258 . S
O1203 Mn1188 2.162 . S
O1203 C1191 1.281 . S
O1204 Mn1188 2.297 . S
O1204 C1191 1.236 . S
N1205 Mn1189 2.282 . S
N1205 C1206 1.328 . S
N1205 C1210 1.318 . S
C1206 N1205 1.328 . S
C1206 C1207 1.457 . S
C1206 H1211 0.929 . S
C1207 C1206 1.457 . S
C1207 C1208 1.291 . S
C1207 H1220 0.931 . S
C1208 C1207 1.291 . S
C1208 C1209 1.373 . S
C1208 H1221 0.929 . S
C1209 C1208 1.373 . S
C1209 C1210 1.396 . S
C1209 C1216 1.403 . S
C1210 C1200 1.476 . S
C1210 N1205 1.318 . S
C1210 C1209 1.396 . S
H1211 C1206 0.929 . S
O1212 Mn1188 2.385 . S
O1212 C1190 1.234 . S
O1213 Mn1188 2.209 . S
O1213 Mn1189 2.215 . S
O1213 C1190 1.283 . S
O1214 Mn1188 2.094 . S
O1214 C1192 1.240 . S
O1215 Mn1189 2.117 . S
O1215 C1192 1.264 . S
C1216 C1209 1.403 . S
C1216 C1217 1.399 . S
C1216 H1222 0.929 . S
C1217 C1197 1.449 . S
C1217 C1216 1.399 . S
C1217 H1223 0.930 . S
H1218 C1198 0.931 . S
H1219 C1199 0.930 . S
H1220 C1207 0.931 . S
H1221 C1208 0.929 . S
H1222 C1216 0.929 . S
H1223 C1217 0.930 . S
Mn1224 O1229 2.095 . S
Mn1224 O1239 2.162 . S
Mn1224 O1240 2.297 . S
Mn1224 O1248 2.385 . S
Mn1224 O1249 2.209 . S
Mn1224 O1250 2.094 . S
Mn1225 O1230 2.121 . S
Mn1225 N1232 2.257 . S
Mn1225 N1241 2.282 . S
Mn1225 O1249 2.215 . S
Mn1225 O1251 2.117 . S
C1226 O1248 1.234 . S
C1226 O1249 1.283 . S
C1227 O1239 1.281 . S
C1227 O1240 1.236 . S
C1228 O1250 1.240 . S
C1228 O1251 1.264 . S
O1229 Mn1224 2.095 . S
O1229 C1238 1.250 . S
O1230 Mn1225 2.121 . S
O1230 C1238 1.258 . S
C1231 N1232 1.326 . S
C1231 C1235 1.460 . S
C1231 H1237 0.929 . S
N1232 Mn1225 2.257 . S
N1232 C1231 1.326 . S
N1232 C1236 1.362 . S
C1233 C1234 1.258 . S
C1233 C1236 1.431 . S
C1233 C1253 1.449 . S
C1234 C1233 1.258 . S
C1234 C1235 1.477 . S
C1234 H1254 0.931 . S
C1235 C1231 1.460 . S
C1235 C1234 1.477 . S
C1235 H1255 0.930 . S
C1236 N1232 1.362 . S
C1236 C1233 1.431 . S
C1236 C1246 1.476 . S
H1237 C1231 0.929 . S
C1238 O1229 1.250 . S
C1238 O1230 1.258 . S
O1239 Mn1224 2.162 . S
O1239 C1227 1.281 . S
O1240 Mn1224 2.297 . S
O1240 C1227 1.236 . S
N1241 Mn1225 2.282 . S
N1241 C1242 1.328 . S
N1241 C1246 1.318 . S
C1242 N1241 1.328 . S
C1242 C1243 1.457 . S
C1242 H1247 0.929 . S
C1243 C1242 1.457 . S
C1243 C1244 1.291 . S
C1243 H1256 0.931 . S
C1244 C1243 1.291 . S
C1244 C1245 1.373 . S
C1244 H1257 0.929 . S
C1245 C1244 1.373 . S
C1245 C1246 1.396 . S
C1245 C1252 1.403 . S
C1246 C1236 1.476 . S
C1246 N1241 1.318 . S
C1246 C1245 1.396 . S
H1247 C1242 0.929 . S
O1248 Mn1224 2.385 . S
O1248 C1226 1.234 . S
O1249 Mn1224 2.209 . S
O1249 Mn1225 2.215 . S
O1249 C1226 1.283 . S
O1250 Mn1224 2.094 . S
O1250 C1228 1.240 . S
O1251 Mn1225 2.117 . S
O1251 C1228 1.264 . S
C1252 C1245 1.403 . S
C1252 C1253 1.399 . S
C1252 H1258 0.929 . S
C1253 C1233 1.449 . S
C1253 C1252 1.399 . S
C1253 H1259 0.930 . S
H1254 C1234 0.931 . S
H1255 C1235 0.930 . S
H1256 C1243 0.931 . S
H1257 C1244 0.929 . S
H1258 C1252 0.929 . S
H1259 C1253 0.930 . S
Mn1260 O1265 2.095 . S
Mn1260 O1275 2.162 . S
Mn1260 O1276 2.297 . S
Mn1260 O1284 2.385 . S
Mn1260 O1285 2.209 . S
Mn1260 O1286 2.094 . S
Mn1261 O1266 2.121 . S
Mn1261 N1268 2.257 . S
Mn1261 N1277 2.282 . S
Mn1261 O1285 2.215 . S
Mn1261 O1287 2.117 . S
C1262 O1284 1.234 . S
C1262 O1285 1.283 . S
C1263 O1275 1.281 . S
C1263 O1276 1.236 . S
C1264 O1286 1.240 . S
C1264 O1287 1.264 . S
O1265 Mn1260 2.095 . S
O1265 C1274 1.250 . S
O1266 Mn1261 2.121 . S
O1266 C1274 1.258 . S
C1267 N1268 1.326 . S
C1267 C1271 1.460 . S
C1267 H1273 0.929 . S
N1268 Mn1261 2.257 . S
N1268 C1267 1.326 . S
N1268 C1272 1.362 . S
C1269 C1270 1.258 . S
C1269 C1272 1.431 . S
C1269 C1289 1.449 . S
C1270 C1269 1.258 . S
C1270 C1271 1.477 . S
C1270 H1290 0.931 . S
C1271 C1267 1.460 . S
C1271 C1270 1.477 . S
C1271 H1291 0.930 . S
C1272 N1268 1.362 . S
C1272 C1269 1.431 . S
C1272 C1282 1.476 . S
H1273 C1267 0.929 . S
C1274 O1265 1.250 . S
C1274 O1266 1.258 . S
O1275 Mn1260 2.162 . S
O1275 C1263 1.281 . S
O1276 Mn1260 2.297 . S
O1276 C1263 1.236 . S
N1277 Mn1261 2.282 . S
N1277 C1278 1.328 . S
N1277 C1282 1.318 . S
C1278 N1277 1.328 . S
C1278 C1279 1.457 . S
C1278 H1283 0.929 . S
C1279 C1278 1.457 . S
C1279 C1280 1.291 . S
C1279 H1292 0.931 . S
C1280 C1279 1.291 . S
C1280 C1281 1.373 . S
C1280 H1293 0.929 . S
C1281 C1280 1.373 . S
C1281 C1282 1.396 . S
C1281 C1288 1.403 . S
C1282 C1272 1.476 . S
C1282 N1277 1.318 . S
C1282 C1281 1.396 . S
H1283 C1278 0.929 . S
O1284 Mn1260 2.385 . S
O1284 C1262 1.234 . S
O1285 Mn1260 2.209 . S
O1285 Mn1261 2.215 . S
O1285 C1262 1.283 . S
O1286 Mn1260 2.094 . S
O1286 C1264 1.240 . S
O1287 Mn1261 2.117 . S
O1287 C1264 1.264 . S
C1288 C1281 1.403 . S
C1288 C1289 1.399 . S
C1288 H1294 0.929 . S
C1289 C1269 1.449 . S
C1289 C1288 1.399 . S
C1289 H1295 0.930 . S
H1290 C1270 0.931 . S
H1291 C1271 0.930 . S
H1292 C1279 0.931 . S
H1293 C1280 0.929 . S
H1294 C1288 0.929 . S
H1295 C1289 0.930 . S
H1296 C1304 0.950 . S
H1297 C1309 0.950 . S
H1298 C1306 0.950 . S
H1299 C1308 0.950 . S
H1300 C1310 0.925 1_565 S
H1301 C1312 0.950 . S
H1302 C1314 0.950 1_554 S
H1303 C1315 0.950 . S
C1304 H1296 0.950 . S
C1304 C1305 1.386 . S
C1304 C1306 1.391 . S
C1305 C1304 1.386 . S
C1305 C1309 1.393 . S
C1306 H1298 0.950 . S
C1306 C1304 1.391 . S
C1306 C1307 1.400 . S
C1307 C1306 1.400 . S
C1307 C1308 1.398 . S
C1307 C1313 1.505 . S
C1308 H1299 0.950 . S
C1308 C1307 1.398 . S
C1308 C1309 1.391 . S
C1309 H1297 0.950 . S
C1309 C1305 1.393 . S
C1309 C1308 1.391 . S
C1310 H1300 0.925 1_545 S
C1310 C1311 1.382 1_545 S
C1310 C1312 1.403 . S
C1311 C1310 1.382 1_565 S
C1311 C1315 1.393 . S
C1312 H1301 0.950 . S
C1312 C1310 1.403 . S
C1312 C1313 1.389 1_556 S
C1313 C1307 1.505 . S
C1313 C1312 1.389 1_554 S
C1313 C1314 1.395 1_554 S
C1314 H1302 0.950 1_556 S
C1314 C1313 1.395 1_556 S
C1314 C1315 1.391 1_545 S
C1315 H1303 0.950 . S
C1315 C1311 1.393 . S
C1315 C1314 1.391 1_565 S
H1316 C1324 0.950 . S
H1317 C1329 0.950 . S
H1318 C1326 0.950 . S
H1319 C1328 0.950 . S
H1320 C1330 0.950 . S
H1321 C1332 0.950 . S
H1322 C1334 0.950 . S
H1323 C1335 0.950 . S
C1324 H1316 0.950 . S
C1324 C1325 1.386 . S
C1324 C1326 1.391 . S
C1325 C1324 1.386 . S
C1325 C1329 1.393 . S
C1326 H1318 0.950 . S
C1326 C1324 1.391 . S
C1326 C1327 1.400 . S
C1327 C1326 1.400 . S
C1327 C1328 1.398 . S
C1327 C1333 1.505 . S
C1328 H1319 0.950 . S
C1328 C1327 1.398 . S
C1328 C1329 1.391 . S
C1329 H1317 0.950 . S
C1329 C1325 1.393 . S
C1329 C1328 1.391 . S
C1330 H1320 0.950 . S
C1330 C1331 1.386 . S
C1330 C1332 1.391 1_455 S
C1331 C1330 1.386 . S
C1331 C1335 1.393 . S
C1332 H1321 0.950 . S
C1332 C1330 1.391 1_655 S
C1332 C1333 1.394 1_556 S
C1333 C1327 1.505 . S
C1333 C1332 1.394 1_554 S
C1333 C1334 1.391 1_554 S
C1334 H1322 0.950 . S
C1334 C1333 1.391 1_556 S
C1334 C1335 1.391 1_655 S
C1335 H1323 0.950 . S
C1335 C1331 1.393 . S
C1335 C1334 1.391 1_455 S
H1336 C1344 0.950 1_554 S
H1337 C1349 0.950 . S
H1338 C1346 0.950 . S
H1339 C1348 0.950 . S
H1340 C1350 0.950 . S
H1341 C1352 0.950 1_556 S
H1342 C1354 0.950 . S
H1343 C1355 0.950 . S
C1344 H1336 0.950 1_556 S
C1344 C1345 1.386 . S
C1344 C1346 1.391 1_556 S
C1345 C1344 1.386 . S
C1345 C1349 1.393 . S
C1346 H1338 0.950 . S
C1346 C1344 1.391 1_554 S
C1346 C1347 1.400 . S
C1347 C1346 1.400 . S
C1347 C1348 1.400 1_554 S
C1347 C1353 1.489 . S
C1348 H1339 0.950 . S
C1348 C1347 1.400 1_556 S
C1348 C1349 1.391 . S
C1349 H1337 0.950 . S
C1349 C1345 1.393 . S
C1349 C1348 1.391 . S
C1350 H1340 0.950 . S
C1350 C1351 1.386 . S
C1350 C1352 1.391 . S
C1351 C1350 1.386 . S
C1351 C1355 1.393 . S
C1352 H1341 0.950 1_554 S
C1352 C1350 1.391 . S
C1352 C1353 1.400 . S
C1353 C1347 1.489 . S
C1353 C1352 1.400 . S
C1353 C1354 1.398 . S
C1354 H1342 0.950 . S
C1354 C1353 1.398 . S
C1354 C1355 1.391 . S
C1355 H1343 0.950 . S
C1355 C1351 1.393 . S
C1355 C1354 1.391 . S
H1356 C1364 0.950 . S
H1357 C1369 0.950 . S
H1358 C1366 0.950 . S
H1359 C1368 0.950 . S
H1360 C1370 0.950 . S
H1361 C1372 0.950 . S
H1362 C1374 0.950 . S
H1363 C1375 0.950 . S
C1364 H1356 0.950 . S
C1364 C1365 1.386 . S
C1364 C1366 1.391 1_655 S
C1365 C1364 1.386 . S
C1365 C1369 1.393 . S
C1366 H1358 0.950 . S
C1366 C1364 1.391 1_455 S
C1366 C1367 1.400 . S
C1367 C1366 1.400 . S
C1367 C1368 1.398 . S
C1367 C1373 1.491 . S
C1368 H1359 0.950 . S
C1368 C1367 1.398 . S
C1368 C1369 1.391 1_455 S
C1369 H1357 0.950 . S
C1369 C1365 1.393 . S
C1369 C1368 1.391 1_655 S
C1370 H1360 0.950 . S
C1370 C1371 1.386 . S
C1370 C1372 1.391 . S
C1371 C1370 1.386 . S
C1371 C1375 1.393 . S
C1372 H1361 0.950 . S
C1372 C1370 1.391 . S
C1372 C1373 1.400 . S
C1373 C1367 1.491 . S
C1373 C1372 1.400 . S
C1373 C1374 1.398 . S
C1374 H1362 0.950 . S
C1374 C1373 1.398 . S
C1374 C1375 1.391 . S
C1375 H1363 0.950 . S
C1375 C1371 1.393 . S
C1375 C1374 1.391 . S
H1376 C1384 0.950 . S
H1377 C1389 0.950 . S
H1378 C1386 0.950 . S
H1379 C1388 0.950 . S
H1380 C1390 0.950 . S
H1381 C1392 0.950 . S
H1382 C1394 0.950 . S
H1383 C1395 0.950 . S
C1384 H1376 0.950 . S
C1384 C1385 1.386 . S
C1384 C1386 1.391 . S
C1385 C1384 1.386 . S
C1385 C1389 1.393 . S
C1386 H1378 0.950 . S
C1386 C1384 1.391 . S
C1386 C1387 1.400 . S
C1387 C1386 1.400 . S
C1387 C1388 1.398 . S
C1387 C1393 1.491 . S
C1388 H1379 0.950 . S
C1388 C1387 1.398 . S
C1388 C1389 1.391 . S
C1389 H1377 0.950 . S
C1389 C1385 1.393 . S
C1389 C1388 1.391 . S
C1390 H1380 0.950 . S
C1390 C1391 1.386 . S
C1390 C1392 1.391 . S
C1391 C1390 1.386 . S
C1391 C1395 1.393 . S
C1392 H1381 0.950 . S
C1392 C1390 1.391 . S
C1392 C1393 1.400 . S
C1393 C1387 1.491 . S
C1393 C1392 1.400 . S
C1393 C1394 1.398 . S
C1394 H1382 0.950 . S
C1394 C1393 1.398 . S
C1394 C1395 1.391 . S
C1395 H1383 0.950 . S
C1395 C1391 1.393 . S
C1395 C1394 1.391 . S
H1396 C1404 0.950 . S
H1397 C1409 0.950 . S
H1398 C1406 0.950 . S
H1399 C1408 0.950 . S
H1400 C1410 0.950 . S
H1401 C1412 0.950 . S
H1402 C1414 0.950 . S
H1403 C1415 0.950 . S
C1404 H1396 0.950 . S
C1404 C1405 1.386 . S
C1404 C1406 1.391 . S
C1405 C1404 1.386 . S
C1405 C1409 1.393 . S
C1406 H1398 0.950 . S
C1406 C1404 1.391 . S
C1406 C1407 1.400 . S
C1407 C1406 1.400 . S
C1407 C1408 1.398 . S
C1407 C1413 1.491 . S
C1408 H1399 0.950 . S
C1408 C1407 1.398 . S
C1408 C1409 1.391 . S
C1409 H1397 0.950 . S
C1409 C1405 1.393 . S
C1409 C1408 1.391 . S
C1410 H1400 0.950 . S
C1410 C1411 1.386 . S
C1410 C1412 1.391 1_545 S
C1411 C1410 1.386 . S
C1411 C1415 1.393 1_545 S
C1412 H1401 0.950 . S
C1412 C1410 1.391 1_565 S
C1412 C1413 1.400 . S
C1413 C1407 1.491 . S
C1413 C1412 1.400 . S
C1413 C1414 1.398 . S
C1414 H1402 0.950 . S
C1414 C1413 1.398 . S
C1414 C1415 1.391 . S
C1415 H1403 0.950 . S
C1415 C1411 1.393 1_565 S
C1415 C1414 1.391 . S
H1416 C1424 0.945 . S
H1417 C1429 0.950 . S
H1418 C1426 0.950 . S
H1419 C1428 0.950 . S
H1420 C1430 0.950 . S
H1421 C1432 0.950 . S
H1422 C1434 0.950 1_554 S
H1423 C1435 0.950 . S
C1424 H1416 0.945 . S
C1424 C1425 1.422 . S
C1424 C1426 1.360 1_545 S
C1425 C1424 1.422 . S
C1425 C1429 1.393 . S
C1426 H1418 0.950 . S
C1426 C1424 1.360 1_565 S
C1426 C1427 1.398 . S
C1427 C1426 1.398 . S
C1427 C1428 1.399 1_554 S
C1427 C1433 1.492 1_554 S
C1428 H1419 0.950 . S
C1428 C1427 1.399 1_556 S
C1428 C1429 1.391 1_566 S
C1429 H1417 0.950 . S
C1429 C1425 1.393 . S
C1429 C1428 1.391 1_544 S
C1430 H1420 0.950 . S
C1430 C1431 1.386 . S
C1430 C1432 1.391 . S
C1431 C1430 1.386 . S
C1431 C1435 1.393 . S
C1432 H1421 0.950 . S
C1432 C1430 1.391 . S
C1432 C1433 1.400 . S
C1433 C1427 1.492 1_556 S
C1433 C1432 1.400 . S
C1433 C1434 1.398 . S
C1434 H1422 0.950 1_556 S
C1434 C1433 1.398 . S
C1434 C1435 1.391 . S
C1435 H1423 0.950 . S
C1435 C1431 1.393 . S
C1435 C1434 1.391 . S
H1436 C1444 0.950 . S
H1437 C1449 0.950 . S
H1438 C1446 0.950 . S
H1439 C1448 0.950 . S
H1440 C1450 0.950 . S
H1441 C1452 0.950 . S
H1442 C1454 0.950 1_554 S
H1443 C1455 0.950 . S
C1444 H1436 0.950 . S
C1444 C1445 1.386 1_455 S
C1444 C1446 1.391 . S
C1445 C1444 1.386 1_655 S
C1445 C1449 1.393 . S
C1446 H1438 0.950 . S
C1446 C1444 1.391 . S
C1446 C1447 1.385 1_554 S
C1447 C1446 1.385 1_556 S
C1447 C1448 1.403 1_455 S
C1447 C1453 1.500 . S
C1448 H1439 0.950 . S
C1448 C1447 1.403 1_655 S
C1448 C1449 1.391 1_556 S
C1449 H1437 0.950 . S
C1449 C1445 1.393 . S
C1449 C1448 1.391 1_554 S
C1450 H1440 0.950 . S
C1450 C1451 1.386 . S
C1450 C1452 1.391 . S
C1451 C1450 1.386 . S
C1451 C1455 1.393 . S
C1452 H1441 0.950 . S
C1452 C1450 1.391 . S
C1452 C1453 1.400 . S
C1453 C1447 1.500 . S
C1453 C1452 1.400 . S
C1453 C1454 1.398 . S
C1454 H1442 0.950 1_556 S
C1454 C1453 1.398 . S
C1454 C1455 1.391 . S
C1455 H1443 0.950 . S
C1455 C1451 1.393 . S
C1455 C1454 1.391 . S
H1456 C1464 0.950 . S
H1457 C1469 0.950 . S
H1458 C1466 0.950 . S
H1459 C1468 0.950 . S
H1460 C1470 0.950 . S
H1461 C1472 0.950 . S
H1462 C1474 0.971 . S
H1463 C1475 0.950 . S
C1464 H1456 0.950 . S
C1464 C1465 1.386 . S
C1464 C1466 1.391 . S
C1465 C1464 1.386 . S
C1465 C1469 1.393 . S
C1466 H1458 0.950 . S
C1466 C1464 1.391 . S
C1466 C1467 1.400 . S
C1467 C1466 1.400 . S
C1467 C1468 1.398 . S
C1467 C1473 1.504 . S
C1468 H1459 0.950 . S
C1468 C1467 1.398 . S
C1468 C1469 1.391 . S
C1469 H1457 0.950 . S
C1469 C1465 1.393 . S
C1469 C1468 1.391 . S
C1470 H1460 0.950 . S
C1470 C1471 1.386 . S
C1470 C1472 1.391 . S
C1471 C1470 1.386 . S
C1471 C1475 1.393 . S
C1472 H1461 0.950 . S
C1472 C1470 1.391 . S
C1472 C1473 1.386 1_554 S
C1473 C1467 1.504 . S
C1473 C1472 1.386 1_556 S
C1473 C1474 1.398 . S
C1474 H1462 0.971 . S
C1474 C1473 1.398 . S
C1474 C1475 1.371 1_556 S
C1475 H1463 0.950 . S
C1475 C1471 1.393 . S
C1475 C1474 1.371 1_554 S
H1476 C1484 0.950 . S
H1477 C1489 0.950 . S
H1478 C1486 0.950 . S
H1479 C1488 0.950 . S
H1480 C1490 0.950 . S
H1481 C1492 0.950 . S
H1482 C1494 0.950 . S
H1483 C1495 0.950 . S
C1484 H1476 0.950 . S
C1484 C1485 1.386 . S
C1484 C1486 1.391 . S
C1485 C1484 1.386 . S
C1485 C1489 1.393 . S
C1486 H1478 0.950 . S
C1486 C1484 1.391 . S
C1486 C1487 1.400 . S
C1487 C1486 1.400 . S
C1487 C1488 1.398 . S
C1487 C1493 1.491 . S
C1488 H1479 0.950 . S
C1488 C1487 1.398 . S
C1488 C1489 1.391 . S
C1489 H1477 0.950 . S
C1489 C1485 1.393 . S
C1489 C1488 1.391 . S
C1490 H1480 0.950 . S
C1490 C1491 1.386 . S
C1490 C1492 1.391 . S
C1491 C1490 1.386 . S
C1491 C1495 1.393 1_455 S
C1492 H1481 0.950 . S
C1492 C1490 1.391 . S
C1492 C1493 1.400 1_455 S
C1493 C1487 1.491 . S
C1493 C1492 1.400 1_655 S
C1493 C1494 1.398 . S
C1494 H1482 0.950 . S
C1494 C1493 1.398 . S
C1494 C1495 1.391 . S
C1495 H1483 0.950 . S
C1495 C1491 1.393 1_655 S
C1495 C1494 1.391 . S
H1496 C1504 0.950 . S
H1497 C1509 0.950 . S
H1498 C1506 0.950 . S
H1499 C1508 0.950 . S
H1500 C1510 0.950 . S
H1501 C1512 0.950 . S
H1502 C1514 0.950 . S
H1503 C1515 0.950 . S
C1504 H1496 0.950 . S
C1504 C1505 1.386 . S
C1504 C1506 1.391 . S
C1505 C1504 1.386 . S
C1505 C1509 1.393 . S
C1506 H1498 0.950 . S
C1506 C1504 1.391 . S
C1506 C1507 1.400 . S
C1507 C1506 1.400 . S
C1507 C1508 1.398 . S
C1507 C1513 1.491 . S
C1508 H1499 0.950 . S
C1508 C1507 1.398 . S
C1508 C1509 1.391 . S
C1509 H1497 0.950 . S
C1509 C1505 1.393 . S
C1509 C1508 1.391 . S
C1510 H1500 0.950 . S
C1510 C1511 1.386 . S
C1510 C1512 1.391 . S
C1511 C1510 1.386 . S
C1511 C1515 1.393 . S
C1512 H1501 0.950 . S
C1512 C1510 1.391 . S
C1512 C1513 1.400 . S
C1513 C1507 1.491 . S
C1513 C1512 1.400 . S
C1513 C1514 1.398 . S
C1514 H1502 0.950 . S
C1514 C1513 1.398 . S
C1514 C1515 1.391 . S
C1515 H1503 0.950 . S
C1515 C1511 1.393 . S
C1515 C1514 1.391 . S
H1516 C1524 0.950 . S
H1517 C1529 0.950 . S
H1518 C1526 0.950 . S
H1519 C1528 0.950 . S
H1520 C1530 0.950 . S
H1521 C1532 0.950 . S
H1522 C1534 0.950 . S
H1523 C1535 0.950 . S
C1524 H1516 0.950 . S
C1524 C1525 1.386 . S
C1524 C1526 1.391 . S
C1525 C1524 1.386 . S
C1525 C1529 1.393 . S
C1526 H1518 0.950 . S
C1526 C1524 1.391 . S
C1526 C1527 1.400 . S
C1527 C1526 1.400 . S
C1527 C1528 1.398 . S
C1527 C1533 1.491 . S
C1528 H1519 0.950 . S
C1528 C1527 1.398 . S
C1528 C1529 1.391 . S
C1529 H1517 0.950 . S
C1529 C1525 1.393 . S
C1529 C1528 1.391 . S
C1530 H1520 0.950 . S
C1530 C1531 1.386 . S
C1530 C1532 1.391 1_565 S
C1531 C1530 1.386 . S
C1531 C1535 1.393 . S
C1532 H1521 0.950 . S
C1532 C1530 1.391 1_545 S
C1532 C1533 1.400 . S
C1533 C1527 1.491 . S
C1533 C1532 1.400 . S
C1533 C1534 1.398 . S
C1534 H1522 0.950 . S
C1534 C1533 1.398 . S
C1534 C1535 1.391 1_545 S
C1535 H1523 0.950 . S
C1535 C1531 1.393 . S
C1535 C1534 1.391 1_565 S
H1536 C1544 0.950 . S
H1537 C1549 0.950 . S
H1538 C1546 0.950 . S
H1539 C1548 0.950 . S
H1540 C1550 0.950 . S
H1541 C1552 0.950 . S
H1542 C1554 0.950 . S
H1543 C1555 0.950 . S
C1544 H1536 0.950 . S
C1544 C1545 1.386 . S
C1544 C1546 1.391 . S
C1545 C1544 1.386 . S
C1545 C1549 1.393 . S
C1546 H1538 0.950 . S
C1546 C1544 1.391 . S
C1546 C1547 1.400 . S
C1547 C1546 1.400 . S
C1547 C1548 1.398 . S
C1547 C1553 1.491 . S
C1548 H1539 0.950 . S
C1548 C1547 1.398 . S
C1548 C1549 1.391 . S
C1549 H1537 0.950 . S
C1549 C1545 1.393 . S
C1549 C1548 1.391 . S
C1550 H1540 0.950 . S
C1550 C1551 1.386 . S
C1550 C1552 1.391 . S
C1551 C1550 1.386 . S
C1551 C1555 1.393 . S
C1552 H1541 0.950 . S
C1552 C1550 1.391 . S
C1552 C1553 1.400 . S
C1553 C1547 1.491 . S
C1553 C1552 1.400 . S
C1553 C1554 1.398 . S
C1554 H1542 0.950 . S
C1554 C1553 1.398 . S
C1554 C1555 1.391 . S
C1555 H1543 0.950 . S
C1555 C1551 1.393 . S
C1555 C1554 1.391 . S
H1556 C1564 0.950 . S
H1557 C1569 0.950 . S
H1558 C1566 0.950 . S
H1559 C1568 0.950 . S
H1560 C1570 0.950 . S
H1561 C1572 0.950 . S
H1562 C1574 0.950 . S
H1563 C1575 0.950 . S
C1564 H1556 0.950 . S
C1564 C1565 1.386 . S
C1564 C1566 1.391 . S
C1565 C1564 1.386 . S
C1565 C1569 1.393 . S
C1566 H1558 0.950 . S
C1566 C1564 1.391 . S
C1566 C1567 1.400 . S
C1567 C1566 1.400 . S
C1567 C1568 1.398 . S
C1567 C1573 1.491 . S
C1568 H1559 0.950 . S
C1568 C1567 1.398 . S
C1568 C1569 1.391 . S
C1569 H1557 0.950 . S
C1569 C1565 1.393 . S
C1569 C1568 1.391 . S
C1570 H1560 0.950 . S
C1570 C1571 1.386 . S
C1570 C1572 1.391 . S
C1571 C1570 1.386 . S
C1571 C1575 1.393 . S
C1572 H1561 0.950 . S
C1572 C1570 1.391 . S
C1572 C1573 1.400 . S
C1573 C1567 1.491 . S
C1573 C1572 1.400 . S
C1573 C1574 1.398 . S
C1574 H1562 0.950 . S
C1574 C1573 1.398 . S
C1574 C1575 1.391 . S
C1575 H1563 0.950 . S
C1575 C1571 1.393 . S
C1575 C1574 1.391 . S
H1576 C1584 0.950 . S
H1577 C1589 0.950 . S
H1578 C1586 0.950 . S
H1579 C1588 0.950 . S
H1580 C1590 0.950 . S
H1581 C1592 0.950 . S
H1582 C1594 0.950 . S
H1583 C1595 0.950 . S
C1584 H1576 0.950 . S
C1584 C1585 1.386 . S
C1584 C1586 1.391 . S
C1585 C1584 1.386 . S
C1585 C1589 1.393 . S
C1586 H1578 0.950 . S
C1586 C1584 1.391 . S
C1586 C1587 1.400 . S
C1587 C1586 1.400 . S
C1587 C1588 1.398 . S
C1587 C1593 1.491 . S
C1588 H1579 0.950 . S
C1588 C1587 1.398 . S
C1588 C1589 1.391 . S
C1589 H1577 0.950 . S
C1589 C1585 1.393 . S
C1589 C1588 1.391 . S
C1590 H1580 0.950 . S
C1590 C1591 1.386 . S
C1590 C1592 1.391 . S
C1591 C1590 1.386 . S
C1591 C1595 1.393 . S
C1592 H1581 0.950 . S
C1592 C1590 1.391 . S
C1592 C1593 1.400 . S
C1593 C1587 1.491 . S
C1593 C1592 1.400 . S
C1593 C1594 1.398 . S
C1594 H1582 0.950 . S
C1594 C1593 1.398 . S
C1594 C1595 1.391 . S
C1595 H1583 0.950 . S
C1595 C1591 1.393 . S
C1595 C1594 1.391 . S
H1596 C1604 0.950 . S
H1597 C1609 0.950 . S
H1598 C1606 0.950 . S
H1599 C1608 0.950 . S
H1600 C1610 0.950 . S
H1601 C1612 0.950 . S
H1602 C1614 0.950 . S
H1603 C1615 0.950 . S
C1604 H1596 0.950 . S
C1604 C1605 1.386 . S
C1604 C1606 1.391 . S
C1605 C1604 1.386 . S
C1605 C1609 1.393 . S
C1606 H1598 0.950 . S
C1606 C1604 1.391 . S
C1606 C1607 1.400 . S
C1607 C1606 1.400 . S
C1607 C1608 1.398 . S
C1607 C1613 1.491 . S
C1608 H1599 0.950 . S
C1608 C1607 1.398 . S
C1608 C1609 1.391 . S
C1609 H1597 0.950 . S
C1609 C1605 1.393 . S
C1609 C1608 1.391 . S
C1610 H1600 0.950 . S
C1610 C1611 1.386 . S
C1610 C1612 1.391 . S
C1611 C1610 1.386 . S
C1611 C1615 1.393 . S
C1612 H1601 0.950 . S
C1612 C1610 1.391 . S
C1612 C1613 1.400 . S
C1613 C1607 1.491 . S
C1613 C1612 1.400 . S
C1613 C1614 1.398 . S
C1614 H1602 0.950 . S
C1614 C1613 1.398 . S
C1614 C1615 1.391 . S
C1615 H1603 0.950 . S
C1615 C1611 1.393 . S
C1615 C1614 1.391 . S
H1616 C1624 0.950 . S
H1617 C1629 0.950 . S
H1618 C1626 0.950 . S
H1619 C1628 0.950 . S
H1620 C1630 0.950 . S
H1621 C1632 0.950 . S
H1622 C1634 0.950 . S
H1623 C1635 0.950 . S
C1624 H1616 0.950 . S
C1624 C1625 1.386 . S
C1624 C1626 1.391 . S
C1625 C1624 1.386 . S
C1625 C1629 1.393 . S
C1626 H1618 0.950 . S
C1626 C1624 1.391 . S
C1626 C1627 1.400 . S
C1627 C1626 1.400 . S
C1627 C1628 1.398 . S
C1627 C1633 1.491 . S
C1628 H1619 0.950 . S
C1628 C1627 1.398 . S
C1628 C1629 1.391 . S
C1629 H1617 0.950 . S
C1629 C1625 1.393 . S
C1629 C1628 1.391 . S
C1630 H1620 0.950 . S
C1630 C1631 1.386 . S
C1630 C1632 1.391 . S
C1631 C1630 1.386 . S
C1631 C1635 1.393 . S
C1632 H1621 0.950 . S
C1632 C1630 1.391 . S
C1632 C1633 1.400 . S
C1633 C1627 1.491 . S
C1633 C1632 1.400 . S
C1633 C1634 1.398 . S
C1634 H1622 0.950 . S
C1634 C1633 1.398 . S
C1634 C1635 1.391 . S
C1635 H1623 0.950 . S
C1635 C1631 1.393 . S
C1635 C1634 1.391 . S
H1636 C1644 0.950 . S
H1637 C1649 0.950 . S
H1638 C1646 0.950 . S
H1639 C1648 0.950 . S
H1640 C1650 0.950 . S
H1641 C1652 0.950 . S
H1642 C1654 0.950 . S
H1643 C1655 0.950 . S
C1644 H1636 0.950 . S
C1644 C1645 1.386 . S
C1644 C1646 1.391 . S
C1645 C1644 1.386 . S
C1645 C1649 1.393 . S
C1646 H1638 0.950 . S
C1646 C1644 1.391 . S
C1646 C1647 1.400 . S
C1647 C1646 1.400 . S
C1647 C1648 1.398 . S
C1647 C1653 1.491 . S
C1648 H1639 0.950 . S
C1648 C1647 1.398 . S
C1648 C1649 1.391 . S
C1649 H1637 0.950 . S
C1649 C1645 1.393 . S
C1649 C1648 1.391 . S
C1650 H1640 0.950 . S
C1650 C1651 1.386 . S
C1650 C1652 1.391 . S
C1651 C1650 1.386 . S
C1651 C1655 1.393 . S
C1652 H1641 0.950 . S
C1652 C1650 1.391 . S
C1652 C1653 1.400 . S
C1653 C1647 1.491 . S
C1653 C1652 1.400 . S
C1653 C1654 1.398 . S
C1654 H1642 0.950 . S
C1654 C1653 1.398 . S
C1654 C1655 1.391 . S
C1655 H1643 0.950 . S
C1655 C1651 1.393 . S
C1655 C1654 1.391 . S
H1656 C1664 0.950 . S
H1657 C1669 0.950 . S
H1658 C1666 0.950 . S
H1659 C1668 0.950 . S
H1660 C1670 0.950 . S
H1661 C1672 0.950 . S
H1662 C1674 0.950 . S
H1663 C1675 0.950 . S
C1664 H1656 0.950 . S
C1664 C1665 1.386 . S
C1664 C1666 1.391 . S
C1665 C1664 1.386 . S
C1665 C1669 1.393 . S
C1666 H1658 0.950 . S
C1666 C1664 1.391 . S
C1666 C1667 1.400 . S
C1667 C1666 1.400 . S
C1667 C1668 1.398 . S
C1667 C1673 1.491 . S
C1668 H1659 0.950 . S
C1668 C1667 1.398 . S
C1668 C1669 1.391 . S
C1669 H1657 0.950 . S
C1669 C1665 1.393 . S
C1669 C1668 1.391 . S
C1670 H1660 0.950 . S
C1670 C1671 1.386 . S
C1670 C1672 1.391 . S
C1671 C1670 1.386 . S
C1671 C1675 1.393 . S
C1672 H1661 0.950 . S
C1672 C1670 1.391 . S
C1672 C1673 1.400 . S
C1673 C1667 1.491 . S
C1673 C1672 1.400 . S
C1673 C1674 1.398 . S
C1674 H1662 0.950 . S
C1674 C1673 1.398 . S
C1674 C1675 1.391 . S
C1675 H1663 0.950 . S
C1675 C1671 1.393 . S
C1675 C1674 1.391 . S
H1676 C1684 0.950 . S
H1677 C1689 0.950 . S
H1678 C1686 0.950 . S
H1679 C1688 0.950 . S
H1680 C1690 0.950 . S
H1681 C1692 0.950 . S
H1682 C1694 0.950 . S
H1683 C1695 0.950 . S
C1684 H1676 0.950 . S
C1684 C1685 1.386 . S
C1684 C1686 1.391 . S
C1685 C1684 1.386 . S
C1685 C1689 1.393 . S
C1686 H1678 0.950 . S
C1686 C1684 1.391 . S
C1686 C1687 1.400 . S
C1687 C1686 1.400 . S
C1687 C1688 1.398 . S
C1687 C1693 1.491 . S
C1688 H1679 0.950 . S
C1688 C1687 1.398 . S
C1688 C1689 1.391 . S
C1689 H1677 0.950 . S
C1689 C1685 1.393 . S
C1689 C1688 1.391 . S
C1690 H1680 0.950 . S
C1690 C1691 1.386 . S
C1690 C1692 1.391 . S
C1691 C1690 1.386 . S
C1691 C1695 1.393 . S
C1692 H1681 0.950 . S
C1692 C1690 1.391 . S
C1692 C1693 1.400 . S
C1693 C1687 1.491 . S
C1693 C1692 1.400 . S
C1693 C1694 1.398 . S
C1694 H1682 0.950 . S
C1694 C1693 1.398 . S
C1694 C1695 1.391 . S
C1695 H1683 0.950 . S
C1695 C1691 1.393 . S
C1695 C1694 1.391 . S
H1696 C1704 0.950 . S
H1697 C1709 0.950 . S
H1698 C1706 0.950 . S
H1699 C1708 0.950 . S
H1700 C1710 0.950 . S
H1701 C1712 0.950 . S
H1702 C1714 0.950 . S
H1703 C1715 0.950 . S
C1704 H1696 0.950 . S
C1704 C1705 1.386 . S
C1704 C1706 1.391 . S
C1705 C1704 1.386 . S
C1705 C1709 1.393 . S
C1706 H1698 0.950 . S
C1706 C1704 1.391 . S
C1706 C1707 1.400 . S
C1707 C1706 1.400 . S
C1707 C1708 1.398 . S
C1707 C1713 1.491 . S
C1708 H1699 0.950 . S
C1708 C1707 1.398 . S
C1708 C1709 1.391 . S
C1709 H1697 0.950 . S
C1709 C1705 1.393 . S
C1709 C1708 1.391 . S
C1710 H1700 0.950 . S
C1710 C1711 1.386 . S
C1710 C1712 1.391 . S
C1711 C1710 1.386 . S
C1711 C1715 1.393 . S
C1712 H1701 0.950 . S
C1712 C1710 1.391 . S
C1712 C1713 1.400 . S
C1713 C1707 1.491 . S
C1713 C1712 1.400 . S
C1713 C1714 1.398 . S
C1714 H1702 0.950 . S
C1714 C1713 1.398 . S
C1714 C1715 1.391 . S
C1715 H1703 0.950 . S
C1715 C1711 1.393 . S
C1715 C1714 1.391 . S
H1716 C1724 0.950 . S
H1717 C1729 0.950 . S
H1718 C1726 0.950 . S
H1719 C1728 0.950 . S
H1720 C1730 0.950 . S
H1721 C1732 0.950 . S
H1722 C1734 0.950 . S
H1723 C1735 0.950 . S
C1724 H1716 0.950 . S
C1724 C1725 1.386 . S
C1724 C1726 1.391 . S
C1725 C1724 1.386 . S
C1725 C1729 1.393 . S
C1726 H1718 0.950 . S
C1726 C1724 1.391 . S
C1726 C1727 1.400 . S
C1727 C1726 1.400 . S
C1727 C1728 1.398 . S
C1727 C1733 1.491 . S
C1728 H1719 0.950 . S
C1728 C1727 1.398 . S
C1728 C1729 1.391 . S
C1729 H1717 0.950 . S
C1729 C1725 1.393 . S
C1729 C1728 1.391 . S
C1730 H1720 0.950 . S
C1730 C1731 1.386 . S
C1730 C1732 1.391 . S
C1731 C1730 1.386 . S
C1731 C1735 1.393 . S
C1732 H1721 0.950 . S
C1732 C1730 1.391 . S
C1732 C1733 1.400 . S
C1733 C1727 1.491 . S
C1733 C1732 1.400 . S
C1733 C1734 1.398 . S
C1734 H1722 0.950 . S
C1734 C1733 1.398 . S
C1734 C1735 1.391 . S
C1735 H1723 0.950 . S
C1735 C1731 1.393 . S
C1735 C1734 1.391 . S
H1736 C1744 0.950 . S
H1737 C1749 0.950 . S
H1738 C1746 0.950 . S
H1739 C1748 0.950 . S
H1740 C1750 0.950 . S
H1741 C1752 0.950 . S
H1742 C1754 0.950 . S
H1743 C1755 0.950 . S
C1744 H1736 0.950 . S
C1744 C1745 1.386 . S
C1744 C1746 1.391 . S
C1745 C1744 1.386 . S
C1745 C1749 1.393 . S
C1746 H1738 0.950 . S
C1746 C1744 1.391 . S
C1746 C1747 1.400 . S
C1747 C1746 1.400 . S
C1747 C1748 1.398 . S
C1747 C1753 1.491 . S
C1748 H1739 0.950 . S
C1748 C1747 1.398 . S
C1748 C1749 1.391 . S
C1749 H1737 0.950 . S
C1749 C1745 1.393 . S
C1749 C1748 1.391 . S
C1750 H1740 0.950 . S
C1750 C1751 1.386 . S
C1750 C1752 1.391 . S
C1751 C1750 1.386 . S
C1751 C1755 1.393 . S
C1752 H1741 0.950 . S
C1752 C1750 1.391 . S
C1752 C1753 1.400 . S
C1753 C1747 1.491 . S
C1753 C1752 1.400 . S
C1753 C1754 1.398 . S
C1754 H1742 0.950 . S
C1754 C1753 1.398 . S
C1754 C1755 1.391 . S
C1755 H1743 0.950 . S
C1755 C1751 1.393 . S
C1755 C1754 1.391 . S
H1756 C1764 0.950 . S
H1757 C1769 0.950 . S
H1758 C1766 0.950 . S
H1759 C1768 0.950 . S
H1760 C1770 0.950 . S
H1761 C1772 0.950 . S
H1762 C1774 0.950 . S
H1763 C1775 0.950 . S
C1764 H1756 0.950 . S
C1764 C1765 1.386 . S
C1764 C1766 1.391 . S
C1765 C1764 1.386 . S
C1765 C1769 1.393 . S
C1766 H1758 0.950 . S
C1766 C1764 1.391 . S
C1766 C1767 1.400 . S
C1767 C1766 1.400 . S
C1767 C1768 1.398 . S
C1767 C1773 1.491 . S
C1768 H1759 0.950 . S
C1768 C1767 1.398 . S
C1768 C1769 1.391 . S
C1769 H1757 0.950 . S
C1769 C1765 1.393 . S
C1769 C1768 1.391 . S
C1770 H1760 0.950 . S
C1770 C1771 1.386 . S
C1770 C1772 1.391 . S
C1771 C1770 1.386 . S
C1771 C1775 1.393 . S
C1772 H1761 0.950 . S
C1772 C1770 1.391 . S
C1772 C1773 1.400 . S
C1773 C1767 1.491 . S
C1773 C1772 1.400 . S
C1773 C1774 1.398 . S
C1774 H1762 0.950 . S
C1774 C1773 1.398 . S
C1774 C1775 1.391 . S
C1775 H1763 0.950 . S
C1775 C1771 1.393 . S
C1775 C1774 1.391 . S
H1776 C1784 0.950 . S
H1777 C1789 0.950 . S
H1778 C1786 0.950 . S
H1779 C1788 0.950 . S
H1780 C1790 0.950 . S
H1781 C1792 0.950 . S
H1782 C1794 0.950 . S
H1783 C1795 0.950 . S
C1784 H1776 0.950 . S
C1784 C1785 1.386 . S
C1784 C1786 1.391 . S
C1785 C1784 1.386 . S
C1785 C1789 1.393 . S
C1786 H1778 0.950 . S
C1786 C1784 1.391 . S
C1786 C1787 1.400 . S
C1787 C1786 1.400 . S
C1787 C1788 1.398 . S
C1787 C1793 1.491 . S
C1788 H1779 0.950 . S
C1788 C1787 1.398 . S
C1788 C1789 1.391 . S
C1789 H1777 0.950 . S
C1789 C1785 1.393 . S
C1789 C1788 1.391 . S
C1790 H1780 0.950 . S
C1790 C1791 1.386 . S
C1790 C1792 1.391 . S
C1791 C1790 1.386 . S
C1791 C1795 1.393 . S
C1792 H1781 0.950 . S
C1792 C1790 1.391 . S
C1792 C1793 1.400 . S
C1793 C1787 1.491 . S
C1793 C1792 1.400 . S
C1793 C1794 1.398 . S
C1794 H1782 0.950 . S
C1794 C1793 1.398 . S
C1794 C1795 1.391 . S
C1795 H1783 0.950 . S
C1795 C1791 1.393 . S
C1795 C1794 1.391 . S
H1796 C1804 0.950 . S
H1797 C1809 0.950 . S
H1798 C1806 0.950 . S
H1799 C1808 0.950 . S
H1800 C1810 0.950 . S
H1801 C1812 0.950 . S
H1802 C1814 0.950 . S
H1803 C1815 0.950 . S
C1804 H1796 0.950 . S
C1804 C1805 1.386 . S
C1804 C1806 1.391 . S
C1805 C1804 1.386 . S
C1805 C1809 1.393 . S
C1806 H1798 0.950 . S
C1806 C1804 1.391 . S
C1806 C1807 1.400 . S
C1807 C1806 1.400 . S
C1807 C1808 1.398 . S
C1807 C1813 1.491 . S
C1808 H1799 0.950 . S
C1808 C1807 1.398 . S
C1808 C1809 1.391 . S
C1809 H1797 0.950 . S
C1809 C1805 1.393 . S
C1809 C1808 1.391 . S
C1810 H1800 0.950 . S
C1810 C1811 1.386 . S
C1810 C1812 1.391 . S
C1811 C1810 1.386 . S
C1811 C1815 1.393 . S
C1812 H1801 0.950 . S
C1812 C1810 1.391 . S
C1812 C1813 1.400 . S
C1813 C1807 1.491 . S
C1813 C1812 1.400 . S
C1813 C1814 1.398 . S
C1814 H1802 0.950 . S
C1814 C1813 1.398 . S
C1814 C1815 1.391 . S
C1815 H1803 0.950 . S
C1815 C1811 1.393 . S
C1815 C1814 1.391 . S
H1816 C1824 0.950 . S
H1817 C1829 0.950 . S
H1818 C1826 0.950 . S
H1819 C1828 0.950 . S
H1820 C1830 0.950 . S
H1821 C1832 0.950 . S
H1822 C1834 0.950 . S
H1823 C1835 0.950 . S
C1824 H1816 0.950 . S
C1824 C1825 1.386 . S
C1824 C1826 1.391 . S
C1825 C1824 1.386 . S
C1825 C1829 1.393 . S
C1826 H1818 0.950 . S
C1826 C1824 1.391 . S
C1826 C1827 1.400 . S
C1827 C1826 1.400 . S
C1827 C1828 1.398 . S
C1827 C1833 1.491 . S
C1828 H1819 0.950 . S
C1828 C1827 1.398 . S
C1828 C1829 1.391 . S
C1829 H1817 0.950 . S
C1829 C1825 1.393 . S
C1829 C1828 1.391 . S
C1830 H1820 0.950 . S
C1830 C1831 1.386 . S
C1830 C1832 1.391 . S
C1831 C1830 1.386 . S
C1831 C1835 1.393 . S
C1832 H1821 0.950 . S
C1832 C1830 1.391 . S
C1832 C1833 1.400 . S
C1833 C1827 1.491 . S
C1833 C1832 1.400 . S
C1833 C1834 1.398 . S
C1834 H1822 0.950 . S
C1834 C1833 1.398 . S
C1834 C1835 1.391 . S
C1835 H1823 0.950 . S
C1835 C1831 1.393 . S
C1835 C1834 1.391 . S
H1836 C1844 0.950 . S
H1837 C1849 0.950 . S
H1838 C1846 0.950 . S
H1839 C1848 0.950 . S
H1840 C1850 0.950 . S
H1841 C1852 0.950 . S
H1842 C1854 0.950 . S
H1843 C1855 0.950 . S
C1844 H1836 0.950 . S
C1844 C1845 1.386 . S
C1844 C1846 1.391 . S
C1845 C1844 1.386 . S
C1845 C1849 1.393 . S
C1846 H1838 0.950 . S
C1846 C1844 1.391 . S
C1846 C1847 1.400 . S
C1847 C1846 1.400 . S
C1847 C1848 1.398 . S
C1847 C1853 1.491 . S
C1848 H1839 0.950 . S
C1848 C1847 1.398 . S
C1848 C1849 1.391 . S
C1849 H1837 0.950 . S
C1849 C1845 1.393 . S
C1849 C1848 1.391 . S
C1850 H1840 0.950 . S
C1850 C1851 1.386 . S
C1850 C1852 1.391 . S
C1851 C1850 1.386 . S
C1851 C1855 1.393 . S
C1852 H1841 0.950 . S
C1852 C1850 1.391 . S
C1852 C1853 1.400 . S
C1853 C1847 1.491 . S
C1853 C1852 1.400 . S
C1853 C1854 1.398 . S
C1854 H1842 0.950 . S
C1854 C1853 1.398 . S
C1854 C1855 1.391 . S
C1855 H1843 0.950 . S
C1855 C1851 1.393 . S
C1855 C1854 1.391 . S
H1856 C1864 0.950 . S
H1857 C1869 0.950 . S
H1858 C1866 0.950 . S
H1859 C1868 0.950 . S
H1860 C1870 0.950 . S
H1861 C1872 0.950 . S
H1862 C1874 0.950 . S
H1863 C1875 0.950 . S
C1864 H1856 0.950 . S
C1864 C1865 1.386 . S
C1864 C1866 1.391 . S
C1865 C1864 1.386 . S
C1865 C1869 1.393 . S
C1866 H1858 0.950 . S
C1866 C1864 1.391 . S
C1866 C1867 1.400 . S
C1867 C1866 1.400 . S
C1867 C1868 1.398 . S
C1867 C1873 1.491 . S
C1868 H1859 0.950 . S
C1868 C1867 1.398 . S
C1868 C1869 1.391 . S
C1869 H1857 0.950 . S
C1869 C1865 1.393 . S
C1869 C1868 1.391 . S
C1870 H1860 0.950 . S
C1870 C1871 1.386 . S
C1870 C1872 1.391 . S
C1871 C1870 1.386 . S
C1871 C1875 1.393 . S
C1872 H1861 0.950 . S
C1872 C1870 1.391 . S
C1872 C1873 1.400 . S
C1873 C1867 1.491 . S
C1873 C1872 1.400 . S
C1873 C1874 1.398 . S
C1874 H1862 0.950 . S
C1874 C1873 1.398 . S
C1874 C1875 1.391 . S
C1875 H1863 0.950 . S
C1875 C1871 1.393 . S
C1875 C1874 1.391 . S
H1876 C1884 0.950 . S
H1877 C1889 0.950 . S
H1878 C1886 0.950 . S
H1879 C1888 0.950 . S
H1880 C1890 0.950 . S
H1881 C1892 0.950 . S
H1882 C1894 0.950 . S
H1883 C1895 0.950 . S
C1884 H1876 0.950 . S
C1884 C1885 1.386 . S
C1884 C1886 1.391 . S
C1885 C1884 1.386 . S
C1885 C1889 1.393 . S
C1886 H1878 0.950 . S
C1886 C1884 1.391 . S
C1886 C1887 1.400 . S
C1887 C1886 1.400 . S
C1887 C1888 1.398 . S
C1887 C1893 1.491 . S
C1888 H1879 0.950 . S
C1888 C1887 1.398 . S
C1888 C1889 1.391 . S
C1889 H1877 0.950 . S
C1889 C1885 1.393 . S
C1889 C1888 1.391 . S
C1890 H1880 0.950 . S
C1890 C1891 1.386 . S
C1890 C1892 1.391 . S
C1891 C1890 1.386 . S
C1891 C1895 1.393 . S
C1892 H1881 0.950 . S
C1892 C1890 1.391 . S
C1892 C1893 1.400 . S
C1893 C1887 1.491 . S
C1893 C1892 1.400 . S
C1893 C1894 1.398 . S
C1894 H1882 0.950 . S
C1894 C1893 1.398 . S
C1894 C1895 1.391 . S
C1895 H1883 0.950 . S
C1895 C1891 1.393 . S
C1895 C1894 1.391 . S
H1896 C1904 0.950 . S
H1897 C1909 0.950 . S
H1898 C1906 0.950 . S
H1899 C1908 0.950 . S
H1900 C1910 0.950 . S
H1901 C1912 0.950 . S
H1902 C1914 0.950 . S
H1903 C1915 0.950 . S
C1904 H1896 0.950 . S
C1904 C1905 1.386 . S
C1904 C1906 1.391 . S
C1905 C1904 1.386 . S
C1905 C1909 1.393 . S
C1906 H1898 0.950 . S
C1906 C1904 1.391 . S
C1906 C1907 1.400 . S
C1907 C1906 1.400 . S
C1907 C1908 1.398 . S
C1907 C1913 1.491 . S
C1908 H1899 0.950 . S
C1908 C1907 1.398 . S
C1908 C1909 1.391 . S
C1909 H1897 0.950 . S
C1909 C1905 1.393 . S
C1909 C1908 1.391 . S
C1910 H1900 0.950 . S
C1910 C1911 1.386 . S
C1910 C1912 1.391 . S
C1911 C1910 1.386 . S
C1911 C1915 1.393 . S
C1912 H1901 0.950 . S
C1912 C1910 1.391 . S
C1912 C1913 1.400 . S
C1913 C1907 1.491 . S
C1913 C1912 1.400 . S
C1913 C1914 1.398 . S
C1914 H1902 0.950 . S
C1914 C1913 1.398 . S
C1914 C1915 1.391 . S
C1915 H1903 0.950 . S
C1915 C1911 1.393 . S
C1915 C1914 1.391 . S
H1916 C1924 0.950 . S
H1917 C1929 0.950 . S
H1918 C1926 0.950 . S
H1919 C1928 0.950 . S
H1920 C1930 0.950 . S
H1921 C1932 0.950 . S
H1922 C1934 0.950 . S
H1923 C1935 0.950 . S
C1924 H1916 0.950 . S
C1924 C1925 1.386 . S
C1924 C1926 1.391 . S
C1925 C1924 1.386 . S
C1925 C1929 1.393 . S
C1926 H1918 0.950 . S
C1926 C1924 1.391 . S
C1926 C1927 1.400 . S
C1927 C1926 1.400 . S
C1927 C1928 1.398 . S
C1927 C1933 1.491 . S
C1928 H1919 0.950 . S
C1928 C1927 1.398 . S
C1928 C1929 1.391 . S
C1929 H1917 0.950 . S
C1929 C1925 1.393 . S
C1929 C1928 1.391 . S
C1930 H1920 0.950 . S
C1930 C1931 1.386 . S
C1930 C1932 1.391 . S
C1931 C1930 1.386 . S
C1931 C1935 1.393 . S
C1932 H1921 0.950 . S
C1932 C1930 1.391 . S
C1932 C1933 1.400 . S
C1933 C1927 1.491 . S
C1933 C1932 1.400 . S
C1933 C1934 1.398 . S
C1934 H1922 0.950 . S
C1934 C1933 1.398 . S
C1934 C1935 1.391 . S
C1935 H1923 0.950 . S
C1935 C1931 1.393 . S
C1935 C1934 1.391 . S
H1936 C1944 0.950 . S
H1937 C1949 0.950 . S
H1938 C1946 0.950 . S
H1939 C1948 0.950 . S
H1940 C1950 0.950 . S
H1941 C1952 0.950 . S
H1942 C1954 0.950 . S
H1943 C1955 0.950 . S
C1944 H1936 0.950 . S
C1944 C1945 1.386 . S
C1944 C1946 1.391 . S
C1945 C1944 1.386 . S
C1945 C1949 1.393 . S
C1946 H1938 0.950 . S
C1946 C1944 1.391 . S
C1946 C1947 1.400 . S
C1947 C1946 1.400 . S
C1947 C1948 1.398 . S
C1947 C1953 1.491 . S
C1948 H1939 0.950 . S
C1948 C1947 1.398 . S
C1948 C1949 1.391 . S
C1949 H1937 0.950 . S
C1949 C1945 1.393 . S
C1949 C1948 1.391 . S
C1950 H1940 0.950 . S
C1950 C1951 1.386 . S
C1950 C1952 1.391 . S
C1951 C1950 1.386 . S
C1951 C1955 1.393 . S
C1952 H1941 0.950 . S
C1952 C1950 1.391 . S
C1952 C1953 1.400 . S
C1953 C1947 1.491 . S
C1953 C1952 1.400 . S
C1953 C1954 1.398 . S
C1954 H1942 0.950 . S
C1954 C1953 1.398 . S
C1954 C1955 1.391 . S
C1955 H1943 0.950 . S
C1955 C1951 1.393 . S
C1955 C1954 1.391 . S
H1956 C1964 0.950 . S
H1957 C1969 0.950 . S
H1958 C1966 0.950 . S
H1959 C1968 0.950 . S
H1960 C1970 0.950 . S
H1961 C1972 0.950 . S
H1962 C1974 0.950 . S
H1963 C1975 0.950 . S
C1964 H1956 0.950 . S
C1964 C1965 1.386 . S
C1964 C1966 1.391 . S
C1965 C1964 1.386 . S
C1965 C1969 1.393 . S
C1966 H1958 0.950 . S
C1966 C1964 1.391 . S
C1966 C1967 1.400 . S
C1967 C1966 1.400 . S
C1967 C1968 1.398 . S
C1967 C1973 1.491 . S
C1968 H1959 0.950 . S
C1968 C1967 1.398 . S
C1968 C1969 1.391 . S
C1969 H1957 0.950 . S
C1969 C1965 1.393 . S
C1969 C1968 1.391 . S
C1970 H1960 0.950 . S
C1970 C1971 1.386 . S
C1970 C1972 1.391 . S
C1971 C1970 1.386 . S
C1971 C1975 1.393 . S
C1972 H1961 0.950 . S
C1972 C1970 1.391 . S
C1972 C1973 1.400 . S
C1973 C1967 1.491 . S
C1973 C1972 1.400 . S
C1973 C1974 1.398 . S
C1974 H1962 0.950 . S
C1974 C1973 1.398 . S
C1974 C1975 1.391 . S
C1975 H1963 0.950 . S
C1975 C1971 1.393 . S
C1975 C1974 1.391 . S
H1976 C1984 0.950 . S
H1977 C1989 0.950 . S
H1978 C1986 0.950 . S
H1979 C1988 0.950 . S
H1980 C1990 0.950 . S
H1981 C1992 0.950 . S
H1982 C1994 0.950 . S
H1983 C1995 0.950 . S
C1984 H1976 0.950 . S
C1984 C1985 1.386 . S
C1984 C1986 1.391 . S
C1985 C1984 1.386 . S
C1985 C1989 1.393 . S
C1986 H1978 0.950 . S
C1986 C1984 1.391 . S
C1986 C1987 1.400 . S
C1987 C1986 1.400 . S
C1987 C1988 1.398 . S
C1987 C1993 1.491 . S
C1988 H1979 0.950 . S
C1988 C1987 1.398 . S
C1988 C1989 1.391 . S
C1989 H1977 0.950 . S
C1989 C1985 1.393 . S
C1989 C1988 1.391 . S
C1990 H1980 0.950 . S
C1990 C1991 1.386 . S
C1990 C1992 1.391 . S
C1991 C1990 1.386 . S
C1991 C1995 1.393 . S
C1992 H1981 0.950 . S
C1992 C1990 1.391 . S
C1992 C1993 1.400 . S
C1993 C1987 1.491 . S
C1993 C1992 1.400 . S
C1993 C1994 1.398 . S
C1994 H1982 0.950 . S
C1994 C1993 1.398 . S
C1994 C1995 1.391 . S
C1995 H1983 0.950 . S
C1995 C1991 1.393 . S
C1995 C1994 1.391 . S
H1996 C2004 0.950 . S
H1997 C2009 0.950 . S
H1998 C2006 0.950 . S
H1999 C2008 0.950 . S
H2000 C2010 0.950 . S
H2001 C2012 0.950 . S
H2002 C2014 0.950 . S
H2003 C2015 0.950 . S
C2004 H1996 0.950 . S
C2004 C2005 1.386 . S
C2004 C2006 1.391 . S
C2005 C2004 1.386 . S
C2005 C2009 1.393 . S
C2006 H1998 0.950 . S
C2006 C2004 1.391 . S
C2006 C2007 1.400 . S
C2007 C2006 1.400 . S
C2007 C2008 1.398 . S
C2007 C2013 1.491 . S
C2008 H1999 0.950 . S
C2008 C2007 1.398 . S
C2008 C2009 1.391 . S
C2009 H1997 0.950 . S
C2009 C2005 1.393 . S
C2009 C2008 1.391 . S
C2010 H2000 0.950 . S
C2010 C2011 1.386 . S
C2010 C2012 1.391 . S
C2011 C2010 1.386 . S
C2011 C2015 1.393 . S
C2012 H2001 0.950 . S
C2012 C2010 1.391 . S
C2012 C2013 1.400 . S
C2013 C2007 1.491 . S
C2013 C2012 1.400 . S
C2013 C2014 1.398 . S
C2014 H2002 0.950 . S
C2014 C2013 1.398 . S
C2014 C2015 1.391 . S
C2015 H2003 0.950 . S
C2015 C2011 1.393 . S
C2015 C2014 1.391 . S
H2016 C2024 0.950 . S
H2017 C2029 0.950 . S
H2018 C2026 0.950 . S
H2019 C2028 0.950 . S
H2020 C2030 0.950 . S
H2021 C2032 0.950 . S
H2022 C2034 0.950 . S
H2023 C2035 0.950 . S
C2024 H2016 0.950 . S
C2024 C2025 1.386 . S
C2024 C2026 1.391 . S
C2025 C2024 1.386 . S
C2025 C2029 1.393 . S
C2026 H2018 0.950 . S
C2026 C2024 1.391 . S
C2026 C2027 1.400 . S
C2027 C2026 1.400 . S
C2027 C2028 1.398 . S
C2027 C2033 1.491 . S
C2028 H2019 0.950 . S
C2028 C2027 1.398 . S
C2028 C2029 1.391 . S
C2029 H2017 0.950 . S
C2029 C2025 1.393 . S
C2029 C2028 1.391 . S
C2030 H2020 0.950 . S
C2030 C2031 1.386 . S
C2030 C2032 1.391 . S
C2031 C2030 1.386 . S
C2031 C2035 1.393 . S
C2032 H2021 0.950 . S
C2032 C2030 1.391 . S
C2032 C2033 1.400 . S
C2033 C2027 1.491 . S
C2033 C2032 1.400 . S
C2033 C2034 1.398 . S
C2034 H2022 0.950 . S
C2034 C2033 1.398 . S
C2034 C2035 1.391 . S
C2035 H2023 0.950 . S
C2035 C2031 1.393 . S
C2035 C2034 1.391 . S
H2036 C2044 0.950 . S
H2037 C2049 0.950 . S
H2038 C2046 0.950 . S
H2039 C2048 0.950 . S
H2040 C2050 0.950 . S
H2041 C2052 0.950 . S
H2042 C2054 0.950 . S
H2043 C2055 0.950 . S
C2044 H2036 0.950 . S
C2044 C2045 1.386 . S
C2044 C2046 1.391 . S
C2045 C2044 1.386 . S
C2045 C2049 1.393 . S
C2046 H2038 0.950 . S
C2046 C2044 1.391 . S
C2046 C2047 1.400 . S
C2047 C2046 1.400 . S
C2047 C2048 1.398 . S
C2047 C2053 1.491 1_565 S
C2048 H2039 0.950 . S
C2048 C2047 1.398 . S
C2048 C2049 1.391 . S
C2049 H2037 0.950 . S
C2049 C2045 1.393 . S
C2049 C2048 1.391 . S
C2050 H2040 0.950 . S
C2050 C2051 1.386 . S
C2050 C2052 1.391 . S
C2051 C2050 1.386 . S
C2051 C2055 1.393 . S
C2052 H2041 0.950 . S
C2052 C2050 1.391 . S
C2052 C2053 1.400 . S
C2053 C2047 1.491 1_545 S
C2053 C2052 1.400 . S
C2053 C2054 1.398 . S
C2054 H2042 0.950 . S
C2054 C2053 1.398 . S
C2054 C2055 1.391 . S
C2055 H2043 0.950 . S
C2055 C2051 1.393 . S
C2055 C2054 1.391 . S
H2056 C2064 0.950 . S
H2057 C2069 0.950 . S
H2058 C2066 0.919 1_455 S
H2059 C2068 0.950 . S
H2060 C2070 0.950 . S
H2061 C2072 0.920 1_655 S
H2062 C2074 0.950 . S
H2063 C2075 0.950 . S
C2064 H2056 0.950 . S
C2064 C2065 1.386 . S
C2064 C2066 1.411 . S
C2065 C2064 1.386 . S
C2065 C2069 1.393 . S
C2066 H2058 0.919 1_655 S
C2066 C2064 1.411 . S
C2066 C2067 1.411 . S
C2067 C2066 1.411 . S
C2067 C2068 1.398 . S
C2067 C2073 1.491 1_655 S
C2068 H2059 0.950 . S
C2068 C2067 1.398 . S
C2068 C2069 1.391 . S
C2069 H2057 0.950 . S
C2069 C2065 1.393 . S
C2069 C2068 1.391 . S
C2070 H2060 0.950 . S
C2070 C2071 1.386 . S
C2070 C2072 1.411 . S
C2071 C2070 1.386 . S
C2071 C2075 1.393 . S
C2072 H2061 0.920 1_455 S
C2072 C2070 1.411 . S
C2072 C2073 1.411 . S
C2073 C2067 1.491 1_455 S
C2073 C2072 1.411 . S
C2073 C2074 1.398 . S
C2074 H2062 0.950 . S
C2074 C2073 1.398 . S
C2074 C2075 1.391 . S
C2075 H2063 0.950 . S
C2075 C2071 1.393 . S
C2075 C2074 1.391 . S
H2076 C2084 0.950 . S
H2077 C2089 0.950 . S
H2078 C2086 0.950 . S
H2079 C2088 0.950 . S
H2080 C2090 0.950 . S
H2081 C2092 0.950 . S
H2082 C2094 0.950 . S
H2083 C2095 0.950 . S
C2084 H2076 0.950 . S
C2084 C2085 1.386 . S
C2084 C2086 1.391 . S
C2085 C2084 1.386 . S
C2085 C2089 1.393 . S
C2086 H2078 0.950 . S
C2086 C2084 1.391 . S
C2086 C2087 1.400 . S
C2087 C2086 1.400 . S
C2087 C2088 1.398 . S
C2087 C2093 1.491 . S
C2088 H2079 0.950 . S
C2088 C2087 1.398 . S
C2088 C2089 1.391 . S
C2089 H2077 0.950 . S
C2089 C2085 1.393 . S
C2089 C2088 1.391 . S
C2090 H2080 0.950 . S
C2090 C2091 1.386 . S
C2090 C2092 1.391 . S
C2091 C2090 1.386 . S
C2091 C2095 1.393 . S
C2092 H2081 0.950 . S
C2092 C2090 1.391 . S
C2092 C2093 1.400 . S
C2093 C2087 1.491 . S
C2093 C2092 1.400 . S
C2093 C2094 1.398 . S
C2094 H2082 0.950 . S
C2094 C2093 1.398 . S
C2094 C2095 1.391 . S
C2095 H2083 0.950 . S
C2095 C2091 1.393 . S
C2095 C2094 1.391 . S
H2096 C2104 0.950 . S
H2097 C2109 0.950 . S
H2098 C2106 0.950 1_565 S
H2099 C2108 0.950 . S
H2100 C2110 0.950 . S
H2101 C2112 0.950 1_545 S
H2102 C2114 0.950 . S
H2103 C2115 0.950 . S
C2104 H2096 0.950 . S
C2104 C2105 1.386 . S
C2104 C2106 1.391 . S
C2105 C2104 1.386 . S
C2105 C2109 1.393 . S
C2106 H2098 0.950 1_545 S
C2106 C2104 1.391 . S
C2106 C2107 1.400 . S
C2107 C2106 1.400 . S
C2107 C2108 1.398 . S
C2107 C2113 1.491 1_545 S
C2108 H2099 0.950 . S
C2108 C2107 1.398 . S
C2108 C2109 1.391 . S
C2109 H2097 0.950 . S
C2109 C2105 1.393 . S
C2109 C2108 1.391 . S
C2110 H2100 0.950 . S
C2110 C2111 1.386 . S
C2110 C2112 1.391 . S
C2111 C2110 1.386 . S
C2111 C2115 1.393 . S
C2112 H2101 0.950 1_565 S
C2112 C2110 1.391 . S
C2112 C2113 1.400 . S
C2113 C2107 1.491 1_565 S
C2113 C2112 1.400 . S
C2113 C2114 1.398 . S
C2114 H2102 0.950 . S
C2114 C2113 1.398 . S
C2114 C2115 1.391 . S
C2115 H2103 0.950 . S
C2115 C2111 1.393 . S
C2115 C2114 1.391 . S
H2116 C2124 0.950 . S
H2117 C2129 0.950 . S
H2118 C2126 0.950 . S
H2119 C2128 0.950 . S
H2120 C2130 0.950 . S
H2121 C2132 0.950 . S
H2122 C2134 0.950 . S
H2123 C2135 0.950 . S
C2124 H2116 0.950 . S
C2124 C2125 1.386 . S
C2124 C2126 1.391 . S
C2125 C2124 1.386 . S
C2125 C2129 1.393 . S
C2126 H2118 0.950 . S
C2126 C2124 1.391 . S
C2126 C2127 1.400 . S
C2127 C2126 1.400 . S
C2127 C2128 1.398 . S
C2127 C2133 1.491 1_655 S
C2128 H2119 0.950 . S
C2128 C2127 1.398 . S
C2128 C2129 1.391 . S
C2129 H2117 0.950 . S
C2129 C2125 1.393 . S
C2129 C2128 1.391 . S
C2130 H2120 0.950 . S
C2130 C2131 1.386 . S
C2130 C2132 1.391 . S
C2131 C2130 1.386 . S
C2131 C2135 1.393 . S
C2132 H2121 0.950 . S
C2132 C2130 1.391 . S
C2132 C2133 1.400 . S
C2133 C2127 1.491 1_455 S
C2133 C2132 1.400 . S
C2133 C2134 1.398 . S
C2134 H2122 0.950 . S
C2134 C2133 1.398 . S
C2134 C2135 1.391 . S
C2135 H2123 0.950 . S
C2135 C2131 1.393 . S
C2135 C2134 1.391 . S
H2136 C2144 0.950 . S
H2137 C2149 0.950 . S
H2138 C2146 0.950 . S
H2139 C2148 0.950 . S
H2140 C2150 0.950 . S
H2141 C2152 0.950 . S
H2142 C2154 0.950 . S
H2143 C2155 0.950 . S
C2144 H2136 0.950 . S
C2144 C2145 1.386 . S
C2144 C2146 1.391 . S
C2145 C2144 1.386 . S
C2145 C2149 1.393 . S
C2146 H2138 0.950 . S
C2146 C2144 1.391 . S
C2146 C2147 1.400 . S
C2147 C2146 1.400 . S
C2147 C2148 1.398 . S
C2147 C2153 1.491 . S
C2148 H2139 0.950 . S
C2148 C2147 1.398 . S
C2148 C2149 1.391 . S
C2149 H2137 0.950 . S
C2149 C2145 1.393 . S
C2149 C2148 1.391 . S
C2150 H2140 0.950 . S
C2150 C2151 1.386 . S
C2150 C2152 1.391 . S
C2151 C2150 1.386 . S
C2151 C2155 1.393 . S
C2152 H2141 0.950 . S
C2152 C2150 1.391 . S
C2152 C2153 1.400 . S
C2153 C2147 1.491 . S
C2153 C2152 1.400 . S
C2153 C2154 1.398 . S
C2154 H2142 0.950 . S
C2154 C2153 1.398 . S
C2154 C2155 1.391 . S
C2155 H2143 0.950 . S
C2155 C2151 1.393 . S
C2155 C2154 1.391 . S
H2156 C2164 0.950 . S
H2157 C2169 0.950 . S
H2158 C2166 0.950 . S
H2159 C2168 0.950 . S
H2160 C2170 0.950 . S
H2161 C2172 0.950 . S
H2162 C2174 0.950 . S
H2163 C2175 0.950 . S
C2164 H2156 0.950 . S
C2164 C2165 1.386 . S
C2164 C2166 1.391 . S
C2165 C2164 1.386 . S
C2165 C2169 1.393 . S
C2166 H2158 0.950 . S
C2166 C2164 1.391 . S
C2166 C2167 1.400 . S
C2167 C2166 1.400 . S
C2167 C2168 1.398 . S
C2167 C2173 1.491 . S
C2168 H2159 0.950 . S
C2168 C2167 1.398 . S
C2168 C2169 1.391 . S
C2169 H2157 0.950 . S
C2169 C2165 1.393 . S
C2169 C2168 1.391 . S
C2170 H2160 0.950 . S
C2170 C2171 1.386 . S
C2170 C2172 1.391 . S
C2171 C2170 1.386 . S
C2171 C2175 1.393 . S
C2172 H2161 0.950 . S
C2172 C2170 1.391 . S
C2172 C2173 1.400 . S
C2173 C2167 1.491 . S
C2173 C2172 1.400 . S
C2173 C2174 1.398 . S
C2174 H2162 0.950 . S
C2174 C2173 1.398 . S
C2174 C2175 1.391 . S
C2175 H2163 0.950 . S
C2175 C2171 1.393 . S
C2175 C2174 1.391 . S
H2176 C2184 0.950 . S
H2177 C2189 0.950 . S
H2178 C2186 0.950 . S
H2179 C2188 0.950 . S
H2180 C2190 0.950 . S
H2181 C2192 0.950 . S
H2182 C2194 0.950 . S
H2183 C2195 0.950 . S
C2184 H2176 0.950 . S
C2184 C2185 1.386 . S
C2184 C2186 1.391 . S
C2185 C2184 1.386 . S
C2185 C2189 1.393 . S
C2186 H2178 0.950 . S
C2186 C2184 1.391 . S
C2186 C2187 1.400 . S
C2187 C2186 1.400 . S
C2187 C2188 1.398 . S
C2187 C2193 1.491 . S
C2188 H2179 0.950 . S
C2188 C2187 1.398 . S
C2188 C2189 1.391 . S
C2189 H2177 0.950 . S
C2189 C2185 1.393 . S
C2189 C2188 1.391 . S
C2190 H2180 0.950 . S
C2190 C2191 1.386 . S
C2190 C2192 1.391 . S
C2191 C2190 1.386 . S
C2191 C2195 1.393 . S
C2192 H2181 0.950 . S
C2192 C2190 1.391 . S
C2192 C2193 1.400 . S
C2193 C2187 1.491 . S
C2193 C2192 1.400 . S
C2193 C2194 1.398 . S
C2194 H2182 0.950 . S
C2194 C2193 1.398 . S
C2194 C2195 1.391 . S
C2195 H2183 0.950 . S
C2195 C2191 1.393 . S
C2195 C2194 1.391 . S
H2196 C2204 0.950 . S
H2197 C2209 0.950 . S
H2198 C2206 0.950 . S
H2199 C2208 0.950 . S
H2200 C2210 0.950 . S
H2201 C2212 0.950 . S
H2202 C2214 0.950 . S
H2203 C2215 0.950 . S
C2204 H2196 0.950 . S
C2204 C2205 1.386 . S
C2204 C2206 1.391 . S
C2205 C2204 1.386 . S
C2205 C2209 1.393 . S
C2206 H2198 0.950 . S
C2206 C2204 1.391 . S
C2206 C2207 1.400 . S
C2207 C2206 1.400 . S
C2207 C2208 1.398 . S
C2207 C2213 1.491 . S
C2208 H2199 0.950 . S
C2208 C2207 1.398 . S
C2208 C2209 1.391 . S
C2209 H2197 0.950 . S
C2209 C2205 1.393 . S
C2209 C2208 1.391 . S
C2210 H2200 0.950 . S
C2210 C2211 1.386 . S
C2210 C2212 1.391 . S
C2211 C2210 1.386 . S
C2211 C2215 1.393 . S
C2212 H2201 0.950 . S
C2212 C2210 1.391 . S
C2212 C2213 1.400 . S
C2213 C2207 1.491 . S
C2213 C2212 1.400 . S
C2213 C2214 1.398 . S
C2214 H2202 0.950 . S
C2214 C2213 1.398 . S
C2214 C2215 1.391 . S
C2215 H2203 0.950 . S
C2215 C2211 1.393 . S
C2215 C2214 1.391 . S
H2216 C2224 0.950 1_556 S
H2217 C2229 0.950 . S
H2218 C2226 0.950 . S
H2219 C2228 0.950 . S
H2220 C2230 0.950 . S
H2221 C2232 0.950 . S
H2222 C2234 0.950 . S
H2223 C2235 0.950 . S
C2224 H2216 0.950 1_554 S
C2224 C2225 1.386 . S
C2224 C2226 1.391 . S
C2225 C2224 1.386 . S
C2225 C2229 1.393 . S
C2226 H2218 0.950 . S
C2226 C2224 1.391 . S
C2226 C2227 1.400 . S
C2227 C2226 1.400 . S
C2227 C2228 1.398 . S
C2227 C2233 1.491 . S
C2228 H2219 0.950 . S
C2228 C2227 1.398 . S
C2228 C2229 1.391 . S
C2229 H2217 0.950 . S
C2229 C2225 1.393 . S
C2229 C2228 1.391 . S
C2230 H2220 0.950 . S
C2230 C2231 1.386 . S
C2230 C2232 1.391 . S
C2231 C2230 1.386 . S
C2231 C2235 1.393 . S
C2232 H2221 0.950 . S
C2232 C2230 1.391 . S
C2232 C2233 1.400 . S
C2233 C2227 1.491 . S
C2233 C2232 1.400 . S
C2233 C2234 1.398 . S
C2234 H2222 0.950 . S
C2234 C2233 1.398 . S
C2234 C2235 1.391 . S
C2235 H2223 0.950 . S
C2235 C2231 1.393 . S
C2235 C2234 1.391 . S
H2236 C2244 0.950 1_556 S
H2237 C2249 0.950 . S
H2238 C2246 0.950 . S
H2239 C2248 0.950 . S
H2240 C2250 0.950 . S
H2241 C2252 0.950 . S
H2242 C2254 0.950 . S
H2243 C2255 0.950 . S
C2244 H2236 0.950 1_554 S
C2244 C2245 1.386 . S
C2244 C2246 1.391 . S
C2245 C2244 1.386 . S
C2245 C2249 1.393 . S
C2246 H2238 0.950 . S
C2246 C2244 1.391 . S
C2246 C2247 1.400 . S
C2247 C2246 1.400 . S
C2247 C2248 1.398 . S
C2247 C2253 1.491 . S
C2248 H2239 0.950 . S
C2248 C2247 1.398 . S
C2248 C2249 1.391 . S
C2249 H2237 0.950 . S
C2249 C2245 1.393 . S
C2249 C2248 1.391 . S
C2250 H2240 0.950 . S
C2250 C2251 1.386 . S
C2250 C2252 1.391 . S
C2251 C2250 1.386 . S
C2251 C2255 1.393 . S
C2252 H2241 0.950 . S
C2252 C2250 1.391 . S
C2252 C2253 1.400 . S
C2253 C2247 1.491 . S
C2253 C2252 1.400 . S
C2253 C2254 1.398 . S
C2254 H2242 0.950 . S
C2254 C2253 1.398 . S
C2254 C2255 1.391 . S
C2255 H2243 0.950 . S
C2255 C2251 1.393 . S
C2255 C2254 1.391 . S
H2256 C2264 0.950 . S
H2257 C2269 0.950 . S
H2258 C2266 0.950 . S
H2259 C2268 0.950 . S
H2260 C2270 0.950 . S
H2261 C2272 0.950 . S
H2262 C2274 0.950 . S
H2263 C2275 0.950 . S
C2264 H2256 0.950 . S
C2264 C2265 1.386 . S
C2264 C2266 1.391 . S
C2265 C2264 1.386 . S
C2265 C2269 1.393 . S
C2266 H2258 0.950 . S
C2266 C2264 1.391 . S
C2266 C2267 1.400 . S
C2267 C2266 1.400 . S
C2267 C2268 1.398 . S
C2267 C2273 1.491 . S
C2268 H2259 0.950 . S
C2268 C2267 1.398 . S
C2268 C2269 1.391 . S
C2269 H2257 0.950 . S
C2269 C2265 1.393 . S
C2269 C2268 1.391 . S
C2270 H2260 0.950 . S
C2270 C2271 1.386 . S
C2270 C2272 1.391 . S
C2271 C2270 1.386 . S
C2271 C2275 1.393 . S
C2272 H2261 0.950 . S
C2272 C2270 1.391 . S
C2272 C2273 1.400 . S
C2273 C2267 1.491 . S
C2273 C2272 1.400 . S
C2273 C2274 1.398 . S
C2274 H2262 0.950 . S
C2274 C2273 1.398 . S
C2274 C2275 1.391 . S
C2275 H2263 0.950 . S
C2275 C2271 1.393 . S
C2275 C2274 1.391 . S
H2276 C2284 0.950 . S
H2277 C2289 0.950 . S
H2278 C2286 0.950 . S
H2279 C2288 0.950 . S
H2280 C2290 0.950 . S
H2281 C2292 0.950 . S
H2282 C2294 0.950 . S
H2283 C2295 0.950 1_554 S
C2284 H2276 0.950 . S
C2284 C2285 1.386 . S
C2284 C2286 1.391 . S
C2285 C2284 1.386 . S
C2285 C2289 1.393 . S
C2286 H2278 0.950 . S
C2286 C2284 1.391 . S
C2286 C2287 1.400 . S
C2287 C2286 1.400 . S
C2287 C2288 1.398 . S
C2287 C2293 1.491 . S
C2288 H2279 0.950 . S
C2288 C2287 1.398 . S
C2288 C2289 1.391 . S
C2289 H2277 0.950 . S
C2289 C2285 1.393 . S
C2289 C2288 1.391 . S
C2290 H2280 0.950 . S
C2290 C2291 1.386 . S
C2290 C2292 1.391 . S
C2291 C2290 1.386 . S
C2291 C2295 1.393 . S
C2292 H2281 0.950 . S
C2292 C2290 1.391 . S
C2292 C2293 1.400 . S
C2293 C2287 1.491 . S
C2293 C2292 1.400 . S
C2293 C2294 1.398 . S
C2294 H2282 0.950 . S
C2294 C2293 1.398 . S
C2294 C2295 1.391 . S
C2295 H2283 0.950 1_556 S
C2295 C2291 1.393 . S
C2295 C2294 1.391 . S
H2296 C2304 0.950 . S
H2297 C2309 0.950 1_554 S
H2298 C2306 0.950 . S
H2299 C2308 0.950 . S
H2300 C2310 0.950 . S
H2301 C2312 0.950 . S
H2302 C2314 0.950 . S
H2303 C2315 0.950 . S
C2304 H2296 0.950 . S
C2304 C2305 1.386 . S
C2304 C2306 1.391 . S
C2305 C2304 1.386 . S
C2305 C2309 1.393 . S
C2306 H2298 0.950 . S
C2306 C2304 1.391 . S
C2306 C2307 1.400 . S
C2307 C2306 1.400 . S
C2307 C2308 1.398 . S
C2307 C2313 1.491 . S
C2308 H2299 0.950 . S
C2308 C2307 1.398 . S
C2308 C2309 1.391 . S
C2309 H2297 0.950 1_556 S
C2309 C2305 1.393 . S
C2309 C2308 1.391 . S
C2310 H2300 0.950 . S
C2310 C2311 1.386 . S
C2310 C2312 1.391 . S
C2311 C2310 1.386 . S
C2311 C2315 1.393 . S
C2312 H2301 0.950 . S
C2312 C2310 1.391 . S
C2312 C2313 1.400 . S
C2313 C2307 1.491 . S
C2313 C2312 1.400 . S
C2313 C2314 1.398 . S
C2314 H2302 0.950 . S
C2314 C2313 1.398 . S
C2314 C2315 1.391 . S
C2315 H2303 0.950 . S
C2315 C2311 1.393 . S
C2315 C2314 1.391 . S
H2316 C2324 0.950 . S
H2317 C2329 0.950 . S
H2318 C2326 0.950 . S
H2319 C2328 0.950 . S
H2320 C2330 0.950 . S
H2321 C2332 0.950 . S
H2322 C2334 0.950 . S
H2323 C2335 0.950 . S
C2324 H2316 0.950 . S
C2324 C2325 1.386 . S
C2324 C2326 1.391 . S
C2325 C2324 1.386 . S
C2325 C2329 1.393 . S
C2326 H2318 0.950 . S
C2326 C2324 1.391 . S
C2326 C2327 1.400 . S
C2327 C2326 1.400 . S
C2327 C2328 1.398 . S
C2327 C2333 1.491 . S
C2328 H2319 0.950 . S
C2328 C2327 1.398 . S
C2328 C2329 1.391 . S
C2329 H2317 0.950 . S
C2329 C2325 1.393 . S
C2329 C2328 1.391 . S
C2330 H2320 0.950 . S
C2330 C2331 1.386 . S
C2330 C2332 1.391 . S
C2331 C2330 1.386 . S
C2331 C2335 1.393 . S
C2332 H2321 0.950 . S
C2332 C2330 1.391 . S
C2332 C2333 1.400 . S
C2333 C2327 1.491 . S
C2333 C2332 1.400 . S
C2333 C2334 1.398 . S
C2334 H2322 0.950 . S
C2334 C2333 1.398 . S
C2334 C2335 1.391 . S
C2335 H2323 0.950 . S
C2335 C2331 1.393 . S
C2335 C2334 1.391 . S
H2336 C2344 0.950 . S
H2337 C2349 0.950 . S
H2338 C2346 0.950 . S
H2339 C2348 0.950 . S
H2340 C2350 0.950 . S
H2341 C2352 0.950 . S
H2342 C2354 0.950 . S
H2343 C2355 0.950 . S
C2344 H2336 0.950 . S
C2344 C2345 1.386 . S
C2344 C2346 1.391 . S
C2345 C2344 1.386 . S
C2345 C2349 1.393 . S
C2346 H2338 0.950 . S
C2346 C2344 1.391 . S
C2346 C2347 1.400 . S
C2347 C2346 1.400 . S
C2347 C2348 1.398 . S
C2347 C2353 1.491 . S
C2348 H2339 0.950 . S
C2348 C2347 1.398 . S
C2348 C2349 1.391 . S
C2349 H2337 0.950 . S
C2349 C2345 1.393 . S
C2349 C2348 1.391 . S
C2350 H2340 0.950 . S
C2350 C2351 1.386 . S
C2350 C2352 1.391 . S
C2351 C2350 1.386 . S
C2351 C2355 1.393 . S
C2352 H2341 0.950 . S
C2352 C2350 1.391 . S
C2352 C2353 1.400 . S
C2353 C2347 1.491 . S
C2353 C2352 1.400 . S
C2353 C2354 1.398 . S
C2354 H2342 0.950 . S
C2354 C2353 1.398 . S
C2354 C2355 1.391 . S
C2355 H2343 0.950 . S
C2355 C2351 1.393 . S
C2355 C2354 1.391 . S
H2356 C2364 0.950 . S
H2357 C2369 0.950 . S
H2358 C2366 0.950 . S
H2359 C2368 0.950 . S
H2360 C2370 0.950 . S
H2361 C2372 0.950 . S
H2362 C2374 0.950 . S
H2363 C2375 0.950 . S
C2364 H2356 0.950 . S
C2364 C2365 1.386 . S
C2364 C2366 1.391 . S
C2365 C2364 1.386 . S
C2365 C2369 1.393 . S
C2366 H2358 0.950 . S
C2366 C2364 1.391 . S
C2366 C2367 1.400 . S
C2367 C2366 1.400 . S
C2367 C2368 1.398 . S
C2367 C2373 1.491 . S
C2368 H2359 0.950 . S
C2368 C2367 1.398 . S
C2368 C2369 1.391 . S
C2369 H2357 0.950 . S
C2369 C2365 1.393 . S
C2369 C2368 1.391 . S
C2370 H2360 0.950 . S
C2370 C2371 1.386 . S
C2370 C2372 1.391 . S
C2371 C2370 1.386 . S
C2371 C2375 1.393 . S
C2372 H2361 0.950 . S
C2372 C2370 1.391 . S
C2372 C2373 1.400 . S
C2373 C2367 1.491 . S
C2373 C2372 1.400 . S
C2373 C2374 1.398 . S
C2374 H2362 0.950 . S
C2374 C2373 1.398 . S
C2374 C2375 1.391 . S
C2375 H2363 0.950 . S
C2375 C2371 1.393 . S
C2375 C2374 1.391 . S
H2376 C2384 0.950 . S
H2377 C2389 0.950 . S
H2378 C2386 0.950 . S
H2379 C2388 0.950 . S
H2380 C2390 0.950 . S
H2381 C2392 0.950 . S
H2382 C2394 0.950 . S
H2383 C2395 0.950 . S
C2384 H2376 0.950 . S
C2384 C2385 1.386 . S
C2384 C2386 1.391 . S
C2385 C2384 1.386 . S
C2385 C2389 1.393 . S
C2386 H2378 0.950 . S
C2386 C2384 1.391 . S
C2386 C2387 1.400 . S
C2387 C2386 1.400 . S
C2387 C2388 1.398 . S
C2387 C2393 1.491 . S
C2388 H2379 0.950 . S
C2388 C2387 1.398 . S
C2388 C2389 1.391 . S
C2389 H2377 0.950 . S
C2389 C2385 1.393 . S
C2389 C2388 1.391 . S
C2390 H2380 0.950 . S
C2390 C2391 1.386 . S
C2390 C2392 1.391 . S
C2391 C2390 1.386 . S
C2391 C2395 1.393 . S
C2392 H2381 0.950 . S
C2392 C2390 1.391 . S
C2392 C2393 1.400 . S
C2393 C2387 1.491 . S
C2393 C2392 1.400 . S
C2393 C2394 1.398 . S
C2394 H2382 0.950 . S
C2394 C2393 1.398 . S
C2394 C2395 1.391 . S
C2395 H2383 0.950 . S
C2395 C2391 1.393 . S
C2395 C2394 1.391 . S
H2396 C2404 0.950 . S
H2397 C2409 0.950 . S
H2398 C2406 0.950 . S
H2399 C2408 0.950 . S
H2400 C2410 0.950 . S
H2401 C2412 0.950 . S
H2402 C2414 0.950 . S
H2403 C2415 0.950 . S
C2404 H2396 0.950 . S
C2404 C2405 1.386 . S
C2404 C2406 1.391 . S
C2405 C2404 1.386 . S
C2405 C2409 1.393 . S
C2406 H2398 0.950 . S
C2406 C2404 1.391 . S
C2406 C2407 1.400 . S
C2407 C2406 1.400 . S
C2407 C2408 1.398 . S
C2407 C2413 1.491 . S
C2408 H2399 0.950 . S
C2408 C2407 1.398 . S
C2408 C2409 1.391 . S
C2409 H2397 0.950 . S
C2409 C2405 1.393 . S
C2409 C2408 1.391 . S
C2410 H2400 0.950 . S
C2410 C2411 1.386 . S
C2410 C2412 1.391 . S
C2411 C2410 1.386 . S
C2411 C2415 1.393 . S
C2412 H2401 0.950 . S
C2412 C2410 1.391 . S
C2412 C2413 1.400 . S
C2413 C2407 1.491 . S
C2413 C2412 1.400 . S
C2413 C2414 1.398 . S
C2414 H2402 0.950 . S
C2414 C2413 1.398 . S
C2414 C2415 1.391 . S
C2415 H2403 0.950 . S
C2415 C2411 1.393 . S
C2415 C2414 1.391 . S
H2416 C2424 0.950 . S
H2417 C2429 0.950 . S
H2418 C2426 0.950 . S
H2419 C2428 0.950 . S
H2420 C2430 0.950 . S
H2421 C2432 0.950 . S
H2422 C2434 0.950 . S
H2423 C2435 0.950 . S
C2424 H2416 0.950 . S
C2424 C2425 1.386 . S
C2424 C2426 1.391 . S
C2425 C2424 1.386 . S
C2425 C2429 1.393 . S
C2426 H2418 0.950 . S
C2426 C2424 1.391 . S
C2426 C2427 1.400 . S
C2427 C2426 1.400 . S
C2427 C2428 1.398 . S
C2427 C2433 1.491 . S
C2428 H2419 0.950 . S
C2428 C2427 1.398 . S
C2428 C2429 1.391 . S
C2429 H2417 0.950 . S
C2429 C2425 1.393 . S
C2429 C2428 1.391 . S
C2430 H2420 0.950 . S
C2430 C2431 1.386 . S
C2430 C2432 1.391 . S
C2431 C2430 1.386 . S
C2431 C2435 1.393 . S
C2432 H2421 0.950 . S
C2432 C2430 1.391 . S
C2432 C2433 1.400 . S
C2433 C2427 1.491 . S
C2433 C2432 1.400 . S
C2433 C2434 1.398 . S
C2434 H2422 0.950 . S
C2434 C2433 1.398 . S
C2434 C2435 1.391 . S
C2435 H2423 0.950 . S
C2435 C2431 1.393 . S
C2435 C2434 1.391 . S
H2436 C2444 0.950 . S
H2437 C2449 0.950 . S
H2438 C2446 0.950 . S
H2439 C2448 0.950 . S
H2440 C2450 0.950 . S
H2441 C2452 0.950 . S
H2442 C2454 0.950 . S
H2443 C2455 0.950 . S
C2444 H2436 0.950 . S
C2444 C2445 1.386 . S
C2444 C2446 1.391 . S
C2445 C2444 1.386 . S
C2445 C2449 1.393 . S
C2446 H2438 0.950 . S
C2446 C2444 1.391 . S
C2446 C2447 1.400 . S
C2447 C2446 1.400 . S
C2447 C2448 1.398 . S
C2447 C2453 1.491 . S
C2448 H2439 0.950 . S
C2448 C2447 1.398 . S
C2448 C2449 1.391 . S
C2449 H2437 0.950 . S
C2449 C2445 1.393 . S
C2449 C2448 1.391 . S
C2450 H2440 0.950 . S
C2450 C2451 1.386 . S
C2450 C2452 1.391 . S
C2451 C2450 1.386 . S
C2451 C2455 1.393 . S
C2452 H2441 0.950 . S
C2452 C2450 1.391 . S
C2452 C2453 1.400 . S
C2453 C2447 1.491 . S
C2453 C2452 1.400 . S
C2453 C2454 1.398 . S
C2454 H2442 0.950 . S
C2454 C2453 1.398 . S
C2454 C2455 1.391 . S
C2455 H2443 0.950 . S
C2455 C2451 1.393 . S
C2455 C2454 1.391 . S
H2456 C2464 0.950 . S
H2457 C2469 0.950 . S
H2458 C2466 0.950 . S
H2459 C2468 0.950 . S
H2460 C2470 0.950 . S
H2461 C2472 0.950 . S
H2462 C2474 0.950 . S
H2463 C2475 0.950 . S
C2464 H2456 0.950 . S
C2464 C2465 1.386 . S
C2464 C2466 1.391 . S
C2465 C2464 1.386 . S
C2465 C2469 1.393 . S
C2466 H2458 0.950 . S
C2466 C2464 1.391 . S
C2466 C2467 1.400 . S
C2467 C2466 1.400 . S
C2467 C2468 1.398 . S
C2467 C2473 1.491 . S
C2468 H2459 0.950 . S
C2468 C2467 1.398 . S
C2468 C2469 1.391 . S
C2469 H2457 0.950 . S
C2469 C2465 1.393 . S
C2469 C2468 1.391 . S
C2470 H2460 0.950 . S
C2470 C2471 1.386 . S
C2470 C2472 1.391 . S
C2471 C2470 1.386 . S
C2471 C2475 1.393 . S
C2472 H2461 0.950 . S
C2472 C2470 1.391 . S
C2472 C2473 1.400 . S
C2473 C2467 1.491 . S
C2473 C2472 1.400 . S
C2473 C2474 1.398 . S
C2474 H2462 0.950 . S
C2474 C2473 1.398 . S
C2474 C2475 1.391 . S
C2475 H2463 0.950 . S
C2475 C2471 1.393 . S
C2475 C2474 1.391 . S
H2476 C2484 0.950 . S
H2477 C2489 0.950 . S
H2478 C2486 0.950 . S
H2479 C2488 0.950 . S
H2480 C2490 0.950 . S
H2481 C2492 0.950 . S
H2482 C2494 0.950 . S
H2483 C2495 0.950 . S
C2484 H2476 0.950 . S
C2484 C2485 1.386 . S
C2484 C2486 1.391 . S
C2485 C2484 1.386 . S
C2485 C2489 1.393 . S
C2486 H2478 0.950 . S
C2486 C2484 1.391 . S
C2486 C2487 1.400 . S
C2487 C2486 1.400 . S
C2487 C2488 1.398 . S
C2487 C2493 1.491 . S
C2488 H2479 0.950 . S
C2488 C2487 1.398 . S
C2488 C2489 1.391 . S
C2489 H2477 0.950 . S
C2489 C2485 1.393 . S
C2489 C2488 1.391 . S
C2490 H2480 0.950 . S
C2490 C2491 1.386 . S
C2490 C2492 1.391 . S
C2491 C2490 1.386 . S
C2491 C2495 1.393 . S
C2492 H2481 0.950 . S
C2492 C2490 1.391 . S
C2492 C2493 1.400 . S
C2493 C2487 1.491 . S
C2493 C2492 1.400 . S
C2493 C2494 1.398 . S
C2494 H2482 0.950 . S
C2494 C2493 1.398 . S
C2494 C2495 1.391 . S
C2495 H2483 0.950 . S
C2495 C2491 1.393 . S
C2495 C2494 1.391 . S
H2496 C2504 0.950 . S
H2497 C2509 0.950 . S
H2498 C2506 0.950 . S
H2499 C2508 0.950 . S
H2500 C2510 0.950 . S
H2501 C2512 0.950 . S
H2502 C2514 0.950 . S
H2503 C2515 0.950 . S
C2504 H2496 0.950 . S
C2504 C2505 1.386 . S
C2504 C2506 1.391 . S
C2505 C2504 1.386 . S
C2505 C2509 1.393 . S
C2506 H2498 0.950 . S
C2506 C2504 1.391 . S
C2506 C2507 1.400 . S
C2507 C2506 1.400 . S
C2507 C2508 1.398 . S
C2507 C2513 1.491 . S
C2508 H2499 0.950 . S
C2508 C2507 1.398 . S
C2508 C2509 1.391 . S
C2509 H2497 0.950 . S
C2509 C2505 1.393 . S
C2509 C2508 1.391 . S
C2510 H2500 0.950 . S
C2510 C2511 1.386 . S
C2510 C2512 1.391 . S
C2511 C2510 1.386 . S
C2511 C2515 1.393 . S
C2512 H2501 0.950 . S
C2512 C2510 1.391 . S
C2512 C2513 1.400 . S
C2513 C2507 1.491 . S
C2513 C2512 1.400 . S
C2513 C2514 1.398 . S
C2514 H2502 0.950 . S
C2514 C2513 1.398 . S
C2514 C2515 1.391 . S
C2515 H2503 0.950 . S
C2515 C2511 1.393 . S
C2515 C2514 1.391 . S
H2516 C2524 0.950 . S
H2517 C2529 0.950 . S
H2518 C2526 0.950 . S
H2519 C2528 0.950 . S
H2520 C2530 0.950 . S
H2521 C2532 0.950 . S
H2522 C2534 0.950 . S
H2523 C2535 0.950 . S
C2524 H2516 0.950 . S
C2524 C2525 1.386 . S
C2524 C2526 1.391 . S
C2525 C2524 1.386 . S
C2525 C2529 1.393 . S
C2526 H2518 0.950 . S
C2526 C2524 1.391 . S
C2526 C2527 1.400 . S
C2527 C2526 1.400 . S
C2527 C2528 1.398 . S
C2527 C2533 1.491 . S
C2528 H2519 0.950 . S
C2528 C2527 1.398 . S
C2528 C2529 1.391 . S
C2529 H2517 0.950 . S
C2529 C2525 1.393 . S
C2529 C2528 1.391 . S
C2530 H2520 0.950 . S
C2530 C2531 1.386 . S
C2530 C2532 1.391 . S
C2531 C2530 1.386 . S
C2531 C2535 1.393 . S
C2532 H2521 0.950 . S
C2532 C2530 1.391 . S
C2532 C2533 1.400 . S
C2533 C2527 1.491 . S
C2533 C2532 1.400 . S
C2533 C2534 1.398 . S
C2534 H2522 0.950 . S
C2534 C2533 1.398 . S
C2534 C2535 1.391 . S
C2535 H2523 0.950 . S
C2535 C2531 1.393 . S
C2535 C2534 1.391 . S
H2536 C2544 0.950 . S
H2537 C2549 0.950 . S
H2538 C2546 0.950 . S
H2539 C2548 0.950 . S
H2540 C2550 0.950 . S
H2541 C2552 0.950 . S
H2542 C2554 0.950 . S
H2543 C2555 0.950 . S
C2544 H2536 0.950 . S
C2544 C2545 1.386 . S
C2544 C2546 1.391 . S
C2545 C2544 1.386 . S
C2545 C2549 1.393 . S
C2546 H2538 0.950 . S
C2546 C2544 1.391 . S
C2546 C2547 1.400 . S
C2547 C2546 1.400 . S
C2547 C2548 1.398 . S
C2547 C2553 1.491 . S
C2548 H2539 0.950 . S
C2548 C2547 1.398 . S
C2548 C2549 1.391 . S
C2549 H2537 0.950 . S
C2549 C2545 1.393 . S
C2549 C2548 1.391 . S
C2550 H2540 0.950 . S
C2550 C2551 1.386 . S
C2550 C2552 1.391 . S
C2551 C2550 1.386 . S
C2551 C2555 1.393 . S
C2552 H2541 0.950 . S
C2552 C2550 1.391 . S
C2552 C2553 1.400 . S
C2553 C2547 1.491 . S
C2553 C2552 1.400 . S
C2553 C2554 1.398 . S
C2554 H2542 0.950 . S
C2554 C2553 1.398 . S
C2554 C2555 1.391 . S
C2555 H2543 0.950 . S
C2555 C2551 1.393 . S
C2555 C2554 1.391 . S
H2556 C2564 0.950 . S
H2557 C2569 0.950 . S
H2558 C2566 0.950 . S
H2559 C2568 0.950 . S
H2560 C2570 0.950 . S
H2561 C2572 0.950 . S
H2562 C2574 0.950 . S
H2563 C2575 0.950 . S
C2564 H2556 0.950 . S
C2564 C2565 1.386 . S
C2564 C2566 1.391 . S
C2565 C2564 1.386 . S
C2565 C2569 1.393 . S
C2566 H2558 0.950 . S
C2566 C2564 1.391 . S
C2566 C2567 1.400 . S
C2567 C2566 1.400 . S
C2567 C2568 1.398 . S
C2567 C2573 1.491 . S
C2568 H2559 0.950 . S
C2568 C2567 1.398 . S
C2568 C2569 1.391 . S
C2569 H2557 0.950 . S
C2569 C2565 1.393 . S
C2569 C2568 1.391 . S
C2570 H2560 0.950 . S
C2570 C2571 1.386 . S
C2570 C2572 1.391 . S
C2571 C2570 1.386 . S
C2571 C2575 1.393 . S
C2572 H2561 0.950 . S
C2572 C2570 1.391 . S
C2572 C2573 1.400 . S
C2573 C2567 1.491 . S
C2573 C2572 1.400 . S
C2573 C2574 1.398 . S
C2574 H2562 0.950 . S
C2574 C2573 1.398 . S
C2574 C2575 1.391 . S
C2575 H2563 0.950 . S
C2575 C2571 1.393 . S
C2575 C2574 1.391 . S
H2576 C2584 0.950 . S
H2577 C2589 0.950 . S
H2578 C2586 0.950 . S
H2579 C2588 0.950 . S
H2580 C2590 0.950 . S
H2581 C2592 0.950 . S
H2582 C2594 0.950 . S
H2583 C2595 0.950 . S
C2584 H2576 0.950 . S
C2584 C2585 1.386 . S
C2584 C2586 1.391 . S
C2585 C2584 1.386 . S
C2585 C2589 1.393 . S
C2586 H2578 0.950 . S
C2586 C2584 1.391 . S
C2586 C2587 1.400 . S
C2587 C2586 1.400 . S
C2587 C2588 1.398 . S
C2587 C2593 1.491 . S
C2588 H2579 0.950 . S
C2588 C2587 1.398 . S
C2588 C2589 1.391 . S
C2589 H2577 0.950 . S
C2589 C2585 1.393 . S
C2589 C2588 1.391 . S
C2590 H2580 0.950 . S
C2590 C2591 1.386 . S
C2590 C2592 1.391 . S
C2591 C2590 1.386 . S
C2591 C2595 1.393 . S
C2592 H2581 0.950 . S
C2592 C2590 1.391 . S
C2592 C2593 1.400 . S
C2593 C2587 1.491 . S
C2593 C2592 1.400 . S
C2593 C2594 1.398 . S
C2594 H2582 0.950 . S
C2594 C2593 1.398 . S
C2594 C2595 1.391 . S
C2595 H2583 0.950 . S
C2595 C2591 1.393 . S
C2595 C2594 1.391 . S
H2596 C2604 0.950 . S
H2597 C2609 0.950 . S
H2598 C2606 0.950 . S
H2599 C2608 0.950 . S
H2600 C2610 0.950 . S
H2601 C2612 0.950 . S
H2602 C2614 0.950 . S
H2603 C2615 0.950 . S
C2604 H2596 0.950 . S
C2604 C2605 1.386 . S
C2604 C2606 1.391 . S
C2605 C2604 1.386 . S
C2605 C2609 1.393 . S
C2606 H2598 0.950 . S
C2606 C2604 1.391 . S
C2606 C2607 1.400 . S
C2607 C2606 1.400 . S
C2607 C2608 1.398 . S
C2607 C2613 1.491 . S
C2608 H2599 0.950 . S
C2608 C2607 1.398 . S
C2608 C2609 1.391 . S
C2609 H2597 0.950 . S
C2609 C2605 1.393 . S
C2609 C2608 1.391 . S
C2610 H2600 0.950 . S
C2610 C2611 1.386 . S
C2610 C2612 1.391 . S
C2611 C2610 1.386 . S
C2611 C2615 1.393 . S
C2612 H2601 0.950 . S
C2612 C2610 1.391 . S
C2612 C2613 1.400 . S
C2613 C2607 1.491 . S
C2613 C2612 1.400 . S
C2613 C2614 1.398 . S
C2614 H2602 0.950 . S
C2614 C2613 1.398 . S
C2614 C2615 1.391 . S
C2615 H2603 0.950 . S
C2615 C2611 1.393 . S
C2615 C2614 1.391 . S
H2616 C2624 0.950 . S
H2617 C2629 0.950 . S
H2618 C2626 0.950 . S
H2619 C2628 0.950 . S
H2620 C2630 0.950 . S
H2621 C2632 0.950 . S
H2622 C2634 0.950 . S
H2623 C2635 0.950 . S
C2624 H2616 0.950 . S
C2624 C2625 1.386 . S
C2624 C2626 1.391 . S
C2625 C2624 1.386 . S
C2625 C2629 1.393 . S
C2626 H2618 0.950 . S
C2626 C2624 1.391 . S
C2626 C2627 1.400 . S
C2627 C2626 1.400 . S
C2627 C2628 1.398 . S
C2627 C2633 1.491 1_455 S
C2628 H2619 0.950 . S
C2628 C2627 1.398 . S
C2628 C2629 1.391 . S
C2629 H2617 0.950 . S
C2629 C2625 1.393 . S
C2629 C2628 1.391 . S
C2630 H2620 0.950 . S
C2630 C2631 1.386 . S
C2630 C2632 1.391 . S
C2631 C2630 1.386 . S
C2631 C2635 1.393 . S
C2632 H2621 0.950 . S
C2632 C2630 1.391 . S
C2632 C2633 1.400 . S
C2633 C2627 1.491 1_655 S
C2633 C2632 1.400 . S
C2633 C2634 1.398 . S
C2634 H2622 0.950 . S
C2634 C2633 1.398 . S
C2634 C2635 1.391 . S
C2635 H2623 0.950 . S
C2635 C2631 1.393 . S
C2635 C2634 1.391 . S
H2636 C2644 0.950 . S
H2637 C2649 0.950 . S
H2638 C2646 0.950 . S
H2639 C2648 0.950 . S
H2640 C2650 0.950 . S
H2641 C2652 0.950 . S
H2642 C2654 0.950 . S
H2643 C2655 0.950 . S
C2644 H2636 0.950 . S
C2644 C2645 1.386 . S
C2644 C2646 1.391 . S
C2645 C2644 1.386 . S
C2645 C2649 1.393 . S
C2646 H2638 0.950 . S
C2646 C2644 1.391 . S
C2646 C2647 1.400 . S
C2647 C2646 1.400 . S
C2647 C2648 1.398 . S
C2647 C2653 1.491 . S
C2648 H2639 0.950 . S
C2648 C2647 1.398 . S
C2648 C2649 1.391 . S
C2649 H2637 0.950 . S
C2649 C2645 1.393 . S
C2649 C2648 1.391 . S
C2650 H2640 0.950 . S
C2650 C2651 1.386 . S
C2650 C2652 1.391 . S
C2651 C2650 1.386 . S
C2651 C2655 1.393 . S
C2652 H2641 0.950 . S
C2652 C2650 1.391 . S
C2652 C2653 1.400 . S
C2653 C2647 1.491 . S
C2653 C2652 1.400 . S
C2653 C2654 1.398 . S
C2654 H2642 0.950 . S
C2654 C2653 1.398 . S
C2654 C2655 1.391 . S
C2655 H2643 0.950 . S
C2655 C2651 1.393 . S
C2655 C2654 1.391 . S
H2656 C2664 0.950 . S
H2657 C2669 0.950 . S
H2658 C2666 0.950 . S
H2659 C2668 0.950 . S
H2660 C2670 0.950 . S
H2661 C2672 0.950 . S
H2662 C2674 0.950 . S
H2663 C2675 0.950 . S
C2664 H2656 0.950 . S
C2664 C2665 1.386 . S
C2664 C2666 1.391 . S
C2665 C2664 1.386 . S
C2665 C2669 1.393 . S
C2666 H2658 0.950 . S
C2666 C2664 1.391 . S
C2666 C2667 1.400 . S
C2667 C2666 1.400 . S
C2667 C2668 1.398 . S
C2667 C2673 1.491 1_545 S
C2668 H2659 0.950 . S
C2668 C2667 1.398 . S
C2668 C2669 1.391 . S
C2669 H2657 0.950 . S
C2669 C2665 1.393 . S
C2669 C2668 1.391 . S
C2670 H2660 0.950 . S
C2670 C2671 1.386 . S
C2670 C2672 1.391 . S
C2671 C2670 1.386 . S
C2671 C2675 1.393 . S
C2672 H2661 0.950 . S
C2672 C2670 1.391 . S
C2672 C2673 1.400 . S
C2673 C2667 1.491 1_565 S
C2673 C2672 1.400 . S
C2673 C2674 1.398 . S
C2674 H2662 0.950 . S
C2674 C2673 1.398 . S
C2674 C2675 1.391 . S
C2675 H2663 0.950 . S
C2675 C2671 1.393 . S
C2675 C2674 1.391 . S
H2676 C2684 0.950 1_554 S
H2677 C2689 0.950 . S
H2678 C2686 0.950 . S
H2679 C2688 0.950 1_565 S
H2680 C2690 0.950 1_556 S
H2681 C2692 0.950 . S
H2682 C2694 0.950 1_545 S
H2683 C2695 0.950 . S
C2684 H2676 0.950 1_556 S
C2684 C2685 1.386 . S
C2684 C2686 1.391 1_556 S
C2685 C2684 1.386 . S
C2685 C2689 1.393 . S
C2686 H2678 0.950 . S
C2686 C2684 1.391 1_554 S
C2686 C2687 1.400 1_554 S
C2687 C2686 1.400 1_556 S
C2687 C2688 1.398 . S
C2687 C2693 1.491 1_546 S
C2688 H2679 0.950 1_545 S
C2688 C2687 1.398 . S
C2688 C2689 1.391 . S
C2689 H2677 0.950 . S
C2689 C2685 1.393 . S
C2689 C2688 1.391 . S
C2690 H2680 0.950 1_554 S
C2690 C2691 1.386 . S
C2690 C2692 1.391 1_554 S
C2691 C2690 1.386 . S
C2691 C2695 1.393 . S
C2692 H2681 0.950 . S
C2692 C2690 1.391 1_556 S
C2692 C2693 1.400 1_556 S
C2693 C2687 1.491 1_564 S
C2693 C2692 1.400 1_554 S
C2693 C2694 1.398 . S
C2694 H2682 0.950 1_565 S
C2694 C2693 1.398 . S
C2694 C2695 1.391 . S
C2695 H2683 0.950 . S
C2695 C2691 1.393 . S
C2695 C2694 1.391 . S
H2696 C2704 0.950 . S
H2697 C2709 0.950 . S
H2698 C2706 0.950 . S
H2699 C2708 0.950 1_455 S
H2700 C2710 0.950 . S
H2701 C2712 0.950 . S
H2702 C2714 0.950 1_655 S
H2703 C2715 0.950 . S
C2704 H2696 0.950 . S
C2704 C2705 1.386 . S
C2704 C2706 1.391 1_556 S
C2705 C2704 1.386 . S
C2705 C2709 1.393 . S
C2706 H2698 0.950 . S
C2706 C2704 1.391 1_554 S
C2706 C2707 1.400 1_554 S
C2707 C2706 1.400 1_556 S
C2707 C2708 1.398 . S
C2707 C2713 1.491 1_656 S
C2708 H2699 0.950 1_655 S
C2708 C2707 1.398 . S
C2708 C2709 1.391 . S
C2709 H2697 0.950 . S
C2709 C2705 1.393 . S
C2709 C2708 1.391 . S
C2710 H2700 0.950 . S
C2710 C2711 1.386 . S
C2710 C2712 1.391 1_554 S
C2711 C2710 1.386 . S
C2711 C2715 1.393 . S
C2712 H2701 0.950 . S
C2712 C2710 1.391 1_556 S
C2712 C2713 1.400 1_556 S
C2713 C2707 1.491 1_454 S
C2713 C2712 1.400 1_554 S
C2713 C2714 1.398 . S
C2714 H2702 0.950 1_455 S
C2714 C2713 1.398 . S
C2714 C2715 1.391 . S
C2715 H2703 0.950 . S
C2715 C2711 1.393 . S
C2715 C2714 1.391 . S
H2716 C2724 0.961 . S
H2717 C2729 0.950 . S
H2718 C2726 0.950 . S
H2719 C2728 0.950 . S
H2720 C2730 0.961 . S
H2721 C2732 0.950 . S
H2722 C2734 0.950 . S
H2723 C2735 0.950 . S
C2724 H2716 0.961 . S
C2724 C2725 1.386 . S
C2724 C2726 1.391 1_556 S
C2725 C2724 1.386 . S
C2725 C2729 1.393 . S
C2726 H2718 0.950 . S
C2726 C2724 1.391 1_554 S
C2726 C2727 1.400 1_554 S
C2727 C2726 1.400 1_556 S
C2727 C2728 1.398 . S
C2727 C2733 1.491 1_556 S
C2728 H2719 0.950 . S
C2728 C2727 1.398 . S
C2728 C2729 1.391 . S
C2729 H2717 0.950 . S
C2729 C2725 1.393 . S
C2729 C2728 1.391 . S
C2730 H2720 0.961 . S
C2730 C2731 1.386 . S
C2730 C2732 1.391 1_554 S
C2731 C2730 1.386 . S
C2731 C2735 1.393 . S
C2732 H2721 0.950 . S
C2732 C2730 1.391 1_556 S
C2732 C2733 1.400 1_556 S
C2733 C2727 1.491 1_554 S
C2733 C2732 1.400 1_554 S
C2733 C2734 1.398 . S
C2734 H2722 0.950 . S
C2734 C2733 1.398 . S
C2734 C2735 1.391 . S
C2735 H2723 0.950 . S
C2735 C2731 1.393 . S
C2735 C2734 1.391 . S
C1305 C14 1.182 . S
C1311 C256 1.204 . S
C1325 C50 1.185 . S
C1331 C292 1.201 . S
C1345 C220 1.205 . S
C1351 C86 1.182 . S
C1365 C400 1.198 . S
C1371 C122 1.189 . S
C1385 C158 1.205 . S
C1391 C328 1.183 . S
C1405 C194 1.200 . S
C1411 C364 1.188 . S
C1425 C40 1.203 . S
C1431 C230 1.184 . S
C1445 C76 1.209 . S
C1451 C266 1.177 . S
C1465 C302 1.187 . S
C1471 C4 1.199 . S
C1485 C338 1.178 . S
C1491 C184 1.208 . S
C1505 C112 1.184 . S
C1511 C374 1.204 . S
C1525 C410 1.195 . S
C1531 C148 1.192 . S
C1545 C688 1.201 . S
C1551 C446 1.185 . S
C1565 C482 1.179 . S
C1571 C724 1.207 . S
C1585 C518 1.204 . S
C1591 C652 1.184 . S
C1605 C832 1.201 . S
C1611 C554 1.186 . S
C1625 C590 1.198 . S
C1631 C760 1.189 . S
C1645 C796 1.183 . S
C1651 C626 1.205 . S
C1665 C472 1.197 . S
C1671 C662 1.189 . S
C1685 C698 1.177 . S
C1691 C508 1.208 . S
C1705 C436 1.195 . S
C1711 C734 1.192 . S
C1725 C770 1.189 . S
C1731 C616 1.198 . S
C1745 C806 1.185 . S
C1751 C544 1.202 . S
C1765 C842 1.177 . S
C1771 C580 1.209 . S
C1785 C1120 1.197 . S
C1791 C878 1.190 . S
C1805 C1156 1.188 . S
C1811 C914 1.200 . S
C1825 C1084 1.187 . S
C1831 C950 1.201 . S
C1845 C986 1.188 . S
C1851 C1264 1.199 . S
C1865 C1022 1.205 . S
C1871 C1192 1.183 . S
C1885 C1228 1.191 . S
C1891 C1058 1.197 . S
C1905 C1094 1.202 . S
C1911 C904 1.186 . S
C1925 C940 1.199 . S
C1931 C1130 1.188 . S
C1945 C868 1.185 . S
C1951 C1166 1.203 . S
C1965 C1202 1.186 . S
C1971 C1048 1.201 . S
C1985 C1238 1.202 . S
C1991 C976 1.186 . S
C2005 C1274 1.186 . S
C2011 C1012 1.200 . S
C2025 C110 1.385 . S
C2031 C2 1.368 . S
C2045 C146 1.385 . S
C2051 C38 1.381 . S
C2065 C74 1.384 . S
C2071 C182 1.367 . S
C2085 C326 1.379 . S
C2091 C218 1.386 . S
C2105 C362 1.377 . S
C2111 C254 1.387 . S
C2125 C398 1.381 . S
C2131 C290 1.385 . S
C2145 C542 1.385 . S
C2151 C434 1.381 . S
C2165 C578 1.387 . S
C2171 C470 1.377 . S
C2185 C506 1.386 . S
C2191 C614 1.371 . S
C2205 C758 1.368 1_554 S
C2211 C650 1.366 . S
C2225 C794 1.374 1_554 S
C2231 C686 1.387 . S
C2245 C830 1.364 1_554 S
C2251 C722 1.378 . S
C2265 C974 1.385 1_556 S
C2271 C866 1.381 . S
C2285 C902 1.363 . S
C2291 C1010 1.377 1_556 S
C2305 C1046 1.364 1_556 S
C2311 C938 1.380 . S
C2325 C1082 1.367 . S
C2331 C1190 1.367 . S
C2345 C1118 1.387 . S
C2351 C1226 1.377 . S
C2365 C1154 1.380 . S
C2371 C1262 1.364 . S
C2385 C3 1.424 . S
C2391 C651 1.424 . S
C2405 C687 1.426 . S
C2411 C39 1.426 . S
C2425 C723 1.422 . S
C2431 C75 1.422 . S
C2445 C1191 1.421 . S
C2451 C111 1.421 . S
C2465 C1227 1.417 . S
C2471 C147 1.417 . S
C2485 C1263 1.426 . S
C2491 C183 1.426 . S
C2505 C219 1.426 . S
C2511 C867 1.426 . S
C2525 C903 1.421 . S
C2531 C255 1.421 . S
C2545 C939 1.416 . S
C2551 C291 1.416 . S
C2565 C327 1.426 . S
C2571 C543 1.426 . S
C2585 C363 1.417 . S
C2591 C579 1.417 . S
C2605 C399 1.426 . S
C2611 C615 1.426 . S
C2625 C1083 1.416 . S
C2631 C435 1.416 . S
C2645 C1119 1.423 . S
C2651 C471 1.423 . S
C2665 C507 1.417 . S
C2671 C1155 1.417 . S
C2685 C759 1.425 . S
C2691 C975 1.425 . S
C2705 C795 1.422 . S
C2711 C1011 1.422 . S
C2725 C831 1.426 . S
C2731 C1047 1.426 . S
