# Generated by pormake.
# Topology fnh, (5)-cn, num edge types: 1
# Building blocks:
#     Node 0, Type 0, BuildingBlock: XOMCOT_clean_sbu_1, # of connection points: 5
#     Node 1, Type 0, BuildingBlock: XOMCOT_clean_sbu_1, # of connection points: 5
#     Node 2, Type 0, BuildingBlock: XOMCOT_clean_sbu_1, # of connection points: 5
#     Node 3, Type 0, BuildingBlock: XOMCOT_clean_sbu_1, # of connection points: 5
#     Node 4, Type 0, BuildingBlock: XOMCOT_clean_sbu_1, # of connection points: 5
#     Node 5, Type 0, BuildingBlock: XOMCOT_clean_sbu_1, # of connection points: 5
#     Node 6, Type 0, BuildingBlock: XOMCOT_clean_sbu_1, # of connection points: 5
#     Node 7, Type 0, BuildingBlock: XOMCOT_clean_sbu_1, # of connection points: 5
#     Node 8, Type 0, BuildingBlock: XOMCOT_clean_sbu_1, # of connection points: 5
#     Node 9, Type 0, BuildingBlock: XOMCOT_clean_sbu_1, # of connection points: 5
#     Node 10, Type 0, BuildingBlock: XOMCOT_clean_sbu_1, # of connection points: 5
#     Node 11, Type 0, BuildingBlock: XOMCOT_clean_sbu_1, # of connection points: 5
#     Node 12, Type 0, BuildingBlock: XOMCOT_clean_sbu_1, # of connection points: 5
#     Node 13, Type 0, BuildingBlock: XOMCOT_clean_sbu_1, # of connection points: 5
#     Node 14, Type 0, BuildingBlock: XOMCOT_clean_sbu_1, # of connection points: 5
#     Node 15, Type 0, BuildingBlock: XOMCOT_clean_sbu_1, # of connection points: 5
#     Node 16, Type 0, BuildingBlock: XOMCOT_clean_sbu_1, # of connection points: 5
#     Node 17, Type 0, BuildingBlock: XOMCOT_clean_sbu_1, # of connection points: 5
#     Edge 18, Type (0, 0), BuildingBlock: CIFDUS_clean_linker_0, # of connection points: 2
#     Edge 19, Type (0, 0), BuildingBlock: CIFDUS_clean_linker_0, # of connection points: 2
#     Edge 20, Type (0, 0), BuildingBlock: CIFDUS_clean_linker_0, # of connection points: 2
#     Edge 21, Type (0, 0), BuildingBlock: CIFDUS_clean_linker_0, # of connection points: 2
#     Edge 22, Type (0, 0), BuildingBlock: CIFDUS_clean_linker_0, # of connection points: 2
#     Edge 23, Type (0, 0), BuildingBlock: CIFDUS_clean_linker_0, # of connection points: 2
#     Edge 24, Type (0, 0), BuildingBlock: CIFDUS_clean_linker_0, # of connection points: 2
#     Edge 25, Type (0, 0), BuildingBlock: CIFDUS_clean_linker_0, # of connection points: 2
#     Edge 26, Type (0, 0), BuildingBlock: CIFDUS_clean_linker_0, # of connection points: 2
#     Edge 27, Type (0, 0), BuildingBlock: CIFDUS_clean_linker_0, # of connection points: 2
#     Edge 28, Type (0, 0), BuildingBlock: CIFDUS_clean_linker_0, # of connection points: 2
#     Edge 29, Type (0, 0), BuildingBlock: CIFDUS_clean_linker_0, # of connection points: 2
#     Edge 30, Type (0, 0), BuildingBlock: CIFDUS_clean_linker_0, # of connection points: 2
#     Edge 31, Type (0, 0), BuildingBlock: CIFDUS_clean_linker_0, # of connection points: 2
#     Edge 32, Type (0, 0), BuildingBlock: CIFDUS_clean_linker_0, # of connection points: 2
#     Edge 33, Type (0, 0), BuildingBlock: CIFDUS_clean_linker_0, # of connection points: 2
#     Edge 34, Type (0, 0), BuildingBlock: CIFDUS_clean_linker_0, # of connection points: 2
#     Edge 35, Type (0, 0), BuildingBlock: CIFDUS_clean_linker_0, # of connection points: 2
#     Edge 36, Type (0, 0), BuildingBlock: CIFDUS_clean_linker_0, # of connection points: 2
#     Edge 37, Type (0, 0), BuildingBlock: CIFDUS_clean_linker_0, # of connection points: 2
#     Edge 38, Type (0, 0), BuildingBlock: CIFDUS_clean_linker_0, # of connection points: 2
#     Edge 39, Type (0, 0), BuildingBlock: CIFDUS_clean_linker_0, # of connection points: 2
#     Edge 40, Type (0, 0), BuildingBlock: CIFDUS_clean_linker_0, # of connection points: 2
#     Edge 41, Type (0, 0), BuildingBlock: CIFDUS_clean_linker_0, # of connection points: 2
#     Edge 42, Type (0, 0), BuildingBlock: CIFDUS_clean_linker_0, # of connection points: 2
#     Edge 43, Type (0, 0), BuildingBlock: CIFDUS_clean_linker_0, # of connection points: 2
#     Edge 44, Type (0, 0), BuildingBlock: CIFDUS_clean_linker_0, # of connection points: 2
#     Edge 45, Type (0, 0), BuildingBlock: CIFDUS_clean_linker_0, # of connection points: 2
#     Edge 46, Type (0, 0), BuildingBlock: CIFDUS_clean_linker_0, # of connection points: 2
#     Edge 47, Type (0, 0), BuildingBlock: CIFDUS_clean_linker_0, # of connection points: 2
#     Edge 48, Type (0, 0), BuildingBlock: CIFDUS_clean_linker_0, # of connection points: 2
#     Edge 49, Type (0, 0), BuildingBlock: CIFDUS_clean_linker_0, # of connection points: 2
#     Edge 50, Type (0, 0), BuildingBlock: CIFDUS_clean_linker_0, # of connection points: 2
#     Edge 51, Type (0, 0), BuildingBlock: CIFDUS_clean_linker_0, # of connection points: 2
#     Edge 52, Type (0, 0), BuildingBlock: CIFDUS_clean_linker_0, # of connection points: 2
#     Edge 53, Type (0, 0), BuildingBlock: CIFDUS_clean_linker_0, # of connection points: 2
#     Edge 54, Type (0, 0), BuildingBlock: CIFDUS_clean_linker_0, # of connection points: 2
#     Edge 55, Type (0, 0), BuildingBlock: CIFDUS_clean_linker_0, # of connection points: 2
#     Edge 56, Type (0, 0), BuildingBlock: CIFDUS_clean_linker_0, # of connection points: 2
#     Edge 57, Type (0, 0), BuildingBlock: CIFDUS_clean_linker_0, # of connection points: 2
#     Edge 58, Type (0, 0), BuildingBlock: CIFDUS_clean_linker_0, # of connection points: 2
#     Edge 59, Type (0, 0), BuildingBlock: CIFDUS_clean_linker_0, # of connection points: 2
#     Edge 60, Type (0, 0), BuildingBlock: CIFDUS_clean_linker_0, # of connection points: 2
#     Edge 61, Type (0, 0), BuildingBlock: CIFDUS_clean_linker_0, # of connection points: 2
#     Edge 62, Type (0, 0), BuildingBlock: CIFDUS_clean_linker_0, # of connection points: 2
# Relax obj value: 0.177
# Max RMSD: 0.171
# Mean RMSD: 0.171
data_MOF--net-fnh--node1-XOMCOT_clean_sbu_1--edge1-CIFDUS_clean_linker_0
_symmetry_space_group_name_H-M    P1
_symmetry_Int_Tables_number       1
_symmetry_cell_setting            triclinic
loop_
_symmetry_equiv_pos_as_xyz
'x, y, z'
_cell_length_a     60.332911
_cell_length_b     60.018047
_cell_length_c     20.81781
_cell_angle_alpha  90.294322
_cell_angle_beta   89.854067
_cell_angle_gamma 120.02292
loop_
_atom_site_label
_atom_site_type_symbol
_atom_site_fract_x
_atom_site_fract_y
_atom_site_fract_z
_atom_type_partial_charge
C0 C 0.07786 0.20109 0.2804 0.0
C1 C 0.06405 0.20466 0.32817 0.0
N2 N 0.07334 0.20271 0.3855 0.0
N3 N 0.09552 0.19672 0.30779 0.0
C4 C 0.09231 0.19785 0.37127 0.0
H5 H 0.0755 0.20209 0.22923 0.0
Co6 Co 0.12111 0.19342 0.26956 0.0
C7 C 0.1438 0.1744 0.37473 0.0
O8 O 0.16626 0.19043 0.34995 0.0
N9 N 0.14673 0.18984 0.23094 0.0
C10 C 0.1691 0.17165 0.19925 0.0
C11 C 0.14631 0.16724 0.22492 0.0
C12 C 0.1696 0.20758 0.20706 0.0
N13 N 0.18373 0.19707 0.18851 0.0
O14 O 0.09421 0.16202 0.21974 0.0
H15 H 0.1305 0.14876 0.23902 0.0
H16 H 0.17581 0.22772 0.20157 0.0
O17 O 0.12349 0.17305 0.3489 0.0
C18 C 0.09185 0.16872 0.16207 0.0
O19 O 0.10749 0.19276 0.14589 0.0
N20 N 0.14553 0.22652 0.30539 0.0
C21 C 0.17467 0.27937 0.33816 0.0
C22 C 0.16918 0.26003 0.38389 0.0
C23 C 0.15457 0.23376 0.36672 0.0
C24 C 0.15014 0.24515 0.26126 0.0
C25 C 0.16506 0.27143 0.27594 0.0
H26 H 0.14968 0.21962 0.40384 0.0
H27 H 0.14184 0.23949 0.21383 0.0
H28 H 0.10438 0.19594 0.40624 0.0
H29 H 0.04842 0.20832 0.32088 0.0
H30 H 0.17393 0.15715 0.18584 0.0
H31 H 0.17573 0.26515 0.43298 0.0
H32 H 0.16805 0.28545 0.2394 0.0
C33 C 0.8659 0.89245 0.29435 0.0
C34 C 0.87321 0.88092 0.33966 0.0
N35 N 0.89061 0.89948 0.37807 0.0
N36 N 0.87806 0.91806 0.30551 0.0
C37 C 0.89411 0.92177 0.3542 0.0
H38 H 0.85206 0.88249 0.25686 0.0
Co39 Co 0.87234 0.94161 0.26285 0.0
C40 C 0.89255 0.97303 0.39279 0.0
O41 O 0.87704 0.95271 0.42683 0.0
N42 N 0.86595 0.96372 0.2189 0.0
C43 C 0.85763 0.9938 0.18655 0.0
C44 C 0.86775 0.98633 0.23532 0.0
C45 C 0.85433 0.95754 0.16161 0.0
N46 N 0.84925 0.9756 0.14025 0.0
O47 O 0.90365 0.95074 0.20737 0.0
H48 H 0.87578 0.99676 0.27952 0.0
H49 H 0.8502 0.94029 0.1353 0.0
O50 O 0.89283 0.9707 0.33071 0.0
C51 C 0.89926 0.93449 0.16104 0.0
O52 O 0.87587 0.91501 0.15504 0.0
N53 N 0.8398 0.92956 0.30554 0.0
C54 C 0.78714 0.90897 0.33516 0.0
C55 C 0.8061 0.93262 0.36138 0.0
C56 C 0.83219 0.94274 0.34535 0.0
C57 C 0.82147 0.90709 0.27823 0.0
C58 C 0.79544 0.89627 0.29323 0.0
H59 H 0.84576 0.96181 0.36204 0.0
H60 H 0.82674 0.89823 0.24062 0.0
H61 H 0.90739 0.94032 0.37415 0.0
H62 H 0.86531 0.86043 0.346 0.0
H63 H 0.85794 1.01196 0.1835 0.0
H64 H 0.80081 0.94362 0.39285 0.0
H65 H 0.78177 0.87872 0.26895 0.0
C66 C 0.18221 1.00556 0.28058 0.0
C67 C 0.19959 1.0215 0.32621 0.0
N68 N 0.19224 1.00974 0.38367 0.0
N69 N 0.16404 0.98414 0.30981 0.0
C70 C 0.17093 0.98717 0.3718 0.0
H71 H 0.18284 1.00945 0.22979 0.0
Co72 Co 0.13566 0.95488 0.2802 0.0
C73 C 0.09279 0.94807 0.37375 0.0
O74 O 0.07848 0.94592 0.324 0.0
N75 N 0.10734 0.92462 0.2531 0.0
C76 C 0.07714 0.88327 0.25664 0.0
C77 C 0.09269 0.90459 0.29238 0.0
C78 C 0.10065 0.91476 0.19358 0.0
N79 N 0.08241 0.88966 0.19463 0.0
O80 O 0.12537 0.97767 0.23156 0.0
H81 H 0.09415 0.90479 0.34406 0.0
H82 H 0.10937 0.92544 0.15033 0.0
O83 O 0.11596 0.95291 0.36353 0.0
C84 C 0.13421 0.98286 0.1732 0.0
O85 O 0.14542 0.9705 0.15067 0.0
N86 N 0.14917 0.9347 0.31416 0.0
C87 C 0.17563 0.90778 0.33542 0.0
C88 C 0.15934 0.90872 0.38289 0.0
C89 C 0.14632 0.92249 0.37148 0.0
C90 C 0.16442 0.93346 0.26761 0.0
C91 C 0.17773 0.92029 0.2771 0.0
H92 H 0.13422 0.92344 0.40853 0.0
H93 H 0.16635 0.94303 0.22232 0.0
H94 H 0.16049 0.9727 0.40761 0.0
H95 H 0.21589 0.04043 0.31788 0.0
H96 H 0.06376 0.86432 0.27477 0.0
H97 H 0.15713 0.89943 0.42878 0.0
H98 H 0.18958 0.91984 0.2385 0.0
C99 C 0.2392 0.09165 0.80361 0.0
C100 C 0.23793 0.0707 0.77281 0.0
N101 N 0.21766 0.06102 0.73314 0.0
N102 N 0.22033 0.09538 0.78123 0.0
C103 C 0.20731 0.07621 0.73916 0.0
H104 H 0.25384 0.10428 0.83712 0.0
Co105 Co 0.21646 0.12306 0.79881 0.0
C106 C 0.17818 0.12046 0.69688 0.0
O107 O 0.16243 0.11815 0.7434 0.0
N108 N 0.21378 0.15183 0.8166 0.0
C109 C 0.22163 0.1921 0.80646 0.0
C110 C 0.21685 0.17017 0.77401 0.0
C111 C 0.21726 0.1632 0.87425 0.0
N112 N 0.22241 0.18773 0.8693 0.0
O113 O 0.18383 0.09871 0.84649 0.0
H114 H 0.218 0.16876 0.72248 0.0
H115 H 0.21741 0.15415 0.91884 0.0
O116 O 0.19905 0.12048 0.71164 0.0
C117 C 0.18761 0.09434 0.9054 0.0
O118 O 0.21064 0.10874 0.92938 0.0
N119 N 0.24959 0.14506 0.76422 0.0
C120 C 0.30243 0.17167 0.73801 0.0
C121 C 0.28436 0.16041 0.68803 0.0
C122 C 0.25789 0.14682 0.70228 0.0
C123 C 0.2669 0.15681 0.81255 0.0
C124 C 0.29322 0.17004 0.80064 0.0
H125 H 0.24429 0.13676 0.66423 0.0
H126 H 0.26023 0.15464 0.86162 0.0
H127 H 0.19177 0.0745 0.70972 0.0
H128 H 0.25157 0.06403 0.77626 0.0
H129 H 0.22567 0.21023 0.78554 0.0
H130 H 0.29066 0.16097 0.63902 0.0
H131 H 0.30635 0.17837 0.84063 0.0
C132 C 0.98674 0.16768 0.79496 0.0
C133 C 1.00889 0.18701 0.76803 0.0
N134 N 1.01885 0.1759 0.73056 0.0
N135 N 0.9826 0.14482 0.77216 0.0
C136 C 1.00266 0.1504 0.73415 0.0
H137 H 0.9736 0.17014 0.82558 0.0
Co138 Co 0.95422 0.11328 0.78507 0.0
C139 C 0.95423 0.09477 0.64108 0.0
O140 O 0.95095 0.11246 0.61351 0.0
N141 N 0.92558 0.08087 0.79539 0.0
C142 C 0.88986 0.04488 0.76787 0.0
C143 C 0.90746 0.06922 0.74915 0.0
C144 C 0.91875 0.06302 0.84147 0.0
N145 N 0.89731 0.04109 0.82519 0.0
O146 O 0.97666 0.1043 0.83974 0.0
H147 H 0.90697 0.07791 0.70422 0.0
H148 H 0.92901 0.066 0.88616 0.0
O149 O 0.95848 0.09616 0.70247 0.0
C150 C 0.97894 0.11378 0.89711 0.0
O151 O 0.96468 0.12402 0.91085 0.0
N152 N 0.93303 0.12554 0.74608 0.0
C153 C 0.90377 0.14966 0.72122 0.0
C154 C 0.92532 0.15502 0.68365 0.0
C155 C 0.93986 0.14311 0.69743 0.0
C156 C 0.9128 0.12121 0.78452 0.0
C157 C 0.89773 0.13238 0.77212 0.0
H158 H 0.95761 0.14959 0.67184 0.0
H159 H 0.90877 0.1098 0.82753 0.0
H160 H 1.0044 0.13623 0.70555 0.0
H161 H 1.01624 0.20751 0.77235 0.0
H162 H 0.87278 1.03117 0.74226 0.0
H163 H 0.93134 0.16882 0.64491 0.0
H164 H 0.88214 0.12842 0.80461 0.0
C165 C 0.91272 0.84357 0.80233 0.0
C166 C 0.89454 0.84712 0.77163 0.0
N167 N 0.9066 0.86585 0.72771 0.0
N168 N 0.93585 0.85981 0.77704 0.0
C169 C 0.93161 0.87333 0.7329 0.0
H170 H 0.9092 0.8292 0.83821 0.0
Co171 Co 0.96609 0.86116 0.79407 0.0
C172 C 1.00588 0.90013 0.70084 0.0
O173 O 1.02029 0.9117 0.7511 0.0
N174 N 0.9962 0.86152 0.81093 0.0
C175 C 1.02886 0.85442 0.79935 0.0
C176 C 1.01017 0.85667 0.76783 0.0
C177 C 1.00622 0.86144 0.86818 0.0
N178 N 1.02595 0.85704 0.86228 0.0
O179 O 0.97572 0.89292 0.84819 0.0
H180 H 1.0063 0.85379 0.71686 0.0
H181 H 0.99882 0.8639 0.91342 0.0
O182 O 0.98304 0.88091 0.71039 0.0
C183 C 0.96404 0.88625 0.90315 0.0
O184 O 0.95174 0.86161 0.91691 0.0
N185 N 0.95364 0.82871 0.75317 0.0
C186 C 0.92884 0.77648 0.71573 0.0
C187 C 0.9344 0.79618 0.67071 0.0
C188 C 0.94672 0.82222 0.69047 0.0
C189 C 0.94858 0.80998 0.79711 0.0
C190 C 0.93657 0.78401 0.77951 0.0
H191 H 0.94993 0.83697 0.65605 0.0
H192 H 0.95351 0.81524 0.84698 0.0
H193 H 0.94635 0.88694 0.70134 0.0
H194 H 0.87404 0.83579 0.7784 0.0
H195 H 1.04282 0.85025 0.77827 0.0
H196 H 0.92859 0.79151 0.62103 0.0
H197 H 0.93334 0.76996 0.81613 0.0
C198 C 0.75135 0.54339 0.58811 0.0
C199 C 0.73701 0.55016 0.62666 0.0
N200 N 0.74467 0.55093 0.6876 0.0
N201 N 0.76726 0.5393 0.62541 0.0
C202 C 0.7625 0.54381 0.68561 0.0
H203 H 0.75102 0.54279 0.53625 0.0
Co204 Co 0.79488 0.53615 0.60193 0.0
C205 C 0.79581 0.49703 0.69423 0.0
O206 O 0.79735 0.48467 0.64368 0.0
N207 N 0.82366 0.53447 0.57943 0.0
C208 C 0.86378 0.54223 0.58543 0.0
C209 C 0.84271 0.53803 0.62002 0.0
C210 C 0.83383 0.5372 0.52067 0.0
N211 N 0.85818 0.54209 0.52312 0.0
O212 O 0.77063 0.50398 0.55125 0.0
H213 H 0.84214 0.53934 0.67171 0.0
H214 H 0.82402 0.5366 0.4769 0.0
O215 O 0.7928 0.51669 0.6852 0.0
C216 C 0.76657 0.50782 0.49214 0.0
O217 O 0.78094 0.53099 0.46858 0.0
N218 N 0.81686 0.56891 0.63968 0.0
C219 C 0.84635 0.62135 0.67398 0.0
C220 C 0.84005 0.60167 0.71953 0.0
C221 C 0.82529 0.57554 0.70146 0.0
C222 C 0.82312 0.58761 0.59485 0.0
C223 C 0.8377 0.61374 0.61076 0.0
H224 H 0.82036 0.5608 0.73725 0.0
H225 H 0.81615 0.58212 0.54622 0.0
H226 H 0.77246 0.54263 0.72742 0.0
H227 H 0.7228 0.55497 0.6112 0.0
H228 H 0.88211 0.54627 0.60448 0.0
H229 H 0.84641 0.60635 0.76885 0.0
H230 H 0.84143 0.62783 0.57387 0.0
C231 C 0.51984 0.22956 0.61417 0.0
C232 C 0.52369 0.21371 0.65407 0.0
N233 N 0.54512 0.22852 0.68781 0.0
N234 N 0.5384 0.25412 0.62478 0.0
C235 C 0.55371 0.2529 0.66941 0.0
H236 H 0.50395 0.22381 0.5815 0.0
Co237 Co 0.53969 0.28164 0.58561 0.0
C238 C 0.55385 0.31788 0.70731 0.0
O239 O 0.53072 0.31477 0.70661 0.0
N240 N 0.54028 0.30852 0.54215 0.0
C241 C 0.53241 0.33875 0.5074 0.0
C242 C 0.53955 0.32985 0.55961 0.0
C243 C 0.53476 0.30558 0.47914 0.0
N244 N 0.52896 0.32302 0.45748 0.0
O245 O 0.57191 0.28808 0.53801 0.0
H246 H 0.54275 0.33805 0.60698 0.0
H247 H 0.53252 0.28934 0.45117 0.0
O248 O 0.55992 0.30631 0.66336 0.0
C249 C 0.56763 0.27171 0.49208 0.0
O250 O 0.54397 0.25305 0.48352 0.0
N251 N 0.50609 0.27169 0.62075 0.0
C252 C 0.45341 0.25007 0.65098 0.0
C253 C 0.47145 0.25334 0.6985 0.0
C254 C 0.49759 0.26373 0.68216 0.0
C255 C 0.48834 0.26685 0.57399 0.0
C256 C 0.46244 0.25676 0.58798 0.0
H257 H 0.5109 0.26497 0.71867 0.0
H258 H 0.49373 0.26939 0.5242 0.0
H259 H 0.56993 0.26955 0.69071 0.0
H260 H 0.51121 0.1932 0.66022 0.0
H261 H 0.52965 0.35523 0.50636 0.0
H262 H 0.46547 0.24782 0.74772 0.0
H263 H 0.44937 0.25323 0.54861 0.0
C264 C 0.85145 0.33382 0.60086 0.0
C265 C 0.87138 0.34727 0.64329 0.0
N266 N 0.86339 0.33704 0.70201 0.0
N267 N 0.83105 0.31574 0.6335 0.0
C268 C 0.83886 0.31843 0.69483 0.0
H269 H 0.85245 0.33604 0.5493 0.0
Co270 Co 0.80237 0.28712 0.60296 0.0
C271 C 0.75965 0.28119 0.69737 0.0
O272 O 0.74525 0.27968 0.64846 0.0
N273 N 0.77428 0.25739 0.57318 0.0
C274 C 0.74494 0.21574 0.57106 0.0
C275 C 0.7573 0.23723 0.60904 0.0
C276 C 0.77227 0.24742 0.5141 0.0
N277 N 0.75473 0.22218 0.51164 0.0
O278 O 0.7929 0.31052 0.55397 0.0
H279 H 0.75556 0.23718 0.66063 0.0
H280 H 0.78426 0.25805 0.47417 0.0
O281 O 0.78247 0.2852 0.6859 0.0
C282 C 0.80205 0.31583 0.49588 0.0
O283 O 0.81385 0.30396 0.47417 0.0
N284 N 0.81487 0.26633 0.63779 0.0
C285 C 0.84078 0.2394 0.66461 0.0
C286 C 0.82251 0.23894 0.70785 0.0
C287 C 0.80982 0.2528 0.69377 0.0
C288 C 0.83199 0.26632 0.59501 0.0
C289 C 0.8452 0.25326 0.60752 0.0
H290 H 0.79622 0.25276 0.72774 0.0
H291 H 0.83564 0.27692 0.55067 0.0
H292 H 0.82709 0.3061 0.73326 0.0
H293 H 0.89048 0.36253 0.63151 0.0
H294 H 0.73076 0.19663 0.58653 0.0
H295 H 0.81853 0.22852 0.75263 0.0
H296 H 0.85881 0.25396 0.57237 0.0
C297 C 0.88938 0.40992 0.12307 0.0
C298 C 0.89707 0.39638 0.08391 0.0
N299 N 0.8958 0.40286 1.02289 0.0
N300 N 0.88284 0.42417 0.08611 0.0
C301 C 0.88658 0.41906 0.02551 0.0
H302 H 0.89023 0.41064 0.17493 0.0
Co303 Co 0.87907 0.45161 0.10962 0.0
C304 C 0.83998 0.45193 1.01642 0.0
O305 O 0.8274 0.45313 0.06668 0.0
N306 N 0.87672 0.48024 0.13171 0.0
C307 C 0.88364 0.52027 0.12448 0.0
C308 C 0.88035 0.49923 0.09058 0.0
C309 C 0.8785 0.49044 0.19024 0.0
N310 N 0.88287 0.51474 0.18699 0.0
O311 O 0.84728 0.42692 0.16021 0.0
H312 H 0.88239 0.49867 0.0391 0.0
H313 H 0.87772 0.48079 0.23448 0.0
O314 O 0.85971 0.44923 0.02592 0.0
C315 C 0.85152 0.42341 0.21948 0.0
O316 O 0.87463 0.43834 0.24243 0.0
N317 N 0.91161 0.4741 0.07271 0.0
C318 C 0.96403 0.50402 0.0418 0.0
C319 C 0.94491 0.49574 0.99385 0.0
C320 C 0.91876 0.48087 1.01029 0.0
C321 C 0.92973 0.48236 0.1197 0.0
C322 C 0.9558 0.49736 0.10558 0.0
H323 H 0.90447 0.47435 0.97282 0.0
H324 H 0.92382 0.47686 0.16893 0.0
H325 H 0.88387 0.42808 0.98376 0.0
H326 H 0.90428 0.38396 0.09898 0.0
H327 H 0.88766 0.53862 0.10502 0.0
H328 H 0.95004 0.5001 0.94378 0.0
H329 H 0.96936 0.50366 0.14486 0.0
C330 C 0.67404 0.50214 0.10746 0.0
C331 C 0.6872 0.52123 0.06313 0.0
N332 N 0.67593 0.51258 1.00545 0.0
N333 N 0.65497 0.48161 0.0773 0.0
C334 C 0.65671 0.4884 1.01539 0.0
H335 H 0.67704 0.50375 0.15886 0.0
Co336 Co 0.62734 0.45544 0.1165 0.0
C337 C 0.62931 0.42125 0.99847 0.0
O338 O 0.65393 0.42923 0.99925 0.0
N339 N 0.59909 0.42994 0.15642 0.0
C340 C 0.56282 0.41218 0.21064 0.0
C341 C 0.58505 0.43459 0.1989 0.0
C342 C 0.5852 0.40456 0.1433 0.0
N343 N 0.56277 0.3932 0.17533 0.0
O344 O 0.65117 0.44663 0.1648 0.0
H345 H 0.59056 0.4532 0.21963 0.0
H346 H 0.59141 0.39453 0.11124 0.0
O347 O 0.6202 0.43069 0.04 0.0
C348 C 0.65462 0.45289 0.22527 0.0
O349 O 0.63932 0.45989 0.25206 0.0
N350 N 0.60623 0.46738 0.08014 0.0
C351 C 0.57702 0.49024 0.04662 0.0
C352 C 0.57618 0.47018 1.00926 0.0
C353 C 0.59073 0.45875 0.02727 0.0
C354 C 0.60764 0.48719 0.11583 0.0
C355 C 0.59303 0.4986 0.10056 0.0
H356 H 0.58953 0.44317 0.99857 0.0
H357 H 0.6201 0.49399 0.15733 0.0
H358 H 0.64332 0.47621 0.97896 0.0
H359 H 0.70303 0.54031 0.07315 0.0
H360 H 0.5485 0.40986 0.24554 0.0
H361 H 0.56414 0.46318 0.967 0.0
H362 H 0.59464 0.51424 0.13019 0.0
C363 C 0.57907 0.17985 0.11458 0.0
C364 C 0.56178 0.18203 0.07617 0.0
N365 N 0.57507 0.20071 0.03307 0.0
N366 N 0.60295 0.19705 0.09525 0.0
C367 C 0.59994 0.20997 0.04703 0.0
H368 H 0.57459 0.16525 0.15054 0.0
Co369 Co 0.63192 0.19715 0.11993 0.0
C370 C 0.67498 0.23513 0.02879 0.0
O371 O 0.68987 0.2459 0.07879 0.0
N372 N 0.66035 0.19585 0.14539 0.0
C373 C 0.68934 0.18332 0.1462 0.0
C374 C 0.67582 0.19091 0.10807 0.0
C375 C 0.66438 0.1907 0.2054 0.0
N376 N 0.68162 0.18272 0.20703 0.0
O377 O 0.64114 0.22865 0.17467 0.0
H378 H 0.6757 0.19064 0.05614 0.0
H379 H 0.65388 0.19146 0.24674 0.0
O380 O 0.65162 0.21702 0.03858 0.0
C381 C 0.62756 0.22182 0.22684 0.0
O382 O 0.6127 0.19706 0.23682 0.0
N383 N 0.61987 0.16489 0.07805 0.0
C384 C 0.5954 0.11317 0.03704 0.0
C385 C 0.60326 0.13346 0.99256 0.0
C386 C 0.61553 0.15927 1.01405 0.0
C387 C 0.61227 0.14548 0.12155 0.0
C388 C 0.60038 0.11972 0.10223 0.0
H389 H 0.62074 0.17455 0.97967 0.0
H390 H 0.61478 0.14999 0.17229 0.0
H391 H 0.61566 0.22462 1.01956 0.0
H392 H 0.54125 0.16924 0.0759 0.0
H393 H 0.70278 0.17746 0.13035 0.0
H394 H 0.59974 0.12943 0.94169 0.0
H395 H 0.59416 0.10497 0.13867 0.0
C396 C 0.42282 0.87691 0.92366 0.0
C397 C 0.40843 0.88207 0.96618 0.0
N398 N 0.41791 0.88347 0.02544 0.0
N399 N 0.44067 0.87443 0.95673 0.0
C400 C 0.43716 0.87851 1.01843 0.0
H401 H 0.42087 0.87585 0.872 0.0
Co402 Co 0.46781 0.87229 0.92501 0.0
C403 C 0.46992 0.83337 1.02217 0.0
O404 O 0.46587 0.81672 0.9761 0.0
N405 N 0.49614 0.87181 0.89321 0.0
C406 C 0.5371 0.8823 0.88933 0.0
C407 C 0.51556 0.87239 0.927 0.0
C408 C 0.50654 0.88189 0.83592 0.0
N409 N 0.53144 0.88867 0.83236 0.0
O410 O 0.44253 0.83935 0.87743 0.0
H411 H 0.5153 0.86863 0.97769 0.0
H412 H 0.49652 0.88575 0.79879 0.0
O413 O 0.46977 0.85428 1.0078 0.0
C414 C 0.43712 0.84257 0.81894 0.0
O415 O 0.45043 0.86562 0.79411 0.0
N416 N 0.49036 0.90557 0.95933 0.0
C417 C 0.52138 0.95835 0.98937 0.0
C418 C 0.51662 0.93903 0.03487 0.0
C419 C 0.50123 0.91277 1.01879 0.0
C420 C 0.49472 0.92389 0.91478 0.0
C421 C 0.51023 0.95013 0.92835 0.0
H422 H 0.49786 0.89843 0.05437 0.0
H423 H 0.48601 0.91799 0.86781 0.0
H424 H 0.44862 0.87805 0.05772 0.0
H425 H 0.39254 0.88491 0.95456 0.0
H426 H 0.55575 0.88568 0.90387 0.0
H427 H 0.52433 0.94403 0.083 0.0
H428 H 0.51356 0.96377 0.89057 0.0
C429 C 0.18227 0.55554 0.93847 0.0
C430 C 0.18656 0.53749 0.96691 0.0
N431 N 0.20894 0.55004 0.99862 0.0
N432 N 0.20148 0.57922 0.95417 0.0
C433 C 0.21785 0.57527 0.98892 0.0
H434 H 0.1657 0.55168 0.91024 0.0
Co435 Co 0.20278 0.60883 0.92925 0.0
C436 C 0.23068 0.63229 0.068 0.0
O437 O 0.2237 0.6112 0.10098 0.0
N438 N 0.20273 0.63791 0.90309 0.0
C439 C 0.19157 0.66803 0.90681 0.0
C440 C 0.2001 0.65459 0.94201 0.0
C441 C 0.19536 0.64128 0.84498 0.0
N442 N 0.1881 0.65915 0.84626 0.0
O443 O 0.23452 0.61691 0.87749 0.0
H444 H 0.20154 0.65516 0.99374 0.0
H445 H 0.19399 0.6299 0.80322 0.0
O446 O 0.22335 0.63032 1.0087 0.0
C447 C 0.23036 0.60679 0.82039 0.0
O448 O 0.2068 0.59557 0.79851 0.0
N449 N 0.17036 0.59787 0.96893 0.0
C450 C 0.11833 0.57504 1.00447 0.0
C451 C 0.13791 0.58382 0.05118 0.0
C452 C 0.16383 0.59515 0.03244 0.0
C453 C 0.15164 0.58964 0.92328 0.0
C454 C 0.12578 0.57841 0.93976 0.0
H455 H 0.17833 0.60103 0.06893 0.0
H456 H 0.15678 0.59092 0.8731 0.0
H457 H 0.23528 0.59056 1.00981 0.0
H458 H 0.17357 0.5169 0.96774 0.0
H459 H 0.18715 0.68234 0.9247 0.0
H460 H 0.13328 0.58176 0.10186 0.0
H461 H 0.11167 0.57147 0.90166 0.0
C462 C 0.51055 0.65577 0.91763 0.0
C463 C 0.53066 0.67448 0.95252 0.0
N464 N 0.52304 0.67215 1.01397 0.0
N465 N 0.49042 0.64227 0.95716 0.0
C466 C 0.49862 0.6528 1.01546 0.0
H467 H 0.51101 0.65163 0.86726 0.0
Co468 Co 0.46043 0.61322 0.93551 0.0
C469 C 0.41944 0.60903 0.03206 0.0
O470 O 0.40445 0.60615 0.98326 0.0
N471 N 0.43084 0.58319 0.91304 0.0
C472 C 0.4017 0.54143 0.91766 0.0
C473 C 0.41602 0.56345 0.95295 0.0
C474 C 0.42556 0.57253 0.85417 0.0
N475 N 0.40831 0.54724 0.8559 0.0
O476 O 0.45096 0.63614 0.88473 0.0
H477 H 0.41738 0.56417 1.00474 0.0
H478 H 0.43539 0.58252 0.81111 0.0
O479 O 0.44257 0.61402 1.02015 0.0
C480 C 0.45945 0.64055 0.82601 0.0
O481 O 0.46924 0.6269 0.80327 0.0
N482 N 0.47272 0.59273 0.97353 0.0
C483 C 0.49632 0.56403 1.00842 0.0
C484 C 0.48935 0.57666 0.0551 0.0
C485 C 0.47735 0.59068 0.03677 0.0
C486 C 0.47939 0.58082 0.9278 0.0
C487 C 0.49052 0.56604 0.94405 0.0
H488 H 0.4725 0.60041 0.07322 0.0
H489 H 0.47618 0.58296 0.8777 0.0
H490 H 0.48724 0.64603 0.05875 0.0
H491 H 0.54963 0.68791 0.93492 0.0
H492 H 0.38886 0.52236 0.93607 0.0
H493 H 0.4936 0.57638 0.10541 0.0
H494 H 0.49448 0.55634 0.90565 0.0
C495 C 0.55286 0.73735 0.45685 0.0
C496 C 0.55611 0.72076 0.41747 0.0
N497 N 0.55494 0.72722 0.35624 0.0
N498 N 0.5493 0.75375 0.42026 0.0
C499 C 0.55073 0.74723 0.35932 0.0
H500 H 0.55342 0.73773 0.50878 0.0
Co501 Co 0.54686 0.78075 0.45148 0.0
C502 C 0.52908 0.80277 0.34124 0.0
O503 O 0.5446 0.82562 0.3656 0.0
N504 N 0.54475 0.80795 0.48561 0.0
C505 C 0.52998 0.83279 0.52158 0.0
C506 C 0.52355 0.80993 0.49158 0.0
C507 C 0.5636 0.82943 0.51317 0.0
N508 N 0.55522 0.845 0.53516 0.0
O509 O 0.51431 0.75514 0.49775 0.0
H510 H 0.5046 0.79539 0.47637 0.0
H511 H 0.58285 0.83314 0.52029 0.0
O512 O 0.52805 0.78272 0.36831 0.0
C513 C 0.51599 0.75303 0.55934 0.0
O514 O 0.53671 0.77075 0.58836 0.0
N515 N 0.58056 0.80342 0.41761 0.0
C516 C 0.63359 0.82953 0.39063 0.0
C517 C 0.6158 0.82809 0.34474 0.0
C518 C 0.58926 0.81448 0.35865 0.0
C519 C 0.59775 0.80457 0.46198 0.0
C520 C 0.62409 0.81746 0.44974 0.0
H521 H 0.57603 0.81203 0.32093 0.0
H522 H 0.59079 0.7949 0.5075 0.0
H523 H 0.54853 0.75685 0.31807 0.0
H524 H 0.5592 0.7053 0.43257 0.0
H525 H 0.5167 0.83894 0.53693 0.0
H526 H 0.62225 0.83636 0.29755 0.0
H527 H 0.63697 0.81757 0.48608 0.0
C528 C 0.33084 0.83686 0.44417 0.0
C529 C 0.34656 0.8552 0.40055 0.0
N530 N 0.34577 0.84294 0.34567 0.0
N531 N 0.32047 0.81342 0.41626 0.0
C532 C 0.3305 0.81771 0.35696 0.0
H533 H 0.32559 0.8405 0.49113 0.0
Co534 Co 0.29315 0.78423 0.44822 0.0
C535 C 0.2812 0.75489 0.31252 0.0
O536 O 0.27008 0.76705 0.28934 0.0
N537 N 0.26528 0.75478 0.48024 0.0
C538 C 0.22451 0.72386 0.4855 0.0
C539 C 0.2447 0.73795 0.44532 0.0
C540 C 0.2573 0.75014 0.54153 0.0
N541 N 0.23238 0.73207 0.54567 0.0
O542 O 0.31846 0.77758 0.49756 0.0
H543 H 0.24318 0.7378 0.3938 0.0
H544 H 0.26873 0.7614 0.58175 0.0
O545 O 0.29135 0.76095 0.36964 0.0
C546 C 0.32468 0.78815 0.55424 0.0
O547 O 0.31251 0.79969 0.57579 0.0
N548 N 0.26987 0.79518 0.41327 0.0
C549 C 0.23979 0.81884 0.39162 0.0
C550 C 0.257 0.81951 0.34491 0.0
C551 C 0.27204 0.80796 0.35698 0.0
C552 C 0.25419 0.79592 0.46004 0.0
C553 C 0.23865 0.80672 0.44973 0.0
H554 H 0.28617 0.81058 0.32177 0.0
H555 H 0.25464 0.78959 0.50799 0.0
H556 H 0.32488 0.80301 0.32042 0.0
H557 H 0.35596 0.87588 0.40666 0.0
H558 H 0.20509 0.7102 0.4712 0.0
H559 H 0.25924 0.82932 0.29979 0.0
H560 H 0.2268 0.80679 0.48882 0.0
C561 C 0.24034 0.51865 0.44744 0.0
C562 C 0.22366 0.51794 0.40118 0.0
N563 N 0.23445 0.51965 0.34334 0.0
N564 N 0.26137 0.52095 0.41823 0.0
C565 C 0.25703 0.52123 0.3553 0.0
H566 H 0.23711 0.51716 0.49871 0.0
Co567 Co 0.28929 0.52084 0.4517 0.0
C568 C 0.3344 0.55879 0.36278 0.0
O569 O 0.3488 0.57013 0.41319 0.0
N570 N 0.31683 0.51943 0.48478 0.0
C571 C 0.34552 0.50658 0.49161 0.0
C572 C 0.33339 0.51494 0.45089 0.0
C573 C 0.31888 0.51318 0.54544 0.0
N574 N 0.33596 0.50509 0.55078 0.0
O575 O 0.2974 0.55327 0.50213 0.0
H576 H 0.33498 0.51541 0.39915 0.0
H577 H 0.30729 0.51338 0.58467 0.0
O578 O 0.31113 0.54033 0.37196 0.0
C579 C 0.28687 0.54941 0.5586 0.0
O580 O 0.27464 0.52571 0.58007 0.0
N581 N 0.27796 0.48779 0.41371 0.0
C582 C 0.2554 0.43498 0.38026 0.0
C583 C 0.26808 0.4547 0.3341 0.0
C584 C 0.27948 0.48093 0.35188 0.0
C585 C 0.2659 0.46915 0.45888 0.0
C586 C 0.255 0.44299 0.44372 0.0
H587 H 0.28912 0.49556 0.31576 0.0
H588 H 0.26478 0.47472 0.50777 0.0
H589 H 0.26984 0.52167 0.31849 0.0
H590 H 0.20526 0.51646 0.40944 0.0
H591 H 0.35943 0.50099 0.47839 0.0
H592 H 0.26895 0.45012 0.2842 0.0
H593 H 0.24653 0.4293 0.48237 0.0
H594 H 0.24751 0.19127 0.97767 0.0
H595 H 0.20754 0.22324 0.87756 0.0
H596 H 0.20021 0.23927 0.97869 0.0
H597 H 0.19161 0.22942 0.09257 0.0
H598 H 0.22405 0.18945 0.19072 0.0
H599 H 0.2486 0.19185 0.09486 0.0
C600 C 0.23783 0.20239 0.97822 0.0
C601 C 0.22684 0.20498 0.92159 0.0
C602 C 0.23204 0.20968 0.03671 0.0
C603 C 0.21553 0.22049 0.92129 0.0
C604 C 0.21116 0.22943 0.97915 0.0
C605 C 0.20508 0.22245 0.09383 0.0
C606 C 0.20549 0.20843 0.14704 0.0
C607 C 0.21723 0.22197 0.03718 0.0
C608 C 0.22312 0.19971 0.14909 0.0
C609 C 0.23691 0.20089 0.09425 0.0
H610 H 0.85776 0.03379 0.89452 0.0
H611 H 0.90572 1.00213 0.8464 0.0
H612 H 0.88724 0.97116 0.93462 0.0
H613 H 0.86596 0.96163 0.03772 0.0
H614 H 0.82377 0.99876 0.09644 0.0
H615 H 0.8303 1.01853 0.99034 0.0
C616 C 0.86331 1.01942 0.90276 0.0
C617 C 0.8829 1.01986 0.86595 0.0
C618 C 0.8537 1.00299 0.95529 0.0
C619 C 0.89062 1.00174 0.87551 0.0
C620 C 0.88013 0.98425 0.92562 0.0
C621 C 0.85728 0.97317 0.02652 0.0
C622 C 0.84498 0.97937 0.07478 0.0
C623 C 0.86281 0.98582 0.96787 0.0
C624 C 0.83376 0.99429 0.05986 0.0
C625 C 0.83767 1.00567 0.99964 0.0
H626 H 0.10377 0.89198 0.08026 0.0
H627 H 1.03364 0.85069 0.18813 0.0
H628 H 1.01012 0.83055 0.08995 0.0
H629 H 1.00814 0.83347 0.97348 0.0
H630 H 0.07719 0.8786 0.865 0.0
H631 H 0.10284 0.88817 0.96294 0.0
C632 C 0.08342 0.8783 0.08208 0.0
C633 C 0.07019 0.87349 0.14041 0.0
C634 C 0.06992 0.86774 0.02534 0.0
C635 C 1.04409 0.85491 0.14332 0.0
C636 C 1.03062 0.84353 0.08726 0.0
C637 C 1.02887 0.84484 0.97157 0.0
C638 C 1.04095 0.8561 0.91366 0.0
C639 C 1.0431 0.85112 0.02794 0.0
C640 C 0.06772 0.87011 0.90995 0.0
C641 C 0.08226 0.87573 0.96579 0.0
H642 H 0.93844 0.92279 0.16477 0.0
H643 H 0.8997 0.94815 0.03692 0.0
H644 H 0.9189 0.93901 0.94414 0.0
H645 H 0.94188 0.91752 0.89752 0.0
H646 H 0.98026 0.89191 0.02606 0.0
H647 H 0.96678 0.9076 0.11819 0.0
C648 C 0.93513 0.92748 0.11684 0.0
C649 C 0.91807 0.93709 0.10895 0.0
C650 C 0.94607 0.92164 0.06266 0.0
C651 C 0.91325 0.94164 0.04545 0.0
C652 C 0.92405 0.93603 0.99185 0.0
C653 C 0.94834 0.91647 0.94535 0.0
C654 C 0.96292 0.90402 0.95367 0.0
C655 C 0.93994 0.92525 0.99941 0.0
C656 C 0.96979 0.90191 1.01715 0.0
C657 C 0.96173 0.91064 0.07043 0.0
H658 H 0.17887 0.0917 0.03596 0.0
H659 H 0.15642 0.04391 0.86639 0.0
H660 H 0.13592 1.00533 0.93405 0.0
H661 H 0.12885 0.9849 0.04236 0.0
H662 H 0.14921 0.03258 0.21186 0.0
H663 H 0.16549 0.07102 0.14406 0.0
C664 C 0.1688 0.07286 1.01349 0.0
C665 C 0.16915 0.07111 0.94515 0.0
C666 C 0.15678 0.05052 0.05324 0.0
C667 C 0.15619 0.04627 0.91796 0.0
C668 C 0.14467 1.02405 0.95708 0.0
C669 C 0.13608 1.00363 0.06474 0.0
C670 C 0.13733 1.00543 0.13313 0.0
C671 C 0.14539 1.02586 1.02488 0.0
C672 C 0.14727 1.03015 0.16021 0.0
C673 C 0.15696 0.0523 0.12103 0.0
H674 H 1.03172 0.13005 0.89612 0.0
H675 H 0.96649 0.10171 1.02192 0.0
H676 H 0.99431 0.11294 0.11566 0.0
H677 H 1.03815 0.13616 0.16447 0.0
H678 H 0.10339 0.16474 0.03867 0.0
H679 H 0.07526 0.14809 0.94534 0.0
C680 C 1.02345 0.12539 0.94383 0.0
C681 C 0.99655 0.11446 0.95064 0.0
C682 C 1.03992 0.13244 0.99903 0.0
C683 C 0.98683 0.10967 1.01403 0.0
C684 C 1.00289 0.11635 0.06834 0.0
C685 C 0.04625 0.13788 0.11699 0.0
C686 C 0.0733 0.15152 0.10998 0.0
C687 C 1.02964 0.12846 0.06197 0.0
C688 C 0.0829 0.15413 0.04676 0.0
C689 C 0.06668 0.14473 0.99266 0.0
H690 H 0.85906 0.56479 0.4125 0.0
H691 H 0.89365 0.52745 0.51381 0.0
H692 H 0.91122 0.52179 0.41334 0.0
H693 H 0.90674 0.51745 0.29669 0.0
H694 H 0.86657 0.54901 0.19549 0.0
H695 H 0.86152 0.56755 0.29543 0.0
C696 C 0.87081 0.5558 0.4124 0.0
C697 C 0.87425 0.54554 0.4693 0.0
C698 C 0.87948 0.55134 0.35441 0.0
C699 C 0.89046 0.53506 0.46997 0.0
C700 C 0.90029 0.53164 0.4126 0.0
C701 C 0.89728 0.52878 0.29671 0.0
C702 C 0.88611 0.53113 0.24019 0.0
C703 C 0.89334 0.53808 0.35441 0.0
C704 C 0.8749 0.54671 0.2392 0.0
C705 C 0.87187 0.5571 0.29622 0.0
H706 H 0.51407 0.36979 0.21679 0.0
H707 H 0.57339 0.35424 0.15756 0.0
H708 H 0.55982 0.32082 0.23802 0.0
H709 H 0.5454 0.31203 0.34965 0.0
H710 H 0.49452 0.33695 0.42306 0.0
H711 H 0.49079 0.35127 0.31597 0.0
C712 C 0.52343 0.35843 0.22043 0.0
C713 C 0.54625 0.36617 0.18654 0.0
C714 C 0.51785 0.34194 0.2725 0.0
C715 C 0.55677 0.34988 0.18635 0.0
C716 C 0.54929 0.33099 0.23332 0.0
C717 C 0.53273 0.31966 0.34146 0.0
C718 C 0.52113 0.32459 0.39378 0.0
C719 C 0.53217 0.32937 0.28116 0.0
C720 C 0.50443 0.3341 0.38326 0.0
C721 C 0.50218 0.34207 0.32213 0.0
H722 H 0.70751 0.1836 0.4879 0.0
H723 H 0.78361 0.22531 0.40869 0.0
H724 H 0.76673 0.20947 0.30135 0.0
H725 H 0.72969 0.19461 0.23019 0.0
H726 H 0.65364 0.15679 0.30991 0.0
H727 H 0.67095 0.15937 0.41731 0.0
C728 C 0.72048 0.18835 0.44756 0.0
C729 C 0.74649 0.20642 0.45518 0.0
C730 C 0.71051 0.18016 0.38607 0.0
C731 C 0.76328 0.21221 0.40299 0.0
C732 C 0.75366 0.20315 0.34179 0.0
C733 C 0.71697 0.18602 0.27084 0.0
C734 C 0.69069 0.17644 0.26343 0.0
C735 C 0.72716 0.18879 0.33241 0.0
C736 C 0.6741 0.16504 0.31568 0.0
C737 C 0.68398 0.16654 0.37682 0.0
H738 H 0.60996 0.257 0.22633 0.0
H739 H 0.64241 0.22338 0.34961 0.0
H740 H 0.62996 0.23869 0.44437 0.0
H741 H 0.60368 0.25579 0.49368 0.0
H742 H 0.57139 0.28972 0.3712 0.0
H743 H 0.58994 0.28075 0.27676 0.0
C744 C 0.61543 0.2541 0.27375 0.0
C745 C 0.62793 0.23948 0.27977 0.0
C746 C 0.60771 0.26277 0.32925 0.0
C747 C 0.63356 0.23507 0.34259 0.0
C748 C 0.62607 0.24359 0.39731 0.0
C749 C 0.60173 0.26236 0.44675 0.0
C750 C 0.58664 0.27431 0.44075 0.0
C751 C 0.61234 0.25674 0.39162 0.0
C752 C 0.58348 0.28136 0.37835 0.0
C753 C 0.59386 0.27585 0.32377 0.0
H754 H 0.8437 0.42244 0.35009 0.0
H755 H 0.82057 0.37242 0.18461 0.0
H756 H 0.80105 0.33476 0.25549 0.0
H757 H 0.79523 0.31591 0.36538 0.0
H758 H 0.81642 0.36578 0.53087 0.0
H759 H 0.83148 0.40321 0.45991 0.0
C760 C 0.83368 0.4033 0.32923 0.0
C761 C 0.83355 0.40063 0.26108 0.0
C762 C 0.82227 0.38151 0.37084 0.0
C763 C 0.82069 0.37544 0.23597 0.0
C764 C 0.80974 0.35378 0.27694 0.0
C765 C 0.80234 0.33489 0.38621 0.0
C766 C 0.80421 0.33763 0.45438 0.0
C767 C 0.81098 0.35651 0.34455 0.0
C768 C 0.81401 0.36264 0.47946 0.0
C769 C 0.82301 0.38421 0.43846 0.0
H770 H 0.65752 0.44662 0.35544 0.0
H771 H 0.7046 0.47148 0.18556 0.0
H772 H 0.74313 0.48856 0.25284 0.0
H773 H 0.76381 0.50101 0.361 0.0
H774 H 0.71679 0.47448 0.53076 0.0
H775 H 0.67829 0.45336 0.46314 0.0
C776 C 0.67618 0.45514 0.33277 0.0
C777 C 0.67778 0.45743 0.26454 0.0
C778 C 0.69847 0.46491 0.37227 0.0
C779 C 0.70238 0.46885 0.23708 0.0
C780 C 0.72456 0.47895 0.27597 0.0
C781 C 0.74518 0.48998 0.38344 0.0
C782 C 0.74358 0.48933 0.45182 0.0
C783 C 0.72292 0.4777 0.34374 0.0
C784 C 0.71902 0.47508 0.47905 0.0
C785 C 0.69685 0.4632 0.44001 0.0
H786 H 0.54905 0.88577 0.55144 0.0
H787 H 0.58956 0.84919 0.62506 0.0
H788 H 0.59384 0.86935 0.72897 0.0
H789 H 0.57152 0.88251 0.80418 0.0
H790 H 0.52763 0.91595 0.73329 0.0
H791 H 0.53963 0.91254 0.62346 0.0
C792 C 0.55973 0.88319 0.58967 0.0
C793 C 0.56768 0.86504 0.58204 0.0
C794 C 0.56078 0.89363 0.65045 0.0
C795 C 0.58254 0.86253 0.63033 0.0
C796 C 0.58478 0.87386 0.69023 0.0
C797 C 0.56551 0.89015 0.76513 0.0
C798 C 0.54719 0.8976 0.77598 0.0
C799 C 0.57168 0.8872 0.70216 0.0
C800 C 0.54044 0.90847 0.72533 0.0
C801 C 0.54736 0.90663 0.66253 0.0
H802 H 0.20149 0.70795 0.82564 0.0
H803 H 0.1597 0.6317 0.74471 0.0
H804 H 0.16439 0.64964 0.63726 0.0
H805 H 0.19212 0.68572 0.56812 0.0
H806 H 0.23769 0.76158 0.64959 0.0
H807 H 0.21965 0.74533 0.75548 0.0
C808 C 0.19241 0.69538 0.78476 0.0
C809 C 0.18138 0.66875 0.79171 0.0
C810 C 0.19665 0.70581 0.72332 0.0
C811 C 0.16917 0.6524 0.73923 0.0
C812 C 0.17196 0.66262 0.67803 0.0
C813 C 0.19737 0.69881 0.60865 0.0
C814 C 0.21704 0.72436 0.60239 0.0
C815 C 0.18762 0.68916 0.66934 0.0
C816 C 0.22345 0.74144 0.65454 0.0
C817 C 0.21301 0.73223 0.71481 0.0
H818 H 0.38296 0.51423 0.57801 0.0
H819 H 0.30672 0.48192 0.65502 0.0
H820 H 0.32327 0.48603 0.76392 0.0
H821 H 0.36021 0.51045 0.83476 0.0
H822 H 0.4364 0.54644 0.75633 0.0
H823 H 0.41932 0.5286 0.65033 0.0
C824 C 0.3699 0.50711 0.61843 0.0
C825 C 0.34395 0.49892 0.60937 0.0
C826 C 0.3797 0.51066 0.68061 0.0
C827 C 0.32702 0.48932 0.66169 0.0
C828 C 0.33645 0.49165 0.72378 0.0
C829 C 0.37297 0.5134 0.79485 0.0
C830 C 0.39925 0.53034 0.8018 0.0
C831 C 0.36292 0.50416 0.73381 0.0
C832 C 0.41593 0.53404 0.75066 0.0
C833 C 0.4062 0.52389 0.69033 0.0
H834 H 0.23877 0.61157 0.68966 0.0
H835 H 0.2633 0.59047 0.86157 0.0
H836 H 0.28503 0.57303 0.79589 0.0
H837 H 0.29254 0.55876 0.68883 0.0
H838 H 0.27035 0.58219 0.51691 0.0
H839 H 0.2528 0.60388 0.58254 0.0
C840 C 0.24958 0.60392 0.713 0.0
C841 C 0.24946 0.60278 0.78139 0.0
C842 C 0.26237 0.59404 0.67439 0.0
C843 C 0.26335 0.59231 0.80983 0.0
C844 C 0.27557 0.58197 0.77188 0.0
C845 C 0.28469 0.5694 0.66546 0.0
C846 C 0.2833 0.56899 0.59709 0.0
C847 C 0.27468 0.58209 0.70404 0.0
C848 C 0.27246 0.58255 0.56862 0.0
C849 C 0.26203 0.59471 0.60655 0.0
H850 H 0.50526 0.74969 0.68912 0.0
H851 H 0.48753 0.70229 0.51953 0.0
H852 H 0.46645 0.66356 0.58649 0.0
H853 H 0.45712 0.64301 0.69462 0.0
H854 H 0.47332 0.69017 0.86407 0.0
H855 H 0.49038 0.72872 0.79637 0.0
C856 C 0.49626 0.73089 0.66638 0.0
C857 C 0.49809 0.72929 0.59834 0.0
C858 C 0.48393 0.70846 0.70569 0.0
C859 C 0.48629 0.70451 0.57085 0.0
C860 C 0.47439 0.68222 0.60958 0.0
C861 C 0.4637 0.66164 0.71693 0.0
C862 C 0.46352 0.66328 0.78527 0.0
C863 C 0.47359 0.68391 0.67721 0.0
C864 C 0.47255 0.68787 0.81234 0.0
C865 C 0.48268 0.71008 0.77328 0.0
H866 H 0.43347 0.83148 0.68958 0.0
H867 H 0.38712 0.81288 0.86018 0.0
H868 H 0.34827 0.79257 0.79367 0.0
H869 H 0.32742 0.78479 0.68565 0.0
H870 H 0.37359 0.80123 0.51525 0.0
H871 H 0.4121 0.81717 0.5823 0.0
C872 C 0.41485 0.8222 0.71259 0.0
C873 C 0.41361 0.82355 0.78085 0.0
C874 C 0.39236 0.81035 0.67349 0.0
C875 C 0.38906 0.81174 0.80871 0.0
C876 C 0.36671 0.80038 0.77021 0.0
C877 C 0.3458 0.79112 0.66297 0.0
C878 C 0.34718 0.79141 0.59451 0.0
C879 C 0.36807 0.80016 0.70239 0.0
C880 C 0.37147 0.80012 0.56701 0.0
C881 C 0.39367 0.80959 0.60573 0.0
H882 H 0.21544 0.39299 0.44202 0.0
H883 H 0.26641 0.41141 0.2795 0.0
H884 H 0.246 0.36596 0.25184 0.0
H885 H 0.21381 0.32026 0.27383 0.0
H886 H 0.16608 0.30206 0.44204 0.0
H887 H 0.18585 0.34783 0.46834 0.0
C888 C 0.22274 0.38742 0.40121 0.0
C889 C 0.2428 0.4065 0.36326 0.0
C890 C 0.21152 0.36088 0.38663 0.0
C891 C 0.25084 0.39792 0.30948 0.0
C892 C 0.23928 0.37162 0.29376 0.0
C893 C 0.20781 0.32631 0.31642 0.0
C894 C 0.18839 0.3075 0.35591 0.0
C895 C 0.21959 0.35287 0.33193 0.0
C896 C 0.18108 0.31587 0.4111 0.0
C897 C 0.1923 0.34216 0.42595 0.0
H898 H 0.74941 0.85848 0.35097 0.0
H899 H 0.76062 0.93527 0.34513 0.0
H900 H 0.71456 0.91791 0.35848 0.0
H901 H 0.67033 0.88047 0.37156 0.0
H902 H 0.65993 0.80412 0.37992 0.0
H903 H 0.7059 0.82155 0.36459 0.0
C904 C 0.74186 0.8715 0.3523 0.0
C905 C 0.75886 0.89831 0.34701 0.0
C906 C 0.71518 0.86134 0.35984 0.0
C907 C 0.74837 0.91466 0.34995 0.0
C908 C 0.72186 0.90468 0.35702 0.0
C909 C 0.67817 0.8677 0.36927 0.0
C910 C 0.66157 0.84092 0.3761 0.0
C911 C 0.70497 0.87801 0.3618 0.0
C912 C 0.67216 0.82471 0.37427 0.0
C913 C 0.69852 0.83471 0.36576 0.0
H914 H 0.25446 0.86644 0.3402 0.0
H915 H 0.18962 0.80052 0.42455 0.0
H916 H 0.1645 0.82215 0.41804 0.0
H917 H 0.1606 0.86005 0.38802 0.0
H918 H 0.22576 0.92594 0.30447 0.0
H919 H 0.25071 0.90425 0.31108 0.0
C920 C 0.23474 0.85665 0.35643 0.0
C921 C 0.22407 0.83174 0.38272 0.0
C922 C 0.22032 0.86936 0.35311 0.0
C923 C 0.19852 0.8197 0.40445 0.0
C924 C 0.18406 0.83209 0.40075 0.0
C925 C 0.18033 0.86976 0.3719 0.0
C926 C 0.19108 0.89465 0.34537 0.0
C927 C 0.19476 0.85703 0.37553 0.0
C928 C 0.21672 0.90672 0.32431 0.0
C929 C 0.23111 0.89431 0.32813 0.0
H930 H 0.42189 0.21059 0.73321 0.0
H931 H 0.42096 0.26457 0.59862 0.0
H932 H 0.37472 0.24454 0.60997 0.0
H933 H 0.33374 0.2112 0.65717 0.0
H934 H 0.33476 0.15877 0.79602 0.0
H935 H 0.38117 0.17848 0.78403 0.0
C936 C 0.41168 0.21824 0.707 0.0
C937 C 0.42523 0.239 0.66441 0.0
C938 C 0.38477 0.20667 0.71408 0.0
C939 C 0.41128 0.24834 0.63076 0.0
C940 C 0.38468 0.23691 0.63732 0.0
C941 C 0.34414 0.20401 0.68439 0.0
C942 C 0.33068 0.18339 0.72713 0.0
C943 C 0.37109 0.21587 0.67828 0.0
C944 C 0.34458 0.17459 0.76276 0.0
C945 C 0.37119 0.18591 0.75601 0.0
H946 H 0.92074 0.20027 0.68994 0.0
H947 H 0.85171 0.1287 0.72996 0.0
H948 H 0.82644 0.15002 0.72072 0.0
H949 H 0.82352 0.18918 0.70008 0.0
H950 H 0.89246 0.26032 0.65732 0.0
H951 H 0.91786 0.23917 0.66883 0.0
C952 C 0.90014 0.18921 0.69587 0.0
C953 C 0.88833 0.16278 0.71079 0.0
C954 C 0.88555 0.20165 0.69046 0.0
C955 C 0.86154 0.14906 0.7192 0.0
C956 C 0.84697 0.16127 0.71381 0.0
C957 C 0.84413 0.20008 0.69407 0.0
C958 C 0.856 0.22637 0.67796 0.0
C959 C 0.85872 0.18761 0.69976 0.0
C960 C 0.88275 0.24007 0.6695 0.0
C961 C 0.89733 0.22796 0.67596 0.0
H962 H 0.89396 0.73499 0.78685 0.0
H963 H 0.93224 0.75395 0.60305 0.0
H964 H 0.91071 0.7083 0.5746 0.0
H965 H 0.88161 0.6627 0.6024 0.0
H966 H 0.8435 0.64404 0.78647 0.0
H967 H 0.86518 0.68961 0.81482 0.0
C968 C 0.89794 0.72928 0.74075 0.0
C969 C 0.91499 0.74832 0.69743 0.0
C970 C 0.88569 0.70282 0.72486 0.0
C971 C 0.91912 0.74011 0.63736 0.0
C972 C 0.90692 0.71385 0.62117 0.0
C973 C 0.87783 0.66849 0.64864 0.0
C974 C 0.86077 0.64951 0.69211 0.0
C975 C 0.8902 0.69499 0.66456 0.0
C976 C 0.85671 0.6578 0.75217 0.0
C977 C 0.86898 0.68403 0.7683 0.0
H978 H 0.07863 0.57746 0.94583 0.0
H979 H 0.09443 0.54052 0.10226 0.0
H980 H 0.0488 0.51558 0.12685 0.0
H981 H 1.00418 0.50282 0.1018 0.0
H982 H 0.9882 0.54023 0.94666 0.0
H983 H 1.03385 0.56543 0.92251 0.0
C984 C 0.07217 0.5639 0.98524 0.0
C985 C 0.09032 0.56107 1.02203 0.0
C986 C 0.04568 0.5493 0.99889 0.0
C987 C 0.08127 0.54359 0.07351 0.0
C988 C 0.05502 0.52905 0.08729 0.0
C989 C 1.01052 0.51671 0.06319 0.0
C990 C 0.99227 0.51938 0.02633 0.0
C991 C 1.03701 0.53161 0.05011 0.0
C992 C 1.00136 0.53721 0.97553 0.0
C993 C 1.02764 0.55191 0.96195 0.0
H994 H 0.52847 0.55394 0.9335 0.0
H995 H 0.49486 0.53999 0.1233 0.0
H996 H 0.51693 0.51685 0.15168 0.0
H997 H 0.5457 0.49994 0.123 0.0
H998 H 0.57535 0.51009 0.93023 0.0
H999 H 0.55398 0.53427 0.90223 0.0
C1000 C 0.52524 0.54546 0.98078 0.0
C1001 C 0.50969 0.54918 0.02585 0.0
C1002 C 0.53722 0.53111 0.99633 0.0
C1003 C 0.50694 0.53833 0.0874 0.0
C1004 C 0.51941 0.52469 0.10372 0.0
C1005 C 0.54736 0.50736 0.07476 0.0
C1006 C 0.5622 0.50321 0.02877 0.0
C1007 C 0.53463 0.52096 0.05865 0.0
C1008 C 0.56395 0.51278 0.96638 0.0
C1009 C 0.55183 0.52677 0.95049 0.0
H1010 H 0.60022 0.07283 0.08226 0.0
H1011 H 0.55685 0.09037 0.94787 0.0
H1012 H 0.53028 0.04464 0.9221 0.0
H1013 H 0.51797 0.99947 0.94116 0.0
H1014 H 0.56265 0.98204 0.07211 0.0
H1015 H 0.58921 1.02763 0.09724 0.0
C1016 C 0.58497 0.0667 0.04726 0.0
C1017 C 0.58067 0.0853 1.01721 0.0
C1018 C 0.5696 0.04021 0.03272 0.0
C1019 C 0.56095 0.07677 0.97131 0.0
C1020 C 0.54554 0.0505 0.95694 0.0
C1021 C 0.53372 1.00544 0.97446 0.0
C1022 C 0.53789 0.98672 1.00465 0.0
C1023 C 0.54953 1.03199 0.98771 0.0
C1024 C 0.55828 0.99546 0.04879 0.0
C1025 C 0.5738 1.02175 0.06284 0.0
H1026 H 0.18114 0.1644 0.41511 0.0
H1027 H 0.10723 0.1524 0.47224 0.0
H1028 H 0.11084 0.13392 0.57437 0.0
H1029 H 0.13629 0.12325 0.65081 0.0
H1030 H 0.20999 0.13523 0.59096 0.0
H1031 H 0.20505 0.15138 0.48751 0.0
C1032 C 0.16557 0.15757 0.44944 0.0
C1033 C 0.14382 0.16 0.43485 0.0
C1034 C 0.16786 0.14696 0.50838 0.0
C1035 C 0.12406 0.15076 0.48083 0.0
C1036 C 0.12626 0.14028 0.53977 0.0
C1037 C 0.15124 0.12911 0.61503 0.0
C1038 C 0.17367 0.12783 0.63005 0.0
C1039 C 0.14823 0.13855 0.55463 0.0
C1040 C 0.19257 0.13571 0.58201 0.0
C1041 C 0.18975 0.14511 0.52244 0.0
H1042 H 0.94997 0.08765 0.50915 0.0
H1043 H 0.94008 0.04598 0.68504 0.0
H1044 H 0.92126 1.00552 0.62427 0.0
H1045 H 0.90471 0.9812 0.52179 0.0
H1046 H 0.9159 1.02282 0.34527 0.0
H1047 H 0.93697 0.06357 0.40521 0.0
C1048 C 0.94411 0.0698 0.53441 0.0
C1049 C 0.94673 0.07034 0.60253 0.0
C1050 C 0.93317 0.0463 0.49871 0.0
C1051 C 0.93878 0.04667 0.63328 0.0
C1052 C 0.92773 1.02332 0.59828 0.0
C1053 C 0.91192 0.99916 0.49598 0.0
C1054 C 0.90828 0.99849 0.42824 0.0
C1055 C 0.92439 1.02278 0.53108 0.0
C1056 C 0.91818 1.0223 0.3967 0.0
C1057 C 0.93024 0.04576 0.43132 0.0
H1058 H 1.04131 0.92238 0.40526 0.0
H1059 H 0.11604 0.95809 0.49321 0.0
H1060 H 0.096 0.94724 0.59981 0.0
H1061 H 0.05719 0.92734 0.66914 0.0
H1062 H 0.98243 0.88927 0.58126 0.0
H1063 H 1.00244 0.90122 0.47463 0.0
C1064 C 0.05336 0.92796 0.44762 0.0
C1065 C 0.08048 0.94145 0.4401 0.0
C1066 C 1.04155 0.92112 0.50938 0.0
C1067 C 0.09534 0.94793 0.49645 0.0
C1068 C 0.08378 0.94167 0.5578 0.0
C1069 C 1.04511 0.92169 0.62682 0.0
C1070 C 1.018 0.90748 0.63437 0.0
C1071 C 0.0569 0.92826 0.56506 0.0
C1072 C 1.00312 0.90018 0.57799 0.0
C1073 C 1.01466 0.90707 0.51665 0.0
H1074 H 0.92866 0.90915 0.65919 0.0
H1075 H 0.86028 0.83471 0.6722 0.0
H1076 H 0.84898 0.83886 0.56227 0.0
H1077 H 0.86156 0.86113 0.45897 0.0
H1078 H 0.93361 0.93207 0.4421 0.0
H1079 H 0.9415 0.931 0.5566 0.0
C1080 C 0.91127 0.89381 0.63797 0.0
C1081 C 0.89581 0.87135 0.67299 0.0
C1082 C 0.90621 0.89522 0.57345 0.0
C1083 C 0.87265 0.85219 0.64622 0.0
C1084 C 0.86645 0.8543 0.58292 0.0
C1085 C 0.87926 0.87603 0.47996 0.0
C1086 C 0.89713 0.89653 0.4422 0.0
C1087 C 0.88375 0.87514 0.54534 0.0
C1088 C 0.91964 0.91611 0.47045 0.0
C1089 C 0.92403 0.91562 0.53579 0.0
H1090 H 0.16761 0.99411 0.49665 0.0
H1091 H 0.24068 0.04759 0.41247 0.0
H1092 H 0.25705 0.06579 0.51905 0.0
H1093 H 0.24851 0.06919 0.63397 0.0
H1094 H 0.17474 1.01652 0.71363 0.0
H1095 H 0.16087 0.99389 0.6105 0.0
C1096 C 0.18739 1.00915 0.50103 0.0
C1097 C 0.20287 1.01944 0.44623 0.0
C1098 C 0.19654 1.01931 0.5618 0.0
C1099 C 0.22823 0.03957 0.45367 0.0
C1100 C 0.23764 0.04983 0.51459 0.0
C1101 C 0.22982 0.05211 0.62876 0.0
C1102 C 0.21261 0.04401 0.68043 0.0
C1103 C 0.22174 0.04017 0.56872 0.0
C1104 C 0.18815 1.02251 0.674 0.0
C1105 C 0.18024 1.00993 0.61516 0.0
H1106 H 1.01757 0.2052 0.63691 0.0
H1107 H 0.05966 0.17059 0.71126 0.0
H1108 H 0.08298 0.17867 0.60978 0.0
H1109 H 0.08531 0.18837 0.49719 0.0
H1110 H 1.04208 0.2216 0.41874 0.0
H1111 H 1.02464 0.22075 0.52505 0.0
C1112 C 1.03264 0.2005 0.63127 0.0
C1113 C 1.0373 0.1876 0.68074 0.0
C1114 C 1.0449 0.20406 0.57191 0.0
C1115 C 0.05623 0.1808 0.67339 0.0
C1116 C 0.0692 0.18511 0.61537 0.0
C1117 C 0.07264 0.19612 0.50262 0.0
C1118 C 0.06483 0.20468 0.449 0.0
C1119 C 0.06277 0.19562 0.56355 0.0
C1120 C 0.04803 0.21428 0.45845 0.0
C1121 C 1.03819 0.21402 0.51944 0.0
H1122 H 0.82104 0.47059 0.72287 0.0
H1123 H 0.78473 0.50855 0.81495 0.0
H1124 H 0.79432 0.49732 0.92053 0.0
H1125 H 0.81318 0.47676 0.98768 0.0
H1126 H 0.85237 0.4417 0.89573 0.0
H1127 H 0.84157 0.45171 0.79009 0.0
C1128 C 0.81503 0.47635 0.76591 0.0
C1129 C 0.8017 0.49025 0.75994 0.0
C1130 C 0.82123 0.4703 0.82702 0.0
C1131 C 0.79475 0.49781 0.8171 0.0
C1132 C 0.80029 0.49134 0.87781 0.0
C1133 C 0.81931 0.47111 0.94465 0.0
C1134 C 0.83341 0.45801 0.95067 0.0
C1135 C 0.8135 0.47755 0.88355 0.0
C1136 C 0.84145 0.45153 0.89354 0.0
C1137 C 0.83522 0.45731 0.8328 0.0
H1138 H 0.64233 0.39833 0.89882 0.0
H1139 H 0.57697 0.39805 0.98454 0.0
H1140 H 0.54904 0.36676 0.90455 0.0
H1141 H 0.54251 0.33956 0.80952 0.0
H1142 H 0.60678 0.33825 0.72248 0.0
H1143 H 0.63533 0.36952 0.80337 0.0
C1144 C 0.62196 0.39147 0.90026 0.0
C1145 C 0.61215 0.40126 0.94853 0.0
C1146 C 0.60561 0.37292 0.85351 0.0
C1147 C 0.58552 0.3916 0.94857 0.0
C1148 C 0.56937 0.37345 0.90255 0.0
C1149 C 0.56277 0.34592 0.8077 0.0
C1150 C 0.57215 0.33616 0.75855 0.0
C1151 C 0.57912 0.36401 0.85461 0.0
C1152 C 0.59864 0.34501 0.75882 0.0
C1153 C 0.61507 0.36309 0.80537 0.0
H1154 H 0.72613 0.26039 0.99445 0.0
H1155 H 0.65078 0.22583 0.91047 0.0
H1156 H 0.67001 0.23751 0.80302 0.0
H1157 H 0.7084 0.25745 0.73164 0.0
H1158 H 0.78359 0.28959 0.81553 0.0
H1159 H 0.76437 0.27901 0.92303 0.0
C1160 C 0.71377 0.25543 0.95282 0.0
C1161 C 0.68672 0.24229 0.9618 0.0
C1162 C 0.72509 0.26183 0.89046 0.0
C1163 C 0.67144 0.2359 0.90619 0.0
C1164 C 0.68255 0.24264 0.84433 0.0
C1165 C 0.72073 0.26231 0.77331 0.0
C1166 C 0.74777 0.27473 0.76432 0.0
C1167 C 0.70937 0.25562 0.83564 0.0
C1168 C 0.76297 0.28028 0.81984 0.0
C1169 C 0.75187 0.27417 0.88173 0.0
H1170 H 0.59934 0.21269 0.91986 0.0
H1171 H 0.52874 0.19614 1.01295 0.0
H1172 H 0.51185 0.20086 0.9101 0.0
H1173 H 0.51827 0.2114 0.79477 0.0
H1174 H 0.59018 0.23129 0.70565 0.0
H1175 H 0.606 0.22368 0.80702 0.0
C1176 C 0.58048 0.21067 0.91828 0.0
C1177 C 0.56543 0.20458 0.974 0.0
C1178 C 0.57123 0.21371 0.85988 0.0
C1179 C 0.54062 0.20095 0.97045 0.0
C1180 C 0.53102 0.20362 0.91191 0.0
C1181 C 0.53718 0.21353 0.798 0.0
C1182 C 0.55311 0.22132 0.74402 0.0
C1183 C 0.54622 0.21006 0.8565 0.0
C1184 C 0.57781 0.22491 0.74741 0.0
C1185 C 0.58676 0.22074 0.80499 0.0
H1186 H 0.88392 0.35507 0.99061 0.0
H1187 H 0.92319 0.43355 0.92568 0.0
H1188 H 0.9219 0.41933 0.81497 0.0
H1189 H 0.89942 0.38456 0.73667 0.0
H1190 H 0.85825 0.30593 0.80117 0.0
H1191 H 0.87077 0.31995 0.91191 0.0
C1192 C 0.89312 0.36893 0.95237 0.0
C1193 C 0.90291 0.3951 0.96509 0.0
C1194 C 0.89135 0.36053 0.88873 0.0
C1195 C 0.91498 0.41318 0.91589 0.0
C1196 C 0.91414 0.40507 0.85278 0.0
C1197 C 0.89405 0.37051 0.77469 0.0
C1198 C 0.8771 0.34447 0.76162 0.0
C1199 C 0.90077 0.37876 0.83828 0.0
C1200 C 0.87047 0.32627 0.81092 0.0
C1201 C 0.87767 0.33423 0.87414 0.0
H1202 H 0.72257 0.5507 0.97228 0.0
H1203 H 0.64528 0.50438 0.90235 0.0
H1204 H 0.65983 0.51787 0.79274 0.0
H1205 H 0.69581 0.53449 0.71666 0.0
H1206 H 0.77294 0.57933 0.78731 0.0
H1207 H 0.75717 0.57578 0.89704 0.0
C1208 C 0.70877 0.54422 0.93346 0.0
C1209 C 0.68317 0.52565 0.94492 0.0
C1210 C 0.71731 0.55173 0.87061 0.0
C1211 C 0.6654 0.51774 0.89421 0.0
C1212 C 0.67364 0.52558 0.83156 0.0
C1213 C 0.70895 0.54434 0.75593 0.0
C1214 C 0.73534 0.55645 0.74506 0.0
C1215 C 0.69977 0.54129 0.81892 0.0
C1216 C 0.75247 0.56937 0.79563 0.0
C1217 C 0.74349 0.56722 0.85815 0.0
H1218 H 0.51671 0.83869 0.30198 0.0
H1219 H 0.50833 0.76594 0.24286 0.0
H1220 H 0.48892 0.76856 0.14121 0.0
H1221 H 0.4762 0.79288 0.06584 0.0
H1222 H 0.48361 0.86486 0.12932 0.0
H1223 H 0.5014 0.86113 0.23125 0.0
C1224 C 0.51052 0.82317 0.26727 0.0
C1225 C 0.51427 0.80206 0.28116 0.0
C1226 C 0.49927 0.82483 0.20876 0.0
C1227 C 0.50573 0.7823 0.23479 0.0
C1228 C 0.49472 0.78394 0.17611 0.0
C1229 C 0.48148 0.80774 0.102 0.0
C1230 C 0.47865 0.82948 0.08806 0.0
C1231 C 0.49163 0.80529 0.162 0.0
C1232 C 0.48567 0.84817 0.13684 0.0
C1233 C 0.49588 0.84598 0.19578 0.0
H1234 H 0.27462 0.74629 0.18237 0.0
H1235 H 0.27692 0.70927 0.35699 0.0
H1236 H 0.26241 0.66882 0.29736 0.0
H1237 H 0.24583 0.64278 0.19626 0.0
H1238 H 0.24594 0.68102 1.02121 0.0
H1239 H 0.26241 0.72159 0.08 0.0
C1240 C 0.27241 0.72953 0.20755 0.0
C1241 C 0.27714 0.73129 0.27489 0.0
C1242 C 0.26396 0.70616 0.17262 0.0
C1243 C 0.27395 0.70902 0.30564 0.0
C1244 C 0.26532 0.68566 0.27134 0.0
C1245 C 0.24961 0.65997 0.17048 0.0
C1246 C 0.24376 0.65813 0.10355 0.0
C1247 C 0.25977 0.68379 0.2049 0.0
C1248 C 0.24936 0.68112 0.0722 0.0
C1249 C 0.25903 0.70459 0.10608 0.0
H1250 H 0.38576 0.5866 0.32931 0.0
H1251 H 0.31054 0.54813 0.24391 0.0
H1252 H 0.32986 0.56083 0.13691 0.0
H1253 H 0.36821 0.58278 0.0662 0.0
H1254 H 0.44354 0.619 0.15078 0.0
H1255 H 0.42421 0.60736 0.25817 0.0
C1256 C 0.37345 0.58097 0.28745 0.0
C1257 C 0.34637 0.56639 0.29599 0.0
C1258 C 0.38486 0.58804 0.22519 0.0
C1259 C 0.3312 0.55924 0.24007 0.0
C1260 C 0.34236 0.5666 0.17842 0.0
C1261 C 0.38057 0.58835 0.10797 0.0
C1262 C 0.40765 0.60224 0.09918 0.0
C1263 C 0.36918 0.58102 0.17015 0.0
C1264 C 0.42287 0.6086 0.15489 0.0
C1265 C 0.41171 0.60185 0.21673 0.0
H1266 H 0.2628 0.54177 0.23892 0.0
H1267 H 0.18483 0.49926 0.30699 0.0
H1268 H 0.16939 0.5013 0.19966 0.0
H1269 H 0.17877 0.51842 0.08985 0.0
H1270 H 0.25689 0.56148 1.02469 0.0
H1271 H 0.27187 0.55453 0.1278 0.0
C1272 C 0.24238 0.53227 0.23027 0.0
C1273 C 0.22495 0.52028 0.28077 0.0
C1274 C 0.23382 0.53325 0.16902 0.0
C1275 C 0.19859 0.5089 0.26897 0.0
C1276 C 0.1898 0.50983 0.20764 0.0
C1277 C 0.19897 0.52541 0.09769 0.0
C1278 C 0.21686 0.54027 0.05043 0.0
C1279 C 0.20731 0.52227 0.15764 0.0
C1280 C 0.24302 0.54988 0.06091 0.0
C1281 C 0.25148 0.54617 0.11976 0.0
H1282 H 0.57205 0.74812 0.24043 0.0
H1283 H 0.53799 0.67643 0.34391 0.0
H1284 H 0.52921 0.65264 0.24307 0.0
H1285 H 0.52403 0.65213 0.12655 0.0
H1286 H 0.55492 0.72332 1.02254 0.0
H1287 H 0.57246 0.74773 0.12248 0.0
C1288 C 0.56298 0.72732 0.2407 0.0
C1289 C 0.55502 0.71394 0.29903 0.0
C1290 C 0.55722 0.71381 0.18262 0.0
C1291 C 0.54413 0.68708 0.29943 0.0
C1292 C 0.53891 0.67348 0.24184 0.0
C1293 C 0.53498 0.67299 0.12603 0.0
C1294 C 0.53779 0.68614 0.0685 0.0
C1295 C 0.54424 0.68662 0.18336 0.0
C1296 C 0.55251 0.71305 0.06697 0.0
C1297 C 0.56232 0.72688 0.12392 0.0
H1298 H 0.39276 0.88005 0.31423 0.0
H1299 H 0.31714 0.8305 0.239 0.0
H1300 H 0.33252 0.84369 0.12971 0.0
H1301 H 0.36871 0.86302 0.05586 0.0
H1302 H 0.44516 0.90947 0.12956 0.0
H1303 H 0.4285 0.90448 0.23906 0.0
C1304 C 0.37975 0.87276 0.27369 0.0
C1305 C 0.35414 0.85411 0.28371 0.0
C1306 C 0.38896 0.87974 0.21091 0.0
C1307 C 0.3371 0.84456 0.23162 0.0
C1308 C 0.34585 0.85211 0.16933 0.0
C1309 C 0.38154 0.87273 0.09577 0.0
C1310 C 0.40797 0.88619 0.0855 0.0
C1311 C 0.37193 0.86879 0.15831 0.0
C1312 C 0.42466 0.89863 0.13719 0.0
C1313 C 0.41518 0.89571 0.19956 0.0
loop_
_geom_bond_atom_site_label_1
_geom_bond_atom_site_label_2
_geom_bond_distance
_geom_bond_site_symmetry_2
_ccdc_geom_bond_type
C0 C1 1.351 . S
C0 N3 1.368 . S
C0 H5 0.931 . S
C1 C0 1.351 . S
C1 N2 1.373 . S
C1 H29 0.930 . S
N2 C1 1.373 . S
N2 C4 1.340 . S
N3 C0 1.368 . S
N3 C4 1.321 . S
N3 Co6 2.135 . S
C4 N2 1.340 . S
C4 N3 1.321 . S
C4 H28 0.930 . S
H5 C0 0.931 . S
Co6 N3 2.135 . S
Co6 N9 2.121 . S
Co6 O14 2.055 . S
Co6 O17 2.039 . S
Co6 N20 2.140 . S
C7 O8 1.227 . S
C7 O17 1.265 . S
O8 C7 1.227 . S
N9 Co6 2.121 . S
N9 C11 1.375 . S
N9 C12 1.313 . S
C10 C11 1.338 . S
C10 N13 1.377 . S
C10 H30 0.930 . S
C11 N9 1.375 . S
C11 C10 1.338 . S
C11 H15 0.931 . S
C12 N9 1.313 . S
C12 N13 1.344 . S
C12 H16 0.930 . S
N13 C10 1.377 . S
N13 C12 1.344 . S
O14 Co6 2.055 . S
O14 C18 1.253 . S
H15 C11 0.931 . S
H16 C12 0.930 . S
O17 Co6 2.039 . S
O17 C7 1.265 . S
C18 O14 1.253 . S
C18 O19 1.227 . S
O19 C18 1.227 . S
N20 Co6 2.140 . S
N20 C23 1.346 . S
N20 C24 1.345 . S
C21 C22 1.387 . S
C21 C25 1.391 . S
C22 C21 1.387 . S
C22 C23 1.369 . S
C22 H31 0.929 . S
C23 N20 1.346 . S
C23 C22 1.369 . S
C23 H26 0.928 . S
C24 N20 1.345 . S
C24 C25 1.371 . S
C24 H27 0.931 . S
C25 C21 1.391 . S
C25 C24 1.371 . S
C25 H32 0.930 . S
H26 C23 0.928 . S
H27 C24 0.931 . S
H28 C4 0.930 . S
H29 C1 0.930 . S
H30 C10 0.930 . S
H31 C22 0.929 . S
H32 C25 0.930 . S
C33 C34 1.351 . S
C33 N36 1.368 . S
C33 H38 0.931 . S
C34 C33 1.351 . S
C34 N35 1.373 . S
C34 H62 0.930 . S
N35 C34 1.373 . S
N35 C37 1.340 . S
N36 C33 1.368 . S
N36 C37 1.321 . S
N36 Co39 2.135 . S
C37 N35 1.340 . S
C37 N36 1.321 . S
C37 H61 0.930 . S
H38 C33 0.931 . S
Co39 N36 2.135 . S
Co39 N42 2.121 . S
Co39 O47 2.055 . S
Co39 O50 2.039 . S
Co39 N53 2.140 . S
C40 O41 1.227 . S
C40 O50 1.265 . S
O41 C40 1.227 . S
N42 Co39 2.121 . S
N42 C44 1.375 . S
N42 C45 1.313 . S
C43 C44 1.338 . S
C43 N46 1.377 . S
C43 H63 0.930 . S
C44 N42 1.375 . S
C44 C43 1.338 . S
C44 H48 0.931 . S
C45 N42 1.313 . S
C45 N46 1.344 . S
C45 H49 0.930 . S
N46 C43 1.377 . S
N46 C45 1.344 . S
O47 Co39 2.055 . S
O47 C51 1.253 . S
H48 C44 0.931 . S
H49 C45 0.930 . S
O50 Co39 2.039 . S
O50 C40 1.265 . S
C51 O47 1.253 . S
C51 O52 1.227 . S
O52 C51 1.227 . S
N53 Co39 2.140 . S
N53 C56 1.346 . S
N53 C57 1.345 . S
C54 C55 1.387 . S
C54 C58 1.391 . S
C55 C54 1.387 . S
C55 C56 1.369 . S
C55 H64 0.929 . S
C56 N53 1.346 . S
C56 C55 1.369 . S
C56 H59 0.928 . S
C57 N53 1.345 . S
C57 C58 1.371 . S
C57 H60 0.931 . S
C58 C54 1.391 . S
C58 C57 1.371 . S
C58 H65 0.930 . S
H59 C56 0.928 . S
H60 C57 0.931 . S
H61 C37 0.930 . S
H62 C34 0.930 . S
H63 C43 0.930 . S
H64 C55 0.929 . S
H65 C58 0.930 . S
C66 C67 1.351 . S
C66 N69 1.368 . S
C66 H71 0.931 . S
C67 C66 1.351 . S
C67 N68 1.373 . S
C67 H95 0.930 . S
N68 C67 1.373 . S
N68 C70 1.340 . S
N69 C66 1.368 . S
N69 C70 1.321 . S
N69 Co72 2.135 . S
C70 N68 1.340 . S
C70 N69 1.321 . S
C70 H94 0.930 . S
H71 C66 0.931 . S
Co72 N69 2.135 . S
Co72 N75 2.121 . S
Co72 O80 2.055 . S
Co72 O83 2.039 . S
Co72 N86 2.140 . S
C73 O74 1.227 . S
C73 O83 1.265 . S
O74 C73 1.227 . S
N75 Co72 2.121 . S
N75 C77 1.375 . S
N75 C78 1.313 . S
C76 C77 1.338 . S
C76 N79 1.377 . S
C76 H96 0.930 . S
C77 N75 1.375 . S
C77 C76 1.338 . S
C77 H81 0.931 . S
C78 N75 1.313 . S
C78 N79 1.344 . S
C78 H82 0.930 . S
N79 C76 1.377 . S
N79 C78 1.344 . S
O80 Co72 2.055 . S
O80 C84 1.253 . S
H81 C77 0.931 . S
H82 C78 0.930 . S
O83 Co72 2.039 . S
O83 C73 1.265 . S
C84 O80 1.253 . S
C84 O85 1.227 . S
O85 C84 1.227 . S
N86 Co72 2.140 . S
N86 C89 1.346 . S
N86 C90 1.345 . S
C87 C88 1.387 . S
C87 C91 1.391 . S
C88 C87 1.387 . S
C88 C89 1.369 . S
C88 H97 0.929 . S
C89 N86 1.346 . S
C89 C88 1.369 . S
C89 H92 0.928 . S
C90 N86 1.345 . S
C90 C91 1.371 . S
C90 H93 0.931 . S
C91 C87 1.391 . S
C91 C90 1.371 . S
C91 H98 0.930 . S
H92 C89 0.928 . S
H93 C90 0.931 . S
H94 C70 0.930 . S
H95 C67 0.930 . S
H96 C76 0.930 . S
H97 C88 0.929 . S
H98 C91 0.930 . S
C99 C100 1.351 . S
C99 N102 1.368 . S
C99 H104 0.931 . S
C100 C99 1.351 . S
C100 N101 1.373 . S
C100 H128 0.930 . S
N101 C100 1.373 . S
N101 C103 1.340 . S
N102 C99 1.368 . S
N102 C103 1.321 . S
N102 Co105 2.135 . S
C103 N101 1.340 . S
C103 N102 1.321 . S
C103 H127 0.930 . S
H104 C99 0.931 . S
Co105 N102 2.135 . S
Co105 N108 2.121 . S
Co105 O113 2.055 . S
Co105 O116 2.039 . S
Co105 N119 2.140 . S
C106 O107 1.227 . S
C106 O116 1.265 . S
O107 C106 1.227 . S
N108 Co105 2.121 . S
N108 C110 1.375 . S
N108 C111 1.313 . S
C109 C110 1.338 . S
C109 N112 1.377 . S
C109 H129 0.930 . S
C110 N108 1.375 . S
C110 C109 1.338 . S
C110 H114 0.931 . S
C111 N108 1.313 . S
C111 N112 1.344 . S
C111 H115 0.930 . S
N112 C109 1.377 . S
N112 C111 1.344 . S
O113 Co105 2.055 . S
O113 C117 1.253 . S
H114 C110 0.931 . S
H115 C111 0.930 . S
O116 Co105 2.039 . S
O116 C106 1.265 . S
C117 O113 1.253 . S
C117 O118 1.227 . S
O118 C117 1.227 . S
N119 Co105 2.140 . S
N119 C122 1.346 . S
N119 C123 1.345 . S
C120 C121 1.387 . S
C120 C124 1.391 . S
C121 C120 1.387 . S
C121 C122 1.369 . S
C121 H130 0.929 . S
C122 N119 1.346 . S
C122 C121 1.369 . S
C122 H125 0.928 . S
C123 N119 1.345 . S
C123 C124 1.371 . S
C123 H126 0.931 . S
C124 C120 1.391 . S
C124 C123 1.371 . S
C124 H131 0.930 . S
H125 C122 0.928 . S
H126 C123 0.931 . S
H127 C103 0.930 . S
H128 C100 0.930 . S
H129 C109 0.930 . S
H130 C121 0.929 . S
H131 C124 0.930 . S
C132 C133 1.351 . S
C132 N135 1.368 . S
C132 H137 0.931 . S
C133 C132 1.351 . S
C133 N134 1.373 . S
C133 H161 0.930 . S
N134 C133 1.373 . S
N134 C136 1.340 . S
N135 C132 1.368 . S
N135 C136 1.321 . S
N135 Co138 2.135 . S
C136 N134 1.340 . S
C136 N135 1.321 . S
C136 H160 0.930 . S
H137 C132 0.931 . S
Co138 N135 2.135 . S
Co138 N141 2.121 . S
Co138 O146 2.055 . S
Co138 O149 2.039 . S
Co138 N152 2.140 . S
C139 O140 1.227 . S
C139 O149 1.265 . S
O140 C139 1.227 . S
N141 Co138 2.121 . S
N141 C143 1.375 . S
N141 C144 1.313 . S
C142 C143 1.338 . S
C142 N145 1.377 . S
C142 H162 0.930 . S
C143 N141 1.375 . S
C143 C142 1.338 . S
C143 H147 0.931 . S
C144 N141 1.313 . S
C144 N145 1.344 . S
C144 H148 0.930 . S
N145 C142 1.377 . S
N145 C144 1.344 . S
O146 Co138 2.055 . S
O146 C150 1.253 . S
H147 C143 0.931 . S
H148 C144 0.930 . S
O149 Co138 2.039 . S
O149 C139 1.265 . S
C150 O146 1.253 . S
C150 O151 1.227 . S
O151 C150 1.227 . S
N152 Co138 2.140 . S
N152 C155 1.346 . S
N152 C156 1.345 . S
C153 C154 1.387 . S
C153 C157 1.391 . S
C154 C153 1.387 . S
C154 C155 1.369 . S
C154 H163 0.929 . S
C155 N152 1.346 . S
C155 C154 1.369 . S
C155 H158 0.928 . S
C156 N152 1.345 . S
C156 C157 1.371 . S
C156 H159 0.931 . S
C157 C153 1.391 . S
C157 C156 1.371 . S
C157 H164 0.930 . S
H158 C155 0.928 . S
H159 C156 0.931 . S
H160 C136 0.930 . S
H161 C133 0.930 . S
H162 C142 0.930 . S
H163 C154 0.929 . S
H164 C157 0.930 . S
C165 C166 1.351 . S
C165 N168 1.368 . S
C165 H170 0.931 . S
C166 C165 1.351 . S
C166 N167 1.373 . S
C166 H194 0.930 . S
N167 C166 1.373 . S
N167 C169 1.340 . S
N168 C165 1.368 . S
N168 C169 1.321 . S
N168 Co171 2.135 . S
C169 N167 1.340 . S
C169 N168 1.321 . S
C169 H193 0.930 . S
H170 C165 0.931 . S
Co171 N168 2.135 . S
Co171 N174 2.121 . S
Co171 O179 2.055 . S
Co171 O182 2.039 . S
Co171 N185 2.140 . S
C172 O173 1.227 . S
C172 O182 1.265 . S
O173 C172 1.227 . S
N174 Co171 2.121 . S
N174 C176 1.375 . S
N174 C177 1.313 . S
C175 C176 1.338 . S
C175 N178 1.377 . S
C175 H195 0.930 . S
C176 N174 1.375 . S
C176 C175 1.338 . S
C176 H180 0.931 . S
C177 N174 1.313 . S
C177 N178 1.344 . S
C177 H181 0.930 . S
N178 C175 1.377 . S
N178 C177 1.344 . S
O179 Co171 2.055 . S
O179 C183 1.253 . S
H180 C176 0.931 . S
H181 C177 0.930 . S
O182 Co171 2.039 . S
O182 C172 1.265 . S
C183 O179 1.253 . S
C183 O184 1.227 . S
O184 C183 1.227 . S
N185 Co171 2.140 . S
N185 C188 1.346 . S
N185 C189 1.345 . S
C186 C187 1.387 . S
C186 C190 1.391 . S
C187 C186 1.387 . S
C187 C188 1.369 . S
C187 H196 0.929 . S
C188 N185 1.346 . S
C188 C187 1.369 . S
C188 H191 0.928 . S
C189 N185 1.345 . S
C189 C190 1.371 . S
C189 H192 0.931 . S
C190 C186 1.391 . S
C190 C189 1.371 . S
C190 H197 0.930 . S
H191 C188 0.928 . S
H192 C189 0.931 . S
H193 C169 0.930 . S
H194 C166 0.930 . S
H195 C175 0.930 . S
H196 C187 0.929 . S
H197 C190 0.930 . S
C198 C199 1.351 . S
C198 N201 1.368 . S
C198 H203 0.931 . S
C199 C198 1.351 . S
C199 N200 1.373 . S
C199 H227 0.930 . S
N200 C199 1.373 . S
N200 C202 1.340 . S
N201 C198 1.368 . S
N201 C202 1.321 . S
N201 Co204 2.135 . S
C202 N200 1.340 . S
C202 N201 1.321 . S
C202 H226 0.930 . S
H203 C198 0.931 . S
Co204 N201 2.135 . S
Co204 N207 2.121 . S
Co204 O212 2.055 . S
Co204 O215 2.039 . S
Co204 N218 2.140 . S
C205 O206 1.227 . S
C205 O215 1.265 . S
O206 C205 1.227 . S
N207 Co204 2.121 . S
N207 C209 1.375 . S
N207 C210 1.313 . S
C208 C209 1.338 . S
C208 N211 1.377 . S
C208 H228 0.930 . S
C209 N207 1.375 . S
C209 C208 1.338 . S
C209 H213 0.931 . S
C210 N207 1.313 . S
C210 N211 1.344 . S
C210 H214 0.930 . S
N211 C208 1.377 . S
N211 C210 1.344 . S
O212 Co204 2.055 . S
O212 C216 1.253 . S
H213 C209 0.931 . S
H214 C210 0.930 . S
O215 Co204 2.039 . S
O215 C205 1.265 . S
C216 O212 1.253 . S
C216 O217 1.227 . S
O217 C216 1.227 . S
N218 Co204 2.140 . S
N218 C221 1.346 . S
N218 C222 1.345 . S
C219 C220 1.387 . S
C219 C223 1.391 . S
C220 C219 1.387 . S
C220 C221 1.369 . S
C220 H229 0.929 . S
C221 N218 1.346 . S
C221 C220 1.369 . S
C221 H224 0.928 . S
C222 N218 1.345 . S
C222 C223 1.371 . S
C222 H225 0.931 . S
C223 C219 1.391 . S
C223 C222 1.371 . S
C223 H230 0.930 . S
H224 C221 0.928 . S
H225 C222 0.931 . S
H226 C202 0.930 . S
H227 C199 0.930 . S
H228 C208 0.930 . S
H229 C220 0.929 . S
H230 C223 0.930 . S
C231 C232 1.351 . S
C231 N234 1.368 . S
C231 H236 0.931 . S
C232 C231 1.351 . S
C232 N233 1.373 . S
C232 H260 0.930 . S
N233 C232 1.373 . S
N233 C235 1.340 . S
N234 C231 1.368 . S
N234 C235 1.321 . S
N234 Co237 2.135 . S
C235 N233 1.340 . S
C235 N234 1.321 . S
C235 H259 0.930 . S
H236 C231 0.931 . S
Co237 N234 2.135 . S
Co237 N240 2.121 . S
Co237 O245 2.055 . S
Co237 O248 2.039 . S
Co237 N251 2.140 . S
C238 O239 1.227 . S
C238 O248 1.265 . S
O239 C238 1.227 . S
N240 Co237 2.121 . S
N240 C242 1.375 . S
N240 C243 1.313 . S
C241 C242 1.338 . S
C241 N244 1.377 . S
C241 H261 0.930 . S
C242 N240 1.375 . S
C242 C241 1.338 . S
C242 H246 0.931 . S
C243 N240 1.313 . S
C243 N244 1.344 . S
C243 H247 0.930 . S
N244 C241 1.377 . S
N244 C243 1.344 . S
O245 Co237 2.055 . S
O245 C249 1.253 . S
H246 C242 0.931 . S
H247 C243 0.930 . S
O248 Co237 2.039 . S
O248 C238 1.265 . S
C249 O245 1.253 . S
C249 O250 1.227 . S
O250 C249 1.227 . S
N251 Co237 2.140 . S
N251 C254 1.346 . S
N251 C255 1.345 . S
C252 C253 1.387 . S
C252 C256 1.391 . S
C253 C252 1.387 . S
C253 C254 1.369 . S
C253 H262 0.929 . S
C254 N251 1.346 . S
C254 C253 1.369 . S
C254 H257 0.928 . S
C255 N251 1.345 . S
C255 C256 1.371 . S
C255 H258 0.931 . S
C256 C252 1.391 . S
C256 C255 1.371 . S
C256 H263 0.930 . S
H257 C254 0.928 . S
H258 C255 0.931 . S
H259 C235 0.930 . S
H260 C232 0.930 . S
H261 C241 0.930 . S
H262 C253 0.929 . S
H263 C256 0.930 . S
C264 C265 1.351 . S
C264 N267 1.368 . S
C264 H269 0.931 . S
C265 C264 1.351 . S
C265 N266 1.373 . S
C265 H293 0.930 . S
N266 C265 1.373 . S
N266 C268 1.340 . S
N267 C264 1.368 . S
N267 C268 1.321 . S
N267 Co270 2.135 . S
C268 N266 1.340 . S
C268 N267 1.321 . S
C268 H292 0.930 . S
H269 C264 0.931 . S
Co270 N267 2.135 . S
Co270 N273 2.121 . S
Co270 O278 2.055 . S
Co270 O281 2.039 . S
Co270 N284 2.140 . S
C271 O272 1.227 . S
C271 O281 1.265 . S
O272 C271 1.227 . S
N273 Co270 2.121 . S
N273 C275 1.375 . S
N273 C276 1.313 . S
C274 C275 1.338 . S
C274 N277 1.377 . S
C274 H294 0.930 . S
C275 N273 1.375 . S
C275 C274 1.338 . S
C275 H279 0.931 . S
C276 N273 1.313 . S
C276 N277 1.344 . S
C276 H280 0.930 . S
N277 C274 1.377 . S
N277 C276 1.344 . S
O278 Co270 2.055 . S
O278 C282 1.253 . S
H279 C275 0.931 . S
H280 C276 0.930 . S
O281 Co270 2.039 . S
O281 C271 1.265 . S
C282 O278 1.253 . S
C282 O283 1.227 . S
O283 C282 1.227 . S
N284 Co270 2.140 . S
N284 C287 1.346 . S
N284 C288 1.345 . S
C285 C286 1.387 . S
C285 C289 1.391 . S
C286 C285 1.387 . S
C286 C287 1.369 . S
C286 H295 0.929 . S
C287 N284 1.346 . S
C287 C286 1.369 . S
C287 H290 0.928 . S
C288 N284 1.345 . S
C288 C289 1.371 . S
C288 H291 0.931 . S
C289 C285 1.391 . S
C289 C288 1.371 . S
C289 H296 0.930 . S
H290 C287 0.928 . S
H291 C288 0.931 . S
H292 C268 0.930 . S
H293 C265 0.930 . S
H294 C274 0.930 . S
H295 C286 0.929 . S
H296 C289 0.930 . S
C297 C298 1.351 1_554 S
C297 N300 1.368 . S
C297 H302 0.931 . S
C298 C297 1.351 1_556 S
C298 N299 1.373 . S
C298 H326 0.930 . S
N299 C298 1.373 . S
N299 C301 1.340 . S
N300 C297 1.368 . S
N300 C301 1.321 1_554 S
N300 Co303 2.135 . S
C301 N299 1.340 . S
C301 N300 1.321 1_556 S
C301 H325 0.930 . S
H302 C297 0.931 . S
Co303 N300 2.135 . S
Co303 N306 2.121 . S
Co303 O311 2.055 . S
Co303 O314 2.039 . S
Co303 N317 2.140 . S
C304 O305 1.227 . S
C304 O314 1.265 1_556 S
O305 C304 1.227 . S
N306 Co303 2.121 . S
N306 C308 1.375 . S
N306 C309 1.313 . S
C307 C308 1.338 . S
C307 N310 1.377 . S
C307 H327 0.930 . S
C308 N306 1.375 . S
C308 C307 1.338 . S
C308 H312 0.931 . S
C309 N306 1.313 . S
C309 N310 1.344 . S
C309 H313 0.930 . S
N310 C307 1.377 . S
N310 C309 1.344 . S
O311 Co303 2.055 . S
O311 C315 1.253 . S
H312 C308 0.931 . S
H313 C309 0.930 . S
O314 Co303 2.039 . S
O314 C304 1.265 1_554 S
C315 O311 1.253 . S
C315 O316 1.227 . S
O316 C315 1.227 . S
N317 Co303 2.140 . S
N317 C320 1.346 . S
N317 C321 1.345 . S
C318 C319 1.387 . S
C318 C322 1.391 . S
C319 C318 1.387 . S
C319 C320 1.369 . S
C319 H328 0.929 1_554 S
C320 N317 1.346 . S
C320 C319 1.369 . S
C320 H323 0.928 1_554 S
C321 N317 1.345 . S
C321 C322 1.371 . S
C321 H324 0.931 . S
C322 C318 1.391 . S
C322 C321 1.371 . S
C322 H329 0.930 . S
H323 C320 0.928 1_556 S
H324 C321 0.931 . S
H325 C301 0.930 . S
H326 C298 0.930 . S
H327 C307 0.930 . S
H328 C319 0.929 1_556 S
H329 C322 0.930 . S
C330 C331 1.351 1_554 S
C330 N333 1.368 . S
C330 H335 0.931 . S
C331 C330 1.351 1_556 S
C331 N332 1.373 . S
C331 H359 0.930 . S
N332 C331 1.373 . S
N332 C334 1.340 . S
N333 C330 1.368 . S
N333 C334 1.321 1_554 S
N333 Co336 2.135 . S
C334 N332 1.340 . S
C334 N333 1.321 1_556 S
C334 H358 0.930 . S
H335 C330 0.931 . S
Co336 N333 2.135 . S
Co336 N339 2.121 . S
Co336 O344 2.055 . S
Co336 O347 2.039 . S
Co336 N350 2.140 . S
C337 O338 1.227 . S
C337 O347 1.265 1_556 S
O338 C337 1.227 . S
N339 Co336 2.121 . S
N339 C341 1.375 . S
N339 C342 1.313 . S
C340 C341 1.338 . S
C340 N343 1.377 . S
C340 H360 0.930 . S
C341 N339 1.375 . S
C341 C340 1.338 . S
C341 H345 0.931 . S
C342 N339 1.313 . S
C342 N343 1.344 . S
C342 H346 0.930 . S
N343 C340 1.377 . S
N343 C342 1.344 . S
O344 Co336 2.055 . S
O344 C348 1.253 . S
H345 C341 0.931 . S
H346 C342 0.930 . S
O347 Co336 2.039 . S
O347 C337 1.265 1_554 S
C348 O344 1.253 . S
C348 O349 1.227 . S
O349 C348 1.227 . S
N350 Co336 2.140 . S
N350 C353 1.346 . S
N350 C354 1.345 . S
C351 C352 1.387 . S
C351 C355 1.391 . S
C352 C351 1.387 . S
C352 C353 1.369 . S
C352 H361 0.929 1_554 S
C353 N350 1.346 . S
C353 C352 1.369 . S
C353 H356 0.928 1_554 S
C354 N350 1.345 . S
C354 C355 1.371 . S
C354 H357 0.931 . S
C355 C351 1.391 . S
C355 C354 1.371 . S
C355 H362 0.930 . S
H356 C353 0.928 1_556 S
H357 C354 0.931 . S
H358 C334 0.930 . S
H359 C331 0.930 . S
H360 C340 0.930 . S
H361 C352 0.929 1_556 S
H362 C355 0.930 . S
C363 C364 1.351 1_554 S
C363 N366 1.368 . S
C363 H368 0.931 . S
C364 C363 1.351 1_556 S
C364 N365 1.373 . S
C364 H392 0.930 . S
N365 C364 1.373 . S
N365 C367 1.340 . S
N366 C363 1.368 . S
N366 C367 1.321 1_554 S
N366 Co369 2.135 . S
C367 N365 1.340 . S
C367 N366 1.321 1_556 S
C367 H391 0.930 . S
H368 C363 0.931 . S
Co369 N366 2.135 . S
Co369 N372 2.121 . S
Co369 O377 2.055 . S
Co369 O380 2.039 . S
Co369 N383 2.140 . S
C370 O371 1.227 . S
C370 O380 1.265 1_556 S
O371 C370 1.227 . S
N372 Co369 2.121 . S
N372 C374 1.375 . S
N372 C375 1.313 . S
C373 C374 1.338 . S
C373 N376 1.377 . S
C373 H393 0.930 . S
C374 N372 1.375 . S
C374 C373 1.338 . S
C374 H378 0.931 . S
C375 N372 1.313 . S
C375 N376 1.344 . S
C375 H379 0.930 . S
N376 C373 1.377 . S
N376 C375 1.344 . S
O377 Co369 2.055 . S
O377 C381 1.253 . S
H378 C374 0.931 . S
H379 C375 0.930 . S
O380 Co369 2.039 . S
O380 C370 1.265 1_554 S
C381 O377 1.253 . S
C381 O382 1.227 . S
O382 C381 1.227 . S
N383 Co369 2.140 . S
N383 C386 1.346 . S
N383 C387 1.345 . S
C384 C385 1.387 . S
C384 C388 1.391 . S
C385 C384 1.387 . S
C385 C386 1.369 . S
C385 H394 0.929 1_554 S
C386 N383 1.346 . S
C386 C385 1.369 . S
C386 H389 0.928 1_554 S
C387 N383 1.345 . S
C387 C388 1.371 . S
C387 H390 0.931 . S
C388 C384 1.391 . S
C388 C387 1.371 . S
C388 H395 0.930 . S
H389 C386 0.928 1_556 S
H390 C387 0.931 . S
H391 C367 0.930 . S
H392 C364 0.930 . S
H393 C373 0.930 . S
H394 C385 0.929 1_556 S
H395 C388 0.930 . S
C396 C397 1.351 1_556 S
C396 N399 1.368 . S
C396 H401 0.931 . S
C397 C396 1.351 1_554 S
C397 N398 1.373 . S
C397 H425 0.930 . S
N398 C397 1.373 . S
N398 C400 1.340 . S
N399 C396 1.368 . S
N399 C400 1.321 1_556 S
N399 Co402 2.135 . S
C400 N398 1.340 . S
C400 N399 1.321 1_554 S
C400 H424 0.930 . S
H401 C396 0.931 . S
Co402 N399 2.135 . S
Co402 N405 2.121 . S
Co402 O410 2.055 . S
Co402 O413 2.039 . S
Co402 N416 2.140 . S
C403 O404 1.227 . S
C403 O413 1.265 1_554 S
O404 C403 1.227 . S
N405 Co402 2.121 . S
N405 C407 1.375 . S
N405 C408 1.313 . S
C406 C407 1.338 . S
C406 N409 1.377 . S
C406 H426 0.930 . S
C407 N405 1.375 . S
C407 C406 1.338 . S
C407 H411 0.931 . S
C408 N405 1.313 . S
C408 N409 1.344 . S
C408 H412 0.930 . S
N409 C406 1.377 . S
N409 C408 1.344 . S
O410 Co402 2.055 . S
O410 C414 1.253 . S
H411 C407 0.931 . S
H412 C408 0.930 . S
O413 Co402 2.039 . S
O413 C403 1.265 1_556 S
C414 O410 1.253 . S
C414 O415 1.227 . S
O415 C414 1.227 . S
N416 Co402 2.140 . S
N416 C419 1.346 . S
N416 C420 1.345 . S
C417 C418 1.387 . S
C417 C421 1.391 . S
C418 C417 1.387 . S
C418 C419 1.369 . S
C418 H427 0.929 1_556 S
C419 N416 1.346 . S
C419 C418 1.369 . S
C419 H422 0.928 1_556 S
C420 N416 1.345 . S
C420 C421 1.371 . S
C420 H423 0.931 . S
C421 C417 1.391 . S
C421 C420 1.371 . S
C421 H428 0.930 . S
H422 C419 0.928 1_554 S
H423 C420 0.931 . S
H424 C400 0.930 . S
H425 C397 0.930 . S
H426 C406 0.930 . S
H427 C418 0.929 1_554 S
H428 C421 0.930 . S
C429 C430 1.351 1_556 S
C429 N432 1.368 . S
C429 H434 0.931 . S
C430 C429 1.351 1_554 S
C430 N431 1.373 . S
C430 H458 0.930 . S
N431 C430 1.373 . S
N431 C433 1.340 . S
N432 C429 1.368 . S
N432 C433 1.321 1_556 S
N432 Co435 2.135 . S
C433 N431 1.340 . S
C433 N432 1.321 1_554 S
C433 H457 0.930 . S
H434 C429 0.931 . S
Co435 N432 2.135 . S
Co435 N438 2.121 . S
Co435 O443 2.055 . S
Co435 O446 2.039 . S
Co435 N449 2.140 . S
C436 O437 1.227 . S
C436 O446 1.265 1_554 S
O437 C436 1.227 . S
N438 Co435 2.121 . S
N438 C440 1.375 . S
N438 C441 1.313 . S
C439 C440 1.338 . S
C439 N442 1.377 . S
C439 H459 0.930 . S
C440 N438 1.375 . S
C440 C439 1.338 . S
C440 H444 0.931 . S
C441 N438 1.313 . S
C441 N442 1.344 . S
C441 H445 0.930 . S
N442 C439 1.377 . S
N442 C441 1.344 . S
O443 Co435 2.055 . S
O443 C447 1.253 . S
H444 C440 0.931 . S
H445 C441 0.930 . S
O446 Co435 2.039 . S
O446 C436 1.265 1_556 S
C447 O443 1.253 . S
C447 O448 1.227 . S
O448 C447 1.227 . S
N449 Co435 2.140 . S
N449 C452 1.346 . S
N449 C453 1.345 . S
C450 C451 1.387 . S
C450 C454 1.391 . S
C451 C450 1.387 . S
C451 C452 1.369 . S
C451 H460 0.929 1_556 S
C452 N449 1.346 . S
C452 C451 1.369 . S
C452 H455 0.928 1_556 S
C453 N449 1.345 . S
C453 C454 1.371 . S
C453 H456 0.931 . S
C454 C450 1.391 . S
C454 C453 1.371 . S
C454 H461 0.930 . S
H455 C452 0.928 1_554 S
H456 C453 0.931 . S
H457 C433 0.930 . S
H458 C430 0.930 . S
H459 C439 0.930 . S
H460 C451 0.929 1_554 S
H461 C454 0.930 . S
C462 C463 1.351 1_556 S
C462 N465 1.368 . S
C462 H467 0.931 . S
C463 C462 1.351 1_554 S
C463 N464 1.373 . S
C463 H491 0.930 . S
N464 C463 1.373 . S
N464 C466 1.340 . S
N465 C462 1.368 . S
N465 C466 1.321 1_556 S
N465 Co468 2.135 . S
C466 N464 1.340 . S
C466 N465 1.321 1_554 S
C466 H490 0.930 . S
H467 C462 0.931 . S
Co468 N465 2.135 . S
Co468 N471 2.121 . S
Co468 O476 2.055 . S
Co468 O479 2.039 . S
Co468 N482 2.140 . S
C469 O470 1.227 . S
C469 O479 1.265 1_554 S
O470 C469 1.227 . S
N471 Co468 2.121 . S
N471 C473 1.375 . S
N471 C474 1.313 . S
C472 C473 1.338 . S
C472 N475 1.377 . S
C472 H492 0.930 . S
C473 N471 1.375 . S
C473 C472 1.338 . S
C473 H477 0.931 . S
C474 N471 1.313 . S
C474 N475 1.344 . S
C474 H478 0.930 . S
N475 C472 1.377 . S
N475 C474 1.344 . S
O476 Co468 2.055 . S
O476 C480 1.253 . S
H477 C473 0.931 . S
H478 C474 0.930 . S
O479 Co468 2.039 . S
O479 C469 1.265 1_556 S
C480 O476 1.253 . S
C480 O481 1.227 . S
O481 C480 1.227 . S
N482 Co468 2.140 . S
N482 C485 1.346 . S
N482 C486 1.345 . S
C483 C484 1.387 . S
C483 C487 1.391 . S
C484 C483 1.387 . S
C484 C485 1.369 . S
C484 H493 0.929 1_556 S
C485 N482 1.346 . S
C485 C484 1.369 . S
C485 H488 0.928 1_556 S
C486 N482 1.345 . S
C486 C487 1.371 . S
C486 H489 0.931 . S
C487 C483 1.391 . S
C487 C486 1.371 . S
C487 H494 0.930 . S
H488 C485 0.928 1_554 S
H489 C486 0.931 . S
H490 C466 0.930 . S
H491 C463 0.930 . S
H492 C472 0.930 . S
H493 C484 0.929 1_554 S
H494 C487 0.930 . S
C495 C496 1.351 . S
C495 N498 1.368 . S
C495 H500 0.931 . S
C496 C495 1.351 . S
C496 N497 1.373 . S
C496 H524 0.930 . S
N497 C496 1.373 . S
N497 C499 1.340 . S
N498 C495 1.368 . S
N498 C499 1.321 . S
N498 Co501 2.135 . S
C499 N497 1.340 . S
C499 N498 1.321 . S
C499 H523 0.930 . S
H500 C495 0.931 . S
Co501 N498 2.135 . S
Co501 N504 2.121 . S
Co501 O509 2.055 . S
Co501 O512 2.039 . S
Co501 N515 2.140 . S
C502 O503 1.227 . S
C502 O512 1.265 . S
O503 C502 1.227 . S
N504 Co501 2.121 . S
N504 C506 1.375 . S
N504 C507 1.313 . S
C505 C506 1.338 . S
C505 N508 1.377 . S
C505 H525 0.930 . S
C506 N504 1.375 . S
C506 C505 1.338 . S
C506 H510 0.931 . S
C507 N504 1.313 . S
C507 N508 1.344 . S
C507 H511 0.930 . S
N508 C505 1.377 . S
N508 C507 1.344 . S
O509 Co501 2.055 . S
O509 C513 1.253 . S
H510 C506 0.931 . S
H511 C507 0.930 . S
O512 Co501 2.039 . S
O512 C502 1.265 . S
C513 O509 1.253 . S
C513 O514 1.227 . S
O514 C513 1.227 . S
N515 Co501 2.140 . S
N515 C518 1.346 . S
N515 C519 1.345 . S
C516 C517 1.387 . S
C516 C520 1.391 . S
C517 C516 1.387 . S
C517 C518 1.369 . S
C517 H526 0.929 . S
C518 N515 1.346 . S
C518 C517 1.369 . S
C518 H521 0.928 . S
C519 N515 1.345 . S
C519 C520 1.371 . S
C519 H522 0.931 . S
C520 C516 1.391 . S
C520 C519 1.371 . S
C520 H527 0.930 . S
H521 C518 0.928 . S
H522 C519 0.931 . S
H523 C499 0.930 . S
H524 C496 0.930 . S
H525 C505 0.930 . S
H526 C517 0.929 . S
H527 C520 0.930 . S
C528 C529 1.351 . S
C528 N531 1.368 . S
C528 H533 0.931 . S
C529 C528 1.351 . S
C529 N530 1.373 . S
C529 H557 0.930 . S
N530 C529 1.373 . S
N530 C532 1.340 . S
N531 C528 1.368 . S
N531 C532 1.321 . S
N531 Co534 2.135 . S
C532 N530 1.340 . S
C532 N531 1.321 . S
C532 H556 0.930 . S
H533 C528 0.931 . S
Co534 N531 2.135 . S
Co534 N537 2.121 . S
Co534 O542 2.055 . S
Co534 O545 2.039 . S
Co534 N548 2.140 . S
C535 O536 1.227 . S
C535 O545 1.265 . S
O536 C535 1.227 . S
N537 Co534 2.121 . S
N537 C539 1.375 . S
N537 C540 1.313 . S
C538 C539 1.338 . S
C538 N541 1.377 . S
C538 H558 0.930 . S
C539 N537 1.375 . S
C539 C538 1.338 . S
C539 H543 0.931 . S
C540 N537 1.313 . S
C540 N541 1.344 . S
C540 H544 0.930 . S
N541 C538 1.377 . S
N541 C540 1.344 . S
O542 Co534 2.055 . S
O542 C546 1.253 . S
H543 C539 0.931 . S
H544 C540 0.930 . S
O545 Co534 2.039 . S
O545 C535 1.265 . S
C546 O542 1.253 . S
C546 O547 1.227 . S
O547 C546 1.227 . S
N548 Co534 2.140 . S
N548 C551 1.346 . S
N548 C552 1.345 . S
C549 C550 1.387 . S
C549 C553 1.391 . S
C550 C549 1.387 . S
C550 C551 1.369 . S
C550 H559 0.929 . S
C551 N548 1.346 . S
C551 C550 1.369 . S
C551 H554 0.928 . S
C552 N548 1.345 . S
C552 C553 1.371 . S
C552 H555 0.931 . S
C553 C549 1.391 . S
C553 C552 1.371 . S
C553 H560 0.930 . S
H554 C551 0.928 . S
H555 C552 0.931 . S
H556 C532 0.930 . S
H557 C529 0.930 . S
H558 C538 0.930 . S
H559 C550 0.929 . S
H560 C553 0.930 . S
C561 C562 1.351 . S
C561 N564 1.368 . S
C561 H566 0.931 . S
C562 C561 1.351 . S
C562 N563 1.373 . S
C562 H590 0.930 . S
N563 C562 1.373 . S
N563 C565 1.340 . S
N564 C561 1.368 . S
N564 C565 1.321 . S
N564 Co567 2.135 . S
C565 N563 1.340 . S
C565 N564 1.321 . S
C565 H589 0.930 . S
H566 C561 0.931 . S
Co567 N564 2.135 . S
Co567 N570 2.121 . S
Co567 O575 2.055 . S
Co567 O578 2.039 . S
Co567 N581 2.140 . S
C568 O569 1.227 . S
C568 O578 1.265 . S
O569 C568 1.227 . S
N570 Co567 2.121 . S
N570 C572 1.375 . S
N570 C573 1.313 . S
C571 C572 1.338 . S
C571 N574 1.377 . S
C571 H591 0.930 . S
C572 N570 1.375 . S
C572 C571 1.338 . S
C572 H576 0.931 . S
C573 N570 1.313 . S
C573 N574 1.344 . S
C573 H577 0.930 . S
N574 C571 1.377 . S
N574 C573 1.344 . S
O575 Co567 2.055 . S
O575 C579 1.253 . S
H576 C572 0.931 . S
H577 C573 0.930 . S
O578 Co567 2.039 . S
O578 C568 1.265 . S
C579 O575 1.253 . S
C579 O580 1.227 . S
O580 C579 1.227 . S
N581 Co567 2.140 . S
N581 C584 1.346 . S
N581 C585 1.345 . S
C582 C583 1.387 . S
C582 C586 1.391 . S
C583 C582 1.387 . S
C583 C584 1.369 . S
C583 H592 0.929 . S
C584 N581 1.346 . S
C584 C583 1.369 . S
C584 H587 0.928 . S
C585 N581 1.345 . S
C585 C586 1.371 . S
C585 H588 0.931 . S
C586 C582 1.391 . S
C586 C585 1.371 . S
C586 H593 0.930 . S
H587 C584 0.928 . S
H588 C585 0.931 . S
H589 C565 0.930 . S
H590 C562 0.930 . S
H591 C571 0.930 . S
H592 C583 0.929 . S
H593 C586 0.930 . S
H594 C600 0.930 . S
H595 C603 0.930 . S
H596 C604 0.930 . S
H597 C605 0.930 . S
H598 C608 0.930 . S
H599 C609 0.930 . S
C600 H594 0.930 . S
C600 C601 1.355 . S
C600 C602 1.415 1_556 S
C601 C600 1.355 . S
C601 C603 1.419 . S
C602 C600 1.415 1_554 S
C602 C607 1.425 1_554 S
C602 C609 1.409 . S
C603 H595 0.930 . S
C603 C601 1.419 . S
C603 C604 1.362 . S
C604 H596 0.930 . S
C604 C603 1.362 . S
C604 C607 1.409 . S
C605 H597 0.930 . S
C605 C606 1.355 . S
C605 C607 1.415 1_554 S
C606 C605 1.355 . S
C606 C608 1.419 . S
C607 C602 1.425 1_556 S
C607 C604 1.409 . S
C607 C605 1.415 1_556 S
C608 H598 0.930 . S
C608 C606 1.419 . S
C608 C609 1.362 . S
C609 H599 0.930 . S
C609 C602 1.409 . S
C609 C608 1.362 . S
H610 C616 0.930 . S
H611 C619 0.930 . S
H612 C620 0.930 1_554 S
H613 C621 0.930 . S
H614 C624 0.930 . S
H615 C625 0.930 1_556 S
C616 H610 0.930 . S
C616 C617 1.355 . S
C616 C618 1.415 . S
C617 C616 1.355 . S
C617 C619 1.419 . S
C618 C616 1.415 . S
C618 C623 1.425 1_546 S
C618 C625 1.409 1_546 S
C619 H611 0.930 . S
C619 C617 1.419 . S
C619 C620 1.362 . S
C620 H612 0.930 1_556 S
C620 C619 1.362 . S
C620 C623 1.409 1_546 S
C621 H613 0.930 . S
C621 C622 1.355 . S
C621 C623 1.415 . S
C622 C621 1.355 . S
C622 C624 1.419 . S
C623 C618 1.425 1_564 S
C623 C620 1.409 1_564 S
C623 C621 1.415 . S
C624 H614 0.930 . S
C624 C622 1.419 . S
C624 C625 1.362 . S
C625 H615 0.930 1_554 S
C625 C618 1.409 1_564 S
C625 C624 1.362 . S
H626 C632 0.930 1_556 S
H627 C635 0.930 . S
H628 C636 0.930 . S
H629 C637 0.930 1_554 S
H630 C640 0.930 . S
H631 C641 0.930 . S
C632 H626 0.930 1_554 S
C632 C633 1.355 . S
C632 C634 1.415 1_554 S
C633 C632 1.355 . S
C633 C635 1.419 . S
C634 C632 1.415 1_556 S
C634 C639 1.425 1_456 S
C634 C641 1.409 . S
C635 H627 0.930 . S
C635 C633 1.419 . S
C635 C636 1.362 1_455 S
C636 H628 0.930 . S
C636 C635 1.362 1_655 S
C636 C639 1.409 . S
C637 H629 0.930 1_556 S
C637 C638 1.355 . S
C637 C639 1.415 1_556 S
C638 C637 1.355 . S
C638 C640 1.419 . S
C639 C634 1.425 1_654 S
C639 C636 1.409 . S
C639 C637 1.415 1_554 S
C640 H630 0.930 . S
C640 C638 1.419 . S
C640 C641 1.362 1_655 S
C641 H631 0.930 . S
C641 C634 1.409 . S
C641 C640 1.362 1_455 S
H642 C648 0.930 . S
H643 C651 0.930 . S
H644 C652 0.930 . S
H645 C653 0.930 . S
H646 C656 0.930 . S
H647 C657 0.930 . S
C648 H642 0.930 . S
C648 C649 1.355 . S
C648 C650 1.415 . S
C649 C648 1.355 . S
C649 C651 1.419 . S
C650 C648 1.415 . S
C650 C655 1.425 1_554 S
C650 C657 1.409 . S
C651 H643 0.930 . S
C651 C649 1.419 . S
C651 C652 1.362 1_554 S
C652 H644 0.930 . S
C652 C651 1.362 1_556 S
C652 C655 1.409 . S
C653 H645 0.930 . S
C653 C654 1.355 . S
C653 C655 1.415 . S
C654 C653 1.355 . S
C654 C656 1.419 . S
C655 C650 1.425 1_556 S
C655 C652 1.409 . S
C655 C653 1.415 . S
C656 H646 0.930 . S
C656 C654 1.419 . S
C656 C657 1.362 1_556 S
C657 H647 0.930 . S
C657 C650 1.409 . S
C657 C656 1.362 1_554 S
H658 C664 0.930 . S
H659 C667 0.930 . S
H660 C668 0.930 1_554 S
H661 C669 0.930 . S
H662 C672 0.930 . S
H663 C673 0.930 1_556 S
C664 H658 0.930 . S
C664 C665 1.355 . S
C664 C666 1.400 1_545 S
C665 C664 1.355 . S
C665 C667 1.419 . S
C666 C664 1.400 1_565 S
C666 C671 1.393 1_566 S
C666 C673 1.440 1_556 S
C667 H659 0.930 . S
C667 C665 1.419 . S
C667 C668 1.362 . S
C668 H660 0.930 1_556 S
C668 C667 1.362 . S
C668 C671 1.441 1_556 S
C669 H661 0.930 . S
C669 C670 1.355 . S
C669 C671 1.400 1_565 S
C670 C669 1.355 . S
C670 C672 1.419 . S
C671 C666 1.393 1_544 S
C671 C668 1.441 1_554 S
C671 C669 1.400 1_545 S
C672 H662 0.930 . S
C672 C670 1.419 . S
C672 C673 1.362 . S
C673 H663 0.930 1_554 S
C673 C666 1.440 1_554 S
C673 C672 1.362 . S
H674 C680 0.930 . S
H675 C683 0.930 . S
H676 C684 0.930 . S
H677 C685 0.930 . S
H678 C688 0.930 . S
H679 C689 0.930 . S
C680 H674 0.930 . S
C680 C681 1.355 . S
C680 C682 1.415 1_655 S
C681 C680 1.355 . S
C681 C683 1.419 . S
C682 C680 1.415 1_455 S
C682 C687 1.425 1_456 S
C682 C689 1.409 . S
C683 H675 0.930 . S
C683 C681 1.419 . S
C683 C684 1.362 1_556 S
C684 H676 0.930 . S
C684 C683 1.362 1_554 S
C684 C687 1.409 . S
C685 H677 0.930 . S
C685 C686 1.355 . S
C685 C687 1.415 1_455 S
C686 C685 1.355 . S
C686 C688 1.419 . S
C687 C682 1.425 1_654 S
C687 C684 1.409 . S
C687 C685 1.415 1_655 S
C688 H678 0.930 . S
C688 C686 1.419 . S
C688 C689 1.362 1_554 S
C689 H679 0.930 . S
C689 C682 1.409 . S
C689 C688 1.362 1_556 S
H690 C696 0.930 . S
H691 C699 0.930 . S
H692 C700 0.930 . S
H693 C701 0.930 . S
H694 C704 0.930 . S
H695 C705 0.930 . S
C696 H690 0.930 . S
C696 C697 1.355 . S
C696 C698 1.415 . S
C697 C696 1.355 . S
C697 C699 1.419 . S
C698 C696 1.415 . S
C698 C703 1.425 . S
C698 C705 1.409 . S
C699 H691 0.930 . S
C699 C697 1.419 . S
C699 C700 1.362 . S
C700 H692 0.930 . S
C700 C699 1.362 . S
C700 C703 1.409 . S
C701 H693 0.930 . S
C701 C702 1.355 . S
C701 C703 1.415 . S
C702 C701 1.355 . S
C702 C704 1.419 . S
C703 C698 1.425 . S
C703 C700 1.409 . S
C703 C701 1.415 . S
C704 H694 0.930 . S
C704 C702 1.419 . S
C704 C705 1.362 . S
C705 H695 0.930 . S
C705 C698 1.409 . S
C705 C704 1.362 . S
H706 C712 0.930 . S
H707 C715 0.930 . S
H708 C716 0.930 . S
H709 C717 0.930 . S
H710 C720 0.930 . S
H711 C721 0.930 . S
C712 H706 0.930 . S
C712 C713 1.355 . S
C712 C714 1.415 . S
C713 C712 1.355 . S
C713 C715 1.419 . S
C714 C712 1.415 . S
C714 C719 1.425 . S
C714 C721 1.409 . S
C715 H707 0.930 . S
C715 C713 1.419 . S
C715 C716 1.362 . S
C716 H708 0.930 . S
C716 C715 1.362 . S
C716 C719 1.409 . S
C717 H709 0.930 . S
C717 C718 1.355 . S
C717 C719 1.415 . S
C718 C717 1.355 . S
C718 C720 1.419 . S
C719 C714 1.425 . S
C719 C716 1.409 . S
C719 C717 1.415 . S
C720 H710 0.930 . S
C720 C718 1.419 . S
C720 C721 1.362 . S
C721 H711 0.930 . S
C721 C714 1.409 . S
C721 C720 1.362 . S
H722 C728 0.930 . S
H723 C731 0.930 . S
H724 C732 0.930 . S
H725 C733 0.930 . S
H726 C736 0.930 . S
H727 C737 0.930 . S
C728 H722 0.930 . S
C728 C729 1.355 . S
C728 C730 1.415 . S
C729 C728 1.355 . S
C729 C731 1.419 . S
C730 C728 1.415 . S
C730 C735 1.425 . S
C730 C737 1.409 . S
C731 H723 0.930 . S
C731 C729 1.419 . S
C731 C732 1.362 . S
C732 H724 0.930 . S
C732 C731 1.362 . S
C732 C735 1.409 . S
C733 H725 0.930 . S
C733 C734 1.355 . S
C733 C735 1.415 . S
C734 C733 1.355 . S
C734 C736 1.419 . S
C735 C730 1.425 . S
C735 C732 1.409 . S
C735 C733 1.415 . S
C736 H726 0.930 . S
C736 C734 1.419 . S
C736 C737 1.362 . S
C737 H727 0.930 . S
C737 C730 1.409 . S
C737 C736 1.362 . S
H738 C744 0.930 . S
H739 C747 0.930 . S
H740 C748 0.930 . S
H741 C749 0.930 . S
H742 C752 0.930 . S
H743 C753 0.930 . S
C744 H738 0.930 . S
C744 C745 1.355 . S
C744 C746 1.415 . S
C745 C744 1.355 . S
C745 C747 1.419 . S
C746 C744 1.415 . S
C746 C751 1.425 . S
C746 C753 1.409 . S
C747 H739 0.930 . S
C747 C745 1.419 . S
C747 C748 1.362 . S
C748 H740 0.930 . S
C748 C747 1.362 . S
C748 C751 1.409 . S
C749 H741 0.930 . S
C749 C750 1.355 . S
C749 C751 1.415 . S
C750 C749 1.355 . S
C750 C752 1.419 . S
C751 C746 1.425 . S
C751 C748 1.409 . S
C751 C749 1.415 . S
C752 H742 0.930 . S
C752 C750 1.419 . S
C752 C753 1.362 . S
C753 H743 0.930 . S
C753 C746 1.409 . S
C753 C752 1.362 . S
H754 C760 0.930 . S
H755 C763 0.930 . S
H756 C764 0.930 . S
H757 C765 0.930 . S
H758 C768 0.930 . S
H759 C769 0.930 . S
C760 H754 0.930 . S
C760 C761 1.355 . S
C760 C762 1.415 . S
C761 C760 1.355 . S
C761 C763 1.419 . S
C762 C760 1.415 . S
C762 C767 1.425 . S
C762 C769 1.409 . S
C763 H755 0.930 . S
C763 C761 1.419 . S
C763 C764 1.362 . S
C764 H756 0.930 . S
C764 C763 1.362 . S
C764 C767 1.409 . S
C765 H757 0.930 . S
C765 C766 1.355 . S
C765 C767 1.415 . S
C766 C765 1.355 . S
C766 C768 1.419 . S
C767 C762 1.425 . S
C767 C764 1.409 . S
C767 C765 1.415 . S
C768 H758 0.930 . S
C768 C766 1.419 . S
C768 C769 1.362 . S
C769 H759 0.930 . S
C769 C762 1.409 . S
C769 C768 1.362 . S
H770 C776 0.930 . S
H771 C779 0.930 . S
H772 C780 0.930 . S
H773 C781 0.930 . S
H774 C784 0.930 . S
H775 C785 0.930 . S
C776 H770 0.930 . S
C776 C777 1.355 . S
C776 C778 1.415 . S
C777 C776 1.355 . S
C777 C779 1.419 . S
C778 C776 1.415 . S
C778 C783 1.425 . S
C778 C785 1.409 . S
C779 H771 0.930 . S
C779 C777 1.419 . S
C779 C780 1.362 . S
C780 H772 0.930 . S
C780 C779 1.362 . S
C780 C783 1.409 . S
C781 H773 0.930 . S
C781 C782 1.355 . S
C781 C783 1.415 . S
C782 C781 1.355 . S
C782 C784 1.419 . S
C783 C778 1.425 . S
C783 C780 1.409 . S
C783 C781 1.415 . S
C784 H774 0.930 . S
C784 C782 1.419 . S
C784 C785 1.362 . S
C785 H775 0.930 . S
C785 C778 1.409 . S
C785 C784 1.362 . S
H786 C792 0.930 . S
H787 C795 0.930 . S
H788 C796 0.930 . S
H789 C797 0.930 . S
H790 C800 0.930 . S
H791 C801 0.930 . S
C792 H786 0.930 . S
C792 C793 1.355 . S
C792 C794 1.415 . S
C793 C792 1.355 . S
C793 C795 1.419 . S
C794 C792 1.415 . S
C794 C799 1.425 . S
C794 C801 1.409 . S
C795 H787 0.930 . S
C795 C793 1.419 . S
C795 C796 1.362 . S
C796 H788 0.930 . S
C796 C795 1.362 . S
C796 C799 1.409 . S
C797 H789 0.930 . S
C797 C798 1.355 . S
C797 C799 1.415 . S
C798 C797 1.355 . S
C798 C800 1.419 . S
C799 C794 1.425 . S
C799 C796 1.409 . S
C799 C797 1.415 . S
C800 H790 0.930 . S
C800 C798 1.419 . S
C800 C801 1.362 . S
C801 H791 0.930 . S
C801 C794 1.409 . S
C801 C800 1.362 . S
H802 C808 0.930 . S
H803 C811 0.930 . S
H804 C812 0.930 . S
H805 C813 0.930 . S
H806 C816 0.930 . S
H807 C817 0.930 . S
C808 H802 0.930 . S
C808 C809 1.355 . S
C808 C810 1.415 . S
C809 C808 1.355 . S
C809 C811 1.419 . S
C810 C808 1.415 . S
C810 C815 1.425 . S
C810 C817 1.409 . S
C811 H803 0.930 . S
C811 C809 1.419 . S
C811 C812 1.362 . S
C812 H804 0.930 . S
C812 C811 1.362 . S
C812 C815 1.409 . S
C813 H805 0.930 . S
C813 C814 1.355 . S
C813 C815 1.415 . S
C814 C813 1.355 . S
C814 C816 1.419 . S
C815 C810 1.425 . S
C815 C812 1.409 . S
C815 C813 1.415 . S
C816 H806 0.930 . S
C816 C814 1.419 . S
C816 C817 1.362 . S
C817 H807 0.930 . S
C817 C810 1.409 . S
C817 C816 1.362 . S
H818 C824 0.930 . S
H819 C827 0.930 . S
H820 C828 0.930 . S
H821 C829 0.930 . S
H822 C832 0.930 . S
H823 C833 0.930 . S
C824 H818 0.930 . S
C824 C825 1.355 . S
C824 C826 1.415 . S
C825 C824 1.355 . S
C825 C827 1.419 . S
C826 C824 1.415 . S
C826 C831 1.425 . S
C826 C833 1.409 . S
C827 H819 0.930 . S
C827 C825 1.419 . S
C827 C828 1.362 . S
C828 H820 0.930 . S
C828 C827 1.362 . S
C828 C831 1.409 . S
C829 H821 0.930 . S
C829 C830 1.355 . S
C829 C831 1.415 . S
C830 C829 1.355 . S
C830 C832 1.419 . S
C831 C826 1.425 . S
C831 C828 1.409 . S
C831 C829 1.415 . S
C832 H822 0.930 . S
C832 C830 1.419 . S
C832 C833 1.362 . S
C833 H823 0.930 . S
C833 C826 1.409 . S
C833 C832 1.362 . S
H834 C840 0.930 . S
H835 C843 0.930 . S
H836 C844 0.930 . S
H837 C845 0.930 . S
H838 C848 0.930 . S
H839 C849 0.930 . S
C840 H834 0.930 . S
C840 C841 1.355 . S
C840 C842 1.415 . S
C841 C840 1.355 . S
C841 C843 1.419 . S
C842 C840 1.415 . S
C842 C847 1.425 . S
C842 C849 1.409 . S
C843 H835 0.930 . S
C843 C841 1.419 . S
C843 C844 1.362 . S
C844 H836 0.930 . S
C844 C843 1.362 . S
C844 C847 1.409 . S
C845 H837 0.930 . S
C845 C846 1.355 . S
C845 C847 1.415 . S
C846 C845 1.355 . S
C846 C848 1.419 . S
C847 C842 1.425 . S
C847 C844 1.409 . S
C847 C845 1.415 . S
C848 H838 0.930 . S
C848 C846 1.419 . S
C848 C849 1.362 . S
C849 H839 0.930 . S
C849 C842 1.409 . S
C849 C848 1.362 . S
H850 C856 0.930 . S
H851 C859 0.930 . S
H852 C860 0.930 . S
H853 C861 0.930 . S
H854 C864 0.930 . S
H855 C865 0.930 . S
C856 H850 0.930 . S
C856 C857 1.355 . S
C856 C858 1.415 . S
C857 C856 1.355 . S
C857 C859 1.419 . S
C858 C856 1.415 . S
C858 C863 1.425 . S
C858 C865 1.409 . S
C859 H851 0.930 . S
C859 C857 1.419 . S
C859 C860 1.362 . S
C860 H852 0.930 . S
C860 C859 1.362 . S
C860 C863 1.409 . S
C861 H853 0.930 . S
C861 C862 1.355 . S
C861 C863 1.415 . S
C862 C861 1.355 . S
C862 C864 1.419 . S
C863 C858 1.425 . S
C863 C860 1.409 . S
C863 C861 1.415 . S
C864 H854 0.930 . S
C864 C862 1.419 . S
C864 C865 1.362 . S
C865 H855 0.930 . S
C865 C858 1.409 . S
C865 C864 1.362 . S
H866 C872 0.930 . S
H867 C875 0.930 . S
H868 C876 0.930 . S
H869 C877 0.930 . S
H870 C880 0.930 . S
H871 C881 0.930 . S
C872 H866 0.930 . S
C872 C873 1.355 . S
C872 C874 1.415 . S
C873 C872 1.355 . S
C873 C875 1.419 . S
C874 C872 1.415 . S
C874 C879 1.425 . S
C874 C881 1.409 . S
C875 H867 0.930 . S
C875 C873 1.419 . S
C875 C876 1.362 . S
C876 H868 0.930 . S
C876 C875 1.362 . S
C876 C879 1.409 . S
C877 H869 0.930 . S
C877 C878 1.355 . S
C877 C879 1.415 . S
C878 C877 1.355 . S
C878 C880 1.419 . S
C879 C874 1.425 . S
C879 C876 1.409 . S
C879 C877 1.415 . S
C880 H870 0.930 . S
C880 C878 1.419 . S
C880 C881 1.362 . S
C881 H871 0.930 . S
C881 C874 1.409 . S
C881 C880 1.362 . S
H882 C888 0.930 . S
H883 C891 0.930 . S
H884 C892 0.930 . S
H885 C893 0.930 . S
H886 C896 0.930 . S
H887 C897 0.930 . S
C888 H882 0.930 . S
C888 C889 1.355 . S
C888 C890 1.415 . S
C889 C888 1.355 . S
C889 C891 1.419 . S
C890 C888 1.415 . S
C890 C895 1.425 . S
C890 C897 1.409 . S
C891 H883 0.930 . S
C891 C889 1.419 . S
C891 C892 1.362 . S
C892 H884 0.930 . S
C892 C891 1.362 . S
C892 C895 1.409 . S
C893 H885 0.930 . S
C893 C894 1.355 . S
C893 C895 1.415 . S
C894 C893 1.355 . S
C894 C896 1.419 . S
C895 C890 1.425 . S
C895 C892 1.409 . S
C895 C893 1.415 . S
C896 H886 0.930 . S
C896 C894 1.419 . S
C896 C897 1.362 . S
C897 H887 0.930 . S
C897 C890 1.409 . S
C897 C896 1.362 . S
H898 C904 0.930 . S
H899 C907 0.930 . S
H900 C908 0.930 . S
H901 C909 0.930 . S
H902 C912 0.930 . S
H903 C913 0.930 . S
C904 H898 0.930 . S
C904 C905 1.355 . S
C904 C906 1.415 . S
C905 C904 1.355 . S
C905 C907 1.419 . S
C906 C904 1.415 . S
C906 C911 1.425 . S
C906 C913 1.409 . S
C907 H899 0.930 . S
C907 C905 1.419 . S
C907 C908 1.362 . S
C908 H900 0.930 . S
C908 C907 1.362 . S
C908 C911 1.409 . S
C909 H901 0.930 . S
C909 C910 1.355 . S
C909 C911 1.415 . S
C910 C909 1.355 . S
C910 C912 1.419 . S
C911 C906 1.425 . S
C911 C908 1.409 . S
C911 C909 1.415 . S
C912 H902 0.930 . S
C912 C910 1.419 . S
C912 C913 1.362 . S
C913 H903 0.930 . S
C913 C906 1.409 . S
C913 C912 1.362 . S
H914 C920 0.930 . S
H915 C923 0.930 . S
H916 C924 0.930 . S
H917 C925 0.930 . S
H918 C928 0.930 . S
H919 C929 0.930 . S
C920 H914 0.930 . S
C920 C921 1.355 . S
C920 C922 1.415 . S
C921 C920 1.355 . S
C921 C923 1.419 . S
C922 C920 1.415 . S
C922 C927 1.425 . S
C922 C929 1.409 . S
C923 H915 0.930 . S
C923 C921 1.419 . S
C923 C924 1.362 . S
C924 H916 0.930 . S
C924 C923 1.362 . S
C924 C927 1.409 . S
C925 H917 0.930 . S
C925 C926 1.355 . S
C925 C927 1.415 . S
C926 C925 1.355 . S
C926 C928 1.419 . S
C927 C922 1.425 . S
C927 C924 1.409 . S
C927 C925 1.415 . S
C928 H918 0.930 . S
C928 C926 1.419 . S
C928 C929 1.362 . S
C929 H919 0.930 . S
C929 C922 1.409 . S
C929 C928 1.362 . S
H930 C936 0.930 . S
H931 C939 0.930 . S
H932 C940 0.930 . S
H933 C941 0.930 . S
H934 C944 0.930 . S
H935 C945 0.930 . S
C936 H930 0.930 . S
C936 C937 1.355 . S
C936 C938 1.415 . S
C937 C936 1.355 . S
C937 C939 1.419 . S
C938 C936 1.415 . S
C938 C943 1.425 . S
C938 C945 1.409 . S
C939 H931 0.930 . S
C939 C937 1.419 . S
C939 C940 1.362 . S
C940 H932 0.930 . S
C940 C939 1.362 . S
C940 C943 1.409 . S
C941 H933 0.930 . S
C941 C942 1.355 . S
C941 C943 1.415 . S
C942 C941 1.355 . S
C942 C944 1.419 . S
C943 C938 1.425 . S
C943 C940 1.409 . S
C943 C941 1.415 . S
C944 H934 0.930 . S
C944 C942 1.419 . S
C944 C945 1.362 . S
C945 H935 0.930 . S
C945 C938 1.409 . S
C945 C944 1.362 . S
H946 C952 0.930 . S
H947 C955 0.930 . S
H948 C956 0.930 . S
H949 C957 0.930 . S
H950 C960 0.930 . S
H951 C961 0.930 . S
C952 H946 0.930 . S
C952 C953 1.355 . S
C952 C954 1.415 . S
C953 C952 1.355 . S
C953 C955 1.419 . S
C954 C952 1.415 . S
C954 C959 1.425 . S
C954 C961 1.409 . S
C955 H947 0.930 . S
C955 C953 1.419 . S
C955 C956 1.362 . S
C956 H948 0.930 . S
C956 C955 1.362 . S
C956 C959 1.409 . S
C957 H949 0.930 . S
C957 C958 1.355 . S
C957 C959 1.415 . S
C958 C957 1.355 . S
C958 C960 1.419 . S
C959 C954 1.425 . S
C959 C956 1.409 . S
C959 C957 1.415 . S
C960 H950 0.930 . S
C960 C958 1.419 . S
C960 C961 1.362 . S
C961 H951 0.930 . S
C961 C954 1.409 . S
C961 C960 1.362 . S
H962 C968 0.930 . S
H963 C971 0.930 . S
H964 C972 0.930 . S
H965 C973 0.930 . S
H966 C976 0.930 . S
H967 C977 0.930 . S
C968 H962 0.930 . S
C968 C969 1.355 . S
C968 C970 1.415 . S
C969 C968 1.355 . S
C969 C971 1.419 . S
C970 C968 1.415 . S
C970 C975 1.425 . S
C970 C977 1.409 . S
C971 H963 0.930 . S
C971 C969 1.419 . S
C971 C972 1.362 . S
C972 H964 0.930 . S
C972 C971 1.362 . S
C972 C975 1.409 . S
C973 H965 0.930 . S
C973 C974 1.355 . S
C973 C975 1.415 . S
C974 C973 1.355 . S
C974 C976 1.419 . S
C975 C970 1.425 . S
C975 C972 1.409 . S
C975 C973 1.415 . S
C976 H966 0.930 . S
C976 C974 1.419 . S
C976 C977 1.362 . S
C977 H967 0.930 . S
C977 C970 1.409 . S
C977 C976 1.362 . S
H978 C984 0.930 . S
H979 C987 0.930 . S
H980 C988 0.930 . S
H981 C989 0.930 . S
H982 C992 0.930 . S
H983 C993 0.930 . S
C984 H978 0.930 . S
C984 C985 1.355 . S
C984 C986 1.415 1_556 S
C985 C984 1.355 . S
C985 C987 1.419 . S
C986 C984 1.415 1_554 S
C986 C991 1.425 1_454 S
C986 C993 1.409 1_455 S
C987 H979 0.930 . S
C987 C985 1.419 . S
C987 C988 1.362 . S
C988 H980 0.930 . S
C988 C987 1.362 . S
C988 C991 1.409 1_455 S
C989 H981 0.930 . S
C989 C990 1.355 . S
C989 C991 1.415 1_554 S
C990 C989 1.355 . S
C990 C992 1.419 . S
C991 C986 1.425 1_656 S
C991 C988 1.409 1_655 S
C991 C989 1.415 1_556 S
C992 H982 0.930 . S
C992 C990 1.419 . S
C992 C993 1.362 . S
C993 H983 0.930 . S
C993 C986 1.409 1_655 S
C993 C992 1.362 . S
H994 C1000 0.930 . S
H995 C1003 0.930 . S
H996 C1004 0.930 . S
H997 C1005 0.930 . S
H998 C1008 0.930 . S
H999 C1009 0.930 . S
C1000 H994 0.930 . S
C1000 C1001 1.355 . S
C1000 C1002 1.415 . S
C1001 C1000 1.355 . S
C1001 C1003 1.419 1_556 S
C1002 C1000 1.415 . S
C1002 C1007 1.425 1_556 S
C1002 C1009 1.409 . S
C1003 H995 0.930 . S
C1003 C1001 1.419 1_554 S
C1003 C1004 1.362 . S
C1004 H996 0.930 . S
C1004 C1003 1.362 . S
C1004 C1007 1.409 . S
C1005 H997 0.930 . S
C1005 C1006 1.355 . S
C1005 C1007 1.415 . S
C1006 C1005 1.355 . S
C1006 C1008 1.419 1_554 S
C1007 C1002 1.425 1_554 S
C1007 C1004 1.409 . S
C1007 C1005 1.415 . S
C1008 H998 0.930 . S
C1008 C1006 1.419 1_556 S
C1008 C1009 1.362 . S
C1009 H999 0.930 . S
C1009 C1002 1.409 . S
C1009 C1008 1.362 . S
H1010 C1016 0.930 . S
H1011 C1019 0.930 . S
H1012 C1020 0.930 . S
H1013 C1021 0.930 . S
H1014 C1024 0.930 . S
H1015 C1025 0.930 . S
C1016 H1010 0.930 . S
C1016 C1017 1.355 . S
C1016 C1018 1.419 1_545 S
C1017 C1016 1.355 . S
C1017 C1019 1.419 1_554 S
C1018 C1016 1.419 1_565 S
C1018 C1023 1.426 1_564 S
C1018 C1025 1.404 . S
C1019 H1011 0.930 . S
C1019 C1017 1.419 1_556 S
C1019 C1020 1.362 . S
C1020 H1012 0.930 . S
C1020 C1019 1.362 . S
C1020 C1023 1.404 . S
C1021 H1013 0.930 . S
C1021 C1022 1.355 . S
C1021 C1023 1.419 1_565 S
C1022 C1021 1.355 . S
C1022 C1024 1.419 1_556 S
C1023 C1018 1.426 1_546 S
C1023 C1020 1.404 . S
C1023 C1021 1.419 1_545 S
C1024 H1014 0.930 . S
C1024 C1022 1.419 1_554 S
C1024 C1025 1.362 . S
C1025 H1015 0.930 . S
C1025 C1018 1.404 . S
C1025 C1024 1.362 . S
H1026 C1032 0.930 . S
H1027 C1035 0.930 . S
H1028 C1036 0.930 . S
H1029 C1037 0.930 . S
H1030 C1040 0.930 . S
H1031 C1041 0.930 . S
C1032 H1026 0.930 . S
C1032 C1033 1.355 . S
C1032 C1034 1.415 . S
C1033 C1032 1.355 . S
C1033 C1035 1.419 . S
C1034 C1032 1.415 . S
C1034 C1039 1.425 . S
C1034 C1041 1.409 . S
C1035 H1027 0.930 . S
C1035 C1033 1.419 . S
C1035 C1036 1.362 . S
C1036 H1028 0.930 . S
C1036 C1035 1.362 . S
C1036 C1039 1.409 . S
C1037 H1029 0.930 . S
C1037 C1038 1.355 . S
C1037 C1039 1.415 . S
C1038 C1037 1.355 . S
C1038 C1040 1.419 . S
C1039 C1034 1.425 . S
C1039 C1036 1.409 . S
C1039 C1037 1.415 . S
C1040 H1030 0.930 . S
C1040 C1038 1.419 . S
C1040 C1041 1.362 . S
C1041 H1031 0.930 . S
C1041 C1034 1.409 . S
C1041 C1040 1.362 . S
H1042 C1048 0.930 . S
H1043 C1051 0.930 . S
H1044 C1052 0.930 . S
H1045 C1053 0.930 . S
H1046 C1056 0.930 . S
H1047 C1057 0.930 . S
C1048 H1042 0.930 . S
C1048 C1049 1.355 . S
C1048 C1050 1.415 . S
C1049 C1048 1.355 . S
C1049 C1051 1.419 . S
C1050 C1048 1.415 . S
C1050 C1055 1.425 1_545 S
C1050 C1057 1.409 . S
C1051 H1043 0.930 . S
C1051 C1049 1.419 . S
C1051 C1052 1.362 1_545 S
C1052 H1044 0.930 . S
C1052 C1051 1.362 1_565 S
C1052 C1055 1.409 . S
C1053 H1045 0.930 . S
C1053 C1054 1.355 . S
C1053 C1055 1.415 . S
C1054 C1053 1.355 . S
C1054 C1056 1.419 . S
C1055 C1050 1.425 1_565 S
C1055 C1052 1.409 . S
C1055 C1053 1.415 . S
C1056 H1046 0.930 . S
C1056 C1054 1.419 . S
C1056 C1057 1.362 1_565 S
C1057 H1047 0.930 . S
C1057 C1050 1.409 . S
C1057 C1056 1.362 1_545 S
H1058 C1064 0.930 1_655 S
H1059 C1067 0.930 . S
H1060 C1068 0.930 . S
H1061 C1069 0.930 1_455 S
H1062 C1072 0.930 . S
H1063 C1073 0.930 . S
C1064 H1058 0.930 1_455 S
C1064 C1065 1.355 . S
C1064 C1066 1.415 1_455 S
C1065 C1064 1.355 . S
C1065 C1067 1.419 . S
C1066 C1064 1.415 1_655 S
C1066 C1071 1.425 1_655 S
C1066 C1073 1.409 . S
C1067 H1059 0.930 . S
C1067 C1065 1.419 . S
C1067 C1068 1.362 . S
C1068 H1060 0.930 . S
C1068 C1067 1.362 . S
C1068 C1071 1.409 . S
C1069 H1061 0.930 1_655 S
C1069 C1070 1.355 . S
C1069 C1071 1.415 1_655 S
C1070 C1069 1.355 . S
C1070 C1072 1.419 . S
C1071 C1066 1.425 1_455 S
C1071 C1068 1.409 . S
C1071 C1069 1.415 1_455 S
C1072 H1062 0.930 . S
C1072 C1070 1.419 . S
C1072 C1073 1.362 . S
C1073 H1063 0.930 . S
C1073 C1066 1.409 . S
C1073 C1072 1.362 . S
H1074 C1080 0.930 . S
H1075 C1083 0.930 . S
H1076 C1084 0.930 . S
H1077 C1085 0.930 . S
H1078 C1088 0.930 . S
H1079 C1089 0.930 . S
C1080 H1074 0.930 . S
C1080 C1081 1.355 . S
C1080 C1082 1.415 . S
C1081 C1080 1.355 . S
C1081 C1083 1.419 . S
C1082 C1080 1.415 . S
C1082 C1087 1.425 . S
C1082 C1089 1.409 . S
C1083 H1075 0.930 . S
C1083 C1081 1.419 . S
C1083 C1084 1.362 . S
C1084 H1076 0.930 . S
C1084 C1083 1.362 . S
C1084 C1087 1.409 . S
C1085 H1077 0.930 . S
C1085 C1086 1.355 . S
C1085 C1087 1.415 . S
C1086 C1085 1.355 . S
C1086 C1088 1.419 . S
C1087 C1082 1.425 . S
C1087 C1084 1.409 . S
C1087 C1085 1.415 . S
C1088 H1078 0.930 . S
C1088 C1086 1.419 . S
C1088 C1089 1.362 . S
C1089 H1079 0.930 . S
C1089 C1082 1.409 . S
C1089 C1088 1.362 . S
H1090 C1096 0.930 . S
H1091 C1099 0.930 . S
H1092 C1100 0.930 . S
H1093 C1101 0.930 . S
H1094 C1104 0.930 . S
H1095 C1105 0.930 . S
C1096 H1090 0.930 . S
C1096 C1097 1.355 . S
C1096 C1098 1.415 1_565 S
C1097 C1096 1.355 . S
C1097 C1099 1.419 . S
C1098 C1096 1.415 1_545 S
C1098 C1103 1.425 1_545 S
C1098 C1105 1.409 . S
C1099 H1091 0.930 . S
C1099 C1097 1.419 . S
C1099 C1100 1.362 . S
C1100 H1092 0.930 . S
C1100 C1099 1.362 . S
C1100 C1103 1.409 . S
C1101 H1093 0.930 . S
C1101 C1102 1.355 . S
C1101 C1103 1.415 1_545 S
C1102 C1101 1.355 . S
C1102 C1104 1.419 . S
C1103 C1098 1.425 1_565 S
C1103 C1100 1.409 . S
C1103 C1101 1.415 1_565 S
C1104 H1094 0.930 . S
C1104 C1102 1.419 . S
C1104 C1105 1.362 . S
C1105 H1095 0.930 . S
C1105 C1098 1.409 . S
C1105 C1104 1.362 . S
H1106 C1112 0.930 . S
H1107 C1115 0.930 . S
H1108 C1116 0.930 1_455 S
H1109 C1117 0.930 . S
H1110 C1120 0.930 . S
H1111 C1121 0.930 1_655 S
C1112 H1106 0.930 . S
C1112 C1113 1.355 . S
C1112 C1114 1.415 . S
C1113 C1112 1.355 . S
C1113 C1115 1.419 . S
C1114 C1112 1.415 . S
C1114 C1119 1.425 1_655 S
C1114 C1121 1.409 1_655 S
C1115 H1107 0.930 . S
C1115 C1113 1.419 . S
C1115 C1116 1.362 . S
C1116 H1108 0.930 1_655 S
C1116 C1115 1.362 . S
C1116 C1119 1.409 1_655 S
C1117 H1109 0.930 . S
C1117 C1118 1.355 . S
C1117 C1119 1.415 . S
C1118 C1117 1.355 . S
C1118 C1120 1.419 . S
C1119 C1114 1.425 1_455 S
C1119 C1116 1.409 1_455 S
C1119 C1117 1.415 . S
C1120 H1110 0.930 . S
C1120 C1118 1.419 . S
C1120 C1121 1.362 . S
C1121 H1111 0.930 1_455 S
C1121 C1114 1.409 1_455 S
C1121 C1120 1.362 . S
H1122 C1128 0.930 . S
H1123 C1131 0.930 . S
H1124 C1132 0.930 . S
H1125 C1133 0.930 . S
H1126 C1136 0.930 . S
H1127 C1137 0.930 . S
C1128 H1122 0.930 . S
C1128 C1129 1.355 . S
C1128 C1130 1.415 . S
C1129 C1128 1.355 . S
C1129 C1131 1.419 . S
C1130 C1128 1.415 . S
C1130 C1135 1.425 . S
C1130 C1137 1.409 . S
C1131 H1123 0.930 . S
C1131 C1129 1.419 . S
C1131 C1132 1.362 . S
C1132 H1124 0.930 . S
C1132 C1131 1.362 . S
C1132 C1135 1.409 . S
C1133 H1125 0.930 . S
C1133 C1134 1.355 . S
C1133 C1135 1.415 . S
C1134 C1133 1.355 . S
C1134 C1136 1.419 . S
C1135 C1130 1.425 . S
C1135 C1132 1.409 . S
C1135 C1133 1.415 . S
C1136 H1126 0.930 . S
C1136 C1134 1.419 . S
C1136 C1137 1.362 . S
C1137 H1127 0.930 . S
C1137 C1130 1.409 . S
C1137 C1136 1.362 . S
H1138 C1144 0.930 . S
H1139 C1147 0.930 . S
H1140 C1148 0.930 . S
H1141 C1149 0.930 . S
H1142 C1152 0.930 . S
H1143 C1153 0.930 . S
C1144 H1138 0.930 . S
C1144 C1145 1.355 . S
C1144 C1146 1.415 . S
C1145 C1144 1.355 . S
C1145 C1147 1.419 . S
C1146 C1144 1.415 . S
C1146 C1151 1.425 . S
C1146 C1153 1.409 . S
C1147 H1139 0.930 . S
C1147 C1145 1.419 . S
C1147 C1148 1.362 . S
C1148 H1140 0.930 . S
C1148 C1147 1.362 . S
C1148 C1151 1.409 . S
C1149 H1141 0.930 . S
C1149 C1150 1.355 . S
C1149 C1151 1.415 . S
C1150 C1149 1.355 . S
C1150 C1152 1.419 . S
C1151 C1146 1.425 . S
C1151 C1148 1.409 . S
C1151 C1149 1.415 . S
C1152 H1142 0.930 . S
C1152 C1150 1.419 . S
C1152 C1153 1.362 . S
C1153 H1143 0.930 . S
C1153 C1146 1.409 . S
C1153 C1152 1.362 . S
H1154 C1160 0.930 . S
H1155 C1163 0.930 . S
H1156 C1164 0.930 . S
H1157 C1165 0.930 . S
H1158 C1168 0.930 . S
H1159 C1169 0.930 . S
C1160 H1154 0.930 . S
C1160 C1161 1.355 . S
C1160 C1162 1.415 . S
C1161 C1160 1.355 . S
C1161 C1163 1.419 . S
C1162 C1160 1.415 . S
C1162 C1167 1.425 . S
C1162 C1169 1.409 . S
C1163 H1155 0.930 . S
C1163 C1161 1.419 . S
C1163 C1164 1.362 . S
C1164 H1156 0.930 . S
C1164 C1163 1.362 . S
C1164 C1167 1.409 . S
C1165 H1157 0.930 . S
C1165 C1166 1.355 . S
C1165 C1167 1.415 . S
C1166 C1165 1.355 . S
C1166 C1168 1.419 . S
C1167 C1162 1.425 . S
C1167 C1164 1.409 . S
C1167 C1165 1.415 . S
C1168 H1158 0.930 . S
C1168 C1166 1.419 . S
C1168 C1169 1.362 . S
C1169 H1159 0.930 . S
C1169 C1162 1.409 . S
C1169 C1168 1.362 . S
H1170 C1176 0.930 . S
H1171 C1179 0.930 . S
H1172 C1180 0.930 . S
H1173 C1181 0.930 . S
H1174 C1184 0.930 . S
H1175 C1185 0.930 . S
C1176 H1170 0.930 . S
C1176 C1177 1.355 . S
C1176 C1178 1.415 . S
C1177 C1176 1.355 . S
C1177 C1179 1.419 . S
C1178 C1176 1.415 . S
C1178 C1183 1.425 . S
C1178 C1185 1.409 . S
C1179 H1171 0.930 . S
C1179 C1177 1.419 . S
C1179 C1180 1.362 . S
C1180 H1172 0.930 . S
C1180 C1179 1.362 . S
C1180 C1183 1.409 . S
C1181 H1173 0.930 . S
C1181 C1182 1.355 . S
C1181 C1183 1.415 . S
C1182 C1181 1.355 . S
C1182 C1184 1.419 . S
C1183 C1178 1.425 . S
C1183 C1180 1.409 . S
C1183 C1181 1.415 . S
C1184 H1174 0.930 . S
C1184 C1182 1.419 . S
C1184 C1185 1.362 . S
C1185 H1175 0.930 . S
C1185 C1178 1.409 . S
C1185 C1184 1.362 . S
H1186 C1192 0.930 . S
H1187 C1195 0.930 . S
H1188 C1196 0.930 . S
H1189 C1197 0.930 . S
H1190 C1200 0.930 . S
H1191 C1201 0.930 . S
C1192 H1186 0.930 . S
C1192 C1193 1.355 . S
C1192 C1194 1.415 . S
C1193 C1192 1.355 . S
C1193 C1195 1.419 . S
C1194 C1192 1.415 . S
C1194 C1199 1.425 . S
C1194 C1201 1.409 . S
C1195 H1187 0.930 . S
C1195 C1193 1.419 . S
C1195 C1196 1.362 . S
C1196 H1188 0.930 . S
C1196 C1195 1.362 . S
C1196 C1199 1.409 . S
C1197 H1189 0.930 . S
C1197 C1198 1.355 . S
C1197 C1199 1.415 . S
C1198 C1197 1.355 . S
C1198 C1200 1.419 . S
C1199 C1194 1.425 . S
C1199 C1196 1.409 . S
C1199 C1197 1.415 . S
C1200 H1190 0.930 . S
C1200 C1198 1.419 . S
C1200 C1201 1.362 . S
C1201 H1191 0.930 . S
C1201 C1194 1.409 . S
C1201 C1200 1.362 . S
H1202 C1208 0.930 . S
H1203 C1211 0.930 . S
H1204 C1212 0.930 . S
H1205 C1213 0.930 . S
H1206 C1216 0.930 . S
H1207 C1217 0.930 . S
C1208 H1202 0.930 . S
C1208 C1209 1.355 . S
C1208 C1210 1.415 . S
C1209 C1208 1.355 . S
C1209 C1211 1.419 . S
C1210 C1208 1.415 . S
C1210 C1215 1.425 . S
C1210 C1217 1.409 . S
C1211 H1203 0.930 . S
C1211 C1209 1.419 . S
C1211 C1212 1.362 . S
C1212 H1204 0.930 . S
C1212 C1211 1.362 . S
C1212 C1215 1.409 . S
C1213 H1205 0.930 . S
C1213 C1214 1.355 . S
C1213 C1215 1.415 . S
C1214 C1213 1.355 . S
C1214 C1216 1.419 . S
C1215 C1210 1.425 . S
C1215 C1212 1.409 . S
C1215 C1213 1.415 . S
C1216 H1206 0.930 . S
C1216 C1214 1.419 . S
C1216 C1217 1.362 . S
C1217 H1207 0.930 . S
C1217 C1210 1.409 . S
C1217 C1216 1.362 . S
H1218 C1224 0.930 . S
H1219 C1227 0.930 . S
H1220 C1228 0.930 . S
H1221 C1229 0.930 . S
H1222 C1232 0.930 . S
H1223 C1233 0.930 . S
C1224 H1218 0.930 . S
C1224 C1225 1.355 . S
C1224 C1226 1.415 . S
C1225 C1224 1.355 . S
C1225 C1227 1.419 . S
C1226 C1224 1.415 . S
C1226 C1231 1.425 . S
C1226 C1233 1.409 . S
C1227 H1219 0.930 . S
C1227 C1225 1.419 . S
C1227 C1228 1.362 . S
C1228 H1220 0.930 . S
C1228 C1227 1.362 . S
C1228 C1231 1.409 . S
C1229 H1221 0.930 . S
C1229 C1230 1.355 . S
C1229 C1231 1.415 . S
C1230 C1229 1.355 . S
C1230 C1232 1.419 . S
C1231 C1226 1.425 . S
C1231 C1228 1.409 . S
C1231 C1229 1.415 . S
C1232 H1222 0.930 . S
C1232 C1230 1.419 . S
C1232 C1233 1.362 . S
C1233 H1223 0.930 . S
C1233 C1226 1.409 . S
C1233 C1232 1.362 . S
H1234 C1240 0.930 . S
H1235 C1243 0.930 . S
H1236 C1244 0.930 . S
H1237 C1245 0.930 . S
H1238 C1248 0.930 . S
H1239 C1249 0.930 . S
C1240 H1234 0.930 . S
C1240 C1241 1.355 . S
C1240 C1242 1.415 . S
C1241 C1240 1.355 . S
C1241 C1243 1.419 . S
C1242 C1240 1.415 . S
C1242 C1247 1.425 . S
C1242 C1249 1.409 . S
C1243 H1235 0.930 . S
C1243 C1241 1.419 . S
C1243 C1244 1.362 . S
C1244 H1236 0.930 . S
C1244 C1243 1.362 . S
C1244 C1247 1.409 . S
C1245 H1237 0.930 . S
C1245 C1246 1.355 . S
C1245 C1247 1.415 . S
C1246 C1245 1.355 . S
C1246 C1248 1.419 . S
C1247 C1242 1.425 . S
C1247 C1244 1.409 . S
C1247 C1245 1.415 . S
C1248 H1238 0.930 . S
C1248 C1246 1.419 . S
C1248 C1249 1.362 . S
C1249 H1239 0.930 . S
C1249 C1242 1.409 . S
C1249 C1248 1.362 . S
H1250 C1256 0.930 . S
H1251 C1259 0.930 . S
H1252 C1260 0.930 . S
H1253 C1261 0.930 . S
H1254 C1264 0.930 . S
H1255 C1265 0.930 . S
C1256 H1250 0.930 . S
C1256 C1257 1.355 . S
C1256 C1258 1.415 . S
C1257 C1256 1.355 . S
C1257 C1259 1.419 . S
C1258 C1256 1.415 . S
C1258 C1263 1.425 . S
C1258 C1265 1.409 . S
C1259 H1251 0.930 . S
C1259 C1257 1.419 . S
C1259 C1260 1.362 . S
C1260 H1252 0.930 . S
C1260 C1259 1.362 . S
C1260 C1263 1.409 . S
C1261 H1253 0.930 . S
C1261 C1262 1.355 . S
C1261 C1263 1.415 . S
C1262 C1261 1.355 . S
C1262 C1264 1.419 . S
C1263 C1258 1.425 . S
C1263 C1260 1.409 . S
C1263 C1261 1.415 . S
C1264 H1254 0.930 . S
C1264 C1262 1.419 . S
C1264 C1265 1.362 . S
C1265 H1255 0.930 . S
C1265 C1258 1.409 . S
C1265 C1264 1.362 . S
H1266 C1272 0.930 . S
H1267 C1275 0.930 . S
H1268 C1276 0.930 . S
H1269 C1277 0.930 . S
H1270 C1280 0.930 . S
H1271 C1281 0.930 . S
C1272 H1266 0.930 . S
C1272 C1273 1.355 . S
C1272 C1274 1.415 . S
C1273 C1272 1.355 . S
C1273 C1275 1.419 . S
C1274 C1272 1.415 . S
C1274 C1279 1.425 . S
C1274 C1281 1.409 . S
C1275 H1267 0.930 . S
C1275 C1273 1.419 . S
C1275 C1276 1.362 . S
C1276 H1268 0.930 . S
C1276 C1275 1.362 . S
C1276 C1279 1.409 . S
C1277 H1269 0.930 . S
C1277 C1278 1.355 . S
C1277 C1279 1.415 . S
C1278 C1277 1.355 . S
C1278 C1280 1.419 . S
C1279 C1274 1.425 . S
C1279 C1276 1.409 . S
C1279 C1277 1.415 . S
C1280 H1270 0.930 . S
C1280 C1278 1.419 . S
C1280 C1281 1.362 . S
C1281 H1271 0.930 . S
C1281 C1274 1.409 . S
C1281 C1280 1.362 . S
H1282 C1288 0.930 . S
H1283 C1291 0.930 . S
H1284 C1292 0.930 . S
H1285 C1293 0.930 . S
H1286 C1296 0.930 . S
H1287 C1297 0.930 . S
C1288 H1282 0.930 . S
C1288 C1289 1.355 . S
C1288 C1290 1.415 . S
C1289 C1288 1.355 . S
C1289 C1291 1.419 . S
C1290 C1288 1.415 . S
C1290 C1295 1.425 . S
C1290 C1297 1.409 . S
C1291 H1283 0.930 . S
C1291 C1289 1.419 . S
C1291 C1292 1.362 . S
C1292 H1284 0.930 . S
C1292 C1291 1.362 . S
C1292 C1295 1.409 . S
C1293 H1285 0.930 . S
C1293 C1294 1.355 . S
C1293 C1295 1.415 . S
C1294 C1293 1.355 . S
C1294 C1296 1.419 . S
C1295 C1290 1.425 . S
C1295 C1292 1.409 . S
C1295 C1293 1.415 . S
C1296 H1286 0.930 . S
C1296 C1294 1.419 . S
C1296 C1297 1.362 . S
C1297 H1287 0.930 . S
C1297 C1290 1.409 . S
C1297 C1296 1.362 . S
H1298 C1304 0.930 . S
H1299 C1307 0.930 . S
H1300 C1308 0.930 . S
H1301 C1309 0.930 . S
H1302 C1312 0.930 . S
H1303 C1313 0.930 . S
C1304 H1298 0.930 . S
C1304 C1305 1.355 . S
C1304 C1306 1.415 . S
C1305 C1304 1.355 . S
C1305 C1307 1.419 . S
C1306 C1304 1.415 . S
C1306 C1311 1.425 . S
C1306 C1313 1.409 . S
C1307 H1299 0.930 . S
C1307 C1305 1.419 . S
C1307 C1308 1.362 . S
C1308 H1300 0.930 . S
C1308 C1307 1.362 . S
C1308 C1311 1.409 . S
C1309 H1301 0.930 . S
C1309 C1310 1.355 . S
C1309 C1311 1.415 . S
C1310 C1309 1.355 . S
C1310 C1312 1.419 . S
C1311 C1306 1.425 . S
C1311 C1308 1.409 . S
C1311 C1309 1.415 . S
C1312 H1302 0.930 . S
C1312 C1310 1.419 . S
C1312 C1313 1.362 . S
C1313 H1303 0.930 . S
C1313 C1306 1.409 . S
C1313 C1312 1.362 . S
C601 N112 1.077 . S
C606 N13 1.100 . S
C617 N145 1.133 . S
C622 N46 1.153 . S
C633 N79 1.056 . S
C638 N178 1.056 . S
C649 C51 2.228 . S
C654 C183 2.221 . S
C665 C117 2.233 . S
C670 C84 2.223 . S
C681 C150 2.230 . S
C686 C18 2.221 . S
C697 N211 1.065 . S
C702 N310 1.056 . S
C713 N343 1.074 . S
C718 N244 1.096 . S
C729 N277 1.150 . S
C734 N376 1.129 . S
C745 C381 2.223 . S
C750 C249 2.223 . S
C761 C315 2.221 . S
C766 C282 2.231 . S
C777 C348 2.235 . S
C782 C216 2.227 . S
C793 N508 1.167 . S
C798 N409 1.167 . S
C809 N442 1.168 . S
C814 N541 1.165 . S
C825 N574 1.164 . S
C830 N475 1.151 . S
C841 C447 2.222 . S
C846 C579 2.231 . S
C857 C513 2.221 . S
C862 C480 2.227 . S
C873 C414 2.235 . S
C878 C546 2.231 . S
C889 C582 1.425 . S
C894 C21 1.424 . S
C905 C54 1.437 . S
C910 C516 1.437 . S
C921 C549 1.439 . S
C926 C87 1.439 . S
C937 C252 1.432 . S
C942 C120 1.432 . S
C953 C153 1.433 . S
C958 C285 1.432 . S
C969 C186 1.407 . S
C974 C219 1.406 . S
C985 C450 1.419 . S
C990 C318 1.420 . S
C1001 C483 1.408 . S
C1006 C351 1.408 . S
C1017 C384 1.404 . S
C1022 C417 1.404 . S
C1033 C7 1.988 . S
C1038 C106 1.980 . S
C1049 C139 1.988 . S
C1054 C40 1.985 . S
C1065 C73 1.956 . S
C1070 C172 1.951 . S
C1081 N167 0.744 . S
C1086 N35 0.715 . S
C1097 N68 0.842 . S
C1102 N101 0.810 . S
C1113 N134 0.762 . S
C1118 N2 0.799 . S
C1129 C205 1.952 . S
C1134 C304 1.953 . S
C1145 C337 1.958 . S
C1150 C238 1.973 . S
C1161 C370 1.960 . S
C1166 C271 1.951 . S
C1177 N365 0.710 . S
C1182 N233 0.699 . S
C1193 N299 0.868 . S
C1198 N266 0.864 . S
C1209 N332 0.864 . S
C1214 N200 0.868 . S
C1225 C502 1.970 . S
C1230 C403 1.955 . S
C1241 C535 1.988 . S
C1246 C436 1.980 . S
C1257 C568 1.960 . S
C1262 C469 1.951 . S
C1273 N563 0.727 . S
C1278 N431 0.705 . S
C1289 N497 0.817 . S
C1294 N464 0.781 . S
C1305 N530 0.865 . S
C1310 N398 0.868 . S
