# Generated by pormake.
# Topology lcy, (6)-cn, num edge types: 1
# Building blocks:
#     Node 0, Type 0, BuildingBlock: LEVNOQ01_clean_sbu_1, # of connection points: 6
#     Node 1, Type 0, BuildingBlock: LEVNOQ01_clean_sbu_1, # of connection points: 6
#     Node 2, Type 0, BuildingBlock: LEVNOQ01_clean_sbu_1, # of connection points: 6
#     Node 3, Type 0, BuildingBlock: LEVNOQ01_clean_sbu_1, # of connection points: 6
#     Edge 4, Type (0, 0), BuildingBlock: UVAHIK_clean_linker_0, # of connection points: 2
#     Edge 5, Type (0, 0), BuildingBlock: UVAHIK_clean_linker_0, # of connection points: 2
#     Edge 6, Type (0, 0), BuildingBlock: UVAHIK_clean_linker_0, # of connection points: 2
#     Edge 7, Type (0, 0), BuildingBlock: UVAHIK_clean_linker_0, # of connection points: 2
#     Edge 8, Type (0, 0), BuildingBlock: UVAHIK_clean_linker_0, # of connection points: 2
#     Edge 9, Type (0, 0), BuildingBlock: UVAHIK_clean_linker_0, # of connection points: 2
#     Edge 10, Type (0, 0), BuildingBlock: UVAHIK_clean_linker_0, # of connection points: 2
#     Edge 11, Type (0, 0), BuildingBlock: UVAHIK_clean_linker_0, # of connection points: 2
#     Edge 12, Type (0, 0), BuildingBlock: UVAHIK_clean_linker_0, # of connection points: 2
#     Edge 13, Type (0, 0), BuildingBlock: UVAHIK_clean_linker_0, # of connection points: 2
#     Edge 14, Type (0, 0), BuildingBlock: UVAHIK_clean_linker_0, # of connection points: 2
#     Edge 15, Type (0, 0), BuildingBlock: UVAHIK_clean_linker_0, # of connection points: 2
# Relax obj value: 0.333
# Max RMSD: 0.278
# Mean RMSD: 0.277
data_MOF--net-lcy--node1-LEVNOQ01_clean_sbu_1--edge1-UVAHIK_clean_linker_0
_symmetry_space_group_name_H-M    P1
_symmetry_Int_Tables_number       1
_symmetry_cell_setting            triclinic
loop_
_symmetry_equiv_pos_as_xyz
'x, y, z'
_cell_length_a     33.281118
_cell_length_b     29.701846
_cell_length_c     33.647228
_cell_angle_alpha  90.086877
_cell_angle_beta   90.465983
_cell_angle_gamma 91.391779
loop_
_atom_site_label
_atom_site_type_symbol
_atom_site_fract_x
_atom_site_fract_y
_atom_site_fract_z
_atom_type_partial_charge
O0 O 0.42096 0.35568 0.46613 0.0
Mg1 Mg 0.40595 0.40721 0.42793 0.0
O2 O 0.40931 0.31817 0.41105 0.0
Mg3 Mg 0.3639 0.35874 0.37038 0.0
O4 O 0.34551 0.41402 0.41854 0.0
O5 O 0.38408 0.45943 0.45757 0.0
O6 O 0.32368 0.39748 0.32417 0.0
O7 O 0.31021 0.31985 0.39784 0.0
Mg8 Mg 0.31879 0.2897 0.30861 0.0
O9 O 0.37687 0.30331 0.3255 0.0
O10 O 0.29834 0.34813 0.28014 0.0
O11 O 0.28608 0.26552 0.35841 0.0
O12 O 0.36118 0.25137 0.28019 0.0
C13 C 0.44538 0.42298 0.35243 0.0
C14 C 0.42582 0.32092 0.44543 0.0
C15 C 0.34903 0.44614 0.44508 0.0
C16 C 0.30366 0.38826 0.29239 0.0
C17 C 0.28615 0.28664 0.39122 0.0
C18 C 0.38822 0.27246 0.30117 0.0
O19 O 0.45037 0.43035 0.38906 0.0
O20 O 0.41538 0.39934 0.34038 0.0
O21 O 0.84754 0.02317 0.51753 0.0
Mg22 Mg 0.9045 0.04604 0.53881 0.0
O23 O 0.81285 0.07684 0.54711 0.0
Mg24 Mg 0.84957 0.11206 0.5968 0.0
O25 O 0.89509 0.05722 0.59718 0.0
O26 O 0.93835 0.00673 0.57823 0.0
O27 O 0.88651 0.14869 0.64602 0.0
O28 O 0.81514 0.06967 0.6426 0.0
Mg29 Mg 0.78998 0.17046 0.6546 0.0
O30 O 0.8024 0.16596 0.59609 0.0
O31 O 0.84463 0.18798 0.68313 0.0
O32 O 0.76515 0.1068 0.66995 0.0
O33 O 0.75889 0.21488 0.61836 0.0
C34 C 0.91338 0.14831 0.52567 0.0
C35 C 0.81505 0.04379 0.52308 0.0
C36 C 0.91923 0.0257 0.60657 0.0
C37 C 0.87975 0.17507 0.67505 0.0
C38 C 0.78426 0.07086 0.66461 0.0
C39 C 0.77555 0.19549 0.58867 0.0
O40 O 0.92488 0.10917 0.51644 0.0
O41 O 0.88709 0.15479 0.55237 0.0
O42 O 0.19033 0.72076 0.86091 0.0
Mg43 Mg 0.15787 0.69809 0.81054 0.0
O44 O 0.16773 0.66503 0.8991 0.0
Mg45 Mg 0.11507 0.62526 0.86889 0.0
O46 O 0.10038 0.68322 0.8265 0.0
O47 O 0.1157 0.7373 0.78309 0.0
O48 O 0.06473 0.58452 0.8357 0.0
O49 O 0.06882 0.65911 0.91115 0.0
Mg50 Mg 0.07141 0.55838 0.92475 0.0
O51 O 0.13144 0.56999 0.91598 0.0
O52 O 0.0375 0.53463 0.87664 0.0
O53 O 0.04659 0.61111 0.9567 0.0
O54 O 0.10634 0.51409 0.95389 0.0
C55 C 0.17822 0.60191 0.79192 0.0
C56 C 0.19128 0.69889 0.89324 0.0
C57 C 0.08902 0.71561 0.80358 0.0
C58 C 0.03956 0.55267 0.84273 0.0
C59 C 0.04741 0.65018 0.9417 0.0
C60 C 0.13682 0.53783 0.94174 0.0
O61 O 0.1811 0.64265 0.78094 0.0
O62 O 0.15805 0.59017 0.82269 0.0
O63 O 0.72181 0.8576 0.16149 0.0
Mg64 Mg 0.68456 0.80251 0.14694 0.0
O65 O 0.67368 0.90456 0.1453 0.0
Mg66 Mg 0.62717 0.86918 0.10282 0.0
O67 O 0.66796 0.80943 0.08929 0.0
O68 O 0.70587 0.75331 0.11092 0.0
O69 O 0.581 0.83394 0.06104 0.0
O70 O 0.65937 0.90519 0.05134 0.0
Mg71 Mg 0.5721 0.94165 0.05693 0.0
O72 O 0.58562 0.9282 0.1149 0.0
O73 O 0.54322 0.88454 0.03105 0.0
O74 O 0.62582 0.96436 0.02994 0.0
O75 O 0.54333 0.98171 0.09763 0.0
C76 C 0.602 0.80461 0.18126 0.0
C77 C 0.70768 0.89679 0.16154 0.0
C78 C 0.69092 0.77577 0.08175 0.0
C79 C 0.5527 0.84398 0.03718 0.0
C80 C 0.65679 0.94032 0.02988 0.0
C81 C 0.56309 0.9612 0.12499 0.0
O82 O 0.63664 0.78837 0.1847 0.0
O83 O 0.59363 0.83236 0.15378 0.0
C84 C 0.18427 0.56949 -0.00817 0.0
C85 C 0.17402 0.53439 0.96533 0.0
C86 C 0.20711 0.56109 0.02609 0.0
C87 C 0.2165 0.46757 0.09447 0.0
H88 H 0.29683 0.5412 0.14998 0.0
C89 C 0.32211 0.43876 0.23684 0.0
C90 C 0.29309 0.42406 0.26434 0.0
C91 C 0.31062 0.46102 0.20206 0.0
C92 C 0.27427 0.52053 0.13477 0.0
H93 H 0.18167 0.46386 0.95231 0.0
H94 H 0.22243 0.44925 0.01142 0.0
H95 H 0.27603 0.56141 0.08203 0.0
H96 H 0.2298 0.42246 0.27819 0.0
H97 H 0.2096 0.46249 0.21774 0.0
H98 H 0.21413 0.42708 0.14694 0.0
C99 C 0.2127 0.48325 0.00597 0.0
C100 C 0.26245 0.532 0.09597 0.0
C101 C 0.18994 0.49171 0.9718 0.0
C102 C 0.25271 0.43433 0.25777 0.0
C103 C 0.24121 0.45674 0.22306 0.0
C104 C 0.22773 0.45665 0.13324 0.0
C105 C 0.21957 0.51722 0.0346 0.0
C106 C 0.23373 0.50527 0.07525 0.0
C107 C 0.26986 0.46867 0.19413 0.0
C108 C 0.25676 0.48285 0.15382 0.0
H109 H 0.17078 0.60212 -0.01148 0.0
H110 H 0.21161 0.58788 0.04767 0.0
H111 H 0.19373 0.44675 0.0797 0.0
H112 H 0.35327 0.42977 0.24067 0.0
H113 H 0.33322 0.46912 0.18003 0.0
C114 C 0.75609 0.91667 0.21544 0.0
C115 C 0.72627 0.93034 0.18861 0.0
C116 C 0.76319 0.9408 0.25023 0.0
C117 C 0.70367 0.00296 0.31888 0.0
H118 H 0.80398 0.00848 0.37824 0.0
C119 C 0.7674 0.07084 0.47293 0.0
C120 C 0.78202 0.03486 0.49521 0.0
C121 C 0.74608 0.0627 0.43787 0.0
C122 C 0.77582 0.00701 0.3618 0.0
H123 H 0.68785 0.98487 0.17228 0.0
H124 H 0.69875 0.02668 0.23447 0.0
H125 H 0.80518 -0.00472 0.3068 0.0
H126 H 0.78352 0.96235 0.50075 0.0
H127 H 0.74769 0.94797 0.43796 0.0
H128 H 0.67463 0.01466 0.37478 0.0
C129 C 0.71529 -0.00369 0.22919 0.0
C130 C 0.77651 -0.00017 0.32112 0.0
C131 C 0.70873 0.97234 0.19396 0.0
C132 C 0.77195 0.9905 0.4841 0.0
C133 C 0.75114 0.98231 0.44861 0.0
C134 C 0.70304 0.01062 0.35986 0.0
C135 C 0.74084 0.97913 0.25852 0.0
C136 C 0.74045 -0.0035 0.29945 0.0
C137 C 0.74053 0.0185 0.42425 0.0
C138 C 0.73914 0.01145 0.38139 0.0
H139 H 0.7711 0.885 0.21171 0.0
H140 H 0.78336 0.9269 0.27219 0.0
H141 H 0.67539 -0.00011 0.30281 0.0
H142 H 0.77702 0.10505 0.47957 0.0
H143 H 0.73911 0.09089 0.4188 0.0
C144 C 0.23337 0.57932 0.74802 0.0
C145 C 0.19621 0.56848 0.76537 0.0
C146 C 0.24608 0.55652 0.71434 0.0
C147 C 0.20372 0.49728 0.62699 0.0
H148 H 0.31663 0.48625 0.60227 0.0
C149 C 0.28536 0.42999 0.48177 0.0
C150 C 0.31435 0.46148 0.46818 0.0
C151 C 0.26306 0.43902 0.51602 0.0
C152 C 0.28495 0.489 0.60884 0.0
H153 H 0.1441 0.52353 0.76258 0.0
H154 H 0.16669 0.48269 0.70354 0.0
H155 H 0.29681 0.50197 0.67031 0.0
H156 H 0.33931 0.52886 0.47675 0.0
H157 H 0.30054 0.54447 0.53615 0.0
H158 H 0.19243 0.48406 0.56484 0.0
C159 C 0.18584 0.50925 0.71592 0.0
C160 C 0.27355 0.49811 0.64777 0.0
C161 C 0.17319 0.53206 0.75008 0.0
C162 C 0.31716 0.504 0.48651 0.0
C163 C 0.29522 0.51284 0.52067 0.0
C164 C 0.21521 0.48745 0.5879 0.0
C165 C 0.22186 0.52229 0.69689 0.0
C166 C 0.23292 0.50397 0.6572 0.0
C167 C 0.26969 0.47954 0.53691 0.0
C168 C 0.25604 0.48468 0.5784 0.0
H169 H 0.25146 0.60759 0.75899 0.0
H170 H 0.2737 0.56807 0.70047 0.0
H171 H 0.17218 0.5019 0.63302 0.0
H172 H 0.28318 0.39667 0.46876 0.0
H173 H 0.24353 0.41284 0.52812 0.0
C174 C 0.69779 -0.00622 -0.01041 0.0
C175 C 0.68739 0.94939 -3e-05 0.0
C176 C 0.71979 0.00222 0.95525 0.0
C177 C 0.71947 0.00451 0.86655 0.0
H178 H 0.80113 0.93361 0.81599 0.0
C179 C 0.73838 0.02051 0.7025 0.0
C180 C 0.77753 0.03467 0.69304 0.0
C181 C 0.73122 -0.00184 0.7382 0.0
C182 C 0.77815 0.95337 0.82986 0.0
H183 H 0.6923 0.87922 0.9839 0.0
H184 H 0.73109 0.89363 0.92447 0.0
H185 H 0.78959 0.92584 0.8876 0.0
H186 H 0.8399 0.03548 0.71175 0.0
H187 H 0.82767 -0.00395 0.77359 0.0
H188 H 0.70808 0.03247 0.80952 0.0
C189 C 0.72352 0.92187 0.94315 0.0
C190 C 0.7718 0.94921 0.87065 0.0
C191 C 0.70159 0.91353 0.97741 0.0
C192 C 0.80975 0.02287 0.71766 0.0
C193 C 0.80265 0.00074 0.75334 0.0
C194 C 0.7257 0.00853 0.82603 0.0
C195 C 0.73093 0.96631 0.93073 0.0
C196 C 0.74225 0.97467 0.88921 0.0
C197 C 0.76309 0.99087 0.76497 0.0
C198 C 0.75475 0.98271 0.80722 0.0
H199 H 0.687 0.02187 0.00674 0.0
H200 H 0.72558 0.0368 0.94636 0.0
H201 H 0.69589 0.02384 0.87988 0.0
H202 H 0.71318 0.02988 0.68394 0.0
H203 H 0.70046 0.99022 0.74647 0.0
C204 C 0.95941 0.21315 0.53801 0.0
C205 C 0.93755 0.18634 0.51071 0.0
C206 C -0.00534 0.23562 0.52618 0.0
C207 C 0.07087 0.21457 0.45061 0.0
H208 H 0.12928 0.31194 0.50386 0.0
C209 C 0.23827 0.23434 0.42527 0.0
C210 C 0.25262 0.27829 0.41842 0.0
C211 C 0.20096 0.22707 0.44306 0.0
C212 C 0.11333 0.28481 0.4885 0.0
H213 H 0.93109 0.16724 0.44893 0.0
H214 H 0.99055 0.20967 0.42736 0.0
H215 H 0.05745 0.3011 0.51552 0.0
H216 H 0.24079 0.34909 0.42625 0.0
H217 H 0.17505 0.33671 0.45564 0.0
H218 H 0.12566 0.19927 0.42219 0.0
C219 C 0.98222 0.21127 0.45836 0.0
C220 C 0.07215 0.27845 0.49536 0.0
C221 C 0.94778 0.18761 0.47045 0.0
C222 C 0.23054 0.31484 0.43194 0.0
C223 C 0.19275 0.30766 0.44874 0.0
C224 C 0.1116 0.22133 0.44331 0.0
C225 C 0.00786 0.23226 0.48667 0.0
C226 C 0.05045 0.24303 0.47662 0.0
C227 C 0.17673 0.26369 0.45285 0.0
C228 C 0.13357 0.25615 0.46244 0.0
H229 H 0.95207 0.21231 0.56931 0.0
H230 H 0.01337 0.25159 0.54886 0.0
H231 H 0.05574 0.1861 0.43639 0.0
H232 H 0.25505 0.2057 0.41525 0.0
H233 H 0.19024 0.1927 0.44717 0.0
C234 C 0.02563 0.73109 0.76824 0.0
C235 C 0.04812 0.73256 0.80357 0.0
C236 C -0.00546 0.76115 0.76218 0.0
C237 C 0.97789 0.87713 0.79044 0.0
H238 H 0.89455 0.8646 0.70988 0.0
C239 C 0.95904 0.00129 0.66473 0.0
C240 C 0.92147 0.00687 0.64668 0.0
C241 C 0.96282 0.973 0.69755 0.0
C242 C 0.91697 0.86894 0.73316 0.0
H243 H 0.05524 0.76475 0.86087 0.0
H244 H -0.00056 0.81566 0.85148 0.0
H245 H 0.91786 0.79802 0.74437 0.0
H246 H 0.85832 0.9883 0.64846 0.0
H247 H 0.86468 0.9388 0.70624 0.0
H248 H 0.97818 0.94777 0.77803 0.0
C249 C 0.00574 0.79163 0.82825 0.0
C250 C 0.93063 0.83062 0.75266 0.0
C251 C 0.03716 0.7619 0.83401 0.0
C252 C 0.88739 0.98543 0.66283 0.0
C253 C 0.89115 0.95672 0.6955 0.0
C254 C 0.96412 0.91539 0.7711 0.0
C255 C 0.98578 0.79354 0.7913 0.0
C256 C 0.96284 0.834 0.77988 0.0
C257 C 0.92914 0.94903 0.71238 0.0
C258 C 0.93516 0.9114 0.74065 0.0
H259 H 0.03446 0.70959 0.74393 0.0
H260 H 0.98032 0.76186 0.73314 0.0
H261 H 0.00281 0.88126 0.81112 0.0
H262 H 0.98582 0.01673 0.65201 0.0
H263 H -0.00733 0.96725 0.70924 0.0
C264 C 0.25129 0.7448 0.91398 0.0
C265 C 0.22578 0.70716 0.92024 0.0
C266 C 0.28971 0.74636 0.93054 0.0
C267 C 0.35777 0.71253 0.00504 0.0
H268 H 0.43645 0.72146 0.92063 0.0
C269 C 0.51908 0.76812 0.03995 0.0
C270 C 0.52759 0.80809 0.01906 0.0
C271 C 0.48798 0.73906 0.02703 0.0
C272 C 0.41495 0.71824 0.94453 0.0
H273 H 0.2192 0.64386 0.95173 0.0
H274 H 0.28622 0.64764 0.98213 0.0
H275 H 0.36572 0.707 0.90417 0.0
H276 H 0.51388 0.84679 0.96637 0.0
H277 H 0.46014 0.79624 0.94363 0.0
H278 H 0.40636 0.72754 0.04524 0.0
C279 C 0.2764 0.67527 0.96376 0.0
C280 C 0.37464 0.71012 0.93513 0.0
C281 C 0.23796 0.67342 0.94674 0.0
C282 C 0.50752 0.81635 0.98314 0.0
C283 C 0.47699 0.78712 0.96998 0.0
C284 C 0.39818 0.72111 0.01449 0.0
C285 C 0.30301 0.71071 0.95408 0.0
C286 C 0.34568 0.70936 0.96518 0.0
C287 C 0.46566 0.74934 -0.00724 0.0
C288 C 0.42673 0.72634 0.9841 0.0
H289 H 0.2427 0.77156 0.89401 0.0
H290 H 0.30981 0.7744 0.92339 0.0
H291 H 0.33569 0.71184 0.02853 0.0
H292 H 0.53426 0.76108 0.06779 0.0
H293 H 0.47992 0.70999 0.04495 0.0
C294 C 0.44947 0.2416 0.33233 0.0
C295 C 0.43 0.25819 0.29854 0.0
C296 C 0.48231 0.21339 0.3283 0.0
C297 C 0.55178 0.16337 0.25513 0.0
H298 H 0.51207 0.04904 0.2966 0.0
C299 C 0.59681 0.00142 0.18049 0.0
C300 C 0.56237 0.97922 0.16552 0.0
C301 C 0.59414 0.03175 0.21211 0.0
C302 C 0.52419 0.08073 0.28547 0.0
H303 H 0.43153 0.26288 0.23446 0.0
H304 H 0.48946 0.21522 0.22719 0.0
H305 H 0.48648 0.11917 0.32309 0.0
H306 H 0.49829 0.96912 0.17248 0.0
H307 H 0.4932 0.0216 0.22799 0.0
H308 H 0.58693 0.12494 0.2152 0.0
C309 C 0.47963 0.22339 0.2569 0.0
C310 C 0.50981 0.12095 0.30085 0.0
C311 C 0.44638 0.25065 0.26097 0.0
C312 C 0.52546 0.9851 0.18432 0.0
C313 C 0.52266 0.01514 0.21611 0.0
C314 C 0.56642 0.12319 0.24 0.0
C315 C 0.4964 0.2023 0.29032 0.0
C316 C 0.5217 0.16252 0.28415 0.0
C317 C 0.55664 0.04049 0.22899 0.0
C318 C 0.55099 0.08144 0.25344 0.0
H319 H 0.43663 0.24658 0.3613 0.0
H320 H 0.49469 0.19755 0.35447 0.0
H321 H 0.56158 0.19496 0.24189 0.0
H322 H 0.62476 -0.00089 0.16481 0.0
H323 H 0.62074 0.05096 0.2212 0.0
C324 C 0.74635 0.24348 0.53639 0.0
C325 C 0.75762 0.20071 0.54916 0.0
C326 C 0.71673 0.24775 0.50713 0.0
C327 C 0.6257 0.18439 0.48154 0.0
H328 H 0.60474 0.29302 0.42213 0.0
C329 C 0.46559 0.25002 0.44016 0.0
C330 C 0.46171 0.29434 0.45399 0.0
C331 C 0.50334 0.22993 0.44045 0.0
C332 C 0.61031 0.26206 0.43803 0.0
H333 H 0.74857 0.12918 0.54067 0.0
H334 H 0.69828 0.1363 0.48807 0.0
H335 H 0.67403 0.27328 0.43699 0.0
H336 H 0.49377 0.3513 0.4812 0.0
H337 H 0.55863 0.31646 0.48174 0.0
H338 H 0.56175 0.17474 0.48438 0.0
C339 C 0.71212 0.1666 0.5005 0.0
C340 C 0.6499 0.25084 0.44663 0.0
C341 C 0.74158 0.16244 0.52995 0.0
C342 C 0.49554 0.31705 0.47034 0.0
C343 C 0.53295 0.29747 0.46999 0.0
C344 C 0.58611 0.19547 0.47263 0.0
C345 C 0.6976 0.20918 0.49056 0.0
C346 C 0.65792 0.21333 0.47054 0.0
C347 C 0.53749 0.2544 0.45391 0.0
C348 C 0.57814 0.23573 0.45285 0.0
H349 H 0.75781 0.27343 0.5515 0.0
H350 H 0.70611 0.28115 0.50067 0.0
H351 H 0.63058 0.15538 0.50024 0.0
H352 H 0.43976 0.23149 0.42835 0.0
H353 H 0.50612 0.19607 0.42898 0.0
C354 C 0.98003 0.50965 0.8189 0.0
C355 C 0.01721 0.53046 0.81031 0.0
C356 C 0.96658 0.47272 0.79669 0.0
C357 C 0.9805 0.39661 0.71394 0.0
H358 H 0.98108 0.30553 0.79672 0.0
C359 C 0.94629 0.21434 0.67377 0.0
C360 C 0.91322 0.19827 0.69563 0.0
C361 C 0.96912 0.25115 0.68787 0.0
C362 C 0.98093 0.33047 0.77326 0.0
H363 H 0.0662 0.53459 0.76837 0.0
H364 H 0.04255 0.46943 0.72937 0.0
H365 H -0.00891 0.38455 0.81426 0.0
H366 H 0.88188 0.20237 0.7516 0.0
H367 H 0.92145 0.26597 0.77631 0.0
H368 H 0.96832 0.34274 0.67307 0.0
C369 C 0.02405 0.48152 0.75329 0.0
C370 C 0.98633 0.37562 0.7833 0.0
C371 C 0.03747 0.51882 0.77548 0.0
C372 C 0.90705 0.21467 0.73411 0.0
C373 C 0.92986 0.25115 0.74825 0.0
C374 C 0.97446 0.35129 0.70386 0.0
C375 C 0.99029 0.45636 0.76586 0.0
C376 C 0.98521 0.40901 0.75386 0.0
C377 C 0.95924 0.27167 0.72406 0.0
C378 C 0.97374 0.31789 0.7336 0.0
H379 H 0.96375 0.51862 0.84542 0.0
H380 H 0.94002 0.45405 0.8063 0.0
H381 H 0.98005 0.42199 0.69086 0.0
H382 H 0.95171 0.20195 0.64406 0.0
H383 H -0.0077 0.2657 0.6691 0.0
C384 C -0.00327 0.67505 -0.00929 0.0
C385 C 0.01603 0.68133 0.95409 0.0
C386 C 0.95979 0.69469 -0.00225 0.0
C387 C 0.87131 0.72852 0.94166 0.0
H388 H 0.836 0.77107 0.04425 0.0
C389 C 0.72793 0.80694 0.02505 0.0
C390 C 0.70876 0.76952 0.04255 0.0
C391 C 0.76096 0.80111 0.00046 0.0
C392 C 0.84571 0.75969 0.01532 0.0
H393 H 0.01279 0.71468 0.89727 0.0
H394 H 0.94914 0.75065 0.90997 0.0
H395 H 0.90703 0.75616 0.03421 0.0
H396 H 0.70533 0.6967 0.04453 0.0
H397 H 0.76308 0.68644 0.00128 0.0
H398 H 0.80917 0.73059 0.92362 0.0
C399 C 0.96232 0.73011 0.933 0.0
C400 C 0.88616 0.75096 0.00965 0.0
C401 C -0.00075 0.71043 0.92604 0.0
C402 C 0.71933 0.72603 0.03078 0.0
C403 C 0.75234 0.72015 0.00612 0.0
C404 C 0.83058 0.73688 0.94753 0.0
C405 C 0.94148 0.72093 0.96827 0.0
C406 C 0.89936 0.73481 0.97293 0.0
C407 C 0.77494 0.75775 -0.00675 0.0
C408 C 0.81768 0.75227 0.9845 0.0
H409 H 0.0088 0.65248 0.01282 0.0
H410 H 0.94435 0.68675 0.02517 0.0
H411 H 0.88057 0.7154 0.91321 0.0
H412 H 0.72154 0.84059 0.03519 0.0
H413 H 0.77846 0.83046 -0.00876 0.0
C414 C 0.5358 0.76582 0.18564 0.0
C415 C 0.57018 0.78351 0.20495 0.0
C416 C 0.51492 0.72915 0.20214 0.0
C417 C 0.51068 0.65303 0.28971 0.0
H418 H 0.50776 0.55886 0.20943 0.0
C419 C 0.50439 0.47237 0.33785 0.0
C420 C 0.46919 0.45008 0.32431 0.0
C421 C 0.51873 0.51063 0.3183 0.0
C422 C 0.50838 0.58492 0.232 0.0
H423 H 0.60622 0.78242 0.25874 0.0
H424 H 0.56979 0.71913 0.28779 0.0
H425 H 0.51864 0.63728 0.18958 0.0
H426 H 0.4252 0.44556 0.27642 0.0
H427 H 0.45046 0.5126 0.24215 0.0
H428 H 0.50166 0.60055 0.3322 0.0
C429 C 0.55887 0.73265 0.25995 0.0
C430 C 0.51397 0.62979 0.22072 0.0
C431 C 0.57976 0.769 0.24341 0.0
C432 C 0.45219 0.46243 0.28768 0.0
C433 C 0.46657 0.50086 0.26811 0.0
C434 C 0.50547 0.60825 0.30097 0.0
C435 C 0.52816 0.71041 0.23814 0.0
C436 C 0.51563 0.66423 0.24955 0.0
C437 C 0.49811 0.52686 0.28495 0.0
C438 C 0.50487 0.57381 0.27228 0.0
H439 H 0.52802 0.77652 0.15583 0.0
H440 H 0.49072 0.71314 0.18519 0.0
H441 H 0.51157 0.67885 0.3125 0.0
H442 H 0.51855 0.46289 0.36562 0.0
H443 H 0.54386 0.52963 0.33113 0.0
loop_
_geom_bond_atom_site_label_1
_geom_bond_atom_site_label_2
_geom_bond_distance
_geom_bond_site_symmetry_2
_ccdc_geom_bond_type
O0 Mg1 1.990 . S
O0 C14 1.253 . S
Mg1 O0 1.990 . S
Mg1 O4 2.180 . S
Mg1 O5 2.117 . S
Mg1 O19 2.030 . S
O2 Mg3 2.072 . S
O2 C14 1.260 . S
Mg3 O2 2.072 . S
Mg3 O4 2.099 . S
Mg3 O6 2.079 . S
Mg3 O7 2.072 . S
Mg3 O9 2.099 . S
Mg3 O20 2.079 . S
O4 Mg1 2.180 . S
O4 Mg3 2.099 . S
O4 C15 1.279 . S
O5 Mg1 2.117 . S
O5 C15 1.250 . S
O6 Mg3 2.079 . S
O6 C16 1.264 . S
O7 Mg3 2.072 . S
O7 C17 1.260 . S
Mg8 O9 2.180 . S
Mg8 O10 2.030 . S
Mg8 O11 1.990 . S
Mg8 O12 2.117 . S
O9 Mg3 2.099 . S
O9 Mg8 2.180 . S
O9 C18 1.279 . S
O10 Mg8 2.030 . S
O10 C16 1.248 . S
O11 Mg8 1.990 . S
O11 C17 1.253 . S
O12 Mg8 2.117 . S
O12 C18 1.250 . S
C13 O19 1.248 . S
C13 O20 1.264 . S
C14 O0 1.253 . S
C14 O2 1.260 . S
C15 O4 1.279 . S
C15 O5 1.250 . S
C16 O6 1.264 . S
C16 O10 1.248 . S
C17 O7 1.260 . S
C17 O11 1.253 . S
C18 O9 1.279 . S
C18 O12 1.250 . S
O19 Mg1 2.030 . S
O19 C13 1.248 . S
O20 Mg3 2.079 . S
O20 C13 1.264 . S
O21 Mg22 1.990 . S
O21 C35 1.253 . S
Mg22 O21 1.990 . S
Mg22 O25 2.180 . S
Mg22 O26 2.117 . S
Mg22 O40 2.030 . S
O23 Mg24 2.072 . S
O23 C35 1.260 . S
Mg24 O23 2.072 . S
Mg24 O25 2.099 . S
Mg24 O27 2.079 . S
Mg24 O28 2.072 . S
Mg24 O30 2.099 . S
Mg24 O41 2.079 . S
O25 Mg22 2.180 . S
O25 Mg24 2.099 . S
O25 C36 1.279 . S
O26 Mg22 2.117 . S
O26 C36 1.250 . S
O27 Mg24 2.079 . S
O27 C37 1.264 . S
O28 Mg24 2.072 . S
O28 C38 1.260 . S
Mg29 O30 2.180 . S
Mg29 O31 2.030 . S
Mg29 O32 1.990 . S
Mg29 O33 2.117 . S
O30 Mg24 2.099 . S
O30 Mg29 2.180 . S
O30 C39 1.279 . S
O31 Mg29 2.030 . S
O31 C37 1.248 . S
O32 Mg29 1.990 . S
O32 C38 1.253 . S
O33 Mg29 2.117 . S
O33 C39 1.250 . S
C34 O40 1.248 . S
C34 O41 1.264 . S
C35 O21 1.253 . S
C35 O23 1.260 . S
C36 O25 1.279 . S
C36 O26 1.250 . S
C37 O27 1.264 . S
C37 O31 1.248 . S
C38 O28 1.260 . S
C38 O32 1.253 . S
C39 O30 1.279 . S
C39 O33 1.250 . S
O40 Mg22 2.030 . S
O40 C34 1.248 . S
O41 Mg24 2.079 . S
O41 C34 1.264 . S
O42 Mg43 1.990 . S
O42 C56 1.253 . S
Mg43 O42 1.990 . S
Mg43 O46 2.180 . S
Mg43 O47 2.117 . S
Mg43 O61 2.030 . S
O44 Mg45 2.072 . S
O44 C56 1.260 . S
Mg45 O44 2.072 . S
Mg45 O46 2.099 . S
Mg45 O48 2.079 . S
Mg45 O49 2.072 . S
Mg45 O51 2.099 . S
Mg45 O62 2.079 . S
O46 Mg43 2.180 . S
O46 Mg45 2.099 . S
O46 C57 1.279 . S
O47 Mg43 2.117 . S
O47 C57 1.250 . S
O48 Mg45 2.079 . S
O48 C58 1.264 . S
O49 Mg45 2.072 . S
O49 C59 1.260 . S
Mg50 O51 2.180 . S
Mg50 O52 2.030 . S
Mg50 O53 1.990 . S
Mg50 O54 2.117 . S
O51 Mg45 2.099 . S
O51 Mg50 2.180 . S
O51 C60 1.279 . S
O52 Mg50 2.030 . S
O52 C58 1.248 . S
O53 Mg50 1.990 . S
O53 C59 1.253 . S
O54 Mg50 2.117 . S
O54 C60 1.250 . S
C55 O61 1.248 . S
C55 O62 1.264 . S
C56 O42 1.253 . S
C56 O44 1.260 . S
C57 O46 1.279 . S
C57 O47 1.250 . S
C58 O48 1.264 . S
C58 O52 1.248 . S
C59 O49 1.260 . S
C59 O53 1.253 . S
C60 O51 1.279 . S
C60 O54 1.250 . S
O61 Mg43 2.030 . S
O61 C55 1.248 . S
O62 Mg45 2.079 . S
O62 C55 1.264 . S
O63 Mg64 1.990 . S
O63 C77 1.253 . S
Mg64 O63 1.990 . S
Mg64 O67 2.180 . S
Mg64 O68 2.117 . S
Mg64 O82 2.030 . S
O65 Mg66 2.072 . S
O65 C77 1.260 . S
Mg66 O65 2.072 . S
Mg66 O67 2.099 . S
Mg66 O69 2.079 . S
Mg66 O70 2.072 . S
Mg66 O72 2.099 . S
Mg66 O83 2.079 . S
O67 Mg64 2.180 . S
O67 Mg66 2.099 . S
O67 C78 1.279 . S
O68 Mg64 2.117 . S
O68 C78 1.250 . S
O69 Mg66 2.079 . S
O69 C79 1.264 . S
O70 Mg66 2.072 . S
O70 C80 1.260 . S
Mg71 O72 2.180 . S
Mg71 O73 2.030 . S
Mg71 O74 1.990 . S
Mg71 O75 2.117 . S
O72 Mg66 2.099 . S
O72 Mg71 2.180 . S
O72 C81 1.279 . S
O73 Mg71 2.030 . S
O73 C79 1.248 . S
O74 Mg71 1.990 . S
O74 C80 1.253 . S
O75 Mg71 2.117 . S
O75 C81 1.250 . S
C76 O82 1.248 . S
C76 O83 1.264 . S
C77 O63 1.253 . S
C77 O65 1.260 . S
C78 O67 1.279 . S
C78 O68 1.250 . S
C79 O69 1.264 . S
C79 O73 1.248 . S
C80 O70 1.260 . S
C80 O74 1.253 . S
C81 O72 1.279 . S
C81 O75 1.250 . S
O82 Mg64 2.030 . S
O82 C76 1.248 . S
O83 Mg66 2.079 . S
O83 C76 1.264 . S
C84 C85 1.349 1_554 S
C84 C86 1.327 . S
C84 H109 0.950 . S
C85 C84 1.349 1_556 S
C85 C101 1.349 . S
C86 C84 1.327 . S
C86 C105 1.429 . S
C86 H110 0.950 . S
C87 C104 1.574 . S
C87 C106 1.368 . S
C87 H111 0.949 . S
H88 C92 0.949 . S
C89 C90 1.349 . S
C89 C91 1.327 . S
C89 H112 0.950 . S
C90 C89 1.349 . S
C90 C102 1.349 . S
C91 C89 1.327 . S
C91 C107 1.429 . S
C91 H113 0.950 . S
C92 H88 0.949 . S
C92 C100 1.574 . S
C92 C108 1.368 . S
H93 C101 0.950 . S
H94 C99 0.950 . S
H95 C100 0.949 . S
H96 C102 0.950 . S
H97 C103 0.950 . S
H98 C104 0.949 . S
C99 H94 0.950 . S
C99 C101 1.327 1_554 S
C99 C105 1.429 . S
C100 C92 1.574 . S
C100 H95 0.949 . S
C100 C106 1.368 . S
C101 C85 1.349 . S
C101 H93 0.950 . S
C101 C99 1.327 1_556 S
C102 C90 1.349 . S
C102 H96 0.950 . S
C102 C103 1.327 . S
C103 H97 0.950 . S
C103 C102 1.327 . S
C103 C107 1.429 . S
C104 C87 1.574 . S
C104 H98 0.949 . S
C104 C108 1.368 . S
C105 C86 1.429 . S
C105 C99 1.429 . S
C105 C106 1.523 . S
C106 C87 1.368 . S
C106 C100 1.368 . S
C106 C105 1.523 . S
C107 C91 1.429 . S
C107 C103 1.429 . S
C107 C108 1.523 . S
C108 C92 1.368 . S
C108 C104 1.368 . S
C108 C107 1.523 . S
H109 C84 0.950 . S
H110 C86 0.950 . S
H111 C87 0.949 . S
H112 C89 0.950 . S
H113 C91 0.950 . S
C114 C115 1.349 . S
C114 C116 1.327 . S
C114 H139 0.950 . S
C115 C114 1.349 . S
C115 C131 1.349 . S
C116 C114 1.327 . S
C116 C135 1.429 . S
C116 H140 0.950 . S
C117 C134 1.574 . S
C117 C136 1.368 1_545 S
C117 H141 0.949 . S
H118 C122 0.949 . S
C119 C120 1.349 . S
C119 C121 1.327 . S
C119 H142 0.950 . S
C120 C119 1.349 . S
C120 C132 1.349 . S
C121 C119 1.327 . S
C121 C137 1.429 . S
C121 H143 0.950 . S
C122 H118 0.949 . S
C122 C130 1.574 . S
C122 C138 1.368 1_565 S
H123 C131 0.950 . S
H124 C129 0.950 1_545 S
H125 C130 0.949 . S
H126 C132 0.950 1_565 S
H127 C133 0.950 . S
H128 C134 0.949 . S
C129 H124 0.950 1_565 S
C129 C131 1.327 . S
C129 C135 1.429 . S
C130 C122 1.574 . S
C130 H125 0.949 . S
C130 C136 1.368 . S
C131 C115 1.349 . S
C131 H123 0.950 . S
C131 C129 1.327 . S
C132 C120 1.349 . S
C132 H126 0.950 1_545 S
C132 C133 1.327 1_545 S
C133 H127 0.950 . S
C133 C132 1.327 1_565 S
C133 C137 1.429 1_565 S
C134 C117 1.574 . S
C134 H128 0.949 . S
C134 C138 1.368 . S
C135 C116 1.429 . S
C135 C129 1.429 . S
C135 C136 1.523 . S
C136 C117 1.368 1_565 S
C136 C130 1.368 . S
C136 C135 1.523 . S
C137 C121 1.429 . S
C137 C133 1.429 1_545 S
C137 C138 1.523 . S
C138 C122 1.368 1_545 S
C138 C134 1.368 . S
C138 C137 1.523 . S
H139 C114 0.950 . S
H140 C116 0.950 . S
H141 C117 0.949 . S
H142 C119 0.950 . S
H143 C121 0.950 . S
C144 C145 1.349 . S
C144 C146 1.327 . S
C144 H169 0.950 . S
C145 C144 1.349 . S
C145 C161 1.349 . S
C146 C144 1.327 . S
C146 C165 1.429 . S
C146 H170 0.950 . S
C147 C164 1.574 . S
C147 C166 1.368 . S
C147 H171 0.949 . S
H148 C152 0.949 . S
C149 C150 1.349 . S
C149 C151 1.327 . S
C149 H172 0.950 . S
C150 C149 1.349 . S
C150 C162 1.349 . S
C151 C149 1.327 . S
C151 C167 1.429 . S
C151 H173 0.950 . S
C152 H148 0.949 . S
C152 C160 1.574 . S
C152 C168 1.368 . S
H153 C161 0.950 . S
H154 C159 0.950 . S
H155 C160 0.949 . S
H156 C162 0.950 . S
H157 C163 0.950 . S
H158 C164 0.949 . S
C159 H154 0.950 . S
C159 C161 1.327 . S
C159 C165 1.429 . S
C160 C152 1.574 . S
C160 H155 0.949 . S
C160 C166 1.368 . S
C161 C145 1.349 . S
C161 H153 0.950 . S
C161 C159 1.327 . S
C162 C150 1.349 . S
C162 H156 0.950 . S
C162 C163 1.327 . S
C163 H157 0.950 . S
C163 C162 1.327 . S
C163 C167 1.429 . S
C164 C147 1.574 . S
C164 H158 0.949 . S
C164 C168 1.368 . S
C165 C146 1.429 . S
C165 C159 1.429 . S
C165 C166 1.523 . S
C166 C147 1.368 . S
C166 C160 1.368 . S
C166 C165 1.523 . S
C167 C151 1.429 . S
C167 C163 1.429 . S
C167 C168 1.523 . S
C168 C152 1.368 . S
C168 C164 1.368 . S
C168 C167 1.523 . S
H169 C144 0.950 . S
H170 C146 0.950 . S
H171 C147 0.949 . S
H172 C149 0.950 . S
H173 C151 0.950 . S
C174 C175 1.349 . S
C174 C176 1.327 1_554 S
C174 H199 0.950 . S
C175 C174 1.349 . S
C175 C191 1.349 1_554 S
C176 C174 1.327 1_556 S
C176 C195 1.429 . S
C176 H200 0.950 1_565 S
C177 C194 1.574 1_565 S
C177 C196 1.368 . S
C177 H201 0.949 . S
H178 C182 0.949 . S
C179 C180 1.349 . S
C179 C181 1.327 . S
C179 H202 0.950 . S
C180 C179 1.349 . S
C180 C192 1.349 . S
C181 C179 1.327 . S
C181 C197 1.429 . S
C181 H203 0.950 . S
C182 H178 0.949 . S
C182 C190 1.574 . S
C182 C198 1.368 . S
H183 C191 0.950 . S
H184 C189 0.950 . S
H185 C190 0.949 . S
H186 C192 0.950 . S
H187 C193 0.950 . S
H188 C194 0.949 . S
C189 H184 0.950 . S
C189 C191 1.327 . S
C189 C195 1.429 . S
C190 C182 1.574 . S
C190 H185 0.949 . S
C190 C196 1.368 1_545 S
C191 C175 1.349 1_556 S
C191 H183 0.950 . S
C191 C189 1.327 . S
C192 C180 1.349 . S
C192 H186 0.950 . S
C192 C193 1.327 . S
C193 H187 0.950 . S
C193 C192 1.327 . S
C193 C197 1.429 . S
C194 C177 1.574 1_545 S
C194 H188 0.949 . S
C194 C198 1.368 . S
C195 C176 1.429 . S
C195 C189 1.429 . S
C195 C196 1.523 . S
C196 C177 1.368 . S
C196 C190 1.368 1_565 S
C196 C195 1.523 . S
C197 C181 1.429 . S
C197 C193 1.429 . S
C197 C198 1.523 . S
C198 C182 1.368 . S
C198 C194 1.368 . S
C198 C197 1.523 . S
H199 C174 0.950 . S
H200 C176 0.950 1_545 S
H201 C177 0.949 . S
H202 C179 0.950 . S
H203 C181 0.950 . S
C204 C205 1.349 . S
C204 C206 1.327 1_655 S
C204 H229 0.950 . S
C205 C204 1.349 . S
C205 C221 1.349 . S
C206 C204 1.327 1_455 S
C206 C225 1.429 . S
C206 H230 0.950 . S
C207 C224 1.574 . S
C207 C226 1.368 . S
C207 H231 0.949 . S
H208 C212 0.949 . S
C209 C210 1.349 . S
C209 C211 1.327 . S
C209 H232 0.950 . S
C210 C209 1.349 . S
C210 C222 1.349 . S
C211 C209 1.327 . S
C211 C227 1.429 . S
C211 H233 0.950 . S
C212 H208 0.949 . S
C212 C220 1.574 . S
C212 C228 1.368 . S
H213 C221 0.950 . S
H214 C219 0.950 . S
H215 C220 0.949 . S
H216 C222 0.950 . S
H217 C223 0.950 . S
H218 C224 0.949 . S
C219 H214 0.950 . S
C219 C221 1.327 1_455 S
C219 C225 1.429 . S
C220 C212 1.574 . S
C220 H215 0.949 . S
C220 C226 1.368 . S
C221 C205 1.349 . S
C221 H213 0.950 . S
C221 C219 1.327 1_655 S
C222 C210 1.349 . S
C222 H216 0.950 . S
C222 C223 1.327 . S
C223 H217 0.950 . S
C223 C222 1.327 . S
C223 C227 1.429 . S
C224 C207 1.574 . S
C224 H218 0.949 . S
C224 C228 1.368 . S
C225 C206 1.429 . S
C225 C219 1.429 . S
C225 C226 1.523 . S
C226 C207 1.368 . S
C226 C220 1.368 . S
C226 C225 1.523 . S
C227 C211 1.429 . S
C227 C223 1.429 . S
C227 C228 1.523 . S
C228 C212 1.368 . S
C228 C224 1.368 . S
C228 C227 1.523 . S
H229 C204 0.950 . S
H230 C206 0.950 . S
H231 C207 0.949 . S
H232 C209 0.950 . S
H233 C211 0.950 . S
C234 C235 1.349 . S
C234 C236 1.327 . S
C234 H259 0.950 . S
C235 C234 1.349 . S
C235 C251 1.349 . S
C236 C234 1.327 . S
C236 C255 1.429 . S
C236 H260 0.950 1_455 S
C237 C254 1.574 . S
C237 C256 1.368 . S
C237 H261 0.949 . S
H238 C242 0.949 . S
C239 C240 1.349 . S
C239 C241 1.327 1_545 S
C239 H262 0.950 . S
C240 C239 1.349 . S
C240 C252 1.349 1_545 S
C241 C239 1.327 1_565 S
C241 C257 1.429 . S
C241 H263 0.950 1_565 S
C242 H238 0.949 . S
C242 C250 1.574 . S
C242 C258 1.368 . S
H243 C251 0.950 . S
H244 C249 0.950 . S
H245 C250 0.949 . S
H246 C252 0.950 . S
H247 C253 0.950 . S
H248 C254 0.949 . S
C249 H244 0.950 . S
C249 C251 1.327 . S
C249 C255 1.429 . S
C250 C242 1.574 . S
C250 H245 0.949 . S
C250 C256 1.368 1_655 S
C251 C235 1.349 . S
C251 H243 0.950 . S
C251 C249 1.327 . S
C252 C240 1.349 1_565 S
C252 H246 0.950 . S
C252 C253 1.327 . S
C253 H247 0.950 . S
C253 C252 1.327 . S
C253 C257 1.429 . S
C254 C237 1.574 . S
C254 H248 0.949 . S
C254 C258 1.368 1_455 S
C255 C236 1.429 . S
C255 C249 1.429 . S
C255 C256 1.523 . S
C256 C237 1.368 . S
C256 C250 1.368 1_455 S
C256 C255 1.523 . S
C257 C241 1.429 . S
C257 C253 1.429 . S
C257 C258 1.523 . S
C258 C242 1.368 . S
C258 C254 1.368 1_655 S
C258 C257 1.523 . S
H259 C234 0.950 . S
H260 C236 0.950 1_655 S
H261 C237 0.949 . S
H262 C239 0.950 . S
H263 C241 0.950 1_545 S
C264 C265 1.349 . S
C264 C266 1.327 . S
C264 H289 0.950 . S
C265 C264 1.349 . S
C265 C281 1.349 . S
C266 C264 1.327 . S
C266 C285 1.429 . S
C266 H290 0.950 . S
C267 C284 1.574 . S
C267 C286 1.368 1_554 S
C267 H291 0.949 . S
H268 C272 0.949 . S
C269 C270 1.349 . S
C269 C271 1.327 . S
C269 H292 0.950 . S
C270 C269 1.349 . S
C270 C282 1.349 1_554 S
C271 C269 1.327 . S
C271 C287 1.429 1_554 S
C271 H293 0.950 . S
C272 H268 0.949 . S
C272 C280 1.574 . S
C272 C288 1.368 . S
H273 C281 0.950 . S
H274 C279 0.950 1_554 S
H275 C280 0.949 . S
H276 C282 0.950 . S
H277 C283 0.950 . S
H278 C284 0.949 . S
C279 H274 0.950 1_556 S
C279 C281 1.327 . S
C279 C285 1.429 . S
C280 C272 1.574 . S
C280 H275 0.949 . S
C280 C286 1.368 . S
C281 C265 1.349 . S
C281 H273 0.950 . S
C281 C279 1.327 . S
C282 C270 1.349 1_556 S
C282 H276 0.950 . S
C282 C283 1.327 . S
C283 H277 0.950 . S
C283 C282 1.327 . S
C283 C287 1.429 . S
C284 C267 1.574 . S
C284 H278 0.949 . S
C284 C288 1.368 1_554 S
C285 C266 1.429 . S
C285 C279 1.429 . S
C285 C286 1.523 . S
C286 C267 1.368 1_556 S
C286 C280 1.368 . S
C286 C285 1.523 . S
C287 C271 1.429 1_556 S
C287 C283 1.429 . S
C287 C288 1.523 . S
C288 C272 1.368 . S
C288 C284 1.368 1_556 S
C288 C287 1.523 . S
H289 C264 0.950 . S
H290 C266 0.950 . S
H291 C267 0.949 . S
H292 C269 0.950 . S
H293 C271 0.950 . S
C294 C295 1.349 . S
C294 C296 1.327 . S
C294 H319 0.950 . S
C295 C294 1.349 . S
C295 C311 1.349 . S
C296 C294 1.327 . S
C296 C315 1.429 . S
C296 H320 0.950 . S
C297 C314 1.574 . S
C297 C316 1.368 . S
C297 H321 0.949 . S
H298 C302 0.949 . S
C299 C300 1.349 1_545 S
C299 C301 1.327 . S
C299 H322 0.950 . S
C300 C299 1.349 1_565 S
C300 C312 1.349 . S
C301 C299 1.327 . S
C301 C317 1.429 . S
C301 H323 0.950 . S
C302 H298 0.949 . S
C302 C310 1.574 . S
C302 C318 1.368 . S
H303 C311 0.950 . S
H304 C309 0.950 . S
H305 C310 0.949 . S
H306 C312 0.950 . S
H307 C313 0.950 1_565 S
H308 C314 0.949 . S
C309 H304 0.950 . S
C309 C311 1.327 . S
C309 C315 1.429 . S
C310 C302 1.574 . S
C310 H305 0.949 . S
C310 C316 1.368 . S
C311 C295 1.349 . S
C311 H303 0.950 . S
C311 C309 1.327 . S
C312 C300 1.349 . S
C312 H306 0.950 . S
C312 C313 1.327 1_565 S
C313 H307 0.950 1_545 S
C313 C312 1.327 1_545 S
C313 C317 1.429 . S
C314 C297 1.574 . S
C314 H308 0.949 . S
C314 C318 1.368 . S
C315 C296 1.429 . S
C315 C309 1.429 . S
C315 C316 1.523 . S
C316 C297 1.368 . S
C316 C310 1.368 . S
C316 C315 1.523 . S
C317 C301 1.429 . S
C317 C313 1.429 . S
C317 C318 1.523 . S
C318 C302 1.368 . S
C318 C314 1.368 . S
C318 C317 1.523 . S
H319 C294 0.950 . S
H320 C296 0.950 . S
H321 C297 0.949 . S
H322 C299 0.950 . S
H323 C301 0.950 . S
C324 C325 1.349 . S
C324 C326 1.327 . S
C324 H349 0.950 . S
C325 C324 1.349 . S
C325 C341 1.349 . S
C326 C324 1.327 . S
C326 C345 1.429 . S
C326 H350 0.950 . S
C327 C344 1.574 . S
C327 C346 1.368 . S
C327 H351 0.949 . S
H328 C332 0.949 . S
C329 C330 1.349 . S
C329 C331 1.327 . S
C329 H352 0.950 . S
C330 C329 1.349 . S
C330 C342 1.349 . S
C331 C329 1.327 . S
C331 C347 1.429 . S
C331 H353 0.950 . S
C332 H328 0.949 . S
C332 C340 1.574 . S
C332 C348 1.368 . S
H333 C341 0.950 . S
H334 C339 0.950 . S
H335 C340 0.949 . S
H336 C342 0.950 . S
H337 C343 0.950 . S
H338 C344 0.949 . S
C339 H334 0.950 . S
C339 C341 1.327 . S
C339 C345 1.429 . S
C340 C332 1.574 . S
C340 H335 0.949 . S
C340 C346 1.368 . S
C341 C325 1.349 . S
C341 H333 0.950 . S
C341 C339 1.327 . S
C342 C330 1.349 . S
C342 H336 0.950 . S
C342 C343 1.327 . S
C343 H337 0.950 . S
C343 C342 1.327 . S
C343 C347 1.429 . S
C344 C327 1.574 . S
C344 H338 0.949 . S
C344 C348 1.368 . S
C345 C326 1.429 . S
C345 C339 1.429 . S
C345 C346 1.523 . S
C346 C327 1.368 . S
C346 C340 1.368 . S
C346 C345 1.523 . S
C347 C331 1.429 . S
C347 C343 1.429 . S
C347 C348 1.523 . S
C348 C332 1.368 . S
C348 C344 1.368 . S
C348 C347 1.523 . S
H349 C324 0.950 . S
H350 C326 0.950 . S
H351 C327 0.949 . S
H352 C329 0.950 . S
H353 C331 0.950 . S
C354 C355 1.349 1_655 S
C354 C356 1.327 . S
C354 H379 0.950 . S
C355 C354 1.349 1_455 S
C355 C371 1.349 . S
C356 C354 1.327 . S
C356 C375 1.429 . S
C356 H380 0.950 . S
C357 C374 1.574 . S
C357 C376 1.368 . S
C357 H381 0.949 1_655 S
H358 C362 0.949 . S
C359 C360 1.349 . S
C359 C361 1.327 . S
C359 H382 0.950 . S
C360 C359 1.349 . S
C360 C372 1.349 . S
C361 C359 1.327 . S
C361 C377 1.429 . S
C361 H383 0.950 . S
C362 H358 0.949 . S
C362 C370 1.574 . S
C362 C378 1.368 . S
H363 C371 0.950 . S
H364 C369 0.950 . S
H365 C370 0.949 . S
H366 C372 0.950 . S
H367 C373 0.950 . S
H368 C374 0.949 . S
C369 H364 0.950 . S
C369 C371 1.327 . S
C369 C375 1.429 1_455 S
C370 C362 1.574 . S
C370 H365 0.949 . S
C370 C376 1.368 . S
C371 C355 1.349 . S
C371 H363 0.950 . S
C371 C369 1.327 . S
C372 C360 1.349 . S
C372 H366 0.950 . S
C372 C373 1.327 . S
C373 H367 0.950 . S
C373 C372 1.327 . S
C373 C377 1.429 . S
C374 C357 1.574 . S
C374 H368 0.949 . S
C374 C378 1.368 . S
C375 C356 1.429 . S
C375 C369 1.429 1_655 S
C375 C376 1.523 . S
C376 C357 1.368 . S
C376 C370 1.368 . S
C376 C375 1.523 . S
C377 C361 1.429 . S
C377 C373 1.429 . S
C377 C378 1.523 . S
C378 C362 1.368 . S
C378 C374 1.368 . S
C378 C377 1.523 . S
H379 C354 0.950 . S
H380 C356 0.950 . S
H381 C357 0.949 1_455 S
H382 C359 0.950 . S
H383 C361 0.950 . S
C384 C385 1.349 1_655 S
C384 C386 1.327 . S
C384 H409 0.950 1_655 S
C385 C384 1.349 1_455 S
C385 C401 1.349 . S
C386 C384 1.327 . S
C386 C405 1.429 . S
C386 H410 0.950 1_556 S
C387 C404 1.574 . S
C387 C406 1.368 . S
C387 H411 0.949 . S
H388 C392 0.949 . S
C389 C390 1.349 . S
C389 C391 1.327 . S
C389 H412 0.950 . S
C390 C389 1.349 . S
C390 C402 1.349 . S
C391 C389 1.327 . S
C391 C407 1.429 . S
C391 H413 0.958 . S
C392 H388 0.949 . S
C392 C400 1.574 . S
C392 C408 1.368 . S
H393 C401 0.950 . S
H394 C399 0.950 . S
H395 C400 0.949 . S
H396 C402 0.950 . S
H397 C403 0.950 . S
H398 C404 0.949 . S
C399 H394 0.950 . S
C399 C401 1.327 1_655 S
C399 C405 1.429 . S
C400 C392 1.574 . S
C400 H395 0.949 . S
C400 C406 1.368 1_554 S
C401 C385 1.349 . S
C401 H393 0.950 . S
C401 C399 1.327 1_455 S
C402 C390 1.349 . S
C402 H396 0.950 . S
C402 C403 1.327 . S
C403 H397 0.950 . S
C403 C402 1.327 . S
C403 C407 1.429 . S
C404 C387 1.574 . S
C404 H398 0.949 . S
C404 C408 1.368 1_556 S
C405 C386 1.429 . S
C405 C399 1.429 . S
C405 C406 1.523 . S
C406 C387 1.368 . S
C406 C400 1.368 1_556 S
C406 C405 1.523 . S
C407 C391 1.429 . S
C407 C403 1.429 . S
C407 C408 1.523 . S
C408 C392 1.368 . S
C408 C404 1.368 1_554 S
C408 C407 1.523 . S
H409 C384 0.950 1_455 S
H410 C386 0.950 1_554 S
H411 C387 0.949 . S
H412 C389 0.950 . S
H413 C391 0.958 . S
C414 C415 1.349 . S
C414 C416 1.327 . S
C414 H439 0.950 . S
C415 C414 1.349 . S
C415 C431 1.349 . S
C416 C414 1.327 . S
C416 C435 1.429 . S
C416 H440 0.950 . S
C417 C434 1.574 . S
C417 C436 1.368 . S
C417 H441 0.949 . S
H418 C422 0.949 . S
C419 C420 1.349 . S
C419 C421 1.327 . S
C419 H442 0.950 . S
C420 C419 1.349 . S
C420 C432 1.349 . S
C421 C419 1.327 . S
C421 C437 1.429 . S
C421 H443 0.950 . S
C422 H418 0.949 . S
C422 C430 1.574 . S
C422 C438 1.368 . S
H423 C431 0.950 . S
H424 C429 0.950 . S
H425 C430 0.949 . S
H426 C432 0.950 . S
H427 C433 0.950 . S
H428 C434 0.949 . S
C429 H424 0.950 . S
C429 C431 1.327 . S
C429 C435 1.429 . S
C430 C422 1.574 . S
C430 H425 0.949 . S
C430 C436 1.368 . S
C431 C415 1.349 . S
C431 H423 0.950 . S
C431 C429 1.327 . S
C432 C420 1.349 . S
C432 H426 0.950 . S
C432 C433 1.327 . S
C433 H427 0.950 . S
C433 C432 1.327 . S
C433 C437 1.429 . S
C434 C417 1.574 . S
C434 H428 0.949 . S
C434 C438 1.368 . S
C435 C416 1.429 . S
C435 C429 1.429 . S
C435 C436 1.523 . S
C436 C417 1.368 . S
C436 C430 1.368 . S
C436 C435 1.523 . S
C437 C421 1.429 . S
C437 C433 1.429 . S
C437 C438 1.523 . S
C438 C422 1.368 . S
C438 C434 1.368 . S
C438 C437 1.523 . S
H439 C414 0.950 . S
H440 C416 0.950 . S
H441 C417 0.949 . S
H442 C419 0.950 . S
H443 C421 0.950 . S
C85 C60 1.427 . S
C90 C16 1.568 . S
C115 C77 1.204 . S
C120 C35 1.197 . S
C145 C55 1.568 . S
C150 C15 1.427 . S
C175 C80 1.197 . S
C180 C38 1.204 . S
C205 C34 1.629 . S
C210 C17 1.719 . S
C235 C57 1.185 . S
C240 C36 1.179 . S
C265 C56 1.719 . S
C270 C79 1.629 . S
C295 C18 1.185 . S
C300 C81 1.179 . S
C325 C39 1.006 . S
C330 C14 1.150 . S
C355 C58 0.745 . S
C360 C37 0.745 . S
C385 C59 1.150 . S
C390 C78 1.006 . S
C415 C76 0.745 . S
C420 C13 0.745 . S
