# Generated by pormake.
# Topology wjp, (5)-cn, num edge types: 1
# Building blocks:
#     Node 0, Type 0, BuildingBlock: BEQFEK_clean_sbu_0, # of connection points: 5
#     Node 1, Type 0, BuildingBlock: BEQFEK_clean_sbu_0, # of connection points: 5
#     Node 2, Type 0, BuildingBlock: BEQFEK_clean_sbu_0, # of connection points: 5
#     Node 3, Type 0, BuildingBlock: BEQFEK_clean_sbu_0, # of connection points: 5
#     Node 4, Type 0, BuildingBlock: BEQFEK_clean_sbu_0, # of connection points: 5
#     Node 5, Type 0, BuildingBlock: BEQFEK_clean_sbu_0, # of connection points: 5
#     Node 6, Type 0, BuildingBlock: BEQFEK_clean_sbu_0, # of connection points: 5
#     Node 7, Type 0, BuildingBlock: BEQFEK_clean_sbu_0, # of connection points: 5
#     Node 8, Type 0, BuildingBlock: BEQFEK_clean_sbu_0, # of connection points: 5
#     Node 9, Type 0, BuildingBlock: BEQFEK_clean_sbu_0, # of connection points: 5
#     Node 10, Type 0, BuildingBlock: BEQFEK_clean_sbu_0, # of connection points: 5
#     Node 11, Type 0, BuildingBlock: BEQFEK_clean_sbu_0, # of connection points: 5
#     Edge 12, Type (0, 0), BuildingBlock: CIFDUS_clean_linker_0, # of connection points: 2
#     Edge 13, Type (0, 0), BuildingBlock: CIFDUS_clean_linker_0, # of connection points: 2
#     Edge 14, Type (0, 0), BuildingBlock: CIFDUS_clean_linker_0, # of connection points: 2
#     Edge 15, Type (0, 0), BuildingBlock: CIFDUS_clean_linker_0, # of connection points: 2
#     Edge 16, Type (0, 0), BuildingBlock: CIFDUS_clean_linker_0, # of connection points: 2
#     Edge 17, Type (0, 0), BuildingBlock: CIFDUS_clean_linker_0, # of connection points: 2
#     Edge 18, Type (0, 0), BuildingBlock: CIFDUS_clean_linker_0, # of connection points: 2
#     Edge 19, Type (0, 0), BuildingBlock: CIFDUS_clean_linker_0, # of connection points: 2
#     Edge 20, Type (0, 0), BuildingBlock: CIFDUS_clean_linker_0, # of connection points: 2
#     Edge 21, Type (0, 0), BuildingBlock: CIFDUS_clean_linker_0, # of connection points: 2
#     Edge 22, Type (0, 0), BuildingBlock: CIFDUS_clean_linker_0, # of connection points: 2
#     Edge 23, Type (0, 0), BuildingBlock: CIFDUS_clean_linker_0, # of connection points: 2
#     Edge 24, Type (0, 0), BuildingBlock: CIFDUS_clean_linker_0, # of connection points: 2
#     Edge 25, Type (0, 0), BuildingBlock: CIFDUS_clean_linker_0, # of connection points: 2
#     Edge 26, Type (0, 0), BuildingBlock: CIFDUS_clean_linker_0, # of connection points: 2
#     Edge 27, Type (0, 0), BuildingBlock: CIFDUS_clean_linker_0, # of connection points: 2
#     Edge 28, Type (0, 0), BuildingBlock: CIFDUS_clean_linker_0, # of connection points: 2
#     Edge 29, Type (0, 0), BuildingBlock: CIFDUS_clean_linker_0, # of connection points: 2
#     Edge 30, Type (0, 0), BuildingBlock: CIFDUS_clean_linker_0, # of connection points: 2
#     Edge 31, Type (0, 0), BuildingBlock: CIFDUS_clean_linker_0, # of connection points: 2
#     Edge 32, Type (0, 0), BuildingBlock: CIFDUS_clean_linker_0, # of connection points: 2
#     Edge 33, Type (0, 0), BuildingBlock: CIFDUS_clean_linker_0, # of connection points: 2
#     Edge 34, Type (0, 0), BuildingBlock: CIFDUS_clean_linker_0, # of connection points: 2
#     Edge 35, Type (0, 0), BuildingBlock: CIFDUS_clean_linker_0, # of connection points: 2
#     Edge 36, Type (0, 0), BuildingBlock: CIFDUS_clean_linker_0, # of connection points: 2
#     Edge 37, Type (0, 0), BuildingBlock: CIFDUS_clean_linker_0, # of connection points: 2
#     Edge 38, Type (0, 0), BuildingBlock: CIFDUS_clean_linker_0, # of connection points: 2
#     Edge 39, Type (0, 0), BuildingBlock: CIFDUS_clean_linker_0, # of connection points: 2
#     Edge 40, Type (0, 0), BuildingBlock: CIFDUS_clean_linker_0, # of connection points: 2
#     Edge 41, Type (0, 0), BuildingBlock: CIFDUS_clean_linker_0, # of connection points: 2
# Relax obj value: 0.475
# Max RMSD: 0.251
# Mean RMSD: 0.251
data_MOF--net-wjp--node1-BEQFEK_clean_sbu_0--edge1-CIFDUS_clean_linker_0
_symmetry_space_group_name_H-M    P1
_symmetry_Int_Tables_number       1
_symmetry_cell_setting            triclinic
loop_
_symmetry_equiv_pos_as_xyz
'x, y, z'
_cell_length_a     37.480019
_cell_length_b     37.508929
_cell_length_c     52.092525
_cell_angle_alpha  89.880541
_cell_angle_beta   90.095078
_cell_angle_gamma 120.0724
loop_
_atom_site_label
_atom_site_type_symbol
_atom_site_fract_x
_atom_site_fract_y
_atom_site_fract_z
_atom_type_partial_charge
Co0 Co 0.25807 0.19457 0.51124 0.0
Co1 Co 0.33152 0.28169 0.50015 0.0
C2 C 0.33844 0.23515 0.5425 0.0
O3 O 0.30161 0.20768 0.53723 0.0
O4 O 0.35755 0.26826 0.52941 0.0
C5 C 0.23552 0.11379 0.51649 0.0
O6 O 0.27593 0.13163 0.51605 0.0
C7 C 0.40868 0.35675 0.48184 0.0
C8 C 0.37976 0.38087 0.45523 0.0
C9 C 0.41763 0.38785 0.46396 0.0
N10 N 0.36737 0.3324 0.48314 0.0
N11 N 0.3505 0.34728 0.46728 0.0
C12 C 0.43845 0.35108 0.49804 0.0
H13 H 0.42353 0.33481 0.5161 0.0
H14 H 0.44878 0.33226 0.48742 0.0
H15 H 0.4659 0.38131 0.5026 0.0
C16 C 0.27482 0.17881 0.45846 0.0
N17 N 0.28078 0.20443 0.47814 0.0
N18 N 0.31518 0.23941 0.4745 0.0
C19 C 0.33364 0.23589 0.4531 0.0
C20 C 0.30844 0.19738 0.4422 0.0
C21 C 0.23935 0.13576 0.45602 0.0
H22 H 0.21241 0.13182 0.46711 0.0
H23 H 0.24894 0.11381 0.46287 0.0
H24 H 0.23028 0.12846 0.43558 0.0
O25 O 0.23033 0.22518 0.51715 0.0
O26 O 0.28361 0.28858 0.5135 0.0
H27 H 0.38696 0.25514 0.42878 0.0
H28 H 0.39754 0.27586 0.46111 0.0
C29 C 0.37609 0.26711 0.44459 0.0
H30 H 0.37601 0.29513 0.43784 0.0
H31 H 0.3188 0.33387 0.4643 0.0
O32 O 0.21887 0.13597 0.51528 0.0
C33 C 0.2455 0.26386 0.51835 0.0
Co34 Co 0.05794 0.26035 0.68051 0.0
Co35 Co 0.04384 0.33236 0.66584 0.0
C36 C 0.09572 0.34164 0.71014 0.0
O37 O 0.08664 0.30478 0.70568 0.0
O38 O 0.08189 0.36001 0.69609 0.0
C39 C 0.11129 0.23386 0.69665 0.0
O40 O 0.13562 0.27372 0.69956 0.0
C41 C 0.04864 0.40817 0.64299 0.0
C42 C 0.99676 0.37757 0.6156 0.0
C43 C 0.02856 0.41569 0.62307 0.0
N44 N 0.02971 0.36713 0.6468 0.0
N45 N -0.00163 0.34929 0.63064 0.0
C46 C 0.08737 0.43896 0.65621 0.0
H47 H 0.10331 0.4237 0.66488 0.0
H48 H 0.10819 0.46318 0.6425 0.0
H49 H 0.0794 0.45406 0.67168 0.0
C50 C 0.09543 0.27549 0.62946 0.0
N51 N 0.07384 0.28198 0.6476 0.0
N52 N 0.07119 0.31466 0.64169 0.0
C53 C 0.09259 0.33088 0.6197 0.0
C54 C 0.10833 0.30635 0.61122 0.0
C55 C 0.10755 0.24311 0.63102 0.0
H56 H 0.08193 0.21431 0.63918 0.0
H57 H 0.13487 0.25414 0.6437 0.0
H58 H 0.11574 0.23657 0.61183 0.0
O59 O -0.00103 0.23287 0.68454 0.0
O60 O 0.98806 0.28513 0.67855 0.0
H61 H 0.07128 0.36782 0.60152 0.0
H62 H 0.122 0.3794 0.59142 0.0
C63 C 0.10077 0.37072 0.60806 0.0
H64 H 0.11444 0.39534 0.62273 0.0
H65 H 0.9792 0.31747 0.62904 0.0
O66 O 0.07524 0.22029 0.68779 0.0
C67 C 0.97484 0.24733 0.68412 0.0
Co68 Co 0.79427 0.07399 0.84559 0.0
Co69 Co 0.70654 0.05816 0.83381 0.0
C70 C 0.75363 0.11704 0.87344 0.0
O71 O 0.78098 0.10736 0.86888 0.0
O72 O 0.71966 0.10058 0.86114 0.0
C73 C 0.87353 0.13714 0.84919 0.0
O74 O 0.85302 0.15674 0.84596 0.0
C75 C 0.63388 0.06002 0.81194 0.0
C76 C 0.60208 -0.00169 0.79406 0.0
C77 C 0.60068 0.03438 0.79626 0.0
N78 N 0.65423 0.04005 0.8181 0.0
N79 N 0.63452 0.00297 0.80772 0.0
C80 C 0.64847 0.10389 0.81885 0.0
H81 H 0.68089 0.1194 0.82561 0.0
H82 H 0.64562 0.12069 0.80213 0.0
H83 H 0.629 0.1047 0.8346 0.0
C84 C 0.80814 0.09752 0.79121 0.0
N85 N 0.78286 0.08134 0.81155 0.0
N86 N 0.74791 0.08039 0.80694 0.0
C87 C 0.75112 0.09841 0.7838 0.0
C88 C 0.78941 0.10983 0.77315 0.0
C89 C 0.85127 0.10496 0.78992 0.0
H90 H 0.85515 0.08382 0.803 0.0
H91 H 0.87328 0.13743 0.79511 0.0
H92 H 0.85867 0.10006 0.7701 0.0
O93 O 0.76451 0.01608 0.85547 0.0
O94 O 0.70139 0.00628 0.85054 0.0
H95 H 0.68942 0.07865 0.77182 0.0
H96 H 0.72847 0.12054 0.75307 0.0
C97 C 0.7197 0.1074 0.7727 0.0
H98 H 0.71693 0.12978 0.78516 0.0
H99 H 0.64438 0.98149 0.809 0.0
O100 O 0.85389 0.09799 0.84973 0.0
C101 C 0.72566 0.99318 0.85727 0.0
Co102 Co 0.73763 0.80036 0.01279 0.0
Co103 Co 0.66817 0.71505 0.99397 0.0
C104 C 0.65275 0.75455 0.03784 0.0
O105 O 0.68976 0.78356 0.03547 0.0
O106 O 0.63752 0.7233 0.02303 0.0
C107 C 0.75758 0.87973 0.02122 0.0
O108 O 0.71741 0.86126 0.01819 0.0
C109 C 0.59173 0.64225 0.97443 0.0
C110 C 0.61761 0.62273 0.94295 0.0
C111 C 0.58096 0.61364 0.95476 0.0
N112 N 0.63294 0.66715 0.97414 0.0
N113 N 0.64812 0.6551 0.95535 0.0
C114 C 0.56337 0.64808 0.99184 0.0
H115 H 0.57301 0.68126 0.99277 0.0
H116 H 0.53092 0.63033 0.98519 0.0
H117 H 0.56565 0.6379 0.01149 0.0
C118 C 0.73337 0.82421 0.95935 0.0
N119 N 0.72155 0.79597 0.97824 0.0
N120 N 0.68898 0.76157 0.9708 0.0
C121 C 0.67752 0.76797 0.94732 0.0
C122 C 0.70558 0.80783 0.93931 0.0
C123 C 0.76981 0.8669 0.96061 0.0
H124 H 0.79319 0.86831 0.97424 0.0
H125 H 0.75938 0.88854 0.96661 0.0
H126 H 0.78438 0.87703 0.94147 0.0
O127 O 0.76451 0.76863 0.01902 0.0
O128 O 0.71448 0.70604 1.00807 0.0
H129 H 0.64641 0.71472 0.92362 0.0
H130 H 0.63079 0.75237 0.91831 0.0
C131 C 0.63985 0.73719 0.9332 0.0
H132 H 0.61407 0.7202 0.94686 0.0
H133 H 0.67937 0.66958 0.95068 0.0
O134 O 0.77512 0.85828 0.02073 0.0
C135 C 0.75085 0.73028 0.0166 0.0
Co136 Co 0.93624 0.73644 0.17254 0.0
Co137 Co 0.94114 0.65711 0.16683 0.0
C138 C 0.88048 0.65443 0.20187 0.0
O139 O 0.89498 0.69203 0.19547 0.0
O140 O 0.89524 0.63305 0.19262 0.0
C141 C 0.88279 0.76452 0.16849 0.0
O142 O 0.85964 0.72474 0.16449 0.0
C143 C 0.93718 0.57792 0.15151 0.0
C144 C 0.99001 0.60454 0.12464 0.0
C145 C 0.95869 0.56767 0.13413 0.0
N146 N 0.95507 0.61929 0.15203 0.0
N147 N 0.98682 0.63479 0.13614 0.0
C148 C 0.8986 0.54902 0.16559 0.0
H149 H 0.8799 0.56382 0.1694 0.0
H150 H 0.88022 0.5202 0.15448 0.0
H151 H 0.90702 0.54094 0.18426 0.0
C152 C 0.91473 0.72259 0.11769 0.0
N153 N 0.92965 0.71484 0.13923 0.0
N154 N 0.92393 0.67739 0.13816 0.0
C155 C 0.90214 0.65897 0.1167 0.0
C156 C 0.89542 0.68703 0.10296 0.0
C157 C 0.91477 0.76187 0.11235 0.0
H158 H 0.93626 0.78678 0.12535 0.0
H159 H 0.88304 0.75671 0.11429 0.0
H160 H 0.92469 0.77178 0.09229 0.0
O161 O 0.99243 0.7587 0.18455 0.0
O162 O 0.99477 0.70082 0.18372 0.0
H163 H 0.91012 0.60873 0.10554 0.0
H164 H 0.86234 0.60418 0.09469 0.0
C165 C 0.88464 0.61425 0.11083 0.0
H166 H 0.86944 0.59566 0.12821 0.0
H167 H 0.00553 0.66622 0.13248 0.0
O168 O 0.92091 0.77928 0.17295 0.0
C169 C 0.01149 0.73927 0.18869 0.0
Co170 Co 0.19411 0.93823 0.3382 0.0
Co171 Co 0.27955 0.94737 0.32874 0.0
C172 C 0.22479 0.88538 0.36528 0.0
O173 O 0.19995 0.89822 0.36019 0.0
O174 O 0.26032 0.9017 0.35487 0.0
C175 C 0.11346 0.88287 0.33535 0.0
O176 O 0.13145 0.86137 0.33011 0.0
C177 C 0.35209 0.9404 0.31249 0.0
C178 C 0.38018 0.99255 0.28513 0.0
C179 C 0.3839 0.96025 0.29487 0.0
N180 N 0.33039 0.96013 0.31295 0.0
N181 N 0.34767 0.99144 0.29674 0.0
C182 C 0.34033 0.90151 0.32689 0.0
H183 H 0.30634 0.88132 0.32687 0.0
H184 H 0.35491 0.88478 0.31844 0.0
H185 H 0.35051 0.90929 0.34713 0.0
C186 C 0.18404 0.92075 0.28287 0.0
N187 N 0.20725 0.93302 0.30429 0.0
N188 N 0.24001 0.92941 0.30105 0.0
C189 C 0.23681 0.91141 0.27799 0.0
C190 C 0.20125 0.90559 0.26569 0.0
C191 C 0.14425 0.92051 0.27936 0.0
H192 H 0.1413 0.94088 0.29352 0.0
H193 H 0.11806 0.88852 0.28117 0.0
H194 H 0.14278 0.93142 0.2598 0.0
O195 O 0.22729 0.99424 0.34946 0.0
O196 O 0.28966 0.00187 0.34495 0.0
H197 H 0.29478 0.92462 0.26244 0.0
H198 H 0.25214 0.87583 0.25234 0.0
C199 C 0.26552 0.89742 0.26874 0.0
H200 H 0.27271 0.88237 0.28467 0.0
H201 H 0.33632 0.01126 0.29297 0.0
O202 O 0.1357 0.92096 0.34023 0.0
C203 C 0.26616 0.01606 0.35129 0.0
Co204 Co 0.79527 0.72473 0.3378 0.0
Co205 Co 0.7118 0.65614 0.35882 0.0
C206 C 0.74776 0.63704 0.31588 0.0
O207 O 0.77448 0.67509 0.3165 0.0
O208 O 0.7194 0.62063 0.3328 0.0
C209 C 0.87239 0.74168 0.3208 0.0
O210 O 0.8532 0.70128 0.32004 0.0
C211 C 0.63579 0.58872 0.38467 0.0
C212 C 0.61956 0.62855 0.40714 0.0
C213 C 0.60695 0.58779 0.40191 0.0
N214 N 0.6641 0.62844 0.38008 0.0
N215 N 0.65415 0.65184 0.39372 0.0
C216 C 0.63532 0.5529 0.37181 0.0
H217 H 0.65119 0.56228 0.353 0.0
H218 H 0.65192 0.54172 0.38409 0.0
H219 H 0.60321 0.52731 0.3691 0.0
C220 C 0.82269 0.72372 0.39053 0.0
N221 N 0.79312 0.71108 0.37249 0.0
N222 N 0.75866 0.6803 0.38144 0.0
C223 C 0.76572 0.67148 0.40548 0.0
C224 C 0.80654 0.69896 0.41202 0.0
C225 C 0.86649 0.75702 0.38656 0.0
H226 H 0.8675 0.78247 0.37512 0.0
H227 H 0.88307 0.74417 0.37589 0.0
H228 H 0.88262 0.76936 0.40508 0.0
O229 O 0.76446 0.75235 0.33089 0.0
O230 O 0.70291 0.69908 0.3399 0.0
H231 H 0.7116 0.64475 0.42869 0.0
H232 H 0.74911 0.63038 0.43804 0.0
C233 C 0.73447 0.63668 0.42144 0.0
H234 H 0.71778 0.60863 0.40944 0.0
H235 H 0.67096 0.68398 0.39365 0.0
O236 O 0.85287 0.75963 0.32774 0.0
C237 C 0.7255 0.73564 0.33125 0.0
Co238 Co 0.0723 0.79759 0.5029 0.0
Co239 Co 0.05912 0.71392 0.52263 0.0
C240 C 0.11216 0.75104 0.47888 0.0
O241 O 0.10097 0.77777 0.48045 0.0
O242 O 0.10048 0.72201 0.4953 0.0
C243 C 0.13341 0.87536 0.48841 0.0
O244 O 0.15396 0.85551 0.48774 0.0
C245 C 0.05963 0.64322 0.54924 0.0
C246 C 0.00904 0.62764 0.57681 0.0
C247 C 0.0388 0.61796 0.56999 0.0
N248 N 0.04302 0.66712 0.54427 0.0
N249 N 0.01254 0.65716 0.56065 0.0
C250 C 0.09677 0.64715 0.53596 0.0
H251 H 0.08659 0.62638 0.51906 0.0
H252 H 0.11682 0.67917 0.52909 0.0
H253 H 0.11445 0.63815 0.54895 0.0
C254 C 0.10424 0.82431 0.55524 0.0
N255 N 0.08536 0.79484 0.5373 0.0
N256 N 0.08376 0.76078 0.54512 0.0
C257 C 0.10354 0.76825 0.56796 0.0
C258 C 0.11684 0.80869 0.57514 0.0
C259 C 0.11355 0.86787 0.55244 0.0
H260 H 0.0894 0.86909 0.54081 0.0
H261 H 0.14387 0.88626 0.54289 0.0
H262 H 0.11541 0.8819 0.57148 0.0
O263 O 0.01345 0.76617 0.49692 0.0
O264 O 0.0054 0.70463 0.50578 0.0
H265 H 0.08291 0.71347 0.5901 0.0
H266 H 0.1347 0.75347 0.59752 0.0
C267 C 0.11205 0.73833 0.58178 0.0
H268 H 0.12388 0.72418 0.56804 0.0
H269 H 0.99508 0.67177 0.56141 0.0
O270 O 0.09517 0.85571 0.49376 0.0
C271 C 0.99101 0.72722 0.49771 0.0
Co272 Co 0.2553 0.06074 0.69903 0.0
Co273 Co 0.33097 0.05041 0.69399 0.0
C274 C 0.33076 0.11433 0.66415 0.0
O275 O 0.2957 0.10136 0.6745 0.0
O276 O 0.352 0.0972 0.669 0.0
C277 C 0.24001 0.12145 0.71206 0.0
O278 O 0.28012 0.13919 0.71522 0.0
C279 C 0.41078 0.05256 0.70344 0.0
C280 C 0.38714 0.98603 0.70919 0.0
C281 C 0.42273 0.02407 0.70957 0.0
N282 N 0.36963 0.03217 0.69987 0.0
N283 N 0.35594 0.9924 0.70307 0.0
C284 C 0.43849 0.09787 0.69969 0.0
H285 H 0.42067 0.11271 0.69358 0.0
H286 H 0.45538 0.11214 0.71772 0.0
H287 H 0.46191 0.10314 0.68489 0.0
C288 C 0.27656 0.07311 0.75251 0.0
N289 N 0.28102 0.0597 0.72951 0.0
N290 N 0.31889 0.0671 0.72677 0.0
C291 C 0.34085 0.08945 0.74736 0.0
C292 C 0.31482 0.09472 0.76422 0.0
C293 C 0.23725 0.07018 0.76164 0.0
H294 H 0.21119 0.05037 0.74876 0.0
H295 H 0.24091 0.10134 0.76318 0.0
H296 H 0.22993 0.05637 0.78113 0.0
O297 O 0.22585 0.00696 0.684 0.0
O298 O 0.2804 -0.00036 0.6781 0.0
H299 H 0.39768 0.12605 0.76818 0.0
H300 H 0.40107 0.13194 0.73362 0.0
C301 C 0.3866 0.10966 0.7496 0.0
H302 H 0.39579 0.08589 0.74816 0.0
H303 H 0.32498 0.96958 0.70176 0.0
O304 O 0.21983 0.08382 0.70542 0.0
C305 C 0.24163 0.98609 0.67586 0.0
Co306 Co 0.19631 0.25531 0.84571 0.0
Co307 Co 0.28291 0.32978 0.85749 0.0
C308 C 0.23569 0.33601 0.81476 0.0
O309 O 0.20844 0.29922 0.82018 0.0
O310 O 0.26933 0.35486 0.82741 0.0
C311 C 0.11586 0.23307 0.83984 0.0
O312 O 0.13431 0.27341 0.84148 0.0
C313 C 0.35705 0.40874 0.87401 0.0
C314 C 0.38083 0.38395 0.90383 0.0
C315 C 0.38772 0.42025 0.89251 0.0
N316 N 0.33307 0.3674 0.87457 0.0
N317 N 0.34776 0.35295 0.89231 0.0
C318 C 0.34868 0.43649 0.8576 0.0
H319 H 0.31504 0.42269 0.85442 0.0
H320 H 0.36122 0.46732 0.86655 0.0
H321 H 0.36366 0.4402 0.83866 0.0
C322 C 0.17943 0.27017 0.89872 0.0
N323 N 0.20532 0.27763 0.87892 0.0
N324 N 0.23985 0.31235 0.8829 0.0
C325 C 0.2358 0.32949 0.90474 0.0
C326 C 0.19739 0.30312 0.91558 0.0
C327 C 0.13659 0.23397 0.90043 0.0
H328 H 0.13358 0.20804 0.88867 0.0
H329 H 0.11424 0.24324 0.89386 0.0
H330 H 0.12878 0.22319 0.92054 0.0
O331 O 0.22871 0.22875 0.84012 0.0
O332 O 0.29158 0.28241 0.84566 0.0
H333 H 0.29412 0.37033 0.92172 0.0
H334 H 0.25428 0.38192 0.92975 0.0
C335 C 0.26696 0.37136 0.91419 0.0
H336 H 0.27744 0.39363 0.89803 0.0
H337 H 0.33447 0.3218 0.89701 0.0
O338 O 0.13752 0.21578 0.84106 0.0
C339 C 0.26759 0.24438 0.8403 0.0
Co340 Co 0.92448 0.19599 1.00519 0.0
Co341 Co 0.94806 0.28361 0.02395 0.0
C342 C 0.89354 0.24791 0.97926 0.0
O343 O 0.89858 0.21712 0.98178 0.0
O344 O 0.91066 0.2786 0.99446 0.0
C345 C 0.86117 0.11821 0.99147 0.0
O346 O 0.84173 0.13897 0.9888 0.0
C347 C 0.94582 0.35559 0.04482 0.0
C348 C 0.99617 0.37807 0.0734 0.0
C349 C 0.96554 0.38478 0.0639 0.0
N350 N 0.96386 0.33242 0.04326 0.0
N351 N 0.99415 0.34629 0.06023 0.0
C352 C 0.90817 0.34724 0.03002 0.0
H353 H 0.88619 0.31358 0.02945 0.0
H354 H 0.89285 0.36314 0.03861 0.0
H355 H 0.91716 0.35808 1.00998 0.0
C356 C 0.89356 0.1733 0.05785 0.0
N357 N 0.91227 0.20151 0.03921 0.0
N358 N 0.91948 0.23771 0.04729 0.0
C359 C 0.90404 0.23309 0.07137 0.0
C360 C 0.88731 0.19212 0.07872 0.0
C361 C 0.881 0.12872 0.05563 0.0
H362 H 0.90455 0.12537 0.04476 0.0
H363 H 0.85112 0.11223 0.04534 0.0
H364 H 0.87691 0.11415 0.07476 0.0
O365 O 0.98373 0.22369 1.00004 0.0
O366 O 0.00142 0.28802 0.01025 0.0
H367 H 0.9365 0.2884 0.09317 0.0
H368 H 0.88463 0.25426 0.10417 0.0
C369 C 0.90449 0.26675 0.08692 0.0
H370 H 0.89368 0.284 0.075 0.0
H371 H 0.01262 0.33317 0.06336 0.0
O372 O 0.89915 0.13727 0.99746 0.0
C373 C 0.01081 0.26152 1.00227 0.0
Co374 Co 0.72549 0.92608 0.16697 0.0
Co375 Co 0.65311 0.9367 0.18658 0.0
C376 C 0.63949 0.88444 0.14236 0.0
O377 O 0.67749 0.89592 0.14427 0.0
O378 O 0.62186 0.89634 0.1583 0.0
C379 C 0.74555 0.86793 0.15181 0.0
O380 O 0.70516 0.84581 0.15211 0.0
C381 C 0.57767 0.93296 0.20774 0.0
C382 C 0.60551 0.97954 0.23852 0.0
C383 C 0.56819 0.95141 0.22763 0.0
N384 N 0.61885 0.94942 0.20705 0.0
N385 N 0.63521 0.97738 0.2254 0.0
C386 C 0.54827 0.89832 0.19092 0.0
H387 H 0.55788 0.87481 0.18965 0.0
H388 H 0.51626 0.88377 0.19833 0.0
H389 H 0.54934 0.91034 0.17128 0.0
C390 C 0.72276 0.89688 0.21969 0.0
N391 N 0.70953 0.91264 0.20124 0.0
N392 N 0.67696 0.9138 0.20939 0.0
C393 C 0.66748 0.89709 0.23322 0.0
C394 C 0.69649 0.88625 0.24053 0.0
C395 C 0.75841 0.8897 0.21674 0.0
H396 H 0.78324 0.91499 0.2054 0.0
H397 H 0.74786 0.86022 0.20644 0.0
H398 H 0.77093 0.88752 0.23559 0.0
O399 O 0.7507 0.98507 0.1612 0.0
O400 O 0.69637 0.99139 0.17079 0.0
H401 H 0.63819 0.9201 0.25779 0.0
H402 H 0.62318 0.86713 0.26365 0.0
C403 C 0.63096 0.89068 0.24846 0.0
H404 H 0.60404 0.8811 0.23561 0.0
H405 H 0.66675 0.99447 0.22926 0.0
O406 O 0.76308 0.90587 0.15775 0.0
C407 C 0.73339 0.00672 0.16262 0.0
H408 H 0.59404 0.51273 0.41867 0.0
H409 H 0.53436 0.58482 0.40888 0.0
H410 H 0.47157 0.53009 0.42818 0.0
H411 H 0.43362 0.4624 0.44794 0.0
H412 H 0.491 0.38814 0.45701 0.0
H413 H 0.55477 0.44318 0.4383 0.0
C414 C 0.56703 0.51604 0.42037 0.0
C415 C 0.56866 0.55255 0.41206 0.0
C416 C 0.53088 0.48442 0.43178 0.0
C417 C 0.53383 0.55697 0.41509 0.0
C418 C 0.49792 0.52574 0.42615 0.0
C419 C 0.46011 0.45822 0.44593 0.0
C420 C 0.45772 0.42152 0.45441 0.0
C421 C 0.49618 0.48949 0.43466 0.0
C422 C 0.4923 0.41658 0.45154 0.0
C423 C 0.52865 0.44786 0.44044 0.0
H424 H 0.04187 0.48729 0.64436 0.0
H425 H 0.03841 0.43017 0.57204 0.0
H426 H 0.04703 0.49077 0.54889 0.0
H427 H 0.04775 0.55672 0.54914 0.0
H428 H 0.04439 0.61078 0.62133 0.0
H429 H 0.04662 0.55526 0.64465 0.0
C430 C 0.04395 0.48869 0.62358 0.0
C431 C 0.03971 0.45467 0.60985 0.0
C432 C 0.0473 0.52299 0.61039 0.0
C433 C 0.04157 0.4562 0.58292 0.0
C434 C 0.04642 0.49074 0.5697 0.0
C435 C 0.0485 0.55671 0.56996 0.0
C436 C 0.04617 0.5877 0.58357 0.0
C437 C 0.04821 0.52388 0.58319 0.0
C438 C 0.04617 0.58706 0.61053 0.0
C439 C 0.04737 0.55534 0.62385 0.0
H440 H 0.46534 0.06993 0.75058 0.0
H441 H 0.46689 0.9909 0.69122 0.0
H442 H 0.52525 0.99047 0.712 0.0
H443 H 0.57059 0.00663 0.74908 0.0
H444 H 0.56578 0.08102 0.81053 0.0
H445 H 0.51446 0.08994 0.78677 0.0
C446 C 0.47947 0.05381 0.74184 0.0
C447 C 0.46262 0.03107 0.71922 0.0
C448 C 0.51198 0.05248 0.75445 0.0
C449 C 0.47993 0.00898 0.70846 0.0
C450 C 0.513 0.00851 0.72042 0.0
C451 C 0.55854 0.02505 0.75724 0.0
C452 C 0.57218 0.04328 0.78151 0.0
C453 C 0.52841 0.02913 0.74379 0.0
C454 C 0.55649 0.06729 0.79171 0.0
C455 C 0.52682 0.07208 0.77821 0.0
H456 H 0.54929 0.59214 0.90694 0.0
H457 H 0.52174 0.55733 0.98648 0.0
H458 H 0.45756 0.49552 0.97413 0.0
H459 H 0.4123 0.44876 0.94049 0.0
H460 H 0.43901 0.48371 0.86092 0.0
H461 H 0.50028 0.54842 0.8734 0.0
C462 C 0.52886 0.57121 0.92152 0.0
C463 C 0.53996 0.57921 0.94756 0.0
C464 C 0.49204 0.53583 0.91425 0.0
C465 C 0.51343 0.55206 0.96636 0.0
C466 C 0.47694 0.5166 0.95928 0.0
C467 C 0.43131 0.47086 0.92593 0.0
C468 C 0.42128 0.46165 0.89985 0.0
C469 C 0.46635 0.50782 0.93328 0.0
C470 C 0.44588 0.49045 0.88112 0.0
C471 C 0.48107 0.52723 0.88825 0.0
H472 H 0.955 0.40116 0.11289 0.0
H473 H 0.95776 0.44056 0.03478 0.0
H474 H 0.95201 0.49928 0.04981 0.0
H475 H 0.9528 0.54261 0.08533 0.0
H476 H 0.94759 0.50255 0.16349 0.0
H477 H 0.94694 0.44026 0.14842 0.0
C478 C 0.95379 0.42242 0.09925 0.0
C479 C 0.95696 0.41695 0.07284 0.0
C480 C 0.95008 0.45578 0.10805 0.0
C481 C 0.95509 0.44424 0.05519 0.0
C482 C 0.95201 0.47782 0.06378 0.0
C483 C 0.9508 0.51979 0.09899 0.0
C484 C 0.95046 0.52693 0.12541 0.0
C485 C 0.95038 0.48433 0.09016 0.0
C486 C 0.94758 0.49731 0.14305 0.0
C487 C 0.94757 0.46199 0.13443 0.0
H488 H 0.53925 0.94155 0.27604 0.0
H489 H 0.50778 0.94892 0.19735 0.0
H490 H 0.44551 0.94898 0.21137 0.0
H491 H 0.40393 0.95371 0.24626 0.0
H492 H 0.43424 0.94482 0.32495 0.0
H493 H 0.49297 0.9381 0.31081 0.0
C494 C 0.5183 0.9425 0.26202 0.0
C495 C 0.5278 0.94516 0.23575 0.0
C496 C 0.48265 0.94247 0.27025 0.0
C497 C 0.50065 0.94631 0.21765 0.0
C498 C 0.4653 0.94668 0.22567 0.0
C499 C 0.42313 0.94968 0.26023 0.0
C500 C 0.41515 0.94988 0.28654 0.0
C501 C 0.45655 0.94574 0.25193 0.0
C502 C 0.43981 0.9444 0.30459 0.0
C503 C 0.47346 0.94086 0.29651 0.0
H504 H 0.10525 0.92617 0.50303 0.0
H505 H 0.21333 0.92566 0.47483 0.0
H506 H 0.25477 -0.00033 0.48194 0.0
H507 H 0.261 0.06335 0.49819 0.0
H508 H 0.15331 0.06486 0.52589 0.0
H509 H 0.11088 0.991 0.51736 0.0
C510 C 0.13772 0.94236 0.49807 0.0
C511 C 0.15632 0.92056 0.48861 0.0
C512 C 0.1615 0.98471 0.50261 0.0
C513 C 0.1984 0.94184 0.48229 0.0
C514 C 0.22217 0.98405 0.48648 0.0
C515 C 0.22831 0.04745 0.5026 0.0
C516 C 0.21027 0.06913 0.51297 0.0
C517 C 0.20419 0.00552 0.49716 0.0
C518 C 0.16779 0.04849 0.51807 0.0
C519 C 0.14356 0.00644 0.51308 0.0
H520 H 0.1843 0.25287 0.71802 0.0
H521 H 0.07302 0.15156 0.68643 0.0
H522 H 0.10193 0.10633 0.69099 0.0
H523 H 0.16093 0.0975 0.70026 0.0
H524 H 0.27302 0.19951 0.73048 0.0
H525 H 0.24132 0.24259 0.73037 0.0
C526 C 0.16626 0.22083 0.71228 0.0
C527 C 0.12692 0.20566 0.70158 0.0
C528 C 0.18319 0.19524 0.71462 0.0
C529 C 0.10359 0.16398 0.69456 0.0
C530 C 0.12007 0.13813 0.69712 0.0
C531 C 0.17825 0.129 0.70711 0.0
C532 C 0.21933 0.14557 0.71499 0.0
C533 C 0.16017 0.15373 0.70658 0.0
C534 C 0.24142 0.18629 0.72399 0.0
C535 C 0.22338 0.21093 0.72393 0.0
H536 H 0.06339 0.262 0.84442 0.0
H537 H 0.06702 0.14925 0.83673 0.0
H538 H 0.99181 0.10917 0.83977 0.0
H539 H 0.92535 0.10657 0.84473 0.0
H540 H 0.92298 0.21998 0.85283 0.0
H541 H -0.00216 0.25951 0.84976 0.0
C542 C 0.04782 0.22866 0.84328 0.0
C543 C 0.07062 0.20858 0.84028 0.0
C544 C 0.00495 0.20598 0.84532 0.0
C545 C 0.05001 0.16538 0.83897 0.0
C546 C 0.0071 0.14247 0.84079 0.0
C547 C 0.94128 0.1399 0.84602 0.0
C548 C 0.91878 0.16035 0.84899 0.0
C549 C 0.98431 0.1625 0.84408 0.0
C550 C 0.93968 0.20354 0.85047 0.0
C551 C 0.98244 0.22619 0.84868 0.0
H552 H 0.73194 0.93066 1.00364 0.0
H553 H 0.83912 0.92903 0.03258 0.0
H554 H 0.88161 0.00291 0.02417 0.0
H555 H 0.88794 0.06731 1.00837 0.0
H556 H 0.78059 0.06812 0.97877 0.0
H557 H 0.7385 0.99441 0.98704 0.0
C558 C 0.7645 0.94653 1.00843 0.0
C559 C 0.78241 0.92469 0.01892 0.0
C560 C 0.78873 0.98846 1.00295 0.0
C561 C 0.82472 0.94543 0.02461 0.0
C562 C 0.849 0.98749 0.01965 0.0
C563 C 0.85544 0.05129 1.00344 0.0
C564 C 0.83734 0.07306 0.99305 0.0
C565 C 0.83134 0.00917 1.00862 0.0
C566 C 0.7952 0.05197 0.98683 0.0
C567 C 0.77107 0.00994 0.9917 0.0
H568 H 0.82419 0.89489 0.16725 0.0
H569 H 0.7198 0.79369 0.12974 0.0
H570 H 0.75451 0.75348 0.13056 0.0
H571 H 0.81132 0.74488 0.14521 0.0
H572 H 0.91564 0.8448 0.18347 0.0
H573 H 0.88404 0.88798 0.17907 0.0
C574 C 0.80944 0.86434 0.15885 0.0
C575 C 0.76945 0.84703 0.14869 0.0
C576 C 0.82917 0.84105 0.15988 0.0
C577 C 0.75049 0.80742 0.13791 0.0
C578 C 0.7702 0.78438 0.13843 0.0
C579 C 0.82719 0.77611 0.15261 0.0
C580 C 0.8653 0.79151 0.16504 0.0
C581 C 0.80897 0.80048 0.15001 0.0
C582 C 0.886 0.83227 0.17402 0.0
C583 C 0.868 0.85691 0.17149 0.0
H584 H 0.06194 0.8088 0.31479 0.0
H585 H 0.06494 0.91479 0.34938 0.0
H586 H 0.98995 0.88163 0.34546 0.0
H587 H 0.92377 0.82088 0.33464 0.0
H588 H 0.92148 0.71466 0.30086 0.0
H589 H 0.99659 0.75013 0.30166 0.0
C590 C 0.04624 0.82468 0.32152 0.0
C591 C 0.06866 0.86382 0.3327 0.0
C592 C 0.0035 0.80558 0.31921 0.0
C593 C 0.04809 0.88439 0.3409 0.0
C594 C 0.00535 0.86553 0.33863 0.0
C595 C 0.93974 0.80575 0.3271 0.0
C596 C 0.9173 0.76519 0.31791 0.0
C597 C 0.98276 0.82593 0.32809 0.0
C598 C 0.93824 0.74583 0.30822 0.0
C599 C 0.98109 0.76598 0.30874 0.0
H600 H 0.32462 0.05763 0.38842 0.0
H601 H 0.24297 0.06939 0.33515 0.0
H602 H 0.25522 0.13253 0.35615 0.0
H603 H 0.27905 0.17708 0.39407 0.0
H604 H 0.35775 0.16441 0.449 0.0
H605 H 0.35751 0.10977 0.42305 0.0
C606 C 0.31071 0.07487 0.38099 0.0
C607 C 0.28276 0.05884 0.36038 0.0
C608 C 0.31699 0.1108 0.39372 0.0
C609 C 0.26442 0.0811 0.35109 0.0
C610 C 0.27127 0.11713 0.36315 0.0
C611 C 0.29741 0.16338 0.39973 0.0
C612 C 0.31872 0.1748 0.42311 0.0
C613 C 0.29604 0.13128 0.38511 0.0
C614 C 0.34171 0.15639 0.43075 0.0
C615 C 0.34113 0.12483 0.41607 0.0
H616 H 0.2623 0.32642 0.55198 0.0
H617 H 0.16567 0.23274 0.50545 0.0
H618 H 0.11429 0.2428 0.52775 0.0
H619 H 0.09551 0.26922 0.56532 0.0
H620 H 0.19065 0.36032 0.61353 0.0
H621 H 0.24386 0.3609 0.58582 0.0
C622 C 0.23019 0.30932 0.5462 0.0
C623 C 0.21773 0.2787 0.52723 0.0
C624 C 0.20042 0.31438 0.55974 0.0
C625 C 0.17593 0.25631 0.52012 0.0
C626 C 0.14647 0.26188 0.53295 0.0
C627 C 0.12795 0.29017 0.56913 0.0
C628 C 0.13942 0.31486 0.59115 0.0
C629 C 0.15811 0.28947 0.55351 0.0
C630 C 0.18137 0.34144 0.59639 0.0
C631 C 0.2117 0.34146 0.58069 0.0
H632 H 0.8171 0.09638 0.72852 0.0
H633 H 0.81423 0.19138 0.773 0.0
H634 H 0.86824 0.24451 0.7459 0.0
H635 H 0.92477 0.26341 0.71445 0.0
H636 H 0.92866 0.16702 0.67181 0.0
H637 H 0.86567 0.11524 0.69269 0.0
C638 C 0.82738 0.12872 0.73161 0.0
C639 C 0.81188 0.14014 0.75255 0.0
C640 C 0.85919 0.15893 0.71644 0.0
C641 C 0.82557 0.18202 0.75673 0.0
C642 C 0.85677 0.21237 0.74142 0.0
C643 C 0.91095 0.23123 0.70915 0.0
C644 C 0.93152 0.21902 0.69178 0.0
C645 C 0.8751 0.20123 0.72188 0.0
C646 C 0.91355 0.17713 0.68528 0.0
C647 C 0.8776 0.14743 0.69729 0.0
H648 H 0.75846 0.94323 0.85507 0.0
H649 H 0.65637 0.95089 0.88678 0.0
H650 H 0.63677 0.88919 0.91272 0.0
H651 H 0.65495 0.83894 0.93074 0.0
H652 H 0.75677 0.83167 0.89847 0.0
H653 H 0.76979 0.88665 0.86802 0.0
C654 C 0.73148 0.93095 0.86733 0.0
C655 C 0.70923 0.95193 0.86926 0.0
C656 C 0.7204 0.89549 0.8821 0.0
C657 C 0.67402 0.93536 0.88496 0.0
C658 C 0.66295 0.90018 0.8999 0.0
C659 C 0.67895 0.84848 0.91637 0.0
C660 C 0.70482 0.83133 0.91664 0.0
C661 C 0.68666 0.88071 0.89921 0.0
C662 C 0.73631 0.84427 0.89833 0.0
C663 C 0.74401 0.87598 0.88114 0.0
H664 H 0.7366 0.6684 0.05027 0.0
H665 H 0.82908 0.76056 1.00089 0.0
H666 H 0.88203 0.7497 0.02055 0.0
H667 H 0.90389 0.72251 0.05639 0.0
H668 H 0.81303 0.63439 0.10819 0.0
H669 H 0.75775 0.63419 0.08292 0.0
C670 C 0.76809 0.68495 0.0433 0.0
C671 C 0.77899 0.71512 0.02412 0.0
C672 C 0.79884 0.67959 0.05541 0.0
C673 C 0.82005 0.73709 0.01559 0.0
C674 C 0.85038 0.73108 0.02693 0.0
C675 C 0.87187 0.70245 0.06165 0.0
C676 C 0.86247 0.67844 0.08399 0.0
C677 C 0.84047 0.70369 0.04755 0.0
C678 C 0.82094 0.65269 0.0908 0.0
C679 C 0.78935 0.65297 0.07652 0.0
H680 H 0.06941 0.81874 0.18057 0.0
H681 H 0.04601 0.71125 0.22402 0.0
H682 H 0.10841 0.75306 0.24956 0.0
H683 H 0.16343 0.82232 0.26357 0.0
H684 H 0.18562 0.92915 0.21996 0.0
H685 H 0.13059 0.88554 0.19 0.0
C686 C 0.07844 0.80433 0.19531 0.0
C687 C 0.05289 0.76212 0.20067 0.0
C688 C 0.11418 0.82854 0.20985 0.0
C689 C 0.06516 0.74369 0.21957 0.0
C690 C 0.10072 0.76765 0.23425 0.0
C691 C 0.1572 0.83568 0.24687 0.0
C692 C 0.17857 0.87876 0.24374 0.0
C693 C 0.12472 0.81037 0.23011 0.0
C694 C 0.16979 0.89602 0.22246 0.0
C695 C 0.13802 0.87113 0.20555 0.0
H696 H 0.94117 0.76004 0.49718 0.0
H697 H 0.94702 0.65343 0.47261 0.0
H698 H 0.88515 0.63118 0.44625 0.0
H699 H 0.83604 0.64833 0.42513 0.0
H700 H 0.83187 0.75572 0.44965 0.0
H701 H 0.88588 0.77115 0.48138 0.0
C702 C 0.9284 0.73146 0.48647 0.0
C703 C 0.94897 0.7087 0.48658 0.0
C704 C 0.89318 0.71918 0.47123 0.0
C705 C 0.93179 0.67149 0.47286 0.0
C706 C 0.89657 0.65894 0.45763 0.0
C707 C 0.8461 0.67421 0.4381 0.0
C708 C 0.83009 0.70085 0.43529 0.0
C709 C 0.87788 0.68333 0.45595 0.0
C710 C 0.84362 0.73472 0.45177 0.0
C711 C 0.87473 0.74371 0.4697 0.0
H712 H 0.09755 0.83676 0.61724 0.0
H713 H 0.19923 0.8373 0.57875 0.0
H714 H 0.24802 0.89014 0.60846 0.0
H715 H 0.26171 0.94209 0.64231 0.0
H716 H 0.1584 0.94109 0.67964 0.0
H717 H 0.11057 0.88256 0.65388 0.0
C718 C 0.13034 0.84776 0.6159 0.0
C719 C 0.14498 0.83324 0.59614 0.0
C720 C 0.158 0.87854 0.63267 0.0
C721 C 0.18745 0.84789 0.59415 0.0
C722 C 0.21528 0.87831 0.61096 0.0
C723 C 0.22877 0.92854 0.64511 0.0
C724 C 0.21384 0.94653 0.66266 0.0
C725 C 0.201 0.8948 0.62988 0.0
C726 C 0.17093 0.92845 0.66603 0.0
C727 C 0.14338 0.89484 0.6513 0.0
H728 H 0.32815 0.25646 0.80613 0.0
H729 H 0.24186 0.16925 0.86049 0.0
H730 H 0.25683 0.11662 0.84534 0.0
H731 H 0.28539 0.09211 0.81204 0.0
H732 H 0.36533 0.17644 0.75428 0.0
H733 H 0.36345 0.23345 0.77566 0.0
C734 C 0.31366 0.22629 0.81509 0.0
C735 C 0.28394 0.21667 0.83438 0.0
C736 C 0.32125 0.19548 0.80552 0.0
C737 C 0.26477 0.17726 0.84557 0.0
C738 C 0.27325 0.14711 0.83688 0.0
C739 C 0.30341 0.12324 0.80465 0.0
C740 C 0.32547 0.13001 0.78168 0.0
C741 C 0.30017 0.15536 0.81621 0.0
C742 C 0.34864 0.17047 0.7722 0.0
C743 C 0.34696 0.20301 0.78419 0.0
H744 H 0.06412 0.32706 0.97257 0.0
H745 H 0.05194 0.22176 0.0138 0.0
H746 H 0.11479 0.23073 0.99391 0.0
H747 H 0.16632 0.26113 0.9597 0.0
H748 H 0.17562 0.36232 0.91535 0.0
H749 H 0.122 0.36334 0.94175 0.0
C750 C 0.07605 0.30698 0.97772 0.0
C751 C 0.05344 0.27374 0.99456 0.0
C752 C 0.11161 0.3114 0.9654 0.0
C753 C 0.0688 0.24746 1.00081 0.0
C754 C 0.10466 0.25248 0.98938 0.0
C755 C 0.15733 0.28411 0.95637 0.0
C756 C 0.17469 0.31155 0.93571 0.0
C757 C 0.12534 0.28325 0.97089 0.0
C758 C 0.16287 0.34117 0.93138 0.0
C759 C 0.13186 0.34139 0.94628 0.0
H760 H 0.81548 0.06023 0.16464 0.0
H761 H 0.70166 0.04753 0.13615 0.0
H762 H 0.7403 0.11001 0.11023 0.0
H763 H 0.80666 0.16094 0.09025 0.0
H764 H 0.9199 0.17285 0.11892 0.0
H765 H 0.88159 0.11869 0.15063 0.0
C766 C 0.79916 0.07175 0.15322 0.0
C767 C 0.75584 0.04906 0.152 0.0
C768 C 0.82158 0.10751 0.13835 0.0
C769 C 0.735 0.06448 0.13739 0.0
C770 C 0.75711 0.10005 0.12243 0.0
C771 C 0.82285 0.15274 0.10422 0.0
C772 C 0.86592 0.17085 0.10255 0.0
C773 C 0.80042 0.12089 0.12201 0.0
C774 C 0.88679 0.15961 0.12025 0.0
C775 C 0.86484 0.12831 0.13811 0.0
H776 H 0.75808 0.81815 0.32877 0.0
H777 H 0.65184 0.70385 0.30567 0.0
H778 H 0.62951 0.74161 0.27765 0.0
H779 H 0.64648 0.80654 0.25487 0.0
H780 H 0.75341 0.91998 0.27805 0.0
H781 H 0.76899 0.88345 0.31117 0.0
C782 C 0.72958 0.80156 0.31799 0.0
C783 C 0.70695 0.75826 0.31899 0.0
C784 C 0.71726 0.8234 0.30181 0.0
C785 C 0.66981 0.73719 0.30521 0.0
C786 C 0.65721 0.75876 0.28904 0.0
C787 C 0.67235 0.82323 0.26779 0.0
C788 C 0.69889 0.86574 0.26419 0.0
C789 C 0.6815 0.80177 0.28649 0.0
C790 C 0.73261 0.88725 0.2807 0.0
C791 C 0.74166 0.86633 0.29945 0.0
H792 H 0.33549 0.24969 0.59263 0.0
H793 H 0.38125 0.19496 0.53915 0.0
H794 H 0.3901 0.15601 0.57398 0.0
H795 H 0.37137 0.12757 0.61816 0.0
H796 H 0.32137 0.18035 0.6704 0.0
H797 H 0.32837 0.23033 0.63806 0.0
C798 C 0.34925 0.23073 0.58891 0.0
C799 C 0.35844 0.22565 0.5636 0.0
C800 C 0.3526 0.20728 0.60886 0.0
C801 C 0.37494 0.19999 0.55869 0.0
C802 C 0.37937 0.17725 0.57855 0.0
C803 C 0.36333 0.15091 0.62263 0.0
C804 C 0.34534 0.14991 0.64649 0.0
C805 C 0.36636 0.1791 0.60353 0.0
C806 C 0.33476 0.18014 0.65203 0.0
C807 C 0.33868 0.20875 0.63352 0.0
H808 H 0.17647 0.36675 0.71006 0.0
H809 H 0.07872 0.35695 0.75819 0.0
H810 H 0.11888 0.36193 0.79656 0.0
H811 H 0.17477 0.35393 0.81565 0.0
H812 H 0.27092 0.36011 0.76745 0.0
H813 H 0.23904 0.37231 0.72978 0.0
C814 C 0.16499 0.36785 0.72898 0.0
C815 C 0.12501 0.36218 0.73138 0.0
C816 C 0.18768 0.36912 0.75086 0.0
C817 C 0.10976 0.36233 0.75591 0.0
C818 C 0.13249 0.36445 0.77782 0.0
C819 C 0.18954 0.35961 0.79701 0.0
C820 C 0.22522 0.35643 0.79422 0.0
C821 C 0.17047 0.36569 0.77548 0.0
C822 C 0.24387 0.36311 0.77004 0.0
C823 C 0.22534 0.36963 0.7485 0.0
H824 H 0.81642 0.195 0.87319 0.0
H825 H 0.71489 0.10714 0.91927 0.0
H826 H 0.74691 0.14879 0.95768 0.0
H827 H 0.8113 0.20036 0.9787 0.0
H828 H 0.91467 0.28514 0.93269 0.0
H829 H 0.87429 0.25562 0.89355 0.0
C830 C 0.80055 0.18603 0.89151 0.0
C831 C 0.76345 0.14819 0.89355 0.0
C832 C 0.81986 0.20949 0.9135 0.0
C833 C 0.74317 0.13642 0.91727 0.0
C834 C 0.7618 0.16 0.93925 0.0
C835 C 0.82407 0.21377 0.96011 0.0
C836 C 0.86567 0.2451 0.95846 0.0
C837 C 0.80117 0.19531 0.93775 0.0
C838 C 0.88249 0.26165 0.93437 0.0
C839 C 0.85957 0.24423 0.912 0.0
H840 H 0.62581 0.80858 0.03694 0.0
H841 H 0.62899 0.7158 0.08403 0.0
H842 H 0.61346 0.7438 0.12213 0.0
H843 H 0.61582 0.80418 0.14253 0.0
H844 H 0.61841 0.89995 0.09557 0.0
H845 H 0.61319 0.86082 0.0568 0.0
C846 C 0.62105 0.79337 0.05539 0.0
C847 C 0.62805 0.75998 0.05777 0.0
C848 C 0.61356 0.81061 0.07723 0.0
C849 C 0.62292 0.74099 0.08175 0.0
C850 C 0.61458 0.7574 0.10355 0.0
C851 C 0.61295 0.8153 0.12383 0.0
C852 C 0.61698 0.8546 0.12181 0.0
C853 C 0.61207 0.79349 0.10167 0.0
C854 C 0.61444 0.86941 0.09755 0.0
C855 C 0.61223 0.84732 0.07539 0.0
H856 H 0.86533 0.61235 0.24771 0.0
H857 H 0.81113 0.65577 0.1917 0.0
H858 H 0.75547 0.64241 0.22118 0.0
H859 H 0.73146 0.63325 0.2656 0.0
H860 H 0.78656 0.59332 0.32288 0.0
H861 H 0.83125 0.58879 0.29039 0.0
C862 C 0.84051 0.61746 0.24177 0.0
C863 C 0.84262 0.63563 0.21774 0.0
C864 C 0.80868 0.61042 0.2592 0.0
C865 C 0.81046 0.64241 0.21027 0.0
C866 C 0.77855 0.63474 0.22712 0.0
C867 C 0.7515 0.62115 0.27061 0.0
C868 C 0.75531 0.61309 0.29648 0.0
C869 C 0.77846 0.6207 0.25204 0.0
C870 C 0.78233 0.5987 0.30295 0.0
C871 C 0.80862 0.59707 0.28443 0.0
H872 H 0.25316 0.87203 0.41106 0.0
H873 H 0.15736 0.81361 0.35424 0.0
H874 H 0.11605 0.75745 0.38376 0.0
H875 H 0.10065 0.7343 0.42844 0.0
H876 H 0.19451 0.79272 0.48614 0.0
H877 H 0.24343 0.83832 0.45377 0.0
C878 C 0.22402 0.84613 0.40492 0.0
C879 C 0.208 0.84716 0.38067 0.0
C880 C 0.19984 0.81395 0.42232 0.0
C881 C 0.17002 0.81364 0.37295 0.0
C882 C 0.1463 0.78151 0.38985 0.0
C883 C 0.13256 0.7553 0.43358 0.0
C884 C 0.14411 0.75984 0.45952 0.0
C885 C 0.15991 0.78248 0.415 0.0
C886 C 0.1852 0.78803 0.46615 0.0
C887 C 0.21295 0.81477 0.44769 0.0
loop_
_geom_bond_atom_site_label_1
_geom_bond_atom_site_label_2
_geom_bond_distance
_geom_bond_site_symmetry_2
_ccdc_geom_bond_type
Co0 O3 1.970 . S
Co0 N17 1.989 . S
Co0 O25 1.967 . S
Co0 O32 1.920 . S
Co1 O4 1.966 . S
Co1 N10 2.022 . S
Co1 N18 1.993 . S
Co1 O26 1.941 . S
C2 O3 1.258 . S
C2 O4 1.263 . S
O3 Co0 1.970 . S
O3 C2 1.258 . S
O4 Co1 1.966 . S
O4 C2 1.263 . S
C5 O6 1.235 . S
C5 O32 1.289 . S
O6 C5 1.235 . S
C7 C9 1.400 . S
C7 N10 1.351 . S
C7 C12 1.501 . S
C8 C9 1.387 . S
C8 N11 1.341 . S
C9 C7 1.400 . S
C9 C8 1.387 . S
N10 Co1 2.022 . S
N10 C7 1.351 . S
N10 N11 1.365 . S
N11 C8 1.341 . S
N11 N10 1.365 . S
N11 H31 0.862 . S
C12 C7 1.501 . S
C12 H13 0.961 . S
C12 H14 0.961 . S
C12 H15 0.960 . S
H13 C12 0.961 . S
H14 C12 0.961 . S
H15 C12 0.960 . S
C16 N17 1.342 . S
C16 C20 1.401 . S
C16 C21 1.499 . S
N17 Co0 1.989 . S
N17 C16 1.342 . S
N17 N18 1.388 . S
N18 Co1 1.993 . S
N18 N17 1.388 . S
N18 C19 1.346 . S
C19 N18 1.346 . S
C19 C20 1.396 . S
C19 C29 1.510 . S
C20 C16 1.401 . S
C20 C19 1.396 . S
C21 C16 1.499 . S
C21 H22 0.959 . S
C21 H23 0.960 . S
C21 H24 0.961 . S
H22 C21 0.959 . S
H23 C21 0.960 . S
H24 C21 0.961 . S
O25 Co0 1.967 . S
O25 C33 1.258 . S
O26 Co1 1.941 . S
O26 C33 1.266 . S
H27 C29 0.959 . S
H28 C29 0.961 . S
C29 C19 1.510 . S
C29 H27 0.959 . S
C29 H28 0.961 . S
C29 H30 0.960 . S
H30 C29 0.960 . S
H31 N11 0.862 . S
O32 Co0 1.920 . S
O32 C5 1.289 . S
C33 O25 1.258 . S
C33 O26 1.266 . S
Co34 O37 1.970 . S
Co34 N51 1.989 . S
Co34 O59 1.967 . S
Co34 O66 1.920 . S
Co35 O38 1.966 . S
Co35 N44 2.022 . S
Co35 N52 1.993 . S
Co35 O60 1.941 . S
C36 O37 1.258 . S
C36 O38 1.263 . S
O37 Co34 1.970 . S
O37 C36 1.258 . S
O38 Co35 1.966 . S
O38 C36 1.263 . S
C39 O40 1.235 . S
C39 O66 1.289 . S
O40 C39 1.235 . S
C41 C43 1.400 . S
C41 N44 1.351 . S
C41 C46 1.501 . S
C42 C43 1.387 . S
C42 N45 1.341 . S
C43 C41 1.400 . S
C43 C42 1.387 . S
N44 Co35 2.022 . S
N44 C41 1.351 . S
N44 N45 1.365 . S
N45 C42 1.341 . S
N45 N44 1.365 . S
N45 H65 0.862 . S
C46 C41 1.501 . S
C46 H47 0.961 . S
C46 H48 0.961 . S
C46 H49 0.960 . S
H47 C46 0.961 . S
H48 C46 0.961 . S
H49 C46 0.960 . S
C50 N51 1.342 . S
C50 C54 1.401 . S
C50 C55 1.499 . S
N51 Co34 1.989 . S
N51 C50 1.342 . S
N51 N52 1.388 . S
N52 Co35 1.993 . S
N52 N51 1.388 . S
N52 C53 1.346 . S
C53 N52 1.346 . S
C53 C54 1.396 . S
C53 C63 1.510 . S
C54 C50 1.401 . S
C54 C53 1.396 . S
C55 C50 1.499 . S
C55 H56 0.959 . S
C55 H57 0.960 . S
C55 H58 0.961 . S
H56 C55 0.959 . S
H57 C55 0.960 . S
H58 C55 0.961 . S
O59 Co34 1.967 . S
O59 C67 1.258 . S
O60 Co35 1.941 . S
O60 C67 1.266 . S
H61 C63 0.959 . S
H62 C63 0.961 . S
C63 C53 1.510 . S
C63 H61 0.959 . S
C63 H62 0.961 . S
C63 H64 0.960 . S
H64 C63 0.960 . S
H65 N45 0.862 . S
O66 Co34 1.920 . S
O66 C39 1.289 . S
C67 O59 1.258 . S
C67 O60 1.266 . S
Co68 O71 1.970 . S
Co68 N85 1.989 . S
Co68 O93 1.967 . S
Co68 O100 1.920 . S
Co69 O72 1.966 . S
Co69 N78 2.022 . S
Co69 N86 1.993 . S
Co69 O94 1.941 . S
C70 O71 1.258 . S
C70 O72 1.263 . S
O71 Co68 1.970 . S
O71 C70 1.258 . S
O72 Co69 1.966 . S
O72 C70 1.263 . S
C73 O74 1.235 . S
C73 O100 1.289 . S
O74 C73 1.235 . S
C75 C77 1.400 . S
C75 N78 1.351 . S
C75 C80 1.501 . S
C76 C77 1.387 . S
C76 N79 1.341 . S
C77 C75 1.400 . S
C77 C76 1.387 . S
N78 Co69 2.022 . S
N78 C75 1.351 . S
N78 N79 1.365 . S
N79 C76 1.341 . S
N79 N78 1.365 . S
N79 H99 0.862 . S
C80 C75 1.501 . S
C80 H81 0.961 . S
C80 H82 0.961 . S
C80 H83 0.960 . S
H81 C80 0.961 . S
H82 C80 0.961 . S
H83 C80 0.960 . S
C84 N85 1.342 . S
C84 C88 1.401 . S
C84 C89 1.499 . S
N85 Co68 1.989 . S
N85 C84 1.342 . S
N85 N86 1.388 . S
N86 Co69 1.993 . S
N86 N85 1.388 . S
N86 C87 1.346 . S
C87 N86 1.346 . S
C87 C88 1.396 . S
C87 C97 1.510 . S
C88 C84 1.401 . S
C88 C87 1.396 . S
C89 C84 1.499 . S
C89 H90 0.959 . S
C89 H91 0.960 . S
C89 H92 0.961 . S
H90 C89 0.959 . S
H91 C89 0.960 . S
H92 C89 0.961 . S
O93 Co68 1.967 . S
O93 C101 1.258 . S
O94 Co69 1.941 . S
O94 C101 1.266 . S
H95 C97 0.959 . S
H96 C97 0.961 . S
C97 C87 1.510 . S
C97 H95 0.959 . S
C97 H96 0.961 . S
C97 H98 0.960 . S
H98 C97 0.960 . S
H99 N79 0.862 . S
O100 Co68 1.920 . S
O100 C73 1.289 . S
C101 O93 1.258 . S
C101 O94 1.266 . S
Co102 O105 1.970 1_556 S
Co102 N119 1.989 . S
Co102 O127 1.967 . S
Co102 O134 1.920 . S
Co103 O106 1.966 . S
Co103 N112 2.022 . S
Co103 N120 1.993 . S
Co103 O128 1.941 . S
C104 O105 1.258 . S
C104 O106 1.263 1_554 S
O105 Co102 1.970 1_554 S
O105 C104 1.258 . S
O106 Co103 1.966 . S
O106 C104 1.263 1_556 S
C107 O108 1.235 . S
C107 O134 1.289 . S
O108 C107 1.235 . S
C109 C111 1.400 . S
C109 N112 1.351 . S
C109 C114 1.501 . S
C110 C111 1.387 . S
C110 N113 1.341 . S
C111 C109 1.400 . S
C111 C110 1.387 . S
N112 Co103 2.022 . S
N112 C109 1.351 . S
N112 N113 1.365 . S
N113 C110 1.341 . S
N113 N112 1.365 . S
N113 H133 0.862 . S
C114 C109 1.501 . S
C114 H115 0.961 . S
C114 H116 0.961 . S
C114 H117 0.960 . S
H115 C114 0.961 . S
H116 C114 0.961 . S
H117 C114 0.960 . S
C118 N119 1.342 . S
C118 C122 1.401 . S
C118 C123 1.499 . S
N119 Co102 1.989 . S
N119 C118 1.342 . S
N119 N120 1.388 . S
N120 Co103 1.993 . S
N120 N119 1.388 . S
N120 C121 1.346 . S
C121 N120 1.346 . S
C121 C122 1.396 . S
C121 C131 1.510 . S
C122 C118 1.401 . S
C122 C121 1.396 . S
C123 C118 1.499 . S
C123 H124 0.959 . S
C123 H125 0.960 . S
C123 H126 0.961 . S
H124 C123 0.959 . S
H125 C123 0.960 . S
H126 C123 0.961 . S
O127 Co102 1.967 . S
O127 C135 1.258 . S
O128 Co103 1.941 . S
O128 C135 1.266 . S
H129 C131 0.959 . S
H130 C131 0.961 . S
C131 C121 1.510 . S
C131 H129 0.959 . S
C131 H130 0.961 . S
C131 H132 0.960 . S
H132 C131 0.960 . S
H133 N113 0.862 . S
O134 Co102 1.920 . S
O134 C107 1.289 . S
C135 O127 1.258 . S
C135 O128 1.266 . S
Co136 O139 1.970 . S
Co136 N153 1.989 . S
Co136 O161 1.967 . S
Co136 O168 1.920 . S
Co137 O140 1.966 . S
Co137 N146 2.022 . S
Co137 N154 1.993 . S
Co137 O162 1.941 . S
C138 O139 1.258 . S
C138 O140 1.263 . S
O139 Co136 1.970 . S
O139 C138 1.258 . S
O140 Co137 1.966 . S
O140 C138 1.263 . S
C141 O142 1.235 . S
C141 O168 1.289 . S
O142 C141 1.235 . S
C143 C145 1.400 . S
C143 N146 1.351 . S
C143 C148 1.501 . S
C144 C145 1.387 . S
C144 N147 1.341 . S
C145 C143 1.400 . S
C145 C144 1.387 . S
N146 Co137 2.022 . S
N146 C143 1.351 . S
N146 N147 1.365 . S
N147 C144 1.341 . S
N147 N146 1.365 . S
N147 H167 0.862 . S
C148 C143 1.501 . S
C148 H149 0.961 . S
C148 H150 0.961 . S
C148 H151 0.960 . S
H149 C148 0.961 . S
H150 C148 0.961 . S
H151 C148 0.960 . S
C152 N153 1.342 . S
C152 C156 1.401 . S
C152 C157 1.499 . S
N153 Co136 1.989 . S
N153 C152 1.342 . S
N153 N154 1.388 . S
N154 Co137 1.993 . S
N154 N153 1.388 . S
N154 C155 1.346 . S
C155 N154 1.346 . S
C155 C156 1.396 . S
C155 C165 1.510 . S
C156 C152 1.401 . S
C156 C155 1.396 . S
C157 C152 1.499 . S
C157 H158 0.959 . S
C157 H159 0.960 . S
C157 H160 0.961 . S
H158 C157 0.959 . S
H159 C157 0.960 . S
H160 C157 0.961 . S
O161 Co136 1.967 . S
O161 C169 1.258 . S
O162 Co137 1.941 . S
O162 C169 1.266 . S
H163 C165 0.959 . S
H164 C165 0.961 . S
C165 C155 1.510 . S
C165 H163 0.959 . S
C165 H164 0.961 . S
C165 H166 0.960 . S
H166 C165 0.960 . S
H167 N147 0.862 . S
O168 Co136 1.920 . S
O168 C141 1.289 . S
C169 O161 1.258 . S
C169 O162 1.266 . S
Co170 O173 1.970 . S
Co170 N187 1.989 . S
Co170 O195 1.967 . S
Co170 O202 1.920 . S
Co171 O174 1.966 . S
Co171 N180 2.022 . S
Co171 N188 1.993 . S
Co171 O196 1.941 . S
C172 O173 1.258 . S
C172 O174 1.263 . S
O173 Co170 1.970 . S
O173 C172 1.258 . S
O174 Co171 1.966 . S
O174 C172 1.263 . S
C175 O176 1.235 . S
C175 O202 1.289 . S
O176 C175 1.235 . S
C177 C179 1.400 . S
C177 N180 1.351 . S
C177 C182 1.501 . S
C178 C179 1.387 . S
C178 N181 1.341 . S
C179 C177 1.400 . S
C179 C178 1.387 . S
N180 Co171 2.022 . S
N180 C177 1.351 . S
N180 N181 1.365 . S
N181 C178 1.341 . S
N181 N180 1.365 . S
N181 H201 0.862 . S
C182 C177 1.501 . S
C182 H183 0.961 . S
C182 H184 0.961 . S
C182 H185 0.960 . S
H183 C182 0.961 . S
H184 C182 0.961 . S
H185 C182 0.960 . S
C186 N187 1.342 . S
C186 C190 1.401 . S
C186 C191 1.499 . S
N187 Co170 1.989 . S
N187 C186 1.342 . S
N187 N188 1.388 . S
N188 Co171 1.993 . S
N188 N187 1.388 . S
N188 C189 1.346 . S
C189 N188 1.346 . S
C189 C190 1.396 . S
C189 C199 1.510 . S
C190 C186 1.401 . S
C190 C189 1.396 . S
C191 C186 1.499 . S
C191 H192 0.959 . S
C191 H193 0.960 . S
C191 H194 0.961 . S
H192 C191 0.959 . S
H193 C191 0.960 . S
H194 C191 0.961 . S
O195 Co170 1.967 . S
O195 C203 1.258 . S
O196 Co171 1.941 . S
O196 C203 1.266 . S
H197 C199 0.959 . S
H198 C199 0.961 . S
C199 C189 1.510 . S
C199 H197 0.959 . S
C199 H198 0.961 . S
C199 H200 0.960 . S
H200 C199 0.960 . S
H201 N181 0.862 . S
O202 Co170 1.920 . S
O202 C175 1.289 . S
C203 O195 1.258 . S
C203 O196 1.266 . S
Co204 O207 1.970 . S
Co204 N221 1.989 . S
Co204 O229 1.967 . S
Co204 O236 1.920 . S
Co205 O208 1.966 . S
Co205 N214 2.022 . S
Co205 N222 1.993 . S
Co205 O230 1.941 . S
C206 O207 1.258 . S
C206 O208 1.263 . S
O207 Co204 1.970 . S
O207 C206 1.258 . S
O208 Co205 1.966 . S
O208 C206 1.263 . S
C209 O210 1.235 . S
C209 O236 1.289 . S
O210 C209 1.235 . S
C211 C213 1.400 . S
C211 N214 1.351 . S
C211 C216 1.501 . S
C212 C213 1.387 . S
C212 N215 1.341 . S
C213 C211 1.400 . S
C213 C212 1.387 . S
N214 Co205 2.022 . S
N214 C211 1.351 . S
N214 N215 1.365 . S
N215 C212 1.341 . S
N215 N214 1.365 . S
N215 H235 0.862 . S
C216 C211 1.501 . S
C216 H217 0.961 . S
C216 H218 0.961 . S
C216 H219 0.960 . S
H217 C216 0.961 . S
H218 C216 0.961 . S
H219 C216 0.960 . S
C220 N221 1.342 . S
C220 C224 1.401 . S
C220 C225 1.499 . S
N221 Co204 1.989 . S
N221 C220 1.342 . S
N221 N222 1.388 . S
N222 Co205 1.993 . S
N222 N221 1.388 . S
N222 C223 1.346 . S
C223 N222 1.346 . S
C223 C224 1.396 . S
C223 C233 1.510 . S
C224 C220 1.401 . S
C224 C223 1.396 . S
C225 C220 1.499 . S
C225 H226 0.959 . S
C225 H227 0.960 . S
C225 H228 0.961 . S
H226 C225 0.959 . S
H227 C225 0.960 . S
H228 C225 0.961 . S
O229 Co204 1.967 . S
O229 C237 1.258 . S
O230 Co205 1.941 . S
O230 C237 1.266 . S
H231 C233 0.959 . S
H232 C233 0.961 . S
C233 C223 1.510 . S
C233 H231 0.959 . S
C233 H232 0.961 . S
C233 H234 0.960 . S
H234 C233 0.960 . S
H235 N215 0.862 . S
O236 Co204 1.920 . S
O236 C209 1.289 . S
C237 O229 1.258 . S
C237 O230 1.266 . S
Co238 O241 1.970 . S
Co238 N255 1.989 . S
Co238 O263 1.967 . S
Co238 O270 1.920 . S
Co239 O242 1.966 . S
Co239 N248 2.022 . S
Co239 N256 1.993 . S
Co239 O264 1.941 . S
C240 O241 1.258 . S
C240 O242 1.263 . S
O241 Co238 1.970 . S
O241 C240 1.258 . S
O242 Co239 1.966 . S
O242 C240 1.263 . S
C243 O244 1.235 . S
C243 O270 1.289 . S
O244 C243 1.235 . S
C245 C247 1.400 . S
C245 N248 1.351 . S
C245 C250 1.501 . S
C246 C247 1.387 . S
C246 N249 1.341 . S
C247 C245 1.400 . S
C247 C246 1.387 . S
N248 Co239 2.022 . S
N248 C245 1.351 . S
N248 N249 1.365 . S
N249 C246 1.341 . S
N249 N248 1.365 . S
N249 H269 0.862 . S
C250 C245 1.501 . S
C250 H251 0.961 . S
C250 H252 0.961 . S
C250 H253 0.960 . S
H251 C250 0.961 . S
H252 C250 0.961 . S
H253 C250 0.960 . S
C254 N255 1.342 . S
C254 C258 1.401 . S
C254 C259 1.499 . S
N255 Co238 1.989 . S
N255 C254 1.342 . S
N255 N256 1.388 . S
N256 Co239 1.993 . S
N256 N255 1.388 . S
N256 C257 1.346 . S
C257 N256 1.346 . S
C257 C258 1.396 . S
C257 C267 1.510 . S
C258 C254 1.401 . S
C258 C257 1.396 . S
C259 C254 1.499 . S
C259 H260 0.959 . S
C259 H261 0.960 . S
C259 H262 0.961 . S
H260 C259 0.959 . S
H261 C259 0.960 . S
H262 C259 0.961 . S
O263 Co238 1.967 . S
O263 C271 1.258 . S
O264 Co239 1.941 . S
O264 C271 1.266 . S
H265 C267 0.959 . S
H266 C267 0.961 . S
C267 C257 1.510 . S
C267 H265 0.959 . S
C267 H266 0.961 . S
C267 H268 0.960 . S
H268 C267 0.960 . S
H269 N249 0.862 . S
O270 Co238 1.920 . S
O270 C243 1.289 . S
C271 O263 1.258 . S
C271 O264 1.266 . S
Co272 O275 1.970 . S
Co272 N289 1.989 . S
Co272 O297 1.967 . S
Co272 O304 1.920 . S
Co273 O276 1.966 . S
Co273 N282 2.022 . S
Co273 N290 1.993 . S
Co273 O298 1.941 . S
C274 O275 1.258 . S
C274 O276 1.263 . S
O275 Co272 1.970 . S
O275 C274 1.258 . S
O276 Co273 1.966 . S
O276 C274 1.263 . S
C277 O278 1.235 . S
C277 O304 1.289 . S
O278 C277 1.235 . S
C279 C281 1.400 . S
C279 N282 1.351 . S
C279 C284 1.501 . S
C280 C281 1.387 . S
C280 N283 1.341 . S
C281 C279 1.400 . S
C281 C280 1.387 . S
N282 Co273 2.022 . S
N282 C279 1.351 . S
N282 N283 1.365 . S
N283 C280 1.341 . S
N283 N282 1.365 . S
N283 H303 0.862 . S
C284 C279 1.501 . S
C284 H285 0.961 . S
C284 H286 0.961 . S
C284 H287 0.960 . S
H285 C284 0.961 . S
H286 C284 0.961 . S
H287 C284 0.960 . S
C288 N289 1.342 . S
C288 C292 1.401 . S
C288 C293 1.499 . S
N289 Co272 1.989 . S
N289 C288 1.342 . S
N289 N290 1.388 . S
N290 Co273 1.993 . S
N290 N289 1.388 . S
N290 C291 1.346 . S
C291 N290 1.346 . S
C291 C292 1.396 . S
C291 C301 1.510 . S
C292 C288 1.401 . S
C292 C291 1.396 . S
C293 C288 1.499 . S
C293 H294 0.959 . S
C293 H295 0.960 . S
C293 H296 0.961 . S
H294 C293 0.959 . S
H295 C293 0.960 . S
H296 C293 0.961 . S
O297 Co272 1.967 . S
O297 C305 1.258 . S
O298 Co273 1.941 . S
O298 C305 1.266 . S
H299 C301 0.959 . S
H300 C301 0.961 . S
C301 C291 1.510 . S
C301 H299 0.959 . S
C301 H300 0.961 . S
C301 H302 0.960 . S
H302 C301 0.960 . S
H303 N283 0.862 . S
O304 Co272 1.920 . S
O304 C277 1.289 . S
C305 O297 1.258 . S
C305 O298 1.266 . S
Co306 O309 1.970 . S
Co306 N323 1.989 . S
Co306 O331 1.967 . S
Co306 O338 1.920 . S
Co307 O310 1.966 . S
Co307 N316 2.022 . S
Co307 N324 1.993 . S
Co307 O332 1.941 . S
C308 O309 1.258 . S
C308 O310 1.263 . S
O309 Co306 1.970 . S
O309 C308 1.258 . S
O310 Co307 1.966 . S
O310 C308 1.263 . S
C311 O312 1.235 . S
C311 O338 1.289 . S
O312 C311 1.235 . S
C313 C315 1.400 . S
C313 N316 1.351 . S
C313 C318 1.501 . S
C314 C315 1.387 . S
C314 N317 1.341 . S
C315 C313 1.400 . S
C315 C314 1.387 . S
N316 Co307 2.022 . S
N316 C313 1.351 . S
N316 N317 1.365 . S
N317 C314 1.341 . S
N317 N316 1.365 . S
N317 H337 0.862 . S
C318 C313 1.501 . S
C318 H319 0.961 . S
C318 H320 0.961 . S
C318 H321 0.960 . S
H319 C318 0.961 . S
H320 C318 0.961 . S
H321 C318 0.960 . S
C322 N323 1.342 . S
C322 C326 1.401 . S
C322 C327 1.499 . S
N323 Co306 1.989 . S
N323 C322 1.342 . S
N323 N324 1.388 . S
N324 Co307 1.993 . S
N324 N323 1.388 . S
N324 C325 1.346 . S
C325 N324 1.346 . S
C325 C326 1.396 . S
C325 C335 1.510 . S
C326 C322 1.401 . S
C326 C325 1.396 . S
C327 C322 1.499 . S
C327 H328 0.959 . S
C327 H329 0.960 . S
C327 H330 0.961 . S
H328 C327 0.959 . S
H329 C327 0.960 . S
H330 C327 0.961 . S
O331 Co306 1.967 . S
O331 C339 1.258 . S
O332 Co307 1.941 . S
O332 C339 1.266 . S
H333 C335 0.959 . S
H334 C335 0.961 . S
C335 C325 1.510 . S
C335 H333 0.959 . S
C335 H334 0.961 . S
C335 H336 0.960 . S
H336 C335 0.960 . S
H337 N317 0.862 . S
O338 Co306 1.920 . S
O338 C311 1.289 . S
C339 O331 1.258 . S
C339 O332 1.266 . S
Co340 O343 1.970 1_554 S
Co340 N357 1.989 . S
Co340 O365 1.967 . S
Co340 O372 1.920 . S
Co341 O344 1.966 . S
Co341 N350 2.022 . S
Co341 N358 1.993 . S
Co341 O366 1.941 . S
C342 O343 1.258 . S
C342 O344 1.263 1_556 S
O343 Co340 1.970 1_556 S
O343 C342 1.258 . S
O344 Co341 1.966 . S
O344 C342 1.263 1_554 S
C345 O346 1.235 . S
C345 O372 1.289 . S
O346 C345 1.235 . S
C347 C349 1.400 . S
C347 N350 1.351 . S
C347 C352 1.501 . S
C348 C349 1.387 . S
C348 N351 1.341 . S
C349 C347 1.400 . S
C349 C348 1.387 . S
N350 Co341 2.022 . S
N350 C347 1.351 . S
N350 N351 1.365 . S
N351 C348 1.341 . S
N351 N350 1.365 . S
N351 H371 0.862 . S
C352 C347 1.501 . S
C352 H353 0.961 . S
C352 H354 0.961 . S
C352 H355 0.960 . S
H353 C352 0.961 . S
H354 C352 0.961 . S
H355 C352 0.960 . S
C356 N357 1.342 . S
C356 C360 1.401 . S
C356 C361 1.499 . S
N357 Co340 1.989 . S
N357 C356 1.342 . S
N357 N358 1.388 . S
N358 Co341 1.993 . S
N358 N357 1.388 . S
N358 C359 1.346 . S
C359 N358 1.346 . S
C359 C360 1.396 . S
C359 C369 1.510 . S
C360 C356 1.401 . S
C360 C359 1.396 . S
C361 C356 1.499 . S
C361 H362 0.959 . S
C361 H363 0.960 . S
C361 H364 0.961 . S
H362 C361 0.959 . S
H363 C361 0.960 . S
H364 C361 0.961 . S
O365 Co340 1.967 . S
O365 C373 1.258 . S
O366 Co341 1.941 . S
O366 C373 1.266 . S
H367 C369 0.959 . S
H368 C369 0.961 . S
C369 C359 1.510 . S
C369 H367 0.959 . S
C369 H368 0.961 . S
C369 H370 0.960 . S
H370 C369 0.960 . S
H371 N351 0.862 . S
O372 Co340 1.920 . S
O372 C345 1.289 . S
C373 O365 1.258 . S
C373 O366 1.266 . S
Co374 O377 1.970 . S
Co374 N391 1.989 . S
Co374 O399 1.967 . S
Co374 O406 1.920 . S
Co375 O378 1.966 . S
Co375 N384 2.022 . S
Co375 N392 1.993 . S
Co375 O400 1.941 . S
C376 O377 1.258 . S
C376 O378 1.263 . S
O377 Co374 1.970 . S
O377 C376 1.258 . S
O378 Co375 1.966 . S
O378 C376 1.263 . S
C379 O380 1.235 . S
C379 O406 1.289 . S
O380 C379 1.235 . S
C381 C383 1.400 . S
C381 N384 1.351 . S
C381 C386 1.501 . S
C382 C383 1.387 . S
C382 N385 1.341 . S
C383 C381 1.400 . S
C383 C382 1.387 . S
N384 Co375 2.022 . S
N384 C381 1.351 . S
N384 N385 1.365 . S
N385 C382 1.341 . S
N385 N384 1.365 . S
N385 H405 0.862 . S
C386 C381 1.501 . S
C386 H387 0.961 . S
C386 H388 0.961 . S
C386 H389 0.960 . S
H387 C386 0.961 . S
H388 C386 0.961 . S
H389 C386 0.960 . S
C390 N391 1.342 . S
C390 C394 1.401 . S
C390 C395 1.499 . S
N391 Co374 1.989 . S
N391 C390 1.342 . S
N391 N392 1.388 . S
N392 Co375 1.993 . S
N392 N391 1.388 . S
N392 C393 1.346 . S
C393 N392 1.346 . S
C393 C394 1.396 . S
C393 C403 1.510 . S
C394 C390 1.401 . S
C394 C393 1.396 . S
C395 C390 1.499 . S
C395 H396 0.959 . S
C395 H397 0.960 . S
C395 H398 0.961 . S
H396 C395 0.959 . S
H397 C395 0.960 . S
H398 C395 0.961 . S
O399 Co374 1.967 . S
O399 C407 1.258 . S
O400 Co375 1.941 . S
O400 C407 1.266 . S
H401 C403 0.959 . S
H402 C403 0.961 . S
C403 C393 1.510 . S
C403 H401 0.959 . S
C403 H402 0.961 . S
C403 H404 0.960 . S
H404 C403 0.960 . S
H405 N385 0.862 . S
O406 Co374 1.920 . S
O406 C379 1.289 . S
C407 O399 1.258 . S
C407 O400 1.266 . S
H408 C414 0.930 . S
H409 C417 0.930 . S
H410 C418 0.930 . S
H411 C419 0.930 . S
H412 C422 0.930 . S
H413 C423 0.930 . S
C414 H408 0.930 . S
C414 C415 1.355 . S
C414 C416 1.415 . S
C415 C414 1.355 . S
C415 C417 1.419 . S
C416 C414 1.415 . S
C416 C421 1.425 . S
C416 C423 1.409 . S
C417 H409 0.930 . S
C417 C415 1.419 . S
C417 C418 1.362 . S
C418 H410 0.930 . S
C418 C417 1.362 . S
C418 C421 1.409 . S
C419 H411 0.930 . S
C419 C420 1.355 . S
C419 C421 1.415 . S
C420 C419 1.355 . S
C420 C422 1.419 . S
C421 C416 1.425 . S
C421 C418 1.409 . S
C421 C419 1.415 . S
C422 H412 0.930 . S
C422 C420 1.419 . S
C422 C423 1.362 . S
C423 H413 0.930 . S
C423 C416 1.409 . S
C423 C422 1.362 . S
H424 C430 0.930 . S
H425 C433 0.930 . S
H426 C434 0.930 . S
H427 C435 0.930 . S
H428 C438 0.930 . S
H429 C439 0.930 . S
C430 H424 0.930 . S
C430 C431 1.355 . S
C430 C432 1.415 . S
C431 C430 1.355 . S
C431 C433 1.419 . S
C432 C430 1.415 . S
C432 C437 1.425 . S
C432 C439 1.409 . S
C433 H425 0.930 . S
C433 C431 1.419 . S
C433 C434 1.362 . S
C434 H426 0.930 . S
C434 C433 1.362 . S
C434 C437 1.409 . S
C435 H427 0.930 . S
C435 C436 1.355 . S
C435 C437 1.415 . S
C436 C435 1.355 . S
C436 C438 1.419 . S
C437 C432 1.425 . S
C437 C434 1.409 . S
C437 C435 1.415 . S
C438 H428 0.930 . S
C438 C436 1.419 . S
C438 C439 1.362 . S
C439 H429 0.930 . S
C439 C432 1.409 . S
C439 C438 1.362 . S
H440 C446 0.930 . S
H441 C449 0.930 . S
H442 C450 0.930 . S
H443 C451 0.930 . S
H444 C454 0.930 . S
H445 C455 0.930 . S
C446 H440 0.930 . S
C446 C447 1.355 . S
C446 C448 1.415 . S
C447 C446 1.355 . S
C447 C449 1.419 . S
C448 C446 1.415 . S
C448 C453 1.425 . S
C448 C455 1.409 . S
C449 H441 0.930 . S
C449 C447 1.419 . S
C449 C450 1.362 . S
C450 H442 0.930 . S
C450 C449 1.362 . S
C450 C453 1.409 . S
C451 H443 0.930 . S
C451 C452 1.355 . S
C451 C453 1.415 . S
C452 C451 1.355 . S
C452 C454 1.419 . S
C453 C448 1.425 . S
C453 C450 1.409 . S
C453 C451 1.415 . S
C454 H444 0.930 . S
C454 C452 1.419 . S
C454 C455 1.362 . S
C455 H445 0.930 . S
C455 C448 1.409 . S
C455 C454 1.362 . S
H456 C462 0.930 . S
H457 C465 0.930 . S
H458 C466 0.930 . S
H459 C467 0.930 . S
H460 C470 0.930 . S
H461 C471 0.930 . S
C462 H456 0.930 . S
C462 C463 1.355 . S
C462 C464 1.415 . S
C463 C462 1.355 . S
C463 C465 1.419 . S
C464 C462 1.415 . S
C464 C469 1.425 . S
C464 C471 1.409 . S
C465 H457 0.930 . S
C465 C463 1.419 . S
C465 C466 1.362 . S
C466 H458 0.930 . S
C466 C465 1.362 . S
C466 C469 1.409 . S
C467 H459 0.930 . S
C467 C468 1.355 . S
C467 C469 1.415 . S
C468 C467 1.355 . S
C468 C470 1.419 . S
C469 C464 1.425 . S
C469 C466 1.409 . S
C469 C467 1.415 . S
C470 H460 0.930 . S
C470 C468 1.419 . S
C470 C471 1.362 . S
C471 H461 0.930 . S
C471 C464 1.409 . S
C471 C470 1.362 . S
H472 C478 0.930 . S
H473 C481 0.930 . S
H474 C482 0.930 . S
H475 C483 0.930 . S
H476 C486 0.930 . S
H477 C487 0.930 . S
C478 H472 0.930 . S
C478 C479 1.355 . S
C478 C480 1.415 . S
C479 C478 1.355 . S
C479 C481 1.419 . S
C480 C478 1.415 . S
C480 C485 1.425 . S
C480 C487 1.409 . S
C481 H473 0.930 . S
C481 C479 1.419 . S
C481 C482 1.362 . S
C482 H474 0.930 . S
C482 C481 1.362 . S
C482 C485 1.409 . S
C483 H475 0.930 . S
C483 C484 1.355 . S
C483 C485 1.415 . S
C484 C483 1.355 . S
C484 C486 1.419 . S
C485 C480 1.425 . S
C485 C482 1.409 . S
C485 C483 1.415 . S
C486 H476 0.930 . S
C486 C484 1.419 . S
C486 C487 1.362 . S
C487 H477 0.930 . S
C487 C480 1.409 . S
C487 C486 1.362 . S
H488 C494 0.930 . S
H489 C497 0.930 . S
H490 C498 0.930 . S
H491 C499 0.930 . S
H492 C502 0.930 . S
H493 C503 0.930 . S
C494 H488 0.930 . S
C494 C495 1.355 . S
C494 C496 1.415 . S
C495 C494 1.355 . S
C495 C497 1.419 . S
C496 C494 1.415 . S
C496 C501 1.425 . S
C496 C503 1.409 . S
C497 H489 0.930 . S
C497 C495 1.419 . S
C497 C498 1.362 . S
C498 H490 0.930 . S
C498 C497 1.362 . S
C498 C501 1.409 . S
C499 H491 0.930 . S
C499 C500 1.355 . S
C499 C501 1.415 . S
C500 C499 1.355 . S
C500 C502 1.419 . S
C501 C496 1.425 . S
C501 C498 1.409 . S
C501 C499 1.415 . S
C502 H492 0.930 . S
C502 C500 1.419 . S
C502 C503 1.362 . S
C503 H493 0.930 . S
C503 C496 1.409 . S
C503 C502 1.362 . S
H504 C510 0.930 . S
H505 C513 0.930 . S
H506 C514 0.930 . S
H507 C515 0.930 . S
H508 C518 0.930 . S
H509 C519 0.930 . S
C510 H504 0.930 . S
C510 C511 1.355 . S
C510 C512 1.433 . S
C511 C510 1.355 . S
C511 C513 1.419 . S
C512 C510 1.433 . S
C512 C517 1.433 1_565 S
C512 C519 1.388 1_565 S
C513 H505 0.930 . S
C513 C511 1.419 . S
C513 C514 1.362 . S
C514 H506 0.930 . S
C514 C513 1.362 . S
C514 C517 1.388 1_565 S
C515 H507 0.930 . S
C515 C516 1.355 . S
C515 C517 1.432 . S
C516 C515 1.355 . S
C516 C518 1.419 . S
C517 C512 1.433 1_545 S
C517 C514 1.388 1_545 S
C517 C515 1.432 . S
C518 H508 0.930 . S
C518 C516 1.419 . S
C518 C519 1.362 . S
C519 H509 0.930 . S
C519 C512 1.388 1_545 S
C519 C518 1.362 . S
H520 C526 0.930 . S
H521 C529 0.930 . S
H522 C530 0.930 . S
H523 C531 0.930 . S
H524 C534 0.930 . S
H525 C535 0.930 . S
C526 H520 0.930 . S
C526 C527 1.355 . S
C526 C528 1.415 . S
C527 C526 1.355 . S
C527 C529 1.419 . S
C528 C526 1.415 . S
C528 C533 1.425 . S
C528 C535 1.409 . S
C529 H521 0.930 . S
C529 C527 1.419 . S
C529 C530 1.362 . S
C530 H522 0.930 . S
C530 C529 1.362 . S
C530 C533 1.409 . S
C531 H523 0.930 . S
C531 C532 1.355 . S
C531 C533 1.415 . S
C532 C531 1.355 . S
C532 C534 1.419 . S
C533 C528 1.425 . S
C533 C530 1.409 . S
C533 C531 1.415 . S
C534 H524 0.930 . S
C534 C532 1.419 . S
C534 C535 1.362 . S
C535 H525 0.930 . S
C535 C528 1.409 . S
C535 C534 1.362 . S
H536 C542 0.930 . S
H537 C545 0.930 . S
H538 C546 0.930 . S
H539 C547 0.930 . S
H540 C550 0.930 . S
H541 C551 0.930 . S
C542 H536 0.930 . S
C542 C543 1.355 . S
C542 C544 1.415 . S
C543 C542 1.355 . S
C543 C545 1.419 . S
C544 C542 1.415 . S
C544 C549 1.425 1_455 S
C544 C551 1.409 1_455 S
C545 H537 0.930 . S
C545 C543 1.419 . S
C545 C546 1.362 . S
C546 H538 0.930 . S
C546 C545 1.362 . S
C546 C549 1.409 1_455 S
C547 H539 0.930 . S
C547 C548 1.355 . S
C547 C549 1.415 . S
C548 C547 1.355 . S
C548 C550 1.419 . S
C549 C544 1.425 1_655 S
C549 C546 1.409 1_655 S
C549 C547 1.415 . S
C550 H540 0.930 . S
C550 C548 1.419 . S
C550 C551 1.362 . S
C551 H541 0.930 . S
C551 C544 1.409 1_655 S
C551 C550 1.362 . S
H552 C558 0.930 . S
H553 C561 0.930 . S
H554 C562 0.927 1_554 S
H555 C563 0.930 . S
H556 C566 0.930 . S
H557 C567 0.927 1_556 S
C558 H552 0.930 . S
C558 C559 1.355 . S
C558 C560 1.415 . S
C559 C558 1.355 . S
C559 C561 1.419 . S
C560 C558 1.415 . S
C560 C565 1.425 1_566 S
C560 C567 1.407 1_566 S
C561 H553 0.930 . S
C561 C559 1.419 . S
C561 C562 1.368 . S
C562 H554 0.927 1_556 S
C562 C561 1.368 . S
C562 C565 1.407 1_566 S
C563 H555 0.930 . S
C563 C564 1.355 . S
C563 C565 1.415 . S
C564 C563 1.355 . S
C564 C566 1.419 . S
C565 C560 1.425 1_544 S
C565 C562 1.407 1_544 S
C565 C563 1.415 . S
C566 H556 0.930 . S
C566 C564 1.419 . S
C566 C567 1.368 . S
C567 H557 0.927 1_554 S
C567 C560 1.407 1_544 S
C567 C566 1.368 . S
H568 C574 0.930 . S
H569 C577 0.930 . S
H570 C578 0.930 . S
H571 C579 0.930 . S
H572 C582 0.930 . S
H573 C583 0.930 . S
C574 H568 0.930 . S
C574 C575 1.355 . S
C574 C576 1.415 . S
C575 C574 1.355 . S
C575 C577 1.419 . S
C576 C574 1.415 . S
C576 C581 1.425 . S
C576 C583 1.409 . S
C577 H569 0.930 . S
C577 C575 1.419 . S
C577 C578 1.362 . S
C578 H570 0.930 . S
C578 C577 1.362 . S
C578 C581 1.409 . S
C579 H571 0.930 . S
C579 C580 1.355 . S
C579 C581 1.415 . S
C580 C579 1.355 . S
C580 C582 1.419 . S
C581 C576 1.425 . S
C581 C578 1.409 . S
C581 C579 1.415 . S
C582 H572 0.930 . S
C582 C580 1.419 . S
C582 C583 1.362 . S
C583 H573 0.930 . S
C583 C576 1.409 . S
C583 C582 1.362 . S
H584 C590 0.930 . S
H585 C593 0.930 . S
H586 C594 0.930 . S
H587 C595 0.930 . S
H588 C598 0.930 . S
H589 C599 0.930 . S
C590 H584 0.930 . S
C590 C591 1.355 . S
C590 C592 1.415 . S
C591 C590 1.355 . S
C591 C593 1.419 . S
C592 C590 1.415 . S
C592 C597 1.425 1_455 S
C592 C599 1.409 1_455 S
C593 H585 0.930 . S
C593 C591 1.419 . S
C593 C594 1.362 . S
C594 H586 0.930 . S
C594 C593 1.362 . S
C594 C597 1.409 1_455 S
C595 H587 0.930 . S
C595 C596 1.355 . S
C595 C597 1.415 . S
C596 C595 1.355 . S
C596 C598 1.419 . S
C597 C592 1.425 1_655 S
C597 C594 1.409 1_655 S
C597 C595 1.415 . S
C598 H588 0.930 . S
C598 C596 1.419 . S
C598 C599 1.362 . S
C599 H589 0.930 . S
C599 C592 1.409 1_655 S
C599 C598 1.362 . S
H600 C606 0.930 . S
H601 C609 0.930 1_565 S
H602 C610 0.930 . S
H603 C611 0.930 . S
H604 C614 0.930 . S
H605 C615 0.930 . S
C606 H600 0.930 . S
C606 C607 1.355 . S
C606 C608 1.415 . S
C607 C606 1.355 . S
C607 C609 1.419 . S
C608 C606 1.415 . S
C608 C613 1.425 . S
C608 C615 1.409 . S
C609 H601 0.930 1_545 S
C609 C607 1.419 . S
C609 C610 1.362 . S
C610 H602 0.930 . S
C610 C609 1.362 . S
C610 C613 1.409 . S
C611 H603 0.930 . S
C611 C612 1.355 . S
C611 C613 1.415 . S
C612 C611 1.355 . S
C612 C614 1.419 . S
C613 C608 1.425 . S
C613 C610 1.409 . S
C613 C611 1.415 . S
C614 H604 0.930 . S
C614 C612 1.419 . S
C614 C615 1.362 . S
C615 H605 0.930 . S
C615 C608 1.409 . S
C615 C614 1.362 . S
H616 C622 0.930 . S
H617 C625 0.930 . S
H618 C626 0.930 . S
H619 C627 0.930 . S
H620 C630 0.930 . S
H621 C631 0.930 . S
C622 H616 0.930 . S
C622 C623 1.355 . S
C622 C624 1.415 . S
C623 C622 1.355 . S
C623 C625 1.419 . S
C624 C622 1.415 . S
C624 C629 1.425 . S
C624 C631 1.409 . S
C625 H617 0.930 . S
C625 C623 1.419 . S
C625 C626 1.362 . S
C626 H618 0.930 . S
C626 C625 1.362 . S
C626 C629 1.409 . S
C627 H619 0.930 . S
C627 C628 1.355 . S
C627 C629 1.415 . S
C628 C627 1.355 . S
C628 C630 1.419 . S
C629 C624 1.425 . S
C629 C626 1.409 . S
C629 C627 1.415 . S
C630 H620 0.930 . S
C630 C628 1.419 . S
C630 C631 1.362 . S
C631 H621 0.930 . S
C631 C624 1.409 . S
C631 C630 1.362 . S
H632 C638 0.930 . S
H633 C641 0.930 . S
H634 C642 0.930 . S
H635 C643 0.930 . S
H636 C646 0.930 . S
H637 C647 0.930 . S
C638 H632 0.930 . S
C638 C639 1.355 . S
C638 C640 1.415 . S
C639 C638 1.355 . S
C639 C641 1.419 . S
C640 C638 1.415 . S
C640 C645 1.425 . S
C640 C647 1.409 . S
C641 H633 0.930 . S
C641 C639 1.419 . S
C641 C642 1.362 . S
C642 H634 0.930 . S
C642 C641 1.362 . S
C642 C645 1.409 . S
C643 H635 0.930 . S
C643 C644 1.355 . S
C643 C645 1.415 . S
C644 C643 1.355 . S
C644 C646 1.419 . S
C645 C640 1.425 . S
C645 C642 1.409 . S
C645 C643 1.415 . S
C646 H636 0.930 . S
C646 C644 1.419 . S
C646 C647 1.362 . S
C647 H637 0.930 . S
C647 C640 1.409 . S
C647 C646 1.362 . S
H648 C654 0.930 . S
H649 C657 0.930 . S
H650 C658 0.930 . S
H651 C659 0.930 . S
H652 C662 0.930 . S
H653 C663 0.930 . S
C654 H648 0.930 . S
C654 C655 1.355 . S
C654 C656 1.415 . S
C655 C654 1.355 . S
C655 C657 1.419 . S
C656 C654 1.415 . S
C656 C661 1.425 . S
C656 C663 1.409 . S
C657 H649 0.930 . S
C657 C655 1.419 . S
C657 C658 1.362 . S
C658 H650 0.930 . S
C658 C657 1.362 . S
C658 C661 1.409 . S
C659 H651 0.930 . S
C659 C660 1.355 . S
C659 C661 1.415 . S
C660 C659 1.355 . S
C660 C662 1.419 . S
C661 C656 1.425 . S
C661 C658 1.409 . S
C661 C659 1.415 . S
C662 H652 0.930 . S
C662 C660 1.419 . S
C662 C663 1.362 . S
C663 H653 0.930 . S
C663 C656 1.409 . S
C663 C662 1.362 . S
H664 C670 0.930 . S
H665 C673 0.930 . S
H666 C674 0.930 . S
H667 C675 0.930 . S
H668 C678 0.930 . S
H669 C679 0.930 . S
C670 H664 0.930 . S
C670 C671 1.355 1_554 S
C670 C672 1.415 . S
C671 C670 1.355 1_556 S
C671 C673 1.419 . S
C672 C670 1.415 . S
C672 C677 1.425 . S
C672 C679 1.409 . S
C673 H665 0.930 . S
C673 C671 1.419 . S
C673 C674 1.362 . S
C674 H666 0.930 . S
C674 C673 1.362 . S
C674 C677 1.409 1_556 S
C675 H667 0.930 . S
C675 C676 1.355 . S
C675 C677 1.415 . S
C676 C675 1.355 . S
C676 C678 1.419 . S
C677 C672 1.425 . S
C677 C674 1.409 1_554 S
C677 C675 1.415 . S
C678 H668 0.930 . S
C678 C676 1.419 . S
C678 C679 1.362 . S
C679 H669 0.930 . S
C679 C672 1.409 . S
C679 C678 1.362 . S
H680 C686 0.930 . S
H681 C689 0.930 1_655 S
H682 C690 0.930 . S
H683 C691 0.930 . S
H684 C694 0.930 . S
H685 C695 0.930 . S
C686 H680 0.930 . S
C686 C687 1.355 . S
C686 C688 1.415 . S
C687 C686 1.355 . S
C687 C689 1.419 . S
C688 C686 1.415 . S
C688 C693 1.425 . S
C688 C695 1.409 . S
C689 H681 0.930 1_455 S
C689 C687 1.419 . S
C689 C690 1.362 . S
C690 H682 0.930 . S
C690 C689 1.362 . S
C690 C693 1.409 . S
C691 H683 0.930 . S
C691 C692 1.355 . S
C691 C693 1.415 . S
C692 C691 1.355 . S
C692 C694 1.419 . S
C693 C688 1.425 . S
C693 C690 1.409 . S
C693 C691 1.415 . S
C694 H684 0.930 . S
C694 C692 1.419 . S
C694 C695 1.362 . S
C695 H685 0.930 . S
C695 C688 1.409 . S
C695 C694 1.362 . S
H696 C702 0.930 . S
H697 C705 0.930 1_455 S
H698 C706 0.930 . S
H699 C707 0.930 . S
H700 C710 0.930 . S
H701 C711 0.930 . S
C702 H696 0.930 . S
C702 C703 1.355 . S
C702 C704 1.415 . S
C703 C702 1.355 . S
C703 C705 1.419 . S
C704 C702 1.415 . S
C704 C709 1.425 . S
C704 C711 1.409 . S
C705 H697 0.930 1_655 S
C705 C703 1.419 . S
C705 C706 1.362 . S
C706 H698 0.930 . S
C706 C705 1.362 . S
C706 C709 1.409 . S
C707 H699 0.930 . S
C707 C708 1.355 . S
C707 C709 1.415 . S
C708 C707 1.355 . S
C708 C710 1.419 . S
C709 C704 1.425 . S
C709 C706 1.409 . S
C709 C707 1.415 . S
C710 H700 0.930 . S
C710 C708 1.419 . S
C710 C711 1.362 . S
C711 H701 0.930 . S
C711 C704 1.409 . S
C711 C710 1.362 . S
H712 C718 0.930 . S
H713 C721 0.930 . S
H714 C722 0.930 . S
H715 C723 0.930 . S
H716 C726 0.930 . S
H717 C727 0.930 . S
C718 H712 0.930 . S
C718 C719 1.355 . S
C718 C720 1.415 . S
C719 C718 1.355 . S
C719 C721 1.419 . S
C720 C718 1.415 . S
C720 C725 1.425 . S
C720 C727 1.409 . S
C721 H713 0.930 . S
C721 C719 1.419 . S
C721 C722 1.362 . S
C722 H714 0.930 . S
C722 C721 1.362 . S
C722 C725 1.409 . S
C723 H715 0.930 . S
C723 C724 1.355 . S
C723 C725 1.415 . S
C724 C723 1.355 . S
C724 C726 1.419 . S
C725 C720 1.425 . S
C725 C722 1.409 . S
C725 C723 1.415 . S
C726 H716 0.930 . S
C726 C724 1.419 . S
C726 C727 1.362 . S
C727 H717 0.930 . S
C727 C720 1.409 . S
C727 C726 1.362 . S
H728 C734 0.930 . S
H729 C737 0.930 . S
H730 C738 0.930 . S
H731 C739 0.930 . S
H732 C742 0.930 . S
H733 C743 0.930 . S
C734 H728 0.930 . S
C734 C735 1.355 . S
C734 C736 1.415 . S
C735 C734 1.355 . S
C735 C737 1.419 . S
C736 C734 1.415 . S
C736 C741 1.425 . S
C736 C743 1.409 . S
C737 H729 0.930 . S
C737 C735 1.419 . S
C737 C738 1.362 . S
C738 H730 0.930 . S
C738 C737 1.362 . S
C738 C741 1.409 . S
C739 H731 0.930 . S
C739 C740 1.355 . S
C739 C741 1.415 . S
C740 C739 1.355 . S
C740 C742 1.419 . S
C741 C736 1.425 . S
C741 C738 1.409 . S
C741 C739 1.415 . S
C742 H732 0.930 . S
C742 C740 1.419 . S
C742 C743 1.362 . S
C743 H733 0.930 . S
C743 C736 1.409 . S
C743 C742 1.362 . S
H744 C750 0.930 . S
H745 C753 0.930 . S
H746 C754 0.930 . S
H747 C755 0.930 . S
H748 C758 0.930 . S
H749 C759 0.930 . S
C750 H744 0.930 . S
C750 C751 1.355 1_556 S
C750 C752 1.415 . S
C751 C750 1.355 1_554 S
C751 C753 1.419 . S
C752 C750 1.415 . S
C752 C757 1.425 . S
C752 C759 1.409 . S
C753 H745 0.930 . S
C753 C751 1.419 . S
C753 C754 1.362 1_554 S
C754 H746 0.930 . S
C754 C753 1.362 1_556 S
C754 C757 1.409 . S
C755 H747 0.930 . S
C755 C756 1.355 . S
C755 C757 1.415 . S
C756 C755 1.355 . S
C756 C758 1.419 . S
C757 C752 1.425 . S
C757 C754 1.409 . S
C757 C755 1.415 . S
C758 H748 0.930 . S
C758 C756 1.419 . S
C758 C759 1.362 . S
C759 H749 0.930 . S
C759 C752 1.409 . S
C759 C758 1.362 . S
H760 C766 0.930 . S
H761 C769 0.930 . S
H762 C770 0.930 . S
H763 C771 0.930 . S
H764 C774 0.930 . S
H765 C775 0.930 . S
C766 H760 0.930 . S
C766 C767 1.355 . S
C766 C768 1.415 . S
C767 C766 1.355 . S
C767 C769 1.419 . S
C768 C766 1.415 . S
C768 C773 1.425 . S
C768 C775 1.409 . S
C769 H761 0.930 . S
C769 C767 1.419 . S
C769 C770 1.362 . S
C770 H762 0.930 . S
C770 C769 1.362 . S
C770 C773 1.409 . S
C771 H763 0.930 . S
C771 C772 1.355 . S
C771 C773 1.415 . S
C772 C771 1.355 . S
C772 C774 1.419 . S
C773 C768 1.425 . S
C773 C770 1.409 . S
C773 C771 1.415 . S
C774 H764 0.930 . S
C774 C772 1.419 . S
C774 C775 1.362 . S
C775 H765 0.930 . S
C775 C768 1.409 . S
C775 C774 1.362 . S
H776 C782 0.930 . S
H777 C785 0.930 . S
H778 C786 0.930 . S
H779 C787 0.930 . S
H780 C790 0.930 . S
H781 C791 0.930 . S
C782 H776 0.930 . S
C782 C783 1.355 . S
C782 C784 1.415 . S
C783 C782 1.355 . S
C783 C785 1.419 . S
C784 C782 1.415 . S
C784 C789 1.425 . S
C784 C791 1.409 . S
C785 H777 0.930 . S
C785 C783 1.419 . S
C785 C786 1.362 . S
C786 H778 0.930 . S
C786 C785 1.362 . S
C786 C789 1.409 . S
C787 H779 0.930 . S
C787 C788 1.355 . S
C787 C789 1.415 . S
C788 C787 1.355 . S
C788 C790 1.419 . S
C789 C784 1.425 . S
C789 C786 1.409 . S
C789 C787 1.415 . S
C790 H780 0.930 . S
C790 C788 1.419 . S
C790 C791 1.362 . S
C791 H781 0.930 . S
C791 C784 1.409 . S
C791 C790 1.362 . S
H792 C798 0.930 . S
H793 C801 0.930 . S
H794 C802 0.930 . S
H795 C803 0.930 . S
H796 C806 0.930 . S
H797 C807 0.930 . S
C798 H792 0.930 . S
C798 C799 1.355 . S
C798 C800 1.415 . S
C799 C798 1.355 . S
C799 C801 1.419 . S
C800 C798 1.415 . S
C800 C805 1.425 . S
C800 C807 1.409 . S
C801 H793 0.930 . S
C801 C799 1.419 . S
C801 C802 1.362 . S
C802 H794 0.930 . S
C802 C801 1.362 . S
C802 C805 1.409 . S
C803 H795 0.930 . S
C803 C804 1.355 . S
C803 C805 1.415 . S
C804 C803 1.355 . S
C804 C806 1.419 . S
C805 C800 1.425 . S
C805 C802 1.409 . S
C805 C803 1.415 . S
C806 H796 0.930 . S
C806 C804 1.419 . S
C806 C807 1.362 . S
C807 H797 0.930 . S
C807 C800 1.409 . S
C807 C806 1.362 . S
H808 C814 0.930 . S
H809 C817 0.930 . S
H810 C818 0.930 . S
H811 C819 0.930 . S
H812 C822 0.930 . S
H813 C823 0.930 . S
C814 H808 0.930 . S
C814 C815 1.355 . S
C814 C816 1.415 . S
C815 C814 1.355 . S
C815 C817 1.419 . S
C816 C814 1.415 . S
C816 C821 1.425 . S
C816 C823 1.409 . S
C817 H809 0.930 . S
C817 C815 1.419 . S
C817 C818 1.362 . S
C818 H810 0.930 . S
C818 C817 1.362 . S
C818 C821 1.409 . S
C819 H811 0.930 . S
C819 C820 1.355 . S
C819 C821 1.415 . S
C820 C819 1.355 . S
C820 C822 1.419 . S
C821 C816 1.425 . S
C821 C818 1.409 . S
C821 C819 1.415 . S
C822 H812 0.930 . S
C822 C820 1.419 . S
C822 C823 1.362 . S
C823 H813 0.930 . S
C823 C816 1.409 . S
C823 C822 1.362 . S
H824 C830 0.930 . S
H825 C833 0.930 . S
H826 C834 0.930 . S
H827 C835 0.930 . S
H828 C838 0.930 . S
H829 C839 0.930 . S
C830 H824 0.930 . S
C830 C831 1.355 . S
C830 C832 1.415 . S
C831 C830 1.355 . S
C831 C833 1.419 . S
C832 C830 1.415 . S
C832 C837 1.425 . S
C832 C839 1.409 . S
C833 H825 0.930 . S
C833 C831 1.419 . S
C833 C834 1.362 . S
C834 H826 0.930 . S
C834 C833 1.362 . S
C834 C837 1.409 . S
C835 H827 0.930 . S
C835 C836 1.355 . S
C835 C837 1.415 . S
C836 C835 1.355 . S
C836 C838 1.419 . S
C837 C832 1.425 . S
C837 C834 1.409 . S
C837 C835 1.415 . S
C838 H828 0.930 . S
C838 C836 1.419 . S
C838 C839 1.362 . S
C839 H829 0.930 . S
C839 C832 1.409 . S
C839 C838 1.362 . S
H840 C846 0.930 . S
H841 C849 0.930 . S
H842 C850 0.930 . S
H843 C851 0.930 . S
H844 C854 0.930 . S
H845 C855 0.930 . S
C846 H840 0.930 . S
C846 C847 1.355 . S
C846 C848 1.415 . S
C847 C846 1.355 . S
C847 C849 1.419 . S
C848 C846 1.415 . S
C848 C853 1.425 . S
C848 C855 1.409 . S
C849 H841 0.930 . S
C849 C847 1.419 . S
C849 C850 1.362 . S
C850 H842 0.930 . S
C850 C849 1.362 . S
C850 C853 1.409 . S
C851 H843 0.930 . S
C851 C852 1.355 . S
C851 C853 1.415 . S
C852 C851 1.355 . S
C852 C854 1.419 . S
C853 C848 1.425 . S
C853 C850 1.409 . S
C853 C851 1.415 . S
C854 H844 0.930 . S
C854 C852 1.419 . S
C854 C855 1.362 . S
C855 H845 0.930 . S
C855 C848 1.409 . S
C855 C854 1.362 . S
H856 C862 0.930 . S
H857 C865 0.930 . S
H858 C866 0.930 . S
H859 C867 0.930 . S
H860 C870 0.930 . S
H861 C871 0.930 . S
C862 H856 0.930 . S
C862 C863 1.355 . S
C862 C864 1.415 . S
C863 C862 1.355 . S
C863 C865 1.419 . S
C864 C862 1.415 . S
C864 C869 1.425 . S
C864 C871 1.409 . S
C865 H857 0.930 . S
C865 C863 1.419 . S
C865 C866 1.362 . S
C866 H858 0.930 . S
C866 C865 1.362 . S
C866 C869 1.409 . S
C867 H859 0.930 . S
C867 C868 1.355 . S
C867 C869 1.415 . S
C868 C867 1.355 . S
C868 C870 1.419 . S
C869 C864 1.425 . S
C869 C866 1.409 . S
C869 C867 1.415 . S
C870 H860 0.930 . S
C870 C868 1.419 . S
C870 C871 1.362 . S
C871 H861 0.930 . S
C871 C864 1.409 . S
C871 C870 1.362 . S
H872 C878 0.930 . S
H873 C881 0.930 . S
H874 C882 0.930 . S
H875 C883 0.930 . S
H876 C886 0.930 . S
H877 C887 0.930 . S
C878 H872 0.930 . S
C878 C879 1.355 . S
C878 C880 1.415 . S
C879 C878 1.355 . S
C879 C881 1.419 . S
C880 C878 1.415 . S
C880 C885 1.425 . S
C880 C887 1.409 . S
C881 H873 0.930 . S
C881 C879 1.419 . S
C881 C882 1.362 . S
C882 H874 0.930 . S
C882 C881 1.362 . S
C882 C885 1.409 . S
C883 H875 0.930 . S
C883 C884 1.355 . S
C883 C885 1.415 . S
C884 C883 1.355 . S
C884 C886 1.419 . S
C885 C880 1.425 . S
C885 C882 1.409 . S
C885 C883 1.415 . S
C886 H876 0.930 . S
C886 C884 1.419 . S
C886 C887 1.362 . S
C887 H877 0.930 . S
C887 C880 1.409 . S
C887 C886 1.362 . S
C415 C213 1.376 . S
C420 C9 1.442 . S
C431 C43 1.370 . S
C436 C247 1.435 . S
C447 C281 1.394 . S
C452 C77 1.435 . S
C463 C111 1.376 . S
C468 C315 1.442 . S
C479 C349 1.409 . S
C484 C145 1.423 . S
C495 C383 1.434 . S
C500 C179 1.395 . S
C511 C243 0.419 . S
C516 C5 0.424 . S
C527 C39 0.537 . S
C532 C277 0.320 . S
C543 C311 0.528 . S
C548 C73 0.308 . S
C559 C107 0.538 . S
C564 C345 0.314 . S
C575 C379 0.386 . S
C580 C141 0.456 . S
C591 C175 0.530 . S
C596 C209 0.307 . S
C607 C203 1.432 1_545 S
C612 C20 1.421 . S
C623 C33 1.466 . S
C628 C54 1.356 . S
C639 C88 1.333 . S
C644 C67 1.470 1_655 S
C655 C101 1.434 1_565 S
C660 C122 1.398 . S
C671 C135 1.470 . S
C676 C156 1.345 . S
C687 C169 1.426 1_455 S
C692 C190 1.427 . S
C703 C271 1.425 1_655 S
C708 C224 1.426 . S
C719 C258 1.333 . S
C724 C305 1.470 1_565 S
C735 C339 1.430 . S
C740 C292 1.424 . S
C751 C373 1.452 1_455 S
C756 C326 1.387 . S
C767 C407 1.467 1_545 S
C772 C360 1.336 . S
C783 C237 1.427 . S
C788 C394 1.417 . S
C799 C2 1.912 . S
C804 C274 1.891 . S
C815 C36 1.906 . S
C820 C308 1.945 . S
C831 C70 1.944 . S
C836 C342 1.896 . S
C847 C104 1.916 . S
C852 C376 1.942 . S
C863 C138 1.919 . S
C868 C206 1.888 . S
C879 C172 1.905 . S
C884 C240 1.896 . S
