# Generated by pormake.
# Topology yfd, (5)-cn, num edge types: 1
# Building blocks:
#     Node 0, Type 0, BuildingBlock: BEQFEK_clean_sbu_0, # of connection points: 5
#     Node 1, Type 0, BuildingBlock: BEQFEK_clean_sbu_0, # of connection points: 5
#     Node 2, Type 0, BuildingBlock: BEQFEK_clean_sbu_0, # of connection points: 5
#     Node 3, Type 0, BuildingBlock: BEQFEK_clean_sbu_0, # of connection points: 5
#     Node 4, Type 0, BuildingBlock: BEQFEK_clean_sbu_0, # of connection points: 5
#     Node 5, Type 0, BuildingBlock: BEQFEK_clean_sbu_0, # of connection points: 5
#     Node 6, Type 0, BuildingBlock: BEQFEK_clean_sbu_0, # of connection points: 5
#     Node 7, Type 0, BuildingBlock: BEQFEK_clean_sbu_0, # of connection points: 5
#     Node 8, Type 0, BuildingBlock: BEQFEK_clean_sbu_0, # of connection points: 5
#     Node 9, Type 0, BuildingBlock: BEQFEK_clean_sbu_0, # of connection points: 5
#     Node 10, Type 0, BuildingBlock: BEQFEK_clean_sbu_0, # of connection points: 5
#     Node 11, Type 0, BuildingBlock: BEQFEK_clean_sbu_0, # of connection points: 5
#     Node 12, Type 0, BuildingBlock: BEQFEK_clean_sbu_0, # of connection points: 5
#     Node 13, Type 0, BuildingBlock: BEQFEK_clean_sbu_0, # of connection points: 5
#     Node 14, Type 0, BuildingBlock: BEQFEK_clean_sbu_0, # of connection points: 5
#     Node 15, Type 0, BuildingBlock: BEQFEK_clean_sbu_0, # of connection points: 5
#     Edge 16, Type (0, 0), BuildingBlock: KIFKEQ_clean_linker_1, # of connection points: 2
#     Edge 17, Type (0, 0), BuildingBlock: KIFKEQ_clean_linker_1, # of connection points: 2
#     Edge 18, Type (0, 0), BuildingBlock: KIFKEQ_clean_linker_1, # of connection points: 2
#     Edge 19, Type (0, 0), BuildingBlock: KIFKEQ_clean_linker_1, # of connection points: 2
#     Edge 20, Type (0, 0), BuildingBlock: KIFKEQ_clean_linker_1, # of connection points: 2
#     Edge 21, Type (0, 0), BuildingBlock: KIFKEQ_clean_linker_1, # of connection points: 2
#     Edge 22, Type (0, 0), BuildingBlock: KIFKEQ_clean_linker_1, # of connection points: 2
#     Edge 23, Type (0, 0), BuildingBlock: KIFKEQ_clean_linker_1, # of connection points: 2
#     Edge 24, Type (0, 0), BuildingBlock: KIFKEQ_clean_linker_1, # of connection points: 2
#     Edge 25, Type (0, 0), BuildingBlock: KIFKEQ_clean_linker_1, # of connection points: 2
#     Edge 26, Type (0, 0), BuildingBlock: KIFKEQ_clean_linker_1, # of connection points: 2
#     Edge 27, Type (0, 0), BuildingBlock: KIFKEQ_clean_linker_1, # of connection points: 2
#     Edge 28, Type (0, 0), BuildingBlock: KIFKEQ_clean_linker_1, # of connection points: 2
#     Edge 29, Type (0, 0), BuildingBlock: KIFKEQ_clean_linker_1, # of connection points: 2
#     Edge 30, Type (0, 0), BuildingBlock: KIFKEQ_clean_linker_1, # of connection points: 2
#     Edge 31, Type (0, 0), BuildingBlock: KIFKEQ_clean_linker_1, # of connection points: 2
#     Edge 32, Type (0, 0), BuildingBlock: KIFKEQ_clean_linker_1, # of connection points: 2
#     Edge 33, Type (0, 0), BuildingBlock: KIFKEQ_clean_linker_1, # of connection points: 2
#     Edge 34, Type (0, 0), BuildingBlock: KIFKEQ_clean_linker_1, # of connection points: 2
#     Edge 35, Type (0, 0), BuildingBlock: KIFKEQ_clean_linker_1, # of connection points: 2
#     Edge 36, Type (0, 0), BuildingBlock: KIFKEQ_clean_linker_1, # of connection points: 2
#     Edge 37, Type (0, 0), BuildingBlock: KIFKEQ_clean_linker_1, # of connection points: 2
#     Edge 38, Type (0, 0), BuildingBlock: KIFKEQ_clean_linker_1, # of connection points: 2
#     Edge 39, Type (0, 0), BuildingBlock: KIFKEQ_clean_linker_1, # of connection points: 2
#     Edge 40, Type (0, 0), BuildingBlock: KIFKEQ_clean_linker_1, # of connection points: 2
#     Edge 41, Type (0, 0), BuildingBlock: KIFKEQ_clean_linker_1, # of connection points: 2
#     Edge 42, Type (0, 0), BuildingBlock: KIFKEQ_clean_linker_1, # of connection points: 2
#     Edge 43, Type (0, 0), BuildingBlock: KIFKEQ_clean_linker_1, # of connection points: 2
#     Edge 44, Type (0, 0), BuildingBlock: KIFKEQ_clean_linker_1, # of connection points: 2
#     Edge 45, Type (0, 0), BuildingBlock: KIFKEQ_clean_linker_1, # of connection points: 2
#     Edge 46, Type (0, 0), BuildingBlock: KIFKEQ_clean_linker_1, # of connection points: 2
#     Edge 47, Type (0, 0), BuildingBlock: KIFKEQ_clean_linker_1, # of connection points: 2
#     Edge 48, Type (0, 0), BuildingBlock: KIFKEQ_clean_linker_1, # of connection points: 2
#     Edge 49, Type (0, 0), BuildingBlock: KIFKEQ_clean_linker_1, # of connection points: 2
#     Edge 50, Type (0, 0), BuildingBlock: KIFKEQ_clean_linker_1, # of connection points: 2
#     Edge 51, Type (0, 0), BuildingBlock: KIFKEQ_clean_linker_1, # of connection points: 2
#     Edge 52, Type (0, 0), BuildingBlock: KIFKEQ_clean_linker_1, # of connection points: 2
#     Edge 53, Type (0, 0), BuildingBlock: KIFKEQ_clean_linker_1, # of connection points: 2
#     Edge 54, Type (0, 0), BuildingBlock: KIFKEQ_clean_linker_1, # of connection points: 2
#     Edge 55, Type (0, 0), BuildingBlock: KIFKEQ_clean_linker_1, # of connection points: 2
# Relax obj value: 0.568
# Max RMSD: 0.253
# Mean RMSD: 0.253
data_MOF--net-yfd--node1-BEQFEK_clean_sbu_0--edge1-KIFKEQ_clean_linker_1
_symmetry_space_group_name_H-M    P1
_symmetry_Int_Tables_number       1
_symmetry_cell_setting            triclinic
loop_
_symmetry_equiv_pos_as_xyz
'x, y, z'
_cell_length_a     67.217658
_cell_length_b     66.947993
_cell_length_c     26.22118
_cell_angle_alpha  89.949762
_cell_angle_beta   90.028533
_cell_angle_gamma 90.021657
loop_
_atom_site_label
_atom_site_type_symbol
_atom_site_fract_x
_atom_site_fract_y
_atom_site_fract_z
_atom_type_partial_charge
Co0 Co 0.52982 0.09901 0.17446 0.0
Co1 Co 0.53072 0.14595 0.17527 0.0
C2 C 0.49321 0.1225 0.19856 0.0
O3 O 0.50306 0.10653 0.19409 0.0
O4 O 0.50133 0.13954 0.19121 0.0
C5 C 0.51334 0.0601 0.16446 0.0
O6 O 0.49845 0.06749 0.19078 0.0
C7 C 0.52566 0.18511 0.12304 0.0
C8 C 0.54586 0.20435 0.16751 0.0
C9 C 0.53365 0.20439 0.12474 0.0
N10 N 0.53306 0.17437 0.16235 0.0
N11 N 0.54488 0.18613 0.18914 0.0
C12 C 0.51262 0.17634 0.08256 0.0
H13 H 0.51255 0.1598 0.08499 0.0
H14 H 0.5177 0.18114 0.04419 0.0
H15 H 0.49716 0.18172 0.08814 0.0
C16 C 0.54734 0.1046 0.07431 0.0
N17 N 0.5381 0.11235 0.11519 0.0
N18 N 0.54083 0.1318 0.1164 0.0
C19 C 0.55291 0.13685 0.07697 0.0
C20 C 0.55745 0.1197 0.04918 0.0
C21 C 0.54692 0.08289 0.06046 0.0
H22 H 0.55683 0.07446 0.0866 0.0
H23 H 0.53156 0.07708 0.06457 0.0
H24 H 0.5518 0.08041 0.02056 0.0
O25 O 0.54894 0.1049 0.22868 0.0
O26 O 0.54847 0.13818 0.23529 0.0
H27 H 0.56491 0.16397 0.1083 0.0
H28 H 0.57706 0.15549 0.05074 0.0
C29 C 0.56256 0.15685 0.07064 0.0
H30 H 0.55279 0.16655 0.04727 0.0
H31 H 0.55293 0.18148 0.22104 0.0
O32 O 0.52922 0.07021 0.15965 0.0
C33 C 0.5548 0.12101 0.24966 0.0
Co34 Co 0.42249 0.53068 0.65711 0.0
Co35 Co 0.37622 0.53386 0.66963 0.0
C36 C 0.39844 0.49612 0.69556 0.0
O37 O 0.41445 0.50531 0.68651 0.0
O38 O 0.38159 0.50449 0.68849 0.0
C39 C 0.45277 0.50959 0.61195 0.0
O40 O 0.43819 0.49654 0.61135 0.0
C41 C 0.33614 0.529 0.62537 0.0
C42 C 0.31848 0.55111 0.66806 0.0
C43 C 0.31729 0.53778 0.62754 0.0
N44 N 0.34774 0.53704 0.66207 0.0
N45 N 0.33693 0.54999 0.68798 0.0
C46 C 0.34385 0.51472 0.58618 0.0
H47 H 0.36031 0.51385 0.58767 0.0
H48 H 0.339 0.51932 0.54745 0.0
H49 H 0.33782 0.49961 0.59409 0.0
C50 C 0.4139 0.54812 0.55786 0.0
N51 N 0.4074 0.53888 0.60036 0.0
N52 N 0.38829 0.54239 0.60632 0.0
C53 C 0.38223 0.55468 0.56813 0.0
C54 C 0.39831 0.55862 0.53624 0.0
C55 C 0.43512 0.54827 0.54039 0.0
H56 H 0.44465 0.55517 0.57008 0.0
H57 H 0.44002 0.53271 0.53403 0.0
H58 H 0.43711 0.55643 0.50396 0.0
O59 O 0.42009 0.55149 0.70937 0.0
O60 O 0.38736 0.55213 0.72531 0.0
H61 H 0.35774 0.56889 0.60616 0.0
H62 H 0.36363 0.57932 0.54432 0.0
C63 C 0.36266 0.56532 0.56689 0.0
H64 H 0.35139 0.55556 0.54869 0.0
H65 H 0.34242 0.55878 0.71768 0.0
O66 O 0.45003 0.52631 0.63394 0.0
C67 C 0.40517 0.55818 0.73413 0.0
Co68 Co 0.99121 0.42371 0.16219 0.0
Co69 Co 0.98882 0.37702 0.17466 0.0
C70 C 0.02655 0.40004 0.19674 0.0
O71 O 0.01733 0.416 0.18666 0.0
O72 O 0.01799 0.38305 0.19311 0.0
C73 C 0.01 0.46041 0.13687 0.0
O74 O 0.02557 0.45226 0.15878 0.0
C75 C 0.9943 0.33673 0.13062 0.0
C76 C 0.97195 0.31901 0.17238 0.0
C77 C 0.98552 0.31782 0.13256 0.0
N78 N 0.98603 0.34839 0.16686 0.0
N79 N 0.97294 0.33754 0.19225 0.0
C80 C 1.00873 0.3444 0.09182 0.0
H81 H 1.00934 0.36095 0.09253 0.0
H82 H 1.00456 0.33916 0.05312 0.0
H83 H 0.02379 0.3386 0.10083 0.0
C84 C 0.97474 0.41485 0.06214 0.0
N85 N 0.98319 0.40854 0.1058 0.0
N86 N 0.98005 0.38928 0.11158 0.0
C87 C 0.96852 0.38297 0.07224 0.0
C88 C 0.96515 0.39894 0.03938 0.0
C89 C 0.97351 0.43628 0.04598 0.0
H90 H 0.96484 0.44482 0.07459 0.0
H91 H 0.98872 0.44265 0.04403 0.0
H92 H 0.9663 0.43798 0.00815 0.0
O93 O 0.97137 0.42031 0.21634 0.0
O94 O 0.97072 0.38743 0.23116 0.0
H95 H 0.95467 0.35773 0.10832 0.0
H96 H 0.94485 0.36375 0.0459 0.0
C97 C 0.95854 0.36303 0.06952 0.0
H98 H 0.96878 0.35213 0.05162 0.0
H99 H 0.96396 0.34306 0.22146 0.0
O100 O 0.99318 0.45181 0.13997 0.0
C101 C 0.96482 0.40524 0.24092 0.0
Co102 Co 0.09763 0.99459 0.65055 0.0
Co103 Co 0.14353 0.99116 0.66936 0.0
C104 C 0.12102 0.02941 0.6899 0.0
O105 O 0.10535 0.02049 0.67636 0.0
O106 O 0.13778 0.02042 0.68951 0.0
C107 C 0.07078 0.01446 0.5936 0.0
O108 O 0.0872 0.0249 0.58848 0.0
C109 C 0.1836 0.99725 0.62858 0.0
C110 C 0.20142 0.9742 0.66757 0.0
C111 C 0.20242 0.98844 0.62906 0.0
N112 N 0.17205 0.98821 0.66374 0.0
N113 N 0.18292 0.97465 0.68752 0.0
C114 C 0.17638 0.01395 0.59539 0.0
H115 H 0.16443 0.02238 0.61498 0.0
H116 H 0.17002 1.00777 0.55972 0.0
H117 H 0.18877 0.02422 0.58556 0.0
C118 C 0.10785 0.97604 0.55365 0.0
N119 N 0.11349 0.98538 0.59681 0.0
N120 N 0.13265 0.9827 0.6043 0.0
C121 C 0.13966 0.97095 0.56605 0.0
C122 C 0.12421 0.96686 0.53236 0.0
C123 C 0.08668 0.97304 0.5373 0.0
H124 H 0.07733 0.96915 0.57066 0.0
H125 H 0.0811 0.98703 0.51988 0.0
H126 H 0.08517 0.96101 0.50848 0.0
O127 O 0.09893 0.97501 0.70636 0.0
O128 O 0.13148 0.97281 0.72333 0.0
H129 H 0.16395 0.95669 0.60483 0.0
H130 H 0.15955 0.94759 0.54095 0.0
C131 C 0.15962 0.96106 0.56561 0.0
H132 H 0.17085 0.97157 0.55022 0.0
H133 H 0.17747 0.96506 0.71563 0.0
O134 O 0.07085 0.99934 0.62306 0.0
C135 C 0.11336 0.96776 0.7322 0.0
Co136 Co 0.52875 0.42489 0.83367 0.0
Co137 Co 0.53094 0.37811 0.8252 0.0
C138 C 0.49344 0.40089 0.80017 0.0
O139 O 0.50285 0.41692 0.80809 0.0
O140 O 0.50171 0.38389 0.80673 0.0
C141 C 0.50959 0.4612 0.85936 0.0
O142 O 0.49373 0.45208 0.84172 0.0
C143 C 0.52564 0.33786 0.87059 0.0
C144 C 0.5481 0.32023 0.82914 0.0
C145 C 0.53451 0.31898 0.86892 0.0
N146 N 0.53389 0.34953 0.83427 0.0
N147 N 0.54705 0.33873 0.80911 0.0
C148 C 0.51098 0.34547 0.90886 0.0
H149 H 0.5103 0.36202 0.90798 0.0
H150 H 0.51497 0.34028 0.94775 0.0
H151 H 0.49599 0.33958 0.8994 0.0
C152 C 0.5443 0.41708 0.93554 0.0
N153 N 0.53638 0.41031 0.89167 0.0
N154 N 0.53948 0.39097 0.88768 0.0
C155 C 0.55045 0.38506 0.92846 0.0
C156 C 0.55347 0.40138 0.96038 0.0
C157 C 0.54539 0.43867 0.95018 0.0
H158 H 0.55392 0.44701 0.92086 0.0
H159 H 0.53013 0.44489 0.95194 0.0
H160 H 0.55268 0.44086 0.98773 0.0
O161 O 0.54898 0.42106 0.781 0.0
O162 O 0.54922 0.38805 0.76818 0.0
H163 H 0.56406 0.35894 0.89611 0.0
H164 H 0.57357 0.36593 0.95815 0.0
C165 C 0.56003 0.36501 0.93403 0.0
H166 H 0.54948 0.35464 0.95284 0.0
H167 H 0.55601 0.34425 0.77981 0.0
O168 O 0.52658 0.4532 0.85372 0.0
C169 C 0.55542 0.4057 0.75755 0.0
Co170 Co 0.09663 0.52907 0.35764 0.0
Co171 Co 0.14252 0.53281 0.33895 0.0
C172 C 0.12019 0.49485 0.3155 0.0
O173 O 0.1043 0.50364 0.32787 0.0
O174 O 0.13701 0.50362 0.31912 0.0
C175 C 0.06915 0.5082 0.41175 0.0
O176 O 0.08504 0.49683 0.41443 0.0
C177 C 0.18335 0.52778 0.37773 0.0
C178 C 0.1999 0.55107 0.33609 0.0
C179 C 0.20193 0.53712 0.37505 0.0
N180 N 0.17109 0.53616 0.34299 0.0
N181 N 0.18124 0.5498 0.31754 0.0
C182 C 0.17646 0.5127 0.41605 0.0
H183 H 0.16001 0.51144 0.41577 0.0
H184 H 0.18168 0.51678 0.45483 0.0
H185 H 0.18276 0.49789 0.40614 0.0
C186 C 0.10712 0.54617 0.45638 0.0
N187 N 0.11267 0.53753 0.41221 0.0
N188 N 0.13173 0.54078 0.40429 0.0
C189 C 0.13871 0.55223 0.44311 0.0
C190 C 0.12342 0.5555 0.47775 0.0
C191 C 0.08599 0.54853 0.47365 0.0
H192 H 0.07651 0.55316 0.44116 0.0
H193 H 0.08059 0.53406 0.48873 0.0
H194 H 0.0845 0.55982 0.50436 0.0
O195 O 0.09765 0.54976 0.30453 0.0
O196 O 0.13008 0.55118 0.28534 0.0
H197 H 0.16297 0.56669 0.40456 0.0
H198 H 0.15822 0.57594 0.46812 0.0
C199 C 0.15854 0.5624 0.44376 0.0
H200 H 0.16983 0.5521 0.45976 0.0
H201 H 0.17514 0.559 0.28946 0.0
O202 O 0.06985 0.52403 0.38491 0.0
C203 C 0.11202 0.55681 0.27821 0.0
Co204 Co 0.98758 0.0969 0.85452 0.0
Co205 Co 0.98828 0.14322 0.83853 0.0
C206 C 0.02566 0.11698 0.83063 0.0
O207 O 0.01543 0.1017 0.84171 0.0
O208 O 0.01753 0.13424 0.827 0.0
C209 C 0.99804 0.05572 0.86855 0.0
O210 O 0.01338 0.05978 0.8393 0.0
C211 C 0.99481 0.18309 0.8843 0.0
C212 C 0.97659 0.20245 0.83483 0.0
C213 C 0.98785 0.20266 0.87925 0.0
N214 N 0.9877 0.17202 0.84529 0.0
N215 N 0.97711 0.18383 0.81543 0.0
C216 C 1.00626 0.17442 0.92797 0.0
H217 H 1.0058 0.15786 0.92703 0.0
H218 H 1.00026 0.17993 0.96478 0.0
H219 H 0.02204 0.17916 0.92502 0.0
C220 C 0.96777 0.10748 0.94861 0.0
N221 N 0.97821 0.11299 0.90731 0.0
N222 N 0.97606 0.13225 0.89939 0.0
C223 C 0.96308 0.13939 0.93464 0.0
C224 C 0.95741 0.1238 0.96675 0.0
C225 C 0.96688 0.0866 0.96888 0.0
H226 H 0.9565 0.07772 0.94508 0.0
H227 H 0.98188 0.07974 0.96732 0.0
H228 H 0.96161 0.0863 0.00897 0.0
O229 O 0.97128 0.10152 0.7937 0.0
O230 O 0.97123 0.13425 0.77862 0.0
H231 H 0.95278 0.16511 0.89326 0.0
H232 H 0.93896 0.15966 0.95095 0.0
C233 C 0.95394 0.15975 0.93316 0.0
H234 H 0.96344 0.17025 0.95497 0.0
H235 H 0.9694 0.17897 0.7832 0.0
O236 O 0.9848 0.06896 0.87544 0.0
C237 C 0.96562 0.11649 0.76743 0.0
Co238 Co 0.42286 0.99382 0.34108 0.0
Co239 Co 0.37658 0.98995 0.33331 0.0
C240 C 0.39806 0.02727 0.2998 0.0
O241 O 0.41424 0.01843 0.30901 0.0
O242 O 0.38137 0.01891 0.30923 0.0
C243 C 0.45241 0.01605 0.38392 0.0
O244 O 0.43707 0.02818 0.38587 0.0
C245 C 0.33678 0.99598 0.37772 0.0
C246 C 0.31949 0.97117 0.34467 0.0
C247 C 0.31829 0.98649 0.38022 0.0
N248 N 0.34832 0.98633 0.34365 0.0
N249 N 0.33775 0.97169 0.3235 0.0
C250 C 0.34355 0.01404 0.40657 0.0
H251 H 0.35519 0.0221 0.3848 0.0
H252 H 0.35014 1.00941 0.4435 0.0
H253 H 0.33085 0.02421 0.41414 0.0
C254 C 0.41565 0.97917 0.44443 0.0
N255 N 0.40866 0.98674 0.40027 0.0
N256 N 0.38939 0.98353 0.3972 0.0
C257 C 0.38368 0.97316 0.43928 0.0
C258 C 0.4001 0.97054 0.47084 0.0
C259 C 0.43727 0.97716 0.45746 0.0
H260 H 0.44564 0.97163 0.42393 0.0
H261 H 0.44313 0.99198 0.46863 0.0
H262 H 0.43978 0.96671 0.48968 0.0
O263 O 0.42021 0.97213 0.29178 0.0
O264 O 0.38731 0.97022 0.28031 0.0
H265 H 0.35842 0.95747 0.40919 0.0
H266 H 0.36465 0.95097 0.47416 0.0
C267 C 0.36384 0.96337 0.44613 0.0
H268 H 0.35302 0.97445 0.46067 0.0
H269 H 0.34327 0.96153 0.29688 0.0
O270 O 0.45044 0.9993 0.36162 0.0
C271 C 0.40508 0.96441 0.26995 0.0
Co272 Co 0.486 0.9262 0.85437 0.0
Co273 Co 0.48726 0.87992 0.83764 0.0
C274 C 0.52397 0.9066 0.82601 0.0
O275 O 0.51367 0.92176 0.83773 0.0
O276 O 0.51612 0.88919 0.82363 0.0
C277 C 0.49633 0.9674 0.86988 0.0
O278 O 0.5119 0.96357 0.84125 0.0
C279 C 0.49467 0.83972 0.8809 0.0
C280 C 0.47553 0.82078 0.83272 0.0
C281 C 0.48752 0.82022 0.87586 0.0
N282 N 0.48694 0.85109 0.84322 0.0
N283 N 0.47582 0.83952 0.81404 0.0
C284 C 0.50701 0.84804 0.92341 0.0
H285 H 0.50664 0.8646 0.92315 0.0
H286 H 0.5017 0.84232 0.96074 0.0
H287 H 0.52267 0.84322 0.91828 0.0
C288 C 0.46894 0.91495 0.95172 0.0
N289 N 0.47804 0.90979 0.90812 0.0
N290 N 0.4761 0.89049 0.9004 0.0
C291 C 0.46456 0.88296 0.93838 0.0
C292 C 0.45978 0.89831 0.97205 0.0
C293 C 0.46796 0.9358 0.9721 0.0
H294 H 0.45679 0.94437 0.94992 0.0
H295 H 0.48269 0.94308 0.9682 0.0
H296 H 0.46361 0.93597 0.01293 0.0
O297 O 0.46842 0.9216 0.79592 0.0
O298 O 0.46947 0.88898 0.77915 0.0
H299 H 0.45394 0.85681 0.89934 0.0
H300 H 0.44118 0.86237 0.95848 0.0
C301 C 0.4558 0.86242 0.9388 0.0
H302 H 0.46585 0.85224 0.95997 0.0
H303 H 0.46757 0.84464 0.78295 0.0
O304 O 0.48317 0.95403 0.8761 0.0
C305 C 0.46305 0.90659 0.76953 0.0
Co306 Co 0.59782 0.48963 0.32997 0.0
Co307 Co 0.64437 0.48931 0.32448 0.0
C308 C 0.6199 0.52638 0.30052 0.0
O309 O 0.60408 0.51655 0.30789 0.0
O310 O 0.63704 0.51836 0.30619 0.0
C311 C 0.55777 0.50349 0.34298 0.0
O312 O 0.56412 0.52024 0.32259 0.0
C313 C 0.68409 0.49593 0.37179 0.0
C314 C 0.70258 0.47458 0.32886 0.0
C315 C 0.70322 0.48775 0.36973 0.0
N316 N 0.67286 0.48764 0.33465 0.0
N317 N 0.68419 0.47518 0.30863 0.0
C318 C 0.67594 0.51002 0.41081 0.0
H319 H 0.65944 0.51015 0.40969 0.0
H320 H 0.68116 0.50584 0.44953 0.0
H321 H 0.68134 0.52533 0.40234 0.0
C322 C 0.60508 0.47497 0.43298 0.0
N323 N 0.61196 0.48247 0.38877 0.0
N324 N 0.63135 0.48 0.38615 0.0
C325 C 0.6372 0.46975 0.42828 0.0
C326 C 0.62075 0.46664 0.45952 0.0
C327 C 0.58351 0.47375 0.44687 0.0
H328 H 0.57593 0.46334 0.42034 0.0
H329 H 0.57662 0.48873 0.44302 0.0
H330 H 0.58128 0.4683 0.48641 0.0
O331 O 0.60335 0.47028 0.27626 0.0
O332 O 0.63626 0.4708 0.26611 0.0
H333 H 0.66469 0.45788 0.39929 0.0
H334 H 0.65668 0.44727 0.45938 0.0
C335 C 0.6575 0.46116 0.43636 0.0
H336 H 0.66674 0.47202 0.4577 0.0
H337 H 0.67911 0.46636 0.27852 0.0
O338 O 0.56939 0.4886 0.34572 0.0
C339 C 0.619 0.46431 0.25376 0.0
Co340 Co 0.03404 0.59732 0.8389 0.0
Co341 Co 0.03264 0.64406 0.83552 0.0
C342 C 0.99713 0.61834 0.80604 0.0
O343 O 1.00741 0.60275 0.81348 0.0
O344 O 1.00431 0.63579 0.81389 0.0
C345 C 0.0221 0.55609 0.84716 0.0
O346 O 1.00597 0.56142 0.82236 0.0
C347 C 0.02329 0.68376 0.88049 0.0
C348 C 0.04657 0.70259 0.84573 0.0
C349 C 0.03133 0.70303 0.88141 0.0
N350 N 0.03366 0.67259 0.84691 0.0
N351 N 0.04737 0.68407 0.82588 0.0
C352 C 1.00573 0.67604 0.90953 0.0
H353 H 0.99889 0.66326 0.8891 0.0
H354 H 0.01055 0.67067 0.94756 0.0
H355 H 0.99453 0.68804 0.9149 0.0
C356 C 0.04596 0.60453 0.94442 0.0
N357 N 0.03942 0.61141 0.89922 0.0
N358 N 0.04098 0.63099 0.8979 0.0
C359 C 0.04959 0.63705 0.94212 0.0
C360 C 0.05263 0.62045 0.97319 0.0
C361 C 0.04791 0.58285 0.95749 0.0
H362 H 0.0591 0.57598 0.93188 0.0
H363 H 0.03341 0.5753 0.95146 0.0
H364 H 0.05272 0.58047 0.99748 0.0
O365 O 0.0541 0.60387 0.78792 0.0
O366 O 0.05232 0.63693 0.77909 0.0
H367 H 0.06171 0.66509 0.91711 0.0
H368 H 0.06897 0.65779 0.98091 0.0
C369 C 0.05663 0.65783 0.95279 0.0
H370 H 0.04426 0.66667 0.96914 0.0
H371 H 0.05778 0.67908 0.79926 0.0
O372 O 0.03591 0.56874 0.85397 0.0
C373 C 0.05974 0.62 0.76678 0.0
Co374 Co 0.92213 0.03474 0.33657 0.0
Co375 Co 0.87585 0.03445 0.3334 0.0
C376 C 0.90133 0.99707 0.31426 0.0
O377 O 0.91698 1.0071 0.32194 0.0
O378 O 0.88413 1.00529 0.31615 0.0
C379 C 0.96338 0.02471 0.33454 0.0
O380 O 0.95784 1.00924 0.30722 0.0
C381 C 0.83811 0.02681 0.38773 0.0
C382 C 0.81621 0.04293 0.34043 0.0
C383 C 0.81806 0.03199 0.38513 0.0
N384 N 0.84761 0.03461 0.34705 0.0
N385 N 0.83436 0.04409 0.31874 0.0
C386 C 0.84801 0.01383 0.42672 0.0
H387 H 0.86175 1.00713 0.41074 0.0
H388 H 0.85222 0.02289 0.46036 0.0
H389 H 0.83769 1.00191 0.43963 0.0
C390 C 0.9161 0.05193 0.43646 0.0
N391 N 0.90869 0.04282 0.39503 0.0
N392 N 0.88929 0.04516 0.39318 0.0
C393 C 0.88389 0.05697 0.43294 0.0
C394 C 0.90079 0.06157 0.46155 0.0
C395 C 0.93771 0.0521 0.45049 0.0
H396 H 0.94558 0.06332 0.42673 0.0
H397 H 0.94432 0.0372 0.44323 0.0
H398 H 0.93987 0.05591 0.4913 0.0
O399 O 0.91505 0.05249 0.28067 0.0
O400 O 0.8821 0.05309 0.27399 0.0
H401 H 0.85591 0.06693 0.40194 0.0
H402 H 0.86546 0.08192 0.4539 0.0
C403 C 0.86389 0.06649 0.4389 0.0
H404 H 0.85499 0.05788 0.46687 0.0
H405 H 0.83777 0.05174 0.28517 0.0
O406 O 0.95058 0.03759 0.34786 0.0
C407 C 0.89931 0.059 0.25954 0.0
Co408 Co 0.48889 0.59891 0.161 0.0
Co409 Co 0.48712 0.64544 0.17102 0.0
C410 C 0.5247 0.62117 0.19367 0.0
O411 O 0.51561 0.60512 0.18334 0.0
O412 O 0.51603 0.63817 0.19064 0.0
C413 C 0.50223 0.55841 0.14694 0.0
O414 O 0.51872 0.56403 0.16969 0.0
C415 C 0.49382 0.68566 0.12644 0.0
C416 C 0.47174 0.70372 0.16805 0.0
C417 C 0.48538 0.70472 0.12836 0.0
N418 N 0.48526 0.6741 0.16252 0.0
N419 N 0.47235 0.68516 0.18781 0.0
C420 C 0.50836 0.67784 0.08815 0.0
H421 H 0.50868 0.66127 0.08875 0.0
H422 H 0.50455 0.68323 0.04933 0.0
H423 H 0.52345 0.68339 0.09785 0.0
C424 C 0.47476 0.60736 0.05806 0.0
N425 N 0.48167 0.61376 0.10331 0.0
N426 N 0.47862 0.63309 0.10778 0.0
C427 C 0.46853 0.63934 0.06582 0.0
C428 C 0.46616 0.62326 0.03272 0.0
C429 C 0.47418 0.5859 0.04213 0.0
H430 H 0.46346 0.5778 0.06672 0.0
H431 H 0.48913 0.57917 0.04714 0.0
H432 H 0.46949 0.58409 1.00187 0.0
O433 O 0.46966 0.60355 0.21539 0.0
O434 O 0.46816 0.63639 0.22734 0.0
H435 H 0.4557 0.66609 0.09701 0.0
H436 H 0.44597 0.65888 0.03533 0.0
C437 C 0.45954 0.65962 0.0594 0.0
H438 H 0.47034 0.66953 0.03995 0.0
H439 H 0.46322 0.67978 0.21692 0.0
O440 O 0.48786 0.5706 0.14319 0.0
C441 C 0.46259 0.61862 0.23861 0.0
Co442 Co 0.92152 0.48574 0.67724 0.0
Co443 Co 0.87493 0.48724 0.67666 0.0
C444 C 0.90024 0.5235 0.70224 0.0
O445 O 0.91578 0.513 0.69745 0.0
O446 O 0.88292 0.51615 0.69445 0.0
C447 C 0.96248 0.49766 0.67425 0.0
O448 O 0.95657 0.51368 0.69884 0.0
C449 C 0.83573 0.49466 0.62644 0.0
C450 C 0.81656 0.47356 0.66839 0.0
C451 C 0.81646 0.48676 0.62751 0.0
N452 N 0.84653 0.48617 0.66415 0.0
N453 N 0.83479 0.47386 0.68955 0.0
C454 C 0.84438 0.50872 0.58801 0.0
H455 H 0.86088 0.50848 0.58968 0.0
H456 H 0.83925 0.50482 0.54904 0.0
H457 H 0.83927 0.52411 0.59666 0.0
C458 C 0.91571 0.47119 0.57358 0.0
N459 N 0.90824 0.47878 0.617 0.0
N460 N 0.88872 0.47727 0.61678 0.0
C461 C 0.8833 0.46762 0.5734 0.0
C462 C 0.90024 0.46385 0.5445 0.0
C463 C 0.93747 0.46928 0.56235 0.0
H464 H 0.94425 0.45872 0.58996 0.0
H465 H 0.94476 0.48404 0.56689 0.0
H466 H 0.94025 0.46367 0.52321 0.0
O467 O 0.91447 0.46695 0.73089 0.0
O468 O 0.88144 0.46878 0.73654 0.0
H469 H 0.85447 0.45728 0.59727 0.0
H470 H 0.86335 0.44654 0.53824 0.0
C471 C 0.86277 0.46034 0.56163 0.0
H472 H 0.85479 0.47185 0.53919 0.0
H473 H 0.83948 0.46496 0.71994 0.0
O474 O 0.95014 0.48378 0.66506 0.0
C475 C 0.89817 0.46175 0.75146 0.0
Co476 Co 0.03391 0.92649 0.17182 0.0
Co477 Co 0.03259 0.87962 0.17204 0.0
C478 C 0.99589 0.90468 0.19247 0.0
O479 O 1.00644 0.92016 0.18692 0.0
O480 O 1.0035 0.88724 0.18863 0.0
C481 C 0.0198 0.96626 0.16718 0.0
O482 O 1.00563 0.95961 0.19718 0.0
C483 C 0.02422 0.84052 0.12286 0.0
C484 C 0.04608 0.82092 0.16074 0.0
C485 C 0.03177 0.82106 0.12254 0.0
N486 N 0.03394 0.85123 0.15866 0.0
N487 N 0.04683 0.83931 0.18144 0.0
C488 C 1.00767 0.84885 0.09113 0.0
H489 H 1.00083 0.86189 0.11039 0.0
H490 H 0.0136 0.85401 0.05394 0.0
H491 H 0.99618 0.83727 0.084 0.0
C492 C 0.05062 0.92055 0.07077 0.0
N493 N 0.04196 0.91311 0.11284 0.0
N494 N 0.04295 0.89348 0.1125 0.0
C495 C 0.05321 0.8879 0.07023 0.0
C496 C 0.05837 0.90494 0.0426 0.0
C497 C 0.05158 0.94236 0.05811 0.0
H498 H 0.06205 0.94989 0.08458 0.0
H499 H 0.03663 0.94909 0.06298 0.0
H500 H 0.05647 0.94498 0.01828 0.0
O501 O 0.05195 0.91961 0.22749 0.0
O502 O 0.05076 0.88634 0.23208 0.0
H503 H 0.06435 0.85957 0.09597 0.0
H504 H 0.07346 0.86727 0.03407 0.0
C505 C 0.06035 0.86714 0.05979 0.0
H506 H 0.04835 0.85854 0.04091 0.0
H507 H 0.05657 0.84387 0.21016 0.0
O508 O 0.03482 0.95532 0.15836 0.0
C509 C 0.05732 0.90321 0.24778 0.0
Co510 Co 0.59737 0.03562 0.66298 0.0
Co511 Co 0.64352 0.03506 0.67505 0.0
C512 C 0.61752 0.99784 0.68943 0.0
O513 O 0.60217 1.00789 0.67843 0.0
O514 O 0.63475 1.00602 0.69091 0.0
C515 C 0.55631 0.02519 0.65362 0.0
O516 O 0.56097 1.00921 0.68017 0.0
C517 C 0.68297 0.02707 0.62924 0.0
C518 C 0.70274 0.04562 0.67678 0.0
C519 C 0.70274 0.03348 0.63379 0.0
N520 N 0.67212 0.03534 0.66704 0.0
N521 N 0.68413 0.04616 0.6957 0.0
C522 C 0.67394 0.01454 0.58806 0.0
H523 H 0.65746 0.01518 0.5897 0.0
H524 H 0.67913 0.01958 0.55002 0.0
H525 H 0.67851 0.99876 0.59355 0.0
C526 C 0.60656 0.05237 0.5637 0.0
N527 N 0.61251 0.04385 0.6075 0.0
N528 N 0.63186 0.04584 0.61285 0.0
C529 C 0.63866 0.05683 0.57292 0.0
C530 C 0.62282 0.06095 0.5403 0.0
C531 C 0.5853 0.05407 0.54709 0.0
H532 H 0.57746 0.06467 0.57259 0.0
H533 H 0.57797 0.03927 0.55005 0.0
H534 H 0.58401 0.05955 0.50728 0.0
O535 O 0.60272 0.05294 0.72103 0.0
O536 O 0.63541 0.05321 0.73387 0.0
H537 H 0.66587 0.06724 0.60697 0.0
H538 H 0.65894 0.07981 0.54836 0.0
C539 C 0.6592 0.06525 0.56865 0.0
H540 H 0.66858 0.05488 0.54618 0.0
H541 H 0.67949 0.05456 0.72702 0.0
O542 O 0.56938 0.03847 0.6455 0.0
C543 C 0.61786 0.05903 0.74559 0.0
H544 H 0.47792 0.0507 0.12118 0.0
H545 H 0.54027 0.0352 0.12033 0.0
H546 H 0.47274 0.03104 0.0448 0.0
H547 H 0.53494 0.01429 0.04555 0.0
H548 H 0.52623 0.99449 0.8857 0.0
H549 H 0.52934 0.01715 0.95782 0.0
H550 H 0.47063 0.99983 0.00925 0.0
H551 H 0.46696 0.97871 0.93522 0.0
C552 C 0.49039 0.04246 0.10566 0.0
C553 C 0.5095 0.04439 0.12667 0.0
C554 C 0.48745 0.03122 0.06161 0.0
C555 C 0.50347 0.02128 0.03833 0.0
C556 C 0.52237 0.02225 0.0614 0.0
C557 C 0.52538 0.03387 0.10484 0.0
C558 C 0.5138 0.99599 0.91167 0.0
C559 C 0.49656 0.98441 0.90554 0.0
C560 C 0.5157 1.0087 0.95358 0.0
C561 C 0.50051 1.00984 0.99044 0.0
C562 C 0.4827 0.99938 0.98195 0.0
C563 C 0.48064 0.98707 0.93955 0.0
H564 H 0.54104 0.47151 0.39063 0.0
H565 H 0.53362 0.535 0.3668 0.0
H566 H 0.51639 0.47236 0.45793 0.0
H567 H 0.50805 0.53564 0.43269 0.0
H568 H 0.48372 0.53522 0.59382 0.0
H569 H 0.50781 0.53314 0.52454 0.0
H570 H 0.48245 0.47665 0.47802 0.0
H571 H 0.4591 0.47828 0.54819 0.0
C572 C 0.53381 0.48558 0.39899 0.0
C573 C 0.53956 0.50327 0.37416 0.0
C574 C 0.5196 0.48605 0.4375 0.0
C575 C 0.51057 0.50415 0.45136 0.0
C576 C 0.51521 0.52157 0.42383 0.0
C577 C 0.52961 0.52115 0.38557 0.0
C578 C 0.4836 0.52218 0.56941 0.0
C579 C 0.46949 0.50696 0.57635 0.0
C580 C 0.49717 0.52113 0.52925 0.0
C581 C 0.49678 0.5049 0.49525 0.0
C582 C 0.48321 0.48931 0.50363 0.0
C583 C 0.46981 0.49026 0.54395 0.0
H584 H 0.04387 0.46741 0.08383 0.0
H585 H 0.98257 0.48604 0.09698 0.0
H586 H 0.0474 0.48698 0.00669 0.0
H587 H 0.9864 0.50689 0.02138 0.0
H588 H 0.99147 0.52985 0.86363 0.0
H589 H 0.98931 0.50549 0.93247 0.0
H590 H 0.05018 0.51866 0.97465 0.0
H591 H 0.05276 0.5415 0.90375 0.0
C592 C 0.0313 0.47623 0.07104 0.0
C593 C 0.01297 0.47534 0.0965 0.0
C594 C 0.0333 0.48743 0.0266 0.0
C595 C 0.01714 0.49842 0.00731 0.0
C596 C 0.99901 0.49817 0.0342 0.0
C597 C 0.99689 0.48656 0.07807 0.0
C598 C 1.00455 0.52704 0.88668 0.0
C599 C 0.02212 0.53798 0.87917 0.0
C600 C 1.00322 0.51334 0.92674 0.0
C601 C 0.01935 0.51056 0.96028 0.0
C602 C 0.03741 0.52033 0.94987 0.0
C603 C 0.03885 0.53363 0.90927 0.0
H604 H 0.03893 0.99014 0.57472 0.0
H605 H 0.06646 0.0457 0.52862 0.0
H606 H 0.01513 0.9933 0.50486 0.0
H607 H 0.043 0.04857 0.45842 0.0
H608 H 0.98081 0.05598 0.38277 0.0
H609 H 1.00743 0.05414 0.44528 0.0
H610 H 0.01595 0.9917 0.40974 0.0
H611 H 0.9889 0.99341 0.34771 0.0
C612 C 0.03974 1.00312 0.55011 0.0
C613 C 0.05454 0.01766 0.55702 0.0
C614 C 0.02635 1.00476 0.50969 0.0
C615 C 0.02751 0.021 0.47581 0.0
C616 C 0.04182 0.03589 0.48395 0.0
C617 C 0.0552 0.03425 0.52421 0.0
C618 C 0.98865 0.04197 0.38748 0.0
C619 C 0.98261 0.02475 0.36108 0.0
C620 C 1.0039 0.04093 0.42323 0.0
C621 C 0.0134 0.02267 0.43301 0.0
C622 C 1.00848 1.00584 0.40362 0.0
C623 C 0.99322 1.00689 0.36769 0.0
H624 H 0.47684 0.46833 0.91673 0.0
H625 H 0.53733 0.48799 0.89238 0.0
H626 H 0.47479 0.48869 0.9927 0.0
H627 H 0.5349 0.5096 0.96689 0.0
H628 H 0.53307 0.53303 0.12535 0.0
H629 H 0.53416 0.50867 0.05641 0.0
H630 H 0.47225 0.52069 0.0229 0.0
H631 H 0.47081 0.54353 0.09389 0.0
C632 C 0.48951 0.47753 0.92676 0.0
C633 C 0.50723 0.47667 0.89857 0.0
C634 C 0.48836 0.4892 0.97053 0.0
C635 C 0.50474 0.50069 0.98639 0.0
C636 C 0.52217 0.50052 0.95668 0.0
C637 C 0.52347 0.48847 0.91344 0.0
C638 C 0.51957 0.52998 0.10414 0.0
C639 C 0.50198 0.54054 0.11422 0.0
C640 C 0.52027 0.51629 0.06403 0.0
C641 C 0.50346 0.51313 0.03303 0.0
C642 C 0.48551 0.52264 0.04578 0.0
C643 C 0.48472 0.53594 0.08641 0.0
H644 H 0.98746 0.52923 0.65802 0.0
H645 H 0.97979 0.46641 0.62515 0.0
H646 H 0.01405 0.53096 0.59487 0.0
H647 H 1.00585 0.46831 0.56123 0.0
H648 H 0.06453 0.47672 0.47615 0.0
H649 H 0.04102 0.47377 0.54614 0.0
H650 H 0.01359 0.5294 0.50078 0.0
H651 H 0.03749 0.53265 0.4313 0.0
C652 C 0.99171 0.51572 0.63811 0.0
C653 C 0.98135 0.49776 0.64589 0.0
C654 C 1.00672 0.51678 0.6015 0.0
C655 C 0.01165 0.49988 0.57237 0.0
C656 C 1.00234 0.48158 0.58302 0.0
C657 C 0.98738 0.48052 0.61958 0.0
C658 C 0.05335 0.48823 0.48072 0.0
C659 C 0.05288 0.50496 0.44835 0.0
C660 C 0.03992 0.48653 0.52088 0.0
C661 C 0.02571 0.5015 0.52934 0.0
C662 C 0.02473 0.51787 0.4958 0.0
C663 C 0.03819 0.51958 0.45558 0.0
H664 H 0.98371 0.97471 0.12682 0.0
H665 H 0.04572 0.9913 0.11983 0.0
H666 H 0.97727 0.99336 0.04933 0.0
H667 H 0.03914 1.0113 0.04401 0.0
H668 H 0.02858 0.02934 0.88398 0.0
H669 H 0.03277 1.00743 0.9573 0.0
H670 H 0.97404 0.02374 0.01053 0.0
H671 H 0.96928 0.04397 0.93526 0.0
C672 C 0.99581 0.98306 0.10976 0.0
C673 C 0.01519 0.98173 0.12935 0.0
C674 C 0.99216 0.9937 0.06504 0.0
C675 C 1.00773 1.00363 0.03969 0.0
C676 C 0.02689 1.00331 0.06143 0.0
C677 C 0.03063 0.99225 0.10549 0.0
C678 C 0.01637 0.02773 0.9106 0.0
C679 C 0.99882 0.03884 0.90465 0.0
C680 C 0.01889 0.01548 0.95321 0.0
C681 C 1.00405 0.01436 0.991 0.0
C682 C 0.98589 0.02422 0.98261 0.0
C683 C 0.9832 0.03603 0.93948 0.0
H684 H 0.45886 0.04875 0.44295 0.0
H685 H 0.48357 0.99106 0.40439 0.0
H686 H 0.48215 0.05163 0.51333 0.0
H687 H 0.50734 0.99427 0.47417 0.0
H688 H 0.53054 0.9945 0.63479 0.0
H689 H 0.50536 0.99346 0.56782 0.0
H690 H 0.51697 0.05548 0.53276 0.0
H691 H 0.5415 0.05675 0.60062 0.0
C692 C 0.46956 0.03687 0.4488 0.0
C693 C 0.46927 0.01957 0.4185 0.0
C694 C 0.48288 0.03853 0.48921 0.0
C695 C 0.49625 0.02299 0.49981 0.0
C696 C 0.49679 1.00623 0.46762 0.0
C697 C 0.48342 1.00454 0.4272 0.0
C698 C 0.52732 1.00803 0.61367 0.0
C699 C 0.53817 0.02562 0.62233 0.0
C700 C 0.51315 1.00736 0.57486 0.0
C701 C 0.50962 0.02425 0.54431 0.0
C702 C 0.51943 0.04221 0.55556 0.0
C703 C 0.5335 0.04291 0.59439 0.0
H704 H 0.50241 0.2153 0.06057 0.0
H705 H 0.56204 0.23214 0.10424 0.0
H706 H 0.50191 0.24229 0.9978 0.0
H707 H 0.56121 0.25948 0.04348 0.0
H708 H 0.56355 0.29245 0.89363 0.0
H709 H 0.56237 0.26478 0.95339 0.0
H710 H 0.50107 0.27856 0.98758 0.0
H711 H 0.50199 0.30586 0.92571 0.0
C712 C 0.51551 0.22452 0.05655 0.0
C713 C 0.53247 0.22108 0.08685 0.0
C714 C 0.51509 0.24028 0.02101 0.0
C715 C 0.53161 0.25303 0.01493 0.0
C716 C 0.54835 0.24979 0.04609 0.0
C717 C 0.54875 0.23414 0.08144 0.0
C718 C 0.54974 0.28961 0.91361 0.0
C719 C 0.53301 0.30184 0.90541 0.0
C720 C 0.54912 0.27377 0.94841 0.0
C721 C 0.53172 0.26952 0.97618 0.0
C722 C 0.51476 0.28137 0.96705 0.0
C723 C 0.51539 0.2973 0.93206 0.0
H724 H 0.30498 0.50567 0.56767 0.0
H725 H 0.28999 0.56656 0.60585 0.0
H726 H 0.27809 0.50501 0.50541 0.0
H727 H 0.26245 0.56551 0.54603 0.0
H728 H 0.22826 0.56663 0.39825 0.0
H729 H 0.25597 0.56593 0.45757 0.0
H730 H 0.24286 0.50434 0.49343 0.0
H731 H 0.2158 0.50471 0.43159 0.0
C732 C 0.29618 0.51901 0.56258 0.0
C733 C 0.30021 0.53639 0.59102 0.0
C734 C 0.28041 0.51851 0.52734 0.0
C735 C 0.26811 0.5353 0.51987 0.0
C736 C 0.27182 0.55242 0.54952 0.0
C737 C 0.28757 0.55295 0.58444 0.0
C738 C 0.23129 0.55285 0.41845 0.0
C739 C 0.21929 0.53588 0.41074 0.0
C740 C 0.24714 0.55251 0.4531 0.0
C741 C 0.25158 0.53519 0.48135 0.0
C742 C 0.23996 0.518 0.47261 0.0
C743 C 0.2241 0.51832 0.43763 0.0
H744 H 0.01835 0.30449 0.07778 0.0
H745 H 0.95635 0.29173 0.10578 0.0
H746 H 0.01961 0.27719 0.01606 0.0
H747 H 0.9578 0.26409 0.04588 0.0
H748 H 0.95974 0.23115 0.89523 0.0
H749 H 0.96012 0.25876 0.95533 0.0
H750 H 0.01836 0.24075 0.00742 0.0
H751 H 0.0183 0.21346 0.94561 0.0
C752 C 1.00493 0.29606 0.07053 0.0
C753 C 0.98711 0.30073 0.09607 0.0
C754 C 1.00574 0.28014 0.03562 0.0
C755 C 0.98875 0.26849 0.02537 0.0
C756 C 0.9711 0.27293 0.05185 0.0
C757 C 0.97032 0.28873 0.08669 0.0
C758 C 0.97271 0.23305 0.91929 0.0
C759 C 0.98881 0.21968 0.91608 0.0
C760 C 0.97284 0.24885 0.95422 0.0
C761 C 0.98914 0.25191 0.98697 0.0
C762 C 1.00552 0.23888 0.98293 0.0
C763 C 1.00535 0.22297 0.94793 0.0
H764 H 0.20168 0.9985 0.52658 0.0
H765 H 0.24185 0.98257 0.64847 0.0
H766 H 0.22943 1.00073 0.46792 0.0
H767 H 0.26962 0.98348 0.58879 0.0
H768 H 0.31884 1.0003 0.47992 0.0
H769 H 0.29107 1.00329 0.53857 0.0
H770 H 0.25152 0.98007 0.42296 0.0
H771 H 0.27916 0.97832 0.36325 0.0
C772 C 0.21645 0.99594 0.54142 0.0
C773 C 0.21946 0.99097 0.59302 0.0
C774 C 0.23245 0.99676 0.5072 0.0
C775 C 0.25195 0.99229 0.52322 0.0
C776 C 0.25496 0.98739 0.57492 0.0
C777 C 0.23896 0.98672 0.60922 0.0
C778 C 0.30416 0.99654 0.46615 0.0
C779 C 0.30127 0.98963 0.416 0.0
C780 C 0.28819 0.99782 0.50042 0.0
C781 C 0.26887 0.99196 0.48587 0.0
C782 C 0.26601 0.98512 0.4356 0.0
C783 C 0.28195 0.98396 0.4013 0.0
H784 H 0.45661 0.73139 0.1028 0.0
H785 H 0.51821 0.71753 0.07241 0.0
H786 H 0.45822 0.75903 0.04301 0.0
H787 H 0.51959 0.74488 0.01063 0.0
H788 H 0.51853 0.8089 0.94014 0.0
H789 H 0.51881 0.78146 1.0017 0.0
H790 H 0.46 0.76409 0.95239 0.0
H791 H 0.4594 0.79183 0.89272 0.0
C792 C 0.47053 0.73414 0.0832 0.0
C793 C 0.48714 0.72182 0.09188 0.0
C794 C 0.47139 0.74995 0.0484 0.0
C795 C 0.48894 0.75409 0.02118 0.0
C796 C 0.50579 0.74214 0.03076 0.0
C797 C 0.50491 0.7262 0.06569 0.0
C798 C 0.50552 0.79949 0.94302 0.0
C799 C 0.48873 0.80301 0.91215 0.0
C800 C 0.50581 0.7835 0.97786 0.0
C801 C 0.48932 0.77063 0.98266 0.0
C802 C 0.47281 0.77388 0.95072 0.0
C803 C 0.47255 0.78976 0.91601 0.0
H804 H 0.78897 0.45852 0.60418 0.0
H805 H 0.80545 0.51913 0.56657 0.0
H806 H 0.76192 0.46005 0.54319 0.0
H807 H 0.77864 0.52035 0.50346 0.0
H808 H 0.71509 0.51991 0.43013 0.0
H809 H 0.7421 0.52065 0.49267 0.0
H810 H 0.75775 0.46016 0.45236 0.0
H811 H 0.73046 0.45911 0.39193 0.0
C812 C 0.78694 0.4722 0.58272 0.0
C813 C 0.79982 0.48854 0.58983 0.0
C814 C 0.77145 0.473 0.54722 0.0
C815 C 0.7682 0.4902 0.51757 0.0
C816 C 0.7807 0.50682 0.52547 0.0
C817 C 0.79633 0.506 0.56119 0.0
C818 C 0.72401 0.50664 0.43525 0.0
C819 C 0.72012 0.48926 0.40669 0.0
C820 C 0.73976 0.50719 0.47062 0.0
C821 C 0.75201 0.49037 0.47825 0.0
C822 C 0.74842 0.47326 0.44853 0.0
C823 C 0.73279 0.47273 0.41337 0.0
H824 H 0.01926 0.82149 0.02151 0.0
H825 H 0.0362 0.78147 0.14319 0.0
H826 H 0.01534 0.79326 0.9644 0.0
H827 H 0.03356 0.75331 0.08518 0.0
H828 H 0.01691 0.70318 0.98067 0.0
H829 H 0.01336 0.73159 0.03745 0.0
H830 H 0.03517 0.77066 0.91872 0.0
H831 H 0.03748 0.74239 0.86101 0.0
C832 C 0.02171 0.8067 0.03669 0.0
C833 C 0.02763 0.80388 0.08767 0.0
C834 C 0.01986 0.79041 1.00336 0.0
C835 C 0.02417 0.77082 0.01976 0.0
C836 C 0.02975 0.76801 0.07102 0.0
C837 C 0.03145 0.78426 0.10436 0.0
C838 C 0.02022 0.71785 0.96583 0.0
C839 C 0.02709 0.72039 0.91555 0.0
C840 C 0.01859 0.73422 0.99898 0.0
C841 C 0.02404 0.75359 0.98311 0.0
C842 C 0.0305 0.75614 0.93245 0.0
C843 C 0.03199 0.73982 0.89929 0.0
H844 H 0.77906 0.02359 0.36649 0.0
H845 H 0.82029 0.03449 0.48953 0.0
H846 H 0.75165 0.02192 0.42784 0.0
H847 H 0.79297 0.03274 0.55076 0.0
H848 H 0.73534 0.05747 0.62631 0.0
H849 H 0.76349 0.05489 0.5686 0.0
H850 H 0.73847 1.0014 0.50329 0.0
H851 H 0.71066 1.00333 0.56249 0.0
C852 C 0.78231 0.02529 0.40672 0.0
C853 C 0.80192 0.02883 0.42314 0.0
C854 C 0.76662 0.02426 0.44187 0.0
C855 C 0.77011 0.02719 0.49422 0.0
C856 C 0.78977 0.03046 0.5107 0.0
C857 C 0.8055 0.03119 0.47562 0.0
C858 C 0.73577 0.045 0.60005 0.0
C859 C 0.72015 0.03095 0.59862 0.0
C860 C 0.75203 0.04353 0.56694 0.0
C861 C 0.75318 0.02803 0.53104 0.0
C862 C 0.73784 0.01374 0.52993 0.0
C863 C 0.72167 0.01503 0.56369 0.0
H864 H 0.46106 0.11887 0.13624 0.0
H865 H 0.47888 0.11736 0.29383 0.0
H866 H 0.43043 0.10097 0.15766 0.0
H867 H 0.44881 0.09902 0.31554 0.0
H868 H 0.39674 0.06252 0.3513 0.0
H869 H 0.4144 0.09289 0.32571 0.0
H870 H 0.42504 0.06703 0.17726 0.0
H871 H 0.40696 0.03722 0.20281 0.0
C872 C 0.45792 0.11561 0.17591 0.0
C873 C 0.47213 0.11999 0.21356 0.0
C874 C 0.44053 0.10495 0.18818 0.0
C875 C 0.43709 0.09813 0.23835 0.0
C876 C 0.45059 0.10411 0.27662 0.0
C877 C 0.46789 0.11481 0.2643 0.0
C878 C 0.40183 0.0639 0.31225 0.0
C879 C 0.40001 0.04767 0.27865 0.0
C880 C 0.41238 0.08115 0.29781 0.0
C881 C 0.42158 0.08248 0.24954 0.0
C882 C 0.41808 0.0669 0.21449 0.0
C883 C 0.40752 0.04974 0.22896 0.0
H884 H 0.48102 0.40726 0.70362 0.0
H885 H 0.46001 0.40309 0.85825 0.0
H886 H 0.4512 0.42555 0.67963 0.0
H887 H 0.42962 0.4209 0.83442 0.0
H888 H 0.39937 0.46179 0.64026 0.0
H889 H 0.41708 0.43138 0.66519 0.0
H890 H 0.42396 0.45499 0.81754 0.0
H891 H 0.40577 0.48482 0.79254 0.0
C892 C 0.4694 0.4092 0.73182 0.0
C893 C 0.47267 0.40329 0.78251 0.0
C894 C 0.45224 0.41988 0.7182 0.0
C895 C 0.43789 0.42509 0.75512 0.0
C896 C 0.44039 0.41754 0.80498 0.0
C897 C 0.45764 0.40692 0.81855 0.0
C898 C 0.40366 0.45987 0.6798 0.0
C899 C 0.40071 0.47547 0.71479 0.0
C900 C 0.41423 0.44261 0.69395 0.0
C901 C 0.42239 0.44067 0.74332 0.0
C902 C 0.41783 0.4556 0.7794 0.0
C903 C 0.40721 0.47276 0.76523 0.0
H904 H 0.11368 0.48493 0.21719 0.0
H905 H 0.11826 0.45981 0.36783 0.0
H906 H 0.09576 0.45551 0.1883 0.0
H907 H 0.10104 0.4297 0.33891 0.0
H908 H 0.06008 0.40446 0.14008 0.0
H909 H 0.09002 0.42224 0.1673 0.0
H910 H 0.0677 0.42288 0.32191 0.0
H911 H 0.03845 0.40441 0.29449 0.0
C912 C 0.1119 0.47251 0.24334 0.0
C913 C 0.1178 0.4745 0.29443 0.0
C914 C 0.10144 0.45555 0.22691 0.0
C915 C 0.09653 0.44008 0.26128 0.0
C916 C 0.1041 0.44136 0.31139 0.0
C917 C 0.1144 0.45845 0.32786 0.0
C918 C 0.06222 0.40742 0.18033 0.0
C919 C 0.04717 0.40257 0.21537 0.0
C920 C 0.07919 0.41804 0.19592 0.0
C921 C 0.08133 0.4245 0.24684 0.0
C922 C 0.06696 0.4181 0.28254 0.0
C923 C 0.05012 0.40731 0.26695 0.0
H924 H 0.13065 0.04538 0.78319 0.0
H925 H 0.10308 0.05942 0.63929 0.0
H926 H 0.11363 0.07385 0.82243 0.0
H927 H 0.08556 0.08714 0.67798 0.0
H928 H 0.04863 0.13239 0.75249 0.0
H929 H 0.07946 0.11758 0.71959 0.0
H930 H 0.08038 0.07671 0.84732 0.0
H931 H 0.05036 0.09184 0.88017 0.0
C932 C 0.12171 0.05511 0.7594 0.0
C933 C 0.11825 0.05019 0.70814 0.0
C934 C 0.11158 0.07124 0.78203 0.0
C935 C 0.09766 0.08266 0.75393 0.0
C936 C 0.09609 0.07897 0.70124 0.0
C937 C 0.10622 0.06298 0.6788 0.0
C938 C 0.05598 0.12085 0.77451 0.0
C939 C 0.04699 0.11323 0.81879 0.0
C940 C 0.07353 0.11211 0.75534 0.0
C941 C 0.08242 0.09557 0.78007 0.0
C942 C 0.07433 0.08942 0.82701 0.0
C943 C 0.05692 0.09809 0.84595 0.0
H944 H 0.62926 0.97803 0.77623 0.0
H945 H 0.5959 0.97085 0.63712 0.0
H946 H 0.61255 0.94864 0.81218 0.0
H947 H 0.579 0.94199 0.67261 0.0
H948 H 0.54509 0.8934 0.74255 0.0
H949 H 0.57512 0.90926 0.70781 0.0
H950 H 0.57917 0.94623 0.84244 0.0
H951 H 0.54971 0.93023 0.87675 0.0
C952 C 0.61907 0.96962 0.75249 0.0
C953 C 0.61392 0.97671 0.70384 0.0
C954 C 0.60922 0.95294 0.77329 0.0
C955 C 0.59405 0.94304 0.7458 0.0
C956 C 0.5906 0.94897 0.69509 0.0
C957 C 0.60033 0.9656 0.67456 0.0
C958 C 0.55299 0.90425 0.76554 0.0
C959 C 0.54504 0.91058 0.81233 0.0
C960 C 0.57006 0.91358 0.74542 0.0
C961 C 0.57953 0.92934 0.77182 0.0
C962 C 0.57258 0.93412 0.82091 0.0
C963 C 0.55556 0.92494 0.84069 0.0
H964 H 0.55863 0.61933 0.13744 0.0
H965 H 0.53629 0.61471 0.29076 0.0
H966 H 0.58904 0.60194 0.16295 0.0
H967 H 0.56604 0.59666 0.31631 0.0
H968 H 0.61336 0.5384 0.2039 0.0
H969 H 0.59512 0.56816 0.17896 0.0
H970 H 0.59971 0.59061 0.33308 0.0
H971 H 0.61737 0.56016 0.35794 0.0
C972 C 0.56068 0.61544 0.17721 0.0
C973 C 0.5453 0.6188 0.2124 0.0
C974 C 0.57794 0.60506 0.19175 0.0
C975 C 0.58004 0.59741 0.24163 0.0
C976 C 0.56531 0.60239 0.27775 0.0
C977 C 0.54818 0.61291 0.26324 0.0
C978 C 0.61136 0.55018 0.23176 0.0
C979 C 0.61717 0.54714 0.28258 0.0
C980 C 0.60074 0.56733 0.21759 0.0
C981 C 0.59554 0.58191 0.25404 0.0
C982 C 0.60302 0.57963 0.30401 0.0
C983 C 0.61355 0.56236 0.31819 0.0
H984 H 0.96237 0.61805 0.85969 0.0
H985 H 0.98682 0.60855 0.70999 0.0
H986 H 0.93191 0.60052 0.83437 0.0
H987 H 0.95691 0.5907 0.68465 0.0
H988 H 0.90653 0.53639 0.7983 0.0
H989 H 0.92544 0.56597 0.82184 0.0
H990 H 0.92267 0.58667 0.66585 0.0
H991 H 0.90415 0.55654 0.64251 0.0
C992 C 0.96082 0.61304 0.82061 0.0
C993 C 0.97676 0.61507 0.78642 0.0
C994 C 0.94351 0.60265 0.80625 0.0
C995 C 0.94187 0.59387 0.7575 0.0
C996 C 0.95729 0.59739 0.72221 0.0
C997 C 0.97452 0.60774 0.73661 0.0
C998 C 0.90906 0.54779 0.76966 0.0
C999 C 0.90348 0.54435 0.71882 0.0
C1000 C 0.92007 0.56479 0.78304 0.0
C1001 C 0.92595 0.57876 0.74571 0.0
C1002 C 0.91876 0.57615 0.69559 0.0
C1003 C 0.90778 0.55906 0.68226 0.0
H1004 H 0.92114 0.97001 0.3706 0.0
H1005 H 0.89072 0.97697 0.22711 0.0
H1006 H 0.93836 0.94082 0.33832 0.0
H1007 H 0.90763 0.94717 0.1944 0.0
H1008 H 0.97088 0.92731 0.13726 0.0
H1009 H 0.94106 0.94376 0.16769 0.0
H1010 H 0.94312 0.90822 0.30528 0.0
H1011 H 0.9736 0.89202 0.2745 0.0
C1012 C 0.91734 0.9646 0.33288 0.0
C1013 C 0.90447 0.97573 0.30155 0.0
C1014 C 0.92729 0.94778 0.31414 0.0
C1015 C 0.92479 0.94165 0.26321 0.0
C1016 C 0.91028 0.95161 0.23352 0.0
C1017 C 0.90026 0.96851 0.25247 0.0
C1018 C 0.96446 0.92236 0.17303 0.0
C1019 C 0.97453 0.90828 0.20331 0.0
C1020 C 0.94725 0.93184 0.19067 0.0
C1021 C 0.93962 0.92764 0.23948 0.0
C1022 C 0.94868 0.91213 0.26784 0.0
C1023 C 0.96599 0.90255 0.24994 0.0
H1024 H 0.58601 0.08327 0.75615 0.0
H1025 H 0.64093 0.06699 0.83089 0.0
H1026 H 0.57614 0.10254 0.82943 0.0
H1027 H 0.63119 0.08713 0.90513 0.0
H1028 H 0.58837 0.09355 0.04641 0.0
H1029 H 0.60735 0.0833 0.97195 0.0
H1030 H 0.57954 0.13025 0.88384 0.0
H1031 H 0.55971 0.13969 0.95835 0.0
C1032 C 0.5962 0.0841 0.78811 0.0
C1033 C 0.61412 0.07323 0.788 0.0
C1034 C 0.59062 0.09547 0.83015 0.0
C1035 C 0.60277 0.09644 0.87364 0.0
C1036 C 0.62132 0.08653 0.87253 0.0
C1037 C 0.62699 0.07508 0.82995 0.0
C1038 C 0.58651 0.10181 0.01119 0.0
C1039 C 0.57213 0.11697 0.00751 0.0
C1040 C 0.5976 0.0961 0.96856 0.0
C1041 C 0.59473 0.10562 0.92131 0.0
C1042 C 0.58176 0.1222 0.91922 0.0
C1043 C 0.57052 0.12777 0.96191 0.0
H1044 H 0.38013 0.55879 0.44322 0.0
H1045 H 0.42125 0.592 0.53641 0.0
H1046 H 0.39029 0.57828 0.36855 0.0
H1047 H 0.43219 0.61086 0.46204 0.0
H1048 H 0.45087 0.64272 0.31923 0.0
H1049 H 0.42931 0.63313 0.39086 0.0
H1050 H 0.41983 0.57545 0.32095 0.0
H1051 H 0.44052 0.58511 0.25012 0.0
C1052 C 0.39095 0.57065 0.44785 0.0
C1053 C 0.40019 0.5737 0.49507 0.0
C1054 C 0.39698 0.58168 0.4051 0.0
C1055 C 0.41252 0.59581 0.40878 0.0
C1056 C 0.42022 0.60019 0.4574 0.0
C1057 C 0.41403 0.5893 0.5001 0.0
C1058 C 0.4438 0.62818 0.31891 0.0
C1059 C 0.44769 0.6146 0.2793 0.0
C1060 C 0.43153 0.62262 0.36003 0.0
C1061 C 0.42279 0.60344 0.36202 0.0
C1062 C 0.42591 0.59043 0.3208 0.0
C1063 C 0.4381 0.59592 0.28022 0.0
H1064 H 0.92532 0.40573 0.04445 0.0
H1065 H 0.97369 0.39785 0.93881 0.0
H1066 H 0.90366 0.4167 0.97443 0.0
H1067 H 0.95249 0.40904 0.86896 0.0
H1068 H 0.91231 0.42426 0.7447 0.0
H1069 H 0.92451 0.40363 0.81475 0.0
H1070 H 0.90179 0.44671 0.92268 0.0
H1071 H 0.88896 0.46691 0.85204 0.0
C1072 C 0.93105 0.40573 0.00584 0.0
C1073 C 0.95097 0.40062 0.99652 0.0
C1074 C 0.91878 0.41225 0.96588 0.0
C1075 C 0.92627 0.41383 0.9159 0.0
C1076 C 0.94601 0.40769 0.9066 0.0
C1077 C 0.95822 0.40124 0.94653 0.0
C1078 C 0.90922 0.42885 0.78354 0.0
C1079 C 0.89957 0.44704 0.79314 0.0
C1080 C 0.91644 0.41718 0.82369 0.0
C1081 C 0.91454 0.42367 0.87445 0.0
C1082 C 0.90344 0.44114 0.88416 0.0
C1083 C 0.89599 0.45272 0.84377 0.0
H1084 H 0.0536 0.89372 0.34889 0.0
H1085 H 0.09462 0.91715 0.23769 0.0
H1086 H 0.07544 0.90532 0.41766 0.0
H1087 H 0.11684 0.9281 0.30571 0.0
H1088 H 0.12549 0.97615 0.43249 0.0
H1089 H 0.11329 0.95569 0.36244 0.0
H1090 H 0.10653 0.90568 0.46542 0.0
H1091 H 0.11862 0.9266 0.53577 0.0
C1092 C 0.06771 0.90056 0.33927 0.0
C1093 C 0.07251 0.90452 0.28822 0.0
C1094 C 0.08026 0.90726 0.37857 0.0
C1095 C 0.09782 0.91796 0.36731 0.0
C1096 C 0.10329 0.9203 0.3159 0.0
C1097 C 0.09068 0.91385 0.27688 0.0
C1098 C 0.12224 0.96053 0.43951 0.0
C1099 C 0.12335 0.95279 0.48903 0.0
C1100 C 0.11514 0.94875 0.39946 0.0
C1101 C 0.10879 0.92897 0.40816 0.0
C1102 C 0.11112 0.92087 0.45739 0.0
C1103 C 0.11833 0.9327 0.49749 0.0
H1104 H 0.59393 0.40408 0.96337 0.0
H1105 H 0.54165 0.4049 0.05817 0.0
H1106 H 0.61427 0.41513 0.03597 0.0
H1107 H 0.56153 0.41619 0.13027 0.0
H1108 H 0.59908 0.42957 0.26115 0.0
H1109 H 0.58658 0.40904 0.19152 0.0
H1110 H 0.61826 0.44606 0.08358 0.0
H1111 H 0.63143 0.46613 0.15419 0.0
C1112 C 0.58697 0.40603 1.00028 0.0
C1113 C 0.56637 0.4033 0.00578 0.0
C1114 C 0.59851 0.4126 0.04163 0.0
C1115 C 0.58961 0.41659 0.08916 0.0
C1116 C 0.56906 0.41293 0.09476 0.0
C1117 C 0.5576 0.40643 0.05351 0.0
C1118 C 0.6039 0.43287 0.22261 0.0
C1119 C 0.61621 0.44939 0.21293 0.0
C1120 C 0.59656 0.42126 0.18261 0.0
C1121 C 0.60099 0.42613 0.1317 0.0
C1122 C 0.61458 0.44178 0.12226 0.0
C1123 C 0.62219 0.45329 0.16264 0.0
H1124 H 0.12197 0.54446 0.57634 0.0
H1125 H 0.12091 0.59618 0.47866 0.0
H1126 H 0.11098 0.56472 0.64792 0.0
H1127 H 0.11013 0.61693 0.55075 0.0
H1128 H 0.05814 0.6324 0.66731 0.0
H1129 H 0.07919 0.62005 0.59788 0.0
H1130 H 0.11696 0.5905 0.708 0.0
H1131 H 0.09542 0.60214 0.77652 0.0
C1132 C 0.12021 0.56042 0.57095 0.0
C1133 C 0.12265 0.56888 0.52252 0.0
C1134 C 0.11385 0.5721 0.61191 0.0
C1135 C 0.1096 0.59256 0.60532 0.0
C1136 C 0.11311 0.60123 0.55718 0.0
C1137 C 0.11956 0.58947 0.51611 0.0
C1138 C 0.07135 0.62387 0.67652 0.0
C1139 C 0.07517 0.61816 0.72707 0.0
C1140 C 0.08344 0.61673 0.63681 0.0
C1141 C 0.0996 0.6039 0.64718 0.0
C1142 C 0.10439 0.5999 0.69839 0.0
C1143 C 0.09219 0.60674 0.73775 0.0
H1144 H 0.87447 0.06889 0.17865 0.0
H1145 H 0.93045 0.08409 0.24958 0.0
H1146 H 0.88244 0.09146 0.10743 0.0
H1147 H 0.93858 0.10571 0.17936 0.0
H1148 H 0.95468 0.14427 0.0566 0.0
H1149 H 0.93437 0.13453 0.13005 0.0
H1150 H 0.90496 0.08996 0.03752 0.0
H1151 H 0.92442 0.10058 0.96427 0.0
C1152 C 0.88827 0.07724 0.17944 0.0
C1153 C 0.90198 0.07437 0.21922 0.0
C1154 C 0.89291 0.09011 0.13863 0.0
C1155 C 0.91125 0.10044 0.13724 0.0
C1156 C 0.92421 0.0984 0.17893 0.0
C1157 C 0.91965 0.08563 0.21913 0.0
C1158 C 0.94323 0.13304 0.05173 0.0
C1159 C 0.94136 0.12286 0.00536 0.0
C1160 C 0.93175 0.12722 0.09384 0.0
C1161 C 0.91845 0.11093 0.09035 0.0
C1162 C 0.915 0.10248 0.04209 0.0
C1163 C 0.92627 0.10848 1.00001 0.0
H1164 H 0.40638 0.98432 0.56581 0.0
H1165 H 0.40068 0.92987 0.47972 0.0
H1166 H 0.4181 0.96547 0.63931 0.0
H1167 H 0.41219 0.91058 0.55391 0.0
H1168 H 0.46356 0.89278 0.67056 0.0
H1169 H 0.44374 0.90591 0.59929 0.0
H1170 H 0.41018 0.94222 0.70481 0.0
H1171 H 0.4304 0.92975 0.77486 0.0
C1172 C 0.40694 0.96817 0.56349 0.0
C1173 C 0.40225 0.95847 0.51777 0.0
C1174 C 0.41369 0.9573 0.60553 0.0
C1175 C 0.41608 0.93641 0.60278 0.0
C1176 C 0.41064 0.92662 0.55733 0.0
C1177 C 0.40378 0.93758 0.51516 0.0
C1178 C 0.4516 0.90318 0.67837 0.0
C1179 C 0.44864 0.91044 0.72799 0.0
C1180 C 0.44022 0.91072 0.63765 0.0
C1181 C 0.42559 0.92547 0.64612 0.0
C1182 C 0.42165 0.93133 0.69656 0.0
C1183 C 0.43314 0.92407 0.73681 0.0
H1184 H 0.42483 0.91823 0.97496 0.0
H1185 H 0.46303 0.88061 0.06542 0.0
H1186 H 0.40755 0.92919 0.05145 0.0
H1187 H 0.44523 0.89087 0.1426 0.0
H1188 H 0.43942 0.94388 0.25483 0.0
H1189 H 0.44789 0.92177 0.18559 0.0
H1190 H 0.38793 0.92638 0.12712 0.0
H1191 H 0.3795 0.94931 0.19675 0.0
C1192 C 0.42887 0.9116 0.01124 0.0
C1193 C 0.44534 0.89877 0.01461 0.0
C1194 C 0.41895 0.91786 0.05523 0.0
C1195 C 0.42526 0.91132 0.10359 0.0
C1196 C 0.4403 0.89663 0.10612 0.0
C1197 C 0.45033 0.89049 0.06197 0.0
C1198 C 0.42788 0.94009 0.22764 0.0
C1199 C 0.40884 0.94873 0.23097 0.0
C1200 C 0.4327 0.92708 0.18805 0.0
C1201 C 0.41864 0.9222 0.15039 0.0
C1202 C 0.39922 0.92997 0.15512 0.0
C1203 C 0.39434 0.94305 0.19512 0.0
H1204 H 0.58792 0.42914 0.76457 0.0
H1205 H 0.55647 0.39078 0.65999 0.0
H1206 H 0.60922 0.44077 0.69569 0.0
H1207 H 0.57716 0.40318 0.58978 0.0
H1208 H 0.61974 0.42611 0.47035 0.0
H1209 H 0.60813 0.40755 0.54548 0.0
H1210 H 0.6035 0.46314 0.62853 0.0
H1211 H 0.61555 0.4812 0.55423 0.0
C1212 C 0.58579 0.42298 0.72674 0.0
C1213 C 0.57049 0.40917 0.71746 0.0
C1214 C 0.59788 0.42978 0.68709 0.0
C1215 C 0.59468 0.42334 0.63671 0.0
C1216 C 0.58019 0.40844 0.62802 0.0
C1217 C 0.56828 0.40132 0.66818 0.0
C1218 C 0.61695 0.43411 0.50552 0.0
C1219 C 0.61887 0.45498 0.50715 0.0
C1220 C 0.61 0.42357 0.54827 0.0
C1221 C 0.60476 0.43377 0.59331 0.0
C1222 C 0.60771 0.45461 0.59519 0.0
C1223 C 0.61466 0.46505 0.55263 0.0
H1224 H 0.03567 0.61141 0.0633 0.0
H1225 H 0.09234 0.62389 0.99372 0.0
H1226 H 0.0523 0.59973 0.14002 0.0
H1227 H 0.10939 0.61278 0.07154 0.0
H1228 H 0.129 0.56153 0.18356 0.0
H1229 H 0.11615 0.58174 0.113 0.0
H1230 H 0.07114 0.60607 0.21293 0.0
H1231 H 0.08336 0.58518 0.28202 0.0
C1232 C 0.05174 0.6124 0.06547 0.0
C1233 C 0.06274 0.61878 0.02313 0.0
C1234 C 0.06137 0.60568 0.10947 0.0
C1235 C 0.08231 0.60519 0.1123 0.0
C1236 C 0.09329 0.61267 0.07064 0.0
C1237 C 0.08357 0.61935 0.02639 0.0
C1238 C 0.11659 0.57148 0.19045 0.0
C1239 C 0.10699 0.57154 0.23799 0.0
C1240 C 0.10923 0.58315 0.15008 0.0
C1241 C 0.0923 0.59535 0.15677 0.0
C1242 C 0.08378 0.59646 0.20568 0.0
C1243 C 0.09087 0.58457 0.2455 0.0
H1244 H 0.94522 0.08225 0.7493 0.0
H1245 H 0.95452 0.14144 0.68782 0.0
H1246 H 0.92477 0.07369 0.67703 0.0
H1247 H 0.93335 0.13283 0.61462 0.0
H1248 H 0.92464 0.09426 0.46459 0.0
H1249 H 0.93643 0.11143 0.54068 0.0
H1250 H 0.89429 0.07815 0.63178 0.0
H1251 H 0.8831 0.06042 0.55522 0.0
C1252 C 0.94274 0.0936 0.72051 0.0
C1253 C 0.95184 0.11249 0.72418 0.0
C1254 C 0.93068 0.08872 0.67915 0.0
C1255 C 0.92724 0.10255 0.63985 0.0
C1256 C 0.93577 0.12175 0.64409 0.0
C1257 C 0.94787 0.12672 0.68602 0.0
C1258 C 0.91757 0.09102 0.5008 0.0
C1259 C 0.90328 0.07576 0.50443 0.0
C1260 C 0.92424 0.10095 0.54445 0.0
C1261 C 0.91667 0.09589 0.5927 0.0
C1262 C 0.90082 0.08208 0.59537 0.0
C1263 C 0.89421 0.07207 0.55157 0.0
H1264 H 0.42583 0.62318 0.02031 0.0
H1265 H 0.48109 0.61799 0.93843 0.0
H1266 H 0.40758 0.61185 0.94459 0.0
H1267 H 0.46335 0.60606 0.86368 0.0
H1268 H 0.39 0.56033 0.83122 0.0
H1269 H 0.40258 0.5811 0.901 0.0
H1270 H 0.44189 0.61121 0.79543 0.0
H1271 H 0.4301 0.5897 0.72706 0.0
C1272 C 0.43395 0.62023 0.98545 0.0
C1273 C 0.45478 0.62173 0.98462 0.0
C1274 C 0.42359 0.61342 0.94234 0.0
C1275 C 0.4339 0.60785 0.89777 0.0
C1276 C 0.45472 0.61049 0.8966 0.0
C1277 C 0.46498 0.61737 0.93946 0.0
C1278 C 0.40103 0.57169 0.82301 0.0
C1279 C 0.40928 0.57325 0.77401 0.0
C1280 C 0.40824 0.58368 0.86292 0.0
C1281 C 0.42361 0.59766 0.8543 0.0
C1282 C 0.43054 0.60024 0.8041 0.0
C1283 C 0.42366 0.58802 0.76471 0.0
H1284 H 0.93415 0.43118 0.23661 0.0
H1285 H 0.96248 0.38874 0.33684 0.0
H1286 H 0.91328 0.44272 0.30631 0.0
H1287 H 0.94221 0.40096 0.40799 0.0
H1288 H 0.89946 0.4236 0.52798 0.0
H1289 H 0.91104 0.40613 0.45118 0.0
H1290 H 0.91986 0.46316 0.37691 0.0
H1291 H 0.90784 0.48017 0.45277 0.0
C1292 C 0.93573 0.42417 0.27366 0.0
C1293 C 0.95006 0.40921 0.2815 0.0
C1294 C 0.92387 0.43089 0.31379 0.0
C1295 C 0.92631 0.42316 0.36328 0.0
C1296 C 0.93979 0.40724 0.37043 0.0
C1297 C 0.95147 0.40023 0.32975 0.0
C1298 C 0.90321 0.43221 0.49433 0.0
C1299 C 0.90244 0.45315 0.49558 0.0
C1300 C 0.91012 0.42227 0.45066 0.0
C1301 C 0.91648 0.43316 0.40761 0.0
C1302 C 0.91477 0.45415 0.40863 0.0
C1303 C 0.90786 0.46399 0.45208 0.0
H1304 H 0.13785 0.9528 0.80784 0.0
H1305 H 0.07745 0.95051 0.7516 0.0
H1306 H 0.12812 0.93196 0.88055 0.0
H1307 H 0.06776 0.93037 0.82398 0.0
H1308 H 0.05261 0.88905 0.94779 0.0
H1309 H 0.06925 0.89941 0.86888 0.0
H1310 H 0.10884 0.93701 0.95648 0.0
H1311 H 0.09263 0.92605 0.03469 0.0
C1312 C 0.12259 0.94772 0.81063 0.0
C1313 C 0.10841 0.95359 0.7741 0.0
C1314 C 0.11698 0.93582 0.85239 0.0
C1315 C 0.09711 0.92946 0.85838 0.0
C1316 C 0.08324 0.93464 0.82052 0.0
C1317 C 0.08879 0.94648 0.77909 0.0
C1318 C 0.06531 0.89898 0.94999 0.0
C1319 C 0.0712 0.907 0.99696 0.0
C1320 C 0.07472 0.90512 0.90488 0.0
C1321 C 0.09016 0.91942 0.90608 0.0
C1322 C 0.09711 0.92597 0.9538 0.0
C1323 C 0.08776 0.91978 0.99871 0.0
H1324 H 0.55269 0.13269 0.34961 0.0
H1325 H 0.59079 0.10386 0.24001 0.0
H1326 H 0.57455 0.12148 0.41869 0.0
H1327 H 0.61323 0.09351 0.30806 0.0
H1328 H 0.62351 0.04942 0.44191 0.0
H1329 H 0.61079 0.06825 0.36956 0.0
H1330 H 0.60509 0.12058 0.46505 0.0
H1331 H 0.61736 0.10117 0.53788 0.0
C1332 C 0.56618 0.12464 0.34027 0.0
C1333 C 0.57008 0.11907 0.28974 0.0
C1334 C 0.57877 0.1182 0.37976 0.0
C1335 C 0.59558 0.10624 0.36922 0.0
C1336 C 0.60021 0.1022 0.31794 0.0
C1337 C 0.58748 0.10831 0.27882 0.0
C1338 C 0.62034 0.06517 0.4467 0.0
C1339 C 0.62176 0.07399 0.49495 0.0
C1340 C 0.61295 0.07604 0.40529 0.0
C1341 C 0.60673 0.09603 0.41124 0.0
C1342 C 0.60945 0.1052 0.45908 0.0
C1343 C 0.61681 0.09423 0.5006 0.0
loop_
_geom_bond_atom_site_label_1
_geom_bond_atom_site_label_2
_geom_bond_distance
_geom_bond_site_symmetry_2
_ccdc_geom_bond_type
Co0 O3 1.970 . S
Co0 N17 1.989 . S
Co0 O25 1.967 . S
Co0 O32 1.920 . S
Co1 O4 1.966 . S
Co1 N10 2.022 . S
Co1 N18 1.993 . S
Co1 O26 1.941 . S
C2 O3 1.258 . S
C2 O4 1.263 . S
O3 Co0 1.970 . S
O3 C2 1.258 . S
O4 Co1 1.966 . S
O4 C2 1.263 . S
C5 O6 1.235 . S
C5 O32 1.289 . S
O6 C5 1.235 . S
C7 C9 1.400 . S
C7 N10 1.351 . S
C7 C12 1.501 . S
C8 C9 1.387 . S
C8 N11 1.341 . S
C9 C7 1.400 . S
C9 C8 1.387 . S
N10 Co1 2.022 . S
N10 C7 1.351 . S
N10 N11 1.365 . S
N11 C8 1.341 . S
N11 N10 1.365 . S
N11 H31 0.862 . S
C12 C7 1.501 . S
C12 H13 0.961 . S
C12 H14 0.961 . S
C12 H15 0.960 . S
H13 C12 0.961 . S
H14 C12 0.961 . S
H15 C12 0.960 . S
C16 N17 1.342 1_556 S
C16 C20 1.401 . S
C16 C21 1.499 . S
N17 Co0 1.989 . S
N17 C16 1.342 1_554 S
N17 N18 1.388 . S
N18 Co1 1.993 . S
N18 N17 1.388 . S
N18 C19 1.346 1_554 S
C19 N18 1.346 1_556 S
C19 C20 1.396 . S
C19 C29 1.510 . S
C20 C16 1.401 . S
C20 C19 1.396 . S
C21 C16 1.499 . S
C21 H22 0.959 . S
C21 H23 0.960 . S
C21 H24 0.961 . S
H22 C21 0.959 . S
H23 C21 0.960 . S
H24 C21 0.961 . S
O25 Co0 1.967 . S
O25 C33 1.258 . S
O26 Co1 1.941 . S
O26 C33 1.266 . S
H27 C29 0.959 . S
H28 C29 0.961 . S
C29 C19 1.510 . S
C29 H27 0.959 . S
C29 H28 0.961 . S
C29 H30 0.960 . S
H30 C29 0.960 . S
H31 N11 0.862 . S
O32 Co0 1.920 . S
O32 C5 1.289 . S
C33 O25 1.258 . S
C33 O26 1.266 . S
Co34 O37 1.970 . S
Co34 N51 1.989 . S
Co34 O59 1.967 . S
Co34 O66 1.920 . S
Co35 O38 1.966 . S
Co35 N44 2.022 . S
Co35 N52 1.993 . S
Co35 O60 1.941 . S
C36 O37 1.258 . S
C36 O38 1.263 . S
O37 Co34 1.970 . S
O37 C36 1.258 . S
O38 Co35 1.966 . S
O38 C36 1.263 . S
C39 O40 1.235 . S
C39 O66 1.289 . S
O40 C39 1.235 . S
C41 C43 1.400 . S
C41 N44 1.351 . S
C41 C46 1.501 . S
C42 C43 1.387 . S
C42 N45 1.341 . S
C43 C41 1.400 . S
C43 C42 1.387 . S
N44 Co35 2.022 . S
N44 C41 1.351 . S
N44 N45 1.365 . S
N45 C42 1.341 . S
N45 N44 1.365 . S
N45 H65 0.862 . S
C46 C41 1.501 . S
C46 H47 0.961 . S
C46 H48 0.961 . S
C46 H49 0.960 . S
H47 C46 0.961 . S
H48 C46 0.961 . S
H49 C46 0.960 . S
C50 N51 1.342 . S
C50 C54 1.401 . S
C50 C55 1.499 . S
N51 Co34 1.989 . S
N51 C50 1.342 . S
N51 N52 1.388 . S
N52 Co35 1.993 . S
N52 N51 1.388 . S
N52 C53 1.346 . S
C53 N52 1.346 . S
C53 C54 1.396 . S
C53 C63 1.510 . S
C54 C50 1.401 . S
C54 C53 1.396 . S
C55 C50 1.499 . S
C55 H56 0.959 . S
C55 H57 0.960 . S
C55 H58 0.961 . S
H56 C55 0.959 . S
H57 C55 0.960 . S
H58 C55 0.961 . S
O59 Co34 1.967 . S
O59 C67 1.258 . S
O60 Co35 1.941 . S
O60 C67 1.266 . S
H61 C63 0.959 . S
H62 C63 0.961 . S
C63 C53 1.510 . S
C63 H61 0.959 . S
C63 H62 0.961 . S
C63 H64 0.960 . S
H64 C63 0.960 . S
H65 N45 0.862 . S
O66 Co34 1.920 . S
O66 C39 1.289 . S
C67 O59 1.258 . S
C67 O60 1.266 . S
Co68 O71 1.970 1_655 S
Co68 N85 1.989 . S
Co68 O93 1.967 . S
Co68 O100 1.920 . S
Co69 O72 1.966 1_655 S
Co69 N78 2.022 . S
Co69 N86 1.993 . S
Co69 O94 1.941 . S
C70 O71 1.258 . S
C70 O72 1.263 . S
O71 Co68 1.970 1_455 S
O71 C70 1.258 . S
O72 Co69 1.966 1_455 S
O72 C70 1.263 . S
C73 O74 1.235 1_655 S
C73 O100 1.289 . S
O74 C73 1.235 1_455 S
C75 C77 1.400 . S
C75 N78 1.351 . S
C75 C80 1.501 1_655 S
C76 C77 1.387 . S
C76 N79 1.341 . S
C77 C75 1.400 . S
C77 C76 1.387 . S
N78 Co69 2.022 . S
N78 C75 1.351 . S
N78 N79 1.365 . S
N79 C76 1.341 . S
N79 N78 1.365 . S
N79 H99 0.862 . S
C80 C75 1.501 1_455 S
C80 H81 0.961 . S
C80 H82 0.961 . S
C80 H83 0.960 . S
H81 C80 0.961 . S
H82 C80 0.961 . S
H83 C80 0.960 . S
C84 N85 1.342 1_556 S
C84 C88 1.401 . S
C84 C89 1.499 . S
N85 Co68 1.989 . S
N85 C84 1.342 1_554 S
N85 N86 1.388 . S
N86 Co69 1.993 . S
N86 N85 1.388 . S
N86 C87 1.346 1_554 S
C87 N86 1.346 1_556 S
C87 C88 1.396 . S
C87 C97 1.510 . S
C88 C84 1.401 . S
C88 C87 1.396 . S
C89 C84 1.499 . S
C89 H90 0.959 . S
C89 H91 0.960 . S
C89 H92 0.961 . S
H90 C89 0.959 . S
H91 C89 0.960 . S
H92 C89 0.961 . S
O93 Co68 1.967 . S
O93 C101 1.258 . S
O94 Co69 1.941 . S
O94 C101 1.266 . S
H95 C97 0.959 . S
H96 C97 0.961 . S
C97 C87 1.510 . S
C97 H95 0.959 . S
C97 H96 0.961 . S
C97 H98 0.960 . S
H98 C97 0.960 . S
H99 N79 0.862 . S
O100 Co68 1.920 . S
O100 C73 1.289 . S
C101 O93 1.258 . S
C101 O94 1.266 . S
Co102 O105 1.970 1_565 S
Co102 N119 1.989 . S
Co102 O127 1.967 . S
Co102 O134 1.920 . S
Co103 O106 1.966 1_565 S
Co103 N112 2.022 . S
Co103 N120 1.993 . S
Co103 O128 1.941 . S
C104 O105 1.258 . S
C104 O106 1.263 . S
O105 Co102 1.970 1_545 S
O105 C104 1.258 . S
O106 Co103 1.966 1_545 S
O106 C104 1.263 . S
C107 O108 1.235 1_565 S
C107 O134 1.289 . S
O108 C107 1.235 1_545 S
C109 C111 1.400 . S
C109 N112 1.351 . S
C109 C114 1.501 1_565 S
C110 C111 1.387 . S
C110 N113 1.341 . S
C111 C109 1.400 . S
C111 C110 1.387 . S
N112 Co103 2.022 . S
N112 C109 1.351 . S
N112 N113 1.365 . S
N113 C110 1.341 . S
N113 N112 1.365 . S
N113 H133 0.862 . S
C114 C109 1.501 1_545 S
C114 H115 0.961 . S
C114 H116 0.961 . S
C114 H117 0.960 . S
H115 C114 0.961 . S
H116 C114 0.961 . S
H117 C114 0.960 . S
C118 N119 1.342 . S
C118 C122 1.401 . S
C118 C123 1.499 . S
N119 Co102 1.989 . S
N119 C118 1.342 . S
N119 N120 1.388 . S
N120 Co103 1.993 . S
N120 N119 1.388 . S
N120 C121 1.346 . S
C121 N120 1.346 . S
C121 C122 1.396 . S
C121 C131 1.510 . S
C122 C118 1.401 . S
C122 C121 1.396 . S
C123 C118 1.499 . S
C123 H124 0.959 . S
C123 H125 0.960 . S
C123 H126 0.961 . S
H124 C123 0.959 . S
H125 C123 0.960 . S
H126 C123 0.961 . S
O127 Co102 1.967 . S
O127 C135 1.258 . S
O128 Co103 1.941 . S
O128 C135 1.266 . S
H129 C131 0.959 . S
H130 C131 0.961 . S
C131 C121 1.510 . S
C131 H129 0.959 . S
C131 H130 0.961 . S
C131 H132 0.960 . S
H132 C131 0.960 . S
H133 N113 0.862 . S
O134 Co102 1.920 . S
O134 C107 1.289 . S
C135 O127 1.258 . S
C135 O128 1.266 . S
Co136 O139 1.970 . S
Co136 N153 1.989 . S
Co136 O161 1.967 . S
Co136 O168 1.920 . S
Co137 O140 1.966 . S
Co137 N146 2.022 . S
Co137 N154 1.993 . S
Co137 O162 1.941 . S
C138 O139 1.258 . S
C138 O140 1.263 . S
O139 Co136 1.970 . S
O139 C138 1.258 . S
O140 Co137 1.966 . S
O140 C138 1.263 . S
C141 O142 1.235 . S
C141 O168 1.289 . S
O142 C141 1.235 . S
C143 C145 1.400 . S
C143 N146 1.351 . S
C143 C148 1.501 . S
C144 C145 1.387 . S
C144 N147 1.341 . S
C145 C143 1.400 . S
C145 C144 1.387 . S
N146 Co137 2.022 . S
N146 C143 1.351 . S
N146 N147 1.365 . S
N147 C144 1.341 . S
N147 N146 1.365 . S
N147 H167 0.862 . S
C148 C143 1.501 . S
C148 H149 0.961 . S
C148 H150 0.961 . S
C148 H151 0.960 . S
H149 C148 0.961 . S
H150 C148 0.961 . S
H151 C148 0.960 . S
C152 N153 1.342 1_554 S
C152 C156 1.401 . S
C152 C157 1.499 . S
N153 Co136 1.989 . S
N153 C152 1.342 1_556 S
N153 N154 1.388 . S
N154 Co137 1.993 . S
N154 N153 1.388 . S
N154 C155 1.346 1_556 S
C155 N154 1.346 1_554 S
C155 C156 1.396 . S
C155 C165 1.510 . S
C156 C152 1.401 . S
C156 C155 1.396 . S
C157 C152 1.499 . S
C157 H158 0.959 . S
C157 H159 0.960 . S
C157 H160 0.961 . S
H158 C157 0.959 . S
H159 C157 0.960 . S
H160 C157 0.961 . S
O161 Co136 1.967 . S
O161 C169 1.258 . S
O162 Co137 1.941 . S
O162 C169 1.266 . S
H163 C165 0.959 . S
H164 C165 0.961 . S
C165 C155 1.510 . S
C165 H163 0.959 . S
C165 H164 0.961 . S
C165 H166 0.960 . S
H166 C165 0.960 . S
H167 N147 0.862 . S
O168 Co136 1.920 . S
O168 C141 1.289 . S
C169 O161 1.258 . S
C169 O162 1.266 . S
Co170 O173 1.970 . S
Co170 N187 1.989 . S
Co170 O195 1.967 . S
Co170 O202 1.920 . S
Co171 O174 1.966 . S
Co171 N180 2.022 . S
Co171 N188 1.993 . S
Co171 O196 1.941 . S
C172 O173 1.258 . S
C172 O174 1.263 . S
O173 Co170 1.970 . S
O173 C172 1.258 . S
O174 Co171 1.966 . S
O174 C172 1.263 . S
C175 O176 1.235 . S
C175 O202 1.289 . S
O176 C175 1.235 . S
C177 C179 1.400 . S
C177 N180 1.351 . S
C177 C182 1.501 . S
C178 C179 1.387 . S
C178 N181 1.341 . S
C179 C177 1.400 . S
C179 C178 1.387 . S
N180 Co171 2.022 . S
N180 C177 1.351 . S
N180 N181 1.365 . S
N181 C178 1.341 . S
N181 N180 1.365 . S
N181 H201 0.862 . S
C182 C177 1.501 . S
C182 H183 0.961 . S
C182 H184 0.961 . S
C182 H185 0.960 . S
H183 C182 0.961 . S
H184 C182 0.961 . S
H185 C182 0.960 . S
C186 N187 1.342 . S
C186 C190 1.401 . S
C186 C191 1.499 . S
N187 Co170 1.989 . S
N187 C186 1.342 . S
N187 N188 1.388 . S
N188 Co171 1.993 . S
N188 N187 1.388 . S
N188 C189 1.346 . S
C189 N188 1.346 . S
C189 C190 1.396 . S
C189 C199 1.510 . S
C190 C186 1.401 . S
C190 C189 1.396 . S
C191 C186 1.499 . S
C191 H192 0.959 . S
C191 H193 0.960 . S
C191 H194 0.961 . S
H192 C191 0.959 . S
H193 C191 0.960 . S
H194 C191 0.961 . S
O195 Co170 1.967 . S
O195 C203 1.258 . S
O196 Co171 1.941 . S
O196 C203 1.266 . S
H197 C199 0.959 . S
H198 C199 0.961 . S
C199 C189 1.510 . S
C199 H197 0.959 . S
C199 H198 0.961 . S
C199 H200 0.960 . S
H200 C199 0.960 . S
H201 N181 0.862 . S
O202 Co170 1.920 . S
O202 C175 1.289 . S
C203 O195 1.258 . S
C203 O196 1.266 . S
Co204 O207 1.970 1_655 S
Co204 N221 1.989 . S
Co204 O229 1.967 . S
Co204 O236 1.920 . S
Co205 O208 1.966 1_655 S
Co205 N214 2.022 . S
Co205 N222 1.993 . S
Co205 O230 1.941 . S
C206 O207 1.258 . S
C206 O208 1.263 . S
O207 Co204 1.970 1_455 S
O207 C206 1.258 . S
O208 Co205 1.966 1_455 S
O208 C206 1.263 . S
C209 O210 1.235 1_655 S
C209 O236 1.289 . S
O210 C209 1.235 1_455 S
C211 C213 1.400 . S
C211 N214 1.351 . S
C211 C216 1.501 1_655 S
C212 C213 1.387 . S
C212 N215 1.341 . S
C213 C211 1.400 . S
C213 C212 1.387 . S
N214 Co205 2.022 . S
N214 C211 1.351 . S
N214 N215 1.365 . S
N215 C212 1.341 . S
N215 N214 1.365 . S
N215 H235 0.862 . S
C216 C211 1.501 1_455 S
C216 H217 0.961 . S
C216 H218 0.961 . S
C216 H219 0.960 . S
H217 C216 0.961 . S
H218 C216 0.961 . S
H219 C216 0.960 . S
C220 N221 1.342 1_554 S
C220 C224 1.401 . S
C220 C225 1.499 . S
N221 Co204 1.989 . S
N221 C220 1.342 1_556 S
N221 N222 1.388 . S
N222 Co205 1.993 . S
N222 N221 1.388 . S
N222 C223 1.346 1_556 S
C223 N222 1.346 1_554 S
C223 C224 1.396 . S
C223 C233 1.510 . S
C224 C220 1.401 . S
C224 C223 1.396 . S
C225 C220 1.499 . S
C225 H226 0.959 . S
C225 H227 0.960 . S
C225 H228 0.961 . S
H226 C225 0.959 . S
H227 C225 0.960 . S
H228 C225 0.961 . S
O229 Co204 1.967 . S
O229 C237 1.258 . S
O230 Co205 1.941 . S
O230 C237 1.266 . S
H231 C233 0.959 . S
H232 C233 0.961 . S
C233 C223 1.510 . S
C233 H231 0.959 . S
C233 H232 0.961 . S
C233 H234 0.960 . S
H234 C233 0.960 . S
H235 N215 0.862 . S
O236 Co204 1.920 . S
O236 C209 1.289 . S
C237 O229 1.258 . S
C237 O230 1.266 . S
Co238 O241 1.970 1_565 S
Co238 N255 1.989 . S
Co238 O263 1.967 . S
Co238 O270 1.920 . S
Co239 O242 1.966 1_565 S
Co239 N248 2.022 . S
Co239 N256 1.993 . S
Co239 O264 1.941 . S
C240 O241 1.258 . S
C240 O242 1.263 . S
O241 Co238 1.970 1_545 S
O241 C240 1.258 . S
O242 Co239 1.966 1_545 S
O242 C240 1.263 . S
C243 O244 1.235 1_565 S
C243 O270 1.289 . S
O244 C243 1.235 1_545 S
C245 C247 1.400 . S
C245 N248 1.351 . S
C245 C250 1.501 1_565 S
C246 C247 1.387 . S
C246 N249 1.341 . S
C247 C245 1.400 . S
C247 C246 1.387 . S
N248 Co239 2.022 . S
N248 C245 1.351 . S
N248 N249 1.365 . S
N249 C246 1.341 . S
N249 N248 1.365 . S
N249 H269 0.862 . S
C250 C245 1.501 1_545 S
C250 H251 0.961 . S
C250 H252 0.961 . S
C250 H253 0.960 . S
H251 C250 0.961 . S
H252 C250 0.961 . S
H253 C250 0.960 . S
C254 N255 1.342 . S
C254 C258 1.401 . S
C254 C259 1.499 . S
N255 Co238 1.989 . S
N255 C254 1.342 . S
N255 N256 1.388 . S
N256 Co239 1.993 . S
N256 N255 1.388 . S
N256 C257 1.346 . S
C257 N256 1.346 . S
C257 C258 1.396 . S
C257 C267 1.510 . S
C258 C254 1.401 . S
C258 C257 1.396 . S
C259 C254 1.499 . S
C259 H260 0.959 . S
C259 H261 0.960 . S
C259 H262 0.961 . S
H260 C259 0.959 . S
H261 C259 0.960 . S
H262 C259 0.961 . S
O263 Co238 1.967 . S
O263 C271 1.258 . S
O264 Co239 1.941 . S
O264 C271 1.266 . S
H265 C267 0.959 . S
H266 C267 0.961 . S
C267 C257 1.510 . S
C267 H265 0.959 . S
C267 H266 0.961 . S
C267 H268 0.960 . S
H268 C267 0.960 . S
H269 N249 0.862 . S
O270 Co238 1.920 . S
O270 C243 1.289 . S
C271 O263 1.258 . S
C271 O264 1.266 . S
Co272 O275 1.970 . S
Co272 N289 1.989 . S
Co272 O297 1.967 . S
Co272 O304 1.920 . S
Co273 O276 1.966 . S
Co273 N282 2.022 . S
Co273 N290 1.993 . S
Co273 O298 1.941 . S
C274 O275 1.258 . S
C274 O276 1.263 . S
O275 Co272 1.970 . S
O275 C274 1.258 . S
O276 Co273 1.966 . S
O276 C274 1.263 . S
C277 O278 1.235 . S
C277 O304 1.289 . S
O278 C277 1.235 . S
C279 C281 1.400 . S
C279 N282 1.351 . S
C279 C284 1.501 . S
C280 C281 1.387 . S
C280 N283 1.341 . S
C281 C279 1.400 . S
C281 C280 1.387 . S
N282 Co273 2.022 . S
N282 C279 1.351 . S
N282 N283 1.365 . S
N283 C280 1.341 . S
N283 N282 1.365 . S
N283 H303 0.862 . S
C284 C279 1.501 . S
C284 H285 0.961 . S
C284 H286 0.961 . S
C284 H287 0.960 . S
H285 C284 0.961 . S
H286 C284 0.961 . S
H287 C284 0.960 . S
C288 N289 1.342 1_554 S
C288 C292 1.401 . S
C288 C293 1.499 . S
N289 Co272 1.989 . S
N289 C288 1.342 1_556 S
N289 N290 1.388 . S
N290 Co273 1.993 . S
N290 N289 1.388 . S
N290 C291 1.346 1_556 S
C291 N290 1.346 1_554 S
C291 C292 1.396 . S
C291 C301 1.510 . S
C292 C288 1.401 . S
C292 C291 1.396 . S
C293 C288 1.499 . S
C293 H294 0.959 . S
C293 H295 0.960 . S
C293 H296 0.961 . S
H294 C293 0.959 . S
H295 C293 0.960 . S
H296 C293 0.961 . S
O297 Co272 1.967 . S
O297 C305 1.258 . S
O298 Co273 1.941 . S
O298 C305 1.266 . S
H299 C301 0.959 . S
H300 C301 0.961 . S
C301 C291 1.510 . S
C301 H299 0.959 . S
C301 H300 0.961 . S
C301 H302 0.960 . S
H302 C301 0.960 . S
H303 N283 0.862 . S
O304 Co272 1.920 . S
O304 C277 1.289 . S
C305 O297 1.258 . S
C305 O298 1.266 . S
Co306 O309 1.970 . S
Co306 N323 1.989 . S
Co306 O331 1.967 . S
Co306 O338 1.920 . S
Co307 O310 1.966 . S
Co307 N316 2.022 . S
Co307 N324 1.993 . S
Co307 O332 1.941 . S
C308 O309 1.258 . S
C308 O310 1.263 . S
O309 Co306 1.970 . S
O309 C308 1.258 . S
O310 Co307 1.966 . S
O310 C308 1.263 . S
C311 O312 1.235 . S
C311 O338 1.289 . S
O312 C311 1.235 . S
C313 C315 1.400 . S
C313 N316 1.351 . S
C313 C318 1.501 . S
C314 C315 1.387 . S
C314 N317 1.341 . S
C315 C313 1.400 . S
C315 C314 1.387 . S
N316 Co307 2.022 . S
N316 C313 1.351 . S
N316 N317 1.365 . S
N317 C314 1.341 . S
N317 N316 1.365 . S
N317 H337 0.862 . S
C318 C313 1.501 . S
C318 H319 0.961 . S
C318 H320 0.961 . S
C318 H321 0.960 . S
H319 C318 0.961 . S
H320 C318 0.961 . S
H321 C318 0.960 . S
C322 N323 1.342 . S
C322 C326 1.401 . S
C322 C327 1.499 . S
N323 Co306 1.989 . S
N323 C322 1.342 . S
N323 N324 1.388 . S
N324 Co307 1.993 . S
N324 N323 1.388 . S
N324 C325 1.346 . S
C325 N324 1.346 . S
C325 C326 1.396 . S
C325 C335 1.510 . S
C326 C322 1.401 . S
C326 C325 1.396 . S
C327 C322 1.499 . S
C327 H328 0.959 . S
C327 H329 0.960 . S
C327 H330 0.961 . S
H328 C327 0.959 . S
H329 C327 0.960 . S
H330 C327 0.961 . S
O331 Co306 1.967 . S
O331 C339 1.258 . S
O332 Co307 1.941 . S
O332 C339 1.266 . S
H333 C335 0.959 . S
H334 C335 0.961 . S
C335 C325 1.510 . S
C335 H333 0.959 . S
C335 H334 0.961 . S
C335 H336 0.960 . S
H336 C335 0.960 . S
H337 N317 0.862 . S
O338 Co306 1.920 . S
O338 C311 1.289 . S
C339 O331 1.258 . S
C339 O332 1.266 . S
Co340 O343 1.970 1_455 S
Co340 N357 1.989 . S
Co340 O365 1.967 . S
Co340 O372 1.920 . S
Co341 O344 1.966 1_455 S
Co341 N350 2.022 . S
Co341 N358 1.993 . S
Co341 O366 1.941 . S
C342 O343 1.258 . S
C342 O344 1.263 . S
O343 Co340 1.970 1_655 S
O343 C342 1.258 . S
O344 Co341 1.966 1_655 S
O344 C342 1.263 . S
C345 O346 1.235 1_455 S
C345 O372 1.289 . S
O346 C345 1.235 1_655 S
C347 C349 1.400 . S
C347 N350 1.351 . S
C347 C352 1.501 1_455 S
C348 C349 1.387 . S
C348 N351 1.341 . S
C349 C347 1.400 . S
C349 C348 1.387 . S
N350 Co341 2.022 . S
N350 C347 1.351 . S
N350 N351 1.365 . S
N351 C348 1.341 . S
N351 N350 1.365 . S
N351 H371 0.862 . S
C352 C347 1.501 1_655 S
C352 H353 0.961 . S
C352 H354 0.961 . S
C352 H355 0.960 . S
H353 C352 0.961 . S
H354 C352 0.961 . S
H355 C352 0.960 . S
C356 N357 1.342 1_554 S
C356 C360 1.401 . S
C356 C361 1.499 . S
N357 Co340 1.989 . S
N357 C356 1.342 1_556 S
N357 N358 1.388 . S
N358 Co341 1.993 . S
N358 N357 1.388 . S
N358 C359 1.346 1_556 S
C359 N358 1.346 1_554 S
C359 C360 1.396 . S
C359 C369 1.510 . S
C360 C356 1.401 . S
C360 C359 1.396 . S
C361 C356 1.499 . S
C361 H362 0.959 . S
C361 H363 0.960 . S
C361 H364 0.961 . S
H362 C361 0.959 . S
H363 C361 0.960 . S
H364 C361 0.961 . S
O365 Co340 1.967 . S
O365 C373 1.258 . S
O366 Co341 1.941 . S
O366 C373 1.266 . S
H367 C369 0.959 . S
H368 C369 0.961 . S
C369 C359 1.510 . S
C369 H367 0.959 . S
C369 H368 0.961 . S
C369 H370 0.960 . S
H370 C369 0.960 . S
H371 N351 0.862 . S
O372 Co340 1.920 . S
O372 C345 1.289 . S
C373 O365 1.258 . S
C373 O366 1.266 . S
Co374 O377 1.970 1_545 S
Co374 N391 1.989 . S
Co374 O399 1.967 . S
Co374 O406 1.920 . S
Co375 O378 1.966 1_545 S
Co375 N384 2.022 . S
Co375 N392 1.993 . S
Co375 O400 1.941 . S
C376 O377 1.258 . S
C376 O378 1.263 . S
O377 Co374 1.970 1_565 S
O377 C376 1.258 . S
O378 Co375 1.966 1_565 S
O378 C376 1.263 . S
C379 O380 1.235 1_545 S
C379 O406 1.289 . S
O380 C379 1.235 1_565 S
C381 C383 1.400 . S
C381 N384 1.351 . S
C381 C386 1.501 1_545 S
C382 C383 1.387 . S
C382 N385 1.341 . S
C383 C381 1.400 . S
C383 C382 1.387 . S
N384 Co375 2.022 . S
N384 C381 1.351 . S
N384 N385 1.365 . S
N385 C382 1.341 . S
N385 N384 1.365 . S
N385 H405 0.862 . S
C386 C381 1.501 1_565 S
C386 H387 0.961 . S
C386 H388 0.961 . S
C386 H389 0.960 . S
H387 C386 0.961 . S
H388 C386 0.961 . S
H389 C386 0.960 . S
C390 N391 1.342 . S
C390 C394 1.401 . S
C390 C395 1.499 . S
N391 Co374 1.989 . S
N391 C390 1.342 . S
N391 N392 1.388 . S
N392 Co375 1.993 . S
N392 N391 1.388 . S
N392 C393 1.346 . S
C393 N392 1.346 . S
C393 C394 1.396 . S
C393 C403 1.510 . S
C394 C390 1.401 . S
C394 C393 1.396 . S
C395 C390 1.499 . S
C395 H396 0.959 . S
C395 H397 0.960 . S
C395 H398 0.961 . S
H396 C395 0.959 . S
H397 C395 0.960 . S
H398 C395 0.961 . S
O399 Co374 1.967 . S
O399 C407 1.258 . S
O400 Co375 1.941 . S
O400 C407 1.266 . S
H401 C403 0.959 . S
H402 C403 0.961 . S
C403 C393 1.510 . S
C403 H401 0.959 . S
C403 H402 0.961 . S
C403 H404 0.960 . S
H404 C403 0.960 . S
H405 N385 0.862 . S
O406 Co374 1.920 . S
O406 C379 1.289 . S
C407 O399 1.258 . S
C407 O400 1.266 . S
Co408 O411 1.970 . S
Co408 N425 1.989 . S
Co408 O433 1.967 . S
Co408 O440 1.920 . S
Co409 O412 1.966 . S
Co409 N418 2.022 . S
Co409 N426 1.993 . S
Co409 O434 1.941 . S
C410 O411 1.258 . S
C410 O412 1.263 . S
O411 Co408 1.970 . S
O411 C410 1.258 . S
O412 Co409 1.966 . S
O412 C410 1.263 . S
C413 O414 1.235 . S
C413 O440 1.289 . S
O414 C413 1.235 . S
C415 C417 1.400 . S
C415 N418 1.351 . S
C415 C420 1.501 . S
C416 C417 1.387 . S
C416 N419 1.341 . S
C417 C415 1.400 . S
C417 C416 1.387 . S
N418 Co409 2.022 . S
N418 C415 1.351 . S
N418 N419 1.365 . S
N419 C416 1.341 . S
N419 N418 1.365 . S
N419 H439 0.862 . S
C420 C415 1.501 . S
C420 H421 0.961 . S
C420 H422 0.961 . S
C420 H423 0.960 . S
H421 C420 0.961 . S
H422 C420 0.961 . S
H423 C420 0.960 . S
C424 N425 1.342 1_556 S
C424 C428 1.401 . S
C424 C429 1.499 . S
N425 Co408 1.989 . S
N425 C424 1.342 1_554 S
N425 N426 1.388 . S
N426 Co409 1.993 . S
N426 N425 1.388 . S
N426 C427 1.346 1_554 S
C427 N426 1.346 1_556 S
C427 C428 1.396 . S
C427 C437 1.510 . S
C428 C424 1.401 . S
C428 C427 1.396 . S
C429 C424 1.499 . S
C429 H430 0.959 . S
C429 H431 0.960 . S
C429 H432 0.961 . S
H430 C429 0.959 . S
H431 C429 0.960 . S
H432 C429 0.961 . S
O433 Co408 1.967 . S
O433 C441 1.258 . S
O434 Co409 1.941 . S
O434 C441 1.266 . S
H435 C437 0.959 . S
H436 C437 0.961 . S
C437 C427 1.510 . S
C437 H435 0.959 . S
C437 H436 0.961 . S
C437 H438 0.960 . S
H438 C437 0.960 . S
H439 N419 0.862 . S
O440 Co408 1.920 . S
O440 C413 1.289 . S
C441 O433 1.258 . S
C441 O434 1.266 . S
Co442 O445 1.970 . S
Co442 N459 1.989 . S
Co442 O467 1.967 . S
Co442 O474 1.920 . S
Co443 O446 1.966 . S
Co443 N452 2.022 . S
Co443 N460 1.993 . S
Co443 O468 1.941 . S
C444 O445 1.258 . S
C444 O446 1.263 . S
O445 Co442 1.970 . S
O445 C444 1.258 . S
O446 Co443 1.966 . S
O446 C444 1.263 . S
C447 O448 1.235 . S
C447 O474 1.289 . S
O448 C447 1.235 . S
C449 C451 1.400 . S
C449 N452 1.351 . S
C449 C454 1.501 . S
C450 C451 1.387 . S
C450 N453 1.341 . S
C451 C449 1.400 . S
C451 C450 1.387 . S
N452 Co443 2.022 . S
N452 C449 1.351 . S
N452 N453 1.365 . S
N453 C450 1.341 . S
N453 N452 1.365 . S
N453 H473 0.862 . S
C454 C449 1.501 . S
C454 H455 0.961 . S
C454 H456 0.961 . S
C454 H457 0.960 . S
H455 C454 0.961 . S
H456 C454 0.961 . S
H457 C454 0.960 . S
C458 N459 1.342 . S
C458 C462 1.401 . S
C458 C463 1.499 . S
N459 Co442 1.989 . S
N459 C458 1.342 . S
N459 N460 1.388 . S
N460 Co443 1.993 . S
N460 N459 1.388 . S
N460 C461 1.346 . S
C461 N460 1.346 . S
C461 C462 1.396 . S
C461 C471 1.510 . S
C462 C458 1.401 . S
C462 C461 1.396 . S
C463 C458 1.499 . S
C463 H464 0.959 . S
C463 H465 0.960 . S
C463 H466 0.961 . S
H464 C463 0.959 . S
H465 C463 0.960 . S
H466 C463 0.961 . S
O467 Co442 1.967 . S
O467 C475 1.258 . S
O468 Co443 1.941 . S
O468 C475 1.266 . S
H469 C471 0.959 . S
H470 C471 0.961 . S
C471 C461 1.510 . S
C471 H469 0.959 . S
C471 H470 0.961 . S
C471 H472 0.960 . S
H472 C471 0.960 . S
H473 N453 0.862 . S
O474 Co442 1.920 . S
O474 C447 1.289 . S
C475 O467 1.258 . S
C475 O468 1.266 . S
Co476 O479 1.970 1_455 S
Co476 N493 1.989 . S
Co476 O501 1.967 . S
Co476 O508 1.920 . S
Co477 O480 1.966 1_455 S
Co477 N486 2.022 . S
Co477 N494 1.993 . S
Co477 O502 1.941 . S
C478 O479 1.258 . S
C478 O480 1.263 . S
O479 Co476 1.970 1_655 S
O479 C478 1.258 . S
O480 Co477 1.966 1_655 S
O480 C478 1.263 . S
C481 O482 1.235 1_455 S
C481 O508 1.289 . S
O482 C481 1.235 1_655 S
C483 C485 1.400 . S
C483 N486 1.351 . S
C483 C488 1.501 1_455 S
C484 C485 1.387 . S
C484 N487 1.341 . S
C485 C483 1.400 . S
C485 C484 1.387 . S
N486 Co477 2.022 . S
N486 C483 1.351 . S
N486 N487 1.365 . S
N487 C484 1.341 . S
N487 N486 1.365 . S
N487 H507 0.862 . S
C488 C483 1.501 1_655 S
C488 H489 0.961 . S
C488 H490 0.961 . S
C488 H491 0.960 . S
H489 C488 0.961 . S
H490 C488 0.961 . S
H491 C488 0.960 . S
C492 N493 1.342 1_556 S
C492 C496 1.401 . S
C492 C497 1.499 . S
N493 Co476 1.989 . S
N493 C492 1.342 1_554 S
N493 N494 1.388 . S
N494 Co477 1.993 . S
N494 N493 1.388 . S
N494 C495 1.346 1_554 S
C495 N494 1.346 1_556 S
C495 C496 1.396 . S
C495 C505 1.510 . S
C496 C492 1.401 . S
C496 C495 1.396 . S
C497 C492 1.499 . S
C497 H498 0.959 . S
C497 H499 0.960 . S
C497 H500 0.961 . S
H498 C497 0.959 . S
H499 C497 0.960 . S
H500 C497 0.961 . S
O501 Co476 1.967 . S
O501 C509 1.258 . S
O502 Co477 1.941 . S
O502 C509 1.266 . S
H503 C505 0.959 . S
H504 C505 0.961 . S
C505 C495 1.510 . S
C505 H503 0.959 . S
C505 H504 0.961 . S
C505 H506 0.960 . S
H506 C505 0.960 . S
H507 N487 0.862 . S
O508 Co476 1.920 . S
O508 C481 1.289 . S
C509 O501 1.258 . S
C509 O502 1.266 . S
Co510 O513 1.970 1_545 S
Co510 N527 1.989 . S
Co510 O535 1.967 . S
Co510 O542 1.920 . S
Co511 O514 1.966 1_545 S
Co511 N520 2.022 . S
Co511 N528 1.993 . S
Co511 O536 1.941 . S
C512 O513 1.258 . S
C512 O514 1.263 . S
O513 Co510 1.970 1_565 S
O513 C512 1.258 . S
O514 Co511 1.966 1_565 S
O514 C512 1.263 . S
C515 O516 1.235 1_545 S
C515 O542 1.289 . S
O516 C515 1.235 1_565 S
C517 C519 1.400 . S
C517 N520 1.351 . S
C517 C522 1.501 1_545 S
C518 C519 1.387 . S
C518 N521 1.341 . S
C519 C517 1.400 . S
C519 C518 1.387 . S
N520 Co511 2.022 . S
N520 C517 1.351 . S
N520 N521 1.365 . S
N521 C518 1.341 . S
N521 N520 1.365 . S
N521 H541 0.862 . S
C522 C517 1.501 1_565 S
C522 H523 0.961 . S
C522 H524 0.961 . S
C522 H525 0.960 . S
H523 C522 0.961 . S
H524 C522 0.961 . S
H525 C522 0.960 . S
C526 N527 1.342 . S
C526 C530 1.401 . S
C526 C531 1.499 . S
N527 Co510 1.989 . S
N527 C526 1.342 . S
N527 N528 1.388 . S
N528 Co511 1.993 . S
N528 N527 1.388 . S
N528 C529 1.346 . S
C529 N528 1.346 . S
C529 C530 1.396 . S
C529 C539 1.510 . S
C530 C526 1.401 . S
C530 C529 1.396 . S
C531 C526 1.499 . S
C531 H532 0.959 . S
C531 H533 0.960 . S
C531 H534 0.961 . S
H532 C531 0.959 . S
H533 C531 0.960 . S
H534 C531 0.961 . S
O535 Co510 1.967 . S
O535 C543 1.258 . S
O536 Co511 1.941 . S
O536 C543 1.266 . S
H537 C539 0.959 . S
H538 C539 0.961 . S
C539 C529 1.510 . S
C539 H537 0.959 . S
C539 H538 0.961 . S
C539 H540 0.960 . S
H540 C539 0.960 . S
H541 N521 0.862 . S
O542 Co510 1.920 . S
O542 C515 1.289 . S
C543 O535 1.258 . S
C543 O536 1.266 . S
H544 C552 0.950 . S
H545 C557 0.950 1_556 S
H546 C554 0.950 . S
H547 C556 0.950 . S
H548 C558 0.950 . S
H549 C560 0.950 . S
H550 C562 0.950 . S
H551 C563 0.950 1_554 S
C552 H544 0.950 . S
C552 C553 1.386 . S
C552 C554 1.391 . S
C553 C552 1.386 . S
C553 C557 1.393 . S
C554 H546 0.950 . S
C554 C552 1.391 . S
C554 C555 1.400 . S
C555 C554 1.400 . S
C555 C556 1.398 1_554 S
C555 C561 1.491 1_544 S
C556 H547 0.950 . S
C556 C555 1.398 1_556 S
C556 C557 1.391 1_556 S
C557 H545 0.950 1_554 S
C557 C553 1.393 . S
C557 C556 1.391 1_554 S
C558 H548 0.950 . S
C558 C559 1.386 . S
C558 C560 1.391 . S
C559 C558 1.386 . S
C559 C563 1.393 . S
C560 H549 0.950 . S
C560 C558 1.391 . S
C560 C561 1.400 . S
C561 C555 1.491 1_566 S
C561 C560 1.400 . S
C561 C562 1.398 1_556 S
C562 H550 0.950 . S
C562 C561 1.398 1_554 S
C562 C563 1.391 1_554 S
C563 H551 0.950 1_556 S
C563 C559 1.393 . S
C563 C562 1.391 1_556 S
H564 C572 0.950 . S
H565 C577 0.950 . S
H566 C574 0.950 . S
H567 C576 0.950 . S
H568 C578 0.950 . S
H569 C580 0.950 . S
H570 C582 0.950 . S
H571 C583 0.950 . S
C572 H564 0.950 . S
C572 C573 1.386 . S
C572 C574 1.391 . S
C573 C572 1.386 . S
C573 C577 1.393 . S
C574 H566 0.950 . S
C574 C572 1.391 . S
C574 C575 1.400 . S
C575 C574 1.400 . S
C575 C576 1.398 . S
C575 C581 1.491 . S
C576 H567 0.950 . S
C576 C575 1.398 . S
C576 C577 1.391 . S
C577 H565 0.950 . S
C577 C573 1.393 . S
C577 C576 1.391 . S
C578 H568 0.950 . S
C578 C579 1.386 . S
C578 C580 1.391 . S
C579 C578 1.386 . S
C579 C583 1.393 . S
C580 H569 0.950 . S
C580 C578 1.391 . S
C580 C581 1.400 . S
C581 C575 1.491 . S
C581 C580 1.400 . S
C581 C582 1.398 . S
C582 H570 0.950 . S
C582 C581 1.398 . S
C582 C583 1.391 . S
C583 H571 0.950 . S
C583 C579 1.393 . S
C583 C582 1.391 . S
H584 C592 0.959 . S
H585 C597 0.950 . S
H586 C594 0.950 . S
H587 C596 0.950 . S
H588 C598 0.959 . S
H589 C600 0.950 . S
H590 C602 0.950 . S
H591 C603 0.950 . S
C592 H584 0.959 . S
C592 C593 1.371 1_455 S
C592 C594 1.397 . S
C593 C592 1.371 1_655 S
C593 C597 1.392 1_554 S
C594 H586 0.950 . S
C594 C592 1.397 . S
C594 C595 1.400 1_455 S
C595 C594 1.400 1_655 S
C595 C596 1.398 1_554 S
C595 C601 1.491 1_654 S
C596 H587 0.950 . S
C596 C595 1.398 1_556 S
C596 C597 1.391 . S
C597 H585 0.950 . S
C597 C593 1.392 1_556 S
C597 C596 1.391 . S
C598 H588 0.959 . S
C598 C599 1.371 1_655 S
C598 C600 1.397 . S
C599 C598 1.371 1_455 S
C599 C603 1.392 1_556 S
C600 H589 0.950 . S
C600 C598 1.397 . S
C600 C601 1.400 1_655 S
C601 C595 1.491 1_456 S
C601 C600 1.400 1_455 S
C601 C602 1.398 1_556 S
C602 H590 0.950 . S
C602 C601 1.398 1_554 S
C602 C603 1.391 . S
C603 H591 0.950 . S
C603 C599 1.392 1_554 S
C603 C602 1.391 . S
H604 C612 0.950 . S
H605 C617 0.960 . S
H606 C614 0.997 . S
H607 C616 0.950 . S
H608 C618 0.950 . S
H609 C620 0.997 . S
H610 C622 0.950 . S
H611 C623 0.960 . S
C612 H604 0.950 . S
C612 C613 1.386 . S
C612 C614 1.391 . S
C613 C612 1.386 . S
C613 C617 1.377 1_565 S
C614 H606 0.997 . S
C614 C612 1.391 . S
C614 C615 1.400 . S
C615 C614 1.400 . S
C615 C616 1.398 1_565 S
C615 C621 1.491 1_465 S
C616 H607 0.950 . S
C616 C615 1.398 1_545 S
C616 C617 1.397 . S
C617 H605 0.960 . S
C617 C613 1.377 1_545 S
C617 C616 1.397 . S
C618 H608 0.950 . S
C618 C619 1.386 . S
C618 C620 1.391 . S
C619 C618 1.386 . S
C619 C623 1.377 1_545 S
C620 H609 0.997 . S
C620 C618 1.391 . S
C620 C621 1.400 . S
C621 C615 1.491 1_645 S
C621 C620 1.400 . S
C621 C622 1.398 1_545 S
C622 H610 0.950 . S
C622 C621 1.398 1_565 S
C622 C623 1.397 . S
C623 H611 0.960 . S
C623 C619 1.377 1_565 S
C623 C622 1.397 . S
H624 C632 0.950 . S
H625 C637 0.950 . S
H626 C634 0.950 . S
H627 C636 0.950 . S
H628 C638 0.950 . S
H629 C640 0.950 . S
H630 C642 0.950 . S
H631 C643 0.950 . S
C632 H624 0.950 . S
C632 C633 1.386 . S
C632 C634 1.391 . S
C633 C632 1.386 . S
C633 C637 1.393 . S
C634 H626 0.950 . S
C634 C632 1.391 . S
C634 C635 1.400 . S
C635 C634 1.400 . S
C635 C636 1.398 . S
C635 C641 1.491 1_556 S
C636 H627 0.950 . S
C636 C635 1.398 . S
C636 C637 1.391 . S
C637 H625 0.950 . S
C637 C633 1.393 . S
C637 C636 1.391 . S
C638 H628 0.950 . S
C638 C639 1.386 . S
C638 C640 1.391 . S
C639 C638 1.386 . S
C639 C643 1.393 . S
C640 H629 0.950 . S
C640 C638 1.391 . S
C640 C641 1.400 . S
C641 C635 1.491 1_554 S
C641 C640 1.400 . S
C641 C642 1.398 . S
C642 H630 0.950 . S
C642 C641 1.398 . S
C642 C643 1.391 . S
C643 H631 0.950 . S
C643 C639 1.393 . S
C643 C642 1.391 . S
H644 C652 0.950 . S
H645 C657 0.950 . S
H646 C654 0.950 . S
H647 C656 0.950 . S
H648 C658 0.950 . S
H649 C660 0.950 . S
H650 C662 0.950 . S
H651 C663 0.950 . S
C652 H644 0.950 . S
C652 C653 1.386 . S
C652 C654 1.391 . S
C653 C652 1.386 . S
C653 C657 1.393 . S
C654 H646 0.950 . S
C654 C652 1.391 . S
C654 C655 1.400 . S
C655 C654 1.400 . S
C655 C656 1.398 . S
C655 C661 1.491 1_655 S
C656 H647 0.950 . S
C656 C655 1.398 . S
C656 C657 1.391 . S
C657 H645 0.950 . S
C657 C653 1.393 . S
C657 C656 1.391 . S
C658 H648 0.950 . S
C658 C659 1.386 . S
C658 C660 1.391 . S
C659 C658 1.386 . S
C659 C663 1.393 . S
C660 H649 0.950 . S
C660 C658 1.391 . S
C660 C661 1.400 . S
C661 C655 1.491 1_455 S
C661 C660 1.400 . S
C661 C662 1.398 . S
C662 H650 0.950 . S
C662 C661 1.398 . S
C662 C663 1.391 . S
C663 H651 0.950 . S
C663 C659 1.393 . S
C663 C662 1.391 . S
H664 C672 0.950 . S
H665 C677 0.950 . S
H666 C674 0.950 . S
H667 C676 0.950 . S
H668 C678 0.950 . S
H669 C680 0.950 . S
H670 C682 0.950 . S
H671 C683 0.950 . S
C672 H664 0.950 . S
C672 C673 1.386 1_655 S
C672 C674 1.391 . S
C673 C672 1.386 1_455 S
C673 C677 1.393 . S
C674 H666 0.950 . S
C674 C672 1.391 . S
C674 C675 1.400 1_655 S
C675 C674 1.400 1_455 S
C675 C676 1.398 . S
C675 C681 1.491 1_464 S
C676 H667 0.950 . S
C676 C675 1.398 . S
C676 C677 1.391 . S
C677 H665 0.950 . S
C677 C673 1.393 . S
C677 C676 1.391 . S
C678 H668 0.950 . S
C678 C679 1.386 1_455 S
C678 C680 1.391 . S
C679 C678 1.386 1_655 S
C679 C683 1.393 . S
C680 H669 0.950 . S
C680 C678 1.391 . S
C680 C681 1.400 1_455 S
C681 C675 1.491 1_646 S
C681 C680 1.400 1_655 S
C681 C682 1.398 . S
C682 H670 0.950 . S
C682 C681 1.398 . S
C682 C683 1.391 . S
C683 H671 0.950 . S
C683 C679 1.393 . S
C683 C682 1.391 . S
H684 C692 0.950 . S
H685 C697 0.950 . S
H686 C694 0.950 . S
H687 C696 0.942 1_545 S
H688 C698 0.950 . S
H689 C700 0.950 . S
H690 C702 0.942 1_565 S
H691 C703 0.950 . S
C692 H684 0.950 . S
C692 C693 1.386 . S
C692 C694 1.391 . S
C693 C692 1.386 . S
C693 C697 1.393 . S
C694 H686 0.950 . S
C694 C692 1.391 . S
C694 C695 1.400 . S
C695 C694 1.400 . S
C695 C696 1.401 . S
C695 C701 1.491 1_565 S
C696 H687 0.942 1_565 S
C696 C695 1.401 . S
C696 C697 1.396 . S
C697 H685 0.950 . S
C697 C693 1.393 . S
C697 C696 1.396 . S
C698 H688 0.950 . S
C698 C699 1.386 . S
C698 C700 1.391 . S
C699 C698 1.386 . S
C699 C703 1.393 . S
C700 H689 0.950 . S
C700 C698 1.391 . S
C700 C701 1.400 . S
C701 C695 1.491 1_545 S
C701 C700 1.400 . S
C701 C702 1.401 . S
C702 H690 0.942 1_545 S
C702 C701 1.401 . S
C702 C703 1.396 . S
C703 H691 0.950 . S
C703 C699 1.393 . S
C703 C702 1.396 . S
H704 C712 0.950 . S
H705 C717 0.950 . S
H706 C714 0.950 . S
H707 C716 0.950 . S
H708 C718 0.950 . S
H709 C720 0.950 . S
H710 C722 0.950 . S
H711 C723 0.950 . S
C712 H704 0.950 . S
C712 C713 1.386 1_556 S
C712 C714 1.391 . S
C713 C712 1.386 1_554 S
C713 C717 1.393 . S
C714 H706 0.950 . S
C714 C712 1.391 . S
C714 C715 1.400 1_556 S
C715 C714 1.400 1_554 S
C715 C716 1.398 . S
C715 C721 1.491 1_554 S
C716 H707 0.950 . S
C716 C715 1.398 . S
C716 C717 1.391 . S
C717 H705 0.950 . S
C717 C713 1.393 . S
C717 C716 1.391 . S
C718 H708 0.950 . S
C718 C719 1.386 1_554 S
C718 C720 1.391 . S
C719 C718 1.386 1_556 S
C719 C723 1.393 . S
C720 H709 0.950 . S
C720 C718 1.391 . S
C720 C721 1.400 1_554 S
C721 C715 1.491 1_556 S
C721 C720 1.400 1_556 S
C721 C722 1.398 . S
C722 H710 0.950 . S
C722 C721 1.398 . S
C722 C723 1.391 . S
C723 H711 0.950 . S
C723 C719 1.393 . S
C723 C722 1.391 . S
H724 C732 0.950 . S
H725 C737 0.950 . S
H726 C734 0.950 . S
H727 C736 0.950 . S
H728 C738 0.950 . S
H729 C740 0.950 . S
H730 C742 0.950 . S
H731 C743 0.950 . S
C732 H724 0.950 . S
C732 C733 1.386 . S
C732 C734 1.391 . S
C733 C732 1.386 . S
C733 C737 1.393 . S
C734 H726 0.950 . S
C734 C732 1.391 . S
C734 C735 1.400 . S
C735 C734 1.400 . S
C735 C736 1.398 . S
C735 C741 1.491 . S
C736 H727 0.950 . S
C736 C735 1.398 . S
C736 C737 1.391 . S
C737 H725 0.950 . S
C737 C733 1.393 . S
C737 C736 1.391 . S
C738 H728 0.950 . S
C738 C739 1.386 . S
C738 C740 1.391 . S
C739 C738 1.386 . S
C739 C743 1.393 . S
C740 H729 0.950 . S
C740 C738 1.391 . S
C740 C741 1.400 . S
C741 C735 1.491 . S
C741 C740 1.400 . S
C741 C742 1.398 . S
C742 H730 0.950 . S
C742 C741 1.398 . S
C742 C743 1.391 . S
C743 H731 0.950 . S
C743 C739 1.393 . S
C743 C742 1.391 . S
H744 C752 0.950 . S
H745 C757 0.950 . S
H746 C754 0.950 . S
H747 C756 0.950 . S
H748 C758 0.950 . S
H749 C760 0.950 . S
H750 C762 0.950 . S
H751 C763 0.950 . S
C752 H744 0.950 . S
C752 C753 1.386 1_455 S
C752 C754 1.391 . S
C753 C752 1.386 1_655 S
C753 C757 1.393 . S
C754 H746 0.950 . S
C754 C752 1.391 . S
C754 C755 1.400 1_455 S
C755 C754 1.400 1_655 S
C755 C756 1.398 . S
C755 C761 1.491 1_554 S
C756 H747 0.950 . S
C756 C755 1.398 . S
C756 C757 1.391 . S
C757 H745 0.950 . S
C757 C753 1.393 . S
C757 C756 1.391 . S
C758 H748 0.950 . S
C758 C759 1.386 . S
C758 C760 1.391 . S
C759 C758 1.386 . S
C759 C763 1.393 1_655 S
C760 H749 0.950 . S
C760 C758 1.391 . S
C760 C761 1.400 . S
C761 C755 1.491 1_556 S
C761 C760 1.400 . S
C761 C762 1.398 1_655 S
C762 H750 0.950 . S
C762 C761 1.398 1_455 S
C762 C763 1.391 . S
C763 H751 0.950 . S
C763 C759 1.393 1_455 S
C763 C762 1.391 . S
H764 C772 0.950 . S
H765 C777 0.950 1_545 S
H766 C774 0.950 . S
H767 C776 0.950 1_545 S
H768 C778 0.950 1_545 S
H769 C780 0.950 1_545 S
H770 C782 0.950 . S
H771 C783 0.950 . S
C772 H764 0.950 . S
C772 C773 1.386 . S
C772 C774 1.391 . S
C773 C772 1.386 . S
C773 C777 1.393 . S
C774 H766 0.950 . S
C774 C772 1.391 . S
C774 C775 1.400 . S
C775 C774 1.400 . S
C775 C776 1.398 . S
C775 C781 1.491 . S
C776 H767 0.950 1_565 S
C776 C775 1.398 . S
C776 C777 1.391 . S
C777 H765 0.950 1_565 S
C777 C773 1.393 . S
C777 C776 1.391 . S
C778 H768 0.950 1_565 S
C778 C779 1.386 . S
C778 C780 1.391 . S
C779 C778 1.386 . S
C779 C783 1.393 . S
C780 H769 0.950 1_565 S
C780 C778 1.391 . S
C780 C781 1.400 . S
C781 C775 1.491 . S
C781 C780 1.400 . S
C781 C782 1.398 . S
C782 H770 0.950 . S
C782 C781 1.398 . S
C782 C783 1.391 . S
C783 H771 0.950 . S
C783 C779 1.393 . S
C783 C782 1.391 . S
H784 C792 0.955 . S
H785 C797 0.950 . S
H786 C794 0.950 . S
H787 C796 0.950 . S
H788 C798 0.955 . S
H789 C800 0.950 . S
H790 C802 0.950 . S
H791 C803 0.950 . S
C792 H784 0.955 . S
C792 C793 1.386 . S
C792 C794 1.391 1_554 S
C793 C792 1.386 . S
C793 C797 1.393 . S
C794 H786 0.950 . S
C794 C792 1.391 1_556 S
C794 C795 1.400 1_556 S
C795 C794 1.400 1_554 S
C795 C796 1.398 . S
C795 C801 1.491 1_554 S
C796 H787 0.950 . S
C796 C795 1.398 . S
C796 C797 1.391 . S
C797 H785 0.950 . S
C797 C793 1.393 . S
C797 C796 1.391 . S
C798 H788 0.955 . S
C798 C799 1.386 . S
C798 C800 1.391 1_556 S
C799 C798 1.386 . S
C799 C803 1.393 . S
C800 H789 0.950 . S
C800 C798 1.391 1_554 S
C800 C801 1.400 1_554 S
C801 C795 1.491 1_556 S
C801 C800 1.400 1_556 S
C801 C802 1.398 . S
C802 H790 0.950 . S
C802 C801 1.398 . S
C802 C803 1.391 . S
C803 H791 0.950 . S
C803 C799 1.393 . S
C803 C802 1.391 . S
H804 C812 0.950 . S
H805 C817 0.950 . S
H806 C814 0.950 . S
H807 C816 0.950 . S
H808 C818 0.950 . S
H809 C820 0.950 . S
H810 C822 0.950 . S
H811 C823 0.950 . S
C812 H804 0.950 . S
C812 C813 1.386 . S
C812 C814 1.391 . S
C813 C812 1.386 . S
C813 C817 1.393 . S
C814 H806 0.950 . S
C814 C812 1.391 . S
C814 C815 1.400 . S
C815 C814 1.400 . S
C815 C816 1.398 . S
C815 C821 1.491 . S
C816 H807 0.950 . S
C816 C815 1.398 . S
C816 C817 1.391 . S
C817 H805 0.950 . S
C817 C813 1.393 . S
C817 C816 1.391 . S
C818 H808 0.950 . S
C818 C819 1.386 . S
C818 C820 1.391 . S
C819 C818 1.386 . S
C819 C823 1.393 . S
C820 H809 0.950 . S
C820 C818 1.391 . S
C820 C821 1.400 . S
C821 C815 1.491 . S
C821 C820 1.400 . S
C821 C822 1.398 . S
C822 H810 0.950 . S
C822 C821 1.398 . S
C822 C823 1.391 . S
C823 H811 0.950 . S
C823 C819 1.393 . S
C823 C822 1.391 . S
H824 C832 0.950 . S
H825 C837 0.950 . S
H826 C834 0.950 . S
H827 C836 0.950 . S
H828 C838 0.950 . S
H829 C840 0.950 . S
H830 C842 0.950 . S
H831 C843 0.950 . S
C832 H824 0.950 . S
C832 C833 1.386 1_556 S
C832 C834 1.391 . S
C833 C832 1.386 1_554 S
C833 C837 1.393 . S
C834 H826 0.950 . S
C834 C832 1.391 . S
C834 C835 1.400 1_556 S
C835 C834 1.400 1_554 S
C835 C836 1.398 . S
C835 C841 1.491 1_554 S
C836 H827 0.950 . S
C836 C835 1.398 . S
C836 C837 1.391 . S
C837 H825 0.950 . S
C837 C833 1.393 . S
C837 C836 1.391 . S
C838 H828 0.950 . S
C838 C839 1.386 1_554 S
C838 C840 1.391 . S
C839 C838 1.386 1_556 S
C839 C843 1.393 . S
C840 H829 0.950 . S
C840 C838 1.391 . S
C840 C841 1.400 1_554 S
C841 C835 1.491 1_556 S
C841 C840 1.400 1_556 S
C841 C842 1.398 . S
C842 H830 0.950 . S
C842 C841 1.398 . S
C842 C843 1.391 . S
C843 H831 0.950 . S
C843 C839 1.393 . S
C843 C842 1.391 . S
H844 C852 0.950 . S
H845 C857 0.950 . S
H846 C854 0.950 . S
H847 C856 0.950 . S
H848 C858 0.950 . S
H849 C860 0.950 . S
H850 C862 0.950 . S
H851 C863 0.950 . S
C852 H844 0.950 . S
C852 C853 1.386 1_565 S
C852 C854 1.391 . S
C853 C852 1.386 1_545 S
C853 C857 1.393 . S
C854 H846 0.950 . S
C854 C852 1.391 . S
C854 C855 1.400 1_565 S
C855 C854 1.400 1_545 S
C855 C856 1.398 . S
C855 C861 1.491 . S
C856 H847 0.950 . S
C856 C855 1.398 . S
C856 C857 1.391 . S
C857 H845 0.950 . S
C857 C853 1.393 . S
C857 C856 1.391 . S
C858 H848 0.950 . S
C858 C859 1.386 . S
C858 C860 1.391 . S
C859 C858 1.386 . S
C859 C863 1.393 1_545 S
C860 H849 0.950 . S
C860 C858 1.391 . S
C860 C861 1.400 . S
C861 C855 1.491 . S
C861 C860 1.400 . S
C861 C862 1.398 1_545 S
C862 H850 0.950 . S
C862 C861 1.398 1_565 S
C862 C863 1.391 . S
C863 H851 0.950 . S
C863 C859 1.393 1_565 S
C863 C862 1.391 . S
H864 C872 0.950 . S
H865 C877 0.950 . S
H866 C874 0.950 . S
H867 C876 0.950 . S
H868 C878 0.950 . S
H869 C880 0.950 . S
H870 C882 0.950 . S
H871 C883 0.950 . S
C872 H864 0.950 . S
C872 C873 1.386 . S
C872 C874 1.391 . S
C873 C872 1.386 . S
C873 C877 1.393 . S
C874 H866 0.950 . S
C874 C872 1.391 . S
C874 C875 1.400 . S
C875 C874 1.400 . S
C875 C876 1.398 . S
C875 C881 1.491 . S
C876 H867 0.950 . S
C876 C875 1.398 . S
C876 C877 1.391 . S
C877 H865 0.950 . S
C877 C873 1.393 . S
C877 C876 1.391 . S
C878 H868 0.950 . S
C878 C879 1.386 . S
C878 C880 1.391 . S
C879 C878 1.386 . S
C879 C883 1.393 . S
C880 H869 0.950 . S
C880 C878 1.391 . S
C880 C881 1.400 . S
C881 C875 1.491 . S
C881 C880 1.400 . S
C881 C882 1.398 . S
C882 H870 0.950 . S
C882 C881 1.398 . S
C882 C883 1.391 . S
C883 H871 0.950 . S
C883 C879 1.393 . S
C883 C882 1.391 . S
H884 C892 0.950 . S
H885 C897 0.950 . S
H886 C894 0.950 . S
H887 C896 0.950 . S
H888 C898 0.950 . S
H889 C900 0.950 . S
H890 C902 0.950 . S
H891 C903 0.950 . S
C892 H884 0.950 . S
C892 C893 1.386 . S
C892 C894 1.391 . S
C893 C892 1.386 . S
C893 C897 1.393 . S
C894 H886 0.950 . S
C894 C892 1.391 . S
C894 C895 1.400 . S
C895 C894 1.400 . S
C895 C896 1.398 . S
C895 C901 1.491 . S
C896 H887 0.950 . S
C896 C895 1.398 . S
C896 C897 1.391 . S
C897 H885 0.950 . S
C897 C893 1.393 . S
C897 C896 1.391 . S
C898 H888 0.950 . S
C898 C899 1.386 . S
C898 C900 1.391 . S
C899 C898 1.386 . S
C899 C903 1.393 . S
C900 H889 0.950 . S
C900 C898 1.391 . S
C900 C901 1.400 . S
C901 C895 1.491 . S
C901 C900 1.400 . S
C901 C902 1.398 . S
C902 H890 0.950 . S
C902 C901 1.398 . S
C902 C903 1.391 . S
C903 H891 0.950 . S
C903 C899 1.393 . S
C903 C902 1.391 . S
H904 C912 0.950 . S
H905 C917 0.950 . S
H906 C914 0.950 . S
H907 C916 0.950 . S
H908 C918 0.950 . S
H909 C920 0.950 . S
H910 C922 0.950 . S
H911 C923 0.950 . S
C912 H904 0.950 . S
C912 C913 1.386 . S
C912 C914 1.391 . S
C913 C912 1.386 . S
C913 C917 1.393 . S
C914 H906 0.950 . S
C914 C912 1.391 . S
C914 C915 1.400 . S
C915 C914 1.400 . S
C915 C916 1.398 . S
C915 C921 1.491 . S
C916 H907 0.950 . S
C916 C915 1.398 . S
C916 C917 1.391 . S
C917 H905 0.950 . S
C917 C913 1.393 . S
C917 C916 1.391 . S
C918 H908 0.950 . S
C918 C919 1.386 . S
C918 C920 1.391 . S
C919 C918 1.386 . S
C919 C923 1.393 . S
C920 H909 0.950 . S
C920 C918 1.391 . S
C920 C921 1.400 . S
C921 C915 1.491 . S
C921 C920 1.400 . S
C921 C922 1.398 . S
C922 H910 0.950 . S
C922 C921 1.398 . S
C922 C923 1.391 . S
C923 H911 0.950 . S
C923 C919 1.393 . S
C923 C922 1.391 . S
H924 C932 0.950 . S
H925 C937 0.950 . S
H926 C934 0.950 . S
H927 C936 0.950 . S
H928 C938 0.950 . S
H929 C940 0.950 . S
H930 C942 0.950 . S
H931 C943 0.950 . S
C932 H924 0.950 . S
C932 C933 1.386 . S
C932 C934 1.391 . S
C933 C932 1.386 . S
C933 C937 1.393 . S
C934 H926 0.950 . S
C934 C932 1.391 . S
C934 C935 1.400 . S
C935 C934 1.400 . S
C935 C936 1.398 . S
C935 C941 1.491 . S
C936 H927 0.950 . S
C936 C935 1.398 . S
C936 C937 1.391 . S
C937 H925 0.950 . S
C937 C933 1.393 . S
C937 C936 1.391 . S
C938 H928 0.950 . S
C938 C939 1.386 . S
C938 C940 1.391 . S
C939 C938 1.386 . S
C939 C943 1.393 . S
C940 H929 0.950 . S
C940 C938 1.391 . S
C940 C941 1.400 . S
C941 C935 1.491 . S
C941 C940 1.400 . S
C941 C942 1.398 . S
C942 H930 0.950 . S
C942 C941 1.398 . S
C942 C943 1.391 . S
C943 H931 0.950 . S
C943 C939 1.393 . S
C943 C942 1.391 . S
H944 C952 0.950 . S
H945 C957 0.950 . S
H946 C954 0.950 . S
H947 C956 0.950 . S
H948 C958 0.950 . S
H949 C960 0.950 . S
H950 C962 0.950 . S
H951 C963 0.950 . S
C952 H944 0.950 . S
C952 C953 1.386 . S
C952 C954 1.391 . S
C953 C952 1.386 . S
C953 C957 1.393 . S
C954 H946 0.950 . S
C954 C952 1.391 . S
C954 C955 1.400 . S
C955 C954 1.400 . S
C955 C956 1.398 . S
C955 C961 1.491 . S
C956 H947 0.950 . S
C956 C955 1.398 . S
C956 C957 1.391 . S
C957 H945 0.950 . S
C957 C953 1.393 . S
C957 C956 1.391 . S
C958 H948 0.950 . S
C958 C959 1.386 . S
C958 C960 1.391 . S
C959 C958 1.386 . S
C959 C963 1.393 . S
C960 H949 0.950 . S
C960 C958 1.391 . S
C960 C961 1.400 . S
C961 C955 1.491 . S
C961 C960 1.400 . S
C961 C962 1.398 . S
C962 H950 0.950 . S
C962 C961 1.398 . S
C962 C963 1.391 . S
C963 H951 0.950 . S
C963 C959 1.393 . S
C963 C962 1.391 . S
H964 C972 0.950 . S
H965 C977 0.950 . S
H966 C974 0.950 . S
H967 C976 0.950 . S
H968 C978 0.950 . S
H969 C980 0.950 . S
H970 C982 0.950 . S
H971 C983 0.950 . S
C972 H964 0.950 . S
C972 C973 1.386 . S
C972 C974 1.391 . S
C973 C972 1.386 . S
C973 C977 1.393 . S
C974 H966 0.950 . S
C974 C972 1.391 . S
C974 C975 1.400 . S
C975 C974 1.400 . S
C975 C976 1.398 . S
C975 C981 1.491 . S
C976 H967 0.950 . S
C976 C975 1.398 . S
C976 C977 1.391 . S
C977 H965 0.950 . S
C977 C973 1.393 . S
C977 C976 1.391 . S
C978 H968 0.950 . S
C978 C979 1.386 . S
C978 C980 1.391 . S
C979 C978 1.386 . S
C979 C983 1.393 . S
C980 H969 0.950 . S
C980 C978 1.391 . S
C980 C981 1.400 . S
C981 C975 1.491 . S
C981 C980 1.400 . S
C981 C982 1.398 . S
C982 H970 0.950 . S
C982 C981 1.398 . S
C982 C983 1.391 . S
C983 H971 0.950 . S
C983 C979 1.393 . S
C983 C982 1.391 . S
H984 C992 0.950 . S
H985 C997 0.950 . S
H986 C994 0.950 . S
H987 C996 0.950 . S
H988 C998 0.950 . S
H989 C1000 0.950 . S
H990 C1002 0.950 . S
H991 C1003 0.950 . S
C992 H984 0.950 . S
C992 C993 1.386 . S
C992 C994 1.391 . S
C993 C992 1.386 . S
C993 C997 1.393 . S
C994 H986 0.950 . S
C994 C992 1.391 . S
C994 C995 1.400 . S
C995 C994 1.400 . S
C995 C996 1.398 . S
C995 C1001 1.491 . S
C996 H987 0.950 . S
C996 C995 1.398 . S
C996 C997 1.391 . S
C997 H985 0.950 . S
C997 C993 1.393 . S
C997 C996 1.391 . S
C998 H988 0.950 . S
C998 C999 1.386 . S
C998 C1000 1.391 . S
C999 C998 1.386 . S
C999 C1003 1.393 . S
C1000 H989 0.950 . S
C1000 C998 1.391 . S
C1000 C1001 1.400 . S
C1001 C995 1.491 . S
C1001 C1000 1.400 . S
C1001 C1002 1.398 . S
C1002 H990 0.950 . S
C1002 C1001 1.398 . S
C1002 C1003 1.391 . S
C1003 H991 0.950 . S
C1003 C999 1.393 . S
C1003 C1002 1.391 . S
H1004 C1012 0.950 . S
H1005 C1017 0.950 . S
H1006 C1014 0.950 . S
H1007 C1016 0.950 . S
H1008 C1018 0.950 . S
H1009 C1020 0.950 . S
H1010 C1022 0.950 . S
H1011 C1023 0.950 . S
C1012 H1004 0.950 . S
C1012 C1013 1.386 . S
C1012 C1014 1.391 . S
C1013 C1012 1.386 . S
C1013 C1017 1.393 . S
C1014 H1006 0.950 . S
C1014 C1012 1.391 . S
C1014 C1015 1.400 . S
C1015 C1014 1.400 . S
C1015 C1016 1.398 . S
C1015 C1021 1.491 . S
C1016 H1007 0.950 . S
C1016 C1015 1.398 . S
C1016 C1017 1.391 . S
C1017 H1005 0.950 . S
C1017 C1013 1.393 . S
C1017 C1016 1.391 . S
C1018 H1008 0.950 . S
C1018 C1019 1.386 . S
C1018 C1020 1.391 . S
C1019 C1018 1.386 . S
C1019 C1023 1.393 . S
C1020 H1009 0.950 . S
C1020 C1018 1.391 . S
C1020 C1021 1.400 . S
C1021 C1015 1.491 . S
C1021 C1020 1.400 . S
C1021 C1022 1.398 . S
C1022 H1010 0.950 . S
C1022 C1021 1.398 . S
C1022 C1023 1.391 . S
C1023 H1011 0.950 . S
C1023 C1019 1.393 . S
C1023 C1022 1.391 . S
H1024 C1032 0.950 . S
H1025 C1037 0.950 . S
H1026 C1034 0.950 . S
H1027 C1036 0.950 . S
H1028 C1038 0.950 . S
H1029 C1040 0.950 . S
H1030 C1042 0.950 . S
H1031 C1043 0.950 . S
C1032 H1024 0.950 . S
C1032 C1033 1.386 . S
C1032 C1034 1.391 . S
C1033 C1032 1.386 . S
C1033 C1037 1.393 . S
C1034 H1026 0.950 . S
C1034 C1032 1.391 . S
C1034 C1035 1.400 . S
C1035 C1034 1.400 . S
C1035 C1036 1.398 . S
C1035 C1041 1.491 . S
C1036 H1027 0.950 . S
C1036 C1035 1.398 . S
C1036 C1037 1.391 . S
C1037 H1025 0.950 . S
C1037 C1033 1.393 . S
C1037 C1036 1.391 . S
C1038 H1028 0.950 . S
C1038 C1039 1.386 . S
C1038 C1040 1.391 . S
C1039 C1038 1.386 . S
C1039 C1043 1.393 . S
C1040 H1029 0.950 . S
C1040 C1038 1.391 . S
C1040 C1041 1.400 . S
C1041 C1035 1.491 . S
C1041 C1040 1.400 . S
C1041 C1042 1.398 . S
C1042 H1030 0.950 . S
C1042 C1041 1.398 . S
C1042 C1043 1.391 . S
C1043 H1031 0.950 . S
C1043 C1039 1.393 . S
C1043 C1042 1.391 . S
H1044 C1052 0.950 . S
H1045 C1057 0.950 . S
H1046 C1054 0.950 . S
H1047 C1056 0.950 . S
H1048 C1058 0.950 . S
H1049 C1060 0.950 . S
H1050 C1062 0.950 . S
H1051 C1063 0.950 . S
C1052 H1044 0.950 . S
C1052 C1053 1.386 . S
C1052 C1054 1.391 . S
C1053 C1052 1.386 . S
C1053 C1057 1.393 . S
C1054 H1046 0.950 . S
C1054 C1052 1.391 . S
C1054 C1055 1.400 . S
C1055 C1054 1.400 . S
C1055 C1056 1.398 . S
C1055 C1061 1.491 . S
C1056 H1047 0.950 . S
C1056 C1055 1.398 . S
C1056 C1057 1.391 . S
C1057 H1045 0.950 . S
C1057 C1053 1.393 . S
C1057 C1056 1.391 . S
C1058 H1048 0.950 . S
C1058 C1059 1.386 . S
C1058 C1060 1.391 . S
C1059 C1058 1.386 . S
C1059 C1063 1.393 . S
C1060 H1049 0.950 . S
C1060 C1058 1.391 . S
C1060 C1061 1.400 . S
C1061 C1055 1.491 . S
C1061 C1060 1.400 . S
C1061 C1062 1.398 . S
C1062 H1050 0.950 . S
C1062 C1061 1.398 . S
C1062 C1063 1.391 . S
C1063 H1051 0.950 . S
C1063 C1059 1.393 . S
C1063 C1062 1.391 . S
H1064 C1072 0.950 . S
H1065 C1077 0.950 . S
H1066 C1074 0.950 . S
H1067 C1076 0.950 . S
H1068 C1078 0.950 . S
H1069 C1080 0.950 . S
H1070 C1082 0.950 . S
H1071 C1083 0.950 . S
C1072 H1064 0.950 . S
C1072 C1073 1.386 . S
C1072 C1074 1.391 . S
C1073 C1072 1.386 . S
C1073 C1077 1.393 . S
C1074 H1066 0.950 . S
C1074 C1072 1.391 . S
C1074 C1075 1.400 . S
C1075 C1074 1.400 . S
C1075 C1076 1.398 . S
C1075 C1081 1.491 . S
C1076 H1067 0.950 . S
C1076 C1075 1.398 . S
C1076 C1077 1.391 . S
C1077 H1065 0.950 . S
C1077 C1073 1.393 . S
C1077 C1076 1.391 . S
C1078 H1068 0.950 . S
C1078 C1079 1.386 . S
C1078 C1080 1.391 . S
C1079 C1078 1.386 . S
C1079 C1083 1.393 . S
C1080 H1069 0.950 . S
C1080 C1078 1.391 . S
C1080 C1081 1.400 . S
C1081 C1075 1.491 . S
C1081 C1080 1.400 . S
C1081 C1082 1.398 . S
C1082 H1070 0.950 . S
C1082 C1081 1.398 . S
C1082 C1083 1.391 . S
C1083 H1071 0.950 . S
C1083 C1079 1.393 . S
C1083 C1082 1.391 . S
H1084 C1092 0.950 . S
H1085 C1097 0.950 . S
H1086 C1094 0.950 . S
H1087 C1096 0.950 . S
H1088 C1098 0.950 . S
H1089 C1100 0.950 . S
H1090 C1102 0.950 . S
H1091 C1103 0.950 . S
C1092 H1084 0.950 . S
C1092 C1093 1.386 . S
C1092 C1094 1.391 . S
C1093 C1092 1.386 . S
C1093 C1097 1.393 . S
C1094 H1086 0.950 . S
C1094 C1092 1.391 . S
C1094 C1095 1.400 . S
C1095 C1094 1.400 . S
C1095 C1096 1.398 . S
C1095 C1101 1.491 . S
C1096 H1087 0.950 . S
C1096 C1095 1.398 . S
C1096 C1097 1.391 . S
C1097 H1085 0.950 . S
C1097 C1093 1.393 . S
C1097 C1096 1.391 . S
C1098 H1088 0.950 . S
C1098 C1099 1.386 . S
C1098 C1100 1.391 . S
C1099 C1098 1.386 . S
C1099 C1103 1.393 . S
C1100 H1089 0.950 . S
C1100 C1098 1.391 . S
C1100 C1101 1.400 . S
C1101 C1095 1.491 . S
C1101 C1100 1.400 . S
C1101 C1102 1.398 . S
C1102 H1090 0.950 . S
C1102 C1101 1.398 . S
C1102 C1103 1.391 . S
C1103 H1091 0.950 . S
C1103 C1099 1.393 . S
C1103 C1102 1.391 . S
H1104 C1112 0.950 . S
H1105 C1117 0.950 . S
H1106 C1114 0.950 . S
H1107 C1116 0.950 . S
H1108 C1118 0.950 . S
H1109 C1120 0.950 . S
H1110 C1122 0.950 . S
H1111 C1123 0.950 . S
C1112 H1104 0.950 . S
C1112 C1113 1.386 . S
C1112 C1114 1.391 . S
C1113 C1112 1.386 . S
C1113 C1117 1.393 . S
C1114 H1106 0.950 . S
C1114 C1112 1.391 . S
C1114 C1115 1.400 . S
C1115 C1114 1.400 . S
C1115 C1116 1.398 . S
C1115 C1121 1.491 . S
C1116 H1107 0.950 . S
C1116 C1115 1.398 . S
C1116 C1117 1.391 . S
C1117 H1105 0.950 . S
C1117 C1113 1.393 . S
C1117 C1116 1.391 . S
C1118 H1108 0.950 . S
C1118 C1119 1.386 . S
C1118 C1120 1.391 . S
C1119 C1118 1.386 . S
C1119 C1123 1.393 . S
C1120 H1109 0.950 . S
C1120 C1118 1.391 . S
C1120 C1121 1.400 . S
C1121 C1115 1.491 . S
C1121 C1120 1.400 . S
C1121 C1122 1.398 . S
C1122 H1110 0.950 . S
C1122 C1121 1.398 . S
C1122 C1123 1.391 . S
C1123 H1111 0.950 . S
C1123 C1119 1.393 . S
C1123 C1122 1.391 . S
H1124 C1132 0.950 . S
H1125 C1137 0.950 . S
H1126 C1134 0.950 . S
H1127 C1136 0.950 . S
H1128 C1138 0.950 . S
H1129 C1140 0.950 . S
H1130 C1142 0.950 . S
H1131 C1143 0.950 . S
C1132 H1124 0.950 . S
C1132 C1133 1.386 . S
C1132 C1134 1.391 . S
C1133 C1132 1.386 . S
C1133 C1137 1.393 . S
C1134 H1126 0.950 . S
C1134 C1132 1.391 . S
C1134 C1135 1.400 . S
C1135 C1134 1.400 . S
C1135 C1136 1.398 . S
C1135 C1141 1.491 . S
C1136 H1127 0.950 . S
C1136 C1135 1.398 . S
C1136 C1137 1.391 . S
C1137 H1125 0.950 . S
C1137 C1133 1.393 . S
C1137 C1136 1.391 . S
C1138 H1128 0.950 . S
C1138 C1139 1.386 . S
C1138 C1140 1.391 . S
C1139 C1138 1.386 . S
C1139 C1143 1.393 . S
C1140 H1129 0.950 . S
C1140 C1138 1.391 . S
C1140 C1141 1.400 . S
C1141 C1135 1.491 . S
C1141 C1140 1.400 . S
C1141 C1142 1.398 . S
C1142 H1130 0.950 . S
C1142 C1141 1.398 . S
C1142 C1143 1.391 . S
C1143 H1131 0.950 . S
C1143 C1139 1.393 . S
C1143 C1142 1.391 . S
H1144 C1152 0.950 . S
H1145 C1157 0.950 . S
H1146 C1154 0.950 . S
H1147 C1156 0.950 . S
H1148 C1158 0.950 . S
H1149 C1160 0.950 . S
H1150 C1162 0.950 . S
H1151 C1163 0.950 . S
C1152 H1144 0.950 . S
C1152 C1153 1.386 . S
C1152 C1154 1.391 . S
C1153 C1152 1.386 . S
C1153 C1157 1.393 . S
C1154 H1146 0.950 . S
C1154 C1152 1.391 . S
C1154 C1155 1.400 . S
C1155 C1154 1.400 . S
C1155 C1156 1.398 . S
C1155 C1161 1.491 . S
C1156 H1147 0.950 . S
C1156 C1155 1.398 . S
C1156 C1157 1.391 . S
C1157 H1145 0.950 . S
C1157 C1153 1.393 . S
C1157 C1156 1.391 . S
C1158 H1148 0.950 . S
C1158 C1159 1.386 . S
C1158 C1160 1.391 . S
C1159 C1158 1.386 . S
C1159 C1163 1.393 . S
C1160 H1149 0.950 . S
C1160 C1158 1.391 . S
C1160 C1161 1.400 . S
C1161 C1155 1.491 . S
C1161 C1160 1.400 . S
C1161 C1162 1.398 . S
C1162 H1150 0.950 . S
C1162 C1161 1.398 . S
C1162 C1163 1.391 . S
C1163 H1151 0.950 . S
C1163 C1159 1.393 . S
C1163 C1162 1.391 . S
H1164 C1172 0.950 . S
H1165 C1177 0.950 . S
H1166 C1174 0.950 . S
H1167 C1176 0.950 . S
H1168 C1178 0.950 . S
H1169 C1180 0.950 . S
H1170 C1182 0.950 . S
H1171 C1183 0.950 . S
C1172 H1164 0.950 . S
C1172 C1173 1.386 . S
C1172 C1174 1.391 . S
C1173 C1172 1.386 . S
C1173 C1177 1.393 . S
C1174 H1166 0.950 . S
C1174 C1172 1.391 . S
C1174 C1175 1.400 . S
C1175 C1174 1.400 . S
C1175 C1176 1.398 . S
C1175 C1181 1.491 . S
C1176 H1167 0.950 . S
C1176 C1175 1.398 . S
C1176 C1177 1.391 . S
C1177 H1165 0.950 . S
C1177 C1173 1.393 . S
C1177 C1176 1.391 . S
C1178 H1168 0.950 . S
C1178 C1179 1.386 . S
C1178 C1180 1.391 . S
C1179 C1178 1.386 . S
C1179 C1183 1.393 . S
C1180 H1169 0.950 . S
C1180 C1178 1.391 . S
C1180 C1181 1.400 . S
C1181 C1175 1.491 . S
C1181 C1180 1.400 . S
C1181 C1182 1.398 . S
C1182 H1170 0.950 . S
C1182 C1181 1.398 . S
C1182 C1183 1.391 . S
C1183 H1171 0.950 . S
C1183 C1179 1.393 . S
C1183 C1182 1.391 . S
H1184 C1192 0.950 . S
H1185 C1197 0.950 . S
H1186 C1194 0.950 . S
H1187 C1196 0.950 . S
H1188 C1198 0.950 . S
H1189 C1200 0.950 . S
H1190 C1202 0.950 . S
H1191 C1203 0.950 . S
C1192 H1184 0.950 . S
C1192 C1193 1.386 . S
C1192 C1194 1.391 . S
C1193 C1192 1.386 . S
C1193 C1197 1.393 . S
C1194 H1186 0.950 . S
C1194 C1192 1.391 . S
C1194 C1195 1.400 . S
C1195 C1194 1.400 . S
C1195 C1196 1.398 . S
C1195 C1201 1.491 . S
C1196 H1187 0.950 . S
C1196 C1195 1.398 . S
C1196 C1197 1.391 . S
C1197 H1185 0.950 . S
C1197 C1193 1.393 . S
C1197 C1196 1.391 . S
C1198 H1188 0.950 . S
C1198 C1199 1.386 . S
C1198 C1200 1.391 . S
C1199 C1198 1.386 . S
C1199 C1203 1.393 . S
C1200 H1189 0.950 . S
C1200 C1198 1.391 . S
C1200 C1201 1.400 . S
C1201 C1195 1.491 . S
C1201 C1200 1.400 . S
C1201 C1202 1.398 . S
C1202 H1190 0.950 . S
C1202 C1201 1.398 . S
C1202 C1203 1.391 . S
C1203 H1191 0.950 . S
C1203 C1199 1.393 . S
C1203 C1202 1.391 . S
H1204 C1212 0.950 . S
H1205 C1217 0.950 . S
H1206 C1214 0.950 . S
H1207 C1216 0.950 . S
H1208 C1218 0.950 . S
H1209 C1220 0.950 . S
H1210 C1222 0.950 . S
H1211 C1223 0.950 . S
C1212 H1204 0.950 . S
C1212 C1213 1.386 . S
C1212 C1214 1.391 . S
C1213 C1212 1.386 . S
C1213 C1217 1.393 . S
C1214 H1206 0.950 . S
C1214 C1212 1.391 . S
C1214 C1215 1.400 . S
C1215 C1214 1.400 . S
C1215 C1216 1.398 . S
C1215 C1221 1.491 . S
C1216 H1207 0.950 . S
C1216 C1215 1.398 . S
C1216 C1217 1.391 . S
C1217 H1205 0.950 . S
C1217 C1213 1.393 . S
C1217 C1216 1.391 . S
C1218 H1208 0.950 . S
C1218 C1219 1.386 . S
C1218 C1220 1.391 . S
C1219 C1218 1.386 . S
C1219 C1223 1.393 . S
C1220 H1209 0.950 . S
C1220 C1218 1.391 . S
C1220 C1221 1.400 . S
C1221 C1215 1.491 . S
C1221 C1220 1.400 . S
C1221 C1222 1.398 . S
C1222 H1210 0.950 . S
C1222 C1221 1.398 . S
C1222 C1223 1.391 . S
C1223 H1211 0.950 . S
C1223 C1219 1.393 . S
C1223 C1222 1.391 . S
H1224 C1232 0.950 . S
H1225 C1237 0.950 . S
H1226 C1234 0.950 . S
H1227 C1236 0.950 . S
H1228 C1238 0.950 . S
H1229 C1240 0.950 . S
H1230 C1242 0.950 . S
H1231 C1243 0.950 . S
C1232 H1224 0.950 . S
C1232 C1233 1.386 . S
C1232 C1234 1.391 . S
C1233 C1232 1.386 . S
C1233 C1237 1.393 . S
C1234 H1226 0.950 . S
C1234 C1232 1.391 . S
C1234 C1235 1.400 . S
C1235 C1234 1.400 . S
C1235 C1236 1.398 . S
C1235 C1241 1.491 . S
C1236 H1227 0.950 . S
C1236 C1235 1.398 . S
C1236 C1237 1.391 . S
C1237 H1225 0.950 . S
C1237 C1233 1.393 . S
C1237 C1236 1.391 . S
C1238 H1228 0.950 . S
C1238 C1239 1.386 . S
C1238 C1240 1.391 . S
C1239 C1238 1.386 . S
C1239 C1243 1.393 . S
C1240 H1229 0.950 . S
C1240 C1238 1.391 . S
C1240 C1241 1.400 . S
C1241 C1235 1.491 . S
C1241 C1240 1.400 . S
C1241 C1242 1.398 . S
C1242 H1230 0.950 . S
C1242 C1241 1.398 . S
C1242 C1243 1.391 . S
C1243 H1231 0.950 . S
C1243 C1239 1.393 . S
C1243 C1242 1.391 . S
H1244 C1252 0.950 . S
H1245 C1257 0.950 . S
H1246 C1254 0.950 . S
H1247 C1256 0.950 . S
H1248 C1258 0.950 . S
H1249 C1260 0.950 . S
H1250 C1262 0.950 . S
H1251 C1263 0.950 . S
C1252 H1244 0.950 . S
C1252 C1253 1.386 . S
C1252 C1254 1.391 . S
C1253 C1252 1.386 . S
C1253 C1257 1.393 . S
C1254 H1246 0.950 . S
C1254 C1252 1.391 . S
C1254 C1255 1.400 . S
C1255 C1254 1.400 . S
C1255 C1256 1.398 . S
C1255 C1261 1.491 . S
C1256 H1247 0.950 . S
C1256 C1255 1.398 . S
C1256 C1257 1.391 . S
C1257 H1245 0.950 . S
C1257 C1253 1.393 . S
C1257 C1256 1.391 . S
C1258 H1248 0.950 . S
C1258 C1259 1.386 . S
C1258 C1260 1.391 . S
C1259 C1258 1.386 . S
C1259 C1263 1.393 . S
C1260 H1249 0.950 . S
C1260 C1258 1.391 . S
C1260 C1261 1.400 . S
C1261 C1255 1.491 . S
C1261 C1260 1.400 . S
C1261 C1262 1.398 . S
C1262 H1250 0.950 . S
C1262 C1261 1.398 . S
C1262 C1263 1.391 . S
C1263 H1251 0.950 . S
C1263 C1259 1.393 . S
C1263 C1262 1.391 . S
H1264 C1272 0.950 . S
H1265 C1277 0.950 . S
H1266 C1274 0.950 . S
H1267 C1276 0.950 . S
H1268 C1278 0.950 . S
H1269 C1280 0.950 . S
H1270 C1282 0.950 . S
H1271 C1283 0.950 . S
C1272 H1264 0.950 . S
C1272 C1273 1.386 . S
C1272 C1274 1.391 . S
C1273 C1272 1.386 . S
C1273 C1277 1.393 . S
C1274 H1266 0.950 . S
C1274 C1272 1.391 . S
C1274 C1275 1.400 . S
C1275 C1274 1.400 . S
C1275 C1276 1.398 . S
C1275 C1281 1.491 . S
C1276 H1267 0.950 . S
C1276 C1275 1.398 . S
C1276 C1277 1.391 . S
C1277 H1265 0.950 . S
C1277 C1273 1.393 . S
C1277 C1276 1.391 . S
C1278 H1268 0.950 . S
C1278 C1279 1.386 . S
C1278 C1280 1.391 . S
C1279 C1278 1.386 . S
C1279 C1283 1.393 . S
C1280 H1269 0.950 . S
C1280 C1278 1.391 . S
C1280 C1281 1.400 . S
C1281 C1275 1.491 . S
C1281 C1280 1.400 . S
C1281 C1282 1.398 . S
C1282 H1270 0.950 . S
C1282 C1281 1.398 . S
C1282 C1283 1.391 . S
C1283 H1271 0.950 . S
C1283 C1279 1.393 . S
C1283 C1282 1.391 . S
H1284 C1292 0.950 . S
H1285 C1297 0.950 . S
H1286 C1294 0.950 . S
H1287 C1296 0.950 . S
H1288 C1298 0.950 . S
H1289 C1300 0.950 . S
H1290 C1302 0.950 . S
H1291 C1303 0.950 . S
C1292 H1284 0.950 . S
C1292 C1293 1.386 . S
C1292 C1294 1.391 . S
C1293 C1292 1.386 . S
C1293 C1297 1.393 . S
C1294 H1286 0.950 . S
C1294 C1292 1.391 . S
C1294 C1295 1.400 . S
C1295 C1294 1.400 . S
C1295 C1296 1.398 . S
C1295 C1301 1.491 . S
C1296 H1287 0.950 . S
C1296 C1295 1.398 . S
C1296 C1297 1.391 . S
C1297 H1285 0.950 . S
C1297 C1293 1.393 . S
C1297 C1296 1.391 . S
C1298 H1288 0.950 . S
C1298 C1299 1.386 . S
C1298 C1300 1.391 . S
C1299 C1298 1.386 . S
C1299 C1303 1.393 . S
C1300 H1289 0.950 . S
C1300 C1298 1.391 . S
C1300 C1301 1.400 . S
C1301 C1295 1.491 . S
C1301 C1300 1.400 . S
C1301 C1302 1.398 . S
C1302 H1290 0.950 . S
C1302 C1301 1.398 . S
C1302 C1303 1.391 . S
C1303 H1291 0.950 . S
C1303 C1299 1.393 . S
C1303 C1302 1.391 . S
H1304 C1312 0.950 . S
H1305 C1317 0.950 . S
H1306 C1314 0.950 . S
H1307 C1316 0.950 . S
H1308 C1318 0.950 . S
H1309 C1320 0.950 . S
H1310 C1322 0.950 . S
H1311 C1323 0.950 . S
C1312 H1304 0.950 . S
C1312 C1313 1.386 . S
C1312 C1314 1.391 . S
C1313 C1312 1.386 . S
C1313 C1317 1.393 . S
C1314 H1306 0.950 . S
C1314 C1312 1.391 . S
C1314 C1315 1.400 . S
C1315 C1314 1.400 . S
C1315 C1316 1.398 . S
C1315 C1321 1.491 . S
C1316 H1307 0.950 . S
C1316 C1315 1.398 . S
C1316 C1317 1.391 . S
C1317 H1305 0.950 . S
C1317 C1313 1.393 . S
C1317 C1316 1.391 . S
C1318 H1308 0.950 . S
C1318 C1319 1.386 . S
C1318 C1320 1.391 . S
C1319 C1318 1.386 . S
C1319 C1323 1.393 . S
C1320 H1309 0.950 . S
C1320 C1318 1.391 . S
C1320 C1321 1.400 . S
C1321 C1315 1.491 . S
C1321 C1320 1.400 . S
C1321 C1322 1.398 . S
C1322 H1310 0.950 . S
C1322 C1321 1.398 . S
C1322 C1323 1.391 . S
C1323 H1311 0.950 . S
C1323 C1319 1.393 . S
C1323 C1322 1.391 . S
H1324 C1332 0.950 . S
H1325 C1337 0.950 . S
H1326 C1334 0.950 . S
H1327 C1336 0.950 . S
H1328 C1338 0.950 . S
H1329 C1340 0.950 . S
H1330 C1342 0.950 . S
H1331 C1343 0.950 . S
C1332 H1324 0.950 . S
C1332 C1333 1.386 . S
C1332 C1334 1.391 . S
C1333 C1332 1.386 . S
C1333 C1337 1.393 . S
C1334 H1326 0.950 . S
C1334 C1332 1.391 . S
C1334 C1335 1.400 . S
C1335 C1334 1.400 . S
C1335 C1336 1.398 . S
C1335 C1341 1.491 . S
C1336 H1327 0.950 . S
C1336 C1335 1.398 . S
C1336 C1337 1.391 . S
C1337 H1325 0.950 . S
C1337 C1333 1.393 . S
C1337 C1336 1.391 . S
C1338 H1328 0.950 . S
C1338 C1339 1.386 . S
C1338 C1340 1.391 . S
C1339 C1338 1.386 . S
C1339 C1343 1.393 . S
C1340 H1329 0.950 . S
C1340 C1338 1.391 . S
C1340 C1341 1.400 . S
C1341 C1335 1.491 . S
C1341 C1340 1.400 . S
C1341 C1342 1.398 . S
C1342 H1330 0.950 . S
C1342 C1341 1.398 . S
C1342 C1343 1.391 . S
C1343 H1331 0.950 . S
C1343 C1339 1.393 . S
C1343 C1342 1.391 . S
C553 C5 0.716 . S
C559 C277 0.716 . S
C573 C311 0.733 . S
C579 C39 0.733 . S
C593 C73 0.715 . S
C599 C345 0.715 . S
C613 C107 0.733 . S
C619 C379 0.733 . S
C633 C141 0.727 . S
C639 C413 0.727 . S
C653 C447 0.748 . S
C659 C175 0.748 . S
C673 C481 0.756 . S
C679 C209 0.756 . S
C693 C243 0.761 . S
C699 C515 0.761 . S
C713 C9 1.277 . S
C719 C145 1.251 . S
C733 C43 1.264 . S
C739 C179 1.266 . S
C753 C77 1.264 . S
C759 C213 1.266 . S
C773 C111 1.277 . S
C779 C247 1.248 . S
C793 C417 1.257 . S
C799 C281 1.272 . S
C813 C451 1.250 . S
C819 C315 1.278 . S
C833 C485 1.247 . S
C839 C349 1.279 . S
C853 C383 1.265 . S
C859 C519 1.258 . S
C873 C2 2.077 . S
C879 C240 2.094 . S
C893 C138 2.092 . S
C899 C36 2.079 . S
C913 C172 2.091 . S
C919 C70 2.081 . S
C933 C104 2.092 . S
C939 C206 2.077 . S
C953 C512 2.075 . S
C959 C274 2.096 . S
C973 C410 2.080 . S
C979 C308 2.092 . S
C993 C342 2.083 . S
C999 C444 2.089 . S
C1013 C376 2.092 . S
C1019 C478 2.077 . S
C1033 C543 1.359 . S
C1039 C20 1.316 . S
C1053 C54 1.313 . S
C1059 C441 1.360 . S
C1073 C88 1.294 . S
C1079 C475 1.363 . S
C1093 C509 1.364 . S
C1099 C122 1.295 . S
C1113 C156 1.294 . S
C1119 C339 1.363 . S
C1133 C190 1.325 . S
C1139 C373 1.351 . S
C1153 C407 1.357 . S
C1159 C224 1.299 . S
C1173 C258 1.309 . S
C1179 C305 1.352 . S
C1193 C292 1.322 . S
C1199 C271 1.356 . S
C1213 C169 1.364 . S
C1219 C326 1.301 . S
C1233 C360 1.300 . S
C1239 C203 1.364 . S
C1253 C237 1.360 . S
C1259 C394 1.295 . S
C1273 C428 1.317 . S
C1279 C67 1.358 . S
C1293 C101 1.364 . S
C1299 C462 1.300 . S
C1313 C135 1.360 . S
C1319 C496 1.313 . S
C1333 C33 1.351 . S
C1339 C530 1.324 . S
