# Generated by pormake.
# Topology wjm, (5)-cn, num edge types: 1
# Building blocks:
#     Node 0, Type 0, BuildingBlock: XOMCOT_clean_sbu_1, # of connection points: 5
#     Node 1, Type 0, BuildingBlock: XOMCOT_clean_sbu_1, # of connection points: 5
#     Node 2, Type 0, BuildingBlock: XOMCOT_clean_sbu_1, # of connection points: 5
#     Node 3, Type 0, BuildingBlock: XOMCOT_clean_sbu_1, # of connection points: 5
#     Node 4, Type 0, BuildingBlock: XOMCOT_clean_sbu_1, # of connection points: 5
#     Node 5, Type 0, BuildingBlock: XOMCOT_clean_sbu_1, # of connection points: 5
#     Node 6, Type 0, BuildingBlock: XOMCOT_clean_sbu_1, # of connection points: 5
#     Node 7, Type 0, BuildingBlock: XOMCOT_clean_sbu_1, # of connection points: 5
#     Node 8, Type 0, BuildingBlock: XOMCOT_clean_sbu_1, # of connection points: 5
#     Node 9, Type 0, BuildingBlock: XOMCOT_clean_sbu_1, # of connection points: 5
#     Node 10, Type 0, BuildingBlock: XOMCOT_clean_sbu_1, # of connection points: 5
#     Node 11, Type 0, BuildingBlock: XOMCOT_clean_sbu_1, # of connection points: 5
#     Edge 12, Type (0, 0), BuildingBlock: XIVTED_clean_linker_0, # of connection points: 2
#     Edge 13, Type (0, 0), BuildingBlock: XIVTED_clean_linker_0, # of connection points: 2
#     Edge 14, Type (0, 0), BuildingBlock: XIVTED_clean_linker_0, # of connection points: 2
#     Edge 15, Type (0, 0), BuildingBlock: XIVTED_clean_linker_0, # of connection points: 2
#     Edge 16, Type (0, 0), BuildingBlock: XIVTED_clean_linker_0, # of connection points: 2
#     Edge 17, Type (0, 0), BuildingBlock: XIVTED_clean_linker_0, # of connection points: 2
#     Edge 18, Type (0, 0), BuildingBlock: XIVTED_clean_linker_0, # of connection points: 2
#     Edge 19, Type (0, 0), BuildingBlock: XIVTED_clean_linker_0, # of connection points: 2
#     Edge 20, Type (0, 0), BuildingBlock: XIVTED_clean_linker_0, # of connection points: 2
#     Edge 21, Type (0, 0), BuildingBlock: XIVTED_clean_linker_0, # of connection points: 2
#     Edge 22, Type (0, 0), BuildingBlock: XIVTED_clean_linker_0, # of connection points: 2
#     Edge 23, Type (0, 0), BuildingBlock: XIVTED_clean_linker_0, # of connection points: 2
#     Edge 24, Type (0, 0), BuildingBlock: XIVTED_clean_linker_0, # of connection points: 2
#     Edge 25, Type (0, 0), BuildingBlock: XIVTED_clean_linker_0, # of connection points: 2
#     Edge 26, Type (0, 0), BuildingBlock: XIVTED_clean_linker_0, # of connection points: 2
#     Edge 27, Type (0, 0), BuildingBlock: XIVTED_clean_linker_0, # of connection points: 2
#     Edge 28, Type (0, 0), BuildingBlock: XIVTED_clean_linker_0, # of connection points: 2
#     Edge 29, Type (0, 0), BuildingBlock: XIVTED_clean_linker_0, # of connection points: 2
#     Edge 30, Type (0, 0), BuildingBlock: XIVTED_clean_linker_0, # of connection points: 2
#     Edge 31, Type (0, 0), BuildingBlock: XIVTED_clean_linker_0, # of connection points: 2
#     Edge 32, Type (0, 0), BuildingBlock: XIVTED_clean_linker_0, # of connection points: 2
#     Edge 33, Type (0, 0), BuildingBlock: XIVTED_clean_linker_0, # of connection points: 2
#     Edge 34, Type (0, 0), BuildingBlock: XIVTED_clean_linker_0, # of connection points: 2
#     Edge 35, Type (0, 0), BuildingBlock: XIVTED_clean_linker_0, # of connection points: 2
#     Edge 36, Type (0, 0), BuildingBlock: XIVTED_clean_linker_0, # of connection points: 2
#     Edge 37, Type (0, 0), BuildingBlock: XIVTED_clean_linker_0, # of connection points: 2
#     Edge 38, Type (0, 0), BuildingBlock: XIVTED_clean_linker_0, # of connection points: 2
#     Edge 39, Type (0, 0), BuildingBlock: XIVTED_clean_linker_0, # of connection points: 2
#     Edge 40, Type (0, 0), BuildingBlock: XIVTED_clean_linker_0, # of connection points: 2
#     Edge 41, Type (0, 0), BuildingBlock: XIVTED_clean_linker_0, # of connection points: 2
# Relax obj value: 0.686
# Max RMSD: 0.275
# Mean RMSD: 0.275
data_MOF--net-wjm--node1-XOMCOT_clean_sbu_1--edge1-XIVTED_clean_linker_0
_symmetry_space_group_name_H-M    P1
_symmetry_Int_Tables_number       1
_symmetry_cell_setting            triclinic
loop_
_symmetry_equiv_pos_as_xyz
'x, y, z'
_cell_length_a     32.872733
_cell_length_b     32.865829
_cell_length_c     41.526121
_cell_angle_alpha  89.972801
_cell_angle_beta   90.128219
_cell_angle_gamma 119.98779
loop_
_atom_site_label
_atom_site_type_symbol
_atom_site_fract_x
_atom_site_fract_y
_atom_site_fract_z
_atom_type_partial_charge
C0 C 0.32336 0.52298 0.21034 0.0
C1 C 0.35145 0.55603 0.23266 0.0
N2 N 0.34215 0.5353 0.26181 0.0
N3 N 0.29658 0.48163 0.22534 0.0
C4 C 0.30833 0.49034 0.25674 0.0
H5 H 0.3239 0.52812 0.18458 0.0
Co6 Co 0.25716 0.42592 0.20395 0.0
C7 C 0.26377 0.35569 0.24788 0.0
O8 O 0.27298 0.33906 0.22183 0.0
N9 N 0.21571 0.36993 0.18034 0.0
C10 C 0.17355 0.29736 0.15999 0.0
C11 C 0.1905 0.32373 0.18791 0.0
C12 C 0.20898 0.37025 0.1482 0.0
N13 N 0.18648 0.3271 0.13489 0.0
O14 O 0.2051 0.43589 0.21499 0.0
H15 H 0.18589 0.30946 0.2119 0.0
H16 H 0.22159 0.40183 0.1341 0.0
O17 O 0.25305 0.3884 0.24471 0.0
C18 C 0.20482 0.46203 0.19196 0.0
O19 O 0.23171 0.46831 0.16697 0.0
N20 N 0.31142 0.42465 0.18971 0.0
C21 C 0.40331 0.4783 0.1684 0.0
C22 C 0.39427 0.4624 0.20027 0.0
C23 C 0.34789 0.43541 0.21052 0.0
C24 C 0.32066 0.43441 0.1577 0.0
C25 C 0.36633 0.46036 0.14642 0.0
H26 H 0.34224 0.43081 0.23613 0.0
H27 H 0.29408 0.43044 0.14124 0.0
H28 H 0.29352 0.46397 0.27541 0.0
H29 H 0.3784 0.5918 0.22754 0.0
H30 H 0.1557 0.25944 0.15823 0.0
H31 H 0.42232 0.47552 0.21794 0.0
H32 H 0.37185 0.47233 0.12165 0.0
C33 C 0.87162 0.3131 0.53488 0.0
C34 C 0.87286 0.34649 0.55539 0.0
N35 N 0.85935 0.32701 0.5848 0.0
N36 N 0.85768 0.27293 0.55137 0.0
C37 C 0.8502 0.28234 0.58166 0.0
H38 H 0.88011 0.31758 0.5095 0.0
Co39 Co 0.84748 0.21676 0.53368 0.0
C40 C 0.90256 0.19589 0.5829 0.0
O41 O 0.92309 0.1874 0.55883 0.0
N42 N 0.83433 0.15979 0.51335 0.0
C43 C 0.8385 0.10279 0.48713 0.0
C44 C 0.8444 0.12485 0.51665 0.0
C45 C 0.81765 0.15442 0.48299 0.0
N46 N 0.82322 0.1229 0.4656 0.0
O47 O 0.78016 0.18839 0.54444 0.0
H48 H 0.85822 0.11752 0.53804 0.0
H49 H 0.80822 0.17852 0.47244 0.0
O50 O 0.86695 0.20133 0.57688 0.0
C51 C 0.76128 0.20201 0.52295 0.0
O52 O 0.789 0.23174 0.50102 0.0
N53 N 0.91179 0.24748 0.5196 0.0
C54 C 0.99972 0.3102 0.49377 0.0
C55 C 0.99072 0.31136 0.52668 0.0
C56 C 0.94655 0.28015 0.53897 0.0
C57 C 0.92205 0.24326 0.48829 0.0
C58 C 0.96605 0.27322 0.47523 0.0
H59 H 0.93928 0.28513 0.56356 0.0
H60 H 0.89577 0.21998 0.47183 0.0
H61 H 0.83702 0.25652 0.60077 0.0
H62 H 0.88309 0.38232 0.54915 0.0
H63 H 0.84913 0.07733 0.4814 0.0
H64 H 0.01525 0.33958 0.54212 0.0
H65 H 0.97157 0.27085 0.44974 0.0
C66 C 0.48723 0.79554 0.87184 0.0
C67 C 0.45447 0.79227 0.89374 0.0
N68 N 0.47568 0.80634 0.92265 0.0
N69 N 0.52892 0.81183 0.88682 0.0
C70 C 0.52067 0.81745 0.91787 0.0
H71 H 0.4816 0.78847 0.8463 0.0
Co72 Co 0.58446 0.82803 0.86538 0.0
C73 C 0.65543 0.90572 0.90838 0.0
O74 O 0.67181 0.93098 0.88207 0.0
N75 N 0.64051 0.84285 0.84183 0.0
C76 C 0.71366 0.87302 0.8227 0.0
C77 C 0.68636 0.86238 0.85019 0.0
C78 C 0.64121 0.83785 0.80953 0.0
N79 N 0.68478 0.85837 0.79705 0.0
O80 O 0.57549 0.76669 0.8772 0.0
H81 H 0.69978 0.87025 0.87451 0.0
H82 H 0.61024 0.81961 0.79475 0.0
O83 O 0.62235 0.8624 0.9057 0.0
C84 C 0.55041 0.7398 0.85401 0.0
O85 O 0.54496 0.75987 0.82831 0.0
N86 N 0.58465 0.88261 0.85037 0.0
C87 C 0.53431 0.92423 0.828 0.0
C88 C 0.55085 0.93162 0.85975 0.0
C89 C 0.57601 0.91041 0.87056 0.0
C90 C 0.57254 0.87956 0.81862 0.0
C91 C 0.54875 0.90129 0.80672 0.0
H92 H 0.58132 0.91044 0.89617 0.0
H93 H 0.57271 0.85365 0.80333 0.0
H94 H 0.54763 0.83211 0.93621 0.0
H95 H 0.41818 0.78147 0.88856 0.0
H96 H 0.75164 0.8923 0.82167 0.0
H97 H 0.53972 0.94885 0.87697 0.0
H98 H 0.53538 0.89364 0.78227 0.0
C99 C 0.69981 0.56089 0.20082 0.0
C100 C 0.66708 0.52864 0.22159 0.0
N101 N 0.6881 0.53286 0.25029 0.0
N102 N 0.74108 0.58553 0.21647 0.0
C103 C 0.73301 0.56754 0.24646 0.0
H104 H 0.69416 0.56593 0.17581 0.0
Co105 Co 0.79714 0.63049 0.19823 0.0
C106 C 0.82266 0.70668 0.24768 0.0
O107 O 0.83262 0.73622 0.2237 0.0
N108 N 0.85382 0.67308 0.17738 0.0
C109 C 0.91214 0.73289 0.1511 0.0
C110 C 0.89098 0.71687 0.18086 0.0
C111 C 0.8569 0.66189 0.1466 0.0
N112 N 0.88923 0.69844 0.12925 0.0
O113 O 0.82404 0.58973 0.20767 0.0
H114 H 0.90066 0.73742 0.20267 0.0
H115 H 0.83084 0.62921 0.13597 0.0
O116 O 0.81502 0.66486 0.24151 0.0
C117 C 0.80904 0.55712 0.18621 0.0
O118 O 0.77884 0.55576 0.16485 0.0
N119 N 0.76789 0.66642 0.18569 0.0
C120 C 0.71045 0.70095 0.16343 0.0
C121 C 0.70824 0.68686 0.19559 0.0
C122 C 0.73682 0.66945 0.20609 0.0
C123 C 0.77277 0.68366 0.15506 0.0
C124 C 0.7456 0.70233 0.14385 0.0
H125 H 0.73152 0.65546 0.23023 0.0
H126 H 0.79477 0.68026 0.13775 0.0
H127 H 0.76 0.57863 0.26474 0.0
H128 H 0.63071 0.50403 0.21595 0.0
H129 H 0.93915 0.76847 0.14558 0.0
H130 H 0.6813 0.68432 0.21178 0.0
H131 H 0.74882 0.71311 0.11889 0.0
C132 C 0.20202 0.68418 0.53852 0.0
C133 C 0.20257 0.65227 0.5596 0.0
N134 N 0.1954 0.6632 0.58954 0.0
N135 N 0.19448 0.71507 0.55502 0.0
C136 C 0.19124 0.70184 0.58612 0.0
H137 H 0.20508 0.68385 0.51261 0.0
Co138 Co 0.1855 0.76063 0.53515 0.0
C139 C 0.11756 0.76682 0.58168 0.0
O140 O 0.09077 0.76263 0.55694 0.0
N141 N 0.1784 0.8077 0.51274 0.0
C142 C 0.15532 0.8557 0.49186 0.0
C143 C 0.16223 0.83723 0.52002 0.0
C144 C 0.18589 0.81354 0.48065 0.0
N145 N 0.16916 0.8394 0.46696 0.0
O146 O 0.25063 0.80665 0.54591 0.0
H147 H 0.15391 0.84375 0.5439 0.0
H148 H 0.20155 0.79713 0.46687 0.0
O149 O 0.15754 0.76925 0.57677 0.0
C150 C 0.27534 0.80416 0.52282 0.0
O151 O 0.25292 0.77742 0.49806 0.0
N152 N 0.12551 0.71204 0.52134 0.0
C153 C 0.07354 0.62006 0.49989 0.0
C154 C 0.06977 0.63104 0.53189 0.0
C155 C 0.09632 0.67745 0.54225 0.0
C156 C 0.1229 0.70212 0.48921 0.0
C157 C 0.09619 0.6565 0.47784 0.0
H158 H 0.09947 0.68311 0.56786 0.0
H159 H 0.1476 0.7266 0.47259 0.0
H160 H 0.18361 0.71869 0.60566 0.0
H161 H 0.20695 0.62278 0.55321 0.0
H162 H 0.13854 0.87676 0.48983 0.0
H163 H 0.05232 0.60347 0.54964 0.0
H164 H 0.10033 0.64937 0.45295 0.0
C165 C 0.45295 0.14177 0.86541 0.0
C166 C 0.48543 0.13982 0.88536 0.0
N167 N 0.48078 0.15362 0.91503 0.0
N168 N 0.42792 0.15646 0.88256 0.0
C169 C 0.44586 0.16372 0.91256 0.0
H170 H 0.44797 0.13332 0.84001 0.0
Co171 Co 0.38185 0.16833 0.86718 0.0
C172 C 0.30807 0.11331 0.9176 0.0
O173 O 0.2776 0.09389 0.89403 0.0
N174 N 0.33748 0.18306 0.84986 0.0
C175 C 0.27606 0.18737 0.83099 0.0
C176 C 0.29481 0.177 0.85756 0.0
C177 C 0.34526 0.20117 0.81982 0.0
N178 N 0.3082 0.20248 0.80732 0.0
O179 O 0.42258 0.23504 0.87862 0.0
H180 H 0.2774 0.16472 0.88041 0.0
H181 H 0.37566 0.20808 0.80573 0.0
O182 O 0.34935 0.14812 0.91108 0.0
C183 C 0.45253 0.25345 0.85561 0.0
O184 O 0.45049 0.22558 0.83221 0.0
N185 N 0.34656 0.1049 0.85211 0.0
C186 C 0.3156 0.01663 0.82448 0.0
C187 C 0.32748 0.02447 0.85726 0.0
C188 C 0.34351 0.06883 0.87039 0.0
C189 C 0.33172 0.09655 0.82075 0.0
C190 C 0.31497 0.05248 0.80678 0.0
H191 H 0.35686 0.07492 0.89476 0.0
H192 H 0.33637 0.12439 0.80505 0.0
H193 H 0.43445 0.17758 0.93198 0.0
H194 H 0.51038 0.12901 0.87856 0.0
H195 H 0.24117 0.18274 0.82888 0.0
H196 H 0.32975 0.99842 0.87192 0.0
H197 H 0.30642 0.0481 0.78135 0.0
C198 C 0.57844 0.69116 0.5021 0.0
C199 C 0.54377 0.65747 0.48294 0.0
N200 N 0.54557 0.67677 0.45395 0.0
N201 N 0.6023 0.73119 0.48504 0.0
C202 C 0.58139 0.72146 0.45593 0.0
H203 H 0.58516 0.68723 0.52709 0.0
Co204 Co 0.64856 0.78904 0.50036 0.0
C205 C 0.72197 0.80837 0.44961 0.0
O206 O 0.75263 0.8193 0.47303 0.0
N207 N 0.69273 0.84786 0.51785 0.0
C208 C 0.75332 0.91299 0.53808 0.0
C209 C 0.73576 0.88459 0.51107 0.0
C210 C 0.68369 0.8573 0.54777 0.0
N211 N 0.72013 0.89536 0.56105 0.0
O212 O 0.60778 0.81514 0.4892 0.0
H213 H 0.75425 0.89021 0.48864 0.0
H214 H 0.65286 0.83326 0.56128 0.0
O215 O 0.68065 0.80168 0.4563 0.0
C216 C 0.57708 0.80325 0.51172 0.0
O217 O 0.57788 0.77655 0.53499 0.0
N218 N 0.68436 0.76105 0.51488 0.0
C219 C 0.71975 0.70629 0.54079 0.0
C220 C 0.70505 0.70101 0.50853 0.0
C221 C 0.68695 0.72807 0.49629 0.0
C222 C 0.70151 0.76863 0.54568 0.0
C223 C 0.72047 0.74264 0.55874 0.0
H224 H 0.67225 0.72026 0.47228 0.0
H225 H 0.6977 0.7921 0.56163 0.0
H226 H 0.59177 0.74711 0.4368 0.0
H227 H 0.51812 0.62218 0.49023 0.0
H228 H 0.78813 0.94314 0.54097 0.0
H229 H 0.70263 0.67288 0.49361 0.0
H230 H 0.73133 0.748 0.58375 0.0
C231 C 0.82898 0.50528 0.83078 0.0
C232 C 0.82516 0.47019 0.81087 0.0
N233 N 0.83088 0.48571 0.78026 0.0
N234 N 0.83708 0.54276 0.81283 0.0
C235 C 0.8375 0.52964 0.78213 0.0
H236 H 0.82712 0.50407 0.85679 0.0
Co237 Co 0.84685 0.59913 0.82992 0.0
C238 C 0.91632 0.66848 0.78177 0.0
O239 O 0.94351 0.69188 0.80616 0.0
N240 N 0.85437 0.65514 0.84921 0.0
C241 C 0.87612 0.72764 0.86665 0.0
C242 C 0.87242 0.70052 0.84009 0.0
C243 C 0.84312 0.65542 0.88047 0.0
N244 N 0.85756 0.69875 0.89197 0.0
O245 O 0.78187 0.5797 0.81815 0.0
H246 H 0.88317 0.71389 0.81603 0.0
H247 H 0.8274 0.62456 0.89557 0.0
O248 O 0.8756 0.63216 0.78728 0.0
C249 C 0.75682 0.55377 0.84165 0.0
O250 O 0.77892 0.55063 0.86706 0.0
N251 N 0.90649 0.61114 0.8451 0.0
C252 C 0.95271 0.56764 0.87082 0.0
C253 C 0.95778 0.57961 0.83815 0.0
C254 C 0.93413 0.60136 0.82563 0.0
C255 C 0.90953 0.60805 0.87776 0.0
C256 C 0.93285 0.5866 0.89121 0.0
H257 H 0.93121 0.60157 0.79979 0.0
H258 H 0.88763 0.61405 0.89371 0.0
H259 H 0.84419 0.55242 0.76164 0.0
H260 H 0.8192 0.43614 0.81846 0.0
H261 H 0.89191 0.76547 0.86742 0.0
H262 H 0.97347 0.56578 0.82171 0.0
H263 H 0.92847 0.57822 0.91667 0.0
C264 C 0.32532 0.87365 0.17019 0.0
C265 C 0.35816 0.87359 0.14971 0.0
N266 N 0.33883 0.86124 0.12012 0.0
N267 N 0.28571 0.8617 0.15346 0.0
C268 C 0.29485 0.85403 0.12317 0.0
H269 H 0.32976 0.88152 0.19568 0.0
Co270 Co 0.22927 0.85293 0.16961 0.0
C271 C 0.21483 0.91334 0.12079 0.0
O272 O 0.20755 0.93458 0.14503 0.0
N273 N 0.17151 0.84131 0.18753 0.0
C274 C 0.11019 0.84414 0.20786 0.0
C275 C 0.13784 0.85229 0.18084 0.0
C276 C 0.16037 0.82234 0.2173 0.0
N277 N 0.1249 0.8255 0.23077 0.0
O278 O 0.19947 0.78625 0.15697 0.0
H279 H 0.13418 0.86699 0.15857 0.0
H280 H 0.18216 0.81231 0.23074 0.0
O281 O 0.21816 0.87638 0.12642 0.0
C282 C 0.2097 0.76585 0.17945 0.0
O283 O 0.23663 0.79223 0.20307 0.0
N284 N 0.26107 0.91582 0.18601 0.0
C285 C 0.32137 1.00214 0.21532 0.0
C286 C 0.32529 0.99513 0.18237 0.0
C287 C 0.29538 0.95172 0.16838 0.0
C288 C 0.25542 0.92331 0.21769 0.0
C289 C 0.28414 0.96643 0.23247 0.0
H290 H 0.302 0.94612 0.14376 0.0
H291 H 0.2316 0.89532 0.23298 0.0
H292 H 0.26909 0.84182 0.10398 0.0
H293 H 0.39343 0.88198 0.15615 0.0
H294 H 0.08302 0.85326 0.21093 0.0
H295 H 0.35422 0.02103 0.16811 0.0
H296 H 0.28004 0.97007 0.25801 0.0
C297 C 0.5288 0.31436 0.49568 0.0
C298 C 0.56313 0.34217 0.4741 0.0
N299 N 0.54275 0.3377 0.44513 0.0
N300 N 0.48698 0.29266 0.48044 0.0
C301 C 0.49663 0.30698 0.44955 0.0
H302 H 0.53362 0.31167 0.5212 0.0
Co303 Co 0.43051 0.25703 0.50183 0.0
C304 C 0.36315 0.26958 0.45863 0.0
O305 O 0.34933 0.28143 0.4849 0.0
N306 N 0.37353 0.21932 0.52556 0.0
C307 C 0.30037 0.18142 0.54537 0.0
C308 C 0.32734 0.19619 0.51763 0.0
C309 C 0.37291 0.21349 0.55786 0.0
N310 N 0.32964 0.19357 0.57073 0.0
O311 O 0.43463 0.20172 0.4904 0.0
H312 H 0.31359 0.19163 0.49345 0.0
H313 H 0.40381 0.22421 0.57241 0.0
O314 O 0.39377 0.25594 0.46129 0.0
C315 C 0.45845 0.19759 0.51354 0.0
O316 O 0.46516 0.22289 0.53953 0.0
N317 N 0.43518 0.31402 0.51631 0.0
C318 C 0.49601 0.40514 0.53701 0.0
C319 C 0.47871 0.39688 0.50545 0.0
C320 C 0.44788 0.35091 0.49555 0.0
C321 C 0.44755 0.32305 0.54803 0.0
C322 C 0.47691 0.36839 0.55905 0.0
H323 H 0.44143 0.34519 0.47006 0.0
H324 H 0.44297 0.29587 0.5641 0.0
H325 H 0.4701 0.29755 0.43113 0.0
H326 H 0.59999 0.36484 0.47954 0.0
H327 H 0.26258 0.16557 0.5468 0.0
H328 H 0.49301 0.42477 0.48771 0.0
H329 H 0.49021 0.37336 0.5835 0.0
C330 C 0.14054 0.44876 0.83736 0.0
C331 C 0.13986 0.48147 0.81703 0.0
N332 N 0.1504 0.47374 0.78712 0.0
N333 N 0.15118 0.42047 0.82026 0.0
C334 C 0.15726 0.43668 0.78982 0.0
H335 H 0.13408 0.44588 0.86302 0.0
Co336 Co 0.1601 0.37286 0.83659 0.0
C337 C 0.09814 0.29685 0.78894 0.0
O338 O 0.07793 0.26915 0.81372 0.0
N339 N 0.1719 0.32685 0.85481 0.0
C340 C 0.17076 0.26348 0.87535 0.0
C341 C 0.16127 0.28223 0.8484 0.0
C342 C 0.1918 0.33535 0.88436 0.0
N343 N 0.18978 0.29725 0.89796 0.0
O344 O 0.22628 0.40896 0.82304 0.0
H345 H 0.14618 0.26348 0.8263 0.0
H346 H 0.20222 0.36745 0.89752 0.0
O347 O 0.13513 0.33737 0.79385 0.0
C348 C 0.24737 0.43992 0.84522 0.0
O349 O 0.22173 0.44101 0.86907 0.0
N350 N 0.09791 0.34282 0.85387 0.0
C351 C 0.01579 0.32611 0.88509 0.0
C352 C 0.02017 0.33219 0.85156 0.0
C353 C 0.06164 0.34117 0.83655 0.0
C354 C 0.09206 0.33258 0.88605 0.0
C355 C 0.05091 0.32288 0.90189 0.0
H356 H 0.06609 0.3512 0.81147 0.0
H357 H 0.12045 0.33645 0.90087 0.0
H358 H 0.16806 0.4225 0.77024 0.0
H359 H 0.13221 0.50874 0.82376 0.0
H360 H 0.16257 0.22748 0.87853 0.0
H361 H 0.99451 0.33595 0.83744 0.0
H362 H 0.04905 0.31844 0.9278 0.0
C363 C 0.697 0.20094 0.16049 0.0
C364 C 0.66737 0.20601 0.13963 0.0
N365 N 0.67416 0.19422 0.10986 0.0
N366 N 0.72221 0.18585 0.14399 0.0
C367 C 0.70806 0.18275 0.11312 0.0
H368 H 0.69896 0.20631 0.18627 0.0
Co369 Co 0.76391 0.17035 0.16298 0.0
C370 C 0.7511 0.09135 0.11875 0.0
O371 O 0.74232 0.06569 0.14487 0.0
N372 N 0.80791 0.15696 0.18392 0.0
C373 C 0.85094 0.12645 0.20246 0.0
C374 C 0.82942 0.13247 0.17566 0.0
C375 C 0.82116 0.16908 0.21494 0.0
N376 N 0.84531 0.1495 0.22718 0.0
O377 O 0.81441 0.23183 0.14927 0.0
H378 H 0.82899 0.11864 0.15204 0.0
H379 H 0.81028 0.18919 0.22945 0.0
O380 O 0.7636 0.13527 0.12185 0.0
C381 C 0.81692 0.25974 0.17194 0.0
O382 O 0.79259 0.24086 0.19821 0.0
N383 N 0.71162 0.11541 0.18011 0.0
C384 C 0.62367 0.08205 0.20714 0.0
C385 C 0.62777 0.07395 0.17457 0.0
C386 C 0.67227 0.09056 0.16146 0.0
C387 C 0.70695 0.11589 0.2128 0.0
C388 C 0.66309 0.09897 0.2269 0.0
H389 H 0.67462 0.09079 0.13556 0.0
H390 H 0.73644 0.13607 0.22808 0.0
H391 H 0.72059 0.17005 0.09368 0.0
H392 H 0.64216 0.21665 0.14604 0.0
H393 H 0.86831 0.10588 0.20384 0.0
H394 H 0.59761 0.06053 0.15866 0.0
H395 H 0.66105 0.10565 0.25223 0.0
H396 H 0.65294 0.73218 0.18831 0.0
H397 H 0.45659 0.49683 0.11382 0.0
H398 H 0.6704 0.66436 0.10475 0.0
H399 H 0.44642 0.55932 0.2026 0.0
H400 H 0.52587 0.57162 0.09934 0.0
H401 H 0.56821 0.68803 0.17983 0.0
C402 C 0.63921 0.70949 0.16744 0.0
C403 C 0.66847 0.69924 0.14874 0.0
C404 C 0.50821 0.56903 0.12187 0.0
C405 C 0.57229 0.64846 0.13922 0.0
C406 C 0.46921 0.52624 0.1303 0.0
C407 C 0.44714 0.52148 0.16001 0.0
C408 C 0.52511 0.60715 0.14336 0.0
C409 C 0.46381 0.56092 0.18013 0.0
C410 C 0.59077 0.68399 0.16272 0.0
C411 C 0.64914 0.6717 0.12095 0.0
N412 N 0.50213 0.60192 0.1716 0.0
N413 N 0.60192 0.64561 0.11777 0.0
H414 H 0.08961 0.37392 0.51379 0.0
H415 H 0.0333 0.56499 0.4464 0.0
H416 H 0.9897 0.34846 0.43786 0.0
H417 H 0.10863 0.57447 0.53392 0.0
H418 H 0.037 0.49463 0.43133 0.0
H419 H 0.12264 0.45818 0.50586 0.0
C420 C 0.07587 0.38594 0.49457 0.0
C421 C 0.03494 0.35422 0.47797 0.0
C422 C 0.05289 0.5124 0.45374 0.0
C423 C 0.07159 0.44977 0.46924 0.0
C424 C 0.05004 0.55187 0.46254 0.0
C425 C 0.06908 0.57434 0.49196 0.0
C426 C 0.07541 0.49587 0.47439 0.0
C427 C 0.09179 0.55706 0.51163 0.0
C428 C 0.0944 0.43403 0.49024 0.0
C429 C 0.02 0.37157 0.4523 0.0
N430 N 0.09407 0.51874 0.50257 0.0
N431 N 0.0371 0.41839 0.44956 0.0
H432 H 0.28142 0.92479 0.84354 0.0
H433 H 0.52009 0.96286 0.77361 0.0
H434 H 0.35952 0.02205 0.76741 0.0
H435 H 0.45322 0.88995 0.86135 0.0
H436 H 0.44763 0.96245 0.75848 0.0
H437 H 0.32569 0.88454 0.834 0.0
C438 C 0.30639 0.93648 0.82391 0.0
C439 C 0.31905 0.97867 0.80778 0.0
C440 C 0.4488 0.94623 0.78091 0.0
C441 C 0.37001 0.9337 0.79717 0.0
C442 C 0.49023 0.94716 0.78972 0.0
C443 C 0.49304 0.92823 0.81933 0.0
C444 C 0.41004 0.92589 0.8018 0.0
C445 C 0.45309 0.90682 0.83896 0.0
C446 C 0.33197 0.91377 0.81865 0.0
C447 C 0.34997 0.9909 0.78155 0.0
N448 N 0.41338 0.90662 0.82998 0.0
N449 N 0.37593 0.96967 0.77789 0.0
H450 H 0.6853 0.67033 0.60073 0.0
H451 H 0.57709 0.44145 0.50325 0.0
H452 H 0.75277 0.64861 0.51882 0.0
H453 H 0.51784 0.46138 0.59031 0.0
H454 H 0.65296 0.50847 0.51769 0.0
H455 H 0.64283 0.58678 0.61019 0.0
C456 C 0.69305 0.64843 0.58542 0.0
C457 C 0.71978 0.66617 0.55719 0.0
C458 C 0.62358 0.49811 0.53384 0.0
C459 C 0.66941 0.57021 0.56724 0.0
C460 C 0.58004 0.46053 0.52523 0.0
C461 C 0.54088 0.44742 0.54497 0.0
C462 C 0.62785 0.52327 0.56217 0.0
C463 C 0.547 0.4715 0.574 0.0
C464 C 0.66795 0.60019 0.59066 0.0
C465 C 0.72975 0.63585 0.53951 0.0
N466 N 0.58954 0.50888 0.58146 0.0
N467 N 0.70265 0.5888 0.54376 0.0
H468 H 0.03604 0.38238 0.93815 0.0
H469 H 0.91013 0.48365 0.84092 0.0
H470 H 0.92399 0.30046 0.87106 0.0
H471 H 0.99184 0.55339 0.92544 0.0
H472 H 0.90333 0.41057 0.85915 0.0
H473 H 1.00488 0.43451 0.94569 0.0
C474 C 1.00347 0.37377 0.92608 0.0
C475 C 0.98411 0.33853 0.90235 0.0
C476 C 0.92254 0.44158 0.87399 0.0
C477 C 0.9495 0.39939 0.91011 0.0
C478 C 0.92724 0.48363 0.86321 0.0
C479 C 0.95303 0.52492 0.88116 0.0
C480 C 0.94479 0.44078 0.90264 0.0
C481 C 0.97282 0.52247 0.91051 0.0
C482 C 0.98598 0.40421 0.93017 0.0
C483 C 0.94138 0.32877 0.8883 0.0
N484 N 0.96912 0.48116 0.92007 0.0
N485 N 0.92646 0.36029 0.89135 0.0
H486 H 0.35816 0.99481 0.27287 0.0
H487 H 0.58876 0.1328 0.18014 0.0
H488 H 0.38079 0.09417 0.19734 0.0
H489 H 0.56936 0.04232 0.26082 0.0
H490 H 0.52174 0.13926 0.19779 0.0
H491 H 0.44151 0.03575 0.28374 0.0
C492 C 0.38021 0.02656 0.25941 0.0
C493 C 0.36282 0.0393 0.2326 0.0
C494 C 0.53218 0.11829 0.21193 0.0
C495 C 0.45862 0.08491 0.24416 0.0
C496 C 0.56991 0.11393 0.20151 0.0
C497 C 0.58293 0.08519 0.21829 0.0
C498 C 0.50646 0.09275 0.23892 0.0
C499 C 0.55912 0.06344 0.24668 0.0
C500 C 0.42827 0.0497 0.26546 0.0
C501 C 0.39325 0.08156 0.21698 0.0
N502 N 0.52118 0.06675 0.25573 0.0
N503 N 0.44017 0.10185 0.22203 0.0
H504 H 0.12261 0.24996 0.10081 0.0
H505 H 0.26128 0.35761 0.93537 0.0
H506 H 0.25346 0.38042 0.09159 0.0
H507 H 0.12884 0.22841 0.93814 0.0
H508 H 0.26226 0.36005 0.99411 0.0
H509 H 0.12608 0.23563 0.04274 0.0
C510 C 0.15194 0.27548 0.08666 0.0
C511 C 0.1872 0.31695 0.10104 0.0
C512 C 0.23315 0.33066 0.98209 0.0
C513 C 0.19181 0.30064 0.035 0.0
C514 C 0.23291 0.32916 0.94855 0.0
C515 C 0.19515 0.29271 0.93199 0.0
C516 C 0.19486 0.29578 0.99947 0.0
C517 C 0.1589 0.2568 0.95011 0.0
C518 C 0.15397 0.26732 0.05359 0.0
C519 C 0.22467 0.34867 0.08159 0.0
N520 N 0.15928 0.25953 0.98293 0.0
N521 N 0.22584 0.3399 0.04982 0.0
H522 H 0.87554 0.21956 0.27039 0.0
H523 H 0.81668 0.05337 0.42563 0.0
H524 H 0.83116 0.07267 0.26129 0.0
H525 H 0.84315 0.19603 0.42532 0.0
H526 H 0.82905 0.05907 0.36674 0.0
H527 H 0.87389 0.21191 0.3288 0.0
C528 C 0.86616 0.1858 0.28084 0.0
C529 C 0.85338 0.14676 0.26105 0.0
C530 C 0.83194 0.08889 0.37982 0.0
C531 C 0.85009 0.13702 0.32823 0.0
C532 C 0.8248 0.08563 0.41338 0.0
C533 C 0.82798 0.12385 0.43081 0.0
C534 C 0.84298 0.13091 0.36375 0.0
C535 C 0.83894 0.16493 0.41349 0.0
C536 C 0.86487 0.18123 0.31422 0.0
C537 C 0.84161 0.1037 0.27579 0.0
N538 N 0.84601 0.16721 0.38128 0.0
N539 N 0.83965 0.09977 0.30858 0.0
H540 H 0.76203 0.87061 0.76381 0.0
H541 H 0.65889 0.90584 0.59749 0.0
H542 H 0.63423 0.87604 0.75367 0.0
H543 H 0.78872 0.90402 0.60183 0.0
H544 H 0.65541 0.90405 0.6562 0.0
H545 H 0.77802 0.88991 0.70605 0.0
C546 C 0.73747 0.87589 0.74953 0.0
C547 C 0.69618 0.87057 0.7635 0.0
C548 C 0.68522 0.90481 0.64456 0.0
C549 C 0.71437 0.89314 0.69782 0.0
C550 C 0.68732 0.90632 0.61105 0.0
C551 C 0.7243 0.90558 0.59497 0.0
C552 C 0.71995 0.90155 0.66237 0.0
C553 C 0.76003 0.90539 0.61349 0.0
C554 C 0.74658 0.88693 0.71663 0.0
C555 C 0.66573 0.87823 0.74391 0.0
N556 N 0.75667 0.90268 0.64628 0.0
N557 N 0.67535 0.88887 0.7123 0.0
H558 H 0.95892 0.75994 0.08886 0.0
H559 H 0.78822 0.65815 0.93517 0.0
H560 H 0.81353 0.64965 0.08991 0.0
H561 H 0.93424 0.76242 0.92549 0.0
H562 H 0.7968 0.6635 0.99357 0.0
H563 H 0.95167 0.76854 0.03034 0.0
C564 C 0.92573 0.73749 0.07698 0.0
C565 C 0.8872 0.70343 0.09464 0.0
C566 C 0.82707 0.68583 0.9789 0.0
C567 C 0.87842 0.71358 0.02805 0.0
C568 C 0.8219 0.68299 0.94557 0.0
C569 C 0.86042 0.71 0.92567 0.0
C570 C 0.87147 0.71536 0.9927 0.0
C571 C 0.90359 0.74146 0.94019 0.0
C572 C 0.92157 0.74249 0.04365 0.0
C573 C 0.84489 0.67557 0.07783 0.0
N574 N 0.90821 0.74286 0.97292 0.0
N575 N 0.84184 0.68132 0.04583 0.0
H576 H 0.16033 0.90525 0.4318 0.0
H577 H 0.1106 0.75443 0.26961 0.0
H578 H 0.14891 0.76895 0.42476 0.0
H579 H 0.12385 0.89146 0.26961 0.0
H580 H 0.11511 0.75675 0.3283 0.0
H581 H 0.13992 0.89996 0.37405 0.0
C582 C 0.15364 0.87438 0.41824 0.0
C583 C 0.15746 0.83803 0.43317 0.0
C584 C 0.11634 0.7862 0.31571 0.0
C585 C 0.13347 0.83135 0.36752 0.0
C586 C 0.11327 0.78452 0.28222 0.0
C587 C 0.11642 0.82251 0.26491 0.0
C588 C 0.12356 0.82668 0.33223 0.0
C589 C 0.12056 0.86115 0.28224 0.0
C590 C 0.14193 0.87132 0.38535 0.0
C591 C 0.14794 0.7986 0.41443 0.0
N592 N 0.12469 0.8626 0.315 0.0
N593 N 0.1366 0.79648 0.38286 0.0
H594 H 0.3685 0.27247 0.76922 0.0
H595 H 0.25288 0.13143 0.60567 0.0
H596 H 0.2365 0.14279 0.7684 0.0
H597 H 0.38339 0.26266 0.61252 0.0
H598 H 0.24036 0.13684 0.66385 0.0
H599 H 0.36828 0.27282 0.71046 0.0
C600 C 0.33887 0.24466 0.75646 0.0
C601 C 0.30236 0.20786 0.77352 0.0
C602 C 0.2716 0.16445 0.65245 0.0
C603 C 0.30237 0.20665 0.70604 0.0
C604 C 0.2787 0.16132 0.61933 0.0
C605 C 0.31975 0.19604 0.60436 0.0
C606 C 0.3056 0.20284 0.67043 0.0
C607 C 0.35194 0.23429 0.62311 0.0
C608 C 0.33882 0.2445 0.7229 0.0
C609 C 0.26494 0.17214 0.75598 0.0
N610 N 0.34426 0.23648 0.65494 0.0
N611 N 0.26619 0.172 0.72311 0.0
H612 H 0.38128 0.25229 0.39563 0.0
H613 H 0.25764 0.38437 0.31038 0.0
H614 H 0.30873 0.30984 0.44843 0.0
H615 H 0.2958 0.29436 0.25897 0.0
H616 H 0.28104 0.36233 0.36105 0.0
H617 H 0.35561 0.27216 0.345 0.0
C618 C 0.35988 0.26879 0.39672 0.0
C619 C 0.34714 0.27892 0.42671 0.0
C620 C 0.28406 0.34727 0.33862 0.0
C621 C 0.3181 0.30273 0.36853 0.0
C622 C 0.2705 0.35981 0.30962 0.0
C623 C 0.27427 0.34121 0.28 0.0
C624 C 0.30224 0.31634 0.3382 0.0
C625 C 0.29186 0.30975 0.28093 0.0
C626 C 0.34522 0.28025 0.36775 0.0
C627 C 0.31951 0.30088 0.42619 0.0
N628 N 0.30528 0.29868 0.30921 0.0
N629 N 0.30631 0.31212 0.39789 0.0
H630 H 0.9974 0.23686 0.59003 0.0
H631 H 1.0044 0.23564 0.7812 0.0
H632 H 0.87273 0.19574 0.64633 0.0
H633 H 0.12649 0.33013 0.72589 0.0
H634 H 0.95675 0.21452 0.73245 0.0
H635 H 0.04493 0.26461 0.63884 0.0
C636 C 0.9797 0.23322 0.61271 0.0
C637 C 0.93038 0.213 0.61378 0.0
C638 C 0.99389 0.23989 0.73085 0.0
C639 C 0.98582 0.24516 0.67058 0.0
C640 C 0.02158 0.25188 0.75877 0.0
C641 C 0.07023 0.28454 0.75799 0.0
C642 C 0.01456 0.25973 0.70121 0.0
C643 C 0.08947 0.30461 0.7279 0.0
C644 C 1.00725 0.2496 0.64065 0.0
C645 C 0.91032 0.21058 0.64412 0.0
N646 N 0.0618 0.29146 0.70077 0.0
N647 N 0.93795 0.22578 0.67126 0.0
H648 H 0.63064 0.87108 0.97116 0.0
H649 H 0.76287 0.12686 0.05594 0.0
H650 H 0.71511 0.99964 0.91864 0.0
H651 H 0.71245 0.99701 0.10825 0.0
H652 H 0.7404 0.08143 1.00524 0.0
H653 H 0.65484 0.9167 0.02169 0.0
C654 C 0.65439 0.90865 0.97013 0.0
C655 C 0.67088 0.93108 0.94026 0.0
C656 C 0.73445 0.063 0.02789 0.0
C657 C 0.69822 0.98407 0.99829 0.0
C658 C 0.7474 0.08905 0.0569 0.0
C659 C 0.74005 0.06619 0.08675 0.0
C660 C 0.71327 0.01351 0.02858 0.0
C661 C 0.71928 0.01672 0.0861 0.0
C662 C 0.66818 0.93483 0.99905 0.0
C663 C 0.70141 0.98028 0.94082 0.0
N664 N 0.70656 0.99235 0.05781 0.0
N665 N 0.71372 1.00486 0.96905 0.0
H666 H 0.69415 0.81082 0.38613 0.0
H667 H 0.81109 0.66766 0.30943 0.0
H668 H 0.77213 0.76347 0.44329 0.0
H669 H 0.79503 0.77162 0.2563 0.0
H670 H 0.78307 0.68939 0.35821 0.0
H671 H 0.71639 0.78331 0.33732 0.0
C672 C 0.71561 0.79451 0.38851 0.0
C673 C 0.73183 0.79034 0.41898 0.0
C674 C 0.78579 0.70736 0.33576 0.0
C675 C 0.75654 0.75761 0.36328 0.0
C676 C 0.80191 0.69499 0.30792 0.0
C677 C 0.80656 0.71832 0.27859 0.0
C678 C 0.7728 0.74232 0.33415 0.0
C679 C 0.79319 0.75308 0.27829 0.0
C680 C 0.72843 0.77886 0.36065 0.0
C681 C 0.75941 0.76841 0.42038 0.0
N682 N 0.77685 0.76369 0.30531 0.0
N683 N 0.77062 0.75284 0.39321 0.0
H684 H 0.92642 0.61116 0.73774 0.0
H685 H 0.07603 0.81203 0.60928 0.0
H686 H 0.96089 0.75447 0.75302 0.0
H687 H 0.10344 0.69876 0.62654 0.0
H688 H 0.02444 0.78743 0.65665 0.0
H689 H 0.97915 0.63682 0.69061 0.0
C690 C 0.94381 0.64773 0.7306 0.0
C691 C 0.9383 0.68053 0.74905 0.0
C692 C 0.04221 0.76829 0.65037 0.0
C693 C 0.9995 0.71035 0.69537 0.0
C694 C 0.07211 0.78264 0.6235 0.0
C695 C 0.0953 0.75834 0.61427 0.0
C696 C 0.03363 0.728 0.66769 0.0
C697 C 0.08745 0.71943 0.63313 0.0
C698 C 0.97459 0.6625 0.70402 0.0
C699 C 0.96331 0.72782 0.73921 0.0
N700 N 0.05689 0.70512 0.65857 0.0
N701 N 0.99236 0.74118 0.71309 0.0
H702 H 0.20645 0.88172 0.05711 0.0
H703 H 0.35082 0.14055 0.97836 0.0
H704 H 0.26242 0.00835 0.11382 0.0
H705 H 0.24195 0.02133 0.92731 0.0
H706 H 0.33101 0.0912 0.02724 0.0
H707 H 0.23175 0.93071 1.00787 0.0
C708 C 0.22418 0.9196 0.05929 0.0
C709 C 0.23143 0.94062 0.08981 0.0
C710 C 0.31153 0.07603 1.00524 0.0
C711 C 0.26157 0.99714 0.03356 0.0
C712 C 0.3228 0.10429 0.97733 0.0
C713 C 0.2976 0.08574 0.94855 0.0
C714 C 0.27569 0.02839 1.00425 0.0
C715 C 0.262 0.03792 0.94886 0.0
C716 C 0.23855 0.94764 0.03119 0.0
C717 C 0.25508 0.99023 0.09093 0.0
N718 N 0.25242 0.01116 0.97594 0.0
N719 N 0.26931 0.01653 0.06349 0.0
H720 H 0.38627 0.62693 0.27931 0.0
H721 H 0.49559 0.58389 0.43931 0.0
H722 H 0.35667 0.48985 0.3113 0.0
H723 H 0.52287 0.72035 0.40759 0.0
H724 H 0.44219 0.54822 0.39371 0.0
H725 H 0.43433 0.66144 0.32734 0.0
C726 C 0.3898 0.6041 0.29648 0.0
C727 C 0.36754 0.55549 0.29121 0.0
C728 C 0.45985 0.58598 0.39677 0.0
C729 C 0.42242 0.59465 0.34631 0.0
C730 C 0.49021 0.60634 0.42286 0.0
C731 C 0.514 0.65523 0.42721 0.0
C732 C 0.45318 0.61472 0.37486 0.0
C733 C 0.50604 0.68264 0.40492 0.0
C734 C 0.41712 0.62377 0.32396 0.0
C735 C 0.37275 0.52743 0.31451 0.0
N736 N 0.47637 0.66201 0.37972 0.0
N737 N 0.39988 0.54746 0.34096 0.0
H738 H 0.8679 0.3063 0.64678 0.0
H739 H 0.81367 0.50016 0.71851 0.0
H740 H 0.8399 0.39795 0.58805 0.0
H741 H 0.8537 0.41698 0.77682 0.0
H742 H 0.82034 0.46115 0.67051 0.0
H743 H 0.85946 0.34408 0.69495 0.0
C744 C 0.85971 0.33419 0.64403 0.0
C745 C 0.85459 0.349 0.61336 0.0
C746 C 0.82758 0.45138 0.69383 0.0
C747 C 0.84522 0.39263 0.66831 0.0
C748 C 0.82396 0.4738 0.72126 0.0
C749 C 0.83311 0.46188 0.75181 0.0
C750 C 0.84041 0.41672 0.69694 0.0
C751 C 0.84561 0.42687 0.75388 0.0
C752 C 0.85516 0.35593 0.67152 0.0
C753 C 0.84472 0.38581 0.61119 0.0
N754 N 0.84895 0.40559 0.72681 0.0
N755 N 0.84027 0.40631 0.6383 0.0
H756 H 0.31696 0.86871 0.05821 0.0
H757 H 0.50256 0.80453 0.98424 0.0
H758 H 0.40858 0.83983 0.11637 0.0
H759 H 0.40459 0.82546 0.92725 0.0
H760 H 0.47052 0.81963 0.03296 0.0
H761 H 0.35048 0.85514 1.0099 0.0
C762 C 0.34398 0.8593 0.06085 0.0
C763 C 0.35972 0.85508 0.09144 0.0
C764 C 0.45596 0.82078 1.00978 0.0
C765 C 0.39868 0.83991 0.03612 0.0
C766 C 0.47435 0.81232 0.98197 0.0
C767 C 0.4561 0.81351 0.95162 0.0
C768 C 0.41919 0.83071 1.00721 0.0
C769 C 0.41922 0.82336 0.95012 0.0
C770 C 0.36329 0.85176 0.03323 0.0
C771 C 0.39562 0.84383 0.09332 0.0
N772 N 0.40207 0.83165 0.97751 0.0
N773 N 0.41379 0.83648 0.06603 0.0
H774 H 0.71502 0.55803 0.31232 0.0
H775 H 0.51524 0.31231 0.38325 0.0
H776 H 0.614 0.44394 0.25324 0.0
H777 H 0.61936 0.42492 0.44176 0.0
H778 H 0.55061 0.36005 0.33524 0.0
H779 H 0.68033 0.50969 0.36008 0.0
C780 C 0.68572 0.52274 0.30936 0.0
C781 C 0.66748 0.505 0.27869 0.0
C782 C 0.56582 0.37424 0.35859 0.0
C783 C 0.62727 0.44957 0.33331 0.0
C784 C 0.54553 0.34705 0.38599 0.0
C785 C 0.56444 0.36456 0.41655 0.0
C786 C 0.6052 0.41936 0.36178 0.0
C787 C 0.60406 0.40966 0.41868 0.0
C788 C 0.66576 0.49521 0.33666 0.0
C789 C 0.62887 0.45928 0.27639 0.0
N790 N 0.62303 0.43553 0.39168 0.0
N791 N 0.61009 0.43313 0.30332 0.0
H792 H 0.13737 0.44294 0.72537 0.0
H793 H 0.20904 0.69489 0.65128 0.0
H794 H 0.17433 0.56557 0.78337 0.0
H795 H 0.16604 0.57012 0.59418 0.0
H796 H 0.19633 0.64838 0.70004 0.0
H797 H 0.14799 0.48934 0.67698 0.0
C798 C 0.14791 0.47969 0.72792 0.0
C799 C 0.15518 0.50044 0.75847 0.0
C800 C 0.18975 0.63123 0.67681 0.0
C801 C 0.16709 0.5538 0.70316 0.0
C802 C 0.19685 0.65775 0.64896 0.0
C803 C 0.18889 0.63652 0.61852 0.0
C804 C 0.17454 0.5831 0.67422 0.0
C805 C 0.17353 0.58827 0.61702 0.0
C806 C 0.15372 0.50613 0.70029 0.0
C807 C 0.16793 0.54802 0.76035 0.0
N808 N 0.16689 0.56326 0.64444 0.0
N809 N 0.17366 0.57314 0.73306 0.0
H810 H 0.45361 0.14735 0.97726 0.0
H811 H 0.70202 0.19981 0.0477 0.0
H812 H 0.57043 0.1703 0.91748 0.0
H813 H 0.58465 0.17757 0.10664 0.0
H814 H 0.65456 0.18871 0.99962 0.0
H815 H 0.50131 0.15804 0.02495 0.0
C816 C 0.48939 0.15487 0.97415 0.0
C817 C 0.50814 0.15823 0.9433 0.0
C818 C 0.63926 0.18639 0.02309 0.0
C819 C 0.56293 0.1701 0.99787 0.0
C820 C 0.66629 0.19257 0.05055 0.0
C821 C 0.64736 0.18973 0.08128 0.0
C822 C 0.59291 0.1772 0.02638 0.0
C823 C 0.60101 0.18082 0.0835 0.0
C824 C 0.51657 0.16074 1.00141 0.0
C825 C 0.55443 0.16703 0.94076 0.0
N826 N 0.57538 0.17479 0.05644 0.0
N827 N 0.58031 0.17282 0.96771 0.0
H828 H 0.18197 0.69942 0.12983 0.0
H829 H 0.2006 0.51176 0.24449 0.0
H830 H 0.20266 0.71498 0.23264 0.0
H831 H 0.16866 0.48899 0.14321 0.0
H832 H 0.1916 0.58165 0.24175 0.0
H833 H 0.16831 0.61859 0.13462 0.0
C834 C 0.18284 0.68572 0.15339 0.0
C835 C 0.19394 0.71446 0.18076 0.0
C836 C 0.18549 0.56077 0.22023 0.0
C837 C 0.17882 0.62209 0.18653 0.0
C838 C 0.18988 0.52031 0.222 0.0
C839 C 0.18495 0.49405 0.19415 0.0
C840 C 0.1765 0.5754 0.19034 0.0
C841 C 0.17256 0.50801 0.16536 0.0
C842 C 0.17529 0.63961 0.15617 0.0
C843 C 0.19489 0.69462 0.2107 0.0
N844 N 0.16941 0.54779 0.1641 0.0
N845 N 0.18793 0.65025 0.21271 0.0
H846 H 0.47985 0.1531 0.55976 0.0
H847 H 0.71362 0.19944 0.46907 0.0
H848 H 0.51181 0.19981 0.46141 0.0
H849 H 0.69173 0.16959 0.57069 0.0
H850 H 0.63411 0.18591 0.46407 0.0
H851 H 0.54935 0.1441 0.56167 0.0
C852 C 0.50057 0.1598 0.53809 0.0
C853 C 0.48941 0.17671 0.51022 0.0
C854 C 0.64624 0.18182 0.48747 0.0
C855 C 0.57057 0.16792 0.51264 0.0
C856 C 0.69191 0.18956 0.49045 0.0
C857 C 0.70999 0.18617 0.5205 0.0
C858 C 0.61759 0.17063 0.51474 0.0
C859 C 0.67953 0.1726 0.54706 0.0
C860 C 0.5407 0.15523 0.53939 0.0
C861 C 0.51824 0.18573 0.48317 0.0
N862 N 0.63506 0.16585 0.54362 0.0
N863 N 0.5577 0.18181 0.48521 0.0
H864 H 0.31202 0.47852 0.79474 0.0
H865 H 0.50171 0.6867 0.9071 0.0
H866 H 0.29992 0.48372 0.89784 0.0
H867 H 0.52247 0.67581 0.80577 0.0
H868 H 0.43218 0.60753 0.90523 0.0
H869 H 0.39274 0.54606 0.79858 0.0
C870 C 0.32648 0.49316 0.81815 0.0
C871 C 0.29874 0.47547 0.84591 0.0
C872 C 0.45253 0.62202 0.88351 0.0
C873 C 0.39093 0.55318 0.85058 0.0
C874 C 0.49276 0.66705 0.88477 0.0
C875 C 0.51832 0.68797 0.85664 0.0
C876 C 0.43743 0.59782 0.85386 0.0
C877 C 0.50394 0.66109 0.82811 0.0
C878 C 0.37251 0.53195 0.82039 0.0
C879 C 0.31951 0.49637 0.87564 0.0
N880 N 0.46437 0.61799 0.82734 0.0
N881 N 0.36376 0.53403 0.87713 0.0
H882 H 0.84873 0.52468 0.23217 0.0
H883 H 0.81138 0.30883 0.1196 0.0
H884 H 0.80227 0.50574 0.1333 0.0
H885 H 0.86081 0.32679 0.21754 0.0
H886 H 0.81889 0.38708 0.12192 0.0
H887 H 0.86287 0.45799 0.22589 0.0
C888 C 0.8421 0.50708 0.20911 0.0
C889 C 0.82377 0.52079 0.18341 0.0
C890 C 0.82919 0.37443 0.14271 0.0
C891 C 0.83972 0.44427 0.17594 0.0
C892 C 0.82568 0.32997 0.14111 0.0
C893 C 0.83601 0.3113 0.16825 0.0
C894 C 0.84278 0.40037 0.17174 0.0
C895 C 0.85279 0.3399 0.19593 0.0
C896 C 0.85002 0.46885 0.2055 0.0
C897 C 0.81576 0.49629 0.15405 0.0
N898 N 0.85506 0.38245 0.19712 0.0
N899 N 0.82342 0.45941 0.15124 0.0
H900 H 0.53414 0.80961 0.56552 0.0
H901 H 0.33589 0.83724 0.47271 0.0
H902 H 0.53508 0.82828 0.4627 0.0
H903 H 0.33186 0.81 0.57445 0.0
H904 H 0.41435 0.84654 0.46989 0.0
H905 H 0.46683 0.82119 0.56997 0.0
C906 C 0.52047 0.81661 0.54375 0.0
C907 C 0.54041 0.81753 0.51357 0.0
C908 C 0.3969 0.83947 0.49299 0.0
C909 C 0.46205 0.83073 0.51868 0.0
C910 C 0.35214 0.83457 0.49474 0.0
C911 C 0.32714 0.82314 0.52396 0.0
C912 C 0.41724 0.83251 0.52064 0.0
C913 C 0.34991 0.81956 0.55154 0.0
C914 C 0.4818 0.82325 0.54641 0.0
C915 C 0.52114 0.82733 0.48645 0.0
N916 N 0.39332 0.82361 0.54912 0.0
N917 N 0.48277 0.83302 0.48961 0.0
H918 H 0.69613 0.52865 0.89155 0.0
H919 H 0.49501 0.30163 0.80134 0.0
H920 H 0.70017 0.50119 0.79054 0.0
H921 H 0.49643 0.32111 0.90409 0.0
H922 H 0.56319 0.37977 0.79609 0.0
H923 H 0.61738 0.46007 0.89508 0.0
C924 C 0.67986 0.50891 0.8698 0.0
C925 C 0.70495 0.52113 0.8406 0.0
C926 C 0.54857 0.3674 0.8198 0.0
C927 C 0.61442 0.44108 0.84476 0.0
C928 C 0.50938 0.32252 0.82294 0.0
C929 C 0.48981 0.30416 0.85334 0.0
C930 C 0.56921 0.39494 0.84727 0.0
C931 C 0.51004 0.33356 0.88019 0.0
C932 C 0.63492 0.46937 0.87197 0.0
C933 C 0.68209 0.49376 0.81341 0.0
N934 N 0.54886 0.37723 0.87656 0.0
N935 N 0.63845 0.4548 0.81625 0.0
loop_
_geom_bond_atom_site_label_1
_geom_bond_atom_site_label_2
_geom_bond_distance
_geom_bond_site_symmetry_2
_ccdc_geom_bond_type
C0 C1 1.351 . S
C0 N3 1.368 . S
C0 H5 0.931 . S
C1 C0 1.351 . S
C1 N2 1.373 . S
C1 H29 0.930 . S
N2 C1 1.373 . S
N2 C4 1.340 . S
N3 C0 1.368 . S
N3 C4 1.321 . S
N3 Co6 2.135 . S
C4 N2 1.340 . S
C4 N3 1.321 . S
C4 H28 0.930 . S
H5 C0 0.931 . S
Co6 N3 2.135 . S
Co6 N9 2.121 . S
Co6 O14 2.055 . S
Co6 O17 2.039 . S
Co6 N20 2.140 . S
C7 O8 1.227 . S
C7 O17 1.265 . S
O8 C7 1.227 . S
N9 Co6 2.121 . S
N9 C11 1.375 . S
N9 C12 1.313 . S
C10 C11 1.338 . S
C10 N13 1.377 . S
C10 H30 0.930 . S
C11 N9 1.375 . S
C11 C10 1.338 . S
C11 H15 0.931 . S
C12 N9 1.313 . S
C12 N13 1.344 . S
C12 H16 0.930 . S
N13 C10 1.377 . S
N13 C12 1.344 . S
O14 Co6 2.055 . S
O14 C18 1.253 . S
H15 C11 0.931 . S
H16 C12 0.930 . S
O17 Co6 2.039 . S
O17 C7 1.265 . S
C18 O14 1.253 . S
C18 O19 1.227 . S
O19 C18 1.227 . S
N20 Co6 2.140 . S
N20 C23 1.346 . S
N20 C24 1.345 . S
C21 C22 1.387 . S
C21 C25 1.391 . S
C22 C21 1.387 . S
C22 C23 1.369 . S
C22 H31 0.929 . S
C23 N20 1.346 . S
C23 C22 1.369 . S
C23 H26 0.928 . S
C24 N20 1.345 . S
C24 C25 1.371 . S
C24 H27 0.931 . S
C25 C21 1.391 . S
C25 C24 1.371 . S
C25 H32 0.930 . S
H26 C23 0.928 . S
H27 C24 0.931 . S
H28 C4 0.930 . S
H29 C1 0.930 . S
H30 C10 0.930 . S
H31 C22 0.929 . S
H32 C25 0.930 . S
C33 C34 1.351 . S
C33 N36 1.368 . S
C33 H38 0.931 . S
C34 C33 1.351 . S
C34 N35 1.373 . S
C34 H62 0.930 . S
N35 C34 1.373 . S
N35 C37 1.340 . S
N36 C33 1.368 . S
N36 C37 1.321 . S
N36 Co39 2.135 . S
C37 N35 1.340 . S
C37 N36 1.321 . S
C37 H61 0.930 . S
H38 C33 0.931 . S
Co39 N36 2.135 . S
Co39 N42 2.121 . S
Co39 O47 2.055 . S
Co39 O50 2.039 . S
Co39 N53 2.140 . S
C40 O41 1.227 . S
C40 O50 1.265 . S
O41 C40 1.227 . S
N42 Co39 2.121 . S
N42 C44 1.375 . S
N42 C45 1.313 . S
C43 C44 1.338 . S
C43 N46 1.377 . S
C43 H63 0.930 . S
C44 N42 1.375 . S
C44 C43 1.338 . S
C44 H48 0.931 . S
C45 N42 1.313 . S
C45 N46 1.344 . S
C45 H49 0.930 . S
N46 C43 1.377 . S
N46 C45 1.344 . S
O47 Co39 2.055 . S
O47 C51 1.253 . S
H48 C44 0.931 . S
H49 C45 0.930 . S
O50 Co39 2.039 . S
O50 C40 1.265 . S
C51 O47 1.253 . S
C51 O52 1.227 . S
O52 C51 1.227 . S
N53 Co39 2.140 . S
N53 C56 1.346 . S
N53 C57 1.345 . S
C54 C55 1.387 . S
C54 C58 1.391 . S
C55 C54 1.387 . S
C55 C56 1.369 . S
C55 H64 0.929 . S
C56 N53 1.346 . S
C56 C55 1.369 . S
C56 H59 0.928 . S
C57 N53 1.345 . S
C57 C58 1.371 . S
C57 H60 0.931 . S
C58 C54 1.391 . S
C58 C57 1.371 . S
C58 H65 0.930 . S
H59 C56 0.928 . S
H60 C57 0.931 . S
H61 C37 0.930 . S
H62 C34 0.930 . S
H63 C43 0.930 . S
H64 C55 0.929 . S
H65 C58 0.930 . S
C66 C67 1.351 . S
C66 N69 1.368 . S
C66 H71 0.931 . S
C67 C66 1.351 . S
C67 N68 1.373 . S
C67 H95 0.930 . S
N68 C67 1.373 . S
N68 C70 1.340 . S
N69 C66 1.368 . S
N69 C70 1.321 . S
N69 Co72 2.135 . S
C70 N68 1.340 . S
C70 N69 1.321 . S
C70 H94 0.930 . S
H71 C66 0.931 . S
Co72 N69 2.135 . S
Co72 N75 2.121 . S
Co72 O80 2.055 . S
Co72 O83 2.039 . S
Co72 N86 2.140 . S
C73 O74 1.227 . S
C73 O83 1.265 . S
O74 C73 1.227 . S
N75 Co72 2.121 . S
N75 C77 1.375 . S
N75 C78 1.313 . S
C76 C77 1.338 . S
C76 N79 1.377 . S
C76 H96 0.930 . S
C77 N75 1.375 . S
C77 C76 1.338 . S
C77 H81 0.931 . S
C78 N75 1.313 . S
C78 N79 1.344 . S
C78 H82 0.930 . S
N79 C76 1.377 . S
N79 C78 1.344 . S
O80 Co72 2.055 . S
O80 C84 1.253 . S
H81 C77 0.931 . S
H82 C78 0.930 . S
O83 Co72 2.039 . S
O83 C73 1.265 . S
C84 O80 1.253 . S
C84 O85 1.227 . S
O85 C84 1.227 . S
N86 Co72 2.140 . S
N86 C89 1.346 . S
N86 C90 1.345 . S
C87 C88 1.387 . S
C87 C91 1.391 . S
C88 C87 1.387 . S
C88 C89 1.369 . S
C88 H97 0.929 . S
C89 N86 1.346 . S
C89 C88 1.369 . S
C89 H92 0.928 . S
C90 N86 1.345 . S
C90 C91 1.371 . S
C90 H93 0.931 . S
C91 C87 1.391 . S
C91 C90 1.371 . S
C91 H98 0.930 . S
H92 C89 0.928 . S
H93 C90 0.931 . S
H94 C70 0.930 . S
H95 C67 0.930 . S
H96 C76 0.930 . S
H97 C88 0.929 . S
H98 C91 0.930 . S
C99 C100 1.351 . S
C99 N102 1.368 . S
C99 H104 0.931 . S
C100 C99 1.351 . S
C100 N101 1.373 . S
C100 H128 0.930 . S
N101 C100 1.373 . S
N101 C103 1.340 . S
N102 C99 1.368 . S
N102 C103 1.321 . S
N102 Co105 2.135 . S
C103 N101 1.340 . S
C103 N102 1.321 . S
C103 H127 0.930 . S
H104 C99 0.931 . S
Co105 N102 2.135 . S
Co105 N108 2.121 . S
Co105 O113 2.055 . S
Co105 O116 2.039 . S
Co105 N119 2.140 . S
C106 O107 1.227 . S
C106 O116 1.265 . S
O107 C106 1.227 . S
N108 Co105 2.121 . S
N108 C110 1.375 . S
N108 C111 1.313 . S
C109 C110 1.338 . S
C109 N112 1.377 . S
C109 H129 0.930 . S
C110 N108 1.375 . S
C110 C109 1.338 . S
C110 H114 0.931 . S
C111 N108 1.313 . S
C111 N112 1.344 . S
C111 H115 0.930 . S
N112 C109 1.377 . S
N112 C111 1.344 . S
O113 Co105 2.055 . S
O113 C117 1.253 . S
H114 C110 0.931 . S
H115 C111 0.930 . S
O116 Co105 2.039 . S
O116 C106 1.265 . S
C117 O113 1.253 . S
C117 O118 1.227 . S
O118 C117 1.227 . S
N119 Co105 2.140 . S
N119 C122 1.346 . S
N119 C123 1.345 . S
C120 C121 1.387 . S
C120 C124 1.391 . S
C121 C120 1.387 . S
C121 C122 1.369 . S
C121 H130 0.929 . S
C122 N119 1.346 . S
C122 C121 1.369 . S
C122 H125 0.928 . S
C123 N119 1.345 . S
C123 C124 1.371 . S
C123 H126 0.931 . S
C124 C120 1.391 . S
C124 C123 1.371 . S
C124 H131 0.930 . S
H125 C122 0.928 . S
H126 C123 0.931 . S
H127 C103 0.930 . S
H128 C100 0.930 . S
H129 C109 0.930 . S
H130 C121 0.929 . S
H131 C124 0.930 . S
C132 C133 1.351 . S
C132 N135 1.368 . S
C132 H137 0.931 . S
C133 C132 1.351 . S
C133 N134 1.373 . S
C133 H161 0.930 . S
N134 C133 1.373 . S
N134 C136 1.340 . S
N135 C132 1.368 . S
N135 C136 1.321 . S
N135 Co138 2.135 . S
C136 N134 1.340 . S
C136 N135 1.321 . S
C136 H160 0.930 . S
H137 C132 0.931 . S
Co138 N135 2.135 . S
Co138 N141 2.121 . S
Co138 O146 2.055 . S
Co138 O149 2.039 . S
Co138 N152 2.140 . S
C139 O140 1.227 . S
C139 O149 1.265 . S
O140 C139 1.227 . S
N141 Co138 2.121 . S
N141 C143 1.375 . S
N141 C144 1.313 . S
C142 C143 1.338 . S
C142 N145 1.377 . S
C142 H162 0.930 . S
C143 N141 1.375 . S
C143 C142 1.338 . S
C143 H147 0.931 . S
C144 N141 1.313 . S
C144 N145 1.344 . S
C144 H148 0.930 . S
N145 C142 1.377 . S
N145 C144 1.344 . S
O146 Co138 2.055 . S
O146 C150 1.253 . S
H147 C143 0.931 . S
H148 C144 0.930 . S
O149 Co138 2.039 . S
O149 C139 1.265 . S
C150 O146 1.253 . S
C150 O151 1.227 . S
O151 C150 1.227 . S
N152 Co138 2.140 . S
N152 C155 1.346 . S
N152 C156 1.345 . S
C153 C154 1.387 . S
C153 C157 1.391 . S
C154 C153 1.387 . S
C154 C155 1.369 . S
C154 H163 0.929 . S
C155 N152 1.346 . S
C155 C154 1.369 . S
C155 H158 0.928 . S
C156 N152 1.345 . S
C156 C157 1.371 . S
C156 H159 0.931 . S
C157 C153 1.391 . S
C157 C156 1.371 . S
C157 H164 0.930 . S
H158 C155 0.928 . S
H159 C156 0.931 . S
H160 C136 0.930 . S
H161 C133 0.930 . S
H162 C142 0.930 . S
H163 C154 0.929 . S
H164 C157 0.930 . S
C165 C166 1.351 . S
C165 N168 1.368 . S
C165 H170 0.931 . S
C166 C165 1.351 . S
C166 N167 1.373 . S
C166 H194 0.930 . S
N167 C166 1.373 . S
N167 C169 1.340 . S
N168 C165 1.368 . S
N168 C169 1.321 . S
N168 Co171 2.135 . S
C169 N167 1.340 . S
C169 N168 1.321 . S
C169 H193 0.930 . S
H170 C165 0.931 . S
Co171 N168 2.135 . S
Co171 N174 2.121 . S
Co171 O179 2.055 . S
Co171 O182 2.039 . S
Co171 N185 2.140 . S
C172 O173 1.227 . S
C172 O182 1.265 . S
O173 C172 1.227 . S
N174 Co171 2.121 . S
N174 C176 1.375 . S
N174 C177 1.313 . S
C175 C176 1.338 . S
C175 N178 1.377 . S
C175 H195 0.930 . S
C176 N174 1.375 . S
C176 C175 1.338 . S
C176 H180 0.931 . S
C177 N174 1.313 . S
C177 N178 1.344 . S
C177 H181 0.930 . S
N178 C175 1.377 . S
N178 C177 1.344 . S
O179 Co171 2.055 . S
O179 C183 1.253 . S
H180 C176 0.931 . S
H181 C177 0.930 . S
O182 Co171 2.039 . S
O182 C172 1.265 . S
C183 O179 1.253 . S
C183 O184 1.227 . S
O184 C183 1.227 . S
N185 Co171 2.140 . S
N185 C188 1.346 . S
N185 C189 1.345 . S
C186 C187 1.387 . S
C186 C190 1.391 . S
C187 C186 1.387 . S
C187 C188 1.369 . S
C187 H196 0.929 . S
C188 N185 1.346 . S
C188 C187 1.369 . S
C188 H191 0.928 . S
C189 N185 1.345 . S
C189 C190 1.371 . S
C189 H192 0.931 . S
C190 C186 1.391 . S
C190 C189 1.371 . S
C190 H197 0.930 . S
H191 C188 0.928 . S
H192 C189 0.931 . S
H193 C169 0.930 . S
H194 C166 0.930 . S
H195 C175 0.930 . S
H196 C187 0.929 . S
H197 C190 0.930 . S
C198 C199 1.351 . S
C198 N201 1.368 . S
C198 H203 0.931 . S
C199 C198 1.351 . S
C199 N200 1.373 . S
C199 H227 0.930 . S
N200 C199 1.373 . S
N200 C202 1.340 . S
N201 C198 1.368 . S
N201 C202 1.321 . S
N201 Co204 2.135 . S
C202 N200 1.340 . S
C202 N201 1.321 . S
C202 H226 0.930 . S
H203 C198 0.931 . S
Co204 N201 2.135 . S
Co204 N207 2.121 . S
Co204 O212 2.055 . S
Co204 O215 2.039 . S
Co204 N218 2.140 . S
C205 O206 1.227 . S
C205 O215 1.265 . S
O206 C205 1.227 . S
N207 Co204 2.121 . S
N207 C209 1.375 . S
N207 C210 1.313 . S
C208 C209 1.338 . S
C208 N211 1.377 . S
C208 H228 0.930 . S
C209 N207 1.375 . S
C209 C208 1.338 . S
C209 H213 0.931 . S
C210 N207 1.313 . S
C210 N211 1.344 . S
C210 H214 0.930 . S
N211 C208 1.377 . S
N211 C210 1.344 . S
O212 Co204 2.055 . S
O212 C216 1.253 . S
H213 C209 0.931 . S
H214 C210 0.930 . S
O215 Co204 2.039 . S
O215 C205 1.265 . S
C216 O212 1.253 . S
C216 O217 1.227 . S
O217 C216 1.227 . S
N218 Co204 2.140 . S
N218 C221 1.346 . S
N218 C222 1.345 . S
C219 C220 1.387 . S
C219 C223 1.391 . S
C220 C219 1.387 . S
C220 C221 1.369 . S
C220 H229 0.929 . S
C221 N218 1.346 . S
C221 C220 1.369 . S
C221 H224 0.928 . S
C222 N218 1.345 . S
C222 C223 1.371 . S
C222 H225 0.931 . S
C223 C219 1.391 . S
C223 C222 1.371 . S
C223 H230 0.930 . S
H224 C221 0.928 . S
H225 C222 0.931 . S
H226 C202 0.930 . S
H227 C199 0.930 . S
H228 C208 0.930 . S
H229 C220 0.929 . S
H230 C223 0.930 . S
C231 C232 1.351 . S
C231 N234 1.368 . S
C231 H236 0.931 . S
C232 C231 1.351 . S
C232 N233 1.373 . S
C232 H260 0.930 . S
N233 C232 1.373 . S
N233 C235 1.340 . S
N234 C231 1.368 . S
N234 C235 1.321 . S
N234 Co237 2.135 . S
C235 N233 1.340 . S
C235 N234 1.321 . S
C235 H259 0.930 . S
H236 C231 0.931 . S
Co237 N234 2.135 . S
Co237 N240 2.121 . S
Co237 O245 2.055 . S
Co237 O248 2.039 . S
Co237 N251 2.140 . S
C238 O239 1.227 . S
C238 O248 1.265 . S
O239 C238 1.227 . S
N240 Co237 2.121 . S
N240 C242 1.375 . S
N240 C243 1.313 . S
C241 C242 1.338 . S
C241 N244 1.377 . S
C241 H261 0.930 . S
C242 N240 1.375 . S
C242 C241 1.338 . S
C242 H246 0.931 . S
C243 N240 1.313 . S
C243 N244 1.344 . S
C243 H247 0.930 . S
N244 C241 1.377 . S
N244 C243 1.344 . S
O245 Co237 2.055 . S
O245 C249 1.253 . S
H246 C242 0.931 . S
H247 C243 0.930 . S
O248 Co237 2.039 . S
O248 C238 1.265 . S
C249 O245 1.253 . S
C249 O250 1.227 . S
O250 C249 1.227 . S
N251 Co237 2.140 . S
N251 C254 1.346 . S
N251 C255 1.345 . S
C252 C253 1.387 . S
C252 C256 1.391 . S
C253 C252 1.387 . S
C253 C254 1.369 . S
C253 H262 0.929 . S
C254 N251 1.346 . S
C254 C253 1.369 . S
C254 H257 0.928 . S
C255 N251 1.345 . S
C255 C256 1.371 . S
C255 H258 0.931 . S
C256 C252 1.391 . S
C256 C255 1.371 . S
C256 H263 0.930 . S
H257 C254 0.928 . S
H258 C255 0.931 . S
H259 C235 0.930 . S
H260 C232 0.930 . S
H261 C241 0.930 . S
H262 C253 0.929 . S
H263 C256 0.930 . S
C264 C265 1.351 . S
C264 N267 1.368 . S
C264 H269 0.931 . S
C265 C264 1.351 . S
C265 N266 1.373 . S
C265 H293 0.930 . S
N266 C265 1.373 . S
N266 C268 1.340 . S
N267 C264 1.368 . S
N267 C268 1.321 . S
N267 Co270 2.135 . S
C268 N266 1.340 . S
C268 N267 1.321 . S
C268 H292 0.930 . S
H269 C264 0.931 . S
Co270 N267 2.135 . S
Co270 N273 2.121 . S
Co270 O278 2.055 . S
Co270 O281 2.039 . S
Co270 N284 2.140 . S
C271 O272 1.227 . S
C271 O281 1.265 . S
O272 C271 1.227 . S
N273 Co270 2.121 . S
N273 C275 1.375 . S
N273 C276 1.313 . S
C274 C275 1.338 . S
C274 N277 1.377 . S
C274 H294 0.930 . S
C275 N273 1.375 . S
C275 C274 1.338 . S
C275 H279 0.931 . S
C276 N273 1.313 . S
C276 N277 1.344 . S
C276 H280 0.930 . S
N277 C274 1.377 . S
N277 C276 1.344 . S
O278 Co270 2.055 . S
O278 C282 1.253 . S
H279 C275 0.931 . S
H280 C276 0.930 . S
O281 Co270 2.039 . S
O281 C271 1.265 . S
C282 O278 1.253 . S
C282 O283 1.227 . S
O283 C282 1.227 . S
N284 Co270 2.140 . S
N284 C287 1.346 . S
N284 C288 1.345 . S
C285 C286 1.387 . S
C285 C289 1.391 . S
C286 C285 1.387 . S
C286 C287 1.369 . S
C286 H295 0.929 . S
C287 N284 1.346 . S
C287 C286 1.369 . S
C287 H290 0.928 . S
C288 N284 1.345 . S
C288 C289 1.371 . S
C288 H291 0.931 . S
C289 C285 1.391 . S
C289 C288 1.371 . S
C289 H296 0.930 . S
H290 C287 0.928 . S
H291 C288 0.931 . S
H292 C268 0.930 . S
H293 C265 0.930 . S
H294 C274 0.930 . S
H295 C286 0.929 . S
H296 C289 0.930 . S
C297 C298 1.351 . S
C297 N300 1.368 . S
C297 H302 0.931 . S
C298 C297 1.351 . S
C298 N299 1.373 . S
C298 H326 0.930 . S
N299 C298 1.373 . S
N299 C301 1.340 . S
N300 C297 1.368 . S
N300 C301 1.321 . S
N300 Co303 2.135 . S
C301 N299 1.340 . S
C301 N300 1.321 . S
C301 H325 0.930 . S
H302 C297 0.931 . S
Co303 N300 2.135 . S
Co303 N306 2.121 . S
Co303 O311 2.055 . S
Co303 O314 2.039 . S
Co303 N317 2.140 . S
C304 O305 1.227 . S
C304 O314 1.265 . S
O305 C304 1.227 . S
N306 Co303 2.121 . S
N306 C308 1.375 . S
N306 C309 1.313 . S
C307 C308 1.338 . S
C307 N310 1.377 . S
C307 H327 0.930 . S
C308 N306 1.375 . S
C308 C307 1.338 . S
C308 H312 0.931 . S
C309 N306 1.313 . S
C309 N310 1.344 . S
C309 H313 0.930 . S
N310 C307 1.377 . S
N310 C309 1.344 . S
O311 Co303 2.055 . S
O311 C315 1.253 . S
H312 C308 0.931 . S
H313 C309 0.930 . S
O314 Co303 2.039 . S
O314 C304 1.265 . S
C315 O311 1.253 . S
C315 O316 1.227 . S
O316 C315 1.227 . S
N317 Co303 2.140 . S
N317 C320 1.346 . S
N317 C321 1.345 . S
C318 C319 1.387 . S
C318 C322 1.391 . S
C319 C318 1.387 . S
C319 C320 1.369 . S
C319 H328 0.929 . S
C320 N317 1.346 . S
C320 C319 1.369 . S
C320 H323 0.928 . S
C321 N317 1.345 . S
C321 C322 1.371 . S
C321 H324 0.931 . S
C322 C318 1.391 . S
C322 C321 1.371 . S
C322 H329 0.930 . S
H323 C320 0.928 . S
H324 C321 0.931 . S
H325 C301 0.930 . S
H326 C298 0.930 . S
H327 C307 0.930 . S
H328 C319 0.929 . S
H329 C322 0.930 . S
C330 C331 1.351 . S
C330 N333 1.368 . S
C330 H335 0.931 . S
C331 C330 1.351 . S
C331 N332 1.373 . S
C331 H359 0.930 . S
N332 C331 1.373 . S
N332 C334 1.340 . S
N333 C330 1.368 . S
N333 C334 1.321 . S
N333 Co336 2.135 . S
C334 N332 1.340 . S
C334 N333 1.321 . S
C334 H358 0.930 . S
H335 C330 0.931 . S
Co336 N333 2.135 . S
Co336 N339 2.121 . S
Co336 O344 2.055 . S
Co336 O347 2.039 . S
Co336 N350 2.140 . S
C337 O338 1.227 . S
C337 O347 1.265 . S
O338 C337 1.227 . S
N339 Co336 2.121 . S
N339 C341 1.375 . S
N339 C342 1.313 . S
C340 C341 1.338 . S
C340 N343 1.377 . S
C340 H360 0.930 . S
C341 N339 1.375 . S
C341 C340 1.338 . S
C341 H345 0.931 . S
C342 N339 1.313 . S
C342 N343 1.344 . S
C342 H346 0.930 . S
N343 C340 1.377 . S
N343 C342 1.344 . S
O344 Co336 2.055 . S
O344 C348 1.253 . S
H345 C341 0.931 . S
H346 C342 0.930 . S
O347 Co336 2.039 . S
O347 C337 1.265 . S
C348 O344 1.253 . S
C348 O349 1.227 . S
O349 C348 1.227 . S
N350 Co336 2.140 . S
N350 C353 1.346 . S
N350 C354 1.345 . S
C351 C352 1.387 . S
C351 C355 1.391 . S
C352 C351 1.387 . S
C352 C353 1.369 . S
C352 H361 0.929 . S
C353 N350 1.346 . S
C353 C352 1.369 . S
C353 H356 0.928 . S
C354 N350 1.345 . S
C354 C355 1.371 . S
C354 H357 0.931 . S
C355 C351 1.391 . S
C355 C354 1.371 . S
C355 H362 0.930 . S
H356 C353 0.928 . S
H357 C354 0.931 . S
H358 C334 0.930 . S
H359 C331 0.930 . S
H360 C340 0.930 . S
H361 C352 0.929 . S
H362 C355 0.930 . S
C363 C364 1.351 . S
C363 N366 1.368 . S
C363 H368 0.931 . S
C364 C363 1.351 . S
C364 N365 1.373 . S
C364 H392 0.930 . S
N365 C364 1.373 . S
N365 C367 1.340 . S
N366 C363 1.368 . S
N366 C367 1.321 . S
N366 Co369 2.135 . S
C367 N365 1.340 . S
C367 N366 1.321 . S
C367 H391 0.930 . S
H368 C363 0.931 . S
Co369 N366 2.135 . S
Co369 N372 2.121 . S
Co369 O377 2.055 . S
Co369 O380 2.039 . S
Co369 N383 2.140 . S
C370 O371 1.227 . S
C370 O380 1.265 . S
O371 C370 1.227 . S
N372 Co369 2.121 . S
N372 C374 1.375 . S
N372 C375 1.313 . S
C373 C374 1.338 . S
C373 N376 1.377 . S
C373 H393 0.930 . S
C374 N372 1.375 . S
C374 C373 1.338 . S
C374 H378 0.931 . S
C375 N372 1.313 . S
C375 N376 1.344 . S
C375 H379 0.930 . S
N376 C373 1.377 . S
N376 C375 1.344 . S
O377 Co369 2.055 . S
O377 C381 1.253 . S
H378 C374 0.931 . S
H379 C375 0.930 . S
O380 Co369 2.039 . S
O380 C370 1.265 . S
C381 O377 1.253 . S
C381 O382 1.227 . S
O382 C381 1.227 . S
N383 Co369 2.140 . S
N383 C386 1.346 . S
N383 C387 1.345 . S
C384 C385 1.387 . S
C384 C388 1.391 . S
C385 C384 1.387 . S
C385 C386 1.369 . S
C385 H394 0.929 . S
C386 N383 1.346 . S
C386 C385 1.369 . S
C386 H389 0.928 . S
C387 N383 1.345 . S
C387 C388 1.371 . S
C387 H390 0.931 . S
C388 C384 1.391 . S
C388 C387 1.371 . S
C388 H395 0.930 . S
H389 C386 0.928 . S
H390 C387 0.931 . S
H391 C367 0.930 . S
H392 C364 0.930 . S
H393 C373 0.930 . S
H394 C385 0.929 . S
H395 C388 0.930 . S
H396 C402 0.930 . S
H397 C406 0.930 . S
H398 C411 0.929 . S
H399 C409 0.929 . S
H400 C404 0.929 . S
H401 C410 0.929 . S
C402 H396 0.930 . S
C402 C403 1.367 . S
C402 C410 1.378 . S
C403 C402 1.367 . S
C403 C411 1.433 . S
C404 H400 0.929 . S
C404 C406 1.378 . S
C404 C408 1.350 . S
C405 C408 1.463 . S
C405 C410 1.350 . S
C405 N413 1.427 . S
C406 H397 0.930 . S
C406 C404 1.378 . S
C406 C407 1.367 . S
C407 C406 1.367 . S
C407 C409 1.433 . S
C408 C404 1.350 . S
C408 C405 1.463 . S
C408 N412 1.427 . S
C409 H399 0.929 . S
C409 C407 1.433 . S
C409 N412 1.384 . S
C410 H401 0.929 . S
C410 C402 1.378 . S
C410 C405 1.350 . S
C411 H398 0.929 . S
C411 C403 1.433 . S
C411 N413 1.384 . S
N412 C408 1.427 . S
N412 C409 1.384 . S
N413 C405 1.427 . S
N413 C411 1.384 . S
H414 C420 0.930 1_455 S
H415 C424 0.930 1_655 S
H416 C429 0.929 . S
H417 C427 0.929 . S
H418 C422 0.929 . S
H419 C428 0.929 . S
C420 H414 0.930 1_655 S
C420 C421 1.367 . S
C420 C428 1.378 1_655 S
C421 C420 1.367 . S
C421 C429 1.433 . S
C422 H418 0.929 . S
C422 C424 1.378 1_655 S
C422 C426 1.350 1_655 S
C423 C426 1.463 1_655 S
C423 C428 1.350 1_655 S
C423 N431 1.427 . S
C424 H415 0.930 1_455 S
C424 C422 1.378 1_455 S
C424 C425 1.367 . S
C425 C424 1.367 . S
C425 C427 1.433 . S
C426 C422 1.350 1_455 S
C426 C423 1.463 1_455 S
C426 N430 1.427 . S
C427 H417 0.929 . S
C427 C425 1.433 . S
C427 N430 1.384 . S
C428 H419 0.929 . S
C428 C420 1.378 1_455 S
C428 C423 1.350 1_455 S
C429 H416 0.929 . S
C429 C421 1.433 . S
C429 N431 1.384 . S
N430 C426 1.427 . S
N430 C427 1.384 . S
N431 C423 1.427 . S
N431 C429 1.384 . S
H432 C438 0.930 1_565 S
H433 C442 0.930 1_545 S
H434 C447 0.929 . S
H435 C445 0.929 . S
H436 C440 0.929 . S
H437 C446 0.929 . S
C438 H432 0.930 1_545 S
C438 C439 1.367 . S
C438 C446 1.378 1_545 S
C439 C438 1.367 . S
C439 C447 1.433 . S
C440 H436 0.929 . S
C440 C442 1.378 1_545 S
C440 C444 1.350 1_545 S
C441 C444 1.463 1_545 S
C441 C446 1.350 1_545 S
C441 N449 1.427 . S
C442 H433 0.930 1_565 S
C442 C440 1.378 1_565 S
C442 C443 1.367 . S
C443 C442 1.367 . S
C443 C445 1.433 . S
C444 C440 1.350 1_565 S
C444 C441 1.463 1_565 S
C444 N448 1.427 . S
C445 H435 0.929 . S
C445 C443 1.433 . S
C445 N448 1.384 . S
C446 H437 0.929 . S
C446 C438 1.378 1_565 S
C446 C441 1.350 1_565 S
C447 H434 0.929 . S
C447 C439 1.433 . S
C447 N449 1.384 . S
N448 C444 1.427 . S
N448 C445 1.384 . S
N449 C441 1.427 . S
N449 C447 1.384 . S
H450 C456 0.930 . S
H451 C460 0.930 . S
H452 C465 0.929 . S
H453 C463 0.929 . S
H454 C458 0.929 . S
H455 C464 0.929 . S
C456 H450 0.930 . S
C456 C457 1.367 . S
C456 C464 1.378 . S
C457 C456 1.367 . S
C457 C465 1.433 . S
C458 H454 0.929 . S
C458 C460 1.378 . S
C458 C462 1.350 . S
C459 C462 1.463 . S
C459 C464 1.350 . S
C459 N467 1.427 . S
C460 H451 0.930 . S
C460 C458 1.378 . S
C460 C461 1.367 . S
C461 C460 1.367 . S
C461 C463 1.433 . S
C462 C458 1.350 . S
C462 C459 1.463 . S
C462 N466 1.427 . S
C463 H453 0.929 . S
C463 C461 1.433 . S
C463 N466 1.384 . S
C464 H455 0.929 . S
C464 C456 1.378 . S
C464 C459 1.350 . S
C465 H452 0.929 . S
C465 C457 1.433 . S
C465 N467 1.384 . S
N466 C462 1.427 . S
N466 C463 1.384 . S
N467 C459 1.427 . S
N467 C465 1.384 . S
H468 C474 0.930 . S
H469 C478 0.930 . S
H470 C483 0.929 . S
H471 C481 0.929 . S
H472 C476 0.929 . S
H473 C482 0.929 . S
C474 H468 0.930 . S
C474 C475 1.367 . S
C474 C482 1.378 . S
C475 C474 1.367 . S
C475 C483 1.433 . S
C476 H472 0.929 . S
C476 C478 1.378 . S
C476 C480 1.350 . S
C477 C480 1.463 1_455 S
C477 C482 1.350 . S
C477 N485 1.427 . S
C478 H469 0.930 . S
C478 C476 1.378 . S
C478 C479 1.367 . S
C479 C478 1.367 . S
C479 C481 1.433 . S
C480 C476 1.350 . S
C480 C477 1.463 1_655 S
C480 N484 1.427 . S
C481 H471 0.929 . S
C481 C479 1.433 . S
C481 N484 1.384 . S
C482 H473 0.929 . S
C482 C474 1.378 . S
C482 C477 1.350 . S
C483 H470 0.929 . S
C483 C475 1.433 . S
C483 N485 1.384 . S
N484 C480 1.427 . S
N484 C481 1.384 . S
N485 C477 1.427 . S
N485 C483 1.384 . S
H486 C492 0.930 . S
H487 C496 0.930 . S
H488 C501 0.929 . S
H489 C499 0.929 . S
H490 C494 0.929 . S
H491 C500 0.929 . S
C492 H486 0.930 . S
C492 C493 1.367 . S
C492 C500 1.378 . S
C493 C492 1.367 . S
C493 C501 1.433 . S
C494 H490 0.929 . S
C494 C496 1.378 . S
C494 C498 1.350 . S
C495 C498 1.463 1_565 S
C495 C500 1.350 . S
C495 N503 1.427 1_565 S
C496 H487 0.930 . S
C496 C494 1.378 . S
C496 C497 1.367 . S
C497 C496 1.367 . S
C497 C499 1.433 . S
C498 C494 1.350 . S
C498 C495 1.463 1_545 S
C498 N502 1.427 1_545 S
C499 H489 0.929 . S
C499 C497 1.433 . S
C499 N502 1.384 1_545 S
C500 H491 0.929 . S
C500 C492 1.378 . S
C500 C495 1.350 . S
C501 H488 0.929 . S
C501 C493 1.433 . S
C501 N503 1.384 1_565 S
N502 C498 1.427 1_565 S
N502 C499 1.384 1_565 S
N503 C495 1.427 1_545 S
N503 C501 1.384 1_545 S
H504 C510 0.930 . S
H505 C514 0.930 . S
H506 C519 0.929 . S
H507 C517 0.929 . S
H508 C512 0.929 . S
H509 C518 0.929 . S
C510 H504 0.930 . S
C510 C511 1.367 . S
C510 C518 1.378 . S
C511 C510 1.367 . S
C511 C519 1.433 . S
C512 H508 0.929 . S
C512 C514 1.378 . S
C512 C516 1.350 . S
C513 C516 1.463 1_554 S
C513 C518 1.350 . S
C513 N521 1.427 . S
C514 H505 0.930 . S
C514 C512 1.378 . S
C514 C515 1.367 . S
C515 C514 1.367 . S
C515 C517 1.433 . S
C516 C512 1.350 . S
C516 C513 1.463 1_556 S
C516 N520 1.427 . S
C517 H507 0.929 . S
C517 C515 1.433 . S
C517 N520 1.384 . S
C518 H509 0.929 . S
C518 C510 1.378 . S
C518 C513 1.350 . S
C519 H506 0.929 . S
C519 C511 1.433 . S
C519 N521 1.384 . S
N520 C516 1.427 . S
N520 C517 1.384 . S
N521 C513 1.427 . S
N521 C519 1.384 . S
H522 C528 0.930 . S
H523 C532 0.930 . S
H524 C537 0.929 . S
H525 C535 0.929 . S
H526 C530 0.929 . S
H527 C536 0.929 . S
C528 H522 0.930 . S
C528 C529 1.367 . S
C528 C536 1.378 . S
C529 C528 1.367 . S
C529 C537 1.433 . S
C530 H526 0.929 . S
C530 C532 1.378 . S
C530 C534 1.350 . S
C531 C534 1.463 . S
C531 C536 1.350 . S
C531 N539 1.427 . S
C532 H523 0.930 . S
C532 C530 1.378 . S
C532 C533 1.367 . S
C533 C532 1.367 . S
C533 C535 1.433 . S
C534 C530 1.350 . S
C534 C531 1.463 . S
C534 N538 1.427 . S
C535 H525 0.929 . S
C535 C533 1.433 . S
C535 N538 1.384 . S
C536 H527 0.929 . S
C536 C528 1.378 . S
C536 C531 1.350 . S
C537 H524 0.929 . S
C537 C529 1.433 . S
C537 N539 1.384 . S
N538 C534 1.427 . S
N538 C535 1.384 . S
N539 C531 1.427 . S
N539 C537 1.384 . S
H540 C546 0.930 . S
H541 C550 0.930 . S
H542 C555 0.929 . S
H543 C553 0.929 . S
H544 C548 0.929 . S
H545 C554 0.929 . S
C546 H540 0.930 . S
C546 C547 1.367 . S
C546 C554 1.378 . S
C547 C546 1.367 . S
C547 C555 1.433 . S
C548 H544 0.929 . S
C548 C550 1.378 . S
C548 C552 1.350 . S
C549 C552 1.463 . S
C549 C554 1.350 . S
C549 N557 1.427 . S
C550 H541 0.930 . S
C550 C548 1.378 . S
C550 C551 1.367 . S
C551 C550 1.367 . S
C551 C553 1.433 . S
C552 C548 1.350 . S
C552 C549 1.463 . S
C552 N556 1.427 . S
C553 H543 0.929 . S
C553 C551 1.433 . S
C553 N556 1.384 . S
C554 H545 0.929 . S
C554 C546 1.378 . S
C554 C549 1.350 . S
C555 H542 0.929 . S
C555 C547 1.433 . S
C555 N557 1.384 . S
N556 C552 1.427 . S
N556 C553 1.384 . S
N557 C549 1.427 . S
N557 C555 1.384 . S
H558 C564 0.930 . S
H559 C568 0.930 . S
H560 C573 0.929 . S
H561 C571 0.929 . S
H562 C566 0.929 . S
H563 C572 0.929 . S
C564 H558 0.930 . S
C564 C565 1.367 . S
C564 C572 1.378 . S
C565 C564 1.367 . S
C565 C573 1.433 . S
C566 H562 0.929 . S
C566 C568 1.378 . S
C566 C570 1.350 . S
C567 C570 1.463 1_554 S
C567 C572 1.350 . S
C567 N575 1.427 . S
C568 H559 0.930 . S
C568 C566 1.378 . S
C568 C569 1.367 . S
C569 C568 1.367 . S
C569 C571 1.433 . S
C570 C566 1.350 . S
C570 C567 1.463 1_556 S
C570 N574 1.427 . S
C571 H561 0.929 . S
C571 C569 1.433 . S
C571 N574 1.384 . S
C572 H563 0.929 . S
C572 C564 1.378 . S
C572 C567 1.350 . S
C573 H560 0.929 . S
C573 C565 1.433 . S
C573 N575 1.384 . S
N574 C570 1.427 . S
N574 C571 1.384 . S
N575 C567 1.427 . S
N575 C573 1.384 . S
H576 C582 0.930 . S
H577 C586 0.930 . S
H578 C591 0.929 . S
H579 C589 0.929 . S
H580 C584 0.929 . S
H581 C590 0.929 . S
C582 H576 0.930 . S
C582 C583 1.367 . S
C582 C590 1.378 . S
C583 C582 1.367 . S
C583 C591 1.433 . S
C584 H580 0.929 . S
C584 C586 1.378 . S
C584 C588 1.350 . S
C585 C588 1.463 . S
C585 C590 1.350 . S
C585 N593 1.427 . S
C586 H577 0.930 . S
C586 C584 1.378 . S
C586 C587 1.367 . S
C587 C586 1.367 . S
C587 C589 1.433 . S
C588 C584 1.350 . S
C588 C585 1.463 . S
C588 N592 1.427 . S
C589 H579 0.929 . S
C589 C587 1.433 . S
C589 N592 1.384 . S
C590 H581 0.929 . S
C590 C582 1.378 . S
C590 C585 1.350 . S
C591 H578 0.929 . S
C591 C583 1.433 . S
C591 N593 1.384 . S
N592 C588 1.427 . S
N592 C589 1.384 . S
N593 C585 1.427 . S
N593 C591 1.384 . S
H594 C600 0.930 . S
H595 C604 0.930 . S
H596 C609 0.929 . S
H597 C607 0.929 . S
H598 C602 0.929 . S
H599 C608 0.929 . S
C600 H594 0.930 . S
C600 C601 1.367 . S
C600 C608 1.378 . S
C601 C600 1.367 . S
C601 C609 1.433 . S
C602 H598 0.929 . S
C602 C604 1.378 . S
C602 C606 1.350 . S
C603 C606 1.463 . S
C603 C608 1.350 . S
C603 N611 1.427 . S
C604 H595 0.930 . S
C604 C602 1.378 . S
C604 C605 1.367 . S
C605 C604 1.367 . S
C605 C607 1.433 . S
C606 C602 1.350 . S
C606 C603 1.463 . S
C606 N610 1.427 . S
C607 H597 0.929 . S
C607 C605 1.433 . S
C607 N610 1.384 . S
C608 H599 0.929 . S
C608 C600 1.378 . S
C608 C603 1.350 . S
C609 H596 0.929 . S
C609 C601 1.433 . S
C609 N611 1.384 . S
N610 C606 1.427 . S
N610 C607 1.384 . S
N611 C603 1.427 . S
N611 C609 1.384 . S
H612 C618 0.930 . S
H613 C622 0.930 . S
H614 C627 0.929 . S
H615 C625 0.929 . S
H616 C620 0.929 . S
H617 C626 0.929 . S
C618 H612 0.930 . S
C618 C619 1.367 . S
C618 C626 1.378 . S
C619 C618 1.367 . S
C619 C627 1.433 . S
C620 H616 0.929 . S
C620 C622 1.378 . S
C620 C624 1.350 . S
C621 C624 1.463 . S
C621 C626 1.350 . S
C621 N629 1.427 . S
C622 H613 0.930 . S
C622 C620 1.378 . S
C622 C623 1.367 . S
C623 C622 1.367 . S
C623 C625 1.433 . S
C624 C620 1.350 . S
C624 C621 1.463 . S
C624 N628 1.427 . S
C625 H615 0.929 . S
C625 C623 1.433 . S
C625 N628 1.384 . S
C626 H617 0.929 . S
C626 C618 1.378 . S
C626 C621 1.350 . S
C627 H614 0.929 . S
C627 C619 1.433 . S
C627 N629 1.384 . S
N628 C624 1.427 . S
N628 C625 1.384 . S
N629 C621 1.427 . S
N629 C627 1.384 . S
H630 C636 0.930 . S
H631 C640 0.930 . S
H632 C645 0.929 . S
H633 C643 0.929 . S
H634 C638 0.929 1_655 S
H635 C644 0.929 1_455 S
C636 H630 0.930 . S
C636 C637 1.367 . S
C636 C644 1.378 . S
C637 C636 1.367 . S
C637 C645 1.433 . S
C638 H634 0.929 1_455 S
C638 C640 1.378 . S
C638 C642 1.350 . S
C639 C642 1.463 1_655 S
C639 C644 1.350 . S
C639 N647 1.427 . S
C640 H631 0.930 . S
C640 C638 1.378 . S
C640 C641 1.367 . S
C641 C640 1.367 . S
C641 C643 1.433 . S
C642 C638 1.350 . S
C642 C639 1.463 1_455 S
C642 N646 1.427 . S
C643 H633 0.929 . S
C643 C641 1.433 . S
C643 N646 1.384 . S
C644 H635 0.929 1_655 S
C644 C636 1.378 . S
C644 C639 1.350 . S
C645 H632 0.929 . S
C645 C637 1.433 . S
C645 N647 1.384 . S
N646 C642 1.427 . S
N646 C643 1.384 . S
N647 C639 1.427 . S
N647 C645 1.384 . S
H648 C654 0.930 . S
H649 C658 0.930 . S
H650 C663 0.929 . S
H651 C661 0.929 . S
H652 C656 0.929 1_556 S
H653 C662 0.929 1_554 S
C654 H648 0.930 . S
C654 C655 1.367 . S
C654 C662 1.378 . S
C655 C654 1.367 . S
C655 C663 1.433 . S
C656 H652 0.929 1_554 S
C656 C658 1.378 . S
C656 C660 1.350 . S
C657 C660 1.463 1_566 S
C657 C662 1.350 . S
C657 N665 1.427 . S
C658 H649 0.930 . S
C658 C656 1.378 . S
C658 C659 1.367 . S
C659 C658 1.367 . S
C659 C661 1.433 . S
C660 C656 1.350 . S
C660 C657 1.463 1_544 S
C660 N664 1.427 . S
C661 H651 0.929 . S
C661 C659 1.433 . S
C661 N664 1.384 . S
C662 H653 0.929 1_556 S
C662 C654 1.378 . S
C662 C657 1.350 . S
C663 H650 0.929 . S
C663 C655 1.433 . S
C663 N665 1.384 . S
N664 C660 1.427 . S
N664 C661 1.384 . S
N665 C657 1.427 . S
N665 C663 1.384 . S
H666 C672 0.930 . S
H667 C676 0.930 . S
H668 C681 0.929 . S
H669 C679 0.929 . S
H670 C674 0.929 . S
H671 C680 0.929 . S
C672 H666 0.930 . S
C672 C673 1.367 . S
C672 C680 1.378 . S
C673 C672 1.367 . S
C673 C681 1.433 . S
C674 H670 0.929 . S
C674 C676 1.378 . S
C674 C678 1.350 . S
C675 C678 1.463 . S
C675 C680 1.350 . S
C675 N683 1.427 . S
C676 H667 0.930 . S
C676 C674 1.378 . S
C676 C677 1.367 . S
C677 C676 1.367 . S
C677 C679 1.433 . S
C678 C674 1.350 . S
C678 C675 1.463 . S
C678 N682 1.427 . S
C679 H669 0.929 . S
C679 C677 1.433 . S
C679 N682 1.384 . S
C680 H671 0.929 . S
C680 C672 1.378 . S
C680 C675 1.350 . S
C681 H668 0.929 . S
C681 C673 1.433 . S
C681 N683 1.384 . S
N682 C678 1.427 . S
N682 C679 1.384 . S
N683 C675 1.427 . S
N683 C681 1.384 . S
H684 C690 0.930 . S
H685 C694 0.930 . S
H686 C699 0.929 . S
H687 C697 0.929 . S
H688 C692 0.929 . S
H689 C698 0.929 . S
C690 H684 0.930 . S
C690 C691 1.367 . S
C690 C698 1.378 . S
C691 C690 1.367 . S
C691 C699 1.433 . S
C692 H688 0.929 . S
C692 C694 1.378 . S
C692 C696 1.350 . S
C693 C696 1.463 1_655 S
C693 C698 1.350 . S
C693 N701 1.427 . S
C694 H685 0.930 . S
C694 C692 1.378 . S
C694 C695 1.367 . S
C695 C694 1.367 . S
C695 C697 1.433 . S
C696 C692 1.350 . S
C696 C693 1.463 1_455 S
C696 N700 1.427 . S
C697 H687 0.929 . S
C697 C695 1.433 . S
C697 N700 1.384 . S
C698 H689 0.929 . S
C698 C690 1.378 . S
C698 C693 1.350 . S
C699 H686 0.929 . S
C699 C691 1.433 . S
C699 N701 1.384 . S
N700 C696 1.427 . S
N700 C697 1.384 . S
N701 C693 1.427 . S
N701 C699 1.384 . S
H702 C708 0.930 . S
H703 C712 0.930 . S
H704 C717 0.929 . S
H705 C715 0.929 . S
H706 C710 0.929 1_554 S
H707 C716 0.929 1_556 S
C708 H702 0.930 . S
C708 C709 1.367 . S
C708 C716 1.378 . S
C709 C708 1.367 . S
C709 C717 1.433 . S
C710 H706 0.929 1_556 S
C710 C712 1.378 . S
C710 C714 1.350 . S
C711 C714 1.463 1_564 S
C711 C716 1.350 . S
C711 N719 1.427 . S
C712 H703 0.930 . S
C712 C710 1.378 . S
C712 C713 1.367 . S
C713 C712 1.367 . S
C713 C715 1.433 . S
C714 C710 1.350 . S
C714 C711 1.463 1_546 S
C714 N718 1.427 . S
C715 H705 0.929 . S
C715 C713 1.433 . S
C715 N718 1.384 . S
C716 H707 0.929 1_554 S
C716 C708 1.378 . S
C716 C711 1.350 . S
C717 H704 0.929 . S
C717 C709 1.433 . S
C717 N719 1.384 . S
N718 C714 1.427 . S
N718 C715 1.384 . S
N719 C711 1.427 . S
N719 C717 1.384 . S
H720 C726 0.930 . S
H721 C730 0.930 . S
H722 C735 0.929 . S
H723 C733 0.929 . S
H724 C728 0.929 . S
H725 C734 0.929 . S
C726 H720 0.930 . S
C726 C727 1.367 . S
C726 C734 1.378 . S
C727 C726 1.367 . S
C727 C735 1.433 . S
C728 H724 0.929 . S
C728 C730 1.378 . S
C728 C732 1.350 . S
C729 C732 1.463 . S
C729 C734 1.350 . S
C729 N737 1.427 . S
C730 H721 0.930 . S
C730 C728 1.378 . S
C730 C731 1.367 . S
C731 C730 1.367 . S
C731 C733 1.433 . S
C732 C728 1.350 . S
C732 C729 1.463 . S
C732 N736 1.427 . S
C733 H723 0.929 . S
C733 C731 1.433 . S
C733 N736 1.384 . S
C734 H725 0.929 . S
C734 C726 1.378 . S
C734 C729 1.350 . S
C735 H722 0.929 . S
C735 C727 1.433 . S
C735 N737 1.384 . S
N736 C732 1.427 . S
N736 C733 1.384 . S
N737 C729 1.427 . S
N737 C735 1.384 . S
H738 C744 0.930 . S
H739 C748 0.930 . S
H740 C753 0.929 . S
H741 C751 0.929 . S
H742 C746 0.929 . S
H743 C752 0.929 . S
C744 H738 0.930 . S
C744 C745 1.367 . S
C744 C752 1.378 . S
C745 C744 1.367 . S
C745 C753 1.433 . S
C746 H742 0.929 . S
C746 C748 1.378 . S
C746 C750 1.350 . S
C747 C750 1.463 . S
C747 C752 1.350 . S
C747 N755 1.427 . S
C748 H739 0.930 . S
C748 C746 1.378 . S
C748 C749 1.367 . S
C749 C748 1.367 . S
C749 C751 1.433 . S
C750 C746 1.350 . S
C750 C747 1.463 . S
C750 N754 1.427 . S
C751 H741 0.929 . S
C751 C749 1.433 . S
C751 N754 1.384 . S
C752 H743 0.929 . S
C752 C744 1.378 . S
C752 C747 1.350 . S
C753 H740 0.929 . S
C753 C745 1.433 . S
C753 N755 1.384 . S
N754 C750 1.427 . S
N754 C751 1.384 . S
N755 C747 1.427 . S
N755 C753 1.384 . S
H756 C762 0.930 . S
H757 C766 0.930 . S
H758 C771 0.929 . S
H759 C769 0.929 . S
H760 C764 0.929 . S
H761 C770 0.929 . S
C762 H756 0.930 . S
C762 C763 1.367 1_556 S
C762 C770 1.378 . S
C763 C762 1.367 1_554 S
C763 C771 1.433 . S
C764 H760 0.929 . S
C764 C766 1.378 . S
C764 C768 1.350 1_554 S
C765 C768 1.463 1_554 S
C765 C770 1.350 1_554 S
C765 N773 1.427 . S
C766 H757 0.930 . S
C766 C764 1.378 . S
C766 C767 1.367 1_554 S
C767 C766 1.367 1_556 S
C767 C769 1.433 . S
C768 C764 1.350 1_556 S
C768 C765 1.463 1_556 S
C768 N772 1.427 . S
C769 H759 0.929 . S
C769 C767 1.433 . S
C769 N772 1.384 . S
C770 H761 0.929 . S
C770 C762 1.378 . S
C770 C765 1.350 1_556 S
C771 H758 0.929 . S
C771 C763 1.433 . S
C771 N773 1.384 . S
N772 C768 1.427 . S
N772 C769 1.384 . S
N773 C765 1.427 . S
N773 C771 1.384 . S
H774 C780 0.930 . S
H775 C784 0.930 . S
H776 C789 0.929 . S
H777 C787 0.929 . S
H778 C782 0.929 . S
H779 C788 0.929 . S
C780 H774 0.930 . S
C780 C781 1.367 . S
C780 C788 1.378 . S
C781 C780 1.367 . S
C781 C789 1.433 . S
C782 H778 0.929 . S
C782 C784 1.378 . S
C782 C786 1.350 . S
C783 C786 1.463 . S
C783 C788 1.350 . S
C783 N791 1.427 . S
C784 H775 0.930 . S
C784 C782 1.378 . S
C784 C785 1.367 . S
C785 C784 1.367 . S
C785 C787 1.433 . S
C786 C782 1.350 . S
C786 C783 1.463 . S
C786 N790 1.427 . S
C787 H777 0.929 . S
C787 C785 1.433 . S
C787 N790 1.384 . S
C788 H779 0.929 . S
C788 C780 1.378 . S
C788 C783 1.350 . S
C789 H776 0.929 . S
C789 C781 1.433 . S
C789 N791 1.384 . S
N790 C786 1.427 . S
N790 C787 1.384 . S
N791 C783 1.427 . S
N791 C789 1.384 . S
H792 C798 0.930 . S
H793 C802 0.930 . S
H794 C807 0.929 . S
H795 C805 0.929 . S
H796 C800 0.929 . S
H797 C806 0.929 . S
C798 H792 0.930 . S
C798 C799 1.367 . S
C798 C806 1.378 . S
C799 C798 1.367 . S
C799 C807 1.433 . S
C800 H796 0.929 . S
C800 C802 1.378 . S
C800 C804 1.350 . S
C801 C804 1.463 . S
C801 C806 1.350 . S
C801 N809 1.427 . S
C802 H793 0.930 . S
C802 C800 1.378 . S
C802 C803 1.367 . S
C803 C802 1.367 . S
C803 C805 1.433 . S
C804 C800 1.350 . S
C804 C801 1.463 . S
C804 N808 1.427 . S
C805 H795 0.929 . S
C805 C803 1.433 . S
C805 N808 1.384 . S
C806 H797 0.929 . S
C806 C798 1.378 . S
C806 C801 1.350 . S
C807 H794 0.929 . S
C807 C799 1.433 . S
C807 N809 1.384 . S
N808 C804 1.427 . S
N808 C805 1.384 . S
N809 C801 1.427 . S
N809 C807 1.384 . S
H810 C816 0.930 . S
H811 C820 0.930 . S
H812 C825 0.929 . S
H813 C823 0.929 . S
H814 C818 0.929 . S
H815 C824 0.929 . S
C816 H810 0.930 . S
C816 C817 1.367 1_554 S
C816 C824 1.378 . S
C817 C816 1.367 1_556 S
C817 C825 1.433 . S
C818 H814 0.929 . S
C818 C820 1.378 . S
C818 C822 1.350 1_556 S
C819 C822 1.463 1_556 S
C819 C824 1.350 1_556 S
C819 N827 1.427 . S
C820 H811 0.930 . S
C820 C818 1.378 . S
C820 C821 1.367 1_556 S
C821 C820 1.367 1_554 S
C821 C823 1.433 . S
C822 C818 1.350 1_554 S
C822 C819 1.463 1_554 S
C822 N826 1.427 . S
C823 H813 0.929 . S
C823 C821 1.433 . S
C823 N826 1.384 . S
C824 H815 0.929 . S
C824 C816 1.378 . S
C824 C819 1.350 1_554 S
C825 H812 0.929 . S
C825 C817 1.433 . S
C825 N827 1.384 . S
N826 C822 1.427 . S
N826 C823 1.384 . S
N827 C819 1.427 . S
N827 C825 1.384 . S
H828 C834 0.930 . S
H829 C838 0.930 . S
H830 C843 0.929 . S
H831 C841 0.929 . S
H832 C836 0.929 . S
H833 C842 0.929 . S
C834 H828 0.930 . S
C834 C835 1.367 . S
C834 C842 1.378 . S
C835 C834 1.367 . S
C835 C843 1.433 . S
C836 H832 0.929 . S
C836 C838 1.378 . S
C836 C840 1.350 . S
C837 C840 1.463 . S
C837 C842 1.350 . S
C837 N845 1.427 . S
C838 H829 0.930 . S
C838 C836 1.378 . S
C838 C839 1.367 . S
C839 C838 1.367 . S
C839 C841 1.433 . S
C840 C836 1.350 . S
C840 C837 1.463 . S
C840 N844 1.427 . S
C841 H831 0.929 . S
C841 C839 1.433 . S
C841 N844 1.384 . S
C842 H833 0.929 . S
C842 C834 1.378 . S
C842 C837 1.350 . S
C843 H830 0.929 . S
C843 C835 1.433 . S
C843 N845 1.384 . S
N844 C840 1.427 . S
N844 C841 1.384 . S
N845 C837 1.427 . S
N845 C843 1.384 . S
H846 C852 0.930 . S
H847 C856 0.930 . S
H848 C861 0.929 . S
H849 C859 0.929 . S
H850 C854 0.929 . S
H851 C860 0.929 . S
C852 H846 0.930 . S
C852 C853 1.367 . S
C852 C860 1.378 . S
C853 C852 1.367 . S
C853 C861 1.433 . S
C854 H850 0.929 . S
C854 C856 1.378 . S
C854 C858 1.350 . S
C855 C858 1.463 . S
C855 C860 1.350 . S
C855 N863 1.427 . S
C856 H847 0.930 . S
C856 C854 1.378 . S
C856 C857 1.367 . S
C857 C856 1.367 . S
C857 C859 1.433 . S
C858 C854 1.350 . S
C858 C855 1.463 . S
C858 N862 1.427 . S
C859 H849 0.929 . S
C859 C857 1.433 . S
C859 N862 1.384 . S
C860 H851 0.929 . S
C860 C852 1.378 . S
C860 C855 1.350 . S
C861 H848 0.929 . S
C861 C853 1.433 . S
C861 N863 1.384 . S
N862 C858 1.427 . S
N862 C859 1.384 . S
N863 C855 1.427 . S
N863 C861 1.384 . S
H864 C870 0.930 . S
H865 C874 0.930 . S
H866 C879 0.929 . S
H867 C877 0.929 . S
H868 C872 0.929 . S
H869 C878 0.929 . S
C870 H864 0.930 . S
C870 C871 1.367 . S
C870 C878 1.378 . S
C871 C870 1.367 . S
C871 C879 1.433 . S
C872 H868 0.929 . S
C872 C874 1.378 . S
C872 C876 1.350 . S
C873 C876 1.463 . S
C873 C878 1.350 . S
C873 N881 1.427 . S
C874 H865 0.930 . S
C874 C872 1.378 . S
C874 C875 1.367 . S
C875 C874 1.367 . S
C875 C877 1.433 . S
C876 C872 1.350 . S
C876 C873 1.463 . S
C876 N880 1.427 . S
C877 H867 0.929 . S
C877 C875 1.433 . S
C877 N880 1.384 . S
C878 H869 0.929 . S
C878 C870 1.378 . S
C878 C873 1.350 . S
C879 H866 0.929 . S
C879 C871 1.433 . S
C879 N881 1.384 . S
N880 C876 1.427 . S
N880 C877 1.384 . S
N881 C873 1.427 . S
N881 C879 1.384 . S
H882 C888 0.930 . S
H883 C892 0.930 . S
H884 C897 0.929 . S
H885 C895 0.929 . S
H886 C890 0.929 . S
H887 C896 0.929 . S
C888 H882 0.930 . S
C888 C889 1.367 . S
C888 C896 1.378 . S
C889 C888 1.367 . S
C889 C897 1.433 . S
C890 H886 0.929 . S
C890 C892 1.378 . S
C890 C894 1.350 . S
C891 C894 1.463 . S
C891 C896 1.350 . S
C891 N899 1.427 . S
C892 H883 0.930 . S
C892 C890 1.378 . S
C892 C893 1.367 . S
C893 C892 1.367 . S
C893 C895 1.433 . S
C894 C890 1.350 . S
C894 C891 1.463 . S
C894 N898 1.427 . S
C895 H885 0.929 . S
C895 C893 1.433 . S
C895 N898 1.384 . S
C896 H887 0.929 . S
C896 C888 1.378 . S
C896 C891 1.350 . S
C897 H884 0.929 . S
C897 C889 1.433 . S
C897 N899 1.384 . S
N898 C894 1.427 . S
N898 C895 1.384 . S
N899 C891 1.427 . S
N899 C897 1.384 . S
H900 C906 0.930 . S
H901 C910 0.930 . S
H902 C915 0.929 . S
H903 C913 0.929 . S
H904 C908 0.929 . S
H905 C914 0.929 . S
C906 H900 0.930 . S
C906 C907 1.367 . S
C906 C914 1.378 . S
C907 C906 1.367 . S
C907 C915 1.433 . S
C908 H904 0.929 . S
C908 C910 1.378 . S
C908 C912 1.350 . S
C909 C912 1.463 . S
C909 C914 1.350 . S
C909 N917 1.427 . S
C910 H901 0.930 . S
C910 C908 1.378 . S
C910 C911 1.367 . S
C911 C910 1.367 . S
C911 C913 1.433 . S
C912 C908 1.350 . S
C912 C909 1.463 . S
C912 N916 1.427 . S
C913 H903 0.929 . S
C913 C911 1.433 . S
C913 N916 1.384 . S
C914 H905 0.929 . S
C914 C906 1.378 . S
C914 C909 1.350 . S
C915 H902 0.929 . S
C915 C907 1.433 . S
C915 N917 1.384 . S
N916 C912 1.427 . S
N916 C913 1.384 . S
N917 C909 1.427 . S
N917 C915 1.384 . S
H918 C924 0.930 . S
H919 C928 0.930 . S
H920 C933 0.929 . S
H921 C931 0.929 . S
H922 C926 0.929 . S
H923 C932 0.929 . S
C924 H918 0.930 . S
C924 C925 1.367 . S
C924 C932 1.378 . S
C925 C924 1.367 . S
C925 C933 1.433 . S
C926 H922 0.929 . S
C926 C928 1.378 . S
C926 C930 1.350 . S
C927 C930 1.463 . S
C927 C932 1.350 . S
C927 N935 1.427 . S
C928 H919 0.930 . S
C928 C926 1.378 . S
C928 C929 1.367 . S
C929 C928 1.367 . S
C929 C931 1.433 . S
C930 C926 1.350 . S
C930 C927 1.463 . S
C930 N934 1.427 . S
C931 H921 0.929 . S
C931 C929 1.433 . S
C931 N934 1.384 . S
C932 H923 0.929 . S
C932 C924 1.378 . S
C932 C927 1.350 . S
C933 H920 0.929 . S
C933 C925 1.433 . S
C933 N935 1.384 . S
N934 C930 1.427 . S
N934 C931 1.384 . S
N935 C927 1.427 . S
N935 C933 1.384 . S
C403 C120 0.343 . S
C407 C21 0.377 . S
C421 C54 0.361 . S
C425 C153 0.380 . S
C439 C186 0.370 . S
C443 C87 0.376 . S
C457 C219 0.351 . S
C461 C318 0.325 . S
C475 C351 0.366 . S
C479 C252 0.330 . S
C493 C285 0.353 . S
C497 C384 0.325 . S
C511 N13 2.026 . S
C515 N343 2.025 . S
C529 N376 2.026 . S
C533 N46 2.027 . S
C547 N79 2.027 . S
C551 N211 2.027 . S
C565 N112 2.025 . S
C569 N244 2.024 . S
C583 N145 2.027 . S
C587 N277 2.027 . S
C601 N178 2.024 . S
C605 N310 2.025 . S
C619 C304 1.749 . S
C623 C7 1.733 . S
C637 C40 1.730 . S
C641 C337 1.748 . S
C655 C73 1.732 . S
C659 C370 1.749 . S
C673 C205 1.733 . S
C677 C106 1.748 . S
C691 C238 1.730 . S
C695 C139 1.748 . S
C709 C271 1.747 . S
C713 C172 1.735 . S
C727 N2 1.037 . S
C731 N200 1.045 . S
C745 N35 1.051 . S
C749 N233 1.040 . S
C763 N266 1.072 . S
C767 N68 1.066 . S
C781 N101 1.072 . S
C785 N299 1.069 . S
C799 N332 1.071 . S
C803 N134 1.062 . S
C817 N167 1.072 . S
C821 N365 1.070 . S
C835 C282 1.313 . S
C839 C18 1.319 . S
C853 C315 1.316 . S
C857 C51 1.320 . S
C871 C348 1.320 . S
C875 C84 1.313 . S
C889 C117 1.314 . S
C893 C381 1.318 . S
C907 C216 1.322 . S
C911 C150 1.314 . S
C925 C249 1.319 . S
C929 C183 1.318 . S
