# Generated by pormake.
# Topology wjz, (5)-cn, num edge types: 1
# Building blocks:
#     Node 0, Type 0, BuildingBlock: XOMCOT_clean_sbu_1, # of connection points: 5
#     Node 1, Type 0, BuildingBlock: XOMCOT_clean_sbu_1, # of connection points: 5
#     Node 2, Type 0, BuildingBlock: XOMCOT_clean_sbu_1, # of connection points: 5
#     Node 3, Type 0, BuildingBlock: XOMCOT_clean_sbu_1, # of connection points: 5
#     Node 4, Type 0, BuildingBlock: XOMCOT_clean_sbu_1, # of connection points: 5
#     Node 5, Type 0, BuildingBlock: XOMCOT_clean_sbu_1, # of connection points: 5
#     Node 6, Type 0, BuildingBlock: XOMCOT_clean_sbu_1, # of connection points: 5
#     Node 7, Type 0, BuildingBlock: XOMCOT_clean_sbu_1, # of connection points: 5
#     Node 8, Type 0, BuildingBlock: XOMCOT_clean_sbu_1, # of connection points: 5
#     Node 9, Type 0, BuildingBlock: XOMCOT_clean_sbu_1, # of connection points: 5
#     Node 10, Type 0, BuildingBlock: XOMCOT_clean_sbu_1, # of connection points: 5
#     Node 11, Type 0, BuildingBlock: XOMCOT_clean_sbu_1, # of connection points: 5
#     Edge 12, Type (0, 0), BuildingBlock: ZUJKAS_clean_linker_0, # of connection points: 2
#     Edge 13, Type (0, 0), BuildingBlock: ZUJKAS_clean_linker_0, # of connection points: 2
#     Edge 14, Type (0, 0), BuildingBlock: ZUJKAS_clean_linker_0, # of connection points: 2
#     Edge 15, Type (0, 0), BuildingBlock: ZUJKAS_clean_linker_0, # of connection points: 2
#     Edge 16, Type (0, 0), BuildingBlock: ZUJKAS_clean_linker_0, # of connection points: 2
#     Edge 17, Type (0, 0), BuildingBlock: ZUJKAS_clean_linker_0, # of connection points: 2
#     Edge 18, Type (0, 0), BuildingBlock: ZUJKAS_clean_linker_0, # of connection points: 2
#     Edge 19, Type (0, 0), BuildingBlock: ZUJKAS_clean_linker_0, # of connection points: 2
#     Edge 20, Type (0, 0), BuildingBlock: ZUJKAS_clean_linker_0, # of connection points: 2
#     Edge 21, Type (0, 0), BuildingBlock: ZUJKAS_clean_linker_0, # of connection points: 2
#     Edge 22, Type (0, 0), BuildingBlock: ZUJKAS_clean_linker_0, # of connection points: 2
#     Edge 23, Type (0, 0), BuildingBlock: ZUJKAS_clean_linker_0, # of connection points: 2
#     Edge 24, Type (0, 0), BuildingBlock: ZUJKAS_clean_linker_0, # of connection points: 2
#     Edge 25, Type (0, 0), BuildingBlock: ZUJKAS_clean_linker_0, # of connection points: 2
#     Edge 26, Type (0, 0), BuildingBlock: ZUJKAS_clean_linker_0, # of connection points: 2
#     Edge 27, Type (0, 0), BuildingBlock: ZUJKAS_clean_linker_0, # of connection points: 2
#     Edge 28, Type (0, 0), BuildingBlock: ZUJKAS_clean_linker_0, # of connection points: 2
#     Edge 29, Type (0, 0), BuildingBlock: ZUJKAS_clean_linker_0, # of connection points: 2
#     Edge 30, Type (0, 0), BuildingBlock: ZUJKAS_clean_linker_0, # of connection points: 2
#     Edge 31, Type (0, 0), BuildingBlock: ZUJKAS_clean_linker_0, # of connection points: 2
#     Edge 32, Type (0, 0), BuildingBlock: ZUJKAS_clean_linker_0, # of connection points: 2
#     Edge 33, Type (0, 0), BuildingBlock: ZUJKAS_clean_linker_0, # of connection points: 2
#     Edge 34, Type (0, 0), BuildingBlock: ZUJKAS_clean_linker_0, # of connection points: 2
#     Edge 35, Type (0, 0), BuildingBlock: ZUJKAS_clean_linker_0, # of connection points: 2
#     Edge 36, Type (0, 0), BuildingBlock: ZUJKAS_clean_linker_0, # of connection points: 2
#     Edge 37, Type (0, 0), BuildingBlock: ZUJKAS_clean_linker_0, # of connection points: 2
#     Edge 38, Type (0, 0), BuildingBlock: ZUJKAS_clean_linker_0, # of connection points: 2
#     Edge 39, Type (0, 0), BuildingBlock: ZUJKAS_clean_linker_0, # of connection points: 2
#     Edge 40, Type (0, 0), BuildingBlock: ZUJKAS_clean_linker_0, # of connection points: 2
#     Edge 41, Type (0, 0), BuildingBlock: ZUJKAS_clean_linker_0, # of connection points: 2
# Relax obj value: 0.169
# Max RMSD: 0.189
# Mean RMSD: 0.189
data_MOF--net-wjz--node1-XOMCOT_clean_sbu_1--edge1-ZUJKAS_clean_linker_0
_symmetry_space_group_name_H-M    P1
_symmetry_Int_Tables_number       1
_symmetry_cell_setting            triclinic
loop_
_symmetry_equiv_pos_as_xyz
'x, y, z'
_cell_length_a     93.101926
_cell_length_b     93.120201
_cell_length_c     21.869251
_cell_angle_alpha  89.994774
_cell_angle_beta   89.995995
_cell_angle_gamma 119.99363
loop_
_atom_site_label
_atom_site_type_symbol
_atom_site_fract_x
_atom_site_fract_y
_atom_site_fract_z
_atom_type_partial_charge
C0 C 0.31403 0.45118 0.02682 0.0
C1 C 0.3116 0.44829 0.96501 0.0
N2 N 0.32014 0.46292 0.93572 0.0
N3 N 0.32413 0.46753 0.03633 0.0
C4 C 0.32755 0.4744 0.98009 0.0
H5 H 0.30892 0.44195 0.06266 0.0
Co6 Co 0.33152 0.47724 0.11221 0.0
C7 C 0.36595 0.50399 0.09024 0.0
O8 O 0.37085 0.49919 0.13859 0.0
N9 N 0.33837 0.48715 0.18993 0.0
C10 C 0.34623 0.50635 0.26291 0.0
C11 C 0.34514 0.50357 0.20107 0.0
C12 C 0.3348 0.48021 0.24627 0.0
N13 N 0.33968 0.49161 0.29139 0.0
O14 O 0.31933 0.4884 0.10443 0.0
H15 H 0.34836 0.51297 0.16639 0.0
H16 H 0.32759 0.46708 0.25464 0.0
O17 O 0.35067 0.49621 0.07457 0.0
C18 C 0.30391 0.47965 0.11524 0.0
O19 O 0.29753 0.46365 0.12429 0.0
N20 N 0.34284 0.46528 0.12023 0.0
C21 C 0.35681 0.44498 0.1326 0.0
C22 C 0.36216 0.457 0.08633 0.0
C23 C 0.35476 0.46676 0.08007 0.0
C24 C 0.33641 0.45259 0.16131 0.0
C25 C 0.3435 0.44263 0.16965 0.0
H26 H 0.35838 0.47519 0.04182 0.0
H27 H 0.32528 0.44968 0.18611 0.0
H28 H 0.33564 0.4875 0.97172 0.0
H29 H 0.30409 0.43635 0.94339 0.0
H30 H 0.35106 0.51829 0.28496 0.0
H31 H 0.37169 0.4586 0.05418 0.0
H32 H 0.33852 0.43314 0.20467 0.0
C33 C 0.86095 0.31425 0.19318 0.0
C34 C 0.86129 0.31176 0.1314 0.0
N35 N 0.8552 0.32033 0.10218 0.0
N36 N 0.85475 0.32439 0.20283 0.0
C37 C 0.85123 0.32779 0.14673 0.0
H38 H 0.86522 0.30925 0.2289 0.0
Co39 Co 0.85255 0.33181 0.27862 0.0
C40 C 0.85979 0.3661 0.25779 0.0
O41 O 0.86938 0.37089 0.30643 0.0
N42 N 0.84963 0.33866 0.3563 0.0
C43 C 0.8381 0.34613 0.42982 0.0
C44 C 0.83954 0.34491 0.36792 0.0
C45 C 0.85357 0.33557 0.41239 0.0
N46 N 0.84691 0.3402 0.45782 0.0
O47 O 0.82917 0.31953 0.27143 0.0
H48 H 0.83294 0.34769 0.33354 0.0
H49 H 0.86006 0.32889 0.42042 0.0
O50 O 0.85252 0.35089 0.24123 0.0
C51 C 0.8225 0.30412 0.28235 0.0
O52 O 0.83211 0.29771 0.29141 0.0
N53 N 0.87585 0.3432 0.28582 0.0
C54 C 0.91012 0.35666 0.29386 0.0
C55 C 0.90327 0.36245 0.24998 0.0
C56 C 0.8861 0.35526 0.24567 0.0
C57 C 0.88229 0.33656 0.32526 0.0
C58 C 0.8994 0.34337 0.33129 0.0
H59 H 0.88114 0.35911 0.20864 0.0
H60 H 0.87415 0.32537 0.34997 0.0
H61 H 0.84585 0.33557 0.13879 0.0
H62 H 0.86609 0.30457 0.10977 0.0
H63 H 0.83072 0.35059 0.45226 0.0
H64 H 0.91107 0.37236 0.21886 0.0
H65 H 0.90416 0.3379 0.36336 0.0
C66 C 0.54663 0.86076 0.36175 0.0
C67 C 0.54959 0.86128 0.3 0.0
N68 N 0.53507 0.85575 0.27041 0.0
N69 N 0.53034 0.85502 0.37097 0.0
C70 C 0.52358 0.85194 0.31457 0.0
H71 H 0.55577 0.86452 0.39778 0.0
Co72 Co 0.52074 0.85304 0.44687 0.0
C73 C 0.49408 0.86089 0.42508 0.0
O74 O 0.49894 0.87064 0.47328 0.0
N75 N 0.51099 0.85039 0.52462 0.0
C76 C 0.49182 0.8394 0.5978 0.0
C77 C 0.49459 0.84063 0.53598 0.0
C78 C 0.51793 0.85436 0.5809 0.0
N79 N 0.50654 0.84801 0.62617 0.0
O80 O 0.50915 0.82965 0.43972 0.0
H81 H 0.48521 0.83413 0.5015 0.0
H82 H 0.53109 0.86069 0.5892 0.0
O83 O 0.50186 0.8534 0.40929 0.0
C84 C 0.51727 0.8222 0.44778 0.0
O85 O 0.53344 0.831 0.45466 0.0
N86 N 0.53304 0.87632 0.45396 0.0
C87 C 0.55397 0.91053 0.46307 0.0
C88 C 0.54141 0.90383 0.4189 0.0
C89 C 0.53139 0.8867 0.41396 0.0
C90 C 0.54611 0.8826 0.49346 0.0
C91 C 0.55652 0.89968 0.49984 0.0
H92 H 0.52266 0.88185 0.37663 0.0
H93 H 0.54895 0.87433 0.51836 0.0
H94 H 0.51057 0.84742 0.30592 0.0
H95 H 0.56151 0.86539 0.2786 0.0
H96 H 0.47989 0.83233 0.61994 0.0
H97 H 0.53964 0.91175 0.38715 0.0
H98 H 0.56649 0.90432 0.53295 0.0
C99 C 0.68708 0.5473 0.53256 0.0
C100 C 0.6907 0.54962 0.47113 0.0
N101 N 0.68147 0.535 0.44236 0.0
N102 N 0.6756 0.53131 0.54246 0.0
C103 C 0.67252 0.52409 0.48683 0.0
H104 H 0.69222 0.5567 0.56777 0.0
Co105 Co 0.66643 0.52242 0.61817 0.0
C106 C 0.63157 0.49833 0.58561 0.0
O107 O 0.62624 0.50474 0.62729 0.0
N108 N 0.65796 0.51339 0.69607 0.0
C109 C 0.64629 0.49538 0.77261 0.0
C110 C 0.64702 0.49742 0.71037 0.0
C111 C 0.6645 0.52044 0.75077 0.0
N112 N 0.65731 0.50991 0.79813 0.0
O113 O 0.67709 0.50967 0.61747 0.0
H114 H 0.64081 0.48741 0.67807 0.0
H115 H 0.67501 0.53278 0.7557 0.0
O116 O 0.64714 0.50417 0.57824 0.0
C117 C 0.69237 0.51762 0.63129 0.0
O118 O 0.69948 0.53367 0.64092 0.0
N119 N 0.65647 0.53588 0.61908 0.0
C120 C 0.64376 0.55745 0.61965 0.0
C121 C 0.64065 0.54665 0.57042 0.0
C122 C 0.64735 0.53618 0.57054 0.0
C123 C 0.66059 0.54718 0.66497 0.0
C124 C 0.65408 0.55779 0.66694 0.0
H125 H 0.64526 0.52838 0.53114 0.0
H126 H 0.66933 0.54845 0.69953 0.0
H127 H 0.66384 0.51109 0.47905 0.0
H128 H 0.69909 0.56129 0.44923 0.0
H129 H 0.63899 0.48381 0.79686 0.0
H130 H 0.63334 0.54645 0.53157 0.0
H131 H 0.65712 0.56615 0.70537 0.0
C132 C 0.13395 0.68257 0.69993 0.0
C133 C 0.13322 0.68447 0.63786 0.0
N134 N 0.1403 0.6767 0.60962 0.0
N135 N 0.14138 0.67357 0.71069 0.0
C136 C 0.14523 0.6703 0.65497 0.0
H137 H 0.12928 0.68734 0.73504 0.0
Co138 Co 0.14519 0.66748 0.78675 0.0
C139 C 0.13872 0.63316 0.77089 0.0
O140 O 0.1308 0.62884 0.82342 0.0
N141 N 0.1497 0.66187 0.86438 0.0
C142 C 0.16263 0.65562 0.93644 0.0
C143 C 0.16086 0.65687 0.87469 0.0
C144 C 0.14532 0.6641 0.92103 0.0
N145 N 0.15287 0.66024 0.96548 0.0
O146 O 0.16837 0.67971 0.77293 0.0
H147 H 0.16773 0.65475 0.8394 0.0
H148 H 0.13719 0.66893 0.93033 0.0
O149 O 0.1447 0.64799 0.75122 0.0
C150 C 0.17561 0.69541 0.77624 0.0
O151 O 0.1666 0.70257 0.78241 0.0
N152 N 0.12215 0.65609 0.80053 0.0
C153 C 0.08819 0.64255 0.82045 0.0
C154 C 0.09404 0.63559 0.77714 0.0
C155 C 0.11104 0.64277 0.76689 0.0
C156 C 0.11661 0.66385 0.83867 0.0
C157 C 0.09973 0.65706 0.8507 0.0
H158 H 0.1151 0.63791 0.73021 0.0
H159 H 0.12532 0.67567 0.85855 0.0
H160 H 0.15175 0.66354 0.64793 0.0
H161 H 0.12761 0.69081 0.61542 0.0
H162 H 0.17101 0.6523 0.95823 0.0
H163 H 0.08556 0.62499 0.74993 0.0
H164 H 0.09581 0.6632 0.88314 0.0
C165 C 0.45012 0.13565 0.85506 0.0
C166 C 0.44736 0.13469 0.79305 0.0
N167 N 0.46208 0.14071 0.7645 0.0
N168 N 0.46648 0.14212 0.86535 0.0
C169 C 0.47347 0.14521 0.8094 0.0
H170 H 0.44081 0.13178 0.8905 0.0
Co171 Co 0.47618 0.14529 0.94149 0.0
C172 C 0.50335 0.13793 0.92504 0.0
O173 O 0.49893 0.1292 0.97582 0.0
N174 N 0.48609 0.14914 0.01927 0.0
C175 C 0.50527 0.16136 0.09175 0.0
C176 C 0.50233 0.15988 0.03001 0.0
C177 C 0.47936 0.14471 0.07572 0.0
N178 N 0.49077 0.15181 0.12054 0.0
O179 O 0.48743 0.16853 0.92983 0.0
H180 H 0.51147 0.16664 0.99502 0.0
H181 H 0.46627 0.13727 0.08454 0.0
O182 O 0.49514 0.1447 0.90598 0.0
C183 C 0.47891 0.17558 0.93788 0.0
O184 O 0.46285 0.16632 0.94658 0.0
N185 N 0.46413 0.12218 0.95319 0.0
C186 C 0.44341 0.08823 0.97093 0.0
C187 C 0.45621 0.09412 0.92765 0.0
C188 C 0.46612 0.11113 0.91818 0.0
C189 C 0.45081 0.11661 0.99127 0.0
C190 C 0.44049 0.09969 0.00195 0.0
H191 H 0.47502 0.11528 0.88142 0.0
H192 H 0.44786 0.12533 0.01212 0.0
H193 H 0.48662 0.15035 0.80166 0.0
H194 H 0.43546 0.13002 0.77077 0.0
H195 H 0.51713 0.16909 0.11357 0.0
H196 H 0.45825 0.08563 0.90012 0.0
H197 H 0.43034 0.09565 0.03411 0.0
C198 C 0.54683 0.68578 0.79876 0.0
C199 C 0.54966 0.68816 0.86061 0.0
N200 N 0.53503 0.67935 0.88974 0.0
N201 N 0.53052 0.67545 0.78906 0.0
C202 C 0.52362 0.67184 0.84524 0.0
H203 H 0.55606 0.6911 0.76301 0.0
Co204 Co 0.52086 0.66803 0.71312 0.0
C205 C 0.49459 0.6333 0.73422 0.0
O206 O 0.49943 0.6286 0.68547 0.0
N207 N 0.51098 0.66108 0.63544 0.0
C208 C 0.49166 0.65274 0.56276 0.0
C209 C 0.49454 0.65427 0.62455 0.0
C210 C 0.51782 0.66416 0.57896 0.0
N211 N 0.50635 0.65901 0.53402 0.0
O212 O 0.50899 0.67953 0.72192 0.0
H213 H 0.4852 0.6512 0.65935 0.0
H214 H 0.53095 0.6711 0.57025 0.0
O215 O 0.50223 0.64853 0.7504 0.0
C216 C 0.51699 0.69517 0.7156 0.0
O217 O 0.53319 0.70274 0.70945 0.0
N218 N 0.53342 0.65738 0.70424 0.0
C219 C 0.55459 0.64445 0.69071 0.0
C220 C 0.54231 0.63838 0.73612 0.0
C221 C 0.53212 0.64528 0.74307 0.0
C222 C 0.54632 0.66448 0.66409 0.0
C223 C 0.55676 0.65794 0.65524 0.0
H224 H 0.52353 0.64114 0.78089 0.0
H225 H 0.54895 0.67569 0.64036 0.0
H226 H 0.51054 0.66356 0.85346 0.0
H227 H 0.56155 0.69581 0.88237 0.0
H228 H 0.47967 0.64773 0.5409 0.0
H229 H 0.54084 0.62867 0.76713 0.0
H230 H 0.56644 0.66346 0.62108 0.0
C231 C 0.85835 0.54714 0.96005 0.0
C232 C 0.8573 0.54964 0.02148 0.0
N233 N 0.85188 0.53508 0.05072 0.0
N234 N 0.85366 0.53109 0.95058 0.0
C235 C 0.84966 0.52401 0.00651 0.0
H236 H 0.86258 0.55646 0.92453 0.0
Co237 Co 0.85362 0.52199 0.87495 0.0
C238 C 0.86391 0.49754 0.90702 0.0
O239 O 0.87549 0.50372 0.86473 0.0
N240 N 0.85273 0.51276 0.79715 0.0
C241 C 0.8457 0.49447 0.72124 0.0
C242 C 0.84716 0.49666 0.7834 0.0
C243 C 0.85343 0.51979 0.74219 0.0
N244 N 0.84967 0.50906 0.69518 0.0
O245 O 0.8302 0.50954 0.8764 0.0
H246 H 0.84309 0.48669 0.81609 0.0
H247 H 0.85566 0.53226 0.73685 0.0
O248 O 0.85441 0.50362 0.91499 0.0
C249 C 0.82297 0.51759 0.8626 0.0
O250 O 0.83202 0.53361 0.85239 0.0
N251 N 0.87708 0.53514 0.87341 0.0
C252 C 0.91138 0.55629 0.87247 0.0
C253 C 0.90366 0.5456 0.92184 0.0
C254 C 0.88647 0.53532 0.92187 0.0
C255 C 0.88436 0.54637 0.82731 0.0
C256 C 0.90152 0.55676 0.82512 0.0
H257 H 0.88073 0.52753 0.96128 0.0
H258 H 0.87695 0.54783 0.79301 0.0
H259 H 0.84526 0.51101 0.01467 0.0
H260 H 0.86077 0.56139 0.04306 0.0
H261 H 0.84101 0.48278 0.69746 0.0
H262 H 0.91081 0.54509 0.95997 0.0
H263 H 0.90697 0.56542 0.78753 0.0
C264 C 0.31276 0.86104 0.13301 0.0
C265 C 0.31016 0.86098 0.19489 0.0
N266 N 0.31924 0.85537 0.2234 0.0
N267 N 0.32345 0.85554 0.12262 0.0
C268 C 0.32708 0.85204 0.17837 0.0
H269 H 0.3075 0.86517 0.09777 0.0
Co270 Co 0.33141 0.85434 0.04659 0.0
C271 C 0.36582 0.86189 0.06887 0.0
O272 O 0.37089 0.87201 0.02172 0.0
N273 N 0.33889 0.8525 0.96867 0.0
C274 C 0.34739 0.84231 0.89367 0.0
C275 C 0.3454 0.84271 0.95565 0.0
C276 C 0.33643 0.85733 0.91323 0.0
N277 N 0.34168 0.85148 0.86707 0.0
O278 O 0.31955 0.83089 0.05045 0.0
H279 H 0.34781 0.83559 0.98895 0.0
H280 H 0.33024 0.86434 0.90597 0.0
O281 O 0.3505 0.85434 0.08401 0.0
C282 C 0.30404 0.82371 0.04084 0.0
O283 O 0.29693 0.83276 0.03473 0.0
N284 N 0.34236 0.87765 0.04269 0.0
C285 C 0.35547 0.91188 0.03726 0.0
C286 C 0.36147 0.90493 0.07989 0.0
C287 C 0.35442 0.88776 0.08306 0.0
C288 C 0.3354 0.88413 0.00497 0.0
C289 C 0.34199 0.90124 0.0004 0.0
H290 H 0.3584 0.88269 0.1193 0.0
H291 H 0.32427 0.87598 0.9799 0.0
H292 H 0.33536 0.84721 0.18578 0.0
H293 H 0.30261 0.86527 0.2171 0.0
H294 H 0.35177 0.83504 0.86987 0.0
H295 H 0.37122 0.91266 0.11171 0.0
H296 H 0.33655 0.90606 0.96846 0.0
C297 C 0.45167 0.31342 0.30511 0.0
C298 C 0.44918 0.31072 0.36698 0.0
N299 N 0.46399 0.31922 0.3952 0.0
N300 N 0.46795 0.32361 0.29449 0.0
C301 C 0.47517 0.32683 0.35004 0.0
H302 H 0.44222 0.30849 0.27004 0.0
Co303 Co 0.47734 0.33125 0.21851 0.0
C304 C 0.50382 0.36577 0.23971 0.0
O305 O 0.49869 0.37043 0.19163 0.0
N306 N 0.48694 0.33836 0.1406 0.0
C307 C 0.50595 0.34652 0.06671 0.0
C308 C 0.50333 0.34511 0.12867 0.0
C309 C 0.47984 0.33509 0.0846 0.0
N310 N 0.49112 0.34014 0.03908 0.0
O311 O 0.48884 0.31935 0.22462 0.0
H312 H 0.5128 0.34805 0.16282 0.0
H313 H 0.46668 0.3284 0.07658 0.0
O314 O 0.49628 0.35053 0.25583 0.0
C315 C 0.48024 0.30393 0.21375 0.0
O316 O 0.46418 0.29733 0.20566 0.0
N317 N 0.46503 0.34225 0.21231 0.0
C318 C 0.44405 0.35547 0.20418 0.0
C319 C 0.45638 0.36104 0.24919 0.0
C320 C 0.46651 0.35402 0.25331 0.0
C321 C 0.45208 0.33566 0.17228 0.0
C322 C 0.44176 0.34244 0.16597 0.0
H323 H 0.47523 0.35778 0.29066 0.0
H324 H 0.44919 0.32459 0.14713 0.0
H325 H 0.48837 0.33457 0.35715 0.0
H326 H 0.43732 0.30343 0.38939 0.0
H327 H 0.51773 0.35097 0.04381 0.0
H328 H 0.45814 0.3707 0.28104 0.0
H329 H 0.43174 0.33717 0.13301 0.0
C330 C 0.13403 0.45212 0.46699 0.0
C331 C 0.13362 0.44954 0.52901 0.0
N332 N 0.14064 0.46441 0.5571 0.0
N333 N 0.14117 0.46851 0.45616 0.0
C334 C 0.14521 0.4757 0.51173 0.0
H335 H 0.12927 0.44265 0.43197 0.0
Co336 Co 0.14431 0.47822 0.38009 0.0
C337 C 0.13844 0.50637 0.39721 0.0
O338 O 0.12999 0.50249 0.3458 0.0
N339 N 0.14814 0.48808 0.30227 0.0
C340 C 0.16069 0.50692 0.22886 0.0
C341 C 0.15938 0.50414 0.29075 0.0
C342 C 0.14326 0.48125 0.24616 0.0
N343 N 0.15058 0.49246 0.20094 0.0
O344 O 0.16759 0.48881 0.3904 0.0
H345 H 0.16666 0.51322 0.32525 0.0
H346 H 0.13499 0.46826 0.23779 0.0
O347 O 0.14452 0.49754 0.41627 0.0
C348 C 0.17413 0.47985 0.38167 0.0
O349 O 0.1644 0.46385 0.37301 0.0
N350 N 0.12114 0.46682 0.36978 0.0
C351 C 0.08695 0.44636 0.35675 0.0
C352 C 0.09342 0.4595 0.39864 0.0
C353 C 0.11054 0.46932 0.40558 0.0
C354 C 0.11502 0.45331 0.33246 0.0
C355 C 0.09798 0.44316 0.32398 0.0
H356 H 0.11513 0.4785 0.44142 0.0
H357 H 0.12339 0.44998 0.311 0.0
H358 H 0.15154 0.48896 0.51868 0.0
H359 H 0.12823 0.43761 0.55155 0.0
H360 H 0.16905 0.51846 0.20613 0.0
H361 H 0.08535 0.46212 0.42628 0.0
H362 H 0.09349 0.43259 0.29362 0.0
C363 C 0.68443 0.1358 0.63663 0.0
C364 C 0.68667 0.13514 0.69846 0.0
N365 N 0.67778 0.14084 0.72773 0.0
N366 N 0.67409 0.14177 0.62706 0.0
C367 C 0.67034 0.14487 0.68333 0.0
H368 H 0.68984 0.13203 0.60078 0.0
Co369 Co 0.66688 0.14424 0.55106 0.0
C370 C 0.63234 0.13646 0.57064 0.0
O371 O 0.62775 0.12714 0.5213 0.0
N372 N 0.66018 0.14738 0.4733 0.0
C373 C 0.65249 0.15893 0.40061 0.0
C374 C 0.65402 0.15757 0.46236 0.0
C375 C 0.66285 0.14323 0.41687 0.0
N376 N 0.65811 0.14993 0.3719 0.0
O377 O 0.6788 0.16757 0.56001 0.0
H378 H 0.65136 0.16416 0.49716 0.0
H379 H 0.66917 0.13642 0.40823 0.0
O380 O 0.64749 0.14373 0.5879 0.0
C381 C 0.69428 0.17455 0.54996 0.0
O382 O 0.70099 0.16523 0.54073 0.0
N383 N 0.6559 0.12103 0.54204 0.0
C384 C 0.64278 0.08694 0.52902 0.0
C385 C 0.6364 0.09321 0.57291 0.0
C386 C 0.64345 0.11029 0.57993 0.0
C387 C 0.66318 0.11514 0.50309 0.0
C388 C 0.65661 0.09813 0.49476 0.0
H389 H 0.63916 0.11479 0.61709 0.0
H390 H 0.67454 0.12367 0.47998 0.0
H391 H 0.66203 0.14962 0.69167 0.0
H392 H 0.69432 0.13088 0.72014 0.0
H393 H 0.64793 0.1663 0.37874 0.0
H394 H 0.62634 0.08497 0.60277 0.0
H395 H 0.66233 0.09382 0.46198 0.0
H396 H 0.33674 0.46499 0.35284 0.0
H397 H 0.33235 0.45966 0.46264 0.0
H398 H 0.33346 0.50615 0.48732 0.0
H399 H 0.33716 0.51126 0.37753 0.0
H400 H 0.35266 0.4783 0.55727 0.0
H401 H 0.29108 0.47376 0.57609 0.0
H402 H 0.29996 0.47302 0.5036 0.0
H403 H 0.30657 0.49258 0.54073 0.0
C404 C 0.33579 0.47396 0.38144 0.0
C405 C 0.33722 0.48851 0.3562 0.0
C406 C 0.3334 0.47094 0.44422 0.0
C407 C 0.33233 0.48239 0.48291 0.0
C408 C 0.33391 0.49699 0.45808 0.0
H409 H 0.32554 0.4906 0.87537 0.0
H410 H 0.32873 0.49535 0.76476 0.0
C411 C 0.33626 0.5 0.39532 0.0
C412 C 0.33012 0.4793 0.54955 0.0
H413 H 0.30482 0.47511 0.66952 0.0
C414 C 0.34215 0.4775 0.58178 0.0
C415 C 0.31639 0.47829 0.58131 0.0
C416 C 0.30268 0.47935 0.54864 0.0
C417 C 0.34098 0.47498 0.64523 0.0
C418 C 0.32734 0.47409 0.67695 0.0
C419 C 0.31529 0.47588 0.64485 0.0
C420 C 0.3253 0.47115 0.74356 0.0
C421 C 0.35448 0.47358 0.6781 0.0
C422 C 0.32213 0.45591 0.76783 0.0
C423 C 0.32032 0.45317 0.83083 0.0
C424 C 0.32165 0.46564 0.87065 0.0
C425 C 0.32467 0.48085 0.84598 0.0
C426 C 0.32639 0.48355 0.78288 0.0
H427 H 0.36577 0.47799 0.64942 0.0
H428 H 0.35794 0.48083 0.72127 0.0
H429 H 0.34988 0.4604 0.68998 0.0
H430 H 0.32108 0.44614 0.738 0.0
H431 H 0.31817 0.44139 0.8484 0.0
H432 H 0.85311 0.29869 0.01478 0.0
H433 H 0.85236 0.30191 0.90424 0.0
H434 H 0.85302 0.34812 0.93084 0.0
H435 H 0.85451 0.3454 0.04122 0.0
H436 H 0.8294 0.30434 0.83355 0.0
H437 H 0.89107 0.36104 0.81148 0.0
H438 H 0.8846 0.34857 0.88003 0.0
H439 H 0.87769 0.36316 0.8653 0.0
C440 C 0.8533 0.30964 0.99722 0.0
C441 C 0.854 0.32184 0.03705 0.0
C442 C 0.85275 0.3114 0.93402 0.0
C443 C 0.85293 0.32539 0.90944 0.0
C444 C 0.85323 0.3374 0.94892 0.0
H445 H 0.82457 0.33676 0.54473 0.0
H446 H 0.82627 0.33291 0.65418 0.0
C447 C 0.85385 0.3357 0.01212 0.0
C448 C 0.85253 0.32728 0.84244 0.0
H449 H 0.87356 0.35312 0.72385 0.0
C450 C 0.83909 0.31496 0.80945 0.0
C451 C 0.86534 0.34101 0.81113 0.0
C452 C 0.88058 0.35412 0.84366 0.0
C453 C 0.8379 0.31619 0.74597 0.0
C454 C 0.85033 0.33029 0.71508 0.0
C455 C 0.86397 0.34242 0.74785 0.0
C456 C 0.8494 0.33275 0.64875 0.0
C457 C 0.82346 0.30229 0.71252 0.0
C458 C 0.86211 0.33446 0.6097 0.0
C459 C 0.86133 0.33696 0.54712 0.0
C460 C 0.84783 0.33784 0.52251 0.0
C461 C 0.83521 0.3363 0.56204 0.0
C462 C 0.83604 0.33386 0.62459 0.0
H463 H 0.81786 0.29056 0.73915 0.0
H464 H 0.81374 0.30568 0.70526 0.0
H465 H 0.82733 0.30004 0.66714 0.0
H466 H 0.87261 0.3338 0.62765 0.0
H467 H 0.87138 0.33837 0.51816 0.0
H468 H 0.50722 0.83431 0.20902 0.0
H469 H 0.50283 0.83306 0.09835 0.0
H470 H 0.55255 0.87399 0.07378 0.0
H471 H 0.55703 0.87526 0.18414 0.0
H472 H 0.50419 0.85707 0.02173 0.0
H473 H 0.55123 0.84011 0.95373 0.0
H474 H 0.54438 0.83882 0.03177 0.0
H475 H 0.55944 0.85847 -0.0001 0.0
C476 C 0.5172 0.84305 0.18003 0.0
C477 C 0.53251 0.85482 0.20529 0.0
C478 C 0.5147 0.84227 0.11685 0.0
C479 C 0.52746 0.85324 0.07783 0.0
C480 C 0.54269 0.86512 0.10293 0.0
H481 H 0.53327 0.87196 0.68677 0.0
H482 H 0.53845 0.87351 0.79696 0.0
C483 C 0.54523 0.86584 0.16602 0.0
C484 C 0.52464 0.85262 0.01103 0.0
H485 H 0.53904 0.84767 0.87357 0.0
C486 C 0.51175 0.85493 0.98934 0.0
C487 C 0.53456 0.84986 0.96894 0.0
C488 C 0.54808 0.84652 0.98967 0.0
C489 C 0.50863 0.85476 0.92654 0.0
C490 C 0.51858 0.85206 0.88457 0.0
C491 C 0.53151 0.84981 0.90609 0.0
C492 C 0.51548 0.85112 0.81809 0.0
C493 C 0.49486 0.85766 0.90538 0.0
C494 C 0.50096 0.8379 0.79375 0.0
C495 C 0.49804 0.83688 0.7309 0.0
C496 C 0.50959 0.84908 0.69112 0.0
C497 C 0.5242 0.86227 0.71587 0.0
C498 C 0.52714 0.86323 0.77881 0.0
H499 H 0.49075 0.86303 0.94214 0.0
H500 H 0.49888 0.8661 0.86526 0.0
H501 H 0.48406 0.84567 0.89125 0.0
H502 H 0.49196 0.82829 0.82338 0.0
H503 H 0.48683 0.82638 0.71357 0.0
H504 H 0.63668 0.49427 0.89287 0.0
H505 H 0.64306 0.49913 0.00175 0.0
H506 H 0.69291 0.53742 0.95879 0.0
H507 H 0.68667 0.53254 0.84951 0.0
H508 H 0.66797 0.49686 0.06787 0.0
H509 H 0.67627 0.56027 0.07778 0.0
H510 H 0.66635 0.54646 0.01411 0.0
H511 H 0.68852 0.55717 0.02147 0.0
C512 C 0.64904 0.50366 0.90645 0.0
C513 C 0.66115 0.51302 0.86234 0.0
C514 C 0.65264 0.50646 0.96872 0.0
C515 C 0.66839 0.51874 0.98827 0.0
C516 C 0.68057 0.52809 0.94458 0.0
H517 H 0.7055 0.55201 0.35814 0.0
H518 H 0.70341 0.5478 0.24736 0.0
C519 C 0.67697 0.5253 0.88212 0.0
C520 C 0.67199 0.52151 0.05455 0.0
H521 H 0.68096 0.5497 0.16891 0.0
C522 C 0.67085 0.50842 0.09001 0.0
C523 C 0.67582 0.53664 0.08313 0.0
C524 C 0.67671 0.55093 0.04743 0.0
C525 C 0.67338 0.51002 0.15348 0.0
C526 C 0.67682 0.525 0.1823 0.0
C527 C 0.67831 0.53822 0.14665 0.0
C528 C 0.67833 0.52704 0.24961 0.0
C529 C 0.67245 0.49569 0.18904 0.0
C530 C 0.66489 0.51682 0.28754 0.0
C531 C 0.66602 0.51922 0.35081 0.0
C532 C 0.68058 0.532 0.37739 0.0
C533 C 0.69405 0.54217 0.33917 0.0
C534 C 0.69291 0.53974 0.27589 0.0
H535 H 0.67454 0.48726 0.1591 0.0
H536 H 0.68172 0.50014 0.22657 0.0
H537 H 0.65992 0.48838 0.20955 0.0
H538 H 0.65337 0.5072 0.26808 0.0
H539 H 0.6553 0.51137 0.37861 0.0
H540 H 0.14693 0.68235 0.02443 0.0
H541 H 0.14519 0.68515 0.13488 0.0
H542 H 0.15426 0.64457 0.16437 0.0
H543 H 0.15607 0.64173 0.05381 0.0
H544 H 0.12367 0.66225 0.21812 0.0
H545 H 0.18884 0.68073 0.27374 0.0
H546 H 0.18197 0.68074 0.19659 0.0
H547 H 0.17799 0.66165 0.23183 0.0
C548 C 0.14844 0.67395 0.05436 0.0
C549 C 0.15167 0.66182 0.03046 0.0
C550 C 0.14754 0.67563 0.11744 0.0
C551 C 0.14987 0.66525 0.15773 0.0
C552 C 0.15284 0.65297 0.13406 0.0
H553 H 0.14346 0.65272 0.55085 0.0
H554 H 0.14583 0.65007 0.44071 0.0
C555 C 0.15384 0.65134 0.07097 0.0
C556 C 0.14877 0.66703 0.22448 0.0
H557 H 0.17051 0.67476 0.35776 0.0
C558 C 0.13393 0.66507 0.24866 0.0
C559 C 0.1622 0.67071 0.26406 0.0
C560 C 0.17871 0.67374 0.2403 0.0
C561 C 0.13206 0.66643 0.31163 0.0
C562 C 0.14545 0.67001 0.35114 0.0
C563 C 0.16028 0.67196 0.3271 0.0
C564 C 0.1443 0.67185 0.4177 0.0
C565 C 0.11571 0.66377 0.33563 0.0
C566 C 0.14292 0.68513 0.44099 0.0
C567 C 0.14172 0.68678 0.50394 0.0
C568 C 0.1419 0.67519 0.54472 0.0
C569 C 0.14348 0.66199 0.521 0.0
C570 C 0.14474 0.66039 0.45804 0.0
H571 H 0.10564 0.65771 0.30124 0.0
H572 H 0.11202 0.65604 0.37766 0.0
H573 H 0.117 0.67594 0.34759 0.0
H574 H 0.14285 0.69425 0.41044 0.0
H575 H 0.14082 0.69724 0.52058 0.0
H576 H 0.44116 0.1203 0.6776 0.0
H577 H 0.44626 0.12174 0.56749 0.0
H578 H 0.49457 0.16477 0.59424 0.0
H579 H 0.48959 0.16331 0.70445 0.0
H580 H 0.4526 0.14672 0.48714 0.0
H581 H 0.50542 0.13494 0.49278 0.0
H582 H 0.4922 0.13141 0.55809 0.0
H583 H 0.50849 0.15204 0.5398 0.0
C584 C 0.45284 0.1301 0.65999 0.0
C585 C 0.46501 0.14165 0.69966 0.0
C586 C 0.45576 0.13086 0.59717 0.0
C587 C 0.4709 0.14318 0.57291 0.0
C588 C 0.48298 0.15489 0.61224 0.0
H589 H 0.50939 0.17406 0.20816 0.0
H590 H 0.50427 0.1715 0.31818 0.0
C591 C 0.4801 0.15407 0.67514 0.0
C592 C 0.47384 0.14403 0.50623 0.0
H593 H 0.49999 0.1437 0.39753 0.0
C594 C 0.46289 0.14595 0.46748 0.0
C595 C 0.48727 0.14299 0.48084 0.0
C596 C 0.49893 0.14007 0.51994 0.0
C597 C 0.46521 0.14718 0.40396 0.0
C598 C 0.47874 0.14635 0.37878 0.0
C599 C 0.48966 0.14438 0.41733 0.0
C600 C 0.48185 0.14765 0.31235 0.0
C601 C 0.4534 0.14969 0.36421 0.0
C602 C 0.47101 0.13495 0.27304 0.0
C603 C 0.47397 0.13627 0.21014 0.0
C604 C 0.48784 0.15033 0.18554 0.0
C605 C 0.49873 0.16297 0.22544 0.0
C606 C 0.49579 0.16159 0.28831 0.0
H607 H 0.44545 0.15307 0.39144 0.0
H608 H 0.46033 0.15955 0.3298 0.0
H609 H 0.44521 0.13803 0.3392 0.0
H610 H 0.46031 0.12398 0.29109 0.0
H611 H 0.46551 0.12619 0.18095 0.0
H612 H 0.48645 0.6607 0.44685 0.0
H613 H 0.49143 0.66374 0.3369 0.0
H614 H 0.53826 0.66567 0.36325 0.0
H615 H 0.53306 0.66188 0.47316 0.0
H616 H 0.51688 0.68935 0.27435 0.0
H617 H 0.51663 0.63047 0.23148 0.0
H618 H 0.50921 0.63451 0.302 0.0
H619 H 0.53109 0.64323 0.28923 0.0
C620 C 0.49769 0.66148 0.42937 0.0
C621 C 0.50931 0.66092 0.46901 0.0
C622 C 0.50057 0.66336 0.36647 0.0
C623 C 0.51509 0.66468 0.34187 0.0
C624 C 0.52681 0.66433 0.38119 0.0
H625 H 0.55662 0.68151 0.97714 0.0
H626 H 0.55181 0.67849 0.08756 0.0
C627 C 0.52391 0.66238 0.44413 0.0
C628 C 0.51811 0.66686 0.27518 0.0
H629 H 0.52516 0.64965 0.14909 0.0
C630 C 0.51862 0.68064 0.24688 0.0
C631 C 0.52035 0.65544 0.23956 0.0
C632 C 0.51915 0.64 0.26691 0.0
C633 C 0.52155 0.68344 0.18392 0.0
C634 C 0.52388 0.67209 0.14849 0.0
C635 C 0.5234 0.65833 0.17667 0.0
C636 C 0.5268 0.67425 0.08189 0.0
C637 C 0.52241 0.69866 0.15587 0.0
C638 C 0.51426 0.67275 0.04239 0.0
C639 C 0.51697 0.67448 0.97931 0.0
C640 C 0.53227 0.67776 0.95477 0.0
C641 C 0.54479 0.67924 0.99467 0.0
C642 C 0.54204 0.67742 0.05766 0.0
H643 H 0.52378 0.70786 0.19109 0.0
H644 H 0.53296 0.70468 0.12337 0.0
H645 H 0.51082 0.69496 0.12999 0.0
H646 H 0.50233 0.67011 0.06034 0.0
H647 H 0.50713 0.67339 0.94984 0.0
H648 H 0.84447 0.53266 0.64289 0.0
H649 H 0.84317 0.53739 0.53342 0.0
H650 H 0.85188 0.49712 0.49195 0.0
H651 H 0.8534 0.49243 0.60089 0.0
H652 H 0.86771 0.5448 0.44308 0.0
H653 H 0.81006 0.48577 0.39243 0.0
H654 H 0.81613 0.49361 0.46923 0.0
H655 H 0.82548 0.4831 0.4319 0.0
C656 C 0.84621 0.52487 0.61059 0.0
C657 C 0.84894 0.51208 0.63083 0.0
C658 C 0.84536 0.52753 0.54803 0.0
C659 C 0.84712 0.5174 0.50469 0.0
C660 C 0.85007 0.50481 0.52467 0.0
H661 H 0.8542 0.51135 0.11485 0.0
H662 H 0.85226 0.50748 0.22565 0.0
C663 C 0.85093 0.50214 0.58703 0.0
C664 C 0.84643 0.52027 0.4384 0.0
H665 H 0.82614 0.5013 0.30662 0.0
C666 C 0.85852 0.53539 0.41324 0.0
C667 C 0.83442 0.50793 0.39973 0.0
C668 C 0.82068 0.49174 0.42466 0.0
C669 C 0.85931 0.53828 0.34999 0.0
C670 C 0.8475 0.5258 0.31116 0.0
C671 C 0.8352 0.51081 0.3365 0.0
C672 C 0.848 0.52788 0.24389 0.0
C673 C 0.87312 0.55441 0.32502 0.0
C674 C 0.84589 0.54042 0.21735 0.0
C675 C 0.84693 0.54263 0.15395 0.0
C676 C 0.84999 0.53227 0.11584 0.0
C677 C 0.85167 0.51945 0.14262 0.0
C678 C 0.85065 0.51726 0.20602 0.0
H679 H 0.88325 0.56098 0.35885 0.0
H680 H 0.87843 0.55227 0.28284 0.0
H681 H 0.86812 0.56266 0.31322 0.0
H682 H 0.84347 0.54851 0.24569 0.0
H683 H 0.84528 0.55242 0.13479 0.0
H684 H 0.34531 0.85634 0.28295 0.0
H685 H 0.34859 0.85518 0.39317 0.0
H686 H 0.3011 0.85164 0.42218 0.0
H687 H 0.29737 0.85207 0.31187 0.0
H688 H 0.34961 0.87719 0.47951 0.0
H689 H 0.29747 0.81377 0.52621 0.0
H690 H 0.30514 0.82096 0.44999 0.0
H691 H 0.29144 0.82675 0.48621 0.0
C692 C 0.33539 0.85497 0.31253 0.0
C693 C 0.32101 0.85421 0.28837 0.0
C694 C 0.33736 0.85445 0.3756 0.0
C695 C 0.325 0.85312 0.41569 0.0
C696 C 0.31065 0.85236 0.39192 0.0
H697 H 0.31734 0.85436 0.81047 0.0
H698 H 0.31374 0.85576 0.70018 0.0
C699 C 0.30863 0.85281 0.32884 0.0
C700 C 0.32745 0.8532 0.48248 0.0
H701 H 0.31085 0.8307 0.61266 0.0
C702 C 0.34119 0.867 0.50863 0.0
C703 C 0.31641 0.83989 0.5202 0.0
C704 C 0.30187 0.82443 0.49426 0.0
C705 C 0.34407 0.86792 0.57179 0.0
C706 C 0.33301 0.85464 0.60941 0.0
C707 C 0.31924 0.84088 0.58342 0.0
C708 C 0.33567 0.85463 0.67586 0.0
C709 C 0.35879 0.88317 0.59802 0.0
C710 C 0.34919 0.85353 0.69829 0.0
C711 C 0.35129 0.85275 0.76114 0.0
C712 C 0.3399 0.85307 0.80252 0.0
C713 C 0.32646 0.85435 0.7798 0.0
C714 C 0.32431 0.85503 0.7169 0.0
H715 H 0.36399 0.89367 0.56516 0.0
H716 H 0.3553 0.88712 0.64075 0.0
H717 H 0.36866 0.88025 0.60943 0.0
H718 H 0.35796 0.85301 0.66712 0.0
H719 H 0.3618 0.85187 0.77744 0.0
H720 H 0.51097 0.35974 0.94861 0.0
H721 H 0.50596 0.35556 0.83846 0.0
H722 H 0.45937 0.311 0.87302 0.0
H723 H 0.46429 0.31513 0.98304 0.0
H724 H 0.50137 0.32877 0.76835 0.0
H725 H 0.44613 0.3367 0.75695 0.0
H726 H 0.45958 0.34278 0.82285 0.0
H727 H 0.44432 0.32136 0.81095 0.0
C728 C 0.49967 0.34906 0.93266 0.0
C729 C 0.48797 0.33784 0.97442 0.0
C730 C 0.4968 0.34672 0.86986 0.0
C731 C 0.48219 0.33312 0.84775 0.0
C732 C 0.47054 0.3218 0.88925 0.0
H733 H 0.44512 0.29719 0.48283 0.0
H734 H 0.4498 0.30012 0.59324 0.0
C735 C 0.47336 0.32418 0.95208 0.0
C736 C 0.47937 0.33055 0.78118 0.0
H737 H 0.45304 0.32736 0.66665 0.0
C738 C 0.49084 0.32852 0.74602 0.0
C739 C 0.4656 0.3302 0.75239 0.0
C740 C 0.45327 0.33303 0.78755 0.0
C741 C 0.48881 0.32598 0.68269 0.0
C742 C 0.47506 0.32565 0.65398 0.0
C743 C 0.46353 0.32758 0.6891 0.0
C744 C 0.47258 0.32368 0.58721 0.0
C745 C 0.50125 0.32345 0.64706 0.0
C746 C 0.48381 0.33603 0.54759 0.0
C747 C 0.48111 0.33448 0.48457 0.0
C748 C 0.46709 0.32055 0.46007 0.0
C749 C 0.45592 0.30816 0.50012 0.0
C750 C 0.45861 0.30975 0.56317 0.0
H751 H 0.50879 0.32022 0.67739 0.0
H752 H 0.49493 0.31347 0.6125 0.0
H753 H 0.50979 0.33507 0.62254 0.0
H754 H 0.4945 0.34702 0.56554 0.0
H755 H 0.4898 0.3444 0.45533 0.0
H756 H 0.15326 0.51377 0.11196 0.0
H757 H 0.15126 0.50879 0.00153 0.0
H758 H 0.14283 0.45943 0.03308 0.0
H759 H 0.14471 0.4643 0.1433 0.0
H760 H 0.17068 0.50114 0.92918 0.0
H761 H 0.10488 0.45091 0.91921 0.0
H762 H 0.11371 0.4639 0.98567 0.0
H763 H 0.11724 0.44688 0.9718 0.0
C764 C 0.15096 0.50186 0.09525 0.0
C765 C 0.14902 0.48939 0.1362 0.0
C766 C 0.14977 0.49902 0.03231 0.0
C767 C 0.14663 0.48365 0.0093 0.0
C768 C 0.14483 0.47122 0.05001 0.0
H769 H 0.14165 0.4446 0.64599 0.0
H770 H 0.14356 0.44959 0.7562 0.0
C771 C 0.1459 0.47402 0.11296 0.0
C772 C 0.14582 0.48085 0.94258 0.0
H773 H 0.12081 0.45582 0.82858 0.0
C774 C 0.15975 0.4913 0.90708 0.0
C775 C 0.13153 0.46798 0.91407 0.0
C776 C 0.11593 0.45686 0.94951 0.0
C777 C 0.15987 0.48906 0.84374 0.0
C778 C 0.14563 0.47613 0.81542 0.0
C779 C 0.13171 0.46567 0.85079 0.0
C780 C 0.14486 0.47337 0.74883 0.0
C781 C 0.17528 0.50033 0.80767 0.0
C782 C 0.14484 0.48506 0.70858 0.0
C783 C 0.1436 0.4822 0.64567 0.0
C784 C 0.14233 0.46756 0.62193 0.0
C785 C 0.1424 0.4559 0.66266 0.0
C786 C 0.14359 0.45876 0.72559 0.0
H787 H 0.18625 0.50732 0.83775 0.0
H788 H 0.17806 0.49311 0.77404 0.0
H789 H 0.17323 0.50942 0.78195 0.0
H790 H 0.14553 0.49629 0.72594 0.0
H791 H 0.14327 0.4913 0.61588 0.0
H792 H 0.67184 0.16269 0.7885 0.0
H793 H 0.6688 0.16419 0.8991 0.0
H794 H 0.67656 0.12264 0.92474 0.0
H795 H 0.67971 0.12114 0.81442 0.0
H796 H 0.64598 0.14064 0.97647 0.0
H797 H 0.70969 0.15641 0.04363 0.0
H798 H 0.70412 0.15767 0.96558 0.0
H799 H 0.69918 0.13797 -0.00196 0.0
C800 C 0.67288 0.15387 0.81771 0.0
C801 C 0.67612 0.14186 0.79278 0.0
C802 C 0.6712 0.15478 0.88084 0.0
C803 C 0.67275 0.14372 0.92013 0.0
C804 C 0.67577 0.13159 0.89536 0.0
H805 H 0.65974 0.12538 0.31096 0.0
H806 H 0.6631 0.12366 0.2007 0.0
C807 C 0.67755 0.13073 0.83231 0.0
C808 C 0.67069 0.14454 0.9869 0.0
H809 H 0.69009 0.14932 0.1241 0.0
C810 C 0.65565 0.14263 0.00875 0.0
C811 C 0.68334 0.14712 0.02883 0.0
C812 C 0.70005 0.15007 0.00791 0.0
C813 C 0.65283 0.14299 0.07156 0.0
C814 C 0.66543 0.14546 0.11335 0.0
C815 C 0.68045 0.14734 0.09169 0.0
C816 C 0.66338 0.1465 0.17983 0.0
C817 C 0.63634 0.14053 0.09296 0.0
C818 C 0.66264 0.16001 0.2043 0.0
C819 C 0.66091 0.16114 0.26721 0.0
C820 C 0.65987 0.14874 0.30687 0.0
C821 C 0.66069 0.13523 0.28196 0.0
C822 C 0.66251 0.13417 0.21898 0.0
H823 H 0.62683 0.13544 0.05623 0.0
H824 H 0.63174 0.13202 0.13287 0.0
H825 H 0.63789 0.15264 0.10755 0.0
H826 H 0.66358 0.16978 0.17473 0.0
H827 H 0.66066 0.17187 0.28468 0.0
H828 H 0.48068 0.59971 0.73071 0.0
H829 H 0.45737 0.57918 0.79093 0.0
H830 H 0.45287 0.61825 0.87876 0.0
H831 H 0.47667 0.63895 0.82019 0.0
H832 H 0.45052 0.59646 0.95989 0.0
H833 H 0.40903 0.56234 0.76726 0.0
H834 H 0.42854 0.56306 0.75975 0.0
H835 H 0.42777 0.58201 0.75707 0.0
C836 C 0.47468 0.60394 0.76261 0.0
C837 C 0.48043 0.62093 0.7705 0.0
C838 C 0.46125 0.59217 0.79664 0.0
C839 C 0.45308 0.59714 0.83819 0.0
C840 C 0.4589 0.61413 0.84654 0.0
H841 H 0.35995 0.52162 0.00396 0.0
H842 H 0.38046 0.54546 0.94498 0.0
C843 C 0.47249 0.62593 0.81312 0.0
C844 C 0.43898 0.58461 0.87488 0.0
H845 H 0.40246 0.54802 0.86385 0.0
C846 C 0.4399 0.58598 0.93885 0.0
C847 C 0.42493 0.57112 0.8475 0.0
C848 C 0.42241 0.56964 0.77911 0.0
C849 C 0.42753 0.57388 0.97621 0.0
C850 C 0.41416 0.55973 0.94885 0.0
C851 C 0.41285 0.55872 0.88487 0.0
C852 C 0.40173 0.54558 0.98562 0.0
C853 C 0.42892 0.57647 0.04456 0.0
C854 C 0.40686 0.53758 0.0273 0.0
C855 C 0.39521 0.52414 0.06154 0.0
C856 C 0.37817 0.5182 0.05376 0.0
C857 C 0.37301 0.52596 0.01099 0.0
C858 C 0.3847 0.53957 0.97733 0.0
H859 H 0.43609 0.58987 0.05624 0.0
H860 H 0.41652 0.571 0.06642 0.0
H861 H 0.43562 0.57049 0.06427 0.0
H862 H 0.41989 0.54162 0.03298 0.0
H863 H 0.39957 0.51828 0.09351 0.0
H864 H 0.8776 0.39971 0.26833 0.0
H865 H 0.87476 0.42019 0.20828 0.0
H866 H 0.83464 0.38101 0.10629 0.0
H867 H 0.83775 0.36034 0.16517 0.0
H868 H 0.85584 0.40473 0.0322 0.0
H869 H 0.84039 0.43397 0.22128 0.0
H870 H 0.85938 0.43411 0.23638 0.0
H871 H 0.84025 0.41464 0.23049 0.0
C872 C 0.86809 0.39542 0.23341 0.0
C873 C 0.85783 0.37841 0.22171 0.0
C874 C 0.86639 0.40715 0.19944 0.0
C875 C 0.85421 0.40213 0.15387 0.0
C876 C 0.84401 0.38515 0.14171 0.0
H877 H 0.83769 0.47764 0.98108 0.0
H878 H 0.8334 0.45319 0.03817 0.0
C879 C 0.84581 0.37337 0.17532 0.0
C880 C 0.8528 0.41471 0.11697 0.0
H881 H 0.85061 0.4501 0.12885 0.0
C882 C 0.85446 0.41452 0.05324 0.0
C883 C 0.85062 0.42728 0.14425 0.0
C884 C 0.84737 0.42741 0.21179 0.0
C885 C 0.85484 0.42702 0.01637 0.0
C886 C 0.85404 0.44032 0.04425 0.0
C887 C 0.85152 0.44006 0.1076 0.0
C888 C 0.85644 0.45494 0.00894 0.0
C889 C 0.8561 0.42583 0.94796 0.0
C890 C 0.87095 0.46422 0.97457 0.0
C891 C 0.87336 0.47806 0.94153 0.0
C892 C 0.86143 0.48308 0.94313 0.0
C893 C 0.84709 0.47405 0.97884 0.0
C894 C 0.84461 0.46007 0.0114 0.0
H895 H 0.8509 0.41274 0.93315 0.0
H896 H 0.84948 0.43123 0.92334 0.0
H897 H 0.86935 0.43269 0.93432 0.0
H898 H 0.88051 0.46082 0.97363 0.0
H899 H 0.88463 0.48489 0.9151 0.0
H900 H 0.39946 0.88105 0.06653 0.0
H901 H 0.41957 0.87763 0.12682 0.0
H902 H 0.37982 0.83412 0.21242 0.0
H903 H 0.35952 0.83784 0.15367 0.0
H904 H 0.40164 0.85317 0.29462 0.0
H905 H 0.43569 0.84555 0.10234 0.0
H906 H 0.4353 0.86451 0.09498 0.0
H907 H 0.41618 0.84495 0.09188 0.0
C908 C 0.39499 0.87069 0.09791 0.0
C909 C 0.37792 0.85965 0.1051 0.0
C910 C 0.40652 0.86867 0.13199 0.0
C911 C 0.40124 0.85536 0.17294 0.0
C912 C 0.38418 0.84438 0.18062 0.0
H913 H 0.4764 0.83722 0.33908 0.0
H914 H 0.45251 0.83383 0.28029 0.0
C915 C 0.3726 0.84653 0.14709 0.0
C916 C 0.41355 0.85346 0.20975 0.0
H917 H 0.44999 0.85322 0.1991 0.0
C918 C 0.4121 0.85295 0.2737 0.0
C919 C 0.42699 0.85277 0.18252 0.0
C920 C 0.42853 0.85178 0.11414 0.0
C921 C 0.42412 0.85257 0.31119 0.0
C922 C 0.43826 0.85328 0.28398 0.0
C923 C 0.43931 0.85298 0.22002 0.0
C924 C 0.45238 0.85497 0.32086 0.0
C925 C 0.42148 0.85135 0.37951 0.0
C926 C 0.46039 0.86812 0.36247 0.0
C927 C 0.47387 0.86995 0.39659 0.0
C928 C 0.47983 0.85888 0.38876 0.0
C929 C 0.47205 0.84593 0.34613 0.0
C930 C 0.45841 0.84397 0.31258 0.0
H931 H 0.40807 0.84514 0.39104 0.0
H932 H 0.42691 0.8444 0.40146 0.0
H933 H 0.42745 0.86402 0.39924 0.0
H934 H 0.45635 0.8771 0.36813 0.0
H935 H 0.47974 0.88018 0.42849 0.0
H936 H 0.51929 0.39936 0.22844 0.0
H937 H 0.54263 0.4201 0.28767 0.0
H938 H 0.54421 0.38135 0.39037 0.0
H939 H 0.52043 0.36042 0.33225 0.0
H940 H 0.5466 0.40528 0.46391 0.0
H941 H 0.59088 0.43409 0.27327 0.0
H942 H 0.57189 0.43398 0.25842 0.0
H943 H 0.57177 0.41464 0.26513 0.0
C944 C 0.52464 0.39521 0.26335 0.0
C945 C 0.51808 0.37824 0.27543 0.0
C946 C 0.53809 0.4071 0.29685 0.0
C947 C 0.54543 0.40227 0.34237 0.0
C948 C 0.53883 0.38534 0.35497 0.0
H949 H 0.63771 0.47817 0.5123 0.0
H950 H 0.61741 0.45363 0.45598 0.0
C951 C 0.52524 0.37341 0.32179 0.0
C952 C 0.55945 0.41501 0.37869 0.0
H953 H 0.59697 0.45041 0.36516 0.0
C954 C 0.55772 0.41502 0.44242 0.0
C955 C 0.57412 0.42752 0.3508 0.0
C956 C 0.57737 0.42746 0.28321 0.0
C957 C 0.56989 0.42766 0.4787 0.0
C958 C 0.58393 0.44088 0.45021 0.0
C959 C 0.58606 0.44043 0.38686 0.0
C960 C 0.59622 0.45559 0.4849 0.0
C961 C 0.56755 0.42669 0.54717 0.0
C962 C 0.59108 0.46502 0.5188 0.0
C963 C 0.60259 0.47892 0.55138 0.0
C964 C 0.61952 0.48384 0.54981 0.0
C965 C 0.62473 0.47466 0.51452 0.0
C966 C 0.61316 0.46063 0.4824 0.0
H967 H 0.55964 0.41366 0.56259 0.0
H968 H 0.57962 0.43213 0.57151 0.0
H969 H 0.56124 0.43365 0.56052 0.0
H970 H 0.57815 0.46168 0.51977 0.0
H971 H 0.59821 0.48586 0.57749 0.0
H972 H 0.12753 0.52782 0.36872 0.0
H973 H 0.12909 0.55021 0.43167 0.0
H974 H 0.15379 0.53856 0.57365 0.0
H975 H 0.15253 0.51626 0.51061 0.0
H976 H 0.11521 0.54715 0.54625 0.0
H977 H 0.18351 0.58883 0.55291 0.0
H978 H 0.17345 0.57212 0.49843 0.0
H979 H 0.17661 0.56785 0.57586 0.0
C980 C 0.13341 0.53007 0.41314 0.0
C981 C 0.13991 0.52026 0.43464 0.0
C982 C 0.13428 0.54287 0.44902 0.0
C983 C 0.14172 0.54615 0.50693 0.0
C984 C 0.14829 0.53643 0.52856 0.0
H985 H 0.12713 0.60058 0.79842 0.0
H986 H 0.12818 0.57961 0.73449 0.0
C987 C 0.14746 0.52363 0.4926 0.0
C988 C 0.14188 0.55925 0.54564 0.0
H989 H 0.16747 0.59567 0.61863 0.0
C990 C 0.12663 0.55778 0.56199 0.0
C991 C 0.15681 0.57317 0.56545 0.0
C992 C 0.17354 0.57573 0.54689 0.0
C993 C 0.12589 0.56979 0.59833 0.0
C994 C 0.14081 0.58346 0.61963 0.0
C995 C 0.15607 0.58507 0.60261 0.0
C996 C 0.14076 0.59631 0.65918 0.0
C997 C 0.10917 0.56788 0.61282 0.0
C998 C 0.14791 0.61273 0.63858 0.0
C999 C 0.14741 0.62478 0.6751 0.0
C1000 C 0.1398 0.6206 0.73296 0.0
C1001 C 0.13297 0.60419 0.75392 0.0
C1002 C 0.1335 0.59217 0.7174 0.0
H1003 H 0.09941 0.55911 0.581 0.0
H1004 H 0.10551 0.56296 0.65993 0.0
H1005 H 0.10963 0.58002 0.61048 0.0
H1006 H 0.15364 0.61616 0.59382 0.0
H1007 H 0.15286 0.63731 0.6577 0.0
H1008 H 0.63754 0.16017 0.65531 0.0
H1009 H 0.61655 0.16252 0.71496 0.0
H1010 H 0.57809 0.11799 0.62998 0.0
H1011 H 0.59889 0.116 0.56844 0.0
H1012 H 0.56923 0.14065 0.63434 0.0
H1013 H 0.59264 0.1363 0.86281 0.0
H1014 H 0.60774 0.15334 0.8182 0.0
H1015 H 0.60044 0.1324 0.79308 0.0
C1016 C 0.6246 0.15088 0.64953 0.0
C1017 C 0.61983 0.13787 0.6074 0.0
C1018 C 0.61263 0.15217 0.6839 0.0
C1019 C 0.59576 0.14025 0.67781 0.0
C1020 C 0.59103 0.12731 0.63552 0.0
H1021 H 0.51694 0.11803 0.93186 0.0
H1022 H 0.53946 0.11949 0.87012 0.0
C1023 C 0.60293 0.12618 0.60043 0.0
C1024 C 0.58292 0.14125 0.71464 0.0
H1025 H 0.5708 0.1424 0.86095 0.0
C1026 C 0.56955 0.14101 0.68393 0.0
C1027 C 0.58328 0.14154 0.77934 0.0
C1028 C 0.5967 0.14074 0.81535 0.0
C1029 C 0.55642 0.14083 0.71602 0.0
C1030 C 0.55698 0.14153 0.78068 0.0
C1031 C 0.57046 0.14199 0.81137 0.0
C1032 C 0.54332 0.14087 0.8177 0.0
C1033 C 0.54182 0.13924 0.68026 0.0
C1034 C 0.53806 0.15248 0.80913 0.0
C1035 C 0.52495 0.15147 0.84367 0.0
C1036 C 0.51718 0.13909 0.88839 0.0
C1037 C 0.52272 0.12774 0.89785 0.0
C1038 C 0.5356 0.12857 0.86263 0.0
H1039 H 0.54115 0.13411 0.6338 0.0
H1040 H 0.52995 0.13111 0.70425 0.0
H1041 H 0.54313 0.15169 0.67478 0.0
H1042 H 0.54412 0.16236 0.77596 0.0
H1043 H 0.52104 0.1605 0.8359 0.0
H1044 H 0.31498 0.51195 0.14742 0.0
H1045 H 0.29824 0.52303 0.19139 0.0
H1046 H 0.25387 0.47603 0.16046 0.0
H1047 H 0.27039 0.46491 0.11672 0.0
H1048 H 0.25141 0.50601 0.13741 0.0
H1049 H 0.27762 0.50403 0.36475 0.0
H1050 H 0.29147 0.5154 0.30296 0.0
H1051 H 0.27954 0.49321 0.29959 0.0
C1052 C 0.30161 0.50415 0.14847 0.0
C1053 C 0.29395 0.48751 0.1293 0.0
C1054 C 0.29211 0.51048 0.17383 0.0
C1055 C 0.27489 0.50026 0.1797 0.0
C1056 C 0.26717 0.48409 0.15629 0.0
H1057 H 0.19245 0.46457 0.37965 0.0
H1058 H 0.22029 0.47558 0.33787 0.0
C1059 C 0.27661 0.47773 0.1315 0.0
C1060 C 0.26485 0.50532 0.21625 0.0
H1061 H 0.25287 0.50477 0.36405 0.0
C1062 C 0.252 0.50635 0.18696 0.0
C1063 C 0.26571 0.50567 0.28085 0.0
C1064 C 0.27927 0.50449 0.31433 0.0
C1065 C 0.23916 0.50628 0.22069 0.0
C1066 C 0.23931 0.50523 0.2852 0.0
C1067 C 0.2529 0.50565 0.31459 0.0
C1068 C 0.22408 0.50014 0.32103 0.0
C1069 C 0.22474 0.50575 0.18703 0.0
C1070 C 0.21734 0.51056 0.32771 0.0
C1071 C 0.20139 0.50429 0.35186 0.0
C1072 C 0.19202 0.48751 0.36908 0.0
C1073 C 0.19933 0.4775 0.36631 0.0
C1074 C 0.21525 0.48379 0.34266 0.0
H1075 H 0.22612 0.50565 0.13659 0.0
H1076 H 0.21298 0.49454 0.20052 0.0
H1077 H 0.22373 0.51676 0.19949 0.0
H1078 H 0.22407 0.52325 0.3116 0.0
H1079 H 0.19605 0.51229 0.35348 0.0
H1080 H 0.80116 0.31522 0.3125 0.0
H1081 H 0.77323 0.29858 0.35582 0.0
H1082 H 0.77605 0.25418 0.32841 0.0
H1083 H 0.80377 0.2706 0.28525 0.0
H1084 H 0.74367 0.25144 0.30366 0.0
H1085 H 0.77128 0.27874 0.53054 0.0
H1086 H 0.77368 0.29227 0.46769 0.0
H1087 H 0.7842 0.28057 0.46613 0.0
C1088 C 0.79561 0.30186 0.3142 0.0
C1089 C 0.80467 0.29418 0.2962 0.0
C1090 C 0.77972 0.29242 0.33918 0.0
C1091 C 0.77274 0.27523 0.34587 0.0
C1092 C 0.78127 0.26746 0.3236 0.0
H1093 H 0.72776 0.19382 0.54809 0.0
H1094 H 0.74383 0.22165 0.50559 0.0
C1095 C 0.79712 0.27685 0.29917 0.0
C1096 C 0.75757 0.26527 0.38224 0.0
H1097 H 0.74606 0.25372 0.53028 0.0
C1098 C 0.74383 0.25221 0.35318 0.0
C1099 C 0.75797 0.26638 0.44678 0.0
C1100 C 0.77255 0.28018 0.48006 0.0
C1101 C 0.73114 0.23936 0.38717 0.0
C1102 C 0.7323 0.23974 0.45172 0.0
C1103 C 0.74525 0.25357 0.48078 0.0
C1104 C 0.72252 0.22451 0.48799 0.0
C1105 C 0.71746 0.2247 0.35384 0.0
C1106 C 0.70529 0.21724 0.49447 0.0
C1107 C 0.69604 0.20128 0.51906 0.0
C1108 C 0.70397 0.19245 0.53688 0.0
C1109 C 0.72133 0.20028 0.53428 0.0
C1110 C 0.73052 0.2162 0.51023 0.0
H1111 H 0.7189 0.22599 0.30338 0.0
H1112 H 0.71724 0.21312 0.36775 0.0
H1113 H 0.7053 0.2234 0.36617 0.0
H1114 H 0.69895 0.22356 0.47789 0.0
H1115 H 0.68266 0.19552 0.5205 0.0
H1116 H 0.52996 0.80159 0.44158 0.0
H1117 H 0.51767 0.77359 0.48282 0.0
H1118 H 0.47297 0.77446 0.52736 0.0
H1119 H 0.48522 0.8026 0.48563 0.0
H1120 H 0.4881 0.76859 0.62723 0.0
H1121 H 0.48116 0.72666 0.43711 0.0
H1122 H 0.50086 0.74542 0.43363 0.0
H1123 H 0.48208 0.74633 0.42518 0.0
C1124 C 0.51733 0.79565 0.45849 0.0
C1125 C 0.50858 0.80428 0.4607 0.0
C1126 C 0.51026 0.77959 0.4816 0.0
C1127 C 0.49434 0.7719 0.50752 0.0
C1128 C 0.4852 0.78014 0.50689 0.0
H1129 H 0.48507 0.68266 0.67608 0.0
H1130 H 0.47284 0.6986 0.63461 0.0
C1131 C 0.49221 0.79618 0.48298 0.0
C1132 C 0.48877 0.75662 0.54371 0.0
H1133 H 0.48838 0.71991 0.53668 0.0
C1134 C 0.48756 0.75765 0.60737 0.0
C1135 C 0.48775 0.74225 0.5178 0.0
C1136 C 0.48785 0.74002 0.44955 0.0
C1137 C 0.48738 0.74557 0.64609 0.0
C1138 C 0.48855 0.73229 0.62027 0.0
C1139 C 0.48771 0.73024 0.55652 0.0
C1140 C 0.49395 0.7225 0.65682 0.0
C1141 C 0.48706 0.7477 0.71432 0.0
C1142 C 0.5097 0.73068 0.68412 0.0
C1143 C 0.51676 0.72167 0.70712 0.0
C1144 C 0.50817 0.70431 0.70337 0.0
C1145 C 0.49193 0.69605 0.67991 0.0
C1146 C 0.48493 0.70511 0.65615 0.0
H1147 H 0.48021 0.75424 0.7262 0.0
H1148 H 0.48124 0.73556 0.73828 0.0
H1149 H 0.49997 0.75534 0.73124 0.0
H1150 H 0.51702 0.74409 0.68394 0.0
H1151 H 0.52928 0.72834 0.72499 0.0
H1152 H 0.80218 0.48462 0.8381 0.0
H1153 H 0.77335 0.47175 0.80202 0.0
H1154 H 0.77478 0.51849 0.82347 0.0
H1155 H 0.80334 0.53134 0.85917 0.0
H1156 H 0.74365 0.4881 0.86159 0.0
H1157 H 0.76613 0.4864 0.62658 0.0
H1158 H 0.77088 0.47702 0.68968 0.0
H1159 H 0.78051 0.49915 0.68516 0.0
C1160 C 0.79617 0.49201 0.83639 0.0
C1161 C 0.80501 0.50902 0.85076 0.0
C1162 C 0.77977 0.48466 0.81566 0.0
C1163 C 0.77206 0.49424 0.80979 0.0
C1164 C 0.78054 0.51091 0.82787 0.0
H1165 H 0.7257 0.53104 0.63337 0.0
H1166 H 0.74128 0.51815 0.67023 0.0
C1167 C 0.79689 0.51826 0.84794 0.0
C1168 C 0.75596 0.48792 0.77866 0.0
H1169 H 0.74145 0.48724 0.63497 0.0
C1170 C 0.74276 0.48717 0.81214 0.0
C1171 C 0.75496 0.48672 0.71419 0.0
C1172 C 0.76882 0.48735 0.67637 0.0
C1173 C 0.7294 0.48714 0.78245 0.0
C1174 C 0.72936 0.48785 0.71788 0.0
C1175 C 0.74159 0.48668 0.6845 0.0
C1176 C 0.71962 0.49411 0.68611 0.0
C1177 C 0.71641 0.48825 0.82018 0.0
C1178 C 0.7023 0.48466 0.68109 0.0
C1179 C 0.69333 0.49203 0.65966 0.0
C1180 C 0.70162 0.50894 0.64377 0.0
C1181 C 0.719 0.51804 0.64577 0.0
C1182 C 0.72791 0.51066 0.66651 0.0
H1183 H 0.7183 0.48761 0.87005 0.0
H1184 H 0.71667 0.50007 0.81025 0.0
H1185 H 0.70392 0.47794 0.80785 0.0
H1186 H 0.69574 0.47185 0.69593 0.0
H1187 H 0.67991 0.48476 0.65863 0.0
H1188 H 0.27075 0.80332 0.0471 0.0
H1189 H 0.25473 0.77563 0.00329 0.0
H1190 H 0.29998 0.77649 0.95338 0.0
H1191 H 0.31618 0.80429 -0.00209 0.0
H1192 H 0.27798 0.77135 0.85492 0.0
H1193 H 0.24502 0.72841 0.04552 0.0
H1194 H 0.24431 0.74726 0.05192 0.0
H1195 H 0.26397 0.74796 0.05635 0.0
C1196 C 0.27729 0.79743 0.02838 0.0
C1197 C 0.29467 0.80594 0.02569 0.0
C1198 C 0.26814 0.78157 0.00375 0.0
C1199 C 0.2762 0.77398 0.97569 0.0
C1200 C 0.29358 0.7821 0.97549 0.0
H1201 H 0.19644 0.68406 0.81041 0.0
H1202 H 0.22485 0.70085 0.84842 0.0
C1203 C 0.30278 0.79793 0.00103 0.0
C1204 C 0.26628 0.75886 0.93896 0.0
H1205 H 0.23051 0.72168 0.94762 0.0
C1206 C 0.2679 0.76022 0.8751 0.0
C1207 C 0.25334 0.74428 0.96532 0.0
C1208 C 0.25165 0.7418 0.03363 0.0
C1209 C 0.25581 0.74812 0.83694 0.0
C1210 C 0.2418 0.73451 0.86358 0.0
C1211 C 0.24119 0.73225 0.9272 0.0
C1212 C 0.22642 0.72434 0.82843 0.0
C1213 C 0.25759 0.75054 0.76863 0.0
C1214 C 0.21808 0.73202 0.80333 0.0
C1215 C 0.20185 0.72251 0.78223 0.0
C1216 C 0.19369 0.70515 0.78583 0.0
C1217 C 0.20245 0.69744 0.80686 0.0
C1218 C 0.21867 0.70699 0.82863 0.0
H1219 H 0.27087 0.75754 0.7551 0.0
H1220 H 0.25143 0.73848 0.74413 0.0
H1221 H 0.25177 0.75786 0.75388 0.0
H1222 H 0.2237 0.7454 0.8039 0.0
H1223 H 0.19541 0.72878 0.76617 0.0
H1224 H 0.5126 0.31548 0.18094 0.0
H1225 H 0.52396 0.29917 0.13522 0.0
H1226 H 0.47724 0.25438 0.16506 0.0
H1227 H 0.46588 0.27046 0.21066 0.0
H1228 H 0.50706 0.25192 0.18567 0.0
H1229 H 0.50533 0.27959 0.9613 0.0
H1230 H 0.51679 0.29305 0.02385 0.0
H1231 H 0.49458 0.28123 0.02723 0.0
C1232 C 0.50493 0.30211 0.17927 0.0
C1233 C 0.48829 0.29421 0.19864 0.0
C1234 C 0.51141 0.29285 0.15291 0.0
C1235 C 0.50134 0.27564 0.14617 0.0
C1236 C 0.48519 0.26767 0.16986 0.0
H1237 H 0.46468 0.19486 0.93997 0.0
H1238 H 0.47648 0.22265 0.98282 0.0
C1239 C 0.47869 0.27687 0.19569 0.0
C1240 C 0.50649 0.26588 0.10835 0.0
H1241 H 0.50588 0.25476 0.95934 0.0
C1242 C 0.50743 0.25281 0.13617 0.0
C1243 C 0.50689 0.26715 0.04385 0.0
C1244 C 0.50581 0.28095 0.01185 0.0
C1245 C 0.50721 0.2401 0.10109 0.0
C1246 C 0.50614 0.24064 0.03667 0.0
C1247 C 0.50676 0.25449 0.00874 0.0
C1248 C 0.5007 0.22555 -0.00041 0.0
C1249 C 0.50648 0.22541 0.13329 0.0
C1250 C 0.51068 0.21833 0.99233 0.0
C1251 C 0.50395 0.20239 0.96761 0.0
C1252 C 0.48714 0.19351 0.95036 0.0
C1253 C 0.47761 0.20134 0.95337 0.0
C1254 C 0.48436 0.21724 0.97764 0.0
H1255 H 0.50635 0.22648 0.18386 0.0
H1256 H 0.4952 0.21379 0.11908 0.0
H1257 H 0.51743 0.22434 0.12032 0.0
H1258 H 0.52337 0.22465 0.00857 0.0
H1259 H 0.51159 0.19665 0.96575 0.0
H1260 H 0.34205 0.41195 0.16248 0.0
H1261 H 0.35556 0.3956 0.17999 0.0
H1262 H 0.40292 0.43807 0.13526 0.0
H1263 H 0.38972 0.4548 0.12137 0.0
H1264 H 0.37277 0.38732 0.10426 0.0
H1265 H 0.41318 0.42425 0.296 0.0
H1266 H 0.39646 0.42697 0.26805 0.0
H1267 H 0.4162 0.43671 0.22948 0.0
C1268 C 0.35539 0.41792 0.15749 0.0
C1269 C 0.36482 0.43477 0.14116 0.0
C1270 C 0.36306 0.4085 0.16696 0.0
C1271 C 0.38028 0.41571 0.16012 0.0
C1272 C 0.38967 0.43237 0.14232 0.0
H1273 H 0.43638 0.36617 0.10009 0.0
H1274 H 0.41975 0.37973 0.09066 0.0
C1275 C 0.38205 0.44185 0.13348 0.0
C1276 C 0.3884 0.40572 0.17025 0.0
H1277 H 0.41982 0.40518 0.24838 0.0
C1278 C 0.38297 0.39113 0.13617 0.0
C1279 C 0.40147 0.41054 0.21277 0.0
C1280 C 0.40705 0.42537 0.25413 0.0
C1281 C 0.3906 0.38148 0.14212 0.0
C1282 C 0.40432 0.38686 0.18192 0.0
C1283 C 0.40942 0.40118 0.21731 0.0
C1284 C 0.41378 0.37802 0.18709 0.0
C1285 C 0.38373 0.36555 0.10622 0.0
C1286 C 0.4163 0.37294 0.2446 0.0
C1287 C 0.42604 0.36549 0.25017 0.0
C1288 C 0.43335 0.36291 0.19825 0.0
C1289 C 0.43068 0.36783 0.14066 0.0
C1290 C 0.42112 0.37548 0.13521 0.0
H1291 H 0.37046 0.36059 0.09455 0.0
H1292 H 0.39071 0.36798 0.06271 0.0
H1293 H 0.38491 0.35593 0.13205 0.0
H1294 H 0.4108 0.37484 0.28525 0.0
H1295 H 0.42782 0.36169 0.29503 0.0
H1296 H 0.93279 0.36572 0.20133 0.0
H1297 H 0.96297 0.37919 0.2104 0.0
H1298 H 0.95876 0.37793 0.40699 0.0
H1299 H 0.92857 0.36449 0.39834 0.0
H1300 H 0.9835 0.40951 0.26619 0.0
H1301 H 0.98962 0.35917 0.37674 0.0
H1302 H 0.97075 0.35557 0.33979 0.0
H1303 H 0.97572 0.36424 0.41547 0.0
C1304 C 0.9383 0.36831 0.2465 0.0
C1305 C 0.92833 0.3641 0.29917 0.0
C1306 C 0.95551 0.37591 0.25157 0.0
C1307 C 0.96304 0.37934 0.30933 0.0
C1308 C 0.95314 0.37504 0.36201 0.0
H1309 H 0.06309 0.43411 0.44564 0.0
H1310 H 0.03303 0.41754 0.43181 0.0
C1311 C 0.93592 0.3674 0.357 0.0
C1312 C 0.98131 0.38834 0.31436 0.0
H1313 H 0.01392 0.38586 0.37356 0.0
C1314 C 0.99018 0.4043 0.28917 0.0
C1315 C 0.98993 0.38148 0.34455 0.0
C1316 C 0.98105 0.36411 0.37023 0.0
C1317 C 0.00747 0.41379 0.29464 0.0
C1318 C 0.01607 0.407 0.3253 0.0
C1319 C 0.00723 0.39099 0.3501 0.0
C1320 C 0.03424 0.41652 0.33325 0.0
C1321 C 0.01635 0.43118 0.26908 0.0
C1322 C 0.0448 0.42117 0.28237 0.0
C1323 C 0.06195 0.43073 0.29004 0.0
C1324 C 0.06879 0.43574 0.34878 0.0
C1325 C 0.05816 0.4307 0.39975 0.0
C1326 C 0.04102 0.42114 0.39201 0.0
H1327 H 0.00766 0.4358 0.25906 0.0
H1328 H 0.02595 0.43987 0.30149 0.0
H1329 H 0.02263 0.43129 0.22581 0.0
H1330 H 0.03976 0.41751 0.23672 0.0
H1331 H 0.06983 0.43446 0.24994 0.0
H1332 H 0.60992 0.06406 0.52217 0.0
H1333 H 0.59727 0.03406 0.50885 0.0
H1334 H 0.64579 0.03892 0.50172 0.0
H1335 H 0.6586 0.06898 0.51599 0.0
H1336 H 0.60391 0.01741 0.40674 0.0
H1337 H 0.61917 0.003 0.63693 0.0
H1338 H 0.61897 0.02195 0.62141 0.0
H1339 H 0.6357 0.01941 0.59383 0.0
C1340 C 0.6179 0.05872 0.51828 0.0
C1341 C 0.63524 0.06883 0.5203 0.0
C1342 C 0.61066 0.04164 0.51036 0.0
C1343 C 0.62063 0.03435 0.50485 0.0
C1344 C 0.63793 0.04436 0.5065 0.0
H1345 H 0.58772 0.92853 0.47755 0.0
H1346 H 0.60512 0.95875 0.48494 0.0
C1347 C 0.64521 0.0615 0.51412 0.0
C1348 C 0.61275 0.01626 0.49654 0.0
H1349 H 0.60409 0.98053 0.57022 0.0
C1350 C 0.60401 0.00932 0.44223 0.0
C1351 C 0.61308 0.00586 0.54287 0.0
C1352 C 0.62214 0.01283 0.60232 0.0
C1353 C 0.59533 0.99212 0.43333 0.0
C1354 C 0.59509 0.98165 0.48066 0.0
C1355 C 0.60427 0.98863 0.5342 0.0
C1356 C 0.58466 0.96342 0.47669 0.0
C1357 C 0.58648 0.98532 0.37337 0.0
C1358 C 0.56741 0.95611 0.47092 0.0
C1359 C 0.55747 0.93894 0.46684 0.0
C1360 C 0.5646 0.92874 0.46905 0.0
C1361 C 0.58187 0.93607 0.47617 0.0
C1362 C 0.59183 0.9533 0.48008 0.0
H1363 H 0.59191 0.9947 0.33626 0.0
H1364 H 0.58699 0.97412 0.35943 0.0
H1365 H 0.57327 0.98183 0.37845 0.0
H1366 H 0.56161 0.9637 0.46987 0.0
H1367 H 0.54418 0.93361 0.46251 0.0
H1368 H 0.61252 0.54976 0.58457 0.0
H1369 H 0.59987 0.56722 0.59141 0.0
H1370 H 0.64505 0.60681 0.66788 0.0
H1371 H 0.65806 0.58966 0.65959 0.0
H1372 H 0.61412 0.5969 0.73573 0.0
H1373 H 0.61078 0.60989 0.48957 0.0
H1374 H 0.6036 0.58856 0.50849 0.0
H1375 H 0.62509 0.60375 0.5187 0.0
C1376 C 0.61991 0.5623 0.6017 0.0
C1377 C 0.63631 0.5683 0.62158 0.0
C1378 C 0.61264 0.57222 0.60568 0.0
C1379 C 0.62161 0.5883 0.62964 0.0
C1380 C 0.63798 0.59442 0.64913 0.0
H1381 H 0.58796 0.66033 0.66535 0.0
H1382 H 0.60529 0.6477 0.64991 0.0
C1383 C 0.64532 0.58455 0.64478 0.0
C1384 C 0.61349 0.59831 0.63756 0.0
H1385 H 0.59531 0.61666 0.55883 0.0
C1386 C 0.61016 0.60139 0.69716 0.0
C1387 C 0.60844 0.60415 0.587 0.0
C1388 C 0.61225 0.60157 0.52224 0.0
C1389 C 0.60132 0.6097 0.70747 0.0
C1390 C 0.59578 0.61503 0.6569 0.0
C1391 C 0.59957 0.61245 0.59735 0.0
C1392 C 0.58536 0.62265 0.66521 0.0
C1393 C 0.59767 0.61253 0.77214 0.0
C1394 C 0.56846 0.61262 0.67832 0.0
C1395 C 0.55848 0.61972 0.68637 0.0
C1396 C 0.56527 0.63699 0.68171 0.0
C1397 C 0.58227 0.64698 0.66838 0.0
C1398 C 0.59222 0.63983 0.65993 0.0
H1399 H 0.60463 0.60954 0.80631 0.0
H1400 H 0.60086 0.62563 0.77828 0.0
H1401 H 0.5842 0.60458 0.78129 0.0
H1402 H 0.563 0.5993 0.68209 0.0
H1403 H 0.54541 0.61165 0.69557 0.0
H1404 H 0.07042 0.65839 0.84038 0.0
H1405 H 0.04065 0.64575 0.85902 0.0
H1406 H 0.03518 0.59712 0.84156 0.0
H1407 H 0.065 0.60958 0.82628 0.0
H1408 H 0.01546 0.62639 0.78484 0.0
H1409 H 0.01024 0.59207 -0.0022 0.0
H1410 H 0.02995 0.60777 0.96764 0.0
H1411 H 0.02008 0.58694 0.93798 0.0
C1412 C 0.06295 0.645 0.84184 0.0
C1413 C 0.07013 0.635 0.83221 0.0
C1414 C 0.04592 0.6378 0.85201 0.0
C1415 C 0.03576 0.6205 0.85275 0.0
C1416 C 0.04285 0.61049 0.84269 0.0
H1417 H 0.93193 0.56132 0.77628 0.0
H1418 H 0.96215 0.57834 0.77376 0.0
C1419 C 0.05988 0.61766 0.83302 0.0
C1420 C 0.01762 0.61286 0.86088 0.0
H1421 H 0.9849 0.5835 0.94276 0.0
C1422 C 0.00879 0.61716 0.81984 0.0
C1423 C 0.00896 0.60106 0.90727 0.0
C1424 C 0.01783 0.59682 0.95556 0.0
C1425 C 0.99145 0.60946 0.82235 0.0
C1426 C 0.98272 0.59682 0.86604 0.0
C1427 C 0.9916 0.59303 0.90871 0.0
C1428 C 0.96439 0.58699 0.8671 0.0
C1429 C 0.98269 0.61498 0.77827 0.0
C1430 C 0.95566 0.58583 0.92092 0.0
C1431 C 0.93841 0.57592 0.92269 0.0
C1432 C 0.92962 0.56704 0.8706 0.0
C1433 C 0.93838 0.56825 0.81676 0.0
C1434 C 0.95563 0.57803 0.8152 0.0
H1435 H 0.99099 0.62793 0.76277 0.0
H1436 H 0.97889 0.60689 0.73725 0.0
H1437 H 0.97144 0.61416 0.79921 0.0
H1438 H 0.9622 0.59258 0.96156 0.0
H1439 H 0.93193 0.57529 0.96465 0.0
H1440 H 0.4096 0.07009 0.98194 0.0
H1441 H 0.39252 0.04015 -0.00052 0.0
H1442 H 0.43654 0.03585 0.00147 0.0
H1443 H 0.45369 0.06573 0.98495 0.0
H1444 H 0.39171 0.01438 0.92267 0.0
H1445 H 0.41131 0.01232 0.16066 0.0
H1446 H 0.41416 0.03113 0.12558 0.0
H1447 H 0.42813 0.02364 0.10819 0.0
C1448 C 0.41563 0.06278 0.98691 0.0
C1449 C 0.43297 0.07022 0.98227 0.0
C1450 C 0.40587 0.04571 0.99659 0.0
C1451 C 0.41333 0.03591 0.0025 0.0
C1452 C 0.43061 0.04329 -0.00208 0.0
H1453 H 0.38835 0.93494 0.03738 0.0
H1454 H 0.40102 0.96505 0.03001 0.0
C1455 C 0.44035 0.0603 0.98793 0.0
C1456 C 0.4031 0.01782 0.01114 0.0
H1457 H 0.39687 0.98651 0.10792 0.0
C1458 C 0.39262 0.00824 0.96342 0.0
C1459 C 0.4044 0.00997 0.06443 0.0
C1460 C 0.41499 0.01978 0.11794 0.0
C1461 C 0.38394 0.99087 0.96643 0.0
C1462 C 0.3856 0.98299 0.01907 0.0
C1463 C 0.39569 0.99262 0.06756 0.0
C1464 C 0.37769 0.96477 0.02357 0.0
C1465 C 0.37366 0.98109 0.91226 0.0
C1466 C 0.36037 0.95469 0.02289 0.0
C1467 C 0.35309 0.93747 0.02704 0.0
C1468 C 0.36304 0.9301 0.03253 0.0
C1469 C 0.38037 0.94028 0.03377 0.0
C1470 C 0.38762 0.95746 0.02939 0.0
H1471 H 0.37658 0.98891 0.87063 0.0
H1472 H 0.37566 0.97054 0.90204 0.0
H1473 H 0.36033 0.97598 0.92298 0.0
H1474 H 0.35249 0.96015 0.01968 0.0
H1475 H 0.33969 0.92995 0.02698 0.0
loop_
_geom_bond_atom_site_label_1
_geom_bond_atom_site_label_2
_geom_bond_distance
_geom_bond_site_symmetry_2
_ccdc_geom_bond_type
C0 C1 1.351 . S
C0 N3 1.368 . S
C0 H5 0.931 1_556 S
C1 C0 1.351 . S
C1 N2 1.373 . S
C1 H29 0.930 . S
N2 C1 1.373 . S
N2 C4 1.340 . S
N3 C0 1.368 . S
N3 C4 1.321 . S
N3 Co6 2.135 1_556 S
C4 N2 1.340 . S
C4 N3 1.321 . S
C4 H28 0.930 . S
H5 C0 0.931 1_554 S
Co6 N3 2.135 1_554 S
Co6 N9 2.121 . S
Co6 O14 2.055 . S
Co6 O17 2.039 . S
Co6 N20 2.140 . S
C7 O8 1.227 . S
C7 O17 1.265 . S
O8 C7 1.227 . S
N9 Co6 2.121 . S
N9 C11 1.375 . S
N9 C12 1.313 . S
C10 C11 1.338 . S
C10 N13 1.377 . S
C10 H30 0.930 . S
C11 N9 1.375 . S
C11 C10 1.338 . S
C11 H15 0.931 . S
C12 N9 1.313 . S
C12 N13 1.344 . S
C12 H16 0.930 . S
N13 C10 1.377 . S
N13 C12 1.344 . S
O14 Co6 2.055 . S
O14 C18 1.253 . S
H15 C11 0.931 . S
H16 C12 0.930 . S
O17 Co6 2.039 . S
O17 C7 1.265 . S
C18 O14 1.253 . S
C18 O19 1.227 . S
O19 C18 1.227 . S
N20 Co6 2.140 . S
N20 C23 1.346 . S
N20 C24 1.345 . S
C21 C22 1.387 . S
C21 C25 1.391 . S
C22 C21 1.387 . S
C22 C23 1.369 . S
C22 H31 0.929 . S
C23 N20 1.346 . S
C23 C22 1.369 . S
C23 H26 0.928 . S
C24 N20 1.345 . S
C24 C25 1.371 . S
C24 H27 0.931 . S
C25 C21 1.391 . S
C25 C24 1.371 . S
C25 H32 0.930 . S
H26 C23 0.928 . S
H27 C24 0.931 . S
H28 C4 0.930 . S
H29 C1 0.930 . S
H30 C10 0.930 . S
H31 C22 0.929 . S
H32 C25 0.930 . S
C33 C34 1.351 . S
C33 N36 1.368 . S
C33 H38 0.931 . S
C34 C33 1.351 . S
C34 N35 1.373 . S
C34 H62 0.930 . S
N35 C34 1.373 . S
N35 C37 1.340 . S
N36 C33 1.368 . S
N36 C37 1.321 . S
N36 Co39 2.135 . S
C37 N35 1.340 . S
C37 N36 1.321 . S
C37 H61 0.930 . S
H38 C33 0.931 . S
Co39 N36 2.135 . S
Co39 N42 2.121 . S
Co39 O47 2.055 . S
Co39 O50 2.039 . S
Co39 N53 2.140 . S
C40 O41 1.227 . S
C40 O50 1.265 . S
O41 C40 1.227 . S
N42 Co39 2.121 . S
N42 C44 1.375 . S
N42 C45 1.313 . S
C43 C44 1.338 . S
C43 N46 1.377 . S
C43 H63 0.930 . S
C44 N42 1.375 . S
C44 C43 1.338 . S
C44 H48 0.931 . S
C45 N42 1.313 . S
C45 N46 1.344 . S
C45 H49 0.930 . S
N46 C43 1.377 . S
N46 C45 1.344 . S
O47 Co39 2.055 . S
O47 C51 1.253 . S
H48 C44 0.931 . S
H49 C45 0.930 . S
O50 Co39 2.039 . S
O50 C40 1.265 . S
C51 O47 1.253 . S
C51 O52 1.227 . S
O52 C51 1.227 . S
N53 Co39 2.140 . S
N53 C56 1.346 . S
N53 C57 1.345 . S
C54 C55 1.387 . S
C54 C58 1.391 . S
C55 C54 1.387 . S
C55 C56 1.369 . S
C55 H64 0.929 . S
C56 N53 1.346 . S
C56 C55 1.369 . S
C56 H59 0.928 . S
C57 N53 1.345 . S
C57 C58 1.371 . S
C57 H60 0.931 . S
C58 C54 1.391 . S
C58 C57 1.371 . S
C58 H65 0.930 . S
H59 C56 0.928 . S
H60 C57 0.931 . S
H61 C37 0.930 . S
H62 C34 0.930 . S
H63 C43 0.930 . S
H64 C55 0.929 . S
H65 C58 0.930 . S
C66 C67 1.351 . S
C66 N69 1.368 . S
C66 H71 0.931 . S
C67 C66 1.351 . S
C67 N68 1.373 . S
C67 H95 0.930 . S
N68 C67 1.373 . S
N68 C70 1.340 . S
N69 C66 1.368 . S
N69 C70 1.321 . S
N69 Co72 2.135 . S
C70 N68 1.340 . S
C70 N69 1.321 . S
C70 H94 0.930 . S
H71 C66 0.931 . S
Co72 N69 2.135 . S
Co72 N75 2.121 . S
Co72 O80 2.055 . S
Co72 O83 2.039 . S
Co72 N86 2.140 . S
C73 O74 1.227 . S
C73 O83 1.265 . S
O74 C73 1.227 . S
N75 Co72 2.121 . S
N75 C77 1.375 . S
N75 C78 1.313 . S
C76 C77 1.338 . S
C76 N79 1.377 . S
C76 H96 0.930 . S
C77 N75 1.375 . S
C77 C76 1.338 . S
C77 H81 0.931 . S
C78 N75 1.313 . S
C78 N79 1.344 . S
C78 H82 0.930 . S
N79 C76 1.377 . S
N79 C78 1.344 . S
O80 Co72 2.055 . S
O80 C84 1.253 . S
H81 C77 0.931 . S
H82 C78 0.930 . S
O83 Co72 2.039 . S
O83 C73 1.265 . S
C84 O80 1.253 . S
C84 O85 1.227 . S
O85 C84 1.227 . S
N86 Co72 2.140 . S
N86 C89 1.346 . S
N86 C90 1.345 . S
C87 C88 1.387 . S
C87 C91 1.391 . S
C88 C87 1.387 . S
C88 C89 1.369 . S
C88 H97 0.929 . S
C89 N86 1.346 . S
C89 C88 1.369 . S
C89 H92 0.928 . S
C90 N86 1.345 . S
C90 C91 1.371 . S
C90 H93 0.931 . S
C91 C87 1.391 . S
C91 C90 1.371 . S
C91 H98 0.930 . S
H92 C89 0.928 . S
H93 C90 0.931 . S
H94 C70 0.930 . S
H95 C67 0.930 . S
H96 C76 0.930 . S
H97 C88 0.929 . S
H98 C91 0.930 . S
C99 C100 1.351 . S
C99 N102 1.368 . S
C99 H104 0.931 . S
C100 C99 1.351 . S
C100 N101 1.373 . S
C100 H128 0.930 . S
N101 C100 1.373 . S
N101 C103 1.340 . S
N102 C99 1.368 . S
N102 C103 1.321 . S
N102 Co105 2.135 . S
C103 N101 1.340 . S
C103 N102 1.321 . S
C103 H127 0.930 . S
H104 C99 0.931 . S
Co105 N102 2.135 . S
Co105 N108 2.121 . S
Co105 O113 2.055 . S
Co105 O116 2.039 . S
Co105 N119 2.140 . S
C106 O107 1.227 . S
C106 O116 1.265 . S
O107 C106 1.227 . S
N108 Co105 2.121 . S
N108 C110 1.375 . S
N108 C111 1.313 . S
C109 C110 1.338 . S
C109 N112 1.377 . S
C109 H129 0.930 . S
C110 N108 1.375 . S
C110 C109 1.338 . S
C110 H114 0.931 . S
C111 N108 1.313 . S
C111 N112 1.344 . S
C111 H115 0.930 . S
N112 C109 1.377 . S
N112 C111 1.344 . S
O113 Co105 2.055 . S
O113 C117 1.253 . S
H114 C110 0.931 . S
H115 C111 0.930 . S
O116 Co105 2.039 . S
O116 C106 1.265 . S
C117 O113 1.253 . S
C117 O118 1.227 . S
O118 C117 1.227 . S
N119 Co105 2.140 . S
N119 C122 1.346 . S
N119 C123 1.345 . S
C120 C121 1.387 . S
C120 C124 1.391 . S
C121 C120 1.387 . S
C121 C122 1.369 . S
C121 H130 0.929 . S
C122 N119 1.346 . S
C122 C121 1.369 . S
C122 H125 0.928 . S
C123 N119 1.345 . S
C123 C124 1.371 . S
C123 H126 0.931 . S
C124 C120 1.391 . S
C124 C123 1.371 . S
C124 H131 0.930 . S
H125 C122 0.928 . S
H126 C123 0.931 . S
H127 C103 0.930 . S
H128 C100 0.930 . S
H129 C109 0.930 . S
H130 C121 0.929 . S
H131 C124 0.930 . S
C132 C133 1.351 . S
C132 N135 1.368 . S
C132 H137 0.931 . S
C133 C132 1.351 . S
C133 N134 1.373 . S
C133 H161 0.930 . S
N134 C133 1.373 . S
N134 C136 1.340 . S
N135 C132 1.368 . S
N135 C136 1.321 . S
N135 Co138 2.135 . S
C136 N134 1.340 . S
C136 N135 1.321 . S
C136 H160 0.930 . S
H137 C132 0.931 . S
Co138 N135 2.135 . S
Co138 N141 2.121 . S
Co138 O146 2.055 . S
Co138 O149 2.039 . S
Co138 N152 2.140 . S
C139 O140 1.227 . S
C139 O149 1.265 . S
O140 C139 1.227 . S
N141 Co138 2.121 . S
N141 C143 1.375 . S
N141 C144 1.313 . S
C142 C143 1.338 . S
C142 N145 1.377 . S
C142 H162 0.930 . S
C143 N141 1.375 . S
C143 C142 1.338 . S
C143 H147 0.931 . S
C144 N141 1.313 . S
C144 N145 1.344 . S
C144 H148 0.930 . S
N145 C142 1.377 . S
N145 C144 1.344 . S
O146 Co138 2.055 . S
O146 C150 1.253 . S
H147 C143 0.931 . S
H148 C144 0.930 . S
O149 Co138 2.039 . S
O149 C139 1.265 . S
C150 O146 1.253 . S
C150 O151 1.227 . S
O151 C150 1.227 . S
N152 Co138 2.140 . S
N152 C155 1.346 . S
N152 C156 1.345 . S
C153 C154 1.387 . S
C153 C157 1.391 . S
C154 C153 1.387 . S
C154 C155 1.369 . S
C154 H163 0.929 . S
C155 N152 1.346 . S
C155 C154 1.369 . S
C155 H158 0.928 . S
C156 N152 1.345 . S
C156 C157 1.371 . S
C156 H159 0.931 . S
C157 C153 1.391 . S
C157 C156 1.371 . S
C157 H164 0.930 . S
H158 C155 0.928 . S
H159 C156 0.931 . S
H160 C136 0.930 . S
H161 C133 0.930 . S
H162 C142 0.930 . S
H163 C154 0.929 . S
H164 C157 0.930 . S
C165 C166 1.351 . S
C165 N168 1.368 . S
C165 H170 0.931 . S
C166 C165 1.351 . S
C166 N167 1.373 . S
C166 H194 0.930 . S
N167 C166 1.373 . S
N167 C169 1.340 . S
N168 C165 1.368 . S
N168 C169 1.321 . S
N168 Co171 2.135 . S
C169 N167 1.340 . S
C169 N168 1.321 . S
C169 H193 0.930 . S
H170 C165 0.931 . S
Co171 N168 2.135 . S
Co171 N174 2.121 1_556 S
Co171 O179 2.055 . S
Co171 O182 2.039 . S
Co171 N185 2.140 . S
C172 O173 1.227 . S
C172 O182 1.265 . S
O173 C172 1.227 . S
N174 Co171 2.121 1_554 S
N174 C176 1.375 . S
N174 C177 1.313 . S
C175 C176 1.338 . S
C175 N178 1.377 . S
C175 H195 0.930 . S
C176 N174 1.375 . S
C176 C175 1.338 . S
C176 H180 0.931 . S
C177 N174 1.313 . S
C177 N178 1.344 . S
C177 H181 0.930 . S
N178 C175 1.377 . S
N178 C177 1.344 . S
O179 Co171 2.055 . S
O179 C183 1.253 . S
H180 C176 0.931 . S
H181 C177 0.930 . S
O182 Co171 2.039 . S
O182 C172 1.265 . S
C183 O179 1.253 . S
C183 O184 1.227 . S
O184 C183 1.227 . S
N185 Co171 2.140 . S
N185 C188 1.346 . S
N185 C189 1.345 . S
C186 C187 1.387 . S
C186 C190 1.391 . S
C187 C186 1.387 . S
C187 C188 1.369 . S
C187 H196 0.929 . S
C188 N185 1.346 . S
C188 C187 1.369 . S
C188 H191 0.928 . S
C189 N185 1.345 . S
C189 C190 1.371 . S
C189 H192 0.931 1_556 S
C190 C186 1.391 . S
C190 C189 1.371 . S
C190 H197 0.930 1_556 S
H191 C188 0.928 . S
H192 C189 0.931 1_554 S
H193 C169 0.930 . S
H194 C166 0.930 . S
H195 C175 0.930 . S
H196 C187 0.929 . S
H197 C190 0.930 1_554 S
C198 C199 1.351 . S
C198 N201 1.368 . S
C198 H203 0.931 . S
C199 C198 1.351 . S
C199 N200 1.373 . S
C199 H227 0.930 . S
N200 C199 1.373 . S
N200 C202 1.340 . S
N201 C198 1.368 . S
N201 C202 1.321 . S
N201 Co204 2.135 . S
C202 N200 1.340 . S
C202 N201 1.321 . S
C202 H226 0.930 . S
H203 C198 0.931 . S
Co204 N201 2.135 . S
Co204 N207 2.121 . S
Co204 O212 2.055 . S
Co204 O215 2.039 . S
Co204 N218 2.140 . S
C205 O206 1.227 . S
C205 O215 1.265 . S
O206 C205 1.227 . S
N207 Co204 2.121 . S
N207 C209 1.375 . S
N207 C210 1.313 . S
C208 C209 1.338 . S
C208 N211 1.377 . S
C208 H228 0.930 . S
C209 N207 1.375 . S
C209 C208 1.338 . S
C209 H213 0.931 . S
C210 N207 1.313 . S
C210 N211 1.344 . S
C210 H214 0.930 . S
N211 C208 1.377 . S
N211 C210 1.344 . S
O212 Co204 2.055 . S
O212 C216 1.253 . S
H213 C209 0.931 . S
H214 C210 0.930 . S
O215 Co204 2.039 . S
O215 C205 1.265 . S
C216 O212 1.253 . S
C216 O217 1.227 . S
O217 C216 1.227 . S
N218 Co204 2.140 . S
N218 C221 1.346 . S
N218 C222 1.345 . S
C219 C220 1.387 . S
C219 C223 1.391 . S
C220 C219 1.387 . S
C220 C221 1.369 . S
C220 H229 0.929 . S
C221 N218 1.346 . S
C221 C220 1.369 . S
C221 H224 0.928 . S
C222 N218 1.345 . S
C222 C223 1.371 . S
C222 H225 0.931 . S
C223 C219 1.391 . S
C223 C222 1.371 . S
C223 H230 0.930 . S
H224 C221 0.928 . S
H225 C222 0.931 . S
H226 C202 0.930 . S
H227 C199 0.930 . S
H228 C208 0.930 . S
H229 C220 0.929 . S
H230 C223 0.930 . S
C231 C232 1.351 . S
C231 N234 1.368 . S
C231 H236 0.931 1_554 S
C232 C231 1.351 . S
C232 N233 1.373 . S
C232 H260 0.930 . S
N233 C232 1.373 . S
N233 C235 1.340 . S
N234 C231 1.368 . S
N234 C235 1.321 . S
N234 Co237 2.135 1_554 S
C235 N233 1.340 . S
C235 N234 1.321 . S
C235 H259 0.930 . S
H236 C231 0.931 1_556 S
Co237 N234 2.135 1_556 S
Co237 N240 2.121 . S
Co237 O245 2.055 . S
Co237 O248 2.039 . S
Co237 N251 2.140 . S
C238 O239 1.227 . S
C238 O248 1.265 . S
O239 C238 1.227 . S
N240 Co237 2.121 . S
N240 C242 1.375 . S
N240 C243 1.313 . S
C241 C242 1.338 . S
C241 N244 1.377 . S
C241 H261 0.930 . S
C242 N240 1.375 . S
C242 C241 1.338 . S
C242 H246 0.931 . S
C243 N240 1.313 . S
C243 N244 1.344 . S
C243 H247 0.930 . S
N244 C241 1.377 . S
N244 C243 1.344 . S
O245 Co237 2.055 . S
O245 C249 1.253 . S
H246 C242 0.931 . S
H247 C243 0.930 . S
O248 Co237 2.039 . S
O248 C238 1.265 . S
C249 O245 1.253 . S
C249 O250 1.227 . S
O250 C249 1.227 . S
N251 Co237 2.140 . S
N251 C254 1.346 . S
N251 C255 1.345 . S
C252 C253 1.387 . S
C252 C256 1.391 . S
C253 C252 1.387 . S
C253 C254 1.369 . S
C253 H262 0.929 . S
C254 N251 1.346 . S
C254 C253 1.369 . S
C254 H257 0.928 . S
C255 N251 1.345 . S
C255 C256 1.371 . S
C255 H258 0.931 . S
C256 C252 1.391 . S
C256 C255 1.371 . S
C256 H263 0.930 . S
H257 C254 0.928 . S
H258 C255 0.931 . S
H259 C235 0.930 . S
H260 C232 0.930 . S
H261 C241 0.930 . S
H262 C253 0.929 . S
H263 C256 0.930 . S
C264 C265 1.351 . S
C264 N267 1.368 . S
C264 H269 0.931 . S
C265 C264 1.351 . S
C265 N266 1.373 . S
C265 H293 0.930 . S
N266 C265 1.373 . S
N266 C268 1.340 . S
N267 C264 1.368 . S
N267 C268 1.321 . S
N267 Co270 2.135 . S
C268 N266 1.340 . S
C268 N267 1.321 . S
C268 H292 0.930 . S
H269 C264 0.931 . S
Co270 N267 2.135 . S
Co270 N273 2.121 1_554 S
Co270 O278 2.055 . S
Co270 O281 2.039 . S
Co270 N284 2.140 . S
C271 O272 1.227 . S
C271 O281 1.265 . S
O272 C271 1.227 . S
N273 Co270 2.121 1_556 S
N273 C275 1.375 . S
N273 C276 1.313 . S
C274 C275 1.338 . S
C274 N277 1.377 . S
C274 H294 0.930 . S
C275 N273 1.375 . S
C275 C274 1.338 . S
C275 H279 0.931 . S
C276 N273 1.313 . S
C276 N277 1.344 . S
C276 H280 0.930 . S
N277 C274 1.377 . S
N277 C276 1.344 . S
O278 Co270 2.055 . S
O278 C282 1.253 . S
H279 C275 0.931 . S
H280 C276 0.930 . S
O281 Co270 2.039 . S
O281 C271 1.265 . S
C282 O278 1.253 . S
C282 O283 1.227 . S
O283 C282 1.227 . S
N284 Co270 2.140 . S
N284 C287 1.346 . S
N284 C288 1.345 . S
C285 C286 1.387 . S
C285 C289 1.391 . S
C286 C285 1.387 . S
C286 C287 1.369 . S
C286 H295 0.929 . S
C287 N284 1.346 . S
C287 C286 1.369 . S
C287 H290 0.928 . S
C288 N284 1.345 . S
C288 C289 1.371 . S
C288 H291 0.931 1_554 S
C289 C285 1.391 . S
C289 C288 1.371 . S
C289 H296 0.930 1_554 S
H290 C287 0.928 . S
H291 C288 0.931 1_556 S
H292 C268 0.930 . S
H293 C265 0.930 . S
H294 C274 0.930 . S
H295 C286 0.929 . S
H296 C289 0.930 1_556 S
C297 C298 1.351 . S
C297 N300 1.368 . S
C297 H302 0.931 . S
C298 C297 1.351 . S
C298 N299 1.373 . S
C298 H326 0.930 . S
N299 C298 1.373 . S
N299 C301 1.340 . S
N300 C297 1.368 . S
N300 C301 1.321 . S
N300 Co303 2.135 . S
C301 N299 1.340 . S
C301 N300 1.321 . S
C301 H325 0.930 . S
H302 C297 0.931 . S
Co303 N300 2.135 . S
Co303 N306 2.121 . S
Co303 O311 2.055 . S
Co303 O314 2.039 . S
Co303 N317 2.140 . S
C304 O305 1.227 . S
C304 O314 1.265 . S
O305 C304 1.227 . S
N306 Co303 2.121 . S
N306 C308 1.375 . S
N306 C309 1.313 . S
C307 C308 1.338 . S
C307 N310 1.377 . S
C307 H327 0.930 . S
C308 N306 1.375 . S
C308 C307 1.338 . S
C308 H312 0.931 . S
C309 N306 1.313 . S
C309 N310 1.344 . S
C309 H313 0.930 . S
N310 C307 1.377 . S
N310 C309 1.344 . S
O311 Co303 2.055 . S
O311 C315 1.253 . S
H312 C308 0.931 . S
H313 C309 0.930 . S
O314 Co303 2.039 . S
O314 C304 1.265 . S
C315 O311 1.253 . S
C315 O316 1.227 . S
O316 C315 1.227 . S
N317 Co303 2.140 . S
N317 C320 1.346 . S
N317 C321 1.345 . S
C318 C319 1.387 . S
C318 C322 1.391 . S
C319 C318 1.387 . S
C319 C320 1.369 . S
C319 H328 0.929 . S
C320 N317 1.346 . S
C320 C319 1.369 . S
C320 H323 0.928 . S
C321 N317 1.345 . S
C321 C322 1.371 . S
C321 H324 0.931 . S
C322 C318 1.391 . S
C322 C321 1.371 . S
C322 H329 0.930 . S
H323 C320 0.928 . S
H324 C321 0.931 . S
H325 C301 0.930 . S
H326 C298 0.930 . S
H327 C307 0.930 . S
H328 C319 0.929 . S
H329 C322 0.930 . S
C330 C331 1.351 . S
C330 N333 1.368 . S
C330 H335 0.931 . S
C331 C330 1.351 . S
C331 N332 1.373 . S
C331 H359 0.930 . S
N332 C331 1.373 . S
N332 C334 1.340 . S
N333 C330 1.368 . S
N333 C334 1.321 . S
N333 Co336 2.135 . S
C334 N332 1.340 . S
C334 N333 1.321 . S
C334 H358 0.930 . S
H335 C330 0.931 . S
Co336 N333 2.135 . S
Co336 N339 2.121 . S
Co336 O344 2.055 . S
Co336 O347 2.039 . S
Co336 N350 2.140 . S
C337 O338 1.227 . S
C337 O347 1.265 . S
O338 C337 1.227 . S
N339 Co336 2.121 . S
N339 C341 1.375 . S
N339 C342 1.313 . S
C340 C341 1.338 . S
C340 N343 1.377 . S
C340 H360 0.930 . S
C341 N339 1.375 . S
C341 C340 1.338 . S
C341 H345 0.931 . S
C342 N339 1.313 . S
C342 N343 1.344 . S
C342 H346 0.930 . S
N343 C340 1.377 . S
N343 C342 1.344 . S
O344 Co336 2.055 . S
O344 C348 1.253 . S
H345 C341 0.931 . S
H346 C342 0.930 . S
O347 Co336 2.039 . S
O347 C337 1.265 . S
C348 O344 1.253 . S
C348 O349 1.227 . S
O349 C348 1.227 . S
N350 Co336 2.140 . S
N350 C353 1.346 . S
N350 C354 1.345 . S
C351 C352 1.387 . S
C351 C355 1.391 . S
C352 C351 1.387 . S
C352 C353 1.369 . S
C352 H361 0.929 . S
C353 N350 1.346 . S
C353 C352 1.369 . S
C353 H356 0.928 . S
C354 N350 1.345 . S
C354 C355 1.371 . S
C354 H357 0.931 . S
C355 C351 1.391 . S
C355 C354 1.371 . S
C355 H362 0.930 . S
H356 C353 0.928 . S
H357 C354 0.931 . S
H358 C334 0.930 . S
H359 C331 0.930 . S
H360 C340 0.930 . S
H361 C352 0.929 . S
H362 C355 0.930 . S
C363 C364 1.351 . S
C363 N366 1.368 . S
C363 H368 0.931 . S
C364 C363 1.351 . S
C364 N365 1.373 . S
C364 H392 0.930 . S
N365 C364 1.373 . S
N365 C367 1.340 . S
N366 C363 1.368 . S
N366 C367 1.321 . S
N366 Co369 2.135 . S
C367 N365 1.340 . S
C367 N366 1.321 . S
C367 H391 0.930 . S
H368 C363 0.931 . S
Co369 N366 2.135 . S
Co369 N372 2.121 . S
Co369 O377 2.055 . S
Co369 O380 2.039 . S
Co369 N383 2.140 . S
C370 O371 1.227 . S
C370 O380 1.265 . S
O371 C370 1.227 . S
N372 Co369 2.121 . S
N372 C374 1.375 . S
N372 C375 1.313 . S
C373 C374 1.338 . S
C373 N376 1.377 . S
C373 H393 0.930 . S
C374 N372 1.375 . S
C374 C373 1.338 . S
C374 H378 0.931 . S
C375 N372 1.313 . S
C375 N376 1.344 . S
C375 H379 0.930 . S
N376 C373 1.377 . S
N376 C375 1.344 . S
O377 Co369 2.055 . S
O377 C381 1.253 . S
H378 C374 0.931 . S
H379 C375 0.930 . S
O380 Co369 2.039 . S
O380 C370 1.265 . S
C381 O377 1.253 . S
C381 O382 1.227 . S
O382 C381 1.227 . S
N383 Co369 2.140 . S
N383 C386 1.346 . S
N383 C387 1.345 . S
C384 C385 1.387 . S
C384 C388 1.391 . S
C385 C384 1.387 . S
C385 C386 1.369 . S
C385 H394 0.929 . S
C386 N383 1.346 . S
C386 C385 1.369 . S
C386 H389 0.928 . S
C387 N383 1.345 . S
C387 C388 1.371 . S
C387 H390 0.931 . S
C388 C384 1.391 . S
C388 C387 1.371 . S
C388 H395 0.930 . S
H389 C386 0.928 . S
H390 C387 0.931 . S
H391 C367 0.930 . S
H392 C364 0.930 . S
H393 C373 0.930 . S
H394 C385 0.929 . S
H395 C388 0.930 . S
H396 C404 0.929 . S
H397 C406 0.930 . S
H398 C408 0.930 . S
H399 C411 0.929 . S
H400 C414 0.930 . S
H401 C416 0.960 . S
H402 C416 0.960 . S
H403 C416 0.960 . S
C404 H396 0.929 . S
C404 C405 1.377 . S
C404 C406 1.384 . S
C405 C404 1.377 . S
C405 C411 1.390 . S
C406 H397 0.930 . S
C406 C404 1.384 . S
C406 C407 1.372 . S
C407 C406 1.372 . S
C407 C408 1.400 . S
C407 C412 1.490 . S
C408 H398 0.930 . S
C408 C407 1.400 . S
C408 C411 1.386 . S
H409 C425 0.930 . S
H410 C426 0.931 . S
C411 H399 0.929 . S
C411 C405 1.390 . S
C411 C408 1.386 . S
C412 C407 1.490 . S
C412 C414 1.395 . S
C412 C415 1.403 . S
H413 C419 0.930 . S
C414 H400 0.930 . S
C414 C412 1.395 . S
C414 C417 1.403 . S
C415 C412 1.403 . S
C415 C416 1.524 . S
C415 C419 1.400 . S
C416 H401 0.960 . S
C416 H402 0.960 . S
C416 H403 0.960 . S
C416 C415 1.524 . S
C417 C414 1.403 . S
C417 C418 1.392 . S
C417 C421 1.495 . S
C418 C417 1.392 . S
C418 C419 1.385 . S
C418 C420 1.478 . S
C419 H413 0.930 . S
C419 C415 1.400 . S
C419 C418 1.385 . S
C420 C418 1.478 . S
C420 C422 1.381 . S
C420 C426 1.383 . S
C421 C417 1.495 . S
C421 H427 0.959 . S
C421 H428 0.961 . S
C421 H429 0.960 . S
C422 C420 1.381 . S
C422 C423 1.394 . S
C422 H430 0.930 . S
C423 C422 1.394 . S
C423 C424 1.383 . S
C423 H431 0.929 . S
C424 C423 1.383 . S
C424 C425 1.377 . S
C425 H409 0.930 . S
C425 C424 1.377 . S
C425 C426 1.379 . S
C426 H410 0.931 . S
C426 C420 1.383 . S
C426 C425 1.379 . S
H427 C421 0.959 . S
H428 C421 0.961 . S
H429 C421 0.960 . S
H430 C422 0.930 . S
H431 C423 0.929 . S
H432 C440 0.929 . S
H433 C442 0.930 . S
H434 C444 0.930 . S
H435 C447 0.929 1_554 S
H436 C450 0.930 . S
H437 C452 0.960 . S
H438 C452 0.960 . S
H439 C452 0.960 . S
C440 H432 0.929 . S
C440 C441 1.377 1_556 S
C440 C442 1.384 . S
C441 C440 1.377 1_554 S
C441 C447 1.390 1_554 S
C442 H433 0.930 . S
C442 C440 1.384 . S
C442 C443 1.372 . S
C443 C442 1.372 . S
C443 C444 1.400 . S
C443 C448 1.490 . S
C444 H434 0.930 . S
C444 C443 1.400 . S
C444 C447 1.386 . S
H445 C461 0.930 . S
H446 C462 0.931 . S
C447 H435 0.929 1_556 S
C447 C441 1.390 1_556 S
C447 C444 1.386 . S
C448 C443 1.490 . S
C448 C450 1.395 . S
C448 C451 1.403 . S
H449 C455 0.930 . S
C450 H436 0.930 . S
C450 C448 1.395 . S
C450 C453 1.403 . S
C451 C448 1.403 . S
C451 C452 1.524 . S
C451 C455 1.400 . S
C452 H437 0.960 . S
C452 H438 0.960 . S
C452 H439 0.960 . S
C452 C451 1.524 . S
C453 C450 1.403 . S
C453 C454 1.392 . S
C453 C457 1.495 . S
C454 C453 1.392 . S
C454 C455 1.385 . S
C454 C456 1.478 . S
C455 H449 0.930 . S
C455 C451 1.400 . S
C455 C454 1.385 . S
C456 C454 1.478 . S
C456 C458 1.381 . S
C456 C462 1.383 . S
C457 C453 1.495 . S
C457 H463 0.959 . S
C457 H464 0.961 . S
C457 H465 0.960 . S
C458 C456 1.381 . S
C458 C459 1.394 . S
C458 H466 0.930 . S
C459 C458 1.394 . S
C459 C460 1.383 . S
C459 H467 0.929 . S
C460 C459 1.383 . S
C460 C461 1.377 . S
C461 H445 0.930 . S
C461 C460 1.377 . S
C461 C462 1.379 . S
C462 H446 0.931 . S
C462 C456 1.383 . S
C462 C461 1.379 . S
H463 C457 0.959 . S
H464 C457 0.961 . S
H465 C457 0.960 . S
H466 C458 0.930 . S
H467 C459 0.929 . S
H468 C476 0.929 . S
H469 C478 0.930 . S
H470 C480 0.930 . S
H471 C483 0.929 . S
H472 C486 0.930 . S
H473 C488 0.960 . S
H474 C488 0.960 . S
H475 C488 0.960 . S
C476 H468 0.929 . S
C476 C477 1.377 . S
C476 C478 1.384 . S
C477 C476 1.377 . S
C477 C483 1.390 . S
C478 H469 0.930 . S
C478 C476 1.384 . S
C478 C479 1.372 . S
C479 C478 1.372 . S
C479 C480 1.400 . S
C479 C484 1.490 1_554 S
C480 H470 0.930 . S
C480 C479 1.400 . S
C480 C483 1.386 . S
H481 C497 0.930 . S
H482 C498 0.931 . S
C483 H471 0.929 . S
C483 C477 1.390 . S
C483 C480 1.386 . S
C484 C479 1.490 1_556 S
C484 C486 1.395 . S
C484 C487 1.403 . S
H485 C491 0.930 . S
C486 H472 0.930 . S
C486 C484 1.395 . S
C486 C489 1.403 . S
C487 C484 1.403 . S
C487 C488 1.524 . S
C487 C491 1.400 . S
C488 H473 0.960 . S
C488 H474 0.960 . S
C488 H475 0.960 . S
C488 C487 1.524 . S
C489 C486 1.403 . S
C489 C490 1.392 . S
C489 C493 1.495 . S
C490 C489 1.392 . S
C490 C491 1.385 . S
C490 C492 1.478 . S
C491 H485 0.930 . S
C491 C487 1.400 . S
C491 C490 1.385 . S
C492 C490 1.478 . S
C492 C494 1.381 . S
C492 C498 1.383 . S
C493 C489 1.495 . S
C493 H499 0.959 . S
C493 H500 0.961 . S
C493 H501 0.960 . S
C494 C492 1.381 . S
C494 C495 1.394 . S
C494 H502 0.930 . S
C495 C494 1.394 . S
C495 C496 1.383 . S
C495 H503 0.929 . S
C496 C495 1.383 . S
C496 C497 1.377 . S
C497 H481 0.930 . S
C497 C496 1.377 . S
C497 C498 1.379 . S
C498 H482 0.931 . S
C498 C492 1.383 . S
C498 C497 1.379 . S
H499 C493 0.959 . S
H500 C493 0.961 . S
H501 C493 0.960 . S
H502 C494 0.930 . S
H503 C495 0.929 . S
H504 C512 0.929 . S
H505 C514 0.930 . S
H506 C516 0.930 . S
H507 C519 0.929 . S
H508 C522 0.930 . S
H509 C524 0.960 . S
H510 C524 0.960 . S
H511 C524 0.960 1_556 S
C512 H504 0.929 . S
C512 C513 1.377 . S
C512 C514 1.384 . S
C513 C512 1.377 . S
C513 C519 1.390 . S
C514 H505 0.930 . S
C514 C512 1.384 . S
C514 C515 1.372 . S
C515 C514 1.372 . S
C515 C516 1.400 . S
C515 C520 1.490 1_556 S
C516 H506 0.930 . S
C516 C515 1.400 . S
C516 C519 1.386 . S
H517 C533 0.930 . S
H518 C534 0.931 . S
C519 H507 0.929 . S
C519 C513 1.390 . S
C519 C516 1.386 . S
C520 C515 1.490 1_554 S
C520 C522 1.395 . S
C520 C523 1.403 . S
H521 C527 0.930 . S
C522 H508 0.930 . S
C522 C520 1.395 . S
C522 C525 1.403 . S
C523 C520 1.403 . S
C523 C524 1.524 . S
C523 C527 1.400 . S
C524 H509 0.960 . S
C524 H510 0.960 . S
C524 H511 0.960 1_554 S
C524 C523 1.524 . S
C525 C522 1.403 . S
C525 C526 1.392 . S
C525 C529 1.495 . S
C526 C525 1.392 . S
C526 C527 1.385 . S
C526 C528 1.478 . S
C527 H521 0.930 . S
C527 C523 1.400 . S
C527 C526 1.385 . S
C528 C526 1.478 . S
C528 C530 1.381 . S
C528 C534 1.383 . S
C529 C525 1.495 . S
C529 H535 0.959 . S
C529 H536 0.961 . S
C529 H537 0.960 . S
C530 C528 1.381 . S
C530 C531 1.394 . S
C530 H538 0.930 . S
C531 C530 1.394 . S
C531 C532 1.383 . S
C531 H539 0.929 . S
C532 C531 1.383 . S
C532 C533 1.377 . S
C533 H517 0.930 . S
C533 C532 1.377 . S
C533 C534 1.379 . S
C534 H518 0.931 . S
C534 C528 1.383 . S
C534 C533 1.379 . S
H535 C529 0.959 . S
H536 C529 0.961 . S
H537 C529 0.960 . S
H538 C530 0.930 . S
H539 C531 0.929 . S
H540 C548 0.929 1_556 S
H541 C550 0.930 . S
H542 C552 0.930 . S
H543 C555 0.929 . S
H544 C558 0.930 . S
H545 C560 0.960 . S
H546 C560 0.960 . S
H547 C560 0.960 . S
C548 H540 0.929 1_554 S
C548 C549 1.371 1_554 S
C548 C550 1.384 . S
C549 C548 1.371 1_556 S
C549 C555 1.380 1_556 S
C550 H541 0.930 . S
C550 C548 1.384 . S
C550 C551 1.372 . S
C551 C550 1.372 . S
C551 C552 1.400 . S
C551 C556 1.490 . S
C552 H542 0.930 . S
C552 C551 1.400 . S
C552 C555 1.386 . S
H553 C569 0.930 . S
H554 C570 0.931 . S
C555 H543 0.929 . S
C555 C549 1.380 1_554 S
C555 C552 1.386 . S
C556 C551 1.490 . S
C556 C558 1.395 . S
C556 C559 1.403 . S
H557 C563 0.930 . S
C558 H544 0.930 . S
C558 C556 1.395 . S
C558 C561 1.403 . S
C559 C556 1.403 . S
C559 C560 1.524 . S
C559 C563 1.400 . S
C560 H545 0.960 . S
C560 H546 0.960 . S
C560 H547 0.960 . S
C560 C559 1.524 . S
C561 C558 1.403 . S
C561 C562 1.392 . S
C561 C565 1.495 . S
C562 C561 1.392 . S
C562 C563 1.385 . S
C562 C564 1.478 . S
C563 H557 0.930 . S
C563 C559 1.400 . S
C563 C562 1.385 . S
C564 C562 1.478 . S
C564 C566 1.381 . S
C564 C570 1.383 . S
C565 C561 1.495 . S
C565 H571 0.959 . S
C565 H572 0.961 . S
C565 H573 0.960 . S
C566 C564 1.381 . S
C566 C567 1.394 . S
C566 H574 0.930 . S
C567 C566 1.394 . S
C567 C568 1.383 . S
C567 H575 0.929 . S
C568 C567 1.383 . S
C568 C569 1.377 . S
C569 H553 0.930 . S
C569 C568 1.377 . S
C569 C570 1.379 . S
C570 H554 0.931 . S
C570 C564 1.383 . S
C570 C569 1.379 . S
H571 C565 0.959 . S
H572 C565 0.961 . S
H573 C565 0.960 . S
H574 C566 0.930 . S
H575 C567 0.929 . S
H576 C584 0.929 . S
H577 C586 0.930 . S
H578 C588 0.930 . S
H579 C591 0.929 . S
H580 C594 0.930 . S
H581 C596 0.960 . S
H582 C596 0.960 . S
H583 C596 0.960 . S
C584 H576 0.929 . S
C584 C585 1.377 . S
C584 C586 1.384 . S
C585 C584 1.377 . S
C585 C591 1.390 . S
C586 H577 0.930 . S
C586 C584 1.384 . S
C586 C587 1.372 . S
C587 C586 1.372 . S
C587 C588 1.400 . S
C587 C592 1.490 . S
C588 H578 0.930 . S
C588 C587 1.400 . S
C588 C591 1.386 . S
H589 C605 0.930 . S
H590 C606 0.931 . S
C591 H579 0.929 . S
C591 C585 1.390 . S
C591 C588 1.386 . S
C592 C587 1.490 . S
C592 C594 1.395 . S
C592 C595 1.403 . S
H593 C599 0.930 . S
C594 H580 0.930 . S
C594 C592 1.395 . S
C594 C597 1.403 . S
C595 C592 1.403 . S
C595 C596 1.524 . S
C595 C599 1.400 . S
C596 H581 0.960 . S
C596 H582 0.960 . S
C596 H583 0.960 . S
C596 C595 1.524 . S
C597 C594 1.403 . S
C597 C598 1.392 . S
C597 C601 1.495 . S
C598 C597 1.392 . S
C598 C599 1.385 . S
C598 C600 1.478 . S
C599 H593 0.930 . S
C599 C595 1.400 . S
C599 C598 1.385 . S
C600 C598 1.478 . S
C600 C602 1.381 . S
C600 C606 1.383 . S
C601 C597 1.495 . S
C601 H607 0.959 . S
C601 H608 0.961 . S
C601 H609 0.960 . S
C602 C600 1.381 . S
C602 C603 1.394 . S
C602 H610 0.930 . S
C603 C602 1.394 . S
C603 C604 1.383 . S
C603 H611 0.929 . S
C604 C603 1.383 . S
C604 C605 1.377 . S
C605 H589 0.930 . S
C605 C604 1.377 . S
C605 C606 1.379 . S
C606 H590 0.931 . S
C606 C600 1.383 . S
C606 C605 1.379 . S
H607 C601 0.959 . S
H608 C601 0.961 . S
H609 C601 0.960 . S
H610 C602 0.930 . S
H611 C603 0.929 . S
H612 C620 0.929 . S
H613 C622 0.930 . S
H614 C624 0.930 . S
H615 C627 0.929 . S
H616 C630 0.930 . S
H617 C632 0.960 . S
H618 C632 0.960 . S
H619 C632 0.960 . S
C620 H612 0.929 . S
C620 C621 1.377 . S
C620 C622 1.384 . S
C621 C620 1.377 . S
C621 C627 1.390 . S
C622 H613 0.930 . S
C622 C620 1.384 . S
C622 C623 1.372 . S
C623 C622 1.372 . S
C623 C624 1.400 . S
C623 C628 1.490 . S
C624 H614 0.930 . S
C624 C623 1.400 . S
C624 C627 1.386 . S
H625 C641 0.930 . S
H626 C642 0.931 . S
C627 H615 0.929 . S
C627 C621 1.390 . S
C627 C624 1.386 . S
C628 C623 1.490 . S
C628 C630 1.395 . S
C628 C631 1.403 . S
H629 C635 0.930 . S
C630 H616 0.930 . S
C630 C628 1.395 . S
C630 C633 1.403 . S
C631 C628 1.403 . S
C631 C632 1.524 . S
C631 C635 1.400 . S
C632 H617 0.960 . S
C632 H618 0.960 . S
C632 H619 0.960 . S
C632 C631 1.524 . S
C633 C630 1.403 . S
C633 C634 1.392 . S
C633 C637 1.495 . S
C634 C633 1.392 . S
C634 C635 1.385 . S
C634 C636 1.478 . S
C635 H629 0.930 . S
C635 C631 1.400 . S
C635 C634 1.385 . S
C636 C634 1.478 . S
C636 C638 1.381 . S
C636 C642 1.383 . S
C637 C633 1.495 . S
C637 H643 0.959 . S
C637 H644 0.961 . S
C637 H645 0.960 . S
C638 C636 1.381 . S
C638 C639 1.394 . S
C638 H646 0.930 . S
C639 C638 1.394 . S
C639 C640 1.383 1_554 S
C639 H647 0.929 1_554 S
C640 C639 1.383 1_556 S
C640 C641 1.377 1_556 S
C641 H625 0.930 . S
C641 C640 1.377 1_554 S
C641 C642 1.379 . S
C642 H626 0.931 . S
C642 C636 1.383 . S
C642 C641 1.379 . S
H643 C637 0.959 . S
H644 C637 0.961 . S
H645 C637 0.960 . S
H646 C638 0.930 . S
H647 C639 0.929 1_556 S
H648 C656 0.929 . S
H649 C658 0.930 . S
H650 C660 0.930 . S
H651 C663 0.929 . S
H652 C666 0.930 . S
H653 C668 0.960 . S
H654 C668 0.960 . S
H655 C668 0.960 . S
C656 H648 0.929 . S
C656 C657 1.377 . S
C656 C658 1.384 . S
C657 C656 1.377 . S
C657 C663 1.390 . S
C658 H649 0.930 . S
C658 C656 1.384 . S
C658 C659 1.372 . S
C659 C658 1.372 . S
C659 C660 1.400 . S
C659 C664 1.490 . S
C660 H650 0.930 . S
C660 C659 1.400 . S
C660 C663 1.386 . S
H661 C677 0.930 . S
H662 C678 0.931 . S
C663 H651 0.929 . S
C663 C657 1.390 . S
C663 C660 1.386 . S
C664 C659 1.490 . S
C664 C666 1.395 . S
C664 C667 1.403 . S
H665 C671 0.930 . S
C666 H652 0.930 . S
C666 C664 1.395 . S
C666 C669 1.403 . S
C667 C664 1.403 . S
C667 C668 1.524 . S
C667 C671 1.400 . S
C668 H653 0.960 . S
C668 H654 0.960 . S
C668 H655 0.960 . S
C668 C667 1.524 . S
C669 C666 1.403 . S
C669 C670 1.392 . S
C669 C673 1.495 . S
C670 C669 1.392 . S
C670 C671 1.385 . S
C670 C672 1.478 . S
C671 H665 0.930 . S
C671 C667 1.400 . S
C671 C670 1.385 . S
C672 C670 1.478 . S
C672 C674 1.381 . S
C672 C678 1.383 . S
C673 C669 1.495 . S
C673 H679 0.959 . S
C673 H680 0.961 . S
C673 H681 0.960 . S
C674 C672 1.381 . S
C674 C675 1.394 . S
C674 H682 0.930 . S
C675 C674 1.394 . S
C675 C676 1.383 . S
C675 H683 0.929 . S
C676 C675 1.383 . S
C676 C677 1.377 . S
C677 H661 0.930 . S
C677 C676 1.377 . S
C677 C678 1.379 . S
C678 H662 0.931 . S
C678 C672 1.383 . S
C678 C677 1.379 . S
H679 C673 0.959 . S
H680 C673 0.961 . S
H681 C673 0.960 . S
H682 C674 0.930 . S
H683 C675 0.929 . S
H684 C692 0.929 . S
H685 C694 0.930 . S
H686 C696 0.930 . S
H687 C699 0.929 . S
H688 C702 0.930 . S
H689 C704 0.960 . S
H690 C704 0.960 . S
H691 C704 0.960 . S
C692 H684 0.929 . S
C692 C693 1.377 . S
C692 C694 1.384 . S
C693 C692 1.377 . S
C693 C699 1.390 . S
C694 H685 0.930 . S
C694 C692 1.384 . S
C694 C695 1.372 . S
C695 C694 1.372 . S
C695 C696 1.400 . S
C695 C700 1.490 . S
C696 H686 0.930 . S
C696 C695 1.400 . S
C696 C699 1.386 . S
H697 C713 0.930 . S
H698 C714 0.931 . S
C699 H687 0.929 . S
C699 C693 1.390 . S
C699 C696 1.386 . S
C700 C695 1.490 . S
C700 C702 1.395 . S
C700 C703 1.403 . S
H701 C707 0.930 . S
C702 H688 0.930 . S
C702 C700 1.395 . S
C702 C705 1.403 . S
C703 C700 1.403 . S
C703 C704 1.524 . S
C703 C707 1.400 . S
C704 H689 0.960 . S
C704 H690 0.960 . S
C704 H691 0.960 . S
C704 C703 1.524 . S
C705 C702 1.403 . S
C705 C706 1.392 . S
C705 C709 1.495 . S
C706 C705 1.392 . S
C706 C707 1.385 . S
C706 C708 1.478 . S
C707 H701 0.930 . S
C707 C703 1.400 . S
C707 C706 1.385 . S
C708 C706 1.478 . S
C708 C710 1.381 . S
C708 C714 1.383 . S
C709 C705 1.495 . S
C709 H715 0.959 . S
C709 H716 0.961 . S
C709 H717 0.960 . S
C710 C708 1.381 . S
C710 C711 1.394 . S
C710 H718 0.930 . S
C711 C710 1.394 . S
C711 C712 1.383 . S
C711 H719 0.929 . S
C712 C711 1.383 . S
C712 C713 1.377 . S
C713 H697 0.930 . S
C713 C712 1.377 . S
C713 C714 1.379 . S
C714 H698 0.931 . S
C714 C708 1.383 . S
C714 C713 1.379 . S
H715 C709 0.959 . S
H716 C709 0.961 . S
H717 C709 0.960 . S
H718 C710 0.930 . S
H719 C711 0.929 . S
H720 C728 0.929 . S
H721 C730 0.930 . S
H722 C732 0.930 . S
H723 C735 0.929 . S
H724 C738 0.930 . S
H725 C740 0.960 . S
H726 C740 0.960 . S
H727 C740 0.960 . S
C728 H720 0.929 . S
C728 C729 1.370 1_556 S
C728 C730 1.384 . S
C729 C728 1.370 1_554 S
C729 C735 1.384 1_554 S
C730 H721 0.930 . S
C730 C728 1.384 . S
C730 C731 1.372 . S
C731 C730 1.372 . S
C731 C732 1.400 . S
C731 C736 1.490 . S
C732 H722 0.930 . S
C732 C731 1.400 . S
C732 C735 1.386 . S
H733 C749 0.930 . S
H734 C750 0.931 . S
C735 H723 0.929 . S
C735 C729 1.384 1_556 S
C735 C732 1.386 . S
C736 C731 1.490 . S
C736 C738 1.395 . S
C736 C739 1.403 . S
H737 C743 0.930 . S
C738 H724 0.930 . S
C738 C736 1.395 . S
C738 C741 1.403 . S
C739 C736 1.403 . S
C739 C740 1.524 . S
C739 C743 1.400 . S
C740 H725 0.960 . S
C740 H726 0.960 . S
C740 H727 0.960 . S
C740 C739 1.524 . S
C741 C738 1.403 . S
C741 C742 1.392 . S
C741 C745 1.495 . S
C742 C741 1.392 . S
C742 C743 1.385 . S
C742 C744 1.478 . S
C743 H737 0.930 . S
C743 C739 1.400 . S
C743 C742 1.385 . S
C744 C742 1.478 . S
C744 C746 1.381 . S
C744 C750 1.383 . S
C745 C741 1.495 . S
C745 H751 0.959 . S
C745 H752 0.961 . S
C745 H753 0.960 . S
C746 C744 1.381 . S
C746 C747 1.394 . S
C746 H754 0.930 . S
C747 C746 1.394 . S
C747 C748 1.383 . S
C747 H755 0.929 . S
C748 C747 1.383 . S
C748 C749 1.377 . S
C749 H733 0.930 . S
C749 C748 1.377 . S
C749 C750 1.379 . S
C750 H734 0.931 . S
C750 C744 1.383 . S
C750 C749 1.379 . S
H751 C745 0.959 . S
H752 C745 0.961 . S
H753 C745 0.960 . S
H754 C746 0.930 . S
H755 C747 0.929 . S
H756 C764 0.929 . S
H757 C766 0.930 . S
H758 C768 0.930 . S
H759 C771 0.929 . S
H760 C774 0.930 . S
H761 C776 0.960 . S
H762 C776 0.960 . S
H763 C776 0.960 1_554 S
C764 H756 0.929 . S
C764 C765 1.377 . S
C764 C766 1.384 . S
C765 C764 1.377 . S
C765 C771 1.390 . S
C766 H757 0.930 . S
C766 C764 1.384 . S
C766 C767 1.372 . S
C767 C766 1.372 . S
C767 C768 1.400 . S
C767 C772 1.490 1_554 S
C768 H758 0.930 . S
C768 C767 1.400 . S
C768 C771 1.386 . S
H769 C785 0.930 . S
H770 C786 0.931 . S
C771 H759 0.929 . S
C771 C765 1.390 . S
C771 C768 1.386 . S
C772 C767 1.490 1_556 S
C772 C774 1.395 . S
C772 C775 1.403 . S
H773 C779 0.930 . S
C774 H760 0.930 . S
C774 C772 1.395 . S
C774 C777 1.403 . S
C775 C772 1.403 . S
C775 C776 1.524 . S
C775 C779 1.400 . S
C776 H761 0.960 . S
C776 H762 0.960 . S
C776 H763 0.960 1_556 S
C776 C775 1.524 . S
C777 C774 1.403 . S
C777 C778 1.392 . S
C777 C781 1.495 . S
C778 C777 1.392 . S
C778 C779 1.385 . S
C778 C780 1.478 . S
C779 H773 0.930 . S
C779 C775 1.400 . S
C779 C778 1.385 . S
C780 C778 1.478 . S
C780 C782 1.381 . S
C780 C786 1.383 . S
C781 C777 1.495 . S
C781 H787 0.959 . S
C781 H788 0.961 . S
C781 H789 0.960 . S
C782 C780 1.381 . S
C782 C783 1.394 . S
C782 H790 0.930 . S
C783 C782 1.394 . S
C783 C784 1.383 . S
C783 H791 0.929 . S
C784 C783 1.383 . S
C784 C785 1.377 . S
C785 H769 0.930 . S
C785 C784 1.377 . S
C785 C786 1.379 . S
C786 H770 0.931 . S
C786 C780 1.383 . S
C786 C785 1.379 . S
H787 C781 0.959 . S
H788 C781 0.961 . S
H789 C781 0.960 . S
H790 C782 0.930 . S
H791 C783 0.929 . S
H792 C800 0.929 . S
H793 C802 0.930 . S
H794 C804 0.930 . S
H795 C807 0.929 . S
H796 C810 0.930 . S
H797 C812 0.960 . S
H798 C812 0.960 1_556 S
H799 C812 0.960 . S
C800 H792 0.929 . S
C800 C801 1.377 . S
C800 C802 1.384 . S
C801 C800 1.377 . S
C801 C807 1.390 . S
C802 H793 0.930 . S
C802 C800 1.384 . S
C802 C803 1.372 . S
C803 C802 1.372 . S
C803 C804 1.400 . S
C803 C808 1.490 1_556 S
C804 H794 0.930 . S
C804 C803 1.400 . S
C804 C807 1.386 . S
H805 C821 0.930 . S
H806 C822 0.931 . S
C807 H795 0.929 . S
C807 C801 1.390 . S
C807 C804 1.386 . S
C808 C803 1.490 1_554 S
C808 C810 1.395 . S
C808 C811 1.403 . S
H809 C815 0.930 . S
C810 H796 0.930 . S
C810 C808 1.395 . S
C810 C813 1.403 . S
C811 C808 1.403 . S
C811 C812 1.524 . S
C811 C815 1.400 . S
C812 H797 0.960 . S
C812 H798 0.960 1_554 S
C812 H799 0.960 . S
C812 C811 1.524 . S
C813 C810 1.403 . S
C813 C814 1.392 . S
C813 C817 1.495 . S
C814 C813 1.392 . S
C814 C815 1.385 . S
C814 C816 1.478 . S
C815 H809 0.930 . S
C815 C811 1.400 . S
C815 C814 1.385 . S
C816 C814 1.478 . S
C816 C818 1.381 . S
C816 C822 1.383 . S
C817 C813 1.495 . S
C817 H823 0.959 . S
C817 H824 0.961 . S
C817 H825 0.960 . S
C818 C816 1.381 . S
C818 C819 1.394 . S
C818 H826 0.930 . S
C819 C818 1.394 . S
C819 C820 1.383 . S
C819 H827 0.929 . S
C820 C819 1.383 . S
C820 C821 1.377 . S
C821 H805 0.930 . S
C821 C820 1.377 . S
C821 C822 1.379 . S
C822 H806 0.931 . S
C822 C816 1.383 . S
C822 C821 1.379 . S
H823 C817 0.959 . S
H824 C817 0.961 . S
H825 C817 0.960 . S
H826 C818 0.930 . S
H827 C819 0.929 . S
H828 C836 0.929 . S
H829 C838 0.930 . S
H830 C840 0.930 . S
H831 C843 0.929 . S
H832 C846 0.930 . S
H833 C848 0.960 . S
H834 C848 0.960 . S
H835 C848 0.960 . S
C836 H828 0.929 . S
C836 C837 1.377 . S
C836 C838 1.384 . S
C837 C836 1.377 . S
C837 C843 1.390 . S
C838 H829 0.930 . S
C838 C836 1.384 . S
C838 C839 1.372 . S
C839 C838 1.372 . S
C839 C840 1.400 . S
C839 C844 1.490 . S
C840 H830 0.930 . S
C840 C839 1.400 . S
C840 C843 1.386 . S
H841 C857 0.930 . S
H842 C858 0.931 . S
C843 H831 0.929 . S
C843 C837 1.390 . S
C843 C840 1.386 . S
C844 C839 1.490 . S
C844 C846 1.395 . S
C844 C847 1.403 . S
H845 C851 0.930 . S
C846 H832 0.930 . S
C846 C844 1.395 . S
C846 C849 1.403 . S
C847 C844 1.403 . S
C847 C848 1.524 . S
C847 C851 1.400 . S
C848 H833 0.960 . S
C848 H834 0.960 . S
C848 H835 0.960 . S
C848 C847 1.524 . S
C849 C846 1.403 . S
C849 C850 1.392 . S
C849 C853 1.495 1_556 S
C850 C849 1.392 . S
C850 C851 1.385 . S
C850 C852 1.478 . S
C851 H845 0.930 . S
C851 C847 1.400 . S
C851 C850 1.385 . S
C852 C850 1.478 . S
C852 C854 1.381 1_556 S
C852 C858 1.383 . S
C853 C849 1.495 1_554 S
C853 H859 0.959 . S
C853 H860 0.961 . S
C853 H861 0.960 . S
C854 C852 1.381 1_554 S
C854 C855 1.394 . S
C854 H862 0.930 . S
C855 C854 1.394 . S
C855 C856 1.383 . S
C855 H863 0.929 . S
C856 C855 1.383 . S
C856 C857 1.377 1_554 S
C857 H841 0.930 . S
C857 C856 1.377 1_556 S
C857 C858 1.379 . S
C858 H842 0.931 . S
C858 C852 1.383 . S
C858 C857 1.379 . S
H859 C853 0.959 . S
H860 C853 0.961 . S
H861 C853 0.960 . S
H862 C854 0.930 . S
H863 C855 0.929 . S
H864 C872 0.929 . S
H865 C874 0.930 . S
H866 C876 0.930 . S
H867 C879 0.929 . S
H868 C882 0.930 . S
H869 C884 0.960 . S
H870 C884 0.960 . S
H871 C884 0.960 . S
C872 H864 0.929 . S
C872 C873 1.377 . S
C872 C874 1.384 . S
C873 C872 1.377 . S
C873 C879 1.390 . S
C874 H865 0.930 . S
C874 C872 1.384 . S
C874 C875 1.372 . S
C875 C874 1.372 . S
C875 C876 1.400 . S
C875 C880 1.490 . S
C876 H866 0.930 . S
C876 C875 1.400 . S
C876 C879 1.386 . S
H877 C893 0.930 . S
H878 C894 0.931 . S
C879 H867 0.929 . S
C879 C873 1.390 . S
C879 C876 1.386 . S
C880 C875 1.490 . S
C880 C882 1.395 . S
C880 C883 1.403 . S
H881 C887 0.930 . S
C882 H868 0.930 . S
C882 C880 1.395 . S
C882 C885 1.403 . S
C883 C880 1.403 . S
C883 C884 1.524 . S
C883 C887 1.400 . S
C884 H869 0.960 . S
C884 H870 0.960 . S
C884 H871 0.960 . S
C884 C883 1.524 . S
C885 C882 1.403 . S
C885 C886 1.392 . S
C885 C889 1.495 1_554 S
C886 C885 1.392 . S
C886 C887 1.385 . S
C886 C888 1.478 . S
C887 H881 0.930 . S
C887 C883 1.400 . S
C887 C886 1.385 . S
C888 C886 1.478 . S
C888 C890 1.381 . S
C888 C894 1.383 1_554 S
C889 C885 1.495 1_556 S
C889 H895 0.959 . S
C889 H896 0.961 . S
C889 H897 0.960 . S
C890 C888 1.381 . S
C890 C891 1.394 1_554 S
C890 H898 0.930 . S
C891 C890 1.394 1_556 S
C891 C892 1.383 . S
C891 H899 0.929 . S
C892 C891 1.383 . S
C892 C893 1.377 . S
C893 H877 0.930 . S
C893 C892 1.377 . S
C893 C894 1.379 . S
C894 H878 0.931 . S
C894 C888 1.383 1_556 S
C894 C893 1.379 . S
H895 C889 0.959 . S
H896 C889 0.961 . S
H897 C889 0.960 . S
H898 C890 0.930 . S
H899 C891 0.929 . S
H900 C908 0.929 . S
H901 C910 0.930 . S
H902 C912 0.930 . S
H903 C915 0.929 . S
H904 C918 0.930 . S
H905 C920 0.960 . S
H906 C920 0.960 . S
H907 C920 0.960 . S
C908 H900 0.929 . S
C908 C909 1.377 . S
C908 C910 1.384 . S
C909 C908 1.377 . S
C909 C915 1.390 . S
C910 H901 0.930 . S
C910 C908 1.384 . S
C910 C911 1.372 . S
C911 C910 1.372 . S
C911 C912 1.400 . S
C911 C916 1.490 . S
C912 H902 0.930 . S
C912 C911 1.400 . S
C912 C915 1.386 . S
H913 C929 0.930 . S
H914 C930 0.931 . S
C915 H903 0.929 . S
C915 C909 1.390 . S
C915 C912 1.386 . S
C916 C911 1.490 . S
C916 C918 1.395 . S
C916 C919 1.403 . S
H917 C923 0.930 . S
C918 H904 0.930 . S
C918 C916 1.395 . S
C918 C921 1.403 . S
C919 C916 1.403 . S
C919 C920 1.524 . S
C919 C923 1.400 . S
C920 H905 0.960 . S
C920 H906 0.960 . S
C920 H907 0.960 . S
C920 C919 1.524 . S
C921 C918 1.403 . S
C921 C922 1.392 . S
C921 C925 1.495 . S
C922 C921 1.392 . S
C922 C923 1.385 . S
C922 C924 1.478 . S
C923 H917 0.930 . S
C923 C919 1.400 . S
C923 C922 1.385 . S
C924 C922 1.478 . S
C924 C926 1.381 . S
C924 C930 1.383 . S
C925 C921 1.495 . S
C925 H931 0.959 . S
C925 H932 0.961 . S
C925 H933 0.960 . S
C926 C924 1.381 . S
C926 C927 1.394 . S
C926 H934 0.930 . S
C927 C926 1.394 . S
C927 C928 1.383 . S
C927 H935 0.929 . S
C928 C927 1.383 . S
C928 C929 1.377 . S
C929 H913 0.930 . S
C929 C928 1.377 . S
C929 C930 1.379 . S
C930 H914 0.931 . S
C930 C924 1.383 . S
C930 C929 1.379 . S
H931 C925 0.959 . S
H932 C925 0.961 . S
H933 C925 0.960 . S
H934 C926 0.930 . S
H935 C927 0.929 . S
H936 C944 0.929 . S
H937 C946 0.930 . S
H938 C948 0.930 . S
H939 C951 0.929 . S
H940 C954 0.930 . S
H941 C956 0.960 . S
H942 C956 0.960 . S
H943 C956 0.960 . S
C944 H936 0.929 . S
C944 C945 1.377 . S
C944 C946 1.384 . S
C945 C944 1.377 . S
C945 C951 1.390 . S
C946 H937 0.930 . S
C946 C944 1.384 . S
C946 C947 1.372 . S
C947 C946 1.372 . S
C947 C948 1.400 . S
C947 C952 1.490 . S
C948 H938 0.930 . S
C948 C947 1.400 . S
C948 C951 1.386 . S
H949 C965 0.930 . S
H950 C966 0.931 . S
C951 H939 0.929 . S
C951 C945 1.390 . S
C951 C948 1.386 . S
C952 C947 1.490 . S
C952 C954 1.395 . S
C952 C955 1.403 . S
H953 C959 0.930 . S
C954 H940 0.930 . S
C954 C952 1.395 . S
C954 C957 1.403 . S
C955 C952 1.403 . S
C955 C956 1.524 . S
C955 C959 1.400 . S
C956 H941 0.960 . S
C956 H942 0.960 . S
C956 H943 0.960 . S
C956 C955 1.524 . S
C957 C954 1.403 . S
C957 C958 1.392 . S
C957 C961 1.495 . S
C958 C957 1.392 . S
C958 C959 1.385 . S
C958 C960 1.478 . S
C959 H953 0.930 . S
C959 C955 1.400 . S
C959 C958 1.385 . S
C960 C958 1.478 . S
C960 C962 1.381 . S
C960 C966 1.383 . S
C961 C957 1.495 . S
C961 H967 0.959 . S
C961 H968 0.961 . S
C961 H969 0.960 . S
C962 C960 1.381 . S
C962 C963 1.394 . S
C962 H970 0.930 . S
C963 C962 1.394 . S
C963 C964 1.383 . S
C963 H971 0.929 . S
C964 C963 1.383 . S
C964 C965 1.377 . S
C965 H949 0.930 . S
C965 C964 1.377 . S
C965 C966 1.379 . S
C966 H950 0.931 . S
C966 C960 1.383 . S
C966 C965 1.379 . S
H967 C961 0.959 . S
H968 C961 0.961 . S
H969 C961 0.960 . S
H970 C962 0.930 . S
H971 C963 0.929 . S
H972 C980 0.929 . S
H973 C982 0.930 . S
H974 C984 0.930 . S
H975 C987 0.929 . S
H976 C990 0.930 . S
H977 C992 0.960 . S
H978 C992 0.960 . S
H979 C992 0.960 . S
C980 H972 0.929 . S
C980 C981 1.377 . S
C980 C982 1.384 . S
C981 C980 1.377 . S
C981 C987 1.390 . S
C982 H973 0.930 . S
C982 C980 1.384 . S
C982 C983 1.372 . S
C983 C982 1.372 . S
C983 C984 1.400 . S
C983 C988 1.490 . S
C984 H974 0.930 . S
C984 C983 1.400 . S
C984 C987 1.386 . S
H985 C1001 0.930 . S
H986 C1002 0.931 . S
C987 H975 0.929 . S
C987 C981 1.390 . S
C987 C984 1.386 . S
C988 C983 1.490 . S
C988 C990 1.395 . S
C988 C991 1.403 . S
H989 C995 0.930 . S
C990 H976 0.930 . S
C990 C988 1.395 . S
C990 C993 1.403 . S
C991 C988 1.403 . S
C991 C992 1.524 . S
C991 C995 1.400 . S
C992 H977 0.960 . S
C992 H978 0.960 . S
C992 H979 0.960 . S
C992 C991 1.524 . S
C993 C990 1.403 . S
C993 C994 1.392 . S
C993 C997 1.495 . S
C994 C993 1.392 . S
C994 C995 1.385 . S
C994 C996 1.478 . S
C995 H989 0.930 . S
C995 C991 1.400 . S
C995 C994 1.385 . S
C996 C994 1.478 . S
C996 C998 1.381 . S
C996 C1002 1.383 . S
C997 C993 1.495 . S
C997 H1003 0.959 . S
C997 H1004 0.961 . S
C997 H1005 0.960 . S
C998 C996 1.381 . S
C998 C999 1.394 . S
C998 H1006 0.930 . S
C999 C998 1.394 . S
C999 C1000 1.383 . S
C999 H1007 0.929 . S
C1000 C999 1.383 . S
C1000 C1001 1.377 . S
C1001 H985 0.930 . S
C1001 C1000 1.377 . S
C1001 C1002 1.379 . S
C1002 H986 0.931 . S
C1002 C996 1.383 . S
C1002 C1001 1.379 . S
H1003 C997 0.959 . S
H1004 C997 0.961 . S
H1005 C997 0.960 . S
H1006 C998 0.930 . S
H1007 C999 0.929 . S
H1008 C1016 0.929 . S
H1009 C1018 0.930 . S
H1010 C1020 0.930 . S
H1011 C1023 0.929 . S
H1012 C1026 0.930 . S
H1013 C1028 0.960 . S
H1014 C1028 0.960 . S
H1015 C1028 0.960 . S
C1016 H1008 0.929 . S
C1016 C1017 1.377 . S
C1016 C1018 1.384 . S
C1017 C1016 1.377 . S
C1017 C1023 1.390 . S
C1018 H1009 0.930 . S
C1018 C1016 1.384 . S
C1018 C1019 1.372 . S
C1019 C1018 1.372 . S
C1019 C1020 1.400 . S
C1019 C1024 1.490 . S
C1020 H1010 0.930 . S
C1020 C1019 1.400 . S
C1020 C1023 1.386 . S
H1021 C1037 0.930 . S
H1022 C1038 0.931 . S
C1023 H1011 0.929 . S
C1023 C1017 1.390 . S
C1023 C1020 1.386 . S
C1024 C1019 1.490 . S
C1024 C1026 1.395 . S
C1024 C1027 1.403 . S
H1025 C1031 0.930 . S
C1026 H1012 0.930 . S
C1026 C1024 1.395 . S
C1026 C1029 1.403 . S
C1027 C1024 1.403 . S
C1027 C1028 1.524 . S
C1027 C1031 1.400 . S
C1028 H1013 0.960 . S
C1028 H1014 0.960 . S
C1028 H1015 0.960 . S
C1028 C1027 1.524 . S
C1029 C1026 1.403 . S
C1029 C1030 1.392 . S
C1029 C1033 1.495 . S
C1030 C1029 1.392 . S
C1030 C1031 1.385 . S
C1030 C1032 1.478 . S
C1031 H1025 0.930 . S
C1031 C1027 1.400 . S
C1031 C1030 1.385 . S
C1032 C1030 1.478 . S
C1032 C1034 1.381 . S
C1032 C1038 1.383 . S
C1033 C1029 1.495 . S
C1033 H1039 0.959 . S
C1033 H1040 0.961 . S
C1033 H1041 0.960 . S
C1034 C1032 1.381 . S
C1034 C1035 1.394 . S
C1034 H1042 0.930 . S
C1035 C1034 1.394 . S
C1035 C1036 1.383 . S
C1035 H1043 0.929 . S
C1036 C1035 1.383 . S
C1036 C1037 1.377 . S
C1037 H1021 0.930 . S
C1037 C1036 1.377 . S
C1037 C1038 1.379 . S
C1038 H1022 0.931 . S
C1038 C1032 1.383 . S
C1038 C1037 1.379 . S
H1039 C1033 0.959 . S
H1040 C1033 0.961 . S
H1041 C1033 0.960 . S
H1042 C1034 0.930 . S
H1043 C1035 0.929 . S
H1044 C1052 0.929 . S
H1045 C1054 0.930 . S
H1046 C1056 0.930 . S
H1047 C1059 0.929 . S
H1048 C1062 0.930 . S
H1049 C1064 0.960 . S
H1050 C1064 0.960 . S
H1051 C1064 0.960 . S
C1052 H1044 0.929 . S
C1052 C1053 1.377 . S
C1052 C1054 1.384 . S
C1053 C1052 1.377 . S
C1053 C1059 1.390 . S
C1054 H1045 0.930 . S
C1054 C1052 1.384 . S
C1054 C1055 1.372 . S
C1055 C1054 1.372 . S
C1055 C1056 1.400 . S
C1055 C1060 1.490 . S
C1056 H1046 0.930 . S
C1056 C1055 1.400 . S
C1056 C1059 1.386 . S
H1057 C1073 0.930 . S
H1058 C1074 0.931 . S
C1059 H1047 0.929 . S
C1059 C1053 1.390 . S
C1059 C1056 1.386 . S
C1060 C1055 1.490 . S
C1060 C1062 1.395 . S
C1060 C1063 1.403 . S
H1061 C1067 0.930 . S
C1062 H1048 0.930 . S
C1062 C1060 1.395 . S
C1062 C1065 1.403 . S
C1063 C1060 1.403 . S
C1063 C1064 1.524 . S
C1063 C1067 1.400 . S
C1064 H1049 0.960 . S
C1064 H1050 0.960 . S
C1064 H1051 0.960 . S
C1064 C1063 1.524 . S
C1065 C1062 1.403 . S
C1065 C1066 1.392 . S
C1065 C1069 1.495 . S
C1066 C1065 1.392 . S
C1066 C1067 1.385 . S
C1066 C1068 1.478 . S
C1067 H1061 0.930 . S
C1067 C1063 1.400 . S
C1067 C1066 1.385 . S
C1068 C1066 1.478 . S
C1068 C1070 1.381 . S
C1068 C1074 1.383 . S
C1069 C1065 1.495 . S
C1069 H1075 0.959 . S
C1069 H1076 0.961 . S
C1069 H1077 0.960 . S
C1070 C1068 1.381 . S
C1070 C1071 1.394 . S
C1070 H1078 0.930 . S
C1071 C1070 1.394 . S
C1071 C1072 1.383 . S
C1071 H1079 0.929 . S
C1072 C1071 1.383 . S
C1072 C1073 1.377 . S
C1073 H1057 0.930 . S
C1073 C1072 1.377 . S
C1073 C1074 1.379 . S
C1074 H1058 0.931 . S
C1074 C1068 1.383 . S
C1074 C1073 1.379 . S
H1075 C1069 0.959 . S
H1076 C1069 0.961 . S
H1077 C1069 0.960 . S
H1078 C1070 0.930 . S
H1079 C1071 0.929 . S
H1080 C1088 0.929 . S
H1081 C1090 0.930 . S
H1082 C1092 0.930 . S
H1083 C1095 0.929 . S
H1084 C1098 0.930 . S
H1085 C1100 0.960 . S
H1086 C1100 0.960 . S
H1087 C1100 0.960 . S
C1088 H1080 0.929 . S
C1088 C1089 1.377 . S
C1088 C1090 1.384 . S
C1089 C1088 1.377 . S
C1089 C1095 1.390 . S
C1090 H1081 0.930 . S
C1090 C1088 1.384 . S
C1090 C1091 1.372 . S
C1091 C1090 1.372 . S
C1091 C1092 1.400 . S
C1091 C1096 1.490 . S
C1092 H1082 0.930 . S
C1092 C1091 1.400 . S
C1092 C1095 1.386 . S
H1093 C1109 0.930 . S
H1094 C1110 0.931 . S
C1095 H1083 0.929 . S
C1095 C1089 1.390 . S
C1095 C1092 1.386 . S
C1096 C1091 1.490 . S
C1096 C1098 1.395 . S
C1096 C1099 1.403 . S
H1097 C1103 0.930 . S
C1098 H1084 0.930 . S
C1098 C1096 1.395 . S
C1098 C1101 1.403 . S
C1099 C1096 1.403 . S
C1099 C1100 1.524 . S
C1099 C1103 1.400 . S
C1100 H1085 0.960 . S
C1100 H1086 0.960 . S
C1100 H1087 0.960 . S
C1100 C1099 1.524 . S
C1101 C1098 1.403 . S
C1101 C1102 1.392 . S
C1101 C1105 1.495 . S
C1102 C1101 1.392 . S
C1102 C1103 1.385 . S
C1102 C1104 1.478 . S
C1103 H1097 0.930 . S
C1103 C1099 1.400 . S
C1103 C1102 1.385 . S
C1104 C1102 1.478 . S
C1104 C1106 1.381 . S
C1104 C1110 1.383 . S
C1105 C1101 1.495 . S
C1105 H1111 0.959 . S
C1105 H1112 0.961 . S
C1105 H1113 0.960 . S
C1106 C1104 1.381 . S
C1106 C1107 1.394 . S
C1106 H1114 0.930 . S
C1107 C1106 1.394 . S
C1107 C1108 1.383 . S
C1107 H1115 0.929 . S
C1108 C1107 1.383 . S
C1108 C1109 1.377 . S
C1109 H1093 0.930 . S
C1109 C1108 1.377 . S
C1109 C1110 1.379 . S
C1110 H1094 0.931 . S
C1110 C1104 1.383 . S
C1110 C1109 1.379 . S
H1111 C1105 0.959 . S
H1112 C1105 0.961 . S
H1113 C1105 0.960 . S
H1114 C1106 0.930 . S
H1115 C1107 0.929 . S
H1116 C1124 0.929 . S
H1117 C1126 0.930 . S
H1118 C1128 0.930 . S
H1119 C1131 0.929 . S
H1120 C1134 0.930 . S
H1121 C1136 0.960 . S
H1122 C1136 0.960 . S
H1123 C1136 0.960 . S
C1124 H1116 0.929 . S
C1124 C1125 1.377 . S
C1124 C1126 1.384 . S
C1125 C1124 1.377 . S
C1125 C1131 1.390 . S
C1126 H1117 0.930 . S
C1126 C1124 1.384 . S
C1126 C1127 1.372 . S
C1127 C1126 1.372 . S
C1127 C1128 1.400 . S
C1127 C1132 1.490 . S
C1128 H1118 0.930 . S
C1128 C1127 1.400 . S
C1128 C1131 1.386 . S
H1129 C1145 0.930 . S
H1130 C1146 0.931 . S
C1131 H1119 0.929 . S
C1131 C1125 1.390 . S
C1131 C1128 1.386 . S
C1132 C1127 1.490 . S
C1132 C1134 1.395 . S
C1132 C1135 1.403 . S
H1133 C1139 0.930 . S
C1134 H1120 0.930 . S
C1134 C1132 1.395 . S
C1134 C1137 1.403 . S
C1135 C1132 1.403 . S
C1135 C1136 1.524 . S
C1135 C1139 1.400 . S
C1136 H1121 0.960 . S
C1136 H1122 0.960 . S
C1136 H1123 0.960 . S
C1136 C1135 1.524 . S
C1137 C1134 1.403 . S
C1137 C1138 1.392 . S
C1137 C1141 1.495 . S
C1138 C1137 1.392 . S
C1138 C1139 1.385 . S
C1138 C1140 1.478 . S
C1139 H1133 0.930 . S
C1139 C1135 1.400 . S
C1139 C1138 1.385 . S
C1140 C1138 1.478 . S
C1140 C1142 1.381 . S
C1140 C1146 1.383 . S
C1141 C1137 1.495 . S
C1141 H1147 0.959 . S
C1141 H1148 0.961 . S
C1141 H1149 0.960 . S
C1142 C1140 1.381 . S
C1142 C1143 1.394 . S
C1142 H1150 0.930 . S
C1143 C1142 1.394 . S
C1143 C1144 1.383 . S
C1143 H1151 0.929 . S
C1144 C1143 1.383 . S
C1144 C1145 1.377 . S
C1145 H1129 0.930 . S
C1145 C1144 1.377 . S
C1145 C1146 1.379 . S
C1146 H1130 0.931 . S
C1146 C1140 1.383 . S
C1146 C1145 1.379 . S
H1147 C1141 0.959 . S
H1148 C1141 0.961 . S
H1149 C1141 0.960 . S
H1150 C1142 0.930 . S
H1151 C1143 0.929 . S
H1152 C1160 0.929 . S
H1153 C1162 0.930 . S
H1154 C1164 0.930 . S
H1155 C1167 0.929 . S
H1156 C1170 0.930 . S
H1157 C1172 0.960 . S
H1158 C1172 0.960 . S
H1159 C1172 0.960 . S
C1160 H1152 0.929 . S
C1160 C1161 1.377 . S
C1160 C1162 1.384 . S
C1161 C1160 1.377 . S
C1161 C1167 1.390 . S
C1162 H1153 0.930 . S
C1162 C1160 1.384 . S
C1162 C1163 1.372 . S
C1163 C1162 1.372 . S
C1163 C1164 1.400 . S
C1163 C1168 1.490 . S
C1164 H1154 0.930 . S
C1164 C1163 1.400 . S
C1164 C1167 1.386 . S
H1165 C1181 0.930 . S
H1166 C1182 0.931 . S
C1167 H1155 0.929 . S
C1167 C1161 1.390 . S
C1167 C1164 1.386 . S
C1168 C1163 1.490 . S
C1168 C1170 1.395 . S
C1168 C1171 1.403 . S
H1169 C1175 0.930 . S
C1170 H1156 0.930 . S
C1170 C1168 1.395 . S
C1170 C1173 1.403 . S
C1171 C1168 1.403 . S
C1171 C1172 1.524 . S
C1171 C1175 1.400 . S
C1172 H1157 0.960 . S
C1172 H1158 0.960 . S
C1172 H1159 0.960 . S
C1172 C1171 1.524 . S
C1173 C1170 1.403 . S
C1173 C1174 1.392 . S
C1173 C1177 1.495 . S
C1174 C1173 1.392 . S
C1174 C1175 1.385 . S
C1174 C1176 1.478 . S
C1175 H1169 0.930 . S
C1175 C1171 1.400 . S
C1175 C1174 1.385 . S
C1176 C1174 1.478 . S
C1176 C1178 1.381 . S
C1176 C1182 1.383 . S
C1177 C1173 1.495 . S
C1177 H1183 0.959 . S
C1177 H1184 0.961 . S
C1177 H1185 0.960 . S
C1178 C1176 1.381 . S
C1178 C1179 1.394 . S
C1178 H1186 0.930 . S
C1179 C1178 1.394 . S
C1179 C1180 1.383 . S
C1179 H1187 0.929 . S
C1180 C1179 1.383 . S
C1180 C1181 1.377 . S
C1181 H1165 0.930 . S
C1181 C1180 1.377 . S
C1181 C1182 1.379 . S
C1182 H1166 0.931 . S
C1182 C1176 1.383 . S
C1182 C1181 1.379 . S
H1183 C1177 0.959 . S
H1184 C1177 0.961 . S
H1185 C1177 0.960 . S
H1186 C1178 0.930 . S
H1187 C1179 0.929 . S
H1188 C1196 0.929 . S
H1189 C1198 0.930 . S
H1190 C1200 0.930 . S
H1191 C1203 0.929 . S
H1192 C1206 0.930 . S
H1193 C1208 0.960 . S
H1194 C1208 0.960 . S
H1195 C1208 0.960 . S
C1196 H1188 0.929 . S
C1196 C1197 1.377 . S
C1196 C1198 1.384 . S
C1197 C1196 1.377 . S
C1197 C1203 1.390 1_554 S
C1198 H1189 0.930 . S
C1198 C1196 1.384 . S
C1198 C1199 1.372 1_554 S
C1199 C1198 1.372 1_556 S
C1199 C1200 1.400 . S
C1199 C1204 1.490 . S
C1200 H1190 0.930 . S
C1200 C1199 1.400 . S
C1200 C1203 1.386 . S
H1201 C1217 0.930 . S
H1202 C1218 0.931 . S
C1203 H1191 0.929 . S
C1203 C1197 1.390 1_556 S
C1203 C1200 1.386 . S
C1204 C1199 1.490 . S
C1204 C1206 1.395 . S
C1204 C1207 1.403 . S
H1205 C1211 0.930 . S
C1206 H1192 0.930 . S
C1206 C1204 1.395 . S
C1206 C1209 1.403 . S
C1207 C1204 1.403 . S
C1207 C1208 1.524 . S
C1207 C1211 1.400 . S
C1208 H1193 0.960 . S
C1208 H1194 0.960 . S
C1208 H1195 0.960 . S
C1208 C1207 1.524 . S
C1209 C1206 1.403 . S
C1209 C1210 1.392 . S
C1209 C1213 1.495 . S
C1210 C1209 1.392 . S
C1210 C1211 1.385 . S
C1210 C1212 1.478 . S
C1211 H1205 0.930 . S
C1211 C1207 1.400 . S
C1211 C1210 1.385 . S
C1212 C1210 1.478 . S
C1212 C1214 1.381 . S
C1212 C1218 1.383 . S
C1213 C1209 1.495 . S
C1213 H1219 0.959 . S
C1213 H1220 0.961 . S
C1213 H1221 0.960 . S
C1214 C1212 1.381 . S
C1214 C1215 1.394 . S
C1214 H1222 0.930 . S
C1215 C1214 1.394 . S
C1215 C1216 1.383 . S
C1215 H1223 0.929 . S
C1216 C1215 1.383 . S
C1216 C1217 1.377 . S
C1217 H1201 0.930 . S
C1217 C1216 1.377 . S
C1217 C1218 1.379 . S
C1218 H1202 0.931 . S
C1218 C1212 1.383 . S
C1218 C1217 1.379 . S
H1219 C1213 0.959 . S
H1220 C1213 0.961 . S
H1221 C1213 0.960 . S
H1222 C1214 0.930 . S
H1223 C1215 0.929 . S
H1224 C1232 0.929 . S
H1225 C1234 0.930 . S
H1226 C1236 0.930 . S
H1227 C1239 0.929 . S
H1228 C1242 0.930 . S
H1229 C1244 0.960 1_556 S
H1230 C1244 0.960 . S
H1231 C1244 0.960 . S
C1232 H1224 0.929 . S
C1232 C1233 1.377 . S
C1232 C1234 1.384 . S
C1233 C1232 1.377 . S
C1233 C1239 1.390 . S
C1234 H1225 0.930 . S
C1234 C1232 1.384 . S
C1234 C1235 1.372 . S
C1235 C1234 1.372 . S
C1235 C1236 1.400 . S
C1235 C1240 1.490 . S
C1236 H1226 0.930 . S
C1236 C1235 1.400 . S
C1236 C1239 1.386 . S
H1237 C1253 0.930 . S
H1238 C1254 0.931 . S
C1239 H1227 0.929 . S
C1239 C1233 1.390 . S
C1239 C1236 1.386 . S
C1240 C1235 1.490 . S
C1240 C1242 1.395 . S
C1240 C1243 1.403 . S
H1241 C1247 0.930 1_556 S
C1242 H1228 0.930 . S
C1242 C1240 1.395 . S
C1242 C1245 1.403 . S
C1243 C1240 1.403 . S
C1243 C1244 1.524 . S
C1243 C1247 1.400 . S
C1244 H1229 0.960 1_554 S
C1244 H1230 0.960 . S
C1244 H1231 0.960 . S
C1244 C1243 1.524 . S
C1245 C1242 1.403 . S
C1245 C1246 1.392 . S
C1245 C1249 1.495 . S
C1246 C1245 1.392 . S
C1246 C1247 1.385 . S
C1246 C1248 1.478 . S
C1247 H1241 0.930 1_554 S
C1247 C1243 1.400 . S
C1247 C1246 1.385 . S
C1248 C1246 1.478 . S
C1248 C1250 1.381 . S
C1248 C1254 1.383 . S
C1249 C1245 1.495 . S
C1249 H1255 0.959 . S
C1249 H1256 0.961 . S
C1249 H1257 0.960 . S
C1250 C1248 1.381 . S
C1250 C1251 1.394 1_554 S
C1250 H1258 0.930 . S
C1251 C1250 1.394 1_556 S
C1251 C1252 1.383 . S
C1251 H1259 0.929 . S
C1252 C1251 1.383 . S
C1252 C1253 1.377 . S
C1253 H1237 0.930 . S
C1253 C1252 1.377 . S
C1253 C1254 1.379 1_556 S
C1254 H1238 0.931 . S
C1254 C1248 1.383 . S
C1254 C1253 1.379 1_554 S
H1255 C1249 0.959 . S
H1256 C1249 0.961 . S
H1257 C1249 0.960 . S
H1258 C1250 0.930 . S
H1259 C1251 0.929 . S
H1260 C1268 0.929 . S
H1261 C1270 0.930 . S
H1262 C1272 0.930 . S
H1263 C1275 0.929 . S
H1264 C1278 0.930 . S
H1265 C1280 0.960 . S
H1266 C1280 0.960 . S
H1267 C1280 0.960 . S
C1268 H1260 0.929 . S
C1268 C1269 1.377 . S
C1268 C1270 1.384 . S
C1269 C1268 1.377 . S
C1269 C1275 1.390 . S
C1270 H1261 0.930 . S
C1270 C1268 1.384 . S
C1270 C1271 1.372 . S
C1271 C1270 1.372 . S
C1271 C1272 1.400 . S
C1271 C1276 1.490 . S
C1272 H1262 0.930 . S
C1272 C1271 1.400 . S
C1272 C1275 1.386 . S
H1273 C1289 0.930 . S
H1274 C1290 0.931 . S
C1275 H1263 0.929 . S
C1275 C1269 1.390 . S
C1275 C1272 1.386 . S
C1276 C1271 1.490 . S
C1276 C1278 1.395 . S
C1276 C1279 1.403 . S
H1277 C1283 0.930 . S
C1278 H1264 0.930 . S
C1278 C1276 1.395 . S
C1278 C1281 1.403 . S
C1279 C1276 1.403 . S
C1279 C1280 1.524 . S
C1279 C1283 1.400 . S
C1280 H1265 0.960 . S
C1280 H1266 0.960 . S
C1280 H1267 0.960 . S
C1280 C1279 1.524 . S
C1281 C1278 1.403 . S
C1281 C1282 1.392 . S
C1281 C1285 1.495 . S
C1282 C1281 1.392 . S
C1282 C1283 1.385 . S
C1282 C1284 1.478 . S
C1283 H1277 0.930 . S
C1283 C1279 1.400 . S
C1283 C1282 1.385 . S
C1284 C1282 1.478 . S
C1284 C1286 1.381 . S
C1284 C1290 1.383 . S
C1285 C1281 1.495 . S
C1285 H1291 0.959 . S
C1285 H1292 0.961 . S
C1285 H1293 0.960 . S
C1286 C1284 1.381 . S
C1286 C1287 1.394 . S
C1286 H1294 0.930 . S
C1287 C1286 1.394 . S
C1287 C1288 1.383 . S
C1287 H1295 0.929 . S
C1288 C1287 1.383 . S
C1288 C1289 1.377 . S
C1289 H1273 0.930 . S
C1289 C1288 1.377 . S
C1289 C1290 1.379 . S
C1290 H1274 0.931 . S
C1290 C1284 1.383 . S
C1290 C1289 1.379 . S
H1291 C1285 0.959 . S
H1292 C1285 0.961 . S
H1293 C1285 0.960 . S
H1294 C1286 0.930 . S
H1295 C1287 0.929 . S
H1296 C1304 0.929 . S
H1297 C1306 0.930 . S
H1298 C1308 0.930 . S
H1299 C1311 0.929 . S
H1300 C1314 0.930 . S
H1301 C1316 0.960 . S
H1302 C1316 0.960 . S
H1303 C1316 0.960 . S
C1304 H1296 0.929 . S
C1304 C1305 1.377 . S
C1304 C1306 1.384 . S
C1305 C1304 1.377 . S
C1305 C1311 1.390 . S
C1306 H1297 0.930 . S
C1306 C1304 1.384 . S
C1306 C1307 1.372 . S
C1307 C1306 1.372 . S
C1307 C1308 1.400 . S
C1307 C1312 1.490 . S
C1308 H1298 0.930 . S
C1308 C1307 1.400 . S
C1308 C1311 1.386 . S
H1309 C1325 0.930 . S
H1310 C1326 0.931 . S
C1311 H1299 0.929 . S
C1311 C1305 1.390 . S
C1311 C1308 1.386 . S
C1312 C1307 1.490 . S
C1312 C1314 1.395 . S
C1312 C1315 1.403 . S
H1313 C1319 0.930 . S
C1314 H1300 0.930 . S
C1314 C1312 1.395 . S
C1314 C1317 1.403 1_655 S
C1315 C1312 1.403 . S
C1315 C1316 1.524 . S
C1315 C1319 1.400 1_655 S
C1316 H1301 0.960 . S
C1316 H1302 0.960 . S
C1316 H1303 0.960 . S
C1316 C1315 1.524 . S
C1317 C1314 1.403 1_455 S
C1317 C1318 1.392 . S
C1317 C1321 1.495 . S
C1318 C1317 1.392 . S
C1318 C1319 1.385 . S
C1318 C1320 1.478 . S
C1319 H1313 0.930 . S
C1319 C1315 1.400 1_455 S
C1319 C1318 1.385 . S
C1320 C1318 1.478 . S
C1320 C1322 1.381 . S
C1320 C1326 1.383 . S
C1321 C1317 1.495 . S
C1321 H1327 0.959 . S
C1321 H1328 0.961 . S
C1321 H1329 0.960 . S
C1322 C1320 1.381 . S
C1322 C1323 1.394 . S
C1322 H1330 0.930 . S
C1323 C1322 1.394 . S
C1323 C1324 1.383 . S
C1323 H1331 0.929 . S
C1324 C1323 1.383 . S
C1324 C1325 1.377 . S
C1325 H1309 0.930 . S
C1325 C1324 1.377 . S
C1325 C1326 1.379 . S
C1326 H1310 0.931 . S
C1326 C1320 1.383 . S
C1326 C1325 1.379 . S
H1327 C1321 0.959 . S
H1328 C1321 0.961 . S
H1329 C1321 0.960 . S
H1330 C1322 0.930 . S
H1331 C1323 0.929 . S
H1332 C1340 0.929 . S
H1333 C1342 0.930 . S
H1334 C1344 0.930 . S
H1335 C1347 0.929 . S
H1336 C1350 0.930 . S
H1337 C1352 0.960 1_565 S
H1338 C1352 0.960 . S
H1339 C1352 0.960 . S
C1340 H1332 0.929 . S
C1340 C1341 1.377 . S
C1340 C1342 1.384 . S
C1341 C1340 1.377 . S
C1341 C1347 1.390 . S
C1342 H1333 0.930 . S
C1342 C1340 1.384 . S
C1342 C1343 1.372 . S
C1343 C1342 1.372 . S
C1343 C1344 1.400 . S
C1343 C1348 1.490 . S
C1344 H1334 0.930 . S
C1344 C1343 1.400 . S
C1344 C1347 1.386 . S
H1345 C1361 0.930 . S
H1346 C1362 0.931 . S
C1347 H1335 0.929 . S
C1347 C1341 1.390 . S
C1347 C1344 1.386 . S
C1348 C1343 1.490 . S
C1348 C1350 1.395 . S
C1348 C1351 1.403 . S
H1349 C1355 0.930 . S
C1350 H1336 0.930 . S
C1350 C1348 1.395 . S
C1350 C1353 1.403 1_545 S
C1351 C1348 1.403 . S
C1351 C1352 1.524 . S
C1351 C1355 1.400 1_545 S
C1352 H1337 0.960 1_545 S
C1352 H1338 0.960 . S
C1352 H1339 0.960 . S
C1352 C1351 1.524 . S
C1353 C1350 1.403 1_565 S
C1353 C1354 1.392 . S
C1353 C1357 1.495 . S
C1354 C1353 1.392 . S
C1354 C1355 1.385 . S
C1354 C1356 1.478 . S
C1355 H1349 0.930 . S
C1355 C1351 1.400 1_565 S
C1355 C1354 1.385 . S
C1356 C1354 1.478 . S
C1356 C1358 1.381 . S
C1356 C1362 1.383 . S
C1357 C1353 1.495 . S
C1357 H1363 0.959 1_565 S
C1357 H1364 0.961 . S
C1357 H1365 0.960 . S
C1358 C1356 1.381 . S
C1358 C1359 1.394 . S
C1358 H1366 0.930 . S
C1359 C1358 1.394 . S
C1359 C1360 1.383 . S
C1359 H1367 0.929 . S
C1360 C1359 1.383 . S
C1360 C1361 1.377 . S
C1361 H1345 0.930 . S
C1361 C1360 1.377 . S
C1361 C1362 1.379 . S
C1362 H1346 0.931 . S
C1362 C1356 1.383 . S
C1362 C1361 1.379 . S
H1363 C1357 0.959 1_545 S
H1364 C1357 0.961 . S
H1365 C1357 0.960 . S
H1366 C1358 0.930 . S
H1367 C1359 0.929 . S
H1368 C1376 0.929 . S
H1369 C1378 0.930 . S
H1370 C1380 0.930 . S
H1371 C1383 0.929 . S
H1372 C1386 0.930 . S
H1373 C1388 0.960 . S
H1374 C1388 0.960 . S
H1375 C1388 0.960 . S
C1376 H1368 0.929 . S
C1376 C1377 1.377 . S
C1376 C1378 1.384 . S
C1377 C1376 1.377 . S
C1377 C1383 1.390 . S
C1378 H1369 0.930 . S
C1378 C1376 1.384 . S
C1378 C1379 1.372 . S
C1379 C1378 1.372 . S
C1379 C1380 1.400 . S
C1379 C1384 1.490 . S
C1380 H1370 0.930 . S
C1380 C1379 1.400 . S
C1380 C1383 1.386 . S
H1381 C1397 0.930 . S
H1382 C1398 0.931 . S
C1383 H1371 0.929 . S
C1383 C1377 1.390 . S
C1383 C1380 1.386 . S
C1384 C1379 1.490 . S
C1384 C1386 1.395 . S
C1384 C1387 1.403 . S
H1385 C1391 0.930 . S
C1386 H1372 0.930 . S
C1386 C1384 1.395 . S
C1386 C1389 1.403 . S
C1387 C1384 1.403 . S
C1387 C1388 1.524 . S
C1387 C1391 1.400 . S
C1388 H1373 0.960 . S
C1388 H1374 0.960 . S
C1388 H1375 0.960 . S
C1388 C1387 1.524 . S
C1389 C1386 1.403 . S
C1389 C1390 1.392 . S
C1389 C1393 1.495 . S
C1390 C1389 1.392 . S
C1390 C1391 1.385 . S
C1390 C1392 1.478 . S
C1391 H1385 0.930 . S
C1391 C1387 1.400 . S
C1391 C1390 1.385 . S
C1392 C1390 1.478 . S
C1392 C1394 1.381 . S
C1392 C1398 1.383 . S
C1393 C1389 1.495 . S
C1393 H1399 0.959 . S
C1393 H1400 0.961 . S
C1393 H1401 0.960 . S
C1394 C1392 1.381 . S
C1394 C1395 1.394 . S
C1394 H1402 0.930 . S
C1395 C1394 1.394 . S
C1395 C1396 1.383 . S
C1395 H1403 0.929 . S
C1396 C1395 1.383 . S
C1396 C1397 1.377 . S
C1397 H1381 0.930 . S
C1397 C1396 1.377 . S
C1397 C1398 1.379 . S
C1398 H1382 0.931 . S
C1398 C1392 1.383 . S
C1398 C1397 1.379 . S
H1399 C1393 0.959 . S
H1400 C1393 0.961 . S
H1401 C1393 0.960 . S
H1402 C1394 0.930 . S
H1403 C1395 0.929 . S
H1404 C1412 0.929 . S
H1405 C1414 0.930 . S
H1406 C1416 0.930 . S
H1407 C1419 0.929 . S
H1408 C1422 0.930 . S
H1409 C1424 0.960 . S
H1410 C1424 0.960 . S
H1411 C1424 0.960 . S
C1412 H1404 0.929 . S
C1412 C1413 1.377 . S
C1412 C1414 1.384 . S
C1413 C1412 1.377 . S
C1413 C1419 1.390 . S
C1414 H1405 0.930 . S
C1414 C1412 1.384 . S
C1414 C1415 1.372 . S
C1415 C1414 1.372 . S
C1415 C1416 1.400 . S
C1415 C1420 1.490 . S
C1416 H1406 0.930 . S
C1416 C1415 1.400 . S
C1416 C1419 1.386 . S
H1417 C1433 0.930 . S
H1418 C1434 0.931 . S
C1419 H1407 0.929 . S
C1419 C1413 1.390 . S
C1419 C1416 1.386 . S
C1420 C1415 1.490 . S
C1420 C1422 1.395 . S
C1420 C1423 1.403 . S
H1421 C1427 0.930 . S
C1422 H1408 0.930 . S
C1422 C1420 1.395 . S
C1422 C1425 1.403 1_455 S
C1423 C1420 1.403 . S
C1423 C1424 1.524 . S
C1423 C1427 1.400 1_455 S
C1424 H1409 0.960 . S
C1424 H1410 0.960 . S
C1424 H1411 0.960 . S
C1424 C1423 1.524 . S
C1425 C1422 1.403 1_655 S
C1425 C1426 1.392 . S
C1425 C1429 1.495 . S
C1426 C1425 1.392 . S
C1426 C1427 1.385 . S
C1426 C1428 1.478 . S
C1427 H1421 0.930 . S
C1427 C1423 1.400 1_655 S
C1427 C1426 1.385 . S
C1428 C1426 1.478 . S
C1428 C1430 1.381 . S
C1428 C1434 1.383 . S
C1429 C1425 1.495 . S
C1429 H1435 0.959 . S
C1429 H1436 0.961 . S
C1429 H1437 0.960 . S
C1430 C1428 1.381 . S
C1430 C1431 1.394 . S
C1430 H1438 0.930 . S
C1431 C1430 1.394 . S
C1431 C1432 1.383 . S
C1431 H1439 0.929 . S
C1432 C1431 1.383 . S
C1432 C1433 1.377 . S
C1433 H1417 0.930 . S
C1433 C1432 1.377 . S
C1433 C1434 1.379 . S
C1434 H1418 0.931 . S
C1434 C1428 1.383 . S
C1434 C1433 1.379 . S
H1435 C1429 0.959 . S
H1436 C1429 0.961 . S
H1437 C1429 0.960 . S
H1438 C1430 0.930 . S
H1439 C1431 0.929 . S
H1440 C1448 0.929 . S
H1441 C1450 0.930 . S
H1442 C1452 0.930 . S
H1443 C1455 0.929 . S
H1444 C1458 0.930 . S
H1445 C1460 0.960 . S
H1446 C1460 0.960 . S
H1447 C1460 0.960 . S
C1448 H1440 0.929 . S
C1448 C1449 1.377 . S
C1448 C1450 1.384 . S
C1449 C1448 1.377 . S
C1449 C1455 1.390 . S
C1450 H1441 0.930 . S
C1450 C1448 1.384 . S
C1450 C1451 1.372 . S
C1451 C1450 1.372 . S
C1451 C1452 1.400 . S
C1451 C1456 1.490 . S
C1452 H1442 0.930 . S
C1452 C1451 1.400 . S
C1452 C1455 1.386 . S
H1453 C1469 0.930 . S
H1454 C1470 0.931 . S
C1455 H1443 0.929 . S
C1455 C1449 1.390 . S
C1455 C1452 1.386 . S
C1456 C1451 1.490 . S
C1456 C1458 1.395 . S
C1456 C1459 1.403 1_556 S
H1457 C1463 0.930 . S
C1458 H1444 0.930 . S
C1458 C1456 1.395 . S
C1458 C1461 1.403 1_545 S
C1459 C1456 1.403 1_554 S
C1459 C1460 1.524 . S
C1459 C1463 1.400 1_545 S
C1460 H1445 0.960 . S
C1460 H1446 0.960 . S
C1460 H1447 0.960 . S
C1460 C1459 1.524 . S
C1461 C1458 1.403 1_565 S
C1461 C1462 1.392 1_556 S
C1461 C1465 1.495 . S
C1462 C1461 1.392 1_554 S
C1462 C1463 1.385 . S
C1462 C1464 1.478 . S
C1463 H1457 0.930 . S
C1463 C1459 1.400 1_565 S
C1463 C1462 1.385 . S
C1464 C1462 1.478 . S
C1464 C1466 1.381 . S
C1464 C1470 1.383 . S
C1465 C1461 1.495 . S
C1465 H1471 0.959 . S
C1465 H1472 0.961 . S
C1465 H1473 0.960 . S
C1466 C1464 1.381 . S
C1466 C1467 1.394 . S
C1466 H1474 0.930 . S
C1467 C1466 1.394 . S
C1467 C1468 1.383 . S
C1467 H1475 0.929 . S
C1468 C1467 1.383 . S
C1468 C1469 1.377 . S
C1469 H1453 0.930 . S
C1469 C1468 1.377 . S
C1469 C1470 1.379 . S
C1470 H1454 0.931 . S
C1470 C1464 1.383 . S
C1470 C1469 1.379 . S
H1471 C1465 0.959 . S
H1472 C1465 0.961 . S
H1473 C1465 0.960 . S
H1474 C1466 0.930 . S
H1475 C1467 0.929 . S
C405 N13 1.089 . S
C424 N2 1.105 . S
C441 N35 1.088 . S
C460 N46 1.105 . S
C477 N68 1.082 . S
C496 N79 1.068 . S
C513 N112 1.083 . S
C532 N101 1.072 . S
C549 N145 1.106 . S
C568 N134 1.097 . S
C585 N167 1.090 . S
C604 N178 1.102 . S
C621 N211 1.085 . S
C640 N200 1.063 . S
C657 N244 1.091 . S
C676 N233 1.090 . S
C693 N266 1.087 . S
C712 N277 1.070 . S
C729 N310 1.096 . S
C748 N299 1.069 . S
C765 N343 1.083 . S
C784 N332 1.077 . S
C801 N365 1.083 . S
C820 N376 1.065 . S
C837 C205 1.547 . S
C856 C7 1.565 . S
C873 C40 1.552 . S
C892 C238 1.552 . S
C909 C271 1.551 . S
C928 C73 1.557 . S
C945 C304 1.554 . S
C964 C106 1.536 . S
C981 C337 1.554 . S
C1000 C139 1.533 . S
C1017 C370 1.551 . S
C1036 C172 1.531 . S
C1053 C18 1.090 . S
C1072 C348 1.086 . S
C1089 C51 1.089 . S
C1108 C381 1.073 . S
C1125 C84 1.096 . S
C1144 C216 1.110 . S
C1161 C249 1.087 . S
C1180 C117 1.070 . S
C1197 C282 1.095 . S
C1216 C150 1.104 . S
C1233 C315 1.087 . S
C1252 C183 1.069 . S
C1269 C21 1.394 . S
C1288 C318 1.407 . S
C1305 C54 1.401 . S
C1324 C351 1.379 . S
C1341 C384 1.396 . S
C1360 C87 1.400 . S
C1377 C120 1.396 . S
C1396 C219 1.396 . S
C1413 C153 1.396 . S
C1432 C252 1.401 . S
C1449 C186 1.399 . S
C1468 C285 1.388 . S
